
#######################################################################
#
#                 Cambridge Crystallographic Data Centre
#                                CCDC 
#
#######################################################################
#
# If this CIF has been generated from an entry in the Cambridge 
# Structural Database, then it will include bibliographic, chemical, 
# crystal, experimental, refinement or atomic coordinate data resulting 
# from the CCDC's data processing and validation procedures.
#
#######################################################################

data_DIJCUV
_symmetry_cell_setting           triclinic
_symmetry_space_group_name_H-M   'P -1'
_symmetry_Int_Tables_number      2
_space_group_name_Hall           '-P 1'
loop_
_symmetry_equiv_pos_site_id
_symmetry_equiv_pos_as_xyz
1 x,y,z
2 -x,-y,-z
_cell_length_a                   13.206(3)
_cell_length_b                   18.638(4)
_cell_length_c                   23.921(5)
_cell_angle_alpha                107.30(3)
_cell_angle_beta                 99.59(3)
_cell_angle_gamma                94.05(3)
_cell_volume                     5497.5
loop_
_atom_site_label
_atom_site_type_symbol
_atom_site_fract_x
_atom_site_fract_y
_atom_site_fract_z
W13 W -0.24443(8) -0.47555(7) 0.58433(6)
W14 W -0.70172(9) -0.42932(7) 0.57214(6)
W15 W -0.64809(9) -0.68196(7) 0.44622(6)
W16 W -0.58582(9) -0.58474(7) 0.60132(6)
W17 W -0.44613(9) -0.39875(7) 0.65511(5)
W18 W -0.39076(9) -0.65972(7) 0.52406(6)
P2 P -0.5000 -0.5000 0.5000
O41 O -0.4710(16) -0.6282(13) 0.5865(10)
O42 O -0.3403(16) -0.7331(12) 0.5375(10)
O43 O -0.6603(13) -0.6535(11) 0.5227(8)
O44 O -0.3229(15) -0.4367(14) 0.6440(10)
O45 O -0.5854(13) -0.3820(11) 0.6307(8)
O46 O -0.2254(13) -0.5129(11) 0.5027(8)
O47 O -0.6249(16) -0.6261(12) 0.6489(10)
O48 O -0.7970(14) -0.3969(12) 0.6055(9)
O49 O -0.6890(17) -0.5187(14) 0.5916(11)
O50 O -0.2535(17) -0.3815(13) 0.5701(10)
O51 O -0.7162(14) -0.7672(10) 0.4239(9)
O52 O -0.5169(15) -0.7072(12) 0.4724(9)
O53 O -0.3987(16) -0.3224(12) 0.6251(11)
O54 O -0.1247(14) -0.4647(14) 0.6220(11)
O55 O -0.6702(19) -0.3505(13) 0.5413(10)
O56 O -0.2915(18) -0.5777(13) 0.5743(9)
O57 O -0.4197(19) -0.3551(13) 0.7290(9)
O58 O -0.5221(19) -0.5727(16) 0.5123(12)
O59 O -0.401(2) -0.5368(17) 0.5057(13)
O60 O -0.421(2) -0.4480(17) 0.5493(13)
O61 O -0.539(2) -0.4825(16) 0.5582(13)
O62 O -0.4970(15) -0.4991(12) 0.6512(11)
W13A W -0.75557(8) -0.52445(7) 0.41567(6)
W14A W -0.29828(9) -0.57068(7) 0.42786(6)
W15A W -0.35191(9) -0.31804(7) 0.55378(6)
W16A W -0.41418(9) -0.41526(7) 0.39868(6)
W17A W -0.55387(9) -0.60125(7) 0.34489(5)
W18A W -0.60924(9) -0.34028(7) 0.47594(6)
O41A O -0.5290(16) -0.3718(13) 0.4135(10)
O42A O -0.6597(16) -0.2669(12) 0.4625(10)
O43A O -0.3397(13) -0.3465(11) 0.4773(8)
O44A O -0.6771(15) -0.5633(14) 0.3560(10)
O45A O -0.4146(13) -0.6180(11) 0.3693(8)
O46A O -0.7746(13) -0.4871(11) 0.4973(8)
O47A O -0.3751(16) -0.3739(12) 0.3511(10)
O48A O -0.2030(14) -0.6031(12) 0.3945(9)
O49A O -0.3110(17) -0.4813(14) 0.4084(11)
O50A O -0.7465(17) -0.6185(13) 0.4299(10)
O51A O -0.2838(14) -0.2328(10) 0.5761(9)
O52A O -0.4831(15) -0.2928(12) 0.5276(9)
O53A O -0.6013(16) -0.6776(12) 0.3749(11)
O54A O -0.8753(14) -0.5353(14) 0.3780(11)
O55A O -0.3298(19) -0.6495(13) 0.4587(10)
O56A O -0.7085(18) -0.4223(13) 0.4257(9)
O57A O -0.5803(19) -0.6449(13) 0.2710(9)
O58A O -0.4779(19) -0.4273(16) 0.4877(12)
O59A O -0.599(2) -0.4632(17) 0.4943(13)
O60A O -0.579(2) -0.5520(17) 0.4507(13)
O61A O -0.461(2) -0.5175(16) 0.4418(13)
O62A O -0.5030(15) -0.5009(12) 0.3488(11)
Cu2 Cu -0.3799(3) 0.2209(3) 0.1479(2)
N5 N -0.5152(13) 0.1881(11) 0.1525(9)
C11 C -0.5950(15) 0.2267(10) 0.1468(11)
H15 H -0.5929 0.2735 0.1401
N6 N -0.6783(13) 0.1869(12) 0.1521(10)
C12 C -0.6500(15) 0.1236(13) 0.1612(12)
H16 H -0.6931 0.0854 0.1665
C13 C -0.5491(14) 0.1243(13) 0.1615(11)
H17 H -0.5094 0.0868 0.1670
N7 N -1.2540(16) 0.2640(15) 0.1349(12)
C14 C -1.2409(18) 0.2959(15) 0.0934(13)
H18 H -1.2929 0.3102 0.0691
C15 C -1.1405(18) 0.3038(15) 0.0926(13)
H19 H -1.1098 0.3246 0.0677
N8 N -1.0916(15) 0.2768(18) 0.1337(12)
C16 C -1.1617(19) 0.2522(19) 0.1598(12)
H20 H -1.1485 0.2305 0.1902
C17 C -0.7805(18) 0.2078(19) 0.1448(16)
H21 H -0.8286 0.1618 0.1254
H22 H -0.7852 0.2376 0.1176
C18 C -0.816(2) 0.251(2) 0.1988(13)
H23 H -0.7813 0.3024 0.2121
H24 H -0.7948 0.2287 0.2301
C19 C -0.929(3) 0.254(3) 0.192(2)
H25 H -0.9649 0.2031 0.1813
H26 H -0.9444 0.2833 0.2299
C20 C -0.965(4) 0.286(3) 0.149(3)
H27 H -0.9398 0.2624 0.1129
H28 H -0.9384 0.3397 0.1627
Cu2_2 Cu -1.3799(3) 0.2209(3) 0.1479(2)
N7_2 N -0.2540(16) 0.2640(15) 0.1349(12)
Cu5 Cu 0.0000 -0.5000 0.0000
N17 N 0.1371(14) -0.4463(14) 0.0136(12)
C39 C 0.1682(18) -0.3733(14) 0.0453(13)
H53 H 0.1280 -0.3396 0.0657
C40 C 0.2675(19) -0.3574(13) 0.0424(11)
H54 H 0.3082 -0.3107 0.0605
N18 N 0.2977(15) -0.4205(14) 0.0089(10)
C41 C 0.2171(16) -0.4755(12) -0.0089(11)
H55 H 0.2168 -0.5251 -0.0327
C42 C 0.396(2) -0.4313(19) -0.0076(16)
H56 H 0.4412 -0.3837 0.0109
H57 H 0.3864 -0.4416 -0.0505
C43 C 0.452(2) -0.492(2) 0.0078(17)
H58 H 0.4613 -0.4811 0.0508
H59 H 0.4048 -0.5393 -0.0098
Cu5_2 Cu 1.0000 -0.5000 0.0000
N17A N -0.1371(14) -0.5537(14) -0.0136(12)
N17A_2 N 0.8629(14) -0.5537(14) -0.0136(12)
C39A C 0.8318(18) -0.6267(14) -0.0453(13)
H53A H 0.8720 -0.6604 -0.0657
C40A C 0.7325(19) -0.6426(13) -0.0424(11)
H54A H 0.6918 -0.6893 -0.0605
N18A N 0.7023(15) -0.5795(14) -0.0089(10)
C41A C 0.7829(16) -0.5245(12) 0.0089(11)
H55A H 0.7832 -0.4749 0.0327
C42A C 0.604(2) -0.5687(19) 0.0076(16)
H56A H 0.5588 -0.6163 -0.0109
H57A H 0.6136 -0.5584 0.0505
C43A C 0.548(2) -0.508(2) -0.0078(17)
H58A H 0.5387 -0.5189 -0.0508
H59A H 0.5952 -0.4607 0.0098
N19 N -0.151(4) 0.112(2) -0.0436(19)
C44 C -0.122(3) 0.1121(17) 0.017(2)
H60 H -0.0552 0.1188 0.0384
C45 C -0.215(3) 0.1000(17) 0.0378(13)
H61 H -0.2191 0.0975 0.0756
N20 N -0.301(3) 0.0925(19) -0.0095(13)
C46 C -0.261(4) 0.100(2) -0.0598(12)
H62 H -0.3005 0.0973 -0.0967
C47 C -0.406(5) 0.091(4) -0.009(3)
H63 H -0.4439 0.0962 -0.0453
H64 H -0.4180 0.1312 0.0249
C48 C -0.440(4) 0.015(3) -0.003(2)
H65 H -0.3929 0.0114 0.0313
H66 H -0.4243 -0.0220 -0.0376
N19A N -0.849(4) -0.112(2) 0.0436(19)
C44A C -0.878(3) -0.1121(17) -0.017(2)
H60A H -0.9448 -0.1188 -0.0384
C45A C -0.785(3) -0.1000(17) -0.0378(13)
H61A H -0.7809 -0.0975 -0.0756
N20A N -0.699(3) -0.0925(19) 0.0095(13)
C46A C -0.739(4) -0.100(2) 0.0598(12)
H62A H -0.6995 -0.0973 0.0967
C47A C -0.594(5) -0.091(4) 0.009(3)
H63A H -0.5561 -0.0962 0.0453
H64A H -0.5820 -0.1312 -0.0249
C48A C -0.560(4) -0.015(3) 0.003(2)
H65A H -0.6071 -0.0114 -0.0313
H66A H -0.5757 0.0220 0.0376
N21 N -0.538(2) -0.2612(18) 0.2662(14)
C49 C -0.580(2) -0.2949(17) 0.3034(12)
H67 H -0.5439 -0.3162 0.3299
N22 N -0.687(2) -0.291(2) 0.2939(13)
C50 C -0.710(2) -0.255(2) 0.2509(16)
H68 H -0.7759 -0.2452 0.2361
C51 C -0.619(3) -0.237(2) 0.2337(14)
H69 H -0.6123 -0.2121 0.2055
N23 N -0.9988(17) -0.3509(17) 0.4251(13)
C52 C -0.9526(15) -0.3727(15) 0.4723(11)
H70 H -0.8820 -0.3737 0.4839
C53 C -1.0292(17) -0.3930(15) 0.4993(9)
H71 H -1.0194 -0.4100 0.5324
N24 N -1.1227(13) -0.3837(11) 0.4688(10)
C54 C -1.1039(16) -0.3577(17) 0.4229(11)
H72 H -1.1536 -0.3466 0.3953
C55 C -0.751(5) -0.301(5) 0.328(4)
H73 H -0.7261 -0.3403 0.3437
H74 H -0.7364 -0.2548 0.3622
C56 C -0.859(4) -0.318(3) 0.317(2)
H75 H -0.8757 -0.3499 0.2755
H76 H -0.8835 -0.2699 0.3165
C57 C -0.938(4) -0.353(3) 0.347(2)
H77 H -1.0084 -0.3588 0.3252
H78 H -0.9215 -0.4019 0.3496
C58 C -0.926(4) -0.300(3) 0.405(2)
H79 H -0.9522 -0.2525 0.4048
H80 H -0.8560 -0.2904 0.4278
W1 W -0.25727(8) -0.05741(6) 0.28720(5)
W2 W -0.26887(8) 0.00733(6) 0.16624(5)
W3 W 0.01661(7) -0.08330(6) 0.28682(5)
W4 W -0.44001(8) -0.14057(7) 0.16007(6)
W5 W -0.35166(8) -0.32606(7) 0.14968(6)
W6 W 0.00494(8) -0.01400(7) 0.16778(6)
W7 W -0.11198(8) -0.27968(7) 0.02213(5)
W8 W -0.36533(8) -0.25226(7) 0.02188(5)
W9 W 0.08580(8) -0.18725(7) 0.15844(6)
W10 W -0.17250(8) -0.24404(7) 0.27799(5)
W11 W -0.09682(9) -0.34776(7) 0.15234(6)
W12 W -0.18753(9) -0.10580(7) 0.03009(6)
Cu1 Cu 0.1553(2) 0.1269(2) 0.30723(18)
Cu3 Cu 0.1934(4) -0.0972(3) 0.4420(3)
Cu4 Cu 0.0436(5) -0.5127(4) 0.2105(3)
P1 P -0.1796(4) -0.1694(3) 0.1563(3)
O1 O -0.1825(15) -0.0597(11) -0.0206(9)
O2 O -0.1003(13) -0.3244(11) 0.2334(8)
O3 O -0.3175(12) -0.1733(9) -0.0039(7)
O4 O 0.2022(13) -0.2125(10) 0.1487(8)
O5 O -0.2784(13) -0.0115(11) 0.3556(8)
O6 O -0.4727(13) -0.2963(12) -0.0333(9)
O7 O -0.1228(12) 0.0203(10) 0.1821(8)
O8 O -0.2502(12) -0.3005(10) -0.0059(8)
O9 O -0.3002(13) -0.3027(11) 0.2343(9)
O10 O -0.2917(14) 0.0912(10) 0.1621(9)
O11 O -0.0430(14) -0.4302(10) 0.1421(8)
O12 O 0.0182(12) -0.2741(10) 0.1698(8)
O13 O -0.4512(14) -0.3923(11) 0.1393(9)
O14 O 0.1016(12) -0.0876(9) 0.1518(8)
O15 O 0.0731(13) 0.0630(10) 0.1653(9)
O16 O 0.0940(13) -0.0435(12) 0.3554(8)
O17 O -0.0686(11) -0.1306(9) 0.1804(7)
O18 O -0.2585(13) -0.0410(12) 0.0892(9)
O19 O -0.5688(12) -0.1450(11) 0.1541(9)
O20 O -0.0491(12) -0.1721(11) 0.2914(9)
O21 O -0.2601(13) 0.0205(10) 0.2503(8)
O22 O -0.2430(12) -0.1555(9) 0.2911(8)
O23 O -0.4140(12) -0.2345(10) 0.1707(8)
O24 O -0.3882(11) -0.0957(9) 0.2466(7)
O25 O -0.0618(13) -0.3370(10) -0.0331(8)
O26 O -0.1100(12) -0.0442(10) 0.2984(8)
O27 O 0.0408(12) -0.0041(10) 0.2491(8)
O28 O 0.1083(9) -0.1440(7) 0.2461(6)
O29 O -0.3653(12) -0.3160(9) 0.0724(8)
O30 O -0.0668(9) -0.0698(8) 0.0823(6)
O31 O -0.2566(11) -0.1167(8) 0.1806(7)
O32 O -0.1997(10) -0.1911(8) 0.0894(7)
O33 O 0.0224(11) -0.2288(9) 0.0854(7)
O34 O -0.4196(9) -0.1881(7) 0.0853(6)
O35 O -0.1194(13) -0.1934(11) -0.0028(7)
O36 O -0.4060(12) -0.0422(11) 0.1537(8)
O37 O -0.1621(13) -0.2590(12) 0.3447(9)
O38 O -0.1205(12) -0.3376(9) 0.0734(7)
O39 O -0.2461(13) -0.3840(10) 0.1375(8)
O40 O -0.1936(11) -0.2397(8) 0.1759(7)
N1 N 0.2817(11) 0.0919(10) 0.2936(9)
C1 C 0.2963(11) 0.0207(10) 0.2612(9)
H1 H 0.2447 -0.0198 0.2418
C2 C 0.4002(12) 0.0197(10) 0.2626(9)
H2 H 0.4316 -0.0217 0.2442
N2 N 0.4497(12) 0.0902(10) 0.2958(9)
C3 C 0.3765(12) 0.1348(10) 0.3149(9)
H3 H 0.3890 0.1855 0.3383
N3 N 1.0421(11) 0.1804(9) 0.3232(8)
C4 C 1.0451(12) 0.2568(10) 0.3439(9)
H4 H 1.1036 0.2921 0.3529
C5 C 0.9477(12) 0.2726(9) 0.3491(9)
H5 H 0.9278 0.3207 0.3624
N4 N 0.8846(12) 0.2060(9) 0.3316(9)
C6 C 0.9429(12) 0.1490(9) 0.3156(9)
H6 H 0.9191 0.0975 0.3018
C7 C 0.562(2) 0.1092(17) 0.3092(15)
H7 H 0.5914 0.0828 0.3362
H8 H 0.5877 0.0905 0.2725
C8 C 0.599(3) 0.188(2) 0.335(2)
H9 H 0.6222 0.2007 0.3782
H10 H 0.5439 0.2184 0.3281
C9 C 0.689(4) 0.203(6) 0.305(3)
H11 H 0.6850 0.1659 0.2666
H12 H 0.6944 0.2539 0.3014
C10 C 0.771(2) 0.195(2) 0.3503(18)
H13 H 0.7597 0.1457 0.3550
H14 H 0.7713 0.2331 0.3883
N9 N 0.075(2) -0.1085(17) 0.4749(12)
C21 C -0.0217(19) -0.1008(18) 0.4514(11)
H29 H -0.0420 -0.0902 0.4158
N10 N -0.0838(19) -0.111(2) 0.4881(15)
C22 C -0.026(3) -0.125(2) 0.5344(15)
H30 H -0.0491 -0.1343 0.5664
C23 C 0.073(3) -0.124(2) 0.5262(14)
H31 H 0.1290 -0.1314 0.5516
N11 N -0.681(2) -0.096(2) 0.4169(17)
C24 C -0.595(3) -0.114(3) 0.4473(17)
H32 H -0.5922 -0.1313 0.4800
N12 N -0.514(2) -0.101(3) 0.421(2)
C25 C -0.550(4) -0.076(2) 0.3752(19)
H33 H -0.5106 -0.0631 0.3499
C26 C -0.653(3) -0.072(2) 0.3724(18)
H34 H -0.6966 -0.0568 0.3448
C27 C -0.200(4) -0.099(3) 0.482(3)
H35 H -0.2167 -0.0744 0.5207
H36 H -0.2180 -0.0686 0.4560
C28 C -0.253(4) -0.174(2) 0.457(2)
H37 H -0.2340 -0.2062 0.4810
H38 H -0.2438 -0.1979 0.4161
N13 N 0.3415(18) -0.481(2) 0.1989(13)
C29 C 0.297(3) -0.444(2) 0.1600(16)
H39 H 0.3318 -0.4190 0.1392
C30 C 0.190(3) -0.451(3) 0.1578(19)
H40 H 0.1417 -0.4317 0.1353
N14 N 0.1689(18) -0.493(2) 0.1953(19)
C31 C 0.262(2) -0.511(2) 0.2207(15)
H41 H 0.2707 -0.5388 0.2475
N15 N 0.7595(17) -0.5287(19) 0.2387(14)
C32 C 0.803(3) -0.557(2) 0.2828(15)
H42 H 0.7685 -0.5726 0.3091
C33 C 0.907(3) -0.560(2) 0.2810(17)
H43 H 0.9544 -0.5769 0.3059
N16 N 0.9274(17) -0.5325(18) 0.2358(16)
C34 C 0.836(2) -0.5133(19) 0.2097(13)
H44 H 0.8283 -0.4934 0.1781
C35 C 0.448(3) -0.490(3) 0.208(3)
H45 H 0.4689 -0.4932 0.2482
H46 H 0.4874 -0.4459 0.2057
C36 C 0.470(3) -0.554(2) 0.1674(16)
H47 H 0.4680 -0.5452 0.1294
H48 H 0.4169 -0.5962 0.1614
C37 C 0.579(3) -0.577(3) 0.189(2)
H49 H 0.5722 -0.6043 0.2166
H50 H 0.5997 -0.6107 0.1543
C38 C 0.660(5) -0.513(4) 0.216(3)
H51 H 0.6668 -0.4868 0.1876
H52 H 0.6364 -0.4782 0.2494
C59 C -0.407(5) -0.139(4) 0.404(3)
H81 H -0.4233 -0.1860 0.3716
H82 H -0.3612 -0.1036 0.3935
C60 C -0.362(5) -0.150(4) 0.460(3)
H83 H -0.4055 -0.1887 0.4669
H84 H -0.3567 -0.1033 0.4922
Cu1_2 Cu 1.1553(2) 0.1269(2) 0.30723(18)
Cu3_2 Cu -0.8066(4) -0.0972(3) 0.4420(3)
Cu4_2 Cu 1.0436(5) -0.5127(4) 0.2105(3)
N3_2 N 0.0421(11) 0.1804(9) 0.3232(8)
N11_2 N 0.319(2) -0.096(2) 0.4169(17)
N16_2 N -0.0726(17) -0.5325(18) 0.2358(16)
loop_
_geom_bond_atom_site_label_1
_geom_bond_atom_site_label_2
_geom_bond_site_symmetry_1
_geom_bond_site_symmetry_2
W1 O5 1_555 1_555
W2 O7 1_555 1_555
W3 O16 1_555 1_555
W4 O19 1_555 1_555
W5 O9 1_555 1_555
W6 O7 1_555 1_555
W7 O8 1_555 1_555
W8 O3 1_555 1_555
W9 O4 1_555 1_555
W10 O2 1_555 1_555
W11 O2 1_555 1_555
W12 O1 1_555 1_555
W13 O44 1_555 1_555
W14 O45 1_555 1_555
W15 O43 1_555 1_555
W16 O41 1_555 1_555
W17 O44 1_555 1_555
W18 O41 1_555 1_555
Cu1 O27 1_555 1_555
Cu2 N5 1_555 1_555
Cu3 O16 1_555 1_555
Cu4 O11 1_555 1_555
Cu5 N17 1_555 1_555
P1 O17 1_555 1_555
P2 O58 1_555 1_555
O3 W12 1_555 1_555
O6 W8 1_555 1_555
O8 W8 1_555 1_555
O9 W10 1_555 1_555
O10 W2 1_555 1_555
O11 W11 1_555 1_555
O12 W9 1_555 1_555
O13 W5 1_555 1_555
O14 W6 1_555 1_555
O15 W6 1_555 1_555
O17 W3 1_555 1_555
O18 W2 1_555 1_555
O20 W3 1_555 1_555
O21 W1 1_555 1_555
O22 W1 1_555 1_555
O23 W4 1_555 1_555
O24 W1 1_555 1_555
O25 W7 1_555 1_555
O26 W1 1_555 1_555
O27 W3 1_555 1_555
O28 W3 1_555 1_555
O29 W5 1_555 1_555
O30 W6 1_555 1_555
O31 W1 1_555 1_555
O32 W7 1_555 1_555
O33 W7 1_555 1_555
O34 W4 1_555 1_555
O35 W7 1_555 1_555
O36 W2 1_555 1_555
O37 W10 1_555 1_555
O38 W7 1_555 1_555
O39 W5 1_555 1_555
O40 W5 1_555 1_555
O42 W18 1_555 1_555
O43 W16 1_555 1_555
O45 W17 1_555 1_555
O46 W13 1_555 1_555
O47 W16 1_555 1_555
O48 W14 1_555 1_555
O49 W14 1_555 1_555
O50 W13 1_555 1_555
O51 W15 1_555 1_555
O52 W15 1_555 1_555
O53 W17 1_555 1_555
O54 W13 1_555 1_555
O55 W14 1_555 1_555
O56 W13 1_555 1_555
O57 W17 1_555 1_555
O58 W15 1_555 1_555
O59 W13 1_555 1_555
O60 W13 1_555 1_555
O61 W14 1_555 1_555
O62 W16 1_555 1_555
N1 Cu1 1_555 1_555
C1 N1 1_555 1_555
H1 C1 1_555 1_555
C2 C1 1_555 1_555
H2 C2 1_555 1_555
N2 C2 1_555 1_555
C3 N1 1_555 1_555
H3 C3 1_555 1_555
N3 C4 1_555 1_555
C4 H4 1_555 1_555
C5 C4 1_555 1_555
H5 C5 1_555 1_555
N4 C5 1_555 1_555
C6 N3 1_555 1_555
H6 C6 1_555 1_555
C7 N2 1_555 1_555
H7 C7 1_555 1_555
H8 C7 1_555 1_555
C8 C7 1_555 1_555
H9 C8 1_555 1_555
H10 C8 1_555 1_555
C9 C8 1_555 1_555
H11 C9 1_555 1_555
H12 C9 1_555 1_555
C10 N4 1_555 1_555
H13 C10 1_555 1_555
H14 C10 1_555 1_555
N5 C11 1_555 1_555
C11 H15 1_555 1_555
N6 C11 1_555 1_555
C12 N6 1_555 1_555
H16 C12 1_555 1_555
C13 N5 1_555 1_555
H17 C13 1_555 1_555
N7 C14 1_555 1_555
C14 H18 1_555 1_555
C15 C14 1_555 1_555
H19 C15 1_555 1_555
N8 C15 1_555 1_555
C16 N7 1_555 1_555
H20 C16 1_555 1_555
C17 N6 1_555 1_555
H21 C17 1_555 1_555
H22 C17 1_555 1_555
C18 C17 1_555 1_555
H23 C18 1_555 1_555
H24 C18 1_555 1_555
C19 C18 1_555 1_555
H25 C19 1_555 1_555
H26 C19 1_555 1_555
C20 N8 1_555 1_555
H27 C20 1_555 1_555
H28 C20 1_555 1_555
N9 Cu3 1_555 1_555
C21 N9 1_555 1_555
H29 C21 1_555 1_555
N10 C21 1_555 1_555
C22 N10 1_555 1_555
H30 C22 1_555 1_555
C23 N9 1_555 1_555
H31 C23 1_555 1_555
N11 C24 1_555 1_555
C24 H32 1_555 1_555
N12 C24 1_555 1_555
C25 N12 1_555 1_555
H33 C25 1_555 1_555
C26 N11 1_555 1_555
H34 C26 1_555 1_555
C27 N10 1_555 1_555
H35 C27 1_555 1_555
H36 C27 1_555 1_555
C28 C27 1_555 1_555
H37 C28 1_555 1_555
H38 C28 1_555 1_555
N13 C29 1_555 1_555
C29 H39 1_555 1_555
C30 C29 1_555 1_555
H40 C30 1_555 1_555
N14 Cu4 1_555 1_555
C31 N13 1_555 1_555
H41 C31 1_555 1_555
N15 C32 1_555 1_555
C32 H42 1_555 1_555
C33 C32 1_555 1_555
H43 C33 1_555 1_555
N16 C33 1_555 1_555
C34 N15 1_555 1_555
H44 C34 1_555 1_555
C35 N13 1_555 1_555
H45 C35 1_555 1_555
H46 C35 1_555 1_555
C36 C35 1_555 1_555
H47 C36 1_555 1_555
H48 C36 1_555 1_555
C37 C36 1_555 1_555
H49 C37 1_555 1_555
H50 C37 1_555 1_555
C38 N15 1_555 1_555
H51 C38 1_555 1_555
H52 C38 1_555 1_555
N17 C39 1_555 1_555
C39 H53 1_555 1_555
C40 C39 1_555 1_555
H54 C40 1_555 1_555
N18 C40 1_555 1_555
C41 N17 1_555 1_555
H55 C41 1_555 1_555
C42 N18 1_555 1_555
H56 C42 1_555 1_555
H57 C42 1_555 1_555
C43 C42 1_555 1_555
H58 C43 1_555 1_555
H59 C43 1_555 1_555
N19 C44 1_555 1_555
C44 H60 1_555 1_555
C45 C44 1_555 1_555
H61 C45 1_555 1_555
N20 C45 1_555 1_555
C46 N19 1_555 1_555
H62 C46 1_555 1_555
C47 N20 1_555 1_555
H63 C47 1_555 1_555
H64 C47 1_555 1_555
C48 C47 1_555 1_555
H65 C48 1_555 1_555
H66 C48 1_555 1_555
N21 C49 1_555 1_555
C49 H67 1_555 1_555
N22 C49 1_555 1_555
C50 N22 1_555 1_555
H68 C50 1_555 1_555
C51 N21 1_555 1_555
H69 C51 1_555 1_555
N23 C52 1_555 1_555
C52 H70 1_555 1_555
C53 C52 1_555 1_555
H71 C53 1_555 1_555
N24 C53 1_555 1_555
C54 N23 1_555 1_555
H72 C54 1_555 1_555
C55 N22 1_555 1_555
H73 C55 1_555 1_555
H74 C55 1_555 1_555
C56 C55 1_555 1_555
H75 C56 1_555 1_555
H76 C56 1_555 1_555
C57 C56 1_555 1_555
H77 C57 1_555 1_555
H78 C57 1_555 1_555
C58 N23 1_555 1_555
H79 C58 1_555 1_555
H80 C58 1_555 1_555
C59 N12 1_555 1_555
H81 C59 1_555 1_555
H82 C59 1_555 1_555
C60 C28 1_555 1_555
H83 C60 1_555 1_555
H84 C60 1_555 1_555
W13A O44A 1_555 1_555
W14A O46 1_555 1_555
W15A O50 1_555 1_555
W16A O41A 1_555 1_555
W17A O44A 1_555 1_555
W18A O55 1_555 1_555
Cu1_2 N3 1_555 1_555
Cu2_2 N7 1_555 1_555
Cu3_2 N11 1_555 1_555
Cu4_2 N16 1_555 1_555
Cu5_2 N17A_2 1_555 1_555
O41A W18A 1_555 1_555
O42A W18A 1_555 1_555
O43A W15A 1_555 1_555
O45A W14A 1_555 1_555
O46A W14 1_555 1_555
O47A W16A 1_555 1_555
O48A W14A 1_555 1_555
O49A W14A 1_555 1_555
O50A W15 1_555 1_555
O51A W15A 1_555 1_555
O52A W15A 1_555 1_555
O53A W15 1_555 1_555
O54A W13A 1_555 1_555
O55A W18 1_555 1_555
O56A W13A 1_555 1_555
O57A W17A 1_555 1_555
O58A P2 1_555 1_555
O59A W14 1_555 1_555
O60A W15 1_555 1_555
O61A P2 1_555 1_555
O62A W16A 1_555 1_555
N3_2 Cu1 1_555 1_555
N7_2 Cu2 1_555 1_555
N11_2 Cu3 1_555 1_555
N16_2 Cu4 1_555 1_555
N17A Cu5 1_555 1_555
N17A_2 C39A 1_555 1_555
C39A H53A 1_555 1_555
C40A C39A 1_555 1_555
H54A C40A 1_555 1_555
N18A C40A 1_555 1_555
C41A N17A_2 1_555 1_555
H55A C41A 1_555 1_555
C42A N18A 1_555 1_555
H56A C42A 1_555 1_555
H57A C42A 1_555 1_555
C43A C43 1_555 1_555
H58A C43A 1_555 1_555
H59A C43A 1_555 1_555
N19A C44A 1_555 1_555
C44A H60A 1_555 1_555
C45A C44A 1_555 1_555
H61A C45A 1_555 1_555
N20A C45A 1_555 1_555
C46A N19A 1_555 1_555
H62A C46A 1_555 1_555
C47A N20A 1_555 1_555
H63A C47A 1_555 1_555
H64A C47A 1_555 1_555
C48A C48 1_555 1_555
H65A C48A 1_555 1_555
H66A C48A 1_555 1_555
W2 O21 1_555 1_555
W2 O31 1_555 1_555
W3 O26 1_555 1_555
W4 O24 1_555 1_555
W4 O31 1_555 1_555
W4 O36 1_555 1_555
W5 O23 1_555 1_555
W6 O17 1_555 1_555
W6 O27 1_555 1_555
W8 O29 1_555 1_555
W8 O32 1_555 1_555
W8 O34 1_555 1_555
W9 O14 1_555 1_555
W9 O17 1_555 1_555
W9 O28 1_555 1_555
W9 O33 1_555 1_555
W10 O20 1_555 1_555
W10 O22 1_555 1_555
W10 O40 1_555 1_555
W11 O12 1_555 1_555
W11 O38 1_555 1_555
W11 O39 1_555 1_555
W11 O40 1_555 1_555
W12 O18 1_555 1_555
W12 O30 1_555 1_555
W12 O32 1_555 1_555
W12 O35 1_555 1_555
W16 O49 1_555 1_555
W16 O58 1_555 1_555
W16 O61 1_555 1_555
W17 O60 1_555 1_555
W17 O61 1_555 1_555
W17 O62 1_555 1_555
W18 O52 1_555 1_555
W18 O56 1_555 1_555
W18 O58 1_555 1_555
W18 O59 1_555 1_555
P1 O31 1_555 1_555
P1 O32 1_555 1_555
P1 O40 1_555 1_555
P2 O59 1_555 1_555
P2 O60 1_555 1_555
P2 O61 1_555 1_555
P2 O59A 1_555 1_555
P2 O60A 1_555 1_555
O53 W15A 1_555 1_555
O58 O59 1_555 1_555
O58 O61 1_555 1_555
O58 O60A 1_555 1_555
O59 O60 1_555 1_555
O59 W14A 1_555 1_555
O59 O61A 1_555 1_555
O60 O61 1_555 1_555
O60 W15A 1_555 1_555
O60 O58A 1_555 1_555
O61 O59A 1_555 1_555
N2 C3 1_555 1_555
N4 C6 1_555 1_555
C9 C10 1_555 1_555
C12 C13 1_555 1_555
N8 C16 1_555 1_555
C19 C20 1_555 1_555
C22 C23 1_555 1_555
C25 C26 1_555 1_555
C30 N14 1_555 1_555
N14 C31 1_555 1_555
N16 C34 1_555 1_555
C37 C38 1_555 1_555
N18 C41 1_555 1_555
N20 C46 1_555 1_555
C50 C51 1_555 1_555
N24 C54 1_555 1_555
C57 C58 1_555 1_555
C59 C60 1_555 1_555
W13A O46A 1_555 1_555
W13A O50A 1_555 1_555
W13A O59A 1_555 1_555
W13A O60A 1_555 1_555
W14A O55A 1_555 1_555
W14A O61A 1_555 1_555
W15A O58A 1_555 1_555
W16A O43A 1_555 1_555
W16A O49A 1_555 1_555
W16A O58A 1_555 1_555
W16A O61A 1_555 1_555
W17A O45A 1_555 1_555
W17A O53A 1_555 1_555
W17A O60A 1_555 1_555
W17A O61A 1_555 1_555
W17A O62A 1_555 1_555
W18A O52A 1_555 1_555
W18A O56A 1_555 1_555
W18A O58A 1_555 1_555
W18A O59A 1_555 1_555
O58A O59A 1_555 1_555
O58A O61A 1_555 1_555
O59A O60A 1_555 1_555
O60A O61A 1_555 1_555
N18A C41A 1_555 1_555
C42A C43A 1_555 1_555
N20A C46A 1_555 1_555
C47A C48A 1_555 1_555

#END
