
#######################################################################
#
#                 Cambridge Crystallographic Data Centre
#                                CCDC 
#
#######################################################################
#
# If this CIF has been generated from an entry in the Cambridge 
# Structural Database, then it will include bibliographic, chemical, 
# crystal, experimental, refinement or atomic coordinate data resulting 
# from the CCDC's data processing and validation procedures.
#
#######################################################################

data_DIJZOM
_symmetry_cell_setting           triclinic
_symmetry_space_group_name_H-M   'P -1'
_symmetry_Int_Tables_number      2
_space_group_name_Hall           '-P 1'
loop_
_symmetry_equiv_pos_site_id
_symmetry_equiv_pos_as_xyz
1 x,y,z
2 -x,-y,-z
_cell_length_a                   9.6585(7)
_cell_length_b                   10.8284(7)
_cell_length_c                   12.2062(8)
_cell_angle_alpha                103.776(1)
_cell_angle_beta                 99.415(1)
_cell_angle_gamma                108.169(1)
_cell_volume                     1138.26
loop_
_atom_site_label
_atom_site_type_symbol
_atom_site_fract_x
_atom_site_fract_y
_atom_site_fract_z
Zn1 Zn 0.06729(3) 0.44836(2) 0.40758(2)
C1 C 0.0114(2) 0.9198(2) 0.2247(2)
C2 C 0.0070(2) 0.8045(2) 0.25906(19)
C3 C -0.0664(2) 0.7772(2) 0.3451(2)
C4 C -0.1418(3) 0.8608(2) 0.3895(2)
H1 H -0.1930 0.8418 0.4453
C5 C -0.1413(3) 0.9712(3) 0.3516(2)
H2 H -0.1946 1.0242 0.3803
C6 C -0.0629(3) 1.0030(3) 0.2722(2)
H3 H -0.0590 1.0800 0.2498
C7 C 0.3001(3) 1.0401(2) 0.1968(2)
C8 C 0.3481(2) 1.0829(2) 0.3179(2)
H4 H 0.2784 1.0635 0.3616
C9 C 0.4992(2) 1.1545(2) 0.37348(19)
C10 C 0.6039(2) 1.1888(2) 0.3085(2)
C11 C 0.5565(3) 1.1383(2) 0.1881(2)
H5 H 0.6266 1.1550 0.1443
C12 C 0.4055(3) 1.0629(2) 0.1319(2)
H6 H 0.3750 1.0278 0.0509
C13 C 0.0817(2) 0.7150(2) 0.19767(19)
C14 C -0.0586(2) 0.6652(2) 0.3963(2)
C15 C 0.5467(2) 1.1858(2) 0.5030(2)
C16 C 0.7598(2) 1.2952(2) 0.3671(2)
C17 C 0.3430(3) 0.4373(3) 0.3361(2)
H7 H 0.3851 0.4651 0.4162
C18 C 0.4339(3) 0.4211(3) 0.2618(2)
H8 H 0.5356 0.4396 0.2922
C19 C 0.3744(2) 0.3777(2) 0.1426(2)
C20 C 0.2221(3) 0.3535(3) 0.1035(2)
H9 H 0.1765 0.3235 0.0238
C21 C 0.1391(3) 0.3739(3) 0.1824(2)
H10 H 0.0378 0.3586 0.1543
C22 C 0.4661(2) 0.3566(2) 0.0589(2)
C23 C 0.6241(3) 0.4128(3) 0.0933(2)
H11 H 0.6742 0.4660 0.1701
H12 H 0.2528 0.6916 0.2073
C24 C 0.7045(3) 0.3889(3) 0.0126(2)
H13 H 0.8093 0.4252 0.0361
C25 C 0.4866(3) 0.2618(3) -0.1335(2)
H14 H 0.4399 0.2109 -0.2113
C26 C 0.3995(3) 0.2804(3) -0.0573(2)
H15 H 0.2950 0.2414 -0.0839
N1 N 0.1970(2) 0.41458(19) 0.29757(17)
N2 N 0.6357(2) 0.3149(2) -0.09834(18)
O1 O 0.01182(19) 0.62742(18) 0.10468(15)
O2 O 0.22219(17) 0.74772(17) 0.24552(13)
O3 O -0.00782(19) 0.58030(16) 0.34420(15)
O4 O -0.0991(2) 0.66651(18) 0.48879(15)
O5 O 0.4846(2) 1.2351(2) 0.56959(16)
O6 O 0.65866(18) 1.14579(17) 0.53367(14)
H16 H 0.6814 1.1609 0.6042
O7 O 0.77249(18) 1.38256(16) 0.46000(15)
O8 O 0.86370(18) 1.29358(17) 0.31771(16)
S1 S 0.10764(7) 0.96016(7) 0.11760(6)
Zn1A Zn -0.06729(3) 0.55164(2) 0.59242(2)
Zn1A_2 Zn 0.93271(3) 1.55164(2) 0.59242(2)
Zn1_2 Zn 1.06729(3) 1.44836(2) 0.40758(2)
O4A O 0.0991(2) 0.33349(18) 0.51121(15)
O7A O 0.22751(18) 0.61744(16) 0.54000(15)
O8_2 O -0.13630(18) 0.29358(17) 0.31771(16)
loop_
_geom_bond_atom_site_label_1
_geom_bond_atom_site_label_2
_geom_bond_site_symmetry_1
_geom_bond_site_symmetry_2
Zn1 N1 1_555 1_555
C1 C2 1_555 1_555
C2 C3 1_555 1_555
C3 C4 1_555 1_555
C4 H1 1_555 1_555
C5 C4 1_555 1_555
H2 C5 1_555 1_555
C6 C1 1_555 1_555
H3 C6 1_555 1_555
C7 C8 1_555 1_555
C8 H4 1_555 1_555
C9 C8 1_555 1_555
C10 C9 1_555 1_555
C11 C10 1_555 1_555
H5 C11 1_555 1_555
C12 C7 1_555 1_555
H6 C12 1_555 1_555
C13 C2 1_555 1_555
C14 C3 1_555 1_555
C15 C9 1_555 1_555
C16 C10 1_555 1_555
C17 H7 1_555 1_555
C18 C17 1_555 1_555
H8 C18 1_555 1_555
C19 C18 1_555 1_555
C20 C19 1_555 1_555
H9 C20 1_555 1_555
C21 C20 1_555 1_555
H10 C21 1_555 1_555
C22 C19 1_555 1_555
C23 C22 1_555 1_555
H11 C23 1_555 1_555
H12 O2 1_555 1_555
C24 C23 1_555 1_555
H13 C24 1_555 1_555
C25 H14 1_555 1_555
C26 C22 1_555 1_555
H15 C26 1_555 1_555
N1 C17 1_555 1_555
N2 C24 1_555 1_555
O1 C13 1_555 1_555
O2 C13 1_555 1_555
O3 Zn1 1_555 1_555
O4 C14 1_555 1_555
O5 C15 1_555 1_555
O6 C15 1_555 1_555
H16 O6 1_555 1_555
O7 C16 1_555 1_555
O8 C16 1_555 1_555
S1 C1 1_555 1_555
Zn1A Zn1 1_555 1_555
Zn1A_2 O7 1_555 1_555
Zn1_2 O8 1_555 1_555
O4A Zn1 1_555 1_555
O7A Zn1 1_555 1_555
O8_2 Zn1 1_555 1_555
C5 C6 1_555 1_555
C7 S1 1_555 1_555
C11 C12 1_555 1_555
C14 O3 1_555 1_555
C21 N1 1_555 1_555
C25 C26 1_555 1_555
C25 N2 1_555 1_555
O4 Zn1A 1_555 1_555
Zn1A_2 Zn1_2 1_555 1_555

#END
