
#######################################################################
#
#                 Cambridge Crystallographic Data Centre
#                                CCDC 
#
#######################################################################
#
# If this CIF has been generated from an entry in the Cambridge 
# Structural Database, then it will include bibliographic, chemical, 
# crystal, experimental, refinement or atomic coordinate data resulting 
# from the CCDC's data processing and validation procedures.
#
#######################################################################

data_DIKBAB01
_symmetry_cell_setting           cubic
_symmetry_space_group_name_H-M   'P a -3'
_symmetry_Int_Tables_number      205
_space_group_name_Hall           '-P 2ac 2ab 3'
loop_
_symmetry_equiv_pos_site_id
_symmetry_equiv_pos_as_xyz
1 x,y,z
2 1/2-x,-y,1/2+z
3 -x,1/2+y,1/2-z
4 1/2+x,1/2-y,-z
5 z,x,y
6 1/2+z,1/2-x,-y
7 1/2-z,-x,1/2+y
8 -z,1/2+x,1/2-y
9 y,z,x
10 -y,1/2+z,1/2-x
11 1/2+y,1/2-z,-x
12 1/2-y,-z,1/2+x
13 -x,-y,-z
14 1/2+x,y,1/2-z
15 x,1/2-y,1/2+z
16 1/2-x,1/2+y,z
17 -z,-x,-y
18 1/2-z,1/2+x,y
19 1/2+z,x,1/2-y
20 z,1/2-x,1/2+y
21 -y,-z,-x
22 y,1/2-z,1/2+x
23 1/2-y,1/2+z,x
24 1/2+y,z,1/2-x
_cell_length_a                   15.03350(10)
_cell_length_b                   15.03350(10)
_cell_length_c                   15.03350(10)
_cell_angle_alpha                90
_cell_angle_beta                 90
_cell_angle_gamma                90
_cell_volume                     3397.66
loop_
_atom_site_label
_atom_site_type_symbol
_atom_site_fract_x
_atom_site_fract_y
_atom_site_fract_z
N5 N 0.5649(9) -0.0649(9) 0.0649(9)
O2 O 0.5269(9) -0.1335(6) 0.0280(8)
O2E O 0.5280(8) -0.0269(9) 0.1335(6)
O2K O 0.6335(6) -0.0280(8) 0.0269(9)
O3 O 0.8649(7) 0.0980(5) 0.3669(6)
H5 H 0.8181 0.1295 0.3634
H6 H 0.8602 0.0465 0.3898
Zn1 Zn 0.63682(3) 0.13682(3) 0.36318(3)
Zn2 Zn 0.5000 0.0000 0.5000
Zn3 Zn 0.77323(3) 0.27323(3) 0.22677(3)
C1 C 0.6108(3) -0.1330(3) 0.3698(3)
C2 C 0.6790(3) -0.0454(3) 0.2845(3)
H1 H 0.7150 -0.0234 0.2393
N1 N 0.6369(2) 0.0055(2) 0.3410(3)
N2 N 0.5911(2) -0.0515(2) 0.3977(2)
N3 N 0.6652(3) -0.1322(3) 0.2979(2)
N4 N 0.5791(3) -0.2084(3) 0.4068(3)
H2 H 0.5437 -0.2055 0.4516
H3 H 0.5944 -0.2593 0.3856
O1 O 0.7349(8) 0.1787(12) 0.3016(17)
H4 H 0.7778 0.1427 0.3090
O1G O 0.6984(17) 0.2349(8) 0.3213(12)
H4G H 0.6910 0.2778 0.3573
O1J O 0.6787(12) 0.1984(17) 0.2651(8)
H4J H 0.6427 0.1910 0.2222
C1G C 0.6302(3) 0.1108(3) 0.6330(3)
C2G C 0.7155(3) 0.1790(3) 0.5454(3)
H1G H 0.7607 0.2150 0.5234
N1G N 0.6590(3) 0.1369(2) 0.4945(2)
N2G N 0.6023(2) 0.0911(2) 0.5515(2)
N3G N 0.7021(2) 0.1652(3) 0.6322(3)
N4G N 0.5932(3) 0.0791(3) 0.7084(3)
H2G H 0.5484 0.0437 0.7055
H3G H 0.6144 0.0944 0.7593
C1J C 0.3670(3) 0.1302(3) 0.3892(3)
C2J C 0.4546(3) 0.2155(3) 0.3210(3)
H1J H 0.4766 0.2607 0.2850
N1J N 0.5055(2) 0.1590(3) 0.3631(2)
N2J N 0.4485(2) 0.1023(2) 0.4089(2)
N3J N 0.3678(3) 0.2021(2) 0.3348(3)
N4J N 0.2916(3) 0.0932(3) 0.4209(3)
H2J H 0.2945 0.0484 0.4563
H3J H 0.2407 0.1144 0.4056
Zn1L Zn 0.36318(3) -0.13682(3) 0.63682(3)
Zn3L Zn 0.22677(3) -0.27323(3) 0.77323(3)
C1L C 0.3892(3) 0.1330(3) 0.6302(3)
C2L C 0.3210(3) 0.0454(3) 0.7155(3)
H1L H 0.2850 0.0234 0.7607
N1L N 0.3631(2) -0.0055(2) 0.6590(3)
N2L N 0.4089(2) 0.0515(2) 0.6023(2)
N3L N 0.3348(3) 0.1322(3) 0.7021(2)
N4L N 0.4209(3) 0.2084(3) 0.5932(3)
H2L H 0.4563 0.2055 0.5484
H3L H 0.4056 0.2593 0.6144
O1L O 0.2651(8) -0.1787(12) 0.6984(17)
H4L H 0.2222 -0.1427 0.6910
O1S O 0.3016(17) -0.2349(8) 0.6787(12)
H4S H 0.3090 -0.2778 0.6427
O1V O 0.3213(12) -0.1984(17) 0.7349(8)
H4V H 0.3573 -0.1910 0.7778
C1S C 0.3698(3) -0.1108(3) 0.3670(3)
C2S C 0.2845(3) -0.1790(3) 0.4546(3)
H1S H 0.2393 -0.2150 0.4766
N1S N 0.3410(3) -0.1369(2) 0.5055(2)
N2S N 0.3977(2) -0.0911(2) 0.4485(2)
N3S N 0.2979(2) -0.1652(3) 0.3678(3)
N4S N 0.4068(3) -0.0791(3) 0.2916(3)
H2S H 0.4516 -0.0437 0.2945
H3S H 0.3856 -0.0944 0.2407
C1V C 0.6330(3) -0.1302(3) 0.6108(3)
C2V C 0.5454(3) -0.2155(3) 0.6790(3)
H1V H 0.5234 -0.2607 0.7150
N1V N 0.4945(2) -0.1590(3) 0.6369(2)
N2V N 0.5515(2) -0.1023(2) 0.5911(2)
N3V N 0.6322(3) -0.2021(2) 0.6652(3)
N4V N 0.7084(3) -0.0932(3) 0.5791(3)
H2V H 0.7055 -0.0484 0.5437
H3V H 0.7593 -0.1144 0.5944
Zn3A Zn 0.72677(3) -0.27323(3) 0.72677(3)
Zn3B Zn 0.22677(3) -0.22677(3) 0.27323(3)
Zn3C Zn 0.27323(3) 0.22677(3) 0.77323(3)
Zn3M Zn 0.27323(3) 0.27323(3) 0.27323(3)
Zn3N Zn 0.77323(3) 0.22677(3) 0.72677(3)
Zn3O Zn 0.72677(3) -0.22677(3) 0.22677(3)
N3C N 0.1652(3) -0.3678(3) 0.7021(2)
N3D N 0.2979(2) -0.3348(3) 0.8678(3)
N3I N 0.1322(3) -0.2021(2) 0.8348(3)
N3O N 0.8348(3) 0.3678(3) 0.2979(2)
N3P N 0.7021(2) 0.3348(3) 0.1322(3)
N3U N 0.8678(3) 0.2021(2) 0.1652(3)
loop_
_geom_bond_atom_site_label_1
_geom_bond_atom_site_label_2
_geom_bond_site_symmetry_1
_geom_bond_site_symmetry_2
Zn1 N1 1_555 1_555
Zn2 N2 1_555 1_555
Zn3 O1 1_555 1_555
C1 N2 1_555 1_555
C2 H1 1_555 1_555
N1 C2 1_555 1_555
N2 N1 1_555 1_555
N3 C1 1_555 1_555
N4 C1 1_555 1_555
H2 N4 1_555 1_555
H3 N4 1_555 1_555
O1 Zn1 1_555 1_555
H4 O1 1_555 1_555
N5 O2 1_555 1_555
O3 H5 1_555 1_555
H6 O3 1_555 1_555
O1G Zn1 1_555 1_555
H4G O1G 1_555 1_555
O1J Zn1 1_555 1_555
H4J O1J 1_555 1_555
C1G N2G 1_555 1_555
C2G H1G 1_555 1_555
N1G Zn1 1_555 1_555
N2G Zn2 1_555 1_555
N3G C1G 1_555 1_555
N4G C1G 1_555 1_555
H2G N4G 1_555 1_555
H3G N4G 1_555 1_555
C1J N2J 1_555 1_555
C2J H1J 1_555 1_555
N1J Zn1 1_555 1_555
N2J Zn2 1_555 1_555
N3J C1J 1_555 1_555
N4J C1J 1_555 1_555
H2J N4J 1_555 1_555
H3J N4J 1_555 1_555
Zn1L N1L 1_555 1_555
Zn3L O1L 1_555 1_555
C1L N2L 1_555 1_555
C2L H1L 1_555 1_555
N1L C2L 1_555 1_555
N2L Zn2 1_555 1_555
N3L C1L 1_555 1_555
N4L C1L 1_555 1_555
H2L N4L 1_555 1_555
H3L N4L 1_555 1_555
O1L Zn1L 1_555 1_555
H4L O1L 1_555 1_555
O1S Zn1L 1_555 1_555
H4S O1S 1_555 1_555
O1V Zn1L 1_555 1_555
H4V O1V 1_555 1_555
C1S N2S 1_555 1_555
C2S H1S 1_555 1_555
N1S Zn1L 1_555 1_555
N2S Zn2 1_555 1_555
N3S C1S 1_555 1_555
N4S C1S 1_555 1_555
H2S N4S 1_555 1_555
H3S N4S 1_555 1_555
C1V N2V 1_555 1_555
C2V H1V 1_555 1_555
N1V Zn1L 1_555 1_555
N2V Zn2 1_555 1_555
N3V C1V 1_555 1_555
N4V C1V 1_555 1_555
H2V N4V 1_555 1_555
H3V N4V 1_555 1_555
Zn3A N3V 1_555 1_555
Zn3B N3S 1_555 1_555
Zn3C N3L 1_555 1_555
Zn3M N3J 1_555 1_555
Zn3N N3G 1_555 1_555
Zn3O N3 1_555 1_555
N3C Zn3L 1_555 1_555
N3D Zn3L 1_555 1_555
N3I Zn3L 1_555 1_555
N3O Zn3 1_555 1_555
N3P Zn3 1_555 1_555
N3U Zn3 1_555 1_555
O2E N5 1_555 1_555
O2K N5 1_555 1_555
Zn3 O1G 1_555 1_555
Zn3 O1J 1_555 1_555
C2 N3 1_555 1_555
O1 O1G 1_555 1_555
O1 O1J 1_555 1_555
O1G O1J 1_555 1_555
C2G N1G 1_555 1_555
C2G N3G 1_555 1_555
N1G N2G 1_555 1_555
C2J N1J 1_555 1_555
C2J N3J 1_555 1_555
N1J N2J 1_555 1_555
Zn3L O1S 1_555 1_555
Zn3L O1V 1_555 1_555
C2L N3L 1_555 1_555
N1L N2L 1_555 1_555
O1L O1S 1_555 1_555
O1L O1V 1_555 1_555
O1S O1V 1_555 1_555
C2S N1S 1_555 1_555
C2S N3S 1_555 1_555
N1S N2S 1_555 1_555
C2V N1V 1_555 1_555
C2V N3V 1_555 1_555
N1V N2V 1_555 1_555

#END
