
#######################################################################
#
#                 Cambridge Crystallographic Data Centre
#                                CCDC 
#
#######################################################################
#
# If this CIF has been generated from an entry in the Cambridge 
# Structural Database, then it will include bibliographic, chemical, 
# crystal, experimental, refinement or atomic coordinate data resulting 
# from the CCDC's data processing and validation procedures.
#
#######################################################################

data_DIKHOV
_symmetry_cell_setting           monoclinic
_symmetry_space_group_name_H-M   'C 2/m'
_symmetry_Int_Tables_number      12
_space_group_name_Hall           '-C 2y'
loop_
_symmetry_equiv_pos_site_id
_symmetry_equiv_pos_as_xyz
1 x,y,z
2 1/2+x,1/2+y,z
3 -x,y,-z
4 1/2-x,1/2+y,-z
5 -x,-y,-z
6 1/2-x,1/2-y,-z
7 x,-y,z
8 1/2+x,1/2-y,z
_cell_length_a                   9.5913(19)
_cell_length_b                   21.013(4)
_cell_length_c                   12.284(3)
_cell_angle_alpha                90
_cell_angle_beta                 101.78(3)
_cell_angle_gamma                90
_cell_volume                     2423.6
loop_
_atom_site_label
_atom_site_type_symbol
_atom_site_fract_x
_atom_site_fract_y
_atom_site_fract_z
C1 C -0.2623(15) -0.5000 -0.0417(11)
H1 H -0.1900 -0.5000 -0.0877
Cl2 Cl -0.4279(5) -0.5000 -0.1253(3)
Cl3 Cl -0.2462(6) -0.5695(2) 0.0386(4)
Cl3F Cl -0.2462(6) -0.4305(2) 0.0386(4)
Cu1 Cu 0.5000 -0.5000 0.5000
Cl1 Cl 0.0993(2) -0.5000 0.3204(2)
O1 O -0.0253(8) -0.5000 0.3602(9)
O2 O 0.1081(8) -0.4456(4) 0.2509(6)
O3 O 0.2244(6) -0.5000 0.4032(5)
O4 O 0.7527(4) -0.2830(2) 0.1578(4)
N1 N 0.5425(4) -0.4316(2) 0.3957(3)
C2 C 0.6717(6) -0.4215(4) 0.3735(6)
H2 H 0.7471 -0.4467 0.4092
C3 C 0.5936(5) -0.3374(3) 0.2473(4)
C4 C 0.4579(6) -0.3475(3) 0.2690(5)
H3 H 0.3813 -0.3229 0.2338
C5 C 0.4392(6) -0.3936(3) 0.3424(6)
H4 H 0.3483 -0.3991 0.3563
C6 C 0.6984(6) -0.3757(4) 0.3003(5)
H5 H 0.7901 -0.3711 0.2872
C7 C 0.6281(5) -0.2862(3) 0.1709(4)
N2 N 0.5276(4) -0.2464(2) 0.1245(3)
H6 H 0.4432 -0.2522 0.1363
C8 C 0.5502(5) -0.1935(3) 0.0546(4)
H7 H 0.6469 -0.1951 0.0425
H8 H 0.5394 -0.1540 0.0930
Cu1_2 Cu 0.5000 -0.5000 -0.5000
Cl1D Cl 0.9007(2) -0.5000 0.6796(2)
O1D O 1.0253(8) -0.5000 0.6398(9)
O2F O 0.1081(8) -0.5544(4) 0.2509(6)
O2D O 0.8919(8) -0.5544(4) 0.7491(6)
O2B O 0.8919(8) -0.4456(4) 0.7491(6)
O3D O 0.7756(6) -0.5000 0.5968(5)
O4B O 0.2473(4) -0.2830(2) -0.1578(4)
O4F O 0.7527(4) -0.7170(2) 0.1578(4)
O4D O 0.2473(4) -0.7170(2) -0.1578(4)
N1B N 0.4575(4) -0.4316(2) -0.3957(3)
N1F N 0.5425(4) -0.5684(2) 0.3957(3)
N1D N 0.4575(4) -0.5684(2) -0.3957(3)
N1D_2 N 0.4575(4) -0.5684(2) 0.6043(3)
N1B_2 N 0.4575(4) -0.4316(2) 0.6043(3)
C2B C 0.3283(6) -0.4215(4) -0.3735(6)
C2F C 0.6717(6) -0.5785(4) 0.3735(6)
C2D C 0.3283(6) -0.5785(4) -0.3735(6)
H2B H 0.2529 -0.4467 -0.4092
H2F H 0.7471 -0.5533 0.4092
H2D H 0.2529 -0.5533 -0.4092
C3B C 0.4064(5) -0.3374(3) -0.2473(4)
C3F C 0.5936(5) -0.6626(3) 0.2473(4)
C3D C 0.4064(5) -0.6626(3) -0.2473(4)
C4B C 0.5421(6) -0.3475(3) -0.2690(5)
C4F C 0.4579(6) -0.6525(3) 0.2690(5)
C4D C 0.5421(6) -0.6525(3) -0.2690(5)
H3B H 0.6187 -0.3229 -0.2338
H3F H 0.3813 -0.6771 0.2338
H3D H 0.6187 -0.6771 -0.2338
C5B C 0.5608(6) -0.3936(3) -0.3424(6)
C5F C 0.4392(6) -0.6064(3) 0.3424(6)
C5D C 0.5608(6) -0.6064(3) -0.3424(6)
H4B H 0.6517 -0.3991 -0.3563
H4F H 0.3483 -0.6009 0.3563
H4D H 0.6517 -0.6009 -0.3563
C6B C 0.3016(6) -0.3757(4) -0.3003(5)
C6F C 0.6984(6) -0.6243(4) 0.3003(5)
C6D C 0.3016(6) -0.6243(4) -0.3003(5)
H5B H 0.2099 -0.3711 -0.2872
H5F H 0.7901 -0.6289 0.2872
H5D H 0.2099 -0.6289 -0.2872
C7B C 0.3719(5) -0.2862(3) -0.1709(4)
C7F C 0.6281(5) -0.7138(3) 0.1709(4)
C7D C 0.3719(5) -0.7138(3) -0.1709(4)
N2B N 0.4724(4) -0.2464(2) -0.1245(3)
N2F N 0.5276(4) -0.7536(2) 0.1245(3)
N2D N 0.4724(4) -0.7536(2) -0.1245(3)
H6B H 0.5568 -0.2522 -0.1363
H6F H 0.4432 -0.7478 0.1363
H6D H 0.5568 -0.7478 -0.1363
C8B C 0.4498(5) -0.1935(3) -0.0546(4)
C8F C 0.5502(5) -0.8065(3) 0.0546(4)
C8D C 0.4498(5) -0.8065(3) -0.0546(4)
H7B H 0.3531 -0.1951 -0.0425
H7F H 0.6469 -0.8049 0.0425
H7D H 0.3531 -0.8049 -0.0425
H8B H 0.4606 -0.1540 -0.0930
H8F H 0.5394 -0.8460 0.0930
H8D H 0.4606 -0.8460 -0.0930
loop_
_geom_bond_atom_site_label_1
_geom_bond_atom_site_label_2
_geom_bond_site_symmetry_1
_geom_bond_site_symmetry_2
Cu1 O3 1_555 1_555
Cl1 O1 1_555 1_555
C1 H1 1_555 1_555
Cl2 C1 1_555 1_555
Cl3 C1 1_555 1_555
O2 Cl1 1_555 1_555
O3 Cl1 1_555 1_555
O4 C7 1_555 1_555
N1 Cu1 1_555 1_555
C2 N1 1_555 1_555
H2 C2 1_555 1_555
C3 C4 1_555 1_555
C4 H3 1_555 1_555
C5 N1 1_555 1_555
H4 C5 1_555 1_555
C6 C2 1_555 1_555
H5 C6 1_555 1_555
C7 C3 1_555 1_555
N2 C7 1_555 1_555
H6 N2 1_555 1_555
C8 N2 1_555 1_555
H7 C8 1_555 1_555
H8 C8 1_555 1_555
Cu1_2 N1B 1_555 1_555
Cl1D O1D 1_555 1_555
Cl3F C1 1_555 1_555
O2F Cl1 1_555 1_555
O2D Cl1D 1_555 1_555
O2B Cl1D 1_555 1_555
O3D Cu1 1_555 1_555
O4B C7B 1_555 1_555
O4F C7F 1_555 1_555
O4D C7D 1_555 1_555
N1B C2B 1_555 1_555
N1F Cu1 1_555 1_555
N1D Cu1_2 1_555 1_555
N1D_2 Cu1 1_555 1_555
N1B_2 Cu1 1_555 1_555
C2B H2B 1_555 1_555
C2F N1F 1_555 1_555
C2D N1D 1_555 1_555
H2F C2F 1_555 1_555
H2D C2D 1_555 1_555
C3B C4B 1_555 1_555
C3F C4F 1_555 1_555
C3D C4D 1_555 1_555
C4B H3B 1_555 1_555
C4F H3F 1_555 1_555
C4D H3D 1_555 1_555
C5B N1B 1_555 1_555
C5F N1F 1_555 1_555
C5D N1D 1_555 1_555
H4B C5B 1_555 1_555
H4F C5F 1_555 1_555
H4D C5D 1_555 1_555
C6B C2B 1_555 1_555
C6F C2F 1_555 1_555
C6D C2D 1_555 1_555
H5B C6B 1_555 1_555
H5F C6F 1_555 1_555
H5D C6D 1_555 1_555
C7B C3B 1_555 1_555
C7F C3F 1_555 1_555
C7D C3D 1_555 1_555
N2B C7B 1_555 1_555
N2F C7F 1_555 1_555
N2D C7D 1_555 1_555
H6B N2B 1_555 1_555
H6F N2F 1_555 1_555
H6D N2D 1_555 1_555
C8B C8 1_555 1_555
C8F N2F 1_555 1_555
C8D N2D 1_555 1_555
H7B C8B 1_555 1_555
H7F C8F 1_555 1_555
H7D C8D 1_555 1_555
H8B C8B 1_555 1_555
H8F C8F 1_555 1_555
H8D C8D 1_555 1_555
C3 C6 1_555 1_555
C4 C5 1_555 1_555
Cl1D O3D 1_555 1_555
C3B C6B 1_555 1_555
C3F C6F 1_555 1_555
C3D C6D 1_555 1_555
C4B C5B 1_555 1_555
C4F C5F 1_555 1_555
C4D C5D 1_555 1_555
N2B C8B 1_555 1_555
C8F C8D 1_555 1_555

#END
