
#######################################################################
#
#                 Cambridge Crystallographic Data Centre
#                                CCDC 
#
#######################################################################
#
# If this CIF has been generated from an entry in the Cambridge 
# Structural Database, then it will include bibliographic, chemical, 
# crystal, experimental, refinement or atomic coordinate data resulting 
# from the CCDC's data processing and validation procedures.
#
#######################################################################

data_DIKJOX
_symmetry_cell_setting           monoclinic
_symmetry_space_group_name_H-M   'C 2'
_symmetry_Int_Tables_number      5
_space_group_name_Hall           'C 2y'
loop_
_symmetry_equiv_pos_site_id
_symmetry_equiv_pos_as_xyz
1 x,y,z
2 -x,y,-z
3 1/2+x,1/2+y,z
4 1/2-x,1/2+y,-z
_cell_length_a                   20.767(4)
_cell_length_b                   9.2950(19)
_cell_length_c                   11.225(2)
_cell_angle_alpha                90
_cell_angle_beta                 112.09(3)
_cell_angle_gamma                90
_cell_volume                     2007.7
loop_
_atom_site_label
_atom_site_type_symbol
_atom_site_fract_x
_atom_site_fract_y
_atom_site_fract_z
Cu1 Cu 0.0000 0.13950(7) 0.5000
O1 O 0.0311(2) -0.3355(7) -0.2475(5)
N1 N 0.0726(3) -0.7045(6) -0.4208(6)
C1 C 0.1106(3) -0.5027(7) -0.2785(6)
C2 C 0.0609(3) -0.5985(7) -0.3493(6)
H1 H 0.0165 -0.5901 -0.3480
C3 C 0.1358(4) -0.7109(7) -0.4266(7)
H2 H 0.1440 -0.7786 -0.4803
C4 C 0.1895(3) -0.6201(8) -0.3554(7)
H3 H 0.2332 -0.6294 -0.3596
C5 C 0.1779(3) -0.5165(7) -0.2787(7)
H4 H 0.2137 -0.4569 -0.2281
C6 C 0.0901(3) -0.3856(8) -0.2028(6)
O2 O 0.2297(2) -0.3354(6) 0.4902(5)
N2 N 0.0749(3) -0.0147(7) 0.5741(6)
C7 C 0.1492(3) -0.1947(6) 0.5433(6)
C8 C 0.0885(3) -0.1128(7) 0.5004(6)
H5 H -0.0563 0.8728 -0.4173
C9 C -0.1195(3) 1.0012(8) -0.6983(6)
H6 H -0.1082 1.0651 -0.7511
C10 C -0.1815(3) 0.9249(8) -0.7485(6)
H7 H -0.2116 0.9363 -0.8335
C11 C -0.1964(4) 0.8311(8) -0.6663(7)
H8 H -0.2392 0.7845 -0.6947
C12 C 0.1679(3) -0.3022(7) 0.4613(6)
N3 N 0.1387(3) -0.3434(9) -0.0957(5)
H9 H 0.1792 -0.3818 -0.0735
N4 N 0.1169(3) -0.3585(9) 0.3646(5)
H10 H -0.0750 0.6689 -0.3501
C13 C 0.1276(5) -0.2340(9) -0.0116(8)
H11 H 0.0932 -0.1652 -0.0629
H12 H 0.1706 -0.1826 0.0328
C14 C 0.1008(5) -0.3091(13) 0.0941(9)
H13 H 0.0919 -0.2350 0.1468
H14 H 0.0577 -0.3601 0.0495
C15 C 0.1505(6) -0.4048(9) 0.1724(10)
H15 H 0.1947 -0.3554 0.2112
H16 H 0.1566 -0.4829 0.1204
C16 C 0.1288(4) -0.4672(8) 0.2798(8)
H17 H -0.0866 0.4773 -0.2401
H18 H -0.1648 0.4675 -0.3319
O3 O -0.0253(2) 0.1380(9) 0.6941(4)
Cu1_2 Cu 0.0000 -0.86050(7) -0.5000
Cu1_3 Cu 0.0000 1.13950(7) -0.5000
O1A O -0.0311(2) 0.6645(7) 0.2475(5)
N1_2 N 0.0726(3) 0.2955(6) 0.5792(6)
N1A N -0.0726(3) 0.2955(6) 0.4208(6)
C1A C -0.1106(3) 0.4973(7) 0.2785(6)
C2A C -0.0609(3) 0.4015(7) 0.3493(6)
H1A H -0.0165 0.4099 0.3480
C3A C -0.1358(4) 0.2891(7) 0.4266(7)
H2A H -0.1440 0.2214 0.4803
C4A C -0.1895(3) 0.3799(8) 0.3554(7)
H3A H -0.2332 0.3706 0.3596
C5A C -0.1779(3) 0.4835(7) 0.2787(7)
H4A H -0.2137 0.5431 0.2281
C6A C -0.0901(3) 0.6144(8) 0.2028(6)
O2A O -0.2297(2) 0.6646(6) -0.4902(5)
N2A N -0.0749(3) 0.9853(7) -0.5741(6)
N2A_2 N -0.0749(3) -0.0147(7) 0.4259(6)
C7A C -0.1492(3) 0.8053(6) -0.5433(6)
C8A C -0.0885(3) 0.8872(7) -0.5004(6)
H5A H 0.0563 -0.1272 0.4173
C9A C 0.1195(3) 0.0012(8) 0.6983(6)
H6A H 0.1082 0.0651 0.7511
C10A C 0.1815(3) -0.0751(8) 0.7485(6)
H7A H 0.2116 -0.0637 0.8335
C11A C 0.1964(4) -0.1689(8) 0.6663(7)
H8A H 0.2392 -0.2155 0.6947
C12A C -0.1679(3) 0.6978(7) -0.4613(6)
N3A N -0.1387(3) 0.6566(9) 0.0957(5)
H9A H -0.1792 0.6182 0.0735
N4A N -0.1169(3) 0.6415(9) -0.3646(5)
H10A H 0.0750 -0.3311 0.3501
C13A C -0.1276(5) 0.7660(9) 0.0116(8)
H11A H -0.0932 0.8348 0.0629
H12A H -0.1706 0.8174 -0.0328
C14A C -0.1008(5) 0.6909(13) -0.0941(9)
H13A H -0.0919 0.7650 -0.1468
H14A H -0.0577 0.6399 -0.0495
C15A C -0.1505(6) 0.5952(9) -0.1724(10)
H15A H -0.1947 0.6446 -0.2112
H16A H -0.1566 0.5171 -0.1204
C16A C -0.1288(4) 0.5328(8) -0.2798(8)
H17A H 0.0866 -0.5227 0.2401
H18A H 0.1648 -0.5325 0.3319
O3A O 0.0253(2) 0.1380(9) 0.3059(4)
O4 O 0.3467(3) -1.4496(8) -0.3108(6)
O5 O -0.0002(10) -0.700(2) 0.9158(16)
N5 N 0.1613(6) -0.8013(9) 0.0106(8)
O6 O 0.116(2) -0.756(3) -0.0713(16)
O7 O 0.2047(7) -0.864(3) -0.004(2)
O8 O 0.1552(7) -0.7909(16) 0.1036(10)
loop_
_geom_bond_atom_site_label_1
_geom_bond_atom_site_label_2
_geom_bond_site_symmetry_1
_geom_bond_site_symmetry_2
Cu1 N2 1_555 1_555
O1 C6 1_555 1_555
N1 C2 1_555 1_555
C1 C2 1_555 1_555
C2 H1 1_555 1_555
C3 N1 1_555 1_555
H2 C3 1_555 1_555
C4 C3 1_555 1_555
H3 C4 1_555 1_555
C5 C1 1_555 1_555
H4 C5 1_555 1_555
C6 C1 1_555 1_555
O2 C12 1_555 1_555
N2 C8 1_555 1_555
C7 C8 1_555 1_555
C8 H5A 1_555 1_555
H5 C8A 1_555 1_555
C9 H6 1_555 1_555
C10 C9 1_555 1_555
H7 C10 1_555 1_555
C11 C10 1_555 1_555
H8 C11 1_555 1_555
C12 C7 1_555 1_555
N3 C6 1_555 1_555
H9 N3 1_555 1_555
N4 C12 1_555 1_555
H10 N4A 1_555 1_555
C13 N3 1_555 1_555
H11 C13 1_555 1_555
H12 C13 1_555 1_555
C14 C13 1_555 1_555
H13 C14 1_555 1_555
H14 C14 1_555 1_555
C15 C14 1_555 1_555
H15 C15 1_555 1_555
H16 C15 1_555 1_555
C16 N4 1_555 1_555
H17 C16A 1_555 1_555
H18 C16A 1_555 1_555
O3 Cu1 1_555 1_555
N5 O6 1_555 1_555
O7 N5 1_555 1_555
O8 N5 1_555 1_555
Cu1_2 N1 1_555 1_555
Cu1_3 N2A 1_555 1_555
O1A C6A 1_555 1_555
N1_2 Cu1 1_555 1_555
N1A Cu1 1_555 1_555
C1A C2A 1_555 1_555
C2A N1A 1_555 1_555
H1A C2A 1_555 1_555
C3A N1A 1_555 1_555
H2A C3A 1_555 1_555
C4A C3A 1_555 1_555
H3A C4A 1_555 1_555
C5A C1A 1_555 1_555
H4A C5A 1_555 1_555
C6A C1A 1_555 1_555
O2A C12A 1_555 1_555
N2A C9 1_555 1_555
N2A_2 Cu1 1_555 1_555
C7A C11 1_555 1_555
C8A N2A 1_555 1_555
C9A N2 1_555 1_555
H6A C9A 1_555 1_555
C10A C9A 1_555 1_555
H7A C10A 1_555 1_555
C11A C7 1_555 1_555
H8A C11A 1_555 1_555
C12A C7A 1_555 1_555
N3A C6A 1_555 1_555
H9A N3A 1_555 1_555
N4A C12A 1_555 1_555
H10A N4 1_555 1_555
C13A N3A 1_555 1_555
H11A C13A 1_555 1_555
H12A C13A 1_555 1_555
C14A C13A 1_555 1_555
H13A C14A 1_555 1_555
H14A C14A 1_555 1_555
C15A C14A 1_555 1_555
H15A C15A 1_555 1_555
H16A C15A 1_555 1_555
C16A N4A 1_555 1_555
H17A C16 1_555 1_555
H18A C16 1_555 1_555
O3A Cu1 1_555 1_555
C4 C5 1_555 1_555
C15 C16 1_555 1_555
C4A C5A 1_555 1_555
C7A C8A 1_555 1_555
C10A C11A 1_555 1_555
C15A C16A 1_555 1_555

#END
