
#######################################################################
#
#                 Cambridge Crystallographic Data Centre
#                                CCDC 
#
#######################################################################
#
# If this CIF has been generated from an entry in the Cambridge 
# Structural Database, then it will include bibliographic, chemical, 
# crystal, experimental, refinement or atomic coordinate data resulting 
# from the CCDC's data processing and validation procedures.
#
#######################################################################

data_DIKRUL
_symmetry_cell_setting           orthorhombic
_symmetry_space_group_name_H-M   'P 21 21 21'
_symmetry_Int_Tables_number      19
_space_group_name_Hall           'P 2ac 2ab'
loop_
_symmetry_equiv_pos_site_id
_symmetry_equiv_pos_as_xyz
1 x,y,z
2 1/2-x,-y,1/2+z
3 1/2+x,1/2-y,-z
4 -x,1/2+y,1/2-z
_cell_length_a                   6.4968(5)
_cell_length_b                   10.2591(11)
_cell_length_c                   13.3852(10)
_cell_angle_alpha                90
_cell_angle_beta                 90
_cell_angle_gamma                90
_cell_volume                     892.141
loop_
_atom_site_label
_atom_site_type_symbol
_atom_site_fract_x
_atom_site_fract_y
_atom_site_fract_z
K1 K 0.70097(7) 0.46219(5) 0.80259(4)
O1 O 0.9029(3) 0.22194(14) 0.74675(13)
H1 H 1.0125 0.1985 0.7937
O2 O 0.6338(2) 0.12886(16) 0.65155(13)
O3 O 0.8659(2) -0.00609(14) 0.73950(12)
H2 H 0.7915 -0.0686 0.6976
O4 O 0.7902(3) 0.62339(16) 0.64157(12)
O5 O 0.6924(3) 0.38549(18) 0.47184(12)
O6 O 0.5149(3) 0.37034(16) 0.61327(13)
O7 O 0.6328(3) 0.81487(17) 0.65806(15)
C1 C 0.6500(3) 0.7029(2) 0.62152(15)
C2 C 0.4556(3) 0.5506(2) 0.51034(16)
H3 H 0.3504 0.5442 0.4634
C3 C 0.5656(3) 0.42696(19) 0.53478(15)
C4 C 0.4894(4) 0.6681(2) 0.54721(17)
H4 H 0.4050 0.7352 0.5246
B1 B 0.7992(4) 0.1155(2) 0.71346(16)
K2 K 1.05739(8) 0.37297(6) 0.58056(4)
H5 H 0.620(6) 0.204(4) 0.642(3)
K1C K 0.29903(7) -0.03781(5) 0.69741(4)
K1C_2 K 1.29903(7) -0.03781(5) 0.69741(4)
K1A K 0.79903(7) 0.53781(5) 0.30259(4)
K1C_3 K 0.29903(7) 0.96219(5) 0.69741(4)
O2C O 0.3662(2) 0.62886(16) 0.84845(13)
O2B O 1.1338(2) 0.37114(16) 0.34845(13)
O3C O 1.1341(2) 0.49391(14) 0.76050(12)
H2C H 1.2085 0.4314 0.8024
O5A O 0.8076(3) 0.61451(18) 0.97184(12)
O5B O 1.1924(3) 0.11451(18) 0.52816(12)
O6_2 O 1.5149(3) 0.37034(16) 0.61327(13)
O7C O 0.3672(3) 0.31487(17) 0.84194(15)
K2A K 0.44261(8) 0.62703(6) 1.08056(4)
K2B K 0.55739(8) 0.12703(6) 0.41944(4)
K2C K 0.94261(8) -0.12703(6) 0.91944(4)
K2_2 K 0.05739(8) 0.37297(6) 0.58056(4)
K2B_2 K 1.55739(8) 0.12703(6) 0.41944(4)
H5C H 0.380(6) 0.704(4) 0.858(3)
H5B H 1.120(6) 0.296(4) 0.358(3)
loop_
_geom_bond_atom_site_label_1
_geom_bond_atom_site_label_2
_geom_bond_site_symmetry_1
_geom_bond_site_symmetry_2
K1 O1 1_555 1_555
O1 H1 1_555 1_555
O2 B1 1_555 1_555
O3 H2 1_555 1_555
O4 K1 1_555 1_555
O5 C3 1_555 1_555
O6 K1 1_555 1_555
O7 C1 1_555 1_555
C1 O4 1_555 1_555
C2 H3 1_555 1_555
C3 O6 1_555 1_555
C4 C1 1_555 1_555
H4 C4 1_555 1_555
B1 O1 1_555 1_555
K2 O1 1_555 1_555
H5 O2 1_555 1_555
K1C O2 1_555 1_555
K1C_2 O3 1_555 1_555
K1A O5 1_555 1_555
K1C_3 O7 1_555 1_555
O2C K1 1_555 1_555
O2B K2 1_555 1_555
O3C K1 1_555 1_555
H2C O3C 1_555 1_555
O5A K1 1_555 1_555
O5B K2 1_555 1_555
O6_2 K2 1_555 1_555
O7C K1 1_555 1_555
K2A O2C 1_555 1_555
K2B O2 1_555 1_555
K2C O3 1_555 1_555
K2_2 O6 1_555 1_555
K2B_2 O5B 1_555 1_555
H5C O2C 1_555 1_555
H5B O2B 1_555 1_555
O3 B1 1_555 1_555
O4 K2 1_555 1_555
O5 K2 1_555 1_555
O5 K2B 1_555 1_555
C2 C3 1_555 1_555
C2 C4 1_555 1_555
K2 O3C 1_555 1_555
K1C_2 O5B 1_555 1_555
K1A O2B 1_555 1_555
O5A K2A 1_555 1_555

#END
