
#######################################################################
#
#                 Cambridge Crystallographic Data Centre
#                                CCDC 
#
#######################################################################
#
# If this CIF has been generated from an entry in the Cambridge 
# Structural Database, then it will include bibliographic, chemical, 
# crystal, experimental, refinement or atomic coordinate data resulting 
# from the CCDC's data processing and validation procedures.
#
#######################################################################

data_DIKYEC
_symmetry_cell_setting           triclinic
_symmetry_space_group_name_H-M   'P -1'
_symmetry_Int_Tables_number      2
_space_group_name_Hall           '-P 1'
loop_
_symmetry_equiv_pos_site_id
_symmetry_equiv_pos_as_xyz
1 x,y,z
2 -x,-y,-z
_cell_length_a                   12.6568(2)
_cell_length_b                   14.7729(3)
_cell_length_c                   15.0674(3)
_cell_angle_alpha                68.7100(10)
_cell_angle_beta                 83.8960(10)
_cell_angle_gamma                78.3030(10)
_cell_volume                     2568.84
loop_
_atom_site_label
_atom_site_type_symbol
_atom_site_fract_x
_atom_site_fract_y
_atom_site_fract_z
Cd1 Cd 0.689294(11) 0.421799(11) 0.608438(11)
Cd2 Cd 0.053959(11) 0.793489(11) 0.773349(10)
O1 O 0.49865(13) 0.49043(12) 0.63061(12)
O2 O 0.61249(13) 0.45434(12) 0.74444(12)
O3 O 0.22400(12) 0.79301(12) 0.71617(11)
O4 O 0.20909(13) 0.70938(13) 0.62286(13)
O5 O 0.78141(15) 0.26364(13) 0.67143(16)
O6 O 0.60941(16) 0.26266(14) 0.66945(18)
O7 O 0.98151(13) -0.07694(12) 0.65385(12)
O8 O 1.02815(15) 0.03295(15) 0.70485(15)
O9 O 0.68968(15) 0.41970(15) 0.45880(14)
N1 N 0.85996(15) 0.45969(14) 0.61669(13)
N2 N 0.69086(15) 0.59301(14) 0.51893(14)
N3 N -0.08039(15) 0.72071(13) 0.74069(13)
N4 N 0.09081(15) 0.61537(14) 0.85106(14)
N5 N -0.08516(17) 0.84413(15) 0.88096(15)
N6 N 0.13219(18) 0.80485(15) 0.90742(14)
C1 C 0.51985(18) 0.48876(16) 0.71056(17)
C2 C 0.43193(19) 0.52965(17) 0.77025(17)
H1 H 0.3641 0.5545 0.7351
H2 H 0.4186 0.4758 0.8304
C3 C 0.46247(17) 0.61267(18) 0.79344(17)
C4 C 0.5117(2) 0.5908(2) 0.8791(2)
H3 H 0.5267 0.5242 0.9213
C5 C 0.5390(2) 0.6647(3) 0.9037(3)
H4 H 0.5712 0.6488 0.9629
C6 C 0.5195(2) 0.7610(3) 0.8422(3)
H5 H 0.5383 0.8118 0.8587
C7 C 0.47280(19) 0.7833(2) 0.7570(2)
H6 H 0.4602 0.8499 0.7146
C8 C 0.44330(16) 0.71033(17) 0.73112(17)
C9 C 0.38516(17) 0.73898(17) 0.64020(16)
H7 H 0.4114 0.6891 0.6097
H8 H 0.4012 0.8033 0.5957
C10 C 0.26244(17) 0.74676(16) 0.65953(15)
C11 C 0.7039(2) 0.21884(17) 0.68541(18)
C12 C 0.7269(2) 0.10595(17) 0.72501(18)
H9 H 0.8017 0.0827 0.7475
H10 H 0.6771 0.0819 0.7802
C13 C 0.71312(17) 0.06376(15) 0.64981(16)
C14 C 0.61860(18) 0.02941(17) 0.65013(17)
H11 H 0.5647 0.0302 0.6989
C15 C 0.60195(19) -0.00598(17) 0.58005(18)
H12 H 0.5368 -0.0288 0.5809
C16 C 0.6798(2) -0.00801(17) 0.50930(18)
H13 H 0.6682 -0.0315 0.4608
C17 C 0.77596(19) 0.02477(17) 0.50944(16)
H14 H 0.8300 0.0227 0.4610
C18 C 0.79385(17) 0.06027(15) 0.57926(16)
C19 C 0.90071(18) 0.09020(16) 0.58026(18)
H15 H 0.8879 0.1513 0.5956
H16 H 0.9360 0.1047 0.5160
C20 C 0.97616(17) 0.00966(17) 0.65299(17)
C21 C 0.94063(19) 0.39586(18) 0.66638(17)
H17 H 0.9310 0.3296 0.6995
C22 C 1.03977(19) 0.4216(2) 0.67239(18)
H18 H 1.0952 0.3738 0.7097
C23 C 1.05560(19) 0.5164(2) 0.62381(18)
H19 H 1.1221 0.5352 0.6271
C24 C 0.97165(19) 0.58586(19) 0.56868(17)
C25 C 0.9833(2) 0.6857(2) 0.5142(2)
H20 H 1.0487 0.7071 0.5157
C26 C 0.9022(2) 0.74954(19) 0.4609(2)
H21 H 0.9125 0.8146 0.4230
C27 C 0.8011(2) 0.72061(17) 0.46086(17)
C28 C 0.7118(2) 0.78729(18) 0.41059(19)
H22 H 0.7185 0.8533 0.3726
C29 C 0.6160(2) 0.7556(2) 0.4174(2)
H23 H 0.5549 0.7998 0.3856
C30 C 0.6090(2) 0.65751(19) 0.47168(19)
H24 H 0.5424 0.6361 0.4748
C31 C 0.78632(18) 0.62377(16) 0.51401(16)
C32 C 0.87444(17) 0.55413(17) 0.56788(16)
C33 C -0.16356(18) 0.77187(17) 0.68545(16)
H25 H -0.1626 0.8391 0.6479
C34 C -0.25225(19) 0.73094(19) 0.68023(18)
H26 H -0.3102 0.7702 0.6405
C35 C -0.25462(19) 0.63431(19) 0.73267(17)
H27 H -0.3149 0.6058 0.7308
C36 C -0.16710(19) 0.57734(17) 0.78951(16)
C37 C -0.1615(2) 0.47415(19) 0.84237(18)
H28 H -0.2200 0.4428 0.8422
C38 C -0.0735(2) 0.42123(18) 0.89247(18)
H29 H -0.0706 0.3526 0.9262
C39 C 0.0153(2) 0.46562(17) 0.89621(17)
C40 C 0.1087(2) 0.41219(18) 0.9472(2)
H30 H 0.1154 0.3431 0.9805
C41 C 0.1895(2) 0.4603(2) 0.9484(2)
H31 H 0.2532 0.4250 0.9820
C42 C 0.17758(19) 0.56245(19) 0.89955(18)
H32 H 0.2342 0.5952 0.9013
C43 C 0.01141(18) 0.56768(16) 0.84802(15)
C44 C -0.08122(17) 0.62421(16) 0.79162(15)
C45 C -0.1902(2) 0.8629(2) 0.8677(2)
H33 H -0.2145 0.8535 0.8146
C46 C -0.2673(3) 0.8960(2) 0.9283(2)
H34 H -0.3421 0.9087 0.9166
C47 C -0.2321(3) 0.9095(3) 1.0047(2)
H35 H -0.2829 0.9325 1.0463
C48 C -0.1213(3) 0.8896(2) 1.0217(2)
C49 C -0.0793(3) 0.8993(3) 1.1015(2)
H36 H -0.1279 0.9225 1.1443
C50 C 0.0272(3) 0.8765(3) 1.1178(2)
H37 H 0.0526 0.8825 1.1722
C51 C 0.1025(3) 0.8431(2) 1.0527(2)
C52 C 0.2130(3) 0.8170(3) 1.0670(2)
H38 H 0.2413 0.8204 1.1214
C53 C 0.2808(3) 0.7866(3) 1.0024(2)
H39 H 0.3564 0.7687 1.0113
C54 C 0.2367(2) 0.7823(2) 0.92304(19)
H40 H 0.2844 0.7621 0.8780
C55 C 0.0641(2) 0.83559(17) 0.97167(17)
C56 C -0.0501(2) 0.85692(17) 0.95655(18)
H47 H 0.720(2) 0.3728(16) 0.444(2)
H48 H 0.6380(19) 0.454(2) 0.428(2)
Cd2_2 Cd 1.053959(11) -0.206511(11) 0.773349(10)
O7_2 O -0.01849(13) 0.92306(12) 0.65385(12)
O10 O 1.24607(16) -0.02220(14) 0.72639(15)
H49 H 1.1821(14) 0.001(3) 0.716(3)
H50 H 1.255(3) -0.0762(14) 0.720(3)
O11 O -0.3976(3) 0.9918(3) 1.1718(3)
H51 H -0.388(3) 0.9327(8) 1.194(2)
H52 H -0.363(4) 1.013(4) 1.201(4)
O12 O -0.4695(4) 1.0800(4) 0.9987(4)
O13 O -0.4680(3) 0.8163(3) 1.1848(3)
H41 H -0.5096 0.7944 1.2318
C57 C -0.4086(5) 0.7355(4) 1.1573(5)
H42 H -0.3846 0.7615 1.0895
H43 H -0.4571 0.6885 1.1636
C58 C -0.3117(5) 0.6815(5) 1.2168(6)
H44 H -0.2627 0.7274 1.2099
H45 H -0.2741 0.6278 1.1953
H46 H -0.3351 0.6541 1.2838
O14? O -0.4956(12) 0.7129(10) 1.1176(10)
loop_
_geom_bond_atom_site_label_1
_geom_bond_atom_site_label_2
_geom_bond_site_symmetry_1
_geom_bond_site_symmetry_2
Cd1 O1 1_555 1_555
Cd2 O3 1_555 1_555
O1 C1 1_555 1_555
O2 Cd1 1_555 1_555
O3 C10 1_555 1_555
O4 C10 1_555 1_555
O5 Cd1 1_555 1_555
O6 Cd1 1_555 1_555
O7 C20 1_555 1_555
O8 C20 1_555 1_555
O9 Cd1 1_555 1_555
N1 Cd1 1_555 1_555
N2 Cd1 1_555 1_555
N3 Cd2 1_555 1_555
N4 Cd2 1_555 1_555
N5 Cd2 1_555 1_555
N6 Cd2 1_555 1_555
C1 O2 1_555 1_555
C2 C1 1_555 1_555
H1 C2 1_555 1_555
H2 C2 1_555 1_555
C3 C2 1_555 1_555
C4 C3 1_555 1_555
H3 C4 1_555 1_555
C5 C4 1_555 1_555
H4 C5 1_555 1_555
C6 C5 1_555 1_555
H5 C6 1_555 1_555
C7 C6 1_555 1_555
H6 C7 1_555 1_555
C8 C3 1_555 1_555
C9 C8 1_555 1_555
H7 C9 1_555 1_555
H8 C9 1_555 1_555
C10 C9 1_555 1_555
C11 O5 1_555 1_555
C12 C11 1_555 1_555
H9 C12 1_555 1_555
H10 C12 1_555 1_555
C13 C12 1_555 1_555
C14 C13 1_555 1_555
H11 C14 1_555 1_555
C15 C14 1_555 1_555
H12 C15 1_555 1_555
C16 C15 1_555 1_555
H13 C16 1_555 1_555
C17 C16 1_555 1_555
H14 C17 1_555 1_555
C18 C13 1_555 1_555
C19 C18 1_555 1_555
H15 C19 1_555 1_555
H16 C19 1_555 1_555
C20 C19 1_555 1_555
C21 N1 1_555 1_555
H17 C21 1_555 1_555
C22 C21 1_555 1_555
H18 C22 1_555 1_555
C23 C22 1_555 1_555
H19 C23 1_555 1_555
C24 C23 1_555 1_555
C25 C24 1_555 1_555
H20 C25 1_555 1_555
C26 C25 1_555 1_555
H21 C26 1_555 1_555
C27 C26 1_555 1_555
C28 C27 1_555 1_555
H22 C28 1_555 1_555
C29 C28 1_555 1_555
H23 C29 1_555 1_555
C30 N2 1_555 1_555
H24 C30 1_555 1_555
C31 N2 1_555 1_555
C32 N1 1_555 1_555
C33 N3 1_555 1_555
H25 C33 1_555 1_555
C34 C33 1_555 1_555
H26 C34 1_555 1_555
C35 C34 1_555 1_555
H27 C35 1_555 1_555
C36 C35 1_555 1_555
C37 C36 1_555 1_555
H28 C37 1_555 1_555
C38 C37 1_555 1_555
H29 C38 1_555 1_555
C39 C38 1_555 1_555
C40 C39 1_555 1_555
H30 C40 1_555 1_555
C41 C40 1_555 1_555
H31 C41 1_555 1_555
C42 N4 1_555 1_555
H32 C42 1_555 1_555
C43 N4 1_555 1_555
C44 N3 1_555 1_555
C45 N5 1_555 1_555
H33 C45 1_555 1_555
C46 C45 1_555 1_555
H34 C46 1_555 1_555
C47 C46 1_555 1_555
H35 C47 1_555 1_555
C48 C47 1_555 1_555
C49 C48 1_555 1_555
H36 C49 1_555 1_555
C50 C49 1_555 1_555
H37 C50 1_555 1_555
C51 C50 1_555 1_555
C52 C51 1_555 1_555
H38 C52 1_555 1_555
C53 C52 1_555 1_555
H39 C53 1_555 1_555
C54 N6 1_555 1_555
H40 C54 1_555 1_555
C55 N6 1_555 1_555
C56 N5 1_555 1_555
O10 H49 1_555 1_555
O11 H51 1_555 1_555
O13 H41 1_555 1_555
C57 O13 1_555 1_555
H42 C57 1_555 1_555
H43 C57 1_555 1_555
C58 C57 1_555 1_555
H44 C58 1_555 1_555
H45 C58 1_555 1_555
H46 C58 1_555 1_555
H47 O9 1_555 1_555
H48 O9 1_555 1_555
H50 O10 1_555 1_555
H52 O11 1_555 1_555
Cd2_2 O7 1_555 1_555
O7_2 Cd2 1_555 1_555
O6 C11 1_555 1_555
C7 C8 1_555 1_555
C17 C18 1_555 1_555
C24 C32 1_555 1_555
C27 C31 1_555 1_555
C29 C30 1_555 1_555
C31 C32 1_555 1_555
C36 C44 1_555 1_555
C39 C43 1_555 1_555
C41 C42 1_555 1_555
C43 C44 1_555 1_555
C48 C56 1_555 1_555
C51 C55 1_555 1_555
C53 C54 1_555 1_555
C55 C56 1_555 1_555

#END
