
#######################################################################
#
#                 Cambridge Crystallographic Data Centre
#                                CCDC 
#
#######################################################################
#
# If this CIF has been generated from an entry in the Cambridge 
# Structural Database, then it will include bibliographic, chemical, 
# crystal, experimental, refinement or atomic coordinate data resulting 
# from the CCDC's data processing and validation procedures.
#
#######################################################################

data_DILDEI01
_symmetry_cell_setting           orthorhombic
_symmetry_space_group_name_H-M   'P b c a'
_symmetry_Int_Tables_number      61
_space_group_name_Hall           '-P 2ac 2ab'
loop_
_symmetry_equiv_pos_site_id
_symmetry_equiv_pos_as_xyz
1 x,y,z
2 1/2-x,-y,1/2+z
3 -x,1/2+y,1/2-z
4 1/2+x,1/2-y,-z
5 -x,-y,-z
6 1/2+x,y,1/2-z
7 x,1/2-y,1/2+z
8 1/2-x,1/2+y,z
_cell_length_a                   8.3400(8)
_cell_length_b                   9.4598(9)
_cell_length_c                   17.8056(17)
_cell_angle_alpha                90
_cell_angle_beta                 90
_cell_angle_gamma                90
_cell_volume                     1404.77
loop_
_atom_site_label
_atom_site_type_symbol
_atom_site_fract_x
_atom_site_fract_y
_atom_site_fract_z
Zn1 Zn -1.0000 0.5000 0.0000
C1 C -0.9674(2) 0.6638(2) 0.14196(12)
C2 C -1.0741(4) 0.6476(3) 0.25768(14)
H1 H -1.0868 0.6823 0.3062
C3 C -1.1528(3) 0.5259(3) 0.23842(14)
H2 H -1.2161 0.4776 0.2729
C4 C -1.1347(3) 0.4783(2) 0.16641(13)
H3 H -1.1882 0.3969 0.1512
C5 C -0.8631(2) 0.7316(2) 0.08640(11)
N1 N -0.8535(2) 0.67910(18) 0.01695(9)
N2 N -0.74847(19) 0.75967(17) -0.01969(11)
N3 N -0.6975(2) 0.85716(18) 0.02776(10)
N4 N -0.7671(2) 0.84260(19) 0.09541(9)
N5 N -1.0415(2) 0.54680(19) 0.11756(10)
N6 N -0.9798(2) 0.7189(2) 0.21035(11)
Zn1C Zn -1.5000 0.0000 0.0000
Zn1C_2 Zn -0.5000 1.0000 0.0000
C1D C -1.0326(2) 0.3362(2) -0.14196(12)
C2D C -0.9259(4) 0.3524(3) -0.25768(14)
H1D H -0.9132 0.3177 -0.3062
C3D C -0.8472(3) 0.4741(3) -0.23842(14)
H2D H -0.7839 0.5224 -0.2729
C4D C -0.8653(3) 0.5217(2) -0.16641(13)
H3D H -0.8118 0.6031 -0.1512
C5D C -1.1369(2) 0.2684(2) -0.08640(11)
N1D N -1.1465(2) 0.32090(18) -0.01695(9)
N2D N -1.25153(19) 0.24033(17) 0.01969(11)
N3D N -1.3025(2) 0.14284(18) -0.02776(10)
N3C N -1.1975(2) 0.64284(18) -0.02776(10)
N3G N -0.8025(2) 0.35716(18) 0.02776(10)
N4D N -1.2329(2) 0.15740(19) -0.09541(9)
N5D N -0.9585(2) 0.45320(19) -0.11756(10)
N6D N -1.0202(2) 0.2811(2) -0.21035(11)
loop_
_geom_bond_atom_site_label_1
_geom_bond_atom_site_label_2
_geom_bond_site_symmetry_1
_geom_bond_site_symmetry_2
Zn1 N1 1_555 1_555
C1 C5 1_555 1_555
C2 H1 1_555 1_555
C3 C2 1_555 1_555
H2 C3 1_555 1_555
C4 C3 1_555 1_555
H3 C4 1_555 1_555
C5 N1 1_555 1_555
N1 N2 1_555 1_555
N2 N3 1_555 1_555
N3 N4 1_555 1_555
N4 C5 1_555 1_555
N5 Zn1 1_555 1_555
N6 C1 1_555 1_555
Zn1C N3D 1_555 1_555
Zn1C_2 N3 1_555 1_555
C1D C5D 1_555 1_555
C2D H1D 1_555 1_555
C3D C2D 1_555 1_555
H2D C3D 1_555 1_555
C4D C3D 1_555 1_555
H3D C4D 1_555 1_555
C5D N1D 1_555 1_555
N1D Zn1 1_555 1_555
N2D N1D 1_555 1_555
N3D N2D 1_555 1_555
N3C Zn1 1_555 1_555
N3G Zn1 1_555 1_555
N4D C5D 1_555 1_555
N5D Zn1 1_555 1_555
N6D C1D 1_555 1_555
C1 N5 1_555 1_555
C2 N6 1_555 1_555
C4 N5 1_555 1_555
C1D N5D 1_555 1_555
C2D N6D 1_555 1_555
C4D N5D 1_555 1_555
N3D N4D 1_555 1_555

#END
