
#######################################################################
#
#                 Cambridge Crystallographic Data Centre
#                                CCDC 
#
#######################################################################
#
# If this CIF has been generated from an entry in the Cambridge 
# Structural Database, then it will include bibliographic, chemical, 
# crystal, experimental, refinement or atomic coordinate data resulting 
# from the CCDC's data processing and validation procedures.
#
#######################################################################

data_DILFUA
_symmetry_cell_setting           monoclinic
_symmetry_space_group_name_H-M   'C 2/c'
_symmetry_Int_Tables_number      15
_space_group_name_Hall           '-C 2yn'
loop_
_symmetry_equiv_pos_site_id
_symmetry_equiv_pos_as_xyz
1 x,y,z
2 1/2+x,1/2+y,z
3 -x,y,1/2-z
4 1/2-x,1/2+y,1/2-z
5 -x,-y,-z
6 1/2-x,1/2-y,-z
7 x,-y,1/2+z
8 1/2+x,1/2-y,1/2+z
_cell_length_a                   25.083(9)
_cell_length_b                   12.284(4)
_cell_length_c                   21.009(7)
_cell_angle_alpha                90
_cell_angle_beta                 113.790(7)
_cell_angle_gamma                90
_cell_volume                     5923.25
loop_
_atom_site_label
_atom_site_type_symbol
_atom_site_fract_x
_atom_site_fract_y
_atom_site_fract_z
Ag1 Ag 0.264234(14) 0.11412(3) 0.115089(16)
Ag2 Ag 0.761261(15) 0.13780(3) 0.867951(17)
N1 N 0.32271(16) 0.1270(3) 0.2246(2)
N2 N 0.49505(16) 0.1637(3) 0.45649(18)
N3 N 0.52542(16) 0.1634(4) 0.52935(19)
N4 N 0.70009(16) 0.1535(3) 0.76056(19)
N5 N 0.19914(16) 0.1277(3) 0.00882(19)
N6 N 0.01700(17) 0.1235(3) -0.21380(19)
N7 N 0.81773(16) 0.1530(3) 0.97678(19)
N8 N 0.98552(16) 0.1972(3) 1.21342(18)
C1 C 0.38045(19) 0.1436(4) 0.2423(2)
H1 H 0.3938 0.1523 0.2062
C2 C 0.42060(19) 0.1483(4) 0.3104(2)
H2 H 0.4606 0.1615 0.3208
C3 C 0.40169(19) 0.1335(4) 0.3639(2)
C4 C 0.34180(19) 0.1144(4) 0.3451(2)
H3 H 0.3274 0.1026 0.3800
C5 C 0.30417(19) 0.1131(4) 0.2757(2)
H4 H 0.2638 0.1018 0.2637
C6 C 0.4412(2) 0.1367(4) 0.4377(2)
H5 H 0.4269 0.1187 0.4720
C7 C 0.58074(19) 0.1619(4) 0.5471(2)
H6 H 0.5959 0.1612 0.5124
C8 C 0.62066(18) 0.1611(4) 0.6211(2)
C9 C 0.68083(19) 0.1661(4) 0.6398(2)
H7 H 0.6955 0.1719 0.6048
C10 C 0.71890(19) 0.1625(4) 0.7088(2)
H8 H 0.7596 0.1664 0.7204
C11 C 0.64189(19) 0.1490(4) 0.7429(2)
H9 H 0.6283 0.1422 0.7789
C12 C 0.60160(19) 0.1539(4) 0.6752(2)
H10 H 0.5611 0.1525 0.6651
C13 C 0.1417(2) 0.1261(4) -0.0053(2)
H11 H 0.1302 0.1240 0.0327
C14 C 0.0987(2) 0.1274(4) -0.0716(2)
H12 H 0.0588 0.1280 -0.0790
C15 C 0.11503(19) 0.1277(4) -0.1282(2)
C16 C 0.1747(2) 0.1291(4) -0.1137(2)
H13 H 0.1873 0.1296 -0.1507
C17 C 0.2149(2) 0.1297(4) -0.0456(2)
H14 H 0.2551 0.1316 -0.0365
C18 C 0.0717(2) 0.1261(4) -0.2006(2)
H15 H 0.0842 0.1271 -0.2377
C19 C 0.87543(19) 0.1692(4) 0.9965(2)
H16 H 0.8900 0.1758 0.9614
C20 C 0.91447(19) 0.1767(4) 1.0653(2)
H17 H 0.9547 0.1892 1.0768
C21 C 0.89386(19) 0.1656(4) 1.1176(2)
C22 C 0.83412(19) 0.1478(4) 1.0970(2)
H18 H 0.8186 0.1389 1.1311
C23 C 0.7977(2) 0.1432(4) 1.0272(2)
H19 H 0.7572 0.1326 1.0142
C24 C 0.93200(19) 0.1704(4) 1.1924(2)
H20 H 0.9164 0.1531 1.2255
Ag1B Ag -0.264234(14) 0.11412(3) -0.615089(16)
Ag2B Ag -0.761261(15) 0.13780(3) -1.367951(17)
Ag2B_2 Ag 1.238739(15) 0.13780(3) 1.632049(17)
N1B N -0.32271(16) 0.1270(3) -0.7246(2)
N2B N -0.49505(16) 0.1637(3) -0.95649(18)
N3B N -0.52542(16) 0.1634(4) -1.02935(19)
N4B N -0.70009(16) 0.1535(3) -1.26056(19)
N5B N -0.19914(16) 0.1277(3) -0.50882(19)
N6B N -0.01700(17) 0.1235(3) -0.28620(19)
N7B N 1.18227(16) 0.1530(3) 1.52322(19)
N7B_2 N -0.81773(16) 0.1530(3) -1.47678(19)
N8B N 1.01448(16) 0.1972(3) 1.28658(18)
C1B C -0.38045(19) 0.1436(4) -0.7423(2)
H1B H -0.3938 0.1523 -0.7062
C2B C -0.42060(19) 0.1483(4) -0.8104(2)
H2B H -0.4606 0.1615 -0.8208
C3B C -0.40169(19) 0.1335(4) -0.8639(2)
C4B C -0.34180(19) 0.1144(4) -0.8451(2)
H3B H -0.3274 0.1026 -0.8800
C5B C -0.30417(19) 0.1131(4) -0.7757(2)
H4B H -0.2638 0.1018 -0.7637
C6B C -0.4412(2) 0.1367(4) -0.9377(2)
H5B H -0.4269 0.1187 -0.9720
C7B C -0.58074(19) 0.1619(4) -1.0471(2)
H6B H -0.5959 0.1612 -1.0124
C8B C -0.62066(18) 0.1611(4) -1.1211(2)
C9B C -0.68083(19) 0.1661(4) -1.1398(2)
H7B H -0.6955 0.1719 -1.1048
C10B C -0.71890(19) 0.1625(4) -1.2088(2)
H8B H -0.7596 0.1664 -1.2204
C11B C -0.64189(19) 0.1490(4) -1.2429(2)
H9B H -0.6283 0.1422 -1.2789
C12B C -0.60160(19) 0.1539(4) -1.1752(2)
H10B H -0.5611 0.1525 -1.1651
C13B C -0.1417(2) 0.1261(4) -0.4947(2)
H11B H -0.1302 0.1240 -0.5327
C14B C -0.0987(2) 0.1274(4) -0.4284(2)
H12B H -0.0588 0.1280 -0.4210
C15B C -0.11503(19) 0.1277(4) -0.3718(2)
C16B C -0.1747(2) 0.1291(4) -0.3863(2)
H13B H -0.1873 0.1296 -0.3493
C17B C -0.2149(2) 0.1297(4) -0.4544(2)
H14B H -0.2551 0.1316 -0.4635
C18B C -0.0717(2) 0.1261(4) -0.2994(2)
H15B H -0.0842 0.1271 -0.2623
C19B C 1.12457(19) 0.1692(4) 1.5035(2)
H16B H 1.1100 0.1758 1.5386
C20B C 1.08553(19) 0.1767(4) 1.4347(2)
H17B H 1.0453 0.1892 1.4232
C21B C 1.10614(19) 0.1656(4) 1.3824(2)
C22B C 1.16588(19) 0.1478(4) 1.4030(2)
H18B H 1.1814 0.1389 1.3689
C23B C 1.2023(2) 0.1432(4) 1.4728(2)
H19B H 1.2428 0.1326 1.4858
C24B C 1.06800(19) 0.1704(4) 1.3076(2)
H20B H 1.0836 0.1531 1.2745
S1 S 0.14174(4) -0.00296(9) 0.18189(5)
O1 O 0.17575(14) 0.0433(3) 0.14587(17)
O2 O 0.15577(14) 0.0447(3) 0.24999(17)
O3 O 0.14380(15) -0.1215(3) 0.1835(2)
C25 C 0.06786(19) 0.0330(4) 0.1304(3)
H21 H 0.0561 0.0026 0.0836
H22 H 0.0642 0.1125 0.1275
H23 H 0.0427 0.0038 0.1519
S2 S 0.63856(4) 0.00487(9) 0.93140(5)
O4 O 0.66998(14) 0.0630(3) 0.89604(16)
O5 O 0.64598(14) -0.1133(3) 0.92975(17)
O6 O 0.65091(14) 0.0461(3) 1.00060(16)
C26 C 0.56288(19) 0.0300(4) 0.8806(2)
H24 H 0.5524 0.0033 0.8331
H25 H 0.5553 0.1084 0.8794
H26 H 0.5395 -0.0080 0.9014
loop_
_geom_bond_atom_site_label_1
_geom_bond_atom_site_label_2
_geom_bond_site_symmetry_1
_geom_bond_site_symmetry_2
Ag1 N1 1_555 1_555
Ag2 N4 1_555 1_555
S1 O1 1_555 1_555
S2 O4 1_555 1_555
O2 S1 1_555 1_555
O3 S1 1_555 1_555
O5 S2 1_555 1_555
O6 S2 1_555 1_555
N1 C1 1_555 1_555
N2 N3 1_555 1_555
N3 C7 1_555 1_555
N4 C10 1_555 1_555
N5 Ag1 1_555 1_555
N6 C18 1_555 1_555
N7 Ag2 1_555 1_555
N8 C24 1_555 1_555
C1 H1 1_555 1_555
C2 C1 1_555 1_555
H2 C2 1_555 1_555
C3 C2 1_555 1_555
C4 C3 1_555 1_555
H3 C4 1_555 1_555
C5 N1 1_555 1_555
H4 C5 1_555 1_555
C6 N2 1_555 1_555
H5 C6 1_555 1_555
C7 H6 1_555 1_555
C8 C7 1_555 1_555
C9 C8 1_555 1_555
H7 C9 1_555 1_555
C10 C9 1_555 1_555
H8 C10 1_555 1_555
C11 N4 1_555 1_555
H9 C11 1_555 1_555
C12 C8 1_555 1_555
H10 C12 1_555 1_555
C13 N5 1_555 1_555
H11 C13 1_555 1_555
C14 C13 1_555 1_555
H12 C14 1_555 1_555
C15 C14 1_555 1_555
C16 C15 1_555 1_555
H13 C16 1_555 1_555
C17 N5 1_555 1_555
H14 C17 1_555 1_555
C18 C15 1_555 1_555
H15 C18 1_555 1_555
C19 N7 1_555 1_555
H16 C19 1_555 1_555
C20 C19 1_555 1_555
H17 C20 1_555 1_555
C21 C20 1_555 1_555
C22 C21 1_555 1_555
H18 C22 1_555 1_555
C23 N7 1_555 1_555
H19 C23 1_555 1_555
C24 C21 1_555 1_555
H20 C24 1_555 1_555
C25 S1 1_555 1_555
H21 C25 1_555 1_555
H22 C25 1_555 1_555
H23 C25 1_555 1_555
C26 S2 1_555 1_555
H24 C26 1_555 1_555
H25 C26 1_555 1_555
H26 C26 1_555 1_555
Ag1B N1B 1_555 1_555
Ag2B N4B 1_555 1_555
Ag2B_2 N7B 1_555 1_555
N1B C1B 1_555 1_555
N2B N3B 1_555 1_555
N3B C7B 1_555 1_555
N4B C10B 1_555 1_555
N5B Ag1B 1_555 1_555
N6B N6 1_555 1_555
N7B C19B 1_555 1_555
N7B_2 Ag2B 1_555 1_555
N8B N8 1_555 1_555
C1B H1B 1_555 1_555
C2B C1B 1_555 1_555
H2B C2B 1_555 1_555
C3B C2B 1_555 1_555
C4B C3B 1_555 1_555
H3B C4B 1_555 1_555
C5B N1B 1_555 1_555
H4B C5B 1_555 1_555
C6B N2B 1_555 1_555
H5B C6B 1_555 1_555
C7B H6B 1_555 1_555
C8B C7B 1_555 1_555
C9B C8B 1_555 1_555
H7B C9B 1_555 1_555
C10B C9B 1_555 1_555
H8B C10B 1_555 1_555
C11B N4B 1_555 1_555
H9B C11B 1_555 1_555
C12B C8B 1_555 1_555
H10B C12B 1_555 1_555
C13B N5B 1_555 1_555
H11B C13B 1_555 1_555
C14B C13B 1_555 1_555
H12B C14B 1_555 1_555
C15B C14B 1_555 1_555
C16B C15B 1_555 1_555
H13B C16B 1_555 1_555
C17B N5B 1_555 1_555
H14B C17B 1_555 1_555
C18B N6B 1_555 1_555
H15B C18B 1_555 1_555
C19B H16B 1_555 1_555
C20B C19B 1_555 1_555
H17B C20B 1_555 1_555
C21B C20B 1_555 1_555
C22B C21B 1_555 1_555
H18B C22B 1_555 1_555
C23B N7B 1_555 1_555
H19B C23B 1_555 1_555
C24B N8B 1_555 1_555
H20B C24B 1_555 1_555
C3 C6 1_555 1_555
C4 C5 1_555 1_555
C11 C12 1_555 1_555
C16 C17 1_555 1_555
C22 C23 1_555 1_555
C3B C6B 1_555 1_555
C4B C5B 1_555 1_555
C11B C12B 1_555 1_555
C15B C18B 1_555 1_555
C16B C17B 1_555 1_555
C21B C24B 1_555 1_555
C22B C23B 1_555 1_555

#END
