
#######################################################################
#
#                 Cambridge Crystallographic Data Centre
#                                CCDC 
#
#######################################################################
#
# If this CIF has been generated from an entry in the Cambridge 
# Structural Database, then it will include bibliographic, chemical, 
# crystal, experimental, refinement or atomic coordinate data resulting 
# from the CCDC's data processing and validation procedures.
#
#######################################################################

data_DILFIO
_symmetry_cell_setting           orthorhombic
_symmetry_space_group_name_H-M   'P b c n'
_symmetry_Int_Tables_number      60
_space_group_name_Hall           '-P 2n 2ab'
loop_
_symmetry_equiv_pos_site_id
_symmetry_equiv_pos_as_xyz
1 x,y,z
2 1/2-x,1/2-y,1/2+z
3 -x,y,1/2-z
4 1/2+x,1/2-y,-z
5 -x,-y,-z
6 1/2+x,1/2+y,1/2-z
7 x,-y,1/2+z
8 1/2-x,1/2+y,z
_cell_length_a                   12.983(3)
_cell_length_b                   11.448(2)
_cell_length_c                   7.6035(15)
_cell_angle_alpha                90
_cell_angle_beta                 90
_cell_angle_gamma                90
_cell_volume                     1130.1
loop_
_atom_site_label
_atom_site_type_symbol
_atom_site_fract_x
_atom_site_fract_y
_atom_site_fract_z
Zn1 Zn 0.5000 0.16347(3) 0.2500
S1 S 0.47751(3) 0.28669(5) 0.00481(7)
S2 S 0.64938(3) 0.44469(4) -0.11880(7)
S3 S 0.85977(3) 0.46238(4) -0.28194(6)
N1 N 0.66827(11) 0.23028(13) -0.1150(2)
N2 N 0.76058(11) 0.26501(13) -0.1854(2)
C1 C 0.76163(12) 0.37822(15) -0.1961(2)
C2 C 0.59931(13) 0.30944(15) -0.0721(2)
H1 H 0.6565(19) 0.1542(9) -0.109(4)
Zn1A Zn 1.0000 0.33653(3) -0.2500
Zn1A_2 Zn 0.0000 0.33653(3) 0.7500
S1B S 0.52249(3) 0.28669(5) 0.49519(7)
S2B S 0.35062(3) 0.44469(4) 0.61880(7)
S3B S 0.14023(3) 0.46238(4) 0.78194(6)
S3A S 0.64023(3) 0.03762(4) 0.21806(6)
S3C S 0.35977(3) 0.03762(4) 0.28194(6)
N1B N 0.33173(11) 0.23028(13) 0.6150(2)
N2B N 0.23942(11) 0.26501(13) 0.6854(2)
C1B C 0.23837(12) 0.37822(15) 0.6961(2)
C2B C 0.40069(13) 0.30944(15) 0.5721(2)
H1B H 0.3435(19) 0.1542(9) 0.609(4)
loop_
_geom_bond_atom_site_label_1
_geom_bond_atom_site_label_2
_geom_bond_site_symmetry_1
_geom_bond_site_symmetry_2
Zn1 S1 1_555 1_555
S1 C2 1_555 1_555
S2 C1 1_555 1_555
S3 C1 1_555 1_555
N1 N2 1_555 1_555
N2 C1 1_555 1_555
C2 S2 1_555 1_555
H1 N1 1_555 1_555
Zn1A S3 1_555 1_555
Zn1A_2 S3B 1_555 1_555
S1B Zn1 1_555 1_555
S2B C1B 1_555 1_555
S3B C1B 1_555 1_555
S3A Zn1 1_555 1_555
S3C Zn1 1_555 1_555
N1B N2B 1_555 1_555
N2B C1B 1_555 1_555
C2B S1B 1_555 1_555
H1B N1B 1_555 1_555
N1 C2 1_555 1_555
S2B C2B 1_555 1_555
N1B C2B 1_555 1_555

#END
