
#######################################################################
#
#                 Cambridge Crystallographic Data Centre
#                                CCDC 
#
#######################################################################
#
# If this CIF has been generated from an entry in the Cambridge 
# Structural Database, then it will include bibliographic, chemical, 
# crystal, experimental, refinement or atomic coordinate data resulting 
# from the CCDC's data processing and validation procedures.
#
#######################################################################

data_DILRIZ
_symmetry_cell_setting           monoclinic
_symmetry_space_group_name_H-M   'P 21/n'
_symmetry_Int_Tables_number      14
_space_group_name_Hall           '-P 2yn'
loop_
_symmetry_equiv_pos_site_id
_symmetry_equiv_pos_as_xyz
1 x,y,z
2 1/2+x,1/2-y,1/2+z
3 -x,-y,-z
4 1/2-x,1/2+y,1/2-z
_cell_length_a                   11.46560(10)
_cell_length_b                   9.96760(10)
_cell_length_c                   17.0414(3)
_cell_angle_alpha                90
_cell_angle_beta                 96.1250(10)
_cell_angle_gamma                90
_cell_volume                     1936.45
loop_
_atom_site_label
_atom_site_type_symbol
_atom_site_fract_x
_atom_site_fract_y
_atom_site_fract_z
Tl1 Tl 0.270054(16) 0.269618(17) 0.226951(10)
B1 B 0.4913(4) 0.5167(5) 0.2902(3)
N1 N 0.3924(3) 0.5335(3) 0.34628(19)
N2 N 0.2881(3) 0.4669(3) 0.3308(2)
C1 C 0.2244(4) 0.4941(4) 0.3899(3)
C2 C 0.2851(4) 0.5771(5) 0.4437(3)
H1 H 0.2590 0.6117 0.4894
C3 C 0.3922(4) 0.5990(4) 0.4168(2)
C4 C 0.1010(4) 0.4410(6) 0.3900(3)
H2 H 0.0460 0.5125 0.3776
H3 H 0.0910 0.4057 0.4413
H4 H 0.0876 0.3713 0.3513
C5 C 0.4911(4) 0.6775(5) 0.4571(3)
H5 H 0.5610 0.6239 0.4617
H6 H 0.4729 0.7028 0.5088
H7 H 0.5033 0.7567 0.4270
N3 N 0.5562(3) 0.3835(3) 0.3146(2)
N4 N 0.4878(3) 0.2697(3) 0.3134(2)
C6 C 0.5606(5) 0.1691(5) 0.3350(3)
C7 C 0.6740(4) 0.2155(5) 0.3517(3)
H8 H 0.7399 0.1648 0.3688
C8 C 0.6701(4) 0.3511(5) 0.3380(3)
C9 C 0.5149(5) 0.0275(5) 0.3388(3)
H9 H 0.5046 0.0055 0.3925
H10 H 0.5700 -0.0336 0.3196
H11 H 0.4410 0.0204 0.3068
C10 C 0.7710(4) 0.4447(6) 0.3443(3)
H12 H 0.8418 0.3962 0.3607
H13 H 0.7595 0.5131 0.3823
H14 H 0.7772 0.4854 0.2938
N5 N 0.4318(3) 0.4974(3) 0.20318(19)
N6 N 0.3380(3) 0.5799(3) 0.1762(2)
C11 C 0.3187(4) 0.5602(5) 0.0979(3)
C12 C 0.3986(5) 0.4685(5) 0.0747(3)
H15 H 0.4026 0.4374 0.0236
C13 C 0.4710(4) 0.4314(5) 0.1406(3)
C14 C 0.2233(5) 0.6345(6) 0.0494(3)
H16 H 0.1842 0.6930 0.0829
H17 H 0.1680 0.5717 0.0242
H18 H 0.2566 0.6867 0.0100
C15 C 0.5738(5) 0.3393(6) 0.1440(3)
H19 H 0.6426 0.3853 0.1671
H20 H 0.5854 0.3108 0.0916
H21 H 0.5596 0.2624 0.1755
C16 C 0.5729(4) 0.6469(5) 0.2881(3)
H22 H 0.6193 0.6569 0.3381
H23 H 0.5246 0.7249 0.2777
H24 H 0.6238 0.6368 0.2472
N6C N 0.1620(3) 0.0799(3) 0.3238(2)
Tl1C Tl 0.229946(16) 0.769618(17) 0.273049(10)
loop_
_geom_bond_atom_site_label_1
_geom_bond_atom_site_label_2
_geom_bond_site_symmetry_1
_geom_bond_site_symmetry_2
Tl1 N2 1_555 1_555
B1 N1 1_555 1_555
N1 N2 1_555 1_555
N2 C1 1_555 1_555
C1 C2 1_555 1_555
C2 H1 1_555 1_555
C3 N1 1_555 1_555
C4 C1 1_555 1_555
H2 C4 1_555 1_555
H3 C4 1_555 1_555
H4 C4 1_555 1_555
C5 C3 1_555 1_555
H5 C5 1_555 1_555
H6 C5 1_555 1_555
H7 C5 1_555 1_555
N3 B1 1_555 1_555
N4 Tl1 1_555 1_555
C6 N4 1_555 1_555
C7 C6 1_555 1_555
H8 C7 1_555 1_555
C8 N3 1_555 1_555
C9 C6 1_555 1_555
H9 C9 1_555 1_555
H10 C9 1_555 1_555
H11 C9 1_555 1_555
C10 C8 1_555 1_555
H12 C10 1_555 1_555
H13 C10 1_555 1_555
H14 C10 1_555 1_555
N5 B1 1_555 1_555
N6 N5 1_555 1_555
C11 N6 1_555 1_555
C12 C11 1_555 1_555
H15 C12 1_555 1_555
C13 N5 1_555 1_555
C14 C11 1_555 1_555
H16 C14 1_555 1_555
H17 C14 1_555 1_555
H18 C14 1_555 1_555
C15 C13 1_555 1_555
H19 C15 1_555 1_555
H20 C15 1_555 1_555
H21 C15 1_555 1_555
C16 B1 1_555 1_555
H22 C16 1_555 1_555
H23 C16 1_555 1_555
H24 C16 1_555 1_555
N6C Tl1 1_555 1_555
Tl1C N6 1_555 1_555
C2 C3 1_555 1_555
N3 N4 1_555 1_555
C7 C8 1_555 1_555
C12 C13 1_555 1_555

#END
