
#######################################################################
#
#                 Cambridge Crystallographic Data Centre
#                                CCDC 
#
#######################################################################
#
# If this CIF has been generated from an entry in the Cambridge 
# Structural Database, then it will include bibliographic, chemical, 
# crystal, experimental, refinement or atomic coordinate data resulting 
# from the CCDC's data processing and validation procedures.
#
#######################################################################

data_DILXIH
_symmetry_cell_setting           triclinic
_symmetry_space_group_name_H-M   'P -1'
_symmetry_Int_Tables_number      2
_space_group_name_Hall           '-P 1'
loop_
_symmetry_equiv_pos_site_id
_symmetry_equiv_pos_as_xyz
1 x,y,z
2 -x,-y,-z
_cell_length_a                   9.685(2)
_cell_length_b                   15.572(4)
_cell_length_c                   17.089(4)
_cell_angle_alpha                79.553(3)
_cell_angle_beta                 74.687(3)
_cell_angle_gamma                75.355(3)
_cell_volume                     2386.82
loop_
_atom_site_label
_atom_site_type_symbol
_atom_site_fract_x
_atom_site_fract_y
_atom_site_fract_z
O1 O 1.0096(9) 0.9647(5) -0.2554(5)
O2 O 1.0641(10) 1.0672(6) -0.2034(5)
C1 C 0.9984(13) 1.0036(7) -0.1964(8)
C2 C 1.4350(15) 0.6277(8) 0.2467(8)
H1 H 1.5034 0.5739 0.2494
C3 C 1.3223(13) 0.7473(9) 0.1729(8)
H2 H 1.3119 0.7796 0.1226
Cd1 Cd 0.60878(9) 0.64455(5) 0.05844(5)
Cd2 Cd 0.84427(9) 0.92402(5) 0.33797(5)
N1 N 1.0393(9) 0.8371(6) 0.4021(5)
N2 N 0.7810(10) 0.5648(6) 0.1413(5)
N3 N 0.8018(9) 0.9627(6) 0.4666(5)
N4 N 0.4277(10) 0.6768(6) -0.0980(6)
N5 N 0.5570(10) 0.5583(6) -0.1622(6)
C4 C 0.5971(11) 0.5600(7) -0.0928(6)
O3 O 0.5945(10) 0.7905(5) 0.0545(6)
N6 N 0.4969(10) 1.1442(6) 0.4339(6)
N7 N 0.5215(9) 0.6281(6) -0.0526(5)
C5 C 0.8336(11) 0.5680(7) 0.2061(6)
C6 C 0.8886(11) 0.9189(7) 0.5177(7)
N8 N 1.1074(10) 0.7948(7) 0.5217(6)
N9 N 1.2028(10) 0.7453(7) 0.4628(6)
H3 H 1.2777 0.7037 0.4697
N10 N 0.9248(10) 0.4890(6) 0.2218(6)
H4 H 0.9673 0.4750 0.2621
C7 C 0.3672(12) 0.6655(7) -0.2255(7)
C8 C 0.8676(13) 0.9433(7) 0.5965(7)
H5 H 0.9307 0.9147 0.6304
N11 N 0.6356(10) 1.0370(6) 0.3600(6)
C9 C 0.4503(12) 0.6328(7) -0.1622(7)
C10 C 1.1597(12) 0.7725(7) 0.3942(7)
C11 C 0.8312(11) 0.4545(6) 0.0451(7)
N12 N 0.7315(9) 0.5099(6) 0.0076(5)
C12 C 0.8499(11) 0.4844(7) 0.1166(7)
C13 C 1.0106(12) 0.8499(7) 0.4810(7)
N13 N 0.7842(11) 0.7961(6) 0.3209(6)
N14 N 0.9397(11) 0.4347(6) 0.1646(7)
C14 C 0.4610(12) 1.1520(8) 0.3599(7)
C15 C 1.2448(12) 0.7361(8) 0.3196(7)
C16 C 0.3455(11) 1.2226(8) 0.3312(7)
C17 C 0.6895(11) 1.0299(7) 0.4922(7)
C18 C 0.9184(12) 0.3767(8) 0.0130(8)
H6 H 0.9890 0.3390 0.0386
N15 N 0.2080(12) 0.7299(7) -0.3444(6)
C19 C 0.7482(13) 0.8866(7) -0.0278(7)
C20 C 0.8506(14) 0.7121(8) 0.3506(7)
H7 H 0.8907 0.7059 0.3956
C21 C 0.6057(12) 1.0726(7) 0.4296(7)
C22 C 0.7273(13) 0.8002(8) 0.2564(8)
H8 H 0.6800 0.8559 0.2352
C23 C 0.7347(12) 0.7283(7) 0.2203(7)
H9 H 0.6915 0.7353 0.1763
N16 N 0.5449(10) 1.0887(7) 0.3131(6)
C24 C 0.8995(13) 0.9821(7) -0.1181(7)
C25 C 0.7002(14) 0.7977(8) -0.0073(8)
C26 C 0.8479(13) 0.9024(7) -0.0998(7)
H10 H 0.8813 0.8602 -0.1366
C27 C 0.8473(14) 1.0443(8) -0.0629(8)
H11 H 0.8849 1.0955 -0.0723
C28 C 0.8073(12) 0.6430(8) 0.2489(7)
C29 C 0.6604(12) 1.0554(7) 0.5702(8)
H12 H 0.5817 1.1015 0.5875
C30 C 0.3163(14) 1.2281(8) 0.2577(8)
H13 H 0.3690 1.1860 0.2225
C31 C 0.2589(16) 0.7441(8) -0.2205(8)
H14 H 0.2376 0.7761 -0.1762
C32 C 0.8600(14) 0.6382(8) 0.3172(7)
H15 H 0.9031 0.5827 0.3409
C33 C 0.3938(14) 0.6214(8) -0.2927(8)
H16 H 0.4676 0.5700 -0.2992
C34 C 0.7129(12) 0.4920(7) -0.0621(7)
C35 C 0.1841(16) 0.7739(9) -0.2817(8)
H17 H 0.1141 0.8273 -0.2787
C36 C 0.7509(13) 1.0104(8) 0.6203(7)
H18 H 0.7321 1.0262 0.6727
N17 N 0.1330(13) 1.3604(8) 0.2826(8)
C37 C 0.1622(17) 1.3565(9) 0.3568(9)
H19 H 0.1112 1.4002 0.3907
C38 C 0.7958(12) 0.4180(8) -0.0984(7)
H20 H 0.7860 0.4078 -0.1485
C39 C 0.3108(16) 0.6536(8) -0.3507(8)
H21 H 0.3263 0.6219 -0.3946
C40 C 1.3472(15) 0.6568(8) 0.3189(8)
H22 H 1.3575 0.6220 0.3682
C41 C 1.2293(14) 0.7793(9) 0.2424(8)
H23 H 1.1555 0.8301 0.2379
C42 C 0.7380(16) 1.0299(9) 0.0072(10)
C43 C 0.2062(15) 1.2975(9) 0.2345(9)
H24 H 0.1836 1.2998 0.1845
C44 C 0.2653(14) 1.2889(10) 0.3809(9)
H25 H 0.2839 1.2862 0.4321
C45 C 0.6902(14) 0.9516(8) 0.0248(9)
H26 H 0.6190 0.9419 0.0721
O4 O 0.7228(13) 1.1767(7) 0.0340(8)
H27 H 0.6743 1.2165 0.0617
C46 C 0.8958(12) 0.3582(8) -0.0571(7)
H28 H 0.9477 0.3051 -0.0779
O5 O 0.5686(15) 1.0991(9) 0.1166(9)
C47 C 0.6726(19) 1.1046(12) 0.0611(11)
O6 O 0.7659(8) 0.7369(5) -0.0455(5)
N18 N 1.4267(10) 0.6727(6) 0.1735(6)
O1A O 0.9904(9) 1.0353(5) 0.2554(5)
O2A O 0.9359(10) 0.9328(6) 0.2034(5)
Cd1_2 Cd 1.60878(9) 0.64455(5) 0.05844(5)
Cd2A Cd 1.15573(9) 1.07598(5) -0.33797(5)
N18_2 N 0.4267(10) 0.6727(6) 0.1735(6)
O7 O 0.5135(11) 0.7164(7) 0.4693(6)
H29 H 0.5021 0.6697 0.5026
H30 H 0.5518 0.7537 0.4822
O8 O 0.617(2) 0.5320(10) 0.4988(15)
H31 H 0.7091 0.5277 0.4890
H32 H 0.5520 0.5772 0.5149
O9 O 0.910(3) 0.4648(13) 0.4987(17)
H33 H 0.9555 0.4778 0.5298
H34 H 0.8194 0.4643 0.5146
O10 O 0.540(5) 1.028(3) 0.794(2)
H35 H 0.5808 0.9734 0.7920
H36 H 0.5425 1.0216 0.7454
loop_
_geom_bond_atom_site_label_1
_geom_bond_atom_site_label_2
_geom_bond_site_symmetry_1
_geom_bond_site_symmetry_2
O1 C1 1_555 1_555
O2 C1 1_555 1_555
C1 C24 1_555 1_555
C2 H1 1_555 1_555
C3 H2 1_555 1_555
Cd1 N2 1_555 1_555
Cd2 N1 1_555 1_555
N1 C10 1_555 1_555
N2 C5 1_555 1_555
N3 Cd2 1_555 1_555
N4 N7 1_555 1_555
N5 C4 1_555 1_555
C4 N7 1_555 1_555
O3 Cd1 1_555 1_555
N6 C14 1_555 1_555
N7 Cd1 1_555 1_555
C5 N10 1_555 1_555
C6 N3 1_555 1_555
N8 N9 1_555 1_555
N9 H3 1_555 1_555
N10 H4 1_555 1_555
C7 C9 1_555 1_555
C8 C6 1_555 1_555
H5 C8 1_555 1_555
N11 Cd2 1_555 1_555
C9 N4 1_555 1_555
C10 N9 1_555 1_555
C11 N12 1_555 1_555
N12 Cd1 1_555 1_555
C12 N2 1_555 1_555
C13 N1 1_555 1_555
N13 Cd2 1_555 1_555
N14 N10 1_555 1_555
C14 C16 1_555 1_555
C15 C10 1_555 1_555
C16 C30 1_555 1_555
C17 N3 1_555 1_555
C18 C11 1_555 1_555
H6 C18 1_555 1_555
N15 C35 1_555 1_555
C19 C25 1_555 1_555
C20 N13 1_555 1_555
H7 C20 1_555 1_555
C21 N6 1_555 1_555
C22 N13 1_555 1_555
H8 C22 1_555 1_555
C23 C22 1_555 1_555
H9 C23 1_555 1_555
N16 N11 1_555 1_555
C24 C26 1_555 1_555
C25 O3 1_555 1_555
C26 C19 1_555 1_555
H10 C26 1_555 1_555
C27 C24 1_555 1_555
H11 C27 1_555 1_555
C28 C5 1_555 1_555
C29 C17 1_555 1_555
H12 C29 1_555 1_555
C30 H13 1_555 1_555
C31 C7 1_555 1_555
H14 C31 1_555 1_555
C32 C20 1_555 1_555
H15 C32 1_555 1_555
C33 C7 1_555 1_555
H16 C33 1_555 1_555
C34 C4 1_555 1_555
C35 C31 1_555 1_555
H17 C35 1_555 1_555
C36 C8 1_555 1_555
H18 C36 1_555 1_555
N17 C37 1_555 1_555
C37 H19 1_555 1_555
C38 C34 1_555 1_555
H20 C38 1_555 1_555
C39 N15 1_555 1_555
H21 C39 1_555 1_555
C40 C2 1_555 1_555
H22 C40 1_555 1_555
C41 C3 1_555 1_555
H23 C41 1_555 1_555
C42 C27 1_555 1_555
C43 C30 1_555 1_555
H24 C43 1_555 1_555
C44 C16 1_555 1_555
H25 C44 1_555 1_555
C45 C19 1_555 1_555
H26 C45 1_555 1_555
O4 H27 1_555 1_555
C46 C18 1_555 1_555
H28 C46 1_555 1_555
O5 C47 1_555 1_555
C47 C42 1_555 1_555
O6 Cd1 1_555 1_555
N18 C2 1_555 1_555
O7 H29 1_555 1_555
H30 O7 1_555 1_555
O8 H31 1_555 1_555
H32 O8 1_555 1_555
O9 H33 1_555 1_555
H34 O9 1_555 1_555
O10 H35 1_555 1_555
H36 O10 1_555 1_555
O1A Cd2 1_555 1_555
O2A Cd2 1_555 1_555
Cd1_2 N18 1_555 1_555
Cd2A O1 1_555 1_555
N18_2 Cd1 1_555 1_555
O2 Cd2A 1_555 1_555
C3 N18 1_555 1_555
N5 C9 1_555 1_555
C6 C13 1_555 1_555
N8 C13 1_555 1_555
N11 C21 1_555 1_555
C11 C12 1_555 1_555
N12 C34 1_555 1_555
C12 N14 1_555 1_555
C14 N16 1_555 1_555
C15 C40 1_555 1_555
C15 C41 1_555 1_555
C17 C21 1_555 1_555
C23 C28 1_555 1_555
C25 O6 1_555 1_555
C28 C32 1_555 1_555
C29 C36 1_555 1_555
C33 C39 1_555 1_555
N17 C43 1_555 1_555
C37 C44 1_555 1_555
C38 C46 1_555 1_555
C42 C45 1_555 1_555
O4 C47 1_555 1_555

#END
