
#######################################################################
#
#                 Cambridge Crystallographic Data Centre
#                                CCDC 
#
#######################################################################
#
# If this CIF has been generated from an entry in the Cambridge 
# Structural Database, then it will include bibliographic, chemical, 
# crystal, experimental, refinement or atomic coordinate data resulting 
# from the CCDC's data processing and validation procedures.
#
#######################################################################

data_DIMBUY
_symmetry_cell_setting           monoclinic
_symmetry_space_group_name_H-M   'P 21/c'
_symmetry_Int_Tables_number      14
_space_group_name_Hall           '-P 2ybc'
loop_
_symmetry_equiv_pos_site_id
_symmetry_equiv_pos_as_xyz
1 x,y,z
2 -x,1/2+y,1/2-z
3 -x,-y,-z
4 x,1/2-y,1/2+z
_cell_length_a                   13.3621(10)
_cell_length_b                   9.9560(7)
_cell_length_c                   10.0538(8)
_cell_angle_alpha                90
_cell_angle_beta                 97.956(4)
_cell_angle_gamma                90
_cell_volume                     1324.61
loop_
_atom_site_label
_atom_site_type_symbol
_atom_site_fract_x
_atom_site_fract_y
_atom_site_fract_z
Zn1 Zn 0.826207(16) 0.25940(2) 0.22052(2)
O1 O 0.74732(11) 0.11814(16) 0.08522(16)
H1 H 0.6916(14) 0.117(3) 0.113(2)
H2 H 0.7342(17) 0.144(2) 0.0092(16)
O2 O 0.94087(11) 0.87189(16) 0.27039(15)
O3 O 0.86955(13) 0.10961(15) 0.35553(16)
H3 H 0.8397(17) 0.101(2) 0.4194(19)
H4 H 0.8772(18) 0.0341(18) 0.326(2)
O4 O 1.04764(10) 0.72225(14) 0.37779(14)
O5 O 0.90235(10) 0.39841(15) 0.36593(15)
H5 H 0.9165(16) 0.364(2) 0.4382(16)
H6 H 0.9572(13) 0.399(2) 0.335(2)
O6 O 0.42296(11) 0.66748(17) 0.30467(15)
O7 O 0.30554(10) 0.80336(15) 0.19240(14)
O8 O 0.62875(11) 0.42475(15) -0.00051(16)
O9 O 0.79036(10) 0.42258(13) 0.09293(13)
O10 O 0.79568(10) 0.81967(15) 0.42203(14)
N1 N 0.57423(12) 0.77432(17) 0.18689(17)
C1 C 0.59188(14) 0.6611(2) 0.1228(2)
H7 H 0.5424 0.6265 0.0576
C2 C 0.68288(14) 0.59529(19) 0.15266(19)
C3 C 0.75534(15) 0.6455(2) 0.2525(2)
H8 H 0.8171 0.6020 0.2740
C4 C 0.73428(15) 0.7615(2) 0.3197(2)
C5 C 0.64305(15) 0.8267(2) 0.2835(2)
H9 H 0.6293 0.9063 0.3257
C6 C 0.70109(15) 0.46926(19) 0.0746(2)
C7 C 0.47307(14) 0.8365(2) 0.1573(2)
H10 H 0.4524 0.8374 0.0609
H11 H 0.4764 0.9287 0.1886
C8 C 0.39452(15) 0.7598(2) 0.2250(2)
C9 C 0.89326(15) 0.7607(2) 0.4607(2)
H12 H 0.8855 0.6644 0.4703
H13 H 0.9220 0.7963 0.5474
C10 C 0.96579(14) 0.7875(2) 0.35963(19)
Zn1A Zn 0.173793(16) 0.75940(2) 0.27948(2)
Zn1A_2 Zn 1.173793(16) 0.75940(2) 0.27948(2)
O4A O 0.95236(10) 0.22225(14) 0.12221(14)
O7A O 0.69446(10) 0.30336(15) 0.30760(14)
loop_
_geom_bond_atom_site_label_1
_geom_bond_atom_site_label_2
_geom_bond_site_symmetry_1
_geom_bond_site_symmetry_2
Zn1 O1 1_555 1_555
O1 H1 1_555 1_555
H2 O1 1_555 1_555
O2 C10 1_555 1_555
O3 Zn1 1_555 1_555
H3 O3 1_555 1_555
H4 O3 1_555 1_555
O4 C10 1_555 1_555
O5 Zn1 1_555 1_555
H5 O5 1_555 1_555
H6 O5 1_555 1_555
O6 C8 1_555 1_555
O7 C8 1_555 1_555
O8 C6 1_555 1_555
O9 Zn1 1_555 1_555
O10 C4 1_555 1_555
N1 C1 1_555 1_555
C1 H7 1_555 1_555
C2 C1 1_555 1_555
C3 C2 1_555 1_555
H8 C3 1_555 1_555
C4 C3 1_555 1_555
C5 N1 1_555 1_555
H9 C5 1_555 1_555
C6 O9 1_555 1_555
C7 N1 1_555 1_555
H10 C7 1_555 1_555
H11 C7 1_555 1_555
C8 C7 1_555 1_555
C9 O10 1_555 1_555
H12 C9 1_555 1_555
H13 C9 1_555 1_555
C10 C9 1_555 1_555
Zn1A O7 1_555 1_555
Zn1A_2 O4 1_555 1_555
O4A Zn1 1_555 1_555
O7A Zn1 1_555 1_555
C2 C6 1_555 1_555
C4 C5 1_555 1_555

#END
