
#######################################################################
#
#                 Cambridge Crystallographic Data Centre
#                                CCDC 
#
#######################################################################
#
# If this CIF has been generated from an entry in the Cambridge 
# Structural Database, then it will include bibliographic, chemical, 
# crystal, experimental, refinement or atomic coordinate data resulting 
# from the CCDC's data processing and validation procedures.
#
#######################################################################

data_DIMCAF
_symmetry_cell_setting           monoclinic
_symmetry_space_group_name_H-M   'P 21/c'
_symmetry_Int_Tables_number      14
_space_group_name_Hall           '-P 2ybc'
loop_
_symmetry_equiv_pos_site_id
_symmetry_equiv_pos_as_xyz
1 x,y,z
2 -x,1/2+y,1/2-z
3 -x,-y,-z
4 x,1/2-y,1/2+z
_cell_length_a                   13.5585(2)
_cell_length_b                   10.0016(2)
_cell_length_c                   10.3505(2)
_cell_angle_alpha                90
_cell_angle_beta                 98.0150(10)
_cell_angle_gamma                90
_cell_volume                     1389.89
loop_
_atom_site_label
_atom_site_type_symbol
_atom_site_fract_x
_atom_site_fract_y
_atom_site_fract_z
Cd1 Cd 0.828820(9) 0.252665(12) 0.217508(12)
O1 O 0.73638(11) 0.10288(17) 0.07548(14)
H1 H 0.6851(14) 0.109(3) 0.107(2)
H2 H 0.7240(17) 0.126(2) 0.0007(15)
O2 O 0.93993(11) 0.85628(15) 0.27919(13)
O3 O 0.87947(13) 0.09708(15) 0.36711(14)
H3 H 0.8469(16) 0.088(2) 0.4279(19)
H4 H 0.8827(18) 0.0212(19) 0.334(2)
O4 O 1.03999(9) 0.70537(15) 0.38967(12)
O5 O 0.91054(10) 0.40788(15) 0.36607(13)
H5 H 0.9264(16) 0.374(2) 0.4377(15)
H6 H 0.9635(13) 0.406(2) 0.3347(19)
O6 O 0.42430(10) 0.67433(17) 0.30587(14)
O7 O 0.31014(9) 0.80824(15) 0.19177(12)
O8 O 0.62871(11) 0.43067(15) -0.00686(14)
O9 O 0.78836(9) 0.42991(13) 0.08430(11)
O10 O 0.79095(9) 0.80935(15) 0.42034(12)
N1 N 0.57435(11) 0.77325(15) 0.18713(15)
C1 C 0.59129(13) 0.66168(18) 0.12111(17)
H7 H 0.5425 0.6290 0.0568
C2 C 0.68082(12) 0.59603(18) 0.14895(16)
C3 C 0.75200(13) 0.64206(18) 0.24893(16)
H8 H 0.8125 0.5978 0.2692
C4 C 0.73095(14) 0.75556(18) 0.31800(17)
C5 C 0.64136(13) 0.82154(19) 0.28336(17)
H9 H 0.6277 0.8993 0.3268
C6 C 0.69929(13) 0.47401(18) 0.06820(16)
C7 C 0.47540(13) 0.8366(2) 0.15831(18)
H10 H 0.4545 0.8360 0.0648
H11 H 0.4799 0.9289 0.1870
C8 C 0.39727(14) 0.76396(19) 0.22598(18)
C9 C 0.88473(14) 0.74645(19) 0.46053(18)
H12 H 0.8746 0.6508 0.4671
H13 H 0.9117 0.7790 0.5465
C10 C 0.96017(14) 0.77239(18) 0.36684(17)
Cd1A Cd 0.171180(9) 0.752665(12) 0.282492(12)
Cd1A_2 Cd 1.171180(9) 0.752665(12) 0.282492(12)
O4A O 0.96001(9) 0.20537(15) 0.11033(12)
O7A O 0.68986(9) 0.30824(15) 0.30823(12)
loop_
_geom_bond_atom_site_label_1
_geom_bond_atom_site_label_2
_geom_bond_site_symmetry_1
_geom_bond_site_symmetry_2
Cd1 O1 1_555 1_555
O1 H1 1_555 1_555
H2 O1 1_555 1_555
O2 C10 1_555 1_555
O3 Cd1 1_555 1_555
H3 O3 1_555 1_555
H4 O3 1_555 1_555
O4 C10 1_555 1_555
O5 Cd1 1_555 1_555
H5 O5 1_555 1_555
H6 O5 1_555 1_555
O6 C8 1_555 1_555
O7 C8 1_555 1_555
O8 C6 1_555 1_555
O9 Cd1 1_555 1_555
O10 C4 1_555 1_555
N1 C1 1_555 1_555
C1 H7 1_555 1_555
C2 C1 1_555 1_555
C3 C2 1_555 1_555
H8 C3 1_555 1_555
C4 C3 1_555 1_555
C5 N1 1_555 1_555
H9 C5 1_555 1_555
C6 O9 1_555 1_555
C7 N1 1_555 1_555
H10 C7 1_555 1_555
H11 C7 1_555 1_555
C8 C7 1_555 1_555
C9 O10 1_555 1_555
H12 C9 1_555 1_555
H13 C9 1_555 1_555
C10 C9 1_555 1_555
Cd1A O7 1_555 1_555
Cd1A_2 O4 1_555 1_555
O4A Cd1 1_555 1_555
O7A Cd1 1_555 1_555
C2 C6 1_555 1_555
C4 C5 1_555 1_555

#END
