
#######################################################################
#
#                 Cambridge Crystallographic Data Centre
#                                CCDC 
#
#######################################################################
#
# If this CIF has been generated from an entry in the Cambridge 
# Structural Database, then it will include bibliographic, chemical, 
# crystal, experimental, refinement or atomic coordinate data resulting 
# from the CCDC's data processing and validation procedures.
#
#######################################################################

data_DIMCIN
_symmetry_cell_setting           monoclinic
_symmetry_space_group_name_H-M   'P 21/c'
_symmetry_Int_Tables_number      14
_space_group_name_Hall           '-P 2ybc'
loop_
_symmetry_equiv_pos_site_id
_symmetry_equiv_pos_as_xyz
1 x,y,z
2 -x,1/2+y,1/2-z
3 -x,-y,-z
4 x,1/2-y,1/2+z
_cell_length_a                   13.3609(16)
_cell_length_b                   9.9274(12)
_cell_length_c                   10.0850(12)
_cell_angle_alpha                90
_cell_angle_beta                 98.028(5)
_cell_angle_gamma                90
_cell_volume                     1324.56
loop_
_atom_site_label
_atom_site_type_symbol
_atom_site_fract_x
_atom_site_fract_y
_atom_site_fract_z
Co1 Co 0.825428(13) 0.259698(18) 0.219397(17)
O1 O 0.74668(8) 0.12013(12) 0.08357(11)
H1 H 0.6921(12) 0.118(2) 0.1122(17)
H2 H 0.7331(14) 0.142(2) 0.0049(14)
O2 O 0.94054(8) 0.87103(12) 0.27124(11)
O3 O 0.86688(9) 0.10869(11) 0.35355(11)
H3 H 0.8404(14) 0.096(2) 0.4218(16)
H4 H 0.8799(14) 0.0345(16) 0.3236(18)
O4 O 1.04764(7) 0.72179(11) 0.37973(10)
O5 O 0.90273(7) 0.39637(11) 0.36395(10)
H5 H 0.9156(13) 0.3621(18) 0.4361(14)
H6 H 0.9570(11) 0.3980(19) 0.3342(16)
O6 O 0.42309(8) 0.66794(13) 0.30518(11)
O7 O 0.30586(7) 0.80395(11) 0.19253(10)
O8 O 0.62818(8) 0.42527(12) -0.00115(12)
O9 O 0.78984(7) 0.42213(10) 0.09268(9)
O10 O 0.79568(7) 0.81905(11) 0.42299(10)
N1 N 0.57460(8) 0.77484(12) 0.18760(12)
C1 C 0.59183(10) 0.66127(14) 0.12293(13)
H7 H 0.5423 0.6268 0.0578
C2 C 0.68301(10) 0.59554(14) 0.15300(13)
C3 C 0.75559(10) 0.64495(14) 0.25311(13)
H8 H 0.8172 0.6009 0.2746
C4 C 0.73459(10) 0.76118(14) 0.32046(14)
C5 C 0.64300(10) 0.82691(15) 0.28403(14)
H9 H 0.6292 0.9067 0.3263
C6 C 0.70026(10) 0.46950(14) 0.07426(13)
C7 C 0.47338(10) 0.83681(15) 0.15750(15)
H10 H 0.4527 0.8371 0.0614
H11 H 0.4766 0.9295 0.1881
C8 C 0.39474(10) 0.75984(14) 0.22570(14)
C9 C 0.89316(10) 0.75948(15) 0.46185(14)
H12 H 0.8853 0.6629 0.4709
H13 H 0.9219 0.7948 0.5485
C10 C 0.96598(10) 0.78699(15) 0.36101(13)
Co1A Co 0.174572(13) 0.759698(18) 0.280603(17)
Co1A_2 Co 1.174572(13) 0.759698(18) 0.280603(17)
O4A O 0.95236(7) 0.22179(11) 0.12027(10)
O7A O 0.69414(7) 0.30395(11) 0.30747(10)
loop_
_geom_bond_atom_site_label_1
_geom_bond_atom_site_label_2
_geom_bond_site_symmetry_1
_geom_bond_site_symmetry_2
Co1 O1 1_555 1_555
O1 H1 1_555 1_555
H2 O1 1_555 1_555
O2 C10 1_555 1_555
O3 Co1 1_555 1_555
H3 O3 1_555 1_555
H4 O3 1_555 1_555
O4 C10 1_555 1_555
O5 Co1 1_555 1_555
H5 O5 1_555 1_555
H6 O5 1_555 1_555
O6 C8 1_555 1_555
O7 C8 1_555 1_555
O8 C6 1_555 1_555
O9 Co1 1_555 1_555
O10 C4 1_555 1_555
N1 C1 1_555 1_555
C1 H7 1_555 1_555
C2 C1 1_555 1_555
C3 C2 1_555 1_555
H8 C3 1_555 1_555
C4 C3 1_555 1_555
C5 N1 1_555 1_555
H9 C5 1_555 1_555
C6 O9 1_555 1_555
C7 N1 1_555 1_555
H10 C7 1_555 1_555
H11 C7 1_555 1_555
C8 C7 1_555 1_555
C9 O10 1_555 1_555
H12 C9 1_555 1_555
H13 C9 1_555 1_555
C10 C9 1_555 1_555
Co1A O7 1_555 1_555
Co1A_2 O4 1_555 1_555
O4A Co1 1_555 1_555
O7A Co1 1_555 1_555
C2 C6 1_555 1_555
C4 C5 1_555 1_555

#END
