
#######################################################################
#
#                 Cambridge Crystallographic Data Centre
#                                CCDC 
#
#######################################################################
#
# If this CIF has been generated from an entry in the Cambridge 
# Structural Database, then it will include bibliographic, chemical, 
# crystal, experimental, refinement or atomic coordinate data resulting 
# from the CCDC's data processing and validation procedures.
#
#######################################################################

data_DIMCEJ
_symmetry_cell_setting           monoclinic
_symmetry_space_group_name_H-M   'P 21/c'
_symmetry_Int_Tables_number      14
_space_group_name_Hall           '-P 2ybc'
loop_
_symmetry_equiv_pos_site_id
_symmetry_equiv_pos_as_xyz
1 x,y,z
2 -x,1/2+y,1/2-z
3 -x,-y,-z
4 x,1/2-y,1/2+z
_cell_length_a                   13.5001(2)
_cell_length_b                   9.98670(10)
_cell_length_c                   10.2485(2)
_cell_angle_alpha                90
_cell_angle_beta                 97.7300(10)
_cell_angle_gamma                90
_cell_volume                     1369.16
loop_
_atom_site_label
_atom_site_type_symbol
_atom_site_fract_x
_atom_site_fract_y
_atom_site_fract_z
Mn1 Mn 0.825612(19) 0.25578(3) 0.21340(3)
O1 O 0.74109(11) 0.11267(16) 0.07284(15)
H1 H 0.6892(15) 0.112(3) 0.106(2)
H2 H 0.7246(18) 0.138(3) -0.0045(16)
O2 O 0.93800(11) 0.85989(16) 0.27533(14)
O3 O 0.86657(14) 0.09981(15) 0.35283(16)
H3 H 0.8358(19) 0.089(3) 0.417(2)
H4 H 0.882(2) 0.025(2) 0.328(2)
O4 O 1.04418(9) 0.71537(14) 0.38618(13)
O5 O 0.90678(10) 0.39718(15) 0.36204(14)
H5 H 0.9201(17) 0.361(2) 0.4333(17)
H6 H 0.9607(14) 0.399(3) 0.333(2)
O6 O 0.42503(11) 0.66844(17) 0.30986(15)
O7 O 0.30908(9) 0.80257(15) 0.19825(13)
O8 O 0.62856(11) 0.43000(16) -0.00733(16)
O9 O 0.78788(9) 0.42460(13) 0.08652(12)
O10 O 0.79223(9) 0.80939(15) 0.42248(13)
N1 N 0.57431(11) 0.77130(16) 0.18929(16)
C1 C 0.59144(13) 0.66038(18) 0.12287(18)
H7 H 0.5426 0.6277 0.0580
C2 C 0.68162(12) 0.59432(17) 0.15048(17)
C3 C 0.75325(13) 0.64112(18) 0.25033(17)
H8 H 0.8142 0.5973 0.2700
C4 C 0.73216(13) 0.75445(18) 0.32017(19)
C5 C 0.64167(13) 0.8205(2) 0.28580(18)
H9 H 0.6278 0.8985 0.3295
C6 C 0.69945(13) 0.47176(18) 0.06861(17)
C7 C 0.47468(12) 0.8341(2) 0.16137(19)
H10 H 0.4535 0.8342 0.0671
H11 H 0.4787 0.9264 0.1912
C8 C 0.39719(14) 0.75878(19) 0.23058(18)
C9 C 0.88772(14) 0.7488(2) 0.46017(19)
H12 H 0.8791 0.6527 0.4663
H13 H 0.9150 0.7812 0.5468
C10 C 0.96222(13) 0.77761(19) 0.36461(17)
Mn1A Mn 0.174388(19) 0.75578(3) 0.28660(3)
Mn1A_2 Mn 1.174388(19) 0.75578(3) 0.28660(3)
O4A O 0.95582(9) 0.21537(14) 0.11382(13)
O7A O 0.69092(9) 0.30257(15) 0.30175(13)
loop_
_geom_bond_atom_site_label_1
_geom_bond_atom_site_label_2
_geom_bond_site_symmetry_1
_geom_bond_site_symmetry_2
Mn1 O1 1_555 1_555
O1 H1 1_555 1_555
H2 O1 1_555 1_555
O2 C10 1_555 1_555
O3 Mn1 1_555 1_555
H3 O3 1_555 1_555
H4 O3 1_555 1_555
O4 C10 1_555 1_555
O5 Mn1 1_555 1_555
H5 O5 1_555 1_555
H6 O5 1_555 1_555
O6 C8 1_555 1_555
O7 C8 1_555 1_555
O8 C6 1_555 1_555
O9 Mn1 1_555 1_555
O10 C4 1_555 1_555
N1 C1 1_555 1_555
C1 H7 1_555 1_555
C2 C1 1_555 1_555
C3 C2 1_555 1_555
H8 C3 1_555 1_555
C4 C3 1_555 1_555
C5 N1 1_555 1_555
H9 C5 1_555 1_555
C6 O9 1_555 1_555
C7 N1 1_555 1_555
H10 C7 1_555 1_555
H11 C7 1_555 1_555
C8 C7 1_555 1_555
C9 O10 1_555 1_555
H12 C9 1_555 1_555
H13 C9 1_555 1_555
C10 C9 1_555 1_555
Mn1A O7 1_555 1_555
Mn1A_2 O4 1_555 1_555
O4A Mn1 1_555 1_555
O7A Mn1 1_555 1_555
C2 C6 1_555 1_555
C4 C5 1_555 1_555

#END
