
#######################################################################
#
#                 Cambridge Crystallographic Data Centre
#                                CCDC 
#
#######################################################################
#
# If this CIF has been generated from an entry in the Cambridge 
# Structural Database, then it will include bibliographic, chemical, 
# crystal, experimental, refinement or atomic coordinate data resulting 
# from the CCDC's data processing and validation procedures.
#
#######################################################################

data_DIMJUG
_symmetry_cell_setting           monoclinic
_symmetry_space_group_name_H-M   'C 2/c'
_symmetry_Int_Tables_number      15
_space_group_name_Hall           '-C 2yn'
loop_
_symmetry_equiv_pos_site_id
_symmetry_equiv_pos_as_xyz
1 x,y,z
2 -x,y,1/2-z
3 1/2+x,1/2+y,z
4 1/2-x,1/2+y,1/2-z
5 -x,-y,-z
6 x,-y,1/2+z
7 1/2-x,1/2-y,-z
8 1/2+x,1/2-y,1/2+z
_cell_length_a                   24.368(17)
_cell_length_b                   9.214(6)
_cell_length_c                   19.198(13)
_cell_angle_alpha                90
_cell_angle_beta                 114.289(7)
_cell_angle_gamma                90
_cell_volume                     3928.91
loop_
_atom_site_label
_atom_site_type_symbol
_atom_site_fract_x
_atom_site_fract_y
_atom_site_fract_z
Tb1 Tb 0.041452(7) 0.195762(19) -0.006313(10)
Zn1 Zn 0.211687(18) 0.01431(5) 0.33443(2)
O1 O 0.12096(11) 0.0460(3) 0.23754(16)
O2 O 0.07759(11) 0.1354(3) 0.12105(15)
O3 O 0.10981(11) 0.3766(3) 0.05221(16)
O4 O 0.19692(11) 0.4854(3) 0.07486(15)
O5 O 0.16358(13) -0.1319(3) 0.37867(17)
O6 O 0.11348(13) -0.1479(3) 0.45187(19)
O7 O 0.04787(10) 0.0667(3) 0.49520(15)
O8 O 0.04316(11) 0.3029(3) 0.48367(17)
O9 O 0.01845(13) 0.4164(3) -0.08197(16)
H1 H 0.0391 0.5037 -0.0453
H2 H -0.0146 0.4436 -0.1211
O10 O -0.02040(13) 0.1319(3) -0.13342(17)
H3 H -0.0229 0.1634 -0.1698
H4 H -0.0389 0.0402 -0.1434
N1 N 0.22766(13) 0.1696(3) 0.26680(18)
N2 N 0.25678(13) 0.3378(3) 0.20497(18)
N3 N 0.18435(13) 0.1517(4) 0.40364(18)
N4 N 0.14426(15) 0.3163(4) 0.4511(2)
H5 H 0.1364 0.3994 0.4653
C1 C 0.17920(16) 0.2032(4) 0.2001(2)
C2 C 0.19681(15) 0.3075(4) 0.1619(2)
C3 C 0.27332(15) 0.2522(5) 0.2666(2)
C4 C 0.12226(15) 0.1251(4) 0.1853(2)
C5 C 0.16556(16) 0.3930(4) 0.0910(2)
C6 C 0.33537(19) 0.2507(6) 0.3282(3)
H6 H 0.3640 0.2566 0.3058
H7 H 0.3416 0.1624 0.3570
H8 H 0.3405 0.3322 0.3615
C7 C 0.14434(15) 0.0845(4) 0.4277(2)
C8 C 0.11849(16) 0.1861(4) 0.4568(2)
C9 C 0.18376(17) 0.2920(4) 0.4197(2)
C10 C 0.13942(15) -0.0766(4) 0.4185(2)
C11 C 0.06749(15) 0.1842(4) 0.4799(2)
C12 C 0.2198(2) 0.4086(5) 0.4041(3)
H9 H 0.2576 0.3693 0.4085
H10 H 0.2270 0.4857 0.4404
H11 H 0.1981 0.4456 0.3534
Tb1A Tb -0.041452(7) 0.195762(19) 0.506313(10)
Tb1E Tb 0.041452(7) -0.195762(19) 0.493687(10)
Zn1C Zn 0.288313(18) 0.51431(5) 0.16557(2)
O4C O 0.30308(11) -0.0146(3) 0.42514(15)
O6E O 0.11348(13) 0.1479(3) -0.04813(19)
O7A O -0.04787(10) 0.0667(3) 0.00480(15)
O7E O 0.04787(10) -0.0667(3) -0.00480(15)
O8A O -0.04316(11) 0.3029(3) 0.01633(17)
N2C N 0.24322(13) -0.1622(3) 0.29503(18)
O11 O 0.0000 0.1958(17) 0.2500
H12 H 0.0149 0.1425 0.2266
H12A H -0.0149 0.1425 0.2734
O12 O 0.9329(3) 0.4491(6) 0.2943(4)
H13 H 0.9303 0.3700 0.3155
H14 H 0.9666 0.4608 0.2903
loop_
_geom_bond_atom_site_label_1
_geom_bond_atom_site_label_2
_geom_bond_site_symmetry_1
_geom_bond_site_symmetry_2
Tb1 O2 1_555 1_555
Zn1 O1 1_555 1_555
O1 C4 1_555 1_555
O2 C4 1_555 1_555
O3 Tb1 1_555 1_555
O4 C5 1_555 1_555
O5 Zn1 1_555 1_555
O6 C10 1_555 1_555
O7 C11 1_555 1_555
O8 C11 1_555 1_555
O9 Tb1 1_555 1_555
H1 O9 1_555 1_555
H2 O9 1_555 1_555
O10 Tb1 1_555 1_555
H3 O10 1_555 1_555
H4 O10 1_555 1_555
N1 Zn1 1_555 1_555
N2 C2 1_555 1_555
N3 Zn1 1_555 1_555
N4 H5 1_555 1_555
C1 N1 1_555 1_555
C2 C1 1_555 1_555
C3 N1 1_555 1_555
C4 C1 1_555 1_555
C5 O3 1_555 1_555
C6 C3 1_555 1_555
H6 C6 1_555 1_555
H7 C6 1_555 1_555
H8 C6 1_555 1_555
C7 N3 1_555 1_555
C8 N4 1_555 1_555
C9 N3 1_555 1_555
C10 O5 1_555 1_555
C11 C8 1_555 1_555
C12 C9 1_555 1_555
H9 C12 1_555 1_555
H10 C12 1_555 1_555
H11 C12 1_555 1_555
O11 H12 1_555 1_555
O12 H13 1_555 1_555
H14 O12 1_555 1_555
Tb1A O7 1_555 1_555
Tb1E O6 1_555 1_555
Zn1C O4 1_555 1_555
O4C Zn1 1_555 1_555
O6E Tb1 1_555 1_555
O7A Tb1 1_555 1_555
O7E Tb1 1_555 1_555
O8A Tb1 1_555 1_555
N2C Zn1 1_555 1_555
H12A O11 1_555 1_555
O7 Tb1E 1_555 1_555
O8 Tb1A 1_555 1_555
N2 C3 1_555 1_555
N2 Zn1C 1_555 1_555
N4 C9 1_555 1_555
C2 C5 1_555 1_555
C7 C8 1_555 1_555
C7 C10 1_555 1_555

#END
