
#######################################################################
#
#                 Cambridge Crystallographic Data Centre
#                                CCDC 
#
#######################################################################
#
# If this CIF has been generated from an entry in the Cambridge 
# Structural Database, then it will include bibliographic, chemical, 
# crystal, experimental, refinement or atomic coordinate data resulting 
# from the CCDC's data processing and validation procedures.
#
#######################################################################

data_DIMKER
_symmetry_cell_setting           monoclinic
_symmetry_space_group_name_H-M   'C 2/c'
_symmetry_Int_Tables_number      15
_space_group_name_Hall           '-C 2yn'
loop_
_symmetry_equiv_pos_site_id
_symmetry_equiv_pos_as_xyz
1 x,y,z
2 -x,y,1/2-z
3 1/2+x,1/2+y,z
4 1/2-x,1/2+y,1/2-z
5 -x,-y,-z
6 x,-y,1/2+z
7 1/2-x,1/2-y,-z
8 1/2+x,1/2-y,1/2+z
_cell_length_a                   24.399(5)
_cell_length_b                   9.2236(19)
_cell_length_c                   19.186(4)
_cell_angle_alpha                90
_cell_angle_beta                 114.052(2)
_cell_angle_gamma                90
_cell_volume                     3942.86
loop_
_atom_site_label
_atom_site_type_symbol
_atom_site_fract_x
_atom_site_fract_y
_atom_site_fract_z
O1 O 0.8025(2) 0.9857(5) 0.9250(3)
C1 C 0.8338(3) 0.8936(7) 0.9083(3)
O2 O 0.95197(18) 0.5664(4) 0.5051(3)
O3 O 0.9559(2) 0.8025(5) 0.5154(3)
C2 C 0.9326(3) 0.6843(7) 0.5201(3)
Gd1 Gd 0.958888(12) 0.69634(3) 1.006922(17)
Zn1 Zn 0.78832(3) 0.51475(7) 0.66610(4)
O4 O 0.8876(2) 0.3521(5) 0.5506(3)
O5 O 0.8891(2) 0.8760(5) 0.9480(3)
O6 O 0.8367(2) 0.3685(5) 0.6221(3)
O7 O 0.9219(2) 0.6375(5) 0.8790(3)
O8 O 0.9826(2) 0.9185(5) 1.0829(3)
H1 H 0.9652 0.9904 1.0544
H2 H 0.9703 0.9108 1.1185
O9 O 1.0218(2) 0.6344(6) 1.1356(3)
H3 H 1.0003 0.6220 1.1605
H4 H 1.0406 0.5564 1.1360
O10 O 0.8786(2) 0.5450(5) 0.7627(3)
N1 N 0.7438(2) 0.8393(6) 0.7954(3)
N2 N 0.8555(2) 0.8167(6) 0.5485(3)
C3 C 0.8551(3) 0.5850(7) 0.5730(4)
N3 N 0.8159(2) 0.6520(6) 0.5971(3)
C4 C 0.8164(3) 0.7905(7) 0.5803(4)
N4 N 0.7723(2) 0.6703(5) 0.7340(3)
C5 C 0.8608(3) 0.4230(6) 0.5830(4)
C6 C 0.8773(3) 0.6252(6) 0.8151(4)
C7 C 0.8811(3) 0.6870(7) 0.5417(4)
C8 C 0.7803(4) 0.9081(8) 0.5950(5)
H5 H 0.7985 0.9352 0.6479
H6 H 0.7403 0.8739 0.5827
H7 H 0.7789 0.9908 0.5640
C9 C 0.8029(3) 0.8088(7) 0.8380(3)
C10 C 0.8205(3) 0.7041(6) 0.7994(3)
C11 C 0.7269(3) 0.7531(7) 0.7333(4)
C12 C 0.6657(3) 0.7509(10) 0.6723(5)
H8 H 0.6376 0.7258 0.6936
H9 H 0.6637 0.6805 0.6344
H10 H 0.6561 0.8450 0.6491
O1C O 0.6975(2) 0.4857(5) 0.5750(3)
O2A O 1.04803(18) 0.5664(4) 0.9949(3)
O2E O 0.95197(18) 0.4336(4) 1.0051(3)
O3A O 1.0441(2) 0.8025(5) 0.9846(3)
Gd1A Gd 1.041112(12) 0.69634(3) 0.493078(17)
Gd1E Gd 0.958888(12) 0.30366(3) 0.506922(17)
Zn1C Zn 0.71168(3) 1.01475(7) 0.83390(4)
O4E O 0.8876(2) 0.6479(5) 1.0506(3)
N1C N 0.7562(2) 0.3393(6) 0.7046(3)
loop_
_geom_bond_atom_site_label_1
_geom_bond_atom_site_label_2
_geom_bond_site_symmetry_1
_geom_bond_site_symmetry_2
O1 C1 1_555 1_555
C1 O5 1_555 1_555
O2 C2 1_555 1_555
O3 C2 1_555 1_555
C2 C7 1_555 1_555
Gd1 O5 1_555 1_555
Zn1 O6 1_555 1_555
O4 C5 1_555 1_555
O6 C5 1_555 1_555
O7 Gd1 1_555 1_555
O8 Gd1 1_555 1_555
H1 O8 1_555 1_555
H2 O8 1_555 1_555
O9 Gd1 1_555 1_555
H3 O9 1_555 1_555
H4 O9 1_555 1_555
O10 Zn1 1_555 1_555
N1 C9 1_555 1_555
N2 C4 1_555 1_555
C3 N3 1_555 1_555
N3 Zn1 1_555 1_555
C4 N3 1_555 1_555
N4 Zn1 1_555 1_555
C5 C3 1_555 1_555
C6 O7 1_555 1_555
C7 N2 1_555 1_555
C8 C4 1_555 1_555
H5 C8 1_555 1_555
H6 C8 1_555 1_555
H7 C8 1_555 1_555
C9 C1 1_555 1_555
C10 N4 1_555 1_555
C11 N1 1_555 1_555
C12 C11 1_555 1_555
H8 C12 1_555 1_555
H9 C12 1_555 1_555
H10 C12 1_555 1_555
O1C Zn1 1_555 1_555
O2A Gd1 1_555 1_555
O2E Gd1 1_555 1_555
O3A Gd1 1_555 1_555
Gd1A O2 1_555 1_555
Gd1E O2 1_555 1_555
Zn1C O1 1_555 1_555
O4E Gd1 1_555 1_555
N1C Zn1 1_555 1_555
O3 Gd1A 1_555 1_555
O4 Gd1E 1_555 1_555
O10 C6 1_555 1_555
N1 Zn1C 1_555 1_555
C3 C7 1_555 1_555
N4 C11 1_555 1_555
C6 C10 1_555 1_555
C9 C10 1_555 1_555

#END
