
#######################################################################
#
#                 Cambridge Crystallographic Data Centre
#                                CCDC 
#
#######################################################################
#
# If this CIF has been generated from an entry in the Cambridge 
# Structural Database, then it will include bibliographic, chemical, 
# crystal, experimental, refinement or atomic coordinate data resulting 
# from the CCDC's data processing and validation procedures.
#
#######################################################################

data_DIMLEQ10
_symmetry_cell_setting           monoclinic
_symmetry_space_group_name_H-M   'P 21/c'
_symmetry_Int_Tables_number      14
_space_group_name_Hall           '-P 2ybc'
loop_
_symmetry_equiv_pos_site_id
_symmetry_equiv_pos_as_xyz
1 x,y,z
2 -x,1/2+y,1/2-z
3 -x,-y,-z
4 x,1/2-y,1/2+z
_cell_length_a                   16.245(6)
_cell_length_b                   15.731(8)
_cell_length_c                   6.698(2)
_cell_angle_alpha                90
_cell_angle_beta                 99.19(3)
_cell_angle_gamma                90
_cell_volume                     1689.7
loop_
_atom_site_label
_atom_site_type_symbol
_atom_site_fract_x
_atom_site_fract_y
_atom_site_fract_z
P1 P 0.1560(3) 0.5758(4) 0.5467(9)
F1 F 0.131(1) 0.665(1) 0.520(3)
F2 F 0.2212(8) 0.592(1) 0.735(2)
F3 F 0.0929(9) 0.559(1) 0.350(3)
F4 F 0.0921(8) 0.567(1) 0.697(3)
F5 F 0.171(1) 0.482(1) 0.567(4)
F6 F 0.2249(7) 0.586(1) 0.415(2)
O1 O 0.320(1) 0.668(1) 0.114(3)
Cu1 Cu 0.32425(9) 0.3147(1) 0.1474(3)
Cl1 Cl 0.3575(2) 0.1833(2) 0.2492(6)
N1 N 0.2009(6) 0.2977(7) 0.069(2)
N2 N 0.2906(6) 0.4331(6) 0.118(2)
N3 N 0.4324(6) 0.3726(6) 0.229(2)
N4 N 0.3512(7) 0.4909(7) 0.150(2)
C1 C 0.1589(8) 0.2259(8) 0.045(2)
C2 C 0.0733(8) 0.2227(9) -0.009(2)
C3 C 0.0332(9) 0.298(1) -0.048(3)
C4 C 0.073(1) 0.375(1) -0.022(3)
C5 C 0.1594(8) 0.3715(9) 0.034(2)
C6 C 0.2141(9) 0.4459(9) 0.066(2)
C7 C 0.4306(8) 0.4577(8) 0.211(2)
C8 C 0.4998(9) 0.5075(9) 0.250(2)
C9 C 0.5745(8) 0.472(1) 0.306(2)
C10 C 0.5775(7) 0.3848(9) 0.331(3)
C11 C 0.5070(8) 0.3382(9) 0.293(3)
H1 H 0.190 0.174 0.067
H2 H 0.046 0.170 -0.015
H3 H -0.027 0.294 -0.101
H4 H 0.045 0.427 -0.036
H5 H 0.190 0.502 0.053
H6 H 0.342 0.549 0.133
H7 H 0.493 0.567 0.229
H8 H 0.623 0.505 0.326
H9 H 0.631 0.357 0.379
H10 H 0.511 0.279 0.306
Cl1C Cl 0.3575(2) 0.3167(2) -0.2508(6)
Cu1C Cu 0.32425(9) 0.1853(1) 0.6474(3)
Cu1C_2 Cu 0.32425(9) 0.1853(1) -0.3526(3)
Cl1C_2 Cl 0.3575(2) 0.3167(2) 0.7492(6)
N1C N 0.2009(6) 0.2023(7) 0.569(2)
N2C N 0.2906(6) 0.0669(6) 0.618(2)
N3C N 0.4324(6) 0.1274(6) 0.729(2)
C1C C 0.1589(8) 0.2741(8) 0.545(2)
C5C C 0.1594(8) 0.1285(9) 0.534(2)
N4C N 0.3512(7) 0.0091(7) 0.650(2)
C6C C 0.2141(9) 0.0541(9) 0.566(2)
C7C C 0.4306(8) 0.0423(8) 0.711(2)
C11C C 0.5070(8) 0.1618(9) 0.793(3)
C2C C 0.0733(8) 0.2773(9) 0.491(2)
H1C H 0.190 0.326 0.567
C4C C 0.073(1) 0.125(1) 0.478(3)
H6C H 0.342 -0.049 0.633
H5C H 0.190 -0.002 0.553
C8C C 0.4998(9) -0.0075(9) 0.750(2)
C10C C 0.5775(7) 0.1152(9) 0.831(3)
H10C H 0.511 0.221 0.806
C3C C 0.0332(9) 0.202(1) 0.452(3)
H2C H 0.046 0.330 0.485
H4C H 0.045 0.073 0.464
C9C C 0.5745(8) 0.028(1) 0.806(2)
H7C H 0.493 -0.067 0.729
H9C H 0.631 0.143 0.879
H3C H -0.027 0.206 0.399
H8C H 0.623 -0.005 0.826
O2? O 0.252(3) 0.750(3) 0.337(8)
loop_
_geom_bond_atom_site_label_1
_geom_bond_atom_site_label_2
_geom_bond_site_symmetry_1
_geom_bond_site_symmetry_2
Cu1 Cl1 1_555 1_555
Cl1 Cu1C 1_555 1_555
P1 F1 1_555 1_555
F2 P1 1_555 1_555
F3 P1 1_555 1_555
F4 P1 1_555 1_555
F5 P1 1_555 1_555
F6 P1 1_555 1_555
N1 Cu1 1_555 1_555
N2 Cu1 1_555 1_555
N3 Cu1 1_555 1_555
N4 N2 1_555 1_555
C1 N1 1_555 1_555
C2 C1 1_555 1_555
C3 C2 1_555 1_555
C4 C3 1_555 1_555
C5 N1 1_555 1_555
C6 N2 1_555 1_555
C7 N3 1_555 1_555
C8 C7 1_555 1_555
C9 C8 1_555 1_555
C10 C9 1_555 1_555
C11 N3 1_555 1_555
H1 C1 1_555 1_555
H2 C2 1_555 1_555
H3 C3 1_555 1_555
H4 C4 1_555 1_555
H5 C6 1_555 1_555
H6 N4 1_555 1_555
H7 C8 1_555 1_555
H8 C9 1_555 1_555
H9 C10 1_555 1_555
H10 C11 1_555 1_555
Cl1C Cu1 1_555 1_555
Cu1C Cl1C_2 1_555 1_555
Cu1C_2 Cl1C 1_555 1_555
N1C Cu1C 1_555 1_555
N2C Cu1C 1_555 1_555
N3C Cu1C 1_555 1_555
C1C N1C 1_555 1_555
C5C N1C 1_555 1_555
N4C N2C 1_555 1_555
C6C N2C 1_555 1_555
C7C N3C 1_555 1_555
C11C N3C 1_555 1_555
C2C C1C 1_555 1_555
H1C C1C 1_555 1_555
C4C C5C 1_555 1_555
H6C N4C 1_555 1_555
H5C C6C 1_555 1_555
C8C C7C 1_555 1_555
C10C C11C 1_555 1_555
H10C C11C 1_555 1_555
C3C C2C 1_555 1_555
H2C C2C 1_555 1_555
H4C C4C 1_555 1_555
C9C C8C 1_555 1_555
H7C C8C 1_555 1_555
H9C C10C 1_555 1_555
H3C C3C 1_555 1_555
H8C C9C 1_555 1_555
N4 C7 1_555 1_555
C4 C5 1_555 1_555
C5 C6 1_555 1_555
C10 C11 1_555 1_555
C5C C6C 1_555 1_555
N4C C7C 1_555 1_555
C4C C3C 1_555 1_555
C10C C9C 1_555 1_555

#END
