
#######################################################################
#
#                 Cambridge Crystallographic Data Centre
#                                CCDC 
#
#######################################################################
#
# If this CIF has been generated from an entry in the Cambridge 
# Structural Database, then it will include bibliographic, chemical, 
# crystal, experimental, refinement or atomic coordinate data resulting 
# from the CCDC's data processing and validation procedures.
#
#######################################################################

data_DIMPUM
_symmetry_cell_setting           monoclinic
_symmetry_space_group_name_H-M   'C 2/c'
_symmetry_Int_Tables_number      15
_space_group_name_Hall           '-C 2yn'
loop_
_symmetry_equiv_pos_site_id
_symmetry_equiv_pos_as_xyz
1 x,y,z
2 -x,y,1/2-z
3 1/2+x,1/2+y,z
4 1/2-x,1/2+y,1/2-z
5 -x,-y,-z
6 x,-y,1/2+z
7 1/2-x,1/2-y,-z
8 1/2+x,1/2-y,1/2+z
_cell_length_a                   10.010(4)
_cell_length_b                   24.790(9)
_cell_length_c                   9.343(3)
_cell_angle_alpha                90
_cell_angle_beta                 113.657(7)
_cell_angle_gamma                90
_cell_volume                     2123.61
loop_
_atom_site_label
_atom_site_type_symbol
_atom_site_fract_x
_atom_site_fract_y
_atom_site_fract_z
Cu1 Cu 0.0000 0.43985(5) 0.2500
S1 S -0.4014(3) 0.26101(9) -0.2555(3)
N1 N -0.1224(7) 0.3836(2) 0.0995(7)
O1 O -0.1162(6) 0.4963(2) 0.0991(6)
O2 O -0.1366(6) 0.5462(2) -0.1079(6)
C1 C -0.0696(9) 0.3518(3) 0.0200(9)
H1 H 0.0286 0.3546 0.0385
C2 C -0.1550(10) 0.3146(3) -0.0895(10)
H2 H -0.1147 0.2931 -0.1436
C3 C -0.3004(9) 0.3099(3) -0.1167(8)
C4 C -0.3555(9) 0.3425(4) -0.0374(10)
H3 H -0.4535 0.3406 -0.0546
C5 C -0.2633(10) 0.3786(4) 0.0696(10)
H4 H -0.3022 0.4006 0.1238
C6 C -0.0719(9) 0.5127(3) -0.0033(9)
S1A S -0.5986(3) 0.26101(9) -0.2445(3)
N1A N -0.8776(7) 0.3836(2) -0.5995(7)
C1A C -0.9304(9) 0.3518(3) -0.5200(9)
H1A H -1.0286 0.3546 -0.5385
C2A C -0.8450(10) 0.3146(3) -0.4105(10)
H2A H -0.8853 0.2931 -0.3564
C3A C -0.6996(9) 0.3099(3) -0.3833(8)
C4A C -0.6445(9) 0.3425(4) -0.4626(10)
H3A H -0.5465 0.3406 -0.4454
C5A C -0.7367(10) 0.3786(4) -0.5696(10)
H4A H -0.6978 0.4006 -0.6238
O1D O 0.1162(6) 0.5037(2) -0.0991(6)
C6D C 0.0719(9) 0.4873(3) 0.0033(9)
O2D O 0.1366(6) 0.4538(2) 0.1079(6)
Cu1_2 Cu -1.0000 0.43985(5) -0.7500
Cu1D Cu 0.0000 0.56015(5) -0.2500
N1A_2 N 0.1224(7) 0.3836(2) 0.4005(7)
O1A O 0.1162(6) 0.4963(2) 0.4009(6)
O2E O -0.1366(6) 0.4538(2) 0.3921(6)
O3 O 0.359(3) 0.2850(8) 0.117(3)
O4 O 0.364(2) 0.3997(16) 0.063(4)
O5 O 0.388(3) 0.4659(13) -0.169(3)
loop_
_geom_bond_atom_site_label_1
_geom_bond_atom_site_label_2
_geom_bond_site_symmetry_1
_geom_bond_site_symmetry_2
Cu1 N1 1_555 1_555
S1 C3 1_555 1_555
N1 C1 1_555 1_555
O1 Cu1 1_555 1_555
O2 C6 1_555 1_555
C1 H1 1_555 1_555
C2 C1 1_555 1_555
H2 C2 1_555 1_555
C3 C2 1_555 1_555
C4 C3 1_555 1_555
H3 C4 1_555 1_555
C5 N1 1_555 1_555
H4 C5 1_555 1_555
C6 O1 1_555 1_555
S1A S1 1_555 1_555
N1A C1A 1_555 1_555
C1A H1A 1_555 1_555
C2A C1A 1_555 1_555
H2A C2A 1_555 1_555
C3A S1A 1_555 1_555
C4A C3A 1_555 1_555
H3A C4A 1_555 1_555
C5A N1A 1_555 1_555
H4A C5A 1_555 1_555
O1D C6D 1_555 1_555
C6D C6 1_555 1_555
O2D Cu1 1_555 1_555
Cu1_2 N1A 1_555 1_555
Cu1D O2 1_555 1_555
N1A_2 Cu1 1_555 1_555
O1A Cu1 1_555 1_555
O2E Cu1 1_555 1_555
C4 C5 1_555 1_555
C2A C3A 1_555 1_555
C4A C5A 1_555 1_555
O1D Cu1D 1_555 1_555
C6D O2D 1_555 1_555

#END
