
#######################################################################
#
#                 Cambridge Crystallographic Data Centre
#                                CCDC 
#
#######################################################################
#
# If this CIF has been generated from an entry in the Cambridge 
# Structural Database, then it will include bibliographic, chemical, 
# crystal, experimental, refinement or atomic coordinate data resulting 
# from the CCDC's data processing and validation procedures.
#
#######################################################################

data_DIMTUO01
_symmetry_cell_setting           orthorhombic
_symmetry_space_group_name_H-M   'P n a b'
_symmetry_Int_Tables_number      60
_space_group_name_Hall           '-P 2bc 2n'
loop_
_symmetry_equiv_pos_site_id
_symmetry_equiv_pos_as_xyz
1 x,y,z
2 -x,1/2-y,1/2+z
3 1/2+x,1/2-y,1/2-z
4 1/2-x,y,-z
5 -x,-y,-z
6 x,1/2+y,1/2-z
7 1/2-x,1/2+y,1/2+z
8 1/2+x,-y,z
_cell_length_a                   5.727(3)
_cell_length_b                   14.821(3)
_cell_length_c                   18.598(3)
_cell_angle_alpha                90
_cell_angle_beta                 90
_cell_angle_gamma                90
_cell_volume                     1578.6
loop_
_atom_site_label
_atom_site_type_symbol
_atom_site_fract_x
_atom_site_fract_y
_atom_site_fract_z
Pb1 Pb 0.2500 0.3997 1.0000
S1 S -0.3010(2) 0.3680(1) 1.1043(1)
O1 O -0.0524(8) 0.3505(4) 1.0969(3)
O2 O -0.4501(9) 0.2977(4) 1.0733(3)
O3 O -0.3715(8) 0.4559(3) 1.0741(3)
C1 C -0.3607(10) 0.3722(5) 1.1971(3)
C2 C -0.2026(14) 0.3381(5) 1.2468(4)
C3 C -0.2592(13) 0.3421(6) 1.3192(4)
C4 C -0.4671(14) 0.3793(6) 1.3432(4)
C5 C -0.6210(14) 0.4135(6) 1.2925(4)
C6 C -0.5728(12) 0.4096(5) 1.2195(4)
C7 C -0.5289(23) 0.3848(8) 1.4224(5)
S1C S 0.8010(2) 0.3680(1) 0.8957(1)
O1C O 0.5524(8) 0.3505(4) 0.9031(3)
O2C O 0.9501(9) 0.2977(4) 0.9267(3)
O3C O 0.8715(8) 0.4559(3) 0.9259(3)
C1C C 0.8607(10) 0.3722(5) 0.8029(3)
C2C C 0.7026(14) 0.3381(5) 0.7532(4)
C3C C 0.7592(13) 0.3421(6) 0.6808(4)
C4C C 0.9671(14) 0.3793(6) 0.6568(4)
C5C C 1.1210(14) 0.4135(6) 0.7075(4)
C6C C 1.0728(12) 0.4096(5) 0.7805(4)
C7C C 1.0289(23) 0.3848(8) 0.5776(5)
O3D O 0.3715(8) 0.5441(3) 0.9259(3)
O3G O 0.1285(8) 0.5441(3) 1.0741(3)
Pb1D Pb -0.2500 0.6003 1.0000
Pb1D_2 Pb 0.7500 0.6003 1.0000
loop_
_geom_bond_atom_site_label_1
_geom_bond_atom_site_label_2
_geom_bond_site_symmetry_1
_geom_bond_site_symmetry_2
Pb1 O1 1_555 1_555
S1 O1 1_555 1_555
O2 S1 1_555 1_555
O3 S1 1_555 1_555
C1 S1 1_555 1_555
C2 C1 1_555 1_555
C3 C2 1_555 1_555
C4 C3 1_555 1_555
C5 C4 1_555 1_555
C6 C1 1_555 1_555
C7 C4 1_555 1_555
S1C O1C 1_555 1_555
O1C Pb1 1_555 1_555
O2C S1C 1_555 1_555
O3C S1C 1_555 1_555
C1C S1C 1_555 1_555
C2C C1C 1_555 1_555
C3C C2C 1_555 1_555
C4C C3C 1_555 1_555
C5C C4C 1_555 1_555
C6C C1C 1_555 1_555
C7C C4C 1_555 1_555
O3D Pb1 1_555 1_555
O3G Pb1 1_555 1_555
Pb1D O3 1_555 1_555
Pb1D_2 O3C 1_555 1_555
C5 C6 1_555 1_555
C5C C6C 1_555 1_555

#END
