
#######################################################################
#
#                 Cambridge Crystallographic Data Centre
#                                CCDC 
#
#######################################################################
#
# If this CIF has been generated from an entry in the Cambridge 
# Structural Database, then it will include bibliographic, chemical, 
# crystal, experimental, refinement or atomic coordinate data resulting 
# from the CCDC's data processing and validation procedures.
#
#######################################################################

data_DIMYAZ20
_symmetry_cell_setting           orthorhombic
_symmetry_space_group_name_H-M   'P n a 21'
_symmetry_Int_Tables_number      33
_space_group_name_Hall           'P 2c -2n'
loop_
_symmetry_equiv_pos_site_id
_symmetry_equiv_pos_as_xyz
1 x,y,z
2 1/2-x,1/2+y,1/2+z
3 1/2+x,1/2-y,z
4 -x,-y,1/2+z
_cell_length_a                   13.535(1)
_cell_length_b                   13.607(1)
_cell_length_c                   7.645(1)
_cell_angle_alpha                90
_cell_angle_beta                 90
_cell_angle_gamma                90
_cell_volume                     1407.99
loop_
_atom_site_label
_atom_site_type_symbol
_atom_site_fract_x
_atom_site_fract_y
_atom_site_fract_z
Ni1 Ni 0.2634 0.2398 -0.6114
Cd1 Cd 0.0136 0.1603 -0.1088
N1 N 0.1382(14) 0.1494(10) -0.3299(45)
N2 N 0.3953(12) 0.3260(10) -0.3248(43)
N3 N 0.1340(12) 0.1477(9) -0.8883(43)
N4 N 0.3884(13) 0.3308(11) -0.8841(45)
N5 N -0.0012(3) -0.0093(4) -0.1088(50)
N6 N 0.0392(4) 0.3322(3) -0.1006(50)
N7 N -0.1255(5) 0.3777(4) -0.1171(50)
C1 C 0.1845(13) 0.1824(12) -0.4371(46)
C2 C 0.3400(12) 0.2935(11) -0.4380(46)
C3 C 0.1868(11) 0.1799(13) -0.7835(45)
C4 C 0.3446(12) 0.2999(12) -0.7842(46)
C5 C 0.1347(5) 0.3589(5) -0.1184(48)
C6 C 0.1667(6) 0.4548(5) -0.1370(41)
C7 C 0.0959(7) 0.5261(5) -0.1379(44)
C8 C -0.0040(6) 0.5043(6) -0.0925(65)
C9 C -0.0302(4) 0.4046(4) -0.1075(51)
C10 C -0.0839(8) 0.5817(5) -0.1227(58)
H1 H -0.0185 -0.0343 -0.2565
H2 H 0.0657 -0.0419 -0.1042
H3 H -0.0508 -0.0338 -0.0508
H4 H -0.1458 0.3255 -0.0741
H5 H -0.1646 0.4403 -0.1264
H6 H 0.1812 0.3140 -0.0536
H7 H 0.2369 0.4575 -0.1939
H8 H 0.1180 0.5980 -0.1596
H9 H -0.0740 0.6280 -0.0579
H10 H -0.0740 0.6241 -0.2713
H11 H -0.1493 0.5541 -0.1603
N2B N -0.1047(12) 0.1740(10) -0.3248(43)
N3_2 N 0.1340(12) 0.1477(9) 0.1117(43)
N4B N -0.1116(13) 0.1692(11) 0.1159(45)
Cd1B Cd 0.5136 0.3397 -0.1088
Cd1_2 Cd 0.0136 0.1603 -1.1088
Cd1B_2 Cd 0.5136 0.3397 -1.1088
loop_
_geom_bond_atom_site_label_1
_geom_bond_atom_site_label_2
_geom_bond_site_symmetry_1
_geom_bond_site_symmetry_2
Ni1 C1 1_555 1_555
Cd1 N1 1_555 1_555
N1 C1 1_555 1_555
N2 C2 1_555 1_555
N3 C3 1_555 1_555
N4 C4 1_555 1_555
N5 Cd1 1_555 1_555
N6 Cd1 1_555 1_555
N7 C9 1_555 1_555
C2 Ni1 1_555 1_555
C3 Ni1 1_555 1_555
C4 Ni1 1_555 1_555
C5 N6 1_555 1_555
C6 C5 1_555 1_555
C7 C6 1_555 1_555
C8 C7 1_555 1_555
C9 N6 1_555 1_555
C10 C8 1_555 1_555
H1 N5 1_555 1_555
H2 N5 1_555 1_555
H3 N5 1_555 1_555
H4 N7 1_555 1_555
H5 N7 1_555 1_555
H6 C5 1_555 1_555
H7 C6 1_555 1_555
H8 C7 1_555 1_555
H9 C10 1_555 1_555
H10 C10 1_555 1_555
H11 C10 1_555 1_555
N2B Cd1 1_555 1_555
N3_2 Cd1 1_555 1_555
N4B Cd1 1_555 1_555
Cd1B N2 1_555 1_555
Cd1_2 N3 1_555 1_555
Cd1B_2 N4 1_555 1_555
C8 C9 1_555 1_555

#END
