
#######################################################################
#
#                 Cambridge Crystallographic Data Centre
#                                CCDC 
#
#######################################################################
#
# If this CIF has been generated from an entry in the Cambridge 
# Structural Database, then it will include bibliographic, chemical, 
# crystal, experimental, refinement or atomic coordinate data resulting 
# from the CCDC's data processing and validation procedures.
#
#######################################################################

data_DIMYUV
_symmetry_cell_setting           monoclinic
_symmetry_space_group_name_H-M   'C 2/c'
_symmetry_Int_Tables_number      15
_space_group_name_Hall           '-C 2yn'
loop_
_symmetry_equiv_pos_site_id
_symmetry_equiv_pos_as_xyz
1 x,y,z
2 -x,y,1/2-z
3 1/2+x,1/2+y,z
4 1/2-x,1/2+y,1/2-z
5 -x,-y,-z
6 x,-y,1/2+z
7 1/2-x,1/2-y,-z
8 1/2+x,1/2-y,1/2+z
_cell_length_a                   14.860(3)
_cell_length_b                   30.778(5)
_cell_length_c                   11.919(2)
_cell_angle_alpha                90
_cell_angle_beta                 95.102(3)
_cell_angle_gamma                90
_cell_volume                     5429.69
loop_
_atom_site_label
_atom_site_type_symbol
_atom_site_fract_x
_atom_site_fract_y
_atom_site_fract_z
Cu1 Cu -0.09050(4) 0.20590(2) 0.53925(5)
S1 S 0.30784(11) 0.22425(5) 0.33215(14)
S2 S 0.38364(11) 0.17260(6) 0.39016(14)
S3 S -0.16673(14) 0.02347(5) 0.24849(14)
S4 S -0.08117(13) 0.02396(6) 0.12530(16)
O1 O -0.0395(3) 0.16004(13) 0.6670(3)
O2 O -0.0415(3) 0.24673(14) 0.6667(3)
O3 O -0.2190(3) 0.20770(13) 0.5913(3)
O4 O -0.3486(3) 0.24450(15) 0.5667(3)
N1 N 0.0319(3) 0.21162(14) 0.4689(4)
N2 N 0.3900(4) 0.0774(2) 0.0982(6)
N3 N -0.1256(3) 0.15102(14) 0.4371(4)
N4 N -0.2262(6) 0.0857(2) -0.1869(5)
C1 C 0.0952(4) 0.18122(19) 0.4905(5)
H1 H 0.0808 0.1576 0.5341
C2 C 0.1804(4) 0.18274(19) 0.4534(5)
H2 H 0.2218 0.1607 0.4724
C3 C 0.2030(4) 0.21710(18) 0.3867(4)
C4 C 0.1387(4) 0.24927(19) 0.3642(5)
H3 H 0.1517 0.2735 0.3217
C5 C 0.0551(4) 0.24515(18) 0.4053(4)
H4 H 0.0124 0.2668 0.3878
C6 C 0.3797(4) 0.1365(2) 0.2727(5)
C7 C 0.3855(4) 0.0929(2) 0.2938(6)
H5 H 0.3861 0.0825 0.3671
C8 C 0.3906(5) 0.0643(2) 0.2051(8)
H6 H 0.3953 0.0348 0.2210
C9 C 0.3844(4) 0.1200(2) 0.0807(6)
H7 H 0.3829 0.1297 0.0066
C10 C 0.3800(4) 0.1507(2) 0.1638(5)
H8 H 0.3774 0.1802 0.1471
C11 C -0.1079(4) 0.14847(19) 0.3298(5)
H9 H -0.0898 0.1735 0.2945
C12 C -0.1176(4) 0.1110(2) 0.2681(5)
H10 H -0.1027 0.1102 0.1940
C13 C -0.1486(4) 0.07401(18) 0.3174(5)
C14 C -0.1696(4) 0.07682(18) 0.4271(5)
H11 H -0.1910 0.0526 0.4633
C15 C -0.1581(4) 0.1159(2) 0.4822(5)
H12 H -0.1745 0.1178 0.5556
C16 C -0.1424(4) 0.0477(2) 0.0072(5)
C17 C -0.0926(5) 0.0673(2) -0.0710(6)
H13 H -0.0298 0.0677 -0.0607
C18 C -0.1374(7) 0.0855(2) -0.1640(7)
H14 H -0.1028 0.0990 -0.2150
C19 C -0.2728(6) 0.0658(3) -0.1116(6)
H15 H -0.3353 0.0651 -0.1268
C20 C -0.2358(4) 0.0465(2) -0.0145(6)
H16 H -0.2720 0.0334 0.0355
C21 C 0.0000 0.1786(3) 0.7500
C22 C 0.0000 0.2285(3) 0.7500
C23 C -0.2703(4) 0.23611(18) 0.5458(4)
O1A O 0.0395(3) 0.16004(13) 0.8330(3)
O2A O 0.0415(3) 0.24673(14) 0.8333(3)
O3F O -0.2810(3) 0.29230(13) 0.4087(3)
O4F O -0.1514(3) 0.25550(15) 0.4333(3)
C23F C -0.2297(4) 0.26389(18) 0.4542(4)
Cu1A Cu 0.09050(4) 0.20590(2) 0.96075(5)
S1A S -0.30784(11) 0.22425(5) 1.16785(14)
S2A S -0.38364(11) 0.17260(6) 1.10984(14)
S3A S 0.16673(14) 0.02347(5) 1.25151(14)
S4A S 0.08117(13) 0.02396(6) 1.37470(16)
N1A N -0.0319(3) 0.21162(14) 1.0311(4)
N2A N -0.3900(4) 0.0774(2) 1.4018(6)
N3A N 0.1256(3) 0.15102(14) 1.0629(4)
N4A N 0.2262(6) 0.0857(2) 1.6869(5)
C1A C -0.0952(4) 0.18122(19) 1.0095(5)
H1A H -0.0808 0.1576 0.9659
C2A C -0.1804(4) 0.18274(19) 1.0466(5)
H2A H -0.2218 0.1607 1.0276
C3A C -0.2030(4) 0.21710(18) 1.1133(4)
C4A C -0.1387(4) 0.24927(19) 1.1358(5)
H3A H -0.1517 0.2735 1.1783
C5A C -0.0551(4) 0.24515(18) 1.0947(4)
H4A H -0.0124 0.2668 1.1122
C6A C -0.3797(4) 0.1365(2) 1.2273(5)
C7A C -0.3855(4) 0.0929(2) 1.2062(6)
H5A H -0.3861 0.0825 1.1329
C8A C -0.3906(5) 0.0643(2) 1.2949(8)
H6A H -0.3953 0.0348 1.2790
C9A C -0.3844(4) 0.1200(2) 1.4193(6)
H7A H -0.3829 0.1297 1.4934
C10A C -0.3800(4) 0.1507(2) 1.3362(5)
H8A H -0.3774 0.1802 1.3529
C11A C 0.1079(4) 0.14847(19) 1.1702(5)
H9A H 0.0898 0.1735 1.2055
C12A C 0.1176(4) 0.1110(2) 1.2319(5)
H10A H 0.1027 0.1102 1.3060
C13A C 0.1486(4) 0.07401(18) 1.1826(5)
C14A C 0.1696(4) 0.07682(18) 1.0729(5)
H11A H 0.1910 0.0526 1.0367
C15A C 0.1581(4) 0.1159(2) 1.0178(5)
H12A H 0.1745 0.1178 0.9444
C16A C 0.1424(4) 0.0477(2) 1.4928(5)
C17A C 0.0926(5) 0.0673(2) 1.5710(6)
H13A H 0.0298 0.0677 1.5607
C18A C 0.1374(7) 0.0855(2) 1.6640(7)
H14A H 0.1028 0.0990 1.7150
C19A C 0.2728(6) 0.0658(3) 1.6116(6)
H15A H 0.3353 0.0651 1.6268
C20A C 0.2358(4) 0.0465(2) 1.5145(6)
H16A H 0.2720 0.0334 1.4645
Cu1F Cu -0.40950(4) 0.29410(2) 0.46075(5)
O3A O 0.2190(3) 0.20770(13) 0.9087(3)
O4G O 0.1514(3) 0.25550(15) 1.0667(3)
O5 O 0.1649(5) 0.3454(2) 0.2140(5)
O6 O 0.5000 0.0471(3) 0.7500
O7 O 0.5811(5) 0.0132(2) 0.5662(6)
O8 O 0.4866(12) 0.1334(5) 0.6824(13)
loop_
_geom_bond_atom_site_label_1
_geom_bond_atom_site_label_2
_geom_bond_site_symmetry_1
_geom_bond_site_symmetry_2
Cu1 O1 1_555 1_555
S1 S2 1_555 1_555
S2 C6 1_555 1_555
S3 S4 1_555 1_555
S4 C16 1_555 1_555
O1 C21 1_555 1_555
O2 Cu1 1_555 1_555
O3 Cu1 1_555 1_555
O4 C23 1_555 1_555
N1 Cu1 1_555 1_555
N2 C8 1_555 1_555
N3 Cu1 1_555 1_555
N4 C18 1_555 1_555
C1 N1 1_555 1_555
H1 C1 1_555 1_555
C2 C1 1_555 1_555
H2 C2 1_555 1_555
C3 S1 1_555 1_555
C4 C3 1_555 1_555
H3 C4 1_555 1_555
C5 N1 1_555 1_555
H4 C5 1_555 1_555
C6 C7 1_555 1_555
C7 H5 1_555 1_555
C8 C7 1_555 1_555
H6 C8 1_555 1_555
C9 N2 1_555 1_555
H7 C9 1_555 1_555
C10 C6 1_555 1_555
H8 C10 1_555 1_555
C11 N3 1_555 1_555
H9 C11 1_555 1_555
C12 C11 1_555 1_555
H10 C12 1_555 1_555
C13 S3 1_555 1_555
C14 C13 1_555 1_555
H11 C14 1_555 1_555
C15 N3 1_555 1_555
H12 C15 1_555 1_555
C16 C17 1_555 1_555
C17 H13 1_555 1_555
C18 C17 1_555 1_555
H14 C18 1_555 1_555
C19 N4 1_555 1_555
H15 C19 1_555 1_555
C20 C16 1_555 1_555
H16 C20 1_555 1_555
C21 C22 1_555 1_555
C22 O2 1_555 1_555
C23 O3 1_555 1_555
O1A C21 1_555 1_555
O2A C22 1_555 1_555
O3F C23F 1_555 1_555
O4F Cu1 1_555 1_555
C23F C23 1_555 1_555
Cu1A O1A 1_555 1_555
S1A S2A 1_555 1_555
S2A C6A 1_555 1_555
S3A S4A 1_555 1_555
S4A C16A 1_555 1_555
N1A Cu1A 1_555 1_555
N2A C8A 1_555 1_555
N3A Cu1A 1_555 1_555
N4A C18A 1_555 1_555
C1A N1A 1_555 1_555
H1A C1A 1_555 1_555
C2A C1A 1_555 1_555
H2A C2A 1_555 1_555
C3A S1A 1_555 1_555
C4A C3A 1_555 1_555
H3A C4A 1_555 1_555
C5A N1A 1_555 1_555
H4A C5A 1_555 1_555
C6A C7A 1_555 1_555
C7A H5A 1_555 1_555
C8A C7A 1_555 1_555
H6A C8A 1_555 1_555
C9A N2A 1_555 1_555
H7A C9A 1_555 1_555
C10A C6A 1_555 1_555
H8A C10A 1_555 1_555
C11A N3A 1_555 1_555
H9A C11A 1_555 1_555
C12A C11A 1_555 1_555
H10A C12A 1_555 1_555
C13A S3A 1_555 1_555
C14A C13A 1_555 1_555
H11A C14A 1_555 1_555
C15A N3A 1_555 1_555
H12A C15A 1_555 1_555
C16A C17A 1_555 1_555
C17A H13A 1_555 1_555
C18A C17A 1_555 1_555
H14A C18A 1_555 1_555
C19A N4A 1_555 1_555
H15A C19A 1_555 1_555
C20A C16A 1_555 1_555
H16A C20A 1_555 1_555
Cu1F O4 1_555 1_555
O3A Cu1A 1_555 1_555
O4G Cu1A 1_555 1_555
C2 C3 1_555 1_555
C4 C5 1_555 1_555
C9 C10 1_555 1_555
C12 C13 1_555 1_555
C14 C15 1_555 1_555
C19 C20 1_555 1_555
O2A Cu1A 1_555 1_555
O3F Cu1F 1_555 1_555
O4F C23F 1_555 1_555
C2A C3A 1_555 1_555
C4A C5A 1_555 1_555
C9A C10A 1_555 1_555
C12A C13A 1_555 1_555
C14A C15A 1_555 1_555
C19A C20A 1_555 1_555

#END
