
#######################################################################
#
#                 Cambridge Crystallographic Data Centre
#                                CCDC 
#
#######################################################################
#
# If this CIF has been generated from an entry in the Cambridge 
# Structural Database, then it will include bibliographic, chemical, 
# crystal, experimental, refinement or atomic coordinate data resulting 
# from the CCDC's data processing and validation procedures.
#
#######################################################################

data_DIMZIK
_symmetry_cell_setting           triclinic
_symmetry_space_group_name_H-M   'P -1'
_symmetry_Int_Tables_number      2
_space_group_name_Hall           '-P 1'
loop_
_symmetry_equiv_pos_site_id
_symmetry_equiv_pos_as_xyz
1 x,y,z
2 -x,-y,-z
_cell_length_a                   8.1558(1)
_cell_length_b                   9.2631(2)
_cell_length_c                   9.3809(1)
_cell_angle_alpha                110.6123(7)
_cell_angle_beta                 113.9159(6)
_cell_angle_gamma                96.1456(7)
_cell_volume                     579.974
loop_
_atom_site_label
_atom_site_type_symbol
_atom_site_fract_x
_atom_site_fract_y
_atom_site_fract_z
Ce1 Ce 0.811481(18) 0.563541(16) 0.617906(17)
O1 O 0.5276(3) 0.4636(3) 0.6362(3)
O2 O 0.2736(3) 0.3773(4) 0.6419(4)
O3 O 0.0986(3) -0.3379(3) 0.6073(3)
O4 O 0.3440(4) -0.2693(3) 0.5814(4)
O5 O 0.8850(4) 0.6517(3) 0.9459(3)
O6 O 1.0718(3) 0.8136(3) 0.9233(3)
O7 O 1.0875(4) 0.8643(3) 1.1726(3)
O8 O 1.0288(4) 0.4304(4) 0.7622(3)
H1 H 0.9745 0.3737 0.7921
H2 H 1.0609 0.3716 0.6931
O9 O 0.7134(3) 0.8130(3) 0.6940(4)
H3 H 0.6149 0.7933 0.7014
H4 H 0.7988 0.8848 0.7895
N1 N 1.0166(4) 0.7788(3) 1.0161(3)
C1 C 0.4468(4) 0.3996(3) 0.6980(4)
C2 C 0.5576(4) 0.3543(4) 0.8380(4)
H5 H 0.6253 0.4517 0.9459
H6 H 0.6498 0.3094 0.8122
C3 C 0.4447(5) 0.2338(4) 0.8651(4)
H7 H 0.5200 0.2380 0.9782
H8 H 0.3341 0.2644 0.8633
C4 C 0.3850(6) 0.0632(4) 0.7284(5)
H9 H 0.4960 0.0311 0.7340
H10 H 0.3152 0.0603 0.6151
C5 C 0.2649(5) -0.0571(4) 0.7486(5)
H11 H 0.3236 -0.0378 0.8691
H12 H 0.1439 -0.0369 0.7205
C6 C 0.2332(4) -0.2301(4) 0.6398(4)
Ce1_2 Ce -0.188519(18) -0.436459(16) 0.617906(17)
Ce1A Ce 0.188519(18) -0.563541(16) 0.382094(17)
Ce1A_2 Ce 0.188519(18) 0.436459(16) 0.382094(17)
O1A O 0.4724(3) 0.5364(3) 0.3638(3)
O2A O 0.7264(3) 0.6227(4) 0.3581(4)
O3_2 O 1.0986(3) 0.6621(3) 0.6073(3)
O3A O 0.9014(3) 0.3379(3) 0.3927(3)
O4A O 0.6560(4) 0.2693(3) 0.4186(4)
loop_
_geom_bond_atom_site_label_1
_geom_bond_atom_site_label_2
_geom_bond_site_symmetry_1
_geom_bond_site_symmetry_2
Ce1 O1 1_555 1_555
O1 C1 1_555 1_555
O2 C1 1_555 1_555
O3 C6 1_555 1_555
O4 C6 1_555 1_555
O5 Ce1 1_555 1_555
O6 Ce1 1_555 1_555
O7 N1 1_555 1_555
O8 Ce1 1_555 1_555
H1 O8 1_555 1_555
H2 O8 1_555 1_555
O9 Ce1 1_555 1_555
H3 O9 1_555 1_555
H4 O9 1_555 1_555
N1 O5 1_555 1_555
C1 C2 1_555 1_555
C2 H5 1_555 1_555
H6 C2 1_555 1_555
C3 C2 1_555 1_555
H7 C3 1_555 1_555
H8 C3 1_555 1_555
C4 C3 1_555 1_555
H9 C4 1_555 1_555
H10 C4 1_555 1_555
C5 C4 1_555 1_555
H11 C5 1_555 1_555
H12 C5 1_555 1_555
C6 C5 1_555 1_555
Ce1_2 O3 1_555 1_555
Ce1A O3 1_555 1_555
Ce1A_2 O1 1_555 1_555
O1A Ce1 1_555 1_555
O2A Ce1 1_555 1_555
O3_2 Ce1 1_555 1_555
O3A Ce1 1_555 1_555
O4A Ce1 1_555 1_555
O2 Ce1A_2 1_555 1_555
O4 Ce1A 1_555 1_555
O6 N1 1_555 1_555
Ce1A_2 O1A 1_555 1_555

#END
