
#######################################################################
#
#                 Cambridge Crystallographic Data Centre
#                                CCDC 
#
#######################################################################
#
# If this CIF has been generated from an entry in the Cambridge 
# Structural Database, then it will include bibliographic, chemical, 
# crystal, experimental, refinement or atomic coordinate data resulting 
# from the CCDC's data processing and validation procedures.
#
#######################################################################

data_DIMZCU
_symmetry_cell_setting           orthorhombic
_symmetry_space_group_name_H-M   'P b n 21'
_symmetry_Int_Tables_number      33
_space_group_name_Hall           'P 2c -2ab'
loop_
_symmetry_equiv_pos_site_id
_symmetry_equiv_pos_as_xyz
1 x,y,z
2 1/2-x,1/2+y,z
3 1/2+x,1/2-y,1/2+z
4 -x,-y,1/2+z
_cell_length_a                   12.969(1)
_cell_length_b                   10.796(1)
_cell_length_c                   6.803(1)
_cell_angle_alpha                90
_cell_angle_beta                 90
_cell_angle_gamma                90
_cell_volume                     952.511
loop_
_atom_site_label
_atom_site_type_symbol
_atom_site_fract_x
_atom_site_fract_y
_atom_site_fract_z
Cl1 Cl 0.01060 0.34110 -0.02370
Cl2 Cl -0.00630 -0.08240 0.10190
Cu1 Cu 0.00150 0.12690 0.00000
C1 C 0.20820 0.01870 -0.05030
C2 C 0.31860 0.15370 0.07400
C3 C 0.22430 0.20300 0.09200
C4 C -0.20810 0.22730 0.09560
C5 C -0.31630 0.08330 -0.00990
C6 C -0.21950 0.05150 -0.04300
N1 N 0.15320 0.11970 0.02080
N2 N 0.31010 0.03880 -0.01390
N3 N -0.15170 0.13960 0.00690
N4 N -0.30920 0.19590 0.08310
Cu1C Cu -0.00150 -0.12690 0.50000
Cl2C Cl 0.00630 0.08240 -0.39810
loop_
_geom_bond_atom_site_label_1
_geom_bond_atom_site_label_2
_geom_bond_site_symmetry_1
_geom_bond_site_symmetry_2
Cl1 Cu1 1_555 1_555
Cl2 Cu1 1_555 1_555
Cu1 N1 1_555 1_555
C1 N1 1_555 1_555
C2 C3 1_555 1_555
C3 N1 1_555 1_555
C4 N3 1_555 1_555
C5 C6 1_555 1_555
C6 N3 1_555 1_555
N2 C1 1_555 1_555
N3 Cu1 1_555 1_555
N4 C4 1_555 1_555
Cu1C Cl2 1_555 1_555
Cl2C Cu1 1_555 1_555
C2 N2 1_555 1_555
C5 N4 1_555 1_555

#END
