
#######################################################################
#
#                 Cambridge Crystallographic Data Centre
#                                CCDC 
#
#######################################################################
#
# If this CIF has been generated from an entry in the Cambridge 
# Structural Database, then it will include bibliographic, chemical, 
# crystal, experimental, refinement or atomic coordinate data resulting 
# from the CCDC's data processing and validation procedures.
#
#######################################################################

data_DINDAH
_symmetry_cell_setting           triclinic
_symmetry_space_group_name_H-M   'P -1'
_symmetry_Int_Tables_number      2
_space_group_name_Hall           '-P 1'
loop_
_symmetry_equiv_pos_site_id
_symmetry_equiv_pos_as_xyz
1 x,y,z
2 -x,-y,-z
_cell_length_a                   7.297(3)
_cell_length_b                   12.736(5)
_cell_length_c                   13.249(5)
_cell_angle_alpha                96.768(4)
_cell_angle_beta                 97.129(4)
_cell_angle_gamma                95.380(4)
_cell_volume                     1205.9
loop_
_atom_site_label
_atom_site_type_symbol
_atom_site_fract_x
_atom_site_fract_y
_atom_site_fract_z
Pb1 Pb 0.23264(4) 0.37981(2) 0.51488(2)
S1 S 0.7093(3) 0.31833(16) 0.43895(15)
S2 S 0.6371(3) 0.23646(18) -0.08850(16)
O1 O 0.5513(8) 0.3797(5) 0.4439(5)
O2 O 0.7089(8) 0.2365(5) 0.5064(5)
O3 O 0.8825(7) 0.3905(4) 0.4603(5)
O4 O 0.4711(11) 0.1617(6) -0.1031(5)
O5 O 0.6233(11) 0.3181(5) -0.1551(5)
O6 O 0.8068(10) 0.1854(6) -0.0921(5)
O7 O 0.4608(10) 0.2923(8) 0.6449(5)
H1 H 0.5048 0.3385 0.6957
H2 H 0.5491 0.2706 0.6147
O8 O 0.0476(10) 0.2857(8) 0.6352(6)
H3 H -0.0555 0.2564 0.6024
H4 H 0.1095 0.2941 0.6949
N1 N 0.1763(9) 0.3732(6) 0.3221(5)
N2 N 0.2071(10) 0.1995(5) 0.4226(6)
C1 C 0.6943(11) 0.2508(6) 0.3125(6)
C2 C 0.7020(13) 0.1439(7) 0.3023(7)
H5 H 0.7141 0.1088 0.3600
C3 C 0.6916(15) 0.0861(7) 0.2028(8)
H6 H 0.6958 0.0128 0.1957
C4 C 0.6757(14) 0.1366(7) 0.1185(7)
H7 H 0.6699 0.0972 0.0542
C5 C 0.6676(11) 0.2483(6) 0.1254(6)
C6 C 0.6524(11) 0.3037(6) 0.0388(6)
C7 C 0.6467(13) 0.4115(7) 0.0503(7)
H8 H 0.6382 0.4469 -0.0074
C8 C 0.6535(14) 0.4697(7) 0.1483(7)
H9 H 0.6485 0.5429 0.1553
C9 C 0.6672(12) 0.4190(7) 0.2310(6)
H10 H 0.6704 0.4581 0.2952
C10 C 0.6773(10) 0.3067(6) 0.2249(6)
C11 C 0.1562(14) 0.4574(8) 0.2732(8)
H11 H 0.1527 0.5230 0.3118
C12 C 0.1402(14) 0.4522(9) 0.1679(8)
H12 H 0.1274 0.5132 0.1365
C13 C 0.1434(14) 0.3564(9) 0.1104(8)
H13 H 0.1319 0.3519 0.0392
C14 C 0.1636(12) 0.2660(8) 0.1570(7)
C15 C 0.1724(15) 0.1633(9) 0.1031(8)
H14 H 0.1648 0.1553 0.0320
C16 C 0.1912(15) 0.0786(9) 0.1520(8)
H15 H 0.1969 0.0130 0.1142
C17 C 0.2027(13) 0.0859(8) 0.2610(7)
C18 C 0.2190(18) -0.0006(9) 0.3172(10)
H16 H 0.2203 -0.0685 0.2828
C19 C 0.2328(19) 0.0137(9) 0.4205(9)
H17 H 0.2502 -0.0432 0.4574
C20 C 0.2211(16) 0.1126(8) 0.4707(8)
H18 H 0.2229 0.1202 0.5415
C21 C 0.1969(11) 0.1859(7) 0.3190(7)
C22 C 0.1795(10) 0.2778(7) 0.2647(6)
Pb1_2 Pb 1.23264(4) 0.37981(2) 0.51488(2)
O3_2 O -0.1175(7) 0.3905(4) 0.4603(5)
O9 O 0.1306(14) 0.2389(11) 0.8225(9)
H19 H 0.2315 0.2154 0.8441
H20 H 0.06(3) 0.223(17) 0.865(16)
loop_
_geom_bond_atom_site_label_1
_geom_bond_atom_site_label_2
_geom_bond_site_symmetry_1
_geom_bond_site_symmetry_2
Pb1 O1 1_555 1_555
S1 O1 1_555 1_555
S2 O4 1_555 1_555
O2 S1 1_555 1_555
O3 S1 1_555 1_555
O5 S2 1_555 1_555
O6 S2 1_555 1_555
O7 Pb1 1_555 1_555
H1 O7 1_555 1_555
H2 O7 1_555 1_555
O8 Pb1 1_555 1_555
H3 O8 1_555 1_555
H4 O8 1_555 1_555
N1 Pb1 1_555 1_555
N2 Pb1 1_555 1_555
C1 S1 1_555 1_555
C2 C1 1_555 1_555
H5 C2 1_555 1_555
C3 C2 1_555 1_555
H6 C3 1_555 1_555
C4 C3 1_555 1_555
H7 C4 1_555 1_555
C5 C4 1_555 1_555
C6 S2 1_555 1_555
C7 C6 1_555 1_555
H8 C7 1_555 1_555
C8 C7 1_555 1_555
H9 C8 1_555 1_555
C9 C8 1_555 1_555
H10 C9 1_555 1_555
C10 C1 1_555 1_555
C11 N1 1_555 1_555
H11 C11 1_555 1_555
C12 C11 1_555 1_555
H12 C12 1_555 1_555
C13 C12 1_555 1_555
H13 C13 1_555 1_555
C14 C13 1_555 1_555
C15 C14 1_555 1_555
H14 C15 1_555 1_555
C16 C15 1_555 1_555
H15 C16 1_555 1_555
C17 C16 1_555 1_555
C18 C17 1_555 1_555
H16 C18 1_555 1_555
C19 C18 1_555 1_555
H17 C19 1_555 1_555
C20 N2 1_555 1_555
H18 C20 1_555 1_555
C21 N2 1_555 1_555
C22 N1 1_555 1_555
O9 H19 1_555 1_555
H20 O9 1_555 1_555
Pb1_2 O3 1_555 1_555
O3_2 Pb1 1_555 1_555
C5 C6 1_555 1_555
C5 C10 1_555 1_555
C9 C10 1_555 1_555
C14 C22 1_555 1_555
C17 C21 1_555 1_555
C19 C20 1_555 1_555
C21 C22 1_555 1_555

#END
