
#######################################################################
#
#                 Cambridge Crystallographic Data Centre
#                                CCDC 
#
#######################################################################
#
# If this CIF has been generated from an entry in the Cambridge 
# Structural Database, then it will include bibliographic, chemical, 
# crystal, experimental, refinement or atomic coordinate data resulting 
# from the CCDC's data processing and validation procedures.
#
#######################################################################

data_DINFIR
_symmetry_cell_setting           triclinic
_symmetry_space_group_name_H-M   'P -1'
_symmetry_Int_Tables_number      2
_space_group_name_Hall           '-P 1'
loop_
_symmetry_equiv_pos_site_id
_symmetry_equiv_pos_as_xyz
1 x,y,z
2 -x,-y,-z
_cell_length_a                   9.3501(10)
_cell_length_b                   9.9958(11)
_cell_length_c                   14.5377(13)
_cell_angle_alpha                89.657(2)
_cell_angle_beta                 72.260(6)
_cell_angle_gamma                86.689(2)
_cell_volume                     1291.85
loop_
_atom_site_label
_atom_site_type_symbol
_atom_site_fract_x
_atom_site_fract_y
_atom_site_fract_z
O9 O 0.0672(6) 0.8696(5) 0.3047(3)
H24 H 0.1027 0.8623 0.2458
H25 H 0.0592 0.9467 0.3255
O10 O 0.0234(9) 0.0961(9) 0.4210(7)
H26 H -0.0006 0.1496 0.3845
H27 H 0.1028 0.1173 0.4282
Yb1 Yb 0.260048(18) 0.490795(19) 0.402101(11)
O1 O 0.1952(3) 0.5145(4) 0.56492(18)
O2 O -0.0488(3) 0.5649(4) 0.6200(2)
O3 O 0.4395(3) 0.3504(3) 0.4436(2)
O4 O 0.2346(3) 0.2559(3) 0.4459(2)
O5 O 0.3099(4) 0.5976(3) 0.25195(18)
O6 O 0.3760(3) 0.3844(3) 0.25177(18)
O7 O 0.1206(4) 0.6976(4) 0.4327(2)
H1 H 0.1276 0.7450 0.3855
H2 H 0.0586 0.7320 0.4806
O8 O 0.4540(3) 0.6172(3) 0.3987(2)
H3 H 0.4771 0.6847 0.3666
H4 H 0.4870 0.6176 0.4450
N1 N 0.1612(4) 0.8157(4) 0.9569(2)
N2 N 0.1709(6) 0.8582(5) 1.1017(3)
N3 N 0.2480(6) 0.9547(5) 1.0403(3)
N4 N 0.4341(6) 1.1756(5) 0.7165(3)
C1 C 0.0801(4) 0.5614(5) 0.6283(3)
C2 C 0.0978(4) 0.6219(5) 0.7181(3)
C3 C 0.2383(5) 0.6196(6) 0.7305(3)
H5 H 0.3198 0.5754 0.6855
C4 C 0.2586(5) 0.6828(6) 0.8099(3)
H6 H 0.3534 0.6822 0.8181
C5 C 0.1367(5) 0.7464(5) 0.8763(3)
C6 C -0.0029(5) 0.7480(6) 0.8649(3)
H7 H -0.0847 0.7906 0.9107
C7 C -0.0221(5) 0.6865(6) 0.7857(3)
H8 H -0.1172 0.6885 0.7777
C8 C 0.1221(6) 0.7744(6) 1.0506(3)
C9 C 0.0407(8) 0.6542(7) 1.0875(4)
H9 H 0.0261 0.6474 1.1556
H10 H 0.0981 0.5762 1.0550
H11 H -0.0553 0.6605 1.0760
C10 C 0.2415(6) 0.9252(6) 0.9536(3)
C11 C 0.3076(6) 1.0053(6) 0.8687(3)
C12 C 0.2290(6) 1.0502(6) 0.8072(4)
H12 H 0.1326 1.0230 0.8150
C13 C 0.2954(7) 1.1364(7) 0.7336(4)
H13 H 0.2397 1.1685 0.6941
C14 C 0.5122(8) 1.1260(7) 0.7719(5)
H14 H 0.6120 1.1476 0.7577
C15 C 0.4551(7) 1.0439(7) 0.8497(4)
H15 H 0.5134 1.0150 0.8885
C16 C 0.3645(5) 0.2472(5) 0.4538(3)
C17 C 0.4336(5) 0.1176(4) 0.4765(3)
C18 C 0.3479(5) 0.0079(5) 0.5079(3)
N5 N 0.1860(10) -0.0003(10) 0.5165(8)
H16 H 0.1391 -0.0760 0.5370
H17 H 0.1346 0.0712 0.5016
C19 C 0.4142(5) -0.1082(5) 0.5328(3)
H18 H 0.3561 -0.1806 0.5560
C20 C 0.3693(5) 0.4936(5) 0.2071(3)
C21 C 0.4361(5) 0.4934(5) 0.0993(3)
C22 C 0.4680(5) 0.3758(5) 0.0446(3)
H19 H 0.4461 0.2908 0.0752
C23 C 0.5319(5) 0.3841(5) -0.0550(3)
H20 H 0.5535 0.3061 -0.0924
O3A O 0.5605(3) -0.3504(3) 0.5564(2)
O4A O 0.7654(3) -0.2559(3) 0.5541(2)
C16A C 0.6355(5) -0.2472(5) 0.5462(3)
C17A C 0.5664(5) -0.1176(4) 0.5235(3)
C18A C 0.6521(5) -0.0079(5) 0.4921(3)
N5A N 0.8140(10) 0.0003(10) 0.4835(8)
H16A H 0.8609 0.0760 0.4630
H17A H 0.8654 -0.0712 0.4984
C19A C 0.5858(5) 0.1082(5) 0.4672(3)
H18A H 0.6439 0.1806 0.4440
O5A O 0.6901(4) 0.4024(3) -0.25195(18)
O6A O 0.6240(3) 0.6156(3) -0.25177(18)
C20A C 0.6307(5) 0.5064(5) -0.2071(3)
C21A C 0.5639(5) 0.5066(5) -0.0993(3)
C22A C 0.5320(5) 0.6242(5) -0.0446(3)
H19A H 0.5539 0.7092 -0.0752
C23A C 0.4681(5) 0.6159(5) 0.0550(3)
H20A H 0.4465 0.6939 0.0924
Yb1A Yb -0.260048(18) 0.509205(19) 0.597899(11)
O1A O -0.1952(3) 0.4855(4) 0.43508(18)
O2A O 0.0488(3) 0.4351(4) 0.3800(2)
O7A O -0.1206(4) 0.3024(4) 0.5673(2)
H1A H -0.1276 0.2550 0.6145
H2A H -0.0586 0.2680 0.5194
O8A O -0.4540(3) 0.3828(3) 0.6013(2)
H3A H -0.4771 0.3153 0.6334
H4A H -0.4870 0.3824 0.5550
N1A N -0.1612(4) 0.1843(4) 0.0431(2)
N2A N -0.1709(6) 0.1418(5) -0.1017(3)
N3A N -0.2480(6) 0.0453(5) -0.0403(3)
N4A N -0.4341(6) -0.1756(5) 0.2835(3)
C1A C -0.0801(4) 0.4386(5) 0.3717(3)
C2A C -0.0978(4) 0.3781(5) 0.2819(3)
C3A C -0.2383(5) 0.3804(6) 0.2695(3)
H5A H -0.3198 0.4246 0.3145
C4A C -0.2586(5) 0.3172(6) 0.1901(3)
H6A H -0.3534 0.3178 0.1819
C5A C -0.1367(5) 0.2536(5) 0.1237(3)
C6A C 0.0029(5) 0.2520(6) 0.1351(3)
H7A H 0.0847 0.2094 0.0893
C7A C 0.0221(5) 0.3135(6) 0.2143(3)
H8A H 0.1172 0.3115 0.2223
C8A C -0.1221(6) 0.2256(6) -0.0506(3)
C9A C -0.0407(8) 0.3458(7) -0.0875(4)
H9A H -0.0261 0.3526 -0.1556
H10A H -0.0981 0.4238 -0.0550
H11A H 0.0553 0.3395 -0.0760
C10A C -0.2415(6) 0.0748(6) 0.0464(3)
C11A C -0.3076(6) -0.0053(6) 0.1313(3)
C12A C -0.2290(6) -0.0502(6) 0.1928(4)
H12A H -0.1326 -0.0230 0.1850
C13A C -0.2954(7) -0.1364(7) 0.2664(4)
H13A H -0.2397 -0.1685 0.3059
C14A C -0.5122(8) -0.1260(7) 0.2281(5)
H14A H -0.6120 -0.1476 0.2423
C15A C -0.4551(7) -0.0439(7) 0.1503(4)
H15A H -0.5134 -0.0150 0.1115
Yb1A_2 Yb 0.739952(18) -0.490795(19) 0.597899(11)
Yb1A_3 Yb 0.739952(18) 0.509205(19) -0.402101(11)
O3A_2 O -0.4395(3) 0.6496(3) 0.5564(2)
O4A_2 O -0.2346(3) 0.7441(3) 0.5541(2)
O5A_2 O -0.3099(4) 0.4024(3) 0.74805(18)
O6A_2 O -0.3760(3) 0.6156(3) 0.74823(18)
H21? H 0.2434 0.0129 0.5118
N6? N 0.4307(11) 0.2485(9) 0.0827(5)
H22? H 0.3841 0.2392 0.1462
H23? H 0.4541 0.1759 0.0434
loop_
_geom_bond_atom_site_label_1
_geom_bond_atom_site_label_2
_geom_bond_site_symmetry_1
_geom_bond_site_symmetry_2
Yb1 O1 1_555 1_555
O1 C1 1_555 1_555
O2 C1 1_555 1_555
O3 Yb1 1_555 1_555
O4 Yb1 1_555 1_555
O5 Yb1 1_555 1_555
O6 Yb1 1_555 1_555
O7 Yb1 1_555 1_555
H1 O7 1_555 1_555
H2 O7 1_555 1_555
O8 Yb1 1_555 1_555
H3 O8 1_555 1_555
H4 O8 1_555 1_555
N1 C5 1_555 1_555
N2 N3 1_555 1_555
N3 C10 1_555 1_555
N4 C13 1_555 1_555
C1 C2 1_555 1_555
C2 C3 1_555 1_555
C3 H5 1_555 1_555
C4 C3 1_555 1_555
H6 C4 1_555 1_555
C5 C4 1_555 1_555
C6 C5 1_555 1_555
H7 C6 1_555 1_555
C7 C2 1_555 1_555
H8 C7 1_555 1_555
C8 N1 1_555 1_555
C9 C8 1_555 1_555
H9 C9 1_555 1_555
H10 C9 1_555 1_555
H11 C9 1_555 1_555
C10 N1 1_555 1_555
C11 C10 1_555 1_555
C12 C11 1_555 1_555
H12 C12 1_555 1_555
C13 C12 1_555 1_555
H13 C13 1_555 1_555
C14 N4 1_555 1_555
H14 C14 1_555 1_555
C15 C11 1_555 1_555
H15 C15 1_555 1_555
C16 O3 1_555 1_555
C17 C16 1_555 1_555
C18 C17 1_555 1_555
N5 C18 1_555 1_555
H16 N5 1_555 1_555
H17 N5 1_555 1_555
C19 C18 1_555 1_555
H18 C19 1_555 1_555
C20 O5 1_555 1_555
C21 C20 1_555 1_555
C22 C21 1_555 1_555
H19 C22 1_555 1_555
C23 C22 1_555 1_555
H20 C23 1_555 1_555
O9 H24 1_555 1_555
H25 O9 1_555 1_555
O10 H26 1_555 1_555
H27 O10 1_555 1_555
O3A C16A 1_555 1_555
O4A C16A 1_555 1_555
C16A C17A 1_555 1_555
C17A C19 1_555 1_555
C18A C17A 1_555 1_555
N5A C18A 1_555 1_555
H16A N5A 1_555 1_555
H17A N5A 1_555 1_555
C19A C17 1_555 1_555
H18A C19A 1_555 1_555
O5A C20A 1_555 1_555
O6A C20A 1_555 1_555
C20A C21A 1_555 1_555
C21A C23 1_555 1_555
C22A C21A 1_555 1_555
H19A C22A 1_555 1_555
C23A C21 1_555 1_555
H20A C23A 1_555 1_555
Yb1A O2 1_555 1_555
O1A Yb1A 1_555 1_555
O2A Yb1 1_555 1_555
O7A Yb1A 1_555 1_555
H1A O7A 1_555 1_555
H2A O7A 1_555 1_555
O8A Yb1A 1_555 1_555
H3A O8A 1_555 1_555
H4A O8A 1_555 1_555
N1A C5A 1_555 1_555
N2A N3A 1_555 1_555
N3A C10A 1_555 1_555
N4A C13A 1_555 1_555
C1A O1A 1_555 1_555
C2A C1A 1_555 1_555
C3A C2A 1_555 1_555
H5A C3A 1_555 1_555
C4A C3A 1_555 1_555
H6A C4A 1_555 1_555
C5A C4A 1_555 1_555
C6A C5A 1_555 1_555
H7A C6A 1_555 1_555
C7A C2A 1_555 1_555
H8A C7A 1_555 1_555
C8A N1A 1_555 1_555
C9A C8A 1_555 1_555
H9A C9A 1_555 1_555
H10A C9A 1_555 1_555
H11A C9A 1_555 1_555
C10A N1A 1_555 1_555
C11A C10A 1_555 1_555
C12A C11A 1_555 1_555
H12A C12A 1_555 1_555
C13A C12A 1_555 1_555
H13A C13A 1_555 1_555
C14A N4A 1_555 1_555
H14A C14A 1_555 1_555
C15A C11A 1_555 1_555
H15A C15A 1_555 1_555
Yb1A_2 O3A 1_555 1_555
Yb1A_3 O5A 1_555 1_555
O3A_2 Yb1A 1_555 1_555
O4A_2 Yb1A 1_555 1_555
O5A_2 Yb1A 1_555 1_555
O6A_2 Yb1A 1_555 1_555
O4 C16 1_555 1_555
O6 C20 1_555 1_555
N2 C8 1_555 1_555
C6 C7 1_555 1_555
C14 C15 1_555 1_555
O4A Yb1A_2 1_555 1_555
C18A C19A 1_555 1_555
O6A Yb1A_3 1_555 1_555
C22A C23A 1_555 1_555
O2A C1A 1_555 1_555
N2A C8A 1_555 1_555
C6A C7A 1_555 1_555
C14A C15A 1_555 1_555

#END
