
#######################################################################
#
#                 Cambridge Crystallographic Data Centre
#                                CCDC 
#
#######################################################################
#
# If this CIF has been generated from an entry in the Cambridge 
# Structural Database, then it will include bibliographic, chemical, 
# crystal, experimental, refinement or atomic coordinate data resulting 
# from the CCDC's data processing and validation procedures.
#
#######################################################################

data_DINGOY
_symmetry_cell_setting           triclinic
_symmetry_space_group_name_H-M   'P -1'
_symmetry_Int_Tables_number      2
_space_group_name_Hall           '-P 1'
loop_
_symmetry_equiv_pos_site_id
_symmetry_equiv_pos_as_xyz
1 x,y,z
2 -x,-y,-z
_cell_length_a                   9.401(5)
_cell_length_b                   9.999(6)
_cell_length_c                   14.865(9)
_cell_angle_alpha                87.979(15)
_cell_angle_beta                 70.513(11)
_cell_angle_gamma                87.031(14)
_cell_volume                     1315.27
loop_
_atom_site_label
_atom_site_type_symbol
_atom_site_fract_x
_atom_site_fract_y
_atom_site_fract_z
O9 O 0.6280(9) 0.6256(6) 0.8024(4)
H22 H 0.6645 0.6224 0.7419
H23 H 0.5756 0.5576 0.8240
O10 O 0.5530(10) 0.4001(9) 0.9203(7)
Ho1 Ho 0.66087(3) -0.00812(3) 1.098345(15)
O1 O 0.5614(4) 0.0987(4) 1.2501(2)
O2 O 0.6818(4) -0.2438(4) 1.0546(3)
O3 O 0.5750(4) 0.0644(5) 0.8791(3)
O4 O 0.7639(4) 0.0189(4) 0.9344(2)
O5 O 0.8841(4) -0.1494(4) 1.0563(3)
C1 C 0.5755(5) -0.0076(6) 1.2948(3)
C2 C 0.5128(7) -0.1249(6) 1.4557(4)
O6 O 0.6256(4) -0.1144(4) 1.2503(2)
O7 O 0.8551(4) 0.1166(4) 1.1031(3)
H1 H 0.9270 0.1198 1.0501
H2 H 0.8265 0.1976 1.1170
N1 N 1.1164(5) 0.3163(5) 0.5428(3)
C3 C 0.8577(7) -0.4901(6) 0.9921(4)
C4 C 1.1721(8) 0.2779(7) 0.4504(4)
N2 N 1.2870(6) 0.4563(6) 0.4598(4)
N3 N 1.2704(6) 0.3581(6) 0.3981(4)
C5 C 0.9103(6) -0.3824(6) 1.0236(4)
C6 C 0.8647(7) 0.2477(7) 0.6357(4)
H3 H 0.8289 0.2902 0.5903
C7 C 0.9471(7) -0.6086(6) 0.9668(4)
H4 H 0.9114 -0.6805 0.9439
C8 C 0.7655(7) 0.1861(7) 0.7145(4)
H5 H 0.6631 0.1866 0.7223
N4 N 1.1488(8) 0.6744(7) 0.7819(4)
C9 C 1.0336(8) 0.5495(7) 0.6930(5)
H6 H 0.9454 0.5204 0.6861
C10 C 0.7121(6) 0.0640(6) 0.8715(3)
C11 C 0.4796(7) -0.1150(7) 1.5535(4)
H7 H 0.4658 -0.1934 1.5904
C12 C 0.8195(6) 0.1236(6) 0.7819(3)
C13 C 1.0690(6) 0.1831(7) 0.6893(4)
H8 H 1.1717 0.1817 0.6805
C14 C 0.9704(6) 0.1209(7) 0.7682(4)
H9 H 1.0073 0.0767 0.8125
C15 C 0.8190(6) -0.2528(6) 1.0458(4)
C16 C 1.0139(6) 0.2468(6) 0.6241(4)
C17 C 0.5340(6) -0.0066(6) 1.4008(3)
C18 C 1.1742(8) 0.5066(7) 0.6305(5)
C19 C 1.0268(9) 0.6352(8) 0.7649(5)
H10 H 0.9324 0.6674 0.8035
O8 O 0.5527(5) 0.2014(5) 1.0672(3)
H11 H 0.4669 0.1927 1.0603
H12 H 0.5389 0.2554 1.1130
C20 C 1.2831(10) 0.6271(9) 0.7266(6)
H13 H 1.3679 0.6493 0.7409
C21 C 1.3042(9) 0.5465(9) 0.6488(6)
H14 H 1.4007 0.5196 0.6098
C22 C 1.1938(7) 0.4267(7) 0.5458(4)
C23 C 1.1251(10) 0.1546(8) 0.4138(5)
H15 H 1.1502 0.0765 0.4458
H16 H 1.1770 0.1482 0.3464
H17 H 1.0181 0.1606 0.4259
N5 N 0.5144(12) -0.2428(11) 1.4205(7)
H18 H 0.4951 -0.3122 1.4578
H19 H 0.5347 -0.2512 1.3601
O1A O 0.4386(4) -0.0987(4) 1.7499(2)
C1A C 0.4245(5) 0.0076(6) 1.7052(3)
C2A C 0.4872(7) 0.1249(6) 1.5443(4)
O6A O 0.3744(4) 0.1144(4) 1.7497(2)
C11A C 0.5204(7) 0.1150(7) 1.4465(4)
H7A H 0.5342 0.1934 1.4096
C17A C 0.4660(6) 0.0066(6) 1.5992(3)
N5A N 0.4856(12) 0.2428(11) 1.5795(7)
H18A H 0.5049 0.3122 1.5422
H19A H 0.4653 0.2512 1.6399
O2A O 1.3182(4) -0.7562(4) 0.9454(3)
O5A O 1.1159(4) -0.8506(4) 0.9437(3)
C3A C 1.1423(7) -0.5099(6) 1.0079(4)
C5A C 1.0897(6) -0.6176(6) 0.9764(4)
C7A C 1.0529(7) -0.3914(6) 1.0332(4)
H4A H 1.0886 -0.3195 1.0561
C15A C 1.1810(6) -0.7472(6) 0.9542(4)
Ho1A Ho 0.33913(3) 0.00812(3) 0.901655(15)
O3A O 0.4250(4) -0.0644(5) 1.1209(3)
O4A O 0.2361(4) -0.0189(4) 1.0656(2)
O7A O 0.1449(4) -0.1166(4) 0.8969(3)
H1A H 0.0730 -0.1198 0.9499
H2A H 0.1735 -0.1976 0.8830
N1A N -0.1164(5) -0.3163(5) 1.4572(3)
C4A C -0.1721(8) -0.2779(7) 1.5496(4)
N2A N -0.2870(6) -0.4563(6) 1.5402(4)
N3A N -0.2704(6) -0.3581(6) 1.6019(4)
C6A C 0.1353(7) -0.2477(7) 1.3643(4)
H3A H 0.1711 -0.2902 1.4097
C8A C 0.2345(7) -0.1861(7) 1.2855(4)
H5A H 0.3369 -0.1866 1.2777
N4A N -0.1488(8) -0.6744(7) 1.2181(4)
C9A C -0.0336(8) -0.5495(7) 1.3070(5)
H6A H 0.0546 -0.5204 1.3139
C10A C 0.2879(6) -0.0640(6) 1.1285(3)
C12A C 0.1805(6) -0.1236(6) 1.2181(3)
C13A C -0.0690(6) -0.1831(7) 1.3107(4)
H8A H -0.1717 -0.1817 1.3195
C14A C 0.0296(6) -0.1209(7) 1.2318(4)
H9A H -0.0073 -0.0767 1.1875
C16A C -0.0139(6) -0.2468(6) 1.3759(4)
C18A C -0.1742(8) -0.5066(7) 1.3695(5)
C19A C -0.0268(9) -0.6352(8) 1.2351(5)
H10A H 0.0676 -0.6674 1.1965
O8A O 0.4473(5) -0.2014(5) 0.9328(3)
H11A H 0.5331 -0.1927 0.9397
H12A H 0.4611 -0.2554 0.8870
C20A C -0.2831(10) -0.6271(9) 1.2734(6)
H13A H -0.3679 -0.6493 1.2591
C21A C -0.3042(9) -0.5465(9) 1.3512(6)
H14A H -0.4007 -0.5196 1.3902
C22A C -0.1938(7) -0.4267(7) 1.4542(4)
C23A C -0.1251(10) -0.1546(8) 1.5862(5)
H15A H -0.1502 -0.0765 1.5542
H16A H -0.1770 -0.1482 1.6536
H17A H -0.0181 -0.1606 1.5741
Ho1A_2 Ho 0.33913(3) 0.00812(3) 1.901655(15)
Ho1A_3 Ho 1.33913(3) -0.99188(3) 0.901655(15)
O1A_2 O 0.4386(4) -0.0987(4) 0.7499(2)
O2A_2 O 0.3182(4) 0.2438(4) 0.9454(3)
O5A_2 O 0.1159(4) 0.1494(4) 0.9437(3)
O6A_2 O 0.3744(4) 0.1144(4) 0.7497(2)
N6? N 0.7001(15) -0.4988(13) 0.9855(11)
H20? H 0.6359 -0.4322 1.0025
H21? H 0.6753 -0.5703 0.9649
loop_
_geom_bond_atom_site_label_1
_geom_bond_atom_site_label_2
_geom_bond_site_symmetry_1
_geom_bond_site_symmetry_2
Ho1 O1 1_555 1_555
O1 C1 1_555 1_555
O2 Ho1 1_555 1_555
O3 C10 1_555 1_555
O4 Ho1 1_555 1_555
O5 Ho1 1_555 1_555
C1 O6 1_555 1_555
C2 C11 1_555 1_555
O6 Ho1 1_555 1_555
O7 Ho1 1_555 1_555
H1 O7 1_555 1_555
H2 O7 1_555 1_555
N1 C4 1_555 1_555
C3 C5 1_555 1_555
C4 N3 1_555 1_555
N2 N3 1_555 1_555
C5 C15 1_555 1_555
C6 H3 1_555 1_555
C7 C3 1_555 1_555
H4 C7 1_555 1_555
C8 C6 1_555 1_555
H5 C8 1_555 1_555
N4 C19 1_555 1_555
C9 H6 1_555 1_555
C10 O4 1_555 1_555
C11 H7 1_555 1_555
C12 C8 1_555 1_555
C13 H8 1_555 1_555
C14 C12 1_555 1_555
H9 C14 1_555 1_555
C15 O2 1_555 1_555
C16 N1 1_555 1_555
C17 C1 1_555 1_555
C18 C9 1_555 1_555
C19 C9 1_555 1_555
H10 C19 1_555 1_555
O8 Ho1 1_555 1_555
H11 O8 1_555 1_555
H12 O8 1_555 1_555
C20 N4 1_555 1_555
H13 C20 1_555 1_555
C21 C18 1_555 1_555
H14 C21 1_555 1_555
C22 N1 1_555 1_555
C23 C4 1_555 1_555
H15 C23 1_555 1_555
H16 C23 1_555 1_555
H17 C23 1_555 1_555
N5 C2 1_555 1_555
H18 N5 1_555 1_555
H19 N5 1_555 1_555
O9 H22 1_555 1_555
H23 O9 1_555 1_555
O1A C1A 1_555 1_555
C1A O6A 1_555 1_555
C2A C11A 1_555 1_555
O6A Ho1A_2 1_555 1_555
C11A C17 1_555 1_555
H7A C11A 1_555 1_555
C17A C11 1_555 1_555
N5A C2A 1_555 1_555
H18A N5A 1_555 1_555
H19A N5A 1_555 1_555
O2A C15A 1_555 1_555
O5A C15A 1_555 1_555
C3A C5A 1_555 1_555
C5A C7 1_555 1_555
C7A C5 1_555 1_555
H4A C7A 1_555 1_555
C15A C5A 1_555 1_555
Ho1A O3 1_555 1_555
O3A Ho1 1_555 1_555
O4A Ho1A 1_555 1_555
O7A Ho1A 1_555 1_555
H1A O7A 1_555 1_555
H2A O7A 1_555 1_555
N1A C4A 1_555 1_555
C4A N3A 1_555 1_555
N2A N3A 1_555 1_555
C6A H3A 1_555 1_555
C8A C6A 1_555 1_555
H5A C8A 1_555 1_555
N4A C19A 1_555 1_555
C9A H6A 1_555 1_555
C10A O3A 1_555 1_555
C12A C8A 1_555 1_555
C13A H8A 1_555 1_555
C14A C12A 1_555 1_555
H9A C14A 1_555 1_555
C16A N1A 1_555 1_555
C18A C9A 1_555 1_555
C19A C9A 1_555 1_555
H10A C19A 1_555 1_555
O8A Ho1A 1_555 1_555
H11A O8A 1_555 1_555
H12A O8A 1_555 1_555
C20A N4A 1_555 1_555
H13A C20A 1_555 1_555
C21A C18A 1_555 1_555
H14A C21A 1_555 1_555
C22A N1A 1_555 1_555
C23A C4A 1_555 1_555
H15A C23A 1_555 1_555
H16A C23A 1_555 1_555
H17A C23A 1_555 1_555
Ho1A_2 O1A 1_555 1_555
Ho1A_3 O2A 1_555 1_555
O1A_2 Ho1A 1_555 1_555
O2A_2 Ho1A 1_555 1_555
O5A_2 Ho1A 1_555 1_555
O6A_2 Ho1A 1_555 1_555
O5 C15 1_555 1_555
C2 C17 1_555 1_555
N2 C22 1_555 1_555
C6 C16 1_555 1_555
C10 C12 1_555 1_555
C13 C14 1_555 1_555
C13 C16 1_555 1_555
C18 C22 1_555 1_555
C20 C21 1_555 1_555
C1A C17A 1_555 1_555
C2A C17A 1_555 1_555
O5A Ho1A_3 1_555 1_555
C3A C7A 1_555 1_555
O4A C10A 1_555 1_555
N2A C22A 1_555 1_555
C6A C16A 1_555 1_555
C10A C12A 1_555 1_555
C13A C14A 1_555 1_555
C13A C16A 1_555 1_555
C18A C22A 1_555 1_555
C20A C21A 1_555 1_555

#END
