
#######################################################################
#
#                 Cambridge Crystallographic Data Centre
#                                CCDC 
#
#######################################################################
#
# If this CIF has been generated from an entry in the Cambridge 
# Structural Database, then it will include bibliographic, chemical, 
# crystal, experimental, refinement or atomic coordinate data resulting 
# from the CCDC's data processing and validation procedures.
#
#######################################################################

data_DINMAQ
_symmetry_cell_setting           monoclinic
_symmetry_space_group_name_H-M   'P 21/n'
_symmetry_Int_Tables_number      14
_space_group_name_Hall           '-P 2yn'
loop_
_symmetry_equiv_pos_site_id
_symmetry_equiv_pos_as_xyz
1 x,y,z
2 1/2-x,1/2+y,1/2-z
3 -x,-y,-z
4 1/2+x,1/2-y,1/2+z
_cell_length_a                   7.9067(3)
_cell_length_b                   9.9315(4)
_cell_length_c                   9.4231(4)
_cell_angle_alpha                90
_cell_angle_beta                 97.298(2)
_cell_angle_gamma                90
_cell_volume                     733.958
loop_
_atom_site_label
_atom_site_type_symbol
_atom_site_fract_x
_atom_site_fract_y
_atom_site_fract_z
Ni1 Ni 0.0000 0.5000 0.5000
S1 S 0.28502(4) 0.65013(3) 0.35708(3)
O1 O 0.24224(11) 0.52617(9) 0.44003(9)
N1 N 0.05929(13) 0.29844(10) 0.52625(10)
N2 N 0.21619(14) 0.08509(10) 0.56491(11)
N3 N 0.39832(13) 0.03277(10) 0.78995(11)
C1 C 0.13590(14) 0.20055(12) 0.55017(11)
C2 C 0.31093(14) 0.06136(11) 0.68707(12)
C3 C 0.3733(2) 0.76741(16) 0.4905(2)
H1 H 0.2888 0.7901 0.5513
H2 H 0.4081 0.8474 0.4450
H3 H 0.4702 0.7276 0.5469
C4 C 0.47726(16) 0.60507(13) 0.28938(13)
H4 H 0.4544 0.5348 0.2197
H5 H 0.5590 0.5739 0.3665
H6 H 0.5221 0.6822 0.2455
S1B S -0.28502(4) 0.34987(3) 0.64292(3)
O1B O -0.24224(11) 0.47383(9) 0.55997(9)
N1B N -0.05929(13) 0.70156(10) 0.47375(10)
N2B N -0.21619(14) 0.91491(10) 0.43509(11)
N3B N -0.39832(13) 0.96723(10) 0.21005(11)
C1B C -0.13590(14) 0.79945(12) 0.44983(11)
C2B C -0.31093(14) 0.93864(11) 0.31293(12)
C3B C -0.3733(2) 0.23259(16) 0.5095(2)
H1B H -0.2888 0.2099 0.4487
H2B H -0.4081 0.1526 0.5550
H3B H -0.4702 0.2724 0.4531
C4B C -0.47726(16) 0.39493(13) 0.71062(13)
H4B H -0.4544 0.4652 0.7803
H5B H -0.5590 0.4261 0.6335
H6B H -0.5221 0.3178 0.7545
Ni1A Ni -0.5000 1.0000 0.0000
Ni1A_2 Ni 0.5000 0.0000 1.0000
N3A N 0.10168(13) 0.53277(10) 0.71005(11)
N3C N -0.10168(13) 0.46723(10) 0.28995(11)
loop_
_geom_bond_atom_site_label_1
_geom_bond_atom_site_label_2
_geom_bond_site_symmetry_1
_geom_bond_site_symmetry_2
Ni1 O1 1_555 1_555
S1 O1 1_555 1_555
N1 Ni1 1_555 1_555
N2 C1 1_555 1_555
N3 C2 1_555 1_555
C1 N1 1_555 1_555
C2 N2 1_555 1_555
C3 S1 1_555 1_555
H1 C3 1_555 1_555
H2 C3 1_555 1_555
H3 C3 1_555 1_555
C4 S1 1_555 1_555
H4 C4 1_555 1_555
H5 C4 1_555 1_555
H6 C4 1_555 1_555
S1B O1B 1_555 1_555
O1B Ni1 1_555 1_555
N1B Ni1 1_555 1_555
N2B C1B 1_555 1_555
N3B C2B 1_555 1_555
C1B N1B 1_555 1_555
C2B N2B 1_555 1_555
C3B S1B 1_555 1_555
H1B C3B 1_555 1_555
H2B C3B 1_555 1_555
H3B C3B 1_555 1_555
C4B S1B 1_555 1_555
H4B C4B 1_555 1_555
H5B C4B 1_555 1_555
H6B C4B 1_555 1_555
Ni1A N3B 1_555 1_555
Ni1A_2 N3 1_555 1_555
N3A Ni1 1_555 1_555
N3C Ni1 1_555 1_555

#END
