
#######################################################################
#
#                 Cambridge Crystallographic Data Centre
#                                CCDC 
#
#######################################################################
#
# If this CIF has been generated from an entry in the Cambridge 
# Structural Database, then it will include bibliographic, chemical, 
# crystal, experimental, refinement or atomic coordinate data resulting 
# from the CCDC's data processing and validation procedures.
#
#######################################################################

data_DINMUK
_symmetry_cell_setting           monoclinic
_symmetry_space_group_name_H-M   'P 21/n'
_symmetry_Int_Tables_number      14
_space_group_name_Hall           '-P 2yn'
loop_
_symmetry_equiv_pos_site_id
_symmetry_equiv_pos_as_xyz
1 x,y,z
2 1/2-x,1/2+y,1/2-z
3 -x,-y,-z
4 1/2+x,1/2-y,1/2+z
_cell_length_a                   7.9645(4)
_cell_length_b                   10.1806(5)
_cell_length_c                   9.2434(5)
_cell_angle_alpha                90
_cell_angle_beta                 95.506(1)
_cell_angle_gamma                90
_cell_volume                     746.028
loop_
_atom_site_label
_atom_site_type_symbol
_atom_site_fract_x
_atom_site_fract_y
_atom_site_fract_z
Fe1 Fe 0.0000 0.5000 0.5000
S1 S 0.29181(4) 0.65431(3) 0.35580(3)
O1 O 0.24276(11) 0.53261(8) 0.43796(10)
N1 N 0.06406(14) 0.29567(10) 0.52483(11)
N2 N 0.21368(14) 0.08441(10) 0.55688(11)
N3 N 0.40205(14) 0.03091(10) 0.77632(11)
C1 C 0.13761(15) 0.19866(11) 0.54587(12)
C2 C 0.31216(15) 0.06016(11) 0.67605(13)
C3 C 0.3673(2) 0.76829(16) 0.49398(19)
H1 H 0.2760 0.7901 0.5538
H2 H 0.4060 0.8484 0.4487
H3 H 0.4613 0.7289 0.5552
C4 C 0.48916(16) 0.61097(13) 0.29357(13)
H4 H 0.4721 0.5410 0.2209
H5 H 0.5659 0.5801 0.3758
H6 H 0.5381 0.6880 0.2498
S1B S -0.29181(4) 0.34569(3) 0.64420(3)
O1B O -0.24276(11) 0.46739(8) 0.56204(10)
N1B N -0.06406(14) 0.70433(10) 0.47517(11)
N2B N -0.21368(14) 0.91559(10) 0.44312(11)
N3B N -0.40205(14) 0.96909(10) 0.22368(11)
C1B C -0.13761(15) 0.80134(11) 0.45413(12)
C2B C -0.31216(15) 0.93984(11) 0.32395(13)
C3B C -0.3673(2) 0.23171(16) 0.50602(19)
H1B H -0.2760 0.2099 0.4462
H2B H -0.4060 0.1516 0.5513
H3B H -0.4613 0.2711 0.4448
C4B C -0.48916(16) 0.38903(13) 0.70643(13)
H4B H -0.4721 0.4590 0.7791
H5B H -0.5659 0.4199 0.6242
H6B H -0.5381 0.3120 0.7502
Fe1A Fe -0.5000 1.0000 0.0000
Fe1A_2 Fe 0.5000 0.0000 1.0000
N3A N 0.09795(14) 0.53091(10) 0.72368(11)
N3C N -0.09795(14) 0.46909(10) 0.27632(11)
loop_
_geom_bond_atom_site_label_1
_geom_bond_atom_site_label_2
_geom_bond_site_symmetry_1
_geom_bond_site_symmetry_2
Fe1 O1 1_555 1_555
S1 O1 1_555 1_555
N1 Fe1 1_555 1_555
N2 C1 1_555 1_555
N3 C2 1_555 1_555
C1 N1 1_555 1_555
C2 N2 1_555 1_555
C3 S1 1_555 1_555
H1 C3 1_555 1_555
H2 C3 1_555 1_555
H3 C3 1_555 1_555
C4 S1 1_555 1_555
H4 C4 1_555 1_555
H5 C4 1_555 1_555
H6 C4 1_555 1_555
S1B O1B 1_555 1_555
O1B Fe1 1_555 1_555
N1B Fe1 1_555 1_555
N2B C1B 1_555 1_555
N3B C2B 1_555 1_555
C1B N1B 1_555 1_555
C2B N2B 1_555 1_555
C3B S1B 1_555 1_555
H1B C3B 1_555 1_555
H2B C3B 1_555 1_555
H3B C3B 1_555 1_555
C4B S1B 1_555 1_555
H4B C4B 1_555 1_555
H5B C4B 1_555 1_555
H6B C4B 1_555 1_555
Fe1A N3B 1_555 1_555
Fe1A_2 N3 1_555 1_555
N3A Fe1 1_555 1_555
N3C Fe1 1_555 1_555

#END
