
#######################################################################
#
#                 Cambridge Crystallographic Data Centre
#                                CCDC 
#
#######################################################################
#
# If this CIF has been generated from an entry in the Cambridge 
# Structural Database, then it will include bibliographic, chemical, 
# crystal, experimental, refinement or atomic coordinate data resulting 
# from the CCDC's data processing and validation procedures.
#
#######################################################################

data_DINNUL
_symmetry_cell_setting           monoclinic
_symmetry_space_group_name_H-M   'P 21/c'
_symmetry_Int_Tables_number      14
_space_group_name_Hall           '-P 2ybc'
loop_
_symmetry_equiv_pos_site_id
_symmetry_equiv_pos_as_xyz
1 x,y,z
2 -x,1/2+y,1/2-z
3 -x,-y,-z
4 x,1/2-y,1/2+z
_cell_length_a                   8.9582(18)
_cell_length_b                   21.735(4)
_cell_length_c                   10.448(2)
_cell_angle_alpha                90
_cell_angle_beta                 99.73(3)
_cell_angle_gamma                90
_cell_volume                     2005.03
loop_
_atom_site_label
_atom_site_type_symbol
_atom_site_fract_x
_atom_site_fract_y
_atom_site_fract_z
Mn1 Mn 1.25435(8) 0.26000(4) 0.69348(7)
Mn2 Mn 1.20119(9) 0.14763(4) 0.43963(7)
O1 O 1.0940(4) 0.23058(17) 0.5222(3)
O2 O 1.0652(4) 0.22565(18) 0.3104(3)
O3 O 0.4424(4) 0.24972(19) 0.5883(3)
O4 O 0.3791(4) 0.20915(17) 0.3911(3)
O5 O 1.2885(4) 0.16900(18) 0.7655(3)
O6 O 1.3192(5) 0.10639(19) 0.6043(3)
O7 O 1.2243(4) 0.14727(17) 1.1340(3)
O8 O 1.2515(5) 0.08383(19) 1.3029(4)
O9 O 0.9898(5) 0.1020(2) 0.4293(5)
N1 N 0.7512(7) 0.0840(3) 0.4344(6)
C1 C 1.0376(5) 0.2517(2) 0.4110(5)
C2 C 0.9362(6) 0.3069(3) 0.3982(5)
H1 H 0.8593 0.3014 0.3217
H2 H 0.9959 0.3425 0.3830
C3 C 0.8574(6) 0.3208(3) 0.5122(5)
H3 H 0.8064 0.3601 0.4968
H4 H 0.9339 0.3251 0.5893
C4 C 0.7419(6) 0.2730(3) 0.5398(5)
H5 H 0.7917 0.2333 0.5526
H6 H 0.7078 0.2839 0.6201
C5 C 0.6062(6) 0.2671(3) 0.4346(5)
H7 H 0.6338 0.2416 0.3660
H8 H 0.5811 0.3075 0.3981
C6 C 0.4660(5) 0.2401(2) 0.4756(5)
C7 C 1.3384(6) 0.1217(3) 0.7209(5)
C8 C 1.4371(7) 0.0782(3) 0.8125(5)
H9 H 1.5422 0.0895 0.8149
H10 H 1.4238 0.0369 0.7773
C9 C 1.4050(7) 0.0773(3) 0.9507(5)
H11 H 1.4827 0.0533 1.0048
H12 H 1.4099 0.1190 0.9844
C10 C 1.2504(8) 0.0500(3) 0.9589(6)
H13 H 1.2399 0.0113 0.9121
H14 H 1.1727 0.0777 0.9158
C11 C 1.2229(8) 0.0388(3) 1.0976(5)
H15 H 1.1223 0.0215 1.0933
H16 H 1.2949 0.0083 1.1376
C12 C 1.2357(6) 0.0947(3) 1.1841(5)
C13 C 0.9319(10) 0.0618(4) 0.6265(8)
H17 H 1.0395 0.0648 0.6536
H18 H 0.9011 0.0196 0.6312
H19 H 0.8816 0.0864 0.6826
C14 C 0.8901(8) 0.0845(3) 0.4885(6)
C15 C 0.6291(11) 0.0605(5) 0.4950(9)
H20 H 0.6691 0.0463 0.5810
H21 H 0.5805 0.0270 0.4445
H22 H 0.5567 0.0926 0.4998
C16 C 0.7084(10) 0.1055(4) 0.3020(8)
H23 H 0.7969 0.1196 0.2702
H24 H 0.6374 0.1387 0.2997
H25 H 0.6627 0.0724 0.2484
Mn1_2 Mn 0.25435(8) 0.26000(4) 0.69348(7)
Mn1C Mn 0.25435(8) 0.24000(4) 0.19348(7)
Mn1C_2 Mn 1.25435(8) 0.24000(4) 0.19348(7)
Mn1C_3 Mn 1.25435(8) 0.24000(4) 1.19348(7)
Mn2_2 Mn 0.20119(9) 0.14763(4) 0.43963(7)
Mn2_3 Mn 1.20119(9) 0.14763(4) 1.43963(7)
O2C O 1.0652(4) 0.27435(18) 0.8104(3)
O3_2 O 1.4424(4) 0.24972(19) 0.5883(3)
O4_2 O 1.3791(4) 0.20915(17) 0.3911(3)
O4C O 1.3791(4) 0.29085(17) 0.8911(3)
O7C O 1.2243(4) 0.35273(17) 0.6340(3)
O8_2 O 1.2515(5) 0.08383(19) 0.3029(4)
loop_
_geom_bond_atom_site_label_1
_geom_bond_atom_site_label_2
_geom_bond_site_symmetry_1
_geom_bond_site_symmetry_2
Mn1 O1 1_555 1_555
Mn2 O1 1_555 1_555
O1 C1 1_555 1_555
O2 Mn2 1_555 1_555
O3 C6 1_555 1_555
O4 C6 1_555 1_555
O5 Mn1 1_555 1_555
O6 Mn2 1_555 1_555
O7 C12 1_555 1_555
O8 C12 1_555 1_555
O9 Mn2 1_555 1_555
N1 C14 1_555 1_555
C1 O2 1_555 1_555
C2 C1 1_555 1_555
H1 C2 1_555 1_555
H2 C2 1_555 1_555
C3 C2 1_555 1_555
H3 C3 1_555 1_555
H4 C3 1_555 1_555
C4 C3 1_555 1_555
H5 C4 1_555 1_555
H6 C4 1_555 1_555
C5 C4 1_555 1_555
H7 C5 1_555 1_555
H8 C5 1_555 1_555
C6 C5 1_555 1_555
C7 O5 1_555 1_555
C8 C7 1_555 1_555
H9 C8 1_555 1_555
H10 C8 1_555 1_555
C9 C8 1_555 1_555
H11 C9 1_555 1_555
H12 C9 1_555 1_555
C10 C9 1_555 1_555
H13 C10 1_555 1_555
H14 C10 1_555 1_555
C11 C10 1_555 1_555
H15 C11 1_555 1_555
H16 C11 1_555 1_555
C12 C11 1_555 1_555
C13 H17 1_555 1_555
H18 C13 1_555 1_555
H19 C13 1_555 1_555
C14 O9 1_555 1_555
C15 N1 1_555 1_555
H20 C15 1_555 1_555
H21 C15 1_555 1_555
H22 C15 1_555 1_555
C16 N1 1_555 1_555
H23 C16 1_555 1_555
H24 C16 1_555 1_555
H25 C16 1_555 1_555
Mn1_2 O3 1_555 1_555
Mn1C O4 1_555 1_555
Mn1C_2 O2 1_555 1_555
Mn1C_3 O7 1_555 1_555
Mn2_2 O4 1_555 1_555
Mn2_3 O8 1_555 1_555
O2C Mn1 1_555 1_555
O3_2 Mn1 1_555 1_555
O4_2 Mn2 1_555 1_555
O4C Mn1 1_555 1_555
O7C Mn1 1_555 1_555
O8_2 Mn2 1_555 1_555
O6 C7 1_555 1_555
C13 C14 1_555 1_555
Mn1C_2 O4_2 1_555 1_555

#END
