
#######################################################################
#
#                 Cambridge Crystallographic Data Centre
#                                CCDC 
#
#######################################################################
#
# If this CIF has been generated from an entry in the Cambridge 
# Structural Database, then it will include bibliographic, chemical, 
# crystal, experimental, refinement or atomic coordinate data resulting 
# from the CCDC's data processing and validation procedures.
#
#######################################################################

data_DIOXSN
_symmetry_cell_setting           monoclinic
_symmetry_space_group_name_H-M   'C 2/c'
_symmetry_Int_Tables_number      15
_space_group_name_Hall           '-C 2yn'
loop_
_symmetry_equiv_pos_site_id
_symmetry_equiv_pos_as_xyz
1 x,y,z
2 1/2+x,1/2+y,z
3 -x,y,1/2-z
4 1/2-x,1/2+y,1/2-z
5 -x,-y,-z
6 1/2-x,1/2-y,-z
7 x,-y,1/2+z
8 1/2+x,1/2-y,1/2+z
_cell_length_a                   7.825(1)
_cell_length_b                   11.688(2)
_cell_length_c                   9.172(1)
_cell_angle_alpha                90
_cell_angle_beta                 98.0(1)
_cell_angle_gamma                90
_cell_volume                     830.695
loop_
_atom_site_label
_atom_site_type_symbol
_atom_site_fract_x
_atom_site_fract_y
_atom_site_fract_z
Sn1 Sn 0.00000 0.00907 0.25000
Cl1 Cl 0.02400 0.15800 0.44330
O1 O 0.32330 0.03070 0.26590
C1 C 0.40730 0.13020 0.21980
C2 C 0.40580 -0.06910 0.21800
Cl1B Cl -0.02400 0.15800 0.05670
O1B O -0.32330 0.03070 0.23410
C1B C 0.59270 0.13020 0.28020
C2B C 0.59420 -0.06910 0.28200
O1B_2 O 0.67670 0.03070 0.23410
Sn1_2 Sn 1.00000 0.00907 0.25000
loop_
_geom_bond_atom_site_label_1
_geom_bond_atom_site_label_2
_geom_bond_site_symmetry_1
_geom_bond_site_symmetry_2
Sn1 Cl1 1_555 1_555
O1 Sn1 1_555 1_555
C1 O1 1_555 1_555
C2 O1 1_555 1_555
Cl1B Sn1 1_555 1_555
O1B Sn1 1_555 1_555
C1B C1 1_555 1_555
C2B C2 1_555 1_555
O1B_2 C1B 1_555 1_555
Sn1_2 O1B_2 1_555 1_555
C2B O1B_2 1_555 1_555

#END
