
#######################################################################
#
#                 Cambridge Crystallographic Data Centre
#                                CCDC 
#
#######################################################################
#
# If this CIF has been generated from an entry in the Cambridge 
# Structural Database, then it will include bibliographic, chemical, 
# crystal, experimental, refinement or atomic coordinate data resulting 
# from the CCDC's data processing and validation procedures.
#
#######################################################################

data_DIPGAK
_symmetry_cell_setting           monoclinic
_symmetry_space_group_name_H-M   'P 21/c'
_symmetry_Int_Tables_number      14
_space_group_name_Hall           '-P 2ybc'
loop_
_symmetry_equiv_pos_site_id
_symmetry_equiv_pos_as_xyz
1 x,y,z
2 x,1/2-y,1/2+z
3 -x,-y,-z
4 -x,1/2+y,1/2-z
_cell_length_a                   9.168(5)
_cell_length_b                   12.891(8)
_cell_length_c                   18.296(11)
_cell_angle_alpha                90
_cell_angle_beta                 97.29(3)
_cell_angle_gamma                90
_cell_volume                     2144.83
loop_
_atom_site_label
_atom_site_type_symbol
_atom_site_fract_x
_atom_site_fract_y
_atom_site_fract_z
Br1 Br -0.0904(2) -0.48255(12) 0.39367(7)
Br2 Br 0.60300(14) -0.42912(11) 0.17100(7)
Br3 Br 0.29912(14) -0.25660(10) 0.25458(7)
Cu1 Cu 0.1331(2) -0.45533(13) 0.48580(9)
Cu2 Cu 0.5520(2) -0.34513(13) 0.29374(9)
Cu3 Cu 0.3335(2) -0.40303(12) 0.16923(8)
N1 N 0.3128(12) -0.5058(8) 0.4366(5)
N2 N 0.4865(11) -0.4537(7) 0.3605(5)
N3 N 0.7422(11) -0.0470(7) 0.3050(5)
N4 N 0.6933(11) -0.2269(7) 0.2944(5)
N5 N 0.2420(10) -0.1497(8) 0.5677(5)
N6 N 0.1564(11) -0.2934(8) 0.4953(5)
C1 C 0.3867(14) -0.4352(10) 0.4021(6)
H1 H 0.3636(14) -0.3660(10) 0.4090(6)
C2 C 0.5234(14) -0.5558(10) 0.3531(6)
H2 H 0.5984(14) -0.5730(10) 0.3255(6)
C3 C 0.4532(14) -0.6311(11) 0.3850(7)
H3 H 0.4778(14) -0.7001(11) 0.3784(7)
C4 C 0.3460(16) -0.6067(10) 0.4270(7)
C5 C 0.2583(21) -0.6846(11) 0.4641(11)
H4 H 0.2961(62) -0.6890(50) 0.5154(16)
H5 H 0.2654(84) -0.7512(19) 0.4414(34)
H6 H 0.1571(26) -0.6633(38) 0.4592(43)
C6 C 0.6566(14) -0.1289(9) 0.3072(6)
H7 H 0.5620(14) -0.1173(9) 0.3188(6)
C7 C 0.8250(14) -0.2395(11) 0.2721(7)
H8 H 0.8536(14) -0.3058(11) 0.2600(7)
C8 C 0.9192(16) -0.1594(11) 0.2665(7)
H9 H 1.0107(16) -0.1705(11) 0.2509(7)
C9 C 0.8753(13) -0.0603(9) 0.2846(6)
C10 C 0.9765(14) 0.0290(10) 0.2859(8)
H10 H 1.0728(20) 0.0050(11) 0.2788(32)
H11 H 0.9810(52) 0.0636(29) 0.3326(15)
H12 H 0.9413(36) 0.0764(24) 0.2471(22)
C11 C 0.2003(12) -0.2462(10) 0.5577(7)
H13 H 0.2020(12) -0.2863(10) 0.6000(7)
C12 C 0.1447(15) -0.2362(11) 0.4349(7)
H14 H 0.1100(15) -0.2664(11) 0.3898(7)
C13 C 0.1823(17) -0.1347(11) 0.4372(7)
H15 H 0.1747(17) -0.0951(11) 0.3944(7)
C14 C 0.2320(15) -0.0913(10) 0.5044(7)
C15 C 0.2711(24) 0.0214(10) 0.5151(8)
H16 H 0.2221(75) 0.0494(19) 0.5541(33)
H17 H 0.3755(25) 0.0281(11) 0.5278(46)
H18 H 0.2407(90) 0.0586(15) 0.4703(17)
N3C N 0.2578(11) -0.5470(7) 0.1950(5)
N5A N 0.2420(10) -0.3503(8) 0.0677(5)
Cu1B Cu -0.1331(2) -0.54467(13) 0.51420(9)
Br1B Br 0.0904(2) -0.51745(12) 0.60633(7)
Cu3A Cu 0.3335(2) -0.09697(12) 0.66923(8)
Cu3C Cu 0.6665(2) 0.09697(12) 0.33077(8)
loop_
_geom_bond_atom_site_label_1
_geom_bond_atom_site_label_2
_geom_bond_site_symmetry_1
_geom_bond_site_symmetry_2
Br1 Cu1 1_555 1_555
Br2 Cu2 1_555 1_555
Br3 Cu2 1_555 1_555
Cu1 N1 1_555 1_555
Cu2 N2 1_555 1_555
Cu3 Br2 1_555 1_555
N1 C1 1_555 1_555
N2 C1 1_555 1_555
N3 C6 1_555 1_555
N4 Cu2 1_555 1_555
N5 C11 1_555 1_555
N6 Cu1 1_555 1_555
C1 H1 1_555 1_555
C2 N2 1_555 1_555
H2 C2 1_555 1_555
C3 C2 1_555 1_555
H3 C3 1_555 1_555
C4 N1 1_555 1_555
C5 C4 1_555 1_555
H4 C5 1_555 1_555
H5 C5 1_555 1_555
H6 C5 1_555 1_555
C6 N4 1_555 1_555
H7 C6 1_555 1_555
C7 N4 1_555 1_555
H8 C7 1_555 1_555
C8 C7 1_555 1_555
H9 C8 1_555 1_555
C9 N3 1_555 1_555
C10 C9 1_555 1_555
H10 C10 1_555 1_555
H11 C10 1_555 1_555
H12 C10 1_555 1_555
C11 N6 1_555 1_555
H13 C11 1_555 1_555
C12 N6 1_555 1_555
H14 C12 1_555 1_555
C13 C12 1_555 1_555
H15 C13 1_555 1_555
C14 N5 1_555 1_555
C15 C14 1_555 1_555
H16 C15 1_555 1_555
H17 C15 1_555 1_555
H18 C15 1_555 1_555
N3C Cu3 1_555 1_555
N5A Cu3 1_555 1_555
Cu1B Br1 1_555 1_555
Br1B Cu1 1_555 1_555
Cu3A N5 1_555 1_555
Cu3C N3 1_555 1_555
Br3 Cu3 1_555 1_555
C3 C4 1_555 1_555
C8 C9 1_555 1_555
C13 C14 1_555 1_555
Cu1B Br1B 1_555 1_555

#END
