
#######################################################################
#
#                 Cambridge Crystallographic Data Centre
#                                CCDC 
#
#######################################################################
#
# If this CIF has been generated from an entry in the Cambridge 
# Structural Database, then it will include bibliographic, chemical, 
# crystal, experimental, refinement or atomic coordinate data resulting 
# from the CCDC's data processing and validation procedures.
#
#######################################################################

data_DIPHIV
_symmetry_cell_setting           monoclinic
_symmetry_space_group_name_H-M   'P 21/c'
_symmetry_Int_Tables_number      14
_space_group_name_Hall           '-P 2ybc'
loop_
_symmetry_equiv_pos_site_id
_symmetry_equiv_pos_as_xyz
1 x,y,z
2 -x,1/2+y,1/2-z
3 -x,-y,-z
4 x,1/2-y,1/2+z
_cell_length_a                   8.6588(7)
_cell_length_b                   9.8389(9)
_cell_length_c                   10.3610(10)
_cell_angle_alpha                90
_cell_angle_beta                 110.012(2)
_cell_angle_gamma                90
_cell_volume                     829.39
loop_
_atom_site_label
_atom_site_type_symbol
_atom_site_fract_x
_atom_site_fract_y
_atom_site_fract_z
Cu1 Cu 0.5000 0.0000 0.5000
O1 O 0.2646(3) 0.0306(3) 0.4555(3)
N1 N 0.5150(4) 0.1205(3) 0.6578(3)
N2 N 0.4896(4) 0.3025(4) 0.8518(3)
N3 N 0.0823(4) 0.1693(4) 0.4972(3)
C1 C 0.3688(4) 0.1757(4) 0.6480(3)
C2 C 0.3572(5) 0.2672(4) 0.7444(4)
C3 C 0.6308(5) 0.2444(4) 0.8620(4)
C4 C 0.6452(5) 0.1539(4) 0.7636(4)
C5 C 0.2303(5) 0.1224(4) 0.5262(4)
H1 H -0.0024 0.1351 0.4222
H2 H 0.0609 0.2371 0.5513
H3 H 0.2557 0.3054 0.7350
H4 H 0.7236 0.2646 0.9374
H5 H 0.7472 0.1169 0.7724
O1B O 0.7354(3) -0.0306(3) 0.5445(3)
N1B N 0.4850(4) -0.1205(3) 0.3422(3)
N2B N 0.5104(4) -0.3025(4) 0.1482(3)
N3B N 0.9177(4) -0.1693(4) 0.5028(3)
C1B C 0.6312(4) -0.1757(4) 0.3520(3)
C2B C 0.6428(5) -0.2672(4) 0.2556(4)
C3B C 0.3692(5) -0.2444(4) 0.1380(4)
C4B C 0.3548(5) -0.1539(4) 0.2364(4)
C5B C 0.7697(5) -0.1224(4) 0.4738(4)
H1B H 1.0024 -0.1351 0.5778
H2B H 0.9391 -0.2371 0.4487
H3B H 0.7443 -0.3054 0.2650
H4B H 0.2764 -0.2646 0.0626
H5B H 0.2528 -0.1169 0.2276
Cu1A Cu 0.5000 -0.5000 0.0000
Cu1A_2 Cu 0.5000 0.5000 1.0000
N2A N 0.5104(4) -0.1975(4) 0.6482(3)
N2C N 0.4896(4) 0.1975(4) 0.3518(3)
F1 F 0.0347(4) 0.4001(4) 0.2962(3)
F2 F 0.0409(5) 0.6114(4) 0.3810(4)
F3 F 0.1829(4) 0.5604(4) 0.2454(3)
F4 F 0.2574(5) 0.4746(4) 0.4617(4)
B1 B 0.1318(7) 0.5121(5) 0.3505(5)
loop_
_geom_bond_atom_site_label_1
_geom_bond_atom_site_label_2
_geom_bond_site_symmetry_1
_geom_bond_site_symmetry_2
Cu1 O1 1_555 1_555
O1 C5 1_555 1_555
N1 Cu1 1_555 1_555
N2 C2 1_555 1_555
N3 C5 1_555 1_555
C1 N1 1_555 1_555
C2 C1 1_555 1_555
C3 N2 1_555 1_555
C4 N1 1_555 1_555
C5 C1 1_555 1_555
H1 N3 1_555 1_555
H2 N3 1_555 1_555
H3 C2 1_555 1_555
H4 C3 1_555 1_555
H5 C4 1_555 1_555
F1 B1 1_555 1_555
F2 B1 1_555 1_555
F3 B1 1_555 1_555
F4 B1 1_555 1_555
O1B Cu1 1_555 1_555
N1B Cu1 1_555 1_555
N2B C2B 1_555 1_555
N3B C5B 1_555 1_555
C1B N1B 1_555 1_555
C2B C1B 1_555 1_555
C3B N2B 1_555 1_555
C4B N1B 1_555 1_555
C5B O1B 1_555 1_555
H1B N3B 1_555 1_555
H2B N3B 1_555 1_555
H3B C2B 1_555 1_555
H4B C3B 1_555 1_555
H5B C4B 1_555 1_555
Cu1A N2B 1_555 1_555
Cu1A_2 N2 1_555 1_555
N2A Cu1 1_555 1_555
N2C Cu1 1_555 1_555
C3 C4 1_555 1_555
C1B C5B 1_555 1_555
C3B C4B 1_555 1_555

#END
