
#######################################################################
#
#                 Cambridge Crystallographic Data Centre
#                                CCDC 
#
#######################################################################
#
# If this CIF has been generated from an entry in the Cambridge 
# Structural Database, then it will include bibliographic, chemical, 
# crystal, experimental, refinement or atomic coordinate data resulting 
# from the CCDC's data processing and validation procedures.
#
#######################################################################

data_DIPNOG
_symmetry_cell_setting           monoclinic
_symmetry_space_group_name_H-M   'C 2/c'
_symmetry_Int_Tables_number      15
_space_group_name_Hall           '-C 2yn'
loop_
_symmetry_equiv_pos_site_id
_symmetry_equiv_pos_as_xyz
1 x,y,z
2 1/2+x,1/2+y,z
3 -x,y,1/2-z
4 1/2-x,1/2+y,1/2-z
5 -x,-y,-z
6 1/2-x,1/2-y,-z
7 x,-y,1/2+z
8 1/2+x,1/2-y,1/2+z
_cell_length_a                   17.005(5)
_cell_length_b                   12.432(3)
_cell_length_c                   7.764(1)
_cell_angle_alpha                90
_cell_angle_beta                 92.60(2)
_cell_angle_gamma                90
_cell_volume                     1639.67
loop_
_atom_site_label
_atom_site_type_symbol
_atom_site_fract_x
_atom_site_fract_y
_atom_site_fract_z
Ca1 Ca 0.0000 -0.04718(4) 0.2500
O3 O 0.1000(1) -0.1529(1) 0.1214(2)
O4 O 0.0563(1) 0.1025(1) 0.0167(2)
O5 O 0.1011(1) 0.0881(1) 0.2860(2)
C1 C 0.0972(1) 0.1368(1) 0.1437(2)
C2 C 0.1429(1) 0.2390(1) 0.1271(2)
C3 C 0.1263(1) 0.3108(2) -0.0062(3)
C4 C 0.1708(2) 0.4039(2) -0.0141(4)
C5 C 0.2307(2) 0.4208(2) 0.1062(4)
N1 N 0.2486(1) 0.3513(2) 0.2347(3)
C6 C 0.2041(1) 0.2630(2) 0.2442(3)
H2 H 0.1463 -0.1500 0.1785
H3 H 0.1002 -0.1340 0.0201
H4 H 0.0840 0.2948 -0.0890
H5 H 0.1593 0.4551 -0.1031
H6 H 0.2588 0.4907 0.1027
H7 H 0.2182 0.2224 0.3335
O3B O -0.1000(1) -0.1529(1) 0.3786(2)
O4D O -0.0563(1) -0.1025(1) -0.0167(2)
O4B O -0.0563(1) 0.1025(1) 0.4833(2)
O4F O 0.0563(1) -0.1025(1) 0.5167(2)
O5B O -0.1011(1) 0.0881(1) 0.2140(2)
Ca1D Ca 0.0000 0.04718(4) -0.2500
H2B H -0.1463 -0.1500 0.3215
H3B H -0.1002 -0.1340 0.4799
Ca1D_2 Ca 0.0000 0.04718(4) 0.7500
C1B C -0.0972(1) 0.1368(1) 0.3563(2)
C2B C -0.1429(1) 0.2390(1) 0.3729(2)
C3B C -0.1263(1) 0.3108(2) 0.5062(3)
C6B C -0.2041(1) 0.2630(2) 0.2558(3)
C4B C -0.1708(2) 0.4039(2) 0.5141(4)
H4B H -0.0840 0.2948 0.5890
N1B N -0.2486(1) 0.3513(2) 0.2653(3)
H7B H -0.2182 0.2224 0.1665
C5B C -0.2307(2) 0.4208(2) 0.3938(4)
H5B H -0.1593 0.4551 0.6031
H6B H -0.2588 0.4907 0.3973
O1 O 0.5000 0.0265(3) 0.7500
H1 H 0.4801 -0.0305 0.8205
H1B H 0.5199 -0.0305 0.6795
O2 O 0.4245(2) -0.1228(2) -0.0402(4)
loop_
_geom_bond_atom_site_label_1
_geom_bond_atom_site_label_2
_geom_bond_site_symmetry_1
_geom_bond_site_symmetry_2
Ca1 O3 1_555 1_555
O1 H1 1_555 1_555
O3 H2 1_555 1_555
O4 Ca1 1_555 1_555
O5 Ca1 1_555 1_555
C1 O4 1_555 1_555
C2 C1 1_555 1_555
C3 C2 1_555 1_555
C4 C3 1_555 1_555
C5 C4 1_555 1_555
N1 C5 1_555 1_555
C6 C2 1_555 1_555
H3 O3 1_555 1_555
H4 C3 1_555 1_555
H5 C4 1_555 1_555
H6 C5 1_555 1_555
H7 C6 1_555 1_555
O3B Ca1 1_555 1_555
O4D Ca1 1_555 1_555
O4B Ca1 1_555 1_555
O4F Ca1 1_555 1_555
O5B Ca1 1_555 1_555
Ca1D O4 1_555 1_555
H2B O3B 1_555 1_555
H3B O3B 1_555 1_555
Ca1D_2 O4B 1_555 1_555
C1B O4B 1_555 1_555
C2B C1B 1_555 1_555
C3B C2B 1_555 1_555
C6B C2B 1_555 1_555
C4B C3B 1_555 1_555
H4B C3B 1_555 1_555
N1B C6B 1_555 1_555
H7B C6B 1_555 1_555
C5B C4B 1_555 1_555
H5B C4B 1_555 1_555
H6B C5B 1_555 1_555
H1B O1 1_555 1_555
O5 C1 1_555 1_555
N1 C6 1_555 1_555
O4D Ca1D 1_555 1_555
O4F Ca1D_2 1_555 1_555
O5B C1B 1_555 1_555
N1B C5B 1_555 1_555

#END
