
#######################################################################
#
#                 Cambridge Crystallographic Data Centre
#                                CCDC 
#
#######################################################################
#
# If this CIF has been generated from an entry in the Cambridge 
# Structural Database, then it will include bibliographic, chemical, 
# crystal, experimental, refinement or atomic coordinate data resulting 
# from the CCDC's data processing and validation procedures.
#
#######################################################################

data_DIPNIB
_symmetry_cell_setting           monoclinic
_symmetry_space_group_name_H-M   'P 21/c'
_symmetry_Int_Tables_number      14
_space_group_name_Hall           '-P 2ybc'
loop_
_symmetry_equiv_pos_site_id
_symmetry_equiv_pos_as_xyz
1 x,y,z
2 -x,1/2+y,1/2-z
3 -x,-y,-z
4 x,1/2-y,1/2+z
_cell_length_a                   25.314(2)
_cell_length_b                   16.5391(14)
_cell_length_c                   8.1996(7)
_cell_angle_alpha                90
_cell_angle_beta                 92.357(4)
_cell_angle_gamma                90
_cell_volume                     3430.03
loop_
_atom_site_label
_atom_site_type_symbol
_atom_site_fract_x
_atom_site_fract_y
_atom_site_fract_z
Pr1 Pr 0.483490(10) 0.285532(16) -0.02956(3)
Pr2 Pr -0.002843(9) -0.116431(14) 0.58142(3)
C1 C 0.94962(18) 0.1981(3) 0.0483(6)
C2 C 0.9050(2) 0.1879(4) -0.0792(7)
H1 H 0.8872 0.2395 -0.0933
H2 H 0.9203 0.1745 -0.1823
C3 C 0.82240(18) 0.1528(3) 0.0359(6)
C4 C 0.8157(2) 0.2246(3) 0.1113(7)
H3 H 0.8423 0.2634 0.1112
C5 C 0.7689(2) 0.2404(4) 0.1893(7)
H4 H 0.7652 0.2896 0.2424
C6 C 0.7282(2) 0.1857(4) 0.1903(7)
C7 C 0.7356(2) 0.1123(4) 0.1089(8)
H5 H 0.7086 0.0741 0.1051
C8 C 0.7816(2) 0.0959(3) 0.0354(8)
H6 H 0.7860 0.0463 -0.0157
C9 C 0.6781(2) 0.2011(5) 0.2797(8)
H7 H 0.6755 0.1609 0.3652
H8 H 0.6808 0.2537 0.3318
C10 C 0.6281(2) 0.1987(4) 0.1732(7)
H9 H 0.6265 0.1480 0.1140
H10 H 0.6289 0.2422 0.0938
C11 C 0.57902(19) 0.2072(3) 0.2709(6)
C12 C 0.39103(19) 0.3060(4) 0.1735(6)
C13 C 0.3431(2) 0.3170(6) 0.2726(8)
H11 H 0.3411 0.2723 0.3486
H12 H 0.3472 0.3663 0.3360
C14 C 0.2954(3) 0.3212(8) 0.1792(10)
H13 H 0.2948 0.3146 0.0665
C15 C 0.2449(2) 0.3369(5) 0.2679(8)
C16 C 0.2187(2) 0.4093(5) 0.2463(8)
H14 H 0.2336 0.4494 0.1832
C17 C 0.1709(2) 0.4240(4) 0.3157(7)
H15 H 0.1536 0.4730 0.2985
C18 C 0.14925(18) 0.3650(3) 0.4109(6)
C19 C 0.1747(2) 0.2923(3) 0.4361(7)
H16 H 0.1602 0.2528 0.5014
C20 C 0.2223(2) 0.2788(4) 0.3625(9)
H17 H 0.2393 0.2293 0.3776
C21 C 0.06740(19) 0.4379(3) 0.4319(6)
H18 H 0.0869 0.4883 0.4383
H19 H 0.0381 0.4423 0.5039
C22 C 0.04582(17) 0.4266(3) 0.2599(6)
C23 C 0.45796(18) 0.0942(3) 0.1284(6)
C24 C 0.43131(19) 0.0161(3) 0.0685(7)
H20 H 0.4051 0.0292 -0.0170
H21 H 0.4577 -0.0184 0.0213
C25 C 0.35542(18) -0.0065(3) 0.2313(6)
C26 C 0.3307(2) -0.0568(3) 0.3394(7)
H22 H 0.3491 -0.1002 0.3860
C27 C 0.2791(2) -0.0430(3) 0.3784(7)
H23 H 0.2632 -0.0774 0.4517
C28 C 0.24997(18) 0.0211(3) 0.3109(6)
C29 C 0.2762(2) 0.0721(3) 0.2070(7)
H24 H 0.2582 0.1160 0.1608
C30 C 0.3284(2) 0.0599(3) 0.1700(7)
H25 H 0.3452 0.0965 0.1036
C31 C 0.19198(18) 0.0350(3) 0.3410(7)
H26 H 0.1892 0.0786 0.4192
H27 H 0.1744 0.0525 0.2397
C32 C 0.16315(18) -0.0375(3) 0.4034(7)
H28 H 0.1783 -0.0513 0.5105
H29 H 0.1693 -0.0828 0.3315
C33 C 0.10428(18) -0.0269(3) 0.4165(6)
O1 O 0.50062(17) 0.4139(3) 0.1205(6)
H30 H 0.4742(15) 0.433(4) 0.163(8)
H31 H 0.5282(14) 0.428(4) 0.173(8)
O2 O 0.07913(13) -0.0880(2) 0.4609(5)
O3 O -0.06842(14) -0.2024(2) 0.7102(5)
H32 H -0.062(2) -0.2509(15) 0.731(7)
H33 H -0.085(2) -0.184(3) 0.787(5)
O4 O 0.08392(13) 0.0405(2) 0.3849(5)
O5 O 0.40618(13) -0.0278(2) 0.1944(5)
O6 O 0.46528(16) 0.1038(2) 0.2771(5)
O7 O 0.47230(17) 0.1404(2) 0.0150(5)
O8 O 0.43074(13) 0.2683(2) 0.2359(4)
O9 O 0.39231(15) 0.3325(3) 0.0315(5)
O10 O 0.10105(13) 0.3743(2) 0.4882(4)
O11 O 0.05059(15) 0.3599(2) 0.1900(4)
O12 O 0.02177(13) 0.4844(2) 0.1895(5)
O13 O 0.54147(13) 0.2536(2) 0.2207(4)
O14 O 0.57560(13) 0.1698(2) 0.4020(4)
O15 O 0.86661(14) 0.1285(2) -0.0452(5)
O16 O 0.98171(14) 0.2521(2) 0.0161(5)
O17 O 0.95351(15) 0.1511(2) 0.1681(4)
Pr1C Pr 0.483490(10) 0.214468(16) 0.47044(3)
Pr2A Pr 0.002843(9) 0.383569(14) -0.08142(3)
Pr2A_2 Pr 1.002843(9) 0.383569(14) -0.08142(3)
Pr2B Pr 0.002843(9) 0.116431(14) 0.41858(3)
Pr2B_2 Pr 1.002843(9) 0.116431(14) 0.41858(3)
Pr2C Pr -0.002843(9) 0.616431(14) 0.08142(3)
O4B O -0.08392(13) -0.0405(2) 0.6151(5)
O6C O 0.46528(16) 0.3962(2) -0.2229(5)
O8C O 0.43074(13) 0.2317(2) -0.2641(4)
O11A O -0.05059(15) -0.1401(2) 0.3100(4)
O12A O -0.02177(13) -0.0156(2) 0.3105(5)
O12C O 0.02177(13) 0.0156(2) 0.6895(5)
O13C O 0.54147(13) 0.2464(2) -0.2793(4)
O14C O 0.57560(13) 0.3302(2) -0.0980(4)
O16A O 0.01829(14) -0.2479(2) 0.4839(5)
O17B O 0.04649(15) -0.1511(2) 0.8319(4)
O18 O 0.5898(2) 0.0004(3) 0.3485(8)
H34 H 0.589(3) 0.047(2) 0.378(13)
H35 H 0.6184(18) -0.015(5) 0.325(13)
loop_
_geom_bond_atom_site_label_1
_geom_bond_atom_site_label_2
_geom_bond_site_symmetry_1
_geom_bond_site_symmetry_2
Pr1 O1 1_555 1_555
Pr2 O2 1_555 1_555
C1 C2 1_555 1_555
C2 H1 1_555 1_555
H2 C2 1_555 1_555
C3 C4 1_555 1_555
C4 H3 1_555 1_555
C5 C4 1_555 1_555
H4 C5 1_555 1_555
C6 C5 1_555 1_555
C7 C6 1_555 1_555
H5 C7 1_555 1_555
C8 C3 1_555 1_555
H6 C8 1_555 1_555
C9 C6 1_555 1_555
H7 C9 1_555 1_555
H8 C9 1_555 1_555
C10 C9 1_555 1_555
H9 C10 1_555 1_555
H10 C10 1_555 1_555
C11 C10 1_555 1_555
C12 C13 1_555 1_555
C13 H11 1_555 1_555
H12 C13 1_555 1_555
C14 C13 1_555 1_555
H13 C14 1_555 1_555
C15 C14 1_555 1_555
C16 C15 1_555 1_555
H14 C16 1_555 1_555
C17 C16 1_555 1_555
H15 C17 1_555 1_555
C18 C17 1_555 1_555
C19 C18 1_555 1_555
H16 C19 1_555 1_555
C20 C15 1_555 1_555
H17 C20 1_555 1_555
C21 H18 1_555 1_555
H19 C21 1_555 1_555
C22 C21 1_555 1_555
C23 C24 1_555 1_555
C24 H20 1_555 1_555
H21 C24 1_555 1_555
C25 C26 1_555 1_555
C26 H22 1_555 1_555
C27 C26 1_555 1_555
H23 C27 1_555 1_555
C28 C27 1_555 1_555
C29 C28 1_555 1_555
H24 C29 1_555 1_555
C30 C25 1_555 1_555
H25 C30 1_555 1_555
C31 C28 1_555 1_555
H26 C31 1_555 1_555
H27 C31 1_555 1_555
C32 C31 1_555 1_555
H28 C32 1_555 1_555
H29 C32 1_555 1_555
C33 C32 1_555 1_555
O1 H30 1_555 1_555
H31 O1 1_555 1_555
O2 C33 1_555 1_555
O3 Pr2 1_555 1_555
H32 O3 1_555 1_555
H33 O3 1_555 1_555
O4 C33 1_555 1_555
O5 C24 1_555 1_555
O6 C23 1_555 1_555
O7 Pr1 1_555 1_555
O8 Pr1 1_555 1_555
O9 Pr1 1_555 1_555
O10 C18 1_555 1_555
O11 C22 1_555 1_555
O12 C22 1_555 1_555
O13 Pr1 1_555 1_555
O14 C11 1_555 1_555
O15 C2 1_555 1_555
O16 C1 1_555 1_555
O17 C1 1_555 1_555
O18 H34 1_555 1_555
H35 O18 1_555 1_555
Pr1C O6 1_555 1_555
Pr2A O11 1_555 1_555
Pr2A_2 O16 1_555 1_555
Pr2B O4 1_555 1_555
Pr2B_2 O17 1_555 1_555
Pr2C O12 1_555 1_555
O4B Pr2 1_555 1_555
O6C Pr1 1_555 1_555
O8C Pr1 1_555 1_555
O11A Pr2 1_555 1_555
O12A Pr2 1_555 1_555
O12C Pr2 1_555 1_555
O13C Pr1 1_555 1_555
O14C Pr1 1_555 1_555
O16A Pr2 1_555 1_555
O17B Pr2 1_555 1_555
C3 O15 1_555 1_555
C7 C8 1_555 1_555
C11 O13 1_555 1_555
C12 O8 1_555 1_555
C12 O9 1_555 1_555
C19 C20 1_555 1_555
C21 O10 1_555 1_555
C23 O7 1_555 1_555
C25 O5 1_555 1_555
C29 C30 1_555 1_555
O8 Pr1C 1_555 1_555
O12 Pr2A 1_555 1_555
O13 Pr1C 1_555 1_555
O14 Pr1C 1_555 1_555
Pr2B O12A 1_555 1_555
Pr2B O12C 1_555 1_555

#END
