
#######################################################################
#
#                 Cambridge Crystallographic Data Centre
#                                CCDC 
#
#######################################################################
#
# If this CIF has been generated from an entry in the Cambridge 
# Structural Database, then it will include bibliographic, chemical, 
# crystal, experimental, refinement or atomic coordinate data resulting 
# from the CCDC's data processing and validation procedures.
#
#######################################################################

data_DIPROL
_symmetry_cell_setting           triclinic
_symmetry_space_group_name_H-M   'P -1'
_symmetry_Int_Tables_number      2
_space_group_name_Hall           '-P 1'
loop_
_symmetry_equiv_pos_site_id
_symmetry_equiv_pos_as_xyz
1 x,y,z
2 -x,-y,-z
_cell_length_a                   8.634(5)
_cell_length_b                   12.227(7)
_cell_length_c                   15.300(9)
_cell_angle_alpha                86.617(8)
_cell_angle_beta                 89.204(8)
_cell_angle_gamma                75.531(8)
_cell_volume                     1561.23
loop_
_atom_site_label
_atom_site_type_symbol
_atom_site_fract_x
_atom_site_fract_y
_atom_site_fract_z
Ge1 Ge 0.78137(3) 0.20315(2) 0.225212(19)
O1 O 0.9025(2) 0.28874(15) 0.15424(12)
O2 O 0.8501(3) 0.24455(18) 0.01879(14)
O3 O 0.6494(2) 0.13308(16) 0.30731(12)
O4 O 0.7715(3) -0.05134(19) 0.31365(17)
N1 N 0.7161(3) 0.33390(19) 0.29350(15)
N2 N 0.5890(3) 0.27137(18) 0.16064(14)
N3 N 0.8458(2) 0.07144(17) 0.15890(14)
N4 N 0.9704(3) 0.13791(18) 0.29306(15)
C1 C 0.6144(3) 0.4234(2) 0.2444(2)
C2 C 0.5943(4) 0.5384(3) 0.2542(2)
H1 H 0.6451 0.5617 0.3002
C3 C 0.5023(5) 0.6174(3) 0.1979(3)
H2 H 0.4886 0.6939 0.2064
C4 C 0.4282(5) 0.5840(3) 0.1275(3)
H3 H 0.3619 0.6384 0.0905
C5 C 0.4524(4) 0.4711(3) 0.1123(2)
H4 H 0.4085 0.4496 0.0629
C6 C 0.5431(3) 0.3887(2) 0.1713(2)
C7 C 0.5106(3) 0.2080(3) 0.11951(19)
C8 C 0.3403(4) 0.2534(3) 0.0921(2)
H5 H 0.2860 0.3065 0.1330
H6 H 0.2892 0.1922 0.0908
H7 H 0.3362 0.2906 0.0348
C9 C 0.5803(3) 0.0954(3) 0.1040(2)
H8 H 0.5125 0.0574 0.0793
C10 C 0.7372(3) 0.0299(2) 0.11972(18)
C11 C 0.7770(4) -0.0913(2) 0.0940(2)
H9 H 0.8549 -0.1372 0.1339
H10 H 0.8196 -0.0953 0.0356
H11 H 0.6818 -0.1185 0.0960
C12 C 1.0098(3) 0.0214(2) 0.17136(18)
C13 C 1.1079(3) -0.0500(2) 0.1147(2)
H12 H 1.0647 -0.0714 0.0651
C14 C 1.2715(4) -0.0899(3) 0.1322(2)
H13 H 1.3357 -0.1410 0.0959
C15 C 1.3372(4) -0.0544(3) 0.2022(2)
H14 H 1.4462 -0.0811 0.2131
C16 C 1.2436(3) 0.0209(3) 0.2572(2)
H15 H 1.2907 0.0472 0.3033
C17 C 1.0797(3) 0.0576(2) 0.24391(19)
C18 C 0.9788(3) 0.1556(2) 0.37852(19)
C19 C 1.1068(4) 0.0808(3) 0.4359(2)
H16 H 1.109(4) 0.0071(12) 0.419(2)
H17 H 1.065(3) 0.086(3) 0.4936(10)
H18 H 1.2044(16) 0.101(2) 0.431(2)
C20 C 0.8682(4) 0.2425(3) 0.4173(2)
H19 H 0.8749 0.2420 0.4779
C21 C 0.7500(4) 0.3292(3) 0.3791(2)
C22 C 0.6545(5) 0.4161(3) 0.4386(2)
H20 H 0.5498 0.4473 0.4143
H21 H 0.7079 0.4755 0.4438
H22 H 0.6453 0.3806 0.4954
C23 C 0.8954(3) 0.3040(2) 0.06831(19)
C24 C 0.9502(3) 0.4062(2) 0.03390(19)
C25 C 0.9623(4) 0.4905(2) 0.0877(2)
H23 H 0.9375 0.4844 0.1468
C26 C 0.9884(4) 0.4152(2) -0.05379(19)
H24 H 0.9813 0.3585 -0.0902
C27 C 0.6750(3) 0.0298(2) 0.34068(19)
C28 C 0.5802(3) 0.0172(2) 0.42205(19)
C29 C 0.5253(3) 0.1050(2) 0.47649(19)
H25 H 0.5430 0.1757 0.4614
C30 C 0.5557(3) -0.0893(2) 0.44669(19)
H26 H 0.5939 -0.1497 0.4115
O1A O 1.0975(2) 0.71126(15) -0.15424(12)
O2A O 1.1499(3) 0.75545(18) -0.01879(14)
C23A C 1.1046(3) 0.6960(2) -0.06831(19)
C24A C 1.0498(3) 0.5938(2) -0.03390(19)
C25A C 1.0377(4) 0.5095(2) -0.0877(2)
H23A H 1.0625 0.5156 -0.1468
C26A C 1.0116(4) 0.5848(2) 0.05379(19)
H24A H 1.0187 0.6415 0.0902
O3A O 0.3506(2) -0.13308(16) 0.69269(12)
O4A O 0.2285(3) 0.05134(19) 0.68635(17)
C27A C 0.3250(3) -0.0298(2) 0.65932(19)
C28A C 0.4198(3) -0.0172(2) 0.57795(19)
C29A C 0.4747(3) -0.1050(2) 0.52351(19)
H25A H 0.4570 -0.1757 0.5386
C30A C 0.4443(3) 0.0893(2) 0.55331(19)
H26A H 0.4061 0.1497 0.5885
Ge1A Ge 0.21863(3) -0.20315(2) 0.774788(19)
N1A N 0.2839(3) -0.33390(19) 0.70650(15)
N2A N 0.4110(3) -0.27137(18) 0.83936(14)
N3A N 0.1542(2) -0.07144(17) 0.84110(14)
N4A N 0.0296(3) -0.13791(18) 0.70694(15)
C1A C 0.3856(3) -0.4234(2) 0.7556(2)
C2A C 0.4057(4) -0.5384(3) 0.7458(2)
H1A H 0.3549 -0.5617 0.6998
C3A C 0.4977(5) -0.6174(3) 0.8021(3)
H2A H 0.5114 -0.6939 0.7936
C4A C 0.5718(5) -0.5840(3) 0.8725(3)
H3A H 0.6381 -0.6384 0.9095
C5A C 0.5476(4) -0.4711(3) 0.8877(2)
H4A H 0.5915 -0.4496 0.9371
C6A C 0.4569(3) -0.3887(2) 0.8287(2)
C7A C 0.4894(3) -0.2080(3) 0.88049(19)
C8A C 0.6597(4) -0.2534(3) 0.9079(2)
H5A H 0.7140 -0.3065 0.8670
H6A H 0.7108 -0.1922 0.9092
H7A H 0.6638 -0.2906 0.9652
C9A C 0.4197(3) -0.0954(3) 0.8960(2)
H8A H 0.4875 -0.0574 0.9207
C10A C 0.2628(3) -0.0299(2) 0.88028(18)
C11A C 0.2230(4) 0.0913(2) 0.9060(2)
H9A H 0.1451 0.1372 0.8661
H10A H 0.1804 0.0953 0.9644
H11A H 0.3182 0.1185 0.9040
C12A C -0.0098(3) -0.0214(2) 0.82864(18)
C13A C -0.1079(3) 0.0500(2) 0.8853(2)
H12A H -0.0647 0.0714 0.9349
C14A C -0.2715(4) 0.0899(3) 0.8678(2)
H13A H -0.3357 0.1410 0.9041
C15A C -0.3372(4) 0.0544(3) 0.7978(2)
H14A H -0.4462 0.0811 0.7869
C16A C -0.2436(3) -0.0209(3) 0.7428(2)
H15A H -0.2907 -0.0472 0.6967
C17A C -0.0797(3) -0.0576(2) 0.75609(19)
C18A C 0.0212(3) -0.1556(2) 0.62148(19)
C19A C -0.1068(4) -0.0808(3) 0.5641(2)
H16A H -0.109(4) -0.0071(12) 0.581(2)
H17A H -0.065(3) -0.086(3) 0.5064(10)
H18A H -0.2044(16) -0.101(2) 0.569(2)
C20A C 0.1318(4) -0.2425(3) 0.5827(2)
H19A H 0.1251 -0.2420 0.5221
C21A C 0.2500(4) -0.3292(3) 0.6209(2)
C22A C 0.3455(5) -0.4161(3) 0.5614(2)
H20A H 0.4502 -0.4473 0.5857
H21A H 0.2921 -0.4755 0.5562
H22A H 0.3547 -0.3806 0.5046
Ge1A_2 Ge 1.21863(3) 0.79685(2) -0.225212(19)
O1A_2 O 0.0975(2) -0.28874(15) 0.84576(12)
O5 O -0.1025(12) 0.6510(12) 0.3937(8)
O6 O 0.1034(12) 0.5515(7) 0.3206(7)
C31 C 0.0779(8) 0.7381(5) 0.3193(5)
H27 H 0.0093 0.8063 0.2936
H28 H 0.1692 0.7135 0.2824
H29 H 0.1128 0.7524 0.3759
C32 C -0.0128(15) 0.6470(10) 0.3290(10)
C33 C 0.1489(18) 0.4486(9) 0.3841(8)
H30 H 0.2231 0.4599 0.4277
H31 H 0.0545 0.4358 0.4138
C34 C 0.2225(9) 0.3531(6) 0.3341(6)
H32 H 0.1779 0.3641 0.2761
H33 H 0.2029 0.2855 0.3621
H34 H 0.3357 0.3460 0.3306
loop_
_geom_bond_atom_site_label_1
_geom_bond_atom_site_label_2
_geom_bond_site_symmetry_1
_geom_bond_site_symmetry_2
Ge1 O1 1_555 1_555
O1 C23 1_555 1_555
O2 C23 1_555 1_555
O3 Ge1 1_555 1_555
O4 C27 1_555 1_555
N1 Ge1 1_555 1_555
N2 Ge1 1_555 1_555
N3 Ge1 1_555 1_555
N4 Ge1 1_555 1_555
C1 N1 1_555 1_555
C2 C1 1_555 1_555
H1 C2 1_555 1_555
C3 C2 1_555 1_555
H2 C3 1_555 1_555
C4 C3 1_555 1_555
H3 C4 1_555 1_555
C5 C4 1_555 1_555
H4 C5 1_555 1_555
C6 N2 1_555 1_555
C7 N2 1_555 1_555
C8 C7 1_555 1_555
H5 C8 1_555 1_555
H6 C8 1_555 1_555
H7 C8 1_555 1_555
C9 C7 1_555 1_555
H8 C9 1_555 1_555
C10 N3 1_555 1_555
C11 C10 1_555 1_555
H9 C11 1_555 1_555
H10 C11 1_555 1_555
H11 C11 1_555 1_555
C12 N3 1_555 1_555
C13 C12 1_555 1_555
H12 C13 1_555 1_555
C14 C13 1_555 1_555
H13 C14 1_555 1_555
C15 C14 1_555 1_555
H14 C15 1_555 1_555
C16 C15 1_555 1_555
H15 C16 1_555 1_555
C17 N4 1_555 1_555
C18 N4 1_555 1_555
C19 C18 1_555 1_555
H16 C19 1_555 1_555
H17 C19 1_555 1_555
H18 C19 1_555 1_555
C20 C18 1_555 1_555
H19 C20 1_555 1_555
C21 N1 1_555 1_555
C22 C21 1_555 1_555
H20 C22 1_555 1_555
H21 C22 1_555 1_555
H22 C22 1_555 1_555
C23 C24 1_555 1_555
C24 C25 1_555 1_555
C25 H23 1_555 1_555
C26 C24 1_555 1_555
H24 C26 1_555 1_555
C27 O3 1_555 1_555
C28 C27 1_555 1_555
C29 C28 1_555 1_555
H25 C29 1_555 1_555
C30 C28 1_555 1_555
H26 C30 1_555 1_555
O5 C32 1_555 1_555
O6 C32 1_555 1_555
C31 H27 1_555 1_555
H28 C31 1_555 1_555
H29 C31 1_555 1_555
C32 C31 1_555 1_555
C33 O6 1_555 1_555
H30 C33 1_555 1_555
H31 C33 1_555 1_555
C34 C33 1_555 1_555
H32 C34 1_555 1_555
H33 C34 1_555 1_555
H34 C34 1_555 1_555
O1A C23A 1_555 1_555
O2A C23A 1_555 1_555
C23A C24A 1_555 1_555
C24A C25A 1_555 1_555
C25A C26 1_555 1_555
H23A C25A 1_555 1_555
C26A C25 1_555 1_555
H24A C26A 1_555 1_555
O3A C27A 1_555 1_555
O4A C27A 1_555 1_555
C27A C28A 1_555 1_555
C28A C29A 1_555 1_555
C29A C30 1_555 1_555
H25A C29A 1_555 1_555
C30A C29 1_555 1_555
H26A C30A 1_555 1_555
Ge1A O3A 1_555 1_555
N1A Ge1A 1_555 1_555
N2A Ge1A 1_555 1_555
N3A Ge1A 1_555 1_555
N4A Ge1A 1_555 1_555
C1A N1A 1_555 1_555
C2A C1A 1_555 1_555
H1A C2A 1_555 1_555
C3A C2A 1_555 1_555
H2A C3A 1_555 1_555
C4A C3A 1_555 1_555
H3A C4A 1_555 1_555
C5A C4A 1_555 1_555
H4A C5A 1_555 1_555
C6A N2A 1_555 1_555
C7A N2A 1_555 1_555
C8A C7A 1_555 1_555
H5A C8A 1_555 1_555
H6A C8A 1_555 1_555
H7A C8A 1_555 1_555
C9A C7A 1_555 1_555
H8A C9A 1_555 1_555
C10A N3A 1_555 1_555
C11A C10A 1_555 1_555
H9A C11A 1_555 1_555
H10A C11A 1_555 1_555
H11A C11A 1_555 1_555
C12A N3A 1_555 1_555
C13A C12A 1_555 1_555
H12A C13A 1_555 1_555
C14A C13A 1_555 1_555
H13A C14A 1_555 1_555
C15A C14A 1_555 1_555
H14A C15A 1_555 1_555
C16A C15A 1_555 1_555
H15A C16A 1_555 1_555
C17A N4A 1_555 1_555
C18A N4A 1_555 1_555
C19A C18A 1_555 1_555
H16A C19A 1_555 1_555
H17A C19A 1_555 1_555
H18A C19A 1_555 1_555
C20A C18A 1_555 1_555
H19A C20A 1_555 1_555
C21A N1A 1_555 1_555
C22A C21A 1_555 1_555
H20A C22A 1_555 1_555
H21A C22A 1_555 1_555
H22A C22A 1_555 1_555
Ge1A_2 O1A 1_555 1_555
O1A_2 Ge1A 1_555 1_555
C1 C6 1_555 1_555
C5 C6 1_555 1_555
C9 C10 1_555 1_555
C12 C17 1_555 1_555
C16 C17 1_555 1_555
C20 C21 1_555 1_555
C24A C26A 1_555 1_555
C28A C30A 1_555 1_555
C1A C6A 1_555 1_555
C5A C6A 1_555 1_555
C9A C10A 1_555 1_555
C12A C17A 1_555 1_555
C16A C17A 1_555 1_555
C20A C21A 1_555 1_555

#END
