
#######################################################################
#
#                 Cambridge Crystallographic Data Centre
#                                CCDC 
#
#######################################################################
#
# If this CIF has been generated from an entry in the Cambridge 
# Structural Database, then it will include bibliographic, chemical, 
# crystal, experimental, refinement or atomic coordinate data resulting 
# from the CCDC's data processing and validation procedures.
#
#######################################################################

data_DIQHAO
_symmetry_cell_setting           monoclinic
_symmetry_space_group_name_H-M   'P 21/c'
_symmetry_Int_Tables_number      14
_space_group_name_Hall           '-P 2ybc'
loop_
_symmetry_equiv_pos_site_id
_symmetry_equiv_pos_as_xyz
1 x,y,z
2 -x,1/2+y,1/2-z
3 -x,-y,-z
4 x,1/2-y,1/2+z
_cell_length_a                   9.9838(4)
_cell_length_b                   19.7383(8)
_cell_length_c                   19.7279(9)
_cell_angle_alpha                90
_cell_angle_beta                 106.960(3)
_cell_angle_gamma                90
_cell_volume                     3718.56
loop_
_atom_site_label
_atom_site_type_symbol
_atom_site_fract_x
_atom_site_fract_y
_atom_site_fract_z
Co1 Co -0.12059(5) 0.01741(2) 0.56917(2)
C1 C -0.2331(4) -0.1208(2) 0.60287(19)
H1 H -0.1499 -0.1213 0.6396
C2 C -0.3257(4) -0.17376(18) 0.59854(19)
H2 H -0.3042 -0.2086 0.6317
C3 C -0.4511(4) -0.17473(18) 0.54436(19)
C4 C -0.4736(4) -0.12181(19) 0.49683(18)
H3 H -0.5553 -0.1203 0.4591
C5 C -0.3759(4) -0.07135(19) 0.50488(19)
H4 H -0.3943 -0.0366 0.4716
C6 C -0.5608(4) -0.22720(18) 0.5384(2)
C7 C -0.5835(4) -0.25909(18) 0.59615(19)
H5 H -0.5251 -0.2501 0.6414
C8 C -0.6934(4) -0.30452(18) 0.58703(19)
C9 C -0.7774(3) -0.31741(16) 0.52291(17)
H6 H -0.8508 -0.3479 0.5174
C10 C -0.7582(4) -0.28719(18) 0.4661(2)
C11 C -0.7198(4) -0.3400(2) 0.64858(19)
C12 C -0.6404(4) -0.3313(2) 0.7170(2)
H7 H -0.5652 -0.3014 0.7264
C13 C -0.6668(4) -0.3651(2) 0.7727(2)
H8 H -0.6081 -0.3585 0.8184
C14 C -0.7781(4) -0.40810(19) 0.76192(19)
C15 C -0.8151(4) -0.4411(2) 0.8227(2)
C16 C -0.8587(5) -0.4178(2) 0.6939(2)
H9 H -0.9340 -0.4476 0.6848
C17 C -0.8307(5) -0.3839(2) 0.6379(2)
H10 H -0.8883 -0.3912 0.5921
C18 C -0.8591(4) -0.2991(2) 0.3955(2)
C19 C -0.9441(5) -0.3562(2) 0.3823(2)
H11 H -0.9349 -0.3889 0.4173
C20 C -1.0429(6) -0.3645(3) 0.3166(3)
H12 H -1.0968 -0.4038 0.3085
C21 C -0.9829(6) -0.2667(3) 0.2764(3)
H13 H -0.9938 -0.2361 0.2394
C22 C -0.8810(5) -0.2538(2) 0.3408(2)
H14 H -0.8280 -0.2143 0.3465
C23 C -0.1695(4) 0.04973(16) 0.41515(18)
C24 C -0.2673(4) 0.07149(16) 0.34541(18)
C25 C -0.4069(4) 0.08270(18) 0.33808(19)
H15 H -0.4422 0.0743 0.3760
C26 C -0.4955(4) 0.1066(2) 0.2743(2)
H16 H -0.5891 0.1151 0.2704
C27 C -0.4459(4) 0.11783(17) 0.21698(19)
C28 C -0.3071(4) 0.10324(19) 0.2235(2)
H17 H -0.2729 0.1084 0.1847
C29 C -0.2189(4) 0.08101(18) 0.28763(19)
H18 H -0.1253 0.0724 0.2917
C30 C -0.5391(4) 0.14580(19) 0.1494(2)
C31 C -0.6250(4) 0.20033(18) 0.15091(19)
H19 H -0.6248 0.2196 0.1940
C32 C -0.7116(4) 0.22624(19) 0.0878(2)
C33 C -0.6310(4) 0.14495(19) 0.0233(2)
C34 C -0.5416(4) 0.11903(18) 0.08490(19)
H20 H -0.4827 0.0832 0.0827
C35 C -0.8035(4) 0.28512(19) 0.08619(19)
C36 C -0.7717(4) 0.3367(2) 0.13589(19)
H21 H -0.6889 0.3352 0.1729
C37 C -0.8624(4) 0.39009(19) 0.13057(19)
H22 H -0.8371 0.4245 0.1641
C38 C -1.0166(4) 0.34483(19) 0.0331(2)
H23 H -1.1024 0.3462 -0.0019
C39 C -0.9303(4) 0.29075(18) 0.03332(19)
H24 H -0.9565 0.2579 -0.0018
C40 C -0.6406(5) 0.1184(2) -0.0477(2)
C41 C -0.7537(5) 0.1351(2) -0.1048(3)
H25 H -0.8258 0.1615 -0.0980
C42 C -0.7598(6) 0.1124(3) -0.1727(3)
H26 H -0.8378 0.1241 -0.2100
C43 C -0.5528(6) 0.0585(2) -0.1337(3)
H27 H -0.4825 0.0323 -0.1427
C44 C -0.5395(5) 0.0789(2) -0.0629(2)
H28 H -0.4616 0.0654 -0.0265
N1 N -0.2559(3) -0.06885(14) 0.55731(15)
N2 N -0.6486(4) -0.24173(16) 0.47061(18)
N3 N -1.0635(5) -0.3204(3) 0.2663(2)
N4 N -0.9855(3) 0.39556(14) 0.07977(15)
N5 N -0.7163(3) 0.19809(17) 0.02483(17)
N6 N -0.6622(5) 0.0756(2) -0.1870(2)
O1 O -0.2196(2) 0.04058(10) 0.46563(11)
O2 O -0.0418(2) 0.04409(11) 0.41892(12)
O3 O -0.7481(3) -0.42440(12) 0.88502(13)
O4 O -0.9149(3) -0.48198(13) 0.81140(12)
Co1A Co -0.87941(5) -0.48259(2) 0.93083(2)
Co1B Co 0.12059(5) -0.01741(2) 0.43083(2)
Co1C Co -1.12059(5) 0.48259(2) 0.06917(2)
N4C N 0.0145(3) 0.10444(14) 0.57977(15)
O2B O 0.0418(2) -0.04409(11) 0.58108(12)
O3A O -0.2519(3) 0.07560(12) 0.61498(13)
O4A O -0.0851(3) 0.01802(13) 0.68860(12)
loop_
_geom_bond_atom_site_label_1
_geom_bond_atom_site_label_2
_geom_bond_site_symmetry_1
_geom_bond_site_symmetry_2
Co1 N1 1_555 1_555
C1 H1 1_555 1_555
C2 C1 1_555 1_555
H2 C2 1_555 1_555
C3 C2 1_555 1_555
C4 C3 1_555 1_555
H3 C4 1_555 1_555
C5 C4 1_555 1_555
H4 C5 1_555 1_555
C6 C3 1_555 1_555
C7 C6 1_555 1_555
H5 C7 1_555 1_555
C8 C7 1_555 1_555
C9 C8 1_555 1_555
H6 C9 1_555 1_555
C10 C9 1_555 1_555
C11 C8 1_555 1_555
C12 C11 1_555 1_555
H7 C12 1_555 1_555
C13 C12 1_555 1_555
H8 C13 1_555 1_555
C14 C13 1_555 1_555
C15 C14 1_555 1_555
C16 C14 1_555 1_555
H9 C16 1_555 1_555
C17 C11 1_555 1_555
H10 C17 1_555 1_555
C18 C10 1_555 1_555
C19 C18 1_555 1_555
H11 C19 1_555 1_555
C20 C19 1_555 1_555
H12 C20 1_555 1_555
C21 H13 1_555 1_555
C22 C18 1_555 1_555
H14 C22 1_555 1_555
C23 C24 1_555 1_555
C24 C25 1_555 1_555
C25 H15 1_555 1_555
C26 C25 1_555 1_555
H16 C26 1_555 1_555
C27 C26 1_555 1_555
C28 C27 1_555 1_555
H17 C28 1_555 1_555
C29 C24 1_555 1_555
H18 C29 1_555 1_555
C30 C27 1_555 1_555
C31 C30 1_555 1_555
H19 C31 1_555 1_555
C32 C31 1_555 1_555
C33 C34 1_555 1_555
C34 C30 1_555 1_555
H20 C34 1_555 1_555
C35 C32 1_555 1_555
C36 C35 1_555 1_555
H21 C36 1_555 1_555
C37 C36 1_555 1_555
H22 C37 1_555 1_555
C38 H23 1_555 1_555
C39 C35 1_555 1_555
H24 C39 1_555 1_555
C40 C33 1_555 1_555
C41 C40 1_555 1_555
H25 C41 1_555 1_555
C42 C41 1_555 1_555
H26 C42 1_555 1_555
C43 H27 1_555 1_555
C44 C40 1_555 1_555
H28 C44 1_555 1_555
N1 C1 1_555 1_555
N2 C6 1_555 1_555
N3 C20 1_555 1_555
N4 C37 1_555 1_555
N5 C32 1_555 1_555
N6 C42 1_555 1_555
O1 Co1 1_555 1_555
O2 C23 1_555 1_555
O3 C15 1_555 1_555
O4 C15 1_555 1_555
Co1A O3 1_555 1_555
Co1B O2 1_555 1_555
Co1C N4 1_555 1_555
N4C Co1 1_555 1_555
O2B Co1 1_555 1_555
O3A Co1 1_555 1_555
O4A Co1 1_555 1_555
C5 N1 1_555 1_555
C10 N2 1_555 1_555
C16 C17 1_555 1_555
C21 C22 1_555 1_555
C21 N3 1_555 1_555
C23 O1 1_555 1_555
C28 C29 1_555 1_555
C33 N5 1_555 1_555
C38 C39 1_555 1_555
C38 N4 1_555 1_555
C43 C44 1_555 1_555
C43 N6 1_555 1_555
O4 Co1A 1_555 1_555

#END
