
#######################################################################
#
#                 Cambridge Crystallographic Data Centre
#                                CCDC 
#
#######################################################################
#
# If this CIF has been generated from an entry in the Cambridge 
# Structural Database, then it will include bibliographic, chemical, 
# crystal, experimental, refinement or atomic coordinate data resulting 
# from the CCDC's data processing and validation procedures.
#
#######################################################################

data_DIQXOQ
_symmetry_cell_setting           orthorhombic
_symmetry_space_group_name_H-M   'P 21 21 21'
_symmetry_Int_Tables_number      19
_space_group_name_Hall           'P 2ac 2ab'
loop_
_symmetry_equiv_pos_site_id
_symmetry_equiv_pos_as_xyz
1 x,y,z
2 1/2-x,-y,1/2+z
3 -x,1/2+y,1/2-z
4 1/2+x,1/2-y,-z
_cell_length_a                   6.3480(1)
_cell_length_b                   9.5489(1)
_cell_length_c                   18.2304(3)
_cell_angle_alpha                90
_cell_angle_beta                 90
_cell_angle_gamma                90
_cell_volume                     1105.06
loop_
_atom_site_label
_atom_site_type_symbol
_atom_site_fract_x
_atom_site_fract_y
_atom_site_fract_z
Zn1 Zn -0.45104(7) 0.24346(5) 0.43961(2)
O1 O -0.4186(13) -0.0317(6) 0.3265(3)
O2 O -0.4475(12) 0.0084(5) 0.4472(3)
O3 O -0.0823(8) 0.2449(6) 0.4454(2)
O4 O -0.3094(7) 0.2269(5) 0.3202(3)
H1 H -0.3960 0.2142 0.2796
O5 O 0.2218(8) 0.2320(8) 0.3865(4)
N1 N -0.4639(12) -0.5169(6) 0.4273(3)
C1 C -0.4919(16) -0.4619(8) 0.3600(5)
H2 H -0.5218 -0.5217 0.3211
C2 C -0.4775(15) -0.3175(7) 0.3464(4)
H3 H -0.4862 -0.2828 0.2988
C3 C -0.4499(12) -0.2274(8) 0.4057(4)
C4 C -0.4353(13) -0.2815(8) 0.4743(4)
H4 H -0.4230 -0.2224 0.5146
C5 C -0.4387(13) -0.4264(8) 0.4839(4)
H5 H -0.4230 -0.4624 0.5311
C6 C -0.4361(13) -0.0705(7) 0.3916(4)
C7 C 0.0300(9) 0.2380(7) 0.3880(4)
C8 C -0.0881(11) 0.2369(9) 0.3126(4)
H6 H -0.0365 0.1590 0.2825
C9 C -0.0363(19) 0.3820(15) 0.2728(6)
H7 H -0.1059 0.3849 0.2261
H8 H 0.1131 0.3901 0.2657
H9 H -0.0850 0.4582 0.3027
N1_2 N -0.4639(12) 0.4831(6) 0.4273(3)
Zn1_2 Zn -0.45104(7) -0.75654(5) 0.43961(2)
Zn1C Zn 0.04896(7) 0.25654(5) 0.56039(2)
Zn1_3 Zn 0.54896(7) 0.24346(5) 0.43961(2)
O5_2 O -0.7782(8) 0.2320(8) 0.3865(4)
O3C O -0.5823(8) 0.2551(6) 0.5546(2)
loop_
_geom_bond_atom_site_label_1
_geom_bond_atom_site_label_2
_geom_bond_site_symmetry_1
_geom_bond_site_symmetry_2
Zn1 O2 1_555 1_555
O1 C6 1_555 1_555
O2 C6 1_555 1_555
O3 Zn1 1_555 1_555
O4 Zn1 1_555 1_555
H1 O4 1_555 1_555
O5 C7 1_555 1_555
N1 C1 1_555 1_555
C1 H2 1_555 1_555
C2 C1 1_555 1_555
H3 C2 1_555 1_555
C3 C2 1_555 1_555
C4 C3 1_555 1_555
H4 C4 1_555 1_555
C5 N1 1_555 1_555
H5 C5 1_555 1_555
C6 C3 1_555 1_555
C7 O3 1_555 1_555
C8 O4 1_555 1_555
H6 C8 1_555 1_555
C9 C8 1_555 1_555
H7 C9 1_555 1_555
H8 C9 1_555 1_555
H9 C9 1_555 1_555
N1_2 Zn1 1_555 1_555
Zn1_2 N1 1_555 1_555
Zn1C O3 1_555 1_555
Zn1_3 O5 1_555 1_555
O5_2 Zn1 1_555 1_555
O3C Zn1 1_555 1_555
C4 C5 1_555 1_555
C7 C8 1_555 1_555

#END
