
#######################################################################
#
#                 Cambridge Crystallographic Data Centre
#                                CCDC 
#
#######################################################################
#
# If this CIF has been generated from an entry in the Cambridge 
# Structural Database, then it will include bibliographic, chemical, 
# crystal, experimental, refinement or atomic coordinate data resulting 
# from the CCDC's data processing and validation procedures.
#
#######################################################################

data_DIRMOI
_symmetry_cell_setting           triclinic
_symmetry_space_group_name_H-M   'P -1'
_symmetry_Int_Tables_number      2
_space_group_name_Hall           '-P 1'
loop_
_symmetry_equiv_pos_site_id
_symmetry_equiv_pos_as_xyz
1 x,y,z
2 -x,-y,-z
_cell_length_a                   9.962(4)
_cell_length_b                   10.641(4)
_cell_length_c                   17.524(7)
_cell_angle_alpha                86.709(5)
_cell_angle_beta                 79.071(5)
_cell_angle_gamma                66.811(3)
_cell_volume                     1676.29
loop_
_atom_site_label
_atom_site_type_symbol
_atom_site_fract_x
_atom_site_fract_y
_atom_site_fract_z
C1 C 0.5707(5) 0.7976(5) 1.0271(3)
C2 C 0.5524(5) 0.6863(5) 1.0793(3)
C3 C 0.4529(6) 0.6298(5) 1.0685(3)
H1 H 0.4044 0.6561 1.0262
C4 C 0.4246(6) 0.5349(5) 1.1196(3)
H2 H 0.3573 0.4989 1.1111
C5 C 0.4953(6) 0.4929(5) 1.1831(3)
C6 C 0.5999(6) 0.5465(5) 1.1930(3)
H3 H 0.6488 0.5195 1.2351
C7 C 0.6311(6) 0.6388(5) 1.1409(3)
H4 H 0.7041 0.6694 1.1467
C8 C 0.4578(6) 0.3946(5) 1.2380(3)
C9 C 0.4120(6) 0.3001(5) 1.2111(3)
H5 H 0.4099 0.2952 1.1586
C10 C 0.3689(6) 0.2123(5) 1.2635(3)
C11 C 0.4252(6) 0.2988(5) 1.3646(3)
C12 C 0.4663(6) 0.3927(5) 1.3164(3)
H6 H 0.4987 0.4526 1.3366
C13 C 0.4367(6) 0.2897(6) 1.4484(3)
C14 C 0.4110(8) 0.3875(11) 1.4968(6)
H7 H 0.3825 0.4744 1.4759
C15 C 0.4577(8) 0.2659(9) 1.6010(4)
H8 H 0.4649 0.2585 1.6533
C16 C 0.4192(9) 0.3827(10) 1.5725(5)
H9 H 0.3977 0.4606 1.6018
C17 C 0.4809(9) 0.1545(11) 1.4785(6)
H10 H 0.5017 0.0778 1.4483
C18 C 0.3188(6) 0.1106(5) 1.2359(3)
C19 C 0.2904(7) 0.0145(6) 1.2873(3)
H11 H 0.2981 0.0163 1.3393
C20 C 0.2512(7) -0.0820(6) 1.2604(3)
H12 H 0.2340 -0.1476 1.2935
C21 C 0.2374(6) -0.0809(5) 1.1829(3)
H13 H 0.2100 -0.1466 1.1653
C22 C 0.3034(6) 0.1038(5) 1.1599(3)
H14 H 0.3227 0.1670 1.1254
C23 C -0.0614(5) -0.8013(5) 0.9682(3)
C24 C -0.0563(5) -0.6865(5) 0.9144(3)
C25 C -0.0858(6) -0.5581(5) 0.9438(3)
H15 H -0.1182 -0.5402 0.9969
C26 C -0.0677(5) -0.4559(5) 0.8953(3)
H16 H -0.0888 -0.3703 0.9161
C27 C -0.0180(6) -0.4807(5) 0.8155(3)
C28 C 0.0048(6) -0.6084(5) 0.7860(3)
H17 H 0.0339 -0.6255 0.7327
C29 C -0.0148(6) -0.7094(5) 0.8341(3)
H18 H -0.0002 -0.7930 0.8130
C30 C 0.0201(6) -0.3783(5) 0.7634(3)
C31 C 0.0691(6) -0.2881(5) 0.7921(3)
H19 H 0.0707 -0.2857 0.8448
C32 C 0.1160(6) -0.2010(5) 0.7413(3)
C33 C 0.0568(6) -0.2799(5) 0.6381(3)
C34 C 0.0120(6) -0.3732(5) 0.6848(3)
H20 H -0.0224 -0.4305 0.6637
C35 C 0.1801(6) -0.1099(5) 0.7686(3)
C36 C 0.1827(6) -0.0950(5) 0.8462(3)
H21 H 0.1362 -0.1388 0.8827
C37 C 0.3132(6) 0.0429(5) 0.8183(3)
H22 H 0.3612 0.0930 0.8346
C38 C 0.3117(7) 0.0377(5) 0.7398(3)
H23 H 0.3554 0.0855 0.7046
C39 C 0.2448(6) -0.0390(6) 0.7142(3)
H24 H 0.2426 -0.0437 0.6616
C40 C 0.0487(6) -0.2702(6) 0.5539(3)
C41 C 0.0150(9) -0.1397(11) 0.5223(6)
H25 H -0.0033 -0.0628 0.5518
C42 C 0.0685(9) -0.3664(11) 0.4297(5)
H26 H 0.0866 -0.4431 0.4002
C43 C 0.0374(8) -0.2454(9) 0.4006(4)
H27 H 0.0335 -0.2367 0.3479
C44 C 0.0725(8) -0.3716(10) 0.5056(6)
H28 H 0.0950 -0.4576 0.5275
Mn1 Mn 0.24901(7) 0.00455(6) 1.00258(3)
N1 N 0.2485(5) -0.0210(4) 0.8722(2)
N2 N 0.2618(5) 0.0107(4) 1.1322(2)
N3 N 0.4903(9) 0.1474(10) 1.5599(5)
N4 N 0.0108(9) -0.1345(10) 0.4402(5)
N5 N 0.1103(5) -0.1977(4) 0.6654(2)
N6 N 0.3739(5) 0.2129(4) 1.3390(2)
O1 O 0.0256(4) -0.8330(3) 1.01638(19)
O2 O -0.1490(4) -0.8549(4) 0.9616(2)
O3 O 0.6795(4) 0.8270(4) 1.0294(2)
O4 O 0.4750(4) 0.8534(3) 0.9845(2)
Mn1_2 Mn 0.24901(7) -0.99545(6) 1.00258(3)
Mn1_3 Mn 0.24901(7) 1.00455(6) 1.00258(3)
Mn1A Mn -0.24901(7) -1.00455(6) 0.99742(3)
Mn1A_2 Mn 0.75099(7) 0.99545(6) 0.99742(3)
O1_2 O 0.0256(4) 0.1670(3) 1.01638(19)
O2A O 0.1490(4) -0.1451(4) 1.0384(2)
O3A O 0.3205(4) 0.1730(4) 0.9706(2)
O4_2 O 0.4750(4) -0.1466(3) 0.9845(2)
loop_
_geom_bond_atom_site_label_1
_geom_bond_atom_site_label_2
_geom_bond_site_symmetry_1
_geom_bond_site_symmetry_2
C1 C2 1_555 1_555
C2 C3 1_555 1_555
C3 H1 1_555 1_555
C4 C3 1_555 1_555
H2 C4 1_555 1_555
C5 C4 1_555 1_555
C6 C5 1_555 1_555
H3 C6 1_555 1_555
C7 C2 1_555 1_555
H4 C7 1_555 1_555
C8 C5 1_555 1_555
C9 C8 1_555 1_555
H5 C9 1_555 1_555
C10 C9 1_555 1_555
C11 C12 1_555 1_555
C12 C8 1_555 1_555
H6 C12 1_555 1_555
C13 C11 1_555 1_555
C14 C13 1_555 1_555
H7 C14 1_555 1_555
C15 H8 1_555 1_555
C16 C14 1_555 1_555
H9 C16 1_555 1_555
C17 C13 1_555 1_555
H10 C17 1_555 1_555
C18 C10 1_555 1_555
C19 C18 1_555 1_555
H11 C19 1_555 1_555
C20 C19 1_555 1_555
H12 C20 1_555 1_555
C21 C20 1_555 1_555
H13 C21 1_555 1_555
C22 C18 1_555 1_555
H14 C22 1_555 1_555
C23 C24 1_555 1_555
C24 C25 1_555 1_555
C25 H15 1_555 1_555
C26 C25 1_555 1_555
H16 C26 1_555 1_555
C27 C26 1_555 1_555
C28 C27 1_555 1_555
H17 C28 1_555 1_555
C29 C24 1_555 1_555
H18 C29 1_555 1_555
C30 C27 1_555 1_555
C31 C30 1_555 1_555
H19 C31 1_555 1_555
C32 C31 1_555 1_555
C33 C34 1_555 1_555
C34 C30 1_555 1_555
H20 C34 1_555 1_555
C35 C32 1_555 1_555
C36 C35 1_555 1_555
H21 C36 1_555 1_555
C37 H22 1_555 1_555
C38 C37 1_555 1_555
H23 C38 1_555 1_555
C39 C35 1_555 1_555
H24 C39 1_555 1_555
C40 C33 1_555 1_555
C41 C40 1_555 1_555
H25 C41 1_555 1_555
C42 H26 1_555 1_555
C43 C42 1_555 1_555
H27 C43 1_555 1_555
C44 C40 1_555 1_555
H28 C44 1_555 1_555
Mn1 N1 1_555 1_555
N1 C36 1_555 1_555
N2 C21 1_555 1_555
N3 C15 1_555 1_555
N4 C41 1_555 1_555
N5 C32 1_555 1_555
N6 C10 1_555 1_555
O1 C23 1_555 1_555
O2 C23 1_555 1_555
O3 C1 1_555 1_555
O4 C1 1_555 1_555
Mn1_2 O1 1_555 1_555
Mn1_3 O4 1_555 1_555
Mn1A O2 1_555 1_555
Mn1A_2 O3 1_555 1_555
O1_2 Mn1 1_555 1_555
O2A Mn1 1_555 1_555
O3A Mn1 1_555 1_555
O4_2 Mn1 1_555 1_555
C6 C7 1_555 1_555
C11 N6 1_555 1_555
C15 C16 1_555 1_555
C17 N3 1_555 1_555
C22 N2 1_555 1_555
C28 C29 1_555 1_555
C33 N5 1_555 1_555
C37 N1 1_555 1_555
C38 C39 1_555 1_555
C42 C44 1_555 1_555
C43 N4 1_555 1_555
Mn1 N2 1_555 1_555

#END
