
#######################################################################
#
#                 Cambridge Crystallographic Data Centre
#                                CCDC 
#
#######################################################################
#
# If this CIF has been generated from an entry in the Cambridge 
# Structural Database, then it will include bibliographic, chemical, 
# crystal, experimental, refinement or atomic coordinate data resulting 
# from the CCDC's data processing and validation procedures.
#
#######################################################################

data_DIRMAU01
_symmetry_cell_setting           monoclinic
_symmetry_space_group_name_H-M   'P 21/c'
_symmetry_Int_Tables_number      14
_space_group_name_Hall           '-P 2ybc'
loop_
_symmetry_equiv_pos_site_id
_symmetry_equiv_pos_as_xyz
1 x,y,z
2 -x,1/2+y,1/2-z
3 -x,-y,-z
4 x,1/2-y,1/2+z
_cell_length_a                   7.271(1)
_cell_length_b                   26.803(2)
_cell_length_c                   12.866(1)
_cell_angle_alpha                90
_cell_angle_beta                 105.953(1)
_cell_angle_gamma                90
_cell_volume                     2410.82
loop_
_atom_site_label
_atom_site_type_symbol
_atom_site_fract_x
_atom_site_fract_y
_atom_site_fract_z
C1 C 1.0233(3) -0.28737(8) 0.5014(2)
C2 C 0.9447(3) -0.23523(8) 0.48607(19)
C3 C 0.8849(4) -0.21217(8) 0.56697(19)
H1 H 0.8837 -0.2300 0.6288
C4 C 0.8268(4) -0.16297(8) 0.55736(19)
H2 H 0.7863 -0.1482 0.6127
C5 C 0.8277(3) -0.13487(8) 0.46621(17)
C6 C 0.8839(4) -0.15893(9) 0.38366(18)
H3 H 0.8825 -0.1415 0.3210
C7 C 0.9415(4) -0.20828(9) 0.39355(19)
H4 H 0.9784 -0.2236 0.3376
C8 C 0.7822(3) -0.08072(8) 0.46073(16)
C9 C 0.7647(3) -0.05258(8) 0.36769(17)
H5 H 0.7685 -0.0681 0.3037
C10 C 0.7415(3) -0.00118(8) 0.37077(16)
C11 C 0.7335(3) 0.03016(8) 0.27455(16)
C12 C 0.6740(3) 0.01174(8) 0.16963(17)
H6 H 0.6282 -0.0207 0.1568
C13 C 0.6835(3) 0.04191(9) 0.08522(18)
H7 H 0.6388 0.0293 0.0154
C14 C 0.8070(3) 0.10637(8) 0.19850(17)
H8 H 0.8537 0.1388 0.2091
C15 C 0.7962(3) 0.07925(8) 0.28710(17)
H9 H 0.8308 0.0938 0.3554
C16 C 0.7171(4) 0.07643(8) 0.64467(18)
H10 H 0.6827 0.0927 0.5783
C17 C 0.7308(4) 0.10267(8) 0.73814(18)
H11 H 0.7019 0.1365 0.7326
C18 C 0.8209(4) 0.03312(8) 0.84145(18)
H12 H 0.8593 0.0180 0.9091
C19 C 0.8055(3) 0.00396(8) 0.75162(18)
H13 H 0.8290 -0.0301 0.7592
C20 C 0.7548(3) 0.02543(8) 0.64938(16)
C21 C 0.7495(3) -0.00345(8) 0.55026(16)
C22 C 0.7683(3) -0.05489(8) 0.55221(17)
H14 H 0.7716 -0.0723 0.6152
C23 C 0.4018(4) 0.14850(10) 0.8985(2)
H15 H 0.3022 0.1714 0.8800
Co1 Co 0.81860(4) 0.129290(11) 0.97206(2)
N1 N 0.7836(3) 0.08218(7) 0.83675(14)
N2 N 0.7370(3) 0.02358(6) 0.46062(13)
N3 N 0.7533(3) 0.08836(7) 0.09736(14)
O1 O 1.0427(3) -0.30926(6) 0.59062(14)
O2 O 1.0712(3) -0.30812(6) 0.42470(13)
O3 O 0.5653(2) 0.16593(6) 0.91243(14)
O4 O 0.3549(3) 0.10491(7) 0.90610(16)
O5 O 1.0970(2) 0.09092(6) 1.02839(13)
H16 H 1.1592 0.1011 1.0905
H17 H 1.1694 0.0937 0.9864
Co1_2 Co 0.81860(4) 0.129290(11) -0.02794(2)
Co1A Co 1.18140(4) -0.370710(11) 0.52794(2)
N3_2 N 0.7533(3) 0.08836(7) 1.09736(14)
O1A O 0.9573(3) 0.19074(6) 0.90938(14)
O2A O 0.9288(3) 0.19188(6) 1.07530(13)
C24 C 0.5828(5) 0.30549(19) 0.8623(3)
H18 H 0.6666 0.2782 0.8916
H19 H 0.4779 0.3058 0.8941
H20 H 0.6520 0.3363 0.8781
C25 C 0.5786(6) 0.25728(16) 0.6952(4)
H21 H 0.6632 0.2373 0.7497
H22 H 0.6458 0.2694 0.6457
H23 H 0.4716 0.2375 0.6567
C26 C 0.3903(4) 0.33331(13) 0.6888(3)
H24 H 0.3515 0.3283 0.6144
N4 N 0.5102(4) 0.29959(11) 0.7463(2)
O6 O 0.3256(3) 0.36996(8) 0.72203(16)
loop_
_geom_bond_atom_site_label_1
_geom_bond_atom_site_label_2
_geom_bond_site_symmetry_1
_geom_bond_site_symmetry_2
C1 C2 1_555 1_555
C2 C3 1_555 1_555
C3 H1 1_555 1_555
C4 C3 1_555 1_555
H2 C4 1_555 1_555
C5 C4 1_555 1_555
C6 C5 1_555 1_555
H3 C6 1_555 1_555
C7 C2 1_555 1_555
H4 C7 1_555 1_555
C8 C5 1_555 1_555
C9 C8 1_555 1_555
H5 C9 1_555 1_555
C10 C9 1_555 1_555
C11 C10 1_555 1_555
C12 C11 1_555 1_555
H6 C12 1_555 1_555
C13 C12 1_555 1_555
H7 C13 1_555 1_555
C14 H8 1_555 1_555
C15 C11 1_555 1_555
H9 C15 1_555 1_555
C16 H10 1_555 1_555
C17 C16 1_555 1_555
H11 C17 1_555 1_555
C18 H12 1_555 1_555
C19 C18 1_555 1_555
H13 C19 1_555 1_555
C20 C16 1_555 1_555
C21 C20 1_555 1_555
C22 C8 1_555 1_555
H14 C22 1_555 1_555
C23 H15 1_555 1_555
Co1 N1 1_555 1_555
N1 C17 1_555 1_555
N2 C10 1_555 1_555
N3 C13 1_555 1_555
O1 C1 1_555 1_555
O2 C1 1_555 1_555
O3 C23 1_555 1_555
O4 C23 1_555 1_555
O5 Co1 1_555 1_555
H16 O5 1_555 1_555
H17 O5 1_555 1_555
C24 H18 1_555 1_555
H19 C24 1_555 1_555
H20 C24 1_555 1_555
C25 H21 1_555 1_555
H22 C25 1_555 1_555
H23 C25 1_555 1_555
C26 H24 1_555 1_555
N4 C24 1_555 1_555
O6 C26 1_555 1_555
Co1_2 N3 1_555 1_555
Co1A O1 1_555 1_555
N3_2 Co1 1_555 1_555
O1A Co1 1_555 1_555
O2A Co1 1_555 1_555
C6 C7 1_555 1_555
C14 C15 1_555 1_555
C14 N3 1_555 1_555
C18 N1 1_555 1_555
C19 C20 1_555 1_555
C21 C22 1_555 1_555
C21 N2 1_555 1_555
Co1 O3 1_555 1_555
O2 Co1A 1_555 1_555
C25 N4 1_555 1_555
C26 N4 1_555 1_555

#END
