
#######################################################################
#
#                 Cambridge Crystallographic Data Centre
#                                CCDC 
#
#######################################################################
#
# If this CIF has been generated from an entry in the Cambridge 
# Structural Database, then it will include bibliographic, chemical, 
# crystal, experimental, refinement or atomic coordinate data resulting 
# from the CCDC's data processing and validation procedures.
#
#######################################################################

data_DIRNEZ
_symmetry_cell_setting           triclinic
_symmetry_space_group_name_H-M   'P -1'
_symmetry_Int_Tables_number      2
_space_group_name_Hall           '-P 1'
loop_
_symmetry_equiv_pos_site_id
_symmetry_equiv_pos_as_xyz
1 x,y,z
2 -x,-y,-z
_cell_length_a                   5.7631(3)
_cell_length_b                   13.0859(8)
_cell_length_c                   13.6759(7)
_cell_angle_alpha                67.345(5)
_cell_angle_beta                 81.812(5)
_cell_angle_gamma                89.757(5)
_cell_volume                     940.643
loop_
_atom_site_label
_atom_site_type_symbol
_atom_site_fract_x
_atom_site_fract_y
_atom_site_fract_z
Co1 Co 0.44024(8) 0.02537(3) 0.12597(3)
P1 P -0.08619(14) 0.10264(6) 0.20686(6)
P2 P 0.19265(15) 0.23483(6) -0.01192(6)
N1 N 0.4502(5) -0.14785(19) 0.22837(18)
O1 O 0.0991(3) 0.02397(14) 0.19633(15)
O2 O -0.3355(4) 0.06422(15) 0.21360(15)
O3 O 0.4171(4) 0.19138(15) 0.02870(15)
O4 O 0.0777(4) 0.17233(15) -0.06649(15)
O5 O 0.7161(4) 0.02011(15) 0.00832(16)
H1 H 0.797(5) -0.0405(17) 0.040(2)
H2 H 0.818(4) 0.0736(19) -0.014(2)
C1 C -0.0196(6) 0.2378(2) 0.0973(2)
H3 H -0.1636 0.2657 0.0701
H4 H 0.0397 0.289 0.1249
C2 C -0.0653(5) 0.1274(2) 0.3264(2)
C3 C 0.1415(6) 0.1729(3) 0.3381(3)
H5 H 0.2694 0.191 0.2836
C4 C 0.1597(7) 0.1914(3) 0.4290(3)
H6 H 0.2985 0.2228 0.4352
C5 C -0.0278(7) 0.1634(3) 0.5113(3)
H7 H -0.0159 0.1755 0.5731
C6 C -0.2298(7) 0.1180(3) 0.5008(3)
H8 H -0.3559 0.0983 0.5564
C7 C -0.2508(6) 0.1006(2) 0.4086(2)
H9 H -0.3912 0.0706 0.4023
C8 C 0.2484(6) 0.3784(2) -0.1019(2)
C9 C 0.0991(8) 0.4304(3) -0.1712(3)
H10 H -0.0333 0.3911 -0.173
C10 C 0.1396(9) 0.5415(3) -0.2399(3)
H11 H 0.0345 0.5762 -0.2866
C11 C 0.3316(9) 0.5982(3) -0.2382(4)
H12 H 0.3601 0.6724 -0.2839
C12 C 0.4823(9) 0.5478(4) -0.1708(5)
H13 H 0.6152 0.5873 -0.1699
C13 C 0.4420(7) 0.4378(3) -0.1026(4)
H14 H 0.5486 0.4038 -0.0564
C14 C 0.6218(6) -0.1848(2) 0.2865(2)
H15 H 0.7496 -0.1363 0.2753
C15 C 0.6204(6) -0.2908(3) 0.3624(3)
H16 H 0.7447 -0.312 0.4011
C16 C 0.4354(6) -0.3659(3) 0.3813(2)
C17 C 0.2626(6) -0.3280(3) 0.3187(3)
H17 H 0.1357 -0.3757 0.3268
C18 C 0.2733(6) -0.2208(3) 0.2441(2)
H18 H 0.1528 -0.1983 0.2032
C19 C 0.4159(8) -0.4830(3) 0.4637(3)
H19 H 0.2613 -0.4951 0.5064
H20 H 0.4222 -0.5324 0.4258
N1A N 0.5498(5) -0.85215(19) 0.77163(18)
C14A C 0.3782(6) -0.8152(2) 0.7135(2)
H15A H 0.2504 -0.8637 0.7247
C15A C 0.3796(6) -0.7092(3) 0.6376(3)
H16A H 0.2553 -0.688 0.5989
C16A C 0.5646(6) -0.6341(3) 0.6187(2)
C17A C 0.7374(6) -0.6720(3) 0.6813(3)
H17A H 0.8643 -0.6243 0.6732
C18A C 0.7267(6) -0.7792(3) 0.7559(2)
H18A H 0.8472 -0.8017 0.7968
C19A C 0.5841(8) -0.5170(3) 0.5363(3)
H19A H 0.7387 -0.5049 0.4936
H20A H 0.5778 -0.4676 0.5742
Co1A Co 0.55976(8) -1.02537(3) 0.87403(3)
P1A P 1.08619(14) -1.10264(6) 0.79314(6)
P2A P 0.80735(15) -1.23483(6) 1.01192(6)
O1A O 0.9009(3) -1.02397(14) 0.80367(15)
O2A O 1.3355(4) -1.06422(15) 0.78640(15)
O3A O 0.5829(4) -1.19138(15) 0.97130(15)
O4A O 0.9223(4) -1.17233(15) 1.06649(15)
O5A O 0.2839(4) -1.02011(15) 0.99168(16)
H1A H 0.203(5) -0.9595(17) 0.960(2)
H2A H 0.182(4) -1.0736(19) 1.014(2)
C1A C 1.0196(6) -1.2378(2) 0.9027(2)
H3A H 1.1636 -1.2657 0.9299
H4A H 0.9603 -1.289 0.8751
C2A C 1.0653(5) -1.1274(2) 0.6736(2)
C3A C 0.8585(6) -1.1729(3) 0.6619(3)
H5A H 0.7306 -1.191 0.7164
C4A C 0.8403(7) -1.1914(3) 0.5710(3)
H6A H 0.7015 -1.2228 0.5648
C5A C 1.0278(7) -1.1634(3) 0.4887(3)
H7A H 1.0159 -1.1755 0.4269
C6A C 1.2298(7) -1.1180(3) 0.4992(3)
H8A H 1.3559 -1.0983 0.4436
C7A C 1.2508(6) -1.1006(2) 0.5914(2)
H9A H 1.3912 -1.0706 0.5977
C8A C 0.7516(6) -1.3784(2) 1.1019(2)
C9A C 0.9009(8) -1.4304(3) 1.1712(3)
H10A H 1.0333 -1.3911 1.173
C10A C 0.8604(9) -1.5415(3) 1.2399(3)
H11A H 0.9655 -1.5762 1.2866
C11A C 0.6684(9) -1.5982(3) 1.2382(4)
H12A H 0.6399 -1.6724 1.2839
C12A C 0.5177(9) -1.5478(4) 1.1708(5)
H13A H 0.3848 -1.5873 1.1699
C13A C 0.5580(7) -1.4378(3) 1.1026(4)
H14A H 0.4514 -1.4038 1.0564
Co1_2 Co -0.55976(8) 0.02537(3) 0.12597(3)
Co1_3 Co 0.44024(8) -0.97463(3) 1.12597(3)
Co1A_2 Co 0.55976(8) -0.02537(3) -0.12597(3)
Co1A_3 Co 1.55976(8) -1.02537(3) 0.87403(3)
O2_2 O 0.6645(4) 0.06422(15) 0.21360(15)
O2A_2 O 0.3355(4) -1.06422(15) 0.78640(15)
O5_2 O 0.7161(4) -0.97989(15) 1.00832(16)
O5A_2 O 0.2839(4) -0.02011(15) -0.00832(16)
loop_
_geom_bond_atom_site_label_1
_geom_bond_atom_site_label_2
_geom_bond_site_symmetry_1
_geom_bond_site_symmetry_2
Co1 N1 1_555 1_555
P1 O1 1_555 1_555
P2 O3 1_555 1_555
N1 C14 1_555 1_555
O1 Co1 1_555 1_555
O2 P1 1_555 1_555
O3 Co1 1_555 1_555
O4 P2 1_555 1_555
O5 Co1 1_555 1_555
H1 O5 1_555 1_555
H2 O5 1_555 1_555
C1 P1 1_555 1_555
H3 C1 1_555 1_555
H4 C1 1_555 1_555
C2 P1 1_555 1_555
C3 C2 1_555 1_555
H5 C3 1_555 1_555
C4 C3 1_555 1_555
H6 C4 1_555 1_555
C5 C4 1_555 1_555
H7 C5 1_555 1_555
C6 C5 1_555 1_555
H8 C6 1_555 1_555
C7 C2 1_555 1_555
H9 C7 1_555 1_555
C8 P2 1_555 1_555
C9 C8 1_555 1_555
H10 C9 1_555 1_555
C10 C9 1_555 1_555
H11 C10 1_555 1_555
C11 C10 1_555 1_555
H12 C11 1_555 1_555
C12 C11 1_555 1_555
H13 C12 1_555 1_555
C13 C8 1_555 1_555
H14 C13 1_555 1_555
C14 H15 1_555 1_555
C15 C14 1_555 1_555
H16 C15 1_555 1_555
C16 C15 1_555 1_555
C17 C16 1_555 1_555
H17 C17 1_555 1_555
C18 N1 1_555 1_555
H18 C18 1_555 1_555
C19 C16 1_555 1_555
H19 C19 1_555 1_555
H20 C19 1_555 1_555
N1A C14A 1_555 1_555
C14A H15A 1_555 1_555
C15A C14A 1_555 1_555
H16A C15A 1_555 1_555
C16A C15A 1_555 1_555
C17A C16A 1_555 1_555
H17A C17A 1_555 1_555
C18A N1A 1_555 1_555
H18A C18A 1_555 1_555
C19A C19 1_555 1_555
H19A C19A 1_555 1_555
H20A C19A 1_555 1_555
Co1A N1A 1_555 1_555
P1A O1A 1_555 1_555
P2A O3A 1_555 1_555
O1A Co1A 1_555 1_555
O2A P1A 1_555 1_555
O3A Co1A 1_555 1_555
O4A P2A 1_555 1_555
O5A Co1A 1_555 1_555
H1A O5A 1_555 1_555
H2A O5A 1_555 1_555
C1A P1A 1_555 1_555
H3A C1A 1_555 1_555
H4A C1A 1_555 1_555
C2A P1A 1_555 1_555
C3A C2A 1_555 1_555
H5A C3A 1_555 1_555
C4A C3A 1_555 1_555
H6A C4A 1_555 1_555
C5A C4A 1_555 1_555
H7A C5A 1_555 1_555
C6A C5A 1_555 1_555
H8A C6A 1_555 1_555
C7A C2A 1_555 1_555
H9A C7A 1_555 1_555
C8A P2A 1_555 1_555
C9A C8A 1_555 1_555
H10A C9A 1_555 1_555
C10A C9A 1_555 1_555
H11A C10A 1_555 1_555
C11A C10A 1_555 1_555
H12A C11A 1_555 1_555
C12A C11A 1_555 1_555
H13A C12A 1_555 1_555
C13A C8A 1_555 1_555
H14A C13A 1_555 1_555
Co1_2 O2 1_555 1_555
Co1_3 O5A 1_555 1_555
Co1A_2 O5 1_555 1_555
Co1A_3 O2A 1_555 1_555
O2_2 Co1 1_555 1_555
O2A_2 Co1A 1_555 1_555
O5_2 Co1A 1_555 1_555
O5A_2 Co1 1_555 1_555
P2 C1 1_555 1_555
C6 C7 1_555 1_555
C12 C13 1_555 1_555
C17 C18 1_555 1_555
C16A C19A 1_555 1_555
C17A C18A 1_555 1_555
P2A C1A 1_555 1_555
C6A C7A 1_555 1_555
C12A C13A 1_555 1_555
Co1_3 O5_2 1_555 1_555
Co1A_2 O5A_2 1_555 1_555

#END
