
#######################################################################
#
#                 Cambridge Crystallographic Data Centre
#                                CCDC 
#
#######################################################################
#
# If this CIF has been generated from an entry in the Cambridge 
# Structural Database, then it will include bibliographic, chemical, 
# crystal, experimental, refinement or atomic coordinate data resulting 
# from the CCDC's data processing and validation procedures.
#
#######################################################################

data_DIRYOT
_symmetry_cell_setting           orthorhombic
_symmetry_space_group_name_H-M   'P n a 21'
_symmetry_Int_Tables_number      33
_space_group_name_Hall           'P 2c -2n'
loop_
_symmetry_equiv_pos_site_id
_symmetry_equiv_pos_as_xyz
1 x,y,z
2 -x,-y,1/2+z
3 1/2-x,1/2+y,1/2+z
4 1/2+x,1/2-y,z
_cell_length_a                   25.0215(6)
_cell_length_b                   18.6981(6)
_cell_length_c                   12.9530(4)
_cell_angle_alpha                90
_cell_angle_beta                 90
_cell_angle_gamma                90
_cell_volume                     6060.12
loop_
_atom_site_label
_atom_site_type_symbol
_atom_site_fract_x
_atom_site_fract_y
_atom_site_fract_z
Nd1 Nd 0.545374(10) 0.728447(15) 0.85894(5)
Cl1 Cl 0.52028(6) 0.58811(8) 0.8706(2)
Cl2 Cl 0.56696(5) 0.87024(7) 0.8553(2)
P1 P 0.43908(10) 0.76583(13) 1.06519(17)
P2 P 0.65351(10) 0.69499(15) 1.06083(18)
P3 P 0.15473(9) 0.80034(15) 0.65529(17)
P4 P 0.44172(10) 0.75848(16) 1.64414(18)
O1 O 0.4795(2) 0.7508(3) 0.9819(4)
O2 O 0.6079(2) 0.7124(3) 0.9896(4)
O3 O 0.1143(2) 0.7939(3) 0.7402(4)
O4 O 0.4854(2) 0.7431(3) 1.7218(4)
C1 C 0.4354(2) 0.6947(4) 1.1569(4)
C2 C 0.4676(2) 0.6348(4) 1.1445(5)
H1 H 0.4906 0.6317 1.0863
C3 C 0.4668(3) 0.5795(4) 1.2157(5)
H2 H 0.4895 0.5391 1.2085
C4 C 0.4319(3) 0.5852(4) 1.2969(5)
H3 H 0.4305 0.5477 1.3463
C5 C 0.3991(3) 0.6428(4) 1.3094(5)
H4 H 0.3752 0.6449 1.3663
C6 C 0.4009(2) 0.6970(4) 1.2403(5)
H5 H 0.3781 0.7371 1.2492
C7 C 0.4555(3) 0.8479(4) 1.1321(6)
C8 C 0.5051(3) 0.8791(4) 1.1116(7)
H6 H 0.5290 0.8571 1.0643
C9 C 0.5191(4) 0.9409(6) 1.1594(8)
H7 H 0.5524 0.9629 1.1442
C10 C 0.4842(5) 0.9721(6) 1.2312(10)
H8 H 0.4934 1.0168 1.2614
C11 C 0.4372(4) 0.9399(6) 1.2590(9)
H9 H 0.4156 0.9591 1.3125
C12 C 0.4222(4) 0.8789(5) 1.2071(7)
H10 H 0.3887 0.8575 1.2223
C13 C 0.3732(2) 0.7740(4) 1.0085(5)
H11 H 0.3462 0.7770 1.0643
H12 H 0.3713 0.8188 0.9679
C14 C 0.3602(3) 0.7124(4) 0.9403(5)
H13 H 0.3682 0.6683 0.9798
H14 H 0.3857 0.7138 0.8819
C15 C 0.3028(3) 0.7029(5) 0.8928(6)
H15 H 0.3005 0.6568 0.8556
H16 H 0.2757 0.7028 0.9486
C16 C 0.2923(2) 0.7616(4) 0.8220(5)
H17 H 0.3196 0.7630 0.7666
H18 H 0.2926 0.8079 0.8589
C17 C 0.6942(3) 0.6236(4) 1.0023(6)
C18 C 0.7445(3) 0.6075(5) 1.0383(8)
H19 H 0.7602 0.6350 1.0919
C19 C 0.7718(4) 0.5506(6) 0.9954(10)
H20 H 0.8069 0.5397 1.0181
C20 C 0.7499(4) 0.5123(6) 0.9248(11)
H21 H 0.7685 0.4713 0.9007
C21 C 0.7006(4) 0.5279(4) 0.8823(7)
H22 H 0.6861 0.5003 0.8275
C22 C 0.6726(3) 0.5873(4) 0.9246(6)
H23 H 0.6388 0.6009 0.8974
C23 C 0.6937(3) 0.7738(5) 1.0888(5)
C24 C 0.6822(3) 0.8353(4) 1.0335(5)
H24 H 0.6536 0.8352 0.9853
C25 C 0.7123(3) 0.8974(5) 1.0482(6)
H25 H 0.7064 0.9391 1.0078
C26 C 0.7511(3) 0.8955(6) 1.1237(8)
H26 H 0.7711 0.9376 1.1376
C27 C 0.7616(3) 0.8341(7) 1.1800(7)
H27 H 0.7888 0.8339 1.2311
C28 C 0.7332(3) 0.7756(5) 1.1620(5)
H28 H 0.7405 0.7337 1.2010
C29 C 0.6300(3) 0.6604(5) 1.1799(5)
H29 H 0.6102 0.6154 1.1677
H30 H 0.6607 0.6497 1.2257
C30 C 0.5931(3) 0.7155(4) 1.2319(5)
H31 H 0.5634 0.7274 1.1843
H32 H 0.6135 0.7600 1.2450
C31 C 0.1491(2) 0.7250(4) 0.5704(5)
C32 C 0.1150(3) 0.6700(4) 0.5941(5)
H33 H 0.0959 0.6711 0.6575
C33 C 0.1078(3) 0.6130(5) 0.5277(6)
H34 H 0.0831 0.5761 0.5442
C34 C 0.1368(4) 0.6102(4) 0.4370(6)
H35 H 0.1327 0.5708 0.3913
C35 C 0.1712(3) 0.6638(4) 0.4137(5)
H36 H 0.1907 0.6617 0.3508
C36 C 0.1784(2) 0.7201(4) 0.4777(5)
H37 H 0.2033 0.7565 0.4600
C37 C 0.1436(3) 0.8797(4) 0.5811(5)
C38 C 0.0934(4) 0.9122(4) 0.5883(6)
H38 H 0.0679 0.8945 0.6362
C39 C 0.0802(5) 0.9711(5) 0.5251(7)
H39 H 0.0457 0.9919 0.5306
C40 C 0.1154(6) 0.9988(6) 0.4570(8)
H40 H 0.1059 1.0388 0.4157
C41 C 0.1648(5) 0.9682(5) 0.4485(6)
H41 H 0.1896 0.9875 0.4006
C42 C 0.1801(4) 0.9081(5) 0.5098(6)
H42 H 0.2146 0.8876 0.5024
C43 C 0.2204(3) 0.8034(5) 0.7057(6)
H43 H 0.2251 0.8491 0.7431
H44 H 0.2460 0.8032 0.6474
C44 C 0.2340(3) 0.7455(6) 0.7746(6)
H45 H 0.2073 0.7421 0.8308
H46 H 0.2343 0.6996 0.7365
C45 C 0.3978(2) 0.6813(4) 1.6349(5)
C46 C 0.3510(3) 0.6826(4) 1.5765(5)
H47 H 0.3422 0.7243 1.5382
C47 C 0.3175(3) 0.6249(5) 1.5734(6)
H48 H 0.2850 0.6276 1.5355
C48 C 0.3307(3) 0.5625(5) 1.6251(6)
H49 H 0.3081 0.5217 1.6213
C49 C 0.3772(3) 0.5607(4) 1.6822(5)
H50 H 0.3861 0.5182 1.7185
C50 C 0.4118(3) 0.6192(4) 1.6884(5)
H51 H 0.4438 0.6169 1.7278
C51 C 0.4047(2) 0.8360(4) 1.6785(5)
C52 C 0.3688(3) 0.8669(4) 1.6096(6)
H52 H 0.3636 0.8459 1.5435
C53 C 0.3406(3) 0.9279(4) 1.6363(6)
H53 H 0.3150 0.9478 1.5902
C54 C 0.3500(3) 0.9591(4) 1.7300(6)
H54 H 0.3313 1.0013 1.7492
C55 C 0.3872(3) 0.9290(4) 1.7976(5)
H55 H 0.3934 0.9507 1.8628
C56 C 0.4149(3) 0.8686(4) 1.7712(5)
H56 H 0.4409 0.8494 1.8168
C57 C 0.4686(2) 0.7739(4) 1.5177(5)
H57 H 0.4385 0.7776 1.4683
H58 H 0.4872 0.8206 1.5179
C58 C 0.5059(2) 0.7192(4) 1.4798(5)
H59 H 0.4865 0.6734 1.4714
H60 H 0.5345 0.7119 1.5315
C59 C 0.5310(3) 0.7403(4) 1.3769(6)
H61 H 0.5021 0.7472 1.3257
H62 H 0.5494 0.7867 1.3857
C60 C 0.5696(3) 0.6878(4) 1.3352(5)
H63 H 0.5515 0.6414 1.3237
H64 H 0.5988 0.6802 1.3856
Nd1C Nd 0.045374(10) 0.771553(15) 0.85894(5)
Nd1_2 Nd 0.545374(10) 0.728447(15) 1.85894(5)
O3C O 0.6143(2) 0.7061(3) 0.7402(4)
O4_2 O 0.4854(2) 0.7431(3) 0.7218(4)
Cl3 Cl 0.80040(6) 0.68887(10) 1.3678(3)
O6 O 0.7913(5) 0.5075(8) 1.2709(10)
O5? O 0.8038(6) 0.5252(6) 1.3844(8)
loop_
_geom_bond_atom_site_label_1
_geom_bond_atom_site_label_2
_geom_bond_site_symmetry_1
_geom_bond_site_symmetry_2
Nd1 Cl1 1_555 1_555
Cl2 Nd1 1_555 1_555
P1 O1 1_555 1_555
P2 O2 1_555 1_555
P3 O3 1_555 1_555
P4 O4 1_555 1_555
O1 Nd1 1_555 1_555
O2 Nd1 1_555 1_555
O3 Nd1C 1_555 1_555
O4 Nd1_2 1_555 1_555
C1 P1 1_555 1_555
C2 C1 1_555 1_555
H1 C2 1_555 1_555
C3 C2 1_555 1_555
H2 C3 1_555 1_555
C4 C3 1_555 1_555
H3 C4 1_555 1_555
C5 C4 1_555 1_555
H4 C5 1_555 1_555
C6 C1 1_555 1_555
H5 C6 1_555 1_555
C7 P1 1_555 1_555
C8 C7 1_555 1_555
H6 C8 1_555 1_555
C9 C8 1_555 1_555
H7 C9 1_555 1_555
C10 C9 1_555 1_555
H8 C10 1_555 1_555
C11 C10 1_555 1_555
H9 C11 1_555 1_555
C12 C7 1_555 1_555
H10 C12 1_555 1_555
C13 P1 1_555 1_555
H11 C13 1_555 1_555
H12 C13 1_555 1_555
C14 C13 1_555 1_555
H13 C14 1_555 1_555
H14 C14 1_555 1_555
C15 C14 1_555 1_555
H15 C15 1_555 1_555
H16 C15 1_555 1_555
C16 C15 1_555 1_555
H17 C16 1_555 1_555
H18 C16 1_555 1_555
C17 P2 1_555 1_555
C18 C17 1_555 1_555
H19 C18 1_555 1_555
C19 C18 1_555 1_555
H20 C19 1_555 1_555
C20 C19 1_555 1_555
H21 C20 1_555 1_555
C21 C20 1_555 1_555
H22 C21 1_555 1_555
C22 C17 1_555 1_555
H23 C22 1_555 1_555
C23 P2 1_555 1_555
C24 C23 1_555 1_555
H24 C24 1_555 1_555
C25 C24 1_555 1_555
H25 C25 1_555 1_555
C26 C25 1_555 1_555
H26 C26 1_555 1_555
C27 C26 1_555 1_555
H27 C27 1_555 1_555
C28 C23 1_555 1_555
H28 C28 1_555 1_555
C29 P2 1_555 1_555
H29 C29 1_555 1_555
H30 C29 1_555 1_555
C30 C29 1_555 1_555
H31 C30 1_555 1_555
H32 C30 1_555 1_555
C31 P3 1_555 1_555
C32 C31 1_555 1_555
H33 C32 1_555 1_555
C33 C32 1_555 1_555
H34 C33 1_555 1_555
C34 C33 1_555 1_555
H35 C34 1_555 1_555
C35 C34 1_555 1_555
H36 C35 1_555 1_555
C36 C31 1_555 1_555
H37 C36 1_555 1_555
C37 P3 1_555 1_555
C38 C37 1_555 1_555
H38 C38 1_555 1_555
C39 C38 1_555 1_555
H39 C39 1_555 1_555
C40 C39 1_555 1_555
H40 C40 1_555 1_555
C41 C40 1_555 1_555
H41 C41 1_555 1_555
C42 C37 1_555 1_555
H42 C42 1_555 1_555
C43 P3 1_555 1_555
H43 C43 1_555 1_555
H44 C43 1_555 1_555
C44 C16 1_555 1_555
H45 C44 1_555 1_555
H46 C44 1_555 1_555
C45 P4 1_555 1_555
C46 C45 1_555 1_555
H47 C46 1_555 1_555
C47 C46 1_555 1_555
H48 C47 1_555 1_555
C48 C47 1_555 1_555
H49 C48 1_555 1_555
C49 C48 1_555 1_555
H50 C49 1_555 1_555
C50 C45 1_555 1_555
H51 C50 1_555 1_555
C51 P4 1_555 1_555
C52 C51 1_555 1_555
H52 C52 1_555 1_555
C53 C52 1_555 1_555
H53 C53 1_555 1_555
C54 C53 1_555 1_555
H54 C54 1_555 1_555
C55 C54 1_555 1_555
H55 C55 1_555 1_555
C56 C51 1_555 1_555
H56 C56 1_555 1_555
C57 P4 1_555 1_555
H57 C57 1_555 1_555
H58 C57 1_555 1_555
C58 C57 1_555 1_555
H59 C58 1_555 1_555
H60 C58 1_555 1_555
C59 C58 1_555 1_555
H61 C59 1_555 1_555
H62 C59 1_555 1_555
C60 C30 1_555 1_555
H63 C60 1_555 1_555
H64 C60 1_555 1_555
O3C Nd1 1_555 1_555
O4_2 Nd1 1_555 1_555
C5 C6 1_555 1_555
C11 C12 1_555 1_555
C21 C22 1_555 1_555
C27 C28 1_555 1_555
C35 C36 1_555 1_555
C41 C42 1_555 1_555
C43 C44 1_555 1_555
C49 C50 1_555 1_555
C55 C56 1_555 1_555
C59 C60 1_555 1_555

#END
