
#######################################################################
#
#                 Cambridge Crystallographic Data Centre
#                                CCDC 
#
#######################################################################
#
# If this CIF has been generated from an entry in the Cambridge 
# Structural Database, then it will include bibliographic, chemical, 
# crystal, experimental, refinement or atomic coordinate data resulting 
# from the CCDC's data processing and validation procedures.
#
#######################################################################

data_DIRYEJ
_symmetry_cell_setting           orthorhombic
_symmetry_space_group_name_H-M   'A b a 2'
_symmetry_Int_Tables_number      41
_space_group_name_Hall           'A 2 -2ac'
loop_
_symmetry_equiv_pos_site_id
_symmetry_equiv_pos_as_xyz
1 x,y,z
2 1/2-x,y,1/2+z
3 1/2+x,-y,1/2+z
4 -x,-y,z
5 x,1/2+y,1/2+z
6 1/2-x,1/2+y,z
7 1/2+x,1/2-y,z
8 -x,1/2-y,1/2+z
_cell_length_a                   25.8233(4)
_cell_length_b                   23.7530(4)
_cell_length_c                   23.6737(4)
_cell_angle_alpha                90
_cell_angle_beta                 90
_cell_angle_gamma                90
_cell_volume                     14521
loop_
_atom_site_label
_atom_site_type_symbol
_atom_site_fract_x
_atom_site_fract_y
_atom_site_fract_z
Pr1 Pr 0.74984(5) 0.734850(15) 0.34732
O1 O 0.7896(2) 0.8195(3) 0.4002(3)
O2 O 0.7265(2) 0.7757(3) 0.4449(3)
N1 N 0.7641(3) 0.8142(3) 0.4441(3)
O3 O 0.7707(3) 0.8453(3) 0.4857(3)
N2 N 0.7336(4) 0.6376(5) 0.2707(5)
O4 O 0.7089(2) 0.6879(3) 0.2600(3)
O5 O 0.7692(3) 0.6377(3) 0.3052(3)
O6 O 0.7182(3) 0.5944(3) 0.2442(3)
O7 O 0.6814(3) 0.6792(3) 0.3800(3)
P1 P 0.64600(12) 0.63212(12) 0.40138(14)
C1 C 0.6766(3) 0.5673(4) 0.3941(4)
H1 H 0.65119 0.536426 0.401835
H2 H 0.683734 0.559943 0.353291
C2 C 0.7225(4) 0.5578(4) 0.4262(4)
H3 H 0.716183 0.56829 0.466493
H4 H 0.74854 0.587615 0.417023
C3 C 0.7492(4) 0.4979(3) 0.4234(3)
H5 H 0.781363 0.498228 0.447021
H6 H 0.724419 0.46861 0.437025
O8 O 0.8089(2) 0.3021(3) 0.3067(3)
P2 P 0.83914(12) 0.35103(13) 0.28619(15)
C4 C 0.8023(4) 0.4157(4) 0.2919(4)
H7 H 0.768900 0.411620 0.270980
H8 H 0.822490 0.447350 0.27485
C5 C 0.7906(3) 0.4295(3) 0.3571(4)
H9 H 0.823890 0.431340 0.378510
H10 H 0.767210 0.399950 0.373050
C6 C 0.7640(3) 0.4857(4) 0.3598(4)
H11 H 0.788110 0.515620 0.345850
H12 H 0.731820 0.484640 0.336300
O9 O 0.8164(2) 0.6934(3) 0.4041(3)
P3 P 0.85120(12) 0.67994(12) 0.45250(14)
C7 C 0.8213(3) 0.6870(4) 0.5209(4)
H13 H 0.84645 0.675405 0.550847
H14 H 0.815053 0.727728 0.52909
C8 C 0.7702(3) 0.6538(4) 0.5283(4)
H15 H 0.777029 0.612653 0.523338
H16 H 0.744823 0.665822 0.498751
C9 C 0.7481(4) 0.6637(3) 0.5843(3)
H17 H 0.771362 0.647151 0.613713
H18 H 0.715584 0.641232 0.588604
O10 O 0.6863(2) 0.7702(3) 0.7844(3)
P4 P 0.65762(12) 0.79519(12) 0.73602(14)
C10 C 0.6928(4) 0.7917(4) 0.6717(4)
H19 H 0.725200 0.814440 0.675070
H20 H 0.671770 0.808810 0.640650
C11 C 0.7058(4) 0.7345(5) 0.6570(4)
H21 H 0.724930 0.716560 0.689010
H22 H 0.673800 0.710850 0.657330
C12 C 0.7374(3) 0.7238(4) 0.5983(7)
H23 H 0.770730 0.745230 0.599120
H24 H 0.718400 0.741830 0.566250
C15 C 0.6261(3) 0.6431(3) 0.4739(2)
C16 C 0.6264(4) 0.6969(4) 0.4962(4)
C17 C 0.6078(5) 0.7062(5) 0.5497(4)
C18 C 0.5892(5) 0.6645(6) 0.5817(3)
C19 C 0.5884(5) 0.6101(5) 0.5612(4)
C20 C 0.6063(4) 0.5996(4) 0.5071(3)
H25 H 0.6402(3) 0.7292(3) 0.4736(2)
H26 H 0.6078(3) 0.7449(3) 0.5662(2)
H27 H 0.5761(3) 0.6740(3) 0.6203(2)
H28 H 0.5750(3) 0.5787(3) 0.5852(2)
H29 H 0.6051(3) 0.5604(3) 0.4918(2)
C21 C 0.5913(2) 0.6273(3) 0.3578(3)
C22 C 0.5536(3) 0.5871(4) 0.3678(4)
C23 C 0.5124(4) 0.5822(5) 0.3315(4)
C24 C 0.5073(5) 0.6150(5) 0.2861(4)
C25 C 0.5442(4) 0.6554(5) 0.2743(4)
C26 C 0.5859(3) 0.6618(4) 0.3106(4)
H30 H 0.5561(2) 0.5617(3) 0.4013(3)
H31 H 0.4849(2) 0.5534(3) 0.3384(3)
H32 H 0.4764(2) 0.6094(3) 0.2613(3)
H33 H 0.5409(2) 0.6797(3) 0.2401(3)
H34 H 0.6123(2) 0.6916(3) 0.3027(3)
C27 C 0.8563(3) 0.3392(3) 0.2157(2)
C28 C 0.8616(4) 0.2854(4) 0.1941(3)
C29 C 0.8758(5) 0.2780(5) 0.1387(4)
C30 C 0.8846(5) 0.3214(6) 0.1043(3)
C31 C 0.8794(5) 0.3759(5) 0.1240(4)
C32 C 0.8658(4) 0.3846(4) 0.1799(3)
H35 H 0.8553(3) 0.2518(3) 0.2186(2)
H36 H 0.8799(3) 0.2393(3) 0.1228(2)
H37 H 0.8949(3) 0.3133(3) 0.0644(2)
H38 H 0.8854(3) 0.4085(3) 0.0982(2)
H39 H 0.8627(3) 0.4240(3) 0.1945(2)
C33 C 0.8998(2) 0.3585(3) 0.3224(3)
C34 C 0.9087(3) 0.3266(4) 0.3702(4)
C35 C 0.9531(4) 0.3347(5) 0.4011(5)
C36 C 0.9886(3) 0.3728(6) 0.3864(5)
C37 C 0.9814(4) 0.4054(5) 0.3387(5)
C38 C 0.9367(3) 0.3985(4) 0.3072(4)
H40 H 0.8831(2) 0.2975(3) 0.3825(3)
H41 H 0.9599(2) 0.3119(3) 0.4358(3)
H42 H 1.0201(2) 0.3768(3) 0.4107(3)
H43 H 1.0082(2) 0.4336(3) 0.3272(3)
H44 H 0.9310(2) 0.4227(3) 0.2731(3)
C39 C 0.8743(2) 0.6116(2) 0.4451(3)
C40 C 0.8948(3) 0.5820(4) 0.4902(4)
C41 C 0.9139(4) 0.5287(4) 0.4821(5)
C42 C 0.9136(4) 0.5039(4) 0.4315(6)
C43 C 0.8938(4) 0.5321(4) 0.3853(5)
C44 C 0.8737(3) 0.5857(4) 0.3924(4)
H45 H 0.8957(2) 0.5992(2) 0.5288(3)
H46 H 0.9286(2) 0.5069(2) 0.5145(3)
H47 H 0.9279(2) 0.4650(2) 0.4284(3)
H48 H 0.8940(2) 0.5140(2) 0.3472(3)
H49 H 0.8587(2) 0.6058(2) 0.3591(3)
C45 C 0.9069(2) 0.7249(3) 0.4526(3)
C46 C 0.9401(3) 0.7276(4) 0.4984(4)
C47 C 0.9804(4) 0.7652(4) 0.4982(5)
C48 C 0.9889(5) 0.7999(4) 0.4549(6)
C49 C 0.9565(4) 0.7988(4) 0.4085(5)
C50 C 0.9159(4) 0.7609(4) 0.4072(4)
H50 H 0.9349(2) 0.7023(3) 0.5317(3)
H51 H 1.0047(2) 0.7674(3) 0.5310(3)
H52 H 1.0190(2) 0.8263(3) 0.4572(3)
H53 H 0.9624(2) 0.8252(3) 0.3762(3)
H54 H 0.8929(2) 0.7594(3) 0.3733(3)
C51 C 0.5987(2) 0.7545(3) 0.7239(3)
C52 C 0.5918(3) 0.7014(3) 0.7467(4)
C53 C 0.5473(4) 0.6719(4) 0.7355(5)
C54 C 0.5097(4) 0.6928(5) 0.7030(5)
C55 C 0.5149(4) 0.7458(5) 0.6797(5)
C56 C 0.5597(3) 0.7763(4) 0.6897(4)
H55 H 0.6191(2) 0.6843(3) 0.7714(3)
H56 H 0.5420(2) 0.6334(3) 0.7517(3)
H57 H 0.4783(2) 0.6692(3) 0.6963(3)
H58 H 0.4866(2) 0.7619(3) 0.6558(3)
H59 H 0.5638(2) 0.8143(3) 0.6722(3)
C57 C 0.6431(3) 0.8679(2) 0.7488(3)
C58 C 0.6406(4) 0.8880(3) 0.8035(4)
C59 C 0.6274(5) 0.9432(4) 0.8132(5)
C60 C 0.6167(5) 0.9787(3) 0.7711(6)
C61 C 0.6190(5) 0.9604(4) 0.7158(5)
C62 C 0.6317(4) 0.9048(3) 0.7048(4)
H60 H 0.6484(3) 0.8627(2) 0.8362(3)
H61 H 0.6254(3) 0.9581(2) 0.8526(3)
H62 H 0.6072(3) 1.0183(2) 0.7809(3)
H63 H 0.6116(3) 0.9871(2) 0.6841(3)
H64 H 0.6326(3) 0.8913(2) 0.6648(3)
O7E O 0.8186(3) 1.1792(3) 0.3800(3)
P1E P 0.85400(12) 1.13212(12) 0.40138(14)
C1E C 0.8234(3) 1.0673(4) 0.3941(4)
H1E H 0.84881 1.036426 0.401835
H2E H 0.816266 1.059943 0.353291
C2E C 0.7775(4) 1.0578(4) 0.4262(4)
H3E H 0.783817 1.06829 0.466493
H4E H 0.75146 1.087615 0.417023
C3E C 0.7508(4) 0.9979(3) 0.4234(3)
H5E H 0.718637 0.998228 0.447021
H6E H 0.775581 0.96861 0.437025
O8E O 0.6911(2) 0.8021(3) 0.3067(3)
P2E P 0.66086(12) 0.85103(13) 0.28619(15)
C4E C 0.6977(4) 0.9157(4) 0.2919(4)
H7E H 0.731100 0.911620 0.270980
H8E H 0.677510 0.947350 0.27485
C5E C 0.7094(3) 0.9295(3) 0.3571(4)
H9E H 0.676110 0.931340 0.378510
H10E H 0.732790 0.899950 0.373050
C6E C 0.7360(3) 0.9857(4) 0.3598(4)
H11E H 0.711890 1.015620 0.345850
H12E H 0.768180 0.984640 0.336300
C15E C 0.8739(3) 1.1431(3) 0.4739(2)
C16E C 0.8736(4) 1.1969(4) 0.4962(4)
C17E C 0.8922(5) 1.2062(5) 0.5497(4)
C18E C 0.9108(5) 1.1645(6) 0.5817(3)
C19E C 0.9116(5) 1.1101(5) 0.5612(4)
C20E C 0.8937(4) 1.0996(4) 0.5071(3)
H25E H 0.8598(3) 1.2292(3) 0.4736(2)
H26E H 0.8922(3) 1.2449(3) 0.5662(2)
H27E H 0.9239(3) 1.1740(3) 0.6203(2)
H28E H 0.9250(3) 1.0787(3) 0.5852(2)
H29E H 0.8949(3) 1.0604(3) 0.4918(2)
C21E C 0.9087(2) 1.1273(3) 0.3578(3)
C22E C 0.9464(3) 1.0871(4) 0.3678(4)
C23E C 0.9876(4) 1.0822(5) 0.3315(4)
C24E C 0.9927(5) 1.1150(5) 0.2861(4)
C25E C 0.9558(4) 1.1554(5) 0.2743(4)
C26E C 0.9141(3) 1.1618(4) 0.3106(4)
H30E H 0.9439(2) 1.0617(3) 0.4013(3)
H31E H 1.0151(2) 1.0534(3) 0.3384(3)
H32E H 1.0236(2) 1.1094(3) 0.2613(3)
H33E H 0.9591(2) 1.1797(3) 0.2401(3)
H34E H 0.8877(2) 1.1916(3) 0.3027(3)
C27E C 0.6437(3) 0.8392(3) 0.2157(2)
C28E C 0.6384(4) 0.7854(4) 0.1941(3)
C29E C 0.6242(5) 0.7780(5) 0.1387(4)
C30E C 0.6154(5) 0.8214(6) 0.1043(3)
C31E C 0.6206(5) 0.8759(5) 0.1240(4)
C32E C 0.6342(4) 0.8846(4) 0.1799(3)
H35E H 0.6447(3) 0.7518(3) 0.2186(2)
H36E H 0.6201(3) 0.7393(3) 0.1228(2)
H37E H 0.6051(3) 0.8133(3) 0.0644(2)
H38E H 0.6146(3) 0.9085(3) 0.0982(2)
H39E H 0.6373(3) 0.9240(3) 0.1945(2)
C33E C 0.6002(2) 0.8585(3) 0.3224(3)
C34E C 0.5913(3) 0.8266(4) 0.3702(4)
C35E C 0.5469(4) 0.8347(5) 0.4011(5)
C36E C 0.5114(3) 0.8728(6) 0.3864(5)
C37E C 0.5186(4) 0.9054(5) 0.3387(5)
C38E C 0.5633(3) 0.8985(4) 0.3072(4)
H40E H 0.6169(2) 0.7975(3) 0.3825(3)
H41E H 0.5401(2) 0.8119(3) 0.4358(3)
H42E H 0.4799(2) 0.8768(3) 0.4107(3)
H43E H 0.4918(2) 0.9336(3) 0.3272(3)
H44E H 0.5690(2) 0.9227(3) 0.2731(3)
O9A O 0.6836(2) 0.6934(3) -0.0959(3)
P3A P 0.64880(12) 0.67994(12) -0.04750(14)
C7A C 0.6787(3) 0.6870(4) 0.0209(4)
H13A H 0.65355 0.675405 0.050847
H14A H 0.684947 0.727728 0.02909
C8A C 0.7298(3) 0.6538(4) 0.0283(4)
H15A H 0.722971 0.612653 0.023338
H16A H 0.755177 0.665822 -0.001249
C9A C 0.7519(4) 0.6637(3) 0.0843(3)
H17A H 0.728638 0.647151 0.113713
H18A H 0.784416 0.641232 0.088604
O10A O 0.8137(2) 0.7702(3) 0.2844(3)
P4A P 0.84238(12) 0.79519(12) 0.23602(14)
C10A C 0.8072(4) 0.7917(4) 0.1717(4)
H19A H 0.774800 0.814440 0.175070
H20A H 0.828230 0.808810 0.140650
C11A C 0.7942(4) 0.7345(5) 0.1570(4)
H21A H 0.775070 0.716560 0.189010
H22A H 0.826200 0.710850 0.157330
C12A C 0.7626(3) 0.7238(4) 0.0983(7)
H23A H 0.729270 0.745230 0.099120
H24A H 0.781600 0.741830 0.066250
C39A C 0.6257(2) 0.6116(2) -0.0549(3)
C40A C 0.6052(3) 0.5820(4) -0.0098(4)
C41A C 0.5861(4) 0.5287(4) -0.0179(5)
C42A C 0.5864(4) 0.5039(4) -0.0685(6)
C43A C 0.6062(4) 0.5321(4) -0.1147(5)
C44A C 0.6263(3) 0.5857(4) -0.1076(4)
H45A H 0.6043(2) 0.5992(2) 0.0288(3)
H46A H 0.5714(2) 0.5069(2) 0.0145(3)
H47A H 0.5721(2) 0.4650(2) -0.0716(3)
H48A H 0.6060(2) 0.5140(2) -0.1528(3)
H49A H 0.6413(2) 0.6058(2) -0.1409(3)
C45A C 0.5931(2) 0.7249(3) -0.0474(3)
C46A C 0.5599(3) 0.7276(4) -0.0016(4)
C47A C 0.5196(4) 0.7652(4) -0.0018(5)
C48A C 0.5111(5) 0.7999(4) -0.0451(6)
C49A C 0.5435(4) 0.7988(4) -0.0915(5)
C50A C 0.5841(4) 0.7609(4) -0.0928(4)
H50A H 0.5651(2) 0.7023(3) 0.0317(3)
H51A H 0.4953(2) 0.7674(3) 0.0310(3)
H52A H 0.4810(2) 0.8263(3) -0.0428(3)
H53A H 0.5376(2) 0.8252(3) -0.1238(3)
H54A H 0.6071(2) 0.7594(3) -0.1267(3)
C51A C 0.9013(2) 0.7545(3) 0.2239(3)
C52A C 0.9082(3) 0.7014(3) 0.2467(4)
C53A C 0.9527(4) 0.6719(4) 0.2355(5)
C54A C 0.9903(4) 0.6928(5) 0.2030(5)
C55A C 0.9851(4) 0.7458(5) 0.1797(5)
C56A C 0.9403(3) 0.7763(4) 0.1897(4)
H55A H 0.8809(2) 0.6843(3) 0.2714(3)
H56A H 0.9580(2) 0.6334(3) 0.2517(3)
H57A H 1.0217(2) 0.6692(3) 0.1963(3)
H58A H 1.0134(2) 0.7619(3) 0.1558(3)
H59A H 0.9362(2) 0.8143(3) 0.1722(3)
C57A C 0.8569(3) 0.8679(2) 0.2488(3)
C58A C 0.8594(4) 0.8880(3) 0.3035(4)
C59A C 0.8726(5) 0.9432(4) 0.3132(5)
C60A C 0.8833(5) 0.9787(3) 0.2711(6)
C61A C 0.8810(5) 0.9604(4) 0.2158(5)
C62A C 0.8683(4) 0.9048(3) 0.2048(4)
H60A H 0.8516(3) 0.8627(2) 0.3362(3)
H61A H 0.8746(3) 0.9581(2) 0.3526(3)
H62A H 0.8928(3) 1.0183(2) 0.2809(3)
H63A H 0.8884(3) 0.9871(2) 0.1841(3)
H64A H 0.8674(3) 0.8913(2) 0.1648(3)
Pr1E Pr 0.75016(5) 1.234850(15) 0.34732
O1E O 0.7104(2) 1.3195(3) 0.4002(3)
O2E O 0.7735(2) 1.2757(3) 0.4449(3)
N1E N 0.7359(3) 1.3142(3) 0.4441(3)
O3E O 0.7293(3) 1.3453(3) 0.4857(3)
N2E N 0.7664(4) 1.1376(5) 0.2707(5)
O4E O 0.7911(2) 1.1879(3) 0.2600(3)
O5E O 0.7308(3) 1.1377(3) 0.3052(3)
O6E O 0.7818(3) 1.0944(3) 0.2442(3)
Pr1E_2 Pr 0.75016(5) 0.234850(15) 0.34732
Pr1A Pr 0.75016(5) 0.734850(15) 0.84732
Pr1A_2 Pr 0.75016(5) 0.734850(15) -0.15268
O8_2 O 0.8089(2) 1.3021(3) 0.3067(3)
O9E O 0.6836(2) 1.1934(3) 0.4041(3)
O10D O 0.6863(2) 1.2702(3) 0.2844(3)
O11 O 0.1128(3) 0.4747(3) 0.2411(3)
C13 C 0.1503(5) 0.4468(5) 0.2053(5)
O12 O 0.0745(3) 0.8567(4) 0.1199(4)
C14 C 0.1214(5) 0.8926(5) 0.1517(5)
O13 O 0.0138(4) 0.0833(5) 0.1063(5)
O14 O 0.0933(5) 0.0326(6) 0.4520(6)
O15 O 0.00000 0.50000 0.0179(7)
N3 N 0.00000 0.50000 0.1695(9)
O16 O -0.0388(3) 0.5041(3) 0.1369(3)
O17 O 0.00000 0.50000 0.2182(6)
O16C O 0.0388(3) 0.4959(3) 0.1369(3)
loop_
_geom_bond_atom_site_label_1
_geom_bond_atom_site_label_2
_geom_bond_site_symmetry_1
_geom_bond_site_symmetry_2
Pr1 O1 1_555 1_555
O1 N1 1_555 1_555
O2 Pr1 1_555 1_555
N1 O2 1_555 1_555
O3 N1 1_555 1_555
N2 O4 1_555 1_555
O4 Pr1 1_555 1_555
O5 Pr1 1_555 1_555
O6 N2 1_555 1_555
O7 Pr1 1_555 1_555
P1 O7 1_555 1_555
C1 P1 1_555 1_555
H1 C1 1_555 1_555
H2 C1 1_555 1_555
C2 C1 1_555 1_555
H3 C2 1_555 1_555
H4 C2 1_555 1_555
C3 C2 1_555 1_555
H5 C3 1_555 1_555
H6 C3 1_555 1_555
O8 P2 1_555 1_555
P2 C4 1_555 1_555
C4 H7 1_555 1_555
H8 C4 1_555 1_555
C5 C4 1_555 1_555
H9 C5 1_555 1_555
H10 C5 1_555 1_555
C6 C3 1_555 1_555
H11 C6 1_555 1_555
H12 C6 1_555 1_555
O9 Pr1 1_555 1_555
P3 O9 1_555 1_555
C7 P3 1_555 1_555
H13 C7 1_555 1_555
H14 C7 1_555 1_555
C8 C7 1_555 1_555
H15 C8 1_555 1_555
H16 C8 1_555 1_555
C9 C8 1_555 1_555
H17 C9 1_555 1_555
H18 C9 1_555 1_555
O10 P4 1_555 1_555
P4 C10 1_555 1_555
C10 H19 1_555 1_555
H20 C10 1_555 1_555
C11 C10 1_555 1_555
H21 C11 1_555 1_555
H22 C11 1_555 1_555
C12 C9 1_555 1_555
H23 C12 1_555 1_555
H24 C12 1_555 1_555
O11 C13 1_555 1_555
O12 C14 1_555 1_555
N3 O16 1_555 1_555
O17 N3 1_555 1_555
C15 P1 1_555 1_555
C16 C15 1_555 1_555
C17 C16 1_555 1_555
C18 C17 1_555 1_555
C19 C18 1_555 1_555
C20 C15 1_555 1_555
H25 C16 1_555 1_555
H26 C17 1_555 1_555
H27 C18 1_555 1_555
H28 C19 1_555 1_555
H29 C20 1_555 1_555
C21 P1 1_555 1_555
C22 C21 1_555 1_555
C23 C22 1_555 1_555
C24 C23 1_555 1_555
C25 C24 1_555 1_555
C26 C21 1_555 1_555
H30 C22 1_555 1_555
H31 C23 1_555 1_555
H32 C24 1_555 1_555
H33 C25 1_555 1_555
H34 C26 1_555 1_555
C27 P2 1_555 1_555
C28 C27 1_555 1_555
C29 C28 1_555 1_555
C30 C29 1_555 1_555
C31 C30 1_555 1_555
C32 C27 1_555 1_555
H35 C28 1_555 1_555
H36 C29 1_555 1_555
H37 C30 1_555 1_555
H38 C31 1_555 1_555
H39 C32 1_555 1_555
C33 P2 1_555 1_555
C34 C33 1_555 1_555
C35 C34 1_555 1_555
C36 C35 1_555 1_555
C37 C36 1_555 1_555
C38 C33 1_555 1_555
H40 C34 1_555 1_555
H41 C35 1_555 1_555
H42 C36 1_555 1_555
H43 C37 1_555 1_555
H44 C38 1_555 1_555
C39 P3 1_555 1_555
C40 C39 1_555 1_555
C41 C40 1_555 1_555
C42 C41 1_555 1_555
C43 C42 1_555 1_555
C44 C39 1_555 1_555
H45 C40 1_555 1_555
H46 C41 1_555 1_555
H47 C42 1_555 1_555
H48 C43 1_555 1_555
H49 C44 1_555 1_555
C45 P3 1_555 1_555
C46 C45 1_555 1_555
C47 C46 1_555 1_555
C48 C47 1_555 1_555
C49 C48 1_555 1_555
C50 C45 1_555 1_555
H50 C46 1_555 1_555
H51 C47 1_555 1_555
H52 C48 1_555 1_555
H53 C49 1_555 1_555
H54 C50 1_555 1_555
C51 P4 1_555 1_555
C52 C51 1_555 1_555
C53 C52 1_555 1_555
C54 C53 1_555 1_555
C55 C54 1_555 1_555
C56 C51 1_555 1_555
H55 C52 1_555 1_555
H56 C53 1_555 1_555
H57 C54 1_555 1_555
H58 C55 1_555 1_555
H59 C56 1_555 1_555
C57 P4 1_555 1_555
C58 C57 1_555 1_555
C59 C58 1_555 1_555
C60 C59 1_555 1_555
C61 C60 1_555 1_555
C62 C57 1_555 1_555
H60 C58 1_555 1_555
H61 C59 1_555 1_555
H62 C60 1_555 1_555
H63 C61 1_555 1_555
H64 C62 1_555 1_555
O16C N3 1_555 1_555
O7E P1E 1_555 1_555
P1E C1E 1_555 1_555
C1E H1E 1_555 1_555
H2E C1E 1_555 1_555
C2E C1E 1_555 1_555
H3E C2E 1_555 1_555
H4E C2E 1_555 1_555
C3E C2E 1_555 1_555
H5E C3E 1_555 1_555
H6E C3E 1_555 1_555
O8E Pr1 1_555 1_555
P2E O8E 1_555 1_555
C4E P2E 1_555 1_555
H7E C4E 1_555 1_555
H8E C4E 1_555 1_555
C5E C4E 1_555 1_555
H9E C5E 1_555 1_555
H10E C5E 1_555 1_555
C6E C3E 1_555 1_555
H11E C6E 1_555 1_555
H12E C6E 1_555 1_555
C15E P1E 1_555 1_555
C16E C15E 1_555 1_555
C17E C16E 1_555 1_555
C18E C17E 1_555 1_555
C19E C18E 1_555 1_555
C20E C15E 1_555 1_555
H25E C16E 1_555 1_555
H26E C17E 1_555 1_555
H27E C18E 1_555 1_555
H28E C19E 1_555 1_555
H29E C20E 1_555 1_555
C21E P1E 1_555 1_555
C22E C21E 1_555 1_555
C23E C22E 1_555 1_555
C24E C23E 1_555 1_555
C25E C24E 1_555 1_555
C26E C21E 1_555 1_555
H30E C22E 1_555 1_555
H31E C23E 1_555 1_555
H32E C24E 1_555 1_555
H33E C25E 1_555 1_555
H34E C26E 1_555 1_555
C27E P2E 1_555 1_555
C28E C27E 1_555 1_555
C29E C28E 1_555 1_555
C30E C29E 1_555 1_555
C31E C30E 1_555 1_555
C32E C27E 1_555 1_555
H35E C28E 1_555 1_555
H36E C29E 1_555 1_555
H37E C30E 1_555 1_555
H38E C31E 1_555 1_555
H39E C32E 1_555 1_555
C33E P2E 1_555 1_555
C34E C33E 1_555 1_555
C35E C34E 1_555 1_555
C36E C35E 1_555 1_555
C37E C36E 1_555 1_555
C38E C33E 1_555 1_555
H40E C34E 1_555 1_555
H41E C35E 1_555 1_555
H42E C36E 1_555 1_555
H43E C37E 1_555 1_555
H44E C38E 1_555 1_555
O9A P3A 1_555 1_555
P3A C7A 1_555 1_555
C7A H13A 1_555 1_555
H14A C7A 1_555 1_555
C8A C7A 1_555 1_555
H15A C8A 1_555 1_555
H16A C8A 1_555 1_555
C9A C8A 1_555 1_555
H17A C9A 1_555 1_555
H18A C9A 1_555 1_555
O10A Pr1 1_555 1_555
P4A O10A 1_555 1_555
C10A P4A 1_555 1_555
H19A C10A 1_555 1_555
H20A C10A 1_555 1_555
C11A C10A 1_555 1_555
H21A C11A 1_555 1_555
H22A C11A 1_555 1_555
C12A C9A 1_555 1_555
H23A C12A 1_555 1_555
H24A C12A 1_555 1_555
C39A P3A 1_555 1_555
C40A C39A 1_555 1_555
C41A C40A 1_555 1_555
C42A C41A 1_555 1_555
C43A C42A 1_555 1_555
C44A C39A 1_555 1_555
H45A C40A 1_555 1_555
H46A C41A 1_555 1_555
H47A C42A 1_555 1_555
H48A C43A 1_555 1_555
H49A C44A 1_555 1_555
C45A P3A 1_555 1_555
C46A C45A 1_555 1_555
C47A C46A 1_555 1_555
C48A C47A 1_555 1_555
C49A C48A 1_555 1_555
C50A C45A 1_555 1_555
H50A C46A 1_555 1_555
H51A C47A 1_555 1_555
H52A C48A 1_555 1_555
H53A C49A 1_555 1_555
H54A C50A 1_555 1_555
C51A P4A 1_555 1_555
C52A C51A 1_555 1_555
C53A C52A 1_555 1_555
C54A C53A 1_555 1_555
C55A C54A 1_555 1_555
C56A C51A 1_555 1_555
H55A C52A 1_555 1_555
H56A C53A 1_555 1_555
H57A C54A 1_555 1_555
H58A C55A 1_555 1_555
H59A C56A 1_555 1_555
C57A P4A 1_555 1_555
C58A C57A 1_555 1_555
C59A C58A 1_555 1_555
C60A C59A 1_555 1_555
C61A C60A 1_555 1_555
C62A C57A 1_555 1_555
H60A C58A 1_555 1_555
H61A C59A 1_555 1_555
H62A C60A 1_555 1_555
H63A C61A 1_555 1_555
H64A C62A 1_555 1_555
Pr1E O7E 1_555 1_555
O1E Pr1E 1_555 1_555
O2E Pr1E 1_555 1_555
N1E O1E 1_555 1_555
O3E N1E 1_555 1_555
N2E O4E 1_555 1_555
O4E Pr1E 1_555 1_555
O5E Pr1E 1_555 1_555
O6E N2E 1_555 1_555
Pr1E_2 O8 1_555 1_555
Pr1A O10 1_555 1_555
Pr1A_2 O9A 1_555 1_555
O8_2 Pr1E 1_555 1_555
O9E Pr1E 1_555 1_555
O10D Pr1E 1_555 1_555
N2 O5 1_555 1_555
C5 C6 1_555 1_555
C11 C12 1_555 1_555
C19 C20 1_555 1_555
C25 C26 1_555 1_555
C31 C32 1_555 1_555
C37 C38 1_555 1_555
C43 C44 1_555 1_555
C49 C50 1_555 1_555
C55 C56 1_555 1_555
C61 C62 1_555 1_555
C5E C6E 1_555 1_555
C19E C20E 1_555 1_555
C25E C26E 1_555 1_555
C31E C32E 1_555 1_555
C37E C38E 1_555 1_555
C11A C12A 1_555 1_555
C43A C44A 1_555 1_555
C49A C50A 1_555 1_555
C55A C56A 1_555 1_555
C61A C62A 1_555 1_555
O2E N1E 1_555 1_555
N2E O5E 1_555 1_555

#END
