
#######################################################################
#
#                 Cambridge Crystallographic Data Centre
#                                CCDC 
#
#######################################################################
#
# If this CIF has been generated from an entry in the Cambridge 
# Structural Database, then it will include bibliographic, chemical, 
# crystal, experimental, refinement or atomic coordinate data resulting 
# from the CCDC's data processing and validation procedures.
#
#######################################################################

data_DIRYIN
_symmetry_cell_setting           orthorhombic
_symmetry_space_group_name_H-M   'A b a 2'
_symmetry_Int_Tables_number      41
_space_group_name_Hall           'A 2 -2ac'
loop_
_symmetry_equiv_pos_site_id
_symmetry_equiv_pos_as_xyz
1 x,y,z
2 1/2-x,y,1/2+z
3 1/2+x,-y,1/2+z
4 -x,-y,z
5 x,1/2+y,1/2+z
6 1/2-x,1/2+y,z
7 1/2+x,1/2-y,z
8 -x,1/2-y,1/2+z
_cell_length_a                   25.7052(4)
_cell_length_b                   23.6239(4)
_cell_length_c                   23.4771(4)
_cell_angle_alpha                90
_cell_angle_beta                 90
_cell_angle_gamma                90
_cell_volume                     14256.6
loop_
_atom_site_label
_atom_site_type_symbol
_atom_site_fract_x
_atom_site_fract_y
_atom_site_fract_z
Dy1 Dy 0.75076(5) 0.731276(19) 0.34732
O1 O 0.7897(3) 0.8132(4) 0.3970(4)
O2 O 0.7278(3) 0.7700(5) 0.4409(3)
N1 N 0.7649(4) 0.8097(5) 0.4391(5)
O3 O 0.7701(3) 0.8403(4) 0.4814(4)
N2 N 0.7381(6) 0.6387(6) 0.2729(6)
O4 O 0.7111(3) 0.6893(4) 0.2607(4)
O5 O 0.7722(3) 0.6388(4) 0.3090(5)
O6 O 0.7229(4) 0.5952(4) 0.2429(5)
O7 O 0.6842(4) 0.6778(4) 0.3775(4)
P1 P 0.64813(16) 0.63191(17) 0.3997(2)
C1 C 0.6769(4) 0.5680(5) 0.3940(6)
H1 H 0.650366 0.53757 0.400139
H2 H 0.681864 0.558523 0.35284
C2 C 0.7238(5) 0.5543(6) 0.4253(6)
H3 H 0.719928 0.566838 0.465765
H4 H 0.751134 0.583192 0.416955
C3 C 0.7481(6) 0.4948(4) 0.4238(4)
H5 H 0.78013 0.494266 0.447983
H6 H 0.72213 0.466418 0.437536
O8 O 0.8060(3) 0.2961(4) 0.3092(4)
P2 P 0.83535(16) 0.34490(17) 0.2882(2)
C4 C 0.7982(5) 0.4089(6) 0.2924(6)
H7 H 0.763930 0.403330 0.272970
H8 H 0.81737 0.440120 0.272880
C5 C 0.7884(4) 0.4258(5) 0.3584(5)
H9 H 0.822480 0.42756 0.378820
H10 H 0.765510 0.396830 0.376700
C6 C 0.7630(4) 0.4814(5) 0.3609(5)
H11 H 0.787430 0.511030 0.346480
H12 H 0.730860 0.480870 0.336950
O9 O 0.8146(3) 0.6924(4) 0.4014(4)
P3 P 0.85151(15) 0.67929(16) 0.45011(19)
C7 C 0.8198(4) 0.6845(5) 0.5189(5)
H13 H 0.844442 0.671958 0.549387
H14 H 0.812664 0.725153 0.527774
C8 C 0.7709(4) 0.6516(5) 0.5232(5)
H15 H 0.778476 0.61048 0.517213
H16 H 0.746046 0.664497 0.493056
C9 C 0.7459(6) 0.6601(4) 0.5826(4)
H17 H 0.76726 0.640099 0.611985
H18 H 0.712098 0.639251 0.584359
O10 O 0.6890(3) 0.7658(5) 0.7853(4)
P4 P 0.66066(16) 0.79116(16) 0.73691(19)
C10 C 0.6959(5) 0.7852(5) 0.6747(6)
H19 H 0.729310 0.806480 0.678540
H20 H 0.677820 0.806360 0.643590
C11 C 0.7065(5) 0.7286(6) 0.6561(5)
H21 H 0.72367 0.707060 0.687610
H22 H 0.673260 0.706800 0.653830
C12 C 0.7377(4) 0.7204(5) 0.6004(8)
H23 H 0.772130 0.739780 0.603790
H24 H 0.720400 0.741630 0.568820
C15 C 0.6264(3) 0.6431(4) 0.4715(3)
C16 C 0.6272(5) 0.6972(5) 0.4935(5)
C17 C 0.6093(6) 0.7076(7) 0.5471(5)
C18 C 0.5902(7) 0.6682(8) 0.5789(5)
C19 C 0.5881(6) 0.6142(8) 0.5596(5)
C20 C 0.6058(5) 0.6003(6) 0.5048(5)
H25 H 0.6410(3) 0.7294(4) 0.4703(3)
H26 H 0.6103(3) 0.7464(4) 0.5642(3)
H27 H 0.5773(3) 0.6792(4) 0.6175(3)
H28 H 0.5735(3) 0.5848(4) 0.5857(3)
H29 H 0.6038(3) 0.5607(4) 0.4899(3)
C21 C 0.5929(3) 0.6285(4) 0.3543(4)
C22 C 0.5546(4) 0.5886(5) 0.3636(5)
C23 C 0.5148(6) 0.5823(7) 0.3258(6)
C24 C 0.5105(6) 0.6135(7) 0.2810(6)
C25 C 0.5467(6) 0.6536(7) 0.2696(6)
C26 C 0.5888(5) 0.6625(5) 0.3065(5)
H30 H 0.5557(3) 0.5639(4) 0.3982(4)
H31 H 0.4871(3) 0.5530(4) 0.3313(4)
H32 H 0.4799(3) 0.6067(4) 0.2556(4)
H33 H 0.5423(3) 0.6764(4) 0.2341(4)
H34 H 0.6154(3) 0.6925(4) 0.2990(4)
C27 C 0.8530(4) 0.3329(4) 0.2174(3)
C28 C 0.8609(5) 0.2788(5) 0.1969(5)
C29 C 0.8751(6) 0.2703(7) 0.1416(5)
C30 C 0.8826(7) 0.3118(8) 0.1068(5)
C31 C 0.8758(6) 0.3658(8) 0.1245(5)
C32 C 0.8612(5) 0.3779(6) 0.1808(5)
H35 H 0.8563(4) 0.2453(4) 0.2224(3)
H36 H 0.8802(4) 0.2315(4) 0.1257(3)
H37 H 0.8936(4) 0.3022(4) 0.0671(3)
H38 H 0.8815(4) 0.3967(4) 0.0960(3)
H39 H 0.8567(4) 0.4177(4) 0.1945(3)
C33 C 0.8970(3) 0.3546(4) 0.3241(4)
C34 C 0.9058(5) 0.3228(5) 0.3725(5)
C35 C 0.9503(5) 0.3298(7) 0.4033(7)
C36 C 0.9851(5) 0.3667(8) 0.3896(8)
C37 C 0.9787(5) 0.3994(7) 0.3427(7)
C38 C 0.9339(4) 0.3945(6) 0.3088(5)
H40 H 0.8796(3) 0.2943(4) 0.3854(4)
H41 H 0.9577(3) 0.3066(4) 0.4380(4)
H42 H 1.0164(3) 0.3698(4) 0.4146(4)
H43 H 1.0068(3) 0.4270(4) 0.3331(4)
H44 H 0.9284(3) 0.4189(4) 0.2746(4)
C39 C 0.8754(3) 0.6115(3) 0.4419(4)
C40 C 0.8962(5) 0.5816(5) 0.4869(5)
C41 C 0.9160(6) 0.5287(6) 0.4788(7)
C42 C 0.9153(6) 0.5041(6) 0.4297(8)
C43 C 0.8952(6) 0.5312(6) 0.3839(8)
C44 C 0.8741(5) 0.5857(5) 0.3890(6)
H45 H 0.8970(3) 0.5984(3) 0.5260(4)
H46 H 0.9320(3) 0.5066(3) 0.5107(4)
H47 H 0.9301(3) 0.4650(3) 0.4272(4)
H48 H 0.8959(3) 0.5110(3) 0.3465(4)
H49 H 0.8585(3) 0.6058(3) 0.3556(4)
C45 C 0.9075(3) 0.7230(4) 0.4495(4)
C46 C 0.9401(5) 0.7262(5) 0.4961(5)
C47 C 0.9803(6) 0.7638(6) 0.4970(7)
C48 C 0.9901(6) 0.7969(6) 0.4546(8)
C49 C 0.9597(6) 0.7956(6) 0.4075(7)
C50 C 0.9176(5) 0.7580(5) 0.4036(5)
H50 H 0.9346(3) 0.7009(4) 0.5297(4)
H51 H 1.0039(3) 0.7674(4) 0.5307(4)
H52 H 1.0207(3) 0.8229(4) 0.4581(4)
H53 H 0.9683(3) 0.8223(4) 0.3759(4)
H54 H 0.8953(3) 0.7561(4) 0.3687(4)
C51 C 0.6002(3) 0.7531(4) 0.7252(4)
C52 C 0.5910(5) 0.6993(5) 0.7458(5)
C53 C 0.5457(5) 0.6720(6) 0.7334(7)
C54 C 0.5104(5) 0.6943(8) 0.7015(7)
C55 C 0.5172(5) 0.7469(7) 0.6797(7)
C56 C 0.5629(4) 0.7776(5) 0.6907(5)
H55 H 0.6175(3) 0.6798(4) 0.7701(4)
H56 H 0.5379(3) 0.6334(4) 0.7486(4)
H57 H 0.4784(3) 0.6714(4) 0.6938(4)
H58 H 0.4887(3) 0.7629(4) 0.6557(4)
H59 H 0.5687(3) 0.8161(4) 0.6742(4)
C57 C 0.6500(4) 0.8653(3) 0.7497(5)
C58 C 0.6422(5) 0.8852(5) 0.8044(5)
C59 C 0.6270(6) 0.9398(5) 0.8133(7)
C60 C 0.6185(7) 0.9744(5) 0.7719(9)
C61 C 0.6252(6) 0.9573(5) 0.7173(8)
C62 C 0.6408(5) 0.9018(5) 0.7048(6)
H60 H 0.6476(4) 0.8598(3) 0.8379(5)
H61 H 0.6219(4) 0.9553(3) 0.8526(5)
H62 H 0.6069(4) 1.0136(3) 0.7818(5)
H63 H 0.6187(4) 0.9856(3) 0.6865(5)
H64 H 0.6452(4) 0.8885(3) 0.6646(5)
O7E O 0.8158(4) 1.1778(4) 0.3775(4)
P1E P 0.85187(16) 1.13191(17) 0.3997(2)
C1E C 0.8231(4) 1.0680(5) 0.3940(6)
H1E H 0.849634 1.03757 0.400139
H2E H 0.818136 1.058523 0.35284
C2E C 0.7762(5) 1.0543(6) 0.4253(6)
H3E H 0.780072 1.066838 0.465765
H4E H 0.748866 1.083192 0.416955
C3E C 0.7519(6) 0.9948(4) 0.4238(4)
H5E H 0.71987 0.994266 0.447983
H6E H 0.77787 0.966418 0.437536
O8E O 0.6940(3) 0.7961(4) 0.3092(4)
P2E P 0.66465(16) 0.84490(17) 0.2882(2)
C4E C 0.7018(5) 0.9089(6) 0.2924(6)
H7E H 0.736070 0.903330 0.272970
H8E H 0.68263 0.940120 0.272880
C5E C 0.7116(4) 0.9258(5) 0.3584(5)
H9E H 0.677520 0.92756 0.378820
H10E H 0.734490 0.896830 0.376700
C6E C 0.7370(4) 0.9814(5) 0.3609(5)
H11E H 0.712570 1.011030 0.346480
H12E H 0.769140 0.980870 0.336950
C15E C 0.8736(3) 1.1431(4) 0.4715(3)
C16E C 0.8728(5) 1.1972(5) 0.4935(5)
C17E C 0.8907(6) 1.2076(7) 0.5471(5)
C18E C 0.9098(7) 1.1682(8) 0.5789(5)
C19E C 0.9119(6) 1.1142(8) 0.5596(5)
C20E C 0.8942(5) 1.1003(6) 0.5048(5)
H25E H 0.8590(3) 1.2294(4) 0.4703(3)
H26E H 0.8897(3) 1.2464(4) 0.5642(3)
H27E H 0.9227(3) 1.1792(4) 0.6175(3)
H28E H 0.9265(3) 1.0848(4) 0.5857(3)
H29E H 0.8962(3) 1.0607(4) 0.4899(3)
C21E C 0.9071(3) 1.1285(4) 0.3543(4)
C22E C 0.9454(4) 1.0886(5) 0.3636(5)
C23E C 0.9852(6) 1.0823(7) 0.3258(6)
C24E C 0.9895(6) 1.1135(7) 0.2810(6)
C25E C 0.9533(6) 1.1536(7) 0.2696(6)
C26E C 0.9112(5) 1.1625(5) 0.3065(5)
H30E H 0.9443(3) 1.0639(4) 0.3982(4)
H31E H 1.0129(3) 1.0530(4) 0.3313(4)
H32E H 1.0201(3) 1.1067(4) 0.2556(4)
H33E H 0.9577(3) 1.1764(4) 0.2341(4)
H34E H 0.8846(3) 1.1925(4) 0.2990(4)
C27E C 0.6470(4) 0.8329(4) 0.2174(3)
C28E C 0.6391(5) 0.7788(5) 0.1969(5)
C29E C 0.6249(6) 0.7703(7) 0.1416(5)
C30E C 0.6174(7) 0.8118(8) 0.1068(5)
C31E C 0.6242(6) 0.8658(8) 0.1245(5)
C32E C 0.6388(5) 0.8779(6) 0.1808(5)
H35E H 0.6437(4) 0.7453(4) 0.2224(3)
H36E H 0.6198(4) 0.7315(4) 0.1257(3)
H37E H 0.6064(4) 0.8022(4) 0.0671(3)
H38E H 0.6185(4) 0.8967(4) 0.0960(3)
H39E H 0.6433(4) 0.9177(4) 0.1945(3)
C33E C 0.6030(3) 0.8546(4) 0.3241(4)
C34E C 0.5942(5) 0.8228(5) 0.3725(5)
C35E C 0.5497(5) 0.8298(7) 0.4033(7)
C36E C 0.5149(5) 0.8667(8) 0.3896(8)
C37E C 0.5213(5) 0.8994(7) 0.3427(7)
C38E C 0.5661(4) 0.8945(6) 0.3088(5)
H40E H 0.6204(3) 0.7943(4) 0.3854(4)
H41E H 0.5423(3) 0.8066(4) 0.4380(4)
H42E H 0.4836(3) 0.8698(4) 0.4146(4)
H43E H 0.4932(3) 0.9270(4) 0.3331(4)
H44E H 0.5716(3) 0.9189(4) 0.2746(4)
O9A O 0.6854(3) 0.6924(4) -0.0986(4)
P3A P 0.64849(15) 0.67929(16) -0.04989(19)
C7A C 0.6802(4) 0.6845(5) 0.0189(5)
H13A H 0.655558 0.671958 0.049387
H14A H 0.687336 0.725153 0.027774
C8A C 0.7291(4) 0.6516(5) 0.0232(5)
H15A H 0.721524 0.61048 0.017213
H16A H 0.753954 0.664497 -0.006944
C9A C 0.7541(6) 0.6601(4) 0.0826(4)
H17A H 0.73274 0.640099 0.111985
H18A H 0.787902 0.639251 0.084359
O10A O 0.8110(3) 0.7658(5) 0.2853(4)
P4A P 0.83934(16) 0.79116(16) 0.23691(19)
C10A C 0.8041(5) 0.7852(5) 0.1747(6)
H19A H 0.770690 0.806480 0.178540
H20A H 0.822180 0.806360 0.143590
C11A C 0.7935(5) 0.7286(6) 0.1561(5)
H21A H 0.77633 0.707060 0.187610
H22A H 0.826740 0.706800 0.153830
C12A C 0.7623(4) 0.7204(5) 0.1004(8)
H23A H 0.727870 0.739780 0.103790
H24A H 0.779600 0.741630 0.068820
C39A C 0.6246(3) 0.6115(3) -0.0581(4)
C40A C 0.6038(5) 0.5816(5) -0.0131(5)
C41A C 0.5840(6) 0.5287(6) -0.0212(7)
C42A C 0.5847(6) 0.5041(6) -0.0703(8)
C43A C 0.6048(6) 0.5312(6) -0.1161(8)
C44A C 0.6259(5) 0.5857(5) -0.1110(6)
H45A H 0.6030(3) 0.5984(3) 0.0260(4)
H46A H 0.5680(3) 0.5066(3) 0.0107(4)
H47A H 0.5699(3) 0.4650(3) -0.0728(4)
H48A H 0.6041(3) 0.5110(3) -0.1535(4)
H49A H 0.6415(3) 0.6058(3) -0.1444(4)
C45A C 0.5925(3) 0.7230(4) -0.0505(4)
C46A C 0.5599(5) 0.7262(5) -0.0039(5)
C47A C 0.5197(6) 0.7638(6) -0.0030(7)
C48A C 0.5099(6) 0.7969(6) -0.0454(8)
C49A C 0.5403(6) 0.7956(6) -0.0925(7)
C50A C 0.5824(5) 0.7580(5) -0.0964(5)
H50A H 0.5654(3) 0.7009(4) 0.0297(4)
H51A H 0.4961(3) 0.7674(4) 0.0307(4)
H52A H 0.4793(3) 0.8229(4) -0.0419(4)
H53A H 0.5317(3) 0.8223(4) -0.1241(4)
H54A H 0.6047(3) 0.7561(4) -0.1313(4)
C51A C 0.8998(3) 0.7531(4) 0.2252(4)
C52A C 0.9090(5) 0.6993(5) 0.2458(5)
C53A C 0.9543(5) 0.6720(6) 0.2334(7)
C54A C 0.9896(5) 0.6943(8) 0.2015(7)
C55A C 0.9828(5) 0.7469(7) 0.1797(7)
C56A C 0.9371(4) 0.7776(5) 0.1907(5)
H55A H 0.8825(3) 0.6798(4) 0.2701(4)
H56A H 0.9621(3) 0.6334(4) 0.2486(4)
H57A H 1.0216(3) 0.6714(4) 0.1938(4)
H58A H 1.0113(3) 0.7629(4) 0.1557(4)
H59A H 0.9313(3) 0.8161(4) 0.1742(4)
C57A C 0.8500(4) 0.8653(3) 0.2497(5)
C58A C 0.8578(5) 0.8852(5) 0.3044(5)
C59A C 0.8730(6) 0.9398(5) 0.3133(7)
C60A C 0.8815(7) 0.9744(5) 0.2719(9)
C61A C 0.8748(6) 0.9573(5) 0.2173(8)
C62A C 0.8592(5) 0.9018(5) 0.2048(6)
H60A H 0.8524(4) 0.8598(3) 0.3379(5)
H61A H 0.8781(4) 0.9553(3) 0.3526(5)
H62A H 0.8931(4) 1.0136(3) 0.2818(5)
H63A H 0.8813(4) 0.9856(3) 0.1865(5)
H64A H 0.8548(4) 0.8885(3) 0.1646(5)
Dy1E Dy 0.74924(5) 1.231276(19) 0.34732
O1E O 0.7103(3) 1.3132(4) 0.3970(4)
O2E O 0.7722(3) 1.2700(5) 0.4409(3)
N1E N 0.7351(4) 1.3097(5) 0.4391(5)
O3E O 0.7299(3) 1.3403(4) 0.4814(4)
N2E N 0.7619(6) 1.1387(6) 0.2729(6)
O4E O 0.7889(3) 1.1893(4) 0.2607(4)
O5E O 0.7278(3) 1.1388(4) 0.3090(5)
O6E O 0.7771(4) 1.0952(4) 0.2429(5)
Dy1E_2 Dy 0.74924(5) 0.231276(19) 0.34732
Dy1A Dy 0.74924(5) 0.731276(19) 0.84732
Dy1A_2 Dy 0.74924(5) 0.731276(19) -0.15268
O8_2 O 0.8060(3) 1.2961(4) 0.3092(4)
O9E O 0.6854(3) 1.1924(4) 0.4014(4)
O10D O 0.6890(3) 1.2658(5) 0.2853(4)
O11 O 0.1205(9) 0.4636(9) 0.2349(10)
C13 C 0.1544(7) 0.4487(7) 0.2006(8)
O12 O 0.0763(4) 0.8582(4) 0.1169(4)
C14 C 0.1181(6) 0.8968(6) 0.1477(6)
O13 O 0.0151(5) 0.0850(6) 0.1102(6)
O14 O 0.0988(6) 0.0409(7) 0.4601(7)
O15 O 0.00000 0.50000 0.0153(10)
N3 N 0.00000 0.50000 0.1783(15)
O16 O -0.0380(5) 0.4967(5) 0.1284(5)
O17 O 0.00000 0.50000 0.2215(8)
O16C O 0.0380(5) 0.5033(5) 0.1284(5)
loop_
_geom_bond_atom_site_label_1
_geom_bond_atom_site_label_2
_geom_bond_site_symmetry_1
_geom_bond_site_symmetry_2
Dy1 O1 1_555 1_555
O1 N1 1_555 1_555
O2 Dy1 1_555 1_555
N1 O2 1_555 1_555
O3 N1 1_555 1_555
N2 O4 1_555 1_555
O4 Dy1 1_555 1_555
O5 Dy1 1_555 1_555
O6 N2 1_555 1_555
O7 Dy1 1_555 1_555
P1 O7 1_555 1_555
C1 P1 1_555 1_555
H1 C1 1_555 1_555
H2 C1 1_555 1_555
C2 C1 1_555 1_555
H3 C2 1_555 1_555
H4 C2 1_555 1_555
C3 C2 1_555 1_555
H5 C3 1_555 1_555
H6 C3 1_555 1_555
O8 P2 1_555 1_555
P2 C4 1_555 1_555
C4 H7 1_555 1_555
H8 C4 1_555 1_555
C5 C4 1_555 1_555
H9 C5 1_555 1_555
H10 C5 1_555 1_555
C6 C3 1_555 1_555
H11 C6 1_555 1_555
H12 C6 1_555 1_555
O9 Dy1 1_555 1_555
P3 O9 1_555 1_555
C7 P3 1_555 1_555
H13 C7 1_555 1_555
H14 C7 1_555 1_555
C8 C7 1_555 1_555
H15 C8 1_555 1_555
H16 C8 1_555 1_555
C9 C8 1_555 1_555
H17 C9 1_555 1_555
H18 C9 1_555 1_555
O10 P4 1_555 1_555
P4 C10 1_555 1_555
C10 H19 1_555 1_555
H20 C10 1_555 1_555
C11 C10 1_555 1_555
H21 C11 1_555 1_555
H22 C11 1_555 1_555
C12 C9 1_555 1_555
H23 C12 1_555 1_555
H24 C12 1_555 1_555
O11 C13 1_555 1_555
O12 C14 1_555 1_555
N3 O16 1_555 1_555
O17 N3 1_555 1_555
C15 P1 1_555 1_555
C16 C15 1_555 1_555
C17 C16 1_555 1_555
C18 C17 1_555 1_555
C19 C18 1_555 1_555
C20 C15 1_555 1_555
H25 C16 1_555 1_555
H26 C17 1_555 1_555
H27 C18 1_555 1_555
H28 C19 1_555 1_555
H29 C20 1_555 1_555
C21 P1 1_555 1_555
C22 C21 1_555 1_555
C23 C22 1_555 1_555
C24 C23 1_555 1_555
C25 C24 1_555 1_555
C26 C21 1_555 1_555
H30 C22 1_555 1_555
H31 C23 1_555 1_555
H32 C24 1_555 1_555
H33 C25 1_555 1_555
H34 C26 1_555 1_555
C27 P2 1_555 1_555
C28 C27 1_555 1_555
C29 C28 1_555 1_555
C30 C29 1_555 1_555
C31 C30 1_555 1_555
C32 C27 1_555 1_555
H35 C28 1_555 1_555
H36 C29 1_555 1_555
H37 C30 1_555 1_555
H38 C31 1_555 1_555
H39 C32 1_555 1_555
C33 P2 1_555 1_555
C34 C33 1_555 1_555
C35 C34 1_555 1_555
C36 C35 1_555 1_555
C37 C36 1_555 1_555
C38 C33 1_555 1_555
H40 C34 1_555 1_555
H41 C35 1_555 1_555
H42 C36 1_555 1_555
H43 C37 1_555 1_555
H44 C38 1_555 1_555
C39 P3 1_555 1_555
C40 C39 1_555 1_555
C41 C40 1_555 1_555
C42 C41 1_555 1_555
C43 C42 1_555 1_555
C44 C39 1_555 1_555
H45 C40 1_555 1_555
H46 C41 1_555 1_555
H47 C42 1_555 1_555
H48 C43 1_555 1_555
H49 C44 1_555 1_555
C45 P3 1_555 1_555
C46 C45 1_555 1_555
C47 C46 1_555 1_555
C48 C47 1_555 1_555
C49 C48 1_555 1_555
C50 C45 1_555 1_555
H50 C46 1_555 1_555
H51 C47 1_555 1_555
H52 C48 1_555 1_555
H53 C49 1_555 1_555
H54 C50 1_555 1_555
C51 P4 1_555 1_555
C52 C51 1_555 1_555
C53 C52 1_555 1_555
C54 C53 1_555 1_555
C55 C54 1_555 1_555
C56 C51 1_555 1_555
H55 C52 1_555 1_555
H56 C53 1_555 1_555
H57 C54 1_555 1_555
H58 C55 1_555 1_555
H59 C56 1_555 1_555
C57 P4 1_555 1_555
C58 C57 1_555 1_555
C59 C58 1_555 1_555
C60 C59 1_555 1_555
C61 C60 1_555 1_555
C62 C57 1_555 1_555
H60 C58 1_555 1_555
H61 C59 1_555 1_555
H62 C60 1_555 1_555
H63 C61 1_555 1_555
H64 C62 1_555 1_555
O16C N3 1_555 1_555
O7E P1E 1_555 1_555
P1E C1E 1_555 1_555
C1E H1E 1_555 1_555
H2E C1E 1_555 1_555
C2E C1E 1_555 1_555
H3E C2E 1_555 1_555
H4E C2E 1_555 1_555
C3E C2E 1_555 1_555
H5E C3E 1_555 1_555
H6E C3E 1_555 1_555
O8E Dy1 1_555 1_555
P2E O8E 1_555 1_555
C4E P2E 1_555 1_555
H7E C4E 1_555 1_555
H8E C4E 1_555 1_555
C5E C4E 1_555 1_555
H9E C5E 1_555 1_555
H10E C5E 1_555 1_555
C6E C3E 1_555 1_555
H11E C6E 1_555 1_555
H12E C6E 1_555 1_555
C15E P1E 1_555 1_555
C16E C15E 1_555 1_555
C17E C16E 1_555 1_555
C18E C17E 1_555 1_555
C19E C18E 1_555 1_555
C20E C15E 1_555 1_555
H25E C16E 1_555 1_555
H26E C17E 1_555 1_555
H27E C18E 1_555 1_555
H28E C19E 1_555 1_555
H29E C20E 1_555 1_555
C21E P1E 1_555 1_555
C22E C21E 1_555 1_555
C23E C22E 1_555 1_555
C24E C23E 1_555 1_555
C25E C24E 1_555 1_555
C26E C21E 1_555 1_555
H30E C22E 1_555 1_555
H31E C23E 1_555 1_555
H32E C24E 1_555 1_555
H33E C25E 1_555 1_555
H34E C26E 1_555 1_555
C27E P2E 1_555 1_555
C28E C27E 1_555 1_555
C29E C28E 1_555 1_555
C30E C29E 1_555 1_555
C31E C30E 1_555 1_555
C32E C27E 1_555 1_555
H35E C28E 1_555 1_555
H36E C29E 1_555 1_555
H37E C30E 1_555 1_555
H38E C31E 1_555 1_555
H39E C32E 1_555 1_555
C33E P2E 1_555 1_555
C34E C33E 1_555 1_555
C35E C34E 1_555 1_555
C36E C35E 1_555 1_555
C37E C36E 1_555 1_555
C38E C33E 1_555 1_555
H40E C34E 1_555 1_555
H41E C35E 1_555 1_555
H42E C36E 1_555 1_555
H43E C37E 1_555 1_555
H44E C38E 1_555 1_555
O9A P3A 1_555 1_555
P3A C7A 1_555 1_555
C7A H13A 1_555 1_555
H14A C7A 1_555 1_555
C8A C7A 1_555 1_555
H15A C8A 1_555 1_555
H16A C8A 1_555 1_555
C9A C8A 1_555 1_555
H17A C9A 1_555 1_555
H18A C9A 1_555 1_555
O10A Dy1 1_555 1_555
P4A O10A 1_555 1_555
C10A P4A 1_555 1_555
H19A C10A 1_555 1_555
H20A C10A 1_555 1_555
C11A C10A 1_555 1_555
H21A C11A 1_555 1_555
H22A C11A 1_555 1_555
C12A C9A 1_555 1_555
H23A C12A 1_555 1_555
H24A C12A 1_555 1_555
C39A P3A 1_555 1_555
C40A C39A 1_555 1_555
C41A C40A 1_555 1_555
C42A C41A 1_555 1_555
C43A C42A 1_555 1_555
C44A C39A 1_555 1_555
H45A C40A 1_555 1_555
H46A C41A 1_555 1_555
H47A C42A 1_555 1_555
H48A C43A 1_555 1_555
H49A C44A 1_555 1_555
C45A P3A 1_555 1_555
C46A C45A 1_555 1_555
C47A C46A 1_555 1_555
C48A C47A 1_555 1_555
C49A C48A 1_555 1_555
C50A C45A 1_555 1_555
H50A C46A 1_555 1_555
H51A C47A 1_555 1_555
H52A C48A 1_555 1_555
H53A C49A 1_555 1_555
H54A C50A 1_555 1_555
C51A P4A 1_555 1_555
C52A C51A 1_555 1_555
C53A C52A 1_555 1_555
C54A C53A 1_555 1_555
C55A C54A 1_555 1_555
C56A C51A 1_555 1_555
H55A C52A 1_555 1_555
H56A C53A 1_555 1_555
H57A C54A 1_555 1_555
H58A C55A 1_555 1_555
H59A C56A 1_555 1_555
C57A P4A 1_555 1_555
C58A C57A 1_555 1_555
C59A C58A 1_555 1_555
C60A C59A 1_555 1_555
C61A C60A 1_555 1_555
C62A C57A 1_555 1_555
H60A C58A 1_555 1_555
H61A C59A 1_555 1_555
H62A C60A 1_555 1_555
H63A C61A 1_555 1_555
H64A C62A 1_555 1_555
Dy1E O7E 1_555 1_555
O1E Dy1E 1_555 1_555
O2E Dy1E 1_555 1_555
N1E O1E 1_555 1_555
O3E N1E 1_555 1_555
N2E O4E 1_555 1_555
O4E Dy1E 1_555 1_555
O5E Dy1E 1_555 1_555
O6E N2E 1_555 1_555
Dy1E_2 O8 1_555 1_555
Dy1A O10 1_555 1_555
Dy1A_2 O9A 1_555 1_555
O8_2 Dy1E 1_555 1_555
O9E Dy1E 1_555 1_555
O10D Dy1E 1_555 1_555
N2 O5 1_555 1_555
C5 C6 1_555 1_555
C11 C12 1_555 1_555
C19 C20 1_555 1_555
C25 C26 1_555 1_555
C31 C32 1_555 1_555
C37 C38 1_555 1_555
C43 C44 1_555 1_555
C49 C50 1_555 1_555
C55 C56 1_555 1_555
C61 C62 1_555 1_555
C5E C6E 1_555 1_555
C19E C20E 1_555 1_555
C25E C26E 1_555 1_555
C31E C32E 1_555 1_555
C37E C38E 1_555 1_555
C11A C12A 1_555 1_555
C43A C44A 1_555 1_555
C49A C50A 1_555 1_555
C55A C56A 1_555 1_555
C61A C62A 1_555 1_555
O2E N1E 1_555 1_555
N2E O5E 1_555 1_555

#END
