
#######################################################################
#
#                 Cambridge Crystallographic Data Centre
#                                CCDC 
#
#######################################################################
#
# If this CIF has been generated from an entry in the Cambridge 
# Structural Database, then it will include bibliographic, chemical, 
# crystal, experimental, refinement or atomic coordinate data resulting 
# from the CCDC's data processing and validation procedures.
#
#######################################################################

data_DISCIT
_symmetry_cell_setting           monoclinic
_symmetry_space_group_name_H-M   'C 2/m'
_symmetry_Int_Tables_number      12
_space_group_name_Hall           '-C 2y'
loop_
_symmetry_equiv_pos_site_id
_symmetry_equiv_pos_as_xyz
1 x,y,z
2 -x,y,-z
3 1/2+x,1/2+y,z
4 1/2-x,1/2+y,-z
5 -x,-y,-z
6 x,-y,z
7 1/2-x,1/2-y,-z
8 1/2+x,1/2-y,z
_cell_length_a                   16.524(3)
_cell_length_b                   7.382(5)
_cell_length_c                   7.061(4)
_cell_angle_alpha                90
_cell_angle_beta                 101.07(3)
_cell_angle_gamma                90
_cell_volume                     845.276
loop_
_atom_site_label
_atom_site_type_symbol
_atom_site_fract_x
_atom_site_fract_y
_atom_site_fract_z
Ni1 Ni 0.00000 0.00000 0.00000
Co1 Co 0.00000 0.50000 0.50000
C1 C -0.008(3) 0.173(3) 0.191(4)
N1 N -0.014(2) 0.317(4) 0.265(3)
O1 O 0.112(3) 0.50000 0.424(3)
N2 N 0.272(3) 0.50000 0.553(3)
C2 C 0.194(4) 0.50000 0.390(3)
C3 C 0.170(3) 0.50000 0.172(3)
C4 C 0.262(3) 0.50000 0.167(4)
C5 C 0.326(2) 0.50000 0.401(4)
C6 C 0.273(3) 0.50000 0.714(3)
C1A C 0.008(3) 0.173(3) -0.191(4)
N1A N 0.014(2) 0.317(4) -0.265(3)
C1D C 0.008(3) -0.173(3) -0.191(4)
N1D N 0.014(2) -0.317(4) -0.265(3)
C1E C -0.008(3) -0.173(3) 0.191(4)
N1E N -0.014(2) -0.317(4) 0.265(3)
O1A O -0.112(3) 0.50000 0.576(3)
N2A N -0.272(3) 0.50000 0.447(3)
C2A C -0.194(4) 0.50000 0.610(3)
C3A C -0.170(3) 0.50000 0.828(3)
C4A C -0.262(3) 0.50000 0.833(4)
C5A C -0.326(2) 0.50000 0.599(4)
C6A C -0.273(3) 0.50000 0.286(3)
Co1_2 Co 0.00000 -0.50000 -0.50000
Co1_3 Co 0.00000 -0.50000 0.50000
Co1_4 Co 0.00000 0.50000 -0.50000
N1A_2 N 0.014(2) 0.317(4) 0.735(3)
N1D_2 N 0.014(2) 0.683(4) 0.735(3)
N1E_2 N -0.014(2) 0.683(4) 0.265(3)
loop_
_geom_bond_atom_site_label_1
_geom_bond_atom_site_label_2
_geom_bond_site_symmetry_1
_geom_bond_site_symmetry_2
Ni1 C1 1_555 1_555
Co1 N1 1_555 1_555
C1 N1 1_555 1_555
O1 Co1 1_555 1_555
N2 C2 1_555 1_555
C2 O1 1_555 1_555
C3 C2 1_555 1_555
C4 C3 1_555 1_555
C5 N2 1_555 1_555
C6 N2 1_555 1_555
C1A Ni1 1_555 1_555
N1A C1A 1_555 1_555
C1D Ni1 1_555 1_555
N1D C1D 1_555 1_555
C1E Ni1 1_555 1_555
N1E C1E 1_555 1_555
O1A Co1 1_555 1_555
N2A C2A 1_555 1_555
C2A O1A 1_555 1_555
C3A C2A 1_555 1_555
C4A C3A 1_555 1_555
C5A N2A 1_555 1_555
C6A N2A 1_555 1_555
Co1_2 N1D 1_555 1_555
Co1_3 N1E 1_555 1_555
Co1_4 N1A 1_555 1_555
N1A_2 Co1 1_555 1_555
N1D_2 Co1 1_555 1_555
N1E_2 Co1 1_555 1_555
C4 C5 1_555 1_555
C4A C5A 1_555 1_555

#END
