
#######################################################################
#
#                 Cambridge Crystallographic Data Centre
#                                CCDC 
#
#######################################################################
#
# If this CIF has been generated from an entry in the Cambridge 
# Structural Database, then it will include bibliographic, chemical, 
# crystal, experimental, refinement or atomic coordinate data resulting 
# from the CCDC's data processing and validation procedures.
#
#######################################################################

data_DISCEP
_symmetry_cell_setting           monoclinic
_symmetry_space_group_name_H-M   'C 2/m'
_symmetry_Int_Tables_number      12
_space_group_name_Hall           '-C 2y'
loop_
_symmetry_equiv_pos_site_id
_symmetry_equiv_pos_as_xyz
1 x,y,z
2 -x,y,-z
3 1/2+x,1/2+y,z
4 1/2-x,1/2+y,-z
5 -x,-y,-z
6 x,-y,z
7 1/2-x,1/2-y,-z
8 1/2+x,1/2-y,z
_cell_length_a                   16.642(4)
_cell_length_b                   7.524(2)
_cell_length_c                   7.190(5)
_cell_angle_alpha                90
_cell_angle_beta                 102.40(3)
_cell_angle_gamma                90
_cell_volume                     879.29
loop_
_atom_site_label
_atom_site_type_symbol
_atom_site_fract_x
_atom_site_fract_y
_atom_site_fract_z
Ni1 Ni 0.00000 0.00000 0.00000
Mn1 Mn 0.00000 0.50000 0.50000
C1 C -0.009(3) 0.173(3) 0.191(3)
N1 N -0.014(2) 0.318(4) 0.263(4)
O1 O 0.113(3) 0.5000 0.427(3)
N2 N 0.272(3) 0.5000 0.560(3)
C2 C 0.197(2) 0.5000 0.395(4)
C3 C 0.173(3) 0.5000 0.178(3)
C4 C 0.266(2) 0.5000 0.172(3)
C5 C 0.331(3) 0.5000 0.407(3)
C6 C 0.278(3) 0.5000 0.722(4)
C1A C 0.009(3) 0.173(3) -0.191(3)
N1A N 0.014(2) 0.318(4) -0.263(4)
C1D C 0.009(3) -0.173(3) -0.191(3)
N1D N 0.014(2) -0.318(4) -0.263(4)
C1E C -0.009(3) -0.173(3) 0.191(3)
N1E N -0.014(2) -0.318(4) 0.263(4)
O1A O -0.113(3) 0.5000 0.573(3)
N2A N -0.272(3) 0.5000 0.440(3)
C2A C -0.197(2) 0.5000 0.605(4)
C3A C -0.173(3) 0.5000 0.822(3)
C4A C -0.266(2) 0.5000 0.828(3)
C5A C -0.331(3) 0.5000 0.593(3)
C6A C -0.278(3) 0.5000 0.278(4)
Mn1_2 Mn 0.00000 -0.50000 -0.50000
Mn1_3 Mn 0.00000 -0.50000 0.50000
Mn1_4 Mn 0.00000 0.50000 -0.50000
N1A_2 N 0.014(2) 0.318(4) 0.737(4)
N1D_2 N 0.014(2) 0.682(4) 0.737(4)
N1E_2 N -0.014(2) 0.682(4) 0.263(4)
loop_
_geom_bond_atom_site_label_1
_geom_bond_atom_site_label_2
_geom_bond_site_symmetry_1
_geom_bond_site_symmetry_2
Ni1 C1 1_555 1_555
Mn1 N1 1_555 1_555
C1 N1 1_555 1_555
O1 Mn1 1_555 1_555
N2 C2 1_555 1_555
C2 O1 1_555 1_555
C3 C2 1_555 1_555
C4 C3 1_555 1_555
C5 N2 1_555 1_555
C6 N2 1_555 1_555
C1A Ni1 1_555 1_555
N1A C1A 1_555 1_555
C1D Ni1 1_555 1_555
N1D C1D 1_555 1_555
C1E Ni1 1_555 1_555
N1E C1E 1_555 1_555
O1A Mn1 1_555 1_555
N2A C2A 1_555 1_555
C2A O1A 1_555 1_555
C3A C2A 1_555 1_555
C4A C3A 1_555 1_555
C5A N2A 1_555 1_555
C6A N2A 1_555 1_555
Mn1_2 N1D 1_555 1_555
Mn1_3 N1E 1_555 1_555
Mn1_4 N1A 1_555 1_555
N1A_2 Mn1 1_555 1_555
N1D_2 Mn1 1_555 1_555
N1E_2 Mn1 1_555 1_555
C4 C5 1_555 1_555
C4A C5A 1_555 1_555

#END
