
#######################################################################
#
#                 Cambridge Crystallographic Data Centre
#                                CCDC 
#
#######################################################################
#
# If this CIF has been generated from an entry in the Cambridge 
# Structural Database, then it will include bibliographic, chemical, 
# crystal, experimental, refinement or atomic coordinate data resulting 
# from the CCDC's data processing and validation procedures.
#
#######################################################################

data_DISRUU
_symmetry_cell_setting           tetragonal
_symmetry_space_group_name_H-M   'I 41/a'
_symmetry_Int_Tables_number      88
_space_group_name_Hall           '-I 4ad'
loop_
_symmetry_equiv_pos_site_id
_symmetry_equiv_pos_as_xyz
1 x,y,z
2 3/4-y,1/4+x,1/4+z
3 -x,1/2-y,z
4 1/4+y,1/4-x,1/4+z
5 1/2+x,1/2+y,1/2+z
6 1/4-y,3/4+x,3/4+z
7 1/2-x,-y,1/2+z
8 3/4+y,3/4-x,3/4+z
9 -x,-y,-z
10 1/4+y,3/4-x,3/4-z
11 x,1/2+y,-z
12 3/4-y,3/4+x,3/4-z
13 1/2-x,1/2-y,1/2-z
14 3/4+y,1/4-x,1/4-z
15 1/2+x,y,1/2-z
16 1/4-y,1/4+x,1/4-z
_cell_length_a                   25.9649(5)
_cell_length_b                   25.9649(5)
_cell_length_c                   11.8154(3)
_cell_angle_alpha                90
_cell_angle_beta                 90
_cell_angle_gamma                90
_cell_volume                     7965.66
loop_
_atom_site_label
_atom_site_type_symbol
_atom_site_fract_x
_atom_site_fract_y
_atom_site_fract_z
Ag1 Ag 0.257073(5) 0.515446(5) 0.838734(11)
O1 O 0.33724(5) 0.50751(5) 0.72104(11)
O2 O 0.21597(5) 0.56896(5) 0.70426(10)
O3 O 0.23473(5) 0.43568(5) 0.73270(10)
N1 N 0.26246(6) 0.39250(6) 0.73805(12)
N2 N 0.16504(6) 0.57034(6) 0.70000(12)
C1 C 0.24470(7) 0.35004(7) 0.68572(15)
H1 H 0.2139 0.3513 0.6457
C2 C 0.44800(8) 0.56080(9) 0.58694(17)
H2 H 0.4744 0.5502 0.5391
C3 C 0.41083(7) 0.52616(8) 0.62099(16)
H3 H 0.4122 0.4922 0.5963
C4 C 0.31782(8) 0.30252(8) 0.75171(17)
H4 H 0.3362 0.2719 0.7572
C5 C 0.30749(7) 0.39167(7) 0.79591(15)
H5 H 0.3195 0.4215 0.8305
C6 C 0.08930(8) 0.61156(8) 0.63565(18)
H6 H 0.0737 0.6377 0.5941
C7 C 0.13644(8) 0.53469(7) 0.75479(16)
H7 H 0.1526 0.5083 0.7943
N3 N 0.37237(6) 0.54156(6) 0.69015(12)
C8 C 0.27224(8) 0.30471(7) 0.69148(16)
H8 H 0.2601 0.2755 0.6547
C9 C 0.08351(8) 0.53725(8) 0.75234(17)
H9 H 0.0641 0.5127 0.7905
C10 C 0.37018(8) 0.59051(8) 0.72816(16)
H10 H 0.3437 0.6005 0.7765
C11 C 0.44609(9) 0.61129(9) 0.62382(18)
H11 H 0.4707 0.6350 0.6005
C12 C 0.14211(8) 0.60810(7) 0.63971(16)
H12 H 0.1622 0.6319 0.6007
C13 C 0.05923(8) 0.57618(8) 0.69341(18)
H13 H 0.0235 0.5786 0.6925
C14 C 0.33551(8) 0.34686(8) 0.80366(17)
H14 H 0.3663 0.3464 0.8438
C15 C 0.40690(9) 0.62576(8) 0.69577(18)
H15 H 0.4053 0.6594 0.7225
Ag1G Ag 0.265446(5) 0.492927(5) 0.588734(11)
O1A O 0.24249(5) 0.58724(5) 0.97104(11)
O3A O 0.31432(5) 0.48473(5) 0.98270(10)
S1 S 0.520624(18) 0.601741(19) 0.29694(4)
F1 F 0.48890(5) 0.68540(5) 0.39866(11)
O4 O 0.55103(7) 0.59190(6) 0.39630(15)
F2 F 0.55515(5) 0.69666(5) 0.29227(13)
C16 C 0.51093(8) 0.67109(8) 0.30097(18)
O5 O 0.46947(6) 0.58109(6) 0.30063(13)
O6 O 0.54692(6) 0.59420(6) 0.19057(15)
F3 F 0.47993(6) 0.68668(6) 0.21751(12)
loop_
_geom_bond_atom_site_label_1
_geom_bond_atom_site_label_2
_geom_bond_site_symmetry_1
_geom_bond_site_symmetry_2
Ag1 O1 1_555 1_555
O1 N3 1_555 1_555
O2 Ag1 1_555 1_555
O3 Ag1 1_555 1_555
N1 O3 1_555 1_555
N2 O2 1_555 1_555
C1 N1 1_555 1_555
H1 C1 1_555 1_555
C2 H2 1_555 1_555
C3 C2 1_555 1_555
H3 C3 1_555 1_555
C4 H4 1_555 1_555
C5 N1 1_555 1_555
H5 C5 1_555 1_555
C6 H6 1_555 1_555
C7 N2 1_555 1_555
H7 C7 1_555 1_555
N3 C3 1_555 1_555
C8 C1 1_555 1_555
H8 C8 1_555 1_555
C9 C7 1_555 1_555
H9 C9 1_555 1_555
C10 N3 1_555 1_555
H10 C10 1_555 1_555
C11 C2 1_555 1_555
H11 C11 1_555 1_555
C12 N2 1_555 1_555
H12 C12 1_555 1_555
C13 C6 1_555 1_555
H13 C13 1_555 1_555
C14 C4 1_555 1_555
H14 C14 1_555 1_555
C15 C10 1_555 1_555
H15 C15 1_555 1_555
S1 O4 1_555 1_555
F1 C16 1_555 1_555
F2 C16 1_555 1_555
C16 S1 1_555 1_555
O5 S1 1_555 1_555
O6 S1 1_555 1_555
F3 C16 1_555 1_555
Ag1G O1 1_555 1_555
O1A Ag1 1_555 1_555
O3A Ag1 1_555 1_555
O3 Ag1G 1_555 1_555
C4 C8 1_555 1_555
C5 C14 1_555 1_555
C6 C12 1_555 1_555
C9 C13 1_555 1_555
C11 C15 1_555 1_555

#END
