
#######################################################################
#
#                 Cambridge Crystallographic Data Centre
#                                CCDC 
#
#######################################################################
#
# If this CIF has been generated from an entry in the Cambridge 
# Structural Database, then it will include bibliographic, chemical, 
# crystal, experimental, refinement or atomic coordinate data resulting 
# from the CCDC's data processing and validation procedures.
#
#######################################################################

data_DISYUA
_symmetry_cell_setting           orthorhombic
_symmetry_space_group_name_H-M   'P b c a'
_symmetry_Int_Tables_number      61
_space_group_name_Hall           '-P 2ac 2ab'
loop_
_symmetry_equiv_pos_site_id
_symmetry_equiv_pos_as_xyz
1 x,y,z
2 1/2-x,-y,1/2+z
3 1/2+x,1/2-y,-z
4 -x,1/2+y,1/2-z
5 -x,-y,-z
6 1/2+x,y,1/2-z
7 1/2-x,1/2+y,z
8 x,1/2-y,1/2+z
_cell_length_a                   16.2826(18)
_cell_length_b                   14.9850(12)
_cell_length_c                   13.4020(17)
_cell_angle_alpha                90
_cell_angle_beta                 90
_cell_angle_gamma                90
_cell_volume                     3270.02
loop_
_atom_site_label
_atom_site_type_symbol
_atom_site_fract_x
_atom_site_fract_y
_atom_site_fract_z
Cu1 Cu 0.74977(3) 0.14995(3) 0.20783(3)
O1 O 0.6360(2) 0.0408(2) 0.2137(2)
O2 O 0.67197(18) 0.13419(19) 0.0944(2)
O3 O 0.5344(3) -0.0869(3) 0.1763(3)
O4 O 1.0135(3) 0.1835(2) 0.0042(4)
O5 O 0.82262(18) 0.05756(19) 0.1538(2)
O6 O 0.8759(2) 0.18420(19) 0.0998(3)
N1 N 0.8015(3) 0.1477(3) 0.3450(3)
N2 N 0.7027(3) 0.2687(3) 0.2481(3)
C1 C 0.6267(3) 0.0719(3) 0.1277(3)
C2 C 0.5613(2) 0.0346(3) 0.0623(3)
C3 C 0.5188(3) -0.0428(3) 0.0896(3)
C4 C 0.5407(3) 0.0768(3) -0.0268(3)
C5 C 0.9367(3) -0.0432(3) 0.0463(4)
C6 C 1.0051(3) 0.0926(3) 0.0029(4)
C7 C 0.9405(3) 0.0498(3) 0.0497(3)
C8 C 0.8755(3) 0.1004(3) 0.1038(4)
C9 C 0.7336(6) 0.2848(5) 0.3492(5)
C10 C 0.7681(7) 0.2251(6) 0.3953(5)
C11 C 0.7358(5) 0.3355(4) 0.1763(7)
C12 C 0.6129(4) 0.2725(6) 0.2466(6)
C13 C 0.8906(6) 0.1535(8) 0.3443(9)
C14 C 0.7757(7) 0.0642(6) 0.3960(6)
H1 H 0.569(5) 0.127(5) -0.044(6)
H2 H 0.887(5) -0.073(5) 0.077(5)
H3 H 0.567(4) -0.055(4) 0.201(4)
H4 H 0.981(3) 0.197(3) 0.044(4)
H5 H 0.6887 0.3082 0.3891
H6 H 0.7738 0.3344 0.3443
H7 H 0.7268 0.2025 0.4438
H8 H 0.8111 0.2510 0.4358
H9 H 0.714(4) 0.318(4) 0.117(5)
H10 H 0.804(4) 0.326(4) 0.172(4)
H11 H 0.712(4) 0.391(4) 0.187(4)
H12 H 0.592(4) 0.266(4) 0.176(5)
H13 H 0.591(4) 0.329(4) 0.265(5)
H14 H 0.588(4) 0.226(4) 0.285(5)
H15 H 0.920(4) 0.193(4) 0.296(5)
H16 H 0.908(4) 0.101(4) 0.308(5)
H17 H 0.905(4) 0.151(4) 0.402(5)
H18 H 0.800(4) 0.026(4) 0.368(5)
H19 H 0.719(4) 0.069(4) 0.399(5)
H20 H 0.788(4) 0.070(4) 0.468(5)
Cu1D Cu 1.25023(3) -0.14995(3) -0.20783(3)
Cu1D_2 Cu 0.25023(3) -0.14995(3) -0.20783(3)
O1D O 1.3640(2) -0.0408(2) -0.2137(2)
O1D_2 O 0.3640(2) -0.0408(2) -0.2137(2)
O2D O 1.32803(18) -0.13419(19) -0.0944(2)
O2D_2 O 0.32803(18) -0.13419(19) -0.0944(2)
O3D O 0.4656(3) 0.0869(3) -0.1763(3)
O4D O 0.9865(3) -0.1835(2) -0.0042(4)
O5D O 1.17738(18) -0.05756(19) -0.1538(2)
O6D O 1.1241(2) -0.18420(19) -0.0998(3)
N1D N 1.1985(3) -0.1477(3) -0.3450(3)
N2D N 1.2973(3) -0.2687(3) -0.2481(3)
C1D C 0.3733(3) -0.0719(3) -0.1277(3)
C2D C 0.4387(2) -0.0346(3) -0.0623(3)
C3D C 0.4812(3) 0.0428(3) -0.0896(3)
C4D C 0.4593(3) -0.0768(3) 0.0268(3)
C5D C 1.0633(3) 0.0432(3) -0.0463(4)
C6D C 0.9949(3) -0.0926(3) -0.0029(4)
C7D C 1.0595(3) -0.0498(3) -0.0497(3)
C8D C 1.1245(3) -0.1004(3) -0.1038(4)
C9D C 1.2664(6) -0.2848(5) -0.3492(5)
C10D C 1.2319(7) -0.2251(6) -0.3953(5)
C11D C 1.2642(5) -0.3355(4) -0.1763(7)
C12D C 1.3871(4) -0.2725(6) -0.2466(6)
C13D C 1.1094(6) -0.1535(8) -0.3443(9)
C14D C 1.2243(7) -0.0642(6) -0.3960(6)
H1D H 0.431(5) -0.127(5) 0.044(6)
H2D H 1.113(5) 0.073(5) -0.077(5)
H3D H 0.433(4) 0.055(4) -0.201(4)
H4D H 1.019(3) -0.197(3) -0.044(4)
H5D H 1.3113 -0.3082 -0.3891
H6D H 1.2262 -0.3344 -0.3443
H7D H 1.2732 -0.2025 -0.4438
H8D H 1.1889 -0.2510 -0.4358
H9D H 1.286(4) -0.318(4) -0.117(5)
H10D H 1.196(4) -0.326(4) -0.172(4)
H11D H 1.288(4) -0.391(4) -0.187(4)
H12D H 1.408(4) -0.266(4) -0.176(5)
H13D H 1.409(4) -0.329(4) -0.265(5)
H14D H 1.412(4) -0.226(4) -0.285(5)
H15D H 1.080(4) -0.193(4) -0.296(5)
H16D H 1.092(4) -0.101(4) -0.308(5)
H17D H 1.095(4) -0.151(4) -0.402(5)
H18D H 1.200(4) -0.026(4) -0.368(5)
H19D H 1.281(4) -0.069(4) -0.399(5)
H20D H 1.212(4) -0.070(4) -0.468(5)
loop_
_geom_bond_atom_site_label_1
_geom_bond_atom_site_label_2
_geom_bond_site_symmetry_1
_geom_bond_site_symmetry_2
Cu1 O1 1_555 1_555
O1 C1 1_555 1_555
O2 Cu1 1_555 1_555
O3 C3 1_555 1_555
O4 C6 1_555 1_555
O5 Cu1 1_555 1_555
O6 Cu1 1_555 1_555
N1 Cu1 1_555 1_555
N2 Cu1 1_555 1_555
C1 O2 1_555 1_555
C2 C1 1_555 1_555
C3 C2 1_555 1_555
C4 C2 1_555 1_555
C5 C7 1_555 1_555
C6 C7 1_555 1_555
C7 C8 1_555 1_555
C8 O5 1_555 1_555
C9 N2 1_555 1_555
C10 N1 1_555 1_555
C11 N2 1_555 1_555
C12 N2 1_555 1_555
C13 N1 1_555 1_555
C14 N1 1_555 1_555
H1 C4 1_555 1_555
H2 C5 1_555 1_555
H3 O3 1_555 1_555
H4 O4 1_555 1_555
H5 C9 1_555 1_555
H6 C9 1_555 1_555
H7 C10 1_555 1_555
H8 C10 1_555 1_555
H9 C11 1_555 1_555
H10 C11 1_555 1_555
H11 C11 1_555 1_555
H12 C12 1_555 1_555
H13 C12 1_555 1_555
H14 C12 1_555 1_555
H15 C13 1_555 1_555
H16 C13 1_555 1_555
H17 C13 1_555 1_555
H18 C14 1_555 1_555
H19 C14 1_555 1_555
H20 C14 1_555 1_555
Cu1D O1D 1_555 1_555
Cu1D_2 O1D_2 1_555 1_555
O1D_2 C1D 1_555 1_555
O2D Cu1D 1_555 1_555
O2D_2 Cu1D_2 1_555 1_555
O3D C3D 1_555 1_555
O4D C6D 1_555 1_555
O5D Cu1D 1_555 1_555
O6D Cu1D 1_555 1_555
N1D Cu1D 1_555 1_555
N2D Cu1D 1_555 1_555
C1D O2D_2 1_555 1_555
C2D C1D 1_555 1_555
C3D C4 1_555 1_555
C4D C3 1_555 1_555
C5D C6 1_555 1_555
C6D C5 1_555 1_555
C7D C5D 1_555 1_555
C8D O5D 1_555 1_555
C9D N2D 1_555 1_555
C10D N1D 1_555 1_555
C11D N2D 1_555 1_555
C12D N2D 1_555 1_555
C13D N1D 1_555 1_555
C14D N1D 1_555 1_555
H1D C4D 1_555 1_555
H2D C5D 1_555 1_555
H3D O3D 1_555 1_555
H4D O4D 1_555 1_555
H5D C9D 1_555 1_555
H6D C9D 1_555 1_555
H7D C10D 1_555 1_555
H8D C10D 1_555 1_555
H9D C11D 1_555 1_555
H10D C11D 1_555 1_555
H11D C11D 1_555 1_555
H12D C12D 1_555 1_555
H13D C12D 1_555 1_555
H14D C12D 1_555 1_555
H15D C13D 1_555 1_555
H16D C13D 1_555 1_555
H17D C13D 1_555 1_555
H18D C14D 1_555 1_555
H19D C14D 1_555 1_555
H20D C14D 1_555 1_555
O6 C8 1_555 1_555
C9 C10 1_555 1_555
O6D C8D 1_555 1_555
C2D C3D 1_555 1_555
C2D C4D 1_555 1_555
C6D C7D 1_555 1_555
C7D C8D 1_555 1_555
C9D C10D 1_555 1_555

#END
