
#######################################################################
#
#                 Cambridge Crystallographic Data Centre
#                                CCDC 
#
#######################################################################
#
# If this CIF has been generated from an entry in the Cambridge 
# Structural Database, then it will include bibliographic, chemical, 
# crystal, experimental, refinement or atomic coordinate data resulting 
# from the CCDC's data processing and validation procedures.
#
#######################################################################

data_DISZAH
_symmetry_cell_setting           orthorhombic
_symmetry_space_group_name_H-M   'P b c a'
_symmetry_Int_Tables_number      61
_space_group_name_Hall           '-P 2ac 2ab'
loop_
_symmetry_equiv_pos_site_id
_symmetry_equiv_pos_as_xyz
1 x,y,z
2 1/2-x,-y,1/2+z
3 1/2+x,1/2-y,-z
4 -x,1/2+y,1/2-z
5 -x,-y,-z
6 1/2+x,y,1/2-z
7 1/2-x,1/2+y,z
8 x,1/2-y,1/2+z
_cell_length_a                   14.3045(13)
_cell_length_b                   14.4687(16)
_cell_length_c                   16.3079(9)
_cell_angle_alpha                90
_cell_angle_beta                 90
_cell_angle_gamma                90
_cell_volume                     3375.21
loop_
_atom_site_label
_atom_site_type_symbol
_atom_site_fract_x
_atom_site_fract_y
_atom_site_fract_z
Cu1 Cu 0.26438(2) 0.19466(2) 0.534702(18)
C1 C -0.03407(18) 0.0686(2) 0.27054(15)
C2 C -0.01227(18) 0.0117(2) 0.20496(16)
C3 C 0.03433(18) 0.0918(2) 0.32673(16)
C4 C 0.12493(17) 0.06020(19) 0.31675(14)
C5 C 0.07784(17) -0.02085(19) 0.19465(15)
C6 C 0.14631(19) 0.00366(19) 0.25047(16)
C7 C 0.19920(17) 0.09001(19) 0.37630(15)
C8 C 0.09946(18) -0.0817(2) 0.12219(15)
C9 C 0.1008(2) 0.2889(3) 0.5710(2)
C10 C 0.1646(3) 0.3653(3) 0.5467(2)
C11 C 0.2144(3) 0.3302(3) 0.4075(2)
C12 C 0.3261(4) 0.3845(3) 0.5065(3)
C13 C 0.0957(3) 0.1297(3) 0.6164(3)
C14 C 0.1853(3) 0.2392(4) 0.6930(2)
O1 O -0.12148(15) 0.1023(2) 0.28330(15)
O2 O 0.17444(12) 0.12345(14) 0.44314(10)
O3 O 0.28346(12) 0.07902(16) 0.35482(11)
O4 O 0.03480(13) -0.10531(19) 0.07689(13)
O5 O 0.18477(12) -0.10304(14) 0.11231(11)
O6 O 0.37308(15) 0.18390(17) 0.46072(14)
N1 N 0.15420(16) 0.21303(17) 0.60992(13)
N2 N 0.24109(18) 0.32840(16) 0.49515(14)
H1 H -0.0544(18) -0.0065(19) 0.1707(16)
H2 H 0.0195(19) 0.130(2) 0.3682(16)
H3 H 0.203(2) -0.017(2) 0.2435(16)
H4 H -0.150(2) 0.096(2) 0.253(2)
H5 H 0.071(2) 0.264(3) 0.521(2)
H6 H 0.056(2) 0.309(2) 0.605(2)
H7 H 0.131(2) 0.413(3) 0.516(2)
H8 H 0.193(2) 0.389(3) 0.594(2)
H9 H 0.263(2) 0.301(3) 0.376(2)
H10 H 0.157(3) 0.300(2) 0.400(2)
H11 H 0.210(2) 0.389(3) 0.3898(19)
H12 H 0.311(3) 0.446(4) 0.498(3)
H13 H 0.371(3) 0.363(3) 0.471(2)
H14 H 0.342(3) 0.384(3) 0.564(3)
H15 H 0.074(2) 0.108(2) 0.566(2)
H16 H 0.041(3) 0.140(3) 0.646(2)
H17 H 0.132(3) 0.081(3) 0.638(2)
H18 H 0.227(3) 0.285(3) 0.691(3)
H19 H 0.215(2) 0.189(3) 0.717(2)
H20 H 0.132(3) 0.249(3) 0.725(2)
H21 H 0.351(3) 0.148(3) 0.427(2)
H22 H 0.408(3) 0.161(3) 0.488(2)
Cu1A Cu 0.23562(2) -0.19466(2) 0.034702(18)
O5A O 0.31523(12) 0.10304(14) 0.61231(11)
loop_
_geom_bond_atom_site_label_1
_geom_bond_atom_site_label_2
_geom_bond_site_symmetry_1
_geom_bond_site_symmetry_2
Cu1 O2 1_555 1_555
C1 C2 1_555 1_555
C2 C5 1_555 1_555
C3 C1 1_555 1_555
C4 C3 1_555 1_555
C5 C6 1_555 1_555
C6 C4 1_555 1_555
C7 C4 1_555 1_555
C8 C5 1_555 1_555
C9 C10 1_555 1_555
C10 N2 1_555 1_555
C11 N2 1_555 1_555
C12 N2 1_555 1_555
C13 N1 1_555 1_555
C14 N1 1_555 1_555
O1 C1 1_555 1_555
O2 C7 1_555 1_555
O3 C7 1_555 1_555
O4 C8 1_555 1_555
O5 C8 1_555 1_555
O6 Cu1 1_555 1_555
N1 Cu1 1_555 1_555
N2 Cu1 1_555 1_555
H1 C2 1_555 1_555
H2 C3 1_555 1_555
H3 C6 1_555 1_555
H4 O1 1_555 1_555
H5 C9 1_555 1_555
H6 C9 1_555 1_555
H7 C10 1_555 1_555
H8 C10 1_555 1_555
H9 C11 1_555 1_555
H10 C11 1_555 1_555
H11 C11 1_555 1_555
H12 C12 1_555 1_555
H13 C12 1_555 1_555
H14 C12 1_555 1_555
H15 C13 1_555 1_555
H16 C13 1_555 1_555
H17 C13 1_555 1_555
H18 C14 1_555 1_555
H19 C14 1_555 1_555
H20 C14 1_555 1_555
H21 O6 1_555 1_555
H22 O6 1_555 1_555
Cu1A O5 1_555 1_555
O5A Cu1 1_555 1_555
C9 N1 1_555 1_555

#END
