
#######################################################################
#
#                 Cambridge Crystallographic Data Centre
#                                CCDC 
#
#######################################################################
#
# If this CIF has been generated from an entry in the Cambridge 
# Structural Database, then it will include bibliographic, chemical, 
# crystal, experimental, refinement or atomic coordinate data resulting 
# from the CCDC's data processing and validation procedures.
#
#######################################################################

data_DISZIP
_symmetry_cell_setting           monoclinic
_symmetry_space_group_name_H-M   'P 21/n'
_symmetry_Int_Tables_number      14
_space_group_name_Hall           '-P 2yn'
loop_
_symmetry_equiv_pos_site_id
_symmetry_equiv_pos_as_xyz
1 x,y,z
2 1/2-x,1/2+y,1/2-z
3 -x,-y,-z
4 1/2+x,1/2-y,1/2+z
_cell_length_a                   10.3826(6)
_cell_length_b                   6.8387(4)
_cell_length_c                   12.7710(8)
_cell_angle_alpha                90
_cell_angle_beta                 92.2770(10)
_cell_angle_gamma                90
_cell_volume                     906.07
loop_
_atom_site_label
_atom_site_type_symbol
_atom_site_fract_x
_atom_site_fract_y
_atom_site_fract_z
C1 C 0.1848(4) 0.2395(7) 0.4692(4)
C2 C 0.0681(4) 0.2144(7) 0.4157(4)
H1 H 0.0656 0.1820 0.3449
C3 C 0.1851(4) 0.2932(7) 0.5728(4)
H2 H 0.2640 0.3121 0.6084
Pb1 Pb -0.440040(15) 0.08221(3) 0.339790(13)
C4 C 0.3107(4) 0.2013(7) 0.4168(4)
O1 O -0.2730(3) 0.2021(5) 0.4698(3)
O2 O 0.4112(3) 0.1822(5) 0.4755(3)
O3 O -0.1816(3) 0.1728(6) 0.3166(3)
C5 C -0.0461(4) 0.2378(7) 0.4679(4)
O4 O 0.3104(3) 0.1841(6) 0.3194(3)
C6 C -0.0362(4) 0.2890(7) 0.5734(4)
H3 H -0.1118 0.3025 0.6094
O5 O -0.4415(4) 0.4303(6) 0.3216(4)
N1 N 0.0760(4) 0.3200(6) 0.6259(3)
C7 C -0.1760(4) 0.2031(7) 0.4136(4)
H6 H -0.515(8) 0.476(14) 0.334(7)
H7 H -0.415(6) 0.479(10) 0.275(5)
Pb1_2 Pb 0.559960(15) 0.08221(3) 0.339790(13)
O2_2 O -0.5888(3) 0.1822(5) 0.4755(3)
O4_2 O -0.6896(3) 0.1841(6) 0.3194(3)
O6 O -1.3799(4) 0.2867(7) 0.6577(4)
H4 H -1.320(7) 0.285(11) 0.700(6)
H5 H -1.348(5) 0.280(8) 0.610(5)
loop_
_geom_bond_atom_site_label_1
_geom_bond_atom_site_label_2
_geom_bond_site_symmetry_1
_geom_bond_site_symmetry_2
C1 C2 1_555 1_555
C2 H1 1_555 1_555
C3 C1 1_555 1_555
H2 C3 1_555 1_555
Pb1 O1 1_555 1_555
C4 C1 1_555 1_555
O1 C7 1_555 1_555
O2 C4 1_555 1_555
O3 C7 1_555 1_555
C5 C2 1_555 1_555
O4 C4 1_555 1_555
C6 C5 1_555 1_555
H3 C6 1_555 1_555
O5 Pb1 1_555 1_555
N1 C3 1_555 1_555
C7 C5 1_555 1_555
O6 H4 1_555 1_555
H5 O6 1_555 1_555
H6 O5 1_555 1_555
H7 O5 1_555 1_555
Pb1_2 O2 1_555 1_555
O2_2 Pb1 1_555 1_555
O4_2 Pb1 1_555 1_555
O4 Pb1_2 1_555 1_555
C6 N1 1_555 1_555

#END
