
#######################################################################
#
#                 Cambridge Crystallographic Data Centre
#                                CCDC 
#
#######################################################################
#
# If this CIF has been generated from an entry in the Cambridge 
# Structural Database, then it will include bibliographic, chemical, 
# crystal, experimental, refinement or atomic coordinate data resulting 
# from the CCDC's data processing and validation procedures.
#
#######################################################################

data_DITMID
_symmetry_cell_setting           triclinic
_symmetry_space_group_name_H-M   'P -1'
_symmetry_Int_Tables_number      2
_space_group_name_Hall           '-P 1'
loop_
_symmetry_equiv_pos_site_id
_symmetry_equiv_pos_as_xyz
1 x,y,z
2 -x,-y,-z
_cell_length_a                   10.0300(7)
_cell_length_b                   14.6378(10)
_cell_length_c                   16.3998(16)
_cell_angle_alpha                112.2210(10)
_cell_angle_beta                 94.2100(10)
_cell_angle_gamma                108.3400(10)
_cell_volume                     2064.39
loop_
_atom_site_label
_atom_site_type_symbol
_atom_site_fract_x
_atom_site_fract_y
_atom_site_fract_z
O1 O 0.7823(4) 1.0695(4) 0.3208(3)
O2 O 0.7740(4) 0.9595(3) 0.1883(3)
O3 O 0.3036(3) 0.8100(2) 0.1811(2)
O4 O 0.5021(3) 0.7768(2) 0.1777(2)
N1 N 0.4622(3) 1.0170(2) 0.3688(2)
N2 N 0.2999(4) 1.0090(3) 0.4539(2)
N3 N 0.4739(3) 1.0209(2) 0.1537(2)
N4 N 0.3168(3) 1.0161(3) 0.0476(2)
C1 C 1.2378(5) 1.2246(4) 0.3625(3)
C2 C 1.3234(6) 1.3218(4) 0.4393(3)
H1 H 1.2875 1.3630 0.4888
C3 C 1.4680(6) 1.3489(5) 0.4300(4)
H2 H 1.5501 1.4117 0.4722
C4 C 1.4732(6) 1.2687(5) 0.3486(5)
H3 H 1.5594 1.2664 0.3247
C5 C 1.3322(5) 1.1938(4) 0.3083(4)
H4 H 1.3038 1.1306 0.2508
C6 C 1.1962(11) 1.3598(9) 0.2463(9)
H5 H 1.0914 1.3234 0.2308
C7 C 1.2816(13) 1.4591(7) 0.3241(7)
H6 H 1.2461 1.5033 0.3718
C8 C 1.4216(10) 1.4808(6) 0.3135(6)
H7 H 1.5053 1.5427 0.3551
C9 C 1.4254(12) 1.4015(8) 0.2372(7)
H8 H 1.5129 1.3974 0.2158
C10 C 1.2942(15) 1.3293(7) 0.1974(6)
H9 H 1.2697 1.2648 0.1414
C11 C 1.0821(5) 1.1729(4) 0.3457(3)
H10 H 1.0354 1.2077 0.3865
C12 C 1.0011(5) 1.0818(4) 0.2782(3)
H11 H 1.0452 1.0459 0.2361
C13 C 0.8411(3) 1.0334(2) 0.26603(18)
C14 C 0.2373(4) 0.4413(3) 0.0300(3)
C15 C 0.0836(5) 0.3926(3) 0.0076(3)
H12 H 0.0169 0.4301 0.0216
C16 C 0.0440(6) 0.2812(4) -0.0395(4)
H13 H -0.0545 0.2284 -0.0632
C17 C 0.1728(6) 0.2597(4) -0.0469(4)
H14 H 0.1787 0.1894 -0.0760
C18 C 0.2912(5) 0.3584(4) -0.0042(3)
H15 H 0.3931 0.3677 0.0009
C19 C 0.2559(7) 0.4431(5) -0.1744(4)
H16 H 0.3360 0.5121 -0.1466
C20 C 0.1149(8) 0.4292(5) -0.1829(4)
H17 H 0.0767 0.4861 -0.1629
C21 C 0.0320(6) 0.3196(5) -0.2251(4)
H18 H -0.0733 0.2865 -0.2404
C22 C 0.1292(8) 0.2665(5) -0.2424(4)
H19 H 0.1039 0.1894 -0.2717
C23 C 0.2704(7) 0.3450(6) -0.2103(4)
H20 H 0.3607 0.3326 -0.2135
C24 C 0.3255(4) 0.5542(3) 0.0785(3)
H21 H 0.4247 0.5737 0.0852
C25 C 0.2759(5) 0.6311(3) 0.1136(3)
H22 H 0.1770 0.6121 0.1090
C26 C 0.3684(4) 0.7466(3) 0.1601(2)
C27 C 0.3326(4) 0.9631(3) 0.3737(3)
H23 H 0.2702 0.9000 0.3268
C28 C 0.4169(5) 1.0997(3) 0.5059(3)
C29 C 0.4457(6) 1.1768(4) 0.5944(3)
H24 H 0.3777 1.1738 0.6299
C30 C 0.5772(7) 1.2561(4) 0.6260(3)
H25 H 0.5991 1.3085 0.6846
C31 C 0.6807(6) 1.2621(4) 0.5742(3)
H26 H 0.7698 1.3176 0.5993
C32 C 0.6540(5) 1.1866(3) 0.4852(3)
H27 H 0.7225 1.1911 0.4501
C33 C 0.5199(4) 1.1046(3) 0.4520(2)
C34 C 0.1676(5) 0.9650(4) 0.4818(3)
H28 H 0.1931 0.9679 0.5412
H29 H 0.1177 0.8910 0.4401
C35 C 0.0672(5) 1.0243(4) 0.4848(3)
H30 H 0.0395 1.0206 0.4253
H31 H 0.1163 1.0985 0.5263
C36 C 0.3436(4) 0.9722(3) 0.1023(3)
H32 H 0.2760 0.9127 0.1038
C37 C 0.5395(4) 1.1049(3) 0.1316(2)
C38 C 0.6778(4) 1.1832(3) 0.1644(3)
H33 H 0.7432 1.1870 0.2099
C39 C 0.7128(6) 1.2540(4) 0.1266(3)
H34 H 0.8044 1.3066 0.1466
C40 C 0.6142(6) 1.2496(4) 0.0582(3)
H35 H 0.6427 1.2994 0.0344
C41 C 0.4779(5) 1.1745(4) 0.0257(3)
H36 H 0.4132 1.1718 -0.0195
C42 C 0.4411(4) 1.1021(3) 0.0637(3)
C43 C 0.1787(4) 0.9799(4) -0.0143(3)
H37 H 0.1388 0.9028 -0.0427
H38 H 0.1952 1.0042 -0.0614
C44 C 0.0718(4) 1.0192(4) 0.0318(3)
H39 H 0.1113 1.0962 0.0598
H40 H 0.0561 0.9955 0.0794
Cd1 Cd 0.55170(3) 0.954840(19) 0.244030(16)
Fe1 Fe 1.34120(8) 1.33937(5) 0.32264(5)
Fe2 Fe 0.16417(6) 0.35696(4) -0.10767(4)
O1A O -0.7823(4) 0.9305(4) 0.6792(3)
O2A O -0.7740(4) 1.0405(3) 0.8117(3)
O3A O -0.3036(3) 1.1900(2) 0.8189(2)
O4A O -0.5021(3) 1.2232(2) 0.8223(2)
N1A N -0.4622(3) 0.9830(2) 0.6312(2)
N2A N -0.2999(4) 0.9910(3) 0.5461(2)
N3A N -0.4739(3) 0.9791(2) -0.1537(2)
N3A_2 N -0.4739(3) 0.9791(2) 0.8463(2)
N4A N -0.3168(3) 0.9839(3) -0.0476(2)
C1A C -1.2378(5) 0.7754(4) 0.6375(3)
C2A C -1.3234(6) 0.6782(4) 0.5607(3)
H1A H -1.2875 0.6370 0.5112
C3A C -1.4680(6) 0.6511(5) 0.5700(4)
H2A H -1.5501 0.5883 0.5278
C4A C -1.4732(6) 0.7313(5) 0.6514(5)
H3A H -1.5594 0.7336 0.6753
C5A C -1.3322(5) 0.8062(4) 0.6917(4)
H4A H -1.3038 0.8694 0.7492
C6A C -1.1962(11) 0.6402(9) 0.7537(9)
H5A H -1.0914 0.6766 0.7692
C7A C -1.2816(13) 0.5409(7) 0.6759(7)
H6A H -1.2461 0.4967 0.6282
C8A C -1.4216(10) 0.5192(6) 0.6865(6)
H7A H -1.5053 0.4573 0.6449
C9A C -1.4254(12) 0.5985(8) 0.7628(7)
H8A H -1.5129 0.6026 0.7842
C10A C -1.2942(15) 0.6707(7) 0.8026(6)
H9A H -1.2697 0.7352 0.8586
C11A C -1.0821(5) 0.8271(4) 0.6543(3)
H10A H -1.0354 0.7923 0.6135
C12A C -1.0011(5) 0.9182(4) 0.7218(3)
H11A H -1.0452 0.9541 0.7639
C13A C -0.8411(3) 0.9666(2) 0.73397(18)
C14A C -0.2373(4) 1.5587(3) 0.9700(3)
C15A C -0.0836(5) 1.6074(3) 0.9924(3)
H12A H -0.0169 1.5699 0.9784
C16A C -0.0440(6) 1.7188(4) 1.0395(4)
H13A H 0.0545 1.7716 1.0632
C17A C -0.1728(6) 1.7403(4) 1.0469(4)
H14A H -0.1787 1.8106 1.0760
C18A C -0.2912(5) 1.6416(4) 1.0042(3)
H15A H -0.3931 1.6323 0.9991
C19A C -0.2559(7) 1.5569(5) 1.1744(4)
H16A H -0.3360 1.4879 1.1466
C20A C -0.1149(8) 1.5708(5) 1.1829(4)
H17A H -0.0767 1.5139 1.1629
C21A C -0.0320(6) 1.6804(5) 1.2251(4)
H18A H 0.0733 1.7135 1.2404
C22A C -0.1292(8) 1.7335(5) 1.2424(4)
H19A H -0.1039 1.8106 1.2717
C23A C -0.2704(7) 1.6550(6) 1.2103(4)
H20A H -0.3607 1.6674 1.2135
C24A C -0.3255(4) 1.4458(3) 0.9215(3)
H21A H -0.4247 1.4263 0.9148
C25A C -0.2759(5) 1.3689(3) 0.8864(3)
H22A H -0.1770 1.3879 0.8910
C26A C -0.3684(4) 1.2534(3) 0.8399(2)
C27A C -0.3326(4) 1.0369(3) 0.6263(3)
H23A H -0.2702 1.1000 0.6732
C28A C -0.4169(5) 0.9003(3) 0.4941(3)
C29A C -0.4457(6) 0.8232(4) 0.4056(3)
H24A H -0.3777 0.8262 0.3701
C30A C -0.5772(7) 0.7439(4) 0.3740(3)
H25A H -0.5991 0.6915 0.3154
C31A C -0.6807(6) 0.7379(4) 0.4258(3)
H26A H -0.7698 0.6824 0.4007
C32A C -0.6540(5) 0.8134(3) 0.5148(3)
H27A H -0.7225 0.8089 0.5499
C33A C -0.5199(4) 0.8954(3) 0.5480(2)
C34A C -0.1676(5) 1.0350(4) 0.5182(3)
H28A H -0.1931 1.0321 0.4588
H29A H -0.1177 1.1090 0.5599
C35A C -0.0672(5) 0.9757(4) 0.5152(3)
H30A H -0.0395 0.9794 0.5747
H31A H -0.1163 0.9015 0.4737
C36A C -0.3436(4) 1.0278(3) -0.1023(3)
H32A H -0.2760 1.0873 -0.1038
C37A C -0.5395(4) 0.8951(3) -0.1316(2)
C38A C -0.6778(4) 0.8168(3) -0.1644(3)
H33A H -0.7432 0.8130 -0.2099
C39A C -0.7128(6) 0.7460(4) -0.1266(3)
H34A H -0.8044 0.6934 -0.1466
C40A C -0.6142(6) 0.7504(4) -0.0582(3)
H35A H -0.6427 0.7006 -0.0344
C41A C -0.4779(5) 0.8255(4) -0.0257(3)
H36A H -0.4132 0.8282 0.0195
C42A C -0.4411(4) 0.8979(3) -0.0637(3)
C43A C -0.1787(4) 1.0201(4) 0.0143(3)
H37A H -0.1388 1.0972 0.0427
H38A H -0.1952 0.9958 0.0614
C44A C -0.0718(4) 0.9808(4) -0.0318(3)
H39A H -0.1113 0.9038 -0.0598
H40A H -0.0561 1.0045 -0.0794
Cd1A Cd -0.55170(3) 1.045160(19) 0.755970(16)
Cd1A_2 Cd -0.55170(3) 1.045160(19) -0.244030(16)
Fe1A Fe -1.34120(8) 0.66063(5) 0.67736(5)
Fe2A Fe -0.16417(6) 1.64304(4) 1.10767(4)
O5 O 0.080(4) 0.486(3) 0.561(2)
H41 H 0.137(5) 0.494(4) 0.614(3)
H42 H 0.019(5) 0.414(3) 0.524(3)
loop_
_geom_bond_atom_site_label_1
_geom_bond_atom_site_label_2
_geom_bond_site_symmetry_1
_geom_bond_site_symmetry_2
O1 C13 1_555 1_555
O2 C13 1_555 1_555
O3 C26 1_555 1_555
O4 C26 1_555 1_555
O5 H41 1_555 1_555
N1 C27 1_555 1_555
N2 C27 1_555 1_555
N3 C36 1_555 1_555
N4 C36 1_555 1_555
C1 C2 1_555 1_555
C2 H1 1_555 1_555
C3 C2 1_555 1_555
H2 C3 1_555 1_555
C4 C3 1_555 1_555
H3 C4 1_555 1_555
C5 C1 1_555 1_555
H4 C5 1_555 1_555
C6 H5 1_555 1_555
C7 C6 1_555 1_555
H6 C7 1_555 1_555
C8 C7 1_555 1_555
H7 C8 1_555 1_555
C9 C8 1_555 1_555
H8 C9 1_555 1_555
C10 C6 1_555 1_555
H9 C10 1_555 1_555
C11 C1 1_555 1_555
H10 C11 1_555 1_555
C12 C11 1_555 1_555
H11 C12 1_555 1_555
C13 C12 1_555 1_555
C14 C15 1_555 1_555
C15 H12 1_555 1_555
C16 C15 1_555 1_555
H13 C16 1_555 1_555
C17 C16 1_555 1_555
H14 C17 1_555 1_555
C18 C14 1_555 1_555
H15 C18 1_555 1_555
C19 H16 1_555 1_555
C20 C19 1_555 1_555
H17 C20 1_555 1_555
C21 C20 1_555 1_555
H18 C21 1_555 1_555
C22 C21 1_555 1_555
H19 C22 1_555 1_555
C23 C19 1_555 1_555
H20 C23 1_555 1_555
C24 C14 1_555 1_555
H21 C24 1_555 1_555
C25 C24 1_555 1_555
H22 C25 1_555 1_555
C26 C25 1_555 1_555
C27 H23 1_555 1_555
C28 N2 1_555 1_555
C29 C28 1_555 1_555
H24 C29 1_555 1_555
C30 C29 1_555 1_555
H25 C30 1_555 1_555
C31 C30 1_555 1_555
H26 C31 1_555 1_555
C32 C31 1_555 1_555
H27 C32 1_555 1_555
C33 N1 1_555 1_555
C34 N2 1_555 1_555
H28 C34 1_555 1_555
H29 C34 1_555 1_555
C35 C34 1_555 1_555
H30 C35 1_555 1_555
H31 C35 1_555 1_555
C36 H32 1_555 1_555
C37 N3 1_555 1_555
C38 C37 1_555 1_555
H33 C38 1_555 1_555
C39 C38 1_555 1_555
H34 C39 1_555 1_555
C40 C39 1_555 1_555
H35 C40 1_555 1_555
C41 C40 1_555 1_555
H36 C41 1_555 1_555
C42 N4 1_555 1_555
C43 N4 1_555 1_555
H37 C43 1_555 1_555
H38 C43 1_555 1_555
C44 C43 1_555 1_555
H39 C44 1_555 1_555
H40 C44 1_555 1_555
H42 O5 1_555 1_555
Cd1 O1 1_555 1_555
Fe1 C1 1_555 1_555
Fe2 C14 1_555 1_555
O1A C13A 1_555 1_555
O2A C13A 1_555 1_555
O3A C26A 1_555 1_555
O4A C26A 1_555 1_555
N1A C27A 1_555 1_555
N2A C27A 1_555 1_555
N3A C36A 1_555 1_555
N3A_2 Cd1A 1_555 1_555
N4A C36A 1_555 1_555
C1A C2A 1_555 1_555
C2A H1A 1_555 1_555
C3A C2A 1_555 1_555
H2A C3A 1_555 1_555
C4A C3A 1_555 1_555
H3A C4A 1_555 1_555
C5A C1A 1_555 1_555
H4A C5A 1_555 1_555
C6A H5A 1_555 1_555
C7A C6A 1_555 1_555
H6A C7A 1_555 1_555
C8A C7A 1_555 1_555
H7A C8A 1_555 1_555
C9A C8A 1_555 1_555
H8A C9A 1_555 1_555
C10A C6A 1_555 1_555
H9A C10A 1_555 1_555
C11A C1A 1_555 1_555
H10A C11A 1_555 1_555
C12A C11A 1_555 1_555
H11A C12A 1_555 1_555
C13A C12A 1_555 1_555
C14A C15A 1_555 1_555
C15A H12A 1_555 1_555
C16A C15A 1_555 1_555
H13A C16A 1_555 1_555
C17A C16A 1_555 1_555
H14A C17A 1_555 1_555
C18A C14A 1_555 1_555
H15A C18A 1_555 1_555
C19A H16A 1_555 1_555
C20A C19A 1_555 1_555
H17A C20A 1_555 1_555
C21A C20A 1_555 1_555
H18A C21A 1_555 1_555
C22A C21A 1_555 1_555
H19A C22A 1_555 1_555
C23A C19A 1_555 1_555
H20A C23A 1_555 1_555
C24A C14A 1_555 1_555
H21A C24A 1_555 1_555
C25A C24A 1_555 1_555
H22A C25A 1_555 1_555
C26A C25A 1_555 1_555
C27A H23A 1_555 1_555
C28A N2A 1_555 1_555
C29A C28A 1_555 1_555
H24A C29A 1_555 1_555
C30A C29A 1_555 1_555
H25A C30A 1_555 1_555
C31A C30A 1_555 1_555
H26A C31A 1_555 1_555
C32A C31A 1_555 1_555
H27A C32A 1_555 1_555
C33A N1A 1_555 1_555
C34A N2A 1_555 1_555
H28A C34A 1_555 1_555
H29A C34A 1_555 1_555
C35A C35 1_555 1_555
H30A C35A 1_555 1_555
H31A C35A 1_555 1_555
C36A H32A 1_555 1_555
C37A N3A 1_555 1_555
C38A C37A 1_555 1_555
H33A C38A 1_555 1_555
C39A C38A 1_555 1_555
H34A C39A 1_555 1_555
C40A C39A 1_555 1_555
H35A C40A 1_555 1_555
C41A C40A 1_555 1_555
H36A C41A 1_555 1_555
C42A N4A 1_555 1_555
C43A N4A 1_555 1_555
H37A C43A 1_555 1_555
H38A C43A 1_555 1_555
C44A C44 1_555 1_555
H39A C44A 1_555 1_555
H40A C44A 1_555 1_555
Cd1A O1A 1_555 1_555
Cd1A_2 N3A 1_555 1_555
Fe1A C1A 1_555 1_555
Fe2A C14A 1_555 1_555
O2 Cd1 1_555 1_555
O3 Cd1 1_555 1_555
O4 Cd1 1_555 1_555
N1 Cd1 1_555 1_555
N3 Cd1 1_555 1_555
C2 Fe1 1_555 1_555
C3 Fe1 1_555 1_555
C4 C5 1_555 1_555
C4 Fe1 1_555 1_555
C5 Fe1 1_555 1_555
C6 Fe1 1_555 1_555
C7 Fe1 1_555 1_555
C8 Fe1 1_555 1_555
C9 C10 1_555 1_555
C9 Fe1 1_555 1_555
C10 Fe1 1_555 1_555
C15 Fe2 1_555 1_555
C16 Fe2 1_555 1_555
C17 C18 1_555 1_555
C17 Fe2 1_555 1_555
C18 Fe2 1_555 1_555
C19 Fe2 1_555 1_555
C20 Fe2 1_555 1_555
C21 Fe2 1_555 1_555
C22 C23 1_555 1_555
C22 Fe2 1_555 1_555
C23 Fe2 1_555 1_555
C28 C33 1_555 1_555
C32 C33 1_555 1_555
C37 C42 1_555 1_555
C41 C42 1_555 1_555
O2A Cd1A 1_555 1_555
O3A Cd1A 1_555 1_555
O4A Cd1A 1_555 1_555
N1A Cd1A 1_555 1_555
C2A Fe1A 1_555 1_555
C3A Fe1A 1_555 1_555
C4A C5A 1_555 1_555
C4A Fe1A 1_555 1_555
C5A Fe1A 1_555 1_555
C6A Fe1A 1_555 1_555
C7A Fe1A 1_555 1_555
C8A Fe1A 1_555 1_555
C9A C10A 1_555 1_555
C9A Fe1A 1_555 1_555
C10A Fe1A 1_555 1_555
C15A Fe2A 1_555 1_555
C16A Fe2A 1_555 1_555
C17A C18A 1_555 1_555
C17A Fe2A 1_555 1_555
C18A Fe2A 1_555 1_555
C19A Fe2A 1_555 1_555
C20A Fe2A 1_555 1_555
C21A Fe2A 1_555 1_555
C22A C23A 1_555 1_555
C22A Fe2A 1_555 1_555
C23A Fe2A 1_555 1_555
C28A C33A 1_555 1_555
C32A C33A 1_555 1_555
C34A C35A 1_555 1_555
C37A C42A 1_555 1_555
C41A C42A 1_555 1_555
C43A C44A 1_555 1_555

#END
