
#######################################################################
#
#                 Cambridge Crystallographic Data Centre
#                                CCDC 
#
#######################################################################
#
# If this CIF has been generated from an entry in the Cambridge 
# Structural Database, then it will include bibliographic, chemical, 
# crystal, experimental, refinement or atomic coordinate data resulting 
# from the CCDC's data processing and validation procedures.
#
#######################################################################

data_DITNUR
_symmetry_cell_setting           monoclinic
_symmetry_space_group_name_H-M   'P 21/c'
_symmetry_Int_Tables_number      14
_space_group_name_Hall           '-P 2ybc'
loop_
_symmetry_equiv_pos_site_id
_symmetry_equiv_pos_as_xyz
1 x,y,z
2 -x,1/2+y,1/2-z
3 -x,-y,-z
4 x,1/2-y,1/2+z
_cell_length_a                   14.9309(18)
_cell_length_b                   14.8692(19)
_cell_length_c                   20.076(2)
_cell_angle_alpha                90
_cell_angle_beta                 108.944(2)
_cell_angle_gamma                90
_cell_volume                     4215.67
loop_
_atom_site_label
_atom_site_type_symbol
_atom_site_fract_x
_atom_site_fract_y
_atom_site_fract_z
O1 O 0.5914(2) 0.47637(18) 1.01793(15)
O2 O 0.5687(2) 0.67594(19) 1.00980(17)
O3 O 0.4806(3) 0.6854(2) 0.86326(18)
O4 O 0.4844(3) 0.8144(2) 1.12871(18)
O5 O 0.3998(3) 0.7046(3) 1.1507(2)
O6 O 0.2778(3) 0.4748(3) 0.62400(19)
O7 O 0.3923(3) 0.7974(3) 0.8045(2)
O8 O -0.0135(3) 0.5755(4) 0.4477(3)
O9 O -0.0264(3) 0.5605(4) 0.3396(3)
C1 C 0.4226(4) 0.7538(3) 1.1091(3)
C2 C 0.3242(4) 0.4972(3) 0.5852(3)
O10 O 0.4092(2) 0.52427(18) 0.47398(15)
O11 O 0.4244(3) 0.6118(2) 0.73209(18)
C3 C 0.8796(3) 0.4887(4) 1.1023(3)
O12 O 0.4131(3) 0.3218(3) 0.7235(3)
N1 N 0.8009(3) 0.2725(3) 0.8220(3)
N2 N 0.9813(3) 0.4884(4) 1.1318(3)
O13 O 0.0821(4) 0.7284(4) 0.9575(4)
N3 N 0.1219(4) 0.7358(4) 0.9139(4)
O14 O 1.0183(3) 0.4840(5) 1.1954(3)
O15 O 0.0805(4) 0.7389(4) 0.8525(5)
O16 O 1.0279(3) 0.4912(4) 1.0926(2)
N4 N 0.9482(6) 0.2290(6) 0.8525(6)
C4 C 0.8886(7) 0.2977(7) 0.8432(6)
H1 H 0.9077 0.3574 0.8512
C5 C 0.4177(4) 0.7453(3) 0.8558(2)
C6 C 0.8080(6) 0.1811(5) 0.8190(5)
H2 H 0.7560 0.1427 0.8049
C7 C 0.8945(8) 0.1541(6) 0.8380(7)
H3 H 0.9157 0.0949 0.8411
Mn1 Mn 0.51366(5) 0.56737(4) 0.57040(3)
Mn2 Mn 0.51242(5) 0.56731(4) 0.93579(3)
Mn3 Mn 0.68273(5) 0.36347(4) 0.79414(3)
Mn4 Mn 0.39710(5) 0.46854(5) 0.72396(4)
O17 O 0.6220(2) 0.5288(2) 0.89402(16)
O18 O 0.5589(2) 0.4643(2) 0.76372(16)
O19 O 0.4136(3) 0.5009(2) 0.60990(17)
O20 O 0.3756(2) 0.4723(2) 0.33633(16)
C8 C 0.4198(3) 0.7485(3) 0.9821(2)
O21 O 0.5844(2) 0.5016(3) 1.15150(17)
O22 O 0.2564(2) 0.5533(2) 0.26932(17)
O23 O 0.7414(2) 0.4445(2) 0.88801(17)
C9 C 0.7408(3) 0.4860(3) 1.0009(2)
O24 O 0.5677(2) 0.82423(19) 1.02202(18)
C10 C 0.2592(3) 0.5248(3) 0.3850(2)
C11 C 0.5274(3) 0.7500(3) 1.0066(2)
C12 C 0.3690(4) 0.7482(3) 0.9097(2)
C13 C 0.3177(3) 0.5218(3) 0.4572(2)
C14 C 0.3008(3) 0.5175(3) 0.3264(2)
O25 O 0.7185(3) 0.5338(3) 1.23124(19)
C15 C 0.3706(4) 0.7465(3) 1.0310(3)
C16 C 0.7282(3) 0.4950(3) 1.1192(2)
C17 C 0.2706(3) 0.5182(3) 0.5087(2)
C18 C 0.6984(3) 0.4854(3) 0.9225(2)
C19 C 0.8362(3) 0.4858(3) 1.0295(2)
H4 H 0.8734 0.4837 1.0003
C20 C 0.8258(3) 0.4954(4) 1.1469(3)
H5 H 0.8554 0.5000 1.1953
N5 N 0.0208(3) 0.5594(3) 0.4013(3)
C21 C 0.6825(3) 0.4859(3) 1.0459(2)
C22 C 0.1633(3) 0.5373(3) 0.3676(3)
H6 H 0.1263 0.5425 0.3206
C23 C 0.1747(3) 0.5308(3) 0.4901(3)
H7 H 0.1456 0.5316 0.5246
C24 C 0.6742(4) 0.5098(3) 1.1698(3)
C25 C 0.2695(4) 0.7469(3) 0.8871(3)
H8 H 0.2347 0.7496 0.8394
C26 C 0.2244(4) 0.7417(3) 0.9375(4)
C27 C 0.1211(3) 0.5423(3) 0.4199(3)
C28 C 0.2731(4) 0.7409(3) 1.0084(3)
H9 H 0.2408 0.7366 1.0408
O1B O 0.4086(2) 0.52363(18) 0.98207(15)
O4C O 0.4844(3) 0.6856(2) 0.62871(18)
O5B O 0.6002(3) 0.2954(3) 0.8493(2)
O7A O 0.6077(3) 0.2974(3) 0.6955(2)
O10B O 0.5908(2) 0.47573(18) 0.52602(15)
Mn1B Mn 0.48634(5) 0.43263(4) 0.42960(3)
Mn1C Mn 0.51366(5) 0.93263(4) 1.07040(3)
Mn2B Mn 0.48758(5) 0.43269(4) 1.06421(3)
Mn3A Mn 0.31727(5) 0.86347(4) 0.70586(3)
Mn3B Mn 0.31727(5) 0.63653(4) 0.20586(3)
Mn3B_2 Mn 0.31727(5) 0.63653(4) 1.20586(3)
Mn4B Mn 0.60290(5) 0.53146(5) 1.27604(4)
O20B O 0.6244(2) 0.5277(2) 0.66367(16)
O21B O 0.4156(2) 0.4984(3) 0.84850(17)
O22B O 0.7436(2) 0.4467(2) 0.73068(17)
O24C O 0.5677(2) 0.67577(19) 0.52202(18)
O25B O 0.2815(3) 0.4662(3) 0.76876(19)
loop_
_geom_bond_atom_site_label_1
_geom_bond_atom_site_label_2
_geom_bond_site_symmetry_1
_geom_bond_site_symmetry_2
O1 Mn2 1_555 1_555
O2 Mn2 1_555 1_555
O3 C5 1_555 1_555
O4 C1 1_555 1_555
O5 C1 1_555 1_555
O6 C2 1_555 1_555
O7 C5 1_555 1_555
O8 N5 1_555 1_555
O9 N5 1_555 1_555
C1 C15 1_555 1_555
C2 O19 1_555 1_555
O10 Mn1 1_555 1_555
O11 Mn4 1_555 1_555
C3 N2 1_555 1_555
O12 Mn4 1_555 1_555
N1 C4 1_555 1_555
N2 O14 1_555 1_555
O13 N3 1_555 1_555
N3 O15 1_555 1_555
O16 N2 1_555 1_555
N4 C4 1_555 1_555
C4 H1 1_555 1_555
C5 C12 1_555 1_555
C6 N1 1_555 1_555
H2 C6 1_555 1_555
C7 N4 1_555 1_555
H3 C7 1_555 1_555
Mn1 O19 1_555 1_555
Mn2 O3 1_555 1_555
Mn3 N1 1_555 1_555
Mn4 O6 1_555 1_555
O17 Mn2 1_555 1_555
O18 Mn3 1_555 1_555
O19 Mn4 1_555 1_555
O20 C14 1_555 1_555
C8 C11 1_555 1_555
O21 C24 1_555 1_555
O22 C14 1_555 1_555
O23 Mn3 1_555 1_555
C9 C18 1_555 1_555
O24 C11 1_555 1_555
C10 C13 1_555 1_555
C11 O2 1_555 1_555
C12 C8 1_555 1_555
C13 O10 1_555 1_555
C14 C10 1_555 1_555
O25 C24 1_555 1_555
C15 C8 1_555 1_555
C16 C20 1_555 1_555
C17 C2 1_555 1_555
C18 O17 1_555 1_555
C19 C3 1_555 1_555
H4 C19 1_555 1_555
C20 C3 1_555 1_555
H5 C20 1_555 1_555
N5 C27 1_555 1_555
C21 O1 1_555 1_555
C22 C10 1_555 1_555
H6 C22 1_555 1_555
C23 C17 1_555 1_555
H7 C23 1_555 1_555
C24 C16 1_555 1_555
C25 C12 1_555 1_555
H8 C25 1_555 1_555
C26 N3 1_555 1_555
C27 C22 1_555 1_555
C28 C15 1_555 1_555
H9 C28 1_555 1_555
O1B Mn2 1_555 1_555
O4C Mn1 1_555 1_555
O5B Mn3 1_555 1_555
O7A Mn3 1_555 1_555
O10B Mn1 1_555 1_555
Mn1B O10 1_555 1_555
Mn1C O4 1_555 1_555
Mn2B O1 1_555 1_555
Mn3A O7 1_555 1_555
Mn3B O22 1_555 1_555
Mn3B_2 O5 1_555 1_555
Mn4B O21 1_555 1_555
O20B Mn1 1_555 1_555
O21B Mn2 1_555 1_555
O22B Mn3 1_555 1_555
O24C Mn1 1_555 1_555
O25B Mn4 1_555 1_555
C6 C7 1_555 1_555
Mn4 O18 1_555 1_555
Mn4 O21B 1_555 1_555
O20 Mn1B 1_555 1_555
O21 Mn2B 1_555 1_555
O23 C18 1_555 1_555
C9 C19 1_555 1_555
C9 C21 1_555 1_555
O24 Mn1C 1_555 1_555
C13 C17 1_555 1_555
O25 Mn4B 1_555 1_555
C16 C21 1_555 1_555
C23 C27 1_555 1_555
C25 C26 1_555 1_555
C26 C28 1_555 1_555
O1B Mn2B 1_555 1_555
O10B Mn1B 1_555 1_555

#END
