
#######################################################################
#
#                 Cambridge Crystallographic Data Centre
#                                CCDC 
#
#######################################################################
#
# If this CIF has been generated from an entry in the Cambridge 
# Structural Database, then it will include bibliographic, chemical, 
# crystal, experimental, refinement or atomic coordinate data resulting 
# from the CCDC's data processing and validation procedures.
#
#######################################################################

data_DITNIF
_symmetry_cell_setting           orthorhombic
_symmetry_space_group_name_H-M   'P b c a'
_symmetry_Int_Tables_number      61
_space_group_name_Hall           '-P 2ac 2ab'
loop_
_symmetry_equiv_pos_site_id
_symmetry_equiv_pos_as_xyz
1 x,y,z
2 1/2-x,-y,1/2+z
3 -x,1/2+y,1/2-z
4 1/2+x,1/2-y,-z
5 -x,-y,-z
6 1/2+x,y,1/2-z
7 x,1/2-y,1/2+z
8 1/2-x,1/2+y,z
_cell_length_a                   16.008(5)
_cell_length_b                   7.924(2)
_cell_length_c                   18.121(5)
_cell_angle_alpha                90
_cell_angle_beta                 90
_cell_angle_gamma                90
_cell_volume                     2298.6
loop_
_atom_site_label
_atom_site_type_symbol
_atom_site_fract_x
_atom_site_fract_y
_atom_site_fract_z
Sr1 Sr 0.218127(12) 0.33078(2) 0.282397(12)
O1 O 0.68625(12) 0.0599(2) 0.27725(10)
C1 C 0.45311(14) 0.1735(3) 0.39591(13)
O2 O 0.33865(11) 0.3596(2) 0.37791(11)
O3 O 0.65589(14) -0.1891(2) 0.31943(13)
C2 C 0.48346(14) 0.2280(3) 0.46332(12)
O4 O 0.32689(10) 0.1027(2) 0.33548(10)
N1 N 0.56223(12) 0.1937(2) 0.48448(11)
C3 C 0.36672(14) 0.2150(3) 0.36869(13)
O5 O 0.11964(13) 0.1996(2) 0.37383(11)
H1 H 0.1013(18) 0.240(3) 0.4200(9)
H2 H 0.1300(18) 0.0828(15) 0.3796(15)
C4 C 0.43208(15) 0.3234(3) 0.51778(14)
H3 H 0.4654 0.3489 0.5604
H4 H 0.3849 0.2563 0.5322
H5 H 0.4129 0.4266 0.4958
C5 C 0.58683(13) 0.0494(3) 0.37142(13)
C6 C 0.64672(14) -0.0351(3) 0.31920(13)
C7 C 0.50527(13) 0.0808(3) 0.35050(13)
H6 H 0.4854 0.0395 0.3058
C8 C 0.61350(14) 0.1087(3) 0.43920(13)
C9 C 0.70106(15) 0.0840(4) 0.46591(16)
H7 H 0.7322 0.0217 0.4298
H8 H 0.7003 0.0226 0.5116
H9 H 0.7269 0.1920 0.4735
O6 O 0.12122(14) 0.4642(2) 0.18357(12)
H10 H 0.1307(19) 0.5816(15) 0.1800(17)
H11 H 0.0857(17) 0.432(3) 0.1447(13)
Sr1B Sr 0.781873(12) -0.16922(2) 0.217603(12)
Sr1E Sr 0.718127(12) 0.33078(2) 0.217603(12)
Sr1G Sr 0.281873(12) -0.16922(2) 0.282397(12)
O1B O 0.31375(12) 0.5599(2) 0.22275(10)
O1E O 0.18625(12) 0.0599(2) 0.22275(10)
O3B O 0.34411(14) 0.3109(2) 0.18057(13)
O4G O 0.17311(10) 0.6027(2) 0.33548(10)
loop_
_geom_bond_atom_site_label_1
_geom_bond_atom_site_label_2
_geom_bond_site_symmetry_1
_geom_bond_site_symmetry_2
Sr1 O2 1_555 1_555
O1 C6 1_555 1_555
C1 C2 1_555 1_555
O2 C3 1_555 1_555
O3 C6 1_555 1_555
C2 N1 1_555 1_555
O4 Sr1 1_555 1_555
N1 C8 1_555 1_555
C3 C1 1_555 1_555
O5 Sr1 1_555 1_555
H1 O5 1_555 1_555
H2 O5 1_555 1_555
C4 C2 1_555 1_555
H3 C4 1_555 1_555
H4 C4 1_555 1_555
H5 C4 1_555 1_555
C5 C6 1_555 1_555
C7 C1 1_555 1_555
H6 C7 1_555 1_555
C8 C5 1_555 1_555
C9 C8 1_555 1_555
H7 C9 1_555 1_555
H8 C9 1_555 1_555
H9 C9 1_555 1_555
O6 Sr1 1_555 1_555
H10 O6 1_555 1_555
H11 O6 1_555 1_555
Sr1B O1 1_555 1_555
Sr1E O1 1_555 1_555
Sr1G O4 1_555 1_555
O1B Sr1 1_555 1_555
O1E Sr1 1_555 1_555
O3B Sr1 1_555 1_555
O4G Sr1 1_555 1_555
O3 Sr1B 1_555 1_555
O4 C3 1_555 1_555
C5 C7 1_555 1_555
Sr1G O1E 1_555 1_555

#END
