
#######################################################################
#
#                 Cambridge Crystallographic Data Centre
#                                CCDC 
#
#######################################################################
#
# If this CIF has been generated from an entry in the Cambridge 
# Structural Database, then it will include bibliographic, chemical, 
# crystal, experimental, refinement or atomic coordinate data resulting 
# from the CCDC's data processing and validation procedures.
#
#######################################################################

data_DITRAB
_symmetry_cell_setting           monoclinic
_symmetry_space_group_name_H-M   'P 21/c'
_symmetry_Int_Tables_number      14
_space_group_name_Hall           '-P 2ybc'
loop_
_symmetry_equiv_pos_site_id
_symmetry_equiv_pos_as_xyz
1 x,y,z
2 -x,1/2+y,1/2-z
3 -x,-y,-z
4 x,1/2-y,1/2+z
_cell_length_a                   15.0508(2)
_cell_length_b                   9.1249(8)
_cell_length_c                   23.1601(5)
_cell_angle_alpha                90
_cell_angle_beta                 93.960(4)
_cell_angle_gamma                90
_cell_volume                     3173.15
loop_
_atom_site_label
_atom_site_type_symbol
_atom_site_fract_x
_atom_site_fract_y
_atom_site_fract_z
C1 C 0.78241(16) 0.0323(3) 0.73349(10)
C2 C 0.85882(16) 0.1631(3) 0.67681(10)
C3 C 0.91748(16) 0.0914(3) 0.71637(10)
C4 C 0.86849(17) 0.2676(3) 0.62803(10)
C5 C 0.62864(18) 0.0561(3) 0.76426(11)
H1 H 0.6269 0.1505 0.7491
C6 C 0.70530(16) -0.0287(3) 0.76135(10)
C7 C 0.70707(18) -0.1678(3) 0.78437(12)
H2 H 0.7580 -0.2249 0.7829
C8 C 0.55537(18) 0.0005(3) 0.78960(12)
H3 H 0.5043 0.0574 0.7909
C9 C 0.91074(18) 0.1017(3) 0.93718(11)
C10 C 0.87796(17) -0.0456(3) 0.95261(11)
C11 C 0.9071(2) 0.2207(4) 0.97383(13)
H4 H 0.8845 0.2101 1.0100
C12 C 0.9725(3) 0.2476(4) 0.86949(14)
H5 H 0.9952 0.2573 0.8333
C13 C 0.8599(2) -0.0807(4) 1.00941(12)
H6 H 0.8695 -0.0121 1.0389
C14 C 0.8279(2) -0.2175(4) 1.02116(14)
H7 H 0.8151 -0.2425 1.0586
C15 C 0.8150(2) -0.3171(4) 0.97696(14)
H8 H 0.7927 -0.4100 0.9840
C16 C 0.83543(19) -0.2778(4) 0.92222(13)
H9 H 0.8276 -0.3463 0.8926
C17 C 0.6671(2) 0.3279(4) 0.48780(14)
H10 H 0.6828 0.4118 0.5089
C18 C 0.6619(2) 0.3353(5) 0.42842(15)
H11 H 0.6738 0.4225 0.4096
C19 C 0.6387(3) 0.2117(5) 0.39754(15)
H12 H 0.6345 0.2139 0.3573
C20 C 0.6217(3) 0.0846(4) 0.42625(14)
H13 H 0.6056 0.0000 0.4057
C21 C 0.62877(18) 0.0833(3) 0.48638(12)
C22 C 0.61544(18) -0.0529(3) 0.52018(12)
C23 C 0.5806(2) -0.1804(4) 0.49519(15)
H14 H 0.5617 -0.1822 0.4561
C24 C 0.5741(2) -0.3033(4) 0.52831(19)
H15 H 0.5509 -0.3892 0.5118
C25 C 0.6020(2) -0.3001(4) 0.58602(19)
H16 H 0.5989 -0.3832 0.6090
C26 C 0.6345(2) -0.1698(4) 0.60862(14)
H17 H 0.6523 -0.1659 0.6478
C27 C 0.9372(3) 0.3546(4) 0.95659(15)
H18 H 0.9351 0.4351 0.9811
C28 C 1.01683(17) 0.0866(3) 0.72821(11)
C29 C 0.55744(18) -0.1394(3) 0.81306(11)
C30 C 0.47794(19) -0.1996(3) 0.84077(11)
C31 C 0.63362(19) -0.2233(3) 0.80975(12)
H19 H 0.6354 -0.3179 0.8247
C32 C 0.9701(3) 0.3697(4) 0.90395(16)
H20 H 0.9904 0.4599 0.8916
N1 N 0.77379(13) 0.1239(2) 0.68803(8)
N2 N 0.86758(13) 0.0084(2) 0.75185(8)
N3 N 0.94402(17) 0.1153(3) 0.88501(9)
N4 N 0.86627(15) -0.1441(3) 0.90989(9)
N5 N 0.65034(15) 0.2045(3) 0.51662(9)
N6 N 0.64171(15) -0.0479(3) 0.57680(10)
O1 O 0.79720(12) 0.3062(2) 0.59975(8)
O2 O 0.94241(12) 0.3136(2) 0.61571(7)
O3 O 1.04627(12) 0.0006(2) 0.76768(8)
O4 O 1.06709(12) 0.1636(2) 0.69986(8)
O5 O 0.48197(13) -0.3268(3) 0.86075(9)
O6 O 0.40936(14) -0.1224(2) 0.84264(10)
Cd1 Cd 0.669595(12) 0.18444(2) 0.617810(8)
Cd2 Cd 0.943103(12) -0.09876(2) 0.827130(8)
O2A O 1.05759(12) -0.1864(2) 0.88429(7)
O4A O 0.93291(12) -0.3364(2) 0.80014(8)
O5A O 0.51803(13) 0.1732(3) 0.63925(9)
O6A O 0.59064(14) 0.3776(2) 0.65736(10)
Cd1A Cd 0.330405(12) -0.31556(2) 0.882190(8)
Cd2A Cd 1.056897(12) 0.40124(2) 0.672870(8)
O7 O 0.2059(3) 0.1122(4) 0.83318(16)
H21 H 0.1592 0.0965 0.8106
H22 H 0.2083 0.0322 0.8526
loop_
_geom_bond_atom_site_label_1
_geom_bond_atom_site_label_2
_geom_bond_site_symmetry_1
_geom_bond_site_symmetry_2
C1 C6 1_555 1_555
C2 C3 1_555 1_555
C3 C28 1_555 1_555
C4 C2 1_555 1_555
C5 H1 1_555 1_555
C6 C5 1_555 1_555
C7 C6 1_555 1_555
H2 C7 1_555 1_555
C8 C5 1_555 1_555
H3 C8 1_555 1_555
C9 C10 1_555 1_555
C10 C13 1_555 1_555
C11 C9 1_555 1_555
H4 C11 1_555 1_555
C12 H5 1_555 1_555
C13 H6 1_555 1_555
C14 C13 1_555 1_555
H7 C14 1_555 1_555
C15 C14 1_555 1_555
H8 C15 1_555 1_555
C16 C15 1_555 1_555
H9 C16 1_555 1_555
C17 H10 1_555 1_555
C18 C17 1_555 1_555
H11 C18 1_555 1_555
C19 C18 1_555 1_555
H12 C19 1_555 1_555
C20 C19 1_555 1_555
H13 C20 1_555 1_555
C21 C20 1_555 1_555
C22 C21 1_555 1_555
C23 C22 1_555 1_555
H14 C23 1_555 1_555
C24 C23 1_555 1_555
H15 C24 1_555 1_555
C25 C24 1_555 1_555
H16 C25 1_555 1_555
C26 C25 1_555 1_555
H17 C26 1_555 1_555
C27 C11 1_555 1_555
H18 C27 1_555 1_555
C28 O3 1_555 1_555
C29 C8 1_555 1_555
C30 C29 1_555 1_555
C31 C7 1_555 1_555
H19 C31 1_555 1_555
C32 C12 1_555 1_555
H20 C32 1_555 1_555
N1 C1 1_555 1_555
N2 C1 1_555 1_555
N3 C9 1_555 1_555
N4 C10 1_555 1_555
N5 C17 1_555 1_555
N6 C22 1_555 1_555
O1 C4 1_555 1_555
O2 C4 1_555 1_555
O3 Cd2 1_555 1_555
O4 C28 1_555 1_555
O5 C30 1_555 1_555
O6 C30 1_555 1_555
Cd1 N1 1_555 1_555
Cd2 N2 1_555 1_555
O7 H21 1_555 1_555
H22 O7 1_555 1_555
O2A Cd2 1_555 1_555
O4A Cd2 1_555 1_555
O5A Cd1 1_555 1_555
O6A Cd1 1_555 1_555
Cd1A O5 1_555 1_555
Cd2A O2 1_555 1_555
C2 N1 1_555 1_555
C3 N2 1_555 1_555
C12 N3 1_555 1_555
C16 N4 1_555 1_555
C21 N5 1_555 1_555
C26 N6 1_555 1_555
C27 C32 1_555 1_555
C29 C31 1_555 1_555
N3 Cd2 1_555 1_555
N4 Cd2 1_555 1_555
N5 Cd1 1_555 1_555
N6 Cd1 1_555 1_555
O1 Cd1 1_555 1_555
O4 Cd2A 1_555 1_555
O6 Cd1A 1_555 1_555

#END
