
#######################################################################
#
#                 Cambridge Crystallographic Data Centre
#                                CCDC 
#
#######################################################################
#
# If this CIF has been generated from an entry in the Cambridge 
# Structural Database, then it will include bibliographic, chemical, 
# crystal, experimental, refinement or atomic coordinate data resulting 
# from the CCDC's data processing and validation procedures.
#
#######################################################################

data_DITSIK
_symmetry_cell_setting           triclinic
_symmetry_space_group_name_H-M   'P -1'
_symmetry_Int_Tables_number      2
_space_group_name_Hall           '-P 1'
loop_
_symmetry_equiv_pos_site_id
_symmetry_equiv_pos_as_xyz
1 x,y,z
2 -x,-y,-z
_cell_length_a                   10.2240(17)
_cell_length_b                   11.2172(18)
_cell_length_c                   11.3302(19)
_cell_angle_alpha                69.059(2)
_cell_angle_beta                 76.930(2)
_cell_angle_gamma                88.666(2)
_cell_volume                     1179.77
loop_
_atom_site_label
_atom_site_type_symbol
_atom_site_fract_x
_atom_site_fract_y
_atom_site_fract_z
Cd1 Cd 0.116557(17) 0.364796(16) 0.474512(15)
Cd2 Cd 0.661009(17) -0.059089(16) 0.896644(16)
Cd3 Cd 0.72536(5) 0.20400(5) 0.28745(4)
N1 N 0.2963(2) 0.39407(18) 0.55144(18)
N2 N 0.1963(2) 0.10016(18) 0.96680(18)
O1 O 0.08872(17) 0.53962(16) 0.56637(16)
O2 O 0.7991(2) 0.0759(3) 0.4697(2)
H1 H 0.7578(9) 0.1309(6) 0.4975(11)
H2 H 0.8817(5) 0.1011(15) 0.451(3)
O3 O 0.1668(2) 0.61831(18) 0.69431(19)
O4 O 0.6481(2) 0.3303(2) 0.1095(2)
H3 H 0.6798(13) 0.3947(9) 0.0420(10)
H4 H 0.5740(6) 0.3086(12) 0.0990(12)
O5 O 0.5215(2) 0.21597(19) 0.40838(19)
O6 O 0.03930(18) 0.23873(18) 0.38269(18)
H5 H -0.0321(5) 0.2587(15) 0.3564(11)
H6 H 0.0772(11) 0.1901(6) 0.3446(9)
O7 O 0.3129(2) 0.26293(19) 0.39342(19)
O8 O 0.18379(19) 0.54227(17) 0.27959(16)
H7 H 0.1349(10) 0.6015(6) 0.2905(10)
H8 H 0.187(2) 0.5511(11) 0.2013(5)
O9 O 0.56676(17) 0.34796(17) 0.78131(17)
H9 H 0.5242 0.3237 0.8572
O10 O 0.72364(19) 0.14815(18) 0.7799(2)
H10 H 0.6722(8) 0.2030(7) 0.7971(15)
H11 H 0.8019(5) 0.1845(12) 0.755(3)
O11 O 0.5697(2) -0.26979(18) 0.97482(17)
H12 H 0.5211(10) -0.3039(18) 1.0508(7)
H13 H 0.6283(7) -0.3230(7) 0.9678(16)
O12 O 0.64005(17) -0.07025(15) 0.70019(16)
H14 H 0.5588(5) -0.0533(11) 0.698(2)
H15 H 0.6466(16) -0.1419(5) 0.6905(11)
O13 O 0.43786(17) 0.00952(17) 0.90243(16)
O14 O 0.37414(18) -0.03404(17) 0.74500(16)
O15 O -0.06940(19) 0.20643(19) 1.15612(18)
O16 O 0.1259(2) 0.13250(19) 1.19481(17)
O17 O -0.01517(17) 0.25656(17) 0.68275(16)
C1 C 0.2858(2) 0.4561(2) 0.6347(2)
C2 C 0.3733(3) 0.4442(2) 0.7125(2)
H16 H 0.3605 0.4875 0.7701
C3 C 0.4837(2) 0.3661(2) 0.7055(2)
C4 C 0.4986(2) 0.3099(2) 0.6107(2)
H17 H 0.5726 0.2627 0.5967
C5 C 0.4036(2) 0.3250(2) 0.5390(2)
C6 C 0.1715(3) 0.5436(2) 0.6326(2)
C7 C 0.4139(3) 0.2624(2) 0.4393(3)
C8 C 0.2307(2) 0.0829(2) 0.8522(2)
C9 C 0.1593(2) 0.1273(2) 0.7579(2)
H18 H 0.1852 0.1099 0.6818
C10 C 0.0467(2) 0.1992(2) 0.7761(2)
C11 C 0.0050(3) 0.2051(2) 0.9016(2)
H19 H -0.0746 0.2424 0.9233
C12 C 0.0813(2) 0.1560(2) 0.9917(2)
C13 C 0.3570(2) 0.0137(2) 0.8319(2)
C14 C 0.0432(3) 0.1652(2) 1.1240(2)
Cd1A Cd -0.116557(17) 0.635204(16) 0.525488(15)
Cd2A Cd 0.338991(17) 0.059089(16) 1.103356(16)
Cd3_2 Cd -0.27464(5) 0.20400(5) 1.28745(4)
Cd3A Cd 0.27464(5) -0.20400(5) 0.71255(4)
Cd3A_2 Cd 0.27464(5) 0.79600(5) 0.71255(4)
N2A N 0.8037(2) -0.10016(18) 1.03320(18)
O1A O -0.08872(17) 0.46038(16) 0.43363(16)
O3A O 0.8332(2) 0.38169(18) 0.30569(19)
O13A O 0.56214(17) -0.00952(17) 1.09757(16)
O14A O 0.62586(18) 0.03404(17) 0.25500(16)
O15_2 O 0.93060(19) 0.20643(19) 0.15612(18)
O16A O 0.8741(2) -0.13250(19) 0.80519(17)
O18 O 1.0000 0.5000 0.0000
O19 O 1.2376(3) 0.4397(2) 0.0766(3)
loop_
_geom_bond_atom_site_label_1
_geom_bond_atom_site_label_2
_geom_bond_site_symmetry_1
_geom_bond_site_symmetry_2
Cd1 N1 1_555 1_555
Cd2 O10 1_555 1_555
Cd3 O2 1_555 1_555
N1 C1 1_555 1_555
N2 C8 1_555 1_555
O1 Cd1 1_555 1_555
O2 H1 1_555 1_555
H2 O2 1_555 1_555
O3 C6 1_555 1_555
O4 Cd3 1_555 1_555
H3 O4 1_555 1_555
H4 O4 1_555 1_555
O5 Cd3 1_555 1_555
O6 Cd1 1_555 1_555
H5 O6 1_555 1_555
H6 O6 1_555 1_555
O7 Cd1 1_555 1_555
O8 Cd1 1_555 1_555
H7 O8 1_555 1_555
H8 O8 1_555 1_555
O9 H9 1_555 1_555
O10 H10 1_555 1_555
H11 O10 1_555 1_555
O11 Cd2 1_555 1_555
H12 O11 1_555 1_555
H13 O11 1_555 1_555
O12 Cd2 1_555 1_555
H14 O12 1_555 1_555
H15 O12 1_555 1_555
O13 Cd2 1_555 1_555
O14 C13 1_555 1_555
O15 C14 1_555 1_555
O16 C14 1_555 1_555
O17 Cd1 1_555 1_555
C1 C2 1_555 1_555
C2 H16 1_555 1_555
C3 O9 1_555 1_555
C4 C3 1_555 1_555
H17 C4 1_555 1_555
C5 N1 1_555 1_555
C6 O1 1_555 1_555
C7 O5 1_555 1_555
C8 C9 1_555 1_555
C9 H18 1_555 1_555
C10 O17 1_555 1_555
C11 C10 1_555 1_555
H19 C11 1_555 1_555
C12 N2 1_555 1_555
C13 O13 1_555 1_555
C14 C12 1_555 1_555
Cd1A O1 1_555 1_555
Cd2A N2 1_555 1_555
Cd3_2 O15 1_555 1_555
Cd3A O14 1_555 1_555
Cd3A_2 O3 1_555 1_555
N2A Cd2 1_555 1_555
O1A Cd1 1_555 1_555
O3A Cd3 1_555 1_555
O13A Cd2 1_555 1_555
O14A Cd3 1_555 1_555
O15_2 Cd3 1_555 1_555
O16A Cd2 1_555 1_555
O7 C7 1_555 1_555
O13 Cd2A 1_555 1_555
O16 Cd2A 1_555 1_555
C1 C6 1_555 1_555
C2 C3 1_555 1_555
C4 C5 1_555 1_555
C5 C7 1_555 1_555
C8 C13 1_555 1_555
C9 C10 1_555 1_555
C11 C12 1_555 1_555
Cd1A O1A 1_555 1_555
Cd2A O13A 1_555 1_555

#END
