
#######################################################################
#
#                 Cambridge Crystallographic Data Centre
#                                CCDC 
#
#######################################################################
#
# If this CIF has been generated from an entry in the Cambridge 
# Structural Database, then it will include bibliographic, chemical, 
# crystal, experimental, refinement or atomic coordinate data resulting 
# from the CCDC's data processing and validation procedures.
#
#######################################################################

data_DITTAC
_symmetry_cell_setting           orthorhombic
_symmetry_space_group_name_H-M   'P m m a'
_symmetry_Int_Tables_number      51
_space_group_name_Hall           '-P 2a 2a'
loop_
_symmetry_equiv_pos_site_id
_symmetry_equiv_pos_as_xyz
1 x,y,z
2 1/2-x,-y,z
3 -x,y,-z
4 1/2+x,-y,-z
5 -x,-y,-z
6 1/2+x,y,-z
7 x,-y,z
8 1/2-x,y,z
_cell_length_a                   12.2327(14)
_cell_length_b                   3.7481(3)
_cell_length_c                   7.2659(6)
_cell_angle_alpha                90
_cell_angle_beta                 90
_cell_angle_gamma                90
_cell_volume                     333.137
loop_
_atom_site_label
_atom_site_type_symbol
_atom_site_fract_x
_atom_site_fract_y
_atom_site_fract_z
Zn1 Zn 0.5000 -2.0000 0.0000
Br1 Br 0.42376(3) -1.5000 0.21885(5)
N1 N 0.3466(3) -2.0000 -0.1521(5)
C1 C 0.2500 -2.0000 -0.0683(7)
H1 H 0.2500 -2.0000 0.0624
C2 C 0.1540(3) -2.0000 -0.3365(6)
H2 H 0.0864 -2.0000 -0.4007
C3 C 0.2500 -2.0000 -0.4354(7)
H3 H 0.2500 -2.0000 -0.5662
Zn1_2 Zn 0.5000 -1.0000 0.0000
Zn1E Zn 0.0000 -2.0000 0.0000
Br1D Br 0.57624(3) -1.5000 -0.21885(5)
Br1D_2 Br 0.57624(3) -2.5000 -0.21885(5)
Br1_2 Br 0.42376(3) -2.5000 0.21885(5)
N1G N 0.1534(3) -2.0000 -0.1521(5)
N1D N 0.6534(3) -2.0000 0.1521(5)
C2G C 0.3460(3) -2.0000 -0.3365(6)
H2G H 0.4136 -2.0000 -0.4007
loop_
_geom_bond_atom_site_label_1
_geom_bond_atom_site_label_2
_geom_bond_site_symmetry_1
_geom_bond_site_symmetry_2
Zn1 Br1 1_555 1_555
Br1 Zn1_2 1_555 1_555
N1 Zn1 1_555 1_555
C1 N1 1_555 1_555
H1 C1 1_555 1_555
C2 H2 1_555 1_555
C3 C2 1_555 1_555
H3 C3 1_555 1_555
Zn1_2 Br1D 1_555 1_555
Zn1E N1G 1_555 1_555
Br1D Zn1 1_555 1_555
Br1D_2 Zn1 1_555 1_555
Br1_2 Zn1 1_555 1_555
N1G C1 1_555 1_555
N1D Zn1 1_555 1_555
C2G N1 1_555 1_555
H2G C2G 1_555 1_555
C2 N1G 1_555 1_555
C3 C2G 1_555 1_555

#END
