
#######################################################################
#
#                 Cambridge Crystallographic Data Centre
#                                CCDC 
#
#######################################################################
#
# If this CIF has been generated from an entry in the Cambridge 
# Structural Database, then it will include bibliographic, chemical, 
# crystal, experimental, refinement or atomic coordinate data resulting 
# from the CCDC's data processing and validation procedures.
#
#######################################################################

data_DITVEJ
_symmetry_cell_setting           triclinic
_symmetry_space_group_name_H-M   'P -1'
_symmetry_Int_Tables_number      2
_space_group_name_Hall           '-P 1'
loop_
_symmetry_equiv_pos_site_id
_symmetry_equiv_pos_as_xyz
1 x,y,z
2 -x,-y,-z
_cell_length_a                   6.6692(12)
_cell_length_b                   7.4600(14)
_cell_length_c                   15.361(3)
_cell_angle_alpha                91.426(2)
_cell_angle_beta                 92.063(2)
_cell_angle_gamma                102.255(2)
_cell_volume                     745.931
loop_
_atom_site_label
_atom_site_type_symbol
_atom_site_fract_x
_atom_site_fract_y
_atom_site_fract_z
Er1 Er 0.34601(4) 0.71724(4) 0.62832(2)
Ag1 Ag 0.50308(10) 0.73327(11) 1.01176(4)
N1 N 0.6937(10) 0.7153(10) 0.9011(5)
N2 N 0.9436(9) 0.7649(9) 0.8128(4)
H1 H 1.0648 0.8021 0.7939
N3 N 0.6945(10) 1.2223(10) 0.8828(4)
N4 N 0.9290(10) 1.2660(9) 0.7864(4)
H2 H 1.0431 1.3089 0.7624
O1 O 0.3124(8) 0.5125(7) 0.7364(4)
O2 O 0.3115(9) 0.4895(11) 0.8801(4)
O3 O 0.6380(8) 0.5774(8) 0.6227(4)
O4 O 0.9770(9) 0.6546(8) 0.6429(4)
O5 O 0.3286(8) 0.9038(8) 0.7445(4)
O6 O 0.3055(11) 1.0154(12) 0.8765(5)
O7 O 0.6396(8) 0.9452(7) 0.6264(4)
O8 O 0.9379(8) 1.1394(8) 0.6180(4)
O9 O 0.1998(9) 0.4368(7) 0.5543(4)
C1 C 0.3976(11) 0.5389(11) 0.8128(5)
C2 C 0.6179(11) 0.6385(10) 0.8212(5)
C3 C 0.7769(11) 0.6712(10) 0.7645(5)
C4 C 0.7985(11) 0.6296(10) 0.6703(5)
C5 C 0.8879(13) 0.7896(12) 0.8939(5)
H3 H 0.9748 0.8509 0.9388
C6 C 0.4017(12) 1.0077(10) 0.8112(5)
C7 C 0.6165(11) 1.1193(11) 0.8107(5)
C8 C 0.7660(11) 1.1442(10) 0.7485(5)
C9 C 0.7797(11) 1.0709(10) 0.6587(5)
C10 C 0.8826(13) 1.3070(12) 0.8662(6)
H4 H 0.9711 1.3855 0.9055
O10 O 0.2225(9) 0.9604(8) 0.5594(4)
O11 O 0.4357(8) 0.7351(8) 0.4804(4)
Er1_2 Er 1.34601(4) 0.71724(4) 0.62832(2)
Ag1A Ag 0.49692(10) 1.26673(11) 0.98824(4)
N3A N 0.3055(10) 0.7777(10) 1.1172(4)
O4_2 O -0.0230(9) 0.6546(8) 0.6429(4)
O6A O 0.6945(11) 0.9846(12) 1.1235(5)
loop_
_geom_bond_atom_site_label_1
_geom_bond_atom_site_label_2
_geom_bond_site_symmetry_1
_geom_bond_site_symmetry_2
Er1 O1 1_555 1_555
Ag1 N1 1_555 1_555
N1 C2 1_555 1_555
N2 H1 1_555 1_555
N3 C7 1_555 1_555
N4 H2 1_555 1_555
O1 C1 1_555 1_555
O2 C1 1_555 1_555
O3 Er1 1_555 1_555
O4 C4 1_555 1_555
O5 Er1 1_555 1_555
O6 C6 1_555 1_555
O7 Er1 1_555 1_555
O8 C9 1_555 1_555
O9 Er1 1_555 1_555
C1 C2 1_555 1_555
C2 C3 1_555 1_555
C3 N2 1_555 1_555
C4 O3 1_555 1_555
C5 N1 1_555 1_555
H3 C5 1_555 1_555
C6 O5 1_555 1_555
C7 C6 1_555 1_555
C8 N4 1_555 1_555
C9 O7 1_555 1_555
C10 N3 1_555 1_555
H4 C10 1_555 1_555
O10 Er1 1_555 1_555
O11 Er1 1_555 1_555
Er1_2 O4 1_555 1_555
Ag1A N3 1_555 1_555
N3A Ag1 1_555 1_555
O4_2 Er1 1_555 1_555
O6A Ag1 1_555 1_555
N2 C5 1_555 1_555
N4 C10 1_555 1_555
O6 Ag1A 1_555 1_555
C3 C4 1_555 1_555
C7 C8 1_555 1_555
C8 C9 1_555 1_555

#END
