
#######################################################################
#
#                 Cambridge Crystallographic Data Centre
#                                CCDC 
#
#######################################################################
#
# If this CIF has been generated from an entry in the Cambridge 
# Structural Database, then it will include bibliographic, chemical, 
# crystal, experimental, refinement or atomic coordinate data resulting 
# from the CCDC's data processing and validation procedures.
#
#######################################################################

data_DITWUA
_symmetry_cell_setting           monoclinic
_symmetry_space_group_name_H-M   'P 21/c'
_symmetry_Int_Tables_number      14
_space_group_name_Hall           '-P 2ybc'
loop_
_symmetry_equiv_pos_site_id
_symmetry_equiv_pos_as_xyz
1 x,y,z
2 -x,1/2+y,1/2-z
3 -x,-y,-z
4 x,1/2-y,1/2+z
_cell_length_a                   13.534(3)
_cell_length_b                   18.522(4)
_cell_length_c                   9.4377(19)
_cell_angle_alpha                90
_cell_angle_beta                 109.01(3)
_cell_angle_gamma                90
_cell_volume                     2236.78
loop_
_atom_site_label
_atom_site_type_symbol
_atom_site_fract_x
_atom_site_fract_y
_atom_site_fract_z
Zn1 Zn 0.20094(3) 0.420983(17) -0.22929(4)
O1 O 0.13825(17) 0.49046(11) -0.1232(3)
O2 O 0.26354(17) 0.56715(12) -0.1334(3)
O3 O -0.18751(18) 0.78332(12) -0.1103(3)
O4 O -0.09735(17) 0.84416(11) -0.2298(3)
N1 N 0.33301(19) 0.38169(13) -0.0858(3)
N2 N 0.43054(19) 0.32014(13) 0.1079(3)
N3 N 0.8097(2) 0.52911(14) 0.4216(3)
N4 N 0.8017(2) 0.44488(15) 0.5810(3)
C1 C 0.5026(2) 0.31529(16) 0.3817(3)
C2 C 0.6112(3) 0.32065(18) 0.4514(3)
C3 C 0.6502(3) 0.36838(18) 0.5727(4)
C4 C 0.5819(3) 0.40959(18) 0.6240(4)
C5 C 0.4744(3) 0.40077(19) 0.5549(4)
H1 H 0.4287 0.4265 0.5912
C6 C 0.4340(3) 0.35501(17) 0.4346(4)
C7 C 0.6849(3) 0.2750(2) 0.3982(5)
H2 H 0.6788 0.2254 0.4236
H3 H 0.7553 0.2911 0.4458
H4 H 0.6672 0.2795 0.2915
C8 C 0.6202(4) 0.4634(2) 0.7507(4)
H5 H 0.5641 0.4954 0.7498
H6 H 0.6768 0.4909 0.7381
H7 H 0.6438 0.4382 0.8446
C9 C 0.3167(3) 0.3505(2) 0.3660(4)
H8 H 0.2849 0.3620 0.4405
H9 H 0.2972 0.3024 0.3294
H10 H 0.2933 0.3841 0.2845
C10 C 0.4587(3) 0.27149(16) 0.2387(3)
H11 H 0.5104 0.2368 0.2309
H12 H 0.3973 0.2451 0.2411
C11 C 0.4949(3) 0.36776(18) 0.0689(4)
H13 H 0.5666 0.3731 0.1152
C12 C 0.4343(3) 0.40508(18) -0.0491(4)
H14 H 0.4575 0.4414 -0.0986
C13 C 0.3342(2) 0.33012(16) 0.0119(3)
H15 H 0.2757 0.3042 0.0134
C14 C 0.7666(3) 0.3805(2) 0.6447(4)
H16 H 0.7826 0.3869 0.7519
H17 H 0.8041 0.3383 0.6289
C15 C 0.8877(3) 0.4866(2) 0.6490(4)
H18 H 0.9349 0.4804 0.7450
C16 C 0.8908(3) 0.5381(2) 0.5511(4)
H19 H 0.9408 0.5744 0.5688
C17 C 0.7580(2) 0.47198(17) 0.4443(3)
H20 H 0.6985 0.4532 0.3735
C18 C 0.1754(2) 0.55368(17) -0.1248(3)
C19 C 0.1024(2) 0.61499(15) -0.1251(3)
C20 C 0.1072(2) 0.67717(17) -0.2024(4)
H21 H 0.1590 0.6819 -0.2467
C21 C 0.0370(2) 0.73236(16) -0.2155(4)
H22 H 0.0405 0.7732 -0.2708
C22 C -0.0389(2) 0.72780(15) -0.1471(3)
C23 C -0.0439(2) 0.66552(16) -0.0677(3)
H23 H -0.0941 0.6616 -0.0203
C24 C 0.0251(2) 0.60956(16) -0.0585(3)
H24 H 0.0197 0.5677 -0.0071
C25 C -0.1148(2) 0.78867(15) -0.1609(3)
Zn1A Zn -0.20094(3) 0.920983(17) -0.27071(4)
Zn1B Zn 0.79906(3) 0.579017(17) 0.22929(4)
O4A O 0.09735(17) 0.34416(11) -0.2702(3)
N3B N 0.1903(2) 0.47089(14) -0.4216(3)
loop_
_geom_bond_atom_site_label_1
_geom_bond_atom_site_label_2
_geom_bond_site_symmetry_1
_geom_bond_site_symmetry_2
Zn1 O1 1_555 1_555
O1 C18 1_555 1_555
O2 C18 1_555 1_555
O3 C25 1_555 1_555
O4 C25 1_555 1_555
N1 Zn1 1_555 1_555
N2 C10 1_555 1_555
N3 C16 1_555 1_555
N4 C14 1_555 1_555
C1 C2 1_555 1_555
C2 C3 1_555 1_555
C3 C4 1_555 1_555
C4 C5 1_555 1_555
C5 H1 1_555 1_555
C6 C1 1_555 1_555
C7 C2 1_555 1_555
H2 C7 1_555 1_555
H3 C7 1_555 1_555
H4 C7 1_555 1_555
C8 C4 1_555 1_555
H5 C8 1_555 1_555
H6 C8 1_555 1_555
H7 C8 1_555 1_555
C9 C6 1_555 1_555
H8 C9 1_555 1_555
H9 C9 1_555 1_555
H10 C9 1_555 1_555
C10 C1 1_555 1_555
H11 C10 1_555 1_555
H12 C10 1_555 1_555
C11 N2 1_555 1_555
H13 C11 1_555 1_555
C12 N1 1_555 1_555
H14 C12 1_555 1_555
C13 N1 1_555 1_555
H15 C13 1_555 1_555
C14 C3 1_555 1_555
H16 C14 1_555 1_555
H17 C14 1_555 1_555
C15 N4 1_555 1_555
H18 C15 1_555 1_555
C16 C15 1_555 1_555
H19 C16 1_555 1_555
C17 N3 1_555 1_555
H20 C17 1_555 1_555
C18 C19 1_555 1_555
C19 C20 1_555 1_555
C20 H21 1_555 1_555
C21 C20 1_555 1_555
H22 C21 1_555 1_555
C22 C21 1_555 1_555
C23 C22 1_555 1_555
H23 C23 1_555 1_555
C24 C19 1_555 1_555
H24 C24 1_555 1_555
C25 C22 1_555 1_555
Zn1A O4 1_555 1_555
Zn1B N3 1_555 1_555
O4A Zn1 1_555 1_555
N3B Zn1 1_555 1_555
N2 C13 1_555 1_555
N4 C17 1_555 1_555
C5 C6 1_555 1_555
C11 C12 1_555 1_555
C23 C24 1_555 1_555

#END
