
#######################################################################
#
#                 Cambridge Crystallographic Data Centre
#                                CCDC 
#
#######################################################################
#
# If this CIF has been generated from an entry in the Cambridge 
# Structural Database, then it will include bibliographic, chemical, 
# crystal, experimental, refinement or atomic coordinate data resulting 
# from the CCDC's data processing and validation procedures.
#
#######################################################################

data_DITWEK
_symmetry_cell_setting           orthorhombic
_symmetry_space_group_name_H-M   'P 21 21 21'
_symmetry_Int_Tables_number      19
_space_group_name_Hall           'P 2ac 2ab'
loop_
_symmetry_equiv_pos_site_id
_symmetry_equiv_pos_as_xyz
1 x,y,z
2 1/2-x,-y,1/2+z
3 -x,1/2+y,1/2-z
4 1/2+x,1/2-y,-z
_cell_length_a                   6.6020(8)
_cell_length_b                   9.8849(13)
_cell_length_c                   16.833(2)
_cell_angle_alpha                90
_cell_angle_beta                 90
_cell_angle_gamma                90
_cell_volume                     1098.52
loop_
_atom_site_label
_atom_site_type_symbol
_atom_site_fract_x
_atom_site_fract_y
_atom_site_fract_z
Er1 Er 1.00045(7) 1.041771(19) 0.617272(11)
N1 N 1.0015(13) 0.7961(4) 0.5776(2)
C1 C 0.992(2) 0.7651(5) 0.7199(3)
C2 C 1.0107(18) 0.8498(6) 0.3597(3)
H1 H 1.0018 0.7642 0.3370
C3 C 1.0125(16) 0.7540(5) 0.5011(3)
C4 C 0.9977(19) 0.7061(5) 0.6372(3)
C5 C 1.0052(18) 0.6156(5) 0.4832(3)
C6 C 1.0138(18) 0.8651(5) 0.4428(3)
O1 O 0.9957(19) 0.8897(4) 0.7245(2)
O2 O 0.988(2) 0.6837(4) 0.7771(2)
C7 C 1.0040(18) 0.5536(5) 0.4013(3)
C8 C 0.9721(18) 0.5699(6) 0.6236(4)
H2 H 0.9485 0.5102 0.6653
C9 C 0.983(3) 0.5242(6) 0.5457(4)
H3 H 0.9745 0.4321 0.5351
O3 O 0.7780(13) 1.2011(8) 0.5576(6)
O4 O 1.1648(9) 0.5268(8) 0.3700(4)
O5 O 0.8312(9) 0.5302(9) 0.3691(4)
C10 C 1.021(2) 0.9638(7) 0.3119(4)
H4 H 1.0887 0.9644 0.2634
C11 C 0.8077(12) 1.2136(7) 0.4701(4)
C12 C 0.9008(12) 1.0914(7) 0.4274(4)
C13 C 0.9172(13) 1.0837(8) 0.3438(4)
H5 H 0.8651 1.1507 0.3108
O6 O 0.6969(12) 1.2974(8) 0.4424(6)
N2 N 0.9430(8) 0.9873(6) 0.4752(3)
Er1B Er 0.99955(7) 0.541771(19) 0.882728(11)
Er1C Er 0.50045(7) 0.458229(19) 0.382728(11)
Er1C_2 Er 0.50045(7) 1.458229(19) 0.382728(11)
Er1C_3 Er 1.50045(7) 0.458229(19) 0.382728(11)
O2B O 1.012(2) 1.1837(4) 0.7229(2)
O4C O 0.6648(9) 0.9732(8) 0.6300(4)
O5C O 1.3312(9) 0.9698(9) 0.6309(4)
O6C O 1.1969(12) 1.2026(8) 0.5576(6)
loop_
_geom_bond_atom_site_label_1
_geom_bond_atom_site_label_2
_geom_bond_site_symmetry_1
_geom_bond_site_symmetry_2
Er1 N1 1_555 1_555
N1 C3 1_555 1_555
C1 C4 1_555 1_555
C2 H1 1_555 1_555
C3 C5 1_555 1_555
C4 N1 1_555 1_555
C5 C7 1_555 1_555
C6 C2 1_555 1_555
O1 Er1 1_555 1_555
O2 C1 1_555 1_555
C7 O4 1_555 1_555
C8 C4 1_555 1_555
H2 C8 1_555 1_555
C9 C5 1_555 1_555
H3 C9 1_555 1_555
O3 Er1 1_555 1_555
O4 Er1C_3 1_555 1_555
O5 C7 1_555 1_555
C10 C2 1_555 1_555
H4 C10 1_555 1_555
C11 O3 1_555 1_555
C12 C11 1_555 1_555
C13 C10 1_555 1_555
H5 C13 1_555 1_555
O6 C11 1_555 1_555
N2 Er1 1_555 1_555
Er1B O2 1_555 1_555
Er1C O5 1_555 1_555
Er1C_2 O6 1_555 1_555
O2B Er1 1_555 1_555
O4C Er1 1_555 1_555
O5C Er1 1_555 1_555
O6C Er1 1_555 1_555
C1 O1 1_555 1_555
C3 C6 1_555 1_555
C6 N2 1_555 1_555
C8 C9 1_555 1_555
C12 C13 1_555 1_555
C12 N2 1_555 1_555

#END
