
#######################################################################
#
#                 Cambridge Crystallographic Data Centre
#                                CCDC 
#
#######################################################################
#
# If this CIF has been generated from an entry in the Cambridge 
# Structural Database, then it will include bibliographic, chemical, 
# crystal, experimental, refinement or atomic coordinate data resulting 
# from the CCDC's data processing and validation procedures.
#
#######################################################################

data_DITWIO
_symmetry_cell_setting           orthorhombic
_symmetry_space_group_name_H-M   'P n a 21'
_symmetry_Int_Tables_number      33
_space_group_name_Hall           'P 2c -2n'
loop_
_symmetry_equiv_pos_site_id
_symmetry_equiv_pos_as_xyz
1 x,y,z
2 1/2-x,1/2+y,1/2+z
3 1/2+x,1/2-y,z
4 -x,-y,1/2+z
_cell_length_a                   25.7722(10)
_cell_length_b                   9.9450(3)
_cell_length_c                   14.9732(6)
_cell_angle_alpha                90
_cell_angle_beta                 90
_cell_angle_gamma                90
_cell_volume                     3837.7
loop_
_atom_site_label
_atom_site_type_symbol
_atom_site_fract_x
_atom_site_fract_y
_atom_site_fract_z
Ag1 Ag 0.41529(5) 0.23523(14) 0.53172(14)
Cu1 Cu 0.48436(7) 0.57871(15) 0.30154(19)
P1 P 0.32770(13) 0.2427(3) 0.5500(3)
P2 P 0.45276(12) 0.0399(3) 0.4810(3)
N1 N 0.4357(7) 0.3800(14) 0.4417(10)
N2 N 0.4499(6) 0.2888(14) 0.6456(10)
C1 C 0.3007(6) 0.4158(13) 0.5558(10)
C2 C 0.3333(6) 0.5209(15) 0.5627(15)
H1 H 0.3688 0.5050 0.5667
C3 C 0.3150(8) 0.6545(16) 0.5640(16)
H2 H 0.3383 0.7254 0.5702
C4 C 0.2640(9) 0.679(2) 0.5562(13)
H3 H 0.2513 0.7670 0.5541
C5 C 0.2311(8) 0.5709(15) 0.5514(13)
H4 H 0.1958 0.5881 0.5455
C6 C 0.2469(6) 0.4355(15) 0.5547(13)
H5 H 0.2234 0.3645 0.5560
C7 C 0.3002(5) 0.1631(13) 0.6463(10)
C8 C 0.2821(8) 0.2331(18) 0.7225(11)
H6 H 0.2828 0.3266 0.7222
C9 C 0.2635(11) 0.168(3) 0.7968(15)
H7 H 0.2520 0.2173 0.8459
C10 C 0.2618(8) 0.026(4) 0.7984(18)
H8 H 0.2469 -0.0189 0.8464
C11 C 0.2847(9) -0.052(2) 0.7211(16)
H9 H 0.2848 -0.1456 0.7207
C12 C 0.3045(8) 0.0170(15) 0.6544(14)
H10 H 0.3221 -0.0296 0.6100
C13 C 0.2906(5) 0.1719(13) 0.4577(11)
C14 C 0.3115(8) 0.1872(18) 0.3741(12)
H11 H 0.3436 0.2294 0.3703
C15 C 0.2876(10) 0.143(2) 0.2897(14)
H12 H 0.3026 0.1531 0.2337
C16 C 0.2397(8) 0.0831(19) 0.3049(14)
H13 H 0.2214 0.0520 0.2554
C17 C 0.2168(9) 0.0662(19) 0.3890(18)
H14 H 0.1845 0.0248 0.3933
C18 C 0.2417(9) 0.1105(18) 0.4663(16)
H15 H 0.2264 0.0997 0.5221
C19 C 0.4507(5) -0.1033(12) 0.5576(11)
C20 C 0.4367(7) -0.0786(15) 0.6455(12)
H16 H 0.4288 0.0085 0.6636
C21 C 0.4344(9) -0.183(2) 0.7064(13)
H17 H 0.4251 -0.1639 0.7651
C22 C 0.4445(8) -0.307(2) 0.6852(15)
H18 H 0.4409 -0.3751 0.7275
C23 C 0.4613(7) -0.3392(18) 0.5968(14)
H19 H 0.4705 -0.4263 0.5806
C24 C 0.4632(7) -0.2338(17) 0.5367(17)
H20 H 0.4735 -0.2524 0.4784
C25 C 0.4278(6) -0.0301(17) 0.3749(11)
C26 C 0.4449(8) 0.034(2) 0.2950(13)
H21 H 0.4698 0.1018 0.2970
C27 C 0.4237(13) -0.006(5) 0.2151(19)
H22 H 0.4337 0.0372 0.1627
C28 C 0.3862(10) -0.114(3) 0.2110(16)
H23 H 0.3722 -0.1390 0.1562
C29 C 0.3704(12) -0.181(4) 0.290(2)
H24 H 0.3491 -0.2563 0.2909
C30 C 0.3894(13) -0.124(4) 0.3635(17)
H25 H 0.3741 -0.1534 0.4163
C31 C 0.5220(5) 0.0552(17) 0.4578(13)
C32 C 0.5459(6) 0.170(2) 0.4869(14)
H26 H 0.5274 0.2330 0.5202
C33 C 0.6002(7) 0.194(3) 0.4659(14)
H27 H 0.6158 0.2750 0.4809
C34 C 0.6277(7) 0.097(3) 0.4245(18)
H28 H 0.6625 0.1121 0.4115
C35 C 0.6046(7) -0.024(3) 0.401(2)
H29 H 0.6241 -0.0937 0.3765
C36 C 0.5509(6) -0.038(2) 0.4149(19)
H30 H 0.5345 -0.1153 0.3937
C37 C 0.4506(8) 0.4520(19) 0.3926(16)
C38 C 0.4730(10) 0.3239(17) 0.7057(16)
Cu1C Cu 0.51564(7) 0.42129(15) 0.80154(19)
C38C C 0.5270(10) 0.6761(17) 0.2057(16)
loop_
_geom_bond_atom_site_label_1
_geom_bond_atom_site_label_2
_geom_bond_site_symmetry_1
_geom_bond_site_symmetry_2
Ag1 P1 1_555 1_555
Cu1 C37 1_555 1_555
P1 C1 1_555 1_555
P2 Ag1 1_555 1_555
N1 Ag1 1_555 1_555
N2 Ag1 1_555 1_555
C1 C2 1_555 1_555
C2 H1 1_555 1_555
C3 C2 1_555 1_555
H2 C3 1_555 1_555
C4 C3 1_555 1_555
H3 C4 1_555 1_555
C5 C4 1_555 1_555
H4 C5 1_555 1_555
C6 C1 1_555 1_555
H5 C6 1_555 1_555
C7 P1 1_555 1_555
C8 C7 1_555 1_555
H6 C8 1_555 1_555
C9 C8 1_555 1_555
H7 C9 1_555 1_555
C10 C9 1_555 1_555
H8 C10 1_555 1_555
C11 C10 1_555 1_555
H9 C11 1_555 1_555
C12 C7 1_555 1_555
H10 C12 1_555 1_555
C13 P1 1_555 1_555
C14 C13 1_555 1_555
H11 C14 1_555 1_555
C15 C14 1_555 1_555
H12 C15 1_555 1_555
C16 C15 1_555 1_555
H13 C16 1_555 1_555
C17 C16 1_555 1_555
H14 C17 1_555 1_555
C18 C13 1_555 1_555
H15 C18 1_555 1_555
C19 P2 1_555 1_555
C20 C19 1_555 1_555
H16 C20 1_555 1_555
C21 C20 1_555 1_555
H17 C21 1_555 1_555
C22 C21 1_555 1_555
H18 C22 1_555 1_555
C23 C22 1_555 1_555
H19 C23 1_555 1_555
C24 C19 1_555 1_555
H20 C24 1_555 1_555
C25 P2 1_555 1_555
C26 C25 1_555 1_555
H21 C26 1_555 1_555
C27 C26 1_555 1_555
H22 C27 1_555 1_555
C28 C27 1_555 1_555
H23 C28 1_555 1_555
C29 C28 1_555 1_555
H24 C29 1_555 1_555
C30 C25 1_555 1_555
H25 C30 1_555 1_555
C31 P2 1_555 1_555
C32 C31 1_555 1_555
H26 C32 1_555 1_555
C33 C32 1_555 1_555
H27 C33 1_555 1_555
C34 C33 1_555 1_555
H28 C34 1_555 1_555
C35 C34 1_555 1_555
H29 C35 1_555 1_555
C36 C31 1_555 1_555
H30 C36 1_555 1_555
C37 N1 1_555 1_555
C38 N2 1_555 1_555
Cu1C C38 1_555 1_555
C38C Cu1 1_555 1_555
C5 C6 1_555 1_555
C11 C12 1_555 1_555
C17 C18 1_555 1_555
C23 C24 1_555 1_555
C29 C30 1_555 1_555
C35 C36 1_555 1_555

#END
