
#######################################################################
#
#                 Cambridge Crystallographic Data Centre
#                                CCDC 
#
#######################################################################
#
# If this CIF has been generated from an entry in the Cambridge 
# Structural Database, then it will include bibliographic, chemical, 
# crystal, experimental, refinement or atomic coordinate data resulting 
# from the CCDC's data processing and validation procedures.
#
#######################################################################

data_DITYIQ
_symmetry_cell_setting           rhombohedral
_symmetry_space_group_name_H-M   'R -3'
_symmetry_Int_Tables_number      148
_space_group_name_Hall           '-R 3'
loop_
_symmetry_equiv_pos_site_id
_symmetry_equiv_pos_as_xyz
1 x,y,z
2 -y,x-y,z
3 -x+y,-x,z
4 2/3+x,1/3+y,1/3+z
5 2/3-y,1/3+x-y,1/3+z
6 2/3-x+y,1/3-x,1/3+z
7 1/3+x,2/3+y,2/3+z
8 1/3-y,2/3+x-y,2/3+z
9 1/3-x+y,2/3-x,2/3+z
10 -x,-y,-z
11 y,-x+y,-z
12 x-y,x,-z
13 1/3-x,2/3-y,2/3-z
14 1/3+y,2/3-x+y,2/3-z
15 1/3+x-y,2/3+x,2/3-z
16 2/3-x,1/3-y,1/3-z
17 2/3+y,1/3-x+y,1/3-z
18 2/3+x-y,1/3+x,1/3-z
_cell_length_a                   16.5929(16)
_cell_length_b                   16.5929(16)
_cell_length_c                   33.137(5)
_cell_angle_alpha                90
_cell_angle_beta                 90
_cell_angle_gamma                120
_cell_volume                     7901.12
loop_
_atom_site_label
_atom_site_type_symbol
_atom_site_fract_x
_atom_site_fract_y
_atom_site_fract_z
Cu1 Cu 0.49562(3) 1.02427(3) 0.949220(15)
O1 O 0.88115(16) 1.35669(17) 0.92501(8)
O2 O 0.9550(2) 1.3955(2) 0.86598(10)
O3 O 0.06045(17) 0.57915(17) 0.98118(9)
O4 O 0.1423(2) 0.6630(2) 0.92816(10)
N1 N 0.6313(2) 1.0963(2) 0.93291(11)
N2 N 0.6931(2) 1.0667(2) 0.94090(14)
N3 N 0.7567(2) 1.1804(2) 0.89996(11)
N4 N 0.7690(2) 1.1169(3) 0.92103(15)
N5 N 0.3579(2) 0.9338(2) 0.95209(11)
N6 N 0.2266(2) 0.8238(2) 0.97267(11)
N7 N 0.2909(2) 0.9572(2) 0.94526(15)
N8 N 0.2121(2) 0.8904(3) 0.95789(15)
C1 C 0.6724(3) 1.1668(3) 0.90835(13)
H1 H 0.6470 1.2016 0.8984
C2 C 0.8293(3) 1.2452(3) 0.87235(15)
H2 H 0.7994 1.2520 0.8485
H3 H 0.8661 1.2176 0.8639
C3 C 0.8952(2) 1.3421(3) 0.88910(13)
C4 C 0.3156(3) 0.8512(3) 0.96891(13)
H4 H 0.3439 0.8175 0.9769
C5 C 0.1538(3) 0.7393(3) 0.99097(14)
H5 H 0.1024 0.7484 0.9983
H6 H 0.1776 0.7269 1.0156
C6 C 0.1182(2) 0.6557(3) 0.96302(14)
Cu1A Cu -0.02427(3) 0.47135(4) 0.949220(15)
Cu1A_2 Cu 0.97573(3) 1.47135(4) 0.949220(15)
Cu1J Cu 0.02427(3) 0.52865(4) 1.050780(15)
O1B O 0.47554(23) 1.11885(16) 0.92501(8)
O3B O 0.51870(24) 0.93955(17) 0.98118(9)
O3K O 0.48130(24) 1.06045(17) 1.01882(9)
Br1 Br 0.3333 0.6667 1.01655(3)
Br2 Br 1.6667 1.3333 0.8333
O5 O 1.3333 1.6667 0.8925(8)
O6 O 1.116(2) 1.5557(11) 0.8578(4)
loop_
_geom_bond_atom_site_label_1
_geom_bond_atom_site_label_2
_geom_bond_site_symmetry_1
_geom_bond_site_symmetry_2
Cu1 N1 1_555 1_555
O1 C3 1_555 1_555
O2 C3 1_555 1_555
O3 C6 1_555 1_555
O4 C6 1_555 1_555
N1 N2 1_555 1_555
N2 N4 1_555 1_555
N3 N4 1_555 1_555
N5 Cu1 1_555 1_555
N6 N8 1_555 1_555
N7 N5 1_555 1_555
N8 N7 1_555 1_555
C1 N1 1_555 1_555
H1 C1 1_555 1_555
C2 N3 1_555 1_555
H2 C2 1_555 1_555
H3 C2 1_555 1_555
C3 C2 1_555 1_555
C4 N5 1_555 1_555
H4 C4 1_555 1_555
C5 N6 1_555 1_555
H5 C5 1_555 1_555
H6 C5 1_555 1_555
C6 C5 1_555 1_555
Cu1A O3 1_555 1_555
Cu1A_2 O1 1_555 1_555
Cu1J O3 1_555 1_555
O1B Cu1 1_555 1_555
O3B Cu1 1_555 1_555
O3K Cu1 1_555 1_555
N3 C1 1_555 1_555
N6 C4 1_555 1_555

#END
