
#######################################################################
#
#                 Cambridge Crystallographic Data Centre
#                                CCDC 
#
#######################################################################
#
# If this CIF has been generated from an entry in the Cambridge 
# Structural Database, then it will include bibliographic, chemical, 
# crystal, experimental, refinement or atomic coordinate data resulting 
# from the CCDC's data processing and validation procedures.
#
#######################################################################

data_DITYEL
_symmetry_cell_setting           orthorhombic
_symmetry_space_group_name_H-M   'P n a 21'
_symmetry_Int_Tables_number      33
_space_group_name_Hall           'P 2c -2n'
loop_
_symmetry_equiv_pos_site_id
_symmetry_equiv_pos_as_xyz
1 x,y,z
2 1/2-x,1/2+y,1/2+z
3 1/2+x,1/2-y,z
4 -x,-y,1/2+z
_cell_length_a                   16.0791(2)
_cell_length_b                   10.1956(2)
_cell_length_c                   18.9341(3)
_cell_angle_alpha                90
_cell_angle_beta                 90
_cell_angle_gamma                90
_cell_volume                     3103.98
loop_
_atom_site_label
_atom_site_type_symbol
_atom_site_fract_x
_atom_site_fract_y
_atom_site_fract_z
Ni1 Ni 0.875503(19) 0.74449(3) 0.99624(4)
N1 N 0.78570(10) 0.79541(19) 1.07555(10)
N2 N 0.20315(10) 0.39807(19) 1.45114(10)
C1 C 0.79258(17) 0.7467(2) 1.14160(15)
H1 H 0.8386 0.6916 1.1520
C2 C 0.73607(15) 0.7729(3) 1.19502(15)
H2 H 0.7433 0.7351 1.2405
C3 C 0.66852(12) 0.8550(2) 1.18169(12)
C4 C 0.66248(13) 0.9075(2) 1.11408(12)
H3 H 0.6182 0.9655 1.1027
C5 C 0.72085(12) 0.8755(2) 1.06349(13)
H4 H 0.7149 0.9121 1.0176
C6 C 0.60447(14) 0.8822(2) 1.23793(13)
H5 H 0.5707 0.9590 1.2237
H6 H 0.6331 0.9044 1.2826
C7 C 0.54673(16) 0.7644(2) 1.25043(17)
H7 H 0.5150 0.7457 1.2067
H8 H 0.5805 0.6861 1.2619
C8 C 0.48642(15) 0.7919(3) 1.31063(15)
H9 H 0.4539 0.8716 1.2992
H10 H 0.5186 0.8102 1.3541
C9 C 0.42623(13) 0.6787(2) 1.32511(13)
H11 H 0.3907 0.6643 1.2831
H12 H 0.4582 0.5973 1.3338
C10 C 0.37150(12) 0.7082(3) 1.38900(15)
H13 H 0.4077 0.7268 1.4301
H14 H 0.3386 0.7882 1.3792
C11 C 0.31266(13) 0.5979(2) 1.40803(12)
C12 C 0.34047(13) 0.4714(2) 1.42172(13)
H15 H 0.3978 0.4508 1.4166
C13 C 0.28530(13) 0.3760(2) 1.44258(13)
H16 H 0.3060 0.2903 1.4514
C14 C 0.17578(13) 0.5186(2) 1.43577(13)
H17 H 0.1179 0.5356 1.4396
C15 C 0.22705(13) 0.6195(2) 1.41475(14)
H18 H 0.2044 0.7035 1.4048
N3 N 0.96482(10) 0.69291(19) 0.91728(10)
N4 N 1.54636(10) 0.38477(19) 0.54320(10)
C16 C 0.95138(17) 0.7297(3) 0.85072(15)
H19 H 0.8998 0.7700 0.8396
C17 C 1.00882(15) 0.7122(3) 0.79675(14)
H20 H 0.9961 0.7404 0.7502
C18 C 1.08502(13) 0.6533(2) 0.81113(13)
C19 C 1.09716(13) 0.6083(2) 0.87955(13)
H21 H 1.1467 0.5627 0.8914
C20 C 1.03695(12) 0.6301(2) 0.93036(12)
H22 H 1.0469 0.5991 0.9769
C21 C 1.15151(13) 0.6430(2) 0.75527(13)
H23 H 1.1255 0.6441 0.7079
H24 H 1.1817 0.5590 0.7607
C22 C 1.21233(18) 0.7566(2) 0.76171(18)
H25 H 1.2478 0.7424 0.8037
H26 H 1.1806 0.8387 0.7692
C23 C 1.26789(18) 0.7730(3) 0.69697(17)
H27 H 1.2320 0.7918 0.6557
H28 H 1.3038 0.8506 0.7045
C24 C 1.32307(13) 0.6568(2) 0.67900(13)
H29 H 1.2880 0.5789 0.6697
H30 H 1.3596 0.6367 0.7197
C25 C 1.37669(12) 0.6865(3) 0.61379(15)
H31 H 1.3393 0.7043 0.5734
H32 H 1.4089 0.7675 0.6230
C26 C 1.43633(13) 0.5800(2) 0.59277(12)
C27 C 1.51914(14) 0.6075(2) 0.57640(14)
H33 H 1.5400 0.6941 0.5818
C28 C 1.57035(13) 0.5094(2) 0.55244(14)
H34 H 1.6264 0.5314 0.5417
C29 C 1.46745(12) 0.3573(2) 0.56181(12)
H35 H 1.4490 0.2691 0.5578
C30 C 1.41194(13) 0.4497(2) 0.58630(12)
H36 H 1.3570 0.4244 0.5988
N5 N 0.84084(11) 0.9845(2) 0.89797(12)
O1 O 0.81472(9) 0.87964(15) 0.92951(8)
O2 O 0.91531(10) 1.00880(19) 0.89578(11)
O3 O 0.78794(10) 1.05503(18) 0.87013(12)
N6 N 0.91752(12) 0.4979(2) 1.08513(11)
O4 O 0.93702(9) 0.61242(15) 1.06326(9)
O5 O 0.97460(10) 0.42532(17) 1.10498(13)
O6 O 0.84398(10) 0.46341(19) 1.08820(10)
Ni1C Ni 0.124497(19) 0.25551(3) 1.49624(4)
Ni1A Ni 1.624497(19) 0.24449(3) 0.49624(4)
N2C N 0.79685(10) 0.60193(19) 0.95114(10)
N4A N 0.95364(10) 0.88477(19) 1.04320(10)
loop_
_geom_bond_atom_site_label_1
_geom_bond_atom_site_label_2
_geom_bond_site_symmetry_1
_geom_bond_site_symmetry_2
Ni1 N1 1_555 1_555
N1 C1 1_555 1_555
N2 C13 1_555 1_555
C1 H1 1_555 1_555
C2 C1 1_555 1_555
H2 C2 1_555 1_555
C3 C2 1_555 1_555
C4 C3 1_555 1_555
H3 C4 1_555 1_555
C5 N1 1_555 1_555
H4 C5 1_555 1_555
C6 C3 1_555 1_555
H5 C6 1_555 1_555
H6 C6 1_555 1_555
C7 C6 1_555 1_555
H7 C7 1_555 1_555
H8 C7 1_555 1_555
C8 C7 1_555 1_555
H9 C8 1_555 1_555
H10 C8 1_555 1_555
C9 C8 1_555 1_555
H11 C9 1_555 1_555
H12 C9 1_555 1_555
C10 C9 1_555 1_555
H13 C10 1_555 1_555
H14 C10 1_555 1_555
C11 C10 1_555 1_555
C12 C11 1_555 1_555
H15 C12 1_555 1_555
C13 C12 1_555 1_555
H16 C13 1_555 1_555
C14 N2 1_555 1_555
H17 C14 1_555 1_555
C15 C11 1_555 1_555
H18 C15 1_555 1_555
N3 Ni1 1_555 1_555
N4 C28 1_555 1_555
C16 N3 1_555 1_555
H19 C16 1_555 1_555
C17 C16 1_555 1_555
H20 C17 1_555 1_555
C18 C17 1_555 1_555
C19 C18 1_555 1_555
H21 C19 1_555 1_555
C20 N3 1_555 1_555
H22 C20 1_555 1_555
C21 C18 1_555 1_555
H23 C21 1_555 1_555
H24 C21 1_555 1_555
C22 C21 1_555 1_555
H25 C22 1_555 1_555
H26 C22 1_555 1_555
C23 C22 1_555 1_555
H27 C23 1_555 1_555
H28 C23 1_555 1_555
C24 C23 1_555 1_555
H29 C24 1_555 1_555
H30 C24 1_555 1_555
C25 C24 1_555 1_555
H31 C25 1_555 1_555
H32 C25 1_555 1_555
C26 C25 1_555 1_555
C27 C26 1_555 1_555
H33 C27 1_555 1_555
C28 C27 1_555 1_555
H34 C28 1_555 1_555
C29 N4 1_555 1_555
H35 C29 1_555 1_555
C30 C26 1_555 1_555
H36 C30 1_555 1_555
N5 O1 1_555 1_555
O1 Ni1 1_555 1_555
O2 N5 1_555 1_555
O3 N5 1_555 1_555
N6 O4 1_555 1_555
O4 Ni1 1_555 1_555
O5 N6 1_555 1_555
O6 N6 1_555 1_555
Ni1C N2 1_555 1_555
Ni1A N4 1_555 1_555
N2C Ni1 1_555 1_555
N4A Ni1 1_555 1_555
C4 C5 1_555 1_555
C14 C15 1_555 1_555
C19 C20 1_555 1_555
C29 C30 1_555 1_555

#END
