
#######################################################################
#
#                 Cambridge Crystallographic Data Centre
#                                CCDC 
#
#######################################################################
#
# If this CIF has been generated from an entry in the Cambridge 
# Structural Database, then it will include bibliographic, chemical, 
# crystal, experimental, refinement or atomic coordinate data resulting 
# from the CCDC's data processing and validation procedures.
#
#######################################################################

data_DITZIQ01
_symmetry_cell_setting           monoclinic
_symmetry_space_group_name_H-M   'P 21/c'
_symmetry_Int_Tables_number      14
_space_group_name_Hall           '-P 2ybc'
loop_
_symmetry_equiv_pos_site_id
_symmetry_equiv_pos_as_xyz
1 x,y,z
2 -x,1/2+y,1/2-z
3 -x,-y,-z
4 x,1/2-y,1/2+z
_cell_length_a                   9.2844(12)
_cell_length_b                   14.2315(18)
_cell_length_c                   10.5608(13)
_cell_angle_alpha                90
_cell_angle_beta                 95.654(2)
_cell_angle_gamma                90
_cell_volume                     1388.62
loop_
_atom_site_label
_atom_site_type_symbol
_atom_site_fract_x
_atom_site_fract_y
_atom_site_fract_z
Eu1 Eu 0.37540(2) 0.366539(12) 0.029997(16)
O1 O 0.2307(3) 0.33098(19) 0.2065(2)
O2 O 0.3499(3) 0.26456(18) 0.3784(2)
O3 O -0.2527(3) 0.01437(19) 0.4628(3)
O4 O -0.3919(3) 0.14410(19) 0.4527(2)
O5 O 0.3402(3) 0.4242(2) -0.1818(2)
O6 O 0.4820(3) 0.5499(2) -0.1836(3)
O7 O 0.4905(4) 0.2372(2) 0.1497(3)
N1 N 0.1116(3) 0.1765(2) 0.4355(3)
N2 N 0.3431(5) 0.5994(3) -0.5621(3)
C1 C 0.2360(4) 0.2843(2) 0.3078(3)
C2 C 0.0965(4) 0.2450(3) 0.3470(3)
C3 C -0.0380(4) 0.2758(3) 0.2952(3)
H1 H -0.0455 0.3240 0.2354
C4 C -0.1613(4) 0.2340(3) 0.3338(3)
H2 H -0.2526 0.2560 0.3036
C5 C -0.1472(4) 0.1592(3) 0.4174(3)
C6 C -0.0075(4) 0.1334(3) 0.4664(3)
H3 H 0.0029 0.0837 0.5236
C7 C -0.2750(4) 0.1006(3) 0.4480(3)
C8 C 0.3891(5) 0.4942(3) -0.2343(4)
C9 C 0.3298(4) 0.5128(3) -0.3691(3)
C10 C 0.2162(5) 0.4609(3) -0.4266(4)
H4 H 0.1727 0.4146 -0.3813
C11 C 0.1680(5) 0.4785(3) -0.5509(4)
H5 H 0.0917 0.4443 -0.5917
C12 C 0.2350(6) 0.5477(3) -0.6139(4)
H6 H 0.2021 0.5588 -0.6986
C13 C 0.3889(5) 0.5817(3) -0.4409(4)
H7 H 0.4646 0.6176 -0.4024
H8 H 0.471(5) 0.230(3) 0.2261(17)
H9 H 0.539(5) 0.193(2) 0.120(3)
Eu1C Eu 0.37540(2) 0.133461(12) 0.529997(16)
Eu1A Eu -0.37540(2) -0.133461(12) 0.470003(16)
Eu1C_2 Eu -0.62460(2) 0.133461(12) 0.529997(16)
Eu1B Eu 0.62460(2) 0.633461(12) -0.029997(16)
O2C O 0.3499(3) 0.23544(18) -0.1216(2)
O3A O 0.2527(3) 0.51437(19) 0.0372(3)
O4C O 0.6081(3) 0.35590(19) -0.0473(2)
O6B O 0.5180(3) 0.4501(2) 0.1836(3)
N1C N 0.1116(3) 0.3235(2) -0.0645(3)
loop_
_geom_bond_atom_site_label_1
_geom_bond_atom_site_label_2
_geom_bond_site_symmetry_1
_geom_bond_site_symmetry_2
Eu1 O1 1_555 1_555
O1 C1 1_555 1_555
O2 C1 1_555 1_555
O3 C7 1_555 1_555
O4 C7 1_555 1_555
O5 Eu1 1_555 1_555
O6 C8 1_555 1_555
O7 Eu1 1_555 1_555
N1 C2 1_555 1_555
N2 C12 1_555 1_555
C1 C2 1_555 1_555
C2 C3 1_555 1_555
C3 H1 1_555 1_555
C4 C3 1_555 1_555
H2 C4 1_555 1_555
C5 C4 1_555 1_555
C6 N1 1_555 1_555
H3 C6 1_555 1_555
C7 C5 1_555 1_555
C8 O5 1_555 1_555
C9 C8 1_555 1_555
C10 C9 1_555 1_555
H4 C10 1_555 1_555
C11 C10 1_555 1_555
H5 C11 1_555 1_555
C12 C11 1_555 1_555
H6 C12 1_555 1_555
C13 N2 1_555 1_555
H7 C13 1_555 1_555
H8 O7 1_555 1_555
H9 O7 1_555 1_555
Eu1C O2 1_555 1_555
Eu1A O3 1_555 1_555
Eu1C_2 O4 1_555 1_555
Eu1B O6 1_555 1_555
O2C Eu1 1_555 1_555
O3A Eu1 1_555 1_555
O4C Eu1 1_555 1_555
O6B Eu1 1_555 1_555
N1C Eu1 1_555 1_555
N1 Eu1C 1_555 1_555
C5 C6 1_555 1_555
C9 C13 1_555 1_555

#END
