
#######################################################################
#
#                 Cambridge Crystallographic Data Centre
#                                CCDC 
#
#######################################################################
#
# If this CIF has been generated from an entry in the Cambridge 
# Structural Database, then it will include bibliographic, chemical, 
# crystal, experimental, refinement or atomic coordinate data resulting 
# from the CCDC's data processing and validation procedures.
#
#######################################################################

data_DITZEM01
_symmetry_cell_setting           monoclinic
_symmetry_space_group_name_H-M   'P 21/c'
_symmetry_Int_Tables_number      14
_space_group_name_Hall           '-P 2ybc'
loop_
_symmetry_equiv_pos_site_id
_symmetry_equiv_pos_as_xyz
1 x,y,z
2 -x,1/2+y,1/2-z
3 -x,-y,-z
4 x,1/2-y,1/2+z
_cell_length_a                   9.338(2)
_cell_length_b                   14.307(3)
_cell_length_c                   10.552(2)
_cell_angle_alpha                90
_cell_angle_beta                 95.29(3)
_cell_angle_gamma                90
_cell_volume                     1403.73
loop_
_atom_site_label
_atom_site_type_symbol
_atom_site_fract_x
_atom_site_fract_y
_atom_site_fract_z
Nd1 Nd 0.624727(11) 0.132676(8) 0.968341(10)
C1 C 0.7649(2) 0.28591(15) 1.1895(2)
C2 C 0.9044(2) 0.24656(15) 1.1500(2)
C3 C 1.0378(2) 0.27786(17) 1.2014(2)
C4 C 1.1603(2) 0.23586(17) 1.1639(2)
C5 C 1.1459(2) 0.15953(17) 1.0823(2)
C6 C 1.0086(2) 0.13432(15) 1.0333(2)
C7 C 1.2740(2) 0.10282(17) 1.0514(2)
C8 C 0.3872(2) -0.00865(16) 0.7641(2)
C9 C 0.3299(3) 0.01239(16) 0.6303(2)
C10 C 0.2169(3) -0.03816(18) 0.5711(2)
C11 C 0.1692(3) -0.0178(2) 0.4475(3)
C12 C 0.2381(4) 0.0506(2) 0.3859(3)
C13 C 0.3903(3) 0.08265(19) 0.5604(3)
N1 N 0.88980(19) 0.17793(13) 1.06357(18)
N2 N 0.3468(3) 0.10046(18) 0.4401(2)
O1 O 0.65342(16) 0.26687(11) 1.11829(16)
O2 O 0.5062(2) 0.26128(13) 0.84541(17)
H1 H 0.5386 0.2815 0.7775
H2 H 0.4636 0.2992 0.8719
O3 O 0.77074(17) 0.33262(12) 1.28914(15)
O4 O 1.25189(18) 0.01738(12) 1.03430(18)
O5 O 1.39078(18) 0.14474(13) 1.04854(18)
O6 O 0.4793(2) 0.04486(14) 0.81748(18)
O7 O 0.3379(2) -0.07907(13) 0.81346(17)
H3 H 1.041(3) 0.330(2) 1.264(3)
H4 H 1.249(3) 0.257(2) 1.195(3)
H5 H 0.995(3) 0.0866(19) 0.978(2)
H6 H 0.464(3) 0.114(2) 0.595(3)
H7 H 0.176(4) -0.086(3) 0.616(3)
H8 H 0.094(3) -0.046(2) 0.409(3)
H9 H 0.214(4) 0.062(3) 0.306(4)
Nd1C Nd 0.624727(11) 0.367324(8) 1.468341(10)
Nd1B Nd 1.375273(11) -0.132676(8) 1.031659(10)
Nd1_2 Nd 1.624727(11) 0.132676(8) 0.968341(10)
Nd1B_2 Nd 0.375273(11) -0.132676(8) 1.031659(10)
O3C O 0.77074(17) 0.16738(12) 0.78914(15)
O4B O 0.74811(18) -0.01738(12) 0.96570(18)
O5_2 O 0.39078(18) 0.14474(13) 1.04854(18)
O7B O 0.6621(2) 0.07907(13) 1.18654(17)
loop_
_geom_bond_atom_site_label_1
_geom_bond_atom_site_label_2
_geom_bond_site_symmetry_1
_geom_bond_site_symmetry_2
Nd1 N1 1_555 1_555
C1 C2 1_555 1_555
C2 C3 1_555 1_555
C3 C4 1_555 1_555
C4 C5 1_555 1_555
C5 C6 1_555 1_555
C6 N1 1_555 1_555
C7 C5 1_555 1_555
C8 C9 1_555 1_555
C9 C10 1_555 1_555
C10 C11 1_555 1_555
C11 C12 1_555 1_555
C12 N2 1_555 1_555
C13 C9 1_555 1_555
N1 C2 1_555 1_555
N2 C13 1_555 1_555
O1 Nd1 1_555 1_555
O2 Nd1 1_555 1_555
H1 O2 1_555 1_555
H2 O2 1_555 1_555
O3 C1 1_555 1_555
O4 C7 1_555 1_555
O5 C7 1_555 1_555
O6 Nd1 1_555 1_555
O7 C8 1_555 1_555
H3 C3 1_555 1_555
H4 C4 1_555 1_555
H5 C6 1_555 1_555
H6 C13 1_555 1_555
H7 C10 1_555 1_555
H8 C11 1_555 1_555
H9 C12 1_555 1_555
Nd1C O3 1_555 1_555
Nd1B O4 1_555 1_555
Nd1_2 O5 1_555 1_555
Nd1B_2 O7 1_555 1_555
O3C Nd1 1_555 1_555
O4B Nd1 1_555 1_555
O5_2 Nd1 1_555 1_555
O7B Nd1 1_555 1_555
C1 O1 1_555 1_555
C8 O6 1_555 1_555

#END
