
#######################################################################
#
#                 Cambridge Crystallographic Data Centre
#                                CCDC 
#
#######################################################################
#
# If this CIF has been generated from an entry in the Cambridge 
# Structural Database, then it will include bibliographic, chemical, 
# crystal, experimental, refinement or atomic coordinate data resulting 
# from the CCDC's data processing and validation procedures.
#
#######################################################################

data_DIVFIZ
_symmetry_cell_setting           triclinic
_symmetry_space_group_name_H-M   'P -1'
_symmetry_Int_Tables_number      2
_space_group_name_Hall           '-P 1'
loop_
_symmetry_equiv_pos_site_id
_symmetry_equiv_pos_as_xyz
1 x,y,z
2 -x,-y,-z
_cell_length_a                   8.9084(18)
_cell_length_b                   8.9540(18)
_cell_length_c                   9.3195(19)
_cell_angle_alpha                85.54(3)
_cell_angle_beta                 71.85(3)
_cell_angle_gamma                60.93(3)
_cell_volume                     614.976
loop_
_atom_site_label
_atom_site_type_symbol
_atom_site_fract_x
_atom_site_fract_y
_atom_site_fract_z
Co1 Co 1.5000 0.0000 0.5000
S1 S 0.63595(7) 0.51292(7) 0.62841(5)
N1 N 1.2626(2) 0.0951(2) 0.43045(18)
N2 N 0.4265(2) 0.4183(2) 0.8410(2)
O1 O 0.41435(19) 0.85589(19) 0.65111(15)
O2 O 0.2600(2) 1.0121(2) 0.87574(16)
O3 O 1.34982(19) 0.2057(2) 0.67438(16)
H1 H 1.307(3) 0.162(3) 0.7507(18)
H2 H 1.392(3) 0.265(3) 0.695(2)
C1 C 1.0974(3) 0.1544(3) 0.5334(2)
H3 H 1.0887 0.1511 0.6356
C2 C 1.2725(3) 0.1008(3) 0.2835(2)
H4 H 1.3857 0.0608 0.2109
C3 C 1.1232(3) 0.1632(3) 0.2349(2)
H5 H 1.1357 0.1633 0.1320
C4 C 0.9545(3) 0.2256(3) 0.3425(2)
H6 H 0.8514 0.2711 0.3127
C5 C 0.9397(3) 0.2201(3) 0.4957(2)
C6 C 0.7582(3) 0.2793(3) 0.6145(2)
H7 H 0.7736 0.2393 0.7113
H8 H 0.6914 0.2338 0.5862
C7 C 0.4475(3) 0.5532(3) 0.7895(2)
C8 C 0.3280(3) 0.7206(3) 0.8613(2)
C9 C 0.1904(3) 0.7425(3) 0.9936(2)
H9 H 0.1112 0.8510 1.0447
C10 C 0.1705(3) 0.6027(3) 1.0499(2)
H10 H 0.0797 0.6150 1.1390
C11 C 0.2912(3) 0.4443(3) 0.9685(2)
H11 H 0.2775 0.3504 1.0045
C12 C 0.3353(3) 0.8755(3) 0.7926(2)
S1A S 1.36405(7) 0.48708(7) 0.37159(5)
N1A N 0.7374(2) 0.9049(2) 0.56955(18)
N2A N 1.5735(2) 0.5817(2) 0.1590(2)
O1A O 1.58565(19) 0.14411(19) 0.34889(15)
O2A O 1.7400(2) -0.0121(2) 0.12426(16)
C1A C 0.9026(3) 0.8456(3) 0.4666(2)
H3A H 0.9113 0.8489 0.3644
C2A C 0.7275(3) 0.8992(3) 0.7165(2)
H4A H 0.6143 0.9392 0.7891
C3A C 0.8768(3) 0.8368(3) 0.7651(2)
H5A H 0.8643 0.8367 0.8680
C4A C 1.0455(3) 0.7744(3) 0.6575(2)
H6A H 1.1486 0.7289 0.6873
C5A C 1.0603(3) 0.7799(3) 0.5043(2)
C6A C 1.2418(3) 0.7207(3) 0.3855(2)
H7A H 1.2264 0.7607 0.2887
H8A H 1.3086 0.7662 0.4138
C7A C 1.5525(3) 0.4468(3) 0.2105(2)
C8A C 1.6720(3) 0.2794(3) 0.1387(2)
C9A C 1.8096(3) 0.2575(3) 0.0064(2)
H9A H 1.8888 0.1490 -0.0447
C10A C 1.8295(3) 0.3973(3) -0.0499(2)
H10A H 1.9203 0.3850 -0.1390
C11A C 1.7088(3) 0.5557(3) 0.0315(2)
H11A H 1.7225 0.6496 -0.0045
C12A C 1.6647(3) 0.1245(3) 0.2074(2)
O3A O 1.65018(19) -0.2057(2) 0.32562(16)
H1A H 1.693(3) -0.162(3) 0.2493(18)
H2A H 1.608(3) -0.265(3) 0.305(2)
Co1_2 Co 0.5000 1.0000 0.5000
N1A_2 N 1.7374(2) -0.0951(2) 0.56955(18)
O1_2 O 1.41435(19) -0.14411(19) 0.65111(15)
loop_
_geom_bond_atom_site_label_1
_geom_bond_atom_site_label_2
_geom_bond_site_symmetry_1
_geom_bond_site_symmetry_2
Co1 N1 1_555 1_555
S1 C6 1_555 1_555
N1 C1 1_555 1_555
N2 C7 1_555 1_555
O1 C12 1_555 1_555
O2 C12 1_555 1_555
O3 Co1 1_555 1_555
H1 O3 1_555 1_555
H2 O3 1_555 1_555
C1 H3 1_555 1_555
C2 N1 1_555 1_555
H4 C2 1_555 1_555
C3 C2 1_555 1_555
H5 C3 1_555 1_555
C4 C3 1_555 1_555
H6 C4 1_555 1_555
C5 C1 1_555 1_555
C6 C5 1_555 1_555
H7 C6 1_555 1_555
H8 C6 1_555 1_555
C7 S1 1_555 1_555
C8 C7 1_555 1_555
C9 C8 1_555 1_555
H9 C9 1_555 1_555
C10 C9 1_555 1_555
H10 C10 1_555 1_555
C11 N2 1_555 1_555
H11 C11 1_555 1_555
C12 C8 1_555 1_555
S1A C6A 1_555 1_555
N1A C1A 1_555 1_555
N2A C7A 1_555 1_555
O1A Co1 1_555 1_555
O2A C12A 1_555 1_555
C1A H3A 1_555 1_555
C2A N1A 1_555 1_555
H4A C2A 1_555 1_555
C3A C2A 1_555 1_555
H5A C3A 1_555 1_555
C4A C3A 1_555 1_555
H6A C4A 1_555 1_555
C5A C1A 1_555 1_555
C6A C5A 1_555 1_555
H7A C6A 1_555 1_555
H8A C6A 1_555 1_555
C7A S1A 1_555 1_555
C8A C7A 1_555 1_555
C9A C8A 1_555 1_555
H9A C9A 1_555 1_555
C10A C9A 1_555 1_555
H10A C10A 1_555 1_555
C11A N2A 1_555 1_555
H11A C11A 1_555 1_555
C12A O1A 1_555 1_555
O3A Co1 1_555 1_555
H1A O3A 1_555 1_555
H2A O3A 1_555 1_555
Co1_2 O1 1_555 1_555
N1A_2 Co1 1_555 1_555
O1_2 Co1 1_555 1_555
C4 C5 1_555 1_555
C10 C11 1_555 1_555
N1A Co1_2 1_555 1_555
C4A C5A 1_555 1_555
C8A C12A 1_555 1_555
C10A C11A 1_555 1_555

#END
