
#######################################################################
#
#                 Cambridge Crystallographic Data Centre
#                                CCDC 
#
#######################################################################
#
# If this CIF has been generated from an entry in the Cambridge 
# Structural Database, then it will include bibliographic, chemical, 
# crystal, experimental, refinement or atomic coordinate data resulting 
# from the CCDC's data processing and validation procedures.
#
#######################################################################

data_DIVHOH
_symmetry_cell_setting           orthorhombic
_symmetry_space_group_name_H-M   'P 21 21 21'
_symmetry_Int_Tables_number      19
_space_group_name_Hall           'P 2ac 2ab'
loop_
_symmetry_equiv_pos_site_id
_symmetry_equiv_pos_as_xyz
1 x,y,z
2 1/2-x,-y,1/2+z
3 -x,1/2+y,1/2-z
4 1/2+x,1/2-y,-z
_cell_length_a                   12.540(3)
_cell_length_b                   13.000(3)
_cell_length_c                   24.158(5)
_cell_angle_alpha                90
_cell_angle_beta                 90
_cell_angle_gamma                90
_cell_volume                     3938.24
loop_
_atom_site_label
_atom_site_type_symbol
_atom_site_fract_x
_atom_site_fract_y
_atom_site_fract_z
C1 C 0.6032(14) -0.1520(10) 1.0802(6)
H1 H 0.6700 -0.1251 1.0887
C2 C 0.5616(19) -0.2290(12) 1.1111(7)
H2 H 0.5977 -0.2509 1.1426
C3 C 0.469(2) -0.2743(16) 1.0972(10)
H3 H 0.4444 -0.3298 1.1179
C4 C 0.410(2) -0.2393(15) 1.0525(10)
H4 H 0.3469 -0.2712 1.0417
C5 C 0.4511(12) -0.1515(10) 1.0238(7)
C6 C 0.3957(11) -0.1006(12) 0.9788(6)
C7 C 0.2886(12) -0.1225(15) 0.9640(9)
H5 H 0.2486 -0.1717 0.9827
C8 C 0.2456(15) -0.0656(15) 0.9191(9)
H6 H 0.1763 -0.0787 0.9073
C9 C 0.3042(14) 0.0078(12) 0.8932(8)
H7 H 0.2757 0.0472 0.8647
C10 C 0.4056(13) 0.0210(11) 0.9104(7)
H8 H 0.4460 0.0708 0.8923
C11 C 0.8247(10) 0.0364(8) 0.9837(5)
C12 C 0.9343(10) 0.0570(9) 1.0045(5)
H9 H 0.9570 0.0010 1.0290
C13 C 1.0146(10) 0.0678(10) 0.9554(6)
H10 H 1.0611 0.0083 0.9538
H11 H 0.9764 0.0730 0.9206
C14 C 1.0803(11) 0.1660(10) 0.9657(5)
H12 H 1.0541 0.2228 0.9434
H13 H 1.1551 0.1549 0.9574
C15 C 1.0626(10) 0.1871(8) 1.0298(6)
C16 C 0.9433(10) 0.1607(9) 1.0350(6)
C17 C 0.8687(10) 0.2438(10) 1.0084(6)
H14 H 0.7961 0.2303 1.0187
H15 H 0.8752 0.2411 0.9688
H16 H 0.8891 0.3108 1.0213
C18 C 0.9088(12) 0.1457(13) 1.0957(6)
H17 H 0.8343 0.1292 1.0970
H18 H 0.9216 0.2079 1.1160
H19 H 0.9492 0.0906 1.1119
C19 C 1.1354(11) 0.1175(9) 1.0642(6)
H20 H 1.1297 0.1358 1.1026
H21 H 1.2079 0.1261 1.0522
H22 H 1.1144 0.0471 1.0593
C20 C 1.0859(9) 0.3007(9) 1.0443(6)
C21 C 0.8838(11) 0.0134(10) 0.7754(5)
C22 C 0.9771(11) -0.0011(10) 0.7355(6)
H23 H 0.9674 0.0485 0.7054
C23 C 1.0876(12) 0.0194(14) 0.7605(9)
H24 H 1.1047 0.0921 0.7581
H25 H 1.0889 -0.0008 0.7991
C24 C 1.1679(13) -0.0434(12) 0.7276(8)
H26 H 1.2050 -0.0912 0.7517
H27 H 1.2200 0.0013 0.7103
C25 C 1.1044(10) -0.1018(9) 0.6835(5)
C26 C 0.9900(8) -0.1109(10) 0.7076(5)
C27 C 0.9023(12) -0.1278(14) 0.6643(6)
H28 H 0.8388 -0.1519 0.6824
H29 H 0.9256 -0.1780 0.6378
H30 H 0.8876 -0.0641 0.6458
C28 C 0.9811(15) -0.1932(10) 0.7504(8)
H31 H 0.9883 -0.2593 0.7331
H32 H 0.9128 -0.1887 0.7682
H33 H 1.0365 -0.1845 0.7774
C29 C 1.1086(15) -0.0462(11) 0.6277(7)
H34 H 1.1816 -0.0366 0.6169
H35 H 1.0744 0.0196 0.6310
H36 H 1.0724 -0.0866 0.6002
C30 C 1.1562(10) -0.2116(9) 0.6736(6)
C31 C 0.5639(11) 0.1176(11) 0.7380(6)
C32 C 0.4590(11) 0.1511(9) 0.7154(5)
C33 C 0.4633(14) 0.2609(12) 0.6939(8)
C34 C 0.4210(14) 0.0982(11) 0.6630(7)
H37 H 0.3850 0.0347 0.6726
H38 H 0.4818 0.0813 0.6400
C35 C 0.3409(14) 0.1712(10) 0.6292(6)
H39 H 0.3617 0.1777 0.5907
H40 H 0.2678 0.1470 0.6314
C36 C 0.3563(10) 0.2699(8) 0.6604(5)
H41 H 0.2976 0.2771 0.6869
C37 C 0.3570(9) 0.3663(10) 0.6227(6)
C38 C 0.5594(12) 0.2887(14) 0.6638(9)
H42 H 0.5685 0.2431 0.6330
H43 H 0.6200 0.2832 0.6880
H44 H 0.5534 0.3581 0.6507
C39 C 0.457(2) 0.3423(14) 0.7451(9)
H45 H 0.3840 0.3538 0.7549
H46 H 0.4891 0.4063 0.7341
H47 H 0.4949 0.3150 0.7764
C40 C 0.3737(12) 0.1421(13) 0.7604(7)
H48 H 0.4004 0.1706 0.7944
H49 H 0.3562 0.0709 0.7660
H50 H 0.3110 0.1789 0.7492
Co1 Co 0.61493(14) -0.01729(11) 0.97814(7)
Eu1 Eu 0.73964(4) 0.10593(4) 0.84824(2)
N1 N 0.5458(9) -0.1135(9) 1.0361(5)
N2 N 0.4526(9) -0.0314(8) 0.9511(5)
O1 O 0.7936(7) 0.0541(6) 0.9357(4)
O2 O 0.7606(8) -0.0115(6) 1.0161(3)
O3 O 1.0821(7) 0.3668(6) 1.0080(4)
O4 O 1.1119(7) 0.3182(6) 1.0944(4)
O5 O 0.8974(9) -0.0042(9) 0.8249(4)
O6 O 0.8008(8) 0.0458(10) 0.7557(4)
O7 O 1.1175(9) -0.2687(8) 0.6402(5)
O8 O 1.2370(10) -0.2312(7) 0.6975(5)
O9 O 0.6316(9) 0.0768(8) 0.7007(4)
H51 H 0.6862 0.0580 0.7164
O10 O 0.5881(7) 0.1282(6) 0.7863(4)
O11 O 0.3577(7) 0.3551(6) 0.5706(3)
O12 O 0.3553(8) 0.4524(6) 0.6459(4)
Co1B Co 0.38507(14) 0.48271(11) 0.52186(7)
Co1C Co 1.11493(14) 0.51729(11) 1.02186(7)
Eu1B Eu 0.26036(4) 0.60593(4) 0.65176(2)
Eu1B_2 Eu 1.26036(4) -0.39407(4) 0.65176(2)
Eu1C Eu 1.23964(4) 0.39407(4) 1.15176(2)
O3C O 0.5821(7) 0.1332(6) 0.9920(4)
O4C O 0.6119(7) 0.1818(6) 0.9056(4)
O7B O 0.8825(9) 0.2313(8) 0.8598(5)
O8B O 0.7630(10) 0.2688(7) 0.8025(5)
O11B O 0.6423(7) -0.1449(6) 0.9294(3)
O12B O 0.6447(8) -0.0476(6) 0.8541(4)
loop_
_geom_bond_atom_site_label_1
_geom_bond_atom_site_label_2
_geom_bond_site_symmetry_1
_geom_bond_site_symmetry_2
C1 H1 1_555 1_555
C2 C1 1_555 1_555
H2 C2 1_555 1_555
C3 C2 1_555 1_555
H3 C3 1_555 1_555
C4 C3 1_555 1_555
H4 C4 1_555 1_555
C5 C4 1_555 1_555
C6 C5 1_555 1_555
C7 C6 1_555 1_555
H5 C7 1_555 1_555
C8 C7 1_555 1_555
H6 C8 1_555 1_555
C9 C8 1_555 1_555
H7 C9 1_555 1_555
C10 C9 1_555 1_555
H8 C10 1_555 1_555
C11 C12 1_555 1_555
C12 H9 1_555 1_555
C13 C12 1_555 1_555
H10 C13 1_555 1_555
H11 C13 1_555 1_555
C14 C13 1_555 1_555
H12 C14 1_555 1_555
H13 C14 1_555 1_555
C15 C14 1_555 1_555
C16 C12 1_555 1_555
C17 C16 1_555 1_555
H14 C17 1_555 1_555
H15 C17 1_555 1_555
H16 C17 1_555 1_555
C18 C16 1_555 1_555
H17 C18 1_555 1_555
H18 C18 1_555 1_555
H19 C18 1_555 1_555
C19 C15 1_555 1_555
H20 C19 1_555 1_555
H21 C19 1_555 1_555
H22 C19 1_555 1_555
C20 C15 1_555 1_555
C21 C22 1_555 1_555
C22 H23 1_555 1_555
C23 C22 1_555 1_555
H24 C23 1_555 1_555
H25 C23 1_555 1_555
C24 C23 1_555 1_555
H26 C24 1_555 1_555
H27 C24 1_555 1_555
C25 C24 1_555 1_555
C26 C22 1_555 1_555
C27 C26 1_555 1_555
H28 C27 1_555 1_555
H29 C27 1_555 1_555
H30 C27 1_555 1_555
C28 C26 1_555 1_555
H31 C28 1_555 1_555
H32 C28 1_555 1_555
H33 C28 1_555 1_555
C29 C25 1_555 1_555
H34 C29 1_555 1_555
H35 C29 1_555 1_555
H36 C29 1_555 1_555
C30 C25 1_555 1_555
C31 C32 1_555 1_555
C32 C33 1_555 1_555
C33 C36 1_555 1_555
C34 C32 1_555 1_555
H37 C34 1_555 1_555
H38 C34 1_555 1_555
C35 C34 1_555 1_555
H39 C35 1_555 1_555
H40 C35 1_555 1_555
C36 C35 1_555 1_555
H41 C36 1_555 1_555
C37 C36 1_555 1_555
C38 C33 1_555 1_555
H42 C38 1_555 1_555
H43 C38 1_555 1_555
H44 C38 1_555 1_555
C39 C33 1_555 1_555
H45 C39 1_555 1_555
H46 C39 1_555 1_555
H47 C39 1_555 1_555
C40 C32 1_555 1_555
H48 C40 1_555 1_555
H49 C40 1_555 1_555
H50 C40 1_555 1_555
Co1 N1 1_555 1_555
Eu1 O1 1_555 1_555
N1 C1 1_555 1_555
N2 C6 1_555 1_555
O1 C11 1_555 1_555
O2 C11 1_555 1_555
O3 C20 1_555 1_555
O4 C20 1_555 1_555
O5 C21 1_555 1_555
O6 C21 1_555 1_555
O7 C30 1_555 1_555
O8 C30 1_555 1_555
O9 C31 1_555 1_555
H51 O9 1_555 1_555
O10 C31 1_555 1_555
O11 C37 1_555 1_555
O12 C37 1_555 1_555
Co1B O11 1_555 1_555
Co1C O3 1_555 1_555
Eu1B O12 1_555 1_555
Eu1B_2 O7 1_555 1_555
Eu1C O4 1_555 1_555
O3C Co1 1_555 1_555
O4C Eu1 1_555 1_555
O7B Eu1 1_555 1_555
O8B Eu1 1_555 1_555
O11B Co1 1_555 1_555
O12B Eu1 1_555 1_555
C5 N1 1_555 1_555
C10 N2 1_555 1_555
C15 C16 1_555 1_555
C25 C26 1_555 1_555
Co1 N2 1_555 1_555
Co1 O2 1_555 1_555
Eu1 O5 1_555 1_555
Eu1 O6 1_555 1_555
Eu1 O10 1_555 1_555
O8 Eu1B_2 1_555 1_555

#END
