
#######################################################################
#
#                 Cambridge Crystallographic Data Centre
#                                CCDC 
#
#######################################################################
#
# If this CIF has been generated from an entry in the Cambridge 
# Structural Database, then it will include bibliographic, chemical, 
# crystal, experimental, refinement or atomic coordinate data resulting 
# from the CCDC's data processing and validation procedures.
#
#######################################################################

data_DIVJUP
_symmetry_cell_setting           orthorhombic
_symmetry_space_group_name_H-M   'P 21 21 21'
_symmetry_Int_Tables_number      19
_space_group_name_Hall           'P 2ac 2ab'
loop_
_symmetry_equiv_pos_site_id
_symmetry_equiv_pos_as_xyz
1 x,y,z
2 1/2-x,-y,1/2+z
3 -x,1/2+y,1/2-z
4 1/2+x,1/2-y,-z
_cell_length_a                   12.430(3)
_cell_length_b                   13.014(3)
_cell_length_c                   24.157(5)
_cell_angle_alpha                90
_cell_angle_beta                 90
_cell_angle_gamma                90
_cell_volume                     3907.73
loop_
_atom_site_label
_atom_site_type_symbol
_atom_site_fract_x
_atom_site_fract_y
_atom_site_fract_z
C1 C 0.5987(17) 1.1554(13) -0.0819(8)
H1 H 0.6664 1.1311 -0.0917
C2 C 0.552(2) 1.2344(15) -0.1100(8)
H2 H 0.5861 1.2596 -0.1415
C3 C 0.453(2) 1.2804(16) -0.0927(11)
H3 H 0.4259 1.3394 -0.1093
C4 C 0.404(2) 1.2359(14) -0.0534(10)
H4 H 0.3360 1.2585 -0.0434
C5 C 0.4506(15) 1.1534(13) -0.0246(8)
C6 C 0.3923(12) 1.0998(13) 0.0204(7)
C7 C 0.2849(13) 1.1209(17) 0.0383(9)
H5 H 0.2445 1.1724 0.0216
C8 C 0.2422(14) 1.0624(18) 0.0814(9)
H6 H 0.1712 1.0723 0.0922
C9 C 0.3026(12) 0.9920(15) 0.1073(8)
H7 H 0.2744 0.9557 0.1371
C10 C 0.4033(13) 0.9738(12) 0.0904(7)
H8 H 0.4423 0.9216 0.1074
C11 C 0.5812(10) 0.7951(12) 0.0481(7)
C12 C 0.5546(9) 0.6863(11) 0.0333(7)
C13 C 0.3667(10) 0.7396(11) 0.0070(6)
H9 H 0.3767 0.7355 -0.0323
H10 H 0.3895 0.8059 0.0199
H11 H 0.2921 0.7298 0.0157
C14 C 0.3977(15) 0.6424(14) 0.0949(7)
H12 H 0.3215 0.6527 0.0983
H13 H 0.4350 0.6905 0.1181
H14 H 0.4155 0.5736 0.1060
C15 C 0.6229(12) 0.6138(13) 0.0691(7)
H15 H 0.6978 0.6268 0.0625
H16 H 0.6066 0.5438 0.0597
H17 H 0.6069 0.6253 0.1075
C16 C 0.5757(13) 0.6589(13) -0.0305(7)
H18 H 0.5474 0.7118 -0.0548
H19 H 0.6519 0.6500 -0.0379
C17 C 0.4316(9) 0.6587(11) 0.0345(6)
C18 C 0.5140(13) 0.5573(13) -0.0375(7)
H20 H 0.4843 0.5526 -0.0745
H21 H 0.5620 0.4995 -0.0318
C19 C 0.4245(10) 0.5558(12) 0.0051(5)
H22 H 0.4393 0.5011 0.0319
C20 C 0.3155(10) 0.5362(10) -0.0208(6)
C21 C 0.8848(12) 0.9849(14) 0.2267(7)
C22 C 0.9811(11) 1.0045(13) 0.2676(6)
H23 H 0.9741 0.9554 0.2982
C23 C 0.9907(10) 1.1114(12) 0.2928(6)
C24 C 0.9754(16) 1.1965(12) 0.2510(9)
H24 H 0.9977 1.2606 0.2669
H25 H 0.9008 1.2005 0.2408
H26 H 1.0178 1.1823 0.2187
C25 C 0.9055(14) 1.1320(17) 0.3365(9)
H27 H 0.9244 1.1924 0.3571
H28 H 0.9011 1.0743 0.3611
H29 H 0.8372 1.1422 0.3188
C26 C 1.1124(19) 1.0517(14) 0.3705(8)
H30 H 1.1864 1.0442 0.3812
H31 H 1.0795 0.9851 0.3681
H32 H 1.0753 1.0923 0.3977
C27 C 1.1062(12) 1.1049(13) 0.3143(7)
C28 C 1.1678(14) 1.0456(16) 0.2708(10)
H33 H 1.2206 1.0010 0.2880
H34 H 1.2048 1.0924 0.2460
C29 C 1.0845(13) 0.9821(18) 0.2390(10)
H35 H 1.0815 1.0029 0.2005
H36 H 1.1015 0.9094 0.2408
C30 C 1.1582(11) 1.2118(11) 0.3244(6)
C31 C 0.5651(13) 0.8800(12) 0.2626(7)
C32 C 0.3695(13) 0.8557(17) 0.2417(7)
H37 H 0.3066 0.8198 0.2542
H38 H 0.3935 0.8266 0.2073
H39 H 0.3526 0.9270 0.2364
C33 C 0.4655(15) 0.7306(14) 0.3037(7)
C34 C 0.463(2) 0.6559(14) 0.2548(9)
H40 H 0.5119 0.6795 0.2266
H41 H 0.3918 0.6525 0.2400
H42 H 0.4851 0.5889 0.2671
C35 C 0.5623(12) 0.7065(15) 0.3353(9)
H43 H 0.5543 0.6405 0.3525
H44 H 0.5732 0.7579 0.3633
H45 H 0.6233 0.7053 0.3109
C36 C 0.4254(14) 0.8987(14) 0.3378(8)
H46 H 0.3890 0.9626 0.3291
H47 H 0.4875 0.9142 0.3607
C37 C 0.3456(15) 0.8227(12) 0.3699(7)
H48 H 0.3659 0.8156 0.4085
H49 H 0.2718 0.8466 0.3678
C38 C 0.3595(9) 0.7262(9) 0.3401(6)
H50 H 0.2989 0.7201 0.3144
C39 C 0.3591(10) 0.6273(12) 0.3769(6)
C40 C 0.4599(12) 0.8454(11) 0.2856(6)
Cu1 Cu 0.60183(13) 1.00975(13) 0.02387(7)
Dy1 Dy 0.73709(5) 0.89361(5) 0.15314(3)
N1 N 0.5420(11) 1.1124(11) -0.0384(6)
N2 N 0.4506(9) 1.0291(9) 0.0492(5)
O1 O 0.5760(7) 0.8619(7) 0.0107(4)
O2 O 0.6137(8) 0.8157(7) 0.0981(4)
O3 O 0.2423(7) 0.4983(6) 0.0091(3)
O4 O 0.3003(7) 0.5618(7) -0.0693(4)
O5 O 0.6329(9) 0.9183(11) 0.2997(4)
H51 H 0.6932 0.9221 0.2861
O6 O 0.5865(8) 0.8714(8) 0.2149(4)
O7 O 0.3574(7) 0.5415(7) 0.3547(4)
O8 O 0.3623(7) 0.6391(7) 0.4293(4)
O9 O 0.8986(10) 1.0034(11) 0.1762(6)
O10 O 0.7994(10) 0.9518(10) 0.2427(5)
O11 O 1.1210(10) 1.2728(9) 0.3578(5)
O12 O 1.2386(11) 1.2335(9) 0.3017(5)
Cu1B Cu 0.39817(13) 0.50975(13) 0.47613(7)
Cu1C Cu 0.10183(13) 0.49025(13) -0.02387(7)
Dy1B Dy 0.26291(5) 0.39361(5) 0.34686(3)
Dy1B_2 Dy 1.26291(5) 1.39361(5) 0.34686(3)
Dy1C Dy 0.23709(5) 0.60639(5) -0.15314(3)
O3C O 0.7423(7) 1.0017(6) -0.0091(3)
O4C O 0.8003(7) 0.9382(7) 0.0693(4)
O7B O 0.6426(7) 1.0415(7) 0.1453(4)
O8B O 0.6377(7) 1.1391(7) 0.0707(4)
O11B O 0.8790(10) 0.7728(9) 0.1422(5)
O12B O 0.7614(11) 0.7335(9) 0.1983(5)
loop_
_geom_bond_atom_site_label_1
_geom_bond_atom_site_label_2
_geom_bond_site_symmetry_1
_geom_bond_site_symmetry_2
C1 H1 1_555 1_555
C2 C1 1_555 1_555
H2 C2 1_555 1_555
C3 C2 1_555 1_555
H3 C3 1_555 1_555
C4 C3 1_555 1_555
H4 C4 1_555 1_555
C5 C4 1_555 1_555
C6 C5 1_555 1_555
C7 C6 1_555 1_555
H5 C7 1_555 1_555
C8 C7 1_555 1_555
H6 C8 1_555 1_555
C9 C8 1_555 1_555
H7 C9 1_555 1_555
C10 C9 1_555 1_555
H8 C10 1_555 1_555
C11 C12 1_555 1_555
C12 C15 1_555 1_555
C13 H9 1_555 1_555
H10 C13 1_555 1_555
H11 C13 1_555 1_555
C14 H12 1_555 1_555
H13 C14 1_555 1_555
H14 C14 1_555 1_555
C15 H15 1_555 1_555
H16 C15 1_555 1_555
H17 C15 1_555 1_555
C16 C12 1_555 1_555
H18 C16 1_555 1_555
H19 C16 1_555 1_555
C17 C12 1_555 1_555
C18 C16 1_555 1_555
H20 C18 1_555 1_555
H21 C18 1_555 1_555
C19 C17 1_555 1_555
H22 C19 1_555 1_555
C20 C19 1_555 1_555
C21 C22 1_555 1_555
C22 H23 1_555 1_555
C23 C22 1_555 1_555
C24 C23 1_555 1_555
H24 C24 1_555 1_555
H25 C24 1_555 1_555
H26 C24 1_555 1_555
C25 C23 1_555 1_555
H27 C25 1_555 1_555
H28 C25 1_555 1_555
H29 C25 1_555 1_555
C26 H30 1_555 1_555
H31 C26 1_555 1_555
H32 C26 1_555 1_555
C27 C23 1_555 1_555
C28 C27 1_555 1_555
H33 C28 1_555 1_555
H34 C28 1_555 1_555
C29 C22 1_555 1_555
H35 C29 1_555 1_555
H36 C29 1_555 1_555
C30 C27 1_555 1_555
C31 C40 1_555 1_555
C32 H37 1_555 1_555
H38 C32 1_555 1_555
H39 C32 1_555 1_555
C33 C34 1_555 1_555
C34 H40 1_555 1_555
H41 C34 1_555 1_555
H42 C34 1_555 1_555
C35 C33 1_555 1_555
H43 C35 1_555 1_555
H44 C35 1_555 1_555
H45 C35 1_555 1_555
C36 H46 1_555 1_555
H47 C36 1_555 1_555
C37 C36 1_555 1_555
H48 C37 1_555 1_555
H49 C37 1_555 1_555
C38 C33 1_555 1_555
H50 C38 1_555 1_555
C39 C38 1_555 1_555
C40 C32 1_555 1_555
Cu1 N1 1_555 1_555
Dy1 O2 1_555 1_555
N1 C1 1_555 1_555
N2 C6 1_555 1_555
O1 C11 1_555 1_555
O2 C11 1_555 1_555
O3 C20 1_555 1_555
O4 C20 1_555 1_555
O5 C31 1_555 1_555
H51 O5 1_555 1_555
O6 C31 1_555 1_555
O7 C39 1_555 1_555
O8 C39 1_555 1_555
O9 C21 1_555 1_555
O10 C21 1_555 1_555
O11 C30 1_555 1_555
O12 C30 1_555 1_555
Cu1B O8 1_555 1_555
Cu1C O3 1_555 1_555
Dy1B O7 1_555 1_555
Dy1B_2 O11 1_555 1_555
Dy1C O4 1_555 1_555
O3C Cu1 1_555 1_555
O4C Dy1 1_555 1_555
O7B Dy1 1_555 1_555
O8B Cu1 1_555 1_555
O11B Dy1 1_555 1_555
O12B Dy1 1_555 1_555
C5 N1 1_555 1_555
C10 N2 1_555 1_555
C13 C17 1_555 1_555
C14 C17 1_555 1_555
C18 C19 1_555 1_555
C26 C27 1_555 1_555
C28 C29 1_555 1_555
C33 C40 1_555 1_555
C36 C40 1_555 1_555
C37 C38 1_555 1_555
Cu1 N2 1_555 1_555
Cu1 O1 1_555 1_555
Dy1 O6 1_555 1_555
Dy1 O9 1_555 1_555
Dy1 O10 1_555 1_555
O12 Dy1B_2 1_555 1_555

#END
