
#######################################################################
#
#                 Cambridge Crystallographic Data Centre
#                                CCDC 
#
#######################################################################
#
# If this CIF has been generated from an entry in the Cambridge 
# Structural Database, then it will include bibliographic, chemical, 
# crystal, experimental, refinement or atomic coordinate data resulting 
# from the CCDC's data processing and validation procedures.
#
#######################################################################

data_DIVKOJ
_symmetry_cell_setting           monoclinic
_symmetry_space_group_name_H-M   'P 21/c'
_symmetry_Int_Tables_number      14
_space_group_name_Hall           '-P 2ybc'
loop_
_symmetry_equiv_pos_site_id
_symmetry_equiv_pos_as_xyz
1 x,y,z
2 -x,1/2+y,1/2-z
3 -x,-y,-z
4 x,1/2-y,1/2+z
_cell_length_a                   25.764(6)
_cell_length_b                   10.352(2)
_cell_length_c                   10.735(2)
_cell_angle_alpha                90
_cell_angle_beta                 94.72(1)
_cell_angle_gamma                90
_cell_volume                     2853.41
loop_
_atom_site_label
_atom_site_type_symbol
_atom_site_fract_x
_atom_site_fract_y
_atom_site_fract_z
Eu1 Eu 0.267230(10) 0.58865(2) 0.809820(10)
O1 O 0.13060(11) 0.3537(3) 0.6710(3)
O2 O 0.20945(10) 0.4382(3) 0.7097(3)
O3 O 0.17756(9) 0.5945(2) 0.8764(2)
O4 O 0.29796(10) 0.6015(2) 0.6002(2)
O5 O 0.26637(10) 0.7679(3) 0.4869(2)
O6 O 0.32432(10) 0.7182(3) 0.3075(2)
O7 O 0.35887(12) 0.5372(4) 0.8862(3)
O8 O 0.31952(13) 0.3911(3) 0.7726(3)
O9 O 0.3988(2) 0.3584(5) 0.8516(4)
O10 O 0.21514(11) 0.7549(3) 0.6916(3)
O11 O 0.2607(1) 0.4473(3) 0.9944(3)
N1 N 0.00258(12) 0.5246(4) 0.8253(3)
N2 N 0.42729(12) 0.4012(3) 0.4921(3)
N3 N 0.3602(1) 0.4265(4) 0.8380(4)
C1 C 0.1617(1) 0.4295(4) 0.7252(4)
C2 C 0.14334(13) 0.5276(4) 0.8213(3)
C3 C 0.0473(1) 0.4717(4) 0.7930(4)
C4 C 0.0894(1) 0.5438(4) 0.8416(3)
C5 C 0.0683(1) 0.6505(4) 0.9090(3)
C6 C 0.0896(2) 0.7565(4) 0.9753(3)
C7 C 0.0565(2) 0.8413(5) 1.0280(4)
C8 C 0.0030(2) 0.8215(5) 1.0155(4)
C9 C -0.0197(2) 0.7189(5) 0.9498(4)
C10 C 0.0139(1) 0.6347(4) 0.8963(4)
C11 C -0.0499(2) 0.4758(6) 0.7904(4)
C12 C 0.29626(13) 0.6720(3) 0.5071(3)
C13 C 0.33265(13) 0.6476(3) 0.4011(3)
C14 C 0.37298(13) 0.5552(3) 0.4129(3)
C15 C 0.3844(1) 0.4681(4) 0.5108(3)
C16 C 0.41330(13) 0.5364(4) 0.3274(3)
C17 C 0.4242(2) 0.5906(4) 0.2135(4)
C18 C 0.4680(2) 0.5481(4) 0.1593(4)
C19 C 0.5010(2) 0.4559(4) 0.2158(4)
C20 C 0.4910(1) 0.3999(4) 0.3269(4)
C21 C 0.4466(1) 0.4409(3) 0.3811(3)
C22 C 0.4501(2) 0.3002(4) 0.5743(4)
C23 C 0.1886(2) 0.8650(5) 0.7293(5)
C24 C 0.2967(3) 0.4088(8) 1.0960(6)
H1 H 0.0496 0.3959 0.7438
H2 H 0.1262 0.7699 0.9839
H3 H 0.0704 0.9139 1.0734
H4 H -0.0188 0.8811 1.0537
H5 H -0.0564 0.7066 0.9415
H6 H -0.0729 0.5048 0.8494
H7 H -0.0616 0.5069 0.7096
H8 H -0.0494 0.3840 0.7895
H9 H 0.3644 0.4580 0.5807
H10 H 0.4021 0.6549 0.1743
H11 H 0.4756 0.5832 0.0811
H12 H 0.5312 0.4310 0.1766
H13 H 0.5134 0.3359 0.3652
H14 H 0.4458 0.3222 0.6588
H15 H 0.4861 0.2923 0.5630
H16 H 0.4331 0.2204 0.5546
H17 H 0.2102 0.9388 0.7242
H18 H 0.1576 0.8765 0.6761
H19 H 0.1800 0.8542 0.8130
H20 H 0.2784 0.3679 1.1583
H21 H 0.3214 0.3503 1.0666
H22 H 0.3143 0.4828 1.1306
H26 H 0.225(2) 0.769(5) 0.635(5)
H27 H 0.236(2) 0.412(5) 0.995(6)
Eu1C Eu 0.267230(10) 0.91135(2) 0.309820(10)
O5C O 0.26637(10) 0.7321(3) 0.9869(2)
O6C O 0.32432(10) 0.7818(3) 0.8075(2)
O12 O 0.1823(2) 0.2713(4) 0.9825(4)
C25 C 0.1986(4) 0.1638(6) 0.9121(7)
H23 H 0.1811 0.0881 0.9361
H24 H 0.1904 0.1794 0.8255
H25 H 0.2351 0.1522 0.9279
H28 H 0.170(3) 0.253(7) 1.061(7)
loop_
_geom_bond_atom_site_label_1
_geom_bond_atom_site_label_2
_geom_bond_site_symmetry_1
_geom_bond_site_symmetry_2
Eu1 O2 1_555 1_555
O1 C1 1_555 1_555
O2 C1 1_555 1_555
O3 Eu1 1_555 1_555
O4 Eu1 1_555 1_555
O5 C12 1_555 1_555
O6 C13 1_555 1_555
O7 Eu1 1_555 1_555
O8 Eu1 1_555 1_555
O9 N3 1_555 1_555
O10 Eu1 1_555 1_555
O11 Eu1 1_555 1_555
O12 C25 1_555 1_555
N1 C3 1_555 1_555
N2 C15 1_555 1_555
N3 O7 1_555 1_555
C1 C2 1_555 1_555
C2 O3 1_555 1_555
C3 C4 1_555 1_555
C4 C2 1_555 1_555
C5 C4 1_555 1_555
C6 C5 1_555 1_555
C7 C6 1_555 1_555
C8 C7 1_555 1_555
C9 C8 1_555 1_555
C10 N1 1_555 1_555
C11 N1 1_555 1_555
C12 O4 1_555 1_555
C13 C12 1_555 1_555
C14 C13 1_555 1_555
C15 C14 1_555 1_555
C16 C14 1_555 1_555
C17 C16 1_555 1_555
C18 C17 1_555 1_555
C19 C18 1_555 1_555
C20 C19 1_555 1_555
C21 N2 1_555 1_555
C22 N2 1_555 1_555
C23 O10 1_555 1_555
C24 O11 1_555 1_555
C25 H23 1_555 1_555
H1 C3 1_555 1_555
H2 C6 1_555 1_555
H3 C7 1_555 1_555
H4 C8 1_555 1_555
H5 C9 1_555 1_555
H6 C11 1_555 1_555
H7 C11 1_555 1_555
H8 C11 1_555 1_555
H9 C15 1_555 1_555
H10 C17 1_555 1_555
H11 C18 1_555 1_555
H12 C19 1_555 1_555
H13 C20 1_555 1_555
H14 C22 1_555 1_555
H15 C22 1_555 1_555
H16 C22 1_555 1_555
H17 C23 1_555 1_555
H18 C23 1_555 1_555
H19 C23 1_555 1_555
H20 C24 1_555 1_555
H21 C24 1_555 1_555
H22 C24 1_555 1_555
H24 C25 1_555 1_555
H25 C25 1_555 1_555
H26 O10 1_555 1_555
H27 O11 1_555 1_555
H28 O12 1_555 1_555
Eu1C O5 1_555 1_555
O5C Eu1 1_555 1_555
O6C Eu1 1_555 1_555
O6 Eu1C 1_555 1_555
O8 N3 1_555 1_555
C5 C10 1_555 1_555
C9 C10 1_555 1_555
C16 C21 1_555 1_555
C20 C21 1_555 1_555

#END
