
#######################################################################
#
#                 Cambridge Crystallographic Data Centre
#                                CCDC 
#
#######################################################################
#
# If this CIF has been generated from an entry in the Cambridge 
# Structural Database, then it will include bibliographic, chemical, 
# crystal, experimental, refinement or atomic coordinate data resulting 
# from the CCDC's data processing and validation procedures.
#
#######################################################################

data_DIVLAW
_symmetry_cell_setting           triclinic
_symmetry_space_group_name_H-M   'P -1'
_symmetry_Int_Tables_number      2
_space_group_name_Hall           '-P 1'
loop_
_symmetry_equiv_pos_site_id
_symmetry_equiv_pos_as_xyz
1 x,y,z
2 -x,-y,-z
_cell_length_a                   10.743(5)
_cell_length_b                   12.614(5)
_cell_length_c                   12.659(5)
_cell_angle_alpha                104.354(5)
_cell_angle_beta                 114.121(5)
_cell_angle_gamma                94.527(5)
_cell_volume                     1484.94
loop_
_atom_site_label
_atom_site_type_symbol
_atom_site_fract_x
_atom_site_fract_y
_atom_site_fract_z
Mn1 Mn 0.09686(7) -0.09564(5) -0.41072(6)
O1 O 0.1700(3) 0.5400(3) 0.0473(3)
O2 O 0.1356(5) 0.0468(3) -0.2532(4)
O3 O 0.5415(4) 0.6021(3) 0.1718(3)
O4 O 0.7485(4) 0.1573(3) 0.2625(3)
O5 O 0.8677(4) 0.2782(3) 0.4457(3)
O6 O 0.3723(3) 0.5861(3) 0.3524(3)
O7 O 0.2862(4) 0.1135(3) 0.4314(3)
O8 O 0.0859(5) 0.1592(4) 0.4060(7)
N1 N 0.3547(4) 0.7259(3) 0.2189(3)
C1 C 0.2143(5) 0.7341(4) 0.1278(4)
H1 H 0.2207 0.8052 0.1119
H2 H 0.1470 0.7297 0.1602
C2 C 0.1673(5) 0.6393(4) 0.0109(4)
H3 H 0.0741 0.6392 -0.0470
H4 H 0.2302 0.6453 -0.0256
C3 C 0.1430(4) 0.4401(4) -0.0402(4)
C4 C 0.0887(4) 0.4279(4) -0.1636(4)
H5 H 0.0687 0.4890 -0.1916
C5 C 0.0648(4) 0.3225(4) -0.2447(4)
H6 H 0.0264 0.3132 -0.3277
C6 C 0.0969(4) 0.2314(4) -0.2043(4)
C7 C 0.1518(5) 0.2452(4) -0.0795(4)
H7 H 0.1743 0.1844 -0.0517
C8 C 0.1731(5) 0.3483(4) 0.0030(4)
H8 H 0.2067 0.3566 0.0856
C9 C 0.0816(5) 0.1209(4) -0.2931(5)
C10 C 0.4730(5) 0.7748(4) 0.2002(5)
H9 H 0.5023 0.8543 0.2432
H10 H 0.4436 0.7645 0.1143
C11 C 0.5925(5) 0.7165(4) 0.2479(5)
H11 H 0.6732 0.7497 0.2423
H12 H 0.6182 0.7216 0.3322
C12 C 0.6099(5) 0.5220(4) 0.2137(4)
C13 C 0.5521(5) 0.4127(4) 0.1385(4)
H13 H 0.4752 0.3975 0.0635
C14 C 0.6100(5) 0.3259(4) 0.1762(4)
H14 H 0.5716 0.2526 0.1258
C15 C 0.7251(5) 0.3478(4) 0.2887(4)
C16 C 0.7848(5) 0.4585(4) 0.3599(4)
H15 H 0.8642 0.4740 0.4333
C17 C 0.7288(5) 0.5458(4) 0.3241(4)
H16 H 0.7698 0.6194 0.3728
C18 C 0.7838(5) 0.2557(4) 0.3352(4)
C19 C 0.3735(5) 0.7705(4) 0.3483(4)
H17 H 0.3301 0.8346 0.3570
H18 H 0.4718 0.7935 0.4046
C20 C 0.1964(5) 0.4622(4) 0.3644(4)
H19 H 0.1407 0.5152 0.3628
C21 C 0.3054(5) 0.6771(4) 0.3751(4)
H20 H 0.3200 0.6998 0.4590
H21 H 0.2061 0.6564 0.3221
C22 C 0.3213(5) 0.4856(4) 0.3578(4)
C23 C 0.1564(5) 0.3591(4) 0.3734(4)
H22 H 0.0721 0.3427 0.3762
C24 C 0.2393(4) 0.2796(4) 0.3784(4)
C25 C 0.3620(4) 0.3032(4) 0.3676(4)
H23 H 0.4168 0.2497 0.3679
C26 C 0.4033(4) 0.4050(4) 0.3564(4)
H24 H 0.4845 0.4195 0.3480
C27 C 0.2005(5) 0.1749(4) 0.4048(4)
O9 O 0.0240(6) 0.1082(4) -0.4030(4)
O10 O 0.2671(4) -0.0303(4) -0.4420(5)
H25 H 0.3351 -0.0494 -0.4210
H26 H 0.2612 0.0120 -0.4848
Mn1A Mn 0.90314(7) 0.09564(5) 0.41072(6)
Mn1A_2 Mn -0.09686(7) 0.09564(5) 0.41072(6)
Mn1A_3 Mn -0.09686(7) 0.09564(5) -0.58928(6)
O4A O 0.2515(4) -0.1573(3) -0.2625(3)
O5A O 0.1323(4) -0.2782(3) -0.4457(3)
O8A O -0.0859(5) -0.1592(4) -0.4060(7)
O9A O -0.0240(6) -0.1082(4) -0.5970(4)
O11 O 0.4536 0.0320 0.3312
H27 H 0.4156 0.0673 0.3764
H28 H 0.4223 0.0364 0.2570
O12 O 0.375(3) 0.0313(12) 0.0966(15)
H29 H 0.3091 -0.0421 0.0802
H30 H 0.3021 0.0590 0.0956
O13 O 0.4139(7) 0.0872(5) -0.0755(6)
H31 H 0.4589 0.0253 -0.1204
H32 H 0.3772 0.0235 -0.0303
O14 O 0.113(3) -0.027(5) 0.026(5)
loop_
_geom_bond_atom_site_label_1
_geom_bond_atom_site_label_2
_geom_bond_site_symmetry_1
_geom_bond_site_symmetry_2
Mn1 O2 1_555 1_555
O1 C2 1_555 1_555
O2 C9 1_555 1_555
O3 C11 1_555 1_555
O4 C18 1_555 1_555
O5 C18 1_555 1_555
O6 C21 1_555 1_555
O7 C27 1_555 1_555
O8 C27 1_555 1_555
N1 C1 1_555 1_555
C1 H1 1_555 1_555
H2 C1 1_555 1_555
C2 C1 1_555 1_555
H3 C2 1_555 1_555
H4 C2 1_555 1_555
C3 O1 1_555 1_555
C4 C3 1_555 1_555
H5 C4 1_555 1_555
C5 C4 1_555 1_555
H6 C5 1_555 1_555
C6 C5 1_555 1_555
C7 C6 1_555 1_555
H7 C7 1_555 1_555
C8 C3 1_555 1_555
H8 C8 1_555 1_555
C9 C6 1_555 1_555
C10 N1 1_555 1_555
H9 C10 1_555 1_555
H10 C10 1_555 1_555
C11 C10 1_555 1_555
H11 C11 1_555 1_555
H12 C11 1_555 1_555
C12 O3 1_555 1_555
C13 C12 1_555 1_555
H13 C13 1_555 1_555
C14 C13 1_555 1_555
H14 C14 1_555 1_555
C15 C14 1_555 1_555
C16 C15 1_555 1_555
H15 C16 1_555 1_555
C17 C12 1_555 1_555
H16 C17 1_555 1_555
C18 C15 1_555 1_555
C19 N1 1_555 1_555
H17 C19 1_555 1_555
H18 C19 1_555 1_555
C20 H19 1_555 1_555
C21 C19 1_555 1_555
H20 C21 1_555 1_555
H21 C21 1_555 1_555
C22 O6 1_555 1_555
C23 C20 1_555 1_555
H22 C23 1_555 1_555
C24 C23 1_555 1_555
C25 C24 1_555 1_555
H23 C25 1_555 1_555
C26 C22 1_555 1_555
H24 C26 1_555 1_555
C27 C24 1_555 1_555
O9 C9 1_555 1_555
O10 Mn1 1_555 1_555
H25 O10 1_555 1_555
H26 O10 1_555 1_555
O11 H27 1_555 1_555
H28 O11 1_555 1_555
O12 H29 1_555 1_555
H30 O12 1_555 1_555
O13 H31 1_555 1_555
H32 O13 1_555 1_555
Mn1A O4 1_555 1_555
Mn1A_2 O8 1_555 1_555
Mn1A_3 O9 1_555 1_555
O4A Mn1 1_555 1_555
O5A Mn1 1_555 1_555
O8A Mn1 1_555 1_555
O9A Mn1 1_555 1_555
O5 Mn1A 1_555 1_555
C7 C8 1_555 1_555
C16 C17 1_555 1_555
C20 C22 1_555 1_555
C25 C26 1_555 1_555

#END
