
#######################################################################
#
#                 Cambridge Crystallographic Data Centre
#                                CCDC 
#
#######################################################################
#
# If this CIF has been generated from an entry in the Cambridge 
# Structural Database, then it will include bibliographic, chemical, 
# crystal, experimental, refinement or atomic coordinate data resulting 
# from the CCDC's data processing and validation procedures.
#
#######################################################################

data_DIVMIF
_symmetry_cell_setting           monoclinic
_symmetry_space_group_name_H-M   'P 21/c'
_symmetry_Int_Tables_number      14
_space_group_name_Hall           '-P 2ybc'
loop_
_symmetry_equiv_pos_site_id
_symmetry_equiv_pos_as_xyz
1 x,y,z
2 -x,1/2+y,1/2-z
3 -x,-y,-z
4 x,1/2-y,1/2+z
_cell_length_a                   9.389(3)
_cell_length_b                   7.406(3)
_cell_length_c                   12.732(5)
_cell_angle_alpha                90
_cell_angle_beta                 93.336(4)
_cell_angle_gamma                90
_cell_volume                     883.819
loop_
_atom_site_label
_atom_site_type_symbol
_atom_site_fract_x
_atom_site_fract_y
_atom_site_fract_z
Dy1 Dy 0.046821(16) 0.22949(2) 0.710351(12)
Se1 Se 0.32376(4) 0.55972(4) 0.80091(3)
O1 O 0.0261(3) 0.0170(3) 0.8341(2)
H1 H -0.0464 0.0397 0.8682
H2 H 0.0999 0.0180 0.8754
O2 O 0.3600(3) 0.5197(4) 0.9246(2)
O3 O 0.2634(3) 0.3764(4) 0.7419(2)
O4 O 0.2555(3) 0.0382(4) 0.6788(2)
H3 H 0.2284 -0.0542 0.6444
H4 H 0.3141 0.0967 0.6443
O5 O 0.4666(3) 0.6293(4) 0.7451(2)
O6 O 0.2041(3) 0.7223(3) 0.7871(2)
O7 O 0.0375(3) 0.2286(3) 0.5210(2)
O8 O 0.0182(3) 0.0717(3) 0.37070(19)
C3 C 0.0163(4) 0.0869(4) 0.4692(3)
Dy1A Dy -0.046821(16) 0.72949(2) 0.789649(12)
Dy1A_2 Dy -0.046821(16) -0.27051(2) 0.789649(12)
Dy1C Dy 0.046821(16) 0.27051(2) 0.210351(12)
Dy1B Dy -0.046821(16) -0.22949(2) 0.289649(12)
Se1A Se -0.32376(4) 0.05972(4) 0.69909(3)
O1A O -0.0261(3) 0.5170(3) 0.6659(2)
O1_2 O 0.0261(3) 1.0170(3) 0.8341(2)
H1A H 0.0464 0.5397 0.6318
H1_2 H -0.0464 1.0397 0.8682
H2A H -0.0999 0.5180 0.6246
H2_2 H 0.0999 1.0180 0.8754
O2A O -0.3600(3) 0.0197(4) 0.5754(2)
O3A O -0.2634(3) -0.1236(4) 0.7581(2)
O3A_2 O -0.2634(3) 0.8764(4) 0.7581(2)
O4A O -0.2555(3) 0.5382(4) 0.8212(2)
H3A H -0.2284 0.4458 0.8556
H4A H -0.3141 0.5967 0.8557
O5A O -0.4666(3) 0.1293(4) 0.7549(2)
O6A O -0.2041(3) 0.2223(3) 0.7129(2)
O7B O -0.0375(3) -0.2286(3) 0.4790(2)
O7A O -0.0375(3) 0.7286(3) 0.9790(2)
O8B O -0.0182(3) -0.0717(3) 0.62930(19)
O8C O 0.0182(3) 0.4283(3) 0.87070(19)
O8B_2 O -0.0182(3) 0.9283(3) 0.62930(19)
C3B C -0.0163(4) -0.0869(4) 0.5308(3)
N1 N -0.4649(4) 0.3194(5) 0.4699(3)
H5 H -0.4540 0.2322 0.4265
C1 C -0.3506(5) 0.4507(6) 0.5035(4)
H6 H -0.2651 0.4253 0.4668
H7 H -0.3275 0.4384 0.5785
C2 C -0.5995(5) 0.3582(6) 0.5208(4)
H8 H -0.5846 0.3433 0.5963
H9 H -0.6724 0.2733 0.4958
N1B N -0.5351(4) 0.6806(5) 0.5301(3)
H5B H -0.5460 0.7678 0.5735
C1B C -0.6494(5) 0.5493(6) 0.4965(4)
H6B H -0.7349 0.5747 0.5332
H7B H -0.6725 0.5616 0.4215
C2B C -0.4005(5) 0.6418(6) 0.4792(4)
H8B H -0.4154 0.6567 0.4037
H9B H -0.3276 0.7267 0.5042
loop_
_geom_bond_atom_site_label_1
_geom_bond_atom_site_label_2
_geom_bond_site_symmetry_1
_geom_bond_site_symmetry_2
Dy1 O1 1_555 1_555
Se1 O2 1_555 1_555
O1 H1 1_555 1_555
H2 O1 1_555 1_555
O3 Dy1 1_555 1_555
O4 Dy1 1_555 1_555
H3 O4 1_555 1_555
H4 O4 1_555 1_555
O5 Se1 1_555 1_555
O6 Se1 1_555 1_555
O7 Dy1 1_555 1_555
O8 C3 1_555 1_555
N1 H5 1_555 1_555
C1 N1 1_555 1_555
H6 C1 1_555 1_555
H7 C1 1_555 1_555
C2 N1 1_555 1_555
H8 C2 1_555 1_555
H9 C2 1_555 1_555
C3 O7 1_555 1_555
Dy1A O6 1_555 1_555
Dy1A_2 O1 1_555 1_555
Dy1C O8 1_555 1_555
Dy1B O8 1_555 1_555
Se1A O2A 1_555 1_555
O1A Dy1 1_555 1_555
O1_2 Dy1A 1_555 1_555
H1A O1A 1_555 1_555
H1_2 O1_2 1_555 1_555
H2A O1A 1_555 1_555
H2_2 O1_2 1_555 1_555
O3A Dy1A_2 1_555 1_555
O3A_2 Dy1A 1_555 1_555
O4A Dy1A 1_555 1_555
H3A O4A 1_555 1_555
H4A O4A 1_555 1_555
O5A Se1A 1_555 1_555
O6A Dy1 1_555 1_555
O7B Dy1B 1_555 1_555
O7A Dy1A 1_555 1_555
O8B Dy1 1_555 1_555
O8C Dy1 1_555 1_555
O8B_2 Dy1A 1_555 1_555
N1B H5B 1_555 1_555
C1B C2 1_555 1_555
H6B C1B 1_555 1_555
H7B C1B 1_555 1_555
C2B C1 1_555 1_555
H8B C2B 1_555 1_555
H9B C2B 1_555 1_555
C3B C3 1_555 1_555
Se1 O3 1_555 1_555
Dy1A O1A 1_555 1_555
Dy1A O8C 1_555 1_555
Dy1A_2 O8B 1_555 1_555
Se1A O3A 1_555 1_555
Se1A O6A 1_555 1_555
O7B C3B 1_555 1_555
O8B C3B 1_555 1_555
N1B C1B 1_555 1_555
N1B C2B 1_555 1_555

#END
