
#######################################################################
#
#                 Cambridge Crystallographic Data Centre
#                                CCDC 
#
#######################################################################
#
# If this CIF has been generated from an entry in the Cambridge 
# Structural Database, then it will include bibliographic, chemical, 
# crystal, experimental, refinement or atomic coordinate data resulting 
# from the CCDC's data processing and validation procedures.
#
#######################################################################

data_DIVMEB
_symmetry_cell_setting           monoclinic
_symmetry_space_group_name_H-M   'P 21/c'
_symmetry_Int_Tables_number      14
_space_group_name_Hall           '-P 2ybc'
loop_
_symmetry_equiv_pos_site_id
_symmetry_equiv_pos_as_xyz
1 x,y,z
2 -x,1/2+y,1/2-z
3 -x,-y,-z
4 x,1/2-y,1/2+z
_cell_length_a                   9.4382(5)
_cell_length_b                   7.4745(4)
_cell_length_c                   12.8140(7)
_cell_angle_alpha                90
_cell_angle_beta                 93.4230(10)
_cell_angle_gamma                90
_cell_volume                     902.361
loop_
_atom_site_label
_atom_site_type_symbol
_atom_site_fract_x
_atom_site_fract_y
_atom_site_fract_z
Eu1 Eu 0.04761(2) 0.23195(3) 0.710239(17)
Se1 Se 0.32615(5) 0.56264(6) 0.79982(4)
O1 O 0.0268(4) 0.0202(4) 0.8358(2)
H1 H -0.0456 0.0428 0.8699
H2 H 0.1007 0.0211 0.8771
O2 O 0.3640(4) 0.5220(5) 0.9226(3)
O3 O 0.2654(4) 0.3814(5) 0.7410(3)
O4 O 0.2587(3) 0.0390(5) 0.6803(3)
H3 H 0.2316 -0.0534 0.6459
H4 H 0.3173 0.0975 0.6457
O5 O 0.4670(3) 0.6328(5) 0.7438(3)
O6 O 0.2067(4) 0.7235(4) 0.7866(3)
O7 O 0.0378(4) 0.2263(4) 0.5195(3)
O8 O 0.0184(3) 0.0688(4) 0.3708(2)
C3 C 0.0160(5) 0.0857(6) 0.4687(4)
Eu1A Eu -0.04761(2) 0.73195(3) 0.789761(17)
Eu1A_2 Eu -0.04761(2) -0.26805(3) 0.789761(17)
Eu1C Eu 0.04761(2) 0.26805(3) 0.210239(17)
Eu1B Eu -0.04761(2) -0.23195(3) 0.289761(17)
Se1A Se -0.32615(5) 0.06264(6) 0.70018(4)
O1A O -0.0268(4) 0.5202(4) 0.6642(2)
O1_2 O 0.0268(4) 1.0202(4) 0.8358(2)
H1A H 0.0456 0.5428 0.6301
H1_2 H -0.0456 1.0428 0.8699
H2A H -0.1007 0.5211 0.6229
H2_2 H 0.1007 1.0211 0.8771
O2A O -0.3640(4) 0.0220(5) 0.5774(3)
O3A O -0.2654(4) -0.1186(5) 0.7590(3)
O3A_2 O -0.2654(4) 0.8814(5) 0.7590(3)
O4A O -0.2587(3) 0.5390(5) 0.8197(3)
H3A H -0.2316 0.4466 0.8541
H4A H -0.3173 0.5975 0.8543
O5A O -0.4670(3) 0.1328(5) 0.7562(3)
O6A O -0.2067(4) 0.2235(4) 0.7134(3)
O7B O -0.0378(4) -0.2263(4) 0.4805(3)
O7A O -0.0378(4) 0.7263(4) 0.9805(3)
O8B O -0.0184(3) -0.0688(4) 0.6292(2)
O8C O 0.0184(3) 0.4312(4) 0.8708(2)
O8B_2 O -0.0184(3) 0.9312(4) 0.6292(2)
C3B C -0.0160(5) -0.0857(6) 0.5313(4)
N1 N -0.4642(5) 0.3208(6) 0.4712(4)
H5 H -0.4517 0.2336 0.4289
C1 C -0.3513(6) 0.4526(8) 0.5053(5)
H6 H -0.2658 0.4284 0.4693
H7 H -0.3289 0.4404 0.5798
C2 C -0.5988(6) 0.3587(7) 0.5187(5)
H8 H -0.5863 0.3430 0.5939
H9 H -0.6704 0.2744 0.4923
N1B N -0.5358(5) 0.6792(6) 0.5288(4)
H5B H -0.5483 0.7664 0.5711
C1B C -0.6487(6) 0.5474(8) 0.4947(5)
H6B H -0.7342 0.5716 0.5307
H7B H -0.6711 0.5596 0.4202
C2B C -0.4012(6) 0.6413(7) 0.4813(5)
H8B H -0.4137 0.6570 0.4061
H9B H -0.3296 0.7256 0.5077
loop_
_geom_bond_atom_site_label_1
_geom_bond_atom_site_label_2
_geom_bond_site_symmetry_1
_geom_bond_site_symmetry_2
Eu1 O1 1_555 1_555
Se1 O2 1_555 1_555
O1 H1 1_555 1_555
H2 O1 1_555 1_555
O3 Eu1 1_555 1_555
O4 Eu1 1_555 1_555
H3 O4 1_555 1_555
H4 O4 1_555 1_555
O5 Se1 1_555 1_555
O6 Se1 1_555 1_555
O7 Eu1 1_555 1_555
O8 C3 1_555 1_555
N1 H5 1_555 1_555
C1 N1 1_555 1_555
H6 C1 1_555 1_555
H7 C1 1_555 1_555
C2 N1 1_555 1_555
H8 C2 1_555 1_555
H9 C2 1_555 1_555
C3 O7 1_555 1_555
Eu1A O6 1_555 1_555
Eu1A_2 O1 1_555 1_555
Eu1C O8 1_555 1_555
Eu1B O8 1_555 1_555
Se1A O2A 1_555 1_555
O1A Eu1 1_555 1_555
O1_2 Eu1A 1_555 1_555
H1A O1A 1_555 1_555
H1_2 O1_2 1_555 1_555
H2A O1A 1_555 1_555
H2_2 O1_2 1_555 1_555
O3A Eu1A_2 1_555 1_555
O3A_2 Eu1A 1_555 1_555
O4A Eu1A 1_555 1_555
H3A O4A 1_555 1_555
H4A O4A 1_555 1_555
O5A Se1A 1_555 1_555
O6A Eu1 1_555 1_555
O7B Eu1B 1_555 1_555
O7A Eu1A 1_555 1_555
O8B Eu1 1_555 1_555
O8C Eu1 1_555 1_555
O8B_2 Eu1A 1_555 1_555
N1B H5B 1_555 1_555
C1B C2 1_555 1_555
H6B C1B 1_555 1_555
H7B C1B 1_555 1_555
C2B C1 1_555 1_555
H8B C2B 1_555 1_555
H9B C2B 1_555 1_555
C3B C3 1_555 1_555
Se1 O3 1_555 1_555
Eu1A O1A 1_555 1_555
Eu1A O8C 1_555 1_555
Eu1A_2 O8B 1_555 1_555
Se1A O3A 1_555 1_555
Se1A O6A 1_555 1_555
O7B C3B 1_555 1_555
O8B C3B 1_555 1_555
N1B C1B 1_555 1_555
N1B C2B 1_555 1_555

#END
