
#######################################################################
#
#                 Cambridge Crystallographic Data Centre
#                                CCDC 
#
#######################################################################
#
# If this CIF has been generated from an entry in the Cambridge 
# Structural Database, then it will include bibliographic, chemical, 
# crystal, experimental, refinement or atomic coordinate data resulting 
# from the CCDC's data processing and validation procedures.
#
#######################################################################

data_DIVNED
_symmetry_cell_setting           triclinic
_symmetry_space_group_name_H-M   'P -1'
_symmetry_Int_Tables_number      2
_space_group_name_Hall           '-P 1'
loop_
_symmetry_equiv_pos_site_id
_symmetry_equiv_pos_as_xyz
1 x,y,z
2 -x,-y,-z
_cell_length_a                   6.0817(3)
_cell_length_b                   11.8807(5)
_cell_length_c                   16.0749(8)
_cell_angle_alpha                73.230(4)
_cell_angle_beta                 80.873(4)
_cell_angle_gamma                88.976(3)
_cell_volume                     1097.53
loop_
_atom_site_label
_atom_site_type_symbol
_atom_site_fract_x
_atom_site_fract_y
_atom_site_fract_z
Nd1 Nd 0.58901(6) 0.74065(3) 0.04348(2)
Nd2 Nd 0.30532(6) 0.56996(3) 0.31108(2)
Nd3 Nd 0.46766(6) 1.02485(3) 0.36179(2)
S1 S 0.3012(3) 0.88768(14) 0.20494(11)
O1 O 0.6596(8) 0.6436(4) 0.2009(3)
O2 O 0.9192(8) 0.5907(4) 0.2883(3)
O3 O 0.9836(8) 0.7177(4) 0.0629(3)
O4 O 1.2413(8) 0.6512(4) 0.1507(3)
O5 O 0.5445(9) 0.4022(4) 0.3637(4)
O6 O 0.5623(9) 0.2069(4) 0.3926(4)
O7 O 0.2691(9) 0.4043(4) 0.2474(3)
O8 O 0.3312(9) 0.2135(4) 0.2645(3)
O9 O 0.3840(9) 0.6370(4) -0.0353(3)
O10 O 0.3245(9) 0.4697(4) -0.0663(3)
O11 O 0.0954(9) 0.4145(4) 0.4316(3)
O12 O -0.0996(9) 0.3620(4) 0.5667(3)
O13 O 0.7299(8) 0.9857(4) 0.4773(3)
O14 O 1.0544(8) 1.0285(5) 0.3858(3)
O15 O 0.3806(10) 0.9891(4) 0.2287(3)
O16 O 0.3015(9) 0.7812(4) 0.2799(3)
O17 O 0.4538(9) 0.8750(4) 0.1277(3)
O18 O 0.0780(9) 0.9094(5) 0.1838(4)
C1 C 0.8587(11) 0.6303(6) 0.2156(4)
C2 C 1.0411(12) 0.6712(6) 0.1339(4)
C3 C 0.5006(12) 0.3073(6) 0.3517(5)
C4 C 0.3554(12) 0.3076(6) 0.2819(5)
C5 C 0.4133(12) 0.5314(6) -0.0284(5)
C6 C -0.0004(11) 0.4344(6) 0.4986(5)
C7 C 0.9398(12) 1.0050(6) 0.4599(4)
O19 O 0.7911(9) 0.9336(4) -0.0115(3)
O20 O 0.3427(9) 0.8755(4) -0.0584(4)
O21 O 0.8097(9) 0.7611(5) -0.1030(3)
O22 O 0.5652(9) 0.6086(5) 0.4091(4)
O23 O 0.3293(10) 0.8238(4) 0.4492(3)
O24 O 0.7410(9) 0.8734(5) 0.3306(4)
O25 O 0.7891(9) 1.1203(5) 0.2469(4)
O9A O 0.6160(9) 0.3630(4) 0.0353(3)
O10A O 0.6755(9) 0.5303(4) 0.0663(3)
C5A C 0.5867(12) 0.4686(6) 0.0284(5)
O11A O -0.0954(9) 0.5855(4) 0.5684(3)
O12A O 0.0996(9) 0.6380(4) 0.4333(3)
C6A C 0.0004(11) 0.5656(6) 0.5014(5)
O13A O 1.2701(8) 1.0143(4) 0.5227(3)
O14A O 0.9456(8) 0.9715(5) 0.6142(3)
C7A C 1.0602(12) 0.9950(6) 0.5401(4)
Nd1A Nd -0.58901(6) 0.25935(3) 0.95652(2)
Nd2A Nd -0.30532(6) 0.43004(3) 0.68892(2)
Nd3A Nd -0.46766(6) -0.02485(3) 0.63821(2)
S1A S -0.3012(3) 0.11232(14) 0.79506(11)
O1A O -0.6596(8) 0.3564(4) 0.7991(3)
O2A O -0.9192(8) 0.4093(4) 0.7117(3)
O3A O -0.9836(8) 0.2823(4) 0.9371(3)
O4A O -1.2413(8) 0.3488(4) 0.8493(3)
O5A O -0.5445(9) 0.5978(4) 0.6363(4)
O6A O -0.5623(9) 0.7931(4) 0.6074(4)
O7A O -0.2691(9) 0.5957(4) 0.7526(3)
O8A O -0.3312(9) 0.7865(4) 0.7355(3)
O15A O -0.3806(10) 0.0109(4) 0.7713(3)
O16A O -0.3015(9) 0.2188(4) 0.7201(3)
O17A O -0.4538(9) 0.1250(4) 0.8723(3)
O18A O -0.0780(9) 0.0906(5) 0.8162(4)
C1A C -0.8587(11) 0.3697(6) 0.7844(4)
C2A C -1.0411(12) 0.3288(6) 0.8661(4)
C3A C -0.5006(12) 0.6927(6) 0.6483(5)
C4A C -0.3554(12) 0.6924(6) 0.7181(5)
O19A O -0.7911(9) 0.0664(4) 1.0115(3)
O20A O -0.3427(9) 0.1245(4) 1.0584(4)
O21A O -0.8097(9) 0.2389(5) 1.1030(3)
O22A O -0.5652(9) 0.3914(5) 0.5909(4)
O23A O -0.3293(10) 0.1762(4) 0.5508(3)
O24A O -0.7410(9) 0.1266(5) 0.6694(4)
O25A O -0.7891(9) -0.1203(5) 0.7531(4)
Nd1_2 Nd 1.58901(6) 0.74065(3) 0.04348(2)
Nd1A_2 Nd -1.58901(6) 0.25935(3) 0.95652(2)
Nd1A_3 Nd 0.41099(6) 0.25935(3) -0.04348(2)
Nd2_2 Nd 1.30532(6) 0.56996(3) 0.31108(2)
Nd2A_2 Nd -1.30532(6) 0.43004(3) 0.68892(2)
Nd3_2 Nd 0.46766(6) 0.02485(3) 0.36179(2)
Nd3_3 Nd 1.46766(6) 1.02485(3) 0.36179(2)
Nd3A_2 Nd -0.46766(6) 0.97515(3) 0.63821(2)
Nd3A_3 Nd 0.53234(6) 0.97515(3) 0.63821(2)
Nd3A_4 Nd 1.53234(6) 0.97515(3) 0.63821(2)
O2_2 O -0.0808(8) 0.5907(4) 0.2883(3)
O2A_2 O 0.0808(8) 0.4093(4) 0.7117(3)
O4_2 O 0.2413(8) 0.6512(4) 0.1507(3)
O4A_2 O -0.2413(8) 0.3488(4) 0.8493(3)
O6_2 O 0.5623(9) 1.2069(4) 0.3926(4)
O6A_2 O -0.5623(9) -0.2069(4) 0.6074(4)
O8_2 O 0.3312(9) 1.2135(4) 0.2645(3)
O8A_2 O -0.3312(9) -0.2135(4) 0.7355(3)
O9A_2 O -0.3840(9) 0.3630(4) 1.0353(3)
O10_2 O -0.6755(9) 0.4697(4) 0.9337(3)
O13_2 O -0.2701(8) -0.0143(4) 0.4773(3)
O13A_2 O -0.7299(8) 0.0143(4) 0.5227(3)
O13A_3 O 0.2701(8) 1.0143(4) 0.5227(3)
O14_2 O 0.0544(8) 1.0285(5) 0.3858(3)
O14A_2 O -0.0544(8) -0.0285(5) 0.6142(3)
O26 O 0.8803(10) 0.3595(5) 0.1850(4)
loop_
_geom_bond_atom_site_label_1
_geom_bond_atom_site_label_2
_geom_bond_site_symmetry_1
_geom_bond_site_symmetry_2
Nd1 O1 1_555 1_555
Nd2 O1 1_555 1_555
Nd3 O13 1_555 1_555
S1 O15 1_555 1_555
O1 C1 1_555 1_555
O2 C1 1_555 1_555
O3 Nd1 1_555 1_555
O4 C2 1_555 1_555
O5 Nd2 1_555 1_555
O6 C3 1_555 1_555
O7 Nd2 1_555 1_555
O8 C4 1_555 1_555
O9 Nd1 1_555 1_555
O10 C5 1_555 1_555
O11 Nd2 1_555 1_555
O12 C6 1_555 1_555
O13 C7 1_555 1_555
O14 C7 1_555 1_555
O15 Nd3 1_555 1_555
O16 Nd2 1_555 1_555
O17 Nd1 1_555 1_555
O18 S1 1_555 1_555
C1 C2 1_555 1_555
C2 O3 1_555 1_555
C3 O5 1_555 1_555
C4 O7 1_555 1_555
C5 O9 1_555 1_555
C6 O11 1_555 1_555
C7 C7A 1_555 1_555
O19 Nd1 1_555 1_555
O20 Nd1 1_555 1_555
O21 Nd1 1_555 1_555
O22 Nd2 1_555 1_555
O23 Nd3 1_555 1_555
O24 Nd3 1_555 1_555
O25 Nd3 1_555 1_555
O9A C5A 1_555 1_555
O10A Nd1 1_555 1_555
C5A C5 1_555 1_555
O11A C6A 1_555 1_555
O12A Nd2 1_555 1_555
C6A C6 1_555 1_555
O13A C7A 1_555 1_555
O14A C7A 1_555 1_555
Nd1A O1A 1_555 1_555
Nd2A O12 1_555 1_555
Nd3A O15A 1_555 1_555
S1A O15A 1_555 1_555
O1A Nd2A 1_555 1_555
O2A C1A 1_555 1_555
O3A Nd1A 1_555 1_555
O4A C2A 1_555 1_555
O5A Nd2A 1_555 1_555
O6A C3A 1_555 1_555
O7A Nd2A 1_555 1_555
O8A C4A 1_555 1_555
O16A Nd2A 1_555 1_555
O17A Nd1A 1_555 1_555
O18A S1A 1_555 1_555
C1A O1A 1_555 1_555
C2A O3A 1_555 1_555
C3A O5A 1_555 1_555
C4A O7A 1_555 1_555
O19A Nd1A 1_555 1_555
O20A Nd1A 1_555 1_555
O21A Nd1A 1_555 1_555
O22A Nd2A 1_555 1_555
O23A Nd3A 1_555 1_555
O24A Nd3A 1_555 1_555
O25A Nd3A 1_555 1_555
Nd1_2 O4 1_555 1_555
Nd1A_2 O4A 1_555 1_555
Nd1A_3 O10 1_555 1_555
Nd2_2 O2 1_555 1_555
Nd2A_2 O2A 1_555 1_555
Nd3_2 O6 1_555 1_555
Nd3_3 O14 1_555 1_555
Nd3A_2 O6A 1_555 1_555
Nd3A_3 O13 1_555 1_555
Nd3A_4 O13A 1_555 1_555
O2_2 Nd2 1_555 1_555
O2A_2 Nd2A 1_555 1_555
O4_2 Nd1 1_555 1_555
O4A_2 Nd1A 1_555 1_555
O6_2 Nd3 1_555 1_555
O6A_2 Nd3A 1_555 1_555
O8_2 Nd3 1_555 1_555
O8A_2 Nd3A 1_555 1_555
O9A_2 Nd1A 1_555 1_555
O10_2 Nd1A 1_555 1_555
O13_2 Nd3A 1_555 1_555
O13A_2 Nd3A 1_555 1_555
O13A_3 Nd3 1_555 1_555
O14_2 Nd3 1_555 1_555
O14A_2 Nd3A 1_555 1_555
Nd2 O4_2 1_555 1_555
S1 O16 1_555 1_555
S1 O17 1_555 1_555
O4 Nd2_2 1_555 1_555
O8 Nd3_2 1_555 1_555
C3 C4 1_555 1_555
O9A Nd1A_3 1_555 1_555
O10A C5A 1_555 1_555
O11A Nd2A 1_555 1_555
O12A C6A 1_555 1_555
O13A Nd3_3 1_555 1_555
O14A Nd3A_3 1_555 1_555
Nd2A O4A_2 1_555 1_555
S1A O16A 1_555 1_555
S1A O17A 1_555 1_555
O4A Nd2A_2 1_555 1_555
O8A Nd3A_2 1_555 1_555
C1A C2A 1_555 1_555
C3A C4A 1_555 1_555
Nd3A_3 O13A_3 1_555 1_555

#END
