
#######################################################################
#
#                 Cambridge Crystallographic Data Centre
#                                CCDC 
#
#######################################################################
#
# If this CIF has been generated from an entry in the Cambridge 
# Structural Database, then it will include bibliographic, chemical, 
# crystal, experimental, refinement or atomic coordinate data resulting 
# from the CCDC's data processing and validation procedures.
#
#######################################################################

data_DIVTOS
_symmetry_cell_setting           triclinic
_symmetry_space_group_name_H-M   'P -1'
_symmetry_Int_Tables_number      2
_space_group_name_Hall           '-P 1'
loop_
_symmetry_equiv_pos_site_id
_symmetry_equiv_pos_as_xyz
1 x,y,z
2 -x,-y,-z
_cell_length_a                   14.9613(2)
_cell_length_b                   15.8582(4)
_cell_length_c                   18.5100(8)
_cell_angle_alpha                86.332(7)
_cell_angle_beta                 83.536(6)
_cell_angle_gamma                72.881(5)
_cell_volume                     4168.22
loop_
_atom_site_label
_atom_site_type_symbol
_atom_site_fract_x
_atom_site_fract_y
_atom_site_fract_z
Er1 Er 0.39578(3) -0.08644(3) -0.492500(19)
Er2 Er 0.07562(3) -0.17310(2) -0.493970(17)
Er3 Er 0.86129(3) -0.31538(2) -0.511450(18)
Er4 Er 0.64268(3) -0.44157(2) -0.475890(18)
Cu1 Cu 0.06784(9) -0.00845(8) 0.04597(6)
Cu2 Cu 0.19988(9) -0.14125(9) -0.03524(6)
Cu3 Cu 0.34519(10) -0.15693(9) -0.94762(6)
Cu4 Cu 0.47062(10) -0.26378(11) -0.04608(6)
Cu5 Cu 0.53455(12) -0.29184(10) -0.92230(7)
Cu6 Cu 0.67336(9) -0.28836(9) -1.02617(6)
Cu7 Cu 0.78386(13) -0.42779(10) 0.04910(7)
Cu8 Cu -0.05360(10) -0.42938(10) -0.04678(6)
I1 I 0.02893(4) -0.14936(4) 0.00574(3)
I2 I 0.24535(4) -0.00162(4) 0.00491(3)
I3 I 0.31731(4) -0.29840(4) 0.00806(3)
I4 I 0.52656(4) -0.13983(4) -0.98397(3)
I5 I 0.60877(4) -0.42692(4) -1.00814(3)
I6 I 0.82790(5) -0.28428(4) 0.02440(4)
I7 I 0.89640(4) -0.57186(4) -0.00793(3)
C1 C 0.5185(6) -0.5865(5) -0.4037(4)
C2 C 0.5121(6) -0.6216(6) -0.3269(4)
C3 C 0.4690(8) -0.6864(7) -0.3063(5)
H1 H 0.4463 -0.7121 -0.3412
C4 C 0.4594(9) -0.7135(8) -0.2339(5)
H2 H 0.4318 -0.7585 -0.2214
C5 C 0.5332(8) -0.6181(8) -0.2016(5)
H3 H 0.5581 -0.5956 -0.1660
C6 C 0.5455(7) -0.5875(7) -0.2730(5)
H4 H 0.5760 -0.5443 -0.2840
C7 C -0.0041(6) 0.0038(6) -0.3910(4)
C8 C -0.0199(6) 0.0051(5) -0.3088(4)
C9 C -0.0653(7) -0.0499(6) -0.2698(4)
H5 H -0.0870 -0.0891 -0.2931
C10 C -0.0776(7) -0.0449(7) -0.1950(5)
H6 H -0.1098 -0.0811 -0.1692
C11 C -0.0035(8) 0.0598(7) -0.1960(5)
H7 H 0.0176 0.0983 -0.1713
C12 C 0.0123(8) 0.0603(7) -0.2705(5)
H8 H 0.0442 0.0975 -0.2950
C13 C 0.2469(5) -0.1086(5) -0.6089(4)
C14 C 0.2720(5) -0.1246(5) -0.6880(4)
C15 C 0.2346(7) -0.1766(7) -0.7255(5)
H9 H 0.1927 -0.2047 -0.7016
C16 C 0.2608(8) -0.1860(7) -0.7999(5)
H10 H 0.2352 -0.2213 -0.8245
C17 C 0.3544(7) -0.0975(8) -0.8023(5)
H11 H 0.3944 -0.0686 -0.8282
C18 C 0.3340(7) -0.0854(7) -0.7281(5)
H12 H 0.3620 -0.0508 -0.7050
C19 C 0.7137(7) -0.5634(7) -0.6273(5)
C20 C 0.7289(6) -0.5255(6) -0.7029(4)
C21 C 0.7112(8) -0.5665(7) -0.7607(5)
H13 H 0.6899 -0.6161 -0.7529
C22 C 0.7256(9) -0.5330(8) -0.8306(5)
H14 H 0.7126 -0.5606 -0.8693
C23 C 0.7750(9) -0.4251(8) -0.7888(6)
H15 H 0.7991 -0.3772 -0.7980
C24 C 0.7598(9) -0.4529(7) -0.7172(5)
H16 H 0.7705 -0.4224 -0.6793
C25 C 0.5118(6) -0.2540(7) -0.3886(4)
C26 C 0.5000(6) -0.2557(6) -0.3067(4)
C27 C 0.4919(8) -0.3294(7) -0.2667(5)
H17 H 0.4934 -0.3801 -0.2900
C28 C 0.4814(8) -0.3280(8) -0.1920(5)
H18 H 0.4745 -0.3782 -0.1659
C29 C 0.4882(8) -0.1864(7) -0.1942(5)
H19 H 0.4882 -0.1370 -0.1698
C30 C 0.4959(8) -0.1817(7) -0.2688(5)
H20 H 0.4984 -0.1295 -0.2937
C31 C 0.7807(6) -0.2044(6) -0.3570(4)
C32 C 0.7516(6) -0.2224(6) -0.2787(4)
C33 C 0.7384(6) -0.3037(6) -0.2564(5)
H21 H 0.7461 -0.3472 -0.2899
C34 C 0.7135(7) -0.3185(6) -0.1833(5)
H22 H 0.7048 -0.3730 -0.1690
C35 C 0.7141(7) -0.1816(7) -0.1550(5)
H23 H 0.7057 -0.1392 -0.1204
C36 C 0.7390(7) -0.1608(7) -0.2259(5)
H24 H 0.7474 -0.1057 -0.2385
C37 C 0.0043(5) -0.3278(5) -0.3826(4)
C38 C -0.0045(6) -0.3559(6) -0.3038(4)
C39 C -0.0220(7) -0.4348(6) -0.2810(5)
H25 H -0.0254 -0.4741 -0.3151
C40 C -0.0344(7) -0.4553(7) -0.2075(5)
H26 H -0.0434 -0.5099 -0.1937
C41 C -0.0187(8) -0.3251(8) -0.1774(5)
H27 H -0.0184 -0.2860 -0.1421
C42 C -0.0029(8) -0.3001(7) -0.2501(5)
H28 H 0.0085 -0.2462 -0.2624
C43 C 0.2224(6) -0.1210(6) -0.3802(4)
C44 C 0.2189(6) -0.1301(6) -0.2984(4)
C45 C 0.1850(8) -0.1918(7) -0.2595(5)
H29 H 0.1627 -0.2306 -0.2828
C46 C 0.1843(9) -0.1959(7) -0.1837(5)
H30 H 0.1624 -0.2393 -0.1579
C47 C 0.2458(8) -0.0827(7) -0.1855(5)
H31 H 0.2670 -0.0439 -0.1613
C48 C 0.2503(9) -0.0756(8) -0.2600(5)
H32 H 0.2750 -0.0332 -0.2846
C49 C 0.5662(5) -0.0747(6) -0.6067(4)
C50 C 0.7638(6) -0.2032(6) -0.6215(5)
C51 C 0.7149(6) -0.1582(6) -0.6863(4)
C52 C 0.7617(7) -0.1749(7) -0.7552(5)
H33 H 0.8217 -0.2143 -0.7602
C53 C 0.7214(8) -0.1347(7) -0.8161(5)
H34 H 0.7551 -0.1446 -0.8617
C54 C 0.6307(7) -0.0794(6) -0.8094(5)
H35 H 0.6016 -0.0543 -0.8506
C55 C 0.5835(7) -0.0614(6) -0.7410(5)
H36 H 0.5230 -0.0229 -0.7364
C56 C 0.6249(6) -0.1000(5) -0.6793(4)
C57 C 0.0585(6) -0.3284(5) -0.6108(4)
C58 C 0.2436(6) -0.4768(6) -0.6318(4)
C59 C 0.1944(6) -0.4253(6) -0.6936(4)
C60 C 0.2365(6) -0.4451(6) -0.7642(4)
H37 H 0.2928 -0.4900 -0.7709
C61 C 0.1967(7) -0.3999(6) -0.8241(5)
H38 H 0.2259 -0.4140 -0.8706
C62 C 0.1118(7) -0.3322(6) -0.8143(4)
H39 H 0.0844 -0.3007 -0.8543
C63 C 0.0688(6) -0.3126(6) -0.7438(4)
H40 H 0.0114 -0.2692 -0.7371
C64 C 0.1106(6) -0.3569(5) -0.6837(4)
N1 N 0.4886(6) -0.6769(5) -0.1816(4)
N2 N -0.0470(5) 0.0075(5) -0.1572(3)
N3 N 0.3196(5) -0.1480(5) -0.8378(4)
N4 N 0.7571(6) -0.4631(6) -0.8444(4)
N5 N 0.4805(5) -0.2579(6) -0.1547(4)
N6 N 0.7012(5) -0.2598(5) -0.1326(4)
N7 N -0.0342(6) -0.4012(5) -0.1554(4)
N8 N 0.2129(6) -0.1417(5) -0.1463(4)
O1 O 0.8981(5) -0.4698(4) -0.5209(4)
O2 O 0.5700(5) -0.5381(5) -0.4200(3)
O3 O 0.2181(4) -0.2936(4) -0.4987(3)
O4 O 0.4699(5) -0.6067(4) -0.4467(3)
O5 O -0.0118(4) -0.0626(4) -0.4205(3)
O6 O 0.3469(5) 0.0557(4) -0.5419(4)
O7 O 0.0138(4) 0.0693(4) -0.4233(3)
O8 O 0.3821(5) -0.2307(4) -0.5083(4)
O9 O 0.2973(5) -0.0749(5) -0.5789(3)
O10 O -0.0952(4) -0.1760(4) -0.4960(3)
O11 O 0.1785(4) -0.1311(4) -0.5781(3)
O12 O 0.7134(6) -0.5159(5) -0.5754(3)
O13 O 0.7026(6) -0.6368(6) -0.6204(4)
O14 O 0.5348(4) -0.3254(4) -0.4189(3)
O15 O 0.4987(5) -0.1800(5) -0.4204(3)
O16 O 0.7860(5) -0.2616(4) -0.4020(3)
O17 O 0.8001(5) -0.1322(4) -0.3723(3)
O18 O 0.0407(5) -0.2663(4) -0.3990(3)
O19 O -0.0277(4) -0.3665(4) -0.4271(3)
O20 O 0.1715(5) -0.1560(5) -0.4096(3)
O21 O 0.2751(5) -0.0789(5) -0.4106(3)
O22 O 0.5162(5) -0.1230(5) -0.5826(3)
O23 O 0.5677(5) -0.0054(5) -0.5802(4)
O24 O 0.8383(5) -0.2646(6) -0.6316(4)
O25 O 0.7309(5) -0.1808(4) -0.5586(3)
O26 O 0.0019(4) -0.3684(4) -0.5836(3)
O27 O 0.0730(4) -0.2622(4) -0.5850(3)
O28 O 0.3083(4) -0.5457(4) -0.6444(3)
O29 O 0.2207(4) -0.4493(4) -0.5668(3)
O30 O 0.7236(4) -0.3467(4) -0.5058(4)
Er1A Er 0.60422(3) 0.08644(3) -0.507500(19)
Er2A Er -0.07562(3) 0.17310(2) -0.506030(17)
Er3_2 Er -0.13871(3) -0.31538(2) -0.511450(18)
Er4A Er 0.35732(3) -0.55843(2) -0.524110(18)
Cu1A Cu -0.06784(9) 0.00845(8) -0.04597(6)
Cu3_2 Cu 0.34519(10) -0.15693(9) 0.05238(6)
Cu4_2 Cu 0.47062(10) -0.26378(11) -1.04608(6)
Cu5_2 Cu 0.53455(12) -0.29184(10) 0.07770(7)
Cu5A Cu 0.46545(12) -0.70816(10) -0.07770(7)
Cu6_2 Cu 0.67336(9) -0.28836(9) -0.02617(6)
Cu7_2 Cu 0.78386(13) -0.42779(10) -0.95090(7)
Cu8_2 Cu 0.94640(10) -0.42938(10) -1.04678(6)
Cu8_3 Cu 0.94640(10) -0.42938(10) -0.04678(6)
Cu8A Cu 1.05360(10) -0.57062(10) 0.04678(6)
I1A I -0.02893(4) 0.14936(4) -0.00574(3)
I2_2 I 0.24535(4) -0.00162(4) -0.99509(3)
I3_2 I 0.31731(4) -0.29840(4) -0.99194(3)
I4_2 I 0.52656(4) -0.13983(4) 0.01603(3)
I5_2 I 0.60877(4) -0.42692(4) -0.00814(3)
I6_2 I 0.82790(5) -0.28428(4) -0.97560(4)
I6_3 I -0.17210(5) -0.28428(4) 0.02440(4)
I7_2 I -0.10360(4) -0.57186(4) -0.00793(3)
I7A I 0.10360(4) -0.42814(4) 0.00793(3)
N1A N 0.5114(6) -0.3231(5) -0.8184(4)
N2A N 0.0470(5) -0.0075(5) 0.1572(3)
N4_2 N 0.7571(6) -0.4631(6) 0.1556(4)
N6_2 N 0.7012(5) -0.2598(5) -1.1326(4)
O4A O 0.5301(5) -0.3933(4) -0.5533(3)
O7A O -0.0138(4) -0.0693(4) -0.5767(3)
O10_2 O 0.9048(4) -0.1760(4) -0.4960(3)
O19_2 O 0.9723(4) -0.3665(4) -0.4271(3)
O23A O 0.4323(5) 0.0054(5) -0.4198(4)
O26_2 O 1.0019(4) -0.3684(4) -0.5836(3)
O28A O 0.6917(4) -0.4543(4) -0.3556(3)
O29A O 0.7793(4) -0.5507(4) -0.4332(3)
loop_
_geom_bond_atom_site_label_1
_geom_bond_atom_site_label_2
_geom_bond_site_symmetry_1
_geom_bond_site_symmetry_2
Er1 O6 1_555 1_555
Er2 O3 1_555 1_555
Er3 O1 1_555 1_555
Er4 O2 1_555 1_555
Cu1 I1 1_555 1_555
Cu2 I1 1_555 1_555
Cu3 I4 1_555 1_555
Cu4 I3 1_555 1_555
Cu5 I4 1_555 1_555
Cu6 I4 1_555 1_555
Cu7 I6 1_555 1_555
Cu8 N7 1_555 1_555
I1 Cu1A 1_555 1_555
I2 Cu1 1_555 1_555
I3 Cu2 1_555 1_555
I4 Cu4_2 1_555 1_555
I5 Cu5 1_555 1_555
I6 Cu6_2 1_555 1_555
I7 Cu7 1_555 1_555
C1 C2 1_555 1_555
C2 C3 1_555 1_555
C3 H1 1_555 1_555
C4 C3 1_555 1_555
H2 C4 1_555 1_555
C5 H3 1_555 1_555
C6 C2 1_555 1_555
H4 C6 1_555 1_555
C7 C8 1_555 1_555
C8 C9 1_555 1_555
C9 H5 1_555 1_555
C10 C9 1_555 1_555
H6 C10 1_555 1_555
C11 H7 1_555 1_555
C12 C8 1_555 1_555
H8 C12 1_555 1_555
C13 C14 1_555 1_555
C14 C15 1_555 1_555
C15 H9 1_555 1_555
C16 C15 1_555 1_555
H10 C16 1_555 1_555
C17 H11 1_555 1_555
C18 C14 1_555 1_555
H12 C18 1_555 1_555
C19 C20 1_555 1_555
C20 C21 1_555 1_555
C21 H13 1_555 1_555
C22 C21 1_555 1_555
H14 C22 1_555 1_555
C23 H15 1_555 1_555
C24 C20 1_555 1_555
H16 C24 1_555 1_555
C25 C26 1_555 1_555
C26 C27 1_555 1_555
C27 H17 1_555 1_555
C28 C27 1_555 1_555
H18 C28 1_555 1_555
C29 H19 1_555 1_555
C30 C26 1_555 1_555
H20 C30 1_555 1_555
C31 C32 1_555 1_555
C32 C33 1_555 1_555
C33 H21 1_555 1_555
C34 C33 1_555 1_555
H22 C34 1_555 1_555
C35 H23 1_555 1_555
C36 C32 1_555 1_555
H24 C36 1_555 1_555
C37 C38 1_555 1_555
C38 C39 1_555 1_555
C39 H25 1_555 1_555
C40 C39 1_555 1_555
H26 C40 1_555 1_555
C41 H27 1_555 1_555
C42 C38 1_555 1_555
H28 C42 1_555 1_555
C43 C44 1_555 1_555
C44 C45 1_555 1_555
C45 H29 1_555 1_555
C46 C45 1_555 1_555
H30 C46 1_555 1_555
C47 H31 1_555 1_555
C48 C44 1_555 1_555
H32 C48 1_555 1_555
C49 C56 1_555 1_555
C50 C51 1_555 1_555
C51 C52 1_555 1_555
C52 H33 1_555 1_555
C53 C52 1_555 1_555
H34 C53 1_555 1_555
C54 C53 1_555 1_555
H35 C54 1_555 1_555
C55 C54 1_555 1_555
H36 C55 1_555 1_555
C56 C51 1_555 1_555
C57 C64 1_555 1_555
C58 C59 1_555 1_555
C59 C60 1_555 1_555
C60 H37 1_555 1_555
C61 C60 1_555 1_555
H38 C61 1_555 1_555
C62 C61 1_555 1_555
H39 C62 1_555 1_555
C63 C62 1_555 1_555
H40 C63 1_555 1_555
C64 C59 1_555 1_555
N1 C4 1_555 1_555
N2 C10 1_555 1_555
N3 Cu3 1_555 1_555
N4 C22 1_555 1_555
N5 Cu4 1_555 1_555
N6 C34 1_555 1_555
N7 C40 1_555 1_555
N8 Cu2 1_555 1_555
O2 C1 1_555 1_555
O4 C1 1_555 1_555
O5 Er2 1_555 1_555
O7 C7 1_555 1_555
O8 Er1 1_555 1_555
O9 Er1 1_555 1_555
O10 Er2 1_555 1_555
O11 Er2 1_555 1_555
O12 Er4 1_555 1_555
O13 C19 1_555 1_555
O14 Er4 1_555 1_555
O15 Er1 1_555 1_555
O16 Er3 1_555 1_555
O17 C31 1_555 1_555
O18 Er2 1_555 1_555
O19 C37 1_555 1_555
O20 Er2 1_555 1_555
O21 Er1 1_555 1_555
O22 Er1 1_555 1_555
O23 C49 1_555 1_555
O24 Er3 1_555 1_555
O25 Er3 1_555 1_555
O26 C57 1_555 1_555
O27 Er2 1_555 1_555
O28 C58 1_555 1_555
O29 C58 1_555 1_555
O30 Er3 1_555 1_555
Er1A O23 1_555 1_555
Er2A O7 1_555 1_555
Er3_2 O10 1_555 1_555
Er4A O4 1_555 1_555
Cu1A N2 1_555 1_555
Cu3_2 I2 1_555 1_555
Cu4_2 I5 1_555 1_555
Cu5_2 I4_2 1_555 1_555
Cu5A N1 1_555 1_555
Cu6_2 N6 1_555 1_555
Cu7_2 I5 1_555 1_555
Cu8_2 I6_2 1_555 1_555
Cu8_3 I6 1_555 1_555
Cu8A I7 1_555 1_555
I1A Cu1 1_555 1_555
I2_2 Cu3 1_555 1_555
I3_2 Cu3 1_555 1_555
I4_2 Cu4 1_555 1_555
I5_2 Cu4 1_555 1_555
I6_2 Cu6 1_555 1_555
I6_3 Cu8 1_555 1_555
I7_2 Cu8 1_555 1_555
I7A Cu8 1_555 1_555
N1A Cu5 1_555 1_555
N2A Cu1 1_555 1_555
N4_2 Cu7 1_555 1_555
N6_2 Cu6 1_555 1_555
O4A Er4 1_555 1_555
O7A Er2 1_555 1_555
O10_2 Er3 1_555 1_555
O19_2 Er3 1_555 1_555
O23A Er1 1_555 1_555
O26_2 Er3 1_555 1_555
O28A Er4 1_555 1_555
O29A Er4 1_555 1_555
Er4 O30 1_555 1_555
Cu2 I2 1_555 1_555
Cu6 I5 1_555 1_555
Cu7 I5_2 1_555 1_555
I3 Cu3_2 1_555 1_555
I7 Cu8_3 1_555 1_555
C5 C6 1_555 1_555
C5 N1 1_555 1_555
C7 O5 1_555 1_555
C11 C12 1_555 1_555
C11 N2 1_555 1_555
C13 O9 1_555 1_555
C13 O11 1_555 1_555
C16 N3 1_555 1_555
C17 C18 1_555 1_555
C17 N3 1_555 1_555
C19 O12 1_555 1_555
C23 C24 1_555 1_555
C23 N4 1_555 1_555
C25 O14 1_555 1_555
C25 O15 1_555 1_555
C28 N5 1_555 1_555
C29 C30 1_555 1_555
C29 N5 1_555 1_555
C31 O16 1_555 1_555
C35 C36 1_555 1_555
C35 N6 1_555 1_555
C37 O18 1_555 1_555
C41 C42 1_555 1_555
C41 N7 1_555 1_555
C43 O20 1_555 1_555
C43 O21 1_555 1_555
C46 N8 1_555 1_555
C47 C48 1_555 1_555
C47 N8 1_555 1_555
C49 O22 1_555 1_555
C50 O24 1_555 1_555
C50 O25 1_555 1_555
C55 C56 1_555 1_555
C57 O27 1_555 1_555
C63 C64 1_555 1_555
N4 Cu7_2 1_555 1_555
O19 Er3_2 1_555 1_555
O26 Er3_2 1_555 1_555
O28 Er4A 1_555 1_555
O29 Er4A 1_555 1_555
Cu1A I1A 1_555 1_555
Cu3_2 I4_2 1_555 1_555
Cu4_2 I3_2 1_555 1_555
Cu5_2 I5_2 1_555 1_555
Cu6_2 I4_2 1_555 1_555
Cu6_2 I5_2 1_555 1_555
Cu7_2 I6_2 1_555 1_555

#END
