
#######################################################################
#
#                 Cambridge Crystallographic Data Centre
#                                CCDC 
#
#######################################################################
#
# If this CIF has been generated from an entry in the Cambridge 
# Structural Database, then it will include bibliographic, chemical, 
# crystal, experimental, refinement or atomic coordinate data resulting 
# from the CCDC's data processing and validation procedures.
#
#######################################################################

data_DIWCES
_symmetry_cell_setting           monoclinic
_symmetry_space_group_name_H-M   'C 2/c'
_symmetry_Int_Tables_number      15
_space_group_name_Hall           '-C 2yn'
loop_
_symmetry_equiv_pos_site_id
_symmetry_equiv_pos_as_xyz
1 x,y,z
2 1/2+x,1/2+y,z
3 -x,y,1/2-z
4 1/2-x,1/2+y,1/2-z
5 -x,-y,-z
6 1/2-x,1/2-y,-z
7 x,-y,1/2+z
8 1/2+x,1/2-y,1/2+z
_cell_length_a                   13.6695(9)
_cell_length_b                   11.5996(8)
_cell_length_c                   17.1524(12)
_cell_angle_alpha                90
_cell_angle_beta                 93.6730(10)
_cell_angle_gamma                90
_cell_volume                     2714.11
loop_
_atom_site_label
_atom_site_type_symbol
_atom_site_fract_x
_atom_site_fract_y
_atom_site_fract_z
I1 I 1.148788(12) 0.444480(16) 0.447736(11)
Cu1 Cu 0.96090(3) 0.53429(3) 0.42665(3)
S1 S 0.78569(6) 0.06493(7) 0.25605(5)
S2 S 0.93412(6) 0.07621(7) 0.12943(6)
C1 C 0.89439(18) 0.3846(2) 0.29536(18)
H1 H 0.9160 0.4464 0.2665
C2 C 0.86239(19) 0.2875(2) 0.25519(17)
H2 H 0.8626 0.2845 0.2010
C3 C 0.82977(17) 0.1943(2) 0.29706(17)
C4 C 0.83090(19) 0.2054(2) 0.37750(17)
H3 H 0.8091 0.1452 0.4077
C5 C 0.8642(2) 0.3052(2) 0.41235(18)
H4 H 0.8646 0.3107 0.4665
C6 C 0.8086(2) 0.0805(3) 0.15416(19)
H5 H 0.7734 0.0198 0.1253
H6 H 0.7808 0.1533 0.1360
C7 C 0.9626(2) -0.0709(2) 0.12739(19)
C8 C 1.0475(2) -0.1013(3) 0.0923(2)
H7 H 1.0879 -0.0444 0.0736
C9 C 1.0720(2) -0.2148(3) 0.0852(2)
H8 H 1.1296 -0.2325 0.0618
C10 C 0.9377(2) -0.2721(3) 0.1465(2)
H9 H 0.8998 -0.3305 0.1663
C11 C 0.9081(2) -0.1599(3) 0.1567(2)
H10 H 0.8522 -0.1440 0.1829
N1 N 0.89648(15) 0.39579(19) 0.37225(14)
N2 N 1.01744(16) -0.3027(2) 0.11012(15)
I1D I 0.851212(12) 0.555520(16) 0.552264(11)
Cu1D Cu 1.03910(3) 0.46571(3) 0.57335(3)
Cu1B Cu 1.03910(3) -0.46571(3) 0.07335(3)
N2B N 0.98256(16) 0.6973(2) 0.38988(15)
loop_
_geom_bond_atom_site_label_1
_geom_bond_atom_site_label_2
_geom_bond_site_symmetry_1
_geom_bond_site_symmetry_2
I1 Cu1 1_555 1_555
Cu1 N1 1_555 1_555
S1 C3 1_555 1_555
S2 C6 1_555 1_555
C1 H1 1_555 1_555
C2 C1 1_555 1_555
H2 C2 1_555 1_555
C3 C2 1_555 1_555
C4 C3 1_555 1_555
H3 C4 1_555 1_555
C5 C4 1_555 1_555
H4 C5 1_555 1_555
C6 S1 1_555 1_555
H5 C6 1_555 1_555
H6 C6 1_555 1_555
C7 S2 1_555 1_555
C8 C7 1_555 1_555
H7 C8 1_555 1_555
C9 C8 1_555 1_555
H8 C9 1_555 1_555
C10 H9 1_555 1_555
C11 C7 1_555 1_555
H10 C11 1_555 1_555
N1 C1 1_555 1_555
N2 C9 1_555 1_555
I1D Cu1 1_555 1_555
Cu1D I1 1_555 1_555
Cu1B N2 1_555 1_555
N2B Cu1 1_555 1_555
C5 N1 1_555 1_555
C10 C11 1_555 1_555
C10 N2 1_555 1_555
I1D Cu1D 1_555 1_555

#END
