
#######################################################################
#
#                 Cambridge Crystallographic Data Centre
#                                CCDC 
#
#######################################################################
#
# If this CIF has been generated from an entry in the Cambridge 
# Structural Database, then it will include bibliographic, chemical, 
# crystal, experimental, refinement or atomic coordinate data resulting 
# from the CCDC's data processing and validation procedures.
#
#######################################################################

data_DIWJIE
_symmetry_cell_setting           monoclinic
_symmetry_space_group_name_H-M   'P 21/c'
_symmetry_Int_Tables_number      14
_space_group_name_Hall           '-P 2ybc'
loop_
_symmetry_equiv_pos_site_id
_symmetry_equiv_pos_as_xyz
1 x,y,z
2 -x,1/2+y,1/2-z
3 -x,-y,-z
4 x,1/2-y,1/2+z
_cell_length_a                   12.444(3)
_cell_length_b                   12.461(3)
_cell_length_c                   11.530(2)
_cell_angle_alpha                90
_cell_angle_beta                 103.31(3)
_cell_angle_gamma                90
_cell_volume                     1739.87
loop_
_atom_site_label
_atom_site_type_symbol
_atom_site_fract_x
_atom_site_fract_y
_atom_site_fract_z
Mn1 Mn 0.74402(2) 0.21918(2) 0.04721(2)
O1 O 0.73931(11) 0.11782(10) 0.20410(10)
O2 O 0.74769(12) 0.21069(10) 0.37159(11)
O3 O 0.83493(10) 0.03403(9) 0.50321(10)
O4 O 0.90329(12) -0.00200(11) 0.73887(11)
O5 O 0.96339(13) -0.16590(11) 0.70805(12)
C1 C 0.76343(14) 0.12793(13) 0.31567(14)
C2 C 0.81427(15) 0.03197(14) 0.38175(14)
C3 C 0.85147(16) -0.06094(14) 0.34411(16)
H1 H 0.8473 -0.0813 0.2656
C4 C 0.89796(16) -0.12085(15) 0.44773(17)
H2 H 0.9303 -0.1883 0.4505
C5 C 0.88628(15) -0.06111(14) 0.54217(16)
C6 C 0.91995(15) -0.07699(14) 0.67335(16)
N1 N 0.55623(14) 0.23846(12) -0.00447(15)
N2 N 0.67279(13) 0.07333(12) -0.06162(13)
C7 C 0.50085(19) 0.32038(18) 0.0299(2)
H3 H 0.5409 0.3743 0.0764
C8 C 0.3870(2) 0.3282(2) -0.0006(2)
H4 H 0.3515 0.3864 0.0247
C9 C 0.3271(2) 0.2484(2) -0.0691(3)
H5 H 0.2505 0.2516 -0.0910
C10 C 0.38302(18) 0.16384(19) -0.1046(2)
H6 H 0.3440 0.1089 -0.1504
C11 C 0.49769(16) 0.16034(15) -0.07190(16)
C12 C 0.56266(16) 0.07073(15) -0.10634(15)
C13 C 0.5135(2) -0.01294(18) -0.17939(19)
H7 H 0.4374 -0.0141 -0.2094
C14 C 0.5786(2) -0.09409(18) -0.2069(2)
H8 H 0.5467 -0.1505 -0.2556
C15 C 0.6909(2) -0.09110(17) -0.1619(2)
H9 H 0.7363 -0.1447 -0.1803
C16 C 0.73481(18) -0.00628(15) -0.08849(18)
H10 H 0.8106 -0.0047 -0.0566
O6 O 0.75049(13) 0.34642(11) 0.17567(11)
H11 H 0.7989(17) 0.3953(16) 0.190(2)
H12 H 0.7452(19) 0.3187(17) 0.2391(17)
O7 O 0.91082(12) 0.17289(14) 0.07054(13)
H13 H 0.9531(18) 0.168(2) 0.1374(14)
H14 H 0.9475(19) 0.165(2) 0.0191(16)
Mn1C Mn 0.74402(2) 0.28082(2) 0.54721(2)
O2C O 0.74769(12) 0.28931(10) -0.12841(11)
O8 O 1.02945(14) 0.13788(13) -0.09502(13)
H15 H 0.996(2) 0.0912(15) -0.142(2)
H16 H 1.029(2) 0.1950(14) -0.130(2)
loop_
_geom_bond_atom_site_label_1
_geom_bond_atom_site_label_2
_geom_bond_site_symmetry_1
_geom_bond_site_symmetry_2
Mn1 O1 1_555 1_555
O1 C1 1_555 1_555
O2 C1 1_555 1_555
O3 C2 1_555 1_555
O4 C6 1_555 1_555
O5 C6 1_555 1_555
C1 C2 1_555 1_555
C2 C3 1_555 1_555
C3 H1 1_555 1_555
C4 C3 1_555 1_555
H2 C4 1_555 1_555
C5 O3 1_555 1_555
C6 C5 1_555 1_555
N1 Mn1 1_555 1_555
N2 Mn1 1_555 1_555
C7 N1 1_555 1_555
H3 C7 1_555 1_555
C8 C7 1_555 1_555
H4 C8 1_555 1_555
C9 C8 1_555 1_555
H5 C9 1_555 1_555
C10 C9 1_555 1_555
H6 C10 1_555 1_555
C11 N1 1_555 1_555
C12 N2 1_555 1_555
C13 C12 1_555 1_555
H7 C13 1_555 1_555
C14 C13 1_555 1_555
H8 C14 1_555 1_555
C15 C14 1_555 1_555
H9 C15 1_555 1_555
C16 N2 1_555 1_555
H10 C16 1_555 1_555
O6 Mn1 1_555 1_555
H11 O6 1_555 1_555
H12 O6 1_555 1_555
O7 Mn1 1_555 1_555
H13 O7 1_555 1_555
H14 O7 1_555 1_555
O8 H15 1_555 1_555
H16 O8 1_555 1_555
Mn1C O2 1_555 1_555
O2C Mn1 1_555 1_555
C4 C5 1_555 1_555
C10 C11 1_555 1_555
C11 C12 1_555 1_555
C15 C16 1_555 1_555

#END
