
#######################################################################
#
#                 Cambridge Crystallographic Data Centre
#                                CCDC 
#
#######################################################################
#
# If this CIF has been generated from an entry in the Cambridge 
# Structural Database, then it will include bibliographic, chemical, 
# crystal, experimental, refinement or atomic coordinate data resulting 
# from the CCDC's data processing and validation procedures.
#
#######################################################################

data_DIWTIO
_symmetry_cell_setting           orthorhombic
_symmetry_space_group_name_H-M   'P c a 21'
_symmetry_Int_Tables_number      29
_space_group_name_Hall           'P 2c -2ac'
loop_
_symmetry_equiv_pos_site_id
_symmetry_equiv_pos_as_xyz
1 x,y,z
2 -x,-y,1/2+z
3 1/2-x,y,1/2+z
4 1/2+x,-y,z
_cell_length_a                   13.687(2)
_cell_length_b                   14.880(3)
_cell_length_c                   13.809(4)
_cell_angle_alpha                90
_cell_angle_beta                 90
_cell_angle_gamma                90
_cell_volume                     2812.38
loop_
_atom_site_label
_atom_site_type_symbol
_atom_site_fract_x
_atom_site_fract_y
_atom_site_fract_z
Ag1 Ag 0.09230(6) 0.82439(5) 1.00861(6)
Ag2 Ag 0.14551(6) 0.64456(5) 0.93564(7)
O1 O 0.1049(6) 0.8643(5) 0.8553(6)
O2 O 0.1689(6) 0.7343(4) 0.8071(6)
C1 C 0.1433(7) 0.8135(7) 0.7929(8)
O3 O 0.1363(6) 1.1282(5) 0.6239(5)
N1 N 0.1640(6) 0.5149(5) 0.8339(6)
C2 C 0.1428(7) 1.0733(6) 0.5559(7)
O4 O 0.1339(7) 1.0924(6) 0.4676(6)
C3 C 0.1608(7) 0.8514(6) 0.6930(7)
C4 C 0.1489(7) 0.9432(7) 0.6743(7)
H1 H 0.1331 0.9825 0.7243
C5 C 0.1663(7) 0.3580(6) 0.7935(9)
C6 C 0.1991(7) 0.8265(6) 0.5242(7)
H2 H 0.2166 0.7879 0.4742
C7 C 0.1611(6) 0.9753(6) 0.5800(8)
C8 C 0.1699(7) 0.4288(7) 0.8603(7)
N2 N 0.1576(6) 0.3752(6) 0.6984(7)
C9 C 0.1860(6) 0.9177(7) 0.5060(8)
H3 H 0.1942 0.9399 0.4435
C10 C 0.1788(8) 0.4099(7) 0.9682(7)
H4 H 0.2429 0.3869 0.9820
H5 H 0.1307 0.3663 0.9869
H6 H 0.1686 0.4645 1.0039
C11 C 0.1859(8) 0.7937(6) 0.6167(7)
H7 H 0.1938 0.7326 0.6285
C12 C 0.1555(7) 0.4624(7) 0.6718(8)
H8 H 0.1514 0.4770 0.6064
C13 C 0.1594(8) 0.5301(8) 0.7393(8)
H9 H 0.1588 0.5893 0.7177
C14 C 0.1660(9) 0.2611(6) 0.8241(8)
H10 H 0.1891 0.2564 0.8895
H11 H 0.2080 0.2272 0.7821
H12 H 0.1008 0.2378 0.8202
Ag3 Ag 0.08628(6) 0.20197(5) 1.37225(6)
Ag4 Ag 0.10268(5) 0.26848(5) 1.57774(6)
O5 O 0.0930(6) 0.3435(5) 1.3215(7)
N3 N 0.0973(6) 0.0960(6) 1.2415(7)
O6 O 0.1549(5) 0.6081(4) 1.0914(6)
O7 O 0.0760(5) 0.7339(5) 1.1368(6)
O8 O 0.0562(6) 0.3783(5) 1.4733(6)
N4 N 0.0862(6) -0.0426(6) 1.1059(7)
C15 C 0.0763(7) 0.3986(6) 1.3870(8)
C16 C 0.0662(7) 0.5587(6) 1.4406(8)
H13 H 0.0516 0.5378 1.5024
C17 C 0.0802(7) 0.4988(7) 1.3644(8)
C18 C 0.0744(8) 0.6500(7) 1.4226(8)
H14 H 0.0707 0.6906 1.4737
C19 C 0.0804(8) -0.0581(7) 1.2009(8)
H15 H 0.0722 -0.1167 1.2227
C20 C 0.0971(6) 0.0442(7) 1.0779(8)
C21 C 0.0880(7) 0.6813(7) 1.3295(8)
H16 H 0.0905 0.7427 1.3174
C22 C 0.0978(7) 0.6206(7) 1.2545(7)
C23 C 0.0862(8) 0.0105(7) 1.2672(9)
H17 H 0.0822 -0.0034 1.3328
C24 C 0.1104(7) 0.6568(7) 1.1531(8)
C25 C 0.0968(7) 0.5303(7) 1.2726(8)
H18 H 0.1074 0.4900 1.2222
C26 C 0.1167(9) 0.2102(7) 1.1165(9)
H19 H 0.1173 0.2470 1.1736
H20 H 0.0642 0.2286 1.0750
H21 H 0.1777 0.2167 1.0829
C27 C 0.1027(7) 0.1132(7) 1.1450(8)
C28 C 0.1023(8) 0.0630(9) 0.9695(8)
H22 H 0.1664 0.0844 0.9533
H23 H 0.0547 0.1077 0.9527
H24 H 0.0890 0.0087 0.9344
Ag1_2 Ag 0.09230(6) -0.17561(5) 1.00861(6)
O3_2 O 0.1363(6) 0.1282(5) 1.6239(5)
O4_2 O 0.1339(7) 0.0924(6) 1.4676(6)
N2_2 N 0.1576(6) 0.3752(6) 1.6984(7)
Ag3_2 Ag 0.08628(6) 1.20197(5) 0.37225(6)
Ag4_2 Ag 0.10268(5) 0.26848(5) 0.57774(6)
Ag4_3 Ag 0.10268(5) 1.26848(5) 0.57774(6)
Ag4A Ag -0.10268(5) 0.73152(5) 1.07774(6)
O7A O -0.0760(5) 0.2661(5) 1.6368(6)
N4_2 N 0.0862(6) 0.9574(6) 1.1059(7)
loop_
_geom_bond_atom_site_label_1
_geom_bond_atom_site_label_2
_geom_bond_site_symmetry_1
_geom_bond_site_symmetry_2
Ag1 O1 1_555 1_555
Ag2 O2 1_555 1_555
O1 C1 1_555 1_555
O2 C1 1_555 1_555
C1 C3 1_555 1_555
O3 C2 1_555 1_555
N1 Ag2 1_555 1_555
C2 O4 1_555 1_555
O4 Ag3_2 1_555 1_555
C3 C4 1_555 1_555
C4 H1 1_555 1_555
C5 C8 1_555 1_555
C6 H2 1_555 1_555
C7 C2 1_555 1_555
C8 N1 1_555 1_555
N2 C5 1_555 1_555
C9 C6 1_555 1_555
H3 C9 1_555 1_555
C10 C8 1_555 1_555
H4 C10 1_555 1_555
H5 C10 1_555 1_555
H6 C10 1_555 1_555
C11 C3 1_555 1_555
H7 C11 1_555 1_555
C12 N2 1_555 1_555
H8 C12 1_555 1_555
C13 N1 1_555 1_555
H9 C13 1_555 1_555
C14 C5 1_555 1_555
H10 C14 1_555 1_555
H11 C14 1_555 1_555
H12 C14 1_555 1_555
Ag3 O5 1_555 1_555
Ag4 O8 1_555 1_555
O5 C15 1_555 1_555
N3 Ag3 1_555 1_555
O6 Ag2 1_555 1_555
O7 Ag1 1_555 1_555
O8 C15 1_555 1_555
N4 C19 1_555 1_555
C15 C17 1_555 1_555
C16 H13 1_555 1_555
C17 C16 1_555 1_555
C18 C16 1_555 1_555
H14 C18 1_555 1_555
C19 H15 1_555 1_555
C20 N4 1_555 1_555
C21 C18 1_555 1_555
H16 C21 1_555 1_555
C22 C21 1_555 1_555
C23 N3 1_555 1_555
H17 C23 1_555 1_555
C24 O6 1_555 1_555
C25 C17 1_555 1_555
H18 C25 1_555 1_555
C26 H19 1_555 1_555
H20 C26 1_555 1_555
H21 C26 1_555 1_555
C27 N3 1_555 1_555
C28 C20 1_555 1_555
H22 C28 1_555 1_555
H23 C28 1_555 1_555
H24 C28 1_555 1_555
Ag1_2 N4 1_555 1_555
O3_2 Ag4 1_555 1_555
O4_2 Ag3 1_555 1_555
N2_2 Ag4 1_555 1_555
Ag4_2 N2 1_555 1_555
Ag4_3 O3 1_555 1_555
Ag4A O7 1_555 1_555
O7A Ag4 1_555 1_555
N4_2 Ag1 1_555 1_555
C4 C7 1_555 1_555
C6 C11 1_555 1_555
C7 C9 1_555 1_555
C12 C13 1_555 1_555
O7 C24 1_555 1_555
C19 C23 1_555 1_555
C20 C27 1_555 1_555
C22 C24 1_555 1_555
C22 C25 1_555 1_555
C26 C27 1_555 1_555

#END
