
#######################################################################
#
#                 Cambridge Crystallographic Data Centre
#                                CCDC 
#
#######################################################################
#
# If this CIF has been generated from an entry in the Cambridge 
# Structural Database, then it will include bibliographic, chemical, 
# crystal, experimental, refinement or atomic coordinate data resulting 
# from the CCDC's data processing and validation procedures.
#
#######################################################################

data_DIXGIB
_symmetry_cell_setting           monoclinic
_symmetry_space_group_name_H-M   'C 2/m'
_symmetry_Int_Tables_number      12
_space_group_name_Hall           '-C 2y'
loop_
_symmetry_equiv_pos_site_id
_symmetry_equiv_pos_as_xyz
1 x,y,z
2 1/2+x,1/2+y,z
3 -x,y,-z
4 1/2-x,1/2+y,-z
5 -x,-y,-z
6 1/2-x,1/2-y,-z
7 x,-y,z
8 1/2+x,1/2-y,z
_cell_length_a                   7.3555(8)
_cell_length_b                   20.271(2)
_cell_length_c                   10.4640(12)
_cell_angle_alpha                90
_cell_angle_beta                 104.4890(10)
_cell_angle_gamma                90
_cell_volume                     1510.6
loop_
_atom_site_label
_atom_site_type_symbol
_atom_site_fract_x
_atom_site_fract_y
_atom_site_fract_z
Cu1 Cu 1.0000 0.5000 1.0000
Na1 Na 0.68456(13) 0.5000 0.66934(8)
O1 O 0.69979(17) 0.89398(5) 0.69889(12)
O2 O 0.8099(2) 0.81061(7) 0.82750(11)
O3 O 0.8105(2) 0.69261(6) 0.82830(11)
H1 H 0.8067 0.7330 0.8271
O4 O 0.6963(2) 0.61128(6) 0.69892(13)
O5 O 0.6609(3) 0.5000 0.43081(19)
H2 H 0.7013 0.5333 0.4012
O6 O 1.0201(2) 0.5000 0.78407(17)
H3 H 1.0753 0.4682 0.7636
O7 O 0.7180(2) 0.5000 0.92224(16)
H4 H 0.6520 0.5302 0.9395
O8 O 1.0000 0.40264(7) 1.0000
H5 H 1.0584 0.3793 1.0601
C1 C 0.5000 0.68567(10) 0.5000
H6 H 0.5000 0.6398 0.5000
C2 C 0.60635(19) 0.71771(7) 0.61176(13)
C3 C 0.60679(19) 0.78746(7) 0.61166(13)
C4 C 0.5000 0.81944(10) 0.5000
H7 H 0.5000 0.8653 0.5000
C5 C 0.7117(2) 0.83426(7) 0.71937(14)
C6 C 0.7095(2) 0.67000(7) 0.71880(14)
Na1B Na 0.31544(13) 0.5000 0.33066(8)
Na1B_2 Na 1.31544(13) 0.5000 1.33066(8)
O1B O 0.30021(17) 0.89398(5) 0.30111(12)
O1D O 0.30021(17) 0.10602(5) 0.30111(12)
O1F O 0.69979(17) 0.10602(5) 0.69889(12)
O2B O 0.1901(2) 0.81061(7) 0.17250(11)
O2D O 0.1901(2) 0.18939(7) 0.17250(11)
O2F O 0.8099(2) 0.18939(7) 0.82750(11)
O3B O 0.1895(2) 0.69261(6) 0.17170(11)
O3D O 0.1895(2) 0.30739(6) 0.17170(11)
O3F O 0.8105(2) 0.30739(6) 0.82830(11)
H1B H 0.1933 0.7330 0.1729
H1D H 0.1933 0.2670 0.1729
H1F H 0.8067 0.2670 0.8271
O4B O 0.3037(2) 0.61128(6) 0.30108(13)
O4D O 0.3037(2) 0.38872(6) 0.30108(13)
O4F O 0.6963(2) 0.38872(6) 0.69892(13)
O4D_2 O 1.3037(2) 0.38872(6) 1.30108(13)
O4B_2 O 1.3037(2) 0.61128(6) 1.30108(13)
O5B O 0.3391(3) 0.5000 0.56919(19)
O5B_2 O 1.3391(3) 0.5000 1.56919(19)
O5_2 O 1.6609(3) 0.5000 1.43081(19)
H2B H 0.2987 0.5333 0.5988
H2D H 0.2987 0.4667 0.5988
H2F H 0.7013 0.4667 0.4012
H2D_2 H 1.2987 0.4667 1.5988
H2B_2 H 1.2987 0.5333 1.5988
H2_2 H 1.7013 0.5333 1.4012
H2F_2 H 1.7013 0.4667 1.4012
O6B O 0.9799(2) 0.5000 1.21593(17)
H3D H 0.9247 0.5318 1.2364
H3B H 0.9247 0.4682 1.2364
H3F H 1.0753 0.5318 0.7636
O7B O 1.2820(2) 0.5000 1.07776(16)
H4D H 1.3480 0.4698 1.0605
H4B H 1.3480 0.5302 1.0605
H4F H 0.6520 0.4698 0.9395
O8D O 1.0000 0.59736(7) 1.0000
H5B H 0.9416 0.3793 0.9399
H5F H 1.0584 0.6207 1.0601
H5D H 0.9416 0.6207 0.9399
C1D C 0.5000 0.31433(10) 0.5000
H6D H 0.5000 0.3602 0.5000
C2B C 0.39365(19) 0.71771(7) 0.38824(13)
C2D C 0.39365(19) 0.28229(7) 0.38824(13)
C2F C 0.60635(19) 0.28229(7) 0.61176(13)
C3B C 0.39321(19) 0.78746(7) 0.38834(13)
C3F C 0.60679(19) 0.21254(7) 0.61166(13)
C3D C 0.39321(19) 0.21254(7) 0.38834(13)
C4D C 0.5000 0.18056(10) 0.5000
H7D H 0.5000 0.1347 0.5000
C5B C 0.2883(2) 0.83426(7) 0.28063(14)
C5D C 0.2883(2) 0.16574(7) 0.28063(14)
C5F C 0.7117(2) 0.16574(7) 0.71937(14)
C6B C 0.2905(2) 0.67000(7) 0.28120(14)
C6D C 0.2905(2) 0.33000(7) 0.28120(14)
C6F C 0.7095(2) 0.33000(7) 0.71880(14)
O9 O 0.5000 0.40675(7) 1.0000
H8 H 0.4454 0.3811 0.9413
H8B H 0.5546 0.3811 1.0587
loop_
_geom_bond_atom_site_label_1
_geom_bond_atom_site_label_2
_geom_bond_site_symmetry_1
_geom_bond_site_symmetry_2
Cu1 O6 1_555 1_555
Na1 O4 1_555 1_555
O1 C5 1_555 1_555
O2 C5 1_555 1_555
O3 H1 1_555 1_555
O4 C6 1_555 1_555
O5 Na1 1_555 1_555
H2 O5 1_555 1_555
O6 Na1 1_555 1_555
H3 O6 1_555 1_555
O7 Cu1 1_555 1_555
H4 O7 1_555 1_555
O8 Cu1 1_555 1_555
H5 O8 1_555 1_555
C1 H6 1_555 1_555
C2 C1 1_555 1_555
C3 C2 1_555 1_555
C4 C3 1_555 1_555
H7 C4 1_555 1_555
C5 C3 1_555 1_555
C6 O3 1_555 1_555
O9 H8 1_555 1_555
Na1B O5 1_555 1_555
Na1B_2 O4D_2 1_555 1_555
O1B C5B 1_555 1_555
O1D C5D 1_555 1_555
O1F C5F 1_555 1_555
O2B C5B 1_555 1_555
O2D C5D 1_555 1_555
O2F C5F 1_555 1_555
O3B H1B 1_555 1_555
O3D H1D 1_555 1_555
O3F H1F 1_555 1_555
O4B Na1B 1_555 1_555
O4D Na1B 1_555 1_555
O4F Na1 1_555 1_555
O4B_2 Na1B_2 1_555 1_555
O5B Na1 1_555 1_555
O5B_2 Na1B_2 1_555 1_555
O5_2 Na1B_2 1_555 1_555
H2B O5B 1_555 1_555
H2D O5B 1_555 1_555
H2F O5 1_555 1_555
H2D_2 O5B_2 1_555 1_555
H2B_2 O5B_2 1_555 1_555
H2_2 O5_2 1_555 1_555
H2F_2 O5_2 1_555 1_555
O6B Cu1 1_555 1_555
H3D O6B 1_555 1_555
H3B O6B 1_555 1_555
H3F O6 1_555 1_555
O7B Cu1 1_555 1_555
H4D O7B 1_555 1_555
H4B O7B 1_555 1_555
H4F O7 1_555 1_555
O8D Cu1 1_555 1_555
H5B O8 1_555 1_555
H5F O8D 1_555 1_555
H5D O8D 1_555 1_555
C1D H6D 1_555 1_555
C2B C1 1_555 1_555
C2D C1D 1_555 1_555
C2F C1D 1_555 1_555
C3B C4 1_555 1_555
C3F C2F 1_555 1_555
C3D C2D 1_555 1_555
C4D C3F 1_555 1_555
H7D C4D 1_555 1_555
C5B C3B 1_555 1_555
C5D C3D 1_555 1_555
C5F C3F 1_555 1_555
C6B O3B 1_555 1_555
C6D O3D 1_555 1_555
C6F O3F 1_555 1_555
H8B O9 1_555 1_555
Na1 O7 1_555 1_555
C2 C6 1_555 1_555
Na1B O5B 1_555 1_555
Na1B_2 O6B 1_555 1_555
Na1B_2 O7B 1_555 1_555
O4B C6B 1_555 1_555
O4D C6D 1_555 1_555
O4F C6F 1_555 1_555
C2B C3B 1_555 1_555
C2B C6B 1_555 1_555
C2D C6D 1_555 1_555
C2F C6F 1_555 1_555
C3D C4D 1_555 1_555

#END
