
#######################################################################
#
#                 Cambridge Crystallographic Data Centre
#                                CCDC 
#
#######################################################################
#
# If this CIF has been generated from an entry in the Cambridge 
# Structural Database, then it will include bibliographic, chemical, 
# crystal, experimental, refinement or atomic coordinate data resulting 
# from the CCDC's data processing and validation procedures.
#
#######################################################################

data_DIXKUR
_symmetry_cell_setting           triclinic
_symmetry_space_group_name_H-M   'P -1'
_symmetry_Int_Tables_number      2
_space_group_name_Hall           '-P 1'
loop_
_symmetry_equiv_pos_site_id
_symmetry_equiv_pos_as_xyz
1 x,y,z
2 -x,-y,-z
_cell_length_a                   9.6769(7)
_cell_length_b                   13.4539(9)
_cell_length_c                   14.9369(10)
_cell_angle_alpha                65.9050(10)
_cell_angle_beta                 82.1290(10)
_cell_angle_gamma                80.1210(10)
_cell_volume                     1744.06
loop_
_atom_site_label
_atom_site_type_symbol
_atom_site_fract_x
_atom_site_fract_y
_atom_site_fract_z
Gd1 Gd 0.837153(12) 0.447633(9) 0.460436(8)
Gd2 Gd 0.708880(11) -0.035190(9) 1.549440(8)
S1 S 0.84755(7) -0.01661(5) 1.24137(4)
S2 S 0.75500(7) 0.08422(6) 1.03422(5)
S3 S 0.83323(8) 0.20283(6) 0.81988(5)
S4 S 0.68262(9) 0.52318(7) 0.77474(5)
S5 S 0.77448(8) 0.41645(7) 0.97689(5)
S6 S 0.71404(9) 0.28661(7) 1.18991(5)
S7 S 0.50250(8) 0.09127(5) 1.84350(5)
S8 S 0.34836(7) 0.16039(5) 2.00029(4)
S9 S 0.13519(7) 0.33056(5) 2.04718(4)
O1 O 0.88898(18) -0.08656(15) 1.44433(13)
O2 O 1.10286(19) -0.04090(17) 1.43285(14)
O3 O 0.8704(2) 0.29525(15) 0.61974(13)
O4 O 1.0234(2) 0.40965(15) 0.59225(13)
O5 O 0.7502(2) 0.53570(18) 0.58032(14)
O6 O 0.6083(2) 0.42771(16) 0.57437(13)
O7 O 0.73142(19) 0.13364(15) 1.38504(13)
O8 O 0.54635(18) 0.04962(15) 1.40700(12)
O9 O 0.59361(19) 0.13614(14) 1.56815(12)
O10 O 0.6387(2) -0.00315(15) 1.70887(13)
O11 O 0.0502(3) 0.33291(19) 2.23381(16)
O12 O 0.1941(2) 0.19396(16) 2.32813(13)
O13 O 0.6664(2) 0.59253(16) 0.37988(13)
O14 O 0.8739(2) 0.47917(16) 0.28763(14)
O15 O 1.0276(3) 0.3176(2) 0.43699(16)
O16 O 0.7100(3) 0.32066(19) 0.43936(17)
O17 O 0.6474(2) -0.19781(18) 1.53011(18)
N1 N 0.9998(2) 0.0962(2) 1.07350(16)
N2 N 0.9968(2) 0.1500(2) 0.97145(16)
N3 N 0.5330(3) 0.3956(2) 0.94051(17)
N4 N 0.5408(3) 0.3385(2) 1.04219(17)
N5 N 0.3232(2) 0.27940(17) 1.81850(15)
N6 N 0.2370(2) 0.33649(17) 1.86923(15)
C1 C 0.9960(3) -0.04206(19) 1.39596(17)
C2 C 0.9950(3) 0.0134(2) 1.28471(18)
H1 H 0.9898 0.0921 1.2644
H2 H 1.0820 -0.0116 1.2551
C3 C 0.8826(3) 0.0573(2) 1.11498(17)
C4 C 0.8776(3) 0.1494(2) 0.94152(17)
C5 C 0.9766(3) 0.2833(2) 0.75916(18)
H3 H 1.0664 0.2372 0.7725
H4 H 0.9742 0.3414 0.7821
C6 C 0.9562(3) 0.3309(2) 0.65069(17)
C7 C 0.6482(3) 0.4820(2) 0.61618(18)
C8 C 0.5718(3) 0.4785(3) 0.7135(2)
H5 H 0.5521 0.4044 0.7546
H6 H 0.4832 0.5264 0.7016
C9 C 0.6449(3) 0.4408(2) 0.89875(18)
C10 C 0.6590(3) 0.3441(2) 1.07063(18)
C11 C 0.5763(3) 0.2018(2) 1.25394(18)
H7 H 0.4896 0.2474 1.2606
H8 H 0.5597 0.1603 1.2173
C12 C 0.6227(3) 0.12440(19) 1.35433(17)
C13 C 0.5887(3) 0.0930(2) 1.66190(18)
C14 C 0.5157(3) 0.1668(2) 1.71241(18)
H9 H 0.4224 0.1962 1.6895
H10 H 0.5683 0.2280 1.6961
C15 C 0.3875(3) 0.1869(2) 1.87750(18)
C16 C 0.2385(3) 0.28413(19) 1.96394(17)
C17 C 0.2195(3) 0.2372(2) 2.15745(17)
H11 H 0.2155 0.1620 2.1667
H12 H 0.3177 0.2479 2.1504
C18 C 0.1473(3) 0.2569(2) 2.24605(18)
H13 H 0.838(4) 0.532(2) 0.239(2)
H14 H 0.665(3) 0.635(2) 0.3184(14)
H15 H 0.928(4) 0.438(3) 0.264(3)
H16 H 0.584(3) -0.187(3) 1.491(2)
H17 H 0.581(2) 0.585(3) 0.398(2)
H18 H 0.740(5) 0.295(4) 0.395(3)
H19 H 1.064(7) 0.262(4) 0.485(3)
H20 H 1.054(5) 0.311(4) 0.382(2)
H21 H 0.691(5) -0.262(2) 1.544(4)
H22 H 0.668(5) 0.274(3) 0.489(2)
Gd1A Gd 1.162847(12) 0.552367(9) 0.539564(8)
Gd2A Gd 1.291120(11) 0.035190(9) 1.450560(8)
Gd2A_2 Gd 0.291120(11) 0.035190(9) 1.450560(8)
Gd2A_3 Gd 0.291120(11) 0.035190(9) 2.450560(8)
O2A O 0.89714(19) 0.04090(17) 1.56715(14)
O4A O 0.9766(2) 0.59035(15) 0.40775(13)
O8A O 0.45365(18) -0.04962(15) 1.59300(12)
O12A O 0.8059(2) -0.19396(16) 1.67187(13)
loop_
_geom_bond_atom_site_label_1
_geom_bond_atom_site_label_2
_geom_bond_site_symmetry_1
_geom_bond_site_symmetry_2
Gd1 O3 1_555 1_555
Gd2 O1 1_555 1_555
S1 C2 1_555 1_555
S2 C3 1_555 1_555
S3 C4 1_555 1_555
S4 C8 1_555 1_555
S5 C9 1_555 1_555
S6 C10 1_555 1_555
S7 C14 1_555 1_555
S8 C15 1_555 1_555
S9 C16 1_555 1_555
O1 C1 1_555 1_555
O2 C1 1_555 1_555
O3 C6 1_555 1_555
O4 Gd1 1_555 1_555
O5 Gd1 1_555 1_555
O6 Gd1 1_555 1_555
O7 Gd2 1_555 1_555
O8 Gd2 1_555 1_555
O9 Gd2 1_555 1_555
O10 Gd2 1_555 1_555
O11 C18 1_555 1_555
O12 C18 1_555 1_555
O13 Gd1 1_555 1_555
O14 Gd1 1_555 1_555
O15 Gd1 1_555 1_555
O16 Gd1 1_555 1_555
O17 Gd2 1_555 1_555
N1 N2 1_555 1_555
N2 C4 1_555 1_555
N3 N4 1_555 1_555
N4 C10 1_555 1_555
N5 N6 1_555 1_555
N6 C16 1_555 1_555
C1 C2 1_555 1_555
C2 H1 1_555 1_555
H2 C2 1_555 1_555
C3 S1 1_555 1_555
C4 S2 1_555 1_555
C5 S3 1_555 1_555
H3 C5 1_555 1_555
H4 C5 1_555 1_555
C6 O4 1_555 1_555
C7 O5 1_555 1_555
C8 C7 1_555 1_555
H5 C8 1_555 1_555
H6 C8 1_555 1_555
C9 S4 1_555 1_555
C10 S5 1_555 1_555
C11 S6 1_555 1_555
H7 C11 1_555 1_555
H8 C11 1_555 1_555
C12 O7 1_555 1_555
C13 O9 1_555 1_555
C14 C13 1_555 1_555
H9 C14 1_555 1_555
H10 C14 1_555 1_555
C15 S7 1_555 1_555
C16 S8 1_555 1_555
C17 S9 1_555 1_555
H11 C17 1_555 1_555
H12 C17 1_555 1_555
C18 C17 1_555 1_555
H13 O14 1_555 1_555
H14 O13 1_555 1_555
H15 O14 1_555 1_555
H16 O17 1_555 1_555
H17 O13 1_555 1_555
H18 O16 1_555 1_555
H19 O15 1_555 1_555
H20 O15 1_555 1_555
H21 O17 1_555 1_555
H22 O16 1_555 1_555
Gd1A O4 1_555 1_555
Gd2A O2 1_555 1_555
Gd2A_2 O8 1_555 1_555
Gd2A_3 O12 1_555 1_555
O2A Gd2 1_555 1_555
O4A Gd1 1_555 1_555
O8A Gd2 1_555 1_555
O12A Gd2 1_555 1_555
O6 C7 1_555 1_555
O8 C12 1_555 1_555
O10 C13 1_555 1_555
N1 C3 1_555 1_555
N3 C9 1_555 1_555
N5 C15 1_555 1_555
C5 C6 1_555 1_555
C11 C12 1_555 1_555
Gd1A O4A 1_555 1_555
Gd2A_2 O8A 1_555 1_555

#END
