
#######################################################################
#
#                 Cambridge Crystallographic Data Centre
#                                CCDC 
#
#######################################################################
#
# If this CIF has been generated from an entry in the Cambridge 
# Structural Database, then it will include bibliographic, chemical, 
# crystal, experimental, refinement or atomic coordinate data resulting 
# from the CCDC's data processing and validation procedures.
#
#######################################################################

data_DIXKUR01
_symmetry_cell_setting           triclinic
_symmetry_space_group_name_H-M   'P -1'
_symmetry_Int_Tables_number      2
_space_group_name_Hall           '-P 1'
loop_
_symmetry_equiv_pos_site_id
_symmetry_equiv_pos_as_xyz
1 x,y,z
2 -x,-y,-z
_cell_length_a                   9.6937(4)
_cell_length_b                   13.4732(6)
_cell_length_c                   14.9519(6)
_cell_angle_alpha                65.8650(10)
_cell_angle_beta                 82.1640(10)
_cell_angle_gamma                80.0780(10)
_cell_volume                     1750.72
loop_
_atom_site_label
_atom_site_type_symbol
_atom_site_fract_x
_atom_site_fract_y
_atom_site_fract_z
Gd1 Gd -0.33698(3) 1.05258(2) -0.960247(19)
S1 S -0.36408(15) 0.83091(11) -0.45417(10)
O1 O -0.4496(5) 0.8352(4) -0.2679(3)
N1 N -0.2627(5) 0.8358(3) -0.6308(3)
C1 C -0.3511(5) 0.7594(4) -0.2558(4)
O2 O -0.3734(4) 1.0201(3) -0.7861(3)
H1 H -0.3257 0.9795 -0.7374
H2 H -0.4534 1.0406 -0.7636
Gd2 Gd -0.20905(2) 0.536300(19) -0.050201(18)
S2 S -0.15168(15) 0.66036(11) -0.49998(10)
N2 N -0.1762(5) 0.7785(3) -0.6812(3)
C2 C -0.2808(6) 0.7384(4) -0.3442(4)
H3 H -0.2861 0.6633 -0.3342
H4 H -0.1824 0.7482 -0.3516
O3 O -0.3056(4) 0.6961(3) -0.1739(3)
O4 O -0.1656(4) 0.9060(3) -0.8788(3)
H5 H -0.1680 0.8457 -0.8290
H6 H -0.0807 0.9101 -0.9017
S3 S 0.00173(16) 0.59080(11) -0.65600(10)
O5 O 0.0931(4) 0.6358(3) -0.9317(3)
N3 N -0.5007(5) 0.5967(4) -0.4268(4)
C3 C -0.2612(5) 0.7842(4) -0.5362(4)
O6 O -0.5255(5) 1.1853(4) -0.9363(3)
H7 H -0.5729 1.2341 -0.9183
H8 H -0.5801 1.1650 -0.9637
S4 S -0.65270(14) 0.48409(11) -0.25940(10)
N4 N -0.5032(5) 0.6501(4) -0.5288(3)
C4 C -0.1127(5) 0.6868(4) -0.6227(4)
O7 O 0.1376(4) 0.4966(3) -0.7903(3)
O8 O -0.2071(5) 1.1793(4) -0.9397(3)
H9 H -0.1590 1.2176 -0.9902
H10 H -0.2283 1.2148 -0.9030
S5 S -0.74475(15) 0.58407(12) -0.46619(10)
O9 O -0.3978(4) 0.4594(3) -0.0679(3)
C5 C 0.0144(6) 0.6657(4) -0.7865(4)
H11 H -0.0790 0.6941 -0.8093
H12 H 0.0656 0.7275 -0.8028
N5 N 0.0415(5) 0.8385(4) -0.4579(4)
O10 O -0.1480(4) 0.7008(3) -0.0308(3)
H13 H -0.0769 0.7233 -0.0695
H14 H -0.1310 0.6924 0.0263
S6 S -0.66660(15) 0.70239(12) -0.67991(10)
O11 O -0.6103(4) 0.4135(3) -0.0572(3)
C6 C 0.0889(5) 0.5929(4) -0.8377(4)
N6 N 0.0337(5) 0.8946(4) -0.5589(4)
S7 S 0.21423(18) 0.78663(13) -0.31017(11)
O12 O -0.4769(4) 0.9076(3) -0.9070(3)
C7 C -0.5052(5) 0.4580(4) -0.1054(4)
S8 S 0.27403(17) 0.91630(13) -0.52283(12)
O13 O -0.6287(4) 0.7933(3) -0.8800(3)
C8 C -0.5052(6) 0.5132(5) -0.2158(4)
H15 H -0.4184 0.4877 -0.2451
H16 H -0.5098 0.5918 -0.2361
S9 S 0.18250(19) 1.02199(13) -0.72441(11)
C9 C -0.6175(5) 0.5580(4) -0.3850(4)
O14 O 0.2313(4) 0.6339(3) -0.1151(3)
C10 C -0.6217(6) 0.6492(4) -0.5585(4)
O15 O 0.0470(4) 0.5506(3) -0.0939(3)
O16 O 0.2490(5) 1.0358(4) -0.9190(3)
C11 C -0.5239(6) 0.7826(4) -0.7408(4)
H17 H -0.5265 0.8409 -0.7181
H18 H -0.4342 0.7366 -0.7271
C12 C -0.5435(5) 0.8293(4) -0.8482(4)
O17 O 0.1083(4) 0.9285(3) -0.9245(3)
C13 C 0.1233(5) 0.6248(4) -0.1464(4)
C14 C 0.0769(6) 0.7024(4) -0.2463(4)
H19 H -0.0095 0.7481 -0.2395
H20 H 0.0598 0.6613 -0.2831
C15 C 0.1590(6) 0.8446(4) -0.4293(4)
C16 C 0.1452(6) 0.9401(4) -0.6002(4)
C17 C 0.0716(6) 0.9766(5) -0.7863(4)
H21 H 0.0536 0.9020 -0.7456
H22 H -0.0178 1.0234 -0.7972
C18 C 0.1462(6) 0.9820(4) -0.8830(4)
Gd1A Gd -0.66302(3) 0.94742(2) -1.039753(19)
Gd1A_2 Gd 0.33698(3) 0.94742(2) -1.039753(19)
Gd2A Gd -0.79095(2) 0.463700(19) 0.050201(18)
Gd2A_2 Gd 0.20905(2) 0.463700(19) -0.949799(18)
Gd2A_3 Gd 0.20905(2) 0.463700(19) 0.050201(18)
O5A O -0.0931(4) 0.3642(3) -0.0683(3)
O7A O -0.1376(4) 0.5034(3) -0.2097(3)
O11A O -0.3897(4) 0.5865(3) 0.0572(3)
O12A O -0.5231(4) 1.0924(3) -1.0930(3)
O13A O -0.3713(4) 1.2067(3) -1.1200(3)
O14A O -0.2313(4) 0.3661(3) 0.1151(3)
O15A O -0.0470(4) 0.4494(3) 0.0939(3)
O16A O -0.2490(5) 0.9642(4) -1.0810(3)
O17A O -0.1083(4) 1.0715(3) -1.0755(3)
loop_
_geom_bond_atom_site_label_1
_geom_bond_atom_site_label_2
_geom_bond_site_symmetry_1
_geom_bond_site_symmetry_2
Gd1 O2 1_555 1_555
S1 C2 1_555 1_555
O1 C1 1_555 1_555
N1 N2 1_555 1_555
C1 C2 1_555 1_555
O2 H1 1_555 1_555
H2 O2 1_555 1_555
Gd2 O3 1_555 1_555
S2 C3 1_555 1_555
N2 C4 1_555 1_555
C2 H3 1_555 1_555
H4 C2 1_555 1_555
O3 C1 1_555 1_555
O4 Gd1 1_555 1_555
H5 O4 1_555 1_555
H6 O4 1_555 1_555
S3 C4 1_555 1_555
O5 C6 1_555 1_555
N3 N4 1_555 1_555
C3 S1 1_555 1_555
O6 Gd1 1_555 1_555
H7 O6 1_555 1_555
H8 O6 1_555 1_555
S4 C8 1_555 1_555
N4 C10 1_555 1_555
C4 S2 1_555 1_555
O7 C6 1_555 1_555
O8 Gd1 1_555 1_555
H9 O8 1_555 1_555
H10 O8 1_555 1_555
S5 C9 1_555 1_555
O9 Gd2 1_555 1_555
C5 S3 1_555 1_555
H11 C5 1_555 1_555
H12 C5 1_555 1_555
N5 N6 1_555 1_555
O10 Gd2 1_555 1_555
H13 O10 1_555 1_555
H14 O10 1_555 1_555
S6 C10 1_555 1_555
O11 C7 1_555 1_555
C6 C5 1_555 1_555
N6 C16 1_555 1_555
S7 C14 1_555 1_555
O12 Gd1 1_555 1_555
C7 O9 1_555 1_555
S8 C15 1_555 1_555
O13 C12 1_555 1_555
C8 C7 1_555 1_555
H15 C8 1_555 1_555
H16 C8 1_555 1_555
S9 C16 1_555 1_555
C9 N3 1_555 1_555
O14 C13 1_555 1_555
C10 S5 1_555 1_555
O15 Gd2 1_555 1_555
O16 C18 1_555 1_555
C11 S6 1_555 1_555
H17 C11 1_555 1_555
H18 C11 1_555 1_555
C12 O12 1_555 1_555
O17 C18 1_555 1_555
C13 O15 1_555 1_555
C14 C13 1_555 1_555
H19 C14 1_555 1_555
H20 C14 1_555 1_555
C15 N5 1_555 1_555
C16 S8 1_555 1_555
C17 S9 1_555 1_555
H21 C17 1_555 1_555
H22 C17 1_555 1_555
C18 C17 1_555 1_555
Gd1A O12 1_555 1_555
Gd1A_2 O16 1_555 1_555
Gd2A O11 1_555 1_555
Gd2A_2 O5 1_555 1_555
Gd2A_3 O14 1_555 1_555
O5A Gd2 1_555 1_555
O7A Gd2 1_555 1_555
O11A Gd2 1_555 1_555
O12A Gd1 1_555 1_555
O13A Gd1 1_555 1_555
O14A Gd2 1_555 1_555
O15A Gd2 1_555 1_555
O16A Gd1 1_555 1_555
O17A Gd1 1_555 1_555
N1 C3 1_555 1_555
S4 C9 1_555 1_555
O7 Gd2A_2 1_555 1_555
S7 C15 1_555 1_555
O13 Gd1A 1_555 1_555
O15 Gd2A_3 1_555 1_555
C11 C12 1_555 1_555
O17 Gd1A_2 1_555 1_555
Gd1A O12A 1_555 1_555
Gd2A_3 O15A 1_555 1_555

#END
