
#######################################################################
#
#                 Cambridge Crystallographic Data Centre
#                                CCDC 
#
#######################################################################
#
# If this CIF has been generated from an entry in the Cambridge 
# Structural Database, then it will include bibliographic, chemical, 
# crystal, experimental, refinement or atomic coordinate data resulting 
# from the CCDC's data processing and validation procedures.
#
#######################################################################

data_DIXPEH
_symmetry_cell_setting           triclinic
_symmetry_space_group_name_H-M   'P -1'
_symmetry_Int_Tables_number      2
_space_group_name_Hall           '-P 1'
loop_
_symmetry_equiv_pos_site_id
_symmetry_equiv_pos_as_xyz
1 x,y,z
2 -x,-y,-z
_cell_length_a                   8.50515(18)
_cell_length_b                   9.7632(3)
_cell_length_c                   11.5385(3)
_cell_angle_alpha                67.645(3)
_cell_angle_beta                 79.274(2)
_cell_angle_gamma                82.950(2)
_cell_volume                     869.214
loop_
_atom_site_label
_atom_site_type_symbol
_atom_site_fract_x
_atom_site_fract_y
_atom_site_fract_z
Hg1 Hg 0.583484(13) 0.169434(15) 0.352303(11)
Hg2 Hg 1.0000 0.0000 0.5000
N1 N 0.4069(3) 0.3551(3) 0.4062(2)
N2 N 0.4372(3) 0.3216(3) 0.1777(2)
N3 N 0.4608(3) -0.0281(3) 0.3829(3)
N4 N 0.3400(3) -0.0084(4) 0.3362(3)
N5 N 0.2247(4) 0.0016(5) 0.2939(3)
N6 N 0.8191(3) 0.2239(4) 0.3532(3)
N7 N 0.8830(3) 0.3265(4) 0.2677(3)
N8 N 0.9503(4) 0.4231(5) 0.1906(4)
N9 N 1.1358(4) 0.1389(4) 0.5338(3)
N10 N 1.1072(3) 0.1470(3) 0.6378(3)
N11 N 1.0889(5) 0.1655(5) 0.7317(4)
O1 O 0.7156(3) 0.2184(3) 0.0877(2)
C1 C 0.3186(4) 0.4437(4) 0.3194(3)
C2 C 0.2061(4) 0.5500(4) 0.3431(3)
H1 H 0.1438 0.6115 0.2801
C3 C 0.1862(4) 0.5647(4) 0.4602(4)
H2 H 0.1115 0.6373 0.4783
C4 C 0.2767(4) 0.4718(4) 0.5489(3)
H3 H 0.2654 0.4787 0.6300
C5 C 0.3851(4) 0.3679(4) 0.5188(3)
H4 H 0.4463 0.3031 0.5813
C6 C 0.3386(4) 0.4225(4) 0.1975(3)
H5 H 0.2778 0.4843 0.1335
C7 C 0.4464(4) 0.2886(4) 0.0673(3)
C8 C 0.3147(4) 0.3057(5) 0.0069(3)
H6 H 0.2164 0.3496 0.0347
C9 C 0.3264(5) 0.2583(5) -0.0948(3)
H7 H 0.2367 0.2703 -0.1368
C10 C 0.4698(5) 0.1941(5) -0.1332(3)
H8 H 0.4766 0.1592 -0.2006
C11 C 0.6051(5) 0.1788(4) -0.0762(3)
H9 H 0.7038 0.1372 -0.1059
C12 C 0.5928(4) 0.2260(4) 0.0252(3)
C13 C 0.8707(4) 0.1609(5) 0.0446(4)
H10 H 0.9103 0.2271 -0.0416
H11 H 0.8611 0.0618 0.0448
H12 H 0.9460 0.1549 0.1014
Hg1A Hg 0.416516(13) -0.169434(15) 0.647697(11)
N1A N 0.5931(3) -0.3551(3) 0.5938(2)
N2A N 0.5628(3) -0.3216(3) 0.8223(2)
N3A N 0.5392(3) 0.0281(3) 0.6171(3)
N4A N 0.6600(3) 0.0084(4) 0.6638(3)
N5A N 0.7753(4) -0.0016(5) 0.7061(3)
N6A N 0.1809(3) -0.2239(4) 0.6468(3)
N7A N 0.1170(3) -0.3265(4) 0.7323(3)
N8A N 0.0497(4) -0.4231(5) 0.8094(4)
O1A O 0.2844(3) -0.2184(3) 0.9123(2)
C1A C 0.6814(4) -0.4437(4) 0.6806(3)
C2A C 0.7939(4) -0.5500(4) 0.6569(3)
H1A H 0.8562 -0.6115 0.7199
C3A C 0.8138(4) -0.5647(4) 0.5398(4)
H2A H 0.8885 -0.6373 0.5217
C4A C 0.7233(4) -0.4718(4) 0.4511(3)
H3A H 0.7346 -0.4787 0.3700
C5A C 0.6149(4) -0.3679(4) 0.4812(3)
H4A H 0.5537 -0.3031 0.4187
C6A C 0.6614(4) -0.4225(4) 0.8025(3)
H5A H 0.7222 -0.4843 0.8665
C7A C 0.5536(4) -0.2886(4) 0.9327(3)
C8A C 0.6853(4) -0.3057(5) 0.9931(3)
H6A H 0.7836 -0.3496 0.9653
C9A C 0.6736(5) -0.2583(5) 1.0948(3)
H7A H 0.7633 -0.2703 1.1368
C10A C 0.5302(5) -0.1941(5) 1.1332(3)
H8A H 0.5234 -0.1592 1.2006
C11A C 0.3949(5) -0.1788(4) 1.0762(3)
H9A H 0.2962 -0.1372 1.1059
C12A C 0.4072(4) -0.2260(4) 0.9748(3)
C13A C 0.1293(4) -0.1609(5) 0.9554(4)
H10A H 0.0897 -0.2271 1.0416
H11A H 0.1389 -0.0618 0.9552
H12A H 0.0540 -0.1549 0.8986
N9A N 0.8642(4) -0.1389(4) 0.4662(3)
N10A N 0.8928(3) -0.1470(3) 0.3622(3)
N11A N 0.9111(5) -0.1655(5) 0.2683(4)
Hg2_2 Hg 0.0000 0.0000 0.5000
N5_2 N 1.2247(4) 0.0016(5) 0.2939(3)
N6A_2 N 1.1809(3) -0.2239(4) 0.6468(3)
loop_
_geom_bond_atom_site_label_1
_geom_bond_atom_site_label_2
_geom_bond_site_symmetry_1
_geom_bond_site_symmetry_2
Hg1 N1 1_555 1_555
Hg2 N6 1_555 1_555
N1 C1 1_555 1_555
N2 Hg1 1_555 1_555
N3 Hg1 1_555 1_555
N4 N3 1_555 1_555
N5 N4 1_555 1_555
N6 Hg1 1_555 1_555
N7 N6 1_555 1_555
N8 N7 1_555 1_555
N9 Hg2 1_555 1_555
N10 N9 1_555 1_555
N11 N10 1_555 1_555
O1 Hg1 1_555 1_555
C1 C2 1_555 1_555
C2 H1 1_555 1_555
C3 C2 1_555 1_555
H2 C3 1_555 1_555
C4 C3 1_555 1_555
H3 C4 1_555 1_555
C5 N1 1_555 1_555
H4 C5 1_555 1_555
C6 N2 1_555 1_555
H5 C6 1_555 1_555
C7 N2 1_555 1_555
C8 C7 1_555 1_555
H6 C8 1_555 1_555
C9 C8 1_555 1_555
H7 C9 1_555 1_555
C10 C9 1_555 1_555
H8 C10 1_555 1_555
C11 C10 1_555 1_555
H9 C11 1_555 1_555
C12 O1 1_555 1_555
C13 O1 1_555 1_555
H10 C13 1_555 1_555
H11 C13 1_555 1_555
H12 C13 1_555 1_555
Hg1A N3 1_555 1_555
N1A Hg1A 1_555 1_555
N2A Hg1A 1_555 1_555
N3A Hg1 1_555 1_555
N4A N3A 1_555 1_555
N5A Hg2 1_555 1_555
N6A Hg1A 1_555 1_555
N7A N6A 1_555 1_555
N8A N7A 1_555 1_555
O1A Hg1A 1_555 1_555
C1A N1A 1_555 1_555
C2A C1A 1_555 1_555
H1A C2A 1_555 1_555
C3A C2A 1_555 1_555
H2A C3A 1_555 1_555
C4A C3A 1_555 1_555
H3A C4A 1_555 1_555
C5A N1A 1_555 1_555
H4A C5A 1_555 1_555
C6A N2A 1_555 1_555
H5A C6A 1_555 1_555
C7A N2A 1_555 1_555
C8A C7A 1_555 1_555
H6A C8A 1_555 1_555
C9A C8A 1_555 1_555
H7A C9A 1_555 1_555
C10A C9A 1_555 1_555
H8A C10A 1_555 1_555
C11A C10A 1_555 1_555
H9A C11A 1_555 1_555
C12A O1A 1_555 1_555
C13A O1A 1_555 1_555
H10A C13A 1_555 1_555
H11A C13A 1_555 1_555
H12A C13A 1_555 1_555
N9A Hg2 1_555 1_555
N10A N9A 1_555 1_555
N11A N10A 1_555 1_555
Hg2_2 N5 1_555 1_555
N5_2 Hg2 1_555 1_555
N6A_2 Hg2 1_555 1_555
C1 C6 1_555 1_555
C4 C5 1_555 1_555
C7 C12 1_555 1_555
C11 C12 1_555 1_555
Hg1A N3A 1_555 1_555
N4A N5A 1_555 1_555
N6A Hg2_2 1_555 1_555
C1A C6A 1_555 1_555
C4A C5A 1_555 1_555
C7A C12A 1_555 1_555
C11A C12A 1_555 1_555

#END
