
#######################################################################
#
#                 Cambridge Crystallographic Data Centre
#                                CCDC 
#
#######################################################################
#
# If this CIF has been generated from an entry in the Cambridge 
# Structural Database, then it will include bibliographic, chemical, 
# crystal, experimental, refinement or atomic coordinate data resulting 
# from the CCDC's data processing and validation procedures.
#
#######################################################################

data_DIXVUC02
_symmetry_cell_setting           hexagonal
_symmetry_space_group_name_H-M   'P 63/m'
_symmetry_Int_Tables_number      176
_space_group_name_Hall           '-P 6c'
loop_
_symmetry_equiv_pos_site_id
_symmetry_equiv_pos_as_xyz
1 x,y,z
2 -y,x-y,z
3 -x+y,-x,z
4 y,-x+y,1/2+z
5 x-y,x,1/2+z
6 -x,-y,1/2+z
7 -x,-y,-z
8 y,-x+y,-z
9 x-y,x,-z
10 -y,x-y,1/2-z
11 -x+y,-x,1/2-z
12 x,y,1/2-z
_cell_length_a                   10.8575(2)
_cell_length_b                   10.8575(2)
_cell_length_c                   23.1037(4)
_cell_angle_alpha                90
_cell_angle_beta                 90
_cell_angle_gamma                120
_cell_volume                     2358.7
loop_
_atom_site_label
_atom_site_type_symbol
_atom_site_fract_x
_atom_site_fract_y
_atom_site_fract_z
Cl1 Cl 0.3333 0.6667 0.52585(8)
O5 O 0.3333 0.6667 0.5883(3)
O6 O 0.2056(5) 0.6581(6) 0.5109(2)
O6A O 0.3419(6) 0.5475(8) 0.5109(2)
O6B O 0.4525(8) 0.7944(5) 0.5109(2)
O7 O 0.0000 1.0000 0.3194(7)
O8 O -0.6667 0.6667 0.2993(9)
Fe1 Fe 0.0000 1.0000 0.5000
Fe2 Fe 0.46719(7) 1.20987(7) 0.2500
O1 O 0.4254(3) 1.3137(3) 0.31278(11)
O2 O 0.6151(3) 1.5341(3) 0.31294(12)
O3 O 0.6667 1.3334 0.2500
O4 O 0.2494(6) 1.0770(5) 0.2500
H2 H 0.1979 1.0928 0.2269
N1 N 0.1388(3) 1.1834(3) 0.44713(13)
N2 N 0.0885(4) 1.2573(4) 0.41880(19)
N3 N 0.1916(4) 1.3675(4) 0.3939(2)
N4 N 0.3105(3) 1.3650(3) 0.40601(12)
C1 C 0.2766(4) 1.2519(3) 0.43879(16)
H3 H 0.3408 1.2255 0.4535
C2 C 0.4483(4) 1.4778(3) 0.38585(16)
H4 H 0.5183 1.5025 0.4169
H5 H 0.4414 1.5625 0.3772
C3 C 0.4998(4) 1.4366(3) 0.33265(13)
Fe2A Fe -0.20987(7) 1.25732(10) 0.2500
Fe2B Fe -0.25732(10) 0.53281(7) 0.2500
Fe2B_2 Fe 0.74268(10) 1.53281(7) 0.2500
Fe2A_2 Fe 0.79013(7) 1.25732(10) 0.2500
Fe2_2 Fe -0.53281(7) 1.20987(7) 0.2500
Fe2A_3 Fe -0.20987(7) 0.25732(10) 0.2500
Fe2F Fe -0.46719(7) 0.79013(7) 0.7500
Fe2D Fe -0.74268(10) 0.46719(7) 0.7500
Fe2C Fe 0.20987(7) 0.74268(10) 0.7500
Fe2F_2 Fe 0.53281(7) 0.79013(7) 0.7500
Fe2D_2 Fe 0.25732(10) 1.46719(7) 0.7500
Fe2C_2 Fe 0.20987(7) 1.74268(10) 0.7500
O1A O -0.3137(3) 1.1117(4) 0.31278(11)
O1B O -0.1117(4) 0.5746(3) 0.31278(11)
O1F O -0.4254(3) 0.6863(3) 0.68722(11)
O1G O 0.3137(3) 0.8883(4) 0.68722(11)
O1H O 0.1117(4) 1.4254(3) 0.68722(11)
O1K O 0.4254(3) 1.3137(3) 0.18722(11)
O1I O -0.3137(3) 1.1117(4) 0.18722(11)
O1J O -0.1117(4) 0.5746(3) 0.18722(11)
O2A O -0.5341(3) 1.0810(4) 0.31294(12)
O2B O -0.0810(4) 0.3849(3) 0.31294(12)
O2F O -0.6151(3) 0.4659(3) 0.68706(12)
O2G O 0.5341(3) 0.9190(4) 0.68706(12)
O2H O 0.0810(4) 1.6151(3) 0.68706(12)
O2A_2 O 0.4659(3) 1.0810(4) 0.31294(12)
O2I O 0.4659(3) 1.0810(4) 0.18706(12)
O2B_2 O -0.0810(4) 1.3849(3) 0.31294(12)
O2J O -0.0810(4) 1.3849(3) 0.18706(12)
O2_2 O -0.3849(3) 0.5341(3) 0.31294(12)
O2K O -0.3849(3) 0.5341(3) 0.18706(12)
O3_2 O -0.3333 1.3334 0.2500
O3_3 O -0.3333 0.3334 0.2500
O4A O -0.0770(5) 1.1724(8) 0.2500
O4B O -0.1724(8) 0.7506(6) 0.2500
H2K H 0.1979 1.0928 0.2731
H2A H -0.0928 1.1051 0.2269
H2I H -0.0928 1.1051 0.2731
H2B H -0.1051 0.8021 0.2269
H2J H -0.1051 0.8021 0.2731
N1A N -0.1834(3) 0.9554(4) 0.44713(13)
N1B N 0.0446(4) 0.8612(3) 0.44713(13)
N1F N -0.1388(3) 0.8166(3) 0.55287(13)
N1G N 0.1834(3) 1.0446(4) 0.55287(13)
N1H N -0.0446(4) 1.1388(3) 0.55287(13)
N2A N -0.2573(4) 0.8312(6) 0.41880(19)
N2B N 0.1688(6) 0.9115(4) 0.41880(19)
N2F N -0.0885(4) 0.7427(4) 0.58120(19)
N2G N 0.2573(4) 1.1688(6) 0.58120(19)
N2H N -0.1688(6) 1.0885(4) 0.58120(19)
N3A N -0.3675(4) 0.8241(6) 0.3939(2)
N3B N 0.1759(6) 0.8084(4) 0.3939(2)
N3F N -0.1916(4) 0.6325(4) 0.6061(2)
N3G N 0.3675(4) 1.1759(6) 0.6061(2)
N3H N -0.1759(6) 1.1916(4) 0.6061(2)
N4A N -0.3650(3) 0.9455(4) 0.40601(12)
N4B N 0.0545(4) 0.6895(3) 0.40601(12)
N4F N -0.3105(3) 0.6350(3) 0.59399(12)
N4G N 0.3650(3) 1.0545(4) 0.59399(12)
N4H N -0.0545(4) 1.3105(3) 0.59399(12)
C1A C -0.2519(3) 1.0247(5) 0.43879(16)
C1B C -0.0247(5) 0.7234(4) 0.43879(16)
C1F C -0.2766(4) 0.7481(3) 0.56121(16)
C1G C 0.2519(3) 0.9753(5) 0.56121(16)
C1H C 0.0247(5) 1.2766(4) 0.56121(16)
H3A H -0.2255 1.1153 0.4535
H3B H -0.1153 0.6592 0.4535
H3F H -0.3408 0.7745 0.5465
H3G H 0.2255 0.8847 0.5465
H3H H 0.1153 1.3408 0.5465
C2A C -0.4778(3) 0.9705(5) 0.38585(16)
C2B C 0.0295(5) 0.5517(4) 0.38585(16)
C2F C -0.4483(4) 0.5222(3) 0.61415(16)
C2G C 0.4778(3) 1.0295(5) 0.61415(16)
C2H C -0.0295(5) 1.4483(4) 0.61415(16)
H4A H -0.5025 1.0158 0.4169
H4B H -0.0158 0.4817 0.4169
H4F H -0.5183 0.4975 0.5831
H4G H 0.5025 0.9842 0.5831
H4H H 0.0158 1.5183 0.5831
H5A H -0.5625 0.8789 0.3772
H5B H 0.1211 0.5586 0.3772
H5F H -0.4414 0.4375 0.6228
H5G H 0.5625 1.1211 0.6228
H5H H -0.1211 1.4414 0.6228
C3A C -0.4366(3) 1.0632(5) 0.33265(13)
C3B C -0.0632(5) 0.5002(4) 0.33265(13)
C3F C -0.4998(4) 0.5634(3) 0.66735(13)
C3G C 0.4366(3) 0.9368(5) 0.66735(13)
C3H C 0.0632(5) 1.4998(4) 0.66735(13)
Fe3? Fe 0.7720(5) 1.6201(6) 0.2500
H1? H 0.7954 1.7887 0.2731
O9? O -0.669(9) 0.7030(13) 0.2500
O10? O -0.8460(19) 0.8209(17) 0.2500
O11? O -0.826(4) 0.636(5) 0.2500
O12? O -0.788(5) 0.748(7) 0.2500
loop_
_geom_bond_atom_site_label_1
_geom_bond_atom_site_label_2
_geom_bond_site_symmetry_1
_geom_bond_site_symmetry_2
Fe1 N1 1_555 1_555
Fe2 O1 1_555 1_555
O1 C3 1_555 1_555
O2 C3 1_555 1_555
O3 Fe2 1_555 1_555
O4 Fe2 1_555 1_555
H2 O4 1_555 1_555
N1 N2 1_555 1_555
N2 N3 1_555 1_555
N3 N4 1_555 1_555
N4 C1 1_555 1_555
C1 N1 1_555 1_555
H3 C1 1_555 1_555
C2 N4 1_555 1_555
H4 C2 1_555 1_555
H5 C2 1_555 1_555
C3 C2 1_555 1_555
Cl1 O5 1_555 1_555
O6 Cl1 1_555 1_555
Fe2A O1A 1_555 1_555
Fe2B O1B 1_555 1_555
Fe2B_2 O2 1_555 1_555
Fe2A_2 O3 1_555 1_555
Fe2_2 O2A 1_555 1_555
Fe2A_3 O2B 1_555 1_555
Fe2F O1F 1_555 1_555
Fe2D O2F 1_555 1_555
Fe2C O1G 1_555 1_555
Fe2F_2 O2G 1_555 1_555
Fe2D_2 O1H 1_555 1_555
Fe2C_2 O2H 1_555 1_555
O1A C3A 1_555 1_555
O1B C3B 1_555 1_555
O1F C3F 1_555 1_555
O1G C3G 1_555 1_555
O1H C3H 1_555 1_555
O1K Fe2 1_555 1_555
O1I Fe2A 1_555 1_555
O1J Fe2B 1_555 1_555
O2A C3A 1_555 1_555
O2B C3B 1_555 1_555
O2F C3F 1_555 1_555
O2G C3G 1_555 1_555
O2H C3H 1_555 1_555
O2A_2 Fe2 1_555 1_555
O2I Fe2 1_555 1_555
O2B_2 Fe2A 1_555 1_555
O2J Fe2A 1_555 1_555
O2_2 Fe2B 1_555 1_555
O2K Fe2B 1_555 1_555
O3_2 Fe2A 1_555 1_555
O3_3 Fe2B 1_555 1_555
O4A Fe2A 1_555 1_555
O4B Fe2B 1_555 1_555
H2K O4 1_555 1_555
H2A O4A 1_555 1_555
H2I O4A 1_555 1_555
H2B O4B 1_555 1_555
H2J O4B 1_555 1_555
N1A Fe1 1_555 1_555
N1B Fe1 1_555 1_555
N1F Fe1 1_555 1_555
N1G Fe1 1_555 1_555
N1H Fe1 1_555 1_555
N2A N1A 1_555 1_555
N2B N1B 1_555 1_555
N2F N1F 1_555 1_555
N2G N1G 1_555 1_555
N2H N1H 1_555 1_555
N3A N2A 1_555 1_555
N3B N2B 1_555 1_555
N3F N2F 1_555 1_555
N3G N2G 1_555 1_555
N3H N2H 1_555 1_555
N4A N3A 1_555 1_555
N4B N3B 1_555 1_555
N4F N3F 1_555 1_555
N4G N3G 1_555 1_555
N4H N3H 1_555 1_555
C1A N1A 1_555 1_555
C1B N1B 1_555 1_555
C1F N1F 1_555 1_555
C1G N1G 1_555 1_555
C1H N1H 1_555 1_555
H3A C1A 1_555 1_555
H3B C1B 1_555 1_555
H3F C1F 1_555 1_555
H3G C1G 1_555 1_555
H3H C1H 1_555 1_555
C2A N4A 1_555 1_555
C2B N4B 1_555 1_555
C2F N4F 1_555 1_555
C2G N4G 1_555 1_555
C2H N4H 1_555 1_555
H4A C2A 1_555 1_555
H4B C2B 1_555 1_555
H4F C2F 1_555 1_555
H4G C2G 1_555 1_555
H4H C2H 1_555 1_555
H5A C2A 1_555 1_555
H5B C2B 1_555 1_555
H5F C2F 1_555 1_555
H5G C2G 1_555 1_555
H5H C2H 1_555 1_555
C3A C2A 1_555 1_555
C3B C2B 1_555 1_555
C3F C2F 1_555 1_555
C3G C2G 1_555 1_555
C3H C2H 1_555 1_555
O6A Cl1 1_555 1_555
O6B Cl1 1_555 1_555
O3 Fe2B_2 1_555 1_555
Fe2_2 O3_2 1_555 1_555
Fe2A_3 O3_3 1_555 1_555
N4A C1A 1_555 1_555
N4B C1B 1_555 1_555
N4F C1F 1_555 1_555
N4G C1G 1_555 1_555
N4H C1H 1_555 1_555

#END
