
#######################################################################
#
#                 Cambridge Crystallographic Data Centre
#                                CCDC 
#
#######################################################################
#
# If this CIF has been generated from an entry in the Cambridge 
# Structural Database, then it will include bibliographic, chemical, 
# crystal, experimental, refinement or atomic coordinate data resulting 
# from the CCDC's data processing and validation procedures.
#
#######################################################################

data_DIXWEN
_symmetry_cell_setting           orthorhombic
_symmetry_space_group_name_H-M   'P 2 2 21'
_symmetry_Int_Tables_number      17
_space_group_name_Hall           'P 2c 2'
loop_
_symmetry_equiv_pos_site_id
_symmetry_equiv_pos_as_xyz
1 x,y,z
2 -x,-y,1/2+z
3 -x,y,1/2-z
4 x,-y,-z
_cell_length_a                   7.4577(11)
_cell_length_b                   14.967(3)
_cell_length_c                   22.633(4)
_cell_angle_alpha                90
_cell_angle_beta                 90
_cell_angle_gamma                90
_cell_volume                     2526.28
loop_
_atom_site_label
_atom_site_type_symbol
_atom_site_fract_x
_atom_site_fract_y
_atom_site_fract_z
Zn1 Zn 0.48603(10) 0.0000 1.0000
Zn2 Zn 0.5000 0.52609(5) 0.7500
Zn3 Zn 0.00606(10) 0.0000 1.0000
Zn4 Zn 0.0000 0.49334(4) 0.7500
O1 O 0.4368(5) 0.4565(2) 0.81755(17)
O2 O 0.1677(5) 0.4090(2) 0.78675(16)
O3 O 0.2789(4) 0.0994(3) 0.99825(15)
O4 O 0.0554(5) 0.0944(2) 0.93569(15)
O5 O 0.6958(5) 0.3971(2) 1.22491(16)
O6 O 0.9350(5) 0.4419(2) 1.17875(17)
O7 O 0.6819(4) 0.1002(3) 1.00363(15)
O8 O 0.9233(4) 0.08924(19) 1.05934(14)
N1 N 0.4858(5) -0.00159(18) 1.09420(15)
C1 C 0.2845(6) 0.3549(3) 0.8792(2)
C2 C 0.1715(6) 0.2650(3) 0.8765(2)
C3 C 0.2664(6) 0.2124(3) 0.9256(2)
C4 C 0.4315(7) 0.2432(3) 0.9349(3)
H1 H 0.5123 0.2172 0.9610
C5 C 0.4724(7) 0.3233(3) 0.8989(2)
H2 H 0.5467 0.3083 0.8652
H3 H 0.5324 0.3687 0.9223
C6 C 0.2101(9) 0.4204(4) 0.9258(3)
H4 H 0.2812 0.4739 0.9259
H5 H 0.2146 0.3931 0.9641
H6 H 0.0882 0.4351 0.9163
C7 C 0.2044(8) 0.2146(3) 0.8189(3)
H7 H 0.1346 0.1606 0.8186
H8 H 0.3293 0.1999 0.8156
H9 H 0.1698 0.2514 0.7861
C8 C -0.0272(7) 0.2786(4) 0.8851(3)
H10 H -0.0871 0.2219 0.8834
H11 H -0.0725 0.3167 0.8544
H12 H -0.0484 0.3058 0.9228
C9 C 0.2939(7) 0.4093(3) 0.8221(2)
C10 C 0.1952(7) 0.1310(3) 0.9538(2)
C11 C 0.7333(6) 0.3523(3) 1.1233(2)
C12 C 0.8537(6) 0.2655(3) 1.1143(2)
C13 C 0.7260(6) 0.2085(3) 1.0782(2)
C14 C 0.5561(7) 0.2349(3) 1.0846(2)
H13 H 0.4589 0.2075 1.0664
C15 C 0.5413(6) 0.3140(3) 1.1246(3)
H14 H 0.5072 0.2963 1.1643
H15 H 0.4549 0.3570 1.1098
C16 C 0.7498(8) 0.4178(4) 1.0717(3)
H16 H 0.6755 0.4690 1.0790
H17 H 0.7118 0.3891 1.0359
H18 H 0.8724 0.4365 1.0678
C17 C 1.0314(7) 0.2851(3) 1.0822(3)
H19 H 1.0987 0.2308 1.0781
H20 H 1.0998 0.3275 1.1047
H21 H 1.0066 0.3094 1.0438
C18 C 0.8928(8) 0.2200(4) 1.1730(3)
H22 H 0.9648 0.1678 1.1663
H23 H 0.7820 0.2030 1.1914
H24 H 0.9564 0.2606 1.1983
C19 C 0.7894(7) 0.4005(3) 1.1792(3)
C20 C 0.7798(6) 0.1276(3) 1.0451(2)
C21 C 0.6243(6) -0.0372(3) 1.12374(19)
H25 H 0.7166 -0.0637 1.1023
C22 C 0.6355(6) -0.0361(3) 1.1845(2)
H26 H 0.7356 -0.0599 1.2033
C23 C 0.4971(6) 0.0004(2) 1.21742(18)
C24 C 0.3524(6) 0.0354(3) 1.1864(2)
H27 H 0.2552 0.0595 1.2066
C25 C 0.3537(6) 0.0342(3) 1.12555(19)
H28 H 0.2575 0.0596 1.1055
Zn1A Zn 0.51397(10) 0.0000 1.5000
Zn2A Zn 0.5000 0.47391(5) 1.2500
Zn2A_2 Zn 0.5000 -0.52609(5) 1.2500
Zn2_2 Zn 0.5000 -0.47391(5) 0.7500
Zn3_2 Zn 1.00606(10) 0.0000 1.0000
Zn4A Zn 1.0000 0.50666(4) 1.2500
Zn4A_2 Zn 0.0000 -0.49334(4) 1.2500
Zn4_2 Zn 1.0000 -0.50666(4) 0.7500
O1C O 0.4368(5) -0.4565(2) 1.18245(17)
O1B O 0.5632(5) 0.4565(2) 0.68245(17)
O2C O 0.1677(5) -0.4090(2) 1.21325(16)
O2B O -0.1677(5) 0.4090(2) 0.71325(16)
O3C O 0.2789(4) -0.0994(3) 1.00175(15)
O4C O 0.0554(5) -0.0944(2) 1.06431(15)
O5C O 0.6958(5) -0.3971(2) 0.77509(16)
O5A O 0.3042(5) 0.6029(2) 0.72491(16)
O5C_2 O 0.6958(5) 0.6029(2) 0.77509(16)
O6C O 0.9350(5) -0.4419(2) 0.82125(17)
O6A O 0.0650(5) 0.5581(2) 0.67875(17)
O6C_2 O -0.0650(5) 0.5581(2) 0.82125(17)
O7C O 0.6819(4) -0.1002(3) 0.99637(15)
O8C O 0.9233(4) -0.08924(19) 0.94066(14)
O8_2 O -0.0767(4) 0.08924(19) 1.05934(14)
O8C_2 O -0.0767(4) -0.08924(19) 0.94066(14)
N1B N 0.5142(5) -0.00159(18) 1.40580(15)
N1C N 0.4858(5) 0.00159(18) 0.90580(15)
C1C C 0.2845(6) -0.3549(3) 1.1208(2)
C2C C 0.1715(6) -0.2650(3) 1.1235(2)
C3C C 0.2664(6) -0.2124(3) 1.0744(2)
C4C C 0.4315(7) -0.2432(3) 1.0651(3)
H1C H 0.5123 -0.2172 1.0390
C5C C 0.4724(7) -0.3233(3) 1.1011(2)
H2C H 0.5467 -0.3083 1.1348
H3C H 0.5324 -0.3687 1.0777
C6C C 0.2101(9) -0.4204(4) 1.0742(3)
H4C H 0.2812 -0.4739 1.0741
H5C H 0.2146 -0.3931 1.0359
H6C H 0.0882 -0.4351 1.0837
C7C C 0.2044(8) -0.2146(3) 1.1811(3)
H7C H 0.1346 -0.1606 1.1814
H8C H 0.3293 -0.1999 1.1844
H9C H 0.1698 -0.2514 1.2139
C8C C -0.0272(7) -0.2786(4) 1.1149(3)
H10C H -0.0871 -0.2219 1.1166
H11C H -0.0725 -0.3167 1.1456
H12C H -0.0484 -0.3058 1.0772
C9C C 0.2939(7) -0.4093(3) 1.1779(2)
C10C C 0.1952(7) -0.1310(3) 1.0462(2)
C11C C 0.7333(6) -0.3523(3) 0.8767(2)
C12C C 0.8537(6) -0.2655(3) 0.8857(2)
C13C C 0.7260(6) -0.2085(3) 0.9218(2)
C14C C 0.5561(7) -0.2349(3) 0.9154(2)
H13C H 0.4589 -0.2075 0.9336
C15C C 0.5413(6) -0.3140(3) 0.8754(3)
H14C H 0.5072 -0.2963 0.8357
H15C H 0.4549 -0.3570 0.8902
C16C C 0.7498(8) -0.4178(4) 0.9283(3)
H16C H 0.6755 -0.4690 0.9210
H17C H 0.7118 -0.3891 0.9641
H18C H 0.8724 -0.4365 0.9322
C17C C 1.0314(7) -0.2851(3) 0.9178(3)
H19C H 1.0987 -0.2308 0.9219
H20C H 1.0998 -0.3275 0.8953
H21C H 1.0066 -0.3094 0.9562
C18C C 0.8928(8) -0.2200(4) 0.8270(3)
H22C H 0.9648 -0.1678 0.8337
H23C H 0.7820 -0.2030 0.8086
H24C H 0.9564 -0.2606 0.8017
C19C C 0.7894(7) -0.4005(3) 0.8208(3)
C20C C 0.7798(6) -0.1276(3) 0.9549(2)
C21B C 0.3757(6) -0.0372(3) 1.37626(19)
H25B H 0.2834 -0.0637 1.3977
C22B C 0.3645(6) -0.0361(3) 1.3155(2)
H26B H 0.2644 -0.0599 1.2967
C23B C 0.5029(6) 0.0004(2) 1.28258(18)
C24B C 0.6476(6) 0.0354(3) 1.3136(2)
H27B H 0.7448 0.0595 1.2934
C25B C 0.6463(6) 0.0342(3) 1.37445(19)
H28B H 0.7425 0.0596 1.3945
loop_
_geom_bond_atom_site_label_1
_geom_bond_atom_site_label_2
_geom_bond_site_symmetry_1
_geom_bond_site_symmetry_2
Zn1 O3 1_555 1_555
Zn2 O1 1_555 1_555
Zn3 O3 1_555 1_555
Zn4 O2 1_555 1_555
O1 C9 1_555 1_555
O2 C9 1_555 1_555
O3 C10 1_555 1_555
O4 Zn3 1_555 1_555
O5 C19 1_555 1_555
O6 C19 1_555 1_555
O7 Zn1 1_555 1_555
O8 C20 1_555 1_555
N1 Zn1 1_555 1_555
C1 C2 1_555 1_555
C2 C3 1_555 1_555
C3 C4 1_555 1_555
C4 H1 1_555 1_555
C5 C1 1_555 1_555
H2 C5 1_555 1_555
H3 C5 1_555 1_555
C6 C1 1_555 1_555
H4 C6 1_555 1_555
H5 C6 1_555 1_555
H6 C6 1_555 1_555
C7 C2 1_555 1_555
H7 C7 1_555 1_555
H8 C7 1_555 1_555
H9 C7 1_555 1_555
C8 C2 1_555 1_555
H10 C8 1_555 1_555
H11 C8 1_555 1_555
H12 C8 1_555 1_555
C9 C1 1_555 1_555
C10 O4 1_555 1_555
C11 C12 1_555 1_555
C12 C13 1_555 1_555
C13 C14 1_555 1_555
C14 H13 1_555 1_555
C15 C11 1_555 1_555
H14 C15 1_555 1_555
H15 C15 1_555 1_555
C16 C11 1_555 1_555
H16 C16 1_555 1_555
H17 C16 1_555 1_555
H18 C16 1_555 1_555
C17 C12 1_555 1_555
H19 C17 1_555 1_555
H20 C17 1_555 1_555
H21 C17 1_555 1_555
C18 C12 1_555 1_555
H22 C18 1_555 1_555
H23 C18 1_555 1_555
H24 C18 1_555 1_555
C19 C11 1_555 1_555
C20 O7 1_555 1_555
C21 N1 1_555 1_555
H25 C21 1_555 1_555
C22 C21 1_555 1_555
H26 C22 1_555 1_555
C23 C22 1_555 1_555
C24 C23 1_555 1_555
H27 C24 1_555 1_555
C25 N1 1_555 1_555
H28 C25 1_555 1_555
Zn1A N1B 1_555 1_555
Zn2A O5 1_555 1_555
Zn2A_2 O1C 1_555 1_555
Zn2_2 O5C 1_555 1_555
Zn3_2 O8 1_555 1_555
Zn4A O6 1_555 1_555
Zn4A_2 O2C 1_555 1_555
Zn4_2 O6C 1_555 1_555
O1C C9C 1_555 1_555
O1B Zn2 1_555 1_555
O2C C9C 1_555 1_555
O2B Zn4 1_555 1_555
O3C Zn1 1_555 1_555
O4C Zn3 1_555 1_555
O5C C19C 1_555 1_555
O5A Zn2 1_555 1_555
O5C_2 Zn2 1_555 1_555
O6C C19C 1_555 1_555
O6A Zn4 1_555 1_555
O6C_2 Zn4 1_555 1_555
O7C Zn1 1_555 1_555
O8C Zn3_2 1_555 1_555
O8_2 Zn3 1_555 1_555
O8C_2 Zn3 1_555 1_555
N1B C21B 1_555 1_555
N1C Zn1 1_555 1_555
C1C C2C 1_555 1_555
C2C C3C 1_555 1_555
C3C C4C 1_555 1_555
C4C H1C 1_555 1_555
C5C C1C 1_555 1_555
H2C C5C 1_555 1_555
H3C C5C 1_555 1_555
C6C C1C 1_555 1_555
H4C C6C 1_555 1_555
H5C C6C 1_555 1_555
H6C C6C 1_555 1_555
C7C C2C 1_555 1_555
H7C C7C 1_555 1_555
H8C C7C 1_555 1_555
H9C C7C 1_555 1_555
C8C C2C 1_555 1_555
H10C C8C 1_555 1_555
H11C C8C 1_555 1_555
H12C C8C 1_555 1_555
C9C C1C 1_555 1_555
C10C O3C 1_555 1_555
C11C C12C 1_555 1_555
C12C C13C 1_555 1_555
C13C C14C 1_555 1_555
C14C H13C 1_555 1_555
C15C C11C 1_555 1_555
H14C C15C 1_555 1_555
H15C C15C 1_555 1_555
C16C C11C 1_555 1_555
H16C C16C 1_555 1_555
H17C C16C 1_555 1_555
H18C C16C 1_555 1_555
C17C C12C 1_555 1_555
H19C C17C 1_555 1_555
H20C C17C 1_555 1_555
H21C C17C 1_555 1_555
C18C C12C 1_555 1_555
H22C C18C 1_555 1_555
H23C C18C 1_555 1_555
H24C C18C 1_555 1_555
C19C C11C 1_555 1_555
C20C O7C 1_555 1_555
C21B H25B 1_555 1_555
C22B C21B 1_555 1_555
H26B C22B 1_555 1_555
C23B C23 1_555 1_555
C24B C23B 1_555 1_555
H27B C24B 1_555 1_555
C25B N1B 1_555 1_555
H28B C25B 1_555 1_555
Zn3 O3C 1_555 1_555
C3 C10 1_555 1_555
C4 C5 1_555 1_555
C13 C20 1_555 1_555
C14 C15 1_555 1_555
C24 C25 1_555 1_555
O4C C10C 1_555 1_555
O8C C20C 1_555 1_555
C3C C10C 1_555 1_555
C4C C5C 1_555 1_555
C13C C20C 1_555 1_555
C14C C15C 1_555 1_555
C22B C23B 1_555 1_555
C24B C25B 1_555 1_555

#END
