
#######################################################################
#
#                 Cambridge Crystallographic Data Centre
#                                CCDC 
#
#######################################################################
#
# If this CIF has been generated from an entry in the Cambridge 
# Structural Database, then it will include bibliographic, chemical, 
# crystal, experimental, refinement or atomic coordinate data resulting 
# from the CCDC's data processing and validation procedures.
#
#######################################################################

data_DIYCEU
_symmetry_cell_setting           monoclinic
_symmetry_space_group_name_H-M   'P 21/n'
_symmetry_Int_Tables_number      14
_space_group_name_Hall           '-P 2yn'
loop_
_symmetry_equiv_pos_site_id
_symmetry_equiv_pos_as_xyz
1 x,y,z
2 1/2-x,1/2+y,1/2-z
3 -x,-y,-z
4 1/2+x,1/2-y,1/2+z
_cell_length_a                   8.745(5)
_cell_length_b                   23.361(13)
_cell_length_c                   23.271(13)
_cell_angle_alpha                90
_cell_angle_beta                 91.786(7)
_cell_angle_gamma                90
_cell_volume                     4751.77
loop_
_atom_site_label
_atom_site_type_symbol
_atom_site_fract_x
_atom_site_fract_y
_atom_site_fract_z
Pr1 Pr 0.54886(8) 1.51962(3) 0.28717(3)
N1 N 0.5229(12) 1.3928(4) 0.1510(4)
H1 H 0.5233 1.3598 0.1346
N2 N 0.3014(16) 1.4624(6) 0.0389(6)
N3 N 0.0528(11) 1.1097(4) -0.0708(4)
H2 H 0.0488 1.1426 -0.0543
N4 N 0.3610(13) 1.0633(4) -0.0651(4)
N5 N 0.6153(13) 1.6026(4) 0.3858(5)
N6 N 0.4295(15) 1.6084(6) 0.2026(5)
N7 N 0.2097(14) 1.4949(6) 0.2840(6)
O1 O 0.2481(10) 1.2464(4) 0.1356(3)
O2 O 0.0634(10) 1.2679(4) 0.0416(4)
O3 O 0.6120(9) 1.2865(3) 0.1451(3)
O4 O 0.1200(8) 1.2175(3) -0.0916(3)
O5 O 0.6127(9) 1.4437(3) 0.2236(4)
O6 O 0.0016(9) 1.0607(3) -0.1515(3)
O7 O 0.5263(10) 1.5590(4) 0.3881(4)
O8 O 0.6758(12) 1.6091(4) 0.3399(5)
O9 O 0.6385(12) 1.6313(4) 0.4263(5)
O10 O 0.4756(13) 1.6206(4) 0.2528(4)
O11 O 0.4368(12) 1.5582(4) 0.1884(4)
O12 O 0.3802(18) 1.6448(6) 0.1705(5)
O13 O 0.2630(12) 1.5341(5) 0.3162(5)
O14 O 0.2926(11) 1.4712(4) 0.2512(4)
O15 O 0.0773(12) 1.4801(7) 0.2879(6)
O16 O 0.7706(11) 1.5506(4) 0.2283(4)
H3 H 0.8075 1.5277 0.2060
O17 O 0.7911(8) 1.4902(3) 0.3341(3)
H4 H 0.8171 1.4871 0.3695
H5 H 0.8725 1.4840 0.3160
C1 C 0.4637(14) 1.2387(5) 0.0760(5)
C2 C 0.3180(14) 1.2473(5) 0.0819(5)
C3 C 0.2164(14) 1.2582(5) 0.0350(5)
C4 C 0.2724(14) 1.2604(5) -0.0177(5)
C5 C 0.4284(13) 1.2487(5) -0.0262(5)
C6 C 0.5248(14) 1.2401(5) 0.0212(5)
C7 C 0.6765(15) 1.2346(5) 0.0140(5)
H10 H 0.7403 1.2302 0.0464
C8 C 0.7413(16) 1.2352(6) -0.0392(6)
H11 H 0.8464 1.2318 -0.0431
C9 C 0.6400(14) 1.2412(6) -0.0874(5)
H12 H 0.6794 1.2405 -0.1241
C10 C 0.4893(14) 1.2479(5) -0.0819(5)
H13 H 0.4251 1.2519 -0.1142
C11 C 0.1580(18) 1.1964(7) 0.1478(6)
H14 H 0.0832 1.1906 0.1173
H15 H 0.1072 1.2018 0.1834
H16 H 0.2237 1.1635 0.1508
C12 C 0.0247(18) 1.3200(7) 0.0699(7)
H17 H 0.0869 1.3241 0.1043
H18 H -0.0813 1.3191 0.0795
H19 H 0.0423 1.3517 0.0447
C13 C 0.5641(13) 1.2299(5) 0.1296(5)
H20 H 0.5068 1.2125 0.1600
H21 H 0.6514 1.2059 0.1216
C14 C 0.1687(13) 1.2721(5) -0.0684(5)
H22 H 0.2224 1.2937 -0.0972
H23 H 0.0809 1.2942 -0.0569
C15 C 0.6108(15) 1.3995(5) 0.1965(5)
C16 C 0.7101(13) 1.3495(5) 0.2164(5)
C17 C 0.7061(13) 1.2951(5) 0.1924(5)
C18 C 0.8024(13) 1.2532(5) 0.2156(5)
H24 H 0.8027 1.2166 0.1998
C19 C 0.8946(14) 1.2655(5) 0.2607(5)
H25 H 0.9583 1.2373 0.2763
C20 C 0.8963(15) 1.3175(5) 0.2834(5)
H26 H 0.9616 1.3253 0.3148
C21 C 0.8030(13) 1.3600(5) 0.2614(5)
H27 H 0.8050 1.3962 0.2780
C22 C 0.4254(16) 1.4359(6) 0.1258(6)
H28 H 0.4639 1.4734 0.1368
H29 H 0.3235 1.4319 0.1406
C23 C 0.4165(18) 1.4316(6) 0.0605(6)
C24 C 0.507(2) 1.3990(6) 0.0301(7)
H30 H 0.5883 1.3791 0.0471
C25 C 0.4733(19) 1.3957(7) -0.0289(7)
H31 H 0.5286 1.3707 -0.0514
C26 C 0.367(2) 1.4269(7) -0.0526(7)
H32 H 0.3512 1.4265 -0.0923
C27 C 0.279(2) 1.4601(7) -0.0194(7)
H33 H 0.2009 1.4818 -0.0367
C28 C 0.0135(13) 1.1073(5) -0.1258(5)
C29 C -0.0247(12) 1.1621(5) -0.1544(4)
C30 C 0.0244(12) 1.2159(5) -0.1397(4)
C31 C -0.0179(13) 1.2632(5) -0.1708(5)
H34 H 0.0192 1.2991 -0.1601
C32 C -0.1144(14) 1.2577(5) -0.2173(5)
H35 H -0.1459 1.2898 -0.2381
C33 C -0.1647(14) 1.2042(5) -0.2332(5)
H36 H -0.2294 1.2001 -0.2654
C34 C -0.1218(13) 1.1583(5) -0.2030(5)
H37 H -0.1576 1.1225 -0.2147
C35 C 0.1020(14) 1.0618(5) -0.0361(5)
H38 H 0.0442 1.0606 -0.0012
H39 H 0.0834 1.0264 -0.0570
C36 C 0.2718(15) 1.0676(5) -0.0209(5)
C37 C 0.3252(16) 1.0772(6) 0.0338(6)
H40 H 0.2607 1.0797 0.0647
C38 C 0.4764(18) 1.0826(6) 0.0400(6)
H41 H 0.5179 1.0872 0.0770
C39 C 0.5714(19) 1.0820(6) -0.0031(7)
H42 H 0.6753 1.0887 0.0034
C40 C 0.5146(18) 1.0713(6) -0.0574(7)
H43 H 0.5791 1.0695 -0.0884
C41 C 0.836(2) 1.6038(7) 0.2231(8)
H44 H 0.8673 1.6177 0.2605
H45 H 0.7623 1.6298 0.2060
H46 H 0.9230 1.6012 0.1993
Pr1C Pr 0.04886(8) 0.98038(3) -0.21283(3)
O6C O 0.5016(9) 1.4393(3) 0.3485(3)
O18 O 0.9072(14) 1.4916(6) 0.1480(5)
H6 H 0.9609 1.4615 0.1465
H7 H 0.9566 1.5176 0.1310
O19 O 0.133(3) 0.5644(13) 0.0940(11)
H8 H 0.0805 0.5369 0.0800
H9 H 0.1019 0.5942 0.0762
loop_
_geom_bond_atom_site_label_1
_geom_bond_atom_site_label_2
_geom_bond_site_symmetry_1
_geom_bond_site_symmetry_2
Pr1 O5 1_555 1_555
N1 H1 1_555 1_555
N2 C23 1_555 1_555
N3 H2 1_555 1_555
N4 C36 1_555 1_555
N5 O7 1_555 1_555
N6 O10 1_555 1_555
N7 O13 1_555 1_555
O1 C2 1_555 1_555
O2 C3 1_555 1_555
O3 C13 1_555 1_555
O4 C14 1_555 1_555
O5 C15 1_555 1_555
O6 C28 1_555 1_555
O7 Pr1 1_555 1_555
O8 Pr1 1_555 1_555
O9 N5 1_555 1_555
O10 Pr1 1_555 1_555
O11 Pr1 1_555 1_555
O12 N6 1_555 1_555
O13 Pr1 1_555 1_555
O14 Pr1 1_555 1_555
O15 N7 1_555 1_555
O16 Pr1 1_555 1_555
H3 O16 1_555 1_555
O17 Pr1 1_555 1_555
H4 O17 1_555 1_555
H5 O17 1_555 1_555
O18 H6 1_555 1_555
H7 O18 1_555 1_555
O19 H8 1_555 1_555
H9 O19 1_555 1_555
C1 C2 1_555 1_555
C2 C3 1_555 1_555
C3 C4 1_555 1_555
C4 C5 1_555 1_555
C5 C6 1_555 1_555
C6 C1 1_555 1_555
C7 C6 1_555 1_555
H10 C7 1_555 1_555
C8 C7 1_555 1_555
H11 C8 1_555 1_555
C9 C8 1_555 1_555
H12 C9 1_555 1_555
C10 C5 1_555 1_555
H13 C10 1_555 1_555
C11 O1 1_555 1_555
H14 C11 1_555 1_555
H15 C11 1_555 1_555
H16 C11 1_555 1_555
C12 O2 1_555 1_555
H17 C12 1_555 1_555
H18 C12 1_555 1_555
H19 C12 1_555 1_555
C13 C1 1_555 1_555
H20 C13 1_555 1_555
H21 C13 1_555 1_555
C14 C4 1_555 1_555
H22 C14 1_555 1_555
H23 C14 1_555 1_555
C15 N1 1_555 1_555
C16 C15 1_555 1_555
C17 O3 1_555 1_555
C18 C17 1_555 1_555
H24 C18 1_555 1_555
C19 C18 1_555 1_555
H25 C19 1_555 1_555
C20 C19 1_555 1_555
H26 C20 1_555 1_555
C21 C16 1_555 1_555
H27 C21 1_555 1_555
C22 N1 1_555 1_555
H28 C22 1_555 1_555
H29 C22 1_555 1_555
C23 C22 1_555 1_555
C24 C23 1_555 1_555
H30 C24 1_555 1_555
C25 C24 1_555 1_555
H31 C25 1_555 1_555
C26 C25 1_555 1_555
H32 C26 1_555 1_555
C27 N2 1_555 1_555
H33 C27 1_555 1_555
C28 N3 1_555 1_555
C29 C28 1_555 1_555
C30 O4 1_555 1_555
C31 C30 1_555 1_555
H34 C31 1_555 1_555
C32 C31 1_555 1_555
H35 C32 1_555 1_555
C33 C32 1_555 1_555
H36 C33 1_555 1_555
C34 C29 1_555 1_555
H37 C34 1_555 1_555
C35 N3 1_555 1_555
H38 C35 1_555 1_555
H39 C35 1_555 1_555
C36 C35 1_555 1_555
C37 C36 1_555 1_555
H40 C37 1_555 1_555
C38 C37 1_555 1_555
H41 C38 1_555 1_555
C39 C38 1_555 1_555
H42 C39 1_555 1_555
C40 N4 1_555 1_555
H43 C40 1_555 1_555
C41 O16 1_555 1_555
H44 C41 1_555 1_555
H45 C41 1_555 1_555
H46 C41 1_555 1_555
Pr1C O6 1_555 1_555
O6C Pr1 1_555 1_555
N5 O8 1_555 1_555
N6 O11 1_555 1_555
N7 O14 1_555 1_555
C9 C10 1_555 1_555
C16 C17 1_555 1_555
C20 C21 1_555 1_555
C26 C27 1_555 1_555
C29 C30 1_555 1_555
C33 C34 1_555 1_555
C39 C40 1_555 1_555

#END
