
#######################################################################
#
#                 Cambridge Crystallographic Data Centre
#                                CCDC 
#
#######################################################################
#
# If this CIF has been generated from an entry in the Cambridge 
# Structural Database, then it will include bibliographic, chemical, 
# crystal, experimental, refinement or atomic coordinate data resulting 
# from the CCDC's data processing and validation procedures.
#
#######################################################################

data_DIYDIZ
_symmetry_cell_setting           monoclinic
_symmetry_space_group_name_H-M   'P 21/n'
_symmetry_Int_Tables_number      14
_space_group_name_Hall           '-P 2yn'
loop_
_symmetry_equiv_pos_site_id
_symmetry_equiv_pos_as_xyz
1 x,y,z
2 1/2-x,1/2+y,1/2-z
3 -x,-y,-z
4 1/2+x,1/2-y,1/2+z
_cell_length_a                   8.7223(13)
_cell_length_b                   22.878(2)
_cell_length_c                   23.417(3)
_cell_angle_alpha                90.00
_cell_angle_beta                 90.00
_cell_angle_gamma                90.00
_cell_volume                     4672.83
loop_
_atom_site_label
_atom_site_type_symbol
_atom_site_fract_x
_atom_site_fract_y
_atom_site_fract_z
Sm1 Sm 0.59781(6) 1.015606(19) 0.198094(18)
N1 N 0.6622(10) 0.9043(3) 0.3419(3)
H1 H 0.6676 0.8709 0.3586
N2 N 0.6874(16) 0.9141(5) 0.4600(5)
N3 N 0.1644(8) 0.6119(3) 0.5603(2)
H2 H 0.1615 0.6433 0.5401
N4 N 0.4743(10) 0.5457(3) 0.5761(3)
N5 N 0.2894(15) 0.9818(6) 0.2228(5)
N6 N 0.6366(14) 1.0971(4) 0.2922(4)
N7 N 0.5300(10) 1.0986(4) 0.1048(4)
O1 O 0.2998(7) 0.7505(3) 0.3337(2)
O2 O 0.1178(7) 0.7769(3) 0.4271(2)
O3 O 0.7210(7) 0.9577(3) 0.2659(2)
O4 O 0.6756(7) 0.7923(2) 0.3279(2)
O5 O 0.0980(7) 0.5696(2) 0.6438(2)
O6 O 0.1884(6) 0.7258(2) 0.5654(2)
O7 O 0.3944(11) 0.9594(3) 0.2498(3)
O8 O 0.3168(10) 1.0227(4) 0.1881(4)
O9 O 0.1540(14) 0.9712(6) 0.2352(5)
O10 O 0.5075(10) 1.0749(3) 0.2807(3)
O11 O 0.7417(9) 1.0874(3) 0.2589(3)
O12 O 0.6525(11) 1.1279(3) 0.3342(3)
O13 O 0.5251(8) 1.0441(3) 0.0974(2)
O14 O 0.5761(8) 1.1152(3) 0.1531(3)
O15 O 0.4919(10) 1.1326(3) 0.0680(3)
O16 O 0.8474(7) 1.0227(3) 0.1562(2)
H3 H 0.8896 0.9958 0.1393
C1 C 0.5170(10) 0.7443(3) 0.3929(3)
C2 C 0.3643(11) 0.7525(4) 0.3870(3)
C3 C 0.2713(10) 0.7657(4) 0.4355(3)
C4 C 0.3312(10) 0.7669(3) 0.4882(3)
C5 C 0.4857(10) 0.7544(4) 0.4966(3)
C6 C 0.5839(10) 0.7457(3) 0.4483(3)
C7 C 0.7428(11) 0.7368(4) 0.4573(3)
H4 H 0.8073 0.7322 0.4260
C8 C 0.8025(12) 0.7350(4) 0.5104(4)
H5 H 0.9072 0.7298 0.5157
C9 C 0.7041(12) 0.7411(4) 0.5576(4)
H6 H 0.7452 0.7388 0.5941
C10 C 0.5518(12) 0.7503(4) 0.5517(4)
H7 H 0.4902 0.7539 0.5839
C11 C 0.6145(10) 0.7353(3) 0.3411(3)
H8 H 0.6966 0.7079 0.3490
H9 H 0.5537 0.7205 0.3096
C12 C 0.2027(13) 0.7000(5) 0.3244(4)
H10 H 0.2613 0.6650 0.3303
H11 H 0.1641 0.7007 0.2860
H12 H 0.1185 0.7010 0.3508
C13 C 0.0830(13) 0.8300(5) 0.3976(5)
H13 H 0.1075 0.8627 0.4216
H14 H -0.0242 0.8308 0.3884
H15 H 0.1423 0.8321 0.3631
C14 C 0.2305(10) 0.7805(4) 0.5383(3)
H16 H 0.1393 0.8010 0.5257
H17 H 0.2848 0.8052 0.5652
C15 C 0.7217(11) 0.9099(4) 0.2899(4)
C16 C 0.7950(10) 0.8578(3) 0.2643(3)
C17 C 0.7707(10) 0.8002(4) 0.2816(3)
C18 C 0.8361(10) 0.7541(4) 0.2527(3)
H18 H 0.8144 0.7157 0.2629
C19 C 0.9354(11) 0.7665(4) 0.2080(3)
H19 H 0.9839 0.7360 0.1889
C20 C 0.9630(10) 0.8229(4) 0.1916(4)
H20 H 1.0293 0.8304 0.1614
C21 C 0.8940(10) 0.8681(4) 0.2192(3)
H21 H 0.9137 0.9063 0.2078
C22 C 0.5874(14) 0.9530(5) 0.3721(4)
H22 H 0.4904 0.9625 0.3541
H23 H 0.6522 0.9875 0.3712
C23 C 0.5613(19) 0.9337(5) 0.4335(5)
C24 C 0.4253(17) 0.9374(5) 0.4595(5)
H24 H 0.3412 0.9505 0.4387
C25 C 0.4055(19) 0.9225(5) 0.5155(6)
H25 H 0.3121 0.9254 0.5344
C26 C 0.5326(19) 0.9038(6) 0.5402(6)
H26 H 0.5253 0.8939 0.5786
C27 C 0.6702(19) 0.8974(6) 0.5161(6)
H27 H 0.7521 0.8820 0.5367
C28 C 0.1091(10) 0.6149(4) 0.6133(3)
C29 C 0.0554(9) 0.6722(3) 0.6345(3)
C30 C 0.0945(9) 0.7257(3) 0.6124(3)
C31 C 0.0425(10) 0.7770(4) 0.6378(3)
H28 H 0.0713 0.8130 0.6230
C32 C -0.0510(10) 0.7741(4) 0.6844(3)
H29 H -0.0848 0.8085 0.7015
C33 C -0.0961(10) 0.7206(4) 0.7064(3)
H30 H -0.1630 0.7186 0.7373
C34 C -0.0409(10) 0.6714(4) 0.6821(3)
H31 H -0.0681 0.6355 0.6977
C35 C 0.2291(11) 0.5599(4) 0.5337(3)
H32 H 0.2003 0.5255 0.5554
H33 H 0.1894 0.5557 0.4952
C36 C 0.4001(11) 0.5654(4) 0.5320(4)
C37 C 0.4753(13) 0.5912(4) 0.4858(4)
H34 H 0.4201 0.6046 0.4545
C38 C 0.6339(14) 0.5963(5) 0.4873(5)
H35 H 0.6871 0.6132 0.4571
C39 C 0.7085(14) 0.5762(5) 0.5336(5)
H36 H 0.8145 0.5796 0.5362
C40 C 0.6291(14) 0.5513(5) 0.5759(4)
H37 H 0.6832 0.5369 0.6071
C41 C 0.9611(18) 1.0688(7) 0.1689(6)
H38 H 0.9101 1.1059 0.1717
H39 H 1.0358 1.0703 0.1388
H40 H 1.0113 1.0602 0.2044
Sm1C Sm 0.09781(6) 0.484394(19) 0.698094(18)
O5C O 0.5980(7) 0.9304(2) 0.1438(2)
loop_
_geom_bond_atom_site_label_1
_geom_bond_atom_site_label_2
_geom_bond_site_symmetry_1
_geom_bond_site_symmetry_2
Sm1 O3 1_555 1_555
N1 H1 1_555 1_555
N2 C23 1_555 1_555
N3 H2 1_555 1_555
N4 C36 1_555 1_555
N5 O7 1_555 1_555
N6 O10 1_555 1_555
N7 O13 1_555 1_555
O1 C2 1_555 1_555
O2 C3 1_555 1_555
O3 C15 1_555 1_555
O4 C11 1_555 1_555
O5 C28 1_555 1_555
O6 C14 1_555 1_555
O7 Sm1 1_555 1_555
O8 Sm1 1_555 1_555
O9 N5 1_555 1_555
O10 Sm1 1_555 1_555
O11 Sm1 1_555 1_555
O12 N6 1_555 1_555
O13 Sm1 1_555 1_555
O14 Sm1 1_555 1_555
O15 N7 1_555 1_555
O16 Sm1 1_555 1_555
H3 O16 1_555 1_555
C1 C2 1_555 1_555
C2 C3 1_555 1_555
C3 C4 1_555 1_555
C4 C5 1_555 1_555
C5 C6 1_555 1_555
C6 C1 1_555 1_555
C7 C6 1_555 1_555
H4 C7 1_555 1_555
C8 C7 1_555 1_555
H5 C8 1_555 1_555
C9 C8 1_555 1_555
H6 C9 1_555 1_555
C10 C5 1_555 1_555
H7 C10 1_555 1_555
C11 C1 1_555 1_555
H8 C11 1_555 1_555
H9 C11 1_555 1_555
C12 O1 1_555 1_555
H10 C12 1_555 1_555
H11 C12 1_555 1_555
H12 C12 1_555 1_555
C13 O2 1_555 1_555
H13 C13 1_555 1_555
H14 C13 1_555 1_555
H15 C13 1_555 1_555
C14 C4 1_555 1_555
H16 C14 1_555 1_555
H17 C14 1_555 1_555
C15 N1 1_555 1_555
C16 C15 1_555 1_555
C17 O4 1_555 1_555
C18 C17 1_555 1_555
H18 C18 1_555 1_555
C19 C18 1_555 1_555
H19 C19 1_555 1_555
C20 C19 1_555 1_555
H20 C20 1_555 1_555
C21 C16 1_555 1_555
H21 C21 1_555 1_555
C22 N1 1_555 1_555
H22 C22 1_555 1_555
H23 C22 1_555 1_555
C23 C22 1_555 1_555
C24 C23 1_555 1_555
H24 C24 1_555 1_555
C25 C24 1_555 1_555
H25 C25 1_555 1_555
C26 C25 1_555 1_555
H26 C26 1_555 1_555
C27 N2 1_555 1_555
H27 C27 1_555 1_555
C28 N3 1_555 1_555
C29 C28 1_555 1_555
C30 O6 1_555 1_555
C31 C30 1_555 1_555
H28 C31 1_555 1_555
C32 C31 1_555 1_555
H29 C32 1_555 1_555
C33 C32 1_555 1_555
H30 C33 1_555 1_555
C34 C29 1_555 1_555
H31 C34 1_555 1_555
C35 N3 1_555 1_555
H32 C35 1_555 1_555
H33 C35 1_555 1_555
C36 C35 1_555 1_555
C37 C36 1_555 1_555
H34 C37 1_555 1_555
C38 C37 1_555 1_555
H35 C38 1_555 1_555
C39 C38 1_555 1_555
H36 C39 1_555 1_555
C40 N4 1_555 1_555
H37 C40 1_555 1_555
C41 O16 1_555 1_555
H38 C41 1_555 1_555
H39 C41 1_555 1_555
H40 C41 1_555 1_555
Sm1C O5 1_555 1_555
O5C Sm1 1_555 1_555
N5 O8 1_555 1_555
N6 O11 1_555 1_555
N7 O14 1_555 1_555
C9 C10 1_555 1_555
C16 C17 1_555 1_555
C20 C21 1_555 1_555
C26 C27 1_555 1_555
C29 C30 1_555 1_555
C33 C34 1_555 1_555
C39 C40 1_555 1_555

#END
