
#######################################################################
#
#                 Cambridge Crystallographic Data Centre
#                                CCDC 
#
#######################################################################
#
# If this CIF has been generated from an entry in the Cambridge 
# Structural Database, then it will include bibliographic, chemical, 
# crystal, experimental, refinement or atomic coordinate data resulting 
# from the CCDC's data processing and validation procedures.
#
#######################################################################

data_DIYDEV
_symmetry_cell_setting           monoclinic
_symmetry_space_group_name_H-M   'P 21/c'
_symmetry_Int_Tables_number      14
_space_group_name_Hall           '-P 2ybc'
loop_
_symmetry_equiv_pos_site_id
_symmetry_equiv_pos_as_xyz
1 x,y,z
2 -x,1/2+y,1/2-z
3 -x,-y,-z
4 x,1/2-y,1/2+z
_cell_length_a                   12.660(2)
_cell_length_b                   20.069(3)
_cell_length_c                   17.628(3)
_cell_angle_alpha                90
_cell_angle_beta                 100.946(3)
_cell_angle_gamma                90
_cell_volume                     4397.32
loop_
_atom_site_label
_atom_site_type_symbol
_atom_site_fract_x
_atom_site_fract_y
_atom_site_fract_z
Gd1 Gd 0.66681(4) 0.432316(19) 0.15593(2)
N1 N 0.4267(6) 0.3664(3) 0.2790(4)
H1 H 0.3905 0.3474 0.3095
N2 N 0.2454(8) 0.4242(4) 0.3112(6)
N3 N -0.0967(5) 0.1908(3) 0.5765(4)
H2 H -0.0661 0.2234 0.5574
N4 N -0.1053(6) 0.0705(4) 0.4771(4)
N5 N 0.6393(6) 0.5639(4) 0.2171(4)
N6 N 0.4534(7) 0.4207(4) 0.0573(4)
N7 N 0.8547(7) 0.4461(4) 0.2768(5)
O1 O 0.3267(5) 0.3022(3) 0.5505(4)
O2 O 0.1311(6) 0.3559(3) 0.5663(4)
O3 O 0.4057(4) 0.2630(2) 0.3684(3)
O4 O -0.1119(5) 0.2962(3) 0.4917(3)
O5 O 0.5684(4) 0.3649(2) 0.2214(3)
O6 O -0.2416(5) 0.1606(3) 0.6233(3)
O7 O 0.6225(5) 0.5099(3) 0.2521(3)
O8 O 0.6652(5) 0.5574(2) 0.1530(4)
O9 O 0.6284(6) 0.6183(3) 0.2462(4)
O10 O 0.4874(5) 0.4751(3) 0.0901(3)
O11 O 0.5217(5) 0.3744(3) 0.0600(3)
O12 O 0.3599(6) 0.4128(3) 0.0253(4)
O13 O 0.8472(5) 0.4749(3) 0.2121(4)
O14 O 0.7830(5) 0.4035(3) 0.2826(3)
O15 O 0.9261(7) 0.4585(4) 0.3313(5)
O16 O 0.7198(4) 0.4643(2) 0.0386(3)
H3 H 0.7841 0.4535 0.0367
H4 H 0.7127 0.5059 0.0299
C1 C 0.2477(7) 0.2598(3) 0.4264(5)
C2 C 0.2386(7) 0.2936(4) 0.4913(5)
C3 C 0.1392(8) 0.3227(4) 0.4987(5)
C4 C 0.0469(7) 0.3143(4) 0.4434(5)
C5 C 0.0544(7) 0.2777(4) 0.3751(5)
C6 C 0.1557(7) 0.2517(4) 0.3664(5)
C7 C 0.1602(8) 0.2160(4) 0.2976(5)
H5 H 0.2259 0.1994 0.2898
C8 C 0.0710(10) 0.2057(5) 0.2430(6)
H6 H 0.0758 0.1824 0.1982
C9 C -0.0268(9) 0.2295(5) 0.2540(6)
H7 H -0.0876 0.2214 0.2164
C10 C -0.0371(8) 0.2645(5) 0.3177(6)
H8 H -0.1044 0.2799 0.3236
C11 C 0.3530(6) 0.2264(4) 0.4215(5)
H9 H 0.3989 0.2253 0.4722
H10 H 0.3399 0.1809 0.4036
C12 C -0.0556(7) 0.3446(4) 0.4547(5)
H11 H -0.0414 0.3841 0.4867
H12 H -0.0986 0.3573 0.4053
C13 C 0.3279(8) 0.2607(5) 0.6181(5)
H13 H 0.2603 0.2646 0.6348
H14 H 0.3849 0.2749 0.6589
H15 H 0.3393 0.2151 0.6053
C14 C 0.1885(10) 0.4185(5) 0.5778(6)
H16 H 0.2642 0.4105 0.5827
H17 H 0.1749 0.4395 0.6240
H18 H 0.1644 0.4472 0.5343
C15 C 0.5158(7) 0.3382(4) 0.2663(5)
C16 C 0.5548(6) 0.2750(3) 0.3055(4)
C17 C 0.5016(6) 0.2392(4) 0.3558(4)
C18 C 0.5466(7) 0.1813(4) 0.3895(5)
H19 H 0.5106 0.1572 0.4218
C19 C 0.6442(8) 0.1587(4) 0.3761(5)
H20 H 0.6741 0.1199 0.4000
C20 C 0.6971(7) 0.1931(4) 0.3279(5)
H21 H 0.7630 0.1780 0.3186
C21 C 0.6516(7) 0.2504(4) 0.2933(5)
H22 H 0.6878 0.2735 0.2603
C22 C 0.3883(9) 0.4294(5) 0.2421(6)
H23 H 0.3531 0.4209 0.1891
H24 H 0.4493 0.4584 0.2410
C23 C 0.3117(8) 0.4636(5) 0.2834(6)
C24 C 0.3078(9) 0.5302(5) 0.2906(6)
H25 H 0.3574 0.5567 0.2720
C25 C 0.2306(10) 0.5593(6) 0.3255(6)
H26 H 0.2274 0.6053 0.3307
C26 C 0.1606(10) 0.5196(6) 0.3517(7)
H27 H 0.1063 0.5374 0.3745
C27 C 0.1708(10) 0.4532(6) 0.3444(8)
H28 H 0.1228 0.4259 0.3636
C28 C -0.1955(7) 0.2013(4) 0.5870(4)
C29 C -0.2510(6) 0.2630(4) 0.5555(4)
C30 C -0.3519(7) 0.2758(4) 0.5704(5)
H29 H -0.3808 0.2462 0.6016
C31 C -0.4122(7) 0.3303(5) 0.5413(6)
H30 H -0.4798 0.3375 0.5532
C32 C -0.3712(8) 0.3737(5) 0.4947(6)
H31 H -0.4113 0.4106 0.4744
C33 C -0.2707(8) 0.3632(4) 0.4774(5)
H32 H -0.2434 0.3928 0.4453
C34 C -0.2110(7) 0.3087(4) 0.5078(5)
C35 C -0.0331(7) 0.1301(4) 0.5936(5)
H33 H 0.0362 0.1403 0.6256
H34 H -0.0702 0.0986 0.6211
C36 C -0.0180(8) 0.1006(4) 0.5167(5)
C37 C 0.0754(8) 0.1095(4) 0.4894(7)
H35 H 0.1353 0.1297 0.5193
C38 C 0.0768(11) 0.0869(6) 0.4146(8)
H36 H 0.1378 0.0931 0.3931
C39 C -0.0112(12) 0.0558(5) 0.3730(7)
H37 H -0.0110 0.0400 0.3234
C40 C -0.0985(9) 0.0486(4) 0.4054(6)
H38 H -0.1581 0.0272 0.3768
Gd1C Gd -0.33319(4) 0.067684(19) 0.65593(2)
O6C O 0.7584(5) 0.3394(3) 0.1233(3)
loop_
_geom_bond_atom_site_label_1
_geom_bond_atom_site_label_2
_geom_bond_site_symmetry_1
_geom_bond_site_symmetry_2
Gd1 O5 1_555 1_555
N1 H1 1_555 1_555
N2 C23 1_555 1_555
N3 H2 1_555 1_555
N4 C36 1_555 1_555
N5 O7 1_555 1_555
N6 O10 1_555 1_555
N7 O13 1_555 1_555
O1 C2 1_555 1_555
O2 C3 1_555 1_555
O3 C11 1_555 1_555
O4 C12 1_555 1_555
O5 C15 1_555 1_555
O6 C28 1_555 1_555
O7 Gd1 1_555 1_555
O8 Gd1 1_555 1_555
O9 N5 1_555 1_555
O10 Gd1 1_555 1_555
O11 Gd1 1_555 1_555
O12 N6 1_555 1_555
O13 Gd1 1_555 1_555
O14 Gd1 1_555 1_555
O15 N7 1_555 1_555
O16 Gd1 1_555 1_555
H3 O16 1_555 1_555
H4 O16 1_555 1_555
C1 C2 1_555 1_555
C2 C3 1_555 1_555
C3 C4 1_555 1_555
C4 C5 1_555 1_555
C5 C6 1_555 1_555
C6 C1 1_555 1_555
C7 C6 1_555 1_555
H5 C7 1_555 1_555
C8 C7 1_555 1_555
H6 C8 1_555 1_555
C9 C8 1_555 1_555
H7 C9 1_555 1_555
C10 C5 1_555 1_555
H8 C10 1_555 1_555
C11 C1 1_555 1_555
H9 C11 1_555 1_555
H10 C11 1_555 1_555
C12 C4 1_555 1_555
H11 C12 1_555 1_555
H12 C12 1_555 1_555
C13 O1 1_555 1_555
H13 C13 1_555 1_555
H14 C13 1_555 1_555
H15 C13 1_555 1_555
C14 O2 1_555 1_555
H16 C14 1_555 1_555
H17 C14 1_555 1_555
H18 C14 1_555 1_555
C15 N1 1_555 1_555
C16 C15 1_555 1_555
C17 O3 1_555 1_555
C18 C17 1_555 1_555
H19 C18 1_555 1_555
C19 C18 1_555 1_555
H20 C19 1_555 1_555
C20 C19 1_555 1_555
H21 C20 1_555 1_555
C21 C16 1_555 1_555
H22 C21 1_555 1_555
C22 N1 1_555 1_555
H23 C22 1_555 1_555
H24 C22 1_555 1_555
C23 C22 1_555 1_555
C24 C23 1_555 1_555
H25 C24 1_555 1_555
C25 C24 1_555 1_555
H26 C25 1_555 1_555
C26 C25 1_555 1_555
H27 C26 1_555 1_555
C27 N2 1_555 1_555
H28 C27 1_555 1_555
C28 N3 1_555 1_555
C29 C28 1_555 1_555
C30 C29 1_555 1_555
H29 C30 1_555 1_555
C31 C30 1_555 1_555
H30 C31 1_555 1_555
C32 C31 1_555 1_555
H31 C32 1_555 1_555
C33 C32 1_555 1_555
H32 C33 1_555 1_555
C34 O4 1_555 1_555
C35 N3 1_555 1_555
H33 C35 1_555 1_555
H34 C35 1_555 1_555
C36 C35 1_555 1_555
C37 C36 1_555 1_555
H35 C37 1_555 1_555
C38 C37 1_555 1_555
H36 C38 1_555 1_555
C39 C38 1_555 1_555
H37 C39 1_555 1_555
C40 N4 1_555 1_555
H38 C40 1_555 1_555
Gd1C O6 1_555 1_555
O6C Gd1 1_555 1_555
N5 O8 1_555 1_555
N6 O11 1_555 1_555
N7 O14 1_555 1_555
C9 C10 1_555 1_555
C16 C17 1_555 1_555
C20 C21 1_555 1_555
C26 C27 1_555 1_555
C29 C34 1_555 1_555
C33 C34 1_555 1_555
C39 C40 1_555 1_555

#END
