
#######################################################################
#
#                 Cambridge Crystallographic Data Centre
#                                CCDC 
#
#######################################################################
#
# If this CIF has been generated from an entry in the Cambridge 
# Structural Database, then it will include bibliographic, chemical, 
# crystal, experimental, refinement or atomic coordinate data resulting 
# from the CCDC's data processing and validation procedures.
#
#######################################################################

data_DIYFUN
_symmetry_cell_setting           monoclinic
_symmetry_space_group_name_H-M   'P 21/n'
_symmetry_Int_Tables_number      14
_space_group_name_Hall           '-P 2yn'
loop_
_symmetry_equiv_pos_site_id
_symmetry_equiv_pos_as_xyz
1 x,y,z
2 1/2-x,1/2+y,1/2-z
3 -x,-y,-z
4 1/2+x,1/2-y,1/2+z
_cell_length_a                   11.1132(17)
_cell_length_b                   9.8314(16)
_cell_length_c                   21.455(2)
_cell_angle_alpha                90
_cell_angle_beta                 103.175(2)
_cell_angle_gamma                90
_cell_volume                     2282.44
loop_
_atom_site_label
_atom_site_type_symbol
_atom_site_fract_x
_atom_site_fract_y
_atom_site_fract_z
Sn1 Sn 0.31421(5) 0.19825(5) 0.27519(3)
O1 O 0.4572(5) 0.0454(5) 0.3093(3)
O2 O 0.3416(5) -0.1190(6) 0.2560(3)
O3 O 0.4729(6) -0.1225(8) 0.4398(3)
O4 O 0.6252(6) 0.0227(8) 0.4683(3)
H1 H 0.5842 0.0421 0.4944
C1 C 0.4365(7) -0.0805(8) 0.2935(4)
C2 C 0.5338(7) -0.1786(8) 0.3246(4)
H2 H 0.4910 -0.2523 0.3415
C3 C 0.5989(9) -0.2448(11) 0.2755(5)
H3 H 0.6294 -0.3340 0.2908
H4 H 0.5395 -0.2567 0.2351
C4 C 0.7041(11) -0.1604(13) 0.2650(6)
H5 H 0.7343 -0.1782 0.2288
C5 C 0.7566(9) -0.0634(14) 0.3031(5)
H6 H 0.8218 -0.0169 0.2923
C6 C 0.7191(7) -0.0221(10) 0.3625(4)
H7 H 0.6801 0.0666 0.3562
H8 H 0.7921 -0.0144 0.3971
C7 C 0.6301(7) -0.1233(9) 0.3814(4)
H9 H 0.6803 -0.2014 0.4001
C8 C 0.5726(8) -0.0693(9) 0.4327(4)
C9 C 0.3059(10) 0.1747(11) 0.1751(6)
H10 H 0.2607 0.0927 0.1592
H11 H 0.2638 0.2518 0.1516
C10 C 0.4340(10) 0.1660(14) 0.1666(6)
H12 H 0.4752 0.2510 0.1814
H13 H 0.4760 0.0948 0.1947
C11 C 0.4523(12) 0.1393(16) 0.1021(7)
H14 H 0.4370 0.2222 0.0769
H15 H 0.3932 0.0715 0.0814
C12 C 0.5781(12) 0.0910(16) 0.1037(7)
H16 H 0.6136 0.0539 0.1453
H17 H 0.6277 0.1656 0.0953
H18 H 0.5751 0.0219 0.0718
C13 C 0.1948(10) 0.1088(11) 0.3288(5)
H19 H 0.1173 0.0870 0.2993
H20 H 0.2315 0.0235 0.3464
C14 C 0.1663(11) 0.1884(12) 0.3817(6)
H21 H 0.1328 0.2759 0.3654
H22 H 0.2421 0.2048 0.4136
C15 C 0.0767(11) 0.1185(14) 0.4122(6)
H23 H 0.0005 0.1051 0.3802
H24 H 0.1092 0.0293 0.4263
C16 C 0.0480(15) 0.1897(15) 0.4667(7)
H25 H 0.1195 0.2388 0.4890
H26 H 0.0243 0.1248 0.4952
H27 H -0.0188 0.2521 0.4518
C17 C 0.4411(7) 0.3533(8) 0.3174(4)
H28 H 0.5045 0.3590 0.2930
H29 H 0.3970 0.4392 0.3119
C18 C 0.5019(12) 0.3412(12) 0.3837(6)
H30 H 0.5420 0.2530 0.3898
H31 H 0.4389 0.3416 0.4084
C19 C 0.5957(12) 0.4460(12) 0.4114(6)
H32 H 0.6503 0.4566 0.3823
H33 H 0.5526 0.5317 0.4117
C20 C 0.6684(14) 0.4258(15) 0.4718(7)
H34 H 0.6175 0.4269 0.5025
H35 H 0.7288 0.4971 0.4817
H36 H 0.7095 0.3396 0.4735
Sn1A Sn 0.18579(5) -0.30175(5) 0.22481(3)
O2A O 0.1584(5) 0.3810(6) 0.2440(3)
loop_
_geom_bond_atom_site_label_1
_geom_bond_atom_site_label_2
_geom_bond_site_symmetry_1
_geom_bond_site_symmetry_2
Sn1 O1 1_555 1_555
O1 C1 1_555 1_555
O2 C1 1_555 1_555
O3 C8 1_555 1_555
O4 H1 1_555 1_555
C1 C2 1_555 1_555
C2 H2 1_555 1_555
C3 C2 1_555 1_555
H3 C3 1_555 1_555
H4 C3 1_555 1_555
C4 C3 1_555 1_555
H5 C4 1_555 1_555
C5 C4 1_555 1_555
H6 C5 1_555 1_555
C6 C5 1_555 1_555
H7 C6 1_555 1_555
H8 C6 1_555 1_555
C7 C2 1_555 1_555
H9 C7 1_555 1_555
C8 O4 1_555 1_555
C9 Sn1 1_555 1_555
H10 C9 1_555 1_555
H11 C9 1_555 1_555
C10 C9 1_555 1_555
H12 C10 1_555 1_555
H13 C10 1_555 1_555
C11 C10 1_555 1_555
H14 C11 1_555 1_555
H15 C11 1_555 1_555
C12 C11 1_555 1_555
H16 C12 1_555 1_555
H17 C12 1_555 1_555
H18 C12 1_555 1_555
C13 Sn1 1_555 1_555
H19 C13 1_555 1_555
H20 C13 1_555 1_555
C14 C13 1_555 1_555
H21 C14 1_555 1_555
H22 C14 1_555 1_555
C15 C14 1_555 1_555
H23 C15 1_555 1_555
H24 C15 1_555 1_555
C16 C15 1_555 1_555
H25 C16 1_555 1_555
H26 C16 1_555 1_555
H27 C16 1_555 1_555
C17 Sn1 1_555 1_555
H28 C17 1_555 1_555
H29 C17 1_555 1_555
C18 C17 1_555 1_555
H30 C18 1_555 1_555
H31 C18 1_555 1_555
C19 C18 1_555 1_555
H32 C19 1_555 1_555
H33 C19 1_555 1_555
C20 C19 1_555 1_555
H34 C20 1_555 1_555
H35 C20 1_555 1_555
H36 C20 1_555 1_555
Sn1A O2 1_555 1_555
O2A Sn1 1_555 1_555
C6 C7 1_555 1_555
C7 C8 1_555 1_555

#END
