
#######################################################################
#
#                 Cambridge Crystallographic Data Centre
#                                CCDC 
#
#######################################################################
#
# If this CIF has been generated from an entry in the Cambridge 
# Structural Database, then it will include bibliographic, chemical, 
# crystal, experimental, refinement or atomic coordinate data resulting 
# from the CCDC's data processing and validation procedures.
#
#######################################################################

data_DIYFOH
_symmetry_cell_setting           monoclinic
_symmetry_space_group_name_H-M   'P 21/n'
_symmetry_Int_Tables_number      14
_space_group_name_Hall           '-P 2yn'
loop_
_symmetry_equiv_pos_site_id
_symmetry_equiv_pos_as_xyz
1 x,y,z
2 1/2-x,1/2+y,1/2-z
3 -x,-y,-z
4 1/2+x,1/2-y,1/2+z
_cell_length_a                   9.9322(17)
_cell_length_b                   14.702(2)
_cell_length_c                   12.906(2)
_cell_angle_alpha                90
_cell_angle_beta                 98.174(2)
_cell_angle_gamma                90
_cell_volume                     1865.43
loop_
_atom_site_label
_atom_site_type_symbol
_atom_site_fract_x
_atom_site_fract_y
_atom_site_fract_z
Sn1 Sn -0.05284(2) 0.324351(15) 0.988533(17)
Sn2 Sn 0.45142(2) 0.237720(15) 1.057320(17)
O1 O 0.0816(2) 0.39134(15) 0.89532(17)
O2 O 0.2432(2) 0.28807(16) 0.93618(18)
O3 O 0.1150(2) 0.30495(16) 0.67482(17)
O4 O 0.2747(2) 0.24509(15) 0.59230(19)
C1 C 0.1982(3) 0.3571(2) 0.8868(2)
C2 C 0.2843(3) 0.4056(2) 0.8154(2)
H1 H 0.3619 0.4309 0.8619
C3 C 0.2155(3) 0.4867(2) 0.7556(3)
H2 H 0.1249 0.4692 0.7235
H3 H 0.2064 0.5359 0.8042
C4 C 0.2950(4) 0.5196(3) 0.6723(3)
H4 H 0.2681 0.5738 0.6384
C5 C 0.3996(4) 0.4769(3) 0.6444(3)
H5 H 0.4436 0.5032 0.5929
C6 C 0.4523(3) 0.3893(2) 0.6898(3)
H6 H 0.5322 0.4004 0.7408
H7 H 0.4793 0.3513 0.6349
C7 C 0.3456(3) 0.3392(2) 0.7428(2)
H8 H 0.3929 0.2916 0.7869
C8 C 0.2403(3) 0.2926(2) 0.6629(2)
C9 C 0.0626(4) 0.3539(3) 1.1357(3)
H9 H 0.0274 0.4077 1.1643
H10 H 0.1559 0.3635 1.1270
H11 H 0.0567 0.3037 1.1825
C10 C -0.2137(4) 0.4141(2) 0.9349(3)
H12 H -0.2003 0.4385 0.8682
H13 H -0.2155 0.4628 0.9843
H14 H -0.2984 0.3817 0.9280
C11 C -0.0612(4) 0.1977(2) 0.9089(3)
H15 H -0.1419 0.1655 0.9203
H16 H 0.0174 0.1621 0.9350
H17 H -0.0628 0.2081 0.8353
C12 C 0.4725(4) 0.3772(2) 1.0959(3)
H18 H 0.5310 0.3838 1.1614
H19 H 0.5114 0.4086 1.0420
H20 H 0.3848 0.4024 1.1017
C13 C 0.3144(4) 0.1542(3) 1.1270(3)
H21 H 0.2408 0.1360 1.0747
H22 H 0.3615 0.1013 1.1568
H23 H 0.2790 0.1877 1.1810
C14 C 0.5295(4) 0.1742(3) 0.9309(3)
H24 H 0.5838 0.2169 0.8988
H25 H 0.5846 0.1231 0.9565
H26 H 0.4555 0.1537 0.8803
Sn1C Sn 0.44716(2) 0.175649(15) 0.488533(17)
Sn2C Sn -0.04858(2) 0.262280(15) 0.557320(17)
O3C O 0.6150(2) 0.19505(16) 1.17482(17)
O4C O -0.2253(2) 0.25491(15) 1.09230(19)
loop_
_geom_bond_atom_site_label_1
_geom_bond_atom_site_label_2
_geom_bond_site_symmetry_1
_geom_bond_site_symmetry_2
Sn1 O1 1_555 1_555
Sn2 O2 1_555 1_555
O1 C1 1_555 1_555
O2 C1 1_555 1_555
O3 C8 1_555 1_555
O4 C8 1_555 1_555
C1 C2 1_555 1_555
C2 H1 1_555 1_555
C3 C2 1_555 1_555
H2 C3 1_555 1_555
H3 C3 1_555 1_555
C4 C3 1_555 1_555
H4 C4 1_555 1_555
C5 C4 1_555 1_555
H5 C5 1_555 1_555
C6 C5 1_555 1_555
H6 C6 1_555 1_555
H7 C6 1_555 1_555
C7 C2 1_555 1_555
H8 C7 1_555 1_555
C8 C7 1_555 1_555
C9 Sn1 1_555 1_555
H9 C9 1_555 1_555
H10 C9 1_555 1_555
H11 C9 1_555 1_555
C10 Sn1 1_555 1_555
H12 C10 1_555 1_555
H13 C10 1_555 1_555
H14 C10 1_555 1_555
C11 Sn1 1_555 1_555
H15 C11 1_555 1_555
H16 C11 1_555 1_555
H17 C11 1_555 1_555
C12 Sn2 1_555 1_555
H18 C12 1_555 1_555
H19 C12 1_555 1_555
H20 C12 1_555 1_555
C13 Sn2 1_555 1_555
H21 C13 1_555 1_555
H22 C13 1_555 1_555
H23 C13 1_555 1_555
C14 Sn2 1_555 1_555
H24 C14 1_555 1_555
H25 C14 1_555 1_555
H26 C14 1_555 1_555
Sn1C O4 1_555 1_555
Sn2C O3 1_555 1_555
O3C Sn2 1_555 1_555
O4C Sn1 1_555 1_555
C6 C7 1_555 1_555

#END
