
#######################################################################
#
#                 Cambridge Crystallographic Data Centre
#                                CCDC 
#
#######################################################################
#
# If this CIF has been generated from an entry in the Cambridge 
# Structural Database, then it will include bibliographic, chemical, 
# crystal, experimental, refinement or atomic coordinate data resulting 
# from the CCDC's data processing and validation procedures.
#
#######################################################################

data_DIYJUQ05
_symmetry_cell_setting           orthorhombic
_symmetry_space_group_name_H-M   'P n m a'
_symmetry_Int_Tables_number      62
_space_group_name_Hall           '-P 2ac 2n'
loop_
_symmetry_equiv_pos_site_id
_symmetry_equiv_pos_as_xyz
1 x,y,z
2 1/2-x,-y,1/2+z
3 1/2+x,1/2-y,1/2-z
4 -x,1/2+y,-z
5 -x,-y,-z
6 1/2+x,y,1/2-z
7 1/2-x,1/2+y,1/2+z
8 x,1/2-y,z
_cell_length_a                   10.894(2)
_cell_length_b                   10.013(1)
_cell_length_c                   10.809
_cell_angle_alpha                90
_cell_angle_beta                 90
_cell_angle_gamma                90
_cell_volume                     1179.06
loop_
_atom_site_label
_atom_site_type_symbol
_atom_site_fract_x
_atom_site_fract_y
_atom_site_fract_z
Ca1 Ca 0.19342(4) 0.2500 0.22480(4)
Cl1 Cl 0.30413(4) 0.44709(4) 0.08782(4)
C1 C -0.0689(3) 0.2500 -0.2972(3)
C2 C 0.0665(2) 0.3713(3) -0.1590(2)
C3 C -0.1107(3) 0.2500 -0.0793(2)
C4 C -0.0743(2) 0.2500 0.0573(2)
N1 N -0.0102(2) 0.2500 -0.1716(2)
O1 O 0.0349(2) 0.2500 0.0885(2)
O2 O -0.1641(2) 0.2500 0.1275(2)
O3 O 0.0887(1) 0.4081(2) 0.3499(1)
Cl1G Cl 0.30413(4) 0.05291(4) 0.08782(4)
O3G O 0.0887(1) 0.0919(2) 0.3499(1)
O2B O 0.3359(2) 0.2500 0.3725(2)
C2G C 0.0665(2) 0.1287(3) -0.1590(2)
Ca1B Ca -0.30658(4) 0.2500 0.27520(4)
loop_
_geom_bond_atom_site_label_1
_geom_bond_atom_site_label_2
_geom_bond_site_symmetry_1
_geom_bond_site_symmetry_2
Ca1 Cl1 1_555 1_555
C1 N1 1_555 1_555
C2 N1 1_555 1_555
C3 C4 1_555 1_555
C4 O1 1_555 1_555
N1 C3 1_555 1_555
O1 Ca1 1_555 1_555
O2 C4 1_555 1_555
O3 Ca1 1_555 1_555
Cl1G Ca1 1_555 1_555
O3G Ca1 1_555 1_555
O2B Ca1 1_555 1_555
C2G N1 1_555 1_555
Ca1B O2 1_555 1_555

#END
