
#######################################################################
#
#                 Cambridge Crystallographic Data Centre
#                                CCDC 
#
#######################################################################
#
# If this CIF has been generated from an entry in the Cambridge 
# Structural Database, then it will include bibliographic, chemical, 
# crystal, experimental, refinement or atomic coordinate data resulting 
# from the CCDC's data processing and validation procedures.
#
#######################################################################

data_DIYKOM
_symmetry_cell_setting           monoclinic
_symmetry_space_group_name_H-M   'P 21/n'
_symmetry_Int_Tables_number      14
_space_group_name_Hall           '-P 2yn'
loop_
_symmetry_equiv_pos_site_id
_symmetry_equiv_pos_as_xyz
1 x,y,z
2 1/2-x,1/2+y,1/2-z
3 -x,-y,-z
4 1/2+x,1/2-y,1/2+z
_cell_length_a                   15.5462(10)
_cell_length_b                   33.135(2)
_cell_length_c                   16.4944(10)
_cell_angle_alpha                90
_cell_angle_beta                 95.3220(10)
_cell_angle_gamma                90
_cell_volume                     8460.02
loop_
_atom_site_label
_atom_site_type_symbol
_atom_site_fract_x
_atom_site_fract_y
_atom_site_fract_z
C1 C -0.0644(4) 0.45651(18) -0.4545(4)
H1 H -0.0720 0.4854 -0.4498
H2 H -0.0928 0.4480 -0.5065
C2 C 0.0312(4) 0.44698(18) -0.4518(4)
C3 C 0.0609(4) 0.41676(17) -0.4993(3)
H3 H 0.0224 0.4031 -0.5361
C4 C 0.1487(4) 0.40637(19) -0.4929(3)
C5 C 0.2059(4) 0.42683(19) -0.4391(4)
H4 H 0.2642 0.4201 -0.4356
C6 C 0.1785(4) 0.45701(18) -0.3902(3)
C7 C 0.0897(4) 0.46657(17) -0.3951(3)
C8 C 0.2417(4) 0.47827(19) -0.3286(4)
H5 H 0.2251 0.5063 -0.3242
H6 H 0.2991 0.4774 -0.3470
C9 C 0.2432(4) 0.45827(18) -0.2457(3)
C10 C 0.2944(4) 0.42485(18) -0.2302(4)
H7 H 0.3281 0.4154 -0.2699
C11 C 0.2961(4) 0.40491(19) -0.1550(4)
C12 C 0.2464(4) 0.41934(18) -0.0968(4)
H8 H 0.2485 0.4064 -0.0466
C13 C 0.1929(4) 0.45294(18) -0.1107(4)
C14 C 0.1899(4) 0.47190(17) -0.1870(4)
C15 C 0.1386(4) 0.46799(19) -0.0451(4)
H9 H 0.1696 0.4630 0.0077
H10 H 0.1311 0.4969 -0.0511
C16 C 0.0498(4) 0.44817(17) -0.0475(3)
C17 C 0.0353(4) 0.41527(17) 0.0011(3)
H11 H 0.0807 0.4052 0.0360
C18 C -0.0441(4) 0.39705(19) -0.0008(3)
C19 C -0.1117(4) 0.41068(18) -0.0542(3)
H12 H -0.1653 0.3982 -0.0555
C20 C -0.1002(4) 0.44268(17) -0.1055(3)
C21 C -0.0197(4) 0.46204(18) -0.1015(3)
C22 C -0.1717(4) 0.45600(19) -0.1697(3)
H13 H -0.1704 0.4851 -0.1756
H14 H -0.2276 0.4485 -0.1525
C23 C -0.1594(4) 0.43619(18) -0.2507(3)
C24 C -0.1778(4) 0.39543(19) -0.2604(4)
H15 H -0.2019 0.3817 -0.2189
C25 C -0.1615(4) 0.37456(18) -0.3299(3)
C26 C -0.1240(4) 0.39459(19) -0.3918(3)
H16 H -0.1107 0.3804 -0.4377
C27 C -0.1064(3) 0.43530(17) -0.3857(3)
C28 C -0.1250(4) 0.45614(18) -0.3157(4)
C29 C 0.2323(4) 0.16503(18) -0.2461(4)
H17 H 0.2528 0.1560 -0.2968
H18 H 0.1858 0.1473 -0.2336
C30 C 0.2713(4) 0.17679(18) -0.1036(3)
H19 H 0.3182 0.1755 -0.0605
H20 H 0.2256 0.1591 -0.0888
C31 C 0.1692(4) 0.22003(19) -0.1777(3)
H21 H 0.1216 0.2030 -0.1646
H22 H 0.1479 0.2475 -0.1832
C32 C 0.3735(4) 0.18963(18) -0.2016(3)
H23 H 0.3940 0.1811 -0.2526
H24 H 0.4213 0.1877 -0.1596
C33 C 0.3104(4) 0.24417(19) -0.1312(3)
H25 H 0.2906 0.2719 -0.1359
H26 H 0.3567 0.2429 -0.0875
C34 C 0.2718(4) 0.23303(18) -0.2745(3)
H27 H 0.2926 0.2245 -0.3254
H28 H 0.2514 0.2606 -0.2813
C35 C 0.6170(4) 0.32947(19) -0.1501(4)
H29 H 0.6335 0.3291 -0.2054
H30 H 0.5767 0.3516 -0.1457
C36 C 0.6685(5) 0.3365(2) -0.0098(4)
H31 H 0.6290 0.3587 -0.0039
H32 H 0.7193 0.3409 0.0280
C37 C 0.5499(4) 0.2918(2) -0.0479(3)
H33 H 0.5089 0.3135 -0.0423
H34 H 0.5220 0.2666 -0.0359
C38 C 0.7536(4) 0.3032(2) -0.1004(4)
H35 H 0.8044 0.3075 -0.0627
H36 H 0.7718 0.3030 -0.1551
C39 C 0.6886(4) 0.26481(19) 0.0010(3)
H37 H 0.6625 0.2393 0.0138
H38 H 0.7394 0.2687 0.0389
C40 C 0.6364(4) 0.25787(18) -0.1393(3)
H39 H 0.6094 0.2324 -0.1273
H40 H 0.6524 0.2566 -0.1947
C41 C 0.3095(4) 0.35035(18) 0.2418(3)
H41 H 0.2501 0.3558 0.2516
H42 H 0.3465 0.3670 0.2788
C42 C 0.4132(4) 0.35343(18) 0.1432(4)
H43 H 0.4507 0.3702 0.1794
H44 H 0.4222 0.3607 0.0877
C43 C 0.4207(4) 0.29956(19) 0.2424(3)
H45 H 0.4590 0.3151 0.2802
H46 H 0.4339 0.2712 0.2514
C44 C 0.2662(4) 0.33543(18) 0.1013(3)
H47 H 0.2063 0.3403 0.1102
H48 H 0.2740 0.3428 0.0455
C45 C 0.3772(4) 0.28611(18) 0.1012(3)
H49 H 0.3864 0.2928 0.0454
H50 H 0.3908 0.2578 0.1095
C46 C 0.2725(4) 0.28330(18) 0.1997(4)
H51 H 0.2126 0.2885 0.2086
H52 H 0.2836 0.2548 0.2097
C47 C 0.5031(4) 0.27598(19) -0.5219(3)
H53 H 0.4921 0.2472 -0.5215
H54 H 0.5178 0.2833 -0.5759
C48 C 0.5528(4) 0.2733(2) -0.3789(3)
H55 H 0.6004 0.2792 -0.3383
H56 H 0.5420 0.2445 -0.3780
C49 C 0.4042(4) 0.28538(19) -0.4215(3)
H57 H 0.3932 0.2566 -0.4210
H58 H 0.3521 0.2991 -0.4084
C50 C 0.5908(4) 0.3288(2) -0.4632(4)
H59 H 0.6398 0.3357 -0.4249
H60 H 0.6047 0.3367 -0.5171
C51 C 0.4917(4) 0.3387(2) -0.3618(4)
H61 H 0.5386 0.3457 -0.3213
H62 H 0.4406 0.3532 -0.3486
C52 C 0.4429(4) 0.34210(19) -0.5034(4)
H63 H 0.3917 0.3568 -0.4912
H64 H 0.4576 0.3506 -0.5567
C53 C 0.5360(5) 0.0821(2) -0.2385(4)
C54 C 0.6144(5) 0.0791(2) -0.2737(5)
H65 H 0.6123 0.0564 -0.3100
H66 H 0.6239 0.1033 -0.3036
H67 H 0.6608 0.0755 -0.2317
C55 C 0.2129(6) 0.0684(3) -0.0293(5)
C56 C 0.1675(9) 0.0602(5) 0.0320(8)
H68 H 0.2012 0.0663 0.0823
H69 H 0.1159 0.0763 0.0277
H70 H 0.1523 0.0321 0.0308
C57 C 0.1051(6) 0.3291(3) -0.1175(5)
C58 C 0.0582(7) 0.3576(3) -0.1758(5)
H71 H 0.0940 0.3642 -0.2183
H72 H 0.0446 0.3818 -0.1476
H73 H 0.0058 0.3453 -0.1991
N1 N 0.3028(3) 0.16241(14) -0.1810(3)
N2 N 0.2387(3) 0.21819(14) -0.1106(3)
N3 N 0.1990(3) 0.20677(15) -0.2560(3)
N4 N 0.3443(3) 0.23170(15) -0.2088(3)
N5 N 0.5737(3) 0.29083(14) -0.1331(3)
N6 N 0.7148(3) 0.26324(15) -0.0832(3)
N7 N 0.6941(4) 0.33623(16) -0.0932(3)
N8 N 0.6262(3) 0.29792(15) 0.0114(3)
N9 N 0.4365(3) 0.31060(15) 0.1571(3)
N10 N 0.3291(3) 0.30736(15) 0.2585(3)
N11 N 0.2857(3) 0.29268(14) 0.1133(3)
N12 N 0.3227(3) 0.36117(15) 0.1574(3)
N13 N 0.5772(3) 0.28535(16) -0.4616(3)
N14 N 0.5142(3) 0.35154(15) -0.4423(3)
N15 N 0.4753(3) 0.29506(14) -0.3586(3)
N16 N 0.4242(3) 0.29760(15) -0.5047(3)
N17 N 0.4728(5) 0.08434(18) -0.2072(4)
N18 N 0.2527(4) 0.07457(18) -0.0801(4)
N19 N 0.1421(4) 0.3068(2) -0.0732(4)
O1 O 0.0585(3) 0.49579(12) -0.3465(3)
O2 O 0.1372(3) 0.50352(12) -0.2048(2)
O3 O -0.0110(3) 0.49471(12) -0.1505(3)
O4 O -0.1118(3) 0.49698(12) -0.3108(2)
O5 O 0.1101(4) 0.34896(17) -0.5967(4)
O6 O 0.2501(4) 0.3809(2) -0.5985(3)
O7 O 0.2240(3) 0.33650(15) -0.4898(3)
O8 O 0.3537(5) 0.33888(18) -0.2113(3)
O9 O 0.4509(4) 0.3810(2) -0.1355(7)
O10 O 0.3489(4) 0.34295(17) -0.0683(3)
O11 O -0.0690(3) 0.31909(13) 0.0111(3)
O12 O 0.0190(4) 0.35281(16) 0.1180(3)
O13 O -0.1363(4) 0.36212(16) 0.1033(3)
O14 O -0.1078(3) 0.30367(14) -0.2855(3)
O15 O -0.2616(3) 0.31548(13) -0.3021(3)
O16 O -0.1814(3) 0.31110(14) -0.4201(3)
O17 O 0.2829(3) 0.07612(15) -0.3175(3)
O18 O 0.0532(5) 0.2807(2) -0.3419(6)
S1 S 0.18450(12) 0.36520(6) -0.54907(11)
S2 S 0.36691(11) 0.36383(5) -0.13953(12)
S3 S -0.05881(11) 0.35454(5) 0.06287(9)
S4 S -0.18044(10) 0.32243(5) -0.33551(9)
Ag1 Ag 0.45398(3) 0.277843(16) -0.22450(3)
Ag2 Ag 0.20252(3) 0.252051(17) 0.01786(3)
Ag3 Ag 0.81104(3) 0.211680(18) -0.10703(3)
Ag4 Ag 0.08101(3) 0.204360(19) -0.35822(3)
Ag5 Ag 0.34149(4) 0.092540(18) -0.17140(4)
H77 H 0.284(6) 0.079(2) -0.3689(15)
H78 H 0.299(5) 0.0516(10) -0.313(4)
H79 H 0.005(3) 0.278(2) -0.320(5)
H80 H 0.092(4) 0.299(2) -0.327(5)
N8C N 0.1262(3) 0.20208(15) -0.4886(3)
N9C N -0.0635(3) 0.18940(15) -0.3429(3)
N10C N 0.8291(3) 0.19264(15) -0.2415(3)
N13C N 0.0772(3) 0.21465(16) 0.0384(3)
N16C N 0.9242(3) 0.20240(15) -0.0047(3)
Ag2C Ag 0.70252(3) 0.247949(17) -0.48214(3)
Ag3C Ag 0.31104(3) 0.288320(18) 0.39297(3)
Ag3C_2 Ag 0.31104(3) 0.288320(18) -0.60703(3)
Ag4C Ag 0.58101(3) 0.295640(19) 0.14178(3)
C59 C 0.0512(5) 0.0899(3) -0.1807(5)
C60 C 0.0469(8) 0.0486(3) -0.2044(8)
H74 H 0.0464 0.0319 -0.1569
H75 H 0.0962 0.0420 -0.2328
H76 H -0.0049 0.0441 -0.2396
N20 N 0.0525(4) 0.1216(2) -0.1609(4)
O19 O 0.0756(4) 0.30974(17) 0.2497(3)
O20 O 0.9391(15) 0.2821(8) -0.1448(10)
loop_
_geom_bond_atom_site_label_1
_geom_bond_atom_site_label_2
_geom_bond_site_symmetry_1
_geom_bond_site_symmetry_2
C1 H1 1_555 1_555
H2 C1 1_555 1_555
C2 C1 1_555 1_555
C3 C2 1_555 1_555
H3 C3 1_555 1_555
C4 C3 1_555 1_555
C5 C4 1_555 1_555
H4 C5 1_555 1_555
C6 C5 1_555 1_555
C7 C2 1_555 1_555
C8 C6 1_555 1_555
H5 C8 1_555 1_555
H6 C8 1_555 1_555
C9 C8 1_555 1_555
C10 C9 1_555 1_555
H7 C10 1_555 1_555
C11 C10 1_555 1_555
C12 C11 1_555 1_555
H8 C12 1_555 1_555
C13 C12 1_555 1_555
C14 C9 1_555 1_555
C15 C13 1_555 1_555
H9 C15 1_555 1_555
H10 C15 1_555 1_555
C16 C15 1_555 1_555
C17 C16 1_555 1_555
H11 C17 1_555 1_555
C18 C17 1_555 1_555
C19 C18 1_555 1_555
H12 C19 1_555 1_555
C20 C19 1_555 1_555
C21 C16 1_555 1_555
C22 C20 1_555 1_555
H13 C22 1_555 1_555
H14 C22 1_555 1_555
C23 C22 1_555 1_555
C24 C23 1_555 1_555
H15 C24 1_555 1_555
C25 C24 1_555 1_555
C26 C25 1_555 1_555
H16 C26 1_555 1_555
C27 C1 1_555 1_555
C28 C23 1_555 1_555
C29 H17 1_555 1_555
H18 C29 1_555 1_555
C30 H19 1_555 1_555
H20 C30 1_555 1_555
C31 H21 1_555 1_555
H22 C31 1_555 1_555
C32 H23 1_555 1_555
H24 C32 1_555 1_555
C33 H25 1_555 1_555
H26 C33 1_555 1_555
C34 H27 1_555 1_555
H28 C34 1_555 1_555
C35 H29 1_555 1_555
H30 C35 1_555 1_555
C36 H31 1_555 1_555
H32 C36 1_555 1_555
C37 H33 1_555 1_555
H34 C37 1_555 1_555
C38 H35 1_555 1_555
H36 C38 1_555 1_555
C39 H37 1_555 1_555
H38 C39 1_555 1_555
C40 H39 1_555 1_555
H40 C40 1_555 1_555
C41 H41 1_555 1_555
H42 C41 1_555 1_555
C42 H43 1_555 1_555
H44 C42 1_555 1_555
C43 H45 1_555 1_555
H46 C43 1_555 1_555
C44 H47 1_555 1_555
H48 C44 1_555 1_555
C45 H49 1_555 1_555
H50 C45 1_555 1_555
C46 H51 1_555 1_555
H52 C46 1_555 1_555
C47 H53 1_555 1_555
H54 C47 1_555 1_555
C48 H55 1_555 1_555
H56 C48 1_555 1_555
C49 H57 1_555 1_555
H58 C49 1_555 1_555
C50 H59 1_555 1_555
H60 C50 1_555 1_555
C51 H61 1_555 1_555
H62 C51 1_555 1_555
C52 H63 1_555 1_555
H64 C52 1_555 1_555
C53 C54 1_555 1_555
C54 H65 1_555 1_555
H66 C54 1_555 1_555
H67 C54 1_555 1_555
C55 C56 1_555 1_555
C56 H68 1_555 1_555
H69 C56 1_555 1_555
H70 C56 1_555 1_555
C57 C58 1_555 1_555
C58 H71 1_555 1_555
H72 C58 1_555 1_555
H73 C58 1_555 1_555
C59 C60 1_555 1_555
C60 H74 1_555 1_555
H75 C60 1_555 1_555
H76 C60 1_555 1_555
N1 C29 1_555 1_555
N2 C30 1_555 1_555
N3 C29 1_555 1_555
N4 C32 1_555 1_555
N5 C35 1_555 1_555
N6 C38 1_555 1_555
N7 C35 1_555 1_555
N8 C36 1_555 1_555
N9 C42 1_555 1_555
N10 C41 1_555 1_555
N11 C44 1_555 1_555
N12 C41 1_555 1_555
N13 C47 1_555 1_555
N14 C50 1_555 1_555
N15 C48 1_555 1_555
N16 C47 1_555 1_555
N17 C53 1_555 1_555
N18 C55 1_555 1_555
N19 C57 1_555 1_555
N20 C59 1_555 1_555
O1 C7 1_555 1_555
O2 C14 1_555 1_555
O3 C21 1_555 1_555
O4 C28 1_555 1_555
O5 S1 1_555 1_555
O6 S1 1_555 1_555
O7 S1 1_555 1_555
O8 S2 1_555 1_555
O9 S2 1_555 1_555
O10 S2 1_555 1_555
O11 S3 1_555 1_555
O12 S3 1_555 1_555
O13 S3 1_555 1_555
O14 S4 1_555 1_555
O15 S4 1_555 1_555
O16 S4 1_555 1_555
O17 Ag5 1_555 1_555
O18 Ag4 1_555 1_555
S1 C4 1_555 1_555
S2 C11 1_555 1_555
S3 C18 1_555 1_555
S4 C25 1_555 1_555
Ag1 N4 1_555 1_555
Ag2 N2 1_555 1_555
Ag3 N6 1_555 1_555
Ag4 N3 1_555 1_555
Ag5 N1 1_555 1_555
H77 O17 1_555 1_555
H78 O17 1_555 1_555
H79 O18 1_555 1_555
H80 O18 1_555 1_555
N8C Ag4 1_555 1_555
N9C Ag4 1_555 1_555
N10C Ag3 1_555 1_555
N13C Ag2 1_555 1_555
N16C Ag3 1_555 1_555
Ag2C N13 1_555 1_555
Ag3C N10 1_555 1_555
Ag3C_2 N16 1_555 1_555
Ag4C N8 1_555 1_555
C6 C7 1_555 1_555
C13 C14 1_555 1_555
C20 C21 1_555 1_555
C26 C27 1_555 1_555
C27 C28 1_555 1_555
C30 N1 1_555 1_555
C31 N2 1_555 1_555
C31 N3 1_555 1_555
C32 N1 1_555 1_555
C33 N2 1_555 1_555
C33 N4 1_555 1_555
C34 N3 1_555 1_555
C34 N4 1_555 1_555
C36 N7 1_555 1_555
C37 N5 1_555 1_555
C37 N8 1_555 1_555
C38 N7 1_555 1_555
C39 N6 1_555 1_555
C39 N8 1_555 1_555
C40 N5 1_555 1_555
C40 N6 1_555 1_555
C42 N12 1_555 1_555
C43 N9 1_555 1_555
C43 N10 1_555 1_555
C44 N12 1_555 1_555
C45 N9 1_555 1_555
C45 N11 1_555 1_555
C46 N10 1_555 1_555
C46 N11 1_555 1_555
C48 N13 1_555 1_555
C49 N15 1_555 1_555
C49 N16 1_555 1_555
C50 N13 1_555 1_555
C51 N14 1_555 1_555
C51 N15 1_555 1_555
C52 N14 1_555 1_555
C52 N16 1_555 1_555
N5 Ag1 1_555 1_555
N9 Ag4C 1_555 1_555
N11 Ag2 1_555 1_555
N15 Ag1 1_555 1_555
N17 Ag5 1_555 1_555
N18 Ag5 1_555 1_555
N19 Ag2 1_555 1_555
O8 Ag1 1_555 1_555

#END
