
#######################################################################
#
#                 Cambridge Crystallographic Data Centre
#                                CCDC 
#
#######################################################################
#
# If this CIF has been generated from an entry in the Cambridge 
# Structural Database, then it will include bibliographic, chemical, 
# crystal, experimental, refinement or atomic coordinate data resulting 
# from the CCDC's data processing and validation procedures.
#
#######################################################################

data_DIYRIO
_symmetry_cell_setting           tetragonal
_symmetry_space_group_name_H-M   'P 43 21 2'
_symmetry_Int_Tables_number      96
_space_group_name_Hall           'P 4nw 2abw'
loop_
_symmetry_equiv_pos_site_id
_symmetry_equiv_pos_as_xyz
1 x,y,z
2 1/2-y,1/2+x,3/4+z
3 -x,-y,1/2+z
4 1/2+y,1/2-x,1/4+z
5 1/2+x,1/2-y,1/4-z
6 y,x,-z
7 1/2-x,1/2+y,3/4-z
8 -y,-x,1/2-z
_cell_length_a                   9.9837(14)
_cell_length_b                   9.9837(14)
_cell_length_c                   21.870(4)
_cell_angle_alpha                90
_cell_angle_beta                 90
_cell_angle_gamma                90
_cell_volume                     2179.88
loop_
_atom_site_label
_atom_site_type_symbol
_atom_site_fract_x
_atom_site_fract_y
_atom_site_fract_z
C1 C 0.8253(6) 0.6035(9) 0.9018(3)
C2 C 0.9790(6) 0.5108(7) 0.9563(3)
C3 C 0.8609(7) 0.5042(7) 0.9886(3)
C4 C 1.1232(7) 0.4818(6) 0.9709(3)
C5 C 0.8197(6) 0.4443(6) 1.0475(3)
C6 C 0.7520(8) 0.6687(12) 0.8495(4)
H1 H 0.8154 0.7202 0.8255
H2 H 0.6863 0.7306 0.8659
C7 C 0.6816(13) 0.5694(17) 0.8079(5)
H3 H 0.7463 0.5094 0.7905
H4 H 0.6365 0.6169 0.7758
H5 H 0.6173 0.5191 0.8312
Co1 Co 1.09806(9) 0.36896(8) 1.10177(3)
Co2 Co 0.58959(9) 0.58959(9) 1.0000
N1 N 0.9546(6) 0.5762(7) 0.9021(3)
N2 N 0.7615(6) 0.5648(6) 0.9543(3)
O1 O 0.8946(5) 0.3681(5) 1.0768(2)
O2 O 0.7007(5) 0.4723(5) 1.0649(2)
O3 O 1.2054(4) 0.5274(5) 0.93422(19)
O4 O 1.1568(5) 0.4177(7) 1.0170(2)
O5 O 1.1270(6) 0.1634(5) 1.0772(2)
H6 H 1.1588 0.1163 1.1061
H7 H 1.1335 0.1307 1.0414
O6 O 1.3029(6) 0.3702(5) 1.1284(3)
H8 H 1.3055 0.2918 1.1436
H9 H 1.3403 0.3999 1.0964
O7 O 0.4491(5) 0.4491(5) 1.0000
H10 H 0.3677 0.4773 0.9874
H10E H 0.4773 0.3677 1.0126
C1E C 0.6035(9) 0.8253(6) 1.0982(3)
C2E C 0.5108(7) 0.9790(6) 1.0437(3)
C3E C 0.5042(7) 0.8609(7) 1.0114(3)
C4E C 0.4818(6) 1.1232(7) 1.0291(3)
C5E C 0.4443(6) 0.8197(6) 0.9525(3)
C6E C 0.6687(12) 0.7520(8) 1.1505(4)
H1E H 0.7202 0.8154 1.1745
H2E H 0.7306 0.6863 1.1341
C7E C 0.5694(17) 0.6816(13) 1.1921(5)
H3E H 0.5094 0.7463 1.2095
H4E H 0.6169 0.6365 1.2242
H5E H 0.5191 0.6173 1.1688
Co1E Co 0.36896(8) 1.09806(9) 0.89823(3)
N1E N 0.5762(7) 0.9546(6) 1.0979(3)
N2E N 0.5648(6) 0.7615(6) 1.0457(3)
O1E O 0.3681(5) 0.8946(5) 0.9232(2)
O2E O 0.4723(5) 0.7007(5) 0.9351(2)
O3E O 0.5274(5) 1.2054(4) 1.06578(19)
O4E O 0.4177(7) 1.1568(5) 0.9830(2)
O5E O 0.1634(5) 1.1270(6) 0.9228(2)
H6E H 0.1163 1.1588 0.8939
H7E H 0.1307 1.1335 0.9586
O6E O 0.3702(5) 1.3029(6) 0.8716(3)
H8E H 0.2918 1.3055 0.8564
H9E H 0.3999 1.3403 0.9036
Co1A Co 1.13104(8) 0.59806(9) 0.85177(3)
Co1D Co 0.59806(9) 1.13104(8) 1.14823(3)
N1C N 1.0762(7) 0.5454(6) 1.1521(3)
N1F N 0.5454(6) 1.0762(7) 0.8479(3)
O3C O 1.0274(5) 0.2946(4) 1.18422(19)
O3F O 0.2946(4) 1.0274(5) 0.81578(19)
loop_
_geom_bond_atom_site_label_1
_geom_bond_atom_site_label_2
_geom_bond_site_symmetry_1
_geom_bond_site_symmetry_2
C1 C6 1_555 1_555
C2 C3 1_555 1_555
C3 C5 1_555 1_555
C4 C2 1_555 1_555
C5 O1 1_555 1_555
C6 H1 1_555 1_555
H2 C6 1_555 1_555
C7 C6 1_555 1_555
H3 C7 1_555 1_555
H4 C7 1_555 1_555
H5 C7 1_555 1_555
Co1 O1 1_555 1_555
Co2 N2 1_555 1_555
N1 C1 1_555 1_555
N2 C1 1_555 1_555
O2 C5 1_555 1_555
O3 C4 1_555 1_555
O4 C4 1_555 1_555
O5 Co1 1_555 1_555
H6 O5 1_555 1_555
H7 O5 1_555 1_555
O6 Co1 1_555 1_555
H8 O6 1_555 1_555
H9 O6 1_555 1_555
O7 Co2 1_555 1_555
H10 O7 1_555 1_555
H10E O7 1_555 1_555
C1E C6E 1_555 1_555
C2E C3E 1_555 1_555
C3E C5E 1_555 1_555
C4E C2E 1_555 1_555
C5E O1E 1_555 1_555
C6E H1E 1_555 1_555
H2E C6E 1_555 1_555
C7E C6E 1_555 1_555
H3E C7E 1_555 1_555
H4E C7E 1_555 1_555
H5E C7E 1_555 1_555
Co1E O1E 1_555 1_555
N1E C1E 1_555 1_555
N2E Co2 1_555 1_555
O2E Co2 1_555 1_555
O3E C4E 1_555 1_555
O4E C4E 1_555 1_555
O5E Co1E 1_555 1_555
H6E O5E 1_555 1_555
H7E O5E 1_555 1_555
O6E Co1E 1_555 1_555
H8E O6E 1_555 1_555
H9E O6E 1_555 1_555
Co1A N1 1_555 1_555
Co1D N1E 1_555 1_555
N1C Co1 1_555 1_555
N1F Co1E 1_555 1_555
O3C Co1 1_555 1_555
O3F Co1E 1_555 1_555
C2 N1 1_555 1_555
C3 N2 1_555 1_555
Co1 O4 1_555 1_555
Co2 O2 1_555 1_555
O3 Co1A 1_555 1_555
C1E N2E 1_555 1_555
C2E N1E 1_555 1_555
C3E N2E 1_555 1_555
C5E O2E 1_555 1_555
Co1E O4E 1_555 1_555
O3E Co1D 1_555 1_555

#END
