
#######################################################################
#
#                 Cambridge Crystallographic Data Centre
#                                CCDC 
#
#######################################################################
#
# If this CIF has been generated from an entry in the Cambridge 
# Structural Database, then it will include bibliographic, chemical, 
# crystal, experimental, refinement or atomic coordinate data resulting 
# from the CCDC's data processing and validation procedures.
#
#######################################################################

data_DIZBUL
_symmetry_cell_setting           monoclinic
_symmetry_space_group_name_H-M   'C 2/c'
_symmetry_Int_Tables_number      15
_space_group_name_Hall           '-C 2yn'
loop_
_symmetry_equiv_pos_site_id
_symmetry_equiv_pos_as_xyz
1 x,y,z
2 -x,y,1/2-z
3 1/2+x,1/2+y,z
4 1/2-x,1/2+y,1/2-z
5 -x,-y,-z
6 x,-y,1/2+z
7 1/2-x,1/2-y,-z
8 1/2+x,1/2-y,1/2+z
_cell_length_a                   19.0329(18)
_cell_length_b                   10.3950(9)
_cell_length_c                   22.382(2)
_cell_angle_alpha                90
_cell_angle_beta                 99.0210(10)
_cell_angle_gamma                90
_cell_volume                     4373.44
loop_
_atom_site_label
_atom_site_type_symbol
_atom_site_fract_x
_atom_site_fract_y
_atom_site_fract_z
Co1 Co 0.41236(4) 0.13378(7) 0.18888(3)
N1 N 0.4563(2) 0.3306(4) 0.16234(19)
N2 N 0.3614(2) 0.2980(4) 0.23848(18)
O1 O 0.3316(2) 0.1297(4) 0.11081(18)
O2 O 0.3781(3) -0.0559(5) 0.1267(2)
O3 O 0.1998(2) 0.0952(4) 0.03868(16)
O4 O 0.1125(2) 0.5151(4) 0.24131(17)
O5 O 0.0166(2) 0.5820(4) 0.1816(2)
C1 C 0.3387(3) 0.0203(5) 0.0938(2)
C2 C 0.3021(3) -0.0304(5) 0.0343(2)
C3 C 0.2350(3) 0.0112(5) 0.0068(2)
C4 C 0.2052(3) -0.0365(6) -0.0494(2)
H1 H 0.1608 -0.0077 -0.0677
C5 C 0.2411(4) -0.1258(6) -0.0777(3)
H2 H 0.2208 -0.1577 -0.1153
C6 C 0.3066(4) -0.1685(6) -0.0513(3)
H3 H 0.3311 -0.2287 -0.0709
C7 C 0.3358(3) -0.1216(5) 0.0045(2)
H4 H 0.3798 -0.1526 0.0227
C8 C 0.0717(3) 0.5169(5) 0.1915(3)
C9 C 0.0925(3) 0.4375(5) 0.1414(2)
C10 C 0.1602(3) 0.3838(5) 0.1479(2)
H5 H 0.1931 0.4032 0.1820
C11 C 0.1793(3) 0.3021(5) 0.1046(2)
H6 H 0.2246 0.2661 0.1097
C12 C 0.1308(3) 0.2739(5) 0.0537(2)
C13 C 0.0647(3) 0.3328(5) 0.0456(2)
H7 H 0.0328 0.3172 0.0104
C14 C 0.0457(3) 0.4142(5) 0.0889(2)
H8 H 0.0013 0.4535 0.0827
C15 C 0.1496(3) 0.1796(5) 0.0072(2)
H9 H 0.1077 0.1328 -0.0113
H10 H 0.1696 0.2243 -0.0242
C16 C 0.5035(3) 0.3448(6) 0.1263(3)
H11 H 0.5222 0.2718 0.1105
C17 C 0.5271(4) 0.4669(8) 0.1104(3)
H12 H 0.5602 0.4741 0.0841
C18 C 0.5014(4) 0.5719(7) 0.1336(3)
H13 H 0.5171 0.6527 0.1236
C19 C 0.4513(3) 0.5619(5) 0.1725(3)
C20 C 0.4303(3) 0.4372(5) 0.1858(2)
C21 C 0.3793(3) 0.4196(5) 0.2263(2)
C22 C 0.3515(3) 0.5279(5) 0.2523(3)
C23 C 0.3034(3) 0.5065(7) 0.2919(3)
H14 H 0.2832 0.5754 0.3096
C24 C 0.2862(3) 0.3841(7) 0.3044(3)
H15 H 0.2545 0.3682 0.3312
C25 C 0.3160(3) 0.2824(6) 0.2771(3)
H16 H 0.3035 0.1991 0.2863
C26 C 0.4211(4) 0.6689(6) 0.1987(3)
H17 H 0.4340 0.7518 0.1892
C27 C 0.3749(4) 0.6526(6) 0.2365(3)
H18 H 0.3570 0.7248 0.2534
Co1B Co -0.08764(4) 0.63378(7) 0.18888(3)
Co1C Co 0.08764(4) 0.63378(7) 0.31112(3)
O4C O 0.3875(2) 0.0151(4) 0.25869(17)
O5B O 0.5166(2) 0.0820(4) 0.1816(2)
loop_
_geom_bond_atom_site_label_1
_geom_bond_atom_site_label_2
_geom_bond_site_symmetry_1
_geom_bond_site_symmetry_2
Co1 N1 1_555 1_555
N1 C16 1_555 1_555
N2 Co1 1_555 1_555
O1 Co1 1_555 1_555
O2 Co1 1_555 1_555
O3 C3 1_555 1_555
O4 C8 1_555 1_555
O5 C8 1_555 1_555
C1 O1 1_555 1_555
C2 C1 1_555 1_555
C3 C2 1_555 1_555
C4 C3 1_555 1_555
H1 C4 1_555 1_555
C5 C4 1_555 1_555
H2 C5 1_555 1_555
C6 C5 1_555 1_555
H3 C6 1_555 1_555
C7 C2 1_555 1_555
H4 C7 1_555 1_555
C8 C9 1_555 1_555
C9 C10 1_555 1_555
C10 H5 1_555 1_555
C11 C10 1_555 1_555
H6 C11 1_555 1_555
C12 C11 1_555 1_555
C13 C12 1_555 1_555
H7 C13 1_555 1_555
C14 C9 1_555 1_555
H8 C14 1_555 1_555
C15 O3 1_555 1_555
H9 C15 1_555 1_555
H10 C15 1_555 1_555
C16 H11 1_555 1_555
C17 C16 1_555 1_555
H12 C17 1_555 1_555
C18 C17 1_555 1_555
H13 C18 1_555 1_555
C19 C18 1_555 1_555
C20 N1 1_555 1_555
C21 N2 1_555 1_555
C22 C21 1_555 1_555
C23 C22 1_555 1_555
H14 C23 1_555 1_555
C24 C23 1_555 1_555
H15 C24 1_555 1_555
C25 N2 1_555 1_555
H16 C25 1_555 1_555
C26 C19 1_555 1_555
H17 C26 1_555 1_555
C27 C22 1_555 1_555
H18 C27 1_555 1_555
Co1B O5 1_555 1_555
Co1C O4 1_555 1_555
O4C Co1 1_555 1_555
O5B Co1 1_555 1_555
O2 C1 1_555 1_555
C6 C7 1_555 1_555
C12 C15 1_555 1_555
C13 C14 1_555 1_555
C19 C20 1_555 1_555
C20 C21 1_555 1_555
C24 C25 1_555 1_555
C26 C27 1_555 1_555

#END
