
#######################################################################
#
#                 Cambridge Crystallographic Data Centre
#                                CCDC 
#
#######################################################################
#
# If this CIF has been generated from an entry in the Cambridge 
# Structural Database, then it will include bibliographic, chemical, 
# crystal, experimental, refinement or atomic coordinate data resulting 
# from the CCDC's data processing and validation procedures.
#
#######################################################################

data_DIZCEW
_symmetry_cell_setting           monoclinic
_symmetry_space_group_name_H-M   'C 2/c'
_symmetry_Int_Tables_number      15
_space_group_name_Hall           '-C 2yn'
loop_
_symmetry_equiv_pos_site_id
_symmetry_equiv_pos_as_xyz
1 x,y,z
2 -x,y,1/2-z
3 1/2+x,1/2+y,z
4 1/2-x,1/2+y,1/2-z
5 -x,-y,-z
6 x,-y,1/2+z
7 1/2-x,1/2-y,-z
8 1/2+x,1/2-y,1/2+z
_cell_length_a                   35.130(3)
_cell_length_b                   7.3946(3)
_cell_length_c                   19.1657(13)
_cell_angle_alpha                90
_cell_angle_beta                 109.809(2)
_cell_angle_gamma                90
_cell_volume                     4684.11
loop_
_atom_site_label
_atom_site_type_symbol
_atom_site_fract_x
_atom_site_fract_y
_atom_site_fract_z
Mn1 Mn 0.59001(2) 0.26791(7) 0.64803(3)
N1 N 0.56196(11) 0.3311(4) 0.52463(19)
N2 N 0.52411(11) 0.1836(4) 0.60887(19)
O1 O 0.64251(8) 0.4231(3) 0.65270(16)
O2 O 0.62107(9) 0.7063(3) 0.65179(17)
O3 O 0.60377(10) -0.1191(3) 0.24814(16)
O4 O 0.62325(10) -0.3391(4) 0.33231(16)
O5 O 0.68972(9) 0.4528(4) 0.55997(18)
O6 O 0.57449(9) 0.5015(4) 0.71026(18)
H1 H 0.5889 0.5794 0.6981
H2 H 0.5884 0.4616 0.7529
O7 O 0.62205(11) 0.0519(4) 0.61051(17)
H3 H 0.6253 -0.0585 0.6236
H4 H 0.6445 0.1082 0.6244
C1 C 0.64745(13) 0.5915(6) 0.6509(2)
C2 C 0.68761(13) 0.6607(5) 0.6517(2)
C3 C 0.70910(13) 0.5851(5) 0.6105(2)
C4 C 0.74734(14) 0.6457(6) 0.6173(3)
H5 H 0.7612 0.5943 0.5887
C5 C 0.76501(15) 0.7835(6) 0.6668(3)
H6 H 0.7911 0.8220 0.6727
C6 C 0.74383(15) 0.8629(6) 0.7071(3)
H7 H 0.7553 0.9578 0.7392
C7 C 0.70565(14) 0.8019(5) 0.7001(2)
H8 H 0.6916 0.8556 0.7280
C8 C 0.62185(13) -0.1782(6) 0.3133(2)
C9 C 0.64410(12) -0.0402(5) 0.3712(2)
C10 C 0.66381(13) -0.0919(6) 0.4432(2)
H9 H 0.6629 -0.2120 0.4570
C11 C 0.68502(14) 0.0340(7) 0.4955(3)
H10 H 0.6981 -0.0022 0.5442
C12 C 0.68701(14) 0.2134(7) 0.4759(3)
C13 C 0.66663(15) 0.2639(6) 0.4046(3)
H11 H 0.6670 0.3845 0.3911
C14 C 0.64535(13) 0.1393(5) 0.3519(3)
H12 H 0.6319 0.1764 0.3035
C15 C 0.71295(16) 0.3487(7) 0.5300(3)
H13 H 0.7336 0.2858 0.5693
H14 H 0.7264 0.4263 0.5047
C16 C 0.58339(15) 0.3927(6) 0.4831(3)
H15 H 0.6110 0.4128 0.5060
C17 C 0.56632(17) 0.4275(6) 0.4082(3)
H16 H 0.5820 0.4691 0.3810
C18 C 0.52560(17) 0.3988(6) 0.3750(3)
H17 H 0.5129 0.4244 0.3250
C19 C 0.50386(15) 0.3321(5) 0.4166(3)
H18 H 0.4763 0.3105 0.3944
C20 C 0.52238(13) 0.2965(5) 0.4907(2)
C21 C 0.50093(13) 0.2193(5) 0.5384(2)
C22 C 0.46014(14) 0.1811(6) 0.5128(3)
H19 H 0.4448 0.2042 0.4635
C23 C 0.44202(15) 0.1090(6) 0.5599(3)
H20 H 0.4145 0.0833 0.5430
C24 C 0.46526(16) 0.0757(6) 0.6321(3)
H21 H 0.4539 0.0283 0.6656
C25 C 0.50611(16) 0.1149(6) 0.6537(3)
H22 H 0.5220 0.0918 0.7027
Mn1E Mn 0.59001(2) -0.26791(7) 0.14803(3)
O3E O 0.60377(10) 0.1191(3) 0.74814(16)
loop_
_geom_bond_atom_site_label_1
_geom_bond_atom_site_label_2
_geom_bond_site_symmetry_1
_geom_bond_site_symmetry_2
Mn1 N1 1_555 1_555
N1 C16 1_555 1_555
N2 Mn1 1_555 1_555
O1 Mn1 1_555 1_555
O2 C1 1_555 1_555
O3 C8 1_555 1_555
O4 C8 1_555 1_555
O5 C3 1_555 1_555
O6 Mn1 1_555 1_555
H1 O6 1_555 1_555
H2 O6 1_555 1_555
O7 Mn1 1_555 1_555
H3 O7 1_555 1_555
H4 O7 1_555 1_555
C1 O1 1_555 1_555
C2 C1 1_555 1_555
C3 C2 1_555 1_555
C4 C3 1_555 1_555
H5 C4 1_555 1_555
C5 C4 1_555 1_555
H6 C5 1_555 1_555
C6 C5 1_555 1_555
H7 C6 1_555 1_555
C7 C2 1_555 1_555
H8 C7 1_555 1_555
C8 C9 1_555 1_555
C9 C10 1_555 1_555
C10 H9 1_555 1_555
C11 C10 1_555 1_555
H10 C11 1_555 1_555
C12 C11 1_555 1_555
C13 C12 1_555 1_555
H11 C13 1_555 1_555
C14 C9 1_555 1_555
H12 C14 1_555 1_555
C15 O5 1_555 1_555
H13 C15 1_555 1_555
H14 C15 1_555 1_555
C16 H15 1_555 1_555
C17 C16 1_555 1_555
H16 C17 1_555 1_555
C18 C17 1_555 1_555
H17 C18 1_555 1_555
C19 C18 1_555 1_555
H18 C19 1_555 1_555
C20 N1 1_555 1_555
C21 N2 1_555 1_555
C22 C21 1_555 1_555
H19 C22 1_555 1_555
C23 C22 1_555 1_555
H20 C23 1_555 1_555
C24 C23 1_555 1_555
H21 C24 1_555 1_555
C25 N2 1_555 1_555
H22 C25 1_555 1_555
Mn1E O3 1_555 1_555
O3E Mn1 1_555 1_555
C6 C7 1_555 1_555
C12 C15 1_555 1_555
C13 C14 1_555 1_555
C19 C20 1_555 1_555
C20 C21 1_555 1_555
C24 C25 1_555 1_555

#END
