
#######################################################################
#
#                 Cambridge Crystallographic Data Centre
#                                CCDC 
#
#######################################################################
#
# If this CIF has been generated from an entry in the Cambridge 
# Structural Database, then it will include bibliographic, chemical, 
# crystal, experimental, refinement or atomic coordinate data resulting 
# from the CCDC's data processing and validation procedures.
#
#######################################################################

data_DIZGUQ
_symmetry_cell_setting           triclinic
_symmetry_space_group_name_H-M   'P -1'
_symmetry_Int_Tables_number      2
_space_group_name_Hall           '-P 1'
loop_
_symmetry_equiv_pos_site_id
_symmetry_equiv_pos_as_xyz
1 x,y,z
2 -x,-y,-z
_cell_length_a                   12.6750(5)
_cell_length_b                   14.3120(7)
_cell_length_c                   15.2200(7)
_cell_angle_alpha                106.736(4)
_cell_angle_beta                 99.655(4)
_cell_angle_gamma                115.188(4)
_cell_volume                     2254.41
loop_
_atom_site_label
_atom_site_type_symbol
_atom_site_fract_x
_atom_site_fract_y
_atom_site_fract_z
Ag1 Ag 0.50616(5) 0.23738(4) 0.09149(3)
Ag2 Ag 0.76742(4) 0.32655(4) 0.10760(3)
Ag3 Ag 0.92459(5) 0.38128(4) -0.05728(4)
Ag4 Ag 0.03587(5) 0.01358(5) -0.58795(4)
Ag5 Ag 0.87962(5) -0.07004(4) 0.19088(3)
C1 C 0.4741(5) 0.0011(4) 0.0858(4)
C2 C 0.3790(5) -0.0353(4) 0.0015(4)
C3 C 0.5946(5) 0.0342(4) 0.0836(4)
C4 C 0.4470(6) -0.0023(5) 0.1780(4)
H1 H 0.3716 -0.0724 0.1616
H2 H 0.5137 -0.0020 0.2202
C5 C 0.2489(5) -0.0761(5) 0.0028(5)
H3 H 0.1917 -0.1311 -0.0618
H4 H 0.2365 -0.1138 0.0470
C6 C 0.6957(6) 0.0651(5) 0.1731(4)
H5 H 0.6668 0.0060 0.1971
H6 H 0.7668 0.0688 0.1552
C7 C 0.3857(7) 0.0972(6) 0.3036(5)
H7 H 0.3484 0.0395 0.3239
C8 C 0.4028(8) 0.2036(6) 0.3421(5)
H8 H 0.3804 0.2334 0.3938
C9 C 0.4608(6) 0.2574(5) 0.2875(4)
C10 C 0.5028(6) 0.3724(5) 0.2947(4)
C11 C 0.5088(10) 0.4536(7) 0.3741(6)
C12 C 0.577(3) 0.570(2) 0.378(2)
C13 C 0.5867(10) 0.5848(7) 0.3023(8)
C14 C 0.5743(8) 0.4983(6) 0.2269(7)
H9 H 0.5964 0.5131 0.1751
C15 C 0.1586(7) 0.0296(6) 0.0928(5)
H10 H 0.1249 -0.0156 0.1252
C16 C 0.1541(7) 0.1246(6) 0.0977(5)
H11 H 0.1179 0.1577 0.1343
C17 C 0.2145(5) 0.1606(5) 0.0370(4)
C18 C 0.2368(5) 0.2579(5) 0.0141(4)
C19 C 0.2674(7) 0.3594(5) 0.0842(5)
H12 H 0.2716 0.3666 0.1476
C20 C 0.2916(8) 0.4498(6) 0.0604(6)
H13 H 0.3114 0.5186 0.1071
C21 C 0.2864(9) 0.4380(6) -0.0316(7)
H14 H 0.3046 0.4988 -0.0491
C22 C 0.2532(8) 0.3331(6) -0.0996(6)
H15 H 0.2493 0.3248 -0.1632
C23 C 0.7486(8) 0.1924(6) 0.3452(5)
H16 H 0.7292 0.1396 0.3727
C24 C 0.7976(8) 0.3058(7) 0.3927(5)
H17 H 0.8190 0.3463 0.4590
C25 C 0.8085(6) 0.3478(5) 0.3218(4)
C26 C 0.8560(6) 0.4660(5) 0.3316(5)
C27 C 0.9007(9) 0.5522(7) 0.4207(6)
H18 H 0.9015 0.5373 0.4764
C28 C 0.9441(10) 0.6603(7) 0.4279(7)
H19 H 0.9722 0.7196 0.4878
C29 C 0.9453(9) 0.6788(6) 0.3460(6)
H20 H 0.9752 0.7515 0.3484
C30 C 0.9020(7) 0.5896(6) 0.2598(5)
H21 H 0.9040 0.6034 0.2038
C31 C 1.0620(5) 0.4533(5) 0.1556(4)
C32 C 1.0554(6) 0.1860(5) 0.3111(4)
C33 C 1.1087(5) 0.4318(5) 0.2399(4)
C34 C 1.0615(5) 0.3235(5) 0.2375(4)
H22 H 0.9970 0.2629 0.1828
C35 C 1.1081(5) 0.3042(5) 0.3143(4)
C36 C 1.2048(7) 0.3935(6) 0.3937(5)
H23 H 1.2386 0.3812 0.4454
C37 C 1.2523(8) 0.5012(6) 0.3971(5)
H24 H 1.3178 0.5613 0.4514
C38 C 1.2035(7) 0.5208(5) 0.3207(5)
H25 H 1.2349 0.5940 0.3240
C39 C 0.2329(7) 0.0925(6) -0.3893(6)
C40 C 0.5868(5) 0.2563(4) -0.0871(4)
C41 C 0.3673(6) 0.1386(5) -0.3401(4)
C42 C 0.4168(5) 0.1820(4) -0.2404(4)
H26 H 0.3659 0.1836 -0.2033
C43 C 0.5408(5) 0.2234(4) -0.1942(4)
C44 C 0.6165(6) 0.2247(5) -0.2496(4)
H27 H 0.7004 0.2539 -0.2195
C45 C 0.5686(6) 0.1832(6) -0.3484(5)
H28 H 0.6205 0.1850 -0.3852
C46 C 0.4443(6) 0.1387(6) -0.3943(4)
H29 H 0.4123 0.1087 -0.4619
O1 O 0.1940(5) 0.0393(5) -0.4795(4)
O2 O 0.1692(4) 0.1075(5) -0.3405(4)
O3 O 0.5142(4) 0.2556(5) -0.0429(3)
O4 O 0.6943(4) 0.2793(4) -0.0490(3)
O5 O 0.9676(4) 0.1105(3) 0.2360(3)
O6 O 1.1044(5) 0.1751(4) 0.3817(3)
O7 O 0.9736(4) 0.3676(3) 0.0830(3)
O8 O 1.1127(4) 0.5503(3) 0.1610(3)
N1 N 0.4327(5) 0.0919(4) 0.2312(3)
N2 N 0.4805(4) 0.1890(4) 0.2207(3)
N3 N 0.5333(6) 0.3947(4) 0.2215(4)
N4 N 0.2205(4) 0.0141(4) 0.0326(3)
N5 N 0.2562(4) 0.0935(4) -0.0031(3)
N6 N 0.2269(5) 0.2442(4) -0.0781(4)
N7 N 0.7340(5) 0.1719(4) 0.2508(4)
N8 N 0.7689(4) 0.2653(4) 0.2344(3)
N9 N 0.8567(5) 0.4834(4) 0.2515(4)
O9 O 0.9576(12) 0.2191(10) -0.1210(9)
O10 O 0.9270(7) 0.0939(6) -0.2535(5)
O11 O 0.8389(10) 0.1855(9) -0.2521(8)
N10 N 0.9134(9) 0.1651(6) -0.2087(7)
C1A C 0.5259(5) -0.0011(4) -0.0858(4)
C2A C 0.6210(5) 0.0353(4) -0.0015(4)
C3A C 0.4054(5) -0.0342(4) -0.0836(4)
C4A C 0.5530(6) 0.0023(5) -0.1780(4)
H1A H 0.6284 0.0724 -0.1616
H2A H 0.4863 0.0020 -0.2202
C5A C 0.7511(5) 0.0761(5) -0.0028(5)
H3A H 0.8083 0.1311 0.0618
H4A H 0.7635 0.1138 -0.0470
C6A C 0.3043(6) -0.0651(5) -0.1731(4)
H5A H 0.3332 -0.0060 -0.1971
H6A H 0.2332 -0.0688 -0.1552
C7A C 0.6143(7) -0.0972(6) -0.3036(5)
H7A H 0.6516 -0.0395 -0.3239
C8A C 0.5972(8) -0.2036(6) -0.3421(5)
H8A H 0.6196 -0.2334 -0.3938
C9A C 0.5392(6) -0.2574(5) -0.2875(4)
C10A C 0.4972(6) -0.3724(5) -0.2947(4)
C11A C 0.4912(10) -0.4536(7) -0.3741(6)
C12A C 0.423(3) -0.570(2) -0.378(2)
C13A C 0.4133(10) -0.5848(7) -0.3023(8)
C14A C 0.4257(8) -0.4983(6) -0.2269(7)
H9A H 0.4036 -0.5131 -0.1751
C15A C 0.8414(7) -0.0296(6) -0.0928(5)
H10A H 0.8751 0.0156 -0.1252
C16A C 0.8459(7) -0.1246(6) -0.0977(5)
H11A H 0.8821 -0.1577 -0.1343
C17A C 0.7855(5) -0.1606(5) -0.0370(4)
C18A C 0.7632(5) -0.2579(5) -0.0141(4)
C19A C 0.7326(7) -0.3594(5) -0.0842(5)
H12A H 0.7284 -0.3666 -0.1476
C20A C 0.7084(8) -0.4498(6) -0.0604(6)
H13A H 0.6886 -0.5186 -0.1071
C21A C 0.7136(9) -0.4380(6) 0.0316(7)
H14A H 0.6954 -0.4988 0.0491
C22A C 0.7468(8) -0.3331(6) 0.0996(6)
H15A H 0.7507 -0.3248 0.1632
C23A C 0.2514(8) -0.1924(6) -0.3452(5)
H16A H 0.2708 -0.1396 -0.3727
C24A C 0.2024(8) -0.3058(7) -0.3927(5)
H17A H 0.1810 -0.3463 -0.4590
C25A C 0.1915(6) -0.3478(5) -0.3218(4)
C26A C 0.1440(6) -0.4660(5) -0.3316(5)
C27A C 0.0993(9) -0.5522(7) -0.4207(6)
H18A H 0.0985 -0.5373 -0.4764
C28A C 0.0559(10) -0.6603(7) -0.4279(7)
H19A H 0.0278 -0.7196 -0.4878
C29A C 0.0547(9) -0.6788(6) -0.3460(6)
H20A H 0.0248 -0.7515 -0.3484
C30A C 0.0980(7) -0.5896(6) -0.2598(5)
H21A H 0.0960 -0.6034 -0.2038
N1A N 0.5673(5) -0.0919(4) -0.2312(3)
N2A N 0.5195(4) -0.1890(4) -0.2207(3)
N3A N 0.4667(6) -0.3947(4) -0.2215(4)
N4A N 0.7795(4) -0.0141(4) -0.0326(3)
N5A N 0.7438(4) -0.0935(4) 0.0031(3)
N6A N 0.7731(5) -0.2442(4) 0.0781(4)
N7A N 0.2660(5) -0.1719(4) -0.2508(4)
N8A N 0.2311(4) -0.2653(4) -0.2344(3)
N9A N 0.1433(5) -0.4834(4) -0.2515(4)
Ag1A Ag -0.50616(5) -0.23738(4) -1.09149(3)
Ag2A Ag -0.76742(4) -0.32655(4) -1.10760(3)
Ag3A Ag -0.92459(5) -0.38128(4) -0.94272(4)
Ag4A Ag -0.03587(5) -0.01358(5) -0.41205(4)
Ag5A Ag -0.87962(5) 0.07004(4) -1.19088(3)
C31A C -1.0620(5) -0.4533(5) -1.1556(4)
C32A C -1.0554(6) -0.1860(5) -1.3111(4)
C33A C -1.1087(5) -0.4318(5) -1.2399(4)
C34A C -1.0615(5) -0.3235(5) -1.2375(4)
H22A H -0.9970 -0.2629 -1.1828
C35A C -1.1081(5) -0.3042(5) -1.3143(4)
C36A C -1.2048(7) -0.3935(6) -1.3937(5)
H23A H -1.2386 -0.3812 -1.4454
C37A C -1.2523(8) -0.5012(6) -1.3971(5)
H24A H -1.3178 -0.5613 -1.4514
C38A C -1.2035(7) -0.5208(5) -1.3207(5)
H25A H -1.2349 -0.5940 -1.3240
C39A C -0.2329(7) -0.0925(6) -0.6107(6)
C40A C -0.5868(5) -0.2563(4) -0.9129(4)
C41A C -0.3673(6) -0.1386(5) -0.6599(4)
C42A C -0.4168(5) -0.1820(4) -0.7596(4)
H26A H -0.3659 -0.1836 -0.7967
C43A C -0.5408(5) -0.2234(4) -0.8058(4)
C44A C -0.6165(6) -0.2247(5) -0.7504(4)
H27A H -0.7004 -0.2539 -0.7805
C45A C -0.5686(6) -0.1832(6) -0.6516(5)
H28A H -0.6205 -0.1850 -0.6148
C46A C -0.4443(6) -0.1387(6) -0.6057(4)
H29A H -0.4123 -0.1087 -0.5381
O1A O -0.1940(5) -0.0393(5) -0.5205(4)
O2A O -0.1692(4) -0.1075(5) -0.6595(4)
O3A O -0.5142(4) -0.2556(5) -0.9571(3)
O4A O -0.6943(4) -0.2793(4) -0.9510(3)
O5A O -0.9676(4) -0.1105(3) -1.2360(3)
O6A O -1.1044(5) -0.1751(4) -1.3817(3)
O7A O -0.9736(4) -0.3676(3) -1.0830(3)
O8A O -1.1127(4) -0.5503(3) -1.1610(3)
O9A O -0.9576(12) -0.2191(10) -0.8790(9)
O10A O -0.9270(7) -0.0939(6) -0.7465(5)
O11A O -0.8389(10) -0.1855(9) -0.7479(8)
N10A N -0.9134(9) -0.1651(6) -0.7913(7)
Ag1A_2 Ag 0.49384(5) -0.23738(4) -0.09149(3)
Ag2A_2 Ag 0.23258(4) -0.32655(4) -0.10760(3)
Ag3_2 Ag -1.07541(5) -0.61872(4) -1.05728(4)
Ag3A_2 Ag 1.07541(5) 0.61872(4) 0.05728(4)
Ag4_2 Ag -0.96413(5) 0.01358(5) -0.58795(4)
Ag4_3 Ag 1.03587(5) 0.01358(5) 0.41205(4)
Ag4A_2 Ag -1.03587(5) -0.01358(5) -1.41205(4)
Ag4A_3 Ag 0.96413(5) -0.01358(5) -0.41205(4)
Ag5_2 Ag -1.12038(5) -0.07004(4) -0.80912(3)
Ag5_3 Ag -0.12038(5) -0.07004(4) -0.80912(3)
Ag5A_2 Ag 0.12038(5) 0.07004(4) -0.19088(3)
Ag5A_3 Ag 1.12038(5) 0.07004(4) -0.19088(3)
O2_2 O -0.8308(4) 0.1075(5) -1.3405(4)
O2A_2 O 0.8308(4) -0.1075(5) 0.3405(4)
O6_2 O 0.1044(5) 0.1751(4) -0.6183(3)
O6A_2 O -0.1044(5) -0.1751(4) -0.3817(3)
O8_2 O -0.8873(4) -0.4497(3) -0.8390(3)
O8A_2 O 0.8873(4) 0.4497(3) -0.1610(3)
N2A_2 N -0.4805(4) -0.1890(4) -1.2207(3)
N3A_2 N -0.5333(6) -0.3947(4) -1.2215(4)
N6_2 N -0.7731(5) 0.2442(4) -1.0781(4)
N8A_2 N -0.7689(4) -0.2653(4) -1.2344(3)
N9A_2 N -0.8567(5) -0.4834(4) -1.2515(4)
O10_2 O -1.0730(7) 0.0939(6) -1.2535(5)
O10_3 O -0.0730(7) 0.0939(6) -0.2535(5)
O10A_2 O 0.0730(7) -0.0939(6) -0.7465(5)
O10A_3 O 1.0730(7) -0.0939(6) 0.2535(5)
O12 O 0.7563(19) 0.1316(19) -0.4518(16)
C47? C 0.519(3) 0.550(3) 0.372(3)
O13? O 0.8549(15) 0.1736(13) -0.1639(12)
loop_
_geom_bond_atom_site_label_1
_geom_bond_atom_site_label_2
_geom_bond_site_symmetry_1
_geom_bond_site_symmetry_2
Ag1 O3 1_555 1_555
Ag2 O4 1_555 1_555
Ag3 O4 1_555 1_555
Ag4 O1 1_555 1_555
Ag5 O5 1_555 1_555
C1 C2 1_555 1_555
C2 C5 1_555 1_555
C3 C1 1_555 1_555
C4 C1 1_555 1_555
H1 C4 1_555 1_555
H2 C4 1_555 1_555
C5 H3 1_555 1_555
H4 C5 1_555 1_555
C6 C3 1_555 1_555
H5 C6 1_555 1_555
H6 C6 1_555 1_555
C7 H7 1_555 1_555
C8 C7 1_555 1_555
H8 C8 1_555 1_555
C9 C8 1_555 1_555
C10 C9 1_555 1_555
C11 C10 1_555 1_555
C12 C11 1_555 1_555
C13 C12 1_555 1_555
C14 C13 1_555 1_555
H9 C14 1_555 1_555
C15 H10 1_555 1_555
C16 C15 1_555 1_555
H11 C16 1_555 1_555
C17 C16 1_555 1_555
C18 C17 1_555 1_555
C19 C18 1_555 1_555
H12 C19 1_555 1_555
C20 C19 1_555 1_555
H13 C20 1_555 1_555
C21 C20 1_555 1_555
H14 C21 1_555 1_555
C22 C21 1_555 1_555
H15 C22 1_555 1_555
C23 H16 1_555 1_555
C24 C23 1_555 1_555
H17 C24 1_555 1_555
C25 C24 1_555 1_555
C26 C25 1_555 1_555
C27 C26 1_555 1_555
H18 C27 1_555 1_555
C28 C27 1_555 1_555
H19 C28 1_555 1_555
C29 C28 1_555 1_555
H20 C29 1_555 1_555
C30 C29 1_555 1_555
H21 C30 1_555 1_555
C31 C33 1_555 1_555
C32 C35 1_555 1_555
C33 C34 1_555 1_555
C34 H22 1_555 1_555
C35 C34 1_555 1_555
C36 C35 1_555 1_555
H23 C36 1_555 1_555
C37 C36 1_555 1_555
H24 C37 1_555 1_555
C38 C33 1_555 1_555
H25 C38 1_555 1_555
C39 C41 1_555 1_555
C40 C43 1_555 1_555
C41 C42 1_555 1_555
C42 H26 1_555 1_555
C43 C42 1_555 1_555
C44 C43 1_555 1_555
H27 C44 1_555 1_555
C45 C44 1_555 1_555
H28 C45 1_555 1_555
C46 C41 1_555 1_555
H29 C46 1_555 1_555
O1 C39 1_555 1_555
O2 C39 1_555 1_555
O3 C40 1_555 1_555
O4 C40 1_555 1_555
O5 C32 1_555 1_555
O6 C32 1_555 1_555
O7 Ag2 1_555 1_555
O8 C31 1_555 1_555
N1 C4 1_555 1_555
N2 Ag1 1_555 1_555
N3 Ag1 1_555 1_555
N4 C5 1_555 1_555
N5 C17 1_555 1_555
N6 C18 1_555 1_555
N7 C6 1_555 1_555
N8 Ag2 1_555 1_555
N9 Ag2 1_555 1_555
O9 Ag3 1_555 1_555
O10 N10 1_555 1_555
O11 N10 1_555 1_555
N10 O9 1_555 1_555
C1A C2A 1_555 1_555
C2A C3 1_555 1_555
C3A C2 1_555 1_555
C4A C1A 1_555 1_555
H1A C4A 1_555 1_555
H2A C4A 1_555 1_555
C5A C2A 1_555 1_555
H3A C5A 1_555 1_555
H4A C5A 1_555 1_555
C6A C3A 1_555 1_555
H5A C6A 1_555 1_555
H6A C6A 1_555 1_555
C7A H7A 1_555 1_555
C8A C7A 1_555 1_555
H8A C8A 1_555 1_555
C9A C8A 1_555 1_555
C10A C9A 1_555 1_555
C11A C10A 1_555 1_555
C12A C11A 1_555 1_555
C13A C12A 1_555 1_555
C14A C13A 1_555 1_555
H9A C14A 1_555 1_555
C15A H10A 1_555 1_555
C16A C15A 1_555 1_555
H11A C16A 1_555 1_555
C17A C16A 1_555 1_555
C18A C17A 1_555 1_555
C19A C18A 1_555 1_555
H12A C19A 1_555 1_555
C20A C19A 1_555 1_555
H13A C20A 1_555 1_555
C21A C20A 1_555 1_555
H14A C21A 1_555 1_555
C22A C21A 1_555 1_555
H15A C22A 1_555 1_555
C23A H16A 1_555 1_555
C24A C23A 1_555 1_555
H17A C24A 1_555 1_555
C25A C24A 1_555 1_555
C26A C25A 1_555 1_555
C27A C26A 1_555 1_555
H18A C27A 1_555 1_555
C28A C27A 1_555 1_555
H19A C28A 1_555 1_555
C29A C28A 1_555 1_555
H20A C29A 1_555 1_555
C30A C29A 1_555 1_555
H21A C30A 1_555 1_555
N1A C4A 1_555 1_555
N2A C9A 1_555 1_555
N3A C10A 1_555 1_555
N4A C5A 1_555 1_555
N5A C17A 1_555 1_555
N6A Ag5 1_555 1_555
N7A C6A 1_555 1_555
N8A C25A 1_555 1_555
N9A C26A 1_555 1_555
Ag1A O3A 1_555 1_555
Ag2A O4A 1_555 1_555
Ag3A O4A 1_555 1_555
Ag4A O2 1_555 1_555
Ag5A O5A 1_555 1_555
C31A C33A 1_555 1_555
C32A C35A 1_555 1_555
C33A C34A 1_555 1_555
C34A H22A 1_555 1_555
C35A C34A 1_555 1_555
C36A C35A 1_555 1_555
H23A C36A 1_555 1_555
C37A C36A 1_555 1_555
H24A C37A 1_555 1_555
C38A C33A 1_555 1_555
H25A C38A 1_555 1_555
C39A C41A 1_555 1_555
C40A C43A 1_555 1_555
C41A C42A 1_555 1_555
C42A H26A 1_555 1_555
C43A C42A 1_555 1_555
C44A C43A 1_555 1_555
H27A C44A 1_555 1_555
C45A C44A 1_555 1_555
H28A C45A 1_555 1_555
C46A C41A 1_555 1_555
H29A C46A 1_555 1_555
O1A Ag4A 1_555 1_555
O2A Ag4 1_555 1_555
O3A C40A 1_555 1_555
O4A C40A 1_555 1_555
O5A C32A 1_555 1_555
O6A C32A 1_555 1_555
O7A Ag2A 1_555 1_555
O8A C31A 1_555 1_555
O9A Ag3A 1_555 1_555
O10A N10A 1_555 1_555
O11A N10A 1_555 1_555
N10A O9A 1_555 1_555
Ag1A_2 N2A 1_555 1_555
Ag2A_2 N8A 1_555 1_555
Ag3_2 O8A 1_555 1_555
Ag3A_2 O8 1_555 1_555
Ag4_2 O10A 1_555 1_555
Ag4_3 O6 1_555 1_555
Ag4A_2 O6A 1_555 1_555
Ag4A_3 O10 1_555 1_555
Ag5_2 O10A 1_555 1_555
Ag5_3 O2A 1_555 1_555
Ag5A_2 O2 1_555 1_555
Ag5A_3 O10 1_555 1_555
O2_2 Ag5A 1_555 1_555
O2A_2 Ag5 1_555 1_555
O6_2 Ag4 1_555 1_555
O6A_2 Ag4A 1_555 1_555
O8_2 Ag3A 1_555 1_555
O8A_2 Ag3 1_555 1_555
N2A_2 Ag1A 1_555 1_555
N3A_2 Ag1A 1_555 1_555
N6_2 Ag5A 1_555 1_555
N8A_2 Ag2A 1_555 1_555
N9A_2 Ag2A 1_555 1_555
O10_2 Ag5A 1_555 1_555
O10_3 Ag4A 1_555 1_555
O10A_2 Ag4 1_555 1_555
O10A_3 Ag5 1_555 1_555
Ag3 O7 1_555 1_555
C7 N1 1_555 1_555
C9 N2 1_555 1_555
C10 N3 1_555 1_555
C14 N3 1_555 1_555
C15 N4 1_555 1_555
C22 N6 1_555 1_555
C23 N7 1_555 1_555
C25 N8 1_555 1_555
C26 N9 1_555 1_555
C30 N9 1_555 1_555
C31 O7 1_555 1_555
C37 C38 1_555 1_555
C45 C46 1_555 1_555
N1 N2 1_555 1_555
N4 N5 1_555 1_555
N6 Ag5A_2 1_555 1_555
N7 N8 1_555 1_555
C1A C3A 1_555 1_555
C7A N1A 1_555 1_555
C14A N3A 1_555 1_555
C15A N4A 1_555 1_555
C18A N6A 1_555 1_555
C22A N6A 1_555 1_555
C23A N7A 1_555 1_555
C30A N9A 1_555 1_555
N1A N2A 1_555 1_555
N3A Ag1A_2 1_555 1_555
N4A N5A 1_555 1_555
N7A N8A 1_555 1_555
N9A Ag2A_2 1_555 1_555
Ag3A O7A 1_555 1_555
C31A O7A 1_555 1_555
C37A C38A 1_555 1_555
C39A O1A 1_555 1_555
C39A O2A 1_555 1_555
C45A C46A 1_555 1_555
Ag4_3 O2A_2 1_555 1_555
Ag4_3 O10A_3 1_555 1_555
Ag4A_2 O2_2 1_555 1_555
Ag4A_2 O10_2 1_555 1_555
Ag5_3 O10A_2 1_555 1_555
Ag5A_2 O10_3 1_555 1_555

#END
