
#######################################################################
#
#                 Cambridge Crystallographic Data Centre
#                                CCDC 
#
#######################################################################
#
# If this CIF has been generated from an entry in the Cambridge 
# Structural Database, then it will include bibliographic, chemical, 
# crystal, experimental, refinement or atomic coordinate data resulting 
# from the CCDC's data processing and validation procedures.
#
#######################################################################

data_DIZHAV
_symmetry_cell_setting           monoclinic
_symmetry_space_group_name_H-M   'P 21'
_symmetry_Int_Tables_number      4
_space_group_name_Hall           'P 2yb'
loop_
_symmetry_equiv_pos_site_id
_symmetry_equiv_pos_as_xyz
1 x,y,z
2 -x,1/2+y,-z
_cell_length_a                   10.535(2)
_cell_length_b                   8.836(2)
_cell_length_c                   14.188(2)
_cell_angle_alpha                90
_cell_angle_beta                 99.08(2)
_cell_angle_gamma                90
_cell_volume                     1304.17
loop_
_atom_site_label
_atom_site_type_symbol
_atom_site_fract_x
_atom_site_fract_y
_atom_site_fract_z
Cu1 Cu 0.04117(5) 0.00000 0.09875(4)
Cu2 Cu 0.54015(5) -0.03198(7) 0.09161(4)
S1 S 0.4057(2) 0.3915(2) 0.3834(1)
S2 S 0.1251(2) -0.4409(2) 0.2081(1)
S3 S -0.0414(2) 0.1777(2) 0.4127(1)
S4 S -0.3577(2) -0.4699(2) 0.2285(1)
O1 O 0.4110(3) -0.0649(4) 0.2069(2)
O2 O 0.0124(4) -0.1751(4) 0.0062(3)
O3 O 0.1063(3) -0.3888(4) -0.0330(2)
O4 O -0.0910(3) -0.0754(4) 0.2082(2)
O5 O -0.4851(3) -0.2226(4) 0.0152(3)
O6 O -0.3907(3) -0.4398(4) -0.0124(3)
N1 N 0.1172(4) 0.1577(5) 0.1951(3)
N2 N 0.2006(4) -0.0992(5) 0.1388(3)
N3 N -0.3740(4) 0.1547(5) 0.1551(3)
N4 N -0.2999(4) -0.1265(5) 0.1408(3)
C1 C 0.2555(5) 0.1238(6) 0.2318(4)
C2 C 0.2952(4) -0.0264(6) 0.1897(3)
C3 C 0.2242(5) -0.2365(6) 0.0875(4)
C4 C 0.1046(5) -0.2685(6) 0.0147(4)
C5 C 0.2796(5) 0.1168(7) 0.3407(4)
C6 C 0.2711(6) 0.2683(7) 0.3909(4)
C7 C 0.5216(6) 0.3197(9) 0.4835(5)
C8 C 0.2569(5) -0.3733(6) 0.1516(4)
C9 C 0.1356(7) -0.3224(9) 0.3116(5)
C10 C -0.2553(5) 0.1102(6) 0.2203(4)
C11 C -0.2079(4) -0.0427(6) 0.1878(3)
C12 C -0.2716(5) -0.2692(6) 0.0979(4)
C13 C -0.3924(5) -0.3138(6) 0.0274(4)
C14 C -0.2892(5) 0.0989(6) 0.3208(4)
C15 C -0.1807(6) 0.0562(7) 0.3990(4)
C16 C -0.1080(7) 0.3537(9) 0.4399(6)
C17 C -0.2322(5) -0.3971(6) 0.1682(4)
C18 C -0.3615(7) -0.3336(8) 0.3204(6)
H1 H 0.3138(27) 0.2032(29) 0.2050(26)
H2 H 0.1077(28) 0.2574(29) 0.1654(26)
H3 H 0.0776(27) 0.1398(30) 0.2373(26)
H4 H 0.2893(27) -0.2210(29) 0.0575(26)
H5 H 0.3533(28) 0.0612(29) 0.3492(25)
H6 H 0.2081(27) 0.0374(29) 0.3668(25)
H7 H 0.1865(28) 0.3280(29) 0.3560(26)
H8 H 0.2801(27) 0.2556(29) 0.4694(26)
H9 H 0.4728(28) 0.3646(29) 0.5347(26)
H10 H 0.6124(27) 0.3666(29) 0.5064(25)
H11 H 0.5555(27) 0.2078(30) 0.4822(26)
H12 H 0.3327(27) -0.3560(29) 0.1963(25)
H13 H 0.2779(28) -0.4493(29) 0.1181(25)
H14 H 0.0664(27) -0.3790(29) 0.3571(25)
H15 H 0.2156(28) -0.3123(29) 0.3404(26)
H16 H 0.1118(28) -0.2249(29) 0.3072(26)
H17 H -0.1837(27) 0.1870(29) 0.2083(26)
H18 H -0.4094(28) 0.2589(29) 0.1656(26)
H19 H -0.3516(28) 0.1957(29) 0.0884(26)
H20 H -0.2056(27) -0.2493(29) 0.0591(26)
H21 H -0.3259(27) 0.1878(29) 0.3381(26)
H22 H -0.3616(27) 0.0226(29) 0.3284(25)
H23 H -0.2112(27) 0.0505(29) 0.4568(26)
H24 H -0.1382(27) -0.0541(29) 0.3859(25)
H25 H -0.0340(27) 0.4343(30) 0.4522(25)
H26 H -0.1792(28) 0.3835(29) 0.3914(26)
H27 H -0.2105(27) -0.4893(29) 0.1304(25)
H28 H -0.1549(27) -0.3471(29) 0.2166(25)
H29 H -0.4268(27) -0.3756(29) 0.3640(26)
H30 H -0.3837(28) -0.2281(29) 0.3004(26)
H31 H -0.2793(28) -0.3233(30) 0.3487(26)
O3A O -0.1063(3) 0.1112(4) 0.0330(2)
O5_2 O 0.5149(3) -0.2226(4) 0.0152(3)
O6A O 0.3907(3) 0.0602(4) 0.0124(3)
N3_2 N 0.6260(4) 0.1547(5) 0.1551(3)
N4_2 N 0.7001(4) -0.1265(5) 0.1408(3)
Cu1A Cu -0.04117(5) -0.50000 -0.09875(4)
Cu2_2 Cu -0.45985(5) -0.03198(7) 0.09161(4)
Cu2A Cu -0.54015(5) -0.53198(7) -0.09161(4)
H18_2 H 0.5906(28) 0.2589(29) 0.1656(26)
H19_2 H 0.6484(28) 0.1957(29) 0.0884(26)
loop_
_geom_bond_atom_site_label_1
_geom_bond_atom_site_label_2
_geom_bond_site_symmetry_1
_geom_bond_site_symmetry_2
Cu1 O2 1_555 1_555
Cu2 O1 1_555 1_555
S1 C6 1_555 1_555
S2 C8 1_555 1_555
S3 C15 1_555 1_555
S4 C17 1_555 1_555
O1 C2 1_555 1_555
O2 C4 1_555 1_555
O3 C4 1_555 1_555
O4 Cu1 1_555 1_555
O5 C13 1_555 1_555
O6 C13 1_555 1_555
N1 Cu1 1_555 1_555
N2 Cu1 1_555 1_555
N3 C10 1_555 1_555
N4 C11 1_555 1_555
C1 N1 1_555 1_555
C2 N2 1_555 1_555
C3 N2 1_555 1_555
C4 C3 1_555 1_555
C5 C1 1_555 1_555
C6 C5 1_555 1_555
C7 S1 1_555 1_555
C8 C3 1_555 1_555
C9 S2 1_555 1_555
C10 C11 1_555 1_555
C11 O4 1_555 1_555
C12 N4 1_555 1_555
C13 C12 1_555 1_555
C14 C10 1_555 1_555
C15 C14 1_555 1_555
C16 S3 1_555 1_555
C17 C12 1_555 1_555
C18 S4 1_555 1_555
H1 C1 1_555 1_555
H2 N1 1_555 1_555
H3 N1 1_555 1_555
H4 C3 1_555 1_555
H5 C5 1_555 1_555
H6 C5 1_555 1_555
H7 C6 1_555 1_555
H8 C6 1_555 1_555
H9 C7 1_555 1_555
H10 C7 1_555 1_555
H11 C7 1_555 1_555
H12 C8 1_555 1_555
H13 C8 1_555 1_555
H14 C9 1_555 1_555
H15 C9 1_555 1_555
H16 C9 1_555 1_555
H17 C10 1_555 1_555
H18 N3 1_555 1_555
H19 N3 1_555 1_555
H20 C12 1_555 1_555
H21 C14 1_555 1_555
H22 C14 1_555 1_555
H23 C15 1_555 1_555
H24 C15 1_555 1_555
H25 C16 1_555 1_555
H26 C16 1_555 1_555
H27 C17 1_555 1_555
H28 C17 1_555 1_555
H29 C18 1_555 1_555
H30 C18 1_555 1_555
H31 C18 1_555 1_555
O3A Cu1 1_555 1_555
O5_2 Cu2 1_555 1_555
O6A Cu2 1_555 1_555
N3_2 Cu2 1_555 1_555
N4_2 Cu2 1_555 1_555
Cu1A O3 1_555 1_555
Cu2_2 O5 1_555 1_555
Cu2A O6 1_555 1_555
H18_2 N3_2 1_555 1_555
H19_2 N3_2 1_555 1_555
N3 Cu2_2 1_555 1_555
N4 Cu2_2 1_555 1_555
C1 C2 1_555 1_555

#END
