
#######################################################################
#
#                 Cambridge Crystallographic Data Centre
#                                CCDC 
#
#######################################################################
#
# If this CIF has been generated from an entry in the Cambridge 
# Structural Database, then it will include bibliographic, chemical, 
# crystal, experimental, refinement or atomic coordinate data resulting 
# from the CCDC's data processing and validation procedures.
#
#######################################################################

data_DIZHAX
_symmetry_cell_setting           triclinic
_symmetry_space_group_name_H-M   'P -1'
_symmetry_Int_Tables_number      2
_space_group_name_Hall           '-P 1'
loop_
_symmetry_equiv_pos_site_id
_symmetry_equiv_pos_as_xyz
1 x,y,z
2 -x,-y,-z
_cell_length_a                   11.4860(6)
_cell_length_b                   12.9510(8)
_cell_length_c                   13.9760(6)
_cell_angle_alpha                85.015(4)
_cell_angle_beta                 79.768(4)
_cell_angle_gamma                65.610(5)
_cell_volume                     1863.14
loop_
_atom_site_label
_atom_site_type_symbol
_atom_site_fract_x
_atom_site_fract_y
_atom_site_fract_z
Ag1 Ag 0.80573(5) 0.95504(4) 0.30918(4)
Ag2 Ag 1.19363(5) 0.83698(4) -0.17771(4)
C1 C 0.9983(5) 0.8994(4) 0.0445(4)
C2 C 1.0702(5) 0.9492(4) 0.0764(4)
C3 C 0.9263(5) 0.9500(4) -0.0318(4)
C4 C 0.9915(6) 0.7910(4) 0.0910(4)
H1 H 1.0034 0.7867 0.1585
H2 H 0.9064 0.7930 0.0898
C5 C 1.1506(5) 0.8939(5) 0.1575(4)
H3 H 1.1437 0.8225 0.1764
H4 H 1.2408 0.8773 0.1326
C6 C 0.8407(5) 0.9003(4) -0.0601(4)
H5 H 0.7957 0.8794 -0.0014
H6 H 0.7760 0.9584 -0.0938
C7 C 1.0785(7) 0.5920(5) 0.0342(5)
H7 H 1.0066 0.5765 0.0592
C8 C 1.1911(7) 0.5197(5) -0.0156(5)
H8 H 1.2125 0.4453 -0.0318
C9 C 1.2687(5) 0.5805(4) -0.0376(4)
C10 C 1.3999(6) 0.5410(5) -0.0919(4)
C11 C 1.4492(5) 0.4376(4) -0.1284(4)
H9 H 1.4010 0.3939 -0.1197
C12 C 1.5673(6) 0.3981(5) -0.1771(5)
H10 H 1.6003 0.3260 -0.2031
C13 C 1.6439(7) 0.4562(6) -0.1918(5)
H11 H 1.7281 0.4240 -0.2249
C14 C 1.5934(7) 0.5635(6) -0.1563(5)
H12 H 1.6426 0.6065 -0.1673
C15 C 1.1856(6) 0.9971(5) 0.2855(4)
H13 H 1.2731 0.9798 0.2651
C16 C 1.1099(6) 1.0602(5) 0.3638(4)
H14 H 1.1340 1.0956 0.4071
C17 C 0.9883(5) 1.0603(4) 0.3647(4)
C18 C 0.8705(5) 1.1148(4) 0.4340(4)
C19 C 0.8639(7) 1.1891(5) 0.5022(4)
H15 H 0.9349 1.2053 0.5048
C20 C 0.7515(8) 1.2385(6) 0.5659(5)
H16 H 0.7457 1.2881 0.6125
C21 C 0.6490(8) 1.2145(6) 0.5604(5)
H17 H 0.5717 1.2479 0.6027
C22 C 0.6604(6) 1.1398(6) 0.4912(5)
H18 H 0.5896 1.1234 0.4881
C23 C 0.8584(6) 0.7303(6) -0.1439(5)
H19 H 0.7772 0.7319 -0.1186
C24 C 0.9479(6) 0.6555(5) -0.2095(5)
H20 H 0.9415 0.5958 -0.2375
C25 C 1.0519(5) 0.6876(4) -0.2260(4)
C26 C 1.1789(5) 0.6374(4) -0.2863(4)
C27 C 1.2102(7) 0.5476(5) -0.3468(4)
H21 H 1.1483 0.5211 -0.3538
C28 C 1.3325(8) 0.4986(6) -0.3957(5)
H22 H 1.3549 0.4379 -0.4362
C29 C 1.4226(7) 0.5383(6) -0.3856(5)
H23 H 1.5081 0.5029 -0.4156
C30 C 1.3825(6) 0.6328(5) -0.3293(4)
H24 H 1.4409 0.6647 -0.3262
C31 C 0.9489(8) 0.7065(6) 0.3794(5)
C32 C 0.9730(6) 0.6005(5) 0.4439(4)
C33 C 1.0885(6) 0.5073(5) 0.4235(4)
H25 H 1.1496 0.5119 0.3718
C34 C 1.1172(6) 0.4070(5) 0.4772(4)
C35 C 1.2480(7) 0.3153(6) 0.4476(6)
C36 C 1.3598(5) 0.9632(4) -0.1389(4)
C37 C 1.4378(5) 0.9808(4) -0.0703(4)
C38 C 1.4798(5) 0.9024(4) 0.0040(4)
H26 H 1.4670 0.8357 0.0068
C39 C 1.5401(5) 0.9211(4) 0.0733(4)
C40 C 1.5737(6) 0.8348(5) 0.1547(4)
C41 C 1.7332(7) 0.6786(6) 0.2183(5)
H27 H 1.8223 0.6275 0.2023
H28 H 1.6800 0.6365 0.2282
H29 H 1.7216 0.7180 0.2767
C42 C 1.3742(10) 0.1536(8) 0.3440(7)
H30 H 1.3610 0.1101 0.2981
H31 H 1.4102 0.1052 0.3968
H32 H 1.4327 0.1862 0.3125
N1 N 1.0897(5) 0.6903(3) 0.0407(3)
N2 N 1.2058(4) 0.6852(4) -0.0027(3)
N3 N 1.4697(6) 0.6088(5) -0.1040(4)
N4 N 1.1105(4) 0.9645(4) 0.2432(3)
N5 N 0.9890(4) 1.0020(4) 0.2909(3)
N6 N 0.7691(4) 1.0898(4) 0.4283(3)
N7 N 0.9070(4) 0.8018(4) -0.1216(3)
N8 N 1.0249(4) 0.7772(3) -0.1720(3)
N9 N 1.2635(4) 0.6804(4) -0.2793(3)
O1 O 0.8464(6) 0.7877(5) 0.4036(5)
O2 O 1.0338(7) 0.7038(5) 0.3127(4)
O3 O 1.3440(6) 0.3023(6) 0.4737(7)
O4 O 1.2482(6) 0.2457(5) 0.3824(5)
O5 O 1.3248(5) 0.8847(4) -0.1164(4)
O6 O 1.3313(5) 1.0305(4) -0.2064(3)
O7 O 1.4967(4) 0.8306(4) 0.2220(3)
O8 O 1.6958(4) 0.7609(3) 0.1384(3)
C1A C 1.0017(5) 1.1006(4) -0.0445(4)
C2A C 0.9298(5) 1.0508(4) -0.0764(4)
C3A C 1.0737(5) 1.0500(4) 0.0318(4)
C4A C 1.0085(6) 1.2090(4) -0.0910(4)
H1A H 0.9966 1.2133 -0.1585
H2A H 1.0936 1.2070 -0.0898
C5A C 0.8494(5) 1.1061(5) -0.1575(4)
H3A H 0.8563 1.1775 -0.1764
H4A H 0.7592 1.1227 -0.1326
C6A C 1.1593(5) 1.0997(4) 0.0601(4)
H5A H 1.2043 1.1206 0.0014
H6A H 1.2240 1.0416 0.0938
C7A C 0.9215(7) 1.4080(5) -0.0342(5)
H7A H 0.9934 1.4235 -0.0592
C8A C 0.8089(7) 1.4803(5) 0.0156(5)
H8A H 0.7875 1.5547 0.0318
C9A C 0.7313(5) 1.4195(4) 0.0376(4)
C10A C 0.6001(6) 1.4590(5) 0.0919(4)
C11A C 0.5508(5) 1.5624(4) 0.1284(4)
H9A H 0.5990 1.6061 0.1197
C12A C 0.4327(6) 1.6019(5) 0.1771(5)
H10A H 0.3997 1.6740 0.2031
C13A C 0.3561(7) 1.5438(6) 0.1918(5)
H11A H 0.2719 1.5760 0.2249
C14A C 0.4066(7) 1.4365(6) 0.1563(5)
H12A H 0.3574 1.3935 0.1673
C15A C 0.8144(6) 1.0029(5) -0.2855(4)
H13A H 0.7269 1.0202 -0.2651
C16A C 0.8901(6) 0.9398(5) -0.3638(4)
H14A H 0.8660 0.9044 -0.4071
C17A C 1.0117(5) 0.9397(4) -0.3647(4)
C18A C 1.1295(5) 0.8852(4) -0.4340(4)
C19A C 1.1361(7) 0.8109(5) -0.5022(4)
H15A H 1.0651 0.7947 -0.5048
C20A C 1.2485(8) 0.7615(6) -0.5659(5)
H16A H 1.2543 0.7119 -0.6125
C21A C 1.3510(8) 0.7855(6) -0.5604(5)
H17A H 1.4283 0.7521 -0.6027
C22A C 1.3396(6) 0.8602(6) -0.4912(5)
H18A H 1.4104 0.8766 -0.4881
C23A C 1.1416(6) 1.2697(6) 0.1439(5)
H19A H 1.2228 1.2681 0.1186
C24A C 1.0521(6) 1.3445(5) 0.2095(5)
H20A H 1.0585 1.4042 0.2375
C25A C 0.9481(5) 1.3124(4) 0.2260(4)
C26A C 0.8211(5) 1.3626(4) 0.2863(4)
C27A C 0.7898(7) 1.4524(5) 0.3468(4)
H21A H 0.8517 1.4789 0.3538
C28A C 0.6675(8) 1.5014(6) 0.3957(5)
H22A H 0.6451 1.5621 0.4362
C29A C 0.5774(7) 1.4617(6) 0.3856(5)
H23A H 0.4919 1.4971 0.4156
C30A C 0.6175(6) 1.3672(5) 0.3293(4)
H24A H 0.5591 1.3353 0.3262
N1A N 0.9103(5) 1.3097(3) -0.0407(3)
N2A N 0.7942(4) 1.3148(4) 0.0027(3)
N3A N 0.5303(6) 1.3912(5) 0.1040(4)
N4A N 0.8895(4) 1.0355(4) -0.2432(3)
N5A N 1.0110(4) 0.9980(4) -0.2909(3)
N6A N 1.2309(4) 0.9102(4) -0.4283(3)
N7A N 1.0930(4) 1.1982(4) 0.1216(3)
N8A N 0.9751(4) 1.2228(3) 0.1720(3)
N9A N 0.7365(4) 1.3196(4) 0.2793(3)
C31A C 1.0511(8) 0.2935(6) 0.6206(5)
C32A C 1.0270(6) 0.3995(5) 0.5561(4)
C33A C 0.9115(6) 0.4927(5) 0.5765(4)
H25A H 0.8504 0.4881 0.6282
C34A C 0.8828(6) 0.5930(5) 0.5228(4)
C35A C 0.7520(7) 0.6847(6) 0.5524(6)
C42A C 0.6258(10) 0.8464(8) 0.6560(7)
H30A H 0.6390 0.8899 0.7019
H31A H 0.5898 0.8948 0.6032
H32A H 0.5673 0.8138 0.6875
O1A O 1.1536(6) 0.2123(5) 0.5964(5)
O2A O 0.9662(7) 0.2962(5) 0.6873(4)
O3A O 0.6560(6) 0.6977(6) 0.5263(7)
O4A O 0.7518(6) 0.7543(5) 0.6176(5)
C36A C 1.6402(5) 1.0368(4) 0.1389(4)
C37A C 1.5622(5) 1.0192(4) 0.0703(4)
C38A C 1.5202(5) 1.0976(4) -0.0040(4)
H26A H 1.5330 1.1643 -0.0068
C39A C 1.4599(5) 1.0789(4) -0.0733(4)
C40A C 1.4263(6) 1.1652(5) -0.1547(4)
C41A C 1.2668(7) 1.3214(6) -0.2183(5)
H27A H 1.1777 1.3725 -0.2023
H28A H 1.3200 1.3635 -0.2282
H29A H 1.2784 1.2820 -0.2767
O5A O 1.6752(5) 1.1153(4) 0.1164(4)
O6A O 1.6687(5) 0.9695(4) 0.2064(3)
O7A O 1.5033(4) 1.1694(4) -0.2220(3)
O8A O 1.3042(4) 1.2391(3) -0.1384(3)
Ag1A Ag 1.19427(5) 0.04496(4) 0.69082(4)
Ag2A Ag 0.80637(5) 1.16302(4) 0.17771(4)
Ag1_2 Ag 1.80573(5) 0.95504(4) 0.30918(4)
Ag1A_2 Ag 1.19427(5) 1.04496(4) -0.30918(4)
Ag2A_2 Ag 1.80637(5) 1.16302(4) 0.17771(4)
N5A_2 N 1.0110(4) -0.0020(4) 0.7091(3)
N6A_2 N 1.2309(4) -0.0898(4) 0.5717(3)
O5A_2 O 0.6752(5) 1.1153(4) 0.1164(4)
O6_2 O 1.3313(5) 0.0305(4) 0.7936(3)
O6A_2 O 0.6687(5) 0.9695(4) 0.2064(3)
loop_
_geom_bond_atom_site_label_1
_geom_bond_atom_site_label_2
_geom_bond_site_symmetry_1
_geom_bond_site_symmetry_2
Ag1 N5 1_555 1_555
Ag2 N8 1_555 1_555
C1 C2 1_555 1_555
C2 C5 1_555 1_555
C3 C1 1_555 1_555
C4 C1 1_555 1_555
H1 C4 1_555 1_555
H2 C4 1_555 1_555
C5 H3 1_555 1_555
H4 C5 1_555 1_555
C6 C3 1_555 1_555
H5 C6 1_555 1_555
H6 C6 1_555 1_555
C7 H7 1_555 1_555
C8 C7 1_555 1_555
H8 C8 1_555 1_555
C9 C8 1_555 1_555
C10 C9 1_555 1_555
C11 C10 1_555 1_555
H9 C11 1_555 1_555
C12 C11 1_555 1_555
H10 C12 1_555 1_555
C13 C12 1_555 1_555
H11 C13 1_555 1_555
C14 C13 1_555 1_555
H12 C14 1_555 1_555
C15 H13 1_555 1_555
C16 C15 1_555 1_555
H14 C16 1_555 1_555
C17 C16 1_555 1_555
C18 C17 1_555 1_555
C19 C18 1_555 1_555
H15 C19 1_555 1_555
C20 C19 1_555 1_555
H16 C20 1_555 1_555
C21 C20 1_555 1_555
H17 C21 1_555 1_555
C22 C21 1_555 1_555
H18 C22 1_555 1_555
C23 H19 1_555 1_555
C24 C23 1_555 1_555
H20 C24 1_555 1_555
C25 C24 1_555 1_555
C26 C25 1_555 1_555
C27 C26 1_555 1_555
H21 C27 1_555 1_555
C28 C27 1_555 1_555
H22 C28 1_555 1_555
C29 C28 1_555 1_555
H23 C29 1_555 1_555
C30 C29 1_555 1_555
H24 C30 1_555 1_555
C31 C32 1_555 1_555
C32 C33 1_555 1_555
C33 H25 1_555 1_555
C34 C33 1_555 1_555
C35 C34 1_555 1_555
C36 C37 1_555 1_555
C37 C38 1_555 1_555
C38 H26 1_555 1_555
C39 C38 1_555 1_555
C40 C39 1_555 1_555
C41 H27 1_555 1_555
H28 C41 1_555 1_555
H29 C41 1_555 1_555
C42 H30 1_555 1_555
H31 C42 1_555 1_555
H32 C42 1_555 1_555
N1 C4 1_555 1_555
N2 C9 1_555 1_555
N3 C10 1_555 1_555
N4 C5 1_555 1_555
N5 C17 1_555 1_555
N6 Ag1 1_555 1_555
N7 C6 1_555 1_555
N8 C25 1_555 1_555
N9 Ag2 1_555 1_555
O1 Ag1 1_555 1_555
O2 C31 1_555 1_555
O3 C35 1_555 1_555
O4 C35 1_555 1_555
O5 Ag2 1_555 1_555
O6 C36 1_555 1_555
O7 C40 1_555 1_555
O8 C40 1_555 1_555
C1A C2A 1_555 1_555
C2A C3 1_555 1_555
C3A C2 1_555 1_555
C4A C1A 1_555 1_555
H1A C4A 1_555 1_555
H2A C4A 1_555 1_555
C5A C2A 1_555 1_555
H3A C5A 1_555 1_555
H4A C5A 1_555 1_555
C6A C3A 1_555 1_555
H5A C6A 1_555 1_555
H6A C6A 1_555 1_555
C7A H7A 1_555 1_555
C8A C7A 1_555 1_555
H8A C8A 1_555 1_555
C9A C8A 1_555 1_555
C10A C9A 1_555 1_555
C11A C10A 1_555 1_555
H9A C11A 1_555 1_555
C12A C11A 1_555 1_555
H10A C12A 1_555 1_555
C13A C12A 1_555 1_555
H11A C13A 1_555 1_555
C14A C13A 1_555 1_555
H12A C14A 1_555 1_555
C15A H13A 1_555 1_555
C16A C15A 1_555 1_555
H14A C16A 1_555 1_555
C17A C16A 1_555 1_555
C18A C17A 1_555 1_555
C19A C18A 1_555 1_555
H15A C19A 1_555 1_555
C20A C19A 1_555 1_555
H16A C20A 1_555 1_555
C21A C20A 1_555 1_555
H17A C21A 1_555 1_555
C22A C21A 1_555 1_555
H18A C22A 1_555 1_555
C23A H19A 1_555 1_555
C24A C23A 1_555 1_555
H20A C24A 1_555 1_555
C25A C24A 1_555 1_555
C26A C25A 1_555 1_555
C27A C26A 1_555 1_555
H21A C27A 1_555 1_555
C28A C27A 1_555 1_555
H22A C28A 1_555 1_555
C29A C28A 1_555 1_555
H23A C29A 1_555 1_555
C30A C29A 1_555 1_555
H24A C30A 1_555 1_555
N1A C4A 1_555 1_555
N2A C9A 1_555 1_555
N3A C10A 1_555 1_555
N4A C5A 1_555 1_555
N5A C17A 1_555 1_555
N6A C18A 1_555 1_555
N7A C6A 1_555 1_555
N8A C25A 1_555 1_555
N9A C26A 1_555 1_555
C31A C32A 1_555 1_555
C32A C34 1_555 1_555
C33A C32A 1_555 1_555
H25A C33A 1_555 1_555
C34A C32 1_555 1_555
C35A C34A 1_555 1_555
C42A H30A 1_555 1_555
H31A C42A 1_555 1_555
H32A C42A 1_555 1_555
O1A C31A 1_555 1_555
O2A C31A 1_555 1_555
O3A C35A 1_555 1_555
O4A C35A 1_555 1_555
C36A C37A 1_555 1_555
C37A C39 1_555 1_555
C38A C37A 1_555 1_555
H26A C38A 1_555 1_555
C39A C37 1_555 1_555
C40A C39A 1_555 1_555
C41A H27A 1_555 1_555
H28A C41A 1_555 1_555
H29A C41A 1_555 1_555
O5A C36A 1_555 1_555
O6A C36A 1_555 1_555
O7A C40A 1_555 1_555
O8A C40A 1_555 1_555
Ag1A O1A 1_555 1_555
Ag2A N8A 1_555 1_555
Ag1_2 O6A 1_555 1_555
Ag1A_2 O6 1_555 1_555
Ag2A_2 O5A 1_555 1_555
N5A_2 Ag1A 1_555 1_555
N6A_2 Ag1A 1_555 1_555
O5A_2 Ag2A 1_555 1_555
O6_2 Ag1A 1_555 1_555
O6A_2 Ag1 1_555 1_555
C7 N1 1_555 1_555
C14 N3 1_555 1_555
C15 N4 1_555 1_555
C18 N6 1_555 1_555
C22 N6 1_555 1_555
C23 N7 1_555 1_555
C26 N9 1_555 1_555
C30 N9 1_555 1_555
C31 O1 1_555 1_555
C36 O5 1_555 1_555
C41 O8 1_555 1_555
C42 O4 1_555 1_555
N1 N2 1_555 1_555
N4 N5 1_555 1_555
N7 N8 1_555 1_555
C1A C3A 1_555 1_555
C7A N1A 1_555 1_555
C14A N3A 1_555 1_555
C15A N4A 1_555 1_555
C22A N6A 1_555 1_555
C23A N7A 1_555 1_555
C30A N9A 1_555 1_555
N1A N2A 1_555 1_555
N4A N5A 1_555 1_555
N5A Ag1A_2 1_555 1_555
N6A Ag1A_2 1_555 1_555
N7A N8A 1_555 1_555
N9A Ag2A 1_555 1_555
C33A C34A 1_555 1_555
C42A O4A 1_555 1_555
C38A C39A 1_555 1_555
C41A O8A 1_555 1_555

#END
