
#######################################################################
#
#                 Cambridge Crystallographic Data Centre
#                                CCDC 
#
#######################################################################
#
# If this CIF has been generated from an entry in the Cambridge 
# Structural Database, then it will include bibliographic, chemical, 
# crystal, experimental, refinement or atomic coordinate data resulting 
# from the CCDC's data processing and validation procedures.
#
#######################################################################

data_DIZQAG
_symmetry_cell_setting           monoclinic
_symmetry_space_group_name_H-M   'C 2/m'
_symmetry_Int_Tables_number      12
_space_group_name_Hall           '-C 2y'
loop_
_symmetry_equiv_pos_site_id
_symmetry_equiv_pos_as_xyz
1 x,y,z
2 -x,y,-z
3 1/2+x,1/2+y,z
4 1/2-x,1/2+y,-z
5 -x,-y,-z
6 x,-y,z
7 1/2-x,1/2-y,-z
8 1/2+x,1/2-y,z
_cell_length_a                   18.9198(11)
_cell_length_b                   18.8335(14)
_cell_length_c                   12.6671(8)
_cell_angle_alpha                90
_cell_angle_beta                 92.396(3)
_cell_angle_gamma                90
_cell_volume                     4509.67
loop_
_atom_site_label
_atom_site_type_symbol
_atom_site_fract_x
_atom_site_fract_y
_atom_site_fract_z
Cu1 Cu -0.069511(17) 0.5000 0.48166(2)
Cu2 Cu 0.292126(12) 0.279211(12) 0.075686(18)
O1 O -0.18035(12) 0.5000 0.44729(18)
H1 H -0.2014 0.4625 0.4259
O2 O 0.35618(10) 0.32263(10) 0.20096(14)
H2 H 0.3410 0.3258 0.2635
H3 H 0.3826 0.3586 0.1910
O3 O -0.04581(7) 0.42496(8) 0.38024(11)
O4 O 0.07267(7) 0.42703(8) 0.40801(11)
O5 O 0.13219(8) 0.23541(8) 0.02453(12)
O6 O 0.20270(8) 0.28723(9) 0.15001(12)
O7 O 0.08870(7) 0.33552(8) 0.24797(11)
O8 O 0.30370(8) 0.18019(8) 0.12149(12)
O9 O 0.23266(8) 0.13080(8) -0.00610(12)
O10 O 0.26677(11) 0.0000 0.06249(15)
C1 C 0.01644(11) 0.40471(11) 0.36286(15)
C2 C 0.02250(11) 0.35042(11) 0.28031(16)
C3 C -0.02697(11) 0.31178(12) 0.22434(17)
H4 H -0.0766 0.3119 0.2327
C4 C 0.01079(12) 0.27114(12) 0.15074(17)
H5 H -0.0088 0.2388 0.0999
C5 C 0.08012(11) 0.28751(11) 0.16720(16)
C6 C 0.14372(11) 0.26823(11) 0.11023(16)
C7 C 0.27551(10) 0.12845(10) 0.07241(16)
C8 C 0.29657(11) 0.05763(11) 0.11194(16)
C9 C 0.34370(13) 0.03751(11) 0.18910(18)
H6 H 0.3714 0.0678 0.2344
H1E H -0.2014 0.5375 0.4259
O8E O 0.30370(8) -0.18019(8) 0.12149(12)
O9E O 0.23266(8) -0.13080(8) -0.00610(12)
C7E C 0.27551(10) -0.12845(10) 0.07241(16)
C8E C 0.29657(11) -0.05763(11) 0.11194(16)
C9E C 0.34370(13) -0.03751(11) 0.18910(18)
H6E H 0.3714 -0.0678 0.2344
Cu2A Cu -0.292126(12) 0.279211(12) 0.924314(18)
O2A O -0.35618(10) 0.32263(10) 0.79904(14)
H2A H -0.3410 0.3258 0.7365
H3A H -0.3826 0.3586 0.8090
O3A O 0.04581(7) 0.42496(8) 0.61976(11)
O4A O -0.07267(7) 0.42703(8) 0.59199(11)
O5A O -0.13219(8) 0.23541(8) 0.97547(12)
O6A O -0.20270(8) 0.28723(9) 0.84999(12)
O7A O -0.08870(7) 0.33552(8) 0.75203(11)
C1A C -0.01644(11) 0.40471(11) 0.63714(15)
C2A C -0.02250(11) 0.35042(11) 0.71969(16)
C3A C 0.02697(11) 0.31178(12) 0.77566(17)
H4A H 0.0766 0.3119 0.7673
C4A C -0.01079(12) 0.27114(12) 0.84926(17)
H5A H 0.0088 0.2388 0.9001
C5A C -0.08012(11) 0.28751(11) 0.83280(16)
C6A C -0.14372(11) 0.26823(11) 0.88977(16)
Cu1A Cu 0.069511(17) 0.5000 0.51834(2)
Cu2C Cu 0.207874(12) -0.220789(12) -0.075686(18)
Cu2E Cu 0.292126(12) -0.279211(12) 0.075686(18)
Cu2F Cu 0.207874(12) 0.220789(12) -0.075686(18)
Cu2G Cu -0.207874(12) 0.220789(12) 1.075686(18)
O3E O -0.04581(7) 0.57504(8) 0.38024(11)
O4D O -0.07267(7) 0.57297(8) 0.59199(11)
O5F O 0.36781(8) 0.26459(8) -0.02453(12)
O5G O -0.36781(8) 0.26459(8) 1.02453(12)
O8A O -0.30370(8) 0.18019(8) 0.87851(12)
O9F O 0.26734(8) 0.36920(8) 0.00610(12)
O9G O -0.26734(8) 0.36920(8) 0.99390(12)
loop_
_geom_bond_atom_site_label_1
_geom_bond_atom_site_label_2
_geom_bond_site_symmetry_1
_geom_bond_site_symmetry_2
Cu1 O1 1_555 1_555
Cu2 O2 1_555 1_555
O1 H1 1_555 1_555
O2 H2 1_555 1_555
H3 O2 1_555 1_555
O3 Cu1 1_555 1_555
O4 C1 1_555 1_555
O5 C6 1_555 1_555
O6 Cu2 1_555 1_555
O7 C2 1_555 1_555
O8 Cu2 1_555 1_555
O9 C7 1_555 1_555
O10 C8 1_555 1_555
C1 O3 1_555 1_555
C2 C1 1_555 1_555
C3 C2 1_555 1_555
H4 C3 1_555 1_555
C4 C3 1_555 1_555
H5 C4 1_555 1_555
C5 O7 1_555 1_555
C6 O6 1_555 1_555
C7 O8 1_555 1_555
C8 C7 1_555 1_555
C9 C8 1_555 1_555
H6 C9 1_555 1_555
H1E O1 1_555 1_555
O8E C7E 1_555 1_555
O9E C7E 1_555 1_555
C7E C8E 1_555 1_555
C8E O10 1_555 1_555
C9E C9 1_555 1_555
H6E C9E 1_555 1_555
Cu2A O2A 1_555 1_555
O2A H2A 1_555 1_555
H3A O2A 1_555 1_555
O3A C1A 1_555 1_555
O4A Cu1 1_555 1_555
O5A C6A 1_555 1_555
O6A Cu2A 1_555 1_555
O7A C2A 1_555 1_555
C1A O4A 1_555 1_555
C2A C1A 1_555 1_555
C3A C2A 1_555 1_555
H4A C3A 1_555 1_555
C4A C3A 1_555 1_555
H5A C4A 1_555 1_555
C5A O7A 1_555 1_555
C6A O6A 1_555 1_555
Cu1A Cu1 1_555 1_555
Cu2C O9E 1_555 1_555
Cu2E O8E 1_555 1_555
Cu2F Cu2 1_555 1_555
Cu2G Cu2A 1_555 1_555
O3E Cu1 1_555 1_555
O4D Cu1 1_555 1_555
O5F Cu2 1_555 1_555
O5G Cu2A 1_555 1_555
O8A Cu2A 1_555 1_555
O9F Cu2 1_555 1_555
O9G Cu2A 1_555 1_555
O4 Cu1A 1_555 1_555
O5 Cu2F 1_555 1_555
O9 Cu2F 1_555 1_555
C4 C5 1_555 1_555
C5 C6 1_555 1_555
C8E C9E 1_555 1_555
O3A Cu1A 1_555 1_555
O5A Cu2G 1_555 1_555
C4A C5A 1_555 1_555
C5A C6A 1_555 1_555
Cu2C Cu2E 1_555 1_555

#END
