
#######################################################################
#
#                 Cambridge Crystallographic Data Centre
#                                CCDC 
#
#######################################################################
#
# If this CIF has been generated from an entry in the Cambridge 
# Structural Database, then it will include bibliographic, chemical, 
# crystal, experimental, refinement or atomic coordinate data resulting 
# from the CCDC's data processing and validation procedures.
#
#######################################################################

data_DIZQIN
_symmetry_cell_setting           monoclinic
_symmetry_space_group_name_H-M   'P 21/c'
_symmetry_Int_Tables_number      14
_space_group_name_Hall           '-P 2ybc'
loop_
_symmetry_equiv_pos_site_id
_symmetry_equiv_pos_as_xyz
1 x,y,z
2 -x,1/2+y,1/2-z
3 -x,-y,-z
4 x,1/2-y,1/2+z
_cell_length_a                   25.0790(12)
_cell_length_b                   14.1150(7)
_cell_length_c                   29.6222(13)
_cell_angle_alpha                90
_cell_angle_beta                 106.387(4)
_cell_angle_gamma                90
_cell_volume                     10060
loop_
_atom_site_label
_atom_site_type_symbol
_atom_site_fract_x
_atom_site_fract_y
_atom_site_fract_z
Li1 Li 0.2423(4) 0.5312(8) 0.2365(3)
Li2 Li 0.2555(4) 0.0327(8) 0.2551(3)
Si1 Si 0.05217(7) 0.36889(15) 0.29631(6)
Si2 Si 0.11639(7) 0.74944(13) 0.11464(6)
Si3 Si 0.07965(7) 0.16734(13) 0.04340(5)
Si4 Si 0.31274(7) 0.34889(16) 0.07911(6)
Si5 Si 0.16974(9) 0.91788(18) 0.41622(7)
Si6 Si 0.47432(7) 0.87253(19) 0.24210(6)
Si7 Si 0.45709(7) 0.64638(14) 0.41258(6)
Si8 Si 0.39368(8) 1.25752(14) 0.39190(6)
Al1 Al 0.16611(6) 0.41406(12) 0.17250(5)
Al2 Al 0.32459(6) 0.92520(12) 0.32719(5)
F1 F 0.21008(13) 0.3332(3) 0.29852(12)
F2 F 0.24552(12) 0.4726(2) 0.30636(10)
F3 F 0.19313(13) 0.4293(3) 0.34858(10)
F4 F 0.17453(13) 0.6220(2) 0.27592(11)
F5 F 0.12389(14) 0.5695(3) 0.31825(11)
F6 F 0.08870(12) 0.5899(3) 0.24385(11)
F7 F 0.02524(13) 0.5311(3) 0.15112(11)
F8 F -0.00129(13) 0.6069(3) 0.08609(13)
F9 F 0.00026(13) 0.4551(3) 0.08609(12)
F10 F 0.06956(14) 0.4508(3) 0.03177(11)
F11 F 0.06310(14) 0.6022(3) 0.02854(11)
F12 F 0.14350(13) 0.5357(3) 0.05287(11)
F13 F 0.10782(13) 0.1676(2) 0.21046(10)
F14 F 0.05663(12) 0.2566(3) 0.15606(11)
F15 F 0.06805(13) 0.1092(2) 0.14198(11)
F16 F 0.16931(14) 0.0527(2) 0.14175(12)
F17 F 0.23075(13) 0.1584(3) 0.14185(10)
F18 F 0.21090(13) 0.1254(2) 0.20581(10)
F19 F 0.30369(14) 0.3209(3) 0.20333(11)
F20 F 0.36907(12) 0.4003(3) 0.18774(11)
F21 F 0.32817(13) 0.4554(3) 0.23711(10)
F22 F 0.25840(14) 0.5997(3) 0.11218(11)
F23 F 0.34442(13) 0.5644(3) 0.14278(13)
F24 F 0.29497(13) 0.6141(2) 0.18635(11)
F25 F 0.16464(16) 0.9706(3) 0.25113(12)
F26 F 0.17759(16) 0.8416(3) 0.29120(13)
F27 F 0.11615(15) 0.9417(4) 0.29949(17)
F28 F 0.20425(15) 1.1342(3) 0.29615(11)
F29 F 0.23331(16) 1.1294(3) 0.37149(12)
F30 F 0.14698(16) 1.1062(3) 0.33593(13)
F31 F 0.31385(13) 0.7520(3) 0.41476(10)
F32 F 0.25355(12) 0.6904(3) 0.35565(10)
F33 F 0.31964(14) 0.6047(3) 0.39741(12)
F34 F 0.28805(12) 0.6407(2) 0.27886(10)
F35 F 0.35499(13) 0.5614(2) 0.32488(11)
F36 F 0.37317(12) 0.6717(2) 0.28185(10)
F37 F 0.33343(13) 1.1176(2) 0.21694(11)
F38 F 0.41434(13) 1.1003(2) 0.26575(11)
F39 F 0.40003(13) 1.0580(3) 0.19331(10)
F40 F 0.31054(13) 0.8241(3) 0.21084(11)
F41 F 0.34201(14) 0.9050(3) 0.16301(10)
F42 F 0.27350(13) 0.9577(3) 0.18558(11)
F43 F 0.4057(2) 0.9573(3) 0.47205(13)
F44 F 0.41926(17) 1.1068(3) 0.47656(11)
F45 F 0.33768(18) 1.0518(3) 0.44442(12)
F46 F 0.48191(16) 0.9406(3) 0.42387(19)
F47 F 0.47412(14) 1.0280(4) 0.36360(13)
F48 F 0.49660(14) 1.0877(3) 0.43237(13)
O1 O 0.25930(14) 0.9803(3) 0.31661(12)
O2 O 0.11154(14) 0.4489(3) 0.12607(12)
O3 O 0.16943(14) 0.2927(3) 0.17455(11)
O4 O 0.37494(15) 0.9576(3) 0.37714(12)
O5 O 0.16982(14) 0.4678(3) 0.22686(11)
O6 O 0.32084(14) 0.8042(3) 0.32419(12)
O7 O 0.32960(14) 0.9767(3) 0.27403(11)
O8 O 0.23018(14) 0.4691(3) 0.17474(12)
C1 C 0.1491(2) 0.4595(4) 0.26592(18)
C2 C 0.1990(2) 0.4229(5) 0.30558(19)
C3 C 0.1339(2) 0.5595(5) 0.27651(19)
C4 C 0.0992(2) 0.3924(5) 0.25743(18)
H1 H 0.1138 0.3294 0.2522
H2 H 0.0740 0.4118 0.2267
C5 C 0.0096(3) 0.2667(6) 0.2668(3)
H3 H -0.0176 0.2503 0.2836
H4 H 0.0339 0.2123 0.2669
H5 H -0.0098 0.2838 0.2342
C6 C 0.0913(3) 0.3336(6) 0.3572(2)
H6 H 0.1065 0.3902 0.3754
H7 H 0.1218 0.2911 0.3560
H8 H 0.0663 0.3009 0.3721
C7 C 0.0059(3) 0.4709(6) 0.2967(3)
H9 H -0.0100 0.4938 0.2644
H10 H 0.0272 0.5218 0.3160
H11 H -0.0242 0.4510 0.3097
C8 C 0.0880(2) 0.5334(4) 0.10553(18)
C9 C 0.0273(2) 0.5318(5) 0.1067(2)
C10 C 0.0905(2) 0.5307(5) 0.0544(2)
C11 C 0.1193(2) 0.6202(4) 0.13080(19)
H12 H 0.1590 0.6032 0.1367
H13 H 0.1123 0.6193 0.1620
C12 C 0.1633(3) 0.8027(5) 0.1693(3)
H14 H 0.1674 0.8707 0.1645
H15 H 0.1998 0.7721 0.1766
H16 H 0.1472 0.7932 0.1955
C13 C 0.1456(3) 0.7735(5) 0.0645(3)
H17 H 0.1205 0.7482 0.0355
H18 H 0.1820 0.7431 0.0705
H19 H 0.1496 0.8421 0.0613
C14 C 0.0467(3) 0.8023(5) 0.1041(2)
H20 H 0.0497 0.8715 0.1037
H21 H 0.0307 0.7832 0.1293
H22 H 0.0228 0.7804 0.0738
C15 C 0.1439(2) 0.2159(4) 0.14728(17)
C16 C 0.1264(2) 0.2366(4) 0.09387(16)
H23 H 0.1619 0.2433 0.0857
H24 H 0.1100 0.3009 0.0909
C17 C 0.0938(2) 0.1864(4) 0.16402(18)
C18 C 0.1882(2) 0.1365(5) 0.15858(17)
C19 C 0.0056(2) 0.1944(6) 0.0393(2)
H25 H -0.0185 0.1658 0.0106
H26 H 0.0001 0.2632 0.0382
H27 H -0.0036 0.1685 0.0668
C20 C 0.0915(3) 0.0376(5) 0.0441(2)
H28 H 0.0808 0.0092 0.0705
H29 H 0.1309 0.0250 0.0477
H30 H 0.0690 0.0100 0.0145
C21 C 0.0979(3) 0.2178(5) -0.00864(18)
H31 H 0.1371 0.2053 -0.0058
H32 H 0.0913 0.2863 -0.0100
H33 H 0.0747 0.1882 -0.0375
C22 C 0.2756(2) 0.4576(4) 0.15650(18)
C23 C 0.2621(2) 0.3993(4) 0.11124(18)
H34 H 0.2354 0.4383 0.0875
H35 H 0.2408 0.3441 0.1173
C24 C 0.2937(2) 0.5575(5) 0.1491(2)
C25 C 0.3196(2) 0.4075(5) 0.19584(19)
C26 C 0.3684(3) 0.4272(6) 0.0745(2)
H36 H 0.3879 0.3990 0.0534
H37 H 0.3946 0.4362 0.1058
H38 H 0.3528 0.4886 0.0620
C27 C 0.3447(3) 0.2375(5) 0.1079(3)
H39 H 0.3670 0.2087 0.0892
H40 H 0.3154 0.1934 0.1101
H41 H 0.3685 0.2517 0.1396
C28 C 0.2649(3) 0.3199(6) 0.0208(2)
H42 H 0.2481 0.3783 0.0052
H43 H 0.2357 0.2775 0.0247
H44 H 0.2857 0.2886 0.0015
C29 C 0.2117(2) 0.9818(4) 0.33236(19)
C30 C 0.1670(3) 0.9322(6) 0.2935(2)
C31 C 0.1983(3) 1.0874(5) 0.3342(2)
C32 C 0.2203(2) 0.9330(5) 0.3798(2)
H45 H 0.2531 0.9646 0.4011
H46 H 0.2325 0.8679 0.3752
C33 C 0.2183(4) 0.8761(8) 0.4739(3)
H47 H 0.1975 0.8690 0.4972
H48 H 0.2480 0.9228 0.4852
H49 H 0.2345 0.8150 0.4692
C34 C 0.1173(5) 0.8310(7) 0.3898(4)
H50 H 0.0951 0.8169 0.4115
H51 H 0.1352 0.7729 0.3834
H52 H 0.0930 0.8561 0.3603
C35 C 0.1370(3) 1.0271(6) 0.4283(2)
H53 H 0.1071 1.0451 0.4004
H54 H 0.1648 1.0778 0.4361
H55 H 0.1216 1.0169 0.4548
C36 C 0.3437(2) 0.7225(4) 0.34746(18)
C37 C 0.3079(2) 0.6911(4) 0.37921(19)
C38 C 0.3404(2) 0.6485(4) 0.30919(19)
C39 C 0.4049(2) 0.7341(4) 0.37688(18)
H56 H 0.4038 0.7854 0.3994
H57 H 0.4236 0.7617 0.3546
C40 C 0.5176(2) 0.7210(5) 0.4409(2)
H58 H 0.5066 0.7699 0.4599
H59 H 0.5316 0.7512 0.4166
H60 H 0.5470 0.6816 0.4611
C41 C 0.4814(3) 0.5617(6) 0.3740(3)
H61 H 0.5140 0.5272 0.3929
H62 H 0.4913 0.5969 0.3490
H63 H 0.4516 0.5167 0.3600
C42 C 0.4346(3) 0.5836(6) 0.4580(3)
H64 H 0.4662 0.5494 0.4786
H65 H 0.4052 0.5384 0.4431
H66 H 0.4203 0.6293 0.4766
C43 C 0.3619(2) 0.9598(4) 0.24296(17)
C44 C 0.4130(2) 0.8994(4) 0.26477(17)
H67 H 0.3981 0.8367 0.2700
H68 H 0.4292 0.9267 0.2965
C45 C 0.3776(2) 1.0588(5) 0.22960(19)
C46 C 0.3226(2) 0.9117(5) 0.19997(19)
C47 C 0.5127(2) 0.7835(5) 0.2857(2)
H69 H 0.4887 0.7286 0.2855
H70 H 0.5235 0.8119 0.3172
H71 H 0.5461 0.7632 0.2774
C48 C 0.5192(3) 0.9820(8) 0.2472(4)
H72 H 0.5531 0.9663 0.2386
H73 H 0.5291 1.0053 0.2797
H74 H 0.4986 1.0312 0.2260
C49 C 0.4564(4) 0.8247(12) 0.1827(3)
H75 H 0.4905 0.8133 0.1735
H76 H 0.4329 0.8701 0.1609
H77 H 0.4363 0.7649 0.1817
C50 C 0.4018(2) 1.0379(4) 0.39995(19)
C51 C 0.3806(2) 1.1292(4) 0.37347(17)
H78 H 0.3397 1.1228 0.3640
H79 H 0.3917 1.1244 0.3440
C52 C 0.4632(3) 1.0239(5) 0.4054(2)
C53 C 0.3920(3) 1.0373(6) 0.4489(2)
C54 C 0.4676(3) 1.2905(6) 0.4197(2)
H80 H 0.4702 1.3589 0.4256
H81 H 0.4900 1.2734 0.3986
H82 H 0.4815 1.2565 0.4496
C55 C 0.3684(3) 1.3180(5) 0.3338(3)
H83 H 0.3306 1.2967 0.3179
H84 H 0.3930 1.3025 0.3144
H85 H 0.3683 1.3867 0.3386
C56 C 0.3508(3) 1.2945(6) 0.4308(3)
H86 H 0.3628 1.2595 0.4605
H87 H 0.3116 1.2808 0.4153
H88 H 0.3556 1.3626 0.4371
Li2_2 Li 0.2555(4) 1.0327(8) 0.2551(3)
F25_2 F 0.16464(16) -0.0294(3) 0.25113(12)
F28_2 F 0.20425(15) 0.1342(3) 0.29615(11)
F37_2 F 0.33343(13) 0.1176(2) 0.21694(11)
F42_2 F 0.27350(13) -0.0423(3) 0.18558(11)
O1_2 O 0.25930(14) -0.0197(3) 0.31661(12)
O7_2 O 0.32960(14) -0.0233(3) 0.27403(11)
C57 C 0.1999(11) 0.495(3) 0.4689(11)
C58 C 0.2530(12) 0.461(2) 0.5057(10)
C59 C 0.2964(12) 0.530(2) 0.5107(12)
C60 C 0.3205(10) 0.6170(18) 0.5339(8)
C61 C 0.3239(13) 0.707(2) 0.5577(11)
C62 C 0.3690(11) 0.763(2) 0.5489(9)
C63? C 0.1209(11) 0.569(2) 0.4358(9)
C64? C 0.1829(12) 0.561(3) 0.4478(12)
C65? C 0.2297(13) 0.551(3) 0.4909(11)
C66? C 0.2807(18) 0.576(3) 0.5305(16)
C67? C 0.3121(11) 0.485(3) 0.5490(16)
C68? C 0.3712(9) 0.5209(17) 0.5567(7)
loop_
_geom_bond_atom_site_label_1
_geom_bond_atom_site_label_2
_geom_bond_site_symmetry_1
_geom_bond_site_symmetry_2
Li1 F2 1_555 1_555
Li2 F18 1_555 1_555
Si1 C4 1_555 1_555
Si2 C11 1_555 1_555
Si3 C16 1_555 1_555
Si4 C23 1_555 1_555
Si5 C32 1_555 1_555
Si6 C44 1_555 1_555
Si7 C39 1_555 1_555
Si8 C51 1_555 1_555
Al1 O2 1_555 1_555
Al2 O1 1_555 1_555
F1 C2 1_555 1_555
F2 C2 1_555 1_555
F3 C2 1_555 1_555
F4 Li1 1_555 1_555
F5 C3 1_555 1_555
F6 C3 1_555 1_555
F7 C9 1_555 1_555
F8 C9 1_555 1_555
F9 C9 1_555 1_555
F10 C10 1_555 1_555
F11 C10 1_555 1_555
F12 C10 1_555 1_555
F13 C17 1_555 1_555
F14 C17 1_555 1_555
F15 C17 1_555 1_555
F16 C18 1_555 1_555
F17 C18 1_555 1_555
F18 C18 1_555 1_555
F19 C25 1_555 1_555
F20 C25 1_555 1_555
F21 Li1 1_555 1_555
F22 C24 1_555 1_555
F23 C24 1_555 1_555
F24 Li1 1_555 1_555
F25 C30 1_555 1_555
F26 C30 1_555 1_555
F27 C30 1_555 1_555
F28 C31 1_555 1_555
F29 C31 1_555 1_555
F30 C31 1_555 1_555
F31 C37 1_555 1_555
F32 C37 1_555 1_555
F33 C37 1_555 1_555
F34 Li1 1_555 1_555
F35 C38 1_555 1_555
F36 C38 1_555 1_555
F37 C45 1_555 1_555
F38 C45 1_555 1_555
F39 C45 1_555 1_555
F40 C46 1_555 1_555
F41 C46 1_555 1_555
F42 C46 1_555 1_555
F43 C53 1_555 1_555
F44 C53 1_555 1_555
F45 C53 1_555 1_555
F46 C52 1_555 1_555
F47 C52 1_555 1_555
F48 C52 1_555 1_555
O1 C29 1_555 1_555
O2 C8 1_555 1_555
O3 Al1 1_555 1_555
O4 Al2 1_555 1_555
O5 Li1 1_555 1_555
O6 Al2 1_555 1_555
O7 Al2 1_555 1_555
O8 Li1 1_555 1_555
C1 O5 1_555 1_555
C2 C1 1_555 1_555
C3 F4 1_555 1_555
C4 C1 1_555 1_555
H1 C4 1_555 1_555
H2 C4 1_555 1_555
C5 Si1 1_555 1_555
H3 C5 1_555 1_555
H4 C5 1_555 1_555
H5 C5 1_555 1_555
C6 Si1 1_555 1_555
H6 C6 1_555 1_555
H7 C6 1_555 1_555
H8 C6 1_555 1_555
C7 Si1 1_555 1_555
H9 C7 1_555 1_555
H10 C7 1_555 1_555
H11 C7 1_555 1_555
C8 C9 1_555 1_555
C10 C8 1_555 1_555
C11 C8 1_555 1_555
H12 C11 1_555 1_555
H13 C11 1_555 1_555
C12 Si2 1_555 1_555
H14 C12 1_555 1_555
H15 C12 1_555 1_555
H16 C12 1_555 1_555
C13 Si2 1_555 1_555
H17 C13 1_555 1_555
H18 C13 1_555 1_555
H19 C13 1_555 1_555
C14 Si2 1_555 1_555
H20 C14 1_555 1_555
H21 C14 1_555 1_555
H22 C14 1_555 1_555
C15 O3 1_555 1_555
C16 C15 1_555 1_555
H23 C16 1_555 1_555
H24 C16 1_555 1_555
C17 C15 1_555 1_555
C18 C15 1_555 1_555
C19 Si3 1_555 1_555
H25 C19 1_555 1_555
H26 C19 1_555 1_555
H27 C19 1_555 1_555
C20 Si3 1_555 1_555
H28 C20 1_555 1_555
H29 C20 1_555 1_555
H30 C20 1_555 1_555
C21 Si3 1_555 1_555
H31 C21 1_555 1_555
H32 C21 1_555 1_555
H33 C21 1_555 1_555
C22 O8 1_555 1_555
C23 C22 1_555 1_555
H34 C23 1_555 1_555
H35 C23 1_555 1_555
C24 F24 1_555 1_555
C25 F21 1_555 1_555
C26 Si4 1_555 1_555
H36 C26 1_555 1_555
H37 C26 1_555 1_555
H38 C26 1_555 1_555
C27 Si4 1_555 1_555
H39 C27 1_555 1_555
H40 C27 1_555 1_555
H41 C27 1_555 1_555
C28 Si4 1_555 1_555
H42 C28 1_555 1_555
H43 C28 1_555 1_555
H44 C28 1_555 1_555
C29 C30 1_555 1_555
C31 C29 1_555 1_555
C32 C29 1_555 1_555
H45 C32 1_555 1_555
H46 C32 1_555 1_555
C33 Si5 1_555 1_555
H47 C33 1_555 1_555
H48 C33 1_555 1_555
H49 C33 1_555 1_555
C34 Si5 1_555 1_555
H50 C34 1_555 1_555
H51 C34 1_555 1_555
H52 C34 1_555 1_555
C35 Si5 1_555 1_555
H53 C35 1_555 1_555
H54 C35 1_555 1_555
H55 C35 1_555 1_555
C36 O6 1_555 1_555
C37 C36 1_555 1_555
C38 F34 1_555 1_555
C39 C36 1_555 1_555
H56 C39 1_555 1_555
H57 C39 1_555 1_555
C40 Si7 1_555 1_555
H58 C40 1_555 1_555
H59 C40 1_555 1_555
H60 C40 1_555 1_555
C41 Si7 1_555 1_555
H61 C41 1_555 1_555
H62 C41 1_555 1_555
H63 C41 1_555 1_555
C42 Si7 1_555 1_555
H64 C42 1_555 1_555
H65 C42 1_555 1_555
H66 C42 1_555 1_555
C43 O7 1_555 1_555
C44 C43 1_555 1_555
H67 C44 1_555 1_555
H68 C44 1_555 1_555
C45 C43 1_555 1_555
C46 C43 1_555 1_555
C47 Si6 1_555 1_555
H69 C47 1_555 1_555
H70 C47 1_555 1_555
H71 C47 1_555 1_555
C48 Si6 1_555 1_555
H72 C48 1_555 1_555
H73 C48 1_555 1_555
H74 C48 1_555 1_555
C49 Si6 1_555 1_555
H75 C49 1_555 1_555
H76 C49 1_555 1_555
H77 C49 1_555 1_555
C50 O4 1_555 1_555
C51 C50 1_555 1_555
H78 C51 1_555 1_555
H79 C51 1_555 1_555
C52 C50 1_555 1_555
C53 C50 1_555 1_555
C54 Si8 1_555 1_555
H80 C54 1_555 1_555
H81 C54 1_555 1_555
H82 C54 1_555 1_555
C55 Si8 1_555 1_555
H83 C55 1_555 1_555
H84 C55 1_555 1_555
H85 C55 1_555 1_555
C56 Si8 1_555 1_555
H86 C56 1_555 1_555
H87 C56 1_555 1_555
H88 C56 1_555 1_555
C57 C58 1_555 1_555
C58 C59 1_555 1_555
C59 C60 1_555 1_555
C60 C61 1_555 1_555
C61 C62 1_555 1_555
Li2_2 F25 1_555 1_555
F25_2 Li2 1_555 1_555
F28_2 Li2 1_555 1_555
F37_2 Li2 1_555 1_555
F42_2 Li2 1_555 1_555
O1_2 Li2 1_555 1_555
O7_2 Li2 1_555 1_555
Al1 O5 1_555 1_555
Al1 O8 1_555 1_555
F28 Li2_2 1_555 1_555
F37 Li2_2 1_555 1_555
F42 Li2_2 1_555 1_555
O1 Li2_2 1_555 1_555
O7 Li2_2 1_555 1_555
C1 C3 1_555 1_555
C22 C24 1_555 1_555
C22 C25 1_555 1_555
C36 C38 1_555 1_555

#END
