
#######################################################################
#
#                 Cambridge Crystallographic Data Centre
#                                CCDC 
#
#######################################################################
#
# If this CIF has been generated from an entry in the Cambridge 
# Structural Database, then it will include bibliographic, chemical, 
# crystal, experimental, refinement or atomic coordinate data resulting 
# from the CCDC's data processing and validation procedures.
#
#######################################################################

data_DIZWUF
_symmetry_cell_setting           monoclinic
_symmetry_space_group_name_H-M   'P 21/c'
_symmetry_Int_Tables_number      14
_space_group_name_Hall           '-P 2ybc'
loop_
_symmetry_equiv_pos_site_id
_symmetry_equiv_pos_as_xyz
1 x,y,z
2 -x,1/2+y,1/2-z
3 -x,-y,-z
4 x,1/2-y,1/2+z
_cell_length_a                   12.730(4)
_cell_length_b                   14.872(5)
_cell_length_c                   11.539(4)
_cell_angle_alpha                90
_cell_angle_beta                 95.077(5)
_cell_angle_gamma                90
_cell_volume                     2176
loop_
_atom_site_label
_atom_site_type_symbol
_atom_site_fract_x
_atom_site_fract_y
_atom_site_fract_z
Cu1 Cu 0.39142(3) 0.05812(2) 0.70430(3)
O1 O 0.50449(17) 0.17441(14) 0.80310(18)
O2 O 0.50345(17) 0.11870(14) 0.62530(17)
O3 O 0.97393(18) 0.35036(16) 0.56433(19)
O4 O 1.2790(2) 0.51111(17) 1.0507(2)
O5 O 1.27095(17) 0.37555(14) 1.12291(18)
N1 N 0.31695(19) 0.02104(16) 0.8412(2)
N2 N 0.48892(19) -0.03938(16) 0.7639(2)
C1 C 0.5444(2) 0.16604(19) 0.7096(3)
C2 C 0.6489(2) 0.21053(18) 0.6953(2)
C3 C 0.7063(2) 0.1901(2) 0.6027(2)
H1 H 0.6798 0.1489 0.5470
C4 C 0.8026(3) 0.2303(2) 0.5922(2)
H2 H 0.8400 0.2169 0.5287
C5 C 0.8441(2) 0.29063(19) 0.6760(2)
C6 C 0.7864(2) 0.31146(19) 0.7690(2)
H3 H 0.8133 0.3521 0.8253
C7 C 0.6893(2) 0.27215(19) 0.7781(2)
H4 H 0.6507 0.2870 0.8401
C8 C 0.9462(2) 0.3356(2) 0.6610(3)
C9 C 1.0148(2) 0.3625(2) 0.7667(3)
C10 C 1.0627(3) 0.4461(2) 0.7703(3)
H5 H 1.0480 0.4863 0.7093
C11 C 1.1322(3) 0.4700(2) 0.8636(3)
H6 H 1.1626 0.5269 0.8661
C12 C 1.1571(2) 0.4099(2) 0.9536(3)
C13 C 1.1085(3) 0.3271(2) 0.9508(3)
H7 H 1.1245 0.2864 1.0109
C14 C 1.0361(3) 0.3041(2) 0.8591(3)
H8 H 1.0015 0.2490 0.8596
C15 C 1.2404(2) 0.4350(2) 1.0482(3)
C16 C 0.2274(3) 0.0565(2) 0.8732(3)
H9 H 0.1926 0.0997 0.8258
C17 C 0.1854(3) 0.0313(2) 0.9734(3)
H10 H 0.1234 0.0573 0.9945
C18 C 0.2370(3) -0.0334(3) 1.0425(3)
H11 H 0.2093 -0.0522 1.1103
C19 C 0.3293(3) -0.0699(2) 1.0109(3)
H12 H 0.3650 -0.1133 1.0571
C20 C 0.3680(2) -0.04075(18) 0.9090(2)
C21 C 0.4662(2) -0.07580(18) 0.8660(3)
C22 C 0.5303(2) -0.14099(19) 0.9207(3)
H13 H 0.5154 -0.1640 0.9924
C23 C 0.6163(3) -0.1714(2) 0.8679(3)
H14 H 0.6600 -0.2155 0.9034
C24 C 0.6371(3) -0.1362(2) 0.7624(3)
H15 H 0.6939 -0.1569 0.7245
C25 C 0.5723(3) -0.0694(2) 0.7135(3)
H16 H 0.5874 -0.0445 0.6430
Cu1C Cu 1.39142(3) 0.44188(2) 1.20430(3)
O4C O 0.2790(2) -0.01111(17) 0.5507(2)
O5C O 0.27095(17) 0.12445(14) 0.62291(18)
loop_
_geom_bond_atom_site_label_1
_geom_bond_atom_site_label_2
_geom_bond_site_symmetry_1
_geom_bond_site_symmetry_2
Cu1 O1 1_555 1_555
O1 C1 1_555 1_555
O2 Cu1 1_555 1_555
O3 C8 1_555 1_555
O4 C15 1_555 1_555
O5 C15 1_555 1_555
N1 Cu1 1_555 1_555
N2 Cu1 1_555 1_555
C1 O2 1_555 1_555
C2 C1 1_555 1_555
C3 C2 1_555 1_555
H1 C3 1_555 1_555
C4 C3 1_555 1_555
H2 C4 1_555 1_555
C5 C4 1_555 1_555
C6 C5 1_555 1_555
H3 C6 1_555 1_555
C7 C2 1_555 1_555
H4 C7 1_555 1_555
C8 C5 1_555 1_555
C9 C8 1_555 1_555
C10 C9 1_555 1_555
H5 C10 1_555 1_555
C11 C10 1_555 1_555
H6 C11 1_555 1_555
C12 C11 1_555 1_555
C13 C12 1_555 1_555
H7 C13 1_555 1_555
C14 C9 1_555 1_555
H8 C14 1_555 1_555
C15 C12 1_555 1_555
C16 N1 1_555 1_555
H9 C16 1_555 1_555
C17 C16 1_555 1_555
H10 C17 1_555 1_555
C18 C17 1_555 1_555
H11 C18 1_555 1_555
C19 C18 1_555 1_555
H12 C19 1_555 1_555
C20 N1 1_555 1_555
C21 N2 1_555 1_555
C22 C21 1_555 1_555
H13 C22 1_555 1_555
C23 C22 1_555 1_555
H14 C23 1_555 1_555
C24 C23 1_555 1_555
H15 C24 1_555 1_555
C25 N2 1_555 1_555
H16 C25 1_555 1_555
Cu1C O4 1_555 1_555
O4C Cu1 1_555 1_555
O5C Cu1 1_555 1_555
O5 Cu1C 1_555 1_555
C6 C7 1_555 1_555
C13 C14 1_555 1_555
C19 C20 1_555 1_555
C20 C21 1_555 1_555
C24 C25 1_555 1_555

#END
