
#######################################################################
#
#                 Cambridge Crystallographic Data Centre
#                                CCDC 
#
#######################################################################
#
# If this CIF has been generated from an entry in the Cambridge 
# Structural Database, then it will include bibliographic, chemical, 
# crystal, experimental, refinement or atomic coordinate data resulting 
# from the CCDC's data processing and validation procedures.
#
#######################################################################

data_DIZWOZ
_symmetry_cell_setting           monoclinic
_symmetry_space_group_name_H-M   'P 21/c'
_symmetry_Int_Tables_number      14
_space_group_name_Hall           '-P 2ybc'
loop_
_symmetry_equiv_pos_site_id
_symmetry_equiv_pos_as_xyz
1 x,y,z
2 -x,1/2+y,1/2-z
3 -x,-y,-z
4 x,1/2-y,1/2+z
_cell_length_a                   12.5078(17)
_cell_length_b                   15.142(2)
_cell_length_c                   11.4644(16)
_cell_angle_alpha                90
_cell_angle_beta                 93.421(2)
_cell_angle_gamma                90
_cell_volume                     2167.41
loop_
_atom_site_label
_atom_site_type_symbol
_atom_site_fract_x
_atom_site_fract_y
_atom_site_fract_z
Zn1 Zn 0.11756(3) 0.05015(2) 0.30419(3)
N1 N 0.02048(18) -0.05558(16) 0.2467(2)
N2 N 0.18297(18) 0.01904(16) 0.1472(2)
O1 O 0.22486(17) 0.00639(16) 0.43792(18)
O2 O 0.25363(17) 0.13763(15) 0.36629(19)
O3 O 0.53483(17) 0.13764(16) 0.93286(19)
O4 O 0.99479(17) 0.39317(14) 0.90075(18)
O5 O 1.00882(16) 0.34920(14) 0.72015(19)
C1 C -0.0608(3) -0.0897(2) 0.3028(3)
H1 H -0.0709 -0.0714 0.3788
C2 C -0.1298(3) -0.1509(2) 0.2514(4)
H2 H -0.1849 -0.1747 0.2925
C3 C -0.1160(3) -0.1765(2) 0.1382(3)
H3 H -0.1627 -0.2170 0.1014
C4 C -0.0329(2) -0.14179(19) 0.0795(3)
H4 H -0.0226 -0.1583 0.0028
C5 C 0.0350(2) -0.08175(18) 0.1372(3)
C6 C 0.1301(2) -0.04285(19) 0.0834(2)
C7 C 0.1631(3) -0.0685(2) -0.0242(3)
H5 H 0.1250 -0.1110 -0.0680
C8 C 0.2530(3) -0.0302(3) -0.0657(3)
H6 H 0.2771 -0.0473 -0.1375
C9 C 0.3069(3) 0.0332(3) -0.0005(3)
H7 H 0.3677 0.0600 -0.0273
C10 C 0.2693(3) 0.0563(2) 0.1047(3)
H8 H 0.3053 0.0999 0.1487
C11 C 0.2749(2) 0.0790(2) 0.4406(3)
C12 C 0.3576(2) 0.0960(2) 0.5382(3)
C13 C 0.3813(3) 0.0325(2) 0.6236(3)
H9 H 0.3504 -0.0233 0.6168
C14 C 0.4502(2) 0.0520(2) 0.7181(3)
H10 H 0.4647 0.0095 0.7755
C15 C 0.4983(2) 0.1345(2) 0.7285(3)
C16 C 0.4779(2) 0.1965(2) 0.6410(3)
H11 H 0.5121 0.2510 0.6453
C17 C 0.4069(2) 0.1775(2) 0.5473(3)
H12 H 0.3922 0.2200 0.4900
C18 C 0.5637(2) 0.1582(2) 0.8373(3)
C19 C 0.6649(2) 0.20921(19) 0.8265(2)
C20 C 0.6970(2) 0.2686(2) 0.9142(3)
H13 H 0.6542 0.2776 0.9767
C21 C 0.7917(2) 0.3140(2) 0.9087(2)
H14 H 0.8121 0.3543 0.9671
C22 C 0.8565(2) 0.30050(18) 0.8178(2)
C23 C 0.8246(2) 0.24123(18) 0.7297(2)
H15 H 0.8679 0.2319 0.6678
C24 C 0.7293(2) 0.19638(19) 0.7338(2)
H16 H 0.7080 0.1574 0.6742
C25 C 0.9605(2) 0.3504(2) 0.8127(3)
Zn1C Zn 1.11756(3) 0.44985(2) 0.80419(3)
O4C O -0.00521(17) 0.10683(14) 0.40075(18)
O5C O 0.00882(16) 0.15080(14) 0.22015(19)
loop_
_geom_bond_atom_site_label_1
_geom_bond_atom_site_label_2
_geom_bond_site_symmetry_1
_geom_bond_site_symmetry_2
Zn1 N1 1_555 1_555
N1 C1 1_555 1_555
N2 Zn1 1_555 1_555
O1 Zn1 1_555 1_555
O2 Zn1 1_555 1_555
O3 C18 1_555 1_555
O4 C25 1_555 1_555
O5 C25 1_555 1_555
C1 H1 1_555 1_555
C2 C1 1_555 1_555
H2 C2 1_555 1_555
C3 C2 1_555 1_555
H3 C3 1_555 1_555
C4 C3 1_555 1_555
H4 C4 1_555 1_555
C5 N1 1_555 1_555
C6 N2 1_555 1_555
C7 C6 1_555 1_555
H5 C7 1_555 1_555
C8 C7 1_555 1_555
H6 C8 1_555 1_555
C9 C8 1_555 1_555
H7 C9 1_555 1_555
C10 N2 1_555 1_555
H8 C10 1_555 1_555
C11 O1 1_555 1_555
C12 C11 1_555 1_555
C13 C12 1_555 1_555
H9 C13 1_555 1_555
C14 C13 1_555 1_555
H10 C14 1_555 1_555
C15 C14 1_555 1_555
C16 C15 1_555 1_555
H11 C16 1_555 1_555
C17 C12 1_555 1_555
H12 C17 1_555 1_555
C18 C15 1_555 1_555
C19 C18 1_555 1_555
C20 C19 1_555 1_555
H13 C20 1_555 1_555
C21 C20 1_555 1_555
H14 C21 1_555 1_555
C22 C21 1_555 1_555
C23 C22 1_555 1_555
H15 C23 1_555 1_555
C24 C19 1_555 1_555
H16 C24 1_555 1_555
C25 C22 1_555 1_555
Zn1C O4 1_555 1_555
O4C Zn1 1_555 1_555
O5C Zn1 1_555 1_555
O2 C11 1_555 1_555
O5 Zn1C 1_555 1_555
C4 C5 1_555 1_555
C5 C6 1_555 1_555
C9 C10 1_555 1_555
C16 C17 1_555 1_555
C23 C24 1_555 1_555

#END
