
#######################################################################
#
#                 Cambridge Crystallographic Data Centre
#                                CCDC 
#
#######################################################################
#
# If this CIF has been generated from an entry in the Cambridge 
# Structural Database, then it will include bibliographic, chemical, 
# crystal, experimental, refinement or atomic coordinate data resulting 
# from the CCDC's data processing and validation procedures.
#
#######################################################################

data_DIZYIV
_symmetry_cell_setting           monoclinic
_symmetry_space_group_name_H-M   'P 21/c'
_symmetry_Int_Tables_number      14
_space_group_name_Hall           '-P 2ybc'
loop_
_symmetry_equiv_pos_site_id
_symmetry_equiv_pos_as_xyz
1 x,y,z
2 -x,1/2+y,1/2-z
3 -x,-y,-z
4 x,1/2-y,1/2+z
_cell_length_a                   9.0835(5)
_cell_length_b                   16.4363(10)
_cell_length_c                   6.7592(4)
_cell_angle_alpha                90
_cell_angle_beta                 110.3400(10)
_cell_angle_gamma                90
_cell_volume                     946.219
loop_
_atom_site_label
_atom_site_type_symbol
_atom_site_fract_x
_atom_site_fract_y
_atom_site_fract_z
Cu1 Cu 0.35200(3) 0.179540(15) 0.23122(4)
Cl1 Cl 0.37476(6) 0.18655(3) -0.11361(7)
N1 N 0.5376(2) 0.11361(11) 0.3990(3)
N2 N 1.1234(2) 0.15752(11) 1.1700(3)
C1 C 0.6314(2) 0.13691(12) 0.5939(3)
H1 H 0.6030 0.1824 0.6542
C2 C 0.7685(2) 0.09585(12) 0.7081(3)
C3 C 0.8110(2) 0.02772(13) 0.6174(3)
H2 H 0.9037 0.0000 0.6879
C4 C 0.7126(2) 0.00189(13) 0.4197(3)
H3 H 0.7368 -0.0443 0.3576
C5 C 0.5785(2) 0.04611(13) 0.3175(3)
H4 H 0.5130 0.0284 0.1856
C6 C 1.0287(2) 0.13037(12) 0.9798(3)
H5 H 1.0745 0.1145 0.8823
C7 C 0.8661(2) 0.12481(12) 0.9219(3)
C8 C 0.7978(2) 0.14894(12) 1.0689(3)
H6 H 0.6895 0.1476 1.0349
C9 C 0.8953(3) 0.17498(12) 1.2670(3)
H7 H 0.8529 0.1901 1.3685
C10 C 1.0561(2) 0.17823(11) 1.3120(3)
H8 H 1.1201 0.1954 1.4453
Cu1C Cu 0.35200(3) 0.320460(15) -0.26878(4)
Cu1_2 Cu 1.35200(3) 0.179540(15) 1.23122(4)
Cl1C Cl 0.37476(6) 0.31345(3) 0.38639(7)
N2_2 N 0.1234(2) 0.15752(11) 0.1700(3)
loop_
_geom_bond_atom_site_label_1
_geom_bond_atom_site_label_2
_geom_bond_site_symmetry_1
_geom_bond_site_symmetry_2
Cu1 Cl1 1_555 1_555
Cl1 Cu1C 1_555 1_555
N1 Cu1 1_555 1_555
N2 C6 1_555 1_555
C1 N1 1_555 1_555
H1 C1 1_555 1_555
C2 C1 1_555 1_555
C3 C2 1_555 1_555
H2 C3 1_555 1_555
C4 C3 1_555 1_555
H3 C4 1_555 1_555
C5 N1 1_555 1_555
H4 C5 1_555 1_555
C6 H5 1_555 1_555
C7 C2 1_555 1_555
C8 C7 1_555 1_555
H6 C8 1_555 1_555
C9 C8 1_555 1_555
H7 C9 1_555 1_555
C10 N2 1_555 1_555
H8 C10 1_555 1_555
Cu1_2 N2 1_555 1_555
Cl1C Cu1 1_555 1_555
N2_2 Cu1 1_555 1_555
C4 C5 1_555 1_555
C6 C7 1_555 1_555
C9 C10 1_555 1_555

#END
