
#######################################################################
#
#                 Cambridge Crystallographic Data Centre
#                                CCDC 
#
#######################################################################
#
# If this CIF has been generated from an entry in the Cambridge 
# Structural Database, then it will include bibliographic, chemical, 
# crystal, experimental, refinement or atomic coordinate data resulting 
# from the CCDC's data processing and validation procedures.
#
#######################################################################

data_DOBFAC01
_symmetry_cell_setting           monoclinic
_symmetry_space_group_name_H-M   'P 21/c'
_symmetry_Int_Tables_number      14
_space_group_name_Hall           '-P 2ybc'
loop_
_symmetry_equiv_pos_site_id
_symmetry_equiv_pos_as_xyz
1 x,y,z
2 -x,1/2+y,1/2-z
3 -x,-y,-z
4 x,1/2-y,1/2+z
_cell_length_a                   9.519(5)
_cell_length_b                   9.417(5)
_cell_length_c                   11.701(5)
_cell_angle_alpha                90
_cell_angle_beta                 98.086(5)
_cell_angle_gamma                90
_cell_volume                     1038.45
loop_
_atom_site_label
_atom_site_type_symbol
_atom_site_fract_x
_atom_site_fract_y
_atom_site_fract_z
Ni1 Ni 1.0000 1.0000 0.5000
O1 O 0.89744(18) 0.79815(19) 0.27518(15)
O2 O 0.82389(16) 0.88097(17) 0.43591(14)
N1 N 0.1295(2) 0.8179(2) 0.50143(17)
C1 C 0.6635(2) 0.7417(2) 0.3085(2)
O3 O 0.9597(2) 0.9606(2) 0.66895(17)
C2 C 0.4275(2) 0.6854(2) 0.3504(2)
C3 C 0.8062(2) 0.8116(2) 0.3425(2)
C4 C 0.6341(3) 0.6724(3) 0.2028(2)
C5 C 0.2375(2) 0.8110(3) 0.4390(2)
C6 C 0.5599(3) 0.7479(3) 0.3811(2)
C7 C 0.4010(3) 0.6152(3) 0.2443(2)
C8 C 0.5024(3) 0.6093(3) 0.1718(2)
C9 C 0.3146(2) 0.6895(3) 0.4270(2)
C10 C 0.1694(4) 0.5737(3) 0.5492(3)
C11 C 0.0977(3) 0.7001(3) 0.5557(3)
C12 C 0.2793(3) 0.5686(3) 0.4832(3)
H1 H 1.004(4) 1.023(4) 0.707(3)
H2 H 0.953(4) 0.892(4) 0.707(3)
H3 H 0.702(2) 0.677(2) 0.150(2)
H4 H 0.582(2) 0.793(2) 0.449(2)
H5 H 0.486(3) 0.559(3) 0.105(2)
H6 H 0.256(2) 0.899(3) 0.398(2)
H7 H 0.317(3) 0.577(3) 0.224(2)
H8 H 0.013(3) 0.706(3) 0.595(2)
H9 H 0.145(4) 0.489(4) 0.594(3)
H10 H 0.329(3) 0.472(3) 0.474(3)
Ni1_2 Ni 0.0000 1.0000 0.5000
O1B O 0.10256(18) 1.20185(19) 0.72482(15)
O2B O 0.17611(16) 1.11903(17) 0.56409(14)
O2B_2 O 1.17611(16) 1.11903(17) 0.56409(14)
N1B N 0.8705(2) 1.1821(2) 0.49857(17)
N1_2 N 1.1295(2) 0.8179(2) 0.50143(17)
C1B C 0.3365(2) 1.2583(2) 0.6915(2)
O3B O 1.0403(2) 1.0394(2) 0.33105(17)
C2B C 0.5725(2) 1.3146(2) 0.6496(2)
C3B C 0.1938(2) 1.1884(2) 0.6575(2)
C4B C 0.3659(3) 1.3276(3) 0.7972(2)
C5B C 0.7625(2) 1.1890(3) 0.5610(2)
C6B C 0.4401(3) 1.2521(3) 0.6189(2)
C7B C 0.5990(3) 1.3848(3) 0.7557(2)
C8B C 0.4976(3) 1.3907(3) 0.8282(2)
C9B C 0.6854(2) 1.3105(3) 0.5730(2)
C10B C 0.8306(4) 1.4263(3) 0.4508(3)
C11B C 0.9023(3) 1.2999(3) 0.4443(3)
C12B C 0.7207(3) 1.4314(3) 0.5168(3)
H1B H 0.996(4) 0.977(4) 0.293(3)
H2B H 1.047(4) 1.108(4) 0.293(3)
H3B H 0.298(2) 1.323(2) 0.850(2)
H4B H 0.418(2) 1.207(2) 0.551(2)
H5B H 0.514(3) 1.441(3) 0.895(2)
H6B H 0.744(2) 1.101(3) 0.602(2)
H7B H 0.683(3) 1.423(3) 0.776(2)
H8B H 0.987(3) 1.294(3) 0.405(2)
H9B H 0.855(4) 1.511(4) 0.406(3)
H10B H 0.671(3) 1.528(3) 0.526(3)
loop_
_geom_bond_atom_site_label_1
_geom_bond_atom_site_label_2
_geom_bond_site_symmetry_1
_geom_bond_site_symmetry_2
Ni1 O2 1_555 1_555
O1 C3 1_555 1_555
O2 C3 1_555 1_555
N1 C5 1_555 1_555
C1 C3 1_555 1_555
O3 Ni1 1_555 1_555
C2 C6 1_555 1_555
C4 C1 1_555 1_555
C5 C9 1_555 1_555
C6 C1 1_555 1_555
C7 C2 1_555 1_555
C8 C4 1_555 1_555
C9 C2 1_555 1_555
C10 C11 1_555 1_555
C11 N1 1_555 1_555
C12 C9 1_555 1_555
H1 O3 1_555 1_555
H2 O3 1_555 1_555
H3 C4 1_555 1_555
H4 C6 1_555 1_555
H5 C8 1_555 1_555
H6 C5 1_555 1_555
H7 C7 1_555 1_555
H8 C11 1_555 1_555
H9 C10 1_555 1_555
H10 C12 1_555 1_555
Ni1_2 N1 1_555 1_555
O1B C3B 1_555 1_555
O2B Ni1_2 1_555 1_555
O2B_2 Ni1 1_555 1_555
N1B Ni1 1_555 1_555
N1_2 Ni1 1_555 1_555
C1B C3B 1_555 1_555
O3B Ni1 1_555 1_555
C2B C6B 1_555 1_555
C3B O2B 1_555 1_555
C4B C1B 1_555 1_555
C5B N1B 1_555 1_555
C6B C1B 1_555 1_555
C7B C2B 1_555 1_555
C8B C4B 1_555 1_555
C9B C2B 1_555 1_555
C10B C11B 1_555 1_555
C11B N1B 1_555 1_555
C12B C9B 1_555 1_555
H1B O3B 1_555 1_555
H2B O3B 1_555 1_555
H3B C4B 1_555 1_555
H4B C6B 1_555 1_555
H5B C8B 1_555 1_555
H6B C5B 1_555 1_555
H7B C7B 1_555 1_555
H8B C11B 1_555 1_555
H9B C10B 1_555 1_555
H10B C12B 1_555 1_555
C7 C8 1_555 1_555
C10 C12 1_555 1_555
C5B C9B 1_555 1_555
C7B C8B 1_555 1_555
C10B C12B 1_555 1_555

#END
