
#######################################################################
#
#                 Cambridge Crystallographic Data Centre
#                                CCDC 
#
#######################################################################
#
# If this CIF has been generated from an entry in the Cambridge 
# Structural Database, then it will include bibliographic, chemical, 
# crystal, experimental, refinement or atomic coordinate data resulting 
# from the CCDC's data processing and validation procedures.
#
#######################################################################

data_DOBFEG
_symmetry_cell_setting           monoclinic
_symmetry_space_group_name_H-M   'P 21/c'
_symmetry_Int_Tables_number      14
_space_group_name_Hall           '-P 2ybc'
loop_
_symmetry_equiv_pos_site_id
_symmetry_equiv_pos_as_xyz
1 x,y,z
2 -x,1/2+y,1/2-z
3 -x,-y,-z
4 x,1/2-y,1/2+z
_cell_length_a                   9.915(2)
_cell_length_b                   12.442(3)
_cell_length_c                   17.504(4)
_cell_angle_alpha                90
_cell_angle_beta                 104.17(3)
_cell_angle_gamma                90
_cell_volume                     2093.64
loop_
_atom_site_label
_atom_site_type_symbol
_atom_site_fract_x
_atom_site_fract_y
_atom_site_fract_z
Ni1 Ni 0.46078(4) 0.29009(4) 0.179981(19)
C1 C 0.1579(4) 0.3369(3) -0.22207(17)
C2 C 0.2300(4) 0.3718(3) -0.14826(17)
H1 H 0.3239 0.3552 -0.1303
C3 C 0.1645(4) 0.4310(3) -0.10058(18)
C4 C 0.0235(4) 0.4544(4) -0.1283(2)
H2 H -0.0215 0.4950 -0.0974
C5 C -0.0496(4) 0.4184(4) -0.2007(2)
H3 H -0.1440 0.4335 -0.2180
C6 C 0.0165(4) 0.3599(3) -0.2480(2)
H4 H -0.0334 0.3358 -0.2971
C7 C 0.2320(4) 0.2793(3) -0.27530(19)
C8 C 0.2431(4) 0.4663(3) -0.02070(18)
C9 C 0.3121(4) 0.3927(3) 0.03310(18)
H5 H 0.3112 0.3213 0.0172
C10 C 0.3856(5) 0.5193(3) 0.1292(2)
H6 H 0.4344 0.5379 0.1799
C11 C 0.3207(6) 0.5978(4) 0.0792(3)
H7 H 0.3253 0.6689 0.0961
C12 C 0.2486(6) 0.5721(3) 0.0040(2)
H8 H 0.2037 0.6255 -0.0301
C13 C 0.6515(3) 0.4442(3) 0.57987(16)
C14 C 0.7128(3) 0.5420(3) 0.60828(18)
H9 H 0.7097 0.5657 0.6582
C15 C 0.7779(4) 0.6035(3) 0.5625(2)
H10 H 0.8168 0.6693 0.5812
C16 C 0.7860(4) 0.5681(3) 0.48878(19)
H11 H 0.8314 0.6097 0.4586
C17 C 0.7264(3) 0.4704(3) 0.45966(16)
C18 C 0.6584(3) 0.4096(3) 0.50552(16)
H12 H 0.6169 0.3449 0.4861
C19 C 0.5842(4) 0.3766(3) 0.62998(17)
C20 C 0.7397(3) 0.4311(2) 0.38157(16)
C21 C 0.8638(4) 0.4349(3) 0.3598(2)
H13 H 0.9421 0.4643 0.3938
C22 C 0.8723(4) 0.3953(3) 0.2881(2)
H14 H 0.9566 0.3960 0.2737
C23 C 0.7559(4) 0.3548(3) 0.23812(19)
H15 H 0.7620 0.3288 0.1893
C24 C 0.6259(3) 0.3884(3) 0.32786(15)
H16 H 0.5410 0.3852 0.3415
N1 N 0.3807(3) 0.4166(3) 0.10717(15)
N2 N 0.6334(3) 0.3514(2) 0.25698(13)
O1 O 0.3584(3) 0.2537(3) -0.24444(15)
O2 O 0.1743(4) 0.2624(3) -0.34412(15)
O3 O 0.5274(3) 0.2881(2) 0.60011(13)
O4 O 0.5845(3) 0.4057(2) 0.69733(13)
Ni1C Ni 0.46078(4) 0.20991(4) -0.320019(19)
Ni1C_2 Ni 0.46078(4) 0.20991(4) 0.679981(19)
O1C O 0.3584(3) 0.2463(3) 0.25556(15)
O3C O 0.5274(3) 0.2119(2) 0.10011(13)
O5 O 0.977(2) 0.2466(13) 0.023(2)
loop_
_geom_bond_atom_site_label_1
_geom_bond_atom_site_label_2
_geom_bond_site_symmetry_1
_geom_bond_site_symmetry_2
Ni1 N1 1_555 1_555
C1 C2 1_555 1_555
C2 H1 1_555 1_555
C3 C2 1_555 1_555
C4 C3 1_555 1_555
H2 C4 1_555 1_555
C5 C4 1_555 1_555
H3 C5 1_555 1_555
C6 C1 1_555 1_555
H4 C6 1_555 1_555
C7 C1 1_555 1_555
C8 C3 1_555 1_555
C9 C8 1_555 1_555
H5 C9 1_555 1_555
C10 H6 1_555 1_555
C11 C10 1_555 1_555
H7 C11 1_555 1_555
C12 C8 1_555 1_555
H8 C12 1_555 1_555
C13 C14 1_555 1_555
C14 H9 1_555 1_555
C15 C14 1_555 1_555
H10 C15 1_555 1_555
C16 C15 1_555 1_555
H11 C16 1_555 1_555
C17 C16 1_555 1_555
C18 C13 1_555 1_555
H12 C18 1_555 1_555
C19 C13 1_555 1_555
C20 C17 1_555 1_555
C21 C20 1_555 1_555
H13 C21 1_555 1_555
C22 C21 1_555 1_555
H14 C22 1_555 1_555
C23 C22 1_555 1_555
H15 C23 1_555 1_555
C24 C20 1_555 1_555
H16 C24 1_555 1_555
N1 C9 1_555 1_555
N2 Ni1 1_555 1_555
O1 C7 1_555 1_555
O2 C7 1_555 1_555
O3 C19 1_555 1_555
O4 C19 1_555 1_555
Ni1C O1 1_555 1_555
Ni1C_2 O3 1_555 1_555
O1C Ni1 1_555 1_555
O3C Ni1 1_555 1_555
C5 C6 1_555 1_555
C10 N1 1_555 1_555
C11 C12 1_555 1_555
C17 C18 1_555 1_555
C23 N2 1_555 1_555
C24 N2 1_555 1_555

#END
