
#######################################################################
#
#                 Cambridge Crystallographic Data Centre
#                                CCDC 
#
#######################################################################
#
# If this CIF has been generated from an entry in the Cambridge 
# Structural Database, then it will include bibliographic, chemical, 
# crystal, experimental, refinement or atomic coordinate data resulting 
# from the CCDC's data processing and validation procedures.
#
#######################################################################

data_DOBHAE
_symmetry_cell_setting           monoclinic
_symmetry_space_group_name_H-M   'C 2/c'
_symmetry_Int_Tables_number      15
_space_group_name_Hall           '-C 2yn'
loop_
_symmetry_equiv_pos_site_id
_symmetry_equiv_pos_as_xyz
1 x,y,z
2 1/2+x,1/2+y,z
3 -x,y,1/2-z
4 1/2-x,1/2+y,1/2-z
5 -x,-y,-z
6 1/2-x,1/2-y,-z
7 x,-y,1/2+z
8 1/2+x,1/2-y,1/2+z
_cell_length_a                   15.3383(4)
_cell_length_b                   13.3717(4)
_cell_length_c                   17.5628(6)
_cell_angle_alpha                90
_cell_angle_beta                 100.7236(16)
_cell_angle_gamma                90
_cell_volume                     3539.21
loop_
_atom_site_label
_atom_site_type_symbol
_atom_site_fract_x
_atom_site_fract_y
_atom_site_fract_z
C1 C 0.0705(4) 0.8806(4) -0.0407(3)
H1 H 0.1109 0.9109 -0.0015
C2 C 0.0135(4) 0.9398(4) -0.0895(4)
H2 H 0.0159 1.0090 -0.0844
C3 C -0.0460(4) 0.8967(5) -0.1449(4)
H3 H -0.0858 0.9361 -0.1785
C4 C -0.0488(4) 0.7933(4) -0.1526(3)
H4 H -0.0904 0.7629 -0.1909
C5 C 0.0117(3) 0.7363(4) -0.1021(3)
C6 C 0.0144(3) 0.6247(4) -0.1057(3)
C7 C 0.1390(3) 0.4303(4) -0.0086(3)
C8 C 0.2023(3) 0.4660(4) 0.0579(3)
C9 C 0.2761(4) 0.5614(4) 0.1497(3)
H5 H 0.2943 0.6211 0.1748
C10 C 0.3041(5) 0.4732(5) 0.1784(3)
H6 H 0.3435 0.4644 0.2250
C11 C 0.1379(4) 0.3209(4) -0.0250(3)
H7 H 0.0936 0.3068 -0.0700
H8 H 0.1242 0.2850 0.0186
H9 H 0.1950 0.3005 -0.0342
N1 N 0.0712(3) 0.7805(3) -0.0465(2)
N2 N 0.0788(2) 0.5839(3) -0.0501(2)
N3 N 0.0824(3) 0.4821(3) -0.0559(2)
N4 N 0.2188(3) 0.5585(3) 0.0808(2)
N5 N -0.0404(3) 0.5731(3) -0.1566(2)
N6 N 0.2455(3) 0.7982(3) 0.0703(2)
N7 N 0.2796(3) 0.8158(3) 0.1366(3)
N8 N 0.3142(4) 0.8327(4) 0.1989(3)
N9 N 0.0747(3) 0.6892(3) 0.1182(2)
N10 N 0.0681(3) 0.7679(4) 0.1460(3)
N11 N 0.0641(4) 0.8439(4) 0.1727(3)
N12 N 0.0869(3) 0.3992(3) -0.2194(2)
N13 N 0.1646(4) 0.3994(4) -0.1931(3)
N14 N 0.2382(4) 0.4003(6) -0.1665(4)
Zn1 Zn 0.15839(4) 0.68444(4) 0.02470(3)
Zn2 Zn -0.01520(4) 0.42728(5) -0.16277(4)
S1 S 0.26011(11) 0.37976(11) 0.12089(9)
N6E N 0.2545(3) 0.7018(3) -0.0703(2)
N9D N -0.0747(3) 0.3108(3) -0.1182(2)
N12B N -0.0869(3) 0.3992(3) -0.2806(2)
Zn1E Zn 0.34161(4) 0.81556(4) -0.02470(3)
Zn2D Zn 0.01520(4) 0.57272(5) 0.16277(4)
Zn2B Zn 0.01520(4) 0.42728(5) -0.33723(4)
loop_
_geom_bond_atom_site_label_1
_geom_bond_atom_site_label_2
_geom_bond_site_symmetry_1
_geom_bond_site_symmetry_2
C1 H1 1_555 1_555
C2 C1 1_555 1_555
H2 C2 1_555 1_555
C3 C2 1_555 1_555
H3 C3 1_555 1_555
C4 C3 1_555 1_555
H4 C4 1_555 1_555
C5 C4 1_555 1_555
C6 C5 1_555 1_555
C7 C8 1_555 1_555
C8 N4 1_555 1_555
C9 H5 1_555 1_555
C10 C9 1_555 1_555
H6 C10 1_555 1_555
C11 C7 1_555 1_555
H7 C11 1_555 1_555
H8 C11 1_555 1_555
H9 C11 1_555 1_555
N1 C1 1_555 1_555
N2 C6 1_555 1_555
N3 C7 1_555 1_555
N4 C9 1_555 1_555
N5 C6 1_555 1_555
N6 N7 1_555 1_555
N7 N8 1_555 1_555
N9 N10 1_555 1_555
N10 N11 1_555 1_555
N12 N13 1_555 1_555
N13 N14 1_555 1_555
Zn1 N1 1_555 1_555
Zn2 N3 1_555 1_555
S1 C8 1_555 1_555
N6E Zn1 1_555 1_555
N9D Zn2 1_555 1_555
N12B Zn2 1_555 1_555
Zn1E N6 1_555 1_555
Zn2D N9 1_555 1_555
Zn2B N12 1_555 1_555
C5 N1 1_555 1_555
C10 S1 1_555 1_555
N2 N3 1_555 1_555
N2 Zn1 1_555 1_555
N4 Zn1 1_555 1_555
N5 Zn2 1_555 1_555
N6 Zn1 1_555 1_555
N9 Zn1 1_555 1_555
N12 Zn2 1_555 1_555
N6E Zn1E 1_555 1_555
N12B Zn2B 1_555 1_555

#END
