
#######################################################################
#
#                 Cambridge Crystallographic Data Centre
#                                CCDC 
#
#######################################################################
#
# If this CIF has been generated from an entry in the Cambridge 
# Structural Database, then it will include bibliographic, chemical, 
# crystal, experimental, refinement or atomic coordinate data resulting 
# from the CCDC's data processing and validation procedures.
#
#######################################################################

data_DOBJUZ01
_symmetry_cell_setting           monoclinic
_symmetry_space_group_name_H-M   'C 2/c'
_symmetry_Int_Tables_number      15
_space_group_name_Hall           '-C 2yn'
loop_
_symmetry_equiv_pos_site_id
_symmetry_equiv_pos_as_xyz
1 x,y,z
2 1/2+x,1/2+y,z
3 -x,y,1/2-z
4 1/2-x,1/2+y,1/2-z
5 -x,-y,-z
6 1/2-x,1/2-y,-z
7 x,-y,1/2+z
8 1/2+x,1/2-y,1/2+z
_cell_length_a                   9.066(3)
_cell_length_b                   13.417(2)
_cell_length_c                   6.777(2)
_cell_angle_alpha                90
_cell_angle_beta                 98.77(2)
_cell_angle_gamma                90
_cell_volume                     814.706
loop_
_atom_site_label
_atom_site_type_symbol
_atom_site_fract_x
_atom_site_fract_y
_atom_site_fract_z
Fe1 Fe 0.7500 0.2500 0.5000
O1 O 0.9490(2) 0.1667(1) 0.5098(2)
O2 O 1.2460(2) 0.0400(1) 0.5028(2)
O3 O 0.8745(2) 0.3704(1) 0.3957(2)
O4 O 0.8200(2) 0.2895(1) 0.8004(2)
C1 C 0.9749(2) 0.0748(2) 0.5046(3)
C2 C 1.1114(2) 0.0178(1) 0.5020(3)
O1E O 0.5510(2) 0.3333(1) 0.4902(2)
O3E O 0.6255(2) 0.1296(1) 0.6043(2)
O4E O 0.6800(2) 0.2105(1) 0.1996(2)
C2D C 0.8886(2) -0.0178(1) 0.4980(3)
C1D C 1.0251(2) -0.0748(2) 0.4954(3)
C1E C 0.5251(2) 0.4252(2) 0.4954(3)
O2D O 0.7540(2) -0.0400(1) 0.4972(2)
O1D O 1.0510(2) -0.1667(1) 0.4902(2)
C2A C 0.6114(2) 0.5178(1) 0.5020(3)
C2E C 0.3886(2) 0.4822(1) 0.4980(3)
Fe1A Fe 1.2500 -0.2500 0.5000
O2A O 0.7460(2) 0.5400(1) 0.5028(2)
C1A C 0.4749(2) 0.5748(2) 0.5046(3)
O2E O 0.2540(2) 0.4600(1) 0.4972(2)
O1A O 1.4490(2) -0.3333(1) 0.5098(2)
O3D O 1.1255(2) -0.3704(1) 0.6043(2)
O3A O 1.3745(2) -0.1296(1) 0.3957(2)
O4D O 1.1800(2) -0.2895(1) 0.1996(2)
O4A O 1.3200(2) -0.2105(1) 0.8004(2)
O1A_2 O 0.4490(2) 0.6667(1) 0.5098(2)
Fe1A_2 Fe 0.2500 0.7500 0.5000
loop_
_geom_bond_atom_site_label_1
_geom_bond_atom_site_label_2
_geom_bond_site_symmetry_1
_geom_bond_site_symmetry_2
Fe1 O1 1_555 1_555
O1 C1 1_555 1_555
O2 C2 1_555 1_555
O3 Fe1 1_555 1_555
O4 Fe1 1_555 1_555
C1 C2 1_555 1_555
C2 C1D 1_555 1_555
O1E Fe1 1_555 1_555
O3E Fe1 1_555 1_555
O4E Fe1 1_555 1_555
C2D C1 1_555 1_555
C1D C2D 1_555 1_555
C1E O1E 1_555 1_555
O2D C2D 1_555 1_555
O1D C1D 1_555 1_555
C2A C1E 1_555 1_555
C2E C1E 1_555 1_555
Fe1A O1D 1_555 1_555
O2A C2A 1_555 1_555
C1A C2A 1_555 1_555
O2E C2E 1_555 1_555
O1A Fe1A 1_555 1_555
O3D Fe1A 1_555 1_555
O3A Fe1A 1_555 1_555
O4D Fe1A 1_555 1_555
O4A Fe1A 1_555 1_555
O1A_2 C1A 1_555 1_555
Fe1A_2 O1A_2 1_555 1_555
C2E C1A 1_555 1_555

#END
