
#######################################################################
#
#                 Cambridge Crystallographic Data Centre
#                                CCDC 
#
#######################################################################
#
# If this CIF has been generated from an entry in the Cambridge 
# Structural Database, then it will include bibliographic, chemical, 
# crystal, experimental, refinement or atomic coordinate data resulting 
# from the CCDC's data processing and validation procedures.
#
#######################################################################

data_DOCGAE
_symmetry_cell_setting           triclinic
_symmetry_space_group_name_H-M   'P -1'
_symmetry_Int_Tables_number      2
_space_group_name_Hall           '-P 1'
loop_
_symmetry_equiv_pos_site_id
_symmetry_equiv_pos_as_xyz
1 x,y,z
2 -x,-y,-z
_cell_length_a                   9.5000(5)
_cell_length_b                   10.9720(6)
_cell_length_c                   12.5366(6)
_cell_angle_alpha                107.235(5)
_cell_angle_beta                 95.398(5)
_cell_angle_gamma                90.578(5)
_cell_volume                     1241.54
loop_
_atom_site_label
_atom_site_type_symbol
_atom_site_fract_x
_atom_site_fract_y
_atom_site_fract_z
Pr1 Pr 0.237961(19) 0.460779(18) 0.483769(16)
O1 O 0.3635(3) 0.3660(3) 0.3045(2)
O2 O 0.1121(3) 0.5189(3) 0.3226(2)
H1 H 0.444(5) 0.392(5) 0.306(4)
H2 H 0.366(5) 0.298(5) 0.300(4)
H3 H 0.157(5) 0.544(4) 0.285(4)
H4 H 0.039(5) 0.543(4) 0.315(4)
O3 O 0.3866(2) 0.2930(2) 0.5106(2)
O4 O 0.6068(2) 0.3730(2) 0.5183(2)
O5 O 0.9098(2) 0.0430(2) 0.6457(2)
O6 O 0.7202(2) -0.0840(2) 0.7278(2)
H5 H 0.7966 -0.1133 0.7045
C1 C 0.5187(3) 0.2922(3) 0.5337(3)
C2 C 0.5749(3) 0.1902(3) 0.5811(3)
C3 C 0.7194(3) 0.1660(3) 0.5866(3)
H6 H 0.7829 0.2130 0.5580
C4 C 0.7700(3) 0.0737(3) 0.6339(3)
C5 C 0.6755(3) 0.0046(3) 0.6757(3)
C6 C 0.5321(3) 0.0284(3) 0.6697(3)
H7 H 0.4683 -0.0189 0.6978
C7 C 0.4816(3) 0.1215(3) 0.6224(3)
H8 H 0.3836 0.1380 0.6184
C8 C 1.0118(3) 0.1250(4) 0.6214(3)
H9 H 0.9932 0.1240 0.5429
H10 H 1.1070 0.0949 0.6339
H11 H 1.0051 0.2122 0.6707
O7 O 0.3640(2) 0.5355(2) 0.67914(19)
O8 O 0.1638(2) 0.4238(2) 0.66214(19)
O9 O 0.4887(2) 0.7117(2) 1.1076(2)
O10 O 0.2887(3) 0.6125(3) 1.1919(2)
H12 H 0.338(5) 0.665(4) 1.215(4)
C9 C 0.2685(3) 0.4908(3) 0.7231(3)
C10 C 0.2767(3) 0.5205(3) 0.8475(3)
C11 C 0.3855(3) 0.6029(3) 0.9150(3)
H13 H 0.4555 0.6376 0.8818
C12 C 0.3897(3) 0.6332(3) 1.0299(3)
C13 C 0.2856(4) 0.5823(3) 1.0783(3)
C14 C 0.1798(4) 0.5004(3) 1.0125(3)
H14 H 0.1107 0.4650 1.0461
C15 C 0.1743(3) 0.4696(3) 0.8962(3)
H15 H 0.1007 0.4138 0.8501
C16 C 0.5955(4) 0.7734(3) 1.0668(3)
H16 H 0.6490 0.7089 1.0166
H17 H 0.6597 0.8251 1.1303
H18 H 0.5511 0.8286 1.0257
O11 O 0.1068(2) 0.2629(2) 0.3672(2)
O12 O -0.0766(2) 0.3686(2) 0.4380(2)
O13 O -0.0845(2) 0.0981(2) -0.0528(2)
O14 O -0.3445(2) 0.0197(2) -0.0454(2)
H19 H -0.2954 0.0133 -0.0989
C17 C -0.0242(3) 0.2872(3) 0.3585(3)
C18 C -0.1126(3) 0.2208(3) 0.2525(3)
C19 C -0.0504(3) 0.1940(3) 0.1518(3)
H20 H 0.0456 0.2193 0.1518
C20 C -0.1293(3) 0.1309(3) 0.0525(3)
C21 C -0.2698(3) 0.0891(3) 0.0525(3)
C22 C -0.3316(3) 0.1170(3) 0.1517(3)
H21 H -0.4271 0.0904 0.1515
C23 C -0.2538(3) 0.1845(3) 0.2523(3)
H22 H -0.2968 0.2056 0.3205
C24 C 0.0446(4) 0.1567(3) -0.0662(3)
H23 H 0.0345 0.2491 -0.0483
H24 H 0.0668 0.1222 -0.1440
H25 H 0.1211 0.1389 -0.0155
Pr1A Pr 0.762039(19) 0.539221(18) 0.516231(16)
Pr1A_2 Pr -0.237961(19) 0.539221(18) 0.516231(16)
O4A O 0.3932(2) 0.6270(2) 0.4817(2)
O12A O 0.0766(2) 0.6314(2) 0.5620(2)
loop_
_geom_bond_atom_site_label_1
_geom_bond_atom_site_label_2
_geom_bond_site_symmetry_1
_geom_bond_site_symmetry_2
Pr1 O1 1_555 1_555
O1 H1 1_555 1_555
O2 Pr1 1_555 1_555
H2 O1 1_555 1_555
H3 O2 1_555 1_555
H4 O2 1_555 1_555
O3 Pr1 1_555 1_555
O4 C1 1_555 1_555
O5 C4 1_555 1_555
O6 H5 1_555 1_555
C1 O3 1_555 1_555
C2 C1 1_555 1_555
C3 C2 1_555 1_555
H6 C3 1_555 1_555
C4 C3 1_555 1_555
C5 O6 1_555 1_555
C6 C5 1_555 1_555
H7 C6 1_555 1_555
C7 C2 1_555 1_555
H8 C7 1_555 1_555
C8 O5 1_555 1_555
H9 C8 1_555 1_555
H10 C8 1_555 1_555
H11 C8 1_555 1_555
O7 Pr1 1_555 1_555
O8 Pr1 1_555 1_555
O9 C12 1_555 1_555
O10 H12 1_555 1_555
C9 O7 1_555 1_555
C10 C9 1_555 1_555
C11 C10 1_555 1_555
H13 C11 1_555 1_555
C12 C11 1_555 1_555
C13 O10 1_555 1_555
C14 C13 1_555 1_555
H14 C14 1_555 1_555
C15 C10 1_555 1_555
H15 C15 1_555 1_555
C16 O9 1_555 1_555
H16 C16 1_555 1_555
H17 C16 1_555 1_555
H18 C16 1_555 1_555
O11 Pr1 1_555 1_555
O12 C17 1_555 1_555
O13 C20 1_555 1_555
O14 H19 1_555 1_555
C17 O11 1_555 1_555
C18 C17 1_555 1_555
C19 C18 1_555 1_555
H20 C19 1_555 1_555
C20 C19 1_555 1_555
C21 O14 1_555 1_555
C22 C21 1_555 1_555
H21 C22 1_555 1_555
C23 C18 1_555 1_555
H22 C23 1_555 1_555
C24 O13 1_555 1_555
H23 C24 1_555 1_555
H24 C24 1_555 1_555
H25 C24 1_555 1_555
Pr1A O4 1_555 1_555
Pr1A_2 O12 1_555 1_555
O4A Pr1 1_555 1_555
O12A Pr1 1_555 1_555
C4 C5 1_555 1_555
C6 C7 1_555 1_555
O8 C9 1_555 1_555
C12 C13 1_555 1_555
C14 C15 1_555 1_555
C20 C21 1_555 1_555
C22 C23 1_555 1_555

#END
