
#######################################################################
#
#                 Cambridge Crystallographic Data Centre
#                                CCDC 
#
#######################################################################
#
# If this CIF has been generated from an entry in the Cambridge 
# Structural Database, then it will include bibliographic, chemical, 
# crystal, experimental, refinement or atomic coordinate data resulting 
# from the CCDC's data processing and validation procedures.
#
#######################################################################

data_DOCQIW
_symmetry_cell_setting           monoclinic
_symmetry_space_group_name_H-M   'P 21/c'
_symmetry_Int_Tables_number      14
_space_group_name_Hall           '-P 2ybc'
loop_
_symmetry_equiv_pos_site_id
_symmetry_equiv_pos_as_xyz
1 x,y,z
2 -x,1/2+y,1/2-z
3 -x,-y,-z
4 x,1/2-y,1/2+z
_cell_length_a                   10.2289(11)
_cell_length_b                   22.036(2)
_cell_length_c                   14.6701(13)
_cell_angle_alpha                90
_cell_angle_beta                 111.926(6)
_cell_angle_gamma                90
_cell_volume                     3067.52
loop_
_atom_site_label
_atom_site_type_symbol
_atom_site_fract_x
_atom_site_fract_y
_atom_site_fract_z
Ce1 Ce 0.25264(2) 0.860949(9) 0.756500(14)
Cd1 Cd 0.77768(3) 0.761415(13) 1.02542(2)
C1 C 0.4460(4) 0.90976(16) 0.9896(3)
C2 C 0.4841(4) 0.93965(17) 1.0793(3)
H1 H 0.5719 0.9317 1.1309
C3 C 0.3906(4) 0.98134(18) 1.0915(3)
H2 H 0.4140 1.0026 1.1519
C4 C 0.2629(4) 0.99199(17) 1.0155(3)
H3 H 0.1966 1.0198 1.0231
C5 C 0.2344(4) 0.96095(17) 0.9278(3)
C6 C 0.0986(4) 0.96730(17) 0.8387(3)
C7 C 0.5328(4) 0.86191(17) 0.9664(3)
C8 C 0.3389(4) 0.71571(19) 0.7305(3)
C9 C 0.3626(5) 0.6539(2) 0.7463(4)
H4 H 0.4093 0.6314 0.7122
C10 C 0.3162(6) 0.6258(2) 0.8131(4)
H5 H 0.3313 0.5836 0.8256
C11 C 0.2482(5) 0.6590(2) 0.8614(4)
H6 H 0.2164 0.6403 0.9077
C12 C 0.2276(4) 0.71995(18) 0.8407(3)
C13 C 0.1549(4) 0.76179(18) 0.8882(3)
C14 C 0.3882(4) 0.75297(19) 0.6636(3)
C15 C 0.0484(4) 0.89771(17) 0.5214(3)
C16 C -0.0006(4) 0.92635(18) 0.4308(3)
H7 H -0.0887 0.9154 0.3818
C17 C 0.0822(4) 0.97157(18) 0.4133(3)
H8 H 0.0506 0.9923 0.3521
C18 C 0.2109(4) 0.98619(18) 0.4855(3)
H9 H 0.2698 1.0163 0.4743
C19 C 0.2518(4) 0.95576(17) 0.5746(3)
C20 C 0.3883(4) 0.96643(17) 0.6606(3)
C21 C -0.0241(4) 0.84665(17) 0.5511(3)
C22 C 0.5868(6) 0.6458(2) 1.0418(4)
H10 H 0.4930 0.6314 1.0351
H11 H 0.6529 0.6393 1.1094
H12 H 0.6189 0.6233 0.9964
C23 C 1.0104(7) 0.8699(3) 1.0482(6)
H13 H 1.1030 0.8766 1.0444
H14 H 1.0144 0.8807 1.1140
H15 H 0.9400 0.8953 0.9993
N1 N 0.3243(3) 0.92114(14) 0.9155(2)
N2 N 0.2721(3) 0.74775(15) 0.7767(2)
N3 N 0.1717(3) 0.91301(14) 0.5917(2)
O1 O 0.4741(3) 0.83673(12) 0.88211(19)
O2 O 0.6520(3) 0.84965(12) 1.0275(2)
O3 O 0.0947(3) 0.93514(12) 0.76463(19)
O4 O 0.0049(3) 1.00062(14) 0.8427(2)
O5 O 0.3648(3) 0.81005(13) 0.6651(2)
O6 O 0.4505(4) 0.72765(15) 0.6164(3)
O7 O 0.1475(3) 0.81743(12) 0.86076(19)
O8 O 0.1082(3) 0.74103(13) 0.9474(2)
O9 O 0.0404(3) 0.82525(12) 0.63693(19)
O10 O -0.1393(3) 0.82793(13) 0.4919(2)
O11 O 0.3978(3) 0.93689(13) 0.73864(19)
O12 O 0.4791(3) 1.00003(13) 0.6521(2)
O13 O 0.5802(3) 0.70952(13) 1.0188(2)
H16 H 0.5097 0.7244 1.0367
O14 O 0.9739(4) 0.81036(14) 1.0300(3)
H17 H 1.0243 0.7913 1.0110
O15 O 0.6847(3) 0.77257(13) 0.8574(2)
H18 H 0.7407 0.7952 0.8377
H19 H 0.6128 0.7930 0.8547
O16 O 0.8589(3) 0.77011(14) 1.1906(2)
H20 H 0.8564 0.7370 1.2194
H21 H 0.7802 0.7787 1.1984
Cd1C Cd -0.22232(3) 0.738585(13) 0.52542(2)
O10C O 0.8607(3) 0.67207(13) 0.9919(2)
O17 O -0.1496(3) 0.83804(13) 0.7842(2)
H22 H -0.1782 0.8745 0.7579
H23 H -0.0507 0.8333 0.8298
O18 O -0.2465(3) 0.95090(15) 0.7195(3)
H24 H -0.1821 0.9752 0.7607
H25 H -0.3213 0.9685 0.7057
O19 O -0.2891(6) 0.8445(2) 0.2625(4)
H26 H -0.2487 0.8399 0.3243
H27 H -0.3807 0.8298 0.2289
loop_
_geom_bond_atom_site_label_1
_geom_bond_atom_site_label_2
_geom_bond_site_symmetry_1
_geom_bond_site_symmetry_2
Ce1 N1 1_555 1_555
Cd1 O2 1_555 1_555
C1 C2 1_555 1_555
C2 H1 1_555 1_555
C3 C2 1_555 1_555
H2 C3 1_555 1_555
C4 C3 1_555 1_555
H3 C4 1_555 1_555
C5 C4 1_555 1_555
C6 C5 1_555 1_555
C7 C1 1_555 1_555
C8 C9 1_555 1_555
C9 H4 1_555 1_555
C10 C9 1_555 1_555
H5 C10 1_555 1_555
C11 C10 1_555 1_555
H6 C11 1_555 1_555
C12 C11 1_555 1_555
C13 C12 1_555 1_555
C14 C8 1_555 1_555
C15 C16 1_555 1_555
C16 H7 1_555 1_555
C17 C16 1_555 1_555
H8 C17 1_555 1_555
C18 C17 1_555 1_555
H9 C18 1_555 1_555
C19 C18 1_555 1_555
C20 C19 1_555 1_555
C21 C15 1_555 1_555
C22 H10 1_555 1_555
H11 C22 1_555 1_555
H12 C22 1_555 1_555
C23 H13 1_555 1_555
H14 C23 1_555 1_555
H15 C23 1_555 1_555
N1 C1 1_555 1_555
N2 Ce1 1_555 1_555
N3 Ce1 1_555 1_555
O1 Ce1 1_555 1_555
O2 C7 1_555 1_555
O3 Ce1 1_555 1_555
O4 C6 1_555 1_555
O5 Ce1 1_555 1_555
O6 C14 1_555 1_555
O7 Ce1 1_555 1_555
O8 C13 1_555 1_555
O9 Ce1 1_555 1_555
O10 C21 1_555 1_555
O11 Ce1 1_555 1_555
O12 C20 1_555 1_555
O13 Cd1 1_555 1_555
H16 O13 1_555 1_555
O14 Cd1 1_555 1_555
H17 O14 1_555 1_555
O15 Cd1 1_555 1_555
H18 O15 1_555 1_555
H19 O15 1_555 1_555
O16 Cd1 1_555 1_555
H20 O16 1_555 1_555
H21 O16 1_555 1_555
O17 H22 1_555 1_555
H23 O17 1_555 1_555
O18 H24 1_555 1_555
H25 O18 1_555 1_555
O19 H26 1_555 1_555
H27 O19 1_555 1_555
Cd1C O10 1_555 1_555
O10C Cd1 1_555 1_555
C5 N1 1_555 1_555
C6 O3 1_555 1_555
C7 O1 1_555 1_555
C8 N2 1_555 1_555
C12 N2 1_555 1_555
C13 O7 1_555 1_555
C14 O5 1_555 1_555
C15 N3 1_555 1_555
C19 N3 1_555 1_555
C20 O11 1_555 1_555
C21 O9 1_555 1_555
C22 O13 1_555 1_555
C23 O14 1_555 1_555

#END
