
#######################################################################
#
#                 Cambridge Crystallographic Data Centre
#                                CCDC 
#
#######################################################################
#
# If this CIF has been generated from an entry in the Cambridge 
# Structural Database, then it will include bibliographic, chemical, 
# crystal, experimental, refinement or atomic coordinate data resulting 
# from the CCDC's data processing and validation procedures.
#
#######################################################################

data_DOCWOI01
_symmetry_cell_setting           monoclinic
_symmetry_space_group_name_H-M   'P 21/c'
_symmetry_Int_Tables_number      14
_space_group_name_Hall           '-P 2ybc'
loop_
_symmetry_equiv_pos_site_id
_symmetry_equiv_pos_as_xyz
1 x,y,z
2 -x,1/2+y,1/2-z
3 -x,-y,-z
4 x,1/2-y,1/2+z
_cell_length_a                   13.0970(7)
_cell_length_b                   7.0797(2)
_cell_length_c                   14.1771(5)
_cell_angle_alpha                90
_cell_angle_beta                 101.260(4)
_cell_angle_gamma                90
_cell_volume                     1289.24
loop_
_atom_site_label
_atom_site_type_symbol
_atom_site_fract_x
_atom_site_fract_y
_atom_site_fract_z
O1 O 0.5620(2) 0.8147(4) 0.4600(2)
Ni1 Ni 0.52595(4) 0.53923(7) 0.39941(3)
O2 O 0.59595(18) 0.4328(3) 0.52743(15)
O3 O 0.4810(2) 0.6781(4) 0.27090(16)
N1 N 0.6552(2) 0.5023(4) 0.34904(18)
C1 C 0.7432(3) 0.4407(5) 0.3954(2)
H1 H 0.7963 0.4288 0.3608
C2 C 0.6961(3) 0.4014(5) 0.5573(2)
C3 C 0.6457(3) 0.5634(5) 0.2488(2)
H2 H 0.6414 0.4539 0.2071
H3 H 0.7066 0.6359 0.2419
C4 C 0.5487(3) 0.6837(5) 0.2200(2)
C5 C 0.7678(3) 0.3884(5) 0.4957(2)
C6 C 0.9488(3) 0.2876(6) 0.4779(3)
H4 H 0.9309 0.3043 0.4117
C7 C 0.8740(3) 0.3264(5) 0.5347(3)
C8 C 0.7335(3) 0.3819(6) 0.6583(3)
H5 H 0.6881 0.4017 0.7002
C9 C 0.9057(3) 0.3002(6) 0.6346(3)
C10 C 0.6496(4) 0.9278(6) 0.4548(3)
H6 H 0.6562 0.9407 0.3888
H7 H 0.7111 0.8692 0.4908
H8 H 0.6410 1.0503 0.4812
C11 C 0.8328(3) 0.3357(6) 0.6940(3)
H9 H 0.8545 0.3266 0.7603
C12 C 1.0465(4) 0.2263(6) 0.5172(3)
H10 H 1.0932 0.1996 0.4774
C13 C 1.0773(4) 0.2030(6) 0.6165(3)
H11 H 1.1443 0.1621 0.6428
C14 C 1.0091(3) 0.2403(6) 0.6738(3)
H12 H 1.0299 0.2268 0.7401
O4 O 0.5439(2) 0.7808(3) 0.14445(16)
H13 H 0.572(4) 0.821(8) 0.5201(8)
Ni1A Ni 0.47405(4) 1.03923(7) 0.10059(3)
Ni1B Ni 0.47405(4) 0.46077(7) 0.60059(3)
O2B O 0.40405(18) 0.5672(3) 0.47257(15)
O4A O 0.4561(2) 0.2808(3) 0.35555(16)
loop_
_geom_bond_atom_site_label_1
_geom_bond_atom_site_label_2
_geom_bond_site_symmetry_1
_geom_bond_site_symmetry_2
O1 Ni1 1_555 1_555
Ni1 O2 1_555 1_555
O2 C2 1_555 1_555
O3 Ni1 1_555 1_555
N1 Ni1 1_555 1_555
C1 N1 1_555 1_555
H1 C1 1_555 1_555
C2 C5 1_555 1_555
C3 N1 1_555 1_555
H2 C3 1_555 1_555
H3 C3 1_555 1_555
C4 O3 1_555 1_555
C5 C1 1_555 1_555
C6 H4 1_555 1_555
C7 C5 1_555 1_555
C8 C2 1_555 1_555
H5 C8 1_555 1_555
C9 C7 1_555 1_555
C10 O1 1_555 1_555
H6 C10 1_555 1_555
H7 C10 1_555 1_555
H8 C10 1_555 1_555
C11 C8 1_555 1_555
H9 C11 1_555 1_555
C12 C6 1_555 1_555
H10 C12 1_555 1_555
C13 C12 1_555 1_555
H11 C13 1_555 1_555
C14 C9 1_555 1_555
H12 C14 1_555 1_555
O4 C4 1_555 1_555
H13 O1 1_555 1_555
Ni1A O4 1_555 1_555
Ni1B O2 1_555 1_555
O2B Ni1 1_555 1_555
O4A Ni1 1_555 1_555
C3 C4 1_555 1_555
C6 C7 1_555 1_555
C9 C11 1_555 1_555
C13 C14 1_555 1_555
Ni1B O2B 1_555 1_555

#END
