
#######################################################################
#
#                 Cambridge Crystallographic Data Centre
#                                CCDC 
#
#######################################################################
#
# If this CIF has been generated from an entry in the Cambridge 
# Structural Database, then it will include bibliographic, chemical, 
# crystal, experimental, refinement or atomic coordinate data resulting 
# from the CCDC's data processing and validation procedures.
#
#######################################################################

data_DOCXUP
_symmetry_cell_setting           monoclinic
_symmetry_space_group_name_H-M   'P 21/c'
_symmetry_Int_Tables_number      14
_space_group_name_Hall           '-P 2ybc'
loop_
_symmetry_equiv_pos_site_id
_symmetry_equiv_pos_as_xyz
1 x,y,z
2 -x,1/2+y,1/2-z
3 -x,-y,-z
4 x,1/2-y,1/2+z
_cell_length_a                   9.0108(15)
_cell_length_b                   9.5953(16)
_cell_length_c                   14.481(2)
_cell_angle_alpha                90
_cell_angle_beta                 90.652(4)
_cell_angle_gamma                90
_cell_volume                     1251.97
loop_
_atom_site_label
_atom_site_type_symbol
_atom_site_fract_x
_atom_site_fract_y
_atom_site_fract_z
Mn1 Mn 0.0000 0.5000 0.5000
S1 S -0.22277(5) 0.92474(5) 0.37175(3)
N1 N 0.43050(14) 0.54232(14) 0.36131(9)
N2 N 0.23037(14) 0.55629(14) 0.44807(9)
N3 N 0.84922(14) 0.45815(14) 0.21344(9)
N4 N 0.93135(14) 0.43557(14) 0.35681(9)
N5 N -0.07431(17) 0.71643(15) 0.47136(10)
C1 C 0.53070(18) 0.49335(17) 0.28935(12)
H1 H 0.4900 0.4066 0.2620
H2 H 0.6282 0.4708 0.3178
C2 C 0.55302(18) 0.60011(17) 0.21281(11)
H3 H 0.6164 0.6766 0.2366
H4 H 0.4556 0.6405 0.1953
C3 C 0.62491(18) 0.53774(19) 0.12657(11)
H5 H 0.5839 0.4431 0.1166
H6 H 0.5958 0.5952 0.0725
C4 C 0.79410(18) 0.52746(19) 0.12992(11)
H7 H 0.8283 0.4753 0.0752
H8 H 0.8367 0.6224 0.1269
C5 C 0.29409(18) 0.49218(17) 0.37791(11)
H9 H 0.2487 0.4193 0.3434
C6 C 0.33369(18) 0.65289(18) 0.47760(11)
H10 H 0.3203 0.7156 0.5276
C7 C 0.45741(18) 0.64563(18) 0.42512(12)
H11 H 0.5446 0.7006 0.4312
C8 C 0.90162(17) 0.52347(17) 0.28906(11)
H12 H 0.9156 0.6214 0.2933
C9 C 0.89595(17) 0.30550(17) 0.32191(11)
H13 H 0.9059 0.2201 0.3546
C10 C 0.84478(18) 0.31851(17) 0.23373(11)
H14 H 0.8124 0.2455 0.1940
C11 C -0.13543(17) 0.80377(16) 0.43012(11)
Mn1_2 Mn 1.0000 0.5000 0.5000
Mn1_3 Mn -1.0000 0.5000 0.5000
S1B S 0.22277(5) 0.07526(5) 0.62825(3)
N1B N -0.43050(14) 0.45768(14) 0.63869(9)
N2B N -0.23037(14) 0.44371(14) 0.55193(9)
N3B N -0.84922(14) 0.54185(14) 0.78656(9)
N4B N -0.93135(14) 0.56443(14) 0.64319(9)
N4_2 N -0.06865(14) 0.43557(14) 0.35681(9)
N4B_2 N 0.06865(14) 0.56443(14) 0.64319(9)
N5B N 0.07431(17) 0.28357(15) 0.52864(10)
C1B C -0.53070(18) 0.50665(17) 0.71065(12)
H1B H -0.4900 0.5934 0.7380
H2B H -0.6282 0.5292 0.6822
C2B C -0.55302(18) 0.39989(17) 0.78719(11)
H3B H -0.6164 0.3234 0.7634
H4B H -0.4556 0.3595 0.8047
C3B C -0.62491(18) 0.46226(19) 0.87343(11)
H5B H -0.5839 0.5569 0.8834
H6B H -0.5958 0.4048 0.9275
C4B C -0.79410(18) 0.47254(19) 0.87008(11)
H7B H -0.8283 0.5247 0.9248
H8B H -0.8367 0.3776 0.8731
C5B C -0.29409(18) 0.50782(17) 0.62209(11)
H9B H -0.2487 0.5807 0.6566
C6B C -0.33369(18) 0.34711(18) 0.52240(11)
H10B H -0.3203 0.2844 0.4724
C7B C -0.45741(18) 0.35437(18) 0.57488(12)
H11B H -0.5446 0.2994 0.5688
C8B C -0.90162(17) 0.47653(17) 0.71094(11)
H12B H -0.9156 0.3786 0.7067
C9B C -0.89595(17) 0.69450(17) 0.67809(11)
H13B H -0.9059 0.7799 0.6454
C10B C -0.84478(18) 0.68149(17) 0.76627(11)
H14B H -0.8124 0.7545 0.8060
C11B C 0.13543(17) 0.19623(16) 0.56988(11)
loop_
_geom_bond_atom_site_label_1
_geom_bond_atom_site_label_2
_geom_bond_site_symmetry_1
_geom_bond_site_symmetry_2
Mn1 N2 1_555 1_555
S1 C11 1_555 1_555
N1 C1 1_555 1_555
N2 C5 1_555 1_555
N3 C4 1_555 1_555
N4 C8 1_555 1_555
N5 Mn1 1_555 1_555
C1 H1 1_555 1_555
H2 C1 1_555 1_555
C2 C1 1_555 1_555
H3 C2 1_555 1_555
H4 C2 1_555 1_555
C3 C2 1_555 1_555
H5 C3 1_555 1_555
H6 C3 1_555 1_555
C4 C3 1_555 1_555
H7 C4 1_555 1_555
H8 C4 1_555 1_555
C5 N1 1_555 1_555
H9 C5 1_555 1_555
C6 N2 1_555 1_555
H10 C6 1_555 1_555
C7 N1 1_555 1_555
H11 C7 1_555 1_555
C8 N3 1_555 1_555
H12 C8 1_555 1_555
C9 N4 1_555 1_555
H13 C9 1_555 1_555
C10 N3 1_555 1_555
H14 C10 1_555 1_555
C11 N5 1_555 1_555
Mn1_2 N4 1_555 1_555
Mn1_3 N4B 1_555 1_555
S1B C11B 1_555 1_555
N1B C1B 1_555 1_555
N2B Mn1 1_555 1_555
N3B C4B 1_555 1_555
N4B C8B 1_555 1_555
N4_2 Mn1 1_555 1_555
N4B_2 Mn1 1_555 1_555
N5B Mn1 1_555 1_555
C1B H1B 1_555 1_555
H2B C1B 1_555 1_555
C2B C1B 1_555 1_555
H3B C2B 1_555 1_555
H4B C2B 1_555 1_555
C3B C2B 1_555 1_555
H5B C3B 1_555 1_555
H6B C3B 1_555 1_555
C4B C3B 1_555 1_555
H7B C4B 1_555 1_555
H8B C4B 1_555 1_555
C5B N1B 1_555 1_555
H9B C5B 1_555 1_555
C6B N2B 1_555 1_555
H10B C6B 1_555 1_555
C7B N1B 1_555 1_555
H11B C7B 1_555 1_555
C8B N3B 1_555 1_555
H12B C8B 1_555 1_555
C9B N4B 1_555 1_555
H13B C9B 1_555 1_555
C10B N3B 1_555 1_555
H14B C10B 1_555 1_555
C11B N5B 1_555 1_555
C6 C7 1_555 1_555
C9 C10 1_555 1_555
N2B C5B 1_555 1_555
C6B C7B 1_555 1_555
C9B C10B 1_555 1_555

#END
