
#######################################################################
#
#                 Cambridge Crystallographic Data Centre
#                                CCDC 
#
#######################################################################
#
# If this CIF has been generated from an entry in the Cambridge 
# Structural Database, then it will include bibliographic, chemical, 
# crystal, experimental, refinement or atomic coordinate data resulting 
# from the CCDC's data processing and validation procedures.
#
#######################################################################

data_DODJIQ
_symmetry_cell_setting           monoclinic
_symmetry_space_group_name_H-M   'C 2/c'
_symmetry_Int_Tables_number      15
_space_group_name_Hall           '-C 2yn'
loop_
_symmetry_equiv_pos_site_id
_symmetry_equiv_pos_as_xyz
1 x,y,z
2 1/2+x,1/2+y,z
3 -x,y,1/2-z
4 1/2-x,1/2+y,1/2-z
5 -x,-y,-z
6 1/2-x,1/2-y,-z
7 x,-y,1/2+z
8 1/2+x,1/2-y,1/2+z
_cell_length_a                   10.880(4)
_cell_length_b                   19.958(6)
_cell_length_c                   13.511(4)
_cell_angle_alpha                90
_cell_angle_beta                 101.981(5)
_cell_angle_gamma                90
_cell_volume                     2869.91
loop_
_atom_site_label
_atom_site_type_symbol
_atom_site_fract_x
_atom_site_fract_y
_atom_site_fract_z
Cd1 Cd 0.5000 0.277794(16) 0.2500
O1 O 0.3147(3) 0.33929(16) 0.1153(2)
O2 O 0.3520(2) 0.35742(13) 0.27517(18)
N1 N 0.4654(2) 0.24074(11) 0.41608(17)
N2 N 0.3469(2) 0.18724(12) 0.23589(18)
C1 C 0.5219(3) 0.26664(15) 0.5037(2)
H1 H 0.5859 0.2976 0.5042
C2 C 0.4904(3) 0.24989(18) 0.5959(2)
H2 H 0.5325 0.2695 0.6558
C3 C 0.3983(3) 0.20495(16) 0.5966(2)
H3 H 0.3757 0.1936 0.6572
C4 C 0.3366(3) 0.17540(15) 0.5057(2)
C5 C 0.2413(3) 0.12631(16) 0.5018(3)
H4 H 0.2163 0.1138 0.5609
C6 C 0.1867(3) 0.09780(17) 0.4135(3)
H5 H 0.1252 0.0653 0.4125
C7 C 0.2216(3) 0.11642(15) 0.3214(2)
C8 C 0.1692(3) 0.08637(17) 0.2281(3)
H6 H 0.1100 0.0524 0.2248
C9 C 0.2057(3) 0.10726(17) 0.1426(3)
H7 H 0.1721 0.0877 0.0805
C10 C 0.2935(3) 0.15804(16) 0.1499(2)
H8 H 0.3164 0.1725 0.0908
C11 C 0.3123(3) 0.16609(14) 0.3214(2)
C12 C 0.3733(3) 0.19501(14) 0.4169(2)
C13 C 0.2896(3) 0.36773(15) 0.1882(2)
C14 C 0.1820(3) 0.41731(16) 0.1745(2)
H9 H 0.1146 0.3977 0.2018
H10 H 0.2105 0.4570 0.2142
C15 C 0.1294(3) 0.43871(15) 0.0668(2)
H11 H 0.0986 0.3993 0.0274
H12 H 0.1971 0.4574 0.0388
C16 C 0.0242(3) 0.48960(16) 0.0549(2)
H13 H 0.0542 0.5290 0.0947
H14 H -0.0446 0.4708 0.0814
Cd1F Cd -0.5000 0.722206(16) -0.2500
O1D O -0.3147(3) 0.66071(16) -0.1153(2)
O2D O -0.3520(2) 0.64258(13) -0.27517(18)
O2B O 0.6480(2) 0.35742(13) 0.22483(18)
N1B N 0.5346(2) 0.24074(11) 0.08392(17)
N2B N 0.6531(2) 0.18724(12) 0.26411(18)
C1B C 0.4781(3) 0.26664(15) -0.0037(2)
H1B H 0.4141 0.2976 -0.0042
C2B C 0.5096(3) 0.24989(18) -0.0959(2)
H2B H 0.4675 0.2695 -0.1558
C3B C 0.6017(3) 0.20495(16) -0.0966(2)
H3B H 0.6243 0.1936 -0.1572
C4B C 0.6634(3) 0.17540(15) -0.0057(2)
C5B C 0.7587(3) 0.12631(16) -0.0018(3)
H4B H 0.7837 0.1138 -0.0609
C6B C 0.8133(3) 0.09780(17) 0.0865(3)
H5B H 0.8748 0.0653 0.0875
C7B C 0.7784(3) 0.11642(15) 0.1786(2)
C8B C 0.8308(3) 0.08637(17) 0.2719(3)
H6B H 0.8900 0.0524 0.2752
C9B C 0.7943(3) 0.10726(17) 0.3574(3)
H7B H 0.8279 0.0877 0.4195
C10B C 0.7065(3) 0.15804(16) 0.3501(2)
H8B H 0.6836 0.1725 0.4092
C11B C 0.6877(3) 0.16609(14) 0.1786(2)
C12B C 0.6267(3) 0.19501(14) 0.0831(2)
C13D C -0.2896(3) 0.63227(15) -0.1882(2)
C14D C -0.1820(3) 0.58269(16) -0.1745(2)
H9D H -0.1146 0.6023 -0.2018
H10D H -0.2105 0.5430 -0.2142
C15D C -0.1294(3) 0.56129(15) -0.0668(2)
H11D H -0.0986 0.6007 -0.0274
H12D H -0.1971 0.5426 -0.0388
C16D C -0.0242(3) 0.51040(16) -0.0549(2)
H13D H -0.0542 0.4710 -0.0947
H14D H 0.0446 0.5292 -0.0814
O3 O -0.0004(3) 0.04093(15) 0.6014(2)
H15 H 0.0417 0.0729 0.6364
H16 H 0.0280 0.0281 0.5488
loop_
_geom_bond_atom_site_label_1
_geom_bond_atom_site_label_2
_geom_bond_site_symmetry_1
_geom_bond_site_symmetry_2
Cd1 O2 1_555 1_555
O1 C13 1_555 1_555
O2 C13 1_555 1_555
N1 Cd1 1_555 1_555
N2 Cd1 1_555 1_555
C1 N1 1_555 1_555
H1 C1 1_555 1_555
C2 C1 1_555 1_555
H2 C2 1_555 1_555
C3 C2 1_555 1_555
H3 C3 1_555 1_555
C4 C3 1_555 1_555
C5 C4 1_555 1_555
H4 C5 1_555 1_555
C6 C5 1_555 1_555
H5 C6 1_555 1_555
C7 C6 1_555 1_555
C8 C7 1_555 1_555
H6 C8 1_555 1_555
C9 C8 1_555 1_555
H7 C9 1_555 1_555
C10 N2 1_555 1_555
H8 C10 1_555 1_555
C11 N2 1_555 1_555
C12 N1 1_555 1_555
C13 C14 1_555 1_555
C14 H9 1_555 1_555
H10 C14 1_555 1_555
C15 C14 1_555 1_555
H11 C15 1_555 1_555
H12 C15 1_555 1_555
C16 C15 1_555 1_555
H13 C16 1_555 1_555
H14 C16 1_555 1_555
O3 H15 1_555 1_555
H16 O3 1_555 1_555
Cd1F O2D 1_555 1_555
O1D C13D 1_555 1_555
O2D C13D 1_555 1_555
O2B Cd1 1_555 1_555
N1B Cd1 1_555 1_555
N2B Cd1 1_555 1_555
C1B N1B 1_555 1_555
H1B C1B 1_555 1_555
C2B C1B 1_555 1_555
H2B C2B 1_555 1_555
C3B C2B 1_555 1_555
H3B C3B 1_555 1_555
C4B C3B 1_555 1_555
C5B C4B 1_555 1_555
H4B C5B 1_555 1_555
C6B C5B 1_555 1_555
H5B C6B 1_555 1_555
C7B C6B 1_555 1_555
C8B C7B 1_555 1_555
H6B C8B 1_555 1_555
C9B C8B 1_555 1_555
H7B C9B 1_555 1_555
C10B N2B 1_555 1_555
H8B C10B 1_555 1_555
C11B N2B 1_555 1_555
C12B N1B 1_555 1_555
C13D C14D 1_555 1_555
C14D H9D 1_555 1_555
H10D C14D 1_555 1_555
C15D C14D 1_555 1_555
H11D C15D 1_555 1_555
H12D C15D 1_555 1_555
C16D C16 1_555 1_555
H13D C16D 1_555 1_555
H14D C16D 1_555 1_555
C4 C12 1_555 1_555
C7 C11 1_555 1_555
C9 C10 1_555 1_555
C11 C12 1_555 1_555
C4B C12B 1_555 1_555
C7B C11B 1_555 1_555
C9B C10B 1_555 1_555
C11B C12B 1_555 1_555
C15D C16D 1_555 1_555

#END
