
#######################################################################
#
#                 Cambridge Crystallographic Data Centre
#                                CCDC 
#
#######################################################################
#
# If this CIF has been generated from an entry in the Cambridge 
# Structural Database, then it will include bibliographic, chemical, 
# crystal, experimental, refinement or atomic coordinate data resulting 
# from the CCDC's data processing and validation procedures.
#
#######################################################################

data_DODJUC
_symmetry_cell_setting           triclinic
_symmetry_space_group_name_H-M   'P -1'
_symmetry_Int_Tables_number      2
_space_group_name_Hall           '-P 1'
loop_
_symmetry_equiv_pos_site_id
_symmetry_equiv_pos_as_xyz
1 x,y,z
2 -x,-y,-z
_cell_length_a                   8.128(2)
_cell_length_b                   9.862(2)
_cell_length_c                   15.788(3)
_cell_angle_alpha                85.73(3)
_cell_angle_beta                 85.77(3)
_cell_angle_gamma                67.31(3)
_cell_volume                     1162.96
loop_
_atom_site_label
_atom_site_type_symbol
_atom_site_fract_x
_atom_site_fract_y
_atom_site_fract_z
Hg1 Hg -1.10313(5) 1.03494(4) -0.25684(2)
I1 I -1.36097(9) 1.24816(8) -0.17832(5)
I2 I -0.89379(9) 0.88780(7) -0.38187(4)
C1 C -0.8596(18) 0.7261(12) -0.1551(7)
H1 H -0.8118 0.7105 -0.2105
C2 C -0.7882(19) 0.6156(12) -0.0925(8)
H2 H -0.6910 0.5305 -0.1061
C3 C -0.8605(14) 0.6318(10) -0.0109(6)
C4 C -0.9931(16) 0.7637(13) 0.0054(7)
H3 H -1.0411 0.7826 0.0606
C5 C -1.0566(16) 0.8691(12) -0.0587(6)
H4 H -1.1493 0.9572 -0.0453
C6 C -0.7973(13) 0.5189(10) 0.0570(6)
H5 H -0.8531 0.5399 0.1107
C7 C -0.6673(15) 0.3895(12) 0.0483(7)
H6 H -0.6126 0.3725 -0.0059
C8 C -0.5965(13) 0.2680(10) 0.1121(6)
C9 C -0.4705(16) 0.1375(12) 0.0879(7)
H7 H -0.4341 0.1262 0.0308
C10 C -0.3942(15) 0.0200(11) 0.1462(7)
H8 H -0.3060 -0.0667 0.1276
C11 C -0.4481(11) 0.0313(9) 0.2304(6)
C12 C -0.5789(14) 0.1637(11) 0.2560(6)
H9 H -0.6186 0.1739 0.3128
C13 C -0.6499(15) 0.2797(12) 0.1977(7)
H10 H -0.7355 0.3677 0.2162
C14 C -0.3748(12) -0.0928(9) 0.2904(6)
C15 C -0.3458(14) -0.2601(11) 0.4100(7)
C16 C -0.1756(13) -0.3186(9) 0.3510(7)
C17 C -0.3200(19) -0.2003(15) 0.4935(7)
H11 H -0.2578 -0.1353 0.4811
H12 H -0.2517 -0.2808 0.5306
H13 H -0.4346 -0.1475 0.5206
C18 C -0.4460(18) -0.3640(13) 0.4287(10)
H14 H -0.5491 -0.3181 0.4656
H15 H -0.3686 -0.4542 0.4557
H16 H -0.4829 -0.3844 0.3763
C19 C -0.0008(16) -0.3481(14) 0.3919(9)
H17 H 0.0965 -0.3845 0.3504
H18 H 0.0147 -0.4200 0.4382
H19 H -0.0030 -0.2584 0.4128
C20 C -0.1589(19) -0.4521(11) 0.3009(9)
H20 H -0.0501 -0.4821 0.2661
H21 H -0.2587 -0.4254 0.2654
H22 H -0.1576 -0.5319 0.3400
N1 N -0.4615(10) -0.1290(9) 0.3591(5)
N2 N -0.2098(10) -0.1954(8) 0.2858(5)
N3 N -0.9928(11) 0.8523(8) -0.1390(5)
O1 O -0.6266(9) -0.0592(8) 0.3809(4)
O2 O -0.0851(8) -0.1981(7) 0.2287(4)
Hg1A Hg -0.89687(5) -0.03494(4) 0.25684(2)
Hg1A_2 Hg 0.10313(5) -0.03494(4) 0.25684(2)
O1A O -1.3734(9) 1.0592(8) -0.3809(4)
O2A O -0.9149(8) 1.1981(7) -0.2287(4)
loop_
_geom_bond_atom_site_label_1
_geom_bond_atom_site_label_2
_geom_bond_site_symmetry_1
_geom_bond_site_symmetry_2
Hg1 I1 1_555 1_555
I2 Hg1 1_555 1_555
C1 H1 1_555 1_555
C2 C1 1_555 1_555
H2 C2 1_555 1_555
C3 C2 1_555 1_555
C4 C3 1_555 1_555
H3 C4 1_555 1_555
C5 C4 1_555 1_555
H4 C5 1_555 1_555
C6 C3 1_555 1_555
H5 C6 1_555 1_555
C7 C6 1_555 1_555
H6 C7 1_555 1_555
C8 C7 1_555 1_555
C9 C8 1_555 1_555
H7 C9 1_555 1_555
C10 C9 1_555 1_555
H8 C10 1_555 1_555
C11 C10 1_555 1_555
C12 C11 1_555 1_555
H9 C12 1_555 1_555
C13 C8 1_555 1_555
H10 C13 1_555 1_555
C14 C11 1_555 1_555
C15 C16 1_555 1_555
C16 C19 1_555 1_555
C17 C15 1_555 1_555
H11 C17 1_555 1_555
H12 C17 1_555 1_555
H13 C17 1_555 1_555
C18 C15 1_555 1_555
H14 C18 1_555 1_555
H15 C18 1_555 1_555
H16 C18 1_555 1_555
C19 H17 1_555 1_555
H18 C19 1_555 1_555
H19 C19 1_555 1_555
C20 C16 1_555 1_555
H20 C20 1_555 1_555
H21 C20 1_555 1_555
H22 C20 1_555 1_555
N1 C14 1_555 1_555
N2 C14 1_555 1_555
N3 Hg1 1_555 1_555
O1 N1 1_555 1_555
O2 N2 1_555 1_555
Hg1A O1 1_555 1_555
Hg1A_2 O2 1_555 1_555
O1A Hg1 1_555 1_555
O2A Hg1 1_555 1_555
C1 N3 1_555 1_555
C5 N3 1_555 1_555
C12 C13 1_555 1_555
C15 N1 1_555 1_555
C16 N2 1_555 1_555

#END
