
#######################################################################
#
#                 Cambridge Crystallographic Data Centre
#                                CCDC 
#
#######################################################################
#
# If this CIF has been generated from an entry in the Cambridge 
# Structural Database, then it will include bibliographic, chemical, 
# crystal, experimental, refinement or atomic coordinate data resulting 
# from the CCDC's data processing and validation procedures.
#
#######################################################################

data_DODKEN
_symmetry_cell_setting           triclinic
_symmetry_space_group_name_H-M   'P -1'
_symmetry_Int_Tables_number      2
_space_group_name_Hall           '-P 1'
loop_
_symmetry_equiv_pos_site_id
_symmetry_equiv_pos_as_xyz
1 x,y,z
2 -x,-y,-z
_cell_length_a                   8.0413(5)
_cell_length_b                   11.7508(7)
_cell_length_c                   11.8844(7)
_cell_angle_alpha                100.9930(10)
_cell_angle_beta                 103.9420(10)
_cell_angle_gamma                102.6500(10)
_cell_volume                     1027.7
loop_
_atom_site_label
_atom_site_type_symbol
_atom_site_fract_x
_atom_site_fract_y
_atom_site_fract_z
Zn1 Zn 0.46438(9) 0.83606(6) 0.57356(6)
Zn2 Zn 0.10166(10) 0.53242(6) 0.37213(6)
Zn3 Zn -0.09313(10) 0.78178(6) 0.38504(7)
P1 P 0.2714(2) 0.89730(14) 0.33779(15)
P2 P 0.0290(2) 0.65267(14) 0.17147(15)
P3 P 0.1237(2) 0.70966(13) 0.61533(14)
P4 P -0.2763(2) 0.66899(14) 0.55278(15)
O1 O 0.4035(6) 0.8423(4) 0.4077(4)
O3 O 0.1220(6) 0.9096(4) 0.3931(4)
O4 O 0.3654(7) 1.0167(4) 0.3220(5)
O5 O 0.1426(7) 0.5845(4) 0.2362(4)
O6 O -0.1189(6) 0.6739(4) 0.2251(4)
O7 O -0.0501(7) 0.5887(4) 0.0381(4)
O8 O 0.0610(12) 0.8646(7) 0.1095(7)
H3 H 0.0139 0.8212 0.0379
O9 O 0.0796(6) 0.6734(4) 0.4783(4)
O10 O 0.2992(6) 0.8075(4) 0.6703(4)
O11 O 0.1179(6) 0.6015(4) 0.6687(4)
O12 O -0.2938(6) 0.6754(4) 0.4238(4)
O13 O -0.2822(6) 0.5446(4) 0.5712(4)
O14 O -0.4161(6) 0.7123(4) 0.6010(4)
O15 O -0.0297(7) 0.8762(4) 0.5882(5)
H4 H -0.070(12) 0.917(8) 0.607(8)
O16 O -0.2616(7) 0.8920(5) 0.3409(5)
H5 H -0.3058 0.8744 0.2651
H6 H -0.3452 0.8799 0.3732
C1 C 0.1699(9) 0.8020(6) 0.1825(6)
C2 C 0.3126(8) 0.7867(5) 0.1334(5)
H13 H 0.2643 0.7374 0.0524
H14 H 0.3839 0.8641 0.1342
H15 H 0.3852 0.7482 0.1812
C3 C -0.0549(8) 0.7752(5) 0.6420(6)
C4 C -0.0355(10) 0.8142(7) 0.7747(6)
H16 H 0.0810 0.8684 0.8158
H17 H -0.1245 0.8543 0.7862
H18 H -0.0506 0.7444 0.8061
Zn1A Zn 0.53562(9) 1.16394(6) 0.42644(6)
Zn1_2 Zn -0.53562(9) 0.83606(6) 0.57356(6)
Zn2A Zn -0.10166(10) 0.46758(6) 0.62787(6)
O4A O 0.6346(7) 0.9833(4) 0.6780(5)
O11A O -0.1179(6) 0.3985(4) 0.3313(4)
O13A O 0.2822(6) 0.4554(4) 0.4288(4)
O14_2 O 0.5839(6) 0.7123(4) 0.6010(4)
O2 O 0.532(2) 0.9994(14) 0.1144(13)
H1 H 0.6331 0.9989 0.1042
H2 H 0.4499 0.9517 0.0541
N1 N -0.4585(10) 0.4490(7) 0.2643(7)
H7 H -0.5105 0.3755 0.2717
H8 H -0.3561 0.4245 0.2660
H9 H -0.4700 0.4830 0.3361
N2 N -0.510(5) 0.422(3) -0.075(3)
H10 H -0.4494 0.3757 -0.1062
H11 H -0.4564 0.4989 -0.0658
H12 H -0.6207 0.4022 -0.1231
C5 C -0.5854(19) 0.4261(16) 0.1543(12)
H19 H -0.6330 0.4950 0.1529
H20 H -0.6828 0.3571 0.1468
C6 C -0.515(6) 0.401(4) 0.045(3)
H21 H -0.3879 0.4233 0.0858
H22 H -0.5497 0.3135 0.0243
loop_
_geom_bond_atom_site_label_1
_geom_bond_atom_site_label_2
_geom_bond_site_symmetry_1
_geom_bond_site_symmetry_2
Zn1 O1 1_555 1_555
Zn2 O5 1_555 1_555
Zn3 O3 1_555 1_555
P1 O1 1_555 1_555
P2 O5 1_555 1_555
P3 O9 1_555 1_555
P4 O12 1_555 1_555
O2 H1 1_555 1_555
H2 O2 1_555 1_555
O3 P1 1_555 1_555
O4 P1 1_555 1_555
O6 Zn3 1_555 1_555
O7 P2 1_555 1_555
O8 H3 1_555 1_555
O9 Zn2 1_555 1_555
O10 Zn1 1_555 1_555
O11 P3 1_555 1_555
O12 Zn3 1_555 1_555
O13 P4 1_555 1_555
O14 P4 1_555 1_555
O15 Zn3 1_555 1_555
H4 O15 1_555 1_555
O16 Zn3 1_555 1_555
H5 O16 1_555 1_555
H6 O16 1_555 1_555
N1 H7 1_555 1_555
H8 N1 1_555 1_555
H9 N1 1_555 1_555
N2 H10 1_555 1_555
H11 N2 1_555 1_555
H12 N2 1_555 1_555
C1 P1 1_555 1_555
C2 C1 1_555 1_555
H13 C2 1_555 1_555
H14 C2 1_555 1_555
H15 C2 1_555 1_555
C3 P3 1_555 1_555
C4 C3 1_555 1_555
H16 C4 1_555 1_555
H17 C4 1_555 1_555
H18 C4 1_555 1_555
C5 N1 1_555 1_555
H19 C5 1_555 1_555
H20 C5 1_555 1_555
C6 N2 1_555 1_555
H21 C6 1_555 1_555
H22 C6 1_555 1_555
Zn1A O4 1_555 1_555
Zn1_2 O14 1_555 1_555
Zn2A O11 1_555 1_555
O4A Zn1 1_555 1_555
O11A Zn2 1_555 1_555
O13A Zn2 1_555 1_555
O14_2 Zn1 1_555 1_555
Zn3 O9 1_555 1_555
P2 O6 1_555 1_555
P2 C1 1_555 1_555
P3 O10 1_555 1_555
P4 C3 1_555 1_555
O8 C1 1_555 1_555
O13 Zn2A 1_555 1_555
O15 C3 1_555 1_555
C5 C6 1_555 1_555

#END
