
#######################################################################
#
#                 Cambridge Crystallographic Data Centre
#                                CCDC 
#
#######################################################################
#
# If this CIF has been generated from an entry in the Cambridge 
# Structural Database, then it will include bibliographic, chemical, 
# crystal, experimental, refinement or atomic coordinate data resulting 
# from the CCDC's data processing and validation procedures.
#
#######################################################################

data_DODLOY
_symmetry_cell_setting           monoclinic
_symmetry_space_group_name_H-M   'C 2/c'
_symmetry_Int_Tables_number      15
_space_group_name_Hall           '-C 2yn'
loop_
_symmetry_equiv_pos_site_id
_symmetry_equiv_pos_as_xyz
1 x,y,z
2 1/2+x,1/2+y,z
3 -x,y,1/2-z
4 1/2-x,1/2+y,1/2-z
5 -x,-y,-z
6 1/2-x,1/2-y,-z
7 x,-y,1/2+z
8 1/2+x,1/2-y,1/2+z
_cell_length_a                   26.2699(4)
_cell_length_b                   16.0274(2)
_cell_length_c                   7.6724(1)
_cell_angle_alpha                90
_cell_angle_beta                 93.345(1)
_cell_angle_gamma                90
_cell_volume                     3224.87
loop_
_atom_site_label
_atom_site_type_symbol
_atom_site_fract_x
_atom_site_fract_y
_atom_site_fract_z
Tb1 Tb 0.178233(7) 0.462617(10) 0.033597(19)
C1 C 0.18196(15) 0.6650(2) 0.1843(5)
C2 C 0.18281(16) 0.7571(2) 0.1398(5)
H1 H 0.1814 0.7631 0.0138
H2 H 0.2150 0.7806 0.1852
C3 C 0.10125(19) 0.9408(3) 0.2666(7)
H3 H 0.1016 0.9986 0.2578
C4 C 0.13958(14) 0.8071(2) 0.2110(4)
C5 C 0.06080(19) 0.8162(4) 0.3558(7)
H4 H 0.0340 0.7898 0.4073
C6 C 0.09923(16) 0.7690(3) 0.2890(5)
H5 H 0.0980 0.7112 0.2965
C7 C 0.14058(15) 0.8941(3) 0.1986(5)
O1 O 0.17967(11) 0.61323(17) 0.0591(3)
C8 C 0.0620(2) 0.9018(4) 0.3465(8)
H6 H 0.0365 0.9333 0.3938
O2 O 0.18430(12) 0.64649(16) 0.3428(3)
C9 C 0.23044(15) 0.9488(2) 0.2436(5)
C10 C 0.18417(16) 0.9392(2) 0.1189(5)
H7 H 0.1938 0.9086 0.0168
H8 H 0.1726 0.9940 0.0807
O3 O 0.26962(10) 0.98686(17) 0.1920(3)
O4 O 0.23099(11) 0.92141(18) 0.3950(3)
O5 O 0.12689(10) 0.51266(17) -0.2130(3)
O6 O 0.08803(12) 0.5810(2) -0.4278(3)
O7 O 0.18023(13) 0.33627(17) 0.2124(4)
C11 C 0.09011(15) 0.5597(2) -0.2730(5)
C12 C 0.02384(15) 0.6670(3) -0.2022(5)
C13 C 0.05156(17) 0.5891(3) -0.1483(5)
H9 H 0.0689 0.5982 -0.0349
H10 H 0.0268 0.5450 -0.1353
C14 C 0.04618(19) 0.7443(3) -0.1611(6)
H11 H 0.0781 0.7452 -0.1018
C15 C 0.0231(2) 0.8183(3) -0.2044(8)
H12 H 0.0387 0.8685 -0.1719
Tb1F Tb 0.178233(7) 0.537383(10) -0.466403(19)
Tb1F_2 Tb 0.178233(7) 0.537383(10) 0.533597(19)
Tb1E Tb 0.321767(7) 1.037383(10) -0.033597(19)
Tb1C Tb 0.321767(7) 0.962617(10) 0.466403(19)
Tb1D Tb -0.178233(7) 0.537383(10) -0.033597(19)
Tb1B Tb -0.178233(7) 0.462617(10) -0.533597(19)
Tb1E_2 Tb 0.321767(7) 0.037383(10) -0.033597(19)
Tb1C_2 Tb 0.321767(7) -0.037383(10) -0.533597(19)
C1F C 0.18196(15) 0.3350(2) -0.3157(5)
C2F C 0.18281(16) 0.2429(2) -0.3602(5)
H1F H 0.1814 0.2369 -0.4862
H2F H 0.2150 0.2194 -0.3148
C3F C 0.10125(19) 0.0592(3) -0.2334(7)
H3F H 0.1016 0.0014 -0.2422
C4F C 0.13958(14) 0.1929(2) -0.2890(4)
C5F C 0.06080(19) 0.1838(4) -0.1442(7)
H4F H 0.0340 0.2102 -0.0927
C6F C 0.09923(16) 0.2310(3) -0.2110(5)
H5F H 0.0980 0.2888 -0.2035
C7F C 0.14058(15) 0.1059(3) -0.3014(5)
O1F O 0.17967(11) 0.38677(17) -0.4409(3)
C8F C 0.0620(2) 0.0982(4) -0.1535(8)
H6F H 0.0365 0.0667 -0.1062
O2F O 0.18430(12) 0.35351(16) -0.1572(3)
O2_2 O 0.18430(12) 0.64649(16) -0.6572(3)
C9F C 0.23044(15) 0.0512(2) -0.2564(5)
C10F C 0.18417(16) 0.0608(2) -0.3811(5)
H7F H 0.1938 0.0914 -0.4832
H8F H 0.1726 0.0060 -0.4193
O3F O 0.26962(10) 0.01314(17) -0.3080(3)
O3E O 0.23038(10) 0.51314(17) -0.1920(3)
O3C O 0.23038(10) 0.48686(17) 0.3080(3)
O3C_2 O 0.23038(10) 0.48686(17) -0.6920(3)
O4F O 0.23099(11) 0.07859(18) -0.1050(3)
O4C O 0.26901(11) 0.42141(18) 0.1050(3)
O4E O 0.26901(11) 0.57859(18) -0.3950(3)
O5B O -0.12689(10) 0.51266(17) -0.2870(3)
O5F O 0.12689(10) 0.48734(17) 0.2870(3)
O5F_2 O 0.12689(10) 0.48734(17) -0.7130(3)
O6B O -0.08803(12) 0.5810(2) -0.0722(3)
O6F O 0.08803(12) 0.4190(2) 0.0722(3)
O7F O 0.18023(13) 0.66373(17) -0.2876(4)
C11B C -0.09011(15) 0.5597(2) -0.2270(5)
C12B C -0.02384(15) 0.6670(3) -0.2978(5)
C13B C -0.05156(17) 0.5891(3) -0.3517(5)
H9B H -0.0689 0.5982 -0.4651
H10B H -0.0268 0.5450 -0.3647
C14B C -0.04618(19) 0.7443(3) -0.3389(6)
H11B H -0.0781 0.7452 -0.3982
C15B C -0.0231(2) 0.8183(3) -0.2956(8)
H12B H -0.0387 0.8685 -0.3281
O8 O 0.17389(18) 0.1682(2) 0.1464(5)
loop_
_geom_bond_atom_site_label_1
_geom_bond_atom_site_label_2
_geom_bond_site_symmetry_1
_geom_bond_site_symmetry_2
Tb1 O1 1_555 1_555
C1 C2 1_555 1_555
C2 H1 1_555 1_555
H2 C2 1_555 1_555
C3 H3 1_555 1_555
C4 C2 1_555 1_555
C5 H4 1_555 1_555
C6 C4 1_555 1_555
H5 C6 1_555 1_555
C7 C3 1_555 1_555
O1 C1 1_555 1_555
C8 C3 1_555 1_555
H6 C8 1_555 1_555
O2 C1 1_555 1_555
C9 C10 1_555 1_555
C10 C7 1_555 1_555
H7 C10 1_555 1_555
H8 C10 1_555 1_555
O3 C9 1_555 1_555
O4 C9 1_555 1_555
O5 Tb1 1_555 1_555
O6 C11 1_555 1_555
O7 Tb1 1_555 1_555
C11 O5 1_555 1_555
C12 C13 1_555 1_555
C13 C11 1_555 1_555
H9 C13 1_555 1_555
H10 C13 1_555 1_555
C14 C12 1_555 1_555
H11 C14 1_555 1_555
C15 C14 1_555 1_555
H12 C15 1_555 1_555
Tb1F O5 1_555 1_555
Tb1F_2 O2 1_555 1_555
Tb1E O3 1_555 1_555
Tb1C O3 1_555 1_555
Tb1D O5B 1_555 1_555
Tb1B O5B 1_555 1_555
Tb1E_2 O3F 1_555 1_555
Tb1C_2 O3F 1_555 1_555
C1F C2F 1_555 1_555
C2F H1F 1_555 1_555
H2F C2F 1_555 1_555
C3F H3F 1_555 1_555
C4F C2F 1_555 1_555
C5F H4F 1_555 1_555
C6F C4F 1_555 1_555
H5F C6F 1_555 1_555
C7F C3F 1_555 1_555
O1F Tb1F 1_555 1_555
C8F C3F 1_555 1_555
H6F C8F 1_555 1_555
O2F Tb1 1_555 1_555
O2_2 Tb1F 1_555 1_555
C9F C10F 1_555 1_555
C10F C7F 1_555 1_555
H7F C10F 1_555 1_555
H8F C10F 1_555 1_555
O3F C9F 1_555 1_555
O3E Tb1 1_555 1_555
O3C Tb1 1_555 1_555
O3C_2 Tb1F 1_555 1_555
O4F Tb1E_2 1_555 1_555
O4C Tb1 1_555 1_555
O4E Tb1F 1_555 1_555
O5B C11B 1_555 1_555
O5F Tb1 1_555 1_555
O5F_2 Tb1F 1_555 1_555
O6B Tb1D 1_555 1_555
O6F Tb1 1_555 1_555
O7F Tb1F 1_555 1_555
C11B O6B 1_555 1_555
C12B C12 1_555 1_555
C13B C11B 1_555 1_555
H9B C13B 1_555 1_555
H10B C13B 1_555 1_555
C14B C12B 1_555 1_555
H11B C14B 1_555 1_555
C15B C15 1_555 1_555
H12B C15B 1_555 1_555
C4 C7 1_555 1_555
C5 C6 1_555 1_555
C5 C8 1_555 1_555
O4 Tb1C 1_555 1_555
O6 Tb1F 1_555 1_555
Tb1F O3E 1_555 1_555
Tb1F_2 O3C 1_555 1_555
Tb1F_2 O5F 1_555 1_555
C1F O1F 1_555 1_555
C1F O2F 1_555 1_555
C4F C7F 1_555 1_555
C5F C6F 1_555 1_555
C5F C8F 1_555 1_555
C9F O4F 1_555 1_555
C12B C13B 1_555 1_555
C14B C15B 1_555 1_555

#END
