
#######################################################################
#
#                 Cambridge Crystallographic Data Centre
#                                CCDC 
#
#######################################################################
#
# If this CIF has been generated from an entry in the Cambridge 
# Structural Database, then it will include bibliographic, chemical, 
# crystal, experimental, refinement or atomic coordinate data resulting 
# from the CCDC's data processing and validation procedures.
#
#######################################################################

data_DODMOZ
_symmetry_cell_setting           triclinic
_symmetry_space_group_name_H-M   'P -1'
_symmetry_Int_Tables_number      2
_space_group_name_Hall           '-P 1'
loop_
_symmetry_equiv_pos_site_id
_symmetry_equiv_pos_as_xyz
1 x,y,z
2 -x,-y,-z
_cell_length_a                   12.062(2)
_cell_length_b                   16.590(3)
_cell_length_c                   19.389(4)
_cell_angle_alpha                78.75(3)
_cell_angle_beta                 75.43(3)
_cell_angle_gamma                87.96(3)
_cell_volume                     3682.61
loop_
_atom_site_label
_atom_site_type_symbol
_atom_site_fract_x
_atom_site_fract_y
_atom_site_fract_z
C1 C -0.8389(10) 0.4771(8) -0.0859(8)
H1 H -0.7840 0.5127 -0.1191
C2 C -1.0270(11) 0.4100(10) -0.0534(9)
H2 H -1.0921 0.4108 -0.0736
H3 H -0.9961 0.3557 -0.0480
H4 H -1.0502 0.4256 -0.0067
C3 C -0.9518(14) 0.5108(12) -0.1743(9)
H5 H -1.0269 0.4977 -0.1776
H6 H -0.9441 0.5693 -0.1796
H7 H -0.8953 0.4921 -0.2121
C4 C -0.2830(15) 0.3959(10) 0.4612(9)
H8 H -0.3092 0.4435 0.4784
C5 C -0.4604(16) 0.5772(15) 0.6933(8)
H9 H -0.5129 0.6196 0.6918
C6 C -0.4133(15) 0.5434(14) 0.6315(8)
H10 H -0.4408 0.5603 0.5903
C7 C 0.3600(11) 0.0649(9) 0.5394(9)
H11 H 0.3132 0.0303 0.5787
C8 C -0.7972(15) 0.2641(12) 0.0361(9)
H12 H -0.7606 0.2417 -0.0040
C9 C -0.982(2) 0.2602(18) 0.1253(13)
H13 H -1.0520 0.2289 0.1351
H14 H -0.9516 0.2491 0.1672
H15 H -0.9983 0.3178 0.1143
C10 C -0.962(2) 0.1788(15) 0.0397(11)
H16 H -1.0377 0.1673 0.0704
H17 H -0.9663 0.2015 -0.0090
H18 H -0.9190 0.1289 0.0401
C11 C 0.4962(16) 0.0441(14) 0.6171(12)
H19 H 0.5720 0.0633 0.6135
H20 H 0.4956 -0.0147 0.6236
H21 H 0.4437 0.0607 0.6579
C12 C 0.5316(16) 0.1324(14) 0.4926(15)
H22 H 0.6018 0.1392 0.5057
H23 H 0.4961 0.1848 0.4838
H24 H 0.5475 0.1094 0.4494
N1 N -0.9354(9) 0.4708(7) -0.1041(6)
N2 N -0.9040(10) 0.2385(10) 0.0669(8)
N3 N 0.4600(9) 0.0811(9) 0.5474(8)
O2 O -0.0120(6) 0.1326(4) 0.4264(4)
O3 O -0.1589(6) 0.0439(5) 0.4443(4)
O4 O -0.5090(6) 0.3556(5) 0.0601(4)
O5 O -0.2706(6) 0.5311(5) 0.9059(4)
O6 O 0.0557(6) -0.0341(5) 0.4346(4)
O7 O 0.2161(7) 0.0358(5) 0.3883(4)
O8 O -0.8117(7) 0.4423(5) -0.0308(5)
O9 O -0.7386(8) 0.3139(6) 0.0530(5)
O10 O 0.3186(6) 0.0882(6) 0.4884(5)
O11 O 0.1988(7) 0.2078(6) 0.4121(5)
C16 C 0.0770(9) 0.1787(7) 0.6046(5)
C17 C 0.0543(8) 0.2212(7) 0.6689(6)
C18 C 0.1139(9) 0.2079(7) 0.7239(6)
C19 C 0.2130(10) 0.1576(8) 0.7228(7)
H32 H 0.2416 0.1317 0.6836
C20 C 0.2664(11) 0.1468(9) 0.7786(7)
H33 H 0.3295 0.1127 0.7774
C21 C 0.2271(11) 0.1867(9) 0.8371(8)
H34 H 0.2661 0.1808 0.8734
C22 C 0.0742(10) 0.2478(8) 0.7844(7)
N5 N -0.0157(7) 0.3002(6) 0.7899(5)
C23 C -0.0702(9) 0.3130(7) 0.7391(6)
C24 C -0.0380(9) 0.2746(7) 0.6767(6)
H35 H -0.0791 0.2853 0.6413
C25 C 0.1468(9) -0.0192(7) 0.3861(6)
C26 C 0.1787(9) -0.0671(7) 0.3255(6)
C27 C 0.2617(8) -0.1261(7) 0.3263(6)
H36 H 0.2954 -0.1385 0.3652
C28 C 0.2950(9) -0.1677(7) 0.2677(6)
N6 N 0.2500(7) -0.1550(6) 0.2121(5)
C29 C 0.1647(9) -0.0997(6) 0.2112(5)
C30 C 0.1242(9) -0.0534(7) 0.2677(6)
C31 C -0.0167(11) 0.0125(8) 0.2045(7)
H37 H -0.0766 0.0489 0.2017
C32 C 0.0207(11) -0.0331(8) 0.1515(7)
H38 H -0.0146 -0.0273 0.1134
C33 C 0.0340(10) 0.0050(7) 0.2624(6)
H39 H 0.0098 0.0373 0.2974
C34 C -0.1083(9) 0.1137(7) 0.4210(6)
C35 C -0.1713(8) 0.1799(6) 0.3806(5)
C36 C -0.2039(9) 0.2532(7) 0.4094(5)
C37 C -0.1865(10) 0.2646(8) 0.4763(6)
H40 H -0.1472 0.2252 0.5018
C38 C -0.2273(13) 0.3335(9) 0.5045(8)
H41 H -0.2194 0.3398 0.5496
C39 C -0.2606(10) 0.3122(8) 0.3701(6)
N7 N -0.2828(8) 0.3056(6) 0.3059(5)
C40 C -0.2529(8) 0.2367(6) 0.2817(6)
C41 C -0.1985(8) 0.1715(6) 0.3196(6)
H42 H -0.1817 0.1231 0.3019
C42 C -0.2822(8) 0.2298(7) 0.2128(5)
C43 C -0.3329(9) 0.2984(7) 0.1744(6)
H43 H -0.3466 0.3468 0.1925
C44 C -0.3612(8) 0.2927(7) 0.1113(6)
C45 C -0.4167(10) 0.3668(7) 0.0731(5)
C46 C -0.3387(9) 0.2198(7) 0.0834(6)
C47 C -0.2852(9) 0.1555(7) 0.1246(6)
N8 N -0.2568(7) 0.1615(6) 0.1872(5)
C48 C -0.3626(10) 0.2077(8) 0.0201(6)
H44 H -0.3988 0.2488 -0.0058
C49 C -0.3339(10) 0.1361(8) -0.0053(7)
H45 H -0.3483 0.1300 -0.0489
C50 C -0.2826(10) 0.0720(8) 0.0347(7)
H46 H -0.2646 0.0230 0.0181
C51 C 0.5675(10) -0.3517(8) 0.1366(7)
C52 C 0.5242(10) -0.3167(8) 0.2041(7)
C53 C 0.5693(10) -0.3381(8) 0.2664(6)
C54 C 0.6693(11) -0.3875(9) 0.2703(7)
H47 H 0.7055 -0.4119 0.2314
C55 C 0.7111(12) -0.3984(9) 0.3304(7)
H48 H 0.7756 -0.4303 0.3324
C56 C 0.6563(11) -0.3613(9) 0.3902(7)
H49 H 0.6843 -0.3697 0.4316
C57 C 0.5198(9) -0.3001(8) 0.3255(6)
N9 N 0.4290(8) -0.2458(6) 0.3264(5)
C58 C 0.3897(9) -0.2297(7) 0.2669(6)
C59 C 0.4358(9) -0.2621(7) 0.2045(6)
H50 H 0.4070 -0.2468 0.1637
C60 C -0.3384(9) 0.4878(7) 0.8893(6)
C61 C -0.2954(9) 0.4553(7) 0.8191(6)
C62 C -0.2115(9) 0.3986(7) 0.8121(6)
H51 H -0.1829 0.3764 0.8519
C63 C -0.1663(9) 0.3725(7) 0.7449(6)
N10 N -0.2058(8) 0.3993(6) 0.6874(5)
C64 C -0.2914(10) 0.4571(9) 0.6931(6)
C65 C -0.3399(9) 0.4857(8) 0.7589(6)
C66 C -0.4269(14) 0.5461(11) 0.7569(7)
H52 H -0.4620 0.5650 0.7991
C67 C 0.1291(11) 0.2359(9) 0.8416(7)
H53 H 0.1010 0.2602 0.8818
C68 C 0.1093(10) -0.0874(8) 0.1535(6)
H54 H 0.1334 -0.1167 0.1162
C69 C -0.2593(9) 0.0824(7) 0.0986(6)
H55 H -0.2257 0.0399 0.1250
C70 C -0.2972(13) 0.3859(8) 0.3966(7)
H56 H -0.3310 0.4271 0.3691
C71 C 0.5657(12) -0.3147(9) 0.3870(7)
H57 H 0.5310 -0.2909 0.4265
C72 C -0.3304(13) 0.4879(11) 0.6301(8)
H58 H -0.2978 0.4694 0.5873
O13 O 0.0339(7) 0.2049(5) 0.5538(4)
O14 O 0.1373(7) 0.1161(5) 0.6065(4)
O15 O -0.3611(6) 0.4356(5) 0.0607(4)
O16 O 0.6163(8) -0.4197(6) 0.1383(5)
O17 O 0.5506(7) -0.3147(5) 0.0772(4)
O18 O -0.4384(6) 0.4710(5) 0.9279(4)
Er1 Er 0.11936(4) 0.08674(3) 0.49476(2)
Er2 Er -0.62214(4) 0.42624(3) -0.01364(2)
O3A O 0.1589(6) -0.0439(5) 0.5557(4)
O5A O -0.7294(6) 0.4689(5) 0.0941(4)
O6A O -0.0557(6) 0.0341(5) 0.5654(4)
O15A O -0.6389(6) 0.5644(5) -0.0607(4)
O16A O -0.6163(8) 0.4197(6) -0.1383(5)
O17A O -0.5506(7) 0.3147(5) -0.0772(4)
O18_2 O -0.4384(6) 0.4710(5) -0.0721(4)
O18A O -0.5616(6) 0.5290(5) 0.0721(4)
Er1A Er -0.11936(4) -0.08674(3) 0.50524(2)
Er2A Er -0.37786(4) 0.57376(3) 1.01364(2)
Er2A_2 Er -0.37786(4) 0.57376(3) 0.01364(2)
Er2A_3 Er 0.62214(4) -0.42624(3) 0.01364(2)
Er2_2 Er -0.62214(4) 0.42624(3) 0.98636(2)
C13 C -0.5570(19) -0.0042(15) 0.1274(13)
H25 H -0.5816 -0.0059 0.0859
C14 C -0.6633(19) 0.1229(13) 0.1420(14)
H26 H -0.6810 0.1615 0.1741
H27 H -0.7330 0.0980 0.1402
H28 H -0.6248 0.1509 0.0942
C15 C -0.5517(17) 0.0707(14) 0.2358(10)
H29 H -0.5873 0.1182 0.2529
H30 H -0.4699 0.0777 0.2234
H31 H -0.5737 0.0228 0.2731
N4 N -0.5903(11) 0.0603(10) 0.1682(9)
O12 O -0.4936(12) -0.0575(10) 0.1508(10)
O1 O -0.3918(10) 0.8644(8) 0.0408(8)
loop_
_geom_bond_atom_site_label_1
_geom_bond_atom_site_label_2
_geom_bond_site_symmetry_1
_geom_bond_site_symmetry_2
C1 H1 1_555 1_555
C2 H2 1_555 1_555
H3 C2 1_555 1_555
H4 C2 1_555 1_555
C3 H5 1_555 1_555
H6 C3 1_555 1_555
H7 C3 1_555 1_555
C4 H8 1_555 1_555
C5 H9 1_555 1_555
C6 C5 1_555 1_555
H10 C6 1_555 1_555
C7 H11 1_555 1_555
C8 H12 1_555 1_555
C9 H13 1_555 1_555
H14 C9 1_555 1_555
H15 C9 1_555 1_555
C10 H16 1_555 1_555
H17 C10 1_555 1_555
H18 C10 1_555 1_555
C11 H19 1_555 1_555
H20 C11 1_555 1_555
H21 C11 1_555 1_555
C12 H22 1_555 1_555
H23 C12 1_555 1_555
H24 C12 1_555 1_555
C13 H25 1_555 1_555
C14 H26 1_555 1_555
H27 C14 1_555 1_555
H28 C14 1_555 1_555
C15 H29 1_555 1_555
H30 C15 1_555 1_555
H31 C15 1_555 1_555
N1 C1 1_555 1_555
N2 C8 1_555 1_555
N3 C7 1_555 1_555
N4 C13 1_555 1_555
O2 C34 1_555 1_555
O3 C34 1_555 1_555
O4 C45 1_555 1_555
O5 C60 1_555 1_555
O6 C25 1_555 1_555
O7 C25 1_555 1_555
O8 C1 1_555 1_555
O9 C8 1_555 1_555
O10 C7 1_555 1_555
O11 Er1 1_555 1_555
O12 C13 1_555 1_555
C16 C17 1_555 1_555
C17 C18 1_555 1_555
C18 C19 1_555 1_555
C19 H32 1_555 1_555
C20 C19 1_555 1_555
H33 C20 1_555 1_555
C21 C20 1_555 1_555
H34 C21 1_555 1_555
C22 C18 1_555 1_555
N5 C22 1_555 1_555
C23 N5 1_555 1_555
C24 C17 1_555 1_555
H35 C24 1_555 1_555
C25 C26 1_555 1_555
C26 C27 1_555 1_555
C27 H36 1_555 1_555
C28 C27 1_555 1_555
N6 C28 1_555 1_555
C29 N6 1_555 1_555
C30 C26 1_555 1_555
C31 H37 1_555 1_555
C32 C31 1_555 1_555
H38 C32 1_555 1_555
C33 C30 1_555 1_555
H39 C33 1_555 1_555
C34 C35 1_555 1_555
C35 C36 1_555 1_555
C36 C37 1_555 1_555
C37 H40 1_555 1_555
C38 C4 1_555 1_555
H41 C38 1_555 1_555
C39 C36 1_555 1_555
N7 C39 1_555 1_555
C40 N7 1_555 1_555
C41 C35 1_555 1_555
H42 C41 1_555 1_555
C42 C40 1_555 1_555
C43 C42 1_555 1_555
H43 C43 1_555 1_555
C44 C43 1_555 1_555
C45 C44 1_555 1_555
C46 C44 1_555 1_555
C47 C46 1_555 1_555
N8 C42 1_555 1_555
C48 C46 1_555 1_555
H44 C48 1_555 1_555
C49 C48 1_555 1_555
H45 C49 1_555 1_555
C50 C49 1_555 1_555
H46 C50 1_555 1_555
C51 C52 1_555 1_555
C52 C53 1_555 1_555
C53 C54 1_555 1_555
C54 H47 1_555 1_555
C55 C54 1_555 1_555
H48 C55 1_555 1_555
C56 C55 1_555 1_555
H49 C56 1_555 1_555
C57 C53 1_555 1_555
N9 C57 1_555 1_555
C58 C28 1_555 1_555
C59 C52 1_555 1_555
H50 C59 1_555 1_555
C60 C61 1_555 1_555
C61 C62 1_555 1_555
C62 H51 1_555 1_555
C63 C23 1_555 1_555
N10 C63 1_555 1_555
C64 N10 1_555 1_555
C65 C61 1_555 1_555
C66 C5 1_555 1_555
H52 C66 1_555 1_555
C67 C21 1_555 1_555
H53 C67 1_555 1_555
C68 C29 1_555 1_555
H54 C68 1_555 1_555
C69 C47 1_555 1_555
H55 C69 1_555 1_555
C70 C4 1_555 1_555
H56 C70 1_555 1_555
C71 C56 1_555 1_555
H57 C71 1_555 1_555
C72 C6 1_555 1_555
H58 C72 1_555 1_555
O13 C16 1_555 1_555
O14 C16 1_555 1_555
O15 C45 1_555 1_555
O16 C51 1_555 1_555
O17 C51 1_555 1_555
O18 C60 1_555 1_555
Er1 O2 1_555 1_555
Er2 O4 1_555 1_555
O3A Er1 1_555 1_555
O5A Er2 1_555 1_555
O6A Er1 1_555 1_555
O15A Er2 1_555 1_555
O16A Er2 1_555 1_555
O17A Er2 1_555 1_555
O18_2 Er2 1_555 1_555
O18A Er2 1_555 1_555
Er1A O3 1_555 1_555
Er2A O5 1_555 1_555
Er2A_2 O15 1_555 1_555
Er2A_3 O16 1_555 1_555
Er2_2 O18 1_555 1_555
C2 N1 1_555 1_555
C3 N1 1_555 1_555
C9 N2 1_555 1_555
C10 N2 1_555 1_555
C11 N3 1_555 1_555
C12 N3 1_555 1_555
C14 N4 1_555 1_555
C15 N4 1_555 1_555
O6 Er1 1_555 1_555
O6 Er1A 1_555 1_555
O7 Er1 1_555 1_555
O8 Er2 1_555 1_555
O9 Er2 1_555 1_555
O10 Er1 1_555 1_555
C22 C67 1_555 1_555
C23 C24 1_555 1_555
C29 C30 1_555 1_555
C31 C33 1_555 1_555
C32 C68 1_555 1_555
C37 C38 1_555 1_555
C39 C70 1_555 1_555
C40 C41 1_555 1_555
C47 N8 1_555 1_555
C50 C69 1_555 1_555
C57 C71 1_555 1_555
N9 C58 1_555 1_555
C58 C59 1_555 1_555
C62 C63 1_555 1_555
C64 C65 1_555 1_555
C64 C72 1_555 1_555
C65 C66 1_555 1_555
O13 Er1 1_555 1_555
O14 Er1 1_555 1_555
O17 Er2A_3 1_555 1_555
O18 Er2A 1_555 1_555
O6A Er1A 1_555 1_555
O18_2 Er2A_2 1_555 1_555
O18A Er2A_2 1_555 1_555

#END
