
#######################################################################
#
#                 Cambridge Crystallographic Data Centre
#                                CCDC 
#
#######################################################################
#
# If this CIF has been generated from an entry in the Cambridge 
# Structural Database, then it will include bibliographic, chemical, 
# crystal, experimental, refinement or atomic coordinate data resulting 
# from the CCDC's data processing and validation procedures.
#
#######################################################################

data_DODPAO
_symmetry_cell_setting           triclinic
_symmetry_space_group_name_H-M   'P -1'
_symmetry_Int_Tables_number      2
_space_group_name_Hall           '-P 1'
loop_
_symmetry_equiv_pos_site_id
_symmetry_equiv_pos_as_xyz
1 x,y,z
2 -x,-y,-z
_cell_length_a                   5.93840(10)
_cell_length_b                   7.9136(2)
_cell_length_c                   14.7920(5)
_cell_angle_alpha                74.505(2)
_cell_angle_beta                 84.261(2)
_cell_angle_gamma                75.078(2)
_cell_volume                     646.918
loop_
_atom_site_label
_atom_site_type_symbol
_atom_site_fract_x
_atom_site_fract_y
_atom_site_fract_z
C1 C 0.8227(15) 0.0887(11) 0.6843(6)
C2 C 0.8853(15) 0.1725(11) 0.5849(6)
C3 C 1.1119(16) 0.1593(13) 0.5486(7)
H1 H 1.2350 0.0887 0.5865
C4 C 1.1588(15) 0.2483(12) 0.4579(6)
H2 H 1.3118 0.2368 0.4344
C5 C 0.9746(15) 0.3554(11) 0.4018(6)
C6 C 0.7492(16) 0.3684(13) 0.4355(6)
H3 H 0.6270 0.4398 0.3973
C7 C 0.7023(16) 0.2757(13) 0.5262(6)
H4 H 0.5487 0.2821 0.5481
C8 C 0.0379(14) -0.1035(11) 1.0085(6)
O2 O 0.6170(10) 0.0750(9) 0.7015(4)
O3 O 0.9754(10) 0.0360(8) 0.7449(4)
O4 O 0.8454(11) 0.6501(8) 0.2780(4)
O5 O 0.9918(12) 0.3783(9) 0.2231(4)
O6 O 1.2606(11) 0.5058(9) 0.2810(5)
O7 O 0.1800(11) -0.1614(8) 0.9480(4)
O8 O -0.0519(11) -0.1958(8) 1.0776(4)
O9 O 0.6642(12) -0.1561(10) 0.8897(5)
O10 O 0.5257(12) 0.2384(9) 0.8607(5)
O11 O 0.3780(12) -0.2235(9) 0.7576(5)
S1 S 1.0238(4) 0.4819(3) 0.28650(14)
Sm1 Sm 0.31427(7) 0.04835(5) 0.81366(3)
H7 H 0.7528 -0.1370 0.9258
H8 H 0.7394 -0.1593 0.8378
H9 H 0.5765 0.2320 0.9137
H10 H 0.6276 0.2714 0.8190
H11 H 0.2655 -0.2197 0.7248
H12 H 0.4952 -0.3020 0.7436
C1_2 C -0.1773(15) 0.0887(11) 0.6843(6)
C2_2 C -0.1147(15) 0.1725(11) 0.5849(6)
C3_2 C 0.1119(16) 0.1593(13) 0.5486(7)
H1_2 H 0.2350 0.0887 0.5865
C4_2 C 0.1588(15) 0.2483(12) 0.4579(6)
H2_2 H 0.3118 0.2368 0.4344
C5_2 C -0.0254(15) 0.3554(11) 0.4018(6)
C6_2 C -0.2508(16) 0.3684(13) 0.4355(6)
H3_2 H -0.3730 0.4398 0.3973
C7_2 C -0.2977(16) 0.2757(13) 0.5262(6)
H4_2 H -0.4513 0.2821 0.5481
C8A C -0.0379(14) 0.1035(11) 0.9915(6)
O2_2 O -0.3830(10) 0.0750(9) 0.7015(4)
O3_2 O -0.0246(10) 0.0360(8) 0.7449(4)
O3_3 O -1.0246(10) 0.0360(8) 0.7449(4)
O4_2 O -0.1546(11) 0.6501(8) 0.2780(4)
O4A O 0.1546(11) 0.3499(8) 0.7220(4)
O4A_2 O -0.8454(11) 0.3499(8) 0.7220(4)
O5_2 O -0.0082(12) 0.3783(9) 0.2231(4)
O6_2 O 0.2606(11) 0.5058(9) 0.2810(5)
O7A O -0.1800(11) 0.1614(8) 1.0520(4)
O7_2 O -0.8200(11) -0.1614(8) 0.9480(4)
O8A O 0.0519(11) 0.1958(8) 0.9224(4)
O8A_2 O -0.9481(11) 0.1958(8) 0.9224(4)
O9_2 O -0.3358(12) -0.1561(10) 0.8897(5)
O10_2 O -0.4743(12) 0.2384(9) 0.8607(5)
O11_2 O -0.6220(12) -0.2235(9) 0.7576(5)
S1_2 S 0.0238(4) 0.4819(3) 0.28650(14)
Sm1_2 Sm -0.68573(7) 0.04835(5) 0.81366(3)
Sm1_3 Sm 1.31427(7) 0.04835(5) 0.81366(3)
Sm1A Sm 0.68573(7) 0.95165(5) 0.18634(3)
Sm1A_2 Sm -0.31427(7) -0.04835(5) 1.18634(3)
Sm1A_3 Sm -0.31427(7) 0.95165(5) 0.18634(3)
H7_2 H -0.2472 -0.1370 0.9258
H8_2 H -0.2606 -0.1593 0.8378
H9_2 H -0.4235 0.2320 0.9137
H10_2 H -0.3724 0.2714 0.8190
H11_2 H -0.7345 -0.2197 0.7248
H12_2 H -0.5048 -0.3020 0.7436
O1 O 0.2609(13) 0.4652(9) 0.9650(5)
H5 H 0.1549 0.4509 0.9346
H6 H 0.2592 0.5776 0.9484
loop_
_geom_bond_atom_site_label_1
_geom_bond_atom_site_label_2
_geom_bond_site_symmetry_1
_geom_bond_site_symmetry_2
C1 C2 1_555 1_555
C2 C3 1_555 1_555
C3 H1 1_555 1_555
C4 C3 1_555 1_555
H2 C4 1_555 1_555
C5 C4 1_555 1_555
C6 C5 1_555 1_555
H3 C6 1_555 1_555
C7 C2 1_555 1_555
H4 C7 1_555 1_555
C8 O7 1_555 1_555
O1 H5 1_555 1_555
O2 C1 1_555 1_555
O3 C1 1_555 1_555
O4 S1 1_555 1_555
O5 S1 1_555 1_555
O6 S1 1_555 1_555
O7 Sm1 1_555 1_555
O8 C8 1_555 1_555
O9 Sm1 1_555 1_555
O10 Sm1 1_555 1_555
O11 Sm1 1_555 1_555
S1 C5 1_555 1_555
Sm1 O2 1_555 1_555
H6 O1 1_555 1_555
H7 O9 1_555 1_555
H8 O9 1_555 1_555
H9 O10 1_555 1_555
H10 O10 1_555 1_555
H11 O11 1_555 1_555
H12 O11 1_555 1_555
C1_2 C2_2 1_555 1_555
C2_2 C3_2 1_555 1_555
C3_2 H1_2 1_555 1_555
C4_2 C3_2 1_555 1_555
H2_2 C4_2 1_555 1_555
C5_2 C4_2 1_555 1_555
C6_2 C5_2 1_555 1_555
H3_2 C6_2 1_555 1_555
C7_2 C2_2 1_555 1_555
H4_2 C7_2 1_555 1_555
C8A C8 1_555 1_555
O2_2 C1_2 1_555 1_555
O3_2 Sm1 1_555 1_555
O3_3 Sm1_2 1_555 1_555
O4_2 S1_2 1_555 1_555
O4A Sm1 1_555 1_555
O4A_2 Sm1_2 1_555 1_555
O5_2 S1_2 1_555 1_555
O6_2 S1_2 1_555 1_555
O7A C8A 1_555 1_555
O7_2 Sm1_2 1_555 1_555
O8A Sm1 1_555 1_555
O8A_2 Sm1_2 1_555 1_555
O9_2 Sm1_2 1_555 1_555
O10_2 Sm1_2 1_555 1_555
O11_2 Sm1_2 1_555 1_555
S1_2 C5_2 1_555 1_555
Sm1_2 O2_2 1_555 1_555
Sm1_3 O3 1_555 1_555
Sm1A O4 1_555 1_555
Sm1A_2 O8 1_555 1_555
Sm1A_3 O4_2 1_555 1_555
H7_2 O9_2 1_555 1_555
H8_2 O9_2 1_555 1_555
H9_2 O10_2 1_555 1_555
H10_2 O10_2 1_555 1_555
H11_2 O11_2 1_555 1_555
H12_2 O11_2 1_555 1_555
C6 C7 1_555 1_555
C1_2 O3_2 1_555 1_555
C6_2 C7_2 1_555 1_555
C8A O8A 1_555 1_555
O7A Sm1A_2 1_555 1_555

#END
