
#######################################################################
#
#                 Cambridge Crystallographic Data Centre
#                                CCDC 
#
#######################################################################
#
# If this CIF has been generated from an entry in the Cambridge 
# Structural Database, then it will include bibliographic, chemical, 
# crystal, experimental, refinement or atomic coordinate data resulting 
# from the CCDC's data processing and validation procedures.
#
#######################################################################

data_DOFQEV
_symmetry_cell_setting           monoclinic
_symmetry_space_group_name_H-M   'P 2/c'
_symmetry_Int_Tables_number      13
_space_group_name_Hall           '-P 2yc'
loop_
_symmetry_equiv_pos_site_id
_symmetry_equiv_pos_as_xyz
1 x,y,z
2 -x,y,1/2-z
3 -x,-y,-z
4 x,-y,1/2+z
_cell_length_a                   11.3146(8)
_cell_length_b                   5.8353(4)
_cell_length_c                   12.9236(9)
_cell_angle_alpha                90
_cell_angle_beta                 95.3043(14)
_cell_angle_gamma                90
_cell_volume                     849.615
loop_
_atom_site_label
_atom_site_type_symbol
_atom_site_fract_x
_atom_site_fract_y
_atom_site_fract_z
Ag1 Ag 0.5000 0.01876(2) 0.2500
N1 N 0.37297(13) 0.2562(2) 0.15788(11)
N2 N 0.39521(13) 0.2354(2) -0.16048(11)
C1 C 0.19237(19) 0.5027(2) 0.07574(15)
H1 H 0.1244 0.5033 0.1200
C2 C 0.15371(15) 0.4148(3) -0.03436(12)
H2 H 0.0711 0.4615 -0.0565
H3 H 0.1592 0.2457 -0.0374
C3 C 0.24150(18) 0.5278(2) -0.10377(15)
H4 H 0.1963 0.5957 -0.1666
C4 C 0.30330(19) 0.7215(3) -0.03733(15)
H5 H 0.3874 0.6827 -0.0170
H6 H 0.2999 0.8679 -0.0762
C5 C 0.23445(19) 0.7389(3) 0.05747(15)
H7 H 0.2862 0.7945 0.1183
H8 H 0.1665 0.8451 0.0444
C6 C 0.29433(18) 0.3623(3) 0.12457(12)
C7 C 0.32716(16) 0.3631(3) -0.13626(12)
Ag1C Ag 0.5000 -0.01876(2) -0.2500
Ag1C_2 Ag 0.5000 -0.01876(2) 0.7500
N1A N 0.62703(13) 0.2562(2) 0.34212(11)
N2A N 0.60479(13) 0.2354(2) 0.66048(11)
N2C N 0.39521(13) -0.2354(2) 0.33952(11)
N2B N 0.60479(13) -0.2354(2) 0.16048(11)
C1A C 0.80763(19) 0.5027(2) 0.42426(15)
H1A H 0.8756 0.5033 0.3800
C2A C 0.84629(15) 0.4148(3) 0.53436(12)
H2A H 0.9289 0.4615 0.5565
H3A H 0.8408 0.2457 0.5374
C3A C 0.75850(18) 0.5278(2) 0.60377(15)
H4A H 0.8037 0.5957 0.6666
C4A C 0.69670(19) 0.7215(3) 0.53733(15)
H5A H 0.6126 0.6827 0.5170
H6A H 0.7001 0.8679 0.5762
C5A C 0.76555(19) 0.7389(3) 0.44253(15)
H7A H 0.7138 0.7945 0.3817
H8A H 0.8335 0.8451 0.4556
C6A C 0.70567(18) 0.3623(3) 0.37543(12)
C7A C 0.67284(16) 0.3631(3) 0.63626(12)
Cl1 Cl 0.0000 0.00411(8) 0.2500
O3 O -0.1293(3) 0.0076(6) 0.2360(4)
O4 O 0.0371(6) 0.1399(10) 0.1777(5)
O3A O 0.1293(3) 0.0076(6) 0.2640(4)
O4A O -0.0371(6) 0.1399(10) 0.3223(5)
O1? O 0.0316(6) -0.2222(4) 0.2471(7)
O2? O 0.0217(5) 0.0890(7) 0.3560(4)
loop_
_geom_bond_atom_site_label_1
_geom_bond_atom_site_label_2
_geom_bond_site_symmetry_1
_geom_bond_site_symmetry_2
Ag1 N1 1_555 1_555
N1 C6 1_555 1_555
N2 C7 1_555 1_555
C1 H1 1_555 1_555
C2 C1 1_555 1_555
H2 C2 1_555 1_555
H3 C2 1_555 1_555
C3 C2 1_555 1_555
H4 C3 1_555 1_555
C4 C3 1_555 1_555
H5 C4 1_555 1_555
H6 C4 1_555 1_555
C5 C1 1_555 1_555
H7 C5 1_555 1_555
H8 C5 1_555 1_555
C6 C1 1_555 1_555
C7 C3 1_555 1_555
Cl1 O3 1_555 1_555
O4 Cl1 1_555 1_555
Ag1C N2 1_555 1_555
Ag1C_2 N2A 1_555 1_555
N1A Ag1 1_555 1_555
N2A C7A 1_555 1_555
N2C Ag1 1_555 1_555
N2B Ag1 1_555 1_555
C1A H1A 1_555 1_555
C2A C1A 1_555 1_555
H2A C2A 1_555 1_555
H3A C2A 1_555 1_555
C3A C2A 1_555 1_555
H4A C3A 1_555 1_555
C4A C3A 1_555 1_555
H5A C4A 1_555 1_555
H6A C4A 1_555 1_555
C5A C1A 1_555 1_555
H7A C5A 1_555 1_555
H8A C5A 1_555 1_555
C6A N1A 1_555 1_555
C7A C3A 1_555 1_555
O3A Cl1 1_555 1_555
O4A Cl1 1_555 1_555
C4 C5 1_555 1_555
C1A C6A 1_555 1_555
C4A C5A 1_555 1_555

#END
