
#######################################################################
#
#                 Cambridge Crystallographic Data Centre
#                                CCDC 
#
#######################################################################
#
# If this CIF has been generated from an entry in the Cambridge 
# Structural Database, then it will include bibliographic, chemical, 
# crystal, experimental, refinement or atomic coordinate data resulting 
# from the CCDC's data processing and validation procedures.
#
#######################################################################

data_DOFQIZ
_symmetry_cell_setting           monoclinic
_symmetry_space_group_name_H-M   'P 2/c'
_symmetry_Int_Tables_number      13
_space_group_name_Hall           '-P 2yc'
loop_
_symmetry_equiv_pos_site_id
_symmetry_equiv_pos_as_xyz
1 x,y,z
2 -x,y,1/2-z
3 -x,-y,-z
4 x,-y,1/2+z
_cell_length_a                   5.9443(8)
_cell_length_b                   11.3371(15)
_cell_length_c                   13.0729(17)
_cell_angle_alpha                90
_cell_angle_beta                 93.0094(17)
_cell_angle_gamma                90
_cell_volume                     879.782
loop_
_atom_site_label
_atom_site_type_symbol
_atom_site_fract_x
_atom_site_fract_y
_atom_site_fract_z
Ag1 Ag 0.0000 0.48802(2) 0.2500
N1 N 0.2417(5) 0.3663(3) 0.3411(2)
N2 N 0.2457(4) 0.4068(2) 0.6604(2)
C1 C 0.4873(5) 0.1918(3) 0.4166(2)
H1 H 0.4834 0.1212 0.3707
C2 C 0.4122(6) 0.1611(2) 0.5240(2)
H2 H 0.4601 0.0802 0.5437
H3 H 0.2464 0.1667 0.5267
C3 C 0.5304(5) 0.2537(3) 0.5955(2)
H4 H 0.6054 0.2124 0.6557
C4 C 0.7123(5) 0.3126(3) 0.5325(3)
H5 H 0.6681 0.3942 0.5132
H6 H 0.8591 0.3149 0.5719
C5 C 0.7260(6) 0.2358(3) 0.4382(2)
H7 H 0.8308 0.1690 0.4516
H8 H 0.7778 0.2821 0.3797
C6 C 0.3466(5) 0.2893(3) 0.3722(2)
C7 C 0.3698(5) 0.3398(3) 0.6322(2)
Ag1C Ag 0.0000 0.51198(2) 0.7500
Ag1C_2 Ag 0.0000 0.51198(2) -0.2500
N1A N -0.2417(5) 0.3663(3) 0.1589(2)
N2A N -0.2457(4) 0.4068(2) -0.1604(2)
N2C N 0.2457(4) 0.5932(2) 0.1604(2)
N2B N -0.2457(4) 0.5932(2) 0.3396(2)
C1A C -0.4873(5) 0.1918(3) 0.0834(2)
H1A H -0.4834 0.1212 0.1293
C2A C -0.4122(6) 0.1611(2) -0.0240(2)
H2A H -0.4601 0.0802 -0.0437
H3A H -0.2464 0.1667 -0.0267
C3A C -0.5304(5) 0.2537(3) -0.0955(2)
H4A H -0.6054 0.2124 -0.1557
C4A C -0.7123(5) 0.3126(3) -0.0325(3)
H5A H -0.6681 0.3942 -0.0132
H6A H -0.8591 0.3149 -0.0719
C5A C -0.7260(6) 0.2358(3) 0.0618(2)
H7A H -0.8308 0.1690 0.0484
H8A H -0.7778 0.2821 0.1203
C6A C -0.3466(5) 0.2893(3) 0.1278(2)
C7A C -0.3698(5) 0.3398(3) -0.1322(2)
P1 P 0.0000 0.02742(8) 0.7500
F1 F 0.0000 0.1662(3) 0.7500
F2 F 0.0000 -0.1106(3) 0.7500
F3 F 0.0712(4) 0.0279(2) 0.86924(14)
F4 F 0.2576(4) 0.0281(3) 0.72583(19)
F3A F -0.0712(4) 0.0279(2) 0.63076(14)
F4A F -0.2576(4) 0.0281(3) 0.77417(19)
loop_
_geom_bond_atom_site_label_1
_geom_bond_atom_site_label_2
_geom_bond_site_symmetry_1
_geom_bond_site_symmetry_2
Ag1 N1 1_555 1_555
N1 C6 1_555 1_555
N2 C7 1_555 1_555
C1 H1 1_555 1_555
C2 C1 1_555 1_555
H2 C2 1_555 1_555
H3 C2 1_555 1_555
C3 C2 1_555 1_555
H4 C3 1_555 1_555
C4 C3 1_555 1_555
H5 C4 1_555 1_555
H6 C4 1_555 1_555
C5 C1 1_555 1_555
H7 C5 1_555 1_555
H8 C5 1_555 1_555
C6 C1 1_555 1_555
C7 C3 1_555 1_555
P1 F1 1_555 1_555
F2 P1 1_555 1_555
F3 P1 1_555 1_555
F4 P1 1_555 1_555
Ag1C N2 1_555 1_555
Ag1C_2 N2A 1_555 1_555
N1A Ag1 1_555 1_555
N2A C7A 1_555 1_555
N2C Ag1 1_555 1_555
N2B Ag1 1_555 1_555
C1A H1A 1_555 1_555
C2A C1A 1_555 1_555
H2A C2A 1_555 1_555
H3A C2A 1_555 1_555
C3A C2A 1_555 1_555
H4A C3A 1_555 1_555
C4A C3A 1_555 1_555
H5A C4A 1_555 1_555
H6A C4A 1_555 1_555
C5A C1A 1_555 1_555
H7A C5A 1_555 1_555
H8A C5A 1_555 1_555
C6A N1A 1_555 1_555
C7A C3A 1_555 1_555
F3A P1 1_555 1_555
F4A P1 1_555 1_555
C4 C5 1_555 1_555
C1A C6A 1_555 1_555
C4A C5A 1_555 1_555

#END
