
#######################################################################
#
#                 Cambridge Crystallographic Data Centre
#                                CCDC 
#
#######################################################################
#
# If this CIF has been generated from an entry in the Cambridge 
# Structural Database, then it will include bibliographic, chemical, 
# crystal, experimental, refinement or atomic coordinate data resulting 
# from the CCDC's data processing and validation procedures.
#
#######################################################################

data_DOFZII
_symmetry_cell_setting           triclinic
_symmetry_space_group_name_H-M   'P -1'
_symmetry_Int_Tables_number      2
_space_group_name_Hall           '-P 1'
loop_
_symmetry_equiv_pos_site_id
_symmetry_equiv_pos_as_xyz
1 x,y,z
2 -x,-y,-z
_cell_length_a                   5.5010(7)
_cell_length_b                   10.9829(15)
_cell_length_c                   11.3805(15)
_cell_angle_alpha                69.848(2)
_cell_angle_beta                 86.645(2)
_cell_angle_gamma                79.488(2)
_cell_volume                     634.643
loop_
_atom_site_label
_atom_site_type_symbol
_atom_site_fract_x
_atom_site_fract_y
_atom_site_fract_z
Co1 Co 0.5000 0.5000 0.0000
C1 C 0.7613(6) 0.2345(3) -0.1490(3)
H1 H 0.9068 0.2624 -0.1295
H2 H 0.8165 0.1608 -0.1781
C2 C 0.4881(7) 0.3021(4) -0.3371(3)
H3 H 0.3234 0.3540 -0.3555
H4 H 0.4718 0.2106 -0.2961
C3 C 0.6303(6) 0.3171(3) -0.4580(3)
C4 C 1.0539(6) 0.2723(3) 0.2132(3)
H5 H 1.0904 0.2621 0.1323
H6 H 1.2006 0.2324 0.2652
C5 C 0.9323(6) 0.0572(3) 0.3215(3)
H7 H 1.0551 0.0363 0.3865
H8 H 1.0093 0.0276 0.2550
C6 C 0.7188(6) -0.0137(3) 0.3746(3)
N1 N 0.6177(5) 0.3463(3) -0.2524(3)
H9 H 0.5055 0.3946 -0.2180
H10 H 0.7223 0.3987 -0.2978
N2 N 0.8473(5) 0.2009(2) 0.2720(3)
H11 H 0.7828 0.2287 0.3347
H12 H 0.7274 0.2196 0.2148
O1 O 0.5626(4) 0.2810(2) 0.0569(2)
O2 O 0.7354(5) 0.0489(2) 0.0719(2)
O3 O 0.3332(4) 0.1633(2) -0.0461(2)
O4 O 0.5728(5) 0.2583(2) -0.5277(2)
O5 O 0.7902(5) 0.3901(3) -0.4810(2)
O6 O 0.7133(4) 0.4895(2) 0.1617(2)
O7 O 1.1677(4) 0.5118(2) 0.1023(2)
O8 O 1.0393(4) 0.4585(3) 0.3204(2)
O9 O 0.5058(5) 0.0375(3) 0.3512(3)
O10 O 0.7941(5) -0.1350(2) 0.4473(3)
H13 H 0.6742 -0.1709 0.4740
P1 P 0.58100(15) 0.18036(8) -0.00733(8)
P2 P 0.98598(14) 0.44549(8) 0.19220(7)
Co1_2 Co 1.5000 0.5000 0.0000
Co1_3 Co -0.5000 0.5000 0.0000
C1A C 0.2387(6) 0.7655(3) 0.1490(3)
H1A H 0.0932 0.7376 0.1295
H2A H 0.1835 0.8392 0.1781
C2A C 0.5119(7) 0.6979(4) 0.3371(3)
H3A H 0.6766 0.6460 0.3555
H4A H 0.5282 0.7894 0.2961
C3A C 0.3697(6) 0.6829(3) 0.4580(3)
C4A C -0.0539(6) 0.7277(3) -0.2132(3)
H5A H -0.0904 0.7379 -0.1323
H6A H -0.2006 0.7676 -0.2652
C5A C 0.0677(6) 0.9428(3) -0.3215(3)
H7A H -0.0551 0.9637 -0.3865
H8A H -0.0093 0.9724 -0.2550
C6A C 0.2812(6) 1.0137(3) -0.3746(3)
N1A N 0.3823(5) 0.6537(3) 0.2524(3)
H9A H 0.4945 0.6054 0.2180
H10A H 0.2777 0.6013 0.2978
N2A N 0.1527(5) 0.7991(2) -0.2720(3)
H11A H 0.2172 0.7713 -0.3347
H12A H 0.2726 0.7804 -0.2148
O1A O 0.4374(4) 0.7190(2) -0.0569(2)
O2A O 0.2646(5) 0.9511(2) -0.0719(2)
O3A O 0.6668(4) 0.8367(2) 0.0461(2)
O4A O 0.4272(5) 0.7417(2) 0.5277(2)
O5A O 0.2098(5) 0.6099(3) 0.4810(2)
O6A O 0.2867(4) 0.5105(2) -0.1617(2)
O7A O -0.1677(4) 0.4882(2) -0.1023(2)
O7_2 O 0.1677(4) 0.5118(2) 0.1023(2)
O7A_2 O 0.8323(4) 0.4882(2) -0.1023(2)
O8A O -0.0393(4) 0.5415(3) -0.3204(2)
O9A O 0.4942(5) 0.9625(3) -0.3512(3)
O10A O 0.2059(5) 1.1350(2) -0.4473(3)
H13A H 0.3258 1.1709 -0.4740
P1A P 0.41900(15) 0.81964(8) 0.00733(8)
P2A P 0.01402(14) 0.55451(8) -0.19220(7)
loop_
_geom_bond_atom_site_label_1
_geom_bond_atom_site_label_2
_geom_bond_site_symmetry_1
_geom_bond_site_symmetry_2
Co1 O1 1_555 1_555
C1 H1 1_555 1_555
H2 C1 1_555 1_555
C2 H3 1_555 1_555
H4 C2 1_555 1_555
C3 C2 1_555 1_555
C4 H5 1_555 1_555
H6 C4 1_555 1_555
C5 H7 1_555 1_555
H8 C5 1_555 1_555
C6 C5 1_555 1_555
N1 C1 1_555 1_555
H9 N1 1_555 1_555
H10 N1 1_555 1_555
N2 C4 1_555 1_555
H11 N2 1_555 1_555
H12 N2 1_555 1_555
O1 P1 1_555 1_555
O2 P1 1_555 1_555
O3 P1 1_555 1_555
O4 C3 1_555 1_555
O5 C3 1_555 1_555
O6 Co1 1_555 1_555
O7 P2 1_555 1_555
O8 P2 1_555 1_555
O9 C6 1_555 1_555
O10 C6 1_555 1_555
H13 O10 1_555 1_555
P1 C1 1_555 1_555
P2 C4 1_555 1_555
Co1_2 O7 1_555 1_555
Co1_3 O7A 1_555 1_555
C1A H1A 1_555 1_555
H2A C1A 1_555 1_555
C2A H3A 1_555 1_555
H4A C2A 1_555 1_555
C3A C2A 1_555 1_555
C4A H5A 1_555 1_555
H6A C4A 1_555 1_555
C5A H7A 1_555 1_555
H8A C5A 1_555 1_555
C6A C5A 1_555 1_555
N1A C1A 1_555 1_555
H9A N1A 1_555 1_555
H10A N1A 1_555 1_555
N2A C4A 1_555 1_555
H11A N2A 1_555 1_555
H12A N2A 1_555 1_555
O1A Co1 1_555 1_555
O2A P1A 1_555 1_555
O3A P1A 1_555 1_555
O4A C3A 1_555 1_555
O5A C3A 1_555 1_555
O6A Co1 1_555 1_555
O7A P2A 1_555 1_555
O7_2 Co1 1_555 1_555
O7A_2 Co1 1_555 1_555
O8A P2A 1_555 1_555
O9A C6A 1_555 1_555
O10A C6A 1_555 1_555
H13A O10A 1_555 1_555
P1A C1A 1_555 1_555
P2A C4A 1_555 1_555
C2 N1 1_555 1_555
C5 N2 1_555 1_555
O6 P2 1_555 1_555
C2A N1A 1_555 1_555
C5A N2A 1_555 1_555
O1A P1A 1_555 1_555
O6A P2A 1_555 1_555

#END
