
#######################################################################
#
#                 Cambridge Crystallographic Data Centre
#                                CCDC 
#
#######################################################################
#
# If this CIF has been generated from an entry in the Cambridge 
# Structural Database, then it will include bibliographic, chemical, 
# crystal, experimental, refinement or atomic coordinate data resulting 
# from the CCDC's data processing and validation procedures.
#
#######################################################################

data_DOGHIR
_symmetry_cell_setting           orthorhombic
_symmetry_space_group_name_H-M   'P 21 21 21'
_symmetry_Int_Tables_number      19
_space_group_name_Hall           'P 2ac 2ab'
loop_
_symmetry_equiv_pos_site_id
_symmetry_equiv_pos_as_xyz
1 x,y,z
2 1/2-x,-y,1/2+z
3 -x,1/2+y,1/2-z
4 1/2+x,1/2-y,-z
_cell_length_a                   8.4090(11)
_cell_length_b                   10.5542(14)
_cell_length_c                   26.799(3)
_cell_angle_alpha                90
_cell_angle_beta                 90
_cell_angle_gamma                90
_cell_volume                     2378.42
loop_
_atom_site_label
_atom_site_type_symbol
_atom_site_fract_x
_atom_site_fract_y
_atom_site_fract_z
N1 N 0.2684(5) 0.3664(4) 0.80435(12)
C1 C 0.2775(6) 0.3628(5) 0.85434(15)
H1 H 0.3112 0.4355 0.8708
C2 C 0.2200(7) 0.2626(6) 0.78119(19)
H2 H 0.2133 0.2628 0.7465
C3 C 0.1796(11) 0.1555(6) 0.8066(2)
H3 H 0.1440 0.0845 0.7893
C4 C 0.1913(10) 0.1523(6) 0.8574(2)
H4 H 0.1663 0.0786 0.8748
C5 C 0.2403(6) 0.2585(5) 0.88271(17)
C6 C 0.2459(6) 0.2673(5) 0.93886(16)
H5 H 0.3460 0.3038 0.9496
H6 H 0.2351 0.1839 0.9537
O1 O 0.2408(4) 0.6412(4) 0.82537(11)
C7 C 0.1399(7) 0.7259(5) 0.83160(18)
Zn1 Zn 0.32597(7) 0.53729(6) 0.771309(19)
S1 S 0.10164(17) 0.95155(14) 1.03865(4)
S2 S 0.08402(19) 0.36634(17) 0.95695(5)
C8 C 0.1325(7) 0.4800(6) 1.17701(18)
C9 C 0.2157(6) 0.7247(4) 0.92185(15)
H7 H 0.2844 0.6580 0.9149
O2 O 0.2000(6) 0.4000(4) 1.20512(12)
O3 O 0.0809(6) 0.5781(4) 1.19276(12)
C10 C 0.2083(6) 0.7730(4) 0.97002(16)
H8 H 0.2716 0.7384 0.9950
C11 C 0.1953(7) 0.3168(5) 1.05258(16)
H9 H 0.2483 0.2466 1.0399
C12 C 0.2041(7) 0.3434(5) 1.10317(16)
H10 H 0.2628 0.2913 1.1242
C13 C 0.1222(5) 0.7744(4) 0.88391(16)
N2 N 0.0584(5) 0.9642(4) 1.20128(12)
C14 C 0.0168(6) 0.8679(5) 0.89607(18)
H11 H -0.0517 0.8989 0.8717
C15 C 0.1254(6) 0.4475(5) 1.12215(15)
C16 C 0.0316(6) 0.4993(4) 1.03991(17)
H12 H -0.0253 0.5525 1.0188
C17 C 0.0407(6) 0.5243(5) 1.09064(16)
H13 H -0.0117 0.5946 1.1035
C18 C 0.1095(6) 0.3926(5) 1.02117(15)
C19 C 0.1065(6) 0.8727(5) 0.98084(17)
C20 C 0.1663(7) 1.0499(5) 1.21698(16)
H14 H 0.1458 1.0957 1.2459
C21 C 0.2225(6) 0.9257(4) 1.12969(16)
C22 C 0.0097(6) 0.9169(5) 0.94331(18)
H15 H -0.0621 0.9816 0.9502
C23 C 0.2350(6) 0.8660(5) 1.07899(16)
H16 H 0.2051 0.7774 1.0805
H17 H 0.3432 0.8718 1.0667
C24 C 0.0903(6) 0.9032(5) 1.15881(16)
H18 H 0.0188 0.8417 1.1482
C25 C 0.3042(7) 1.0717(5) 1.19182(18)
H19 H 0.3786 1.1284 1.2045
C26 C 0.3332(7) 1.0094(5) 1.14757(19)
H20 H 0.4269 1.0241 1.1300
O4 O 0.0642(7) 0.7756(5) 0.79808(15)
O5 O 0.0760(17) 0.5186(13) 0.7367(5)
Zn1A Zn 0.17403(7) 0.46271(6) 1.271309(19)
Zn1C Zn -0.17403(7) 0.96271(6) 1.228691(19)
O2A O 0.3000(6) 0.6000(4) 0.70512(12)
N2C N 0.5584(5) 0.5358(4) 0.79872(12)
loop_
_geom_bond_atom_site_label_1
_geom_bond_atom_site_label_2
_geom_bond_site_symmetry_1
_geom_bond_site_symmetry_2
N1 C1 1_555 1_555
C1 H1 1_555 1_555
C2 N1 1_555 1_555
H2 C2 1_555 1_555
C3 C2 1_555 1_555
H3 C3 1_555 1_555
C4 C3 1_555 1_555
H4 C4 1_555 1_555
C5 C1 1_555 1_555
C6 C5 1_555 1_555
H5 C6 1_555 1_555
H6 C6 1_555 1_555
O1 C7 1_555 1_555
C7 C13 1_555 1_555
Zn1 N1 1_555 1_555
S1 C19 1_555 1_555
S2 C6 1_555 1_555
C8 O2 1_555 1_555
C9 H7 1_555 1_555
O2 Zn1A 1_555 1_555
O3 C8 1_555 1_555
C10 C9 1_555 1_555
H8 C10 1_555 1_555
C11 H9 1_555 1_555
C12 C11 1_555 1_555
H10 C12 1_555 1_555
C13 C9 1_555 1_555
N2 C20 1_555 1_555
C14 C13 1_555 1_555
H11 C14 1_555 1_555
C15 C8 1_555 1_555
C16 H12 1_555 1_555
C17 C15 1_555 1_555
H13 C17 1_555 1_555
C18 S2 1_555 1_555
C19 C10 1_555 1_555
C20 H14 1_555 1_555
C21 C23 1_555 1_555
C22 C14 1_555 1_555
H15 C22 1_555 1_555
C23 S1 1_555 1_555
H16 C23 1_555 1_555
H17 C23 1_555 1_555
C24 N2 1_555 1_555
H18 C24 1_555 1_555
C25 C20 1_555 1_555
H19 C25 1_555 1_555
C26 C21 1_555 1_555
H20 C26 1_555 1_555
O4 C7 1_555 1_555
O5 Zn1 1_555 1_555
Zn1C N2 1_555 1_555
O2A Zn1 1_555 1_555
N2C Zn1 1_555 1_555
C4 C5 1_555 1_555
O1 Zn1 1_555 1_555
C11 C18 1_555 1_555
C12 C15 1_555 1_555
C16 C17 1_555 1_555
C16 C18 1_555 1_555
C19 C22 1_555 1_555
C21 C24 1_555 1_555
C25 C26 1_555 1_555

#END
