
#######################################################################
#
#                 Cambridge Crystallographic Data Centre
#                                CCDC 
#
#######################################################################
#
# If this CIF has been generated from an entry in the Cambridge 
# Structural Database, then it will include bibliographic, chemical, 
# crystal, experimental, refinement or atomic coordinate data resulting 
# from the CCDC's data processing and validation procedures.
#
#######################################################################

data_DOGMAO
_symmetry_cell_setting           orthorhombic
_symmetry_space_group_name_H-M   'P b c a'
_symmetry_Int_Tables_number      61
_space_group_name_Hall           '-P 2ac 2ab'
loop_
_symmetry_equiv_pos_site_id
_symmetry_equiv_pos_as_xyz
1 x,y,z
2 1/2-x,-y,1/2+z
3 1/2+x,1/2-y,-z
4 -x,1/2+y,1/2-z
5 -x,-y,-z
6 1/2+x,y,1/2-z
7 1/2-x,1/2+y,z
8 x,1/2-y,1/2+z
_cell_length_a                   14.316(8)
_cell_length_b                   17.312(8)
_cell_length_c                   18.831(9)
_cell_angle_alpha                90
_cell_angle_beta                 90
_cell_angle_gamma                90
_cell_volume                     4667.05
loop_
_atom_site_label
_atom_site_type_symbol
_atom_site_fract_x
_atom_site_fract_y
_atom_site_fract_z
Co1 Co 0.07677(9) 0.70642(7) 0.40089(7)
N1 N 0.0792(7) 0.6812(6) 0.2947(5)
N2 N 0.1463(7) 0.6326(5) 0.2693(6)
N3 N 0.2170(7) 0.6886(5) 0.4059(5)
N4 N 0.2577(9) 0.6350(5) 0.3605(5)
O1 O -0.0802(6) 0.3324(4) 0.4590(4)
O2 O 0.0114(5) 0.3606(3) 0.5505(4)
O3 O -0.0868(7) 0.8265(4) 0.4072(4)
O4 O 0.0675(6) 0.8151(4) 0.4249(4)
C1 C 0.2372(9) 0.6048(6) 0.1580(5)
H1 H 0.2675 0.5677 0.1891
H2 H 0.2832 0.6410 0.1402
H3 H 0.2085 0.5778 0.1185
C2 C 0.1632(9) 0.6480(8) 0.1990(8)
C3 C 0.1027(10) 0.7037(8) 0.1800(7)
H4 H 0.0957 0.7246 0.1342
C4 C 0.0527(9) 0.7250(7) 0.2393(9)
C5 C -0.0218(9) 0.7831(7) 0.2456(6)
H5 H -0.0431 0.7855 0.2945
H6 H -0.0736 0.7689 0.2151
H7 H 0.0021 0.8333 0.2315
C6 C 0.4148(8) 0.5780(6) 0.3291(6)
H8 H 0.3774 0.5484 0.2958
H9 H 0.4438 0.5433 0.3629
H10 H 0.4628 0.6060 0.3034
C7 C 0.3530(11) 0.6346(7) 0.3682(6)
C8 C 0.3728(9) 0.6885(7) 0.4190(6)
H11 H 0.4323 0.7018 0.4360
C9 C 0.2866(11) 0.7204(6) 0.4410(6)
C10 C 0.2697(7) 0.7812(6) 0.4940(6)
H12 H 0.2031 0.7906 0.4978
H13 H 0.3009 0.8283 0.4794
H14 H 0.2938 0.7648 0.5397
C11 C 0.2004(8) 0.5858(6) 0.3176(6)
H15 H 0.2421 0.5524 0.2890
C12 C 0.1390(9) 0.5336(6) 0.3632(7)
C13 C 0.0614(10) 0.4971(7) 0.3354(6)
H16 H 0.0429 0.5082 0.2886
C14 C 0.0103(8) 0.4446(7) 0.3749(8)
H17 H -0.0436 0.4214 0.3559
C15 C 0.0397(10) 0.4269(6) 0.4422(7)
C16 C -0.0141(9) 0.3686(7) 0.4848(8)
C17 C 0.1169(11) 0.4625(7) 0.4698(6)
H18 H 0.1358 0.4503 0.5163
C18 C 0.1680(7) 0.5155(7) 0.4316(8)
H19 H 0.2212 0.5388 0.4514
C19 C -0.0107(13) 0.8512(7) 0.4286(6)
C20 C -0.0051(16) 0.9287(7) 0.4652(6)
C21 C 0.0758(14) 0.9540(10) 0.4942(8)
C22 C -0.0813(12) 0.9763(12) 0.4704(7)
H20 H -0.140(4) 0.954(5) 0.455(4)
H21 H 0.133(4) 0.928(5) 0.485(4)
Co1D Co -0.07677(9) 0.29358(7) 0.59911(7)
Co1D_2 Co -0.07677(9) 1.29358(7) 0.59911(7)
N1D N -0.0792(7) 0.3188(6) 0.7053(5)
N2D N -0.1463(7) 0.3674(5) 0.7307(6)
N3D N -0.2170(7) 0.3114(5) 0.5941(5)
N4D N -0.2577(9) 0.3650(5) 0.6395(5)
O1D O 0.0802(6) 0.6676(4) 0.5410(4)
O2D O -0.0114(5) 0.6394(3) 0.4495(4)
O3D O 0.0868(7) 1.1735(4) 0.5928(4)
O4D O -0.0675(6) 1.1849(4) 0.5751(4)
O4D_2 O -0.0675(6) 0.1849(4) 0.5751(4)
C1D C -0.2372(9) 0.3952(6) 0.8420(5)
H1D H -0.2675 0.4323 0.8109
H2D H -0.2832 0.3590 0.8598
H3D H -0.2085 0.4222 0.8815
C2D C -0.1632(9) 0.3520(8) 0.8010(8)
C3D C -0.1027(10) 0.2963(8) 0.8200(7)
H4D H -0.0957 0.2754 0.8658
C4D C -0.0527(9) 0.2750(7) 0.7607(9)
C5D C 0.0218(9) 0.2169(7) 0.7544(6)
H5D H 0.0431 0.2145 0.7055
H6D H 0.0736 0.2311 0.7849
H7D H -0.0021 0.1667 0.7685
C6D C -0.4148(8) 0.4220(6) 0.6709(6)
H8D H -0.3774 0.4516 0.7042
H9D H -0.4438 0.4567 0.6371
H10D H -0.4628 0.3940 0.6966
C7D C -0.3530(11) 0.3654(7) 0.6318(6)
C8D C -0.3728(9) 0.3115(7) 0.5810(6)
H11D H -0.4323 0.2982 0.5640
C9D C -0.2866(11) 0.2796(6) 0.5590(6)
C10D C -0.2697(7) 0.2188(6) 0.5060(6)
H12D H -0.2031 0.2094 0.5022
H13D H -0.3009 0.1717 0.5206
H14D H -0.2938 0.2352 0.4603
C11D C -0.2004(8) 0.4142(6) 0.6824(6)
H15D H -0.2421 0.4476 0.7110
C12D C -0.1390(9) 0.4664(6) 0.6368(7)
C13D C -0.0614(10) 0.5029(7) 0.6646(6)
H16D H -0.0429 0.4918 0.7114
C14D C -0.0103(8) 0.5554(7) 0.6251(8)
H17D H 0.0436 0.5786 0.6441
C15D C -0.0397(10) 0.5731(6) 0.5578(7)
C16D C 0.0141(9) 0.6314(7) 0.5152(8)
C17D C -0.1169(11) 0.5375(7) 0.5302(6)
H18D H -0.1358 0.5497 0.4837
C18D C -0.1680(7) 0.4845(7) 0.5684(8)
H19D H -0.2212 0.4612 0.5486
C19D C 0.0107(13) 1.1488(7) 0.5714(6)
C20D C 0.0051(16) 1.0713(7) 0.5348(6)
C21D C -0.0758(14) 1.0460(10) 0.5058(8)
C22D C 0.0813(12) 1.0237(12) 0.5296(7)
H20D H 0.140(4) 1.046(5) 0.545(4)
H21D H -0.133(4) 1.072(5) 0.515(4)
C23 C 0.2283(10) 0.8682(8) 0.2994(7)
O5 O 0.2115(6) 0.9306(5) 0.2516(4)
O6 O 0.2341(5) 0.6137(4) 0.6153(4)
loop_
_geom_bond_atom_site_label_1
_geom_bond_atom_site_label_2
_geom_bond_site_symmetry_1
_geom_bond_site_symmetry_2
Co1 N1 1_555 1_555
N1 N2 1_555 1_555
N2 C2 1_555 1_555
N3 Co1 1_555 1_555
N4 N3 1_555 1_555
O1 C16 1_555 1_555
O2 C16 1_555 1_555
O3 C19 1_555 1_555
O4 Co1 1_555 1_555
C1 H1 1_555 1_555
H2 C1 1_555 1_555
H3 C1 1_555 1_555
C2 C1 1_555 1_555
C3 C2 1_555 1_555
H4 C3 1_555 1_555
C4 N1 1_555 1_555
C5 C4 1_555 1_555
H5 C5 1_555 1_555
H6 C5 1_555 1_555
H7 C5 1_555 1_555
C6 H8 1_555 1_555
H9 C6 1_555 1_555
H10 C6 1_555 1_555
C7 N4 1_555 1_555
C8 C7 1_555 1_555
H11 C8 1_555 1_555
C9 N3 1_555 1_555
C10 C9 1_555 1_555
H12 C10 1_555 1_555
H13 C10 1_555 1_555
H14 C10 1_555 1_555
C11 N2 1_555 1_555
H15 C11 1_555 1_555
C12 C11 1_555 1_555
C13 C12 1_555 1_555
H16 C13 1_555 1_555
C14 C13 1_555 1_555
H17 C14 1_555 1_555
C15 C14 1_555 1_555
C16 C15 1_555 1_555
C17 C15 1_555 1_555
H18 C17 1_555 1_555
C18 C12 1_555 1_555
H19 C18 1_555 1_555
C19 O4 1_555 1_555
C20 C19 1_555 1_555
C21 C20 1_555 1_555
C22 C20 1_555 1_555
C23 O5 1_555 1_555
H20 C22 1_555 1_555
H21 C21 1_555 1_555
Co1D O2 1_555 1_555
Co1D_2 O4D 1_555 1_555
N1D Co1D 1_555 1_555
N2D N1D 1_555 1_555
N3D Co1D 1_555 1_555
N4D N3D 1_555 1_555
O1D C16D 1_555 1_555
O2D Co1 1_555 1_555
O3D C19D 1_555 1_555
O4D C19D 1_555 1_555
O4D_2 Co1D 1_555 1_555
C1D H1D 1_555 1_555
H2D C1D 1_555 1_555
H3D C1D 1_555 1_555
C2D N2D 1_555 1_555
C3D C2D 1_555 1_555
H4D C3D 1_555 1_555
C4D N1D 1_555 1_555
C5D C4D 1_555 1_555
H5D C5D 1_555 1_555
H6D C5D 1_555 1_555
H7D C5D 1_555 1_555
C6D H8D 1_555 1_555
H9D C6D 1_555 1_555
H10D C6D 1_555 1_555
C7D N4D 1_555 1_555
C8D C7D 1_555 1_555
H11D C8D 1_555 1_555
C9D N3D 1_555 1_555
C10D C9D 1_555 1_555
H12D C10D 1_555 1_555
H13D C10D 1_555 1_555
H14D C10D 1_555 1_555
C11D N2D 1_555 1_555
H15D C11D 1_555 1_555
C12D C11D 1_555 1_555
C13D C12D 1_555 1_555
H16D C13D 1_555 1_555
C14D C13D 1_555 1_555
H17D C14D 1_555 1_555
C15D C14D 1_555 1_555
C16D O2D 1_555 1_555
C17D C15D 1_555 1_555
H18D C17D 1_555 1_555
C18D C12D 1_555 1_555
H19D C18D 1_555 1_555
C19D C20D 1_555 1_555
C20D C21D 1_555 1_555
C21D C22 1_555 1_555
C22D C21 1_555 1_555
H20D C22D 1_555 1_555
H21D C21D 1_555 1_555
N4 C11 1_555 1_555
C3 C4 1_555 1_555
C6 C7 1_555 1_555
C8 C9 1_555 1_555
C17 C18 1_555 1_555
N4D C11D 1_555 1_555
C1D C2D 1_555 1_555
C3D C4D 1_555 1_555
C6D C7D 1_555 1_555
C8D C9D 1_555 1_555
C15D C16D 1_555 1_555
C17D C18D 1_555 1_555
C20D C22D 1_555 1_555

#END
