
#######################################################################
#
#                 Cambridge Crystallographic Data Centre
#                                CCDC 
#
#######################################################################
#
# If this CIF has been generated from an entry in the Cambridge 
# Structural Database, then it will include bibliographic, chemical, 
# crystal, experimental, refinement or atomic coordinate data resulting 
# from the CCDC's data processing and validation procedures.
#
#######################################################################

data_DOGTOJ
_symmetry_cell_setting           monoclinic
_symmetry_space_group_name_H-M   'P 21/c'
_symmetry_Int_Tables_number      14
_space_group_name_Hall           '-P 2ybc'
loop_
_symmetry_equiv_pos_site_id
_symmetry_equiv_pos_as_xyz
1 x,y,z
2 -x,1/2+y,1/2-z
3 -x,-y,-z
4 x,1/2-y,1/2+z
_cell_length_a                   14.6719(4)
_cell_length_b                   10.8780(3)
_cell_length_c                   14.9952(4)
_cell_angle_alpha                90
_cell_angle_beta                 113.4910(10)
_cell_angle_gamma                90
_cell_volume                     2194.9
loop_
_atom_site_label
_atom_site_type_symbol
_atom_site_fract_x
_atom_site_fract_y
_atom_site_fract_z
Br1 Br 0.12053(3) 0.96670(3) 0.25018(3)
Mn1 Mn -0.03723(3) 1.10135(4) 0.44462(3)
Mn2 Mn -0.27113(4) 1.11801(5) 0.32241(4)
N1 N 0.03859(19) 1.2335(2) 0.54933(19)
C1 C -0.0401(3) 1.2820(3) 0.5797(3)
C2 C -0.1336(3) 1.3079(3) 0.4888(3)
O1 O -0.14368(16) 1.2142(2) 0.41937(17)
C3 C 0.1292(2) 1.1975(3) 0.6375(2)
C4 C 0.1201(2) 1.0910(3) 0.6988(2)
O2 O 0.13171(16) 0.97348(19) 0.66515(16)
C5 C 0.0705(3) 1.3316(3) 0.4972(3)
C6 C 0.1032(3) 1.2723(3) 0.4233(3)
N2 N 0.0188(2) 1.1973(2) 0.3590(2)
O3 O 0.06294(15) 0.99182(18) 0.46709(15)
O4 O -0.2683(2) 1.2306(3) 0.2012(2)
C7 C -0.3382(5) 1.2442(7) 0.1080(4)
O5 O -0.2662(2) 1.0164(3) 0.4527(2)
N3 N -0.3807(3) 1.2382(4) 0.3390(3)
C8 C -0.4378(4) 1.2965(5) 0.3539(4)
N4 N -0.4819(14) 1.3842(14) 0.3858(15)
C9 C -0.5699(4) 1.4235(5) 0.3214(3)
N5 N -0.6350(2) 1.4835(3) 0.2763(3)
H1 H -0.0179 1.3569 0.6155
H2 H -0.0521 1.2210 0.6208
H3 H -0.1309 1.3900 0.4647
H4 H -0.1915 1.3051 0.5059
H5 H 0.1486 1.2687 0.6791
H6 H 0.1805 1.1758 0.6170
H7 H 0.1721 1.1008 0.7634
H8 H 0.0554 1.0970 0.6997
H9 H 0.1225 1.3789 0.5435
H10 H 0.0154 1.3846 0.4649
H11 H 0.1224 1.3332 0.3851
H12 H 0.1615 1.2187 0.4550
H13 H 0.0439 1.1441 0.3268
H14 H -0.0265 1.2457 0.3177
H15 H -0.2072 1.0019 0.4902
H16 H -0.3900 1.1860 0.0962
H17 H -0.3648 1.3250 0.1011
H18 H -0.3088 1.2322 0.0625
H19 H -0.3037 1.0736 0.4702
H20 H -0.2242 1.2876 0.2052
Mn1B Mn 0.03723(3) 0.89865(4) 0.55538(3)
Mn2B Mn 0.27113(4) 0.88199(5) 0.67759(4)
Mn2A Mn -0.72887(4) 1.61801(5) 0.17759(4)
O2B O -0.13171(16) 1.02652(19) 0.33485(16)
O3B O -0.06294(15) 1.00818(18) 0.53291(15)
N5A N -0.3650(2) 0.9835(3) 0.2237(3)
N6? N -0.5119(12) 1.3344(13) 0.3776(15)
loop_
_geom_bond_atom_site_label_1
_geom_bond_atom_site_label_2
_geom_bond_site_symmetry_1
_geom_bond_site_symmetry_2
Mn1 N1 1_555 1_555
Mn2 O1 1_555 1_555
N1 C1 1_555 1_555
C1 C2 1_555 1_555
C2 O1 1_555 1_555
O1 Mn1 1_555 1_555
C3 N1 1_555 1_555
C4 C3 1_555 1_555
O2 C4 1_555 1_555
C5 N1 1_555 1_555
C6 C5 1_555 1_555
N2 Mn1 1_555 1_555
O3 Mn1 1_555 1_555
O4 Mn2 1_555 1_555
C7 O4 1_555 1_555
O5 Mn2 1_555 1_555
N3 Mn2 1_555 1_555
C8 N3 1_555 1_555
N4 C8 1_555 1_555
C9 N4 1_555 1_555
N5 C9 1_555 1_555
H1 C1 1_555 1_555
H2 C1 1_555 1_555
H3 C2 1_555 1_555
H4 C2 1_555 1_555
H5 C3 1_555 1_555
H6 C3 1_555 1_555
H7 C4 1_555 1_555
H8 C4 1_555 1_555
H9 C5 1_555 1_555
H10 C5 1_555 1_555
H11 C6 1_555 1_555
H12 C6 1_555 1_555
H13 N2 1_555 1_555
H14 N2 1_555 1_555
H15 O5 1_555 1_555
H16 C7 1_555 1_555
H17 C7 1_555 1_555
H18 C7 1_555 1_555
H19 O5 1_555 1_555
H20 O4 1_555 1_555
Mn1B O2 1_555 1_555
Mn2B O2 1_555 1_555
Mn2A N5 1_555 1_555
O2B Mn1 1_555 1_555
O3B Mn1 1_555 1_555
N5A Mn2 1_555 1_555
Mn2 O2B 1_555 1_555
C6 N2 1_555 1_555
O3 Mn1B 1_555 1_555
Mn1B O3B 1_555 1_555

#END
