
#######################################################################
#
#                 Cambridge Crystallographic Data Centre
#                                CCDC 
#
#######################################################################
#
# If this CIF has been generated from an entry in the Cambridge 
# Structural Database, then it will include bibliographic, chemical, 
# crystal, experimental, refinement or atomic coordinate data resulting 
# from the CCDC's data processing and validation procedures.
#
#######################################################################

data_DOHBIM
_symmetry_cell_setting           monoclinic
_symmetry_space_group_name_H-M   'P 21/n'
_symmetry_Int_Tables_number      14
_space_group_name_Hall           '-P 2yn'
loop_
_symmetry_equiv_pos_site_id
_symmetry_equiv_pos_as_xyz
1 x,y,z
2 1/2-x,1/2+y,1/2-z
3 -x,-y,-z
4 1/2+x,1/2-y,1/2+z
_cell_length_a                   12.441(2)
_cell_length_b                   15.431(3)
_cell_length_c                   18.068(3)
_cell_angle_alpha                90
_cell_angle_beta                 98.272(4)
_cell_angle_gamma                90
_cell_volume                     3432.55
loop_
_atom_site_label
_atom_site_type_symbol
_atom_site_fract_x
_atom_site_fract_y
_atom_site_fract_z
Cd1 Cd -0.14670(4) 0.62652(3) 0.78144(2)
Cd2 Cd 0.37856(4) 0.58789(3) 0.29576(2)
N1 N 0.2780(4) 0.5801(4) 0.3926(3)
N2 N -0.0427(5) 0.6081(5) 0.6854(3)
N3 N -0.2465(5) 0.6280(4) 0.8821(3)
N4 N -0.5376(5) 0.6055(4) 1.1905(3)
C1 C -0.0344(5) 0.8077(5) 1.1001(4)
C2 C -0.0009(5) 0.8200(5) 1.0312(4)
H1 H -0.0180 0.8717 1.0056
C3 C 0.0571(5) 0.7575(5) 0.9997(4)
C4 C 0.0802(5) 0.6810(5) 1.0384(4)
H2 H 0.1197 0.6382 1.0180
C5 C 0.0461(5) 0.6664(4) 1.1067(4)
C6 C -0.0122(5) 0.7304(5) 1.1360(3)
H3 H -0.0371 0.7208 1.1814
C7 C -0.0923(5) 0.8795(5) 1.1352(4)
H4 H -0.1544 0.8983 1.1002
H5 H -0.1189 0.8575 1.1794
C8 C -0.0192(6) 0.9557(5) 1.1564(3)
C9 C 0.0869(5) 0.7701(5) 0.9233(3)
H6 H 0.1584 0.7460 0.9212
H7 H 0.0893 0.8316 0.9122
C10 C 0.0050(5) 0.7263(5) 0.8666(3)
C11 C 0.0703(5) 0.5824(5) 1.1480(4)
H8 H 0.0743 0.5368 1.1115
H9 H 0.0099 0.5689 1.1745
C12 C 0.1733(5) 0.5808(5) 1.2032(3)
C13 C 0.2814(6) 0.5169(5) 0.4421(4)
H10 H 0.3302 0.4718 0.4392
C14 C 0.2166(6) 0.5140(5) 0.4980(4)
H11 H 0.2208 0.4673 0.5309
C15 C 0.1457(6) 0.5809(6) 0.5045(4)
C16 C 0.1403(7) 0.6446(6) 0.4518(5)
H12 H 0.0911 0.6900 0.4519
C17 C 0.2079(7) 0.6409(6) 0.3989(4)
H13 H 0.2035 0.6858 0.3643
C18 C 0.0429(8) 0.5613(7) 0.6918(5)
H14 H 0.0642 0.5337 0.7373
C19 C 0.1064(7) 0.5488(7) 0.6353(5)
H15 H 0.1678 0.5138 0.6440
C20 C 0.0793(6) 0.5879(6) 0.5667(4)
C21 C -0.0118(7) 0.6405(7) 0.5616(5)
H16 H -0.0326 0.6723 0.5182
C22 C -0.0714(7) 0.6465(6) 0.6193(5)
H17 H -0.1351 0.6789 0.6121
C23 C -0.3515(6) 0.6241(5) 0.8736(4)
H18 H -0.3884 0.6243 0.8250
C24 C -0.4125(6) 0.6197(6) 0.9312(4)
H19 H -0.4878 0.6174 0.9207
C25 C -0.3628(5) 0.6188(5) 1.0040(4)
C26 C -0.2510(6) 0.6235(6) 1.0132(4)
H20 H -0.2120 0.6238 1.0612
C27 C -0.1971(6) 0.6276(6) 0.9532(4)
H21 H -0.1217 0.6302 0.9618
C28 C -0.5853(6) 0.6056(6) 1.1218(4)
H22 H -0.6607 0.6013 1.1137
C29 C -0.5330(6) 0.6116(6) 1.0599(4)
H23 H -0.5732 0.6124 1.0123
C30 C -0.4237(6) 0.6164(5) 1.0678(4)
C31 C -0.3732(6) 0.6171(7) 1.1393(4)
H24 H -0.2979 0.6201 1.1493
C32 C -0.4343(7) 0.6133(7) 1.1976(4)
H25 H -0.3970 0.6168 1.2459
O1 O 0.0726(4) 0.9416(3) 1.1936(2)
O2 O -0.0471(4) 1.0308(3) 1.1378(3)
O3 O -0.0692(3) 0.7692(3) 0.8274(2)
O4 O 0.0080(3) 0.6454(3) 0.8625(2)
O5 O 0.2071(3) 0.5100(3) 1.2297(2)
O6 O 0.2239(3) 0.6496(3) 1.2202(2)
O7 O -0.2774(4) 0.6802(3) 0.6993(3)
H26 H -0.294(6) 0.7316(15) 0.701(4)
H27 H -0.332(3) 0.651(4) 0.690(4)
Cd1B Cd 0.14670(4) 0.37348(3) 1.21856(2)
Cd2_2 Cd -0.62144(4) 0.58789(3) 1.29576(2)
Cd2A Cd 0.12144(4) 1.08789(3) 1.20424(2)
Cd2C Cd -0.12144(4) 0.91211(3) 0.79576(2)
Cd2_3 Cd 0.37856(4) 0.58789(3) 1.29576(2)
N4_2 N 0.4624(5) 0.6055(4) 0.1905(3)
O1A O 0.4274(4) 0.4416(3) 0.3064(2)
O2A O 0.5471(4) 0.5308(3) 0.3622(3)
O3C O 0.4308(3) 0.7308(3) 0.3274(2)
O5B O -0.2071(3) 0.4900(3) 0.7703(2)
O5_2 O 0.2071(3) 0.5100(3) 0.2297(2)
O6_2 O 0.2239(3) 0.6496(3) 0.2202(2)
Cl1 Cl 0.3571(2) 0.7798(3) 0.83148(17)
O8 O 0.3437(12) 0.8204(11) 0.9001(7)
O10 O 0.4601(9) 0.8151(12) 0.8167(9)
O12 O 0.2719(13) 0.8103(15) 0.7780(9)
O14 O 0.3581(16) 0.6868(6) 0.8266(11)
O16 O 0.2156(8) 0.5618(6) 0.8838(5)
Cl2? Cl 0.3571(2) 0.7798(3) 0.83148(17)
O9? O 0.3630(11) 0.7529(11) 0.9089(5)
O11? O 0.4607(9) 0.7523(13) 0.8149(8)
O13? O 0.3307(19) 0.8653(8) 0.8069(12)
O15? O 0.2731(11) 0.7286(11) 0.7899(7)
loop_
_geom_bond_atom_site_label_1
_geom_bond_atom_site_label_2
_geom_bond_site_symmetry_1
_geom_bond_site_symmetry_2
Cd1 N2 1_555 1_555
Cd2 N1 1_555 1_555
Cl1 O8 1_555 1_555
N1 C13 1_555 1_555
N2 C18 1_555 1_555
N3 Cd1 1_555 1_555
N4 C28 1_555 1_555
C1 C2 1_555 1_555
C2 H1 1_555 1_555
C3 C2 1_555 1_555
C4 C3 1_555 1_555
H2 C4 1_555 1_555
C5 C4 1_555 1_555
C6 C1 1_555 1_555
H3 C6 1_555 1_555
C7 C1 1_555 1_555
H4 C7 1_555 1_555
H5 C7 1_555 1_555
C8 C7 1_555 1_555
C9 C3 1_555 1_555
H6 C9 1_555 1_555
H7 C9 1_555 1_555
C10 C9 1_555 1_555
C11 C5 1_555 1_555
H8 C11 1_555 1_555
H9 C11 1_555 1_555
C12 C11 1_555 1_555
C13 H10 1_555 1_555
C14 C13 1_555 1_555
H11 C14 1_555 1_555
C15 C14 1_555 1_555
C16 C15 1_555 1_555
H12 C16 1_555 1_555
C17 N1 1_555 1_555
H13 C17 1_555 1_555
C18 H14 1_555 1_555
C19 C18 1_555 1_555
H15 C19 1_555 1_555
C20 C15 1_555 1_555
C21 C20 1_555 1_555
H16 C21 1_555 1_555
C22 N2 1_555 1_555
H17 C22 1_555 1_555
C23 N3 1_555 1_555
H18 C23 1_555 1_555
C24 C23 1_555 1_555
H19 C24 1_555 1_555
C25 C24 1_555 1_555
C26 C25 1_555 1_555
H20 C26 1_555 1_555
C27 N3 1_555 1_555
H21 C27 1_555 1_555
C28 H22 1_555 1_555
C29 C28 1_555 1_555
H23 C29 1_555 1_555
C30 C25 1_555 1_555
C31 C30 1_555 1_555
H24 C31 1_555 1_555
C32 N4 1_555 1_555
H25 C32 1_555 1_555
O1 C8 1_555 1_555
O2 C8 1_555 1_555
O3 Cd1 1_555 1_555
O4 Cd1 1_555 1_555
O5 C12 1_555 1_555
O6 C12 1_555 1_555
O7 Cd1 1_555 1_555
H26 O7 1_555 1_555
H27 O7 1_555 1_555
O10 Cl1 1_555 1_555
O12 Cl1 1_555 1_555
O14 Cl1 1_555 1_555
Cd1B O5 1_555 1_555
Cd2_2 N4 1_555 1_555
Cd2A O1 1_555 1_555
Cd2C O3 1_555 1_555
Cd2_3 O5 1_555 1_555
N4_2 Cd2 1_555 1_555
O1A Cd2 1_555 1_555
O2A Cd2 1_555 1_555
O3C Cd2 1_555 1_555
O5B Cd1 1_555 1_555
O5_2 Cd2 1_555 1_555
O6_2 Cd2 1_555 1_555
C5 C6 1_555 1_555
C10 O3 1_555 1_555
C10 O4 1_555 1_555
C16 C17 1_555 1_555
C19 C20 1_555 1_555
C21 C22 1_555 1_555
C26 C27 1_555 1_555
C29 C30 1_555 1_555
C31 C32 1_555 1_555
O2 Cd2A 1_555 1_555
O6 Cd2_3 1_555 1_555

#END
