
#######################################################################
#
#                 Cambridge Crystallographic Data Centre
#                                CCDC 
#
#######################################################################
#
# If this CIF has been generated from an entry in the Cambridge 
# Structural Database, then it will include bibliographic, chemical, 
# crystal, experimental, refinement or atomic coordinate data resulting 
# from the CCDC's data processing and validation procedures.
#
#######################################################################

data_DOHKER
_symmetry_cell_setting           triclinic
_symmetry_space_group_name_H-M   'P -1'
_symmetry_Int_Tables_number      2
_space_group_name_Hall           '-P 1'
loop_
_symmetry_equiv_pos_site_id
_symmetry_equiv_pos_as_xyz
1 x,y,z
2 -x,-y,-z
_cell_length_a                   8.830(4)
_cell_length_b                   10.010(4)
_cell_length_c                   10.839(4)
_cell_angle_alpha                67.129(7)
_cell_angle_beta                 67.916(7)
_cell_angle_gamma                64.671(6)
_cell_volume                     772.157
loop_
_atom_site_label
_atom_site_type_symbol
_atom_site_fract_x
_atom_site_fract_y
_atom_site_fract_z
Co1 Co 0.21574(3) 0.09240(2) 0.05510(2)
O1 O -0.06251(16) 0.10135(14) 0.14304(14)
O2 O 0.20199(19) 0.09121(18) -0.13942(15)
O3 O -0.69069(15) 0.85869(14) 0.09943(14)
O4 O 0.01520(16) 0.30619(15) 0.04039(15)
N1 N 0.22886(19) 0.08675(17) 0.25284(15)
O5 O -0.41001(17) 0.82201(15) 0.04626(15)
C1 C -0.3240(2) 0.50625(19) 0.09973(18)
H1 H -0.2345 0.5474 0.0587
C2 C -0.6287(2) 0.5403(2) 0.18854(19)
H2 H -0.7433 0.6045 0.2048
C3 C -0.4954(2) 0.60266(19) 0.12600(17)
C4 C -0.2871(2) 0.34824(19) 0.13506(17)
N2 N -0.1269(2) 0.38993(17) 0.50043(16)
N3 N -0.1518(3) 0.6350(2) 0.3907(2)
C5 C 0.0964(2) 0.1407(2) 0.47467(18)
C6 C -0.0587(2) 0.2262(2) 0.56950(19)
H3 H -0.1490 0.1808 0.6016
H4 H -0.0257 0.2152 0.6497
C7 C -0.5344(2) 0.77421(18) 0.08586(17)
C8 C -0.4209(2) 0.2866(2) 0.19895(19)
H5 H -0.3962 0.1809 0.2232
C9 C -0.0672(2) 0.5069(2) 0.47212(19)
C10 C -0.1025(2) 0.2470(2) 0.10298(18)
C11 C 0.3703(2) -0.0101(2) 0.2976(2)
H6 H 0.4656 -0.0595 0.2369
C12 C -0.2552(3) 0.4485(2) 0.4333(2)
H7 H -0.3204 0.3962 0.4332
C13 C 0.0953(2) 0.1612(2) 0.34055(19)
H8 H -0.0029 0.2301 0.3099
C14 C -0.5913(2) 0.3827(2) 0.2266(2)
H9 H -0.6806 0.3413 0.2707
C15 C 0.2406(3) 0.0365(2) 0.5202(2)
H10 H 0.2446 0.0173 0.6103
C16 C 0.3804(3) -0.0398(3) 0.4301(2)
H11 H 0.4795 -0.1100 0.4587
C17 C -0.2683(3) 0.5971(3) 0.3672(3)
H12 H -0.3458 0.6643 0.3131
H13 H 0.150(3) 0.034(3) -0.132(3)
H14 H 0.159(4) 0.167(3) -0.193(3)
Co1_2 Co 1.21574(3) -0.90760(2) 0.05510(2)
Co1_3 Co -0.78426(3) 1.09240(2) 0.05510(2)
Co1A Co -0.21574(3) 0.90760(2) -0.05510(2)
Co1A_2 Co -0.21574(3) 0.90760(2) 0.94490(2)
Co1A_3 Co 0.78426(3) -0.09240(2) -0.05510(2)
O1_2 O 0.93749(16) -0.89865(14) 0.14304(14)
O2_2 O 1.20199(19) -0.90879(18) -0.13942(15)
O3_2 O 0.30931(15) -0.14131(14) 0.09943(14)
O3_3 O 1.30931(15) -1.14131(14) 0.09943(14)
O4_2 O 1.01520(16) -0.69381(15) 0.04039(15)
N1A N -0.22886(19) 0.91325(17) 0.74716(15)
N1_2 N 1.22886(19) -0.91325(17) 0.25284(15)
O5_2 O 0.58999(17) -0.17799(15) 0.04626(15)
O5A O 0.41001(17) 0.17799(15) -0.04626(15)
O5A_2 O 1.41001(17) -0.82201(15) -0.04626(15)
C1_2 C 0.6760(2) -0.49375(19) 0.09973(18)
H1_2 H 0.7655 -0.4526 0.0587
C2_2 C 0.3713(2) -0.4597(2) 0.18854(19)
H2_2 H 0.2567 -0.3955 0.2048
C3_2 C 0.5046(2) -0.39734(19) 0.12600(17)
C4_2 C 0.7129(2) -0.65176(19) 0.13506(17)
N2A N 0.1269(2) 0.61007(17) 0.49957(16)
N3A N 0.1518(3) 0.3650(2) 0.6093(2)
C5A C -0.0964(2) 0.8593(2) 0.52533(18)
C6A C 0.0587(2) 0.7738(2) 0.43050(19)
H3A H 0.1490 0.8192 0.3984
H4A H 0.0257 0.7848 0.3503
C7_2 C 0.4656(2) -0.22579(18) 0.08586(17)
C8_2 C 0.5791(2) -0.7134(2) 0.19895(19)
H5_2 H 0.6038 -0.8191 0.2232
C9A C 0.0672(2) 0.4931(2) 0.52788(19)
C10_2 C 0.8975(2) -0.7530(2) 0.10298(18)
C11A C -0.3703(2) 1.0101(2) 0.7024(2)
H6A H -0.4656 1.0595 0.7631
C12A C 0.2552(3) 0.5515(2) 0.5667(2)
H7A H 0.3204 0.6038 0.5668
C13A C -0.0953(2) 0.8388(2) 0.65945(19)
H8A H 0.0029 0.7699 0.6901
C14_2 C 0.4087(2) -0.6173(2) 0.2266(2)
H9_2 H 0.3194 -0.6587 0.2707
C15A C -0.2406(3) 0.9635(2) 0.4798(2)
H10A H -0.2446 0.9827 0.3897
C16A C -0.3804(3) 1.0398(3) 0.5699(2)
H11A H -0.4795 1.1100 0.5413
C17A C 0.2683(3) 0.4029(3) 0.6328(3)
H12A H 0.3458 0.3357 0.6869
H13_2 H 1.150(3) -0.966(3) -0.132(3)
H14_2 H 1.159(4) -0.833(3) -0.193(3)
loop_
_geom_bond_atom_site_label_1
_geom_bond_atom_site_label_2
_geom_bond_site_symmetry_1
_geom_bond_site_symmetry_2
Co1 O1 1_555 1_555
O1 C10 1_555 1_555
O2 Co1 1_555 1_555
O3 C7 1_555 1_555
O4 Co1 1_555 1_555
N1 Co1 1_555 1_555
O5 C7 1_555 1_555
C1 H1 1_555 1_555
C2 H2 1_555 1_555
C3 C1 1_555 1_555
C4 C1 1_555 1_555
N2 C6 1_555 1_555
N3 C9 1_555 1_555
C5 C6 1_555 1_555
C6 H3 1_555 1_555
H4 C6 1_555 1_555
C7 C3 1_555 1_555
C8 C4 1_555 1_555
H5 C8 1_555 1_555
C9 N2 1_555 1_555
C10 O4 1_555 1_555
C11 N1 1_555 1_555
H6 C11 1_555 1_555
C12 N2 1_555 1_555
H7 C12 1_555 1_555
C13 N1 1_555 1_555
H8 C13 1_555 1_555
C14 C2 1_555 1_555
H9 C14 1_555 1_555
C15 C5 1_555 1_555
H10 C15 1_555 1_555
C16 C11 1_555 1_555
H11 C16 1_555 1_555
C17 N3 1_555 1_555
H12 C17 1_555 1_555
H13 O2 1_555 1_555
H14 O2 1_555 1_555
Co1_2 O1_2 1_555 1_555
Co1_3 O3 1_555 1_555
Co1A O5 1_555 1_555
Co1A_2 N1A 1_555 1_555
Co1A_3 O5_2 1_555 1_555
O1_2 C10_2 1_555 1_555
O2_2 Co1_2 1_555 1_555
O3_2 Co1 1_555 1_555
O3_3 Co1_2 1_555 1_555
O4_2 Co1_2 1_555 1_555
N1A C11A 1_555 1_555
N1_2 Co1_2 1_555 1_555
O5_2 C7_2 1_555 1_555
O5A Co1 1_555 1_555
O5A_2 Co1_2 1_555 1_555
C1_2 H1_2 1_555 1_555
C2_2 H2_2 1_555 1_555
C3_2 C1_2 1_555 1_555
C4_2 C1_2 1_555 1_555
N2A C6A 1_555 1_555
N3A C9A 1_555 1_555
C5A C6A 1_555 1_555
C6A H3A 1_555 1_555
H4A C6A 1_555 1_555
C7_2 O3_2 1_555 1_555
C8_2 C4_2 1_555 1_555
H5_2 C8_2 1_555 1_555
C9A C9 1_555 1_555
C10_2 O4_2 1_555 1_555
C11A H6A 1_555 1_555
C12A N2A 1_555 1_555
H7A C12A 1_555 1_555
C13A N1A 1_555 1_555
H8A C13A 1_555 1_555
C14_2 C2_2 1_555 1_555
H9_2 C14_2 1_555 1_555
C15A C5A 1_555 1_555
H10A C15A 1_555 1_555
C16A C11A 1_555 1_555
H11A C16A 1_555 1_555
C17A N3A 1_555 1_555
H12A C17A 1_555 1_555
H13_2 O2_2 1_555 1_555
H14_2 O2_2 1_555 1_555
C2 C3 1_555 1_555
C4 C10 1_555 1_555
C5 C13 1_555 1_555
C8 C14 1_555 1_555
C12 C17 1_555 1_555
C15 C16 1_555 1_555
C2_2 C3_2 1_555 1_555
C3_2 C7_2 1_555 1_555
C4_2 C10_2 1_555 1_555
N2A C9A 1_555 1_555
C5A C13A 1_555 1_555
C8_2 C14_2 1_555 1_555
C12A C17A 1_555 1_555
C15A C16A 1_555 1_555

#END
