
#######################################################################
#
#                 Cambridge Crystallographic Data Centre
#                                CCDC 
#
#######################################################################
#
# If this CIF has been generated from an entry in the Cambridge 
# Structural Database, then it will include bibliographic, chemical, 
# crystal, experimental, refinement or atomic coordinate data resulting 
# from the CCDC's data processing and validation procedures.
#
#######################################################################

data_DOHKIV
_symmetry_cell_setting           monoclinic
_symmetry_space_group_name_H-M   'P 21/n'
_symmetry_Int_Tables_number      14
_space_group_name_Hall           '-P 2yn'
loop_
_symmetry_equiv_pos_site_id
_symmetry_equiv_pos_as_xyz
1 x,y,z
2 1/2-x,1/2+y,1/2-z
3 -x,-y,-z
4 1/2+x,1/2-y,1/2+z
_cell_length_a                   14.542(5)
_cell_length_b                   16.359(5)
_cell_length_c                   18.951(5)
_cell_angle_alpha                90
_cell_angle_beta                 92.047(5)
_cell_angle_gamma                90
_cell_volume                     4505.43
loop_
_atom_site_label
_atom_site_type_symbol
_atom_site_fract_x
_atom_site_fract_y
_atom_site_fract_z
C1 C 0.2170(3) 0.1898(2) 0.0551(2)
H1 H 0.2674 0.1948 0.0863
C2 C 0.2321(3) 0.1780(3) -0.0159(2)
H2 H 0.2917 0.1746 -0.0319
C3 C 0.1602(4) 0.1716(3) -0.0610(2)
H3 H 0.1693 0.1641 -0.1089
C4 C 0.0732(4) 0.1761(3) -0.0368(2)
H4 H 0.0222 0.1715 -0.0675
C5 C 0.0629(3) 0.1877(3) 0.0346(2)
H5 H 0.0037 0.1909 0.0515
C6 C 0.0260(2) -0.00973(19) 0.39874(16)
H6 H -0.0153 0.0250 0.4201
C7 C 0.0253(2) -0.0911(2) 0.41553(18)
H7 H -0.0153 -0.1109 0.4483
C8 C 0.0846(3) -0.1430(2) 0.38388(19)
H8 H 0.0842 -0.1986 0.3940
C9 C 0.1452(3) -0.1112(2) 0.33641(19)
H9 H 0.1868 -0.1450 0.3143
C10 C 0.1427(2) -0.0291(2) 0.32270(17)
H10 H 0.1839 -0.0077 0.2911
C11 C 0.2979(3) 0.4328(3) 0.3745(2)
H11 H 0.2944 0.4454 0.3266
C12 C 0.3632(3) 0.4723(3) 0.4169(2)
H12 H 0.4035 0.5097 0.3978
C13 C 0.3672(3) 0.4551(3) 0.4872(2)
H13 H 0.4092 0.4819 0.5174
C14 C 0.3090(3) 0.3984(3) 0.5125(2)
H14 H 0.3115 0.3845 0.5602
C15 C 0.2464(3) 0.3618(3) 0.4672(2)
H15 H 0.2063 0.3235 0.4854
C16 C -0.2508(3) 0.2685(3) 0.2385(3)
H16 H -0.2376 0.2132 0.2337
C17 C -0.3409(3) 0.2935(4) 0.2334(3)
H17 H -0.3876 0.2552 0.2263
C18 C -0.3616(3) 0.3734(4) 0.2387(2)
H18 H -0.4222 0.3913 0.2349
C19 C -0.2923(4) 0.4263(3) 0.2497(3)
H19 H -0.3045 0.4819 0.2535
C20 C -0.2026(3) 0.3983(3) 0.2554(3)
H20 H -0.1554 0.4359 0.2634
C21 C -0.1757(2) 0.6041(2) 0.14736(19)
H21 H -0.1681 0.6042 0.1963
C22 C -0.2635(3) 0.6129(3) 0.1177(2)
H22 H -0.3139 0.6184 0.1463
C23 C -0.2749(3) 0.6134(3) 0.0466(2)
H23 H -0.3332 0.6210 0.0257
C24 C -0.2006(3) 0.6027(3) 0.0056(2)
H24 H -0.2074 0.6017 -0.0434
C25 C -0.1152(2) 0.5933(2) 0.03846(18)
H25 H -0.0647 0.5853 0.0105
C26 C -0.0912(4) 0.5696(5) 0.3847(3)
H26 H -0.0954 0.5616 0.4346
H27 H -0.1282 0.5296 0.3599
H28 H -0.1128 0.6234 0.3724
C27 C 0.0711(3) 0.5408(3) 0.4214(2)
H29 H 0.0407 0.5372 0.4654
H30 H 0.1174 0.5825 0.4245
H31 H 0.0992 0.4892 0.4113
C28 C 0.0295(2) 0.56904(19) 0.30035(17)
H32 H 0.0917 0.5631 0.2918
C29 C 0.1324(4) 0.6544(4) -0.0706(3)
H33 H 0.1690 0.6650 -0.1108
H34 H 0.1034 0.7042 -0.0563
H35 H 0.0861 0.6146 -0.0829
C30 C 0.2883(3) 0.6120(3) -0.0270(2)
H36 H 0.3005 0.6292 -0.0742
H37 H 0.3035 0.5552 -0.0216
H38 H 0.3248 0.6437 0.0061
C31 C 0.1563(2) 0.6052(2) 0.04728(17)
H39 H 0.1952 0.5813 0.0814
N1 N 0.13372(19) 0.19430(16) 0.07995(14)
N2 N 0.08416(17) 0.02158(15) 0.35256(12)
N3 N 0.23998(19) 0.37798(18) 0.39883(15)
N4 N -0.18170(18) 0.32045(17) 0.25006(14)
N5 N -0.10128(18) 0.59530(16) 0.10856(14)
N6 N 0.0040(2) 0.5611(2) 0.36512(15)
N7 N 0.1901(2) 0.62401(19) -0.01365(14)
O1 O 0.12367(17) 0.33615(13) 0.15436(11)
O2 O 0.14114(16) 0.41595(13) 0.26085(12)
O3 O -0.01029(15) 0.38667(14) 0.21200(13)
O4 O 0.08980(16) 0.47782(13) 0.15136(12)
O5 O 0.05694(18) 0.10734(15) 0.2000(2)
O6 O -0.07236(18) 0.19492(14) 0.17881(13)
O7 O -0.0693(2) 0.09691(17) 0.27149(14)
O8 O -0.0830(3) 0.05058(17) 0.15250(16)
O9 O 0.22034(19) 0.14066(18) 0.33071(16)
O10 O 0.2692(2) 0.27171(18) 0.2935(2)
O11 O 0.2563(2) 0.1692(3) 0.21071(16)
O12 O 0.37671(19) 0.16462(18) 0.29808(16)
O13 O -0.08110(15) 0.27193(16) 0.36789(12)
O14 O 0.06404(16) 0.32235(15) 0.41114(12)
O15 O -0.04539(17) 0.27200(14) 0.49205(11)
O16 O 0.0305(2) 0.17843(14) 0.41637(12)
O17 O -0.02406(16) 0.58411(16) 0.24880(12)
O18 O 0.07542(16) 0.61750(15) 0.06191(11)
O19 O 0.07304(14) 0.24407(12) 0.27703(10)
S1 S 0.08577(5) 0.40450(4) 0.19552(4)
S2 S -0.04731(6) 0.11059(5) 0.19879(4)
S3 S 0.28241(6) 0.18494(5) 0.28295(5)
S4 S -0.00844(5) 0.26078(4) 0.42318(4)
Cu1 Cu 0.11080(3) 0.21981(2) 0.181027(19)
Cu2 Cu 0.07679(3) 0.13692(2) 0.320426(18)
Cu3 Cu 0.15349(3) 0.31500(2) 0.334708(19)
Cu4 Cu -0.05211(3) 0.28291(2) 0.265356(19)
Cu5 Cu 0.02747(3) 0.59512(2) 0.15469(2)
O12A O 0.12329(19) 0.66462(18) 0.20192(16)
Cu5A Cu 0.47253(3) 0.09512(2) 0.34531(2)
loop_
_geom_bond_atom_site_label_1
_geom_bond_atom_site_label_2
_geom_bond_site_symmetry_1
_geom_bond_site_symmetry_2
C1 H1 1_555 1_555
C2 C1 1_555 1_555
H2 C2 1_555 1_555
C3 C2 1_555 1_555
H3 C3 1_555 1_555
C4 C3 1_555 1_555
H4 C4 1_555 1_555
C5 C4 1_555 1_555
H5 C5 1_555 1_555
C6 H6 1_555 1_555
C7 C6 1_555 1_555
H7 C7 1_555 1_555
C8 C7 1_555 1_555
H8 C8 1_555 1_555
C9 C8 1_555 1_555
H9 C9 1_555 1_555
C10 C9 1_555 1_555
H10 C10 1_555 1_555
C11 H11 1_555 1_555
C12 C11 1_555 1_555
H12 C12 1_555 1_555
C13 C12 1_555 1_555
H13 C13 1_555 1_555
C14 C13 1_555 1_555
H14 C14 1_555 1_555
C15 C14 1_555 1_555
H15 C15 1_555 1_555
C16 H16 1_555 1_555
C17 C16 1_555 1_555
H17 C17 1_555 1_555
C18 C17 1_555 1_555
H18 C18 1_555 1_555
C19 C18 1_555 1_555
H19 C19 1_555 1_555
C20 C19 1_555 1_555
H20 C20 1_555 1_555
C21 H21 1_555 1_555
C22 C21 1_555 1_555
H22 C22 1_555 1_555
C23 C22 1_555 1_555
H23 C23 1_555 1_555
C24 C23 1_555 1_555
H24 C24 1_555 1_555
C25 C24 1_555 1_555
H25 C25 1_555 1_555
C26 H26 1_555 1_555
H27 C26 1_555 1_555
H28 C26 1_555 1_555
C27 H29 1_555 1_555
H30 C27 1_555 1_555
H31 C27 1_555 1_555
C28 H32 1_555 1_555
C29 H33 1_555 1_555
H34 C29 1_555 1_555
H35 C29 1_555 1_555
C30 H36 1_555 1_555
H37 C30 1_555 1_555
H38 C30 1_555 1_555
C31 H39 1_555 1_555
N1 C1 1_555 1_555
N2 C6 1_555 1_555
N3 C11 1_555 1_555
N4 C16 1_555 1_555
N5 C21 1_555 1_555
N6 C26 1_555 1_555
N7 C29 1_555 1_555
O1 S1 1_555 1_555
O2 S1 1_555 1_555
O3 S1 1_555 1_555
O4 S1 1_555 1_555
O5 S2 1_555 1_555
O6 S2 1_555 1_555
O7 S2 1_555 1_555
O8 S2 1_555 1_555
O9 S3 1_555 1_555
O10 S3 1_555 1_555
O11 S3 1_555 1_555
O12 S3 1_555 1_555
O13 S4 1_555 1_555
O14 S4 1_555 1_555
O15 S4 1_555 1_555
O16 S4 1_555 1_555
O17 C28 1_555 1_555
O18 C31 1_555 1_555
O19 Cu1 1_555 1_555
Cu1 N1 1_555 1_555
Cu2 N2 1_555 1_555
Cu3 N3 1_555 1_555
Cu4 N4 1_555 1_555
Cu5 N5 1_555 1_555
O12A Cu5 1_555 1_555
Cu5A O12 1_555 1_555
C5 N1 1_555 1_555
C10 N2 1_555 1_555
C15 N3 1_555 1_555
C20 N4 1_555 1_555
C25 N5 1_555 1_555
C27 N6 1_555 1_555
C28 N6 1_555 1_555
C30 N7 1_555 1_555
C31 N7 1_555 1_555
O1 Cu1 1_555 1_555
O2 Cu3 1_555 1_555
O3 Cu4 1_555 1_555
O4 Cu5 1_555 1_555
O5 Cu1 1_555 1_555
O5 Cu2 1_555 1_555
O6 Cu4 1_555 1_555
O7 Cu2 1_555 1_555
O9 Cu2 1_555 1_555
O10 Cu3 1_555 1_555
O11 Cu1 1_555 1_555
O13 Cu4 1_555 1_555
O14 Cu3 1_555 1_555
O16 Cu2 1_555 1_555
O17 Cu5 1_555 1_555
O18 Cu5 1_555 1_555
O19 Cu2 1_555 1_555
O19 Cu3 1_555 1_555
O19 Cu4 1_555 1_555

#END
