
#######################################################################
#
#                 Cambridge Crystallographic Data Centre
#                                CCDC 
#
#######################################################################
#
# If this CIF has been generated from an entry in the Cambridge 
# Structural Database, then it will include bibliographic, chemical, 
# crystal, experimental, refinement or atomic coordinate data resulting 
# from the CCDC's data processing and validation procedures.
#
#######################################################################

data_DOHKOB
_symmetry_cell_setting           monoclinic
_symmetry_space_group_name_H-M   'C 2/c'
_symmetry_Int_Tables_number      15
_space_group_name_Hall           '-C 2yn'
loop_
_symmetry_equiv_pos_site_id
_symmetry_equiv_pos_as_xyz
1 x,y,z
2 1/2+x,1/2+y,z
3 -x,y,1/2-z
4 1/2-x,1/2+y,1/2-z
5 -x,-y,-z
6 1/2-x,1/2-y,-z
7 x,-y,1/2+z
8 1/2+x,1/2-y,1/2+z
_cell_length_a                   23.078(5)
_cell_length_b                   10.214(5)
_cell_length_c                   23.142(5)
_cell_angle_alpha                90
_cell_angle_beta                 115.471(5)
_cell_angle_gamma                90
_cell_volume                     4924.79
loop_
_atom_site_label
_atom_site_type_symbol
_atom_site_fract_x
_atom_site_fract_y
_atom_site_fract_z
C1 C -0.21356(17) 0.0965(4) 0.20506(17)
H1 H -0.2143 0.0061 0.2094
C2 C -0.26601(18) 0.1680(4) 0.20014(19)
H2 H -0.3011 0.1263 0.2017
C3 C -0.2660(2) 0.3002(4) 0.1930(2)
H3 H -0.3010 0.3501 0.1898
C4 C -0.2136(2) 0.3590(4) 0.1905(2)
H4 H -0.2128 0.4490 0.1848
C5 C -0.16217(18) 0.2818(4) 0.19661(19)
H5 H -0.1265 0.3221 0.1956
C6 C -0.03589(18) -0.4193(3) 0.33592(17)
H6 H -0.0313 -0.4378 0.2988
C7 C -0.05664(19) -0.5172(4) 0.36357(19)
H7 H -0.0657 -0.6005 0.3456
C8 C -0.0637(2) -0.4892(4) 0.4183(2)
H8 H -0.0785 -0.5530 0.4374
C9 C -0.0487(2) -0.3663(4) 0.44463(19)
H9 H -0.0524 -0.3464 0.4821
C10 C -0.02833(19) -0.2734(4) 0.41471(17)
H10 H -0.0184 -0.1902 0.4326
C11 C -0.1439(2) -0.0922(4) -0.0038(2)
H11 H -0.1375 -0.0663 0.0370
C12 C -0.1063(2) -0.0377(4) -0.0300(2)
H12 H -0.0749 0.0234 -0.0071
C13 C -0.11541(19) -0.0743(4) -0.0900(2)
H13 H -0.0917 -0.0360 -0.1094
C14 C -0.1603(2) -0.1688(5) -0.1210(2)
H14 H -0.1661 -0.1985 -0.1612
C15 C -0.19640(18) -0.2192(4) -0.0924(2)
H15 H -0.2270 -0.2825 -0.1141
C16 C -0.2413(2) -0.5228(4) -0.03770(19)
H16 H -0.2802 -0.5036 -0.0721
C17 C -0.21633(19) -0.6458(4) -0.03341(19)
H17 H -0.2380 -0.7085 -0.0643
C18 C -0.1590(2) -0.6754(4) 0.0169(2)
H18 H -0.1412 -0.7584 0.0210
C19 C -0.1287(2) -0.5808(4) 0.0608(2)
H19 H -0.0899 -0.5987 0.0956
C20 C -0.1559(2) -0.4585(4) 0.0535(2)
H20 H -0.1342 -0.3936 0.0831
N1 N -0.16130(13) 0.1522(3) 0.20385(13)
N2 N -0.02210(14) -0.2980(3) 0.36079(13)
N3 N -0.18941(15) -0.1810(3) -0.03472(16)
N4 N -0.21261(16) -0.4299(3) 0.00497(17)
O1 O -0.07374(12) 0.1304(2) 0.14571(12)
O2 O -0.00403(12) -0.0210(2) 0.12643(10)
O3 O -0.02249(12) 0.1923(2) 0.07893(11)
O4 O 0.04044(12) 0.1675(2) 0.19239(11)
O5 O -0.11868(13) -0.1224(2) 0.23535(13)
O6 O -0.06405(10) -0.2794(2) 0.19969(12)
O7 O -0.16148(12) -0.1807(3) 0.12379(12)
O8 O -0.16401(11) -0.3361(2) 0.20107(12)
O9 O -0.5000 -0.4591(3) -0.2500
S1 S -0.01497(4) 0.11996(7) 0.13540(4)
S2 S -0.12924(4) -0.23170(7) 0.18858(4)
Cu1 Cu -0.079664(18) 0.05448(4) 0.223967(18)
Cu2 Cu 0.00070(2) -0.16171(4) 0.313660(18)
Cu3 Cu -0.2500 -0.2500 0.0000
C1E C -0.28644(17) -0.5965(4) -0.20506(17)
H1E H -0.2857 -0.5061 -0.2094
C2E C -0.23399(18) -0.6680(4) -0.20014(19)
H2E H -0.1989 -0.6263 -0.2017
C3E C -0.2340(2) -0.8002(4) -0.1930(2)
H3E H -0.1990 -0.8501 -0.1898
C4E C -0.2864(2) -0.8590(4) -0.1905(2)
H4E H -0.2872 -0.9490 -0.1848
C5E C -0.33783(18) -0.7818(4) -0.19661(19)
H5E H -0.3735 -0.8221 -0.1956
C6E C -0.46411(18) -0.0807(3) -0.33592(17)
H6E H -0.4687 -0.0622 -0.2988
C7E C -0.44336(19) 0.0172(4) -0.36357(19)
H7E H -0.4343 0.1005 -0.3456
C8E C -0.4363(2) -0.0108(4) -0.4183(2)
H8E H -0.4215 0.0530 -0.4374
C9E C -0.4513(2) -0.1337(4) -0.44463(19)
H9E H -0.4476 -0.1536 -0.4821
C10E C -0.47167(19) -0.2266(4) -0.41471(17)
H10E H -0.4816 -0.3098 -0.4326
C11E C -0.3561(2) -0.4078(4) 0.0038(2)
H11E H -0.3625 -0.4337 -0.0370
C12E C -0.3937(2) -0.4623(4) 0.0300(2)
H12E H -0.4251 -0.5234 0.0071
C13E C -0.38459(19) -0.4257(4) 0.0900(2)
H13E H -0.4083 -0.4640 0.1094
C14E C -0.3397(2) -0.3312(5) 0.1210(2)
H14E H -0.3339 -0.3015 0.1612
C15E C -0.30360(18) -0.2808(4) 0.0924(2)
H15E H -0.2730 -0.2175 0.1141
C16E C -0.2587(2) 0.0228(4) 0.03770(19)
H16E H -0.2198 0.0036 0.0721
C17E C -0.28367(19) 0.1458(4) 0.03341(19)
H17E H -0.2620 0.2085 0.0643
C18E C -0.3410(2) 0.1754(4) -0.0169(2)
H18E H -0.3588 0.2584 -0.0210
C19E C -0.3713(2) 0.0808(4) -0.0608(2)
H19E H -0.4101 0.0987 -0.0956
C20E C -0.3441(2) -0.0415(4) -0.0535(2)
H20E H -0.3658 -0.1064 -0.0831
N1E N -0.33870(13) -0.6522(3) -0.20385(13)
N2E N -0.47790(14) -0.2020(3) -0.36079(13)
N3E N -0.31059(15) -0.3190(3) 0.03472(16)
N4E N -0.28739(16) -0.0701(3) -0.00497(17)
O1B O 0.07374(12) 0.1304(2) 0.35429(12)
O1E O -0.42626(12) -0.6304(2) -0.14571(12)
O2B O 0.00403(12) -0.0210(2) 0.37357(10)
O2G O -0.50403(12) -0.4790(2) -0.37357(10)
O3B O 0.02249(12) 0.1923(2) 0.42107(11)
O4B O -0.04044(12) 0.1675(2) 0.30761(11)
O4G O -0.45956(12) -0.6675(2) -0.30761(11)
O5E O -0.38132(13) -0.3776(2) -0.23535(13)
O6E O -0.43595(10) -0.2206(2) -0.19969(12)
O6B O 0.06405(10) -0.2794(2) 0.30031(12)
O6G O -0.56405(10) -0.2206(2) -0.30031(12)
O7E O -0.33852(12) -0.3193(3) -0.12379(12)
O8E O -0.33599(11) -0.1639(2) -0.20107(12)
O9G O 0.0000 -0.0409(3) 0.2500
S1B S 0.01497(4) 0.11996(7) 0.36460(4)
S2E S -0.37076(4) -0.26830(7) -0.18858(4)
Cu1E Cu -0.420336(18) -0.55448(4) -0.223967(18)
Cu1B Cu 0.079664(18) 0.05448(4) 0.276033(18)
Cu1G Cu -0.579664(18) -0.55448(4) -0.276033(18)
Cu2E Cu -0.50070(2) -0.33829(4) -0.313660(18)
Cu2B Cu -0.00070(2) -0.16171(4) 0.186340(18)
Cu2G Cu -0.49930(2) -0.33829(4) -0.186340(18)
loop_
_geom_bond_atom_site_label_1
_geom_bond_atom_site_label_2
_geom_bond_site_symmetry_1
_geom_bond_site_symmetry_2
C1 H1 1_555 1_555
C2 C1 1_555 1_555
H2 C2 1_555 1_555
C3 C2 1_555 1_555
H3 C3 1_555 1_555
C4 C3 1_555 1_555
H4 C4 1_555 1_555
C5 C4 1_555 1_555
H5 C5 1_555 1_555
C6 H6 1_555 1_555
C7 C6 1_555 1_555
H7 C7 1_555 1_555
C8 C7 1_555 1_555
H8 C8 1_555 1_555
C9 C8 1_555 1_555
H9 C9 1_555 1_555
C10 C9 1_555 1_555
H10 C10 1_555 1_555
C11 H11 1_555 1_555
C12 C11 1_555 1_555
H12 C12 1_555 1_555
C13 C12 1_555 1_555
H13 C13 1_555 1_555
C14 C13 1_555 1_555
H14 C14 1_555 1_555
C15 C14 1_555 1_555
H15 C15 1_555 1_555
C16 H16 1_555 1_555
C17 C16 1_555 1_555
H17 C17 1_555 1_555
C18 C17 1_555 1_555
H18 C18 1_555 1_555
C19 C18 1_555 1_555
H19 C19 1_555 1_555
C20 C19 1_555 1_555
H20 C20 1_555 1_555
N1 C1 1_555 1_555
N2 C6 1_555 1_555
N3 C11 1_555 1_555
N4 C16 1_555 1_555
O1 S1 1_555 1_555
O2 S1 1_555 1_555
O3 S1 1_555 1_555
O4 S1 1_555 1_555
O5 S2 1_555 1_555
O6 S2 1_555 1_555
O7 S2 1_555 1_555
O8 S2 1_555 1_555
O9 Cu1E 1_555 1_555
Cu1 N1 1_555 1_555
Cu2 N2 1_555 1_555
Cu3 N3 1_555 1_555
C1E H1E 1_555 1_555
C2E C1E 1_555 1_555
H2E C2E 1_555 1_555
C3E C2E 1_555 1_555
H3E C3E 1_555 1_555
C4E C3E 1_555 1_555
H4E C4E 1_555 1_555
C5E C4E 1_555 1_555
H5E C5E 1_555 1_555
C6E H6E 1_555 1_555
C7E C6E 1_555 1_555
H7E C7E 1_555 1_555
C8E C7E 1_555 1_555
H8E C8E 1_555 1_555
C9E C8E 1_555 1_555
H9E C9E 1_555 1_555
C10E C9E 1_555 1_555
H10E C10E 1_555 1_555
C11E H11E 1_555 1_555
C12E C11E 1_555 1_555
H12E C12E 1_555 1_555
C13E C12E 1_555 1_555
H13E C13E 1_555 1_555
C14E C13E 1_555 1_555
H14E C14E 1_555 1_555
C15E C14E 1_555 1_555
H15E C15E 1_555 1_555
C16E H16E 1_555 1_555
C17E C16E 1_555 1_555
H17E C17E 1_555 1_555
C18E C17E 1_555 1_555
H18E C18E 1_555 1_555
C19E C18E 1_555 1_555
H19E C19E 1_555 1_555
C20E C19E 1_555 1_555
H20E C20E 1_555 1_555
N1E C1E 1_555 1_555
N2E C6E 1_555 1_555
N3E Cu3 1_555 1_555
N4E Cu3 1_555 1_555
O1B S1B 1_555 1_555
O1E Cu1E 1_555 1_555
O2B Cu2 1_555 1_555
O2G Cu2E 1_555 1_555
O3B S1B 1_555 1_555
O4B Cu1 1_555 1_555
O4G Cu1E 1_555 1_555
O5E S2E 1_555 1_555
O6E S2E 1_555 1_555
O6B Cu2 1_555 1_555
O6G Cu2E 1_555 1_555
O7E Cu3 1_555 1_555
O8E S2E 1_555 1_555
O9G Cu1 1_555 1_555
S1B O2B 1_555 1_555
S2E O7E 1_555 1_555
Cu1E N1E 1_555 1_555
Cu1B O4 1_555 1_555
Cu1G O9 1_555 1_555
Cu2E O9 1_555 1_555
Cu2B O2 1_555 1_555
Cu2G O9 1_555 1_555
C5 N1 1_555 1_555
C10 N2 1_555 1_555
C15 N3 1_555 1_555
C20 N4 1_555 1_555
N4 Cu3 1_555 1_555
O1 Cu1 1_555 1_555
O5 Cu1 1_555 1_555
O5 Cu2 1_555 1_555
O6 Cu2 1_555 1_555
O6 Cu2B 1_555 1_555
O7 Cu3 1_555 1_555
Cu2 O9G 1_555 1_555
C5E N1E 1_555 1_555
C10E N2E 1_555 1_555
C11E N3E 1_555 1_555
C15E N3E 1_555 1_555
C16E N4E 1_555 1_555
C20E N4E 1_555 1_555
N2E Cu2E 1_555 1_555
O1B Cu1B 1_555 1_555
O4B S1B 1_555 1_555
O5E Cu1E 1_555 1_555
O5E Cu2E 1_555 1_555
O6E Cu2E 1_555 1_555
O6E Cu2G 1_555 1_555
O6B Cu2B 1_555 1_555
O6G Cu2G 1_555 1_555
O9G Cu1B 1_555 1_555
O9G Cu2B 1_555 1_555

#END
