
#######################################################################
#
#                 Cambridge Crystallographic Data Centre
#                                CCDC 
#
#######################################################################
#
# If this CIF has been generated from an entry in the Cambridge 
# Structural Database, then it will include bibliographic, chemical, 
# crystal, experimental, refinement or atomic coordinate data resulting 
# from the CCDC's data processing and validation procedures.
#
#######################################################################

data_DOHPIA
_symmetry_cell_setting           tetragonal
_symmetry_space_group_name_H-M   'P 43 21 2'
_symmetry_Int_Tables_number      96
_space_group_name_Hall           'P 4nw 2abw'
loop_
_symmetry_equiv_pos_site_id
_symmetry_equiv_pos_as_xyz
1 x,y,z
2 -x,-y,1/2+z
3 1/2-y,1/2+x,3/4+z
4 1/2+y,1/2-x,1/4+z
5 1/2-x,1/2+y,3/4-z
6 1/2+x,1/2-y,1/4-z
7 y,x,-z
8 -y,-x,1/2-z
_cell_length_a                   9.5136(10)
_cell_length_b                   9.5136(10)
_cell_length_c                   42.072(3)
_cell_angle_alpha                90
_cell_angle_beta                 90
_cell_angle_gamma                90
_cell_volume                     3807.88
loop_
_atom_site_label
_atom_site_type_symbol
_atom_site_fract_x
_atom_site_fract_y
_atom_site_fract_z
Sn1 Sn 0.65118(9) 1.10951(8) 0.028840(16)
Sn2 Sn 0.43100(9) 0.65776(9) 0.213610(16)
O1 O 0.7517(9) 1.0448(9) 0.07226(17)
O2 O 0.6121(12) 1.2106(11) 0.0886(2)
O3 O 0.6220(15) 0.9653(12) 0.2307(2)
O4 O 0.6078(16) 0.7897(13) 0.1967(2)
O5 O 0.7948(8) 0.9788(8) 0.00910(16)
C1 C 0.7604(18) 1.1006(17) 0.1279(3)
H1 H 0.8617 1.0846 0.1257
C2 C 0.7027(19) 0.9758(18) 0.1455(3)
C3 C 0.7306(17) 0.9983(17) 0.1795(3)
C4 C 0.696(2) 1.1502(18) 0.1824(3)
H2 H 0.7468 1.1921 0.2000
H3 H 0.5964 1.1635 0.1856
C5 C 0.744(2) 1.2179(19) 0.1499(3)
H4 H 0.6737 1.2834 0.1422
H5 H 0.8324 1.2677 0.1525
C6 C 0.7042(17) 1.1257(17) 0.0945(3)
C7 C 0.6581(17) 0.9137(16) 0.2038(3)
C8 C 0.882(2) 0.966(2) 0.1881(4)
H6 H 0.8842 0.8907 0.2033
H7 H 0.9250 1.0479 0.1970
H8 H 0.9320 0.9380 0.1693
C9 C 0.5496(19) 0.9514(19) 0.1383(4)
H9 H 0.5091 0.8936 0.1546
H10 H 0.5408 0.9051 0.1182
H11 H 0.5014 1.0400 0.1376
C10 C 0.767(2) 0.837(2) 0.1318(4)
H12 H 0.7812 0.7708 0.1487
H13 H 0.8549 0.8570 0.1217
H14 H 0.7031 0.7972 0.1165
C11 C 0.4628(17) 1.003(2) 0.0388(4)
H15 H 0.4192 0.9743 0.0193
H16 H 0.4005 1.0639 0.0503
H17 H 0.4827 0.9212 0.0515
C12 C 0.726(2) 1.3126(16) 0.0223(4)
H18 H 0.8217 1.3182 0.0297
H19 H 0.6691 1.3774 0.0341
H20 H 0.7232 1.3361 0.0001
C13 C 0.5682(17) 0.496(2) 0.1984(5)
H21 H 0.6464 0.4893 0.2128
H22 H 0.6019 0.5165 0.1774
H23 H 0.5186 0.4079 0.1981
C14 C 0.277(2) 0.7952(16) 0.1995(4)
H24 H 0.1914 0.7444 0.1957
H25 H 0.3058 0.8416 0.1803
H26 H 0.2619 0.8638 0.2159
Sn1C Sn 0.60951(8) 0.84882(9) 0.278840(16)
Sn2G Sn 0.34224(9) 0.56900(9) 0.286390(16)
Sn2B Sn 0.84224(9) 0.93100(9) -0.036390(16)
Sn2E Sn 0.93100(9) 0.84224(9) 0.036390(16)
O3B O 0.5347(12) 1.1220(15) -0.0193(2)
O5C O 0.4788(8) 0.7052(8) 0.25910(16)
O5E O 0.2948(8) 0.5212(8) 0.24090(16)
loop_
_geom_bond_atom_site_label_1
_geom_bond_atom_site_label_2
_geom_bond_site_symmetry_1
_geom_bond_site_symmetry_2
Sn1 O1 1_555 1_555
Sn2 O4 1_555 1_555
O1 C6 1_555 1_555
O2 Sn1 1_555 1_555
O3 C7 1_555 1_555
O4 C7 1_555 1_555
O5 Sn1 1_555 1_555
C1 H1 1_555 1_555
C2 C1 1_555 1_555
C3 C2 1_555 1_555
C4 C3 1_555 1_555
H2 C4 1_555 1_555
H3 C4 1_555 1_555
C5 C1 1_555 1_555
H4 C5 1_555 1_555
H5 C5 1_555 1_555
C6 O2 1_555 1_555
C7 C3 1_555 1_555
C8 C3 1_555 1_555
H6 C8 1_555 1_555
H7 C8 1_555 1_555
H8 C8 1_555 1_555
C9 C2 1_555 1_555
H9 C9 1_555 1_555
H10 C9 1_555 1_555
H11 C9 1_555 1_555
C10 C2 1_555 1_555
H12 C10 1_555 1_555
H13 C10 1_555 1_555
H14 C10 1_555 1_555
C11 Sn1 1_555 1_555
H15 C11 1_555 1_555
H16 C11 1_555 1_555
H17 C11 1_555 1_555
C12 Sn1 1_555 1_555
H18 C12 1_555 1_555
H19 C12 1_555 1_555
H20 C12 1_555 1_555
C13 Sn2 1_555 1_555
H21 C13 1_555 1_555
H22 C13 1_555 1_555
H23 C13 1_555 1_555
C14 Sn2 1_555 1_555
H24 C14 1_555 1_555
H25 C14 1_555 1_555
H26 C14 1_555 1_555
Sn1C O3 1_555 1_555
Sn2G O5C 1_555 1_555
Sn2B O5 1_555 1_555
Sn2E O5 1_555 1_555
O3B Sn1 1_555 1_555
O5C Sn2 1_555 1_555
O5E Sn2 1_555 1_555
C1 C6 1_555 1_555
C4 C5 1_555 1_555
Sn1C O5C 1_555 1_555
Sn2G O5E 1_555 1_555

#END
