
#######################################################################
#
#                 Cambridge Crystallographic Data Centre
#                                CCDC 
#
#######################################################################
#
# If this CIF has been generated from an entry in the Cambridge 
# Structural Database, then it will include bibliographic, chemical, 
# crystal, experimental, refinement or atomic coordinate data resulting 
# from the CCDC's data processing and validation procedures.
#
#######################################################################

data_DOHPUM
_symmetry_cell_setting           monoclinic
_symmetry_space_group_name_H-M   'P 2/c'
_symmetry_Int_Tables_number      13
_space_group_name_Hall           '-P 2yc'
loop_
_symmetry_equiv_pos_site_id
_symmetry_equiv_pos_as_xyz
1 x,y,z
2 -x,y,1/2-z
3 -x,-y,-z
4 x,-y,1/2+z
_cell_length_a                   11.343(2)
_cell_length_b                   7.3614(19)
_cell_length_c                   21.191(3)
_cell_angle_alpha                90
_cell_angle_beta                 103.313(3)
_cell_angle_gamma                90
_cell_volume                     1721.9
loop_
_atom_site_label
_atom_site_type_symbol
_atom_site_fract_x
_atom_site_fract_y
_atom_site_fract_z
Sn1 Sn 0.29955(11) 0.02646(16) 0.53524(5)
Sn2 Sn 0.00015(12) 0.05822(17) 0.57449(6)
O1 O 0.3025(13) 0.176(2) 0.6225(6)
O2 O 0.1516(14) 0.094(2) 0.6647(6)
O3 O 0.2715(14) 0.096(2) 0.9337(7)
O4 O 0.4614(16) 0.060(2) 0.9398(8)
O5 O 0.1163(13) 0.0038(17) 0.5167(6)
C1 C 0.312(2) 0.245(3) 0.7340(9)
H1 H 0.3994 0.2349 0.7371
C2 C 0.288(2) 0.149(3) 0.7884(9)
H2 H 0.3034 0.0213 0.7831
H3 H 0.2030 0.1627 0.7880
C3 C 0.368(2) 0.214(3) 0.8596(10)
H4 H 0.4530 0.2185 0.8575
C4 C 0.319(2) 0.417(3) 0.8574(10)
H5 H 0.2335 0.4136 0.8573
H6 H 0.3603 0.4780 0.8970
C5 C 0.334(2) 0.527(3) 0.8025(10)
H7 H 0.4197 0.5511 0.8073
H8 H 0.2943 0.6431 0.8044
C6 C 0.285(2) 0.446(3) 0.7360(10)
H9 H 0.1982 0.4640 0.7237
H10 H 0.3207 0.5085 0.7047
C7 C 0.2522(15) 0.175(3) 0.6700(8)
C8 C 0.3607(14) 0.119(3) 0.9089(9)
C9 C 0.336(2) 0.283(3) 0.4991(10)
H11 H 0.3745 0.2662 0.4636
H12 H 0.3886 0.3506 0.5329
H13 H 0.2614 0.3479 0.4843
C10 C 0.366(2) -0.215(3) 0.5847(10)
H14 H 0.4445 -0.1929 0.6120
H15 H 0.3710 -0.3079 0.5538
H16 H 0.3114 -0.2531 0.6109
C11 C -0.024(2) 0.338(3) 0.5778(10)
H17 H 0.0535 0.3963 0.5901
H18 H -0.0708 0.3657 0.6090
H19 H -0.0661 0.3804 0.5358
C12 C -0.044(2) -0.174(3) 0.6311(10)
H20 H 0.0136 -0.2699 0.6313
H21 H -0.1239 -0.2170 0.6118
H22 H -0.0403 -0.1358 0.6748
Sn1C Sn 0.29955(11) -0.02646(16) 1.03524(5)
Sn1A Sn 0.70045(11) 0.02646(16) 0.96476(5)
Sn2B Sn -0.00015(12) -0.05822(17) 0.42551(6)
O3C O 0.2715(14) -0.096(2) 0.4337(7)
O4A O 0.5386(16) 0.060(2) 0.5602(8)
O5B O -0.1163(13) -0.0038(17) 0.4833(6)
loop_
_geom_bond_atom_site_label_1
_geom_bond_atom_site_label_2
_geom_bond_site_symmetry_1
_geom_bond_site_symmetry_2
Sn1 O1 1_555 1_555
Sn2 O2 1_555 1_555
O1 C7 1_555 1_555
O2 C7 1_555 1_555
O3 C8 1_555 1_555
O4 C8 1_555 1_555
O5 Sn1 1_555 1_555
C1 H1 1_555 1_555
C2 C1 1_555 1_555
H2 C2 1_555 1_555
H3 C2 1_555 1_555
C3 C2 1_555 1_555
H4 C3 1_555 1_555
C4 C3 1_555 1_555
H5 C4 1_555 1_555
H6 C4 1_555 1_555
C5 C4 1_555 1_555
H7 C5 1_555 1_555
H8 C5 1_555 1_555
C6 C1 1_555 1_555
H9 C6 1_555 1_555
H10 C6 1_555 1_555
C7 C1 1_555 1_555
C8 C3 1_555 1_555
C9 Sn1 1_555 1_555
H11 C9 1_555 1_555
H12 C9 1_555 1_555
H13 C9 1_555 1_555
C10 Sn1 1_555 1_555
H14 C10 1_555 1_555
H15 C10 1_555 1_555
H16 C10 1_555 1_555
C11 Sn2 1_555 1_555
H17 C11 1_555 1_555
H18 C11 1_555 1_555
H19 C11 1_555 1_555
C12 Sn2 1_555 1_555
H20 C12 1_555 1_555
H21 C12 1_555 1_555
H22 C12 1_555 1_555
Sn1C O3 1_555 1_555
Sn1A O4 1_555 1_555
Sn2B O5 1_555 1_555
O3C Sn1 1_555 1_555
O4A Sn1 1_555 1_555
O5B Sn2 1_555 1_555
Sn2 O5 1_555 1_555
C5 C6 1_555 1_555
Sn2B O5B 1_555 1_555

#END
