
#######################################################################
#
#                 Cambridge Crystallographic Data Centre
#                                CCDC 
#
#######################################################################
#
# If this CIF has been generated from an entry in the Cambridge 
# Structural Database, then it will include bibliographic, chemical, 
# crystal, experimental, refinement or atomic coordinate data resulting 
# from the CCDC's data processing and validation procedures.
#
#######################################################################

data_DOHPEX
_symmetry_cell_setting           triclinic
_symmetry_space_group_name_H-M   'P -1'
_symmetry_Int_Tables_number      2
_space_group_name_Hall           '-P 1'
loop_
_symmetry_equiv_pos_site_id
_symmetry_equiv_pos_as_xyz
1 x,y,z
2 -x,-y,-z
_cell_length_a                   10.118(2)
_cell_length_b                   10.261(2)
_cell_length_c                   12.483(3)
_cell_angle_alpha                113.43(3)
_cell_angle_beta                 97.44(3)
_cell_angle_gamma                94.64(3)
_cell_volume                     1166.58
loop_
_atom_site_label
_atom_site_type_symbol
_atom_site_fract_x
_atom_site_fract_y
_atom_site_fract_z
Cd1 Cd 0.43558(5) 0.75562(5) 0.29993(5)
Cd2 Cd 0.17505(5) 0.96362(5) 0.27778(5)
C1 C 0.5600(8) 0.5702(8) 0.3732(7)
C2 C 0.6150(7) 0.4539(7) 0.4019(6)
C3 C 0.5377(8) 0.3215(8) 0.3641(6)
H1 H 0.4524 0.3040 0.3187
C4 C 0.5847(7) 0.2143(7) 0.3924(6)
C5 C 0.4996(7) 0.0676(8) 0.3455(7)
C6 C 0.7132(7) 0.2425(8) 0.4624(7)
C7 C 0.7715(7) 0.1383(8) 0.5086(7)
C8 C 0.7930(8) 0.3749(8) 0.4970(8)
H2 H 0.8791 0.3930 0.5410
C9 C 0.7443(8) 0.4779(8) 0.4660(7)
H3 H 0.7985 0.5652 0.4881
C10 C 0.4802(8) 0.2155(8) -0.0662(8)
H4 H 0.5345 0.1436 -0.0877
C11 C 0.4365(8) 0.2524(8) 0.0397(8)
H5 H 0.4594 0.2049 0.0877
C12 C 0.3564(8) 0.3631(8) 0.0757(7)
H6 H 0.3259 0.3908 0.1476
C13 C 0.3247(7) 0.4291(7) -0.0002(6)
C14 C 0.3715(7) 0.3813(8) -0.1078(7)
H7 H 0.3477 0.4236 -0.1597
C15 C 0.2470(7) 0.5505(7) 0.0279(7)
C16 C 0.1259(7) 0.6923(8) -0.0001(7)
C17 C 0.0422(7) 0.7587(8) -0.0646(7)
C18 C 0.0717(9) 0.7503(9) -0.1718(7)
H8 H 0.1403 0.7005 -0.2033
C19 C -0.0002(10) 0.8154(10) -0.2313(8)
H9 H 0.0225 0.8109 -0.3024
C20 C -0.1343(8) 0.8862(8) -0.0915(8)
H10 H -0.2071 0.9307 -0.0641
C21 C -0.0656(7) 0.8245(8) -0.0261(7)
H11 H -0.0920 0.8273 0.0434
N1 N 0.4494(6) 0.2767(7) -0.1398(6)
N2 N 0.1695(6) 0.5678(7) -0.0590(5)
N3 N 0.2543(6) 0.6548(6) 0.1334(5)
N4 N 0.1724(6) 0.7488(6) 0.1157(5)
N5 N -0.1028(6) 0.8861(7) -0.1914(6)
O1 O 0.4377(6) 0.5508(6) 0.3287(5)
O2 O 0.6364(6) 0.6820(6) 0.3902(6)
O3 O 0.3904(5) 0.0466(6) 0.2752(5)
O4 O 0.5449(5) -0.0220(5) 0.3789(5)
O5 O 0.7382(5) 0.1504(5) 0.6082(5)
O6 O 0.8529(6) 0.0654(6) 0.4602(5)
O7 O -0.0506(5) 0.8890(6) 0.2689(5)
O8 O 0.1510(6) 1.1472(6) 0.4520(5)
H12 H -0.1045 0.8105 0.2215
H13 H -0.1098 0.9448 0.3241
H14 H 0.2061 1.2053 0.5094
H15 H 0.1369 1.0857 0.4856
Cd1_2 Cd 0.43558(5) -0.24438(5) 0.29993(5)
Cd1A Cd 0.56442(5) 0.24438(5) -0.29993(5)
Cd1A_2 Cd 0.56442(5) 0.24438(5) 0.70007(5)
Cd2_2 Cd 0.17505(5) -0.03638(5) 0.27778(5)
Cd2A Cd -0.17505(5) 1.03638(5) -0.27778(5)
Cd2A_2 Cd 0.82495(5) 0.03638(5) 0.72222(5)
N1A N 0.5506(6) 0.7233(7) 0.1398(6)
N5A N 0.1028(6) 1.1139(7) 0.1914(6)
O3_2 O 0.3904(5) 1.0466(6) 0.2752(5)
O4_2 O 0.5449(5) 0.9780(5) 0.3789(5)
O5A O 0.2618(5) 0.8496(5) 0.3918(5)
O9 O -0.0800(14) 0.6390(10) 0.2972(9)
O10? O -0.016(3) 0.628(2) 0.273(2)
loop_
_geom_bond_atom_site_label_1
_geom_bond_atom_site_label_2
_geom_bond_site_symmetry_1
_geom_bond_site_symmetry_2
Cd1 N3 1_555 1_555
Cd2 N4 1_555 1_555
C1 C2 1_555 1_555
C2 C3 1_555 1_555
C3 H1 1_555 1_555
C4 C3 1_555 1_555
C5 C4 1_555 1_555
C6 C4 1_555 1_555
C7 C6 1_555 1_555
C8 C6 1_555 1_555
H2 C8 1_555 1_555
C9 C2 1_555 1_555
H3 C9 1_555 1_555
C10 H4 1_555 1_555
C11 C10 1_555 1_555
H5 C11 1_555 1_555
C12 C11 1_555 1_555
H6 C12 1_555 1_555
C13 C12 1_555 1_555
C14 C13 1_555 1_555
H7 C14 1_555 1_555
C15 C13 1_555 1_555
C16 C17 1_555 1_555
C17 C18 1_555 1_555
C18 H8 1_555 1_555
C19 C18 1_555 1_555
H9 C19 1_555 1_555
C20 H10 1_555 1_555
C21 C17 1_555 1_555
H11 C21 1_555 1_555
N1 C10 1_555 1_555
N2 C15 1_555 1_555
N3 C15 1_555 1_555
N4 C16 1_555 1_555
N5 C19 1_555 1_555
O1 Cd1 1_555 1_555
O2 Cd1 1_555 1_555
O3 C5 1_555 1_555
O4 C5 1_555 1_555
O5 C7 1_555 1_555
O6 C7 1_555 1_555
O7 Cd2 1_555 1_555
O8 Cd2 1_555 1_555
H12 O7 1_555 1_555
H13 O7 1_555 1_555
H14 O8 1_555 1_555
H15 O8 1_555 1_555
Cd1_2 O4 1_555 1_555
Cd1A N1 1_555 1_555
Cd1A_2 O5 1_555 1_555
Cd2_2 O3 1_555 1_555
Cd2A N5 1_555 1_555
Cd2A_2 O5 1_555 1_555
N1A Cd1 1_555 1_555
N5A Cd2 1_555 1_555
O3_2 Cd2 1_555 1_555
O4_2 Cd1 1_555 1_555
O5A Cd1 1_555 1_555
Cd2 O5A 1_555 1_555
C1 O1 1_555 1_555
C1 O2 1_555 1_555
C8 C9 1_555 1_555
C14 N1 1_555 1_555
C16 N2 1_555 1_555
C20 C21 1_555 1_555
C20 N5 1_555 1_555
N3 N4 1_555 1_555

#END
