
#######################################################################
#
#                 Cambridge Crystallographic Data Centre
#                                CCDC 
#
#######################################################################
#
# If this CIF has been generated from an entry in the Cambridge 
# Structural Database, then it will include bibliographic, chemical, 
# crystal, experimental, refinement or atomic coordinate data resulting 
# from the CCDC's data processing and validation procedures.
#
#######################################################################

data_DOHQUN
_symmetry_cell_setting           orthorhombic
_symmetry_space_group_name_H-M   'P b c a'
_symmetry_Int_Tables_number      61
_space_group_name_Hall           '-P 2ac 2ab'
loop_
_symmetry_equiv_pos_site_id
_symmetry_equiv_pos_as_xyz
1 x,y,z
2 1/2-x,-y,1/2+z
3 -x,1/2+y,1/2-z
4 1/2+x,1/2-y,-z
5 -x,-y,-z
6 1/2+x,y,1/2-z
7 x,1/2-y,1/2+z
8 1/2-x,1/2+y,z
_cell_length_a                   17.319(2)
_cell_length_b                   10.3336(14)
_cell_length_c                   23.457(3)
_cell_angle_alpha                90
_cell_angle_beta                 90
_cell_angle_gamma                90
_cell_volume                     4198.04
loop_
_atom_site_label
_atom_site_type_symbol
_atom_site_fract_x
_atom_site_fract_y
_atom_site_fract_z
Cd1 Cd 1.060565(16) 0.25369(3) 0.458415(11)
S1 S 0.76577(7) 0.34773(13) 0.41942(5)
S2 S 0.73903(8) 0.42533(13) 0.29941(5)
O1 O 0.94007(17) 0.1299(3) 0.47168(12)
O2 O 0.93640(15) 0.3300(3) 0.44006(12)
O3 O 1.09630(19) 0.4847(3) 0.44690(14)
O4 O 1.18907(19) 0.3505(3) 0.45666(14)
O5 O 1.2139(2) 0.5542(4) 0.44748(16)
O6 O 1.12314(18) 0.0548(3) 0.46033(12)
H1 H 1.1047 -0.0067 0.4801
H2 H 1.1701 0.0732 0.4648
N1 N 1.06870(19) 0.2420(3) 0.35857(13)
N2 N 1.06152(19) 0.2360(3) 0.05672(13)
N3 N 1.1669(2) 0.4649(4) 0.45029(14)
C1 C 0.7831(3) 0.3388(5) 0.2447(2)
C2 C 0.7771(3) 0.3597(6) 0.1862(2)
H3 H 0.7467 0.4262 0.1717
C3 C 0.8177(4) 0.2787(6) 0.1508(2)
H4 H 0.8154 0.2911 0.1116
C4 C 0.8620(3) 0.1791(6) 0.1725(2)
H5 H 0.8887 0.1252 0.1476
C5 C 0.8674(3) 0.1582(5) 0.2304(2)
H6 H 0.8971 0.0904 0.2445
C6 C 0.8278(3) 0.2401(5) 0.2675(2)
N4 N 0.8281(2) 0.2297(4) 0.32680(16)
C7 C 0.7843(2) 0.3198(4) 0.34778(19)
C8 C 0.8168(3) 0.2157(4) 0.45035(19)
H7 H 0.7971 0.2026 0.4886
H8 H 0.8047 0.1384 0.4286
C9 C 0.9041(2) 0.2275(4) 0.45393(16)
C10 C 1.0272(3) 0.3267(5) 0.32860(17)
H9 H 0.9977 0.3871 0.3484
C11 C 1.0257(3) 0.3295(4) 0.26996(17)
H10 H 0.9959 0.3908 0.2510
C12 C 1.0686(2) 0.2406(4) 0.23938(15)
C13 C 1.1125(3) 0.1552(5) 0.27057(17)
H11 H 1.1436 0.0952 0.2519
C14 C 1.1107(3) 0.1580(5) 0.32935(18)
H12 H 1.1403 0.0982 0.3493
C15 C 1.0826(3) 0.1324(4) 0.08611(17)
H13 H 1.0949 0.0573 0.0663
C16 C 1.0870(3) 0.1308(4) 0.14479(17)
H14 H 1.1031 0.0562 0.1635
C17 C 1.0676(2) 0.2398(4) 0.17589(15)
C18 C 1.0458(3) 0.3477(4) 0.14486(17)
H15 H 1.0326 0.4239 0.1636
C19 C 1.0436(3) 0.3421(4) 0.08589(17)
H16 H 1.0290 0.4157 0.0658
Cd1F Cd 1.060565(16) 0.24631(3) -0.041585(11)
N2F N 1.06152(19) 0.2640(3) 0.55672(13)
loop_
_geom_bond_atom_site_label_1
_geom_bond_atom_site_label_2
_geom_bond_site_symmetry_1
_geom_bond_site_symmetry_2
Cd1 O1 1_555 1_555
S1 C7 1_555 1_555
S2 C1 1_555 1_555
O1 C9 1_555 1_555
O2 Cd1 1_555 1_555
O3 Cd1 1_555 1_555
O4 Cd1 1_555 1_555
O5 N3 1_555 1_555
O6 Cd1 1_555 1_555
H1 O6 1_555 1_555
H2 O6 1_555 1_555
N1 Cd1 1_555 1_555
N2 C15 1_555 1_555
N3 O3 1_555 1_555
C1 C2 1_555 1_555
C2 H3 1_555 1_555
C3 C2 1_555 1_555
H4 C3 1_555 1_555
C4 C3 1_555 1_555
H5 C4 1_555 1_555
C5 C4 1_555 1_555
H6 C5 1_555 1_555
C6 C1 1_555 1_555
N4 C6 1_555 1_555
C7 S2 1_555 1_555
C8 S1 1_555 1_555
H7 C8 1_555 1_555
H8 C8 1_555 1_555
C9 O2 1_555 1_555
C10 N1 1_555 1_555
H9 C10 1_555 1_555
C11 C10 1_555 1_555
H10 C11 1_555 1_555
C12 C11 1_555 1_555
C13 C12 1_555 1_555
H11 C13 1_555 1_555
C14 N1 1_555 1_555
H12 C14 1_555 1_555
C15 H13 1_555 1_555
C16 C15 1_555 1_555
H14 C16 1_555 1_555
C17 C12 1_555 1_555
C18 C17 1_555 1_555
H15 C18 1_555 1_555
C19 N2 1_555 1_555
H16 C19 1_555 1_555
Cd1F N2 1_555 1_555
N2F Cd1 1_555 1_555
O4 N3 1_555 1_555
C5 C6 1_555 1_555
N4 C7 1_555 1_555
C8 C9 1_555 1_555
C13 C14 1_555 1_555
C16 C17 1_555 1_555
C18 C19 1_555 1_555

#END
