
#######################################################################
#
#                 Cambridge Crystallographic Data Centre
#                                CCDC 
#
#######################################################################
#
# If this CIF has been generated from an entry in the Cambridge 
# Structural Database, then it will include bibliographic, chemical, 
# crystal, experimental, refinement or atomic coordinate data resulting 
# from the CCDC's data processing and validation procedures.
#
#######################################################################

data_DOHQAT
_symmetry_cell_setting           monoclinic
_symmetry_space_group_name_H-M   'P 21/c'
_symmetry_Int_Tables_number      14
_space_group_name_Hall           '-P 2ybc'
loop_
_symmetry_equiv_pos_site_id
_symmetry_equiv_pos_as_xyz
1 x,y,z
2 -x,1/2+y,1/2-z
3 -x,-y,-z
4 x,1/2-y,1/2+z
_cell_length_a                   11.632(3)
_cell_length_b                   19.152(4)
_cell_length_c                   18.811(4)
_cell_angle_alpha                90
_cell_angle_beta                 104.860(4)
_cell_angle_gamma                90
_cell_volume                     4050.49
loop_
_atom_site_label
_atom_site_type_symbol
_atom_site_fract_x
_atom_site_fract_y
_atom_site_fract_z
Mn1 Mn 0.49290(7) 0.29905(4) 0.50829(4)
Mn2 Mn 0.5000 0.5000 0.5000
N1 N 0.7038(5) 0.4798(3) 0.8425(3)
N2 N 0.2189(5) 0.2968(3) 0.2559(3)
N3 N 0.6883(4) 0.2959(3) 0.5073(3)
N4 N 1.2960(4) 0.3015(2) 0.5041(2)
N5 N 0.4890(4) 0.1845(2) 0.5076(3)
N6 N 0.6942(4) 0.4982(2) 0.4997(3)
O1 O 0.5255(3) 0.40525(19) 0.5682(2)
O2 O 0.5421(3) 0.3087(2) 0.63143(19)
O3 O 0.4491(3) 0.3286(2) 0.39935(19)
O4 O 0.4566(3) 0.4450(2) 0.39653(19)
S1 S 0.7634(2) 0.37554(11) 0.93114(10)
S2 S 0.63343(15) 0.35578(9) 0.77547(8)
S3 S 0.30765(16) 0.17149(10) 0.24835(10)
S4 S 0.44734(14) 0.30212(9) 0.24566(9)
C1 C 0.5500(4) 0.3737(3) 0.6296(3)
C2 C 0.5880(6) 0.4155(3) 0.7000(3)
H3 H 0.5224 0.4439 0.7063
H4 H 0.6535 0.4461 0.6980
C3 C 0.6972(5) 0.4125(4) 0.8463(3)
C4 C 0.7642(6) 0.5066(4) 0.9119(4)
C5 C 0.8022(6) 0.4577(4) 0.9665(3)
C6 C 0.8628(7) 0.4778(5) 1.0373(4)
H5 H 0.8876 0.4445 1.0741
C7 C 0.8851(9) 0.5461(6) 1.0519(5)
H6 H 0.9268 0.5599 1.0988
C8 C 0.8469(10) 0.5957(5) 0.9981(5)
H7 H 0.8625 0.6426 1.0092
C9 C 0.7857(8) 0.5767(5) 0.9279(4)
H8 H 0.7592 0.6104 0.8918
C10 C 0.4483(4) 0.3856(3) 0.3670(3)
C11 C 0.4333(5) 0.3862(3) 0.2841(3)
H9 H 0.4924 0.4172 0.2731
H10 H 0.3555 0.4051 0.2604
C12 C 0.3138(6) 0.2634(3) 0.2513(3)
C13 C 0.1312(6) 0.2474(4) 0.2583(3)
C14 C 0.1605(6) 0.1775(4) 0.2540(3)
C15 C 0.0806(7) 0.1228(4) 0.2538(4)
H11 H 0.1006 0.0762 0.2496
C16 C -0.0319(7) 0.1436(6) 0.2605(4)
H12 H -0.0876 0.1094 0.2628
C17 C -0.0626(7) 0.2127(6) 0.2637(4)
H13 H -0.1391 0.2242 0.2663
C18 C 0.0173(6) 0.2644(5) 0.2633(4)
H14 H -0.0041 0.3109 0.2663
H15 H 0.7526 0.2698 0.6099
H16 H 0.9491 0.2708 0.6118
C19 C 0.7739(5) 0.2808(4) 0.5671(3)
C20 C 0.8930(5) 0.2811(4) 0.5684(3)
C21 C 0.9296(5) 0.2963(3) 0.5062(3)
C22 C 0.8390(5) 0.3098(4) 0.4443(3)
H17 H 0.8574 0.3198 0.4002
C23 C 0.7234(5) 0.3087(4) 0.4468(3)
H18 H 0.6653 0.3175 0.4035
C24 C 1.2121(5) 0.3257(4) 0.4490(3)
H19 H 1.2338 0.3442 0.4086
C25 C 1.0924(5) 0.3251(4) 0.4482(3)
H20 H 1.0367 0.3438 0.4081
H21 H 1.1233 0.2521 0.6025
H22 H 1.3188 0.2553 0.5986
C26 C 1.0557(5) 0.2976(3) 0.5055(3)
C27 C 1.1430(5) 0.2715(4) 0.5618(3)
C28 C 1.2615(5) 0.2739(4) 0.5594(3)
C29 C 0.5381(6) 0.1460(4) 0.5652(4)
H23 H 0.5723 0.1689 0.6092
C30 C 0.5425(6) 0.0744(3) 0.5649(4)
H24 H 0.5766 0.0504 0.6082
C31 C 0.4970(5) 0.0384(3) 0.5013(3)
C32 C 0.4457(8) 0.0787(4) 0.4415(4)
H25 H 0.4122 0.0574 0.3966
C33 C 0.4428(7) 0.1502(4) 0.4467(4)
H26 H 0.4061 0.1755 0.4049
C34 C 0.7302(5) 0.5104(4) 0.4392(3)
H27 H 0.6723 0.5178 0.3955
C35 C 0.8462(5) 0.5126(4) 0.4368(3)
H28 H 0.8655 0.5230 0.3930
C36 C 0.9351(5) 0.4994(3) 0.4999(3)
C37 C 0.8989(5) 0.4867(4) 0.5620(4)
H29 H 0.9550 0.4783 0.6062
C38 C 0.7805(5) 0.4861(4) 0.5595(3)
H30 H 0.7591 0.4765 0.6029
Mn1B Mn 0.50710(7) 0.70095(4) 0.49171(4)
Mn1_2 Mn 1.49290(7) 0.29905(4) 0.50829(4)
Mn1B_2 Mn 0.50710(7) -0.29905(4) 0.49171(4)
Mn1_3 Mn -0.50710(7) 0.29905(4) 0.50829(4)
Mn2_2 Mn 1.5000 0.5000 0.5000
N1B N 0.2962(5) 0.5202(3) 0.1575(3)
N2B N 0.7811(5) 0.7032(3) 0.7441(3)
N3_2 N -0.3117(4) 0.2959(3) 0.5073(3)
N3B N 0.3117(4) 0.7041(3) 0.4927(3)
N4_2 N 0.2960(4) 0.3015(2) 0.5041(2)
N4B N 0.7040(4) 0.6985(2) 0.4959(2)
N5B N 0.5110(4) -0.1845(2) 0.4924(3)
N5B_2 N 0.5110(4) 0.8155(2) 0.4924(3)
N6B N 1.3058(4) 0.5018(2) 0.5003(3)
N6B_2 N 0.3058(4) 0.5018(2) 0.5003(3)
O1B O 0.4745(3) 0.59475(19) 0.4318(2)
O2B O 0.4579(3) 0.6913(2) 0.36857(19)
O3B O 0.5509(3) 0.6714(2) 0.60065(19)
O4B O 0.5434(3) 0.5550(2) 0.60347(19)
S1B S 0.2366(2) 0.62446(11) 0.06886(10)
S2B S 0.36657(15) 0.64422(9) 0.22453(8)
S3B S 0.69235(16) 0.82851(10) 0.75165(10)
S4B S 0.55266(14) 0.69788(9) 0.75434(9)
C1B C 0.4500(4) 0.6263(3) 0.3704(3)
C2B C 0.4120(6) 0.5845(3) 0.3000(3)
H3B H 0.4776 0.5561 0.2937
H4B H 0.3465 0.5539 0.3020
C3B C 0.3028(5) 0.5875(4) 0.1537(3)
C4B C 0.2358(6) 0.4934(4) 0.0881(4)
C5B C 0.1978(6) 0.5423(4) 0.0335(3)
C6B C 0.1372(7) 0.5222(5) -0.0373(4)
H5B H 0.1124 0.5555 -0.0741
C7B C 0.1149(9) 0.4539(6) -0.0519(5)
H6B H 0.0732 0.4401 -0.0988
C8B C 0.1531(10) 0.4043(5) 0.0019(5)
H7B H 0.1375 0.3574 -0.0092
C9B C 0.2143(8) 0.4233(5) 0.0721(4)
H8B H 0.2408 0.3896 0.1082
C10B C 0.5517(4) 0.6144(3) 0.6330(3)
C11B C 0.5667(5) 0.6138(3) 0.7159(3)
H9B H 0.5076 0.5828 0.7269
H10B H 0.6445 0.5949 0.7396
C12B C 0.6862(6) 0.7366(3) 0.7487(3)
C13B C 0.8688(6) 0.7526(4) 0.7417(3)
C14B C 0.8395(6) 0.8225(4) 0.7460(3)
C15B C 0.9194(7) 0.8772(4) 0.7462(4)
H11B H 0.8994 0.9238 0.7504
C16B C 1.0319(7) 0.8564(6) 0.7395(4)
H12B H 1.0876 0.8906 0.7372
C17B C 1.0626(7) 0.7873(6) 0.7363(4)
H13B H 1.1391 0.7758 0.7337
C18B C 0.9827(6) 0.7356(5) 0.7367(4)
H14B H 1.0041 0.6891 0.7337
H15_2 H -0.2474 0.2698 0.6099
H16_2 H -0.0509 0.2708 0.6118
C19_2 C -0.2261(5) 0.2808(4) 0.5671(3)
C20_2 C -0.1070(5) 0.2811(4) 0.5684(3)
C21_2 C -0.0704(5) 0.2963(3) 0.5062(3)
C22_2 C -0.1610(5) 0.3098(4) 0.4443(3)
H17_2 H -0.1426 0.3198 0.4002
C23_2 C -0.2766(5) 0.3087(4) 0.4468(3)
H18_2 H -0.3347 0.3175 0.4035
C24_2 C 0.2121(5) 0.3257(4) 0.4490(3)
H19_2 H 0.2338 0.3442 0.4086
C25_2 C 0.0924(5) 0.3251(4) 0.4482(3)
H20_2 H 0.0367 0.3438 0.4081
H21_2 H 0.1233 0.2521 0.6025
H22_2 H 0.3188 0.2553 0.5986
C26_2 C 0.0557(5) 0.2976(3) 0.5055(3)
C27_2 C 0.1430(5) 0.2715(4) 0.5618(3)
C28_2 C 0.2615(5) 0.2739(4) 0.5594(3)
C29B C 0.4619(6) -0.1460(4) 0.4348(4)
H23B H 0.4277 -0.1689 0.3908
C30B C 0.4575(6) -0.0744(3) 0.4351(4)
H24B H 0.4234 -0.0504 0.3918
C31B C 0.5030(5) -0.0384(3) 0.4987(3)
C32B C 0.5543(8) -0.0787(4) 0.5585(4)
H25B H 0.5878 -0.0574 0.6034
C33B C 0.5572(7) -0.1502(4) 0.5533(4)
H26B H 0.5939 -0.1755 0.5951
C34B C 1.2698(5) 0.4896(4) 0.5608(3)
H27B H 1.3277 0.4822 0.6045
C35B C 1.1538(5) 0.4874(4) 0.5632(3)
H28B H 1.1345 0.4770 0.6070
C36B C 1.0649(5) 0.5006(3) 0.5001(3)
C37B C 1.1011(5) 0.5133(4) 0.4380(4)
H29B H 1.0450 0.5217 0.3938
C38B C 1.2195(5) 0.5139(4) 0.4405(3)
H30B H 1.2409 0.5235 0.3971
Cl1 Cl 0.21896(17) 0.91968(12) 0.25021(10)
O5 O 0.2837(6) 0.9829(4) 0.2561(4)
O6 O 0.1072(4) 0.9245(3) 0.1985(3)
O7 O 0.2844(6) 0.8692(4) 0.2267(5)
O8 O 0.2025(7) 0.8992(5) 0.3168(3)
O9 O 0.8706(8) 0.9593(6) 0.2320(5)
H1 H 0.8713 0.9366 0.2709
H2 H 0.9431 0.9694 0.2359
loop_
_geom_bond_atom_site_label_1
_geom_bond_atom_site_label_2
_geom_bond_site_symmetry_1
_geom_bond_site_symmetry_2
Mn1 N3 1_555 1_555
Mn2 N6 1_555 1_555
Cl1 O5 1_555 1_555
N1 C3 1_555 1_555
N2 C12 1_555 1_555
N3 C19 1_555 1_555
N4 C24 1_555 1_555
N5 Mn1 1_555 1_555
N6 C34 1_555 1_555
O1 Mn1 1_555 1_555
O2 Mn1 1_555 1_555
O3 Mn1 1_555 1_555
O4 Mn2 1_555 1_555
O6 Cl1 1_555 1_555
O7 Cl1 1_555 1_555
O8 Cl1 1_555 1_555
O9 H1 1_555 1_555
H2 O9 1_555 1_555
S1 C3 1_555 1_555
S2 C2 1_555 1_555
S3 C12 1_555 1_555
S4 C11 1_555 1_555
C1 O1 1_555 1_555
C2 C1 1_555 1_555
H3 C2 1_555 1_555
H4 C2 1_555 1_555
C3 S2 1_555 1_555
C4 N1 1_555 1_555
C5 S1 1_555 1_555
C6 C5 1_555 1_555
H5 C6 1_555 1_555
C7 C6 1_555 1_555
H6 C7 1_555 1_555
C8 C7 1_555 1_555
H7 C8 1_555 1_555
C9 C4 1_555 1_555
H8 C9 1_555 1_555
C10 O3 1_555 1_555
C11 C10 1_555 1_555
H9 C11 1_555 1_555
H10 C11 1_555 1_555
C12 S4 1_555 1_555
C13 N2 1_555 1_555
C14 S3 1_555 1_555
C15 C14 1_555 1_555
H11 C15 1_555 1_555
C16 C15 1_555 1_555
H12 C16 1_555 1_555
C17 C16 1_555 1_555
H13 C17 1_555 1_555
C18 C13 1_555 1_555
H14 C18 1_555 1_555
H15 C19 1_555 1_555
H16 C20 1_555 1_555
C19 C20 1_555 1_555
C20 C21 1_555 1_555
C21 C22 1_555 1_555
C22 H17 1_555 1_555
C23 N3 1_555 1_555
H18 C23 1_555 1_555
C24 H19 1_555 1_555
C25 C24 1_555 1_555
H20 C25 1_555 1_555
H21 C27 1_555 1_555
H22 C28 1_555 1_555
C26 C21 1_555 1_555
C27 C26 1_555 1_555
C28 N4 1_555 1_555
C29 N5 1_555 1_555
H23 C29 1_555 1_555
C30 C29 1_555 1_555
H24 C30 1_555 1_555
C31 C30 1_555 1_555
C32 C31 1_555 1_555
H25 C32 1_555 1_555
C33 N5 1_555 1_555
H26 C33 1_555 1_555
C34 H27 1_555 1_555
C35 C34 1_555 1_555
H28 C35 1_555 1_555
C36 C35 1_555 1_555
C37 C36 1_555 1_555
H29 C37 1_555 1_555
C38 N6 1_555 1_555
H30 C38 1_555 1_555
Mn1B N3B 1_555 1_555
Mn1_2 N4 1_555 1_555
Mn1B_2 N5B 1_555 1_555
Mn1_3 N3_2 1_555 1_555
Mn2_2 N6B 1_555 1_555
N1B C3B 1_555 1_555
N2B C12B 1_555 1_555
N3_2 C19_2 1_555 1_555
N4_2 Mn1 1_555 1_555
N4B Mn1B 1_555 1_555
N5B C29B 1_555 1_555
N5B_2 Mn1B 1_555 1_555
N6B C34B 1_555 1_555
N6B_2 Mn2 1_555 1_555
O1B Mn2 1_555 1_555
O2B Mn1B 1_555 1_555
O3B Mn1B 1_555 1_555
O4B Mn2 1_555 1_555
S1B C3B 1_555 1_555
S2B C2B 1_555 1_555
S3B C12B 1_555 1_555
S4B C11B 1_555 1_555
C1B O1B 1_555 1_555
C2B C1B 1_555 1_555
H3B C2B 1_555 1_555
H4B C2B 1_555 1_555
C3B S2B 1_555 1_555
C4B N1B 1_555 1_555
C5B S1B 1_555 1_555
C6B C5B 1_555 1_555
H5B C6B 1_555 1_555
C7B C6B 1_555 1_555
H6B C7B 1_555 1_555
C8B C7B 1_555 1_555
H7B C8B 1_555 1_555
C9B C4B 1_555 1_555
H8B C9B 1_555 1_555
C10B O3B 1_555 1_555
C11B C10B 1_555 1_555
H9B C11B 1_555 1_555
H10B C11B 1_555 1_555
C12B S4B 1_555 1_555
C13B N2B 1_555 1_555
C14B S3B 1_555 1_555
C15B C14B 1_555 1_555
H11B C15B 1_555 1_555
C16B C15B 1_555 1_555
H12B C16B 1_555 1_555
C17B C16B 1_555 1_555
H13B C17B 1_555 1_555
C18B C13B 1_555 1_555
H14B C18B 1_555 1_555
H15_2 C19_2 1_555 1_555
H16_2 C20_2 1_555 1_555
C19_2 C20_2 1_555 1_555
C20_2 C21_2 1_555 1_555
C21_2 C22_2 1_555 1_555
C22_2 H17_2 1_555 1_555
C23_2 N3_2 1_555 1_555
H18_2 C23_2 1_555 1_555
C24_2 N4_2 1_555 1_555
H19_2 C24_2 1_555 1_555
C25_2 C24_2 1_555 1_555
H20_2 C25_2 1_555 1_555
H21_2 C27_2 1_555 1_555
H22_2 C28_2 1_555 1_555
C26_2 C21_2 1_555 1_555
C27_2 C26_2 1_555 1_555
C28_2 N4_2 1_555 1_555
C29B H23B 1_555 1_555
C30B C29B 1_555 1_555
H24B C30B 1_555 1_555
C31B C31 1_555 1_555
C32B C31B 1_555 1_555
H25B C32B 1_555 1_555
C33B N5B 1_555 1_555
H26B C33B 1_555 1_555
C34B H27B 1_555 1_555
C35B C34B 1_555 1_555
H28B C35B 1_555 1_555
C36B C36 1_555 1_555
C37B C36B 1_555 1_555
H29B C37B 1_555 1_555
C38B N6B 1_555 1_555
H30B C38B 1_555 1_555
Mn2 O1 1_555 1_555
O2 C1 1_555 1_555
O4 C10 1_555 1_555
C4 C5 1_555 1_555
C8 C9 1_555 1_555
C13 C14 1_555 1_555
C17 C18 1_555 1_555
C22 C23 1_555 1_555
C25 C26 1_555 1_555
C27 C28 1_555 1_555
C32 C33 1_555 1_555
C37 C38 1_555 1_555
Mn1B O1B 1_555 1_555
O2B C1B 1_555 1_555
O4B C10B 1_555 1_555
C4B C5B 1_555 1_555
C8B C9B 1_555 1_555
C13B C14B 1_555 1_555
C17B C18B 1_555 1_555
C22_2 C23_2 1_555 1_555
C25_2 C26_2 1_555 1_555
C27_2 C28_2 1_555 1_555
C30B C31B 1_555 1_555
C32B C33B 1_555 1_555
C35B C36B 1_555 1_555
C37B C38B 1_555 1_555

#END
