
#######################################################################
#
#                 Cambridge Crystallographic Data Centre
#                                CCDC 
#
#######################################################################
#
# If this CIF has been generated from an entry in the Cambridge 
# Structural Database, then it will include bibliographic, chemical, 
# crystal, experimental, refinement or atomic coordinate data resulting 
# from the CCDC's data processing and validation procedures.
#
#######################################################################

data_DOHQIB
_symmetry_cell_setting           monoclinic
_symmetry_space_group_name_H-M   'P 21/c'
_symmetry_Int_Tables_number      14
_space_group_name_Hall           '-P 2ybc'
loop_
_symmetry_equiv_pos_site_id
_symmetry_equiv_pos_as_xyz
1 x,y,z
2 -x,1/2+y,1/2-z
3 -x,-y,-z
4 x,1/2-y,1/2+z
_cell_length_a                   5.0627(10)
_cell_length_b                   22.815(4)
_cell_length_c                   11.833(2)
_cell_angle_alpha                90
_cell_angle_beta                 100.204(2)
_cell_angle_gamma                90
_cell_volume                     1345.16
loop_
_atom_site_label
_atom_site_type_symbol
_atom_site_fract_x
_atom_site_fract_y
_atom_site_fract_z
Cd1 Cd 0.5000 0.5000 0.5000
N1 N 0.7577(6) 0.72686(13) 0.6251(3)
N2 N 0.4861(6) 0.50351(12) 0.6989(2)
O1 O 0.7758(4) 0.58122(10) 0.5398(2)
O2 O 1.1270(4) 0.55875(11) 0.4581(2)
S1 S 0.8327(2) 0.73599(5) 0.84811(8)
S2 S 1.1430(2) 0.65222(4) 0.73072(8)
C1 C 1.0108(6) 0.58855(14) 0.5241(3)
C2 C 1.1716(7) 0.63979(16) 0.5827(3)
H1 H 1.1153 0.6751 0.5394
H2 H 1.3593 0.6334 0.5790
C3 C 0.8951(7) 0.70605(16) 0.7182(3)
C4 C 0.5842(7) 0.77078(16) 0.6511(3)
C5 C 0.5966(8) 0.78162(17) 0.7683(3)
C6 C 0.4334(10) 0.8233(2) 0.8069(4)
H3 H 0.4451 0.8310 0.8849
C7 C 0.2544(11) 0.8528(2) 0.7261(5)
H4 H 0.1406 0.8804 0.7499
C8 C 0.2398(10) 0.8423(2) 0.6099(5)
H5 H 0.1164 0.8630 0.5571
C9 C 0.4051(8) 0.80170(19) 0.5707(4)
H6 H 0.3963 0.7953 0.4925
C10 C 0.6518(12) 0.5352(3) 0.7714(4)
H7 H 0.7724 0.5590 0.7420
C11 C 0.6600(12) 0.5358(3) 0.8879(4)
H8 H 0.7807 0.5603 0.9337
C12 C 0.4955(7) 0.50117(15) 0.9370(3)
C13 C 0.3252(11) 0.4680(3) 0.8624(4)
H9 H 0.2059 0.4431 0.8900
C14 C 0.3257(11) 0.4706(3) 0.7468(4)
H10 H 0.2030 0.4473 0.6989
Cd1_2 Cd 1.5000 0.5000 0.5000
Cd1_3 Cd 0.5000 0.5000 1.5000
Cd1_4 Cd -0.5000 0.5000 0.5000
N1B N 0.2423(6) 0.27314(13) 0.3749(3)
N2B N 0.5139(6) 0.49649(12) 1.3011(2)
N2B_2 N 0.5139(6) 0.49649(12) 0.3011(2)
O1B O 0.2242(4) 0.41878(10) 0.4602(2)
O2B O -0.1270(4) 0.44125(11) 0.5419(2)
O2_2 O 0.1270(4) 0.55875(11) 0.4581(2)
O2B_2 O 0.8730(4) 0.44125(11) 0.5419(2)
S1B S 0.1673(2) 0.26401(5) 0.15189(8)
S2B S -0.1430(2) 0.34778(4) 0.26928(8)
C1B C -0.0108(6) 0.41145(14) 0.4759(3)
C2B C -0.1716(7) 0.36021(16) 0.4173(3)
H1B H -0.1153 0.3249 0.4606
H2B H -0.3593 0.3666 0.4210
C3B C 0.1049(7) 0.29395(16) 0.2818(3)
C4B C 0.4158(7) 0.22922(16) 0.3489(3)
C5B C 0.4034(8) 0.21838(17) 0.2317(3)
C6B C 0.5666(10) 0.1767(2) 0.1931(4)
H3B H 0.5549 0.1690 0.1151
C7B C 0.7456(11) 0.1472(2) 0.2739(5)
H4B H 0.8594 0.1196 0.2501
C8B C 0.7602(10) 0.1577(2) 0.3901(5)
H5B H 0.8836 0.1370 0.4429
C9B C 0.5949(8) 0.19830(19) 0.4293(4)
H6B H 0.6037 0.2047 0.5075
C10B C 0.3482(12) 0.4648(3) 1.2286(4)
H7B H 0.2276 0.4410 1.2580
C11B C 0.3400(12) 0.4642(3) 1.1121(4)
H8B H 0.2193 0.4397 1.0663
C12B C 0.5045(7) 0.49883(15) 1.0630(3)
C13B C 0.6748(11) 0.5320(3) 1.1376(4)
H9B H 0.7941 0.5569 1.1100
C14B C 0.6743(11) 0.5294(3) 1.2532(4)
H10B H 0.7970 0.5527 1.3011
loop_
_geom_bond_atom_site_label_1
_geom_bond_atom_site_label_2
_geom_bond_site_symmetry_1
_geom_bond_site_symmetry_2
Cd1 N2 1_555 1_555
N1 C3 1_555 1_555
N2 C10 1_555 1_555
O1 Cd1 1_555 1_555
O2 C1 1_555 1_555
S1 C3 1_555 1_555
S2 C2 1_555 1_555
C1 O1 1_555 1_555
C2 C1 1_555 1_555
H1 C2 1_555 1_555
H2 C2 1_555 1_555
C3 S2 1_555 1_555
C4 N1 1_555 1_555
C5 S1 1_555 1_555
C6 C5 1_555 1_555
H3 C6 1_555 1_555
C7 C6 1_555 1_555
H4 C7 1_555 1_555
C8 C7 1_555 1_555
H5 C8 1_555 1_555
C9 C4 1_555 1_555
H6 C9 1_555 1_555
C10 H7 1_555 1_555
C11 C10 1_555 1_555
H8 C11 1_555 1_555
C12 C11 1_555 1_555
C13 C12 1_555 1_555
H9 C13 1_555 1_555
C14 N2 1_555 1_555
H10 C14 1_555 1_555
Cd1_2 O2 1_555 1_555
Cd1_3 N2B 1_555 1_555
Cd1_4 O2B 1_555 1_555
N1B C3B 1_555 1_555
N2B C10B 1_555 1_555
N2B_2 Cd1 1_555 1_555
O1B Cd1 1_555 1_555
O2B C1B 1_555 1_555
O2_2 Cd1 1_555 1_555
O2B_2 Cd1 1_555 1_555
S1B C3B 1_555 1_555
S2B C2B 1_555 1_555
C1B O1B 1_555 1_555
C2B C1B 1_555 1_555
H1B C2B 1_555 1_555
H2B C2B 1_555 1_555
C3B S2B 1_555 1_555
C4B N1B 1_555 1_555
C5B S1B 1_555 1_555
C6B C5B 1_555 1_555
H3B C6B 1_555 1_555
C7B C6B 1_555 1_555
H4B C7B 1_555 1_555
C8B C7B 1_555 1_555
H5B C8B 1_555 1_555
C9B C4B 1_555 1_555
H6B C9B 1_555 1_555
C10B H7B 1_555 1_555
C11B C10B 1_555 1_555
H8B C11B 1_555 1_555
C12B C12 1_555 1_555
C13B C12B 1_555 1_555
H9B C13B 1_555 1_555
C14B N2B 1_555 1_555
H10B C14B 1_555 1_555
C4 C5 1_555 1_555
C8 C9 1_555 1_555
C13 C14 1_555 1_555
C4B C5B 1_555 1_555
C8B C9B 1_555 1_555
C11B C12B 1_555 1_555
C13B C14B 1_555 1_555

#END
