
#######################################################################
#
#                 Cambridge Crystallographic Data Centre
#                                CCDC 
#
#######################################################################
#
# If this CIF has been generated from an entry in the Cambridge 
# Structural Database, then it will include bibliographic, chemical, 
# crystal, experimental, refinement or atomic coordinate data resulting 
# from the CCDC's data processing and validation procedures.
#
#######################################################################

data_DOHVOM
_symmetry_cell_setting           orthorhombic
_symmetry_space_group_name_H-M   'F d d 2'
_symmetry_Int_Tables_number      43
_space_group_name_Hall           'F 2 -2d'
loop_
_symmetry_equiv_pos_site_id
_symmetry_equiv_pos_as_xyz
1 x,y,z
2 -x,-y,z
3 1/4+x,1/4-y,1/4+z
4 1/4-x,1/4+y,1/4+z
5 x,1/2+y,1/2+z
6 -x,1/2-y,1/2+z
7 1/4+x,3/4-y,3/4+z
8 1/4-x,3/4+y,3/4+z
9 1/2+x,y,1/2+z
10 1/2-x,-y,1/2+z
11 3/4+x,1/4-y,3/4+z
12 3/4-x,1/4+y,3/4+z
13 1/2+x,1/2+y,z
14 1/2-x,1/2-y,z
15 3/4+x,3/4-y,1/4+z
16 3/4-x,3/4+y,1/4+z
_cell_length_a                   25.6605(6)
_cell_length_b                   30.8019(4)
_cell_length_c                   8.6643(2)
_cell_angle_alpha                90
_cell_angle_beta                 90
_cell_angle_gamma                90
_cell_volume                     6848.19
loop_
_atom_site_label
_atom_site_type_symbol
_atom_site_fract_x
_atom_site_fract_y
_atom_site_fract_z
Au1 Au 0.067322(15) 0.044151(12) 0.82231(5)
K1 K -0.01076(8) 0.08983(7) 0.3252(3)
S1 S 0.08139(11) 0.13733(9) 0.6671(3)
S2 S 0.09605(12) -0.04181(8) 0.9993(3)
N1 N 0.0612(3) 0.1093(3) 0.8145(19)
N2 N 0.0741(4) -0.0207(3) 0.8379(18)
O1 O 0.0480(3) 0.1309(3) 0.5370(9)
O2 O 0.1360(3) 0.1304(3) 0.6381(10)
O3 O 0.0589(4) -0.0358(3) 1.1222(11)
O4 O 0.1477(4) -0.0273(3) 1.0333(10)
O5 O 0.0262(3) 0.1203(2) 1.0559(11)
O6 O 0.0465(4) -0.0428(2) 0.5981(10)
O7 O 0.0566(4) 0.0258(3) 0.3757(11)
H1 H 0.0598 0.0061 0.3067
H2 H 0.0754 0.0234 0.4563
C1 C 0.0433(4) 0.1344(4) 0.9352(13)
C2 C 0.0486(5) 0.1812(4) 0.8990(14)
C3 C 0.0691(4) 0.1880(4) 0.7530(15)
C4 C 0.0774(5) 0.2288(4) 0.6904(15)
H3 H 0.0915 0.2324 0.5898
C5 C 0.0642(5) 0.2638(4) 0.7813(16)
H4 H 0.0698 0.2924 0.7436
C6 C 0.0426(5) 0.2580(4) 0.9277(15)
H5 H 0.0340 0.2826 0.9883
C7 C 0.0338(5) 0.2171(4) 0.9859(17)
H6 H 0.0178 0.2134 1.0839
C8 C 0.0627(4) -0.0506(4) 0.7280(13)
C9 C 0.0732(4) -0.0955(3) 0.7865(13)
C10 C 0.0638(4) -0.1349(4) 0.7080(14)
H7 H 0.0486 -0.1358 0.6081
C11 C 0.0784(5) -0.1726(4) 0.7874(13)
H8 H 0.0722 -0.1999 0.7399
C12 C 0.1013(5) -0.1718(4) 0.9315(14)
H9 H 0.1116 -0.1983 0.9789
C13 C 0.1096(4) -0.1327(4) 1.0081(14)
H10 H 0.1253 -0.1319 1.1074
C14 C 0.0940(4) -0.0953(4) 0.9339(12)
K1B K 0.23924(8) 0.16017(7) 0.5752(3)
K1A K 0.01076(8) -0.08983(7) 1.3252(3)
K1_2 K -0.01076(8) 0.08983(7) 1.3252(3)
K1A_2 K 0.01076(8) -0.08983(7) 0.3252(3)
O2J O -0.1140(3) 0.1196(3) 0.3881(10)
O3A O -0.0589(4) 0.0358(3) 0.1222(11)
O5_2 O 0.0262(3) 0.1203(2) 0.0559(11)
O6A O -0.0465(4) 0.0428(2) 0.5981(10)
loop_
_geom_bond_atom_site_label_1
_geom_bond_atom_site_label_2
_geom_bond_site_symmetry_1
_geom_bond_site_symmetry_2
Au1 N1 1_555 1_555
K1 O1 1_555 1_555
S1 N1 1_555 1_555
S2 N2 1_555 1_555
N1 C1 1_555 1_555
N2 Au1 1_555 1_555
O1 S1 1_555 1_555
O2 S1 1_555 1_555
O3 S2 1_555 1_555
O4 S2 1_555 1_555
O5 C1 1_555 1_555
O6 C8 1_555 1_555
O7 K1 1_555 1_555
H1 O7 1_555 1_555
H2 O7 1_555 1_555
C1 C2 1_555 1_555
C2 C3 1_555 1_555
C3 S1 1_555 1_555
C4 C3 1_555 1_555
H3 C4 1_555 1_555
C5 C4 1_555 1_555
H4 C5 1_555 1_555
C6 C5 1_555 1_555
H5 C6 1_555 1_555
C7 C2 1_555 1_555
H6 C7 1_555 1_555
C8 N2 1_555 1_555
C9 C8 1_555 1_555
C10 C9 1_555 1_555
H7 C10 1_555 1_555
C11 C10 1_555 1_555
H8 C11 1_555 1_555
C12 C11 1_555 1_555
H9 C12 1_555 1_555
C13 C12 1_555 1_555
H10 C13 1_555 1_555
C14 S2 1_555 1_555
K1B O2 1_555 1_555
K1A O3 1_555 1_555
K1_2 O5 1_555 1_555
K1A_2 O6 1_555 1_555
O2J K1 1_555 1_555
O3A K1 1_555 1_555
O5_2 K1 1_555 1_555
O6A K1 1_555 1_555
C6 C7 1_555 1_555
C9 C14 1_555 1_555
C13 C14 1_555 1_555

#END
