
#######################################################################
#
#                 Cambridge Crystallographic Data Centre
#                                CCDC 
#
#######################################################################
#
# If this CIF has been generated from an entry in the Cambridge 
# Structural Database, then it will include bibliographic, chemical, 
# crystal, experimental, refinement or atomic coordinate data resulting 
# from the CCDC's data processing and validation procedures.
#
#######################################################################

data_DOHZIK02
_symmetry_cell_setting           monoclinic
_symmetry_space_group_name_H-M   'P 21/c'
_symmetry_Int_Tables_number      14
_space_group_name_Hall           '-P 2ybc'
loop_
_symmetry_equiv_pos_site_id
_symmetry_equiv_pos_as_xyz
1 x,y,z
2 -x,1/2+y,1/2-z
3 -x,-y,-z
4 x,1/2-y,1/2+z
_cell_length_a                   8.8967(18)
_cell_length_b                   9.5847(19)
_cell_length_c                   14.343(3)
_cell_angle_alpha                90
_cell_angle_beta                 91.06(3)
_cell_angle_gamma                90
_cell_volume                     1222.85
loop_
_atom_site_label
_atom_site_type_symbol
_atom_site_fract_x
_atom_site_fract_y
_atom_site_fract_z
N1 N 1.07249(13) 0.20805(12) 0.52686(8)
C1 C 1.13312(14) 0.29804(13) 0.56677(9)
C2 C 0.28554(14) 0.01268(14) 0.37921(9)
H1 H 0.2414 0.0855 0.3457
C3 C 0.44937(15) -0.14406(15) 0.42579(10)
H2 H 0.5353 -0.1988 0.4316
C4 C 0.32351(15) -0.15217(15) 0.47815(9)
H3 H 0.3091 -0.2151 0.5265
C5 C 0.90048(14) -0.02456(14) 0.29320(9)
H4 H 0.9122 -0.1208 0.2970
C6 C 0.89941(14) 0.19390(14) 0.32736(9)
H5 H 0.9110 0.2771 0.3601
C7 C 0.84816(14) 0.18249(14) 0.23741(9)
H6 H 0.8181 0.2548 0.1981
C8 C 0.79367(15) -0.02486(15) 0.13173(9)
H7 H 0.8352 -0.1182 0.1284
H8 H 0.8282 0.0269 0.0781
C9 C 0.62216(15) -0.03395(15) 0.12735(9)
H9 H 0.5929 -0.0898 0.0736
H10 H 0.5822 0.0592 0.1176
C10 C 0.54932(15) -0.09646(14) 0.21396(9)
H11 H 0.4529 -0.1366 0.1961
H12 H 0.6126 -0.1711 0.2380
C11 C 0.52577(15) 0.01069(14) 0.29093(10)
H13 H 0.6222 0.0331 0.3198
H14 H 0.4854 0.0956 0.2635
Co1 Co 1.0000 0.0000 0.5000
N2 N 0.42365(12) -0.03870(12) 0.36274(8)
N3 N 0.22044(12) -0.05313(12) 0.44880(8)
N4 N 0.93150(11) 0.06259(12) 0.36227(7)
N5 N 0.84984(11) 0.04293(12) 0.21677(7)
S1 S 1.22011(4) 0.42249(4) 0.62435(3)
C2B C 0.71446(14) -0.01268(14) 0.62079(9)
H1B H 0.7586 -0.0855 0.6543
C3B C 0.55063(15) 0.14406(15) 0.57421(10)
H2B H 0.4647 0.1988 0.5684
C4B C 0.67649(15) 0.15217(15) 0.52185(9)
H3B H 0.6909 0.2151 0.4735
C5B C 0.09952(14) 0.02456(14) 0.70680(9)
H4B H 0.0878 0.1208 0.7030
C6B C 0.10059(14) -0.19390(14) 0.67264(9)
H5B H 0.0890 -0.2771 0.6399
C7B C 0.15184(14) -0.18249(14) 0.76259(9)
H6B H 0.1819 -0.2548 0.8019
C8B C 0.20633(15) 0.02486(15) 0.86827(9)
H7B H 0.1648 0.1182 0.8716
H8B H 0.1718 -0.0269 0.9219
C9B C 0.37784(15) 0.03395(15) 0.87265(9)
H9B H 0.4071 0.0898 0.9264
H10B H 0.4178 -0.0592 0.8824
C10B C 0.45068(15) 0.09646(14) 0.78604(9)
H11B H 0.5471 0.1366 0.8039
H12B H 0.3874 0.1711 0.7620
C11B C 0.47423(15) -0.01069(14) 0.70907(10)
H13B H 0.3778 -0.0331 0.6802
H14B H 0.5146 -0.0956 0.7365
N2B N 0.57635(12) 0.03870(12) 0.63726(8)
N3B N 0.77956(12) 0.05313(12) 0.55120(8)
N4B N 0.06850(11) -0.06259(12) 0.63773(7)
N5B N 0.15016(11) -0.04293(12) 0.78323(7)
N1B N 0.92751(13) -0.20805(12) 0.47314(8)
C1B C 0.86688(14) -0.29804(13) 0.43323(9)
S1B S 0.77989(4) -0.42249(4) 0.37565(3)
Co1_2 Co 0.0000 0.0000 0.5000
N3_2 N 1.22044(12) -0.05313(12) 0.44880(8)
N4B_2 N 1.06850(11) -0.06259(12) 0.63773(7)
loop_
_geom_bond_atom_site_label_1
_geom_bond_atom_site_label_2
_geom_bond_site_symmetry_1
_geom_bond_site_symmetry_2
N1 C1 1_555 1_555
C1 S1 1_555 1_555
C2 H1 1_555 1_555
C3 H2 1_555 1_555
C4 C3 1_555 1_555
H3 C4 1_555 1_555
C5 H4 1_555 1_555
C6 H5 1_555 1_555
C7 C6 1_555 1_555
H6 C7 1_555 1_555
C8 H7 1_555 1_555
H8 C8 1_555 1_555
C9 C8 1_555 1_555
H9 C9 1_555 1_555
H10 C9 1_555 1_555
C10 C9 1_555 1_555
H11 C10 1_555 1_555
H12 C10 1_555 1_555
C11 C10 1_555 1_555
H13 C11 1_555 1_555
H14 C11 1_555 1_555
Co1 N1 1_555 1_555
N2 C2 1_555 1_555
N3 C2 1_555 1_555
N4 C5 1_555 1_555
N5 C5 1_555 1_555
C2B H1B 1_555 1_555
C3B H2B 1_555 1_555
C4B C3B 1_555 1_555
H3B C4B 1_555 1_555
C5B H4B 1_555 1_555
C6B H5B 1_555 1_555
C7B C6B 1_555 1_555
H6B C7B 1_555 1_555
C8B H7B 1_555 1_555
H8B C8B 1_555 1_555
C9B C8B 1_555 1_555
H9B C9B 1_555 1_555
H10B C9B 1_555 1_555
C10B C9B 1_555 1_555
H11B C10B 1_555 1_555
H12B C10B 1_555 1_555
C11B C10B 1_555 1_555
H13B C11B 1_555 1_555
H14B C11B 1_555 1_555
N2B C2B 1_555 1_555
N3B Co1 1_555 1_555
N4B C5B 1_555 1_555
N5B C5B 1_555 1_555
N1B Co1 1_555 1_555
C1B N1B 1_555 1_555
S1B C1B 1_555 1_555
Co1_2 N3 1_555 1_555
N3_2 Co1 1_555 1_555
N4B_2 Co1 1_555 1_555
C3 N2 1_555 1_555
C4 N3 1_555 1_555
C6 N4 1_555 1_555
C7 N5 1_555 1_555
C8 N5 1_555 1_555
C11 N2 1_555 1_555
Co1 N4 1_555 1_555
C2B N3B 1_555 1_555
C3B N2B 1_555 1_555
C4B N3B 1_555 1_555
C6B N4B 1_555 1_555
C7B N5B 1_555 1_555
C8B N5B 1_555 1_555
C11B N2B 1_555 1_555
N4B Co1_2 1_555 1_555

#END
