
#######################################################################
#
#                 Cambridge Crystallographic Data Centre
#                                CCDC 
#
#######################################################################
#
# If this CIF has been generated from an entry in the Cambridge 
# Structural Database, then it will include bibliographic, chemical, 
# crystal, experimental, refinement or atomic coordinate data resulting 
# from the CCDC's data processing and validation procedures.
#
#######################################################################

data_DOHZIK01
_symmetry_cell_setting           monoclinic
_symmetry_space_group_name_H-M   'P 21/c'
_symmetry_Int_Tables_number      14
_space_group_name_Hall           '-P 2ybc'
loop_
_symmetry_equiv_pos_site_id
_symmetry_equiv_pos_as_xyz
1 x,y,z
2 -x,1/2+y,1/2-z
3 -x,-y,-z
4 x,1/2-y,1/2+z
_cell_length_a                   8.9697(7)
_cell_length_b                   9.6720(10)
_cell_length_c                   14.4880(13)
_cell_angle_alpha                90
_cell_angle_beta                 90.9280(10)
_cell_angle_gamma                90
_cell_volume                     1256.74
loop_
_atom_site_label
_atom_site_type_symbol
_atom_site_fract_x
_atom_site_fract_y
_atom_site_fract_z
Co1 Co 0.5000 0.5000 0.5000
S1 S 0.71854(8) 0.92094(8) 0.62170(5)
N1 N 0.0784(2) 0.5389(2) 0.63699(14)
N2 N 0.2813(2) 0.5540(2) 0.55183(14)
N3 N -0.3485(2) 0.4578(2) 0.78134(13)
N4 N -0.4315(2) 0.4379(2) 0.63675(13)
N5 N 0.5738(2) 0.7066(2) 0.52607(15)
C1 C 0.2157(3) 0.4895(3) 0.62045(18)
H1 H 0.2597 0.4176 0.6538
C2 C 0.1775(3) 0.6520(3) 0.52295(18)
H2 H 0.1915 0.7146 0.4752
C3 C 0.0534(3) 0.6433(3) 0.57425(18)
H3 H -0.0321 0.6973 0.5683
C4 C -0.3994(3) 0.5242(3) 0.70519(16)
H4 H -0.4106 0.6197 0.7012
C5 C -0.3995(3) 0.3078(3) 0.67233(18)
H5 H -0.4114 0.2249 0.6405
C6 C -0.3484(3) 0.3201(3) 0.76048(18)
H6 H -0.3189 0.2483 0.7994
C7 C -0.0233(3) 0.4904(3) 0.70827(18)
H7 H 0.0164 0.4060 0.7352
H8 H -0.1188 0.4685 0.6795
C8 C -0.0476(3) 0.5953(3) 0.78494(18)
H9 H -0.1091 0.6700 0.7611
H10 H 0.0480 0.6342 0.8035
C9 C -0.1224(3) 0.5332(3) 0.87020(18)
H11 H -0.0839 0.4405 0.8797
H12 H -0.0935 0.5878 0.9237
C10 C -0.2924(3) 0.5258(3) 0.86535(17)
H13 H -0.3278 0.4758 0.9187
H14 H -0.3326 0.6188 0.8679
C11 C 0.6329(3) 0.7966(3) 0.56532(17)
Co1_2 Co -0.5000 0.5000 0.5000
S1B S 0.28146(8) 0.07906(8) 0.37830(5)
N1B N -0.0784(2) 0.4611(2) 0.36301(14)
N2B N -0.2813(2) 0.4460(2) 0.44817(14)
N2B_2 N 0.7187(2) 0.4460(2) 0.44817(14)
N3B N 0.3485(2) 0.5422(2) 0.21866(13)
N4B N 0.4315(2) 0.5621(2) 0.36325(13)
N4_2 N 0.5685(2) 0.4379(2) 0.63675(13)
N5B N 0.4262(2) 0.2934(2) 0.47393(15)
C1B C -0.2157(3) 0.5105(3) 0.37955(18)
H1B H -0.2597 0.5824 0.3462
C2B C -0.1775(3) 0.3480(3) 0.47705(18)
H2B H -0.1915 0.2854 0.5248
C3B C -0.0534(3) 0.3567(3) 0.42575(18)
H3B H 0.0321 0.3027 0.4317
C4B C 0.3994(3) 0.4758(3) 0.29481(16)
H4B H 0.4106 0.3803 0.2988
C5B C 0.3995(3) 0.6922(3) 0.32767(18)
H5B H 0.4114 0.7751 0.3595
C6B C 0.3484(3) 0.6799(3) 0.23952(18)
H6B H 0.3189 0.7517 0.2006
C7B C 0.0233(3) 0.5096(3) 0.29173(18)
H7B H -0.0164 0.5940 0.2648
H8B H 0.1188 0.5315 0.3205
C8B C 0.0476(3) 0.4047(3) 0.21506(18)
H9B H 0.1091 0.3300 0.2389
H10B H -0.0480 0.3658 0.1965
C9B C 0.1224(3) 0.4668(3) 0.12980(18)
H11B H 0.0839 0.5595 0.1203
H12B H 0.0935 0.4122 0.0763
C10B C 0.2924(3) 0.4742(3) 0.13465(17)
H13B H 0.3278 0.5242 0.0813
H14B H 0.3326 0.3812 0.1321
C11B C 0.3671(3) 0.2034(3) 0.43468(17)
loop_
_geom_bond_atom_site_label_1
_geom_bond_atom_site_label_2
_geom_bond_site_symmetry_1
_geom_bond_site_symmetry_2
Co1 N2 1_555 1_555
S1 C11 1_555 1_555
N1 C1 1_555 1_555
N2 C1 1_555 1_555
N3 C4 1_555 1_555
N4 C4 1_555 1_555
N5 Co1 1_555 1_555
C1 H1 1_555 1_555
C2 N2 1_555 1_555
H2 C2 1_555 1_555
C3 N1 1_555 1_555
H3 C3 1_555 1_555
C4 H4 1_555 1_555
C5 N4 1_555 1_555
H5 C5 1_555 1_555
C6 N3 1_555 1_555
H6 C6 1_555 1_555
C7 N1 1_555 1_555
H7 C7 1_555 1_555
H8 C7 1_555 1_555
C8 C7 1_555 1_555
H9 C8 1_555 1_555
H10 C8 1_555 1_555
C9 C8 1_555 1_555
H11 C9 1_555 1_555
H12 C9 1_555 1_555
C10 N3 1_555 1_555
H13 C10 1_555 1_555
H14 C10 1_555 1_555
C11 N5 1_555 1_555
Co1_2 N4 1_555 1_555
S1B C11B 1_555 1_555
N1B C1B 1_555 1_555
N2B Co1_2 1_555 1_555
N2B_2 Co1 1_555 1_555
N3B C4B 1_555 1_555
N4B Co1 1_555 1_555
N4_2 Co1 1_555 1_555
N5B Co1 1_555 1_555
C1B N2B 1_555 1_555
H1B C1B 1_555 1_555
C2B N2B 1_555 1_555
H2B C2B 1_555 1_555
C3B N1B 1_555 1_555
H3B C3B 1_555 1_555
C4B N4B 1_555 1_555
H4B C4B 1_555 1_555
C5B N4B 1_555 1_555
H5B C5B 1_555 1_555
C6B N3B 1_555 1_555
H6B C6B 1_555 1_555
C7B N1B 1_555 1_555
H7B C7B 1_555 1_555
H8B C7B 1_555 1_555
C8B C7B 1_555 1_555
H9B C8B 1_555 1_555
H10B C8B 1_555 1_555
C9B C8B 1_555 1_555
H11B C9B 1_555 1_555
H12B C9B 1_555 1_555
C10B N3B 1_555 1_555
H13B C10B 1_555 1_555
H14B C10B 1_555 1_555
C11B N5B 1_555 1_555
C2 C3 1_555 1_555
C5 C6 1_555 1_555
C9 C10 1_555 1_555
C2B C3B 1_555 1_555
C5B C6B 1_555 1_555
C9B C10B 1_555 1_555

#END
