
#######################################################################
#
#                 Cambridge Crystallographic Data Centre
#                                CCDC 
#
#######################################################################
#
# If this CIF has been generated from an entry in the Cambridge 
# Structural Database, then it will include bibliographic, chemical, 
# crystal, experimental, refinement or atomic coordinate data resulting 
# from the CCDC's data processing and validation procedures.
#
#######################################################################

data_DOHZEG
_symmetry_cell_setting           monoclinic
_symmetry_space_group_name_H-M   'P 21/c'
_symmetry_Int_Tables_number      14
_space_group_name_Hall           '-P 2ybc'
loop_
_symmetry_equiv_pos_site_id
_symmetry_equiv_pos_as_xyz
1 x,y,z
2 -x,1/2+y,1/2-z
3 -x,-y,-z
4 x,1/2-y,1/2+z
_cell_length_a                   6.7478(4)
_cell_length_b                   10.9966(7)
_cell_length_c                   25.8104(16)
_cell_angle_alpha                90
_cell_angle_beta                 96.6330(10)
_cell_angle_gamma                90
_cell_volume                     1902.39
loop_
_atom_site_label
_atom_site_type_symbol
_atom_site_fract_x
_atom_site_fract_y
_atom_site_fract_z
La1 La 0.74073(3) 0.09869(2) 0.249214(9)
La2 La 0.65394(4) 0.42639(2) 0.076110(9)
S1 S 0.75109(15) 0.44849(9) 0.22365(4)
S2 S 0.77554(16) -0.05409(10) 0.38263(4)
O1 O 0.7688(6) 0.0706(3) 0.15503(13)
O2 O 0.7342(6) 0.2240(3) 0.09877(13)
O3 O 0.7456(6) -0.3502(3) 0.08498(13)
O4 O 0.6062(5) -0.3810(3) 0.00432(12)
O5 O 0.7598(9) -0.0354(4) -0.11438(15)
O6 O 0.7802(8) 0.1451(4) -0.08442(15)
O7 O 0.8090(5) 0.3204(3) 0.23091(13)
O8 O 0.7246(5) 0.4779(3) 0.16770(12)
O9 O 0.5643(5) 0.4706(3) 0.24575(13)
O10 O 0.9062(5) 0.5286(3) 0.25024(12)
O11 O 0.8026(5) -0.0317(3) 0.32859(12)
O12 O 0.6607(5) 0.0465(3) 0.40402(12)
O13 O 0.6527(5) -0.1644(3) 0.38731(12)
O14 O 0.9672(5) -0.0660(3) 0.41478(14)
O15 O 0.4064(5) 0.1922(3) 0.20229(13)
H1 H 0.4011 0.2331 0.1742
H2 H 0.3192 0.1361 0.1989
O16 O 0.5552(5) 0.2100(3) 0.31666(12)
H3 H 0.4694 0.2663 0.3104
H4 H 0.5310 0.1772 0.3451
O17 O 0.9721(5) 0.2166(3) 0.32614(13)
H5 H 1.0683 0.1846 0.3456
H6 H 0.8900 0.2513 0.3439
O18 O 0.7569(5) -0.1375(3) 0.22444(13)
H7 H 0.7308 -0.1776 0.2510
H8 H 0.8664 -0.1622 0.2149
O19 O 0.8290(5) 0.3651(3) -0.00341(12)
H9 H 0.9545 0.3739 0.0033
H10 H 0.7980 0.3906 -0.0344
N1 N 0.7647(7) 0.0360(4) -0.07878(15)
C1 C 0.7521(7) 0.1132(4) 0.11034(18)
C2 C 0.7481(7) 0.0258(4) 0.06503(18)
C3 C 0.7299(7) -0.0985(4) 0.07306(18)
H11 H 0.7288 -0.1287 0.1067
C4 C 0.7134(7) -0.1784(4) 0.03046(17)
C5 C 0.7245(7) -0.1341(4) -0.01976(17)
H12 H 0.7160 -0.1862 -0.0483
C6 C 0.7482(7) -0.0117(4) -0.02578(17)
C7 C 0.7589(7) 0.0705(4) 0.01484(18)
H13 H 0.7729 0.1533 0.0089
C8 C 0.6864(6) -0.3100(4) 0.04014(17)
La1A La 0.25927(3) 0.59869(2) 0.250786(9)
La1A_2 La 1.25927(3) 0.59869(2) 0.250786(9)
La2_2 La 0.65394(4) -0.57361(2) 0.076110(9)
La2B La 0.34606(4) -0.42639(2) -0.076110(9)
La2A La 0.34606(4) -0.07361(2) 0.423890(9)
La2A_2 La 1.34606(4) -0.07361(2) 0.423890(9)
O3_2 O 0.7456(6) 0.6498(3) 0.08498(13)
O4_2 O 0.6062(5) 0.6190(3) 0.00432(12)
O4B O 0.3938(5) 0.3810(3) -0.00432(12)
O9A O 0.4357(5) -0.0294(3) 0.25425(13)
O10A O 1.0938(5) 0.0286(3) 0.24976(12)
O12A O 0.3393(5) 0.5465(3) 0.09598(12)
O13A O 0.3473(5) 0.3356(3) 0.11269(12)
O14A O 1.0328(5) 0.4340(3) 0.08522(14)
loop_
_geom_bond_atom_site_label_1
_geom_bond_atom_site_label_2
_geom_bond_site_symmetry_1
_geom_bond_site_symmetry_2
La1 O1 1_555 1_555
La2 O2 1_555 1_555
S1 O7 1_555 1_555
S2 O11 1_555 1_555
O1 C1 1_555 1_555
O2 C1 1_555 1_555
O3 C8 1_555 1_555
O4 C8 1_555 1_555
O5 N1 1_555 1_555
O6 N1 1_555 1_555
O7 La1 1_555 1_555
O8 La2 1_555 1_555
O9 S1 1_555 1_555
O10 S1 1_555 1_555
O11 La1 1_555 1_555
O12 S2 1_555 1_555
O13 S2 1_555 1_555
O14 S2 1_555 1_555
O15 La1 1_555 1_555
H1 O15 1_555 1_555
H2 O15 1_555 1_555
O16 La1 1_555 1_555
H3 O16 1_555 1_555
H4 O16 1_555 1_555
O17 La1 1_555 1_555
H5 O17 1_555 1_555
H6 O17 1_555 1_555
O18 La1 1_555 1_555
H7 O18 1_555 1_555
H8 O18 1_555 1_555
O19 La2 1_555 1_555
H9 O19 1_555 1_555
H10 O19 1_555 1_555
N1 C6 1_555 1_555
C1 C2 1_555 1_555
C2 C3 1_555 1_555
C3 H11 1_555 1_555
C4 C3 1_555 1_555
C5 C4 1_555 1_555
H12 C5 1_555 1_555
C6 C5 1_555 1_555
C7 C2 1_555 1_555
H13 C7 1_555 1_555
C8 C4 1_555 1_555
La1A O9 1_555 1_555
La1A_2 O10 1_555 1_555
La2_2 O3 1_555 1_555
La2B O4 1_555 1_555
La2A O12 1_555 1_555
La2A_2 O14 1_555 1_555
O3_2 La2 1_555 1_555
O4_2 La2 1_555 1_555
O4B La2 1_555 1_555
O9A La1 1_555 1_555
O10A La1 1_555 1_555
O12A La2 1_555 1_555
O13A La2 1_555 1_555
O14A La2 1_555 1_555
S1 O8 1_555 1_555
O4 La2_2 1_555 1_555
O13 La2A 1_555 1_555
C6 C7 1_555 1_555

#END
