
#######################################################################
#
#                 Cambridge Crystallographic Data Centre
#                                CCDC 
#
#######################################################################
#
# If this CIF has been generated from an entry in the Cambridge 
# Structural Database, then it will include bibliographic, chemical, 
# crystal, experimental, refinement or atomic coordinate data resulting 
# from the CCDC's data processing and validation procedures.
#
#######################################################################

data_DOJKEU
_symmetry_cell_setting           triclinic
_symmetry_space_group_name_H-M   'P -1'
_symmetry_Int_Tables_number      2
_space_group_name_Hall           '-P 1'
loop_
_symmetry_equiv_pos_site_id
_symmetry_equiv_pos_as_xyz
1 x,y,z
2 -x,-y,-z
_cell_length_a                   8.2328(10)
_cell_length_b                   10.5428(13)
_cell_length_c                   12.0915(16)
_cell_angle_alpha                114.438(2)
_cell_angle_beta                 90.934(2)
_cell_angle_gamma                108.726(2)
_cell_volume                     891.263
loop_
_atom_site_label
_atom_site_type_symbol
_atom_site_fract_x
_atom_site_fract_y
_atom_site_fract_z
Mo1 Mo 0.05535(4) -0.07376(3) -0.06026(3)
O1 O -0.1736(3) -0.2595(2) -0.1044(2)
O2 O -0.2929(3) -0.1049(2) 0.0213(2)
O3 O 0.1526(3) -0.1104(2) 0.0818(2)
O4 O 0.0395(3) 0.0472(2) 0.2102(2)
C1 C -0.4682(4) -0.3608(4) -0.0859(3)
C2 C -0.6191(5) -0.3374(4) -0.0493(4)
H1 H -0.6158 -0.2403 -0.0042
C3 C -0.7721(6) -0.4540(5) -0.0781(4)
H2 H -0.8725 -0.4364 -0.0538
C4 C -0.7774(6) -0.5975(6) -0.1432(5)
H3 H -0.8815 -0.6774 -0.1626
C5 C -0.6299(7) -0.6233(5) -0.1796(4)
H4 H -0.6339 -0.7208 -0.2232
C6 C -0.4763(5) -0.5062(4) -0.1521(4)
H5 H -0.3770 -0.5246 -0.1781
C7 C -0.3033(4) -0.2347(4) -0.0546(3)
C8 C 0.1852(4) -0.0643(4) 0.2920(3)
C9 C 0.2504(5) -0.1760(4) 0.2717(4)
H6 H 0.2623 -0.2344 0.1922
C10 C 0.2977(6) -0.2016(6) 0.3675(4)
H7 H 0.3409 -0.2775 0.3524
C11 C 0.2820(6) -0.1172(7) 0.4843(5)
H8 H 0.3126 -0.1364 0.5485
C12 C 0.2214(6) -0.0041(6) 0.5071(4)
H9 H 0.2133 0.0553 0.5873
C13 C 0.1723(5) 0.0221(5) 0.4120(4)
H10 H 0.1299 0.0987 0.4282
C14 C 0.1228(4) -0.0415(4) 0.1892(3)
N1 N 0.1996(4) -0.2279(3) -0.2296(3)
C15 C 0.1080(5) -0.3685(5) -0.3043(4)
H11 H -0.0092 -0.4055 -0.2998
C16 C 0.1758(5) -0.4639(5) -0.3888(4)
H12 H 0.1044 -0.5621 -0.4393
C17 C 0.3480(5) -0.4150(4) -0.3990(3)
C18 C 0.4453(5) -0.2673(4) -0.3196(3)
H13 H 0.5630 -0.2275 -0.3216
C19 C 0.3670(5) -0.1803(4) -0.2380(3)
H14 H 0.4353 -0.0820 -0.1852
C20 C 0.4215(5) -0.5146(4) -0.4891(4)
H15 H 0.3448 -0.6117 -0.5370
N1A N 0.8004(4) -0.7721(3) -0.7704(3)
C15A C 0.8920(5) -0.6315(5) -0.6957(4)
H11A H 1.0092 -0.5945 -0.7002
C16A C 0.8242(5) -0.5361(5) -0.6112(4)
H12A H 0.8956 -0.4379 -0.5607
C17A C 0.6520(5) -0.5850(4) -0.6010(3)
C18A C 0.5547(5) -0.7327(4) -0.6804(3)
H13A H 0.4370 -0.7725 -0.6784
C19A C 0.6330(5) -0.8197(4) -0.7620(3)
H14A H 0.5647 -0.9180 -0.8148
C20A C 0.5785(5) -0.4854(4) -0.5109(4)
H15A H 0.6552 -0.3883 -0.4630
Mo1A Mo -0.05535(4) 0.07376(3) 0.06026(3)
O1A O 0.1736(3) 0.2595(2) 0.1044(2)
O2A O 0.2929(3) 0.1049(2) -0.0213(2)
O3A O -0.1526(3) 0.1104(2) -0.0818(2)
O4A O -0.0395(3) -0.0472(2) -0.2102(2)
C1A C 0.4682(4) 0.3608(4) 0.0859(3)
C2A C 0.6191(5) 0.3374(4) 0.0493(4)
H1A H 0.6158 0.2403 0.0042
C3A C 0.7721(6) 0.4540(5) 0.0781(4)
H2A H 0.8725 0.4364 0.0538
C4A C 0.7774(6) 0.5975(6) 0.1432(5)
H3A H 0.8815 0.6774 0.1626
C5A C 0.6299(7) 0.6233(5) 0.1796(4)
H4A H 0.6339 0.7208 0.2232
C6A C 0.4763(5) 0.5062(4) 0.1521(4)
H5A H 0.3770 0.5246 0.1781
C7A C 0.3033(4) 0.2347(4) 0.0546(3)
C8A C -0.1852(4) 0.0643(4) -0.2920(3)
C9A C -0.2504(5) 0.1760(4) -0.2717(4)
H6A H -0.2623 0.2344 -0.1922
C10A C -0.2977(6) 0.2016(6) -0.3675(4)
H7A H -0.3409 0.2775 -0.3524
C11A C -0.2820(6) 0.1172(7) -0.4843(5)
H8A H -0.3126 0.1364 -0.5485
C12A C -0.2214(6) 0.0041(6) -0.5071(4)
H9A H -0.2133 -0.0553 -0.5873
C13A C -0.1723(5) -0.0221(5) -0.4120(4)
H10A H -0.1299 -0.0987 -0.4282
C14A C -0.1228(4) 0.0415(4) -0.1892(3)
Mo1A_2 Mo 0.94465(4) -0.92624(3) -0.93974(3)
N1A_2 N -0.1996(4) 0.2279(3) 0.2296(3)
loop_
_geom_bond_atom_site_label_1
_geom_bond_atom_site_label_2
_geom_bond_site_symmetry_1
_geom_bond_site_symmetry_2
Mo1 O1 1_555 1_555
O1 C7 1_555 1_555
O2 C7 1_555 1_555
O3 Mo1 1_555 1_555
O4 C14 1_555 1_555
C1 C2 1_555 1_555
C2 H1 1_555 1_555
C3 C2 1_555 1_555
H2 C3 1_555 1_555
C4 C3 1_555 1_555
H3 C4 1_555 1_555
C5 C4 1_555 1_555
H4 C5 1_555 1_555
C6 C1 1_555 1_555
H5 C6 1_555 1_555
C7 C1 1_555 1_555
C8 C9 1_555 1_555
C9 H6 1_555 1_555
C10 C9 1_555 1_555
H7 C10 1_555 1_555
C11 C10 1_555 1_555
H8 C11 1_555 1_555
C12 C11 1_555 1_555
H9 C12 1_555 1_555
C13 C8 1_555 1_555
H10 C13 1_555 1_555
C14 O3 1_555 1_555
N1 Mo1 1_555 1_555
C15 N1 1_555 1_555
H11 C15 1_555 1_555
C16 C15 1_555 1_555
H12 C16 1_555 1_555
C17 C16 1_555 1_555
C18 C17 1_555 1_555
H13 C18 1_555 1_555
C19 N1 1_555 1_555
H14 C19 1_555 1_555
C20 C17 1_555 1_555
H15 C20 1_555 1_555
N1A C15A 1_555 1_555
C15A H11A 1_555 1_555
C16A C15A 1_555 1_555
H12A C16A 1_555 1_555
C17A C16A 1_555 1_555
C18A C17A 1_555 1_555
H13A C18A 1_555 1_555
C19A N1A 1_555 1_555
H14A C19A 1_555 1_555
C20A C20 1_555 1_555
H15A C20A 1_555 1_555
Mo1A Mo1 1_555 1_555
O1A Mo1A 1_555 1_555
O2A Mo1 1_555 1_555
O3A Mo1A 1_555 1_555
O4A Mo1 1_555 1_555
C1A C2A 1_555 1_555
C2A H1A 1_555 1_555
C3A C2A 1_555 1_555
H2A C3A 1_555 1_555
C4A C3A 1_555 1_555
H3A C4A 1_555 1_555
C5A C4A 1_555 1_555
H4A C5A 1_555 1_555
C6A C1A 1_555 1_555
H5A C6A 1_555 1_555
C7A O1A 1_555 1_555
C8A C9A 1_555 1_555
C9A H6A 1_555 1_555
C10A C9A 1_555 1_555
H7A C10A 1_555 1_555
C11A C10A 1_555 1_555
H8A C11A 1_555 1_555
C12A C11A 1_555 1_555
H9A C12A 1_555 1_555
C13A C8A 1_555 1_555
H10A C13A 1_555 1_555
C14A O3A 1_555 1_555
Mo1A_2 N1A 1_555 1_555
N1A_2 Mo1A 1_555 1_555
O2 Mo1A 1_555 1_555
O4 Mo1A 1_555 1_555
C5 C6 1_555 1_555
C8 C14 1_555 1_555
C12 C13 1_555 1_555
C18 C19 1_555 1_555
C17A C20A 1_555 1_555
C18A C19A 1_555 1_555
O2A C7A 1_555 1_555
O4A C14A 1_555 1_555
C1A C7A 1_555 1_555
C5A C6A 1_555 1_555
C8A C14A 1_555 1_555
C12A C13A 1_555 1_555

#END
