
#######################################################################
#
#                 Cambridge Crystallographic Data Centre
#                                CCDC 
#
#######################################################################
#
# If this CIF has been generated from an entry in the Cambridge 
# Structural Database, then it will include bibliographic, chemical, 
# crystal, experimental, refinement or atomic coordinate data resulting 
# from the CCDC's data processing and validation procedures.
#
#######################################################################

data_DOJNUN
_symmetry_cell_setting           monoclinic
_symmetry_space_group_name_H-M   'C c'
_symmetry_Int_Tables_number      9
_space_group_name_Hall           'C -2yc'
loop_
_symmetry_equiv_pos_site_id
_symmetry_equiv_pos_as_xyz
1 x,y,z
2 x,-y,1/2+z
3 1/2+x,1/2+y,z
4 1/2+x,1/2-y,1/2+z
_cell_length_a                   26.734(5)
_cell_length_b                   14.750(5)
_cell_length_c                   28.409(5)
_cell_angle_alpha                90
_cell_angle_beta                 115.546(5)
_cell_angle_gamma                90
_cell_volume                     10107.3
loop_
_atom_site_label
_atom_site_type_symbol
_atom_site_fract_x
_atom_site_fract_y
_atom_site_fract_z
P1 P 0.0524(3) -0.4687(4) -0.1800(2)
P2 P -0.0688(2) -0.4625(4) -0.3235(2)
W1 W 0.17734(4) -0.57333(7) -0.09378(4)
W2 W -0.15870(4) -0.38212(7) -0.27078(4)
W3 W 0.16052(4) -0.34726(7) -0.08182(4)
W4 W -0.12211(4) -0.55495(8) -0.44973(4)
W5 W -0.14137(4) -0.33020(7) -0.43716(4)
W6 W -0.08628(4) -0.23014(7) -0.30493(4)
W7 W 0.02928(4) -0.53065(7) -0.36844(4)
W8 W 0.08790(5) -0.49943(8) -0.04650(4)
W9 W -0.04397(4) -0.38754(7) -0.13514(4)
W10 W 0.14354(4) -0.53632(7) -0.23256(4)
W11 W -0.21282(4) -0.48373(8) -0.40197(4)
W12 W -0.13850(4) -0.62576(7) -0.28416(4)
W13 W 0.02856(4) -0.23460(7) -0.16905(4)
W14 W -0.02449(4) -0.63151(7) -0.14835(4)
W15 W 0.06405(4) -0.70314(7) -0.19682(4)
W16 W 0.01006(4) -0.30763(7) -0.35746(4)
W17 W -0.05062(4) -0.69765(7) -0.33261(4)
W18 W 0.12455(4) -0.31336(7) -0.22180(4)
O1 O -0.0686(6) -0.5544(10) -0.3021(6)
O2 O -0.0157(6) -0.4435(10) -0.3285(7)
O3 O -0.1179(7) -0.4587(10) -0.3810(6)
O4 O -0.0818(7) -0.3890(11) -0.2914(6)
O5 O 0.0265(6) -0.5595(10) -0.1890(6)
O6 O 0.1005(6) -0.4696(10) -0.1231(6)
O7 O 0.0126(7) -0.3959(11) -0.1816(6)
O8 O 0.0791(7) -0.4486(10) -0.2171(6)
O9 O -0.2147(7) -0.3615(12) -0.2578(7)
O10 O 0.0368(7) -0.1203(11) -0.1569(7)
O11 O 0.1343(9) -0.3935(15) -0.0345(8)
O12 O -0.0136(6) -0.2673(10) -0.1332(6)
O13 O -0.0629(6) -0.3197(12) -0.4134(6)
O14 O -0.1291(7) -0.2657(11) -0.3758(6)
O15 O 0.0012(7) -0.7122(11) -0.2613(8)
O16 O 0.2053(8) -0.4475(13) -0.0722(9)
O17 O -0.2080(6) -0.3795(11) -0.4361(7)
O18 O 0.2376(8) -0.6353(12) -0.0636(8)
O19 O -0.1871(7) -0.6877(13) -0.2755(7)
O20 O -0.1638(8) -0.2506(13) -0.4872(7)
O21 O -0.2842(8) -0.4972(12) -0.4303(8)
O22 O 0.0596(8) -0.5797(13) -0.4019(7)
O23 O 0.0893(7) -0.8088(11) -0.1946(7)
O24 O -0.1350(8) -0.6150(14) -0.5051(8)
O25 O -0.0502(7) -0.5147(12) -0.1473(6)
O26 O 0.1619(7) -0.3314(12) -0.1476(6)
O27 O -0.0461(8) -0.7988(12) -0.3555(7)
O28 O -0.1112(6) -0.7135(11) -0.3145(6)
O29 O 0.0306(7) -0.2211(12) -0.3847(7)
O30 O -0.0529(7) -0.6958(11) -0.1171(7)
O31 O 0.0040(7) -0.6327(13) -0.3438(7)
O32 O 0.0206(7) -0.7207(11) -0.1614(6)
O33 O -0.0994(8) -0.1177(12) -0.3136(9)
O34 O 0.2065(8) -0.2732(13) -0.0426(7)
O35 O 0.0747(7) -0.3186(10) -0.2926(6)
O36 O 0.1656(6) -0.2269(10) -0.2259(6)
O37 O 0.1953(6) -0.5891(11) -0.2444(6)
O38 O -0.1839(7) -0.5824(11) -0.3538(6)
O39 O 0.0350(6) -0.4062(10) -0.3860(6)
O40 O 0.1009(6) -0.6362(11) -0.2300(6)
O41 O -0.0235(7) -0.2481(11) -0.3203(6)
O42 O 0.0904(8) -0.5198(11) -0.3031(7)
O43 O -0.0793(7) -0.3726(12) -0.0996(7)
O44 O 0.1784(6) -0.5415(11) -0.1581(7)
O45 O 0.0888(8) -0.5177(13) 0.0127(7)
O46 O -0.1474(6) -0.5080(11) -0.2613(7)
O47 O -0.1994(7) -0.4082(11) -0.3445(6)
O48 O 0.0706(7) -0.2508(11) -0.2090(7)
O49 O 0.1452(8) -0.5718(12) -0.0455(7)
O50 O -0.1957(7) -0.5550(11) -0.4511(6)
O51 O 0.1239(7) -0.6617(11) -0.1334(6)
O52 O -0.1446(7) -0.2612(13) -0.2879(7)
O53 O -0.0451(7) -0.5284(11) -0.4245(6)
O54 O -0.1025(7) -0.6485(11) -0.3990(6)
O55 O -0.1009(7) -0.3650(10) -0.2013(6)
O56 O -0.1388(8) -0.4340(12) -0.4770(7)
O57 O -0.0791(7) -0.6456(11) -0.2173(7)
O58 O -0.0346(6) -0.2293(10) -0.2316(6)
O59 O 0.0395(7) -0.5926(10) -0.0883(6)
O60 O 0.1654(7) -0.4115(10) -0.2301(6)
O61 O 0.0280(7) -0.4201(11) -0.0779(6)
O62 O 0.0945(7) -0.2768(11) -0.1108(6)
Cd1 Cd -0.25712(9) -0.71604(16) -0.24730(9)
Cd2 Cd 0.06752(10) 0.03794(17) -0.16308(11)
Cd3 Cd -0.26269(9) -0.21807(14) -0.25967(7)
N1 N -0.3579(10) -0.843(2) -0.3930(8)
H1 H -0.3833 -0.8349 -0.4241
C1 C -0.3349(11) -0.9226(18) -0.3722(10)
H2 H -0.3436 -0.9786 -0.3888
C2 C -0.2973(10) -0.9073(14) -0.3233(9)
H3 H -0.2752 -0.9509 -0.2999
N2 N -0.2970(9) -0.8185(13) -0.3140(7)
C3 C -0.3344(10) -0.7789(15) -0.3570(9)
C4 C -0.3386(14) -0.683(2) -0.3569(14)
C5 C -0.365(2) -0.547(4) -0.380(2)
H4 H -0.3830 -0.4947 -0.3973
C6 C -0.3305(18) -0.544(3) -0.3349(19)
H5 H -0.3177 -0.4920 -0.3150
C7 C -0.198(2) -0.906(3) -0.159(2)
H6 H -0.2162 -0.9558 -0.1796
C8 C -0.1647(16) -0.912(3) -0.1156(16)
H7 H -0.1522 -0.9659 -0.0973
C9 C -0.1764(14) -0.764(3) -0.1356(15)
N3 N -0.1488(9) -0.6092(18) -0.0977(9)
H8 H -0.1250 -0.6218 -0.0664
C10 C -0.1761(9) -0.6698(14) -0.1358(8)
N4 N -0.2096(9) -0.6234(14) -0.1789(8)
C11 C -0.2029(11) -0.5341(15) -0.1674(9)
H9 H -0.2210 -0.4869 -0.1901
C12 C -0.1653(11) -0.5253(15) -0.1172(11)
H10 H -0.1530 -0.4710 -0.0993
C13 C -0.1069(10) 0.1173(16) -0.2442(14)
H11 H -0.1414 0.1396 -0.2494
C14 C -0.0641(12) 0.1123(15) -0.2006(10)
H12 H -0.0620 0.1303 -0.1684
N5 N -0.0248(9) 0.0782(13) -0.2088(9)
C15 C -0.0433(10) 0.0622(15) -0.2575(8)
N6 N -0.0940(9) 0.0864(16) -0.2793(11)
H13 H -0.1157 0.0825 -0.3121
C16 C -0.0015(18) 0.019(2) -0.2774(15)
C17 C 0.0292(18) -0.0355(19) -0.3272(14)
H14 H 0.0334 -0.0533 -0.3567
C18 C 0.0640(14) -0.0400(19) -0.2815(15)
H15 H 0.0992 -0.0642 -0.2716
C19 C 0.1039(11) 0.1911(19) -0.0603(10)
H16 H 0.0716 0.2249 -0.0699
C20 C 0.1541(11) 0.2081(17) -0.0179(11)
H17 H 0.1614 0.2553 0.0059
N7 N 0.1915(9) 0.1423(17) -0.0171(9)
H18 H 0.2256 0.1380 0.0054
C21 C 0.1644(9) 0.0847(15) -0.0590(8)
N8 N 0.1102(9) 0.1148(17) -0.0857(7)
C22 C 0.1835(15) 0.0119(19) -0.0754(11)
C23 C 0.1836(18) -0.094(3) -0.1288(17)
H19 H 0.1711 -0.1318 -0.1581
C24 C 0.2344(14) -0.106(2) -0.0846(13)
H20 H 0.2617 -0.1499 -0.0782
C25 C -0.1329(13) -0.106(2) -0.2022(16)
H21 H -0.1292 -0.0798 -0.2303
C26 C -0.0946(15) -0.102(2) -0.1493(14)
H22 H -0.0617 -0.0689 -0.1361
C27 C -0.1628(12) -0.1853(19) -0.1562(13)
C28 C -0.2030(10) -0.2457(19) -0.1418(9)
C29 C -0.2741(12) -0.315(2) -0.1520(14)
H23 H -0.3096 -0.3395 -0.1667
C30 C -0.2386(11) -0.3256(18) -0.1035(10)
H24 H -0.2447 -0.3579 -0.0783
C31 C -0.4306(8) -0.3210(17) -0.3697(8)
H25 H -0.4660 -0.3458 -0.3824
C32 C -0.3947(8) -0.3124(16) -0.3189(8)
H26 H -0.4010 -0.3304 -0.2905
N9 N -0.3480(8) -0.2733(13) -0.3165(8)
C33 C -0.3551(8) -0.2576(14) -0.3658(8)
N10 N -0.4061(8) -0.2871(16) -0.3986(7)
H27 H -0.4205 -0.2847 -0.4322
C34 C -0.3206(7) -0.2076(14) -0.3783(7)
N11 N -0.2702(8) -0.1767(14) -0.3393(7)
C35 C -0.2404(9) -0.1352(16) -0.3637(8)
H28 H -0.2055 -0.1087 -0.3469
C36 C -0.2723(10) -0.1405(19) -0.4177(8)
H29 H -0.2624 -0.1182 -0.4431
N12 N -0.3219(8) -0.1853(17) -0.4268(7)
H30 H -0.3484 -0.1970 -0.4568
N13 N -0.3775(16) -0.627(3) -0.4018(15)
H31 H -0.4006 -0.6420 -0.4328
N14 N -0.3133(10) -0.629(2) -0.3187(13)
N15 N -0.2069(10) -0.8127(16) -0.1790(9)
N16 N -0.1472(18) -0.825(3) -0.0952(18)
H32 H -0.1233 -0.8121 -0.0641
N17 N -0.0154(13) 0.0000(16) -0.3254(13)
H33 H -0.0472 0.0084 -0.3512
N18 N 0.0451(11) -0.0042(16) -0.2446(11)
N19 N 0.2332(9) -0.0349(17) -0.0525(10)
H34 H 0.2597 -0.0220 -0.0227
N20 N 0.1542(11) -0.0194(18) -0.1234(10)
N21 N -0.1915(10) -0.2815(17) -0.0960(10)
H35 H -0.1612 -0.2778 -0.0679
N22 N -0.2514(9) -0.2617(18) -0.1797(8)
N23 N -0.1143(11) -0.1551(18) -0.1193(12)
H36 H -0.0992 -0.1654 -0.0863
N24 N -0.1779(9) -0.1588(16) -0.2042(7)
O23_2 O 0.0893(7) 0.1912(11) -0.1946(7)
O36B O -0.3344(6) -0.7269(10) -0.2259(6)
O37B O -0.3047(6) -0.0891(11) -0.2444(6)
Cd1B Cd 0.24288(9) -0.21604(16) -0.24730(9)
Cd2_2 Cd 0.06752(10) -0.96206(17) -0.16308(11)
Cd3B Cd 0.23731(9) -0.71807(14) -0.25967(7)
O63 O 0.3131(13) 0.439(2) 0.5138(12)
O64 O 0.4391(17) 0.296(3) 0.4969(16)
loop_
_geom_bond_atom_site_label_1
_geom_bond_atom_site_label_2
_geom_bond_site_symmetry_1
_geom_bond_site_symmetry_2
P1 O5 1_555 1_555
P2 O1 1_555 1_555
W1 O6 1_555 1_555
W2 O4 1_555 1_555
W3 O6 1_555 1_555
W4 O3 1_555 1_555
W5 O3 1_555 1_555
W6 O4 1_555 1_555
W7 O2 1_555 1_555
W8 O6 1_555 1_555
W9 O7 1_555 1_555
W10 O8 1_555 1_555
W11 O3 1_555 1_555
W12 O1 1_555 1_555
W13 O7 1_555 1_555
W14 O5 1_555 1_555
W15 O5 1_555 1_555
W16 O2 1_555 1_555
W17 O1 1_555 1_555
W18 O8 1_555 1_555
O2 P2 1_555 1_555
O3 P2 1_555 1_555
O4 P2 1_555 1_555
O6 P1 1_555 1_555
O7 P1 1_555 1_555
O8 P1 1_555 1_555
O9 W2 1_555 1_555
O10 W13 1_555 1_555
O11 W3 1_555 1_555
O12 W9 1_555 1_555
O13 W5 1_555 1_555
O14 W5 1_555 1_555
O15 W15 1_555 1_555
O16 W1 1_555 1_555
O17 W5 1_555 1_555
O18 W1 1_555 1_555
O19 W12 1_555 1_555
O20 W5 1_555 1_555
O21 W11 1_555 1_555
O22 W7 1_555 1_555
O23 W15 1_555 1_555
O24 W4 1_555 1_555
O25 W9 1_555 1_555
O26 W3 1_555 1_555
O27 W17 1_555 1_555
O28 W12 1_555 1_555
O29 W16 1_555 1_555
O30 W14 1_555 1_555
O31 W7 1_555 1_555
O32 W14 1_555 1_555
O33 W6 1_555 1_555
O34 W3 1_555 1_555
O35 W16 1_555 1_555
O36 W18 1_555 1_555
O37 W10 1_555 1_555
O38 W11 1_555 1_555
O39 W7 1_555 1_555
O40 W10 1_555 1_555
O41 W6 1_555 1_555
O42 W7 1_555 1_555
O43 W9 1_555 1_555
O44 W1 1_555 1_555
O45 W8 1_555 1_555
O46 W2 1_555 1_555
O47 W2 1_555 1_555
O48 W13 1_555 1_555
O49 W1 1_555 1_555
O50 W4 1_555 1_555
O51 W1 1_555 1_555
O52 W2 1_555 1_555
O53 W4 1_555 1_555
O54 W4 1_555 1_555
O55 W2 1_555 1_555
O56 W4 1_555 1_555
O57 W12 1_555 1_555
O58 W6 1_555 1_555
O59 W8 1_555 1_555
O60 W10 1_555 1_555
O61 W8 1_555 1_555
O62 W3 1_555 1_555
Cd1 O19 1_555 1_555
Cd2 O10 1_555 1_555
Cd3 O9 1_555 1_555
N1 H1 1_555 1_555
C1 N1 1_555 1_555
H2 C1 1_555 1_555
C2 C1 1_555 1_555
H3 C2 1_555 1_555
N2 Cd1 1_555 1_555
C3 N1 1_555 1_555
C4 C3 1_555 1_555
C5 H4 1_555 1_555
C6 C5 1_555 1_555
H5 C6 1_555 1_555
C7 H6 1_555 1_555
C8 C7 1_555 1_555
H7 C8 1_555 1_555
C9 C10 1_555 1_555
N3 H8 1_555 1_555
C10 N3 1_555 1_555
N4 Cd1 1_555 1_555
C11 N4 1_555 1_555
H9 C11 1_555 1_555
C12 N3 1_555 1_555
H10 C12 1_555 1_555
C13 H11 1_555 1_555
C14 C13 1_555 1_555
H12 C14 1_555 1_555
N5 Cd2 1_555 1_555
C15 N5 1_555 1_555
N6 C13 1_555 1_555
H13 N6 1_555 1_555
C16 C15 1_555 1_555
C17 H14 1_555 1_555
C18 C17 1_555 1_555
H15 C18 1_555 1_555
C19 H16 1_555 1_555
C20 C19 1_555 1_555
H17 C20 1_555 1_555
N7 C20 1_555 1_555
H18 N7 1_555 1_555
C21 N7 1_555 1_555
N8 Cd2 1_555 1_555
C22 C21 1_555 1_555
C23 H19 1_555 1_555
C24 C23 1_555 1_555
H20 C24 1_555 1_555
C25 H21 1_555 1_555
C26 C25 1_555 1_555
H22 C26 1_555 1_555
C27 C28 1_555 1_555
C28 N21 1_555 1_555
C29 H23 1_555 1_555
C30 C29 1_555 1_555
H24 C30 1_555 1_555
C31 H25 1_555 1_555
C32 C31 1_555 1_555
H26 C32 1_555 1_555
N9 Cd3 1_555 1_555
C33 N9 1_555 1_555
N10 C31 1_555 1_555
H27 N10 1_555 1_555
C34 C33 1_555 1_555
N11 Cd3 1_555 1_555
C35 N11 1_555 1_555
H28 C35 1_555 1_555
C36 C35 1_555 1_555
H29 C36 1_555 1_555
N12 C34 1_555 1_555
H30 N12 1_555 1_555
N13 C4 1_555 1_555
H31 N13 1_555 1_555
N14 Cd1 1_555 1_555
N15 Cd1 1_555 1_555
N16 C8 1_555 1_555
H32 N16 1_555 1_555
N17 C16 1_555 1_555
H33 N17 1_555 1_555
N18 Cd2 1_555 1_555
N19 C22 1_555 1_555
H34 N19 1_555 1_555
N20 Cd2 1_555 1_555
N21 C30 1_555 1_555
H35 N21 1_555 1_555
N22 Cd3 1_555 1_555
N23 C26 1_555 1_555
H36 N23 1_555 1_555
N24 Cd3 1_555 1_555
O23_2 Cd2 1_555 1_555
O36B Cd1 1_555 1_555
O37B Cd3 1_555 1_555
Cd1B O36 1_555 1_555
Cd2_2 O23 1_555 1_555
Cd3B O37 1_555 1_555
W3 O16 1_555 1_555
W5 O56 1_555 1_555
W6 O14 1_555 1_555
W6 O52 1_555 1_555
W7 O53 1_555 1_555
W8 O11 1_555 1_555
W8 O49 1_555 1_555
W9 O55 1_555 1_555
W9 O61 1_555 1_555
W10 O42 1_555 1_555
W10 O44 1_555 1_555
W11 O17 1_555 1_555
W11 O47 1_555 1_555
W11 O50 1_555 1_555
W12 O38 1_555 1_555
W12 O46 1_555 1_555
W13 O12 1_555 1_555
W13 O58 1_555 1_555
W13 O62 1_555 1_555
W14 O25 1_555 1_555
W14 O57 1_555 1_555
W14 O59 1_555 1_555
W15 O32 1_555 1_555
W15 O40 1_555 1_555
W15 O51 1_555 1_555
W16 O13 1_555 1_555
W16 O39 1_555 1_555
W16 O41 1_555 1_555
W17 O15 1_555 1_555
W17 O28 1_555 1_555
W17 O31 1_555 1_555
W17 O54 1_555 1_555
W18 O26 1_555 1_555
W18 O35 1_555 1_555
W18 O48 1_555 1_555
W18 O60 1_555 1_555
C2 N2 1_555 1_555
N2 C3 1_555 1_555
C4 N14 1_555 1_555
C5 N13 1_555 1_555
C6 N14 1_555 1_555
C7 N15 1_555 1_555
C9 N15 1_555 1_555
C9 N16 1_555 1_555
C10 N4 1_555 1_555
C11 C12 1_555 1_555
C14 N5 1_555 1_555
C15 N6 1_555 1_555
C16 N18 1_555 1_555
C17 N17 1_555 1_555
C18 N18 1_555 1_555
C19 N8 1_555 1_555
C21 N8 1_555 1_555
C22 N20 1_555 1_555
C23 N20 1_555 1_555
C24 N19 1_555 1_555
C25 N24 1_555 1_555
C27 N23 1_555 1_555
C27 N24 1_555 1_555
C28 N22 1_555 1_555
C29 N22 1_555 1_555
C32 N9 1_555 1_555
C33 N10 1_555 1_555
C34 N11 1_555 1_555
C36 N12 1_555 1_555

#END
