
#######################################################################
#
#                 Cambridge Crystallographic Data Centre
#                                CCDC 
#
#######################################################################
#
# If this CIF has been generated from an entry in the Cambridge 
# Structural Database, then it will include bibliographic, chemical, 
# crystal, experimental, refinement or atomic coordinate data resulting 
# from the CCDC's data processing and validation procedures.
#
#######################################################################

data_DOJYUY
_symmetry_cell_setting           monoclinic
_symmetry_space_group_name_H-M   'P 21/c'
_symmetry_Int_Tables_number      14
_space_group_name_Hall           '-P 2ybc'
loop_
_symmetry_equiv_pos_site_id
_symmetry_equiv_pos_as_xyz
1 x,y,z
2 -x,1/2+y,1/2-z
3 -x,-y,-z
4 x,1/2-y,1/2+z
_cell_length_a                   11.445(3)
_cell_length_b                   18.689(5)
_cell_length_c                   11.538(3)
_cell_angle_alpha                90
_cell_angle_beta                 111.085(4)
_cell_angle_gamma                90
_cell_volume                     2302.69
loop_
_atom_site_label
_atom_site_type_symbol
_atom_site_fract_x
_atom_site_fract_y
_atom_site_fract_z
Co1 Co 0.58444(2) 0.629421(13) 0.56856(2)
O1 O 0.45157(12) 0.59740(7) 0.62765(13)
N1 N 0.52849(16) 0.62477(8) 0.38371(14)
O2 O 0.39786(14) 0.70277(7) 0.54358(13)
N2 N 0.49223(15) 0.58726(8) 0.19445(14)
C1 C 0.37651(18) 0.65047(10) 0.59793(17)
O3 O 0.01345(13) 0.76450(7) 0.64424(15)
C2 C 0.53577(17) 0.57018(10) 0.31540(17)
H1 H 0.5671 0.5254 0.3467
C3 C 0.49311(17) 0.54264(10) 0.09440(16)
C4 C 0.04745(19) 0.64254(10) 0.6864(2)
H2 H -0.0251 0.6411 0.7050
C5 C 0.4549(2) 0.65720(11) 0.18603(19)
H3 H 0.4208 0.6840 0.1137
C6 C 0.11656(19) 0.58131(10) 0.6926(2)
C7 C 0.26199(17) 0.64679(10) 0.63043(17)
C8 C 0.08701(17) 0.70526(9) 0.65256(18)
O4 O 0.07135(17) 0.52127(8) 0.7299(2)
C9 C 0.19347(18) 0.70823(10) 0.62328(18)
H4 H 0.2187 0.7512 0.5990
C10 C 0.49724(19) 0.46962(10) 0.10740(17)
H5 H 0.4951 0.4490 0.1800
C11 C 0.22459(18) 0.58271(10) 0.66574(19)
H6 H 0.2714 0.5413 0.6713
C12 C 0.07511(17) 0.82975(9) 0.6710(2)
C13 C 0.1294(2) 0.45528(11) 0.7368(3)
C14 C 0.49548(19) 0.57316(10) -0.01300(18)
H7 H 0.4922 0.6227 -0.0220
C15 C 0.4770(2) 0.67947(11) 0.30208(19)
H8 H 0.4600 0.7251 0.3241
C16 C 0.0647(2) 0.87673(11) 0.5770(2)
H9 H 0.0207 0.8642 0.4947
C17 C 0.1207(2) 0.41821(12) 0.6321(3)
H10 H 0.0850 0.4394 0.5544
C18 C 0.1408(2) 0.84713(11) 0.7918(2)
H11 H 0.1484 0.8144 0.8548
C19 C 0.1203(2) 0.94270(11) 0.6060(2)
H12 H 0.1136 0.9750 0.5427
C20 C 0.18574(17) 0.96179(10) 0.72739(19)
C21 C 0.1953(2) 0.91325(11) 0.8196(2)
H13 H 0.2393 0.9254 0.9021
C22 C 0.24266(19) 1.03390(10) 0.7598(2)
O5 O 0.29655(14) 1.04890(8) 0.87205(14)
O6 O 0.23442(18) 1.07589(8) 0.67252(15)
C23 C 0.1848(2) 0.42596(11) 0.8511(2)
H14 H 0.1931 0.4525 0.9217
C24 C 0.1651(2) 0.34916(12) 0.6425(2)
H15 H 0.1591 0.3235 0.5715
C25 C 0.21861(18) 0.31799(10) 0.75800(19)
C26 C 0.2287(2) 0.35692(11) 0.8622(2)
H16 H 0.2654 0.3365 0.9405
C27 C 0.26206(19) 0.24291(10) 0.77222(19)
O7 O 0.31844(14) 0.21881(7) 0.87664(13)
O8 O 0.2368(2) 0.20665(8) 0.67271(15)
H17 H 0.2497 0.1641 0.6900
N1B N 0.47151(16) 0.37523(8) -0.38371(14)
N2B N 0.50777(15) 0.41274(8) -0.19445(14)
C2B C 0.46423(17) 0.42982(10) -0.31540(17)
H1B H 0.4329 0.4746 -0.3467
C3B C 0.50689(17) 0.45736(10) -0.09440(16)
C5B C 0.5451(2) 0.34280(11) -0.18603(19)
H3B H 0.5792 0.3160 -0.1137
C10B C 0.50276(19) 0.53038(10) -0.10740(17)
H5B H 0.5049 0.5510 -0.1800
C14B C 0.50452(19) 0.42684(10) 0.01300(18)
H7B H 0.5078 0.3773 0.0220
C15B C 0.5230(2) 0.32053(11) -0.30208(19)
H8B H 0.5400 0.2749 -0.3241
Co1B Co 0.41556(2) 0.370579(13) -0.56856(2)
O1B O 0.54843(12) 0.40260(7) -0.62765(13)
O2B O 0.60214(14) 0.29723(7) -0.54358(13)
C1B C 0.62349(18) 0.34953(10) -0.59793(17)
O3B O 0.98655(13) 0.23550(7) -0.64424(15)
C4B C 0.95255(19) 0.35746(10) -0.6864(2)
H2B H 1.0251 0.3589 -0.7050
C6B C 0.88344(19) 0.41869(10) -0.6926(2)
C7B C 0.73801(17) 0.35321(10) -0.63043(17)
C8B C 0.91299(17) 0.29474(9) -0.65256(18)
O4B O 0.92865(17) 0.47873(8) -0.7299(2)
C9B C 0.80653(18) 0.29177(10) -0.62328(18)
H4B H 0.7813 0.2488 -0.5990
C11B C 0.77541(18) 0.41729(10) -0.66574(19)
H6B H 0.7286 0.4587 -0.6713
C12B C 0.92489(17) 0.17025(9) -0.6710(2)
C13B C 0.8706(2) 0.54472(11) -0.7368(3)
C16B C 0.9353(2) 0.12327(11) -0.5770(2)
H9B H 0.9793 0.1358 -0.4947
C17B C 0.8793(2) 0.58179(12) -0.6321(3)
H10B H 0.9150 0.5606 -0.5544
C18B C 0.8592(2) 0.15287(11) -0.7918(2)
H11B H 0.8516 0.1856 -0.8548
C19B C 0.8797(2) 0.05730(11) -0.6060(2)
H12B H 0.8864 0.0250 -0.5427
C20B C 0.81426(17) 0.03821(10) -0.72739(19)
C21B C 0.8047(2) 0.08675(11) -0.8196(2)
H13B H 0.7607 0.0746 -0.9021
C22B C 0.75734(19) -0.03390(10) -0.7598(2)
O5B O 0.70345(14) -0.04890(8) -0.87205(14)
O6B O 0.76558(18) -0.07589(8) -0.67252(15)
C23B C 0.8152(2) 0.57404(11) -0.8511(2)
H14B H 0.8069 0.5475 -0.9217
C24B C 0.8349(2) 0.65084(12) -0.6425(2)
H15B H 0.8409 0.6765 -0.5715
C25B C 0.78139(18) 0.68201(10) -0.75800(19)
C26B C 0.7713(2) 0.64308(11) -0.8622(2)
H16B H 0.7346 0.6635 -0.9405
C27B C 0.73794(19) 0.75709(10) -0.77222(19)
O7B O 0.68156(14) 0.78119(7) -0.87664(13)
O8B O 0.7632(2) 0.79335(8) -0.67271(15)
H17B H 0.7503 0.8359 -0.6900
Co1A Co 0.41556(2) 0.129421(13) 0.93144(2)
Co1A_2 Co 0.41556(2) 1.129421(13) 0.93144(2)
Co1C Co 0.58444(2) -0.129421(13) -0.93144(2)
Co1C_2 Co 0.58444(2) 0.870579(13) -0.93144(2)
O5A O 0.70345(14) 0.54890(8) 0.62795(14)
O5C O 0.29655(14) 0.45110(8) -0.62795(14)
O7A O 0.68156(14) 0.71881(7) 0.62336(13)
O7C O 0.31844(14) 0.28119(7) -0.62336(13)
loop_
_geom_bond_atom_site_label_1
_geom_bond_atom_site_label_2
_geom_bond_site_symmetry_1
_geom_bond_site_symmetry_2
Co1 O1 1_555 1_555
O1 C1 1_555 1_555
N1 Co1 1_555 1_555
O2 C1 1_555 1_555
N2 C2 1_555 1_555
C1 C7 1_555 1_555
O3 C8 1_555 1_555
C2 N1 1_555 1_555
H1 C2 1_555 1_555
C3 N2 1_555 1_555
C4 H2 1_555 1_555
C5 N2 1_555 1_555
H3 C5 1_555 1_555
C6 C4 1_555 1_555
C7 C9 1_555 1_555
C8 C4 1_555 1_555
O4 C6 1_555 1_555
C9 C8 1_555 1_555
H4 C9 1_555 1_555
C10 C3 1_555 1_555
H5 C10 1_555 1_555
C11 C6 1_555 1_555
H6 C11 1_555 1_555
C12 O3 1_555 1_555
C13 O4 1_555 1_555
C14 C3 1_555 1_555
H7 C14 1_555 1_555
C15 N1 1_555 1_555
H8 C15 1_555 1_555
C16 C12 1_555 1_555
H9 C16 1_555 1_555
C17 C13 1_555 1_555
H10 C17 1_555 1_555
C18 C12 1_555 1_555
H11 C18 1_555 1_555
C19 C16 1_555 1_555
H12 C19 1_555 1_555
C20 C19 1_555 1_555
C21 C18 1_555 1_555
H13 C21 1_555 1_555
C22 C20 1_555 1_555
O5 C22 1_555 1_555
O6 C22 1_555 1_555
C23 C13 1_555 1_555
H14 C23 1_555 1_555
C24 C17 1_555 1_555
H15 C24 1_555 1_555
C25 C24 1_555 1_555
C26 C23 1_555 1_555
H16 C26 1_555 1_555
C27 C25 1_555 1_555
O7 C27 1_555 1_555
O8 C27 1_555 1_555
H17 O8 1_555 1_555
N1B C2B 1_555 1_555
N2B C2B 1_555 1_555
C2B H1B 1_555 1_555
C3B N2B 1_555 1_555
C5B N2B 1_555 1_555
H3B C5B 1_555 1_555
C10B C14 1_555 1_555
H5B C10B 1_555 1_555
C14B C10 1_555 1_555
H7B C14B 1_555 1_555
C15B N1B 1_555 1_555
H8B C15B 1_555 1_555
Co1B N1B 1_555 1_555
O1B Co1B 1_555 1_555
O2B C1B 1_555 1_555
C1B O1B 1_555 1_555
O3B C8B 1_555 1_555
C4B H2B 1_555 1_555
C6B C4B 1_555 1_555
C7B C1B 1_555 1_555
C8B C4B 1_555 1_555
O4B C6B 1_555 1_555
C9B C7B 1_555 1_555
H4B C9B 1_555 1_555
C11B C6B 1_555 1_555
H6B C11B 1_555 1_555
C12B O3B 1_555 1_555
C13B O4B 1_555 1_555
C16B C12B 1_555 1_555
H9B C16B 1_555 1_555
C17B C13B 1_555 1_555
H10B C17B 1_555 1_555
C18B C12B 1_555 1_555
H11B C18B 1_555 1_555
C19B C16B 1_555 1_555
H12B C19B 1_555 1_555
C20B C19B 1_555 1_555
C21B C18B 1_555 1_555
H13B C21B 1_555 1_555
C22B C20B 1_555 1_555
O5B C22B 1_555 1_555
O6B C22B 1_555 1_555
C23B C13B 1_555 1_555
H14B C23B 1_555 1_555
C24B C17B 1_555 1_555
H15B C24B 1_555 1_555
C25B C24B 1_555 1_555
C26B C23B 1_555 1_555
H16B C26B 1_555 1_555
C27B C25B 1_555 1_555
O7B C27B 1_555 1_555
O8B C27B 1_555 1_555
H17B O8B 1_555 1_555
Co1A O7 1_555 1_555
Co1A_2 O5 1_555 1_555
Co1C O5B 1_555 1_555
Co1C_2 O7B 1_555 1_555
O5A Co1 1_555 1_555
O5C Co1B 1_555 1_555
O7A Co1 1_555 1_555
O7C Co1B 1_555 1_555
C5 C15 1_555 1_555
C7 C11 1_555 1_555
C20 C21 1_555 1_555
C25 C26 1_555 1_555
C3B C10B 1_555 1_555
C3B C14B 1_555 1_555
C5B C15B 1_555 1_555
C7B C11B 1_555 1_555
C8B C9B 1_555 1_555
C20B C21B 1_555 1_555
C25B C26B 1_555 1_555

#END
