
#######################################################################
#
#                 Cambridge Crystallographic Data Centre
#                                CCDC 
#
#######################################################################
#
# If this CIF has been generated from an entry in the Cambridge 
# Structural Database, then it will include bibliographic, chemical, 
# crystal, experimental, refinement or atomic coordinate data resulting 
# from the CCDC's data processing and validation procedures.
#
#######################################################################

data_DOJYIM
_symmetry_cell_setting           monoclinic
_symmetry_space_group_name_H-M   'P 21/n'
_symmetry_Int_Tables_number      14
_space_group_name_Hall           '-P 2yn'
loop_
_symmetry_equiv_pos_site_id
_symmetry_equiv_pos_as_xyz
1 x,y,z
2 1/2-x,1/2+y,1/2-z
3 -x,-y,-z
4 1/2+x,1/2-y,1/2+z
_cell_length_a                   16.899(3)
_cell_length_b                   11.245(2)
_cell_length_c                   18.736(4)
_cell_angle_alpha                90
_cell_angle_beta                 115.504(3)
_cell_angle_gamma                90
_cell_volume                     3213.45
loop_
_atom_site_label
_atom_site_type_symbol
_atom_site_fract_x
_atom_site_fract_y
_atom_site_fract_z
Mn1 Mn 0.61933(3) 0.69491(4) 0.18318(2)
Mn2 Mn 0.5000 0.5000 0.0000
C1 C 0.5411(2) 0.5288(3) 0.27150(18)
C2 C 0.48051(19) 0.5157(3) 0.31130(17)
C3 C 0.4685(2) 0.4053(3) 0.33740(19)
H1 H 0.5002 0.3401 0.3334
C4 C 0.4089(2) 0.3926(3) 0.3696(2)
C5 C 0.3597(2) 0.4875(3) 0.3745(2)
H2 H 0.3184 0.4778 0.3945
C6 C 0.3737(2) 0.5973(3) 0.3490(2)
C7 C 0.4339(2) 0.6129(3) 0.31781(19)
H3 H 0.4429 0.6877 0.3015
C8 C 0.3425(3) 0.2540(3) 0.4253(2)
C9 C 0.2652(3) 0.1984(3) 0.3799(2)
H4 H 0.2476 0.1880 0.3260
C10 C 0.2132(2) 0.1574(3) 0.4157(2)
H5 H 0.1603 0.1197 0.3854
C11 C 0.2400(2) 0.1726(3) 0.49647(18)
C12 C 0.3166(2) 0.2321(3) 0.5401(2)
H6 H 0.3338 0.2448 0.5938
C13 C 0.3688(3) 0.2735(3) 0.5052(3)
H7 H 0.4207 0.3138 0.5350
C14 C 0.18536(19) 0.1192(3) 0.53458(18)
C15 C 0.2797(2) 0.7122(3) 0.3919(2)
C16 C 0.3127(2) 0.6785(3) 0.4701(2)
H8 H 0.3660 0.6386 0.4938
C17 C 0.2654(2) 0.7048(3) 0.5130(2)
H9 H 0.2869 0.6817 0.5657
C18 C 0.18634(19) 0.7652(3) 0.47798(17)
C19 C 0.1552(2) 0.8004(3) 0.39940(19)
H10 H 0.1028 0.8423 0.3757
C20 C 0.2020(2) 0.7734(3) 0.3564(2)
H11 H 0.1809 0.7965 0.3038
C21 C 0.13354(19) 0.7927(3) 0.52381(18)
C22 C 0.8229(2) 0.7284(3) 0.2602(2)
H12 H 0.8166 0.7835 0.2211
C23 C 0.8983(2) 0.7025(3) 0.3225(2)
H13 H 0.9530 0.7358 0.3346
C24 C 0.79248(19) 0.5963(3) 0.32652(17)
H14 H 0.7622 0.5424 0.3432
C25 C 0.94059(18) 0.5577(2) 0.43416(16)
C26 C 0.9135(2) 0.5106(3) 0.48770(19)
H15 H 0.8554 0.5175 0.4793
C27 C 1.0264(2) 0.5471(3) 0.44596(18)
H16 H 1.0440 0.5788 0.4093
N1 N 0.75612(16) 0.6611(2) 0.26286(14)
N2 N 0.87935(16) 0.6171(2) 0.36523(14)
O1 O 0.56519(16) 0.63038(19) 0.26356(14)
O2 O 0.5604(2) 0.4364(2) 0.2467(2)
O3 O 0.3240(2) 0.6975(2) 0.34492(18)
O4 O 0.4006(2) 0.2787(2) 0.3922(2)
O5 O 0.16465(14) 0.7611(2) 0.59477(12)
O6 O 0.06166(14) 0.84333(19) 0.48699(13)
O7 O 0.22147(15) 0.0921(2) 0.60579(13)
O8 O 0.10484(13) 0.1031(2) 0.48974(13)
O9 O 0.64507(16) 0.8734(2) 0.23884(15)
O10 O 0.49098(16) 0.7685(2) 0.11325(15)
O11 O 0.59200(13) 0.50947(17) 0.13063(11)
H17 H 0.6843(16) 0.881(4) 0.2836(9)
H18 H 0.457(2) 0.720(3) 0.0825(17)
H19 H 0.6022(15) 0.916(3) 0.229(2)
H20 H 0.481(3) 0.785(4) 0.1512(16)
H21 H 0.6330(15) 0.478(3) 0.1254(19)
H22 H 0.581(2) 0.480(3) 0.1654(18)
H23 H 0.041(3) 0.908(2) 0.467(2)
C22B C 1.1771(2) 0.2716(3) 0.7398(2)
H12B H 1.1834 0.2165 0.7789
C23B C 1.1017(2) 0.2975(3) 0.6775(2)
H13B H 1.0470 0.2642 0.6654
C24B C 1.20752(19) 0.4037(3) 0.67348(17)
H14B H 1.2378 0.4576 0.6568
C25B C 1.05941(18) 0.4423(2) 0.56584(16)
C26B C 1.0865(2) 0.4894(3) 0.51230(19)
H15B H 1.1446 0.4825 0.5207
C27B C 0.9736(2) 0.4529(3) 0.55404(18)
H16B H 0.9560 0.4212 0.5907
N1B N 1.24388(16) 0.3389(2) 0.73714(14)
N2B N 1.12065(16) 0.3829(2) 0.63477(14)
Mn1B Mn 0.38067(3) 0.30509(4) -0.18318(2)
C1B C 0.4589(2) 0.4712(3) -0.27150(18)
C2B C 0.51949(19) 0.4843(3) -0.31130(17)
C3B C 0.5315(2) 0.5947(3) -0.33740(19)
H1B H 0.4998 0.6599 -0.3334
C4B C 0.5911(2) 0.6074(3) -0.3696(2)
C5B C 0.6403(2) 0.5125(3) -0.3745(2)
H2B H 0.6816 0.5222 -0.3945
C6B C 0.6263(2) 0.4027(3) -0.3490(2)
C7B C 0.5661(2) 0.3871(3) -0.31781(19)
H3B H 0.5571 0.3123 -0.3015
C8B C 0.6575(3) 0.7460(3) -0.4253(2)
C9B C 0.7348(3) 0.8016(3) -0.3799(2)
H4B H 0.7524 0.8120 -0.3260
C10B C 0.7868(2) 0.8426(3) -0.4157(2)
H5B H 0.8397 0.8803 -0.3854
C11B C 0.7600(2) 0.8274(3) -0.49647(18)
C12B C 0.6834(2) 0.7679(3) -0.5401(2)
H6B H 0.6662 0.7552 -0.5938
C13B C 0.6312(3) 0.7265(3) -0.5052(3)
H7B H 0.5793 0.6862 -0.5350
C14B C 0.81464(19) 0.8808(3) -0.53458(18)
C15B C 0.7203(2) 0.2878(3) -0.3919(2)
C16B C 0.6873(2) 0.3215(3) -0.4701(2)
H8B H 0.6340 0.3614 -0.4938
C17B C 0.7346(2) 0.2952(3) -0.5130(2)
H9B H 0.7131 0.3183 -0.5657
C18B C 0.81366(19) 0.2348(3) -0.47798(17)
C19B C 0.8448(2) 0.1996(3) -0.39940(19)
H10B H 0.8972 0.1577 -0.3757
C20B C 0.7980(2) 0.2266(3) -0.3564(2)
H11B H 0.8191 0.2035 -0.3038
C21B C 0.86646(19) 0.2073(3) -0.52381(18)
O1B O 0.43481(16) 0.36962(19) -0.26356(14)
O2B O 0.4396(2) 0.5636(2) -0.2467(2)
O3B O 0.6760(2) 0.3025(2) -0.34492(18)
O4B O 0.5994(2) 0.7213(2) -0.3922(2)
O5B O 0.83535(14) 0.2389(2) -0.59477(12)
O6B O 0.93834(14) 0.15667(19) -0.48699(13)
O7B O 0.77853(15) 0.9079(2) -0.60579(13)
O8B O 0.89516(13) 0.8969(2) -0.48974(13)
O9B O 0.35493(16) 0.1266(2) -0.23884(15)
O10B O 0.50902(16) 0.2315(2) -0.11325(15)
O11B O 0.40800(13) 0.49053(17) -0.13063(11)
H17B H 0.3157(16) 0.119(4) -0.2836(9)
H18B H 0.543(2) 0.280(3) -0.0825(17)
H19B H 0.3978(15) 0.084(3) -0.229(2)
H20B H 0.519(3) 0.215(4) -0.1512(16)
H21B H 0.3670(15) 0.522(3) -0.1254(19)
H22B H 0.419(2) 0.520(3) -0.1654(18)
H23B H 0.959(3) 0.092(2) -0.467(2)
Mn1A Mn 0.88067(3) 0.19491(4) -0.68318(2)
Mn1B_2 Mn 1.38067(3) 0.30509(4) 0.81682(2)
Mn1C Mn 0.11933(3) 0.80509(4) 0.68318(2)
Mn2A Mn 0.0000 0.0000 0.5000
Mn2A_2 Mn 0.0000 1.0000 0.5000
Mn2A_3 Mn 1.0000 0.0000 -0.5000
Mn2A_4 Mn 1.0000 1.0000 -0.5000
N1B_2 N 0.24388(16) 0.3389(2) -0.26286(14)
O5A O 0.33535(14) 0.2611(2) -0.09477(12)
O5C O 0.66465(14) 0.7389(2) 0.09477(12)
O6A O 0.43834(14) 0.34333(19) 0.01301(13)
O6C O 0.56166(14) 0.65667(19) -0.01301(13)
O8A O 0.39516(13) 0.6031(2) 0.01026(13)
O8C O 0.60484(13) 0.3969(2) -0.01026(13)
C28 C 0.4813(5) 0.9567(8) 0.2330(4)
H24 H 0.5104 0.9430 0.2015
C29 C 0.5144(6) 0.9624(10) 0.3071(5)
H25 H 0.5738 0.9487 0.3377
C30 C 0.3867(5) 0.9910(8) 0.2772(4)
H26 H 0.3327 1.0030 0.2781
C31 C 0.4810(3) 0.9952(3) 0.4208(3)
C32 C 0.4196(3) 0.9606(4) 0.4459(3)
H27 H 0.3648 0.9345 0.4095
C33 C 0.4392(3) 0.9645(4) 0.5256(3)
H28 H 0.3977 0.9396 0.5427
N3 N 0.4620(3) 0.9883(3) 0.3393(3)
N4 N 0.3995(5) 0.9734(6) 0.2102(4)
C28B C 0.5187(5) 1.0433(8) 0.7670(4)
H24B H 0.4896 1.0570 0.7985
C29B C 0.4856(6) 1.0376(10) 0.6929(5)
H25B H 0.4262 1.0513 0.6623
C30B C 0.6133(5) 1.0090(8) 0.7228(4)
H26B H 0.6673 0.9970 0.7219
C31B C 0.5190(3) 1.0048(3) 0.5792(3)
C32B C 0.5804(3) 1.0394(4) 0.5541(3)
H27B H 0.6352 1.0655 0.5905
C33B C 0.5608(3) 1.0355(4) 0.4744(3)
H28B H 0.6023 1.0604 0.4573
N3B N 0.5380(3) 1.0117(3) 0.6607(3)
N4B N 0.6005(5) 1.0266(6) 0.7898(4)
loop_
_geom_bond_atom_site_label_1
_geom_bond_atom_site_label_2
_geom_bond_site_symmetry_1
_geom_bond_site_symmetry_2
Mn1 N1 1_555 1_555
Mn2 O11 1_555 1_555
C1 C2 1_555 1_555
C2 C3 1_555 1_555
C3 H1 1_555 1_555
C4 C3 1_555 1_555
C5 C4 1_555 1_555
H2 C5 1_555 1_555
C6 C5 1_555 1_555
C7 C2 1_555 1_555
H3 C7 1_555 1_555
C8 C9 1_555 1_555
C9 H4 1_555 1_555
C10 C9 1_555 1_555
H5 C10 1_555 1_555
C11 C10 1_555 1_555
C12 C11 1_555 1_555
H6 C12 1_555 1_555
C13 C8 1_555 1_555
H7 C13 1_555 1_555
C14 C11 1_555 1_555
C15 C16 1_555 1_555
C16 H8 1_555 1_555
C17 C16 1_555 1_555
H9 C17 1_555 1_555
C18 C17 1_555 1_555
C19 C18 1_555 1_555
H10 C19 1_555 1_555
C20 C15 1_555 1_555
H11 C20 1_555 1_555
C21 C18 1_555 1_555
C22 H12 1_555 1_555
C23 C22 1_555 1_555
H13 C23 1_555 1_555
C24 H14 1_555 1_555
C25 C26 1_555 1_555
C26 H15 1_555 1_555
C27 C25 1_555 1_555
H16 C27 1_555 1_555
N1 C22 1_555 1_555
N2 C23 1_555 1_555
O1 Mn1 1_555 1_555
O2 C1 1_555 1_555
O3 C6 1_555 1_555
O4 C4 1_555 1_555
O5 C21 1_555 1_555
O6 C21 1_555 1_555
O7 C14 1_555 1_555
O8 C14 1_555 1_555
O9 Mn1 1_555 1_555
O10 Mn1 1_555 1_555
O11 Mn1 1_555 1_555
H17 O9 1_555 1_555
H18 O10 1_555 1_555
H19 O9 1_555 1_555
H20 O10 1_555 1_555
H21 O11 1_555 1_555
H22 O11 1_555 1_555
H23 O6 1_555 1_555
C28 H24 1_555 1_555
C29 C28 1_555 1_555
H25 C29 1_555 1_555
C30 H26 1_555 1_555
C31 C32 1_555 1_555
C32 H27 1_555 1_555
C33 C32 1_555 1_555
H28 C33 1_555 1_555
N3 C29 1_555 1_555
N4 C28 1_555 1_555
C22B H12B 1_555 1_555
C23B C22B 1_555 1_555
H13B C23B 1_555 1_555
C24B H14B 1_555 1_555
C25B C26B 1_555 1_555
C26B C27 1_555 1_555
H15B C26B 1_555 1_555
C27B C26 1_555 1_555
H16B C27B 1_555 1_555
N1B C22B 1_555 1_555
N2B C23B 1_555 1_555
Mn1B O1B 1_555 1_555
C1B C2B 1_555 1_555
C2B C3B 1_555 1_555
C3B H1B 1_555 1_555
C4B C3B 1_555 1_555
C5B C4B 1_555 1_555
H2B C5B 1_555 1_555
C6B C5B 1_555 1_555
C7B C2B 1_555 1_555
H3B C7B 1_555 1_555
C8B C9B 1_555 1_555
C9B H4B 1_555 1_555
C10B C9B 1_555 1_555
H5B C10B 1_555 1_555
C11B C10B 1_555 1_555
C12B C11B 1_555 1_555
H6B C12B 1_555 1_555
C13B C8B 1_555 1_555
H7B C13B 1_555 1_555
C14B C11B 1_555 1_555
C15B C16B 1_555 1_555
C16B H8B 1_555 1_555
C17B C16B 1_555 1_555
H9B C17B 1_555 1_555
C18B C17B 1_555 1_555
C19B C18B 1_555 1_555
H10B C19B 1_555 1_555
C20B C15B 1_555 1_555
H11B C20B 1_555 1_555
C21B C18B 1_555 1_555
O1B C1B 1_555 1_555
O2B C1B 1_555 1_555
O3B C6B 1_555 1_555
O4B C4B 1_555 1_555
O5B C21B 1_555 1_555
O6B C21B 1_555 1_555
O7B C14B 1_555 1_555
O8B C14B 1_555 1_555
O9B Mn1B 1_555 1_555
O10B Mn1B 1_555 1_555
O11B Mn2 1_555 1_555
H17B O9B 1_555 1_555
H18B O10B 1_555 1_555
H19B O9B 1_555 1_555
H20B O10B 1_555 1_555
H21B O11B 1_555 1_555
H22B O11B 1_555 1_555
H23B O6B 1_555 1_555
Mn1A O5B 1_555 1_555
Mn1B_2 N1B 1_555 1_555
Mn1C O5 1_555 1_555
Mn2A O8 1_555 1_555
Mn2A_2 O6 1_555 1_555
Mn2A_3 O6B 1_555 1_555
Mn2A_4 O8B 1_555 1_555
N1B_2 Mn1B 1_555 1_555
O5A Mn1B 1_555 1_555
O5C Mn1 1_555 1_555
O6A Mn2 1_555 1_555
O6C Mn2 1_555 1_555
O8A Mn2 1_555 1_555
O8C Mn2 1_555 1_555
C28B H24B 1_555 1_555
C29B C28B 1_555 1_555
H25B C29B 1_555 1_555
C30B H26B 1_555 1_555
C31B C33 1_555 1_555
C32B C31B 1_555 1_555
H27B C32B 1_555 1_555
C33B C31 1_555 1_555
H28B C33B 1_555 1_555
N3B C29B 1_555 1_555
N4B C28B 1_555 1_555
C1 O1 1_555 1_555
C6 C7 1_555 1_555
C8 O4 1_555 1_555
C12 C13 1_555 1_555
C15 O3 1_555 1_555
C19 C20 1_555 1_555
C24 N1 1_555 1_555
C24 N2 1_555 1_555
C25 N2 1_555 1_555
C30 N3 1_555 1_555
C30 N4 1_555 1_555
C31 N3 1_555 1_555
C24B N1B 1_555 1_555
C24B N2B 1_555 1_555
C25B C27B 1_555 1_555
C25B N2B 1_555 1_555
Mn1B O11B 1_555 1_555
C6B C7B 1_555 1_555
C8B O4B 1_555 1_555
C12B C13B 1_555 1_555
C15B O3B 1_555 1_555
C19B C20B 1_555 1_555
C30B N3B 1_555 1_555
C30B N4B 1_555 1_555
C31B N3B 1_555 1_555
C32B C33B 1_555 1_555

#END
