
#######################################################################
#
#                 Cambridge Crystallographic Data Centre
#                                CCDC 
#
#######################################################################
#
# If this CIF has been generated from an entry in the Cambridge 
# Structural Database, then it will include bibliographic, chemical, 
# crystal, experimental, refinement or atomic coordinate data resulting 
# from the CCDC's data processing and validation procedures.
#
#######################################################################

data_DOJZEJ
_symmetry_cell_setting           triclinic
_symmetry_space_group_name_H-M   'P -1'
_symmetry_Int_Tables_number      2
_space_group_name_Hall           '-P 1'
loop_
_symmetry_equiv_pos_site_id
_symmetry_equiv_pos_as_xyz
1 x,y,z
2 -x,-y,-z
_cell_length_a                   14.5871(9)
_cell_length_b                   16.6281(11)
_cell_length_c                   17.3904(11)
_cell_angle_alpha                63.1710(10)
_cell_angle_beta                 65.8790(10)
_cell_angle_gamma                86.1310(10)
_cell_volume                     3399.81
loop_
_atom_site_label
_atom_site_type_symbol
_atom_site_fract_x
_atom_site_fract_y
_atom_site_fract_z
C1 C 0.688(2) 0.4115(17) 0.405(2)
C2 C 0.7668(18) 0.3310(15) 0.3066(16)
H1 H 0.7304 0.2760 0.3588
C3 C 0.8291(15) 0.3347(13) 0.2195(16)
C4 C 0.8826(16) 0.4159(14) 0.1407(15)
H2 H 0.9220 0.4178 0.0821
C5 C 0.8763(17) 0.4943(13) 0.1506(15)
C6 C 0.8149(18) 0.4923(14) 0.2360(16)
H3 H 0.8101 0.5458 0.2414
C7 C 0.951(2) 0.6485(14) 0.0796(16)
C8 C 1.039(2) 0.6601(16) 0.084(2)
H4 H 1.0843 0.6179 0.0816
C9 C 1.063(2) 0.7360(17) 0.091(2)
H5 H 1.1235 0.7448 0.0929
C10 C 0.9949(16) 0.7981(14) 0.0940(14)
C11 C 0.9038(18) 0.7845(15) 0.0902(17)
H6 H 0.8578 0.8257 0.0929
C12 C 0.8820(19) 0.7095(16) 0.0825(18)
H7 H 0.8218 0.7004 0.0792
C13 C 1.0157(18) 0.8790(15) 0.1037(16)
C14 C 0.7598(19) 0.4107(15) 0.3146(16)
C15 C 0.9192(15) 0.2187(13) 0.1898(14)
C16 C 0.9189(15) 0.1488(13) 0.1675(14)
H8 H 0.8612 0.1305 0.1658
C17 C 1.0036(15) 0.1059(13) 0.1476(14)
H9 H 1.0022 0.0584 0.1336
C18 C 1.0908(14) 0.1334(13) 0.1484(13)
C19 C 1.0916(16) 0.2035(14) 0.1703(15)
H10 H 1.1501 0.2229 0.1699
C20 C 1.0056(17) 0.2453(14) 0.1927(16)
H11 H 1.0058 0.2910 0.2097
C21 C 1.1839(15) 0.0903(14) 0.1212(13)
C22 C 0.466(3) 0.4773(19) 0.706(2)
C23 C 0.429(2) 0.5053(17) 0.7839(19)
C24 C 0.4404(19) 0.5960(16) 0.7592(18)
H12 H 0.4692 0.6393 0.6954
C25 C 0.4088(19) 0.6226(15) 0.8289(17)
C26 C 0.366(2) 0.5593(15) 0.9253(17)
H13 H 0.3432 0.5782 0.9720
C27 C 0.357(2) 0.4691(17) 0.9492(19)
C28 C 0.389(2) 0.4396(18) 0.881(2)
H14 H 0.3835 0.3778 0.8981
C29 C 0.277(2) 0.4282(16) 1.1134(18)
C30 C 0.332(3) 0.444(2) 1.157(4)
H15 H 0.4011 0.4412 1.1337
C31 C 0.288(4) 0.462(2) 1.229(4)
H16 H 0.3268 0.4712 1.2566
C32 C 0.190(3) 0.4675(17) 1.2626(18)
C33 C 0.128(2) 0.4533(18) 1.2247(17)
H17 H 0.0593 0.4569 1.2498
C34 C 0.173(2) 0.4335(18) 1.1485(17)
H18 H 0.1337 0.4240 1.1215
C35 C 0.140(3) 0.485(3) 1.347(2)
C36 C 0.414(2) 0.7438(15) 0.8630(16)
C37 C 0.497(2) 0.7417(15) 0.8823(18)
H19 H 0.5500 0.7124 0.8600
C38 C 0.5020(18) 0.7831(15) 0.9349(17)
H20 H 0.5586 0.7824 0.9470
C39 C 0.4207(16) 0.8253(13) 0.9688(15)
C40 C 0.3351(17) 0.8195(15) 0.9545(16)
H21 H 0.2783 0.8429 0.9817
C41 C 0.3322(19) 0.7802(15) 0.9013(17)
H22 H 0.2746 0.7783 0.8912
C42 C 0.4298(16) 0.8838(14) 1.0108(14)
C43 C 1.3679(16) 0.0042(15) 0.2285(14)
H23 H 1.3630 0.0655 0.2111
C44 C 1.3734(19) -0.1251(16) 0.2302(16)
H24 H 1.3740 -0.1703 0.2125
C45 C 1.3841(19) -0.1372(16) 0.3078(16)
H25 H 1.3911 -0.1915 0.3536
C46 C 1.3865(15) -0.0304(15) 0.3744(14)
C47 C 1.3519(19) -0.0928(16) 0.4673(15)
H26 H 1.3299 -0.1529 0.4866
C48 C 1.349(2) -0.0673(16) 0.5328(15)
H27 H 1.3250 -0.1108 0.5965
C49 C 1.3822(16) 0.0212(14) 0.5076(14)
C50 C 1.421(2) 0.0821(17) 0.4111(14)
H28 H 1.4444 0.1421 0.3904
C51 C 1.425(2) 0.0560(17) 0.3456(15)
H29 H 1.4534 0.0975 0.2812
C52 C 1.3728(15) 0.0501(14) 0.5794(13)
C53 C 1.323(2) -0.0084(18) 0.6756(16)
H30 H 1.2973 -0.0673 0.6950
C54 C 1.311(2) 0.0172(18) 0.7436(17)
H31 H 1.2740 -0.0234 0.8076
C55 C 1.3514(16) 0.1015(14) 0.7184(14)
C56 C 1.402(2) 0.1615(15) 0.6234(16)
H32 H 1.4297 0.2196 0.6046
C57 C 1.411(2) 0.1351(15) 0.5551(15)
H33 H 1.4453 0.1767 0.4910
C58 C 1.3319(18) 0.0631(15) 0.8787(15)
H34 H 1.3172 0.0005 0.9036
C59 C 1.3627(19) 0.2075(14) 0.7820(16)
H35 H 1.3740 0.2636 0.7292
C60 C 1.3596(17) 0.1929(14) 0.8658(16)
H36 H 1.3686 0.2384 0.8803
C61 C 0.783(3) 0.6688(19) 0.365(2)
H37 H 0.7972 0.6515 0.3179
C62 C 0.835(2) 0.7382(18) 0.3555(19)
H38 H 0.8894 0.7784 0.3007
C63 C 0.713(2) 0.6709(15) 0.4979(18)
H39 H 0.6691 0.6577 0.5600
C64 C 0.8198(18) 0.8059(14) 0.4631(16)
C65 C 0.801(2) 0.7848(17) 0.5542(19)
H40 H 0.7749 0.7255 0.6026
C66 C 0.819(2) 0.8512(17) 0.5749(18)
H41 H 0.8041 0.8359 0.6377
C67 C 0.8599(17) 0.9398(15) 0.5051(15)
C68 C 0.8829(18) 0.9580(15) 0.4122(16)
H42 H 0.9128 1.0163 0.3630
C69 C 0.8633(17) 0.8931(15) 0.3907(16)
H43 H 0.8790 0.9076 0.3281
C70 C 0.8753(16) 1.0138(15) 0.5267(15)
C71 C 0.8668(19) 0.9966(16) 0.6150(16)
H44 H 0.8525 0.9364 0.6621
C72 C 0.8784(19) 1.0640(17) 0.6365(17)
H45 H 0.8735 1.0489 0.6966
C73 C 0.8973(16) 1.1540(16) 0.5692(16)
C74 C 0.906(3) 1.1739(17) 0.4798(18)
H46 H 0.9197 1.2342 0.4330
C75 C 0.894(2) 1.1050(17) 0.4602(18)
H47 H 0.8985 1.1200 0.4002
C76 C 0.9501(19) 1.3120(17) 0.5282(17)
H48 H 0.9744 1.3354 0.4627
C77 C 0.884(2) 1.218(2) 0.6799(18)
H49 H 0.8555 1.1660 0.7384
C78 C 0.909(2) 1.3011(19) 0.6652(17)
H50 H 0.8996 1.3164 0.7131
N1 N 0.706(2) 0.6265(14) 0.4559(16)
N2 N 0.7934(16) 0.7399(12) 0.4403(14)
N3 N 0.9099(15) 1.2241(13) 0.5903(13)
N4 N 0.9519(16) 1.3614(14) 0.5689(13)
N5 N 1.3616(13) -0.0360(12) 0.1807(12)
N6 N 1.3826(13) -0.0543(12) 0.3062(11)
N7 N 1.3459(13) 0.1237(12) 0.7895(11)
N8 N 1.3412(13) 0.1019(12) 0.9262(12)
Ni1 Ni 1.34610(19) 0.03193(17) 0.05638(17)
Ni2 Ni 0.0000 0.5000 1.5000
Ni3 Ni 0.6018(3) 0.5172(2) 0.5107(3)
O1 O 0.679(3) 0.4224(14) 0.5935(15)
O2 O 0.5099(16) 0.5938(10) 0.4335(12)
O3 O 0.6854(16) 0.4887(11) 0.4040(13)
O4 O 0.636(2) 0.3380(12) 0.4758(15)
O5 O 0.5198(18) 0.5392(13) 0.6232(15)
O6 O 0.440(2) 0.3992(14) 0.7264(16)
O7 O 0.9298(14) 0.5741(10) 0.0689(11)
O8 O 0.8301(10) 0.2544(9) 0.2120(11)
O9 O 1.1786(11) 0.0151(9) 0.1216(10)
O10 O 1.2685(11) 0.1304(10) 0.0987(11)
O11 O 0.9533(15) 0.9236(13) 0.1259(17)
O12 O 1.1112(15) 0.8947(14) 0.0865(17)
H51 H 1.1163 0.9295 0.1066
O13 O 0.4166(17) 0.7140(10) 0.7998(12)
O14 O 0.318(2) 0.4008(13) 1.0441(15)
O15 O 0.3531(11) 0.9184(10) 1.0409(11)
O16 O 0.5117(12) 0.8944(11) 1.0139(11)
O17 O 0.185(4) 0.482(2) 1.396(3)
O18 O 0.049(3) 0.498(2) 1.3738(19)
O19 O -0.122(3) 0.513(3) 1.465(2)
H52 H 0.466(11) 0.625(10) 0.450(9)
H53 H 0.683(11) 0.420(9) 0.641(6)
H54 H 0.724(16) 0.390(10) 0.573(10)
H55 H 0.504(14) 0.586(14) 0.389(9)
H56 H -0.126(5) 0.529(14) 1.404(8)
H57 H -0.191(7) 0.481(7) 1.499(9)
C1A C -0.688(2) 0.5885(17) 2.595(2)
C2A C -0.7668(18) 0.6690(15) 2.6934(16)
H1A H -0.7304 0.7240 2.6412
C3A C -0.8291(15) 0.6653(13) 2.7805(16)
C4A C -0.8826(16) 0.5841(14) 2.8593(15)
H2A H -0.9220 0.5822 2.9179
C5A C -0.8763(17) 0.5057(13) 2.8494(15)
C6A C -0.8149(18) 0.5077(14) 2.7640(16)
H3A H -0.8101 0.4542 2.7586
C7A C -0.951(2) 0.3515(14) 2.9204(16)
C8A C -1.039(2) 0.3399(16) 2.916(2)
H4A H -1.0843 0.3821 2.9184
C9A C -1.063(2) 0.2640(17) 2.909(2)
H5A H -1.1235 0.2552 2.9071
C10A C -0.9949(16) 0.2019(14) 2.9060(14)
C11A C -0.9038(18) 0.2155(15) 2.9098(17)
H6A H -0.8578 0.1743 2.9071
C12A C -0.8820(19) 0.2905(16) 2.9175(18)
H7A H -0.8218 0.2996 2.9208
C13A C -1.0157(18) 0.1210(15) 2.8963(16)
C14A C -0.7598(19) 0.5893(15) 2.6854(16)
C15A C -0.9192(15) 0.7813(13) 2.8102(14)
C16A C -0.9189(15) 0.8512(13) 2.8325(14)
H8A H -0.8612 0.8695 2.8342
C17A C -1.0036(15) 0.8941(13) 2.8524(14)
H9A H -1.0022 0.9416 2.8664
C18A C -1.0908(14) 0.8666(13) 2.8516(13)
C19A C -1.0916(16) 0.7965(14) 2.8297(15)
H10A H -1.1501 0.7771 2.8301
C20A C -1.0056(17) 0.7547(14) 2.8073(16)
H11A H -1.0058 0.7090 2.7903
C21A C -1.1839(15) 0.9097(14) 2.8788(13)
C22A C -0.466(3) 0.5227(19) 2.294(2)
C23A C -0.429(2) 0.4947(17) 2.2161(19)
C24A C -0.4404(19) 0.4040(16) 2.2408(18)
H12A H -0.4692 0.3607 2.3046
C25A C -0.4088(19) 0.3774(15) 2.1711(17)
C26A C -0.366(2) 0.4407(15) 2.0747(17)
H13A H -0.3432 0.4218 2.0280
C27A C -0.357(2) 0.5309(17) 2.0508(19)
C28A C -0.389(2) 0.5604(18) 2.119(2)
H14A H -0.3835 0.6222 2.1019
C29A C -0.277(2) 0.5718(16) 1.8866(18)
C30A C -0.332(3) 0.556(2) 1.843(4)
H15A H -0.4011 0.5588 1.8663
C31A C -0.288(4) 0.538(2) 1.771(4)
H16A H -0.3268 0.5288 1.7434
C32A C -0.190(3) 0.5325(17) 1.7374(18)
C33A C -0.128(2) 0.5467(18) 1.7753(17)
H17A H -0.0593 0.5431 1.7502
C34A C -0.173(2) 0.5665(18) 1.8515(17)
H18A H -0.1337 0.5760 1.8785
C35A C -0.140(3) 0.515(3) 1.653(2)
C36A C -0.414(2) 0.2562(15) 2.1370(16)
C37A C -0.497(2) 0.2583(15) 2.1177(18)
H19A H -0.5500 0.2876 2.1400
C38A C -0.5020(18) 0.2169(15) 2.0651(17)
H20A H -0.5586 0.2176 2.0530
C39A C -0.4207(16) 0.1747(13) 2.0312(15)
C40A C -0.3351(17) 0.1805(15) 2.0455(16)
H21A H -0.2783 0.1571 2.0183
C41A C -0.3322(19) 0.2198(15) 2.0987(17)
H22A H -0.2746 0.2217 2.1088
C42A C -0.4298(16) 0.1162(14) 1.9892(14)
C43A C -1.3679(16) 0.9958(15) 2.7715(14)
H23A H -1.3630 0.9345 2.7889
C44A C -1.3734(19) 1.1251(16) 2.7698(16)
H24A H -1.3740 1.1703 2.7875
C45A C -1.3841(19) 1.1372(16) 2.6922(16)
H25A H -1.3911 1.1915 2.6464
C46A C -1.3865(15) 1.0304(15) 2.6256(14)
C47A C -1.3519(19) 1.0928(16) 2.5327(15)
H26A H -1.3299 1.1529 2.5134
C48A C -1.349(2) 1.0673(16) 2.4672(15)
H27A H -1.3250 1.1108 2.4035
C49A C -1.3822(16) 0.9788(14) 2.4924(14)
C50A C -1.421(2) 0.9179(17) 2.5889(14)
H28A H -1.4444 0.8579 2.6096
C51A C -1.425(2) 0.9440(17) 2.6544(15)
H29A H -1.4534 0.9025 2.7188
C52A C -1.3728(15) 0.9499(14) 2.4206(13)
C53A C -1.323(2) 1.0084(18) 2.3244(16)
H30A H -1.2973 1.0673 2.3050
C54A C -1.311(2) 0.9828(18) 2.2564(17)
H31A H -1.2740 1.0234 2.1924
C55A C -1.3514(16) 0.8985(14) 2.2816(14)
C56A C -1.402(2) 0.8385(15) 2.3766(16)
H32A H -1.4297 0.7804 2.3954
C57A C -1.411(2) 0.8649(15) 2.4449(15)
H33A H -1.4453 0.8233 2.5090
C58A C -1.3319(18) 0.9369(15) 2.1213(15)
H34A H -1.3172 0.9995 2.0964
C59A C -1.3627(19) 0.7925(14) 2.2180(16)
H35A H -1.3740 0.7364 2.2708
C60A C -1.3596(17) 0.8071(14) 2.1342(16)
H36A H -1.3686 0.7616 2.1197
C61A C -0.783(3) 0.3312(19) 2.635(2)
H37A H -0.7972 0.3485 2.6821
C62A C -0.835(2) 0.2618(18) 2.6445(19)
H38A H -0.8894 0.2216 2.6993
C63A C -0.713(2) 0.3291(15) 2.5021(18)
H39A H -0.6691 0.3423 2.4400
C64A C -0.8198(18) 0.1941(14) 2.5369(16)
C65A C -0.801(2) 0.2152(17) 2.4458(19)
H40A H -0.7749 0.2745 2.3974
C66A C -0.819(2) 0.1488(17) 2.4251(18)
H41A H -0.8041 0.1641 2.3623
C67A C -0.8599(17) 0.0602(15) 2.4949(15)
C68A C -0.8829(18) 0.0420(15) 2.5878(16)
H42A H -0.9128 -0.0163 2.6370
C69A C -0.8633(17) 0.1069(15) 2.6093(16)
H43A H -0.8790 0.0924 2.6719
C70A C -0.8753(16) -0.0138(15) 2.4733(15)
C71A C -0.8668(19) 0.0034(16) 2.3850(16)
H44A H -0.8525 0.0636 2.3379
C72A C -0.8784(19) -0.0640(17) 2.3635(17)
H45A H -0.8735 -0.0489 2.3034
C73A C -0.8973(16) -0.1540(16) 2.4308(16)
C74A C -0.906(3) -0.1739(17) 2.5202(18)
H46A H -0.9197 -0.2342 2.5670
C75A C -0.894(2) -0.1050(17) 2.5398(18)
H47A H -0.8985 -0.1200 2.5998
C76A C -0.9501(19) -0.3120(17) 2.4718(17)
H48A H -0.9744 -0.3354 2.5373
C77A C -0.884(2) -0.218(2) 2.3201(18)
H49A H -0.8555 -0.1660 2.2616
C78A C -0.909(2) -0.3011(19) 2.3348(17)
H50A H -0.8996 -0.3164 2.2869
N1A N -0.706(2) 0.3735(14) 2.5441(16)
N2A N -0.7934(16) 0.2601(12) 2.5597(14)
N3A N -0.9099(15) -0.2241(13) 2.4097(13)
N4A N -0.9519(16) -0.3614(14) 2.4311(13)
N5A N -1.3616(13) 1.0360(12) 2.8193(12)
N6A N -1.3826(13) 1.0543(12) 2.6938(11)
N7A N -1.3459(13) 0.8763(12) 2.2105(11)
N8A N -1.3412(13) 0.8981(12) 2.0738(12)
Ni1A Ni -1.34610(19) 0.96807(17) 2.94362(17)
Ni3A Ni -0.6018(3) 0.4828(2) 2.4893(3)
O1A O -0.679(3) 0.5776(14) 2.4065(15)
O2A O -0.5099(16) 0.4062(10) 2.5665(12)
O3A O -0.6854(16) 0.5113(11) 2.5960(13)
O4A O -0.636(2) 0.6620(12) 2.5242(15)
O5A O -0.5198(18) 0.4608(13) 2.3768(15)
O6A O -0.440(2) 0.6008(14) 2.2736(16)
O7A O -0.9298(14) 0.4259(10) 2.9311(11)
O8A O -0.8301(10) 0.7456(9) 2.7880(11)
O9A O -1.1786(11) 0.9849(9) 2.8784(10)
O10A O -1.2685(11) 0.8696(10) 2.9013(11)
O11A O -0.9533(15) 0.0764(13) 2.8741(17)
O12A O -1.1112(15) 0.1053(14) 2.9135(17)
H51A H -1.1163 0.0705 2.8934
O13A O -0.4166(17) 0.2860(10) 2.2002(12)
O14A O -0.318(2) 0.5992(13) 1.9559(15)
O15A O -0.3531(11) 0.0816(10) 1.9591(11)
O16A O -0.5117(12) 0.1056(11) 1.9861(11)
O17A O -0.185(4) 0.518(2) 1.604(3)
O18A O -0.049(3) 0.502(2) 1.6262(19)
O19A O 0.122(3) 0.487(3) 1.535(2)
H52A H -0.466(11) 0.375(10) 2.550(9)
H53A H -0.683(11) 0.580(9) 2.359(6)
H54A H -0.724(16) 0.610(10) 2.427(10)
H55A H -0.504(14) 0.414(14) 2.611(9)
H56A H 0.126(5) 0.471(14) 1.596(8)
H57A H 0.191(7) 0.519(7) 1.501(9)
N4_2 N -0.0481(16) 0.3614(14) 1.5689(13)
N4A_2 N 0.0481(16) 0.6386(14) 1.4311(13)
N8_2 N 1.3412(13) 0.1019(12) -0.0738(12)
N8A_2 N -1.3412(13) 0.8981(12) 3.0738(12)
Ni1_2 Ni -0.65390(19) 0.03193(17) 2.05638(17)
Ni1_3 Ni 0.34610(19) 1.03193(17) 1.05638(17)
Ni1_4 Ni 1.34610(19) 0.03193(17) 1.05638(17)
Ni1A_2 Ni -1.34610(19) 0.96807(17) 1.94362(17)
Ni1A_3 Ni -0.34610(19) -0.03193(17) 1.94362(17)
Ni1A_4 Ni 0.65390(19) 0.96807(17) 0.94362(17)
Ni2_2 Ni -1.0000 -0.5000 2.5000
Ni2_3 Ni 1.0000 1.5000 0.5000
Ni3_2 Ni -0.3982(3) 0.5172(2) 2.5107(3)
Ni3A_2 Ni 0.3982(3) 0.4828(2) 0.4893(3)
O2_2 O -0.4901(16) 0.5938(10) 2.4335(12)
O2A_2 O 0.4901(16) 0.4062(10) 0.5665(12)
O15_2 O 1.3531(11) -0.0816(10) 0.0409(11)
O15A_2 O -1.3531(11) 1.0816(10) 2.9591(11)
O16_2 O -1.4883(12) 0.8944(11) 3.0139(11)
O16A_2 O 1.4883(12) 0.1056(11) -0.0139(11)
loop_
_geom_bond_atom_site_label_1
_geom_bond_atom_site_label_2
_geom_bond_site_symmetry_1
_geom_bond_site_symmetry_2
C1 C14 1_555 1_555
C2 H1 1_555 1_555
C3 C2 1_555 1_555
C4 C3 1_555 1_555
H2 C4 1_555 1_555
C5 C4 1_555 1_555
C6 C5 1_555 1_555
H3 C6 1_555 1_555
C7 C8 1_555 1_555
C8 H4 1_555 1_555
C9 C8 1_555 1_555
H5 C9 1_555 1_555
C10 C9 1_555 1_555
C11 C10 1_555 1_555
H6 C11 1_555 1_555
C12 C7 1_555 1_555
H7 C12 1_555 1_555
C13 C10 1_555 1_555
C14 C2 1_555 1_555
C15 C16 1_555 1_555
C16 H8 1_555 1_555
C17 C16 1_555 1_555
H9 C17 1_555 1_555
C18 C17 1_555 1_555
C19 C18 1_555 1_555
H10 C19 1_555 1_555
C20 C15 1_555 1_555
H11 C20 1_555 1_555
C21 C18 1_555 1_555
C22 C23 1_555 1_555
C23 C24 1_555 1_555
C24 H12 1_555 1_555
C25 C24 1_555 1_555
C26 C25 1_555 1_555
H13 C26 1_555 1_555
C27 C26 1_555 1_555
C28 C23 1_555 1_555
H14 C28 1_555 1_555
C29 C30 1_555 1_555
C30 H15 1_555 1_555
C31 C30 1_555 1_555
H16 C31 1_555 1_555
C32 C31 1_555 1_555
C33 C32 1_555 1_555
H17 C33 1_555 1_555
C34 C29 1_555 1_555
H18 C34 1_555 1_555
C35 C32 1_555 1_555
C36 C37 1_555 1_555
C37 H19 1_555 1_555
C38 C37 1_555 1_555
H20 C38 1_555 1_555
C39 C38 1_555 1_555
C40 C39 1_555 1_555
H21 C40 1_555 1_555
C41 C36 1_555 1_555
H22 C41 1_555 1_555
C42 C39 1_555 1_555
C43 H23 1_555 1_555
C44 H24 1_555 1_555
C45 C44 1_555 1_555
H25 C45 1_555 1_555
C46 C47 1_555 1_555
C47 H26 1_555 1_555
C48 C47 1_555 1_555
H27 C48 1_555 1_555
C49 C48 1_555 1_555
C50 C49 1_555 1_555
H28 C50 1_555 1_555
C51 C46 1_555 1_555
H29 C51 1_555 1_555
C52 C49 1_555 1_555
C53 C52 1_555 1_555
H30 C53 1_555 1_555
C54 C53 1_555 1_555
H31 C54 1_555 1_555
C55 C54 1_555 1_555
C56 C55 1_555 1_555
H32 C56 1_555 1_555
C57 C52 1_555 1_555
H33 C57 1_555 1_555
C58 H34 1_555 1_555
C59 H35 1_555 1_555
C60 C59 1_555 1_555
H36 C60 1_555 1_555
C61 H37 1_555 1_555
C62 C61 1_555 1_555
H38 C62 1_555 1_555
C63 H39 1_555 1_555
C64 C65 1_555 1_555
C65 H40 1_555 1_555
C66 C65 1_555 1_555
H41 C66 1_555 1_555
C67 C66 1_555 1_555
C68 C67 1_555 1_555
H42 C68 1_555 1_555
C69 C64 1_555 1_555
H43 C69 1_555 1_555
C70 C67 1_555 1_555
C71 C70 1_555 1_555
H44 C71 1_555 1_555
C72 C71 1_555 1_555
H45 C72 1_555 1_555
C73 C72 1_555 1_555
C74 C73 1_555 1_555
H46 C74 1_555 1_555
C75 C70 1_555 1_555
H47 C75 1_555 1_555
C76 H48 1_555 1_555
C77 H49 1_555 1_555
C78 C77 1_555 1_555
H50 C78 1_555 1_555
N1 C61 1_555 1_555
N2 C62 1_555 1_555
N3 C73 1_555 1_555
N4 C76 1_555 1_555
N5 C43 1_555 1_555
N6 C43 1_555 1_555
N7 C55 1_555 1_555
N8 C58 1_555 1_555
Ni1 N5 1_555 1_555
Ni2 O18 1_555 1_555
Ni3 N1 1_555 1_555
O1 Ni3 1_555 1_555
O2 Ni3 1_555 1_555
O3 C1 1_555 1_555
O4 C1 1_555 1_555
O5 C22 1_555 1_555
O6 C22 1_555 1_555
O7 C5 1_555 1_555
O8 C3 1_555 1_555
O9 C21 1_555 1_555
O10 C21 1_555 1_555
O11 C13 1_555 1_555
O12 C13 1_555 1_555
H51 O12 1_555 1_555
O13 C25 1_555 1_555
O14 C27 1_555 1_555
O15 C42 1_555 1_555
O16 C42 1_555 1_555
O17 C35 1_555 1_555
O18 C35 1_555 1_555
O19 Ni2 1_555 1_555
H52 O2 1_555 1_555
H53 O1 1_555 1_555
H54 O1 1_555 1_555
H55 O2 1_555 1_555
H56 O19 1_555 1_555
H57 O19 1_555 1_555
C1A C14A 1_555 1_555
C2A H1A 1_555 1_555
C3A C2A 1_555 1_555
C4A C3A 1_555 1_555
H2A C4A 1_555 1_555
C5A C4A 1_555 1_555
C6A C5A 1_555 1_555
H3A C6A 1_555 1_555
C7A C8A 1_555 1_555
C8A H4A 1_555 1_555
C9A C8A 1_555 1_555
H5A C9A 1_555 1_555
C10A C9A 1_555 1_555
C11A C10A 1_555 1_555
H6A C11A 1_555 1_555
C12A C7A 1_555 1_555
H7A C12A 1_555 1_555
C13A C10A 1_555 1_555
C14A C2A 1_555 1_555
C15A C16A 1_555 1_555
C16A H8A 1_555 1_555
C17A C16A 1_555 1_555
H9A C17A 1_555 1_555
C18A C17A 1_555 1_555
C19A C18A 1_555 1_555
H10A C19A 1_555 1_555
C20A C15A 1_555 1_555
H11A C20A 1_555 1_555
C21A C18A 1_555 1_555
C22A C23A 1_555 1_555
C23A C24A 1_555 1_555
C24A H12A 1_555 1_555
C25A C24A 1_555 1_555
C26A C25A 1_555 1_555
H13A C26A 1_555 1_555
C27A C26A 1_555 1_555
C28A C23A 1_555 1_555
H14A C28A 1_555 1_555
C29A C30A 1_555 1_555
C30A H15A 1_555 1_555
C31A C30A 1_555 1_555
H16A C31A 1_555 1_555
C32A C31A 1_555 1_555
C33A C32A 1_555 1_555
H17A C33A 1_555 1_555
C34A C29A 1_555 1_555
H18A C34A 1_555 1_555
C35A C32A 1_555 1_555
C36A C37A 1_555 1_555
C37A H19A 1_555 1_555
C38A C37A 1_555 1_555
H20A C38A 1_555 1_555
C39A C38A 1_555 1_555
C40A C39A 1_555 1_555
H21A C40A 1_555 1_555
C41A C36A 1_555 1_555
H22A C41A 1_555 1_555
C42A C39A 1_555 1_555
C43A H23A 1_555 1_555
C44A H24A 1_555 1_555
C45A C44A 1_555 1_555
H25A C45A 1_555 1_555
C46A C47A 1_555 1_555
C47A H26A 1_555 1_555
C48A C47A 1_555 1_555
H27A C48A 1_555 1_555
C49A C48A 1_555 1_555
C50A C49A 1_555 1_555
H28A C50A 1_555 1_555
C51A C46A 1_555 1_555
H29A C51A 1_555 1_555
C52A C49A 1_555 1_555
C53A C52A 1_555 1_555
H30A C53A 1_555 1_555
C54A C53A 1_555 1_555
H31A C54A 1_555 1_555
C55A C54A 1_555 1_555
C56A C55A 1_555 1_555
H32A C56A 1_555 1_555
C57A C52A 1_555 1_555
H33A C57A 1_555 1_555
C58A H34A 1_555 1_555
C59A H35A 1_555 1_555
C60A C59A 1_555 1_555
H36A C60A 1_555 1_555
C61A H37A 1_555 1_555
C62A C61A 1_555 1_555
H38A C62A 1_555 1_555
C63A H39A 1_555 1_555
C64A C65A 1_555 1_555
C65A H40A 1_555 1_555
C66A C65A 1_555 1_555
H41A C66A 1_555 1_555
C67A C66A 1_555 1_555
C68A C67A 1_555 1_555
H42A C68A 1_555 1_555
C69A C64A 1_555 1_555
H43A C69A 1_555 1_555
C70A C67A 1_555 1_555
C71A C70A 1_555 1_555
H44A C71A 1_555 1_555
C72A C71A 1_555 1_555
H45A C72A 1_555 1_555
C73A C72A 1_555 1_555
C74A C73A 1_555 1_555
H46A C74A 1_555 1_555
C75A C70A 1_555 1_555
H47A C75A 1_555 1_555
C76A H48A 1_555 1_555
C77A H49A 1_555 1_555
C78A C77A 1_555 1_555
H50A C78A 1_555 1_555
N1A C61A 1_555 1_555
N2A C62A 1_555 1_555
N3A C73A 1_555 1_555
N4A C76A 1_555 1_555
N5A C43A 1_555 1_555
N6A C43A 1_555 1_555
N7A C55A 1_555 1_555
N8A C58A 1_555 1_555
Ni1A N5A 1_555 1_555
Ni3A N1A 1_555 1_555
O1A Ni3A 1_555 1_555
O2A Ni3A 1_555 1_555
O3A C1A 1_555 1_555
O4A C1A 1_555 1_555
O5A C22A 1_555 1_555
O6A C22A 1_555 1_555
O7A C5A 1_555 1_555
O8A C3A 1_555 1_555
O9A C21A 1_555 1_555
O10A C21A 1_555 1_555
O11A C13A 1_555 1_555
O12A C13A 1_555 1_555
H51A O12A 1_555 1_555
O13A C25A 1_555 1_555
O14A C27A 1_555 1_555
O15A C42A 1_555 1_555
O16A C42A 1_555 1_555
O17A C35A 1_555 1_555
O18A Ni2 1_555 1_555
O19A Ni2 1_555 1_555
H52A O2A 1_555 1_555
H53A O1A 1_555 1_555
H54A O1A 1_555 1_555
H55A O2A 1_555 1_555
H56A O19A 1_555 1_555
H57A O19A 1_555 1_555
N4_2 Ni2 1_555 1_555
N4A_2 Ni2 1_555 1_555
N8_2 Ni1 1_555 1_555
N8A_2 Ni1A 1_555 1_555
Ni1_2 O16A 1_555 1_555
Ni1_3 O15 1_555 1_555
Ni1_4 N8 1_555 1_555
Ni1A_2 N8A 1_555 1_555
Ni1A_3 O15A 1_555 1_555
Ni1A_4 O16 1_555 1_555
Ni2_2 N4A 1_555 1_555
Ni2_3 N4 1_555 1_555
Ni3_2 O2A 1_555 1_555
Ni3A_2 O2 1_555 1_555
O2_2 Ni3A 1_555 1_555
O2A_2 Ni3 1_555 1_555
O15_2 Ni1 1_555 1_555
O15A_2 Ni1A 1_555 1_555
O16_2 Ni1A 1_555 1_555
O16A_2 Ni1 1_555 1_555
C6 C14 1_555 1_555
C7 O7 1_555 1_555
C11 C12 1_555 1_555
C15 O8 1_555 1_555
C19 C20 1_555 1_555
C27 C28 1_555 1_555
C29 O14 1_555 1_555
C33 C34 1_555 1_555
C36 O13 1_555 1_555
C40 C41 1_555 1_555
C44 N5 1_555 1_555
C45 N6 1_555 1_555
C46 N6 1_555 1_555
C50 C51 1_555 1_555
C56 C57 1_555 1_555
C58 N7 1_555 1_555
C59 N7 1_555 1_555
C60 N8 1_555 1_555
C63 N1 1_555 1_555
C63 N2 1_555 1_555
C64 N2 1_555 1_555
C68 C69 1_555 1_555
C74 C75 1_555 1_555
C76 N3 1_555 1_555
C77 N3 1_555 1_555
C78 N4 1_555 1_555
Ni1 O9 1_555 1_555
Ni1 O10 1_555 1_555
Ni3 O3 1_555 1_555
Ni3 O5 1_555 1_555
C6A C14A 1_555 1_555
C7A O7A 1_555 1_555
C11A C12A 1_555 1_555
C15A O8A 1_555 1_555
C19A C20A 1_555 1_555
C27A C28A 1_555 1_555
C29A O14A 1_555 1_555
C33A C34A 1_555 1_555
C35A O18A 1_555 1_555
C36A O13A 1_555 1_555
C40A C41A 1_555 1_555
C44A N5A 1_555 1_555
C45A N6A 1_555 1_555
C46A N6A 1_555 1_555
C50A C51A 1_555 1_555
C56A C57A 1_555 1_555
C58A N7A 1_555 1_555
C59A N7A 1_555 1_555
C60A N8A 1_555 1_555
C63A N1A 1_555 1_555
C63A N2A 1_555 1_555
C64A N2A 1_555 1_555
C68A C69A 1_555 1_555
C74A C75A 1_555 1_555
C76A N3A 1_555 1_555
C77A N3A 1_555 1_555
C78A N4A 1_555 1_555
Ni1A O9A 1_555 1_555
Ni1A O10A 1_555 1_555
Ni3A O3A 1_555 1_555
Ni3A O5A 1_555 1_555
Ni3_2 O2_2 1_555 1_555
Ni3A_2 O2A_2 1_555 1_555

#END
