
#######################################################################
#
#                 Cambridge Crystallographic Data Centre
#                                CCDC 
#
#######################################################################
#
# If this CIF has been generated from an entry in the Cambridge 
# Structural Database, then it will include bibliographic, chemical, 
# crystal, experimental, refinement or atomic coordinate data resulting 
# from the CCDC's data processing and validation procedures.
#
#######################################################################

data_DOJZAF
_symmetry_cell_setting           monoclinic
_symmetry_space_group_name_H-M   'P 21/c'
_symmetry_Int_Tables_number      14
_space_group_name_Hall           '-P 2ybc'
loop_
_symmetry_equiv_pos_site_id
_symmetry_equiv_pos_as_xyz
1 x,y,z
2 -x,1/2+y,1/2-z
3 -x,-y,-z
4 x,1/2-y,1/2+z
_cell_length_a                   13.964(4)
_cell_length_b                   19.227(3)
_cell_length_c                   14.812(6)
_cell_angle_alpha                90
_cell_angle_beta                 104.10(2)
_cell_angle_gamma                90
_cell_volume                     3857
loop_
_atom_site_label
_atom_site_type_symbol
_atom_site_fract_x
_atom_site_fract_y
_atom_site_fract_z
C1 C 0.77051(18) 0.06588(14) 0.82711(18)
C2 C 0.82167(18) 0.04215(14) 0.92396(18)
C3 C 0.85996(18) -0.02439(13) 0.94028(18)
H1 H 0.8533 -0.0554 0.8910
C4 C 0.90816(19) -0.04522(14) 1.02945(19)
H2 H 0.9336 -0.0900 1.0398
C5 C 0.91835(18) 0.00072(14) 1.10291(17)
C6 C 0.8802(2) 0.06731(14) 1.08748(19)
H3 H 0.8865 0.0983 1.1368
C7 C 0.83299(19) 0.08732(14) 0.99856(19)
H4 H 0.8081 0.1323 0.9884
C8 C 0.96788(19) 0.01439(13) 1.26867(17)
C9 C 1.05695(19) 0.03529(14) 1.32498(18)
H5 H 1.1160 0.0266 1.3086
C10 C 1.05556(18) 0.06972(15) 1.40679(19)
C11 C 0.96880(19) 0.08258(14) 1.43225(19)
H6 H 0.9697 0.1048 1.4883
C12 C 0.88021(18) 0.06221(13) 1.37371(18)
C13 C 0.87943(18) 0.02715(13) 1.29162(19)
H7 H 0.8202 0.0125 1.2526
C14 C 0.78626(19) 0.08102(14) 1.3998(2)
C15 C 1.22575(19) 0.10104(17) 1.4402(2)
C16 C 1.3004(3) 0.05696(17) 1.4735(3)
H8 H 1.2928 0.0209 1.5131
C17 C 1.3873(2) 0.06545(18) 1.4489(3)
H9 H 1.4384 0.0342 1.4713
C18 C 1.40167(18) 0.11836(13) 1.39233(18)
C19 C 1.3259(2) 0.1635(2) 1.3602(3)
H10 H 1.3339 0.2004 1.3222
C20 C 1.2371(2) 0.1544(2) 1.3842(3)
H11 H 1.1851 0.1850 1.3618
C21 C 1.49701(19) 0.12542(15) 1.36542(19)
C22 C 0.90817(19) 0.18273(14) 0.6973(2)
H12 H 0.9039 0.1371 0.6760
C23 C 0.8708(2) 0.28046(16) 0.7437(3)
H13 H 0.8350 0.3167 0.7611
C24 C 0.9673(2) 0.28358(17) 0.7437(3)
H14 H 1.0093 0.3214 0.7611
C25 C 1.08951(18) 0.20099(13) 0.7077(2)
C26 C 1.14666(19) 0.16439(15) 0.7806(2)
H15 H 1.1193 0.1514 0.8294
C27 C 1.1266(2) 0.22235(15) 0.6337(2)
C28 C 1.0669(3) 0.2627(2) 0.5526(2)
H16 H 1.0058 0.2389 0.5274
H17 H 1.1033 0.2667 0.5056
H18 H 1.0534 0.3083 0.5730
C29 C 1.5127(2) 0.08805(14) 0.7075(2)
H19 H 1.5559 0.0512 0.7077
C30 C 1.4178(2) 0.08147(15) 0.7091(2)
H20 H 1.3837 0.0402 0.7110
C31 C 1.45575(18) 0.19138(13) 0.70472(19)
H21 H 1.4504 0.2396 0.7026
C32 C 1.28062(18) 0.16606(14) 0.70953(19)
C33 C 1.2239(2) 0.20332(15) 0.6362(2)
H22 H 1.2510 0.2161 0.5872
C34 C 1.24390(19) 0.14587(15) 0.7845(2)
C35 C 1.3042(2) 0.1090(2) 0.8682(2)
H23 H 1.3279 0.0658 0.8494
H24 H 1.2640 0.0999 0.9111
H25 H 1.3592 0.1376 0.8979
C36 C 0.6053(2) 0.25560(16) 0.51829(19)
H26 H 0.6118 0.2133 0.4899
C37 C 0.5673(3) 0.31388(16) 0.4729(2)
H27 H 0.5441 0.3194 0.4089
C38 C 0.61031(19) 0.33286(14) 0.62164(18)
H28 H 0.6213 0.3555 0.6787
C39 C 0.53389(18) 0.43368(13) 0.52216(17)
C40 C 0.57062(19) 0.47316(14) 0.46034(18)
H29 H 0.6184 0.4539 0.4337
C41 C 0.46129(19) 0.45946(14) 0.56346(18)
C42 C 0.4156(2) 0.41781(17) 0.6275(2)
H30 H 0.4057 0.3708 0.6053
H31 H 0.3532 0.4379 0.6294
H32 H 0.4586 0.4180 0.6889
Ni1 Ni 0.68429(2) 0.190131(15) 0.70944(2)
N1 N 0.83370(15) 0.21719(11) 0.71498(15)
N2 N 0.99144(15) 0.22095(11) 0.71342(16)
N3 N 1.53736(15) 0.15714(11) 0.70529(15)
N4 N 1.38055(15) 0.14774(11) 0.70755(16)
N5 N 0.63261(15) 0.26733(11) 0.61163(14)
N6 N 0.56980(15) 0.36304(11) 0.53946(14)
O1 O 0.73430(13) 0.12666(9) 0.82126(12)
O2 O 0.76482(15) 0.02583(10) 0.76040(13)
O3 O 0.70754(13) 0.06711(11) 1.33728(15)
O4 O 0.78888(15) 0.10776(12) 1.47535(15)
O5 O 1.55638(15) 0.07544(13) 1.39124(18)
O6 O 1.51365(14) 0.17581(11) 1.32027(14)
O7 O 1.13916(14) 0.09352(15) 1.46951(15)
O8 O 0.97101(13) -0.02314(9) 1.18855(12)
O9 O 0.68527(14) 0.26346(10) 0.81442(12)
O10 O 0.69013(13) 0.11038(10) 0.61705(13)
H33 H 1.6086(15) 0.075(2) 1.375(3)
H34 H 0.717(2) 0.0789(13) 0.6516(17)
H35 H 0.6331(14) 0.2838(17) 0.812(2)
H36 H 0.713(2) 0.1169(17) 0.5718(15)
H37 H 0.713(2) 0.2484(18) 0.8660(10)
C36B C 0.3947(2) 0.74440(16) 0.48171(19)
H26B H 0.3882 0.7867 0.5101
C37B C 0.4327(3) 0.68612(16) 0.5271(2)
H27B H 0.4559 0.6806 0.5911
C38B C 0.38969(19) 0.66714(14) 0.37836(18)
H28B H 0.3787 0.6445 0.3213
C39B C 0.46611(18) 0.56632(13) 0.47784(17)
C40B C 0.42938(19) 0.52684(14) 0.53966(18)
H29B H 0.3816 0.5461 0.5663
C41B C 0.53871(19) 0.54054(14) 0.43654(18)
C42B C 0.5844(2) 0.58219(17) 0.3725(2)
H30B H 0.5943 0.6292 0.3947
H31B H 0.6468 0.5621 0.3706
H32B H 0.5414 0.5820 0.3111
N5B N 0.36739(15) 0.73267(11) 0.38837(14)
N6B N 0.43020(15) 0.63696(11) 0.46054(14)
C1B C 0.22949(18) 0.93412(14) 0.17289(18)
C2B C 0.17833(18) 0.95785(14) 0.07604(18)
C3B C 0.14004(18) 1.02439(13) 0.05972(18)
H1B H 0.1467 1.0554 0.1090
C4B C 0.09184(19) 1.04522(14) -0.02945(19)
H2B H 0.0664 1.0900 -0.0398
C5B C 0.08165(18) 0.99928(14) -0.10291(17)
C6B C 0.1198(2) 0.93269(14) -0.08748(19)
H3B H 0.1135 0.9017 -0.1368
C7B C 0.16701(19) 0.91268(14) 0.00144(19)
H4B H 0.1919 0.8677 0.0116
C8B C 0.03212(19) 0.98561(13) -0.26867(17)
C9B C -0.05695(19) 0.96471(14) -0.32498(18)
H5B H -0.1160 0.9734 -0.3086
C10B C -0.05556(18) 0.93028(15) -0.40679(19)
C11B C 0.03120(19) 0.91742(14) -0.43225(19)
H6B H 0.0303 0.8952 -0.4883
C12B C 0.11979(18) 0.93779(13) -0.37371(18)
C13B C 0.12057(18) 0.97285(13) -0.29162(19)
H7B H 0.1798 0.9875 -0.2526
C14B C 0.21374(19) 0.91898(14) -0.3998(2)
C15B C -0.22575(19) 0.89896(17) -0.4402(2)
C16B C -0.3004(3) 0.94304(17) -0.4735(3)
H8B H -0.2928 0.9791 -0.5131
C17B C -0.3873(2) 0.93455(18) -0.4489(3)
H9B H -0.4384 0.9658 -0.4713
C18B C -0.40167(18) 0.88164(13) -0.39233(18)
C19B C -0.3259(2) 0.8365(2) -0.3602(3)
H10B H -0.3339 0.7996 -0.3222
C20B C -0.2371(2) 0.8456(2) -0.3842(3)
H11B H -0.1851 0.8150 -0.3618
C21B C -0.49701(19) 0.87458(15) -0.36542(19)
C22B C 0.09183(19) 0.81727(14) 0.3027(2)
H12B H 0.0961 0.8629 0.3240
C23B C 0.1292(2) 0.71954(16) 0.2563(3)
H13B H 0.1650 0.6833 0.2389
C24B C 0.0327(2) 0.71642(17) 0.2563(3)
H14B H -0.0093 0.6786 0.2389
C25B C -0.08951(18) 0.79901(13) 0.2923(2)
C26B C -0.14666(19) 0.83561(15) 0.2194(2)
H15B H -0.1193 0.8486 0.1706
C27B C -0.1266(2) 0.77765(15) 0.3663(2)
C28B C -0.0669(3) 0.7373(2) 0.4474(2)
H16B H -0.0058 0.7611 0.4726
H17B H -0.1033 0.7333 0.4944
H18B H -0.0534 0.6917 0.4270
C29B C -0.5127(2) 0.91195(14) 0.2925(2)
H19B H -0.5559 0.9488 0.2923
C30B C -0.4178(2) 0.91853(15) 0.2909(2)
H20B H -0.3837 0.9598 0.2890
C31B C -0.45575(18) 0.80862(13) 0.29528(19)
H21B H -0.4504 0.7604 0.2974
C32B C -0.28062(18) 0.83394(14) 0.29047(19)
C33B C -0.2239(2) 0.79668(15) 0.3638(2)
H22B H -0.2510 0.7839 0.4128
C34B C -0.24390(19) 0.85413(15) 0.2155(2)
C35B C -0.3042(2) 0.8910(2) 0.1318(2)
H23B H -0.3279 0.9342 0.1506
H24B H -0.2640 0.9001 0.0889
H25B H -0.3592 0.8624 0.1021
Ni1B Ni 0.31571(2) 0.809869(15) 0.29056(2)
N1B N 0.16630(15) 0.78281(11) 0.28502(15)
N2B N 0.00856(15) 0.77905(11) 0.28658(16)
N3B N -0.53736(15) 0.84286(11) 0.29471(15)
N4B N -0.38055(15) 0.85226(11) 0.29245(16)
O1B O 0.26570(13) 0.87334(9) 0.17874(12)
O2B O 0.23518(15) 0.97417(10) 0.23960(13)
O3B O 0.29246(13) 0.93289(11) -0.33728(15)
O4B O 0.21112(15) 0.89224(12) -0.47535(15)
O5B O -0.55638(15) 0.92456(13) -0.39124(18)
O6B O -0.51365(14) 0.82419(11) -0.32027(14)
O7B O -0.13916(14) 0.90648(15) -0.46951(15)
O8B O 0.02899(13) 1.02314(9) -0.18855(12)
O9B O 0.31473(14) 0.73654(10) 0.18558(12)
O10B O 0.30987(13) 0.88962(10) 0.38295(13)
H33B H -0.6086(15) 0.925(2) -0.375(3)
H34B H 0.283(2) 0.9211(13) 0.3484(17)
H35B H 0.3669(14) 0.7162(17) 0.188(2)
H36B H 0.287(2) 0.8831(17) 0.4282(15)
H37B H 0.287(2) 0.7516(18) 0.1340(10)
Ni1_2 Ni 1.68429(2) 0.190131(15) 0.70944(2)
Ni1B_2 Ni -0.68429(2) 0.809869(15) 0.29056(2)
N3_2 N 0.53736(15) 0.15714(11) 0.70529(15)
N3B_2 N 0.46264(15) 0.84286(11) 0.29471(15)
loop_
_geom_bond_atom_site_label_1
_geom_bond_atom_site_label_2
_geom_bond_site_symmetry_1
_geom_bond_site_symmetry_2
C1 C2 1_555 1_555
C2 C3 1_555 1_555
C3 H1 1_555 1_555
C4 C3 1_555 1_555
H2 C4 1_555 1_555
C5 C4 1_555 1_555
C6 C5 1_555 1_555
H3 C6 1_555 1_555
C7 C2 1_555 1_555
H4 C7 1_555 1_555
C8 C9 1_555 1_555
C9 H5 1_555 1_555
C10 C9 1_555 1_555
C11 C10 1_555 1_555
H6 C11 1_555 1_555
C12 C11 1_555 1_555
C13 C8 1_555 1_555
H7 C13 1_555 1_555
C14 C12 1_555 1_555
C15 C16 1_555 1_555
C16 H8 1_555 1_555
C17 C16 1_555 1_555
H9 C17 1_555 1_555
C18 C17 1_555 1_555
C19 C18 1_555 1_555
H10 C19 1_555 1_555
C20 C15 1_555 1_555
H11 C20 1_555 1_555
C21 C18 1_555 1_555
C22 H12 1_555 1_555
C23 H13 1_555 1_555
C24 C23 1_555 1_555
H14 C24 1_555 1_555
C25 C26 1_555 1_555
C26 H15 1_555 1_555
C27 C25 1_555 1_555
C28 C27 1_555 1_555
H16 C28 1_555 1_555
H17 C28 1_555 1_555
H18 C28 1_555 1_555
C29 H19 1_555 1_555
C30 C29 1_555 1_555
H20 C30 1_555 1_555
C31 H21 1_555 1_555
C32 C33 1_555 1_555
C33 C27 1_555 1_555
H22 C33 1_555 1_555
C34 C26 1_555 1_555
C35 C34 1_555 1_555
H23 C35 1_555 1_555
H24 C35 1_555 1_555
H25 C35 1_555 1_555
C36 H26 1_555 1_555
C37 C36 1_555 1_555
H27 C37 1_555 1_555
C38 H28 1_555 1_555
C39 C40 1_555 1_555
C40 H29 1_555 1_555
C41 C39 1_555 1_555
C42 C41 1_555 1_555
H30 C42 1_555 1_555
H31 C42 1_555 1_555
H32 C42 1_555 1_555
Ni1 N1 1_555 1_555
N1 C22 1_555 1_555
N2 C22 1_555 1_555
N3 C29 1_555 1_555
N4 C30 1_555 1_555
N5 C36 1_555 1_555
N6 C37 1_555 1_555
O1 C1 1_555 1_555
O2 C1 1_555 1_555
O3 C14 1_555 1_555
O4 C14 1_555 1_555
O5 C21 1_555 1_555
O6 C21 1_555 1_555
O7 C10 1_555 1_555
O8 C5 1_555 1_555
O9 Ni1 1_555 1_555
O10 Ni1 1_555 1_555
H33 O5 1_555 1_555
H34 O10 1_555 1_555
H35 O9 1_555 1_555
H36 O10 1_555 1_555
H37 O9 1_555 1_555
C36B H26B 1_555 1_555
C37B C36B 1_555 1_555
H27B C37B 1_555 1_555
C38B H28B 1_555 1_555
C39B C40B 1_555 1_555
C40B C41 1_555 1_555
H29B C40B 1_555 1_555
C41B C40 1_555 1_555
C42B C41B 1_555 1_555
H30B C42B 1_555 1_555
H31B C42B 1_555 1_555
H32B C42B 1_555 1_555
N5B C36B 1_555 1_555
N6B C37B 1_555 1_555
C1B C2B 1_555 1_555
C2B C3B 1_555 1_555
C3B H1B 1_555 1_555
C4B C3B 1_555 1_555
H2B C4B 1_555 1_555
C5B C4B 1_555 1_555
C6B C5B 1_555 1_555
H3B C6B 1_555 1_555
C7B C2B 1_555 1_555
H4B C7B 1_555 1_555
C8B C9B 1_555 1_555
C9B H5B 1_555 1_555
C10B C9B 1_555 1_555
C11B C10B 1_555 1_555
H6B C11B 1_555 1_555
C12B C11B 1_555 1_555
C13B C8B 1_555 1_555
H7B C13B 1_555 1_555
C14B C12B 1_555 1_555
C15B C16B 1_555 1_555
C16B H8B 1_555 1_555
C17B C16B 1_555 1_555
H9B C17B 1_555 1_555
C18B C17B 1_555 1_555
C19B C18B 1_555 1_555
H10B C19B 1_555 1_555
C20B C15B 1_555 1_555
H11B C20B 1_555 1_555
C21B C18B 1_555 1_555
C22B H12B 1_555 1_555
C23B H13B 1_555 1_555
C24B C23B 1_555 1_555
H14B C24B 1_555 1_555
C25B C26B 1_555 1_555
C26B H15B 1_555 1_555
C27B C25B 1_555 1_555
C28B C27B 1_555 1_555
H16B C28B 1_555 1_555
H17B C28B 1_555 1_555
H18B C28B 1_555 1_555
C29B H19B 1_555 1_555
C30B C29B 1_555 1_555
H20B C30B 1_555 1_555
C31B H21B 1_555 1_555
C32B C33B 1_555 1_555
C33B C27B 1_555 1_555
H22B C33B 1_555 1_555
C34B C26B 1_555 1_555
C35B C34B 1_555 1_555
H23B C35B 1_555 1_555
H24B C35B 1_555 1_555
H25B C35B 1_555 1_555
Ni1B N5B 1_555 1_555
N1B C22B 1_555 1_555
N2B C22B 1_555 1_555
N3B C29B 1_555 1_555
N4B C30B 1_555 1_555
O1B C1B 1_555 1_555
O2B C1B 1_555 1_555
O3B C14B 1_555 1_555
O4B C14B 1_555 1_555
O5B C21B 1_555 1_555
O6B C21B 1_555 1_555
O7B C10B 1_555 1_555
O8B C5B 1_555 1_555
O9B Ni1B 1_555 1_555
O10B Ni1B 1_555 1_555
H33B O5B 1_555 1_555
H34B O10B 1_555 1_555
H35B O9B 1_555 1_555
H36B O10B 1_555 1_555
H37B O9B 1_555 1_555
Ni1_2 N3 1_555 1_555
Ni1B_2 N3B 1_555 1_555
N3_2 Ni1 1_555 1_555
N3B_2 Ni1B 1_555 1_555
C6 C7 1_555 1_555
C8 O8 1_555 1_555
C12 C13 1_555 1_555
C15 O7 1_555 1_555
C19 C20 1_555 1_555
C23 N1 1_555 1_555
C24 N2 1_555 1_555
C25 N2 1_555 1_555
C31 N3 1_555 1_555
C31 N4 1_555 1_555
C32 C34 1_555 1_555
C32 N4 1_555 1_555
C38 N5 1_555 1_555
C38 N6 1_555 1_555
C39 N6 1_555 1_555
Ni1 N5 1_555 1_555
Ni1 O1 1_555 1_555
C38B N5B 1_555 1_555
C38B N6B 1_555 1_555
C39B C41B 1_555 1_555
C39B N6B 1_555 1_555
C6B C7B 1_555 1_555
C8B O8B 1_555 1_555
C12B C13B 1_555 1_555
C15B O7B 1_555 1_555
C19B C20B 1_555 1_555
C23B N1B 1_555 1_555
C24B N2B 1_555 1_555
C25B N2B 1_555 1_555
C31B N3B 1_555 1_555
C31B N4B 1_555 1_555
C32B C34B 1_555 1_555
C32B N4B 1_555 1_555
Ni1B N1B 1_555 1_555
Ni1B O1B 1_555 1_555

#END
