
#######################################################################
#
#                 Cambridge Crystallographic Data Centre
#                                CCDC 
#
#######################################################################
#
# If this CIF has been generated from an entry in the Cambridge 
# Structural Database, then it will include bibliographic, chemical, 
# crystal, experimental, refinement or atomic coordinate data resulting 
# from the CCDC's data processing and validation procedures.
#
#######################################################################

data_DOKCOW
_symmetry_cell_setting           triclinic
_symmetry_space_group_name_H-M   'P -1'
_symmetry_Int_Tables_number      2
_space_group_name_Hall           '-P 1'
loop_
_symmetry_equiv_pos_site_id
_symmetry_equiv_pos_as_xyz
1 x,y,z
2 -x,-y,-z
_cell_length_a                   11.0271(7)
_cell_length_b                   11.5270(7)
_cell_length_c                   14.6181(10)
_cell_angle_alpha                86.590(3)
_cell_angle_beta                 82.263(3)
_cell_angle_gamma                61.462(2)
_cell_volume                     1617.45
loop_
_atom_site_label
_atom_site_type_symbol
_atom_site_fract_x
_atom_site_fract_y
_atom_site_fract_z
C1 C 0.0995(3) -0.6851(2) -0.34833(19)
C2 C 0.0531(3) -0.7721(3) -0.30732(19)
C3 C 0.0001(3) -0.8329(3) -0.3558(2)
C4 C -0.0111(3) -0.8067(3) -0.4480(2)
C5 C 0.0333(3) -0.7218(3) -0.49271(19)
C6 C 0.0879(3) -0.6644(3) -0.4418(2)
C7 C -0.1801(3) -0.3812(2) -0.21123(19)
C8 C -0.2884(3) -0.3372(2) -0.26580(19)
C9 C -0.4102(3) -0.3433(3) -0.2386(2)
C10 C -0.4292(3) -0.3922(3) -0.1534(2)
C11 C -0.3266(3) -0.4375(3) -0.0959(2)
C12 C -0.2054(3) -0.4304(2) -0.1257(2)
C13 C 0.1031(3) -0.2695(2) -0.18335(19)
C14 C 0.1608(3) -0.2050(3) -0.24344(19)
C15 C 0.2013(3) -0.1188(3) -0.2133(2)
C16 C 0.1848(3) -0.0930(3) -0.1210(2)
C17 C 0.1269(3) -0.1530(3) -0.05797(19)
C18 C 0.0900(3) -0.2403(2) -0.0907(2)
C19 C 0.3795(3) -0.6253(2) -0.2426(2)
C20 C 0.4276(3) -0.6849(3) -0.1602(2)
C21 C 0.5574(3) -0.7163(3) -0.1372(2)
C22 C 0.6463(3) -0.6905(3) -0.1998(2)
C23 C 0.6050(3) -0.6330(3) -0.2835(2)
C24 C 0.4734(3) -0.6003(3) -0.3031(2)
C25 C -0.5144(3) 0.1642(3) -0.4720(2)
H1 H -0.5730 0.2094 -0.5183
C26 C -0.3799(3) 0.1364(3) -0.4772(2)
H2 H -0.3328 0.1593 -0.5285
C27 C -0.3159(3) 0.0690(3) -0.3977(2)
H3 H -0.2217 0.0421 -0.3908
C28 C -0.4035(3) 0.0472(3) -0.3328(2)
C29 C -0.3806(3) -0.0122(3) -0.2425(2)
C30 C -0.4689(3) -0.0373(3) -0.1793(2)
H4 H -0.5585 -0.0208 -0.1909
C31 C -0.4139(3) -0.0901(3) -0.0954(2)
H5 H -0.4626 -0.1133 -0.0453
C32 C -0.2854(3) -0.1042(3) -0.0934(2)
H6 H -0.2339 -0.1372 -0.0422
Cu1 Cu 0.25355(4) -0.67170(4) -0.29944(3)
Cu2 Cu 0.00402(4) -0.51477(4) -0.27530(3)
Cu3 Cu -0.05536(4) -0.29863(4) -0.21264(3)
Cu4 Cu 0.19284(4) -0.46155(4) -0.22139(3)
F1 F 0.06049(16) -0.79809(15) -0.21681(11)
F2 F -0.04312(17) -0.91648(16) -0.31400(12)
F3 F -0.06606(18) -0.86217(17) -0.49536(12)
F4 F 0.01988(18) -0.69675(17) -0.58213(11)
F5 F 0.13425(16) -0.58473(15) -0.48756(11)
F6 F -0.27728(16) -0.28543(15) -0.34968(11)
F7 F -0.50892(16) -0.30299(17) -0.29589(13)
F8 F -0.54833(17) -0.39634(16) -0.12554(13)
F9 F -0.34424(18) -0.48835(16) -0.01355(12)
F10 F -0.10849(17) -0.47274(16) -0.06678(12)
F11 F 0.17825(17) -0.22558(16) -0.33486(11)
F12 F 0.25634(16) -0.05899(15) -0.27435(12)
F13 F 0.22253(17) -0.00903(16) -0.09044(12)
F14 F 0.10734(17) -0.12479(16) 0.03197(11)
F15 F 0.03231(16) -0.29492(16) -0.02675(11)
F16 F 0.34475(16) -0.71515(16) -0.09771(12)
F17 F 0.59650(17) -0.77077(16) -0.05547(12)
F18 F 0.77182(16) -0.71862(16) -0.17929(12)
F19 F 0.69349(16) -0.60930(17) -0.34422(12)
F20 F 0.43673(17) -0.54238(16) -0.38461(11)
S1 S -0.56623(7) 0.10705(6) -0.37038(5)
S2 S -0.22687(7) -0.05443(6) -0.19630(5)
Cu1_2 Cu -0.74645(4) 0.32830(4) -0.29944(3)
S1_2 S 0.43377(7) -0.89295(6) -0.37038(5)
loop_
_geom_bond_atom_site_label_1
_geom_bond_atom_site_label_2
_geom_bond_site_symmetry_1
_geom_bond_site_symmetry_2
C1 C2 1_555 1_555
C2 C3 1_555 1_555
C3 C4 1_555 1_555
C4 C5 1_555 1_555
C5 C6 1_555 1_555
C6 C1 1_555 1_555
C7 C8 1_555 1_555
C8 C9 1_555 1_555
C9 C10 1_555 1_555
C10 C11 1_555 1_555
C11 C12 1_555 1_555
C12 C7 1_555 1_555
C13 C14 1_555 1_555
C14 C15 1_555 1_555
C15 C16 1_555 1_555
C16 C17 1_555 1_555
C17 C18 1_555 1_555
C18 C13 1_555 1_555
C19 C20 1_555 1_555
C20 C21 1_555 1_555
C21 C22 1_555 1_555
C22 C23 1_555 1_555
C23 C24 1_555 1_555
C24 C19 1_555 1_555
C25 H1 1_555 1_555
C26 C25 1_555 1_555
H2 C26 1_555 1_555
C27 C26 1_555 1_555
H3 C27 1_555 1_555
C28 C27 1_555 1_555
C29 C28 1_555 1_555
C30 C29 1_555 1_555
H4 C30 1_555 1_555
C31 C30 1_555 1_555
H5 C31 1_555 1_555
C32 C31 1_555 1_555
H6 C32 1_555 1_555
Cu1 C1 1_555 1_555
Cu2 C1 1_555 1_555
Cu3 C7 1_555 1_555
Cu4 C13 1_555 1_555
F1 C2 1_555 1_555
F2 C3 1_555 1_555
F3 C4 1_555 1_555
F4 C5 1_555 1_555
F5 C6 1_555 1_555
F6 C8 1_555 1_555
F7 C9 1_555 1_555
F8 C10 1_555 1_555
F9 C11 1_555 1_555
F10 C12 1_555 1_555
F11 C14 1_555 1_555
F12 C15 1_555 1_555
F13 C16 1_555 1_555
F14 C17 1_555 1_555
F15 C18 1_555 1_555
F16 C20 1_555 1_555
F17 C21 1_555 1_555
F18 C22 1_555 1_555
F19 C23 1_555 1_555
F20 C24 1_555 1_555
S1 C25 1_555 1_555
S2 C29 1_555 1_555
Cu1_2 S1 1_555 1_555
S1_2 Cu1 1_555 1_555
C7 Cu2 1_555 1_555
C13 Cu3 1_555 1_555
C19 Cu1 1_555 1_555
C19 Cu4 1_555 1_555
C28 S1 1_555 1_555
C32 S2 1_555 1_555
Cu1 Cu2 1_555 1_555
Cu1 Cu4 1_555 1_555
Cu2 Cu3 1_555 1_555
Cu2 Cu4 1_555 1_555
Cu3 Cu4 1_555 1_555
Cu3 S2 1_555 1_555

#END
