
#######################################################################
#
#                 Cambridge Crystallographic Data Centre
#                                CCDC 
#
#######################################################################
#
# If this CIF has been generated from an entry in the Cambridge 
# Structural Database, then it will include bibliographic, chemical, 
# crystal, experimental, refinement or atomic coordinate data resulting 
# from the CCDC's data processing and validation procedures.
#
#######################################################################

data_DOKHUH
_symmetry_cell_setting           monoclinic
_symmetry_space_group_name_H-M   'C c'
_symmetry_Int_Tables_number      9
_space_group_name_Hall           'C -2yc'
loop_
_symmetry_equiv_pos_site_id
_symmetry_equiv_pos_as_xyz
1 x,y,z
2 x,-y,1/2+z
3 1/2+x,1/2+y,z
4 1/2+x,1/2-y,1/2+z
_cell_length_a                   14.500(5)
_cell_length_b                   18.577(5)
_cell_length_c                   15.394(5)
_cell_angle_alpha                90
_cell_angle_beta                 103.97(3)
_cell_angle_gamma                90
_cell_volume                     4023.98
loop_
_atom_site_label
_atom_site_type_symbol
_atom_site_fract_x
_atom_site_fract_y
_atom_site_fract_z
Cd1 Cd 0.61146(6) 0.20923(4) 0.11651(6)
Cd2 Cd 0.41301(6) 0.30600(4) 0.32715(6)
O1 O 0.4395(8) 0.2704(5) 0.1917(6)
O2 O 0.4805(9) 0.2784(5) 0.0635(7)
O3 O 0.0282(8) 0.2649(7) 0.0342(7)
O4 O 0.0446(7) 0.2617(5) -0.1056(6)
O5 O 0.2522(10) 0.5637(5) 0.0034(8)
O6 O 0.2619(7) 0.5106(5) -0.1206(7)
O7 O 0.6260(9) 0.1787(5) -0.0321(7)
O8 O 0.7470(7) 0.1384(6) 0.1455(8)
O9 O 0.6421(7) 0.2063(5) 0.2699(7)
O10 O 0.4005(10) 0.3429(7) 0.4686(8)
O11 O 0.2813(8) 0.3753(5) 0.2775(8)
N1 N 0.7116(11) 0.3082(6) 0.1048(9)
N2 N 1.0149(10) 0.6055(6) 0.1052(9)
N3 N 0.3230(10) 0.2028(5) 0.3285(9)
N4 N 0.0146(10) -0.0976(6) 0.3244(9)
C1 C 0.4261(10) 0.2909(5) 0.1129(9)
C2 C 0.3312(10) 0.3290(6) 0.0686(8)
C3 C 0.2482(10) 0.2902(6) 0.0475(8)
C4 C 0.2409(10) 0.2106(7) 0.0726(11)
H1 H 0.1765 0.1945 0.0516
H2 H 0.2602 0.2054 0.1365
H3 H 0.2817 0.1821 0.0455
C5 C 0.1613(10) 0.3247(7) 0.0016(8)
C6 C 0.0670(10) 0.2817(7) -0.0242(8)
C7 C 0.1610(10) 0.3968(6) -0.0234(8)
C8 C 0.0703(13) 0.4344(8) -0.0701(11)
H4 H 0.0840 0.4835 -0.0818
H5 H 0.0262 0.4332 -0.0325
H6 H 0.0430 0.4104 -0.1255
C9 C 0.2476(10) 0.4340(6) -0.0032(8)
C10 C 0.2548(12) 0.5081(7) -0.0422(10)
C11 C 0.3332(9) 0.4009(7) 0.0447(8)
C12 C 0.4268(11) 0.4440(7) 0.0687(12)
H7 H 0.4152 0.4925 0.0473
H8 H 0.4726 0.4219 0.0414
H9 H 0.4510 0.4446 0.1325
C13 C 0.6781(10) 0.3761(7) 0.0950(9)
H10 H 0.6138 0.3839 0.0907
C14 C 0.7361(11) 0.4345(7) 0.0911(12)
H11 H 0.7105 0.4807 0.0848
C15 C 0.8300(10) 0.4249(7) 0.0964(10)
C16 C 0.8616(11) 0.3553(7) 0.1027(11)
H12 H 0.9252 0.3464 0.1046
C17 C 0.8039(12) 0.2996(7) 0.1062(10)
H13 H 0.8287 0.2532 0.1097
C18 C 0.8938(10) 0.4869(7) 0.0974(9)
C19 C 0.8720(11) 0.5451(7) 0.0400(9)
H14 H 0.8145 0.5459 -0.0029
C20 C 0.9347(10) 0.6025(7) 0.0454(9)
H15 H 0.9185 0.6402 0.0048
C21 C 1.0414(9) 0.5492(7) 0.1602(11)
H16 H 1.0997 0.5507 0.2019
C22 C 0.9842(12) 0.4889(8) 0.1567(11)
H17 H 1.0057 0.4498 0.1936
C23 C 0.3379(9) 0.1393(7) 0.2984(9)
H18 H 0.3922 0.1357 0.2765
C24 C 0.2875(12) 0.0788(7) 0.2941(10)
H19 H 0.3063 0.0362 0.2716
C25 C 0.2010(11) 0.0832(7) 0.3269(9)
C26 C 0.1833(12) 0.1494(7) 0.3614(10)
H20 H 0.1300 0.1540 0.3846
C27 C 0.2397(8) 0.2075(6) 0.3628(11)
H21 H 0.2244 0.2508 0.3862
C28 C 0.1397(10) 0.0206(7) 0.3242(10)
C29 C 0.1696(11) -0.0496(7) 0.3194(10)
H22 H 0.2318 -0.0589 0.3164
C30 C 0.1073(9) -0.1064(7) 0.3190(8)
H23 H 0.1294 -0.1530 0.3149
C31 C -0.0132(10) -0.0308(7) 0.3277(13)
H24 H -0.0761 -0.0226 0.3291
C32 C 0.0452(11) 0.0288(7) 0.3293(12)
H25 H 0.0212 0.0747 0.3339
Cd1B Cd 1.11146(6) 0.70923(4) 0.11651(6)
Cd2C Cd -0.08699(6) 0.19400(4) -0.17285(6)
Cd2B Cd -0.08699(6) -0.19400(4) 0.32715(6)
O4C O 0.5446(7) 0.2383(5) 0.3944(6)
N2B N 0.5149(10) 0.1055(6) 0.1052(9)
N4B N 0.5146(10) 0.4024(6) 0.3244(9)
O12 O 0.4603(12) 0.6809(8) 0.3942(10)
O13 O 0.3037(11) 0.6155(8) 0.3147(9)
O14 O 0.1080(11) 0.6862(8) 0.7077(8)
O15 O 0.3350(14) 0.8213(10) 0.3341(13)
O16 O 0.4113(15) 0.9177(9) 0.3217(13)
O17 O 0.4736(12) 0.8129(11) 0.3183(9)
N5 N 0.4080(15) 0.8537(10) 0.3260(10)
loop_
_geom_bond_atom_site_label_1
_geom_bond_atom_site_label_2
_geom_bond_site_symmetry_1
_geom_bond_site_symmetry_2
Cd1 O2 1_555 1_555
Cd2 O1 1_555 1_555
O1 C1 1_555 1_555
O2 C1 1_555 1_555
O3 C6 1_555 1_555
O4 C6 1_555 1_555
O5 C10 1_555 1_555
O6 C10 1_555 1_555
O7 Cd1 1_555 1_555
O8 Cd1 1_555 1_555
O9 Cd1 1_555 1_555
O10 Cd2 1_555 1_555
O11 Cd2 1_555 1_555
O15 N5 1_555 1_555
O16 N5 1_555 1_555
O17 N5 1_555 1_555
N1 Cd1 1_555 1_555
N2 C20 1_555 1_555
N3 Cd2 1_555 1_555
N4 C30 1_555 1_555
C1 C2 1_555 1_555
C2 C3 1_555 1_555
C3 C4 1_555 1_555
C4 H1 1_555 1_555
H2 C4 1_555 1_555
H3 C4 1_555 1_555
C5 C3 1_555 1_555
C6 C5 1_555 1_555
C7 C5 1_555 1_555
C8 C7 1_555 1_555
H4 C8 1_555 1_555
H5 C8 1_555 1_555
H6 C8 1_555 1_555
C9 C7 1_555 1_555
C10 C9 1_555 1_555
C11 C2 1_555 1_555
C12 C11 1_555 1_555
H7 C12 1_555 1_555
H8 C12 1_555 1_555
H9 C12 1_555 1_555
C13 N1 1_555 1_555
H10 C13 1_555 1_555
C14 C13 1_555 1_555
H11 C14 1_555 1_555
C15 C14 1_555 1_555
C16 C15 1_555 1_555
H12 C16 1_555 1_555
C17 N1 1_555 1_555
H13 C17 1_555 1_555
C18 C15 1_555 1_555
C19 C18 1_555 1_555
H14 C19 1_555 1_555
C20 C19 1_555 1_555
H15 C20 1_555 1_555
C21 N2 1_555 1_555
H16 C21 1_555 1_555
C22 C18 1_555 1_555
H17 C22 1_555 1_555
C23 N3 1_555 1_555
H18 C23 1_555 1_555
C24 C23 1_555 1_555
H19 C24 1_555 1_555
C25 C24 1_555 1_555
C26 C25 1_555 1_555
H20 C26 1_555 1_555
C27 N3 1_555 1_555
H21 C27 1_555 1_555
C28 C25 1_555 1_555
C29 C28 1_555 1_555
H22 C29 1_555 1_555
C30 C29 1_555 1_555
H23 C30 1_555 1_555
C31 N4 1_555 1_555
H24 C31 1_555 1_555
C32 C28 1_555 1_555
H25 C32 1_555 1_555
Cd1B N2 1_555 1_555
Cd2C O4 1_555 1_555
Cd2B N4 1_555 1_555
O4C Cd2 1_555 1_555
N2B Cd1 1_555 1_555
N4B Cd2 1_555 1_555
C9 C11 1_555 1_555
C16 C17 1_555 1_555
C21 C22 1_555 1_555
C26 C27 1_555 1_555
C31 C32 1_555 1_555

#END
