
#######################################################################
#
#                 Cambridge Crystallographic Data Centre
#                                CCDC 
#
#######################################################################
#
# If this CIF has been generated from an entry in the Cambridge 
# Structural Database, then it will include bibliographic, chemical, 
# crystal, experimental, refinement or atomic coordinate data resulting 
# from the CCDC's data processing and validation procedures.
#
#######################################################################

data_DOKJUJ
_symmetry_cell_setting           monoclinic
_symmetry_space_group_name_H-M   'C 2/c'
_symmetry_Int_Tables_number      15
_space_group_name_Hall           '-C 2yn'
loop_
_symmetry_equiv_pos_site_id
_symmetry_equiv_pos_as_xyz
1 x,y,z
2 1/2+x,1/2+y,z
3 -x,y,1/2-z
4 1/2-x,1/2+y,1/2-z
5 -x,-y,-z
6 1/2-x,1/2-y,-z
7 x,-y,1/2+z
8 1/2+x,1/2-y,1/2+z
_cell_length_a                   26.864(3)
_cell_length_b                   17.8115(18)
_cell_length_c                   16.4104(16)
_cell_angle_alpha                90
_cell_angle_beta                 121.659(2)
_cell_angle_gamma                90
_cell_volume                     6683.67
loop_
_atom_site_label
_atom_site_type_symbol
_atom_site_fract_x
_atom_site_fract_y
_atom_site_fract_z
Ag1 Ag 0.143626(15) 0.42404(2) 0.32652(2)
Cu1 Cu 0.117108(18) 0.22119(2) 0.53777(3)
Cu2 Cu 0.199360(18) 0.36862(2) 0.66745(3)
Cu3 Cu 0.121830(19) 0.72384(2) 0.23773(3)
O1 O 0.12710(10) 0.30604(13) 0.62485(17)
H1 H 0.0983 0.3352 0.5918
N1 N 0.16393(12) 0.27666(16) 0.4989(2)
N2 N 0.20324(12) 0.32839(16) 0.5602(2)
N3 N 0.19425(13) 0.59357(17) 0.2753(2)
N4 N 0.16131(13) 0.63127(17) 0.3031(2)
N5 N 0.07867(13) 0.18636(17) 0.6681(2)
N6 N 0.07257(12) 0.16816(17) 0.5830(2)
N7 N 0.11344(13) 0.12926(17) 0.4624(2)
C1 C 0.14010(17) 0.0639(2) 0.4938(3)
H2 H 0.1671 0.0518 0.5590
N8 N 0.28089(13) 0.41118(17) 0.7260(2)
N9 N 0.28971(13) 0.48457(17) 0.7206(2)
H3 H 0.2621 0.5163 0.6823
N10 N 0.12768(13) 0.76205(17) 0.3567(2)
N11 N 0.09153(14) 0.74674(19) 0.3890(2)
H4 H 0.0587 0.7213 0.3566
C2 C 0.16854(16) 0.2726(2) 0.4217(3)
H5 H 0.1461 0.2407 0.3682
C3 C 0.21159(16) 0.3228(2) 0.4319(3)
H6 H 0.2239 0.3323 0.3882
C4 C 0.23198(16) 0.3555(2) 0.5204(3)
H7 H 0.2622 0.3920 0.5488
C5 C 0.22207(16) 0.5377(2) 0.3380(3)
H8 H 0.2479 0.5028 0.3351
C6 C 0.20749(16) 0.5385(2) 0.4076(3)
H9 H 0.2208 0.5055 0.4606
C7 C 0.16892(17) 0.5987(2) 0.3823(3)
H10 H 0.1508 0.6143 0.4161
C8 C 0.04357(16) 0.1412(2) 0.6810(3)
H11 H 0.0397 0.1420 0.7353
C9 C 0.01394(16) 0.0935(2) 0.6041(3)
H12 H -0.0137 0.0560 0.5947
C10 C 0.03324(16) 0.1123(2) 0.5441(3)
H13 H 0.0207 0.0893 0.4841
N12 N 0.07890(15) 0.1221(2) 0.3669(2)
H14 H 0.0561 0.1578 0.3284
C11 C 0.08350(19) 0.0539(3) 0.3379(3)
H15 H 0.0631 0.0361 0.2738
C12 C 0.12238(19) 0.0149(2) 0.4161(3)
H16 H 0.1352 -0.0352 0.4182
C13 C 0.34576(17) 0.5036(2) 0.7807(3)
H17 H 0.3622 0.5523 0.7894
C14 C 0.37449(17) 0.4397(3) 0.8268(3)
H18 H 0.4148 0.4348 0.8742
C15 C 0.33262(16) 0.3828(2) 0.7903(3)
H19 H 0.3400 0.3315 0.8086
C16 C 0.17194(17) 0.8009(2) 0.4262(3)
H20 H 0.2046 0.8190 0.4244
C17 C 0.1634(2) 0.8109(2) 0.5022(3)
H21 H 0.1881 0.8372 0.5601
C18 C 0.1122(2) 0.7752(2) 0.4761(3)
H22 H 0.0945 0.7714 0.5132
O2 O 0.08109(12) 0.43045(16) 0.3906(2)
H23 H 0.0572(15) 0.4646(16) 0.369(3)
H24 H 0.0649(19) 0.3884(13) 0.385(4)
O3 O 0.10858(13) 0.43685(17) 0.1606(2)
H25 H 0.0761(12) 0.457(2) 0.137(3)
H26 H 0.105(2) 0.3933(16) 0.138(4)
O4 O 0.16207(11) 0.47787(16) 0.5818(2)
H27 H 0.1469(18) 0.507(2) 0.603(3)
H28 H 0.1375(16) 0.466(3) 0.5253(17)
Cl1 Cl 0.02611(4) 0.27137(6) 0.15162(7)
O5 O -0.03619(11) 0.28330(16) 0.0962(2)
O6 O 0.05030(14) 0.28001(19) 0.0931(2)
O7 O 0.05108(13) 0.32579(19) 0.2268(2)
O8 O 0.03633(15) 0.19719(19) 0.1902(3)
Cl2 Cl 0.25673(4) 0.17912(5) 0.78176(6)
O9 O 0.21819(12) 0.14584(16) 0.6886(2)
O10 O 0.23103(11) 0.24806(15) 0.7882(2)
O11 O 0.26354(13) 0.12859(16) 0.8550(2)
O12 O 0.31229(12) 0.19469(16) 0.7932(2)
Cl3 Cl 0.00503(4) 0.59269(5) 0.11944(7)
O13 O 0.02308(12) 0.66097(16) 0.1768(2)
O14 O 0.03169(13) 0.59033(17) 0.0631(2)
O15 O 0.02397(13) 0.52788(17) 0.1812(2)
O16 O -0.05725(12) 0.59224(17) 0.0587(2)
Cu1F Cu 0.117108(18) 0.77881(2) 0.03777(3)
Cu1B Cu -0.117108(18) 0.22119(2) -0.03777(3)
Cu2F Cu 0.199360(18) 0.63138(2) 0.16745(3)
Cu3F Cu 0.121830(19) 0.27616(2) 0.73773(3)
O1F O 0.12710(10) 0.69396(13) 0.12485(17)
H1F H 0.0983 0.6648 0.0918
N3F N 0.19425(13) 0.40643(17) 0.7753(2)
N5F N 0.07867(13) 0.81364(17) 0.1681(2)
O5B O 0.03619(11) 0.28330(16) 0.4038(2)
O10F O 0.23103(11) 0.75194(15) 0.2882(2)
loop_
_geom_bond_atom_site_label_1
_geom_bond_atom_site_label_2
_geom_bond_site_symmetry_1
_geom_bond_site_symmetry_2
Ag1 C3 1_555 1_555
Cu1 O1 1_555 1_555
Cu2 O1 1_555 1_555
Cu3 N4 1_555 1_555
O1 H1 1_555 1_555
N1 Cu1 1_555 1_555
N2 Cu2 1_555 1_555
N3 N4 1_555 1_555
N4 C7 1_555 1_555
N5 N6 1_555 1_555
N6 Cu1 1_555 1_555
N7 Cu1 1_555 1_555
C1 N7 1_555 1_555
H2 C1 1_555 1_555
N8 Cu2 1_555 1_555
N9 N8 1_555 1_555
H3 N9 1_555 1_555
N10 Cu3 1_555 1_555
N11 N10 1_555 1_555
H4 N11 1_555 1_555
C2 N1 1_555 1_555
H5 C2 1_555 1_555
C3 C2 1_555 1_555
H6 C3 1_555 1_555
C4 N2 1_555 1_555
H7 C4 1_555 1_555
C5 N3 1_555 1_555
H8 C5 1_555 1_555
C6 Ag1 1_555 1_555
H9 C6 1_555 1_555
C7 C6 1_555 1_555
H10 C7 1_555 1_555
C8 N5 1_555 1_555
H11 C8 1_555 1_555
C9 C8 1_555 1_555
H12 C9 1_555 1_555
C10 N6 1_555 1_555
H13 C10 1_555 1_555
N12 N7 1_555 1_555
H14 N12 1_555 1_555
C11 N12 1_555 1_555
H15 C11 1_555 1_555
C12 C1 1_555 1_555
H16 C12 1_555 1_555
C13 N9 1_555 1_555
H17 C13 1_555 1_555
C14 C13 1_555 1_555
H18 C14 1_555 1_555
C15 N8 1_555 1_555
H19 C15 1_555 1_555
C16 N10 1_555 1_555
H20 C16 1_555 1_555
C17 C16 1_555 1_555
H21 C17 1_555 1_555
C18 N11 1_555 1_555
H22 C18 1_555 1_555
O2 Ag1 1_555 1_555
H23 O2 1_555 1_555
H24 O2 1_555 1_555
O3 Ag1 1_555 1_555
H25 O3 1_555 1_555
H26 O3 1_555 1_555
O4 Cu2 1_555 1_555
H27 O4 1_555 1_555
H28 O4 1_555 1_555
Cl1 O5 1_555 1_555
O5 Cu1B 1_555 1_555
O6 Cl1 1_555 1_555
O7 Ag1 1_555 1_555
O8 Cl1 1_555 1_555
Cl2 O9 1_555 1_555
O9 Cu1 1_555 1_555
O10 Cu2 1_555 1_555
O11 Cl2 1_555 1_555
O12 Cl2 1_555 1_555
Cl3 O13 1_555 1_555
O13 Cu3 1_555 1_555
O14 Cl3 1_555 1_555
O15 Cl3 1_555 1_555
O16 Cl3 1_555 1_555
Cu1F O1F 1_555 1_555
Cu2F N3 1_555 1_555
Cu3F O1 1_555 1_555
O1F Cu3 1_555 1_555
H1F O1F 1_555 1_555
N3F Cu2 1_555 1_555
N5F Cu3 1_555 1_555
O5B Cu1 1_555 1_555
O10F Cu3 1_555 1_555
N1 N2 1_555 1_555
N5 Cu3F 1_555 1_555
C3 C4 1_555 1_555
C5 C6 1_555 1_555
C9 C10 1_555 1_555
C11 C12 1_555 1_555
C14 C15 1_555 1_555
C17 C18 1_555 1_555
Cl1 O7 1_555 1_555
Cl2 O10 1_555 1_555
O10 Cu3F 1_555 1_555
Cu2F O1F 1_555 1_555
Cu2F O10F 1_555 1_555

#END
