
#######################################################################
#
#                 Cambridge Crystallographic Data Centre
#                                CCDC 
#
#######################################################################
#
# If this CIF has been generated from an entry in the Cambridge 
# Structural Database, then it will include bibliographic, chemical, 
# crystal, experimental, refinement or atomic coordinate data resulting 
# from the CCDC's data processing and validation procedures.
#
#######################################################################

data_DOLRUT
_symmetry_cell_setting           monoclinic
_symmetry_space_group_name_H-M   'P 21/c'
_symmetry_Int_Tables_number      14
_space_group_name_Hall           '-P 2ybc'
loop_
_symmetry_equiv_pos_site_id
_symmetry_equiv_pos_as_xyz
1 x,y,z
2 -x,1/2+y,1/2-z
3 -x,-y,-z
4 x,1/2-y,1/2+z
_cell_length_a                   10.0918(9)
_cell_length_b                   22.088(2)
_cell_length_c                   9.3879(9)
_cell_angle_alpha                90
_cell_angle_beta                 106.1390(10)
_cell_angle_gamma                90
_cell_volume                     2010.16
loop_
_atom_site_label
_atom_site_type_symbol
_atom_site_fract_x
_atom_site_fract_y
_atom_site_fract_z
Cu1 Cu 0.62812(3) 0.553293(13) 0.89540(3)
O1 O 0.06916(19) 0.72664(8) 0.5468(2)
O2 O -0.17204(17) 0.55491(7) 0.89148(19)
O3 O -0.28237(17) 0.62321(8) 0.72925(19)
O4 O 0.43681(17) 0.57968(8) 0.8201(2)
N1 N 0.3336(2) 0.12397(9) 0.4626(2)
O5 O 0.32235(18) 0.50845(8) 0.9064(2)
N2 N 0.4212(2) 0.28640(9) 0.4710(2)
H1 H 0.3896 0.3176 0.4132
O6 O 0.5835(2) 0.25831(8) 0.6810(2)
N3 N 0.5983(2) 0.47848(9) 0.7661(2)
C1 C 0.0770(2) 0.57622(11) 0.8135(3)
H2 H 0.0760 0.5419 0.8741
C2 C 0.5469(3) 0.36308(12) 0.6441(3)
C3 C -0.0422(2) 0.61056(11) 0.7585(3)
C4 C -0.1740(3) 0.59535(11) 0.7947(3)
C5 C 0.0801(3) 0.67619(11) 0.6336(3)
C6 C 0.3964(3) 0.17681(11) 0.5070(3)
H3 H 0.4644 0.1787 0.6000
C7 C 0.4519(3) 0.40947(12) 0.5975(3)
H4 H 0.3681 0.4024 0.5227
C8 C 0.6698(3) 0.37681(12) 0.7489(3)
H5 H 0.7380 0.3463 0.7818
C9 C 0.4810(3) 0.46599(12) 0.6614(3)
H6 H 0.4150 0.4974 0.6299
C10 C 0.2681(3) 0.22527(12) 0.2830(3)
H7 H 0.2468 0.2596 0.2199
C11 C 0.2376(3) 0.12082(12) 0.3318(3)
H8 H 0.1919 0.0835 0.3015
C12 C 0.2000(3) 0.64254(11) 0.6892(3)
H9 H 0.2826 0.6535 0.6662
C13 C 0.3286(3) 0.55688(11) 0.8417(3)
C14 C 0.1803(3) 0.73983(14) 0.4846(3)
H10 H 0.1568 0.7754 0.4199
H11 H 0.1961 0.7050 0.4266
H12 H 0.2642 0.7481 0.5645
C15 C -0.0399(3) 0.65982(11) 0.6688(3)
H13 H -0.1216 0.6829 0.6307
C16 C 0.1976(2) 0.59267(11) 0.7789(3)
C17 C 0.6932(3) 0.43431(12) 0.8051(3)
H14 H 0.7794 0.4433 0.8741
C18 C 0.3652(3) 0.22907(11) 0.4213(3)
C19 C 0.5193(3) 0.29759(11) 0.6000(3)
C20 C 0.2036(3) 0.17054(12) 0.2399(3)
H15 H 0.1358 0.1671 0.1470
Cu1_2 Cu -0.37188(3) 0.553293(13) 0.89540(3)
Cu1A Cu 0.37188(3) 0.053293(13) 0.60460(3)
Cu1B Cu 0.37188(3) 0.446707(13) 1.10460(3)
O2_2 O 0.82796(17) 0.55491(7) 0.89148(19)
O3_2 O 0.71763(17) 0.62321(8) 0.72925(19)
N1A N 0.6664(2) 0.62397(9) 1.0374(2)
O5B O 0.67765(18) 0.49155(8) 1.0936(2)
loop_
_geom_bond_atom_site_label_1
_geom_bond_atom_site_label_2
_geom_bond_site_symmetry_1
_geom_bond_site_symmetry_2
Cu1 O4 1_555 1_555
O1 C5 1_555 1_555
O2 C4 1_555 1_555
O3 C4 1_555 1_555
O4 C13 1_555 1_555
N1 C6 1_555 1_555
O5 C13 1_555 1_555
N2 H1 1_555 1_555
O6 C19 1_555 1_555
N3 Cu1 1_555 1_555
C1 H2 1_555 1_555
C2 C7 1_555 1_555
C3 C1 1_555 1_555
C4 C3 1_555 1_555
C5 C12 1_555 1_555
C6 H3 1_555 1_555
C7 H4 1_555 1_555
C8 C2 1_555 1_555
H5 C8 1_555 1_555
C9 N3 1_555 1_555
H6 C9 1_555 1_555
C10 H7 1_555 1_555
C11 N1 1_555 1_555
H8 C11 1_555 1_555
C12 H9 1_555 1_555
C13 C16 1_555 1_555
C14 O1 1_555 1_555
H10 C14 1_555 1_555
H11 C14 1_555 1_555
H12 C14 1_555 1_555
C15 C3 1_555 1_555
H13 C15 1_555 1_555
C16 C1 1_555 1_555
C17 N3 1_555 1_555
H14 C17 1_555 1_555
C18 N2 1_555 1_555
C19 N2 1_555 1_555
C20 C10 1_555 1_555
H15 C20 1_555 1_555
Cu1_2 O2 1_555 1_555
Cu1A N1 1_555 1_555
Cu1B O5 1_555 1_555
O2_2 Cu1 1_555 1_555
O3_2 Cu1 1_555 1_555
N1A Cu1 1_555 1_555
O5B Cu1 1_555 1_555
O3 Cu1_2 1_555 1_555
C2 C19 1_555 1_555
C5 C15 1_555 1_555
C6 C18 1_555 1_555
C7 C9 1_555 1_555
C8 C17 1_555 1_555
C10 C18 1_555 1_555
C11 C20 1_555 1_555
C12 C16 1_555 1_555

#END
