
#######################################################################
#
#                 Cambridge Crystallographic Data Centre
#                                CCDC 
#
#######################################################################
#
# If this CIF has been generated from an entry in the Cambridge 
# Structural Database, then it will include bibliographic, chemical, 
# crystal, experimental, refinement or atomic coordinate data resulting 
# from the CCDC's data processing and validation procedures.
#
#######################################################################

data_DOLRON
_symmetry_cell_setting           monoclinic
_symmetry_space_group_name_H-M   'P 21/c'
_symmetry_Int_Tables_number      14
_space_group_name_Hall           '-P 2ybc'
loop_
_symmetry_equiv_pos_site_id
_symmetry_equiv_pos_as_xyz
1 x,y,z
2 -x,1/2+y,1/2-z
3 -x,-y,-z
4 x,1/2-y,1/2+z
_cell_length_a                   10.0955(14)
_cell_length_b                   22.047(3)
_cell_length_c                   8.7367(12)
_cell_angle_alpha                90
_cell_angle_beta                 100.022(2)
_cell_angle_gamma                90
_cell_volume                     1914.9
loop_
_atom_site_label
_atom_site_type_symbol
_atom_site_fract_x
_atom_site_fract_y
_atom_site_fract_z
Cu1 Cu 0.36807(3) 0.551128(14) 0.11415(4)
O1 O 0.17095(18) 0.55212(8) 0.1305(2)
O2 O -0.44955(17) 0.58043(8) 0.1835(2)
O3 O -0.32361(18) 0.51081(8) 0.0902(2)
O4 O 0.5940(2) 0.75556(9) 0.1500(2)
N1 N 0.3340(2) 0.62224(10) -0.0344(3)
N2 N 0.6043(2) 0.97599(10) 0.2516(3)
O5 O 0.25974(18) 0.62652(8) 0.2851(2)
N3 N 0.4224(2) 0.78451(10) -0.0400(3)
H1 H 0.3881 0.8162 -0.0942
C1 C -0.2268(3) 0.64795(12) 0.3093(3)
H2 H -0.3130 0.6597 0.3285
C2 C 0.3981(3) 0.67490(11) 0.0021(3)
H3 H 0.4684 0.6764 0.0897
C3 C -0.3378(3) 0.55903(12) 0.1579(3)
C4 C 0.5528(3) 0.86046(12) 0.1244(3)
C5 C 0.0089(3) 0.66451(12) 0.3390(3)
H4 H 0.0864 0.6878 0.3790
C6 C 0.2651(3) 0.72406(12) -0.2150(3)
H5 H 0.2417 0.7588 -0.2784
C7 C 0.5260(3) 0.79510(12) 0.0787(3)
C8 C 0.3647(3) 0.72753(12) -0.0846(3)
C9 C -0.0900(3) 0.57879(12) 0.1913(3)
H6 H -0.0818 0.5437 0.1304
C10 C -0.2151(3) 0.59629(11) 0.2214(3)
C11 C -0.1149(3) 0.68290(12) 0.3700(3)
C12 C 0.4884(3) 0.96318(12) 0.1560(3)
H7 H 0.4231 0.9944 0.1329
C13 C 0.0234(3) 0.61299(12) 0.2510(3)
C14 C 0.2367(3) 0.61946(13) -0.1592(3)
H8 H 0.1916 0.5821 -0.1848
C15 C 0.6964(3) 0.93185(13) 0.2782(3)
H9 H 0.7809 0.9407 0.3409
C16 C 0.2001(3) 0.66941(13) -0.2518(3)
H10 H 0.1308 0.6663 -0.3402
C17 C 0.4596(3) 0.90680(12) 0.0898(3)
H11 H 0.3770 0.8999 0.0214
C18 C 0.1603(3) 0.59623(12) 0.2209(3)
C19 C 0.6743(3) 0.87411(13) 0.2186(4)
H12 H 0.7419 0.8439 0.2420
C20 C -0.1279(3) 0.73899(13) 0.4654(4)
H13 H -0.2210 0.7536 0.4433
H14 H -0.0676 0.7706 0.4385
H15 H -0.1036 0.7292 0.5761
Cu1_2 Cu -0.63193(3) 0.551128(14) 0.11415(4)
Cu1A Cu 0.63193(3) 1.051128(14) 0.38585(4)
Cu1B Cu -0.36807(3) 0.448872(14) -0.11415(4)
O2_2 O 0.55045(17) 0.58043(8) 0.1835(2)
O3B O 0.32361(18) 0.48919(8) -0.0902(2)
N2A N 0.3957(2) 0.47599(10) 0.2484(3)
loop_
_geom_bond_atom_site_label_1
_geom_bond_atom_site_label_2
_geom_bond_site_symmetry_1
_geom_bond_site_symmetry_2
Cu1 O1 1_555 1_555
O1 C18 1_555 1_555
O2 C3 1_555 1_555
O3 C3 1_555 1_555
O4 C7 1_555 1_555
N1 Cu1 1_555 1_555
N2 C12 1_555 1_555
O5 Cu1 1_555 1_555
N3 H1 1_555 1_555
C1 H2 1_555 1_555
C2 N1 1_555 1_555
H3 C2 1_555 1_555
C3 C10 1_555 1_555
C4 C7 1_555 1_555
C5 H4 1_555 1_555
C6 H5 1_555 1_555
C7 N3 1_555 1_555
C8 N3 1_555 1_555
C9 H6 1_555 1_555
C10 C1 1_555 1_555
C11 C1 1_555 1_555
C12 H7 1_555 1_555
C13 C5 1_555 1_555
C14 N1 1_555 1_555
H8 C14 1_555 1_555
C15 N2 1_555 1_555
H9 C15 1_555 1_555
C16 C6 1_555 1_555
H10 C16 1_555 1_555
C17 C4 1_555 1_555
H11 C17 1_555 1_555
C18 O5 1_555 1_555
C19 C4 1_555 1_555
H12 C19 1_555 1_555
C20 C11 1_555 1_555
H13 C20 1_555 1_555
H14 C20 1_555 1_555
H15 C20 1_555 1_555
Cu1_2 O2 1_555 1_555
Cu1A N2 1_555 1_555
Cu1B O3 1_555 1_555
O2_2 Cu1 1_555 1_555
O3B Cu1 1_555 1_555
N2A Cu1 1_555 1_555
C2 C8 1_555 1_555
C5 C11 1_555 1_555
C6 C8 1_555 1_555
C9 C10 1_555 1_555
C9 C13 1_555 1_555
C12 C17 1_555 1_555
C13 C18 1_555 1_555
C14 C16 1_555 1_555
C15 C19 1_555 1_555

#END
