
#######################################################################
#
#                 Cambridge Crystallographic Data Centre
#                                CCDC 
#
#######################################################################
#
# If this CIF has been generated from an entry in the Cambridge 
# Structural Database, then it will include bibliographic, chemical, 
# crystal, experimental, refinement or atomic coordinate data resulting 
# from the CCDC's data processing and validation procedures.
#
#######################################################################

data_DOLSII
_symmetry_cell_setting           monoclinic
_symmetry_space_group_name_H-M   'C c'
_symmetry_Int_Tables_number      9
_space_group_name_Hall           'C -2yc'
loop_
_symmetry_equiv_pos_site_id
_symmetry_equiv_pos_as_xyz
1 x,y,z
2 x,-y,1/2+z
3 1/2+x,1/2+y,z
4 1/2+x,1/2-y,1/2+z
_cell_length_a                   15.8684(16)
_cell_length_b                   12.5265(13)
_cell_length_c                   19.441(2)
_cell_angle_alpha                90
_cell_angle_beta                 103.4310(10)
_cell_angle_gamma                90
_cell_volume                     3758.7
loop_
_atom_site_label
_atom_site_type_symbol
_atom_site_fract_x
_atom_site_fract_y
_atom_site_fract_z
Cu1 Cu 0.38572(4) 0.43880(5) 0.18999(3)
Cu2 Cu 0.61595(4) 0.42818(5) 0.11889(3)
C1 C 0.5257(5) 0.4233(5) 0.3242(4)
H1 H 0.5268 0.4990 0.3227
O1 O 0.2128(3) 0.0263(3) 0.1106(2)
C2 C 0.2279(5) 0.0822(5) -0.2345(4)
H2 H 0.2131 0.0090 -0.2326
O2 O 0.2330(3) -0.1049(4) 0.0398(3)
N1 N 0.1968(3) 0.1348(4) -0.2941(2)
N2 N 0.4673(3) 0.3698(4) 0.2739(3)
O3 O 0.7891(2) 0.8393(3) 0.2022(2)
O4 O 0.7184(3) 0.2519(4) 0.4640(3)
O5 O 0.4421(2) 0.5797(3) 0.2076(2)
O6 O 0.4156(3) 0.2267(3) -0.0727(2)
C3 C 0.6338(4) 0.7466(4) 0.2249(3)
H3 H 0.6685 0.7024 0.2030
C4 C 0.2721(5) 0.2873(6) -0.2409(4)
H4 H 0.2870 0.3599 -0.2455
C5 C 0.3039(4) 0.2330(5) -0.1782(3)
O7 O 0.7792(3) 0.9705(4) 0.2759(3)
N3 N 0.6296(3) 0.1069(4) 0.4560(3)
H5 H 0.5767 0.0844 0.4375
C6 C 0.6641(4) 0.8451(4) 0.2515(3)
C7 C 0.2801(4) 0.1274(5) -0.1753(4)
H6 H 0.2994 0.0868 -0.1333
C8 C 0.4126(4) 0.4591(5) -0.0637(3)
C9 C 0.5105(4) 0.5942(5) 0.0330(3)
H7 H 0.5453 0.6416 0.0659
C10 C 0.7517(4) 0.8873(5) 0.2427(3)
N4 N 0.3635(3) 0.3912(4) -0.1134(3)
H8 H 0.3259 0.4219 -0.1482
C11 C 0.5518(4) 0.7118(5) 0.2304(3)
C12 C 0.6503(4) 0.2072(5) 0.4379(3)
C13 C 0.3663(4) 0.2821(5) -0.1150(3)
C14 C 0.5244(4) 0.2074(5) 0.3297(3)
H9 H 0.5224 0.1316 0.3302
C15 C 0.5830(4) 0.2609(5) 0.3807(3)
C16 C 0.3903(4) 0.5661(5) -0.0635(3)
H10 H 0.3406 0.5923 -0.0963
C17 C 0.4847(5) 0.4240(5) -0.0127(4)
H11 H 0.5011 0.3510 -0.0122
N5 N 0.5313(3) 0.4909(4) 0.0355(3)
C18 C 0.2187(4) 0.2348(5) -0.2963(4)
H12 H 0.1965 0.2737 -0.3386
C19 C 0.2592(4) -0.0253(5) 0.0762(4)
C20 C 0.5021(4) 0.7781(5) 0.2615(4)
H13 H 0.4462 0.7556 0.2652
C21 C 0.5330(5) 0.8778(6) 0.2878(5)
H14 H 0.4987 0.9230 0.3095
C22 C 0.4413(4) 0.6343(5) -0.0151(3)
H15 H 0.4281 0.7083 -0.0153
O8 O 0.4279(3) 0.3291(3) 0.1183(2)
O9 O 0.5725(3) 0.5371(3) 0.1912(2)
C23 C 0.4827(4) 0.2647(5) 0.1094(3)
C24 C 0.5210(4) 0.6007(4) 0.2074(3)
O10 O 0.5604(2) 0.2876(3) 0.1059(2)
C25 C 0.3744(4) 0.1179(5) 0.0945(3)
H16 H 0.3315 0.1704 0.0954
C26 C 0.3511(4) 0.0100(5) 0.0850(3)
C27 C 0.4148(4) -0.0669(5) 0.0873(4)
H17 H 0.3997 -0.1404 0.0820
C28 C 0.5835(4) 0.3712(5) 0.3774(3)
H18 H 0.6236 0.4109 0.4118
C29 C 0.4596(4) 0.1475(5) 0.1024(3)
C30 C 0.5226(4) 0.0711(5) 0.1040(3)
H19 H 0.5814 0.0918 0.1097
C31 C 0.4688(4) 0.2630(5) 0.2780(4)
H20 H 0.4291 0.2239 0.2429
C32 C 0.6133(4) 0.9094(6) 0.2819(4)
H21 H 0.6344 0.9775 0.2993
N6 N 0.8014(3) 0.0023(4) 0.6028(3)
C33 C 0.6856(4) 0.0359(5) 0.5018(3)
C34 C 0.6748(4) -0.0725(5) 0.4906(3)
H22 H 0.6307 -0.0987 0.4526
C35 C 0.5000(4) -0.0359(5) 0.0973(4)
H23 H 0.5438 -0.0884 0.0996
C36 C 0.7904(4) -0.1014(5) 0.5907(3)
H24 H 0.8266 -0.1500 0.6218
C37 C 0.7504(4) 0.0722(5) 0.5593(4)
H25 H 0.7584 0.1466 0.5675
C38 C 0.7284(4) -0.1419(5) 0.5347(3)
H26 H 0.7230 -0.2167 0.5269
Cu1B Cu 0.88572(4) 0.93880(5) 0.18999(3)
Cu1C Cu 0.88572(4) 0.06120(5) 0.68999(3)
Cu2B Cu 0.11595(4) -0.07182(5) 0.11889(3)
Cu2C Cu 0.11595(4) 0.07182(5) -0.38111(3)
O1B O 0.7128(3) 0.5263(3) 0.1106(2)
O2B O 0.7330(3) 0.3951(4) 0.0398(3)
N1C N 0.6968(3) 0.3652(4) 0.2059(2)
O3B O 0.2891(2) 0.3393(3) 0.2022(2)
O7B O 0.2792(3) 0.4705(4) 0.2759(3)
N6C N 0.3014(3) 0.4977(4) 0.1028(3)
O11 O 0.4619(3) -0.0084(4) -0.0831(2)
H27 H 0.4651 0.0576 -0.0688
H28 H 0.4178 -0.0393 -0.0720
O12 O 0.3113(4) -0.1335(5) -0.0766(4)
H29 H 0.2545 -0.1384 -0.0899
H30 H 0.3309 -0.1626 -0.1158
loop_
_geom_bond_atom_site_label_1
_geom_bond_atom_site_label_2
_geom_bond_site_symmetry_1
_geom_bond_site_symmetry_2
Cu1 N2 1_555 1_555
Cu2 N5 1_555 1_555
C1 H1 1_555 1_555
O1 C19 1_555 1_555
C2 H2 1_555 1_555
O2 C19 1_555 1_555
N1 C2 1_555 1_555
N2 C1 1_555 1_555
O3 C10 1_555 1_555
O4 C12 1_555 1_555
O5 Cu1 1_555 1_555
O6 C13 1_555 1_555
C3 H3 1_555 1_555
C4 H4 1_555 1_555
C5 C4 1_555 1_555
O7 C10 1_555 1_555
N3 H5 1_555 1_555
C6 C3 1_555 1_555
C7 C2 1_555 1_555
H6 C7 1_555 1_555
C8 N4 1_555 1_555
C9 H7 1_555 1_555
C10 C6 1_555 1_555
N4 H8 1_555 1_555
C11 C3 1_555 1_555
C12 N3 1_555 1_555
C13 C5 1_555 1_555
C14 H9 1_555 1_555
C15 C12 1_555 1_555
C16 C8 1_555 1_555
H10 C16 1_555 1_555
C17 C8 1_555 1_555
H11 C17 1_555 1_555
N5 C9 1_555 1_555
C18 N1 1_555 1_555
H12 C18 1_555 1_555
C19 C26 1_555 1_555
C20 C11 1_555 1_555
H13 C20 1_555 1_555
C21 C20 1_555 1_555
H14 C21 1_555 1_555
C22 C9 1_555 1_555
H15 C22 1_555 1_555
O8 Cu1 1_555 1_555
O9 Cu2 1_555 1_555
C23 O8 1_555 1_555
C24 O5 1_555 1_555
O10 Cu2 1_555 1_555
C25 H16 1_555 1_555
C26 C25 1_555 1_555
C27 C26 1_555 1_555
H17 C27 1_555 1_555
C28 C1 1_555 1_555
H18 C28 1_555 1_555
C29 C23 1_555 1_555
C30 C29 1_555 1_555
H19 C30 1_555 1_555
C31 N2 1_555 1_555
H20 C31 1_555 1_555
C32 C6 1_555 1_555
H21 C32 1_555 1_555
N6 C36 1_555 1_555
C33 N3 1_555 1_555
C34 C33 1_555 1_555
H22 C34 1_555 1_555
C35 C27 1_555 1_555
H23 C35 1_555 1_555
C36 H24 1_555 1_555
C37 N6 1_555 1_555
H25 C37 1_555 1_555
C38 C34 1_555 1_555
H26 C38 1_555 1_555
O11 H27 1_555 1_555
H28 O11 1_555 1_555
O12 H29 1_555 1_555
H30 O12 1_555 1_555
Cu1B O3 1_555 1_555
Cu1C N6 1_555 1_555
Cu2B O1 1_555 1_555
Cu2C N1 1_555 1_555
O1B Cu2 1_555 1_555
O2B Cu2 1_555 1_555
N1C Cu2 1_555 1_555
O3B Cu1 1_555 1_555
O7B Cu1 1_555 1_555
N6C Cu1 1_555 1_555
O2 Cu2B 1_555 1_555
C4 C18 1_555 1_555
C5 C7 1_555 1_555
O7 Cu1B 1_555 1_555
N4 C13 1_555 1_555
C11 C24 1_555 1_555
C14 C15 1_555 1_555
C14 C31 1_555 1_555
C15 C28 1_555 1_555
C16 C22 1_555 1_555
C17 N5 1_555 1_555
C21 C32 1_555 1_555
O9 C24 1_555 1_555
C23 O10 1_555 1_555
C25 C29 1_555 1_555
C30 C35 1_555 1_555
C33 C37 1_555 1_555
C36 C38 1_555 1_555

#END
