
#######################################################################
#
#                 Cambridge Crystallographic Data Centre
#                                CCDC 
#
#######################################################################
#
# If this CIF has been generated from an entry in the Cambridge 
# Structural Database, then it will include bibliographic, chemical, 
# crystal, experimental, refinement or atomic coordinate data resulting 
# from the CCDC's data processing and validation procedures.
#
#######################################################################

data_DOLZIP
_symmetry_cell_setting           monoclinic
_symmetry_space_group_name_H-M   'P c'
_symmetry_Int_Tables_number      7
_space_group_name_Hall           'P -2yc'
loop_
_symmetry_equiv_pos_site_id
_symmetry_equiv_pos_as_xyz
1 x,y,z
2 x,-y,1/2+z
_cell_length_a                   7.4112(15)
_cell_length_b                   15.955(3)
_cell_length_c                   7.7917(16)
_cell_angle_alpha                90
_cell_angle_beta                 113.16(3)
_cell_angle_gamma                90
_cell_volume                     847.085
loop_
_atom_site_label
_atom_site_type_symbol
_atom_site_fract_x
_atom_site_fract_y
_atom_site_fract_z
Pb1 Pb 1.00061(9) 1.05668(2) 0.24891(9)
S1 S 1.3025(4) 0.9286(2) 0.5952(4)
S2 S 1.1719(4) 0.76441(19) 0.3784(4)
S3 S 0.7257(4) 0.99047(18) 0.4157(4)
S4 S 0.4885(4) 0.86320(19) 0.1235(4)
N1 N 1.0515(11) 0.9047(6) 0.2405(12)
N2 N 0.9564(13) 0.8512(6) 0.0990(11)
N3 N 0.7290(17) 0.5668(7) -0.1982(18)
N4 N 0.7534(13) 0.8214(6) 0.4411(13)
N5 N 0.6738(14) 0.7496(8) 0.3474(14)
N6 N 0.2284(18) 0.5595(7) -0.1675(18)
C1 C 1.1689(14) 0.8728(7) 0.3982(14)
C2 C 1.0036(14) 0.7707(7) 0.1558(14)
C3 C 0.9094(13) 0.7030(7) 0.0320(13)
C4 C 0.7737(18) 0.7139(8) -0.1506(17)
H1 H 0.7415 0.7676 -0.1998
C5 C 0.6877(18) 0.6452(9) -0.2576(17)
H2 H 0.5955 0.6541 -0.3782
C6 C 0.9533(18) 0.6211(7) 0.0941(17)
H3 H 1.0448 0.6102 0.2141
C7 C 0.858(2) 0.5547(7) -0.026(2)
H4 H 0.8878 0.5001 0.0180
C8 C 0.6641(14) 0.8888(6) 0.3381(15)
C9 C 0.5398(14) 0.7600(8) 0.1846(15)
C10 C 0.4331(14) 0.6906(7) 0.0616(15)
C11 C 0.2887(16) 0.7059(7) -0.1160(16)
H5 H 0.2578 0.7603 -0.1609
C12 C 0.1915(18) 0.6367(8) -0.2245(18)
H6 H 0.0960 0.6466 -0.3431
C13 C 0.4736(17) 0.6034(8) 0.1182(18)
H7 H 0.5727 0.5884 0.2314
C14 C 0.363(2) 0.5467(10) 0.001(2)
H8 H 0.3825 0.4914 0.0427
Pb1A Pb 1.00061(9) 0.94332(2) 0.74891(9)
S1A S 1.3025(4) 1.0714(2) 0.0952(4)
S3A S 0.7257(4) 1.00953(18) -0.0843(4)
loop_
_geom_bond_atom_site_label_1
_geom_bond_atom_site_label_2
_geom_bond_site_symmetry_1
_geom_bond_site_symmetry_2
Pb1 S3 1_555 1_555
S1 C1 1_555 1_555
S2 C1 1_555 1_555
S3 C8 1_555 1_555
S4 C8 1_555 1_555
N1 Pb1 1_555 1_555
N2 N1 1_555 1_555
N3 C5 1_555 1_555
N4 N5 1_555 1_555
N5 C9 1_555 1_555
N6 C12 1_555 1_555
C1 N1 1_555 1_555
C2 S2 1_555 1_555
C3 C2 1_555 1_555
C4 C3 1_555 1_555
H1 C4 1_555 1_555
C5 C4 1_555 1_555
H2 C5 1_555 1_555
C6 C3 1_555 1_555
H3 C6 1_555 1_555
C7 N3 1_555 1_555
H4 C7 1_555 1_555
C8 N4 1_555 1_555
C9 S4 1_555 1_555
C10 C9 1_555 1_555
C11 C10 1_555 1_555
H5 C11 1_555 1_555
C12 C11 1_555 1_555
H6 C12 1_555 1_555
C13 C10 1_555 1_555
H7 C13 1_555 1_555
C14 N6 1_555 1_555
H8 C14 1_555 1_555
Pb1A S1 1_555 1_555
S1A Pb1 1_555 1_555
S3A Pb1 1_555 1_555
S3 Pb1A 1_555 1_555
N2 C2 1_555 1_555
C6 C7 1_555 1_555
C13 C14 1_555 1_555

#END
