
#######################################################################
#
#                 Cambridge Crystallographic Data Centre
#                                CCDC 
#
#######################################################################
#
# If this CIF has been generated from an entry in the Cambridge 
# Structural Database, then it will include bibliographic, chemical, 
# crystal, experimental, refinement or atomic coordinate data resulting 
# from the CCDC's data processing and validation procedures.
#
#######################################################################

data_DOMDAL
_symmetry_cell_setting           tetragonal
_symmetry_space_group_name_H-M   'I 41/a'
_symmetry_Int_Tables_number      88
_space_group_name_Hall           '-I 4ad'
loop_
_symmetry_equiv_pos_site_id
_symmetry_equiv_pos_as_xyz
1 x,y,z
2 3/4-y,1/4+x,1/4+z
3 1/4+y,1/4-x,1/4+z
4 1/2+x,1/2+y,1/2+z
5 1/4-y,3/4+x,3/4+z
6 -x,1/2-y,z
7 1/2-x,-y,1/2+z
8 3/4+y,3/4-x,3/4+z
9 -x,-y,-z
10 1/4+y,3/4-x,3/4-z
11 3/4-y,3/4+x,3/4-z
12 1/2-x,1/2-y,1/2-z
13 3/4+y,1/4-x,1/4-z
14 x,1/2+y,-z
15 1/2+x,y,1/2-z
16 1/4-y,1/4+x,1/4-z
_cell_length_a                   28.486(5)
_cell_length_b                   28.486(5)
_cell_length_c                   46.678(5)
_cell_angle_alpha                90
_cell_angle_beta                 90
_cell_angle_gamma                90
_cell_volume                     37877
loop_
_atom_site_label
_atom_site_type_symbol
_atom_site_fract_x
_atom_site_fract_y
_atom_site_fract_z
Tb1 Tb 0.79547(2) 0.16387(2) 0.254157(13)
C1 C 0.6781(5) 0.0934(4) 0.3020(5)
C2 C 0.6425(5) 0.0684(5) 0.2881(3)
C3 C 0.6000(4) 0.0610(4) 0.3007(3)
C4 C 0.5903(4) 0.0758(4) 0.3281(2)
C5 C 0.6269(5) 0.0969(4) 0.3424(2)
C6 C 0.6709(4) 0.1051(4) 0.3298(3)
C7 C 0.5424(4) 0.0697(7) 0.3405(3)
H1 H 0.5392 0.0378 0.3330
C8 C 0.3732(5) 0.1365(4) 0.2789(3)
C9 C 0.4177(4) 0.1188(4) 0.2957(2)
C10 C 0.4198(4) 0.0749(4) 0.3074(2)
C11 C 0.4600(5) 0.0600(4) 0.3218(2)
C12 C 0.5004(4) 0.0871(4) 0.32483(19)
C13 C 0.4986(4) 0.1318(4) 0.3121(2)
C14 C 0.4579(4) 0.1472(3) 0.2976(2)
C15 C 0.5051(6) 0.0041(5) 0.4565(3)
C16 C 0.5150(4) 0.0214(4) 0.4270(2)
C17 C 0.5006(3) 0.0644(4) 0.4180(2)
C18 C 0.5111(4) 0.0812(4) 0.3908(2)
C19 C 0.5353(4) 0.0546(4) 0.3710(2)
C20 C 0.5511(4) 0.0115(5) 0.3800(2)
C21 C 0.5400(4) -0.0050(4) 0.4084(2)
C22 C 0.8537(6) 0.2596(9) 0.2612(3)
H2 H 0.8279 0.2731 0.2545
C23 C 0.9327(9) 0.2682(11) 0.2780(6)
H3 H 0.9391 0.2776 0.2973
H4 H 0.9582 0.2776 0.2658
H5 H 0.9292 0.2347 0.2772
C24 C 0.8871(8) 0.3426(8) 0.2662(5)
H6 H 0.8554 0.3512 0.2615
H7 H 0.9079 0.3535 0.2515
H8 H 0.8957 0.3565 0.2842
C25 C 0.7698(7) 0.1019(8) 0.1957(6)
H9 H 0.7847 0.1236 0.1847
C26 C 0.7571(9) 0.0603(9) 0.1498(5)
H10 H 0.7742 0.0872 0.1431
H11 H 0.7269 0.0592 0.1407
H12 H 0.7743 0.0323 0.1452
N1 N 0.7510(6) 0.0635(7) 0.1811(5)
N2 N 0.8906(7) 0.2900(6) 0.2685(3)
O1 O 0.7281(6) 0.1295(6) 0.2742(3)
O2 O 0.7493(9) 0.0811(10) 0.2962(6)
O3 O 0.3476(3) 0.1641(3) 0.29144(19)
O4 O 0.3658(4) 0.1215(3) 0.2555(2)
O5 O 0.4662(4) -0.0157(3) 0.45928(17)
O6 O 0.5354(4) 0.0090(3) 0.4757(2)
O7 O 0.8539(4) 0.2188(4) 0.2628(2)
O8 O 0.7658(4) 0.1069(4) 0.2213(2)
O9 O 0.8375(5) 0.1296(5) 0.2976(3)
H13 H 0.8192 0.1281 0.3112
Cl1 Cl 0.65424(18) 0.04925(18) 0.25341(10)
Cl2 Cl 0.55925(13) 0.03083(13) 0.28092(8)
Cl3 Cl 0.61937(11) 0.11727(12) 0.37772(6)
Cl4 Cl 0.71430(13) 0.13292(16) 0.34901(10)
Cl5 Cl 0.37107(13) 0.03974(12) 0.30546(9)
Cl6 Cl 0.45896(12) 0.00313(11) 0.33537(8)
Cl7 Cl 0.54419(9) 0.16999(11) 0.31439(6)
Cl8 Cl 0.45628(12) 0.20219(10) 0.28251(7)
Cl9 Cl 0.46993(11) 0.09915(10) 0.44179(6)
Cl10 Cl 0.49451(10) 0.13807(10) 0.38254(6)
Cl11 Cl 0.58138(14) -0.02597(14) 0.35717(7)
Cl12 Cl 0.55979(15) -0.06048(12) 0.41843(8)
C27 C 0.7143(7) 0.1033(9) 0.2890(6)
C28 C 0.7287(19) 0.0269(16) 0.1941(8)
H14 H 0.7187 0.0047 0.1799
H15 H 0.7019 0.0384 0.2044
H16 H 0.7499 0.0119 0.2072
H17 H 0.8394 0.1522 0.3097
Tb1N Tb 0.29547(2) 0.16387(2) 0.245843(13)
Tb1I Tb 0.41387(2) -0.04547(2) 0.495843(13)
Tb1A Tb 0.58613(2) 0.04547(2) 0.504157(13)
O3N O 0.8476(3) 0.1641(3) 0.20856(19)
O4N O 0.8658(4) 0.1215(3) 0.2445(2)
O5J O 0.7657(3) 0.2162(4) 0.29072(17)
O6G O 0.7590(3) 0.2146(4) 0.2257(2)
loop_
_geom_bond_atom_site_label_1
_geom_bond_atom_site_label_2
_geom_bond_site_symmetry_1
_geom_bond_site_symmetry_2
Tb1 O1 1_555 1_555
C1 C2 1_555 1_555
C2 C3 1_555 1_555
C3 C4 1_555 1_555
C4 C5 1_555 1_555
C5 C6 1_555 1_555
C6 C1 1_555 1_555
C7 C4 1_555 1_555
H1 C7 1_555 1_555
C8 C9 1_555 1_555
C9 C10 1_555 1_555
C10 C11 1_555 1_555
C11 C12 1_555 1_555
C12 C7 1_555 1_555
C13 C12 1_555 1_555
C14 C9 1_555 1_555
C15 C16 1_555 1_555
C16 C17 1_555 1_555
C17 C18 1_555 1_555
C18 C19 1_555 1_555
C19 C7 1_555 1_555
C20 C19 1_555 1_555
C21 C16 1_555 1_555
C22 H2 1_555 1_555
C23 H3 1_555 1_555
H4 C23 1_555 1_555
H5 C23 1_555 1_555
C24 H6 1_555 1_555
H7 C24 1_555 1_555
H8 C24 1_555 1_555
C25 H9 1_555 1_555
C26 H10 1_555 1_555
H11 C26 1_555 1_555
H12 C26 1_555 1_555
N1 C25 1_555 1_555
N2 C22 1_555 1_555
O1 C27 1_555 1_555
O2 C27 1_555 1_555
O3 C8 1_555 1_555
O4 C8 1_555 1_555
O5 C15 1_555 1_555
O6 C15 1_555 1_555
O7 Tb1 1_555 1_555
O8 Tb1 1_555 1_555
O9 Tb1 1_555 1_555
H13 O9 1_555 1_555
Cl1 C2 1_555 1_555
Cl2 C3 1_555 1_555
Cl3 C5 1_555 1_555
Cl4 C6 1_555 1_555
Cl5 C10 1_555 1_555
Cl6 C11 1_555 1_555
Cl7 C13 1_555 1_555
Cl8 C14 1_555 1_555
Cl9 C17 1_555 1_555
Cl10 C18 1_555 1_555
Cl11 C20 1_555 1_555
Cl12 C21 1_555 1_555
C27 C1 1_555 1_555
C28 N1 1_555 1_555
H14 C28 1_555 1_555
H15 C28 1_555 1_555
H16 C28 1_555 1_555
H17 O9 1_555 1_555
Tb1N O3 1_555 1_555
Tb1I O5 1_555 1_555
Tb1A O6 1_555 1_555
O3N Tb1 1_555 1_555
O4N Tb1 1_555 1_555
O5J Tb1 1_555 1_555
O6G Tb1 1_555 1_555
C13 C14 1_555 1_555
C20 C21 1_555 1_555
C22 O7 1_555 1_555
C23 N2 1_555 1_555
C24 N2 1_555 1_555
C25 O8 1_555 1_555
C26 N1 1_555 1_555
O4 Tb1N 1_555 1_555

#END
