
#######################################################################
#
#                 Cambridge Crystallographic Data Centre
#                                CCDC 
#
#######################################################################
#
# If this CIF has been generated from an entry in the Cambridge 
# Structural Database, then it will include bibliographic, chemical, 
# crystal, experimental, refinement or atomic coordinate data resulting 
# from the CCDC's data processing and validation procedures.
#
#######################################################################

data_DOMFOC
_symmetry_cell_setting           monoclinic
_symmetry_space_group_name_H-M   'C 2/m'
_symmetry_Int_Tables_number      12
_space_group_name_Hall           '-C 2y'
loop_
_symmetry_equiv_pos_site_id
_symmetry_equiv_pos_as_xyz
1 x,y,z
2 -x,y,-z
3 1/2+x,1/2+y,z
4 1/2-x,1/2+y,-z
5 -x,-y,-z
6 x,-y,z
7 1/2-x,1/2-y,-z
8 1/2+x,1/2-y,z
_cell_length_a                   32.9517(15)
_cell_length_b                   35.3409(16)
_cell_length_c                   11.1750(6)
_cell_angle_alpha                90
_cell_angle_beta                 109.1820(10)
_cell_angle_gamma                90
_cell_volume                     12291.2
loop_
_atom_site_label
_atom_site_type_symbol
_atom_site_fract_x
_atom_site_fract_y
_atom_site_fract_z
Na1 Na -0.25011(6) -0.07638(5) 0.48584(19)
Na2 Na -0.17794(9) -0.5000 0.5128(3)
O13 O -0.25668(15) -0.13915(11) 0.4899(5)
O14 O -0.1099(3) -0.5000 0.5014(15)
O15 O 0.13963(17) -0.5000 -0.0438(5)
O16 O 0.10633(16) 0.0000 0.0016(5)
O17 O -0.2323(2) 0.0000 -0.0108(6)
Nd1 Nd 0.207366(12) 0.0000 0.27624(5)
O1 O 0.19275(10) -0.06889(9) 0.3323(4)
O2 O 0.14658(11) -0.04267(9) 0.1649(4)
O3 O 0.27835(10) 0.04283(9) 0.3709(3)
O4 O 0.22802(14) 0.0000 0.5118(5)
O5 O 0.15853(16) 0.0000 0.4099(5)
O6 O 0.24369(12) 0.04298(10) 0.1657(3)
C1 C 0.15823(16) -0.07043(14) 0.2419(5)
Nd2 Nd 0.261070(12) 0.0000 0.75376(5)
C2 C 0.12947(15) -0.10394(13) 0.2223(4)
O7 O 0.23402(10) -0.06938(9) 0.6944(4)
O8 O 0.22547(12) -0.04315(9) 0.8630(3)
C3 C 0.13939(15) -0.13416(14) 0.3080(5)
C4 C 0.09128(16) -0.10437(15) 0.1226(5)
C5 C 0.21932(15) -0.07058(14) 0.7867(5)
H1 H 0.1655 -0.1341 0.3773
C6 C 0.11099(16) -0.16421(14) 0.2915(5)
C7 C 0.06273(16) -0.13406(15) 0.1085(5)
H2 H 0.0846 -0.0842 0.0633
C8 C 0.19477(15) -0.10412(13) 0.8041(5)
C9 C 0.07143(15) -0.16412(13) 0.1933(5)
H3 H 0.1185 -0.1852 0.3477
H4 H 0.0366 -0.1339 0.0393
C10 C 0.18321(16) -0.13218(14) 0.7128(5)
C11 C 0.18147(16) -0.10684(14) 0.9091(5)
C12 C 0.03844(15) -0.19413(13) 0.1819(4)
H5 H 0.1931 -0.1311 0.6421
C13 C 0.15712(17) -0.16203(15) 0.7242(5)
H6 H 0.1901 -0.0882 0.9739
C14 C 0.15584(16) -0.13639(15) 0.9200(5)
C15 C -0.00199(15) -0.18238(13) 0.1867(4)
C16 C 0.04931(15) -0.23149(13) 0.1673(4)
C17 C 0.14258(15) -0.16416(13) 0.8263(5)
H7 H 0.1493 -0.1811 0.6608
H8 H 0.1470 -0.1380 0.9926
N1 N -0.03723(12) -0.20449(11) 0.1708(4)
C18 C -0.01228(16) -0.14395(14) 0.2115(5)
N2 N 0.02507(12) -0.26302(10) 0.1762(4)
C19 C 0.08787(16) -0.24404(15) 0.1442(5)
C20 C 0.11130(15) -0.19408(14) 0.8330(5)
Zn1 Zn -0.033686(17) -0.262439(15) 0.20193(6)
C21 C -0.06952(15) -0.18208(13) 0.1793(5)
C22 C -0.05413(16) -0.14374(14) 0.2062(5)
H9 H 0.0066 -0.1229 0.2282
C23 C 0.04881(14) -0.29432(13) 0.1674(4)
H10 H 0.1093 -0.2283 0.1306
C24 C 0.08773(16) -0.28221(14) 0.1454(5)
C25 C 0.12521(15) -0.23208(14) 0.8421(5)
O9 O -0.01338(18) -0.25289(15) 0.3953(4)
N3 N -0.09930(12) -0.26304(11) 0.1691(4)
N4 N -0.03498(12) -0.32059(11) 0.1923(4)
H11 H -0.0701 -0.1225 0.2180
C26 C 0.03854(15) -0.33157(13) 0.1879(4)
H12 H 0.1093 -0.2983 0.1340
C27 C 0.16833(17) -0.24425(15) 0.8594(6)
C28 C 0.0000 -0.2646(2) 0.5000
C29 C -0.12426(15) -0.29420(13) 0.1674(5)
C30 C -0.00022(15) -0.34336(13) 0.2024(4)
C31 C -0.06737(16) -0.34358(13) 0.2033(5)
C32 C 0.07140(15) -0.36117(14) 0.1966(5)
H13 H 0.1927 -0.2284 0.8740
C33 C 0.16791(17) -0.28280(15) 0.8511(5)
C34 C -0.10862(16) -0.33148(14) 0.1919(5)
C35 C -0.01087(17) -0.38198(14) 0.2234(5)
C36 C -0.05170(16) -0.38200(14) 0.2254(5)
C37 C 0.0772(3) -0.3776(3) 0.0953(6)
C38 C 0.0985(3) -0.3722(3) 0.3071(6)
H14 H 0.1916 -0.2988 0.8564
C39 C -0.13936(16) -0.36102(14) 0.2065(5)
H15 H 0.0074 -0.4034 0.2339
H16 H -0.0672 -0.4033 0.2389
H17 H 0.0592 -0.3703 0.0132
C40 C 0.1083(3) -0.4047(3) 0.1053(6)
H18 H 0.0962 -0.3612 0.3822
C41 C 0.1301(3) -0.3993(3) 0.3178(7)
C42 C -0.17280(19) -0.37532(17) 0.1062(5)
C43 C -0.1362(3) -0.3745(2) 0.3227(6)
C44 C 0.13458(15) -0.41658(13) 0.2177(4)
H19 H 0.1112 -0.4152 0.0302
H20 H 0.1491 -0.4056 0.3996
C45 C -0.20009(18) -0.40242(17) 0.1235(5)
H21 H -0.1770 -0.3661 0.0232
C46 C -0.1645(2) -0.4011(2) 0.3401(6)
H22 H -0.1139 -0.3654 0.3945
C47 C 0.16836(15) -0.44599(13) 0.2305(5)
C48 C -0.19642(16) -0.41577(13) 0.2400(5)
H23 H -0.2221 -0.4121 0.0518
H24 H -0.1617 -0.4093 0.4235
O10 O 0.18939(10) -0.45829(9) 0.3394(3)
O11 O 0.17537(12) -0.45764(10) 0.1336(4)
C49 C -0.22611(16) -0.44489(13) 0.2595(5)
O12 O -0.18249(16) 0.0000 0.3782(6)
N5 N -0.1883(2) 0.0000 0.4835(8)
O3E O 0.27835(10) -0.04283(9) 0.3709(3)
O1E O 0.19275(10) 0.06889(9) 0.3323(4)
O6E O 0.24369(12) -0.04298(10) 0.1657(3)
O2E O 0.14658(11) 0.04267(9) 0.1649(4)
C21A C 0.06952(15) -0.18208(13) 0.8207(5)
C20A C -0.11130(15) -0.19408(14) 0.1670(5)
N1A N 0.03723(12) -0.20449(11) 0.8292(4)
C22A C 0.05413(16) -0.14374(14) 0.7938(5)
N3A N 0.09930(12) -0.26304(11) 0.8309(4)
C25A C -0.12521(15) -0.23208(14) 0.1579(5)
C17A C -0.14258(15) -0.16416(13) 0.1737(5)
Zn1A Zn 0.033686(17) -0.262439(15) 0.79807(6)
C15A C 0.00199(15) -0.18238(13) 0.8133(4)
H11A H 0.0701 -0.1225 0.7820
C18A C 0.01228(16) -0.14395(14) 0.7885(5)
C29A C 0.12426(15) -0.29420(13) 0.8326(5)
O9A O 0.01338(18) -0.25289(15) 0.6047(4)
C27A C -0.16833(17) -0.24425(15) 0.1406(6)
C33A C -0.16791(17) -0.28280(15) 0.1489(5)
C14A C -0.15584(16) -0.13639(15) 0.0800(5)
C13A C -0.15712(17) -0.16203(15) 0.2758(5)
N2A N -0.02507(12) -0.26302(10) 0.8238(4)
N4A N 0.03498(12) -0.32059(11) 0.8077(4)
C12A C -0.03844(15) -0.19413(13) 0.8181(4)
H9A H -0.0066 -0.1229 0.7718
C34A C 0.10862(16) -0.33148(14) 0.8081(5)
H13A H -0.1927 -0.2284 0.1260
H14A H -0.1916 -0.2988 0.1436
C11A C -0.18147(16) -0.10684(14) 0.0909(5)
H8A H -0.1470 -0.1380 0.0074
C10A C -0.18321(16) -0.13218(14) 0.2872(5)
H7A H -0.1493 -0.1811 0.3392
C16A C -0.04931(15) -0.23149(13) 0.8327(4)
C23A C -0.04881(14) -0.29432(13) 0.8326(4)
C30A C 0.00022(15) -0.34336(13) 0.7976(4)
C31A C 0.06737(16) -0.34358(13) 0.7967(5)
C9A C -0.07143(15) -0.16412(13) 0.8067(5)
C39A C 0.13936(16) -0.36102(14) 0.7935(5)
C8A C -0.19477(15) -0.10412(13) 0.1959(5)
H6A H -0.1901 -0.0882 0.0261
H5A H -0.1931 -0.1311 0.3579
C19A C -0.08787(16) -0.24404(15) 0.8558(5)
C26A C -0.03854(15) -0.33157(13) 0.8121(4)
C24A C -0.08773(16) -0.28221(14) 0.8546(5)
C35A C 0.01087(17) -0.38198(14) 0.7766(5)
C36A C 0.05170(16) -0.38200(14) 0.7746(5)
C6A C -0.11099(16) -0.16421(14) 0.7085(5)
C7A C -0.06273(16) -0.13406(15) 0.8915(5)
C42A C 0.17280(19) -0.37532(17) 0.8938(5)
C43A C 0.1362(3) -0.3745(2) 0.6773(6)
C5A C -0.21932(15) -0.07058(14) 0.2133(5)
H10A H -0.1093 -0.2283 0.8694
C32A C -0.07140(15) -0.36117(14) 0.8034(5)
H12A H -0.1093 -0.2983 0.8660
H15A H -0.0074 -0.4034 0.7661
H16A H 0.0672 -0.4033 0.7611
C3A C -0.13939(15) -0.13416(14) 0.6920(5)
H3A H -0.1185 -0.1852 0.6523
H4A H -0.0366 -0.1339 0.9607
C4A C -0.09128(16) -0.10437(15) 0.8774(5)
C45A C 0.20009(18) -0.40242(17) 0.8765(5)
H21A H 0.1770 -0.3661 0.9768
C46A C 0.1645(2) -0.4011(2) 0.6599(6)
H22A H 0.1139 -0.3654 0.6055
O7A O -0.23402(10) -0.06938(9) 0.3056(4)
O8A O -0.22547(12) -0.04315(9) 0.1370(3)
O7D O -0.23402(10) 0.06938(9) 0.3056(4)
O8D O -0.22547(12) 0.04315(9) 0.1370(3)
C37A C -0.0772(3) -0.3776(3) 0.9047(6)
C38A C -0.0985(3) -0.3722(3) 0.6929(6)
C2A C -0.12947(15) -0.10394(13) 0.7777(4)
H1A H -0.1655 -0.1341 0.6227
H2A H -0.0846 -0.0842 0.9367
C48A C 0.19642(16) -0.41577(13) 0.7600(5)
H23A H 0.2221 -0.4121 0.9482
H24A H 0.1617 -0.4093 0.5765
Nd2A Nd -0.261070(12) 0.0000 0.24624(5)
Nd2C Nd 0.238930(12) -0.5000 0.24624(5)
H17A H -0.0592 -0.3703 0.9868
C40A C -0.1083(3) -0.4047(3) 0.8947(6)
H18A H -0.0962 -0.3612 0.6178
C41A C -0.1301(3) -0.3993(3) 0.6822(7)
C1A C -0.15823(16) -0.07043(14) 0.7581(5)
C49A C 0.22611(16) -0.44489(13) 0.7405(5)
O3B O -0.22165(10) -0.45717(9) 0.3709(3)
O6B O -0.25631(12) -0.45702(10) 0.1657(3)
O4A O -0.22802(14) 0.0000 0.4882(5)
O10B O -0.31061(10) 0.04171(9) 0.3394(3)
O10G O -0.31061(10) -0.04171(9) 0.3394(3)
O11B O -0.32463(12) 0.04236(10) 0.1336(4)
O11G O -0.32463(12) -0.04236(10) 0.1336(4)
C44A C -0.13458(15) -0.41658(13) 0.7823(4)
H19A H -0.1112 -0.4152 0.9698
H20A H -0.1491 -0.4056 0.6004
O1A O -0.19275(10) -0.06889(9) 0.6677(4)
O2A O -0.14658(11) -0.04267(9) 0.8351(4)
O3C O 0.22165(10) -0.45717(9) 0.6291(3)
O6C O 0.25631(12) -0.45702(10) 0.8343(3)
Nd1B Nd -0.292634(12) -0.5000 0.27624(5)
Nd1A Nd -0.207366(12) 0.0000 0.72376(5)
Nd1C Nd 0.292634(12) -0.5000 0.72376(5)
C47A C -0.16836(15) -0.44599(13) 0.7695(5)
O5A O -0.15853(16) 0.0000 0.5901(5)
O10A O -0.18939(10) -0.45829(9) 0.6606(3)
O11A O -0.17537(12) -0.45764(10) 0.8664(4)
Nd2B Nd -0.238930(12) -0.5000 0.75376(5)
loop_
_geom_bond_atom_site_label_1
_geom_bond_atom_site_label_2
_geom_bond_site_symmetry_1
_geom_bond_site_symmetry_2
Nd1 O1 1_555 1_555
O1 C1 1_555 1_555
O2 Nd1 1_555 1_555
O3 Nd1 1_555 1_555
O4 Nd1 1_555 1_555
O5 Nd1 1_555 1_555
O6 Nd1 1_555 1_555
C1 O2 1_555 1_555
Nd2 O4 1_555 1_555
C2 C1 1_555 1_555
O7 Nd2 1_555 1_555
O8 Nd2 1_555 1_555
C3 C2 1_555 1_555
C4 C2 1_555 1_555
C5 O7 1_555 1_555
H1 C3 1_555 1_555
C6 C3 1_555 1_555
C7 C4 1_555 1_555
H2 C4 1_555 1_555
C8 C5 1_555 1_555
C9 C6 1_555 1_555
H3 C6 1_555 1_555
H4 C7 1_555 1_555
C10 C8 1_555 1_555
C11 C8 1_555 1_555
C12 C9 1_555 1_555
H5 C10 1_555 1_555
C13 C10 1_555 1_555
H6 C11 1_555 1_555
C14 C11 1_555 1_555
C15 C12 1_555 1_555
C16 C12 1_555 1_555
C17 C13 1_555 1_555
H7 C13 1_555 1_555
H8 C14 1_555 1_555
N1 C15 1_555 1_555
C18 C15 1_555 1_555
N2 C16 1_555 1_555
C19 C16 1_555 1_555
C20 C17 1_555 1_555
Zn1 N1 1_555 1_555
C21 N1 1_555 1_555
C22 C18 1_555 1_555
H9 C18 1_555 1_555
C23 N2 1_555 1_555
H10 C19 1_555 1_555
C24 C19 1_555 1_555
C25 C20 1_555 1_555
O9 Zn1 1_555 1_555
N3 Zn1 1_555 1_555
N4 Zn1 1_555 1_555
H11 C22 1_555 1_555
C26 C23 1_555 1_555
H12 C24 1_555 1_555
C27 C25 1_555 1_555
C28 O9 1_555 1_555
C29 N3 1_555 1_555
C30 N4 1_555 1_555
C31 N4 1_555 1_555
C32 C26 1_555 1_555
H13 C27 1_555 1_555
C33 C27 1_555 1_555
C34 C29 1_555 1_555
C35 C30 1_555 1_555
C36 C31 1_555 1_555
C37 C32 1_555 1_555
C38 C32 1_555 1_555
H14 C33 1_555 1_555
C39 C34 1_555 1_555
H15 C35 1_555 1_555
H16 C36 1_555 1_555
H17 C37 1_555 1_555
C40 C37 1_555 1_555
H18 C38 1_555 1_555
C41 C38 1_555 1_555
C42 C39 1_555 1_555
C43 C39 1_555 1_555
C44 C40 1_555 1_555
H19 C40 1_555 1_555
H20 C41 1_555 1_555
C45 C42 1_555 1_555
H21 C42 1_555 1_555
C46 C43 1_555 1_555
H22 C43 1_555 1_555
C47 C44 1_555 1_555
C48 C45 1_555 1_555
H23 C45 1_555 1_555
H24 C46 1_555 1_555
O10 C47 1_555 1_555
O11 C47 1_555 1_555
C49 C48 1_555 1_555
O12 N5 1_555 1_555
N5 O4A 1_555 1_555
O3E Nd1 1_555 1_555
O1E Nd1 1_555 1_555
O6E Nd1 1_555 1_555
O2E Nd1 1_555 1_555
C21A C20 1_555 1_555
C20A C21 1_555 1_555
N1A C21A 1_555 1_555
C22A C21A 1_555 1_555
N3A C25 1_555 1_555
C25A N3 1_555 1_555
C17A C20A 1_555 1_555
Zn1A N1A 1_555 1_555
C15A N1A 1_555 1_555
H11A C22A 1_555 1_555
C18A C22A 1_555 1_555
C29A C33 1_555 1_555
O9A C28 1_555 1_555
C27A C25A 1_555 1_555
C33A C29 1_555 1_555
C14A C17A 1_555 1_555
C13A C17A 1_555 1_555
N2A Zn1A 1_555 1_555
N4A Zn1A 1_555 1_555
C12A C15A 1_555 1_555
H9A C18A 1_555 1_555
C34A C29A 1_555 1_555
H13A C27A 1_555 1_555
H14A C33A 1_555 1_555
C11A C14A 1_555 1_555
H8A C14A 1_555 1_555
C10A C13A 1_555 1_555
H7A C13A 1_555 1_555
C16A N2A 1_555 1_555
C23A N2A 1_555 1_555
C30A N4A 1_555 1_555
C31A N4A 1_555 1_555
C9A C12A 1_555 1_555
C39A C34A 1_555 1_555
C8A C11A 1_555 1_555
H6A C11A 1_555 1_555
H5A C10A 1_555 1_555
C19A C16A 1_555 1_555
C26A C23A 1_555 1_555
C24A C23A 1_555 1_555
C35A C30A 1_555 1_555
C36A C31A 1_555 1_555
C6A C9A 1_555 1_555
C7A C9A 1_555 1_555
C42A C39A 1_555 1_555
C43A C39A 1_555 1_555
C5A C8A 1_555 1_555
H10A C19A 1_555 1_555
C32A C26A 1_555 1_555
H12A C24A 1_555 1_555
H15A C35A 1_555 1_555
H16A C36A 1_555 1_555
C3A C6A 1_555 1_555
H3A C6A 1_555 1_555
H4A C7A 1_555 1_555
C4A C7A 1_555 1_555
C45A C42A 1_555 1_555
H21A C42A 1_555 1_555
C46A C43A 1_555 1_555
H22A C43A 1_555 1_555
O7A C5A 1_555 1_555
O8A C5A 1_555 1_555
O7D Nd2A 1_555 1_555
O8D Nd2A 1_555 1_555
C37A C32A 1_555 1_555
C38A C32A 1_555 1_555
C2A C3A 1_555 1_555
H1A C3A 1_555 1_555
H2A C4A 1_555 1_555
C48A C45A 1_555 1_555
H23A C45A 1_555 1_555
H24A C46A 1_555 1_555
Nd2A O12 1_555 1_555
Nd2C O10 1_555 1_555
H17A C37A 1_555 1_555
C40A C37A 1_555 1_555
H18A C38A 1_555 1_555
C41A C38A 1_555 1_555
C1A C2A 1_555 1_555
C49A C48A 1_555 1_555
O3B C49 1_555 1_555
O6B C49 1_555 1_555
O4A Nd2A 1_555 1_555
O10B Nd2A 1_555 1_555
O10G Nd2A 1_555 1_555
O11B Nd2A 1_555 1_555
O11G Nd2A 1_555 1_555
C44A C40A 1_555 1_555
H19A C40A 1_555 1_555
H20A C41A 1_555 1_555
O1A C1A 1_555 1_555
O2A C1A 1_555 1_555
O3C C49A 1_555 1_555
O6C C49A 1_555 1_555
Nd1B O3B 1_555 1_555
Nd1A O4A 1_555 1_555
Nd1C O3C 1_555 1_555
C47A C44A 1_555 1_555
O5A N5 1_555 1_555
O10A C47A 1_555 1_555
O11A C47A 1_555 1_555
Nd2B O10A 1_555 1_555
O8 C5 1_555 1_555
C7 C9 1_555 1_555
C14 C17 1_555 1_555
N2 Zn1 1_555 1_555
C21 C22 1_555 1_555
C23 C24 1_555 1_555
C26 C30 1_555 1_555
C31 C34 1_555 1_555
C35 C36 1_555 1_555
C41 C44 1_555 1_555
C46 C48 1_555 1_555
O11 Nd2C 1_555 1_555
C20A C25A 1_555 1_555
N3A Zn1A 1_555 1_555
N3A C29A 1_555 1_555
Zn1A O9A 1_555 1_555
C15A C18A 1_555 1_555
C27A C33A 1_555 1_555
C12A C16A 1_555 1_555
C34A C31A 1_555 1_555
C10A C8A 1_555 1_555
C30A C26A 1_555 1_555
C19A C24A 1_555 1_555
C35A C36A 1_555 1_555
C4A C2A 1_555 1_555
C46A C48A 1_555 1_555
O7A Nd2A 1_555 1_555
O8A Nd2A 1_555 1_555
C41A C44A 1_555 1_555
O6B Nd1B 1_555 1_555
O1A Nd1A 1_555 1_555
O2A Nd1A 1_555 1_555
O6C Nd1C 1_555 1_555
Nd1A O5A 1_555 1_555
O11A Nd2B 1_555 1_555

#END
