
#######################################################################
#
#                 Cambridge Crystallographic Data Centre
#                                CCDC 
#
#######################################################################
#
# If this CIF has been generated from an entry in the Cambridge 
# Structural Database, then it will include bibliographic, chemical, 
# crystal, experimental, refinement or atomic coordinate data resulting 
# from the CCDC's data processing and validation procedures.
#
#######################################################################

data_DOMFES
_symmetry_cell_setting           monoclinic
_symmetry_space_group_name_H-M   'C 2/m'
_symmetry_Int_Tables_number      12
_space_group_name_Hall           '-C 2y'
loop_
_symmetry_equiv_pos_site_id
_symmetry_equiv_pos_as_xyz
1 x,y,z
2 -x,y,-z
3 1/2+x,1/2+y,z
4 1/2-x,1/2+y,-z
5 -x,-y,-z
6 x,-y,z
7 1/2-x,1/2-y,-z
8 1/2+x,1/2-y,z
_cell_length_a                   32.9263(6)
_cell_length_b                   35.2939(7)
_cell_length_c                   11.3229(2)
_cell_angle_alpha                90
_cell_angle_beta                 109.9520(9)
_cell_angle_gamma                90
_cell_volume                     12368.5
loop_
_atom_site_label
_atom_site_type_symbol
_atom_site_fract_x
_atom_site_fract_y
_atom_site_fract_z
O15 O 0.26442(15) 0.5000 -0.0154(4)
Pr1 Pr 0.235161(13) 0.5000 0.24549(5)
Pr2 Pr 0.290934(13) 0.5000 0.71506(5)
Zn1 Zn 0.534942(18) 0.760655(16) 0.79747(5)
Na1 Na 0.67577(9) 1.0000 0.4817(3)
Na2 Na 0.24761(6) 0.57666(5) 0.48043(18)
O1 O 0.71879(11) 0.95636(9) 0.6234(3)
O2 O 0.31360(10) 0.95798(9) 0.6627(3)
O3 O 0.26944(15) 0.5000 0.4816(5)
O4 O 0.73023(11) 0.54292(9) 0.8674(3)
O5 O 0.73683(11) 0.56950(9) 0.6992(3)
O6 O 0.75508(12) 0.95733(10) 0.8275(3)
O7 O 0.35065(11) 0.54347(10) 0.8306(3)
O8 O 0.30561(11) 0.56974(10) 0.6601(3)
O9 O 0.32765(12) 0.95646(10) 0.8682(3)
O10 O 0.31505(16) 0.5000 0.3760(6)
O11 O 0.24145(15) 0.63927(11) 0.4861(4)
O12 O 0.33953(16) 0.5000 0.5860(6)
O13 O 0.5124(2) 0.75510(14) 0.6038(4)
O14 O 0.6060(2) 1.0000 0.4792(9)
N1 N 0.60078(13) 0.76151(11) 0.8305(3)
N2 N 0.47647(12) 0.76114(11) 0.8252(3)
N3 N 0.53830(12) 0.70305(11) 0.8305(4)
N4 N 0.53605(13) 0.81912(11) 0.8071(4)
N5 N 0.3096(2) 0.5000 0.4753(8)
C1 C 0.50186(16) 0.84185(13) 0.7982(4)
C2 C 0.45291(14) 0.79260(14) 0.8327(4)
C3 C 0.46346(15) 0.83000(14) 0.8127(4)
C4 C 0.45259(16) 0.73031(14) 0.8331(4)
C5 C 0.43003(15) 0.85962(13) 0.8032(4)
C6 C 0.72466(17) 0.94461(13) 0.7335(4)
C7 C 0.69598(16) 0.91478(14) 0.7550(4)
C8 C 0.36989(15) 0.60381(13) 0.7737(4)
C9 C 0.56867(16) 0.84171(13) 0.7958(4)
C10 C 0.50350(16) 0.68086(14) 0.8143(4)
C11 C 0.33419(16) 0.94508(13) 0.7710(5)
C12 C 0.57123(16) 0.68052(13) 0.8255(4)
C13 C 0.41400(16) 0.74302(15) 0.8563(5)
H1 H 0.3925 0.7274 0.8697
C14 C 0.42996(15) 0.66281(14) 0.8058(4)
C15 C 0.62574(16) 0.79221(14) 0.8327(4)
C16 C 0.46286(16) 0.69288(14) 0.8172(4)
C17 C 0.61285(16) 0.69237(14) 0.8366(4)
C18 C 0.36790(15) 0.91557(13) 0.7843(4)
C19 C 0.62668(16) 0.73029(14) 0.8443(4)
C20 C 0.61019(16) 0.82975(14) 0.8082(4)
C21 C 0.72308(15) 0.57024(14) 0.7919(5)
C22 C 0.41453(16) 0.78037(15) 0.8553(5)
H2 H 0.3932 0.7965 0.8673
C23 C 0.69759(16) 0.60348(13) 0.8069(4)
C24 C 0.33984(16) 0.57090(15) 0.7534(5)
C25 C 0.64058(16) 0.85919(14) 0.7924(4)
C26 C 0.36036(17) 0.63430(14) 0.6899(5)
H3 H 0.3338 0.6350 0.6215
C27 C 0.43709(17) 0.63341(16) 0.8891(5)
H4 H 0.4630 0.6331 0.9597
C28 C 0.64425(16) 0.66233(14) 0.8304(5)
C29 C 0.68564(18) 0.63221(14) 0.7177(5)
H5 H 0.6956 0.6318 0.6482
C30 C 0.55614(17) 0.64166(15) 0.8049(5)
H6 H 0.5727 0.6201 0.7998
C31 C 0.40761(16) 0.60390(16) 0.8738(5)
H7 H 0.4138 0.5838 0.9331
C32 C 0.55313(17) 0.88023(15) 0.7753(5)
H8 H 0.5687 0.9017 0.7630
C33 C 0.51263(17) 0.88006(14) 0.7769(5)
H9 H 0.4942 0.9015 0.7658
C34 C 0.65767(16) 0.63409(15) 0.9213(5)
H10 H 0.6482 0.6349 0.9917
C35 C 0.51434(17) 0.64203(14) 0.7945(5)
H11 H 0.4954 0.6209 0.7775
C36 C 0.66909(17) 0.78096(15) 0.8535(5)
H12 H 0.6929 0.7972 0.8606
C37 C 0.38992(17) 0.66337(15) 0.7074(5)
H13 H 0.3830 0.6843 0.6514
C38 C 0.66993(18) 0.74259(15) 0.8613(5)
H14 H 0.6945 0.7268 0.8754
C39 C 0.65925(18) 0.66134(15) 0.7300(5)
H15 H 0.6513 0.6809 0.6689
C40 C 0.68404(16) 0.60533(15) 0.9120(5)
H16 H 0.6932 0.5866 0.9760
C41 C 0.5000 0.7620(3) 0.5000
C42 C 0.69963(19) 0.90304(17) 0.8732(5)
H17 H 0.7212 0.9138 0.9440
C43 C 0.6720(2) 0.87554(18) 0.8908(5)
H18 H 0.6751 0.8679 0.9739
C44 C 0.3916(2) 0.9010(2) 0.8955(5)
H19 H 0.3875 0.9099 0.9698
C45 C 0.4220(3) 0.8730(2) 0.9035(5)
H20 H 0.4378 0.8628 0.9838
C46 C 0.6379(3) 0.8706(3) 0.6753(6)
H21 H 0.6172 0.8591 0.6044
C47 C 0.6648(3) 0.8985(3) 0.6564(5)
H22 H 0.6612 0.9064 0.5733
C48 C 0.4064(3) 0.8744(3) 0.6929(5)
H23 H 0.4110 0.8659 0.6190
C49 C 0.3754(3) 0.9017(3) 0.6825(5)
H24 H 0.3589 0.9110 0.6016
O13A O 0.4876(2) 0.75510(14) 0.3962(4)
Zn1A Zn 0.465058(18) 0.760655(16) 0.20253(5)
Na2A Na 0.75239(6) 0.57666(5) 0.51957(18)
O1A O 0.28121(11) 0.95636(9) 0.3766(3)
O2A O 0.68640(10) 0.95798(9) 0.3373(3)
O4A O 0.26977(11) 0.54292(9) 0.1326(3)
O5A O 0.26317(11) 0.56950(9) 0.3008(3)
O6A O 0.24492(12) 0.95733(10) 0.1725(3)
O7A O 0.64935(11) 0.54347(10) 0.1694(3)
O8A O 0.69439(11) 0.56974(10) 0.3399(3)
O9A O 0.67235(12) 0.95646(10) 0.1318(3)
O11A O 0.75855(15) 0.63927(11) 0.5139(4)
N1A N 0.39922(13) 0.76151(11) 0.1695(3)
N2A N 0.52353(12) 0.76114(11) 0.1748(3)
N3A N 0.46170(12) 0.70305(11) 0.1695(4)
N4A N 0.46395(13) 0.81912(11) 0.1929(4)
C1A C 0.49814(16) 0.84185(13) 0.2018(4)
C2A C 0.54709(14) 0.79260(14) 0.1673(4)
C3A C 0.53654(15) 0.83000(14) 0.1873(4)
C4A C 0.54741(16) 0.73031(14) 0.1669(4)
C5A C 0.56997(15) 0.85962(13) 0.1968(4)
C6A C 0.27534(17) 0.94461(13) 0.2665(4)
C7A C 0.30402(16) 0.91478(14) 0.2450(4)
C8A C 0.63011(15) 0.60381(13) 0.2263(4)
C9A C 0.43133(16) 0.84171(13) 0.2042(4)
C10A C 0.49650(16) 0.68086(14) 0.1857(4)
C11A C 0.66581(16) 0.94508(13) 0.2290(5)
C12A C 0.42877(16) 0.68052(13) 0.1745(4)
C13A C 0.58600(16) 0.74302(15) 0.1437(5)
H1A H 0.6075 0.7274 0.1303
C14A C 0.57004(15) 0.66281(14) 0.1942(4)
C15A C 0.37426(16) 0.79221(14) 0.1673(4)
C16A C 0.53714(16) 0.69288(14) 0.1828(4)
C17A C 0.38715(16) 0.69237(14) 0.1634(4)
C18A C 0.63210(15) 0.91557(13) 0.2157(4)
C19A C 0.37332(16) 0.73029(14) 0.1557(4)
C20A C 0.38981(16) 0.82975(14) 0.1918(4)
C21A C 0.27692(15) 0.57024(14) 0.2081(5)
C22A C 0.58547(16) 0.78037(15) 0.1447(5)
H2A H 0.6068 0.7965 0.1327
C23A C 0.30241(16) 0.60348(13) 0.1931(4)
C24A C 0.66016(16) 0.57090(15) 0.2466(5)
C25A C 0.35942(16) 0.85919(14) 0.2076(4)
C26A C 0.63964(17) 0.63430(14) 0.3101(5)
H3A H 0.6662 0.6350 0.3785
C27A C 0.56291(17) 0.63341(16) 0.1109(5)
H4A H 0.5370 0.6331 0.0403
C28A C 0.35575(16) 0.66233(14) 0.1696(5)
C29A C 0.31436(18) 0.63221(14) 0.2823(5)
H5A H 0.3044 0.6318 0.3518
C30A C 0.44386(17) 0.64166(15) 0.1951(5)
H6A H 0.4273 0.6201 0.2002
C31A C 0.59239(16) 0.60390(16) 0.1262(5)
H7A H 0.5862 0.5838 0.0669
C32A C 0.44687(17) 0.88023(15) 0.2247(5)
H8A H 0.4313 0.9017 0.2370
C33A C 0.48737(17) 0.88006(14) 0.2231(5)
H9A H 0.5058 0.9015 0.2342
C34A C 0.34233(16) 0.63409(15) 0.0787(5)
H10A H 0.3518 0.6349 0.0083
C35A C 0.48566(17) 0.64203(14) 0.2055(5)
H11A H 0.5046 0.6209 0.2225
C36A C 0.33091(17) 0.78096(15) 0.1465(5)
H12A H 0.3071 0.7972 0.1394
C37A C 0.61008(17) 0.66337(15) 0.2926(5)
H13A H 0.6170 0.6843 0.3486
C38A C 0.33007(18) 0.74259(15) 0.1387(5)
H14A H 0.3055 0.7268 0.1246
C39A C 0.34075(18) 0.66134(15) 0.2700(5)
H15A H 0.3487 0.6809 0.3311
C40A C 0.31596(16) 0.60533(15) 0.0880(5)
H16A H 0.3068 0.5866 0.0240
C42A C 0.30037(19) 0.90304(17) 0.1268(5)
H17A H 0.2788 0.9138 0.0560
C43A C 0.3280(2) 0.87554(18) 0.1092(5)
H18A H 0.3249 0.8679 0.0261
C44A C 0.6084(2) 0.9010(2) 0.1045(5)
H19A H 0.6125 0.9099 0.0302
C45A C 0.5780(3) 0.8730(2) 0.0965(5)
H20A H 0.5622 0.8628 0.0162
C46A C 0.3621(3) 0.8706(3) 0.3247(6)
H21A H 0.3828 0.8591 0.3956
C47A C 0.3352(3) 0.8985(3) 0.3436(5)
H22A H 0.3388 0.9064 0.4267
C48A C 0.5936(3) 0.8744(3) 0.3071(5)
H23A H 0.5890 0.8659 0.3810
C49A C 0.6246(3) 0.9017(3) 0.3175(5)
H24A H 0.6411 0.9110 0.3984
Pr1A Pr 0.764839(13) 0.5000 0.75451(5)
Pr1B Pr 0.735161(13) 1.0000 0.24549(5)
Pr1C Pr 0.264839(13) 1.0000 0.75451(5)
Pr2A Pr 0.709066(13) 0.5000 0.28494(5)
Pr2B Pr 0.790934(13) 1.0000 0.71506(5)
Pr2C Pr 0.209066(13) 1.0000 0.28494(5)
Na1A Na 0.32423(9) 1.0000 0.5183(3)
Na2E Na 0.24761(6) 0.42334(5) 0.48043(18)
Na2F Na 0.25239(6) 0.92334(5) 0.51957(18)
Na2G Na 0.74761(6) 0.92334(5) 0.48043(18)
O1B O 0.21879(11) 0.45636(9) 0.6234(3)
O1E O 0.71879(11) 1.04364(9) 0.6234(3)
O1F O 0.78121(11) 0.54364(9) 0.3766(3)
O1G O 0.21879(11) 0.54364(9) 0.6234(3)
O2C O 0.18640(10) 0.45798(9) 0.3373(3)
O2D O 0.68640(10) 1.04202(9) 0.3373(3)
O2F O 0.18640(10) 0.54202(9) 0.3373(3)
O2G O 0.81360(10) 0.54202(9) 0.6627(3)
O3A O 0.73056(15) 0.5000 0.5184(5)
O4D O 0.26977(11) 0.45708(9) 0.1326(3)
O5D O 0.26317(11) 0.43050(9) 0.3008(3)
O6B O 0.25508(12) 0.45733(10) 0.8275(3)
O6G O 0.25508(12) 0.54267(10) 0.8275(3)
O7E O 0.35065(11) 0.45653(10) 0.8306(3)
O8E O 0.30561(11) 0.43026(10) 0.6601(3)
O9C O 0.17235(12) 0.45646(10) 0.1318(3)
O9F O 0.17235(12) 0.54354(10) 0.1318(3)
loop_
_geom_bond_atom_site_label_1
_geom_bond_atom_site_label_2
_geom_bond_site_symmetry_1
_geom_bond_site_symmetry_2
Pr1 O3 1_555 1_555
Pr2 O3 1_555 1_555
Zn1 O13 1_555 1_555
Na1 O1 1_555 1_555
Na2 O3 1_555 1_555
O1 C6 1_555 1_555
O2 C11 1_555 1_555
O3 N5 1_555 1_555
O4 C21 1_555 1_555
O5 C21 1_555 1_555
O6 C6 1_555 1_555
O7 Pr2 1_555 1_555
O8 Pr2 1_555 1_555
O9 C11 1_555 1_555
O10 Pr1 1_555 1_555
O11 Na2 1_555 1_555
O12 Pr2 1_555 1_555
O13 C41 1_555 1_555
O14 Na1 1_555 1_555
N1 Zn1 1_555 1_555
N2 Zn1 1_555 1_555
N3 Zn1 1_555 1_555
N4 Zn1 1_555 1_555
N5 O10 1_555 1_555
C1 N4 1_555 1_555
C2 N2 1_555 1_555
C3 C1 1_555 1_555
C4 N2 1_555 1_555
C5 C3 1_555 1_555
C6 C7 1_555 1_555
C7 C42 1_555 1_555
C8 C24 1_555 1_555
C9 N4 1_555 1_555
C10 N3 1_555 1_555
C11 C18 1_555 1_555
C12 N3 1_555 1_555
C13 C4 1_555 1_555
H1 C13 1_555 1_555
C14 C16 1_555 1_555
C15 N1 1_555 1_555
C16 C4 1_555 1_555
C17 C12 1_555 1_555
C18 C44 1_555 1_555
C19 N1 1_555 1_555
C20 C9 1_555 1_555
C21 C23 1_555 1_555
C22 C2 1_555 1_555
H2 C22 1_555 1_555
C23 C29 1_555 1_555
C24 O7 1_555 1_555
C25 C20 1_555 1_555
C26 C8 1_555 1_555
H3 C26 1_555 1_555
C27 C14 1_555 1_555
H4 C27 1_555 1_555
C28 C17 1_555 1_555
C29 H5 1_555 1_555
C30 C12 1_555 1_555
H6 C30 1_555 1_555
C31 C8 1_555 1_555
H7 C31 1_555 1_555
C32 C9 1_555 1_555
H8 C32 1_555 1_555
C33 C1 1_555 1_555
H9 C33 1_555 1_555
C34 C28 1_555 1_555
H10 C34 1_555 1_555
C35 C10 1_555 1_555
H11 C35 1_555 1_555
C36 C15 1_555 1_555
H12 C36 1_555 1_555
C37 C14 1_555 1_555
H13 C37 1_555 1_555
C38 C19 1_555 1_555
H14 C38 1_555 1_555
C39 C28 1_555 1_555
H15 C39 1_555 1_555
C40 C23 1_555 1_555
H16 C40 1_555 1_555
C41 O13A 1_555 1_555
C42 H17 1_555 1_555
C43 C25 1_555 1_555
H18 C43 1_555 1_555
C44 H19 1_555 1_555
C45 C5 1_555 1_555
H20 C45 1_555 1_555
C46 C25 1_555 1_555
H21 C46 1_555 1_555
C47 C7 1_555 1_555
H22 C47 1_555 1_555
C48 C5 1_555 1_555
H23 C48 1_555 1_555
C49 C18 1_555 1_555
H24 C49 1_555 1_555
O13A Zn1A 1_555 1_555
Zn1A N1A 1_555 1_555
Na2A O5 1_555 1_555
O1A C6A 1_555 1_555
O2A Na1 1_555 1_555
O4A Pr1 1_555 1_555
O5A Pr1 1_555 1_555
O6A C6A 1_555 1_555
O7A C24A 1_555 1_555
O8A Na2A 1_555 1_555
O9A C11A 1_555 1_555
O11A Na2A 1_555 1_555
N1A C15A 1_555 1_555
N2A Zn1A 1_555 1_555
N3A Zn1A 1_555 1_555
N4A Zn1A 1_555 1_555
C1A N4A 1_555 1_555
C2A N2A 1_555 1_555
C3A C1A 1_555 1_555
C4A N2A 1_555 1_555
C5A C3A 1_555 1_555
C6A C7A 1_555 1_555
C7A C42A 1_555 1_555
C8A C24A 1_555 1_555
C9A N4A 1_555 1_555
C10A N3A 1_555 1_555
C11A O2A 1_555 1_555
C12A N3A 1_555 1_555
C13A C4A 1_555 1_555
H1A C13A 1_555 1_555
C14A C16A 1_555 1_555
C15A C20A 1_555 1_555
C16A C4A 1_555 1_555
C17A C12A 1_555 1_555
C18A C11A 1_555 1_555
C19A N1A 1_555 1_555
C20A C9A 1_555 1_555
C21A O4A 1_555 1_555
C22A C2A 1_555 1_555
H2A C22A 1_555 1_555
C23A C21A 1_555 1_555
C24A O8A 1_555 1_555
C25A C20A 1_555 1_555
C26A C8A 1_555 1_555
H3A C26A 1_555 1_555
C27A C14A 1_555 1_555
H4A C27A 1_555 1_555
C28A C17A 1_555 1_555
C29A C23A 1_555 1_555
H5A C29A 1_555 1_555
C30A C12A 1_555 1_555
H6A C30A 1_555 1_555
C31A C8A 1_555 1_555
H7A C31A 1_555 1_555
C32A C9A 1_555 1_555
H8A C32A 1_555 1_555
C33A C1A 1_555 1_555
H9A C33A 1_555 1_555
C34A C28A 1_555 1_555
H10A C34A 1_555 1_555
C35A C10A 1_555 1_555
H11A C35A 1_555 1_555
C36A C15A 1_555 1_555
H12A C36A 1_555 1_555
C37A C14A 1_555 1_555
H13A C37A 1_555 1_555
C38A C19A 1_555 1_555
H14A C38A 1_555 1_555
C39A C28A 1_555 1_555
H15A C39A 1_555 1_555
C40A C23A 1_555 1_555
H16A C40A 1_555 1_555
C42A H17A 1_555 1_555
C43A C25A 1_555 1_555
H18A C43A 1_555 1_555
C44A C18A 1_555 1_555
H19A C44A 1_555 1_555
C45A C5A 1_555 1_555
H20A C45A 1_555 1_555
C46A C25A 1_555 1_555
H21A C46A 1_555 1_555
C47A C7A 1_555 1_555
H22A C47A 1_555 1_555
C48A C5A 1_555 1_555
H23A C48A 1_555 1_555
C49A C18A 1_555 1_555
H24A C49A 1_555 1_555
Pr1A O4 1_555 1_555
Pr1B O2A 1_555 1_555
Pr1C O2 1_555 1_555
Pr2A O7A 1_555 1_555
Pr2B O1 1_555 1_555
Pr2C O1A 1_555 1_555
Na1A O2 1_555 1_555
Na2E O3 1_555 1_555
Na2F O2 1_555 1_555
Na2G O1 1_555 1_555
O1B Pr2 1_555 1_555
O1E Na1 1_555 1_555
O1F Na2A 1_555 1_555
O1G Pr2 1_555 1_555
O2C Pr1 1_555 1_555
O2D Na1 1_555 1_555
O2F Pr1 1_555 1_555
O2G Na2A 1_555 1_555
O3A Na2A 1_555 1_555
O4D Pr1 1_555 1_555
O5D Pr1 1_555 1_555
O6B Pr2 1_555 1_555
O6G Pr2 1_555 1_555
O7E Pr2 1_555 1_555
O8E Pr2 1_555 1_555
O9C Pr1 1_555 1_555
O9F Pr1 1_555 1_555
Na2 O8 1_555 1_555
Na2 O5A 1_555 1_555
Na2 O1G 1_555 1_555
Na2 O2F 1_555 1_555
O5 Pr1A 1_555 1_555
O6 Pr2B 1_555 1_555
O8 C24 1_555 1_555
O9 Pr1C 1_555 1_555
O12 N5 1_555 1_555
C2 C3 1_555 1_555
C10 C16 1_555 1_555
C13 C22 1_555 1_555
C15 C20 1_555 1_555
C17 C19 1_555 1_555
C26 C37 1_555 1_555
C27 C31 1_555 1_555
C29 C39 1_555 1_555
C30 C35 1_555 1_555
C32 C33 1_555 1_555
C34 C40 1_555 1_555
C36 C38 1_555 1_555
C42 C43 1_555 1_555
C44 C45 1_555 1_555
C46 C47 1_555 1_555
C48 C49 1_555 1_555
O1A Na1A 1_555 1_555
O1A Na2F 1_555 1_555
O2A Na2G 1_555 1_555
O5A C21A 1_555 1_555
O6A Pr2C 1_555 1_555
O8A Pr2A 1_555 1_555
O9A Pr1B 1_555 1_555
C2A C3A 1_555 1_555
C10A C16A 1_555 1_555
C13A C22A 1_555 1_555
C17A C19A 1_555 1_555
C26A C37A 1_555 1_555
C27A C31A 1_555 1_555
C29A C39A 1_555 1_555
C30A C35A 1_555 1_555
C32A C33A 1_555 1_555
C34A C40A 1_555 1_555
C36A C38A 1_555 1_555
C42A C43A 1_555 1_555
C44A C45A 1_555 1_555
C46A C47A 1_555 1_555
C48A C49A 1_555 1_555
Pr1A O2G 1_555 1_555
Pr1A O3A 1_555 1_555
Pr1B O2D 1_555 1_555
Pr2A O1F 1_555 1_555
Pr2A O3A 1_555 1_555
Pr2B O1E 1_555 1_555
Na2E O1B 1_555 1_555
Na2E O2C 1_555 1_555
Na2E O5D 1_555 1_555
Na2E O8E 1_555 1_555

#END
