
#######################################################################
#
#                 Cambridge Crystallographic Data Centre
#                                CCDC 
#
#######################################################################
#
# If this CIF has been generated from an entry in the Cambridge 
# Structural Database, then it will include bibliographic, chemical, 
# crystal, experimental, refinement or atomic coordinate data resulting 
# from the CCDC's data processing and validation procedures.
#
#######################################################################

data_DOMVUY
_symmetry_cell_setting           monoclinic
_symmetry_space_group_name_H-M   'P 21/n'
_symmetry_Int_Tables_number      14
_space_group_name_Hall           '-P 2yn'
loop_
_symmetry_equiv_pos_site_id
_symmetry_equiv_pos_as_xyz
1 x,y,z
2 1/2-x,1/2+y,1/2-z
3 -x,-y,-z
4 1/2+x,1/2-y,1/2+z
_cell_length_a                   9.9563(6)
_cell_length_b                   16.1121(11)
_cell_length_c                   18.6333(12)
_cell_angle_alpha                90
_cell_angle_beta                 104.8560(10)
_cell_angle_gamma                90
_cell_volume                     2889.18
loop_
_atom_site_label
_atom_site_type_symbol
_atom_site_fract_x
_atom_site_fract_y
_atom_site_fract_z
U1 U 0.60548(3) 0.442413(17) 0.23865(2)
P1 P 0.4036(2) 0.25261(12) 0.15754(13)
P2 P 0.9101(2) 0.35882(12) 0.18110(14)
O1 O 0.5538(6) 0.4853(4) 0.1494(4)
O2 O 0.6577(6) 0.4050(4) 0.3286(4)
O3 O 0.6937(5) 0.0357(3) 0.2327(4)
O4 O 0.7769(5) 0.3678(3) 0.2059(3)
O5 O 0.4766(5) 0.3257(3) 0.2019(3)
O6 O 0.8750(5) 0.0935(3) 0.2122(4)
O7 O 1.3962(5) 0.4978(3) 0.2622(4)
O8 O 1.2123(6) 0.5557(3) 0.2806(4)
O9 O 0.2651(5) 0.2316(3) 0.1726(3)
O10 O 0.9612(5) 0.2702(3) 0.1827(3)
C1 C 0.7454(8) 0.0956(5) 0.2083(5)
C2 C 0.6622(8) 0.1711(5) 0.1774(6)
H1 H 0.6643 0.1788 0.1250
H2 H 0.7048 0.2206 0.2057
C3 C 0.5118(8) 0.1633(5) 0.1817(5)
H3 H 0.5124 0.1472 0.2330
H4 H 0.4683 0.1172 0.1487
C4 C 0.3793(9) 0.2756(5) 0.0609(5)
C5 C 0.4792(9) 0.3174(5) 0.0363(6)
H5 H 0.5624 0.3343 0.0709
C6 C 0.4607(13) 0.3352(6) -0.0378(7)
H6 H 0.5300 0.3650 -0.0539
C7 C 0.3425(14) 0.3101(8) -0.0880(7)
H7 H 0.3291 0.3228 -0.1391
C8 C 0.2438(13) 0.2668(8) -0.0650(7)
H8 H 0.1635 0.2478 -0.1006
C9 C 0.2585(10) 0.2501(6) 0.0096(6)
H9 H 0.1874 0.2218 0.0254
C10 C 1.2663(8) 0.4930(5) 0.2607(5)
C11 C 1.1854(7) 0.4188(5) 0.2300(5)
H10 H 1.2328 0.3687 0.2552
H11 H 1.1814 0.4141 0.1765
C12 C 1.0371(8) 0.4225(5) 0.2398(6)
H12 H 1.0049 0.4808 0.2324
H13 H 1.0412 0.4077 0.2919
C13 C 0.8804(9) 0.3950(5) 0.0879(6)
C14 C 0.8236(11) 0.4719(6) 0.0684(7)
H14 H 0.8071 0.5081 0.1055
C15 C 0.7904(13) 0.4970(9) -0.0052(9)
H15 H 0.7482 0.5497 -0.0183
C16 C 0.8164(14) 0.4488(9) -0.0577(8)
H16 H 0.7944 0.4677 -0.1077
C17 C 0.8740(16) 0.3732(9) -0.0408(8)
H17 H 0.8918 0.3388 -0.0787
C18 C 0.9071(13) 0.3459(7) 0.0322(7)
H18 H 0.9485 0.2929 0.0441
U2 U 1.09118(3) 0.152854(17) 0.199046(19)
O11 O 1.0363(6) 0.1264(3) 0.1034(3)
O12 O 1.1452(6) 0.1756(4) 0.2947(4)
U1_2 U 1.60548(3) 0.442413(17) 0.23865(2)
U1A U 0.89452(3) -0.057587(17) 0.26135(2)
O3A O 0.8063(5) 0.5357(3) 0.2673(4)
O6A O 0.6250(5) 0.5935(3) 0.2878(4)
O7_2 O 0.3962(5) 0.4978(3) 0.2622(4)
O7A O 1.1038(5) -0.0022(3) 0.2378(4)
O8A O 1.2877(6) 0.0557(3) 0.2194(4)
O9_2 O 1.2651(5) 0.2316(3) 0.1726(3)
U2_2 U 0.09118(3) 0.152854(17) 0.199046(19)
U2A U 1.40882(3) 0.652854(17) 0.300954(19)
loop_
_geom_bond_atom_site_label_1
_geom_bond_atom_site_label_2
_geom_bond_site_symmetry_1
_geom_bond_site_symmetry_2
U1 O1 1_555 1_555
P1 O5 1_555 1_555
P2 O4 1_555 1_555
O2 U1 1_555 1_555
O3 C1 1_555 1_555
O4 U1 1_555 1_555
O5 U1 1_555 1_555
O6 C1 1_555 1_555
O7 C10 1_555 1_555
O8 C10 1_555 1_555
O9 P1 1_555 1_555
O10 P2 1_555 1_555
C1 C2 1_555 1_555
C2 H1 1_555 1_555
H2 C2 1_555 1_555
C3 P1 1_555 1_555
H3 C3 1_555 1_555
H4 C3 1_555 1_555
C4 P1 1_555 1_555
C5 C4 1_555 1_555
H5 C5 1_555 1_555
C6 C5 1_555 1_555
H6 C6 1_555 1_555
C7 C6 1_555 1_555
H7 C7 1_555 1_555
C8 C7 1_555 1_555
H8 C8 1_555 1_555
C9 C4 1_555 1_555
H9 C9 1_555 1_555
C10 C11 1_555 1_555
C11 H10 1_555 1_555
H11 C11 1_555 1_555
C12 P2 1_555 1_555
H12 C12 1_555 1_555
H13 C12 1_555 1_555
C13 P2 1_555 1_555
C14 C13 1_555 1_555
H14 C14 1_555 1_555
C15 C14 1_555 1_555
H15 C15 1_555 1_555
C16 C15 1_555 1_555
H16 C16 1_555 1_555
C17 C16 1_555 1_555
H17 C17 1_555 1_555
C18 C13 1_555 1_555
H18 C18 1_555 1_555
U2 O6 1_555 1_555
O11 U2 1_555 1_555
O12 U2 1_555 1_555
U1_2 O7 1_555 1_555
U1A O3 1_555 1_555
O3A U1 1_555 1_555
O6A U1 1_555 1_555
O7_2 U1 1_555 1_555
O7A U2 1_555 1_555
O8A U2 1_555 1_555
O9_2 U2 1_555 1_555
U2_2 O9 1_555 1_555
U2A O7 1_555 1_555
O6 U1A 1_555 1_555
O8 U2A 1_555 1_555
O10 U2 1_555 1_555
C2 C3 1_555 1_555
C8 C9 1_555 1_555
C11 C12 1_555 1_555
C17 C18 1_555 1_555
U1A O7A 1_555 1_555

#END
