
#######################################################################
#
#                 Cambridge Crystallographic Data Centre
#                                CCDC 
#
#######################################################################
#
# If this CIF has been generated from an entry in the Cambridge 
# Structural Database, then it will include bibliographic, chemical, 
# crystal, experimental, refinement or atomic coordinate data resulting 
# from the CCDC's data processing and validation procedures.
#
#######################################################################

data_DOMVOS
_symmetry_cell_setting           monoclinic
_symmetry_space_group_name_H-M   'P 21/n'
_symmetry_Int_Tables_number      14
_space_group_name_Hall           '-P 2yn'
loop_
_symmetry_equiv_pos_site_id
_symmetry_equiv_pos_as_xyz
1 x,y,z
2 1/2-x,1/2+y,1/2-z
3 -x,-y,-z
4 1/2+x,1/2-y,1/2+z
_cell_length_a                   17.4173(7)
_cell_length_b                   6.5836(3)
_cell_length_c                   22.0638(9)
_cell_angle_alpha                90
_cell_angle_beta                 112.0520(10)
_cell_angle_gamma                90
_cell_volume                     2344.94
loop_
_atom_site_label
_atom_site_type_symbol
_atom_site_fract_x
_atom_site_fract_y
_atom_site_fract_z
U1 U 0.588055(12) 0.87487(3) 0.228211(12)
U2 U 0.407677(12) 0.52555(3) 0.263067(11)
P1 P 0.21450(9) 0.7539(2) 0.15915(9)
P2 P 0.78374(9) 0.6608(2) 0.34047(9)
O1 O 0.5968(3) 0.6905(7) 0.1738(2)
O2 O 0.5770(3) 1.0547(7) 0.2827(2)
O3 O 0.8482(3) 0.6111(6) 0.3122(2)
O4 O 0.7181(2) 0.8096(7) 0.2999(2)
O5 O 0.5628(3) 0.6012(7) 0.2927(3)
O6 O 0.4344(3) 0.7954(7) 0.1984(2)
O7 O 0.4675(3) 1.0111(6) 0.1384(2)
O8 O 0.4187(3) 0.3413(6) 0.2096(2)
O9 O 0.3986(3) 0.7129(6) 0.3163(2)
O10 O 0.2769(2) 0.5866(6) 0.1891(2)
O11 O 0.1580(3) 0.7962(6) 0.1953(2)
O12 O 0.5280(3) 0.3923(6) 0.3540(3)
C1 C 0.4129(4) 0.9261(9) 0.1516(3)
C2 C 0.3228(4) 0.9736(10) 0.1147(4)
H1 H 0.2994 0.8695 0.0803
H2 H 0.3188 1.1063 0.0925
C3 C 0.2691(4) 0.9822(9) 0.1568(4)
H3 H 0.2282 1.0932 0.1401
H4 H 0.3055 1.0177 0.2022
C4 C 0.1538(4) 0.6803(9) 0.0767(3)
C5 C 0.1024(4) 0.8181(11) 0.0326(4)
H5 H 0.0991 0.9541 0.0457
C6 C 0.0562(5) 0.7580(15) -0.0305(4)
H6 H 0.0214 0.8541 -0.0603
C7 C 0.0591(5) 0.5633(16) -0.0511(4)
H7 H 0.0279 0.5246 -0.0949
C8 C 0.1082(5) 0.4252(13) -0.0069(4)
H8 H 0.1093 0.2880 -0.0199
C9 C 0.1558(5) 0.4829(10) 0.0560(4)
H9 H 0.1904 0.3859 0.0856
C10 C 0.5839(4) 0.4765(9) 0.3409(3)
C11 C 0.6732(4) 0.4372(12) 0.3828(4)
H10 H 0.6763 0.3067 0.4059
H11 H 0.6919 0.5451 0.4164
C12 C 0.7341(4) 0.4279(10) 0.3476(4)
H12 H 0.7039 0.3745 0.3029
H13 H 0.7778 0.3282 0.3708
C13 C 0.8333(4) 0.7694(9) 0.4196(3)
C14 C 0.7925(5) 0.9120(12) 0.4429(4)
H14 H 0.7369 0.9485 0.4174
C15 C 0.8328(6) 1.0009(14) 0.5035(5)
H15 H 0.8050 1.1006 0.5188
C16 C 0.9128(6) 0.9465(14) 0.5417(4)
H16 H 0.9399 1.0068 0.5835
C17 C 0.9527(5) 0.8058(13) 0.5191(4)
H17 H 1.0079 0.7680 0.5452
C18 C 0.9142(4) 0.7189(11) 0.4595(4)
H18 H 0.9432 0.6212 0.4446
U1A U 0.911945(12) 0.37487(3) 0.271789(12)
U2A U 0.092323(12) 1.02555(3) 0.236933(11)
O3A O 0.6518(3) 1.1111(6) 0.1878(2)
O11A O 0.3420(3) 0.2962(6) 0.3047(2)
loop_
_geom_bond_atom_site_label_1
_geom_bond_atom_site_label_2
_geom_bond_site_symmetry_1
_geom_bond_site_symmetry_2
U1 O1 1_555 1_555
U2 O5 1_555 1_555
P1 O10 1_555 1_555
P2 O3 1_555 1_555
O2 U1 1_555 1_555
O3 U1A 1_555 1_555
O4 U1 1_555 1_555
O5 U1 1_555 1_555
O6 U1 1_555 1_555
O7 U1 1_555 1_555
O8 U2 1_555 1_555
O9 U2 1_555 1_555
O10 U2 1_555 1_555
O11 P1 1_555 1_555
O12 U2 1_555 1_555
C1 O6 1_555 1_555
C2 C1 1_555 1_555
H1 C2 1_555 1_555
H2 C2 1_555 1_555
C3 P1 1_555 1_555
H3 C3 1_555 1_555
H4 C3 1_555 1_555
C4 P1 1_555 1_555
C5 C4 1_555 1_555
H5 C5 1_555 1_555
C6 C5 1_555 1_555
H6 C6 1_555 1_555
C7 C6 1_555 1_555
H7 C7 1_555 1_555
C8 C7 1_555 1_555
H8 C8 1_555 1_555
C9 C4 1_555 1_555
H9 C9 1_555 1_555
C10 O5 1_555 1_555
C11 C10 1_555 1_555
H10 C11 1_555 1_555
H11 C11 1_555 1_555
C12 P2 1_555 1_555
H12 C12 1_555 1_555
H13 C12 1_555 1_555
C13 P2 1_555 1_555
C14 C13 1_555 1_555
H14 C14 1_555 1_555
C15 C14 1_555 1_555
H15 C15 1_555 1_555
C16 C15 1_555 1_555
H16 C16 1_555 1_555
C17 C16 1_555 1_555
H17 C17 1_555 1_555
C18 C13 1_555 1_555
H18 C18 1_555 1_555
U2A O11 1_555 1_555
O3A U1 1_555 1_555
O11A U2 1_555 1_555
U2 O6 1_555 1_555
P2 O4 1_555 1_555
O7 C1 1_555 1_555
O12 C10 1_555 1_555
C2 C3 1_555 1_555
C8 C9 1_555 1_555
C11 C12 1_555 1_555
C17 C18 1_555 1_555

#END
