
#######################################################################
#
#                 Cambridge Crystallographic Data Centre
#                                CCDC 
#
#######################################################################
#
# If this CIF has been generated from an entry in the Cambridge 
# Structural Database, then it will include bibliographic, chemical, 
# crystal, experimental, refinement or atomic coordinate data resulting 
# from the CCDC's data processing and validation procedures.
#
#######################################################################

data_DOMWEJ
_symmetry_cell_setting           monoclinic
_symmetry_space_group_name_H-M   'P 21/c'
_symmetry_Int_Tables_number      14
_space_group_name_Hall           '-P 2ybc'
loop_
_symmetry_equiv_pos_site_id
_symmetry_equiv_pos_as_xyz
1 x,y,z
2 -x,1/2+y,1/2-z
3 -x,-y,-z
4 x,1/2-y,1/2+z
_cell_length_a                   9.9657(5)
_cell_length_b                   11.5164(5)
_cell_length_c                   15.6916(7)
_cell_angle_alpha                90
_cell_angle_beta                 100.0740(10)
_cell_angle_gamma                90
_cell_volume                     1773.14
loop_
_atom_site_label
_atom_site_type_symbol
_atom_site_fract_x
_atom_site_fract_y
_atom_site_fract_z
U1 U 0.025726(14) 0.661412(12) 0.240990(9)
P1 P 0.20131(10) 0.58228(8) -0.14881(6)
O1 O -0.0956(3) 0.7624(3) 0.19283(18)
O2 O 0.1469(3) 0.5616(2) 0.29105(19)
O3 O 0.1340(3) 0.6987(2) -0.16841(18)
O4 O 0.1346(3) 0.4818(3) -0.19975(18)
O5 O 0.0705(3) 0.5916(2) 0.10233(18)
O6 O 0.1937(3) 0.7392(2) 0.15592(17)
C1 C 0.3716(4) 0.5917(3) -0.1708(2)
C2 C 0.4382(4) 0.4932(4) -0.1914(3)
H1 H 0.3953 0.4213 -0.1925
C3 C 0.5678(4) 0.5007(4) -0.2105(3)
H2 H 0.6114 0.4340 -0.2250
C4 C 0.6320(5) 0.6048(5) -0.2082(3)
H3 H 0.7193 0.6097 -0.2213
C5 C 0.5676(5) 0.7032(4) -0.1864(4)
H4 H 0.6124 0.7743 -0.1837
C6 C 0.4381(4) 0.6975(3) -0.1687(3)
H5 H 0.3947 0.7648 -0.1552
C7 C 0.2045(4) 0.5545(3) -0.0361(2)
H6 H 0.1159 0.5252 -0.0289
H7 H 0.2708 0.4939 -0.0176
C8 C 0.2390(4) 0.6594(3) 0.0227(3)
H8 H 0.3362 0.6593 0.0447
H9 H 0.2181 0.7294 -0.0115
C9 C 0.1648(4) 0.6637(3) 0.0979(3)
C10 C -0.1661(4) 0.5542(4) 0.3895(3)
H10 H -0.1793 0.4860 0.3575
C11 C -0.1030(5) 0.7262(4) 0.4323(3)
H11 H -0.0643 0.7998 0.4349
C12 C -0.1749(5) 0.6826(5) 0.4894(3)
H12 H -0.1936 0.7196 0.5387
C13 C -0.3078(4) 0.4968(5) 0.4986(3)
H13 H -0.2773 0.4914 0.5607
H14 H -0.3041 0.4196 0.4744
C14 C -0.4515(4) 0.5390(4) 0.4812(3)
H15 H -0.4816 0.5446 0.4191
H16 H -0.4548 0.6163 0.5053
N1 N -0.0953(3) 0.6443(3) 0.3691(2)
N2 N -0.2158(3) 0.5736(3) 0.4616(2)
C10B C -0.8339(4) 0.4458(4) 0.6105(3)
H10B H -0.8207 0.5140 0.6425
C11B C -0.8970(5) 0.2738(4) 0.5677(3)
H11B H -0.9357 0.2002 0.5651
C12B C -0.8251(5) 0.3174(5) 0.5106(3)
H12B H -0.8064 0.2804 0.4613
C13B C -0.6922(4) 0.5032(5) 0.5014(3)
H13B H -0.7227 0.5086 0.4393
H14B H -0.6959 0.5804 0.5256
C14B C -0.5485(4) 0.4610(4) 0.5188(3)
H15B H -0.5184 0.4554 0.5809
H16B H -0.5452 0.3837 0.4947
N1B N -0.9047(3) 0.3557(3) 0.6309(2)
N2B N -0.7842(3) 0.4264(3) 0.5384(2)
U1B U -1.025726(14) 0.338588(12) 0.759010(9)
P1B P -1.20131(10) 0.41772(8) 1.14881(6)
O1B O -0.9044(3) 0.2376(3) 0.80717(18)
O2B O -1.1469(3) 0.4384(2) 0.70895(19)
O3B O -1.1340(3) 0.3013(2) 1.16841(18)
O4B O -1.1346(3) 0.5182(3) 1.19975(18)
O5B O -1.0705(3) 0.4084(2) 0.89767(18)
O6B O -1.1937(3) 0.2608(2) 0.84408(17)
C1B C -1.3716(4) 0.4083(3) 1.1708(2)
C2B C -1.4382(4) 0.5068(4) 1.1914(3)
H1B H -1.3953 0.5787 1.1925
C3B C -1.5678(4) 0.4993(4) 1.2105(3)
H2B H -1.6114 0.5660 1.2250
C4B C -1.6320(5) 0.3952(5) 1.2082(3)
H3B H -1.7193 0.3903 1.2213
C5B C -1.5676(5) 0.2968(4) 1.1864(4)
H4B H -1.6124 0.2257 1.1837
C6B C -1.4381(4) 0.3025(3) 1.1687(3)
H5B H -1.3947 0.2352 1.1552
C7B C -1.2045(4) 0.4455(3) 1.0361(2)
H6B H -1.1159 0.4748 1.0289
H7B H -1.2708 0.5061 1.0176
C8B C -1.2390(4) 0.3406(3) 0.9773(3)
H8B H -1.3362 0.3407 0.9553
H9B H -1.2181 0.2706 1.0115
C9B C -1.1648(4) 0.3363(3) 0.9021(3)
U1_2 U -0.974274(14) 0.661412(12) 1.240990(9)
U1A U -1.025726(14) 0.161412(12) 1.259010(9)
U1B_2 U -0.025726(14) 0.338588(12) -0.240990(9)
U1C U 0.025726(14) 0.838588(12) -0.259010(9)
O3A O -1.1340(3) 0.1987(2) 0.66841(18)
O3C O 0.1340(3) 0.8013(2) 0.33159(18)
O4_2 O -0.8654(3) 0.4818(3) 0.80025(18)
O4B_2 O -0.1346(3) 0.5182(3) 0.19975(18)
loop_
_geom_bond_atom_site_label_1
_geom_bond_atom_site_label_2
_geom_bond_site_symmetry_1
_geom_bond_site_symmetry_2
U1 O1 1_555 1_555
P1 O3 1_555 1_555
O2 U1 1_555 1_555
O3 U1C 1_555 1_555
O4 P1 1_555 1_555
O5 U1 1_555 1_555
O6 U1 1_555 1_555
C1 P1 1_555 1_555
C2 C1 1_555 1_555
H1 C2 1_555 1_555
C3 C2 1_555 1_555
H2 C3 1_555 1_555
C4 C3 1_555 1_555
H3 C4 1_555 1_555
C5 C4 1_555 1_555
H4 C5 1_555 1_555
C6 C1 1_555 1_555
H5 C6 1_555 1_555
C7 P1 1_555 1_555
H6 C7 1_555 1_555
H7 C7 1_555 1_555
C8 C7 1_555 1_555
H8 C8 1_555 1_555
H9 C8 1_555 1_555
C9 O5 1_555 1_555
C10 H10 1_555 1_555
C11 H11 1_555 1_555
C12 C11 1_555 1_555
H12 C12 1_555 1_555
C13 H13 1_555 1_555
H14 C13 1_555 1_555
C14 C13 1_555 1_555
H15 C14 1_555 1_555
H16 C14 1_555 1_555
N1 U1 1_555 1_555
N2 C10 1_555 1_555
C10B H10B 1_555 1_555
C11B H11B 1_555 1_555
C12B C11B 1_555 1_555
H12B C12B 1_555 1_555
C13B H13B 1_555 1_555
H14B C13B 1_555 1_555
C14B C14 1_555 1_555
H15B C14B 1_555 1_555
H16B C14B 1_555 1_555
N1B C10B 1_555 1_555
N2B C10B 1_555 1_555
U1B N1B 1_555 1_555
P1B O3B 1_555 1_555
O1B U1B 1_555 1_555
O2B U1B 1_555 1_555
O3B U1A 1_555 1_555
O4B P1B 1_555 1_555
O5B U1B 1_555 1_555
O6B U1B 1_555 1_555
C1B P1B 1_555 1_555
C2B C1B 1_555 1_555
H1B C2B 1_555 1_555
C3B C2B 1_555 1_555
H2B C3B 1_555 1_555
C4B C3B 1_555 1_555
H3B C4B 1_555 1_555
C5B C4B 1_555 1_555
H4B C5B 1_555 1_555
C6B C1B 1_555 1_555
H5B C6B 1_555 1_555
C7B P1B 1_555 1_555
H6B C7B 1_555 1_555
H7B C7B 1_555 1_555
C8B C7B 1_555 1_555
H8B C8B 1_555 1_555
H9B C8B 1_555 1_555
C9B O5B 1_555 1_555
U1_2 O4B 1_555 1_555
U1B_2 O4 1_555 1_555
O3A U1B 1_555 1_555
O3C U1 1_555 1_555
O4_2 U1B 1_555 1_555
O4B_2 U1 1_555 1_555
O6 C9 1_555 1_555
C5 C6 1_555 1_555
C8 C9 1_555 1_555
C10 N1 1_555 1_555
C11 N1 1_555 1_555
C12 N2 1_555 1_555
C13 N2 1_555 1_555
C11B N1B 1_555 1_555
C12B N2B 1_555 1_555
C13B C14B 1_555 1_555
C13B N2B 1_555 1_555
O6B C9B 1_555 1_555
C5B C6B 1_555 1_555
C8B C9B 1_555 1_555

#END
