
#######################################################################
#
#                 Cambridge Crystallographic Data Centre
#                                CCDC 
#
#######################################################################
#
# If this CIF has been generated from an entry in the Cambridge 
# Structural Database, then it will include bibliographic, chemical, 
# crystal, experimental, refinement or atomic coordinate data resulting 
# from the CCDC's data processing and validation procedures.
#
#######################################################################

data_DONDAN
_symmetry_cell_setting           monoclinic
_symmetry_space_group_name_H-M   'P 21/c'
_symmetry_Int_Tables_number      14
_space_group_name_Hall           '-P 2ybc'
loop_
_symmetry_equiv_pos_site_id
_symmetry_equiv_pos_as_xyz
1 x,y,z
2 -x,1/2+y,1/2-z
3 -x,-y,-z
4 x,1/2-y,1/2+z
_cell_length_a                   8.2943(17)
_cell_length_b                   17.670(4)
_cell_length_c                   17.491(4)
_cell_angle_alpha                90
_cell_angle_beta                 90.001(3)
_cell_angle_gamma                90
_cell_volume                     2563.49
loop_
_atom_site_label
_atom_site_type_symbol
_atom_site_fract_x
_atom_site_fract_y
_atom_site_fract_z
C1 C 0.8619(4) 1.0782(2) 0.81983(19)
H1 H 0.8837 1.1322 0.8186
H2 H 0.9638 1.0517 0.8154
C2 C 0.7186(4) 0.97361(19) 0.7598(2)
H3 H 0.8186 0.9453 0.7571
H4 H 0.6506 0.9578 0.7176
C3 C 0.5969(4) 1.0994(2) 0.7619(2)
H5 H 0.5229 1.0846 0.7217
H6 H 0.6162 1.1534 0.7577
C4 C 0.8419(4) 1.0774(2) 0.68115(18)
H7 H 0.9455 1.0520 0.6825
H8 H 0.8632 1.1314 0.6826
C5 C 0.7647(4) 1.05983(18) 0.60426(18)
C6 C 0.5239(5) 1.0813(2) 0.8399(2)
H9 H 0.5160 1.1277 0.8694
H10 H 0.4156 1.0619 0.8327
C7 C 0.6338(6) 0.9575(2) 0.8354(2)
H11 H 0.5273 0.9373 0.8251
H12 H 0.6941 0.9193 0.8632
C8 C 0.7812(5) 1.0576(3) 0.8950(2)
H13 H 0.8474 1.0209 0.9217
H14 H 0.7735 1.1024 0.9267
C9 C 0.6441(6) 0.8510(2) 0.5786(2)
H15 H 0.5382 0.8517 0.6021
H16 H 0.7152 0.8821 0.6094
C10 C 0.7078(5) 0.7697(2) 0.5776(2)
H17 H 0.7905 0.7636 0.6163
H18 H 0.6208 0.7347 0.5888
C11 C 0.5474(5) 0.8278(2) 0.4524(2)
H19 H 0.5290 0.8498 0.4024
H20 H 0.4431 0.8169 0.4750
C12 C 0.6407(5) 0.7540(2) 0.4431(2)
H21 H 0.5696 0.7112 0.4515
H22 H 0.6838 0.7505 0.3916
C13 C 0.7997(5) 0.8897(2) 0.4710(3)
H23 H 0.8562 0.9293 0.4985
H24 H 0.7959 0.9039 0.4174
C14 C 0.8923(5) 0.8154(2) 0.4792(3)
H25 H 0.9456 0.8032 0.4315
H26 H 0.9741 0.8205 0.5186
C15 C 0.7817(4) 0.60811(18) 0.52665(19)
C16 C 0.8696(4) 0.67944(19) 0.5006(2)
H27 H 0.9632 0.6861 0.5332
H28 H 0.9090 0.6707 0.4491
Co1 Co 0.5000 1.0000 0.5000
Co2 Co 0.5000 0.5000 0.5000
N1 N 0.6330(3) 0.88337(15) 0.50087(15)
N2 N 0.7764(3) 0.75285(15) 0.50047(16)
N3 N 0.6181(3) 1.02571(15) 0.88358(15)
N4 N 0.7532(3) 1.05702(15) 0.75362(15)
O1 O 0.8503(3) 1.08012(19) 0.55004(15)
O2 O 0.6282(3) 1.02827(13) 0.60022(12)
O3 O 0.8617(4) 0.56380(16) 0.5659(2)
O4 O 0.6385(3) 0.59816(13) 0.50406(13)
O5 O 0.3213(3) 0.55980(14) 0.44101(13)
H29 H 0.2480 0.5309 0.4293
H30 H 0.3153 0.5999 0.4147
O6 O 0.6724(3) 1.04686(14) 0.43305(14)
H31 H 0.7476 1.0612 0.4598
H32 H 0.6868 1.0476 0.3911
C9B C 0.3559(6) 0.1490(2) 0.4214(2)
H15B H 0.4618 0.1483 0.3979
H16B H 0.2848 0.1179 0.3906
C10B C 0.2922(5) 0.2303(2) 0.4224(2)
H17B H 0.2095 0.2364 0.3837
H18B H 0.3792 0.2653 0.4112
C11B C 0.4526(5) 0.1722(2) 0.5476(2)
H19B H 0.4710 0.1502 0.5976
H20B H 0.5569 0.1831 0.5250
C12B C 0.3593(5) 0.2460(2) 0.5569(2)
H21B H 0.4304 0.2888 0.5485
H22B H 0.3162 0.2495 0.6084
C13B C 0.2003(5) 0.1103(2) 0.5290(3)
H23B H 0.1438 0.0707 0.5015
H24B H 0.2041 0.0961 0.5826
C14B C 0.1077(5) 0.1846(2) 0.5208(3)
H25B H 0.0544 0.1968 0.5685
H26B H 0.0259 0.1795 0.4814
C15B C 0.2183(4) 0.39189(18) 0.47335(19)
C16B C 0.1304(4) 0.32056(19) 0.4994(2)
H27B H 0.0368 0.3139 0.4668
H28B H 0.0910 0.3293 0.5509
N1B N 0.3670(3) 0.11663(15) 0.49913(15)
N2B N 0.2236(3) 0.24715(15) 0.49953(16)
O3B O 0.1383(4) 0.43620(16) 0.4341(2)
O4B O 0.3615(3) 0.40184(13) 0.49594(13)
O5B O 0.6787(3) 0.44020(14) 0.55899(13)
H29B H 0.7520 0.4691 0.5707
H30B H 0.6847 0.4001 0.5853
C1B C 0.1381(4) 0.9218(2) 0.18017(19)
H1B H 0.1163 0.8678 0.1814
H2B H 0.0362 0.9483 0.1846
C2B C 0.2814(4) 1.02639(19) 0.2402(2)
H3B H 0.1814 1.0547 0.2429
H4B H 0.3494 1.0422 0.2824
C3B C 0.4031(4) 0.9006(2) 0.2381(2)
H5B H 0.4771 0.9154 0.2783
H6B H 0.3838 0.8466 0.2423
C4B C 0.1581(4) 0.9226(2) 0.31885(18)
H7B H 0.0545 0.9480 0.3175
H8B H 0.1368 0.8686 0.3174
C5B C 0.2353(4) 0.94017(18) 0.39574(18)
C6B C 0.4761(5) 0.9187(2) 0.1601(2)
H9B H 0.4840 0.8723 0.1306
H10B H 0.5844 0.9381 0.1673
C7B C 0.3662(6) 1.0425(2) 0.1646(2)
H11B H 0.4727 1.0627 0.1749
H12B H 0.3059 1.0807 0.1368
C8B C 0.2188(5) 0.9424(3) 0.1050(2)
H13B H 0.1526 0.9791 0.0783
H14B H 0.2265 0.8976 0.0733
N3B N 0.3819(3) 0.97429(15) 0.11642(15)
N4B N 0.2468(3) 0.94298(15) 0.24638(15)
O1B O 0.1497(3) 0.91988(19) 0.44996(15)
O2B O 0.3718(3) 0.97173(13) 0.39978(12)
O6B O 0.3276(3) 0.95314(14) 0.56695(14)
H31B H 0.2524 0.9388 0.5402
H32B H 0.3132 0.9524 0.6089
Co1_2 Co 0.5000 0.0000 0.5000
Co2A Co 0.5000 1.0000 0.0000
Co2A_2 Co 0.5000 1.0000 1.0000
N1B_2 N 0.3670(3) 1.11663(15) 0.49913(15)
N3A N 0.3819(3) 0.52571(15) 0.61642(15)
N3C N 0.6181(3) 0.47429(15) 0.38358(15)
Cl1 Cl 0.80786(13) 0.45388(6) 0.76322(6)
Cl2 Cl 0.77578(17) 0.27231(6) 0.86931(7)
Cl3 Cl 1.10518(16) 0.29138(9) 0.73064(8)
Cl4 Cl 0.6973(2) 0.28476(7) 0.65452(9)
Co3 Co 0.84505(7) 0.32504(3) 0.75547(3)
loop_
_geom_bond_atom_site_label_1
_geom_bond_atom_site_label_2
_geom_bond_site_symmetry_1
_geom_bond_site_symmetry_2
C1 H1 1_555 1_555
H2 C1 1_555 1_555
C2 H3 1_555 1_555
H4 C2 1_555 1_555
C3 H5 1_555 1_555
H6 C3 1_555 1_555
C4 H7 1_555 1_555
H8 C4 1_555 1_555
C5 C4 1_555 1_555
C6 C3 1_555 1_555
H9 C6 1_555 1_555
H10 C6 1_555 1_555
C7 C2 1_555 1_555
H11 C7 1_555 1_555
H12 C7 1_555 1_555
C8 C1 1_555 1_555
H13 C8 1_555 1_555
H14 C8 1_555 1_555
C9 H15 1_555 1_555
H16 C9 1_555 1_555
C10 C9 1_555 1_555
H17 C10 1_555 1_555
H18 C10 1_555 1_555
C11 H19 1_555 1_555
H20 C11 1_555 1_555
C12 C11 1_555 1_555
H21 C12 1_555 1_555
H22 C12 1_555 1_555
C13 H23 1_555 1_555
H24 C13 1_555 1_555
C14 C13 1_555 1_555
H25 C14 1_555 1_555
H26 C14 1_555 1_555
C15 C16 1_555 1_555
C16 H27 1_555 1_555
H28 C16 1_555 1_555
Co1 N1 1_555 1_555
Co2 O4 1_555 1_555
N1 C9 1_555 1_555
N2 C10 1_555 1_555
N3 C6 1_555 1_555
N4 C1 1_555 1_555
O1 C5 1_555 1_555
O2 C5 1_555 1_555
O3 C15 1_555 1_555
O4 C15 1_555 1_555
O5 Co2 1_555 1_555
H29 O5 1_555 1_555
H30 O5 1_555 1_555
O6 Co1 1_555 1_555
H31 O6 1_555 1_555
H32 O6 1_555 1_555
Cl1 Co3 1_555 1_555
Cl2 Co3 1_555 1_555
Cl3 Co3 1_555 1_555
Cl4 Co3 1_555 1_555
C9B H15B 1_555 1_555
H16B C9B 1_555 1_555
C10B C9B 1_555 1_555
H17B C10B 1_555 1_555
H18B C10B 1_555 1_555
C11B H19B 1_555 1_555
H20B C11B 1_555 1_555
C12B C11B 1_555 1_555
H21B C12B 1_555 1_555
H22B C12B 1_555 1_555
C13B H23B 1_555 1_555
H24B C13B 1_555 1_555
C14B C13B 1_555 1_555
H25B C14B 1_555 1_555
H26B C14B 1_555 1_555
C15B C16B 1_555 1_555
C16B H27B 1_555 1_555
H28B C16B 1_555 1_555
N1B C9B 1_555 1_555
N2B C10B 1_555 1_555
O3B C15B 1_555 1_555
O4B Co2 1_555 1_555
O5B Co2 1_555 1_555
H29B O5B 1_555 1_555
H30B O5B 1_555 1_555
C1B H1B 1_555 1_555
H2B C1B 1_555 1_555
C2B H3B 1_555 1_555
H4B C2B 1_555 1_555
C3B H5B 1_555 1_555
H6B C3B 1_555 1_555
C4B H7B 1_555 1_555
H8B C4B 1_555 1_555
C5B C4B 1_555 1_555
C6B C3B 1_555 1_555
H9B C6B 1_555 1_555
H10B C6B 1_555 1_555
C7B C2B 1_555 1_555
H11B C7B 1_555 1_555
H12B C7B 1_555 1_555
C8B C1B 1_555 1_555
H13B C8B 1_555 1_555
H14B C8B 1_555 1_555
N3B C6B 1_555 1_555
N4B C1B 1_555 1_555
O1B C5B 1_555 1_555
O2B Co1 1_555 1_555
O6B Co1 1_555 1_555
H31B O6B 1_555 1_555
H32B O6B 1_555 1_555
Co1_2 N1B 1_555 1_555
Co2A N3B 1_555 1_555
Co2A_2 N3 1_555 1_555
N1B_2 Co1 1_555 1_555
N3A Co2 1_555 1_555
N3C Co2 1_555 1_555
C2 N4 1_555 1_555
C3 N4 1_555 1_555
C4 N4 1_555 1_555
C7 N3 1_555 1_555
C8 N3 1_555 1_555
C11 N1 1_555 1_555
C12 N2 1_555 1_555
C13 N1 1_555 1_555
C14 N2 1_555 1_555
C16 N2 1_555 1_555
Co1 O2 1_555 1_555
C11B N1B 1_555 1_555
C12B N2B 1_555 1_555
C13B N1B 1_555 1_555
C14B N2B 1_555 1_555
C15B O4B 1_555 1_555
C16B N2B 1_555 1_555
C2B N4B 1_555 1_555
C3B N4B 1_555 1_555
C4B N4B 1_555 1_555
C5B O2B 1_555 1_555
C7B N3B 1_555 1_555
C8B N3B 1_555 1_555

#END
