
#######################################################################
#
#                 Cambridge Crystallographic Data Centre
#                                CCDC 
#
#######################################################################
#
# If this CIF has been generated from an entry in the Cambridge 
# Structural Database, then it will include bibliographic, chemical, 
# crystal, experimental, refinement or atomic coordinate data resulting 
# from the CCDC's data processing and validation procedures.
#
#######################################################################

data_DONFAP
_symmetry_cell_setting           monoclinic
_symmetry_space_group_name_H-M   'P 21/n'
_symmetry_Int_Tables_number      14
_space_group_name_Hall           '-P 2yn'
loop_
_symmetry_equiv_pos_site_id
_symmetry_equiv_pos_as_xyz
1 x,y,z
2 1/2-x,1/2+y,1/2-z
3 -x,-y,-z
4 1/2+x,1/2-y,1/2+z
_cell_length_a                   9.3553(2)
_cell_length_b                   24.7637(4)
_cell_length_c                   11.6174(2)
_cell_angle_alpha                90
_cell_angle_beta                 113.4110(10)
_cell_angle_gamma                90
_cell_volume                     2469.86
loop_
_atom_site_label
_atom_site_type_symbol
_atom_site_fract_x
_atom_site_fract_y
_atom_site_fract_z
Mn1 Mn 0.18429(4) 0.185777(12) 0.14440(2)
Mn2 Mn 0.0000 0.0000 0.0000
N1 N 0.1876(2) 0.18419(7) 0.34074(14)
N2 N 0.1941(2) 0.18392(7) 0.95198(15)
N3 N -0.0015(2) 0.00725(7) -0.19527(14)
O1 O 0.26504(16) 0.10310(5) 0.18073(12)
O2 O 0.23247(16) 0.03130(5) 0.05698(12)
O3 O 0.6167(2) 0.18263(7) -0.53277(14)
O4 O 0.6438(2) 0.22909(6) -0.36118(14)
O5 O 0.90483(16) 0.08251(5) -0.01781(12)
O6 O 0.94139(16) 0.16331(6) 0.07413(13)
O7 O 0.4320(2) 0.21810(8) 0.23615(16)
C1 C 0.4458(2) 0.08849(7) 0.08739(17)
C2 C 0.4491(2) 0.07982(7) -0.02973(17)
H1 H 0.3640 0.0635 -0.0921
C3 C 0.5764(2) 0.09490(7) -0.05646(17)
C4 C 0.7068(2) 0.11651(7) 0.04039(17)
C5 C 0.7008(2) 0.12717(8) 0.15601(17)
H2 H 0.7852 0.1438 0.2186
C6 C 0.5715(2) 0.11355(8) 0.17966(17)
H3 H 0.5691 0.1212 0.2572
C7 C 0.5619(2) 0.09201(8) -0.18833(17)
C8 C 0.4982(2) 0.04726(8) -0.26353(19)
H4 H 0.4710 0.0170 -0.2293
C9 C 0.4750(3) 0.04736(9) -0.38880(19)
H5 H 0.4324 0.0171 -0.4379
C10 C 0.5144(3) 0.09197(9) -0.44214(18)
H6 H 0.4982 0.0916 -0.5265
C11 C 0.5778(2) 0.13698(8) -0.36927(17)
C12 C 0.6006(2) 0.13640(8) -0.24343(17)
H7 H 0.6432 0.1667 -0.1945
C13 C 0.3026(2) 0.07305(8) 0.11011(16)
C14 C 0.6159(3) 0.18698(8) -0.42651(18)
C15 C 0.8629(2) 0.12138(7) 0.03011(16)
C16 C 0.1367(3) 0.14190(9) 0.38437(19)
H8 H 0.1000 0.1120 0.3324
C17 C 0.2424(3) 0.22586(8) 0.41895(18)
H9 H 0.2803 0.2555 0.3909
C18 C 0.2461(3) 0.22758(8) 0.53856(18)
H10 H 0.2852 0.2577 0.5891
C19 C 0.1905(2) 0.18362(8) 0.58255(17)
C20 C 0.1357(3) 0.14015(8) 0.50216(19)
H11 H 0.0980 0.1097 0.5279
C21 C 0.1935(3) 0.18364(8) 0.71094(17)
C22 C 0.3038(3) 0.21230(9) 0.80788(18)
H12 H 0.3803 0.2320 0.7941
C23 C 0.2995(3) 0.21146(9) 0.92529(18)
H13 H 0.3741 0.2312 0.9892
C24 C 0.0889(3) 0.15584(9) 0.85863(19)
H14 H 0.0151 0.1360 0.8756
C25 C 0.0838(3) 0.15476(9) 0.73870(19)
H15 H 0.0074 0.1348 0.6766
C26 C -0.1212(3) 0.02509(10) -0.29521(19)
H16 H -0.2075 0.0388 -0.2841
C27 C -0.1237(3) 0.02427(10) -0.41483(19)
H17 H -0.2085 0.0386 -0.4814
C28 C 0.0001(2) 0.00216(8) -0.43597(16)
C29 C 0.1258(2) -0.01491(9) -0.33097(17)
H18 H 0.2133 -0.0292 -0.3392
C30 C 0.1217(3) -0.01084(8) -0.21398(18)
H19 H 0.2094 -0.0213 -0.1445
H20 H 0.503(4) 0.2090(15) 0.315(3)
H21 H 0.429(4) 0.2512(15) 0.240(3)
N3B N 0.0015(2) -0.00725(7) -0.80473(14)
C26B C 0.1212(3) -0.02509(10) -0.70479(19)
H16B H 0.2075 -0.0388 -0.7159
C27B C 0.1237(3) -0.02427(10) -0.58517(19)
H17B H 0.2085 -0.0386 -0.5186
C28B C -0.0001(2) -0.00216(8) -0.56403(16)
C29B C -0.1258(2) 0.01491(9) -0.66903(17)
H18B H -0.2133 0.0292 -0.6608
C30B C -0.1217(3) 0.01084(8) -0.78602(18)
H19B H -0.2094 0.0213 -0.8555
Mn1_2 Mn 0.18429(4) 0.185777(12) -0.85560(2)
N1_2 N 0.1876(2) 0.18419(7) -0.65926(14)
N2_2 N 0.1941(2) 0.18392(7) -0.04802(15)
O1_2 O 0.26504(16) 0.10310(5) -0.81927(12)
O2_2 O 0.23247(16) 0.03130(5) -0.94302(12)
O3_2 O 0.6167(2) 0.18263(7) -1.53277(14)
O4_2 O 0.6438(2) 0.22909(6) -1.36118(14)
O5_2 O 0.90483(16) 0.08251(5) -1.01781(12)
O6_2 O 0.94139(16) 0.16331(6) -0.92587(13)
O7_2 O 0.4320(2) 0.21810(8) -0.76385(16)
C1_2 C 0.4458(2) 0.08849(7) -0.91261(17)
C2_2 C 0.4491(2) 0.07982(7) -1.02973(17)
H1_2 H 0.3640 0.0635 -1.0921
C3_2 C 0.5764(2) 0.09490(7) -1.05646(17)
C4_2 C 0.7068(2) 0.11651(7) -0.95961(17)
C5_2 C 0.7008(2) 0.12717(8) -0.84399(17)
H2_2 H 0.7852 0.1438 -0.7814
C6_2 C 0.5715(2) 0.11355(8) -0.82034(17)
H3_2 H 0.5691 0.1212 -0.7428
C7_2 C 0.5619(2) 0.09201(8) -1.18833(17)
C8_2 C 0.4982(2) 0.04726(8) -1.26353(19)
H4_2 H 0.4710 0.0170 -1.2293
C9_2 C 0.4750(3) 0.04736(9) -1.38880(19)
H5_2 H 0.4324 0.0171 -1.4379
C10_2 C 0.5144(3) 0.09197(9) -1.44214(18)
H6_2 H 0.4982 0.0916 -1.5265
C11_2 C 0.5778(2) 0.13698(8) -1.36927(17)
C12_2 C 0.6006(2) 0.13640(8) -1.24343(17)
H7_2 H 0.6432 0.1667 -1.1945
C13_2 C 0.3026(2) 0.07305(8) -0.88989(16)
C14_2 C 0.6159(3) 0.18698(8) -1.42651(18)
C15_2 C 0.8629(2) 0.12138(7) -0.96989(16)
C16_2 C 0.1367(3) 0.14190(9) -0.61563(19)
H8_2 H 0.1000 0.1120 -0.6676
C17_2 C 0.2424(3) 0.22586(8) -0.58105(18)
H9_2 H 0.2803 0.2555 -0.6091
C18_2 C 0.2461(3) 0.22758(8) -0.46144(18)
H10_2 H 0.2852 0.2577 -0.4109
C19_2 C 0.1905(2) 0.18362(8) -0.41745(17)
C20_2 C 0.1357(3) 0.14015(8) -0.49784(19)
H11_2 H 0.0980 0.1097 -0.4721
C21_2 C 0.1935(3) 0.18364(8) -0.28906(17)
C22_2 C 0.3038(3) 0.21230(9) -0.19212(18)
H12_2 H 0.3803 0.2320 -0.2059
C23_2 C 0.2995(3) 0.21146(9) -0.07471(18)
H13_2 H 0.3741 0.2312 -0.0108
C24_2 C 0.0889(3) 0.15584(9) -0.14137(19)
H14_2 H 0.0151 0.1360 -0.1244
C25_2 C 0.0838(3) 0.15476(9) -0.26130(19)
H15_2 H 0.0074 0.1348 -0.3234
H20_2 H 0.503(4) 0.2090(15) -0.685(3)
H21_2 H 0.429(4) 0.2512(15) -0.760(3)
Mn1_3 Mn 0.18429(4) 0.185777(12) 1.14440(2)
Mn1_4 Mn 1.18429(4) 0.185777(12) -0.85560(2)
Mn1_5 Mn 1.18429(4) 0.185777(12) 0.14440(2)
Mn1C Mn 0.68429(4) 0.314223(12) -1.35560(2)
Mn1C_2 Mn 0.68429(4) 0.314223(12) -0.35560(2)
Mn2_2 Mn 0.0000 0.0000 -1.0000
Mn2_3 Mn 1.0000 0.0000 -1.0000
Mn2_4 Mn 1.0000 0.0000 0.0000
N2_3 N 0.1941(2) 0.18392(7) -1.04802(15)
N3B_2 N 0.0015(2) -0.00725(7) 0.19527(14)
O2B O -0.23247(16) -0.03130(5) -0.05698(12)
O4C O 0.1438(2) 0.27091(6) -0.86118(14)
O4C_2 O 0.1438(2) 0.27091(6) 0.13882(14)
O5_3 O -0.09517(16) 0.08251(5) -0.01781(12)
O5B O 0.09517(16) -0.08251(5) 0.01781(12)
O6_3 O -0.05861(16) 0.16331(6) -0.92587(13)
O6_4 O -0.05861(16) 0.16331(6) 0.07413(13)
loop_
_geom_bond_atom_site_label_1
_geom_bond_atom_site_label_2
_geom_bond_site_symmetry_1
_geom_bond_site_symmetry_2
Mn1 N1 1_555 1_555
Mn2 N3 1_555 1_555
N1 C16 1_555 1_555
N2 C23 1_555 1_555
N3 C26 1_555 1_555
O1 Mn1 1_555 1_555
O2 Mn2 1_555 1_555
O3 C14 1_555 1_555
O4 C14 1_555 1_555
O5 C15 1_555 1_555
O6 C15 1_555 1_555
O7 Mn1 1_555 1_555
C1 C2 1_555 1_555
C2 H1 1_555 1_555
C3 C2 1_555 1_555
C4 C3 1_555 1_555
C5 C4 1_555 1_555
H2 C5 1_555 1_555
C6 C1 1_555 1_555
H3 C6 1_555 1_555
C7 C3 1_555 1_555
C8 C7 1_555 1_555
H4 C8 1_555 1_555
C9 C8 1_555 1_555
H5 C9 1_555 1_555
C10 C9 1_555 1_555
H6 C10 1_555 1_555
C11 C10 1_555 1_555
C12 C7 1_555 1_555
H7 C12 1_555 1_555
C13 O1 1_555 1_555
C14 C11 1_555 1_555
C15 C4 1_555 1_555
C16 H8 1_555 1_555
C17 N1 1_555 1_555
H9 C17 1_555 1_555
C18 C17 1_555 1_555
H10 C18 1_555 1_555
C19 C18 1_555 1_555
C20 C16 1_555 1_555
H11 C20 1_555 1_555
C21 C19 1_555 1_555
C22 C21 1_555 1_555
H12 C22 1_555 1_555
C23 C22 1_555 1_555
H13 C23 1_555 1_555
C24 N2 1_555 1_555
H14 C24 1_555 1_555
C25 C21 1_555 1_555
H15 C25 1_555 1_555
C26 H16 1_555 1_555
C27 C26 1_555 1_555
H17 C27 1_555 1_555
C28 C27 1_555 1_555
C29 C28 1_555 1_555
H18 C29 1_555 1_555
C30 N3 1_555 1_555
H19 C30 1_555 1_555
H20 O7 1_555 1_555
H21 O7 1_555 1_555
N3B C26B 1_555 1_555
C26B H16B 1_555 1_555
C27B C26B 1_555 1_555
H17B C27B 1_555 1_555
C28B C28 1_555 1_555
C29B C28B 1_555 1_555
H18B C29B 1_555 1_555
C30B N3B 1_555 1_555
H19B C30B 1_555 1_555
Mn1_2 N1_2 1_555 1_555
N1_2 C16_2 1_555 1_555
N2_2 Mn1 1_555 1_555
O1_2 Mn1_2 1_555 1_555
O2_2 C13_2 1_555 1_555
O3_2 C14_2 1_555 1_555
O4_2 C14_2 1_555 1_555
O5_2 C15_2 1_555 1_555
O6_2 C15_2 1_555 1_555
O7_2 Mn1_2 1_555 1_555
C1_2 C2_2 1_555 1_555
C2_2 H1_2 1_555 1_555
C3_2 C2_2 1_555 1_555
C4_2 C3_2 1_555 1_555
C5_2 C4_2 1_555 1_555
H2_2 C5_2 1_555 1_555
C6_2 C1_2 1_555 1_555
H3_2 C6_2 1_555 1_555
C7_2 C3_2 1_555 1_555
C8_2 C7_2 1_555 1_555
H4_2 C8_2 1_555 1_555
C9_2 C8_2 1_555 1_555
H5_2 C9_2 1_555 1_555
C10_2 C9_2 1_555 1_555
H6_2 C10_2 1_555 1_555
C11_2 C10_2 1_555 1_555
C12_2 C7_2 1_555 1_555
H7_2 C12_2 1_555 1_555
C13_2 O1_2 1_555 1_555
C14_2 C11_2 1_555 1_555
C15_2 C4_2 1_555 1_555
C16_2 H8_2 1_555 1_555
C17_2 N1_2 1_555 1_555
H9_2 C17_2 1_555 1_555
C18_2 C17_2 1_555 1_555
H10_2 C18_2 1_555 1_555
C19_2 C18_2 1_555 1_555
C20_2 C16_2 1_555 1_555
H11_2 C20_2 1_555 1_555
C21_2 C19_2 1_555 1_555
C22_2 C21_2 1_555 1_555
H12_2 C22_2 1_555 1_555
C23_2 N2_2 1_555 1_555
H13_2 C23_2 1_555 1_555
C24_2 N2_2 1_555 1_555
H14_2 C24_2 1_555 1_555
C25_2 C21_2 1_555 1_555
H15_2 C25_2 1_555 1_555
H20_2 O7_2 1_555 1_555
H21_2 O7_2 1_555 1_555
Mn1_3 N2 1_555 1_555
Mn1_4 O6_2 1_555 1_555
Mn1_5 O6 1_555 1_555
Mn1C O4_2 1_555 1_555
Mn1C_2 O4 1_555 1_555
Mn2_2 N3B 1_555 1_555
Mn2_3 O5_2 1_555 1_555
Mn2_4 O5 1_555 1_555
N2_3 Mn1_2 1_555 1_555
N3B_2 Mn2 1_555 1_555
O2B Mn2 1_555 1_555
O4C Mn1_2 1_555 1_555
O4C_2 Mn1 1_555 1_555
O5_3 Mn2 1_555 1_555
O5B Mn2 1_555 1_555
O6_3 Mn1_2 1_555 1_555
O6_4 Mn1 1_555 1_555
O2 C13 1_555 1_555
C1 C13 1_555 1_555
C5 C6 1_555 1_555
C11 C12 1_555 1_555
C19 C20 1_555 1_555
C24 C25 1_555 1_555
C29 C30 1_555 1_555
C27B C28B 1_555 1_555
C29B C30B 1_555 1_555
O2_2 Mn2_2 1_555 1_555
C1_2 C13_2 1_555 1_555
C5_2 C6_2 1_555 1_555
C11_2 C12_2 1_555 1_555
C19_2 C20_2 1_555 1_555
C22_2 C23_2 1_555 1_555
C24_2 C25_2 1_555 1_555

#END
