
#######################################################################
#
#                 Cambridge Crystallographic Data Centre
#                                CCDC 
#
#######################################################################
#
# If this CIF has been generated from an entry in the Cambridge 
# Structural Database, then it will include bibliographic, chemical, 
# crystal, experimental, refinement or atomic coordinate data resulting 
# from the CCDC's data processing and validation procedures.
#
#######################################################################

data_DONHAR
_symmetry_cell_setting           monoclinic
_symmetry_space_group_name_H-M   'P 21/c'
_symmetry_Int_Tables_number      14
_space_group_name_Hall           '-P 2ybc'
loop_
_symmetry_equiv_pos_site_id
_symmetry_equiv_pos_as_xyz
1 x,y,z
2 -x,1/2+y,1/2-z
3 -x,-y,-z
4 x,1/2-y,1/2+z
_cell_length_a                   14.0538(2)
_cell_length_b                   9.6399(2)
_cell_length_c                   15.0779(3)
_cell_angle_alpha                90
_cell_angle_beta                 104.1400(10)
_cell_angle_gamma                90
_cell_volume                     1980.82
loop_
_atom_site_label
_atom_site_type_symbol
_atom_site_fract_x
_atom_site_fract_y
_atom_site_fract_z
Ag1 Ag -0.046277(11) 0.928871(18) 0.154480(11)
O1 O 0.43213(10) 0.90470(14) 0.07755(10)
O2 O 0.40309(9) 0.67439(13) 0.08259(9)
O3 O 0.50138(10) 0.70232(14) 0.29491(9)
O4 O 0.48888(10) 0.50186(13) 0.21657(9)
N1 N 0.08994(11) 0.87574(18) 0.11854(11)
N2 N 0.19880(11) 0.47117(17) 0.34467(10)
C1 C 0.14242(15) 0.9788(2) 0.09344(13)
H1 H 0.1148 1.0669 0.0842
C2 C 0.23484(15) 0.9596(2) 0.08086(13)
H2 H 0.2696 1.0337 0.0648
C3 C 0.27582(13) 0.82763(19) 0.09253(11)
C4 C 0.22096(13) 0.7196(2) 0.11428(12)
H3 H 0.2453 0.6295 0.1200
C5 C 0.12861(13) 0.7487(2) 0.12747(13)
H4 H 0.0921 0.6764 0.1432
C6 C 0.37853(13) 0.81125(19) 0.08305(12)
C7 C 0.50109(13) 0.64034(18) 0.08698(12)
C8 C 0.54943(13) 0.67994(19) 0.02342(12)
H5 H 0.5185 0.7361 -0.0253
C9 C 0.64726(13) 0.63536(18) 0.03161(12)
C10 C 0.70022(14) 0.6745(2) -0.03333(13)
H6 H 0.6697 0.7275 -0.0838
C11 C 0.79585(15) 0.6350(2) -0.02243(15)
H7 H 0.8299 0.6618 -0.0653
C12 C 0.84296(15) 0.5542(2) 0.05308(15)
H8 H 0.9082 0.5287 0.0603
C13 C 0.79347(14) 0.5128(2) 0.11589(14)
H9 H 0.8253 0.4583 0.1651
C14 C 0.69446(13) 0.55139(18) 0.10731(12)
C15 C 0.64070(13) 0.51071(19) 0.17129(12)
H10 H 0.6701 0.4551 0.2208
C16 C 0.54655(14) 0.55286(18) 0.16030(12)
C17 C 0.46195(13) 0.59302(18) 0.27437(12)
C18 C 0.37422(13) 0.54276(18) 0.30412(11)
C19 C 0.32500(13) 0.6366(2) 0.34628(12)
H11 H 0.3507 0.7246 0.3621
C20 C 0.23750(14) 0.5978(2) 0.36444(12)
H12 H 0.2039 0.6619 0.3915
C21 C 0.24850(13) 0.3795(2) 0.30604(13)
H13 H 0.2226 0.2909 0.2931
C22 C 0.33608(14) 0.41073(19) 0.28462(13)
H14 H 0.3686 0.3449 0.2578
O5 O -0.01266(15) 0.68851(18) 0.27180(11)
O6 O 0.02912(12) 0.71388(17) 0.41789(10)
O7 O -0.03491(12) 0.88497(17) 0.33046(11)
N3 N -0.00538(12) 0.76264(18) 0.34047(11)
Ag1A Ag 0.046277(11) 0.428871(18) 0.345520(11)
N2A N -0.19880(11) 0.97117(17) 0.15533(10)
loop_
_geom_bond_atom_site_label_1
_geom_bond_atom_site_label_2
_geom_bond_site_symmetry_1
_geom_bond_site_symmetry_2
Ag1 N1 1_555 1_555
O1 C6 1_555 1_555
O2 C6 1_555 1_555
O3 C17 1_555 1_555
O4 C16 1_555 1_555
N1 C1 1_555 1_555
N2 C20 1_555 1_555
C1 H1 1_555 1_555
C2 C1 1_555 1_555
H2 C2 1_555 1_555
C3 C2 1_555 1_555
C4 C3 1_555 1_555
H3 C4 1_555 1_555
C5 N1 1_555 1_555
H4 C5 1_555 1_555
C6 C3 1_555 1_555
C7 O2 1_555 1_555
C8 C7 1_555 1_555
H5 C8 1_555 1_555
C9 C8 1_555 1_555
C10 C9 1_555 1_555
H6 C10 1_555 1_555
C11 C10 1_555 1_555
H7 C11 1_555 1_555
C12 C11 1_555 1_555
H8 C12 1_555 1_555
C13 C12 1_555 1_555
H9 C13 1_555 1_555
C14 C9 1_555 1_555
C15 C14 1_555 1_555
H10 C15 1_555 1_555
C16 C7 1_555 1_555
C17 O4 1_555 1_555
C18 C17 1_555 1_555
C19 C18 1_555 1_555
H11 C19 1_555 1_555
C20 C19 1_555 1_555
H12 C20 1_555 1_555
C21 N2 1_555 1_555
H13 C21 1_555 1_555
C22 C18 1_555 1_555
H14 C22 1_555 1_555
O5 N3 1_555 1_555
O6 N3 1_555 1_555
O7 Ag1 1_555 1_555
N3 O7 1_555 1_555
Ag1A N2 1_555 1_555
N2A Ag1 1_555 1_555
C4 C5 1_555 1_555
C13 C14 1_555 1_555
C15 C16 1_555 1_555
C21 C22 1_555 1_555

#END
