
#######################################################################
#
#                 Cambridge Crystallographic Data Centre
#                                CCDC 
#
#######################################################################
#
# If this CIF has been generated from an entry in the Cambridge 
# Structural Database, then it will include bibliographic, chemical, 
# crystal, experimental, refinement or atomic coordinate data resulting 
# from the CCDC's data processing and validation procedures.
#
#######################################################################

data_DOPKUQ
_symmetry_cell_setting           monoclinic
_symmetry_space_group_name_H-M   'P 21/c'
_symmetry_Int_Tables_number      14
_space_group_name_Hall           '-P 2ybc'
loop_
_symmetry_equiv_pos_site_id
_symmetry_equiv_pos_as_xyz
1 x,y,z
2 -x,1/2+y,1/2-z
3 -x,-y,-z
4 x,1/2-y,1/2+z
_cell_length_a                   12.768(3)
_cell_length_b                   8.1286(16)
_cell_length_c                   20.797(4)
_cell_angle_alpha                90
_cell_angle_beta                 97.81(3)
_cell_angle_gamma                90
_cell_volume                     2138.42
loop_
_atom_site_label
_atom_site_type_symbol
_atom_site_fract_x
_atom_site_fract_y
_atom_site_fract_z
O1 O 0.2982(7) 0.8086(10) -0.1919(4)
O2 O 0.3835(6) 1.0235(9) -0.2256(4)
C1 C 0.3200(9) 0.9553(15) -0.1913(5)
O3 O 0.5289(6) 0.7988(11) 0.6006(4)
O4 O 0.5225(5) 1.0143(9) 0.6662(4)
C2 C 0.5507(8) 0.9426(17) 0.6157(5)
Pb1 Pb 0.45234(3) 0.71294(5) 0.22120(2)
C3 C 0.6345(9) 0.6873(14) 0.3615(5)
H1 H 0.5710 0.7149 0.3761
C4 C 0.7294(8) 0.7189(13) 0.4022(5)
N1 N 0.6421(7) 0.8908(11) 0.4792(4)
N2 N 0.2736(7) 0.6738(11) 0.1381(5)
N3 N 0.2081(8) 0.9880(12) -0.1024(5)
N4 N 0.8105(7) 0.8217(12) 0.5114(5)
N5 N 0.6804(7) 0.9555(11) 0.5367(4)
N6 N 0.2514(7) 0.9222(11) -0.0467(4)
C5 C 0.7268(8) 0.8075(13) 0.4633(5)
C6 C 0.2664(8) 0.7484(12) 0.0821(6)
H2 H 0.3283 0.7924 0.0702
N7 N 0.6314(8) 0.6185(12) 0.3020(5)
C7 C 0.8232(9) 0.6664(15) 0.3821(6)
H3 H 0.8874 0.6824 0.4083
C8 C 0.1709(8) 0.7686(14) 0.0369(5)
N8 N 0.1055(8) 0.9657(16) -0.1146(5)
C9 C 0.0821(10) 0.6983(17) 0.0560(6)
H4 H 0.0177 0.7053 0.0293
C10 C 0.7203(9) 0.5724(14) 0.2825(6)
H5 H 0.7183 0.5270 0.2413
C11 C 0.6174(8) 1.0511(14) 0.5766(5)
H6 H 0.5709 1.1237 0.5488
H7 H 0.6641 1.1189 0.6062
C12 C 0.1858(10) 0.6057(16) 0.1542(6)
H8 H 0.1893 0.5481 0.1931
C13 C 0.1675(9) 0.8556(15) -0.0248(5)
N9 N 0.7794(7) 0.9160(12) 0.5580(5)
C14 C 0.2709(9) 1.0747(15) -0.1478(6)
H9 H 0.3265 1.1384 -0.1229
H10 H 0.2252 1.1505 -0.1746
C15 C 0.8193(9) 0.5891(15) 0.3219(6)
H11 H 0.8806 0.5493 0.3078
C16 C 0.0881(9) 0.6184(18) 0.1142(6)
H12 H 0.0278 0.5725 0.1273
N10 N 0.0782(8) 0.8813(17) -0.0659(5)
O1C O 0.2982(7) 0.6914(10) 0.3081(4)
O2C O 0.3835(6) 0.4765(9) 0.2744(4)
O3C O 0.5289(6) 0.7012(11) 0.1006(4)
O4C O 0.5225(5) 0.4857(9) 0.1662(4)
Pb1C Pb 0.45234(3) 0.78706(5) -0.27880(2)
Pb1C_2 Pb 0.45234(3) 0.78706(5) 0.72120(2)
loop_
_geom_bond_atom_site_label_1
_geom_bond_atom_site_label_2
_geom_bond_site_symmetry_1
_geom_bond_site_symmetry_2
O1 C1 1_555 1_555
O2 C1 1_555 1_555
C1 C14 1_555 1_555
O3 C2 1_555 1_555
O4 C2 1_555 1_555
C2 C11 1_555 1_555
Pb1 N2 1_555 1_555
C3 H1 1_555 1_555
C4 C3 1_555 1_555
N1 N5 1_555 1_555
N2 C6 1_555 1_555
N3 N6 1_555 1_555
N4 C5 1_555 1_555
N5 C11 1_555 1_555
N6 C13 1_555 1_555
C5 C4 1_555 1_555
C6 H2 1_555 1_555
N7 Pb1 1_555 1_555
C7 C4 1_555 1_555
H3 C7 1_555 1_555
C8 C6 1_555 1_555
N8 N3 1_555 1_555
C9 C8 1_555 1_555
H4 C9 1_555 1_555
C10 N7 1_555 1_555
H5 C10 1_555 1_555
C11 H6 1_555 1_555
H7 C11 1_555 1_555
C12 N2 1_555 1_555
H8 C12 1_555 1_555
C13 C8 1_555 1_555
N9 N4 1_555 1_555
C14 N3 1_555 1_555
H9 C14 1_555 1_555
H10 C14 1_555 1_555
C15 C7 1_555 1_555
H11 C15 1_555 1_555
C16 C9 1_555 1_555
H12 C16 1_555 1_555
N10 N8 1_555 1_555
O1C Pb1 1_555 1_555
O2C Pb1 1_555 1_555
O3C Pb1 1_555 1_555
O4C Pb1 1_555 1_555
Pb1C O1 1_555 1_555
Pb1C_2 O3 1_555 1_555
O2 Pb1C 1_555 1_555
O4 Pb1C_2 1_555 1_555
C3 N7 1_555 1_555
N1 C5 1_555 1_555
N5 N9 1_555 1_555
C10 C15 1_555 1_555
C12 C16 1_555 1_555
C13 N10 1_555 1_555

#END
