
#######################################################################
#
#                 Cambridge Crystallographic Data Centre
#                                CCDC 
#
#######################################################################
#
# If this CIF has been generated from an entry in the Cambridge 
# Structural Database, then it will include bibliographic, chemical, 
# crystal, experimental, refinement or atomic coordinate data resulting 
# from the CCDC's data processing and validation procedures.
#
#######################################################################

data_DOPPAA
_symmetry_cell_setting           monoclinic
_symmetry_space_group_name_H-M   'P 21/c'
_symmetry_Int_Tables_number      14
_space_group_name_Hall           '-P 2ybc'
loop_
_symmetry_equiv_pos_site_id
_symmetry_equiv_pos_as_xyz
1 x,y,z
2 -x,1/2+y,1/2-z
3 -x,-y,-z
4 x,1/2-y,1/2+z
_cell_length_a                   8.182(3)
_cell_length_b                   15.023(6)
_cell_length_c                   21.080(9)
_cell_angle_alpha                90
_cell_angle_beta                 91.346(6)
_cell_angle_gamma                90
_cell_volume                     2590.4
loop_
_atom_site_label
_atom_site_type_symbol
_atom_site_fract_x
_atom_site_fract_y
_atom_site_fract_z
Mn1 Mn 0.30591(9) 0.02104(5) 0.47194(4)
As1 As -0.05981(6) -0.04246(3) 0.39193(2)
As2 As 0.47264(6) -0.19098(3) 0.44806(2)
C1 C -0.0474(7) 0.0295(4) 0.3174(3)
C2 C 0.0373(8) -0.0021(4) 0.2651(3)
H1 H 0.0910 -0.0565 0.2678
C3 C 0.0423(9) 0.0457(4) 0.2102(3)
H2 H 0.0978 0.0231 0.1757
C4 C -0.0346(10) 0.1274(4) 0.2055(3)
C5 C -0.1123(8) 0.1604(4) 0.2579(3)
C6 C -0.1231(7) 0.1108(4) 0.3137(3)
H3 H -0.1809 0.1326 0.3479
C7 C 0.5222(6) -0.2892(3) 0.5031(3)
C8 C 0.6281(7) -0.3533(3) 0.4822(3)
H4 H 0.6783 -0.3466 0.4433
C9 C 0.6599(7) -0.4276(3) 0.5191(3)
C10 C 0.5880(8) -0.4392(4) 0.5778(3)
C11 C 0.4793(7) -0.3743(4) 0.5976(3)
H5 H 0.4274 -0.3814 0.6361
C12 C 0.4473(7) -0.3004(4) 0.5617(3)
H6 H 0.3755 -0.2573 0.5762
C13 C 0.4776(7) 0.0081(4) 0.3324(3)
H7 H 0.5172 -0.0459 0.3480
C14 C 0.5139(8) 0.0326(5) 0.2700(3)
H8 H 0.5727 -0.0058 0.2446
C15 C 0.4630(8) 0.1122(5) 0.2470(3)
H9 H 0.4885 0.1296 0.2061
C16 C 0.3707(7) 0.1686(4) 0.2860(3)
C17 C 0.3099(8) 0.2532(4) 0.2647(3)
H10 H 0.3397 0.2749 0.2253
C18 C 0.2097(8) 0.3016(4) 0.3012(3)
H11 H 0.1721 0.3566 0.2868
C19 C 0.1609(7) 0.2698(4) 0.3616(3)
C20 C 0.0486(7) 0.3152(4) 0.3996(3)
H12 H 0.0055 0.3695 0.3863
C21 C 0.0034(7) 0.2797(4) 0.4554(3)
H13 H -0.0698 0.3096 0.4809
C22 C 0.0679(7) 0.1976(4) 0.4744(3)
H14 H 0.0328 0.1729 0.5122
C23 C 0.2227(6) 0.1883(3) 0.3850(2)
C24 C 0.3324(6) 0.1377(3) 0.3464(3)
N1 N -0.1927(7) 0.2460(4) 0.2576(3)
N2 N 0.7722(7) -0.4939(3) 0.4949(3)
N3 N 0.3895(5) 0.0586(3) 0.3701(2)
N4 N 0.1776(5) 0.1531(3) 0.4409(2)
O1 O -0.0222(11) 0.1693(4) 0.1491(3)
H15 H -0.0692 0.2174 0.1506
O2 O -0.2539(7) 0.2734(3) 0.3057(2)
O3 O -0.1918(8) 0.2900(3) 0.2085(2)
O4 O 0.6167(6) -0.5094(3) 0.6166(2)
H16 H 0.6825 -0.5430 0.6003
O5 O 0.8074(7) -0.5583(3) 0.5291(3)
O6 O 0.8231(6) -0.4852(3) 0.4414(3)
O7 O -0.1913(4) 0.0001(2) 0.44119(17)
O8 O -0.1198(5) -0.1453(2) 0.36492(18)
H17 H -0.2150 -0.1543 0.3744
O9 O 0.1281(4) -0.0600(2) 0.42077(17)
O10 O 0.2712(4) -0.2128(2) 0.4291(2)
H18 H 0.2208 -0.1658 0.4258
O11 O 0.5879(4) -0.1986(2) 0.38531(17)
O12 O 0.4796(4) -0.0914(2) 0.48471(16)
Mn1B Mn -0.30591(9) -0.02104(5) 0.52806(4)
Mn1B_2 Mn 0.69409(9) -0.02104(5) 0.52806(4)
O7B O 0.1913(4) -0.0001(2) 0.55881(17)
O12B O 0.5204(4) 0.0914(2) 0.51529(16)
loop_
_geom_bond_atom_site_label_1
_geom_bond_atom_site_label_2
_geom_bond_site_symmetry_1
_geom_bond_site_symmetry_2
Mn1 N3 1_555 1_555
As1 C1 1_555 1_555
As2 C7 1_555 1_555
C1 C2 1_555 1_555
C2 H1 1_555 1_555
C3 C2 1_555 1_555
H2 C3 1_555 1_555
C4 C3 1_555 1_555
C5 C4 1_555 1_555
C6 C1 1_555 1_555
H3 C6 1_555 1_555
C7 C8 1_555 1_555
C8 H4 1_555 1_555
C9 C8 1_555 1_555
C10 C9 1_555 1_555
C11 C10 1_555 1_555
H5 C11 1_555 1_555
C12 C7 1_555 1_555
H6 C12 1_555 1_555
C13 H7 1_555 1_555
C14 C13 1_555 1_555
H8 C14 1_555 1_555
C15 C14 1_555 1_555
H9 C15 1_555 1_555
C16 C15 1_555 1_555
C17 C16 1_555 1_555
H10 C17 1_555 1_555
C18 C17 1_555 1_555
H11 C18 1_555 1_555
C19 C18 1_555 1_555
C20 C19 1_555 1_555
H12 C20 1_555 1_555
C21 C20 1_555 1_555
H13 C21 1_555 1_555
C22 C21 1_555 1_555
H14 C22 1_555 1_555
C23 C19 1_555 1_555
C24 C16 1_555 1_555
N1 C5 1_555 1_555
N2 C9 1_555 1_555
N3 C13 1_555 1_555
N4 Mn1 1_555 1_555
O1 C4 1_555 1_555
H15 O1 1_555 1_555
O2 N1 1_555 1_555
O3 N1 1_555 1_555
O4 C10 1_555 1_555
H16 O4 1_555 1_555
O5 N2 1_555 1_555
O6 N2 1_555 1_555
O7 As1 1_555 1_555
O8 As1 1_555 1_555
H17 O8 1_555 1_555
O9 Mn1 1_555 1_555
O10 As2 1_555 1_555
H18 O10 1_555 1_555
O11 As2 1_555 1_555
O12 Mn1 1_555 1_555
Mn1B O7 1_555 1_555
Mn1B_2 O12 1_555 1_555
O7B Mn1 1_555 1_555
O12B Mn1 1_555 1_555
As1 O9 1_555 1_555
As2 O12 1_555 1_555
C5 C6 1_555 1_555
C11 C12 1_555 1_555
C22 N4 1_555 1_555
C23 C24 1_555 1_555
C23 N4 1_555 1_555
C24 N3 1_555 1_555
Mn1B_2 O12B 1_555 1_555

#END
