
#######################################################################
#
#                 Cambridge Crystallographic Data Centre
#                                CCDC 
#
#######################################################################
#
# If this CIF has been generated from an entry in the Cambridge 
# Structural Database, then it will include bibliographic, chemical, 
# crystal, experimental, refinement or atomic coordinate data resulting 
# from the CCDC's data processing and validation procedures.
#
#######################################################################

data_DOPPEE
_symmetry_cell_setting           monoclinic
_symmetry_space_group_name_H-M   'P 21/c'
_symmetry_Int_Tables_number      14
_space_group_name_Hall           '-P 2ybc'
loop_
_symmetry_equiv_pos_site_id
_symmetry_equiv_pos_as_xyz
1 x,y,z
2 -x,1/2+y,1/2-z
3 -x,-y,-z
4 x,1/2-y,1/2+z
_cell_length_a                   8.315(6)
_cell_length_b                   15.000(10)
_cell_length_c                   21.263(13)
_cell_angle_alpha                90
_cell_angle_beta                 90.413(16)
_cell_angle_gamma                90
_cell_volume                     2651.96
loop_
_atom_site_label
_atom_site_type_symbol
_atom_site_fract_x
_atom_site_fract_y
_atom_site_fract_z
Cd1 Cd 0.30028(6) 0.02338(3) 0.47127(2)
As1 As -0.05885(8) -0.04525(5) 0.38934(3)
As2 As 0.47102(8) -0.19284(5) 0.44645(3)
C1 C -0.0381(8) 0.0251(5) 0.3150(3)
C2 C 0.0546(10) -0.0044(6) 0.2639(3)
H1 H 0.1084 -0.0586 0.2667
C3 C 0.0670(12) 0.0453(6) 0.2099(4)
H2 H 0.1251 0.0235 0.1760
C4 C -0.0064(12) 0.1276(6) 0.2060(4)
C5 C -0.0955(10) 0.1579(5) 0.2566(3)
C6 C -0.1113(9) 0.1059(5) 0.3116(3)
H3 H -0.1713 0.1269 0.3452
C7 C 0.5201(8) -0.2900(5) 0.5021(3)
C8 C 0.6259(8) -0.3539(5) 0.4818(3)
H4 H 0.6758 -0.3480 0.4430
C9 C 0.6583(8) -0.4282(5) 0.5200(3)
C10 C 0.5827(9) -0.4371(5) 0.5788(4)
C11 C 0.4759(10) -0.3722(6) 0.5980(3)
H5 H 0.4249 -0.3777 0.6365
C12 C 0.4442(8) -0.2994(5) 0.5603(3)
H6 H 0.3719 -0.2562 0.5736
C13 C 0.4812(9) 0.0156(6) 0.3312(3)
H7 H 0.5222 -0.0378 0.3468
C14 C 0.5206(10) 0.0415(6) 0.2700(3)
H8 H 0.5818 0.0044 0.2446
C15 C 0.4671(9) 0.1231(6) 0.2477(3)
H9 H 0.4949 0.1423 0.2077
C16 C 0.3713(9) 0.1764(5) 0.2859(3)
C17 C 0.3125(10) 0.2606(6) 0.2658(4)
H10 H 0.3436 0.2834 0.2271
C18 C 0.2116(10) 0.3079(6) 0.3025(4)
H11 H 0.1760 0.3634 0.2887
C19 C 0.1581(8) 0.2753(5) 0.3618(3)
C20 C 0.0474(9) 0.3203(5) 0.3993(4)
H12 H 0.0073 0.3752 0.3864
C21 C -0.0024(10) 0.2838(5) 0.4549(4)
H13 H -0.0785 0.3124 0.4797
C22 C 0.0640(9) 0.2031(5) 0.4731(3)
H14 H 0.0313 0.1791 0.5113
C23 C 0.2178(8) 0.1939(4) 0.3841(3)
C24 C 0.3298(7) 0.1439(5) 0.3460(3)
N1 N -0.1765(9) 0.2433(5) 0.2558(3)
N2 N 0.7692(9) -0.4933(5) 0.4977(3)
N3 N 0.3870(7) 0.0647(4) 0.3681(2)
N4 N 0.1709(7) 0.1576(4) 0.4402(2)
O1 O 0.0165(13) 0.1705(5) 0.1507(3)
H15 H -0.0299 0.2188 0.1515
O2 O -0.2452(9) 0.2691(5) 0.3037(3)
O3 O -0.1711(11) 0.2867(5) 0.2073(3)
O4 O 0.6081(8) -0.5063(4) 0.6184(3)
H16 H 0.6735 -0.5407 0.6028
O5 O 0.8043(9) -0.5567(5) 0.5323(3)
O6 O 0.8245(8) -0.4870(4) 0.4447(3)
O7 O -0.1876(6) 0.0032(3) 0.4365(2)
O8 O -0.1250(6) -0.1475(3) 0.3640(2)
H17 H -0.2192 -0.1542 0.3741
O9 O 0.1232(5) -0.0670(3) 0.4184(2)
O10 O 0.2731(5) -0.2163(3) 0.4285(2)
H18 H 0.2225 -0.1696 0.4253
O11 O 0.5863(6) -0.1986(3) 0.3838(2)
O12 O 0.4763(5) -0.0948(3) 0.4838(2)
Cd1B Cd -0.30028(6) -0.02338(3) 0.52873(2)
Cd1B_2 Cd 0.69972(6) -0.02338(3) 0.52873(2)
O7B O 0.1876(6) -0.0032(3) 0.5635(2)
O12B O 0.5237(5) 0.0948(3) 0.5162(2)
loop_
_geom_bond_atom_site_label_1
_geom_bond_atom_site_label_2
_geom_bond_site_symmetry_1
_geom_bond_site_symmetry_2
Cd1 N3 1_555 1_555
As1 C1 1_555 1_555
As2 C7 1_555 1_555
C1 C2 1_555 1_555
C2 H1 1_555 1_555
C3 C2 1_555 1_555
H2 C3 1_555 1_555
C4 C3 1_555 1_555
C5 C4 1_555 1_555
C6 C1 1_555 1_555
H3 C6 1_555 1_555
C7 C8 1_555 1_555
C8 H4 1_555 1_555
C9 C8 1_555 1_555
C10 C9 1_555 1_555
C11 C10 1_555 1_555
H5 C11 1_555 1_555
C12 C7 1_555 1_555
H6 C12 1_555 1_555
C13 H7 1_555 1_555
C14 C13 1_555 1_555
H8 C14 1_555 1_555
C15 C14 1_555 1_555
H9 C15 1_555 1_555
C16 C15 1_555 1_555
C17 C16 1_555 1_555
H10 C17 1_555 1_555
C18 C17 1_555 1_555
H11 C18 1_555 1_555
C19 C18 1_555 1_555
C20 C19 1_555 1_555
H12 C20 1_555 1_555
C21 C20 1_555 1_555
H13 C21 1_555 1_555
C22 C21 1_555 1_555
H14 C22 1_555 1_555
C23 C19 1_555 1_555
C24 C16 1_555 1_555
N1 C5 1_555 1_555
N2 C9 1_555 1_555
N3 C13 1_555 1_555
N4 Cd1 1_555 1_555
O1 C4 1_555 1_555
H15 O1 1_555 1_555
O2 N1 1_555 1_555
O3 N1 1_555 1_555
O4 C10 1_555 1_555
H16 O4 1_555 1_555
O5 N2 1_555 1_555
O6 N2 1_555 1_555
O7 As1 1_555 1_555
O8 As1 1_555 1_555
H17 O8 1_555 1_555
O9 Cd1 1_555 1_555
O10 As2 1_555 1_555
H18 O10 1_555 1_555
O11 As2 1_555 1_555
O12 Cd1 1_555 1_555
Cd1B O7 1_555 1_555
Cd1B_2 O12 1_555 1_555
O7B Cd1 1_555 1_555
O12B Cd1 1_555 1_555
As1 O9 1_555 1_555
As2 O12 1_555 1_555
C5 C6 1_555 1_555
C11 C12 1_555 1_555
C22 N4 1_555 1_555
C23 C24 1_555 1_555
C23 N4 1_555 1_555
C24 N3 1_555 1_555
Cd1B_2 O12B 1_555 1_555

#END
