
#######################################################################
#
#                 Cambridge Crystallographic Data Centre
#                                CCDC 
#
#######################################################################
#
# If this CIF has been generated from an entry in the Cambridge 
# Structural Database, then it will include bibliographic, chemical, 
# crystal, experimental, refinement or atomic coordinate data resulting 
# from the CCDC's data processing and validation procedures.
#
#######################################################################

data_DOPSOS01
_symmetry_cell_setting           monoclinic
_symmetry_space_group_name_H-M   'C 2/c'
_symmetry_Int_Tables_number      15
_space_group_name_Hall           '-C 2yn'
loop_
_symmetry_equiv_pos_site_id
_symmetry_equiv_pos_as_xyz
1 x,y,z
2 -x,y,1/2-z
3 1/2+x,1/2+y,z
4 1/2-x,1/2+y,1/2-z
5 -x,-y,-z
6 x,-y,1/2+z
7 1/2-x,1/2-y,-z
8 1/2+x,1/2-y,1/2+z
_cell_length_a                   33.174(7)
_cell_length_b                   5.5878(11)
_cell_length_c                   20.516(4)
_cell_angle_alpha                90
_cell_angle_beta                 127.93(3)
_cell_angle_gamma                90
_cell_volume                     2999.7
loop_
_atom_site_label
_atom_site_type_symbol
_atom_site_fract_x
_atom_site_fract_y
_atom_site_fract_z
Zn1 Zn 0.11928(2) 0.35377(11) 0.09689(4)
O1 O 0.05371(15) 0.2939(8) 0.0713(3)
N1 N 0.23171(18) 0.5492(9) 0.3410(3)
N2 N 0.17881(17) 0.3911(9) 0.2172(3)
C1 C 0.2195(2) 0.2394(11) 0.2658(3)
H1 H 0.2238 0.0937 0.2490
C2 C 0.0422(2) 0.4306(10) 0.1071(3)
C3 C 0.1872(2) 0.5760(10) 0.2641(3)
H2 H 0.1655 0.7069 0.2466
C4 C 0.2524(2) 0.3358(12) 0.3425(4)
H3 H 0.2831 0.2697 0.3872
C5 C 0.2391(3) 0.6593(12) 0.4651(3)
H4 H 0.2519 0.5012 0.4885
H5 H 0.2022 0.6559 0.4325
C6 C 0.2531(3) 0.7178(13) 0.4096(4)
H6 H 0.2410 0.8776 0.3873
H7 H 0.2900 0.7181 0.4422
O2 O 0.06771(17) 0.6062(8) 0.1491(3)
P1 P -0.10226(5) 0.1523(2) -0.00265(8)
C7 C -0.0368(2) 0.1605(10) 0.0360(3)
H8 H -0.0204 0.0113 0.0644
H9 H -0.0360 0.1729 -0.0103
C8 C -0.0065(2) 0.3688(10) 0.0953(3)
H10 H -0.0283 0.5092 0.0747
H11 H 0.0023 0.3293 0.1487
C9 C -0.1018(2) 0.1052(10) 0.0846(3)
C10 C -0.1233(3) 0.2713(14) 0.1060(5)
H12 H -0.1386 0.4086 0.0742
C11 C -0.0999(3) 0.0323(11) 0.2224(4)
H13 H -0.0992 0.0094 0.2680
C12 C -0.0806(4) -0.0935(17) 0.1325(6)
H14 H -0.0666 -0.2078 0.1186
C13 C -0.1222(4) 0.2355(14) 0.1725(5)
H15 H -0.1367 0.3498 0.1853
O3 O -0.12693(14) 0.3936(7) -0.0393(2)
C14 C -0.0786(4) -0.1347(16) 0.2006(6)
H16 H -0.0633 -0.2728 0.2319
O4 O -0.13094(15) -0.0533(7) -0.0615(2)
N1F N 0.26829(18) 0.9508(9) 0.6590(3)
N2F N 0.32119(17) 1.1089(9) 0.7828(3)
C1F C 0.2805(2) 1.2606(11) 0.7342(3)
H1F H 0.2762 1.4063 0.7510
C3F C 0.3128(2) 0.9240(10) 0.7359(3)
H2F H 0.3345 0.7931 0.7534
C4F C 0.2476(2) 1.1642(12) 0.6575(4)
H3F H 0.2169 1.2303 0.6128
C5F C 0.2609(3) 0.8407(12) 0.5349(3)
H4F H 0.2481 0.9988 0.5115
H5F H 0.2978 0.8441 0.5675
C6F C 0.2469(3) 0.7822(13) 0.5904(4)
H6F H 0.2590 0.6224 0.6127
H7F H 0.2100 0.7819 0.5578
Zn1D Zn -0.11928(2) -0.35377(11) -0.09689(4)
O1D O -0.05371(15) -0.2939(8) -0.0713(3)
C2D C -0.0422(2) -0.4306(10) -0.1071(3)
O2D O -0.06771(17) -0.6062(8) -0.1491(3)
P1D P 0.10226(5) -0.1523(2) 0.00265(8)
C7D C 0.0368(2) -0.1605(10) -0.0360(3)
H8D H 0.0204 -0.0113 -0.0644
H9D H 0.0360 -0.1729 0.0103
C8D C 0.0065(2) -0.3688(10) -0.0953(3)
H10D H 0.0283 -0.5092 -0.0747
H11D H -0.0023 -0.3293 -0.1487
C9D C 0.1018(2) -0.1052(10) -0.0846(3)
C10D C 0.1233(3) -0.2713(14) -0.1060(5)
H12D H 0.1386 -0.4086 -0.0742
C11D C 0.0999(3) -0.0323(11) -0.2224(4)
H13D H 0.0992 -0.0094 -0.2680
C12D C 0.0806(4) 0.0935(17) -0.1325(6)
H14D H 0.0666 0.2078 -0.1186
C13D C 0.1222(4) -0.2355(14) -0.1725(5)
H15D H 0.1367 -0.3498 -0.1853
O3D O 0.12693(14) -0.3936(7) 0.0393(2)
C14D C 0.0786(4) 0.1347(16) -0.2006(6)
H16D H 0.0633 0.2728 -0.2319
O4D O 0.13094(15) 0.0533(7) 0.0615(2)
Zn1_2 Zn 0.11928(2) -0.64623(11) 0.09689(4)
Zn1D_2 Zn -0.11928(2) 0.64623(11) -0.09689(4)
Zn1F Zn 0.38072(2) 1.14623(11) 0.90311(4)
N2D N -0.17881(17) -0.3911(9) -0.2172(3)
O3_2 O -0.12693(14) -0.6064(7) -0.0393(2)
O3D_2 O 0.12693(14) 0.6064(7) 0.0393(2)
loop_
_geom_bond_atom_site_label_1
_geom_bond_atom_site_label_2
_geom_bond_site_symmetry_1
_geom_bond_site_symmetry_2
Zn1 O1 1_555 1_555
O1 C2 1_555 1_555
N1 C3 1_555 1_555
N2 Zn1 1_555 1_555
C1 N2 1_555 1_555
H1 C1 1_555 1_555
C2 O2 1_555 1_555
C3 N2 1_555 1_555
H2 C3 1_555 1_555
C4 N1 1_555 1_555
H3 C4 1_555 1_555
C5 H4 1_555 1_555
H5 C5 1_555 1_555
C6 N1 1_555 1_555
H6 C6 1_555 1_555
H7 C6 1_555 1_555
P1 C7 1_555 1_555
C7 H8 1_555 1_555
H9 C7 1_555 1_555
C8 C2 1_555 1_555
H10 C8 1_555 1_555
H11 C8 1_555 1_555
C9 P1 1_555 1_555
C10 C9 1_555 1_555
H12 C10 1_555 1_555
C11 H13 1_555 1_555
C12 C9 1_555 1_555
H14 C12 1_555 1_555
C13 C10 1_555 1_555
H15 C13 1_555 1_555
O3 P1 1_555 1_555
C14 C11 1_555 1_555
H16 C14 1_555 1_555
O4 P1 1_555 1_555
N1F C3F 1_555 1_555
N2F C1F 1_555 1_555
C1F H1F 1_555 1_555
C3F N2F 1_555 1_555
H2F C3F 1_555 1_555
C4F N1F 1_555 1_555
H3F C4F 1_555 1_555
C5F C5 1_555 1_555
H4F C5F 1_555 1_555
H5F C5F 1_555 1_555
C6F N1F 1_555 1_555
H6F C6F 1_555 1_555
H7F C6F 1_555 1_555
Zn1D O4 1_555 1_555
O1D Zn1D 1_555 1_555
C2D O1D 1_555 1_555
O2D C2D 1_555 1_555
P1D C7D 1_555 1_555
C7D H8D 1_555 1_555
H9D C7D 1_555 1_555
C8D C2D 1_555 1_555
H10D C8D 1_555 1_555
H11D C8D 1_555 1_555
C9D P1D 1_555 1_555
C10D C9D 1_555 1_555
H12D C10D 1_555 1_555
C11D H13D 1_555 1_555
C12D C9D 1_555 1_555
H14D C12D 1_555 1_555
C13D C10D 1_555 1_555
H15D C13D 1_555 1_555
O3D P1D 1_555 1_555
C14D C11D 1_555 1_555
H16D C14D 1_555 1_555
O4D Zn1 1_555 1_555
Zn1_2 O3D 1_555 1_555
Zn1D_2 O3 1_555 1_555
Zn1F N2F 1_555 1_555
N2D Zn1D 1_555 1_555
O3_2 Zn1D 1_555 1_555
O3D_2 Zn1 1_555 1_555
C1 C4 1_555 1_555
C5 C6 1_555 1_555
C7 C8 1_555 1_555
C11 C13 1_555 1_555
C12 C14 1_555 1_555
C1F C4F 1_555 1_555
C5F C6F 1_555 1_555
P1D O4D 1_555 1_555
C7D C8D 1_555 1_555
C11D C13D 1_555 1_555
C12D C14D 1_555 1_555

#END
