
#######################################################################
#
#                 Cambridge Crystallographic Data Centre
#                                CCDC 
#
#######################################################################
#
# If this CIF has been generated from an entry in the Cambridge 
# Structural Database, then it will include bibliographic, chemical, 
# crystal, experimental, refinement or atomic coordinate data resulting 
# from the CCDC's data processing and validation procedures.
#
#######################################################################

data_DOPYIR01
_symmetry_cell_setting           monoclinic
_symmetry_space_group_name_H-M   'C 2/c'
_symmetry_Int_Tables_number      15
_space_group_name_Hall           '-C 2yn'
loop_
_symmetry_equiv_pos_site_id
_symmetry_equiv_pos_as_xyz
1 x,y,z
2 -x,y,1/2-z
3 1/2+x,1/2+y,z
4 1/2-x,1/2+y,1/2-z
5 -x,-y,-z
6 x,-y,1/2+z
7 1/2-x,1/2-y,-z
8 1/2+x,1/2-y,1/2+z
_cell_length_a                   16.1453(18)
_cell_length_b                   6.4913(6)
_cell_length_c                   9.8755(10)
_cell_angle_alpha                90
_cell_angle_beta                 115.096(11)
_cell_angle_gamma                90
_cell_volume                     937.287
loop_
_atom_site_label
_atom_site_type_symbol
_atom_site_fract_x
_atom_site_fract_y
_atom_site_fract_z
Zn1 Zn 0.5000 0.38220(7) 0.2500
Br1 Br 0.62928(2) 0.58416(5) 0.39118(3)
N1 N 0.49273(16) 0.1585(4) 0.4011(2)
C1 C 0.41924(19) 0.0418(4) 0.3796(3)
C2 C 0.5718(2) 0.1167(4) 0.5198(3)
H1 H 0.6239 0.1987 0.5357
C3 C 0.3296(2) 0.0835(5) 0.2517(3)
H2 H 0.3266 0.2285 0.2225
H3 H 0.2801 0.0536 0.2814
H4 H 0.3230 -0.0043 0.1670
Zn1D Zn 0.5000 -0.38220(7) 0.7500
Br1A Br 0.37072(2) 0.58416(5) 0.10882(3)
N1D N 0.50727(16) -0.1585(4) 0.5989(2)
N1A N 0.50727(16) 0.1585(4) 0.0989(2)
C1D C 0.58076(19) -0.0418(4) 0.6204(3)
C2D C 0.4282(2) -0.1167(4) 0.4802(3)
H1D H 0.3761 -0.1987 0.4643
C3D C 0.6704(2) -0.0835(5) 0.7483(3)
H2D H 0.6734 -0.2285 0.7775
H3D H 0.7199 -0.0536 0.7186
H4D H 0.6770 0.0043 0.8330
loop_
_geom_bond_atom_site_label_1
_geom_bond_atom_site_label_2
_geom_bond_site_symmetry_1
_geom_bond_site_symmetry_2
Zn1 Br1 1_555 1_555
N1 Zn1 1_555 1_555
C1 N1 1_555 1_555
C2 N1 1_555 1_555
H1 C2 1_555 1_555
C3 C1 1_555 1_555
H2 C3 1_555 1_555
H3 C3 1_555 1_555
H4 C3 1_555 1_555
Zn1D N1D 1_555 1_555
Br1A Zn1 1_555 1_555
N1D C1D 1_555 1_555
N1A Zn1 1_555 1_555
C1D C2 1_555 1_555
C2D C1 1_555 1_555
H1D C2D 1_555 1_555
C3D C1D 1_555 1_555
H2D C3D 1_555 1_555
H3D C3D 1_555 1_555
H4D C3D 1_555 1_555
N1D C2D 1_555 1_555

#END
