
#######################################################################
#
#                 Cambridge Crystallographic Data Centre
#                                CCDC 
#
#######################################################################
#
# If this CIF has been generated from an entry in the Cambridge 
# Structural Database, then it will include bibliographic, chemical, 
# crystal, experimental, refinement or atomic coordinate data resulting 
# from the CCDC's data processing and validation procedures.
#
#######################################################################

data_DOQBAN
_symmetry_cell_setting           triclinic
_symmetry_space_group_name_H-M   'P -1'
_symmetry_Int_Tables_number      2
_space_group_name_Hall           '-P 1'
loop_
_symmetry_equiv_pos_site_id
_symmetry_equiv_pos_as_xyz
1 x,y,z
2 -x,-y,-z
_cell_length_a                   8.4678(13)
_cell_length_b                   8.8856(10)
_cell_length_c                   9.6090(14)
_cell_angle_alpha                80.691(11)
_cell_angle_beta                 69.057(14)
_cell_angle_gamma                74.066(12)
_cell_volume                     647.657
loop_
_atom_site_label
_atom_site_type_symbol
_atom_site_fract_x
_atom_site_fract_y
_atom_site_fract_z
Cu1 Cu 0.86100(4) 0.15845(3) -0.23934(4)
S1 S 1.04730(9) 0.29964(8) -0.53123(8)
S2 S 0.65172(10) 0.07294(9) 0.08136(9)
O1 O 0.6647(2) 0.60747(19) -0.13231(19)
N1 N 0.6319(3) 0.2764(3) -0.2817(2)
N2 N 0.8212(3) 0.3679(2) -0.1653(2)
N3 N 0.9012(3) 0.4401(2) -0.1009(2)
N4 N 0.8235(3) 0.6986(3) -0.0274(3)
H1 H 0.9097 0.6849 0.0044
H2 H 0.7503 0.7881 -0.0220
N5 N 1.1297(3) 0.0312(3) -0.6805(3)
N6 N 0.9299(3) -0.0697(3) 0.1857(2)
C1 C 0.5414(4) 0.2212(4) -0.3408(3)
H3 H 0.5790 0.1175 -0.3660
C2 C 0.3897(4) 0.3158(5) -0.3662(4)
H4 H 0.3286 0.2746 -0.4081
C3 C 0.3335(4) 0.4651(5) -0.3300(4)
H5 H 0.2331 0.5280 -0.3460
C4 C 0.4264(3) 0.5246(4) -0.2686(3)
H6 H 0.3899 0.6282 -0.2432
C5 C 0.5739(3) 0.4279(3) -0.2457(3)
C6 C 0.6865(3) 0.4676(3) -0.1826(3)
C7 C 0.8037(4) 0.5831(3) -0.0840(3)
C8 C 1.0951(3) 0.1415(3) -0.6184(3)
C9 C 0.8155(4) -0.0088(3) 0.1431(3)
Cu1A Cu 1.13900(4) -0.15845(3) -0.76066(4)
Cu1A_2 Cu 1.13900(4) -0.15845(3) 0.23934(4)
N5A N 0.8703(3) -0.0312(3) -0.3195(3)
N6A N 1.0701(3) 0.0697(3) -0.1857(2)
loop_
_geom_bond_atom_site_label_1
_geom_bond_atom_site_label_2
_geom_bond_site_symmetry_1
_geom_bond_site_symmetry_2
Cu1 S1 1_555 1_555
S1 C8 1_555 1_555
S2 Cu1 1_555 1_555
O1 C6 1_555 1_555
N1 Cu1 1_555 1_555
N2 Cu1 1_555 1_555
N3 N2 1_555 1_555
N4 H1 1_555 1_555
H2 N4 1_555 1_555
N5 C8 1_555 1_555
N6 C9 1_555 1_555
C1 N1 1_555 1_555
H3 C1 1_555 1_555
C2 C1 1_555 1_555
H4 C2 1_555 1_555
C3 C2 1_555 1_555
H5 C3 1_555 1_555
C4 C3 1_555 1_555
H6 C4 1_555 1_555
C5 N1 1_555 1_555
C6 N2 1_555 1_555
C7 O1 1_555 1_555
C9 S2 1_555 1_555
Cu1A N5 1_555 1_555
Cu1A_2 N6 1_555 1_555
N5A Cu1 1_555 1_555
N6A Cu1 1_555 1_555
N3 C7 1_555 1_555
N4 C7 1_555 1_555
C4 C5 1_555 1_555
C5 C6 1_555 1_555

#END
