
#######################################################################
#
#                 Cambridge Crystallographic Data Centre
#                                CCDC 
#
#######################################################################
#
# If this CIF has been generated from an entry in the Cambridge 
# Structural Database, then it will include bibliographic, chemical, 
# crystal, experimental, refinement or atomic coordinate data resulting 
# from the CCDC's data processing and validation procedures.
#
#######################################################################

data_DOQHEY
_symmetry_cell_setting           monoclinic
_symmetry_space_group_name_H-M   'P 21/n'
_symmetry_Int_Tables_number      14
_space_group_name_Hall           '-P 2yn'
loop_
_symmetry_equiv_pos_site_id
_symmetry_equiv_pos_as_xyz
1 x,y,z
2 1/2-x,1/2+y,1/2-z
3 -x,-y,-z
4 1/2+x,1/2-y,1/2+z
_cell_length_a                   13.528(3)
_cell_length_b                   20.050(4)
_cell_length_c                   18.260(4)
_cell_angle_alpha                90
_cell_angle_beta                 107.10(3)
_cell_angle_gamma                90
_cell_volume                     4733.83
loop_
_atom_site_label
_atom_site_type_symbol
_atom_site_fract_x
_atom_site_fract_y
_atom_site_fract_z
Ag1 Ag 0.00249(2) 0.286659(16) 0.201659(17)
N1 N -0.0490(3) 0.28263(18) 0.30254(18)
N2 N 0.0644(2) 0.29754(18) 0.10544(18)
C1 C -0.1081(3) 0.2330(2) 0.3166(2)
C2 C -0.0147(3) 0.3298(2) 0.3561(2)
C3 C 0.0922(3) 0.2453(2) 0.0691(2)
C4 C 0.0724(3) 0.3599(2) 0.0802(2)
N3 N -0.1378(3) 0.18230(18) 0.2617(2)
C5 C -0.1361(3) 0.2308(3) 0.3842(2)
C6 C -0.0386(4) 0.3301(3) 0.4247(3)
N4 N 0.0450(3) 0.3822(2) 0.3379(2)
N5 N 0.0760(3) 0.18071(18) 0.0936(2)
C7 C 0.1312(3) 0.2545(2) 0.0075(2)
C8 C 0.1069(3) 0.3717(2) 0.0174(2)
N6 N 0.0490(3) 0.41325(18) 0.1232(2)
C9 C -0.1798(3) 0.1942(2) 0.1838(2)
C10 C -0.1256(4) 0.1128(3) 0.2889(3)
H1 H -0.1793 0.1961 0.3926
C11 C -0.1001(4) 0.2796(3) 0.4384(3)
H2 H -0.0134 0.3643 0.4614
C12 C 0.0155(5) 0.4500(3) 0.3511(3)
C13 C 0.1468(3) 0.3687(2) 0.3389(2)
C14 C 0.1172(3) 0.1575(2) 0.1684(2)
C15 C 0.0287(4) 0.1322(3) 0.0332(3)
H3 H 0.1534 0.2175 -0.0161
C16 C 0.1370(3) 0.3185(2) -0.0187(2)
H4 H 0.1099 0.4158 -0.0007
C17 C -0.0533(3) 0.4267(2) 0.1220(2)
C18 C 0.1225(4) 0.4687(2) 0.1391(3)
N7 N -0.2168(2) 0.25589(18) 0.16209(19)
C19 C -0.1867(4) 0.1432(2) 0.1301(3)
H5 H -0.1526 0.0826 0.2454
H6 H -0.1639 0.1062 0.3263
H7 H -0.0522 0.1033 0.3131
H8 H -0.1175 0.2785 0.4852
H9 H 0.0608 0.4818 0.3357
H10 H 0.0224 0.4560 0.4057
H11 H -0.0564 0.4580 0.3209
N8 N 0.1723(3) 0.30423(19) 0.33896(19)
C20 C 0.2189(4) 0.4199(3) 0.3407(3)
N9 N 0.1833(3) 0.19797(19) 0.2195(2)
C21 C 0.0927(4) 0.0940(2) 0.1877(3)
H12 H 0.0213 0.0892 0.0566
H13 H 0.0728 0.1268 -0.0004
H14 H -0.0396 0.1483 0.0032
H15 H 0.1617 0.3259 -0.0617
N10 N -0.1216(3) 0.37726(17) 0.09783(19)
C22 C -0.0812(4) 0.4886(2) 0.1440(3)
H16 H 0.1003 0.5025 0.1696
H17 H 0.1253 0.4885 0.0906
H18 H 0.1913 0.4522 0.1676
Ag2 Ag -0.29903(3) 0.31737(2) 0.23191(2)
C23 C -0.2567(3) 0.2694(2) 0.0866(2)
C24 C -0.2331(4) 0.1576(3) 0.0543(3)
H19 H -0.1601 0.1000 0.1457
C25 C 0.2683(3) 0.2881(2) 0.3393(2)
H20 H 0.2002 0.4656 0.3413
C26 C 0.3170(4) 0.4015(3) 0.3416(3)
Ag3 Ag 0.28621(3) 0.27501(2) 0.18590(2)
C27 C 0.2232(3) 0.1758(2) 0.2921(2)
C28 C 0.1380(4) 0.0718(2) 0.2611(3)
H21 H 0.0459 0.0665 0.1511
C29 C -0.2198(3) 0.3877(2) 0.0976(2)
H22 H -0.0321 0.5237 0.1585
C30 C -0.1815(4) 0.4975(3) 0.1444(3)
O1 O -0.2761(3) 0.4087(2) 0.3124(2)
O2 O -0.4673(3) 0.3665(2) 0.1495(2)
N11 N -0.2902(3) 0.33500(18) 0.0697(2)
C31 C -0.2680(4) 0.2213(2) 0.0305(2)
H23 H -0.2416 0.1231 0.0173
C32 C 0.3439(3) 0.3350(3) 0.3404(3)
N12 N 0.2901(3) 0.2188(2) 0.3419(2)
H24 H 0.3673 0.4350 0.3431
O3 O 0.3599(7) 0.3241(4) 0.0946(8)
O4 O 0.4419(5) 0.1982(4) 0.2425(4)
O5 O 0.3348(5) 0.1663(4) 0.1184(4)
C33 C 0.2038(4) 0.1116(2) 0.3145(3)
H25 H 0.1234 0.0280 0.2750
C34 C -0.2534(4) 0.4467(3) 0.1210(3)
H26 H -0.2019 0.5388 0.1608
S1 S -0.34681(9) 0.43030(6) 0.35344(7)
C35 C -0.3747(4) 0.3472(3) 0.0001(3)
H27 H -0.2983 0.2314 -0.0222
H28 H 0.4114 0.3220 0.3403
C36 C 0.3717(4) 0.1926(3) 0.4062(3)
S2 S 0.42474(9) 0.37314(6) 0.12415(8)
S3 S 0.41307(16) 0.14547(11) 0.18617(12)
H29 H 0.2353 0.0961 0.3652
H30 H -0.3231 0.4523 0.1210
O6 O -0.4048(3) 0.4882(2) 0.3231(3)
O7 O -0.4034(3) 0.3777(2) 0.3758(2)
C37 C -0.2592(4) 0.4590(3) 0.4442(3)
H31 H -0.4173 0.3069 -0.0134
H32 H -0.3463 0.3586 -0.0419
H33 H -0.4173 0.3842 0.0088
H34 H 0.3765 0.1442 0.4008
H35 H 0.3561 0.2028 0.4541
H36 H 0.4378 0.2132 0.4070
O8 O 0.3961(12) 0.4034(7) 0.1952(7)
C38 C 0.4014(4) 0.4480(3) 0.0665(3)
O9 O 0.4011(6) 0.0818(3) 0.2147(5)
C39 C 0.5276(8) 0.1385(6) 0.1552(7)
F1 F -0.2108(4) 0.4094(2) 0.4858(2)
F2 F -0.1889(3) 0.5017(2) 0.4327(2)
F3 F -0.3101(3) 0.49235(18) 0.4847(2)
F4 F 0.4212(4) 0.4385(3) 0.0019(2)
F5 F 0.4602(4) 0.4968(2) 0.1005(3)
F6 F 0.3056(2) 0.46999(18) 0.0508(2)
F7 F 0.5159(5) 0.0926(3) 0.0996(4)
F8 F 0.6095(5) 0.1196(5) 0.2132(4)
F9 F 0.5530(8) 0.1965(6) 0.1272(9)
O2_2 O 0.5327(3) 0.3665(2) 0.1495(2)
Ag2_2 Ag 0.70097(3) 0.31737(2) 0.23191(2)
O10 O 0.6278(5) 0.2599(3) 0.3144(4)
O10_2 O -0.3722(5) 0.2599(3) 0.3144(4)
O11? O 0.3845(6) 0.3253(4) 0.0545(5)
O12? O 0.3575(7) 0.3741(4) 0.1660(5)
S4? S 0.53444(18) 0.18347(12) 0.25420(13)
O13? O 0.5029(8) 0.1320(4) 0.2944(6)
O14? O 0.6419(5) 0.1999(5) 0.2803(5)
O15? O 0.4703(6) 0.2404(4) 0.2414(6)
C40? C 0.5195(11) 0.1480(10) 0.1618(15)
F10? F 0.4226(8) 0.1324(7) 0.1267(6)
F11? F 0.5755(10) 0.0945(5) 0.1620(8)
F12? F 0.5460(13) 0.1906(9) 0.1157(12)
loop_
_geom_bond_atom_site_label_1
_geom_bond_atom_site_label_2
_geom_bond_site_symmetry_1
_geom_bond_site_symmetry_2
Ag1 N1 1_555 1_555
N1 C1 1_555 1_555
N2 Ag1 1_555 1_555
C1 N3 1_555 1_555
C2 N1 1_555 1_555
C3 N2 1_555 1_555
C4 N2 1_555 1_555
N3 C9 1_555 1_555
C5 C1 1_555 1_555
C6 C2 1_555 1_555
N4 C2 1_555 1_555
N5 C3 1_555 1_555
C7 C3 1_555 1_555
C8 C4 1_555 1_555
N6 C4 1_555 1_555
C9 N7 1_555 1_555
C10 N3 1_555 1_555
H1 C5 1_555 1_555
C11 C5 1_555 1_555
H2 C6 1_555 1_555
C12 N4 1_555 1_555
C13 N4 1_555 1_555
C14 N5 1_555 1_555
C15 N5 1_555 1_555
H3 C7 1_555 1_555
C16 C7 1_555 1_555
H4 C8 1_555 1_555
C17 N6 1_555 1_555
C18 N6 1_555 1_555
N7 Ag2 1_555 1_555
C19 C9 1_555 1_555
H5 C10 1_555 1_555
H6 C10 1_555 1_555
H7 C10 1_555 1_555
H8 C11 1_555 1_555
H9 C12 1_555 1_555
H10 C12 1_555 1_555
H11 C12 1_555 1_555
N8 C13 1_555 1_555
C20 C13 1_555 1_555
N9 C14 1_555 1_555
C21 C14 1_555 1_555
H12 C15 1_555 1_555
H13 C15 1_555 1_555
H14 C15 1_555 1_555
H15 C16 1_555 1_555
N10 C17 1_555 1_555
C22 C17 1_555 1_555
H16 C18 1_555 1_555
H17 C18 1_555 1_555
H18 C18 1_555 1_555
Ag2 O1 1_555 1_555
C23 N7 1_555 1_555
C24 C19 1_555 1_555
H19 C19 1_555 1_555
C25 N8 1_555 1_555
H20 C20 1_555 1_555
C26 C20 1_555 1_555
Ag3 N9 1_555 1_555
C27 N9 1_555 1_555
C28 C21 1_555 1_555
H21 C21 1_555 1_555
C29 N10 1_555 1_555
H22 C22 1_555 1_555
C30 C22 1_555 1_555
O1 S1 1_555 1_555
O2 Ag2 1_555 1_555
N11 C23 1_555 1_555
C31 C23 1_555 1_555
H23 C24 1_555 1_555
C32 C25 1_555 1_555
N12 C25 1_555 1_555
H24 C26 1_555 1_555
O3 Ag3 1_555 1_555
O4 S3 1_555 1_555
O5 Ag3 1_555 1_555
C33 C27 1_555 1_555
H25 C28 1_555 1_555
C34 C29 1_555 1_555
H26 C30 1_555 1_555
S1 O6 1_555 1_555
C35 N11 1_555 1_555
H27 C31 1_555 1_555
H28 C32 1_555 1_555
C36 N12 1_555 1_555
S2 O3 1_555 1_555
S3 O5 1_555 1_555
H29 C33 1_555 1_555
H30 C34 1_555 1_555
O7 S1 1_555 1_555
C37 S1 1_555 1_555
H31 C35 1_555 1_555
H32 C35 1_555 1_555
H33 C35 1_555 1_555
H34 C36 1_555 1_555
H35 C36 1_555 1_555
H36 C36 1_555 1_555
O8 S2 1_555 1_555
C38 S2 1_555 1_555
O9 S3 1_555 1_555
C39 S3 1_555 1_555
F1 C37 1_555 1_555
F2 C37 1_555 1_555
F3 C37 1_555 1_555
F4 C38 1_555 1_555
F5 C38 1_555 1_555
F6 C38 1_555 1_555
F7 C39 1_555 1_555
F8 C39 1_555 1_555
F9 C39 1_555 1_555
O2_2 S2 1_555 1_555
Ag2_2 O2_2 1_555 1_555
C6 C11 1_555 1_555
C8 C16 1_555 1_555
C24 C31 1_555 1_555
C26 C32 1_555 1_555
C27 N12 1_555 1_555
C28 C33 1_555 1_555
C29 N11 1_555 1_555
C30 C34 1_555 1_555

#END
