
#######################################################################
#
#                 Cambridge Crystallographic Data Centre
#                                CCDC 
#
#######################################################################
#
# If this CIF has been generated from an entry in the Cambridge 
# Structural Database, then it will include bibliographic, chemical, 
# crystal, experimental, refinement or atomic coordinate data resulting 
# from the CCDC's data processing and validation procedures.
#
#######################################################################

data_DOQHAT
_symmetry_cell_setting           monoclinic
_symmetry_space_group_name_H-M   'P 21/c'
_symmetry_Int_Tables_number      14
_space_group_name_Hall           '-P 2ybc'
loop_
_symmetry_equiv_pos_site_id
_symmetry_equiv_pos_as_xyz
1 x,y,z
2 -x,1/2+y,1/2-z
3 -x,-y,-z
4 x,1/2-y,1/2+z
_cell_length_a                   7.2260(7)
_cell_length_b                   13.2918(13)
_cell_length_c                   10.2745(10)
_cell_angle_alpha                90
_cell_angle_beta                 99.4930(10)
_cell_angle_gamma                90
_cell_volume                     973.316
loop_
_atom_site_label
_atom_site_type_symbol
_atom_site_fract_x
_atom_site_fract_y
_atom_site_fract_z
Ce1 Ce 0.83856(3) 0.094439(15) 0.71823(2)
P1 P 1.21372(14) -0.05061(7) 0.92755(10)
O1 O 1.3963(4) -0.0818(2) 0.8731(3)
H1 H 1.4076 -0.0465 0.8095
O2 O 1.1323(4) 0.04597(19) 0.8681(3)
O3 O 1.2562(4) -0.0562(2) 1.0753(3)
O4 O 1.1517(4) -0.24519(19) 0.9245(3)
H2 H 1.1295 -0.2570 0.9987
O5 O 0.9207(4) -0.08803(19) 0.6663(3)
O6 O 1.0396(4) -0.2430(2) 0.6693(3)
O7 O 0.6913(4) 0.0752(2) 0.4806(3)
O8 O 0.4676(4) 0.0089(2) 0.3282(3)
O9 O 1.1290(4) 0.1144(2) 0.6072(3)
H3 H 1.1999 0.0637 0.6234
H4 H 1.0962 0.1201 0.5246
O10 O 0.5502(5) 0.2068(3) 0.7236(4)
H5 H 0.4769 0.1780 0.7691
H6 H 0.5850 0.2627 0.7583
C1 C 1.0549(5) -0.1559(3) 0.8745(4)
H9 H 0.9410 -0.1487 0.9139
C2 C 1.0011(5) -0.1627(3) 0.7255(4)
C3 C 0.5460(5) 0.0253(3) 0.4451(4)
Ce1B Ce 1.16144(3) -0.094439(15) 1.28177(2)
Ce1A Ce 1.16144(3) -0.405561(15) 0.78177(2)
Ce1B_2 Ce 0.16144(3) -0.094439(15) 0.28177(2)
Ce1C Ce 0.83856(3) 0.405561(15) 1.21823(2)
P1B P 0.78628(14) 0.05061(7) 1.07245(10)
O1B O 0.6037(4) 0.0818(2) 1.1269(3)
H1B H 0.5924 0.0465 1.1905
O2B O 0.8677(4) -0.04597(19) 1.1319(3)
O3B O 0.7438(4) 0.0562(2) 0.9247(3)
O4B O 0.8483(4) 0.24519(19) 1.0755(3)
O4A O 0.8483(4) 0.25481(19) 0.5755(3)
O4C O 1.1517(4) -0.25481(19) 1.4245(3)
H2B H 0.8705 0.2570 1.0013
H2A H 0.8705 0.2430 0.5013
H2C H 1.1295 -0.2430 1.4987
O5B O 1.0793(4) 0.08803(19) 1.3337(3)
O6B O 0.9604(4) 0.2430(2) 1.3307(3)
O6A O 0.9604(4) 0.2570(2) 0.8307(3)
O6C O 1.0396(4) -0.2570(2) 1.1693(3)
O7B O 0.3087(4) -0.0752(2) 0.5194(3)
O7B_2 O 1.3087(4) -0.0752(2) 1.5194(3)
O8B O 0.5324(4) -0.0089(2) 0.6718(3)
O8_2 O 1.4676(4) 0.0089(2) 1.3282(3)
O9B O 0.8710(4) -0.1144(2) 1.3928(3)
H3B H 0.8001 -0.0637 1.3766
H4B H 0.9038 -0.1201 1.4754
O10B O 1.4498(5) -0.2068(3) 1.2764(4)
H5B H 1.5231 -0.1780 1.2309
H6B H 1.4150 -0.2627 1.2417
C1B C 0.9451(5) 0.1559(3) 1.1255(4)
H9B H 1.0590 0.1487 1.0861
C2B C 0.9989(5) 0.1627(3) 1.2745(4)
C3B C 0.4540(5) -0.0253(3) 0.5549(4)
O11 O 0.3767(5) 0.2195(3) 0.9375(4)
H7 H 0.3901 0.1946 1.0144
H8 H 0.3856 0.2828 0.9429
loop_
_geom_bond_atom_site_label_1
_geom_bond_atom_site_label_2
_geom_bond_site_symmetry_1
_geom_bond_site_symmetry_2
Ce1 O2 1_555 1_555
P1 O1 1_555 1_555
O1 H1 1_555 1_555
O2 P1 1_555 1_555
O3 P1 1_555 1_555
O4 H2 1_555 1_555
O5 Ce1 1_555 1_555
O6 C2 1_555 1_555
O7 Ce1 1_555 1_555
O8 C3 1_555 1_555
O9 Ce1 1_555 1_555
H3 O9 1_555 1_555
H4 O9 1_555 1_555
O10 Ce1 1_555 1_555
H5 O10 1_555 1_555
H6 O10 1_555 1_555
O11 H7 1_555 1_555
H8 O11 1_555 1_555
C1 P1 1_555 1_555
H9 C1 1_555 1_555
C2 O5 1_555 1_555
C3 O7 1_555 1_555
Ce1B O3 1_555 1_555
Ce1A O4 1_555 1_555
Ce1B_2 O8 1_555 1_555
Ce1C O4B 1_555 1_555
P1B O1B 1_555 1_555
O1B H1B 1_555 1_555
O2B Ce1B 1_555 1_555
O3B Ce1 1_555 1_555
O4B H2B 1_555 1_555
O4A Ce1 1_555 1_555
O4C Ce1B 1_555 1_555
H2A O4A 1_555 1_555
H2C O4C 1_555 1_555
O5B Ce1B 1_555 1_555
O6B Ce1C 1_555 1_555
O6A Ce1 1_555 1_555
O6C Ce1B 1_555 1_555
O7B Ce1B_2 1_555 1_555
O7B_2 Ce1B 1_555 1_555
O8B Ce1 1_555 1_555
O8_2 Ce1B 1_555 1_555
O9B Ce1B 1_555 1_555
H3B O9B 1_555 1_555
H4B O9B 1_555 1_555
O10B Ce1B 1_555 1_555
H5B O10B 1_555 1_555
H6B O10B 1_555 1_555
C1B P1B 1_555 1_555
H9B C1B 1_555 1_555
C2B O5B 1_555 1_555
C3B C3 1_555 1_555
O4 C1 1_555 1_555
O6 Ce1A 1_555 1_555
C1 C2 1_555 1_555
P1B O2B 1_555 1_555
P1B O3B 1_555 1_555
O4B C1B 1_555 1_555
O6B C2B 1_555 1_555
O7B C3B 1_555 1_555
O8B C3B 1_555 1_555
C1B C2B 1_555 1_555

#END
