
#######################################################################
#
#                 Cambridge Crystallographic Data Centre
#                                CCDC 
#
#######################################################################
#
# If this CIF has been generated from an entry in the Cambridge 
# Structural Database, then it will include bibliographic, chemical, 
# crystal, experimental, refinement or atomic coordinate data resulting 
# from the CCDC's data processing and validation procedures.
#
#######################################################################

data_DOQLOM
_symmetry_cell_setting           monoclinic
_symmetry_space_group_name_H-M   'C 2/c'
_symmetry_Int_Tables_number      15
_space_group_name_Hall           '-C 2yn'
loop_
_symmetry_equiv_pos_site_id
_symmetry_equiv_pos_as_xyz
1 x,y,z
2 -x,y,1/2-z
3 1/2+x,1/2+y,z
4 1/2-x,1/2+y,1/2-z
5 -x,-y,-z
6 x,-y,1/2+z
7 1/2-x,1/2-y,-z
8 1/2+x,1/2-y,1/2+z
_cell_length_a                   11.9380(8)
_cell_length_b                   5.7426(3)
_cell_length_c                   15.4560(10)
_cell_angle_alpha                90
_cell_angle_beta                 107.484(7)
_cell_angle_gamma                90
_cell_volume                     1010.64
loop_
_atom_site_label
_atom_site_type_symbol
_atom_site_fract_x
_atom_site_fract_y
_atom_site_fract_z
O1 O 0.10496(17) 0.7895(3) 0.15676(12)
N1 N 0.0912(2) 0.7651(4) 0.06958(15)
N2 N 0.1407(2) 0.5858(4) 0.03944(15)
N3 N 0.1136(2) 0.6088(4) -0.04904(16)
N4 N 0.0470(2) 0.7987(4) -0.07651(16)
C1 C 0.0330(2) 0.8950(5) -0.00223(18)
O2 O -0.1653(2) 0.7958(4) 0.14319(15)
O3 O 0.1510(2) 1.3408(4) 0.25502(17)
Sr1 Sr 0.0000 1.02988(7) 0.2500
H1 H -0.153(3) 0.672(6) 0.120(2)
H2 H 0.133(4) 1.449(7) 0.223(3)
H3 H -0.225(4) 0.859(9) 0.111(3)
H4 H 0.217(4) 1.333(7) 0.280(3)
O1D O -0.10496(17) 1.2105(3) -0.15676(12)
N1D N -0.0912(2) 1.2349(4) -0.06958(15)
N2D N -0.1407(2) 1.4142(4) -0.03944(15)
N3D N -0.1136(2) 1.3912(4) 0.04904(16)
N4D N -0.0470(2) 1.2013(4) 0.07651(16)
C1D C -0.0330(2) 1.1050(5) 0.00223(18)
O2A O 0.1653(2) 0.7958(4) 0.35681(15)
O3A O -0.1510(2) 1.3408(4) 0.24498(17)
H1A H 0.153(3) 0.672(6) 0.380(2)
H2A H -0.133(4) 1.449(7) 0.277(3)
H3A H 0.225(4) 0.859(9) 0.389(3)
H4A H -0.217(4) 1.333(7) 0.220(3)
O1A O -0.10496(17) 0.7895(3) 0.34324(12)
N4E N 0.0470(2) 1.2013(4) 0.42349(16)
Sr1D Sr 0.0000 0.97012(7) -0.2500
loop_
_geom_bond_atom_site_label_1
_geom_bond_atom_site_label_2
_geom_bond_site_symmetry_1
_geom_bond_site_symmetry_2
O1 N1 1_555 1_555
N1 N2 1_555 1_555
N2 N3 1_555 1_555
N3 N4 1_555 1_555
N4 C1 1_555 1_555
C1 N1 1_555 1_555
O2 Sr1 1_555 1_555
O3 Sr1 1_555 1_555
Sr1 O1 1_555 1_555
H1 O2 1_555 1_555
H2 O3 1_555 1_555
H3 O2 1_555 1_555
H4 O3 1_555 1_555
O1D N1D 1_555 1_555
N1D N2D 1_555 1_555
N2D N3D 1_555 1_555
N3D N4D 1_555 1_555
N4D Sr1 1_555 1_555
C1D C1 1_555 1_555
O2A Sr1 1_555 1_555
O3A Sr1 1_555 1_555
H1A O2A 1_555 1_555
H2A O3A 1_555 1_555
H3A O2A 1_555 1_555
H4A O3A 1_555 1_555
O1A Sr1 1_555 1_555
N4E Sr1 1_555 1_555
Sr1D N4 1_555 1_555
O1D Sr1D 1_555 1_555
N1D C1D 1_555 1_555
N4D C1D 1_555 1_555

#END
