
#######################################################################
#
#                 Cambridge Crystallographic Data Centre
#                                CCDC 
#
#######################################################################
#
# If this CIF has been generated from an entry in the Cambridge 
# Structural Database, then it will include bibliographic, chemical, 
# crystal, experimental, refinement or atomic coordinate data resulting 
# from the CCDC's data processing and validation procedures.
#
#######################################################################

data_DOQMEB
_symmetry_cell_setting           orthorhombic
_symmetry_space_group_name_H-M   'C 2 2 21'
_symmetry_Int_Tables_number      20
_space_group_name_Hall           'C 2n 2'
loop_
_symmetry_equiv_pos_site_id
_symmetry_equiv_pos_as_xyz
1 x,y,z
2 -x,-y,1/2+z
3 x,-y,-z
4 -x,y,1/2-z
5 1/2+x,1/2+y,z
6 1/2-x,1/2-y,1/2+z
7 1/2+x,1/2-y,-z
8 1/2-x,1/2+y,1/2-z
_cell_length_a                   9.223(1)
_cell_length_b                   14.287(1)
_cell_length_c                   20.905(1)
_cell_angle_alpha                90
_cell_angle_beta                 90
_cell_angle_gamma                90
_cell_volume                     2754.63
loop_
_atom_site_label
_atom_site_type_symbol
_atom_site_fract_x
_atom_site_fract_y
_atom_site_fract_z
Sr1 Sr 0.0000 -0.0166(1) 0.2500
O1 O -0.7525(5) 0.0280(3) 0.2812(2)
O2 O -0.7315(5) 0.1752(3) 0.3138(3)
C1 C -0.6827(7) 0.0989(4) 0.2955(3)
C2 C -0.5175(8) 0.0900(4) 0.2857(3)
O3 O -0.4387(5) 0.1647(3) 0.3148(2)
O4 O -0.4586(6) 0.0873(4) 0.4082(2)
C3 C -0.4131(7) 0.1534(5) 0.3785(3)
C4 C -0.3260(7) 0.2316(5) 0.4051(3)
C5 C -0.2622(9) 0.2984(6) 0.3677(4)
C6 C -0.1778(10) 0.3690(6) 0.3950(5)
C7 C -0.1586(10) 0.3696(6) 0.4606(5)
C8 C -0.2236(9) 0.3028(7) 0.4996(5)
C9 C -0.3071(10) 0.2346(6) 0.4705(4)
O5 O 0.0000 0.1592(5) 0.2500
O6 O -0.1330(6) -0.1501(3) 0.3068(2)
O7 O -0.0694(7) 0.0114(4) 0.3706(2)
C10 C -0.2298(10) -0.1155(5) 0.3545(4)
C11 C -0.1425(11) -0.0614(6) 0.4032(4)
C12 C -0.0134(14) 0.0708(7) 0.0886(4)
H1 H -0.4849(8) 0.0307(4) 0.3042(3)
H2 H -0.2752(9) 0.2968(6) 0.3236(4)
H3 H -0.1353(10) 0.4148(6) 0.3695(5)
H4 H -0.1010(10) 0.4157(6) 0.4790(5)
H5 H -0.2113(9) 0.3040(7) 0.5437(5)
H6 H -0.3519(10) 0.1895(6) 0.4958(4)
H7 H -0.0829(39) 0.1959(39) 0.2431(82)
H8 H 0.1665(84) -0.2114(31) 0.2072(35)
H9 H 0.2796(10) -0.1671(5) 0.1249(4)
H10 H 0.3018(10) -0.0749(5) 0.1650(4)
H11 H 0.2060(11) -0.0356(6) 0.0644(4)
H12 H 0.0730(11) -0.1024(6) 0.0761(4)
H13 H -0.0598(14) 0.1184(7) 0.1137(4)
H14 H -0.0857(14) 0.0344(7) 0.0668(4)
H15 H 0.0495(14) 0.0996(7) 0.0577(4)
C2C C -0.4825(8) 0.0900(4) 0.2143(3)
C1C C -0.3173(7) 0.0989(4) 0.2045(3)
O1C O -0.2475(5) 0.0280(3) 0.2188(2)
Sr1_2 Sr -1.0000 -0.0166(1) 0.2500
O1_2 O 0.2475(5) 0.0280(3) 0.2812(2)
H7C H 0.0829(39) 0.1959(39) 0.2569(82)
O6C O 0.1330(6) -0.1501(3) 0.1932(2)
C10C C 0.2298(10) -0.1155(5) 0.1455(4)
C11C C 0.1425(11) -0.0614(6) 0.0968(4)
O7C O 0.0694(7) 0.0114(4) 0.1294(2)
C12C C 0.0134(14) 0.0708(7) 0.4114(4)
H13C H 0.0598(14) 0.1184(7) 0.3863(4)
H14C H 0.0857(14) 0.0344(7) 0.4332(4)
H15C H -0.0495(14) 0.0996(7) 0.4423(4)
H11C H -0.2060(11) -0.0356(6) 0.4356(4)
H12C H -0.0730(11) -0.1024(6) 0.4239(4)
H9C H -0.2796(10) -0.1671(5) 0.3751(4)
H10C H -0.3018(10) -0.0749(5) 0.3350(4)
H8C H -0.1665(84) -0.2114(31) 0.2928(35)
O2C O -0.2685(5) 0.1752(3) 0.1862(3)
O3C O -0.5613(5) 0.1647(3) 0.1852(2)
C3C C -0.5869(7) 0.1534(5) 0.1215(3)
O4C O -0.5414(6) 0.0873(4) 0.0918(2)
C4C C -0.6740(7) 0.2316(5) 0.0949(3)
C5C C -0.7378(9) 0.2984(6) 0.1323(4)
C6C C -0.8222(10) 0.3690(6) 0.1050(5)
C7C C -0.8414(10) 0.3696(6) 0.0394(5)
C8C C -0.7764(9) 0.3028(7) 0.0004(5)
C9C C -0.6929(10) 0.2346(6) 0.0295(4)
H6C H -0.6481(10) 0.1895(6) 0.0042(4)
H5C H -0.7887(9) 0.3040(7) -0.0437(5)
H4C H -0.8990(10) 0.4157(6) 0.0210(5)
H3C H -0.8647(10) 0.4148(6) 0.1305(5)
H2C H -0.7248(9) 0.2968(6) 0.1764(4)
H1C H -0.5151(8) 0.0307(4) 0.1958(3)
loop_
_geom_bond_atom_site_label_1
_geom_bond_atom_site_label_2
_geom_bond_site_symmetry_1
_geom_bond_site_symmetry_2
Sr1 O5 1_555 1_555
O1 C1 1_555 1_555
O2 C1 1_555 1_555
C1 C2 1_555 1_555
C2 O3 1_555 1_555
O3 C3 1_555 1_555
O4 C3 1_555 1_555
C3 C4 1_555 1_555
C4 C5 1_555 1_555
C5 C6 1_555 1_555
C6 C7 1_555 1_555
C7 C8 1_555 1_555
C8 C9 1_555 1_555
C9 C4 1_555 1_555
O5 H7 1_555 1_555
O6 Sr1 1_555 1_555
O7 Sr1 1_555 1_555
C10 O6 1_555 1_555
C11 O7 1_555 1_555
C12 H13 1_555 1_555
H1 C2 1_555 1_555
H2 C5 1_555 1_555
H3 C6 1_555 1_555
H4 C7 1_555 1_555
H5 C8 1_555 1_555
H6 C9 1_555 1_555
H8 O6C 1_555 1_555
H9 C10C 1_555 1_555
H10 C10C 1_555 1_555
H11 C11C 1_555 1_555
H12 C11C 1_555 1_555
H14 C12 1_555 1_555
H15 C12 1_555 1_555
C2C C2 1_555 1_555
C1C C2C 1_555 1_555
O1C Sr1 1_555 1_555
Sr1_2 O1 1_555 1_555
O1_2 Sr1 1_555 1_555
H7C O5 1_555 1_555
O6C Sr1 1_555 1_555
C10C O6C 1_555 1_555
C11C C10C 1_555 1_555
O7C Sr1 1_555 1_555
C12C O7 1_555 1_555
H13C C12C 1_555 1_555
H14C C12C 1_555 1_555
H15C C12C 1_555 1_555
H11C C11 1_555 1_555
H12C C11 1_555 1_555
H9C C10 1_555 1_555
H10C C10 1_555 1_555
H8C O6 1_555 1_555
O2C C1C 1_555 1_555
O3C C2C 1_555 1_555
C3C O3C 1_555 1_555
O4C C3C 1_555 1_555
C4C C3C 1_555 1_555
C5C C4C 1_555 1_555
C6C C5C 1_555 1_555
C7C C6C 1_555 1_555
C8C C7C 1_555 1_555
C9C C4C 1_555 1_555
H6C C9C 1_555 1_555
H5C C8C 1_555 1_555
H4C C7C 1_555 1_555
H3C C6C 1_555 1_555
H2C C5C 1_555 1_555
H1C C2C 1_555 1_555
C10 C11 1_555 1_555
C12 O7C 1_555 1_555
C1C O1C 1_555 1_555
C11C O7C 1_555 1_555
C8C C9C 1_555 1_555

#END
