
#######################################################################
#
#                 Cambridge Crystallographic Data Centre
#                                CCDC 
#
#######################################################################
#
# If this CIF has been generated from an entry in the Cambridge 
# Structural Database, then it will include bibliographic, chemical, 
# crystal, experimental, refinement or atomic coordinate data resulting 
# from the CCDC's data processing and validation procedures.
#
#######################################################################

data_DORGAU
_symmetry_cell_setting           triclinic
_symmetry_space_group_name_H-M   'P -1'
_symmetry_Int_Tables_number      2
_space_group_name_Hall           '-P 1'
loop_
_symmetry_equiv_pos_site_id
_symmetry_equiv_pos_as_xyz
1 x,y,z
2 -x,-y,-z
_cell_length_a                   10.409(4)
_cell_length_b                   16.192(7)
_cell_length_c                   17.328(7)
_cell_angle_alpha                108.700(3)
_cell_angle_beta                 93.456(2)
_cell_angle_gamma                106.181(5)
_cell_volume                     2620.56
loop_
_atom_site_label
_atom_site_type_symbol
_atom_site_fract_x
_atom_site_fract_y
_atom_site_fract_z
Cd1 Cd 0.86884(3) 0.78277(2) 0.91373(2)
Cd2 Cd 0.02144(4) 0.62554(2) 0.93281(2)
Cd3 Cd 0.53047(3) -0.09367(2) 0.54193(2)
Cd4 Cd 0.65679(3) -0.26664(2) 0.58544(2)
C1 C 0.7189(5) 0.5799(4) 0.9208(3)
C2 C 0.5731(5) 0.5229(3) 0.9061(3)
C3 C 0.4710(5) 0.5634(3) 0.9087(3)
H1 H 0.4926 0.6263 0.9198
C4 C 0.3373(5) 0.5093(3) 0.8945(3)
C5 C 0.3040(5) 0.4150(3) 0.8788(3)
H2 H 0.2134 0.3800 0.8703
C6 C 0.4037(5) 0.3725(3) 0.8755(3)
C7 C 0.5384(5) 0.4289(3) 0.8898(3)
H3 H 0.6073 0.4025 0.8884
C8 C 0.2265(6) 0.5518(4) 0.8983(3)
C9 C 0.3689(5) 0.2710(3) 0.8565(3)
C10 C 0.2348(5) 0.2141(4) 0.8421(3)
H4 H 0.1649 0.2399 0.8469
C11 C 0.2045(5) 0.1198(4) 0.8209(3)
H5 H 0.1145 0.0829 0.8099
C12 C 0.3067(5) 0.0804(3) 0.8159(3)
H6 H 0.2854 0.0170 0.8005
C13 C 0.4418(5) 0.1354(3) 0.8339(3)
C14 C 0.4702(5) 0.2299(3) 0.8530(3)
H7 H 0.5603 0.2667 0.8638
C15 C 0.5549(5) 0.0960(3) 0.8333(3)
C16 C 0.5487(5) 0.0115(3) 0.7753(3)
H8 H 0.4719 -0.0213 0.7352
C17 C 0.6549(5) -0.0245(3) 0.7763(3)
C18 C 0.7700(5) 0.0235(3) 0.8364(3)
H9 H 0.8415 -0.0003 0.8368
C19 C 0.7782(5) 0.1071(3) 0.8958(3)
C20 C 0.6711(5) 0.1430(3) 0.8939(3)
H10 H 0.6770 0.1991 0.9336
C21 C 0.6477(5) -0.1147(3) 0.7139(3)
C22 C 0.8964(5) 0.1539(3) 0.9651(3)
C23 C -0.1588(5) 0.6232(3) 0.7695(3)
C24 C -0.1665(5) 0.5292(3) 0.7129(3)
C25 C -0.0521(5) 0.5005(3) 0.7137(3)
H11 H 0.0290 0.5410 0.7469
C26 C -0.0580(5) 0.4112(3) 0.6649(3)
C27 C -0.1810(5) 0.3522(3) 0.6160(3)
H12 H -0.1872 0.2925 0.5837
C28 C -0.2947(5) 0.3813(3) 0.6145(3)
C29 C -0.2876(5) 0.4701(3) 0.6618(3)
H13 H -0.3629 0.4899 0.6594
C30 C -0.4230(5) 0.3146(3) 0.5574(3)
C31 C 0.0629(5) 0.3793(3) 0.6662(3)
C32 C 0.1946(5) 0.4393(3) 0.6812(3)
H14 H 0.2087 0.5014 0.6915
C33 C 0.3036(5) 0.4072(4) 0.6810(4)
H15 H 0.3909 0.4480 0.6912
C34 C 0.2855(5) 0.3146(3) 0.6656(3)
H16 H 0.3606 0.2942 0.6660
C35 C 0.1555(5) 0.2523(3) 0.6497(3)
C36 C 0.0464(5) 0.2862(3) 0.6509(3)
H17 H -0.0409 0.2456 0.6412
C37 C 0.1314(5) 0.1522(3) 0.6304(3)
C38 C 0.2372(5) 0.1150(3) 0.6171(3)
H18 H 0.3249 0.1537 0.6232
C39 C 0.2138(5) 0.0203(3) 0.5946(3)
C40 C 0.0833(5) -0.0395(3) 0.5855(3)
H19 H 0.0679 -0.1023 0.5710
C41 C -0.0231(5) -0.0030(3) 0.5986(3)
C42 C 0.0020(5) 0.0912(3) 0.6215(3)
H20 H -0.0700 0.1145 0.6313
C43 C -0.1673(5) -0.0657(3) 0.5819(3)
C44 C 0.3295(5) -0.0163(3) 0.5774(3)
C45 C 0.5892(6) 0.8325(4) 0.9112(4)
H21 H 0.5567 0.7740 0.8712
C46 C 0.4999(6) 0.8825(4) 0.9306(4)
H22 H 0.4099 0.8571 0.9048
C47 C 0.5459(5) 0.9715(3) 0.9895(3)
C48 C 0.6795(5) 1.0025(3) 1.0261(3)
H23 H 0.7147 1.0607 1.0663
C49 C 0.7622(5) 0.9481(3) 1.0037(3)
H24 H 0.8522 0.9714 1.0295
C50 C 0.9257(6) -0.3232(4) 0.5750(4)
H25 H 0.9644 -0.2608 0.6051
C51 C 1.0095(6) -0.3768(4) 0.5560(4)
H26 H 1.1026 -0.3502 0.5735
C52 C 0.9559(5) -0.4706(3) 0.5107(3)
C53 C 0.8157(5) -0.5045(3) 0.4867(3)
H27 H 0.7741 -0.5664 0.4559
C54 C 0.7386(5) -0.4467(3) 0.5085(3)
H28 H 0.6451 -0.4716 0.4921
N1 N 0.7188(4) 0.8632(3) 0.9464(3)
N2 N 0.7902(4) -0.3572(3) 0.5518(3)
O1 O 0.7485(4) 0.6663(2) 0.9495(2)
O2 O 0.8058(4) 0.5377(3) 0.9040(3)
O3 O 0.2494(5) 0.6313(3) 0.8954(4)
O4 O 0.1103(4) 0.5088(3) 0.9054(3)
O5 O 0.8903(4) 0.2213(2) 1.0246(2)
O6 O 0.9921(4) 0.1224(3) 0.9641(2)
O7 O 0.7362(4) -0.1520(2) 0.7209(2)
O8 O 0.5492(3) -0.1545(2) 0.65210(19)
O9 O -0.0498(3) 0.6703(2) 0.8226(2)
O10 O -0.2554(4) 0.6538(2) 0.7683(2)
O11 O -0.4914(4) 0.3467(2) 0.5207(2)
O12 O -0.4500(4) 0.2314(2) 0.5515(2)
O13 O -0.2575(3) -0.0256(2) 0.5907(2)
O14 O -0.1890(4) -0.1505(2) 0.5595(2)
O15 O 0.4421(3) 0.0353(2) 0.5710(2)
O16 O 0.3156(4) -0.0984(3) 0.5691(3)
O17 O 0.9550(4) 0.8734(3) 0.8367(2)
O18 O 0.0164(5) 0.6466(3) 1.0677(3)
O19 O 0.5424(4) -0.3648(3) 0.6515(2)
H29 H 0.476(7) -0.350(8) 0.672(5)
H30 H 0.596(8) -0.369(8) 0.688(4)
H31 H -0.043(7) 0.596(4) 1.061(7)
H32 H 0.888(6) 0.862(8) 0.800(4)
H33 H 1.024(6) 0.868(8) 0.814(5)
H34 H 0.095(4) 0.644(6) 1.082(7)
C45A C 0.4108(6) 1.1675(4) 1.0888(4)
H21A H 0.4433 1.2260 1.1288
C46A C 0.5001(6) 1.1175(4) 1.0694(4)
H22A H 0.5901 1.1429 1.0952
C47A C 0.4541(5) 1.0285(3) 1.0105(3)
C48A C 0.3205(5) 0.9975(3) 0.9739(3)
H23A H 0.2853 0.9393 0.9337
C49A C 0.2378(5) 1.0519(3) 0.9963(3)
H24A H 0.1478 1.0286 0.9705
N1A N 0.2812(4) 1.1368(3) 1.0536(3)
C50A C 1.0743(6) -0.6768(4) 0.4250(4)
H25A H 1.0356 -0.7392 0.3949
C51A C 0.9905(6) -0.6232(4) 0.4440(4)
H26A H 0.8974 -0.6498 0.4265
C52A C 1.0441(5) -0.5294(3) 0.4893(3)
C53A C 1.1843(5) -0.4955(3) 0.5133(3)
H27A H 1.2259 -0.4336 0.5441
C54A C 1.2614(5) -0.5533(3) 0.4915(3)
H28A H 1.3549 -0.5284 0.5079
N2A N 1.2098(4) -0.6428(3) 0.4482(3)
Cd1A Cd -0.86884(3) -0.78277(2) 0.08627(2)
Cd2A Cd -0.02144(4) -0.62554(2) 0.06719(2)
Cd3A Cd -0.53047(3) 0.09367(2) 0.45807(2)
Cd4A Cd -0.65679(3) 0.26664(2) 0.41456(2)
C1A C -0.7189(5) -0.5799(4) 0.0792(3)
C2A C -0.5731(5) -0.5229(3) 0.0939(3)
C3A C -0.4710(5) -0.5634(3) 0.0913(3)
H1A H -0.4926 -0.6263 0.0802
C4A C -0.3373(5) -0.5093(3) 0.1055(3)
C5A C -0.3040(5) -0.4150(3) 0.1212(3)
H2A H -0.2134 -0.3800 0.1297
C6A C -0.4037(5) -0.3725(3) 0.1245(3)
C7A C -0.5384(5) -0.4289(3) 0.1102(3)
H3A H -0.6073 -0.4025 0.1116
C8A C -0.2265(6) -0.5518(4) 0.1017(3)
C9A C -0.3689(5) -0.2710(3) 0.1435(3)
C10A C -0.2348(5) -0.2141(4) 0.1579(3)
H4A H -0.1649 -0.2399 0.1531
C11A C -0.2045(5) -0.1198(4) 0.1791(3)
H5A H -0.1145 -0.0829 0.1901
C12A C -0.3067(5) -0.0804(3) 0.1841(3)
H6A H -0.2854 -0.0170 0.1995
C13A C -0.4418(5) -0.1354(3) 0.1661(3)
C14A C -0.4702(5) -0.2299(3) 0.1470(3)
H7A H -0.5603 -0.2667 0.1362
C15A C -0.5549(5) -0.0960(3) 0.1667(3)
C16A C -0.5487(5) -0.0115(3) 0.2247(3)
H8A H -0.4719 0.0213 0.2648
C17A C -0.6549(5) 0.0245(3) 0.2237(3)
C18A C -0.7700(5) -0.0235(3) 0.1636(3)
H9A H -0.8415 0.0003 0.1632
C19A C -0.7782(5) -0.1071(3) 0.1042(3)
C20A C -0.6711(5) -0.1430(3) 0.1061(3)
H10A H -0.6770 -0.1991 0.0664
C21A C -0.6477(5) 0.1147(3) 0.2861(3)
C22A C -0.8964(5) -0.1539(3) 0.0349(3)
C23A C 0.1588(5) -0.6232(3) 0.2305(3)
C24A C 0.1665(5) -0.5292(3) 0.2871(3)
C25A C 0.0521(5) -0.5005(3) 0.2863(3)
H11A H -0.0290 -0.5410 0.2531
C26A C 0.0580(5) -0.4112(3) 0.3351(3)
C27A C 0.1810(5) -0.3522(3) 0.3840(3)
H12A H 0.1872 -0.2925 0.4163
C28A C 0.2947(5) -0.3813(3) 0.3855(3)
C29A C 0.2876(5) -0.4701(3) 0.3382(3)
H13A H 0.3629 -0.4899 0.3406
C30A C 0.4230(5) -0.3146(3) 0.4426(3)
C31A C -0.0629(5) -0.3793(3) 0.3338(3)
C32A C -0.1946(5) -0.4393(3) 0.3188(3)
H14A H -0.2087 -0.5014 0.3085
C33A C -0.3036(5) -0.4072(4) 0.3190(4)
H15A H -0.3909 -0.4480 0.3088
C34A C -0.2855(5) -0.3146(3) 0.3344(3)
H16A H -0.3606 -0.2942 0.3340
C35A C -0.1555(5) -0.2523(3) 0.3503(3)
C36A C -0.0464(5) -0.2862(3) 0.3491(3)
H17A H 0.0409 -0.2456 0.3588
C37A C -0.1314(5) -0.1522(3) 0.3696(3)
C38A C -0.2372(5) -0.1150(3) 0.3829(3)
H18A H -0.3249 -0.1537 0.3768
C39A C -0.2138(5) -0.0203(3) 0.4054(3)
C40A C -0.0833(5) 0.0395(3) 0.4145(3)
H19A H -0.0679 0.1023 0.4290
C41A C 0.0231(5) 0.0030(3) 0.4014(3)
C42A C -0.0020(5) -0.0912(3) 0.3785(3)
H20A H 0.0700 -0.1145 0.3687
C43A C 0.1673(5) 0.0657(3) 0.4181(3)
C44A C -0.3295(5) 0.0163(3) 0.4226(3)
O1A O -0.7485(4) -0.6663(2) 0.0505(2)
O2A O -0.8058(4) -0.5377(3) 0.0960(3)
O3A O -0.2494(5) -0.6313(3) 0.1046(4)
O4A O -0.1103(4) -0.5088(3) 0.0946(3)
O5A O -0.8903(4) -0.2213(2) -0.0246(2)
O6A O -0.9921(4) -0.1224(3) 0.0359(2)
O7A O -0.7362(4) 0.1520(2) 0.2791(2)
O8A O -0.5492(3) 0.1545(2) 0.34790(19)
O9A O 0.0498(3) -0.6703(2) 0.1774(2)
O10A O 0.2554(4) -0.6538(2) 0.2317(2)
O11A O 0.4914(4) -0.3467(2) 0.4793(2)
O12A O 0.4500(4) -0.2314(2) 0.4485(2)
O13A O 0.2575(3) 0.0256(2) 0.4093(2)
O14A O 0.1890(4) 0.1505(2) 0.4405(2)
O15A O -0.4421(3) -0.0353(2) 0.4290(2)
O16A O -0.3156(4) 0.0984(3) 0.4309(3)
O17A O -0.9550(4) -0.8734(3) 0.1633(2)
O18A O -0.0164(5) -0.6466(3) -0.0677(3)
O19A O -0.5424(4) 0.3648(3) 0.3485(2)
H29A H -0.476(7) 0.350(8) 0.328(5)
H30A H -0.596(8) 0.369(8) 0.312(4)
H31A H 0.043(7) -0.596(4) -0.061(7)
H32A H -0.888(6) -0.862(8) 0.200(4)
H33A H -1.024(6) -0.868(8) 0.186(5)
H34A H -0.095(4) -0.644(6) -0.082(7)
Cd1_2 Cd -1.13116(3) -0.21723(2) -0.08627(2)
Cd1_3 Cd -0.13116(3) 0.78277(2) 0.91373(2)
Cd1A_2 Cd 0.13116(3) -0.78277(2) 0.08627(2)
Cd1A_3 Cd 0.13116(3) 1.21723(2) 1.08627(2)
Cd1A_4 Cd 1.13116(3) 0.21723(2) 1.08627(2)
Cd2_2 Cd -0.97856(4) -0.37446(2) -0.06719(2)
Cd2_3 Cd 1.02144(4) 0.62554(2) 0.93281(2)
Cd2A_2 Cd -1.02144(4) -0.62554(2) 0.06719(2)
Cd2A_3 Cd 0.97856(4) 0.37446(2) 1.06719(2)
Cd3_2 Cd -0.46953(3) -0.09367(2) 0.54193(2)
Cd3A_2 Cd 0.46953(3) 0.09367(2) 0.45807(2)
Cd4_2 Cd -0.34321(3) -0.26664(2) 0.58544(2)
Cd4A_2 Cd 0.34321(3) 0.26664(2) 0.41456(2)
Cd4A_3 Cd 1.34321(3) -0.73336(2) 0.41456(2)
N1A_2 N -0.7188(4) -0.8632(3) 0.0536(3)
N2A_2 N -0.7902(4) 0.3572(3) 0.4482(3)
O2_2 O -0.1942(4) 0.5377(3) 0.9040(3)
O2A_2 O 0.1942(4) -0.5377(3) 0.0960(3)
O5_2 O -1.1097(4) -0.7787(2) 0.0246(2)
O5_3 O -0.1097(4) -0.7787(2) 0.0246(2)
O5A_2 O 0.1097(4) 0.7787(2) 0.9754(2)
O5A_3 O 1.1097(4) 0.7787(2) 0.9754(2)
O6_2 O -1.0079(4) -0.8776(3) -0.0359(2)
O6A_2 O 1.0079(4) 0.8776(3) 1.0359(2)
O9_2 O 0.9502(3) 0.6703(2) 0.8226(2)
O9A_2 O -0.9502(3) -0.6703(2) 0.1774(2)
O10_2 O 0.7446(4) 0.6538(2) 0.7683(2)
O10A_2 O -0.7446(4) -0.6538(2) 0.2317(2)
O13_2 O 0.7425(3) -0.0256(2) 0.5907(2)
O13A_2 O -0.7425(3) 0.0256(2) 0.4093(2)
O14_2 O 0.8110(4) -0.1505(2) 0.5595(2)
O14A_2 O -0.8110(4) 0.1505(2) 0.4405(2)
O15_2 O -0.5579(3) 0.0353(2) 0.5710(2)
O15A_2 O 0.5579(3) -0.0353(2) 0.4290(2)
O20 O -0.2177(5) 0.3342(4) 0.8179(3)
O21 O -0.2945(6) 0.1768(4) 0.6736(4)
O22 O 1.3435(7) -0.3243(4) 0.7540(4)
O23 O 1.2731(6) -0.2129(5) 0.6516(4)
O24 O 1.1643(7) -0.1909(5) 0.7924(4)
loop_
_geom_bond_atom_site_label_1
_geom_bond_atom_site_label_2
_geom_bond_site_symmetry_1
_geom_bond_site_symmetry_2
Cd1 N1 1_555 1_555
Cd2 O3 1_555 1_555
Cd3 O8 1_555 1_555
Cd4 N2 1_555 1_555
C1 C2 1_555 1_555
C2 C3 1_555 1_555
C3 H1 1_555 1_555
C4 C3 1_555 1_555
C5 C4 1_555 1_555
H2 C5 1_555 1_555
C6 C5 1_555 1_555
C7 C2 1_555 1_555
H3 C7 1_555 1_555
C8 C4 1_555 1_555
C9 C6 1_555 1_555
C10 C9 1_555 1_555
H4 C10 1_555 1_555
C11 C10 1_555 1_555
H5 C11 1_555 1_555
C12 C11 1_555 1_555
H6 C12 1_555 1_555
C13 C12 1_555 1_555
C14 C9 1_555 1_555
H7 C14 1_555 1_555
C15 C13 1_555 1_555
C16 C15 1_555 1_555
H8 C16 1_555 1_555
C17 C16 1_555 1_555
C18 C17 1_555 1_555
H9 C18 1_555 1_555
C19 C18 1_555 1_555
C20 C15 1_555 1_555
H10 C20 1_555 1_555
C21 C17 1_555 1_555
C22 C19 1_555 1_555
C23 C24 1_555 1_555
C24 C25 1_555 1_555
C25 H11 1_555 1_555
C26 C25 1_555 1_555
C27 C26 1_555 1_555
H12 C27 1_555 1_555
C28 C27 1_555 1_555
C29 C24 1_555 1_555
H13 C29 1_555 1_555
C30 C28 1_555 1_555
C31 C26 1_555 1_555
C32 C31 1_555 1_555
H14 C32 1_555 1_555
C33 C32 1_555 1_555
H15 C33 1_555 1_555
C34 C33 1_555 1_555
H16 C34 1_555 1_555
C35 C34 1_555 1_555
C36 C31 1_555 1_555
H17 C36 1_555 1_555
C37 C35 1_555 1_555
C38 C37 1_555 1_555
H18 C38 1_555 1_555
C39 C38 1_555 1_555
C40 C39 1_555 1_555
H19 C40 1_555 1_555
C41 C40 1_555 1_555
C42 C37 1_555 1_555
H20 C42 1_555 1_555
C43 C41 1_555 1_555
C44 C39 1_555 1_555
C45 H21 1_555 1_555
C46 C45 1_555 1_555
H22 C46 1_555 1_555
C47 C46 1_555 1_555
C48 C47 1_555 1_555
H23 C48 1_555 1_555
C49 C48 1_555 1_555
H24 C49 1_555 1_555
C50 H25 1_555 1_555
C51 C50 1_555 1_555
H26 C51 1_555 1_555
C52 C51 1_555 1_555
C53 C52 1_555 1_555
H27 C53 1_555 1_555
C54 C53 1_555 1_555
H28 C54 1_555 1_555
N1 C45 1_555 1_555
N2 C50 1_555 1_555
O1 Cd1 1_555 1_555
O2 C1 1_555 1_555
O3 C8 1_555 1_555
O4 Cd2 1_555 1_555
O5 C22 1_555 1_555
O6 C22 1_555 1_555
O7 Cd4 1_555 1_555
O8 Cd4 1_555 1_555
O9 Cd2 1_555 1_555
O10 C23 1_555 1_555
O11 C30 1_555 1_555
O12 C30 1_555 1_555
O13 C43 1_555 1_555
O14 C43 1_555 1_555
O15 Cd3 1_555 1_555
O16 Cd3 1_555 1_555
O17 Cd1 1_555 1_555
O18 Cd2 1_555 1_555
O19 Cd4 1_555 1_555
H29 O19 1_555 1_555
H30 O19 1_555 1_555
H31 O18 1_555 1_555
H32 O17 1_555 1_555
H33 O17 1_555 1_555
H34 O18 1_555 1_555
C45A H21A 1_555 1_555
C46A C45A 1_555 1_555
H22A C46A 1_555 1_555
C47A C47 1_555 1_555
C48A C47A 1_555 1_555
H23A C48A 1_555 1_555
C49A C48A 1_555 1_555
H24A C49A 1_555 1_555
N1A C45A 1_555 1_555
C50A H25A 1_555 1_555
C51A C50A 1_555 1_555
H26A C51A 1_555 1_555
C52A C52 1_555 1_555
C53A C52A 1_555 1_555
H27A C53A 1_555 1_555
C54A C53A 1_555 1_555
H28A C54A 1_555 1_555
N2A C50A 1_555 1_555
Cd1A O1A 1_555 1_555
Cd2A O3A 1_555 1_555
Cd3A O12 1_555 1_555
Cd4A O11 1_555 1_555
C1A C2A 1_555 1_555
C2A C3A 1_555 1_555
C3A H1A 1_555 1_555
C4A C3A 1_555 1_555
C5A C4A 1_555 1_555
H2A C5A 1_555 1_555
C6A C5A 1_555 1_555
C7A C2A 1_555 1_555
H3A C7A 1_555 1_555
C8A C4A 1_555 1_555
C9A C6A 1_555 1_555
C10A C9A 1_555 1_555
H4A C10A 1_555 1_555
C11A C10A 1_555 1_555
H5A C11A 1_555 1_555
C12A C11A 1_555 1_555
H6A C12A 1_555 1_555
C13A C12A 1_555 1_555
C14A C9A 1_555 1_555
H7A C14A 1_555 1_555
C15A C13A 1_555 1_555
C16A C15A 1_555 1_555
H8A C16A 1_555 1_555
C17A C16A 1_555 1_555
C18A C17A 1_555 1_555
H9A C18A 1_555 1_555
C19A C18A 1_555 1_555
C20A C15A 1_555 1_555
H10A C20A 1_555 1_555
C21A C17A 1_555 1_555
C22A C19A 1_555 1_555
C23A C24A 1_555 1_555
C24A C25A 1_555 1_555
C25A H11A 1_555 1_555
C26A C25A 1_555 1_555
C27A C26A 1_555 1_555
H12A C27A 1_555 1_555
C28A C27A 1_555 1_555
C29A C24A 1_555 1_555
H13A C29A 1_555 1_555
C30A C28A 1_555 1_555
C31A C26A 1_555 1_555
C32A C31A 1_555 1_555
H14A C32A 1_555 1_555
C33A C32A 1_555 1_555
H15A C33A 1_555 1_555
C34A C33A 1_555 1_555
H16A C34A 1_555 1_555
C35A C34A 1_555 1_555
C36A C31A 1_555 1_555
H17A C36A 1_555 1_555
C37A C35A 1_555 1_555
C38A C37A 1_555 1_555
H18A C38A 1_555 1_555
C39A C38A 1_555 1_555
C40A C39A 1_555 1_555
H19A C40A 1_555 1_555
C41A C40A 1_555 1_555
C42A C37A 1_555 1_555
H20A C42A 1_555 1_555
C43A C41A 1_555 1_555
C44A C39A 1_555 1_555
O1A C1A 1_555 1_555
O2A C1A 1_555 1_555
O3A C8A 1_555 1_555
O4A Cd2A 1_555 1_555
O5A C22A 1_555 1_555
O6A C22A 1_555 1_555
O7A Cd4A 1_555 1_555
O8A Cd3A 1_555 1_555
O9A Cd2A 1_555 1_555
O10A C23A 1_555 1_555
O11A Cd4 1_555 1_555
O12A Cd3 1_555 1_555
O13A C43A 1_555 1_555
O14A C43A 1_555 1_555
O15A Cd3A 1_555 1_555
O16A Cd3A 1_555 1_555
O17A Cd1A 1_555 1_555
O18A Cd2A 1_555 1_555
O19A Cd4A 1_555 1_555
H29A O19A 1_555 1_555
H30A O19A 1_555 1_555
H31A O18A 1_555 1_555
H32A O17A 1_555 1_555
H33A O17A 1_555 1_555
H34A O18A 1_555 1_555
Cd1_2 O5A 1_555 1_555
Cd1_3 O9 1_555 1_555
Cd1A_2 O9A 1_555 1_555
Cd1A_3 N1A 1_555 1_555
Cd1A_4 O5 1_555 1_555
Cd2_2 O5A 1_555 1_555
Cd2_3 O2 1_555 1_555
Cd2A_2 O2A 1_555 1_555
Cd2A_3 O5 1_555 1_555
Cd3_2 O13 1_555 1_555
Cd3A_2 O15 1_555 1_555
Cd4_2 O14 1_555 1_555
Cd4A_2 O14A 1_555 1_555
Cd4A_3 N2A 1_555 1_555
N1A_2 Cd1A 1_555 1_555
N2A_2 Cd4A 1_555 1_555
O2_2 Cd2 1_555 1_555
O2A_2 Cd2A 1_555 1_555
O5_2 Cd1A 1_555 1_555
O5_3 Cd2A 1_555 1_555
O5A_2 Cd2 1_555 1_555
O5A_3 Cd1 1_555 1_555
O6_2 Cd1A 1_555 1_555
O6A_2 Cd1 1_555 1_555
O9_2 Cd1 1_555 1_555
O9A_2 Cd1A 1_555 1_555
O10_2 Cd1 1_555 1_555
O10A_2 Cd1A 1_555 1_555
O13_2 Cd3 1_555 1_555
O13A_2 Cd3A 1_555 1_555
O14_2 Cd4 1_555 1_555
O14A_2 Cd4A 1_555 1_555
O15_2 Cd3A 1_555 1_555
O15A_2 Cd3 1_555 1_555
C1 O1 1_555 1_555
C6 C7 1_555 1_555
C8 O4 1_555 1_555
C13 C14 1_555 1_555
C19 C20 1_555 1_555
C21 O7 1_555 1_555
C21 O8 1_555 1_555
C23 O9 1_555 1_555
C28 C29 1_555 1_555
C35 C36 1_555 1_555
C41 C42 1_555 1_555
C44 O15 1_555 1_555
C44 O16 1_555 1_555
C49 N1 1_555 1_555
C54 N2 1_555 1_555
O6 Cd1A_4 1_555 1_555
O10 Cd1_3 1_555 1_555
C46A C47A 1_555 1_555
C49A N1A 1_555 1_555
C51A C52A 1_555 1_555
C54A N2A 1_555 1_555
Cd4A O8A 1_555 1_555
C6A C7A 1_555 1_555
C8A O4A 1_555 1_555
C13A C14A 1_555 1_555
C19A C20A 1_555 1_555
C21A O7A 1_555 1_555
C21A O8A 1_555 1_555
C23A O9A 1_555 1_555
C28A C29A 1_555 1_555
C30A O11A 1_555 1_555
C30A O12A 1_555 1_555
C35A C36A 1_555 1_555
C41A C42A 1_555 1_555
C44A O15A 1_555 1_555
C44A O16A 1_555 1_555
O6A Cd1_2 1_555 1_555
O10A Cd1A_2 1_555 1_555
O13A Cd3A_2 1_555 1_555
O15A Cd3_2 1_555 1_555
Cd1_3 O5A_2 1_555 1_555
Cd1A_2 O5_3 1_555 1_555
Cd2_3 O5A_3 1_555 1_555
Cd2_3 O9_2 1_555 1_555
Cd2A_2 O5_2 1_555 1_555
Cd2A_2 O9A_2 1_555 1_555
Cd3_2 O15_2 1_555 1_555
Cd3A_2 O15A_2 1_555 1_555

#END
