
#######################################################################
#
#                 Cambridge Crystallographic Data Centre
#                                CCDC 
#
#######################################################################
#
# If this CIF has been generated from an entry in the Cambridge 
# Structural Database, then it will include bibliographic, chemical, 
# crystal, experimental, refinement or atomic coordinate data resulting 
# from the CCDC's data processing and validation procedures.
#
#######################################################################

data_DORQAD
_symmetry_cell_setting           triclinic
_symmetry_space_group_name_H-M   'P -1'
_symmetry_Int_Tables_number      2
_space_group_name_Hall           '-P 1'
loop_
_symmetry_equiv_pos_site_id
_symmetry_equiv_pos_as_xyz
1 x,y,z
2 -x,-y,-z
_cell_length_a                   8.360(3)
_cell_length_b                   8.475(3)
_cell_length_c                   14.077(6)
_cell_angle_alpha                79.777(6)
_cell_angle_beta                 85.519(5)
_cell_angle_gamma                70.485(5)
_cell_volume                     924.96
loop_
_atom_site_label
_atom_site_type_symbol
_atom_site_fract_x
_atom_site_fract_y
_atom_site_fract_z
Ba1 Ba 0.411636(17) 0.767893(17) 0.534640(10)
C1 C 0.7347(4) 0.8589(3) 0.7563(2)
C2 C 0.6056(4) 0.8547(4) 0.8241(2)
C3 C 0.6188(5) 0.8661(4) 0.9197(2)
H1 H 0.5305 0.8620 0.9635
C4 C 0.7643(6) 0.8837(5) 0.9491(3)
H2 H 0.7747 0.8921 1.0132
C5 C 0.8933(5) 0.8887(5) 0.8841(3)
H3 H 0.9911 0.9012 0.9042
C6 C 0.8803(4) 0.8753(4) 0.7891(3)
H4 H 0.9702 0.8774 0.7462
C7 C 0.7237(3) 0.8572(4) 0.6500(2)
C8 C 0.7664(3) 0.3506(3) 0.74384(19)
C9 C 0.6610(3) 0.3667(3) 0.8250(2)
C10 C 0.7093(5) 0.3948(4) 0.9110(2)
H5 H 0.6355 0.4053 0.9642
C11 C 0.8677(5) 0.4065(5) 0.9159(3)
H6 H 0.9022 0.4253 0.9730
C12 C 0.9754(5) 0.3908(5) 0.8373(3)
H7 H 1.0828 0.3991 0.8411
C13 C 0.9252(4) 0.3625(4) 0.7522(2)
H8 H 1.0002 0.3513 0.6994
C14 C 0.7168(3) 0.3303(3) 0.64705(19)
H9 H 0.727(4) 0.779(3) 0.3798(18)
H10 H 0.039(2) 1.086(4) 0.592(2)
H11 H 0.212(4) 0.518(3) 0.618(2)
H12 H 0.758(4) 0.703(5) 0.4677(17)
H13 H 0.166(4) 1.012(4) 0.6441(14)
H14 H 0.084(2) 0.657(3) 0.628(2)
N1 N 0.4926(3) 0.3504(4) 0.82407(19)
N2 N 0.4499(3) 0.8324(4) 0.79730(19)
O1 O 0.5911(2) 0.9480(2) 0.60674(13)
O2 O 0.8513(3) 0.7680(4) 0.61090(18)
O3 O 0.4590(3) 0.7383(3) 0.73970(15)
O4 O 0.3188(4) 0.9063(6) 0.8361(3)
O5 O 0.5925(3) 0.4441(2) 0.60573(15)
O6 O 0.8049(3) 0.2027(3) 0.61221(15)
O7 O 0.4706(3) 0.2603(4) 0.7723(2)
O8 O 0.3819(4) 0.4285(5) 0.8770(2)
O9 O 0.7083(5) 0.7071(5) 0.4191(4)
O10 O 0.1454(4) 1.0435(4) 0.5801(3)
O11 O 0.1909(3) 0.6148(3) 0.6317(2)
Ba1A Ba 0.588364(17) 1.232107(17) 0.465360(10)
Ba1A_2 Ba 0.588364(17) 0.232107(17) 0.465360(10)
O1A O 0.4089(2) 1.0520(2) 0.39326(13)
O5A O 0.4075(3) 0.5559(2) 0.39427(15)
O6A O 0.1951(3) 0.7973(3) 0.38779(15)
loop_
_geom_bond_atom_site_label_1
_geom_bond_atom_site_label_2
_geom_bond_site_symmetry_1
_geom_bond_site_symmetry_2
Ba1 O1 1_555 1_555
C1 C2 1_555 1_555
C2 C3 1_555 1_555
C3 H1 1_555 1_555
C4 C3 1_555 1_555
H2 C4 1_555 1_555
C5 C4 1_555 1_555
H3 C5 1_555 1_555
C6 C1 1_555 1_555
H4 C6 1_555 1_555
C7 C1 1_555 1_555
C8 C9 1_555 1_555
C9 C10 1_555 1_555
C10 H5 1_555 1_555
C11 C10 1_555 1_555
H6 C11 1_555 1_555
C12 C11 1_555 1_555
H7 C12 1_555 1_555
C13 C8 1_555 1_555
H8 C13 1_555 1_555
C14 C8 1_555 1_555
H9 O9 1_555 1_555
H10 O10 1_555 1_555
H11 O11 1_555 1_555
H12 O9 1_555 1_555
H13 O10 1_555 1_555
H14 O11 1_555 1_555
N1 C9 1_555 1_555
N2 C2 1_555 1_555
O1 C7 1_555 1_555
O2 C7 1_555 1_555
O3 Ba1 1_555 1_555
O4 N2 1_555 1_555
O5 Ba1 1_555 1_555
O6 C14 1_555 1_555
O7 N1 1_555 1_555
O8 N1 1_555 1_555
O9 Ba1 1_555 1_555
O10 Ba1 1_555 1_555
O11 Ba1 1_555 1_555
Ba1A O1 1_555 1_555
Ba1A_2 O5 1_555 1_555
O1A Ba1 1_555 1_555
O5A Ba1 1_555 1_555
O6A Ba1 1_555 1_555
C5 C6 1_555 1_555
C12 C13 1_555 1_555
C14 O5 1_555 1_555
N2 O3 1_555 1_555
O6 Ba1A_2 1_555 1_555
Ba1A O1A 1_555 1_555
Ba1A_2 O5A 1_555 1_555

#END
