
#######################################################################
#
#                 Cambridge Crystallographic Data Centre
#                                CCDC 
#
#######################################################################
#
# If this CIF has been generated from an entry in the Cambridge 
# Structural Database, then it will include bibliographic, chemical, 
# crystal, experimental, refinement or atomic coordinate data resulting 
# from the CCDC's data processing and validation procedures.
#
#######################################################################

data_DORREI
_symmetry_cell_setting           triclinic
_symmetry_space_group_name_H-M   'P 1'
_symmetry_Int_Tables_number      1
_space_group_name_Hall           'P 1'
loop_
_symmetry_equiv_pos_site_id
_symmetry_equiv_pos_as_xyz
1 x,y,z
_cell_length_a                   6.149(2)
_cell_length_b                   9.638(4)
_cell_length_c                   10.117(6)
_cell_angle_alpha                79.002(8)
_cell_angle_beta                 76.291(7)
_cell_angle_gamma                71.942(7)
_cell_volume                     549.317
loop_
_atom_site_label
_atom_site_type_symbol
_atom_site_fract_x
_atom_site_fract_y
_atom_site_fract_z
Na1 Na 0.6141(3) -0.12444(18) 0.35684(18)
Na2 Na 0.3847(3) 0.12369(18) 0.63951(18)
S1 S 0.75973(16) 0.18160(11) 0.32263(10)
O1 O 0.1078(5) 0.5559(3) 0.2194(4)
O2 O -0.0449(5) 0.8027(3) 0.1687(3)
O3 O 0.3480(5) 0.8561(3) 0.2238(4)
H1 H 0.2342 0.9239 0.2480
O4 O 0.6382(5) 0.6173(3) 0.3631(3)
H2 H 0.7779 0.6013 0.3307
O5 O 0.7067(5) 0.3500(3) 0.2539(3)
O6 O 0.6333(6) 0.1138(4) 0.2635(4)
O7 O 0.6805(6) 0.1848(4) 0.4689(4)
O8 O 1.0087(5) 0.1307(4) 0.2800(4)
C1 C 0.1630(6) 0.6934(4) 0.1720(4)
H3 H 0.2594 0.6906 0.0798
C2 C 0.2920(6) 0.7205(4) 0.2686(4)
H4 H 0.1991 0.7202 0.3619
C3 C 0.5200(6) 0.5998(4) 0.2649(4)
H5 H 0.6168 0.6097 0.1734
C4 C 0.4775(6) 0.4485(4) 0.2935(4)
H6 H 0.4175 0.4256 0.3914
C5 C 0.3125(8) 0.4347(5) 0.2082(5)
H7 H 0.3901 0.4328 0.1129
H8 H 0.2703 0.3434 0.2404
C6 C -0.1059(10) 0.8437(8) 0.0367(6)
H9 H -0.2661 0.9006 0.0454
H10 H -0.0841 0.7569 -0.0037
H11 H -0.0086 0.9014 -0.0206
S2 S 0.80610(16) -0.18203(11) 0.66722(10)
O9 O 0.4512(5) -0.5615(4) 0.7969(4)
O10 O 0.5063(5) -0.8099(3) 0.8365(3)
O11 O 0.9945(5) -0.8585(3) 0.7722(3)
H12 H 0.9679 -0.9257 0.7456
O12 O 1.1526(5) -0.6168(3) 0.6373(3)
H13 H 1.2517 -0.6031 0.6711
O13 O 0.8742(5) -0.3482(3) 0.7386(3)
O14 O 0.5668(6) -0.1168(4) 0.7271(4)
O15 O 0.8413(6) -0.1894(4) 0.5235(3)
O16 O 0.9696(6) -0.1237(4) 0.7038(4)
C7 C 0.6077(7) -0.7010(4) 0.8360(4)
H14 H 0.6365 -0.7035 0.9277
C8 C 0.8366(6) -0.7237(4) 0.7328(4)
H15 H 0.8097 -0.7218 0.6407
C9 C 0.9403(6) -0.6015(4) 0.7354(4)
H16 H 0.9757 -0.6110 0.8267
C10 C 0.7699(6) -0.4513(4) 0.7082(4)
H17 H 0.7514 -0.4309 0.6122
C11 C 0.5348(7) -0.4426(5) 0.8044(6)
H18 H 0.5513 -0.4447 0.8978
H19 H 0.4232 -0.3505 0.7796
C12 C 0.3580(9) -0.8418(6) 0.9642(5)
H20 H 0.3075 -0.9256 0.9607
H21 H 0.2248 -0.7584 0.9799
H22 H 0.4427 -0.8628 1.0375
O17 O 0.2685(6) 0.0041(5) 0.4937(4)
H23 H 0.189(4) 0.060(3) 0.443(2)
H24 H 0.195(5) -0.048(3) 0.543(3)
Na1_2 Na -0.3859(3) 0.87556(18) 0.35684(18)
Na1_3 Na 0.6141(3) 0.87556(18) 0.35684(18)
Na2_2 Na 0.3847(3) -0.87631(18) 0.63951(18)
Na2_3 Na 1.3847(3) -0.87631(18) 0.63951(18)
O2_2 O 0.9551(5) -0.1973(3) 0.1687(3)
O3_2 O 0.3480(5) -0.1439(3) 0.2238(4)
H1_2 H 0.2342 -0.0761 0.2480
O4_2 O 0.6382(5) -0.3827(3) 0.3631(3)
H2_2 H 0.7779 -0.3987 0.3307
O10_2 O 0.5063(5) 0.1901(3) 0.8365(3)
O11_2 O -0.0055(5) 0.1415(3) 0.7722(3)
H12_2 H -0.0321 0.0743 0.7456
O12_2 O 0.1526(5) 0.3832(3) 0.6373(3)
H13_2 H 0.2517 0.3969 0.6711
loop_
_geom_bond_atom_site_label_1
_geom_bond_atom_site_label_2
_geom_bond_site_symmetry_1
_geom_bond_site_symmetry_2
Na1 O6 1_555 1_555
Na2 O7 1_555 1_555
S1 O5 1_555 1_555
O1 C1 1_555 1_555
O2 C1 1_555 1_555
O3 H1 1_555 1_555
O4 H2 1_555 1_555
O5 C4 1_555 1_555
O6 S1 1_555 1_555
O7 S1 1_555 1_555
O8 S1 1_555 1_555
C1 H3 1_555 1_555
C2 O3 1_555 1_555
H4 C2 1_555 1_555
C3 O4 1_555 1_555
H5 C3 1_555 1_555
C4 C3 1_555 1_555
H6 C4 1_555 1_555
C5 O1 1_555 1_555
H7 C5 1_555 1_555
H8 C5 1_555 1_555
C6 O2 1_555 1_555
H9 C6 1_555 1_555
H10 C6 1_555 1_555
H11 C6 1_555 1_555
S2 O13 1_555 1_555
O9 C7 1_555 1_555
O10 C7 1_555 1_555
O11 H12 1_555 1_555
O12 H13 1_555 1_555
O13 C10 1_555 1_555
O14 Na2 1_555 1_555
O15 Na1 1_555 1_555
O16 S2 1_555 1_555
C7 H14 1_555 1_555
C8 O11 1_555 1_555
H15 C8 1_555 1_555
C9 O12 1_555 1_555
H16 C9 1_555 1_555
C10 C9 1_555 1_555
H17 C10 1_555 1_555
C11 O9 1_555 1_555
H18 C11 1_555 1_555
H19 C11 1_555 1_555
C12 O10 1_555 1_555
H20 C12 1_555 1_555
H21 C12 1_555 1_555
H22 C12 1_555 1_555
O17 Na1 1_555 1_555
H23 O17 1_555 1_555
H24 O17 1_555 1_555
Na1_2 O2 1_555 1_555
Na1_3 O3 1_555 1_555
Na2_2 O10 1_555 1_555
Na2_3 O11 1_555 1_555
O2_2 Na1 1_555 1_555
O3_2 Na1 1_555 1_555
H1_2 O3_2 1_555 1_555
O4_2 Na1 1_555 1_555
H2_2 O4_2 1_555 1_555
O10_2 Na2 1_555 1_555
O11_2 Na2 1_555 1_555
H12_2 O11_2 1_555 1_555
O12_2 Na2 1_555 1_555
H13_2 O12_2 1_555 1_555
Na2 O17 1_555 1_555
O4 Na1_3 1_555 1_555
C1 C2 1_555 1_555
C2 C3 1_555 1_555
C4 C5 1_555 1_555
S2 O14 1_555 1_555
S2 O15 1_555 1_555
O12 Na2_3 1_555 1_555
C7 C8 1_555 1_555
C8 C9 1_555 1_555
C10 C11 1_555 1_555

#END
