
#######################################################################
#
#                 Cambridge Crystallographic Data Centre
#                                CCDC 
#
#######################################################################
#
# If this CIF has been generated from an entry in the Cambridge 
# Structural Database, then it will include bibliographic, chemical, 
# crystal, experimental, refinement or atomic coordinate data resulting 
# from the CCDC's data processing and validation procedures.
#
#######################################################################

data_DORROS
_symmetry_cell_setting           triclinic
_symmetry_space_group_name_H-M   'P -1'
_symmetry_Int_Tables_number      2
_space_group_name_Hall           '-P 1'
loop_
_symmetry_equiv_pos_site_id
_symmetry_equiv_pos_as_xyz
1 x,y,z
2 -x,-y,-z
_cell_length_a                   12.2480(4)
_cell_length_b                   12.5140(4)
_cell_length_c                   14.5040(5)
_cell_angle_alpha                96.4590(10)
_cell_angle_beta                 97.5240(10)
_cell_angle_gamma                98.3980(10)
_cell_volume                     2160.56
loop_
_atom_site_label
_atom_site_type_symbol
_atom_site_fract_x
_atom_site_fract_y
_atom_site_fract_z
Cu1 Cu 0.5000 0.5000 0.5000
Cu2 Cu 0.48881(11) 0.60208(10) 0.30734(9)
Cu3 Cu 0.5000 0.0000 0.0000
Cu4 Cu 0.58520(11) 0.09393(10) 0.21746(9)
S1 S 0.7525(3) 0.6777(2) 0.3056(2)
S2 S 0.4352(2) 0.2830(2) 0.25393(19)
O1 O 0.5440(6) 0.6192(5) 0.4367(5)
H1 H 0.6245 0.6320 0.4437
O2 O 0.5489(6) 0.1242(5) 0.0939(5)
H2 H 0.4876 0.1671 0.0935
O3 O 0.7584(7) 0.6818(6) 0.4061(5)
O4 O 0.4318(7) 0.2887(6) 0.1555(5)
O5 O 0.4497(6) 0.3869(5) 0.3136(5)
O6 O 0.8224(7) 0.7629(6) 0.2703(6)
O7 O 0.3344(7) 0.5902(6) 0.3345(5)
O8 O 0.3419(7) 0.5185(6) 0.4696(5)
O9 O 0.7016(6) 0.0145(6) 0.1784(6)
O10 O 0.6450(7) -0.0491(6) 0.0259(6)
O11 O 0.4362(10) -0.0914(9) 0.1471(9)
N1 N 0.4288(7) 0.5796(6) 0.1712(6)
N2 N 0.6229(7) 0.6666(7) 0.2617(6)
N3 N 0.6175(7) 0.0517(7) 0.3442(6)
N4 N 0.5256(7) 0.2122(6) 0.2878(6)
N5 N 0.2743(11) -0.1963(8) 0.1482(8)
C1 C 0.3295(10) 0.5246(9) 0.1293(9)
H3 H 0.2840 0.4867 0.1654
C2 C 0.2926(10) 0.5208(10) 0.0365(9)
H4 H 0.2225 0.4822 0.0107
C3 C 0.3587(12) 0.5744(10) -0.0196(8)
H5 H 0.3341 0.5740 -0.0831
C4 C 0.4587(10) 0.6277(9) 0.0210(8)
H6 H 0.5056 0.6635 -0.0153
C5 C 0.4947(9) 0.6297(8) 0.1160(7)
C6 C 0.6073(11) 0.6846(9) 0.1636(7)
H7 H 0.6641 0.6560 0.1321
H8 H 0.6150 0.7622 0.1599
C7 C 0.8006(9) 0.5538(9) 0.2682(7)
C8 C 0.6563(10) -0.0383(9) 0.3659(8)
H9 H 0.6673 -0.0886 0.3170
C9 C 0.6808(11) -0.0607(10) 0.4564(9)
H10 H 0.7082 -0.1241 0.4683
C10 C 0.6637(11) 0.0134(10) 0.5288(9)
H11 H 0.6790 -0.0001 0.5906
C11 C 0.6240(11) 0.1053(10) 0.5098(9)
H12 H 0.6149 0.1572 0.5581
C12 C 0.5984(8) 0.1203(8) 0.4173(7)
C13 C 0.5488(9) 0.2173(8) 0.3899(7)
H13 H 0.4800 0.2194 0.4159
H14 H 0.6001 0.2836 0.4158
C14 C 0.3060(10) 0.2083(8) 0.2673(7)
C15 C 0.2901(10) 0.5544(9) 0.4003(9)
C16 C 0.1655(14) 0.5511(18) 0.3962(15)
H15 H 0.1295 0.5304 0.3317
H16 H 0.1360 0.4956 0.4321
C17 C 0.147(4) 0.656(4) 0.430(3)
H17 H 0.2023 0.7153 0.4227
H18 H 0.1394 0.6564 0.4951
H19 H 0.0763 0.6627 0.3951
C18 C 0.7153(10) -0.0298(9) 0.0999(10)
C19 C 0.8298(13) -0.0564(14) 0.0932(11)
H20 H 0.8728 0.0059 0.0732
H21 H 0.8643 -0.0621 0.1562
C20 C 0.8438(15) -0.1490(18) 0.0346(14)
H22 H 0.7795 -0.2047 0.0286
H23 H 0.9085 -0.1756 0.0621
H24 H 0.8545 -0.1300 -0.0262
C21 C 0.367(2) -0.1464(14) 0.180(3)
H25 H 0.3902 -0.1551 0.2422
C22 C 0.225(3) -0.201(2) 0.0562(18)
H26 H 0.1545 -0.2482 0.0468
H27 H 0.2727 -0.2288 0.0153
H28 H 0.2136 -0.1293 0.0425
C23 C 0.211(3) -0.240(2) 0.202(3)
H29 H 0.1375 -0.2803 0.1758
H30 H 0.2027 -0.1826 0.2489
H31 H 0.2543 -0.2891 0.2307
C24 C 0.7526(11) 0.4559(9) 0.2995(8)
H32 H 0.6949 0.4570 0.3353
C25 C 0.7915(11) 0.3620(9) 0.2759(9)
H33 H 0.7619 0.2991 0.2985
C26 C 0.8746(10) 0.3567(9) 0.2198(8)
C27 C 0.9179(10) 0.2605(10) 0.1983(8)
H34 H 0.8896 0.1973 0.2212
C28 C 0.9997(11) 0.2589(10) 0.1448(10)
H35 H 1.0295 0.1952 0.1337
C29 C 1.0399(11) 0.3504(12) 0.1062(10)
H36 H 1.0929 0.3464 0.0661
C30 C 1.0026(11) 0.4461(11) 0.1263(10)
H37 H 1.0309 0.5079 0.1014
C31 C 0.9216(10) 0.4522(9) 0.1839(8)
C32 C 0.8793(9) 0.5511(9) 0.2098(8)
H38 H 0.9060 0.6141 0.1860
C33 C 0.2686(12) 0.1085(9) 0.2084(8)
H39 H 0.3082 0.0884 0.1606
C34 C 0.1782(11) 0.0424(9) 0.2209(10)
H40 H 0.1557 -0.0233 0.1816
C35 C 0.1157(11) 0.0679(10) 0.2907(9)
C36 C 0.0220(13) -0.0003(13) 0.3094(12)
H41 H 0.0003 -0.0683 0.2735
C37 C -0.0363(15) 0.0268(16) 0.3742(15)
H42 H -0.0972 -0.0221 0.3841
C38 C -0.0095(12) 0.1237(18) 0.4286(12)
H43 H -0.0523 0.1427 0.4744
C39 C 0.0824(11) 0.1967(12) 0.4153(9)
H44 H 0.1005 0.2646 0.4519
C40 C 0.1467(10) 0.1701(10) 0.3487(8)
C41 C 0.2455(9) 0.2388(9) 0.3332(8)
H45 H 0.2678 0.3065 0.3696
Cu2A Cu 0.51119(11) 0.39792(10) 0.69266(9)
Cu3_2 Cu 0.5000 1.0000 1.0000
Cu4A Cu 0.41480(11) 0.90607(10) 0.78254(9)
S1A S 0.2475(3) 0.3223(2) 0.6944(2)
S2A S 0.5648(2) 0.7170(2) 0.74607(19)
O1A O 0.4560(6) 0.3808(5) 0.5633(5)
H1A H 0.3755 0.3680 0.5563
O2A O 0.4511(6) 0.8758(5) 0.9061(5)
O2A_2 O 0.4511(6) -0.1242(5) -0.0939(5)
H2A H 0.5124 0.8329 0.9065
H2A_2 H 0.5124 -0.1671 -0.0935
O3A O 0.2416(7) 0.3182(6) 0.5939(5)
O4A O 0.5682(7) 0.7113(6) 0.8445(5)
O5A O 0.5503(6) 0.6131(5) 0.6864(5)
O6A O 0.1776(7) 0.2371(6) 0.7297(6)
O7A O 0.6656(7) 0.4098(6) 0.6655(5)
O8A O 0.6581(7) 0.4815(6) 0.5304(5)
O9A O 0.2984(6) 0.9855(6) 0.8216(6)
O10A O 0.3550(7) 1.0491(6) 0.9741(6)
O10A_2 O 0.3550(7) 0.0491(6) -0.0259(6)
O11A O 0.5638(10) 0.0914(9) -0.1471(9)
N1A N 0.5712(7) 0.4204(6) 0.8288(6)
N2A N 0.3771(7) 0.3334(7) 0.7383(6)
N3A N 0.3825(7) 0.9483(7) 0.6558(6)
N4A N 0.4744(7) 0.7878(6) 0.7122(6)
N5A N 0.7257(11) 0.1963(8) -0.1482(8)
C1A C 0.6705(10) 0.4754(9) 0.8707(9)
H3A H 0.7160 0.5133 0.8346
C2A C 0.7074(10) 0.4792(10) 0.9635(9)
H4A H 0.7775 0.5178 0.9893
C3A C 0.6413(12) 0.4256(10) 1.0196(8)
H5A H 0.6659 0.4260 1.0831
C4A C 0.5413(10) 0.3723(9) 0.9790(8)
H6A H 0.4944 0.3365 1.0153
C5A C 0.5053(9) 0.3703(8) 0.8840(7)
C6A C 0.3927(11) 0.3154(9) 0.8364(7)
H7A H 0.3359 0.3440 0.8679
H8A H 0.3850 0.2378 0.8401
C7A C 0.1994(9) 0.4462(9) 0.7318(7)
C8A C 0.3437(10) 1.0383(9) 0.6341(8)
H9A H 0.3327 1.0886 0.6830
C9A C 0.3192(11) 1.0607(10) 0.5436(9)
H10A H 0.2918 1.1241 0.5317
C10A C 0.3363(11) 0.9866(10) 0.4712(9)
H11A H 0.3210 1.0001 0.4094
C11A C 0.3760(11) 0.8947(10) 0.4902(9)
H12A H 0.3851 0.8428 0.4419
C12A C 0.4016(8) 0.8797(8) 0.5827(7)
C13A C 0.4512(9) 0.7827(8) 0.6101(7)
H13A H 0.5200 0.7806 0.5841
H14A H 0.3999 0.7164 0.5842
C14A C 0.6940(10) 0.7917(8) 0.7327(7)
C15A C 0.7099(10) 0.4456(9) 0.5997(9)
C16A C 0.8345(14) 0.4489(18) 0.6038(15)
H15A H 0.8705 0.4696 0.6683
H16A H 0.8640 0.5044 0.5679
C17A C 0.853(4) 0.344(4) 0.570(3)
H17A H 0.7977 0.2847 0.5773
H18A H 0.8606 0.3436 0.5049
H19A H 0.9237 0.3373 0.6049
C18A C 0.2847(10) 1.0298(9) 0.9001(10)
C19A C 0.1702(13) 1.0564(14) 0.9068(11)
H20A H 0.1272 0.9941 0.9268
H21A H 0.1357 1.0621 0.8438
C20A C 0.1562(15) 1.1490(18) 0.9654(14)
H22A H 0.2205 1.2047 0.9714
H23A H 0.0915 1.1756 0.9379
H24A H 0.1455 1.1300 1.0262
C21A C 0.633(2) 0.1464(14) -0.180(3)
H25A H 0.6098 0.1551 -0.2422
C22A C 0.775(3) 0.201(2) -0.0562(18)
H26A H 0.8455 0.2482 -0.0468
H27A H 0.7273 0.2288 -0.0153
H28A H 0.7864 0.1293 -0.0425
C23A C 0.789(3) 0.240(2) -0.202(3)
H29A H 0.8625 0.2803 -0.1758
H30A H 0.7973 0.1826 -0.2489
H31A H 0.7457 0.2891 -0.2307
C24A C 0.2474(11) 0.5441(9) 0.7005(8)
H32A H 0.3051 0.5430 0.6647
C25A C 0.2085(11) 0.6380(9) 0.7241(9)
H33A H 0.2381 0.7009 0.7015
C26A C 0.1254(10) 0.6433(9) 0.7802(8)
C27A C 0.0821(10) 0.7395(10) 0.8017(8)
H34A H 0.1104 0.8027 0.7788
C28A C 0.0003(11) 0.7411(10) 0.8552(10)
H35A H -0.0295 0.8048 0.8663
C29A C -0.0399(11) 0.6496(12) 0.8938(10)
H36A H -0.0929 0.6536 0.9339
C30A C -0.0026(11) 0.5539(11) 0.8737(10)
H37A H -0.0309 0.4921 0.8986
C31A C 0.0784(10) 0.5478(9) 0.8161(8)
C32A C 0.1207(9) 0.4489(9) 0.7902(8)
H38A H 0.0940 0.3859 0.8140
C33A C 0.7314(12) 0.8915(9) 0.7916(8)
H39A H 0.6918 0.9116 0.8394
C34A C 0.8218(11) 0.9576(9) 0.7791(10)
H40A H 0.8443 1.0233 0.8184
C35A C 0.8843(11) 0.9321(10) 0.7093(9)
C36A C 0.9780(13) 1.0003(13) 0.6906(12)
H41A H 0.9997 1.0683 0.7265
C37A C 1.0363(15) 0.9732(16) 0.6258(15)
H42A H 1.0972 1.0221 0.6159
C38A C 1.0095(12) 0.8763(18) 0.5714(12)
H43A H 1.0523 0.8573 0.5256
C39A C 0.9176(11) 0.8033(12) 0.5847(9)
H44A H 0.8995 0.7354 0.5481
C40A C 0.8533(10) 0.8299(10) 0.6513(8)
C41A C 0.7545(9) 0.7612(9) 0.6668(8)
H45A H 0.7322 0.6935 0.6304
loop_
_geom_bond_atom_site_label_1
_geom_bond_atom_site_label_2
_geom_bond_site_symmetry_1
_geom_bond_site_symmetry_2
Cu1 O1 1_555 1_555
Cu2 O1 1_555 1_555
Cu3 O2 1_555 1_555
Cu4 O2 1_555 1_555
S1 O3 1_555 1_555
S2 O4 1_555 1_555
O1 H1 1_555 1_555
O2 H2 1_555 1_555
O5 Cu2 1_555 1_555
O6 S1 1_555 1_555
O7 Cu2 1_555 1_555
O8 Cu1 1_555 1_555
O9 Cu4 1_555 1_555
O10 Cu3 1_555 1_555
O11 Cu3 1_555 1_555
N1 Cu2 1_555 1_555
N2 Cu2 1_555 1_555
N3 Cu4 1_555 1_555
N4 Cu4 1_555 1_555
N5 C21 1_555 1_555
C1 N1 1_555 1_555
H3 C1 1_555 1_555
C2 C1 1_555 1_555
H4 C2 1_555 1_555
C3 C2 1_555 1_555
H5 C3 1_555 1_555
C4 C3 1_555 1_555
H6 C4 1_555 1_555
C5 N1 1_555 1_555
C6 N2 1_555 1_555
H7 C6 1_555 1_555
H8 C6 1_555 1_555
C7 S1 1_555 1_555
C8 N3 1_555 1_555
H9 C8 1_555 1_555
C9 C8 1_555 1_555
H10 C9 1_555 1_555
C10 C9 1_555 1_555
H11 C10 1_555 1_555
C11 C10 1_555 1_555
H12 C11 1_555 1_555
C12 N3 1_555 1_555
C13 N4 1_555 1_555
H13 C13 1_555 1_555
H14 C13 1_555 1_555
C14 S2 1_555 1_555
C15 O7 1_555 1_555
C16 C15 1_555 1_555
H15 C16 1_555 1_555
H16 C16 1_555 1_555
C17 C16 1_555 1_555
H17 C17 1_555 1_555
H18 C17 1_555 1_555
H19 C17 1_555 1_555
C18 O9 1_555 1_555
C19 C18 1_555 1_555
H20 C19 1_555 1_555
H21 C19 1_555 1_555
C20 C19 1_555 1_555
H22 C20 1_555 1_555
H23 C20 1_555 1_555
H24 C20 1_555 1_555
C21 O11 1_555 1_555
H25 C21 1_555 1_555
C22 N5 1_555 1_555
H26 C22 1_555 1_555
H27 C22 1_555 1_555
H28 C22 1_555 1_555
C23 N5 1_555 1_555
H29 C23 1_555 1_555
H30 C23 1_555 1_555
H31 C23 1_555 1_555
C24 C7 1_555 1_555
H32 C24 1_555 1_555
C25 C24 1_555 1_555
H33 C25 1_555 1_555
C26 C25 1_555 1_555
C27 C26 1_555 1_555
H34 C27 1_555 1_555
C28 C27 1_555 1_555
H35 C28 1_555 1_555
C29 C28 1_555 1_555
H36 C29 1_555 1_555
C30 C29 1_555 1_555
H37 C30 1_555 1_555
C31 C26 1_555 1_555
C32 C7 1_555 1_555
H38 C32 1_555 1_555
C33 C14 1_555 1_555
H39 C33 1_555 1_555
C34 C33 1_555 1_555
H40 C34 1_555 1_555
C35 C34 1_555 1_555
C36 C35 1_555 1_555
H41 C36 1_555 1_555
C37 C36 1_555 1_555
H42 C37 1_555 1_555
C38 C37 1_555 1_555
H43 C38 1_555 1_555
C39 C38 1_555 1_555
H44 C39 1_555 1_555
C40 C35 1_555 1_555
C41 C14 1_555 1_555
H45 C41 1_555 1_555
Cu2A O1A 1_555 1_555
Cu3_2 O2A 1_555 1_555
Cu4A O2A 1_555 1_555
S1A O3A 1_555 1_555
S2A O4A 1_555 1_555
O1A Cu1 1_555 1_555
H1A O1A 1_555 1_555
O2A H2A 1_555 1_555
O2A_2 Cu3 1_555 1_555
H2A_2 O2A_2 1_555 1_555
O5A Cu2A 1_555 1_555
O6A S1A 1_555 1_555
O7A Cu2A 1_555 1_555
O8A Cu1 1_555 1_555
O9A Cu4A 1_555 1_555
O10A Cu3_2 1_555 1_555
O10A_2 Cu3 1_555 1_555
O11A Cu3 1_555 1_555
N1A Cu2A 1_555 1_555
N2A Cu2A 1_555 1_555
N3A Cu4A 1_555 1_555
N4A Cu4A 1_555 1_555
N5A C21A 1_555 1_555
C1A N1A 1_555 1_555
H3A C1A 1_555 1_555
C2A C1A 1_555 1_555
H4A C2A 1_555 1_555
C3A C2A 1_555 1_555
H5A C3A 1_555 1_555
C4A C3A 1_555 1_555
H6A C4A 1_555 1_555
C5A N1A 1_555 1_555
C6A N2A 1_555 1_555
H7A C6A 1_555 1_555
H8A C6A 1_555 1_555
C7A S1A 1_555 1_555
C8A N3A 1_555 1_555
H9A C8A 1_555 1_555
C9A C8A 1_555 1_555
H10A C9A 1_555 1_555
C10A C9A 1_555 1_555
H11A C10A 1_555 1_555
C11A C10A 1_555 1_555
H12A C11A 1_555 1_555
C12A N3A 1_555 1_555
C13A N4A 1_555 1_555
H13A C13A 1_555 1_555
H14A C13A 1_555 1_555
C14A S2A 1_555 1_555
C15A O7A 1_555 1_555
C16A C15A 1_555 1_555
H15A C16A 1_555 1_555
H16A C16A 1_555 1_555
C17A C16A 1_555 1_555
H17A C17A 1_555 1_555
H18A C17A 1_555 1_555
H19A C17A 1_555 1_555
C18A O9A 1_555 1_555
C19A C18A 1_555 1_555
H20A C19A 1_555 1_555
H21A C19A 1_555 1_555
C20A C19A 1_555 1_555
H22A C20A 1_555 1_555
H23A C20A 1_555 1_555
H24A C20A 1_555 1_555
C21A O11A 1_555 1_555
H25A C21A 1_555 1_555
C22A N5A 1_555 1_555
H26A C22A 1_555 1_555
H27A C22A 1_555 1_555
H28A C22A 1_555 1_555
C23A N5A 1_555 1_555
H29A C23A 1_555 1_555
H30A C23A 1_555 1_555
H31A C23A 1_555 1_555
C24A C7A 1_555 1_555
H32A C24A 1_555 1_555
C25A C24A 1_555 1_555
H33A C25A 1_555 1_555
C26A C25A 1_555 1_555
C27A C26A 1_555 1_555
H34A C27A 1_555 1_555
C28A C27A 1_555 1_555
H35A C28A 1_555 1_555
C29A C28A 1_555 1_555
H36A C29A 1_555 1_555
C30A C29A 1_555 1_555
H37A C30A 1_555 1_555
C31A C26A 1_555 1_555
C32A C7A 1_555 1_555
H38A C32A 1_555 1_555
C33A C14A 1_555 1_555
H39A C33A 1_555 1_555
C34A C33A 1_555 1_555
H40A C34A 1_555 1_555
C35A C34A 1_555 1_555
C36A C35A 1_555 1_555
H41A C36A 1_555 1_555
C37A C36A 1_555 1_555
H42A C37A 1_555 1_555
C38A C37A 1_555 1_555
H43A C38A 1_555 1_555
C39A C38A 1_555 1_555
H44A C39A 1_555 1_555
C40A C35A 1_555 1_555
C41A C14A 1_555 1_555
H45A C41A 1_555 1_555
S1 N2 1_555 1_555
S2 O5 1_555 1_555
S2 N4 1_555 1_555
O8 C15 1_555 1_555
O10 C18 1_555 1_555
C4 C5 1_555 1_555
C5 C6 1_555 1_555
C11 C12 1_555 1_555
C12 C13 1_555 1_555
C30 C31 1_555 1_555
C31 C32 1_555 1_555
C39 C40 1_555 1_555
C40 C41 1_555 1_555
S1A N2A 1_555 1_555
S2A O5A 1_555 1_555
S2A N4A 1_555 1_555
O8A C15A 1_555 1_555
O10A C18A 1_555 1_555
C4A C5A 1_555 1_555
C5A C6A 1_555 1_555
C11A C12A 1_555 1_555
C12A C13A 1_555 1_555
C30A C31A 1_555 1_555
C31A C32A 1_555 1_555
C39A C40A 1_555 1_555
C40A C41A 1_555 1_555

#END
