
#######################################################################
#
#                 Cambridge Crystallographic Data Centre
#                                CCDC 
#
#######################################################################
#
# If this CIF has been generated from an entry in the Cambridge 
# Structural Database, then it will include bibliographic, chemical, 
# crystal, experimental, refinement or atomic coordinate data resulting 
# from the CCDC's data processing and validation procedures.
#
#######################################################################

data_DOSGEY
_symmetry_cell_setting           trigonal
_symmetry_space_group_name_H-M   'P 32'
_symmetry_Int_Tables_number      145
_space_group_name_Hall           'P 32'
loop_
_symmetry_equiv_pos_site_id
_symmetry_equiv_pos_as_xyz
1 x,y,z
2 -y,x-y,2/3+z
3 -x+y,-x,1/3+z
_cell_length_a                   12.5125(18)
_cell_length_b                   12.5125(18)
_cell_length_c                   29.518(8)
_cell_angle_alpha                90
_cell_angle_beta                 90
_cell_angle_gamma                120
_cell_volume                     4002.26
loop_
_atom_site_label
_atom_site_type_symbol
_atom_site_fract_x
_atom_site_fract_y
_atom_site_fract_z
P1 P 0.1241(2) 0.7712(2) 0.28823(7)
P2 P 0.0437(2) 0.9137(2) 0.50411(6)
Al1 Al 0.2908(2) 1.0200(2) 0.33802(8)
P3 P -0.2835(2) 0.6510(2) 0.44125(6)
Al2 Al -0.1094(2) 0.9130(2) 0.41762(7)
P4 P 0.4401(2) 1.1158(2) 0.25040(6)
P5 P -0.2384(2) 1.0052(2) 0.48360(6)
P6 P 0.0708(2) 1.0557(2) 0.33661(6)
Al3 Al 0.2505(2) 0.8743(2) 0.19724(7)
Al4 Al 0.3753(2) 1.2560(2) 0.17533(7)
F1 F 0.1654(4) 0.9539(4) 0.21872(13)
C1 C 0.2191(8) 0.8861(9) 0.4608(3)
H1 H 0.3051 0.9132 0.4569
H2 H 0.1846 0.8914 0.4324
H3 H 0.1767 0.8022 0.4713
O1 O 0.4502(4) 1.4085(4) 0.17290(15)
H4 H 0.5233 1.4339 0.1676
O2 O 0.3673(5) 1.1158(5) 0.29274(17)
O3 O 0.2155(5) 0.8691(5) 0.32214(17)
O4 O 0.0530(5) 1.0158(5) 0.28792(16)
O5 O -0.3505(5) 0.8815(5) 0.49421(17)
O6 O 0.4456(5) 1.2145(5) 0.21745(16)
O7 O -0.1722(5) 0.9964(5) 0.44094(16)
O8 O 0.0248(5) 0.9952(5) 0.53653(16)
C2 C 0.2679(8) 1.1031(8) 0.4781(2)
H5 H 0.3551 1.1348 0.4751
H6 H 0.2537 1.1526 0.4995
H7 H 0.2339 1.1056 0.4493
O9 O -0.0432(5) 0.9747(5) 0.36539(15)
O10 O 0.0166(5) 0.7900(5) 0.27669(17)
O11 O 0.3904(5) 0.9896(5) 0.23036(16)
O12 O 0.1933(6) 0.7682(5) 0.24687(17)
C3 C -0.2896(9) 1.1098(8) 0.4674(2)
O13 O -0.1495(5) 1.0594(5) 0.52310(16)
C4 C -0.4069(8) 0.5274(8) 0.4104(2)
O14 O 0.1846(5) 1.0597(5) 0.35801(16)
O15 O -0.3321(5) 0.6841(5) 0.48174(15)
O16 O -0.0161(5) 0.7793(5) 0.51994(16)
C5 C 0.2652(10) 0.9632(9) 0.5397(3)
H8 H 0.2264 0.8797 0.5505
H9 H 0.2557 1.0141 0.5618
H10 H 0.3514 0.9931 0.5347
C6 C 0.2047(8) 0.9673(8) 0.4953(2)
Al5 Al 0.0058(2) 0.9046(2) 0.23866(7)
O17 O 0.3928(4) 1.0469(5) 0.37855(14)
H11 H 0.4277 1.1201 0.3855
O18 O -0.2186(5) 0.7585(5) 0.40822(17)
O19 O -0.1929(5) 0.6072(5) 0.45578(16)
O20 O -0.0057(5) 0.9150(5) 0.45641(17)
N1 N -0.1715(6) 0.8319(6) 0.2573(2)
N2 N 0.3442(7) 0.7914(7) 0.17757(19)
C7 C 0.5963(8) 1.1697(8) 0.2685(3)
C8 C -0.3719(10) 1.1171(8) 0.5037(3)
H12 H -0.3253 1.1498 0.5311
H13 H -0.4403 1.0360 0.5095
H14 H -0.4021 1.1700 0.4936
C9 C -0.3693(9) 1.0601(9) 0.4228(3)
H15 H -0.4341 0.9765 0.4274
H16 H -0.3176 1.0629 0.3983
H17 H -0.4046 1.1107 0.4156
N3 N -0.3674(6) 0.6881(7) 0.2684(2)
C10 C -0.3558(8) 0.7965(9) 0.2837(3)
H18 H -0.4176 0.8081 0.2961
N4 N 0.4899(8) 0.7482(8) 0.1667(3)
C11 C 0.0980(8) 1.2104(8) 0.3405(2)
C12 C -0.2574(8) 0.7124(8) 0.2531(2)
H19 H -0.2418 0.6531 0.2408
C13 C 0.4620(9) 0.8286(9) 0.1838(3)
H20 H 0.5178 0.9015 0.1983
C14 C -0.2355(8) 0.8841(8) 0.2770(3)
H21 H -0.2011 0.9670 0.2845
C15 C 0.1766(9) 0.6082(9) 0.3294(3)
H22 H 0.2353 0.6760 0.3474
H23 H 0.2154 0.6039 0.3019
H24 H 0.1472 0.5327 0.3460
C16 C -0.1819(8) 1.2379(9) 0.4579(3)
H25 H -0.2123 1.2936 0.4523
H26 H -0.1379 1.2350 0.4317
H27 H -0.1276 1.2660 0.4835
C17 C 0.0674(9) 0.6272(8) 0.3177(3)
C18 C 0.1340(8) 1.2575(8) 0.3892(2)
H28 H 0.1404 1.3370 0.3920
H29 H 0.2120 1.2645 0.3965
H30 H 0.0721 1.2006 0.4098
C19 C 0.6815(8) 1.1986(9) 0.2276(3)
H31 H 0.6892 1.2695 0.2120
H32 H 0.6474 1.1291 0.2075
H33 H 0.7614 1.2154 0.2377
C20 C 0.2063(8) 1.2943(8) 0.3090(3)
H34 H 0.2185 1.3764 0.3096
H35 H 0.1878 1.2628 0.2787
H36 H 0.2800 1.2960 0.3192
C21 C -0.0202(8) 1.2118(7) 0.3279(3)
H37 H -0.0874 1.1527 0.3462
H38 H -0.0387 1.1908 0.2965
H39 H -0.0086 1.2926 0.3332
C22 C 0.0026(9) 0.6329(9) 0.3618(3)
H40 H -0.0282 0.5566 0.3781
H41 H -0.0647 0.6457 0.3542
H42 H 0.0608 0.6998 0.3804
C23 C -0.0237(9) 0.5213(9) 0.2872(3)
H43 H 0.0187 0.5170 0.2608
H44 H -0.0890 0.5359 0.2782
H45 H -0.0576 0.4449 0.3035
C24 C 0.2994(11) 0.6830(10) 0.1543(3)
H46 H 0.2178 0.6345 0.1451
C25 C 0.5984(9) 1.0658(10) 0.2964(3)
H47 H 0.6819 1.0908 0.3047
H48 H 0.5650 0.9919 0.2785
H49 H 0.5497 1.0503 0.3233
C26 C -0.4813(8) 0.5694(8) 0.2664(3)
H50 H -0.4661 0.5103 0.2513
H51 H -0.5426 0.5783 0.2499
H52 H -0.5103 0.5414 0.2966
C27 C -0.5009(9) 0.5675(8) 0.3965(3)
H53 H -0.5673 0.5020 0.3799
H54 H -0.4608 0.6398 0.3778
H55 H -0.5330 0.5855 0.4232
C28 C -0.3545(9) 0.5017(9) 0.3670(3)
H56 H -0.2930 0.4806 0.3750
H57 H -0.3181 0.5740 0.3482
H58 H -0.4201 0.4344 0.3507
C29 C 0.6410(9) 1.2836(10) 0.2978(3)
H59 H 0.5817 1.2677 0.3213
H60 H 0.6507 1.3514 0.2795
H61 H 0.7188 1.3040 0.3112
C30 C 0.3894(10) 0.6557(11) 0.1465(3)
H62 H 0.3836 0.5885 0.1308
C31 C -0.4716(9) 0.4098(10) 0.4392(3)
H63 H -0.5364 0.3450 0.4218
H64 H -0.5058 0.4254 0.4658
H65 H -0.4129 0.3855 0.4479
C32 C 0.6087(11) 0.7616(14) 0.1649(3)
H66 H 0.6478 0.7999 0.1369
H67 H 0.6019 0.6818 0.1670
H68 H 0.6573 0.8121 0.1898
Al3B Al -0.3762(3) 0.7495(2) 0.53057(7)
Al4B Al -0.1193(3) 0.6247(2) 0.50866(7)
O5A O 0.1185(5) 0.7680(7) 0.16088(17)
O8A O 0.0048(5) 1.0296(7) 0.20320(16)
O13A O -0.0594(5) 0.7911(7) 0.18977(16)
O15A O 0.3159(5) 0.9838(7) 0.14841(15)
O16A O 0.2207(5) 1.2046(7) 0.18661(16)
Al5B Al -0.1012(3) 0.9942(2) 0.57199(7)
O19A O 0.3928(5) 1.1999(7) 0.12245(16)
loop_
_geom_bond_atom_site_label_1
_geom_bond_atom_site_label_2
_geom_bond_site_symmetry_1
_geom_bond_site_symmetry_2
P1 O3 1_555 1_555
P2 O8 1_555 1_555
Al1 O2 1_555 1_555
P3 C4 1_555 1_555
Al2 O7 1_555 1_555
P4 O2 1_555 1_555
P5 O5 1_555 1_555
P6 O4 1_555 1_555
Al3 F1 1_555 1_555
Al4 O1 1_555 1_555
F1 Al5 1_555 1_555
C1 H1 1_555 1_555
H2 C1 1_555 1_555
H3 C1 1_555 1_555
O1 H4 1_555 1_555
O3 Al1 1_555 1_555
O4 Al5 1_555 1_555
O5 Al3B 1_555 1_555
O6 P4 1_555 1_555
O7 P5 1_555 1_555
O8 Al5B 1_555 1_555
C2 H5 1_555 1_555
H6 C2 1_555 1_555
H7 C2 1_555 1_555
O9 Al2 1_555 1_555
O10 P1 1_555 1_555
O11 P4 1_555 1_555
O12 P1 1_555 1_555
C3 P5 1_555 1_555
O13 P5 1_555 1_555
C4 C27 1_555 1_555
O14 Al1 1_555 1_555
O15 P3 1_555 1_555
O16 P2 1_555 1_555
C5 H8 1_555 1_555
H9 C5 1_555 1_555
H10 C5 1_555 1_555
C6 P2 1_555 1_555
Al5 O10 1_555 1_555
O17 Al1 1_555 1_555
H11 O17 1_555 1_555
O18 P3 1_555 1_555
O19 P3 1_555 1_555
O20 P2 1_555 1_555
N1 Al5 1_555 1_555
N2 Al3 1_555 1_555
C7 P4 1_555 1_555
C8 C3 1_555 1_555
H12 C8 1_555 1_555
H13 C8 1_555 1_555
H14 C8 1_555 1_555
C9 C3 1_555 1_555
H15 C9 1_555 1_555
H16 C9 1_555 1_555
H17 C9 1_555 1_555
N3 C10 1_555 1_555
C10 H18 1_555 1_555
N4 C13 1_555 1_555
C11 P6 1_555 1_555
C12 N1 1_555 1_555
H19 C12 1_555 1_555
C13 N2 1_555 1_555
H20 C13 1_555 1_555
C14 N1 1_555 1_555
H21 C14 1_555 1_555
C15 H22 1_555 1_555
H23 C15 1_555 1_555
H24 C15 1_555 1_555
C16 C3 1_555 1_555
H25 C16 1_555 1_555
H26 C16 1_555 1_555
H27 C16 1_555 1_555
C17 P1 1_555 1_555
C18 C11 1_555 1_555
H28 C18 1_555 1_555
H29 C18 1_555 1_555
H30 C18 1_555 1_555
C19 C7 1_555 1_555
H31 C19 1_555 1_555
H32 C19 1_555 1_555
H33 C19 1_555 1_555
C20 C11 1_555 1_555
H34 C20 1_555 1_555
H35 C20 1_555 1_555
H36 C20 1_555 1_555
C21 C11 1_555 1_555
H37 C21 1_555 1_555
H38 C21 1_555 1_555
H39 C21 1_555 1_555
C22 C17 1_555 1_555
H40 C22 1_555 1_555
H41 C22 1_555 1_555
H42 C22 1_555 1_555
C23 C17 1_555 1_555
H43 C23 1_555 1_555
H44 C23 1_555 1_555
H45 C23 1_555 1_555
C24 N2 1_555 1_555
H46 C24 1_555 1_555
C25 C7 1_555 1_555
H47 C25 1_555 1_555
H48 C25 1_555 1_555
H49 C25 1_555 1_555
C26 N3 1_555 1_555
H50 C26 1_555 1_555
H51 C26 1_555 1_555
H52 C26 1_555 1_555
C27 H53 1_555 1_555
H54 C27 1_555 1_555
H55 C27 1_555 1_555
C28 C4 1_555 1_555
H56 C28 1_555 1_555
H57 C28 1_555 1_555
H58 C28 1_555 1_555
C29 C7 1_555 1_555
H59 C29 1_555 1_555
H60 C29 1_555 1_555
H61 C29 1_555 1_555
C30 N4 1_555 1_555
H62 C30 1_555 1_555
C31 C4 1_555 1_555
H63 C31 1_555 1_555
H64 C31 1_555 1_555
H65 C31 1_555 1_555
C32 N4 1_555 1_555
H66 C32 1_555 1_555
H67 C32 1_555 1_555
H68 C32 1_555 1_555
Al3B O15 1_555 1_555
Al4B O16 1_555 1_555
O5A Al3 1_555 1_555
O8A Al5 1_555 1_555
O13A Al5 1_555 1_555
O15A Al3 1_555 1_555
O16A Al4 1_555 1_555
Al5B O13 1_555 1_555
O19A Al4 1_555 1_555
Al2 O18 1_555 1_555
Al2 O20 1_555 1_555
P6 O9 1_555 1_555
P6 O14 1_555 1_555
Al3 O11 1_555 1_555
Al3 O12 1_555 1_555
Al4 O6 1_555 1_555
C1 C6 1_555 1_555
C2 C6 1_555 1_555
C5 C6 1_555 1_555
O19 Al4B 1_555 1_555
N3 C12 1_555 1_555
C10 C14 1_555 1_555
C15 C17 1_555 1_555
C24 C30 1_555 1_555

#END
