
#######################################################################
#
#                 Cambridge Crystallographic Data Centre
#                                CCDC 
#
#######################################################################
#
# If this CIF has been generated from an entry in the Cambridge 
# Structural Database, then it will include bibliographic, chemical, 
# crystal, experimental, refinement or atomic coordinate data resulting 
# from the CCDC's data processing and validation procedures.
#
#######################################################################

data_DOSHID
_symmetry_cell_setting           monoclinic
_symmetry_space_group_name_H-M   'C 2/c'
_symmetry_Int_Tables_number      15
_space_group_name_Hall           '-C 2yn'
loop_
_symmetry_equiv_pos_site_id
_symmetry_equiv_pos_as_xyz
1 x,y,z
2 -x,y,1/2-z
3 1/2+x,1/2+y,z
4 1/2-x,1/2+y,1/2-z
5 -x,-y,-z
6 x,-y,1/2+z
7 1/2-x,1/2-y,-z
8 1/2+x,1/2-y,1/2+z
_cell_length_a                   8.8130(10)
_cell_length_b                   16.3419(18)
_cell_length_c                   17.301(2)
_cell_angle_alpha                90
_cell_angle_beta                 103.185(2)
_cell_angle_gamma                90
_cell_volume                     2426.03
loop_
_atom_site_label
_atom_site_type_symbol
_atom_site_fract_x
_atom_site_fract_y
_atom_site_fract_z
Zn1 Zn 0.83593(4) 0.06787(2) 0.27519(2)
O1 O 0.9152(3) -0.04357(15) 0.28842(18)
O2 O 1.1267(3) -0.46825(15) 0.26939(17)
O3 O 0.9488(3) 0.13764(16) 0.36006(16)
O4 O 1.1764(3) 0.12223(17) 0.32597(16)
C1 C 1.0000 -0.0788(3) 0.2500
C2 C 1.0000 -0.1711(3) 0.2500
C3 C 1.0506(4) -0.2121(2) 0.3222(2)
C4 C 1.0462(4) -0.2978(2) 0.3225(2)
C5 C 1.0000 -0.3383(3) 0.2500
C6 C 1.0000 -0.4300(3) 0.2500
C7 C 1.1144(5) -0.1667(3) 0.3986(2)
H1 H 1.1430 -0.2051 0.4414
H2 H 1.0364 -0.1301 0.4092
H3 H 1.2046 -0.1359 0.3938
C8 C 1.0861(5) -0.3441(2) 0.4001(2)
H4 H 1.1156 -0.3061 0.4432
H5 H 1.1710 -0.3808 0.4000
H6 H 0.9968 -0.3748 0.4065
C9 C 1.0926(4) 0.1500(2) 0.3696(2)
C10 C 1.1728(4) 0.2025(2) 0.4383(2)
C11 C 1.2463(4) 0.1644(2) 0.5089(2)
C12 C 1.2414(6) 0.0724(2) 0.5169(3)
H7 H 1.2980 0.0567 0.5690
H8 H 1.2881 0.0474 0.4778
H9 H 1.1351 0.0548 0.5090
C13 C 1.1751(4) 0.2873(2) 0.4278(2)
C14 C 1.0952(7) 0.3251(3) 0.3492(3)
H10 H 1.0477 0.2828 0.3133
H11 H 1.1705 0.3538 0.3272
H12 H 1.0165 0.3627 0.3574
Zn1A Zn 1.16407(4) 0.06787(2) 0.22481(2)
Zn1B Zn 1.33593(4) -0.43213(2) 0.27519(2)
Zn1C Zn 0.66407(4) -0.43213(2) 0.22481(2)
Zn1F Zn 1.66407(4) 0.43213(2) 0.72481(2)
Zn1G Zn 1.33593(4) 0.43213(2) 0.77519(2)
O1A O 1.0848(3) -0.04357(15) 0.21158(18)
O2A O 0.8733(3) -0.46825(15) 0.23061(17)
O2B O 0.6267(3) 0.03175(15) 0.26939(17)
O2C O 1.3733(3) 0.03175(15) 0.23061(17)
O3F O 1.5512(3) 0.36236(16) 0.63994(16)
O3A O 1.0512(3) 0.13764(16) 0.13994(16)
O4F O 1.3236(3) 0.37777(17) 0.67403(16)
O4A O 0.8236(3) 0.12223(17) 0.17403(16)
C3A C 0.9494(4) -0.2121(2) 0.1778(2)
C4A C 0.9538(4) -0.2978(2) 0.1775(2)
C7A C 0.8856(5) -0.1667(3) 0.1014(2)
H1A H 0.8570 -0.2051 0.0586
H2A H 0.9636 -0.1301 0.0908
H3A H 0.7954 -0.1359 0.1062
C8A C 0.9139(5) -0.3441(2) 0.0999(2)
H4A H 0.8844 -0.3061 0.0568
H5A H 0.8290 -0.3808 0.1000
H6A H 1.0032 -0.3748 0.0935
C9F C 1.4074(4) 0.3500(2) 0.6304(2)
C10F C 1.3272(4) 0.2975(2) 0.5617(2)
C11F C 1.2537(4) 0.3356(2) 0.4911(2)
C12F C 1.2586(6) 0.4276(2) 0.4831(3)
H7F H 1.2020 0.4433 0.4310
H8F H 1.2119 0.4526 0.5222
H9F H 1.3649 0.4452 0.4910
C13F C 1.3249(4) 0.2127(2) 0.5722(2)
C14F C 1.4048(7) 0.1749(3) 0.6508(3)
H10F H 1.4523 0.2172 0.6867
H11F H 1.3295 0.1462 0.6728
H12F H 1.4835 0.1373 0.6426
loop_
_geom_bond_atom_site_label_1
_geom_bond_atom_site_label_2
_geom_bond_site_symmetry_1
_geom_bond_site_symmetry_2
Zn1 O1 1_555 1_555
O1 C1 1_555 1_555
O2 C6 1_555 1_555
O3 Zn1 1_555 1_555
O4 C9 1_555 1_555
C1 C2 1_555 1_555
C2 C3 1_555 1_555
C3 C4 1_555 1_555
C4 C5 1_555 1_555
C5 C6 1_555 1_555
C6 O2A 1_555 1_555
C7 C3 1_555 1_555
H1 C7 1_555 1_555
H2 C7 1_555 1_555
H3 C7 1_555 1_555
C8 C4 1_555 1_555
H4 C8 1_555 1_555
H5 C8 1_555 1_555
H6 C8 1_555 1_555
C9 O3 1_555 1_555
C10 C9 1_555 1_555
C11 C10 1_555 1_555
C12 C11 1_555 1_555
H7 C12 1_555 1_555
H8 C12 1_555 1_555
H9 C12 1_555 1_555
C13 C10 1_555 1_555
C14 C13 1_555 1_555
H10 C14 1_555 1_555
H11 C14 1_555 1_555
H12 C14 1_555 1_555
Zn1A O4 1_555 1_555
Zn1B O2 1_555 1_555
Zn1C O2A 1_555 1_555
Zn1F O3F 1_555 1_555
Zn1G O4F 1_555 1_555
O1A C1 1_555 1_555
O2B Zn1 1_555 1_555
O2C Zn1A 1_555 1_555
O3F C9F 1_555 1_555
O3A Zn1A 1_555 1_555
O4F C9F 1_555 1_555
O4A Zn1 1_555 1_555
C3A C2 1_555 1_555
C4A C5 1_555 1_555
C7A C3A 1_555 1_555
H1A C7A 1_555 1_555
H2A C7A 1_555 1_555
H3A C7A 1_555 1_555
C8A C4A 1_555 1_555
H4A C8A 1_555 1_555
H5A C8A 1_555 1_555
H6A C8A 1_555 1_555
C9F C10F 1_555 1_555
C10F C11F 1_555 1_555
C11F C13 1_555 1_555
C12F C11F 1_555 1_555
H7F C12F 1_555 1_555
H8F C12F 1_555 1_555
H9F C12F 1_555 1_555
C13F C11 1_555 1_555
C14F C13F 1_555 1_555
H10F C14F 1_555 1_555
H11F C14F 1_555 1_555
H12F C14F 1_555 1_555
Zn1A O1A 1_555 1_555
C3A C4A 1_555 1_555
C10F C13F 1_555 1_555

#END
