
#######################################################################
#
#                 Cambridge Crystallographic Data Centre
#                                CCDC 
#
#######################################################################
#
# If this CIF has been generated from an entry in the Cambridge 
# Structural Database, then it will include bibliographic, chemical, 
# crystal, experimental, refinement or atomic coordinate data resulting 
# from the CCDC's data processing and validation procedures.
#
#######################################################################

data_DOSRUZ
_symmetry_cell_setting           monoclinic
_symmetry_space_group_name_H-M   'C 2/c'
_symmetry_Int_Tables_number      15
_space_group_name_Hall           '-C 2yn'
loop_
_symmetry_equiv_pos_site_id
_symmetry_equiv_pos_as_xyz
1 x,y,z
2 -x,y,1/2-z
3 1/2+x,1/2+y,z
4 1/2-x,1/2+y,1/2-z
5 -x,-y,-z
6 x,-y,1/2+z
7 1/2-x,1/2-y,-z
8 1/2+x,1/2-y,1/2+z
_cell_length_a                   18.203(3)
_cell_length_b                   28.542(4)
_cell_length_c                   23.783(3)
_cell_angle_alpha                90
_cell_angle_beta                 104.008(7)
_cell_angle_gamma                90
_cell_volume                     11989
loop_
_atom_site_label
_atom_site_type_symbol
_atom_site_fract_x
_atom_site_fract_y
_atom_site_fract_z
Ag1 Ag 0.660243(12) 0.075062(8) 0.580623(10)
Ag2 Ag 1.0000 -0.042205(12) 0.7500
P1 P 0.67262(4) 0.12251(3) 0.66878(3)
P2 P 0.99866(5) -0.08231(3) 0.65885(4)
P3 P 0.64513(4) 0.11110(3) 0.48422(3)
N1 N 0.89908(14) 0.01005(9) 0.74640(11)
N2 N 0.76920(15) 0.02859(9) 0.58693(11)
N3 N 0.43466(15) -0.01955(9) 0.41973(11)
C1 C 0.70085(17) 0.09288(12) 0.73997(14)
H1 H 0.7111 0.1166 0.7713
H2 H 0.6589 0.0727 0.7455
C2 C 0.77017(17) 0.06374(11) 0.74349(13)
C3 C 0.84174(18) 0.08173(12) 0.76563(14)
H3 H 0.8481 0.1129 0.7800
C4 C 0.90379(18) 0.05376(11) 0.76659(14)
H4 H 0.9527 0.0664 0.7826
C5 C 0.82940(18) -0.00713(12) 0.72547(14)
H5 H 0.8245 -0.0384 0.7113
C6 C 0.76496(18) 0.01810(11) 0.72343(13)
H6 H 0.7167 0.0043 0.7083
C7 C 0.58297(18) 0.14864(12) 0.67284(13)
C8 C 0.5711(2) 0.19626(13) 0.67499(15)
H7 H 0.6117 0.2174 0.6762
C9 C 0.5000(2) 0.21343(15) 0.67547(17)
H8 H 0.4919 0.2462 0.6773
C10 C 0.4409(2) 0.18261(16) 0.67331(16)
H9 H 0.3921 0.1943 0.6736
C11 C 0.45235(19) 0.13562(15) 0.67079(15)
H10 H 0.4114 0.1147 0.6693
C12 C 0.52267(19) 0.11820(13) 0.67037(14)
H11 H 0.5300 0.0854 0.6684
C13 C 0.73830(17) 0.17083(11) 0.67484(14)
C14 C 0.76550(19) 0.18238(12) 0.62695(15)
H12 H 0.7494 0.1649 0.5922
C15 C 0.8156(2) 0.21891(13) 0.62921(16)
H13 H 0.8333 0.2269 0.5960
C16 C 0.8399(2) 0.24382(14) 0.67985(17)
H14 H 0.8744 0.2691 0.6816
C17 C 0.8145(2) 0.23232(13) 0.72749(17)
H15 H 0.8323 0.2493 0.7625
C18 C 0.7635(2) 0.19650(12) 0.72569(15)
H16 H 0.7455 0.1893 0.7590
C19 C 0.97428(19) -0.04687(14) 0.59181(15)
H17 H 1.0158 -0.0246 0.5914
H18 H 0.9681 -0.0676 0.5576
C20 C 0.90295(19) -0.02064(13) 0.58869(14)
C21 C 0.83213(19) -0.04089(12) 0.56858(14)
H19 H 0.8281 -0.0723 0.5550
C22 C 0.76823(19) -0.01567(12) 0.56831(14)
H20 H 0.7205 -0.0304 0.5541
C23 C 0.83732(18) 0.04810(12) 0.60662(14)
H21 H 0.8399 0.0794 0.6206
C24 C 0.90361(19) 0.02499(12) 0.60760(15)
H22 H 0.9506 0.0406 0.6215
C25 C 1.09238(18) -0.10471(13) 0.65979(14)
C26 C 1.1505(2) -0.07292(13) 0.66173(14)
H23 H 1.1398 -0.0403 0.6579
C27 C 1.2242(2) -0.08882(16) 0.66935(16)
H24 H 1.2641 -0.0671 0.6704
C28 C 1.2399(2) -0.13590(16) 0.67541(16)
H25 H 1.2907 -0.1466 0.6812
C29 C 1.1829(2) -0.16739(15) 0.67309(18)
H26 H 1.1939 -0.2000 0.6764
C30 C 1.1092(2) -0.15202(14) 0.66592(16)
H27 H 1.0699 -0.1740 0.6652
C31 C 0.93765(19) -0.13280(12) 0.64183(15)
C32 C 0.9231(2) -0.15536(14) 0.58811(16)
H28 H 0.9464 -0.1443 0.5589
C33 C 0.8757(2) -0.19315(15) 0.57722(19)
H29 H 0.8656 -0.2079 0.5404
C34 C 0.8423(2) -0.20993(15) 0.6195(2)
H30 H 0.8095 -0.2362 0.6119
C35 C 0.8571(2) -0.18835(13) 0.67234(19)
H31 H 0.8348 -0.2001 0.7017
C36 C 0.90340(19) -0.15005(13) 0.68347(16)
H32 H 0.9122 -0.1351 0.7202
C37 C 0.61761(18) 0.07469(11) 0.41818(13)
H33 H 0.6029 0.0954 0.3839
H34 H 0.6619 0.0560 0.4141
C38 C 0.55383(17) 0.04246(11) 0.41919(13)
C39 C 0.56626(17) -0.00226(11) 0.44232(13)
H35 H 0.6166 -0.0126 0.4586
C40 C 0.50689(17) -0.03171(11) 0.44201(13)
H36 H 0.5173 -0.0621 0.4583
C41 C 0.42205(18) 0.02349(12) 0.39748(14)
H37 H 0.3712 0.0328 0.3813
C42 C 0.47917(18) 0.05502(11) 0.39678(14)
H38 H 0.4672 0.0854 0.3809
C43 C 0.73551(17) 0.13428(12) 0.47691(13)
C44 C 0.79389(18) 0.10290(12) 0.47991(14)
H39 H 0.7848 0.0703 0.4825
C45 C 0.86559(19) 0.11840(14) 0.47916(15)
H40 H 0.9054 0.0965 0.4811
C46 C 0.8791(2) 0.16542(14) 0.47559(17)
H41 H 0.9284 0.1761 0.4753
C47 C 0.8213(2) 0.19704(14) 0.47243(16)
H42 H 0.8309 0.2296 0.4698
C48 C 0.7493(2) 0.18186(12) 0.47303(15)
H43 H 0.7096 0.2039 0.4708
C49 C 0.58205(17) 0.16142(11) 0.47136(13)
C50 C 0.55707(17) 0.17876(12) 0.51733(15)
H44 H 0.5705 0.1632 0.5537
C51 C 0.51268(19) 0.21863(13) 0.51138(17)
H45 H 0.4962 0.2306 0.5436
C52 C 0.49273(19) 0.24071(12) 0.45916(16)
H46 H 0.4621 0.2680 0.4549
C53 C 0.5164(2) 0.22384(13) 0.41277(16)
H47 H 0.5020 0.2394 0.3765
C54 C 0.5613(2) 0.18426(12) 0.41835(15)
H48 H 0.5778 0.1727 0.3860
Ag1A Ag 1.339757(12) 0.075062(8) 0.919377(10)
Ag1D Ag 0.339757(12) -0.075062(8) 0.419377(10)
P1A P 1.32738(4) 0.12251(3) 0.83122(3)
P2A P 1.00134(5) -0.08231(3) 0.84115(4)
P3D P 0.35487(4) -0.11110(3) 0.51578(3)
P3A P 1.35487(4) 0.11110(3) 1.01578(3)
N1A N 1.10092(14) 0.01005(9) 0.75360(11)
N2A N 1.23080(15) 0.02859(9) 0.91307(11)
N3D N 0.56534(15) 0.01955(9) 0.58027(11)
N3E N 1.43466(15) 0.01955(9) 0.91973(11)
C1A C 1.29915(17) 0.09288(12) 0.76003(14)
H1A H 1.2889 0.1166 0.7287
H2A H 1.3411 0.0727 0.7545
C2A C 1.22983(17) 0.06374(11) 0.75651(13)
C3A C 1.15826(18) 0.08173(12) 0.73437(14)
H3A H 1.1519 0.1129 0.7200
C4A C 1.09621(18) 0.05376(11) 0.73341(14)
H4A H 1.0473 0.0664 0.7174
C5A C 1.17060(18) -0.00713(12) 0.77453(14)
H5A H 1.1755 -0.0384 0.7887
C6A C 1.23504(18) 0.01810(11) 0.77657(13)
H6A H 1.2833 0.0043 0.7917
C7A C 1.41703(18) 0.14864(12) 0.82716(13)
C8A C 1.4289(2) 0.19626(13) 0.82501(15)
H7A H 1.3883 0.2174 0.8238
C9A C 1.5000(2) 0.21343(15) 0.82453(17)
H8A H 1.5081 0.2462 0.8227
C10A C 1.5591(2) 0.18261(16) 0.82669(16)
H9A H 1.6079 0.1943 0.8264
C11A C 1.54765(19) 0.13562(15) 0.82921(15)
H10A H 1.5886 0.1147 0.8307
C12A C 1.47733(19) 0.11820(13) 0.82963(14)
H11A H 1.4700 0.0854 0.8316
C13A C 1.26170(17) 0.17083(11) 0.82516(14)
C14A C 1.23450(19) 0.18238(12) 0.87305(15)
H12A H 1.2506 0.1649 0.9078
C15A C 1.1844(2) 0.21891(13) 0.87079(16)
H13A H 1.1667 0.2269 0.9040
C16A C 1.1601(2) 0.24382(14) 0.82015(17)
H14A H 1.1256 0.2691 0.8184
C17A C 1.1855(2) 0.23232(13) 0.77251(17)
H15A H 1.1677 0.2493 0.7375
C18A C 1.2365(2) 0.19650(12) 0.77431(15)
H16A H 1.2545 0.1893 0.7410
C19A C 1.02572(19) -0.04687(14) 0.90819(15)
H17A H 0.9842 -0.0246 0.9086
H18A H 1.0319 -0.0676 0.9424
C20A C 1.09705(19) -0.02064(13) 0.91131(14)
C21A C 1.16787(19) -0.04089(12) 0.93142(14)
H19A H 1.1719 -0.0723 0.9450
C22A C 1.23177(19) -0.01567(12) 0.93169(14)
H20A H 1.2795 -0.0304 0.9459
C23A C 1.16268(18) 0.04810(12) 0.89338(14)
H21A H 1.1601 0.0794 0.8794
C24A C 1.09639(19) 0.02499(12) 0.89240(15)
H22A H 1.0494 0.0406 0.8785
C25A C 0.90762(18) -0.10471(13) 0.84021(14)
C26A C 0.8495(2) -0.07292(13) 0.83827(14)
H23A H 0.8602 -0.0403 0.8421
C27A C 0.7758(2) -0.08882(16) 0.83065(16)
H24A H 0.7359 -0.0671 0.8296
C28A C 0.7601(2) -0.13590(16) 0.82459(16)
H25A H 0.7093 -0.1466 0.8188
C29A C 0.8171(2) -0.16739(15) 0.82691(18)
H26A H 0.8061 -0.2000 0.8236
C30A C 0.8908(2) -0.15202(14) 0.83408(16)
H27A H 0.9301 -0.1740 0.8348
C31A C 1.06235(19) -0.13280(12) 0.85817(15)
C32A C 1.0769(2) -0.15536(14) 0.91189(16)
H28A H 1.0536 -0.1443 0.9411
C33A C 1.1243(2) -0.19315(15) 0.92278(19)
H29A H 1.1344 -0.2079 0.9596
C34A C 1.1577(2) -0.20993(15) 0.8805(2)
H30A H 1.1905 -0.2362 0.8881
C35A C 1.1429(2) -0.18835(13) 0.82766(19)
H31A H 1.1652 -0.2001 0.7983
C36A C 1.09660(19) -0.15005(13) 0.81653(16)
H32A H 1.0878 -0.1351 0.7798
C37D C 0.38239(18) -0.07469(11) 0.58182(13)
H33D H 0.3971 -0.0954 0.6161
H34D H 0.3381 -0.0560 0.5859
C38D C 0.44617(17) -0.04246(11) 0.58081(13)
C39D C 0.43374(17) 0.00226(11) 0.55768(13)
H35D H 0.3834 0.0126 0.5414
C40D C 0.49311(17) 0.03171(11) 0.55799(13)
H36D H 0.4827 0.0621 0.5417
C41D C 0.57795(18) -0.02349(12) 0.60252(14)
H37D H 0.6288 -0.0328 0.6187
C42D C 0.52083(18) -0.05502(11) 0.60322(14)
H38D H 0.5328 -0.0854 0.6191
C43D C 0.26449(17) -0.13428(12) 0.52309(13)
C44D C 0.20611(18) -0.10290(12) 0.52009(14)
H39D H 0.2152 -0.0703 0.5175
C45D C 0.13441(19) -0.11840(14) 0.52084(15)
H40D H 0.0946 -0.0965 0.5189
C46D C 0.1209(2) -0.16542(14) 0.52441(17)
H41D H 0.0716 -0.1761 0.5247
C47D C 0.1787(2) -0.19704(14) 0.52757(16)
H42D H 0.1691 -0.2296 0.5302
C48D C 0.2507(2) -0.18186(12) 0.52697(15)
H43D H 0.2904 -0.2039 0.5292
C49D C 0.41795(17) -0.16142(11) 0.52864(13)
C50D C 0.44293(17) -0.17876(12) 0.48267(15)
H44D H 0.4295 -0.1632 0.4463
C51D C 0.48732(19) -0.21863(13) 0.48862(17)
H45D H 0.5038 -0.2306 0.4564
C52D C 0.50727(19) -0.24071(12) 0.54084(16)
H46D H 0.5379 -0.2680 0.5451
C53D C 0.4836(2) -0.22384(13) 0.58723(16)
H47D H 0.4980 -0.2394 0.6235
C54D C 0.4387(2) -0.18426(12) 0.58165(15)
H48D H 0.4222 -0.1727 0.6140
F1 F 0.31131(17) 0.27331(12) 0.42368(18)
F2 F 0.36519(19) 0.3080(2) 0.35872(13)
F3 F 0.3552(2) 0.34125(14) 0.44027(16)
F4 F 0.25233(16) 0.33278(11) 0.36656(12)
B1 B 0.3183(3) 0.3121(2) 0.3932(3)
N4 N 0.6543(3) 0.89968(14) 0.5022(2)
C55 C 0.6640(2) 0.86186(15) 0.49380(17)
C56 C 0.6762(2) 0.81297(14) 0.48292(19)
H49 H 0.7274 0.8088 0.4772
H50 H 0.6390 0.8028 0.4480
H51 H 0.6706 0.7942 0.5161
N5 N 0.7221(2) -0.09233(14) 0.66861(19)
C57 C 0.6908(2) -0.12638(15) 0.65968(18)
C58 C 0.6491(3) -0.16924(17) 0.6463(3)
H52 H 0.6201 -0.1750 0.6753
H53 H 0.6843 -0.1952 0.6464
H54 H 0.6142 -0.1667 0.6079
loop_
_geom_bond_atom_site_label_1
_geom_bond_atom_site_label_2
_geom_bond_site_symmetry_1
_geom_bond_site_symmetry_2
Ag1 P1 1_555 1_555
Ag2 P2 1_555 1_555
P1 C1 1_555 1_555
P2 C19 1_555 1_555
P3 Ag1 1_555 1_555
F1 B1 1_555 1_555
F2 B1 1_555 1_555
F3 B1 1_555 1_555
F4 B1 1_555 1_555
N1 Ag2 1_555 1_555
N2 Ag1 1_555 1_555
N3 C40 1_555 1_555
N4 C55 1_555 1_555
N5 C57 1_555 1_555
C1 H1 1_555 1_555
H2 C1 1_555 1_555
C2 C1 1_555 1_555
C3 C2 1_555 1_555
H3 C3 1_555 1_555
C4 N1 1_555 1_555
H4 C4 1_555 1_555
C5 N1 1_555 1_555
H5 C5 1_555 1_555
C6 C2 1_555 1_555
H6 C6 1_555 1_555
C7 P1 1_555 1_555
C8 C7 1_555 1_555
H7 C8 1_555 1_555
C9 C8 1_555 1_555
H8 C9 1_555 1_555
C10 C9 1_555 1_555
H9 C10 1_555 1_555
C11 C10 1_555 1_555
H10 C11 1_555 1_555
C12 C7 1_555 1_555
H11 C12 1_555 1_555
C13 P1 1_555 1_555
C14 C13 1_555 1_555
H12 C14 1_555 1_555
C15 C14 1_555 1_555
H13 C15 1_555 1_555
C16 C15 1_555 1_555
H14 C16 1_555 1_555
C17 C16 1_555 1_555
H15 C17 1_555 1_555
C18 C13 1_555 1_555
H16 C18 1_555 1_555
C19 H17 1_555 1_555
H18 C19 1_555 1_555
C20 C19 1_555 1_555
C21 C20 1_555 1_555
H19 C21 1_555 1_555
C22 N2 1_555 1_555
H20 C22 1_555 1_555
C23 N2 1_555 1_555
H21 C23 1_555 1_555
C24 C20 1_555 1_555
H22 C24 1_555 1_555
C25 P2 1_555 1_555
C26 C25 1_555 1_555
H23 C26 1_555 1_555
C27 C26 1_555 1_555
H24 C27 1_555 1_555
C28 C27 1_555 1_555
H25 C28 1_555 1_555
C29 C28 1_555 1_555
H26 C29 1_555 1_555
C30 C25 1_555 1_555
H27 C30 1_555 1_555
C31 P2 1_555 1_555
C32 C31 1_555 1_555
H28 C32 1_555 1_555
C33 C32 1_555 1_555
H29 C33 1_555 1_555
C34 C33 1_555 1_555
H30 C34 1_555 1_555
C35 C34 1_555 1_555
H31 C35 1_555 1_555
C36 C31 1_555 1_555
H32 C36 1_555 1_555
C37 P3 1_555 1_555
H33 C37 1_555 1_555
H34 C37 1_555 1_555
C38 C37 1_555 1_555
C39 C38 1_555 1_555
H35 C39 1_555 1_555
C40 C39 1_555 1_555
H36 C40 1_555 1_555
C41 N3 1_555 1_555
H37 C41 1_555 1_555
C42 C38 1_555 1_555
H38 C42 1_555 1_555
C43 P3 1_555 1_555
C44 C43 1_555 1_555
H39 C44 1_555 1_555
C45 C44 1_555 1_555
H40 C45 1_555 1_555
C46 C45 1_555 1_555
H41 C46 1_555 1_555
C47 C46 1_555 1_555
H42 C47 1_555 1_555
C48 C43 1_555 1_555
H43 C48 1_555 1_555
C49 P3 1_555 1_555
C50 C49 1_555 1_555
H44 C50 1_555 1_555
C51 C50 1_555 1_555
H45 C51 1_555 1_555
C52 C51 1_555 1_555
H46 C52 1_555 1_555
C53 C52 1_555 1_555
H47 C53 1_555 1_555
C54 C49 1_555 1_555
H48 C54 1_555 1_555
C55 C56 1_555 1_555
C56 H49 1_555 1_555
H50 C56 1_555 1_555
H51 C56 1_555 1_555
C57 C58 1_555 1_555
C58 H52 1_555 1_555
H53 C58 1_555 1_555
H54 C58 1_555 1_555
Ag1A P1A 1_555 1_555
Ag1D N3 1_555 1_555
P1A C1A 1_555 1_555
P2A Ag2 1_555 1_555
P3D Ag1D 1_555 1_555
P3A Ag1A 1_555 1_555
N1A Ag2 1_555 1_555
N2A Ag1A 1_555 1_555
N3D Ag1 1_555 1_555
N3E Ag1A 1_555 1_555
C1A H1A 1_555 1_555
H2A C1A 1_555 1_555
C2A C1A 1_555 1_555
C3A C2A 1_555 1_555
H3A C3A 1_555 1_555
C4A N1A 1_555 1_555
H4A C4A 1_555 1_555
C5A N1A 1_555 1_555
H5A C5A 1_555 1_555
C6A C2A 1_555 1_555
H6A C6A 1_555 1_555
C7A P1A 1_555 1_555
C8A C7A 1_555 1_555
H7A C8A 1_555 1_555
C9A C8A 1_555 1_555
H8A C9A 1_555 1_555
C10A C9A 1_555 1_555
H9A C10A 1_555 1_555
C11A C10A 1_555 1_555
H10A C11A 1_555 1_555
C12A C7A 1_555 1_555
H11A C12A 1_555 1_555
C13A P1A 1_555 1_555
C14A C13A 1_555 1_555
H12A C14A 1_555 1_555
C15A C14A 1_555 1_555
H13A C15A 1_555 1_555
C16A C15A 1_555 1_555
H14A C16A 1_555 1_555
C17A C16A 1_555 1_555
H15A C17A 1_555 1_555
C18A C13A 1_555 1_555
H16A C18A 1_555 1_555
C19A P2A 1_555 1_555
H17A C19A 1_555 1_555
H18A C19A 1_555 1_555
C20A C19A 1_555 1_555
C21A C20A 1_555 1_555
H19A C21A 1_555 1_555
C22A N2A 1_555 1_555
H20A C22A 1_555 1_555
C23A N2A 1_555 1_555
H21A C23A 1_555 1_555
C24A C20A 1_555 1_555
H22A C24A 1_555 1_555
C25A P2A 1_555 1_555
C26A C25A 1_555 1_555
H23A C26A 1_555 1_555
C27A C26A 1_555 1_555
H24A C27A 1_555 1_555
C28A C27A 1_555 1_555
H25A C28A 1_555 1_555
C29A C28A 1_555 1_555
H26A C29A 1_555 1_555
C30A C25A 1_555 1_555
H27A C30A 1_555 1_555
C31A P2A 1_555 1_555
C32A C31A 1_555 1_555
H28A C32A 1_555 1_555
C33A C32A 1_555 1_555
H29A C33A 1_555 1_555
C34A C33A 1_555 1_555
H30A C34A 1_555 1_555
C35A C34A 1_555 1_555
H31A C35A 1_555 1_555
C36A C31A 1_555 1_555
H32A C36A 1_555 1_555
C37D P3D 1_555 1_555
H33D C37D 1_555 1_555
H34D C37D 1_555 1_555
C38D C37D 1_555 1_555
C39D C38D 1_555 1_555
H35D C39D 1_555 1_555
C40D N3D 1_555 1_555
H36D C40D 1_555 1_555
C41D N3D 1_555 1_555
H37D C41D 1_555 1_555
C42D C38D 1_555 1_555
H38D C42D 1_555 1_555
C43D P3D 1_555 1_555
C44D C43D 1_555 1_555
H39D C44D 1_555 1_555
C45D C44D 1_555 1_555
H40D C45D 1_555 1_555
C46D C45D 1_555 1_555
H41D C46D 1_555 1_555
C47D C46D 1_555 1_555
H42D C47D 1_555 1_555
C48D C43D 1_555 1_555
H43D C48D 1_555 1_555
C49D P3D 1_555 1_555
C50D C49D 1_555 1_555
H44D C50D 1_555 1_555
C51D C50D 1_555 1_555
H45D C51D 1_555 1_555
C52D C51D 1_555 1_555
H46D C52D 1_555 1_555
C53D C52D 1_555 1_555
H47D C53D 1_555 1_555
C54D C49D 1_555 1_555
H48D C54D 1_555 1_555
C3 C4 1_555 1_555
C5 C6 1_555 1_555
C11 C12 1_555 1_555
C17 C18 1_555 1_555
C21 C22 1_555 1_555
C23 C24 1_555 1_555
C29 C30 1_555 1_555
C35 C36 1_555 1_555
C41 C42 1_555 1_555
C47 C48 1_555 1_555
C53 C54 1_555 1_555
C3A C4A 1_555 1_555
C5A C6A 1_555 1_555
C11A C12A 1_555 1_555
C17A C18A 1_555 1_555
C21A C22A 1_555 1_555
C23A C24A 1_555 1_555
C29A C30A 1_555 1_555
C35A C36A 1_555 1_555
C39D C40D 1_555 1_555
C41D C42D 1_555 1_555
C47D C48D 1_555 1_555
C53D C54D 1_555 1_555

#END
