
#######################################################################
#
#                 Cambridge Crystallographic Data Centre
#                                CCDC 
#
#######################################################################
#
# If this CIF has been generated from an entry in the Cambridge 
# Structural Database, then it will include bibliographic, chemical, 
# crystal, experimental, refinement or atomic coordinate data resulting 
# from the CCDC's data processing and validation procedures.
#
#######################################################################

data_DOSWUE
_symmetry_cell_setting           monoclinic
_symmetry_space_group_name_H-M   'P 21/c'
_symmetry_Int_Tables_number      14
_space_group_name_Hall           '-P 2ybc'
loop_
_symmetry_equiv_pos_site_id
_symmetry_equiv_pos_as_xyz
1 x,y,z
2 -x,1/2+y,1/2-z
3 -x,-y,-z
4 x,1/2-y,1/2+z
_cell_length_a                   13.7273(19)
_cell_length_b                   9.9305(14)
_cell_length_c                   12.1113(17)
_cell_angle_alpha                90
_cell_angle_beta                 105.376(2)
_cell_angle_gamma                90
_cell_volume                     1591.9
loop_
_atom_site_label
_atom_site_type_symbol
_atom_site_fract_x
_atom_site_fract_y
_atom_site_fract_z
Yb1 Yb 0.075875(12) 0.214633(16) 0.060093(13)
O1 O 0.2410(2) 0.2914(3) 0.0910(2)
O2 O 0.1894(2) 0.2516(3) 0.2439(2)
O3 O 0.6590(2) 0.3566(4) 0.4620(3)
O4 O 0.8764(2) -0.0065(3) 0.8872(3)
O5 O 0.9130(2) 0.1976(3) 0.9574(2)
O6 O 0.0565(2) 0.3906(3) -0.0771(2)
O7 O -0.0153(2) 0.5911(3) -0.1256(2)
O8 O 0.1061(3) 0.1221(3) -0.1026(3)
O9 O -0.0180(2) 0.1440(3) 0.1891(2)
C1 C 0.2598(3) 0.2807(4) 0.1989(4)
C2 C 0.3647(3) 0.3001(4) 0.2715(3)
C3 C 0.3906(3) 0.2669(5) 0.3863(4)
H1 H 0.3418 0.2336 0.4197
C4 C 0.4888(4) 0.2830(5) 0.4513(4)
H2 H 0.5065 0.2593 0.5284
C5 C 0.5601(3) 0.3340(5) 0.4027(4)
C6 C 0.5356(3) 0.3723(6) 0.2890(4)
H3 H 0.5841 0.4090 0.2569
C7 C 0.4375(3) 0.3546(5) 0.2242(4)
H4 H 0.4198 0.3796 0.1474
C8 C 0.6987(3) 0.2923(5) 0.5669(4)
C9 C 0.7245(3) 0.3697(5) 0.6634(4)
H5 H 0.7071 0.4604 0.6597
C10 C 0.7767(3) 0.3131(4) 0.7669(4)
H6 H 0.7953 0.3661 0.8325
C11 C 0.8012(3) 0.1772(4) 0.7723(3)
C12 C 0.7709(3) 0.0983(4) 0.6740(4)
H7 H 0.7849 0.0065 0.6774
C13 C 0.7198(3) 0.1571(5) 0.5713(4)
H8 H 0.6999 0.1050 0.5053
C14 C 0.8673(3) 0.1183(4) 0.8802(3)
C15 C 0.0117(3) 0.4960(4) -0.0586(3)
H9 H 0.082(3) 0.050(4) -0.130(4)
H10 H 0.143(3) 0.167(4) -0.137(4)
H11 H 0.015(3) 0.128(5) 0.259(3)
H12 H -0.064(3) 0.201(4) 0.179(4)
Yb1B Yb 0.924125(12) -0.214633(16) 0.939907(13)
Yb1_2 Yb 1.075875(12) 0.214633(16) 1.060093(13)
Yb1B_2 Yb -0.075875(12) 0.785367(16) -0.060093(13)
Yb1B_3 Yb -0.075875(12) -0.214633(16) -0.060093(13)
O1B O 0.7590(2) -0.2914(3) 0.9090(2)
O2B O 0.8106(2) -0.2516(3) 0.7561(2)
O3B O 0.3410(2) -0.3566(4) 0.5380(3)
O4B O 0.1236(2) 0.0065(3) 0.1128(3)
O5B O 0.0870(2) -0.1976(3) 0.0426(2)
O5_2 O -0.0870(2) 0.1976(3) -0.0426(2)
O5B_2 O 1.0870(2) -0.1976(3) 1.0426(2)
O6B O -0.0565(2) 0.6094(3) 0.0771(2)
O6B_2 O 0.9435(2) -0.3906(3) 1.0771(2)
O7B O 0.0153(2) 0.4089(3) 0.1256(2)
O7_2 O 0.9847(2) -0.4089(3) 0.8744(2)
O8B O 0.8939(3) -0.1221(3) 1.1026(3)
O9B O 1.0180(2) -0.1440(3) 0.8109(2)
C1B C 0.7402(3) -0.2807(4) 0.8011(4)
C2B C 0.6353(3) -0.3001(4) 0.7285(3)
C3B C 0.6094(3) -0.2669(5) 0.6137(4)
H1B H 0.6582 -0.2336 0.5803
C4B C 0.5112(4) -0.2830(5) 0.5487(4)
H2B H 0.4935 -0.2593 0.4716
C5B C 0.4399(3) -0.3340(5) 0.5973(4)
C6B C 0.4644(3) -0.3723(6) 0.7110(4)
H3B H 0.4159 -0.4090 0.7431
C7B C 0.5625(3) -0.3546(5) 0.7758(4)
H4B H 0.5802 -0.3796 0.8526
C8B C 0.3013(3) -0.2923(5) 0.4331(4)
C9B C 0.2755(3) -0.3697(5) 0.3366(4)
H5B H 0.2929 -0.4604 0.3403
C10B C 0.2233(3) -0.3131(4) 0.2331(4)
H6B H 0.2047 -0.3661 0.1675
C11B C 0.1988(3) -0.1772(4) 0.2277(3)
C12B C 0.2291(3) -0.0983(4) 0.3260(4)
H7B H 0.2151 -0.0065 0.3226
C13B C 0.2802(3) -0.1571(5) 0.4287(4)
H8B H 0.3001 -0.1050 0.4947
C14B C 0.1327(3) -0.1183(4) 0.1198(3)
C15B C -0.0117(3) 0.5040(4) 0.0586(3)
H9B H 0.918(3) -0.050(4) 1.130(4)
H10B H 0.857(3) -0.167(4) 1.137(4)
H11B H 0.985(3) -0.128(5) 0.741(3)
H12B H 1.064(3) -0.201(4) 0.821(4)
loop_
_geom_bond_atom_site_label_1
_geom_bond_atom_site_label_2
_geom_bond_site_symmetry_1
_geom_bond_site_symmetry_2
Yb1 O1 1_555 1_555
O1 C1 1_555 1_555
O2 Yb1 1_555 1_555
O3 C5 1_555 1_555
O4 C14 1_555 1_555
O5 C14 1_555 1_555
O6 Yb1 1_555 1_555
O7 C15 1_555 1_555
O8 Yb1 1_555 1_555
O9 Yb1 1_555 1_555
C1 O2 1_555 1_555
C2 C1 1_555 1_555
C3 C2 1_555 1_555
H1 C3 1_555 1_555
C4 C3 1_555 1_555
H2 C4 1_555 1_555
C5 C4 1_555 1_555
C6 C5 1_555 1_555
H3 C6 1_555 1_555
C7 C2 1_555 1_555
H4 C7 1_555 1_555
C8 O3 1_555 1_555
C9 C8 1_555 1_555
H5 C9 1_555 1_555
C10 C9 1_555 1_555
H6 C10 1_555 1_555
C11 C10 1_555 1_555
C12 C11 1_555 1_555
H7 C12 1_555 1_555
C13 C8 1_555 1_555
H8 C13 1_555 1_555
C14 C11 1_555 1_555
C15 O6 1_555 1_555
H9 O8 1_555 1_555
H10 O8 1_555 1_555
H11 O9 1_555 1_555
H12 O9 1_555 1_555
Yb1B O4 1_555 1_555
Yb1_2 O5 1_555 1_555
Yb1B_2 O7 1_555 1_555
Yb1B_3 O5B 1_555 1_555
O1B Yb1B 1_555 1_555
O2B Yb1B 1_555 1_555
O3B C5B 1_555 1_555
O4B Yb1 1_555 1_555
O5B C14B 1_555 1_555
O5_2 Yb1 1_555 1_555
O5B_2 Yb1B 1_555 1_555
O6B Yb1B_2 1_555 1_555
O6B_2 Yb1B 1_555 1_555
O7B Yb1 1_555 1_555
O7_2 Yb1B 1_555 1_555
O8B Yb1B 1_555 1_555
O9B Yb1B 1_555 1_555
C1B O1B 1_555 1_555
C2B C1B 1_555 1_555
C3B C2B 1_555 1_555
H1B C3B 1_555 1_555
C4B C3B 1_555 1_555
H2B C4B 1_555 1_555
C5B C4B 1_555 1_555
C6B C5B 1_555 1_555
H3B C6B 1_555 1_555
C7B C2B 1_555 1_555
H4B C7B 1_555 1_555
C8B O3B 1_555 1_555
C9B C8B 1_555 1_555
H5B C9B 1_555 1_555
C10B C9B 1_555 1_555
H6B C10B 1_555 1_555
C11B C10B 1_555 1_555
C12B C11B 1_555 1_555
H7B C12B 1_555 1_555
C13B C8B 1_555 1_555
H8B C13B 1_555 1_555
C14B O4B 1_555 1_555
C15B C15 1_555 1_555
H9B O8B 1_555 1_555
H10B O8B 1_555 1_555
H11B O9B 1_555 1_555
H12B O9B 1_555 1_555
C6 C7 1_555 1_555
C12 C13 1_555 1_555
O2B C1B 1_555 1_555
O6B C15B 1_555 1_555
O7B C15B 1_555 1_555
C6B C7B 1_555 1_555
C11B C14B 1_555 1_555
C12B C13B 1_555 1_555

#END
