
#######################################################################
#
#                 Cambridge Crystallographic Data Centre
#                                CCDC 
#
#######################################################################
#
# If this CIF has been generated from an entry in the Cambridge 
# Structural Database, then it will include bibliographic, chemical, 
# crystal, experimental, refinement or atomic coordinate data resulting 
# from the CCDC's data processing and validation procedures.
#
#######################################################################

data_DOTCOF
_symmetry_cell_setting           triclinic
_symmetry_space_group_name_H-M   'P -1'
_symmetry_Int_Tables_number      2
_space_group_name_Hall           '-P 1'
loop_
_symmetry_equiv_pos_site_id
_symmetry_equiv_pos_as_xyz
1 x,y,z
2 -x,-y,-z
_cell_length_a                   7.1685(2)
_cell_length_b                   13.0732(3)
_cell_length_c                   13.8012(3)
_cell_angle_alpha                112.2320(10)
_cell_angle_beta                 102.4910(10)
_cell_angle_gamma                95.2610(10)
_cell_volume                     1147.14
loop_
_atom_site_label
_atom_site_type_symbol
_atom_site_fract_x
_atom_site_fract_y
_atom_site_fract_z
Cd1 Cd 0.26857(2) 0.574398(13) 0.505526(12)
O1 O 0.0640(4) 0.6112(3) 0.3719(2)
O2 O 0.3545(4) 0.6018(2) 0.3492(2)
O3 O 0.0472(2) 0.39578(15) 0.42470(16)
O4 O 0.0702(4) 0.2837(2) 0.20068(19)
O5 O -0.0882(5) 0.1228(3) 0.0857(2)
O6 O 0.3549(2) 0.39207(15) 0.43385(16)
O7 O 0.5646(8) 0.7356(9) 0.2140(8)
O8 O 0.4595(8) 0.8125(4) 0.3436(5)
N1 N 0.3567(3) 0.75458(17) 0.63815(18)
N2 N 0.3327(3) 0.55682(17) 0.67144(16)
H1 H 0.4151 0.5089 0.6713
H2 H 0.2211 0.5280 0.6796
N3 N 0.0085(4) 0.1868(2) 0.1770(2)
N4 N 0.4397(8) 0.7451(6) 0.2475(6)
C1 C 0.3661(5) 0.8455(3) 0.6199(3)
H3 H 0.3178 0.8389 0.5491
C2 C 0.4474(6) 0.9543(3) 0.7043(4)
H4 H 0.4494 1.0179 0.6891
C3 C 0.5212(6) 0.9640(3) 0.8057(4)
H5 H 0.5775 1.0347 0.8612
C4 C 0.5142(4) 0.8682(3) 0.8289(3)
C5 C 0.5905(5) 0.8735(3) 0.9334(3)
H6 H 0.6498 0.9424 0.9908
C6 C 0.5780(5) 0.7784(4) 0.9507(3)
H7 H 0.6272 0.7827 1.0206
C7 C 0.4917(4) 0.6729(3) 0.8647(2)
H8 H 0.4858 0.6085 0.8785
C8 C 0.4165(3) 0.6635(2) 0.7613(2)
C9 C 0.4267(3) 0.7630(2) 0.7411(2)
C10 C 0.1875(5) 0.6161(3) 0.3223(2)
C11 C 0.1224(5) 0.6370(3) 0.2203(2)
C12 C 0.2418(6) 0.6896(3) 0.1815(3)
C13 C 0.1778(8) 0.7014(4) 0.0837(4)
H9 H 0.2632 0.7366 0.0587
C14 C -0.0118(10) 0.6602(5) 0.0261(4)
H10 H -0.0579 0.6684 -0.0384
C15 C -0.1327(9) 0.6078(6) 0.0618(5)
H11 H -0.2613 0.5781 0.0204
C16 C -0.0703(7) 0.5968(5) 0.1593(4)
H12 H -0.1579 0.5625 0.1837
C17 C 0.1829(3) 0.34366(19) 0.40989(18)
C18 C 0.1383(3) 0.2170(2) 0.3687(2)
C19 C 0.0532(4) 0.1431(2) 0.2611(3)
C20 C 0.0101(5) 0.0270(3) 0.2290(4)
H13 H -0.0453 -0.0206 0.1561
C21 C 0.0496(6) -0.0157(3) 0.3048(5)
H14 H 0.0190 -0.0930 0.2842
C22 C 0.1343(6) 0.0543(4) 0.4115(4)
H15 H 0.1618 0.0238 0.4628
C23 C 0.1805(5) 0.1715(3) 0.4453(3)
H16 H 0.2389 0.2181 0.5181
Cd1A Cd -0.26857(2) 0.425602(13) 0.494474(12)
Cd1A_2 Cd 0.73143(2) 0.425602(13) 0.494474(12)
O3A O -0.0472(2) 0.60422(15) 0.57530(16)
O6A O 0.6451(2) 0.60793(15) 0.56615(16)
loop_
_geom_bond_atom_site_label_1
_geom_bond_atom_site_label_2
_geom_bond_site_symmetry_1
_geom_bond_site_symmetry_2
Cd1 O1 1_555 1_555
O1 C10 1_555 1_555
O2 Cd1 1_555 1_555
O3 Cd1 1_555 1_555
O4 N3 1_555 1_555
O5 N3 1_555 1_555
O6 Cd1 1_555 1_555
O7 N4 1_555 1_555
O8 N4 1_555 1_555
N1 Cd1 1_555 1_555
N2 Cd1 1_555 1_555
H1 N2 1_555 1_555
H2 N2 1_555 1_555
N3 C19 1_555 1_555
N4 C12 1_555 1_555
C1 N1 1_555 1_555
H3 C1 1_555 1_555
C2 C1 1_555 1_555
H4 C2 1_555 1_555
C3 C2 1_555 1_555
H5 C3 1_555 1_555
C4 C3 1_555 1_555
C5 C4 1_555 1_555
H6 C5 1_555 1_555
C6 C5 1_555 1_555
H7 C6 1_555 1_555
C7 C6 1_555 1_555
H8 C7 1_555 1_555
C8 N2 1_555 1_555
C9 N1 1_555 1_555
C10 O2 1_555 1_555
C11 C10 1_555 1_555
C12 C11 1_555 1_555
C13 C12 1_555 1_555
H9 C13 1_555 1_555
C14 C13 1_555 1_555
H10 C14 1_555 1_555
C15 C14 1_555 1_555
H11 C15 1_555 1_555
C16 C11 1_555 1_555
H12 C16 1_555 1_555
C17 O3 1_555 1_555
C18 C17 1_555 1_555
C19 C18 1_555 1_555
C20 C19 1_555 1_555
H13 C20 1_555 1_555
C21 C20 1_555 1_555
H14 C21 1_555 1_555
C22 C21 1_555 1_555
H15 C22 1_555 1_555
C23 C18 1_555 1_555
H16 C23 1_555 1_555
Cd1A O3 1_555 1_555
Cd1A_2 O6 1_555 1_555
O3A Cd1 1_555 1_555
O6A Cd1 1_555 1_555
O6 C17 1_555 1_555
C4 C9 1_555 1_555
C7 C8 1_555 1_555
C8 C9 1_555 1_555
C15 C16 1_555 1_555
C22 C23 1_555 1_555
Cd1A O3A 1_555 1_555
Cd1A_2 O6A 1_555 1_555

#END
