
#######################################################################
#
#                 Cambridge Crystallographic Data Centre
#                                CCDC 
#
#######################################################################
#
# If this CIF has been generated from an entry in the Cambridge 
# Structural Database, then it will include bibliographic, chemical, 
# crystal, experimental, refinement or atomic coordinate data resulting 
# from the CCDC's data processing and validation procedures.
#
#######################################################################

data_DOTFUO
_symmetry_cell_setting           triclinic
_symmetry_space_group_name_H-M   'P -1'
_symmetry_Int_Tables_number      2
_space_group_name_Hall           '-P 1'
loop_
_symmetry_equiv_pos_site_id
_symmetry_equiv_pos_as_xyz
1 x,y,z
2 -x,-y,-z
_cell_length_a                   7.6809(12)
_cell_length_b                   10.5458(16)
_cell_length_c                   11.3583(17)
_cell_angle_alpha                107.117(2)
_cell_angle_beta                 99.503(2)
_cell_angle_gamma                109.116(2)
_cell_volume                     795.204
loop_
_atom_site_label
_atom_site_type_symbol
_atom_site_fract_x
_atom_site_fract_y
_atom_site_fract_z
Cd1 Cd 0.43051(2) 0.087058(15) 0.144921(13)
C1 C 0.3296(3) 0.2912(3) -0.0009(2)
H1 H 0.4473 0.3023 -0.0173
C2 C 0.2217(4) 0.3547(3) -0.0510(2)
H2 H 0.2651 0.4079 -0.1004
C3 C 0.0475(3) 0.3371(2) -0.0260(2)
H3 H -0.0292 0.3777 -0.0598
C4 C -0.0142(3) 0.2587(2) 0.0495(2)
C5 C 0.1044(3) 0.1990(2) 0.09786(19)
C6 C -0.2041(3) 0.2491(2) 0.0758(2)
C7 C 0.0619(3) 0.1217(2) 0.1921(2)
C8 C 0.6293(4) 0.4174(3) 0.3704(2)
H4 H 0.5675 0.4405 0.3073
C9 C 0.7406(4) 0.5279(3) 0.4884(3)
H5 H 0.7510 0.6221 0.5037
C10 C 0.8344(4) 0.4959(3) 0.5815(2)
H6 H 0.9107 0.5685 0.6606
C11 C 0.8146(3) 0.3524(3) 0.5565(2)
C12 C 0.9094(4) 0.3116(3) 0.6490(2)
H7 H 0.9905 0.3823 0.7279
C13 C 0.8833(4) 0.1724(3) 0.6241(2)
H8 H 0.9451 0.1481 0.6862
C14 C 0.7609(3) 0.0614(3) 0.5022(2)
C15 C 0.7289(4) -0.0844(3) 0.4741(2)
H9 H 0.7887 -0.1124 0.5340
C16 C 0.6083(4) -0.1851(3) 0.3568(3)
H10 H 0.5846 -0.2825 0.3361
C17 C 0.5213(4) -0.1397(3) 0.2689(2)
H11 H 0.4382 -0.2095 0.1902
C18 C 0.6684(3) 0.0976(2) 0.4075(2)
C19 C 0.6960(3) 0.2470(2) 0.4351(2)
N1 N 0.2716(3) 0.2140(2) 0.07070(18)
N2 N 0.6070(3) 0.2810(2) 0.34333(18)
N3 N 0.5506(3) -0.0029(2) 0.29134(18)
O1 O 0.1495(2) 0.04137(18) 0.20159(17)
O2 O -0.0473(3) 0.1500(2) 0.25307(19)
O3 O -0.3437(2) 0.12374(16) 0.03078(15)
O4 O -0.2187(2) 0.36241(17) 0.13087(17)
Cd1_2 Cd -0.56949(2) 0.087058(15) 0.144921(13)
Cd1A Cd -0.43051(2) -0.087058(15) -0.144921(13)
O3_2 O 0.6563(2) 0.12374(16) 0.03078(15)
O3A O 0.3437(2) -0.12374(16) -0.03078(15)
loop_
_geom_bond_atom_site_label_1
_geom_bond_atom_site_label_2
_geom_bond_site_symmetry_1
_geom_bond_site_symmetry_2
Cd1 N1 1_555 1_555
C1 H1 1_555 1_555
C2 C1 1_555 1_555
H2 C2 1_555 1_555
C3 C2 1_555 1_555
H3 C3 1_555 1_555
C4 C3 1_555 1_555
C5 C4 1_555 1_555
C6 C4 1_555 1_555
C7 C5 1_555 1_555
C8 H4 1_555 1_555
C9 C8 1_555 1_555
H5 C9 1_555 1_555
C10 C9 1_555 1_555
H6 C10 1_555 1_555
C11 C10 1_555 1_555
C12 C11 1_555 1_555
H7 C12 1_555 1_555
C13 C12 1_555 1_555
H8 C13 1_555 1_555
C14 C13 1_555 1_555
C15 C14 1_555 1_555
H9 C15 1_555 1_555
C16 C15 1_555 1_555
H10 C16 1_555 1_555
C17 C16 1_555 1_555
H11 C17 1_555 1_555
C18 C14 1_555 1_555
C19 C11 1_555 1_555
N1 C1 1_555 1_555
N2 Cd1 1_555 1_555
N3 Cd1 1_555 1_555
O1 Cd1 1_555 1_555
O2 C7 1_555 1_555
O3 C6 1_555 1_555
O4 C6 1_555 1_555
Cd1_2 O3 1_555 1_555
Cd1A O3 1_555 1_555
O3_2 Cd1 1_555 1_555
O3A Cd1 1_555 1_555
C5 N1 1_555 1_555
C7 O1 1_555 1_555
C8 N2 1_555 1_555
C17 N3 1_555 1_555
C18 C19 1_555 1_555
C18 N3 1_555 1_555
C19 N2 1_555 1_555

#END
