
#######################################################################
#
#                 Cambridge Crystallographic Data Centre
#                                CCDC 
#
#######################################################################
#
# If this CIF has been generated from an entry in the Cambridge 
# Structural Database, then it will include bibliographic, chemical, 
# crystal, experimental, refinement or atomic coordinate data resulting 
# from the CCDC's data processing and validation procedures.
#
#######################################################################

data_DOTHIF
_symmetry_cell_setting           orthorhombic
_symmetry_space_group_name_H-M   'P n a 21'
_symmetry_Int_Tables_number      33
_space_group_name_Hall           'P 2c -2n'
loop_
_symmetry_equiv_pos_site_id
_symmetry_equiv_pos_as_xyz
1 x,y,z
2 -x,-y,1/2+z
3 1/2+x,1/2-y,z
4 1/2-x,1/2+y,1/2+z
_cell_length_a                   17.752(5)
_cell_length_b                   11.878(4)
_cell_length_c                   10.359(3)
_cell_angle_alpha                90
_cell_angle_beta                 90
_cell_angle_gamma                90
_cell_volume                     2184.28
loop_
_atom_site_label
_atom_site_type_symbol
_atom_site_fract_x
_atom_site_fract_y
_atom_site_fract_z
Zn1 Zn 0.50960(3) 0.13402(5) 0.43325(10)
O1 O 0.5354(3) -0.0229(4) 0.3705(4)
O2 O 0.4791(3) -0.0580(4) 0.5526(5)
O3 O 0.4252(3) -0.1429(4) 0.2065(5)
O4 O 0.5172(3) -0.2172(4) 0.0882(4)
N1 N 0.5987(3) 0.2057(5) 0.3406(5)
N2 N 0.6127(3) 0.1728(6) 0.2153(6)
H1 H 0.5816 0.1346 0.1691
N3 N 0.8814(3) 0.4334(5) 0.2680(5)
H2 H 0.9063 0.4933 0.2494
N4 N 0.9098(3) 0.3462(4) 0.3359(5)
C1 C 0.7081(5) 0.1788(10) 0.0403(9)
H3 H 0.6831 0.2258 -0.0218
H4 H 0.6977 0.1012 0.0215
H5 H 0.7614 0.1917 0.0362
C2 C 0.6797(4) 0.2068(7) 0.1742(7)
C3 C 0.7140(4) 0.2637(6) 0.2783(7)
C4 C 0.6615(3) 0.2601(5) 0.3777(6)
C5 C 0.6696(4) 0.3094(7) 0.5102(7)
H6 H 0.6916 0.2546 0.5668
H7 H 0.6209 0.3306 0.5423
H8 H 0.7014 0.3746 0.5063
C6 C 0.7647(5) 0.4980(8) 0.1593(11)
H9 H 0.7613 0.5672 0.2067
H10 H 0.7151 0.4680 0.1461
H11 H 0.7880 0.5118 0.0772
C7 C 0.8106(3) 0.4158(6) 0.2332(7)
C8 C 0.7887(3) 0.3141(6) 0.2848(7)
C9 C 0.8540(3) 0.2717(6) 0.3450(6)
C10 C 0.8631(4) 0.1623(6) 0.4132(10)
H12 H 0.8538 0.1726 0.5037
H13 H 0.9135 0.1350 0.4009
H14 H 0.8279 0.1087 0.3789
C11 C 0.5108(3) -0.0903(6) 0.4511(9)
C12 C 0.5220(3) -0.2136(5) 0.4294(9)
C13 C 0.5465(5) -0.2796(7) 0.5329(7)
H15 H 0.5521 -0.2469 0.6140
C14 C 0.5630(7) -0.3949(7) 0.5164(9)
H16 H 0.5795 -0.4383 0.5856
C15 C 0.5541(6) -0.4426(7) 0.3935(8)
H17 H 0.5643 -0.5185 0.3805
C16 C 0.5307(6) -0.3781(7) 0.2939(10)
H18 H 0.5257 -0.4111 0.2129
C17 C 0.5135(4) -0.2633(6) 0.3075(7)
C18 C 0.4825(4) -0.2020(5) 0.1928(7)
Zn1A Zn 0.49040(3) -0.13402(5) -0.06675(10)
Zn1B Zn 1.00960(3) 0.36598(5) 0.43325(10)
O4A O 0.4828(3) 0.2172(4) 0.5882(4)
N4B N 0.4098(3) 0.1538(4) 0.3359(5)
loop_
_geom_bond_atom_site_label_1
_geom_bond_atom_site_label_2
_geom_bond_site_symmetry_1
_geom_bond_site_symmetry_2
Zn1 O1 1_555 1_555
O1 C11 1_555 1_555
O2 C11 1_555 1_555
O3 C18 1_555 1_555
O4 C18 1_555 1_555
N1 Zn1 1_555 1_555
N2 N1 1_555 1_555
H1 N2 1_555 1_555
N3 H2 1_555 1_555
N4 N3 1_555 1_555
C1 H3 1_555 1_555
H4 C1 1_555 1_555
H5 C1 1_555 1_555
C2 N2 1_555 1_555
C3 C2 1_555 1_555
C4 N1 1_555 1_555
C5 C4 1_555 1_555
H6 C5 1_555 1_555
H7 C5 1_555 1_555
H8 C5 1_555 1_555
C6 H9 1_555 1_555
H10 C6 1_555 1_555
H11 C6 1_555 1_555
C7 N3 1_555 1_555
C8 C3 1_555 1_555
C9 N4 1_555 1_555
C10 C9 1_555 1_555
H12 C10 1_555 1_555
H13 C10 1_555 1_555
H14 C10 1_555 1_555
C11 C12 1_555 1_555
C12 C13 1_555 1_555
C13 H15 1_555 1_555
C14 C13 1_555 1_555
H16 C14 1_555 1_555
C15 C14 1_555 1_555
H17 C15 1_555 1_555
C16 C15 1_555 1_555
H18 C16 1_555 1_555
C17 C12 1_555 1_555
C18 C17 1_555 1_555
Zn1A O4 1_555 1_555
Zn1B N4 1_555 1_555
O4A Zn1 1_555 1_555
N4B Zn1 1_555 1_555
C1 C2 1_555 1_555
C3 C4 1_555 1_555
C6 C7 1_555 1_555
C7 C8 1_555 1_555
C8 C9 1_555 1_555
C16 C17 1_555 1_555

#END
