
#######################################################################
#
#                 Cambridge Crystallographic Data Centre
#                                CCDC 
#
#######################################################################
#
# If this CIF has been generated from an entry in the Cambridge 
# Structural Database, then it will include bibliographic, chemical, 
# crystal, experimental, refinement or atomic coordinate data resulting 
# from the CCDC's data processing and validation procedures.
#
#######################################################################

data_DOTHOL
_symmetry_cell_setting           monoclinic
_symmetry_space_group_name_H-M   'P 21/n'
_symmetry_Int_Tables_number      14
_space_group_name_Hall           '-P 2yn'
loop_
_symmetry_equiv_pos_site_id
_symmetry_equiv_pos_as_xyz
1 x,y,z
2 1/2-x,1/2+y,1/2-z
3 -x,-y,-z
4 1/2+x,1/2-y,1/2+z
_cell_length_a                   11.247(2)
_cell_length_b                   17.427(3)
_cell_length_c                   11.321(2)
_cell_angle_alpha                90
_cell_angle_beta                 116.964(2)
_cell_angle_gamma                90
_cell_volume                     1977.72
loop_
_atom_site_label
_atom_site_type_symbol
_atom_site_fract_x
_atom_site_fract_y
_atom_site_fract_z
Zn1 Zn 0.36925(4) 0.22595(2) 0.68902(4)
O1 O 0.2166(2) 0.38781(13) 0.4790(2)
O2 O 0.2975(2) 0.11071(12) 0.7206(2)
O3 O 0.4037(2) 0.32958(12) 0.6231(2)
O4 O 0.1945(2) 0.17612(12) 0.5359(2)
N1 N 0.2515(3) 0.28465(15) 0.7677(3)
C1 C 0.2024(3) 0.11743(19) 0.6065(3)
N2 N 0.1745(3) 0.34538(15) 0.7036(3)
H1 H 0.1680 0.3629 0.6299
C2 C 0.0975(3) 0.05674(17) 0.5512(3)
N3 N 0.1076(3) 0.36379(16) 1.1764(3)
H2 H 0.1346 0.3788 1.2569
C3 C 0.3410(4) 0.38224(19) 0.5426(3)
C4 C 0.1089(3) 0.37567(19) 0.7668(3)
C5 C 0.1445(3) 0.33188(19) 0.8791(3)
C6 C 0.0952(3) -0.00251(18) 0.6310(3)
H3 H 0.1588 -0.0043 0.7195
C7 C 0.0009(3) 0.05932(18) 0.4195(3)
H4 H 0.0009 0.0994 0.3653
C8 C 0.5565(4) 0.4304(2) 0.5550(4)
H5 H 0.5955 0.3836 0.5921
C9 C 0.4245(3) 0.44396(18) 0.5228(3)
C10 C 0.2334(4) 0.2759(2) 0.8755(3)
C11 C 0.1039(4) 0.34154(19) 0.9854(3)
C12 C 0.6309(4) 0.48642(19) 0.5318(4)
H6 H 0.7198 0.4768 0.5536
C13 C -0.0140(4) 0.3164(2) 0.9860(3)
C14 C 0.0205(4) 0.4438(2) 0.7163(4)
H7 H 0.0739 0.4890 0.7299
H8 H -0.0321 0.4489 0.7631
H9 H -0.0374 0.4376 0.6234
C15 C 0.1785(4) 0.3722(2) 1.1086(4)
C16 C 0.3009(4) 0.2133(2) 0.9743(4)
H10 H 0.3091 0.1685 0.9292
H11 H 0.2487 0.2012 1.0194
H12 H 0.3879 0.2302 1.0375
C17 C -0.1322(4) 0.2804(2) 0.8722(4)
H13 H -0.1278 0.2906 0.7910
H14 H -0.2130 0.3017 0.8674
H15 H -0.1313 0.2260 0.8858
N4 N -0.0115(3) 0.32892(16) 1.1036(3)
O5 O 0.5283(2) 0.22417(13) 0.8728(2)
H16 H 0.5698 0.2680 0.8909
H17 H 0.5845 0.1888 0.8768
C18 C 0.3137(4) 0.4095(3) 1.1644(4)
H18 H 0.3061 0.4625 1.1832
H19 H 0.3483 0.4061 1.1010
H20 H 0.3732 0.3838 1.2446
O1B O 0.7834(2) 0.61219(13) 0.5210(2)
O3B O 0.5963(2) 0.67042(12) 0.3769(2)
C3B C 0.6590(4) 0.61776(19) 0.4574(3)
C8B C 0.4435(4) 0.5696(2) 0.4450(4)
H5B H 0.4045 0.6164 0.4079
C9B C 0.5755(3) 0.55604(18) 0.4772(3)
C12B C 0.3691(4) 0.51358(19) 0.4682(4)
H6B H 0.2802 0.5232 0.4464
O2B O -0.2975(2) -0.11071(12) 0.2794(2)
O4B O -0.1945(2) -0.17612(12) 0.4641(2)
C1B C -0.2024(3) -0.11743(19) 0.3935(3)
C2B C -0.0975(3) -0.05674(17) 0.4488(3)
C6B C -0.0952(3) 0.00251(18) 0.3690(3)
H3B H -0.1588 0.0043 0.2805
C7B C -0.0009(3) -0.05932(18) 0.5805(3)
H4B H -0.0009 -0.0994 0.6347
Zn1B Zn -0.36925(4) -0.22595(2) 0.31098(4)
N1B N -0.2515(3) -0.28465(15) 0.2323(3)
N2B N -0.1745(3) -0.34538(15) 0.2964(3)
H1B H -0.1680 -0.3629 0.3701
N3B N -0.1076(3) -0.36379(16) -0.1764(3)
H2B H -0.1346 -0.3788 -0.2569
C4B C -0.1089(3) -0.37567(19) 0.2332(3)
C5B C -0.1445(3) -0.33188(19) 0.1209(3)
C10B C -0.2334(4) -0.2759(2) 0.1245(3)
C11B C -0.1039(4) -0.34154(19) 0.0146(3)
C13B C 0.0140(4) -0.3164(2) 0.0140(3)
C14B C -0.0205(4) -0.4438(2) 0.2837(4)
H7B H -0.0739 -0.4890 0.2701
H8B H 0.0321 -0.4489 0.2369
H9B H 0.0374 -0.4376 0.3766
C15B C -0.1785(4) -0.3722(2) -0.1086(4)
C16B C -0.3009(4) -0.2133(2) 0.0257(4)
H10B H -0.3091 -0.1685 0.0708
H11B H -0.2487 -0.2012 -0.0194
H12B H -0.3879 -0.2302 -0.0375
C17B C 0.1322(4) -0.2804(2) 0.1278(4)
H13B H 0.1278 -0.2906 0.2090
H14B H 0.2130 -0.3017 0.1326
H15B H 0.1313 -0.2260 0.1142
N4B N 0.0115(3) -0.32892(16) -0.1036(3)
O5B O -0.5283(2) -0.22417(13) 0.1272(2)
H16B H -0.5698 -0.2680 0.1091
H17B H -0.5845 -0.1888 0.1232
C18B C -0.3137(4) -0.4095(3) -0.1644(4)
H18B H -0.3061 -0.4625 -0.1832
H19B H -0.3483 -0.4061 -0.1010
H20B H -0.3732 -0.3838 -0.2446
Zn1A Zn 0.13075(4) -0.27405(2) -0.18902(4)
Zn1B_2 Zn 0.63075(4) 0.77405(2) 0.31098(4)
Zn1C Zn -0.13075(4) 0.27405(2) 1.18902(4)
O3B_2 O -0.4037(2) -0.32958(12) 0.3769(2)
N4A N -0.4885(3) -0.17108(16) 0.3964(3)
N4C N 0.4885(3) 0.17108(16) 0.6036(3)
loop_
_geom_bond_atom_site_label_1
_geom_bond_atom_site_label_2
_geom_bond_site_symmetry_1
_geom_bond_site_symmetry_2
Zn1 O2 1_555 1_555
O1 C3 1_555 1_555
O2 C1 1_555 1_555
O3 Zn1 1_555 1_555
O4 Zn1 1_555 1_555
N1 Zn1 1_555 1_555
C1 O4 1_555 1_555
N2 N1 1_555 1_555
H1 N2 1_555 1_555
C2 C1 1_555 1_555
N3 H2 1_555 1_555
C3 O3 1_555 1_555
C4 N2 1_555 1_555
C5 C4 1_555 1_555
C6 C2 1_555 1_555
H3 C6 1_555 1_555
C7 C2 1_555 1_555
H4 C7 1_555 1_555
C8 H5 1_555 1_555
C9 C3 1_555 1_555
C10 N1 1_555 1_555
C11 C5 1_555 1_555
C12 C8 1_555 1_555
H6 C12 1_555 1_555
C13 C11 1_555 1_555
C14 C4 1_555 1_555
H7 C14 1_555 1_555
H8 C14 1_555 1_555
H9 C14 1_555 1_555
C15 N3 1_555 1_555
C16 C10 1_555 1_555
H10 C16 1_555 1_555
H11 C16 1_555 1_555
H12 C16 1_555 1_555
C17 C13 1_555 1_555
H13 C17 1_555 1_555
H14 C17 1_555 1_555
H15 C17 1_555 1_555
N4 N3 1_555 1_555
O5 Zn1 1_555 1_555
H16 O5 1_555 1_555
H17 O5 1_555 1_555
C18 C15 1_555 1_555
H18 C18 1_555 1_555
H19 C18 1_555 1_555
H20 C18 1_555 1_555
O1B C3B 1_555 1_555
O3B C3B 1_555 1_555
C3B C9B 1_555 1_555
C8B H5B 1_555 1_555
C9B C12 1_555 1_555
C12B C9 1_555 1_555
H6B C12B 1_555 1_555
O2B C1B 1_555 1_555
O4B C1B 1_555 1_555
C1B C2B 1_555 1_555
C2B C6B 1_555 1_555
C6B C7 1_555 1_555
H3B C6B 1_555 1_555
C7B C6 1_555 1_555
H4B C7B 1_555 1_555
Zn1B O2B 1_555 1_555
N1B Zn1B 1_555 1_555
N2B N1B 1_555 1_555
H1B N2B 1_555 1_555
N3B H2B 1_555 1_555
C4B N2B 1_555 1_555
C5B C4B 1_555 1_555
C10B N1B 1_555 1_555
C11B C5B 1_555 1_555
C13B C11B 1_555 1_555
C14B C4B 1_555 1_555
H7B C14B 1_555 1_555
H8B C14B 1_555 1_555
H9B C14B 1_555 1_555
C15B N3B 1_555 1_555
C16B C10B 1_555 1_555
H10B C16B 1_555 1_555
H11B C16B 1_555 1_555
H12B C16B 1_555 1_555
C17B C13B 1_555 1_555
H13B C17B 1_555 1_555
H14B C17B 1_555 1_555
H15B C17B 1_555 1_555
N4B N3B 1_555 1_555
O5B Zn1B 1_555 1_555
H16B O5B 1_555 1_555
H17B O5B 1_555 1_555
C18B C15B 1_555 1_555
H18B C18B 1_555 1_555
H19B C18B 1_555 1_555
H20B C18B 1_555 1_555
Zn1A N4B 1_555 1_555
Zn1B_2 O3B 1_555 1_555
Zn1C N4 1_555 1_555
O3B_2 Zn1B 1_555 1_555
N4A Zn1B 1_555 1_555
N4C Zn1 1_555 1_555
C5 C10 1_555 1_555
C8 C9 1_555 1_555
C11 C15 1_555 1_555
C13 N4 1_555 1_555
C8B C9B 1_555 1_555
C8B C12B 1_555 1_555
O4B Zn1B 1_555 1_555
C2B C7B 1_555 1_555
C5B C10B 1_555 1_555
C11B C15B 1_555 1_555
C13B N4B 1_555 1_555

#END
