
#######################################################################
#
#                 Cambridge Crystallographic Data Centre
#                                CCDC 
#
#######################################################################
#
# If this CIF has been generated from an entry in the Cambridge 
# Structural Database, then it will include bibliographic, chemical, 
# crystal, experimental, refinement or atomic coordinate data resulting 
# from the CCDC's data processing and validation procedures.
#
#######################################################################

data_DOTJAZ01
_symmetry_cell_setting           orthorhombic
_symmetry_space_group_name_H-M   'P n a 21'
_symmetry_Int_Tables_number      33
_space_group_name_Hall           'P 2c -2n'
loop_
_symmetry_equiv_pos_site_id
_symmetry_equiv_pos_as_xyz
1 x,y,z
2 -x,-y,1/2+z
3 1/2+x,1/2-y,z
4 1/2-x,1/2+y,1/2+z
_cell_length_a                   17.096(4)
_cell_length_b                   13.638(4)
_cell_length_c                   10.336(3)
_cell_angle_alpha                90
_cell_angle_beta                 90
_cell_angle_gamma                90
_cell_volume                     2409.89
loop_
_atom_site_label
_atom_site_type_symbol
_atom_site_fract_x
_atom_site_fract_y
_atom_site_fract_z
Zn1 Zn 1.01748(4) 0.61776(6) 0.31553(11)
C1 C 1.0143(4) 0.3117(5) 0.3079(12)
O1 O 0.9688(3) 0.4476(4) 0.1890(6)
C2 C 1.0334(7) 0.2518(8) 0.2106(10)
H1 H 1.0380 0.2787 0.1262
C3 C 1.0017(5) 0.2698(8) 0.4368(9)
C4 C 1.0041(5) 0.4183(6) 0.2846(8)
O2 O 1.0372(3) 0.4790(4) 0.3627(4)
C5 C 0.8794(4) 0.8106(5) 0.3280(13)
H2 H 0.8861 0.8644 0.3900
H3 H 0.8353 0.8253 0.2706
H4 H 0.9272 0.8033 0.2766
C6 C 1.0339(7) 0.1127(7) 0.3543(9)
C7 C 1.0125(5) 0.1700(7) 0.4560(10)
H5 H 1.0050 0.1420 0.5392
O3 O 0.9163(3) 0.3856(4) 0.5334(5)
N1 N 0.9151(4) 0.6437(5) 0.4087(6)
N2 N 0.8798(4) 0.5737(5) 0.4796(6)
H6 H 0.9015 0.5168 0.4977
C8 C 0.8099(4) 0.5990(7) 0.5188(9)
C9 C 0.7943(4) 0.6903(6) 0.4637(8)
C10 C 0.6705(5) 0.7648(6) 0.3657(7)
C11 C 0.6774(6) 0.7324(8) 0.2276(8)
H7 H 0.7312 0.7112 0.2105
H8 H 0.6641 0.7871 0.1702
H9 H 0.6415 0.6777 0.2118
C12 C 0.7213(5) 0.7462(7) 0.4700(8)
C13 C 0.7563(5) 0.5370(7) 0.5984(10)
H10 H 0.7225 0.4984 0.5412
H11 H 0.7240 0.5792 0.6535
H12 H 0.7872 0.4927 0.6527
C14 C 0.6883(5) 0.7895(9) 0.5753(9)
C15 C 0.7117(6) 0.8008(10) 0.7172(10)
H13 H 0.7386 0.7412 0.7462
H14 H 0.6648 0.8111 0.7699
H15 H 0.7468 0.8571 0.7266
C16 C 0.8634(5) 0.7168(7) 0.4001(7)
N3 N 0.6093(4) 0.8216(5) 0.4025(6)
N4 N 0.6219(4) 0.8370(6) 0.5343(8)
H16 H 0.5914 0.8723 0.5845
O4 O 1.0493(7) -0.0277(14) 0.4850(12)
N5 N 1.0457(8) 0.0061(8) 0.3734(9)
O5 O 1.0469(7) -0.0486(8) 0.2744(9)
C17 C 1.0471(7) 0.1507(10) 0.2270(11)
H17 H 1.0641 0.1102 0.1577
C18 C 0.9740(5) 0.3308(6) 0.5471(9)
O6 O 1.0081(3) 0.3163(4) 0.6567(5)
Zn1A Zn 0.98252(4) 0.38224(6) 0.81553(11)
Zn1B Zn 0.51748(4) 0.88224(6) 0.31553(11)
N3B N 1.1093(4) 0.6784(5) 0.4025(6)
O6A O 0.9919(3) 0.6837(4) 0.1567(5)
O9 O 0.8077(11) 0.5904(15) 0.036(2)
O10 O 0.7081(11) 0.5403(15) -0.008(2)
O7? O 1.0981(19) -0.037(3) 0.309(5)
O8? O 1.023(3) -0.019(6) 0.484(3)
loop_
_geom_bond_atom_site_label_1
_geom_bond_atom_site_label_2
_geom_bond_site_symmetry_1
_geom_bond_site_symmetry_2
Zn1 O2 1_555 1_555
C1 C2 1_555 1_555
O1 C4 1_555 1_555
C2 H1 1_555 1_555
C3 C1 1_555 1_555
C4 C1 1_555 1_555
O2 C4 1_555 1_555
C5 H2 1_555 1_555
H3 C5 1_555 1_555
H4 C5 1_555 1_555
C6 C7 1_555 1_555
C7 C3 1_555 1_555
H5 C7 1_555 1_555
O3 C18 1_555 1_555
N1 Zn1 1_555 1_555
N2 N1 1_555 1_555
H6 N2 1_555 1_555
C8 N2 1_555 1_555
C9 C8 1_555 1_555
C10 C11 1_555 1_555
C11 H7 1_555 1_555
H8 C11 1_555 1_555
H9 C11 1_555 1_555
C12 C9 1_555 1_555
C13 C8 1_555 1_555
H10 C13 1_555 1_555
H11 C13 1_555 1_555
H12 C13 1_555 1_555
C14 C12 1_555 1_555
C15 C14 1_555 1_555
H13 C15 1_555 1_555
H14 C15 1_555 1_555
H15 C15 1_555 1_555
C16 C5 1_555 1_555
N3 C10 1_555 1_555
N4 C14 1_555 1_555
H16 N4 1_555 1_555
O4 N5 1_555 1_555
N5 C6 1_555 1_555
O5 N5 1_555 1_555
C17 C2 1_555 1_555
H17 C17 1_555 1_555
C18 C3 1_555 1_555
O6 C18 1_555 1_555
Zn1A O6 1_555 1_555
Zn1B N3 1_555 1_555
N3B Zn1 1_555 1_555
O6A Zn1 1_555 1_555
C6 C17 1_555 1_555
N1 C16 1_555 1_555
C9 C16 1_555 1_555
C10 C12 1_555 1_555
N3 N4 1_555 1_555

#END
