
#######################################################################
#
#                 Cambridge Crystallographic Data Centre
#                                CCDC 
#
#######################################################################
#
# If this CIF has been generated from an entry in the Cambridge 
# Structural Database, then it will include bibliographic, chemical, 
# crystal, experimental, refinement or atomic coordinate data resulting 
# from the CCDC's data processing and validation procedures.
#
#######################################################################

data_DOTYUI
_symmetry_cell_setting           triclinic
_symmetry_space_group_name_H-M   'P -1'
_symmetry_Int_Tables_number      2
_space_group_name_Hall           '-P 1'
loop_
_symmetry_equiv_pos_site_id
_symmetry_equiv_pos_as_xyz
1 x,y,z
2 -x,-y,-z
_cell_length_a                   8.5650(10)
_cell_length_b                   11.039(2)
_cell_length_c                   11.651(3)
_cell_angle_alpha                103.256(6)
_cell_angle_beta                 97.143(5)
_cell_angle_gamma                99.588(6)
_cell_volume                     1041.99
loop_
_atom_site_label
_atom_site_type_symbol
_atom_site_fract_x
_atom_site_fract_y
_atom_site_fract_z
Co1 Co 0.5000 0.0000 0.0000
O1 O 0.3964(9) 0.1035(7) 0.1068(7)
O2 O 0.6481(9) 0.0027(7) 0.1350(7)
N1 N 0.3640(13) -0.1510(9) 0.0157(9)
N2 N 0.0671(11) -0.4908(10) 0.0287(9)
C1 C 0.4239(15) -0.2509(12) 0.0352(12)
H1 H 0.5343 -0.2463 0.0449
C2 C 0.3241(14) -0.3601(11) 0.0411(11)
H2 H 0.3677 -0.4263 0.0599
C3 C 0.1667(16) -0.3710(12) 0.0203(12)
C4 C 0.1050(15) -0.2706(12) 0.0072(12)
H3 H -0.0056 -0.2768 -0.0005
C5 C 0.2015(13) -0.1573(12) 0.0047(12)
H4 H 0.1573 -0.0878 -0.0041
C6 C 0.4746(13) 0.1252(10) 0.2182(10)
C7 C 0.6113(14) 0.0719(10) 0.2317(10)
C8 C 0.7067(15) 0.0930(11) 0.3420(11)
H5 H 0.7984 0.0586 0.3493
C9 C 0.6614(15) 0.1686(11) 0.4445(12)
C10 C 0.5225(15) 0.2197(11) 0.4256(12)
H6 H 0.4934 0.2700 0.4919
C11 C 0.4284(13) 0.2010(11) 0.3181(11)
C12 C 0.7542(15) 0.1928(11) 0.5721(11)
C13 C 0.6553(18) 0.1509(15) 0.6524(13)
H7 H 0.7215 0.1570 0.7271
H8 H 0.6012 0.0642 0.6178
H9 H 0.5773 0.2035 0.6659
C14 C 0.8239(19) 0.3316(12) 0.6159(13)
H10 H 0.8769 0.3502 0.6974
H11 H 0.7396 0.3786 0.6115
H12 H 0.9000 0.3553 0.5671
C15 C 0.8955(16) 0.1242(14) 0.5727(14)
H13 H 0.9810 0.1692 0.5431
H14 H 0.8612 0.0393 0.5224
H15 H 0.9330 0.1211 0.6529
C16 C 0.2762(15) 0.2610(12) 0.3013(12)
C17 C 0.2448(16) 0.3359(15) 0.4220(14)
H16 H 0.1584 0.3790 0.4083
H17 H 0.3401 0.3972 0.4629
H18 H 0.2164 0.2784 0.4701
C18 C 0.1369(15) 0.1606(14) 0.2523(15)
H19 H 0.1141 0.1147 0.3110
H20 H 0.1574 0.1037 0.1827
H21 H 0.0463 0.1965 0.2305
C19 C 0.3008(17) 0.3499(13) 0.2242(12)
H22 H 0.2044 0.3813 0.2089
H23 H 0.3263 0.3061 0.1499
H24 H 0.3876 0.4197 0.2640
N1A N -0.3640(13) -0.8490(9) -0.0157(9)
N2A N -0.0671(11) -0.5092(10) -0.0287(9)
C1A C -0.4239(15) -0.7491(12) -0.0352(12)
H1A H -0.5343 -0.7537 -0.0449
C2A C -0.3241(14) -0.6399(11) -0.0411(11)
H2A H -0.3677 -0.5737 -0.0599
C3A C -0.1667(16) -0.6290(12) -0.0203(12)
C4A C -0.1050(15) -0.7294(12) -0.0072(12)
H3A H 0.0056 -0.7232 0.0005
C5A C -0.2015(13) -0.8427(12) -0.0047(12)
H4A H -0.1573 -0.9122 0.0041
O1A O 0.6036(9) -0.1035(7) -0.1068(7)
O2A O 0.3519(9) -0.0027(7) -0.1350(7)
C6A C 0.5254(13) -0.1252(10) -0.2182(10)
C7A C 0.3887(14) -0.0719(10) -0.2317(10)
C8A C 0.2933(15) -0.0930(11) -0.3420(11)
H5A H 0.2016 -0.0586 -0.3493
C9A C 0.3386(15) -0.1686(11) -0.4445(12)
C10A C 0.4775(15) -0.2197(11) -0.4256(12)
H6A H 0.5066 -0.2700 -0.4919
C11A C 0.5716(13) -0.2010(11) -0.3181(11)
C12A C 0.2458(15) -0.1928(11) -0.5721(11)
C13A C 0.3447(18) -0.1509(15) -0.6524(13)
H7A H 0.2785 -0.1570 -0.7271
H8A H 0.3988 -0.0642 -0.6178
H9A H 0.4227 -0.2035 -0.6659
C14A C 0.1761(19) -0.3316(12) -0.6159(13)
H10A H 0.1231 -0.3502 -0.6974
H11A H 0.2604 -0.3786 -0.6115
H12A H 0.1000 -0.3553 -0.5671
C15A C 0.1045(16) -0.1242(14) -0.5727(14)
H13A H 0.0190 -0.1692 -0.5431
H14A H 0.1388 -0.0393 -0.5224
H15A H 0.0670 -0.1211 -0.6529
C16A C 0.7238(15) -0.2610(12) -0.3013(12)
C17A C 0.7552(16) -0.3359(15) -0.4220(14)
H16A H 0.8416 -0.3790 -0.4083
H17A H 0.6599 -0.3972 -0.4629
H18A H 0.7836 -0.2784 -0.4701
C18A C 0.8631(15) -0.1606(14) -0.2523(15)
H19A H 0.8859 -0.1147 -0.3110
H20A H 0.8426 -0.1037 -0.1827
H21A H 0.9537 -0.1965 -0.2305
C19A C 0.6992(17) -0.3499(13) -0.2242(12)
H22A H 0.7956 -0.3813 -0.2089
H23A H 0.6737 -0.3061 -0.1499
H24A H 0.6124 -0.4197 -0.2640
Co1_2 Co -0.5000 -1.0000 0.0000
N1A_2 N 0.6360(13) 0.1510(9) -0.0157(9)
loop_
_geom_bond_atom_site_label_1
_geom_bond_atom_site_label_2
_geom_bond_site_symmetry_1
_geom_bond_site_symmetry_2
Co1 O1 1_555 1_555
O1 C6 1_555 1_555
O2 Co1 1_555 1_555
N1 Co1 1_555 1_555
N2 C3 1_555 1_555
C1 N1 1_555 1_555
H1 C1 1_555 1_555
C2 C1 1_555 1_555
H2 C2 1_555 1_555
C3 C2 1_555 1_555
C4 C3 1_555 1_555
H3 C4 1_555 1_555
C5 N1 1_555 1_555
H4 C5 1_555 1_555
C6 C7 1_555 1_555
C7 O2 1_555 1_555
C8 C7 1_555 1_555
H5 C8 1_555 1_555
C9 C8 1_555 1_555
C10 C9 1_555 1_555
H6 C10 1_555 1_555
C11 C6 1_555 1_555
C12 C9 1_555 1_555
C13 C12 1_555 1_555
H7 C13 1_555 1_555
H8 C13 1_555 1_555
H9 C13 1_555 1_555
C14 C12 1_555 1_555
H10 C14 1_555 1_555
H11 C14 1_555 1_555
H12 C14 1_555 1_555
C15 C12 1_555 1_555
H13 C15 1_555 1_555
H14 C15 1_555 1_555
H15 C15 1_555 1_555
C16 C11 1_555 1_555
C17 C16 1_555 1_555
H16 C17 1_555 1_555
H17 C17 1_555 1_555
H18 C17 1_555 1_555
C18 C16 1_555 1_555
H19 C18 1_555 1_555
H20 C18 1_555 1_555
H21 C18 1_555 1_555
C19 C16 1_555 1_555
H22 C19 1_555 1_555
H23 C19 1_555 1_555
H24 C19 1_555 1_555
N1A C1A 1_555 1_555
N2A N2 1_555 1_555
C1A H1A 1_555 1_555
C2A C1A 1_555 1_555
H2A C2A 1_555 1_555
C3A N2A 1_555 1_555
C4A C3A 1_555 1_555
H3A C4A 1_555 1_555
C5A N1A 1_555 1_555
H4A C5A 1_555 1_555
O1A Co1 1_555 1_555
O2A Co1 1_555 1_555
C6A O1A 1_555 1_555
C7A O2A 1_555 1_555
C8A C7A 1_555 1_555
H5A C8A 1_555 1_555
C9A C8A 1_555 1_555
C10A C9A 1_555 1_555
H6A C10A 1_555 1_555
C11A C6A 1_555 1_555
C12A C9A 1_555 1_555
C13A C12A 1_555 1_555
H7A C13A 1_555 1_555
H8A C13A 1_555 1_555
H9A C13A 1_555 1_555
C14A C12A 1_555 1_555
H10A C14A 1_555 1_555
H11A C14A 1_555 1_555
H12A C14A 1_555 1_555
C15A C12A 1_555 1_555
H13A C15A 1_555 1_555
H14A C15A 1_555 1_555
H15A C15A 1_555 1_555
C16A C11A 1_555 1_555
C17A C16A 1_555 1_555
H16A C17A 1_555 1_555
H17A C17A 1_555 1_555
H18A C17A 1_555 1_555
C18A C16A 1_555 1_555
H19A C18A 1_555 1_555
H20A C18A 1_555 1_555
H21A C18A 1_555 1_555
C19A C16A 1_555 1_555
H22A C19A 1_555 1_555
H23A C19A 1_555 1_555
H24A C19A 1_555 1_555
Co1_2 N1A 1_555 1_555
N1A_2 Co1 1_555 1_555
C4 C5 1_555 1_555
C10 C11 1_555 1_555
C2A C3A 1_555 1_555
C4A C5A 1_555 1_555
C6A C7A 1_555 1_555
C10A C11A 1_555 1_555

#END
