
#######################################################################
#
#                 Cambridge Crystallographic Data Centre
#                                CCDC 
#
#######################################################################
#
# If this CIF has been generated from an entry in the Cambridge 
# Structural Database, then it will include bibliographic, chemical, 
# crystal, experimental, refinement or atomic coordinate data resulting 
# from the CCDC's data processing and validation procedures.
#
#######################################################################

data_DOVBEX
_symmetry_cell_setting           triclinic
_symmetry_space_group_name_H-M   'P -1'
_symmetry_Int_Tables_number      2
_space_group_name_Hall           '-P 1'
loop_
_symmetry_equiv_pos_site_id
_symmetry_equiv_pos_as_xyz
1 x,y,z
2 -x,-y,-z
_cell_length_a                   8.7027(8)
_cell_length_b                   11.1040(9)
_cell_length_c                   11.7255(11)
_cell_angle_alpha                104.665(7)
_cell_angle_beta                 98.560(8)
_cell_angle_gamma                97.200(7)
_cell_volume                     1068.11
loop_
_atom_site_label
_atom_site_type_symbol
_atom_site_fract_x
_atom_site_fract_y
_atom_site_fract_z
Co1 Co 0.0000 0.5000 0.0000
O1 O -0.1045(2) 0.60200(19) 0.10656(18)
O2 O 0.1460(2) 0.49993(19) 0.13536(18)
N1 N 0.1301(3) 0.6503(2) -0.0108(2)
C1 C 0.0694(4) 0.7525(3) -0.0230(3)
H1 H -0.0392 0.7492 -0.0312
C2 C 0.1617(4) 0.8617(3) -0.0238(3)
H2 H 0.1153 0.9308 -0.0322
C3 C 0.3244(4) 0.8700(3) -0.0121(3)
C4 C 0.3854(4) 0.7624(3) -0.0031(3)
H3 H 0.4932 0.7628 0.0033
C5 C 0.2869(4) 0.6553(3) -0.0037(3)
H4 H 0.3299 0.5837 0.0010
C6 C 0.4222(4) 0.9904(3) -0.0046(3)
H5 H 0.3711 1.0588 -0.0064
C7 C 0.1100(4) 0.5709(3) 0.2341(3)
C8 C -0.0273(4) 0.6264(3) 0.2187(3)
C9 C -0.0753(4) 0.7018(3) 0.3197(3)
C10 C 0.0195(4) 0.7181(3) 0.4304(3)
H6 H -0.0101 0.7669 0.4979
C11 C 0.1578(4) 0.6654(3) 0.4475(3)
C12 C 0.2024(4) 0.5925(3) 0.3481(3)
H7 H 0.2937 0.5576 0.3567
C13 C -0.2260(4) 0.7589(3) 0.3041(3)
C14 C -0.2558(5) 0.8357(4) 0.4245(3)
H8 H -0.2640 0.7825 0.4771
H9 H -0.3521 0.8683 0.4118
H10 H -0.1698 0.9047 0.4602
C15 C -0.2118(5) 0.8471(3) 0.2227(3)
H11 H -0.1225 0.9132 0.2580
H12 H -0.3058 0.8835 0.2142
H13 H -0.1982 0.7998 0.1453
C16 C -0.3700(4) 0.6535(4) 0.2475(4)
H14 H -0.3597 0.6092 0.1681
H15 H -0.4643 0.6900 0.2435
H16 H -0.3758 0.5955 0.2958
C17 C 0.2510(4) 0.6903(3) 0.5755(3)
C18 C 0.3151(6) 0.8314(4) 0.6274(4)
H17 H 0.3836 0.8583 0.5782
H18 H 0.3731 0.8468 0.7075
H19 H 0.2290 0.8776 0.6291
C19 C 0.1439(5) 0.6455(4) 0.6543(3)
H20 H 0.0591 0.6930 0.6594
H21 H 0.2039 0.6580 0.7332
H22 H 0.1017 0.5574 0.6196
C20 C 0.3911(5) 0.6201(4) 0.5775(4)
H23 H 0.3539 0.5309 0.5454
H24 H 0.4464 0.6374 0.6587
H25 H 0.4611 0.6478 0.5297
N1A N 0.8699(3) 1.3497(2) 0.0108(2)
C1A C 0.9306(4) 1.2475(3) 0.0230(3)
H1A H 1.0392 1.2508 0.0312
C2A C 0.8383(4) 1.1383(3) 0.0238(3)
H2A H 0.8847 1.0692 0.0322
C3A C 0.6756(4) 1.1300(3) 0.0121(3)
C4A C 0.6146(4) 1.2376(3) 0.0031(3)
H3A H 0.5068 1.2372 -0.0033
C5A C 0.7131(4) 1.3447(3) 0.0037(3)
H4A H 0.6701 1.4163 -0.0010
C6A C 0.5778(4) 1.0096(3) 0.0046(3)
H5A H 0.6289 0.9412 0.0064
O1A O 0.1045(2) 0.39800(19) -0.10656(18)
O2A O -0.1460(2) 0.50007(19) -0.13536(18)
C7A C -0.1100(4) 0.4291(3) -0.2341(3)
C8A C 0.0273(4) 0.3736(3) -0.2187(3)
C9A C 0.0753(4) 0.2982(3) -0.3197(3)
C10A C -0.0195(4) 0.2819(3) -0.4304(3)
H6A H 0.0101 0.2331 -0.4979
C11A C -0.1578(4) 0.3346(3) -0.4475(3)
C12A C -0.2024(4) 0.4075(3) -0.3481(3)
H7A H -0.2937 0.4424 -0.3567
C13A C 0.2260(4) 0.2411(3) -0.3041(3)
C14A C 0.2558(5) 0.1643(4) -0.4245(3)
H8A H 0.2640 0.2175 -0.4771
H9A H 0.3521 0.1317 -0.4118
H10A H 0.1698 0.0953 -0.4602
C15A C 0.2118(5) 0.1529(3) -0.2227(3)
H11A H 0.1225 0.0868 -0.2580
H12A H 0.3058 0.1165 -0.2142
H13A H 0.1982 0.2002 -0.1453
C16A C 0.3700(4) 0.3465(4) -0.2475(4)
H14A H 0.3597 0.3908 -0.1681
H15A H 0.4643 0.3100 -0.2435
H16A H 0.3758 0.4045 -0.2958
C17A C -0.2510(4) 0.3097(3) -0.5755(3)
C18A C -0.3151(6) 0.1686(4) -0.6274(4)
H17A H -0.3836 0.1417 -0.5782
H18A H -0.3731 0.1532 -0.7075
H19A H -0.2290 0.1224 -0.6291
C19A C -0.1439(5) 0.3545(4) -0.6543(3)
H20A H -0.0591 0.3070 -0.6594
H21A H -0.2039 0.3420 -0.7332
H22A H -0.1017 0.4426 -0.6196
C20A C -0.3911(5) 0.3799(4) -0.5775(4)
H23A H -0.3539 0.4691 -0.5454
H24A H -0.4464 0.3626 -0.6587
H25A H -0.4611 0.3522 -0.5297
Co1_2 Co 1.0000 1.5000 0.0000
N1A_2 N -0.1301(3) 0.3497(2) 0.0108(2)
N2 N 0.8079(6) 0.8902(4) 0.7561(4)
C21 C 0.7174(6) 1.0832(4) 0.6993(4)
H26 H 0.6780 1.0617 0.6145
H27 H 0.8053 1.1513 0.7208
H28 H 0.6356 1.1089 0.7419
C22 C 0.7674(6) 0.9751(4) 0.7304(4)
O3 O 0.3244(4) 0.3031(3) 0.1303(3)
H29 H 0.2930 0.2642 0.1786
H30 H 0.2823 0.3689 0.1355
loop_
_geom_bond_atom_site_label_1
_geom_bond_atom_site_label_2
_geom_bond_site_symmetry_1
_geom_bond_site_symmetry_2
Co1 O1 1_555 1_555
O1 C8 1_555 1_555
O2 Co1 1_555 1_555
N1 Co1 1_555 1_555
C1 N1 1_555 1_555
H1 C1 1_555 1_555
C2 C1 1_555 1_555
H2 C2 1_555 1_555
C3 C2 1_555 1_555
C4 C3 1_555 1_555
H3 C4 1_555 1_555
C5 N1 1_555 1_555
H4 C5 1_555 1_555
C6 C3 1_555 1_555
H5 C6 1_555 1_555
C7 O2 1_555 1_555
C8 C7 1_555 1_555
C9 C8 1_555 1_555
C10 C9 1_555 1_555
H6 C10 1_555 1_555
C11 C10 1_555 1_555
C12 C7 1_555 1_555
H7 C12 1_555 1_555
C13 C9 1_555 1_555
C14 C13 1_555 1_555
H8 C14 1_555 1_555
H9 C14 1_555 1_555
H10 C14 1_555 1_555
C15 C13 1_555 1_555
H11 C15 1_555 1_555
H12 C15 1_555 1_555
H13 C15 1_555 1_555
C16 C13 1_555 1_555
H14 C16 1_555 1_555
H15 C16 1_555 1_555
H16 C16 1_555 1_555
C17 C11 1_555 1_555
C18 C17 1_555 1_555
H17 C18 1_555 1_555
H18 C18 1_555 1_555
H19 C18 1_555 1_555
C19 C17 1_555 1_555
H20 C19 1_555 1_555
H21 C19 1_555 1_555
H22 C19 1_555 1_555
C20 C17 1_555 1_555
H23 C20 1_555 1_555
H24 C20 1_555 1_555
H25 C20 1_555 1_555
N2 C22 1_555 1_555
C21 H26 1_555 1_555
H27 C21 1_555 1_555
H28 C21 1_555 1_555
C22 C21 1_555 1_555
O3 H29 1_555 1_555
H30 O3 1_555 1_555
N1A C1A 1_555 1_555
C1A H1A 1_555 1_555
C2A C1A 1_555 1_555
H2A C2A 1_555 1_555
C3A C2A 1_555 1_555
C4A C3A 1_555 1_555
H3A C4A 1_555 1_555
C5A N1A 1_555 1_555
H4A C5A 1_555 1_555
C6A C6 1_555 1_555
H5A C6A 1_555 1_555
O1A Co1 1_555 1_555
O2A Co1 1_555 1_555
C7A O2A 1_555 1_555
C8A O1A 1_555 1_555
C9A C8A 1_555 1_555
C10A C9A 1_555 1_555
H6A C10A 1_555 1_555
C11A C10A 1_555 1_555
C12A C7A 1_555 1_555
H7A C12A 1_555 1_555
C13A C9A 1_555 1_555
C14A C13A 1_555 1_555
H8A C14A 1_555 1_555
H9A C14A 1_555 1_555
H10A C14A 1_555 1_555
C15A C13A 1_555 1_555
H11A C15A 1_555 1_555
H12A C15A 1_555 1_555
H13A C15A 1_555 1_555
C16A C13A 1_555 1_555
H14A C16A 1_555 1_555
H15A C16A 1_555 1_555
H16A C16A 1_555 1_555
C17A C11A 1_555 1_555
C18A C17A 1_555 1_555
H17A C18A 1_555 1_555
H18A C18A 1_555 1_555
H19A C18A 1_555 1_555
C19A C17A 1_555 1_555
H20A C19A 1_555 1_555
H21A C19A 1_555 1_555
H22A C19A 1_555 1_555
C20A C17A 1_555 1_555
H23A C20A 1_555 1_555
H24A C20A 1_555 1_555
H25A C20A 1_555 1_555
Co1_2 N1A 1_555 1_555
N1A_2 Co1 1_555 1_555
C4 C5 1_555 1_555
C11 C12 1_555 1_555
C3A C6A 1_555 1_555
C4A C5A 1_555 1_555
C7A C8A 1_555 1_555
C11A C12A 1_555 1_555

#END
