
#######################################################################
#
#                 Cambridge Crystallographic Data Centre
#                                CCDC 
#
#######################################################################
#
# If this CIF has been generated from an entry in the Cambridge 
# Structural Database, then it will include bibliographic, chemical, 
# crystal, experimental, refinement or atomic coordinate data resulting 
# from the CCDC's data processing and validation procedures.
#
#######################################################################

data_DOVBIB
_symmetry_cell_setting           triclinic
_symmetry_space_group_name_H-M   'P -1'
_symmetry_Int_Tables_number      2
_space_group_name_Hall           '-P 1'
loop_
_symmetry_equiv_pos_site_id
_symmetry_equiv_pos_as_xyz
1 x,y,z
2 -x,-y,-z
_cell_length_a                   8.5902(15)
_cell_length_b                   11.072(2)
_cell_length_c                   11.686(2)
_cell_angle_alpha                103.247(6)
_cell_angle_beta                 97.139(6)
_cell_angle_gamma                99.591(5)
_cell_volume                     1051.37
loop_
_atom_site_label
_atom_site_type_symbol
_atom_site_fract_x
_atom_site_fract_y
_atom_site_fract_z
Co1 Co 0.5000 0.0000 0.0000
O1 O 0.3971(4) 0.1028(3) 0.1058(3)
O2 O 0.6464(4) 0.0015(3) 0.1342(3)
N1 N 0.3637(5) -0.1506(4) 0.0162(3)
N2 N 0.0683(4) -0.4897(4) 0.0288(4)
C1 C 0.4235(6) -0.2512(5) 0.0368(4)
H1 H 0.5340 -0.2450 0.0476
C2 C 0.3280(6) -0.3616(5) 0.0422(5)
H2 H 0.3724 -0.4288 0.0569
C3 C 0.1652(6) -0.3699(5) 0.0253(4)
C4 C 0.1011(6) -0.2692(5) 0.0109(5)
H3 H -0.0088 -0.2734 0.0045
C5 C 0.2041(6) -0.1586(5) 0.0059(4)
H4 H 0.1613 -0.0893 -0.0047
C6 C 0.4751(5) 0.1265(4) 0.2179(4)
C7 C 0.6130(6) 0.0729(4) 0.2327(4)
C8 C 0.7046(6) 0.0950(4) 0.3443(4)
H5 H 0.7956 0.0604 0.3524
C9 C 0.6623(6) 0.1676(4) 0.4434(4)
C10 C 0.5240(6) 0.2198(4) 0.4274(5)
H6 H 0.4961 0.2693 0.4945
C11 C 0.4279(5) 0.2019(4) 0.3185(4)
C12 C 0.7550(6) 0.1919(5) 0.5708(4)
C13 C 0.6438(6) 0.1441(5) 0.6518(5)
H7 H 0.7048 0.1536 0.7291
H8 H 0.5961 0.0564 0.6172
H9 H 0.5611 0.1926 0.6597
C14 C 0.8237(7) 0.3354(5) 0.6195(5)
H10 H 0.8813 0.3517 0.6991
H11 H 0.7376 0.3807 0.6205
H12 H 0.8949 0.3631 0.5693
C15 C 0.8961(7) 0.1219(6) 0.5727(5)
H13 H 0.9717 0.1540 0.5275
H14 H 0.8566 0.0329 0.5381
H15 H 0.9476 0.1352 0.6536
C16 C 0.2798(6) 0.2635(5) 0.3033(5)
C17 C 0.2515(7) 0.3395(6) 0.4234(5)
H16 H 0.1527 0.3684 0.4123
H17 H 0.3382 0.4111 0.4553
H18 H 0.2458 0.2866 0.4780
C18 C 0.1304(6) 0.1548(5) 0.2476(5)
H19 H 0.1065 0.1077 0.3049
H20 H 0.1525 0.0995 0.1780
H21 H 0.0402 0.1906 0.2256
C19 C 0.3018(6) 0.3500(5) 0.2238(5)
H22 H 0.2096 0.3877 0.2154
H23 H 0.3147 0.3029 0.1469
H24 H 0.3954 0.4153 0.2577
N1A N -0.3637(5) -0.8494(4) -0.0162(3)
N2A N -0.0683(4) -0.5103(4) -0.0288(4)
C1A C -0.4235(6) -0.7488(5) -0.0368(4)
H1A H -0.5340 -0.7550 -0.0476
C2A C -0.3280(6) -0.6384(5) -0.0422(5)
H2A H -0.3724 -0.5712 -0.0569
C3A C -0.1652(6) -0.6301(5) -0.0253(4)
C4A C -0.1011(6) -0.7308(5) -0.0109(5)
H3A H 0.0088 -0.7266 -0.0045
C5A C -0.2041(6) -0.8414(5) -0.0059(4)
H4A H -0.1613 -0.9107 0.0047
O1A O 0.6029(4) -0.1028(3) -0.1058(3)
O2A O 0.3536(4) -0.0015(3) -0.1342(3)
C6A C 0.5249(5) -0.1265(4) -0.2179(4)
C7A C 0.3870(6) -0.0729(4) -0.2327(4)
C8A C 0.2954(6) -0.0950(4) -0.3443(4)
H5A H 0.2044 -0.0604 -0.3524
C9A C 0.3377(6) -0.1676(4) -0.4434(4)
C10A C 0.4760(6) -0.2198(4) -0.4274(5)
H6A H 0.5039 -0.2693 -0.4945
C11A C 0.5721(5) -0.2019(4) -0.3185(4)
C12A C 0.2450(6) -0.1919(5) -0.5708(4)
C13A C 0.3562(6) -0.1441(5) -0.6518(5)
H7A H 0.2952 -0.1536 -0.7291
H8A H 0.4039 -0.0564 -0.6172
H9A H 0.4389 -0.1926 -0.6597
C14A C 0.1763(7) -0.3354(5) -0.6195(5)
H10A H 0.1187 -0.3517 -0.6991
H11A H 0.2624 -0.3807 -0.6205
H12A H 0.1051 -0.3631 -0.5693
C15A C 0.1039(7) -0.1219(6) -0.5727(5)
H13A H 0.0283 -0.1540 -0.5275
H14A H 0.1434 -0.0329 -0.5381
H15A H 0.0524 -0.1352 -0.6536
C16A C 0.7202(6) -0.2635(5) -0.3033(5)
C17A C 0.7485(7) -0.3395(6) -0.4234(5)
H16A H 0.8473 -0.3684 -0.4123
H17A H 0.6618 -0.4111 -0.4553
H18A H 0.7542 -0.2866 -0.4780
C18A C 0.8696(6) -0.1548(5) -0.2476(5)
H19A H 0.8935 -0.1077 -0.3049
H20A H 0.8475 -0.0995 -0.1780
H21A H 0.9598 -0.1906 -0.2256
C19A C 0.6982(6) -0.3500(5) -0.2238(5)
H22A H 0.7904 -0.3877 -0.2154
H23A H 0.6853 -0.3029 -0.1469
H24A H 0.6046 -0.4153 -0.2577
Co1_2 Co -0.5000 -1.0000 0.0000
N1A_2 N 0.6363(5) 0.1506(4) -0.0162(3)
O3 O 0.8404(10) 0.8278(10) 0.1365(12)
H25 H 0.8231 0.9025 0.1450
H26 H 0.7574 0.7792 0.1450
N3 N 0.6996(9) 0.6141(6) 0.2264(8)
C20 C 0.7897(8) 0.4238(6) 0.2922(6)
H27 H 0.7125 0.3475 0.2535
H28 H 0.7977 0.4383 0.3771
H29 H 0.8922 0.4155 0.2702
C21 C 0.7389(8) 0.5309(7) 0.2551(6)
loop_
_geom_bond_atom_site_label_1
_geom_bond_atom_site_label_2
_geom_bond_site_symmetry_1
_geom_bond_site_symmetry_2
Co1 O1 1_555 1_555
O1 C6 1_555 1_555
O2 Co1 1_555 1_555
N1 Co1 1_555 1_555
N2 C3 1_555 1_555
C1 N1 1_555 1_555
H1 C1 1_555 1_555
C2 C1 1_555 1_555
H2 C2 1_555 1_555
C3 C2 1_555 1_555
C4 C3 1_555 1_555
H3 C4 1_555 1_555
C5 N1 1_555 1_555
H4 C5 1_555 1_555
C6 C7 1_555 1_555
C7 O2 1_555 1_555
C8 C7 1_555 1_555
H5 C8 1_555 1_555
C9 C8 1_555 1_555
C10 C9 1_555 1_555
H6 C10 1_555 1_555
C11 C6 1_555 1_555
C12 C9 1_555 1_555
C13 C12 1_555 1_555
H7 C13 1_555 1_555
H8 C13 1_555 1_555
H9 C13 1_555 1_555
C14 C12 1_555 1_555
H10 C14 1_555 1_555
H11 C14 1_555 1_555
H12 C14 1_555 1_555
C15 C12 1_555 1_555
H13 C15 1_555 1_555
H14 C15 1_555 1_555
H15 C15 1_555 1_555
C16 C11 1_555 1_555
C17 C16 1_555 1_555
H16 C17 1_555 1_555
H17 C17 1_555 1_555
H18 C17 1_555 1_555
C18 C16 1_555 1_555
H19 C18 1_555 1_555
H20 C18 1_555 1_555
H21 C18 1_555 1_555
C19 C16 1_555 1_555
H22 C19 1_555 1_555
H23 C19 1_555 1_555
H24 C19 1_555 1_555
O3 H25 1_555 1_555
H26 O3 1_555 1_555
N3 C21 1_555 1_555
C20 H27 1_555 1_555
H28 C20 1_555 1_555
H29 C20 1_555 1_555
C21 C20 1_555 1_555
N1A C1A 1_555 1_555
N2A N2 1_555 1_555
C1A H1A 1_555 1_555
C2A C1A 1_555 1_555
H2A C2A 1_555 1_555
C3A N2A 1_555 1_555
C4A C3A 1_555 1_555
H3A C4A 1_555 1_555
C5A N1A 1_555 1_555
H4A C5A 1_555 1_555
O1A Co1 1_555 1_555
O2A Co1 1_555 1_555
C6A O1A 1_555 1_555
C7A O2A 1_555 1_555
C8A C7A 1_555 1_555
H5A C8A 1_555 1_555
C9A C8A 1_555 1_555
C10A C9A 1_555 1_555
H6A C10A 1_555 1_555
C11A C6A 1_555 1_555
C12A C9A 1_555 1_555
C13A C12A 1_555 1_555
H7A C13A 1_555 1_555
H8A C13A 1_555 1_555
H9A C13A 1_555 1_555
C14A C12A 1_555 1_555
H10A C14A 1_555 1_555
H11A C14A 1_555 1_555
H12A C14A 1_555 1_555
C15A C12A 1_555 1_555
H13A C15A 1_555 1_555
H14A C15A 1_555 1_555
H15A C15A 1_555 1_555
C16A C11A 1_555 1_555
C17A C16A 1_555 1_555
H16A C17A 1_555 1_555
H17A C17A 1_555 1_555
H18A C17A 1_555 1_555
C18A C16A 1_555 1_555
H19A C18A 1_555 1_555
H20A C18A 1_555 1_555
H21A C18A 1_555 1_555
C19A C16A 1_555 1_555
H22A C19A 1_555 1_555
H23A C19A 1_555 1_555
H24A C19A 1_555 1_555
Co1_2 N1A 1_555 1_555
N1A_2 Co1 1_555 1_555
C4 C5 1_555 1_555
C10 C11 1_555 1_555
C2A C3A 1_555 1_555
C4A C5A 1_555 1_555
C6A C7A 1_555 1_555
C10A C11A 1_555 1_555

#END
