
#######################################################################
#
#                 Cambridge Crystallographic Data Centre
#                                CCDC 
#
#######################################################################
#
# If this CIF has been generated from an entry in the Cambridge 
# Structural Database, then it will include bibliographic, chemical, 
# crystal, experimental, refinement or atomic coordinate data resulting 
# from the CCDC's data processing and validation procedures.
#
#######################################################################

data_DOVQEM
_symmetry_cell_setting           monoclinic
_symmetry_space_group_name_H-M   'C 2/c'
_symmetry_Int_Tables_number      15
_space_group_name_Hall           '-C 2yn'
loop_
_symmetry_equiv_pos_site_id
_symmetry_equiv_pos_as_xyz
1 x,y,z
2 -x,y,1/2-z
3 1/2+x,1/2+y,z
4 1/2-x,1/2+y,1/2-z
5 -x,-y,-z
6 x,-y,1/2+z
7 1/2-x,1/2-y,-z
8 1/2+x,1/2-y,1/2+z
_cell_length_a                   44.1285(14)
_cell_length_b                   4.23210(10)
_cell_length_c                   19.1234(6)
_cell_angle_alpha                90
_cell_angle_beta                 99.0770(10)
_cell_angle_gamma                90
_cell_volume                     3526.69
loop_
_atom_site_label
_atom_site_type_symbol
_atom_site_fract_x
_atom_site_fract_y
_atom_site_fract_z
Cu1 Cu 0.15378(2) 0.72380(7) 0.46036(2)
Cu2 Cu 0.09977(2) 0.27063(7) 0.33931(2)
I1 I 0.16279(2) 0.20899(3) 0.38690(2)
I2 I 0.08322(2) -0.20938(3) 0.26201(2)
N1 N 0.16673(4) 0.6832(4) 0.56958(10)
N2 N 0.09727(4) 0.6874(4) 0.52808(10)
N3 N 0.10861(4) 0.6108(5) 0.46961(9)
N4 N 0.08879(4) 0.4159(4) 0.43300(9)
C1 C 0.21782(5) 0.5206(6) 0.55683(12)
H1 H 0.2153 0.6123 0.5109
C2 C 0.24492(6) 0.3765(7) 0.58388(13)
H2 H 0.2614 0.3776 0.5575
C3 C 0.24860(6) 0.2261(6) 0.65064(14)
H3 H 0.2672 0.1187 0.6678
C4 C 0.22551(6) 0.2346(6) 0.69051(13)
H4 H 0.2281 0.1320 0.7352
C5 C 0.19764(5) 0.3957(6) 0.66568(11)
C6 C 0.19356(5) 0.5332(5) 0.59707(11)
C7 C 0.17417(6) 0.4295(6) 0.70678(12)
H5 H 0.1761 0.3357 0.7524
C8 C 0.14854(5) 0.5989(6) 0.68045(11)
H6 H 0.1330 0.6355 0.7086
C9 C 0.14551(5) 0.7184(5) 0.61107(12)
C10 C 0.11642(5) 0.8896(6) 0.57996(11)
H7 H 0.1048 0.9480 0.6183
H8 H 0.1217 1.0863 0.5566
C11 C 0.07000(5) 0.5448(6) 0.52953(11)
H9 H 0.0574 0.5607 0.5653
C12 C 0.06450(5) 0.3712(5) 0.46781(11)
C13 C 0.03758(5) 0.1785(6) 0.43584(12)
H10 H 0.0263 0.1050 0.4736
H11 H 0.0448 -0.0099 0.4125
C14 C 0.01590(5) 0.3728(6) 0.38109(13)
H12 H 0.0060 0.5388 0.4062
H13 H 0.0282 0.4794 0.3490
C15 C -0.00878(6) 0.1788(6) 0.33726(12)
H14 H -0.0207 0.3130 0.3003
H15 H 0.0007 0.0049 0.3136
O1 O -0.02873(4) 0.0515(5) 0.38239(9)
H16 H -0.0423 -0.0593 0.3583
Cu1_2 Cu 0.15378(2) -0.27620(7) 0.46036(2)
Cu2_2 Cu 0.09977(2) -0.72937(7) 0.33931(2)
I1_2 I 0.16279(2) 1.20899(3) 0.38690(2)
I2_2 I 0.08322(2) 0.79062(3) 0.26201(2)
loop_
_geom_bond_atom_site_label_1
_geom_bond_atom_site_label_2
_geom_bond_site_symmetry_1
_geom_bond_site_symmetry_2
Cu1 I1 1_555 1_555
Cu2 I1 1_555 1_555
I1 Cu1_2 1_555 1_555
I2 Cu2 1_555 1_555
N1 Cu1 1_555 1_555
N2 N3 1_555 1_555
N3 Cu1 1_555 1_555
N4 Cu2 1_555 1_555
C1 H1 1_555 1_555
C2 C1 1_555 1_555
H2 C2 1_555 1_555
C3 C2 1_555 1_555
H3 C3 1_555 1_555
C4 C3 1_555 1_555
H4 C4 1_555 1_555
C5 C4 1_555 1_555
C6 N1 1_555 1_555
C7 C5 1_555 1_555
H5 C7 1_555 1_555
C8 C7 1_555 1_555
H6 C8 1_555 1_555
C9 N1 1_555 1_555
C10 N2 1_555 1_555
H7 C10 1_555 1_555
H8 C10 1_555 1_555
C11 N2 1_555 1_555
H9 C11 1_555 1_555
C12 N4 1_555 1_555
C13 C12 1_555 1_555
H10 C13 1_555 1_555
H11 C13 1_555 1_555
C14 C13 1_555 1_555
H12 C14 1_555 1_555
H13 C14 1_555 1_555
C15 C14 1_555 1_555
H14 C15 1_555 1_555
H15 C15 1_555 1_555
O1 C15 1_555 1_555
H16 O1 1_555 1_555
Cu2_2 I2 1_555 1_555
I1_2 Cu1 1_555 1_555
I2_2 Cu2 1_555 1_555
N3 N4 1_555 1_555
C1 C6 1_555 1_555
C5 C6 1_555 1_555
C8 C9 1_555 1_555
C9 C10 1_555 1_555
C11 C12 1_555 1_555

#END
