
#######################################################################
#
#                 Cambridge Crystallographic Data Centre
#                                CCDC 
#
#######################################################################
#
# If this CIF has been generated from an entry in the Cambridge 
# Structural Database, then it will include bibliographic, chemical, 
# crystal, experimental, refinement or atomic coordinate data resulting 
# from the CCDC's data processing and validation procedures.
#
#######################################################################

data_DOVWUH
_symmetry_cell_setting           triclinic
_symmetry_space_group_name_H-M   'P -1'
_symmetry_Int_Tables_number      2
_space_group_name_Hall           '-P 1'
loop_
_symmetry_equiv_pos_site_id
_symmetry_equiv_pos_as_xyz
1 x,y,z
2 -x,-y,-z
_cell_length_a                   10.396(6)
_cell_length_b                   11.574(6)
_cell_length_c                   11.638(5)
_cell_angle_alpha                77.45(6)
_cell_angle_beta                 64.28(6)
_cell_angle_gamma                69.76(4)
_cell_volume                     1179.94
loop_
_atom_site_label
_atom_site_type_symbol
_atom_site_fract_x
_atom_site_fract_y
_atom_site_fract_z
K1 K 0.17933(11) 0.80327(10) 0.81371(11)
Cl1 Cl 0.09936(13) 0.58581(13) 0.50724(13)
Cl2 Cl 0.32010(14) 0.35458(12) 0.35019(13)
Cl3 Cl 0.63814(13) 0.24809(12) 0.63816(13)
Cl4 Cl 0.41751(13) 0.48226(12) 0.79464(12)
O1 O 0.1892(3) 0.6233(3) 0.6971(3)
O2 O 0.5756(3) 0.2342(3) 0.4212(3)
O3 O 0.0000 1.0000 1.0000
O4 O 0.0080(3) 0.9640(3) 0.6784(3)
O5 O 0.2155(4) 1.0492(3) 0.7098(3)
O6 O 0.3862(4) 0.8917(3) 0.8503(4)
O7 O 0.2317(4) 0.7433(4) 1.0520(3)
O8 O 0.0239(4) 0.6568(3) 1.0337(4)
O9 O -0.1384(3) 0.8030(3) 0.8817(4)
C1 C 0.2773(5) 0.5336(4) 0.6342(5)
C2 C 0.2575(5) 0.4974(4) 0.5318(5)
C3 C 0.3506(5) 0.4003(4) 0.4662(5)
C4 C 0.4857(5) 0.3237(4) 0.4884(5)
C5 C 0.4980(5) 0.3532(4) 0.5948(5)
C6 C 0.4015(5) 0.4515(4) 0.6631(5)
C7 C 0.0234(6) 1.0847(5) 0.6388(6)
H1 H -0.0411 1.1387 0.7100
H2 H -0.0078 1.1195 0.5663
C8 C 0.1810(6) 1.0796(5) 0.5994(5)
H3 H 0.2469 1.0165 0.5372
H4 H 0.1968 1.1607 0.5579
C9 C 0.3668(6) 1.0401(5) 0.6759(6)
H5 H 0.3876 1.1187 0.6307
H6 H 0.4322 0.9734 0.6179
C10 C 0.3972(6) 1.0130(6) 0.7934(7)
H7 H 0.4984 1.0179 0.7721
H8 H 0.3246 1.0752 0.8551
C11 C 0.4017(6) 0.8625(6) 0.9671(6)
H9 H 0.3264 0.9249 1.0274
H10 H 0.5018 0.8635 0.9548
C12 C 0.3820(7) 0.7380(6) 1.0214(6)
H11 H 0.4512 0.6763 0.9584
H12 H 0.4041 0.7132 1.0994
C13 C 0.1992(8) 0.6333(5) 1.1212(6)
H13 H 0.2153 0.6195 1.2016
H14 H 0.2654 0.5618 1.0698
C14 C 0.0418(8) 0.6459(5) 1.1504(6)
H15 H 0.0138 0.5726 1.2046
H16 H -0.0239 0.7200 1.1978
C15 C -0.1203(6) 0.6546(5) 1.0568(6)
H17 H -0.1961 0.7189 1.1147
H18 H -0.1344 0.5732 1.0986
C16 C -0.1385(6) 0.6777(5) 0.9332(6)
H19 H -0.0559 0.6192 0.8720
H20 H -0.2334 0.6646 0.9467
C17 C -0.1461(6) 0.8285(5) 0.7609(6)
H21 H -0.2402 0.8190 0.7676
H22 H -0.0619 0.7697 0.7010
C18 C -0.1393(5) 0.9578(5) 0.7116(5)
H23 H -0.1649 0.9826 0.6355
H24 H -0.2122 1.0153 0.7781
K1A K 0.82067(11) 0.19673(10) 0.18629(11)
K1A_2 K -0.17933(11) 1.19673(10) 1.18629(11)
Cl1A Cl 0.90064(13) 0.41419(13) 0.49276(13)
Cl2A Cl 0.67990(14) 0.64542(12) 0.64981(13)
Cl3A Cl 0.36186(13) 0.75191(12) 0.36184(13)
Cl4A Cl 0.58249(13) 0.51774(12) 0.20536(12)
O1A O 0.8108(3) 0.3767(3) 0.3029(3)
O2A O 0.4244(3) 0.7658(3) 0.5788(3)
O3_2 O 1.0000 0.0000 0.0000
O4A O 0.9920(3) 0.0360(3) 0.3216(3)
O5A O 0.7845(4) -0.0492(3) 0.2902(3)
O6A O 0.6138(4) 0.1083(3) 0.1497(4)
O7A O 0.7683(4) 0.2567(4) -0.0520(3)
O8A O 0.9761(4) 0.3432(3) -0.0337(4)
O9A O 1.1384(3) 0.1970(3) 0.1183(4)
C1A C 0.7227(5) 0.4664(4) 0.3658(5)
C2A C 0.7425(5) 0.5026(4) 0.4682(5)
C3A C 0.6494(5) 0.5997(4) 0.5338(5)
C4A C 0.5143(5) 0.6763(4) 0.5116(5)
C5A C 0.5020(5) 0.6468(4) 0.4052(5)
C6A C 0.5985(5) 0.5485(4) 0.3369(5)
C7A C 0.9766(6) -0.0847(5) 0.3612(6)
H1A H 1.0411 -0.1387 0.2900
H2A H 1.0078 -0.1195 0.4337
C8A C 0.8190(6) -0.0796(5) 0.4006(5)
H3A H 0.7531 -0.0165 0.4628
H4A H 0.8032 -0.1607 0.4421
C9A C 0.6332(6) -0.0401(5) 0.3241(6)
H5A H 0.6124 -0.1187 0.3693
H6A H 0.5678 0.0266 0.3821
C10A C 0.6028(6) -0.0130(6) 0.2066(7)
H7A H 0.5016 -0.0179 0.2279
H8A H 0.6754 -0.0752 0.1449
C11A C 0.5983(6) 0.1375(6) 0.0329(6)
H9A H 0.6736 0.0751 -0.0274
H10A H 0.4982 0.1365 0.0452
C12A C 0.6180(7) 0.2620(6) -0.0214(6)
H11A H 0.5488 0.3237 0.0416
H12A H 0.5959 0.2868 -0.0994
C13A C 0.8008(8) 0.3667(5) -0.1212(6)
H13A H 0.7847 0.3805 -0.2016
H14A H 0.7346 0.4382 -0.0698
C14A C 0.9582(8) 0.3541(5) -0.1504(6)
H15A H 0.9862 0.4274 -0.2046
H16A H 1.0239 0.2800 -0.1978
C15A C 1.1203(6) 0.3454(5) -0.0568(6)
H17A H 1.1961 0.2811 -0.1147
H18A H 1.1344 0.4268 -0.0986
C16A C 1.1385(6) 0.3223(5) 0.0668(6)
H19A H 1.0559 0.3808 0.1280
H20A H 1.2334 0.3354 0.0533
C17A C 1.1461(6) 0.1715(5) 0.2391(6)
H21A H 1.2402 0.1810 0.2324
H22A H 1.0619 0.2303 0.2990
C18A C 1.1393(5) 0.0422(5) 0.2884(5)
H23A H 1.1649 0.0174 0.3645
H24A H 1.2122 -0.0153 0.2219
loop_
_geom_bond_atom_site_label_1
_geom_bond_atom_site_label_2
_geom_bond_site_symmetry_1
_geom_bond_site_symmetry_2
K1 Cl4 1_555 1_555
Cl1 C2 1_555 1_555
Cl2 C3 1_555 1_555
Cl3 C5 1_555 1_555
Cl4 C6 1_555 1_555
O1 K1 1_555 1_555
O2 C4 1_555 1_555
O3 K1 1_555 1_555
O4 K1 1_555 1_555
O5 K1 1_555 1_555
O6 K1 1_555 1_555
O7 K1 1_555 1_555
O8 K1 1_555 1_555
O9 K1 1_555 1_555
C1 O1 1_555 1_555
C2 C1 1_555 1_555
C3 C2 1_555 1_555
C4 C3 1_555 1_555
C5 C4 1_555 1_555
C6 C1 1_555 1_555
C7 O4 1_555 1_555
H1 C7 1_555 1_555
H2 C7 1_555 1_555
C8 O5 1_555 1_555
H3 C8 1_555 1_555
H4 C8 1_555 1_555
C9 O5 1_555 1_555
H5 C9 1_555 1_555
H6 C9 1_555 1_555
C10 O6 1_555 1_555
H7 C10 1_555 1_555
H8 C10 1_555 1_555
C11 O6 1_555 1_555
H9 C11 1_555 1_555
H10 C11 1_555 1_555
C12 O7 1_555 1_555
H11 C12 1_555 1_555
H12 C12 1_555 1_555
C13 O7 1_555 1_555
H13 C13 1_555 1_555
H14 C13 1_555 1_555
C14 O8 1_555 1_555
H15 C14 1_555 1_555
H16 C14 1_555 1_555
C15 O8 1_555 1_555
H17 C15 1_555 1_555
H18 C15 1_555 1_555
C16 O9 1_555 1_555
H19 C16 1_555 1_555
H20 C16 1_555 1_555
C17 O9 1_555 1_555
H21 C17 1_555 1_555
H22 C17 1_555 1_555
C18 O4 1_555 1_555
H23 C18 1_555 1_555
H24 C18 1_555 1_555
K1A O2 1_555 1_555
K1A_2 O3 1_555 1_555
Cl1A C2A 1_555 1_555
Cl2A C3A 1_555 1_555
Cl3A C5A 1_555 1_555
Cl4A K1A 1_555 1_555
O1A K1A 1_555 1_555
O2A K1 1_555 1_555
O3_2 K1A 1_555 1_555
O4A K1A 1_555 1_555
O5A K1A 1_555 1_555
O6A K1A 1_555 1_555
O7A K1A 1_555 1_555
O8A K1A 1_555 1_555
O9A K1A 1_555 1_555
C1A O1A 1_555 1_555
C2A C1A 1_555 1_555
C3A C2A 1_555 1_555
C4A O2A 1_555 1_555
C5A C4A 1_555 1_555
C6A Cl4A 1_555 1_555
C7A O4A 1_555 1_555
H1A C7A 1_555 1_555
H2A C7A 1_555 1_555
C8A O5A 1_555 1_555
H3A C8A 1_555 1_555
H4A C8A 1_555 1_555
C9A O5A 1_555 1_555
H5A C9A 1_555 1_555
H6A C9A 1_555 1_555
C10A O6A 1_555 1_555
H7A C10A 1_555 1_555
H8A C10A 1_555 1_555
C11A O6A 1_555 1_555
H9A C11A 1_555 1_555
H10A C11A 1_555 1_555
C12A O7A 1_555 1_555
H11A C12A 1_555 1_555
H12A C12A 1_555 1_555
C13A O7A 1_555 1_555
H13A C13A 1_555 1_555
H14A C13A 1_555 1_555
C14A O8A 1_555 1_555
H15A C14A 1_555 1_555
H16A C14A 1_555 1_555
C15A O8A 1_555 1_555
H17A C15A 1_555 1_555
H18A C15A 1_555 1_555
C16A O9A 1_555 1_555
H19A C16A 1_555 1_555
H20A C16A 1_555 1_555
C17A O9A 1_555 1_555
H21A C17A 1_555 1_555
H22A C17A 1_555 1_555
C18A O4A 1_555 1_555
H23A C18A 1_555 1_555
H24A C18A 1_555 1_555
C5 C6 1_555 1_555
C7 C8 1_555 1_555
C9 C10 1_555 1_555
C11 C12 1_555 1_555
C13 C14 1_555 1_555
C15 C16 1_555 1_555
C17 C18 1_555 1_555
C1A C6A 1_555 1_555
C3A C4A 1_555 1_555
C5A C6A 1_555 1_555
C7A C8A 1_555 1_555
C9A C10A 1_555 1_555
C11A C12A 1_555 1_555
C13A C14A 1_555 1_555
C15A C16A 1_555 1_555
C17A C18A 1_555 1_555

#END
