
#######################################################################
#
#                 Cambridge Crystallographic Data Centre
#                                CCDC 
#
#######################################################################
#
# If this CIF has been generated from an entry in the Cambridge 
# Structural Database, then it will include bibliographic, chemical, 
# crystal, experimental, refinement or atomic coordinate data resulting 
# from the CCDC's data processing and validation procedures.
#
#######################################################################

data_DOWGUT
_symmetry_cell_setting           monoclinic
_symmetry_space_group_name_H-M   'C 2/c'
_symmetry_Int_Tables_number      15
_space_group_name_Hall           '-C 2yn'
loop_
_symmetry_equiv_pos_site_id
_symmetry_equiv_pos_as_xyz
1 x,y,z
2 -x,y,1/2-z
3 1/2+x,1/2+y,z
4 1/2-x,1/2+y,1/2-z
5 -x,-y,-z
6 x,-y,1/2+z
7 1/2-x,1/2-y,-z
8 1/2+x,1/2-y,1/2+z
_cell_length_a                   26.6804(14)
_cell_length_b                   9.0407(5)
_cell_length_c                   17.7821(10)
_cell_angle_alpha                90
_cell_angle_beta                 107.089(3)
_cell_angle_gamma                90
_cell_volume                     4099.84
loop_
_atom_site_label
_atom_site_type_symbol
_atom_site_fract_x
_atom_site_fract_y
_atom_site_fract_z
Co1 Co 0.5000 0.68357(5) 0.2500
N1 N 0.49446(7) 0.5178(2) 0.33257(11)
N2 N 0.53247(7) 0.5224(2) 0.40276(11)
H1 H 0.5573(8) 0.590(2) 0.4109(14)
C1 C 0.53005(8) 0.4070(3) 0.44859(13)
C2 C 0.48789(9) 0.3226(3) 0.40813(13)
C3 C 0.46717(8) 0.3941(3) 0.33580(13)
C4 C 0.42165(9) 0.3476(3) 0.26851(15)
H2 H 0.3896 0.3502 0.2846
H3 H 0.4275 0.2468 0.2526
H4 H 0.4181 0.4152 0.2241
C5 C 0.56969(9) 0.3863(3) 0.52670(14)
H5 H 0.5925 0.3028 0.5241
H6 H 0.5518 0.3661 0.5665
H7 H 0.5908 0.4763 0.5410
C6 C 0.46805(9) 0.1869(3) 0.43958(14)
H8 H 0.4924 0.1640 0.4921
H9 H 0.4336 0.2105 0.4469
C7 C 0.46210(9) 0.0515(3) 0.38971(14)
C8 C 0.50039(9) -0.0207(3) 0.36249(14)
N3 N 0.48054(7) -0.1421(2) 0.32157(11)
N4 N 0.42998(7) -0.1472(2) 0.32315(12)
H10 H 0.4093(8) -0.212(2) 0.2905(13)
C9 C 0.41746(9) -0.0332(3) 0.36211(14)
C10 C 0.36309(9) -0.0141(3) 0.36872(17)
H11 H 0.3376 -0.0540 0.3215
H12 H 0.3561 0.0913 0.3737
H13 H 0.3600 -0.0670 0.4152
C11 C 0.55625(9) 0.0243(3) 0.37538(15)
H14 H 0.5781 -0.0178 0.4250
H15 H 0.5589 0.1324 0.3777
H16 H 0.5684 -0.0121 0.3319
O1 O 0.58376(6) 0.67637(18) 0.29997(9)
C12 C 0.61980(9) 0.7083(3) 0.36253(14)
O2 O 0.61442(6) 0.71321(18) 0.42991(10)
C13 C 0.67273(8) 0.7429(3) 0.35240(14)
C14 C 0.68810(9) 0.6792(3) 0.29219(14)
H17 H 0.6657 0.6108 0.2575
C15 C 0.73623(10) 0.7154(3) 0.28244(16)
H18 H 0.7477 0.6681 0.2427
C16 C 0.76750(9) 0.8199(3) 0.33032(16)
H19 H 0.7997 0.8475 0.3216
C17 C 0.75275(9) 0.8860(3) 0.39134(15)
C18 C 0.70551(9) 0.8434(3) 0.40270(15)
H20 H 0.6955 0.8836 0.4455
C19 C 0.78853(9) 0.9945(3) 0.44492(16)
H21 H 0.8134 0.9396 0.4882
H22 H 0.8092 1.0469 0.4151
N5 N 0.76093(7) 1.1038(2) 0.47874(12)
C20 C 0.73269(9) 1.2109(3) 0.42005(15)
H23 H 0.7079 1.1582 0.3757
H24 H 0.7579 1.2655 0.3992
C21 C 0.79705(9) 1.1813(3) 0.54432(16)
H25 H 0.8234 1.2351 0.5256
H26 H 0.8157 1.1090 0.5847
O1F O 0.91624(6) 1.82363(18) 0.70003(9)
C12F C 0.88020(9) 1.7917(3) 0.63747(14)
O2F O 0.88558(6) 1.78679(18) 0.57009(10)
C13F C 0.82727(8) 1.7571(3) 0.64760(14)
C14F C 0.81190(9) 1.8208(3) 0.70781(14)
H17F H 0.8343 1.8892 0.7425
C15F C 0.76377(10) 1.7846(3) 0.71756(16)
H18F H 0.7523 1.8319 0.7573
C16F C 0.73250(9) 1.6801(3) 0.66968(16)
H19F H 0.7003 1.6525 0.6784
C17F C 0.74725(9) 1.6140(3) 0.60866(15)
C18F C 0.79449(9) 1.6566(3) 0.59730(15)
H20F H 0.8045 1.6164 0.5545
C19F C 0.71147(9) 1.5055(3) 0.55508(16)
H21F H 0.6866 1.5604 0.5118
H22F H 0.6908 1.4531 0.5849
N5F N 0.73907(7) 1.3962(2) 0.52126(12)
C20F C 0.76731(9) 1.2891(3) 0.57995(15)
H23F H 0.7921 1.3418 0.6243
H24F H 0.7421 1.2345 0.6008
C21F C 0.70295(9) 1.3187(3) 0.45568(16)
H25F H 0.6766 1.2649 0.4744
H26F H 0.6843 1.3910 0.4153
N1A N 0.50554(7) 0.5178(2) 0.16743(11)
N2A N 0.46753(7) 0.5224(2) 0.09724(11)
H1A H 0.4427(8) 0.590(2) 0.0891(14)
C1A C 0.46995(8) 0.4070(3) 0.05141(13)
C2A C 0.51211(9) 0.3226(3) 0.09187(13)
C3A C 0.53283(8) 0.3941(3) 0.16420(13)
C4A C 0.57835(9) 0.3476(3) 0.23149(15)
H2A H 0.6104 0.3502 0.2154
H3A H 0.5725 0.2468 0.2474
H4A H 0.5819 0.4152 0.2759
C5A C 0.43031(9) 0.3863(3) -0.02670(14)
H5A H 0.4075 0.3028 -0.0241
H6A H 0.4482 0.3661 -0.0665
H7A H 0.4092 0.4763 -0.0410
C6A C 0.53195(9) 0.1869(3) 0.06042(14)
H8A H 0.5076 0.1640 0.0079
H9A H 0.5664 0.2105 0.0531
C7A C 0.53790(9) 0.0515(3) 0.11029(14)
C8A C 0.49961(9) -0.0207(3) 0.13751(14)
N3A N 0.51946(7) -0.1421(2) 0.17843(11)
N4A N 0.57002(7) -0.1472(2) 0.17685(12)
H10A H 0.5907(8) -0.212(2) 0.2095(13)
C9A C 0.58254(9) -0.0332(3) 0.13789(14)
C10A C 0.63691(9) -0.0141(3) 0.13128(17)
H11A H 0.6624 -0.0540 0.1785
H12A H 0.6439 0.0913 0.1263
H13A H 0.6400 -0.0670 0.0848
C11A C 0.44375(9) 0.0243(3) 0.12462(15)
H14A H 0.4219 -0.0178 0.0750
H15A H 0.4411 0.1324 0.1223
H16A H 0.4316 -0.0121 0.1681
Co1_2 Co 0.5000 -0.31643(5) 0.2500
Co1F Co 1.0000 1.81643(5) 0.7500
N3_2 N 0.48054(7) 0.8579(2) 0.32157(11)
N3A_2 N 0.51946(7) 0.8579(2) 0.17843(11)
O1A O 0.41624(6) 0.67637(18) 0.20003(9)
loop_
_geom_bond_atom_site_label_1
_geom_bond_atom_site_label_2
_geom_bond_site_symmetry_1
_geom_bond_site_symmetry_2
Co1 N1 1_555 1_555
N1 N2 1_555 1_555
N2 H1 1_555 1_555
C1 N2 1_555 1_555
C2 C1 1_555 1_555
C3 N1 1_555 1_555
C4 C3 1_555 1_555
H2 C4 1_555 1_555
H3 C4 1_555 1_555
H4 C4 1_555 1_555
C5 C1 1_555 1_555
H5 C5 1_555 1_555
H6 C5 1_555 1_555
H7 C5 1_555 1_555
C6 C2 1_555 1_555
H8 C6 1_555 1_555
H9 C6 1_555 1_555
C7 C6 1_555 1_555
C8 C7 1_555 1_555
N3 C8 1_555 1_555
N4 N3 1_555 1_555
H10 N4 1_555 1_555
C9 C7 1_555 1_555
C10 C9 1_555 1_555
H11 C10 1_555 1_555
H12 C10 1_555 1_555
H13 C10 1_555 1_555
C11 C8 1_555 1_555
H14 C11 1_555 1_555
H15 C11 1_555 1_555
H16 C11 1_555 1_555
O1 Co1 1_555 1_555
C12 O1 1_555 1_555
O2 C12 1_555 1_555
C13 C12 1_555 1_555
C14 C13 1_555 1_555
H17 C14 1_555 1_555
C15 C14 1_555 1_555
H18 C15 1_555 1_555
C16 C15 1_555 1_555
H19 C16 1_555 1_555
C17 C16 1_555 1_555
C18 C13 1_555 1_555
H20 C18 1_555 1_555
C19 C17 1_555 1_555
H21 C19 1_555 1_555
H22 C19 1_555 1_555
N5 C19 1_555 1_555
C20 N5 1_555 1_555
H23 C20 1_555 1_555
H24 C20 1_555 1_555
C21 N5 1_555 1_555
H25 C21 1_555 1_555
H26 C21 1_555 1_555
O1F C12F 1_555 1_555
C12F O2F 1_555 1_555
C13F C12F 1_555 1_555
C14F C13F 1_555 1_555
H17F C14F 1_555 1_555
C15F C14F 1_555 1_555
H18F C15F 1_555 1_555
C16F C15F 1_555 1_555
H19F C16F 1_555 1_555
C17F C16F 1_555 1_555
C18F C13F 1_555 1_555
H20F C18F 1_555 1_555
C19F C17F 1_555 1_555
H21F C19F 1_555 1_555
H22F C19F 1_555 1_555
N5F C19F 1_555 1_555
C20F C21 1_555 1_555
H23F C20F 1_555 1_555
H24F C20F 1_555 1_555
C21F C20 1_555 1_555
H25F C21F 1_555 1_555
H26F C21F 1_555 1_555
N1A Co1 1_555 1_555
N2A N1A 1_555 1_555
H1A N2A 1_555 1_555
C1A N2A 1_555 1_555
C2A C1A 1_555 1_555
C3A N1A 1_555 1_555
C4A C3A 1_555 1_555
H2A C4A 1_555 1_555
H3A C4A 1_555 1_555
H4A C4A 1_555 1_555
C5A C1A 1_555 1_555
H5A C5A 1_555 1_555
H6A C5A 1_555 1_555
H7A C5A 1_555 1_555
C6A C2A 1_555 1_555
H8A C6A 1_555 1_555
H9A C6A 1_555 1_555
C7A C6A 1_555 1_555
C8A C7A 1_555 1_555
N3A C8A 1_555 1_555
N4A N3A 1_555 1_555
H10A N4A 1_555 1_555
C9A C7A 1_555 1_555
C10A C9A 1_555 1_555
H11A C10A 1_555 1_555
H12A C10A 1_555 1_555
H13A C10A 1_555 1_555
C11A C8A 1_555 1_555
H14A C11A 1_555 1_555
H15A C11A 1_555 1_555
H16A C11A 1_555 1_555
Co1_2 N3 1_555 1_555
Co1F O1F 1_555 1_555
N3_2 Co1 1_555 1_555
N3A_2 Co1 1_555 1_555
O1A Co1 1_555 1_555
C2 C3 1_555 1_555
N4 C9 1_555 1_555
C17 C18 1_555 1_555
C17F C18F 1_555 1_555
N5F C20F 1_555 1_555
N5F C21F 1_555 1_555
C2A C3A 1_555 1_555
N3A Co1_2 1_555 1_555
N4A C9A 1_555 1_555

#END
