
#######################################################################
#
#                 Cambridge Crystallographic Data Centre
#                                CCDC 
#
#######################################################################
#
# If this CIF has been generated from an entry in the Cambridge 
# Structural Database, then it will include bibliographic, chemical, 
# crystal, experimental, refinement or atomic coordinate data resulting 
# from the CCDC's data processing and validation procedures.
#
#######################################################################

data_DOWHAA
_symmetry_cell_setting           monoclinic
_symmetry_space_group_name_H-M   'P 21/n'
_symmetry_Int_Tables_number      14
_space_group_name_Hall           '-P 2yn'
loop_
_symmetry_equiv_pos_site_id
_symmetry_equiv_pos_as_xyz
1 x,y,z
2 1/2-x,1/2+y,1/2-z
3 -x,-y,-z
4 1/2+x,1/2-y,1/2+z
_cell_length_a                   10.954(2)
_cell_length_b                   13.013(3)
_cell_length_c                   14.968(3)
_cell_angle_alpha                90
_cell_angle_beta                 104.00(3)
_cell_angle_gamma                90
_cell_volume                     2070.23
loop_
_atom_site_label
_atom_site_type_symbol
_atom_site_fract_x
_atom_site_fract_y
_atom_site_fract_z
Co1 Co 1.07102(3) 0.62167(2) 0.98849(2)
N1 N 0.8919(2) 0.58609(15) 0.93090(13)
N2 N 0.8326(2) 0.49958(15) 0.95126(13)
C1 C 0.7091(2) 0.50754(18) 0.91001(16)
C2 C 0.6865(2) 0.60085(18) 0.86229(16)
C3 C 0.8048(2) 0.64704(18) 0.87758(16)
C4 C 0.8386(3) 0.7488(2) 0.84463(19)
H1 H 0.9128 0.7761 0.8885
H2 H 0.7680 0.7964 0.8395
H3 H 0.8573 0.7406 0.7842
C5 C 0.6194(3) 0.4239(2) 0.9186(2)
H4 H 0.5954 0.3858 0.8605
H5 H 0.5442 0.4539 0.9327
H6 H 0.6598 0.3770 0.9683
C6 C 0.5631(2) 0.64627(19) 0.80928(17)
H7 H 0.4957 0.5945 0.8048
H8 H 0.5419 0.7061 0.8435
C7 C 0.5671(2) 0.67996(18) 0.71378(16)
C8 C 0.5621(2) 0.77960(18) 0.67584(16)
N3 N 0.5765(2) 0.77407(15) 0.58926(14)
N4 N 0.5892(2) 0.67290(16) 0.57165(14)
H9 H 0.611(3) 0.657(3) 0.5177(16)
C9 C 0.5847(2) 0.61489(19) 0.64431(17)
C10 C 0.5989(3) 0.50117(19) 0.64312(19)
H10 H 0.5195 0.4686 0.6467
H11 H 0.6658 0.4797 0.6959
H12 H 0.6206 0.4803 0.5860
C11 C 0.5476(3) 0.8810(2) 0.71880(18)
H13 H 0.6306 0.9124 0.7417
H14 H 0.5077 0.8709 0.7701
H15 H 0.4950 0.9262 0.6728
O1 O 1.14578(18) 0.66616(15) 0.88769(12)
C12 C 1.1554(2) 0.7592(2) 0.86283(17)
O2 O 1.13817(19) 0.83606(15) 0.90801(13)
C13 C 1.1860(2) 0.7776(2) 0.77179(17)
C14 C 1.2086(3) 0.8787(2) 0.74821(19)
H16 H 1.2094 0.9328 0.7909
C15 C 1.2298(3) 0.8998(2) 0.6627(2)
H17 H 1.2453 0.9682 0.6464
C16 C 1.2281(3) 0.8202(3) 0.60093(19)
H18 H 1.2420 0.8350 0.5420
C17 C 1.2067(3) 0.7191(2) 0.62313(19)
C18 C 1.1862(3) 0.6979(2) 0.71000(18)
H19 H 1.1724 0.6293 0.7267
C19 C 1.2078(3) 0.6340(3) 0.5556(2)
H20 H 1.2011 0.6643 0.4940
H21 H 1.2894 0.5976 0.5737
N5 N 1.1065(2) 0.5596(2) 0.54949(16)
C20 C 1.1195(3) 0.4743(3) 0.4886(2)
H22 H 1.2032 0.4420 0.5110
H23 H 1.1140 0.5009 0.4258
C21 C 0.9818(3) 0.6054(2) 0.5149(2)
H24 H 0.9750 0.6337 0.4525
H25 H 0.9703 0.6626 0.5558
O1B O 0.85422(18) 0.33384(15) 0.11231(12)
C12B C 0.8446(2) 0.2408(2) 0.13717(17)
O2B O 0.86183(19) 0.16394(15) 0.09199(13)
C13B C 0.8140(2) 0.2224(2) 0.22821(17)
C14B C 0.7914(3) 0.1213(2) 0.25179(19)
H16B H 0.7906 0.0672 0.2091
C15B C 0.7702(3) 0.1002(2) 0.3373(2)
H17B H 0.7547 0.0318 0.3536
C16B C 0.7719(3) 0.1798(3) 0.39907(19)
H18B H 0.7580 0.1650 0.4580
C17B C 0.7933(3) 0.2809(2) 0.37687(19)
C18B C 0.8138(3) 0.3021(2) 0.29000(18)
H19B H 0.8276 0.3707 0.2733
C19B C 0.7922(3) 0.3660(3) 0.4444(2)
H20B H 0.7989 0.3357 0.5060
H21B H 0.7106 0.4024 0.4263
N5B N 0.8935(2) 0.4404(2) 0.45051(16)
C20B C 0.8805(3) 0.5257(3) 0.5114(2)
H22B H 0.7968 0.5580 0.4890
H23B H 0.8860 0.4991 0.5742
C21B C 1.0182(3) 0.3946(2) 0.4851(2)
H24B H 1.0250 0.3663 0.5475
H25B H 1.0297 0.3374 0.4442
Co1B Co 0.92898(3) 0.37833(2) 0.01151(2)
N1B N 1.1081(2) 0.41391(15) 0.06910(13)
N2B N 1.1674(2) 0.50042(15) 0.04874(13)
C1B C 1.2909(2) 0.49246(18) 0.08999(16)
C2B C 1.3135(2) 0.39915(18) 0.13771(16)
C3B C 1.1952(2) 0.35296(18) 0.12242(16)
C4B C 1.1614(3) 0.2512(2) 0.15537(19)
H1B H 1.0872 0.2239 0.1115
H2B H 1.2320 0.2036 0.1605
H3B H 1.1427 0.2594 0.2158
C5B C 1.3806(3) 0.5761(2) 0.0814(2)
H4B H 1.4046 0.6142 0.1395
H5B H 1.4558 0.5461 0.0673
H6B H 1.3402 0.6230 0.0317
C6B C 1.4369(2) 0.35373(19) 0.19072(17)
H7B H 1.5043 0.4055 0.1952
H8B H 1.4581 0.2939 0.1565
C7B C 1.4329(2) 0.32004(18) 0.28622(16)
C8B C 1.4379(2) 0.22040(18) 0.32416(16)
N3B N 1.4235(2) 0.22593(15) 0.41074(14)
N4B N 1.4108(2) 0.32710(16) 0.42835(14)
H9B H 1.389(3) 0.343(3) 0.4823(16)
C9B C 1.4153(2) 0.38511(19) 0.35569(17)
C10B C 1.4011(3) 0.49883(19) 0.35688(19)
H10B H 1.4805 0.5314 0.3533
H11B H 1.3342 0.5203 0.3041
H12B H 1.3794 0.5197 0.4140
C11B C 1.4524(3) 0.1190(2) 0.28120(18)
H13B H 1.3694 0.0876 0.2583
H14B H 1.4923 0.1291 0.2299
H15B H 1.5050 0.0738 0.3272
Co1_2 Co 1.07102(3) 0.62167(2) -0.01151(2)
Co1A Co 1.42898(3) 0.12167(2) 0.51151(2)
Co1B_2 Co 0.92898(3) 0.37833(2) 1.01151(2)
Co1C Co 0.57102(3) 0.87833(2) 0.48849(2)
N2_2 N 0.8326(2) 0.49958(15) -0.04874(13)
N2B_2 N 1.1674(2) 0.50042(15) 1.04874(13)
N3A N 0.9235(2) 0.27407(15) -0.08926(14)
N3C N 1.0765(2) 0.72593(15) 1.08926(14)
loop_
_geom_bond_atom_site_label_1
_geom_bond_atom_site_label_2
_geom_bond_site_symmetry_1
_geom_bond_site_symmetry_2
Co1 N1 1_555 1_555
N1 N2 1_555 1_555
N2 C1 1_555 1_555
C1 C2 1_555 1_555
C2 C3 1_555 1_555
C3 N1 1_555 1_555
C4 C3 1_555 1_555
H1 C4 1_555 1_555
H2 C4 1_555 1_555
H3 C4 1_555 1_555
C5 C1 1_555 1_555
H4 C5 1_555 1_555
H5 C5 1_555 1_555
H6 C5 1_555 1_555
C6 C2 1_555 1_555
H7 C6 1_555 1_555
H8 C6 1_555 1_555
C7 C6 1_555 1_555
C8 C7 1_555 1_555
N3 C8 1_555 1_555
N4 N3 1_555 1_555
H9 N4 1_555 1_555
C9 C7 1_555 1_555
C10 C9 1_555 1_555
H10 C10 1_555 1_555
H11 C10 1_555 1_555
H12 C10 1_555 1_555
C11 C8 1_555 1_555
H13 C11 1_555 1_555
H14 C11 1_555 1_555
H15 C11 1_555 1_555
O1 Co1 1_555 1_555
C12 O1 1_555 1_555
O2 C12 1_555 1_555
C13 C12 1_555 1_555
C14 C13 1_555 1_555
H16 C14 1_555 1_555
C15 C14 1_555 1_555
H17 C15 1_555 1_555
C16 C15 1_555 1_555
H18 C16 1_555 1_555
C17 C16 1_555 1_555
C18 C13 1_555 1_555
H19 C18 1_555 1_555
C19 C17 1_555 1_555
H20 C19 1_555 1_555
H21 C19 1_555 1_555
N5 C19 1_555 1_555
C20 N5 1_555 1_555
H22 C20 1_555 1_555
H23 C20 1_555 1_555
C21 N5 1_555 1_555
H24 C21 1_555 1_555
H25 C21 1_555 1_555
O1B C12B 1_555 1_555
C12B O2B 1_555 1_555
C13B C12B 1_555 1_555
C14B C13B 1_555 1_555
H16B C14B 1_555 1_555
C15B C14B 1_555 1_555
H17B C15B 1_555 1_555
C16B C15B 1_555 1_555
H18B C16B 1_555 1_555
C17B C16B 1_555 1_555
C18B C13B 1_555 1_555
H19B C18B 1_555 1_555
C19B C17B 1_555 1_555
H20B C19B 1_555 1_555
H21B C19B 1_555 1_555
N5B C19B 1_555 1_555
C20B C21 1_555 1_555
H22B C20B 1_555 1_555
H23B C20B 1_555 1_555
C21B C20 1_555 1_555
H24B C21B 1_555 1_555
H25B C21B 1_555 1_555
Co1B O1B 1_555 1_555
N1B Co1B 1_555 1_555
N2B N1B 1_555 1_555
C1B N2B 1_555 1_555
C2B C1B 1_555 1_555
C3B N1B 1_555 1_555
C4B C3B 1_555 1_555
H1B C4B 1_555 1_555
H2B C4B 1_555 1_555
H3B C4B 1_555 1_555
C5B C1B 1_555 1_555
H4B C5B 1_555 1_555
H5B C5B 1_555 1_555
H6B C5B 1_555 1_555
C6B C2B 1_555 1_555
H7B C6B 1_555 1_555
H8B C6B 1_555 1_555
C7B C6B 1_555 1_555
C8B C7B 1_555 1_555
N3B C8B 1_555 1_555
N4B N3B 1_555 1_555
H9B N4B 1_555 1_555
C9B C7B 1_555 1_555
C10B C9B 1_555 1_555
H10B C10B 1_555 1_555
H11B C10B 1_555 1_555
H12B C10B 1_555 1_555
C11B C8B 1_555 1_555
H13B C11B 1_555 1_555
H14B C11B 1_555 1_555
H15B C11B 1_555 1_555
Co1_2 N2B 1_555 1_555
Co1A N3B 1_555 1_555
Co1B_2 N2 1_555 1_555
Co1C N3 1_555 1_555
N2_2 Co1B 1_555 1_555
N2B_2 Co1 1_555 1_555
N3A Co1B 1_555 1_555
N3C Co1 1_555 1_555
N4 C9 1_555 1_555
C17 C18 1_555 1_555
C17B C18B 1_555 1_555
N5B C20B 1_555 1_555
N5B C21B 1_555 1_555
C2B C3B 1_555 1_555
N4B C9B 1_555 1_555

#END
