
#######################################################################
#
#                 Cambridge Crystallographic Data Centre
#                                CCDC 
#
#######################################################################
#
# If this CIF has been generated from an entry in the Cambridge 
# Structural Database, then it will include bibliographic, chemical, 
# crystal, experimental, refinement or atomic coordinate data resulting 
# from the CCDC's data processing and validation procedures.
#
#######################################################################

data_DOWYET
_symmetry_cell_setting           monoclinic
_symmetry_space_group_name_H-M   'P 21/n'
_symmetry_Int_Tables_number      14
_space_group_name_Hall           '-P 2yn'
loop_
_symmetry_equiv_pos_site_id
_symmetry_equiv_pos_as_xyz
1 x,y,z
2 1/2-x,1/2+y,1/2-z
3 -x,-y,-z
4 1/2+x,1/2-y,1/2+z
_cell_length_a                   10.246(9)
_cell_length_b                   10.297(9)
_cell_length_c                   10.651(8)
_cell_angle_alpha                90
_cell_angle_beta                 106.19(5)
_cell_angle_gamma                90
_cell_volume                     1079.15
loop_
_atom_site_label
_atom_site_type_symbol
_atom_site_fract_x
_atom_site_fract_y
_atom_site_fract_z
Pb1 Pb 0.77800(5) 0.08692(5) 0.19723(5)
O1 O 0.8018(9) 0.2405(9) 0.0416(9)
O2 O 0.738(1) -0.106(1) 0.3289(9)
O3 O 0.802(1) 0.5784(9) -0.0011(9)
C1 C 0.833(2) -0.061(2) 0.076(2)
C2 C 0.941(2) 0.161(2) 0.359(2)
C3 C 0.562(2) 0.122(2) 0.162(2)
C4 C 0.786(1) 0.355(1) 0.068(1)
C5 C 0.799(1) 0.449(1) -0.031(1)
C6 C 0.811(2) 0.438(2) -0.150(2)
C7 C 0.816(2) 0.565(2) -0.201(2)
C8 C 0.810(3) 0.641(2) -0.108(2)
H1 H 0.755 -0.086 0.009
H2 H 0.900 -0.027 0.038
H3 H 0.870 -0.134 0.128
H4 H 1.026 0.131 0.350
H5 H 0.940 0.253 0.357
H6 H 0.929 0.131 0.439
H7 H 0.547 0.188 0.219
H8 H 0.523 0.149 0.074
H9 H 0.518 0.044 0.177
H10 H 0.816 0.359 -0.194
H11 H 0.824 0.588 -0.286
H12 H 0.809 0.733 -0.115
C4A C 0.714(1) -0.145(1) 0.432(1)
O2A O 0.762(1) 0.394(1) 0.1711(9)
O1A O 0.6982(9) -0.2595(9) 0.4584(9)
C5A C 0.701(1) -0.051(1) 0.531(1)
Pb1A Pb 0.72200(5) 0.58692(5) 0.30277(5)
Pb1A_2 Pb 0.72200(5) -0.41308(5) 0.30277(5)
O3A O 0.698(1) 0.0784(9) 0.5011(9)
C6A C 0.689(2) -0.062(2) 0.650(2)
O1A_2 O 0.6982(9) 0.7405(9) 0.4584(9)
C1A C 0.667(2) 0.439(2) 0.424(2)
C2A C 0.559(2) 0.661(2) 0.141(2)
C3A C 0.938(2) 0.622(2) 0.338(2)
C8A C 0.690(3) 0.141(2) 0.608(2)
C7A C 0.684(2) 0.065(2) 0.701(2)
H10A H 0.684 -0.141 0.694
H1A H 0.745 0.414 0.491
H2A H 0.600 0.473 0.462
H3A H 0.630 0.366 0.372
H4A H 0.474 0.631 0.150
H5A H 0.560 0.753 0.143
H6A H 0.571 0.631 0.061
H7A H 0.953 0.688 0.281
H8A H 0.977 0.649 0.426
H9A H 0.982 0.544 0.323
H12A H 0.691 0.233 0.615
H11A H 0.676 0.088 0.786
loop_
_geom_bond_atom_site_label_1
_geom_bond_atom_site_label_2
_geom_bond_site_symmetry_1
_geom_bond_site_symmetry_2
Pb1 O1 1_555 1_555
O1 C4 1_555 1_555
O2 Pb1 1_555 1_555
O3 C5 1_555 1_555
C1 Pb1 1_555 1_555
C2 Pb1 1_555 1_555
C3 Pb1 1_555 1_555
C4 C5 1_555 1_555
C5 C6 1_555 1_555
C6 C7 1_555 1_555
C7 C8 1_555 1_555
C8 O3 1_555 1_555
H1 C1 1_555 1_555
H2 C1 1_555 1_555
H3 C1 1_555 1_555
H4 C2 1_555 1_555
H5 C2 1_555 1_555
H6 C2 1_555 1_555
H7 C3 1_555 1_555
H8 C3 1_555 1_555
H9 C3 1_555 1_555
H10 C6 1_555 1_555
H11 C7 1_555 1_555
H12 C8 1_555 1_555
C4A O2 1_555 1_555
O2A C4 1_555 1_555
O1A C4A 1_555 1_555
C5A C4A 1_555 1_555
Pb1A O2A 1_555 1_555
Pb1A_2 O1A 1_555 1_555
O3A C5A 1_555 1_555
C6A C5A 1_555 1_555
O1A_2 Pb1A 1_555 1_555
C1A Pb1A 1_555 1_555
C2A Pb1A 1_555 1_555
C3A Pb1A 1_555 1_555
C8A O3A 1_555 1_555
C7A C6A 1_555 1_555
H10A C6A 1_555 1_555
H1A C1A 1_555 1_555
H2A C1A 1_555 1_555
H3A C1A 1_555 1_555
H4A C2A 1_555 1_555
H5A C2A 1_555 1_555
H6A C2A 1_555 1_555
H7A C3A 1_555 1_555
H8A C3A 1_555 1_555
H9A C3A 1_555 1_555
H12A C8A 1_555 1_555
H11A C7A 1_555 1_555
C8A C7A 1_555 1_555

#END
