
#######################################################################
#
#                 Cambridge Crystallographic Data Centre
#                                CCDC 
#
#######################################################################
#
# If this CIF has been generated from an entry in the Cambridge 
# Structural Database, then it will include bibliographic, chemical, 
# crystal, experimental, refinement or atomic coordinate data resulting 
# from the CCDC's data processing and validation procedures.
#
#######################################################################

data_DOXDUP
_symmetry_cell_setting           orthorhombic
_symmetry_space_group_name_H-M   'P c a b'
_symmetry_Int_Tables_number      61
_space_group_name_Hall           '-P 2bc 2ac'
loop_
_symmetry_equiv_pos_site_id
_symmetry_equiv_pos_as_xyz
1 x,y,z
2 -x,1/2-y,1/2+z
3 1/2+x,-y,1/2-z
4 1/2-x,1/2+y,-z
5 -x,-y,-z
6 x,1/2+y,1/2-z
7 1/2-x,y,1/2+z
8 1/2+x,1/2-y,z
_cell_length_a                   40.868(13)
_cell_length_b                   16.050(8)
_cell_length_c                   9.616(4)
_cell_angle_alpha                90
_cell_angle_beta                 90
_cell_angle_gamma                90
_cell_volume                     6307.44
loop_
_atom_site_label
_atom_site_type_symbol
_atom_site_fract_x
_atom_site_fract_y
_atom_site_fract_z
P1 P 0.1143(1) 0.6780(1) 0.6814(2)
P2 P 0.1365(1) 0.4416(1) 0.9489(2)
O1 O 0.0612(1) 0.5628(2) 0.9111(4)
O2 O 0.1871(1) 0.7940(2) 0.7871(4)
Li1 Li 0.1059(2) 0.5610(6) 0.8486(10)
Li2 Li 0.1480(2) 0.8068(6) 0.6699(11)
C1 C 0.0734(1) 0.6885(3) 0.6069(6)
C2 C 0.0492(1) 0.7278(3) 0.6870(6)
C3 C 0.0170(1) 0.7326(4) 0.6409(6)
C4 C 0.0079(1) 0.6980(4) 0.5153(6)
C5 C 0.0314(1) 0.6579(4) 0.4366(7)
C6 C 0.0636(1) 0.6536(3) 0.4804(6)
C7 C 0.1398(1) 0.6525(3) 0.5300(6)
C8 C 0.1624(1) 0.5876(3) 0.5362(6)
C9 C 0.1838(1) 0.5714(4) 0.4275(6)
C10 C 0.1836(1) 0.6200(3) 0.3093(6)
C11 C 0.1616(1) 0.6850(4) 0.3001(6)
C12 C 0.1400(1) 0.7009(3) 0.4087(6)
C13 C 0.1772(1) 0.4623(3) 1.0212(6)
C14 C 0.1983(1) 0.5168(4) 0.9510(6)
C15 C 0.2307(1) 0.5289(4) 0.9939(6)
C16 C 0.2424(2) 0.4873(4) 1.1091(6)
C17 C 0.2220(1) 0.4332(4) 1.1803(7)
C18 C 0.1903(1) 0.4205(3) 1.1361(6)
C19 C 0.1101(1) 0.4272(3) 1.1008(6)
C20 C 0.1153(1) 0.4640(3) 1.2317(6)
C21 C 0.0925(1) 0.4557(4) 1.3364(6)
C22 C 0.0639(1) 0.4117(4) 1.3160(7)
C23 C 0.0582(1) 0.3756(4) 1.1900(6)
C24 C 0.0809(1) 0.3817(3) 1.0833(6)
C25 C 0.0519(2) 0.6033(4) 1.0373(7)
C26 C 0.0793(2) 0.6600(4) 1.0826(7)
C27 C 0.0354(2) 0.5135(4) 0.8510(7)
C28 C 0.0483(2) 0.4709(4) 0.7233(7)
C29 C 0.2162(2) 0.7480(4) 0.7515(7)
C30 C 0.2232(2) 0.7629(4) 0.6019(7)
C31 C 0.1806(2) 0.7913(5) 0.9348(8)
C32 C 0.1511(2) 0.8418(4) 0.9684(7)
H1 H 0.0549 0.7516 0.7753
H2 H 0.0010 0.7604 0.6970
H3 H -0.0143 0.7016 0.4835
H4 H 0.0253 0.6329 0.3497
H5 H 0.0795 0.6259 0.4231
H6 H 0.1630 0.5530 0.6176
H7 H 0.1990 0.5260 0.4350
H8 H 0.1985 0.6086 0.2343
H9 H 0.1614 0.7198 0.2189
H10 H 0.1245 0.7457 0.3996
H11 H 0.1903 0.5468 0.8715
H12 H 0.2447 0.5660 0.9432
H13 H 0.2645 0.4958 1.1398
H14 H 0.2301 0.4040 1.2605
H15 H 0.1767 0.3822 1.1864
H16 H 0.1350 0.4949 1.2484
H17 H 0.0965 0.4814 1.4249
H18 H 0.0483 0.4065 1.3898
H19 H 0.0382 0.3455 1.1750
H20 H 0.0767 0.3546 0.9963
H21 H 0.0324 0.6355 1.0221
H22 H 0.0479 0.5624 1.1081
H23 H 0.0712 0.6885 1.1632
H24 H 0.0837 0.6997 1.0103
H25 H 0.0991 0.6311 1.1060
H26 H 0.0282 0.4725 0.9170
H27 H 0.0174 0.5488 0.8264
H28 H 0.0296 0.4443 0.6821
H29 H 0.0654 0.4306 0.7368
H30 H 0.0560 0.5143 0.6629
H31 H 0.2343 0.7669 0.8071
H32 H 0.2127 0.6896 0.7675
H33 H 0.2435 0.7340 0.5890
H34 H 0.2265 0.8214 0.5869
H35 H 0.2073 0.7422 0.5368
H36 H 0.1771 0.7347 0.9631
H37 H 0.1991 0.8137 0.9837
H38 H 0.1476 0.8456 1.0669
H39 H 0.1316 0.8218 0.9244
H40 H 0.1565 0.8959 0.9323
Li2E Li 0.1480(2) 0.3068(6) 0.8301(11)
P2E P 0.1365(1) 0.9416(1) 0.5511(2)
P1E P 0.1143(1) 0.1780(1) 0.8186(2)
O2E O 0.1871(1) 0.2940(2) 0.7129(4)
Li1E Li 0.1059(2) 1.0610(6) 0.6514(10)
C13E C 0.1772(1) 0.9623(3) 0.4788(6)
C19E C 0.1101(1) 0.9272(3) 0.3992(6)
Li1E_2 Li 0.1059(2) 0.0610(6) 0.6514(10)
C1E C 0.0734(1) 0.1885(3) 0.8931(6)
C7E C 0.1398(1) 0.1525(3) 0.9700(6)
C29E C 0.2162(2) 0.2480(4) 0.7485(7)
C31E C 0.1806(2) 0.2913(5) 0.5652(8)
P1E_2 P 0.1143(1) 1.1780(1) 0.8186(2)
O1E O 0.0612(1) 1.0628(2) 0.5889(4)
C14E C 0.1983(1) 1.0168(4) 0.5490(6)
C18E C 0.1903(1) 0.9205(3) 0.3639(6)
C20E C 0.1153(1) 0.9640(3) 0.2683(6)
C24E C 0.0809(1) 0.8817(3) 0.4167(6)
C2E C 0.0492(1) 0.2278(3) 0.8130(6)
C6E C 0.0636(1) 0.1536(3) 1.0196(6)
C8E C 0.1624(1) 0.0876(3) 0.9638(6)
C12E C 0.1400(1) 0.2009(3) 1.0913(6)
C30E C 0.2232(2) 0.2629(4) 0.8981(7)
H31E H 0.2343 0.2669 0.6929
H32E H 0.2127 0.1896 0.7325
C32E C 0.1511(2) 0.3418(4) 0.5316(7)
H36E H 0.1771 0.2347 0.5369
H37E H 0.1991 0.3137 0.5163
C25E C 0.0519(2) 1.1033(4) 0.4627(7)
C27E C 0.0354(2) 1.0135(4) 0.6490(7)
C15E C 0.2307(1) 1.0289(4) 0.5061(6)
H11E H 0.1903 1.0468 0.6285
C17E C 0.2220(1) 0.9332(4) 0.3197(7)
H15E H 0.1767 0.8822 0.3136
C21E C 0.0925(1) 0.9557(4) 0.1636(6)
H16E H 0.1350 0.9949 0.2516
C23E C 0.0582(1) 0.8756(4) 0.3100(6)
H20E H 0.0767 0.8546 0.5037
C3E C 0.0170(1) 0.2326(4) 0.8591(6)
H1E H 0.0549 0.2516 0.7247
C5E C 0.0314(1) 0.1579(4) 1.0634(7)
H5E H 0.0795 0.1259 1.0769
C9E C 0.1838(1) 0.0714(4) 1.0725(6)
H6E H 0.1630 0.0530 0.8824
C11E C 0.1616(1) 0.1850(4) 1.1999(6)
H10E H 0.1245 0.2457 1.1004
H33E H 0.2435 0.2340 0.9110
H34E H 0.2265 0.3214 0.9131
H35E H 0.2073 0.2422 0.9632
H38E H 0.1476 0.3456 0.4331
H39E H 0.1316 0.3218 0.5756
H40E H 0.1565 0.3959 0.5677
C26E C 0.0793(2) 1.1600(4) 0.4174(7)
H21E H 0.0324 1.1355 0.4779
H22E H 0.0479 1.0624 0.3919
C28E C 0.0483(2) 0.9709(4) 0.7767(7)
H26E H 0.0282 0.9725 0.5830
H27E H 0.0174 1.0488 0.6736
C16E C 0.2424(2) 0.9873(4) 0.3909(6)
H12E H 0.2447 1.0660 0.5568
H14E H 0.2301 0.9040 0.2395
C22E C 0.0639(1) 0.9117(4) 0.1840(7)
H17E H 0.0965 0.9814 0.0751
H19E H 0.0382 0.8455 0.3250
C4E C 0.0079(1) 0.1980(4) 0.9847(6)
H2E H 0.0010 0.2604 0.8030
H4E H 0.0253 0.1329 1.1503
C10E C 0.1836(1) 0.1200(3) 1.1907(6)
H7E H 0.1990 0.0260 1.0650
H9E H 0.1614 0.2198 1.2811
H23E H 0.0712 1.1885 0.3368
H24E H 0.0837 1.1997 0.4897
H25E H 0.0991 1.1311 0.3940
H28E H 0.0296 0.9443 0.8179
H29E H 0.0654 0.9306 0.7632
H30E H 0.0560 1.0143 0.8371
H13E H 0.2645 0.9958 0.3602
H18E H 0.0483 0.9065 0.1102
H3E H -0.0143 0.2016 1.0165
H8E H 0.1985 0.1086 1.2657
loop_
_geom_bond_atom_site_label_1
_geom_bond_atom_site_label_2
_geom_bond_site_symmetry_1
_geom_bond_site_symmetry_2
P1 Li1 1_555 1_555
P2 Li1 1_555 1_555
O1 Li1 1_555 1_555
O2 Li2 1_555 1_555
Li2 P1 1_555 1_555
C1 P1 1_555 1_555
C2 C1 1_555 1_555
C3 C2 1_555 1_555
C4 C3 1_555 1_555
C5 C4 1_555 1_555
C6 C1 1_555 1_555
C7 P1 1_555 1_555
C8 C7 1_555 1_555
C9 C8 1_555 1_555
C10 C9 1_555 1_555
C11 C10 1_555 1_555
C12 C7 1_555 1_555
C13 P2 1_555 1_555
C14 C13 1_555 1_555
C15 C14 1_555 1_555
C16 C15 1_555 1_555
C17 C16 1_555 1_555
C18 C13 1_555 1_555
C19 P2 1_555 1_555
C20 C19 1_555 1_555
C21 C20 1_555 1_555
C22 C21 1_555 1_555
C23 C22 1_555 1_555
C24 C19 1_555 1_555
C25 O1 1_555 1_555
C26 C25 1_555 1_555
C27 O1 1_555 1_555
C28 C27 1_555 1_555
C29 O2 1_555 1_555
C30 C29 1_555 1_555
C31 O2 1_555 1_555
C32 C31 1_555 1_555
H1 C2 1_555 1_555
H2 C3 1_555 1_555
H3 C4 1_555 1_555
H4 C5 1_555 1_555
H5 C6 1_555 1_555
H6 C8 1_555 1_555
H7 C9 1_555 1_555
H8 C10 1_555 1_555
H9 C11 1_555 1_555
H10 C12 1_555 1_555
H11 C14 1_555 1_555
H12 C15 1_555 1_555
H13 C16 1_555 1_555
H14 C17 1_555 1_555
H15 C18 1_555 1_555
H16 C20 1_555 1_555
H17 C21 1_555 1_555
H18 C22 1_555 1_555
H19 C23 1_555 1_555
H20 C24 1_555 1_555
H21 C25 1_555 1_555
H22 C25 1_555 1_555
H23 C26 1_555 1_555
H24 C26 1_555 1_555
H25 C26 1_555 1_555
H26 C27 1_555 1_555
H27 C27 1_555 1_555
H28 C28 1_555 1_555
H29 C28 1_555 1_555
H30 C28 1_555 1_555
H31 C29 1_555 1_555
H32 C29 1_555 1_555
H33 C30 1_555 1_555
H34 C30 1_555 1_555
H35 C30 1_555 1_555
H36 C31 1_555 1_555
H37 C31 1_555 1_555
H38 C32 1_555 1_555
H39 C32 1_555 1_555
H40 C32 1_555 1_555
Li2E P2 1_555 1_555
P2E Li2 1_555 1_555
P1E Li2E 1_555 1_555
O2E Li2E 1_555 1_555
Li1E P2E 1_555 1_555
C13E P2E 1_555 1_555
C19E P2E 1_555 1_555
Li1E_2 P1E 1_555 1_555
C1E P1E 1_555 1_555
C7E P1E 1_555 1_555
C29E O2E 1_555 1_555
C31E O2E 1_555 1_555
P1E_2 Li1E 1_555 1_555
O1E Li1E 1_555 1_555
C14E C13E 1_555 1_555
C18E C13E 1_555 1_555
C20E C19E 1_555 1_555
C24E C19E 1_555 1_555
C2E C1E 1_555 1_555
C6E C1E 1_555 1_555
C8E C7E 1_555 1_555
C12E C7E 1_555 1_555
C30E C29E 1_555 1_555
H31E C29E 1_555 1_555
H32E C29E 1_555 1_555
C32E C31E 1_555 1_555
H36E C31E 1_555 1_555
H37E C31E 1_555 1_555
C25E O1E 1_555 1_555
C27E O1E 1_555 1_555
C15E C14E 1_555 1_555
H11E C14E 1_555 1_555
C17E C18E 1_555 1_555
H15E C18E 1_555 1_555
C21E C20E 1_555 1_555
H16E C20E 1_555 1_555
C23E C24E 1_555 1_555
H20E C24E 1_555 1_555
C3E C2E 1_555 1_555
H1E C2E 1_555 1_555
C5E C6E 1_555 1_555
H5E C6E 1_555 1_555
C9E C8E 1_555 1_555
H6E C8E 1_555 1_555
C11E C12E 1_555 1_555
H10E C12E 1_555 1_555
H33E C30E 1_555 1_555
H34E C30E 1_555 1_555
H35E C30E 1_555 1_555
H38E C32E 1_555 1_555
H39E C32E 1_555 1_555
H40E C32E 1_555 1_555
C26E C25E 1_555 1_555
H21E C25E 1_555 1_555
H22E C25E 1_555 1_555
C28E C27E 1_555 1_555
H26E C27E 1_555 1_555
H27E C27E 1_555 1_555
C16E C15E 1_555 1_555
H12E C15E 1_555 1_555
H14E C17E 1_555 1_555
C22E C21E 1_555 1_555
H17E C21E 1_555 1_555
H19E C23E 1_555 1_555
C4E C3E 1_555 1_555
H2E C3E 1_555 1_555
H4E C5E 1_555 1_555
C10E C9E 1_555 1_555
H7E C9E 1_555 1_555
H9E C11E 1_555 1_555
H23E C26E 1_555 1_555
H24E C26E 1_555 1_555
H25E C26E 1_555 1_555
H28E C28E 1_555 1_555
H29E C28E 1_555 1_555
H30E C28E 1_555 1_555
H13E C16E 1_555 1_555
H18E C22E 1_555 1_555
H3E C4E 1_555 1_555
H8E C10E 1_555 1_555
C5 C6 1_555 1_555
C11 C12 1_555 1_555
C17 C18 1_555 1_555
C23 C24 1_555 1_555
C17E C16E 1_555 1_555
C23E C22E 1_555 1_555
C5E C4E 1_555 1_555
C11E C10E 1_555 1_555

#END
