
#######################################################################
#
#                 Cambridge Crystallographic Data Centre
#                                CCDC 
#
#######################################################################
#
# If this CIF has been generated from an entry in the Cambridge 
# Structural Database, then it will include bibliographic, chemical, 
# crystal, experimental, refinement or atomic coordinate data resulting 
# from the CCDC's data processing and validation procedures.
#
#######################################################################

data_DOYBAV
_symmetry_cell_setting           hexagonal
_symmetry_space_group_name_H-M   'P 61 2 2'
_symmetry_Int_Tables_number      178
_space_group_name_Hall           "P 61 2' (0,0,5)"
loop_
_symmetry_equiv_pos_site_id
_symmetry_equiv_pos_as_xyz
1 x,y,z
2 -y,x-y,1/3+z
3 -x+y,-x,2/3+z
4 -x,-y,1/2+z
5 y,-x+y,5/6+z
6 x-y,x,1/6+z
7 y,x,1/3-z
8 x-y,-y,-z
9 -x,-x+y,2/3-z
10 -y,-x,5/6-z
11 -x+y,y,1/2-z
12 x,x-y,1/6-z
_cell_length_a                   11.5693(10)
_cell_length_b                   11.5693(10)
_cell_length_c                   56.235(10)
_cell_angle_alpha                90
_cell_angle_beta                 90
_cell_angle_gamma                120
_cell_volume                     6518.56
loop_
_atom_site_label
_atom_site_type_symbol
_atom_site_fract_x
_atom_site_fract_y
_atom_site_fract_z
Cd1 Cd -0.07650(3) -0.71319(3) 0.532165(5)
O1 O -0.0676(3) -0.9239(3) 0.52591(5)
O3 O 0.0779(3) -0.7462(3) 0.50599(5)
O5 O -0.2505(3) -0.8122(3) 0.56049(5)
O7 O -0.1990(4) -0.6042(3) 0.55322(6)
O9 O 0.0420(3) -0.4953(3) 0.51517(5)
H7 H 0.0517 -0.5624 0.5127
H8 H 0.0034 -0.4499 0.5176
N1 N 0.0872(4) -0.6359(4) 0.55997(6)
N2 N 0.4273(4) -0.4135(4) 0.60173(6)
H9 H 0.501(3) -0.392(5) 0.5943(7)
N3 N 0.5458(4) -0.2215(4) 0.66790(6)
C1 C 0.2117(5) -0.5793(5) 0.55156(8)
H10 H 0.2234 -0.5891 0.5351
C2 C 0.3238(4) -0.5077(5) 0.56526(8)
H11 H 0.4100 -0.4704 0.5583
C3 C 0.3100(4) -0.4899(4) 0.58970(7)
C4 C 0.1801(5) -0.5532(5) 0.59856(7)
H12 H 0.1649 -0.5489 0.6151
C5 C 0.0740(5) -0.6218(5) 0.58342(7)
H13 H -0.0135 -0.6615 0.5899
C6 C 0.4155(5) -0.2921(5) 0.66233(8)
H14 H 0.3531 -0.2937 0.6735
C7 C 0.3670(5) -0.3620(5) 0.64155(7)
H15 H 0.2736 -0.4126 0.6388
C8 C 0.4570(4) -0.3582(4) 0.62435(7)
C9 C 0.5921(4) -0.2863(5) 0.63028(8)
H16 H 0.6572 -0.2825 0.6195
C10 C 0.6307(5) -0.2212(5) 0.65168(8)
H17 H 0.7234 -0.1730 0.6552
C11 C -0.2730(5) -0.7155(4) 0.56223(6)
C12 C -0.3999(4) -0.7411(4) 0.57401(7)
C13 C -0.5207(5) -0.8413(5) 0.56537(8)
H18 H -0.5210 -0.8976 0.5531
C14 C -0.6420(5) -0.8618(5) 0.57425(9)
H19 H -0.7238 -0.9307 0.5680
C15 C 0.3141(5) -0.9376(6) 0.50490(9)
H20 H 0.4068 -0.8946 0.5084
C16 C 0.2423(5) -0.8732(5) 0.50981(8)
H21 H 0.2866 -0.7859 0.5164
C17 C 0.1063(4) -0.9359(5) 0.50513(7)
C18 C 0.0333(4) -0.8649(4) 0.51234(7)
Cd1G Cd -0.36331(4) -1.28681(3) 0.467835(5)
Cd1E Cd 0.63669(4) -0.07650(3) 0.698832(5)
Cd1K Cd -0.07650(3) -0.36331(4) 0.634502(5)
Cd1D Cd -0.71319(3) -0.63669(4) 0.365498(5)
O1G O -0.1437(4) -1.0761(3) 0.47409(5)
O3G O -0.1759(4) -1.2538(3) 0.49401(5)
O5K O -0.2505(3) -0.4383(4) 0.60618(5)
O5G O -0.4383(4) -1.1878(3) 0.43951(5)
O7K O -0.1990(4) -0.5948(5) 0.61345(6)
O7G O -0.5948(5) -1.3958(3) 0.44678(6)
O9G O -0.4627(4) -1.5047(3) 0.48483(5)
H7G H -0.3859 -1.4376 0.4873
H8G H -0.5467 -1.5501 0.4824
N1D N -0.6359(4) -0.7231(6) 0.39330(6)
N1G N -0.2769(6) -1.3641(4) 0.44003(6)
N2D N -0.4135(4) -0.8408(6) 0.43506(6)
H9D H -0.392(5) -0.893(6) 0.4276(7)
N3D N -0.2215(4) -0.7673(6) 0.50123(6)
N3K N -0.4542(4) -1.2327(6) 0.49877(6)
C1D C -0.5793(5) -0.7910(7) 0.38489(8)
H10D H -0.5891 -0.8125 0.3684
C2D C -0.5077(5) -0.8315(6) 0.39859(8)
H11D H -0.4704 -0.8804 0.3916
C3D C -0.4899(4) -0.7999(6) 0.42303(7)
C4D C -0.5532(5) -0.7333(7) 0.43189(7)
H12D H -0.5489 -0.7138 0.4484
C5D C -0.6218(5) -0.6958(7) 0.41675(7)
H13D H -0.6615 -0.6480 0.4232
C6D C -0.2921(5) -0.7076(7) 0.49566(8)
H14D H -0.2937 -0.6468 0.5068
C7D C -0.3620(5) -0.7290(7) 0.47488(7)
H15D H -0.4126 -0.6862 0.4721
C8D C -0.3582(4) -0.8152(6) 0.45768(7)
C9D C -0.2863(5) -0.8784(6) 0.46361(8)
H16D H -0.2825 -0.9397 0.4528
C10D C -0.2212(5) -0.8519(7) 0.48501(8)
H17D H -0.1730 -0.8964 0.4885
C11K C -0.2730(5) -0.5575(6) 0.60444(6)
C12K C -0.3999(4) -0.6588(6) 0.59266(7)
C13K C -0.5207(5) -0.6794(7) 0.60130(8)
H18K H -0.5210 -0.6234 0.6136
C14K C -0.6420(5) -0.7802(7) 0.59242(9)
H19K H -0.7238 -0.7931 0.5987
C15G C 0.2517(8) -1.0624(6) 0.49510(9)
H20G H 0.3014 -1.1054 0.4916
C16G C 0.1155(7) -1.1268(5) 0.49019(8)
H21G H 0.0725 -1.2141 0.4836
C17G C 0.0422(6) -1.0641(5) 0.49487(7)
C18G C -0.1018(6) -1.1351(4) 0.48766(7)
O2 O 0.6625(4) -0.3414(4) 0.57044(6)
H1 H 0.725(4) -0.266(3) 0.5658(9)
H2 H 0.699(5) -0.375(5) 0.5791(8)
O4 O -0.0837(4) -0.3588(4) 0.52879(7)
H3 H -0.110(5) -0.326(5) 0.5180(8)
H4 H -0.150(4) -0.423(4) 0.5358(9)
O6 O 0.5808(4) -0.5259(4) 0.53321(6)
H5 H 0.6182 -0.4629 0.5433
H6 H 0.5679 -0.5192 0.5185
O8 O -0.0941(9) 0.0365(8) 0.61120(13)
O10? O -0.1132(10) -0.0304(10) 0.60115(14)
loop_
_geom_bond_atom_site_label_1
_geom_bond_atom_site_label_2
_geom_bond_site_symmetry_1
_geom_bond_site_symmetry_2
Cd1 O1 1_555 1_555
O1 C18 1_555 1_555
O2 H1 1_555 1_555
H2 O2 1_555 1_555
O3 Cd1 1_555 1_555
O4 H3 1_555 1_555
H4 O4 1_555 1_555
O5 Cd1 1_555 1_555
O6 H5 1_555 1_555
H6 O6 1_555 1_555
O7 Cd1 1_555 1_555
O9 Cd1 1_555 1_555
H7 O9 1_555 1_555
H8 O9 1_555 1_555
N1 Cd1 1_555 1_555
N2 H9 1_555 1_555
N3 C6 1_555 1_555
C1 N1 1_555 1_555
H10 C1 1_555 1_555
C2 C1 1_555 1_555
H11 C2 1_555 1_555
C3 N2 1_555 1_555
C4 C3 1_555 1_555
H12 C4 1_555 1_555
C5 N1 1_555 1_555
H13 C5 1_555 1_555
C6 H14 1_555 1_555
C7 C6 1_555 1_555
H15 C7 1_555 1_555
C8 N2 1_555 1_555
C9 C8 1_555 1_555
H16 C9 1_555 1_555
C10 N3 1_555 1_555
H17 C10 1_555 1_555
C11 O5 1_555 1_555
C12 C11 1_555 1_555
C13 C12 1_555 1_555
H18 C13 1_555 1_555
C14 C13 1_555 1_555
H19 C14 1_555 1_555
C15 H20 1_555 1_555
C16 C15 1_555 1_555
H21 C16 1_555 1_555
C17 C16 1_555 1_555
C18 O3 1_555 1_555
Cd1G O1G 1_555 1_555
Cd1E N3 1_555 1_555
Cd1K O5K 1_555 1_555
Cd1D N1D 1_555 1_555
O1G C18G 1_555 1_555
O3G Cd1G 1_555 1_555
O5K C11K 1_555 1_555
O5G Cd1G 1_555 1_555
O7K Cd1K 1_555 1_555
O7G Cd1G 1_555 1_555
O9G Cd1G 1_555 1_555
H7G O9G 1_555 1_555
H8G O9G 1_555 1_555
N1D C1D 1_555 1_555
N1G Cd1G 1_555 1_555
N2D H9D 1_555 1_555
N3D Cd1 1_555 1_555
N3K Cd1G 1_555 1_555
C1D H10D 1_555 1_555
C2D C1D 1_555 1_555
H11D C2D 1_555 1_555
C3D N2D 1_555 1_555
C4D C3D 1_555 1_555
H12D C4D 1_555 1_555
C5D N1D 1_555 1_555
H13D C5D 1_555 1_555
C6D N3D 1_555 1_555
H14D C6D 1_555 1_555
C7D C6D 1_555 1_555
H15D C7D 1_555 1_555
C8D N2D 1_555 1_555
C9D C8D 1_555 1_555
H16D C9D 1_555 1_555
C10D N3D 1_555 1_555
H17D C10D 1_555 1_555
C11K O7K 1_555 1_555
C12K C12 1_555 1_555
C13K C12K 1_555 1_555
H18K C13K 1_555 1_555
C14K C14 1_555 1_555
H19K C14K 1_555 1_555
C15G C15 1_555 1_555
H20G C15G 1_555 1_555
C16G C15G 1_555 1_555
H21G C16G 1_555 1_555
C17G C17 1_555 1_555
C18G O3G 1_555 1_555
O7 C11 1_555 1_555
C2 C3 1_555 1_555
C4 C5 1_555 1_555
C7 C8 1_555 1_555
C9 C10 1_555 1_555
C17 C18 1_555 1_555
C2D C3D 1_555 1_555
C4D C5D 1_555 1_555
C7D C8D 1_555 1_555
C9D C10D 1_555 1_555
C11K C12K 1_555 1_555
C13K C14K 1_555 1_555
C16G C17G 1_555 1_555
C17G C18G 1_555 1_555

#END
