
#######################################################################
#
#                 Cambridge Crystallographic Data Centre
#                                CCDC 
#
#######################################################################
#
# If this CIF has been generated from an entry in the Cambridge 
# Structural Database, then it will include bibliographic, chemical, 
# crystal, experimental, refinement or atomic coordinate data resulting 
# from the CCDC's data processing and validation procedures.
#
#######################################################################

data_DOYVUJ
_symmetry_cell_setting           monoclinic
_symmetry_space_group_name_H-M   'P 21/n'
_symmetry_Int_Tables_number      14
_space_group_name_Hall           '-P 2yn'
loop_
_symmetry_equiv_pos_site_id
_symmetry_equiv_pos_as_xyz
1 x,y,z
2 1/2-x,1/2+y,1/2-z
3 -x,-y,-z
4 1/2+x,1/2-y,1/2+z
_cell_length_a                   11.040(2)
_cell_length_b                   11.797(2)
_cell_length_c                   21.356(4)
_cell_angle_alpha                90
_cell_angle_beta                 102.53(3)
_cell_angle_gamma                90
_cell_volume                     2715.14
loop_
_atom_site_label
_atom_site_type_symbol
_atom_site_fract_x
_atom_site_fract_y
_atom_site_fract_z
Cu1 Cu 0.82194(2) 0.51872(3) 0.012541(12)
C1 C 0.7318(2) 0.6637(2) -0.12763(11)
C2 C 0.6842(2) 0.6778(3) -0.19324(12)
H1 H 0.6852 0.6176 -0.2213
C3 C 0.6353(3) 0.7819(3) -0.21662(14)
H2 H 0.6033 0.7913 -0.2603
C4 C 0.6341(3) 0.8709(3) -0.17525(16)
H3 H 0.6013 0.9404 -0.1911
C5 C 0.6809(3) 0.8581(3) -0.11083(16)
H4 H 0.6798 0.9187 -0.0831
C6 C 0.7300(2) 0.7548(2) -0.08701(13)
H5 H 0.7622 0.7466 -0.0432
C7 C 0.9310(2) 0.5157(2) -0.13817(11)
H6 H 0.9437 0.4355 -0.1444
H7 H 0.9040 0.5496 -0.1803
C8 C 0.5720(2) 0.4354(3) -0.14968(14)
H8 H 0.5389 0.5077 -0.1490
C9 C 0.4942(3) 0.3427(4) -0.16982(17)
H9 H 0.4091 0.3541 -0.1825
C10 C 0.5409(4) 0.2361(4) -0.17125(17)
H10 H 0.4880 0.1755 -0.1850
C11 C 0.6669(3) 0.2186(3) -0.15220(17)
H11 H 0.6991 0.1459 -0.1532
C12 C 0.7458(3) 0.3087(2) -0.13164(13)
H12 H 0.8306 0.2958 -0.1183
C13 C 0.6996(2) 0.4183(2) -0.13063(11)
C14 C -0.1635(2) 0.4279(2) 0.16543(11)
C15 C -0.1458(2) 0.5154(2) 0.20931(13)
H13 H -0.0918 0.5741 0.2053
C16 C -0.2077(3) 0.5169(3) 0.25943(15)
H14 H -0.1939 0.5761 0.2889
C17 C -0.2885(3) 0.4325(3) 0.26593(16)
H15 H -0.3285 0.4330 0.3000
C18 C -0.3098(3) 0.3477(3) 0.22192(19)
H16 H -0.3663 0.2909 0.2256
C19 C -0.2485(3) 0.3444(3) 0.17136(15)
H17 H -0.2647 0.2859 0.1415
C20 C -0.0536(2) 0.2700(2) 0.09590(12)
C21 C 0.0012(3) 0.2078(3) 0.14998(16)
H18 H 0.0305 0.2444 0.1889
C22 C 0.0119(4) 0.0914(3) 0.1457(2)
H19 H 0.0495 0.0500 0.1818
C23 C -0.0317(5) 0.0377(3) 0.0896(3)
H20 H -0.0252 -0.0408 0.0874
C24 C -0.0851(5) 0.0969(4) 0.0363(3)
H21 H -0.1142 0.0589 -0.0022
C25 C -0.0966(3) 0.2143(3) 0.03864(16)
H22 H -0.1330 0.2547 0.0020
C26 C 0.5553(2) 0.6006(2) 0.00742(13)
H23 H 0.5904 0.6726 0.0122
C27 C 0.5726(2) 0.4103(2) 0.00329(13)
H24 H 0.6207 0.3451 0.0052
N1 N 0.8727(2) 0.73768(19) 0.09739(11)
N2 N 0.62893(18) 0.51026(18) 0.01096(10)
O1 O 0.9068(2) 0.67908(19) 0.05582(11)
O2 O 0.9504(2) 0.7715(2) 0.14317(11)
O3 O 0.7661(3) 0.7607(4) 0.0924(2)
P1 P 0.80544(5) 0.53158(5) -0.09434(3)
P2 P -0.08039(5) 0.42136(5) 0.09973(3)
Cu1B Cu 0.17806(2) 0.48128(3) -0.012541(12)
Cu1_2 Cu -0.17806(2) 0.51872(3) 0.012541(12)
Cu1B_2 Cu 1.17806(2) 0.48128(3) -0.012541(12)
C1B C 0.2682(2) 0.3363(2) 0.12763(11)
C2B C 0.3158(2) 0.3222(3) 0.19324(12)
H1B H 0.3148 0.3824 0.2213
C3B C 0.3647(3) 0.2181(3) 0.21662(14)
H2B H 0.3967 0.2087 0.2603
C4B C 0.3659(3) 0.1291(3) 0.17525(16)
H3B H 0.3987 0.0596 0.1911
C5B C 0.3191(3) 0.1419(3) 0.11083(16)
H4B H 0.3202 0.0813 0.0831
C6B C 0.2700(2) 0.2452(2) 0.08701(13)
H5B H 0.2378 0.2534 0.0432
C7B C 0.0690(2) 0.4843(2) 0.13817(11)
H6B H 0.0563 0.5645 0.1444
H7B H 0.0960 0.4504 0.1803
C8B C 0.4280(2) 0.5646(3) 0.14968(14)
H8B H 0.4611 0.4923 0.1490
C9B C 0.5058(3) 0.6573(4) 0.16982(17)
H9B H 0.5909 0.6459 0.1825
C10B C 0.4591(4) 0.7639(4) 0.17125(17)
H10B H 0.5120 0.8245 0.1850
C11B C 0.3331(3) 0.7814(3) 0.15220(17)
H11B H 0.3009 0.8541 0.1532
C12B C 0.2542(3) 0.6913(2) 0.13164(13)
H12B H 0.1694 0.7042 0.1183
C13B C 0.3004(2) 0.5817(2) 0.13063(11)
C14B C 1.1635(2) 0.5721(2) -0.16543(11)
C15B C 1.1458(2) 0.4846(2) -0.20931(13)
H13B H 1.0918 0.4259 -0.2053
C16B C 1.2077(3) 0.4831(3) -0.25943(15)
H14B H 1.1939 0.4239 -0.2889
C17B C 1.2885(3) 0.5675(3) -0.26593(16)
H15B H 1.3285 0.5670 -0.3000
C18B C 1.3098(3) 0.6523(3) -0.22192(19)
H16B H 1.3663 0.7091 -0.2256
C19B C 1.2485(3) 0.6556(3) -0.17136(15)
H17B H 1.2647 0.7141 -0.1415
C20B C 1.0536(2) 0.7300(2) -0.09590(12)
C21B C 0.9988(3) 0.7922(3) -0.14998(16)
H18B H 0.9695 0.7556 -0.1889
C22B C 0.9881(4) 0.9086(3) -0.1457(2)
H19B H 0.9505 0.9500 -0.1818
C23B C 1.0317(5) 0.9623(3) -0.0896(3)
H20B H 1.0252 1.0408 -0.0874
C24B C 1.0851(5) 0.9031(4) -0.0363(3)
H21B H 1.1142 0.9411 0.0022
C25B C 1.0966(3) 0.7857(3) -0.03864(16)
H22B H 1.1330 0.7453 -0.0020
C26B C 0.4447(2) 0.3994(2) -0.00742(13)
H23B H 0.4096 0.3274 -0.0122
C27B C 0.4274(2) 0.5897(2) -0.00329(13)
H24B H 0.3793 0.6549 -0.0052
N1B N 0.1273(2) 0.26232(19) -0.09739(11)
N2B N 0.37107(18) 0.48974(18) -0.01096(10)
O1B O 0.0932(2) 0.32092(19) -0.05582(11)
O2B O 0.0496(2) 0.2285(2) -0.14317(11)
O3B O 0.2339(3) 0.2393(4) -0.0924(2)
P1B P 0.19456(5) 0.46842(5) 0.09434(3)
P2_2 P 0.91961(5) 0.42136(5) 0.09973(3)
P2B P 0.08039(5) 0.57864(5) -0.09973(3)
P2B_2 P 1.08039(5) 0.57864(5) -0.09973(3)
C28 C 0.4548(7) 0.0738(6) 0.9571(4)
H25 H 0.4189 0.1265 0.9262
C29 C 0.5536(6) 0.1062(4) 1.0011(3)
H26 H 0.5882 0.1777 0.9995
N3 N 0.4002(6) -0.0362(7) 0.9542(3)
C28B C 0.5452(7) -0.0738(6) 1.0429(4)
H25B H 0.5811 -0.1265 1.0738
C29B C 0.4464(6) -0.1062(4) 0.9989(3)
H26B H 0.4118 -0.1777 1.0005
N3B N 0.5998(6) 0.0362(7) 1.0458(3)
loop_
_geom_bond_atom_site_label_1
_geom_bond_atom_site_label_2
_geom_bond_site_symmetry_1
_geom_bond_site_symmetry_2
Cu1 N2 1_555 1_555
C1 C2 1_555 1_555
C2 H1 1_555 1_555
C3 C2 1_555 1_555
H2 C3 1_555 1_555
C4 C3 1_555 1_555
H3 C4 1_555 1_555
C5 C4 1_555 1_555
H4 C5 1_555 1_555
C6 C1 1_555 1_555
H5 C6 1_555 1_555
C7 H6 1_555 1_555
H7 C7 1_555 1_555
C8 H8 1_555 1_555
C9 C8 1_555 1_555
H9 C9 1_555 1_555
C10 C9 1_555 1_555
H10 C10 1_555 1_555
C11 C10 1_555 1_555
H11 C11 1_555 1_555
C12 C11 1_555 1_555
H12 C12 1_555 1_555
C13 C8 1_555 1_555
C14 C15 1_555 1_555
C15 H13 1_555 1_555
C16 C15 1_555 1_555
H14 C16 1_555 1_555
C17 C16 1_555 1_555
H15 C17 1_555 1_555
C18 C17 1_555 1_555
H16 C18 1_555 1_555
C19 C14 1_555 1_555
H17 C19 1_555 1_555
C20 C21 1_555 1_555
C21 H18 1_555 1_555
C22 C21 1_555 1_555
H19 C22 1_555 1_555
C23 C22 1_555 1_555
H20 C23 1_555 1_555
C24 C23 1_555 1_555
H21 C24 1_555 1_555
C25 C20 1_555 1_555
H22 C25 1_555 1_555
C26 H23 1_555 1_555
C27 H24 1_555 1_555
C28 H25 1_555 1_555
C29 C28 1_555 1_555
H26 C29 1_555 1_555
N1 O1 1_555 1_555
N2 C26 1_555 1_555
N3 C28 1_555 1_555
O1 Cu1 1_555 1_555
O2 N1 1_555 1_555
O3 N1 1_555 1_555
P1 Cu1 1_555 1_555
P2 C14 1_555 1_555
Cu1B N2B 1_555 1_555
Cu1_2 P2 1_555 1_555
Cu1B_2 P2B_2 1_555 1_555
C1B C2B 1_555 1_555
C2B H1B 1_555 1_555
C3B C2B 1_555 1_555
H2B C3B 1_555 1_555
C4B C3B 1_555 1_555
H3B C4B 1_555 1_555
C5B C4B 1_555 1_555
H4B C5B 1_555 1_555
C6B C1B 1_555 1_555
H5B C6B 1_555 1_555
C7B P2 1_555 1_555
H6B C7B 1_555 1_555
H7B C7B 1_555 1_555
C8B H8B 1_555 1_555
C9B C8B 1_555 1_555
H9B C9B 1_555 1_555
C10B C9B 1_555 1_555
H10B C10B 1_555 1_555
C11B C10B 1_555 1_555
H11B C11B 1_555 1_555
C12B C11B 1_555 1_555
H12B C12B 1_555 1_555
C13B C8B 1_555 1_555
C14B C15B 1_555 1_555
C15B H13B 1_555 1_555
C16B C15B 1_555 1_555
H14B C16B 1_555 1_555
C17B C16B 1_555 1_555
H15B C17B 1_555 1_555
C18B C17B 1_555 1_555
H16B C18B 1_555 1_555
C19B C14B 1_555 1_555
H17B C19B 1_555 1_555
C20B C21B 1_555 1_555
C21B H18B 1_555 1_555
C22B C21B 1_555 1_555
H19B C22B 1_555 1_555
C23B C22B 1_555 1_555
H20B C23B 1_555 1_555
C24B C23B 1_555 1_555
H21B C24B 1_555 1_555
C25B C20B 1_555 1_555
H22B C25B 1_555 1_555
C26B C27 1_555 1_555
H23B C26B 1_555 1_555
C27B C26 1_555 1_555
H24B C27B 1_555 1_555
C28B H25B 1_555 1_555
C29B N3 1_555 1_555
H26B C29B 1_555 1_555
N1B O1B 1_555 1_555
N2B C26B 1_555 1_555
N3B C29 1_555 1_555
O1B Cu1B 1_555 1_555
O2B N1B 1_555 1_555
O3B N1B 1_555 1_555
P1B Cu1B 1_555 1_555
P2_2 Cu1 1_555 1_555
P2B Cu1B 1_555 1_555
P2B_2 C7 1_555 1_555
C1 P1 1_555 1_555
C5 C6 1_555 1_555
C7 P1 1_555 1_555
C12 C13 1_555 1_555
C13 P1 1_555 1_555
C18 C19 1_555 1_555
C20 P2 1_555 1_555
C24 C25 1_555 1_555
C27 N2 1_555 1_555
C1B P1B 1_555 1_555
C5B C6B 1_555 1_555
C7B P1B 1_555 1_555
C12B C13B 1_555 1_555
C13B P1B 1_555 1_555
C14B P2B_2 1_555 1_555
C18B C19B 1_555 1_555
C20B P2B_2 1_555 1_555
C24B C25B 1_555 1_555
C27B N2B 1_555 1_555
C28B C29B 1_555 1_555
C28B N3B 1_555 1_555

#END
