
#######################################################################
#
#                 Cambridge Crystallographic Data Centre
#                                CCDC 
#
#######################################################################
#
# If this CIF has been generated from an entry in the Cambridge 
# Structural Database, then it will include bibliographic, chemical, 
# crystal, experimental, refinement or atomic coordinate data resulting 
# from the CCDC's data processing and validation procedures.
#
#######################################################################

data_DOYXOF
_symmetry_cell_setting           orthorhombic
_symmetry_space_group_name_H-M   'P b c a'
_symmetry_Int_Tables_number      61
_space_group_name_Hall           '-P 2ac 2ab'
loop_
_symmetry_equiv_pos_site_id
_symmetry_equiv_pos_as_xyz
1 x,y,z
2 1/2-x,-y,1/2+z
3 1/2+x,1/2-y,-z
4 -x,1/2+y,1/2-z
5 -x,-y,-z
6 1/2+x,y,1/2-z
7 1/2-x,1/2+y,z
8 x,1/2-y,1/2+z
_cell_length_a                   17.244(3)
_cell_length_b                   17.597(4)
_cell_length_c                   19.974(5)
_cell_angle_alpha                90
_cell_angle_beta                 90
_cell_angle_gamma                90
_cell_volume                     6060.96
loop_
_atom_site_label
_atom_site_type_symbol
_atom_site_fract_x
_atom_site_fract_y
_atom_site_fract_z
C1 C -0.0865(5) 0.8912(5) 0.5450(5)
C2 C -0.0902(7) 0.9553(6) 0.5061(6)
H1 H -0.0816 0.9523 0.4602
C3 C -0.1074(6) 1.0272(6) 0.5368(6)
H2 H -0.1146 1.0699 0.5100
C4 C -0.1132(6) 1.0338(6) 0.6032(6)
H3 H -0.1193 1.0815 0.6227
C5 C -0.1102(5) 0.9685(5) 0.6436(5)
C6 C -0.0976(5) 0.8969(5) 0.6150(5)
C7 C -0.1081(5) 0.9757(5) 0.7152(5)
H4 H -0.1127 1.0241 0.7334
C8 C -0.0873(6) 0.9231(5) 0.8276(5)
H5 H -0.0990 0.9747 0.8432
C9 C -0.1393(7) 0.8668(7) 0.8641(5)
H6 H -0.1927 0.8789 0.8556
H7 H -0.1294 0.8695 0.9113
H8 H -0.1286 0.8163 0.8484
C10 C -0.0045(7) 0.9054(5) 0.8418(5)
H9 H 0.0032 0.9021 0.8899
H10 H 0.0086 0.8565 0.8225
C11 C 0.0891(7) 0.9579(6) 0.7615(6)
H11 H 0.0866 0.9127 0.7374
C12 C 0.1388(6) 1.0146(6) 0.7381(5)
C13 C 0.1856(7) 1.0027(8) 0.6820(6)
H12 H 0.1831 0.9566 0.6594
C14 C 0.2336(8) 1.0567(9) 0.6606(7)
H13 H 0.2638 1.0471 0.6230
C15 C 0.2405(7) 1.1277(8) 0.6925(6)
H14 H 0.2755 1.1637 0.6767
C16 C 0.1951(6) 1.1431(7) 0.7471(5)
C17 C 0.1431(6) 1.0874(6) 0.7711(5)
C18 C 0.2530(7) 1.2642(7) 0.7714(6)
H15 H 0.2397 1.3107 0.7936
H16 H 0.2572 1.2731 0.7241
H17 H 0.3017 1.2459 0.7882
C19 C -0.0538(8) 0.8096(7) 0.4539(6)
H18 H -0.0997 0.8233 0.4295
H19 H -0.0410 0.7575 0.4449
H20 H -0.0116 0.8416 0.4401
C20 C -0.2053(8) 0.6202(8) 0.5498(7)
H21 H -0.2262 0.6165 0.5053
H22 H -0.2469 0.6188 0.5817
H23 H -0.1708 0.5784 0.5578
La1 La -0.04118(3) 0.71025(3) 0.62532(3)
N1 N -0.1002(4) 0.9190(4) 0.7559(4)
H24 H -0.1191 0.8779 0.7390
N2 N 0.0467(5) 0.9640(4) 0.8141(4)
H25 H 0.0485 1.0066 0.8351
N3 N 0.1172(6) 0.7961(5) 0.6059(4)
N4 N 0.0291(6) 0.7007(5) 0.7675(5)
N5 N 0.0352(6) 0.5875(5) 0.5368(6)
O1 O -0.0972(3) 0.8330(3) 0.6504(3)
O2 O -0.0670(4) 0.8193(4) 0.5233(3)
O3 O 0.0991(4) 1.1011(3) 0.8234(3)
O4 O 0.1944(4) 1.2091(4) 0.7835(4)
O5 O 0.0706(5) 0.8143(4) 0.6502(4)
O6 O 0.1790(5) 0.8258(5) 0.5973(4)
O7 O 0.0962(4) 0.7422(5) 0.5689(4)
O8 O 0.0565(4) 0.6614(4) 0.7208(4)
O9 O 0.0586(5) 0.7043(5) 0.8223(4)
O10 O -0.0301(4) 0.7412(4) 0.7536(3)
O11 O 0.0416(4) 0.5851(4) 0.5982(4)
O12 O 0.0726(5) 0.5439(4) 0.4995(5)
O13 O -0.0114(5) 0.6364(4) 0.5132(4)
O14 O -0.1639(4) 0.6901(4) 0.5565(3)
La1C La 0.04118(3) 1.21025(3) 0.87468(3)
O3C O -0.0991(4) 0.6011(3) 0.6766(3)
O15 O 0.2323(8) 0.7023(8) 0.4827(8)
H26 H 0.2612 0.7018 0.5171
H27 H 0.2218 0.6573 0.4704
loop_
_geom_bond_atom_site_label_1
_geom_bond_atom_site_label_2
_geom_bond_site_symmetry_1
_geom_bond_site_symmetry_2
C1 C2 1_555 1_555
C2 H1 1_555 1_555
C3 C2 1_555 1_555
H2 C3 1_555 1_555
C4 C3 1_555 1_555
H3 C4 1_555 1_555
C5 C4 1_555 1_555
C6 C1 1_555 1_555
C7 C5 1_555 1_555
H4 C7 1_555 1_555
C8 H5 1_555 1_555
C9 C8 1_555 1_555
H6 C9 1_555 1_555
H7 C9 1_555 1_555
H8 C9 1_555 1_555
C10 C8 1_555 1_555
H9 C10 1_555 1_555
H10 C10 1_555 1_555
C11 H11 1_555 1_555
C12 C11 1_555 1_555
C13 C12 1_555 1_555
H12 C13 1_555 1_555
C14 C13 1_555 1_555
H13 C14 1_555 1_555
C15 C14 1_555 1_555
H14 C15 1_555 1_555
C16 C15 1_555 1_555
C17 C12 1_555 1_555
C18 H15 1_555 1_555
H16 C18 1_555 1_555
H17 C18 1_555 1_555
C19 H18 1_555 1_555
H19 C19 1_555 1_555
H20 C19 1_555 1_555
C20 H21 1_555 1_555
H22 C20 1_555 1_555
H23 C20 1_555 1_555
La1 O1 1_555 1_555
N1 C7 1_555 1_555
H24 N1 1_555 1_555
N2 C10 1_555 1_555
H25 N2 1_555 1_555
N3 O5 1_555 1_555
N4 O8 1_555 1_555
N5 O11 1_555 1_555
O1 C6 1_555 1_555
O2 C1 1_555 1_555
O3 C17 1_555 1_555
O4 C16 1_555 1_555
O5 La1 1_555 1_555
O6 N3 1_555 1_555
O7 La1 1_555 1_555
O8 La1 1_555 1_555
O9 N4 1_555 1_555
O10 La1 1_555 1_555
O11 La1 1_555 1_555
O12 N5 1_555 1_555
O13 La1 1_555 1_555
O14 C20 1_555 1_555
O15 H26 1_555 1_555
H27 O15 1_555 1_555
La1C O3 1_555 1_555
O3C La1 1_555 1_555
C5 C6 1_555 1_555
C8 N1 1_555 1_555
C11 N2 1_555 1_555
C16 C17 1_555 1_555
C18 O4 1_555 1_555
C19 O2 1_555 1_555
La1 O2 1_555 1_555
La1 O14 1_555 1_555
N3 O7 1_555 1_555
N4 O10 1_555 1_555
N5 O13 1_555 1_555

#END
