
#######################################################################
#
#                 Cambridge Crystallographic Data Centre
#                                CCDC 
#
#######################################################################
#
# If this CIF has been generated from an entry in the Cambridge 
# Structural Database, then it will include bibliographic, chemical, 
# crystal, experimental, refinement or atomic coordinate data resulting 
# from the CCDC's data processing and validation procedures.
#
#######################################################################

data_DOZCUQ01
_symmetry_cell_setting           monoclinic
_symmetry_space_group_name_H-M   'P 21/n'
_symmetry_Int_Tables_number      14
_space_group_name_Hall           '-P 2yn'
loop_
_symmetry_equiv_pos_site_id
_symmetry_equiv_pos_as_xyz
1 x,y,z
2 1/2-x,1/2+y,1/2-z
3 -x,-y,-z
4 1/2+x,1/2-y,1/2+z
_cell_length_a                   15.0467(6)
_cell_length_b                   9.8972(4)
_cell_length_c                   20.1786(9)
_cell_angle_alpha                90
_cell_angle_beta                 94.046(4)
_cell_angle_gamma                90
_cell_volume                     2997.51
loop_
_atom_site_label
_atom_site_type_symbol
_atom_site_fract_x
_atom_site_fract_y
_atom_site_fract_z
Sn1 Sn 0.372821(9) 0.146155(14) 0.096176(6)
Sn2 Sn 0.405795(9) -0.361444(13) 0.154302(6)
N1 N 0.13586(12) 0.74456(18) -0.16325(9)
H1 H 0.1533 0.8265 -0.1681
H2 H 0.0908 0.7142 -0.1873
N2 N 0.43543(13) 0.1868(2) 0.46721(9)
H3 H 0.4245 0.1423 0.5023
H4 H 0.4455 0.2723 0.4696
O1 O 0.30383(10) 0.28332(14) 0.02563(7)
O2 O 0.35734(10) 0.46084(15) 0.08195(7)
O3 O 0.45518(10) -0.21657(14) 0.22825(7)
O4 O 0.44045(9) -0.02952(14) 0.16712(7)
C1 C 0.26699(13) 0.4977(2) -0.01853(9)
C2 C 0.29521(14) 0.6292(2) -0.02896(10)
H5 H 0.3432 0.6636 -0.0027
C3 C 0.25337(14) 0.7101(2) -0.07759(10)
H6 H 0.2743 0.7972 -0.0841
C4 C 0.17998(13) 0.6623(2) -0.11709(10)
C5 C 0.15138(13) 0.5297(2) -0.10657(10)
H7 H 0.1025 0.4958 -0.1321
C6 C 0.19469(13) 0.4490(2) -0.05900(9)
H8 H 0.1756 0.3606 -0.0537
C7 C 0.31223(13) 0.4110(2) 0.03349(10)
C8 C 0.50216(14) 0.2326(2) 0.10143(11)
H9 H 0.5445 0.1662 0.0891
H10 H 0.5177 0.2627 0.1460
H11 H 0.5029 0.3081 0.0716
C9 C 0.35568(18) -0.0085(2) 0.02385(11)
H12 H 0.3929 -0.0840 0.0369
H13 H 0.3719 0.0252 -0.0183
H14 H 0.2945 -0.0366 0.0201
C10 C 0.27697(14) 0.1703(2) 0.16736(11)
H15 H 0.2257 0.1158 0.1550
H16 H 0.2596 0.2635 0.1691
H17 H 0.3022 0.1425 0.2102
C11 C 0.44293(13) -0.0136(2) 0.28575(10)
C12 C 0.45840(13) 0.1247(2) 0.29005(10)
H18 H 0.4704 0.1726 0.2521
C13 C 0.45617(13) 0.1921(2) 0.34999(10)
H19 H 0.4675 0.2844 0.3520
C14 C 0.43692(13) 0.1220(2) 0.40776(10)
C15 C 0.42069(13) -0.0170(2) 0.40326(10)
H20 H 0.4074 -0.0651 0.4409
C16 C 0.42424(13) -0.0830(2) 0.34348(10)
H21 H 0.4140 -0.1756 0.3414
C17 C 0.44593(13) -0.0883(2) 0.22214(10)
C18 C 0.27916(14) -0.2686(2) 0.13962(11)
H22 H 0.2809 -0.1812 0.1603
H23 H 0.2354 -0.3238 0.1590
H24 H 0.2638 -0.2588 0.0929
C19 C 0.51419(15) -0.3398(2) 0.09340(11)
H25 H 0.5125 -0.2515 0.0736
H26 H 0.5099 -0.4071 0.0591
H27 H 0.5692 -0.3510 0.1199
C20 C 0.41390(16) -0.5109(2) 0.23002(11)
H28 H 0.3556 -0.5273 0.2447
H29 H 0.4526 -0.4799 0.2667
H30 H 0.4372 -0.5930 0.2128
Sn2_2 Sn 0.405795(9) 0.638556(13) 0.154302(6)
O2_2 O 0.35734(10) -0.53916(15) 0.08195(7)
C21 C 0.67081(15) 0.9442(2) 0.16694(11)
H31 H 0.6156 0.9541 0.1436
C22 C 0.69136(16) 1.0202(3) 0.22317(12)
H32 H 0.6503 1.0819 0.2376
C23 C 0.77336(16) 1.0047(3) 0.25831(12)
H33 H 0.7874 1.0561 0.2962
C24 C 0.83392(16) 0.9129(3) 0.23694(12)
H34 H 0.8887 0.9016 0.2607
C25 C 0.81348(16) 0.8378(2) 0.18037(13)
H35 H 0.8547 0.7764 0.1659
C26 C 0.73193(16) 0.8535(2) 0.14514(12)
H36 H 0.7183 0.8030 0.1069
C27 C 0.0686(2) 0.0029(3) -0.04139(16)
H37 H 0.120(2) 0.008(3) -0.0684(16)
C28 C 0.0796(2) 0.0570(3) 0.02178(17)
H38 H 0.1336 0.0962 0.0364
C29 C 0.0109(2) 0.0529(3) 0.06289(14)
H39 H 0.0187 0.0883 0.1056
C27B C -0.0686(2) -0.0029(3) 0.04139(16)
H37B H -0.120(2) -0.008(3) 0.0684(16)
C28B C -0.0796(2) -0.0570(3) -0.02178(17)
H38B H -0.1336 -0.0962 -0.0364
C29B C -0.0109(2) -0.0529(3) -0.06289(14)
H39B H -0.0187 -0.0883 -0.1056
loop_
_geom_bond_atom_site_label_1
_geom_bond_atom_site_label_2
_geom_bond_site_symmetry_1
_geom_bond_site_symmetry_2
Sn1 O1 1_555 1_555
Sn2 O3 1_555 1_555
N1 H1 1_555 1_555
H2 N1 1_555 1_555
N2 H3 1_555 1_555
H4 N2 1_555 1_555
O1 C7 1_555 1_555
O2 C7 1_555 1_555
O3 C17 1_555 1_555
O4 Sn1 1_555 1_555
C1 C2 1_555 1_555
C2 H5 1_555 1_555
C3 C2 1_555 1_555
H6 C3 1_555 1_555
C4 N1 1_555 1_555
C5 C4 1_555 1_555
H7 C5 1_555 1_555
C6 C1 1_555 1_555
H8 C6 1_555 1_555
C7 C1 1_555 1_555
C8 Sn1 1_555 1_555
H9 C8 1_555 1_555
H10 C8 1_555 1_555
H11 C8 1_555 1_555
C9 Sn1 1_555 1_555
H12 C9 1_555 1_555
H13 C9 1_555 1_555
H14 C9 1_555 1_555
C10 Sn1 1_555 1_555
H15 C10 1_555 1_555
H16 C10 1_555 1_555
H17 C10 1_555 1_555
C11 C12 1_555 1_555
C12 H18 1_555 1_555
C13 C12 1_555 1_555
H19 C13 1_555 1_555
C14 N2 1_555 1_555
C15 C14 1_555 1_555
H20 C15 1_555 1_555
C16 C11 1_555 1_555
H21 C16 1_555 1_555
C17 O4 1_555 1_555
C18 Sn2 1_555 1_555
H22 C18 1_555 1_555
H23 C18 1_555 1_555
H24 C18 1_555 1_555
C19 Sn2 1_555 1_555
H25 C19 1_555 1_555
H26 C19 1_555 1_555
H27 C19 1_555 1_555
C20 Sn2 1_555 1_555
H28 C20 1_555 1_555
H29 C20 1_555 1_555
H30 C20 1_555 1_555
C21 H31 1_555 1_555
C22 C21 1_555 1_555
H32 C22 1_555 1_555
C23 C22 1_555 1_555
H33 C23 1_555 1_555
C24 C23 1_555 1_555
H34 C24 1_555 1_555
C25 C24 1_555 1_555
H35 C25 1_555 1_555
C26 C21 1_555 1_555
H36 C26 1_555 1_555
C27 H37 1_555 1_555
C28 C27 1_555 1_555
H38 C28 1_555 1_555
C29 C28 1_555 1_555
H39 C29 1_555 1_555
Sn2_2 O2 1_555 1_555
O2_2 Sn2 1_555 1_555
C27B C29 1_555 1_555
H37B C27B 1_555 1_555
C28B C27B 1_555 1_555
H38B C28B 1_555 1_555
C29B C27 1_555 1_555
H39B C29B 1_555 1_555
C3 C4 1_555 1_555
C5 C6 1_555 1_555
C11 C17 1_555 1_555
C13 C14 1_555 1_555
C15 C16 1_555 1_555
C25 C26 1_555 1_555
C28B C29B 1_555 1_555

#END
