
#######################################################################
#
#                 Cambridge Crystallographic Data Centre
#                                CCDC 
#
#######################################################################
#
# If this CIF has been generated from an entry in the Cambridge 
# Structural Database, then it will include bibliographic, chemical, 
# crystal, experimental, refinement or atomic coordinate data resulting 
# from the CCDC's data processing and validation procedures.
#
#######################################################################

data_DOZNOW
_symmetry_cell_setting           tetragonal
_symmetry_space_group_name_H-M   'P -4 21 m'
_symmetry_Int_Tables_number      113
_space_group_name_Hall           'P -4 2ab'
loop_
_symmetry_equiv_pos_site_id
_symmetry_equiv_pos_as_xyz
1 x,y,z
2 -x,-y,z
3 y,-x,-z
4 -y,x,-z
5 1/2-x,1/2+y,-z
6 1/2+x,1/2-y,-z
7 1/2-y,1/2-x,z
8 1/2+y,1/2+x,z
_cell_length_a                   15.8138(4)
_cell_length_b                   15.8138(4)
_cell_length_c                   3.72700(10)
_cell_angle_alpha                90
_cell_angle_beta                 90
_cell_angle_gamma                90
_cell_volume                     932.034
loop_
_atom_site_label
_atom_site_type_symbol
_atom_site_fract_x
_atom_site_fract_y
_atom_site_fract_z
O2 O 0.5000 1.0000 0.824(2)
Cl1 Cl 0.56981(11) 1.06981(11) 0.8460(7)
O3 O 0.6404(4) 1.0380(4) 1.040(3)
O4 O 0.5966(5) 1.0966(5) 0.508(4)
O5 O 0.6262(3) 1.1262(3) 0.792(2)
Cl1A Cl 0.43019(11) 0.93019(11) 0.8460(7)
O3G O 0.5380(4) 1.1404(4) 1.040(3)
O3A O 0.3596(4) 0.9620(4) 1.040(3)
O3F O 0.4620(4) 0.8596(4) 1.040(3)
O4A O 0.4034(5) 0.9034(5) 0.508(4)
O5A O 0.3738(3) 0.8738(3) 0.792(2)
Ag1 Ag 0.0000 0.0000 1.0000
N1 N 0.25588(19) 0.24412(19) 0.7811(13)
C1 C 0.2328(2) 0.1649(2) 0.6901(10)
C2 C 0.2847(2) 0.1081(2) 0.5183(11)
H1 H 0.2655 0.0526 0.4644
C3 C 0.3663(2) 0.1337(2) 0.4247(14)
H2 H 0.4034 0.0966 0.3006
C4 C 0.1455(2) 0.1373(2) 0.8087(11)
N2 N 0.09727(18) 0.19436(19) 0.9668(11)
H3 H 0.0467 0.1802 1.0453
H4 H 0.1156 0.2465 0.9936
O1 O 0.12366(18) 0.06233(18) 0.7616(9)
Ag1D Ag 0.5000 0.5000 1.0000
Ag1D_2 Ag -0.5000 -0.5000 1.0000
N1A N -0.25588(19) -0.24412(19) 0.7811(13)
C1F C 0.3351(2) 0.2672(2) 0.6901(10)
C1A C -0.2328(2) -0.1649(2) 0.6901(10)
C1G C -0.3351(2) -0.2672(2) 0.6901(10)
C2F C 0.3919(2) 0.2153(2) 0.5183(11)
C2A C -0.2847(2) -0.1081(2) 0.5183(11)
C2G C -0.3919(2) -0.2153(2) 0.5183(11)
H1F H 0.4474 0.2345 0.4644
H1A H -0.2655 -0.0526 0.4644
H1G H -0.4474 -0.2345 0.4644
C3A C -0.3663(2) -0.1337(2) 0.4247(14)
H2A H -0.4034 -0.0966 0.3006
C4F C 0.3627(2) 0.3545(2) 0.8087(11)
C4A C -0.1455(2) -0.1373(2) 0.8087(11)
C4G C -0.3627(2) -0.3545(2) 0.8087(11)
N2F N 0.30564(19) 0.40273(18) 0.9668(11)
N2A N -0.09727(18) -0.19436(19) 0.9668(11)
N2G N -0.30564(19) -0.40273(18) 0.9668(11)
H3F H 0.3198 0.4533 1.0453
H3A H -0.0467 -0.1802 1.0453
H3G H -0.3198 -0.4533 1.0453
H4F H 0.2535 0.3844 0.9936
H4A H -0.1156 -0.2465 0.9936
H4G H -0.2535 -0.3844 0.9936
O1F O 0.43767(18) 0.37634(18) 0.7616(9)
O1A O -0.12366(18) -0.06233(18) 0.7616(9)
O1G O -0.43767(18) -0.37634(18) 0.7616(9)
O1B O 0.06233(18) -0.12366(18) 1.2384(9)
O1C O -0.06233(18) 0.12366(18) 1.2384(9)
loop_
_geom_bond_atom_site_label_1
_geom_bond_atom_site_label_2
_geom_bond_site_symmetry_1
_geom_bond_site_symmetry_2
Ag1 O1 1_555 1_555
N1 C1 1_555 1_555
C1 C2 1_555 1_555
C2 H1 1_555 1_555
C3 C2 1_555 1_555
H2 C3 1_555 1_555
C4 C1 1_555 1_555
N2 C4 1_555 1_555
H3 N2 1_555 1_555
H4 N2 1_555 1_555
O1 C4 1_555 1_555
O2 Cl1 1_555 1_555
Cl1 O3 1_555 1_555
O3 O5 1_555 1_555
O4 Cl1 1_555 1_555
O5 Cl1 1_555 1_555
Ag1D O1F 1_555 1_555
Ag1D_2 O1G 1_555 1_555
N1A C1A 1_555 1_555
C1F N1 1_555 1_555
C1A C2A 1_555 1_555
C1G N1A 1_555 1_555
C2F C3 1_555 1_555
C2A H1A 1_555 1_555
C2G C1G 1_555 1_555
H1F C2F 1_555 1_555
H1G C2G 1_555 1_555
C3A C2A 1_555 1_555
H2A C3A 1_555 1_555
C4F C1F 1_555 1_555
C4A C1A 1_555 1_555
C4G C1G 1_555 1_555
N2F C4F 1_555 1_555
N2A C4A 1_555 1_555
N2G C4G 1_555 1_555
H3F N2F 1_555 1_555
H3A N2A 1_555 1_555
H3G N2G 1_555 1_555
H4F N2F 1_555 1_555
H4A N2A 1_555 1_555
H4G N2G 1_555 1_555
O1F C4F 1_555 1_555
O1A Ag1 1_555 1_555
O1G C4G 1_555 1_555
O1B Ag1 1_555 1_555
O1C Ag1 1_555 1_555
Cl1A O2 1_555 1_555
O3G Cl1 1_555 1_555
O3A Cl1A 1_555 1_555
O3F Cl1A 1_555 1_555
O4A Cl1A 1_555 1_555
O5A Cl1A 1_555 1_555
O4 O5 1_555 1_555
O5 O3G 1_555 1_555
C1F C2F 1_555 1_555
C2G C3A 1_555 1_555
C4A O1A 1_555 1_555
O3A O5A 1_555 1_555
O3F O5A 1_555 1_555
O4A O5A 1_555 1_555

#END
