
#######################################################################
#
#                 Cambridge Crystallographic Data Centre
#                                CCDC 
#
#######################################################################
#
# If this CIF has been generated from an entry in the Cambridge 
# Structural Database, then it will include bibliographic, chemical, 
# crystal, experimental, refinement or atomic coordinate data resulting 
# from the CCDC's data processing and validation procedures.
#
#######################################################################

data_DOZNIQ
_symmetry_cell_setting           orthorhombic
_symmetry_space_group_name_H-M   'P 21 21 2'
_symmetry_Int_Tables_number      18
_space_group_name_Hall           'P 2 2ab'
loop_
_symmetry_equiv_pos_site_id
_symmetry_equiv_pos_as_xyz
1 x,y,z
2 -x,-y,z
3 1/2-x,1/2+y,-z
4 1/2+x,1/2-y,-z
_cell_length_a                   15.7518(12)
_cell_length_b                   15.752
_cell_length_c                   3.6742(3)
_cell_angle_alpha                90
_cell_angle_beta                 90
_cell_angle_gamma                90
_cell_volume                     911.651
loop_
_atom_site_label
_atom_site_type_symbol
_atom_site_fract_x
_atom_site_fract_y
_atom_site_fract_z
B1 B 0.5726(6) -0.0670(7) 0.177(2)
F1 F 0.5094(12) -0.0061(13) 0.165(3)
F2 F 0.6423(9) -0.0387(9) -0.023(4)
F3 F 0.5935(10) -0.0832(13) 0.530(3)
F4 F 0.5420(11) -0.1404(10) 0.014(5)
O3 O 0.6237(10) -0.1285(10) -0.199(4)
H8 H 0.6228 -0.1282 0.5101
H9 H 0.5619 -0.1227 0.7372
B1A B 0.4274(6) 0.0670(7) 0.177(2)
B1_2 B 0.5726(6) -0.0670(7) 1.177(2)
B1_3 B 0.5726(6) -0.0670(7) -0.823(2)
F1A F 0.4906(12) 0.0061(13) 0.165(3)
F2A F 0.3577(9) 0.0387(9) -0.023(4)
F2_2 F 0.6423(9) -0.0387(9) 0.977(4)
F3_2 F 0.5935(10) -0.0832(13) -0.470(3)
F3A F 0.4065(10) 0.0832(13) 0.530(3)
F4_2 F 0.5420(11) -0.1404(10) 1.014(5)
F4A F 0.4580(11) 0.1404(10) 0.014(5)
O3_2 O 0.6237(10) -0.1285(10) 0.801(4)
O3A O 0.3763(10) 0.1285(10) -0.199(4)
H8_2 H 0.6228 -0.1282 -0.4899
H9_2 H 0.5619 -0.1227 -0.2628
Ag1 Ag 0.5000 0.5000 0.8529(4)
C1 C 0.2295(5) 0.8374(5) 0.7070(19)
C2 C 0.2796(5) 0.8942(7) 0.525(2)
H1 H 0.2568 0.9478 0.4579
C3 C 0.3637(6) 0.8751(7) 0.4342(18)
H2 H 0.3992 0.9164 0.3232
C4 C 0.3929(6) 0.7963(6) 0.5093(18)
H3 H 0.4495 0.7798 0.4532
C5 C 0.3340(4) 0.7385(5) 0.679(2)
C6 C 0.3583(6) 0.6432(7) 0.7973(18)
C7 C 0.1462(4) 0.8661(4) 0.820(2)
N1 N 0.2539(3) 0.7572(4) 0.7757(14)
N2 N 0.3069(6) 0.5961(6) 0.939(3)
H4 H 0.3217 0.5441 0.9995
H5 H 0.2549 0.6139 0.9805
N3 N 0.0992(6) 0.8041(6) 0.9720(18)
H6 H 0.0480 0.8154 1.0552
H7 H 0.1196 0.7522 0.9879
O1 O 0.4382(4) 0.6278(4) 0.7145(16)
O2 O 0.1199(4) 0.9409(4) 0.7917(18)
Ag1B Ag 0.0000 1.0000 1.1471(4)
Ag1B_2 Ag 0.0000 0.0000 1.1471(4)
C1B C 0.2705(5) 0.3374(5) 1.2930(19)
C2B C 0.2204(5) 0.3942(7) 1.475(2)
H1B H 0.2432 0.4478 1.5421
C3B C 0.1363(6) 0.3751(7) 1.5658(18)
H2B H 0.1008 0.4164 1.6768
C4B C 0.1071(6) 0.2963(6) 1.4907(18)
H3B H 0.0505 0.2798 1.5468
C5B C 0.1660(4) 0.2385(5) 1.321(2)
C6B C 0.1417(6) 0.1432(7) 1.2027(18)
C7B C 0.3538(4) 0.3661(4) 1.180(2)
N1B N 0.2461(3) 0.2572(4) 1.2243(14)
N2B N 0.1931(6) 0.0961(6) 1.061(3)
H4B H 0.1783 0.0441 1.0005
H5B H 0.2451 0.1139 1.0195
N3B N 0.4008(6) 0.3041(6) 1.0280(18)
H6B H 0.4520 0.3154 0.9448
H7B H 0.3804 0.2522 1.0121
O1B O 0.0618(4) 0.1278(4) 1.2855(16)
O1A O 0.5618(4) 0.3722(4) 0.7145(16)
O2B O 0.3801(4) 0.4409(4) 1.2083(18)
O2C O 0.6199(4) 0.5591(4) 1.2083(18)
loop_
_geom_bond_atom_site_label_1
_geom_bond_atom_site_label_2
_geom_bond_site_symmetry_1
_geom_bond_site_symmetry_2
Ag1 O1 1_555 1_555
C1 C2 1_555 1_555
C2 H1 1_555 1_555
C3 C2 1_555 1_555
H2 C3 1_555 1_555
C4 C3 1_555 1_555
H3 C4 1_555 1_555
C5 C4 1_555 1_555
C6 C5 1_555 1_555
C7 C1 1_555 1_555
N1 C1 1_555 1_555
N2 C6 1_555 1_555
H4 N2 1_555 1_555
H5 N2 1_555 1_555
N3 C7 1_555 1_555
H6 N3 1_555 1_555
H7 N3 1_555 1_555
O1 C6 1_555 1_555
O2 C7 1_555 1_555
B1 F1 1_555 1_555
F1 B1A 1_555 1_555
F2 B1 1_555 1_555
F3 B1 1_555 1_555
F4 B1 1_555 1_555
O3 B1 1_555 1_555
H8 F3 1_555 1_555
H9 F3 1_555 1_555
Ag1B O2 1_555 1_555
Ag1B_2 O1B 1_555 1_555
C1B C2B 1_555 1_555
C2B H1B 1_555 1_555
C3B C2B 1_555 1_555
H2B C3B 1_555 1_555
C4B C3B 1_555 1_555
H3B C4B 1_555 1_555
C5B C4B 1_555 1_555
C6B C5B 1_555 1_555
C7B C1B 1_555 1_555
N1B C1B 1_555 1_555
N2B C6B 1_555 1_555
H4B N2B 1_555 1_555
H5B N2B 1_555 1_555
N3B C7B 1_555 1_555
H6B N3B 1_555 1_555
H7B N3B 1_555 1_555
O1B C6B 1_555 1_555
O1A Ag1 1_555 1_555
O2B Ag1 1_555 1_555
O2C Ag1 1_555 1_555
B1A F1A 1_555 1_555
B1_2 F2_2 1_555 1_555
B1_3 F3_2 1_555 1_555
F1A B1 1_555 1_555
F2A B1A 1_555 1_555
F2_2 O3_2 1_555 1_555
F3_2 O3 1_555 1_555
F3A B1A 1_555 1_555
F4_2 H9 1_555 1_555
F4A B1A 1_555 1_555
O3_2 F3 1_555 1_555
O3A B1A 1_555 1_555
H8_2 O3 1_555 1_555
H9_2 F4 1_555 1_555
C5 N1 1_555 1_555
F1 F1A 1_555 1_555
F2 O3 1_555 1_555
F4 O3 1_555 1_555
O3 H9_2 1_555 1_555
H8 O3_2 1_555 1_555
H9 O3_2 1_555 1_555
C5B N1B 1_555 1_555
C7B O2B 1_555 1_555
B1_2 F4_2 1_555 1_555
B1_2 O3_2 1_555 1_555
F2A O3A 1_555 1_555
F3_2 H8_2 1_555 1_555
F3_2 H9_2 1_555 1_555
F4_2 O3_2 1_555 1_555
F4A O3A 1_555 1_555

#END
