
#######################################################################
#
#                 Cambridge Crystallographic Data Centre
#                                CCDC 
#
#######################################################################
#
# If this CIF has been generated from an entry in the Cambridge 
# Structural Database, then it will include bibliographic, chemical, 
# crystal, experimental, refinement or atomic coordinate data resulting 
# from the CCDC's data processing and validation procedures.
#
#######################################################################

data_DPEOCO
_symmetry_cell_setting           triclinic
_symmetry_space_group_name_H-M   'P -1'
_symmetry_Int_Tables_number      2
_space_group_name_Hall           '-P 1'
loop_
_symmetry_equiv_pos_site_id
_symmetry_equiv_pos_as_xyz
1 x,y,z
2 -x,-y,-z
_cell_length_a                   14.814(4)
_cell_length_b                   12.195(2)
_cell_length_c                   8.834(3)
_cell_angle_alpha                115.13(1)
_cell_angle_beta                 86.57(3)
_cell_angle_gamma                109.07(2)
_cell_volume                     1359.75
loop_
_atom_site_label
_atom_site_type_symbol
_atom_site_fract_x
_atom_site_fract_y
_atom_site_fract_z
Co1 Co 0.23870 0.44560 0.42720
Cl1 Cl 0.21820 0.38200 0.63480
Cl2 Cl 0.28240 0.65960 0.51420
P1 P 0.42220 0.35330 0.25620
P2 P 0.01390 0.32490 0.29110
O1 O 0.33060 0.37960 0.27500
O2 O 0.11850 0.35990 0.27770
C1 C 0.51780 0.48070 0.41290
C2 C 0.40620 0.20400 0.26940
C3 C 0.31610 0.13800 0.29820
C4 C 0.30350 0.02100 0.30920
C5 C 0.37780 -0.02650 0.28340
C6 C 0.46760 0.03980 0.25600
C7 C 0.48240 0.15920 0.24650
C8 C 0.46410 0.33690 0.05560
C9 C 0.39450 0.27210 -0.07990
C10 C 0.42270 0.25070 -0.24270
C11 C 0.51790 0.29290 -0.26600
C12 C 0.58580 0.36180 -0.13280
C13 C 0.55930 0.38540 0.03270
C14 C -0.01700 0.43050 0.49010
C15 C -0.03610 0.16750 0.28220
C16 C 0.02390 0.10310 0.26840
C17 C -0.01460 -0.02150 0.26490
C18 C -0.10790 -0.07310 0.27610
C19 C -0.16000 -0.00220 0.31740
C20 C -0.12710 0.12310 0.30880
C21 C -0.04210 0.33000 0.12130
C22 C 0.01080 0.33120 -0.01490
C23 C -0.03090 0.32860 -0.15320
C24 C -0.12360 0.32700 -0.15590
C25 C -0.17630 0.32880 -0.01960
C26 C -0.13420 0.33000 0.11980
C1A C 0.48220 0.51930 0.58710
C14A C 0.01700 0.56950 0.50990
P1A P 0.57780 0.64670 0.74380
P2A P -0.01390 0.67510 0.70890
O1A O 0.66940 0.62040 0.72500
C2A C 0.59380 0.79600 0.73060
C8A C 0.53590 0.66310 0.94440
O2A O -0.11850 0.64010 0.72230
C15A C 0.03610 0.83250 0.71780
C21A C 0.04210 0.67000 0.87870
Co1A Co 0.76130 0.55440 0.57280
C3A C 0.68390 0.86200 0.70180
C7A C 0.51760 0.84080 0.75350
C9A C 0.60550 0.72790 1.07990
C13A C 0.44070 0.61460 0.96730
Co1A_2 Co -0.23870 0.55440 0.57280
C16A C -0.02390 0.89690 0.73160
C20A C 0.12710 0.87690 0.69120
C22A C -0.01080 0.66880 1.01490
C26A C 0.13420 0.67000 0.88020
Cl1A Cl 0.78180 0.61800 0.36520
Cl2A Cl 0.71760 0.34040 0.48580
O2A_2 O 0.88150 0.64010 0.72230
C4A C 0.69650 0.97900 0.69080
C6A C 0.53240 0.96020 0.74400
C10A C 0.57730 0.74930 1.24270
C12A C 0.41420 0.63820 1.13280
C17A C 0.01460 1.02150 0.73510
C19A C 0.16000 1.00220 0.68260
C23A C 0.03090 0.67140 1.15320
C25A C 0.17630 0.67120 1.01960
C5A C 0.62220 1.02650 0.71660
C11A C 0.48210 0.70710 1.26600
C18A C 0.10790 1.07310 0.72390
C24A C 0.12360 0.67300 1.15590
loop_
_geom_bond_atom_site_label_1
_geom_bond_atom_site_label_2
_geom_bond_site_symmetry_1
_geom_bond_site_symmetry_2
Co1 Cl1 1_555 1_555
Cl2 Co1 1_555 1_555
P1 O1 1_555 1_555
P2 O2 1_555 1_555
O1 Co1 1_555 1_555
O2 Co1 1_555 1_555
C1 P1 1_555 1_555
C2 P1 1_555 1_555
C3 C2 1_555 1_555
C4 C3 1_555 1_555
C5 C4 1_555 1_555
C6 C5 1_555 1_555
C7 C2 1_555 1_555
C8 P1 1_555 1_555
C9 C8 1_555 1_555
C10 C9 1_555 1_555
C11 C10 1_555 1_555
C12 C11 1_555 1_555
C13 C8 1_555 1_555
C14 P2 1_555 1_555
C15 P2 1_555 1_555
C16 C15 1_555 1_555
C17 C16 1_555 1_555
C18 C17 1_555 1_555
C19 C18 1_555 1_555
C20 C15 1_555 1_555
C21 P2 1_555 1_555
C22 C21 1_555 1_555
C23 C22 1_555 1_555
C24 C23 1_555 1_555
C25 C24 1_555 1_555
C26 C21 1_555 1_555
C1A C1 1_555 1_555
C14A C14 1_555 1_555
P1A C1A 1_555 1_555
P2A C14A 1_555 1_555
O1A P1A 1_555 1_555
C2A P1A 1_555 1_555
C8A P1A 1_555 1_555
O2A P2A 1_555 1_555
C15A P2A 1_555 1_555
C21A P2A 1_555 1_555
Co1A O1A 1_555 1_555
C3A C2A 1_555 1_555
C7A C2A 1_555 1_555
C9A C8A 1_555 1_555
C13A C8A 1_555 1_555
Co1A_2 O2A 1_555 1_555
C16A C15A 1_555 1_555
C20A C15A 1_555 1_555
C22A C21A 1_555 1_555
C26A C21A 1_555 1_555
Cl1A Co1A 1_555 1_555
Cl2A Co1A 1_555 1_555
O2A_2 Co1A 1_555 1_555
C4A C3A 1_555 1_555
C6A C7A 1_555 1_555
C10A C9A 1_555 1_555
C12A C13A 1_555 1_555
C17A C16A 1_555 1_555
C19A C20A 1_555 1_555
C23A C22A 1_555 1_555
C25A C26A 1_555 1_555
C5A C4A 1_555 1_555
C11A C10A 1_555 1_555
C18A C17A 1_555 1_555
C24A C23A 1_555 1_555
C6 C7 1_555 1_555
C12 C13 1_555 1_555
C19 C20 1_555 1_555
C25 C26 1_555 1_555
C6A C5A 1_555 1_555
C12A C11A 1_555 1_555
C19A C18A 1_555 1_555
C25A C24A 1_555 1_555

#END
