
#######################################################################
#
#                 Cambridge Crystallographic Data Centre
#                                CCDC 
#
#######################################################################
#
# If this CIF has been generated from an entry in the Cambridge 
# Structural Database, then it will include bibliographic, chemical, 
# crystal, experimental, refinement or atomic coordinate data resulting 
# from the CCDC's data processing and validation procedures.
#
#######################################################################

data_DUBFIQ
_symmetry_cell_setting           triclinic
_symmetry_space_group_name_H-M   'P -1'
_symmetry_Int_Tables_number      2
_space_group_name_Hall           '-P 1'
loop_
_symmetry_equiv_pos_site_id
_symmetry_equiv_pos_as_xyz
1 x,y,z
2 -x,-y,-z
_cell_length_a                   6.2154(3)
_cell_length_b                   7.8337(5)
_cell_length_c                   13.3774(7)
_cell_angle_alpha                83.022(4)
_cell_angle_beta                 86.436(4)
_cell_angle_gamma                74.793(4)
_cell_volume                     623.565
loop_
_atom_site_label
_atom_site_type_symbol
_atom_site_fract_x
_atom_site_fract_y
_atom_site_fract_z
C1 C 0.2697(11) 0.8995(9) 0.1790(5)
C2 C 0.3876(10) 0.9599(8) 0.0837(5)
C3 C 0.2778(11) 1.0468(9) -0.0005(5)
H1 H 0.1227 1.0789 0.0014
C4 C 0.6870(16) 0.7897(12) 0.5088(6)
C5 C 0.8542(15) 0.8989(12) 0.5056(6)
C6 C 0.9298(17) 0.9475(12) 0.5904(6)
H2 H 0.8775 0.9079 0.6532
C7 C 1.1247(12) 0.4742(10) 0.1321(5)
C8 C 1.3241(11) 0.4858(9) 0.0620(5)
C9 C 1.3072(12) 0.6143(10) -0.0207(5)
H3 H 1.1684 0.6924 -0.0339
Gd1 Gd 0.78821(5) 0.79208(5) 0.26237(2)
N1 N 0.6119(9) 0.9126(7) 0.0864(4)
N2 N 0.9274(12) 0.9526(10) 0.4133(5)
N3 N 1.5207(9) 0.3687(8) 0.0820(4)
O1 O 0.3934(8) 0.8150(7) 0.2485(4)
O2 O 0.0610(7) 0.9340(7) 0.1793(3)
O3 O 0.6263(9) 0.7650(8) 0.4260(4)
O4 O 0.6234(12) 0.7296(8) 0.5921(4)
O5 O 0.9743(8) 0.6200(7) 0.1317(4)
O6 O 1.1252(9) 0.3331(7) 0.1816(4)
O8 O 0.6118(8) 1.1071(6) 0.2541(4)
H6 H 0.5698 1.1791 0.2012
H7 H 0.5573 1.1576 0.3069
O9 O 1.1224(9) 0.6156(7) 0.3434(4)
H8 H 1.1760 0.5053 0.3357
H9 H 1.1415 0.5419 0.3968
O10 O 0.7436(10) 0.4860(7) 0.2970(5)
H10 H 0.8530 0.4214 0.2648
H11 H 0.6438 0.4597 0.3389
C1A C 0.7303(11) 1.1005(9) -0.1790(5)
C2A C 0.6124(10) 1.0401(8) -0.0837(5)
C3A C 0.7222(11) 0.9532(9) 0.0005(5)
H1A H 0.8773 0.9211 -0.0014
C4A C 1.3130(16) 1.2103(12) 0.4912(6)
C5A C 1.1458(15) 1.1011(12) 0.4944(6)
C6A C 1.0702(17) 1.0525(12) 0.4096(6)
H2A H 1.1225 1.0921 0.3468
C7A C 1.8753(12) 0.5258(10) -0.1321(5)
C8A C 1.6759(11) 0.5142(9) -0.0620(5)
C9A C 1.6928(12) 0.3857(10) 0.0207(5)
H3A H 1.8316 0.3076 0.0339
Gd1A Gd 1.21179(5) 1.20792(5) 0.73763(2)
Gd1_2 Gd -0.21179(5) 0.79208(5) 0.26237(2)
Gd1A_2 Gd 0.21179(5) 1.20792(5) -0.26237(2)
Gd1A_3 Gd 1.21179(5) 1.20792(5) -0.26237(2)
Gd1A_4 Gd 2.21179(5) 0.20792(5) -0.26237(2)
N1A N 0.3881(9) 1.0874(7) -0.0864(4)
N2A N 1.0726(12) 1.0474(10) 0.5867(5)
N2A_2 N 0.0726(12) 1.0474(10) -0.4133(5)
N3A N 1.4793(9) 0.6313(8) -0.0820(4)
O1A O 0.6066(8) 1.1850(7) -0.2485(4)
O2A O 0.9390(7) 1.0660(7) -0.1793(3)
O2_2 O 1.0610(7) 0.9340(7) 0.1793(3)
O2A_2 O -0.0610(7) 1.0660(7) -0.1793(3)
O3A O 1.3737(9) 1.2350(8) 0.5740(4)
O3A_2 O 0.3737(9) 1.2350(8) -0.4260(4)
O4A O 1.3766(12) 1.2704(8) 0.4079(4)
O5A O 2.0257(8) 0.3800(7) -0.1317(4)
O5A_2 O 0.0257(8) 1.3800(7) -0.1317(4)
O6A O 1.8748(9) 0.6669(7) -0.1816(4)
O8A O 0.3882(8) 0.8929(6) -0.2541(4)
H6A H 0.4302 0.8209 -0.2012
H7A H 0.4427 0.8424 -0.3069
O9A O -0.1224(9) 1.3844(7) -0.3434(4)
H8A H -0.1760 1.4947 -0.3357
H9A H -0.1415 1.4581 -0.3968
O10A O 0.2564(10) 1.5140(7) -0.2970(5)
H10A H 0.1470 1.5786 -0.2648
H11A H 0.3562 1.5403 -0.3389
O7 O 0.340(4) 0.599(3) 0.501(2)
H4 H 0.2467 0.6289 0.5498
H5 H 0.3913 0.6914 0.4937
loop_
_geom_bond_atom_site_label_1
_geom_bond_atom_site_label_2
_geom_bond_site_symmetry_1
_geom_bond_site_symmetry_2
C1 C2 1_555 1_555
C2 C3 1_555 1_555
C3 H1 1_555 1_555
C4 C5 1_555 1_555
C5 C6 1_555 1_555
C6 H2 1_555 1_555
C7 C8 1_555 1_555
C8 C9 1_555 1_555
C9 H3 1_555 1_555
Gd1 N1 1_555 1_555
N1 C2 1_555 1_555
N2 C5 1_555 1_555
N3 C8 1_555 1_555
O1 C1 1_555 1_555
O2 C1 1_555 1_555
O3 C4 1_555 1_555
O4 C4 1_555 1_555
O5 C7 1_555 1_555
O6 C7 1_555 1_555
O7 H4 1_555 1_555
H5 O7 1_555 1_555
O8 Gd1 1_555 1_555
H6 O8 1_555 1_555
H7 O8 1_555 1_555
O9 Gd1 1_555 1_555
H8 O9 1_555 1_555
H9 O9 1_555 1_555
O10 Gd1 1_555 1_555
H10 O10 1_555 1_555
H11 O10 1_555 1_555
C1A C2A 1_555 1_555
C2A C3A 1_555 1_555
C3A N1 1_555 1_555
H1A C3A 1_555 1_555
C4A C5A 1_555 1_555
C5A C6A 1_555 1_555
C6A N2 1_555 1_555
H2A C6A 1_555 1_555
C7A C8A 1_555 1_555
C8A C9A 1_555 1_555
C9A N3 1_555 1_555
H3A C9A 1_555 1_555
Gd1A N2A 1_555 1_555
Gd1_2 O2 1_555 1_555
Gd1A_2 N1A 1_555 1_555
Gd1A_3 O2A 1_555 1_555
Gd1A_4 O5A 1_555 1_555
N1A C3 1_555 1_555
N2A C6 1_555 1_555
N2A_2 Gd1A_2 1_555 1_555
N3A C9 1_555 1_555
O1A C1A 1_555 1_555
O2A C1A 1_555 1_555
O2_2 Gd1 1_555 1_555
O2A_2 Gd1A_2 1_555 1_555
O3A C4A 1_555 1_555
O3A_2 Gd1A_2 1_555 1_555
O4A C4A 1_555 1_555
O5A C7A 1_555 1_555
O5A_2 Gd1A_2 1_555 1_555
O6A C7A 1_555 1_555
O8A Gd1A_2 1_555 1_555
H6A O8A 1_555 1_555
H7A O8A 1_555 1_555
O9A Gd1A_2 1_555 1_555
H8A O9A 1_555 1_555
H9A O9A 1_555 1_555
O10A Gd1A_2 1_555 1_555
H10A O10A 1_555 1_555
H11A O10A 1_555 1_555
Gd1 N2 1_555 1_555
Gd1 O1 1_555 1_555
Gd1 O3 1_555 1_555
Gd1 O5 1_555 1_555
C2A N1A 1_555 1_555
C5A N2A 1_555 1_555
C8A N3A 1_555 1_555
Gd1A O3A 1_555 1_555
Gd1A_2 O1A 1_555 1_555

#END
