
#######################################################################
#
#                 Cambridge Crystallographic Data Centre
#                                CCDC 
#
#######################################################################
#
# If this CIF has been generated from an entry in the Cambridge 
# Structural Database, then it will include bibliographic, chemical, 
# crystal, experimental, refinement or atomic coordinate data resulting 
# from the CCDC's data processing and validation procedures.
#
#######################################################################

data_DUBFOW
_symmetry_cell_setting           triclinic
_symmetry_space_group_name_H-M   'P -1'
_symmetry_Int_Tables_number      2
_space_group_name_Hall           '-P 1'
loop_
_symmetry_equiv_pos_site_id
_symmetry_equiv_pos_as_xyz
1 x,y,z
2 -x,-y,-z
_cell_length_a                   6.3368(3)
_cell_length_b                   7.9322(4)
_cell_length_c                   13.4674(5)
_cell_angle_alpha                83.651(3)
_cell_angle_beta                 86.582(3)
_cell_angle_gamma                73.419(3)
_cell_volume                     644.528
loop_
_atom_site_label
_atom_site_type_symbol
_atom_site_fract_x
_atom_site_fract_y
_atom_site_fract_z
C1 C 0.7220(8) 0.0988(6) 0.3234(3)
C2 C 0.6071(7) 0.0416(6) 0.4169(3)
C3 C 0.7193(8) -0.0435(6) 0.5017(3)
H1 H 0.8724 -0.0727 0.5005
C4 C 0.2995(11) 0.2083(8) -0.0103(4)
C5 C 0.1407(10) 0.0983(7) -0.0051(4)
C6 C 0.0701(11) 0.0492(8) -0.0902(4)
H2 H 0.1215 0.0868 -0.1524
C7 C -0.1321(9) 0.5268(7) 0.3735(4)
C8 C -0.3264(8) 0.5156(6) 0.4412(4)
C9 C -0.3067(8) 0.3875(7) 0.5212(4)
H3 H -0.1683 0.3099 0.5341
N1 N 0.3865(6) 0.0841(5) 0.4154(3)
N2 N 0.0679(9) 0.0493(6) 0.0859(3)
N3 N -0.5232(7) 0.6303(6) 0.4191(3)
Nd1 Nd 0.20165(4) 0.20749(3) 0.239065(18)
O1 O 0.5989(6) 0.1785(5) 0.2529(3)
O2 O 0.9267(5) 0.0683(5) 0.3230(2)
O3 O 0.3616(7) 0.2363(6) 0.0724(3)
O4 O 0.3621(9) 0.2621(6) -0.0933(3)
O5 O 0.0235(6) 0.3841(5) 0.3723(3)
O6 O -0.1336(7) 0.6689(5) 0.3237(3)
O8 O 0.2376(8) 0.5159(5) 0.2050(3)
H6 H 0.3220 0.5775 0.1834
H7 H 0.1486 0.5873 0.2409
O9 O 0.3835(6) -0.1140(5) 0.2467(2)
H8 H 0.4688 -0.1629 0.2007
H9 H 0.4251 -0.1935 0.2948
O10 O -0.1423(7) 0.3905(5) 0.1612(3)
H10 H -0.2588 0.3708 0.1877
H11 H -0.1786 0.5018 0.1604
C1A C 0.2780(8) -0.0988(6) 0.6766(3)
C2A C 0.3929(7) -0.0416(6) 0.5831(3)
C3A C 0.2807(8) 0.0435(6) 0.4983(3)
H1A H 0.1276 0.0727 0.4995
C4A C -0.2995(11) -0.2083(8) 0.0103(4)
C5A C -0.1407(10) -0.0983(7) 0.0051(4)
C6A C -0.0701(11) -0.0492(8) 0.0902(4)
H2A H -0.1215 -0.0868 0.1524
C7A C -0.8679(9) 0.4732(7) 0.6265(4)
C8A C -0.6736(8) 0.4844(6) 0.5588(4)
C9A C -0.6933(8) 0.6125(7) 0.4788(4)
H3A H -0.8317 0.6901 0.4659
N1A N 0.6135(6) -0.0841(5) 0.5846(3)
N2A N -0.0679(9) -0.0493(6) -0.0859(3)
N2A_2 N 0.9321(9) -0.0493(6) 0.9141(3)
N3A N -0.4768(7) 0.3697(6) 0.5809(3)
Nd1A Nd 0.79835(4) -0.20749(3) 0.760935(18)
Nd1_2 Nd 1.20165(4) 0.20749(3) 0.239065(18)
Nd1A_2 Nd -0.20165(4) -0.20749(3) 0.760935(18)
Nd1A_3 Nd -0.20165(4) -0.20749(3) -0.239065(18)
Nd1A_4 Nd -1.20165(4) 0.79251(3) 0.760935(18)
O1A O 0.4011(6) -0.1785(5) 0.7471(3)
O2A O 0.0733(5) -0.0683(5) 0.6770(2)
O2_2 O -0.0733(5) 0.0683(5) 0.3230(2)
O2A_2 O 1.0733(5) -0.0683(5) 0.6770(2)
O3A O -0.3616(7) -0.2363(6) -0.0724(3)
O3A_2 O 0.6384(7) -0.2363(6) 0.9276(3)
O4A O -0.3621(9) -0.2621(6) 0.0933(3)
O5A O -1.0235(6) 0.6159(5) 0.6277(3)
O5A_2 O 0.9765(6) -0.3841(5) 0.6277(3)
O6A O -0.8664(7) 0.3311(5) 0.6763(3)
O8A O 0.7624(8) -0.5159(5) 0.7950(3)
H6A H 0.6780 -0.5775 0.8166
H7A H 0.8514 -0.5873 0.7591
O9A O 0.6165(6) 0.1140(5) 0.7533(2)
H8A H 0.5312 0.1629 0.7993
H9A H 0.5749 0.1935 0.7052
O10A O 1.1423(7) -0.3905(5) 0.8388(3)
H10A H 1.2588 -0.3708 0.8123
H11A H 1.1786 -0.5018 0.8396
O7 O 0.336(2) 0.6064(17) 1.0115(10)
H4 H 0.4231 0.6485 0.9732
H5 H 0.2208 0.6462 0.9782
loop_
_geom_bond_atom_site_label_1
_geom_bond_atom_site_label_2
_geom_bond_site_symmetry_1
_geom_bond_site_symmetry_2
C1 C2 1_555 1_555
C2 C3 1_555 1_555
C3 H1 1_555 1_555
C4 C5 1_555 1_555
C5 C6 1_555 1_555
C6 H2 1_555 1_555
C7 C8 1_555 1_555
C8 C9 1_555 1_555
C9 H3 1_555 1_555
N1 C2 1_555 1_555
N2 C5 1_555 1_555
N3 C8 1_555 1_555
Nd1 N1 1_555 1_555
O1 C1 1_555 1_555
O2 C1 1_555 1_555
O3 C4 1_555 1_555
O4 C4 1_555 1_555
O5 C7 1_555 1_555
O6 C7 1_555 1_555
O7 H4 1_555 1_555
H5 O7 1_555 1_555
O8 Nd1 1_555 1_555
H6 O8 1_555 1_555
H7 O8 1_555 1_555
O9 Nd1 1_555 1_555
H8 O9 1_555 1_555
H9 O9 1_555 1_555
O10 Nd1 1_555 1_555
H10 O10 1_555 1_555
H11 O10 1_555 1_555
C1A C2A 1_555 1_555
C2A C3A 1_555 1_555
C3A N1 1_555 1_555
H1A C3A 1_555 1_555
C4A C5A 1_555 1_555
C5A C6A 1_555 1_555
C6A N2 1_555 1_555
H2A C6A 1_555 1_555
C7A C8A 1_555 1_555
C8A C9A 1_555 1_555
C9A N3 1_555 1_555
H3A C9A 1_555 1_555
N1A C3 1_555 1_555
N2A C6 1_555 1_555
N2A_2 Nd1A 1_555 1_555
N3A C9 1_555 1_555
Nd1A N1A 1_555 1_555
Nd1_2 O2 1_555 1_555
Nd1A_2 O2A 1_555 1_555
Nd1A_3 N2A 1_555 1_555
Nd1A_4 O5A 1_555 1_555
O1A C1A 1_555 1_555
O2A C1A 1_555 1_555
O2_2 Nd1 1_555 1_555
O2A_2 Nd1A 1_555 1_555
O3A C4A 1_555 1_555
O3A_2 Nd1A 1_555 1_555
O4A C4A 1_555 1_555
O5A C7A 1_555 1_555
O5A_2 Nd1A 1_555 1_555
O6A C7A 1_555 1_555
O8A Nd1A 1_555 1_555
H6A O8A 1_555 1_555
H7A O8A 1_555 1_555
O9A Nd1A 1_555 1_555
H8A O9A 1_555 1_555
H9A O9A 1_555 1_555
O10A Nd1A 1_555 1_555
H10A O10A 1_555 1_555
H11A O10A 1_555 1_555
N2 Nd1 1_555 1_555
Nd1 O1 1_555 1_555
Nd1 O3 1_555 1_555
Nd1 O5 1_555 1_555
C2A N1A 1_555 1_555
C5A N2A 1_555 1_555
C8A N3A 1_555 1_555
Nd1A O1A 1_555 1_555
Nd1A_3 O3A 1_555 1_555

#END
