
#######################################################################
#
#                 Cambridge Crystallographic Data Centre
#                                CCDC 
#
#######################################################################
#
# If this CIF has been generated from an entry in the Cambridge 
# Structural Database, then it will include bibliographic, chemical, 
# crystal, experimental, refinement or atomic coordinate data resulting 
# from the CCDC's data processing and validation procedures.
#
#######################################################################

data_DUBKOC
_symmetry_cell_setting           monoclinic
_symmetry_space_group_name_H-M   'P 21/c'
_symmetry_Int_Tables_number      14
_space_group_name_Hall           '-P 2ybc'
loop_
_symmetry_equiv_pos_site_id
_symmetry_equiv_pos_as_xyz
1 x,y,z
2 -x,1/2+y,1/2-z
3 -x,-y,-z
4 x,1/2-y,1/2+z
_cell_length_a                   7.4329(12)
_cell_length_b                   20.903(3)
_cell_length_c                   16.587(3)
_cell_angle_alpha                90
_cell_angle_beta                 111.328(7)
_cell_angle_gamma                90
_cell_volume                     2400.62
loop_
_atom_site_label
_atom_site_type_symbol
_atom_site_fract_x
_atom_site_fract_y
_atom_site_fract_z
Ag1 Ag 1.29466(11) 0.32989(4) 1.26343(4)
S1 S 0.2700(3) 0.33477(8) 0.74625(12)
S2 S 0.0999(2) 0.38572(8) 0.40696(10)
N1 N 1.0941(7) 0.3782(3) 1.1476(3)
N2 N 0.6358(7) 0.5318(2) 0.9424(3)
N3 N 0.4004(9) 0.7533(3) 0.9388(4)
H1 H 0.3799 0.7918 0.9516
O1 O 0.1468(10) 0.2835(2) 0.6973(4)
O2 O 0.1873(9) 0.3719(3) 0.7968(3)
O3 O 0.4650(10) 0.3120(3) 0.7958(4)
O4 O 0.1818(8) 0.3254(2) 0.3970(3)
O5 O 0.1364(12) 0.4354(3) 0.3535(3)
O6 O -0.1043(8) 0.3815(3) 0.3939(4)
C1 C 1.0202(10) 0.3481(3) 1.0707(4)
H2 H 1.0592 0.3063 1.0665
C2 C 0.8887(9) 0.3766(3) 0.9977(4)
H3 H 0.8415 0.3542 0.9458
C3 C 0.8272(8) 0.4392(3) 1.0022(4)
C4 C 0.9024(9) 0.4697(3) 1.0830(4)
H4 H 0.8635 0.5109 1.0901
C5 C 1.0343(9) 0.4377(3) 1.1516(4)
H5 H 1.0851 0.4591 1.2042
C6 C 0.6854(8) 0.4727(3) 0.9276(4)
C7 C 0.6098(9) 0.4444(3) 0.8459(4)
H6 H 0.6528 0.4042 0.8368
C8 C 0.4694(8) 0.4764(3) 0.7777(4)
C9 C 0.4186(8) 0.5373(3) 0.7933(4)
H7 H 0.3269 0.5604 0.7495
C10 C 0.5079(8) 0.5643(3) 0.8767(4)
C11 C 0.3112(11) 0.7324(4) 0.8588(5)
H8 H 0.2270 0.7594 0.8177
C12 C 0.3414(10) 0.6711(3) 0.8355(5)
H9 H 0.2786 0.6570 0.7790
C13 C 0.4659(9) 0.6307(3) 0.8969(4)
C14 C 0.5586(10) 0.6539(3) 0.9819(4)
H10 H 0.6428 0.6279 1.0245
C15 C 0.5224(10) 0.7158(3) 1.0007(5)
H11 H 0.5825 0.7317 1.0565
C16 C 0.3834(8) 0.4496(3) 0.6882(4)
C17 C 0.2945(9) 0.3892(3) 0.6666(4)
C18 C 0.2138(9) 0.3701(3) 0.5814(4)
H12 H 0.1577 0.3298 0.5679
C19 C 0.2160(9) 0.4108(3) 0.5157(4)
C20 C 0.3040(9) 0.4696(3) 0.5353(4)
H13 H 0.3077 0.4966 0.4914
C21 C 0.3864(9) 0.4883(3) 0.6205(4)
H14 H 0.4461 0.5280 0.6332
O7 O 1.5893(8) 0.3022(3) 1.3563(4)
Ag1_2 Ag 0.29466(11) 0.32989(4) 0.26343(4)
Ag1C Ag 0.29466(11) 0.17011(4) 0.76343(4)
O1C O 1.1468(10) 0.2165(2) 1.1973(4)
O4_2 O 1.1818(8) 0.3254(2) 1.3970(3)
O8 O 0.9274(10) 0.2179(3) 0.3476(5)
O9 O 0.7037(9) 0.3708(3) 0.5329(4)
O10 O 0.8564(10) 0.4359(3) 0.6847(5)
loop_
_geom_bond_atom_site_label_1
_geom_bond_atom_site_label_2
_geom_bond_site_symmetry_1
_geom_bond_site_symmetry_2
Ag1 N1 1_555 1_555
S1 O1 1_555 1_555
S2 O4 1_555 1_555
N1 C1 1_555 1_555
N2 C6 1_555 1_555
N3 H1 1_555 1_555
O1 Ag1C 1_555 1_555
O2 S1 1_555 1_555
O3 S1 1_555 1_555
O4 Ag1_2 1_555 1_555
O5 S2 1_555 1_555
O6 S2 1_555 1_555
C1 H2 1_555 1_555
C2 C1 1_555 1_555
H3 C2 1_555 1_555
C3 C2 1_555 1_555
C4 C3 1_555 1_555
H4 C4 1_555 1_555
C5 N1 1_555 1_555
H5 C5 1_555 1_555
C6 C3 1_555 1_555
C7 C6 1_555 1_555
H6 C7 1_555 1_555
C8 C7 1_555 1_555
C9 C8 1_555 1_555
H7 C9 1_555 1_555
C10 N2 1_555 1_555
C11 N3 1_555 1_555
H8 C11 1_555 1_555
C12 C11 1_555 1_555
H9 C12 1_555 1_555
C13 C10 1_555 1_555
C14 C13 1_555 1_555
H10 C14 1_555 1_555
C15 N3 1_555 1_555
H11 C15 1_555 1_555
C16 C8 1_555 1_555
C17 S1 1_555 1_555
C18 C17 1_555 1_555
H12 C18 1_555 1_555
C19 S2 1_555 1_555
C20 C19 1_555 1_555
H13 C20 1_555 1_555
C21 C16 1_555 1_555
H14 C21 1_555 1_555
O7 Ag1 1_555 1_555
O1C Ag1 1_555 1_555
O4_2 Ag1 1_555 1_555
C4 C5 1_555 1_555
C9 C10 1_555 1_555
C12 C13 1_555 1_555
C14 C15 1_555 1_555
C16 C17 1_555 1_555
C18 C19 1_555 1_555
C20 C21 1_555 1_555

#END
