
#######################################################################
#
#                 Cambridge Crystallographic Data Centre
#                                CCDC 
#
#######################################################################
#
# If this CIF has been generated from an entry in the Cambridge 
# Structural Database, then it will include bibliographic, chemical, 
# crystal, experimental, refinement or atomic coordinate data resulting 
# from the CCDC's data processing and validation procedures.
#
#######################################################################

data_DUBKIW
_symmetry_cell_setting           monoclinic
_symmetry_space_group_name_H-M   'P 2/c'
_symmetry_Int_Tables_number      13
_space_group_name_Hall           '-P 2yc'
loop_
_symmetry_equiv_pos_site_id
_symmetry_equiv_pos_as_xyz
1 x,y,z
2 -x,y,1/2-z
3 -x,-y,-z
4 x,-y,1/2+z
_cell_length_a                   10.1488(19)
_cell_length_b                   14.292(3)
_cell_length_c                   15.350(3)
_cell_angle_alpha                90
_cell_angle_beta                 106.051(3)
_cell_angle_gamma                90
_cell_volume                     2139.67
loop_
_atom_site_label
_atom_site_type_symbol
_atom_site_fract_x
_atom_site_fract_y
_atom_site_fract_z
Co1 Co 0.13195(4) 0.69896(3) 0.16116(3)
N1 N 0.1341(3) 0.5491(2) 0.17971(18)
N2 N 0.2422(3) 0.20660(19) 0.24279(18)
N3 N 0.6037(3) -0.0039(2) 0.42728(19)
H1 H 0.6770 -0.0273 0.4629
O1 O -0.1897(2) 0.09025(17) 0.02699(17)
O2 O -0.1005(2) -0.04177(18) 0.09425(19)
O3 O -0.1586(2) 0.73331(18) 0.20811(16)
O4 O -0.7953(2) 0.66836(18) 0.03829(16)
O5 O -0.6556(2) 0.70424(18) 0.16898(16)
O6 O -0.0713(2) 0.69400(16) 0.09513(15)
O7 O 0.1258(3) 0.84289(19) 0.12917(19)
H2 H 0.053(3) 0.871(2) 0.127(3)
H3 H 0.152(4) 0.852(3) 0.0817(18)
C1 C 0.2406(3) 0.5006(3) 0.2297(2)
H4 H 0.3162 0.5334 0.2642
C2 C 0.2441(3) 0.4042(3) 0.2326(2)
H5 H 0.3214 0.3739 0.2683
C3 C 0.1340(3) 0.3520(2) 0.1832(2)
C4 C 0.0247(3) 0.4026(3) 0.1304(2)
H6 H -0.0517 0.3714 0.0946
C5 C 0.0286(4) 0.4986(3) 0.1307(3)
H7 H -0.0467 0.5304 0.0946
C6 C 0.1339(3) 0.2484(2) 0.1858(2)
C7 C 0.0238(3) 0.1970(2) 0.1315(2)
H8 H -0.0486 0.2275 0.0909
C8 C 0.0237(3) 0.1006(2) 0.1386(2)
C9 C 0.1348(3) 0.0581(2) 0.1995(2)
H9 H 0.1371 -0.0065 0.2070
C10 C 0.2423(3) 0.1129(2) 0.2490(2)
C11 C 0.5077(4) -0.0603(3) 0.3773(3)
H10 H 0.5216 -0.1246 0.3808
C12 C 0.3880(4) -0.0251(3) 0.3203(3)
H11 H 0.3214 -0.0657 0.2867
C13 C 0.3672(3) 0.0709(2) 0.3131(2)
C14 C 0.4695(3) 0.1274(3) 0.3658(3)
H12 H 0.4593 0.1921 0.3631
C15 C 0.5868(3) 0.0881(3) 0.4225(2)
H13 H 0.6546 0.1267 0.4576
C16 C -0.0956(3) 0.0426(3) 0.0831(2)
C17 C -0.1697(3) 0.7037(2) 0.1298(2)
C18 C -0.3099(3) 0.6782(2) 0.0718(2)
C19 C -0.3277(3) 0.6380(3) -0.0133(2)
H14 H -0.2523 0.6294 -0.0357
C20 C -0.4569(3) 0.6109(3) -0.0649(3)
H15 H -0.4676 0.5829 -0.1212
C21 C -0.5704(3) 0.6254(3) -0.0325(2)
H16 H -0.6572 0.6083 -0.0677
C22 C -0.5543(3) 0.6651(2) 0.0519(2)
C23 C -0.4242(3) 0.6908(2) 0.1045(2)
H17 H -0.4134 0.7166 0.1617
C24 C -0.6758(3) 0.6807(2) 0.0880(2)
Co1_2 Co -0.86805(4) 0.69896(3) 0.16116(3)
Co1A Co -0.13195(4) 0.69896(3) 0.33884(3)
O3A O 0.1586(2) 0.73331(18) 0.29189(16)
O4_2 O 0.2047(2) 0.66836(18) 0.03829(16)
O5_2 O 0.3444(2) 0.70424(18) 0.16898(16)
loop_
_geom_bond_atom_site_label_1
_geom_bond_atom_site_label_2
_geom_bond_site_symmetry_1
_geom_bond_site_symmetry_2
Co1 N1 1_555 1_555
N1 C1 1_555 1_555
N2 C6 1_555 1_555
N3 H1 1_555 1_555
O1 C16 1_555 1_555
O2 C16 1_555 1_555
O3 C17 1_555 1_555
O4 C24 1_555 1_555
O5 C24 1_555 1_555
O6 Co1 1_555 1_555
O7 Co1 1_555 1_555
H2 O7 1_555 1_555
H3 O7 1_555 1_555
C1 H4 1_555 1_555
C2 C1 1_555 1_555
H5 C2 1_555 1_555
C3 C2 1_555 1_555
C4 C3 1_555 1_555
H6 C4 1_555 1_555
C5 N1 1_555 1_555
H7 C5 1_555 1_555
C6 C3 1_555 1_555
C7 C6 1_555 1_555
H8 C7 1_555 1_555
C8 C7 1_555 1_555
C9 C8 1_555 1_555
H9 C9 1_555 1_555
C10 N2 1_555 1_555
C11 N3 1_555 1_555
H10 C11 1_555 1_555
C12 C11 1_555 1_555
H11 C12 1_555 1_555
C13 C10 1_555 1_555
C14 C13 1_555 1_555
H12 C14 1_555 1_555
C15 N3 1_555 1_555
H13 C15 1_555 1_555
C16 C8 1_555 1_555
C17 O6 1_555 1_555
C18 C17 1_555 1_555
C19 C18 1_555 1_555
H14 C19 1_555 1_555
C20 C19 1_555 1_555
H15 C20 1_555 1_555
C21 C20 1_555 1_555
H16 C21 1_555 1_555
C22 C21 1_555 1_555
C23 C18 1_555 1_555
H17 C23 1_555 1_555
C24 C22 1_555 1_555
Co1_2 O4 1_555 1_555
Co1A O3 1_555 1_555
O3A Co1 1_555 1_555
O4_2 Co1 1_555 1_555
O5_2 Co1 1_555 1_555
O5 Co1_2 1_555 1_555
C4 C5 1_555 1_555
C9 C10 1_555 1_555
C12 C13 1_555 1_555
C14 C15 1_555 1_555
C22 C23 1_555 1_555

#END
