
#######################################################################
#
#                 Cambridge Crystallographic Data Centre
#                                CCDC 
#
#######################################################################
#
# If this CIF has been generated from an entry in the Cambridge 
# Structural Database, then it will include bibliographic, chemical, 
# crystal, experimental, refinement or atomic coordinate data resulting 
# from the CCDC's data processing and validation procedures.
#
#######################################################################

data_DUBQAU
_symmetry_cell_setting           monoclinic
_symmetry_space_group_name_H-M   'P 21/c'
_symmetry_Int_Tables_number      14
_space_group_name_Hall           '-P 2ybc'
loop_
_symmetry_equiv_pos_site_id
_symmetry_equiv_pos_as_xyz
1 x,y,z
2 -x,1/2+y,1/2-z
3 -x,-y,-z
4 x,1/2-y,1/2+z
_cell_length_a                   11.1657(5)
_cell_length_b                   8.8788(3)
_cell_length_c                   19.9437(8)
_cell_angle_alpha                90
_cell_angle_beta                 98.154(2)
_cell_angle_gamma                90
_cell_volume                     1957.19
loop_
_atom_site_label
_atom_site_type_symbol
_atom_site_fract_x
_atom_site_fract_y
_atom_site_fract_z
Cd1 Cd 0.388266(9) 0.177272(12) 0.046844(5)
C1 C -0.38215(14) 0.09955(17) -0.41772(7)
H1 H -0.3841 0.1063 -0.4654
C2 C -0.30098(14) 0.00049(18) -0.38190(8)
H2 H -0.2482 -0.0580 -0.4049
C3 C 0.25430(14) 0.40424(17) 0.09002(8)
C4 C -0.29722(14) -0.01280(17) -0.31198(7)
C5 C 0.20080(15) 0.54284(18) 0.12112(8)
C6 C -0.37730(14) 0.07612(18) -0.28135(8)
H3 H -0.3786 0.0698 -0.2339
C7 C 0.25577(14) 0.68742(17) 0.09671(8)
H4 H 0.2164 0.7747 0.1154
H5 H 0.2365 0.6923 0.0468
C8 C -0.45482(14) 0.17361(18) -0.32067(7)
H6 H -0.5080 0.2342 -0.2990
C9 C 0.39376(15) 0.70290(17) 0.11621(8)
H7 H 0.4352 0.6147 0.0997
H8 H 0.4148 0.7081 0.1661
C10 C -0.20974(14) -0.11666(18) -0.27040(8)
H9 H -0.1722 -0.1840 -0.3011
H10 H -0.2544 -0.1802 -0.2416
C11 C 0.43327(14) 0.84543(17) 0.08419(8)
C12 C -0.11017(15) -0.03034(18) -0.22539(8)
H11 H -0.0624 0.0290 -0.2543
H12 H -0.1476 0.0408 -0.1963
C13 C -0.02592(14) -0.13712(17) -0.18075(8)
H13 H -0.0754 -0.2023 -0.1552
H14 H 0.0153 -0.2031 -0.2103
C14 C 0.27510(15) -0.01777(19) -0.08215(8)
H15 H 0.3584 -0.0392 -0.0822
C15 C 0.19099(15) -0.08891(19) -0.12942(8)
H16 H 0.2172 -0.1580 -0.1607
C16 C 0.06852(14) -0.05950(17) -0.13124(8)
C17 C 0.03735(15) 0.0428(2) -0.08369(9)
H17 H -0.0453 0.0669 -0.0827
C18 C 0.12624(15) 0.1093(2) -0.03795(8)
H18 H 0.1026 0.1792 -0.0062
C19 C 0.22143(18) 0.5340(2) 0.19862(8)
H19 H 0.1771 0.4476 0.2134
H20 H 0.1923 0.6268 0.2175
H21 H 0.3080 0.5219 0.2146
C20 C 0.06417(16) 0.5444(2) 0.09679(10)
H22 H 0.0497 0.5589 0.0476
H23 H 0.0266 0.6268 0.1190
H24 H 0.0289 0.4483 0.1082
N1 N -0.45814(12) 0.18633(14) -0.38827(6)
N2 N 0.24430(12) 0.07973(15) -0.03640(7)
O1 O 0.26384(11) 0.28282(13) 0.12316(6)
O2 O 0.28683(11) 0.41488(13) 0.03217(5)
O3 O 0.48140(12) 0.83523(15) 0.03141(6)
O4 O 0.40839(11) 0.96895(13) 0.11081(6)
Cd1_2 Cd 0.388266(9) 1.177272(12) 0.046844(5)
Cd1B Cd 0.611734(9) 0.822728(12) -0.046844(5)
Cd1C Cd -0.611734(9) 0.322728(12) -0.453156(5)
N1C N 0.54186(12) 0.31367(14) 0.11173(6)
O3B O 0.51860(12) 0.16477(15) -0.03141(6)
O4_2 O 0.40839(11) -0.03105(13) 0.11081(6)
loop_
_geom_bond_atom_site_label_1
_geom_bond_atom_site_label_2
_geom_bond_site_symmetry_1
_geom_bond_site_symmetry_2
Cd1 N2 1_555 1_555
C1 H1 1_555 1_555
C2 C1 1_555 1_555
H2 C2 1_555 1_555
C3 C5 1_555 1_555
C4 C2 1_555 1_555
C5 C7 1_555 1_555
C6 C4 1_555 1_555
H3 C6 1_555 1_555
C7 H4 1_555 1_555
H5 C7 1_555 1_555
C8 C6 1_555 1_555
H6 C8 1_555 1_555
C9 C7 1_555 1_555
H7 C9 1_555 1_555
H8 C9 1_555 1_555
C10 C4 1_555 1_555
H9 C10 1_555 1_555
H10 C10 1_555 1_555
C11 C9 1_555 1_555
C12 C10 1_555 1_555
H11 C12 1_555 1_555
H12 C12 1_555 1_555
C13 C12 1_555 1_555
H13 C13 1_555 1_555
H14 C13 1_555 1_555
C14 H15 1_555 1_555
C15 C14 1_555 1_555
H16 C15 1_555 1_555
C16 C13 1_555 1_555
C17 C16 1_555 1_555
H17 C17 1_555 1_555
C18 C17 1_555 1_555
H18 C18 1_555 1_555
C19 C5 1_555 1_555
H19 C19 1_555 1_555
H20 C19 1_555 1_555
H21 C19 1_555 1_555
C20 C5 1_555 1_555
H22 C20 1_555 1_555
H23 C20 1_555 1_555
H24 C20 1_555 1_555
N1 C1 1_555 1_555
N2 C14 1_555 1_555
O1 Cd1 1_555 1_555
O2 Cd1 1_555 1_555
O3 C11 1_555 1_555
O4 C11 1_555 1_555
Cd1_2 O4 1_555 1_555
Cd1B O3 1_555 1_555
Cd1C N1 1_555 1_555
N1C Cd1 1_555 1_555
O3B Cd1 1_555 1_555
O4_2 Cd1 1_555 1_555
C3 O1 1_555 1_555
C3 O2 1_555 1_555
C8 N1 1_555 1_555
C15 C16 1_555 1_555
C18 N2 1_555 1_555

#END
