
#######################################################################
#
#                 Cambridge Crystallographic Data Centre
#                                CCDC 
#
#######################################################################
#
# If this CIF has been generated from an entry in the Cambridge 
# Structural Database, then it will include bibliographic, chemical, 
# crystal, experimental, refinement or atomic coordinate data resulting 
# from the CCDC's data processing and validation procedures.
#
#######################################################################

data_DUBQEY
_symmetry_cell_setting           monoclinic
_symmetry_space_group_name_H-M   'P 21/c'
_symmetry_Int_Tables_number      14
_space_group_name_Hall           '-P 2ybc'
loop_
_symmetry_equiv_pos_site_id
_symmetry_equiv_pos_as_xyz
1 x,y,z
2 -x,1/2+y,1/2-z
3 -x,-y,-z
4 x,1/2-y,1/2+z
_cell_length_a                   9.5500(9)
_cell_length_b                   25.972(2)
_cell_length_c                   8.9460(8)
_cell_angle_alpha                90
_cell_angle_beta                 104.1430(10)
_cell_angle_gamma                90
_cell_volume                     2151.64
loop_
_atom_site_label
_atom_site_type_symbol
_atom_site_fract_x
_atom_site_fract_y
_atom_site_fract_z
Cd1 Cd 0.62412(3) 0.566748(8) 0.78420(2)
N1 N 0.7527(3) 0.49092(10) 0.8530(3)
C1 C 0.7326(4) 0.45256(14) 0.7490(4)
H1 H 0.6782 0.4591 0.6495
C2 C 0.7891(4) 0.40418(13) 0.7832(4)
H2 H 0.7718 0.3787 0.7078
C3 C 0.8721(3) 0.39304(12) 0.9307(4)
C4 C 0.8937(4) 0.43250(12) 1.0351(4)
H3 H 0.9499 0.4271 1.1345
C5 C 0.8327(4) 0.48035(12) 0.9941(4)
H4 H 0.8481 0.5063 1.0680
C6 C 0.9316(4) 0.33955(12) 0.9719(4)
H5 H 0.9812 0.3386 1.0803
H6 H 1.0015 0.3316 0.9127
C7 C 0.8129(4) 0.29899(12) 0.9398(4)
H7 H 0.7700 0.2977 0.8298
H8 H 0.7380 0.3091 0.9903
C8 C 0.8676(4) 0.24534(12) 0.9956(4)
H9 H 0.9535 0.2376 0.9602
H10 H 0.8937 0.2448 1.1074
C9 C 0.6734(5) 0.12954(16) 0.7858(5)
H11 H 0.6925 0.1037 0.7215
C10 C 0.7783(4) 0.16625(15) 0.8388(5)
H12 H 0.8647 0.1651 0.8084
C11 C 0.7551(4) 0.20475(12) 0.9372(4)
C12 C 0.6221(4) 0.20421(12) 0.9760(4)
H13 H 0.6010 0.2291 1.0419
C13 C 0.5223(3) 0.16661(12) 0.9162(4)
H14 H 0.4340 0.1672 0.9426
N2 N 0.5456(3) 0.12929(10) 0.8223(3)
O1 O 0.7970(3) 0.60365(9) 0.6631(2)
O2 O 0.6550(3) 0.54576(9) 0.5227(3)
C14 C 0.7589(4) 0.57634(14) 0.5423(4)
C15 C 0.8418(5) 0.5820(2) 0.4176(5)
H15 H 0.8063 0.5547 0.3424
C16 C 0.8009(6) 0.6328(2) 0.3317(4)
H16 H 0.8090 0.6605 0.4062
H17 H 0.8686 0.6398 0.2691
C17 C 0.6478(5) 0.63243(14) 0.2282(4)
H18 H 0.5834 0.6155 0.2814
H19 H 0.6146 0.6676 0.2064
C18 C 0.6433(4) 0.60444(12) 0.0775(3)
O3 O 0.5682(3) 0.56485(9) 0.0424(3)
O4 O 0.7127(3) 0.62342(9) -0.0128(2)
C19 C 0.9906(11) 0.5694(6) 0.4892(12)
H20 H 1.0413 0.5998 0.5333
H21 H 1.0357 0.5555 0.4130
H22 H 0.9938 0.5443 0.5687
O5 O 0.4242(3) 0.51234(9) 0.7392(2)
H23 H 0.4430 0.4951 0.8017
H24 H 0.4067 0.4980 0.6677
Cd1_2 Cd 0.62412(3) 0.566748(8) -0.21580(2)
Cd1A Cd 0.37588(3) 0.066748(8) 0.71580(2)
N2A N 0.4544(3) 0.62929(10) 0.6777(3)
O3_2 O 0.5682(3) 0.56485(9) 1.0424(3)
O4_2 O 0.7127(3) 0.62342(9) 0.9872(2)
O6 O 0.8438(3) 0.71210(10) 0.6793(3)
H25 H 0.8085 0.7193 0.7508
H26 H 0.8385 0.6834 0.6733
O7 O 0.7141(3) 0.72920(10) 0.9186(3)
H27 H 0.7424 0.7470 0.9911
H28 H 0.7070 0.7006 0.9425
loop_
_geom_bond_atom_site_label_1
_geom_bond_atom_site_label_2
_geom_bond_site_symmetry_1
_geom_bond_site_symmetry_2
Cd1 N1 1_555 1_555
N1 C1 1_555 1_555
C1 H1 1_555 1_555
C2 C1 1_555 1_555
H2 C2 1_555 1_555
C3 C2 1_555 1_555
C4 C3 1_555 1_555
H3 C4 1_555 1_555
C5 N1 1_555 1_555
H4 C5 1_555 1_555
C6 C3 1_555 1_555
H5 C6 1_555 1_555
H6 C6 1_555 1_555
C7 C6 1_555 1_555
H7 C7 1_555 1_555
H8 C7 1_555 1_555
C8 C7 1_555 1_555
H9 C8 1_555 1_555
H10 C8 1_555 1_555
C9 H11 1_555 1_555
C10 C9 1_555 1_555
H12 C10 1_555 1_555
C11 C8 1_555 1_555
C12 C11 1_555 1_555
H13 C12 1_555 1_555
C13 C12 1_555 1_555
H14 C13 1_555 1_555
N2 C9 1_555 1_555
O1 Cd1 1_555 1_555
O2 Cd1 1_555 1_555
C14 O1 1_555 1_555
C15 C14 1_555 1_555
H15 C15 1_555 1_555
C16 C15 1_555 1_555
H16 C16 1_555 1_555
H17 C16 1_555 1_555
C17 C16 1_555 1_555
H18 C17 1_555 1_555
H19 C17 1_555 1_555
C18 C17 1_555 1_555
O3 C18 1_555 1_555
O4 C18 1_555 1_555
C19 C15 1_555 1_555
H20 C19 1_555 1_555
H21 C19 1_555 1_555
H22 C19 1_555 1_555
O5 Cd1 1_555 1_555
H23 O5 1_555 1_555
H24 O5 1_555 1_555
O6 H25 1_555 1_555
H26 O6 1_555 1_555
O7 H27 1_555 1_555
H28 O7 1_555 1_555
Cd1_2 O3 1_555 1_555
Cd1A N2 1_555 1_555
N2A Cd1 1_555 1_555
O3_2 Cd1 1_555 1_555
O4_2 Cd1 1_555 1_555
C4 C5 1_555 1_555
C10 C11 1_555 1_555
C13 N2 1_555 1_555
O2 C14 1_555 1_555
O4 Cd1_2 1_555 1_555

#END
