
#######################################################################
#
#                 Cambridge Crystallographic Data Centre
#                                CCDC 
#
#######################################################################
#
# If this CIF has been generated from an entry in the Cambridge 
# Structural Database, then it will include bibliographic, chemical, 
# crystal, experimental, refinement or atomic coordinate data resulting 
# from the CCDC's data processing and validation procedures.
#
#######################################################################

data_DUBWIH01
_symmetry_cell_setting           monoclinic
_symmetry_space_group_name_H-M   'P 21/c'
_symmetry_Int_Tables_number      14
_space_group_name_Hall           '-P 2ybc'
loop_
_symmetry_equiv_pos_site_id
_symmetry_equiv_pos_as_xyz
1 x,y,z
2 -x,1/2+y,1/2-z
3 -x,-y,-z
4 x,1/2-y,1/2+z
_cell_length_a                   15.4236(18)
_cell_length_b                   7.5116(8)
_cell_length_c                   11.4905(14)
_cell_angle_alpha                90
_cell_angle_beta                 91.177(7)
_cell_angle_gamma                90
_cell_volume                     1330.96
loop_
_atom_site_label
_atom_site_type_symbol
_atom_site_fract_x
_atom_site_fract_y
_atom_site_fract_z
Pb1 Pb -0.02116(3) 0.52194(6) 0.31125(4)
O1 O 0.0952(7) 0.4900(10) 0.4663(9)
O2 O 0.1093(5) 0.3224(11) 0.3128(8)
O3 O -0.0039(5) 0.3462(10) 0.1047(6)
O4 O -0.0880(5) 0.1935(10) 0.3012(7)
O5 O -0.1351(7) 0.0503(13) 0.4588(9)
C1 C -0.2387(8) 0.1507(16) 0.3180(10)
C2 C -0.2556(9) 0.2401(17) 0.2180(11)
H1 H -0.2106 0.2919 0.1772
C3 C -0.3061(8) 0.0678(17) 0.3778(11)
H2 H -0.2936 0.0016 0.4445
C4 C 0.2324(8) 0.3526(15) 0.4350(10)
C5 C 0.2718(10) 0.4288(18) 0.5345(12)
H3 H 0.2381 0.4947 0.5850
C6 C 0.2853(8) 0.2543(16) 0.3640(10)
H4 H 0.2613 0.1969 0.2992
C7 C 0.3721(9) 0.240(2) 0.3870(12)
H5 H 0.4070 0.1756 0.3371
C8 C 0.3583(10) 0.409(2) 0.5590(13)
H6 H 0.3831 0.4561 0.6267
C9 C 0.1387(8) 0.3873(16) 0.4058(10)
C10 C -0.1476(8) 0.1259(15) 0.3620(11)
C11 C 0.4072(10) 0.318(2) 0.4823(13)
H7 H 0.4667 0.3102 0.4958
C12 C -0.3397(11) 0.2539(19) 0.1770(13)
H8 H -0.3506 0.3152 0.1080
C13 C -0.4092(10) 0.179(2) 0.2357(13)
H9 H -0.4660 0.1910 0.2078
C14 C -0.3900(9) 0.084(2) 0.3385(13)
H10 H -0.4345 0.0316 0.3799
Pb1B Pb 0.02116(3) 0.47806(6) 0.68875(4)
Pb1A Pb 0.02116(3) 0.02194(6) 0.18875(4)
O1B O -0.0952(7) 0.5100(10) 0.5337(9)
O3A O 0.0039(5) 0.8462(10) 0.3953(6)
O4A O 0.0880(5) 0.6935(10) 0.1988(7)
loop_
_geom_bond_atom_site_label_1
_geom_bond_atom_site_label_2
_geom_bond_site_symmetry_1
_geom_bond_site_symmetry_2
Pb1 O1 1_555 1_555
O1 C9 1_555 1_555
O2 Pb1 1_555 1_555
O3 Pb1 1_555 1_555
O4 Pb1 1_555 1_555
O5 C10 1_555 1_555
C1 C2 1_555 1_555
C2 H1 1_555 1_555
C3 C1 1_555 1_555
H2 C3 1_555 1_555
C4 C5 1_555 1_555
C5 H3 1_555 1_555
C6 C4 1_555 1_555
H4 C6 1_555 1_555
C7 C6 1_555 1_555
H5 C7 1_555 1_555
C8 C5 1_555 1_555
H6 C8 1_555 1_555
C9 O2 1_555 1_555
C10 O4 1_555 1_555
C11 C7 1_555 1_555
H7 C11 1_555 1_555
C12 C2 1_555 1_555
H8 C12 1_555 1_555
C13 C12 1_555 1_555
H9 C13 1_555 1_555
C14 C3 1_555 1_555
H10 C14 1_555 1_555
Pb1B O1 1_555 1_555
Pb1A O3 1_555 1_555
O1B Pb1 1_555 1_555
O3A Pb1 1_555 1_555
O4A Pb1 1_555 1_555
O4 Pb1A 1_555 1_555
C1 C10 1_555 1_555
C4 C9 1_555 1_555
C8 C11 1_555 1_555
C13 C14 1_555 1_555
Pb1B O1B 1_555 1_555

#END
