
#######################################################################
#
#                 Cambridge Crystallographic Data Centre
#                                CCDC 
#
#######################################################################
#
# If this CIF has been generated from an entry in the Cambridge 
# Structural Database, then it will include bibliographic, chemical, 
# crystal, experimental, refinement or atomic coordinate data resulting 
# from the CCDC's data processing and validation procedures.
#
#######################################################################

data_DUCFEN
_symmetry_cell_setting           triclinic
_symmetry_space_group_name_H-M   'P -1'
_symmetry_Int_Tables_number      2
_space_group_name_Hall           '-P 1'
loop_
_symmetry_equiv_pos_site_id
_symmetry_equiv_pos_as_xyz
1 x,y,z
2 -x,-y,-z
_cell_length_a                   8.0600(16)
_cell_length_b                   8.9000(18)
_cell_length_c                   14.400(3)
_cell_angle_alpha                92.20(3)
_cell_angle_beta                 99.70(3)
_cell_angle_gamma                103.60(3)
_cell_volume                     986.367
loop_
_atom_site_label
_atom_site_type_symbol
_atom_site_fract_x
_atom_site_fract_y
_atom_site_fract_z
Cu1 Cu 0.26526(6) 0.01257(5) 0.65963(3)
Mo1 Mo 0.38556(4) -0.43054(3) 0.41023(2)
Mo2 Mo 0.11336(3) -0.41211(3) 0.59841(2)
Mo3 Mo -0.16912(3) -0.22626(3) 0.54419(2)
O1 O 0.4114(3) -0.0406(3) 0.5744(2)
H1 H 0.4897 -0.0729 0.6046
H2 H 0.3851 -0.0271 0.5082
O2 O 0.1811(3) -0.4221(3) 0.71569(19)
O3 O 0.3058(3) -0.3495(3) 0.55355(19)
O4 O -0.3915(3) -0.3777(3) 0.49968(18)
O5 O 0.0654(3) -0.1987(3) 0.60049(18)
O6 O 0.1723(3) 0.1277(3) 0.5576(2)
O7 O -0.2360(4) -0.1163(3) 0.6213(2)
O8 O -0.1575(3) -0.4344(3) 0.61307(18)
O9 O 0.3600(4) -0.2529(3) 0.3822(2)
O10 O 0.0452(3) -0.6094(3) 0.54893(18)
O11 O 0.4579(4) -0.4947(4) 0.3160(2)
N1 N 0.4161(4) -0.0515(4) 0.7683(2)
N2 N 0.5573(6) -0.0676(5) 0.9137(3)
N3 N 0.5806(4) -0.1747(4) 0.8509(2)
N4 N 0.1198(4) 0.0812(4) 0.7412(2)
N5 N -0.0476(6) 0.0815(5) 0.8498(3)
N6 N -0.0412(5) 0.2075(4) 0.7994(3)
C1 C 0.4975(5) -0.1644(5) 0.7654(3)
H3 H 0.4960 -0.2263 0.7117
C2 C 0.4576(6) 0.0040(6) 0.8604(3)
H4 H 0.4186 0.0858 0.8837
C3 C 0.6822(5) -0.2856(5) 0.8837(3)
H5 H 0.7938 -0.2299 0.9201
H6 H 0.7030 -0.3421 0.8296
C4 C 0.5883(5) -0.3977(5) 0.9436(3)
C5 C 0.4594(6) -0.5243(6) 0.9022(3)
H7 H 0.4315 -0.5418 0.8368
C6 C 0.6289(6) -0.3741(5) 1.0415(3)
H8 H 0.7165 -0.2892 1.0698
C7 C 0.0551(6) 0.2048(5) 0.7347(3)
H9 H 0.0749 0.2783 0.6911
C8 C 0.0519(6) 0.0097(5) 0.8127(3)
H10 H 0.0744 -0.0825 0.8334
C9 C -0.1357(6) 0.3248(6) 0.8180(3)
H11 H -0.2571 0.2740 0.8151
H12 H -0.1288 0.3967 0.7691
C10 C -0.0647(6) 0.4144(5) 0.9133(3)
C11 C -0.1132(6) 0.3561(6) 0.9951(3)
H13 H -0.1897 0.2592 0.9922
C12 C 0.0480(7) 0.5578(6) 0.9186(3)
H14 H 0.0809 0.5977 0.8638
Cu1A Cu 0.73474(6) -1.01257(5) 1.34037(3)
Cu1A_2 Cu -0.26526(6) 0.98743(5) 1.34037(3)
Cu1A_3 Cu -0.26526(6) -0.01257(5) 0.34037(3)
Mo1_2 Mo -0.61444(4) -0.43054(3) 0.41023(2)
Mo1A Mo -0.38556(4) -0.56946(3) 0.58977(2)
Mo1A_2 Mo 0.61444(4) 0.43054(3) 0.58977(2)
Mo1_3 Mo 0.38556(4) 0.56946(3) 0.41023(2)
Mo2A Mo -0.11336(3) -0.58789(3) 0.40159(2)
Mo2A_2 Mo -0.11336(3) 0.41211(3) 0.40159(2)
Mo2_2 Mo -0.88664(3) -0.41211(3) 0.59841(2)
Mo3A Mo 0.16912(3) 0.22626(3) 0.45581(2)
Mo3A_2 Mo 0.16912(3) -0.77374(3) 0.45581(2)
O1A O -0.4114(3) 0.0406(3) 0.4256(2)
H1A H -0.4897 0.0729 0.3954
H2A H -0.3851 0.0271 0.4918
O2A O -0.1811(3) 0.4221(3) 0.28431(19)
O3_2 O -0.6942(3) -0.3495(3) 0.55355(19)
O3A O -0.3058(3) 0.3495(3) 0.44645(19)
O4A O 0.3915(3) 0.3777(3) 0.50032(18)
O4_2 O 0.6085(3) -0.3777(3) 0.49968(18)
O4A_2 O 0.3915(3) -0.6223(3) 0.50032(18)
O4A_3 O -0.6085(3) -0.6223(3) 0.50032(18)
O5A O -0.0654(3) 0.1987(3) 0.39951(18)
O6A O -0.1723(3) -0.1277(3) 0.4424(2)
O7A O 0.2360(4) 0.1163(3) 0.3787(2)
O8A O 0.1575(3) 0.4344(3) 0.38693(18)
O8A_2 O 0.1575(3) -0.5656(3) 0.38693(18)
O8A_3 O -0.8425(3) -0.5656(3) 0.38693(18)
O9_2 O -0.6400(4) -0.2529(3) 0.3822(2)
O10A O -0.0452(3) -0.3906(3) 0.45107(18)
O10_2 O 0.0452(3) 0.3906(3) 0.54893(18)
O10A_2 O -0.0452(3) 0.6094(3) 0.45107(18)
O11_2 O -0.5421(4) -0.4947(4) 0.3160(2)
N1A N 0.5839(4) -0.9485(4) 1.2317(2)
N1A_2 N -0.4161(4) 0.0515(4) 0.2317(2)
N2A N 0.4427(6) -0.9324(5) 1.0863(3)
N3A N 0.4194(4) -0.8253(4) 1.1491(2)
N4A N -0.1198(4) 0.9188(4) 1.2588(2)
N4A_2 N -0.1198(4) -0.0812(4) 0.2588(2)
N5A N 0.0476(6) 0.9185(5) 1.1502(3)
N6A N 0.0412(5) 0.7925(4) 1.2006(3)
C1A C 0.5025(5) -0.8356(5) 1.2346(3)
H3A H 0.5040 -0.7737 1.2883
C2A C 0.5424(6) -1.0040(6) 1.1396(3)
H4A H 0.5814 -1.0858 1.1163
C3A C 0.3178(5) -0.7144(5) 1.1163(3)
H5A H 0.2062 -0.7701 1.0799
H6A H 0.2970 -0.6579 1.1704
C4A C 0.4117(5) -0.6023(5) 1.0564(3)
C5A C 0.5406(6) -0.4757(6) 1.0978(3)
H7A H 0.5685 -0.4582 1.1632
C6A C 0.3711(6) -0.6259(5) 0.9585(3)
H8A H 0.2835 -0.7108 0.9302
C7A C -0.0551(6) 0.7952(5) 1.2653(3)
H9A H -0.0749 0.7217 1.3089
C8A C -0.0519(6) 0.9903(5) 1.1873(3)
H10A H -0.0744 1.0825 1.1666
C9A C 0.1357(6) 0.6752(6) 1.1820(3)
H11A H 0.2571 0.7260 1.1849
H12A H 0.1288 0.6033 1.2309
C10A C 0.0647(6) 0.5856(5) 1.0867(3)
C11A C 0.1132(6) 0.6439(6) 1.0049(3)
H13A H 0.1897 0.7408 1.0078
C12A C -0.0480(7) 0.4422(6) 1.0814(3)
H14A H -0.0809 0.4023 1.1362
loop_
_geom_bond_atom_site_label_1
_geom_bond_atom_site_label_2
_geom_bond_site_symmetry_1
_geom_bond_site_symmetry_2
Cu1 O1 1_555 1_555
Mo1 O3 1_555 1_555
Mo2 O2 1_555 1_555
Mo3 O4 1_555 1_555
O1 H1 1_555 1_555
H2 O1 1_555 1_555
O3 Mo2 1_555 1_555
O4 Mo1_2 1_555 1_555
O5 Cu1 1_555 1_555
O6 Cu1 1_555 1_555
O7 Mo3 1_555 1_555
O8 Mo2 1_555 1_555
O9 Mo1 1_555 1_555
O10 Mo2 1_555 1_555
O11 Mo1 1_555 1_555
N1 Cu1 1_555 1_555
N2 N3 1_555 1_555
N3 C1 1_555 1_555
N4 Cu1 1_555 1_555
N5 N6 1_555 1_555
N6 C7 1_555 1_555
C1 N1 1_555 1_555
H3 C1 1_555 1_555
C2 N1 1_555 1_555
H4 C2 1_555 1_555
C3 N3 1_555 1_555
H5 C3 1_555 1_555
H6 C3 1_555 1_555
C4 C3 1_555 1_555
C5 C4 1_555 1_555
H7 C5 1_555 1_555
C6 C4 1_555 1_555
H8 C6 1_555 1_555
C7 N4 1_555 1_555
H9 C7 1_555 1_555
C8 N4 1_555 1_555
H10 C8 1_555 1_555
C9 N6 1_555 1_555
H11 C9 1_555 1_555
H12 C9 1_555 1_555
C10 C9 1_555 1_555
C11 C10 1_555 1_555
H13 C11 1_555 1_555
C12 C10 1_555 1_555
H14 C12 1_555 1_555
Cu1A N1A 1_555 1_555
Cu1A_2 N4A 1_555 1_555
Cu1A_3 O1A 1_555 1_555
Mo1_2 O3_2 1_555 1_555
Mo1A O4 1_555 1_555
Mo1A_2 O4A 1_555 1_555
Mo1_3 O4A 1_555 1_555
Mo2A O10 1_555 1_555
Mo2A_2 O2A 1_555 1_555
Mo2_2 O3_2 1_555 1_555
Mo3A O6 1_555 1_555
Mo3A_2 O10 1_555 1_555
O1A H1A 1_555 1_555
H2A O1A 1_555 1_555
O3A Mo2A_2 1_555 1_555
O4A Mo3A 1_555 1_555
O4_2 Mo1 1_555 1_555
O4A_2 Mo1 1_555 1_555
O4A_3 Mo1_2 1_555 1_555
O5A Cu1A_3 1_555 1_555
O6A Mo3 1_555 1_555
O7A Mo3A 1_555 1_555
O8A Mo1_3 1_555 1_555
O8A_2 Mo1 1_555 1_555
O8A_3 Mo1_2 1_555 1_555
O9_2 Mo1_2 1_555 1_555
O10A Mo2 1_555 1_555
O10_2 Mo2A_2 1_555 1_555
O10A_2 Mo2A_2 1_555 1_555
O11_2 Mo1_2 1_555 1_555
N1A C1A 1_555 1_555
N1A_2 Cu1A_3 1_555 1_555
N2A N3A 1_555 1_555
N3A C1A 1_555 1_555
N4A C7A 1_555 1_555
N4A_2 Cu1A_3 1_555 1_555
N5A N6A 1_555 1_555
N6A C7A 1_555 1_555
C1A H3A 1_555 1_555
C2A N1A 1_555 1_555
H4A C2A 1_555 1_555
C3A N3A 1_555 1_555
H5A C3A 1_555 1_555
H6A C3A 1_555 1_555
C4A C3A 1_555 1_555
C5A C6 1_555 1_555
H7A C5A 1_555 1_555
C6A C5 1_555 1_555
H8A C6A 1_555 1_555
C7A H9A 1_555 1_555
C8A N4A 1_555 1_555
H10A C8A 1_555 1_555
C9A N6A 1_555 1_555
H11A C9A 1_555 1_555
H12A C9A 1_555 1_555
C10A C9A 1_555 1_555
C11A C12 1_555 1_555
H13A C11A 1_555 1_555
C12A C11 1_555 1_555
H14A C12A 1_555 1_555
Mo2 O5 1_555 1_555
Mo3 O5 1_555 1_555
Mo3 O8 1_555 1_555
Mo3 O10A 1_555 1_555
O8 Mo1A 1_555 1_555
N2 C2 1_555 1_555
N5 C8 1_555 1_555
Cu1A_3 O6A 1_555 1_555
Mo1A O4A_3 1_555 1_555
Mo2A O8A_2 1_555 1_555
Mo2A O10A 1_555 1_555
Mo2A_2 O5A 1_555 1_555
Mo2A_2 O8A 1_555 1_555
Mo3A O5A 1_555 1_555
Mo3A O8A 1_555 1_555
Mo3A O10_2 1_555 1_555
Mo3A_2 O4A_2 1_555 1_555
Mo3A_2 O8A_2 1_555 1_555
N2A C2A 1_555 1_555
N5A C8A 1_555 1_555
C4A C5A 1_555 1_555
C4A C6A 1_555 1_555
C10A C11A 1_555 1_555
C10A C12A 1_555 1_555

#END
