
#######################################################################
#
#                 Cambridge Crystallographic Data Centre
#                                CCDC 
#
#######################################################################
#
# If this CIF has been generated from an entry in the Cambridge 
# Structural Database, then it will include bibliographic, chemical, 
# crystal, experimental, refinement or atomic coordinate data resulting 
# from the CCDC's data processing and validation procedures.
#
#######################################################################

data_DUCFOX
_symmetry_cell_setting           triclinic
_symmetry_space_group_name_H-M   'P -1'
_symmetry_Int_Tables_number      2
_space_group_name_Hall           '-P 1'
loop_
_symmetry_equiv_pos_site_id
_symmetry_equiv_pos_as_xyz
1 x,y,z
2 -x,-y,-z
_cell_length_a                   10.200(2)
_cell_length_b                   12.600(3)
_cell_length_c                   13.100(3)
_cell_angle_alpha                79.20(3)
_cell_angle_beta                 67.10(3)
_cell_angle_gamma                74.70(3)
_cell_volume                     1489.14
loop_
_atom_site_label
_atom_site_type_symbol
_atom_site_fract_x
_atom_site_fract_y
_atom_site_fract_z
Mo1 Mo 0.53908(5) 1.03405(4) 0.26866(4)
Mo2 Mo 0.44280(5) 1.14114(4) 0.52262(4)
Mo3 Mo 0.21668(5) 1.03050(4) 0.48544(4)
Mo4 Mo 0.76950(5) 1.15017(5) 0.30605(4)
Co1 Co 0.75126(8) 0.81546(7) 0.06987(6)
O1 O 0.8155(6) 1.2734(5) 0.2586(4)
O2 O 0.8331(6) 0.9413(5) -0.0474(4)
H1 H 0.777(8) 1.011(7) -0.097(7)
H2 H 0.910(9) 0.914(7) -0.074(7)
O3 O 0.1608(4) 1.0375(4) 0.3768(4)
O4 O 0.5572(6) 0.8816(5) 0.0364(5)
H3 H 0.543(7) 0.895(5) -0.027(6)
H4 H 0.493(7) 0.909(6) 0.066(6)
O5 O 0.4276(4) 1.0801(3) 0.1937(3)
O7 O 0.9069(5) 1.0605(4) 0.2205(4)
O8 O 0.6266(4) 1.1548(3) 0.2406(3)
O9 O 0.0867(4) 1.1188(4) 0.5714(4)
O10 O 0.3018(4) 1.2274(3) 0.6041(3)
O11 O 0.1842(4) 0.8914(4) 0.5636(3)
O12 O 0.6305(4) 1.0084(3) 0.4124(3)
O13 O 0.5595(4) 1.2256(3) 0.4354(3)
O14 O 0.4429(4) 0.9237(3) 0.3824(3)
O15 O 0.6759(4) 0.9370(3) 0.1899(3)
O16 O 0.3636(4) 1.1259(3) 0.4134(3)
N1 N 0.6506(5) 0.7036(4) 0.1994(4)
N2 N 0.6135(6) 0.5676(5) 0.3374(5)
N3 N 0.4885(6) 0.6425(4) 0.3462(4)
N4 N 0.0852(5) 0.3654(4) 0.2119(4)
N5 N 0.0783(8) 0.4518(5) 0.1350(5)
N6 N 0.1777(6) 0.2940(4) 0.0546(4)
N7 N 0.9531(5) 0.7677(4) 0.0935(4)
N8 N 1.1851(5) 0.7447(4) 0.0573(4)
N9 N 1.1189(6) 0.7827(5) 0.1589(4)
C1 C 0.5124(6) 0.7215(5) 0.2656(5)
H7 H 0.4418 0.7823 0.2561
C2 C 0.7088(7) 0.6091(6) 0.2464(6)
H8 H 0.8069 0.5754 0.2181
C3 C 0.3492(7) 0.6322(5) 0.4377(5)
H9 H 0.2906 0.7055 0.4548
H10 H 0.3688 0.5951 0.5038
C4 C 0.2645(6) 0.5684(5) 0.4084(4)
C5 C 0.1374(7) 0.6208(5) 0.3904(5)
H11 H 0.1036 0.6965 0.3957
C6 C 0.0598(7) 0.5613(5) 0.3645(5)
H12 H -0.0258 0.5971 0.3523
C7 C 0.1089(7) 0.4507(5) 0.3569(5)
C8 C 0.2368(7) 0.3967(5) 0.3754(5)
H13 H 0.2701 0.3209 0.3706
C9 C 0.3137(7) 0.4567(5) 0.4010(6)
H14 H 0.3994 0.4212 0.4132
C10 C 0.0254(7) 0.3828(6) 0.3301(5)
H15 H 0.0297 0.3117 0.3741
H16 H -0.0760 0.4206 0.3502
C11 C 0.1437(7) 0.2724(5) 0.1643(5)
H17 H 0.1590 0.2024 0.2015
C12 C 0.1341(9) 0.4023(7) 0.0430(6)
H18 H 0.1423 0.4413 -0.0261
C13 C 0.9804(7) 0.7964(6) 0.1767(5)
H19 H 0.9070 0.8234 0.2408
C14 C 1.0857(7) 0.7363(6) 0.0205(5)
H20 H 1.1058 0.7115 -0.0477
C15 C 1.3427(7) 0.7272(5) 0.0020(6)
H21 H 1.3802 0.7661 0.0383
H22 H 1.3646 0.7596 -0.0745
C16 C 1.4212(6) 0.6081(5) 0.0018(5)
C17 C 1.5025(9) 0.5650(7) -0.0967(6)
H23 H 1.492(8) 0.600(6) -0.161(7)
C18 C 1.4198(10) 0.5443(7) 0.0977(6)
H24 H 1.379(9) 0.575(7) 0.146(7)
Mo1A Mo 0.46092(5) 0.96595(4) 0.73134(4)
Mo2A Mo 0.55720(5) 0.85886(4) 0.47738(4)
Mo3A Mo 0.78332(5) 0.96950(4) 0.51456(4)
Mo4A Mo 0.23050(5) 0.84983(5) 0.69395(4)
Co1A Co 0.24874(8) 0.18454(7) -0.06987(6)
Co1A_2 Co 2.24874(8) 0.18454(7) -0.06987(6)
Co1A_3 Co 0.24874(8) 1.18454(7) 0.93013(6)
O1A O 0.1845(6) 0.7266(5) 0.7414(4)
O2A O 0.1669(6) 0.0587(5) 0.0474(4)
H1A H 0.223(8) -0.011(7) 0.097(7)
H2A H 0.090(9) 0.086(7) 0.074(7)
O3A O 0.8392(4) 0.9625(4) 0.6232(4)
O4A O 0.4428(6) 0.1184(5) -0.0364(5)
H3A H 0.457(7) 0.105(5) 0.027(6)
H4A H 0.507(7) 0.091(6) -0.066(6)
O5A O 0.5724(4) 0.9199(3) 0.8063(3)
O7A O 0.0931(5) 0.9395(4) 0.7795(4)
O8A O 0.3734(4) 0.8452(3) 0.7594(3)
O9A O 0.9133(4) 0.8812(4) 0.4286(4)
O10A O 0.6982(4) 0.7726(3) 0.3959(3)
O11A O 0.8158(4) 1.1086(4) 0.4364(3)
O12A O 0.3695(4) 0.9916(3) 0.5876(3)
O13A O 0.4405(4) 0.7744(3) 0.5646(3)
O14A O 0.5571(4) 1.0763(3) 0.6176(3)
O15A O 0.3241(4) 1.0630(3) 0.8101(3)
O15A_2 O 0.3241(4) 0.0630(3) -0.1899(3)
O16A O 0.6364(4) 0.8741(3) 0.5866(3)
N1A N 0.3494(5) 0.2964(4) -0.1994(4)
N2A N 0.3865(6) 0.4324(5) -0.3374(5)
N3A N 0.5115(6) 0.3575(4) -0.3462(4)
N4A N 0.9148(5) 0.6346(4) -0.2119(4)
N5A N 0.9217(8) 0.5482(5) -0.1350(5)
N6A N 0.8223(6) 0.7060(4) -0.0546(4)
N7A N 2.0469(5) 0.2323(4) -0.0935(4)
N7A_2 N 0.0469(5) 0.2323(4) -0.0935(4)
N8A N 1.8149(5) 0.2553(4) -0.0573(4)
N9A N 1.8811(6) 0.2173(5) -0.1589(4)
C1A C 0.4876(6) 0.2785(5) -0.2656(5)
H7A H 0.5582 0.2177 -0.2561
C2A C 0.2912(7) 0.3909(6) -0.2464(6)
H8A H 0.1931 0.4246 -0.2181
C3A C 0.6508(7) 0.3678(5) -0.4377(5)
H9A H 0.7094 0.2945 -0.4548
H10A H 0.6312 0.4049 -0.5038
C4A C 0.7355(6) 0.4316(5) -0.4084(4)
C5A C 0.8626(7) 0.3792(5) -0.3904(5)
H11A H 0.8964 0.3035 -0.3957
C6A C 0.9402(7) 0.4387(5) -0.3645(5)
H12A H 1.0258 0.4029 -0.3523
C7A C 0.8911(7) 0.5493(5) -0.3569(5)
C8A C 0.7632(7) 0.6033(5) -0.3754(5)
H13A H 0.7299 0.6791 -0.3706
C9A C 0.6863(7) 0.5433(5) -0.4010(6)
H14A H 0.6006 0.5788 -0.4132
C10A C 0.9746(7) 0.6172(6) -0.3301(5)
H15A H 0.9703 0.6883 -0.3741
H16A H 1.0760 0.5794 -0.3502
C11A C 0.8563(7) 0.7276(5) -0.1643(5)
H17A H 0.8410 0.7976 -0.2015
C12A C 0.8659(9) 0.5977(7) -0.0430(6)
H18A H 0.8577 0.5587 0.0261
C13A C 2.0196(7) 0.2036(6) -0.1767(5)
H19A H 2.0930 0.1766 -0.2408
C14A C 1.9143(7) 0.2637(6) -0.0205(5)
H20A H 1.8942 0.2885 0.0477
C15A C 1.6573(7) 0.2728(5) -0.0020(6)
H21A H 1.6198 0.2339 -0.0383
H22A H 1.6354 0.2404 0.0745
C16A C 1.5788(6) 0.3919(5) -0.0018(5)
C17A C 1.4975(9) 0.4350(7) 0.0967(6)
H23A H 1.508(8) 0.400(6) 0.161(7)
C18A C 1.5802(10) 0.4557(7) -0.0977(6)
H24A H 1.621(9) 0.425(7) -0.146(7)
O6 O 0.7288(5) 1.0839(4) -0.1961(4)
H5 H 0.772(8) 1.056(6) -0.277(7)
H6 H 0.811(9) 1.130(7) -0.214(7)
loop_
_geom_bond_atom_site_label_1
_geom_bond_atom_site_label_2
_geom_bond_site_symmetry_1
_geom_bond_site_symmetry_2
Mo1 O5 1_555 1_555
Mo2 O10 1_555 1_555
Mo3 O3 1_555 1_555
Mo4 O1 1_555 1_555
Co1 O2 1_555 1_555
O2 H1 1_555 1_555
H2 O2 1_555 1_555
O4 Co1 1_555 1_555
H3 O4 1_555 1_555
H4 O4 1_555 1_555
O6 H5 1_555 1_555
H6 O6 1_555 1_555
O7 Mo4 1_555 1_555
O8 Mo1 1_555 1_555
O9 Mo3 1_555 1_555
O11 Mo3 1_555 1_555
O12 Mo1 1_555 1_555
O13 Mo2 1_555 1_555
O14 Mo1 1_555 1_555
O15 Mo1 1_555 1_555
O16 Mo1 1_555 1_555
N1 Co1 1_555 1_555
N2 N3 1_555 1_555
N3 C1 1_555 1_555
N4 N5 1_555 1_555
N5 C12 1_555 1_555
N6 C11 1_555 1_555
N7 Co1 1_555 1_555
N8 N9 1_555 1_555
N9 C13 1_555 1_555
C1 N1 1_555 1_555
H7 C1 1_555 1_555
C2 N1 1_555 1_555
H8 C2 1_555 1_555
C3 N3 1_555 1_555
H9 C3 1_555 1_555
H10 C3 1_555 1_555
C4 C3 1_555 1_555
C5 C4 1_555 1_555
H11 C5 1_555 1_555
C6 C5 1_555 1_555
H12 C6 1_555 1_555
C7 C6 1_555 1_555
C8 C7 1_555 1_555
H13 C8 1_555 1_555
C9 C4 1_555 1_555
H14 C9 1_555 1_555
C10 N4 1_555 1_555
H15 C10 1_555 1_555
H16 C10 1_555 1_555
C11 N4 1_555 1_555
H17 C11 1_555 1_555
C12 N6 1_555 1_555
H18 C12 1_555 1_555
C13 N7 1_555 1_555
H19 C13 1_555 1_555
C14 N7 1_555 1_555
H20 C14 1_555 1_555
C15 N8 1_555 1_555
H21 C15 1_555 1_555
H22 C15 1_555 1_555
C16 C15 1_555 1_555
C17 C16 1_555 1_555
H23 C17 1_555 1_555
C18 C16 1_555 1_555
H24 C18 1_555 1_555
Mo1A O5A 1_555 1_555
Mo2A O12 1_555 1_555
Mo3A O12 1_555 1_555
Mo4A O11 1_555 1_555
Co1A N6 1_555 1_555
Co1A_2 N7A 1_555 1_555
Co1A_3 O15A 1_555 1_555
O1A Mo4A 1_555 1_555
O2A Co1A 1_555 1_555
H1A O2A 1_555 1_555
H2A O2A 1_555 1_555
O3A Mo3A 1_555 1_555
O4A Co1A 1_555 1_555
H3A O4A 1_555 1_555
H4A O4A 1_555 1_555
O7A Mo4A 1_555 1_555
O8A Mo1A 1_555 1_555
O9A Mo3A 1_555 1_555
O10A Mo2A 1_555 1_555
O11A Mo4 1_555 1_555
O12A Mo2 1_555 1_555
O13A Mo2A 1_555 1_555
O14A Mo2 1_555 1_555
O15A Mo1A 1_555 1_555
O15A_2 Co1A 1_555 1_555
O16A Mo1A 1_555 1_555
N1A Co1A 1_555 1_555
N2A N3A 1_555 1_555
N3A C1A 1_555 1_555
N4A N5A 1_555 1_555
N5A C12A 1_555 1_555
N6A Co1 1_555 1_555
N7A C13A 1_555 1_555
N7A_2 Co1A 1_555 1_555
N8A N9A 1_555 1_555
N9A C13A 1_555 1_555
C1A N1A 1_555 1_555
H7A C1A 1_555 1_555
C2A N1A 1_555 1_555
H8A C2A 1_555 1_555
C3A N3A 1_555 1_555
H9A C3A 1_555 1_555
H10A C3A 1_555 1_555
C4A C3A 1_555 1_555
C5A C4A 1_555 1_555
H11A C5A 1_555 1_555
C6A C5A 1_555 1_555
H12A C6A 1_555 1_555
C7A C6A 1_555 1_555
C8A C7A 1_555 1_555
H13A C8A 1_555 1_555
C9A C4A 1_555 1_555
H14A C9A 1_555 1_555
C10A N4A 1_555 1_555
H15A C10A 1_555 1_555
H16A C10A 1_555 1_555
C11A N4A 1_555 1_555
H17A C11A 1_555 1_555
C12A N6A 1_555 1_555
H18A C12A 1_555 1_555
C13A H19A 1_555 1_555
C14A N7A 1_555 1_555
H20A C14A 1_555 1_555
C15A N8A 1_555 1_555
H21A C15A 1_555 1_555
H22A C15A 1_555 1_555
C16A C15A 1_555 1_555
C17A C18 1_555 1_555
H23A C17A 1_555 1_555
C18A C17 1_555 1_555
H24A C18A 1_555 1_555
Mo2 O12 1_555 1_555
Mo2 O16 1_555 1_555
Mo3 O14 1_555 1_555
Mo3 O16 1_555 1_555
Mo3 O12A 1_555 1_555
Mo4 O8 1_555 1_555
Mo4 O12 1_555 1_555
Mo4 O13 1_555 1_555
Co1 O15 1_555 1_555
O14 Mo2A 1_555 1_555
N2 C2 1_555 1_555
N8 C14 1_555 1_555
C7 C10 1_555 1_555
C8 C9 1_555 1_555
Mo1A O12A 1_555 1_555
Mo1A O14A 1_555 1_555
Mo2A O12A 1_555 1_555
Mo2A O16A 1_555 1_555
Mo3A O11A 1_555 1_555
Mo3A O14A 1_555 1_555
Mo3A O16A 1_555 1_555
Mo4A O8A 1_555 1_555
Mo4A O12A 1_555 1_555
Mo4A O13A 1_555 1_555
N2A C2A 1_555 1_555
N6A C11A 1_555 1_555
N8A C14A 1_555 1_555
C7A C10A 1_555 1_555
C8A C9A 1_555 1_555
C16A C17A 1_555 1_555
C16A C18A 1_555 1_555

#END
