
#######################################################################
#
#                 Cambridge Crystallographic Data Centre
#                                CCDC 
#
#######################################################################
#
# If this CIF has been generated from an entry in the Cambridge 
# Structural Database, then it will include bibliographic, chemical, 
# crystal, experimental, refinement or atomic coordinate data resulting 
# from the CCDC's data processing and validation procedures.
#
#######################################################################

data_DUCGUE01
_symmetry_cell_setting           monoclinic
_symmetry_space_group_name_H-M   'P 21/c'
_symmetry_Int_Tables_number      14
_space_group_name_Hall           '-P 2ybc'
loop_
_symmetry_equiv_pos_site_id
_symmetry_equiv_pos_as_xyz
1 x,y,z
2 -x,1/2+y,1/2-z
3 -x,-y,-z
4 x,1/2-y,1/2+z
_cell_length_a                   12.669(3)
_cell_length_b                   22.816(5)
_cell_length_c                   14.893(6)
_cell_angle_alpha                90
_cell_angle_beta                 124.44(2)
_cell_angle_gamma                90
_cell_volume                     3550.34
loop_
_atom_site_label
_atom_site_type_symbol
_atom_site_fract_x
_atom_site_fract_y
_atom_site_fract_z
Mo1 Mo 0.58261(3) -0.394859(15) 0.90654(3)
Mo2 Mo 0.65860(3) -0.389680(15) 1.15823(3)
Mo3 Mo 0.64428(3) -0.542991(15) 1.04809(3)
Mo4 Mo 0.42389(4) -0.509788(17) 0.71612(4)
Cu1 Cu 0.66730(5) -0.26844(2) 0.80983(4)
O1 O 0.5777(3) -0.35491(11) 1.0176(2)
O2 O 0.8007(3) -0.55862(14) 1.1024(3)
O3 O 0.5607(3) -0.46485(13) 0.8209(3)
O4 O 0.6247(3) -0.46375(12) 1.0375(2)
O5 O 0.6840(3) -0.45558(12) 1.2524(2)
O6 O 0.5081(3) -0.34261(13) 0.8089(2)
O7 O 0.3911(3) -0.42723(14) 0.8622(2)
O8 O 0.4517(3) -0.42397(13) 1.0817(2)
O9 O 0.7406(3) -0.38671(14) 0.9566(3)
O10 O 0.3280(4) -0.46689(17) 0.6055(3)
O11 O 0.8140(3) -0.38321(16) 1.2002(3)
O12 O 0.6347(4) -0.33458(13) 1.2214(3)
O13 O 0.4857(3) -0.56206(15) 0.6779(3)
N5 N 0.5043(3) -0.31514(15) 0.4975(3)
N6 N 0.6060(3) -0.30495(15) 0.6751(3)
N7 N -0.1623(3) -0.21918(15) 0.1233(3)
N8 N -0.2642(3) -0.23287(15) -0.0530(3)
C15 C 0.0486(4) -0.24951(19) 0.2804(3)
C16 C 0.2950(4) -0.28101(19) 0.3438(3)
C17 C 0.1445(4) -0.20778(19) 0.3213(3)
H15 H 0.1269 -0.1690 0.3278
C18 C 0.2667(4) -0.22335(19) 0.3527(3)
H16 H 0.3303 -0.1949 0.3799
C19 C 0.1994(4) -0.32276(19) 0.3043(3)
H17 H 0.2176 -0.3616 0.2993
C20 C 0.0774(4) -0.30743(19) 0.2723(3)
H18 H 0.0139 -0.3359 0.2451
C21 C -0.2115(4) -0.25856(18) 0.0427(3)
H19 H -0.2089 -0.2989 0.0528
C22 C 0.5865(5) -0.3639(2) 0.6486(4)
H20 H 0.6129 -0.3945 0.6983
C23 C -0.0868(4) -0.2331(2) 0.2404(3)
H21 H -0.1266 -0.2654 0.2532
H22 H -0.0855 -0.1994 0.2807
C24 C -0.2487(4) -0.17331(19) -0.0320(4)
H23 H -0.2769 -0.1439 -0.0839
C25 C 0.5237(5) -0.3704(2) 0.5403(4)
H24 H 0.4984 -0.4055 0.5018
C26 C 0.4290(4) -0.2980(2) 0.3817(3)
H25 H 0.4258 -0.3304 0.3381
H26 H 0.4702 -0.2652 0.3718
C27 C -0.1859(4) -0.16493(19) 0.0765(4)
H27 H -0.1631 -0.1291 0.1126
C28 C 0.5547(4) -0.27759(18) 0.5814(3)
H28 H 0.5535 -0.2371 0.5743
Mo1B Mo 0.41739(3) -0.605141(15) 1.09346(3)
Mo2B Mo 0.34140(3) -0.610320(15) 0.84177(3)
Mo3B Mo 0.35572(3) -0.457009(15) 0.95191(3)
Mo4B Mo 0.57611(4) -0.490212(17) 1.28388(4)
Cu1C Cu 0.66730(5) -0.23156(2) 1.30983(4)
Cu1_2 Cu -0.33270(5) -0.26844(2) -0.19017(4)
Cu1A Cu 0.33270(5) -0.76844(2) 0.69017(4)
Cu1B Cu 0.33270(5) -0.73156(2) 1.19017(4)
Cu1A_2 Cu -0.66730(5) -0.76844(2) -0.30983(4)
O1B O 0.4223(3) -0.64509(11) 0.9824(2)
O2B O 0.1993(3) -0.44138(14) 0.8976(3)
O3B O 0.4393(3) -0.53515(13) 1.1791(3)
O4B O 0.3753(3) -0.53625(12) 0.9625(2)
O5B O 0.3160(3) -0.54442(12) 0.7476(2)
O6B O 0.4919(3) -0.65739(13) 1.1911(2)
O6A O 0.4919(3) -0.84261(13) 0.6911(2)
O7B O 0.6089(3) -0.57277(14) 1.1378(2)
O8B O 0.5483(3) -0.57603(13) 0.9183(2)
O9B O 0.2594(3) -0.61329(14) 1.0434(3)
O10B O 0.6720(4) -0.53311(17) 1.3945(3)
O11B O 0.1860(3) -0.61679(16) 0.7998(3)
O12C O 0.6347(4) -0.16542(13) 0.7214(3)
O12B O 0.3653(4) -0.66542(13) 0.7786(3)
O13B O 0.5143(3) -0.43794(15) 1.3221(3)
N5A N -0.5043(3) -0.81514(15) 0.0025(3)
N6A N 0.3940(3) -0.80495(15) 0.8249(3)
N6A_2 N -0.6060(3) -0.80495(15) -0.1751(3)
N7A N 0.1623(3) -0.71918(15) 0.3767(3)
N8_2 N 0.7358(3) -0.23287(15) 0.9470(3)
N8A N 0.2642(3) -0.73287(15) 0.5530(3)
C15A C -0.0486(4) -0.74951(19) 0.2196(3)
C16A C -0.2950(4) -0.78101(19) 0.1562(3)
C17A C -0.1445(4) -0.70778(19) 0.1787(3)
H15A H -0.1269 -0.6690 0.1722
C18A C -0.2667(4) -0.72335(19) 0.1473(3)
H16A H -0.3303 -0.6949 0.1201
C19A C -0.1994(4) -0.82276(19) 0.1957(3)
H17A H -0.2176 -0.8616 0.2007
C20A C -0.0774(4) -0.80743(19) 0.2277(3)
H18A H -0.0139 -0.8359 0.2549
C21A C 0.2115(4) -0.75856(18) 0.4573(3)
H19A H 0.2089 -0.7989 0.4472
C22A C -0.5865(5) -0.8639(2) -0.1486(4)
H20A H -0.6129 -0.8945 -0.1983
C23A C 0.0868(4) -0.7331(2) 0.2596(3)
H21A H 0.1266 -0.7654 0.2468
H22A H 0.0855 -0.6994 0.2193
C24A C 0.2487(4) -0.67331(19) 0.5320(4)
H23A H 0.2769 -0.6439 0.5839
C25A C -0.5237(5) -0.8704(2) -0.0403(4)
H24A H -0.4984 -0.9055 -0.0018
C26A C -0.4290(4) -0.7980(2) 0.1183(3)
H25A H -0.4258 -0.8304 0.1619
H26A H -0.4702 -0.7652 0.1282
C27A C 0.1859(4) -0.66493(19) 0.4235(4)
H27A H 0.1631 -0.6291 0.3874
C28A C -0.5547(4) -0.77759(18) -0.0814(3)
H28A H -0.5535 -0.7371 -0.0743
Cu2 Cu -0.00684(6) -0.47955(3) 0.68183(6)
N1 N 0.0361(4) -0.43455(17) 0.6013(3)
N2 N 0.1308(3) -0.36913(16) 0.5619(3)
N3 N 0.0885(4) -0.05203(16) 0.6180(4)
N4 N 0.0735(4) -0.01542(17) 0.7472(4)
C1 C 0.0130(4) -0.04411(19) 0.6537(4)
H1 H -0.0712 -0.0572 0.6173
C2 C 0.1781(4) -0.2625(2) 0.5656(3)
C3 C 0.2666(4) -0.2172(2) 0.5967(4)
H2 H 0.3522 -0.2262 0.6275
C4 C 0.1001(4) -0.1450(2) 0.5370(4)
C5 C 0.0273(4) -0.3904(2) 0.4648(4)
H3 H 0.0019 -0.3793 0.3952
C6 C 0.2286(4) -0.1593(2) 0.5823(4)
H4 H 0.2884 -0.1296 0.6027
C7 C 0.1326(4) -0.3969(2) 0.6408(4)
H5 H 0.1937 -0.3909 0.7146
C8 C -0.0295(5) -0.4301(2) 0.4901(4)
H6 H -0.1023 -0.4514 0.4401
C9 C 0.0542(5) -0.0821(2) 0.5179(4)
H7 H 0.0908 -0.0608 0.4853
H8 H -0.0382 -0.0814 0.4667
C10 C 0.0518(4) -0.2485(2) 0.5225(4)
H9 H -0.0079 -0.2781 0.5028
C11 C 0.2236(4) -0.3250(2) 0.5765(4)
H10 H 0.2430 -0.3319 0.5230
H11 H 0.3023 -0.3300 0.6481
C12 C 0.0139(4) -0.1901(2) 0.5084(4)
H12 H -0.0714 -0.1813 0.4790
C13 C 0.1938(5) -0.0052(2) 0.7722(5)
H13 H 0.2587 0.0140 0.8345
C14 C 0.2046(5) -0.0269(2) 0.6938(5)
H14 H 0.2763 -0.0253 0.6914
Cu2A Cu 0.00684(6) 0.02045(3) 0.81817(6)
N4A N -0.0735(4) -0.51542(17) 0.7528(4)
loop_
_geom_bond_atom_site_label_1
_geom_bond_atom_site_label_2
_geom_bond_site_symmetry_1
_geom_bond_site_symmetry_2
Mo1 O1 1_555 1_555
Mo2 O1 1_555 1_555
Mo3 O2 1_555 1_555
Mo4 O3 1_555 1_555
Cu1 O6 1_555 1_555
Cu2 N1 1_555 1_555
O3 Mo1 1_555 1_555
O4 Mo1 1_555 1_555
O5 Mo2 1_555 1_555
O6 Mo1 1_555 1_555
O7 Mo1 1_555 1_555
O8 Mo2 1_555 1_555
O9 Mo1 1_555 1_555
O10 Mo4 1_555 1_555
O11 Mo2 1_555 1_555
O12 Mo2 1_555 1_555
O13 Mo4 1_555 1_555
N1 C7 1_555 1_555
N2 C5 1_555 1_555
N3 C1 1_555 1_555
N4 C1 1_555 1_555
C1 H1 1_555 1_555
C2 C3 1_555 1_555
C3 H2 1_555 1_555
C4 C6 1_555 1_555
C5 H3 1_555 1_555
C6 C3 1_555 1_555
H4 C6 1_555 1_555
C7 N2 1_555 1_555
H5 C7 1_555 1_555
C8 N1 1_555 1_555
H6 C8 1_555 1_555
C9 N3 1_555 1_555
H7 C9 1_555 1_555
H8 C9 1_555 1_555
C10 C2 1_555 1_555
H9 C10 1_555 1_555
C11 N2 1_555 1_555
H10 C11 1_555 1_555
H11 C11 1_555 1_555
C12 C4 1_555 1_555
H12 C12 1_555 1_555
C13 N4 1_555 1_555
H13 C13 1_555 1_555
C14 N3 1_555 1_555
H14 C14 1_555 1_555
N5 C25 1_555 1_555
N6 Cu1 1_555 1_555
N7 C21 1_555 1_555
N8 C21 1_555 1_555
C15 C17 1_555 1_555
C16 C18 1_555 1_555
C17 H15 1_555 1_555
C18 C17 1_555 1_555
H16 C18 1_555 1_555
C19 C16 1_555 1_555
H17 C19 1_555 1_555
C20 C15 1_555 1_555
H18 C20 1_555 1_555
C21 H19 1_555 1_555
C22 N6 1_555 1_555
H20 C22 1_555 1_555
C23 N7 1_555 1_555
H21 C23 1_555 1_555
H22 C23 1_555 1_555
C24 N8 1_555 1_555
H23 C24 1_555 1_555
C25 C22 1_555 1_555
H24 C25 1_555 1_555
C26 N5 1_555 1_555
H25 C26 1_555 1_555
H26 C26 1_555 1_555
C27 N7 1_555 1_555
H27 C27 1_555 1_555
C28 N5 1_555 1_555
H28 C28 1_555 1_555
Mo1B O1B 1_555 1_555
Mo2B O1B 1_555 1_555
Mo3B O7 1_555 1_555
Mo4B O5 1_555 1_555
Cu1C O12 1_555 1_555
Cu1_2 N8 1_555 1_555
Cu1A O6A 1_555 1_555
Cu1B O6B 1_555 1_555
Cu1A_2 N6A_2 1_555 1_555
Cu2A N4 1_555 1_555
O2B Mo3B 1_555 1_555
O3B Mo1B 1_555 1_555
O4B Mo1B 1_555 1_555
O5B Mo4 1_555 1_555
O6B Mo1B 1_555 1_555
O7B Mo3 1_555 1_555
O8B Mo3 1_555 1_555
O9B Mo1B 1_555 1_555
O10B Mo4B 1_555 1_555
O11B Mo2B 1_555 1_555
O12C Cu1 1_555 1_555
O12B Mo2B 1_555 1_555
O13B Mo4B 1_555 1_555
N4A Cu2 1_555 1_555
N5A C25A 1_555 1_555
N6A Cu1A 1_555 1_555
N6A_2 C22A 1_555 1_555
N7A C21A 1_555 1_555
N8_2 Cu1 1_555 1_555
N8A Cu1A 1_555 1_555
C15A C17A 1_555 1_555
C16A C18A 1_555 1_555
C17A H15A 1_555 1_555
C18A C17A 1_555 1_555
H16A C18A 1_555 1_555
C19A C16A 1_555 1_555
H17A C19A 1_555 1_555
C20A C15A 1_555 1_555
H18A C20A 1_555 1_555
C21A N8A 1_555 1_555
H19A C21A 1_555 1_555
C22A H20A 1_555 1_555
C23A N7A 1_555 1_555
H21A C23A 1_555 1_555
H22A C23A 1_555 1_555
C24A N8A 1_555 1_555
H23A C24A 1_555 1_555
C25A C22A 1_555 1_555
H24A C25A 1_555 1_555
C26A N5A 1_555 1_555
H25A C26A 1_555 1_555
H26A C26A 1_555 1_555
C27A N7A 1_555 1_555
H27A C27A 1_555 1_555
C28A N5A 1_555 1_555
H28A C28A 1_555 1_555
Mo2 O4 1_555 1_555
Mo3 O4 1_555 1_555
O8 Mo3B 1_555 1_555
C2 C11 1_555 1_555
C4 C9 1_555 1_555
C5 C8 1_555 1_555
C10 C12 1_555 1_555
C13 C14 1_555 1_555
N6 C28 1_555 1_555
C15 C23 1_555 1_555
C16 C26 1_555 1_555
C19 C20 1_555 1_555
C24 C27 1_555 1_555
Mo1B O7B 1_555 1_555
Mo2B O4B 1_555 1_555
Mo2B O5B 1_555 1_555
Mo2B O8B 1_555 1_555
Mo3B O4B 1_555 1_555
Mo4B O3B 1_555 1_555
Cu1A O12B 1_555 1_555
N6A_2 C28A 1_555 1_555
C15A C23A 1_555 1_555
C16A C26A 1_555 1_555
C19A C20A 1_555 1_555
C24A C27A 1_555 1_555

#END
