
#######################################################################
#
#                 Cambridge Crystallographic Data Centre
#                                CCDC 
#
#######################################################################
#
# If this CIF has been generated from an entry in the Cambridge 
# Structural Database, then it will include bibliographic, chemical, 
# crystal, experimental, refinement or atomic coordinate data resulting 
# from the CCDC's data processing and validation procedures.
#
#######################################################################

data_DUCHIS01
_symmetry_cell_setting           orthorhombic
_symmetry_space_group_name_H-M   'P c a b'
_symmetry_Int_Tables_number      61
_space_group_name_Hall           '-P 2bc 2ac'
loop_
_symmetry_equiv_pos_site_id
_symmetry_equiv_pos_as_xyz
1 x,y,z
2 1/2-x,y,1/2+z
3 1/2+x,1/2-y,z
4 -x,1/2-y,1/2+z
5 -x,-y,-z
6 1/2+x,-y,1/2-z
7 1/2-x,1/2+y,-z
8 x,1/2+y,1/2-z
_cell_length_a                   15.365(3)
_cell_length_b                   13.283(3)
_cell_length_c                   7.056(1)
_cell_angle_alpha                90
_cell_angle_beta                 90
_cell_angle_gamma                90
_cell_volume                     1440.08
loop_
_atom_site_label
_atom_site_type_symbol
_atom_site_fract_x
_atom_site_fract_y
_atom_site_fract_z
Cu1 Cu 0.08554(5) 0.20332(6) 0.1887(1)
Cu2 Cu -0.04987(4) -0.05097(5) 0.2147(1)
Cl1 Cl 0.07832(8) 0.03084(9) 0.2293(2)
Cl2 Cl 0.02502(9) 0.21495(10) -0.1403(2)
N1 N 0.1964(3) 0.2712(3) 0.1821(7)
C1 C 0.2573(4) 0.3179(4) 0.1592(8)
C2 C 0.3356(4) 0.3803(4) 0.1246(9)
C3 C 0.3522(3) 0.4518(4) 0.2890(8)
C4 C 0.3220(3) 0.5494(4) 0.2913(9)
H1 H 0.331(4) 0.411(5) 0.003(10)
H2 H 0.386(4) 0.344(5) 0.101(9)
H3 H 0.367(4) 0.428(5) 0.414(9)
H4 H 0.288(4) 0.579(5) 0.174(9)
H5 H 0.320(4) 0.578(5) 0.404(10)
Cl2C Cl -0.02502(9) 0.28505(10) 0.3597(2)
Cl1D Cl -0.07832(8) -0.03084(9) -0.2293(2)
Cl2D Cl -0.02502(9) -0.21495(10) 0.1403(2)
C3B C -0.1478(3) 0.0482(4) 0.2890(8)
C4B C -0.1780(3) -0.0494(4) 0.2913(9)
Cu2D Cu 0.04987(4) 0.05097(5) -0.2147(1)
Cu1C Cu -0.08554(5) 0.29668(6) -0.3113(1)
Cu2B Cu 0.45013(4) 0.55097(5) 0.2147(1)
H3B H -0.133(4) 0.072(5) 0.414(9)
H4B H -0.212(4) -0.079(5) 0.174(9)
H5B H -0.180(4) -0.078(5) 0.404(10)
Cu1D Cu -0.08554(5) -0.20332(6) -0.1887(1)
Cu1G Cu 0.08554(5) -0.29668(6) 0.3113(1)
C3F C 0.1478(3) -0.0482(4) -0.2890(8)
C4F C 0.1780(3) 0.0494(4) -0.2913(9)
H4F H 0.212(4) 0.079(5) -0.174(9)
H5F H 0.180(4) 0.078(5) -0.404(10)
C2F C 0.1644(4) -0.1197(4) -0.1246(9)
H3F H 0.133(4) -0.072(5) -0.414(9)
C1F C 0.2427(4) -0.1821(4) -0.1592(8)
H1F H 0.169(4) -0.089(5) -0.003(10)
H2F H 0.114(4) -0.156(5) -0.101(9)
N1F N 0.3036(3) -0.2288(3) -0.1821(7)
Cu1F Cu 0.41446(5) -0.29668(6) -0.1887(1)
Cl2G Cl 0.02502(9) -0.28505(10) -0.3597(2)
N1D N -0.1964(3) -0.2712(3) -0.1821(7)
loop_
_geom_bond_atom_site_label_1
_geom_bond_atom_site_label_2
_geom_bond_site_symmetry_1
_geom_bond_site_symmetry_2
Cu1 Cl1 1_555 1_555
Cu2 Cl1 1_555 1_555
Cl1 Cu2D 1_555 1_555
Cl2 Cu1 1_555 1_555
N1 Cu1 1_555 1_555
C1 N1 1_555 1_555
C2 C1 1_555 1_555
C3 C2 1_555 1_555
C4 C3 1_555 1_555
H1 C2 1_555 1_555
H2 C2 1_555 1_555
H3 C3 1_555 1_555
H4 C4 1_555 1_555
H5 C4 1_555 1_555
Cl2C Cu1 1_555 1_555
Cl1D Cu2 1_555 1_555
Cl2D Cu2 1_555 1_555
C3B Cu2 1_555 1_555
C4B Cu2 1_555 1_555
Cu2D Cl2 1_555 1_555
Cu1C Cl2 1_555 1_555
Cu2B C3 1_555 1_555
H3B C3B 1_555 1_555
H4B C4B 1_555 1_555
H5B C4B 1_555 1_555
Cu1D Cl1D 1_555 1_555
Cu1G Cl2D 1_555 1_555
C3F Cu2D 1_555 1_555
C4F Cu2D 1_555 1_555
H4F C4F 1_555 1_555
H5F C4F 1_555 1_555
C2F C3F 1_555 1_555
H3F C3F 1_555 1_555
C1F C2F 1_555 1_555
H1F C2F 1_555 1_555
H2F C2F 1_555 1_555
N1F C1F 1_555 1_555
Cu1F N1F 1_555 1_555
Cl2G Cu1D 1_555 1_555
N1D Cu1D 1_555 1_555
C4 Cu2B 1_555 1_555
Cl1D Cu2D 1_555 1_555
Cl2D Cu1D 1_555 1_555
C3B C4B 1_555 1_555
C3F C4F 1_555 1_555

#END
