
#######################################################################
#
#                 Cambridge Crystallographic Data Centre
#                                CCDC 
#
#######################################################################
#
# If this CIF has been generated from an entry in the Cambridge 
# Structural Database, then it will include bibliographic, chemical, 
# crystal, experimental, refinement or atomic coordinate data resulting 
# from the CCDC's data processing and validation procedures.
#
#######################################################################

data_DUCPUO
_symmetry_cell_setting           monoclinic
_symmetry_space_group_name_H-M   'P 21/c'
_symmetry_Int_Tables_number      14
_space_group_name_Hall           '-P 2ybc'
loop_
_symmetry_equiv_pos_site_id
_symmetry_equiv_pos_as_xyz
1 x,y,z
2 -x,1/2+y,1/2-z
3 -x,-y,-z
4 x,1/2-y,1/2+z
_cell_length_a                   11.1146(3)
_cell_length_b                   22.7107(8)
_cell_length_c                   13.2046(4)
_cell_angle_alpha                90
_cell_angle_beta                 111.785(2)
_cell_angle_gamma                90
_cell_volume                     3095.07
loop_
_atom_site_label
_atom_site_type_symbol
_atom_site_fract_x
_atom_site_fract_y
_atom_site_fract_z
Ag1 Ag 0.66614(3) 0.116999(15) 0.90513(3)
Ag2 Ag 0.88891(3) 0.042561(14) 1.04743(3)
O1 O 0.9705(3) 0.13297(14) 1.1068(3)
O2 O 0.7739(3) 0.17609(14) 1.0506(2)
C1 C 0.8907(4) 0.17241(19) 1.1041(3)
C2 C 0.9517(4) 0.2237(2) 1.1856(3)
F1 F 1.0445(3) 0.25025(14) 1.1596(2)
F2 F 0.8624(3) 0.26464(15) 1.1808(3)
C3 C 1.0148(5) 0.2030(2) 1.3050(4)
F3 F 0.9366(4) 0.16496(18) 1.3254(3)
F4 F 1.1255(3) 0.17528(16) 1.3181(2)
C4 C 1.0483(5) 0.2520(3) 1.3911(4)
F5 F 1.1135(3) 0.29454(15) 1.3676(2)
F6 F 0.9453(3) 0.2730(2) 1.4016(3)
F7 F 1.1243(4) 0.23001(18) 1.4866(3)
O3 O 0.9204(3) 0.02159(14) 0.8838(2)
O4 O 0.7465(3) 0.07380(15) 0.7830(2)
C5 C 0.8356(4) 0.03843(19) 0.7971(3)
C6 C 0.8338(5) 0.0089(2) 0.6899(4)
F8 F 0.9267(3) -0.03270(14) 0.7111(2)
F9 F 0.7176(3) -0.01910(18) 0.6432(3)
C7 C 0.8465(5) 0.0484(3) 0.6010(4)
F10 F 0.8369(4) 0.01506(17) 0.5127(2)
F11 F 0.7516(4) 0.08904(19) 0.5703(3)
C8 C 0.9729(7) 0.0816(3) 0.6332(5)
F12 F 0.9707(5) 0.11881(19) 0.5539(4)
F13 F 0.9938(4) 0.11178(16) 0.7241(3)
F14 F 1.0738(4) 0.04542(19) 0.6485(4)
N1 N 0.7412(3) -0.01523(16) 1.0797(3)
C9 C 0.7189(4) -0.1414(2) 0.9045(3)
H1 H 0.7646 -0.1584 0.8635
C10 C 0.6808(4) 0.00515(18) 1.1442(3)
C11 C 0.6683(4) 0.0776(2) 1.2734(4)
H2 H 0.7008 0.1119 1.3161
C12 C 0.7626(4) -0.0912(2) 0.9600(3)
H3 H 0.8374 -0.0724 0.9564
C13 C 0.6972(4) -0.06603(18) 1.0240(3)
C14 C 0.7285(4) 0.0565(2) 1.2082(4)
H4 H 0.8027 0.0761 1.2054
N2 N 0.5201(3) -0.07248(15) 1.0891(3)
C15 C 0.5390(4) -0.1466(2) 0.9662(3)
H5 H 0.4632 -0.1657 0.9666
C16 C 0.5687(4) -0.02373(18) 1.1489(3)
C17 C 0.5084(4) -0.0001(2) 1.2181(3)
H6 H 0.4338 -0.0187 1.2222
C18 C 0.5833(3) -0.09443(18) 1.0281(3)
C19 C 0.6047(4) -0.16938(19) 0.9062(3)
H7 H 0.5742 -0.2043 0.8651
C20 C 0.5574(4) 0.0489(2) 1.2782(4)
H8 H 0.5166 0.0641 1.3244
C21 C 0.5642(7) 0.2873(3) 0.9283(5)
H9 H 0.6585 0.2836 0.9639
H10 H 0.5239 0.2802 0.9818
H11 H 0.5423 0.3270 0.8981
C22 C 0.3694(8) 0.1162(3) 0.5768(5)
H12 H 0.3040 0.0912 0.5888
H13 H 0.4411 0.0917 0.5750
H14 H 0.3303 0.1371 0.5073
C23 C 0.3413(5) 0.1845(3) 0.7168(4)
H15 H 0.2527 0.1733 0.6925
C24 C 0.5950(4) 0.2180(2) 0.7895(4)
H16 H 0.6837 0.2292 0.8153
C25 C 0.5496(5) 0.1783(2) 0.7064(4)
H17 H 0.6067 0.1627 0.6746
C26 C 0.4194(5) 0.1599(2) 0.6673(4)
C27 C 0.3878(5) 0.2245(2) 0.7992(4)
H18 H 0.3310 0.2402 0.8312
C28 C 0.5146(5) 0.2425(2) 0.8371(4)
Ag1B Ag 0.33386(3) -0.116999(15) 1.09487(3)
Ag2B Ag 1.11109(3) -0.042561(14) 0.95257(3)
O3B O 1.0796(3) -0.02159(14) 1.1162(2)
N2B N 0.4799(3) 0.07248(15) 0.9109(3)
loop_
_geom_bond_atom_site_label_1
_geom_bond_atom_site_label_2
_geom_bond_site_symmetry_1
_geom_bond_site_symmetry_2
Ag1 O2 1_555 1_555
Ag2 O1 1_555 1_555
O1 C1 1_555 1_555
O2 C1 1_555 1_555
C1 C2 1_555 1_555
C2 F1 1_555 1_555
F2 C2 1_555 1_555
C3 C2 1_555 1_555
F3 C3 1_555 1_555
F4 C3 1_555 1_555
C4 C3 1_555 1_555
F5 C4 1_555 1_555
F6 C4 1_555 1_555
F7 C4 1_555 1_555
O3 Ag2 1_555 1_555
O4 Ag1 1_555 1_555
C5 O3 1_555 1_555
C6 C5 1_555 1_555
F8 C6 1_555 1_555
F9 C6 1_555 1_555
C7 C6 1_555 1_555
F10 C7 1_555 1_555
F11 C7 1_555 1_555
C8 C7 1_555 1_555
F12 C8 1_555 1_555
F13 C8 1_555 1_555
F14 C8 1_555 1_555
N1 Ag2 1_555 1_555
C9 H1 1_555 1_555
C10 N1 1_555 1_555
C11 H2 1_555 1_555
C12 C9 1_555 1_555
H3 C12 1_555 1_555
C13 N1 1_555 1_555
C14 C10 1_555 1_555
H4 C14 1_555 1_555
N2 C16 1_555 1_555
C15 H5 1_555 1_555
C16 C10 1_555 1_555
C17 C16 1_555 1_555
H6 C17 1_555 1_555
C18 C13 1_555 1_555
C19 C9 1_555 1_555
H7 C19 1_555 1_555
C20 C11 1_555 1_555
H8 C20 1_555 1_555
C21 H9 1_555 1_555
H10 C21 1_555 1_555
H11 C21 1_555 1_555
C22 H12 1_555 1_555
H13 C22 1_555 1_555
H14 C22 1_555 1_555
C23 H15 1_555 1_555
C24 Ag1 1_555 1_555
H16 C24 1_555 1_555
C25 C24 1_555 1_555
H17 C25 1_555 1_555
C26 C22 1_555 1_555
C27 C23 1_555 1_555
H18 C27 1_555 1_555
C28 C21 1_555 1_555
Ag1B N2 1_555 1_555
Ag2B O3 1_555 1_555
O3B Ag2 1_555 1_555
N2B Ag1 1_555 1_555
O4 C5 1_555 1_555
C11 C14 1_555 1_555
C12 C13 1_555 1_555
N2 C18 1_555 1_555
C15 C18 1_555 1_555
C15 C19 1_555 1_555
C17 C20 1_555 1_555
C23 C26 1_555 1_555
C24 C28 1_555 1_555
C25 C26 1_555 1_555
C27 C28 1_555 1_555
Ag2B O3B 1_555 1_555

#END
