
#######################################################################
#
#                 Cambridge Crystallographic Data Centre
#                                CCDC 
#
#######################################################################
#
# If this CIF has been generated from an entry in the Cambridge 
# Structural Database, then it will include bibliographic, chemical, 
# crystal, experimental, refinement or atomic coordinate data resulting 
# from the CCDC's data processing and validation procedures.
#
#######################################################################

data_DUDNEW
_symmetry_cell_setting           monoclinic
_symmetry_space_group_name_H-M   'P 21/c'
_symmetry_Int_Tables_number      14
_space_group_name_Hall           '-P 2ybc'
loop_
_symmetry_equiv_pos_site_id
_symmetry_equiv_pos_as_xyz
1 x,y,z
2 -x,1/2+y,1/2-z
3 -x,-y,-z
4 x,1/2-y,1/2+z
_cell_length_a                   5.97980(10)
_cell_length_b                   21.4183(3)
_cell_length_c                   13.1539(2)
_cell_angle_alpha                90
_cell_angle_beta                 100.2810(10)
_cell_angle_gamma                90
_cell_volume                     1657.66
loop_
_atom_site_label
_atom_site_type_symbol
_atom_site_fract_x
_atom_site_fract_y
_atom_site_fract_z
Co1 Co 0.0000 -0.5000 -0.5000
N1 N 0.0089(4) -0.32846(9) -0.16921(16)
N2 N 0.2795(3) -0.25301(9) -0.18652(16)
N3 N 0.5400(3) -0.17464(9) -0.19608(16)
N4 N -0.7449(3) -0.94059(9) -0.89484(16)
O1 O -0.3579(4) -0.48436(10) -0.25421(17)
O2 O -0.2131(3) -0.50174(6) -0.39430(13)
O3 O 0.1518(3) -0.42279(7) -0.42188(12)
C1 C 0.1046(4) -0.39700(10) -0.34248(17)
C2 C -0.0693(4) -0.41600(10) -0.28584(18)
C3 C -0.2234(4) -0.47152(10) -0.31304(18)
C4 C -0.1032(4) -0.38113(11) -0.20287(19)
H1 H -0.2134 -0.3950 -0.1665
C5 C -0.0419(5) -0.29644(14) -0.0759(2)
H2 H -0.0184 -0.2519 -0.0822
H3 H -0.2002 -0.3031 -0.0712
C6 C 0.1032(8) -0.3195(2) 0.0192(3)
H4 H 0.0712 -0.3629 0.0287
H5 H 0.0728 -0.2960 0.0774
H6 H 0.2601 -0.3148 0.0135
C7 C 0.1791(4) -0.30707(10) -0.21955(18)
C8 C 0.2300(4) -0.34156(10) -0.30229(18)
C9 C 0.4123(4) -0.31946(11) -0.3456(2)
H7 H 0.4605 -0.3416 -0.3985
C10 C 0.5177(4) -0.26609(11) -0.3105(2)
C11 C 0.4451(4) -0.22989(10) -0.23153(18)
C12 C 0.6384(5) -0.12930(12) -0.2594(2)
H8 H 0.5203 -0.1017 -0.2940
H9 H 0.7037 -0.1511 -0.3118
C13 C -0.8218(5) -0.90873(12) -0.8089(2)
H10 H -0.9465 -0.8812 -0.8366
H11 H -0.8798 -0.9397 -0.7664
C14 C -0.6322(5) -0.89543(12) -0.95173(19)
H12 H -0.5661 -0.9175 -1.0035
H13 H -0.7457 -0.8669 -0.9876
C15 C 0.4482(5) -0.14217(13) -0.1146(2)
H14 H 0.3867 -0.1724 -0.0721
H15 H 0.3259 -0.1147 -0.1454
F1 F 0.7024(3) -0.24789(8) -0.34991(16)
H16 H -0.657(5) -0.9657(14) -0.873(2)
Co1A Co -1.0000 -1.0000 -1.0000
Co1A_2 Co 1.0000 0.0000 0.0000
N1B N -0.0089(4) -0.67154(9) -0.83079(16)
N2B N -0.2795(3) -0.74699(9) -0.81348(16)
N3B N -0.5400(3) -0.82536(9) -0.80392(16)
N4C N 0.2551(3) -0.55941(9) -0.39484(16)
N4A N -0.2551(3) -0.44059(9) -0.60516(16)
N4B N 0.7449(3) -0.05941(9) -0.10516(16)
O1B O 0.3579(4) -0.51564(10) -0.74579(17)
O2B O 0.2131(3) -0.49826(6) -0.60570(13)
O3B O -0.1518(3) -0.57721(7) -0.57812(12)
C1B C -0.1046(4) -0.60300(10) -0.65752(17)
C2B C 0.0693(4) -0.58400(10) -0.71416(18)
C3B C 0.2234(4) -0.52848(10) -0.68696(18)
C4B C 0.1032(4) -0.61887(11) -0.79713(19)
H1B H 0.2134 -0.6050 -0.8335
C5B C 0.0419(5) -0.70356(14) -0.9241(2)
H2B H 0.0184 -0.7481 -0.9178
H3B H 0.2002 -0.6969 -0.9288
C6B C -0.1032(8) -0.6805(2) -1.0192(3)
H4B H -0.0712 -0.6371 -1.0287
H5B H -0.0728 -0.7040 -1.0774
H6B H -0.2601 -0.6852 -1.0135
C7B C -0.1791(4) -0.69293(10) -0.78045(18)
C8B C -0.2300(4) -0.65844(10) -0.69771(18)
C9B C -0.4123(4) -0.68054(11) -0.6544(2)
H7B H -0.4605 -0.6584 -0.6015
C10B C -0.5177(4) -0.73391(11) -0.6895(2)
C11B C -0.4451(4) -0.77011(10) -0.76847(18)
C12B C -0.6384(5) -0.87070(12) -0.7406(2)
H8B H -0.5203 -0.8983 -0.7060
H9B H -0.7037 -0.8489 -0.6882
C13B C 0.8218(5) -0.09127(12) -0.1911(2)
H10B H 0.9465 -0.1188 -0.1634
H11B H 0.8798 -0.0603 -0.2336
C14B C 0.6322(5) -0.10457(12) -0.04827(19)
H12B H 0.5661 -0.0825 0.0035
H13B H 0.7457 -0.1331 -0.0124
C15B C -0.4482(5) -0.85783(13) -0.8854(2)
H14B H -0.3867 -0.8276 -0.9279
H15B H -0.3259 -0.8853 -0.8546
F1B F -0.7024(3) -0.75211(8) -0.65009(16)
H16C H 0.343(5) -0.5343(14) -0.373(2)
H16A H -0.343(5) -0.4657(14) -0.627(2)
H16B H 0.657(5) -0.0343(14) -0.127(2)
O4 O 0.457(2) -0.4460(6) -0.0810(7)
O5 O 0.820(3) -0.5079(5) -0.0416(6)
loop_
_geom_bond_atom_site_label_1
_geom_bond_atom_site_label_2
_geom_bond_site_symmetry_1
_geom_bond_site_symmetry_2
Co1 O2 1_555 1_555
N1 C4 1_555 1_555
N2 C7 1_555 1_555
N3 C11 1_555 1_555
N4 C13 1_555 1_555
O1 C3 1_555 1_555
O2 C3 1_555 1_555
O3 Co1 1_555 1_555
C1 O3 1_555 1_555
C2 C1 1_555 1_555
C3 C2 1_555 1_555
C4 C2 1_555 1_555
H1 C4 1_555 1_555
C5 N1 1_555 1_555
H2 C5 1_555 1_555
H3 C5 1_555 1_555
C6 C5 1_555 1_555
H4 C6 1_555 1_555
H5 C6 1_555 1_555
H6 C6 1_555 1_555
C7 N1 1_555 1_555
C8 C1 1_555 1_555
C9 C8 1_555 1_555
H7 C9 1_555 1_555
C10 C9 1_555 1_555
C11 N2 1_555 1_555
C12 N3 1_555 1_555
H8 C12 1_555 1_555
H9 C12 1_555 1_555
C13 H10 1_555 1_555
H11 C13 1_555 1_555
C14 N4 1_555 1_555
H12 C14 1_555 1_555
H13 C14 1_555 1_555
C15 N3 1_555 1_555
H14 C15 1_555 1_555
H15 C15 1_555 1_555
F1 C10 1_555 1_555
H16 N4 1_555 1_555
Co1A N4 1_555 1_555
Co1A_2 N4B 1_555 1_555
N1B C4B 1_555 1_555
N2B C7B 1_555 1_555
N3B C11B 1_555 1_555
N4C Co1 1_555 1_555
N4A Co1 1_555 1_555
N4B C13B 1_555 1_555
O1B C3B 1_555 1_555
O2B Co1 1_555 1_555
O3B Co1 1_555 1_555
C1B O3B 1_555 1_555
C2B C1B 1_555 1_555
C3B O2B 1_555 1_555
C4B C2B 1_555 1_555
H1B C4B 1_555 1_555
C5B N1B 1_555 1_555
H2B C5B 1_555 1_555
H3B C5B 1_555 1_555
C6B C5B 1_555 1_555
H4B C6B 1_555 1_555
H5B C6B 1_555 1_555
H6B C6B 1_555 1_555
C7B N1B 1_555 1_555
C8B C1B 1_555 1_555
C9B C8B 1_555 1_555
H7B C9B 1_555 1_555
C10B C9B 1_555 1_555
C11B N2B 1_555 1_555
C12B C13 1_555 1_555
H8B C12B 1_555 1_555
H9B C12B 1_555 1_555
C13B C12 1_555 1_555
H10B C13B 1_555 1_555
H11B C13B 1_555 1_555
C14B C15 1_555 1_555
H12B C14B 1_555 1_555
H13B C14B 1_555 1_555
C15B C14 1_555 1_555
H14B C15B 1_555 1_555
H15B C15B 1_555 1_555
F1B C10B 1_555 1_555
H16C N4C 1_555 1_555
H16A N4A 1_555 1_555
H16B N4B 1_555 1_555
C7 C8 1_555 1_555
C10 C11 1_555 1_555
N3B C12B 1_555 1_555
N3B C15B 1_555 1_555
N4B C14B 1_555 1_555
C2B C3B 1_555 1_555
C7B C8B 1_555 1_555
C10B C11B 1_555 1_555

#END
