
#######################################################################
#
#                 Cambridge Crystallographic Data Centre
#                                CCDC 
#
#######################################################################
#
# If this CIF has been generated from an entry in the Cambridge 
# Structural Database, then it will include bibliographic, chemical, 
# crystal, experimental, refinement or atomic coordinate data resulting 
# from the CCDC's data processing and validation procedures.
#
#######################################################################

data_DUDWUW
_symmetry_cell_setting           monoclinic
_symmetry_space_group_name_H-M   'P 21/c'
_symmetry_Int_Tables_number      14
_space_group_name_Hall           '-P 2ybc'
loop_
_symmetry_equiv_pos_site_id
_symmetry_equiv_pos_as_xyz
1 x,y,z
2 -x,1/2+y,1/2-z
3 -x,-y,-z
4 x,1/2-y,1/2+z
_cell_length_a                   18.1981
_cell_length_b                   14.9510
_cell_length_c                   10.1086
_cell_angle_alpha                90
_cell_angle_beta                 93.1270
_cell_angle_gamma                90
_cell_volume                     2746.25
loop_
_atom_site_label
_atom_site_type_symbol
_atom_site_fract_x
_atom_site_fract_y
_atom_site_fract_z
S1 S 0.21898(15) 0.1269(3) 0.7522(3)
S2 S 0.28199(14) 0.1797(2) 0.4382(3)
S3 S 0.07349(15) 0.1277(3) 0.6134(3)
S4 S 0.12451(14) 0.1693(3) 0.3531(3)
S5 S -0.09394(15) 0.1273(3) 0.4950(3)
S6 S -0.04448(15) 0.1671(3) 0.2323(3)
S7 S -0.25254(15) 0.1237(3) 0.4143(3)
S8 S -0.19071(15) 0.1742(2) 0.0990(3)
C4 C 0.3107(6) 0.1558(13) 0.7047(12)
C5 C 0.3315(6) 0.1306(11) 0.5787(12)
C6 C 0.1689(5) 0.1413(8) 0.6028(10)
C7 C 0.1916(5) 0.1603(8) 0.4805(10)
C8 C 0.0507(5) 0.1479(8) 0.4484(10)
C9 C -0.0215(5) 0.1475(8) 0.3961(10)
C10 C -0.1624(5) 0.1384(8) 0.3686(10)
C11 C -0.1393(5) 0.1582(8) 0.2459(10)
C12 C -0.2987(7) 0.1173(16) 0.2574(14)
C13 C -0.2815(6) 0.1669(13) 0.1498(14)
H1 H 0.31594 0.22022 0.7118
H2 H 0.34571 0.12954 0.76935
H3 H 0.32676 0.06614 0.57152
H4 H 0.38321 0.14484 0.57275
H5 H -0.29606 0.05515 0.23037
H6 H -0.35014 0.12927 0.27121
H7 H -0.29781 0.22757 0.16568
H8 H -0.31155 0.14454 0.07479
S9 S 0.21786(17) -0.1093(2) 0.2439(3)
S10 S 0.25488(18) 0.0934(2) 0.0854(3)
S11 S 0.06740(16) -0.0828(2) 0.1367(3)
S12 S 0.09767(16) 0.0857(2) -0.0023(3)
C14 C 0.2967(6) -0.0357(8) 0.2731(12)
C15 C 0.3191(6) 0.0100(8) 0.1552(12)
C16 C 0.1568(6) -0.0406(7) 0.1511(10)
C17 C 0.1714(6) 0.0359(8) 0.0875(10)
C18 C 0.0333(6) 0.0001(8) 0.0281(10)
H9 H 0.28489 0.00868 0.33861
H10 H 0.33788 -0.07064 0.30973
H11 H 0.32717 -0.03451 0.08773
H12 H 0.36593 0.0392 0.17631
S9B S -0.21786(17) 0.1093(2) -0.2439(3)
S10B S -0.25488(18) -0.0934(2) -0.0854(3)
S11B S -0.06740(16) 0.0828(2) -0.1367(3)
S12B S -0.09767(16) -0.0857(2) 0.0023(3)
C14B C -0.2967(6) 0.0357(8) -0.2731(12)
C15B C -0.3191(6) -0.0100(8) -0.1552(12)
C16B C -0.1568(6) 0.0406(7) -0.1511(10)
C17B C -0.1714(6) -0.0359(8) -0.0875(10)
C18B C -0.0333(6) -0.0001(8) -0.0281(10)
H9B H -0.28489 -0.00868 -0.33861
H10B H -0.33788 0.07064 -0.30973
H11B H -0.32717 0.03451 -0.08773
H12B H -0.36593 -0.0392 -0.17631
O7 O 0.5819(10) 0.0816(12) 0.4632(18)
C19 C 0.5055(15) -0.012(2) 0.586(3)
C20 C 0.5229(15) 0.019(2) 0.450(2)
H13 H 0.61829 0.05705 0.49827
H14 H 0.49256 0.03795 0.63885
H15 H 0.54787 -0.04169 0.62707
H16 H 0.46505 -0.05369 0.57925
H17 H 0.53696 -0.03133 0.39608
H18 H 0.47998 0.04718 0.40646
O7B O 0.4181(10) -0.0816(12) 0.5368(18)
C19B C 0.4945(15) 0.012(2) 0.414(3)
C20B C 0.4771(15) -0.019(2) 0.550(2)
H13B H 0.38171 -0.05705 0.50173
H14B H 0.50744 -0.03795 0.36115
H15B H 0.45213 0.04169 0.37293
H16B H 0.53495 0.05369 0.42075
H17B H 0.46304 0.03133 0.60392
H18B H 0.52002 -0.04718 0.59354
O1 O 0.5540(4) -0.2693(5) 0.1150(8)
O2 O 0.4293(4) -0.1841(5) 0.1606(7)
O3 O 0.5612(4) -0.3173(5) 0.3268(8)
O4 O 0.4385(4) -0.2307(5) 0.3728(8)
O5 O 0.5596(4) -0.0764(5) 0.0788(7)
O6 O 0.5612(3) 0.0732(5) 0.0822(6)
C1 C 0.5318(6) -0.2752(7) 0.2294(10)
C2 C 0.4596(6) -0.2255(7) 0.2591(11)
C3 C 0.5345(5) -0.0004(7) 0.0474(9)
Li1 Li 0.49686(16) -0.1789(2) -0.0057(3)
O5B O 0.4404(4) 0.0764(5) -0.0788(7)
O6B O 0.4388(3) -0.0732(5) -0.0822(6)
C3B C 0.4655(5) 0.0004(7) -0.0474(9)
O1B O 0.4460(4) 0.2693(5) -0.1150(8)
O2B O 0.5707(4) 0.1841(5) -0.1606(7)
O3B O 0.4388(4) 0.3173(5) -0.3268(8)
O4B O 0.5615(4) 0.2307(5) -0.3728(8)
C1B C 0.4682(6) 0.2752(7) -0.2294(10)
C2B C 0.5404(6) 0.2255(7) -0.2591(11)
Li1B Li 0.50314(16) 0.1789(2) 0.0057(3)
O3A O 0.4388(4) 0.1827(5) 0.1732(8)
O3C O 0.5612(4) -0.1827(5) -0.1732(8)
O4A O 0.5615(4) 0.2693(5) 0.1272(8)
O4C O 0.4385(4) -0.2693(5) -0.1272(8)
Li1A Li 0.50314(16) 0.3211(2) -0.4943(3)
Li1C Li 0.49686(16) -0.3211(2) 0.4943(3)
Cr1? Cr 0.49686(16) -0.1789(2) -0.0057(3)
loop_
_geom_bond_atom_site_label_1
_geom_bond_atom_site_label_2
_geom_bond_site_symmetry_1
_geom_bond_site_symmetry_2
O1 C1 1_555 1_555
O2 C2 1_555 1_555
O3 C1 1_555 1_555
O4 C2 1_555 1_555
O5 C3 1_555 1_555
O6 C3 1_555 1_555
C1 C2 1_555 1_555
C3 C3B 1_555 1_555
Li1 O1 1_555 1_555
S1 C4 1_555 1_555
S2 C5 1_555 1_555
S3 C6 1_555 1_555
S4 C7 1_555 1_555
S5 C9 1_555 1_555
S6 C9 1_555 1_555
S7 C10 1_555 1_555
S8 C11 1_555 1_555
C4 C5 1_555 1_555
C5 H3 1_555 1_555
C6 S1 1_555 1_555
C7 S2 1_555 1_555
C8 S3 1_555 1_555
C9 C8 1_555 1_555
C10 S5 1_555 1_555
C11 S6 1_555 1_555
C12 S7 1_555 1_555
C13 S8 1_555 1_555
H1 C4 1_555 1_555
H2 C4 1_555 1_555
H4 C5 1_555 1_555
H5 C12 1_555 1_555
H6 C12 1_555 1_555
H7 C13 1_555 1_555
H8 C13 1_555 1_555
S9 C14 1_555 1_555
S10 C15 1_555 1_555
S11 C16 1_555 1_555
S12 C17 1_555 1_555
C14 C15 1_555 1_555
C15 H11 1_555 1_555
C16 S9 1_555 1_555
C17 S10 1_555 1_555
C18 S11 1_555 1_555
H9 C14 1_555 1_555
H10 C14 1_555 1_555
H12 C15 1_555 1_555
O7 C20 1_555 1_555
C19 C20 1_555 1_555
C20 H17 1_555 1_555
H13 O7 1_555 1_555
H14 C19 1_555 1_555
H15 C19 1_555 1_555
H16 C19 1_555 1_555
H18 C20 1_555 1_555
O5B C3B 1_555 1_555
O6B Li1 1_555 1_555
C3B O6B 1_555 1_555
O1B C1B 1_555 1_555
O2B C2B 1_555 1_555
O3B C1B 1_555 1_555
O4B C2B 1_555 1_555
C1B C2B 1_555 1_555
Li1B O6 1_555 1_555
O3A Li1B 1_555 1_555
O3C Li1 1_555 1_555
O4A Li1B 1_555 1_555
O4C Li1 1_555 1_555
Li1A O3B 1_555 1_555
Li1C O3 1_555 1_555
S9B C14B 1_555 1_555
S10B C15B 1_555 1_555
S11B C16B 1_555 1_555
S12B C17B 1_555 1_555
C14B C15B 1_555 1_555
C15B H11B 1_555 1_555
C16B S9B 1_555 1_555
C17B S10B 1_555 1_555
C18B C18 1_555 1_555
H9B C14B 1_555 1_555
H10B C14B 1_555 1_555
H12B C15B 1_555 1_555
O7B C20B 1_555 1_555
C19B C20B 1_555 1_555
C20B H17B 1_555 1_555
H13B O7B 1_555 1_555
H14B C19B 1_555 1_555
H15B C19B 1_555 1_555
H16B C19B 1_555 1_555
H18B C20B 1_555 1_555
O2 Li1 1_555 1_555
O4 Li1C 1_555 1_555
O5 Li1 1_555 1_555
S4 C8 1_555 1_555
C6 C7 1_555 1_555
C10 C11 1_555 1_555
C12 C13 1_555 1_555
S12 C18 1_555 1_555
C16 C17 1_555 1_555
O5B Li1B 1_555 1_555
O1B Li1B 1_555 1_555
O2B Li1B 1_555 1_555
O4B Li1A 1_555 1_555
S11B C18B 1_555 1_555
S12B C18B 1_555 1_555
C16B C17B 1_555 1_555

#END
