
#######################################################################
#
#                 Cambridge Crystallographic Data Centre
#                                CCDC 
#
#######################################################################
#
# If this CIF has been generated from an entry in the Cambridge 
# Structural Database, then it will include bibliographic, chemical, 
# crystal, experimental, refinement or atomic coordinate data resulting 
# from the CCDC's data processing and validation procedures.
#
#######################################################################

data_DUFGOB
_symmetry_cell_setting           monoclinic
_symmetry_space_group_name_H-M   'P 21'
_symmetry_Int_Tables_number      4
_space_group_name_Hall           'P 2yb'
loop_
_symmetry_equiv_pos_site_id
_symmetry_equiv_pos_as_xyz
1 x,y,z
2 -x,1/2+y,-z
_cell_length_a                   17.5189(6)
_cell_length_b                   11.7341(2)
_cell_length_c                   20.1579(7)
_cell_angle_alpha                90
_cell_angle_beta                 99.510(2)
_cell_angle_gamma                90
_cell_volume                     4086.88
loop_
_atom_site_label
_atom_site_type_symbol
_atom_site_fract_x
_atom_site_fract_y
_atom_site_fract_z
U1 U 0.47717(2) 0.55267(3) 0.75353(2)
U2 U 0.03324(2) 0.63369(3) 0.24619(2)
K1 K 0.40772(18) 0.6881(2) 0.54570(15)
K2 K 0.0598(2) 0.5496(3) 0.46544(15)
K3 K -0.0132(2) 0.7398(3) 0.02914(15)
S1 S 0.4929(2) 0.4238(3) 0.46933(16)
S2 S 0.2127(3) 0.7362(5) 0.5429(3)
S3 S 0.07965(18) 0.2741(3) 0.48832(15)
S4 S -0.0955(4) 1.0088(4) 0.0374(2)
S5 S -0.2185(3) 0.5490(6) -0.0162(3)
O1 O 0.4484(4) 0.5985(7) 0.6649(4)
O2 O 0.5047(5) 0.5072(7) 0.8403(4)
O3 O 0.0427(5) 0.6038(8) 0.3359(4)
O4 O 0.0249(5) 0.6670(7) 0.1559(4)
O5 O 0.4928(7) 0.5433(8) 0.4852(5)
O6 O 0.5268(6) 0.3545(8) 0.5249(4)
O7 O 0.5163(6) 0.3914(8) 0.4059(4)
O8 O 0.2729(6) 0.7299(12) 0.5996(5)
O9 O 0.213(2) 0.683(2) 0.4802(8)
O10 O 0.1472(8) 0.6782(14) 0.5672(10)
O11 O 0.0800(8) 0.3566(10) 0.5411(5)
O12 O 0.0460(7) 0.3131(11) 0.4240(5)
O13 O 0.0597(6) 0.1585(9) 0.5040(6)
O14 O -0.0560(11) 0.9601(16) -0.0153(7)
O15 O -0.0928(7) 0.9444(16) 0.0951(6)
O16 O -0.0563(10) 1.1149(15) 0.0522(10)
O17 O -0.1447(7) 0.6023(13) 0.0118(7)
O18 O -0.2535(6) 0.4845(10) 0.0329(5)
O19 O -0.2690(7) 0.6004(12) -0.0647(6)
N1 N 0.3989(5) 0.7238(9) 0.7912(5)
N2 N 0.5675(5) 0.7274(8) 0.7866(5)
N3 N 0.6110(5) 0.5097(7) 0.7167(4)
N4 N 0.4672(5) 0.3360(8) 0.7229(6)
N5 N 0.0337(5) 0.8506(10) 0.2740(5)
N6 N 0.1806(6) 0.6917(11) 0.2633(6)
N7 N 0.1186(5) 0.4586(9) 0.2306(5)
N8 N -0.0510(6) 0.4507(9) 0.2216(5)
N9 N -0.1119(6) 0.6821(10) 0.2397(7)
F1 F 0.3606(6) 0.4235(10) 0.5101(4)
F2 F 0.3514(6) 0.4445(9) 0.4037(4)
F3 F 0.3777(6) 0.2798(8) 0.4464(5)
F4 F 0.2262(15) 0.9352(15) 0.5142(11)
F5 F 0.1570(7) 0.9182(9) 0.5886(5)
F6 F 0.1147(12) 0.879(2) 0.4896(9)
F7 F 0.1890(9) 0.1823(14) 0.4324(7)
F8 F 0.2232(8) 0.2180(17) 0.5338(9)
F9 F 0.2062(6) 0.3590(15) 0.4596(8)
F10 F -0.1849(12) 1.1061(15) -0.0516(7)
F11 F -0.2262(11) 0.9624(18) -0.0179(10)
F12 F -0.2247(7) 1.1084(10) 0.0478(5)
F13 F -0.2343(8) 0.3748(14) -0.0839(8)
F14 F -0.1406(8) 0.4841(13) -0.1060(5)
F15 F -0.1214(6) 0.3793(10) -0.0160(5)
C1 C 0.3620(8) 0.7915(11) 0.7477(8)
H1 H 0.3655 0.7792 0.7027
C2 C 0.3162(8) 0.8839(12) 0.7634(8)
H2 H 0.2918 0.9327 0.7301
C3 C 0.3092(8) 0.8988(11) 0.8304(7)
H3 H 0.2776 0.9555 0.8433
C4 C 0.3507(8) 0.8266(12) 0.8772(8)
H4 H 0.3490 0.8354 0.9228
C5 C 0.3942(7) 0.7424(12) 0.8556(7)
H5 H 0.4223 0.6950 0.8877
C6 C 0.5763(7) 0.8092(11) 0.7421(6)
H6 H 0.5549 0.7990 0.6972
C7 C 0.6171(7) 0.9099(11) 0.7617(6)
H7 H 0.6244 0.9643 0.7298
C8 C 0.6462(8) 0.9273(11) 0.8286(6)
H8 H 0.6722 0.9942 0.8429
C9 C 0.6357(7) 0.8427(11) 0.8738(7)
H9 H 0.6552 0.8520 0.9193
C10 C 0.5965(6) 0.7451(10) 0.8520(6)
H10 H 0.5898 0.6893 0.8833
C11 C 0.6143(6) 0.5089(9) 0.6505(5)
H11 H 0.5683 0.5150 0.6202
C12 C 0.6829(8) 0.4995(11) 0.6254(6)
H12 H 0.6836 0.5010 0.5794
C13 C 0.7517(7) 0.4877(10) 0.6722(7)
H13 H 0.7995 0.4812 0.6581
C14 C 0.7458(6) 0.4860(11) 0.7394(7)
H14 H 0.7900 0.4779 0.7716
C15 C 0.6755(7) 0.4962(9) 0.7585(6)
H15 H 0.6732 0.4935 0.8043
C16 C 0.4764(7) 0.2558(12) 0.7728(9)
H16 H 0.4867 0.2814 0.8170
C17 C 0.4717(7) 0.1420(15) 0.7626(7)
H17 H 0.4797 0.0906 0.7982
C18 C 0.4539(7) 0.1050(12) 0.6949(9)
H18 H 0.4478 0.0278 0.6848
C19 C 0.4459(8) 0.1849(12) 0.6443(9)
H19 H 0.4353 0.1618 0.5995
C20 C 0.4535(8) 0.2994(12) 0.6598(8)
H20 H 0.4489 0.3523 0.6251
N11 N 0.3330(4) 0.4912(8) 0.7502(5)
C21 C 0.3044(6) 0.4712(10) 0.8095(5)
H21 H 0.3382 0.4670 0.8502
C22 C 0.2253(7) 0.4574(12) 0.8079(7)
H22 H 0.2062 0.4440 0.8476
C23 C 0.1749(4) 0.4636(12) 0.7471(9)
H23 H 0.1219 0.4544 0.7461
C24 C 0.2035(6) 0.4837(11) 0.6878(8)
H24 H 0.1697 0.4878 0.6471
C25 C 0.2825(6) 0.4974(9) 0.6894(5)
H25 H 0.3017 0.5108 0.6497
C26 C 0.0358(6) 0.9308(12) 0.2273(6)
H26 H 0.0385 0.9061 0.1839
C27 C 0.0343(6) 1.0460(19) 0.2375(6)
H27 H 0.0330 1.0973 0.2021
C28 C 0.0350(7) 1.0838(11) 0.3046(6)
H28 H 0.0373 1.1609 0.3155
C29 C 0.0321(8) 1.0008(12) 0.3530(7)
H29 H 0.0301 1.0226 0.3970
C30 C 0.0323(7) 0.8877(11) 0.3375(6)
H30 H 0.0313 0.8344 0.3715
C31 C 0.2144(9) 0.7037(12) 0.2100(8)
H31 H 0.1846 0.7035 0.1673
C32 C 0.2954(9) 0.7168(11) 0.2171(8)
H32 H 0.3194 0.7260 0.1796
C33 C 0.3363(8) 0.7158(13) 0.2785(9)
H33 H 0.3899 0.7219 0.2836
C34 C 0.3011(8) 0.7059(12) 0.3366(8)
H34 H 0.3296 0.7075 0.3798
C35 C 0.2208(8) 0.6935(13) 0.3248(8)
H35 H 0.1948 0.6864 0.3613
C36 C 0.1535(8) 0.3963(13) 0.2798(6)
H36 H 0.1519 0.4210 0.3233
C37 C 0.1933(10) 0.2951(13) 0.2723(7)
H37 H 0.2164 0.2535 0.3095
C38 C 0.1970(9) 0.2588(12) 0.2071(7)
H38 H 0.2226 0.1918 0.1994
C39 C 0.1607(7) 0.3270(10) 0.1529(6)
H39 H 0.1630 0.3070 0.1086
C40 C 0.1230(7) 0.4205(11) 0.1669(6)
H40 H 0.0979 0.4631 0.1309
C41 C -0.0692(7) 0.3847(12) 0.2721(7)
H41 H -0.0517 0.4085 0.3160
C42 C -0.1109(8) 0.2867(11) 0.2635(7)
H42 H -0.1214 0.2438 0.2998
C43 C -0.1367(9) 0.2548(12) 0.1980(8)
H43 H -0.1670 0.1897 0.1890
C44 C -0.1179(8) 0.3189(12) 0.1453(7)
H44 H -0.1337 0.2962 0.1009
C45 C -0.0765(7) 0.4142(11) 0.1596(6)
H45 H -0.0649 0.4575 0.1239
C46 C -0.1442(11) 0.6849(13) 0.2966(11)
H46 H -0.1069 0.6824 0.3352
C47 C -0.2132(11) 0.6896(17) 0.3091(10)
H47 H -0.2276 0.6951 0.3514
C48 C -0.2622(9) 0.6851(13) 0.2484(9)
H48 H -0.3150 0.6820 0.2494
C49 C -0.2390(9) 0.6847(18) 0.1849(13)
H49 H -0.2757 0.6846 0.1458
C50 C -0.1596(8) 0.6844(14) 0.1812(9)
H50 H -0.1416 0.6858 0.1403
C51 C 0.3884(12) 0.3900(13) 0.4557(7)
C52 C 0.1820(12) 0.8815(17) 0.5384(9)
C53 C 0.1795(7) 0.258(2) 0.4790(11)
C54 C -0.1818(14) 1.044(2) 0.0026(10)
C55 C -0.1760(7) 0.4458(13) -0.0540(7)
K1A K 0.59228(18) 0.1881(2) 0.45430(15)
K2A K -0.0598(2) 0.0496(3) 0.53456(15)
K3A K 0.0132(2) 1.2398(3) -0.02914(15)
O6A O 0.4732(6) 0.8545(8) 0.4751(4)
O7A O 0.4837(6) 0.8914(8) 0.5941(4)
O13A O -0.0597(6) 0.6585(9) 0.4960(6)
O16A O 0.0563(10) 0.6149(15) -0.0522(10)
N10 N 0.4685(10) 0.5951(13) 0.0320(7)
C56 C 0.5458(10) 0.6086(15) 0.0273(7)
H51 H 0.5763 0.5463 0.0203
C57 C 0.5758(9) 0.7140(16) 0.0332(7)
H52 H 0.6274 0.7250 0.0289
C58 C 0.5321(11) 0.8056(16) 0.0455(10)
H53 H 0.5532 0.8785 0.0499
C59 C 0.4559(11) 0.787(2) 0.0513(11)
H54 H 0.4247 0.8469 0.0610
C60 C 0.4286(8) 0.6854(13) 0.0430(5)
H55 H 0.3764 0.6753 0.0450
loop_
_geom_bond_atom_site_label_1
_geom_bond_atom_site_label_2
_geom_bond_site_symmetry_1
_geom_bond_site_symmetry_2
U1 O1 1_555 1_555
U2 O3 1_555 1_555
K1 O1 1_555 1_555
K2 O3 1_555 1_555
K3 O4 1_555 1_555
S1 O5 1_555 1_555
S2 O8 1_555 1_555
S3 O11 1_555 1_555
S4 O14 1_555 1_555
S5 O17 1_555 1_555
O2 U1 1_555 1_555
O4 U2 1_555 1_555
O5 K1 1_555 1_555
O6 S1 1_555 1_555
O7 S1 1_555 1_555
O8 K1 1_555 1_555
O9 K2 1_555 1_555
O10 K2 1_555 1_555
O11 K2 1_555 1_555
O12 K2 1_555 1_555
O13 S3 1_555 1_555
O14 K3 1_555 1_555
O15 K3 1_555 1_555
O16 S4 1_555 1_555
O17 K3 1_555 1_555
O18 S5 1_555 1_555
O19 S5 1_555 1_555
N1 U1 1_555 1_555
N2 U1 1_555 1_555
N3 U1 1_555 1_555
N4 U1 1_555 1_555
N5 U2 1_555 1_555
N6 U2 1_555 1_555
N7 U2 1_555 1_555
N8 U2 1_555 1_555
N9 U2 1_555 1_555
N10 C56 1_555 1_555
F1 C51 1_555 1_555
F2 C51 1_555 1_555
F3 C51 1_555 1_555
F4 C52 1_555 1_555
F5 C52 1_555 1_555
F6 C52 1_555 1_555
F7 C53 1_555 1_555
F8 C53 1_555 1_555
F9 C53 1_555 1_555
F10 C54 1_555 1_555
F11 C54 1_555 1_555
F12 C54 1_555 1_555
F13 C55 1_555 1_555
F14 C55 1_555 1_555
F15 C55 1_555 1_555
C1 N1 1_555 1_555
H1 C1 1_555 1_555
C2 C1 1_555 1_555
H2 C2 1_555 1_555
C3 C2 1_555 1_555
H3 C3 1_555 1_555
C4 C3 1_555 1_555
H4 C4 1_555 1_555
C5 N1 1_555 1_555
H5 C5 1_555 1_555
C6 N2 1_555 1_555
H6 C6 1_555 1_555
C7 C6 1_555 1_555
H7 C7 1_555 1_555
C8 C7 1_555 1_555
H8 C8 1_555 1_555
C9 C8 1_555 1_555
H9 C9 1_555 1_555
C10 N2 1_555 1_555
H10 C10 1_555 1_555
C11 N3 1_555 1_555
H11 C11 1_555 1_555
C12 C11 1_555 1_555
H12 C12 1_555 1_555
C13 C12 1_555 1_555
H13 C13 1_555 1_555
C14 C13 1_555 1_555
H14 C14 1_555 1_555
C15 N3 1_555 1_555
H15 C15 1_555 1_555
C16 N4 1_555 1_555
H16 C16 1_555 1_555
C17 C16 1_555 1_555
H17 C17 1_555 1_555
C18 C17 1_555 1_555
H18 C18 1_555 1_555
C19 C18 1_555 1_555
H19 C19 1_555 1_555
C20 N4 1_555 1_555
H20 C20 1_555 1_555
N11 U1 1_555 1_555
C21 N11 1_555 1_555
H21 C21 1_555 1_555
C22 C21 1_555 1_555
H22 C22 1_555 1_555
C23 C22 1_555 1_555
H23 C23 1_555 1_555
C24 C23 1_555 1_555
H24 C24 1_555 1_555
C25 N11 1_555 1_555
H25 C25 1_555 1_555
C26 N5 1_555 1_555
H26 C26 1_555 1_555
C27 C26 1_555 1_555
H27 C27 1_555 1_555
C28 C27 1_555 1_555
H28 C28 1_555 1_555
C29 C28 1_555 1_555
H29 C29 1_555 1_555
C30 N5 1_555 1_555
H30 C30 1_555 1_555
C31 N6 1_555 1_555
H31 C31 1_555 1_555
C32 C31 1_555 1_555
H32 C32 1_555 1_555
C33 C32 1_555 1_555
H33 C33 1_555 1_555
C34 C33 1_555 1_555
H34 C34 1_555 1_555
C35 N6 1_555 1_555
H35 C35 1_555 1_555
C36 N7 1_555 1_555
H36 C36 1_555 1_555
C37 C36 1_555 1_555
H37 C37 1_555 1_555
C38 C37 1_555 1_555
H38 C38 1_555 1_555
C39 C38 1_555 1_555
H39 C39 1_555 1_555
C40 N7 1_555 1_555
H40 C40 1_555 1_555
C41 N8 1_555 1_555
H41 C41 1_555 1_555
C42 C41 1_555 1_555
H42 C42 1_555 1_555
C43 C42 1_555 1_555
H43 C43 1_555 1_555
C44 C43 1_555 1_555
H44 C44 1_555 1_555
C45 N8 1_555 1_555
H45 C45 1_555 1_555
C46 N9 1_555 1_555
H46 C46 1_555 1_555
C47 C46 1_555 1_555
H47 C47 1_555 1_555
C48 C47 1_555 1_555
H48 C48 1_555 1_555
C49 C48 1_555 1_555
H49 C49 1_555 1_555
C50 N9 1_555 1_555
H50 C50 1_555 1_555
C51 S1 1_555 1_555
C52 S2 1_555 1_555
C53 S3 1_555 1_555
C54 S4 1_555 1_555
C55 S5 1_555 1_555
C56 H51 1_555 1_555
C57 C56 1_555 1_555
H52 C57 1_555 1_555
C58 C57 1_555 1_555
H53 C58 1_555 1_555
C59 C58 1_555 1_555
H54 C59 1_555 1_555
C60 N10 1_555 1_555
H55 C60 1_555 1_555
K1A O6 1_555 1_555
K2A O13 1_555 1_555
K3A O16 1_555 1_555
O6A K1 1_555 1_555
O7A K1 1_555 1_555
O13A K2 1_555 1_555
O16A K3 1_555 1_555
S2 O9 1_555 1_555
S2 O10 1_555 1_555
S3 O12 1_555 1_555
S4 O15 1_555 1_555
O7 K1A 1_555 1_555
C4 C5 1_555 1_555
C9 C10 1_555 1_555
C14 C15 1_555 1_555
C19 C20 1_555 1_555
C24 C25 1_555 1_555
C29 C30 1_555 1_555
C34 C35 1_555 1_555
C39 C40 1_555 1_555
C44 C45 1_555 1_555
C49 C50 1_555 1_555
C59 C60 1_555 1_555

#END
