
#######################################################################
#
#                 Cambridge Crystallographic Data Centre
#                                CCDC 
#
#######################################################################
#
# If this CIF has been generated from an entry in the Cambridge 
# Structural Database, then it will include bibliographic, chemical, 
# crystal, experimental, refinement or atomic coordinate data resulting 
# from the CCDC's data processing and validation procedures.
#
#######################################################################

data_DUFLOG
_symmetry_cell_setting           monoclinic
_symmetry_space_group_name_H-M   'P 21/c'
_symmetry_Int_Tables_number      14
_space_group_name_Hall           '-P 2ybc'
loop_
_symmetry_equiv_pos_site_id
_symmetry_equiv_pos_as_xyz
1 x,y,z
2 -x,1/2+y,1/2-z
3 -x,-y,-z
4 x,1/2-y,1/2+z
_cell_length_a                   14.7924(5)
_cell_length_b                   19.4629(6)
_cell_length_c                   22.0420(7)
_cell_angle_alpha                90
_cell_angle_beta                 99.995(1)
_cell_angle_gamma                90
_cell_volume                     6249.64
loop_
_atom_site_label
_atom_site_type_symbol
_atom_site_fract_x
_atom_site_fract_y
_atom_site_fract_z
Gd1 Gd 0.595363(15) 0.750058(10) 0.322477(9)
Fe1 Fe 0.50271(5) 1.02362(3) 0.31902(3)
Fe2 Fe 0.70226(4) 0.66581(3) 0.59789(3)
O1 O 0.4016(2) 1.00685(16) 0.25285(15)
C1 C 0.3457(3) 0.9520(2) 0.2422(2)
C2 C 0.3661(3) 0.8888(2) 0.2729(2)
C3 C 0.3064(4) 0.8329(3) 0.2552(3)
H1 H 0.3207 0.7894 0.2739
C4 C 0.2287(4) 0.8395(3) 0.2119(3)
H2 H 0.1894 0.8012 0.2014
C5 C 0.2073(4) 0.9030(3) 0.1829(3)
C6 C 0.2668(4) 0.9572(3) 0.1976(2)
H3 H 0.2536 0.9997 0.1766
C7 C 0.4457(3) 0.8775(2) 0.3214(2)
O2 O 0.4913(2) 0.92837(15) 0.34868(14)
O3 O 0.4692(2) 0.81702(15) 0.33718(15)
C8 C 0.1200(4) 0.9104(3) 0.1353(3)
H4 H 0.0665 0.9063 0.1558
H5 H 0.1180 0.8742 0.1042
H6 H 0.1194 0.9554 0.1154
O4 O 0.3902(2) 0.49442(16) 0.21270(16)
C9 C 0.3337(3) 0.5311(2) 0.2416(2)
C10 C 0.3535(3) 0.5978(2) 0.2646(2)
C11 C 0.2921(3) 0.6295(3) 0.2981(2)
H7 H 0.3070 0.6735 0.3156
C12 C 0.2119(4) 0.5991(3) 0.3065(2)
H8 H 0.1717 0.6219 0.3291
C13 C 0.1895(3) 0.5334(3) 0.2810(3)
C14 C 0.2502(3) 0.5006(3) 0.2501(2)
H9 H 0.2355 0.4559 0.2339
C15 C 0.4356(3) 0.6364(2) 0.2555(2)
O5 O 0.4832(2) 0.61636(15) 0.21485(15)
O6 O 0.4572(2) 0.69003(18) 0.28623(17)
C16 C 0.0988(4) 0.5002(3) 0.2863(3)
H10 H 0.0493 0.5231 0.2583
H11 H 0.0879 0.5046 0.3288
H12 H 0.1005 0.4515 0.2754
O7 O 0.5995(2) 0.72409(16) 0.60689(14)
C17 C 0.5202(3) 0.7304(2) 0.5677(2)
C18 C 0.5120(3) 0.7201(2) 0.5036(2)
C19 C 0.4269(3) 0.7284(2) 0.4664(3)
H13 H 0.4216 0.7235 0.4230
C20 C 0.3499(4) 0.7437(3) 0.4911(3)
H14 H 0.2917 0.7467 0.4650
C21 C 0.3567(4) 0.7546(3) 0.5537(3)
C22 C 0.4415(4) 0.7480(2) 0.5918(3)
H15 H 0.4463 0.7555 0.6348
C23 C 0.5914(3) 0.7006(2) 0.47417(19)
O8 O 0.6649(2) 0.67628(16) 0.50671(13)
O9 O 0.5852(2) 0.70619(16) 0.41749(14)
C24 C 0.2727(4) 0.7738(4) 0.5815(4)
H16 H 0.2307 0.8014 0.5518
H17 H 0.2920 0.8005 0.6192
H18 H 0.2414 0.7319 0.5913
O10 O 0.8036(2) 0.72595(17) 0.59295(15)
C25 C 0.8742(4) 0.7447(2) 0.6362(3)
C26 C 0.8854(4) 0.7248(3) 0.6973(3)
C27 C 0.9637(4) 0.7478(3) 0.7386(3)
H19 H 0.9716 0.7338 0.7805
C28 C 1.0278(4) 0.7892(4) 0.7202(3)
H20 H 1.0796 0.8038 0.7491
C29 C 1.0176(4) 0.8102(3) 0.6594(3)
C30 C 0.9420(3) 0.7870(3) 0.6181(3)
H21 H 0.9359 0.8002 0.5761
C31 C 0.8190(4) 0.6824(3) 0.7233(2)
O11 O 0.7425(2) 0.66215(17) 0.68799(14)
O12 O 0.8335(3) 0.6677(2) 0.77951(17)
C32 C 1.0877(5) 0.8569(4) 0.6387(4)
H22 H 1.0860 0.8512 0.5943
H23 H 1.1490 0.8452 0.6609
H24 H 1.0736 0.9047 0.6474
N1 N 0.5967(8) 1.0443(4) 0.4073(4)
C33 C 0.6861(8) 1.0299(6) 0.4196(5)
H25 H 0.7131 1.0116 0.3870
C34 C 0.7418(10) 1.0390(6) 0.4747(6)
H26 H 0.8055 1.0287 0.4808
C35 C 0.6978(9) 1.0654(6) 0.5234(6)
H27 H 0.7330 1.0718 0.5634
C36 C 0.6026(10) 1.0820(5) 0.5128(5)
H28 H 0.5721 1.1000 0.5439
C37 C 0.5587(9) 1.0697(5) 0.4538(4)
C38 C 0.4637(10) 1.0846(5) 0.4382(5)
C39 C 0.4098(10) 1.1150(6) 0.4783(6)
H29 H 0.4361 1.1272 0.5193
C40 C 0.3173(10) 1.1263(5) 0.4558(5)
H30 H 0.2814 1.1460 0.4831
C41 C 0.2739(8) 1.1111(6) 0.3971(6)
H31 H 0.2104 1.1194 0.3830
C42 C 0.3333(10) 1.0816(6) 0.3589(6)
H32 H 0.3081 1.0702 0.3175
N2 N 0.4236(7) 1.0693(5) 0.3794(4)
N3 N 0.6138(3) 0.57547(18) 0.60209(16)
C43 C 0.5309(3) 0.5777(2) 0.6197(2)
H33 H 0.5116 0.6193 0.6362
C44 C 0.4734(4) 0.5216(3) 0.6145(2)
H34 H 0.4155 0.5243 0.6274
C45 C 0.5012(4) 0.4616(3) 0.5902(2)
H35 H 0.4620 0.4225 0.5857
C46 C 0.5853(4) 0.4584(2) 0.5727(2)
H36 H 0.6052 0.4172 0.5560
C47 C 0.6413(3) 0.5163(2) 0.5797(2)
C48 C 0.7354(3) 0.5175(2) 0.5649(2)
C49 C 0.7777(4) 0.4602(3) 0.5446(2)
H37 H 0.7457 0.4178 0.5380
C50 C 0.8670(4) 0.4657(3) 0.5342(3)
H38 H 0.8970 0.4272 0.5201
C51 C 0.9117(4) 0.5273(3) 0.5443(2)
H39 H 0.9732 0.5317 0.5379
C52 C 0.8664(3) 0.5831(3) 0.5641(2)
H40 H 0.8972 0.6260 0.5703
N4 N 0.7797(3) 0.5780(2) 0.57467(17)
O13 O 0.7562(3) 0.74368(19) 0.35080(19)
H41 H 0.774(3) 0.744(3) 0.3897(15)
H42 H 0.785(3) 0.758(3) 0.322(2)
O14 O 0.6109(3) 0.85284(17) 0.26127(15)
H43 H 0.601(4) 0.895(2) 0.274(3)
H44 H 0.656(3) 0.847(3) 0.238(2)
O15 O 0.6354(3) 0.62819(17) 0.32041(16)
H45 H 0.678(3) 0.620(3) 0.353(2)
H46 H 0.620(4) 0.594(3) 0.293(2)
O16 O 0.6134(3) 0.71810(18) 0.22014(16)
H47 H 0.581(4) 0.746(2) 0.1899(15)
H48 H 0.591(4) 0.6751(19) 0.222(3)
O17 O 0.6464(3) 0.84705(19) 0.39398(17)
H49 H 0.612(3) 0.8819(18) 0.384(3)
H50 H 0.707(2) 0.845(2) 0.398(3)
Fe1A Fe 0.49729(5) 0.52362(3) 0.18098(3)
O4A O 0.6098(2) 0.99442(16) 0.28730(16)
O5A O 0.5168(2) 1.11636(15) 0.28515(15)
Cl1 Cl 1.0336(5) 0.6989(3) 0.4850(3)
O21 O 0.8363(3) 0.7479(2) 0.47058(19)
O22 O 0.7394(3) 0.58465(18) 0.42392(16)
O23 O 0.9163(3) 0.5910(2) 0.4004(2)
O24 O 0.8119(6) 0.9078(4) 0.3871(4)
O25 O 0.1086(10) 0.5972(7) -0.1081(7)
N5? N 1.0551(11) 0.7266(9) 0.4550(9)
O18? O 1.0433(9) 0.7870(7) 0.4679(6)
O19? O 1.1129(11) 0.7082(8) 0.4238(7)
O20? O 1.007(3) 0.6834(18) 0.4808(18)
O26? O 0.154(2) 0.6911(15) -0.1401(13)
O27? O 0.1322(19) 0.6657(14) -0.0832(13)
O28? O 0.128(2) 0.6225(17) -0.1615(15)
C53? C 0.3444(10) 0.5330(6) 0.0723(6)
C54? C 0.2934(9) 0.5464(6) 0.0120(6)
C55? C 0.3477(11) 0.5748(6) -0.0263(5)
C56? C 0.4422(10) 0.5892(6) -0.0102(5)
C57? C 0.4799(10) 0.5743(5) 0.0499(4)
C58? C 0.5752(8) 0.5864(5) 0.0734(4)
C59? C 0.6332(10) 0.6163(5) 0.0371(5)
C60? C 0.7269(9) 0.6243(6) 0.0642(6)
C61? C 0.7587(9) 0.6029(6) 0.1273(6)
C62? C 0.6957(8) 0.5751(6) 0.1578(6)
H51? H 0.3123 0.5131 0.1017
H52? H 0.2299 0.5369 -0.0001
H53? H 0.3189 0.5855 -0.0671
H54? H 0.4771 0.6079 -0.0385
H55? H 0.6108 0.6307 -0.0039
H56? H 0.7689 0.6437 0.0409
H57? H 0.8210 0.6082 0.1464
H58? H 0.7150 0.5609 0.1992
N6? N 0.4318(8) 0.5462(5) 0.0899(5)
N7? N 0.6058(8) 0.5665(4) 0.1319(4)
O29? O 0.8195(7) 0.8889(5) 0.4375(5)
loop_
_geom_bond_atom_site_label_1
_geom_bond_atom_site_label_2
_geom_bond_site_symmetry_1
_geom_bond_site_symmetry_2
Gd1 O3 1_555 1_555
Fe1 O1 1_555 1_555
Fe2 O7 1_555 1_555
O1 C1 1_555 1_555
C1 C2 1_555 1_555
C2 C3 1_555 1_555
C3 H1 1_555 1_555
C4 C3 1_555 1_555
H2 C4 1_555 1_555
C5 C4 1_555 1_555
C6 C1 1_555 1_555
H3 C6 1_555 1_555
C7 C2 1_555 1_555
O2 Fe1 1_555 1_555
O3 C7 1_555 1_555
C8 C5 1_555 1_555
H4 C8 1_555 1_555
H5 C8 1_555 1_555
H6 C8 1_555 1_555
O4 C9 1_555 1_555
C9 C10 1_555 1_555
C10 C11 1_555 1_555
C11 H7 1_555 1_555
C12 C11 1_555 1_555
H8 C12 1_555 1_555
C13 C12 1_555 1_555
C14 C9 1_555 1_555
H9 C14 1_555 1_555
C15 C10 1_555 1_555
O5 C15 1_555 1_555
O6 Gd1 1_555 1_555
C16 C13 1_555 1_555
H10 C16 1_555 1_555
H11 C16 1_555 1_555
H12 C16 1_555 1_555
O7 C17 1_555 1_555
C17 C18 1_555 1_555
C18 C19 1_555 1_555
C19 H13 1_555 1_555
C20 C19 1_555 1_555
H14 C20 1_555 1_555
C21 C20 1_555 1_555
C22 C17 1_555 1_555
H15 C22 1_555 1_555
C23 C18 1_555 1_555
O8 Fe2 1_555 1_555
O9 Gd1 1_555 1_555
C24 C21 1_555 1_555
H16 C24 1_555 1_555
H17 C24 1_555 1_555
H18 C24 1_555 1_555
O10 Fe2 1_555 1_555
C25 O10 1_555 1_555
C26 C25 1_555 1_555
C27 C26 1_555 1_555
H19 C27 1_555 1_555
C28 C27 1_555 1_555
H20 C28 1_555 1_555
C29 C28 1_555 1_555
C30 C25 1_555 1_555
H21 C30 1_555 1_555
C31 C26 1_555 1_555
O11 Fe2 1_555 1_555
O12 C31 1_555 1_555
C32 C29 1_555 1_555
H22 C32 1_555 1_555
H23 C32 1_555 1_555
H24 C32 1_555 1_555
N1 Fe1 1_555 1_555
C33 N1 1_555 1_555
H25 C33 1_555 1_555
C34 C33 1_555 1_555
H26 C34 1_555 1_555
C35 C34 1_555 1_555
H27 C35 1_555 1_555
C36 C35 1_555 1_555
H28 C36 1_555 1_555
C37 N1 1_555 1_555
C38 C37 1_555 1_555
C39 C38 1_555 1_555
H29 C39 1_555 1_555
C40 C39 1_555 1_555
H30 C40 1_555 1_555
C41 C40 1_555 1_555
H31 C41 1_555 1_555
C42 C41 1_555 1_555
H32 C42 1_555 1_555
N2 Fe1 1_555 1_555
N3 Fe2 1_555 1_555
C43 N3 1_555 1_555
H33 C43 1_555 1_555
C44 C43 1_555 1_555
H34 C44 1_555 1_555
C45 C44 1_555 1_555
H35 C45 1_555 1_555
C46 C45 1_555 1_555
H36 C46 1_555 1_555
C47 N3 1_555 1_555
C48 C47 1_555 1_555
C49 C48 1_555 1_555
H37 C49 1_555 1_555
C50 C49 1_555 1_555
H38 C50 1_555 1_555
C51 C50 1_555 1_555
H39 C51 1_555 1_555
C52 C51 1_555 1_555
H40 C52 1_555 1_555
N4 Fe2 1_555 1_555
O13 Gd1 1_555 1_555
H41 O13 1_555 1_555
H42 O13 1_555 1_555
O14 Gd1 1_555 1_555
H43 O14 1_555 1_555
H44 O14 1_555 1_555
O15 Gd1 1_555 1_555
H45 O15 1_555 1_555
H46 O15 1_555 1_555
O16 Gd1 1_555 1_555
H47 O16 1_555 1_555
H48 O16 1_555 1_555
O17 Gd1 1_555 1_555
H49 O17 1_555 1_555
H50 O17 1_555 1_555
Fe1A O4 1_555 1_555
O4A Fe1 1_555 1_555
O5A Fe1 1_555 1_555
C5 C6 1_555 1_555
C7 O2 1_555 1_555
C13 C14 1_555 1_555
C15 O6 1_555 1_555
O5 Fe1A 1_555 1_555
C21 C22 1_555 1_555
C23 O8 1_555 1_555
C23 O9 1_555 1_555
C29 C30 1_555 1_555
C31 O11 1_555 1_555
C36 C37 1_555 1_555
C38 N2 1_555 1_555
C42 N2 1_555 1_555
C46 C47 1_555 1_555
C48 N4 1_555 1_555
C52 N4 1_555 1_555

#END
