
#######################################################################
#
#                 Cambridge Crystallographic Data Centre
#                                CCDC 
#
#######################################################################
#
# If this CIF has been generated from an entry in the Cambridge 
# Structural Database, then it will include bibliographic, chemical, 
# crystal, experimental, refinement or atomic coordinate data resulting 
# from the CCDC's data processing and validation procedures.
#
#######################################################################

data_DUFMEY
_symmetry_cell_setting           monoclinic
_symmetry_space_group_name_H-M   'P 21/n'
_symmetry_Int_Tables_number      14
_space_group_name_Hall           '-P 2yn'
loop_
_symmetry_equiv_pos_site_id
_symmetry_equiv_pos_as_xyz
1 x,y,z
2 1/2-x,1/2+y,1/2-z
3 -x,-y,-z
4 1/2+x,1/2-y,1/2+z
_cell_length_a                   9.714(5)
_cell_length_b                   19.145(11)
_cell_length_c                   11.748(6)
_cell_angle_alpha                90
_cell_angle_beta                 99.060(7)
_cell_angle_gamma                90
_cell_volume                     2157.57
loop_
_atom_site_label
_atom_site_type_symbol
_atom_site_fract_x
_atom_site_fract_y
_atom_site_fract_z
Mn1 Mn -0.03465(4) 1.072443(19) 0.13739(3)
O1 O -0.4832(2) 0.68142(10) 0.28899(17)
O2 O -0.1426(2) 0.92405(10) -0.05213(16)
N1 N 0.2633(2) 1.03994(12) 0.45193(18)
O3 O -0.3174(2) 0.61673(11) 0.2351(2)
O4 O -0.1142(2) 0.96923(10) 0.12525(17)
N2 N 0.8267(2) 1.11467(12) 0.98112(19)
N3 N 0.1052(2) 1.03685(12) 0.29459(19)
N4 N 0.6644(2) 1.12108(12) 0.82733(19)
C1 C 0.5622(3) 1.09933(16) 0.7315(2)
C2 C 0.4646(3) 1.11497(15) 0.5292(2)
C3 C -0.1504(3) 0.92178(13) 0.0535(2)
C4 C 0.3676(3) 1.06315(14) 0.5438(2)
O5 O -0.3945(3) 0.70265(16) -0.1175(2)
C5 C 0.3706(3) 1.03010(17) 0.6489(2)
H1 H 0.306(3) 0.9970(18) 0.655(3)
C6 C 0.4686(3) 1.04678(16) 0.7442(2)
C7 C -0.3406(3) 0.75054(14) 0.0653(2)
C8 C 0.7890(4) 1.18375(16) 0.9604(3)
H2 H 0.828(3) 1.2221(18) 1.004(3)
O6 O -0.5134(3) 0.66882(15) 0.0122(2)
C9 C -0.2111(3) 0.85683(13) 0.0977(2)
C10 C -0.2828(3) 0.80884(14) 0.0220(2)
H3 H -0.2918 0.8158 -0.0572
N5 N -0.4215(3) 0.70396(14) -0.0192(2)
C11 C 0.4646(4) 1.0082(2) 0.8565(3)
H4 H 0.544(5) 0.968(3) 0.863(4)
H5 H 0.378(5) 0.980(2) 0.857(4)
H6 H 0.480(5) 1.042(3) 0.916(4)
C12 C -0.2532(4) 0.78472(17) 0.2566(3)
H7 H -0.240(4) 0.7771(18) 0.336(3)
C13 C 0.7500(3) 1.07886(15) 0.8991(2)
H8 H 0.753(3) 1.0270(18) 0.887(3)
C14 C 0.6893(3) 1.18859(16) 0.8658(3)
H9 H 0.639(3) 1.2254(18) 0.825(3)
C15 C -0.3269(3) 0.73658(14) 0.1823(2)
C16 C 0.5592(3) 1.13291(16) 0.6268(2)
H10 H 0.621(3) 1.1672(18) 0.618(3)
C17 C -0.1977(3) 0.84410(16) 0.2152(2)
H11 H -0.155(3) 0.8772(18) 0.273(3)
C18 C -0.3812(3) 0.67284(14) 0.2367(2)
C19 C 0.1986(3) 1.07473(17) 0.3587(2)
H12 H 0.217(3) 1.1258(18) 0.348(3)
C20 C 0.2057(4) 0.97457(19) 0.4434(3)
H13 H 0.240(4) 0.940(2) 0.506(4)
C21 C 0.4803(4) 1.1481(2) 0.4150(3)
H14 H 0.458(5) 1.116(2) 0.353(4)
H15 H 0.559(5) 1.166(2) 0.414(4)
H16 H 0.412(5) 1.183(2) 0.394(4)
C22 C 0.1097(4) 0.97383(19) 0.3477(3)
H17 H 0.063(4) 0.934(2) 0.319(4)
Mn1_2 Mn 0.96535(4) 1.072443(19) 1.13739(3)
Mn1A Mn -0.46535(4) 0.572443(19) 0.36261(3)
Mn1B Mn 0.03465(4) 0.927557(19) -0.13739(3)
O1A O -0.0168(2) 1.18142(10) 0.21101(17)
O2B O 0.1426(2) 1.07595(10) 0.05213(16)
O3A O -0.1826(2) 1.11673(11) 0.2649(2)
N2_2 N -0.1733(2) 1.11467(12) -0.01888(19)
loop_
_geom_bond_atom_site_label_1
_geom_bond_atom_site_label_2
_geom_bond_site_symmetry_1
_geom_bond_site_symmetry_2
Mn1 O4 1_555 1_555
O1 C18 1_555 1_555
O2 C3 1_555 1_555
N1 C4 1_555 1_555
O3 C18 1_555 1_555
O4 C3 1_555 1_555
N2 C8 1_555 1_555
N3 Mn1 1_555 1_555
N4 C1 1_555 1_555
C1 C6 1_555 1_555
C2 C4 1_555 1_555
C3 C9 1_555 1_555
C4 C5 1_555 1_555
O5 N5 1_555 1_555
C5 H1 1_555 1_555
C6 C5 1_555 1_555
C7 C10 1_555 1_555
C8 H2 1_555 1_555
O6 N5 1_555 1_555
C9 C10 1_555 1_555
C10 H3 1_555 1_555
N5 C7 1_555 1_555
C11 C6 1_555 1_555
H4 C11 1_555 1_555
H5 C11 1_555 1_555
H6 C11 1_555 1_555
C12 H7 1_555 1_555
C13 N2 1_555 1_555
H8 C13 1_555 1_555
C14 N4 1_555 1_555
H9 C14 1_555 1_555
C15 C7 1_555 1_555
C16 C1 1_555 1_555
H10 C16 1_555 1_555
C17 C9 1_555 1_555
H11 C17 1_555 1_555
C18 C15 1_555 1_555
C19 N1 1_555 1_555
H12 C19 1_555 1_555
C20 N1 1_555 1_555
H13 C20 1_555 1_555
C21 C2 1_555 1_555
H14 C21 1_555 1_555
H15 C21 1_555 1_555
H16 C21 1_555 1_555
C22 N3 1_555 1_555
H17 C22 1_555 1_555
Mn1_2 N2 1_555 1_555
Mn1A O1 1_555 1_555
Mn1B O2 1_555 1_555
O1A Mn1 1_555 1_555
O2B Mn1 1_555 1_555
O3A Mn1 1_555 1_555
N2_2 Mn1 1_555 1_555
O3 Mn1A 1_555 1_555
N3 C19 1_555 1_555
N4 C13 1_555 1_555
C2 C16 1_555 1_555
C8 C14 1_555 1_555
C12 C15 1_555 1_555
C12 C17 1_555 1_555
C20 C22 1_555 1_555

#END
