
#######################################################################
#
#                 Cambridge Crystallographic Data Centre
#                                CCDC 
#
#######################################################################
#
# If this CIF has been generated from an entry in the Cambridge 
# Structural Database, then it will include bibliographic, chemical, 
# crystal, experimental, refinement or atomic coordinate data resulting 
# from the CCDC's data processing and validation procedures.
#
#######################################################################

data_DUFMOI
_symmetry_cell_setting           monoclinic
_symmetry_space_group_name_H-M   'P 21/c'
_symmetry_Int_Tables_number      14
_space_group_name_Hall           '-P 2ybc'
loop_
_symmetry_equiv_pos_site_id
_symmetry_equiv_pos_as_xyz
1 x,y,z
2 -x,1/2+y,1/2-z
3 -x,-y,-z
4 x,1/2-y,1/2+z
_cell_length_a                   11.5835(9)
_cell_length_b                   14.6334(11)
_cell_length_c                   13.9030(11)
_cell_angle_alpha                90
_cell_angle_beta                 98.4180(10)
_cell_angle_gamma                90
_cell_volume                     2331.25
loop_
_atom_site_label
_atom_site_type_symbol
_atom_site_fract_x
_atom_site_fract_y
_atom_site_fract_z
Pb1 Pb 0.413757(19) 0.020073(16) 0.843942(15)
S1 S 0.28717(12) 0.52144(10) 0.57375(10)
O1 O 0.3781(3) 0.5246(3) 0.5107(3)
N1 N 0.2065(4) 0.0797(4) 0.8360(3)
O2 O 0.3359(4) 0.5518(3) 0.6700(3)
O3 O 0.1805(4) 0.5643(3) 0.5334(3)
O4 O 0.3942(4) 0.1003(3) 0.6676(3)
C1 C 0.2538(5) 0.4045(4) 0.5853(4)
O5 O 0.4502(4) 0.3592(3) 0.6324(3)
H1 H 0.4740 0.3765 0.5828
C2 C 0.0370(5) 0.1004(4) 0.5754(3)
H2 H 0.0126 0.0399 0.5759
N2 N 0.3952(4) 0.1910(4) 0.8797(3)
C3 C 0.1907(4) 0.2129(4) 0.5972(3)
C4 C 0.1123(6) 0.0257(5) 0.8199(4)
H3 H 0.1235 -0.0372 0.8179
C5 C 0.1554(5) 0.1207(4) 0.5979(3)
H4 H 0.2101 0.0744 0.6130
C6 C -0.0452(4) 0.1692(4) 0.5521(4)
C7 C 0.3468(5) 0.3392(4) 0.6137(4)
N3 N 0.4005(4) 0.1871(4) 0.6519(3)
C8 C 0.1886(4) 0.1720(4) 0.8391(3)
S2 S -0.19314(13) 0.13825(12) 0.51896(12)
O6 O -0.2595(4) 0.2196(4) 0.5214(5)
C9 C 0.2867(5) 0.2304(4) 0.8611(3)
C10 C 0.0629(5) 0.3080(5) 0.8263(4)
H5 H -0.0112 0.3338 0.8152
C11 C 0.2704(5) 0.3248(4) 0.8643(4)
C12 C 0.0757(5) 0.2106(5) 0.8227(4)
O7 O 0.3011(6) -0.1116(4) 0.7553(4)
C13 C 0.3688(6) 0.3809(5) 0.8886(5)
H6 H 0.3606 0.4440 0.8923
C14 C -0.0190(5) 0.1491(5) 0.8076(4)
H7 H -0.0950 0.1714 0.7987
C15 C 0.4862(5) 0.2468(5) 0.9030(4)
H8 H 0.5599 0.2206 0.9174
O8 O -0.2191(4) 0.0742(5) 0.5903(4)
C16 C -0.0001(5) 0.0586(6) 0.8061(4)
H9 H -0.0628 0.0183 0.7959
C17 C 0.3120(5) 0.2419(4) 0.6203(4)
C18 C 0.1427(5) 0.3757(4) 0.5655(3)
H10 H 0.0852 0.4189 0.5461
C19 C -0.0114(5) 0.2589(4) 0.5503(4)
H11 H -0.0670 0.3043 0.5344
C20 C 0.1075(4) 0.2822(4) 0.5726(3)
O9 O -0.1977(5) 0.0972(5) 0.4257(4)
C21 C 0.4782(6) 0.3409(5) 0.9070(5)
H12 H 0.5449 0.3766 0.9218
C22 C 0.1569(6) 0.3623(5) 0.8455(4)
H13 H 0.1472 0.4254 0.8464
H14 H 0.263(6) -0.127(5) 0.699(3)
H15 H 0.286(6) -0.126(5) 0.815(4)
Pb1A Pb 0.586243(19) 0.520073(16) 0.656058(15)
Pb1C Pb 0.413757(19) 0.479927(16) 0.343942(15)
O1A O 0.6219(3) 0.0246(3) 0.9893(3)
O1C O 0.3781(3) -0.0246(3) 1.0107(3)
O5A O 0.5498(4) -0.1408(3) 0.8676(3)
O10 O 0.6372(4) 0.2069(4) 0.7022(3)
H16 H 0.652(7) 0.192(6) 0.754(3)
H17 H 0.652(6) 0.182(5) 0.651(4)
loop_
_geom_bond_atom_site_label_1
_geom_bond_atom_site_label_2
_geom_bond_site_symmetry_1
_geom_bond_site_symmetry_2
Pb1 N1 1_555 1_555
S1 O1 1_555 1_555
O1 Pb1A 1_555 1_555
N1 C4 1_555 1_555
O2 S1 1_555 1_555
O3 S1 1_555 1_555
O4 Pb1 1_555 1_555
C1 S1 1_555 1_555
O5 H1 1_555 1_555
C2 H2 1_555 1_555
N2 Pb1 1_555 1_555
C3 C5 1_555 1_555
C4 H3 1_555 1_555
C5 C2 1_555 1_555
H4 C5 1_555 1_555
C6 C2 1_555 1_555
C7 C1 1_555 1_555
N3 O4 1_555 1_555
C8 N1 1_555 1_555
S2 C6 1_555 1_555
O6 S2 1_555 1_555
C9 N2 1_555 1_555
C10 H5 1_555 1_555
C11 C9 1_555 1_555
C12 C8 1_555 1_555
O7 Pb1 1_555 1_555
C13 C11 1_555 1_555
H6 C13 1_555 1_555
C14 C12 1_555 1_555
H7 C14 1_555 1_555
C15 N2 1_555 1_555
H8 C15 1_555 1_555
O8 S2 1_555 1_555
C16 C4 1_555 1_555
H9 C16 1_555 1_555
C17 C3 1_555 1_555
C18 C1 1_555 1_555
H10 C18 1_555 1_555
C19 C6 1_555 1_555
H11 C19 1_555 1_555
C20 C3 1_555 1_555
O9 S2 1_555 1_555
C21 C13 1_555 1_555
H12 C21 1_555 1_555
C22 C10 1_555 1_555
H13 C22 1_555 1_555
H14 O7 1_555 1_555
H15 O7 1_555 1_555
O10 H16 1_555 1_555
H17 O10 1_555 1_555
Pb1A O5 1_555 1_555
Pb1C O1 1_555 1_555
O1A Pb1 1_555 1_555
O1C Pb1 1_555 1_555
O5A Pb1 1_555 1_555
O5 C7 1_555 1_555
C7 C17 1_555 1_555
N3 C17 1_555 1_555
C8 C9 1_555 1_555
C10 C12 1_555 1_555
C11 C22 1_555 1_555
C14 C16 1_555 1_555
C15 C21 1_555 1_555
C18 C20 1_555 1_555
C19 C20 1_555 1_555

#END
