
#######################################################################
#
#                 Cambridge Crystallographic Data Centre
#                                CCDC 
#
#######################################################################
#
# If this CIF has been generated from an entry in the Cambridge 
# Structural Database, then it will include bibliographic, chemical, 
# crystal, experimental, refinement or atomic coordinate data resulting 
# from the CCDC's data processing and validation procedures.
#
#######################################################################

data_DUFNOI
_symmetry_cell_setting           triclinic
_symmetry_space_group_name_H-M   'P -1'
_symmetry_Int_Tables_number      2
_space_group_name_Hall           '-P 1'
loop_
_symmetry_equiv_pos_site_id
_symmetry_equiv_pos_as_xyz
1 x,y,z
2 -x,-y,-z
_cell_length_a                   14.8717(7)
_cell_length_b                   16.3561(6)
_cell_length_c                   16.9541(9)
_cell_angle_alpha                65.231(4)
_cell_angle_beta                 65.975(5)
_cell_angle_gamma                67.563(4)
_cell_volume                     3307.53
loop_
_atom_site_label
_atom_site_type_symbol
_atom_site_fract_x
_atom_site_fract_y
_atom_site_fract_z
Mn1 Mn 0.0000 0.0000 0.0000
Mn2 Mn 0.04573(5) -0.06472(5) -0.18423(5)
Mn3 Mn 0.00514(5) 0.15110(5) -0.30657(5)
Mn4 Mn 0.04153(5) -0.21297(5) 0.13555(5)
Mn5 Mn -0.16840(5) 0.08644(5) -0.12115(5)
Mn6 Mn -0.16940(5) -0.05846(5) 0.19426(5)
Mn7 Mn -0.12166(6) 0.02368(5) -0.30192(5)
Mn8 Mn -0.20619(5) 0.15110(5) 0.05857(5)
Mn9 Mn -0.14086(6) -0.27484(5) 0.32151(5)
C1 C -0.4059(4) 0.2643(4) 0.1710(4)
H1 H -0.3799 0.2242 0.2193
C2 C -0.5008(4) 0.3267(4) 0.1888(5)
H2 H -0.5379 0.3280 0.2478
C3 C -0.5380(5) 0.3863(4) 0.1172(5)
H3 H -0.6010 0.4291 0.1264
C4 C -0.4817(5) 0.3816(4) 0.0332(5)
H4 H -0.5055 0.4216 -0.0164
C5 C -0.3898(4) 0.3185(4) 0.0208(4)
H5 H -0.3522 0.3167 -0.0380
C6 C -0.2866(4) 0.2195(5) -0.3578(4)
H6 H -0.2745 0.2227 -0.3097
C7 C -0.3445(5) 0.2968(5) -0.4037(5)
H7 H -0.3710 0.3512 -0.3880
C8 C -0.3621(6) 0.2914(5) -0.4742(6)
H8 H -0.4024 0.3426 -0.5068
C9 C -0.3210(5) 0.2114(5) -0.4972(5)
H9 H -0.3316 0.2080 -0.5460
C10 C -0.2630(4) 0.1351(4) -0.4460(4)
H10 H -0.2357 0.0801 -0.4608
C11 C -0.2203(4) -0.1448(4) -0.1627(4)
H11 H -0.2041 -0.1287 -0.1245
C12 C -0.2568(4) -0.2223(4) -0.1277(4)
H12 H -0.2641 -0.2586 -0.0672
C13 C -0.2824(5) -0.2450(4) -0.1840(5)
H13 H -0.3085 -0.2964 -0.1618
C14 C -0.2690(5) -0.1906(4) -0.2737(5)
H14 H -0.2850 -0.2047 -0.3134
C15 C -0.2313(4) -0.1153(4) -0.3027(4)
H15 H -0.2220 -0.0789 -0.3633
C16 C -0.2985(5) -0.1728(5) 0.4782(5)
H16 H -0.2455 -0.1438 0.4512
C17 C -0.3884(6) -0.1323(6) 0.5322(5)
H17 H -0.3946 -0.0775 0.5405
C18 C -0.4682(7) -0.1722(8) 0.5734(5)
H18 H -0.5308 -0.1445 0.6074
C19 C -0.4497(6) -0.2585(8) 0.5611(5)
H19 H -0.4999 -0.2909 0.5902
C20 C -0.3619(6) -0.2922(6) 0.5088(5)
H20 H -0.3526 -0.3491 0.5027
N1 N -0.3512(3) 0.2595(3) 0.0883(3)
N2 N -0.2453(3) 0.1382(3) -0.3767(3)
N3 N -0.2071(3) -0.0910(3) -0.2504(3)
N4 N -0.2834(4) -0.2511(4) 0.4627(4)
O1 O -0.2386(2) 0.0717(2) -0.1828(2)
O2 O -0.2810(2) 0.1282(2) -0.0322(2)
C21 C -0.3440(4) 0.0763(4) -0.1500(4)
H21 H -0.3681 0.0926 -0.2013
H22 H -0.3532 0.0150 -0.1107
C22 C -0.4083(4) 0.1441(5) -0.0990(5)
H23 H -0.3992 0.2054 -0.1413
C23 C -0.3807(4) 0.1303(5) -0.0201(4)
H24 H -0.3942 0.0720 0.0247
H25 H -0.4263 0.1795 0.0060
C24 C -0.5205(4) 0.1487(5) -0.0743(5)
H26 H -0.5614 0.1942 -0.0433
H27 H -0.5382 0.1659 -0.1286
H28 H -0.5324 0.0888 -0.0353
O3 O -0.0438(3) 0.1386(2) -0.3838(2)
C25 C -0.0335(5) 0.1950(5) -0.4749(4)
H29 H -0.0991 0.2391 -0.4767
H30 H -0.0220 0.1551 -0.5090
C26 C 0.0407(9) 0.2465(7) -0.5237(6)
H31 H 0.1046 0.1980 -0.5318
C27 C 0.0401(10) 0.3061(8) -0.6221(7)
H32 H 0.0944 0.3367 -0.6506
H33 H -0.0238 0.3520 -0.6216
H34 H 0.0495 0.2668 -0.6554
C28 C 0.0575(4) 0.2982(4) -0.4800(3)
H35 H 0.1207 0.3163 -0.5169
H36 H 0.0032 0.3549 -0.4805
O4 O 0.0624(2) 0.2509(2) -0.3892(2)
O5 O -0.2784(2) 0.0420(2) 0.1656(2)
C29 C -0.3811(4) 0.0387(4) 0.2060(4)
H37 H -0.4060 0.0529 0.2625
H38 H -0.4200 0.0875 0.1662
C30 C -0.4020(7) -0.0492(6) 0.2255(7)
H39 H -0.3783 -0.0606 0.1670
C31 C -0.5177(8) -0.0412(10) 0.2623(9)
H40 H -0.5530 0.0191 0.2312
H41 H -0.5312 -0.0885 0.2523
H42 H -0.5406 -0.0494 0.3262
C32 C -0.3512(4) -0.1327(4) 0.2862(4)
H43 H -0.3643 -0.1865 0.2864
H44 H -0.3826 -0.1285 0.3474
O6 O -0.2444(2) -0.1490(2) 0.2651(2)
O7 O -0.0177(3) -0.3143(2) 0.2040(2)
C33 C 0.0098(4) -0.3984(4) 0.1849(4)
H45 H -0.0349 -0.3933 0.1535
H46 H -0.0007 -0.4485 0.2418
C34 C 0.1197(9) -0.4237(6) 0.1271(7)
H47 H 0.1615 -0.4370 0.1653
C35 C 0.1425(10) -0.5163(7) 0.1101(9)
H48 H 0.1191 -0.5618 0.1666
H49 H 0.2145 -0.5381 0.0846
H50 H 0.1079 -0.5064 0.0686
C36 C 0.1530(5) -0.3551(4) 0.0480(5)
H51 H 0.1200 -0.3475 0.0056
H52 H 0.2252 -0.3799 0.0226
O8 O 0.1407(2) -0.2654(2) 0.0476(2)
O9 O 0.1432(3) -0.1755(2) -0.1523(2)
O10 O 0.0018(2) -0.0984(2) -0.2521(2)
C37 C 0.1730(5) -0.2497(5) -0.1880(5)
H53 H 0.1990 -0.3071 -0.1451
H54 H 0.2284 -0.2390 -0.2437
C38 C 0.0917(7) -0.2631(6) -0.2079(7)
H55 H 0.0364 -0.2721 -0.1508
C39 C 0.0469(5) -0.1823(4) -0.2751(5)
H56 H 0.0997 -0.1712 -0.3327
H57 H -0.0045 -0.1979 -0.2836
C40 C 0.1335(9) -0.3571(7) -0.2296(8)
H58 H 0.1860 -0.3510 -0.2868
H59 H 0.0791 -0.3724 -0.2329
H60 H 0.1609 -0.4056 -0.1825
O11 O -0.2340(3) -0.3570(3) 0.3229(3)
O12 O -0.1315(3) -0.4265(3) 0.4083(3)
C41 C -0.2012(5) -0.4249(5) 0.3830(5)
C42 C -0.2443(6) -0.5103(5) 0.4256(6)
H61 H -0.2289 -0.5375 0.3798
H62 H -0.2142 -0.5551 0.4726
H63 H -0.3167 -0.4918 0.4513
O13 O -0.0880(2) -0.1106(2) 0.0615(2)
O14 O -0.1279(4) -0.0803(3) -0.0603(3)
C43 C -0.1299(3) -0.1265(3) 0.0192(3)
C44 C -0.1839(4) -0.2023(4) 0.0666(4)
H64 H -0.2505 -0.1787 0.0587
H65 H -0.1900 -0.2244 0.1303
H66 H -0.1459 -0.2526 0.0415
O15 O -0.0860(2) 0.0278(2) 0.11110(19)
O16 O 0.0926(2) -0.1018(2) 0.0608(2)
O17 O -0.0516(2) 0.0513(2) -0.2161(2)
O18 O -0.0589(2) -0.1588(2) 0.2259(2)
N5 N 0.1558(3) 0.0200(3) -0.3038(3)
N6 N 0.2243(4) -0.0184(4) -0.3560(4)
N7 N 0.2876(6) -0.0622(6) -0.3950(6)
N8 N 0.1461(3) -0.2361(3) 0.2175(3)
N9 N 0.2223(4) -0.2970(3) 0.2231(3)
N10 N 0.2973(4) -0.3534(4) 0.2243(4)
N11 N -0.0586(4) -0.0162(3) -0.4291(3)
N12 N 0.0000 0.0000 -0.5000
Mn2A Mn -0.04573(5) 0.06472(5) 0.18423(5)
Mn3A Mn -0.00514(5) -0.15110(5) 0.30657(5)
Mn4A Mn -0.04153(5) 0.21297(5) -0.13555(5)
Mn5A Mn 0.16840(5) -0.08644(5) 0.12115(5)
Mn6A Mn 0.16940(5) 0.05846(5) -0.19426(5)
Mn7A Mn 0.12166(6) -0.02368(5) 0.30192(5)
Mn7A_2 Mn 0.12166(6) -0.02368(5) -0.69808(5)
Mn8A Mn 0.20619(5) -0.15110(5) -0.05857(5)
Mn9A Mn 0.14086(6) 0.27484(5) -0.32151(5)
C1A C 0.4059(4) -0.2643(4) -0.1710(4)
H1A H 0.3799 -0.2242 -0.2193
C2A C 0.5008(4) -0.3267(4) -0.1888(5)
H2A H 0.5379 -0.3280 -0.2478
C3A C 0.5380(5) -0.3863(4) -0.1172(5)
H3A H 0.6010 -0.4291 -0.1264
C4A C 0.4817(5) -0.3816(4) -0.0332(5)
H4A H 0.5055 -0.4216 0.0164
C5A C 0.3898(4) -0.3185(4) -0.0208(4)
H5A H 0.3522 -0.3167 0.0380
C6A C 0.2866(4) -0.2195(5) 0.3578(4)
H6A H 0.2745 -0.2227 0.3097
C7A C 0.3445(5) -0.2968(5) 0.4037(5)
H7A H 0.3710 -0.3512 0.3880
C8A C 0.3621(6) -0.2914(5) 0.4742(6)
H8A H 0.4024 -0.3426 0.5068
C9A C 0.3210(5) -0.2114(5) 0.4972(5)
H9A H 0.3316 -0.2080 0.5460
C10A C 0.2630(4) -0.1351(4) 0.4460(4)
H10A H 0.2357 -0.0801 0.4608
C11A C 0.2203(4) 0.1448(4) 0.1627(4)
H11A H 0.2041 0.1287 0.1245
C12A C 0.2568(4) 0.2223(4) 0.1277(4)
H12A H 0.2641 0.2586 0.0672
C13A C 0.2824(5) 0.2450(4) 0.1840(5)
H13A H 0.3085 0.2964 0.1618
C14A C 0.2690(5) 0.1906(4) 0.2737(5)
H14A H 0.2850 0.2047 0.3134
C15A C 0.2313(4) 0.1153(4) 0.3027(4)
H15A H 0.2220 0.0789 0.3633
C16A C 0.2985(5) 0.1728(5) -0.4782(5)
H16A H 0.2455 0.1438 -0.4512
C17A C 0.3884(6) 0.1323(6) -0.5322(5)
H17A H 0.3946 0.0775 -0.5405
C18A C 0.4682(7) 0.1722(8) -0.5734(5)
H18A H 0.5308 0.1445 -0.6074
C19A C 0.4497(6) 0.2585(8) -0.5611(5)
H19A H 0.4999 0.2909 -0.5902
C20A C 0.3619(6) 0.2922(6) -0.5088(5)
H20A H 0.3526 0.3491 -0.5027
N1A N 0.3512(3) -0.2595(3) -0.0883(3)
N2A N 0.2453(3) -0.1382(3) 0.3767(3)
N3A N 0.2071(3) 0.0910(3) 0.2504(3)
N4A N 0.2834(4) 0.2511(4) -0.4627(4)
O1A O 0.2386(2) -0.0717(2) 0.1828(2)
O2A O 0.2810(2) -0.1282(2) 0.0322(2)
C21A C 0.3440(4) -0.0763(4) 0.1500(4)
H21A H 0.3681 -0.0926 0.2013
H22A H 0.3532 -0.0150 0.1107
C22A C 0.4083(4) -0.1441(5) 0.0990(5)
H23A H 0.3992 -0.2054 0.1413
C23A C 0.3807(4) -0.1303(5) 0.0201(4)
H24A H 0.3942 -0.0720 -0.0247
H25A H 0.4263 -0.1795 -0.0060
C24A C 0.5205(4) -0.1487(5) 0.0743(5)
H26A H 0.5614 -0.1942 0.0433
H27A H 0.5382 -0.1659 0.1286
H28A H 0.5324 -0.0888 0.0353
O3A O 0.0438(3) -0.1386(2) 0.3838(2)
C25A C 0.0335(5) -0.1950(5) 0.4749(4)
H29A H 0.0991 -0.2391 0.4767
H30A H 0.0220 -0.1551 0.5090
C26A C -0.0407(9) -0.2465(7) 0.5237(6)
H31A H -0.1046 -0.1980 0.5318
C27A C -0.0401(10) -0.3061(8) 0.6221(7)
H32A H -0.0944 -0.3367 0.6506
H33A H 0.0238 -0.3520 0.6216
H34A H -0.0495 -0.2668 0.6554
C28A C -0.0575(4) -0.2982(4) 0.4800(3)
H35A H -0.1207 -0.3163 0.5169
H36A H -0.0032 -0.3549 0.4805
O4A O -0.0624(2) -0.2509(2) 0.3892(2)
O5A O 0.2784(2) -0.0420(2) -0.1656(2)
C29A C 0.3811(4) -0.0387(4) -0.2060(4)
H37A H 0.4060 -0.0529 -0.2625
H38A H 0.4200 -0.0875 -0.1662
C30A C 0.4020(7) 0.0492(6) -0.2255(7)
H39A H 0.3783 0.0606 -0.1670
C31A C 0.5177(8) 0.0412(10) -0.2623(9)
H40A H 0.5530 -0.0191 -0.2312
H41A H 0.5312 0.0885 -0.2523
H42A H 0.5406 0.0494 -0.3262
C32A C 0.3512(4) 0.1327(4) -0.2862(4)
H43A H 0.3643 0.1865 -0.2864
H44A H 0.3826 0.1285 -0.3474
O6A O 0.2444(2) 0.1490(2) -0.2651(2)
O7A O 0.0177(3) 0.3143(2) -0.2040(2)
C33A C -0.0098(4) 0.3984(4) -0.1849(4)
H45A H 0.0349 0.3933 -0.1535
H46A H 0.0007 0.4485 -0.2418
C34A C -0.1197(9) 0.4237(6) -0.1271(7)
H47A H -0.1615 0.4370 -0.1653
C35A C -0.1425(10) 0.5163(7) -0.1101(9)
H48A H -0.1191 0.5618 -0.1666
H49A H -0.2145 0.5381 -0.0846
H50A H -0.1079 0.5064 -0.0686
C36A C -0.1530(5) 0.3551(4) -0.0480(5)
H51A H -0.1200 0.3475 -0.0056
H52A H -0.2252 0.3799 -0.0226
O8A O -0.1407(2) 0.2654(2) -0.0476(2)
O9A O -0.1432(3) 0.1755(2) 0.1523(2)
O10A O -0.0018(2) 0.0984(2) 0.2521(2)
C37A C -0.1730(5) 0.2497(5) 0.1880(5)
H53A H -0.1990 0.3071 0.1451
H54A H -0.2284 0.2390 0.2437
C38A C -0.0917(7) 0.2631(6) 0.2079(7)
H55A H -0.0364 0.2721 0.1508
C39A C -0.0469(5) 0.1823(4) 0.2751(5)
H56A H -0.0997 0.1712 0.3327
H57A H 0.0045 0.1979 0.2836
C40A C -0.1335(9) 0.3571(7) 0.2296(8)
H58A H -0.1860 0.3510 0.2868
H59A H -0.0791 0.3724 0.2329
H60A H -0.1609 0.4056 0.1825
O11A O 0.2340(3) 0.3570(3) -0.3229(3)
O12A O 0.1315(3) 0.4265(3) -0.4083(3)
C41A C 0.2012(5) 0.4249(5) -0.3830(5)
C42A C 0.2443(6) 0.5103(5) -0.4256(6)
H61A H 0.2289 0.5375 -0.3798
H62A H 0.2142 0.5551 -0.4726
H63A H 0.3167 0.4918 -0.4513
O13A O 0.0880(2) 0.1106(2) -0.0615(2)
O14A O 0.1279(4) 0.0803(3) 0.0603(3)
C43A C 0.1299(3) 0.1265(3) -0.0192(3)
C44A C 0.1839(4) 0.2023(4) -0.0666(4)
H64A H 0.2505 0.1787 -0.0587
H65A H 0.1900 0.2244 -0.1303
H66A H 0.1459 0.2526 -0.0415
O15A O 0.0860(2) -0.0278(2) -0.11110(19)
O16A O -0.0926(2) 0.1018(2) -0.0608(2)
O17A O 0.0516(2) -0.0513(2) 0.2161(2)
O18A O 0.0589(2) 0.1588(2) -0.2259(2)
N5A N -0.1558(3) -0.0200(3) 0.3038(3)
N6A N -0.2243(4) 0.0184(4) 0.3560(4)
N7A N -0.2876(6) 0.0622(6) 0.3950(6)
N8A N -0.1461(3) 0.2361(3) -0.2175(3)
N9A N -0.2223(4) 0.2970(3) -0.2231(3)
N10A N -0.2973(4) 0.3534(4) -0.2243(4)
N11A N 0.0586(4) 0.0162(3) -0.5709(3)
N11A_2 N 0.0586(4) 0.0162(3) 0.4291(3)
C45 C 0.8043(5) 0.5388(4) 0.6696(4)
C46 C 0.8812(5) 0.4755(4) 0.6229(4)
H67 H 0.9472 0.4800 0.6145
H68 H 0.8726 0.4909 0.5648
H69 H 0.8754 0.4130 0.6583
N13 N 0.7446(5) 0.5905(4) 0.7061(4)
O20 O 0.4573(19) -0.4744(16) 0.6998(18)
O19? O 0.4893(10) -0.4832(9) 0.6101(10)
C47? C -0.0252(8) 0.2850(6) -0.4989(6)
C48? C -0.0199(10) 0.3374(8) -0.6005(7)
C49? C 0.4099(8) 0.0399(7) -0.2796(9)
C50? C 0.5263(8) 0.0281(10) -0.3055(10)
C51? C 0.0688(8) -0.3945(8) 0.0880(7)
C52? C 0.0935(12) -0.4910(9) 0.0781(11)
H70? H 0.0263 0.1628 -0.5127
H71? H -0.0919 0.1997 -0.4901
H72? H -0.0894 0.3175 -0.4641
H73? H 0.1224 0.2765 -0.5211
H74? H 0.0473 0.3642 -0.4929
H75? H -0.0133 0.3989 -0.6164
H76? H -0.0809 0.3414 -0.6102
H77? H 0.0379 0.3042 -0.6378
H78? H 0.4179 -0.0927 -0.2269
H79? H 0.4065 -0.0470 -0.1580
H80? H 0.4046 0.0307 -0.3309
H81? H 0.3759 0.1718 -0.3477
H82? H 0.3634 0.1528 -0.2460
H83? H 0.5625 -0.0332 -0.3101
H84? H 0.5406 0.0368 -0.2596
H85? H 0.5475 0.0736 -0.3629
H86? H -0.0517 -0.4166 0.2006
H87? H 0.0502 -0.4465 0.2237
H88? H 0.0209 -0.3531 0.0529
H89? H 0.2043 -0.3973 0.0783
H90? H 0.1811 -0.3548 -0.0147
H91? H 0.0327 -0.5126 0.1051
H92? H 0.1437 -0.5343 0.1081
H93? H 0.1194 -0.4862 0.0148
O21? O 0.3574(18) 0.3851(16) -0.2212(16)
O22? O 0.4007(15) 0.3572(14) -0.2921(15)
loop_
_geom_bond_atom_site_label_1
_geom_bond_atom_site_label_2
_geom_bond_site_symmetry_1
_geom_bond_site_symmetry_2
Mn1 O13 1_555 1_555
Mn2 O9 1_555 1_555
Mn3 O3 1_555 1_555
Mn4 O7 1_555 1_555
Mn5 O1 1_555 1_555
Mn6 O5 1_555 1_555
Mn7 N2 1_555 1_555
Mn8 N1 1_555 1_555
Mn9 N4 1_555 1_555
C1 H1 1_555 1_555
C2 C1 1_555 1_555
H2 C2 1_555 1_555
C3 C2 1_555 1_555
H3 C3 1_555 1_555
C4 C3 1_555 1_555
H4 C4 1_555 1_555
C5 C4 1_555 1_555
H5 C5 1_555 1_555
C6 H6 1_555 1_555
C7 C6 1_555 1_555
H7 C7 1_555 1_555
C8 C7 1_555 1_555
H8 C8 1_555 1_555
C9 C8 1_555 1_555
H9 C9 1_555 1_555
C10 C9 1_555 1_555
H10 C10 1_555 1_555
C11 H11 1_555 1_555
C12 C11 1_555 1_555
H12 C12 1_555 1_555
C13 C12 1_555 1_555
H13 C13 1_555 1_555
C14 C13 1_555 1_555
H14 C14 1_555 1_555
C15 C14 1_555 1_555
H15 C15 1_555 1_555
C16 H16 1_555 1_555
C17 C16 1_555 1_555
H17 C17 1_555 1_555
C18 C17 1_555 1_555
H18 C18 1_555 1_555
C19 C18 1_555 1_555
H19 C19 1_555 1_555
C20 C19 1_555 1_555
H20 C20 1_555 1_555
N1 C1 1_555 1_555
N2 C6 1_555 1_555
N3 Mn7 1_555 1_555
N4 C16 1_555 1_555
O1 Mn7 1_555 1_555
O2 Mn5 1_555 1_555
C21 O1 1_555 1_555
H21 C21 1_555 1_555
H22 C21 1_555 1_555
C22 C21 1_555 1_555
H23 C22 1_555 1_555
C23 O2 1_555 1_555
H24 C23 1_555 1_555
H25 C23 1_555 1_555
C24 C22 1_555 1_555
H26 C24 1_555 1_555
H27 C24 1_555 1_555
H28 C24 1_555 1_555
O3 Mn7 1_555 1_555
C25 O3 1_555 1_555
H29 C25 1_555 1_555
H30 C25 1_555 1_555
C26 C25 1_555 1_555
H31 C26 1_555 1_555
C27 C26 1_555 1_555
H32 C27 1_555 1_555
H33 C27 1_555 1_555
H34 C27 1_555 1_555
C28 C26 1_555 1_555
H35 C28 1_555 1_555
H36 C28 1_555 1_555
O4 Mn3 1_555 1_555
O5 Mn8 1_555 1_555
C29 O5 1_555 1_555
H37 C29 1_555 1_555
H38 C29 1_555 1_555
C30 C29 1_555 1_555
H39 C30 1_555 1_555
C31 C30 1_555 1_555
H40 C31 1_555 1_555
H41 C31 1_555 1_555
H42 C31 1_555 1_555
C32 C30 1_555 1_555
H43 C32 1_555 1_555
H44 C32 1_555 1_555
O6 Mn6 1_555 1_555
O7 Mn9 1_555 1_555
C33 O7 1_555 1_555
H45 C33 1_555 1_555
H46 C33 1_555 1_555
C34 C33 1_555 1_555
H47 C34 1_555 1_555
C35 C34 1_555 1_555
H48 C35 1_555 1_555
H49 C35 1_555 1_555
H50 C35 1_555 1_555
C36 C34 1_555 1_555
H51 C36 1_555 1_555
H52 C36 1_555 1_555
O8 Mn4 1_555 1_555
O9 C37 1_555 1_555
O10 Mn2 1_555 1_555
C37 H53 1_555 1_555
H54 C37 1_555 1_555
C38 C37 1_555 1_555
H55 C38 1_555 1_555
C39 O10 1_555 1_555
H56 C39 1_555 1_555
H57 C39 1_555 1_555
C40 C38 1_555 1_555
H58 C40 1_555 1_555
H59 C40 1_555 1_555
H60 C40 1_555 1_555
O11 Mn9 1_555 1_555
O12 Mn9 1_555 1_555
C41 O11 1_555 1_555
C42 C41 1_555 1_555
H61 C42 1_555 1_555
H62 C42 1_555 1_555
H63 C42 1_555 1_555
O13 Mn4 1_555 1_555
O14 Mn2 1_555 1_555
C43 O13 1_555 1_555
C44 C43 1_555 1_555
H64 C44 1_555 1_555
H65 C44 1_555 1_555
H66 C44 1_555 1_555
O15 Mn1 1_555 1_555
O16 Mn1 1_555 1_555
O17 Mn2 1_555 1_555
O18 Mn4 1_555 1_555
N5 Mn2 1_555 1_555
N6 N5 1_555 1_555
N7 N6 1_555 1_555
N8 Mn4 1_555 1_555
N9 N8 1_555 1_555
N10 N9 1_555 1_555
N11 Mn7 1_555 1_555
N12 N11 1_555 1_555
C45 C46 1_555 1_555
C46 H67 1_555 1_555
H68 C46 1_555 1_555
H69 C46 1_555 1_555
N13 C45 1_555 1_555
Mn2A Mn6 1_555 1_555
Mn3A O18 1_555 1_555
Mn4A O7A 1_555 1_555
Mn5A O16 1_555 1_555
Mn6A Mn2 1_555 1_555
Mn7A N2A 1_555 1_555
Mn7A_2 N11A 1_555 1_555
Mn8A O8 1_555 1_555
Mn9A O4 1_555 1_555
C1A H1A 1_555 1_555
C2A C1A 1_555 1_555
H2A C2A 1_555 1_555
C3A C2A 1_555 1_555
H3A C3A 1_555 1_555
C4A C3A 1_555 1_555
H4A C4A 1_555 1_555
C5A C4A 1_555 1_555
H5A C5A 1_555 1_555
C6A H6A 1_555 1_555
C7A C6A 1_555 1_555
H7A C7A 1_555 1_555
C8A C7A 1_555 1_555
H8A C8A 1_555 1_555
C9A C8A 1_555 1_555
H9A C9A 1_555 1_555
C10A C9A 1_555 1_555
H10A C10A 1_555 1_555
C11A H11A 1_555 1_555
C12A C11A 1_555 1_555
H12A C12A 1_555 1_555
C13A C12A 1_555 1_555
H13A C13A 1_555 1_555
C14A C13A 1_555 1_555
H14A C14A 1_555 1_555
C15A C14A 1_555 1_555
H15A C15A 1_555 1_555
C16A H16A 1_555 1_555
C17A C16A 1_555 1_555
H17A C17A 1_555 1_555
C18A C17A 1_555 1_555
H18A C18A 1_555 1_555
C19A C18A 1_555 1_555
H19A C19A 1_555 1_555
C20A C19A 1_555 1_555
H20A C20A 1_555 1_555
N1A Mn8A 1_555 1_555
N2A C6A 1_555 1_555
N3A Mn7A 1_555 1_555
N4A Mn9A 1_555 1_555
O1A Mn5A 1_555 1_555
O2A Mn5A 1_555 1_555
C21A O1A 1_555 1_555
H21A C21A 1_555 1_555
H22A C21A 1_555 1_555
C22A C21A 1_555 1_555
H23A C22A 1_555 1_555
C23A O2A 1_555 1_555
H24A C23A 1_555 1_555
H25A C23A 1_555 1_555
C24A C22A 1_555 1_555
H26A C24A 1_555 1_555
H27A C24A 1_555 1_555
H28A C24A 1_555 1_555
O3A Mn3A 1_555 1_555
C25A O3A 1_555 1_555
H29A C25A 1_555 1_555
H30A C25A 1_555 1_555
C26A C25A 1_555 1_555
H31A C26A 1_555 1_555
C27A C26A 1_555 1_555
H32A C27A 1_555 1_555
H33A C27A 1_555 1_555
H34A C27A 1_555 1_555
C28A C26A 1_555 1_555
H35A C28A 1_555 1_555
H36A C28A 1_555 1_555
O4A Mn9 1_555 1_555
O5A Mn6A 1_555 1_555
C29A O5A 1_555 1_555
H37A C29A 1_555 1_555
H38A C29A 1_555 1_555
C30A C29A 1_555 1_555
H39A C30A 1_555 1_555
C31A C30A 1_555 1_555
H40A C31A 1_555 1_555
H41A C31A 1_555 1_555
H42A C31A 1_555 1_555
C32A C30A 1_555 1_555
H43A C32A 1_555 1_555
H44A C32A 1_555 1_555
O6A Mn6A 1_555 1_555
O7A Mn9A 1_555 1_555
C33A O7A 1_555 1_555
H45A C33A 1_555 1_555
H46A C33A 1_555 1_555
C34A C33A 1_555 1_555
H47A C34A 1_555 1_555
C35A C34A 1_555 1_555
H48A C35A 1_555 1_555
H49A C35A 1_555 1_555
H50A C35A 1_555 1_555
C36A C34A 1_555 1_555
H51A C36A 1_555 1_555
H52A C36A 1_555 1_555
O8A Mn8 1_555 1_555
O9A Mn8 1_555 1_555
O10A Mn2A 1_555 1_555
C37A O9A 1_555 1_555
H53A C37A 1_555 1_555
H54A C37A 1_555 1_555
C38A C37A 1_555 1_555
H55A C38A 1_555 1_555
C39A O10A 1_555 1_555
H56A C39A 1_555 1_555
H57A C39A 1_555 1_555
C40A C38A 1_555 1_555
H58A C40A 1_555 1_555
H59A C40A 1_555 1_555
H60A C40A 1_555 1_555
O11A Mn9A 1_555 1_555
O12A Mn9A 1_555 1_555
C41A O11A 1_555 1_555
C42A C41A 1_555 1_555
H61A C42A 1_555 1_555
H62A C42A 1_555 1_555
H63A C42A 1_555 1_555
O13A Mn1 1_555 1_555
O14A Mn2A 1_555 1_555
C43A O13A 1_555 1_555
C44A C43A 1_555 1_555
H64A C44A 1_555 1_555
H65A C44A 1_555 1_555
H66A C44A 1_555 1_555
O15A Mn1 1_555 1_555
O16A Mn1 1_555 1_555
O17A Mn2A 1_555 1_555
O18A Mn3 1_555 1_555
N5A Mn6 1_555 1_555
N6A N5A 1_555 1_555
N7A N6A 1_555 1_555
N8A Mn3 1_555 1_555
N9A N8A 1_555 1_555
N10A N9A 1_555 1_555
N11A N12 1_555 1_555
N11A_2 Mn7A 1_555 1_555
Mn2 O15A 1_555 1_555
Mn3 O17 1_555 1_555
Mn3 N5 1_555 1_555
Mn4 O16 1_555 1_555
Mn5 O14 1_555 1_555
Mn5 O17 1_555 1_555
Mn5 O16A 1_555 1_555
Mn5 N8A 1_555 1_555
Mn6 O13 1_555 1_555
Mn6 O15 1_555 1_555
Mn6 O18 1_555 1_555
Mn7 O10 1_555 1_555
Mn7 O17 1_555 1_555
Mn8 O2 1_555 1_555
Mn8 O15 1_555 1_555
Mn8 O16A 1_555 1_555
Mn9 O6 1_555 1_555
Mn9 O18 1_555 1_555
C5 N1 1_555 1_555
C10 N2 1_555 1_555
C11 N3 1_555 1_555
C15 N3 1_555 1_555
C20 N4 1_555 1_555
C22 C23 1_555 1_555
C28 O4 1_555 1_555
C32 O6 1_555 1_555
C36 O8 1_555 1_555
O9 Mn8A 1_555 1_555
C38 C39 1_555 1_555
O12 C41 1_555 1_555
O14 C43 1_555 1_555
O15 Mn2A 1_555 1_555
O16 Mn8A 1_555 1_555
N5 Mn6A 1_555 1_555
N8 Mn3A 1_555 1_555
N8 Mn5A 1_555 1_555
Mn2A O9A 1_555 1_555
Mn2A N5A 1_555 1_555
Mn3A O4A 1_555 1_555
Mn3A O17A 1_555 1_555
Mn3A N5A 1_555 1_555
Mn4A O8A 1_555 1_555
Mn4A O13A 1_555 1_555
Mn4A O16A 1_555 1_555
Mn4A O18A 1_555 1_555
Mn4A N8A 1_555 1_555
Mn5A O14A 1_555 1_555
Mn5A O17A 1_555 1_555
Mn6A O13A 1_555 1_555
Mn6A O15A 1_555 1_555
Mn6A O18A 1_555 1_555
Mn7A O1A 1_555 1_555
Mn7A O3A 1_555 1_555
Mn7A O10A 1_555 1_555
Mn7A O17A 1_555 1_555
Mn8A O2A 1_555 1_555
Mn8A O5A 1_555 1_555
Mn8A O15A 1_555 1_555
Mn9A O6A 1_555 1_555
Mn9A O18A 1_555 1_555
C1A N1A 1_555 1_555
C5A N1A 1_555 1_555
C10A N2A 1_555 1_555
C11A N3A 1_555 1_555
C15A N3A 1_555 1_555
C16A N4A 1_555 1_555
C20A N4A 1_555 1_555
C22A C23A 1_555 1_555
C28A O4A 1_555 1_555
C32A O6A 1_555 1_555
C36A O8A 1_555 1_555
C38A C39A 1_555 1_555
O12A C41A 1_555 1_555
O14A C43A 1_555 1_555

#END
