
#######################################################################
#
#                 Cambridge Crystallographic Data Centre
#                                CCDC 
#
#######################################################################
#
# If this CIF has been generated from an entry in the Cambridge 
# Structural Database, then it will include bibliographic, chemical, 
# crystal, experimental, refinement or atomic coordinate data resulting 
# from the CCDC's data processing and validation procedures.
#
#######################################################################

data_DUFNIC
_symmetry_cell_setting           triclinic
_symmetry_space_group_name_H-M   'P -1'
_symmetry_Int_Tables_number      2
_space_group_name_Hall           '-P 1'
loop_
_symmetry_equiv_pos_site_id
_symmetry_equiv_pos_as_xyz
1 x,y,z
2 -x,-y,-z
_cell_length_a                   14.0508(17)
_cell_length_b                   14.6997(16)
_cell_length_c                   15.200(2)
_cell_angle_alpha                81.603(10)
_cell_angle_beta                 66.662(12)
_cell_angle_gamma                78.311(10)
_cell_volume                     2815.25
loop_
_atom_site_label
_atom_site_type_symbol
_atom_site_fract_x
_atom_site_fract_y
_atom_site_fract_z
Mn1 Mn 1.0000 0.0000 0.0000
Mn2 Mn 1.19781(5) 0.16997(4) -0.27335(4)
Mn3 Mn 1.22668(4) 0.08803(4) -0.07481(4)
Mn4 Mn 0.98354(5) -0.21773(4) 0.06845(4)
Mn5 Mn 0.80306(4) 0.04566(4) 0.21822(4)
Mn6 Mn 1.01265(5) -0.08095(4) 0.20574(4)
Mn7 Mn 0.57947(5) -0.04248(4) 0.28506(4)
Mn8 Mn 0.96993(5) -0.13423(4) -0.13480(4)
Mn9 Mn 1.01659(5) -0.29755(4) 0.26489(4)
N1 N 0.4608(3) 0.0775(2) 0.2519(2)
C1 C 0.3606(3) 0.0976(3) 0.3106(3)
H1 H 0.3300 0.0510 0.3550
C2 C 0.2997(3) 0.1839(3) 0.3092(3)
H2 H 0.2301 0.1948 0.3514
C3 C 0.3445(4) 0.2530(3) 0.2439(3)
H3 H 0.3065 0.3125 0.2422
C4 C 0.4463(3) 0.2326(3) 0.1814(3)
H4 H 0.4781 0.2778 0.1357
C5 C 0.5010(3) 0.1450(3) 0.1867(3)
H5 H 0.5696 0.1318 0.1426
N2 N 0.4712(3) -0.1595(2) 0.3181(2)
C6 C 0.5162(4) -0.2356(3) 0.2681(3)
H6 H 0.5790 -0.2338 0.2154
C7 C 0.4732(4) -0.3150(3) 0.2918(4)
H7 H 0.5062 -0.3659 0.2550
C8 C 0.3815(4) -0.3203(4) 0.3697(4)
H8 H 0.3511 -0.3741 0.3863
C9 C 0.3367(4) -0.2451(4) 0.4218(3)
H9 H 0.2754 -0.2472 0.4761
C10 C 0.3819(3) -0.1651(3) 0.3944(3)
H10 H 0.3491 -0.1135 0.4303
N3 N 0.9566(2) -0.2252(2) -0.2343(2)
C11 C 1.0017(3) -0.2083(3) -0.3295(3)
H11 H 1.0323 -0.1548 -0.3530
C12 C 1.0051(3) -0.2659(4) -0.3940(3)
H12 H 1.0375 -0.2520 -0.4598
C13 C 0.9602(4) -0.3441(4) -0.3600(4)
H13 H 0.9622 -0.3848 -0.4024
C14 C 0.9127(4) -0.3624(3) -0.2646(4)
H14 H 0.8807 -0.4151 -0.2405
C15 C 0.9122(3) -0.3020(3) -0.2035(3)
H15 H 0.8795 -0.3152 -0.1377
O1 O 1.0858(2) -0.17974(17) 0.25823(19)
O2 O 1.0728(2) 0.01354(17) 0.22261(18)
C16 C 1.1626(4) -0.1742(3) 0.2967(4)
H16 H 1.2154 -0.2296 0.2832
H17 H 1.1288 -0.1719 0.3659
C17 C 1.2152(4) -0.0885(3) 0.2538(4)
H18 H 1.2680 -0.0881 0.2798
H19 H 1.2503 -0.0917 0.1848
C18 C 1.1395(3) -0.0014(3) 0.2744(3)
H20 H 1.0969 -0.0030 0.3426
H21 H 1.1777 0.0505 0.2588
O3 O 0.65967(19) 0.07783(17) 0.28519(18)
O4 O 0.84692(19) 0.15268(17) 0.23101(18)
C19 C 0.6135(3) 0.1559(3) 0.3416(3)
H22 H 0.6119 0.1374 0.4061
H23 H 0.5415 0.1745 0.3463
C20 C 0.6697(3) 0.2374(3) 0.3027(3)
H24 H 0.6689 0.2571 0.2391
H25 H 0.6315 0.2884 0.3433
C21 C 0.7797(3) 0.2200(3) 0.2958(3)
H26 H 0.8074 0.2782 0.2758
H27 H 0.7806 0.1997 0.3591
O5 O 1.1505(2) 0.27612(17) -0.33989(18)
O6 O 1.3383(2) 0.15971(18) -0.35026(18)
C22 C 1.2081(3) 0.3100(3) -0.4351(3)
H28 H 1.2006 0.2746 -0.4805
H29 H 1.1796 0.3746 -0.4454
C23 C 1.3226(6) 0.3022(6) -0.4532(6)
H30 H 1.3288 0.3417 -0.4106
H31 H 1.3580 0.3269 -0.5185
C24 C 1.3776(4) 0.2109(3) -0.4408(3)
H32 H 1.4495 0.2167 -0.4536
H33 H 1.3796 0.1739 -0.4896
O7 O 1.2106(2) 0.12329(18) 0.04420(18)
O8 O 1.37296(19) 0.07996(17) -0.13596(17)
C25 C 1.2952(3) 0.1203(3) 0.0735(3)
H34 H 1.2741 0.1639 0.1225
H35 H 1.3102 0.0584 0.1021
C26 C 1.3940(3) 0.1435(3) -0.0070(3)
H36 H 1.3794 0.2055 -0.0355
H37 H 1.4466 0.1442 0.0192
C27 C 1.4383(3) 0.0753(3) -0.0847(3)
H38 H 1.4474 0.0126 -0.0555
H39 H 1.5068 0.0883 -0.1291
O9 O 1.0455(2) -0.32718(17) 0.12024(18)
O10 O 1.0164(2) -0.25819(17) -0.05277(17)
C28 C 1.1024(3) -0.4074(3) 0.0706(3)
H40 H 1.0901 -0.4620 0.1153
H41 H 1.1768 -0.4041 0.0463
C29 C 1.0738(10) -0.4181(6) -0.0098(6)
H42 H 1.1192 -0.4725 -0.0415
H43 H 1.0028 -0.4323 0.0174
C30 C 1.0772(4) -0.3444(3) -0.0820(3)
H44 H 1.1497 -0.3351 -0.1153
H45 H 1.0556 -0.3645 -0.1283
C31 C 1.1654(4) -0.4817(3) 0.4133(4)
H46 H 1.2213 -0.5221 0.3697
H47 H 1.1179 -0.5183 0.4620
H48 H 1.1941 -0.4467 0.4427
C32 C 1.1073(4) -0.4157(3) 0.3587(4)
O11 O 1.0322(3) -0.3604(3) 0.4031(2)
O12 O 1.1369(3) -0.4171(2) 0.2701(3)
C33 C 1.2719(3) -0.2177(3) 0.0258(3)
H49 H 1.2931 -0.2590 -0.0244
H50 H 1.2290 -0.2466 0.0853
H51 H 1.3330 -0.2044 0.0320
C34 C 1.2110(3) -0.1296(2) 0.0017(3)
O13 O 1.1112(2) -0.11990(17) 0.03751(18)
O14 O 1.2585(2) -0.0697(2) -0.0498(3)
N4 N 1.1871(2) 0.2441(2) -0.1350(2)
N5 N 1.2137(3) 0.3036(2) -0.1065(3)
N6 N 1.2369(3) 0.3577(3) -0.0745(3)
N7 N 0.8533(2) -0.0518(2) 0.3297(2)
N8 N 0.8420(3) -0.0287(2) 0.4073(3)
N9 N 0.8313(3) -0.0032(4) 0.4779(3)
N10 N 0.4773(3) -0.0103(2) 0.4362(2)
N11 N 0.5000 0.0000 0.5000
O15 O 0.92491(19) -0.10067(16) 0.01850(16)
O16 O 0.94703(19) -0.17622(16) 0.19163(16)
O17 O 1.23662(19) 0.06432(16) -0.19881(17)
O18 O 0.94862(18) 0.01421(16) 0.13512(16)
N10A N 0.5227(3) 0.0103(2) 0.5638(2)
C33A C 0.7281(3) 0.2177(3) -0.0258(3)
H49A H 0.7069 0.2590 0.0244
H50A H 0.7710 0.2466 -0.0853
H51A H 0.6670 0.2044 -0.0320
C34A C 0.7890(3) 0.1296(2) -0.0017(3)
O13A O 0.8888(2) 0.11990(17) -0.03751(18)
O14A O 0.7415(2) 0.0697(2) 0.0498(3)
O15A O 1.07509(19) 0.10067(16) -0.01850(16)
O18A O 1.05138(18) -0.01421(16) -0.13512(16)
Mn3A Mn 0.77332(4) -0.08803(4) 0.07481(4)
Mn4A Mn 1.01646(5) 0.21773(4) -0.06845(4)
Mn5A Mn 1.19694(4) -0.04566(4) -0.21822(4)
Mn6A Mn 0.98735(5) 0.08095(4) -0.20574(4)
Mn8A Mn 1.03007(5) 0.13423(4) 0.13480(4)
N4A N 0.8129(2) -0.2441(2) 0.1350(2)
N5A N 0.7863(3) -0.3036(2) 0.1065(3)
N6A N 0.7631(3) -0.3577(3) 0.0745(3)
O17A O 0.76338(19) -0.06432(16) 0.19881(17)
O1A O 0.9142(2) 0.17974(17) -0.25823(19)
O2A O 0.9272(2) -0.01354(17) -0.22261(18)
C16A C 0.8374(4) 0.1742(3) -0.2967(4)
H16A H 0.7846 0.2296 -0.2832
H17A H 0.8712 0.1719 -0.3659
C17A C 0.7848(4) 0.0885(3) -0.2538(4)
H18A H 0.7320 0.0881 -0.2798
H19A H 0.7497 0.0917 -0.1848
C18A C 0.8605(3) 0.0014(3) -0.2744(3)
H20A H 0.9031 0.0030 -0.3426
H21A H 0.8223 -0.0505 -0.2588
O3A O 1.34033(19) -0.07783(17) -0.28519(18)
O4A O 1.15308(19) -0.15268(17) -0.23101(18)
C19A C 1.3865(3) -0.1559(3) -0.3416(3)
H22A H 1.3881 -0.1374 -0.4061
H23A H 1.4585 -0.1745 -0.3463
C20A C 1.3303(3) -0.2374(3) -0.3027(3)
H24A H 1.3311 -0.2571 -0.2391
H25A H 1.3685 -0.2884 -0.3433
C21A C 1.2203(3) -0.2200(3) -0.2958(3)
H26A H 1.1926 -0.2782 -0.2758
H27A H 1.2194 -0.1997 -0.3591
O7A O 0.7894(2) -0.12329(18) -0.04420(18)
O8A O 0.62704(19) -0.07996(17) 0.13596(17)
C25A C 0.7048(3) -0.1203(3) -0.0735(3)
H34A H 0.7259 -0.1639 -0.1225
H35A H 0.6898 -0.0584 -0.1021
C26A C 0.6060(3) -0.1435(3) 0.0070(3)
H36A H 0.6206 -0.2055 0.0355
H37A H 0.5534 -0.1442 -0.0192
C27A C 0.5617(3) -0.0753(3) 0.0847(3)
H38A H 0.5526 -0.0126 0.0555
H39A H 0.4932 -0.0883 0.1291
O9A O 0.9545(2) 0.32718(17) -0.12024(18)
O10A O 0.9836(2) 0.25819(17) 0.05277(17)
C28A C 0.8976(3) 0.4074(3) -0.0706(3)
H40A H 0.9099 0.4620 -0.1153
H41A H 0.8232 0.4041 -0.0463
C29A C 0.9262(10) 0.4181(6) 0.0098(6)
H42A H 0.8808 0.4725 0.0415
H43A H 0.9972 0.4323 -0.0174
C30A C 0.9228(4) 0.3444(3) 0.0820(3)
H44A H 0.8503 0.3351 0.1153
H45A H 0.9444 0.3645 0.1283
O16A O 1.05297(19) 0.17622(16) -0.19163(16)
N7A N 1.1467(2) 0.0518(2) -0.3297(2)
N8A N 1.1580(3) 0.0287(2) -0.4073(3)
N9A N 1.1687(3) 0.0032(4) -0.4779(3)
N3A N 1.0434(2) 0.2252(2) 0.2343(2)
C11A C 0.9983(3) 0.2083(3) 0.3295(3)
H11A H 0.9677 0.1548 0.3530
C12A C 0.9949(3) 0.2659(4) 0.3940(3)
H12A H 0.9625 0.2520 0.4598
C13A C 1.0398(4) 0.3441(4) 0.3600(4)
H13A H 1.0378 0.3848 0.4024
C14A C 1.0873(4) 0.3624(3) 0.2646(4)
H14A H 1.1193 0.4151 0.2405
C15A C 1.0878(3) 0.3020(3) 0.2035(3)
H15A H 1.1205 0.3152 0.1377
Mn2A Mn 0.80219(5) -0.16997(4) 0.27335(4)
Mn7A Mn 1.42053(5) 0.04248(4) -0.28506(4)
Mn9A Mn 0.98341(5) 0.29755(4) -0.26489(4)
O5A O 0.8495(2) -0.27612(17) 0.33989(18)
O6A O 0.6617(2) -0.15971(18) 0.35026(18)
C22A C 0.7919(3) -0.3100(3) 0.4351(3)
H28A H 0.7994 -0.2746 0.4805
H29A H 0.8204 -0.3746 0.4454
C23A C 0.6774(6) -0.3022(6) 0.4532(6)
H30A H 0.6712 -0.3417 0.4106
H31A H 0.6420 -0.3269 0.5185
C24A C 0.6224(4) -0.2109(3) 0.4408(3)
H32A H 0.5505 -0.2167 0.4536
H33A H 0.6204 -0.1739 0.4896
N1A N 1.5392(3) -0.0775(2) -0.2519(2)
C1A C 1.6394(3) -0.0976(3) -0.3106(3)
H1A H 1.6700 -0.0510 -0.3550
C2A C 1.7003(3) -0.1839(3) -0.3092(3)
H2A H 1.7699 -0.1948 -0.3514
C3A C 1.6555(4) -0.2530(3) -0.2439(3)
H3A H 1.6935 -0.3125 -0.2422
C4A C 1.5537(3) -0.2326(3) -0.1814(3)
H4A H 1.5219 -0.2778 -0.1357
C5A C 1.4990(3) -0.1450(3) -0.1867(3)
H5A H 1.4304 -0.1318 -0.1426
N2A N 1.5288(3) 0.1595(2) -0.3181(2)
C6A C 1.4838(4) 0.2356(3) -0.2681(3)
H6A H 1.4210 0.2338 -0.2154
C7A C 1.5268(4) 0.3150(3) -0.2918(4)
H7A H 1.4938 0.3659 -0.2550
C8A C 1.6185(4) 0.3203(4) -0.3697(4)
H8A H 1.6489 0.3741 -0.3863
C9A C 1.6633(4) 0.2451(4) -0.4218(3)
H9A H 1.7246 0.2472 -0.4761
C10A C 1.6181(3) 0.1651(3) -0.3944(3)
H10A H 1.6509 0.1135 -0.4303
C31A C 0.8346(4) 0.4817(3) -0.4133(4)
H46A H 0.7787 0.5221 -0.3697
H47A H 0.8821 0.5183 -0.4620
H48A H 0.8059 0.4467 -0.4427
C32A C 0.8927(4) 0.4157(3) -0.3587(4)
O11A O 0.9678(3) 0.3604(3) -0.4031(2)
O12A O 0.8631(3) 0.4171(2) -0.2701(3)
Mn7A_2 Mn 0.42053(5) 0.04248(4) 0.71494(4)
N10A_2 N 1.5227(3) 0.0103(2) -0.4362(2)
C35 C 0.7920(5) 0.4726(4) 0.3387(4)
C36 C 0.8388(6) 0.5293(4) 0.2575(4)
H52 H 0.8285 0.5917 0.2751
H53 H 0.8076 0.5292 0.2116
H54 H 0.9127 0.5063 0.2296
N12 N 0.7522(5) 0.4277(4) 0.4068(4)
O19 O 0.5150(14) -0.4208(12) 0.0544(11)
O20 O 0.3370(11) 0.4907(9) 0.1735(10)
C37? C 0.6908(9) -0.2434(9) 0.4856(8)
C38? C 1.1407(12) -0.3889(8) -0.0389(8)
H55? H 0.8358 -0.3194 0.4724
H56? H 0.7741 -0.3699 0.4333
H57? H 0.6526 -0.2747 0.5466
H58? H 0.7111 -0.1899 0.5000
H59? H 0.5635 -0.1710 0.4838
H60? H 0.5954 -0.2632 0.4321
H61? H 1.0579 -0.4552 0.0903
H62? H 1.1621 -0.4310 0.0889
H63? H 1.1988 -0.3544 -0.0582
H64? H 1.1698 -0.4489 -0.0659
H65? H 1.0290 -0.3861 -0.0756
H66? H 1.1191 -0.3358 -0.1500
O21? O 0.5051(15) -0.4743(12) 0.5349(13)
loop_
_geom_bond_atom_site_label_1
_geom_bond_atom_site_label_2
_geom_bond_site_symmetry_1
_geom_bond_site_symmetry_2
Mn1 O13 1_555 1_555
Mn2 O5 1_555 1_555
Mn3 O7 1_555 1_555
Mn4 O9 1_555 1_555
Mn5 O3 1_555 1_555
Mn6 O1 1_555 1_555
Mn7 N1 1_555 1_555
Mn8 N3 1_555 1_555
Mn9 O1 1_555 1_555
N1 C1 1_555 1_555
C1 H1 1_555 1_555
C2 C1 1_555 1_555
H2 C2 1_555 1_555
C3 C2 1_555 1_555
H3 C3 1_555 1_555
C4 C3 1_555 1_555
H4 C4 1_555 1_555
C5 N1 1_555 1_555
H5 C5 1_555 1_555
N2 Mn7 1_555 1_555
C6 N2 1_555 1_555
H6 C6 1_555 1_555
C7 C6 1_555 1_555
H7 C7 1_555 1_555
C8 C7 1_555 1_555
H8 C8 1_555 1_555
C9 C8 1_555 1_555
H9 C9 1_555 1_555
C10 N2 1_555 1_555
H10 C10 1_555 1_555
N3 C11 1_555 1_555
C11 H11 1_555 1_555
C12 C11 1_555 1_555
H12 C12 1_555 1_555
C13 C12 1_555 1_555
H13 C13 1_555 1_555
C14 C13 1_555 1_555
H14 C14 1_555 1_555
C15 N3 1_555 1_555
H15 C15 1_555 1_555
O1 C16 1_555 1_555
O2 Mn6 1_555 1_555
C16 H16 1_555 1_555
H17 C16 1_555 1_555
C17 C16 1_555 1_555
H18 C17 1_555 1_555
H19 C17 1_555 1_555
C18 O2 1_555 1_555
H20 C18 1_555 1_555
H21 C18 1_555 1_555
O3 Mn7 1_555 1_555
O4 Mn5 1_555 1_555
C19 O3 1_555 1_555
H22 C19 1_555 1_555
H23 C19 1_555 1_555
C20 C19 1_555 1_555
H24 C20 1_555 1_555
H25 C20 1_555 1_555
C21 O4 1_555 1_555
H26 C21 1_555 1_555
H27 C21 1_555 1_555
O5 C22 1_555 1_555
O6 Mn2 1_555 1_555
C22 H28 1_555 1_555
H29 C22 1_555 1_555
C23 C22 1_555 1_555
H30 C23 1_555 1_555
H31 C23 1_555 1_555
C24 O6 1_555 1_555
H32 C24 1_555 1_555
H33 C24 1_555 1_555
O7 C25 1_555 1_555
O8 Mn3 1_555 1_555
C25 H34 1_555 1_555
H35 C25 1_555 1_555
C26 C25 1_555 1_555
H36 C26 1_555 1_555
H37 C26 1_555 1_555
C27 O8 1_555 1_555
H38 C27 1_555 1_555
H39 C27 1_555 1_555
O9 Mn9 1_555 1_555
O10 Mn4 1_555 1_555
C28 O9 1_555 1_555
H40 C28 1_555 1_555
H41 C28 1_555 1_555
C29 C28 1_555 1_555
H42 C29 1_555 1_555
H43 C29 1_555 1_555
C30 O10 1_555 1_555
H44 C30 1_555 1_555
H45 C30 1_555 1_555
C31 H46 1_555 1_555
H47 C31 1_555 1_555
H48 C31 1_555 1_555
C32 C31 1_555 1_555
O11 Mn9 1_555 1_555
O12 Mn9 1_555 1_555
C33 H49 1_555 1_555
H50 C33 1_555 1_555
H51 C33 1_555 1_555
C34 C33 1_555 1_555
O13 Mn4 1_555 1_555
O14 Mn3 1_555 1_555
N4 Mn2 1_555 1_555
N5 N4 1_555 1_555
N6 N5 1_555 1_555
N7 Mn5 1_555 1_555
N8 N7 1_555 1_555
N9 N8 1_555 1_555
N10 Mn7 1_555 1_555
N11 N10 1_555 1_555
O15 Mn1 1_555 1_555
O16 Mn4 1_555 1_555
O17 Mn2 1_555 1_555
O18 Mn1 1_555 1_555
C35 C36 1_555 1_555
C36 H52 1_555 1_555
H53 C36 1_555 1_555
H54 C36 1_555 1_555
N12 C35 1_555 1_555
N10A N11 1_555 1_555
C33A H49A 1_555 1_555
H50A C33A 1_555 1_555
H51A C33A 1_555 1_555
C34A C33A 1_555 1_555
O13A Mn1 1_555 1_555
O14A C34A 1_555 1_555
O15A Mn1 1_555 1_555
O18A Mn1 1_555 1_555
Mn3A O15 1_555 1_555
Mn4A N4 1_555 1_555
Mn5A O17 1_555 1_555
Mn6A O13A 1_555 1_555
Mn8A O2 1_555 1_555
N4A Mn4 1_555 1_555
N5A N4A 1_555 1_555
N6A N5A 1_555 1_555
O17A Mn5 1_555 1_555
O1A Mn6A 1_555 1_555
O2A Mn8 1_555 1_555
C16A O1A 1_555 1_555
H16A C16A 1_555 1_555
H17A C16A 1_555 1_555
C17A C16A 1_555 1_555
H18A C17A 1_555 1_555
H19A C17A 1_555 1_555
C18A O2A 1_555 1_555
H20A C18A 1_555 1_555
H21A C18A 1_555 1_555
O3A Mn5A 1_555 1_555
O4A Mn8 1_555 1_555
C19A O3A 1_555 1_555
H22A C19A 1_555 1_555
H23A C19A 1_555 1_555
C20A C19A 1_555 1_555
H24A C20A 1_555 1_555
H25A C20A 1_555 1_555
C21A O4A 1_555 1_555
H26A C21A 1_555 1_555
H27A C21A 1_555 1_555
O7A Mn8 1_555 1_555
O8A Mn7 1_555 1_555
C25A O7A 1_555 1_555
H34A C25A 1_555 1_555
H35A C25A 1_555 1_555
C26A C25A 1_555 1_555
H36A C26A 1_555 1_555
H37A C26A 1_555 1_555
C27A O8A 1_555 1_555
H38A C27A 1_555 1_555
H39A C27A 1_555 1_555
O9A Mn4A 1_555 1_555
O10A Mn4A 1_555 1_555
C28A O9A 1_555 1_555
H40A C28A 1_555 1_555
H41A C28A 1_555 1_555
C29A C28A 1_555 1_555
H42A C29A 1_555 1_555
H43A C29A 1_555 1_555
C30A O10A 1_555 1_555
H44A C30A 1_555 1_555
H45A C30A 1_555 1_555
O16A Mn2 1_555 1_555
N7A Mn2 1_555 1_555
N8A N7A 1_555 1_555
N9A N8A 1_555 1_555
N3A Mn8A 1_555 1_555
C11A N3A 1_555 1_555
H11A C11A 1_555 1_555
C12A C11A 1_555 1_555
H12A C12A 1_555 1_555
C13A C12A 1_555 1_555
H13A C13A 1_555 1_555
C14A C13A 1_555 1_555
H14A C14A 1_555 1_555
C15A N3A 1_555 1_555
H15A C15A 1_555 1_555
Mn2A N7 1_555 1_555
Mn7A O6 1_555 1_555
Mn9A O5 1_555 1_555
O5A Mn9 1_555 1_555
O6A Mn7 1_555 1_555
C22A O5A 1_555 1_555
H28A C22A 1_555 1_555
H29A C22A 1_555 1_555
C23A C22A 1_555 1_555
H30A C23A 1_555 1_555
H31A C23A 1_555 1_555
C24A O6A 1_555 1_555
H32A C24A 1_555 1_555
H33A C24A 1_555 1_555
N1A Mn7A 1_555 1_555
C1A N1A 1_555 1_555
H1A C1A 1_555 1_555
C2A C1A 1_555 1_555
H2A C2A 1_555 1_555
C3A C2A 1_555 1_555
H3A C3A 1_555 1_555
C4A C3A 1_555 1_555
H4A C4A 1_555 1_555
C5A N1A 1_555 1_555
H5A C5A 1_555 1_555
N2A Mn7A 1_555 1_555
C6A N2A 1_555 1_555
H6A C6A 1_555 1_555
C7A C6A 1_555 1_555
H7A C7A 1_555 1_555
C8A C7A 1_555 1_555
H8A C8A 1_555 1_555
C9A C8A 1_555 1_555
H9A C9A 1_555 1_555
C10A N2A 1_555 1_555
H10A C10A 1_555 1_555
C31A H46A 1_555 1_555
H47A C31A 1_555 1_555
H48A C31A 1_555 1_555
C32A C31A 1_555 1_555
O11A Mn9A 1_555 1_555
O12A Mn9A 1_555 1_555
Mn7A_2 N10A 1_555 1_555
N10A_2 Mn7A 1_555 1_555
Mn3 O17 1_555 1_555
Mn3 O15A 1_555 1_555
Mn3 N4 1_555 1_555
Mn4 O15 1_555 1_555
Mn5 O18 1_555 1_555
Mn6 O13 1_555 1_555
Mn6 O18 1_555 1_555
Mn6 N7 1_555 1_555
Mn6 O16 1_555 1_555
Mn7 O17A 1_555 1_555
Mn8 O15 1_555 1_555
Mn8 O18A 1_555 1_555
Mn8 O10 1_555 1_555
Mn9 O16 1_555 1_555
C4 C5 1_555 1_555
C9 C10 1_555 1_555
C14 C15 1_555 1_555
C17 C18 1_555 1_555
O4 Mn8A 1_555 1_555
C20 C21 1_555 1_555
C23 C24 1_555 1_555
O7 Mn8A 1_555 1_555
O8 Mn7A 1_555 1_555
C26 C27 1_555 1_555
C29 C30 1_555 1_555
C32 O11 1_555 1_555
C32 O12 1_555 1_555
C34 O13 1_555 1_555
C34 O14 1_555 1_555
O16 Mn2A 1_555 1_555
O17 Mn7A 1_555 1_555
O18 Mn8A 1_555 1_555
C34A O13A 1_555 1_555
O13A Mn4A 1_555 1_555
O14A Mn3A 1_555 1_555
O15A Mn8A 1_555 1_555
O15A Mn4A 1_555 1_555
O18A Mn5A 1_555 1_555
O18A Mn6A 1_555 1_555
Mn3A O8A 1_555 1_555
Mn3A O7A 1_555 1_555
Mn3A N4A 1_555 1_555
Mn3A O17A 1_555 1_555
Mn4A O16A 1_555 1_555
Mn5A N7A 1_555 1_555
Mn5A O4A 1_555 1_555
Mn6A O2A 1_555 1_555
Mn6A N7A 1_555 1_555
Mn6A O16A 1_555 1_555
Mn8A O10A 1_555 1_555
N4A Mn2A 1_555 1_555
O17A Mn2A 1_555 1_555
O1A Mn9A 1_555 1_555
C17A C18A 1_555 1_555
O3A Mn7A 1_555 1_555
C20A C21A 1_555 1_555
C26A C27A 1_555 1_555
O9A Mn9A 1_555 1_555
C29A C30A 1_555 1_555
O16A Mn9A 1_555 1_555
C14A C15A 1_555 1_555
Mn2A O5A 1_555 1_555
Mn2A O6A 1_555 1_555
C23A C24A 1_555 1_555
C4A C5A 1_555 1_555
C9A C10A 1_555 1_555
C32A O11A 1_555 1_555
C32A O12A 1_555 1_555

#END
