
#######################################################################
#
#                 Cambridge Crystallographic Data Centre
#                                CCDC 
#
#######################################################################
#
# If this CIF has been generated from an entry in the Cambridge 
# Structural Database, then it will include bibliographic, chemical, 
# crystal, experimental, refinement or atomic coordinate data resulting 
# from the CCDC's data processing and validation procedures.
#
#######################################################################

data_DUFQEA
_symmetry_cell_setting           orthorhombic
_symmetry_space_group_name_H-M   'P b c a'
_symmetry_Int_Tables_number      61
_space_group_name_Hall           '-P 2ac 2ab'
loop_
_symmetry_equiv_pos_site_id
_symmetry_equiv_pos_as_xyz
1 x,y,z
2 1/2+x,y,1/2-z
3 x,1/2-y,1/2+z
4 1/2-x,1/2+y,z
5 -x,-y,-z
6 1/2-x,-y,1/2+z
7 -x,1/2+y,1/2-z
8 1/2+x,1/2-y,-z
_cell_length_a                   7.0050(3)
_cell_length_b                   19.8147(8)
_cell_length_c                   27.2050(10)
_cell_angle_alpha                90
_cell_angle_beta                 90
_cell_angle_gamma                90
_cell_volume                     3776.11
loop_
_atom_site_label
_atom_site_type_symbol
_atom_site_fract_x
_atom_site_fract_y
_atom_site_fract_z
Cu1 Cu 0.41607(6) 0.04353(2) -0.383520(17)
O1 O 0.5884(4) 0.10110(14) -0.49724(11)
H1 H 0.6652 0.1322 -0.4994
O2 O 0.4224(5) 0.17590(14) -0.45381(12)
N1 N 0.3404(4) -0.00606(15) -0.31986(12)
N2 N 0.4526(5) 0.12109(16) -0.33074(12)
N3 N -0.3201(4) 0.00686(16) -0.39805(11)
C1 C 0.2957(6) -0.0721(2) -0.31630(16)
H2 H 0.2821 -0.0971 -0.3451
C2 C 0.2694(6) -0.1041(2) -0.27211(18)
H3 H 0.2405 -0.1515 -0.2709
C3 C 0.2864(7) -0.0676(3) -0.22950(18)
H4 H 0.2649 -0.0887 -0.1982
C4 C 0.3336(6) 0.0000(2) -0.23235(15)
H5 H 0.3485 0.0265 -0.2031
C5 C 0.3606(5) 0.0298(2) -0.27808(15)
C6 C 0.4163(5) 0.1014(2) -0.28407(15)
C7 C 0.4277(6) 0.1465(2) -0.24534(17)
H6 H 0.4004 0.1317 -0.2125
C8 C 0.4787(7) 0.2118(2) -0.25445(19)
H7 H 0.4891 0.2435 -0.2279
C9 C 0.5160(7) 0.2324(2) -0.3017(2)
H8 H 0.5514 0.2783 -0.3085
C10 C 0.5032(7) 0.1851(2) -0.33897(18)
H9 H 0.5297 0.1992 -0.3720
C11 C -0.3018(6) -0.05866(19) -0.40894(15)
H10 H -0.4117 -0.0873 -0.4058
C12 C -0.1327(6) -0.0861(2) -0.42397(17)
H11 H -0.1250 -0.1333 -0.4315
C13 C 0.0251(6) -0.0457(2) -0.42904(17)
H12 H 0.1443 -0.0646 -0.4396
C14 C 0.0122(5) 0.02268(19) -0.41819(14)
C15 C -0.1659(5) 0.04620(19) -0.40258(14)
H13 H -0.1782 0.0932 -0.3945
C16 C 0.3257(6) 0.06118(19) -0.45392(14)
H14 H 0.3208 0.0235 -0.4760
C17 C 0.4470(6) 0.1190(2) -0.46813(14)
C18 C 0.1694(5) 0.07138(19) -0.42440(14)
H15 H 0.1622 0.1118 -0.4071
N3_2 N 0.6799(4) 0.00686(16) -0.39805(11)
Cu1_2 Cu -0.58393(6) 0.04353(2) -0.383520(17)
F1 F 0.3970(5) 0.19224(14) -0.65375(11)
F2 F 0.6659(7) 0.2054(2) -0.61135(17)
F3 F 0.3956(7) 0.2281(2) -0.57658(16)
F4 F 0.5003(7) 0.29643(16) -0.63466(15)
B1 B 0.4869(10) 0.2317(3) -0.6194(2)
O3 O 0.8514(5) 0.19237(15) -0.50913(13)
H16 H 0.7121 0.1981 -0.5114
H17 H 0.8872 0.2236 -0.4828
loop_
_geom_bond_atom_site_label_1
_geom_bond_atom_site_label_2
_geom_bond_site_symmetry_1
_geom_bond_site_symmetry_2
Cu1 N1 1_555 1_555
O1 H1 1_555 1_555
O2 C17 1_555 1_555
N1 C1 1_555 1_555
N2 Cu1 1_555 1_555
N3 C11 1_555 1_555
C1 H2 1_555 1_555
C2 C1 1_555 1_555
H3 C2 1_555 1_555
C3 C2 1_555 1_555
H4 C3 1_555 1_555
C4 C3 1_555 1_555
H5 C4 1_555 1_555
C5 N1 1_555 1_555
C6 N2 1_555 1_555
C7 C6 1_555 1_555
H6 C7 1_555 1_555
C8 C7 1_555 1_555
H7 C8 1_555 1_555
C9 C8 1_555 1_555
H8 C9 1_555 1_555
C10 N2 1_555 1_555
H9 C10 1_555 1_555
C11 H10 1_555 1_555
C12 C11 1_555 1_555
H11 C12 1_555 1_555
C13 C12 1_555 1_555
H12 C13 1_555 1_555
C14 C13 1_555 1_555
C15 N3 1_555 1_555
H13 C15 1_555 1_555
C16 Cu1 1_555 1_555
H14 C16 1_555 1_555
C17 O1 1_555 1_555
C18 Cu1 1_555 1_555
H15 C18 1_555 1_555
F1 B1 1_555 1_555
F2 B1 1_555 1_555
F3 B1 1_555 1_555
O3 H16 1_555 1_555
H17 O3 1_555 1_555
F4 B1 1_555 1_555
N3_2 Cu1 1_555 1_555
Cu1_2 N3 1_555 1_555
C4 C5 1_555 1_555
C5 C6 1_555 1_555
C9 C10 1_555 1_555
C14 C18 1_555 1_555
C14 C15 1_555 1_555
C16 C17 1_555 1_555
C16 C18 1_555 1_555

#END
