
#######################################################################
#
#                 Cambridge Crystallographic Data Centre
#                                CCDC 
#
#######################################################################
#
# If this CIF has been generated from an entry in the Cambridge 
# Structural Database, then it will include bibliographic, chemical, 
# crystal, experimental, refinement or atomic coordinate data resulting 
# from the CCDC's data processing and validation procedures.
#
#######################################################################

data_DUFSOM
_symmetry_cell_setting           orthorhombic
_symmetry_space_group_name_H-M   'P 21 21 2'
_symmetry_Int_Tables_number      18
_space_group_name_Hall           'P 2 2ab'
loop_
_symmetry_equiv_pos_site_id
_symmetry_equiv_pos_as_xyz
1 x,y,z
2 1/2+x,1/2-y,-z
3 1/2-x,1/2+y,-z
4 -x,-y,z
_cell_length_a                   12.010(1)
_cell_length_b                   14.233(3)
_cell_length_c                   11.483(1)
_cell_angle_alpha                90
_cell_angle_beta                 90
_cell_angle_gamma                90
_cell_volume                     1962.88
loop_
_atom_site_label
_atom_site_type_symbol
_atom_site_fract_x
_atom_site_fract_y
_atom_site_fract_z
O6 O -0.1091(5) 0.8167(5) -0.6174(6)
H23 H -0.174 0.827 -0.629
H24 H -0.049 0.836 -0.559
O7 O 0.0906(5) 0.6024(4) -0.1066(5)
H25 H 0.097 0.578 -0.067
H26 H 0.023 0.624 -0.118
O8 O 0.0614(6) 0.0840(5) -0.4073(6)
H27 H 0.051 0.138 -0.353
H28 H 0.045 0.114 -0.469
O9 O 0.0269(6) 0.0985(5) 0.1760(6)
H29 H 0.088 0.113 0.088
H30 H 0.068 0.128 0.265
O10 O -0.1650(6) 0.3260(6) -0.3292(6)
H31 H -0.133 0.276 -0.294
H32 H -0.164 0.339 -0.271
Cu1 Cu 0.19181(6) 0.23299(5) -0.14112(7)
N1 N 0.2883(5) 0.3032(4) -0.2603(5)
N2 N 0.2513(5) 0.1181(4) -0.2179(5)
O1 O 0.1376(4) 0.3502(3) -0.0698(4)
O2 O 0.1646(4) 0.4684(3) 0.0524(4)
O3 O 0.3024(5) 0.2512(3) 0.0129(5)
O4 O 0.0724(4) 0.1582(4) -0.0606(5)
O5 O -0.0175(5) 0.1926(4) -0.2229(5)
C1 C 0.3235(6) 0.2336(5) -0.3507(6)
C2 C 0.3498(6) 0.1408(5) -0.2904(6)
C3 C 0.3671(8) 0.0653(6) -0.3855(8)
C4 C 0.4527(6) 0.1465(6) -0.2135(7)
C5 C 0.2416(7) 0.3935(6) -0.3099(8)
C6 C 0.3214(8) 0.4401(6) -0.3925(9)
C7 C 0.1296(7) 0.3791(6) -0.3623(10)
C8 C 0.1870(6) 0.3884(4) 0.0158(5)
C9 C 0.2821(5) 0.3351(5) 0.0762(6)
C10 C 0.3854(6) 0.3973(6) 0.0786(9)
C11 C -0.0128(6) 0.1552(5) -0.1239(7)
H1 H 0.344(8) 0.320(6) -0.246(8)
H2 H 0.194(9) 0.097(6) -0.263(8)
H3 H 0.273(8) 0.071(6) -0.171(9)
H4 H 0.398(8) 0.267(7) -0.406(9)
H5 H 0.265(8) 0.237(7) -0.394(9)
H6 H 0.323(8) 0.062(7) -0.408(9)
H7 H 0.382(8) 0.001(7) -0.347(9)
H8 H 0.437(8) 0.074(7) -0.435(9)
H9 H 0.447(8) 0.178(7) -0.179(9)
H10 H 0.517(8) 0.152(7) -0.269(9)
H11 H 0.473(8) 0.088(7) -0.187(9)
H12 H 0.228(8) 0.440(6) -0.239(8)
H13 H 0.374(8) 0.435(7) -0.380(10)
H14 H 0.325(9) 0.403(7) -0.464(9)
H15 H 0.291(8) 0.516(7) -0.412(8)
H16 H 0.085(8) 0.336(7) -0.327(9)
H17 H 0.118(8) 0.351(7) -0.443(9)
H18 H 0.113(8) 0.439(7) -0.401(9)
H19 H 0.256(7) 0.323(6) 0.163(8)
H20 H 0.418(9) 0.401(7) 0.012(9)
H21 H 0.381(9) 0.457(7) 0.074(9)
H22 H 0.347(8) 0.205(6) 0.047(8)
C11A C 0.4872(6) 0.3448(5) 0.1239(7)
C10A C -0.1146(6) 0.1027(6) -0.0786(9)
O4A O 0.5724(4) 0.3418(4) 0.0606(5)
O5A O 0.4825(5) 0.3074(4) 0.2229(5)
C9A C -0.2179(5) 0.1649(5) -0.0762(6)
H20A H -0.082(9) 0.099(7) -0.012(9)
H21A H -0.119(9) 0.043(7) -0.074(9)
Cu1A Cu 0.69181(6) 0.26701(5) 0.14112(7)
O3A O -0.1976(5) 0.2488(3) -0.0129(5)
C8A C -0.3130(6) 0.1116(4) -0.0158(5)
H19A H -0.244(7) 0.177(6) -0.163(8)
N1A N 0.7883(5) 0.1968(4) 0.2603(5)
N2A N 0.7513(5) 0.3819(4) 0.2179(5)
O1A O 0.6376(4) 0.1498(3) 0.0698(4)
O3A_2 O 0.8024(5) 0.2488(3) -0.0129(5)
Cu1A_2 Cu -0.30819(6) 0.26701(5) 0.14112(7)
H22A H -0.153(8) 0.295(6) -0.047(8)
O1A_2 O -0.3624(4) 0.1498(3) 0.0698(4)
O2A O -0.3354(4) 0.0316(3) -0.0524(4)
C1A C 0.8235(6) 0.2664(5) 0.3507(6)
C5A C 0.7416(7) 0.1065(6) 0.3099(8)
H1A H 0.844(8) 0.180(6) 0.246(8)
C2A C 0.8498(6) 0.3592(5) 0.2904(6)
H2A H 0.694(9) 0.403(6) 0.263(8)
H3A H 0.773(8) 0.429(6) 0.171(9)
C8A_2 C 0.6870(6) 0.1116(4) -0.0158(5)
H4A H 0.898(8) 0.233(7) 0.406(9)
H5A H 0.765(8) 0.263(7) 0.394(9)
C6A C 0.8214(8) 0.0599(6) 0.3925(9)
C7A C 0.6296(7) 0.1209(6) 0.3623(10)
H12A H 0.728(8) 0.060(6) 0.239(8)
C3A C 0.8671(8) 0.4347(6) 0.3855(8)
C4A C 0.9527(6) 0.3535(6) 0.2135(7)
H13A H 0.874(8) 0.065(7) 0.380(10)
H14A H 0.825(9) 0.097(7) 0.464(9)
H15A H 0.791(8) -0.016(7) 0.412(8)
H16A H 0.585(8) 0.164(7) 0.327(9)
H17A H 0.618(8) 0.149(7) 0.443(9)
H18A H 0.613(8) 0.061(7) 0.401(9)
H6A H 0.823(8) 0.438(7) 0.408(9)
H7A H 0.882(8) 0.499(7) 0.347(9)
H8A H 0.937(8) 0.426(7) 0.435(9)
H9A H 0.947(8) 0.322(7) 0.179(9)
H10A H 1.017(8) 0.348(7) 0.269(9)
H11A H 0.973(8) 0.412(7) 0.187(9)
loop_
_geom_bond_atom_site_label_1
_geom_bond_atom_site_label_2
_geom_bond_site_symmetry_1
_geom_bond_site_symmetry_2
Cu1 N1 1_555 1_555
N1 C1 1_555 1_555
N2 Cu1 1_555 1_555
O1 Cu1 1_555 1_555
O2 C8 1_555 1_555
O3 Cu1 1_555 1_555
O4 Cu1 1_555 1_555
O5 Cu1 1_555 1_555
O6 H23 1_555 1_555
O7 H25 1_555 1_555
O8 H27 1_555 1_555
O9 H29 1_555 1_555
O10 H31 1_555 1_555
C1 C2 1_555 1_555
C2 N2 1_555 1_555
C3 C2 1_555 1_555
C4 C2 1_555 1_555
C5 N1 1_555 1_555
C6 C5 1_555 1_555
C7 C5 1_555 1_555
C8 O1 1_555 1_555
C9 O3 1_555 1_555
C10 C9 1_555 1_555
C11 O4 1_555 1_555
H1 N1 1_555 1_555
H2 N2 1_555 1_555
H3 N2 1_555 1_555
H4 C1 1_555 1_555
H5 C1 1_555 1_555
H6 C3 1_555 1_555
H7 C3 1_555 1_555
H8 C3 1_555 1_555
H9 C4 1_555 1_555
H10 C4 1_555 1_555
H11 C4 1_555 1_555
H12 C5 1_555 1_555
H13 C6 1_555 1_555
H14 C6 1_555 1_555
H15 C6 1_555 1_555
H16 C7 1_555 1_555
H17 C7 1_555 1_555
H18 C7 1_555 1_555
H19 C9 1_555 1_555
H20 C10 1_555 1_555
H21 C10 1_555 1_555
H22 O3 1_555 1_555
H24 O6 1_555 1_555
H26 O7 1_555 1_555
H28 O8 1_555 1_555
H30 O9 1_555 1_555
H32 O10 1_555 1_555
C11A C10 1_555 1_555
C10A C11 1_555 1_555
O4A C11A 1_555 1_555
O5A C11A 1_555 1_555
C9A C10A 1_555 1_555
H20A C10A 1_555 1_555
H21A C10A 1_555 1_555
Cu1A O4A 1_555 1_555
O3A C9A 1_555 1_555
C8A C9A 1_555 1_555
H19A C9A 1_555 1_555
N1A Cu1A 1_555 1_555
N2A Cu1A 1_555 1_555
O1A Cu1A 1_555 1_555
O3A_2 Cu1A 1_555 1_555
Cu1A_2 O3A 1_555 1_555
H22A O3A 1_555 1_555
O1A_2 C8A 1_555 1_555
O2A C8A 1_555 1_555
C1A N1A 1_555 1_555
C5A N1A 1_555 1_555
H1A N1A 1_555 1_555
C2A N2A 1_555 1_555
H2A N2A 1_555 1_555
H3A N2A 1_555 1_555
C8A_2 O1A 1_555 1_555
H4A C1A 1_555 1_555
H5A C1A 1_555 1_555
C6A C5A 1_555 1_555
C7A C5A 1_555 1_555
H12A C5A 1_555 1_555
C3A C2A 1_555 1_555
C4A C2A 1_555 1_555
H13A C6A 1_555 1_555
H14A C6A 1_555 1_555
H15A C6A 1_555 1_555
H16A C7A 1_555 1_555
H17A C7A 1_555 1_555
H18A C7A 1_555 1_555
H6A C3A 1_555 1_555
H7A C3A 1_555 1_555
H8A C3A 1_555 1_555
H9A C4A 1_555 1_555
H10A C4A 1_555 1_555
H11A C4A 1_555 1_555
O5 C11 1_555 1_555
C8 C9 1_555 1_555
O5A Cu1A 1_555 1_555
C1A C2A 1_555 1_555

#END
