
#######################################################################
#
#                 Cambridge Crystallographic Data Centre
#                                CCDC 
#
#######################################################################
#
# If this CIF has been generated from an entry in the Cambridge 
# Structural Database, then it will include bibliographic, chemical, 
# crystal, experimental, refinement or atomic coordinate data resulting 
# from the CCDC's data processing and validation procedures.
#
#######################################################################

data_DUFXOT
_symmetry_cell_setting           orthorhombic
_symmetry_space_group_name_H-M   'A m a 2'
_symmetry_Int_Tables_number      40
_space_group_name_Hall           'A 2 -2a'
loop_
_symmetry_equiv_pos_site_id
_symmetry_equiv_pos_as_xyz
1 x,y,z
2 -x,-y,z
3 1/2+x,-y,z
4 1/2-x,y,z
5 x,1/2+y,1/2+z
6 -x,1/2-y,1/2+z
7 1/2+x,1/2-y,1/2+z
8 1/2-x,1/2+y,1/2+z
_cell_length_a                   7.1834(6)
_cell_length_b                   22.367(2)
_cell_length_c                   8.4852(7)
_cell_angle_alpha                90
_cell_angle_beta                 90
_cell_angle_gamma                90
_cell_volume                     1363.33
loop_
_atom_site_label
_atom_site_type_symbol
_atom_site_fract_x
_atom_site_fract_y
_atom_site_fract_z
Sr1 Sr 0.2500 0.81749(4) 0.42428(9)
S1 S 0.2500 0.68077(11) 0.1203(3)
O1 O 0.2500 0.7207(4) 0.2535(11)
O2 O 0.0833(10) 0.6854(2) 0.0247(9)
O3 O 0.2500 0.3946(3) 0.1461(11)
O4 O 0.2500 0.4438(3) -0.0751(17)
O5 O 0.2500 0.4781(5) 0.6459(13)
H1 H 0.2500 0.4761 0.7424
O6 O 0.2500 0.5751(4) 0.6988(11)
O7 O 0.0351(10) 0.8394(3) 0.1850(8)
H2 H 0.0954 0.8396 0.0988
H3 H -0.0483 0.8664 0.1806
O8 O 0.2500 0.7468(4) 0.6621(13)
H4 H 0.1542 0.7246 0.6679
C1 C 0.2500 0.4428(5) 0.0708(15)
C2 C 0.2500 0.5338(5) 0.6027(16)
C3 C 0.2500 0.6068(5) 0.2032(16)
C4 C 0.2500 0.5568(6) 0.0999(18)
H5 H 0.2500 0.5618 -0.0089
C5 C 0.2500 0.4997(5) 0.1678(15)
C6 C 0.2500 0.4933(5) 0.3296(14)
H6 H 0.2500 0.4550 0.3727
C7 C 0.2500 0.5432(4) 0.431(2)
C8 C 0.2500 0.5999(5) 0.3633(15)
H7 H 0.2500 0.6335 0.4278
O2C O 0.4167(10) 0.6854(2) 0.0247(9)
H4C H 0.3458 0.7246 0.6679
O7C O 0.4649(10) 0.8394(3) 0.1850(8)
H2C H 0.4046 0.8396 0.0988
H3C H 0.5483 0.8664 0.1806
Sr1D Sr 0.2500 0.31749(4) -0.07572(9)
Sr1E Sr -0.2500 0.68251(4) -0.07572(9)
Sr1E_2 Sr 0.7500 0.68251(4) -0.07572(9)
O2E O -0.0833(10) 0.8146(2) 0.5247(9)
O2F O 0.5833(10) 0.8146(2) 0.5247(9)
O3D O 0.2500 0.8946(3) 0.6461(11)
O4D O 0.2500 0.9438(3) 0.4249(17)
O9 O 0.2500 0.8316(4) 0.9170(18)
H8 H 0.2500 0.7991 0.8650
H9 H 0.2500 0.8602 0.8514
loop_
_geom_bond_atom_site_label_1
_geom_bond_atom_site_label_2
_geom_bond_site_symmetry_1
_geom_bond_site_symmetry_2
Sr1 O1 1_555 1_555
S1 O1 1_555 1_555
O2 S1 1_555 1_555
O3 C1 1_555 1_555
O4 C1 1_555 1_555
O5 H1 1_555 1_555
O6 C2 1_555 1_555
O7 Sr1 1_555 1_555
H2 O7 1_555 1_555
H3 O7 1_555 1_555
O8 Sr1 1_555 1_555
H4 O8 1_555 1_555
C1 C5 1_555 1_555
C2 O5 1_555 1_555
C3 S1 1_555 1_555
C4 C3 1_555 1_555
H5 C4 1_555 1_555
C5 C4 1_555 1_555
C6 C5 1_555 1_555
H6 C6 1_555 1_555
C7 C2 1_555 1_555
C8 C3 1_555 1_555
H7 C8 1_555 1_555
O9 H8 1_555 1_555
H9 O9 1_555 1_555
O2C S1 1_555 1_555
H4C O8 1_555 1_555
O7C Sr1 1_555 1_555
H2C O7C 1_555 1_555
H3C O7C 1_555 1_555
Sr1D O3 1_555 1_555
Sr1E O2 1_555 1_555
Sr1E_2 O2C 1_555 1_555
O2E Sr1 1_555 1_555
O2F Sr1 1_555 1_555
O3D Sr1 1_555 1_555
O4D Sr1 1_555 1_555
O4 Sr1D 1_555 1_555
C6 C7 1_555 1_555
C7 C8 1_555 1_555

#END
