
#######################################################################
#
#                 Cambridge Crystallographic Data Centre
#                                CCDC 
#
#######################################################################
#
# If this CIF has been generated from an entry in the Cambridge 
# Structural Database, then it will include bibliographic, chemical, 
# crystal, experimental, refinement or atomic coordinate data resulting 
# from the CCDC's data processing and validation procedures.
#
#######################################################################

data_DUGDUG
_symmetry_cell_setting           orthorhombic
_symmetry_space_group_name_H-M   'F d d d'
_symmetry_Int_Tables_number      70
_space_group_name_Hall           '-F 2uv 2vw'
loop_
_symmetry_equiv_pos_site_id
_symmetry_equiv_pos_as_xyz
1 x,y,z
2 3/4-x,3/4-y,z
3 3/4-x,y,3/4-z
4 x,3/4-y,3/4-z
5 x,1/2+y,1/2+z
6 3/4-x,1/4-y,1/2+z
7 3/4-x,1/2+y,1/4-z
8 x,1/4-y,1/4-z
9 1/2+x,y,1/2+z
10 1/4-x,3/4-y,1/2+z
11 1/4-x,y,1/4-z
12 1/2+x,3/4-y,1/4-z
13 1/2+x,1/2+y,z
14 1/4-x,1/4-y,z
15 1/4-x,1/2+y,3/4-z
16 1/2+x,1/4-y,3/4-z
17 -x,-y,-z
18 1/4+x,1/4+y,-z
19 1/4+x,-y,1/4+z
20 -x,1/4+y,1/4+z
21 -x,1/2-y,1/2-z
22 1/4+x,3/4+y,1/2-z
23 1/4+x,1/2-y,3/4+z
24 -x,3/4+y,3/4+z
25 1/2-x,-y,1/2-z
26 3/4+x,1/4+y,1/2-z
27 3/4+x,-y,3/4+z
28 1/2-x,1/4+y,3/4+z
29 1/2-x,1/2-y,-z
30 3/4+x,3/4+y,-z
31 3/4+x,1/2-y,1/4+z
32 1/2-x,3/4+y,1/4+z
_cell_length_a                   22.482(5)
_cell_length_b                   28.996(6)
_cell_length_c                   29.067(6)
_cell_angle_alpha                90
_cell_angle_beta                 90
_cell_angle_gamma                90
_cell_volume                     18948.4
loop_
_atom_site_label
_atom_site_type_symbol
_atom_site_fract_x
_atom_site_fract_y
_atom_site_fract_z
Tb1 Tb 1.05545(2) 1.04864(2) 0.52687(2)
O1 O 1.0679(3) 0.9937(3) 0.5854(3)
O2 O 0.9981(3) 0.9633(3) 0.5417(2)
O3 O 0.6551(3) 0.6816(3) 0.7161(3)
O4 O 0.7031(3) 0.6214(2) 0.7508(3)
O5 O 1.1459(3) 0.7564(3) 0.9835(2)
O6 O 1.2090(4) 0.8069(3) 0.9490(3)
O7 O 1.0610(3) 1.0968(3) 0.5962(3)
H1 H 1.0812 1.0783 0.6123
H2 H 1.0787 1.1205 0.5870
C1 C 1.0284(5) 0.9637(4) 0.5778(3)
C2 C 1.0151(4) 0.9294(3) 0.6148(3)
C3 C 0.9697(5) 0.8954(4) 0.6112(3)
H3 H 0.9491 0.8924 0.5836
C4 C 0.9567(5) 0.8690(4) 0.6448(3)
H4 H 0.9229 0.8508 0.6423
C5 C 0.9904(4) 0.8659(3) 0.6852(3)
C6 C 1.0373(5) 0.8967(4) 0.6884(3)
H5 H 1.0610 0.8968 0.7146
C7 C 1.0491(4) 0.9267(4) 0.6538(3)
H6 H 1.0816 0.9464 0.6568
C8 C 0.9741(4) 0.8341(4) 0.7249(3)
C9 C 0.9240(5) 0.8080(4) 0.7232(3)
H7 H 0.8996 0.8106 0.6975
C10 C 0.9072(5) 0.7773(4) 0.7583(4)
C11 C 0.9464(5) 0.7754(4) 0.7954(4)
H8 H 0.9385 0.7543 0.8187
C12 C 0.9958(6) 0.8024(4) 0.7994(5)
C13 C 1.0092(4) 0.8321(3) 0.7643(3)
H9 H 1.0422 0.8512 0.7668
C14 C 1.0373(6) 0.7986(4) 0.8395(4)
C15 C 1.0256(6) 0.7714(5) 0.8768(4)
H10 H 0.9932 0.7515 0.8759
C16 C 1.0600(6) 0.7728(5) 0.9154(5)
H11 H 1.0445 0.7622 0.9431
C17 C 1.1173(6) 0.7893(4) 0.9142(4)
C18 C 1.1336(6) 0.8104(4) 0.8743(5)
H12 H 1.1718 0.8220 0.8707
C19 C 1.0932(5) 0.8141(4) 0.8399(4)
H13 H 1.1060 0.8292 0.8135
C20 C 1.1589(5) 0.7836(5) 0.9529(4)
C21 C 0.8525(5) 0.7481(4) 0.7556(4)
C22 C 0.8058(5) 0.7623(4) 0.7290(5)
H14 H 0.8074 0.7910 0.7147
C23 C 0.7559(5) 0.7344(4) 0.7230(4)
H15 H 0.7240 0.7446 0.7054
C24 C 0.7543(4) 0.6929(3) 0.7428(5)
C25 C 0.7998(4) 0.6792(4) 0.7714(4)
H16 H 0.7967 0.6515 0.7874
C26 C 0.8492(6) 0.7059(4) 0.7766(4)
H17 H 0.8807 0.6954 0.7944
C27 C 0.7007(5) 0.6632(4) 0.7363(5)
Tb1F Tb 0.69455(2) 0.54864(2) 0.72313(2)
Tb1I Tb 1.19455(2) 0.70136(2) 1.02687(2)
Tb1K Tb 0.55545(2) 0.70136(2) 0.72313(2)
Tb1P Tb 0.94455(2) 0.95136(2) 0.47313(2)
Tb1U Tb 1.30545(2) 0.79864(2) 0.97313(2)
O2P O 1.0019(3) 1.0367(3) 0.4583(2)
O3K O 1.1551(3) 1.0684(3) 0.5339(3)
O4F O 1.0469(3) 1.1214(2) 0.4992(3)
O5I O 1.1041(3) 0.9936(3) 0.4835(2)
O6Y O 0.9590(4) 1.0569(3) 0.5510(3)
loop_
_geom_bond_atom_site_label_1
_geom_bond_atom_site_label_2
_geom_bond_site_symmetry_1
_geom_bond_site_symmetry_2
Tb1 O1 1_555 1_555
O1 C1 1_555 1_555
O2 Tb1 1_555 1_555
O3 C27 1_555 1_555
O4 C27 1_555 1_555
O5 C20 1_555 1_555
O6 C20 1_555 1_555
O7 Tb1 1_555 1_555
H1 O7 1_555 1_555
H2 O7 1_555 1_555
C1 O2 1_555 1_555
C2 C1 1_555 1_555
C3 C2 1_555 1_555
H3 C3 1_555 1_555
C4 C3 1_555 1_555
H4 C4 1_555 1_555
C5 C4 1_555 1_555
C6 C5 1_555 1_555
H5 C6 1_555 1_555
C7 C2 1_555 1_555
H6 C7 1_555 1_555
C8 C5 1_555 1_555
C9 C8 1_555 1_555
H7 C9 1_555 1_555
C10 C9 1_555 1_555
C11 C10 1_555 1_555
H8 C11 1_555 1_555
C12 C11 1_555 1_555
C13 C8 1_555 1_555
H9 C13 1_555 1_555
C14 C12 1_555 1_555
C15 C14 1_555 1_555
H10 C15 1_555 1_555
C16 C15 1_555 1_555
H11 C16 1_555 1_555
C17 C16 1_555 1_555
C18 C17 1_555 1_555
H12 C18 1_555 1_555
C19 C14 1_555 1_555
H13 C19 1_555 1_555
C20 C17 1_555 1_555
C21 C10 1_555 1_555
C22 C21 1_555 1_555
H14 C22 1_555 1_555
C23 C22 1_555 1_555
H15 C23 1_555 1_555
C24 C23 1_555 1_555
C25 C24 1_555 1_555
H16 C25 1_555 1_555
C26 C21 1_555 1_555
H17 C26 1_555 1_555
C27 C24 1_555 1_555
Tb1F O4 1_555 1_555
Tb1I O5 1_555 1_555
Tb1K O3 1_555 1_555
Tb1P O2 1_555 1_555
Tb1U O6 1_555 1_555
O2P Tb1 1_555 1_555
O3K Tb1 1_555 1_555
O4F Tb1 1_555 1_555
O5I Tb1 1_555 1_555
O6Y Tb1 1_555 1_555
C6 C7 1_555 1_555
C12 C13 1_555 1_555
C18 C19 1_555 1_555
C25 C26 1_555 1_555
Tb1P O2P 1_555 1_555

#END
