
#######################################################################
#
#                 Cambridge Crystallographic Data Centre
#                                CCDC 
#
#######################################################################
#
# If this CIF has been generated from an entry in the Cambridge 
# Structural Database, then it will include bibliographic, chemical, 
# crystal, experimental, refinement or atomic coordinate data resulting 
# from the CCDC's data processing and validation procedures.
#
#######################################################################

data_DUGFES
_symmetry_cell_setting           monoclinic
_symmetry_space_group_name_H-M   'P 2/c'
_symmetry_Int_Tables_number      13
_space_group_name_Hall           '-P 2yc'
loop_
_symmetry_equiv_pos_site_id
_symmetry_equiv_pos_as_xyz
1 x,y,z
2 -x,y,1/2-z
3 -x,-y,-z
4 x,-y,1/2+z
_cell_length_a                   13.7313(19)
_cell_length_b                   10.4349(14)
_cell_length_c                   18.4760(19)
_cell_angle_alpha                90
_cell_angle_beta                 130.704(7)
_cell_angle_gamma                90
_cell_volume                     2006.91
loop_
_atom_site_label
_atom_site_type_symbol
_atom_site_fract_x
_atom_site_fract_y
_atom_site_fract_z
Zn1 Zn 1.0000 0.70499(8) 0.2500
Zn2 Zn 0.5000 -0.02002(9) 0.2500
S1 S 0.39515(17) 0.17241(15) 0.06086(13)
O1 O 0.8465(4) 0.6002(4) 0.1864(3)
O2 O 0.8712(4) 0.5638(4) 0.0799(3)
O3 O 0.6526(5) 0.1830(6) -0.1293(4)
O4 O 0.4801(5) 0.1067(4) -0.1621(3)
N1 N 0.3501(4) 0.1148(4) 0.1794(3)
H1 H 0.199(7) 0.342(7) 0.034(5)
N2 N 0.2331(5) 0.2790(5) 0.0822(4)
N3 N 0.9892(5) 0.8265(4) 0.3306(3)
C1 C 0.3245(5) 0.1905(5) 0.1119(4)
C2 C 0.2673(5) 0.1554(5) 0.1946(4)
C3 C 0.2526(5) 0.1100(6) 0.2578(4)
H2 H 0.3014 0.0423 0.2992
C4 C 0.1609(6) 0.1714(6) 0.2556(5)
H3 H 0.1464 0.1425 0.2955
C5 C 0.0907(6) 0.2739(7) 0.1960(5)
H4 H 0.0318 0.3124 0.1984
C6 C 0.1036(6) 0.3225(6) 0.1326(5)
H5 H 0.0557 0.3915 0.0925
C7 C 0.1940(5) 0.2593(5) 0.1345(4)
C8 C 0.4783(6) 0.3244(5) 0.0941(4)
H6 H 0.4165 0.3938 0.0671
H7 H 0.5378 0.3331 0.1630
C9 C 0.5509(5) 0.3337(5) 0.0588(4)
C10 C 0.6464(5) 0.4247(5) 0.1004(4)
H8 H 0.6634 0.4774 0.1481
C11 C 0.7175(5) 0.4385(5) 0.0717(4)
C12 C 0.6944(5) 0.3583(5) 0.0025(4)
H9 H 0.7440 0.3657 -0.0151
C13 C 0.5980(6) 0.2668(5) -0.0410(4)
C14 C 0.5248(6) 0.2559(5) -0.0135(4)
H10 H 0.4583 0.1966 -0.0435
C15 C 0.8200(5) 0.5413(5) 0.1152(4)
C16 C 0.5754(6) 0.1798(6) -0.1162(4)
C17 C 0.9076(6) 0.8003(6) 0.3451(4)
H11 H 0.8475 0.7355 0.3094
C18 C 0.9091(6) 0.8654(6) 0.4106(4)
H12 H 0.8512 0.8439 0.4189
C19 C 0.9975(5) 0.9635(5) 0.4643(4)
C20 C 1.0792(5) 0.9929(5) 0.4464(4)
H13 H 1.1380 1.0596 0.4791
C21 C 1.0723(6) 0.9224(6) 0.3800(4)
H14 H 1.1279 0.9426 0.3692
N3B N 1.0108(5) 1.1735(4) 0.6694(3)
C17B C 1.0924(6) 1.1997(6) 0.6549(4)
H11B H 1.1525 1.2645 0.6906
C18B C 1.0909(6) 1.1346(6) 0.5894(4)
H12B H 1.1488 1.1561 0.5811
C19B C 1.0025(5) 1.0365(5) 0.5357(4)
C20B C 0.9208(5) 1.0071(5) 0.5536(4)
H13B H 0.8620 0.9404 0.5209
C21B C 0.9277(6) 1.0776(6) 0.6200(4)
H14B H 0.8721 1.0574 0.6308
S1A S 0.60485(17) 0.17241(15) 0.43914(13)
O1A O 0.1535(4) 0.6002(4) 0.3136(3)
O2A O 0.1288(4) 0.5638(4) 0.4201(3)
O3A O 0.3474(5) 0.1830(6) 0.6293(4)
O4A O 0.5199(5) 0.1067(4) 0.6621(3)
N1A N 0.6499(4) 0.1148(4) 0.3206(3)
H1A H 0.801(7) 0.342(7) 0.466(5)
N2A N 0.7669(5) 0.2790(5) 0.4178(4)
C1A C 0.6755(5) 0.1905(5) 0.3881(4)
C2A C 0.7327(5) 0.1554(5) 0.3054(4)
C3A C 0.7474(5) 0.1100(6) 0.2422(4)
H2A H 0.6986 0.0423 0.2008
C4A C 0.8391(6) 0.1714(6) 0.2444(5)
H3A H 0.8536 0.1425 0.2045
C5A C 0.9093(6) 0.2739(7) 0.3040(5)
H4A H 0.9682 0.3124 0.3016
C6A C 0.8964(6) 0.3225(6) 0.3674(5)
H5A H 0.9443 0.3915 0.4075
C7A C 0.8060(5) 0.2593(5) 0.3655(4)
C8A C 0.5217(6) 0.3244(5) 0.4059(4)
H6A H 0.5835 0.3938 0.4329
H7A H 0.4622 0.3331 0.3370
C9A C 0.4491(5) 0.3337(5) 0.4412(4)
C10A C 0.3536(5) 0.4247(5) 0.3996(4)
H8A H 0.3366 0.4774 0.3519
C11A C 0.2825(5) 0.4385(5) 0.4283(4)
C12A C 0.3056(5) 0.3583(5) 0.4975(4)
H9A H 0.2560 0.3657 0.5151
C13A C 0.4020(6) 0.2668(5) 0.5410(4)
C14A C 0.4752(6) 0.2559(5) 0.5135(4)
H10A H 0.5417 0.1966 0.5435
C15A C 0.1800(5) 0.5413(5) 0.3848(4)
C16A C 0.4246(6) 0.1798(6) 0.6162(4)
Zn1_2 Zn 0.0000 0.70499(8) 0.2500
Zn1B Zn 1.0000 1.29501(8) 0.7500
Zn2B Zn 0.5000 0.02002(9) -0.2500
Zn2B_2 Zn 0.5000 0.02002(9) 0.7500
O1A_2 O 1.1535(4) 0.6002(4) 0.3136(3)
O3B O 0.3474(5) -0.1830(6) 0.1293(4)
O3C O 0.6526(5) -0.1830(6) 0.3707(4)
O4B O 0.5199(5) -0.1067(4) 0.1621(3)
O4C O 0.4801(5) -0.1067(4) 0.3379(3)
N3A N 1.0108(5) 0.8265(4) 0.1694(3)
O5 O 0.656(4) 0.589(3) 0.288(3)
H15 H 0.6575 0.6458 0.3210
H16 H 0.6308 0.6410 0.2429
O6? O 0.593(4) 0.538(3) 0.272(2)
H17? H 0.6201 0.5882 0.3181
H18? H 0.5783 0.4661 0.2852
loop_
_geom_bond_atom_site_label_1
_geom_bond_atom_site_label_2
_geom_bond_site_symmetry_1
_geom_bond_site_symmetry_2
Zn1 O1 1_555 1_555
Zn2 N1 1_555 1_555
S1 C1 1_555 1_555
O1 C15 1_555 1_555
O2 C15 1_555 1_555
O3 C16 1_555 1_555
O4 C16 1_555 1_555
N1 C1 1_555 1_555
H1 N2 1_555 1_555
N2 C1 1_555 1_555
N3 Zn1 1_555 1_555
C2 N1 1_555 1_555
C3 C2 1_555 1_555
H2 C3 1_555 1_555
C4 C3 1_555 1_555
H3 C4 1_555 1_555
C5 C4 1_555 1_555
H4 C5 1_555 1_555
C6 C5 1_555 1_555
H5 C6 1_555 1_555
C7 N2 1_555 1_555
C8 S1 1_555 1_555
H6 C8 1_555 1_555
H7 C8 1_555 1_555
C9 C8 1_555 1_555
C10 C9 1_555 1_555
H8 C10 1_555 1_555
C11 C10 1_555 1_555
C12 C11 1_555 1_555
H9 C12 1_555 1_555
C13 C12 1_555 1_555
C14 C9 1_555 1_555
H10 C14 1_555 1_555
C15 C11 1_555 1_555
C16 C13 1_555 1_555
C17 N3 1_555 1_555
H11 C17 1_555 1_555
C18 C17 1_555 1_555
H12 C18 1_555 1_555
C19 C18 1_555 1_555
C20 C19 1_555 1_555
H13 C20 1_555 1_555
C21 N3 1_555 1_555
H14 C21 1_555 1_555
O5 H15 1_555 1_555
H16 O5 1_555 1_555
N3B C17B 1_555 1_555
C17B H11B 1_555 1_555
C18B C17B 1_555 1_555
H12B C18B 1_555 1_555
C19B C19 1_555 1_555
C20B C19B 1_555 1_555
H13B C20B 1_555 1_555
C21B N3B 1_555 1_555
H14B C21B 1_555 1_555
S1A C1A 1_555 1_555
O1A C15A 1_555 1_555
O2A C15A 1_555 1_555
O3A C16A 1_555 1_555
O4A C16A 1_555 1_555
N1A Zn2 1_555 1_555
H1A N2A 1_555 1_555
N2A C1A 1_555 1_555
C1A N1A 1_555 1_555
C2A N1A 1_555 1_555
C3A C2A 1_555 1_555
H2A C3A 1_555 1_555
C4A C3A 1_555 1_555
H3A C4A 1_555 1_555
C5A C4A 1_555 1_555
H4A C5A 1_555 1_555
C6A C5A 1_555 1_555
H5A C6A 1_555 1_555
C7A N2A 1_555 1_555
C8A S1A 1_555 1_555
H6A C8A 1_555 1_555
H7A C8A 1_555 1_555
C9A C8A 1_555 1_555
C10A C9A 1_555 1_555
H8A C10A 1_555 1_555
C11A C10A 1_555 1_555
C12A C11A 1_555 1_555
H9A C12A 1_555 1_555
C13A C12A 1_555 1_555
C14A C9A 1_555 1_555
H10A C14A 1_555 1_555
C15A C11A 1_555 1_555
C16A C13A 1_555 1_555
Zn1_2 O1A 1_555 1_555
Zn1B N3B 1_555 1_555
Zn2B O3 1_555 1_555
Zn2B_2 O3A 1_555 1_555
O1A_2 Zn1 1_555 1_555
O3B Zn2 1_555 1_555
O3C Zn2 1_555 1_555
O4B Zn2 1_555 1_555
O4C Zn2 1_555 1_555
N3A Zn1 1_555 1_555
O4 Zn2B 1_555 1_555
C2 C7 1_555 1_555
C6 C7 1_555 1_555
C13 C14 1_555 1_555
C20 C21 1_555 1_555
C18B C19B 1_555 1_555
C20B C21B 1_555 1_555
O4A Zn2B_2 1_555 1_555
C2A C7A 1_555 1_555
C6A C7A 1_555 1_555
C13A C14A 1_555 1_555

#END
