
#######################################################################
#
#                 Cambridge Crystallographic Data Centre
#                                CCDC 
#
#######################################################################
#
# If this CIF has been generated from an entry in the Cambridge 
# Structural Database, then it will include bibliographic, chemical, 
# crystal, experimental, refinement or atomic coordinate data resulting 
# from the CCDC's data processing and validation procedures.
#
#######################################################################

data_DUGNIE
_symmetry_cell_setting           monoclinic
_symmetry_space_group_name_H-M   'P 21/c'
_symmetry_Int_Tables_number      14
_space_group_name_Hall           '-P 2ybc'
loop_
_symmetry_equiv_pos_site_id
_symmetry_equiv_pos_as_xyz
1 x,y,z
2 -x,1/2+y,1/2-z
3 -x,-y,-z
4 x,1/2-y,1/2+z
_cell_length_a                   13.797(6)
_cell_length_b                   8.860(4)
_cell_length_c                   30.359(14)
_cell_angle_alpha                90
_cell_angle_beta                 100.427(8)
_cell_angle_gamma                90
_cell_volume                     3649.84
loop_
_atom_site_label
_atom_site_type_symbol
_atom_site_fract_x
_atom_site_fract_y
_atom_site_fract_z
Co1 Co 0.44721(3) 0.55980(5) 0.205545(13)
O1 O 0.46156(16) 0.3259(2) 0.21988(7)
O2 O 0.52564(16) 0.0943(2) 0.22607(7)
O3 O 0.38967(18) 0.5105(3) 0.14028(8)
O4 O 0.31828(18) 0.3135(3) 0.10260(9)
O5 O 1.0019(2) -0.2510(3) 0.09199(10)
H1 H 1.010(4) -0.339(3) 0.0813(16)
O6 O 0.8416(2) -0.2825(4) 0.06665(12)
O7 O 0.6640(3) 0.0724(4) -0.10793(10)
O8 O 0.6658(2) -0.0853(3) -0.05112(9)
H2 H 0.660(4) -0.161(4) -0.0687(14)
O9 O 0.43687(19) 0.7944(3) 0.18742(8)
H3 H 0.4030 0.8035 0.1624
H4 H 0.474(3) 0.868(3) 0.1958(9)
N1 N 0.60292(19) 0.5705(3) 0.20159(9)
N2 N 1.29075(19) 0.5552(3) 0.21247(9)
C1 C 0.5069(2) 0.2195(3) 0.20550(10)
C2 C 0.5444(2) 0.2348(3) 0.16202(10)
C3 C 0.4905(2) 0.3083(3) 0.12489(10)
C4 C 0.3919(2) 0.3808(4) 0.12356(10)
C5 C 0.5284(2) 0.3127(4) 0.08527(10)
H5 H 0.4911 0.3577 0.0601
C6 C 0.6198(2) 0.2522(4) 0.08199(11)
C7 C 0.6763(2) 0.1860(4) 0.12035(11)
C8 C 0.6365(2) 0.1754(4) 0.15932(11)
H6 H 0.6726 0.1272 0.1842
C9 C 0.7795(2) 0.1310(4) 0.12182(11)
C10 C 0.7988(3) -0.0039(4) 0.10190(11)
H7 H 0.7470 -0.0593 0.0858
C11 C 0.8949(3) -0.0571(4) 0.10573(12)
C12 C 0.9109(3) -0.2077(4) 0.08565(13)
C13 C 0.9721(3) 0.0267(4) 0.12930(13)
H8 H 1.0365 -0.0078 0.1317
C14 C 0.9538(3) 0.1603(5) 0.14916(16)
H9 H 1.0058 0.2160 0.1650
C15 C 0.8578(3) 0.2124(5) 0.14567(15)
H10 H 0.8459 0.3025 0.1594
C16 C 0.6520(3) 0.2695(4) 0.03767(11)
C17 C 0.6505(3) 0.1499(4) 0.00805(11)
H11 H 0.6373 0.0528 0.0170
C18 C 0.6689(3) 0.1748(4) -0.03541(11)
C19 C 0.6648(3) 0.0494(5) -0.06834(12)
C20 C 0.6899(3) 0.3198(4) -0.04836(12)
H12 H 0.7017 0.3370 -0.0771
C21 C 0.6932(3) 0.4379(5) -0.01882(13)
H13 H 0.7086 0.5344 -0.0274
C22 C 0.6735(3) 0.4136(4) 0.02387(12)
H14 H 0.6746 0.4945 0.0435
C23 C 0.6346(3) 0.6178(4) 0.16461(12)
H15 H 0.5881 0.6457 0.1398
C24 C 0.7335(3) 0.6268(5) 0.16172(13)
H16 H 0.7517 0.6613 0.1355
C25 C 0.8058(2) 0.5848(4) 0.19773(12)
C26 C 0.7720(3) 0.5352(5) 0.23602(13)
H17 H 0.8167 0.5055 0.2612
C27 C 0.6723(3) 0.5306(5) 0.23622(13)
H18 H 0.6520 0.4976 0.2622
C28 C 0.9100(2) 0.5942(4) 0.19484(13)
H19 H 0.9252 0.6438 0.1700
C29 C 0.9853(3) 0.5399(4) 0.22377(14)
H20 H 0.9706 0.4918 0.2490
C30 C 1.0902(3) 0.5483(4) 0.21989(13)
C31 C 1.1596(3) 0.4559(4) 0.24574(14)
H21 H 1.1404 0.3904 0.2665
C32 C 1.2574(3) 0.4609(4) 0.24072(13)
H22 H 1.3019 0.3956 0.2578
C33 C 1.2246(3) 0.6455(5) 0.18795(13)
H23 H 1.2463 0.7117 0.1680
C34 C 1.1252(3) 0.6460(5) 0.19046(14)
H24 H 1.0823 0.7114 0.1726
Co1_2 Co 1.44721(3) 0.55980(5) 0.205545(13)
Co1A Co 0.55279(3) 0.05980(5) 0.294455(13)
O2A O 0.47436(16) 0.5943(2) 0.27393(7)
N2_2 N 0.29075(19) 0.5552(3) 0.21247(9)
O10 O 0.7818(6) -0.1014(11) -0.1599(3)
H25 H 0.7812 -0.1226 -0.1873
H26 H 0.7418 -0.1608 -0.1504
N3 N 0.0149(2) 0.4787(4) 0.06553(12)
C35 C 0.0346(3) 0.0399(4) 0.01157(16)
H27 H 0.0972 -0.0029 0.0173
C36 C 0.0248(3) 0.1920(4) 0.02993(14)
C37 C 0.1060(3) 0.2611(5) 0.0542(2)
H28 H 0.1663 0.2113 0.0591
C38 C 0.0992(3) 0.4034(5) 0.07132(19)
H29 H 0.1555 0.4483 0.0875
C39 C -0.0642(3) 0.4131(5) 0.04264(18)
H30 H -0.1235 0.4659 0.0383
C40 C -0.0635(3) 0.2696(5) 0.02478(17)
H31 H -0.1213 0.2261 0.0096
N3B N -0.0149(2) -0.4787(4) -0.06553(12)
C35B C -0.0346(3) -0.0399(4) -0.01157(16)
H27B H -0.0972 0.0029 -0.0173
C36B C -0.0248(3) -0.1920(4) -0.02993(14)
C37B C -0.1060(3) -0.2611(5) -0.0542(2)
H28B H -0.1663 -0.2113 -0.0591
C38B C -0.0992(3) -0.4034(5) -0.07132(19)
H29B H -0.1555 -0.4483 -0.0875
C39B C 0.0642(3) -0.4131(5) -0.04264(18)
H30B H 0.1235 -0.4659 -0.0383
C40B C 0.0635(3) -0.2696(5) -0.02478(17)
H31B H 0.1213 -0.2261 -0.0096
loop_
_geom_bond_atom_site_label_1
_geom_bond_atom_site_label_2
_geom_bond_site_symmetry_1
_geom_bond_site_symmetry_2
Co1 O1 1_555 1_555
O1 C1 1_555 1_555
O2 C1 1_555 1_555
O3 Co1 1_555 1_555
O4 C4 1_555 1_555
O5 H1 1_555 1_555
O6 C12 1_555 1_555
O7 C19 1_555 1_555
O8 H2 1_555 1_555
O9 Co1 1_555 1_555
H3 O9 1_555 1_555
H4 O9 1_555 1_555
N1 Co1 1_555 1_555
N2 C32 1_555 1_555
C1 C2 1_555 1_555
C2 C3 1_555 1_555
C3 C4 1_555 1_555
C4 O3 1_555 1_555
C5 C3 1_555 1_555
H5 C5 1_555 1_555
C6 C5 1_555 1_555
C7 C6 1_555 1_555
C8 C2 1_555 1_555
H6 C8 1_555 1_555
C9 C7 1_555 1_555
C10 C9 1_555 1_555
H7 C10 1_555 1_555
C11 C10 1_555 1_555
C12 O5 1_555 1_555
C13 C11 1_555 1_555
H8 C13 1_555 1_555
C14 C13 1_555 1_555
H9 C14 1_555 1_555
C15 C9 1_555 1_555
H10 C15 1_555 1_555
C16 C6 1_555 1_555
C17 C16 1_555 1_555
H11 C17 1_555 1_555
C18 C17 1_555 1_555
C19 O8 1_555 1_555
C20 C18 1_555 1_555
H12 C20 1_555 1_555
C21 C20 1_555 1_555
H13 C21 1_555 1_555
C22 C16 1_555 1_555
H14 C22 1_555 1_555
C23 N1 1_555 1_555
H15 C23 1_555 1_555
C24 C23 1_555 1_555
H16 C24 1_555 1_555
C25 C24 1_555 1_555
C26 C25 1_555 1_555
H17 C26 1_555 1_555
C27 N1 1_555 1_555
H18 C27 1_555 1_555
C28 C25 1_555 1_555
H19 C28 1_555 1_555
C29 C28 1_555 1_555
H20 C29 1_555 1_555
C30 C29 1_555 1_555
C31 C30 1_555 1_555
H21 C31 1_555 1_555
C32 C31 1_555 1_555
H22 C32 1_555 1_555
C33 N2 1_555 1_555
H23 C33 1_555 1_555
C34 C30 1_555 1_555
H24 C34 1_555 1_555
O10 H25 1_555 1_555
H26 O10 1_555 1_555
N3 C38 1_555 1_555
C35 H27 1_555 1_555
C36 C35 1_555 1_555
C37 C36 1_555 1_555
H28 C37 1_555 1_555
C38 C37 1_555 1_555
H29 C38 1_555 1_555
C39 N3 1_555 1_555
H30 C39 1_555 1_555
C40 C36 1_555 1_555
H31 C40 1_555 1_555
Co1_2 N2 1_555 1_555
Co1A O2 1_555 1_555
O2A Co1 1_555 1_555
N2_2 Co1 1_555 1_555
N3B C38B 1_555 1_555
C35B C35 1_555 1_555
H27B C35B 1_555 1_555
C36B C35B 1_555 1_555
C37B C36B 1_555 1_555
H28B C37B 1_555 1_555
C38B C37B 1_555 1_555
H29B C38B 1_555 1_555
C39B N3B 1_555 1_555
H30B C39B 1_555 1_555
C40B C36B 1_555 1_555
H31B C40B 1_555 1_555
C7 C8 1_555 1_555
C11 C12 1_555 1_555
C14 C15 1_555 1_555
C18 C19 1_555 1_555
C21 C22 1_555 1_555
C26 C27 1_555 1_555
C33 C34 1_555 1_555
C39 C40 1_555 1_555
C39B C40B 1_555 1_555

#END
