
#######################################################################
#
#                 Cambridge Crystallographic Data Centre
#                                CCDC 
#
#######################################################################
#
# If this CIF has been generated from an entry in the Cambridge 
# Structural Database, then it will include bibliographic, chemical, 
# crystal, experimental, refinement or atomic coordinate data resulting 
# from the CCDC's data processing and validation procedures.
#
#######################################################################

data_DUGZAH
_symmetry_cell_setting           monoclinic
_symmetry_space_group_name_H-M   'P 21/c'
_symmetry_Int_Tables_number      14
_space_group_name_Hall           '-P 2ybc'
loop_
_symmetry_equiv_pos_site_id
_symmetry_equiv_pos_as_xyz
1 x,y,z
2 -x,1/2+y,1/2-z
3 -x,-y,-z
4 x,1/2-y,1/2+z
_cell_length_a                   15.0444(3)
_cell_length_b                   19.1731(4)
_cell_length_c                   16.8680(3)
_cell_angle_alpha                90
_cell_angle_beta                 102.4630(10)
_cell_angle_gamma                90
_cell_volume                     4750.88
loop_
_atom_site_label
_atom_site_type_symbol
_atom_site_fract_x
_atom_site_fract_y
_atom_site_fract_z
Zn1 Zn 0.48558(2) 1.067232(16) 0.448059(18)
Zn2 Zn -0.44648(2) 1.120320(16) 0.083430(19)
Zn3 Zn 0.54833(2) 0.923048(16) 0.365486(18)
Zn4 Zn -1.37137(2) 1.127660(17) -0.200900(19)
Zn5 Zn -0.47108(2) 1.242890(18) 0.38988(2)
O1 O 0.37735(15) 1.12079(11) 0.46742(14)
O2 O 0.46805(14) 0.96337(10) 0.43017(11)
O3 O 0.43602(16) 1.09289(12) 0.32676(12)
O4 O -0.38026(15) 1.05642(11) 0.42847(14)
O5 O -0.41473(14) 1.16322(11) 0.45769(13)
O6 O -0.55390(15) 1.10011(11) -0.00599(12)
O7 O -0.33834(14) 1.10918(11) 0.03348(12)
O8 O 0.32713(15) 1.09227(12) 0.57841(13)
O9 O -1.24810(15) 1.10877(13) -0.20636(14)
O10 O -0.38283(17) 1.31410(13) 0.38884(15)
O11 O 0.44805(15) 1.20484(11) 0.29300(12)
O12 O -0.55859(16) 1.20538(11) -0.06088(12)
O13 O -0.87736(14) 1.05899(12) -0.31309(13)
O14 O -1.30428(16) 1.07361(13) -0.33245(16)
O15 O -0.28416(16) 1.12700(12) 0.16438(13)
O16 O 0.08722(16) 1.11570(15) 0.04056(14)
O17 O -0.03399(16) 1.21305(16) 0.36056(19)
N1 N -0.50041(17) 1.32308(12) 0.15091(14)
N2 N -0.42735(18) 1.30621(12) 0.21085(14)
N3 N -0.45734(17) 1.21586(12) 0.12870(14)
N4 N -0.54417(17) 0.95335(12) 0.19688(14)
N5 N -0.46896(16) 0.96899(12) 0.25679(13)
N6 N -0.47290(16) 1.04229(12) 0.15508(14)
C1 C 0.3156(2) 1.11536(15) 0.50660(18)
C2 C 0.2223(2) 1.14023(16) 0.46813(17)
C3 C 0.2074(2) 1.17976(19) 0.3973(2)
H1 H 0.2557 1.1902 0.3731
C4 C 0.1214(2) 1.2034(2) 0.3632(2)
H2 H 0.1118 1.2302 0.3162
C5 C 0.0498(2) 1.18730(18) 0.3984(2)
C6 C 0.0634(2) 1.14851(19) 0.4692(2)
H3 H 0.0149 1.1382 0.4932
C7 C 0.1499(2) 1.12527(17) 0.50363(19)
H4 H 0.1595 1.0992 0.5512
C8 C -0.1103(2) 1.1873(2) 0.3851(2)
C9 C -0.1541(3) 1.2295(2) 0.4293(3)
H5 H -0.1304 1.2732 0.4460
C10 C -0.2337(2) 1.20711(19) 0.4493(3)
H6 H -0.2638 1.2358 0.4793
C11 C -0.2687(2) 1.14210(16) 0.42458(19)
C12 C -0.2204(2) 1.09831(19) 0.3828(2)
H7 H -0.2415 1.0534 0.3688
C13 C -0.1414(2) 1.1213(2) 0.3623(2)
H8 H -0.1097 1.0927 0.3334
C14 C -0.3583(2) 1.11892(16) 0.43805(18)
C15 C 0.4093(2) 1.14569(16) 0.28478(16)
C16 C 0.3243(2) 1.13849(15) 0.21967(17)
C17 C 0.2692(3) 1.08062(18) 0.2180(2)
H9 H 0.2863 1.0459 0.2568
C18 C 0.1899(3) 1.0731(2) 0.1608(2)
H10 H 0.1537 1.0338 0.1611
C19 C 0.1640(2) 1.12410(19) 0.1029(2)
C20 C 0.2171(2) 1.18243(19) 0.1027(2)
H11 H 0.1996 1.2169 0.0636
C21 C 0.2970(2) 1.18958(18) 0.16111(19)
H12 H 0.3328 1.2291 0.1611
C22 C 0.0016(2) 1.11563(19) 0.05847(19)
C23 C -0.0678(2) 1.08782(18) -0.00002(19)
H13 H -0.0549 1.0680 -0.0466
C24 C -0.1558(2) 1.08941(17) 0.01049(19)
H14 H -0.2024 1.0712 -0.0296
C25 C -0.1763(2) 1.11786(16) 0.08037(18)
C26 C -0.1055(2) 1.1449(2) 0.1387(2)
H15 H -0.1179 1.1638 0.1859
C27 C -0.0169(3) 1.1444(2) 0.1284(2)
H16 H 0.0297 1.1632 0.1679
C28 C -0.2706(2) 1.11857(15) 0.09502(19)
C29 C -0.5865(2) 1.14334(16) -0.06046(17)
C30 C -0.6635(2) 1.12098(15) -0.12652(17)
C31 C -0.7121(2) 1.06067(17) -0.1193(2)
H17 H -0.6961 1.0336 -0.0727
C32 C -0.7839(2) 1.04050(18) -0.1805(2)
H18 H -0.8169 1.0005 -0.1748
C33 C -0.8063(2) 1.07990(16) -0.24984(18)
C34 C -0.7586(2) 1.13902(19) -0.25917(19)
H19 H -0.7738 1.1650 -0.3067
C35 C -0.6877(2) 1.15968(17) -0.19737(19)
H20 H -0.6557 1.2002 -0.2033
C36 C -0.9650(2) 1.06871(16) -0.30212(18)
C37 C -1.0339(2) 1.0390(2) -0.3591(2)
H21 H -1.0203 1.0139 -0.4022
C38 C -1.1228(2) 1.0465(2) -0.3521(2)
H22 H -1.1693 1.0266 -0.3910
C39 C -1.1442(2) 1.08322(16) -0.28783(19)
C40 C -1.0734(2) 1.11333(18) -0.2316(2)
H23 H -1.0866 1.1384 -0.1883
C41 C -0.9845(2) 1.10679(19) -0.2385(2)
H24 H -0.9379 1.1278 -0.2007
C42 C -1.2392(2) 1.08880(16) -0.2769(2)
C43 C -0.4037(2) 1.24263(15) 0.19600(18)
H25 H -0.3554 1.2187 0.2283
C44 C -0.5160(2) 1.26807(15) 0.10300(17)
H26 H -0.5623 1.2657 0.0566
C45 C -0.4293(2) 1.02187(15) 0.22958(16)
H27 H -0.3767 1.0430 0.2587
C46 C -0.5428(2) 0.99805(15) 0.13818(17)
H28 H -0.5862 0.9988 0.0897
H29 H 0.419(2) 0.9540(18) 0.408(2)
H30 H -0.365(2) 1.3320(16) 0.4223(18)
Zn1B Zn 0.51442(2) 0.932768(16) 0.551941(18)
Zn1_2 Zn -0.51442(2) 1.067232(16) 0.448059(18)
Zn3B Zn 0.45167(2) 1.076952(16) 0.634514(18)
Zn3A Zn -0.54833(2) 1.423048(16) 0.134514(18)
Zn3_2 Zn -0.45167(2) 0.923048(16) 0.365486(18)
Zn4C Zn -0.37137(2) 1.372340(17) 0.299100(19)
Zn4B Zn -0.62863(2) 0.872340(17) 0.200900(19)
Zn5_2 Zn 0.52892(2) 1.242890(18) 0.38988(2)
Zn5C Zn -0.47108(2) 1.257110(18) -0.11012(2)
O2B O 0.53195(14) 1.03663(10) 0.56983(11)
O4_2 O 0.61974(15) 1.05642(11) 0.42847(14)
O5_2 O 0.58527(14) 1.16322(11) 0.45769(13)
O8B O 0.67287(15) 0.90773(12) 0.42159(13)
O10C O -1.38283(17) 1.18590(13) -0.11116(15)
O11_2 O -0.55195(15) 1.20484(11) 0.29300(12)
O12C O -0.55859(16) 1.29462(11) 0.43912(12)
N1A N 0.50041(17) 0.82308(12) 0.34909(14)
N2C N -1.42735(18) 1.19379(12) -0.28915(14)
N4B N -1.45583(17) 1.04665(12) -0.19688(14)
N5_2 N 0.53104(16) 0.96899(12) 0.25679(13)
H29B H 0.581(2) 1.0460(18) 0.592(2)
H30C H -1.365(2) 1.1680(16) -0.0777(18)
loop_
_geom_bond_atom_site_label_1
_geom_bond_atom_site_label_2
_geom_bond_site_symmetry_1
_geom_bond_site_symmetry_2
Zn1 O1 1_555 1_555
Zn2 O6 1_555 1_555
Zn3 O2 1_555 1_555
Zn4 O9 1_555 1_555
Zn5 O5 1_555 1_555
O1 C1 1_555 1_555
O2 Zn1 1_555 1_555
O3 Zn1 1_555 1_555
O4 C14 1_555 1_555
O5 C14 1_555 1_555
O6 C29 1_555 1_555
O7 Zn2 1_555 1_555
O8 C1 1_555 1_555
O9 C42 1_555 1_555
O10 Zn5 1_555 1_555
O11 C15 1_555 1_555
O12 C29 1_555 1_555
O13 C33 1_555 1_555
O14 C42 1_555 1_555
O15 C28 1_555 1_555
O16 C19 1_555 1_555
O17 C5 1_555 1_555
N1 N2 1_555 1_555
N2 C43 1_555 1_555
N3 Zn2 1_555 1_555
N4 N5 1_555 1_555
N5 C45 1_555 1_555
N6 Zn2 1_555 1_555
C1 C2 1_555 1_555
C2 C3 1_555 1_555
C3 H1 1_555 1_555
C4 C3 1_555 1_555
H2 C4 1_555 1_555
C5 C4 1_555 1_555
C6 C5 1_555 1_555
H3 C6 1_555 1_555
C7 C2 1_555 1_555
H4 C7 1_555 1_555
C8 O17 1_555 1_555
C9 C8 1_555 1_555
H5 C9 1_555 1_555
C10 C9 1_555 1_555
H6 C10 1_555 1_555
C11 C10 1_555 1_555
C12 C11 1_555 1_555
H7 C12 1_555 1_555
C13 C8 1_555 1_555
H8 C13 1_555 1_555
C14 C11 1_555 1_555
C15 O3 1_555 1_555
C16 C15 1_555 1_555
C17 C16 1_555 1_555
H9 C17 1_555 1_555
C18 C17 1_555 1_555
H10 C18 1_555 1_555
C19 C18 1_555 1_555
C20 C19 1_555 1_555
H11 C20 1_555 1_555
C21 C16 1_555 1_555
H12 C21 1_555 1_555
C22 O16 1_555 1_555
C23 C22 1_555 1_555
H13 C23 1_555 1_555
C24 C23 1_555 1_555
H14 C24 1_555 1_555
C25 C24 1_555 1_555
C26 C25 1_555 1_555
H15 C26 1_555 1_555
C27 C22 1_555 1_555
H16 C27 1_555 1_555
C28 O7 1_555 1_555
C29 C30 1_555 1_555
C30 C31 1_555 1_555
C31 H17 1_555 1_555
C32 C31 1_555 1_555
H18 C32 1_555 1_555
C33 C32 1_555 1_555
C34 C33 1_555 1_555
H19 C34 1_555 1_555
C35 C30 1_555 1_555
H20 C35 1_555 1_555
C36 O13 1_555 1_555
C37 C36 1_555 1_555
H21 C37 1_555 1_555
C38 C37 1_555 1_555
H22 C38 1_555 1_555
C39 C38 1_555 1_555
C40 C39 1_555 1_555
H23 C40 1_555 1_555
C41 C36 1_555 1_555
H24 C41 1_555 1_555
C42 C39 1_555 1_555
C43 N3 1_555 1_555
H25 C43 1_555 1_555
C44 N1 1_555 1_555
H26 C44 1_555 1_555
C45 N6 1_555 1_555
H27 C45 1_555 1_555
C46 N4 1_555 1_555
H28 C46 1_555 1_555
H29 O2 1_555 1_555
H30 O10 1_555 1_555
Zn1B O2 1_555 1_555
Zn1_2 O4 1_555 1_555
Zn3B O8 1_555 1_555
Zn3A N1 1_555 1_555
Zn3_2 N5 1_555 1_555
Zn4C O10 1_555 1_555
Zn4B N4 1_555 1_555
Zn5_2 O11 1_555 1_555
Zn5C O12 1_555 1_555
O2B Zn1 1_555 1_555
O4_2 Zn1 1_555 1_555
O5_2 Zn1 1_555 1_555
O8B Zn3 1_555 1_555
O10C Zn4 1_555 1_555
O11_2 Zn5 1_555 1_555
O12C Zn5 1_555 1_555
N1A Zn3 1_555 1_555
N2C Zn4 1_555 1_555
N4B Zn4 1_555 1_555
N5_2 Zn3 1_555 1_555
H29B O2B 1_555 1_555
H30C O10C 1_555 1_555
O5 Zn1_2 1_555 1_555
N2 Zn4C 1_555 1_555
N3 C44 1_555 1_555
N6 C46 1_555 1_555
C6 C7 1_555 1_555
C12 C13 1_555 1_555
C20 C21 1_555 1_555
C25 C28 1_555 1_555
C26 C27 1_555 1_555
C34 C35 1_555 1_555
C40 C41 1_555 1_555
Zn1B O2B 1_555 1_555
Zn3B O2B 1_555 1_555
Zn5_2 O5_2 1_555 1_555

#END
