
#######################################################################
#
#                 Cambridge Crystallographic Data Centre
#                                CCDC 
#
#######################################################################
#
# If this CIF has been generated from an entry in the Cambridge 
# Structural Database, then it will include bibliographic, chemical, 
# crystal, experimental, refinement or atomic coordinate data resulting 
# from the CCDC's data processing and validation procedures.
#
#######################################################################

data_DUHHEV
_symmetry_cell_setting           monoclinic
_symmetry_space_group_name_H-M   'P 21/c'
_symmetry_Int_Tables_number      14
_space_group_name_Hall           '-P 2ybc'
loop_
_symmetry_equiv_pos_site_id
_symmetry_equiv_pos_as_xyz
1 x,y,z
2 -x,1/2+y,1/2-z
3 -x,-y,-z
4 x,1/2-y,1/2+z
_cell_length_a                   12.2315(11)
_cell_length_b                   16.6441(15)
_cell_length_c                   14.4828(14)
_cell_angle_alpha                90
_cell_angle_beta                 108.1674(18)
_cell_angle_gamma                90
_cell_volume                     2801.46
loop_
_atom_site_label
_atom_site_type_symbol
_atom_site_fract_x
_atom_site_fract_y
_atom_site_fract_z
Cu1 Cu 0.34780(3) 1.11310(2) 0.57651(3)
N1 N 0.42799(19) 1.16594(12) 0.49241(17)
N2 N 0.3313(2) 1.22672(13) 0.61554(18)
O1 O 0.28478(18) 0.42740(11) 0.17367(16)
O2 O 0.41773(18) 0.51905(12) 0.24439(16)
O3 O 0.34629(19) 0.90825(13) 0.18812(16)
O4 O 0.45003(17) 0.95283(12) 0.33333(14)
H1 H 0.4898 0.9717 0.3024
O5 O 0.24501(16) 1.04207(11) 0.36242(15)
O6 O 0.32947(17) 1.00723(10) 0.51737(14)
O7 O -0.14318(19) 0.84927(13) 0.56488(16)
H2 H -0.1823 0.8733 0.5928
O8 O -0.1649(2) 0.74783(14) 0.6574(2)
C1 C 0.3188(3) 0.49151(16) 0.2224(2)
C2 C 0.2290(2) 0.53683(15) 0.2518(2)
C3 C 0.1192(3) 0.50613(17) 0.2349(2)
H3 H 0.1010 0.4550 0.2085
C4 C 0.0366(3) 0.55220(17) 0.2575(2)
H4 H -0.0368 0.5314 0.2477
C5 C 0.0623(2) 0.62835(16) 0.2943(2)
H5 H 0.0054 0.6592 0.3073
C6 C 0.1722(2) 0.66007(14) 0.3124(2)
C7 C 0.2549(2) 0.61287(14) 0.2917(2)
H6 H 0.3293 0.6326 0.3048
C8 C 0.3646(2) 0.91260(16) 0.2748(2)
C9 C 0.2925(2) 0.86972(15) 0.3271(2)
C10 C 0.2613(2) 0.79119(15) 0.3007(2)
H7 H 0.2807 0.7691 0.2490
C11 C 0.2019(2) 0.74366(15) 0.3487(2)
C12 C 0.1720(2) 0.77818(16) 0.4264(2)
C13 C 0.2034(2) 0.85788(16) 0.4511(2)
H8 H 0.1839 0.8809 0.5024
C14 C 0.2621(2) 0.90390(15) 0.4028(2)
C15 C 0.2809(2) 0.99137(15) 0.4285(2)
C16 C -0.1211(3) 0.77596(19) 0.6010(2)
C17 C -0.0343(2) 0.73310(17) 0.5667(2)
C18 C -0.0060(3) 0.65443(18) 0.5960(2)
H9 H -0.0454 0.6277 0.6324
C19 C 0.0802(3) 0.61626(18) 0.5713(3)
H10 H 0.0993 0.5636 0.5912
C20 C 0.1386(3) 0.65527(17) 0.5174(2)
H11 H 0.1982 0.6290 0.5026
C21 C 0.1098(2) 0.73382(15) 0.4842(2)
C22 C 0.0233(2) 0.77160(16) 0.5102(2)
H12 H 0.0030 0.8240 0.4894
C23 C 0.4801(2) 1.13308(18) 0.4351(2)
H13 H 0.4829 1.0773 0.4318
C24 C 0.5313(3) 1.1783(2) 0.3791(3)
H14 H 0.5688 1.1531 0.3402
C25 C 0.5257(3) 1.2602(2) 0.3819(3)
H15 H 0.5584 1.2912 0.3438
C26 C 0.4712(3) 1.29729(17) 0.4417(2)
C27 C 0.4250(2) 1.24746(15) 0.4976(2)
C28 C 0.3706(2) 1.27984(16) 0.5626(2)
C29 C 0.2789(3) 1.25478(18) 0.6764(2)
H16 H 0.2507 1.2186 0.7124
C30 C 0.2650(3) 1.33694(19) 0.6881(3)
H17 H 0.2296 1.3551 0.7324
C31 C 0.3037(3) 1.39016(18) 0.6343(3)
H18 H 0.2934 1.4449 0.6412
C32 C 0.3585(3) 1.36343(17) 0.5689(2)
C33 C 0.4034(3) 1.41260(19) 0.5083(3)
H19 H 0.3949 1.4680 0.5105
C34 C 0.4570(3) 1.38228(18) 0.4485(3)
H20 H 0.4854 1.4168 0.4109
Cu1B Cu -0.34780(3) 0.88690(2) 0.42349(3)
Cu1B_2 Cu 0.65220(3) 0.88690(2) 0.42349(3)
Cu1C Cu 0.34780(3) 0.38690(2) 0.07651(3)
O1C O 0.28478(18) 1.07260(11) 0.67367(16)
O4B O 0.54997(17) 1.04717(12) 0.66667(14)
O7B O 0.14318(19) 1.15073(13) 0.43512(16)
loop_
_geom_bond_atom_site_label_1
_geom_bond_atom_site_label_2
_geom_bond_site_symmetry_1
_geom_bond_site_symmetry_2
Cu1 N1 1_555 1_555
N1 C23 1_555 1_555
N2 Cu1 1_555 1_555
O1 C1 1_555 1_555
O2 C1 1_555 1_555
O3 C8 1_555 1_555
O4 H1 1_555 1_555
O5 C15 1_555 1_555
O6 Cu1 1_555 1_555
O7 H2 1_555 1_555
O8 C16 1_555 1_555
C1 C2 1_555 1_555
C2 C3 1_555 1_555
C3 H3 1_555 1_555
C4 C3 1_555 1_555
H4 C4 1_555 1_555
C5 C4 1_555 1_555
H5 C5 1_555 1_555
C6 C5 1_555 1_555
C7 C2 1_555 1_555
H6 C7 1_555 1_555
C8 O4 1_555 1_555
C9 C8 1_555 1_555
C10 C9 1_555 1_555
H7 C10 1_555 1_555
C11 C6 1_555 1_555
C12 C11 1_555 1_555
C13 C12 1_555 1_555
H8 C13 1_555 1_555
C14 C9 1_555 1_555
C15 O6 1_555 1_555
C16 O7 1_555 1_555
C17 C16 1_555 1_555
C18 C17 1_555 1_555
H9 C18 1_555 1_555
C19 C18 1_555 1_555
H10 C19 1_555 1_555
C20 C19 1_555 1_555
H11 C20 1_555 1_555
C21 C12 1_555 1_555
C22 C17 1_555 1_555
H12 C22 1_555 1_555
C23 H13 1_555 1_555
C24 C23 1_555 1_555
H14 C24 1_555 1_555
C25 C24 1_555 1_555
H15 C25 1_555 1_555
C26 C25 1_555 1_555
C27 N1 1_555 1_555
C28 N2 1_555 1_555
C29 N2 1_555 1_555
H16 C29 1_555 1_555
C30 C29 1_555 1_555
H17 C30 1_555 1_555
C31 C30 1_555 1_555
H18 C31 1_555 1_555
C32 C28 1_555 1_555
C33 C32 1_555 1_555
H19 C33 1_555 1_555
C34 C26 1_555 1_555
H20 C34 1_555 1_555
Cu1B O7 1_555 1_555
Cu1B_2 O4 1_555 1_555
Cu1C O1 1_555 1_555
O1C Cu1 1_555 1_555
O4B Cu1 1_555 1_555
O7B Cu1 1_555 1_555
C6 C7 1_555 1_555
C10 C11 1_555 1_555
C13 C14 1_555 1_555
C14 C15 1_555 1_555
C20 C21 1_555 1_555
C21 C22 1_555 1_555
C26 C27 1_555 1_555
C27 C28 1_555 1_555
C31 C32 1_555 1_555
C33 C34 1_555 1_555

#END
