
#######################################################################
#
#                 Cambridge Crystallographic Data Centre
#                                CCDC 
#
#######################################################################
#
# If this CIF has been generated from an entry in the Cambridge 
# Structural Database, then it will include bibliographic, chemical, 
# crystal, experimental, refinement or atomic coordinate data resulting 
# from the CCDC's data processing and validation procedures.
#
#######################################################################

data_DUHPIH
_symmetry_cell_setting           orthorhombic
_symmetry_space_group_name_H-M   'P c c n'
_symmetry_Int_Tables_number      56
_space_group_name_Hall           '-P 2ab 2ac'
loop_
_symmetry_equiv_pos_site_id
_symmetry_equiv_pos_as_xyz
1 x,y,z
2 1/2-x,1/2-y,z
3 1/2+x,-y,1/2-z
4 -x,1/2+y,1/2-z
5 -x,-y,-z
6 1/2+x,1/2+y,-z
7 1/2-x,y,1/2+z
8 x,1/2-y,1/2+z
_cell_length_a                   14.388(5)
_cell_length_b                   15.918(5)
_cell_length_c                   15.735(5)
_cell_angle_alpha                90
_cell_angle_beta                 90
_cell_angle_gamma                90
_cell_volume                     3603.76
loop_
_atom_site_label
_atom_site_type_symbol
_atom_site_fract_x
_atom_site_fract_y
_atom_site_fract_z
Fe1 Fe 0.250 0.750 0.74854(8)
S1 S 0.03421(12) 0.52690(12) 0.75628(13)
N1 N 0.3186(3) 0.6867(3) 0.6594(3)
N2 N 0.1813(3) 0.8153(3) 0.8361(3)
N3 N 0.1534(3) 0.6654(3) 0.7497(3)
C1 C 0.4121(4) 0.6782(4) 0.6617(4)
H1 H 0.4461 0.7097 0.7025
C2 C 0.4604(4) 0.6261(4) 0.6077(4)
H2 H 0.5261 0.622 0.612
C3 C 0.4129(4) 0.5793(4) 0.5466(4)
C4 C 0.3178(4) 0.5924(4) 0.5402(4)
H3 H 0.2834 0.5654 0.4965
C5 C 0.2734(4) 0.6443(4) 0.5971(4)
H4 H 0.208 0.6508 0.5925
C6 C 0.4583(4) 0.5166(4) 0.4919(4)
H5 H 0.4265 0.4988 0.4421
C7 C 0.1335(4) 0.7789(4) 0.9006(4)
H6 H 0.1383 0.7198 0.9079
C8 C 0.0780(4) 0.8239(4) 0.9563(4)
H7 H 0.0448 0.7954 0.9999
C9 C 0.0706(4) 0.9106(4) 0.9486(4)
C10 C 0.1233(4) 0.9484(4) 0.8840(4)
H8 H 0.1222 1.0077 0.8772
C11 C 0.1765(4) 0.8997(4) 0.8304(4)
H9 H 0.2115 0.927 0.7873
C12 C 0.0110(4) 0.9598(4) 1.0056(4)
H10 H -0.0137 0.9322 1.054
C13 C 0.1028(4) 0.6089(4) 0.7514(4)
N1D N 0.6814(3) 0.3133(3) 0.3406(3)
C1D C 0.5879(4) 0.3218(4) 0.3383(4)
H1D H 0.5539 0.2903 0.2975
C2D C 0.5396(4) 0.3739(4) 0.3923(4)
H2D H 0.4739 0.378 0.388
C3D C 0.5871(4) 0.4207(4) 0.4534(4)
C4D C 0.6822(4) 0.4076(4) 0.4598(4)
H3D H 0.7166 0.4346 0.5035
C5D C 0.7266(4) 0.3557(4) 0.4029(4)
H4D H 0.792 0.3492 0.4075
C6D C 0.5417(4) 0.4834(4) 0.5081(4)
H5D H 0.5735 0.5012 0.5579
N2D N -0.1813(3) 1.1847(3) 1.1639(3)
C7D C -0.1335(4) 1.2211(4) 1.0994(4)
H6D H -0.1383 1.2802 1.0921
C8D C -0.0780(4) 1.1761(4) 1.0437(4)
H7D H -0.0448 1.2046 1.0001
C9D C -0.0706(4) 1.0894(4) 1.0514(4)
C10D C -0.1233(4) 1.0516(4) 1.1160(4)
H8D H -0.1222 0.9923 1.1228
C11D C -0.1765(4) 1.1003(4) 1.1696(4)
H9D H -0.2115 1.073 1.2127
C12D C -0.0110(4) 1.0402(4) 0.9944(4)
H10D H 0.0137 1.0678 0.946
S1A S 0.46579(12) 0.97310(12) 0.75628(13)
N3A N 0.3466(3) 0.8346(3) 0.7497(3)
C13A C 0.3972(4) 0.8911(4) 0.7514(4)
Fe1D Fe -0.250 1.250 1.25146(8)
Fe1D_2 Fe 0.750 0.250 0.25146(8)
N1A N 0.1814(3) 0.8133(3) 0.6594(3)
N2A N 0.3187(3) 0.6847(3) 0.8361(3)
N4 N 0.8846(5) 0.7997(5) 0.1337(5)
C14 C 0.8683(6) 0.8094(5) 0.3561(6)
H11 H 0.9225 0.7758 0.3507
C15 C 0.8341(7) 0.8281(6) 0.4346(6)
H12 H 0.8647 0.8076 0.4839
C16 C 0.7537(7) 0.8776(6) 0.4430(7)
H13 H 0.7295 0.8893 0.4979
C17 C 0.7096(6) 0.9093(5) 0.3720(6)
H14 H 0.6566 0.9443 0.378
C18 C 0.7439(6) 0.8893(5) 0.2909(6)
H15 H 0.7133 0.9095 0.2415
C19 C 0.8234(5) 0.8395(5) 0.2838(5)
C20 C 0.8581(5) 0.8176(6) 0.2002(6)
loop_
_geom_bond_atom_site_label_1
_geom_bond_atom_site_label_2
_geom_bond_site_symmetry_1
_geom_bond_site_symmetry_2
Fe1 N1 1_555 1_555
S1 C13 1_555 1_555
N1 C1 1_555 1_555
N2 Fe1 1_555 1_555
N3 Fe1 1_555 1_555
C1 H1 1_555 1_555
C2 C1 1_555 1_555
H2 C2 1_555 1_555
C3 C2 1_555 1_555
C4 C3 1_555 1_555
H3 C4 1_555 1_555
C5 N1 1_555 1_555
H4 C5 1_555 1_555
C6 C3 1_555 1_555
H5 C6 1_555 1_555
C7 N2 1_555 1_555
H6 C7 1_555 1_555
C8 C7 1_555 1_555
H7 C8 1_555 1_555
C9 C8 1_555 1_555
C10 C9 1_555 1_555
H8 C10 1_555 1_555
C11 N2 1_555 1_555
H9 C11 1_555 1_555
C12 C9 1_555 1_555
H10 C12 1_555 1_555
C13 N3 1_555 1_555
N4 C20 1_555 1_555
C14 H11 1_555 1_555
C15 C14 1_555 1_555
H12 C15 1_555 1_555
C16 C15 1_555 1_555
H13 C16 1_555 1_555
C17 C16 1_555 1_555
H14 C17 1_555 1_555
C18 C17 1_555 1_555
H15 C18 1_555 1_555
C19 C14 1_555 1_555
C20 C19 1_555 1_555
N1D C1D 1_555 1_555
C1D H1D 1_555 1_555
C2D C1D 1_555 1_555
H2D C2D 1_555 1_555
C3D C2D 1_555 1_555
C4D C3D 1_555 1_555
H3D C4D 1_555 1_555
C5D N1D 1_555 1_555
H4D C5D 1_555 1_555
C6D C6 1_555 1_555
H5D C6D 1_555 1_555
N2D C7D 1_555 1_555
C7D H6D 1_555 1_555
C8D C7D 1_555 1_555
H7D C8D 1_555 1_555
C9D C8D 1_555 1_555
C10D C9D 1_555 1_555
H8D C10D 1_555 1_555
C11D N2D 1_555 1_555
H9D C11D 1_555 1_555
C12D C12 1_555 1_555
H10D C12D 1_555 1_555
S1A C13A 1_555 1_555
N3A Fe1 1_555 1_555
C13A N3A 1_555 1_555
Fe1D N2D 1_555 1_555
Fe1D_2 N1D 1_555 1_555
N1A Fe1 1_555 1_555
N2A Fe1 1_555 1_555
C4 C5 1_555 1_555
C10 C11 1_555 1_555
C18 C19 1_555 1_555
C3D C6D 1_555 1_555
C4D C5D 1_555 1_555
C9D C12D 1_555 1_555
C10D C11D 1_555 1_555

#END
