
#######################################################################
#
#                 Cambridge Crystallographic Data Centre
#                                CCDC 
#
#######################################################################
#
# If this CIF has been generated from an entry in the Cambridge 
# Structural Database, then it will include bibliographic, chemical, 
# crystal, experimental, refinement or atomic coordinate data resulting 
# from the CCDC's data processing and validation procedures.
#
#######################################################################

data_DUHPIH01
_symmetry_cell_setting           tetragonal
_symmetry_space_group_name_H-M   'P 4/n c c'
_symmetry_Int_Tables_number      130
_space_group_name_Hall           '-P 4a 2ac'
loop_
_symmetry_equiv_pos_site_id
_symmetry_equiv_pos_as_xyz
1 x,y,z
2 1/2-x,1/2-y,z
3 1/2+x,-y,1/2-z
4 -x,1/2+y,1/2-z
5 -y,-x,1/2-z
6 1/2+y,1/2+x,1/2-z
7 y,1/2-x,z
8 1/2-y,x,z
9 -x,-y,-z
10 1/2+x,1/2+y,-z
11 1/2-x,y,1/2+z
12 x,1/2-y,1/2+z
13 y,x,1/2+z
14 1/2-y,1/2-x,1/2+z
15 -y,1/2+x,-z
16 1/2+y,-x,-z
_cell_length_a                   15.8412(8)
_cell_length_b                   15.8412(8)
_cell_length_c                   15.8384(14)
_cell_angle_alpha                90
_cell_angle_beta                 90
_cell_angle_gamma                90
_cell_volume                     3974.55
loop_
_atom_site_label
_atom_site_type_symbol
_atom_site_fract_x
_atom_site_fract_y
_atom_site_fract_z
Fe1 Fe 0.750 0.250 0.250
S1 S 0.9808(5) 0.4477(5) 0.2475(11)
N1 N 0.84349(18) 0.34349(18) 0.250
C1 C 0.8937(2) 0.3937(2) 0.250
C2 C 0.78528(19) 0.13418(19) 0.4071(2)
H1 H 0.7269 0.1376 0.4126
C3 C 0.8283(2) 0.0816(2) 0.4611(2)
H2 H 0.7994 0.0517 0.5025
C4 C 0.91559(18) 0.07354(18) 0.4532(2)
C5 C 0.95425(19) 0.12272(19) 0.3928(2)
H3 H 1.0125 0.1207 0.3859
C6 C 0.90605(18) 0.17497(18) 0.34250(19)
H4 H 0.9336 0.2083 0.3028
C7 C 0.9615(2) 0.0138(2) 0.5071(2)
H5 H 0.9339 -0.006 0.555
N2 N 0.82199(13) 0.18032(14) 0.34770(15)
S1E S 0.9477(5) 0.4808(5) 0.2525(11)
C2H C 1.21472(19) -0.13418(19) 0.5929(2)
H1H H 1.2731 -0.1376 0.5874
C3H C 1.1717(2) -0.0816(2) 0.5389(2)
H2H H 1.2006 -0.0517 0.4975
C4H C 1.08441(18) -0.07354(18) 0.5468(2)
C5H C 1.04575(19) -0.12272(19) 0.6072(2)
H3H H 0.9875 -0.1207 0.6141
C6H C 1.09395(18) -0.17497(18) 0.65750(19)
H4H H 1.0664 -0.2083 0.6972
C7H C 1.0385(2) -0.0138(2) 0.4929(2)
H5H H 1.0661 0.006 0.445
N2H N 1.17801(13) -0.18032(14) 0.65230(15)
S1A S 0.5192(5) 0.0523(5) 0.2475(11)
N1A N 0.65651(18) 0.15651(18) 0.250
C1A C 0.6063(2) 0.1063(2) 0.250
C2A C 0.71472(19) 0.36582(19) 0.4071(2)
H1A H 0.7731 0.3624 0.4126
C3A C 0.6717(2) 0.4184(2) 0.4611(2)
H2A H 0.7006 0.4483 0.5025
C4A C 0.58441(18) 0.42646(18) 0.4532(2)
C5A C 0.54575(19) 0.37728(19) 0.3928(2)
H3A H 0.4875 0.3793 0.3859
C6A C 0.59395(18) 0.32503(18) 0.34250(19)
H4A H 0.5664 0.2917 0.3028
C7A C 0.5385(2) 0.4862(2) 0.5071(2)
H5A H 0.5661 0.506 0.555
N2A N 0.67801(13) 0.31968(14) 0.34770(15)
S1D S 0.5523(5) 0.0192(5) 0.2525(11)
C2I C 0.28528(19) 0.63418(19) 0.5929(2)
H1I H 0.2269 0.6376 0.5874
C3I C 0.3283(2) 0.5816(2) 0.5389(2)
H2I H 0.2994 0.5517 0.4975
C4I C 0.41559(18) 0.57354(18) 0.5468(2)
C5I C 0.45425(19) 0.62272(19) 0.6072(2)
H3I H 0.5125 0.6207 0.6141
C6I C 0.40605(18) 0.67497(18) 0.65750(19)
H4I H 0.4336 0.7083 0.6972
C7I C 0.4615(2) 0.5138(2) 0.4929(2)
H5I H 0.4339 0.494 0.445
N2I N 0.32199(13) 0.68032(14) 0.65230(15)
Fe1H Fe 0.250 0.750 0.750
Fe1H_2 Fe 1.250 -0.250 0.750
N2D N 0.81968(14) 0.17801(13) 0.15230(15)
N2E N 0.68032(14) 0.32199(13) 0.15230(15)
N3 N 0.122(2) 0.290(2) 0.373(2)
C8 C 0.141(2) 0.269(3) 0.3033(17)
C9 C 0.1333(12) 0.2353(17) 0.2169(17)
C10 C 0.1534(14) 0.1541(16) 0.2020(15)
H6 H 0.1616 0.1172 0.2469
C11 C 0.1616(16) 0.1264(19) 0.1221(16)
H7 H 0.1755 0.0703 0.1118
C12 C 0.1496(15) 0.180(2) 0.0572(15)
H8 H 0.1553 0.1606 0.002
C13 C 0.1295(17) 0.261(3) 0.0721(16)
H9 H 0.1212 0.2978 0.0272
C14 C 0.1213(16) 0.289(2) 0.1520(18)
H10 H 0.1074 0.3448 0.1623
N3F N 0.290(2) 0.378(2) 0.373(2)
C8F C 0.269(3) 0.359(2) 0.3033(17)
C9F C 0.2353(17) 0.3667(12) 0.2169(17)
C10F C 0.1541(16) 0.3466(14) 0.2020(15)
H6F H 0.1172 0.3384 0.2469
C11F C 0.1264(19) 0.3384(16) 0.1221(16)
H7F H 0.0703 0.3245 0.1118
C12F C 0.180(2) 0.3504(15) 0.0572(15)
H8F H 0.1606 0.3447 0.002
C13F C 0.261(3) 0.3705(17) 0.0721(16)
H9F H 0.2978 0.3788 0.0272
C14F C 0.289(2) 0.3787(16) 0.1520(18)
H10F H 0.3448 0.3926 0.1623
N3G N 0.210(2) 0.122(2) 0.373(2)
C8G C 0.231(3) 0.141(2) 0.3033(17)
C9G C 0.2647(17) 0.1333(12) 0.2169(17)
C10G C 0.3459(16) 0.1534(14) 0.2020(15)
H6G H 0.3828 0.1616 0.2469
C11G C 0.3736(19) 0.1616(16) 0.1221(16)
H7G H 0.4297 0.1755 0.1118
C12G C 0.320(2) 0.1496(15) 0.0572(15)
H8G H 0.3394 0.1553 0.002
C13G C 0.239(3) 0.1295(17) 0.0721(16)
H9G H 0.2022 0.1212 0.0272
C14G C 0.211(2) 0.1213(16) 0.1520(18)
H10G H 0.1552 0.1074 0.1623
N3A N 0.378(2) 0.210(2) 0.373(2)
C8A C 0.359(2) 0.231(3) 0.3033(17)
C9A C 0.3667(12) 0.2647(17) 0.2169(17)
C10A C 0.3466(14) 0.3459(16) 0.2020(15)
H6A H 0.3384 0.3828 0.2469
C11A C 0.3384(16) 0.3736(19) 0.1221(16)
H7A H 0.3245 0.4297 0.1118
C12A C 0.3504(15) 0.320(2) 0.0572(15)
H8A H 0.3447 0.3394 0.002
C13A C 0.3705(17) 0.239(3) 0.0721(16)
H9A H 0.3788 0.2022 0.0272
C14A C 0.3787(16) 0.211(2) 0.1520(18)
H10A H 0.3926 0.1552 0.1623
loop_
_geom_bond_atom_site_label_1
_geom_bond_atom_site_label_2
_geom_bond_site_symmetry_1
_geom_bond_site_symmetry_2
Fe1 N1 1_555 1_555
S1 C1 1_555 1_555
N1 C1 1_555 1_555
C1 S1E 1_555 1_555
C2 H1 1_555 1_555
C3 C2 1_555 1_555
H2 C3 1_555 1_555
C4 C3 1_555 1_555
C5 C4 1_555 1_555
H3 C5 1_555 1_555
C6 C5 1_555 1_555
H4 C6 1_555 1_555
C7 C4 1_555 1_555
H5 C7 1_555 1_555
N2 Fe1 1_555 1_555
N3 C8 1_555 1_555
C8 C9 1_555 1_555
C9 C10 1_555 1_555
C10 H6 1_555 1_555
C11 C10 1_555 1_555
H7 C11 1_555 1_555
C12 C11 1_555 1_555
H8 C12 1_555 1_555
C13 C12 1_555 1_555
H9 C13 1_555 1_555
C14 C9 1_555 1_555
H10 C14 1_555 1_555
S1E S1 1_555 1_555
C2H H1H 1_555 1_555
C3H C2H 1_555 1_555
H2H C3H 1_555 1_555
C4H C3H 1_555 1_555
C5H C4H 1_555 1_555
H3H C5H 1_555 1_555
C6H C5H 1_555 1_555
H4H C6H 1_555 1_555
C7H C7 1_555 1_555
H5H C7H 1_555 1_555
N2H C2H 1_555 1_555
S1A C1A 1_555 1_555
N1A Fe1 1_555 1_555
C1A N1A 1_555 1_555
C2A H1A 1_555 1_555
C3A C2A 1_555 1_555
H2A C3A 1_555 1_555
C4A C3A 1_555 1_555
C5A C4A 1_555 1_555
H3A C5A 1_555 1_555
C6A C5A 1_555 1_555
H4A C6A 1_555 1_555
C7A C4A 1_555 1_555
H5A C7A 1_555 1_555
N2A Fe1 1_555 1_555
S1D S1A 1_555 1_555
C2I H1I 1_555 1_555
C3I C2I 1_555 1_555
H2I C3I 1_555 1_555
C4I C3I 1_555 1_555
C5I C4I 1_555 1_555
H3I C5I 1_555 1_555
C6I C5I 1_555 1_555
H4I C6I 1_555 1_555
C7I C7A 1_555 1_555
H5I C7I 1_555 1_555
N2I C2I 1_555 1_555
Fe1H N2I 1_555 1_555
Fe1H_2 N2H 1_555 1_555
N2D Fe1 1_555 1_555
N2E Fe1 1_555 1_555
N3F C8F 1_555 1_555
C8F C9F 1_555 1_555
C9F C10F 1_555 1_555
C10F C9 1_555 1_555
H6F C10F 1_555 1_555
C11F C13 1_555 1_555
H7F C14 1_555 1_555
C12F C13 1_555 1_555
H8F C12F 1_555 1_555
C13F C12F 1_555 1_555
H9F C13F 1_555 1_555
C14F C9F 1_555 1_555
H10F C14F 1_555 1_555
N3G C8G 1_555 1_555
C8G C9G 1_555 1_555
C9G C10 1_555 1_555
C10G C9G 1_555 1_555
H6G C10G 1_555 1_555
C11G C10G 1_555 1_555
H7G C11G 1_555 1_555
C12G C11G 1_555 1_555
H8G C12G 1_555 1_555
C13G C11 1_555 1_555
H9G C12 1_555 1_555
C14G C10 1_555 1_555
H10G C10 1_555 1_555
N3A C8A 1_555 1_555
C8A C9A 1_555 1_555
C9A C10G 1_555 1_555
C10A C9F 1_555 1_555
H6A C10A 1_555 1_555
C11A C13F 1_555 1_555
H7A C14F 1_555 1_555
C12A C13F 1_555 1_555
H8A C12A 1_555 1_555
C13A C11G 1_555 1_555
H9A C12G 1_555 1_555
C14A C10G 1_555 1_555
H10A C10G 1_555 1_555
C2 N2 1_555 1_555
C6 N2 1_555 1_555
C11 C14G 1_555 1_555
C11 H10G 1_555 1_555
H7 C14G 1_555 1_555
C12 C13G 1_555 1_555
C13 C14 1_555 1_555
H9 C12F 1_555 1_555
C14 C10F 1_555 1_555
C14 C11F 1_555 1_555
H10 C10F 1_555 1_555
H10 C11F 1_555 1_555
C4H C7H 1_555 1_555
C6H N2H 1_555 1_555
C1A S1D 1_555 1_555
C2A N2A 1_555 1_555
C6A N2A 1_555 1_555
C4I C7I 1_555 1_555
C6I N2I 1_555 1_555
C10F C11F 1_555 1_555
C11F H7F 1_555 1_555
C11F C12F 1_555 1_555
C13F C14F 1_555 1_555
H9F C12A 1_555 1_555
C14F C10A 1_555 1_555
C14F C11A 1_555 1_555
H10F C10A 1_555 1_555
H10F C11A 1_555 1_555
C9G C14G 1_555 1_555
C11G C14A 1_555 1_555
C11G H10A 1_555 1_555
H7G C14A 1_555 1_555
C12G C13G 1_555 1_555
C12G C13A 1_555 1_555
C13G H9G 1_555 1_555
C13G C14G 1_555 1_555
C14G H10G 1_555 1_555
C9A C10A 1_555 1_555
C9A C14A 1_555 1_555
C10A C11A 1_555 1_555
C11A H7A 1_555 1_555
C11A C12A 1_555 1_555
C12A C13A 1_555 1_555
C13A H9A 1_555 1_555
C13A C14A 1_555 1_555
C14A H10A 1_555 1_555

#END
