
#######################################################################
#
#                 Cambridge Crystallographic Data Centre
#                                CCDC 
#
#######################################################################
#
# If this CIF has been generated from an entry in the Cambridge 
# Structural Database, then it will include bibliographic, chemical, 
# crystal, experimental, refinement or atomic coordinate data resulting 
# from the CCDC's data processing and validation procedures.
#
#######################################################################

data_DUHQED
_symmetry_cell_setting           monoclinic
_symmetry_space_group_name_H-M   'C 2/c'
_symmetry_Int_Tables_number      15
_space_group_name_Hall           '-C 2yn'
loop_
_symmetry_equiv_pos_site_id
_symmetry_equiv_pos_as_xyz
1 x,y,z
2 -x,y,1/2-z
3 1/2+x,1/2+y,z
4 1/2-x,1/2+y,1/2-z
5 -x,-y,-z
6 x,-y,1/2+z
7 1/2-x,1/2-y,-z
8 1/2+x,1/2-y,1/2+z
_cell_length_a                   29.460(8)
_cell_length_b                   9.236(3)
_cell_length_c                   9.875(3)
_cell_angle_alpha                90
_cell_angle_beta                 102.706(5)
_cell_angle_gamma                90
_cell_volume                     2621.12
loop_
_atom_site_label
_atom_site_type_symbol
_atom_site_fract_x
_atom_site_fract_y
_atom_site_fract_z
C1 C 0.2903(2) 0.3204(7) 0.3530(6)
H1 H 0.2780 0.2284 0.3594
C2 C 0.2697(2) 0.4365(8) 0.4029(7)
H2 H 0.2441 0.4229 0.4423
C3 C 0.2872(2) 0.5721(8) 0.3938(7)
H3 H 0.2740 0.6518 0.4279
C4 C 0.3246(2) 0.5889(7) 0.3340(7)
H4 H 0.3367 0.6806 0.3257
C5 C 0.34421(19) 0.4681(6) 0.2858(5)
C6 C 0.3844(2) 0.4772(6) 0.2209(6)
C7 C 0.4082(3) 0.5950(7) 0.1822(8)
H5 H 0.4024 0.6926 0.1940
C8 C 0.4416(3) 0.5372(7) 0.1235(8)
H6 H 0.4632 0.5886 0.0868
C9 C 0.39499(16) 0.0253(5) 0.5065(5)
C10 C 0.34569(16) -0.0362(5) 0.4432(5)
N1 N 0.32730(15) 0.3343(5) 0.2955(5)
N2 N 0.40299(15) 0.3533(4) 0.1877(5)
N3 N 0.43793(17) 0.3939(6) 0.1279(5)
H7 H 0.4556 0.3346 0.0965
Mn1 Mn 0.36805(2) 0.14892(8) 0.22637(7)
O1 O 0.41292(12) 0.1050(4) 0.4304(4)
O2 O 0.32916(13) -0.0076(4) 0.3189(4)
O3 O 0.41261(12) -0.0083(4) 0.6295(3)
O4 O 0.32667(11) -0.1102(4) 0.5215(3)
C1E C 0.2903(2) -0.3204(7) -0.1470(6)
H1E H 0.2780 -0.2284 -0.1406
C2E C 0.2697(2) -0.4365(8) -0.0971(7)
H2E H 0.2441 -0.4229 -0.0577
C3E C 0.2872(2) -0.5721(8) -0.1062(7)
H3E H 0.2740 -0.6518 -0.0721
C4E C 0.3246(2) -0.5889(7) -0.1660(7)
H4E H 0.3367 -0.6806 -0.1743
C5E C 0.34421(19) -0.4681(6) -0.2142(5)
C6E C 0.3844(2) -0.4772(6) -0.2791(6)
C7E C 0.4082(3) -0.5950(7) -0.3178(8)
H5E H 0.4024 -0.6926 -0.3060
C8E C 0.4416(3) -0.5372(7) -0.3765(8)
H6E H 0.4632 -0.5886 -0.4132
C9E C 0.39499(16) -0.0253(5) 0.0065(5)
C10E C 0.34569(16) 0.0362(5) -0.0568(5)
N1E N 0.32730(15) -0.3343(5) -0.2045(5)
N2E N 0.40299(15) -0.3533(4) -0.3123(5)
N3E N 0.43793(17) -0.3939(6) -0.3721(5)
H7E H 0.4556 -0.3346 -0.4035
Mn1E Mn 0.36805(2) -0.14892(8) -0.27363(7)
Mn1E_2 Mn 0.36805(2) -0.14892(8) 0.72637(7)
O1E O 0.41292(12) -0.1050(4) -0.0696(4)
O2E O 0.32916(13) 0.0076(4) -0.1811(4)
O3E O 0.41261(12) 0.0083(4) 0.1295(3)
O3_2 O 0.41261(12) -0.0083(4) -0.3705(3)
O4E O 0.32667(11) 0.1102(4) 0.0215(3)
O4_2 O 0.32667(11) -0.1102(4) -0.4785(3)
O5 O 0.49441(17) 0.2150(6) 0.0153(6)
H8 H 0.5197(14) 0.181(7) 0.056(5)
H9 H 0.485(2) 0.183(7) -0.063(4)
O6 O 0.5000 0.8860(7) 0.2500
H10 H 0.4792(17) 0.944(6) 0.222(7)
H10A H 0.5208(17) 0.944(6) 0.278(7)
loop_
_geom_bond_atom_site_label_1
_geom_bond_atom_site_label_2
_geom_bond_site_symmetry_1
_geom_bond_site_symmetry_2
C1 H1 1_555 1_555
C2 C1 1_555 1_555
H2 C2 1_555 1_555
C3 C2 1_555 1_555
H3 C3 1_555 1_555
C4 C3 1_555 1_555
H4 C4 1_555 1_555
C5 C4 1_555 1_555
C6 C5 1_555 1_555
C7 C6 1_555 1_555
H5 C7 1_555 1_555
C8 C7 1_555 1_555
H6 C8 1_555 1_555
C9 C10 1_555 1_555
C10 O2 1_555 1_555
N1 C1 1_555 1_555
N2 C6 1_555 1_555
N3 C8 1_555 1_555
H7 N3 1_555 1_555
Mn1 N1 1_555 1_555
O1 C9 1_555 1_555
O2 Mn1 1_555 1_555
O3 C9 1_555 1_555
O4 C10 1_555 1_555
O5 H8 1_555 1_555
O6 H10 1_555 1_555
H9 O5 1_555 1_555
C1E H1E 1_555 1_555
C2E C1E 1_555 1_555
H2E C2E 1_555 1_555
C3E C2E 1_555 1_555
H3E C3E 1_555 1_555
C4E C3E 1_555 1_555
H4E C4E 1_555 1_555
C5E C4E 1_555 1_555
C6E C5E 1_555 1_555
C7E C6E 1_555 1_555
H5E C7E 1_555 1_555
C8E C7E 1_555 1_555
H6E C8E 1_555 1_555
C9E C10E 1_555 1_555
C10E O2E 1_555 1_555
N1E C1E 1_555 1_555
N2E C6E 1_555 1_555
N3E C8E 1_555 1_555
H7E N3E 1_555 1_555
Mn1E N1E 1_555 1_555
Mn1E_2 O3 1_555 1_555
O1E C9E 1_555 1_555
O2E Mn1E 1_555 1_555
O3E Mn1 1_555 1_555
O3_2 Mn1E 1_555 1_555
O4E Mn1 1_555 1_555
O4_2 Mn1E 1_555 1_555
H10A O6 1_555 1_555
C5 N1 1_555 1_555
N2 N3 1_555 1_555
N2 Mn1 1_555 1_555
Mn1 O1 1_555 1_555
O4 Mn1E_2 1_555 1_555
C5E N1E 1_555 1_555
C9E O3E 1_555 1_555
C10E O4E 1_555 1_555
N2E N3E 1_555 1_555
N2E Mn1E 1_555 1_555
Mn1E O1E 1_555 1_555

#END
