
#######################################################################
#
#                 Cambridge Crystallographic Data Centre
#                                CCDC 
#
#######################################################################
#
# If this CIF has been generated from an entry in the Cambridge 
# Structural Database, then it will include bibliographic, chemical, 
# crystal, experimental, refinement or atomic coordinate data resulting 
# from the CCDC's data processing and validation procedures.
#
#######################################################################

data_DUHQUS01
_symmetry_cell_setting           monoclinic
_symmetry_space_group_name_H-M   'C 2/m'
_symmetry_Int_Tables_number      12
_space_group_name_Hall           '-C 2y'
loop_
_symmetry_equiv_pos_site_id
_symmetry_equiv_pos_as_xyz
1 x,y,z
2 1/2+x,1/2+y,z
3 x,-y,z
4 1/2+x,1/2-y,z
5 -x,-y,-z
6 1/2-x,1/2-y,-z
7 -x,y,-z
8 1/2-x,1/2+y,-z
_cell_length_a                   17.590(8)
_cell_length_b                   6.618(3)
_cell_length_c                   13.250(6)
_cell_angle_alpha                90
_cell_angle_beta                 105.51(2)
_cell_angle_gamma                90
_cell_volume                     1486.27
loop_
_atom_site_label
_atom_site_type_symbol
_atom_site_fract_x
_atom_site_fract_y
_atom_site_fract_z
Au1 Au 0.14274(4) 0.0000 0.70846(5)
N1 N 0.0600(8) 0.0000 0.7976(10)
H1 H 0.0106 0.0000 0.7497
N2 N 0.2262(6) 0.0000 0.6203(8)
H2 H 0.1976 0.0000 0.5502
C1 C 0.0630(7) 0.183(2) 0.8629(9)
H3 H 0.0186 0.1816 0.8957
H4 H 0.0579 0.3055 0.8186
C2 C 0.1405(7) 0.1886(17) 0.9469(9)
H5 H 0.1420 0.3098 0.9912
H6 H 0.1845 0.1984 0.9137
C3 C 0.1511(9) 0.0000 1.0153(11)
H7 H 0.2044 0.0000 1.0647
H8 H 0.1119 0.0000 1.0567
C4 C 0.2757(6) 0.1856(16) 0.6367(8)
H9 H 0.2414 0.3067 0.6248
H10 H 0.3079 0.1886 0.5858
C5 C 0.3297(6) 0.1893(16) 0.7479(8)
H11 H 0.3644 0.3095 0.7569
H12 H 0.2975 0.1994 0.7985
C6 C 0.3798(9) 0.0000 0.7700(12)
H13 H 0.4172 0.0000 0.7259
H14 H 0.4109 0.0000 0.8442
C2B C 0.1405(7) -0.1886(17) 0.9469(9)
C1B C 0.0630(7) -0.183(2) 0.8629(9)
H3B H 0.0186 -0.1816 0.8957
H4B H 0.0579 -0.3055 0.8186
H5B H 0.1420 -0.3098 0.9912
H6B H 0.1845 -0.1984 0.9137
C5B C 0.3297(6) -0.1893(16) 0.7479(8)
C4B C 0.2757(6) -0.1856(16) 0.6367(8)
H9B H 0.2414 -0.3067 0.6248
H10B H 0.3079 -0.1886 0.5858
H11B H 0.3644 -0.3095 0.7569
H12B H 0.2975 -0.1994 0.7985
Ag1 Ag 0.0000 0.26335(19) 0.5000
Cl1 Cl 0.07631(17) 0.0000 0.4151(2)
Cl2 Cl -0.0919(2) 0.5000 0.3636(3)
Cl1D Cl -0.07631(17) 0.0000 0.5849(2)
Cl2D Cl 0.0919(2) 0.5000 0.6364(3)
Ag1B Ag 0.0000 -0.26335(19) 0.5000
Ag1B_2 Ag 0.0000 0.73665(19) 0.5000
loop_
_geom_bond_atom_site_label_1
_geom_bond_atom_site_label_2
_geom_bond_site_symmetry_1
_geom_bond_site_symmetry_2
Au1 N1 1_555 1_555
Ag1 Cl1 1_555 1_555
Cl1 Ag1B 1_555 1_555
Cl2 Ag1 1_555 1_555
N1 H1 1_555 1_555
N2 Au1 1_555 1_555
H2 N2 1_555 1_555
C1 N1 1_555 1_555
H3 C1 1_555 1_555
H4 C1 1_555 1_555
C2 C1 1_555 1_555
H5 C2 1_555 1_555
H6 C2 1_555 1_555
C3 C2 1_555 1_555
H7 C3 1_555 1_555
H8 C3 1_555 1_555
C4 N2 1_555 1_555
H9 C4 1_555 1_555
H10 C4 1_555 1_555
C5 C4 1_555 1_555
H11 C5 1_555 1_555
H12 C5 1_555 1_555
C6 C5 1_555 1_555
H13 C6 1_555 1_555
H14 C6 1_555 1_555
C2B C3 1_555 1_555
C1B N1 1_555 1_555
H3B C1B 1_555 1_555
H4B C1B 1_555 1_555
H5B C2B 1_555 1_555
H6B C2B 1_555 1_555
C5B C6 1_555 1_555
C4B N2 1_555 1_555
H9B C4B 1_555 1_555
H10B C4B 1_555 1_555
H11B C5B 1_555 1_555
H12B C5B 1_555 1_555
Cl1D Ag1 1_555 1_555
Cl2D Ag1 1_555 1_555
Ag1B Cl1D 1_555 1_555
Ag1B_2 Cl2 1_555 1_555
C2B C1B 1_555 1_555
C5B C4B 1_555 1_555
Cl2D Ag1B_2 1_555 1_555

#END
