
#######################################################################
#
#                 Cambridge Crystallographic Data Centre
#                                CCDC 
#
#######################################################################
#
# If this CIF has been generated from an entry in the Cambridge 
# Structural Database, then it will include bibliographic, chemical, 
# crystal, experimental, refinement or atomic coordinate data resulting 
# from the CCDC's data processing and validation procedures.
#
#######################################################################

data_DUJPUV
_symmetry_cell_setting           triclinic
_symmetry_space_group_name_H-M   'P -1'
_symmetry_Int_Tables_number      2
_space_group_name_Hall           '-P 1'
loop_
_symmetry_equiv_pos_site_id
_symmetry_equiv_pos_as_xyz
1 x,y,z
2 -x,-y,-z
_cell_length_a                   10.1369(11)
_cell_length_b                   13.0533(14)
_cell_length_c                   20.411(2)
_cell_angle_alpha                90.1390(10)
_cell_angle_beta                 94.8310(10)
_cell_angle_gamma                101.3320(10)
_cell_volume                     2638.23
loop_
_atom_site_label
_atom_site_type_symbol
_atom_site_fract_x
_atom_site_fract_y
_atom_site_fract_z
Ni1 Ni -0.42481(4) 0.97728(3) 0.28998(2)
O1 O -0.2168(2) 0.98167(17) 0.31174(11)
O2 O -0.2880(2) 1.07538(17) 0.23132(11)
O3 O -0.5069(2) 0.87734(18) 0.35881(13)
N1 N -0.4222(3) 0.8573(2) 0.21963(13)
N2 N -0.4090(3) 1.1029(2) 0.35809(13)
O4 O -0.6024(2) 1.00788(17) 0.25120(11)
H1 H -0.5883(19) 0.878(2) 0.3512(17)
H2 H -0.489(3) 0.8171(17) 0.3650(17)
C1 C -0.3351(3) 0.7925(3) 0.22959(17)
C2 C -0.4854(3) 0.8543(3) 0.15891(17)
C3 C -0.4221(3) 1.0898(3) 0.42277(17)
C4 C -0.3755(4) 1.2013(3) 0.33775(17)
C5 C -0.7162(3) 0.9849(3) 0.27480(17)
H3 H -0.2899 0.7915 0.2722
C6 C -0.3077(3) 0.7275(3) 0.18175(17)
H4 H -0.5476 0.8993 0.1501
C7 C -0.4659(3) 0.7904(3) 0.10888(17)
H5 H -0.4463 1.0206 0.4382
C8 C -0.4021(4) 1.1713(3) 0.46764(17)
H6 H -0.3659 1.2125 0.2923
C9 C -0.3544(4) 1.2873(3) 0.37974(18)
C10 C -0.8242(3) 1.0411(2) 0.24641(16)
O5 O -0.7444(2) 0.9204(2) 0.31898(13)
C11 C -0.3741(3) 0.7246(2) 0.11949(16)
H7 H -0.2432 0.6846 0.1914
H8 H -0.5148 0.7910 0.0671
C12 C -0.3679(3) 1.2724(3) 0.44609(17)
H9 H -0.4118 1.1582 0.5129
H10 H -0.3308 1.3559 0.3632
C13 C -0.7986(3) 1.1111(2) 0.19597(16)
C14 C -0.9533(3) 1.0189(3) 0.26929(16)
C15 C -0.3295(4) 0.6610(3) 0.06721(17)
C16 C -0.3348(3) 1.3625(3) 0.49472(17)
H11 H -0.7119 1.1251 0.1797
C17 C -0.8993(3) 1.1611(3) 0.16887(16)
C18 C -1.0525(3) 1.0689(2) 0.24223(16)
H12 H -0.9724 0.9698 0.3032
O6 O -0.2075(2) 0.67120(19) 0.06195(13)
N3 N -0.4224(3) 0.5965(2) 0.02677(14)
O7 O -0.2430(2) 1.36361(18) 0.53885(11)
N4 N -0.4025(3) 1.4405(2) 0.48634(14)
C19 C -1.0262(3) 1.1411(3) 0.19201(16)
O8 O -0.8634(2) 1.22683(18) 0.11861(12)
C20 C -1.1935(3) 1.0421(3) 0.26328(16)
C21 C -0.3824(4) 0.5466(3) -0.03064(17)
C22 C -0.5678(3) 0.5711(3) 0.03174(19)
C23 C -0.3630(3) 1.5366(3) 0.52561(18)
C24 C -0.5212(3) 1.4397(3) 0.43920(17)
H13 H -1.0945 1.1759 0.1741
C25 C -0.9664(4) 1.2731(3) 0.08480(18)
H14 H -0.2827 0.5622 -0.0301
H15 H -0.4196 0.5760 -0.0712
H16 H -0.6146 0.6021 -0.0054
H17 H -0.5893 0.6014 0.0731
H18 H -0.3308 1.5953 0.4967
H19 H -0.2875 1.5300 0.5583
H20 H -0.5483 1.3703 0.4170
H21 H -0.4979 1.4926 0.4052
H22 H -1.0387 1.2179 0.0651
H23 H -0.9275 1.3183 0.0502
H24 H -1.0033 1.3147 0.1160
O1_2 O -1.2168(2) 0.98167(17) 0.31174(11)
O2_2 O -1.2880(2) 1.07538(17) 0.23132(11)
C22A C -0.4322(3) 0.4289(3) -0.03174(19)
C21A C -0.6176(4) 0.4534(3) 0.03064(17)
C24A C -0.4788(3) 1.5603(3) 0.56080(17)
C23A C -0.6370(3) 1.4634(3) 0.47439(18)
Ni1_2 Ni -1.42481(4) 0.97728(3) 0.28998(2)
N3A N -0.5776(3) 0.4035(2) -0.02677(14)
H16A H -0.3854 0.3979 0.0054
H17A H -0.4107 0.3986 -0.0731
H14A H -0.7173 0.4378 0.0301
H15A H -0.5804 0.4240 0.0712
N4A N -0.5975(3) 1.5595(2) 0.51366(14)
H20A H -0.4517 1.6297 0.5830
H21A H -0.5021 1.5074 0.5948
H18A H -0.6692 1.4047 0.5033
H19A H -0.7125 1.4700 0.4417
C15A C -0.6705(4) 0.3390(3) -0.06721(17)
C16A C -0.6652(3) 1.6375(3) 0.50528(17)
O6A O -0.7925(2) 0.32880(19) -0.06195(13)
C11A C -0.6259(3) 0.2754(2) -0.11949(16)
O7A O -0.7570(2) 1.63639(18) 0.46115(11)
C12A C -0.6321(3) 1.7276(3) 0.55391(17)
C7A C -0.5341(3) 0.2096(3) -0.10888(17)
C6A C -0.6923(3) 0.2725(3) -0.18175(17)
C9A C -0.6456(4) 1.7127(3) 0.62026(18)
C8A C -0.5979(4) 1.8287(3) 0.53236(17)
C2A C -0.5146(3) 0.1457(3) -0.15891(17)
H8A H -0.4852 0.2090 -0.0671
C1A C -0.6649(3) 0.2075(3) -0.22959(17)
H7A H -0.7568 0.3154 -0.1914
C4A C -0.6245(4) 1.7987(3) 0.66225(17)
H10A H -0.6692 1.6441 0.6368
C3A C -0.5779(3) 1.9102(3) 0.57723(17)
H9A H -0.5882 1.8418 0.4871
N1A N -0.5778(3) 0.1427(2) -0.21963(13)
H4A H -0.4524 0.1007 -0.1501
H3A H -0.7101 0.2085 -0.2722
N2A N -0.5910(3) 1.8971(2) 0.64191(13)
H6A H -0.6341 1.7875 0.7077
H5A H -0.5537 1.9794 0.5618
Ni1A Ni -0.57519(4) 0.02272(3) -0.28998(2)
Ni1A_2 Ni -0.57519(4) 2.02272(3) 0.71002(2)
O1A O -0.7832(2) 0.01833(17) -0.31174(11)
O2A O -0.7120(2) -0.07538(17) -0.23132(11)
O3A O -0.4931(2) 0.12266(18) -0.35881(13)
O4A O -0.3976(2) -0.00788(17) -0.25120(11)
N2A_2 N -0.5910(3) -0.1029(2) -0.35809(13)
H1A H -0.4117(19) 0.122(2) -0.3512(17)
H2A H -0.511(3) 0.1829(17) -0.3650(17)
C5A C -0.2838(3) 0.0151(3) -0.27480(17)
C10A C -0.1758(3) -0.0411(2) -0.24641(16)
O5A O -0.2556(2) 0.0796(2) -0.31898(13)
C14A C -0.0467(3) -0.0189(3) -0.26929(16)
C13A C -0.2014(3) -0.1111(2) -0.19597(16)
H12A H -0.0276 0.0302 -0.3032
C18A C 0.0525(3) -0.0689(2) -0.24223(16)
H11A H -0.2881 -0.1251 -0.1797
C17A C -0.1007(3) -0.1611(3) -0.16887(16)
C20A C 0.1935(3) -0.0421(3) -0.26328(16)
C19A C 0.0262(3) -0.1411(3) -0.19201(16)
O8A O -0.1366(2) -0.22683(18) -0.11861(12)
O2A_2 O 0.2880(2) -0.07538(17) -0.23132(11)
O1A_2 O 0.2168(2) 0.01833(17) -0.31174(11)
H13A H 0.0945 -0.1759 -0.1741
C25A C -0.0336(4) -0.2731(3) -0.08480(18)
Ni1A_3 Ni 0.42481(4) 0.02272(3) -0.28998(2)
H24A H 0.0033 -0.3147 -0.1160
H22A H 0.0387 -0.2179 -0.0651
H23A H -0.0725 -0.3183 -0.0502
Ni2 Ni 0.10312(4) 0.51614(3) 0.25552(2)
O9 O 0.9027(2) 0.52496(17) 0.27332(11)
O10 O 0.2151(2) 0.62447(19) 0.32237(12)
H25 H 0.290(2) 0.614(3) 0.3123(15)
H26 H 0.212(3) 0.623(3) 0.3634(9)
O11 O 0.9442(2) 0.42133(17) 0.19615(12)
O12 O 0.2650(2) 0.47540(17) 0.21768(11)
O13 O 0.4305(2) 0.5764(2) 0.28069(14)
O14 O 0.2907(2) 0.8957(2) 0.03124(13)
O15 O 0.2814(3) 0.1963(2) 0.49498(15)
O16 O 0.4736(2) 0.21213(18) 0.11598(12)
N5 N 0.0977(3) 0.3945(2) 0.32254(14)
N6 N 0.1083(3) 0.6342(2) 0.18735(13)
N7 N 0.0931(3) 0.9496(2) 0.03644(14)
N8 N 0.0684(3) 0.1024(2) 0.49323(14)
C26 C 0.3862(3) 0.5029(3) 0.24100(17)
C27 C 0.4841(3) 0.4403(3) 0.21852(16)
C28 C 0.6224(3) 0.4729(3) 0.23576(16)
H27 H 0.6541 0.5322 0.2639
C29 C 0.7131(3) 0.4188(2) 0.21193(16)
C30 C 0.6679(3) 0.3305(3) 0.17121(16)
H28 H 0.7307 0.2945 0.1542
C31 C 0.8607(3) 0.4562(3) 0.22812(16)
C32 C 0.5302(3) 0.2961(3) 0.15581(17)
C33 C 0.4385(3) 0.3515(2) 0.17953(16)
H29 H 0.3443 0.3279 0.1688
C34 C 0.5607(4) 0.1510(3) 0.09025(18)
H30 H 0.5066 0.0939 0.0625
H31 H 0.6100 0.1218 0.1267
H32 H 0.6251 0.1953 0.0640
C35 C 0.1697(3) 0.3206(3) 0.31383(18)
H33 H 0.2105 0.3188 0.2737
C36 C 0.0334(3) 0.3915(3) 0.37808(18)
H34 H -0.0200 0.4423 0.3846
C37 C 0.0423(4) 0.3175(3) 0.42579(19)
H35 H -0.0066 0.3161 0.4636
C38 C 0.1236(4) 0.2456(3) 0.41750(19)
C39 C 0.1615(4) 0.1781(3) 0.47251(19)
C40 C 0.1877(4) 0.2469(3) 0.36029(19)
H36 H 0.2431 0.1979 0.3531
C41 C 0.0987(4) 0.0443(3) 0.55205(17)
H37 H 0.0437 0.0597 0.5873
H38 H 0.1951 0.0669 0.5679
C42 C -0.0690(4) 0.0707(3) 0.46250(18)
H39 H -0.0791 0.1092 0.4212
H40 H -0.1340 0.0879 0.4924
C43 C 0.1390(3) 0.6190(3) 0.12607(17)
H41 H 0.1497 0.5511 0.1135
C44 C 0.1559(4) 0.6965(3) 0.08028(17)
H42 H 0.1797 0.6825 0.0376
C45 C 0.1379(3) 0.7957(3) 0.09719(16)
C46 C 0.1020(3) 0.8109(3) 0.16017(17)
H43 H 0.0861 0.8769 0.1733
C47 C 0.1790(4) 0.8843(3) 0.05177(17)
C48 C 0.1420(3) 1.0466(3) 0.00189(16)
H44 H 0.2312 1.0443 -0.0138
H45 H 0.1536 1.1068 0.0329
C49 C -0.0445(3) 0.9384(3) 0.05628(17)
H46 H -0.0463 0.9907 0.0912
H47 H -0.0731 0.8680 0.0744
C50 C 0.0897(3) 0.7295(3) 0.20338(18)
H48 H 0.0669 0.7415 0.2466
O14A O -0.2907(2) 1.1043(2) -0.03124(13)
N6A N -0.1083(3) 1.3658(2) -0.18735(13)
N7A N -0.0931(3) 1.0504(2) -0.03644(14)
C43A C -0.1390(3) 1.3810(3) -0.12607(17)
H41A H -0.1497 1.4489 -0.1135
C44A C -0.1559(4) 1.3035(3) -0.08028(17)
H42A H -0.1797 1.3175 -0.0376
C45A C -0.1379(3) 1.2043(3) -0.09719(16)
C46A C -0.1020(3) 1.1891(3) -0.16017(17)
H43A H -0.0861 1.1231 -0.1733
C47A C -0.1790(4) 1.1157(3) -0.05177(17)
C48A C -0.1420(3) 0.9534(3) -0.00189(16)
H44A H -0.2312 0.9557 0.0138
H45A H -0.1536 0.8932 -0.0329
C49A C 0.0445(3) 1.0616(3) -0.05628(17)
H46A H 0.0463 1.0093 -0.0912
H47A H 0.0731 1.1320 -0.0744
C50A C -0.0897(3) 1.2705(3) -0.20338(18)
H48A H -0.0669 1.2585 -0.2466
O15A O -0.2814(3) -0.1963(2) 0.50502(15)
N5A N -0.0977(3) -0.3945(2) 0.67746(14)
N8A N -0.0684(3) -0.1024(2) 0.50677(14)
C35A C -0.1697(3) -0.3206(3) 0.68617(18)
H33A H -0.2105 -0.3188 0.7263
C36A C -0.0334(3) -0.3915(3) 0.62192(18)
H34A H 0.0200 -0.4423 0.6154
C37A C -0.0423(4) -0.3175(3) 0.57421(19)
H35A H 0.0066 -0.3161 0.5364
C38A C -0.1236(4) -0.2456(3) 0.58250(19)
C39A C -0.1615(4) -0.1781(3) 0.52749(19)
C40A C -0.1877(4) -0.2469(3) 0.63971(19)
H36A H -0.2431 -0.1979 0.6469
C41A C -0.0987(4) -0.0443(3) 0.44795(17)
H37A H -0.0437 -0.0597 0.4127
H38A H -0.1951 -0.0669 0.4321
C42A C 0.0690(4) -0.0707(3) 0.53750(18)
H39A H 0.0791 -0.1092 0.5788
H40A H 0.1340 -0.0879 0.5076
Ni2A Ni -0.10312(4) -0.51614(3) 0.74448(2)
O9A O -0.9027(2) -0.52496(17) 0.72668(11)
O10A O -0.2151(2) -0.62447(19) 0.67763(12)
H25A H -0.290(2) -0.614(3) 0.6877(15)
H26A H -0.212(3) -0.623(3) 0.6366(9)
O11A O -0.9442(2) -0.42133(17) 0.80385(12)
O12A O -0.2650(2) -0.47540(17) 0.78232(11)
O13A O -0.4305(2) -0.5764(2) 0.71931(14)
O16A O -0.4736(2) -0.21213(18) 0.88402(12)
C26A C -0.3862(3) -0.5029(3) 0.75900(17)
C27A C -0.4841(3) -0.4403(3) 0.78148(16)
C28A C -0.6224(3) -0.4729(3) 0.76424(16)
H27A H -0.6541 -0.5322 0.7361
C29A C -0.7131(3) -0.4188(2) 0.78807(16)
C30A C -0.6679(3) -0.3305(3) 0.82879(16)
H28A H -0.7307 -0.2945 0.8458
C31A C -0.8607(3) -0.4562(3) 0.77188(16)
C32A C -0.5302(3) -0.2961(3) 0.84419(17)
C33A C -0.4385(3) -0.3515(2) 0.82047(16)
H29A H -0.3443 -0.3279 0.8312
C34A C -0.5607(4) -0.1510(3) 0.90975(18)
H30A H -0.5066 -0.0939 0.9375
H31A H -0.6100 -0.1218 0.8733
H32A H -0.6251 -0.1953 0.9360
Ni2_2 Ni 1.10312(4) 0.51614(3) 0.25552(2)
Ni2A_2 Ni -1.10312(4) -0.51614(3) 0.74448(2)
Ni2A_3 Ni -0.10312(4) 1.48386(3) -0.25552(2)
O9_2 O -0.0973(2) 0.52496(17) 0.27332(11)
O9A_2 O 0.0973(2) -0.52496(17) 0.72668(11)
O11_2 O -0.0558(2) 0.42133(17) 0.19615(12)
O11A_2 O 0.0558(2) -0.42133(17) 0.80385(12)
N6A_2 N -0.1083(3) -0.6342(2) 0.81265(13)
O17 O 0.0926(3) 0.7894(2) 0.40457(16)
H49 H 0.140(3) 0.744(2) 0.4174(19)
H50 H 0.137(4) 0.826(3) 0.3761(16)
O18 O -0.4289(3) 0.6988(2) 0.38459(18)
H51 H -0.435(4) 0.651(3) 0.3564(18)
H52 H -0.354(3) 0.716(3) 0.406(2)
O19 O -0.1641(3) 0.6621(3) 0.36776(19)
H53 H -0.0870 0.6997 0.3790
H54 H -0.1443 0.6205 0.3398
O20 O -0.1179(4) 0.4741(3) 0.0454(3)
H55 H -0.0534 0.4874 0.0208
H56 H -0.148(5) 0.532(3) 0.053(3)
loop_
_geom_bond_atom_site_label_1
_geom_bond_atom_site_label_2
_geom_bond_site_symmetry_1
_geom_bond_site_symmetry_2
Ni1 O1 1_555 1_555
O2 Ni1 1_555 1_555
O3 Ni1 1_555 1_555
N1 Ni1 1_555 1_555
N2 Ni1 1_555 1_555
O4 Ni1 1_555 1_555
H1 O3 1_555 1_555
H2 O3 1_555 1_555
C1 N1 1_555 1_555
C2 N1 1_555 1_555
C3 N2 1_555 1_555
C4 N2 1_555 1_555
C5 O4 1_555 1_555
H3 C1 1_555 1_555
C6 C1 1_555 1_555
H4 C2 1_555 1_555
C7 C2 1_555 1_555
H5 C3 1_555 1_555
C8 C3 1_555 1_555
H6 C4 1_555 1_555
C9 C4 1_555 1_555
C10 C5 1_555 1_555
O5 C5 1_555 1_555
C11 C6 1_555 1_555
H7 C6 1_555 1_555
H8 C7 1_555 1_555
C12 C8 1_555 1_555
H9 C8 1_555 1_555
H10 C9 1_555 1_555
C13 C10 1_555 1_555
C14 C10 1_555 1_555
C15 C11 1_555 1_555
C16 C12 1_555 1_555
H11 C13 1_555 1_555
C17 C13 1_555 1_555
C18 C14 1_555 1_555
H12 C14 1_555 1_555
O6 C15 1_555 1_555
N3 C15 1_555 1_555
O7 C16 1_555 1_555
N4 C16 1_555 1_555
C19 C17 1_555 1_555
O8 C17 1_555 1_555
C20 C18 1_555 1_555
C21 N3 1_555 1_555
C22 N3 1_555 1_555
C23 N4 1_555 1_555
C24 N4 1_555 1_555
H13 C19 1_555 1_555
C25 O8 1_555 1_555
H14 C21 1_555 1_555
H15 C21 1_555 1_555
H16 C22 1_555 1_555
H17 C22 1_555 1_555
H18 C23 1_555 1_555
H19 C23 1_555 1_555
H20 C24 1_555 1_555
H21 C24 1_555 1_555
H22 C25 1_555 1_555
H23 C25 1_555 1_555
H24 C25 1_555 1_555
Ni2 O10 1_555 1_555
O9 C31 1_555 1_555
O10 H25 1_555 1_555
H26 O10 1_555 1_555
O11 C31 1_555 1_555
O12 Ni2 1_555 1_555
O13 C26 1_555 1_555
O14 C47 1_555 1_555
O15 C39 1_555 1_555
O16 C32 1_555 1_555
N5 Ni2 1_555 1_555
N6 Ni2 1_555 1_555
N7 C47 1_555 1_555
N8 C39 1_555 1_555
C26 O12 1_555 1_555
C27 C26 1_555 1_555
C28 C27 1_555 1_555
H27 C28 1_555 1_555
C29 C28 1_555 1_555
C30 C29 1_555 1_555
H28 C30 1_555 1_555
C31 C29 1_555 1_555
C32 C30 1_555 1_555
C33 C27 1_555 1_555
H29 C33 1_555 1_555
C34 O16 1_555 1_555
H30 C34 1_555 1_555
H31 C34 1_555 1_555
H32 C34 1_555 1_555
C35 N5 1_555 1_555
H33 C35 1_555 1_555
C36 N5 1_555 1_555
H34 C36 1_555 1_555
C37 C36 1_555 1_555
H35 C37 1_555 1_555
C38 C37 1_555 1_555
C39 C38 1_555 1_555
C40 C35 1_555 1_555
H36 C40 1_555 1_555
C41 N8 1_555 1_555
H37 C41 1_555 1_555
H38 C41 1_555 1_555
C42 N8 1_555 1_555
H39 C42 1_555 1_555
H40 C42 1_555 1_555
C43 N6 1_555 1_555
H41 C43 1_555 1_555
C44 C43 1_555 1_555
H42 C44 1_555 1_555
C45 C44 1_555 1_555
C46 C45 1_555 1_555
H43 C46 1_555 1_555
C47 C45 1_555 1_555
C48 N7 1_555 1_555
H44 C48 1_555 1_555
H45 C48 1_555 1_555
C49 N7 1_555 1_555
H46 C49 1_555 1_555
H47 C49 1_555 1_555
C50 N6 1_555 1_555
H48 C50 1_555 1_555
O17 H49 1_555 1_555
H50 O17 1_555 1_555
O18 H51 1_555 1_555
H52 O18 1_555 1_555
O19 H53 1_555 1_555
H54 O19 1_555 1_555
O20 H55 1_555 1_555
H56 O20 1_555 1_555
O1_2 C20 1_555 1_555
O2_2 C20 1_555 1_555
C22A C21 1_555 1_555
C21A C22 1_555 1_555
C24A C23 1_555 1_555
C23A C24 1_555 1_555
Ni1_2 O1_2 1_555 1_555
N3A C22A 1_555 1_555
H16A C22A 1_555 1_555
H17A C22A 1_555 1_555
H14A C21A 1_555 1_555
H15A C21A 1_555 1_555
N4A C24A 1_555 1_555
H20A C24A 1_555 1_555
H21A C24A 1_555 1_555
H18A C23A 1_555 1_555
H19A C23A 1_555 1_555
C15A N3A 1_555 1_555
C16A N4A 1_555 1_555
O6A C15A 1_555 1_555
C11A C15A 1_555 1_555
O7A C16A 1_555 1_555
C12A C16A 1_555 1_555
C7A C11A 1_555 1_555
C6A C11A 1_555 1_555
C9A C12A 1_555 1_555
C8A C12A 1_555 1_555
C2A C7A 1_555 1_555
H8A C7A 1_555 1_555
C1A C6A 1_555 1_555
H7A C6A 1_555 1_555
C4A C9A 1_555 1_555
H10A C9A 1_555 1_555
C3A C8A 1_555 1_555
H9A C8A 1_555 1_555
N1A C2A 1_555 1_555
H4A C2A 1_555 1_555
H3A C1A 1_555 1_555
N2A C4A 1_555 1_555
H6A C4A 1_555 1_555
H5A C3A 1_555 1_555
Ni1A N1A 1_555 1_555
Ni1A_2 N2A 1_555 1_555
O1A Ni1A 1_555 1_555
O2A Ni1A 1_555 1_555
O3A Ni1A 1_555 1_555
O4A Ni1A 1_555 1_555
N2A_2 Ni1A 1_555 1_555
H1A O3A 1_555 1_555
H2A O3A 1_555 1_555
C5A O4A 1_555 1_555
C10A C5A 1_555 1_555
O5A C5A 1_555 1_555
C14A C10A 1_555 1_555
C13A C10A 1_555 1_555
H12A C14A 1_555 1_555
C18A C14A 1_555 1_555
H11A C13A 1_555 1_555
C17A C13A 1_555 1_555
C20A C18A 1_555 1_555
C19A C18A 1_555 1_555
O8A C17A 1_555 1_555
O2A_2 C20A 1_555 1_555
O1A_2 C20A 1_555 1_555
H13A C19A 1_555 1_555
C25A O8A 1_555 1_555
Ni1A_3 O2A_2 1_555 1_555
H24A C25A 1_555 1_555
H22A C25A 1_555 1_555
H23A C25A 1_555 1_555
O14A C47A 1_555 1_555
N6A C43A 1_555 1_555
N7A C47A 1_555 1_555
C43A H41A 1_555 1_555
C44A C43A 1_555 1_555
H42A C44A 1_555 1_555
C45A C44A 1_555 1_555
C46A C45A 1_555 1_555
H43A C46A 1_555 1_555
C47A C45A 1_555 1_555
C48A C49 1_555 1_555
H44A C48A 1_555 1_555
H45A C48A 1_555 1_555
C49A C48 1_555 1_555
H46A C49A 1_555 1_555
H47A C49A 1_555 1_555
C50A N6A 1_555 1_555
H48A C50A 1_555 1_555
O15A C39A 1_555 1_555
N5A C35A 1_555 1_555
N8A C39A 1_555 1_555
C35A H33A 1_555 1_555
C36A N5A 1_555 1_555
H34A C36A 1_555 1_555
C37A C36A 1_555 1_555
H35A C37A 1_555 1_555
C38A C37A 1_555 1_555
C39A C38A 1_555 1_555
C40A C35A 1_555 1_555
H36A C40A 1_555 1_555
C41A C42 1_555 1_555
H37A C41A 1_555 1_555
H38A C41A 1_555 1_555
C42A C41 1_555 1_555
H39A C42A 1_555 1_555
H40A C42A 1_555 1_555
Ni2A N5A 1_555 1_555
O9A C31A 1_555 1_555
O10A Ni2A 1_555 1_555
H25A O10A 1_555 1_555
H26A O10A 1_555 1_555
O11A C31A 1_555 1_555
O12A Ni2A 1_555 1_555
O13A C26A 1_555 1_555
O16A C32A 1_555 1_555
C26A O12A 1_555 1_555
C27A C26A 1_555 1_555
C28A C27A 1_555 1_555
H27A C28A 1_555 1_555
C29A C28A 1_555 1_555
C30A C29A 1_555 1_555
H28A C30A 1_555 1_555
C31A C29A 1_555 1_555
C32A C30A 1_555 1_555
C33A C27A 1_555 1_555
H29A C33A 1_555 1_555
C34A O16A 1_555 1_555
H30A C34A 1_555 1_555
H31A C34A 1_555 1_555
H32A C34A 1_555 1_555
Ni2_2 O9 1_555 1_555
Ni2A_2 O9A 1_555 1_555
Ni2A_3 N6A 1_555 1_555
O9_2 Ni2 1_555 1_555
O9A_2 Ni2A 1_555 1_555
O11_2 Ni2 1_555 1_555
O11A_2 Ni2A 1_555 1_555
N6A_2 Ni2A 1_555 1_555
C7 C11 1_555 1_555
C9 C12 1_555 1_555
C18 C19 1_555 1_555
O11 Ni2_2 1_555 1_555
C32 C33 1_555 1_555
C38 C40 1_555 1_555
C46 C50 1_555 1_555
O2_2 Ni1_2 1_555 1_555
C21A N3A 1_555 1_555
C23A N4A 1_555 1_555
C1A N1A 1_555 1_555
C3A N2A 1_555 1_555
C17A C19A 1_555 1_555
O1A_2 Ni1A_3 1_555 1_555
N7A C48A 1_555 1_555
N7A C49A 1_555 1_555
C46A C50A 1_555 1_555
N8A C41A 1_555 1_555
N8A C42A 1_555 1_555
C38A C40A 1_555 1_555
O11A Ni2A_2 1_555 1_555
C32A C33A 1_555 1_555

#END
