
#######################################################################
#
#                 Cambridge Crystallographic Data Centre
#                                CCDC 
#
#######################################################################
#
# If this CIF has been generated from an entry in the Cambridge 
# Structural Database, then it will include bibliographic, chemical, 
# crystal, experimental, refinement or atomic coordinate data resulting 
# from the CCDC's data processing and validation procedures.
#
#######################################################################

data_DUJXUC
_symmetry_cell_setting           monoclinic
_symmetry_space_group_name_H-M   'P 21/c'
_symmetry_Int_Tables_number      14
_space_group_name_Hall           '-P 2ybc'
loop_
_symmetry_equiv_pos_site_id
_symmetry_equiv_pos_as_xyz
1 x,y,z
2 -x,1/2+y,1/2-z
3 -x,-y,-z
4 x,1/2-y,1/2+z
_cell_length_a                   17.5491(8)
_cell_length_b                   12.6183(4)
_cell_length_c                   15.6584(6)
_cell_angle_alpha                90
_cell_angle_beta                 110.598(2)
_cell_angle_gamma                90
_cell_volume                     3245.73
loop_
_atom_site_label
_atom_site_type_symbol
_atom_site_fract_x
_atom_site_fract_y
_atom_site_fract_z
Au1 Au 0.34634(4) 0.40337(5) 0.26591(4)
Au2 Au 0.17476(4) 0.43183(5) 0.27917(5)
S1 S 0.4056(2) 0.5186(3) 0.3851(2)
S2 S 0.3048(3) 0.2863(3) 0.1460(3)
S3 S 0.1241(3) 0.5265(4) 0.1450(3)
S4 S 0.2067(3) 0.3454(3) 0.4158(3)
C1 C 0.3550(10) 0.6284(13) 0.3434(10)
C2 C 0.2600(10) 0.1899(13) 0.1840(11)
C3 C 0.1250(9) 0.6475(14) 0.1921(11)
C4 C 0.2867(11) 0.2679(14) 0.4179(11)
N1 N 0.3197(8) 0.7081(11) 0.3177(9)
N2 N 0.2288(8) 0.1179(10) 0.2044(9)
N3 N 0.1230(9) 0.7317(11) 0.2215(10)
N4 N 0.3382(9) 0.2131(12) 0.4199(10)
Ba1 Ba 0.23237(6) 0.89893(6) 0.25677(6)
O1 O 0.1978(8) 0.9218(9) 0.0567(7)
O2 O 0.3582(6) 0.9286(7) 0.1843(6)
O3 O 0.3953(7) 0.9610(9) 0.3779(7)
O4 O 0.2715(8) 0.9925(10) 0.4392(8)
O5 O 0.1095(6) 0.9937(7) 0.3111(6)
O6 O 0.0748(7) 0.9545(9) 0.1208(7)
C5 C 0.1207(10) 0.8637(12) 0.0123(9)
C6 C 0.2689(9) 0.8954(11) 0.0301(9)
H1 H 0.2800 0.8184 0.0371
H2 H 0.2573 0.9146 -0.0346
C7 C 0.3402(9) 0.9553(11) 0.0894(8)
H3 H 0.3880 0.9389 0.0721
H4 H 0.3292 1.0322 0.0806
C8 C 0.4339(9) 0.9751(12) 0.2431(9)
H5 H 0.4274 1.0527 0.2464
H6 H 0.4773 0.9614 0.2177
C9 C 0.4576(9) 0.9277(12) 0.3375(9)
H7 H 0.4594 0.8495 0.3339
H8 H 0.5122 0.9532 0.3761
C10 C 0.4040(10) 0.9142(11) 0.4657(9)
C11 C 0.4680(10) 0.8473(11) 0.5139(10)
H9 H 0.5101 0.8316 0.4908
C12 C 0.4694(11) 0.8042(12) 0.5956(10)
H10 H 0.5129 0.7589 0.6291
C13 C 0.4087(11) 0.8263(12) 0.6286(11)
H11 H 0.4112 0.7978 0.6857
C14 C 0.3448(10) 0.8886(11) 0.5806(10)
H12 H 0.3029 0.9013 0.6046
C15 C 0.3385(11) 0.9342(11) 0.4980(10)
C16 C 0.2001(10) 1.0007(13) 0.4669(11)
H13 H 0.2145 1.0419 0.5242
H14 H 0.1833 0.9289 0.4787
C17 C 0.1299(11) 1.0539(13) 0.3941(12)
H15 H 0.0822 1.0578 0.4139
H16 H 0.1453 1.1270 0.3838
C18 C 0.0412(10) 1.0419(12) 0.2411(10)
H17 H 0.0578 1.1098 0.2212
H18 H -0.0032 1.0562 0.2647
C19 C 0.0129(9) 0.9649(13) 0.1622(10)
H19 H 0.0023 0.8948 0.1843
H20 H -0.0384 0.9906 0.1162
C20 C 0.0582(10) 0.8804(11) 0.0468(9)
C21 C -0.0125(10) 0.8211(12) 0.0105(10)
H21 H -0.0565 0.8328 0.0313
C22 C -0.0195(10) 0.7466(12) -0.0542(11)
H22 H -0.0671 0.7039 -0.0758
C23 C 0.0427(12) 0.7322(13) -0.0892(11)
H23 H 0.0359 0.6824 -0.1368
C24 C 0.1134(10) 0.7894(12) -0.0554(10)
H24 H 0.1565 0.7784 -0.0779
N2_2 N 0.2288(8) 1.1179(10) 0.2044(9)
Ba1_2 Ba 0.23237(6) -0.10107(6) 0.25677(6)
loop_
_geom_bond_atom_site_label_1
_geom_bond_atom_site_label_2
_geom_bond_site_symmetry_1
_geom_bond_site_symmetry_2
Au1 Au2 1_555 1_555
Au2 S3 1_555 1_555
S1 Au1 1_555 1_555
S2 Au1 1_555 1_555
S3 C3 1_555 1_555
S4 Au2 1_555 1_555
C1 S1 1_555 1_555
C2 S2 1_555 1_555
C3 N3 1_555 1_555
C4 S4 1_555 1_555
N1 C1 1_555 1_555
N2 C2 1_555 1_555
N3 Ba1 1_555 1_555
N4 C4 1_555 1_555
Ba1 N1 1_555 1_555
O1 Ba1 1_555 1_555
O2 Ba1 1_555 1_555
O3 Ba1 1_555 1_555
O4 Ba1 1_555 1_555
O5 Ba1 1_555 1_555
O6 Ba1 1_555 1_555
C5 O1 1_555 1_555
C6 O1 1_555 1_555
H1 C6 1_555 1_555
H2 C6 1_555 1_555
C7 O2 1_555 1_555
H3 C7 1_555 1_555
H4 C7 1_555 1_555
C8 O2 1_555 1_555
H5 C8 1_555 1_555
H6 C8 1_555 1_555
C9 O3 1_555 1_555
H7 C9 1_555 1_555
H8 C9 1_555 1_555
C10 O3 1_555 1_555
C11 C10 1_555 1_555
H9 C11 1_555 1_555
C12 C11 1_555 1_555
H10 C12 1_555 1_555
C13 C12 1_555 1_555
H11 C13 1_555 1_555
C14 C13 1_555 1_555
H12 C14 1_555 1_555
C15 O4 1_555 1_555
C16 O4 1_555 1_555
H13 C16 1_555 1_555
H14 C16 1_555 1_555
C17 O5 1_555 1_555
H15 C17 1_555 1_555
H16 C17 1_555 1_555
C18 O5 1_555 1_555
H17 C18 1_555 1_555
H18 C18 1_555 1_555
C19 O6 1_555 1_555
H19 C19 1_555 1_555
H20 C19 1_555 1_555
C20 O6 1_555 1_555
C21 C20 1_555 1_555
H21 C21 1_555 1_555
C22 C21 1_555 1_555
H22 C22 1_555 1_555
C23 C22 1_555 1_555
H23 C23 1_555 1_555
C24 C5 1_555 1_555
H24 C24 1_555 1_555
N2_2 Ba1 1_555 1_555
Ba1_2 N2 1_555 1_555
C5 C20 1_555 1_555
C6 C7 1_555 1_555
C8 C9 1_555 1_555
C10 C15 1_555 1_555
C14 C15 1_555 1_555
C16 C17 1_555 1_555
C18 C19 1_555 1_555
C23 C24 1_555 1_555

#END
