
#######################################################################
#
#                 Cambridge Crystallographic Data Centre
#                                CCDC 
#
#######################################################################
#
# If this CIF has been generated from an entry in the Cambridge 
# Structural Database, then it will include bibliographic, chemical, 
# crystal, experimental, refinement or atomic coordinate data resulting 
# from the CCDC's data processing and validation procedures.
#
#######################################################################

data_DUKQIL
_symmetry_cell_setting           monoclinic
_symmetry_space_group_name_H-M   'P 21/c'
_symmetry_Int_Tables_number      14
_space_group_name_Hall           '-P 2ybc'
loop_
_symmetry_equiv_pos_site_id
_symmetry_equiv_pos_as_xyz
1 x,y,z
2 -x,1/2+y,1/2-z
3 -x,-y,-z
4 x,1/2-y,1/2+z
_cell_length_a                   10.4285(9)
_cell_length_b                   6.9527(5)
_cell_length_c                   30.258(2)
_cell_angle_alpha                90
_cell_angle_beta                 96.4260(10)
_cell_angle_gamma                90
_cell_volume                     2180.11
loop_
_atom_site_label
_atom_site_type_symbol
_atom_site_fract_x
_atom_site_fract_y
_atom_site_fract_z
Dy1 Dy -0.021861(16) 0.52426(2) 0.059527(6)
S1 S 0.89973(9) 0.52301(12) 0.42381(3)
S2 S 0.38267(10) 0.45629(14) 0.37817(3)
N1 N 0.0070(3) 0.5351(4) 0.14429(10)
N2 N 0.2089(3) 0.5157(4) 0.09462(10)
N3 N 0.3333(3) 0.5345(5) 0.27548(11)
H1 H 0.2925 0.5517 0.2983
N4 N 0.4958(3) 0.4873(4) 0.23514(10)
O1 O 0.9696(3) 0.6985(3) 0.41579(9)
O2 O 0.8465(3) 0.5194(3) 0.46580(9)
O3 O 0.9768(2) 0.3550(3) 0.41631(8)
O4 O 0.3299(3) 0.2880(4) 0.35561(10)
O5 O 0.3101(3) 0.6294(4) 0.36473(9)
O6 O 0.4036(3) 0.4345(5) 0.42636(9)
C1 C -0.0906(4) 0.5570(6) 0.16812(13)
H2 H -0.1737 0.5581 0.1533
C2 C -0.0768(4) 0.5784(8) 0.21361(15)
H3 H -0.1488 0.5980 0.2286
C3 C 0.0438(4) 0.5705(7) 0.23649(14)
H4 H 0.0549 0.5819 0.2673
C4 C 0.1496(4) 0.5450(5) 0.21289(13)
C5 C 0.2810(4) 0.5306(5) 0.23226(12)
C6 C 0.3818(4) 0.5030(5) 0.20758(13)
C7 C 0.3631(4) 0.4970(5) 0.16038(12)
C8 C 0.4623(4) 0.4771(5) 0.13325(13)
H5 H 0.5471 0.4616 0.1459
C9 C 0.4344(4) 0.4803(5) 0.08836(14)
H6 H 0.4996 0.4697 0.0699
C10 C 0.3055(4) 0.5000(5) 0.07049(13)
H7 H 0.2872 0.5022 0.0397
C11 C 0.2351(3) 0.5145(4) 0.13959(12)
C12 C 0.1289(3) 0.5318(5) 0.16623(12)
C13 C 0.4629(4) 0.5058(5) 0.27566(13)
C14 C 0.5598(4) 0.5043(5) 0.31511(12)
C15 C 0.6866(4) 0.5192(5) 0.30517(13)
H8 H 0.7021 0.5257 0.2755
C16 C 0.7895(4) 0.5247(5) 0.33767(13)
H9 H 0.8733 0.5344 0.3302
C17 C 0.7665(4) 0.5155(5) 0.38194(12)
C18 C 0.6433(4) 0.4959(5) 0.39280(13)
H10 H 0.6292 0.4868 0.4225
C19 C 0.5392(4) 0.4894(5) 0.36003(12)
O7 O -0.0731(3) 0.3582(3) -0.00296(8)
H11 H -0.111(3) 0.261(4) -0.0037(13)
O8 O -0.2223(3) 0.3900(4) 0.07701(10)
H12 H -0.220(4) 0.308(5) 0.0971(11)
H13 H -0.272(4) 0.362(6) 0.0541(10)
O9 O -0.2054(3) 0.7219(4) 0.03078(9)
H14 H -0.260(3) 0.769(5) 0.0455(12)
H15 H -0.185(4) 0.800(5) 0.0124(11)
Dy1A Dy 1.021861(16) 0.02426(2) 0.440473(6)
Dy1A_2 Dy 1.021861(16) 1.02426(2) 0.440473(6)
Dy1B Dy 0.021861(16) 0.47574(2) -0.059527(6)
O1A O 0.0304(3) 0.1985(3) 0.08421(9)
O3A O 0.0232(2) 0.8550(3) 0.08369(8)
O7B O 0.0731(3) 0.6418(3) 0.00296(8)
O10 O 0.5918(5) 0.2342(7) 0.01035(13)
H16 H 0.595(6) 0.140(7) 0.0289(18)
H17 H 0.546(6) 0.219(9) -0.0146(13)
loop_
_geom_bond_atom_site_label_1
_geom_bond_atom_site_label_2
_geom_bond_site_symmetry_1
_geom_bond_site_symmetry_2
Dy1 N1 1_555 1_555
S1 O1 1_555 1_555
S2 O4 1_555 1_555
N1 C1 1_555 1_555
N2 Dy1 1_555 1_555
N3 H1 1_555 1_555
N4 C6 1_555 1_555
O1 Dy1A_2 1_555 1_555
O2 S1 1_555 1_555
O3 S1 1_555 1_555
O5 S2 1_555 1_555
O6 S2 1_555 1_555
C1 H2 1_555 1_555
C2 C1 1_555 1_555
H3 C2 1_555 1_555
C3 C2 1_555 1_555
H4 C3 1_555 1_555
C4 C3 1_555 1_555
C5 N3 1_555 1_555
C6 C5 1_555 1_555
C7 C6 1_555 1_555
C8 C7 1_555 1_555
H5 C8 1_555 1_555
C9 C8 1_555 1_555
H6 C9 1_555 1_555
C10 N2 1_555 1_555
H7 C10 1_555 1_555
C11 N2 1_555 1_555
C12 N1 1_555 1_555
C13 N3 1_555 1_555
C14 C13 1_555 1_555
C15 C14 1_555 1_555
H8 C15 1_555 1_555
C16 C15 1_555 1_555
H9 C16 1_555 1_555
C17 S1 1_555 1_555
C18 C17 1_555 1_555
H10 C18 1_555 1_555
C19 S2 1_555 1_555
O7 Dy1 1_555 1_555
H11 O7 1_555 1_555
O8 Dy1 1_555 1_555
H12 O8 1_555 1_555
H13 O8 1_555 1_555
O9 Dy1 1_555 1_555
H14 O9 1_555 1_555
H15 O9 1_555 1_555
O10 H16 1_555 1_555
H17 O10 1_555 1_555
Dy1A O3 1_555 1_555
Dy1B O7 1_555 1_555
O1A Dy1 1_555 1_555
O3A Dy1 1_555 1_555
O7B Dy1 1_555 1_555
N4 C13 1_555 1_555
C4 C5 1_555 1_555
C4 C12 1_555 1_555
C7 C11 1_555 1_555
C9 C10 1_555 1_555
C11 C12 1_555 1_555
C14 C19 1_555 1_555
C16 C17 1_555 1_555
C18 C19 1_555 1_555
Dy1B O7B 1_555 1_555

#END
