
#######################################################################
#
#                 Cambridge Crystallographic Data Centre
#                                CCDC 
#
#######################################################################
#
# If this CIF has been generated from an entry in the Cambridge 
# Structural Database, then it will include bibliographic, chemical, 
# crystal, experimental, refinement or atomic coordinate data resulting 
# from the CCDC's data processing and validation procedures.
#
#######################################################################

data_DUKQAC02
_symmetry_cell_setting           triclinic
_symmetry_space_group_name_H-M   'P -1'
_symmetry_Int_Tables_number      2
_space_group_name_Hall           '-P 1'
loop_
_symmetry_equiv_pos_site_id
_symmetry_equiv_pos_as_xyz
1 x,y,z
2 -x,-y,-z
_cell_length_a                   7.1388(8)
_cell_length_b                   9.6059(9)
_cell_length_c                   11.4050(10)
_cell_angle_alpha                90.4430(10)
_cell_angle_beta                 94.9710(10)
_cell_angle_gamma                108.804(2)
_cell_volume                     737.038
loop_
_atom_site_label
_atom_site_type_symbol
_atom_site_fract_x
_atom_site_fract_y
_atom_site_fract_z
Ag1 Ag 0.75543(5) 0.52811(4) 0.04202(2)
N1 N 0.7567(4) 0.5265(3) 0.2310(2)
N2 N 0.7650(4) 0.5186(3) 0.8543(3)
C1 C 0.8334(8) 0.6486(4) 0.2993(4)
H1 H 0.8868 0.7375 0.2635
C2 C 0.8374(7) 0.6494(4) 0.4193(3)
H2 H 0.8914 0.7382 0.4622
C3 C 0.7625(4) 0.5207(3) 0.4782(3)
C4 C 0.6873(5) 0.3953(4) 0.4067(3)
H3 H 0.6369 0.3045 0.4404
C5 C 0.6855(6) 0.4020(4) 0.2875(3)
H4 H 0.6313 0.3146 0.2427
C6 C 0.8290(6) 0.6431(4) 0.7970(3)
H5 H 0.8737 0.7318 0.8405
C7 C 0.8320(6) 0.6470(4) 0.6776(3)
H6 H 0.8802 0.7372 0.6426
C8 C 0.7647(4) 0.5192(3) 0.6076(3)
C9 C 0.6969(7) 0.3910(4) 0.6682(3)
H7 H 0.6490 0.3008 0.6268
C10 C 0.6994(7) 0.3951(4) 0.7879(4)
H8 H 0.6525 0.3064 0.8252
Ag1_2 Ag 0.75543(5) 0.52811(4) 1.04202(2)
N2_2 N 0.7650(4) 0.5186(3) -0.1457(3)
O1 O 0.9220(3) -0.0001(3) 0.2189(2)
O2 O 0.7124(4) 0.0791(3) 0.1053(2)
C11 C 0.7660(5) 0.0330(4) 0.1999(3)
C12 C 0.7129(4) 0.0097(3) 0.4136(3)
H9 H 0.8432 0.0097 0.4269
C13 C 0.6378(4) 0.0176(3) 0.3007(3)
C14 C 0.4372(5) 0.0142(4) 0.2803(3)
H10 H 0.3836 0.0191 0.2038
C15 C 0.3226(5) 0.0039(3) 0.3709(3)
H11 H 0.1911 0.0003 0.3551
C16 C 0.3989(4) -0.0015(3) 0.4892(3)
O1A O 0.0780(3) 0.0001(3) 0.7811(2)
O2A O 0.2876(4) -0.0791(3) 0.8947(2)
C11A C 0.2340(5) -0.0330(4) 0.8001(3)
C12A C 0.2871(4) -0.0097(3) 0.5864(3)
H9A H 0.1568 -0.0097 0.5731
C13A C 0.3622(4) -0.0176(3) 0.6993(3)
C14A C 0.5628(5) -0.0142(4) 0.7197(3)
H10A H 0.6164 -0.0191 0.7962
C15A C 0.6774(5) -0.0039(3) 0.6291(3)
H11A H 0.8089 -0.0003 0.6449
C16A C 0.6011(4) 0.0015(3) 0.5108(3)
O3 O 0.4614(4) 0.2380(3) 0.0210(3)
H12 H 0.5545 0.2141 0.0578
H13 H 0.3898 0.1642 -0.0220
O4 O 0.9986(4) 0.8222(3) 0.0532(3)
H14 H 0.9873 0.8869 0.1009
H15 H 1.0896 0.8635 0.0094
loop_
_geom_bond_atom_site_label_1
_geom_bond_atom_site_label_2
_geom_bond_site_symmetry_1
_geom_bond_site_symmetry_2
Ag1 N1 1_555 1_555
N1 C1 1_555 1_555
N2 C6 1_555 1_555
C1 H1 1_555 1_555
C2 C1 1_555 1_555
H2 C2 1_555 1_555
C3 C2 1_555 1_555
C4 C3 1_555 1_555
H3 C4 1_555 1_555
C5 N1 1_555 1_555
H4 C5 1_555 1_555
C6 H5 1_555 1_555
C7 C6 1_555 1_555
H6 C7 1_555 1_555
C8 C3 1_555 1_555
C9 C8 1_555 1_555
H7 C9 1_555 1_555
C10 N2 1_555 1_555
H8 C10 1_555 1_555
O1 C11 1_555 1_555
O2 C11 1_555 1_555
C11 C13 1_555 1_555
C12 H9 1_555 1_555
C13 C12 1_555 1_555
C14 C13 1_555 1_555
H10 C14 1_555 1_555
C15 C14 1_555 1_555
H11 C15 1_555 1_555
C16 C15 1_555 1_555
O3 H12 1_555 1_555
H13 O3 1_555 1_555
O4 H14 1_555 1_555
H15 O4 1_555 1_555
Ag1_2 N2 1_555 1_555
N2_2 Ag1 1_555 1_555
O1A C11A 1_555 1_555
O2A C11A 1_555 1_555
C11A C13A 1_555 1_555
C12A C16 1_555 1_555
H9A C12A 1_555 1_555
C13A C12A 1_555 1_555
C14A C13A 1_555 1_555
H10A C14A 1_555 1_555
C15A C14A 1_555 1_555
H11A C15A 1_555 1_555
C16A C12 1_555 1_555
C4 C5 1_555 1_555
C7 C8 1_555 1_555
C9 C10 1_555 1_555
C16 C16A 1_555 1_555
C15A C16A 1_555 1_555

#END
