
#######################################################################
#
#                 Cambridge Crystallographic Data Centre
#                                CCDC 
#
#######################################################################
#
# If this CIF has been generated from an entry in the Cambridge 
# Structural Database, then it will include bibliographic, chemical, 
# crystal, experimental, refinement or atomic coordinate data resulting 
# from the CCDC's data processing and validation procedures.
#
#######################################################################

data_DUKZEQ
_symmetry_cell_setting           orthorhombic
_symmetry_space_group_name_H-M   'P b c a'
_symmetry_Int_Tables_number      61
_space_group_name_Hall           '-P 2ac 2ab'
loop_
_symmetry_equiv_pos_site_id
_symmetry_equiv_pos_as_xyz
1 x,y,z
2 1/2-x,-y,1/2+z
3 1/2+x,1/2-y,-z
4 -x,1/2+y,1/2-z
5 -x,-y,-z
6 1/2+x,y,1/2-z
7 1/2-x,1/2+y,z
8 x,1/2-y,1/2+z
_cell_length_a                   10.762(2)
_cell_length_b                   8.1825(16)
_cell_length_c                   22.856(5)
_cell_angle_alpha                90
_cell_angle_beta                 90
_cell_angle_gamma                90
_cell_volume                     2012.7
loop_
_atom_site_label
_atom_site_type_symbol
_atom_site_fract_x
_atom_site_fract_y
_atom_site_fract_z
Ag1 Ag -0.36239(3) 0.20455(4) -0.073628(13)
S1 S -0.25203(10) 0.45500(13) -0.03075(5)
N1 N -0.0516(3) 0.3175(4) 0.03108(16)
N2 N -0.3720(3) 0.2157(4) -0.17255(15)
N3 N -0.3910(4) 0.2205(5) -0.35611(16)
C1 C -0.1328(3) 0.3718(5) 0.00471(18)
C2 C -0.4586(4) 0.1314(5) -0.20292(17)
H1 H -0.5160 0.0710 -0.1816
C3 C -0.4682(4) 0.1280(5) -0.26211(17)
H2 H -0.5303 0.0658 -0.2797
C4 C -0.3849(4) 0.2180(5) -0.29722(18)
C5 C -0.2938(4) 0.3072(5) -0.26546(18)
H3 H -0.2352 0.3697 -0.2854
C6 C -0.2921(4) 0.3010(5) -0.20596(17)
H4 H -0.2307 0.3606 -0.1868
C7 C -0.3075(5) 0.3219(6) -0.3898(2)
H5 H -0.2518 0.3779 -0.3639
H6 H -0.3547 0.4004 -0.4117
H7 H -0.2606 0.2547 -0.4162
C8 C -0.4844(5) 0.1248(7) -0.38723(19)
H8 H -0.5330 0.0638 -0.3596
H9 H -0.4440 0.0508 -0.4137
H10 H -0.5377 0.1968 -0.4089
Ag1B Ag 0.13761(3) 0.29545(4) 0.073628(13)
Ag1F Ag -0.13761(3) 0.70455(4) -0.073628(13)
S1F S -0.24797(10) -0.04500(13) -0.03075(5)
N1B N -0.5516(3) 0.1825(4) -0.03108(16)
loop_
_geom_bond_atom_site_label_1
_geom_bond_atom_site_label_2
_geom_bond_site_symmetry_1
_geom_bond_site_symmetry_2
Ag1 S1 1_555 1_555
S1 C1 1_555 1_555
N1 C1 1_555 1_555
N2 Ag1 1_555 1_555
N3 C4 1_555 1_555
C2 N2 1_555 1_555
H1 C2 1_555 1_555
C3 C2 1_555 1_555
H2 C3 1_555 1_555
C4 C3 1_555 1_555
C5 C4 1_555 1_555
H3 C5 1_555 1_555
C6 N2 1_555 1_555
H4 C6 1_555 1_555
C7 N3 1_555 1_555
H5 C7 1_555 1_555
H6 C7 1_555 1_555
H7 C7 1_555 1_555
C8 N3 1_555 1_555
H8 C8 1_555 1_555
H9 C8 1_555 1_555
H10 C8 1_555 1_555
Ag1B N1 1_555 1_555
Ag1F S1 1_555 1_555
S1F Ag1 1_555 1_555
N1B Ag1 1_555 1_555
C5 C6 1_555 1_555

#END
