
#######################################################################
#
#                 Cambridge Crystallographic Data Centre
#                                CCDC 
#
#######################################################################
#
# If this CIF has been generated from an entry in the Cambridge 
# Structural Database, then it will include bibliographic, chemical, 
# crystal, experimental, refinement or atomic coordinate data resulting 
# from the CCDC's data processing and validation procedures.
#
#######################################################################

data_DUKZEP
_symmetry_cell_setting           monoclinic
_symmetry_space_group_name_H-M   'P 21/c'
_symmetry_Int_Tables_number      14
_space_group_name_Hall           '-P 2ybc'
loop_
_symmetry_equiv_pos_site_id
_symmetry_equiv_pos_as_xyz
1 x,y,z
2 -x,1/2+y,1/2-z
3 -x,-y,-z
4 x,1/2-y,1/2+z
_cell_length_a                   6.6954(3)
_cell_length_b                   7.7324(3)
_cell_length_c                   20.7060(12)
_cell_angle_alpha                90
_cell_angle_beta                 93.0504(16)
_cell_angle_gamma                90
_cell_volume                     1070.46
loop_
_atom_site_label
_atom_site_type_symbol
_atom_site_fract_x
_atom_site_fract_y
_atom_site_fract_z
Cd1 Cd 0.18880(7) 0.22844(7) 0.38994(2)
N1 N 0.2420(9) 0.1971(8) 0.5025(3)
N2 N 0.3162(10) 0.1203(9) 0.6321(3)
O1 O 0.1895(8) -0.0581(7) 0.4138(2)
O2 O 0.2626(12) -0.2579(7) 0.4886(3)
O3 O 0.1441(9) -0.2593(7) 0.6291(3)
O4 O 0.4743(8) -0.2480(7) 0.6302(3)
O5 O 0.2014(11) 0.5161(8) 0.3926(3)
H1 H 0.2233 0.5561 0.3530
H2 H 0.2532 0.5866 0.4280
O6 O 0.1916(10) 0.1970(10) 0.2813(3)
H3 H 0.0798 0.2250 0.2544
H4 H 0.2264 0.0827 0.2691
C1 C 0.2586(10) 0.0309(9) 0.5224(3)
C2 C 0.2940(10) -0.0059(9) 0.5881(3)
C3 C 0.3001(14) 0.2818(11) 0.6113(4)
H5 H 0.3156 0.3714 0.6411
C4 C 0.2611(14) 0.3220(11) 0.5468(4)
H6 H 0.2480 0.4370 0.5342
C5 C 0.2358(11) -0.1077(10) 0.4705(3)
C6 C 0.3037(11) -0.1892(11) 0.6162(3)
Cd1B Cd -0.18880(7) -0.22844(7) 0.61006(2)
Cd1B_2 Cd 0.81120(7) -0.22844(7) 0.61006(2)
O3B O -0.1441(9) 0.2593(7) 0.3709(3)
O4B O 0.5257(8) 0.2480(7) 0.3698(3)
O7 O 0.4544(10) -0.0495(10) 0.2427(3)
H7 H 0.4906 -0.1166 0.2097
H8 H 0.4986 -0.0576 0.2812
O8 O -0.1375(12) 0.2522(8) 0.2037(3)
H9 H -0.1222 0.3333 0.1680
H10 H -0.2766 0.2666 0.2188
loop_
_geom_bond_atom_site_label_1
_geom_bond_atom_site_label_2
_geom_bond_site_symmetry_1
_geom_bond_site_symmetry_2
Cd1 N1 1_555 1_555
N1 C1 1_555 1_555
N2 C2 1_555 1_555
O1 Cd1 1_555 1_555
O2 C5 1_555 1_555
O3 C6 1_555 1_555
O4 C6 1_555 1_555
O5 Cd1 1_555 1_555
H1 O5 1_555 1_555
H2 O5 1_555 1_555
O6 Cd1 1_555 1_555
H3 O6 1_555 1_555
H4 O6 1_555 1_555
C1 C2 1_555 1_555
C2 C6 1_555 1_555
C3 N2 1_555 1_555
H5 C3 1_555 1_555
C4 N1 1_555 1_555
H6 C4 1_555 1_555
C5 O1 1_555 1_555
O7 H7 1_555 1_555
H8 O7 1_555 1_555
O8 H9 1_555 1_555
H10 O8 1_555 1_555
Cd1B O3 1_555 1_555
Cd1B_2 O4 1_555 1_555
O3B Cd1 1_555 1_555
O4B Cd1 1_555 1_555
C1 C5 1_555 1_555
C3 C4 1_555 1_555

#END
