
#######################################################################
#
#                 Cambridge Crystallographic Data Centre
#                                CCDC 
#
#######################################################################
#
# If this CIF has been generated from an entry in the Cambridge 
# Structural Database, then it will include bibliographic, chemical, 
# crystal, experimental, refinement or atomic coordinate data resulting 
# from the CCDC's data processing and validation procedures.
#
#######################################################################

data_DUKZIT
_symmetry_cell_setting           triclinic
_symmetry_space_group_name_H-M   'P -1'
_symmetry_Int_Tables_number      2
_space_group_name_Hall           '-P 1'
loop_
_symmetry_equiv_pos_site_id
_symmetry_equiv_pos_as_xyz
1 x,y,z
2 -x,-y,-z
_cell_length_a                   7.0127(13)
_cell_length_b                   8.1279(15)
_cell_length_c                   9.8430(18)
_cell_angle_alpha                79.402(14)
_cell_angle_beta                 86.885(15)
_cell_angle_gamma                73.799(15)
_cell_volume                     529.564
loop_
_atom_site_label
_atom_site_type_symbol
_atom_site_fract_x
_atom_site_fract_y
_atom_site_fract_z
Mn1 Mn 0.0000 1.0000 0.0000
N1 N 0.0252(2) 0.8053(2) 0.19553(15)
C3 C -0.0358(3) 0.8554(3) 0.3156(2)
H1 H -0.0721 0.9739 0.3184
C4 C -0.0481(4) 0.7413(3) 0.4360(2)
H2 H -0.0920 0.7835 0.5171
C5 C 0.0051(3) 0.5636(2) 0.43620(17)
C6 C 0.0683(3) 0.5117(3) 0.3108(2)
H3 H 0.1043 0.3941 0.3047
C7 C 0.0777(4) 0.6340(3) 0.19531(19)
H4 H 0.1228 0.5955 0.1130
O3 O -0.2772(2) 1.1598(2) 0.06928(15)
H5 H -0.378(3) 1.201(4) 0.006(2)
H6 H -0.298(5) 1.243(4) 0.127(3)
O4 O 0.1768(2) 1.1428(2) 0.08855(15)
H7 H 0.252(4) 1.087(4) 0.168(2)
H8 H 0.257(4) 1.190(4) 0.022(3)
Mn1_2 Mn 0.0000 0.0000 1.0000
N1A N -0.0252(2) 0.1947(2) 0.80447(15)
N1A_2 N -0.0252(2) 1.1947(2) -0.19553(15)
C3A C 0.0358(3) 0.1446(3) 0.6844(2)
H1A H 0.0721 0.0261 0.6816
C4A C 0.0481(4) 0.2587(3) 0.5640(2)
H2A H 0.0920 0.2165 0.4829
C5A C -0.0051(3) 0.4364(2) 0.56380(17)
C6A C -0.0683(3) 0.4883(3) 0.6892(2)
H3A H -0.1043 0.6059 0.6953
C7A C -0.0777(4) 0.3660(3) 0.80469(19)
H4A H -0.1228 0.4045 0.8870
O3A O 0.2772(2) 0.8402(2) -0.06928(15)
H5A H 0.378(3) 0.799(4) -0.006(2)
H6A H 0.298(5) 0.757(4) -0.127(3)
O4A O -0.1768(2) 0.8572(2) -0.08855(15)
H7A H -0.252(4) 0.913(4) -0.168(2)
H8A H -0.257(4) 0.810(4) -0.022(3)
O1 O 0.3742(3) 0.8299(2) 0.58393(16)
O2 O 0.3609(3) 0.6142(2) 0.75548(16)
C1 C 0.3957(3) 0.6743(2) 0.6336(2)
C2 C 0.4687(3) 0.5487(3) 0.5394(2)
O1A O 0.6258(3) 0.1701(2) 0.41607(16)
O2A O 0.6391(3) 0.3858(2) 0.24452(16)
C1A C 0.6043(3) 0.3257(2) 0.3664(2)
C2A C 0.5313(3) 0.4513(3) 0.4606(2)
O5 O 0.4182(2) 0.2696(2) 0.87899(16)
H9 H 0.405(5) 0.384(3) 0.834(3)
H10 H 0.456(5) 0.202(4) 0.808(3)
O6 O 0.5696(3) 0.0346(2) 0.69203(16)
H11 H 0.590(5) 0.092(4) 0.606(2)
H12 H 0.494(5) -0.037(4) 0.674(4)
loop_
_geom_bond_atom_site_label_1
_geom_bond_atom_site_label_2
_geom_bond_site_symmetry_1
_geom_bond_site_symmetry_2
Mn1 N1 1_555 1_555
O1 C1 1_555 1_555
O2 C1 1_555 1_555
C1 C2 1_555 1_555
C2 C2A 1_555 1_555
N1 C3 1_555 1_555
C3 H1 1_555 1_555
C4 C3 1_555 1_555
H2 C4 1_555 1_555
C5 C4 1_555 1_555
C6 C5 1_555 1_555
H3 C6 1_555 1_555
C7 N1 1_555 1_555
H4 C7 1_555 1_555
O3 Mn1 1_555 1_555
H5 O3 1_555 1_555
H6 O3 1_555 1_555
O4 Mn1 1_555 1_555
H7 O4 1_555 1_555
H8 O4 1_555 1_555
O5 H9 1_555 1_555
H10 O5 1_555 1_555
O6 H11 1_555 1_555
H12 O6 1_555 1_555
Mn1_2 N1A 1_555 1_555
O1A C1A 1_555 1_555
O2A C1A 1_555 1_555
C1A C2A 1_555 1_555
N1A C3A 1_555 1_555
N1A_2 Mn1 1_555 1_555
C3A H1A 1_555 1_555
C4A C3A 1_555 1_555
H2A C4A 1_555 1_555
C5A C5 1_555 1_555
C6A C5A 1_555 1_555
H3A C6A 1_555 1_555
C7A N1A 1_555 1_555
H4A C7A 1_555 1_555
O3A Mn1 1_555 1_555
H5A O3A 1_555 1_555
H6A O3A 1_555 1_555
O4A Mn1 1_555 1_555
H7A O4A 1_555 1_555
H8A O4A 1_555 1_555
C6 C7 1_555 1_555
C4A C5A 1_555 1_555
C6A C7A 1_555 1_555

#END
