
#######################################################################
#
#                 Cambridge Crystallographic Data Centre
#                                CCDC 
#
#######################################################################
#
# If this CIF has been generated from an entry in the Cambridge 
# Structural Database, then it will include bibliographic, chemical, 
# crystal, experimental, refinement or atomic coordinate data resulting 
# from the CCDC's data processing and validation procedures.
#
#######################################################################

data_DULBUJ
_symmetry_cell_setting           monoclinic
_symmetry_space_group_name_H-M   'P 21/n'
_symmetry_Int_Tables_number      14
_space_group_name_Hall           '-P 2yn'
loop_
_symmetry_equiv_pos_site_id
_symmetry_equiv_pos_as_xyz
1 x,y,z
2 1/2-x,1/2+y,1/2-z
3 -x,-y,-z
4 1/2+x,1/2-y,1/2+z
_cell_length_a                   12.1368(4)
_cell_length_b                   14.4335(6)
_cell_length_c                   22.7972(7)
_cell_angle_alpha                90
_cell_angle_beta                 101.600(3)
_cell_angle_gamma                90
_cell_volume                     3911.97
loop_
_atom_site_label
_atom_site_type_symbol
_atom_site_fract_x
_atom_site_fract_y
_atom_site_fract_z
Zn1 Zn 0.42261(4) 0.68518(3) 0.239020(19)
Zn2 Zn -0.05141(4) 0.74150(3) 0.30333(2)
C1 C 0.3618(3) 0.7167(3) 0.34354(17)
C2 C 0.3489(3) 0.7038(3) 0.40699(17)
H1 H 0.4104 0.6820 0.4347
C3 C 0.2560(3) 0.7214(3) 0.42555(17)
H2 H 0.2571 0.7120 0.4660
C4 C 0.1483(3) 0.7551(3) 0.38822(18)
C5 C -0.1895(3) 0.6254(3) 0.22455(19)
C6 C -0.2334(4) 0.5343(3) 0.1998(2)
H3 H -0.1817 0.4878 0.1972
C7 C -0.3406(4) 0.5156(3) 0.1813(2)
H4 H -0.3588 0.4567 0.1658
C8 C -0.4354(4) 0.5799(3) 0.1829(2)
C9 C 0.0777(4) 0.8917(3) 0.25732(19)
H5 H 0.1312 0.8939 0.2928
C10 C 0.0812(4) 0.9408(3) 0.20797(19)
H6 H 0.1367 0.9827 0.2028
C11 C -0.0682(3) 0.8555(3) 0.19204(18)
H7 H -0.1352 0.8281 0.1729
C12 C 0.2285(4) 0.7594(4) -0.1540(2)
H8 H 0.1871 0.7770 -0.1912
C13 C 0.1882(4) 0.7527(4) -0.1039(2)
H9 H 0.1145 0.7636 -0.0999
C14 C 0.3652(3) 0.7176(3) -0.08482(17)
H10 H 0.4363 0.7001 -0.0644
C15 C -0.0324(4) 0.9421(3) 0.10309(18)
H11 H -0.0181 1.0075 0.0985
H12 H -0.1104 0.9298 0.0850
C16 C 0.0439(3) 0.8851(3) 0.07232(17)
C17 C 0.1411(4) 0.9206(4) 0.0590(2)
H13 H 0.1569 0.9832 0.0653
C18 C 0.2152(4) 0.8657(4) 0.0367(2)
H14 H 0.2803 0.8915 0.0281
C19 C 0.1941(4) 0.7727(3) 0.02696(17)
C20 C 0.0962(4) 0.7369(3) 0.03969(19)
H15 H 0.0801 0.6744 0.0332
C21 C 0.0221(4) 0.7922(3) 0.06184(19)
H16 H -0.0436 0.7667 0.0699
C22 C 0.2747(4) 0.7094(4) 0.0040(2)
H17 H 0.3498 0.7185 0.0276
H18 H 0.2533 0.6456 0.0088
C23 C 0.3927(4) 0.8893(3) 0.20617(19)
H19 H 0.3311 0.8972 0.2242
C24 C 0.4361(4) 0.9553(3) 0.1759(2)
H20 H 0.4109 1.0159 0.1689
C25 C 0.5321(3) 0.8274(3) 0.17669(18)
H21 H 0.5860 0.7851 0.1700
C26 C 0.6026(4) 0.9595(3) 0.12399(19)
H22 H 0.6674 0.9199 0.1249
H23 H 0.6291 1.0172 0.1437
C27 C 0.5486(3) 0.9797(3) 0.05944(17)
C28 C 0.5484(5) 0.9173(3) 0.0152(2)
H24 H 0.5819 0.8597 0.0246
C29 C 0.5001(5) 1.0632(3) 0.0434(2)
H25 H 0.4997 1.1081 0.0726
C30 C 0.1729(4) 0.6507(4) 0.2138(2)
H26 H 0.1589 0.6992 0.2381
C31 C 0.0970(4) 0.5887(5) 0.1878(2)
H27 H 0.0219 0.5860 0.1910
C32 C 0.2552(3) 0.5602(3) 0.16401(17)
H28 H 0.3097 0.5326 0.1463
C33 C 0.1013(4) 0.4508(3) 0.1215(2)
H29 H 0.0452 0.4226 0.1407
H30 H 0.1603 0.4055 0.1212
C34 C 0.0480(4) 0.4754(3) 0.05804(19)
C35 C 0.1070(4) 0.4644(3) 0.0134(2)
H31 H 0.1795 0.4402 0.0223
C36 C -0.0602(4) 0.5113(3) 0.0441(2)
H32 H -0.1011 0.5189 0.0742
O1 O 0.4350(2) 0.6661(2) 0.32641(11)
O2 O 0.3031(2) 0.77346(19) 0.31139(11)
O3 O 0.0924(2) 0.6978(2) 0.35212(12)
O4 O 0.1177(3) 0.8355(3) 0.39507(14)
O5 O -0.1024(2) 0.6221(2) 0.26584(13)
O6 O -0.2364(2) 0.6978(2) 0.20495(13)
O7 O -0.4460(2) 0.6083(2) 0.23382(13)
O8 O -0.5009(3) 0.6014(3) 0.13601(16)
N1 N -0.0170(3) 0.8377(2) 0.24730(14)
N2 N -0.0113(3) 0.9180(2) 0.16708(14)
N3 N 0.3396(3) 0.7366(2) -0.14239(14)
N4 N 0.2758(3) 0.7266(3) -0.05954(15)
N5 N 0.4523(3) 0.8087(2) 0.20645(14)
N6 N 0.5256(3) 0.9144(2) 0.15758(14)
N7 N 0.2734(2) 0.6319(2) 0.19930(13)
N8 N 0.1492(3) 0.5313(2) 0.15630(14)
C23B C 0.6073(4) 1.1107(3) -0.20617(19)
H19B H 0.6689 1.1028 -0.2242
C24B C 0.5639(4) 1.0447(3) -0.1759(2)
H20B H 0.5891 0.9841 -0.1689
C25B C 0.4679(3) 1.1726(3) -0.17669(18)
H21B H 0.4140 1.2149 -0.1700
C26B C 0.3974(4) 1.0405(3) -0.12399(19)
H22B H 0.3326 1.0801 -0.1249
H23B H 0.3709 0.9828 -0.1437
C27B C 0.4514(3) 1.0203(3) -0.05944(17)
C28B C 0.4516(5) 1.0827(3) -0.0152(2)
H24B H 0.4181 1.1403 -0.0246
C29B C 0.4999(5) 0.9368(3) -0.0434(2)
H25B H 0.5003 0.8919 -0.0726
N5B N 0.5477(3) 1.1913(2) -0.20645(14)
N6B N 0.4744(3) 1.0856(2) -0.15758(14)
C30B C -0.1729(4) 0.3493(4) -0.2138(2)
H26B H -0.1589 0.3008 -0.2381
C31B C -0.0970(4) 0.4113(5) -0.1878(2)
H27B H -0.0219 0.4140 -0.1910
C32B C -0.2552(3) 0.4398(3) -0.16401(17)
H28B H -0.3097 0.4674 -0.1463
C33B C -0.1013(4) 0.5492(3) -0.1215(2)
H29B H -0.0452 0.5774 -0.1407
H30B H -0.1603 0.5945 -0.1212
C34B C -0.0480(4) 0.5246(3) -0.05804(19)
C35B C -0.1070(4) 0.5356(3) -0.0134(2)
H31B H -0.1795 0.5598 -0.0223
C36B C 0.0602(4) 0.4887(3) -0.0441(2)
H32B H 0.1011 0.4811 -0.0742
N7B N -0.2734(2) 0.3681(2) -0.19930(13)
N8B N -0.1492(3) 0.4687(2) -0.15630(14)
Zn1B Zn -0.42261(4) 0.31482(3) -0.239020(19)
Zn2B Zn 0.05141(4) 0.25850(3) -0.30333(2)
C1B C -0.3618(3) 0.2833(3) -0.34354(17)
C2B C -0.3489(3) 0.2962(3) -0.40699(17)
H1B H -0.4104 0.3180 -0.4347
C3B C -0.2560(3) 0.2786(3) -0.42555(17)
H2B H -0.2571 0.2880 -0.4660
C4B C -0.1483(3) 0.2449(3) -0.38822(18)
C5B C 0.1895(3) 0.3746(3) -0.22455(19)
C6B C 0.2334(4) 0.4657(3) -0.1998(2)
H3B H 0.1817 0.5122 -0.1972
C7B C 0.3406(4) 0.4844(3) -0.1813(2)
H4B H 0.3588 0.5433 -0.1658
C8B C 0.4354(4) 0.4201(3) -0.1829(2)
C9B C -0.0777(4) 0.1083(3) -0.25732(19)
H5B H -0.1312 0.1061 -0.2928
C10B C -0.0812(4) 0.0592(3) -0.20797(19)
H6B H -0.1367 0.0173 -0.2028
C11B C 0.0682(3) 0.1445(3) -0.19204(18)
H7B H 0.1352 0.1719 -0.1729
C12B C -0.2285(4) 0.2406(4) 0.1540(2)
H8B H -0.1871 0.2230 0.1912
C13B C -0.1882(4) 0.2473(4) 0.1039(2)
H9B H -0.1145 0.2364 0.0999
C14B C -0.3652(3) 0.2824(3) 0.08482(17)
H10B H -0.4363 0.2999 0.0644
C15B C 0.0324(4) 0.0579(3) -0.10309(18)
H11B H 0.0181 -0.0075 -0.0985
H12B H 0.1104 0.0702 -0.0850
C16B C -0.0439(3) 0.1149(3) -0.07232(17)
C17B C -0.1411(4) 0.0794(4) -0.0590(2)
H13B H -0.1569 0.0168 -0.0653
C18B C -0.2152(4) 0.1343(4) -0.0367(2)
H14B H -0.2803 0.1085 -0.0281
C19B C -0.1941(4) 0.2273(3) -0.02696(17)
C20B C -0.0962(4) 0.2631(3) -0.03969(19)
H15B H -0.0801 0.3256 -0.0332
C21B C -0.0221(4) 0.2078(3) -0.06184(19)
H16B H 0.0436 0.2333 -0.0699
C22B C -0.2747(4) 0.2906(4) -0.0040(2)
H17B H -0.3498 0.2815 -0.0276
H18B H -0.2533 0.3544 -0.0088
O1B O -0.4350(2) 0.3339(2) -0.32641(11)
O2B O -0.3031(2) 0.22654(19) -0.31139(11)
O3B O -0.0924(2) 0.3022(2) -0.35212(12)
O4B O -0.1177(3) 0.1645(3) -0.39507(14)
O5B O 0.1024(2) 0.3779(2) -0.26584(13)
O6B O 0.2364(2) 0.3022(2) -0.20495(13)
O7B O 0.4460(2) 0.3917(2) -0.23382(13)
O8B O 0.5009(3) 0.3986(3) -0.13601(16)
N1B N 0.0170(3) 0.1623(2) -0.24730(14)
N2B N 0.0113(3) 0.0820(2) -0.16708(14)
N3B N -0.3396(3) 0.2634(2) 0.14239(14)
N4B N -0.2758(3) 0.2734(3) 0.05954(15)
Zn1_2 Zn -0.57739(4) 0.68518(3) 0.239020(19)
Zn1B_2 Zn 0.57739(4) 0.31482(3) -0.239020(19)
Zn1B_3 Zn 0.57739(4) 1.31482(3) -0.239020(19)
Zn2A Zn -0.44859(4) 0.24150(3) 0.19667(2)
Zn2C Zn 0.44859(4) 0.75850(3) -0.19667(2)
O7_2 O 0.5540(2) 0.6083(2) 0.23382(13)
O7B_2 O -0.5540(2) 0.3917(2) -0.23382(13)
N3A N 0.1604(3) 0.2366(2) -0.35761(14)
N3C N -0.1604(3) 0.7634(2) 0.35761(14)
N5B_2 N -0.4523(3) 0.1913(2) -0.20645(14)
O9 O -0.2625(4) 0.7345(4) 0.0812(2)
O10 O -0.4021(7) 0.5117(6) -0.0402(4)
O11 O -0.4370(7) 0.6449(6) 0.0306(3)
loop_
_geom_bond_atom_site_label_1
_geom_bond_atom_site_label_2
_geom_bond_site_symmetry_1
_geom_bond_site_symmetry_2
Zn1 O1 1_555 1_555
Zn2 O3 1_555 1_555
C1 C2 1_555 1_555
C2 H1 1_555 1_555
C3 C2 1_555 1_555
H2 C3 1_555 1_555
C4 C3 1_555 1_555
C5 C6 1_555 1_555
C6 H3 1_555 1_555
C7 C6 1_555 1_555
H4 C7 1_555 1_555
C8 C7 1_555 1_555
C9 H5 1_555 1_555
C10 C9 1_555 1_555
H6 C10 1_555 1_555
C11 H7 1_555 1_555
C12 H8 1_555 1_555
C13 C12 1_555 1_555
H9 C13 1_555 1_555
C14 H10 1_555 1_555
C15 H11 1_555 1_555
H12 C15 1_555 1_555
C16 C15 1_555 1_555
C17 C16 1_555 1_555
H13 C17 1_555 1_555
C18 C17 1_555 1_555
H14 C18 1_555 1_555
C19 C18 1_555 1_555
C20 C19 1_555 1_555
H15 C20 1_555 1_555
C21 C16 1_555 1_555
H16 C21 1_555 1_555
C22 C19 1_555 1_555
H17 C22 1_555 1_555
H18 C22 1_555 1_555
C23 H19 1_555 1_555
C24 C23 1_555 1_555
H20 C24 1_555 1_555
C25 H21 1_555 1_555
C26 H22 1_555 1_555
H23 C26 1_555 1_555
C27 C26 1_555 1_555
C28 C27 1_555 1_555
H24 C28 1_555 1_555
C29 C27 1_555 1_555
H25 C29 1_555 1_555
C30 H26 1_555 1_555
C31 C30 1_555 1_555
H27 C31 1_555 1_555
C32 H28 1_555 1_555
C33 H29 1_555 1_555
H30 C33 1_555 1_555
C34 C33 1_555 1_555
C35 C34 1_555 1_555
H31 C35 1_555 1_555
C36 C34 1_555 1_555
H32 C36 1_555 1_555
O1 C1 1_555 1_555
O2 C1 1_555 1_555
O3 C4 1_555 1_555
O4 C4 1_555 1_555
O5 Zn2 1_555 1_555
O6 C5 1_555 1_555
O7 C8 1_555 1_555
O8 C8 1_555 1_555
N1 Zn2 1_555 1_555
N2 C10 1_555 1_555
N3 C12 1_555 1_555
N4 C13 1_555 1_555
N5 Zn1 1_555 1_555
N6 C24 1_555 1_555
N7 Zn1 1_555 1_555
N8 C31 1_555 1_555
C23B H19B 1_555 1_555
C24B C23B 1_555 1_555
H20B C24B 1_555 1_555
C25B H21B 1_555 1_555
C26B H22B 1_555 1_555
H23B C26B 1_555 1_555
C27B C26B 1_555 1_555
C28B C29 1_555 1_555
H24B C28B 1_555 1_555
C29B C28 1_555 1_555
H25B C29B 1_555 1_555
N5B C23B 1_555 1_555
N6B C24B 1_555 1_555
C30B H26B 1_555 1_555
C31B C30B 1_555 1_555
H27B C31B 1_555 1_555
C32B H28B 1_555 1_555
C33B H29B 1_555 1_555
H30B C33B 1_555 1_555
C34B C33B 1_555 1_555
C35B C36 1_555 1_555
H31B C35B 1_555 1_555
C36B C35 1_555 1_555
H32B C36B 1_555 1_555
N7B C30B 1_555 1_555
N8B C31B 1_555 1_555
Zn1B N7B 1_555 1_555
Zn2B O3B 1_555 1_555
C1B C2B 1_555 1_555
C2B H1B 1_555 1_555
C3B C2B 1_555 1_555
H2B C3B 1_555 1_555
C4B C3B 1_555 1_555
C5B C6B 1_555 1_555
C6B H3B 1_555 1_555
C7B C6B 1_555 1_555
H4B C7B 1_555 1_555
C8B C7B 1_555 1_555
C9B H5B 1_555 1_555
C10B C9B 1_555 1_555
H6B C10B 1_555 1_555
C11B H7B 1_555 1_555
C12B H8B 1_555 1_555
C13B C12B 1_555 1_555
H9B C13B 1_555 1_555
C14B H10B 1_555 1_555
C15B H11B 1_555 1_555
H12B C15B 1_555 1_555
C16B C15B 1_555 1_555
C17B C16B 1_555 1_555
H13B C17B 1_555 1_555
C18B C17B 1_555 1_555
H14B C18B 1_555 1_555
C19B C18B 1_555 1_555
C20B C19B 1_555 1_555
H15B C20B 1_555 1_555
C21B C16B 1_555 1_555
H16B C21B 1_555 1_555
C22B C19B 1_555 1_555
H17B C22B 1_555 1_555
H18B C22B 1_555 1_555
O1B Zn1B 1_555 1_555
O2B C1B 1_555 1_555
O3B C4B 1_555 1_555
O4B C4B 1_555 1_555
O5B Zn2B 1_555 1_555
O6B C5B 1_555 1_555
O7B C8B 1_555 1_555
O8B C8B 1_555 1_555
N1B Zn2B 1_555 1_555
N2B C10B 1_555 1_555
N3B C12B 1_555 1_555
N4B C13B 1_555 1_555
Zn1_2 O7 1_555 1_555
Zn1B_2 O7B 1_555 1_555
Zn1B_3 N5B 1_555 1_555
Zn2A N3B 1_555 1_555
Zn2C N3 1_555 1_555
O7_2 Zn1 1_555 1_555
O7B_2 Zn1B 1_555 1_555
N3A Zn2B 1_555 1_555
N3C Zn2 1_555 1_555
N5B_2 Zn1B 1_555 1_555
C5 O5 1_555 1_555
C9 N1 1_555 1_555
C11 N1 1_555 1_555
C11 N2 1_555 1_555
C14 N3 1_555 1_555
C14 N4 1_555 1_555
C15 N2 1_555 1_555
C20 C21 1_555 1_555
C22 N4 1_555 1_555
C23 N5 1_555 1_555
C25 N5 1_555 1_555
C25 N6 1_555 1_555
C26 N6 1_555 1_555
C30 N7 1_555 1_555
C32 N7 1_555 1_555
C32 N8 1_555 1_555
C33 N8 1_555 1_555
C25B N5B 1_555 1_555
C25B N6B 1_555 1_555
C26B N6B 1_555 1_555
C27B C28B 1_555 1_555
C27B C29B 1_555 1_555
C32B N7B 1_555 1_555
C32B N8B 1_555 1_555
C33B N8B 1_555 1_555
C34B C35B 1_555 1_555
C34B C36B 1_555 1_555
C1B O1B 1_555 1_555
C5B O5B 1_555 1_555
C9B N1B 1_555 1_555
C11B N1B 1_555 1_555
C11B N2B 1_555 1_555
C14B N3B 1_555 1_555
C14B N4B 1_555 1_555
C15B N2B 1_555 1_555
C20B C21B 1_555 1_555
C22B N4B 1_555 1_555

#END
