
#######################################################################
#
#                 Cambridge Crystallographic Data Centre
#                                CCDC 
#
#######################################################################
#
# If this CIF has been generated from an entry in the Cambridge 
# Structural Database, then it will include bibliographic, chemical, 
# crystal, experimental, refinement or atomic coordinate data resulting 
# from the CCDC's data processing and validation procedures.
#
#######################################################################

data_DULNAA
_symmetry_cell_setting           orthorhombic
_symmetry_space_group_name_H-M   'C c c m'
_symmetry_Int_Tables_number      66
_space_group_name_Hall           '-C 2 2n'
loop_
_symmetry_equiv_pos_site_id
_symmetry_equiv_pos_as_xyz
1 x,y,z
2 -x,-y,z
3 -x,y,1/2-z
4 x,-y,1/2-z
5 1/2+x,1/2+y,z
6 1/2-x,1/2-y,z
7 1/2-x,1/2+y,1/2-z
8 1/2+x,1/2-y,1/2-z
9 -x,-y,-z
10 x,y,-z
11 x,-y,1/2+z
12 -x,y,1/2+z
13 1/2-x,1/2-y,-z
14 1/2+x,1/2+y,-z
15 1/2+x,1/2-y,1/2+z
16 1/2-x,1/2+y,1/2+z
_cell_length_a                   9.514(4)
_cell_length_b                   13.935(6)
_cell_length_c                   13.965(6)
_cell_angle_alpha                90
_cell_angle_beta                 90
_cell_angle_gamma                90
_cell_volume                     1851.45
loop_
_atom_site_label
_atom_site_type_symbol
_atom_site_fract_x
_atom_site_fract_y
_atom_site_fract_z
Cd1 Cd 1.2500 0.2500 0.5000
Zn1 Zn 1.0000 0.5000 0.2500
C1 C 1.1171(4) 0.4109(3) 0.3337(3)
N1 N 1.1750(4) 0.3577(3) 0.3815(3)
N2 N 1.0252(5) 0.1795(4) 0.5000
C2 C 0.9588(8) 0.1595(5) 0.4210(4)
H1 H 1.0043 0.1715 0.3633
C3 C 0.7615(11) 0.1001(9) 0.5000
H2 H 0.6741 0.0703 0.5000
C4 C 0.8239(8) 0.1213(6) 0.4180(6)
H3 H 0.7787 0.1109 0.3598
Zn1D Zn 1.5000 0.0000 0.2500
Zn1H Zn 1.0000 0.5000 0.7500
Zn1L Zn 1.5000 0.0000 0.7500
C1E C 1.3829(4) 0.0891(3) 0.3337(3)
C1I C 1.1171(4) 0.4109(3) 0.6663(3)
C1L C 1.3829(4) 0.0891(3) 0.6663(3)
C1A C 0.8829(4) 0.5891(3) 0.3337(3)
C1B C 0.8829(4) 0.4109(3) 0.1663(3)
C1C C 1.1171(4) 0.5891(3) 0.1663(3)
N1E N 1.3250(4) 0.1423(3) 0.3815(3)
N1I N 1.1750(4) 0.3577(3) 0.6185(3)
N1L N 1.3250(4) 0.1423(3) 0.6185(3)
N2E N 1.4748(5) 0.3205(4) 0.5000
C2I C 0.9588(8) 0.1595(5) 0.5790(4)
C2E C 1.5412(8) 0.3405(5) 0.4210(4)
C2L C 1.5412(8) 0.3405(5) 0.5790(4)
H1I H 1.0043 0.1715 0.6367
H1E H 1.4957 0.3285 0.3633
H1L H 1.4957 0.3285 0.6367
C3E C 1.7385(11) 0.3999(9) 0.5000
H2E H 1.8259 0.4297 0.5000
C4I C 0.8239(8) 0.1213(6) 0.5820(6)
C4E C 1.6761(8) 0.3787(6) 0.4180(6)
C4L C 1.6761(8) 0.3787(6) 0.5820(6)
H3I H 0.7787 0.1109 0.6402
H3E H 1.7213 0.3891 0.3598
H3L H 1.7213 0.3891 0.6402
loop_
_geom_bond_atom_site_label_1
_geom_bond_atom_site_label_2
_geom_bond_site_symmetry_1
_geom_bond_site_symmetry_2
Cd1 N1 1_555 1_555
Zn1 C1 1_555 1_555
C1 N1 1_555 1_555
N2 Cd1 1_555 1_555
C2 N2 1_555 1_555
H1 C2 1_555 1_555
C3 H2 1_555 1_555
C4 C2 1_555 1_555
H3 C4 1_555 1_555
Zn1D C1E 1_555 1_555
Zn1H C1I 1_555 1_555
Zn1L C1L 1_555 1_555
C1E N1E 1_555 1_555
C1I N1I 1_555 1_555
C1L N1L 1_555 1_555
C1A Zn1 1_555 1_555
C1B Zn1 1_555 1_555
C1C Zn1 1_555 1_555
N1E Cd1 1_555 1_555
N1I Cd1 1_555 1_555
N1L Cd1 1_555 1_555
N2E Cd1 1_555 1_555
C2I N2 1_555 1_555
C2E N2E 1_555 1_555
C2L N2E 1_555 1_555
H1I C2I 1_555 1_555
H1E C2E 1_555 1_555
H1L C2L 1_555 1_555
C3E H2E 1_555 1_555
C4I C3 1_555 1_555
C4E C2E 1_555 1_555
C4L C2L 1_555 1_555
H3I C4I 1_555 1_555
H3E C4E 1_555 1_555
H3L C4L 1_555 1_555
C3 C4 1_555 1_555
C2I C4I 1_555 1_555
C3E C4E 1_555 1_555
C3E C4L 1_555 1_555

#END
