
#######################################################################
#
#                 Cambridge Crystallographic Data Centre
#                                CCDC 
#
#######################################################################
#
# If this CIF has been generated from an entry in the Cambridge 
# Structural Database, then it will include bibliographic, chemical, 
# crystal, experimental, refinement or atomic coordinate data resulting 
# from the CCDC's data processing and validation procedures.
#
#######################################################################

data_DULQEH
_symmetry_cell_setting           monoclinic
_symmetry_space_group_name_H-M   'P 21/c'
_symmetry_Int_Tables_number      14
_space_group_name_Hall           '-P 2ybc'
loop_
_symmetry_equiv_pos_site_id
_symmetry_equiv_pos_as_xyz
1 x,y,z
2 -x,1/2+y,1/2-z
3 -x,-y,-z
4 x,1/2-y,1/2+z
_cell_length_a                   6.1249(6)
_cell_length_b                   21.250(2)
_cell_length_c                   12.5511(12)
_cell_angle_alpha                90
_cell_angle_beta                 101.846(2)
_cell_angle_gamma                90
_cell_volume                     1598.79
loop_
_atom_site_label
_atom_site_type_symbol
_atom_site_fract_x
_atom_site_fract_y
_atom_site_fract_z
Ni1 Ni 0.5000 0.5000 0.5000
C1 C 0.7141(7) 0.47283(19) 0.3080(4)
C2 C 0.5607(7) 0.41749(19) 0.2771(3)
C3 C 0.3908(6) 0.39745(18) 0.3348(3)
C4 C 0.2685(7) 0.34232(19) 0.2900(3)
C5 C 0.0880(8) 0.3175(2) 0.3310(4)
H1 H 0.0416 0.3397 0.3863
C6 C 0.0596(7) 0.2340(2) 0.2186(4)
C7 C 0.3168(7) 0.3083(2) 0.2024(4)
C8 C 0.5934(9) 0.3829(2) 0.1908(4)
H2 H 0.7017 0.3972 0.1544
C9 C 0.5451(11) 0.2956(3) 0.0587(6)
H3 H 0.7027 0.3014 0.0599
H4 H 0.5179 0.2510 0.0652
C10 C 0.4140(17) 0.3190(6) -0.0446(8)
H5 H 0.2601 0.3080 -0.0501
H6 H 0.4681 0.3005 -0.1039
H7 H 0.4278 0.3640 -0.0473
C11 C -0.1716(9) 0.1431(2) 0.2519(4)
H8 H -0.2457 0.1731 0.2908
H9 H -0.0778 0.1164 0.3051
C12 C -0.3438(8) 0.1034(2) 0.1784(4)
H10 H -0.4224 0.0785 0.2233
H11 H -0.4517 0.1311 0.1343
C13 C 0.0646(7) 0.1360(2) 0.1181(4)
H12 H 0.1711 0.1080 0.1622
H13 H 0.1435 0.1611 0.0735
C14 C -0.1164(7) 0.0976(2) 0.0452(4)
H14 H -0.2129 0.1259 -0.0039
H15 H -0.0469 0.0694 0.0013
H16 H -0.163(7) 0.035(2) 0.152(3)
N1 N 0.4839(7) 0.3299(2) 0.1527(3)
N2 N 0.2161(6) 0.25401(17) 0.1666(3)
N3 N -0.0183(7) 0.26577(19) 0.2969(4)
N4 N -0.0326(6) 0.17705(17) 0.1881(3)
N5 N -0.2530(5) 0.06053(15) 0.1053(3)
O1 O 0.3477(5) 0.42282(13) 0.4188(2)
O2 O 0.6982(5) 0.50474(11) 0.3906(2)
O3 O 0.8546(7) 0.4840(2) 0.2525(3)
Ni1A Ni -0.5000 0.0000 0.0000
Ni1A_2 Ni 1.5000 1.0000 1.0000
C1B C 0.2859(7) 0.52717(19) 0.6920(4)
C2B C 0.4393(7) 0.58251(19) 0.7229(3)
C3B C 0.6092(6) 0.60255(18) 0.6652(3)
C4B C 0.7315(7) 0.65768(19) 0.7100(3)
C5B C 0.9120(8) 0.6825(2) 0.6690(4)
H1B H 0.9584 0.6603 0.6137
C6B C 0.9404(7) 0.7660(2) 0.7814(4)
C7B C 0.6832(7) 0.6917(2) 0.7976(4)
C8B C 0.4066(9) 0.6171(2) 0.8092(4)
H2B H 0.2983 0.6028 0.8456
C9B C 0.4549(11) 0.7044(3) 0.9413(6)
H3B H 0.2973 0.6986 0.9401
H4B H 0.4821 0.7490 0.9348
C10B C 0.5860(17) 0.6810(6) 1.0446(8)
H5B H 0.7399 0.6920 1.0501
H6B H 0.5319 0.6995 1.1039
H7B H 0.5722 0.6360 1.0473
C11B C 1.1716(9) 0.8569(2) 0.7481(4)
H8B H 1.2457 0.8269 0.7092
H9B H 1.0778 0.8836 0.6949
C12B C 1.3438(8) 0.8966(2) 0.8216(4)
H10B H 1.4224 0.9215 0.7767
H11B H 1.4517 0.8689 0.8657
C13B C 0.9354(7) 0.8640(2) 0.8819(4)
H12B H 0.8289 0.8920 0.8378
H13B H 0.8565 0.8389 0.9265
C14B C 1.1164(7) 0.9024(2) 0.9548(4)
H14B H 1.2129 0.8741 1.0039
H15B H 1.0469 0.9306 0.9987
H16B H 1.163(7) 0.965(2) 0.848(3)
N1B N 0.5161(7) 0.6701(2) 0.8473(3)
N2B N 0.7839(6) 0.74599(17) 0.8334(3)
N3B N 1.0183(7) 0.73423(19) 0.7031(4)
N4B N 1.0326(6) 0.82295(17) 0.8119(3)
N5B N 1.2530(5) 0.93947(15) 0.8947(3)
N5A N 0.2530(5) 0.56053(15) 0.3947(3)
N5C N 0.7470(5) 0.43947(15) 0.6053(3)
O1B O 0.6523(5) 0.57718(13) 0.5812(2)
O2B O 0.3018(5) 0.49526(11) 0.6094(2)
O3B O 0.1454(7) 0.5160(2) 0.7475(3)
loop_
_geom_bond_atom_site_label_1
_geom_bond_atom_site_label_2
_geom_bond_site_symmetry_1
_geom_bond_site_symmetry_2
Ni1 O1 1_555 1_555
C1 C2 1_555 1_555
C2 C3 1_555 1_555
C3 C4 1_555 1_555
C4 C5 1_555 1_555
C5 H1 1_555 1_555
C6 N2 1_555 1_555
C7 C4 1_555 1_555
C8 C2 1_555 1_555
H2 C8 1_555 1_555
C9 H3 1_555 1_555
H4 C9 1_555 1_555
C10 C9 1_555 1_555
H5 C10 1_555 1_555
H6 C10 1_555 1_555
H7 C10 1_555 1_555
C11 H8 1_555 1_555
H9 C11 1_555 1_555
C12 C11 1_555 1_555
H10 C12 1_555 1_555
H11 C12 1_555 1_555
C13 H12 1_555 1_555
H13 C13 1_555 1_555
C14 C13 1_555 1_555
H14 C14 1_555 1_555
H15 C14 1_555 1_555
H16 N5 1_555 1_555
N1 C7 1_555 1_555
N2 C7 1_555 1_555
N3 C5 1_555 1_555
N4 C6 1_555 1_555
N5 C12 1_555 1_555
O1 C3 1_555 1_555
O2 Ni1 1_555 1_555
O3 C1 1_555 1_555
Ni1A N5 1_555 1_555
Ni1A_2 N5B 1_555 1_555
C1B C2B 1_555 1_555
C2B C3B 1_555 1_555
C3B C4B 1_555 1_555
C4B C5B 1_555 1_555
C5B H1B 1_555 1_555
C6B N2B 1_555 1_555
C7B C4B 1_555 1_555
C8B C2B 1_555 1_555
H2B C8B 1_555 1_555
C9B H3B 1_555 1_555
H4B C9B 1_555 1_555
C10B C9B 1_555 1_555
H5B C10B 1_555 1_555
H6B C10B 1_555 1_555
H7B C10B 1_555 1_555
C11B H8B 1_555 1_555
H9B C11B 1_555 1_555
C12B C11B 1_555 1_555
H10B C12B 1_555 1_555
H11B C12B 1_555 1_555
C13B H12B 1_555 1_555
H13B C13B 1_555 1_555
C14B C13B 1_555 1_555
H14B C14B 1_555 1_555
H15B C14B 1_555 1_555
H16B N5B 1_555 1_555
N1B C7B 1_555 1_555
N2B C7B 1_555 1_555
N3B C5B 1_555 1_555
N4B C6B 1_555 1_555
N5B C12B 1_555 1_555
N5A Ni1 1_555 1_555
N5C Ni1 1_555 1_555
O1B Ni1 1_555 1_555
O2B Ni1 1_555 1_555
O3B C1B 1_555 1_555
C1 O2 1_555 1_555
C6 N3 1_555 1_555
C8 N1 1_555 1_555
C9 N1 1_555 1_555
C11 N4 1_555 1_555
C13 N4 1_555 1_555
C14 N5 1_555 1_555
C1B O2B 1_555 1_555
C3B O1B 1_555 1_555
C6B N3B 1_555 1_555
C8B N1B 1_555 1_555
C9B N1B 1_555 1_555
C11B N4B 1_555 1_555
C13B N4B 1_555 1_555
C14B N5B 1_555 1_555

#END
