
#######################################################################
#
#                 Cambridge Crystallographic Data Centre
#                                CCDC 
#
#######################################################################
#
# If this CIF has been generated from an entry in the Cambridge 
# Structural Database, then it will include bibliographic, chemical, 
# crystal, experimental, refinement or atomic coordinate data resulting 
# from the CCDC's data processing and validation procedures.
#
#######################################################################

data_DULVEM02
_symmetry_cell_setting           monoclinic
_symmetry_space_group_name_H-M   'C c'
_symmetry_Int_Tables_number      9
_space_group_name_Hall           'C -2yc'
loop_
_symmetry_equiv_pos_site_id
_symmetry_equiv_pos_as_xyz
1 x,y,z
2 x,-y,1/2+z
3 1/2+x,1/2+y,z
4 1/2+x,1/2-y,1/2+z
_cell_length_a                   7.4793(15)
_cell_length_b                   18.958(4)
_cell_length_c                   7.3132(15)
_cell_angle_alpha                90
_cell_angle_beta                 99.38(3)
_cell_angle_gamma                90
_cell_volume                     1023.09
loop_
_atom_site_label
_atom_site_type_symbol
_atom_site_fract_x
_atom_site_fract_y
_atom_site_fract_z
C1 C 0.0374(5) 0.31499(16) 0.7328(5)
Mg1 Mg 0.27803(17) 0.68932(5) 0.63242(17)
N1 N 0.0685(5) 0.61119(16) 0.6636(5)
O1 O 0.4341(4) 0.37137(14) 0.9882(4)
C2 C 0.0547(5) 0.39384(18) 0.7122(5)
O2 O 0.5053(4) 0.37908(15) 0.7091(4)
C3 C -0.0996(6) 0.43327(19) 0.6566(6)
H1 H -0.2122 0.4118 0.6251
N2 N -0.2035(5) 0.56124(16) 0.6119(6)
H2 H -0.3195 0.5576 0.5867
O3 O 0.1315(4) 0.28498(13) 0.8695(4)
C4 C -0.0816(5) 0.50606(19) 0.6490(5)
O4 O -0.0732(4) 0.28300(13) 0.6133(4)
C5 C 0.0881(5) 0.53924(18) 0.6830(5)
C6 C 0.2442(5) 0.49914(19) 0.7330(5)
H3 H 0.3580 0.5202 0.7530
C7 C 0.2253(5) 0.42744(17) 0.7521(5)
C8 C 0.3992(5) 0.38824(17) 0.8212(5)
C9 C -0.1076(6) 0.62167(18) 0.6225(6)
O5 O 0.4666(4) 0.65623(14) 0.8543(4)
H4 H 0.4577 0.6411 0.9604
H5 H 0.5359 0.6913 0.8607
O6 O 0.1385(5) 0.75033(14) 0.7976(5)
H6 H 0.0657 0.7343 0.8633
H7 H 0.1173 0.7928 0.7698
Mg1A Mg 0.27803(17) 0.31068(5) 1.13242(17)
Mg1B Mg -0.22197(17) 0.18932(5) 0.63242(17)
O1A O 0.4341(4) 0.62863(14) 0.4882(4)
O3A O 0.1315(4) 0.71502(13) 0.3695(4)
O4B O 0.4268(4) 0.78300(13) 0.6133(4)
loop_
_geom_bond_atom_site_label_1
_geom_bond_atom_site_label_2
_geom_bond_site_symmetry_1
_geom_bond_site_symmetry_2
C1 C2 1_555 1_555
Mg1 N1 1_555 1_555
N1 C5 1_555 1_555
O1 C8 1_555 1_555
C2 C3 1_555 1_555
O2 C8 1_555 1_555
C3 H1 1_555 1_555
N2 H2 1_555 1_555
O3 C1 1_555 1_555
C4 C3 1_555 1_555
O4 C1 1_555 1_555
C5 C4 1_555 1_555
C6 C5 1_555 1_555
H3 C6 1_555 1_555
C7 C2 1_555 1_555
C8 C7 1_555 1_555
C9 N1 1_555 1_555
O5 Mg1 1_555 1_555
H4 O5 1_555 1_555
H5 O5 1_555 1_555
O6 Mg1 1_555 1_555
H6 O6 1_555 1_555
H7 O6 1_555 1_555
Mg1A O1 1_555 1_555
Mg1B O4 1_555 1_555
O1A Mg1 1_555 1_555
O3A Mg1 1_555 1_555
O4B Mg1 1_555 1_555
N2 C4 1_555 1_555
N2 C9 1_555 1_555
O3 Mg1A 1_555 1_555
C6 C7 1_555 1_555

#END
