
#######################################################################
#
#                 Cambridge Crystallographic Data Centre
#                                CCDC 
#
#######################################################################
#
# If this CIF has been generated from an entry in the Cambridge 
# Structural Database, then it will include bibliographic, chemical, 
# crystal, experimental, refinement or atomic coordinate data resulting 
# from the CCDC's data processing and validation procedures.
#
#######################################################################

data_DUMBAP
_symmetry_cell_setting           orthorhombic
_symmetry_space_group_name_H-M   'P n a 21'
_symmetry_Int_Tables_number      33
_space_group_name_Hall           'P 2c -2n'
loop_
_symmetry_equiv_pos_site_id
_symmetry_equiv_pos_as_xyz
1 x,y,z
2 -x,-y,1/2+z
3 1/2+x,1/2-y,z
4 1/2-x,1/2+y,1/2+z
_cell_length_a                   20.253(4)
_cell_length_b                   10.732(2)
_cell_length_c                   17.228(3)
_cell_angle_alpha                90
_cell_angle_beta                 90
_cell_angle_gamma                90
_cell_volume                     3744.6
loop_
_atom_site_label
_atom_site_type_symbol
_atom_site_fract_x
_atom_site_fract_y
_atom_site_fract_z
Cu1 Cu 0.419363(19) 0.57242(3) 0.25910(3)
N1 N 0.35058(13) 0.4380(2) 0.27778(17)
C1 C 0.32045(18) 0.4283(3) 0.3466(2)
H1 H 0.3299 0.4871 0.3846
C2 C 0.27606(18) 0.3352(3) 0.3638(2)
H2 H 0.2559 0.3322 0.4123
C3 C 0.26177(16) 0.2469(3) 0.3089(2)
C4 C 0.29200(18) 0.2565(3) 0.2372(2)
H3 H 0.2833 0.1987 0.1983
C5 C 0.33519(18) 0.3531(3) 0.2245(2)
H4 H 0.3548 0.3596 0.1758
S1 S 0.20343(4) 0.13124(8) 0.33513(6)
S2 S 0.19610(4) 0.01528(8) 0.24265(6)
C6 C 0.29384(16) -0.3035(3) 0.2225(2)
H5 H 0.2874 -0.3766 0.1945
C7 C 0.24750(15) -0.2108(3) 0.2161(2)
H6 H 0.2110 -0.2204 0.1839
C8 C 0.25621(15) -0.1028(3) 0.2586(3)
C9 C 0.31050(16) -0.0918(3) 0.3058(2)
H7 H 0.3171 -0.0205 0.3356
C10 C 0.35480(16) -0.1884(3) 0.3081(2)
H8 H 0.3917 -0.1802 0.3398
N2 N 0.34792(11) -0.2942(2) 0.26704(19)
N3 N 0.48781(13) 0.4353(2) 0.23799(18)
C11 C 0.49242(17) 0.3287(3) 0.2780(2)
H9 H 0.4667 0.3192 0.3224
C12 C 0.53371(16) 0.2320(3) 0.2564(3)
H10 H 0.5361 0.1603 0.2866
C13 C 0.57126(15) 0.2425(3) 0.1901(2)
C14 C 0.56681(15) 0.3531(3) 0.1478(2)
H11 H 0.5912 0.3642 0.1026
C15 C 0.52524(16) 0.4454(3) 0.1747(2)
H12 H 0.5232 0.5195 0.1468
S3 S 0.62621(4) 0.12937(8) 0.15263(6)
S4 S 0.64454(4) 0.01289(8) 0.24275(6)
C16 C 0.48282(16) -0.1984(3) 0.1973(2)
H13 H 0.4458 -0.1968 0.1653
C17 C 0.52745(17) -0.1020(3) 0.1922(2)
H14 H 0.5204 -0.0364 0.1580
C18 C 0.58314(16) -0.1044(3) 0.2391(2)
C19 C 0.59177(16) -0.2049(3) 0.2884(2)
H15 H 0.6290 -0.2096 0.3200
C20 C 0.54505(16) -0.2978(3) 0.2905(2)
H16 H 0.5515 -0.3651 0.3236
N4 N 0.49040(12) -0.2948(2) 0.24643(19)
O1 O 0.40118(12) 0.5777(2) 0.11927(16)
H17 H 0.4278 0.5412 0.0925
H18 H 0.3717 0.6234 0.1060
O2 O 0.43965(13) 0.6061(2) 0.40149(16)
H19 H 0.4576 0.5521 0.4193
H20 H 0.4114 0.6375 0.4277
Cu1_2 Cu 0.419363(19) -0.42758(3) 0.25910(3)
N2_2 N 0.34792(11) 0.7058(2) 0.26704(19)
N4_2 N 0.49040(12) 0.7052(2) 0.24643(19)
O3 O 0.18807(13) 0.1902(3) 0.53050(18)
H21 H 0.2246 0.1603 0.5294
H22 H 0.1909 0.2582 0.5422
O4 O 0.69101(15) 0.9223(3) -0.0056(3)
O5 O 0.65614(15) 0.7585(4) 0.0559(2)
H23 H 0.6245 0.7070 0.0509
C21 C 0.6463(2) 0.8540(4) 0.0128(3)
C22 C 0.57687(18) 0.8814(3) -0.0151(2)
C23 C 0.52332(18) 0.7981(3) -0.0218(2)
C24 C 0.46327(19) 0.8428(4) -0.0462(2)
H24 H 0.4277 0.7885 -0.0499
C25 C 0.4545(2) 0.9676(4) -0.0656(3)
H25 H 0.4133 0.9961 -0.0816
C26 C 0.5070(2) 1.0483(4) -0.0610(3)
H26 H 0.5016 1.1318 -0.0740
C27 C 0.5675(2) 1.0050(3) -0.0370(2)
H27 H 0.6031 1.0597 -0.0354
C28 C 0.5238(3) 0.6591(4) -0.0040(3)
O6 O 0.56712(19) 0.6184(4) 0.0433(3)
O7 O 0.48227(18) 0.5928(3) -0.0343(3)
O8 O 0.30452(14) 0.5485(3) 0.52104(19)
H28 H 0.2702 0.5089 0.5380
O9 O 0.33393(14) 0.7296(3) 0.4778(2)
C29 C 0.2903(2) 0.6610(4) 0.5027(2)
C30 C 0.21993(17) 0.7079(3) 0.5099(2)
C31 C 0.16576(17) 0.6471(3) 0.5444(2)
C32 C 0.10515(19) 0.7074(4) 0.5451(2)
H29 H 0.0696 0.6688 0.5693
C33 C 0.0956(2) 0.8229(3) 0.5111(3)
H30 H 0.0540 0.8596 0.5105
C34 C 0.1488(2) 0.8823(4) 0.4782(3)
H31 H 0.1436 0.9605 0.4558
C35 C 0.2096(2) 0.8260(3) 0.4787(2)
H32 H 0.2453 0.8683 0.4573
C36 C 0.1630(2) 0.5172(4) 0.5815(3)
O10 O 0.11684(16) 0.4905(3) 0.6230(2)
O11 O 0.20996(16) 0.4401(3) 0.5653(2)
loop_
_geom_bond_atom_site_label_1
_geom_bond_atom_site_label_2
_geom_bond_site_symmetry_1
_geom_bond_site_symmetry_2
Cu1 N1 1_555 1_555
N1 C1 1_555 1_555
C1 H1 1_555 1_555
C2 C1 1_555 1_555
H2 C2 1_555 1_555
C3 C2 1_555 1_555
C4 C3 1_555 1_555
H3 C4 1_555 1_555
C5 N1 1_555 1_555
H4 C5 1_555 1_555
S1 C3 1_555 1_555
S2 S1 1_555 1_555
C6 H5 1_555 1_555
C7 C6 1_555 1_555
H6 C7 1_555 1_555
C8 S2 1_555 1_555
C9 C8 1_555 1_555
H7 C9 1_555 1_555
C10 C9 1_555 1_555
H8 C10 1_555 1_555
N2 C6 1_555 1_555
N3 Cu1 1_555 1_555
C11 N3 1_555 1_555
H9 C11 1_555 1_555
C12 C11 1_555 1_555
H10 C12 1_555 1_555
C13 C12 1_555 1_555
C14 C13 1_555 1_555
H11 C14 1_555 1_555
C15 N3 1_555 1_555
H12 C15 1_555 1_555
S3 C13 1_555 1_555
S4 S3 1_555 1_555
C16 H13 1_555 1_555
C17 C16 1_555 1_555
H14 C17 1_555 1_555
C18 S4 1_555 1_555
C19 C18 1_555 1_555
H15 C19 1_555 1_555
C20 C19 1_555 1_555
H16 C20 1_555 1_555
N4 C16 1_555 1_555
O1 Cu1 1_555 1_555
H17 O1 1_555 1_555
H18 O1 1_555 1_555
O2 Cu1 1_555 1_555
H19 O2 1_555 1_555
H20 O2 1_555 1_555
O3 H21 1_555 1_555
H22 O3 1_555 1_555
O4 C21 1_555 1_555
O5 H23 1_555 1_555
C21 O5 1_555 1_555
C22 C21 1_555 1_555
C23 C22 1_555 1_555
C24 C23 1_555 1_555
H24 C24 1_555 1_555
C25 C24 1_555 1_555
H25 C25 1_555 1_555
C26 C25 1_555 1_555
H26 C26 1_555 1_555
C27 C22 1_555 1_555
H27 C27 1_555 1_555
C28 C23 1_555 1_555
O6 C28 1_555 1_555
O7 C28 1_555 1_555
O8 H28 1_555 1_555
O9 C29 1_555 1_555
C29 O8 1_555 1_555
C30 C29 1_555 1_555
C31 C30 1_555 1_555
C32 C31 1_555 1_555
H29 C32 1_555 1_555
C33 C32 1_555 1_555
H30 C33 1_555 1_555
C34 C33 1_555 1_555
H31 C34 1_555 1_555
C35 C30 1_555 1_555
H32 C35 1_555 1_555
C36 C31 1_555 1_555
O10 C36 1_555 1_555
O11 C36 1_555 1_555
Cu1_2 N2 1_555 1_555
N2_2 Cu1 1_555 1_555
N4_2 Cu1 1_555 1_555
C4 C5 1_555 1_555
C7 C8 1_555 1_555
C10 N2 1_555 1_555
C14 C15 1_555 1_555
C17 C18 1_555 1_555
C20 N4 1_555 1_555
N4 Cu1_2 1_555 1_555
C26 C27 1_555 1_555
C34 C35 1_555 1_555

#END
