
#######################################################################
#
#                 Cambridge Crystallographic Data Centre
#                                CCDC 
#
#######################################################################
#
# If this CIF has been generated from an entry in the Cambridge 
# Structural Database, then it will include bibliographic, chemical, 
# crystal, experimental, refinement or atomic coordinate data resulting 
# from the CCDC's data processing and validation procedures.
#
#######################################################################

data_DUMDEV
_symmetry_cell_setting           monoclinic
_symmetry_space_group_name_H-M   'P 21/c'
_symmetry_Int_Tables_number      14
_space_group_name_Hall           '-P 2ybc'
loop_
_symmetry_equiv_pos_site_id
_symmetry_equiv_pos_as_xyz
1 x,y,z
2 -x,1/2+y,1/2-z
3 -x,-y,-z
4 x,1/2-y,1/2+z
_cell_length_a                   10.598(2)
_cell_length_b                   18.552(3)
_cell_length_c                   15.212(3)
_cell_angle_alpha                90
_cell_angle_beta                 108.835(2)
_cell_angle_gamma                90
_cell_volume                     2830.74
loop_
_atom_site_label
_atom_site_type_symbol
_atom_site_fract_x
_atom_site_fract_y
_atom_site_fract_z
Cu1 Cu 0.29363(5) 0.27588(3) 1.15749(4)
Cu2 Cu 0.48636(5) 0.28270(3) 1.03403(4)
N1 N 0.3225(3) 0.2599(2) 0.9378(3)
C1 C 0.0663(4) 0.2425(2) 0.8069(3)
C2 C -0.0770(4) 0.1880(2) 1.0032(3)
H1 H -0.1148 0.1422 0.9928
C3 C 0.1398(5) 0.5119(2) 1.2023(4)
C4 C -0.1511(4) 0.2477(2) 0.9594(3)
C5 C 0.2591(4) 0.3141(3) 0.8824(3)
H2 H 0.3019 0.3584 0.8882
C6 C 0.0413(4) 0.3181(2) 1.0374(3)
H3 H 0.0815 0.3632 1.0486
C7 C -0.0874(4) 0.3135(2) 0.9796(3)
H4 H -0.1327 0.3553 0.9535
C8 C 0.0513(4) 0.1966(2) 1.0613(3)
H5 H 0.0979 0.1559 1.0900
C9 C 0.2591(5) 0.1964(3) 0.9247(4)
H6 H 0.3024 0.1571 0.9596
C10 C 0.1331(4) 0.1861(3) 0.8623(3)
H7 H 0.0928 0.1411 0.8575
C11 C 0.2570(5) 0.5161(2) 1.1810(4)
C12 C 0.3775(6) 0.5171(3) 1.2524(5)
H8 H 0.4569 0.5201 1.2390
C13 C 0.3548(5) 0.5004(3) 1.0594(4)
H9 H 0.4340 0.5263 1.0956
H10 H 0.3364 0.5135 0.9947
C14 C 0.2614(9) 0.5098(3) 1.3627(4)
C15 C 0.1390(6) 0.5089(3) 1.2928(4)
H11 H 0.0596 0.5063 1.3063
C16 C 0.3796(8) 0.5138(3) 1.3432(5)
H12 H 0.4604 0.5143 1.3913
N2 N 0.1127(3) 0.26020(19) 1.0789(2)
C17 C 0.3819(4) 0.4199(2) 1.0702(3)
O1 O 0.3150(3) 0.38364(16) 1.1069(2)
O2 O 0.2440(3) 0.52203(18) 1.0888(3)
Cl1 Cl -0.01198(13) 0.51063(8) 1.11418(11)
Cl2 Cl 0.2599(3) 0.50305(12) 1.47790(13)
O3 O 0.4707(3) 0.39830(17) 1.0396(2)
C18 C 0.1347(4) 0.3077(2) 0.8176(3)
H13 H 0.0960 0.3470 0.7808
C19 C -0.0720(4) 0.2359(2) 0.7422(3)
C20 C -0.2888(4) 0.2414(2) 0.8933(3)
C21 C -0.1299(4) 0.1708(2) 0.7098(3)
H14 H -0.0817 0.1284 0.7282
C22 C -0.3701(4) 0.3011(2) 0.8646(3)
H15 H -0.3415 0.3458 0.8915
C23 C -0.3419(4) 0.1766(2) 0.8556(3)
H16 H -0.2936 0.1343 0.8746
C24 C -0.1522(4) 0.2960(2) 0.7132(4)
H17 H -0.1193 0.3414 0.7348
C25 C -0.4926(4) 0.2953(2) 0.7970(3)
H18 H -0.5433 0.3368 0.7779
C26 C -0.4666(4) 0.1739(2) 0.7894(3)
H19 H -0.5002 0.1292 0.7657
C27 C -0.2593(4) 0.1678(2) 0.6498(3)
H20 H -0.2959 0.1229 0.6292
C28 C -0.2795(5) 0.2893(2) 0.6530(4)
H21 H -0.3299 0.3309 0.6343
N3 N -0.5420(3) 0.23224(18) 0.7575(2)
N4 N -0.3348(3) 0.22657(18) 0.6199(3)
Cu1C Cu -0.70637(5) 0.22412(3) 0.65749(4)
Cu2C Cu -0.51364(5) 0.21730(3) 0.53403(4)
N3C N 0.4580(3) 0.26776(18) 1.2575(2)
N4C N 0.6652(3) 0.27343(18) 1.1199(3)
N5 N 0.2506(5) 0.4773(4) 0.7132(5)
O4 O 0.2775(8) 0.4203(3) 0.6898(5)
O5 O 0.1538(8) 0.5055(6) 0.6659(6)
O6 O 0.3168(8) 0.5019(6) 0.7763(9)
loop_
_geom_bond_atom_site_label_1
_geom_bond_atom_site_label_2
_geom_bond_site_symmetry_1
_geom_bond_site_symmetry_2
Cu1 N2 1_555 1_555
Cu2 N1 1_555 1_555
N1 C5 1_555 1_555
C1 C10 1_555 1_555
C2 H1 1_555 1_555
C3 C11 1_555 1_555
C4 C2 1_555 1_555
C5 H2 1_555 1_555
C6 H3 1_555 1_555
C7 C4 1_555 1_555
H4 C7 1_555 1_555
C8 C2 1_555 1_555
H5 C8 1_555 1_555
C9 N1 1_555 1_555
H6 C9 1_555 1_555
C10 C9 1_555 1_555
H7 C10 1_555 1_555
C11 C12 1_555 1_555
C12 H8 1_555 1_555
C13 H9 1_555 1_555
H10 C13 1_555 1_555
C14 C15 1_555 1_555
C15 C3 1_555 1_555
H11 C15 1_555 1_555
C16 C12 1_555 1_555
H12 C16 1_555 1_555
N2 C6 1_555 1_555
C17 C13 1_555 1_555
O1 Cu1 1_555 1_555
O2 C11 1_555 1_555
Cl1 C3 1_555 1_555
Cl2 C14 1_555 1_555
O3 Cu2 1_555 1_555
C18 C1 1_555 1_555
H13 C18 1_555 1_555
C19 C1 1_555 1_555
C20 C4 1_555 1_555
C21 C19 1_555 1_555
H14 C21 1_555 1_555
C22 C20 1_555 1_555
H15 C22 1_555 1_555
C23 C20 1_555 1_555
H16 C23 1_555 1_555
C24 C19 1_555 1_555
H17 C24 1_555 1_555
C25 C22 1_555 1_555
H18 C25 1_555 1_555
C26 C23 1_555 1_555
H19 C26 1_555 1_555
C27 C21 1_555 1_555
H20 C27 1_555 1_555
C28 C24 1_555 1_555
H21 C28 1_555 1_555
N3 C25 1_555 1_555
N4 C27 1_555 1_555
N5 O4 1_555 1_555
O5 N5 1_555 1_555
O6 N5 1_555 1_555
Cu1C N3 1_555 1_555
Cu2C N4 1_555 1_555
N3C Cu1 1_555 1_555
N4C Cu2 1_555 1_555
C5 C18 1_555 1_555
C6 C7 1_555 1_555
C8 N2 1_555 1_555
C13 O2 1_555 1_555
C14 C16 1_555 1_555
C17 O1 1_555 1_555
C17 O3 1_555 1_555
C26 N3 1_555 1_555
C28 N4 1_555 1_555

#END
