
#######################################################################
#
#                 Cambridge Crystallographic Data Centre
#                                CCDC 
#
#######################################################################
#
# If this CIF has been generated from an entry in the Cambridge 
# Structural Database, then it will include bibliographic, chemical, 
# crystal, experimental, refinement or atomic coordinate data resulting 
# from the CCDC's data processing and validation procedures.
#
#######################################################################

data_DUMGEZ
_symmetry_cell_setting           tetragonal
_symmetry_space_group_name_H-M   'P 42/m b c'
_symmetry_Int_Tables_number      135
_space_group_name_Hall           '-P 4c 2ab'
loop_
_symmetry_equiv_pos_site_id
_symmetry_equiv_pos_as_xyz
1 x,y,z
2 -x,-y,z
3 -y,x,1/2+z
4 y,-x,1/2+z
5 1/2-x,1/2+y,-z
6 1/2+x,1/2-y,-z
7 1/2+y,1/2+x,1/2-z
8 1/2-y,1/2-x,1/2-z
9 -x,-y,-z
10 x,y,-z
11 y,-x,1/2-z
12 -y,x,1/2-z
13 1/2+x,1/2-y,z
14 1/2-x,1/2+y,z
15 1/2-y,1/2-x,1/2+z
16 1/2+y,1/2+x,1/2+z
_cell_length_a                   10.8092(15)
_cell_length_b                   10.8092(15)
_cell_length_c                   12.501(3)
_cell_angle_alpha                90
_cell_angle_beta                 90
_cell_angle_gamma                90
_cell_volume                     1460.6
loop_
_atom_site_label
_atom_site_type_symbol
_atom_site_fract_x
_atom_site_fract_y
_atom_site_fract_z
C1 C 0.9807(6) 0.2014(6) 0.3599(5)
C2 C 0.8500(7) 0.1882(7) 0.3995(5)
H1 H 0.8154 0.2694 0.4133
H2 H 0.8000 0.1484 0.3451
C3 C 0.9983(9) 0.4273(8) 0.0000
N1 N 0.8470(7) 0.1127(7) 0.5000
H3 H 0.7869(16) 0.062(3) 0.5000
O1 O 1.0582(4) 0.1185(4) 0.3897(4)
O2 O 1.0099(5) 0.2892(4) 0.2996(3)
O3 O 0.9962(5) 0.3763(4) 0.0892(3)
Cr1 Cr 1.0000 0.0000 0.5000
Gd1 Gd 1.0000 0.5000 0.2500
C1I C 0.9807(6) 0.2014(6) 0.6401(5)
C2I C 0.8500(7) 0.1882(7) 0.6005(5)
H1I H 0.8154 0.2694 0.5867
H2I H 0.8000 0.1484 0.6549
O1I O 1.0582(4) 0.1185(4) 0.6103(4)
O2I O 1.0099(5) 0.2892(4) 0.7004(3)
C3A C 1.0017(9) 0.5727(8) 0.0000
O3A O 1.0038(5) 0.6237(4) 0.0892(3)
O3H O 1.0038(5) 0.6237(4) -0.0892(3)
O3I O 0.9962(5) 0.3763(4) -0.0892(3)
C1A C 1.0193(6) -0.2014(6) 0.3599(5)
C2A C 1.1500(7) -0.1882(7) 0.3995(5)
H1A H 1.1846 -0.2694 0.4133
H2A H 1.2000 -0.1484 0.3451
N1A N 1.1530(7) -0.1127(7) 0.5000
H3A H 1.2131(16) -0.062(3) 0.5000
O1A O 0.9418(4) -0.1185(4) 0.3897(4)
O2A O 0.9901(5) -0.2892(4) 0.2996(3)
C1H C 1.0193(6) -0.2014(6) 0.6401(5)
C2H C 1.1500(7) -0.1882(7) 0.6005(5)
H1H H 1.1846 -0.2694 0.5867
H2H H 1.2000 -0.1484 0.6549
O1H O 0.9418(4) -0.1185(4) 0.6103(4)
O2H O 0.9901(5) -0.2892(4) 0.7004(3)
O2A_2 O 0.9901(5) 0.7108(4) 0.2996(3)
O2F O 0.7892(4) 0.5099(5) 0.2004(3)
O2G O 1.2108(4) 0.4901(5) 0.2004(3)
O3F O 0.8763(4) 0.4962(5) 0.4108(3)
O3G O 1.1237(4) 0.5038(5) 0.4108(3)
Gd1_2 Gd 1.0000 -0.5000 0.2500
Gd1H Gd 1.0000 -0.5000 0.7500
Gd1H_2 Gd 1.0000 0.5000 -0.2500
Gd1H_3 Gd 1.0000 0.5000 0.7500
loop_
_geom_bond_atom_site_label_1
_geom_bond_atom_site_label_2
_geom_bond_site_symmetry_1
_geom_bond_site_symmetry_2
C1 C2 1_555 1_555
C2 H1 1_555 1_555
H2 C2 1_555 1_555
C3 O3 1_555 1_555
N1 C2 1_555 1_555
H3 N1 1_555 1_555
O1 C1 1_555 1_555
O2 C1 1_555 1_555
O3 Gd1 1_555 1_555
Cr1 N1 1_555 1_555
Gd1 O2 1_555 1_555
C1I C2I 1_555 1_555
C2I N1 1_555 1_555
H1I C2I 1_555 1_555
H2I C2I 1_555 1_555
O1I Cr1 1_555 1_555
O2I C1I 1_555 1_555
C3A C3 1_555 1_555
O3A Gd1 1_555 1_555
O3H C3A 1_555 1_555
O3I C3 1_555 1_555
C1A C2A 1_555 1_555
C2A H1A 1_555 1_555
H2A C2A 1_555 1_555
N1A Cr1 1_555 1_555
H3A N1A 1_555 1_555
O1A Cr1 1_555 1_555
O2A C1A 1_555 1_555
C1H C2H 1_555 1_555
C2H N1A 1_555 1_555
H1H C2H 1_555 1_555
H2H C2H 1_555 1_555
O1H Cr1 1_555 1_555
O2H C1H 1_555 1_555
O2A_2 Gd1 1_555 1_555
O2F Gd1 1_555 1_555
O2G Gd1 1_555 1_555
O3F Gd1 1_555 1_555
O3G Gd1 1_555 1_555
Gd1_2 O2A 1_555 1_555
Gd1H O2H 1_555 1_555
Gd1H_2 O3H 1_555 1_555
Gd1H_3 O2I 1_555 1_555
O1 Cr1 1_555 1_555
C1I O1I 1_555 1_555
C3A O3A 1_555 1_555
O3I Gd1H_2 1_555 1_555
C1A O1A 1_555 1_555
C2A N1A 1_555 1_555
C1H O1H 1_555 1_555

#END
