
#######################################################################
#
#                 Cambridge Crystallographic Data Centre
#                                CCDC 
#
#######################################################################
#
# If this CIF has been generated from an entry in the Cambridge 
# Structural Database, then it will include bibliographic, chemical, 
# crystal, experimental, refinement or atomic coordinate data resulting 
# from the CCDC's data processing and validation procedures.
#
#######################################################################

data_DUMHUP
_symmetry_cell_setting           monoclinic
_symmetry_space_group_name_H-M   'P 21/c'
_symmetry_Int_Tables_number      14
_space_group_name_Hall           '-P 2ybc'
loop_
_symmetry_equiv_pos_site_id
_symmetry_equiv_pos_as_xyz
1 x,y,z
2 -x,1/2+y,1/2-z
3 -x,-y,-z
4 x,1/2-y,1/2+z
_cell_length_a                   8.9935(3)
_cell_length_b                   13.9783(5)
_cell_length_c                   9.8459(4)
_cell_angle_alpha                90
_cell_angle_beta                 117.0070(10)
_cell_angle_gamma                90
_cell_volume                     1102.79
loop_
_atom_site_label
_atom_site_type_symbol
_atom_site_fract_x
_atom_site_fract_y
_atom_site_fract_z
Zn1 Zn -0.22304(3) -0.390330(15) 0.23367(2)
S1 S -0.18464(6) -0.27535(3) 0.52650(5)
C1 C -0.0709(2) -0.52076(13) 0.5096(2)
C2 C -0.1603(3) -0.61575(14) 0.6454(2)
H1 H -0.1385 -0.6551 0.7285
C3 C -0.3236(3) -0.59940(15) 0.5389(3)
H2 H -0.4122 -0.6278 0.5478
C4 C -0.3499(2) -0.53964(15) 0.4197(2)
H3 H -0.4588 -0.5265 0.3478
C5 C -0.5578(2) -0.46436(13) 0.0071(2)
C6 C -0.8241(2) -0.41286(15) -0.0698(2)
H4 H -0.9385 -0.4198 -0.1296
C7 C -0.7650(3) -0.33700(16) 0.0306(2)
H5 H -0.8374 -0.2922 0.0381
C8 C -0.5949(3) -0.33008(15) 0.1193(2)
H6 H -0.5520 -0.2798 0.1882
N1 N -0.22310(19) -0.49954(12) 0.40355(18)
N2 N 0.03267(19) -0.42423(12) 0.36912(18)
N3 N -0.4894(2) -0.39443(11) 0.10833(19)
N4 N -0.2798(2) -0.52321(12) 0.08307(18)
O1 O -0.21846(19) -0.27641(10) 0.36342(16)
O2 O -0.18336(19) -0.17157(10) 0.56562(16)
O3 O -0.3181(2) -0.32456(12) 0.54284(19)
O4 O -0.02203(19) -0.31623(12) 0.62188(17)
Zn1C Zn -0.22304(3) -0.109670(15) 0.73367(2)
Zn1B Zn 0.22304(3) -0.609670(15) 0.76633(2)
Zn1B_2 Zn -0.77696(3) -0.609670(15) -0.23367(2)
Zn1A Zn -0.77696(3) -0.890330(15) -0.73367(2)
S1B S -0.81536(6) -0.72465(3) -0.52650(5)
C1B C 0.0709(2) -0.47924(13) 0.4904(2)
C2B C 0.1603(3) -0.38425(14) 0.3546(2)
H1B H 0.1385 -0.3449 0.2715
C3B C 0.3236(3) -0.40060(15) 0.4611(3)
H2B H 0.4122 -0.3722 0.4522
C4B C 0.3499(2) -0.46036(15) 0.5803(2)
H3B H 0.4588 -0.4735 0.6522
C5B C -0.4422(2) -0.53564(13) -0.0071(2)
C6B C -0.1759(2) -0.58714(15) 0.0698(2)
H4B H -0.0615 -0.5802 0.1296
C7B C -0.2350(3) -0.66300(16) -0.0306(2)
H5B H -0.1626 -0.7078 -0.0381
C8B C -0.4051(3) -0.66992(15) -0.1193(2)
H6B H -0.4480 -0.7202 -0.1882
N1B N 0.22310(19) -0.50046(12) 0.59645(18)
N1B_2 N -0.77690(19) -0.50046(12) -0.40355(18)
N2B N -0.03267(19) -0.57577(12) 0.63088(18)
N2B_2 N -1.03267(19) -0.57577(12) -0.36912(18)
N3B N -0.5106(2) -0.60557(11) -0.10833(19)
N4B N -0.7202(2) -0.47679(12) -0.08307(18)
O1B O -0.78154(19) -0.72359(10) -0.36342(16)
O2C O -0.18336(19) -0.32843(10) 0.06562(16)
O2A O -0.81664(19) -0.67157(10) -0.06562(16)
O2B O -0.81664(19) -0.82843(10) -0.56562(16)
O3B O -0.6819(2) -0.67544(12) -0.54284(19)
O4B O -0.97797(19) -0.68377(12) -0.62188(17)
O5 O -0.2490(2) -0.44195(14) 0.7998(2)
H7 H -0.253(3) -0.4055(17) 0.738(3)
H8 H -0.231(4) -0.4069(19) 0.867(3)
loop_
_geom_bond_atom_site_label_1
_geom_bond_atom_site_label_2
_geom_bond_site_symmetry_1
_geom_bond_site_symmetry_2
Zn1 N1 1_555 1_555
S1 O1 1_555 1_555
C1 N1 1_555 1_555
C2 H1 1_555 1_555
C3 C2 1_555 1_555
H2 C3 1_555 1_555
C4 C3 1_555 1_555
H3 C4 1_555 1_555
C5 N3 1_555 1_555
C6 H4 1_555 1_555
C7 C6 1_555 1_555
H5 C7 1_555 1_555
C8 C7 1_555 1_555
H6 C8 1_555 1_555
N1 C4 1_555 1_555
N2 Zn1 1_555 1_555
N3 Zn1 1_555 1_555
N4 Zn1 1_555 1_555
O1 Zn1 1_555 1_555
O2 S1 1_555 1_555
O3 S1 1_555 1_555
O4 S1 1_555 1_555
O5 H7 1_555 1_555
H8 O5 1_555 1_555
Zn1C O2 1_555 1_555
Zn1B N1B 1_555 1_555
Zn1B_2 N1B_2 1_555 1_555
Zn1A O2B 1_555 1_555
S1B O1B 1_555 1_555
C1B C1 1_555 1_555
C2B N2 1_555 1_555
H1B C2B 1_555 1_555
C3B C2B 1_555 1_555
H2B C3B 1_555 1_555
C4B C3B 1_555 1_555
H3B C4B 1_555 1_555
C5B C5 1_555 1_555
C6B N4 1_555 1_555
H4B C6B 1_555 1_555
C7B C6B 1_555 1_555
H5B C7B 1_555 1_555
C8B C7B 1_555 1_555
H6B C8B 1_555 1_555
N1B C1B 1_555 1_555
N2B C1 1_555 1_555
N2B_2 Zn1B_2 1_555 1_555
N3B Zn1B_2 1_555 1_555
N4B C5 1_555 1_555
O1B Zn1B_2 1_555 1_555
O2C Zn1 1_555 1_555
O2A Zn1B_2 1_555 1_555
O2B S1B 1_555 1_555
O3B S1B 1_555 1_555
O4B S1B 1_555 1_555
C2 N2B 1_555 1_555
C6 N4B 1_555 1_555
C8 N3 1_555 1_555
N2 C1B 1_555 1_555
N4 C5B 1_555 1_555
Zn1B N2B 1_555 1_555
Zn1B_2 N4B 1_555 1_555
C4B N1B 1_555 1_555
C5B N3B 1_555 1_555
C8B N3B 1_555 1_555

#END
