
#######################################################################
#
#                 Cambridge Crystallographic Data Centre
#                                CCDC 
#
#######################################################################
#
# If this CIF has been generated from an entry in the Cambridge 
# Structural Database, then it will include bibliographic, chemical, 
# crystal, experimental, refinement or atomic coordinate data resulting 
# from the CCDC's data processing and validation procedures.
#
#######################################################################

data_DUNBOF
_symmetry_cell_setting           monoclinic
_symmetry_space_group_name_H-M   'P 21/c'
_symmetry_Int_Tables_number      14
_space_group_name_Hall           '-P 2ybc'
loop_
_symmetry_equiv_pos_site_id
_symmetry_equiv_pos_as_xyz
1 x,y,z
2 -x,1/2+y,1/2-z
3 -x,-y,-z
4 x,1/2-y,1/2+z
_cell_length_a                   10.162(4)
_cell_length_b                   25.868(9)
_cell_length_c                   9.658(3)
_cell_angle_alpha                90
_cell_angle_beta                 114.964(4)
_cell_angle_gamma                90
_cell_volume                     2301.61
loop_
_atom_site_label
_atom_site_type_symbol
_atom_site_fract_x
_atom_site_fract_y
_atom_site_fract_z
Au1 Au 0.13803(11) 0.38958(5) 0.20502(11)
Cd1 Cd 0.63658(17) 0.39309(8) 0.69884(18)
N1 N 0.488(2) 0.4511(10) 0.756(2)
C1 C 0.492(3) 0.5022(13) 0.755(3)
H1 H 0.5634 0.5189 0.7309
Au2 Au 0.92121(12) 0.54361(5) 0.56455(11)
N2 N 0.482(2) 0.3448(10) 0.767(2)
C2 C 0.397(3) 0.5319(13) 0.788(3)
H2 H 0.4001 0.5685 0.7817
N3 N 0.675(2) 0.3021(9) 0.691(2)
C3 C 0.294(3) 0.5082(14) 0.832(3)
H3 H 0.2297 0.5289 0.8562
N4 N 0.467(2) 0.3856(9) 0.447(2)
C4 C 0.289(3) 0.4547(15) 0.839(3)
C5 C 0.389(3) 0.4276(13) 0.804(2)
N5 N -0.173(2) 0.3916(9) -0.058(2)
C6 C 0.391(3) 0.3706(13) 0.809(2)
N6 N 0.757(2) 0.4518(10) 0.633(2)
C7 C 0.286(4) 0.3446(16) 0.839(4)
N7 N 1.038(4) 0.6453(14) 0.500(4)
C8 C 0.185(4) 0.3715(16) 0.873(4)
H4 H 0.1158 0.3532 0.8966
C9 C 0.185(4) 0.4245(16) 0.873(4)
H5 H 0.1149 0.4423 0.8959
C10 C 0.823(2) 0.4871(11) 0.608(3)
C11 C -0.061(2) 0.3926(10) 0.039(2)
C12 C 0.348(3) 0.3852(12) 0.356(3)
C13 C 0.769(3) 0.2829(13) 0.646(3)
H6 H 0.8228 0.3067 0.6148
C14 C 0.799(4) 0.2293(13) 0.639(3)
H7 H 0.8683 0.2167 0.6056
C15 C 0.710(4) 0.1957(14) 0.688(4)
H8 H 0.7264 0.1594 0.6908
C16 C 0.605(3) 0.2139(13) 0.730(3)
H9 H 0.5471 0.1921 0.7610
C17 C 0.592(3) 0.2715(13) 0.723(3)
C18 C 0.487(3) 0.2949(13) 0.771(3)
C19 C 0.388(3) 0.2569(15) 0.811(3)
H10 H 0.3937 0.2203 0.8193
C20 C 0.289(4) 0.2904(16) 0.833(4)
H11 H 0.2115 0.2736 0.8458
C21 C 1.001(4) 0.6050(15) 0.526(3)
Au1B Au 0.86197(11) 0.61042(5) 0.79498(11)
Cd1_2 Cd -0.36342(17) 0.39309(8) -0.30116(18)
Au2B Au 0.07879(12) 0.45639(5) 0.43545(11)
N5_2 N 0.827(2) 0.3916(9) 0.942(2)
loop_
_geom_bond_atom_site_label_1
_geom_bond_atom_site_label_2
_geom_bond_site_symmetry_1
_geom_bond_site_symmetry_2
Au1 C11 1_555 1_555
Cd1 N1 1_555 1_555
N1 C1 1_555 1_555
C1 H1 1_555 1_555
Au2 C10 1_555 1_555
N2 Cd1 1_555 1_555
C2 C1 1_555 1_555
H2 C2 1_555 1_555
N3 Cd1 1_555 1_555
C3 C2 1_555 1_555
H3 C3 1_555 1_555
N4 Cd1 1_555 1_555
C4 C3 1_555 1_555
C5 N1 1_555 1_555
N5 C11 1_555 1_555
C6 N2 1_555 1_555
N6 Cd1 1_555 1_555
C7 C6 1_555 1_555
N7 C21 1_555 1_555
C8 C7 1_555 1_555
H4 C8 1_555 1_555
C9 C4 1_555 1_555
H5 C9 1_555 1_555
C10 N6 1_555 1_555
C12 Au1 1_555 1_555
C13 N3 1_555 1_555
H6 C13 1_555 1_555
C14 C13 1_555 1_555
H7 C14 1_555 1_555
C15 C14 1_555 1_555
H8 C15 1_555 1_555
C16 C15 1_555 1_555
H9 C16 1_555 1_555
C17 N3 1_555 1_555
C18 N2 1_555 1_555
C19 C18 1_555 1_555
H10 C19 1_555 1_555
C20 C7 1_555 1_555
H11 C20 1_555 1_555
C21 Au2 1_555 1_555
Au1B Au2 1_555 1_555
Cd1_2 N5 1_555 1_555
Au2B Au1 1_555 1_555
N5_2 Cd1 1_555 1_555
N4 C12 1_555 1_555
C4 C5 1_555 1_555
C5 C6 1_555 1_555
C8 C9 1_555 1_555
C16 C17 1_555 1_555
C17 C18 1_555 1_555
C19 C20 1_555 1_555

#END
