
#######################################################################
#
#                 Cambridge Crystallographic Data Centre
#                                CCDC 
#
#######################################################################
#
# If this CIF has been generated from an entry in the Cambridge 
# Structural Database, then it will include bibliographic, chemical, 
# crystal, experimental, refinement or atomic coordinate data resulting 
# from the CCDC's data processing and validation procedures.
#
#######################################################################

data_DUPDOJ
_symmetry_cell_setting           triclinic
_symmetry_space_group_name_H-M   'P -1'
_symmetry_Int_Tables_number      2
_space_group_name_Hall           '-P 1'
loop_
_symmetry_equiv_pos_site_id
_symmetry_equiv_pos_as_xyz
1 x,y,z
2 -x,-y,-z
_cell_length_a                   7.0589(2)
_cell_length_b                   10.1784(2)
_cell_length_c                   12.1987(3)
_cell_angle_alpha                69.7250(10)
_cell_angle_beta                 88.0510(10)
_cell_angle_gamma                73.2990(10)
_cell_volume                     785.37
loop_
_atom_site_label
_atom_site_type_symbol
_atom_site_fract_x
_atom_site_fract_y
_atom_site_fract_z
C1 C 0.6234(4) 0.0706(3) 0.7814(2)
N1 N 0.7078(4) -0.0501(3) 0.8205(2)
Ag1 Ag 0.96749(2) -0.268619(17) 0.777024(12)
C2 C 1.0135(3) -0.2810(2) 0.52794(19)
H1 H 1.0990 -0.3758 0.5701
C3 C 0.9950(3) -0.2350(2) 0.40701(19)
H2 H 1.0633 -0.2978 0.3670
C4 C 0.8742(3) -0.0946(2) 0.34529(16)
C5 C 0.7695(3) -0.0089(2) 0.40722(17)
H3 H 0.6836 0.0865 0.3672
C6 C 0.7928(3) -0.0650(2) 0.52796(18)
H4 H 0.7183 -0.0071 0.5702
C7 C 0.8612(3) -0.0393(2) 0.21447(17)
C8 C 0.7852(3) 0.1744(2) 0.04502(17)
H5 H 0.6815 0.1481 0.0117
H6 H 0.9119 0.1413 0.0114
C9 C 0.7278(3) 0.3376(2) 0.01732(17)
H7 H 0.6800 0.3876 -0.0664
H8 H 0.6162 0.3649 0.0643
C10 C 1.0399(3) 0.3856(2) -0.04746(16)
H9 H 0.9740 0.4398 -0.1273
H10 H 1.1026 0.2823 -0.0403
C11 C 0.8027(3) 0.5481(2) 0.02911(16)
H11 H 0.7031 0.5547 0.0876
H12 H 0.7342 0.6045 -0.0498
C12 C 0.5177(4) 0.2258(3) 0.7299(3)
H13 H 0.5951 0.2831 0.7473
H14 H 0.3884 0.2456 0.7629
H15 H 0.4983 0.2534 0.6449
N2 N 0.9160(3) -0.1976(2) 0.58841(14)
N3 N 0.8904(2) 0.39221(18) 0.04052(13)
O1 O 0.8972(3) -0.11643(19) 0.15658(14)
O2 O 0.8056(2) 0.10654(16) 0.17121(12)
C2A C 0.9865(3) 1.2810(2) -0.52794(19)
H1A H 0.9010 1.3758 -0.5701
C3A C 1.0050(3) 1.2350(2) -0.40701(19)
H2A H 0.9367 1.2978 -0.3670
C4A C 1.1258(3) 1.0946(2) -0.34529(16)
C5A C 1.2305(3) 1.0089(2) -0.40722(17)
H3A H 1.3164 0.9135 -0.3672
C6A C 1.2072(3) 1.0650(2) -0.52796(18)
H4A H 1.2817 1.0071 -0.5702
C7A C 1.1388(3) 1.0393(2) -0.21447(17)
C8A C 1.2148(3) 0.8256(2) -0.04502(17)
H5A H 1.3185 0.8519 -0.0117
H6A H 1.0881 0.8587 -0.0114
C9A C 1.2722(3) 0.6624(2) -0.01732(17)
H7A H 1.3200 0.6124 0.0664
H8A H 1.3838 0.6351 -0.0643
C10A C 0.9601(3) 0.6144(2) 0.04746(16)
H9A H 1.0260 0.5602 0.1273
H10A H 0.8974 0.7177 0.0403
C11A C 1.1973(3) 0.4519(2) -0.02911(16)
H11A H 1.2969 0.4453 -0.0876
H12A H 1.2658 0.3955 0.0498
N2A N 1.0840(3) 1.1976(2) -0.58841(14)
N3A N 1.1096(2) 0.60779(18) -0.04052(13)
O1A O 1.1028(3) 1.11643(19) -0.15658(14)
O2A O 1.1944(2) 0.89346(16) -0.17121(12)
C1A C 1.3766(4) -0.0706(3) 0.2186(2)
N1A N 1.2922(4) 0.0501(3) 0.1795(2)
Ag1A Ag 1.03251(2) 0.268619(17) 0.222976(12)
C12A C 1.4823(4) -0.2258(3) 0.2701(3)
H13A H 1.4049 -0.2831 0.2527
H14A H 1.6116 -0.2456 0.2371
H15A H 1.5017 -0.2534 0.3551
Ag1_2 Ag 0.96749(2) 0.731381(17) -0.222976(12)
Ag1A_2 Ag 1.03251(2) 1.268619(17) -0.777024(12)
N2A_2 N 1.0840(3) 0.1976(2) 0.41159(14)
N3A_2 N 1.1096(2) -0.39221(18) 0.95948(13)
F1 F 0.4930(3) 0.29615(18) 0.43836(12)
F2 F 0.2733(2) 0.50189(18) 0.31450(17)
F3 F 0.4190(2) 0.31290(18) 0.25445(13)
F4 F 0.6006(2) 0.45014(19) 0.28338(15)
B1 B 0.4452(4) 0.3907(3) 0.3243(2)
loop_
_geom_bond_atom_site_label_1
_geom_bond_atom_site_label_2
_geom_bond_site_symmetry_1
_geom_bond_site_symmetry_2
C1 N1 1_555 1_555
N1 Ag1 1_555 1_555
Ag1 N2 1_555 1_555
C2 H1 1_555 1_555
C3 C2 1_555 1_555
H2 C3 1_555 1_555
C4 C3 1_555 1_555
C5 C4 1_555 1_555
H3 C5 1_555 1_555
C6 C5 1_555 1_555
H4 C6 1_555 1_555
C7 C4 1_555 1_555
C8 H5 1_555 1_555
H6 C8 1_555 1_555
C9 C8 1_555 1_555
H7 C9 1_555 1_555
H8 C9 1_555 1_555
C10 H9 1_555 1_555
H10 C10 1_555 1_555
C11 H11 1_555 1_555
H12 C11 1_555 1_555
C12 C1 1_555 1_555
H13 C12 1_555 1_555
H14 C12 1_555 1_555
H15 C12 1_555 1_555
N2 C2 1_555 1_555
N3 C9 1_555 1_555
O1 C7 1_555 1_555
O2 C7 1_555 1_555
F1 B1 1_555 1_555
F2 B1 1_555 1_555
F3 B1 1_555 1_555
F4 B1 1_555 1_555
C2A H1A 1_555 1_555
C3A C2A 1_555 1_555
H2A C3A 1_555 1_555
C4A C3A 1_555 1_555
C5A C4A 1_555 1_555
H3A C5A 1_555 1_555
C6A C5A 1_555 1_555
H4A C6A 1_555 1_555
C7A C4A 1_555 1_555
C8A H5A 1_555 1_555
H6A C8A 1_555 1_555
C9A C8A 1_555 1_555
H7A C9A 1_555 1_555
H8A C9A 1_555 1_555
C10A C11 1_555 1_555
H9A C10A 1_555 1_555
H10A C10A 1_555 1_555
C11A C10 1_555 1_555
H11A C11A 1_555 1_555
H12A C11A 1_555 1_555
N2A C2A 1_555 1_555
N3A C9A 1_555 1_555
O1A C7A 1_555 1_555
O2A C7A 1_555 1_555
C1A N1A 1_555 1_555
N1A Ag1A 1_555 1_555
Ag1A N3 1_555 1_555
C12A C1A 1_555 1_555
H13A C12A 1_555 1_555
H14A C12A 1_555 1_555
H15A C12A 1_555 1_555
Ag1_2 N3A 1_555 1_555
Ag1A_2 N2A 1_555 1_555
N2A_2 Ag1A 1_555 1_555
N3A_2 Ag1 1_555 1_555
C6 N2 1_555 1_555
C8 O2 1_555 1_555
C10 N3 1_555 1_555
C11 N3 1_555 1_555
C6A N2A 1_555 1_555
C8A O2A 1_555 1_555
C10A N3A 1_555 1_555
C11A N3A 1_555 1_555

#END
