
#######################################################################
#
#                 Cambridge Crystallographic Data Centre
#                                CCDC 
#
#######################################################################
#
# If this CIF has been generated from an entry in the Cambridge 
# Structural Database, then it will include bibliographic, chemical, 
# crystal, experimental, refinement or atomic coordinate data resulting 
# from the CCDC's data processing and validation procedures.
#
#######################################################################

data_DUPDID
_symmetry_cell_setting           triclinic
_symmetry_space_group_name_H-M   'P -1'
_symmetry_Int_Tables_number      2
_space_group_name_Hall           '-P 1'
loop_
_symmetry_equiv_pos_site_id
_symmetry_equiv_pos_as_xyz
1 x,y,z
2 -x,-y,-z
_cell_length_a                   7.58850(10)
_cell_length_b                   12.1154(2)
_cell_length_c                   12.6257(2)
_cell_angle_alpha                115.1220(10)
_cell_angle_beta                 104.5510(10)
_cell_angle_gamma                97.6820(10)
_cell_volume                     978.262
loop_
_atom_site_label
_atom_site_type_symbol
_atom_site_fract_x
_atom_site_fract_y
_atom_site_fract_z
N1 N 0.5770(5) 0.9153(3) 0.6843(3)
C1 C 0.4649(6) 1.0924(4) 0.6468(4)
C2 C 0.5278(5) 0.9930(3) 0.6679(3)
H1 H 0.5697 1.1335 0.6267
H2 H 0.3526 1.0567 0.5853
H3 H 0.4721 1.1574 0.7281
N2 N 0.8117(5) 0.6402(3) 0.8799(3)
Ag1 Ag 0.71761(3) 0.73380(2) 0.722934(19)
N3 N 0.4378(3) 0.5877(2) 0.5952(2)
C3 C 0.9591(4) 1.0481(3) 1.2287(3)
H4 H 1.0370 1.0654 1.3088
C4 C 0.8057(4) 0.9415(3) 1.1615(3)
H5 H 0.7790 0.8868 1.1948
C5 C 0.6916(4) 0.9160(3) 1.0445(2)
C6 C 0.7348(4) 0.9987(2) 0.9993(2)
H6 H 0.6587 0.9837 0.9197
C7 C 0.8905(4) 1.1033(3) 1.0724(2)
H7 H 0.9197 1.1600 1.0415
C8 C 0.5277(4) 0.8005(3) 0.9720(3)
C9 C 0.3105(4) 0.6525(3) 0.7714(3)
H8 H 0.1937 0.6635 0.7911
H9 H 0.3446 0.5816 0.7836
C10 C 0.2803(4) 0.6253(3) 0.6390(3)
H10 H 0.1619 0.5564 0.5835
H11 H 0.2634 0.7018 0.6321
C11 C 0.4027(4) 0.5812(3) 0.4714(2)
H12 H 0.3992 0.6656 0.4790
H13 H 0.2781 0.5205 0.4132
C12 C 0.4447(4) 0.4604(3) 0.5803(3)
H14 H 0.3206 0.3985 0.5233
H15 H 0.4698 0.4625 0.6621
C13 C 0.7770(5) 0.5641(3) 0.9066(3)
C14 C 0.7289(7) 0.4660(4) 0.9400(4)
H16 H 0.7821 0.3964 0.9001
H17 H 0.5909 0.4340 0.9117
H18 H 0.7813 0.5015 1.0306
N4 N 1.0023(3) 1.1279(2) 1.1854(2)
O1 O 0.4615(4) 0.7425(2) 1.0170(2)
O2 O 0.4637(3) 0.76846(18) 0.85131(18)
N3A N 0.5622(3) 0.4123(2) 0.4048(2)
C3A C 0.0409(4) -0.0481(3) -0.2287(3)
H4A H -0.0370 -0.0654 -0.3088
C4A C 0.1943(4) 0.0585(3) -0.1615(3)
H5A H 0.2210 0.1132 -0.1948
C5A C 0.3084(4) 0.0840(3) -0.0445(2)
C6A C 0.2652(4) 0.0013(2) 0.0007(2)
H6A H 0.3413 0.0163 0.0803
C7A C 0.1095(4) -0.1033(3) -0.0724(2)
H7A H 0.0803 -0.1600 -0.0415
C8A C 0.4723(4) 0.1995(3) 0.0280(3)
C9A C 0.6895(4) 0.3475(3) 0.2286(3)
H8A H 0.8063 0.3365 0.2089
H9A H 0.6554 0.4184 0.2164
C10A C 0.7197(4) 0.3747(3) 0.3610(3)
H10A H 0.8381 0.4436 0.4165
H11A H 0.7366 0.2982 0.3679
C11A C 0.5973(4) 0.4188(3) 0.5286(2)
H12A H 0.6008 0.3344 0.5210
H13A H 0.7219 0.4795 0.5868
C12A C 0.5553(4) 0.5396(3) 0.4197(3)
H14A H 0.6794 0.6015 0.4767
H15A H 0.5302 0.5375 0.3379
N4A N -0.0023(3) -0.1279(2) -0.1854(2)
O1A O 0.5385(4) 0.2575(2) -0.0170(2)
O2A O 0.5363(3) 0.23154(18) 0.14869(18)
N2A N 0.1883(5) 0.3598(3) 0.1201(3)
Ag1A Ag 0.28239(3) 0.26620(2) 0.277066(19)
C13A C 0.2230(5) 0.4359(3) 0.0934(3)
C14A C 0.2711(7) 0.5340(4) 0.0600(4)
H16A H 0.2179 0.6036 0.0999
H17A H 0.4091 0.5660 0.0883
H18A H 0.2187 0.4985 -0.0306
Ag1_2 Ag -0.28239(3) -0.26620(2) -0.277066(19)
Ag1A_2 Ag 1.28239(3) 1.26620(2) 1.277066(19)
N4_2 N 0.0023(3) 0.1279(2) 0.1854(2)
N4A_2 N 0.9977(3) 0.8721(2) 0.8146(2)
F1 F 1.1882(5) 0.7906(4) 0.4414(6)
F2 F 0.7671(4) 0.6774(3) 0.2598(3)
F3 F 0.9726(6) 0.5995(3) 0.3319(7)
F4 F 0.9841(5) 0.8719(3) 0.3720(3)
F5 F 0.9030(10) 0.7625(6) 0.4587(4)
F6 F 1.0432(11) 0.7102(6) 0.2395(6)
P1 P 0.97937(12) 0.73444(9) 0.35047(9)
loop_
_geom_bond_atom_site_label_1
_geom_bond_atom_site_label_2
_geom_bond_site_symmetry_1
_geom_bond_site_symmetry_2
N1 C2 1_555 1_555
C1 C2 1_555 1_555
H1 C1 1_555 1_555
H2 C1 1_555 1_555
H3 C1 1_555 1_555
N2 Ag1 1_555 1_555
Ag1 N3 1_555 1_555
N3 C10 1_555 1_555
C3 H4 1_555 1_555
C4 C3 1_555 1_555
H5 C4 1_555 1_555
C5 C4 1_555 1_555
C6 C5 1_555 1_555
H6 C6 1_555 1_555
C7 C6 1_555 1_555
H7 C7 1_555 1_555
C8 C5 1_555 1_555
C9 H8 1_555 1_555
H9 C9 1_555 1_555
C10 C9 1_555 1_555
H10 C10 1_555 1_555
H11 C10 1_555 1_555
C11 N3 1_555 1_555
H12 C11 1_555 1_555
H13 C11 1_555 1_555
C12 N3 1_555 1_555
H14 C12 1_555 1_555
H15 C12 1_555 1_555
C13 N2 1_555 1_555
C14 C13 1_555 1_555
H16 C14 1_555 1_555
H17 C14 1_555 1_555
H18 C14 1_555 1_555
N4 C3 1_555 1_555
O1 C8 1_555 1_555
O2 C8 1_555 1_555
F1 P1 1_555 1_555
F2 P1 1_555 1_555
F3 P1 1_555 1_555
F4 P1 1_555 1_555
F5 P1 1_555 1_555
F6 P1 1_555 1_555
N3A C10A 1_555 1_555
C3A H4A 1_555 1_555
C4A C3A 1_555 1_555
H5A C4A 1_555 1_555
C5A C4A 1_555 1_555
C6A C5A 1_555 1_555
H6A C6A 1_555 1_555
C7A C6A 1_555 1_555
H7A C7A 1_555 1_555
C8A C5A 1_555 1_555
C9A H8A 1_555 1_555
H9A C9A 1_555 1_555
C10A C9A 1_555 1_555
H10A C10A 1_555 1_555
H11A C10A 1_555 1_555
C11A C12 1_555 1_555
H12A C11A 1_555 1_555
H13A C11A 1_555 1_555
C12A C11 1_555 1_555
H14A C12A 1_555 1_555
H15A C12A 1_555 1_555
N4A C3A 1_555 1_555
O1A C8A 1_555 1_555
O2A C8A 1_555 1_555
N2A Ag1A 1_555 1_555
Ag1A N3A 1_555 1_555
C13A N2A 1_555 1_555
C14A C13A 1_555 1_555
H16A C14A 1_555 1_555
H17A C14A 1_555 1_555
H18A C14A 1_555 1_555
Ag1_2 N4A 1_555 1_555
Ag1A_2 N4 1_555 1_555
N4_2 Ag1A 1_555 1_555
N4A_2 Ag1 1_555 1_555
C7 N4 1_555 1_555
C9 O2 1_555 1_555
N3A C11A 1_555 1_555
N3A C12A 1_555 1_555
C7A N4A 1_555 1_555
C9A O2A 1_555 1_555

#END
