
#######################################################################
#
#                 Cambridge Crystallographic Data Centre
#                                CCDC 
#
#######################################################################
#
# If this CIF has been generated from an entry in the Cambridge 
# Structural Database, then it will include bibliographic, chemical, 
# crystal, experimental, refinement or atomic coordinate data resulting 
# from the CCDC's data processing and validation procedures.
#
#######################################################################

data_DUPFEB
_symmetry_cell_setting           monoclinic
_symmetry_space_group_name_H-M   'P 21/n'
_symmetry_Int_Tables_number      14
_space_group_name_Hall           '-P 2yn'
loop_
_symmetry_equiv_pos_site_id
_symmetry_equiv_pos_as_xyz
1 x,y,z
2 1/2-x,1/2+y,1/2-z
3 -x,-y,-z
4 1/2+x,1/2-y,1/2+z
_cell_length_a                   10.1663(2)
_cell_length_b                   12.7630(2)
_cell_length_c                   12.2723(2)
_cell_angle_alpha                90
_cell_angle_beta                 104.7770(10)
_cell_angle_gamma                90
_cell_volume                     1539.7
loop_
_atom_site_label
_atom_site_type_symbol
_atom_site_fract_x
_atom_site_fract_y
_atom_site_fract_z
N1 N 0.1338(2) 0.95787(17) 0.05933(18)
C1 C 0.0052(3) 0.8967(2) 0.0419(2)
Ag1 Ag 0.82008(2) 0.95492(2) 0.774726(17)
C2 C 0.8135(3) 0.9480(3) 0.5227(3)
H1 H 0.9044 0.9650 0.5535
C3 C 0.7635(3) 0.9532(3) 0.4076(2)
H2 H 0.8196 0.9728 0.3620
C4 C 0.6281(3) 0.9288(2) 0.3606(2)
C5 C 0.5505(3) 0.8942(2) 0.4306(2)
H3 H 0.4608 0.8732 0.4013
C6 C 0.6090(3) 0.8914(2) 0.5457(2)
H4 H 0.5561 0.8688 0.5928
C7 C 0.5736(3) 0.9421(2) 0.2365(2)
C8 C 0.3856(3) 0.9260(3) 0.0809(2)
H5 H 0.4417 0.8840 0.0447
H6 H 0.3835 0.9972 0.0529
C9 C 0.2428(3) 0.8816(2) 0.0558(2)
H7 H 0.2220 0.8500 -0.0185
H8 H 0.2412 0.8263 0.1096
H9 H 0.0132 0.8477 0.1036
H10 H -0.0090 0.8569 -0.0274
C10 C -0.1157(3) 0.9666(2) 0.0354(2)
H11 H -0.1969 0.9239 0.0252
H12 H -0.1034 1.0047 0.1057
N2 N 0.7377(2) 0.9196(2) 0.59259(19)
O1 O 0.6435(2) 0.9651(2) 0.17496(18)
O2 O 0.44058(18) 0.92426(17) 0.20248(15)
N1B N -0.1338(2) 1.04213(17) -0.05933(18)
C1B C -0.0052(3) 1.1033(2) -0.0419(2)
C2B C -0.8135(3) 1.0520(3) -0.5227(3)
H1B H -0.9044 1.0350 -0.5535
C3B C -0.7635(3) 1.0468(3) -0.4076(2)
H2B H -0.8196 1.0272 -0.3620
C4B C -0.6281(3) 1.0712(2) -0.3606(2)
C5B C -0.5505(3) 1.1058(2) -0.4306(2)
H3B H -0.4608 1.1268 -0.4013
C6B C -0.6090(3) 1.1086(2) -0.5457(2)
H4B H -0.5561 1.1312 -0.5928
C7B C -0.5736(3) 1.0579(2) -0.2365(2)
C8B C -0.3856(3) 1.0740(3) -0.0809(2)
H5B H -0.4417 1.1160 -0.0447
H6B H -0.3835 1.0028 -0.0529
C9B C -0.2428(3) 1.1184(2) -0.0558(2)
H7B H -0.2220 1.1500 0.0185
H8B H -0.2412 1.1737 -0.1096
H9B H -0.0132 1.1523 -0.1036
H10B H 0.0090 1.1431 0.0274
C10B C 0.1157(3) 1.0334(2) -0.0354(2)
H11B H 0.1969 1.0761 -0.0252
H12B H 0.1034 0.9953 -0.1057
N2B N -0.7377(2) 1.0804(2) -0.59259(19)
O1B O -0.6435(2) 1.0349(2) -0.17496(18)
O2B O -0.44058(18) 1.07574(17) -0.20248(15)
Ag1B Ag -0.82008(2) 1.04508(2) -0.774726(17)
N1_2 N -0.8662(2) 0.95787(17) -0.94067(18)
N1B_2 N 0.8662(2) 1.04213(17) 0.94067(18)
Ag1_2 Ag -0.17992(2) 0.95492(2) -0.225274(17)
Ag1B_2 Ag 0.17992(2) 1.04508(2) 0.225274(17)
C11 C 0.6369(4) 0.6846(3) 0.2298(3)
C12 C 0.7702(4) 0.7156(3) 0.2183(4)
H13 H 0.7826 0.7894 0.2323
H14 H 0.7769 0.7002 0.1433
H15 H 0.8391 0.6776 0.2717
N3 N 0.5357(4) 0.6601(3) 0.2407(3)
Cl1 Cl 0.63149(8) 0.73150(6) 0.87394(6)
O3 O 0.7659(3) 0.7126(4) 0.9351(4)
O4 O 0.6123(5) 0.8193(4) 0.8054(5)
O5 O 0.5662(4) 0.6435(3) 0.8149(3)
O6 O 0.5597(4) 0.7517(5) 0.9539(3)
loop_
_geom_bond_atom_site_label_1
_geom_bond_atom_site_label_2
_geom_bond_site_symmetry_1
_geom_bond_site_symmetry_2
N1 C1 1_555 1_555
C1 H9 1_555 1_555
Ag1 N2 1_555 1_555
C2 H1 1_555 1_555
C3 C2 1_555 1_555
H2 C3 1_555 1_555
C4 C3 1_555 1_555
C5 C4 1_555 1_555
H3 C5 1_555 1_555
C6 C5 1_555 1_555
H4 C6 1_555 1_555
C7 C4 1_555 1_555
C8 H5 1_555 1_555
H6 C8 1_555 1_555
C9 N1 1_555 1_555
H7 C9 1_555 1_555
H8 C9 1_555 1_555
H10 C1 1_555 1_555
C10 C1 1_555 1_555
H11 C10 1_555 1_555
H12 C10 1_555 1_555
N2 C2 1_555 1_555
O1 C7 1_555 1_555
O2 C7 1_555 1_555
C11 C12 1_555 1_555
C12 H13 1_555 1_555
H14 C12 1_555 1_555
H15 C12 1_555 1_555
N3 C11 1_555 1_555
Cl1 O3 1_555 1_555
O4 Cl1 1_555 1_555
O5 Cl1 1_555 1_555
O6 Cl1 1_555 1_555
N1B C10 1_555 1_555
C1B N1B 1_555 1_555
C2B H1B 1_555 1_555
C3B C2B 1_555 1_555
H2B C3B 1_555 1_555
C4B C3B 1_555 1_555
C5B C4B 1_555 1_555
H3B C5B 1_555 1_555
C6B C5B 1_555 1_555
H4B C6B 1_555 1_555
C7B C4B 1_555 1_555
C8B H5B 1_555 1_555
H6B C8B 1_555 1_555
C9B N1B 1_555 1_555
H7B C9B 1_555 1_555
H8B C9B 1_555 1_555
H9B C1B 1_555 1_555
H10B C1B 1_555 1_555
C10B N1 1_555 1_555
H11B C10B 1_555 1_555
H12B C10B 1_555 1_555
N2B C2B 1_555 1_555
O1B C7B 1_555 1_555
O2B C7B 1_555 1_555
Ag1B N2B 1_555 1_555
N1_2 Ag1B 1_555 1_555
N1B_2 Ag1 1_555 1_555
Ag1_2 N1B 1_555 1_555
Ag1B_2 N1 1_555 1_555
C6 N2 1_555 1_555
C8 C9 1_555 1_555
C8 O2 1_555 1_555
C1B C10B 1_555 1_555
C6B N2B 1_555 1_555
C8B C9B 1_555 1_555
C8B O2B 1_555 1_555

#END
