
#######################################################################
#
#                 Cambridge Crystallographic Data Centre
#                                CCDC 
#
#######################################################################
#
# If this CIF has been generated from an entry in the Cambridge 
# Structural Database, then it will include bibliographic, chemical, 
# crystal, experimental, refinement or atomic coordinate data resulting 
# from the CCDC's data processing and validation procedures.
#
#######################################################################

data_DUPKOQ
_symmetry_cell_setting           triclinic
_symmetry_space_group_name_H-M   'P -1'
_symmetry_Int_Tables_number      2
_space_group_name_Hall           '-P 1'
loop_
_symmetry_equiv_pos_site_id
_symmetry_equiv_pos_as_xyz
1 x,y,z
2 -x,-y,-z
_cell_length_a                   14.4171(10)
_cell_length_b                   16.6908(12)
_cell_length_c                   17.8550(13)
_cell_angle_alpha                63.510(2)
_cell_angle_beta                 76.3030(10)
_cell_angle_gamma                74.9150(10)
_cell_volume                     3676.51
loop_
_atom_site_label
_atom_site_type_symbol
_atom_site_fract_x
_atom_site_fract_y
_atom_site_fract_z
C1 C 0.23763(14) 0.05390(14) 0.31374(13)
C2 C 0.17035(15) 0.02946(15) 0.28266(14)
H1 H 0.1016 0.0404 0.2952
C3 C 0.22341(16) -0.01183(15) 0.23239(14)
H2 H 0.1989 -0.0348 0.2024
C4 C 0.32398(15) -0.01481(14) 0.23260(13)
C5 C 0.40213(15) -0.05785(14) 0.19281(13)
C6 C 0.50026(15) -0.06689(13) 0.19741(13)
C7 C 0.57992(15) -0.11550(14) 0.15922(13)
H3 H 0.5752 -0.1459 0.1266
C8 C 0.66229(16) -0.10974(15) 0.17836(14)
H4 H 0.7264 -0.1351 0.1616
C9 C 0.63465(15) -0.05793(13) 0.22915(13)
C10 C 0.70020(14) -0.03743(14) 0.26213(13)
C11 C 0.67470(14) 0.00991(14) 0.31414(13)
C12 C 0.74266(16) 0.03661(16) 0.34233(14)
H5 H 0.8114 0.0225 0.3320
C13 C 0.69005(15) 0.08575(16) 0.38644(14)
H6 H 0.7146 0.1125 0.4130
C14 C 0.58955(14) 0.08937(14) 0.38501(13)
C15 C 0.51081(14) 0.13760(14) 0.42027(13)
C16 C 0.41261(15) 0.14116(15) 0.42026(13)
C17 C 0.33353(16) 0.18453(17) 0.46334(15)
H7 H 0.3387 0.2155 0.4953
C18 C 0.25061(16) 0.17302(17) 0.44996(15)
H8 H 0.1865 0.1945 0.4706
C19 C 0.27738(14) 0.12194(14) 0.39843(13)
C20 C 0.21178(14) 0.09764(14) 0.36915(13)
C21 C 0.10696(14) 0.11974(14) 0.40095(13)
C22 C 0.07625(16) 0.08468(16) 0.48805(14)
H9 H 0.1210 0.0431 0.5255
C23 C -0.01778(16) 0.10945(17) 0.52046(15)
H10 H -0.0370 0.0855 0.5799
C24 C -0.08489(15) 0.16934(16) 0.46682(16)
C25 C -0.05654(16) 0.20193(17) 0.38065(16)
H11 H -0.1023 0.2410 0.3433
C26 C 0.03947(15) 0.17755(16) 0.34811(14)
H12 H 0.0585 0.2012 0.2887
C27 C -0.18719(16) 0.19750(18) 0.50403(18)
H13 H -0.2307 0.2215 0.4605
H14 H -0.2101 0.1436 0.5516
C28 C -0.20356(18) 0.35763(18) 0.49172(17)
H15 H -0.2124 0.3918 0.4340
C29 C -0.19959(17) 0.39009(18) 0.54894(18)
C30 C -0.2067(2) 0.4853(2) 0.5381(2)
H16 H -0.2744 0.5181 0.5331
H17 H -0.1874 0.4850 0.5879
C31 C -0.1435(3) 0.6212(2) 0.4478(2)
H18 H -0.2100 0.6502 0.4632
H19 H -0.1248 0.6548 0.3864
C32 C -0.0767(3) 0.6306(2) 0.4936(2)
H20 H -0.0131 0.5912 0.4886
H21 H -0.0663 0.6944 0.4680
C33 C 1.0535(2) -0.6141(2) 0.3740(2)
H22 H 0.9889 -0.5764 0.3795
H23 H 1.0453 -0.6782 0.3969
C34 C 1.0966(3) -0.5835(2) 0.2834(2)
H24 H 1.1657 -0.6126 0.2783
H25 H 1.0618 -0.6008 0.2528
C35 C 1.1309(2) -0.4502(2) 0.1632(2)
H26 H 1.0951 -0.4582 0.1267
H27 H 1.1993 -0.4803 0.1564
C36 C 1.12529(18) -0.3520(2) 0.14002(18)
C37 C 1.12675(17) -0.31110(19) 0.19180(18)
H28 H 1.1320 -0.3395 0.2504
C38 C 1.10958(16) -0.14739(18) 0.16434(18)
H29 H 1.1368 -0.0967 0.1157
H30 H 1.1466 -0.1672 0.2117
C39 C 1.00403(15) -0.11505(17) 0.19041(16)
C40 C 0.96281(16) -0.15427(17) 0.27344(16)
H31 H 1.0018 -0.1984 0.3149
C41 C 0.86397(16) -0.12929(16) 0.29655(15)
H32 H 0.8360 -0.1570 0.3538
C42 C 0.80597(15) -0.06476(15) 0.23729(14)
C43 C 0.84864(18) -0.02482(19) 0.15436(15)
H33 H 0.8101 0.0202 0.1129
C44 C 0.94597(18) -0.0496(2) 0.13141(16)
H34 H 0.9739 -0.0214 0.0742
C45 C 0.53094(14) 0.19170(14) 0.46045(13)
C46 C 0.56891(15) 0.15072(14) 0.53589(13)
H35 H 0.5892 0.0866 0.5606
C47 C 0.57752(16) 0.20306(15) 0.57567(14)
H36 H 0.6027 0.1745 0.6279
C48 C 0.54942(15) 0.29709(15) 0.53918(13)
C49 C 0.51619(19) 0.33788(15) 0.46208(15)
H37 H 0.5000 0.4023 0.4354
C50 C 0.50618(19) 0.28554(16) 0.42321(15)
H38 H 0.4821 0.3144 0.3705
C51 C 0.54976(17) 0.35384(16) 0.58477(15)
H39 H 0.5945 0.3204 0.6277
H40 H 0.5727 0.4110 0.5442
C52 C 0.38463(19) 0.32059(17) 0.66752(16)
H41 H 0.3910 0.2589 0.6769
C53 C 0.3063(2) 0.37282(19) 0.69329(17)
C54 C 0.2112(2) 0.3489(2) 0.74376(19)
H42 H 0.1604 0.4042 0.7301
H43 H 0.1924 0.3050 0.7294
C55 C 0.8693(2) -0.2860(3) 0.1196(2)
H44 H 0.8927 -0.2473 0.1374
H45 H 0.9194 -0.3412 0.1262
C56 C 0.8523(3) -0.2349(3) 0.0288(2)
H46 H 0.9111 -0.2106 -0.0067
H47 H 0.7979 -0.1831 0.0233
C57 C 0.8060(6) -0.2476(4) -0.0837(3)
H48 H 0.7601 -0.1899 -0.0907
H49 H 0.8652 -0.2333 -0.1249
C58 C 0.7599(3) -0.3102(3) -0.0988(3)
H50 H 0.6989 -0.3221 -0.0595
H51 H 0.8045 -0.3690 -0.0891
C59 C 0.6622(2) -0.3006(2) -0.1836(2)
H52 H 0.6581 -0.2823 -0.2438
H53 H 0.6734 -0.3679 -0.1557
C60 C 0.56792(17) -0.26393(16) -0.14331(15)
C61 C 0.51307(18) -0.30454(17) -0.06790(16)
H54 H 0.5278 -0.3645 -0.0260
C62 C 0.35156(16) -0.24433(15) 0.00109(14)
H55 H 0.2908 -0.2167 -0.0245
H56 H 0.3477 -0.3085 0.0400
C63 C 0.36050(14) -0.19371(14) 0.05085(13)
C64 C 0.35559(18) -0.23629(15) 0.13649(14)
H57 H 0.3459 -0.2976 0.1650
C65 C 0.36469(19) -0.19075(16) 0.18265(14)
H58 H 0.3594 -0.2211 0.2425
C66 C 0.38130(14) -0.10242(14) 0.14321(13)
C67 C 0.3816(2) -0.05905(16) 0.05757(15)
H59 H 0.3893 0.0029 0.0292
C68 C 0.3711(2) -0.10359(16) 0.01150(15)
H60 H 0.3711 -0.0718 -0.0478
N1 N 0.33042(12) 0.02707(12) 0.28176(11)
N2 N 0.53559(12) -0.03333(11) 0.24027(11)
N3 N 0.58191(12) 0.04263(12) 0.34140(11)
N4 N 0.37699(12) 0.10373(12) 0.38123(11)
N5 N -0.19237(13) 0.26787(14) 0.53465(13)
N6 N -0.18191(18) 0.24333(17) 0.61474(15)
N7 N -0.18560(18) 0.31835(17) 0.62297(15)
N8 N 1.11655(16) -0.28699(17) 0.06192(15)
N9 N 1.11253(15) -0.20635(17) 0.06165(15)
N10 N 1.11922(13) -0.22286(15) 0.14108(14)
N11 N 0.45121(15) 0.37472(13) 0.62599(12)
N12 N 0.4171(2) 0.45739(15) 0.62491(16)
N13 N 0.3274(2) 0.45600(17) 0.66636(17)
N14 N 0.51939(12) -0.17835(12) -0.18302(11)
N15 N 0.43707(13) -0.16597(12) -0.13613(11)
N16 N 0.43393(13) -0.24170(12) -0.06565(11)
O1 O -0.14475(17) 0.52942(13) 0.46455(14)
O2 O -0.11573(14) 0.60574(14) 0.58002(14)
O3 O 1.08844(15) -0.48765(14) 0.24848(14)
O4 O 0.78121(14) -0.31086(15) 0.17046(13)
O5 O 0.8305(2) -0.2935(2) 0.00204(16)
O6 O 0.7416(2) -0.2697(2) -0.1784(2)
Zn1 Zn 0.45766(2) 0.05574(2) 0.29325(2)
C1A C 0.76237(14) -0.05390(14) 0.68626(13)
C2A C 0.82965(15) -0.02946(15) 0.71734(14)
H1A H 0.8984 -0.0404 0.7048
C3A C 0.77659(16) 0.01183(15) 0.76761(14)
H2A H 0.8011 0.0348 0.7976
C4A C 0.67602(15) 0.01481(14) 0.76740(13)
C5A C 0.59787(15) 0.05785(14) 0.80719(13)
C6A C 0.49974(15) 0.06689(13) 0.80259(13)
C7A C 0.42008(15) 0.11550(14) 0.84078(13)
H3A H 0.4248 0.1459 0.8734
C8A C 0.33771(16) 0.10974(15) 0.82164(14)
H4A H 0.2736 0.1351 0.8384
C9A C 0.36535(15) 0.05793(13) 0.77085(13)
C10A C 0.29980(14) 0.03743(14) 0.73787(13)
C11A C 0.32530(14) -0.00991(14) 0.68586(13)
C12A C 0.25734(16) -0.03661(16) 0.65767(14)
H5A H 0.1886 -0.0225 0.6680
C13A C 0.30995(15) -0.08575(16) 0.61356(14)
H6A H 0.2854 -0.1125 0.5870
C14A C 0.41045(14) -0.08937(14) 0.61499(13)
C15A C 0.48919(14) -0.13760(14) 0.57973(13)
C16A C 0.58739(15) -0.14116(15) 0.57974(13)
C17A C 0.66647(16) -0.18453(17) 0.53666(15)
H7A H 0.6613 -0.2155 0.5047
C18A C 0.74939(16) -0.17302(17) 0.55004(15)
H8A H 0.8135 -0.1945 0.5294
C19A C 0.72262(14) -0.12194(14) 0.60157(13)
C20A C 0.78822(14) -0.09764(14) 0.63085(13)
C21A C 0.89304(14) -0.11974(14) 0.59905(13)
C22A C 0.92375(16) -0.08468(16) 0.51195(14)
H9A H 0.8790 -0.0431 0.4745
C23A C 1.01778(16) -0.10945(17) 0.47954(15)
H10A H 1.0370 -0.0855 0.4201
C24A C 1.08489(15) -0.16934(16) 0.53318(16)
C25A C 1.05654(16) -0.20193(17) 0.61935(16)
H11A H 1.1023 -0.2410 0.6567
C26A C 0.96053(15) -0.17755(16) 0.65189(14)
H12A H 0.9415 -0.2012 0.7113
C27A C 1.18719(16) -0.19750(18) 0.49597(18)
H13A H 1.2307 -0.2215 0.5395
H14A H 1.2101 -0.1436 0.4484
C28A C 1.20356(18) -0.35763(18) 0.50828(17)
H15A H 1.2124 -0.3918 0.5660
C29A C 1.19959(17) -0.39009(18) 0.45106(18)
C30A C 1.2067(2) -0.4853(2) 0.4619(2)
H16A H 1.2744 -0.5181 0.4669
H17A H 1.1874 -0.4850 0.4121
C31A C 1.1435(3) -0.6212(2) 0.5522(2)
H18A H 1.2100 -0.6502 0.5368
H19A H 1.1248 -0.6548 0.6136
C32A C 1.0767(3) -0.6306(2) 0.5064(2)
H20A H 1.0131 -0.5912 0.5114
H21A H 1.0663 -0.6944 0.5320
C33A C -0.0535(2) 0.6141(2) 0.6260(2)
H22A H 0.0111 0.5764 0.6205
H23A H -0.0453 0.6782 0.6031
C34A C -0.0966(3) 0.5835(2) 0.7166(2)
H24A H -0.1657 0.6126 0.7217
H25A H -0.0618 0.6008 0.7472
C35A C -0.1309(2) 0.4502(2) 0.8368(2)
H26A H -0.0951 0.4582 0.8733
H27A H -0.1993 0.4803 0.8436
C36A C -0.12529(18) 0.3520(2) 0.85998(18)
C37A C -0.12675(17) 0.31110(19) 0.80820(18)
H28A H -0.1320 0.3395 0.7496
C38A C -0.10958(16) 0.14739(18) 0.83566(18)
H29A H -0.1368 0.0967 0.8843
H30A H -0.1466 0.1672 0.7883
C39A C -0.00403(15) 0.11505(17) 0.80959(16)
C40A C 0.03719(16) 0.15427(17) 0.72656(16)
H31A H -0.0018 0.1984 0.6851
C41A C 0.13603(16) 0.12929(16) 0.70345(15)
H32A H 0.1640 0.1570 0.6462
C42A C 0.19403(15) 0.06476(15) 0.76271(14)
C43A C 0.15136(18) 0.02482(19) 0.84564(15)
H33A H 0.1899 -0.0202 0.8871
C44A C 0.05403(18) 0.0496(2) 0.86859(16)
H34A H 0.0261 0.0214 0.9258
C45A C 0.46906(14) -0.19170(14) 0.53955(13)
C46A C 0.43109(15) -0.15072(14) 0.46411(13)
H35A H 0.4108 -0.0866 0.4394
C47A C 0.42248(16) -0.20306(15) 0.42433(14)
H36A H 0.3973 -0.1745 0.3721
C48A C 0.45058(15) -0.29709(15) 0.46082(13)
C49A C 0.48381(19) -0.33788(15) 0.53792(15)
H37A H 0.5000 -0.4023 0.5646
C50A C 0.49382(19) -0.28554(16) 0.57679(15)
H38A H 0.5179 -0.3144 0.6295
C51A C 0.45024(17) -0.35384(16) 0.41523(15)
H39A H 0.4055 -0.3204 0.3723
H40A H 0.4273 -0.4110 0.4558
C52A C 0.61537(19) -0.32059(17) 0.33248(16)
H41A H 0.6090 -0.2589 0.3231
C53A C 0.6937(2) -0.37282(19) 0.30671(17)
C54A C 0.7888(2) -0.3489(2) 0.25624(19)
H42A H 0.8396 -0.4042 0.2699
H43A H 0.8076 -0.3050 0.2706
N1A N 0.66958(12) -0.02707(12) 0.71824(11)
N2A N 0.46441(12) 0.03333(11) 0.75973(11)
N3A N 0.41809(12) -0.04263(12) 0.65860(11)
N4A N 0.62301(12) -0.10373(12) 0.61877(11)
N5A N 1.19237(13) -0.26787(14) 0.46535(13)
N6A N 1.18191(18) -0.24333(17) 0.38526(15)
N7A N 1.18560(18) -0.31835(17) 0.37703(15)
N8A N -0.11655(16) 0.28699(17) 0.93808(15)
N9A N -0.11253(15) 0.20635(17) 0.93835(15)
N10A N -0.11922(13) 0.22286(15) 0.85892(14)
N11A N 0.54879(15) -0.37472(13) 0.37401(12)
N12A N 0.5829(2) -0.45739(15) 0.37509(16)
N13A N 0.6726(2) -0.45600(17) 0.33364(17)
O1A O 1.14475(17) -0.52942(13) 0.53545(14)
O2A O 1.11573(14) -0.60574(14) 0.41998(14)
O3A O -0.08844(15) 0.48765(14) 0.75152(14)
C55A C 0.1307(2) 0.2860(3) 0.8804(2)
H44A H 0.1073 0.2473 0.8626
H45A H 0.0806 0.3412 0.8738
C56A C 0.1477(3) 0.2349(3) 0.9712(2)
H46A H 0.0889 0.2106 1.0067
H47A H 0.2021 0.1831 0.9767
C57A C 0.1940(6) 0.2476(4) 1.0837(3)
H48A H 0.2399 0.1899 1.0907
H49A H 0.1348 0.2333 1.1249
C58A C 0.2401(3) 0.3102(3) 1.0988(3)
H50A H 0.3011 0.3221 1.0595
H51A H 0.1955 0.3690 1.0891
C59A C 0.3378(2) 0.3006(2) 1.1836(2)
H52A H 0.3419 0.2823 1.2438
H53A H 0.3266 0.3679 1.1557
C60A C 0.43208(17) 0.26393(16) 1.14331(15)
C61A C 0.48693(18) 0.30454(17) 1.06790(16)
H54A H 0.4722 0.3645 1.0260
C62A C 0.64844(16) 0.24433(15) 0.99891(14)
H55A H 0.7092 0.2167 1.0245
H56A H 0.6523 0.3085 0.9600
C63A C 0.63950(14) 0.19371(14) 0.94915(13)
C64A C 0.64441(18) 0.23629(15) 0.86351(14)
H57A H 0.6541 0.2976 0.8350
C65A C 0.63531(19) 0.19075(16) 0.81735(14)
H58A H 0.6406 0.2211 0.7575
C66A C 0.61870(14) 0.10242(14) 0.85679(13)
C67A C 0.6184(2) 0.05905(16) 0.94243(15)
H59A H 0.6107 -0.0029 0.9708
C68A C 0.6289(2) 0.10359(16) 0.98850(15)
H60A H 0.6289 0.0718 1.0478
N14A N 0.48061(12) 0.17835(12) 1.18302(11)
N15A N 0.56293(13) 0.16597(12) 1.13613(11)
N16A N 0.56607(13) 0.24170(12) 1.06565(11)
O4A O 0.21879(14) 0.31086(15) 0.82954(13)
O5A O 0.1695(2) 0.2935(2) 0.99796(16)
O6A O 0.2584(2) 0.2697(2) 1.1784(2)
Zn1A Zn 0.54234(2) -0.05574(2) -0.29325(2)
N1A_2 N 0.66958(12) -0.02707(12) -0.28176(11)
N2A_2 N 0.46441(12) 0.03333(11) -0.24027(11)
N3A_2 N 0.41809(12) -0.04263(12) -0.34140(11)
N4A_2 N 0.62301(12) -0.10373(12) -0.38123(11)
N14A_2 N 0.48061(12) 0.17835(12) 0.18302(11)
Zn1_2 Zn 0.45766(2) 0.05574(2) 1.29325(2)
Zn1A_2 Zn 0.54234(2) -0.05574(2) 0.70675(2)
C69 C 1.3574(4) -0.5039(3) 0.2575(3)
H61 H 1.4055 -0.4866 0.2755
H62 H 1.3650 -0.5704 0.2820
H63 H 1.2921 -0.4782 0.2769
O7 O 1.3716(2) -0.4700(2) 0.1677(2)
H64 H 1.4297 -0.4865 0.1506
C70 C 1.1003(5) -0.1857(5) -0.1582(3)
H65 H 1.0584 -0.1469 -0.1309
H66 H 1.0714 -0.1787 -0.2057
H67 H 1.1643 -0.1679 -0.1790
O8 O 1.1103(4) -0.2788(3) -0.0983(2)
H68 H 1.1170 -0.2822 -0.0514
loop_
_geom_bond_atom_site_label_1
_geom_bond_atom_site_label_2
_geom_bond_site_symmetry_1
_geom_bond_site_symmetry_2
C1 C2 1_555 1_555
C2 H1 1_555 1_555
C3 C2 1_555 1_555
H2 C3 1_555 1_555
C4 C3 1_555 1_555
C5 C4 1_555 1_555
C6 C5 1_555 1_555
C7 C6 1_555 1_555
H3 C7 1_555 1_555
C8 C7 1_555 1_555
H4 C8 1_555 1_555
C9 C8 1_555 1_555
C10 C9 1_555 1_555
C11 C10 1_555 1_555
C12 C11 1_555 1_555
H5 C12 1_555 1_555
C13 C12 1_555 1_555
H6 C13 1_555 1_555
C14 C13 1_555 1_555
C15 C14 1_555 1_555
C16 C15 1_555 1_555
C17 C16 1_555 1_555
H7 C17 1_555 1_555
C18 C17 1_555 1_555
H8 C18 1_555 1_555
C19 C18 1_555 1_555
C20 C1 1_555 1_555
C21 C20 1_555 1_555
C22 C21 1_555 1_555
H9 C22 1_555 1_555
C23 C22 1_555 1_555
H10 C23 1_555 1_555
C24 C23 1_555 1_555
C25 C24 1_555 1_555
H11 C25 1_555 1_555
C26 C21 1_555 1_555
H12 C26 1_555 1_555
C27 C24 1_555 1_555
H13 C27 1_555 1_555
H14 C27 1_555 1_555
C28 H15 1_555 1_555
C29 C28 1_555 1_555
C30 C29 1_555 1_555
H16 C30 1_555 1_555
H17 C30 1_555 1_555
C31 H18 1_555 1_555
H19 C31 1_555 1_555
C32 C31 1_555 1_555
H20 C32 1_555 1_555
H21 C32 1_555 1_555
C33 H22 1_555 1_555
H23 C33 1_555 1_555
C34 C33 1_555 1_555
H24 C34 1_555 1_555
H25 C34 1_555 1_555
C35 H26 1_555 1_555
H27 C35 1_555 1_555
C36 C35 1_555 1_555
C37 C36 1_555 1_555
H28 C37 1_555 1_555
C38 H29 1_555 1_555
H30 C38 1_555 1_555
C39 C38 1_555 1_555
C40 C39 1_555 1_555
H31 C40 1_555 1_555
C41 C40 1_555 1_555
H32 C41 1_555 1_555
C42 C10 1_555 1_555
C43 C42 1_555 1_555
H33 C43 1_555 1_555
C44 C39 1_555 1_555
H34 C44 1_555 1_555
C45 C15 1_555 1_555
C46 C45 1_555 1_555
H35 C46 1_555 1_555
C47 C46 1_555 1_555
H36 C47 1_555 1_555
C48 C47 1_555 1_555
C49 C48 1_555 1_555
H37 C49 1_555 1_555
C50 C45 1_555 1_555
H38 C50 1_555 1_555
C51 C48 1_555 1_555
H39 C51 1_555 1_555
H40 C51 1_555 1_555
C52 H41 1_555 1_555
C53 C52 1_555 1_555
C54 C53 1_555 1_555
H42 C54 1_555 1_555
H43 C54 1_555 1_555
C55 H44 1_555 1_555
H45 C55 1_555 1_555
C56 C55 1_555 1_555
H46 C56 1_555 1_555
H47 C56 1_555 1_555
C57 H48 1_555 1_555
H49 C57 1_555 1_555
C58 C57 1_555 1_555
H50 C58 1_555 1_555
H51 C58 1_555 1_555
C59 H52 1_555 1_555
H53 C59 1_555 1_555
C60 C59 1_555 1_555
C61 C60 1_555 1_555
H54 C61 1_555 1_555
C62 H55 1_555 1_555
H56 C62 1_555 1_555
C63 C62 1_555 1_555
C64 C63 1_555 1_555
H57 C64 1_555 1_555
C65 C64 1_555 1_555
H58 C65 1_555 1_555
C66 C5 1_555 1_555
C67 C66 1_555 1_555
H59 C67 1_555 1_555
C68 C63 1_555 1_555
H60 C68 1_555 1_555
N1 C1 1_555 1_555
N2 C6 1_555 1_555
N3 C11 1_555 1_555
N4 C16 1_555 1_555
N5 C27 1_555 1_555
N6 N5 1_555 1_555
N7 C29 1_555 1_555
N8 C36 1_555 1_555
N9 N8 1_555 1_555
N10 C37 1_555 1_555
N11 C51 1_555 1_555
N12 N11 1_555 1_555
N13 C53 1_555 1_555
N14 C60 1_555 1_555
N15 N14 1_555 1_555
N16 C61 1_555 1_555
O1 C30 1_555 1_555
O2 C32 1_555 1_555
O3 C34 1_555 1_555
O4 C55 1_555 1_555
O5 C56 1_555 1_555
O6 C58 1_555 1_555
Zn1 N1 1_555 1_555
C69 H61 1_555 1_555
H62 C69 1_555 1_555
H63 C69 1_555 1_555
O7 C69 1_555 1_555
H64 O7 1_555 1_555
C70 H65 1_555 1_555
H66 C70 1_555 1_555
H67 C70 1_555 1_555
O8 C70 1_555 1_555
H68 O8 1_555 1_555
C1A C2A 1_555 1_555
C2A H1A 1_555 1_555
C3A C2A 1_555 1_555
H2A C3A 1_555 1_555
C4A C3A 1_555 1_555
C5A C4A 1_555 1_555
C6A C5A 1_555 1_555
C7A C6A 1_555 1_555
H3A C7A 1_555 1_555
C8A C7A 1_555 1_555
H4A C8A 1_555 1_555
C9A C8A 1_555 1_555
C10A C9A 1_555 1_555
C11A C10A 1_555 1_555
C12A C11A 1_555 1_555
H5A C12A 1_555 1_555
C13A C12A 1_555 1_555
H6A C13A 1_555 1_555
C14A C13A 1_555 1_555
C15A C14A 1_555 1_555
C16A C15A 1_555 1_555
C17A C16A 1_555 1_555
H7A C17A 1_555 1_555
C18A C17A 1_555 1_555
H8A C18A 1_555 1_555
C19A C18A 1_555 1_555
C20A C1A 1_555 1_555
C21A C20A 1_555 1_555
C22A C21A 1_555 1_555
H9A C22A 1_555 1_555
C23A C22A 1_555 1_555
H10A C23A 1_555 1_555
C24A C23A 1_555 1_555
C25A C24A 1_555 1_555
H11A C25A 1_555 1_555
C26A C21A 1_555 1_555
H12A C26A 1_555 1_555
C27A C24A 1_555 1_555
H13A C27A 1_555 1_555
H14A C27A 1_555 1_555
C28A H15A 1_555 1_555
C29A C28A 1_555 1_555
C30A C29A 1_555 1_555
H16A C30A 1_555 1_555
H17A C30A 1_555 1_555
C31A H18A 1_555 1_555
H19A C31A 1_555 1_555
C32A C31A 1_555 1_555
H20A C32A 1_555 1_555
H21A C32A 1_555 1_555
C33A O2 1_555 1_555
H22A C33A 1_555 1_555
H23A C33A 1_555 1_555
C34A C33A 1_555 1_555
H24A C34A 1_555 1_555
H25A C34A 1_555 1_555
C35A H26A 1_555 1_555
H27A C35A 1_555 1_555
C36A C35A 1_555 1_555
C37A C36A 1_555 1_555
H28A C37A 1_555 1_555
C38A H29A 1_555 1_555
H30A C38A 1_555 1_555
C39A C38A 1_555 1_555
C40A C39A 1_555 1_555
H31A C40A 1_555 1_555
C41A C40A 1_555 1_555
H32A C41A 1_555 1_555
C42A C10A 1_555 1_555
C43A C42A 1_555 1_555
H33A C43A 1_555 1_555
C44A C39A 1_555 1_555
H34A C44A 1_555 1_555
C45A C15A 1_555 1_555
C46A C45A 1_555 1_555
H35A C46A 1_555 1_555
C47A C46A 1_555 1_555
H36A C47A 1_555 1_555
C48A C47A 1_555 1_555
C49A C48A 1_555 1_555
H37A C49A 1_555 1_555
C50A C45A 1_555 1_555
H38A C50A 1_555 1_555
C51A C48A 1_555 1_555
H39A C51A 1_555 1_555
H40A C51A 1_555 1_555
C52A H41A 1_555 1_555
C53A C52A 1_555 1_555
C54A O4 1_555 1_555
H42A C54A 1_555 1_555
H43A C54A 1_555 1_555
N1A C1A 1_555 1_555
N2A C6A 1_555 1_555
N3A C11A 1_555 1_555
N4A C16A 1_555 1_555
N5A C27A 1_555 1_555
N6A N5A 1_555 1_555
N7A C29A 1_555 1_555
N8A C36A 1_555 1_555
N9A N8A 1_555 1_555
N10A C37A 1_555 1_555
N11A C51A 1_555 1_555
N12A N11A 1_555 1_555
N13A C53A 1_555 1_555
O1A C30A 1_555 1_555
O2A C33 1_555 1_555
O3A C34A 1_555 1_555
C55A H44A 1_555 1_555
H45A C55A 1_555 1_555
C56A C55A 1_555 1_555
H46A C56A 1_555 1_555
H47A C56A 1_555 1_555
C57A H48A 1_555 1_555
H49A C57A 1_555 1_555
C58A C57A 1_555 1_555
H50A C58A 1_555 1_555
H51A C58A 1_555 1_555
C59A H52A 1_555 1_555
H53A C59A 1_555 1_555
C60A C59A 1_555 1_555
C61A C60A 1_555 1_555
H54A C61A 1_555 1_555
C62A H55A 1_555 1_555
H56A C62A 1_555 1_555
C63A C62A 1_555 1_555
C64A C63A 1_555 1_555
H57A C64A 1_555 1_555
C65A C64A 1_555 1_555
H58A C65A 1_555 1_555
C66A C5A 1_555 1_555
C67A C66A 1_555 1_555
H59A C67A 1_555 1_555
C68A C63A 1_555 1_555
H60A C68A 1_555 1_555
N14A C60A 1_555 1_555
N15A N14A 1_555 1_555
N16A C61A 1_555 1_555
O4A C54 1_555 1_555
O5A C56A 1_555 1_555
O6A C58A 1_555 1_555
Zn1A N14 1_555 1_555
N1A_2 Zn1A 1_555 1_555
N2A_2 Zn1A 1_555 1_555
N3A_2 Zn1A 1_555 1_555
N4A_2 Zn1A 1_555 1_555
N14A_2 Zn1 1_555 1_555
Zn1_2 N14A 1_555 1_555
Zn1A_2 N1A 1_555 1_555
C4 N1 1_555 1_555
C9 N2 1_555 1_555
C14 N3 1_555 1_555
C19 C20 1_555 1_555
C19 N4 1_555 1_555
C25 C26 1_555 1_555
C28 N5 1_555 1_555
C31 O1 1_555 1_555
C35 O3 1_555 1_555
C38 N10 1_555 1_555
C41 C42 1_555 1_555
C43 C44 1_555 1_555
C49 C50 1_555 1_555
C52 N11 1_555 1_555
C57 O5 1_555 1_555
C59 O6 1_555 1_555
C62 N16 1_555 1_555
C65 C66 1_555 1_555
C67 C68 1_555 1_555
N2 Zn1 1_555 1_555
N3 Zn1 1_555 1_555
N4 Zn1 1_555 1_555
N6 N7 1_555 1_555
N9 N10 1_555 1_555
N12 N13 1_555 1_555
N15 N16 1_555 1_555
C4A N1A 1_555 1_555
C9A N2A 1_555 1_555
C14A N3A 1_555 1_555
C19A C20A 1_555 1_555
C19A N4A 1_555 1_555
C25A C26A 1_555 1_555
C28A N5A 1_555 1_555
C31A O1A 1_555 1_555
C32A O2A 1_555 1_555
C35A O3A 1_555 1_555
C38A N10A 1_555 1_555
C41A C42A 1_555 1_555
C43A C44A 1_555 1_555
C49A C50A 1_555 1_555
C52A N11A 1_555 1_555
C53A C54A 1_555 1_555
N2A Zn1A_2 1_555 1_555
N3A Zn1A_2 1_555 1_555
N4A Zn1A_2 1_555 1_555
N6A N7A 1_555 1_555
N9A N10A 1_555 1_555
N12A N13A 1_555 1_555
C55A O4A 1_555 1_555
C57A O5A 1_555 1_555
C59A O6A 1_555 1_555
C62A N16A 1_555 1_555
C65A C66A 1_555 1_555
C67A C68A 1_555 1_555
N15A N16A 1_555 1_555

#END
