
#######################################################################
#
#                 Cambridge Crystallographic Data Centre
#                                CCDC 
#
#######################################################################
#
# If this CIF has been generated from an entry in the Cambridge 
# Structural Database, then it will include bibliographic, chemical, 
# crystal, experimental, refinement or atomic coordinate data resulting 
# from the CCDC's data processing and validation procedures.
#
#######################################################################

data_DUPPOU
_symmetry_cell_setting           monoclinic
_symmetry_space_group_name_H-M   'P 21/m'
_symmetry_Int_Tables_number      11
_space_group_name_Hall           '-P 2yb'
loop_
_symmetry_equiv_pos_site_id
_symmetry_equiv_pos_as_xyz
1 x,y,z
2 -x,1/2+y,-z
3 -x,-y,-z
4 x,1/2-y,z
_cell_length_a                   7.5794(8)
_cell_length_b                   6.9736(6)
_cell_length_c                   8.6879(12)
_cell_angle_alpha                90
_cell_angle_beta                 102.0270(10)
_cell_angle_gamma                90
_cell_volume                     449.125
loop_
_atom_site_label
_atom_site_type_symbol
_atom_site_fract_x
_atom_site_fract_y
_atom_site_fract_z
Na1 Na 0.07064(15) 0.2500 -0.06364(13)
N1 N 0.1651(3) 0.2500 -0.5916(3)
N2 N 0.1364(3) 0.2500 -0.3300(2)
O1 O -0.16585(17) 0.4981(2) -0.13259(15)
H1 H -0.1666 0.5502 -0.2212
H2 H -0.2701 0.4507 -0.1374
S1 S 0.37894(9) 0.2500 -0.48923(9)
S2 S -0.17326(9) 0.2500 -0.53388(9)
S3 S 0.46031(10) 0.2500 -0.13067(9)
C1 C 0.0626(3) 0.2500 -0.4869(3)
C2 C 0.3165(3) 0.2500 -0.3090(3)
C3 C -0.2220(4) 0.2500 -0.7452(3)
H3 H -0.3503 0.2500 -0.7837
H4 H -0.1709 0.1376 -0.7825
Na1A Na -0.07064(15) -0.2500 0.06364(13)
Na1A_2 Na -0.07064(15) 0.7500 0.06364(13)
O1A O 0.16585(17) -0.0019(2) 0.13259(15)
O1C O -0.16585(17) 0.0019(2) -0.13259(15)
O1B O 0.16585(17) 0.5019(2) 0.13259(15)
H1A H 0.1666 0.0502 0.2212
H1C H -0.1666 -0.0502 -0.2212
H1B H 0.1666 0.4498 0.2212
H2A H 0.2701 -0.0493 0.1374
H2C H -0.2701 0.0493 -0.1374
H2B H 0.2701 0.5493 0.1374
H4C H -0.1709 0.3624 -0.7825
loop_
_geom_bond_atom_site_label_1
_geom_bond_atom_site_label_2
_geom_bond_site_symmetry_1
_geom_bond_site_symmetry_2
Na1 N2 1_555 1_555
N1 S1 1_555 1_555
N2 C1 1_555 1_555
O1 Na1 1_555 1_555
H1 O1 1_555 1_555
H2 O1 1_555 1_555
S1 C2 1_555 1_555
S2 C1 1_555 1_555
S3 Na1 1_555 1_555
C1 N1 1_555 1_555
C2 N2 1_555 1_555
C3 S2 1_555 1_555
H3 C3 1_555 1_555
H4 C3 1_555 1_555
Na1A O1A 1_555 1_555
Na1A_2 O1 1_555 1_555
O1A Na1 1_555 1_555
O1C Na1 1_555 1_555
O1B Na1 1_555 1_555
H1A O1A 1_555 1_555
H1C O1C 1_555 1_555
H1B O1B 1_555 1_555
H2A O1A 1_555 1_555
H2C O1C 1_555 1_555
H2B O1B 1_555 1_555
H4C C3 1_555 1_555
S3 C2 1_555 1_555
Na1A O1C 1_555 1_555
Na1A_2 O1B 1_555 1_555

#END
