
#######################################################################
#
#                 Cambridge Crystallographic Data Centre
#                                CCDC 
#
#######################################################################
#
# If this CIF has been generated from an entry in the Cambridge 
# Structural Database, then it will include bibliographic, chemical, 
# crystal, experimental, refinement or atomic coordinate data resulting 
# from the CCDC's data processing and validation procedures.
#
#######################################################################

data_DUPSUD01
_symmetry_cell_setting           monoclinic
_symmetry_space_group_name_H-M   'C 2/c'
_symmetry_Int_Tables_number      15
_space_group_name_Hall           '-C 2yn'
loop_
_symmetry_equiv_pos_site_id
_symmetry_equiv_pos_as_xyz
1 x,y,z
2 -x,y,1/2-z
3 1/2+x,1/2+y,z
4 1/2-x,1/2+y,1/2-z
5 -x,-y,-z
6 x,-y,1/2+z
7 1/2-x,1/2-y,-z
8 1/2+x,1/2-y,1/2+z
_cell_length_a                   7.0333(3)
_cell_length_b                   7.9908(3)
_cell_length_c                   23.2776(6)
_cell_angle_alpha                90
_cell_angle_beta                 92.812(3)
_cell_angle_gamma                90
_cell_volume                     1306.67
loop_
_atom_site_label
_atom_site_type_symbol
_atom_site_fract_x
_atom_site_fract_y
_atom_site_fract_z
Cd1 Cd 0.5000 0.29995(3) 0.2500
O1 O 0.2175(2) 0.3053(2) 0.19473(7)
O2 O 0.5000 0.0260(3) 0.2500
O3 O 0.5981(2) 0.49267(18) 0.18662(6)
O4 O 0.6889(2) 0.24518(18) 0.15532(6)
O5 O 0.5302(2) 0.31481(18) 0.02494(6)
N1 N 0.8308(3) 0.3852(2) 0.05668(7)
C1 C 0.6805(3) 0.3998(3) 0.15089(8)
C2 C 0.7707(3) 0.4937(3) 0.10203(8)
H1 H 0.6776 0.5755 0.0855
H2 H 0.8822 0.5570 0.1179
C3 C 0.7045(3) 0.3054(3) 0.02233(8)
H3 H 0.943(4) 0.378(3) 0.0517(10)
H5 H 0.171(4) 0.219(4) 0.1929(12)
H6 H 0.577(4) -0.032(4) 0.2341(12)
H8 H 0.229(4) 0.342(4) 0.1645(13)
Cd1F Cd 1.0000 0.20005(3) -0.2500
O1A O 0.7825(2) 0.3053(2) 0.30527(7)
O3F O 0.9019(2) 0.00733(18) -0.18662(6)
O3A O 0.4019(2) 0.49267(18) 0.31338(6)
O4F O 0.8111(2) 0.25482(18) -0.15532(6)
O4A O 0.3111(2) 0.24518(18) 0.34468(6)
O5F O 0.9698(2) 0.18519(18) -0.02494(6)
N1F N 0.6692(3) 0.1148(2) -0.05668(7)
C1F C 0.8195(3) 0.1002(3) -0.15089(8)
C2F C 0.7293(3) 0.0063(3) -0.10203(8)
H1F H 0.8224 -0.0755 -0.0855
H2F H 0.6178 -0.0570 -0.1179
C3F C 0.7955(3) 0.1946(3) -0.02233(8)
H3F H 0.557(4) 0.122(3) -0.0517(10)
H5A H 0.829(4) 0.219(4) 0.3071(12)
H6A H 0.423(4) -0.032(4) 0.2659(12)
H8A H 0.771(4) 0.342(4) 0.3355(13)
O6 O 0.2392(2) 0.4503(2) 0.08958(7)
H4 H 0.327(4) 0.423(4) 0.0727(12)
H7 H 0.253(4) 0.541(4) 0.1036(13)
loop_
_geom_bond_atom_site_label_1
_geom_bond_atom_site_label_2
_geom_bond_site_symmetry_1
_geom_bond_site_symmetry_2
Cd1 O1 1_555 1_555
O1 H5 1_555 1_555
O2 Cd1 1_555 1_555
O3 Cd1 1_555 1_555
O4 Cd1 1_555 1_555
O5 C3 1_555 1_555
O6 H4 1_555 1_555
N1 C2 1_555 1_555
C1 O3 1_555 1_555
C2 C1 1_555 1_555
H1 C2 1_555 1_555
H2 C2 1_555 1_555
C3 N1 1_555 1_555
H3 N1 1_555 1_555
H6 O2 1_555 1_555
H7 O6 1_555 1_555
H8 O1 1_555 1_555
Cd1F O3F 1_555 1_555
O1A Cd1 1_555 1_555
O3F C1F 1_555 1_555
O3A Cd1 1_555 1_555
O4F Cd1F 1_555 1_555
O4A Cd1 1_555 1_555
O5F C3F 1_555 1_555
N1F C2F 1_555 1_555
C1F O4F 1_555 1_555
C2F C1F 1_555 1_555
H1F C2F 1_555 1_555
H2F C2F 1_555 1_555
C3F C3 1_555 1_555
H3F N1F 1_555 1_555
H5A O1A 1_555 1_555
H6A O2 1_555 1_555
H8A O1A 1_555 1_555
O4 C1 1_555 1_555
N1F C3F 1_555 1_555

#END
