
#######################################################################
#
#                 Cambridge Crystallographic Data Centre
#                                CCDC 
#
#######################################################################
#
# If this CIF has been generated from an entry in the Cambridge 
# Structural Database, then it will include bibliographic, chemical, 
# crystal, experimental, refinement or atomic coordinate data resulting 
# from the CCDC's data processing and validation procedures.
#
#######################################################################

data_DUPVER
_symmetry_cell_setting           monoclinic
_symmetry_space_group_name_H-M   'P 21/n'
_symmetry_Int_Tables_number      14
_space_group_name_Hall           '-P 2yn'
loop_
_symmetry_equiv_pos_site_id
_symmetry_equiv_pos_as_xyz
1 x,y,z
2 1/2-x,1/2+y,1/2-z
3 -x,-y,-z
4 1/2+x,1/2-y,1/2+z
_cell_length_a                   14.4022(8)
_cell_length_b                   25.9200(12)
_cell_length_c                   17.4395(10)
_cell_angle_alpha                90
_cell_angle_beta                 107.384(6)
_cell_angle_gamma                90
_cell_volume                     6212.89
loop_
_atom_site_label
_atom_site_type_symbol
_atom_site_fract_x
_atom_site_fract_y
_atom_site_fract_z
Zn1 Zn 0.83466(6) 0.00072(3) 0.12570(5)
Zn2 Zn 0.89769(6) 0.06598(3) 0.31073(5)
Zn3 Zn 1.04064(6) 0.31969(3) 0.77347(5)
O1 O 0.9379(5) 0.0707(3) 0.4270(3)
O2 O 1.0464(4) 0.24519(19) 0.7570(3)
O3 O 0.7624(5) 0.4351(3) 0.4838(4)
O4 O 0.9232(4) 0.3584(2) 0.7441(4)
O5 O 0.5127(4) 0.4171(3) 0.7793(3)
C1 C 0.9442(6) 0.1176(4) 0.4499(5)
C2 C 0.9791(6) 0.1754(3) 0.5685(5)
H1 H 0.9536 0.2026 0.5337
O6 O 0.9725(6) 0.2729(2) 0.6334(4)
O7 O 0.9194(5) 0.1541(3) 0.4027(4)
O8 O 0.4363(4) 0.4450(2) 0.6569(3)
C3 C 0.6055(6) 0.4379(3) 0.6109(5)
H2 H 0.5534 0.4562 0.5776
C4 C 0.5995(6) 0.4183(3) 0.6836(4)
O9 O 0.6372(4) 0.4842(2) 0.4744(3)
C5 C 1.0103(6) 0.2377(3) 0.6811(6)
C6 C 1.0208(5) 0.0859(3) 0.5900(5)
H3 H 1.0219 0.0527 0.5700
C7 C 0.9824(5) 0.1256(3) 0.5377(4)
C8 C 1.0536(5) 0.1440(3) 0.7039(4)
H4 H 1.0767 0.1497 0.7589
C9 C 0.7642(6) 0.4033(3) 0.6385(5)
H5 H 0.8195 0.3974 0.6227
C10 C 1.0139(6) 0.1843(3) 0.6511(5)
C11 C 1.0578(5) 0.0945(3) 0.6719(4)
C12 C 0.6782(6) 0.3916(3) 0.7334(5)
H6 H 0.6742 0.3783 0.7818
C13 C 0.6885(6) 0.4303(3) 0.5881(5)
C14 C 0.5103(6) 0.4276(3) 0.7088(5)
C15 C 0.7613(6) 0.3846(3) 0.7122(5)
O10 O 0.8395(6) 0.3289(4) 0.8195(6)
C16 C 0.6971(7) 0.4507(3) 0.5094(5)
C17 C 0.8476(7) 0.3541(4) 0.7654(6)
N1 N 0.7679(4) 0.0905(2) 0.2469(3)
N2 N 0.7140(4) 0.0393(2) 0.1244(4)
N3 N 0.6313(4) 0.1386(2) 0.2291(3)
N4 N 0.4634(4) 0.1261(3) 0.0708(4)
H7 H 0.4183 0.1192 0.0271
H8 H 0.4564 0.1514 0.1006
C18 C 0.6201(5) 0.1057(3) 0.1641(4)
C19 C 0.7038(5) 0.0759(3) 0.1754(4)
N5 N 0.5509(5) 0.0591(3) 0.0436(4)
C20 C 0.6331(6) 0.0332(3) 0.0611(5)
H9 H 0.6361 0.0073 0.0251
C21 C 0.7202(5) 0.1272(3) 0.2763(4)
H10 H 0.7476 0.1431 0.3257
C22 C 0.5427(5) 0.0982(3) 0.0919(5)
C23 C 1.0995(6) 0.0502(3) 0.7270(5)
O11 O 1.1177(4) 0.0566(2) 0.8011(3)
O12 O 1.1158(5) 0.0100(2) 0.6951(4)
O13 O 1.1080(5) 0.3242(3) 0.8907(4)
H11 H 1.0847 0.3411 0.9307
H12 H 1.1707 0.3099 0.9192
Zn1A Zn 0.66534(6) 0.50072(3) 0.37430(5)
Zn1B Zn 1.16534(6) -0.00072(3) 0.87430(5)
Zn1C Zn 0.33466(6) 0.49928(3) 0.62570(5)
Zn2B Zn 1.10231(6) -0.06598(3) 0.68927(5)
Zn2C Zn 0.39769(6) 0.43402(3) 0.81073(5)
Zn3C Zn 0.54064(6) 0.18031(3) 0.27347(5)
O5C O 1.0127(4) 0.0829(3) 0.2793(3)
O8C O 0.9363(4) 0.0550(2) 0.1569(3)
O9A O 0.8628(4) -0.0158(2) 0.0256(3)
N3C N 1.1313(4) 0.3614(2) 0.7291(3)
O11B O 0.8823(4) -0.0566(2) 0.1989(3)
O12B O 0.8842(5) -0.0100(2) 0.3049(4)
loop_
_geom_bond_atom_site_label_1
_geom_bond_atom_site_label_2
_geom_bond_site_symmetry_1
_geom_bond_site_symmetry_2
Zn1 N2 1_555 1_555
Zn2 O1 1_555 1_555
Zn3 O2 1_555 1_555
O1 C1 1_555 1_555
O2 C5 1_555 1_555
O3 C16 1_555 1_555
O4 Zn3 1_555 1_555
O5 C14 1_555 1_555
C1 O7 1_555 1_555
C2 H1 1_555 1_555
O6 C5 1_555 1_555
O8 C14 1_555 1_555
C3 H2 1_555 1_555
C4 C3 1_555 1_555
O9 C16 1_555 1_555
C5 C10 1_555 1_555
C6 H3 1_555 1_555
C7 C1 1_555 1_555
C8 H4 1_555 1_555
C9 H5 1_555 1_555
C10 C2 1_555 1_555
C11 C6 1_555 1_555
C12 C4 1_555 1_555
H6 C12 1_555 1_555
C13 C3 1_555 1_555
C14 C4 1_555 1_555
C15 C9 1_555 1_555
O10 C17 1_555 1_555
C16 C13 1_555 1_555
C17 O4 1_555 1_555
N1 Zn2 1_555 1_555
N2 C19 1_555 1_555
N3 C18 1_555 1_555
N4 H7 1_555 1_555
H8 N4 1_555 1_555
C18 C19 1_555 1_555
C19 N1 1_555 1_555
N5 C20 1_555 1_555
C20 N2 1_555 1_555
H9 C20 1_555 1_555
C21 N1 1_555 1_555
H10 C21 1_555 1_555
C22 N4 1_555 1_555
C23 C11 1_555 1_555
O11 C23 1_555 1_555
O12 C23 1_555 1_555
O13 Zn3 1_555 1_555
H11 O13 1_555 1_555
H12 O13 1_555 1_555
Zn1A O9 1_555 1_555
Zn1B O11 1_555 1_555
Zn1C O8 1_555 1_555
Zn2B O12 1_555 1_555
Zn2C O5 1_555 1_555
Zn3C N3 1_555 1_555
O5C Zn2 1_555 1_555
O8C Zn1 1_555 1_555
O9A Zn1 1_555 1_555
N3C Zn3 1_555 1_555
O11B Zn1 1_555 1_555
O12B Zn2 1_555 1_555
C2 C7 1_555 1_555
C6 C7 1_555 1_555
C8 C10 1_555 1_555
C8 C11 1_555 1_555
C9 C13 1_555 1_555
C12 C15 1_555 1_555
C15 C17 1_555 1_555
N3 C21 1_555 1_555
C18 C22 1_555 1_555
N5 C22 1_555 1_555

#END
