
#######################################################################
#
#                 Cambridge Crystallographic Data Centre
#                                CCDC 
#
#######################################################################
#
# If this CIF has been generated from an entry in the Cambridge 
# Structural Database, then it will include bibliographic, chemical, 
# crystal, experimental, refinement or atomic coordinate data resulting 
# from the CCDC's data processing and validation procedures.
#
#######################################################################

data_DUPXIW
_symmetry_cell_setting           monoclinic
_symmetry_space_group_name_H-M   'P 21/c'
_symmetry_Int_Tables_number      14
_space_group_name_Hall           '-P 2ybc'
loop_
_symmetry_equiv_pos_site_id
_symmetry_equiv_pos_as_xyz
1 x,y,z
2 -x,1/2+y,1/2-z
3 -x,-y,-z
4 x,1/2-y,1/2+z
_cell_length_a                   8.5321(5)
_cell_length_b                   24.119(2)
_cell_length_c                   16.8800(10)
_cell_angle_alpha                90
_cell_angle_beta                 92.9990(10)
_cell_angle_gamma                90
_cell_volume                     3468.91
loop_
_atom_site_label
_atom_site_type_symbol
_atom_site_fract_x
_atom_site_fract_y
_atom_site_fract_z
Zn1 Zn 0.76884(6) 0.443756(19) 0.75855(3)
Cl1 Cl 0.58239(17) 0.39129(5) 0.81075(9)
Cl2 Cl 0.95928(16) 0.39314(5) 0.70655(9)
N1 N 0.6603(4) 0.49713(13) 0.6803(2)
N2 N 0.5260(4) 0.57190(14) 0.6425(2)
H1 H 0.468(4) 0.6019(11) 0.637(3)
N3 N -0.1295(4) 0.49956(13) 0.8346(2)
N4 N -0.0076(4) 0.57767(15) 0.8695(2)
H2 H 0.042(5) 0.6091(10) 0.864(3)
C1 C 0.6918(5) 0.50889(16) 0.6017(2)
C2 C 0.7893(5) 0.48250(19) 0.5501(3)
H5 H 0.8472 0.4502 0.5655
C3 C 0.7981(6) 0.5056(2) 0.4750(3)
H6 H 0.8641 0.4887 0.4383
C4 C 0.7138(6) 0.5523(2) 0.4520(3)
H7 H 0.7230 0.5667 0.4001
C5 C 0.6168(6) 0.57815(19) 0.5029(3)
H8 H 0.5585 0.6102 0.4872
C6 C 0.6070(5) 0.55583(17) 0.5777(3)
C7 C 0.5620(5) 0.53660(16) 0.7022(3)
C8 C 0.4998(5) 0.54272(18) 0.7826(3)
H9 H 0.5665 0.5696 0.8132
H10 H 0.5093 0.5066 0.8102
C9 C 0.3315(5) 0.56169(18) 0.7834(3)
H11 H 0.3029 0.5665 0.8390
H12 H 0.3214 0.5982 0.7567
C10 C 0.2204(5) 0.5219(2) 0.7431(3)
H13 H 0.2259 0.4864 0.7724
H14 H 0.2556 0.5147 0.6891
C11 C 0.0455(5) 0.54116(19) 0.7360(3)
H15 H 0.0410 0.5796 0.7154
H16 H -0.0131 0.5172 0.6971
C12 C -0.0323(5) 0.53918(16) 0.8124(2)
C13 C -0.1716(5) 0.51441(17) 0.9110(3)
C14 C -0.2741(5) 0.4896(2) 0.9620(3)
H17 H -0.3266 0.4559 0.9486
C15 C -0.2956(6) 0.5164(2) 1.0328(3)
H18 H -0.3652 0.5005 1.0686
C16 C -0.2204(7) 0.5652(2) 1.0538(3)
H19 H -0.2395 0.5822 1.1032
C17 C -0.1178(6) 0.5895(2) 1.0040(3)
H20 H -0.0646 0.6229 1.0182
C18 C -0.0950(5) 0.56348(17) 0.9328(3)
Zn1_2 Zn -0.23116(6) 0.443756(19) 0.75855(3)
N3_2 N 0.8705(4) 0.49956(13) 0.8346(2)
N5 N 0.3642(5) 0.67223(16) 0.6438(2)
N6 N 0.3359(5) 0.76206(16) 0.6609(3)
H3 H 0.360(6) 0.7956(9) 0.677(3)
N7 N 1.1593(5) 0.76918(15) 0.8373(2)
H4 H 1.125(5) 0.8026(9) 0.825(3)
N8 N 1.1417(5) 0.67940(16) 0.8606(2)
C19 C 0.2264(5) 0.68930(18) 0.6044(3)
C20 C 0.1127(7) 0.6592(2) 0.5586(3)
H21 H 0.1210 0.6203 0.5509
C21 C -0.0121(7) 0.6897(3) 0.5254(4)
H22 H -0.0902 0.6711 0.4932
C22 C -0.0268(6) 0.7454(3) 0.5375(4)
H23 H -0.1158 0.7640 0.5141
C23 C 0.0817(6) 0.7754(2) 0.5818(3)
H24 H 0.0705 0.8142 0.5901
C24 C 0.2081(5) 0.74616(18) 0.6138(3)
C25 C 0.4246(6) 0.7171(2) 0.6767(3)
C26 C 0.5745(7) 0.7182(3) 0.7284(4)
H25 H 0.5445 0.7204 0.7842
H26 H 0.6274 0.6821 0.7221
C27 C 0.6908(8) 0.7616(3) 0.7171(5)
H31 H 0.6385 0.7981 0.7125
H32 H 0.7453 0.7546 0.6677
C28 C 0.8063(8) 0.7613(3) 0.7867(5)
H33 H 0.8554 0.7983 0.7933
H34 H 0.7525 0.7523 0.8357
C33 C 0.9271(6) 0.7194(3) 0.7729(4)
H43 H 0.9552 0.7223 0.7169
H44 H 0.8799 0.6823 0.7798
C34 C 1.0769(6) 0.7222(2) 0.8247(3)
C35 C 1.2901(5) 0.75633(18) 0.8853(3)
C36 C 1.4133(6) 0.7881(2) 0.9160(3)
H49 H 1.4210 0.8266 0.9048
C37 C 1.5239(6) 0.7611(2) 0.9633(3)
H50 H 1.6099 0.7816 0.9863
C38 C 1.5145(6) 0.7049(2) 0.9788(3)
H51 H 1.5945 0.6878 1.0115
C39 C 1.3913(6) 0.6729(2) 0.9477(3)
H52 H 1.3850 0.6344 0.9589
C40 C 1.2775(5) 0.69929(18) 0.8997(3)
H27? H 0.6509 0.7328 0.6915
H28? H 0.5552 0.7495 0.7646
H29? H 0.5844 0.7544 0.7561
H30? H 0.5717 0.6887 0.7691
C29? C 0.6698(13) 0.6826(6) 0.7778(11)
H35? H 0.7209 0.6548 0.7447
H36? H 0.6033 0.6626 0.8148
C30? C 0.7909(11) 0.7148(8) 0.8236(7)
H37? H 0.8217 0.6955 0.8738
H38? H 0.7506 0.7520 0.8363
C31? C 0.7118(12) 0.7096(11) 0.6788(7)
H39? H 0.6809 0.6876 0.6310
H40? H 0.7540 0.7457 0.6618
C32? C 0.8301(14) 0.6796(6) 0.7288(14)
H41? H 0.7775 0.6548 0.7659
H42? H 0.8959 0.6566 0.6951
H45? H 0.9167 0.7532 0.7397
H46? H 0.9303 0.6869 0.7372
H47? H 0.8505 0.7369 0.8071
H48? H 0.9465 0.7475 0.7319
loop_
_geom_bond_atom_site_label_1
_geom_bond_atom_site_label_2
_geom_bond_site_symmetry_1
_geom_bond_site_symmetry_2
Zn1 Cl1 1_555 1_555
Cl2 Zn1 1_555 1_555
N1 Zn1 1_555 1_555
N2 H1 1_555 1_555
N3 C12 1_555 1_555
N4 H2 1_555 1_555
N5 C19 1_555 1_555
N6 H3 1_555 1_555
N7 H4 1_555 1_555
N8 C34 1_555 1_555
C1 N1 1_555 1_555
C2 C1 1_555 1_555
H5 C2 1_555 1_555
C3 C2 1_555 1_555
H6 C3 1_555 1_555
C4 C3 1_555 1_555
H7 C4 1_555 1_555
C5 C4 1_555 1_555
H8 C5 1_555 1_555
C6 N2 1_555 1_555
C7 N1 1_555 1_555
C8 C7 1_555 1_555
H9 C8 1_555 1_555
H10 C8 1_555 1_555
C9 C8 1_555 1_555
H11 C9 1_555 1_555
H12 C9 1_555 1_555
C10 C9 1_555 1_555
H13 C10 1_555 1_555
H14 C10 1_555 1_555
C11 C10 1_555 1_555
H15 C11 1_555 1_555
H16 C11 1_555 1_555
C12 N4 1_555 1_555
C13 N3 1_555 1_555
C14 C13 1_555 1_555
H17 C14 1_555 1_555
C15 C14 1_555 1_555
H18 C15 1_555 1_555
C16 C15 1_555 1_555
H19 C16 1_555 1_555
C17 C16 1_555 1_555
H20 C17 1_555 1_555
C18 N4 1_555 1_555
C19 C20 1_555 1_555
C20 H21 1_555 1_555
C21 C20 1_555 1_555
H22 C21 1_555 1_555
C22 C21 1_555 1_555
H23 C22 1_555 1_555
C23 C22 1_555 1_555
H24 C23 1_555 1_555
C24 N6 1_555 1_555
C25 N5 1_555 1_555
C26 C25 1_555 1_555
H25 C26 1_555 1_555
H26 C26 1_555 1_555
C27 C26 1_555 1_555
H31 C27 1_555 1_555
H32 C27 1_555 1_555
C28 C27 1_555 1_555
H33 C28 1_555 1_555
H34 C28 1_555 1_555
C33 C28 1_555 1_555
H43 C33 1_555 1_555
H44 C33 1_555 1_555
C34 N7 1_555 1_555
C35 N7 1_555 1_555
C36 C35 1_555 1_555
H49 C36 1_555 1_555
C37 C36 1_555 1_555
H50 C37 1_555 1_555
C38 C37 1_555 1_555
H51 C38 1_555 1_555
C39 C38 1_555 1_555
H52 C39 1_555 1_555
C40 N8 1_555 1_555
Zn1_2 N3 1_555 1_555
N3_2 Zn1 1_555 1_555
N2 C7 1_555 1_555
N6 C25 1_555 1_555
C1 C6 1_555 1_555
C5 C6 1_555 1_555
C11 C12 1_555 1_555
C13 C18 1_555 1_555
C17 C18 1_555 1_555
C19 C24 1_555 1_555
C23 C24 1_555 1_555
C33 C34 1_555 1_555
C35 C40 1_555 1_555
C39 C40 1_555 1_555

#END
