
#######################################################################
#
#                 Cambridge Crystallographic Data Centre
#                                CCDC 
#
#######################################################################
#
# If this CIF has been generated from an entry in the Cambridge 
# Structural Database, then it will include bibliographic, chemical, 
# crystal, experimental, refinement or atomic coordinate data resulting 
# from the CCDC's data processing and validation procedures.
#
#######################################################################

data_DUPYUK
_symmetry_cell_setting           triclinic
_symmetry_space_group_name_H-M   'P -1'
_symmetry_Int_Tables_number      2
_space_group_name_Hall           '-P 1'
loop_
_symmetry_equiv_pos_site_id
_symmetry_equiv_pos_as_xyz
1 x,y,z
2 -x,-y,-z
_cell_length_a                   11.4193(7)
_cell_length_b                   12.3706(9)
_cell_length_c                   20.6069(15)
_cell_angle_alpha                95.112(6)
_cell_angle_beta                 101.921(5)
_cell_angle_gamma                116.803(5)
_cell_volume                     2486.25
loop_
_atom_site_label
_atom_site_type_symbol
_atom_site_fract_x
_atom_site_fract_y
_atom_site_fract_z
C1 C 0.8904(9) 0.4541(9) 0.4189(4)
H1 H 0.9735 0.5086 0.4091
H2 H 0.8712 0.5000 0.4513
H3 H 0.9005 0.3891 0.4372
C2 C 0.6504(7) 0.3190(6) 0.3626(3)
C3 C 0.6084(9) 0.3250(8) 0.4191(4)
H4 H 0.6668 0.3853 0.4579
C4 C 0.4750(11) 0.2387(11) 0.4179(5)
H5 H 0.4446 0.2391 0.4564
C5 C 0.3907(9) 0.1540(10) 0.3593(4)
H6 H 0.3013 0.0992 0.3581
C6 C 0.4338(7) 0.1469(7) 0.3012(4)
C7 C 0.5660(6) 0.2341(6) 0.3013(3)
C8 C 0.3420(7) 0.0495(8) 0.2438(4)
H7 H 0.2601 -0.0073 0.2504
C9 C 0.2493(10) -0.0895(9) 0.1408(6)
H8 H 0.2805 -0.1502 0.1458
H9 H 0.1679 -0.1171 0.1564
C10 C 0.2129(13) -0.0885(12) 0.0711(7)
H10 H 0.1706 -0.0359 0.0667
H11 H 0.1422 -0.1719 0.0484
C11 C 0.3123(8) -0.0504(8) 0.0324(4)
H12 H 0.2657 -0.0657 -0.0151
H13 H 0.3593 -0.0990 0.0368
C12 C 0.4343(7) 0.1467(7) 0.0113(3)
H14 H 0.3828 0.1046 -0.0329
C13 C 0.5281(8) 0.2767(8) 0.0196(3)
C14 C 0.5165(10) 0.3293(10) -0.0366(4)
H15 H 0.4518 0.2801 -0.0773
C15 C 0.5989(12) 0.4521(11) -0.0330(4)
H16 H 0.5904 0.4861 -0.0710
C16 C 0.6954(10) 0.5266(9) 0.0275(4)
H17 H 0.7524 0.6101 0.0297
C17 C 0.7067(7) 0.4772(7) 0.0839(3)
C18 C 0.6239(6) 0.3494(6) 0.0818(3)
C19 C 0.8908(10) 0.6707(7) 0.1502(5)
H18 H 0.9453 0.7096 0.1962
H19 H 0.9487 0.6716 0.1223
H20 H 0.8438 0.7150 0.1341
C20 C 0.4624(7) 0.4040(8) 0.1956(4)
H21 H 0.4623 0.3545 0.1570
H22 H 0.3983 0.3516 0.2176
H23 H 0.4368 0.4638 0.1812
C21 C 0.6112(7) 0.5420(7) 0.3008(3)
C22 C 0.5059(9) 0.5385(9) 0.3246(4)
H24 H 0.4159 0.4815 0.3015
C23 C 0.5353(10) 0.6211(11) 0.3836(5)
H25 H 0.4644 0.6202 0.3994
C24 C 0.6679(10) 0.7037(10) 0.4185(5)
H26 H 0.6862 0.7588 0.4578
C25 C 0.7769(8) 0.7059(8) 0.3955(4)
C26 C 0.7489(7) 0.6248(6) 0.3368(3)
C27 C 0.9121(9) 0.7896(9) 0.4379(4)
H27 H 0.9175 0.8400 0.4759
C28 C 1.1504(12) 0.8964(13) 0.4822(6)
C29 C 1.3311(9) 0.8804(9) 0.4446(4)
H28 H 1.1826 0.9751 0.4680
H29 H 1.1272 0.9069 0.5241
C30 C 1.2594(17) 0.8681(16) 0.4957(7)
H30 H 1.2233 0.7836 0.5023
H31 H 1.3248 0.9217 0.5381
H32 H 1.4091 0.8681 0.4615
H33 H 1.3655 0.9641 0.4368
C31 C 1.3116(7) 0.7790(7) 0.3389(4)
H34 H 1.4058 0.8296 0.3534
C32 C 1.2605(7) 0.6974(7) 0.2746(4)
C33 C 1.3556(7) 0.7072(8) 0.2377(5)
H35 H 1.4462 0.7687 0.2550
C34 C 1.3180(9) 0.6299(9) 0.1785(5)
H36 H 1.3808 0.6404 0.1540
C35 C 1.1818(8) 0.5320(8) 0.1535(4)
H37 H 1.1560 0.4762 0.1132
C36 C 1.0882(7) 0.5195(6) 0.1886(4)
C37 C 1.1239(6) 0.6023(6) 0.2490(3)
C38 C 0.9189(9) 0.3239(8) 0.1159(5)
H38 H 0.8235 0.2660 0.1060
H39 H 0.9385 0.3530 0.0757
H40 H 0.9716 0.2840 0.1310
C39 C 0.9921(6) 0.9268(5) 0.2761(3)
C40 C 0.7348(6) 0.8374(6) 0.2202(4)
C41 C 0.7107(6) 1.0290(6) 0.1828(3)
C42 C 0.8990(7) 1.2101(6) 0.2701(4)
C43 C 0.8901(7) 0.9726(8) 0.1494(3)
C44 C 1.0747(8) 1.1564(8) 0.2361(5)
C45 C 1.0144(9) 1.1116(8) 0.3522(4)
C46 C 0.7494(7) 0.9986(7) 0.3154(4)
Cu1 Cu 0.50807(7) 0.14786(7) 0.15477(4)
Cu2 Cu 1.04342(8) 0.71940(7) 0.34950(4)
Tb1 Tb 0.79705(3) 0.43318(3) 0.24133(2)
Mo1 Mo 0.88328(5) 1.02915(5) 0.25059(3)
N1 N 0.3556(6) 0.0293(5) 0.1856(3)
N2 N 0.4129(6) 0.0824(5) 0.0564(3)
N3 N 1.0249(7) 0.8039(7) 0.4302(3)
N4 N 1.2460(6) 0.7923(5) 0.3796(3)
N5 N 1.0481(6) 0.8729(5) 0.2910(3)
N6 N 0.6531(6) 0.7330(6) 0.2033(3)
N7 N 0.6222(6) 1.0344(6) 0.1505(3)
N8 N 0.9025(6) 1.3047(6) 0.2763(3)
N9 N 0.8913(8) 0.9401(9) 0.0960(4)
N10 N 1.1734(9) 1.2235(9) 0.2248(7)
N11 N 1.0908(9) 1.1576(9) 0.4053(4)
N12 N 0.6749(8) 0.9812(8) 0.3478(4)
O1 O 0.7796(5) 0.4011(5) 0.3574(2)
O2 O 0.6122(4) 0.2422(4) 0.2475(2)
O3 O 0.6438(4) 0.3075(4) 0.1372(2)
O4 O 0.7919(5) 0.5438(4) 0.1475(2)
O5 O 0.5971(4) 0.4670(4) 0.2425(2)
O6 O 0.8461(4) 0.6182(4) 0.3111(2)
O7 O 1.0262(4) 0.5876(4) 0.2796(2)
O8 O 0.9536(5) 0.4267(4) 0.1680(2)
Cu1_2 Cu 0.50807(7) 1.14786(7) 0.15477(4)
Tb1_2 Tb 0.79705(3) 1.43318(3) 0.24133(2)
N7_2 N 0.6222(6) 0.0344(6) 0.1505(3)
N8_2 N 0.9025(6) 0.3047(6) 0.2763(3)
O9 O 0.8566(17) 0.7883(12) -0.0464(8)
O10 O 0.7969(16) 0.5516(14) 0.5807(11)
H41? H 1.1294 0.9595 0.4989
H42? H 1.1593 0.8550 0.5193
C47? C 1.265(2) 0.953(2) 0.4758(10)
H43? H 1.3261 1.0003 0.5203
H44? H 1.2653 1.0123 0.4480
H45? H 1.4168 0.9402 0.4381
H46? H 1.3521 0.8353 0.4772
loop_
_geom_bond_atom_site_label_1
_geom_bond_atom_site_label_2
_geom_bond_site_symmetry_1
_geom_bond_site_symmetry_2
C1 H1 1_555 1_555
H2 C1 1_555 1_555
H3 C1 1_555 1_555
C2 C3 1_555 1_555
C3 H4 1_555 1_555
C4 C3 1_555 1_555
H5 C4 1_555 1_555
C5 C4 1_555 1_555
H6 C5 1_555 1_555
C6 C5 1_555 1_555
C7 C2 1_555 1_555
C8 C6 1_555 1_555
H7 C8 1_555 1_555
C9 H8 1_555 1_555
H9 C9 1_555 1_555
C10 C9 1_555 1_555
H10 C10 1_555 1_555
H11 C10 1_555 1_555
C11 C10 1_555 1_555
H12 C11 1_555 1_555
H13 C11 1_555 1_555
C12 H14 1_555 1_555
C13 C12 1_555 1_555
C14 C13 1_555 1_555
H15 C14 1_555 1_555
C15 C14 1_555 1_555
H16 C15 1_555 1_555
C16 C15 1_555 1_555
H17 C16 1_555 1_555
C17 C16 1_555 1_555
C18 C13 1_555 1_555
C19 H18 1_555 1_555
H19 C19 1_555 1_555
H20 C19 1_555 1_555
C20 H21 1_555 1_555
H22 C20 1_555 1_555
H23 C20 1_555 1_555
C21 C22 1_555 1_555
C22 H24 1_555 1_555
C23 C22 1_555 1_555
H25 C23 1_555 1_555
C24 C23 1_555 1_555
H26 C24 1_555 1_555
C25 C24 1_555 1_555
C26 C21 1_555 1_555
C27 C25 1_555 1_555
H27 C27 1_555 1_555
C28 H28 1_555 1_555
C29 C30 1_555 1_555
H29 C28 1_555 1_555
C30 C28 1_555 1_555
H30 C30 1_555 1_555
H31 C30 1_555 1_555
H32 C29 1_555 1_555
H33 C29 1_555 1_555
C31 H34 1_555 1_555
C32 C31 1_555 1_555
C33 C32 1_555 1_555
H35 C33 1_555 1_555
C34 C33 1_555 1_555
H36 C34 1_555 1_555
C35 C34 1_555 1_555
H37 C35 1_555 1_555
C36 C35 1_555 1_555
C37 C32 1_555 1_555
C38 H38 1_555 1_555
H39 C38 1_555 1_555
H40 C38 1_555 1_555
C39 Mo1 1_555 1_555
C40 Mo1 1_555 1_555
C41 Mo1 1_555 1_555
C42 Mo1 1_555 1_555
C43 Mo1 1_555 1_555
C44 Mo1 1_555 1_555
C45 Mo1 1_555 1_555
C46 Mo1 1_555 1_555
Cu1 N1 1_555 1_555
Cu2 N3 1_555 1_555
Tb1 O1 1_555 1_555
N1 C8 1_555 1_555
N2 C11 1_555 1_555
N3 C27 1_555 1_555
N4 C29 1_555 1_555
N5 C39 1_555 1_555
N6 C40 1_555 1_555
N7 C41 1_555 1_555
N8 C42 1_555 1_555
N9 C43 1_555 1_555
N10 C44 1_555 1_555
N11 C45 1_555 1_555
N12 C46 1_555 1_555
O1 C1 1_555 1_555
O2 C7 1_555 1_555
O3 C18 1_555 1_555
O4 C17 1_555 1_555
O5 C20 1_555 1_555
O6 C26 1_555 1_555
O7 C37 1_555 1_555
O8 C36 1_555 1_555
Cu1_2 N7 1_555 1_555
Tb1_2 N8 1_555 1_555
N7_2 Cu1 1_555 1_555
N8_2 Tb1 1_555 1_555
C2 O1 1_555 1_555
C6 C7 1_555 1_555
C9 N1 1_555 1_555
C12 N2 1_555 1_555
C17 C18 1_555 1_555
C19 O4 1_555 1_555
C21 O5 1_555 1_555
C25 C26 1_555 1_555
C28 N3 1_555 1_555
C31 N4 1_555 1_555
C36 C37 1_555 1_555
C38 O8 1_555 1_555
Cu1 N2 1_555 1_555
Cu1 O2 1_555 1_555
Cu1 O3 1_555 1_555
Cu2 N4 1_555 1_555
Cu2 N5 1_555 1_555
Cu2 O6 1_555 1_555
Cu2 O7 1_555 1_555
Tb1 O2 1_555 1_555
Tb1 O3 1_555 1_555
Tb1 O4 1_555 1_555
Tb1 O5 1_555 1_555
Tb1 O6 1_555 1_555
Tb1 O7 1_555 1_555
Tb1 O8 1_555 1_555

#END
