
#######################################################################
#
#                 Cambridge Crystallographic Data Centre
#                                CCDC 
#
#######################################################################
#
# If this CIF has been generated from an entry in the Cambridge 
# Structural Database, then it will include bibliographic, chemical, 
# crystal, experimental, refinement or atomic coordinate data resulting 
# from the CCDC's data processing and validation procedures.
#
#######################################################################

data_DUQBUN
_symmetry_cell_setting           triclinic
_symmetry_space_group_name_H-M   'P -1'
_symmetry_Int_Tables_number      2
_space_group_name_Hall           '-P 1'
loop_
_symmetry_equiv_pos_site_id
_symmetry_equiv_pos_as_xyz
1 x,y,z
2 -x,-y,-z
_cell_length_a                   9.3723(6)
_cell_length_b                   10.9947(7)
_cell_length_c                   11.1704(8)
_cell_angle_alpha                109.9700(10)
_cell_angle_beta                 90.1900(10)
_cell_angle_gamma                110.7270(10)
_cell_volume                     1001.68
loop_
_atom_site_label
_atom_site_type_symbol
_atom_site_fract_x
_atom_site_fract_y
_atom_site_fract_z
Ni1 Ni -0.10441(3) 0.65566(2) 0.40788(2)
O1 O 0.08218(16) 0.83742(14) 0.52003(14)
O2 O 0.12955(16) 0.65335(15) 0.40496(14)
O3 O 0.72083(17) 0.72162(16) 0.46313(14)
O4 O 0.7598(2) 0.76834(19) 0.67483(15)
O5 O 0.7148(2) 1.2514(2) 0.8534(2)
O6 O 0.4914(3) 1.2513(2) 0.8145(3)
O7 O -0.10853(19) 0.59321(17) 0.56426(15)
H1 H -0.1478 0.6361 0.6203
N1 N -0.2423(2) 0.45995(18) 0.28631(17)
N2 N -0.0886(2) 0.73429(18) 0.26156(16)
N3 N 0.5841(2) 1.1956(2) 0.79624(19)
C1 C 0.1744(2) 0.7762(2) 0.48722(19)
C2 C 0.3389(2) 0.8505(2) 0.55081(19)
C3 C 0.4422(2) 0.7831(2) 0.52789(19)
H2 H 0.4126 0.6938 0.4655
C4 C 0.5902(2) 0.8484(2) 0.59767(18)
C5 C 0.6353(2) 0.9824(2) 0.6881(2)
H3 H 0.7322 1.0259 0.7372
C6 C 0.5339(2) 1.0506(2) 0.70426(19)
C7 C 0.3861(2) 0.9872(2) 0.63851(19)
H4 H 0.3195 1.0348 0.6525
C8 C 0.6993(2) 0.7724(2) 0.57767(19)
C9 C -0.1887(3) 0.3572(2) 0.2488(2)
H5 H -0.0886 0.3762 0.2815
C10 C -0.2739(3) 0.2259(2) 0.1648(2)
H6 H -0.2310 0.1581 0.1412
C11 C -0.4237(3) 0.1925(2) 0.1143(2)
C12 C -0.4787(3) 0.2997(3) 0.1542(2)
H7 H -0.5788 0.2831 0.1235
C13 C -0.3868(3) 0.4297(2) 0.2382(2)
H8 H -0.4263 0.4998 0.2628
C14 C -0.5208(3) 0.0535(3) 0.0252(2)
C15 C -0.0938(3) 0.6642(2) 0.1362(2)
H9 H -0.1075 0.5704 0.1097
C16 C -0.0798(3) 0.7238(3) 0.0449(2)
H10 H -0.0861 0.6701 -0.0412
C17 C -0.0564(3) 0.8640(2) 0.0810(2)
C18 C -0.0545(2) 0.9364(2) 0.2110(2)
H11 H -0.0422 1.0300 0.2400
C19 C -0.0710(2) 0.8682(2) 0.2961(2)
H12 H -0.0697 0.9182 0.3824
C20 C -0.0330(3) 0.9319(2) -0.0139(2)
H13 H -0.0673 0.8748 -0.1000
H14 H -0.618(3) 0.041(3) 0.004(3)
H15 H -0.133(3) 0.5144(15) 0.564(3)
Ni1_2 Ni -1.10441(3) 0.65566(2) 0.40788(2)
Ni1_3 Ni 0.89559(3) 0.65566(2) 0.40788(2)
Ni1A Ni -0.89559(3) -0.65566(2) -0.40788(2)
Ni1A_2 Ni 0.10441(3) 1.34434(2) -0.40788(2)
O1_2 O -0.91782(16) 0.83742(14) 0.52003(14)
O2_2 O -0.87045(16) 0.65335(15) 0.40496(14)
O3_2 O -0.27917(17) 0.72162(16) 0.46313(14)
O3_3 O -1.27917(17) 0.72162(16) 0.46313(14)
O4_2 O -0.2402(2) 0.76834(19) 0.67483(15)
O5_2 O -0.2852(2) 1.2514(2) 0.8534(2)
O6_2 O -0.5086(3) 1.2513(2) 0.8145(3)
O7_2 O -1.10853(19) 0.59321(17) 0.56426(15)
H1_2 H -1.1478 0.6361 0.6203
N1A N -0.7577(2) -0.45995(18) -0.28631(17)
N1_2 N -1.2423(2) 0.45995(18) 0.28631(17)
N2A N 0.0886(2) 1.26571(18) -0.26156(16)
N2_2 N -1.0886(2) 0.73429(18) 0.26156(16)
N3_2 N -0.4159(2) 1.1956(2) 0.79624(19)
C1_2 C -0.8256(2) 0.7762(2) 0.48722(19)
C2_2 C -0.6611(2) 0.8505(2) 0.55081(19)
C3_2 C -0.5578(2) 0.7831(2) 0.52789(19)
H2_2 H -0.5874 0.6938 0.4655
C4_2 C -0.4098(2) 0.8484(2) 0.59767(18)
C5_2 C -0.3647(2) 0.9824(2) 0.6881(2)
H3_2 H -0.2678 1.0259 0.7372
C6_2 C -0.4661(2) 1.0506(2) 0.70426(19)
C7_2 C -0.6139(2) 0.9872(2) 0.63851(19)
H4_2 H -0.6805 1.0348 0.6525
C8_2 C -0.3007(2) 0.7724(2) 0.57767(19)
C9A C -0.8113(3) -0.3572(2) -0.2488(2)
H5A H -0.9114 -0.3762 -0.2815
C10A C -0.7261(3) -0.2259(2) -0.1648(2)
H6A H -0.7690 -0.1581 -0.1412
C11A C -0.5763(3) -0.1925(2) -0.1143(2)
C12A C -0.5213(3) -0.2997(3) -0.1542(2)
H7A H -0.4212 -0.2831 -0.1235
C13A C -0.6132(3) -0.4297(2) -0.2382(2)
H8A H -0.5737 -0.4998 -0.2628
C14A C -0.4792(3) -0.0535(3) -0.0252(2)
C15A C 0.0938(3) 1.3358(2) -0.1362(2)
H9A H 0.1075 1.4296 -0.1097
C16A C 0.0798(3) 1.2762(3) -0.0449(2)
H10A H 0.0861 1.3299 0.0412
C17A C 0.0564(3) 1.1360(2) -0.0810(2)
C18A C 0.0545(2) 1.0636(2) -0.2110(2)
H11A H 0.0422 0.9700 -0.2400
C19A C 0.0710(2) 1.1318(2) -0.2961(2)
H12A H 0.0697 1.0818 -0.3824
C20A C 0.0330(3) 1.0681(2) 0.0139(2)
H13A H 0.0673 1.1252 0.1000
H14A H -0.382(3) -0.041(3) -0.004(3)
H15_2 H -1.133(3) 0.5144(15) 0.564(3)
loop_
_geom_bond_atom_site_label_1
_geom_bond_atom_site_label_2
_geom_bond_site_symmetry_1
_geom_bond_site_symmetry_2
Ni1 O1 1_555 1_555
O1 C1 1_555 1_555
O2 Ni1 1_555 1_555
O3 C8 1_555 1_555
O4 C8 1_555 1_555
O5 N3 1_555 1_555
O6 N3 1_555 1_555
O7 Ni1 1_555 1_555
H1 O7 1_555 1_555
N1 Ni1 1_555 1_555
N2 Ni1 1_555 1_555
N3 C6 1_555 1_555
C1 O2 1_555 1_555
C2 C1 1_555 1_555
C3 C2 1_555 1_555
H2 C3 1_555 1_555
C4 C3 1_555 1_555
C5 C4 1_555 1_555
H3 C5 1_555 1_555
C6 C5 1_555 1_555
C7 C2 1_555 1_555
H4 C7 1_555 1_555
C8 C4 1_555 1_555
C9 N1 1_555 1_555
H5 C9 1_555 1_555
C10 C9 1_555 1_555
H6 C10 1_555 1_555
C11 C10 1_555 1_555
C12 C11 1_555 1_555
H7 C12 1_555 1_555
C13 N1 1_555 1_555
H8 C13 1_555 1_555
C14 C11 1_555 1_555
C15 N2 1_555 1_555
H9 C15 1_555 1_555
C16 C15 1_555 1_555
H10 C16 1_555 1_555
C17 C16 1_555 1_555
C18 C17 1_555 1_555
H11 C18 1_555 1_555
C19 N2 1_555 1_555
H12 C19 1_555 1_555
C20 C17 1_555 1_555
H13 C20 1_555 1_555
H14 C14 1_555 1_555
H15 O7 1_555 1_555
Ni1_2 O1_2 1_555 1_555
Ni1_3 O3 1_555 1_555
Ni1A N1A 1_555 1_555
Ni1A_2 N2A 1_555 1_555
O1_2 C1_2 1_555 1_555
O2_2 Ni1_2 1_555 1_555
O3_2 Ni1 1_555 1_555
O3_3 Ni1_2 1_555 1_555
O4_2 C8_2 1_555 1_555
O5_2 N3_2 1_555 1_555
O6_2 N3_2 1_555 1_555
O7_2 Ni1_2 1_555 1_555
H1_2 O7_2 1_555 1_555
N1A C9A 1_555 1_555
N1_2 Ni1_2 1_555 1_555
N2A C15A 1_555 1_555
N2_2 Ni1_2 1_555 1_555
N3_2 C6_2 1_555 1_555
C1_2 O2_2 1_555 1_555
C2_2 C1_2 1_555 1_555
C3_2 C2_2 1_555 1_555
H2_2 C3_2 1_555 1_555
C4_2 C3_2 1_555 1_555
C5_2 C4_2 1_555 1_555
H3_2 C5_2 1_555 1_555
C6_2 C5_2 1_555 1_555
C7_2 C2_2 1_555 1_555
H4_2 C7_2 1_555 1_555
C8_2 O3_2 1_555 1_555
C9A H5A 1_555 1_555
C10A C9A 1_555 1_555
H6A C10A 1_555 1_555
C11A C10A 1_555 1_555
C12A C11A 1_555 1_555
H7A C12A 1_555 1_555
C13A N1A 1_555 1_555
H8A C13A 1_555 1_555
C14A C14 1_555 1_555
C15A H9A 1_555 1_555
C16A C15A 1_555 1_555
H10A C16A 1_555 1_555
C17A C16A 1_555 1_555
C18A C17A 1_555 1_555
H11A C18A 1_555 1_555
C19A N2A 1_555 1_555
H12A C19A 1_555 1_555
C20A C20 1_555 1_555
H13A C20A 1_555 1_555
H14A C14A 1_555 1_555
H15_2 O7_2 1_555 1_555
C6 C7 1_555 1_555
C12 C13 1_555 1_555
C18 C19 1_555 1_555
C4_2 C8_2 1_555 1_555
C6_2 C7_2 1_555 1_555
C11A C14A 1_555 1_555
C12A C13A 1_555 1_555
C17A C20A 1_555 1_555
C18A C19A 1_555 1_555

#END
