
#######################################################################
#
#                 Cambridge Crystallographic Data Centre
#                                CCDC 
#
#######################################################################
#
# If this CIF has been generated from an entry in the Cambridge 
# Structural Database, then it will include bibliographic, chemical, 
# crystal, experimental, refinement or atomic coordinate data resulting 
# from the CCDC's data processing and validation procedures.
#
#######################################################################

data_DUQCIC
_symmetry_cell_setting           monoclinic
_symmetry_space_group_name_H-M   'P 21/c'
_symmetry_Int_Tables_number      14
_space_group_name_Hall           '-P 2ybc'
loop_
_symmetry_equiv_pos_site_id
_symmetry_equiv_pos_as_xyz
1 x,y,z
2 -x,1/2+y,1/2-z
3 -x,-y,-z
4 x,1/2-y,1/2+z
_cell_length_a                   8.3037(13)
_cell_length_b                   20.376(3)
_cell_length_c                   8.4261(11)
_cell_angle_alpha                90
_cell_angle_beta                 104.390(4)
_cell_angle_gamma                90
_cell_volume                     1380.94
loop_
_atom_site_label
_atom_site_type_symbol
_atom_site_fract_x
_atom_site_fract_y
_atom_site_fract_z
Co1 Co 0.0000 0.5000 0.5000
O1 O 0.25015(18) 0.50405(7) 0.6333(2)
O2 O 0.48900(19) 0.54314(9) 0.7278(2)
N1 N 0.1620(2) 0.57944(8) 0.0939(2)
N2 N -0.0036(2) 0.58502(11) 0.0290(2)
N3 N 0.0484(2) 0.54604(8) 0.2865(2)
N4 N 0.8222(2) 0.83452(8) 0.2102(2)
N5 N 0.9542(2) 0.80233(9) 0.1784(2)
N6 N 0.93982(19) 0.90596(8) 0.08323(19)
N7 N 0.3509(2) 0.54893(10) 0.6299(2)
C1 C 0.3965(2) 0.65065(10) 0.0737(2)
C2 C 0.5418(3) 0.63661(11) 0.1894(3)
H1 H 0.5699 0.5923 0.2188
C3 C 0.6470(3) 0.68667(11) 0.2632(3)
H2 H 0.7471 0.6762 0.3419
C4 C 0.6084(3) 0.75136(10) 0.2239(2)
C5 C 0.4628(3) 0.76574(11) 0.1061(3)
H3 H 0.4353 0.8101 0.0766
C6 C 0.3576(3) 0.71570(11) 0.0315(3)
H4 H 0.2585 0.7260 -0.0488
C7 C 0.2823(3) 0.59545(11) -0.0029(3)
H5 H 0.2214 0.6082 -0.1151
H6 H 0.3494 0.5560 -0.0112
C8 C 0.7201(3) 0.80549(11) 0.3108(3)
H7 H 0.6508 0.8403 0.3425
H8 H 0.7939 0.7877 0.4125
C9 C -0.0655(3) 0.56403(12) 0.1496(3)
H9 H -0.1817 0.5618 0.1406
C10 C 0.1907(3) 0.55662(11) 0.2456(2)
H10 H 0.2979 0.5489 0.3153
C11 C 1.0198(3) 0.84752(10) 0.1016(3)
H11 H 1.1157 0.8397 0.0621
C12 C 0.8157(2) 0.89541(10) 0.1543(2)
H12 H 0.7344 0.9270 0.1635
Co1A Co 1.0000 1.0000 0.0000
Co1A_2 Co 1.0000 0.0000 0.0000
O1B O -0.25015(18) 0.49595(7) 0.3667(2)
O2B O -0.48900(19) 0.45686(9) 0.2722(2)
N1A N 0.8380(2) 0.07944(8) 0.4061(2)
N2A N 1.0036(2) 0.08502(11) 0.4710(2)
N3A N 0.9516(2) 0.04604(8) 0.2135(2)
N3B N -0.0484(2) 0.45396(8) 0.7135(2)
N4A N 0.1778(2) 0.33452(8) 0.2898(2)
N5A N 0.0458(2) 0.30233(9) 0.3216(2)
N6A N 0.06018(19) 0.40596(8) 0.41677(19)
N6C N -0.06018(19) 0.59404(8) 0.58323(19)
N7B N -0.3509(2) 0.45107(10) 0.3701(2)
C1A C 0.6035(2) 0.15065(10) 0.4263(2)
C2A C 0.4582(3) 0.13661(11) 0.3106(3)
H1A H 0.4301 0.0923 0.2812
C3A C 0.3530(3) 0.18667(11) 0.2368(3)
H2A H 0.2529 0.1762 0.1581
C4A C 0.3916(3) 0.25136(10) 0.2761(2)
C5A C 0.5372(3) 0.26574(11) 0.3939(3)
H3A H 0.5647 0.3101 0.4234
C6A C 0.6424(3) 0.21570(11) 0.4685(3)
H4A H 0.7415 0.2260 0.5488
C7A C 0.7177(3) 0.09545(11) 0.5029(3)
H5A H 0.7786 0.1082 0.6151
H6A H 0.6506 0.0560 0.5112
C8A C 0.2799(3) 0.30549(11) 0.1892(3)
H7A H 0.3492 0.3403 0.1575
H8A H 0.2061 0.2877 0.0875
C9A C 1.0655(3) 0.06403(12) 0.3504(3)
H9A H 1.1817 0.0618 0.3594
C10A C 0.8093(3) 0.05662(11) 0.2544(2)
H10A H 0.7021 0.0489 0.1847
C11A C -0.0198(3) 0.34752(10) 0.3984(3)
H11A H -0.1157 0.3397 0.4379
C12A C 0.1843(2) 0.39541(10) 0.3457(2)
H12A H 0.2656 0.4270 0.3365
loop_
_geom_bond_atom_site_label_1
_geom_bond_atom_site_label_2
_geom_bond_site_symmetry_1
_geom_bond_site_symmetry_2
Co1 O1 1_555 1_555
O1 N7 1_555 1_555
O2 N7 1_555 1_555
N1 N2 1_555 1_555
N2 C9 1_555 1_555
N3 Co1 1_555 1_555
N4 N5 1_555 1_555
N5 C11 1_555 1_555
N6 C11 1_555 1_555
C1 C2 1_555 1_555
C2 H1 1_555 1_555
C3 C2 1_555 1_555
H2 C3 1_555 1_555
C4 C3 1_555 1_555
C5 C4 1_555 1_555
H3 C5 1_555 1_555
C6 C1 1_555 1_555
H4 C6 1_555 1_555
C7 N1 1_555 1_555
H5 C7 1_555 1_555
H6 C7 1_555 1_555
C8 N4 1_555 1_555
H7 C8 1_555 1_555
H8 C8 1_555 1_555
C9 N3 1_555 1_555
H9 C9 1_555 1_555
C10 N1 1_555 1_555
H10 C10 1_555 1_555
C11 H11 1_555 1_555
C12 N4 1_555 1_555
H12 C12 1_555 1_555
Co1A N6 1_555 1_555
Co1A_2 N3A 1_555 1_555
O1B Co1 1_555 1_555
O2B N7B 1_555 1_555
N1A N2A 1_555 1_555
N2A C9A 1_555 1_555
N3A C9A 1_555 1_555
N3B Co1 1_555 1_555
N4A N5A 1_555 1_555
N5A C11A 1_555 1_555
N6A Co1 1_555 1_555
N6C Co1 1_555 1_555
N7B O1B 1_555 1_555
C1A C2A 1_555 1_555
C2A H1A 1_555 1_555
C3A C2A 1_555 1_555
H2A C3A 1_555 1_555
C4A C3A 1_555 1_555
C5A C4A 1_555 1_555
H3A C5A 1_555 1_555
C6A C1A 1_555 1_555
H4A C6A 1_555 1_555
C7A N1A 1_555 1_555
H5A C7A 1_555 1_555
H6A C7A 1_555 1_555
C8A N4A 1_555 1_555
H7A C8A 1_555 1_555
H8A C8A 1_555 1_555
C9A H9A 1_555 1_555
C10A N1A 1_555 1_555
H10A C10A 1_555 1_555
C11A N6A 1_555 1_555
H11A C11A 1_555 1_555
C12A N4A 1_555 1_555
H12A C12A 1_555 1_555
N3 C10 1_555 1_555
N6 C12 1_555 1_555
C1 C7 1_555 1_555
C4 C8 1_555 1_555
C5 C6 1_555 1_555
N3A C10A 1_555 1_555
N6A C12A 1_555 1_555
C1A C7A 1_555 1_555
C4A C8A 1_555 1_555
C5A C6A 1_555 1_555

#END
