
#######################################################################
#
#                 Cambridge Crystallographic Data Centre
#                                CCDC 
#
#######################################################################
#
# If this CIF has been generated from an entry in the Cambridge 
# Structural Database, then it will include bibliographic, chemical, 
# crystal, experimental, refinement or atomic coordinate data resulting 
# from the CCDC's data processing and validation procedures.
#
#######################################################################

data_DUQCAU01
_symmetry_cell_setting           monoclinic
_symmetry_space_group_name_H-M   'P 21/c'
_symmetry_Int_Tables_number      14
_space_group_name_Hall           '-P 2ybc'
loop_
_symmetry_equiv_pos_site_id
_symmetry_equiv_pos_as_xyz
1 x,y,z
2 -x,1/2+y,1/2-z
3 -x,-y,-z
4 x,1/2-y,1/2+z
_cell_length_a                   9.8917(3)
_cell_length_b                   8.2883(3)
_cell_length_c                   10.1887(4)
_cell_angle_alpha                90
_cell_angle_beta                 99.040(2)
_cell_angle_gamma                90
_cell_volume                     824.949
loop_
_atom_site_label
_atom_site_type_symbol
_atom_site_fract_x
_atom_site_fract_y
_atom_site_fract_z
Pr1 Pr 0.684984(18) 0.09845(3) 0.437074(19)
O1 O 0.6839(3) 0.3091(4) 0.2610(3)
O2 O 0.5564(3) 0.4800(4) 0.1261(3)
O3 O 0.5041(3) 0.3165(4) 0.4304(3)
O4 O 0.3769(3) 0.4945(4) 0.2995(3)
O5 O 0.8803(3) 0.0097(5) 0.6075(3)
O6 O 1.0991(3) -0.0664(5) 0.6473(3)
O7 O 0.8065(4) 0.3551(5) 0.5420(4)
H1 H 0.747(6) 0.412(9) 0.589(7)
H2 H 0.881(5) 0.371(12) 0.612(6)
O8 O 0.6925(4) -0.2037(5) 0.4322(4)
H3 H 0.635(6) -0.275(7) 0.470(7)
H4 H 0.765(5) -0.270(7) 0.416(6)
C1 C 0.5825(4) 0.3980(4) 0.2320(4)
C2 C 0.4773(5) 0.4049(4) 0.3296(4)
C3 C 0.9945(4) -0.0157(5) 0.5743(4)
Pr1B Pr 1.315016(18) -0.09845(3) 0.562926(19)
Pr1A Pr 0.315016(18) 0.59845(3) 0.062926(19)
Pr1A_2 Pr 1.315016(18) -0.40155(3) 1.062926(19)
Pr1C Pr 0.684984(18) 0.40155(3) -0.062926(19)
Pr1C_2 Pr 1.684984(18) -0.59845(3) 0.937074(19)
O1B O 1.3161(3) -0.3091(4) 0.7390(3)
O2B O 1.4436(3) -0.4800(4) 0.8739(3)
O2A O 0.4436(3) -0.0200(4) 0.3739(3)
O2A_2 O 1.4436(3) -0.0200(4) 0.3739(3)
O2C O 0.5564(3) 0.0200(4) 0.6261(3)
O2C_2 O 1.5564(3) 0.0200(4) 0.6261(3)
O3B O 1.4959(3) -0.3165(4) 0.5696(3)
O4B O 1.6231(3) -0.4945(4) 0.7005(3)
O4A O 0.6231(3) -0.0055(4) 0.2005(3)
O4C O 1.3769(3) 0.0055(4) 0.7995(3)
O5B O 1.1197(3) -0.0097(5) 0.3925(3)
O6B O 0.9009(3) 0.0664(5) 0.3527(3)
O7B O 1.1935(4) -0.3551(5) 0.4580(4)
H1B H 1.253(6) -0.412(9) 0.411(7)
H2B H 1.119(5) -0.371(12) 0.388(6)
O8B O 1.3075(4) 0.2037(5) 0.5678(4)
H3B H 1.365(6) 0.275(7) 0.530(7)
H4B H 1.235(5) 0.270(7) 0.584(6)
C1B C 1.4175(4) -0.3980(4) 0.7680(4)
C2B C 1.5227(5) -0.4049(4) 0.6704(4)
C3B C 1.0055(4) 0.0157(5) 0.4257(4)
O9 O 0.8961(5) -0.0978(5) 0.8721(4)
H5 H 0.888(10) 0.001(7) 0.925(9)
H6 H 0.925(11) -0.082(11) 0.784(6)
loop_
_geom_bond_atom_site_label_1
_geom_bond_atom_site_label_2
_geom_bond_site_symmetry_1
_geom_bond_site_symmetry_2
Pr1 O1 1_555 1_555
O1 C1 1_555 1_555
O2 C1 1_555 1_555
O3 Pr1 1_555 1_555
O4 C2 1_555 1_555
O5 Pr1 1_555 1_555
O6 C3 1_555 1_555
O7 Pr1 1_555 1_555
H1 O7 1_555 1_555
H2 O7 1_555 1_555
O8 Pr1 1_555 1_555
H3 O8 1_555 1_555
H4 O8 1_555 1_555
O9 H5 1_555 1_555
H6 O9 1_555 1_555
C1 C2 1_555 1_555
C2 O3 1_555 1_555
C3 O5 1_555 1_555
Pr1B O6 1_555 1_555
Pr1A O2 1_555 1_555
Pr1A_2 O2B 1_555 1_555
Pr1C O2 1_555 1_555
Pr1C_2 O2B 1_555 1_555
O1B Pr1B 1_555 1_555
O2B C1B 1_555 1_555
O2A Pr1 1_555 1_555
O2A_2 Pr1B 1_555 1_555
O2C Pr1 1_555 1_555
O2C_2 Pr1B 1_555 1_555
O3B Pr1B 1_555 1_555
O4B Pr1C_2 1_555 1_555
O4A Pr1 1_555 1_555
O4C Pr1B 1_555 1_555
O5B Pr1B 1_555 1_555
O6B Pr1 1_555 1_555
O7B Pr1B 1_555 1_555
H1B O7B 1_555 1_555
H2B O7B 1_555 1_555
O8B Pr1B 1_555 1_555
H3B O8B 1_555 1_555
H4B O8B 1_555 1_555
C1B O1B 1_555 1_555
C2B O3B 1_555 1_555
C3B C3 1_555 1_555
O4 Pr1A 1_555 1_555
O4B C2B 1_555 1_555
O5B C3B 1_555 1_555
O6B C3B 1_555 1_555
C1B C2B 1_555 1_555

#END
