
#######################################################################
#
#                 Cambridge Crystallographic Data Centre
#                                CCDC 
#
#######################################################################
#
# If this CIF has been generated from an entry in the Cambridge 
# Structural Database, then it will include bibliographic, chemical, 
# crystal, experimental, refinement or atomic coordinate data resulting 
# from the CCDC's data processing and validation procedures.
#
#######################################################################

data_DUQGEC01
_symmetry_cell_setting           triclinic
_symmetry_space_group_name_H-M   'P -1'
_symmetry_Int_Tables_number      2
_space_group_name_Hall           '-P 1'
loop_
_symmetry_equiv_pos_site_id
_symmetry_equiv_pos_as_xyz
1 x,y,z
2 -x,-y,-z
_cell_length_a                   9.9953(7)
_cell_length_b                   10.6963(7)
_cell_length_c                   13.3207(7)
_cell_angle_alpha                90.574(5)
_cell_angle_beta                 101.757(5)
_cell_angle_gamma                113.449(6)
_cell_volume                     1272.53
loop_
_atom_site_label
_atom_site_type_symbol
_atom_site_fract_x
_atom_site_fract_y
_atom_site_fract_z
C1 C 0.1918(5) 0.5114(4) 0.3916(3)
C2 C 0.2083(5) 0.6289(4) 0.4464(3)
H1 H 0.2281 0.7103 0.4159
C3 C 0.1948(4) 0.6225(4) 0.5481(3)
H2 H 0.2036 0.6999 0.5861
C4 C 0.1682(5) 0.5019(5) 0.5929(3)
C5 C 0.1519(5) 0.3874(4) 0.5324(3)
H3 H 0.1327 0.3051 0.5616
C6 C 0.1568(5) 0.4925(4) 0.7048(3)
C7 C 0.2029(5) 0.5079(4) 0.2804(3)
C8 C 0.8636(5) 1.0204(4) -0.2748(3)
C9 C 0.8554(5) 1.1299(4) -0.2249(3)
H4 H 0.8602 1.2071 -0.2582
C10 C 0.8397(5) 1.1216(4) -0.1239(3)
H5 H 0.8327 1.1934 -0.0886
C11 C 0.8346(5) 1.0059(4) -0.0756(3)
C12 C 0.8457(5) 0.9026(4) -0.1310(3)
H6 H 0.8445 0.8258 -0.0985
C13 C 0.8759(5) 1.0198(4) -0.3870(3)
C14 C 0.8212(5) 0.9969(5) 0.0356(3)
C15 C 0.4683(5) 0.7437(4) -0.0572(3)
C16 C 0.4582(5) 0.8499(4) -0.1096(3)
H7 H 0.4388 0.9173 -0.0786
C17 C 0.4776(4) 0.8551(4) -0.2108(3)
H8 H 0.4696 0.9255 -0.2485
C18 C 0.5088(5) 0.7543(4) -0.2549(3)
C19 C 0.5141(5) 0.6490(4) -0.1964(3)
H9 H 0.5322 0.5797 -0.2256
C20 C 0.4593(5) 0.7356(4) 0.0550(3)
C21 C 0.5482(5) 0.7675(4) -0.3594(3)
N1 N 0.1632(4) 0.3917(4) 0.4332(3)
N2 N 0.8582(4) 0.9068(4) -0.2299(2)
N3 N 0.4943(4) 0.6427(4) -0.0999(3)
Na1 Na 0.83709(19) 1.00826(17) -0.59719(12)
Na2 Na 0.4977(2) 0.74923(18) 0.26674(12)
Na3 Na 0.1723(2) 0.49387(18) 0.06942(12)
Ni1 Ni 0.50000 0.50000 0.00000
Ni2 Ni 0.85106(7) 0.75877(6) -0.33135(4)
O1 O 0.1729(3) 0.3941(3) 0.7475(2)
O2 O 0.1352(3) 0.5860(3) 0.7465(2)
O3 O 0.1848(3) 0.3934(3) 0.2376(2)
O4 O 0.2305(3) 0.6147(3) 0.2367(2)
O5 O 0.8855(3) 0.9135(3) -0.4243(2)
O6 O 0.8771(3) 1.1184(3) -0.4337(2)
O7 O 0.7993(3) 0.8837(3) 0.0723(2)
O8 O 0.8344(3) 1.1033(3) 0.0844(2)
O9 O 0.4565(3) 0.6249(3) 0.0928(2)
O10 O 0.4533(3) 0.8319(3) 0.1022(2)
O11 O 0.6054(3) 0.6880(3) -0.3854(2)
O12 O 0.5259(3) 0.8559(3) -0.4109(2)
O13 O 1.0868(4) 0.8196(3) -0.2862(2)
O14 O -0.0972(4) 0.3834(3) 0.0603(2)
O15 O 0.7405(4) 0.6136(3) 0.0487(2)
O16 O 0.5306(4) 0.6104(3) 0.3951(2)
O17 O 0.5717(4) 0.9311(3) 0.3977(2)
O18 O 0.7648(4) 0.8362(3) 0.2714(2)
H10 H 1.097(5) 0.749(3) -0.285(3)
H11 H -0.124(5) 0.3015(12) 0.055(3)
H12 H -0.110(5) 0.410(4) 0.112(2)
H13 H 0.780(5) 0.767(3) 0.270(3)
H14 H 0.762(5) 0.843(4) 0.2112(11)
H15 H 0.751(5) 0.6926(17) 0.051(3)
H16 H 0.777(4) 0.610(4) 0.1078(13)
H17 H 0.544(5) 0.993(3) 0.399(3)
H18 H 0.568(5) 0.906(4) 0.4538(16)
H19 H 0.558(5) 0.639(4) 0.4548(12)
H20 H 0.494(5) 0.5281(11) 0.387(3)
H21 H 1.106(5) 0.846(4) -0.2267(11)
C1A C 0.8082(5) 0.4886(4) -0.3916(3)
C2A C 0.7917(5) 0.3711(4) -0.4464(3)
H1A H 0.7719 0.2897 -0.4159
C3A C 0.8052(4) 0.3775(4) -0.5481(3)
H2A H 0.7964 0.3001 -0.5861
C4A C 0.8318(5) 0.4981(5) -0.5929(3)
C5A C 0.8481(5) 0.6126(4) -0.5324(3)
H3A H 0.8673 0.6949 -0.5616
C6A C 0.8432(5) 0.5075(4) -0.7048(3)
C7A C 0.7971(5) 0.4921(4) -0.2804(3)
C8A C 0.1364(5) -0.0204(4) 0.2748(3)
C9A C 0.1446(5) -0.1299(4) 0.2249(3)
H4A H 0.1398 -0.2071 0.2582
C10A C 0.1603(5) -0.1216(4) 0.1239(3)
H5A H 0.1673 -0.1934 0.0886
C11A C 0.1654(5) -0.0059(4) 0.0756(3)
C12A C 0.1543(5) 0.0974(4) 0.1310(3)
H6A H 0.1555 0.1742 0.0985
C13A C 0.1241(5) -0.0198(4) 0.3870(3)
C14A C 0.1788(5) 0.0031(5) -0.0356(3)
C15A C 0.5317(5) 0.2563(4) 0.0572(3)
C16A C 0.5418(5) 0.1501(4) 0.1096(3)
H7A H 0.5612 0.0827 0.0786
C17A C 0.5224(4) 0.1449(4) 0.2108(3)
H8A H 0.5304 0.0745 0.2485
C18A C 0.4912(5) 0.2457(4) 0.2549(3)
C19A C 0.4859(5) 0.3510(4) 0.1964(3)
H9A H 0.4678 0.4203 0.2256
C20A C 0.5407(5) 0.2644(4) -0.0550(3)
C21A C 0.4518(5) 0.2325(4) 0.3594(3)
N1A N 0.8368(4) 0.6083(4) -0.4332(3)
N2A N 0.1418(4) 0.0932(4) 0.2299(2)
N3A N 0.5057(4) 0.3573(4) 0.0999(3)
Na1A Na 0.16291(19) -0.00826(17) 0.59719(12)
Na1A_2 Na 1.16291(19) 0.99174(17) -0.40281(12)
Na1_2 Na 0.83709(19) 1.00826(17) 0.40281(12)
Na1A_3 Na 0.16291(19) -0.00826(17) -0.40281(12)
Na1_3 Na -0.16291(19) 0.00826(17) 0.40281(12)
Na2A Na 0.5023(2) 0.25077(18) -0.26674(12)
Na3A Na 0.8277(2) 0.50613(18) -0.06942(12)
Na3A_2 Na -0.1723(2) 0.50613(18) -0.06942(12)
Ni2A Ni 0.14894(7) 0.24123(6) 0.33135(4)
O1A O 0.8271(3) 0.6059(3) -0.7475(2)
O2A O 0.8648(3) 0.4140(3) -0.7465(2)
O3A O 0.8152(3) 0.6066(3) -0.2376(2)
O4A O 0.7695(3) 0.3853(3) -0.2367(2)
O5A O 0.1145(3) 0.0865(3) 0.4243(2)
O5A_2 O 1.1145(3) 1.0865(3) -0.5757(2)
O5_2 O -0.1145(3) -0.0865(3) 0.5757(2)
O6A O 0.1229(3) -0.1184(3) 0.4337(2)
O7A O 0.2007(3) 0.1163(3) -0.0723(2)
O8A O 0.1656(3) -0.1033(3) -0.0844(2)
O9A O 0.5435(3) 0.3751(3) -0.0928(2)
O10A O 0.5467(3) 0.1681(3) -0.1022(2)
O11A O 0.3946(3) 0.3120(3) 0.3854(2)
O12A O 0.4741(3) 0.1441(3) 0.4109(2)
O13A O -0.0868(4) 0.1804(3) 0.2862(2)
O13A_2 O 0.9132(4) 1.1804(3) -0.7138(2)
O13_2 O 0.0868(4) -0.1804(3) 0.7138(2)
O14A O 0.0972(4) 0.6166(3) -0.0603(2)
O14A_2 O 1.0972(4) 0.6166(3) -0.0603(2)
O14_2 O 0.9028(4) 0.3834(3) 0.0603(2)
O15A O 0.2595(4) 0.3864(3) -0.0487(2)
O16A O 0.4694(4) 0.3896(3) -0.3951(2)
O17A O 0.4283(4) 0.0689(3) -0.3977(2)
O17_2 O 0.5717(4) 0.9311(3) -0.6023(2)
O17A_2 O 0.4283(4) 0.0689(3) 0.6023(2)
O18A O 0.2352(4) 0.1638(3) -0.2714(2)
O18_2 O 0.7648(4) 0.8362(3) -0.7286(2)
O18A_2 O 0.2352(4) 0.1638(3) 0.7286(2)
H10A H -0.097(5) 0.251(3) 0.285(3)
H10A_2 H 0.903(5) 1.251(3) -0.715(3)
H10_2 H 0.097(5) -0.251(3) 0.715(3)
H11A H 0.124(5) 0.6985(12) -0.055(3)
H11A_2 H 1.124(5) 0.6985(12) -0.055(3)
H11_2 H 0.876(5) 0.3015(12) 0.055(3)
H12A H 0.110(5) 0.590(4) -0.112(2)
H12A_2 H 1.110(5) 0.590(4) -0.112(2)
H12_2 H 0.890(5) 0.410(4) 0.112(2)
H13A H 0.220(5) 0.233(3) -0.270(3)
H13_2 H 0.780(5) 0.767(3) -0.730(3)
H13A_2 H 0.220(5) 0.233(3) 0.730(3)
H14A H 0.238(5) 0.157(4) -0.2112(11)
H14_2 H 0.762(5) 0.843(4) -0.7888(11)
H14A_2 H 0.238(5) 0.157(4) 0.7888(11)
H15A H 0.249(5) 0.3074(17) -0.051(3)
H16A H 0.223(4) 0.390(4) -0.1078(13)
H17A H 0.456(5) 0.007(3) -0.399(3)
H17_2 H 0.544(5) 0.993(3) -0.601(3)
H17A_2 H 0.456(5) 0.007(3) 0.601(3)
H18A H 0.432(5) 0.094(4) -0.4538(16)
H18_2 H 0.568(5) 0.906(4) -0.5462(16)
H18A_2 H 0.432(5) 0.094(4) 0.5462(16)
H19A H 0.442(5) 0.361(4) -0.4548(12)
H20A H 0.506(5) 0.4719(11) -0.387(3)
H21A H -0.106(5) 0.154(4) 0.2267(11)
H21A_2 H 0.894(5) 1.154(4) -0.7733(11)
H21_2 H 0.106(5) -0.154(4) 0.7733(11)
loop_
_geom_bond_atom_site_label_1
_geom_bond_atom_site_label_2
_geom_bond_site_symmetry_1
_geom_bond_site_symmetry_2
C1 C2 1_555 1_555
C2 H1 1_555 1_555
C3 C2 1_555 1_555
H2 C3 1_555 1_555
C4 C3 1_555 1_555
C5 C4 1_555 1_555
H3 C5 1_555 1_555
C6 C4 1_555 1_555
C7 C1 1_555 1_555
C8 C9 1_555 1_555
C9 H4 1_555 1_555
C10 C9 1_555 1_555
H5 C10 1_555 1_555
C11 C10 1_555 1_555
C12 C11 1_555 1_555
H6 C12 1_555 1_555
C13 C8 1_555 1_555
C14 C11 1_555 1_555
C15 C16 1_555 1_555
C16 H7 1_555 1_555
C17 C16 1_555 1_555
H8 C17 1_555 1_555
C18 C17 1_555 1_555
C19 C18 1_555 1_555
H9 C19 1_555 1_555
C20 C15 1_555 1_555
C21 C18 1_555 1_555
N1 C1 1_555 1_555
N2 C8 1_555 1_555
N3 C15 1_555 1_555
Na1 O5 1_555 1_555
Na2 O4 1_555 1_555
Na3 O3 1_555 1_555
Ni1 N3 1_555 1_555
Ni2 N2 1_555 1_555
O1 C6 1_555 1_555
O2 C6 1_555 1_555
O3 C7 1_555 1_555
O4 C7 1_555 1_555
O5 C13 1_555 1_555
O6 C13 1_555 1_555
O7 C14 1_555 1_555
O8 C14 1_555 1_555
O9 C20 1_555 1_555
O10 C20 1_555 1_555
O11 C21 1_555 1_555
O12 C21 1_555 1_555
O13 Ni2 1_555 1_555
O14 Na3 1_555 1_555
O15 Ni1 1_555 1_555
O16 Na2 1_555 1_555
O17 Na2 1_555 1_555
O18 Na2 1_555 1_555
H10 O13 1_555 1_555
H11 O14 1_555 1_555
H12 O14 1_555 1_555
H13 O18 1_555 1_555
H14 O18 1_555 1_555
H15 O15 1_555 1_555
H16 O15 1_555 1_555
H17 O17 1_555 1_555
H18 O17 1_555 1_555
H19 O16 1_555 1_555
H20 O16 1_555 1_555
H21 O13 1_555 1_555
C1A C2A 1_555 1_555
C2A H1A 1_555 1_555
C3A C2A 1_555 1_555
H2A C3A 1_555 1_555
C4A C3A 1_555 1_555
C5A C4A 1_555 1_555
H3A C5A 1_555 1_555
C6A C4A 1_555 1_555
C7A C1A 1_555 1_555
C8A C9A 1_555 1_555
C9A H4A 1_555 1_555
C10A C9A 1_555 1_555
H5A C10A 1_555 1_555
C11A C10A 1_555 1_555
C12A C11A 1_555 1_555
H6A C12A 1_555 1_555
C13A C8A 1_555 1_555
C14A C11A 1_555 1_555
C15A C16A 1_555 1_555
C16A H7A 1_555 1_555
C17A C16A 1_555 1_555
H8A C17A 1_555 1_555
C18A C17A 1_555 1_555
C19A C18A 1_555 1_555
H9A C19A 1_555 1_555
C20A C15A 1_555 1_555
C21A C18A 1_555 1_555
N1A Ni2 1_555 1_555
N2A C8A 1_555 1_555
N3A Ni1 1_555 1_555
Na1A O5A 1_555 1_555
Na1A_2 O5 1_555 1_555
Na1_2 O17 1_555 1_555
Na1A_3 O17A 1_555 1_555
Na1_3 O5A 1_555 1_555
Na2A O4A 1_555 1_555
Na3A O15 1_555 1_555
Na3A_2 O14 1_555 1_555
Ni2A N1 1_555 1_555
O1A C6A 1_555 1_555
O2A C6A 1_555 1_555
O3A Ni2 1_555 1_555
O4A C7A 1_555 1_555
O5A C13A 1_555 1_555
O5A_2 Na1 1_555 1_555
O5_2 Na1A 1_555 1_555
O6A C13A 1_555 1_555
O7A C14A 1_555 1_555
O8A C14A 1_555 1_555
O9A Ni1 1_555 1_555
O10A C20A 1_555 1_555
O11A C21A 1_555 1_555
O12A C21A 1_555 1_555
O13A Na1_3 1_555 1_555
O13A_2 Na1 1_555 1_555
O13_2 Na1A 1_555 1_555
O14A Na3 1_555 1_555
O14A_2 Na3A 1_555 1_555
O14_2 Na3A 1_555 1_555
O15A Na3 1_555 1_555
O16A Na2A 1_555 1_555
O17A Na2A 1_555 1_555
O17_2 Na1 1_555 1_555
O17A_2 Na1A 1_555 1_555
O18A Na1A_3 1_555 1_555
O18_2 Na1 1_555 1_555
O18A_2 Na1A 1_555 1_555
H10A O13A 1_555 1_555
H10A_2 O13A_2 1_555 1_555
H10_2 O13_2 1_555 1_555
H11A O14A 1_555 1_555
H11A_2 O14A_2 1_555 1_555
H11_2 O14_2 1_555 1_555
H12A O14A 1_555 1_555
H12A_2 O14A_2 1_555 1_555
H12_2 O14_2 1_555 1_555
H13A O18A 1_555 1_555
H13_2 O18_2 1_555 1_555
H13A_2 O18A_2 1_555 1_555
H14A O18A 1_555 1_555
H14_2 O18_2 1_555 1_555
H14A_2 O18A_2 1_555 1_555
H15A O15A 1_555 1_555
H16A O15A 1_555 1_555
H17A O17A 1_555 1_555
H17_2 O17_2 1_555 1_555
H17A_2 O17A_2 1_555 1_555
H18A O17A 1_555 1_555
H18_2 O17_2 1_555 1_555
H18A_2 O17A_2 1_555 1_555
H19A O16A 1_555 1_555
H20A O16A 1_555 1_555
H21A O13A 1_555 1_555
H21A_2 O13A_2 1_555 1_555
H21_2 O13_2 1_555 1_555
C5 N1 1_555 1_555
C12 N2 1_555 1_555
C19 N3 1_555 1_555
Na1 O6 1_555 1_555
Na2 O9 1_555 1_555
Na2 O10 1_555 1_555
Na3 O4 1_555 1_555
Na3 O9 1_555 1_555
Ni1 O9 1_555 1_555
Ni1 O15A 1_555 1_555
Ni2 O5 1_555 1_555
Ni2 O11 1_555 1_555
O3 Ni2A 1_555 1_555
O13 Na1A_2 1_555 1_555
O18 Na1_2 1_555 1_555
C1A N1A 1_555 1_555
C5A N1A 1_555 1_555
C7A O3A 1_555 1_555
C12A N2A 1_555 1_555
C15A N3A 1_555 1_555
C19A N3A 1_555 1_555
C20A O9A 1_555 1_555
N2A Ni2A 1_555 1_555
Na1A O6A 1_555 1_555
Na1A_2 O5A_2 1_555 1_555
Na1_3 O5_2 1_555 1_555
Na2A O9A 1_555 1_555
Na2A O10A 1_555 1_555
Na2A O18A 1_555 1_555
Na3A O3A 1_555 1_555
Na3A O4A 1_555 1_555
Na3A O9A 1_555 1_555
Na3A_2 O14A 1_555 1_555
Ni2A O5A 1_555 1_555
Ni2A O11A 1_555 1_555
Ni2A O13A 1_555 1_555

#END
