
#######################################################################
#
#                 Cambridge Crystallographic Data Centre
#                                CCDC 
#
#######################################################################
#
# If this CIF has been generated from an entry in the Cambridge 
# Structural Database, then it will include bibliographic, chemical, 
# crystal, experimental, refinement or atomic coordinate data resulting 
# from the CCDC's data processing and validation procedures.
#
#######################################################################

data_DUQJAC
_symmetry_cell_setting           monoclinic
_symmetry_space_group_name_H-M   'C 2/c'
_symmetry_Int_Tables_number      15
_space_group_name_Hall           '-C 2yn'
loop_
_symmetry_equiv_pos_site_id
_symmetry_equiv_pos_as_xyz
1 x,y,z
2 -x,y,1/2-z
3 1/2+x,1/2+y,z
4 1/2-x,1/2+y,1/2-z
5 -x,-y,-z
6 x,-y,1/2+z
7 1/2-x,1/2-y,-z
8 1/2+x,1/2-y,1/2+z
_cell_length_a                   21.8221(6)
_cell_length_b                   8.5600(2)
_cell_length_c                   16.8032(4)
_cell_angle_alpha                90
_cell_angle_beta                 115.2760(10)
_cell_angle_gamma                90
_cell_volume                     2838.29
loop_
_atom_site_label
_atom_site_type_symbol
_atom_site_fract_x
_atom_site_fract_y
_atom_site_fract_z
Cu1 Cu 0.88783(2) 0.06512(3) 0.58991(2)
O1 O 1.01545(8) 0.04056(19) 0.66274(11)
O2 O 0.76381(8) 0.05095(19) 0.51517(11)
N1 N 0.88760(10) -0.1106(2) 0.67119(12)
O3 O 0.88520(7) 0.23429(16) 0.51037(9)
C1 C 0.84868(12) -0.0847(3) 0.41147(14)
H1 H 0.8506 -0.1796 0.3800
H2 H 0.8680 0.0029 0.3922
H3 H 0.8014 -0.0615 0.3988
N2 N 0.88798(10) -0.1086(2) 0.50705(11)
C2 C 0.86561(11) -0.2515(3) 0.53639(14)
H4 H 0.8769 -0.3451 0.5107
H5 H 0.8160 -0.2490 0.5171
C3 C 0.90193(12) -0.2573(2) 0.63599(14)
H6 H 0.8858 -0.3479 0.6584
H7 H 0.9513 -0.2687 0.6550
C4 C 0.82636(12) -0.1216(3) 0.68749(15)
H8 H 0.7872 -0.1477 0.6325
H9 H 0.8185 -0.0212 0.7096
H10 H 0.8328 -0.2032 0.7313
O4 O 0.98570(7) 0.19103(17) 0.50789(9)
C5 C 0.92961(10) 0.2582(2) 0.48156(13)
C6 C 0.91095(10) 0.3767(2) 0.40856(13)
C7 C 0.96077(11) 0.4481(2) 0.39000(13)
H11 H 1.0070 0.4229 0.4246
C8 C 0.94389(11) 0.5556(2) 0.32163(13)
H12 H 0.9786 0.6043 0.3105
C9 C 0.87623(10) 0.5917(2) 0.26960(13)
C10 C 0.82598(11) 0.5209(2) 0.28830(14)
H13 H 0.7797 0.5450 0.2532
C11 C 0.84306(11) 0.4161(2) 0.35754(13)
H14 H 0.8085 0.3709 0.3703
C12 C 0.85519(10) 0.7045(2) 0.19374(13)
O5 O 0.79394(7) 0.71722(17) 0.14394(9)
O6 O 0.90272(7) 0.78140(16) 0.18641(9)
H15 H 0.9298(13) -0.124(3) 0.5163(16)
H16 H 1.0130(16) 0.082(4) 0.616(2)
H17 H 1.0302(15) 0.106(3) 0.700(2)
H18 H 0.9195(13) -0.098(3) 0.7198(17)
H19 H 0.7446(16) 0.097(4) 0.462(2)
H20 H 0.7637(17) 0.127(4) 0.555(2)
Cu1E Cu 0.88783(2) 0.93488(3) 0.08991(2)
O6E O 0.90272(7) 0.21860(16) 0.68641(9)
loop_
_geom_bond_atom_site_label_1
_geom_bond_atom_site_label_2
_geom_bond_site_symmetry_1
_geom_bond_site_symmetry_2
Cu1 O1 1_555 1_555
O1 H16 1_555 1_555
O2 Cu1 1_555 1_555
N1 Cu1 1_555 1_555
O3 Cu1 1_555 1_555
C1 H1 1_555 1_555
H2 C1 1_555 1_555
H3 C1 1_555 1_555
N2 Cu1 1_555 1_555
C2 N2 1_555 1_555
H4 C2 1_555 1_555
H5 C2 1_555 1_555
C3 N1 1_555 1_555
H6 C3 1_555 1_555
H7 C3 1_555 1_555
C4 N1 1_555 1_555
H8 C4 1_555 1_555
H9 C4 1_555 1_555
H10 C4 1_555 1_555
O4 C5 1_555 1_555
C5 O3 1_555 1_555
C6 C5 1_555 1_555
C7 C6 1_555 1_555
H11 C7 1_555 1_555
C8 C7 1_555 1_555
H12 C8 1_555 1_555
C9 C8 1_555 1_555
C10 C9 1_555 1_555
H13 C10 1_555 1_555
C11 C6 1_555 1_555
H14 C11 1_555 1_555
C12 C9 1_555 1_555
O5 C12 1_555 1_555
O6 C12 1_555 1_555
H15 N2 1_555 1_555
H17 O1 1_555 1_555
H18 N1 1_555 1_555
H19 O2 1_555 1_555
H20 O2 1_555 1_555
Cu1E O6 1_555 1_555
O6E Cu1 1_555 1_555
C1 N2 1_555 1_555
C2 C3 1_555 1_555
C10 C11 1_555 1_555

#END
