
#######################################################################
#
#                 Cambridge Crystallographic Data Centre
#                                CCDC 
#
#######################################################################
#
# If this CIF has been generated from an entry in the Cambridge 
# Structural Database, then it will include bibliographic, chemical, 
# crystal, experimental, refinement or atomic coordinate data resulting 
# from the CCDC's data processing and validation procedures.
#
#######################################################################

data_DUQNUA
_symmetry_cell_setting           monoclinic
_symmetry_space_group_name_H-M   'P 21/n'
_symmetry_Int_Tables_number      14
_space_group_name_Hall           '-P 2yn'
loop_
_symmetry_equiv_pos_site_id
_symmetry_equiv_pos_as_xyz
1 x,y,z
2 1/2-x,1/2+y,1/2-z
3 -x,-y,-z
4 1/2+x,1/2-y,1/2+z
_cell_length_a                   12.6486(3)
_cell_length_b                   32.4245(5)
_cell_length_c                   15.2540(3)
_cell_angle_alpha                90
_cell_angle_beta                 110.181(2)
_cell_angle_gamma                90
_cell_volume                     5871.97
loop_
_atom_site_label
_atom_site_type_symbol
_atom_site_fract_x
_atom_site_fract_y
_atom_site_fract_z
C1 C 0.9007(2) 0.28484(7) 0.82445(16)
C2 C 0.7521(2) 0.25457(7) 0.72918(16)
C3 C 0.6734(2) 0.22729(8) 0.67032(18)
H1 H 0.6944 0.2011 0.6578
C4 C 0.5641(2) 0.24079(9) 0.6318(2)
H2 H 0.5101 0.2230 0.5935
C5 C 0.5314(2) 0.28059(9) 0.6484(2)
H3 H 0.4569 0.2888 0.6197
C6 C 0.6077(2) 0.30787(8) 0.70663(19)
H4 H 0.5867 0.3342 0.7184
C7 C 0.7182(2) 0.29369(7) 0.74671(17)
C8 C 1.0175(2) 0.29389(8) 0.88774(17)
H5 H 1.0602 0.2688 0.9018
H6 H 1.0152 0.3059 0.9446
H7 H 1.0524 0.3128 0.8577
C9 C 0.8216(2) 0.35290(7) 0.85063(17)
H8 H 0.7604 0.3700 0.8118
H9 H 0.8918 0.3659 0.8535
C10 C 0.8161(2) 0.35101(7) 0.94842(17)
C11 C 0.7729(2) 0.31670(8) 0.97975(18)
H10 H 0.7477 0.2942 0.9402
C12 C 0.7671(2) 0.31555(8) 1.06857(19)
H11 H 0.7381 0.2924 1.0883
C13 C 0.8042(2) 0.34876(8) 1.12793(19)
H12 H 0.8006 0.3481 1.1878
C14 C 0.8467(2) 0.38296(8) 1.09738(18)
H13 H 0.8715 0.4053 1.1374
C15 C 0.8532(2) 0.38487(7) 1.00848(18)
C16 C 0.8972(2) 0.42296(7) 0.97407(18)
H14 H 0.9439 0.4145 0.9385
H15 H 0.8341 0.4385 0.9327
C17 C 0.9313(2) 0.48577(7) 1.07902(17)
C18 C 1.0688(2) 0.43953(7) 1.11203(18)
C19 C 1.1379(2) 0.40570(8) 1.11573(19)
H16 H 1.1156 0.3844 1.0723
C20 C 1.2407(3) 0.40524(8) 1.1866(2)
H17 H 1.2889 0.3830 1.1919
C21 C 1.2742(2) 0.43768(9) 1.25126(19)
H18 H 1.3446 0.4366 1.2981
C22 C 1.2050(2) 0.47135(8) 1.24695(18)
H19 H 1.2281 0.4929 1.2894
C23 C 1.1001(2) 0.47162(7) 1.17686(17)
C24 C 0.8208(2) 0.50552(8) 1.03126(18)
H20 H 0.7629 0.4902 1.0441
H21 H 0.8059 0.5059 0.9651
H22 H 0.8221 0.5333 1.0536
C25 C 1.0522(2) 0.28112(7) 0.67348(16)
C26 C 1.1976(2) 0.24802(7) 0.76504(17)
C27 C 1.2725(2) 0.21894(8) 0.82081(18)
H23 H 1.2470 0.1940 0.8364
C28 C 1.3852(2) 0.22859(9) 0.8517(2)
H24 H 1.4368 0.2096 0.8881
C29 C 1.4245(2) 0.26623(9) 0.8300(2)
H25 H 1.5014 0.2717 0.8530
C30 C 1.3516(2) 0.29538(9) 0.77523(19)
H26 H 1.3773 0.3205 0.7609
C31 C 1.2381(2) 0.28517(7) 0.74278(17)
C32 C 0.9362(2) 0.29256(8) 0.61240(18)
H27 H 0.8878 0.2689 0.6033
H28 H 0.9377 0.3019 0.5531
H29 H 0.9084 0.3142 0.6414
C33 C 1.1412(2) 0.34582(7) 0.64027(17)
H30 H 1.2049 0.3620 0.6787
H31 H 1.0731 0.3602 0.6379
C34 C 1.1454(2) 0.34338(7) 0.54214(17)
C35 C 1.1859(2) 0.30863(7) 0.51099(18)
H32 H 1.2081 0.2858 0.5499
C36 C 1.1938(2) 0.30748(8) 0.42251(18)
H33 H 1.2218 0.2841 0.4027
C37 C 1.1599(2) 0.34113(8) 0.36407(18)
H34 H 1.1643 0.3404 0.3045
C38 C 1.1194(2) 0.37586(8) 0.39437(18)
H35 H 1.0968 0.3984 0.3547
C39 C 1.1118(2) 0.37766(7) 0.48322(17)
C40 C 1.0720(2) 0.41623(7) 0.51921(17)
H36 H 1.0202 0.4084 0.5506
H37 H 1.1362 0.4296 0.5647
C41 C 1.0599(2) 0.48008(7) 0.42095(17)
C42 C 0.8880(2) 0.47398(7) 0.32229(17)
C43 C 0.7832(2) 0.47888(8) 0.25205(18)
H38 H 0.7678 0.5015 0.2122
C44 C 0.7033(2) 0.44873(8) 0.24430(19)
H39 H 0.6332 0.4511 0.1975
C45 C 0.7246(2) 0.41455(8) 0.3050(2)
H40 H 0.6689 0.3948 0.2974
C46 C 0.8273(2) 0.41007(8) 0.37555(19)
H41 H 0.8421 0.3878 0.4164
C47 C 0.9078(2) 0.44044(7) 0.38285(17)
C48 C 1.1769(2) 0.49412(8) 0.47074(18)
H42 H 1.1865 0.5214 0.4503
H43 H 1.2287 0.4756 0.4574
H44 H 1.1911 0.4944 0.5368
C49 C 0.9171(2) 0.13717(7) 0.52630(17)
C50 C 1.0020(2) 0.12036(7) 0.49856(18)
H45 H 1.0774 0.1226 0.5359
C51 C 0.9701(2) 0.10025(8) 0.41377(18)
C52 C 0.8592(2) 0.09365(7) 0.35769(17)
H46 H 0.8413 0.0799 0.3009
C53 C 0.7755(2) 0.10837(7) 0.38937(17)
C54 C 0.8049(2) 0.13135(7) 0.47154(17)
H47 H 0.7487 0.1430 0.4899
C55 C 0.6546(2) 0.09624(7) 0.34121(16)
C56 C 0.9477(2) 0.16024(7) 0.61692(17)
C57 C 1.0415(2) 0.13411(7) 0.97945(17)
C58 C 1.1560(2) 0.12714(7) 1.02525(16)
H48 H 1.2082 0.1412 1.0060
C59 C 1.1936(2) 0.09948(7) 1.09938(16)
C60 C 1.1159(2) 0.07893(7) 1.12926(17)
H49 H 1.1392 0.0597 1.1774
C61 C 1.0028(2) 0.08780(8) 1.08561(17)
C62 C 0.9631(2) 0.11472(8) 1.01113(17)
H50 H 0.8864 0.1197 0.9830
C63 C 1.3174(2) 0.09046(7) 1.14341(17)
C64 C 1.0038(2) 0.16098(7) 0.89462(17)
Co1 Co 0.97341(3) 0.205778(9) 0.75476(2)
Co2 Co 0.49461(3) 0.041437(9) 0.24459(2)
N1 N 0.86739(18) 0.24992(6) 0.77837(14)
N2 N 0.81441(18) 0.31233(6) 0.80743(14)
N3 N 0.96275(18) 0.44954(6) 1.05063(14)
N4 N 1.01108(17) 0.50032(6) 1.15493(14)
N5 N 1.08069(18) 0.24659(6) 0.72159(14)
N6 N 1.14350(18) 0.30575(6) 0.68462(14)
N7 N 1.01631(17) 0.44541(6) 0.44497(14)
N8 N 0.98549(17) 0.49863(6) 0.34749(14)
N9 N 1.0601(2) 0.08496(8) 0.38209(17)
N10 N 0.92165(19) 0.06735(7) 1.12107(16)
O1 O 0.58050(15) 0.10834(5) 0.37081(12)
O2 O 0.63680(14) 0.07075(5) 0.27277(11)
O3 O 0.87252(15) 0.18344(5) 0.62905(12)
O4 O 1.04304(15) 0.15631(5) 0.67657(12)
O5 O 1.1350(2) 0.06495(8) 0.43622(18)
O6 O 1.0554(2) 0.09432(8) 0.30302(17)
O7 O 0.90572(15) 0.15832(5) 0.83800(12)
O8 O 1.07634(15) 0.18531(5) 0.88169(12)
O9 O 0.83497(16) 0.08588(7) 1.11451(15)
O10 O 0.94453(19) 0.03271(7) 1.15496(17)
O11 O 1.34348(14) 0.06395(5) 1.21010(12)
O12 O 1.38611(15) 0.10687(5) 1.11338(12)
Co2_2 Co 1.49461(3) 0.041437(9) 1.24459(2)
Co2A Co 1.00539(3) 0.541437(9) 0.25541(2)
Co2A_2 Co 1.00539(3) 0.541437(9) 1.25541(2)
N4A N 0.48892(17) 0.00032(6) 0.34507(14)
N8A N 0.51451(17) -0.00137(6) 0.15251(14)
O11_2 O 0.34348(14) 0.06395(5) 0.21010(12)
loop_
_geom_bond_atom_site_label_1
_geom_bond_atom_site_label_2
_geom_bond_site_symmetry_1
_geom_bond_site_symmetry_2
C1 C8 1_555 1_555
C2 C3 1_555 1_555
C3 H1 1_555 1_555
C4 C3 1_555 1_555
H2 C4 1_555 1_555
C5 C4 1_555 1_555
H3 C5 1_555 1_555
C6 C5 1_555 1_555
H4 C6 1_555 1_555
C7 C2 1_555 1_555
C8 H5 1_555 1_555
H6 C8 1_555 1_555
H7 C8 1_555 1_555
C9 H8 1_555 1_555
H9 C9 1_555 1_555
C10 C9 1_555 1_555
C11 C10 1_555 1_555
H10 C11 1_555 1_555
C12 C11 1_555 1_555
H11 C12 1_555 1_555
C13 C12 1_555 1_555
H12 C13 1_555 1_555
C14 C13 1_555 1_555
H13 C14 1_555 1_555
C15 C10 1_555 1_555
C16 C15 1_555 1_555
H14 C16 1_555 1_555
H15 C16 1_555 1_555
C17 C24 1_555 1_555
C18 C19 1_555 1_555
C19 H16 1_555 1_555
C20 C19 1_555 1_555
H17 C20 1_555 1_555
C21 C20 1_555 1_555
H18 C21 1_555 1_555
C22 C21 1_555 1_555
H19 C22 1_555 1_555
C23 C18 1_555 1_555
C24 H20 1_555 1_555
H21 C24 1_555 1_555
H22 C24 1_555 1_555
C25 C32 1_555 1_555
C26 C27 1_555 1_555
C27 H23 1_555 1_555
C28 C27 1_555 1_555
H24 C28 1_555 1_555
C29 C28 1_555 1_555
H25 C29 1_555 1_555
C30 C29 1_555 1_555
H26 C30 1_555 1_555
C31 C26 1_555 1_555
C32 H27 1_555 1_555
H28 C32 1_555 1_555
H29 C32 1_555 1_555
C33 H30 1_555 1_555
H31 C33 1_555 1_555
C34 C33 1_555 1_555
C35 C34 1_555 1_555
H32 C35 1_555 1_555
C36 C35 1_555 1_555
H33 C36 1_555 1_555
C37 C36 1_555 1_555
H34 C37 1_555 1_555
C38 C37 1_555 1_555
H35 C38 1_555 1_555
C39 C34 1_555 1_555
C40 C39 1_555 1_555
H36 C40 1_555 1_555
H37 C40 1_555 1_555
C41 C48 1_555 1_555
C42 C43 1_555 1_555
C43 H38 1_555 1_555
C44 C43 1_555 1_555
H39 C44 1_555 1_555
C45 C44 1_555 1_555
H40 C45 1_555 1_555
C46 C45 1_555 1_555
H41 C46 1_555 1_555
C47 C42 1_555 1_555
C48 H42 1_555 1_555
H43 C48 1_555 1_555
H44 C48 1_555 1_555
C49 C50 1_555 1_555
C50 H45 1_555 1_555
C51 C50 1_555 1_555
C52 C51 1_555 1_555
H46 C52 1_555 1_555
C53 C52 1_555 1_555
C54 C49 1_555 1_555
H47 C54 1_555 1_555
C55 C53 1_555 1_555
C56 C49 1_555 1_555
C57 C58 1_555 1_555
C58 H48 1_555 1_555
C59 C58 1_555 1_555
C60 C59 1_555 1_555
H49 C60 1_555 1_555
C61 C60 1_555 1_555
C62 C57 1_555 1_555
H50 C62 1_555 1_555
C63 C59 1_555 1_555
C64 C57 1_555 1_555
Co1 N1 1_555 1_555
Co2 O2 1_555 1_555
N1 C1 1_555 1_555
N2 C1 1_555 1_555
N3 C16 1_555 1_555
N4 C17 1_555 1_555
N5 C25 1_555 1_555
N6 C25 1_555 1_555
N7 C40 1_555 1_555
N8 C41 1_555 1_555
N9 C51 1_555 1_555
N10 C61 1_555 1_555
O1 C55 1_555 1_555
O2 C55 1_555 1_555
O3 C56 1_555 1_555
O4 C56 1_555 1_555
O5 N9 1_555 1_555
O6 N9 1_555 1_555
O7 C64 1_555 1_555
O8 C64 1_555 1_555
O9 N10 1_555 1_555
O10 N10 1_555 1_555
O11 C63 1_555 1_555
O12 C63 1_555 1_555
Co2_2 O11 1_555 1_555
Co2A N8 1_555 1_555
Co2A_2 N4 1_555 1_555
N4A Co2 1_555 1_555
N8A Co2 1_555 1_555
O11_2 Co2 1_555 1_555
C2 N1 1_555 1_555
C6 C7 1_555 1_555
C7 N2 1_555 1_555
C9 N2 1_555 1_555
C14 C15 1_555 1_555
C17 N3 1_555 1_555
C18 N3 1_555 1_555
C22 C23 1_555 1_555
C23 N4 1_555 1_555
C26 N5 1_555 1_555
C30 C31 1_555 1_555
C31 N6 1_555 1_555
C33 N6 1_555 1_555
C38 C39 1_555 1_555
C41 N7 1_555 1_555
C42 N8 1_555 1_555
C46 C47 1_555 1_555
C47 N7 1_555 1_555
C53 C54 1_555 1_555
C61 C62 1_555 1_555
Co1 N5 1_555 1_555
Co1 O3 1_555 1_555
Co1 O4 1_555 1_555
Co1 O7 1_555 1_555
Co1 O8 1_555 1_555

#END
