
#######################################################################
#
#                 Cambridge Crystallographic Data Centre
#                                CCDC 
#
#######################################################################
#
# If this CIF has been generated from an entry in the Cambridge 
# Structural Database, then it will include bibliographic, chemical, 
# crystal, experimental, refinement or atomic coordinate data resulting 
# from the CCDC's data processing and validation procedures.
#
#######################################################################

data_DUQRIR
_symmetry_cell_setting           orthorhombic
_symmetry_space_group_name_H-M   'P b c a'
_symmetry_Int_Tables_number      61
_space_group_name_Hall           '-P 2ac 2ab'
loop_
_symmetry_equiv_pos_site_id
_symmetry_equiv_pos_as_xyz
1 x,y,z
2 1/2-x,-y,1/2+z
3 -x,1/2+y,1/2-z
4 1/2+x,1/2-y,-z
5 -x,-y,-z
6 1/2+x,y,1/2-z
7 x,1/2-y,1/2+z
8 1/2-x,1/2+y,z
_cell_length_a                   17.3784(4)
_cell_length_b                   21.2929(6)
_cell_length_c                   21.9656(5)
_cell_angle_alpha                90
_cell_angle_beta                 90
_cell_angle_gamma                90
_cell_volume                     8128.07
loop_
_atom_site_label
_atom_site_type_symbol
_atom_site_fract_x
_atom_site_fract_y
_atom_site_fract_z
Cd1 Cd 0.36145(3) 0.282602(17) 1.211159(17)
Cd2 Cd 0.60211(3) 0.23294(3) 1.29937(2)
C1 C 0.2222(4) 0.6688(3) 1.2185(2)
C2 C 0.2513(3) 0.6021(2) 1.2146(2)
C3 C 0.2411(3) 0.5692(2) 1.1592(2)
C4 C 0.2100(4) 0.5979(3) 1.1064(3)
H1 H 0.1967 0.6402 1.1076
C5 C 0.1994(4) 0.5652(3) 1.0543(3)
H2 H 0.1781 0.5850 1.0205
C6 C 0.2202(4) 0.5017(3) 1.0510(3)
H3 H 0.2126 0.4796 1.0150
C7 C 0.2510(4) 0.4725(3) 1.0991(3)
H4 H 0.2646 0.4304 1.0958
C8 C 0.2633(3) 0.5042(2) 1.1554(3)
C9 C 0.2965(3) 0.4749(2) 1.2068(2)
C10 C 0.3221(4) 0.4067(2) 1.2033(2)
C11 C 0.3059(3) 0.5074(2) 1.2618(3)
C12 C 0.3373(4) 0.4782(3) 1.3151(3)
H5 H 0.3522 0.4362 1.3135
C13 C 0.3456(4) 0.5107(3) 1.3674(3)
H6 H 0.3657 0.4907 1.4016
C14 C 0.3242(4) 0.5747(3) 1.3709(3)
H7 H 0.3306 0.5964 1.4073
C15 C 0.2946(3) 0.6045(3) 1.3222(3)
H8 H 0.2812 0.6467 1.3254
C16 C 0.2833(3) 0.5723(2) 1.2656(2)
C17 C 0.4217(5) 0.2364(3) 1.5933(3)
C18 C 0.4347(4) 0.2446(3) 1.5247(3)
C19 C 0.4610(4) 0.3024(3) 1.5008(3)
C20 C 0.4874(4) 0.3520(3) 1.5382(3)
H9 H 0.4880 0.3470 1.5803
C21 C 0.5116(4) 0.4063(3) 1.5137(3)
H10 H 0.5290 0.4380 1.5394
C22 C 0.5116(4) 0.4168(3) 1.4503(3)
H11 H 0.5295 0.4545 1.4344
C23 C 0.4848(4) 0.3706(3) 1.4126(3)
H12 H 0.4834 0.3776 1.3708
C24 C 0.4589(3) 0.3122(3) 1.4362(2)
C25 C 0.4327(3) 0.2636(3) 1.3980(2)
C26 C 0.4214(4) 0.2752(3) 1.3303(2)
C27 C 0.4111(3) 0.2051(3) 1.4217(2)
C28 C 0.3885(3) 0.1552(3) 1.3843(3)
H13 H 0.3875 0.1611 1.3424
C29 C 0.3680(4) 0.0983(3) 1.4075(3)
H14 H 0.3527 0.0661 1.3815
C30 C 0.3701(4) 0.0881(3) 1.4713(3)
H15 H 0.3569 0.0491 1.4871
C31 C 0.3911(4) 0.1349(3) 1.5088(3)
H16 H 0.3917 0.1276 1.5506
C32 C 0.4126(3) 0.1955(3) 1.4864(2)
C33 C 0.6684(6) 0.3052(5) 1.4215(5)
H17 H 0.6720 0.3386 1.3943
C34 C 0.6940(7) 0.3133(6) 1.4787(6)
H18 H 0.7180 0.3505 1.4900
C35 C 0.6841(10) 0.2654(7) 1.5204(7)
H19 H 0.6980 0.2705 1.5610
C36 C 0.6511(8) 0.2066(6) 1.4985(5)
H20 H 0.6452 0.1728 1.5250
C37 C 0.6287(5) 0.2010(4) 1.4384(3)
C38 C 0.5981(4) 0.1446(4) 1.4132(4)
C39 C 0.5847(5) 0.0904(4) 1.4510(5)
H21 H 0.5942 0.0912 1.4926
C40 C 0.5583(6) 0.0396(5) 1.4238(5)
H22 H 0.5488 0.0043 1.4474
C41 C 0.5438(6) 0.0360(4) 1.3608(6)
H23 H 0.5276 -0.0012 1.3427
C42 C 0.5546(5) 0.0896(3) 1.3272(4)
H24 H 0.5427 0.0902 1.2859
N1 N 0.6375(4) 0.2506(3) 1.4016(3)
N2 N 0.5835(3) 0.1432(3) 1.3556(3)
O1 O 0.5829(5) 0.2113(5) 1.2014(3)
H29 H 0.5481 0.2334 1.1882
H30 H 0.6273 0.2217 1.1883
O2 O 0.2711(2) 0.36503(17) 1.20563(19)
O3 O 0.6248(4) 0.3351(3) 1.2802(4)
H31 H 0.6708 0.3424 1.2845
O4 O 0.3911(3) 0.39455(19) 1.2010(2)
O5 O 0.1502(2) 0.67530(18) 1.22253(19)
O7 O 0.2672(2) 0.71406(17) 1.21785(19)
O9 O 0.3566(3) 0.2940(2) 1.31411(18)
O11 O 0.4744(2) 0.2649(2) 1.29348(17)
O13 O 0.4751(4) 0.2310(3) 1.6286(2)
O14 O 0.3523(4) 0.2355(3) 1.6100(2)
H33 H 0.6115(15) 0.3294(8) 1.2434(8)
Cd1G Cd 0.13855(3) 0.782602(17) 1.211159(17)
Cd1F Cd 0.36145(3) 0.217398(17) 1.711159(17)
Cd2B Cd 0.39789(3) 0.73294(3) 1.20063(2)
O5G O 0.3498(2) 0.17530(18) 1.22253(19)
O7B O 0.7328(2) 0.21406(17) 1.28215(19)
O14F O 0.3523(4) 0.2645(3) 1.1100(2)
C43 C 0.4645(12) 0.5636(14) 0.7383(11)
H25 H 0.4272 0.5838 0.7639
H26 H 0.4711 0.5876 0.7017
H27 H 0.5127 0.5608 0.7595
C44 C 0.4380(16) 0.5014(12) 0.7230(12)
H28 H 0.3932 0.4914 0.7440
O15 O 0.4611(9) 0.4518(10) 0.6854(8)
H32 H 0.4290 0.4237 0.6868
O6 O 0.2076(6) 0.3061(10) 0.3558(5)
O8 O 0.4453(10) 0.6194(6) 0.8355(10)
O10 O 0.359(4) 0.5836(19) 0.8843(16)
O12? O 0.4766(8) 0.3968(7) 0.7002(6)
loop_
_geom_bond_atom_site_label_1
_geom_bond_atom_site_label_2
_geom_bond_site_symmetry_1
_geom_bond_site_symmetry_2
Cd1 O2 1_555 1_555
Cd2 N1 1_555 1_555
C1 C2 1_555 1_555
C2 C3 1_555 1_555
C3 C4 1_555 1_555
C4 H1 1_555 1_555
C5 C4 1_555 1_555
H2 C5 1_555 1_555
C6 C5 1_555 1_555
H3 C6 1_555 1_555
C7 C6 1_555 1_555
H4 C7 1_555 1_555
C8 C3 1_555 1_555
C9 C8 1_555 1_555
C10 C9 1_555 1_555
C11 C9 1_555 1_555
C12 C11 1_555 1_555
H5 C12 1_555 1_555
C13 C12 1_555 1_555
H6 C13 1_555 1_555
C14 C13 1_555 1_555
H7 C14 1_555 1_555
C15 C14 1_555 1_555
H8 C15 1_555 1_555
C16 C2 1_555 1_555
C17 C18 1_555 1_555
C18 C19 1_555 1_555
C19 C20 1_555 1_555
C20 H9 1_555 1_555
C21 C20 1_555 1_555
H10 C21 1_555 1_555
C22 C21 1_555 1_555
H11 C22 1_555 1_555
C23 C22 1_555 1_555
H12 C23 1_555 1_555
C24 C19 1_555 1_555
C25 C24 1_555 1_555
C26 C25 1_555 1_555
C27 C25 1_555 1_555
C28 C27 1_555 1_555
H13 C28 1_555 1_555
C29 C28 1_555 1_555
H14 C29 1_555 1_555
C30 C29 1_555 1_555
H15 C30 1_555 1_555
C31 C30 1_555 1_555
H16 C31 1_555 1_555
C32 C18 1_555 1_555
C33 H17 1_555 1_555
C34 C33 1_555 1_555
H18 C34 1_555 1_555
C35 C34 1_555 1_555
H19 C35 1_555 1_555
C36 C35 1_555 1_555
H20 C36 1_555 1_555
C37 C36 1_555 1_555
C38 C37 1_555 1_555
C39 C38 1_555 1_555
H21 C39 1_555 1_555
C40 C39 1_555 1_555
H22 C40 1_555 1_555
C41 C40 1_555 1_555
H23 C41 1_555 1_555
C42 C41 1_555 1_555
H24 C42 1_555 1_555
C43 H25 1_555 1_555
H26 C43 1_555 1_555
H27 C43 1_555 1_555
C44 C43 1_555 1_555
H28 C44 1_555 1_555
N1 C33 1_555 1_555
N2 Cd2 1_555 1_555
O1 Cd2 1_555 1_555
H29 O1 1_555 1_555
H30 O1 1_555 1_555
O2 C10 1_555 1_555
O3 Cd2 1_555 1_555
H31 O3 1_555 1_555
O4 Cd1 1_555 1_555
O5 C1 1_555 1_555
O7 C1 1_555 1_555
O9 Cd1 1_555 1_555
O11 Cd2 1_555 1_555
O13 C17 1_555 1_555
O14 C17 1_555 1_555
O15 C44 1_555 1_555
H32 O15 1_555 1_555
H33 O3 1_555 1_555
Cd1G O5 1_555 1_555
Cd1F O14 1_555 1_555
Cd2B O7 1_555 1_555
O5G Cd1 1_555 1_555
O7B Cd2 1_555 1_555
O14F Cd1 1_555 1_555
C7 C8 1_555 1_555
C10 O4 1_555 1_555
C11 C16 1_555 1_555
C15 C16 1_555 1_555
C23 C24 1_555 1_555
C26 O9 1_555 1_555
C26 O11 1_555 1_555
C27 C32 1_555 1_555
C31 C32 1_555 1_555
C37 N1 1_555 1_555
C38 N2 1_555 1_555
C42 N2 1_555 1_555

#END
