
#######################################################################
#
#                 Cambridge Crystallographic Data Centre
#                                CCDC 
#
#######################################################################
#
# If this CIF has been generated from an entry in the Cambridge 
# Structural Database, then it will include bibliographic, chemical, 
# crystal, experimental, refinement or atomic coordinate data resulting 
# from the CCDC's data processing and validation procedures.
#
#######################################################################

data_DUQRUD
_symmetry_cell_setting           monoclinic
_symmetry_space_group_name_H-M   'C 2/c'
_symmetry_Int_Tables_number      15
_space_group_name_Hall           '-C 2yn'
loop_
_symmetry_equiv_pos_site_id
_symmetry_equiv_pos_as_xyz
1 x,y,z
2 -x,y,1/2-z
3 1/2+x,1/2+y,z
4 1/2-x,1/2+y,1/2-z
5 -x,-y,-z
6 x,-y,1/2+z
7 1/2-x,1/2-y,-z
8 1/2+x,1/2-y,1/2+z
_cell_length_a                   20.542(5)
_cell_length_b                   28.488(7)
_cell_length_c                   20.519(5)
_cell_angle_alpha                90
_cell_angle_beta                 99.776(5)
_cell_angle_gamma                90
_cell_volume                     11833.4
loop_
_atom_site_label
_atom_site_type_symbol
_atom_site_fract_x
_atom_site_fract_y
_atom_site_fract_z
Cd1 Cd 0.69783(3) 0.881904(18) 0.41284(3)
Cd2 Cd 0.81652(4) 0.91770(2) 0.65610(3)
N1 N 0.7655(4) 0.8283(2) 0.3703(3)
N2 N 0.6337(3) 0.8209(2) 0.3643(3)
N3 N 0.6621(3) 0.9272(2) 0.3144(3)
N4 N 0.7624(3) 0.9491(2) 0.4135(3)
N5 N 0.7410(4) 0.9746(2) 0.6099(3)
N6 N 0.8415(5) 0.9906(3) 0.7117(4)
C1 C 0.8303(5) 0.8327(4) 0.3746(5)
H1 H 0.8506 0.8596 0.3942
C2 C 0.8688(6) 0.7993(4) 0.3511(6)
H2 H 0.9142 0.8034 0.3544
C3 C 0.8373(8) 0.7586(5) 0.3219(6)
H3 H 0.8621 0.7349 0.3070
C4 C 0.7716(6) 0.7542(3) 0.3156(5)
H4 H 0.7503 0.7282 0.2946
C5 C 0.7354(5) 0.7891(3) 0.3410(4)
C6 C 0.6640(5) 0.7863(3) 0.3381(4)
C7 C 0.6172(6) 0.7522(3) 0.3125(4)
H5 H 0.6251 0.7245 0.2912
C8 C 0.5573(6) 0.7679(3) 0.3251(4)
H6 H 0.5166 0.7530 0.3147
N7 N 0.5705(4) 0.8098(2) 0.3559(3)
H7 H 0.5408 0.8273 0.3685
C9 C 0.6129(4) 0.9166(3) 0.2662(4)
H8 H 0.5930 0.8874 0.2676
C10 C 0.5891(5) 0.9455(3) 0.2143(4)
H9 H 0.5531 0.9368 0.1827
C11 C 0.6197(4) 0.9873(3) 0.2104(4)
H10 H 0.6062 1.0072 0.1748
C12 C 0.6707(4) 1.0001(3) 0.2591(3)
H11 H 0.6911 1.0292 0.2578
C13 C 0.6911(4) 0.9694(3) 0.3098(3)
C14 C 0.7458(4) 0.9808(3) 0.3647(3)
C15 C 0.7848(5) 1.0201(3) 0.3758(4)
H12 H 0.7832 1.0470 0.3499
C16 C 0.8258(5) 1.0110(3) 0.4327(4)
H13 H 0.8588 1.0310 0.4531
N8 N 0.8123(3) 0.9694(2) 0.4553(3)
H14 H 0.8323 0.9571 0.4915
C17 C 0.7686(4) 0.8441(3) 0.5565(4)
C18 C 0.7590(4) 0.7953(2) 0.5272(4)
C19 C 0.6949(4) 0.7759(2) 0.5153(4)
C20 C 0.6383(4) 0.7998(3) 0.5304(4)
H15 H 0.6432 0.8296 0.5493
C21 C 0.5766(4) 0.7795(3) 0.5174(4)
H16 H 0.5403 0.7957 0.5275
C22 C 0.5681(4) 0.7358(3) 0.4897(5)
H17 H 0.5260 0.7227 0.4812
C23 C 0.6206(4) 0.7111(3) 0.4744(4)
H18 H 0.6134 0.6814 0.4555
C24 C 0.8142(4) 0.7705(2) 0.5135(4)
C25 C 0.5594(4) 0.9205(3) 0.4424(4)
C26 C 0.5275(3) 0.9618(2) 0.4722(4)
C27 C 0.5221(3) 1.0046(3) 0.4391(4)
C28 C 0.5461(4) 1.0119(3) 0.3773(4)
H19 H 0.5643 0.9868 0.3577
C29 C 0.5424(5) 1.0547(4) 0.3475(5)
H20 H 0.5583 1.0589 0.3081
C30 C 0.5143(5) 1.0924(3) 0.3771(5)
H21 H 0.5114 1.1216 0.3565
C31 C 0.4914(4) 1.0875(3) 0.4345(5)
H22 H 0.4732 1.1134 0.4526
C32 C 0.5056(4) 0.9556(2) 0.5325(4)
C33 C 0.9374(4) 0.9493(3) 0.5966(5)
C34 C 0.9702(4) 0.9747(3) 0.5464(4)
C35 C 0.9734(4) 1.0248(3) 0.5493(4)
C36 C 0.9457(5) 1.0517(4) 0.5966(5)
H23 H 0.9248 1.0361 0.6271
C37 C 0.9489(5) 1.0992(4) 0.5983(6)
H24 H 0.9303 1.1159 0.6295
C38 C 0.9805(6) 1.1228(4) 0.5528(6)
H25 H 0.9845 1.1553 0.5555
C39 C 1.0054(5) 1.0999(4) 0.5051(6)
H26 H 1.0238 1.1171 0.4742
C40 C 0.9958(4) 0.9505(3) 0.4991(5)
N9 N 0.6914(4) 0.9779(3) 0.5575(4)
H27 H 0.6738 0.9543 0.5348
C41 C 0.6738(5) 1.0213(4) 0.5458(6)
H28 H 0.6404 1.0315 0.5124
C42 C 0.7115(6) 1.0493(4) 0.5898(6)
H29 H 0.7099 1.0818 0.5929
C43 C 0.7531(4) 1.0188(3) 0.6293(5)
C44 C 0.8069(5) 1.0275(3) 0.6868(5)
C45 C 0.8197(6) 1.0726(4) 0.7091(6)
H30 H 0.7948 1.0978 0.6898
C46 C 0.8700(8) 1.0790(6) 0.7605(6)
H31 H 0.8809 1.1091 0.7763
C47 C 0.9059(8) 1.0402(6) 0.7899(6)
H32 H 0.9390 1.0436 0.8266
C48 C 0.8898(6) 0.9970(4) 0.7620(5)
H33 H 0.9141 0.9711 0.7795
O1 O 0.7510(2) 0.87884(14) 0.5204(2)
O2 O 0.7962(3) 0.84620(19) 0.6153(3)
O3 O 0.6213(2) 0.91632(17) 0.4633(2)
O4 O 0.5268(3) 0.8948(2) 0.4019(3)
O5 O 0.8770(2) 0.93859(19) 0.5779(3)
O6 O 0.9697(3) 0.9420(3) 0.6536(3)
N10 N 0.8836(5) 0.8796(3) 0.7461(4)
N11 N 0.9504(5) 0.8710(3) 0.7666(5)
H34 H 0.9819 0.8809 0.7475
C49 C 0.9573(5) 0.8436(4) 0.8232(6)
H35 H 0.9969 0.8328 0.8472
C50 C 0.8948(6) 0.8353(4) 0.8377(5)
H36 H 0.8852 0.8179 0.8732
C51 C 0.8493(4) 0.8575(3) 0.7901(5)
N12 N 0.7452(4) 0.8865(3) 0.7285(4)
C52 C 0.7773(3) 0.8603(3) 0.7816(5)
C53 C 0.7410(5) 0.8322(3) 0.8176(4)
H37 H 0.7625 0.8147 0.8531
C54 C 0.6726(5) 0.8303(3) 0.8006(5)
H38 H 0.6483 0.8115 0.8248
C55 C 0.6405(3) 0.8565(4) 0.7476(5)
H39 H 0.5947 0.8552 0.7362
C56 C 0.6768(4) 0.8846(3) 0.7115(4)
H40 H 0.6553 0.9021 0.6760
Cd1F Cd 0.80217(3) 0.618096(18) 0.58716(3)
Cd1D Cd 0.30217(3) 1.118096(18) 0.58716(3)
Cd2F Cd 0.68348(4) 0.58230(2) 0.34390(3)
Cd2D Cd 1.18348(4) 1.08230(2) 0.34390(3)
N1F N 0.7345(4) 0.6717(2) 0.6297(3)
N2F N 0.8663(3) 0.6791(2) 0.6357(3)
N3F N 0.8379(3) 0.5728(2) 0.6856(3)
N4F N 0.7376(3) 0.5509(2) 0.5865(3)
N5F N 0.7590(4) 0.5254(2) 0.3901(3)
N6F N 0.6585(5) 0.5094(3) 0.2883(4)
C1F C 0.6697(5) 0.6673(4) 0.6254(5)
H1F H 0.6494 0.6404 0.6058
C2F C 0.6312(6) 0.7007(4) 0.6489(6)
H2F H 0.5858 0.6966 0.6456
C3F C 0.6627(8) 0.7414(5) 0.6781(6)
H3F H 0.6379 0.7651 0.6930
C4F C 0.7284(6) 0.7458(3) 0.6844(5)
H4F H 0.7497 0.7718 0.7054
C5F C 0.7646(5) 0.7109(3) 0.6590(4)
C6F C 0.8360(5) 0.7137(3) 0.6619(4)
C7F C 0.8828(6) 0.7478(3) 0.6875(4)
H5F H 0.8749 0.7755 0.7088
C8F C 0.9427(6) 0.7321(3) 0.6749(4)
H6F H 0.9834 0.7470 0.6853
N7F N 0.9295(4) 0.6902(2) 0.6441(3)
H7F H 0.9592 0.6727 0.6315
C9F C 0.8871(4) 0.5834(3) 0.7338(4)
H8F H 0.9070 0.6126 0.7324
C10F C 0.9109(5) 0.5545(3) 0.7857(4)
H9F H 0.9469 0.5632 0.8173
C11F C 0.8803(4) 0.5127(3) 0.7896(4)
H10F H 0.8938 0.4928 0.8252
C12F C 0.8293(4) 0.4999(3) 0.7409(3)
H11F H 0.8089 0.4708 0.7422
C13F C 0.8089(4) 0.5306(3) 0.6902(3)
C14F C 0.7542(4) 0.5192(3) 0.6353(3)
C15F C 0.7152(5) 0.4799(3) 0.6242(4)
H12F H 0.7168 0.4530 0.6501
C16F C 0.6742(5) 0.4890(3) 0.5673(4)
H13F H 0.6412 0.4690 0.5469
N8F N 0.6877(3) 0.5306(2) 0.5447(3)
H14F H 0.6677 0.5429 0.5085
C17F C 0.7314(4) 0.6559(3) 0.4435(4)
C18F C 0.7410(4) 0.7047(2) 0.4728(4)
C19F C 0.8051(4) 0.7241(2) 0.4847(4)
C20F C 0.8617(4) 0.7002(3) 0.4696(4)
H15F H 0.8568 0.6704 0.4507
C21F C 0.9234(4) 0.7205(3) 0.4826(4)
H16F H 0.9597 0.7043 0.4725
C22F C 0.9319(4) 0.7642(3) 0.5103(5)
H17F H 0.9740 0.7773 0.5188
C23F C 0.8794(4) 0.7889(3) 0.5256(4)
H18F H 0.8866 0.8186 0.5445
C24F C 0.6858(4) 0.7295(2) 0.4865(4)
C25D C 0.4406(4) 1.0795(3) 0.5576(4)
C26D C 0.4725(3) 1.0382(2) 0.5278(4)
C27D C 0.4779(3) 0.9954(3) 0.5609(4)
C28D C 0.4539(4) 0.9881(3) 0.6227(4)
H19D H 0.4357 1.0132 0.6423
C29D C 0.4576(5) 0.9453(4) 0.6525(5)
H20D H 0.4417 0.9411 0.6919
C30D C 0.4857(5) 0.9076(3) 0.6229(5)
H21D H 0.4886 0.8784 0.6435
C31D C 0.5086(4) 0.9125(3) 0.5655(5)
H22D H 0.5268 0.8866 0.5474
C32D C 0.4944(4) 1.0444(2) 0.4675(4)
C33D C 1.0626(4) 1.0507(3) 0.4034(5)
C34D C 1.0298(4) 1.0253(3) 0.4536(4)
C35D C 1.0266(4) 0.9752(3) 0.4507(4)
C36D C 1.0543(5) 0.9483(4) 0.4034(5)
H23D H 1.0752 0.9639 0.3729
C37D C 1.0511(5) 0.9008(4) 0.4017(6)
H24D H 1.0697 0.8841 0.3705
C38D C 1.0195(6) 0.8772(4) 0.4472(6)
H25D H 1.0155 0.8447 0.4445
C39D C 0.9946(5) 0.9001(4) 0.4949(6)
H26D H 0.9762 0.8829 0.5258
C40D C 1.0042(4) 1.0495(3) 0.5009(5)
N9F N 0.8086(4) 0.5221(3) 0.4425(4)
H27F H 0.8262 0.5457 0.4652
C41F C 0.8262(5) 0.4787(4) 0.4542(6)
H28F H 0.8596 0.4685 0.4876
C42F C 0.7885(6) 0.4507(4) 0.4102(6)
H29F H 0.7901 0.4182 0.4071
C43F C 0.7469(4) 0.4812(3) 0.3707(5)
C44F C 0.6931(5) 0.4725(3) 0.3132(5)
C45F C 0.6803(6) 0.4274(4) 0.2909(6)
H30F H 0.7052 0.4022 0.3102
C46F C 0.6300(8) 0.4210(6) 0.2395(6)
H31F H 0.6191 0.3909 0.2237
C47F C 0.5941(8) 0.4598(6) 0.2101(6)
H32F H 0.5610 0.4564 0.1734
C48F C 0.6102(6) 0.5030(4) 0.2380(5)
H33F H 0.5859 0.5289 0.2205
O1F O 0.7490(2) 0.62116(14) 0.4796(2)
O2F O 0.7038(3) 0.65380(19) 0.3847(3)
O3D O 0.3787(2) 1.08368(17) 0.5367(2)
O3F O 0.8787(2) 0.58368(17) 0.5367(2)
O4D O 0.4732(3) 1.1052(2) 0.5981(3)
O5D O 1.1230(2) 1.06141(19) 0.4221(3)
O5F O 0.6230(2) 0.56141(19) 0.4221(3)
O6D O 1.0303(3) 1.0580(3) 0.3464(3)
N10F N 0.6164(5) 0.6204(3) 0.2539(4)
N11F N 0.5496(5) 0.6290(3) 0.2334(5)
H34F H 0.5181 0.6191 0.2525
C49F C 0.5427(5) 0.6564(4) 0.1768(6)
H35F H 0.5031 0.6672 0.1528
C50F C 0.6052(6) 0.6647(4) 0.1623(5)
H36F H 0.6148 0.6821 0.1268
C51F C 0.6507(4) 0.6425(3) 0.2099(5)
N12F N 0.7548(4) 0.6135(3) 0.2715(4)
C52F C 0.7227(3) 0.6397(3) 0.2184(5)
C53F C 0.7590(5) 0.6678(3) 0.1824(4)
H37F H 0.7375 0.6853 0.1469
C54F C 0.8274(5) 0.6697(3) 0.1994(5)
H38F H 0.8517 0.6885 0.1752
C55F C 0.8595(3) 0.6435(4) 0.2524(5)
H39F H 0.9053 0.6448 0.2638
C56F C 0.8232(4) 0.6154(3) 0.2885(4)
H40F H 0.8447 0.5979 0.3240
O7 O 0.5785(7) 0.7440(8) 0.9104(9)
O8 O 0.5773(7) 0.7431(9) 1.0157(11)
C57 C 0.6079(4) 0.7443(4) 0.9686(9)
C58 C 0.6820(3) 0.7462(3) 0.9828(5)
C59 C 0.7195(4) 0.7061(2) 0.9976(6)
C60 C 0.6892(7) 0.6626(3) 0.9996(7)
H41 H 0.6434 0.6602 0.9910
C61 C 0.7275(9) 0.6230(5) 1.0144(9)
H42 H 0.7077 0.5935 1.0098
C62 C 0.7953(9) 0.6265(4) 1.0363(9)
H43 H 0.8199 0.6002 1.0521
C63 C 0.8261(6) 0.6702(4) 1.0341(7)
H44 H 0.8719 0.6725 1.0425
C64 C 0.7125(4) 0.7899(2) 0.9808(7)
O7F O 0.9215(7) 0.7560(8) 1.0896(9)
O8F O 0.9227(7) 0.7569(9) 0.9843(11)
C57F C 0.8921(4) 0.7557(4) 1.0314(9)
C58F C 0.8180(3) 0.7538(3) 1.0172(5)
C59F C 0.7805(4) 0.7939(2) 1.0024(6)
C60F C 0.8108(7) 0.8374(3) 1.0004(7)
H41F H 0.8566 0.8398 1.0090
C61F C 0.7725(9) 0.8770(5) 0.9856(9)
H42F H 0.7923 0.9065 0.9902
C62F C 0.7047(9) 0.8735(4) 0.9637(9)
H43F H 0.6801 0.8998 0.9479
C63F C 0.6739(6) 0.8298(4) 0.9659(7)
H44F H 0.6281 0.8275 0.9575
C64F C 0.7875(4) 0.7101(2) 1.0192(7)
loop_
_geom_bond_atom_site_label_1
_geom_bond_atom_site_label_2
_geom_bond_site_symmetry_1
_geom_bond_site_symmetry_2
Cd1 N1 1_555 1_555
Cd2 N5 1_555 1_555
N1 C1 1_555 1_555
N2 Cd1 1_555 1_555
N3 Cd1 1_555 1_555
N4 Cd1 1_555 1_555
N5 N9 1_555 1_555
N6 Cd2 1_555 1_555
C1 H1 1_555 1_555
C2 C1 1_555 1_555
H2 C2 1_555 1_555
C3 C2 1_555 1_555
H3 C3 1_555 1_555
C4 C3 1_555 1_555
H4 C4 1_555 1_555
C5 N1 1_555 1_555
C6 N2 1_555 1_555
C7 C6 1_555 1_555
H5 C7 1_555 1_555
C8 C7 1_555 1_555
H6 C8 1_555 1_555
N7 N2 1_555 1_555
H7 N7 1_555 1_555
C9 N3 1_555 1_555
H8 C9 1_555 1_555
C10 C9 1_555 1_555
H9 C10 1_555 1_555
C11 C10 1_555 1_555
H10 C11 1_555 1_555
C12 C11 1_555 1_555
H11 C12 1_555 1_555
C13 N3 1_555 1_555
C14 N4 1_555 1_555
C15 C14 1_555 1_555
H12 C15 1_555 1_555
C16 C15 1_555 1_555
H13 C16 1_555 1_555
N8 N4 1_555 1_555
H14 N8 1_555 1_555
C17 C18 1_555 1_555
C18 C19 1_555 1_555
C19 C20 1_555 1_555
C20 H15 1_555 1_555
C21 C20 1_555 1_555
H16 C21 1_555 1_555
C22 C21 1_555 1_555
H17 C22 1_555 1_555
C23 C22 1_555 1_555
H18 C23 1_555 1_555
C24 C18 1_555 1_555
C25 C26 1_555 1_555
C26 C27 1_555 1_555
C27 C28 1_555 1_555
C28 H19 1_555 1_555
C29 C28 1_555 1_555
H20 C29 1_555 1_555
C30 C29 1_555 1_555
H21 C30 1_555 1_555
C31 C30 1_555 1_555
H22 C31 1_555 1_555
C32 C26 1_555 1_555
C33 C34 1_555 1_555
C34 C35 1_555 1_555
C35 C36 1_555 1_555
C36 H23 1_555 1_555
C37 C36 1_555 1_555
H24 C37 1_555 1_555
C38 C37 1_555 1_555
H25 C38 1_555 1_555
C39 C38 1_555 1_555
H26 C39 1_555 1_555
C40 C34 1_555 1_555
N9 H27 1_555 1_555
C41 N9 1_555 1_555
H28 C41 1_555 1_555
C42 C41 1_555 1_555
H29 C42 1_555 1_555
C43 N5 1_555 1_555
C44 N6 1_555 1_555
C45 C44 1_555 1_555
H30 C45 1_555 1_555
C46 C45 1_555 1_555
H31 C46 1_555 1_555
C47 C46 1_555 1_555
H32 C47 1_555 1_555
C48 N6 1_555 1_555
H33 C48 1_555 1_555
O1 Cd1 1_555 1_555
O2 Cd2 1_555 1_555
O3 Cd1 1_555 1_555
O4 C25 1_555 1_555
O5 Cd2 1_555 1_555
O6 C33 1_555 1_555
N10 Cd2 1_555 1_555
N11 N10 1_555 1_555
H34 N11 1_555 1_555
C49 N11 1_555 1_555
H35 C49 1_555 1_555
C50 C49 1_555 1_555
H36 C50 1_555 1_555
C51 N10 1_555 1_555
N12 Cd2 1_555 1_555
C52 C51 1_555 1_555
C53 C52 1_555 1_555
H37 C53 1_555 1_555
C54 C53 1_555 1_555
H38 C54 1_555 1_555
C55 C54 1_555 1_555
H39 C55 1_555 1_555
C56 N12 1_555 1_555
H40 C56 1_555 1_555
O7 C57 1_555 1_555
O8 C57 1_555 1_555
C57 C58 1_555 1_555
C58 C59 1_555 1_555
C59 C60 1_555 1_555
C60 H41 1_555 1_555
C61 C60 1_555 1_555
H42 C61 1_555 1_555
C62 C61 1_555 1_555
H43 C62 1_555 1_555
C63 C62 1_555 1_555
H44 C63 1_555 1_555
C64 C58 1_555 1_555
Cd1F N1F 1_555 1_555
Cd1D O3D 1_555 1_555
Cd2F N5F 1_555 1_555
Cd2D O5D 1_555 1_555
N1F C1F 1_555 1_555
N2F Cd1F 1_555 1_555
N3F Cd1F 1_555 1_555
N4F Cd1F 1_555 1_555
N5F N9F 1_555 1_555
N6F Cd2F 1_555 1_555
C1F H1F 1_555 1_555
C2F C1F 1_555 1_555
H2F C2F 1_555 1_555
C3F C2F 1_555 1_555
H3F C3F 1_555 1_555
C4F C3F 1_555 1_555
H4F C4F 1_555 1_555
C5F N1F 1_555 1_555
C6F N2F 1_555 1_555
C7F C6F 1_555 1_555
H5F C7F 1_555 1_555
C8F C7F 1_555 1_555
H6F C8F 1_555 1_555
N7F N2F 1_555 1_555
H7F N7F 1_555 1_555
C9F N3F 1_555 1_555
H8F C9F 1_555 1_555
C10F C9F 1_555 1_555
H9F C10F 1_555 1_555
C11F C10F 1_555 1_555
H10F C11F 1_555 1_555
C12F C11F 1_555 1_555
H11F C12F 1_555 1_555
C13F N3F 1_555 1_555
C14F N4F 1_555 1_555
C15F C14F 1_555 1_555
H12F C15F 1_555 1_555
C16F C15F 1_555 1_555
H13F C16F 1_555 1_555
N8F N4F 1_555 1_555
H14F N8F 1_555 1_555
C17F C18F 1_555 1_555
C18F C19F 1_555 1_555
C19F C24 1_555 1_555
C20F C19F 1_555 1_555
H15F C20F 1_555 1_555
C21F C20F 1_555 1_555
H16F C21F 1_555 1_555
C22F C21F 1_555 1_555
H17F C22F 1_555 1_555
C23F C24 1_555 1_555
H18F C23F 1_555 1_555
C24F C19 1_555 1_555
C25D C26D 1_555 1_555
C26D C27D 1_555 1_555
C27D C32 1_555 1_555
C28D C27D 1_555 1_555
H19D C28D 1_555 1_555
C29D C28D 1_555 1_555
H20D C29D 1_555 1_555
C30D C29D 1_555 1_555
H21D C30D 1_555 1_555
C31D C32 1_555 1_555
H22D C31D 1_555 1_555
C32D C27 1_555 1_555
C33D C34D 1_555 1_555
C34D C35D 1_555 1_555
C35D C40 1_555 1_555
C36D C35D 1_555 1_555
H23D C36D 1_555 1_555
C37D C36D 1_555 1_555
H24D C37D 1_555 1_555
C38D C37D 1_555 1_555
H25D C38D 1_555 1_555
C39D C40 1_555 1_555
H26D C39D 1_555 1_555
C40D C35 1_555 1_555
N9F H27F 1_555 1_555
C41F N9F 1_555 1_555
H28F C41F 1_555 1_555
C42F C41F 1_555 1_555
H29F C42F 1_555 1_555
C43F N5F 1_555 1_555
C44F N6F 1_555 1_555
C45F C44F 1_555 1_555
H30F C45F 1_555 1_555
C46F C45F 1_555 1_555
H31F C46F 1_555 1_555
C47F C46F 1_555 1_555
H32F C47F 1_555 1_555
C48F N6F 1_555 1_555
H33F C48F 1_555 1_555
O1F Cd1F 1_555 1_555
O2F Cd2F 1_555 1_555
O3D C25D 1_555 1_555
O3F Cd1F 1_555 1_555
O4D C25D 1_555 1_555
O5D C33D 1_555 1_555
O5F Cd2F 1_555 1_555
O6D C33D 1_555 1_555
N10F Cd2F 1_555 1_555
N11F N10F 1_555 1_555
H34F N11F 1_555 1_555
C49F N11F 1_555 1_555
H35F C49F 1_555 1_555
C50F C49F 1_555 1_555
H36F C50F 1_555 1_555
C51F N10F 1_555 1_555
N12F Cd2F 1_555 1_555
C52F C51F 1_555 1_555
C53F C52F 1_555 1_555
H37F C53F 1_555 1_555
C54F C53F 1_555 1_555
H38F C54F 1_555 1_555
C55F C54F 1_555 1_555
H39F C55F 1_555 1_555
C56F N12F 1_555 1_555
H40F C56F 1_555 1_555
O7F C57F 1_555 1_555
O8F C57F 1_555 1_555
C57F C58F 1_555 1_555
C58F C59F 1_555 1_555
C59F C64 1_555 1_555
C60F C59F 1_555 1_555
H41F C60F 1_555 1_555
C61F C60F 1_555 1_555
H42F C61F 1_555 1_555
C62F C61F 1_555 1_555
H43F C62F 1_555 1_555
C63F C64 1_555 1_555
H44F C63F 1_555 1_555
C64F C59 1_555 1_555
C4 C5 1_555 1_555
C5 C6 1_555 1_555
C8 N7 1_555 1_555
C12 C13 1_555 1_555
C13 C14 1_555 1_555
C16 N8 1_555 1_555
C17 O1 1_555 1_555
C17 O2 1_555 1_555
C23 C24F 1_555 1_555
C25 O3 1_555 1_555
C31 C32D 1_555 1_555
C33 O5 1_555 1_555
C39 C40D 1_555 1_555
C42 C43 1_555 1_555
C43 C44 1_555 1_555
C47 C48 1_555 1_555
C50 C51 1_555 1_555
N12 C52 1_555 1_555
C55 C56 1_555 1_555
C63 C64F 1_555 1_555
C4F C5F 1_555 1_555
C5F C6F 1_555 1_555
C8F N7F 1_555 1_555
C12F C13F 1_555 1_555
C13F C14F 1_555 1_555
C16F N8F 1_555 1_555
C17F O1F 1_555 1_555
C17F O2F 1_555 1_555
C18F C24F 1_555 1_555
C22F C23F 1_555 1_555
C26D C32D 1_555 1_555
C30D C31D 1_555 1_555
C34D C40D 1_555 1_555
C38D C39D 1_555 1_555
C42F C43F 1_555 1_555
C43F C44F 1_555 1_555
C47F C48F 1_555 1_555
C50F C51F 1_555 1_555
N12F C52F 1_555 1_555
C55F C56F 1_555 1_555
C58F C64F 1_555 1_555
C62F C63F 1_555 1_555

#END
