
#######################################################################
#
#                 Cambridge Crystallographic Data Centre
#                                CCDC 
#
#######################################################################
#
# If this CIF has been generated from an entry in the Cambridge 
# Structural Database, then it will include bibliographic, chemical, 
# crystal, experimental, refinement or atomic coordinate data resulting 
# from the CCDC's data processing and validation procedures.
#
#######################################################################

data_DUQWUJ
_symmetry_cell_setting           monoclinic
_symmetry_space_group_name_H-M   'P 21/c'
_symmetry_Int_Tables_number      14
_space_group_name_Hall           '-P 2ybc'
loop_
_symmetry_equiv_pos_site_id
_symmetry_equiv_pos_as_xyz
1 x,y,z
2 -x,1/2+y,1/2-z
3 -x,-y,-z
4 x,1/2-y,1/2+z
_cell_length_a                   9.4498(16)
_cell_length_b                   11.0763(17)
_cell_length_c                   32.377(2)
_cell_angle_alpha                90
_cell_angle_beta                 96.178(10)
_cell_angle_gamma                90
_cell_volume                     3369.18
loop_
_atom_site_label
_atom_site_type_symbol
_atom_site_fract_x
_atom_site_fract_y
_atom_site_fract_z
C1 C -0.2191(2) 0.6539(2) 0.15814(7)
C2 C -0.2944(2) 0.7008(2) 0.11726(7)
H1 H -0.3720 0.6464 0.1082
H2 H -0.3356 0.7790 0.1223
C3 C -0.2006(2) 0.7139(2) 0.08238(7)
C4 C -0.2048(3) 0.6296(2) 0.05023(7)
H3 H -0.2637 0.5625 0.0509
C5 C -0.1228(2) 0.6434(2) 0.01716(7)
H4 H -0.1286 0.5856 -0.0038
C6 C -0.0320(2) 0.7425(2) 0.01495(7)
C7 C -0.0256(3) 0.8257(2) 0.04801(7)
H5 H 0.0354 0.8916 0.0480
C8 C -0.1084(3) 0.8115(2) 0.08075(7)
H6 H -0.1021 0.8684 0.1020
C9 C 0.0538(2) 0.7606(2) -0.02098(7)
C10 C 0.0656(3) 0.6701(2) -0.05086(7)
H7 H 0.0173 0.5977 -0.0486
C11 C 0.1476(3) 0.6858(2) -0.08384(7)
H8 H 0.1536 0.6235 -0.1029
C12 C 0.2205(2) 0.7934(2) -0.08865(7)
C13 C 0.2087(3) 0.8841(2) -0.05928(7)
H9 H 0.2561 0.9569 -0.0619
C14 C 0.1277(3) 0.8683(2) -0.02625(7)
H10 H 0.1225 0.9307 -0.0072
C15 C 0.3100(3) 0.8146(2) -0.12437(7)
H11 H 0.3522 0.7384 -0.1313
H12 H 0.3871 0.8691 -0.1149
C16 C 0.2289(2) 0.8672(2) -0.16396(7)
C17 C 0.2702(2) 0.59908(19) 0.16109(7)
C18 C 0.1951(2) 0.5665(2) 0.11877(7)
H13 H 0.1417 0.4927 0.1215
H14 H 0.1273 0.6298 0.1102
C19 C 0.2915(2) 0.5489(2) 0.08481(7)
C20 C 0.3762(3) 0.4454(2) 0.08347(7)
H15 H 0.3775 0.3882 0.1045
C21 C 0.4584(3) 0.4277(2) 0.05080(7)
H16 H 0.5150 0.3590 0.0507
C22 C 0.4584(2) 0.5109(2) 0.01787(6)
C23 C 0.3753(2) 0.6148(2) 0.02025(7)
H17 H 0.3744 0.6728 -0.0006
C24 C 0.2941(2) 0.6334(2) 0.05305(7)
H18 H 0.2405 0.7036 0.0538
O1 O -0.27926(17) 0.67124(14) 0.19118(5)
O2 O -0.10300(17) 0.59825(14) 0.15807(5)
O3 O 0.5132(2) 0.87491(15) 0.18087(5)
O4 O 0.09964(18) 0.84408(14) -0.17279(5)
O5 O 0.63646(19) 0.80555(16) 0.26204(5)
O6 O 0.30138(17) 0.93014(14) -0.18743(5)
O7 O 0.5593(2) 0.54282(16) 0.24321(5)
O8 O 0.19628(17) 0.59134(14) 0.19231(5)
O9 O 0.34593(18) 0.73453(15) 0.24570(5)
O10 O 0.39583(17) 0.63718(14) 0.16457(5)
O11 O 0.0544(2) 0.35646(15) 0.17270(5)
O12 O 0.12851(18) 0.43235(15) 0.25994(5)
O13 O -0.0219(2) 0.65074(15) 0.24574(5)
O14 O -0.17919(19) 0.42362(18) 0.21720(6)
Mg1 Mg 0.01272(8) 0.50733(7) 0.20593(2)
Mg2 Mg 0.53109(8) 0.71112(7) 0.21188(2)
H19 H 0.433(4) 0.909(3) 0.1768(10)
H20 H 0.578(4) 0.938(3) 0.1790(11)
H21 H 0.722(3) 0.846(3) 0.2573(9)
H22 H 0.652(4) 0.768(3) 0.2864(12)
H23 H 0.606(3) 0.539(3) 0.2692(10)
H24 H 0.500(4) 0.487(3) 0.2409(10)
H25 H 0.364(3) 0.693(2) 0.2687(9)
H26 H 0.286(3) 0.685(3) 0.2288(10)
H27 H 0.137(4) 0.326(3) 0.1675(10)
H28 H -0.002(4) 0.294(3) 0.1701(11)
H29 H 0.181(4) 0.485(3) 0.2758(11)
H30 H 0.071(3) 0.397(2) 0.2757(9)
H31 H 0.009(3) 0.651(3) 0.2740(10)
H32 H -0.198(4) 0.366(3) 0.2342(11)
H33 H -0.099(4) 0.674(3) 0.2406(11)
H34 H -0.244(4) 0.468(3) 0.2175(11)
C17B C 0.7298(2) 0.40092(19) -0.16109(7)
C18B C 0.8049(2) 0.4335(2) -0.11877(7)
H13B H 0.8583 0.5073 -0.1215
H14B H 0.8727 0.3702 -0.1102
C19B C 0.7085(2) 0.4511(2) -0.08481(7)
C20B C 0.6238(3) 0.5546(2) -0.08347(7)
H15B H 0.6225 0.6118 -0.1045
C21B C 0.5416(3) 0.5723(2) -0.05080(7)
H16B H 0.4850 0.6410 -0.0507
C22B C 0.5416(2) 0.4891(2) -0.01787(6)
C23B C 0.6247(2) 0.3852(2) -0.02025(7)
H17B H 0.6256 0.3272 0.0006
C24B C 0.7059(2) 0.3666(2) -0.05305(7)
H18B H 0.7595 0.2964 -0.0538
O8B O 0.80372(17) 0.40866(14) -0.19231(5)
O10B O 0.60417(17) 0.36282(14) -0.16457(5)
C1B C 1.2191(2) 0.3461(2) -0.15814(7)
C2B C 1.2944(2) 0.2992(2) -0.11726(7)
H1B H 1.3720 0.3536 -0.1082
H2B H 1.3356 0.2210 -0.1223
C3B C 1.2006(2) 0.2861(2) -0.08238(7)
C4B C 1.2048(3) 0.3704(2) -0.05023(7)
H3B H 1.2637 0.4375 -0.0509
C5B C 1.1228(2) 0.3566(2) -0.01716(7)
H4B H 1.1286 0.4144 0.0038
C6B C 1.0320(2) 0.2575(2) -0.01495(7)
C7B C 1.0256(3) 0.1743(2) -0.04801(7)
H5B H 0.9646 0.1084 -0.0480
C8B C 1.1084(3) 0.1885(2) -0.08075(7)
H6B H 1.1021 0.1316 -0.1020
C9B C 0.9462(2) 0.2394(2) 0.02098(7)
C10B C 0.9344(3) 0.3299(2) 0.05086(7)
H7B H 0.9827 0.4023 0.0486
C11B C 0.8524(3) 0.3142(2) 0.08384(7)
H8B H 0.8464 0.3765 0.1029
C12B C 0.7795(2) 0.2066(2) 0.08865(7)
C13B C 0.7913(3) 0.1159(2) 0.05928(7)
H9B H 0.7439 0.0431 0.0619
C14B C 0.8723(3) 0.1317(2) 0.02625(7)
H10B H 0.8775 0.0693 0.0072
C15B C 0.6900(3) 0.1854(2) 0.12437(7)
H11B H 0.6478 0.2616 0.1313
H12B H 0.6129 0.1309 0.1149
C16B C 0.7711(2) 0.1328(2) 0.16396(7)
O1B O 1.27926(17) 0.32876(14) -0.19118(5)
O2B O 1.10300(17) 0.40175(14) -0.15807(5)
O3B O 0.4868(2) 0.12509(15) -0.18087(5)
O4B O 0.90036(18) 0.15592(14) 0.17279(5)
O5B O 0.36354(19) 0.19445(16) -0.26204(5)
O6B O 0.69862(17) 0.06986(14) 0.18743(5)
O7B O 0.4407(2) 0.45718(16) -0.24321(5)
O9B O 0.65407(18) 0.26547(15) -0.24570(5)
O11B O 0.9456(2) 0.64354(15) -0.17270(5)
O12B O 0.87149(18) 0.56765(15) -0.25994(5)
O13B O 1.0219(2) 0.34926(15) -0.24574(5)
O14B O 1.17919(19) 0.57638(18) -0.21720(6)
Mg1B Mg 0.98728(8) 0.49267(7) -0.20593(2)
Mg2B Mg 0.46891(8) 0.28888(7) -0.21188(2)
H19B H 0.567(4) 0.091(3) -0.1768(10)
H20B H 0.422(4) 0.062(3) -0.1790(11)
H21B H 0.278(3) 0.154(3) -0.2573(9)
H22B H 0.348(4) 0.232(3) -0.2864(12)
H23B H 0.394(3) 0.461(3) -0.2692(10)
H24B H 0.500(4) 0.513(3) -0.2409(10)
H25B H 0.636(3) 0.307(2) -0.2687(9)
H26B H 0.714(3) 0.315(3) -0.2288(10)
H27B H 0.863(4) 0.674(3) -0.1675(10)
H28B H 1.002(4) 0.706(3) -0.1701(11)
H29B H 0.819(4) 0.515(3) -0.2758(11)
H30B H 0.929(3) 0.603(2) -0.2757(9)
H31B H 0.991(3) 0.349(3) -0.2740(10)
H32B H 1.198(4) 0.634(3) -0.2342(11)
H33B H 1.099(4) 0.326(3) -0.2406(11)
H34B H 1.244(4) 0.532(3) -0.2175(11)
O1_2 O 0.72074(17) 0.67124(14) 0.19118(5)
O1B_2 O 0.27926(17) 0.32876(14) -0.19118(5)
Mg2_2 Mg -0.46891(8) 0.71112(7) 0.21188(2)
Mg2B_2 Mg 1.46891(8) 0.28888(7) -0.21188(2)
C25 C 0.7457(2) 0.6055(2) 0.34359(7)
C26 C 0.8258(2) 0.5734(2) 0.38553(7)
H35 H 0.8907 0.6384 0.3945
H36 H 0.8817 0.5010 0.3827
C27 C 0.7242(2) 0.5523(2) 0.41835(7)
C28 C 0.7080(3) 0.6390(2) 0.44859(7)
H37 H 0.7559 0.7121 0.4477
C29 C 0.6219(2) 0.6188(2) 0.48012(7)
H38 H 0.6153 0.6783 0.5001
C30 C 0.5451(2) 0.5120(2) 0.48273(6)
C31 C 0.5567(3) 0.4262(2) 0.45109(7)
H39 H 0.5041 0.3552 0.4510
C32 C 0.6455(3) 0.4454(2) 0.41983(7)
H40 H 0.6524 0.3863 0.3997
O15 O 0.70982(17) 0.71402(14) 0.33698(5)
O16 O 0.71922(17) 0.52059(14) 0.31720(5)
C25B C 0.2543(2) 0.3945(2) 0.65641(7)
C26B C 0.1742(2) 0.4266(2) 0.61447(7)
H35B H 0.1093 0.3616 0.6055
H36B H 0.1183 0.4990 0.6173
C27B C 0.2758(2) 0.4477(2) 0.58165(7)
C28B C 0.2920(3) 0.3610(2) 0.55141(7)
H37B H 0.2441 0.2879 0.5523
C29B C 0.3781(2) 0.3812(2) 0.51988(7)
H38B H 0.3847 0.3217 0.4999
C30B C 0.4549(2) 0.4880(2) 0.51727(6)
C31B C 0.4433(3) 0.5738(2) 0.54891(7)
H39B H 0.4959 0.6448 0.5490
C32B C 0.3545(3) 0.5546(2) 0.58017(7)
H40B H 0.3476 0.6137 0.6003
O15B O 0.29018(17) 0.28598(14) 0.66302(5)
O16B O 0.28078(17) 0.47941(14) 0.68280(5)
O17 O 0.0500(2) 0.85690(18) 0.18566(6)
H41 H 0.136(4) 0.898(3) 0.1857(10)
H42 H 0.070(4) 0.785(4) 0.1842(12)
loop_
_geom_bond_atom_site_label_1
_geom_bond_atom_site_label_2
_geom_bond_site_symmetry_1
_geom_bond_site_symmetry_2
C1 C2 1_555 1_555
C2 H1 1_555 1_555
H2 C2 1_555 1_555
C3 C2 1_555 1_555
C4 C3 1_555 1_555
H3 C4 1_555 1_555
C5 C4 1_555 1_555
H4 C5 1_555 1_555
C6 C5 1_555 1_555
C7 C6 1_555 1_555
H5 C7 1_555 1_555
C8 C3 1_555 1_555
H6 C8 1_555 1_555
C9 C6 1_555 1_555
C10 C9 1_555 1_555
H7 C10 1_555 1_555
C11 C10 1_555 1_555
H8 C11 1_555 1_555
C12 C11 1_555 1_555
C13 C12 1_555 1_555
H9 C13 1_555 1_555
C14 C9 1_555 1_555
H10 C14 1_555 1_555
C15 C12 1_555 1_555
H11 C15 1_555 1_555
H12 C15 1_555 1_555
C16 C15 1_555 1_555
C17 C18 1_555 1_555
C18 H13 1_555 1_555
H14 C18 1_555 1_555
C19 C18 1_555 1_555
C20 C19 1_555 1_555
H15 C20 1_555 1_555
C21 C20 1_555 1_555
H16 C21 1_555 1_555
C22 C21 1_555 1_555
C23 C22 1_555 1_555
H17 C23 1_555 1_555
C24 C19 1_555 1_555
H18 C24 1_555 1_555
O1 C1 1_555 1_555
O2 C1 1_555 1_555
O3 Mg2 1_555 1_555
O4 C16 1_555 1_555
O5 Mg2 1_555 1_555
O6 C16 1_555 1_555
O7 Mg2 1_555 1_555
O8 C17 1_555 1_555
O9 Mg2 1_555 1_555
O10 C17 1_555 1_555
O11 Mg1 1_555 1_555
O12 Mg1 1_555 1_555
O13 Mg1 1_555 1_555
O14 Mg1 1_555 1_555
Mg1 O2 1_555 1_555
Mg2 O10 1_555 1_555
H19 O3 1_555 1_555
H20 O3 1_555 1_555
H21 O5 1_555 1_555
H22 O5 1_555 1_555
H23 O7 1_555 1_555
H24 O7 1_555 1_555
H25 O9 1_555 1_555
H26 O9 1_555 1_555
H27 O11 1_555 1_555
H28 O11 1_555 1_555
H29 O12 1_555 1_555
H30 O12 1_555 1_555
H31 O13 1_555 1_555
H32 O14 1_555 1_555
H33 O13 1_555 1_555
H34 O14 1_555 1_555
C25 C26 1_555 1_555
C26 H35 1_555 1_555
H36 C26 1_555 1_555
C27 C26 1_555 1_555
C28 C27 1_555 1_555
H37 C28 1_555 1_555
C29 C28 1_555 1_555
H38 C29 1_555 1_555
C30 C29 1_555 1_555
C31 C30 1_555 1_555
H39 C31 1_555 1_555
C32 C27 1_555 1_555
H40 C32 1_555 1_555
O15 C25 1_555 1_555
O16 C25 1_555 1_555
O17 H41 1_555 1_555
H42 O17 1_555 1_555
C17B C18B 1_555 1_555
C18B H13B 1_555 1_555
H14B C18B 1_555 1_555
C19B C18B 1_555 1_555
C20B C19B 1_555 1_555
H15B C20B 1_555 1_555
C21B C20B 1_555 1_555
H16B C21B 1_555 1_555
C22B C22 1_555 1_555
C23B C22B 1_555 1_555
H17B C23B 1_555 1_555
C24B C19B 1_555 1_555
H18B C24B 1_555 1_555
O8B C17B 1_555 1_555
O10B C17B 1_555 1_555
C1B C2B 1_555 1_555
C2B H1B 1_555 1_555
H2B C2B 1_555 1_555
C3B C2B 1_555 1_555
C4B C3B 1_555 1_555
H3B C4B 1_555 1_555
C5B C4B 1_555 1_555
H4B C5B 1_555 1_555
C6B C5B 1_555 1_555
C7B C6B 1_555 1_555
H5B C7B 1_555 1_555
C8B C3B 1_555 1_555
H6B C8B 1_555 1_555
C9B C6B 1_555 1_555
C10B C9B 1_555 1_555
H7B C10B 1_555 1_555
C11B C10B 1_555 1_555
H8B C11B 1_555 1_555
C12B C11B 1_555 1_555
C13B C12B 1_555 1_555
H9B C13B 1_555 1_555
C14B C9B 1_555 1_555
H10B C14B 1_555 1_555
C15B C12B 1_555 1_555
H11B C15B 1_555 1_555
H12B C15B 1_555 1_555
C16B C15B 1_555 1_555
O1B C1B 1_555 1_555
O2B C1B 1_555 1_555
O3B Mg2B 1_555 1_555
O4B C16B 1_555 1_555
O5B Mg2B 1_555 1_555
O6B C16B 1_555 1_555
O7B Mg2B 1_555 1_555
O9B Mg2B 1_555 1_555
O11B Mg1B 1_555 1_555
O12B Mg1B 1_555 1_555
O13B Mg1B 1_555 1_555
O14B Mg1B 1_555 1_555
Mg1B O8B 1_555 1_555
Mg2B O10B 1_555 1_555
H19B O3B 1_555 1_555
H20B O3B 1_555 1_555
H21B O5B 1_555 1_555
H22B O5B 1_555 1_555
H23B O7B 1_555 1_555
H24B O7B 1_555 1_555
H25B O9B 1_555 1_555
H26B O9B 1_555 1_555
H27B O11B 1_555 1_555
H28B O11B 1_555 1_555
H29B O12B 1_555 1_555
H30B O12B 1_555 1_555
H31B O13B 1_555 1_555
H32B O14B 1_555 1_555
H33B O13B 1_555 1_555
H34B O14B 1_555 1_555
O1_2 Mg2 1_555 1_555
O1B_2 Mg2B 1_555 1_555
Mg2_2 O1 1_555 1_555
Mg2B_2 O1B 1_555 1_555
C25B C26B 1_555 1_555
C26B H35B 1_555 1_555
H36B C26B 1_555 1_555
C27B C26B 1_555 1_555
C28B C27B 1_555 1_555
H37B C28B 1_555 1_555
C29B C28B 1_555 1_555
H38B C29B 1_555 1_555
C30B C30 1_555 1_555
C31B C30B 1_555 1_555
H39B C31B 1_555 1_555
C32B C27B 1_555 1_555
H40B C32B 1_555 1_555
O15B C25B 1_555 1_555
O16B C25B 1_555 1_555
C7 C8 1_555 1_555
C13 C14 1_555 1_555
C23 C24 1_555 1_555
O8 Mg1 1_555 1_555
C31 C32 1_555 1_555
C21B C22B 1_555 1_555
C23B C24B 1_555 1_555
C7B C8B 1_555 1_555
C13B C14B 1_555 1_555
O2B Mg1B 1_555 1_555
C29B C30B 1_555 1_555
C31B C32B 1_555 1_555

#END
