
#######################################################################
#
#                 Cambridge Crystallographic Data Centre
#                                CCDC 
#
#######################################################################
#
# If this CIF has been generated from an entry in the Cambridge 
# Structural Database, then it will include bibliographic, chemical, 
# crystal, experimental, refinement or atomic coordinate data resulting 
# from the CCDC's data processing and validation procedures.
#
#######################################################################

data_DUQYIY
_symmetry_cell_setting           triclinic
_symmetry_space_group_name_H-M   'P -1'
_symmetry_Int_Tables_number      2
_space_group_name_Hall           '-P 1'
loop_
_symmetry_equiv_pos_site_id
_symmetry_equiv_pos_as_xyz
1 x,y,z
2 -x,-y,-z
_cell_length_a                   9.2148(18)
_cell_length_b                   9.771(2)
_cell_length_c                   10.800(2)
_cell_angle_alpha                81.51(3)
_cell_angle_beta                 74.27(3)
_cell_angle_gamma                66.52(3)
_cell_volume                     857.626
loop_
_atom_site_label
_atom_site_type_symbol
_atom_site_fract_x
_atom_site_fract_y
_atom_site_fract_z
Ag1 Ag 1.54201(2) 0.62452(2) 0.54397(2)
N1 N 1.2254(3) 0.3738(2) 0.5682(2)
N2 N 0.6797(3) 0.6198(2) 0.8049(2)
N3 N 0.1476(3) 1.1322(2) 1.0027(2)
N4 N -0.3549(3) 1.3921(2) 1.2898(2)
N5 N 1.7214(3) 0.1260(3) 0.5841(3)
O1 O 1.8206(4) 0.0262(4) 0.6349(3)
O2 O 1.6959(3) 0.2598(3) 0.5904(3)
O3 O 1.6440(4) 0.0949(3) 0.5224(3)
C1 C 1.2039(3) 0.2446(3) 0.5801(3)
H1 H 1.2915 0.1601 0.5462
C2 C 1.0576(4) 0.2313(3) 0.6405(3)
H2 H 1.0457 0.1405 0.6437
C3 C 0.9290(3) 0.3543(3) 0.6960(3)
H3 H 0.8302 0.3470 0.7394
C4 C 0.9491(3) 0.4889(3) 0.6862(2)
C5 C 1.0982(3) 0.4942(3) 0.6205(2)
H4 H 1.1113 0.5850 0.6119
C6 C 0.8148(3) 0.6244(3) 0.7420(2)
H5 H 0.8299 0.7145 0.7306
C7 C 0.5498(3) 0.7521(3) 0.8539(2)
C8 C 0.4388(3) 0.7368(3) 0.9655(3)
H6 H 0.4528 0.6424 1.0046
C9 C 0.3077(3) 0.8597(3) 1.0195(3)
H7 H 0.2364 0.8481 1.0960
C10 C 0.2824(3) 1.0000(3) 0.9596(2)
C11 C 0.3917(4) 1.0142(3) 0.8472(3)
H8 H 0.3757 1.1081 0.8065
C12 C 0.5248(3) 0.8915(3) 0.7937(3)
H9 H 0.5968 0.9031 0.7176
C13 C 0.0370(3) 1.1306(3) 1.0983(3)
H10 H 0.0434 1.0412 1.1449
C14 C -0.1040(3) 1.2686(3) 1.1388(2)
C15 C -0.2228(3) 1.2683(3) 1.2502(3)
H11 H -0.2108 1.1795 1.2992
C16 C -0.3680(3) 1.5191(3) 1.2194(3)
H12 H -0.4579 1.6051 1.2464
C17 C -0.2541(3) 1.5289(3) 1.1081(3)
H13 H -0.2665 1.6197 1.0622
C18 C -0.1215(3) 1.4008(3) 1.0666(3)
H14 H -0.0447 1.4036 0.9909
Ag1A Ag 1.45799(2) 0.37548(2) 0.45603(2)
Ag1A_2 Ag -0.54201(2) 1.37548(2) 1.45603(2)
N4_2 N 1.6451(3) 0.3921(2) 0.2898(2)
loop_
_geom_bond_atom_site_label_1
_geom_bond_atom_site_label_2
_geom_bond_site_symmetry_1
_geom_bond_site_symmetry_2
N1 C1 1_555 1_555
N2 C6 1_555 1_555
N3 C10 1_555 1_555
N4 C15 1_555 1_555
N5 O1 1_555 1_555
O2 N5 1_555 1_555
O3 N5 1_555 1_555
C1 H1 1_555 1_555
C2 C1 1_555 1_555
H2 C2 1_555 1_555
C3 C2 1_555 1_555
H3 C3 1_555 1_555
C4 C3 1_555 1_555
C5 N1 1_555 1_555
H4 C5 1_555 1_555
C6 C4 1_555 1_555
H5 C6 1_555 1_555
C7 N2 1_555 1_555
C8 C7 1_555 1_555
H6 C8 1_555 1_555
C9 C8 1_555 1_555
H7 C9 1_555 1_555
C10 C9 1_555 1_555
C11 C10 1_555 1_555
H8 C11 1_555 1_555
C12 C7 1_555 1_555
H9 C12 1_555 1_555
C13 N3 1_555 1_555
H10 C13 1_555 1_555
C14 C13 1_555 1_555
C15 C14 1_555 1_555
H11 C15 1_555 1_555
C16 N4 1_555 1_555
H12 C16 1_555 1_555
C17 C16 1_555 1_555
H13 C17 1_555 1_555
C18 C14 1_555 1_555
H14 C18 1_555 1_555
Ag1A N1 1_555 1_555
Ag1A_2 N4 1_555 1_555
N4_2 Ag1A 1_555 1_555
O2 Ag1A 1_555 1_555
O3 Ag1A 1_555 1_555
C4 C5 1_555 1_555
C11 C12 1_555 1_555
C17 C18 1_555 1_555

#END
