
#######################################################################
#
#                 Cambridge Crystallographic Data Centre
#                                CCDC 
#
#######################################################################
#
# If this CIF has been generated from an entry in the Cambridge 
# Structural Database, then it will include bibliographic, chemical, 
# crystal, experimental, refinement or atomic coordinate data resulting 
# from the CCDC's data processing and validation procedures.
#
#######################################################################

data_DUQYUK
_symmetry_cell_setting           monoclinic
_symmetry_space_group_name_H-M   'P 21/c'
_symmetry_Int_Tables_number      14
_space_group_name_Hall           '-P 2ybc'
loop_
_symmetry_equiv_pos_site_id
_symmetry_equiv_pos_as_xyz
1 x,y,z
2 -x,1/2+y,1/2-z
3 -x,-y,-z
4 x,1/2-y,1/2+z
_cell_length_a                   7.4235(11)
_cell_length_b                   17.475(3)
_cell_length_c                   18.053(3)
_cell_angle_alpha                90
_cell_angle_beta                 98.188(3)
_cell_angle_gamma                90
_cell_volume                     2318.06
loop_
_atom_site_label
_atom_site_type_symbol
_atom_site_fract_x
_atom_site_fract_y
_atom_site_fract_z
Cu1 Cu 0.41788(4) 0.62384(2) 0.109714(18)
N1 N 0.3306(3) 0.65433(15) 0.00279(13)
N2 N 0.3278(3) 0.52235(13) 0.06863(12)
O1 O 0.4265(2) 0.93932(11) 0.19835(11)
O2 O 0.4863(3) 1.08114(12) 0.29366(10)
O3 O 0.1882(3) 1.09819(15) 0.29298(12)
O4 O 0.3634(3) 0.77983(13) 0.19838(16)
O5 O 0.5373(3) 0.72067(11) 0.12721(11)
O6 O 0.1358(3) 0.66083(13) 0.14824(12)
H1 H 0.1690 0.7023 0.1708
H2 H 0.0485 0.6448 0.1698
C1 C 0.3209(4) 1.08195(16) 0.26283(15)
C2 C 0.2924(3) 1.06403(16) 0.18006(15)
C3 C 0.1997(4) 1.11672(18) 0.13170(17)
H3 H 0.1522 1.1605 0.1510
C4 C 0.1763(5) 1.1054(2) 0.05493(19)
H4 H 0.1161 1.1419 0.0230
C5 C 0.2424(5) 1.0401(3) 0.02647(19)
H5 H 0.2284 1.0327 -0.0250
C6 C 0.3294(4) 0.9855(2) 0.07367(19)
H6 H 0.3713 0.9407 0.0542
C7 C 0.3543(3) 0.99754(17) 0.15049(16)
C8 C 0.6009(4) 0.91544(17) 0.18894(15)
C9 C 0.7378(4) 0.97019(18) 0.19715(17)
H7 H 0.7110 1.0207 0.2076
C10 C 0.9132(4) 0.9495(2) 0.18986(19)
H8 H 1.0052 0.9860 0.1957
C11 C 0.9531(4) 0.8748(2) 0.17389(18)
H9 H 1.0716 0.8609 0.1687
C12 C 0.8167(4) 0.82106(18) 0.16569(16)
H10 H 0.8445 0.7708 0.1546
C13 C 0.6376(3) 0.83974(17) 0.17359(14)
C14 C 0.4984(4) 0.77630(16) 0.16651(16)
C15 C 0.3015(5) 0.8219(2) -0.1299(2)
H11 H 0.3508 0.8548 -0.0894
H12 H 0.1830 0.8399 -0.1509
H13 H 0.3802 0.8222 -0.1677
C16 C 0.2864(4) 0.7414(2) -0.10098(19)
C17 C 0.2245(5) 0.6804(3) -0.14685(19)
H14 H 0.1899 0.6886 -0.1978
C18 C 0.2136(4) 0.6083(2) -0.11798(18)
H15 H 0.1712 0.5678 -0.1491
C19 C 0.2660(4) 0.59610(19) -0.04244(16)
C20 C 0.3397(4) 0.7244(2) -0.02617(18)
H16 H 0.3842 0.7639 0.0058
C21 C 0.2604(4) 0.52224(18) -0.00508(16)
C22 C 0.1926(4) 0.4554(2) -0.03889(18)
H17 H 0.1471 0.4551 -0.0896
C23 C 0.1919(4) 0.38961(19) 0.0019(2)
H18 H 0.1453 0.3448 -0.0212
C24 C 0.2601(4) 0.38895(18) 0.07754(19)
C25 C 0.2616(5) 0.3185(2) 0.1245(2)
H19 H 0.3677 0.3187 0.1617
H20 H 0.2637 0.2740 0.0933
H21 H 0.1544 0.3174 0.1486
C26 C 0.3266(4) 0.45785(18) 0.10777(17)
H22 H 0.3733 0.4592 0.1584
Cu1A Cu 0.58212(4) 1.12384(2) 0.390286(18)
O2A O 0.5137(3) 0.58114(12) 0.20634(10)
loop_
_geom_bond_atom_site_label_1
_geom_bond_atom_site_label_2
_geom_bond_site_symmetry_1
_geom_bond_site_symmetry_2
Cu1 N1 1_555 1_555
N1 C19 1_555 1_555
N2 Cu1 1_555 1_555
O1 C7 1_555 1_555
O2 C1 1_555 1_555
O3 C1 1_555 1_555
O4 C14 1_555 1_555
O5 Cu1 1_555 1_555
O6 Cu1 1_555 1_555
H1 O6 1_555 1_555
H2 O6 1_555 1_555
C1 C2 1_555 1_555
C2 C3 1_555 1_555
C3 H3 1_555 1_555
C4 C3 1_555 1_555
H4 C4 1_555 1_555
C5 C4 1_555 1_555
H5 C5 1_555 1_555
C6 C5 1_555 1_555
H6 C6 1_555 1_555
C7 C2 1_555 1_555
C8 O1 1_555 1_555
C9 C8 1_555 1_555
H7 C9 1_555 1_555
C10 C9 1_555 1_555
H8 C10 1_555 1_555
C11 C10 1_555 1_555
H9 C11 1_555 1_555
C12 C11 1_555 1_555
H10 C12 1_555 1_555
C13 C8 1_555 1_555
C14 O5 1_555 1_555
C15 H11 1_555 1_555
H12 C15 1_555 1_555
H13 C15 1_555 1_555
C16 C15 1_555 1_555
C17 C16 1_555 1_555
H14 C17 1_555 1_555
C18 C17 1_555 1_555
H15 C18 1_555 1_555
C19 C18 1_555 1_555
C20 N1 1_555 1_555
H16 C20 1_555 1_555
C21 N2 1_555 1_555
C22 C21 1_555 1_555
H17 C22 1_555 1_555
C23 C22 1_555 1_555
H18 C23 1_555 1_555
C24 C23 1_555 1_555
C25 C24 1_555 1_555
H19 C25 1_555 1_555
H20 C25 1_555 1_555
H21 C25 1_555 1_555
C26 N2 1_555 1_555
H22 C26 1_555 1_555
Cu1A O2 1_555 1_555
O2A Cu1 1_555 1_555
C6 C7 1_555 1_555
C12 C13 1_555 1_555
C13 C14 1_555 1_555
C16 C20 1_555 1_555
C19 C21 1_555 1_555
C24 C26 1_555 1_555

#END
