
#######################################################################
#
#                 Cambridge Crystallographic Data Centre
#                                CCDC 
#
#######################################################################
#
# If this CIF has been generated from an entry in the Cambridge 
# Structural Database, then it will include bibliographic, chemical, 
# crystal, experimental, refinement or atomic coordinate data resulting 
# from the CCDC's data processing and validation procedures.
#
#######################################################################

data_DUQZOG
_symmetry_cell_setting           orthorhombic
_symmetry_space_group_name_H-M   'P n a 21'
_symmetry_Int_Tables_number      33
_space_group_name_Hall           'P 2c -2n'
loop_
_symmetry_equiv_pos_site_id
_symmetry_equiv_pos_as_xyz
1 x,y,z
2 -x,-y,1/2+z
3 1/2-x,1/2+y,1/2+z
4 1/2+x,1/2-y,z
_cell_length_a                   13.00526(7)
_cell_length_b                   16.32911(10)
_cell_length_c                   14.43561(8)
_cell_angle_alpha                90
_cell_angle_beta                 90
_cell_angle_gamma                90
_cell_volume                     3065.61
loop_
_atom_site_label
_atom_site_type_symbol
_atom_site_fract_x
_atom_site_fract_y
_atom_site_fract_z
Bi1 Bi 0.576282(6) 0.535223(5) 0.482580(7)
Bi2 Bi 0.614712(6) 0.504997(5) 0.753000(8)
C1 C 0.23575(18) 0.53248(15) 0.4845(2)
H1 H 0.2254 0.5250 0.4199
O1 O 0.77768(15) 0.53227(11) 0.77391(12)
O2 O 0.56837(14) 0.57306(11) 0.32880(12)
C2 C 0.56703(19) 0.70480(16) 0.39386(17)
C3 C 0.68363(19) 0.24202(16) 0.77216(17)
H2 H 0.6836 0.2360 0.8376
C4 C 0.56766(18) 0.65193(16) 0.31339(17)
C5 C 0.5689(2) 0.79043(17) 0.39330(19)
H3 H 0.5669 0.8148 0.4530
C6 C 0.67407(17) 0.32320(15) 0.74028(17)
C7 C 0.5679(2) 0.75651(17) 0.18201(17)
H4 H 0.5654 0.7583 0.1163
O3 O 0.53973(15) 0.39157(13) 0.38413(14)
C8 C 0.5730(2) 0.83210(17) 0.22554(18)
H5 H 0.5768 0.8789 0.1866
O4 O 0.66677(14) 0.38061(11) 0.80188(12)
C9 C 0.5730(2) 0.84612(17) 0.32043(19)
H6 H 0.5764 0.9021 0.3382
C10 C 0.56602(19) 0.67832(16) 0.22056(17)
H7 H 0.5631 0.6352 0.1764
Cl1 Cl 0.45868(5) 0.33883(4) 0.42117(4)
Cl2 Cl 0.84360(5) 0.50665(4) 0.44924(4)
C11 C 0.1456(2) 0.53741(17) 0.53638(19)
H8 H 0.0838 0.5309 0.5022
O5 O 0.56479(13) 0.66853(10) 0.47528(14)
O6 O 0.64264(15) 0.42678(12) 0.63127(12)
C12 C 0.3768(2) 0.54745(16) 0.60606(17)
O7 O 0.78122(16) 0.58048(13) 0.43878(14)
O8 O 0.43305(19) 0.36737(14) 0.51224(14)
O9 O 0.77724(17) 0.43760(14) 0.43197(16)
C13 C 0.66548(19) 0.34883(16) 0.64406(17)
C14 C 0.81735(19) 0.59687(15) 0.73200(16)
C15 C 0.1330(2) 0.55041(17) 0.63058(19)
H9 H 0.0643 0.5514 0.6528
O10 O 0.47683(14) 0.54666(12) 0.61504(12)
O11 O 0.66916(14) 0.59529(11) 0.64017(12)
O12 O 0.88511(19) 0.50306(16) 0.54138(16)
O13 O 0.92543(17) 0.50834(15) 0.38229(16)
O14 O 0.40868(14) 0.53032(12) 0.44698(13)
O15 O 0.49320(19) 0.25626(12) 0.42527(15)
C16 C 0.6931(2) 0.17013(16) 0.72322(18)
H10 H 0.6934 0.1217 0.7596
C17 C 0.91162(19) 0.62559(17) 0.76446(18)
H11 H 0.9372 0.5979 0.8175
C18 C 0.8755(2) 0.74268(17) 0.59779(19)
H12 H 0.8792 0.7822 0.5496
C19 C 0.3161(2) 0.56044(16) 0.68556(17)
H13 H 0.3539 0.5695 0.7409
C20 C 0.7577(2) 0.63052(15) 0.65538(17)
C21 C 0.33919(19) 0.53665(15) 0.51151(17)
C22 C 0.6804(2) 0.30036(17) 0.56570(18)
H14 H 0.6779 0.3289 0.5084
C23 C 0.7021(2) 0.15796(17) 0.62766(19)
H15 H 0.7121 0.1030 0.6079
O16 O 0.37074(18) 0.34602(15) 0.36086(17)
C24 C 0.6983(2) 0.21662(17) 0.55859(18)
H16 H 0.7095 0.1969 0.4975
C25 C 0.7865(2) 0.69629(16) 0.59886(18)
H17 H 0.7367 0.7116 0.5539
C26 C 0.9605(2) 0.74027(17) 0.65651(19)
H18 H 1.0144 0.7779 0.6439
C27 C 0.9743(2) 0.68830(17) 0.73172(18)
H19 H 1.0357 0.6969 0.7659
C28 C 0.2098(2) 0.56216(18) 0.69606(18)
H20 H 0.1862 0.5730 0.7571
Bi2A Bi 0.385288(6) 0.495003(5) 0.253000(8)
O2A O 0.43163(14) 0.42694(11) 0.82880(12)
O14A O 0.59132(14) 0.46968(12) 0.94698(13)
O16A O 0.62926(18) 0.65398(15) 0.86086(17)
loop_
_geom_bond_atom_site_label_1
_geom_bond_atom_site_label_2
_geom_bond_site_symmetry_1
_geom_bond_site_symmetry_2
Bi1 O2 1_555 1_555
Bi2 O1 1_555 1_555
C1 H1 1_555 1_555
O1 C14 1_555 1_555
O2 C4 1_555 1_555
C2 C4 1_555 1_555
C3 H2 1_555 1_555
C4 C10 1_555 1_555
C5 C2 1_555 1_555
H3 C5 1_555 1_555
C6 C3 1_555 1_555
C7 H4 1_555 1_555
O3 Bi1 1_555 1_555
C8 C7 1_555 1_555
H5 C8 1_555 1_555
O4 Bi2 1_555 1_555
C9 C5 1_555 1_555
H6 C9 1_555 1_555
C10 C7 1_555 1_555
H7 C10 1_555 1_555
Cl1 O3 1_555 1_555
Cl2 O7 1_555 1_555
C11 C1 1_555 1_555
H8 C11 1_555 1_555
O5 Bi1 1_555 1_555
O6 Bi1 1_555 1_555
C12 O10 1_555 1_555
O7 Bi1 1_555 1_555
O8 Cl1 1_555 1_555
O9 Cl2 1_555 1_555
C13 C6 1_555 1_555
C14 C17 1_555 1_555
C15 C11 1_555 1_555
H9 C15 1_555 1_555
O10 Bi1 1_555 1_555
O11 Bi1 1_555 1_555
O12 Cl2 1_555 1_555
O13 Cl2 1_555 1_555
O14 Bi1 1_555 1_555
O15 Cl1 1_555 1_555
C16 C3 1_555 1_555
H10 C16 1_555 1_555
C17 H11 1_555 1_555
C18 H12 1_555 1_555
C19 C12 1_555 1_555
H13 C19 1_555 1_555
C20 C14 1_555 1_555
C21 C1 1_555 1_555
C22 C13 1_555 1_555
H14 C22 1_555 1_555
C23 C16 1_555 1_555
H15 C23 1_555 1_555
O16 Cl1 1_555 1_555
C24 C22 1_555 1_555
H16 C24 1_555 1_555
C25 C18 1_555 1_555
H17 C25 1_555 1_555
C26 C18 1_555 1_555
H18 C26 1_555 1_555
C27 C17 1_555 1_555
H19 C27 1_555 1_555
C28 C15 1_555 1_555
H20 C28 1_555 1_555
Bi2A O2 1_555 1_555
O2A Bi2 1_555 1_555
O14A Bi2 1_555 1_555
O16A Bi2 1_555 1_555
Bi2 O6 1_555 1_555
Bi2 O10 1_555 1_555
Bi2 O11 1_555 1_555
C2 O5 1_555 1_555
C6 O4 1_555 1_555
C8 C9 1_555 1_555
O6 C13 1_555 1_555
C12 C21 1_555 1_555
O11 C20 1_555 1_555
O14 C21 1_555 1_555
O14 Bi2A 1_555 1_555
C19 C28 1_555 1_555
C20 C25 1_555 1_555
C23 C24 1_555 1_555
O16 Bi2A 1_555 1_555
C26 C27 1_555 1_555

#END
