
#######################################################################
#
#                 Cambridge Crystallographic Data Centre
#                                CCDC 
#
#######################################################################
#
# If this CIF has been generated from an entry in the Cambridge 
# Structural Database, then it will include bibliographic, chemical, 
# crystal, experimental, refinement or atomic coordinate data resulting 
# from the CCDC's data processing and validation procedures.
#
#######################################################################

data_DURBEZ
_symmetry_cell_setting           monoclinic
_symmetry_space_group_name_H-M   'P 21/n'
_symmetry_Int_Tables_number      14
_space_group_name_Hall           '-P 2yn'
loop_
_symmetry_equiv_pos_site_id
_symmetry_equiv_pos_as_xyz
1 x,y,z
2 1/2-x,1/2+y,1/2-z
3 -x,-y,-z
4 1/2+x,1/2-y,1/2+z
_cell_length_a                   14.1683(4)
_cell_length_b                   14.3366(3)
_cell_length_c                   19.4045(5)
_cell_angle_alpha                90
_cell_angle_beta                 104.254(3)
_cell_angle_gamma                90
_cell_volume                     3820.2
loop_
_atom_site_label
_atom_site_type_symbol
_atom_site_fract_x
_atom_site_fract_y
_atom_site_fract_z
C1 C 0.6322(4) 0.4475(4) 0.4140(3)
O1 O 0.8211(3) 0.7179(3) 0.21303(18)
Bi1 Bi 0.668701(18) 0.676827(15) 0.215900(12)
Bi2 Bi 0.652824(17) 0.413588(15) 0.261443(11)
Cl1 Cl 0.67181(12) 0.25482(10) 0.11505(8)
O2 O 0.6340(3) 0.6811(2) 0.10022(18)
O3 O 0.7624(3) 0.2866(3) 0.1627(2)
O4 O 0.6383(3) 0.3785(3) 0.37218(19)
O5 O 0.6390(3) 0.5444(2) 0.31775(19)
O6 O 0.6579(3) 0.8310(2) 0.18087(19)
O7 O 0.5938(3) 0.3110(3) 0.1285(2)
O8 O 0.4963(3) 0.3920(2) 0.23713(19)
O9 O 0.6577(3) 0.1585(3) 0.1302(2)
C2 C 0.4445(5) 0.4223(4) 0.1753(3)
C3 C 0.6249(4) 0.7626(4) 0.0683(3)
C4 C 0.3528(4) 0.3823(4) 0.1491(3)
H1 H 0.3355 0.3365 0.1792
C5 C 0.5925(4) 0.8346(4) -0.0544(3)
H2 H 0.5761 0.8155 -0.1028
C6 C 0.5997(4) 0.7623(4) -0.0058(3)
H3 H 0.5850 0.7024 -0.0266
C7 C 0.5984(5) 0.9896(4) -0.1093(3)
H4 H 0.6521 0.9743 -0.1309
H5 H 0.6026 1.0555 -0.0954
H6 H 0.5362 0.9781 -0.1437
C8 C 0.6390(4) 0.8449(4) 0.1131(3)
C9 C 0.6263(4) 0.4866(5) 0.5408(3)
H7 H 0.6278 0.4553 0.5842
C10 C 0.6209(4) 0.9743(4) 0.0206(3)
H8 H 0.6235 1.0404 0.0185
O10 O 0.6767(3) 0.2663(3) 0.0433(2)
C11 C 0.2830(5) 0.3984(4) 0.0864(3)
H9 H 0.2255 0.3621 0.0809
C12 C 0.2826(5) 0.4582(5) 0.0303(3)
C13 C 0.6158(5) 0.6423(4) 0.4871(3)
H10 H 0.6077 0.7064 0.4967
C14 C 0.6051(4) 0.9295(4) -0.0443(3)
C15 C 0.6202(4) 0.5836(5) 0.5440(3)
C16 C 0.6180(5) 0.6259(5) 0.6153(3)
H11 H 0.6831 0.6488 0.6390
H12 H 0.5980 0.5783 0.6451
H13 H 0.5716 0.6778 0.6079
C17 C 0.1943(5) 0.4561(5) -0.0322(3)
H14 H 0.1897 0.5151 -0.0582
H15 H 0.1355 0.4472 -0.0149
H16 H 0.2007 0.4045 -0.0639
C18 C 0.6304(4) 0.4287(4) 0.4846(3)
H17 H 0.6326 0.3642 0.4959
C19 C 0.6309(4) 0.5406(4) 0.3836(3)
C20 C 0.6212(4) 0.6234(4) 0.4181(3)
H18 H 0.6175 0.6772 0.3890
C21 C 0.3589(5) 0.5182(4) 0.0274(3)
H19 H 0.3480 0.5555 -0.0143
C22 C 0.6336(4) 0.9374(4) 0.0882(3)
H20 H 0.6398 0.9831 0.1245
O11 O 0.5771(3) 0.5163(3) 0.17341(18)
O12 O 0.7659(3) 0.5461(2) 0.21790(19)
C23 C 0.8563(5) 0.5581(4) 0.2150(3)
C24 C 0.9803(4) 0.6813(4) 0.2091(3)
H21 H 0.9872 0.7470 0.2064
C25 C 0.4890(5) 0.4929(4) 0.1401(3)
C26 C 0.8873(4) 0.6534(4) 0.2130(3)
C27 C 0.4469(5) 0.5323(4) 0.0746(3)
H22 H 0.4865 0.5777 0.0597
C28 C 0.9130(5) 0.4805(4) 0.2118(3)
H23 H 0.8798 0.4230 0.2121
C29 C 1.0803(5) 0.5365(4) 0.2079(3)
C30 C 1.0635(5) 0.6330(4) 0.2083(3)
H24 H 1.1185 0.6708 0.2081
C31 C 1.0088(5) 0.4705(4) 0.2083(3)
H25 H 1.0291 0.4078 0.2057
C32 C 1.1815(5) 0.5056(4) 0.2081(4)
H26 H 1.2252 0.5181 0.2548
H27 H 1.2042 0.5399 0.1716
H28 H 1.1813 0.4386 0.1980
O13 O 0.4826(4) 0.7034(3) 0.1974(3)
H29 H 0.458(6) 0.711(6) 0.242(3)
C33 C 0.4061(6) 0.7487(6) 0.1370(4)
H30 H 0.4369 0.7694 0.0997
H31 H 0.3774 0.8025 0.1555
H32 H 0.3549 0.7033 0.1173
O1A O 0.6789(3) 0.2179(3) 0.28697(18)
Bi1A Bi 0.831299(18) 0.176827(15) 0.284100(12)
Bi2A Bi 0.847176(17) 0.913588(15) 0.238557(11)
O3A O 0.7376(3) 0.7866(3) 0.3373(2)
O6A O 0.8421(3) 0.3310(2) 0.31913(19)
Cl2 Cl 0.34107(14) 0.71125(12) 0.32151(10)
O14 O 0.2657(4) 0.6740(3) 0.3522(3)
O15 O 0.4064(4) 0.7695(4) 0.3719(3)
O16 O 0.3953(3) 0.6347(3) 0.2991(2)
O17 O 0.2955(4) 0.7629(3) 0.2579(3)
loop_
_geom_bond_atom_site_label_1
_geom_bond_atom_site_label_2
_geom_bond_site_symmetry_1
_geom_bond_site_symmetry_2
C1 O4 1_555 1_555
O1 Bi1 1_555 1_555
Bi1 O2 1_555 1_555
Bi2 O4 1_555 1_555
Cl1 O3 1_555 1_555
O2 C3 1_555 1_555
O3 Bi1A 1_555 1_555
O5 Bi1 1_555 1_555
O6 Bi1 1_555 1_555
O7 Bi2 1_555 1_555
O8 Bi2 1_555 1_555
O9 Cl1 1_555 1_555
C2 O8 1_555 1_555
C3 C6 1_555 1_555
C4 C2 1_555 1_555
H1 C4 1_555 1_555
C5 H2 1_555 1_555
C6 C5 1_555 1_555
H3 C6 1_555 1_555
C7 H4 1_555 1_555
H5 C7 1_555 1_555
H6 C7 1_555 1_555
C8 O6 1_555 1_555
C9 H7 1_555 1_555
C10 H8 1_555 1_555
O10 Cl1 1_555 1_555
C11 C4 1_555 1_555
H9 C11 1_555 1_555
C12 C11 1_555 1_555
C13 H10 1_555 1_555
C14 C5 1_555 1_555
C15 C9 1_555 1_555
C16 C15 1_555 1_555
H11 C16 1_555 1_555
H12 C16 1_555 1_555
H13 C16 1_555 1_555
C17 C12 1_555 1_555
H14 C17 1_555 1_555
H15 C17 1_555 1_555
H16 C17 1_555 1_555
C18 C1 1_555 1_555
H17 C18 1_555 1_555
C19 C1 1_555 1_555
C20 C13 1_555 1_555
H18 C20 1_555 1_555
C21 C12 1_555 1_555
H19 C21 1_555 1_555
C22 C8 1_555 1_555
H20 C22 1_555 1_555
O11 Bi1 1_555 1_555
O12 Bi1 1_555 1_555
C23 O12 1_555 1_555
C24 H21 1_555 1_555
C25 C2 1_555 1_555
C26 O1 1_555 1_555
C27 C21 1_555 1_555
H22 C27 1_555 1_555
C28 C23 1_555 1_555
H23 C28 1_555 1_555
C29 C30 1_555 1_555
C30 C24 1_555 1_555
H24 C30 1_555 1_555
C31 C28 1_555 1_555
H25 C31 1_555 1_555
C32 C29 1_555 1_555
H26 C32 1_555 1_555
H27 C32 1_555 1_555
H28 C32 1_555 1_555
O13 Bi1 1_555 1_555
H29 O13 1_555 1_555
C33 O13 1_555 1_555
H30 C33 1_555 1_555
H31 C33 1_555 1_555
H32 C33 1_555 1_555
Cl2 O14 1_555 1_555
O15 Cl2 1_555 1_555
O16 Cl2 1_555 1_555
O17 Cl2 1_555 1_555
O1A Bi2 1_555 1_555
Bi1A O1A 1_555 1_555
Bi2A O1 1_555 1_555
O3A Bi1 1_555 1_555
O6A Bi2 1_555 1_555
Bi2 O5 1_555 1_555
Bi2 O11 1_555 1_555
Bi2 O12 1_555 1_555
Cl1 O7 1_555 1_555
O5 C19 1_555 1_555
O6 Bi2A 1_555 1_555
C3 C8 1_555 1_555
C7 C14 1_555 1_555
C9 C18 1_555 1_555
C10 C14 1_555 1_555
C10 C22 1_555 1_555
C13 C15 1_555 1_555
C19 C20 1_555 1_555
O11 C25 1_555 1_555
C23 C26 1_555 1_555
C24 C26 1_555 1_555
C25 C27 1_555 1_555
C29 C31 1_555 1_555
Bi1A O6A 1_555 1_555

#END
