
#######################################################################
#
#                 Cambridge Crystallographic Data Centre
#                                CCDC 
#
#######################################################################
#
# If this CIF has been generated from an entry in the Cambridge 
# Structural Database, then it will include bibliographic, chemical, 
# crystal, experimental, refinement or atomic coordinate data resulting 
# from the CCDC's data processing and validation procedures.
#
#######################################################################

data_DURGIH01
_symmetry_cell_setting           monoclinic
_symmetry_space_group_name_H-M   'P 21/n'
_symmetry_Int_Tables_number      14
_space_group_name_Hall           '-P 2yn'
loop_
_symmetry_equiv_pos_site_id
_symmetry_equiv_pos_as_xyz
1 x,y,z
2 1/2-x,1/2+y,1/2-z
3 -x,-y,-z
4 1/2+x,1/2-y,1/2+z
_cell_length_a                   5.8768(5)
_cell_length_b                   13.1226(12)
_cell_length_c                   11.5664(11)
_cell_angle_alpha                90
_cell_angle_beta                 94.7880(10)
_cell_angle_gamma                90
_cell_volume                     888.875
loop_
_atom_site_label
_atom_site_type_symbol
_atom_site_fract_x
_atom_site_fract_y
_atom_site_fract_z
Cd1 Cd 0.56817(3) 0.455348(12) 0.847191(13)
N1 N 0.6897(3) 0.30000(15) 0.91634(17)
O1 O 0.9646(3) 0.48847(13) 0.84915(13)
O2 O 1.2801(3) 0.47717(13) 0.96941(14)
O3 O 0.6388(3) 0.44017(13) 0.65401(15)
H1 H 0.5496 0.4059 0.6072
H2 H 0.7011 0.4925 0.6269
N2 N 0.8814(4) 0.27335(16) 0.98161(18)
N3 N 0.8872(4) 0.17406(16) 0.98878(18)
N4 N 0.7011(4) 0.13293(15) 0.92992(18)
N5 N 0.2885(3) 0.30051(15) 0.77341(16)
N6 N 0.0632(3) 0.11789(15) 0.71779(17)
C1 C 0.5852(4) 0.21301(18) 0.88680(19)
C2 C 0.3686(4) 0.21077(18) 0.81388(19)
C3 C 0.0919(4) 0.29764(19) 0.7066(2)
H3 H 0.0271 0.3585 0.6789
C4 C -0.0184(4) 0.2069(2) 0.6776(2)
H4 H -0.1526 0.2082 0.6288
C5 C 0.2551(4) 0.12042(18) 0.7878(2)
H5 H 0.3139 0.0600 0.8198
C6 C 1.0685(4) 0.48996(17) 0.94653(19)
Cd1A Cd -0.06817(3) 0.955348(12) 0.652809(13)
Cd1_2 Cd 1.56817(3) 0.455348(12) 0.847191(13)
Cd1B Cd 1.43183(3) 0.544652(12) 1.152809(13)
Cd1A_2 Cd -0.06817(3) -0.044652(12) 0.652809(13)
Cd1B_2 Cd 0.43183(3) 0.544652(12) 1.152809(13)
N1A N -0.1897(3) 0.80000(15) 0.58366(17)
O1B O 1.0354(3) 0.51153(13) 1.15085(13)
O1A O -0.4646(3) 0.98847(13) 0.65085(13)
O2B O 0.7199(3) 0.52283(13) 1.03059(14)
O2_2 O 0.2801(3) 0.47717(13) 0.96941(14)
O2A O 0.2199(3) 0.97717(13) 0.53059(14)
O2C O -0.2199(3) 1.02283(13) 0.46941(14)
O3A O -0.1388(3) 0.94017(13) 0.84599(15)
H1A H -0.0496 0.9059 0.8928
H2A H -0.2011 0.9925 0.8731
N2A N -0.3814(4) 0.77335(16) 0.51839(18)
N3A N -0.3872(4) 0.67406(16) 0.51122(18)
N4A N -0.2011(4) 0.63293(15) 0.57008(18)
N5A N 0.2115(3) 0.80051(15) 0.72659(16)
N6A N 0.4368(3) 0.61789(15) 0.78221(17)
N6_2 N 0.0632(3) 1.11789(15) 0.71779(17)
C1A C -0.0852(4) 0.71301(18) 0.61320(19)
C2A C 0.1314(4) 0.71077(18) 0.68612(19)
C3A C 0.4081(4) 0.79764(19) 0.7934(2)
H3A H 0.4729 0.8585 0.8211
C4A C 0.5184(4) 0.7069(2) 0.8224(2)
H4A H 0.6526 0.7082 0.8712
C5A C 0.2449(4) 0.62042(18) 0.7122(2)
H5A H 0.1861 0.5600 0.6802
C6B C 0.9315(4) 0.51004(17) 1.05347(19)
loop_
_geom_bond_atom_site_label_1
_geom_bond_atom_site_label_2
_geom_bond_site_symmetry_1
_geom_bond_site_symmetry_2
Cd1 N1 1_555 1_555
N1 N2 1_555 1_555
O1 Cd1 1_555 1_555
O2 C6 1_555 1_555
O3 Cd1 1_555 1_555
H1 O3 1_555 1_555
H2 O3 1_555 1_555
N2 N3 1_555 1_555
N3 N4 1_555 1_555
N4 C1 1_555 1_555
N5 C2 1_555 1_555
N6 C4 1_555 1_555
C1 N1 1_555 1_555
C2 C1 1_555 1_555
C3 N5 1_555 1_555
H3 C3 1_555 1_555
C4 C3 1_555 1_555
H4 C4 1_555 1_555
C5 N6 1_555 1_555
H5 C5 1_555 1_555
C6 O1 1_555 1_555
Cd1A N1A 1_555 1_555
Cd1_2 O2 1_555 1_555
Cd1B O2 1_555 1_555
Cd1A_2 N6 1_555 1_555
Cd1B_2 O2B 1_555 1_555
N1A N2A 1_555 1_555
O1B Cd1B 1_555 1_555
O1A Cd1A 1_555 1_555
O2B Cd1 1_555 1_555
O2_2 Cd1 1_555 1_555
O2A Cd1A 1_555 1_555
O2C Cd1A 1_555 1_555
O3A Cd1A 1_555 1_555
H1A O3A 1_555 1_555
H2A O3A 1_555 1_555
N2A N3A 1_555 1_555
N3A N4A 1_555 1_555
N4A C1A 1_555 1_555
N5A C2A 1_555 1_555
N6A Cd1 1_555 1_555
N6_2 Cd1A 1_555 1_555
C1A N1A 1_555 1_555
C2A C1A 1_555 1_555
C3A N5A 1_555 1_555
H3A C3A 1_555 1_555
C4A N6A 1_555 1_555
H4A C4A 1_555 1_555
C5A N6A 1_555 1_555
H5A C5A 1_555 1_555
C6B C6 1_555 1_555
C2 C5 1_555 1_555
Cd1B_2 O2_2 1_555 1_555
O1B C6B 1_555 1_555
O2B C6B 1_555 1_555
C2A C5A 1_555 1_555
C3A C4A 1_555 1_555

#END
