
#######################################################################
#
#                 Cambridge Crystallographic Data Centre
#                                CCDC 
#
#######################################################################
#
# If this CIF has been generated from an entry in the Cambridge 
# Structural Database, then it will include bibliographic, chemical, 
# crystal, experimental, refinement or atomic coordinate data resulting 
# from the CCDC's data processing and validation procedures.
#
#######################################################################

data_DURGIH
_symmetry_cell_setting           monoclinic
_symmetry_space_group_name_H-M   'P 21/n'
_symmetry_Int_Tables_number      14
_space_group_name_Hall           '-P 2yn'
loop_
_symmetry_equiv_pos_site_id
_symmetry_equiv_pos_as_xyz
1 x,y,z
2 1/2-x,1/2+y,1/2-z
3 -x,-y,-z
4 1/2+x,1/2-y,1/2+z
_cell_length_a                   5.8801(1)
_cell_length_b                   13.1286(2)
_cell_length_c                   11.5647(2)
_cell_angle_alpha                90
_cell_angle_beta                 94.867(1)
_cell_angle_gamma                90
_cell_volume                     889.547
loop_
_atom_site_label
_atom_site_type_symbol
_atom_site_fract_x
_atom_site_fract_y
_atom_site_fract_z
Cd1 Cd -0.56773(3) 0.044930(16) -0.347070(19)
C1 C -0.5857(5) 0.2869(2) -0.3871(3)
C2 C -0.3695(5) 0.2892(2) -0.3144(3)
C3 C -0.2557(6) 0.3798(2) -0.2882(3)
H1 H -0.3146 0.4402 -0.3203
C4 C 0.0172(6) 0.2932(3) -0.1778(3)
H2 H 0.1510 0.2919 -0.1288
C5 C -0.0926(6) 0.2024(3) -0.2069(3)
H3 H -0.0276 0.1416 -0.1793
C6 C -0.9314(5) -0.0102(2) -0.5533(3)
N1 N -0.6910(5) 0.1999(2) -0.4168(2)
N2 N -0.8821(5) 0.2263(2) -0.4813(3)
N3 N -0.8872(5) 0.3258(2) -0.4887(3)
N4 N -0.7027(5) 0.3672(2) -0.4305(3)
N5 N -0.2894(5) 0.19963(19) -0.2735(2)
N6 N -0.0634(5) 0.3823(2) -0.2180(2)
O1 O -1.0362(4) -0.01192(18) -0.65090(19)
O2 O -0.7197(4) -0.02289(17) -0.5307(2)
O3 O -0.6382(5) 0.06000(19) -0.1539(2)
H4 H -0.562(7) 0.094(2) -0.105(3)
H5 H -0.676(7) 0.0058(18) -0.126(3)
Cd1B Cd -1.43227(3) -0.044930(16) -0.652930(19)
Cd1A Cd 0.06773(3) 0.544930(16) -0.152930(19)
Cd1B_2 Cd -0.43227(3) -0.044930(16) -0.652930(19)
Cd1C Cd -1.06773(3) -0.544930(16) -0.847070(19)
Cd1_2 Cd -1.56773(3) 0.044930(16) -0.347070(19)
C1B C -0.4143(5) -0.2869(2) -0.6129(3)
C2B C -0.6305(5) -0.2892(2) -0.6856(3)
C3B C -0.7443(6) -0.3798(2) -0.7118(3)
H1B H -0.6854 -0.4402 -0.6797
C4B C -1.0172(6) -0.2932(3) -0.8222(3)
H2B H -1.1510 -0.2919 -0.8712
C5B C -0.9074(6) -0.2024(3) -0.7931(3)
H3B H -0.9724 -0.1416 -0.8207
C6B C -1.0686(5) 0.0102(2) -0.4467(3)
N1B N -0.3090(5) -0.1999(2) -0.5832(2)
N2B N -0.1179(5) -0.2263(2) -0.5187(3)
N3B N -0.1128(5) -0.3258(2) -0.5113(3)
N4B N -0.2973(5) -0.3672(2) -0.5695(3)
N5B N -0.7106(5) -0.19963(19) -0.7265(2)
N6A N -0.4366(5) -0.1177(2) -0.2820(2)
N6C N -0.5634(5) 0.1177(2) -0.7180(2)
N6B N -0.9366(5) -0.3823(2) -0.7820(2)
O1B O -0.9638(4) 0.01192(18) -0.34910(19)
O1_2 O -0.0362(4) -0.01192(18) -0.65090(19)
O2B O -0.2803(4) 0.02289(17) -0.4693(2)
O2B_2 O -1.2803(4) 0.02289(17) -0.4693(2)
O3B O -0.3618(5) -0.06000(19) -0.8461(2)
H4B H -0.438(7) -0.094(2) -0.895(3)
H5B H -0.324(7) -0.0058(18) -0.874(3)
loop_
_geom_bond_atom_site_label_1
_geom_bond_atom_site_label_2
_geom_bond_site_symmetry_1
_geom_bond_site_symmetry_2
Cd1 N1 1_555 1_555
C1 C2 1_555 1_555
C2 C3 1_555 1_555
C3 H1 1_555 1_555
C4 H2 1_555 1_555
C5 C4 1_555 1_555
H3 C5 1_555 1_555
C6 O1 1_555 1_555
N1 C1 1_555 1_555
N2 N1 1_555 1_555
N3 N2 1_555 1_555
N4 C1 1_555 1_555
N5 Cd1 1_555 1_555
N6 C3 1_555 1_555
O1 Cd1B 1_555 1_555
O2 Cd1 1_555 1_555
O3 Cd1 1_555 1_555
H4 O3 1_555 1_555
H5 O3 1_555 1_555
Cd1B O2B_2 1_555 1_555
Cd1A N6 1_555 1_555
Cd1B_2 O2 1_555 1_555
Cd1C N6B 1_555 1_555
Cd1_2 O2B_2 1_555 1_555
C1B C2B 1_555 1_555
C2B C3B 1_555 1_555
C3B H1B 1_555 1_555
C4B H2B 1_555 1_555
C5B C4B 1_555 1_555
H3B C5B 1_555 1_555
C6B C6 1_555 1_555
N1B Cd1B_2 1_555 1_555
N2B N1B 1_555 1_555
N3B N2B 1_555 1_555
N4B C1B 1_555 1_555
N5B Cd1B_2 1_555 1_555
N6A Cd1 1_555 1_555
N6C Cd1B_2 1_555 1_555
N6B C3B 1_555 1_555
O1B Cd1 1_555 1_555
O1_2 Cd1B_2 1_555 1_555
O2B Cd1 1_555 1_555
O2B_2 C6B 1_555 1_555
O3B Cd1B_2 1_555 1_555
H4B O3B 1_555 1_555
H5B O3B 1_555 1_555
C2 N5 1_555 1_555
C4 N6 1_555 1_555
C5 N5 1_555 1_555
C6 O2 1_555 1_555
N3 N4 1_555 1_555
Cd1B_2 O2B 1_555 1_555
C1B N1B 1_555 1_555
C2B N5B 1_555 1_555
C4B N6B 1_555 1_555
C5B N5B 1_555 1_555
C6B O1B 1_555 1_555
N3B N4B 1_555 1_555

#END
