
#######################################################################
#
#                 Cambridge Crystallographic Data Centre
#                                CCDC 
#
#######################################################################
#
# If this CIF has been generated from an entry in the Cambridge 
# Structural Database, then it will include bibliographic, chemical, 
# crystal, experimental, refinement or atomic coordinate data resulting 
# from the CCDC's data processing and validation procedures.
#
#######################################################################

data_DUVLUC
_symmetry_cell_setting           monoclinic
_symmetry_space_group_name_H-M   'P 21/c'
_symmetry_Int_Tables_number      14
_space_group_name_Hall           '-P 2ybc'
loop_
_symmetry_equiv_pos_site_id
_symmetry_equiv_pos_as_xyz
1 x,y,z
2 -x,1/2+y,1/2-z
3 -x,-y,-z
4 x,1/2-y,1/2+z
_cell_length_a                   14.326(3)
_cell_length_b                   15.456(4)
_cell_length_c                   10.161(5)
_cell_angle_alpha                90
_cell_angle_beta                 101.309(15)
_cell_angle_gamma                90
_cell_volume                     2206.19
loop_
_atom_site_label
_atom_site_type_symbol
_atom_site_fract_x
_atom_site_fract_y
_atom_site_fract_z
C1 C 0.3405(6) 0.0508(5) 0.3194(7)
H1 H 0.3656 0.0374 0.2442
C2 C 0.2447(6) 0.0546(5) 0.3048(8)
H2 H 0.2056 0.0442 0.2218
C3 C 0.2058(6) 0.0741(6) 0.4150(9)
H3 H 0.1404 0.0803 0.4077
C4 C 0.2676(6) 0.0840(5) 0.5364(8)
H4 H 0.2438 0.0943 0.6137
C5 C 0.3642(5) 0.0788(4) 0.5437(7)
C6 C 0.4345(5) 0.0894(5) 0.6739(6)
H5 H 0.4585 0.0335 0.7082
H6 H 0.4878 0.1247 0.6605
C7 C 0.4298(5) 0.1407(4) 0.8980(6)
C8 C 0.3741(5) 0.1790(4) 0.9799(7)
C9 C 0.4139(5) 0.1868(5) 1.1159(7)
H7 H 0.3776 0.2110 1.1729
C10 C 0.5053(6) 0.1597(5) 1.1688(7)
C11 C 0.5598(5) 0.1244(4) 1.0835(7)
C12 C 0.5227(5) 0.1154(4) 0.9469(7)
H8 H 0.5597 0.0928 0.8896
C13 C 0.7075(6) 0.0600(5) 1.0576(7)
H9 H 0.7153 0.1000 0.9870
H10 H 0.6765 0.0083 1.0160
C14 C 0.8016(5) 0.0373(5) 1.1384(7)
C15 C 0.8362(6) 0.0662(6) 1.2652(8)
H11 H 0.8005 0.1033 1.3078
C16 C 0.9250(7) 0.0392(7) 1.3287(10)
H12 H 0.9496 0.0577 1.4156
C17 C 0.9767(7) -0.0139(6) 1.2661(11)
H13 H 1.0369 -0.0327 1.3080
C18 C 0.9372(7) -0.0391(7) 1.1382(11)
H14 H 0.9724 -0.0755 1.0939
C19 C 0.0971(6) 0.2551(5) 0.6741(8)
C20 C -0.0006(7) 0.2711(7) 0.5922(9)
H15 H 0.0037 0.2799 0.5000
H16 H -0.0274 0.3217 0.6253
H17 H -0.0405 0.2221 0.5990
C21 C 0.7170(7) 0.1815(5) 1.5909(8)
C22 C 0.7677(7) 0.1831(6) 1.7330(8)
H18 H 0.8072 0.1327 1.7514
H19 H 0.7221 0.1837 1.7908
H20 H 0.8066 0.2341 1.7487
Hg1 Hg 0.23710(2) 0.211660(19) 0.89763(3)
Hg2 Hg 0.56542(2) 0.16401(2) 1.37005(3)
N1 N 0.4022(4) 0.0653(4) 0.4362(5)
N2 N 0.8523(5) -0.0148(5) 1.0740(8)
O1 O 0.3850(4) 0.1305(3) 0.7662(5)
O2 O 0.6502(4) 0.0987(3) 1.1410(5)
O3 O 0.1672(4) 0.2577(4) 0.6264(5)
O4 O 0.0993(4) 0.2400(4) 0.8003(5)
O5 O 0.7577(5) 0.1904(7) 1.4985(7)
O6 O 0.6280(4) 0.1662(4) 1.5713(5)
Hg1C Hg 0.23710(2) 0.288340(19) 0.39763(3)
O3C O 0.1672(4) 0.2423(4) 1.1264(5)
loop_
_geom_bond_atom_site_label_1
_geom_bond_atom_site_label_2
_geom_bond_site_symmetry_1
_geom_bond_site_symmetry_2
C1 H1 1_555 1_555
C2 C1 1_555 1_555
H2 C2 1_555 1_555
C3 C2 1_555 1_555
H3 C3 1_555 1_555
C4 C3 1_555 1_555
H4 C4 1_555 1_555
C5 C4 1_555 1_555
C6 C5 1_555 1_555
H5 C6 1_555 1_555
H6 C6 1_555 1_555
C7 C8 1_555 1_555
C8 C9 1_555 1_555
C9 H7 1_555 1_555
C10 C9 1_555 1_555
C11 C10 1_555 1_555
C12 C7 1_555 1_555
H8 C12 1_555 1_555
C13 H9 1_555 1_555
H10 C13 1_555 1_555
C14 C13 1_555 1_555
C15 C14 1_555 1_555
H11 C15 1_555 1_555
C16 C15 1_555 1_555
H12 C16 1_555 1_555
C17 C16 1_555 1_555
H13 C17 1_555 1_555
C18 C17 1_555 1_555
H14 C18 1_555 1_555
C19 C20 1_555 1_555
C20 H15 1_555 1_555
H16 C20 1_555 1_555
H17 C20 1_555 1_555
C21 C22 1_555 1_555
C22 H18 1_555 1_555
H19 C22 1_555 1_555
H20 C22 1_555 1_555
Hg1 C8 1_555 1_555
Hg2 C10 1_555 1_555
N1 C1 1_555 1_555
N2 C14 1_555 1_555
O1 C6 1_555 1_555
O2 C11 1_555 1_555
O3 C19 1_555 1_555
O4 C19 1_555 1_555
O5 C21 1_555 1_555
O6 C21 1_555 1_555
Hg1C O3 1_555 1_555
O3C Hg1 1_555 1_555
C5 N1 1_555 1_555
C7 O1 1_555 1_555
C11 C12 1_555 1_555
C13 O2 1_555 1_555
C18 N2 1_555 1_555
Hg1 O3 1_555 1_555
Hg1 O4 1_555 1_555
Hg2 O5 1_555 1_555
Hg2 O6 1_555 1_555

#END
