
#######################################################################
#
#                 Cambridge Crystallographic Data Centre
#                                CCDC 
#
#######################################################################
#
# If this CIF has been generated from an entry in the Cambridge 
# Structural Database, then it will include bibliographic, chemical, 
# crystal, experimental, refinement or atomic coordinate data resulting 
# from the CCDC's data processing and validation procedures.
#
#######################################################################

data_DUVTOE01
_symmetry_cell_setting           monoclinic
_symmetry_space_group_name_H-M   'P 21/c'
_symmetry_Int_Tables_number      14
_space_group_name_Hall           '-P 2ybc'
loop_
_symmetry_equiv_pos_site_id
_symmetry_equiv_pos_as_xyz
1 x,y,z
2 -x,1/2+y,1/2-z
3 -x,-y,-z
4 x,1/2-y,1/2+z
_cell_length_a                   14.1956(12)
_cell_length_b                   13.5254(11)
_cell_length_c                   12.3722(10)
_cell_angle_alpha                90
_cell_angle_beta                 98.9920(10)
_cell_angle_gamma                90
_cell_volume                     2346.28
loop_
_atom_site_label
_atom_site_type_symbol
_atom_site_fract_x
_atom_site_fract_y
_atom_site_fract_z
Cd1 Cd 0.964194(12) 0.787629(13) 0.682379(13)
Cd2 Cd 1.081587(12) 0.887503(13) 0.975160(13)
Cd3 Cd 0.843740(12) 0.639629(13) 0.887229(13)
N1 N 1.46535(16) 0.6229(2) 0.9534(2)
N2 N 0.46287(16) 0.8842(2) 0.9043(2)
O1 O 1.03506(11) 0.74980(12) 0.85797(13)
O2 O 1.00322(11) 0.59279(11) 0.89433(13)
O3 O 1.07217(12) 0.62679(12) 0.67759(13)
O4 O 1.20990(13) 0.63392(14) 0.61562(14)
O5 O 1.09332(12) 0.68013(13) 1.10097(13)
O6 O 1.17641(13) 0.54553(13) 1.16436(14)
O7 O 1.50731(15) 0.6111(2) 1.04566(18)
O8 O 1.50646(16) 0.6341(3) 0.8741(2)
O9 O 0.74046(13) 0.91758(14) 0.67894(14)
O10 O 0.84692(12) 0.82175(13) 0.78251(13)
O11 O 0.92378(11) 0.93376(11) 0.98410(12)
O12 O 0.90228(11) 0.77290(11) 1.00900(13)
O13 O 0.85068(12) 0.86905(13) 1.19347(14)
O14 O 0.70953(13) 0.85185(15) 1.24555(14)
O15 O 0.41948(15) 0.8731(2) 0.98132(19)
O16 O 0.42336(16) 0.8976(3) 0.8116(2)
O17 O 0.89386(12) 0.92159(12) 0.57192(13)
H1 H 0.8480 0.9341 0.6064
H2 H 0.9243 0.9756 0.5839
O18 O 1.02651(11) 0.94919(12) 0.79542(13)
H3 H 0.9989 1.0044 0.8005
H4 H 1.0733 0.9680 0.7654
O19 O 1.21694(13) 0.89185(16) 0.89110(15)
H5 H 1.2754 0.8844 0.9177
H6 H 1.2229 0.9218 0.8321
O20 O 0.70777(13) 0.64075(15) 0.96501(15)
H7 H 0.6527 0.6293 0.9293
H8 H 0.7107 0.6214 1.0308
C1 C 1.16540(16) 0.64192(16) 0.89863(18)
C2 C 1.21502(17) 0.64080(16) 0.80892(19)
C3 C 1.31421(18) 0.63531(18) 0.8272(2)
H9 H 1.3485 0.6378 0.7691
C4 C 1.36068(17) 0.62612(19) 0.9338(2)
C5 C 1.31230(17) 0.61696(19) 1.0227(2)
H10 H 1.3452 0.6051 1.0926
C6 C 1.21418(17) 0.62583(17) 1.00472(19)
C7 C 1.05944(16) 0.66169(17) 0.88192(17)
C8 C 1.16287(18) 0.63528(17) 0.69294(19)
C9 C 1.15716(16) 0.61646(17) 1.09889(18)
C10 C 0.71623(17) 0.87997(16) 0.86000(19)
C11 C 0.76393(16) 0.87257(16) 0.96831(18)
C12 C 0.71164(17) 0.87136(17) 1.05542(19)
C13 C 0.61239(18) 0.87495(18) 1.0339(2)
H11 H 0.5767 0.8723 1.0908
C14 C 0.56800(17) 0.8825(2) 0.9266(2)
C15 C 0.61782(18) 0.88679(19) 0.8388(2)
H12 H 0.5860 0.8941 0.7676
C16 C 0.77149(17) 0.87328(17) 0.76490(18)
C17 C 0.87132(16) 0.86006(16) 0.98958(17)
C18 C 0.76030(18) 0.86341(17) 1.17259(19)
Cd1C Cd 0.964194(12) 0.712371(13) 1.182379(13)
Cd2C Cd 1.081587(12) 0.612497(13) 0.475160(13)
Cd2B Cd 0.918413(12) 1.112497(13) 1.024840(13)
Cd3B Cd 1.156260(12) 0.360371(13) 1.112771(13)
Cd3C Cd 0.843740(12) 0.860371(13) 1.387229(13)
Cd3C_2 Cd 0.843740(12) 0.860371(13) 0.387229(13)
O3C O 1.07217(12) 0.87321(12) 1.17759(13)
O4C O 1.20990(13) 0.86608(14) 1.11562(14)
O5C O 1.09332(12) 0.81987(13) 0.60097(13)
O6B O 0.82359(13) 0.45447(13) 0.83564(14)
O11B O 1.07622(11) 1.06624(11) 1.01590(12)
O12C O 0.90228(11) 0.72710(11) 0.50900(13)
O13C O 0.85068(12) 0.63095(13) 0.69347(14)
O14C O 0.70953(13) 0.64815(15) 0.74555(14)
O17C O 0.89386(12) 0.57841(12) 1.07192(13)
H1C H 0.8480 0.5659 1.1064
H2C H 0.9243 0.5244 1.0839
loop_
_geom_bond_atom_site_label_1
_geom_bond_atom_site_label_2
_geom_bond_site_symmetry_1
_geom_bond_site_symmetry_2
Cd1 O1 1_555 1_555
Cd2 O1 1_555 1_555
Cd3 O2 1_555 1_555
N1 O7 1_555 1_555
N2 O15 1_555 1_555
O1 C7 1_555 1_555
O2 C7 1_555 1_555
O3 C8 1_555 1_555
O4 C8 1_555 1_555
O5 C9 1_555 1_555
O6 C9 1_555 1_555
O8 N1 1_555 1_555
O9 C16 1_555 1_555
O10 Cd1 1_555 1_555
O11 Cd2 1_555 1_555
O12 Cd3 1_555 1_555
O13 C18 1_555 1_555
O14 C18 1_555 1_555
O16 N2 1_555 1_555
O17 Cd1 1_555 1_555
H1 O17 1_555 1_555
H2 O17 1_555 1_555
O18 Cd2 1_555 1_555
H3 O18 1_555 1_555
H4 O18 1_555 1_555
O19 Cd2 1_555 1_555
H5 O19 1_555 1_555
H6 O19 1_555 1_555
O20 Cd3 1_555 1_555
H7 O20 1_555 1_555
H8 O20 1_555 1_555
C1 C2 1_555 1_555
C2 C3 1_555 1_555
C3 H9 1_555 1_555
C4 N1 1_555 1_555
C5 C4 1_555 1_555
H10 C5 1_555 1_555
C6 C1 1_555 1_555
C7 C1 1_555 1_555
C8 C2 1_555 1_555
C9 C6 1_555 1_555
C10 C11 1_555 1_555
C11 C12 1_555 1_555
C12 C13 1_555 1_555
C13 H11 1_555 1_555
C14 N2 1_555 1_555
C15 C10 1_555 1_555
H12 C15 1_555 1_555
C16 O10 1_555 1_555
C17 O11 1_555 1_555
C18 C12 1_555 1_555
Cd1C O5 1_555 1_555
Cd2C O3 1_555 1_555
Cd2B O11 1_555 1_555
Cd3B O6 1_555 1_555
Cd3C O13 1_555 1_555
Cd3C_2 O17 1_555 1_555
O3C Cd2 1_555 1_555
O4C Cd2 1_555 1_555
O5C Cd1 1_555 1_555
O6B Cd3 1_555 1_555
O11B Cd2 1_555 1_555
O12C Cd1 1_555 1_555
O13C Cd3 1_555 1_555
O14C Cd3 1_555 1_555
O17C Cd3 1_555 1_555
H1C O17C 1_555 1_555
H2C O17C 1_555 1_555
O4 Cd2C 1_555 1_555
O12 C17 1_555 1_555
O12 Cd1C 1_555 1_555
O14 Cd3C 1_555 1_555
C3 C4 1_555 1_555
C5 C6 1_555 1_555
C10 C16 1_555 1_555
C11 C17 1_555 1_555
C13 C14 1_555 1_555
C14 C15 1_555 1_555
Cd1C O17C 1_555 1_555
Cd2B O11B 1_555 1_555
Cd3C_2 O12C 1_555 1_555

#END
