
#######################################################################
#
#                 Cambridge Crystallographic Data Centre
#                                CCDC 
#
#######################################################################
#
# If this CIF has been generated from an entry in the Cambridge 
# Structural Database, then it will include bibliographic, chemical, 
# crystal, experimental, refinement or atomic coordinate data resulting 
# from the CCDC's data processing and validation procedures.
#
#######################################################################

data_DUWQIW
_symmetry_cell_setting           monoclinic
_symmetry_space_group_name_H-M   'P 21/c'
_symmetry_Int_Tables_number      14
_space_group_name_Hall           '-P 2ybc'
loop_
_symmetry_equiv_pos_site_id
_symmetry_equiv_pos_as_xyz
1 x,y,z
2 -x,1/2+y,1/2-z
3 -x,-y,-z
4 x,1/2-y,1/2+z
_cell_length_a                   16.244(3)
_cell_length_b                   6.9978(14)
_cell_length_c                   7.9675(16)
_cell_angle_alpha                90
_cell_angle_beta                 90.16(3)
_cell_angle_gamma                90
_cell_volume                     905.68
loop_
_atom_site_label
_atom_site_type_symbol
_atom_site_fract_x
_atom_site_fract_y
_atom_site_fract_z
Mn1 Mn 1.0000 0.5000 0.5000
O1 O 0.98366(9) 0.2184(2) 0.6099(2)
O2 O 0.91455(11) 0.0429(2) 0.7969(2)
O3 O 0.89934(10) 0.6082(2) 0.6585(2)
H1 H 0.9271 0.6663 0.7332
H2 H 0.8575 0.6722 0.6275
N1 N 0.77349(13) 0.0548(3) 0.6183(3)
N2 N 0.76056(14) -0.1366(3) 0.6226(3)
N3 N 0.69138(15) -0.1704(3) 0.7016(3)
C1 C 0.71071(16) 0.1471(3) 0.6976(3)
C2 C 0.69382(17) 0.3403(4) 0.7253(3)
H3 H 0.7293 0.4365 0.6900
C3 C 0.62238(19) 0.3791(4) 0.8069(3)
H4 H 0.6088 0.5058 0.8286
C4 C 0.56808(18) 0.2335(5) 0.8602(4)
H5 H 0.5197 0.2664 0.9151
C5 C 0.5856(2) 0.0441(5) 0.8320(4)
H6 H 0.5501 -0.0521 0.8674
C6 C 0.6582(2) 0.0021(3) 0.7487(4)
C7 C 0.84705(15) 0.1317(4) 0.5445(3)
H7 H 0.8364 0.2620 0.5091
H8 H 0.8604 0.0579 0.4453
C8 C 0.92071(14) 0.1310(3) 0.6617(3)
Mn1A Mn 1.0000 0.0000 1.0000
Mn1A_2 Mn 1.0000 1.0000 1.0000
O1A O 1.01634(9) 0.7184(2) 0.8901(2)
O1B O 1.01634(9) 0.7816(2) 0.3901(2)
O2A O 1.08545(11) 0.5429(2) 0.7031(2)
O2C O 0.91455(11) 0.4571(2) 0.2969(2)
O3B O 1.10066(10) 0.3918(2) 0.3415(2)
H1B H 1.0729 0.3337 0.2668
H2B H 1.1425 0.3278 0.3725
N1A N 1.22651(13) 0.5548(3) 0.8817(3)
N2A N 1.23944(14) 0.3634(3) 0.8774(3)
N3A N 1.30862(15) 0.3296(3) 0.7984(3)
C1A C 1.28929(16) 0.6471(3) 0.8024(3)
C2A C 1.30618(17) 0.8403(4) 0.7747(3)
H3A H 1.2707 0.9365 0.8100
C3A C 1.37762(19) 0.8791(4) 0.6931(3)
H4A H 1.3912 1.0058 0.6714
C4A C 1.43192(18) 0.7335(5) 0.6398(4)
H5A H 1.4803 0.7664 0.5849
C5A C 1.4144(2) 0.5441(5) 0.6680(4)
H6A H 1.4499 0.4479 0.6326
C6A C 1.3418(2) 0.5021(3) 0.7513(4)
C7A C 1.15295(15) 0.6317(4) 0.9555(3)
H7A H 1.1636 0.7620 0.9909
H8A H 1.1396 0.5579 1.0547
C8A C 1.07929(14) 0.6310(3) 0.8383(3)
loop_
_geom_bond_atom_site_label_1
_geom_bond_atom_site_label_2
_geom_bond_site_symmetry_1
_geom_bond_site_symmetry_2
Mn1 O1 1_555 1_555
O1 C8 1_555 1_555
O2 C8 1_555 1_555
O3 Mn1 1_555 1_555
H1 O3 1_555 1_555
H2 O3 1_555 1_555
N1 N2 1_555 1_555
N2 N3 1_555 1_555
N3 C6 1_555 1_555
C1 N1 1_555 1_555
C2 C1 1_555 1_555
H3 C2 1_555 1_555
C3 C2 1_555 1_555
H4 C3 1_555 1_555
C4 C3 1_555 1_555
H5 C4 1_555 1_555
C5 C4 1_555 1_555
H6 C5 1_555 1_555
C6 C1 1_555 1_555
C7 N1 1_555 1_555
H7 C7 1_555 1_555
H8 C7 1_555 1_555
C8 C7 1_555 1_555
Mn1A O2 1_555 1_555
Mn1A_2 O1A 1_555 1_555
O1A C8A 1_555 1_555
O1B Mn1 1_555 1_555
O2A Mn1 1_555 1_555
O2C Mn1 1_555 1_555
O3B Mn1 1_555 1_555
H1B O3B 1_555 1_555
H2B O3B 1_555 1_555
N1A N2A 1_555 1_555
N2A N3A 1_555 1_555
N3A C6A 1_555 1_555
C1A N1A 1_555 1_555
C2A C1A 1_555 1_555
H3A C2A 1_555 1_555
C3A C2A 1_555 1_555
H4A C3A 1_555 1_555
C4A C3A 1_555 1_555
H5A C4A 1_555 1_555
C5A C4A 1_555 1_555
H6A C5A 1_555 1_555
C6A C1A 1_555 1_555
C7A N1A 1_555 1_555
H7A C7A 1_555 1_555
H8A C7A 1_555 1_555
C8A O2A 1_555 1_555
C5 C6 1_555 1_555
C5A C6A 1_555 1_555
C7A C8A 1_555 1_555

#END
