
#######################################################################
#
#                 Cambridge Crystallographic Data Centre
#                                CCDC 
#
#######################################################################
#
# If this CIF has been generated from an entry in the Cambridge 
# Structural Database, then it will include bibliographic, chemical, 
# crystal, experimental, refinement or atomic coordinate data resulting 
# from the CCDC's data processing and validation procedures.
#
#######################################################################

data_DUWROD
_symmetry_cell_setting           monoclinic
_symmetry_space_group_name_H-M   'C 2/c'
_symmetry_Int_Tables_number      15
_space_group_name_Hall           '-C 2yn'
loop_
_symmetry_equiv_pos_site_id
_symmetry_equiv_pos_as_xyz
1 x,y,z
2 -x,y,1/2-z
3 1/2+x,1/2+y,z
4 1/2-x,1/2+y,1/2-z
5 -x,-y,-z
6 x,-y,1/2+z
7 1/2-x,1/2-y,-z
8 1/2+x,1/2-y,1/2+z
_cell_length_a                   19.441(4)
_cell_length_b                   7.5036(15)
_cell_length_c                   17.222(3)
_cell_angle_alpha                90
_cell_angle_beta                 116.38(3)
_cell_angle_gamma                90
_cell_volume                     2250.69
loop_
_atom_site_label
_atom_site_type_symbol
_atom_site_fract_x
_atom_site_fract_y
_atom_site_fract_z
O1 O 0.5000 0.7860(12) 0.2500
H2 H 0.5404 0.7334 0.2900
H2A H 0.4596 0.7334 0.2100
O2 O 0.4139(3) 0.0919(8) 0.1811(3)
H1 H 0.4176 0.2051 0.1858
O3 O 0.2752(3) 0.1575(6) 0.1890(3)
H3 H 0.4096 0.0420 0.2235
H4 H 0.2459 0.1056 0.2081
H5 H 0.2740 0.2691 0.1994
O4 O 0.3885(2) -0.4876(6) 0.2109(3)
O5 O 0.3786(2) -0.1292(5) 0.0289(3)
O6 O 0.3421(2) -0.3702(5) -0.0578(3)
C1 C 0.3890(3) -0.2519(7) -0.0143(4)
Ce1 Ce 0.280157(17) -0.01316(4) 0.06888(2)
S1 S 0.31653(8) -0.39028(19) 0.17272(9)
O7 O 0.6808(2) -0.2596(5) -0.0053(3)
C2 C 0.6017(3) -0.1889(8) 0.0589(4)
H6 H 0.6436 -0.1390 0.1053
C3 C 0.5520(3) -0.3406(8) -0.0738(4)
H7 H 0.5601 -0.3948 -0.1175
C4 C 0.5299(3) -0.1862(8) 0.0569(4)
H8 H 0.5235 -0.1349 0.1024
O8 O 0.2895(2) -0.3701(5) 0.0772(3)
C5 C 0.4671(3) -0.2595(7) -0.0129(4)
O9 O 0.2576(3) -0.4843(6) 0.1882(3)
C6 C 0.4793(3) -0.3386(8) -0.0779(4)
H9 H 0.4385 -0.3908 -0.1248
O10 O 0.3264(3) -0.2056(5) 0.2060(3)
N1 N 0.6101(3) -0.2649(6) -0.0072(3)
O2F O 0.0861(3) -0.5919(8) -0.1811(3)
H1F H 0.0824 -0.7051 -0.1858
O3F O 0.2248(3) -0.6575(6) -0.1890(3)
H3F H 0.0904 -0.5420 -0.2235
H4F H 0.2541 -0.6056 -0.2081
H5F H 0.2260 -0.7691 -0.1994
O4F O 0.1115(2) -0.0124(6) -0.2109(3)
O5F O 0.1214(2) -0.3708(5) -0.0289(3)
O6F O 0.1579(2) -0.1298(5) 0.0578(3)
C1F C 0.1110(3) -0.2481(7) 0.0143(4)
Ce1F Ce 0.219843(17) -0.48684(4) -0.06888(2)
Ce1B Ce 0.780157(17) -0.51316(4) 0.06888(2)
Ce1D Ce 0.719843(17) 0.01316(4) -0.06888(2)
Ce1D_2 Ce -0.280157(17) 0.01316(4) -0.06888(2)
Ce1B_2 Ce -0.219843(17) -0.51316(4) 0.06888(2)
S1F S 0.18347(8) -0.10972(19) -0.17272(9)
O7F O -0.1808(2) -0.2404(5) 0.0053(3)
O7B O 0.1808(2) 0.2404(5) -0.0053(3)
O7D O 0.3192(2) 0.2596(5) 0.0053(3)
O7D_2 O 0.3192(2) -0.7404(5) 0.0053(3)
O7B_2 O 0.1808(2) -0.7596(5) -0.0053(3)
C2F C -0.1017(3) -0.3111(8) -0.0589(4)
H6F H -0.1436 -0.3610 -0.1053
C3F C -0.0520(3) -0.1594(8) 0.0738(4)
H7F H -0.0601 -0.1052 0.1175
C4F C -0.0299(3) -0.3138(8) -0.0569(4)
H8F H -0.0235 -0.3651 -0.1024
O8F O 0.2105(2) -0.1299(5) -0.0772(3)
C5F C 0.0329(3) -0.2405(7) 0.0129(4)
O9F O 0.2424(3) -0.0157(6) -0.1882(3)
C6F C 0.0207(3) -0.1614(8) 0.0779(4)
H9F H 0.0615 -0.1092 0.1248
O10F O 0.1736(3) -0.2944(5) -0.2060(3)
N1F N -0.1101(3) -0.2351(6) 0.0072(3)
loop_
_geom_bond_atom_site_label_1
_geom_bond_atom_site_label_2
_geom_bond_site_symmetry_1
_geom_bond_site_symmetry_2
O1 H2 1_555 1_555
O2 H1 1_555 1_555
O3 H4 1_555 1_555
H3 O2 1_555 1_555
H5 O3 1_555 1_555
O4 S1 1_555 1_555
O5 C1 1_555 1_555
O6 C1 1_555 1_555
C1 C5 1_555 1_555
Ce1 O2 1_555 1_555
S1 O8 1_555 1_555
O7 N1 1_555 1_555
C2 H6 1_555 1_555
C3 H7 1_555 1_555
C4 C2 1_555 1_555
H8 C4 1_555 1_555
O8 Ce1 1_555 1_555
C5 C4 1_555 1_555
O9 S1 1_555 1_555
C6 C3 1_555 1_555
H9 C6 1_555 1_555
O10 Ce1 1_555 1_555
N1 C2 1_555 1_555
O2F H1F 1_555 1_555
O3F H4F 1_555 1_555
H2A O1 1_555 1_555
H3F O2F 1_555 1_555
H5F O3F 1_555 1_555
O4F S1F 1_555 1_555
O5F C1F 1_555 1_555
O6F Ce1 1_555 1_555
C1F O6F 1_555 1_555
Ce1F O6 1_555 1_555
Ce1B O7 1_555 1_555
Ce1D O7 1_555 1_555
Ce1D_2 O7F 1_555 1_555
Ce1B_2 O7F 1_555 1_555
S1F O8F 1_555 1_555
O7F N1F 1_555 1_555
O7B Ce1 1_555 1_555
O7D Ce1 1_555 1_555
O7D_2 Ce1F 1_555 1_555
O7B_2 Ce1F 1_555 1_555
C2F H6F 1_555 1_555
C3F H7F 1_555 1_555
C4F C2F 1_555 1_555
H8F C4F 1_555 1_555
O8F Ce1 1_555 1_555
C5F C1F 1_555 1_555
O9F S1F 1_555 1_555
C6F C3F 1_555 1_555
H9F C6F 1_555 1_555
O10F Ce1F 1_555 1_555
N1F C2F 1_555 1_555
O3 Ce1 1_555 1_555
O5 Ce1 1_555 1_555
S1 O10 1_555 1_555
C3 N1 1_555 1_555
O8 Ce1F 1_555 1_555
C5 C6 1_555 1_555
O2F Ce1F 1_555 1_555
O3F Ce1F 1_555 1_555
O5F Ce1F 1_555 1_555
Ce1F O8F 1_555 1_555
S1F O10F 1_555 1_555
C3F N1F 1_555 1_555
C4F C5F 1_555 1_555
C5F C6F 1_555 1_555

#END
