
#######################################################################
#
#                 Cambridge Crystallographic Data Centre
#                                CCDC 
#
#######################################################################
#
# If this CIF has been generated from an entry in the Cambridge 
# Structural Database, then it will include bibliographic, chemical, 
# crystal, experimental, refinement or atomic coordinate data resulting 
# from the CCDC's data processing and validation procedures.
#
#######################################################################

data_DUWSAQ
_symmetry_cell_setting           monoclinic
_symmetry_space_group_name_H-M   'C 2/c'
_symmetry_Int_Tables_number      15
_space_group_name_Hall           '-C 2yn'
loop_
_symmetry_equiv_pos_site_id
_symmetry_equiv_pos_as_xyz
1 x,y,z
2 -x,y,1/2-z
3 1/2+x,1/2+y,z
4 1/2-x,1/2+y,1/2-z
5 -x,-y,-z
6 x,-y,1/2+z
7 1/2-x,1/2-y,-z
8 1/2+x,1/2-y,1/2+z
_cell_length_a                   19.384(4)
_cell_length_b                   7.4734(15)
_cell_length_c                   17.150(3)
_cell_angle_alpha                90
_cell_angle_beta                 116.04(3)
_cell_angle_gamma                90
_cell_volume                     2232.22
loop_
_atom_site_label
_atom_site_type_symbol
_atom_site_fract_x
_atom_site_fract_y
_atom_site_fract_z
O1 O 0.5000 0.7835(6) 0.2500
H1 H 0.465(2) 0.713(5) 0.247(4)
H1A H 0.535(2) 0.713(5) 0.253(4)
O2 O 0.41289(14) 0.0879(4) 0.17764(16)
H2 H 0.4413 0.0008 0.2053
H3 H 0.4066 0.1972 0.1867
O3 O 0.27493(18) 0.1582(3) 0.18680(18)
H4 H 0.266(3) 0.101(5) 0.224(2)
H5 H 0.269(3) 0.2694(18) 0.189(3)
O4 O 0.38761(14) -0.4843(3) 0.21137(17)
O5 O 0.37778(12) -0.1290(3) 0.02869(15)
O6 O 0.34127(12) -0.3717(3) -0.05803(15)
C1 C 0.38822(17) -0.2535(4) -0.0146(2)
Nd1 Nd 0.279558(9) -0.012752(19) 0.067641(10)
S1 S 0.31515(4) -0.38744(10) 0.17220(5)
O7 O 0.68141(11) -0.2606(3) -0.00585(14)
C2 C 0.60162(18) -0.1902(4) 0.0589(2)
H6 H 0.6435 -0.1416 0.1058
C3 C 0.55209(18) -0.3413(4) -0.0748(2)
H7 H 0.5605 -0.3953 -0.1187
C4 C 0.52958(18) -0.1866(4) 0.0566(2)
H8 H 0.5230 -0.1347 0.1022
O8 O 0.28891(12) -0.3690(3) 0.07639(13)
C5 C 0.46669(17) -0.2598(4) -0.0130(2)
O9 O 0.25599(14) -0.4819(3) 0.18762(16)
C6 C 0.47914(18) -0.3396(4) -0.0790(2)
H9 H 0.4385 -0.3920 -0.1259
O10 O 0.32402(13) -0.2003(3) 0.20355(14)
N1 N 0.61061(14) -0.2648(3) -0.00730(17)
O2F O 0.08711(14) -0.5879(4) -0.17764(16)
H2F H 0.0587 -0.5008 -0.2053
H3F H 0.0934 -0.6972 -0.1867
O3F O 0.22507(18) -0.6582(3) -0.18680(18)
H4F H 0.234(3) -0.601(5) -0.224(2)
H5F H 0.231(3) -0.7694(18) -0.189(3)
O4F O 0.11239(14) -0.0157(3) -0.21137(17)
O5F O 0.12222(12) -0.3710(3) -0.02869(15)
O6F O 0.15873(12) -0.1283(3) 0.05803(15)
C1F C 0.11178(17) -0.2465(4) 0.0146(2)
Nd1F Nd 0.220442(9) -0.487248(19) -0.067641(10)
Nd1B Nd 0.779558(9) -0.512752(19) 0.067641(10)
Nd1D Nd 0.720442(9) 0.012752(19) -0.067641(10)
Nd1D_2 Nd -0.279558(9) 0.012752(19) -0.067641(10)
Nd1B_2 Nd -0.220442(9) -0.512752(19) 0.067641(10)
S1F S 0.18485(4) -0.11256(10) -0.17220(5)
O7F O -0.18141(11) -0.2394(3) 0.00585(14)
O7B O 0.18141(11) 0.2394(3) -0.00585(14)
O7D O 0.31859(11) 0.2606(3) 0.00585(14)
O7D_2 O 0.31859(11) -0.7394(3) 0.00585(14)
O7B_2 O 0.18141(11) -0.7606(3) -0.00585(14)
C2F C -0.10162(18) -0.3098(4) -0.0589(2)
H6F H -0.1435 -0.3584 -0.1058
C3F C -0.05209(18) -0.1587(4) 0.0748(2)
H7F H -0.0605 -0.1047 0.1187
C4F C -0.02958(18) -0.3134(4) -0.0566(2)
H8F H -0.0230 -0.3653 -0.1022
O8F O 0.21109(12) -0.1310(3) -0.07639(13)
C5F C 0.03331(17) -0.2402(4) 0.0130(2)
O9F O 0.24401(14) -0.0181(3) -0.18762(16)
C6F C 0.02086(18) -0.1604(4) 0.0790(2)
H9F H 0.0615 -0.1080 0.1259
O10F O 0.17598(13) -0.2997(3) -0.20355(14)
N1F N -0.11061(14) -0.2352(3) 0.00730(17)
loop_
_geom_bond_atom_site_label_1
_geom_bond_atom_site_label_2
_geom_bond_site_symmetry_1
_geom_bond_site_symmetry_2
O1 H1 1_555 1_555
O2 H2 1_555 1_555
H3 O2 1_555 1_555
O3 H4 1_555 1_555
H5 O3 1_555 1_555
O4 S1 1_555 1_555
O5 C1 1_555 1_555
O6 C1 1_555 1_555
C1 C5 1_555 1_555
Nd1 O2 1_555 1_555
S1 O8 1_555 1_555
O7 N1 1_555 1_555
C2 H6 1_555 1_555
C3 H7 1_555 1_555
C4 C2 1_555 1_555
H8 C4 1_555 1_555
O8 Nd1 1_555 1_555
C5 C4 1_555 1_555
O9 S1 1_555 1_555
C6 C3 1_555 1_555
H9 C6 1_555 1_555
O10 Nd1 1_555 1_555
N1 C2 1_555 1_555
H1A O1 1_555 1_555
O2F H2F 1_555 1_555
H3F O2F 1_555 1_555
O3F H4F 1_555 1_555
H5F O3F 1_555 1_555
O4F S1F 1_555 1_555
O5F C1F 1_555 1_555
O6F Nd1 1_555 1_555
C1F O6F 1_555 1_555
Nd1F O6 1_555 1_555
Nd1B O7 1_555 1_555
Nd1D O7 1_555 1_555
Nd1D_2 O7F 1_555 1_555
Nd1B_2 O7F 1_555 1_555
S1F O8F 1_555 1_555
O7F N1F 1_555 1_555
O7B Nd1 1_555 1_555
O7D Nd1 1_555 1_555
O7D_2 Nd1F 1_555 1_555
O7B_2 Nd1F 1_555 1_555
C2F H6F 1_555 1_555
C3F H7F 1_555 1_555
C4F C2F 1_555 1_555
H8F C4F 1_555 1_555
O8F Nd1 1_555 1_555
C5F C1F 1_555 1_555
O9F S1F 1_555 1_555
C6F C3F 1_555 1_555
H9F C6F 1_555 1_555
O10F Nd1F 1_555 1_555
N1F C2F 1_555 1_555
O3 Nd1 1_555 1_555
O5 Nd1 1_555 1_555
S1 O10 1_555 1_555
C3 N1 1_555 1_555
O8 Nd1F 1_555 1_555
C5 C6 1_555 1_555
O2F Nd1F 1_555 1_555
O3F Nd1F 1_555 1_555
O5F Nd1F 1_555 1_555
Nd1F O8F 1_555 1_555
S1F O10F 1_555 1_555
C3F N1F 1_555 1_555
C4F C5F 1_555 1_555
C5F C6F 1_555 1_555

#END
