
#######################################################################
#
#                 Cambridge Crystallographic Data Centre
#                                CCDC 
#
#######################################################################
#
# If this CIF has been generated from an entry in the Cambridge 
# Structural Database, then it will include bibliographic, chemical, 
# crystal, experimental, refinement or atomic coordinate data resulting 
# from the CCDC's data processing and validation procedures.
#
#######################################################################

data_DUWVOH
_symmetry_cell_setting           monoclinic
_symmetry_space_group_name_H-M   'P 21/m'
_symmetry_Int_Tables_number      11
_space_group_name_Hall           '-P 2yb'
loop_
_symmetry_equiv_pos_site_id
_symmetry_equiv_pos_as_xyz
1 x,y,z
2 -x,1/2+y,-z
3 -x,-y,-z
4 x,1/2-y,z
_cell_length_a                   9.8669(6)
_cell_length_b                   18.5627(11)
_cell_length_c                   15.1732(9)
_cell_angle_alpha                90
_cell_angle_beta                 102.1150(10)
_cell_angle_gamma                90
_cell_volume                     2717.17
loop_
_atom_site_label
_atom_site_type_symbol
_atom_site_fract_x
_atom_site_fract_y
_atom_site_fract_z
La1 La 0.027289(17) 0.470107(8) 0.873196(11)
S1 S 0.65561(12) 0.65094(7) 0.44822(9)
O1 O -0.1485(2) 0.44115(11) 0.71097(14)
O2 O 0.0408(2) 0.37733(11) 0.75952(15)
O3 O -0.1508(2) 0.38000(12) 0.89329(15)
O4 O -0.1500(2) 0.56430(11) 0.86421(15)
N1 N 0.1137(2) 0.55596(14) 0.75476(17)
N2 N 0.2881(3) 0.45504(14) 0.84640(18)
N3 N 0.4695(3) 0.60520(14) 0.57733(18)
N4 N 0.6060(2) 0.51654(13) 0.64615(17)
H1 H 0.6752 0.4875 0.6593
C1 C 0.0284(3) 0.60483(17) 0.7099(2)
H2 H -0.0582 0.6100 0.7243
C2 C 0.0598(3) 0.64883(19) 0.6430(2)
H3 H -0.0039 0.6826 0.6140
C3 C 0.1865(3) 0.64160(18) 0.6205(2)
H4 H 0.2100 0.6704 0.5758
C4 C 0.2805(3) 0.59036(16) 0.6655(2)
C5 C 0.4117(3) 0.57467(17) 0.6437(2)
C6 C 0.4941(3) 0.51992(16) 0.6864(2)
C7 C 0.4595(3) 0.47723(17) 0.7563(2)
C8 C 0.5395(3) 0.4197(2) 0.7992(2)
H5 H 0.6233 0.4077 0.7840
C9 C 0.4922(3) 0.3820(2) 0.8633(3)
H6 H 0.5427 0.3431 0.8919
C10 C 0.3676(3) 0.4018(2) 0.8860(3)
H7 H 0.3386 0.3762 0.9314
C11 C 0.3316(3) 0.49274(17) 0.7806(2)
C12 C 0.2402(3) 0.54810(16) 0.7331(2)
C13 C 0.5855(3) 0.56848(17) 0.5810(2)
C14 C 0.6816(3) 0.58042(18) 0.5214(2)
C15 C 0.7939(3) 0.53915(19) 0.5109(2)
H8 H 0.8239 0.4978 0.5438
C16 C 0.8573(4) 0.5686(2) 0.4429(3)
H9 H 0.9352 0.5486 0.4269
C17 C 0.7945(4) 0.6276(2) 0.4044(3)
H10 H 0.8233 0.6531 0.3588
C18 C -0.0824(3) 0.38229(16) 0.71462(19)
C19 C -0.1476(3) 0.31508(16) 0.6719(2)
C20 C -0.0879(4) 0.2500 0.7033(3)
H11 H -0.0057 0.2500 0.7466
C21 C -0.2683(3) 0.31491(17) 0.6049(2)
H12 H -0.3100 0.3582 0.5834
C22 C -0.3262(5) 0.2500 0.5704(3)
H13 H -0.4044 0.2500 0.5238
C23 C -0.1642(3) 0.38239(16) 0.9732(2)
C24 C -0.2049(3) 0.31500(15) 1.0148(2)
C25 C -0.1783(4) 0.2500 0.9762(3)
H14 H -0.1424 0.2500 0.9242
C26 C -0.2648(4) 0.31477(18) 1.0895(2)
H15 H -0.2831 0.3581 1.1155
C27 C -0.2975(5) 0.2500 1.1256(3)
H16 H -0.3415 0.2500 1.1742
C28 C -0.1684(3) 0.61476(16) 0.9165(2)
C29 C -0.2217(3) 0.68485(15) 0.8731(2)
C30 C -0.1869(4) 0.7500 0.9175(3)
H17 H -0.1399 0.7500 0.9774
C31 C -0.2988(3) 0.68541(17) 0.7852(2)
H18 H -0.3232 0.6421 0.7554
C32 C -0.3398(5) 0.7500 0.7415(3)
H19 H -0.3941 0.7500 0.6834
O5 O -0.1417(2) 0.61061(11) 1.00085(14)
O6 O -0.1398(2) 0.43920(12) 1.02051(16)
La1C La 0.027289(17) 0.029893(8) 0.873196(11)
La1B La -0.027289(17) 0.529893(8) 1.126804(11)
La1A La -0.027289(17) -0.029893(8) 1.126804(11)
La1C_2 La 0.027289(17) 1.029893(8) 0.873196(11)
La1A_2 La -0.027289(17) 0.970107(8) 1.126804(11)
S1C S 0.65561(12) -0.15094(7) 0.44822(9)
O1C O -0.1485(2) 0.05885(11) 0.71097(14)
O2C O 0.0408(2) 0.12267(11) 0.75952(15)
O3C O -0.1508(2) 0.12000(12) 0.89329(15)
O4C O -0.1500(2) 0.93570(11) 0.86421(15)
O4C_2 O -0.1500(2) -0.06430(11) 0.86421(15)
N1C N 0.1137(2) -0.05596(14) 0.75476(17)
N2C N 0.2881(3) 0.04496(14) 0.84640(18)
N3C N 0.4695(3) -0.10520(14) 0.57733(18)
N4C N 0.6060(2) -0.01654(13) 0.64615(17)
H1C H 0.6752 0.0125 0.6593
C1C C 0.0284(3) -0.10483(17) 0.7099(2)
H2C H -0.0582 -0.1100 0.7243
C2C C 0.0598(3) -0.14883(19) 0.6430(2)
H3C H -0.0039 -0.1826 0.6140
C3C C 0.1865(3) -0.14160(18) 0.6205(2)
H4C H 0.2100 -0.1704 0.5758
C4C C 0.2805(3) -0.09036(16) 0.6655(2)
C5C C 0.4117(3) -0.07467(17) 0.6437(2)
C6C C 0.4941(3) -0.01992(16) 0.6864(2)
C7C C 0.4595(3) 0.02277(17) 0.7563(2)
C8C C 0.5395(3) 0.0803(2) 0.7992(2)
H5C H 0.6233 0.0923 0.7840
C9C C 0.4922(3) 0.1180(2) 0.8633(3)
H6C H 0.5427 0.1569 0.8919
C10C C 0.3676(3) 0.0982(2) 0.8860(3)
H7C H 0.3386 0.1238 0.9314
C11C C 0.3316(3) 0.00726(17) 0.7806(2)
C12C C 0.2402(3) -0.04810(16) 0.7331(2)
C13C C 0.5855(3) -0.06848(17) 0.5810(2)
C14C C 0.6816(3) -0.08042(18) 0.5214(2)
C15C C 0.7939(3) -0.03915(19) 0.5109(2)
H8C H 0.8239 0.0022 0.5438
C16C C 0.8573(4) -0.0686(2) 0.4429(3)
H9C H 0.9352 -0.0486 0.4269
C17C C 0.7945(4) -0.1276(2) 0.4044(3)
H10C H 0.8233 -0.1531 0.3588
C18C C -0.0824(3) 0.11771(16) 0.71462(19)
C19C C -0.1476(3) 0.18492(16) 0.6719(2)
C21C C -0.2683(3) 0.18509(17) 0.6049(2)
H12C H -0.3100 0.1418 0.5834
C23C C -0.1642(3) 0.11761(16) 0.9732(2)
C24C C -0.2049(3) 0.18500(15) 1.0148(2)
C26C C -0.2648(4) 0.18523(18) 1.0895(2)
H15C H -0.2831 0.1419 1.1155
C28C C -0.1684(3) 0.88524(16) 0.9165(2)
C29C C -0.2217(3) 0.81515(15) 0.8731(2)
C31C C -0.2988(3) 0.81459(17) 0.7852(2)
H18C H -0.3232 0.8579 0.7554
O5C O -0.1417(2) 0.88939(11) 1.00085(14)
O5B O 0.1417(2) 0.38939(11) 0.99915(14)
O5A O 0.1417(2) 0.11061(11) 0.99915(14)
O6C O -0.1398(2) 0.06080(12) 1.02051(16)
O6B O 0.1398(2) 0.56080(12) 0.97949(16)
O6A O 0.1398(2) -0.06080(12) 0.97949(16)
O7 O 0.222(4) 0.2500 0.782(7)
H21 H 0.203(15) 0.210(5) 0.760(15)
H21C H 0.203(15) 0.290(5) 0.760(15)
H20? H 0.300(12) 0.2500 0.815(12)
loop_
_geom_bond_atom_site_label_1
_geom_bond_atom_site_label_2
_geom_bond_site_symmetry_1
_geom_bond_site_symmetry_2
La1 O1 1_555 1_555
S1 C14 1_555 1_555
O1 C18 1_555 1_555
O2 La1 1_555 1_555
O3 La1 1_555 1_555
O4 La1 1_555 1_555
N1 La1 1_555 1_555
N2 La1 1_555 1_555
N3 C5 1_555 1_555
N4 H1 1_555 1_555
C1 N1 1_555 1_555
H2 C1 1_555 1_555
C2 C1 1_555 1_555
H3 C2 1_555 1_555
C3 C2 1_555 1_555
H4 C3 1_555 1_555
C4 C3 1_555 1_555
C5 C4 1_555 1_555
C6 N4 1_555 1_555
C7 C6 1_555 1_555
C8 C7 1_555 1_555
H5 C8 1_555 1_555
C9 C8 1_555 1_555
H6 C9 1_555 1_555
C10 N2 1_555 1_555
H7 C10 1_555 1_555
C11 N2 1_555 1_555
C12 N1 1_555 1_555
C13 N3 1_555 1_555
C14 C13 1_555 1_555
C15 C14 1_555 1_555
H8 C15 1_555 1_555
C16 C15 1_555 1_555
H9 C16 1_555 1_555
C17 S1 1_555 1_555
H10 C17 1_555 1_555
C18 O2 1_555 1_555
C19 C18 1_555 1_555
C20 C19 1_555 1_555
H11 C20 1_555 1_555
C21 C19 1_555 1_555
H12 C21 1_555 1_555
C22 C21 1_555 1_555
H13 C22 1_555 1_555
C23 O3 1_555 1_555
C24 C23 1_555 1_555
C25 C24 1_555 1_555
H14 C25 1_555 1_555
C26 C24 1_555 1_555
H15 C26 1_555 1_555
C27 C26 1_555 1_555
H16 C27 1_555 1_555
C28 O4 1_555 1_555
C29 C28 1_555 1_555
C30 C29 1_555 1_555
H17 C30 1_555 1_555
C31 C29 1_555 1_555
H18 C31 1_555 1_555
C32 C31 1_555 1_555
H19 C32 1_555 1_555
O5 C28 1_555 1_555
O6 C23 1_555 1_555
O7 H21 1_555 1_555
La1C O1C 1_555 1_555
La1B O5 1_555 1_555
La1A O6C 1_555 1_555
La1C_2 O4C 1_555 1_555
La1A_2 O5C 1_555 1_555
S1C C14C 1_555 1_555
O1C C18C 1_555 1_555
O2C La1C 1_555 1_555
O3C La1C 1_555 1_555
O4C C28C 1_555 1_555
O4C_2 La1C 1_555 1_555
N1C La1C 1_555 1_555
N2C La1C 1_555 1_555
N3C C5C 1_555 1_555
N4C H1C 1_555 1_555
C1C N1C 1_555 1_555
H2C C1C 1_555 1_555
C2C C1C 1_555 1_555
H3C C2C 1_555 1_555
C3C C2C 1_555 1_555
H4C C3C 1_555 1_555
C4C C3C 1_555 1_555
C5C C4C 1_555 1_555
C6C N4C 1_555 1_555
C7C C6C 1_555 1_555
C8C C7C 1_555 1_555
H5C C8C 1_555 1_555
C9C C8C 1_555 1_555
H6C C9C 1_555 1_555
C10C N2C 1_555 1_555
H7C C10C 1_555 1_555
C11C N2C 1_555 1_555
C12C N1C 1_555 1_555
C13C N3C 1_555 1_555
C14C C13C 1_555 1_555
C15C C14C 1_555 1_555
H8C C15C 1_555 1_555
C16C C15C 1_555 1_555
H9C C16C 1_555 1_555
C17C S1C 1_555 1_555
H10C C17C 1_555 1_555
C18C O2C 1_555 1_555
C19C C20 1_555 1_555
C21C C22 1_555 1_555
H12C C21C 1_555 1_555
C23C O3C 1_555 1_555
C24C C25 1_555 1_555
C26C C27 1_555 1_555
H15C C26C 1_555 1_555
C28C C29C 1_555 1_555
C29C C30 1_555 1_555
C31C C32 1_555 1_555
H18C C31C 1_555 1_555
O5C C28C 1_555 1_555
O5B La1 1_555 1_555
O5A La1C 1_555 1_555
O6C C23C 1_555 1_555
O6B La1 1_555 1_555
O6A La1C 1_555 1_555
H21C O7 1_555 1_555
N4 C13 1_555 1_555
C4 C12 1_555 1_555
C5 C6 1_555 1_555
C7 C11 1_555 1_555
C9 C10 1_555 1_555
C11 C12 1_555 1_555
C16 C17 1_555 1_555
O6 La1B 1_555 1_555
N4C C13C 1_555 1_555
C4C C12C 1_555 1_555
C5C C6C 1_555 1_555
C7C C11C 1_555 1_555
C9C C10C 1_555 1_555
C11C C12C 1_555 1_555
C16C C17C 1_555 1_555
C18C C19C 1_555 1_555
C19C C21C 1_555 1_555
C23C C24C 1_555 1_555
C24C C26C 1_555 1_555
C29C C31C 1_555 1_555

#END
