
#######################################################################
#
#                 Cambridge Crystallographic Data Centre
#                                CCDC 
#
#######################################################################
#
# If this CIF has been generated from an entry in the Cambridge 
# Structural Database, then it will include bibliographic, chemical, 
# crystal, experimental, refinement or atomic coordinate data resulting 
# from the CCDC's data processing and validation procedures.
#
#######################################################################

data_DUWZIF
_symmetry_cell_setting           monoclinic
_symmetry_space_group_name_H-M   'P 21/c'
_symmetry_Int_Tables_number      14
_space_group_name_Hall           '-P 2ybc'
loop_
_symmetry_equiv_pos_site_id
_symmetry_equiv_pos_as_xyz
1 x,y,z
2 -x,1/2+y,1/2-z
3 -x,-y,-z
4 x,1/2-y,1/2+z
_cell_length_a                   9.888(5)
_cell_length_b                   16.539(8)
_cell_length_c                   13.508(7)
_cell_angle_alpha                90
_cell_angle_beta                 102.526(9)
_cell_angle_gamma                90
_cell_volume                     2156.49
loop_
_atom_site_label
_atom_site_type_symbol
_atom_site_fract_x
_atom_site_fract_y
_atom_site_fract_z
Mn1 Mn 0.55027(7) 0.13219(4) 0.70779(5)
Br1 Br 1.23966(7) 0.08182(4) 1.04926(5)
Br2 Br -0.03030(6) 0.18317(4) 0.26532(5)
O1 O 0.7340(3) 0.1015(2) 0.7097(2)
O2 O 0.4823(3) 0.09449(18) 0.5755(2)
N1 N 0.6041(4) 0.1788(2) 0.8465(3)
N2 N 0.3632(4) 0.1703(2) 0.7184(3)
N3 N 0.4948(5) 0.0135(3) 0.7786(4)
N4 N 0.3776(6) -0.0934(3) 0.8522(5)
N5 N 0.4121(5) -0.2383(3) 0.8495(3)
C1 C 0.8419(5) 0.0977(3) 0.7881(3)
C2 C 0.9615(5) 0.0596(3) 0.7734(4)
H1 H 0.9635 0.0377 0.7103
C3 C 1.0774(5) 0.0541(3) 0.8514(4)
H2 H 1.1564 0.0280 0.8408
C4 C 1.0763(6) 0.0875(3) 0.9454(4)
C5 C 0.9600(5) 0.1248(3) 0.9629(4)
H3 H 0.9603 0.1467 1.0263
C6 C 0.8400(5) 0.1300(3) 0.8850(3)
C7 C 0.7222(5) 0.1714(3) 0.9078(4)
H4 H 0.7326 0.1945 0.9718
C8 C 0.4926(6) 0.2276(3) 0.8738(4)
H5 H 0.4971 0.2828 0.8507
H6 H 0.5023 0.2281 0.9468
C9 C 0.3576(6) 0.1900(3) 0.8239(4)
H7 H 0.3419 0.1413 0.8598
H8 H 0.2823 0.2274 0.8248
C10 C 0.2586(5) 0.1788(3) 0.6440(4)
H9 H 0.1784 0.2010 0.6581
C11 C 0.2555(5) 0.1569(3) 0.5403(4)
C12 C 0.1357(5) 0.1745(3) 0.4648(4)
H10 H 0.0624 0.2023 0.4821
C13 C 0.1269(5) 0.1512(3) 0.3676(4)
C14 C 0.2313(5) 0.1061(3) 0.3393(4)
H11 H 0.2221 0.0886 0.2727
C15 C 0.3474(5) 0.0878(3) 0.4111(4)
H12 H 0.4169 0.0575 0.3922
C16 C 0.3654(5) 0.1131(3) 0.5119(3)
C17 C 0.4440(6) -0.0388(3) 0.8117(4)
C18 C 0.4009(5) -0.1700(4) 0.8467(4)
Mn1A Mn 0.44973(7) -0.36781(4) 0.79221(5)
N5A N 0.5879(5) 0.2617(3) 0.6505(3)
O3 O 0.8224(6) 0.1608(3) 0.5303(4)
H13 H 0.7878 0.1560 0.5799
C19 C 0.7835(9) 0.0931(6) 0.4636(6)
H14 H 0.8605 0.0567 0.4700
H15 H 0.7572 0.1119 0.3949
H16 H 0.7067 0.0654 0.4814
loop_
_geom_bond_atom_site_label_1
_geom_bond_atom_site_label_2
_geom_bond_site_symmetry_1
_geom_bond_site_symmetry_2
Mn1 O1 1_555 1_555
Br1 C4 1_555 1_555
Br2 C13 1_555 1_555
O1 C1 1_555 1_555
O2 Mn1 1_555 1_555
N1 Mn1 1_555 1_555
N2 Mn1 1_555 1_555
N3 Mn1 1_555 1_555
N4 C17 1_555 1_555
N5 C18 1_555 1_555
C1 C2 1_555 1_555
C2 H1 1_555 1_555
C3 C2 1_555 1_555
H2 C3 1_555 1_555
C4 C3 1_555 1_555
C5 C4 1_555 1_555
H3 C5 1_555 1_555
C6 C1 1_555 1_555
C7 N1 1_555 1_555
H4 C7 1_555 1_555
C8 N1 1_555 1_555
H5 C8 1_555 1_555
H6 C8 1_555 1_555
C9 N2 1_555 1_555
H7 C9 1_555 1_555
H8 C9 1_555 1_555
C10 N2 1_555 1_555
H9 C10 1_555 1_555
C11 C10 1_555 1_555
C12 C11 1_555 1_555
H10 C12 1_555 1_555
C13 C12 1_555 1_555
C14 C13 1_555 1_555
H11 C14 1_555 1_555
C15 C14 1_555 1_555
H12 C15 1_555 1_555
C16 O2 1_555 1_555
C17 N3 1_555 1_555
C18 N4 1_555 1_555
O3 H13 1_555 1_555
C19 O3 1_555 1_555
H14 C19 1_555 1_555
H15 C19 1_555 1_555
H16 C19 1_555 1_555
Mn1A N5 1_555 1_555
N5A Mn1 1_555 1_555
C5 C6 1_555 1_555
C6 C7 1_555 1_555
C8 C9 1_555 1_555
C11 C16 1_555 1_555
C15 C16 1_555 1_555

#END
