
#######################################################################
#
#                 Cambridge Crystallographic Data Centre
#                                CCDC 
#
#######################################################################
#
# If this CIF has been generated from an entry in the Cambridge 
# Structural Database, then it will include bibliographic, chemical, 
# crystal, experimental, refinement or atomic coordinate data resulting 
# from the CCDC's data processing and validation procedures.
#
#######################################################################

data_DUWZOL
_symmetry_cell_setting           monoclinic
_symmetry_space_group_name_H-M   'P 21'
_symmetry_Int_Tables_number      4
_space_group_name_Hall           'P 2yb'
loop_
_symmetry_equiv_pos_site_id
_symmetry_equiv_pos_as_xyz
1 x,y,z
2 -x,1/2+y,-z
_cell_length_a                   7.565(3)
_cell_length_b                   16.299(6)
_cell_length_c                   10.999(4)
_cell_angle_alpha                90
_cell_angle_beta                 96.842(6)
_cell_angle_gamma                90
_cell_volume                     1346.54
loop_
_atom_site_label
_atom_site_type_symbol
_atom_site_fract_x
_atom_site_fract_y
_atom_site_fract_z
Mn1 Mn -0.0459(3) 0.00703(13) 0.57987(17)
Br1 Br 0.4653(2) -0.05486(12) 0.88169(14)
Br2 Br 0.1679(3) 0.14270(12) 1.22853(13)
Br3 Br 0.3998(2) -0.1356(2) 0.38012(16)
Br4 Br -0.0800(2) -0.15471(11) -0.05820(13)
O1 O 0.1136(12) -0.0125(6) 0.7224(7)
O2 O 0.0980(13) -0.0379(7) 0.4682(8)
N1 N -0.2209(16) 0.0550(8) 0.6766(11)
N2 N -0.2371(17) 0.0344(8) 0.4419(11)
N3 N 0.076(2) 0.1354(10) 0.5637(14)
N4 N 0.2637(18) 0.2413(9) 0.4943(15)
N5 N 0.1857(19) 0.3781(10) 0.4144(16)
C1 C 0.1202(17) 0.0227(9) 0.8288(11)
C2 C 0.2723(17) 0.0105(10) 0.9187(11)
C3 C 0.286(2) 0.0480(12) 1.0364(13)
H1 H 0.3869 0.0404 1.0927
C4 C 0.148(2) 0.0956(10) 1.0640(13)
C5 C -0.010(2) 0.1078(11) 0.9863(16)
H2 H -0.1033 0.1385 1.0103
C6 C -0.0198(19) 0.0712(9) 0.8700(12)
C7 C -0.1885(19) 0.0823(10) 0.7910(12)
H3 H -0.2793 0.1105 0.8232
C8 C -0.4103(19) 0.0617(13) 0.6103(14)
H4 H -0.4719 0.0095 0.6097
H5 H -0.4788 0.1028 0.6480
C9 C -0.379(2) 0.0868(13) 0.4834(16)
H6 H -0.4876 0.0807 0.4280
H7 H -0.3427 0.1439 0.4832
C10 C -0.246(2) 0.0088(10) 0.3308(11)
H8 H -0.3451 0.0241 0.2770
C11 C -0.1099(19) -0.0437(10) 0.2826(12)
C12 C -0.1469(19) -0.0690(10) 0.1600(13)
H9 H -0.2528 -0.0536 0.1140
C13 C -0.0280(19) -0.1157(10) 0.1096(11)
C14 C 0.1350(19) -0.1361(11) 0.1712(12)
H10 H 0.2159 -0.1677 0.1342
C15 C 0.1751(19) -0.1079(10) 0.2910(13)
C16 C 0.0539(16) -0.0624(9) 0.3512(11)
C17 C 0.159(3) 0.1882(12) 0.5279(13)
C18 C 0.213(2) 0.3150(10) 0.4520(12)
Mn1A Mn 0.0459(3) 0.50703(13) 0.42013(17)
N5A N -0.1857(19) -0.1219(10) 0.5856(16)
N6 N 0.367(3) 0.6851(14) 0.842(2)
C19 C 0.312(3) 0.7330(15) 0.768(2)
C20 C 0.244(4) 0.7873(17) 0.672(2)
H11 H 0.1265 0.7697 0.6392
H12 H 0.3205 0.7866 0.6088
H13 H 0.2377 0.8419 0.7040
O3 O 0.458(3) 0.7066(14) 0.098(2)
H14 H 0.4281 0.7363 0.0392
C21 C 0.629(3) 0.7296(17) 0.154(3)
H15 H 0.6698 0.7759 0.1110
H16 H 0.7094 0.6845 0.1496
H17 H 0.6226 0.7439 0.2376
loop_
_geom_bond_atom_site_label_1
_geom_bond_atom_site_label_2
_geom_bond_site_symmetry_1
_geom_bond_site_symmetry_2
Mn1 O1 1_555 1_555
Br1 C2 1_555 1_555
Br2 C4 1_555 1_555
Br3 C15 1_555 1_555
Br4 C13 1_555 1_555
O1 C1 1_555 1_555
O2 Mn1 1_555 1_555
N1 Mn1 1_555 1_555
N2 Mn1 1_555 1_555
N3 Mn1 1_555 1_555
N4 C17 1_555 1_555
N5 C18 1_555 1_555
C1 C2 1_555 1_555
C2 C3 1_555 1_555
C3 H1 1_555 1_555
C4 C3 1_555 1_555
C5 C4 1_555 1_555
H2 C5 1_555 1_555
C6 C1 1_555 1_555
C7 N1 1_555 1_555
H3 C7 1_555 1_555
C8 N1 1_555 1_555
H4 C8 1_555 1_555
H5 C8 1_555 1_555
C9 N2 1_555 1_555
H6 C9 1_555 1_555
H7 C9 1_555 1_555
C10 N2 1_555 1_555
H8 C10 1_555 1_555
C11 C10 1_555 1_555
C12 C11 1_555 1_555
H9 C12 1_555 1_555
C13 C12 1_555 1_555
C14 C13 1_555 1_555
H10 C14 1_555 1_555
C15 C14 1_555 1_555
C16 O2 1_555 1_555
C17 N3 1_555 1_555
C18 N4 1_555 1_555
N6 C19 1_555 1_555
C19 C20 1_555 1_555
C20 H11 1_555 1_555
H12 C20 1_555 1_555
H13 C20 1_555 1_555
O3 H14 1_555 1_555
C21 O3 1_555 1_555
H15 C21 1_555 1_555
H16 C21 1_555 1_555
H17 C21 1_555 1_555
Mn1A N5 1_555 1_555
N5A Mn1 1_555 1_555
C5 C6 1_555 1_555
C6 C7 1_555 1_555
C8 C9 1_555 1_555
C11 C16 1_555 1_555
C15 C16 1_555 1_555

#END
