
#######################################################################
#
#                 Cambridge Crystallographic Data Centre
#                                CCDC 
#
#######################################################################
#
# If this CIF has been generated from an entry in the Cambridge 
# Structural Database, then it will include bibliographic, chemical, 
# crystal, experimental, refinement or atomic coordinate data resulting 
# from the CCDC's data processing and validation procedures.
#
#######################################################################

data_DUXJEM
_symmetry_cell_setting           monoclinic
_symmetry_space_group_name_H-M   'C 2/c'
_symmetry_Int_Tables_number      15
_space_group_name_Hall           '-C 2yn'
loop_
_symmetry_equiv_pos_site_id
_symmetry_equiv_pos_as_xyz
1 x,y,z
2 -x,y,1/2-z
3 1/2+x,1/2+y,z
4 1/2-x,1/2+y,1/2-z
5 -x,-y,-z
6 x,-y,1/2+z
7 1/2-x,1/2-y,-z
8 1/2+x,1/2-y,1/2+z
_cell_length_a                   21.5673(11)
_cell_length_b                   10.1496(5)
_cell_length_c                   16.1354(5)
_cell_angle_alpha                90
_cell_angle_beta                 94.849(3)
_cell_angle_gamma                90
_cell_volume                     3519.39
loop_
_atom_site_label
_atom_site_type_symbol
_atom_site_fract_x
_atom_site_fract_y
_atom_site_fract_z
Pb1 Pb 0.451360(11) 0.15757(2) 0.081676(14)
N1 N 0.5374(2) -0.0187(5) 0.1371(3)
N2 N 0.5705(3) 0.0053(5) 0.2131(3)
H1 H 0.5747 0.0865 0.2276
N3 N 0.3725(2) 0.3311(5) 0.0057(3)
N4 N 0.3575(2) 0.0665(5) -0.0234(3)
O1 O 0.4987(2) -0.1626(4) 0.0394(3)
O2 O 0.6259(2) -0.0502(4) 0.3329(3)
O3 O 0.5143(3) -0.6462(4) 0.1058(4)
O4 O 0.5754(3) -0.7151(5) 0.2174(4)
C1 C 0.5408(3) -0.3833(6) 0.1419(4)
H2 H 0.5172 -0.4028 0.0925
C2 C 0.5648(3) -0.4834(6) 0.1931(4)
C3 C 0.6003(3) -0.4540(6) 0.2670(4)
H3 H 0.6168 -0.5220 0.3005
C4 C 0.6112(3) -0.3243(5) 0.2910(4)
H4 H 0.6346 -0.3055 0.3406
C5 C 0.5870(2) -0.2226(5) 0.2406(3)
C6 C 0.5525(2) -0.2507(6) 0.1656(4)
C7 C 0.5285(3) -0.1403(5) 0.1123(4)
C8 C 0.5966(3) -0.0844(6) 0.2669(4)
C9 C 0.5512(3) -0.6277(6) 0.1703(5)
C10 C 0.3793(3) 0.4606(6) 0.0193(4)
H5 H 0.4128 0.4893 0.0548
C11 C 0.3384(4) 0.5546(7) -0.0175(5)
H6 H 0.3447 0.6436 -0.0060
C12 C 0.2890(4) 0.5151(7) -0.0707(5)
H7 H 0.2606 0.5765 -0.0940
C13 C 0.2818(3) 0.3798(7) -0.0897(4)
C14 C 0.2331(3) 0.3309(7) -0.1493(5)
H8 H 0.2041 0.3889 -0.1748
C15 C 0.2300(3) 0.2030(8) -0.1674(4)
H9 H 0.1995 0.1741 -0.2076
C16 C 0.2712(3) 0.1091(7) -0.1281(4)
C17 C 0.2692(3) -0.0278(7) -0.1451(5)
H10 H 0.2393 -0.0608 -0.1846
C18 C 0.3102(4) -0.1110(8) -0.1045(5)
H11 H 0.3101 -0.2001 -0.1181
C19 C 0.3531(3) -0.0616(6) -0.0417(5)
H12 H 0.3794 -0.1204 -0.0118
C20 C 0.3245(3) 0.2903(6) -0.0481(4)
C21 C 0.3174(3) 0.1505(6) -0.0663(4)
Pb1D Pb 0.548640(11) -0.15757(2) -0.081676(14)
Pb1A Pb 0.548640(11) 0.15757(2) 0.418324(14)
Pb1_2 Pb 0.451360(11) -0.84243(2) 0.081676(14)
O1D O 0.5013(2) 0.1626(4) -0.0394(3)
O2A O 0.3741(2) -0.0502(4) 0.1671(3)
O3_2 O 0.5143(3) 0.3538(4) 0.1058(4)
loop_
_geom_bond_atom_site_label_1
_geom_bond_atom_site_label_2
_geom_bond_site_symmetry_1
_geom_bond_site_symmetry_2
Pb1 N1 1_555 1_555
N1 N2 1_555 1_555
N2 H1 1_555 1_555
N3 Pb1 1_555 1_555
N4 Pb1 1_555 1_555
O1 C7 1_555 1_555
O2 C8 1_555 1_555
O3 C9 1_555 1_555
O4 C9 1_555 1_555
C1 H2 1_555 1_555
C2 C1 1_555 1_555
C3 C2 1_555 1_555
H3 C3 1_555 1_555
C4 C3 1_555 1_555
H4 C4 1_555 1_555
C5 C4 1_555 1_555
C6 C1 1_555 1_555
C7 N1 1_555 1_555
C8 N2 1_555 1_555
C9 C2 1_555 1_555
C10 N3 1_555 1_555
H5 C10 1_555 1_555
C11 C10 1_555 1_555
H6 C11 1_555 1_555
C12 C11 1_555 1_555
H7 C12 1_555 1_555
C13 C12 1_555 1_555
C14 C13 1_555 1_555
H8 C14 1_555 1_555
C15 C14 1_555 1_555
H9 C15 1_555 1_555
C16 C15 1_555 1_555
C17 C16 1_555 1_555
H10 C17 1_555 1_555
C18 C17 1_555 1_555
H11 C18 1_555 1_555
C19 N4 1_555 1_555
H12 C19 1_555 1_555
C20 N3 1_555 1_555
C21 N4 1_555 1_555
Pb1D O1 1_555 1_555
Pb1A O2 1_555 1_555
Pb1_2 O3 1_555 1_555
O1D Pb1 1_555 1_555
O2A Pb1 1_555 1_555
O3_2 Pb1 1_555 1_555
C5 C6 1_555 1_555
C5 C8 1_555 1_555
C6 C7 1_555 1_555
C13 C20 1_555 1_555
C16 C21 1_555 1_555
C18 C19 1_555 1_555
C20 C21 1_555 1_555

#END
