
#######################################################################
#
#                 Cambridge Crystallographic Data Centre
#                                CCDC 
#
#######################################################################
#
# If this CIF has been generated from an entry in the Cambridge 
# Structural Database, then it will include bibliographic, chemical, 
# crystal, experimental, refinement or atomic coordinate data resulting 
# from the CCDC's data processing and validation procedures.
#
#######################################################################

data_DUXLEO
_symmetry_cell_setting           monoclinic
_symmetry_space_group_name_H-M   'C 2/c'
_symmetry_Int_Tables_number      15
_space_group_name_Hall           '-C 2yn'
loop_
_symmetry_equiv_pos_site_id
_symmetry_equiv_pos_as_xyz
1 x,y,z
2 -x,y,1/2-z
3 1/2+x,1/2+y,z
4 1/2-x,1/2+y,1/2-z
5 -x,-y,-z
6 x,-y,1/2+z
7 1/2-x,1/2-y,-z
8 1/2+x,1/2-y,1/2+z
_cell_length_a                   15.678(3)
_cell_length_b                   13.571(3)
_cell_length_c                   15.234(3)
_cell_angle_alpha                90
_cell_angle_beta                 109.27(3)
_cell_angle_gamma                90
_cell_volume                     3059.68
loop_
_atom_site_label
_atom_site_type_symbol
_atom_site_fract_x
_atom_site_fract_y
_atom_site_fract_z
Zn1 Zn 0.831029(18) 0.650429(17) 1.028542(16)
N1 N 0.96126(13) 0.62561(13) 1.03910(12)
C1 C 1.01898(17) 0.60085(17) 1.12345(15)
H1 H 0.9947 0.5826 1.1699
O1 O 0.85244(10) 0.75064(10) 1.12868(9)
O2 O 0.71344(11) 0.81015(11) 1.10368(9)
C2 C 1.11021(17) 0.60078(18) 1.14515(16)
H2 H 1.1469 0.5829 1.2054
C3 C 1.15015(17) 0.62709(17) 1.07883(16)
O3 O 0.65244(13) 1.01485(12) 1.34875(12)
C4 C 1.08999(17) 0.64590(18) 0.99018(16)
H3 H 1.1124 0.6586 0.9412
O4 O 0.76889(13) 1.06610(12) 1.46610(11)
C5 C 0.99803(17) 0.64612(16) 0.97331(15)
H4 H 0.9595 0.6613 0.9131
C6 C 1.24768(18) 0.63382(18) 1.10118(17)
H6 H 1.2708 0.6353 1.0516
C7 C 1.30616(17) 0.63805(16) 1.18696(17)
H7 H 1.2807 0.6387 1.2348
C8 C 1.40451(17) 0.64182(16) 1.21712(17)
C9 C 1.45281(19) 0.64419(19) 1.31115(18)
H8 H 1.4213 0.6458 1.3540
C10 C 1.45432(19) 0.6442(2) 1.15635(18)
H9 H 1.4238 0.6459 1.0919
C11 C 0.82594(16) 0.84462(13) 1.24772(14)
C12 C 0.91512(17) 0.83405(16) 1.30593(16)
H10 H 0.9545 0.7937 1.2869
C13 C 0.94698(19) 0.88107(18) 1.39057(16)
H11 H 1.0075 0.8738 1.4287
C14 C 0.88769(18) 0.93971(17) 1.41862(15)
H12 H 0.9089 0.9737 1.4755
C15 C 0.79794(17) 0.94855(15) 1.36387(14)
C16 C 0.76714(16) 0.90055(14) 1.27869(14)
H13 H 0.7061 0.9059 1.2416
C17 C 0.79524(15) 0.79825(15) 1.15342(13)
C18 C 0.7336(2) 1.01286(16) 1.39354(16)
Zn1A Zn 2.168971(18) 0.650429(17) 1.471458(16)
Zn1F Zn 0.668971(18) 0.849571(17) 0.971458(16)
Zn1C Zn 0.668971(18) 1.150429(17) 1.471458(16)
Zn1E Zn 0.831029(18) 0.349571(17) 0.528542(16)
N1A N 2.03874(13) 0.62561(13) 1.46090(12)
C1A C 1.98102(17) 0.60085(17) 1.37655(15)
H1A H 2.0053 0.5826 1.3301
O1F O 0.64756(10) 0.74936(10) 0.87132(9)
O1A O 2.14756(10) 0.75064(10) 1.37132(9)
O2F O 0.78656(11) 0.68985(11) 0.89632(9)
O2G O 2.21344(11) 0.68985(11) 1.60368(9)
C2A C 1.88979(17) 0.60078(18) 1.35485(16)
H2A H 1.8531 0.5829 1.2946
C3A C 1.84985(17) 0.62709(17) 1.42117(16)
O3F O 0.84756(13) 0.48515(12) 0.65125(12)
C4A C 1.91001(17) 0.64590(18) 1.50982(16)
H3A H 1.8876 0.6586 1.5588
O4F O 0.73111(13) 0.43390(12) 0.53390(11)
O4C O 0.73111(13) 0.56610(12) 1.03390(11)
O4B O 2.26889(13) 0.56610(12) 1.46610(11)
C5A C 2.00197(17) 0.64612(16) 1.52669(15)
H4A H 2.0405 0.6613 1.5869
C6A C 1.75232(18) 0.63382(18) 1.39882(17)
H6A H 1.7292 0.6353 1.4484
C7A C 1.69384(17) 0.63805(16) 1.31304(17)
H7A H 1.7193 0.6387 1.2652
C8A C 1.59549(17) 0.64182(16) 1.28288(17)
C9A C 1.54719(19) 0.64419(19) 1.18885(18)
H8A H 1.5787 0.6458 1.1460
C10A C 1.54568(19) 0.6442(2) 1.34365(18)
H9A H 1.5762 0.6459 1.4081
C11F C 0.67406(16) 0.65538(13) 0.75228(14)
C12F C 0.58488(17) 0.66595(16) 0.69407(16)
H10F H 0.5455 0.7063 0.7131
C13F C 0.55302(19) 0.61893(18) 0.60943(16)
H11F H 0.4925 0.6262 0.5713
C14F C 0.61231(18) 0.56029(17) 0.58138(15)
H12F H 0.5911 0.5263 0.5245
C15F C 0.70206(17) 0.55145(15) 0.63613(14)
C16F C 0.73286(16) 0.59945(14) 0.72131(14)
H13F H 0.7939 0.5941 0.7584
C17F C 0.70476(15) 0.70175(15) 0.84658(13)
C18F C 0.7664(2) 0.48714(16) 0.60646(16)
O5 O 1.0000 0.6186(5) 0.7500
H5 H 1.0465(18) 0.590(3) 0.755(3)
H5A H 0.9535(18) 0.590(3) 0.745(3)
loop_
_geom_bond_atom_site_label_1
_geom_bond_atom_site_label_2
_geom_bond_site_symmetry_1
_geom_bond_site_symmetry_2
Zn1 N1 1_555 1_555
N1 C1 1_555 1_555
C1 H1 1_555 1_555
O1 Zn1 1_555 1_555
O2 C17 1_555 1_555
C2 C1 1_555 1_555
H2 C2 1_555 1_555
C3 C2 1_555 1_555
O3 C18 1_555 1_555
C4 C3 1_555 1_555
H3 C4 1_555 1_555
O4 C18 1_555 1_555
C5 N1 1_555 1_555
H4 C5 1_555 1_555
O5 H5 1_555 1_555
C6 C3 1_555 1_555
H6 C6 1_555 1_555
C7 C6 1_555 1_555
H7 C7 1_555 1_555
C8 C7 1_555 1_555
C9 C8 1_555 1_555
H8 C9 1_555 1_555
C10 C8 1_555 1_555
H9 C10 1_555 1_555
C11 C12 1_555 1_555
C12 H10 1_555 1_555
C13 C12 1_555 1_555
H11 C13 1_555 1_555
C14 C13 1_555 1_555
H12 C14 1_555 1_555
C15 C14 1_555 1_555
C16 C11 1_555 1_555
H13 C16 1_555 1_555
C17 O1 1_555 1_555
C18 C15 1_555 1_555
Zn1A N1A 1_555 1_555
Zn1F O2 1_555 1_555
Zn1C O4 1_555 1_555
Zn1E O4F 1_555 1_555
N1A C1A 1_555 1_555
C1A H1A 1_555 1_555
O1F Zn1F 1_555 1_555
O1A Zn1A 1_555 1_555
O2F Zn1 1_555 1_555
O2G Zn1A 1_555 1_555
C2A C1A 1_555 1_555
H2A C2A 1_555 1_555
C3A C2A 1_555 1_555
O3F C18F 1_555 1_555
C4A C3A 1_555 1_555
H3A C4A 1_555 1_555
O4F C18F 1_555 1_555
O4C Zn1 1_555 1_555
O4B Zn1A 1_555 1_555
C5A N1A 1_555 1_555
H4A C5A 1_555 1_555
H5A O5 1_555 1_555
C6A C3A 1_555 1_555
H6A C6A 1_555 1_555
C7A C6A 1_555 1_555
H7A C7A 1_555 1_555
C8A C7A 1_555 1_555
C9A C10 1_555 1_555
H8A C9A 1_555 1_555
C10A C9 1_555 1_555
H9A C10A 1_555 1_555
C11F C12F 1_555 1_555
C12F H10F 1_555 1_555
C13F C12F 1_555 1_555
H11F C13F 1_555 1_555
C14F C13F 1_555 1_555
H12F C14F 1_555 1_555
C15F C14F 1_555 1_555
C16F C11F 1_555 1_555
H13F C16F 1_555 1_555
C17F O1F 1_555 1_555
C18F C15F 1_555 1_555
C4 C5 1_555 1_555
C11 C17 1_555 1_555
C15 C16 1_555 1_555
O2F C17F 1_555 1_555
C4A C5A 1_555 1_555
C8A C9A 1_555 1_555
C8A C10A 1_555 1_555
C11F C17F 1_555 1_555
C15F C16F 1_555 1_555

#END
