
#######################################################################
#
#                 Cambridge Crystallographic Data Centre
#                                CCDC 
#
#######################################################################
#
# If this CIF has been generated from an entry in the Cambridge 
# Structural Database, then it will include bibliographic, chemical, 
# crystal, experimental, refinement or atomic coordinate data resulting 
# from the CCDC's data processing and validation procedures.
#
#######################################################################

data_DUXYOL
_symmetry_cell_setting           rhombohedral
_symmetry_space_group_name_H-M   'R -3'
_symmetry_Int_Tables_number      148
_space_group_name_Hall           '-R 3'
loop_
_symmetry_equiv_pos_site_id
_symmetry_equiv_pos_as_xyz
1 x,y,z
2 -y,x-y,z
3 -x+y,-x,z
4 2/3+x,1/3+y,1/3+z
5 2/3-y,1/3+x-y,1/3+z
6 2/3-x+y,1/3-x,1/3+z
7 1/3+x,2/3+y,2/3+z
8 1/3-y,2/3+x-y,2/3+z
9 1/3-x+y,2/3-x,2/3+z
10 -x,-y,-z
11 y,-x+y,-z
12 x-y,x,-z
13 1/3-x,2/3-y,2/3-z
14 1/3+y,2/3-x+y,2/3-z
15 1/3+x-y,2/3+x,2/3-z
16 2/3-x,1/3-y,1/3-z
17 2/3+y,1/3-x+y,1/3-z
18 2/3+x-y,1/3+x,1/3-z
_cell_length_a                   20.1966(6)
_cell_length_b                   20.1966(6)
_cell_length_c                   25.1389(15)
_cell_angle_alpha                90
_cell_angle_beta                 90
_cell_angle_gamma                120
_cell_volume                     8880.42
loop_
_atom_site_label
_atom_site_type_symbol
_atom_site_fract_x
_atom_site_fract_y
_atom_site_fract_z
Ag1 Ag 0.981397(13) -0.108017(9) 0.723067(7)
Ag2 Ag 1.260270(13) 0.194460(9) 0.670450(7)
O7 O 1.30754(12) 0.13834(8) 0.72099(6)
O8 O 1.24599(13) 0.13852(9) 0.79440(7)
O9 O 1.07822(18) -0.23519(13) 0.68086(9)
O10 O 1.03694(16) -0.19190(10) 0.61560(9)
N1 N 1.08240(14) -0.08844(10) 0.76315(7)
N2 N 1.20569(13) -0.04900(9) 0.77479(7)
N3 N 1.13640(14) 0.02393(10) 0.67060(7)
N4 N 1.19868(13) -0.03504(9) 0.64549(7)
C1 C 1.15168(16) -0.05253(11) 0.74034(8)
C2 C 1.16883(18) -0.08333(13) 0.82128(9)
H12 H 1.1913 -0.0888 0.8520
C3 C 1.09332(18) -0.10766(13) 0.81399(9)
H13 H 1.0551 -0.1331 0.8391
C4 C 1.16359(16) -0.02099(11) 0.68636(8)
C5 C 1.22386(18) -0.09220(13) 0.64348(9)
H14 H 1.2739 -0.0697 0.6269
H15 H 1.2281 -0.1073 0.6793
C6 C 1.15507(18) 0.03870(13) 0.61744(9)
H16 H 1.1432 0.0687 0.5958
C7 C 1.32017(17) 0.07449(12) 0.79674(9)
H17 H 1.3049 0.0666 0.8338
H18 H 1.3756 0.1026 0.7953
C8 C 1.28992(16) -0.00295(11) 0.76920(9)
H19 H 1.3133 -0.0301 0.7849
H20 H 1.3035 0.0049 0.7318
C9 C 1.28896(16) 0.12141(12) 0.76962(8)
C10 C 1.16660(17) -0.16306(12) 0.61160(9)
H21 H 1.1844 -0.1996 0.6101
H22 H 1.1633 -0.1481 0.5754
C11 C 1.08810(21) -0.19981(15) 0.63757(12)
C12 C 1.19344(18) 0.00282(13) 0.60145(8)
H23 H 1.2124 0.0037 0.5676
Ag1A Ag 1.108017(9) 0.089414(16) 0.723067(7)
Ag2B Ag 0.934190(16) -0.260270(13) 0.670450(7)
Ag2O Ag 1.406397(13) 0.138873(9) 0.662883(7)
O7O O 1.35913(12) 0.19499(8) 0.61234(6)
O10A O 1.19190(10) 0.22884(19) 0.61560(9)
N3B N 0.88753(17) -0.13640(14) 0.67060(7)
O1 O 0.25333(10) 0.51790(10) 0.54505(7)
H1 H 0.2371(18) 0.4803(15) 0.5198(11)
H2 H 0.2097(19) 0.512(3) 0.5619(18)
O2 O 0.35761(12) 0.50355(12) 0.61256(8)
H3 H 0.326(3) 0.508(3) 0.5875(18)
H4 H 0.339(3) 0.510(3) 0.6462(13)
O3 O 0.49797(12) 0.63523(12) 0.61709(8)
H5 H 0.4465(16) 0.594(2) 0.614(2)
H6 H 0.529(3) 0.613(3) 0.624(3)
O4 O 0.3333 0.6667 0.49972(14)
O5 O 0.33513(10) 0.36946(10) 0.44415(7)
H8 H 0.363(2) 0.397(2) 0.4147(12)
H9 H 0.3063(19) 0.393(2) 0.4501(16)
O6 O 0.63691(12) 0.45330(13) 0.81642(9)
H10 H 0.6022(16) 0.4043(12) 0.8245(14)
H11 H 0.621(3) 0.454(3) 0.7823(12)
H7? H 0.301(2) 0.6167(14) 0.5116(19)
loop_
_geom_bond_atom_site_label_1
_geom_bond_atom_site_label_2
_geom_bond_site_symmetry_1
_geom_bond_site_symmetry_2
Ag1 N1 1_555 1_555
Ag2 O7 1_555 1_555
O1 H1 1_555 1_555
H2 O1 1_555 1_555
O2 H3 1_555 1_555
H4 O2 1_555 1_555
O3 H5 1_555 1_555
H6 O3 1_555 1_555
O5 H8 1_555 1_555
H9 O5 1_555 1_555
O6 H10 1_555 1_555
H11 O6 1_555 1_555
O7 C9 1_555 1_555
O8 C9 1_555 1_555
O9 C11 1_555 1_555
O10 C11 1_555 1_555
N1 C1 1_555 1_555
N2 C1 1_555 1_555
N3 C4 1_555 1_555
N4 C4 1_555 1_555
C1 C4 1_555 1_555
C2 N2 1_555 1_555
H12 C2 1_555 1_555
C3 N1 1_555 1_555
H13 C3 1_555 1_555
C5 N4 1_555 1_555
H14 C5 1_555 1_555
H15 C5 1_555 1_555
C6 N3 1_555 1_555
H16 C6 1_555 1_555
C7 H17 1_555 1_555
H18 C7 1_555 1_555
C8 N2 1_555 1_555
H19 C8 1_555 1_555
H20 C8 1_555 1_555
C9 C7 1_555 1_555
C10 C5 1_555 1_555
H21 C10 1_555 1_555
H22 C10 1_555 1_555
C11 C10 1_555 1_555
C12 N4 1_555 1_555
H23 C12 1_555 1_555
Ag1A Ag2 1_555 1_555
Ag2B Ag1 1_555 1_555
Ag2O O7 1_555 1_555
O7O Ag2 1_555 1_555
O10A Ag2 1_555 1_555
N3B Ag1 1_555 1_555
O10 Ag2B 1_555 1_555
N3 Ag1A 1_555 1_555
C2 C3 1_555 1_555
C6 C12 1_555 1_555
C7 C8 1_555 1_555
Ag2O O7O 1_555 1_555

#END
