
#######################################################################
#
#                 Cambridge Crystallographic Data Centre
#                                CCDC 
#
#######################################################################
#
# If this CIF has been generated from an entry in the Cambridge 
# Structural Database, then it will include bibliographic, chemical, 
# crystal, experimental, refinement or atomic coordinate data resulting 
# from the CCDC's data processing and validation procedures.
#
#######################################################################

data_DUYBOP
_symmetry_cell_setting           monoclinic
_symmetry_space_group_name_H-M   'P 2/c'
_symmetry_Int_Tables_number      13
_space_group_name_Hall           '-P 2yc'
loop_
_symmetry_equiv_pos_site_id
_symmetry_equiv_pos_as_xyz
1 x,y,z
2 -x,y,1/2-z
3 -x,-y,-z
4 x,-y,1/2+z
_cell_length_a                   13.287(2)
_cell_length_b                   11.6791(18)
_cell_length_c                   16.141(3)
_cell_angle_alpha                90
_cell_angle_beta                 90.408(2)
_cell_angle_gamma                90
_cell_volume                     2504.7
loop_
_atom_site_label
_atom_site_type_symbol
_atom_site_fract_x
_atom_site_fract_y
_atom_site_fract_z
Mn1 Mn 0.38062(3) 0.08511(3) 0.34957(2)
Mn2 Mn 0.0000 -0.00926(4) 0.2500
O1 O 0.06927(12) -0.02340(16) 0.37023(10)
O2 O 0.21650(12) 0.06678(15) 0.36165(11)
O3 O 0.37110(13) 0.10225(15) 0.48167(10)
O4 O 0.26137(15) 0.12409(16) 0.58378(11)
O5 O 0.45923(14) -0.08553(18) 0.62973(12)
O6 O 0.33607(14) -0.10202(17) 0.72035(11)
O7 O 0.1936(2) -0.4633(2) 0.55993(18)
O8 O 0.1154(3) -0.4269(2) 0.4499(2)
N1 N 0.1674(2) -0.3975(2) 0.50600(18)
N2 N 0.0000 -0.2066(2) 0.2500
N3 N 0.0000 -0.8138(2) 0.2500
N4 N 0.38388(17) 0.28257(19) 0.34383(14)
N5 N 0.39617(16) 0.89113(18) 0.33610(13)
C1 C 0.19896(17) -0.0887(2) 0.45753(14)
C2 C 0.26741(16) -0.0553(2) 0.51946(13)
C3 C 0.29892(17) -0.1355(2) 0.57963(13)
C4 C 0.26493(19) -0.2476(2) 0.57560(15)
H1 H 0.2851 -0.3010 0.6151
C5 C 0.2008(2) -0.2782(2) 0.51209(16)
C6 C 0.16578(19) -0.2014(2) 0.45398(15)
H2 H 0.1206 -0.2246 0.4130
C7 C 0.15890(17) -0.0074(2) 0.39165(14)
C8 C 0.30266(17) 0.0676(2) 0.52815(14)
C9 C 0.37159(17) -0.10367(18) 0.64894(14)
C10 C -0.0518(2) -0.2669(2) 0.30538(19)
H3 H -0.0891 -0.2270 0.3444
C11 C -0.0533(2) -0.3850(2) 0.3082(2)
H4 H -0.0898 -0.4227 0.3489
C12 C 0.0000 -0.4471(3) 0.2500
C13 C 0.0000 -0.5739(3) 0.2500
C14 C 0.0107(2) -0.6358(2) 0.32317(18)
H5 H 0.0182 -0.5980 0.3736
C15 C 0.0099(2) -0.7548(2) 0.31997(18)
H6 H 0.0168 -0.7951 0.3694
C16 C 0.3079(2) 0.3441(3) 0.3124(2)
H7 H 0.2520 0.3051 0.2921
C17 C 0.3077(2) 0.4623(3) 0.3083(2)
H8 H 0.2528 0.5007 0.2855
C18 C 0.3897(2) 0.5234(2) 0.33840(17)
C19 C 0.4686(2) 0.4599(3) 0.3710(2)
H9 H 0.5256 0.4964 0.3917
C20 C 0.4620(2) 0.3423(3) 0.3725(2)
H10 H 0.5159 0.3018 0.3950
C21 C 0.3529(2) 0.8308(2) 0.27467(17)
H11 H 0.3233 0.8710 0.2311
C22 C 0.3496(2) 0.7132(2) 0.27238(18)
H12 H 0.3186 0.6758 0.2282
C23 C 0.3930(2) 0.6505(2) 0.33638(16)
C24 C 0.4405(2) 0.7125(2) 0.39871(17)
H13 H 0.4724 0.6743 0.4421
C25 C 0.4406(2) 0.8308(2) 0.39644(17)
H14 H 0.4732 0.8703 0.4389
O9 O -0.14469(13) -0.00357(16) 0.30823(12)
H15 H -0.1842 0.0321 0.2788
H16 H -0.1729 -0.0393 0.3455
Mn1A Mn -0.38062(3) 0.08511(3) 0.15043(2)
Mn1_2 Mn 0.38062(3) 1.08511(3) 0.34957(2)
Mn1A_2 Mn -0.38062(3) 1.08511(3) 0.15043(2)
Mn1B Mn -0.38062(3) -0.08511(3) -0.34957(2)
Mn1B_2 Mn 0.61938(3) -0.08511(3) 0.65043(2)
Mn1C Mn -0.61938(3) -0.08511(3) -0.15043(2)
Mn1C_2 Mn 0.38062(3) -0.08511(3) 0.84957(2)
Mn2_2 Mn 0.0000 -1.00926(4) 0.2500
O1A O -0.06927(12) -0.02340(16) 0.12977(10)
O2A O -0.21650(12) 0.06678(15) 0.13835(11)
O3A O -0.37110(13) 0.10225(15) 0.01833(10)
O4A O -0.26137(15) 0.12409(16) -0.08378(11)
O5A O -0.45923(14) -0.08553(18) -0.12973(12)
O5B O 0.54077(14) 0.08553(18) 0.37027(12)
O5C O -0.54077(14) 0.08553(18) 0.12973(12)
O6A O -0.33607(14) -0.10202(17) -0.22035(11)
O6B O -0.33607(14) 0.10202(17) 0.27965(11)
O6C O 0.33607(14) 0.10202(17) 0.22035(11)
O7A O -0.1936(2) -0.4633(2) -0.05993(18)
O8A O -0.1154(3) -0.4269(2) 0.0501(2)
N1A N -0.1674(2) -0.3975(2) -0.00600(18)
N3_2 N 0.0000 0.1862(2) 0.2500
N4A N -0.38388(17) 0.28257(19) 0.15617(14)
N5A N -0.39617(16) 0.89113(18) 0.16390(13)
N5_2 N 0.39617(16) -0.10887(18) 0.33610(13)
N5A_2 N -0.39617(16) -0.10887(18) 0.16390(13)
C1A C -0.19896(17) -0.0887(2) 0.04247(14)
C2A C -0.26741(16) -0.0553(2) -0.01946(13)
C3A C -0.29892(17) -0.1355(2) -0.07963(13)
C4A C -0.26493(19) -0.2476(2) -0.07560(15)
H1A H -0.2851 -0.3010 -0.1151
C5A C -0.2008(2) -0.2782(2) -0.01209(16)
C6A C -0.16578(19) -0.2014(2) 0.04602(15)
H2A H -0.1206 -0.2246 0.0870
C7A C -0.15890(17) -0.0074(2) 0.10835(14)
C8A C -0.30266(17) 0.0676(2) -0.02815(14)
C9A C -0.37159(17) -0.10367(18) -0.14894(14)
C10A C 0.0518(2) -0.2669(2) 0.19462(19)
H3A H 0.0891 -0.2270 0.1556
C11A C 0.0533(2) -0.3850(2) 0.1918(2)
H4A H 0.0898 -0.4227 0.1511
C14A C -0.0107(2) -0.6358(2) 0.17683(18)
H5A H -0.0182 -0.5980 0.1264
C15A C -0.0099(2) -0.7548(2) 0.18003(18)
H6A H -0.0168 -0.7951 0.1306
C16A C -0.3079(2) 0.3441(3) 0.1876(2)
H7A H -0.2520 0.3051 0.2079
C17A C -0.3077(2) 0.4623(3) 0.1917(2)
H8A H -0.2528 0.5007 0.2145
C18A C -0.3897(2) 0.5234(2) 0.16160(17)
C19A C -0.4686(2) 0.4599(3) 0.1290(2)
H9A H -0.5256 0.4964 0.1083
C20A C -0.4620(2) 0.3423(3) 0.1275(2)
H10A H -0.5159 0.3018 0.1050
C21A C -0.3529(2) 0.8308(2) 0.22533(17)
H11A H -0.3233 0.8710 0.2689
C22A C -0.3496(2) 0.7132(2) 0.22762(18)
H12A H -0.3186 0.6758 0.2718
C23A C -0.3930(2) 0.6505(2) 0.16362(16)
C24A C -0.4405(2) 0.7125(2) 0.10129(17)
H13A H -0.4724 0.6743 0.0579
C25A C -0.4406(2) 0.8308(2) 0.10356(17)
H14A H -0.4732 0.8703 0.0611
O9A O 0.14469(13) -0.00357(16) 0.19177(12)
H15A H 0.1842 0.0321 0.2212
H16A H 0.1729 -0.0393 0.1545
O10 O 0.6671(3) 0.3603(3) 0.9359(3)
H17 H 0.6690 0.2878 0.9355
H18 H 0.7254 0.3845 0.9458
loop_
_geom_bond_atom_site_label_1
_geom_bond_atom_site_label_2
_geom_bond_site_symmetry_1
_geom_bond_site_symmetry_2
Mn1 O2 1_555 1_555
Mn2 O1 1_555 1_555
O1 C7 1_555 1_555
O2 C7 1_555 1_555
O3 Mn1 1_555 1_555
O4 C8 1_555 1_555
O5 C9 1_555 1_555
O6 C9 1_555 1_555
O7 N1 1_555 1_555
O8 N1 1_555 1_555
N1 C5 1_555 1_555
N2 Mn2 1_555 1_555
N3 C15 1_555 1_555
N4 Mn1 1_555 1_555
N5 C21 1_555 1_555
C1 C2 1_555 1_555
C2 C3 1_555 1_555
C3 C4 1_555 1_555
C4 H1 1_555 1_555
C5 C4 1_555 1_555
C6 C1 1_555 1_555
H2 C6 1_555 1_555
C7 C1 1_555 1_555
C8 O3 1_555 1_555
C9 C3 1_555 1_555
C10 N2 1_555 1_555
H3 C10 1_555 1_555
C11 C10 1_555 1_555
H4 C11 1_555 1_555
C12 C11 1_555 1_555
C13 C12 1_555 1_555
C14 C13 1_555 1_555
H5 C14 1_555 1_555
C15 C14 1_555 1_555
H6 C15 1_555 1_555
C16 N4 1_555 1_555
H7 C16 1_555 1_555
C17 C16 1_555 1_555
H8 C17 1_555 1_555
C18 C17 1_555 1_555
C19 C18 1_555 1_555
H9 C19 1_555 1_555
C20 N4 1_555 1_555
H10 C20 1_555 1_555
C21 H11 1_555 1_555
C22 C21 1_555 1_555
H12 C22 1_555 1_555
C23 C18 1_555 1_555
C24 C23 1_555 1_555
H13 C24 1_555 1_555
C25 N5 1_555 1_555
H14 C25 1_555 1_555
O9 Mn2 1_555 1_555
H15 O9 1_555 1_555
H16 O9 1_555 1_555
O10 H17 1_555 1_555
H18 O10 1_555 1_555
Mn1A O2A 1_555 1_555
Mn1_2 N5 1_555 1_555
Mn1A_2 N5A 1_555 1_555
Mn1B O6A 1_555 1_555
Mn1B_2 O5 1_555 1_555
Mn1C O5A 1_555 1_555
Mn1C_2 O6 1_555 1_555
Mn2_2 N3 1_555 1_555
O1A Mn2 1_555 1_555
O2A C7A 1_555 1_555
O3A Mn1A 1_555 1_555
O4A C8A 1_555 1_555
O5A C9A 1_555 1_555
O5B Mn1 1_555 1_555
O5C Mn1A 1_555 1_555
O6A C9A 1_555 1_555
O6B Mn1A 1_555 1_555
O6C Mn1 1_555 1_555
O7A N1A 1_555 1_555
O8A N1A 1_555 1_555
N1A C5A 1_555 1_555
N3_2 Mn2 1_555 1_555
N4A Mn1A 1_555 1_555
N5A C21A 1_555 1_555
N5_2 Mn1 1_555 1_555
N5A_2 Mn1A 1_555 1_555
C1A C2A 1_555 1_555
C2A C3A 1_555 1_555
C3A C4A 1_555 1_555
C4A H1A 1_555 1_555
C5A C4A 1_555 1_555
C6A C1A 1_555 1_555
H2A C6A 1_555 1_555
C7A O1A 1_555 1_555
C8A O3A 1_555 1_555
C9A C3A 1_555 1_555
C10A N2 1_555 1_555
H3A C10A 1_555 1_555
C11A C12 1_555 1_555
H4A C11A 1_555 1_555
C14A C13 1_555 1_555
H5A C14A 1_555 1_555
C15A N3 1_555 1_555
H6A C15A 1_555 1_555
C16A N4A 1_555 1_555
H7A C16A 1_555 1_555
C17A C16A 1_555 1_555
H8A C17A 1_555 1_555
C18A C17A 1_555 1_555
C19A C18A 1_555 1_555
H9A C19A 1_555 1_555
C20A N4A 1_555 1_555
H10A C20A 1_555 1_555
C21A H11A 1_555 1_555
C22A C21A 1_555 1_555
H12A C22A 1_555 1_555
C23A C18A 1_555 1_555
C24A C23A 1_555 1_555
H13A C24A 1_555 1_555
C25A N5A 1_555 1_555
H14A C25A 1_555 1_555
O9A Mn2 1_555 1_555
H15A O9A 1_555 1_555
H16A O9A 1_555 1_555
C2 C8 1_555 1_555
C5 C6 1_555 1_555
C19 C20 1_555 1_555
C22 C23 1_555 1_555
C24 C25 1_555 1_555
C1A C7A 1_555 1_555
C2A C8A 1_555 1_555
C5A C6A 1_555 1_555
C10A C11A 1_555 1_555
C14A C15A 1_555 1_555
C19A C20A 1_555 1_555
C22A C23A 1_555 1_555
C24A C25A 1_555 1_555

#END
