
#######################################################################
#
#                 Cambridge Crystallographic Data Centre
#                                CCDC 
#
#######################################################################
#
# If this CIF has been generated from an entry in the Cambridge 
# Structural Database, then it will include bibliographic, chemical, 
# crystal, experimental, refinement or atomic coordinate data resulting 
# from the CCDC's data processing and validation procedures.
#
#######################################################################

data_DUYTOH
_symmetry_cell_setting           monoclinic
_symmetry_space_group_name_H-M   'C 2/c'
_symmetry_Int_Tables_number      15
_space_group_name_Hall           '-C 2yn'
loop_
_symmetry_equiv_pos_site_id
_symmetry_equiv_pos_as_xyz
1 x,y,z
2 -x,y,1/2-z
3 1/2+x,1/2+y,z
4 1/2-x,1/2+y,1/2-z
5 -x,-y,-z
6 x,-y,1/2+z
7 1/2-x,1/2-y,-z
8 1/2+x,1/2-y,1/2+z
_cell_length_a                   19.9086(16)
_cell_length_b                   14.5963(12)
_cell_length_c                   17.3028(15)
_cell_angle_alpha                90
_cell_angle_beta                 91.450(2)
_cell_angle_gamma                90
_cell_volume                     5026.44
loop_
_atom_site_label
_atom_site_type_symbol
_atom_site_fract_x
_atom_site_fract_y
_atom_site_fract_z
Zn1 Zn 0.0000 -0.05163(3) 0.2500
N1 N -0.06396(10) -0.16000(13) 0.30147(11)
N2 N -0.15988(11) -0.31021(15) 0.51447(12)
N3 N -0.17945(11) -0.31105(14) 0.59181(12)
N4 N -0.03233(11) -0.40400(14) 0.59893(13)
N5 N -0.02133(11) -0.31328(14) 0.62556(13)
N6 N 0.06107(10) -0.05648(13) 0.69974(11)
C1 C -0.08208(12) -0.16370(16) 0.37539(14)
H1 H -0.0680 -0.1168 0.4084
C2 C -0.08540(13) -0.22762(17) 0.25485(15)
H2 H -0.0737 -0.2258 0.2032
C3 C -0.12382(15) -0.29956(19) 0.27949(16)
H3 H -0.1372 -0.3457 0.2453
C4 C -0.14218(14) -0.30228(18) 0.35525(16)
H4 H -0.1689 -0.3498 0.3729
C5 C -0.12067(12) -0.23358(16) 0.40551(14)
C6 C -0.13817(13) -0.23636(18) 0.48744(15)
H5 H -0.1333 -0.1847 0.5185
C7 C -0.14921(12) -0.37127(16) 0.63344(14)
C8 C -0.17197(12) -0.39026(16) 0.71220(14)
C9 C -0.23629(13) -0.36643(18) 0.73420(15)
H6 H -0.2644 -0.3341 0.7002
C10 C -0.25858(15) -0.3906(2) 0.80608(17)
H7 H -0.3017 -0.3742 0.8204
C11 C -0.21796(19) -0.4384(2) 0.85681(17)
H8 H -0.2336 -0.4552 0.9050
C12 C -0.15429(18) -0.46142(19) 0.83628(17)
H9 H -0.1263 -0.4927 0.8711
C13 C -0.13132(14) -0.43844(17) 0.76437(15)
H10 H -0.0882 -0.4554 0.7506
C14 C -0.09358(13) -0.42975(16) 0.60382(14)
C15 C -0.10999(13) -0.52636(16) 0.58331(14)
C16 C -0.17602(13) -0.55313(18) 0.57089(15)
H11 H -0.2102 -0.5100 0.5739
C17 C -0.19175(15) -0.6438(2) 0.55391(16)
H12 H -0.2362 -0.6609 0.5444
C18 C -0.14179(17) -0.70775(19) 0.55128(16)
H13 H -0.1523 -0.7688 0.5415
C19 C -0.07627(16) -0.68211(19) 0.56296(15)
H14 H -0.0423 -0.7256 0.5599
C20 C -0.06013(14) -0.59207(18) 0.57921(15)
H15 H -0.0154 -0.5755 0.5875
C21 C 0.04068(13) -0.29376(16) 0.61983(14)
H16 H 0.0685 -0.3364 0.5966
C22 C 0.07072(12) -0.20774(16) 0.64777(14)
C23 C 0.03387(12) -0.13177(17) 0.66811(14)
H17 H -0.0124 -0.1330 0.6593
C24 C 0.12782(13) -0.05458(18) 0.70992(15)
H18 H 0.1475 -0.0027 0.7321
C25 C 0.16858(13) -0.12567(19) 0.68915(16)
H19 H 0.2149 -0.1216 0.6964
C26 C 0.13980(13) -0.20286(18) 0.65757(15)
H20 H 0.1666 -0.2517 0.6428
S1 S 0.12709(5) -0.03091(6) 0.49231(5)
C27 C 0.08786(13) -0.04299(16) 0.40914(15)
N7 N 0.06123(11) -0.05272(14) 0.34960(12)
Zn1D Zn 0.0000 0.05163(3) -0.2500
Zn1D_2 Zn 0.0000 0.05163(3) 0.7500
N1A N 0.06396(10) -0.16000(13) 0.19853(11)
N2A N 0.15988(11) -0.31021(15) -0.01447(12)
N3A N 0.17945(11) -0.31105(14) -0.09181(12)
N4A N 0.03233(11) -0.40400(14) -0.09893(13)
N5A N 0.02133(11) -0.31328(14) -0.12556(13)
N6A N -0.06107(10) -0.05648(13) -0.19974(11)
N6D N -0.06107(10) 0.05648(13) 0.30026(11)
N6E N 0.06107(10) 0.05648(13) 0.19974(11)
C1A C 0.08208(12) -0.16370(16) 0.12461(14)
H1A H 0.0680 -0.1168 0.0916
C2A C 0.08540(13) -0.22762(17) 0.24515(15)
H2A H 0.0737 -0.2258 0.2968
C3A C 0.12382(15) -0.29956(19) 0.22051(16)
H3A H 0.1372 -0.3457 0.2547
C4A C 0.14218(14) -0.30228(18) 0.14475(16)
H4A H 0.1689 -0.3498 0.1271
C5A C 0.12067(12) -0.23358(16) 0.09449(14)
C6A C 0.13817(13) -0.23636(18) 0.01256(15)
H5A H 0.1333 -0.1847 -0.0185
C7A C 0.14921(12) -0.37127(16) -0.13344(14)
C8A C 0.17197(12) -0.39026(16) -0.21220(14)
C9A C 0.23629(13) -0.36643(18) -0.23420(15)
H6A H 0.2644 -0.3341 -0.2002
C10A C 0.25858(15) -0.3906(2) -0.30608(17)
H7A H 0.3017 -0.3742 -0.3204
C11A C 0.21796(19) -0.4384(2) -0.35681(17)
H8A H 0.2336 -0.4552 -0.4050
C12A C 0.15429(18) -0.46142(19) -0.33628(17)
H9A H 0.1263 -0.4927 -0.3711
C13A C 0.13132(14) -0.43844(17) -0.26437(15)
H10A H 0.0882 -0.4554 -0.2506
C14A C 0.09358(13) -0.42975(16) -0.10382(14)
C15A C 0.10999(13) -0.52636(16) -0.08331(14)
C16A C 0.17602(13) -0.55313(18) -0.07089(15)
H11A H 0.2102 -0.5100 -0.0739
C17A C 0.19175(15) -0.6438(2) -0.05391(16)
H12A H 0.2362 -0.6609 -0.0444
C18A C 0.14179(17) -0.70775(19) -0.05128(16)
H13A H 0.1523 -0.7688 -0.0415
C19A C 0.07627(16) -0.68211(19) -0.06296(15)
H14A H 0.0423 -0.7256 -0.0599
C20A C 0.06013(14) -0.59207(18) -0.07921(15)
H15A H 0.0154 -0.5755 -0.0875
C21A C -0.04068(13) -0.29376(16) -0.11983(14)
H16A H -0.0685 -0.3364 -0.0966
C22A C -0.07072(12) -0.20774(16) -0.14777(14)
C23A C -0.03387(12) -0.13177(17) -0.16811(14)
H17A H 0.0124 -0.1330 -0.1593
C24A C -0.12782(13) -0.05458(18) -0.20992(15)
H18A H -0.1475 -0.0027 -0.2321
C25A C -0.16858(13) -0.12567(19) -0.18915(16)
H19A H -0.2149 -0.1216 -0.1964
C26A C -0.13980(13) -0.20286(18) -0.15757(15)
H20A H -0.1666 -0.2517 -0.1428
S1A S -0.12709(5) -0.03091(6) 0.00769(5)
C27A C -0.08786(13) -0.04299(16) 0.09086(15)
N7A N -0.06123(11) -0.05272(14) 0.15040(12)
loop_
_geom_bond_atom_site_label_1
_geom_bond_atom_site_label_2
_geom_bond_site_symmetry_1
_geom_bond_site_symmetry_2
Zn1 N1 1_555 1_555
N1 C1 1_555 1_555
N2 N3 1_555 1_555
N3 C7 1_555 1_555
N4 N5 1_555 1_555
N5 C21 1_555 1_555
N6 C23 1_555 1_555
C1 H1 1_555 1_555
C2 N1 1_555 1_555
H2 C2 1_555 1_555
C3 C2 1_555 1_555
H3 C3 1_555 1_555
C4 C3 1_555 1_555
H4 C4 1_555 1_555
C5 C1 1_555 1_555
C6 N2 1_555 1_555
H5 C6 1_555 1_555
C7 C8 1_555 1_555
C8 C9 1_555 1_555
C9 H6 1_555 1_555
C10 C9 1_555 1_555
H7 C10 1_555 1_555
C11 C10 1_555 1_555
H8 C11 1_555 1_555
C12 C11 1_555 1_555
H9 C12 1_555 1_555
C13 C8 1_555 1_555
H10 C13 1_555 1_555
C14 N4 1_555 1_555
C15 C14 1_555 1_555
C16 C15 1_555 1_555
H11 C16 1_555 1_555
C17 C16 1_555 1_555
H12 C17 1_555 1_555
C18 C17 1_555 1_555
H13 C18 1_555 1_555
C19 C18 1_555 1_555
H14 C19 1_555 1_555
C20 C15 1_555 1_555
H15 C20 1_555 1_555
C21 H16 1_555 1_555
C22 C21 1_555 1_555
C23 C22 1_555 1_555
H17 C23 1_555 1_555
C24 N6 1_555 1_555
H18 C24 1_555 1_555
C25 C24 1_555 1_555
H19 C25 1_555 1_555
C26 C22 1_555 1_555
H20 C26 1_555 1_555
S1 C27 1_555 1_555
C27 N7 1_555 1_555
N7 Zn1 1_555 1_555
Zn1D N6A 1_555 1_555
Zn1D_2 N6 1_555 1_555
N1A Zn1 1_555 1_555
N2A N3A 1_555 1_555
N3A C7A 1_555 1_555
N4A N5A 1_555 1_555
N5A C21A 1_555 1_555
N6A C23A 1_555 1_555
N6D Zn1 1_555 1_555
N6E Zn1 1_555 1_555
C1A N1A 1_555 1_555
H1A C1A 1_555 1_555
C2A N1A 1_555 1_555
H2A C2A 1_555 1_555
C3A C2A 1_555 1_555
H3A C3A 1_555 1_555
C4A C3A 1_555 1_555
H4A C4A 1_555 1_555
C5A C1A 1_555 1_555
C6A N2A 1_555 1_555
H5A C6A 1_555 1_555
C7A C8A 1_555 1_555
C8A C9A 1_555 1_555
C9A H6A 1_555 1_555
C10A C9A 1_555 1_555
H7A C10A 1_555 1_555
C11A C10A 1_555 1_555
H8A C11A 1_555 1_555
C12A C11A 1_555 1_555
H9A C12A 1_555 1_555
C13A C8A 1_555 1_555
H10A C13A 1_555 1_555
C14A N4A 1_555 1_555
C15A C14A 1_555 1_555
C16A C15A 1_555 1_555
H11A C16A 1_555 1_555
C17A C16A 1_555 1_555
H12A C17A 1_555 1_555
C18A C17A 1_555 1_555
H13A C18A 1_555 1_555
C19A C18A 1_555 1_555
H14A C19A 1_555 1_555
C20A C15A 1_555 1_555
H15A C20A 1_555 1_555
C21A H16A 1_555 1_555
C22A C21A 1_555 1_555
C23A C22A 1_555 1_555
H17A C23A 1_555 1_555
C24A N6A 1_555 1_555
H18A C24A 1_555 1_555
C25A C24A 1_555 1_555
H19A C25A 1_555 1_555
C26A C22A 1_555 1_555
H20A C26A 1_555 1_555
S1A C27A 1_555 1_555
C27A N7A 1_555 1_555
N7A Zn1 1_555 1_555
C4 C5 1_555 1_555
C5 C6 1_555 1_555
C7 C14 1_555 1_555
C12 C13 1_555 1_555
C19 C20 1_555 1_555
C25 C26 1_555 1_555
C4A C5A 1_555 1_555
C5A C6A 1_555 1_555
C7A C14A 1_555 1_555
C12A C13A 1_555 1_555
C19A C20A 1_555 1_555
C25A C26A 1_555 1_555

#END
