
#######################################################################
#
#                 Cambridge Crystallographic Data Centre
#                                CCDC 
#
#######################################################################
#
# If this CIF has been generated from an entry in the Cambridge 
# Structural Database, then it will include bibliographic, chemical, 
# crystal, experimental, refinement or atomic coordinate data resulting 
# from the CCDC's data processing and validation procedures.
#
#######################################################################

data_DUYTAT
_symmetry_cell_setting           triclinic
_symmetry_space_group_name_H-M   'P -1'
_symmetry_Int_Tables_number      2
_space_group_name_Hall           '-P 1'
loop_
_symmetry_equiv_pos_site_id
_symmetry_equiv_pos_as_xyz
1 x,y,z
2 -x,-y,-z
_cell_length_a                   10.380(6)
_cell_length_b                   11.008(7)
_cell_length_c                   11.174(7)
_cell_angle_alpha                105.477(10)
_cell_angle_beta                 91.417(11)
_cell_angle_gamma                103.155(10)
_cell_volume                     1193.21
loop_
_atom_site_label
_atom_site_type_symbol
_atom_site_fract_x
_atom_site_fract_y
_atom_site_fract_z
Ag1 Ag -0.36124(3) 0.83988(3) 0.98140(3)
N1 N -0.1793(2) 0.8906(2) 0.8913(2)
N2 N 0.0279(2) 0.6162(2) 0.7186(2)
N3 N 0.1074(2) 0.5422(2) 0.6477(2)
N4 N 0.0323(2) 0.3840(2) 0.8536(2)
N5 N 0.1641(2) 0.4540(2) 0.8906(2)
N6 N 0.5250(2) 0.6987(3) 1.0661(2)
C1 C -0.1266(3) 1.0132(3) 0.8968(3)
H1 H -0.1701 1.0760 0.9361
C2 C -0.0108(3) 1.0513(3) 0.8470(3)
H2 H 0.0227 1.1384 0.8513
C3 C 0.0556(3) 0.9612(3) 0.7907(3)
H3 H 0.1349 0.9859 0.7566
C4 C -0.1149(3) 0.8035(3) 0.8363(3)
H4 H -0.1519 0.7169 0.8319
C5 C 0.0036(3) 0.8327(3) 0.7852(3)
C6 C 0.0714(3) 0.7344(3) 0.7254(3)
H5 H 0.1500 0.7596 0.6906
C7 C 0.0892(3) 0.4276(3) 0.6572(2)
C8 C 0.1636(3) 0.3417(3) 0.5796(3)
C9 C 0.2596(3) 0.3901(3) 0.5093(3)
H6 H 0.2786 0.4777 0.5123
C10 C 0.3271(3) 0.3093(4) 0.4349(3)
H7 H 0.3915 0.3427 0.3880
C11 C 0.3007(4) 0.1814(4) 0.4293(3)
H8 H 0.3464 0.1272 0.3785
C12 C 0.2079(4) 0.1330(4) 0.4979(4)
H9 H 0.1903 0.0454 0.4945
C13 C 0.1384(3) 0.2127(3) 0.5733(3)
H10 H 0.0743 0.1782 0.6198
C14 C -0.0039(3) 0.3738(3) 0.7405(3)
C15 C -0.1391(3) 0.3003(3) 0.6888(3)
C16 C -0.1892(3) 0.3046(3) 0.5755(3)
H11 H -0.1378 0.3560 0.5319
C17 C -0.3156(4) 0.2328(4) 0.5260(4)
H12 H -0.3494 0.2358 0.4492
C18 C -0.3903(3) 0.1579(3) 0.5903(4)
H13 H -0.4752 0.1093 0.5568
C19 C -0.3421(3) 0.1531(3) 0.7032(4)
H14 H -0.3939 0.1013 0.7463
C20 C -0.2169(3) 0.2249(3) 0.7531(3)
H15 H -0.1845 0.2226 0.8306
C21 C 0.1934(3) 0.4701(3) 1.0044(3)
H16 H 0.1299 0.4350 1.0511
C22 C 0.3247(3) 0.5425(3) 1.0647(3)
C23 C 0.3709(3) 0.5295(3) 1.1758(3)
H17 H 0.3183 0.4734 1.2144
C24 C 0.4945(4) 0.5996(3) 1.2292(3)
H18 H 0.5276 0.5908 1.3037
C25 C 0.5679(3) 0.6818(3) 1.1724(3)
H19 H 0.6523 0.7287 1.2090
C26 C 0.4060(3) 0.6286(3) 1.0136(3)
H20 H 0.3760 0.6382 0.9383
N7 N -0.5947(3) 0.9016(4) 0.8424(4)
O1 O -0.6309(4) 0.9058(4) 0.9462(3)
O2 O -0.6271(3) 0.9733(3) 0.7880(3)
O3 O -0.5282(3) 0.8281(3) 0.7960(3)
Ag1A Ag -0.63876(3) 1.16012(3) 1.01860(3)
Ag1_2 Ag 0.63876(3) 0.83988(3) 0.98140(3)
Ag1A_2 Ag -1.63876(3) 1.16012(3) 1.01860(3)
N1A N -0.8207(2) 1.1094(2) 1.1087(2)
N2A N -1.0279(2) 1.3838(2) 1.2814(2)
N3A N -1.1074(2) 1.4578(2) 1.3523(2)
N4A N -1.0323(2) 1.6160(2) 1.1464(2)
N5A N -1.1641(2) 1.5460(2) 1.1094(2)
N6A N -1.5250(2) 1.3013(3) 0.9339(2)
N6_2 N -0.4750(2) 0.6987(3) 1.0661(2)
N6A_2 N -0.5250(2) 1.3013(3) 0.9339(2)
C1A C -0.8734(3) 0.9868(3) 1.1032(3)
H1A H -0.8299 0.9240 1.0639
C2A C -0.9892(3) 0.9487(3) 1.1530(3)
H2A H -1.0227 0.8616 1.1487
C3A C -1.0556(3) 1.0388(3) 1.2093(3)
H3A H -1.1349 1.0141 1.2434
C4A C -0.8851(3) 1.1965(3) 1.1637(3)
H4A H -0.8481 1.2831 1.1681
C5A C -1.0036(3) 1.1673(3) 1.2148(3)
C6A C -1.0714(3) 1.2656(3) 1.2746(3)
H5A H -1.1500 1.2404 1.3094
C7A C -1.0892(3) 1.5724(3) 1.3428(2)
C8A C -1.1636(3) 1.6583(3) 1.4204(3)
C9A C -1.2596(3) 1.6099(3) 1.4907(3)
H6A H -1.2786 1.5223 1.4877
C10A C -1.3271(3) 1.6907(4) 1.5651(3)
H7A H -1.3915 1.6573 1.6120
C11A C -1.3007(4) 1.8186(4) 1.5707(3)
H8A H -1.3464 1.8728 1.6215
C12A C -1.2079(4) 1.8670(4) 1.5021(4)
H9A H -1.1903 1.9546 1.5055
C13A C -1.1384(3) 1.7873(3) 1.4267(3)
H10A H -1.0743 1.8218 1.3802
C14A C -0.9961(3) 1.6262(3) 1.2595(3)
C15A C -0.8609(3) 1.6997(3) 1.3112(3)
C16A C -0.8108(3) 1.6954(3) 1.4245(3)
H11A H -0.8622 1.6440 1.4681
C17A C -0.6844(4) 1.7672(4) 1.4740(4)
H12A H -0.6506 1.7642 1.5508
C18A C -0.6097(3) 1.8421(3) 1.4097(4)
H13A H -0.5248 1.8907 1.4432
C19A C -0.6579(3) 1.8469(3) 1.2968(4)
H14A H -0.6061 1.8987 1.2537
C20A C -0.7831(3) 1.7751(3) 1.2469(3)
H15A H -0.8155 1.7774 1.1694
C21A C -1.1934(3) 1.5299(3) 0.9956(3)
H16A H -1.1299 1.5650 0.9489
C22A C -1.3247(3) 1.4575(3) 0.9353(3)
C23A C -1.3709(3) 1.4705(3) 0.8242(3)
H17A H -1.3183 1.5266 0.7856
C24A C -1.4945(4) 1.4004(3) 0.7708(3)
H18A H -1.5276 1.4092 0.6963
C25A C -1.5679(3) 1.3182(3) 0.8276(3)
H19A H -1.6523 1.2713 0.7910
C26A C -1.4060(3) 1.3714(3) 0.9864(3)
H20A H -1.3760 1.3618 1.0617
N7A N -0.4053(3) 1.0984(4) 1.1576(4)
O1A O -0.3691(4) 1.0942(4) 1.0538(3)
O2A O -0.3729(3) 1.0267(3) 1.2120(3)
O3A O -0.4718(3) 1.1719(3) 1.2040(3)
loop_
_geom_bond_atom_site_label_1
_geom_bond_atom_site_label_2
_geom_bond_site_symmetry_1
_geom_bond_site_symmetry_2
Ag1 N1 1_555 1_555
N1 C1 1_555 1_555
N2 N3 1_555 1_555
N3 C7 1_555 1_555
N4 N5 1_555 1_555
N5 C21 1_555 1_555
N6 C25 1_555 1_555
C1 H1 1_555 1_555
C2 C1 1_555 1_555
H2 C2 1_555 1_555
C3 C2 1_555 1_555
H3 C3 1_555 1_555
C4 N1 1_555 1_555
H4 C4 1_555 1_555
C5 C3 1_555 1_555
C6 N2 1_555 1_555
H5 C6 1_555 1_555
C7 C8 1_555 1_555
C8 C9 1_555 1_555
C9 H6 1_555 1_555
C10 C9 1_555 1_555
H7 C10 1_555 1_555
C11 C10 1_555 1_555
H8 C11 1_555 1_555
C12 C11 1_555 1_555
H9 C12 1_555 1_555
C13 C8 1_555 1_555
H10 C13 1_555 1_555
C14 N4 1_555 1_555
C15 C14 1_555 1_555
C16 C15 1_555 1_555
H11 C16 1_555 1_555
C17 C16 1_555 1_555
H12 C17 1_555 1_555
C18 C17 1_555 1_555
H13 C18 1_555 1_555
C19 C18 1_555 1_555
H14 C19 1_555 1_555
C20 C15 1_555 1_555
H15 C20 1_555 1_555
C21 H16 1_555 1_555
C22 C21 1_555 1_555
C23 C22 1_555 1_555
H17 C23 1_555 1_555
C24 C23 1_555 1_555
H18 C24 1_555 1_555
C25 C24 1_555 1_555
H19 C25 1_555 1_555
C26 N6 1_555 1_555
H20 C26 1_555 1_555
N7 O1 1_555 1_555
O1 Ag1A 1_555 1_555
O2 N7 1_555 1_555
O3 Ag1 1_555 1_555
Ag1A N1A 1_555 1_555
Ag1_2 N6 1_555 1_555
Ag1A_2 N6A 1_555 1_555
N1A C1A 1_555 1_555
N2A N3A 1_555 1_555
N3A C7A 1_555 1_555
N4A N5A 1_555 1_555
N5A C21A 1_555 1_555
N6A C25A 1_555 1_555
N6_2 Ag1 1_555 1_555
N6A_2 Ag1A 1_555 1_555
C1A H1A 1_555 1_555
C2A C1A 1_555 1_555
H2A C2A 1_555 1_555
C3A C2A 1_555 1_555
H3A C3A 1_555 1_555
C4A N1A 1_555 1_555
H4A C4A 1_555 1_555
C5A C3A 1_555 1_555
C6A N2A 1_555 1_555
H5A C6A 1_555 1_555
C7A C8A 1_555 1_555
C8A C9A 1_555 1_555
C9A H6A 1_555 1_555
C10A C9A 1_555 1_555
H7A C10A 1_555 1_555
C11A C10A 1_555 1_555
H8A C11A 1_555 1_555
C12A C11A 1_555 1_555
H9A C12A 1_555 1_555
C13A C8A 1_555 1_555
H10A C13A 1_555 1_555
C14A N4A 1_555 1_555
C15A C14A 1_555 1_555
C16A C15A 1_555 1_555
H11A C16A 1_555 1_555
C17A C16A 1_555 1_555
H12A C17A 1_555 1_555
C18A C17A 1_555 1_555
H13A C18A 1_555 1_555
C19A C18A 1_555 1_555
H14A C19A 1_555 1_555
C20A C15A 1_555 1_555
H15A C20A 1_555 1_555
C21A H16A 1_555 1_555
C22A C21A 1_555 1_555
C23A C22A 1_555 1_555
H17A C23A 1_555 1_555
C24A C23A 1_555 1_555
H18A C24A 1_555 1_555
C25A C24A 1_555 1_555
H19A C25A 1_555 1_555
C26A N6A 1_555 1_555
H20A C26A 1_555 1_555
N7A O1A 1_555 1_555
O1A Ag1 1_555 1_555
O2A N7A 1_555 1_555
O3A Ag1A 1_555 1_555
C4 C5 1_555 1_555
C5 C6 1_555 1_555
C7 C14 1_555 1_555
C12 C13 1_555 1_555
C19 C20 1_555 1_555
C22 C26 1_555 1_555
N7 O3 1_555 1_555
C4A C5A 1_555 1_555
C5A C6A 1_555 1_555
C7A C14A 1_555 1_555
C12A C13A 1_555 1_555
C19A C20A 1_555 1_555
C22A C26A 1_555 1_555
N7A O3A 1_555 1_555

#END
