
#######################################################################
#
#                 Cambridge Crystallographic Data Centre
#                                CCDC 
#
#######################################################################
#
# If this CIF has been generated from an entry in the Cambridge 
# Structural Database, then it will include bibliographic, chemical, 
# crystal, experimental, refinement or atomic coordinate data resulting 
# from the CCDC's data processing and validation procedures.
#
#######################################################################

data_DUYWIE
_symmetry_cell_setting           monoclinic
_symmetry_space_group_name_H-M   'P 21/c'
_symmetry_Int_Tables_number      14
_space_group_name_Hall           '-P 2ybc'
loop_
_symmetry_equiv_pos_site_id
_symmetry_equiv_pos_as_xyz
1 x,y,z
2 -x,1/2+y,1/2-z
3 -x,-y,-z
4 x,1/2-y,1/2+z
_cell_length_a                   10.1910(18)
_cell_length_b                   13.035(2)
_cell_length_c                   17.786(3)
_cell_angle_alpha                90
_cell_angle_beta                 101.741(3)
_cell_angle_gamma                90
_cell_volume                     2313.25
loop_
_atom_site_label
_atom_site_type_symbol
_atom_site_fract_x
_atom_site_fract_y
_atom_site_fract_z
C1 C 1.5481(5) 0.1305(4) 0.8708(3)
H1 H 1.6111 0.1827 0.8822
C2 C 1.4616(5) 0.1151(4) 0.9197(3)
H2 H 1.4670 0.1565 0.9628
C3 C 1.3676(6) -0.0200(4) 0.8422(3)
H3 H 1.3069 -0.0737 0.8305
C4 C 1.4567(6) -0.0003(4) 0.7961(3)
H4 H 1.4537 -0.0426 0.7537
C5 C -0.2230(5) 0.2058(4) 0.5839(3)
H5 H -0.2949 0.2501 0.5828
C6 C -0.1377(5) 0.2259(4) 0.5359(3)
H6 H -0.1529 0.2819 0.5028
C7 C -0.0161(5) 0.0785(4) 0.5844(3)
H7 H 0.0542 0.0326 0.5856
C8 C -0.1059(5) 0.0629(4) 0.6293(3)
H8 H -0.0956 0.0046 0.6601
C9 C 0.9625(5) 0.1335(4) 0.8012(3)
H9 H 0.9545 0.1878 0.7666
C10 C 1.0863(5) 0.1156(4) 0.8478(3)
H10 H 1.1596 0.1563 0.8441
C11 C 0.9874(5) -0.0217(4) 0.9034(3)
H11 H 0.9923 -0.0756 0.9382
C12 C 0.8671(5) 0.0016(4) 0.8539(3)
H12 H 0.7923 -0.0379 0.8567
C13 C 0.4594(5) 0.1062(5) 0.5662(3)
H13 H 0.5268 0.0709 0.5489
C14 C 0.3387(5) 0.1194(5) 0.5160(3)
H14 H 0.3254 0.0931 0.4664
C15 C 0.2659(5) 0.2111(4) 0.6137(3)
H15 H 0.2010 0.2486 0.6316
C16 C 0.3891(5) 0.1945(4) 0.6598(3)
H16 H 0.4058 0.2223 0.7089
Co1 Co 0.66936(7) 0.10577(5) 0.71997(4)
N1 N 0.6832(4) 0.2604(3) 0.7467(2)
N2 N 0.7452(5) 0.3072(4) 0.7968(3)
N3 N 0.8045(6) 0.3582(4) 0.8448(3)
N4 N 0.6465(5) -0.0474(4) 0.6862(3)
N5 N 0.7154(5) -0.1165(4) 0.7028(3)
N6 N 0.7889(6) -0.1853(4) 0.7205(3)
N7 N 1.5464(4) 0.0736(3) 0.8070(2)
C17 C 1.3679(5) 0.0394(4) 0.9052(3)
N8 N -0.2098(4) 0.1258(3) 0.6328(2)
C18 C -0.0290(5) 0.1631(4) 0.5364(3)
N9 N 0.8529(4) 0.0769(3) 0.8030(2)
C19 C 1.0990(5) 0.0360(4) 0.9002(3)
N10 N 0.4858(4) 0.1411(3) 0.6384(2)
C20 C 0.2394(5) 0.1714(4) 0.5400(3)
S1 S 1.25205(14) 0.01446(12) 0.96581(7)
S2 S 0.08414(14) 0.18997(12) 0.47572(7)
Co1_2 Co -0.33064(7) 0.10577(5) 0.71997(4)
Co1_3 Co 1.66936(7) 0.10577(5) 0.71997(4)
N7_2 N 0.5464(4) 0.0736(3) 0.8070(2)
N8_2 N 0.7902(4) 0.1258(3) 0.6328(2)
O1 O 0.5895(9) 0.1289(8) 0.4259(5)
H17 H 0.6544 0.1330 0.4026
H18 H 0.5215 0.1059 0.3946
loop_
_geom_bond_atom_site_label_1
_geom_bond_atom_site_label_2
_geom_bond_site_symmetry_1
_geom_bond_site_symmetry_2
C1 H1 1_555 1_555
C2 C1 1_555 1_555
H2 C2 1_555 1_555
C3 H3 1_555 1_555
C4 C3 1_555 1_555
H4 C4 1_555 1_555
C5 H5 1_555 1_555
C6 C5 1_555 1_555
H6 C6 1_555 1_555
C7 H7 1_555 1_555
C8 C7 1_555 1_555
H8 C8 1_555 1_555
C9 H9 1_555 1_555
C10 C9 1_555 1_555
H10 C10 1_555 1_555
C11 H11 1_555 1_555
C12 C11 1_555 1_555
H12 C12 1_555 1_555
C13 H13 1_555 1_555
C14 C13 1_555 1_555
H14 C14 1_555 1_555
C15 H15 1_555 1_555
C16 C15 1_555 1_555
H16 C16 1_555 1_555
Co1 N1 1_555 1_555
N1 N2 1_555 1_555
N2 N3 1_555 1_555
N4 Co1 1_555 1_555
N5 N4 1_555 1_555
N6 N5 1_555 1_555
N7 C1 1_555 1_555
C17 C2 1_555 1_555
N8 C5 1_555 1_555
C18 C6 1_555 1_555
N9 C9 1_555 1_555
C19 C10 1_555 1_555
N10 C13 1_555 1_555
C20 C14 1_555 1_555
O1 H17 1_555 1_555
H18 O1 1_555 1_555
S1 C17 1_555 1_555
S2 C18 1_555 1_555
Co1_2 N8 1_555 1_555
Co1_3 N7 1_555 1_555
N7_2 Co1 1_555 1_555
N8_2 Co1 1_555 1_555
C3 C17 1_555 1_555
C4 N7 1_555 1_555
C7 C18 1_555 1_555
C8 N8 1_555 1_555
C11 C19 1_555 1_555
C12 N9 1_555 1_555
C15 C20 1_555 1_555
C16 N10 1_555 1_555
Co1 N9 1_555 1_555
Co1 N10 1_555 1_555
C19 S1 1_555 1_555
C20 S2 1_555 1_555

#END
