
#######################################################################
#
#                 Cambridge Crystallographic Data Centre
#                                CCDC 
#
#######################################################################
#
# If this CIF has been generated from an entry in the Cambridge 
# Structural Database, then it will include bibliographic, chemical, 
# crystal, experimental, refinement or atomic coordinate data resulting 
# from the CCDC's data processing and validation procedures.
#
#######################################################################

data_DUZJAK01
_symmetry_cell_setting           monoclinic
_symmetry_space_group_name_H-M   'C 2/c'
_symmetry_Int_Tables_number      15
_space_group_name_Hall           '-C 2yn'
loop_
_symmetry_equiv_pos_site_id
_symmetry_equiv_pos_as_xyz
1 x,y,z
2 -x,y,1/2-z
3 1/2+x,1/2+y,z
4 1/2-x,1/2+y,1/2-z
5 -x,-y,-z
6 x,-y,1/2+z
7 1/2-x,1/2-y,-z
8 1/2+x,1/2-y,1/2+z
_cell_length_a                   14.1125(6)
_cell_length_b                   16.9373(6)
_cell_length_c                   8.9290(3)
_cell_angle_alpha                90
_cell_angle_beta                 127.151(2)
_cell_angle_gamma                90
_cell_volume                     1701.12
loop_
_atom_site_label
_atom_site_type_symbol
_atom_site_fract_x
_atom_site_fract_y
_atom_site_fract_z
C1 C 0.10259(17) 0.17990(11) 0.0904(3)
C2 C 0.17732(17) 0.21622(10) 0.0398(3)
C3 C 0.25718(19) 0.27570(11) 0.1536(3)
H1 H 0.2622 0.2931 0.2570
C4 C 0.17057(18) 0.19079(11) -0.1137(3)
H2 H 0.1174 0.1511 -0.1905
C5 C 0.3519(2) 0.12780(13) 0.5182(4)
H3 H 0.3454 0.1821 0.5245
C6 C 0.4397(2) 0.09785(14) 0.5114(4)
H4 H 0.4914 0.1323 0.5124
C7 C 0.45264(18) 0.01710(13) 0.5031(3)
C8 C 0.3729(2) -0.03054(15) 0.5043(5)
H5 H 0.3782 -0.0851 0.4998
C9 C 0.2862(2) 0.00110(15) 0.5122(5)
H6 H 0.2348 -0.0321 0.5150
Cd1 Cd 0.0000 0.121731(9) 0.2500
N1 N 0.27554(16) 0.07985(12) 0.5158(3)
O1 O 0.07758(16) 0.22173(9) 0.1775(3)
O2 O 0.07107(15) 0.10899(8) 0.0498(2)
O3 O 0.19209(15) 0.10910(10) 0.5252(3)
O4 O 0.0000 -0.01189(11) 0.2500
H7 H -0.0221 -0.0451 0.1487
C1F C 0.39741(17) 0.32010(11) -0.0904(3)
C2F C 0.32268(17) 0.28378(10) -0.0398(3)
C3F C 0.24282(19) 0.22430(11) -0.1536(3)
H1F H 0.2378 0.2069 -0.2570
C4F C 0.32943(18) 0.30921(11) 0.1137(3)
H2F H 0.3826 0.3489 0.1905
C5D C 0.6481(2) -0.12780(13) 0.4818(4)
H3D H 0.6546 -0.1821 0.4755
C6D C 0.5603(2) -0.09785(14) 0.4886(4)
H4D H 0.5086 -0.1323 0.4876
C7D C 0.54736(18) -0.01710(13) 0.4969(3)
C8D C 0.6271(2) 0.03054(15) 0.4957(5)
H5D H 0.6218 0.0851 0.5002
C9D C 0.7138(2) -0.00110(15) 0.4878(5)
H6D H 0.7652 0.0321 0.4850
Cd1F Cd 0.5000 0.378269(9) -0.2500
Cd1D Cd 1.0000 -0.121731(9) 0.7500
N1D N 0.72446(16) -0.07985(12) 0.4842(3)
O1F O 0.42242(16) 0.27827(9) -0.1775(3)
O1A O -0.07758(16) 0.22173(9) 0.3225(3)
O2F O 0.42893(15) 0.39101(8) -0.0498(2)
O2A O -0.07107(15) 0.10899(8) 0.4502(2)
O3D O 0.80791(15) -0.10910(10) 0.4748(3)
O3A O -0.19209(15) 0.10910(10) -0.0252(3)
H7A H 0.0221 -0.0451 0.3513
loop_
_geom_bond_atom_site_label_1
_geom_bond_atom_site_label_2
_geom_bond_site_symmetry_1
_geom_bond_site_symmetry_2
C1 C2 1_555 1_555
C2 C3 1_555 1_555
C3 H1 1_555 1_555
C4 C2 1_555 1_555
H2 C4 1_555 1_555
C5 H3 1_555 1_555
C6 C5 1_555 1_555
H4 C6 1_555 1_555
C7 C6 1_555 1_555
C8 C7 1_555 1_555
H5 C8 1_555 1_555
C9 C8 1_555 1_555
H6 C9 1_555 1_555
Cd1 O1 1_555 1_555
N1 C5 1_555 1_555
O1 C1 1_555 1_555
O2 C1 1_555 1_555
O3 Cd1 1_555 1_555
O4 Cd1 1_555 1_555
H7 O4 1_555 1_555
C1F C2F 1_555 1_555
C2F C3F 1_555 1_555
C3F C4 1_555 1_555
H1F C3F 1_555 1_555
C4F C3 1_555 1_555
H2F C4F 1_555 1_555
C5D H3D 1_555 1_555
C6D C5D 1_555 1_555
H4D C6D 1_555 1_555
C7D C7 1_555 1_555
C8D C7D 1_555 1_555
H5D C8D 1_555 1_555
C9D C8D 1_555 1_555
H6D C9D 1_555 1_555
Cd1F O1F 1_555 1_555
Cd1D O3D 1_555 1_555
N1D C5D 1_555 1_555
O1F C1F 1_555 1_555
O1A Cd1 1_555 1_555
O2F C1F 1_555 1_555
O2A Cd1 1_555 1_555
O3D N1D 1_555 1_555
O3A Cd1 1_555 1_555
H7A O4 1_555 1_555
C9 N1 1_555 1_555
Cd1 O2 1_555 1_555
N1 O3 1_555 1_555
C2F C4F 1_555 1_555
C6D C7D 1_555 1_555
C9D N1D 1_555 1_555
Cd1F O2F 1_555 1_555

#END
