
#######################################################################
#
#                 Cambridge Crystallographic Data Centre
#                                CCDC 
#
#######################################################################
#
# If this CIF has been generated from an entry in the Cambridge 
# Structural Database, then it will include bibliographic, chemical, 
# crystal, experimental, refinement or atomic coordinate data resulting 
# from the CCDC's data processing and validation procedures.
#
#######################################################################

data_DUZXEC
_symmetry_cell_setting           monoclinic
_symmetry_space_group_name_H-M   'P 21/n'
_symmetry_Int_Tables_number      14
_space_group_name_Hall           '-P 2yn'
loop_
_symmetry_equiv_pos_site_id
_symmetry_equiv_pos_as_xyz
1 x,y,z
2 1/2-x,1/2+y,1/2-z
3 -x,-y,-z
4 1/2+x,1/2-y,1/2+z
_cell_length_a                   16.234(3)
_cell_length_b                   8.1754(16)
_cell_length_c                   16.328(3)
_cell_angle_alpha                90
_cell_angle_beta                 111.16(3)
_cell_angle_gamma                90
_cell_volume                     2020.93
loop_
_atom_site_label
_atom_site_type_symbol
_atom_site_fract_x
_atom_site_fract_y
_atom_site_fract_z
C1 C 0.4048(2) -0.9465(3) -0.31155(19)
C2 C 0.4177(2) -0.9403(4) -0.22206(19)
H1 H 0.4634 -0.8732 -0.1841
C3 C 0.3654(2) -1.0298(4) -0.1878(2)
C4 C 0.2970(2) -1.1291(4) -0.2428(2)
H2 H 0.2623 -1.1934 -0.2189
C5 C 0.2808(2) -1.1320(4) -0.3318(2)
H3 H 0.2338 -1.1970 -0.3693
C6 C 0.3329(2) -1.0400(4) -0.3679(2)
C7 C 0.3101(2) -1.0401(4) -0.4615(2)
H4 H 0.2614 -1.1060 -0.4950
C8 C 0.3115(2) -0.9631(3) -0.60125(19)
H5 H 0.2504 -0.9197 -0.6217
H6 H 0.3090 -1.0776 -0.6217
C9 C 0.3665(2) -0.8625(4) -0.63932(19)
H7 H 0.3875 -0.9323 -0.6774
H8 H 0.3300 -0.7737 -0.6759
C10 C 0.49450(19) -0.6955(3) -0.59131(18)
H9 H 0.4787 -0.6738 -0.6522
C11 C 0.57335(19) -0.6193(3) -0.53236(17)
C12 C 0.6228(2) -0.5206(3) -0.56889(18)
H10 H 0.6019 -0.5043 -0.6306
C13 C 0.7005(2) -0.4477(4) -0.51711(18)
H11 H 0.7330 -0.3824 -0.5430
C14 C 0.73159(18) -0.4705(3) -0.42571(17)
C15 C 0.68263(19) -0.5643(3) -0.38847(17)
H12 H 0.7038 -0.5785 -0.3266
C16 C 0.60277(18) -0.6385(3) -0.44017(17)
C17 C 0.3840(2) -1.0179(4) -0.0915(2)
C18 C 0.81631(19) -0.3894(3) -0.36763(18)
C19 C 0.4634(4) -0.4879(6) -0.1275(4)
H13 H 0.4172 -0.4528 -0.1823
H14 H 0.4624 -0.4175 -0.0793
H15 H 0.4527 -0.6015 -0.1150
C20 C 0.5735(3) -0.2569(4) -0.1462(3)
H16 H 0.6258 -0.2276 -0.1595
H17 H 0.5776 -0.2071 -0.0902
H18 H 0.5204 -0.2168 -0.1930
N1 N 0.34979(16) -0.9585(3) -0.50423(15)
N2 N 0.44350(16) -0.7909(3) -0.56822(15)
O1 O 0.46017(14) -0.8670(2) -0.33965(13)
O2 O 0.55765(14) -0.7239(2) -0.40138(12)
O3 O 0.40544(18) -0.8902(3) -0.05101(15)
O4 O 0.37265(16) -1.1578(3) -0.05681(15)
H19 H 0.375(3) -1.147(5) -0.005(3)
O5 O 0.82723(14) -0.3688(2) -0.28807(12)
O6 O 0.87173(14) -0.3441(3) -0.40103(14)
O7 O 0.55442(17) -0.5353(3) -0.22891(13)
Li1 Li 0.5695(3) -0.7418(6) -0.2760(3)
S1 S 0.56756(6) -0.47303(9) -0.13836(5)
Ni1 Ni 0.45177(2) -0.83591(4) -0.45513(2)
O5A O 0.67277(14) -0.8688(2) -0.21193(12)
Li1A Li 0.9305(3) -0.2418(6) -0.2240(3)
loop_
_geom_bond_atom_site_label_1
_geom_bond_atom_site_label_2
_geom_bond_site_symmetry_1
_geom_bond_site_symmetry_2
C1 C2 1_555 1_555
C2 H1 1_555 1_555
C3 C2 1_555 1_555
C4 C3 1_555 1_555
H2 C4 1_555 1_555
C5 C4 1_555 1_555
H3 C5 1_555 1_555
C6 C1 1_555 1_555
C7 C6 1_555 1_555
H4 C7 1_555 1_555
C8 H5 1_555 1_555
H6 C8 1_555 1_555
C9 C8 1_555 1_555
H7 C9 1_555 1_555
H8 C9 1_555 1_555
C10 H9 1_555 1_555
C11 C10 1_555 1_555
C12 C11 1_555 1_555
H10 C12 1_555 1_555
C13 C12 1_555 1_555
H11 C13 1_555 1_555
C14 C13 1_555 1_555
C15 C14 1_555 1_555
H12 C15 1_555 1_555
C16 C11 1_555 1_555
C17 C3 1_555 1_555
C18 C14 1_555 1_555
C19 H13 1_555 1_555
H14 C19 1_555 1_555
H15 C19 1_555 1_555
C20 H16 1_555 1_555
H17 C20 1_555 1_555
H18 C20 1_555 1_555
N1 C7 1_555 1_555
N2 C9 1_555 1_555
O1 C1 1_555 1_555
O2 C16 1_555 1_555
O3 C17 1_555 1_555
O4 C17 1_555 1_555
H19 O4 1_555 1_555
O5 C18 1_555 1_555
O6 C18 1_555 1_555
O7 Li1 1_555 1_555
Li1 O1 1_555 1_555
S1 C19 1_555 1_555
Ni1 N1 1_555 1_555
O5A Li1 1_555 1_555
Li1A O5 1_555 1_555
C5 C6 1_555 1_555
C8 N1 1_555 1_555
C10 N2 1_555 1_555
C15 C16 1_555 1_555
C20 S1 1_555 1_555
N2 Ni1 1_555 1_555
O1 Ni1 1_555 1_555
O2 Li1 1_555 1_555
O2 Ni1 1_555 1_555
O7 S1 1_555 1_555

#END
