
#######################################################################
#
#                 Cambridge Crystallographic Data Centre
#                                CCDC 
#
#######################################################################
#
# If this CIF has been generated from an entry in the Cambridge 
# Structural Database, then it will include bibliographic, chemical, 
# crystal, experimental, refinement or atomic coordinate data resulting 
# from the CCDC's data processing and validation procedures.
#
#######################################################################

data_DUZXAY
_symmetry_cell_setting           triclinic
_symmetry_space_group_name_H-M   'P -1'
_symmetry_Int_Tables_number      2
_space_group_name_Hall           '-P 1'
loop_
_symmetry_equiv_pos_site_id
_symmetry_equiv_pos_as_xyz
1 x,y,z
2 -x,-y,-z
_cell_length_a                   8.8599(18)
_cell_length_b                   14.669(3)
_cell_length_c                   17.013(3)
_cell_angle_alpha                83.43(3)
_cell_angle_beta                 77.74(3)
_cell_angle_gamma                79.98(3)
_cell_volume                     2120.82
loop_
_atom_site_label
_atom_site_type_symbol
_atom_site_fract_x
_atom_site_fract_y
_atom_site_fract_z
C1 C -0.1091(3) 0.11605(16) -0.42739(15)
C2 C -0.1080(3) 0.17555(17) -0.49800(16)
H1 H -0.0626 0.2306 -0.5030
C3 C -0.1707(3) 0.15623(17) -0.56004(15)
C4 C -0.2361(3) 0.07473(19) -0.55522(17)
H2 H -0.2834 0.0625 -0.5973
C5 C -0.2304(3) 0.01343(18) -0.48879(17)
H3 H -0.2690 -0.0435 -0.4865
C6 C -0.1691(3) 0.03225(17) -0.42383(16)
C7 C -0.1738(3) -0.03538(17) -0.35606(16)
H4 H -0.2156 -0.0900 -0.3590
C8 C -0.1382(3) -0.09834(17) -0.22464(17)
H5 H -0.1448 -0.1585 -0.2439
H6 H -0.2335 -0.0806 -0.1837
C9 C 0.0072(3) -0.10680(16) -0.18792(16)
H7 H -0.0096 -0.1398 -0.1334
H8 H 0.0985 -0.1417 -0.2222
C10 C 0.0868(3) 0.00994(17) -0.12519(16)
H9 H 0.1109 -0.0381 -0.0853
C11 C 0.0946(3) 0.17781(17) -0.17385(15)
C12 C 0.1128(3) 0.10180(17) -0.11587(16)
C13 C 0.1539(4) 0.11645(19) -0.04357(17)
H10 H 0.1719 0.0648 -0.0058
C14 C 0.1688(4) 0.20290(19) -0.02550(17)
H11 H 0.1923 0.2112 0.0249
C15 C 0.1491(3) 0.27880(17) -0.08246(16)
C16 C 0.1200(3) 0.26502(17) -0.15581(16)
H12 H 0.1168 0.3157 -0.1959
C17 C -0.1683(3) 0.22208(17) -0.63428(15)
C18 C 0.1512(3) 0.37622(18) -0.06159(17)
C19 C 0.3141(3) 0.60198(16) -0.53329(15)
C20 C 0.2233(3) 0.53194(17) -0.50125(15)
H13 H 0.1596 0.5132 -0.5329
C21 C 0.2251(3) 0.49001(17) -0.42474(15)
C22 C 0.3178(3) 0.51629(18) -0.37696(16)
H14 H 0.3166 0.4887 -0.3236
C23 C 0.4102(3) 0.58223(18) -0.40810(16)
H15 H 0.4762 0.5985 -0.3764
C24 C 0.4106(3) 0.62658(17) -0.48530(16)
C25 C 0.5128(3) 0.69470(18) -0.51084(17)
H16 H 0.5743 0.7051 -0.4742
C26 C 0.6405(4) 0.8067(2) -0.60129(19)
H17 H 0.6616 0.8292 -0.5526
H18 H 0.7402 0.7753 -0.6318
C27 C 0.5715(3) 0.88763(19) -0.65337(18)
H19 H 0.6552 0.9211 -0.6852
H20 H 0.4954 0.9317 -0.6191
C28 C 0.4819(3) 0.89002(17) -0.77642(17)
H21 H 0.5228 0.9466 -0.7912
C29 C 0.3418(3) 0.77470(17) -0.81868(15)
C30 C 0.4113(3) 0.85619(17) -0.83367(16)
C31 C 0.4198(4) 0.90412(18) -0.91023(18)
H22 H 0.4625 0.9604 -0.9204
C32 C 0.3682(4) 0.87224(19) -0.97088(17)
H23 H 0.3749 0.9062 -1.0222
C33 C 0.3057(3) 0.78950(17) -0.95665(16)
C34 C 0.2904(3) 0.74391(18) -0.88170(17)
H24 H 0.2432 0.6892 -0.8720
C35 C 0.1281(3) 0.41465(17) -0.39390(16)
C36 C 0.2587(3) 0.74830(18) -1.02326(16)
N1 N -0.1254(3) -0.02729(14) -0.29180(13)
N2 N 0.0334(3) -0.01119(14) -0.18346(13)
N3 N 0.5277(3) 0.74212(16) -0.57817(14)
N4 N 0.4933(3) 0.84956(15) -0.70750(14)
O1 O -0.0539(3) 0.14232(12) -0.36922(11)
O2 O 0.0539(2) 0.17313(12) -0.24271(11)
O3 O -0.2760(2) 0.22547(14) -0.67293(12)
O4 O -0.0576(2) 0.26798(14) -0.65366(12)
O5 O 0.1479(2) 0.44120(13) -0.11634(12)
O6 O 0.1522(3) 0.38638(14) 0.01002(13)
O7 O 0.3055(2) 0.63882(12) -0.60654(11)
O8 O 0.3251(2) 0.72340(13) -0.74987(11)
O9 O 0.0824(3) 0.40336(14) -0.31930(12)
O10 O 0.0969(2) 0.36616(13) -0.44252(12)
O11 O 0.2248(3) 0.66797(14) -1.01058(13)
O12 O 0.2573(3) 0.79738(13) -1.08815(12)
O13 O -0.0255(3) 0.63896(14) -0.20428(13)
O14 O -0.2414(3) 0.48757(13) -0.09464(12)
O15 O 0.6599(3) 0.69785(15) -0.13047(15)
O16 O 0.3260(2) 0.66090(14) -0.19240(12)
O17 O 0.4653(3) 0.44187(16) -0.19229(18)
O18 O -0.2572(3) 0.52787(19) -0.28874(14)
Na1 Na -0.07056(13) 0.29231(7) -0.33481(7)
Na2 Na 0.11232(14) 0.60170(7) -0.09818(7)
Na3 Na -0.03501(15) 0.48350(8) -0.21307(7)
Na4 Na 0.56198(14) 0.56891(8) -0.16938(8)
Cu1 Cu -0.02324(4) 0.07149(2) -0.272415(18)
Cu2 Cu 0.41137(4) 0.73716(2) -0.659920(19)
O6A O -0.1522(3) 0.61362(14) -0.01002(13)
O7A O -0.3055(2) 0.36118(12) -0.39346(11)
O8A O -0.3251(2) 0.27660(13) -0.25013(11)
O11_2 O 0.2248(3) 0.66797(14) -0.01058(13)
O14_2 O 0.7586(3) 0.48757(13) -0.09464(12)
O18_2 O 0.7428(3) 0.52787(19) -0.28874(14)
Na1A Na 0.07056(13) 0.70769(7) -0.66519(7)
Na2A Na -0.11232(14) 0.39830(7) 0.09818(7)
Na2_2 Na 0.11232(14) 0.60170(7) -1.09818(7)
Na4_2 Na -0.43802(14) 0.56891(8) -0.16938(8)
O19 O -0.1762(3) -0.32934(17) -0.39994(13)
O20 O 0.5001(3) -0.12771(17) -0.18404(16)
O21 O -0.4322(3) -0.1804(2) -0.34352(19)
loop_
_geom_bond_atom_site_label_1
_geom_bond_atom_site_label_2
_geom_bond_site_symmetry_1
_geom_bond_site_symmetry_2
C1 C2 1_555 1_555
C2 H1 1_555 1_555
C3 C2 1_555 1_555
C4 C3 1_555 1_555
H2 C4 1_555 1_555
C5 C4 1_555 1_555
H3 C5 1_555 1_555
C6 C1 1_555 1_555
C7 C6 1_555 1_555
H4 C7 1_555 1_555
C8 H5 1_555 1_555
H6 C8 1_555 1_555
C9 C8 1_555 1_555
H7 C9 1_555 1_555
H8 C9 1_555 1_555
C10 H9 1_555 1_555
C11 C12 1_555 1_555
C12 C10 1_555 1_555
C13 C12 1_555 1_555
H10 C13 1_555 1_555
C14 C13 1_555 1_555
H11 C14 1_555 1_555
C15 C14 1_555 1_555
C16 C11 1_555 1_555
H12 C16 1_555 1_555
C17 C3 1_555 1_555
C18 C15 1_555 1_555
C19 C20 1_555 1_555
C20 H13 1_555 1_555
C21 C20 1_555 1_555
C22 C21 1_555 1_555
H14 C22 1_555 1_555
C23 C22 1_555 1_555
H15 C23 1_555 1_555
C24 C19 1_555 1_555
C25 C24 1_555 1_555
H16 C25 1_555 1_555
C26 H17 1_555 1_555
H18 C26 1_555 1_555
C27 C26 1_555 1_555
H19 C27 1_555 1_555
H20 C27 1_555 1_555
C28 H21 1_555 1_555
C29 C30 1_555 1_555
C30 C28 1_555 1_555
C31 C30 1_555 1_555
H22 C31 1_555 1_555
C32 C31 1_555 1_555
H23 C32 1_555 1_555
C33 C32 1_555 1_555
C34 C29 1_555 1_555
H24 C34 1_555 1_555
C35 C21 1_555 1_555
C36 C33 1_555 1_555
N1 C7 1_555 1_555
N2 C9 1_555 1_555
N3 C25 1_555 1_555
N4 C27 1_555 1_555
O1 C1 1_555 1_555
O2 C11 1_555 1_555
O3 C17 1_555 1_555
O4 C17 1_555 1_555
O5 C18 1_555 1_555
O6 C18 1_555 1_555
O7 C19 1_555 1_555
O8 C29 1_555 1_555
O9 C35 1_555 1_555
O10 C35 1_555 1_555
O11 C36 1_555 1_555
O12 C36 1_555 1_555
O13 Na2 1_555 1_555
O14 Na3 1_555 1_555
O15 Na4 1_555 1_555
O16 Na2 1_555 1_555
O17 Na4 1_555 1_555
O18 Na3 1_555 1_555
Na1 O1 1_555 1_555
Na2 O5 1_555 1_555
Na3 O5 1_555 1_555
Na4 O16 1_555 1_555
Cu1 N1 1_555 1_555
Cu2 N3 1_555 1_555
O6A Na2 1_555 1_555
O7A Na1 1_555 1_555
O8A Na1 1_555 1_555
O11_2 Na2 1_555 1_555
O14_2 Na4 1_555 1_555
O18_2 Na4 1_555 1_555
Na1A O7 1_555 1_555
Na2A O6 1_555 1_555
Na2_2 O11 1_555 1_555
Na4_2 O14 1_555 1_555
C5 C6 1_555 1_555
C8 N1 1_555 1_555
C10 N2 1_555 1_555
C15 C16 1_555 1_555
C23 C24 1_555 1_555
C26 N3 1_555 1_555
C28 N4 1_555 1_555
C33 C34 1_555 1_555
N2 Cu1 1_555 1_555
N4 Cu2 1_555 1_555
O1 Cu1 1_555 1_555
O2 Na1 1_555 1_555
O2 Cu1 1_555 1_555
O7 Cu2 1_555 1_555
O8 Cu2 1_555 1_555
O8 Na1A 1_555 1_555
O9 Na1 1_555 1_555
O9 Na3 1_555 1_555
O10 Na1 1_555 1_555
O13 Na3 1_555 1_555
O18 Na4_2 1_555 1_555

#END
