
#######################################################################
#
#                 Cambridge Crystallographic Data Centre
#                                CCDC 
#
#######################################################################
#
# If this CIF has been generated from an entry in the Cambridge 
# Structural Database, then it will include bibliographic, chemical, 
# crystal, experimental, refinement or atomic coordinate data resulting 
# from the CCDC's data processing and validation procedures.
#
#######################################################################

data_EBAHOF
_symmetry_cell_setting           rhombohedral
_symmetry_space_group_name_H-M   'R -3 c'
_symmetry_Int_Tables_number      167
_space_group_name_Hall           '-R 3 2"c'
loop_
_symmetry_equiv_pos_site_id
_symmetry_equiv_pos_as_xyz
1 x,y,z
2 -y,x-y,z
3 -x+y,-x,z
4 y,x,1/2-z
5 2/3+x,1/3+y,1/3+z
6 2/3-y,1/3+x-y,1/3+z
7 2/3-x+y,1/3-x,1/3+z
8 2/3+y,1/3+x,5/6-z
9 1/3+x,2/3+y,2/3+z
10 1/3+y,2/3+x,1/6-z
11 x-y,-y,1/2-z
12 -x,-x+y,1/2-z
13 1/3-y,2/3+x-y,2/3+z
14 1/3-x+y,2/3-x,2/3+z
15 1/3+x-y,2/3-y,1/6-z
16 1/3-x,2/3-x+y,1/6-z
17 2/3+x-y,1/3-y,5/6-z
18 2/3-x,1/3-x+y,5/6-z
19 -x,-y,-z
20 y,-x+y,-z
21 x-y,x,-z
22 -y,-x,1/2+z
23 1/3-x,2/3-y,2/3-z
24 1/3+y,2/3-x+y,2/3-z
25 1/3+x-y,2/3+x,2/3-z
26 1/3-y,2/3-x,1/6+z
27 2/3-x,1/3-y,1/3-z
28 2/3-y,1/3-x,5/6+z
29 -x+y,y,1/2+z
30 x,x-y,1/2+z
31 2/3+y,1/3-x+y,1/3-z
32 2/3+x-y,1/3+x,1/3-z
33 2/3-x+y,1/3+y,5/6+z
34 2/3+x,1/3+x-y,5/6+z
35 1/3-x+y,2/3+y,1/6+z
36 1/3+x,2/3+x-y,1/6+z
_cell_length_a                   27.476(4)
_cell_length_b                   27.476(4)
_cell_length_c                   66.576(8)
_cell_angle_alpha                90
_cell_angle_beta                 90
_cell_angle_gamma                120
_cell_volume                     43526.7
loop_
_atom_site_label
_atom_site_type_symbol
_atom_site_fract_x
_atom_site_fract_y
_atom_site_fract_z
Mn1 Mn 0.16832(3) 0.36186(3) 0.048182(11)
Mn2 Mn 0.25011(3) 0.39192(3) 0.085354(10)
Mn3 Mn 0.28374(3) 0.32697(3) 0.046810(11)
O1 O 0.27837(18) 0.36803(18) 0.02076(6)
O2 O 0.18823(18) 0.34514(18) 0.01933(6)
C1 C 0.2350(3) 0.3612(3) 0.01159(8)
C2 C 0.2417(3) 0.3741(4) -0.01089(10)
C3 C 0.2000(11) 0.3125(9) -0.02114(19)
H1 H 0.2008 0.3164 -0.0355
H2 H 0.1623 0.2985 -0.0164
H3 H 0.2125 0.2867 -0.0175
C4 C 0.2107(5) 0.4000(10) -0.01738(19)
H4 H 0.2289 0.4382 -0.0127
H5 H 0.1733 0.3799 -0.0119
H6 H 0.2088 0.3993 -0.0318
C5 C 0.2923(6) 0.3809(11) -0.01875(16)
H7 H 0.3233 0.4153 -0.0138
H8 H 0.2914 0.3821 -0.0331
H9 H 0.2967 0.3498 -0.0146
O3 O 0.26885(16) 0.44652(15) 0.10682(5)
O4 O 0.30372(16) 0.41855(16) 0.13143(5)
C6 C 0.2912(2) 0.4522(2) 0.12371(9)
C7 C 0.3048(3) 0.5050(3) 0.13547(10)
C8 C 0.2757(8) 0.5303(6) 0.1283(2)
H10 H 0.2832 0.5382 0.1142
H11 H 0.2873 0.5648 0.1354
H12 H 0.2361 0.5056 0.1303
C9 C 0.3651(5) 0.5440(5) 0.1340(3)
H13 H 0.3750 0.5552 0.1203
H14 H 0.3852 0.5259 0.1387
H15 H 0.3750 0.5765 0.1421
C10 C 0.2957(10) 0.4898(6) 0.15795(17)
H16 H 0.3039 0.5226 0.1656
H17 H 0.3202 0.4761 0.1621
H18 H 0.2573 0.4612 0.1601
O5 O 0.23267(16) 0.44701(15) 0.04303(5)
O6 O 0.29146(15) 0.45598(14) 0.06752(5)
O7 O 0.22335(13) 0.33867(13) 0.06426(4)
C11 C 0.2776(2) 0.4741(2) 0.05232(9)
C12 C 0.3212(3) 0.5325(3) 0.04537(11)
C13 C 0.3656(6) 0.5280(7) 0.0355(3)
H19 H 0.3506 0.5037 0.0240
H20 H 0.3815 0.5129 0.0447
H21 H 0.3942 0.5646 0.0312
C14 C 0.3439(7) 0.5710(4) 0.06426(19)
H22 H 0.3141 0.5745 0.0703
H23 H 0.3737 0.6075 0.0604
H24 H 0.3580 0.5548 0.0738
C15 C 0.2951(4) 0.5570(4) 0.0320(2)
H25 H 0.2665 0.5600 0.0393
H26 H 0.2786 0.5331 0.0205
H27 H 0.3234 0.5937 0.0276
O8 O 0.17256(14) 0.39749(14) 0.07997(5)
O9 O 0.13606(16) 0.37754(15) 0.11075(6)
C16 C 0.1460(2) 0.4036(2) 0.09446(8)
C17 C 0.1247(3) 0.4440(3) 0.09184(9)
C18 C 0.1645(4) 0.4929(3) 0.07826(14)
H28 H 0.1675 0.4785 0.0655
H29 H 0.2009 0.5129 0.0844
H30 H 0.1499 0.5179 0.0764
C19 C 0.1196(5) 0.4677(4) 0.11188(11)
H31 H 0.0951 0.4374 0.1206
H32 H 0.1043 0.4920 0.1097
H33 H 0.1560 0.4887 0.1179
C20 C 0.0670(4) 0.4112(4) 0.08198(16)
H34 H 0.0423 0.3806 0.0905
H35 H 0.0706 0.3967 0.0693
H36 H 0.0519 0.4356 0.0799
O10 O 0.33093(14) 0.39278(14) 0.09118(5)
O11 O 0.35946(15) 0.39026(16) 0.06010(5)
C21 C 0.3692(2) 0.4073(2) 0.07805(8)
C22 C 0.4295(2) 0.4466(2) 0.08441(8)
C23 C 0.4303(3) 0.4860(4) 0.10071(13)
H37 H 0.4073 0.4642 0.1118
H38 H 0.4158 0.5087 0.0954
H39 H 0.4681 0.5098 0.1053
C24 C 0.4524(3) 0.4108(3) 0.09263(14)
H40 H 0.4521 0.3864 0.0823
H41 H 0.4295 0.3887 0.1036
H42 H 0.4903 0.4346 0.0972
C25 C 0.4667(3) 0.4813(3) 0.06672(11)
H43 H 0.4659 0.4564 0.0564
H44 H 0.5047 0.5045 0.0713
H45 H 0.4529 0.5045 0.0614
O12 O 0.03689(17) 0.34186(18) -0.02990(6)
N1 N 0.05380(19) 0.36900(19) -0.01314(7)
C26 C 0.0646(3) 0.4274(2) -0.01119(9)
C27 C 0.1045(3) 0.4619(4) -0.02808(11)
H46 H 0.0857 0.4491 -0.0408
H47 H 0.1158 0.5008 -0.0263
H48 H 0.1370 0.4575 -0.0279
C28 C 0.0081(3) 0.4242(3) -0.01339(12)
H49 H -0.0051 0.4140 -0.0270
H50 H -0.0184 0.3965 -0.0043
H51 H 0.0120 0.4601 -0.0104
C29 C 0.0909(3) 0.4435(3) 0.01061(9)
C30 C 0.0562(6) 0.4546(3) 0.02563(11)
H52 H 0.0750 0.4641 0.0384
H53 H 0.0517 0.4852 0.0209
H54 H 0.0200 0.4215 0.0270
C31 C 0.1512(4) 0.4893(5) 0.01127(15)
H55 H 0.1636 0.4970 0.0250
H56 H 0.1738 0.4776 0.0040
H57 H 0.1548 0.5227 0.0052
N2 N 0.08919(19) 0.39082(19) 0.01688(7)
O13 O 0.10626(18) 0.38668(16) 0.03450(6)
C32 C 0.0668(2) 0.3496(2) 0.00324(8)
C33 C 0.0584(3) 0.2924(3) 0.00511(10)
H58 H 0.0413 0.2716 -0.0069
H59 H 0.0941 0.2947 0.0071
H60 H 0.0344 0.2738 0.0164
O9N O 0.09185(22) 0.28913(15) 0.05592(6)
Mn2N Mn 0.19152(4) 0.27475(3) 0.081313(10)
O7N O 0.21801(18) 0.32800(13) 0.10241(4)
O4N O 0.21850(23) 0.24812(16) 0.03524(5)
O10N O 0.27148(20) 0.27389(14) 0.07549(5)
O12S O 0.34186(18) 0.30497(25) 0.02990(6)
Mn3N Mn 0.29010(4) 0.33970(3) 0.119857(11)
Mn1N Mn 0.13979(4) 0.30481(3) 0.118485(11)
Mn3T Mn -0.04323(4) 0.28374(3) -0.046810(11)
loop_
_geom_bond_atom_site_label_1
_geom_bond_atom_site_label_2
_geom_bond_site_symmetry_1
_geom_bond_site_symmetry_2
Mn1 O2 1_555 1_555
Mn2 O3 1_555 1_555
Mn3 O1 1_555 1_555
O1 C1 1_555 1_555
O2 C1 1_555 1_555
C1 C2 1_555 1_555
C2 C3 1_555 1_555
C3 H1 1_555 1_555
H2 C3 1_555 1_555
H3 C3 1_555 1_555
C4 C2 1_555 1_555
H4 C4 1_555 1_555
H5 C4 1_555 1_555
H6 C4 1_555 1_555
C5 C2 1_555 1_555
H7 C5 1_555 1_555
H8 C5 1_555 1_555
H9 C5 1_555 1_555
O3 C6 1_555 1_555
O4 C6 1_555 1_555
C6 C7 1_555 1_555
C7 C8 1_555 1_555
C8 H10 1_555 1_555
H11 C8 1_555 1_555
H12 C8 1_555 1_555
C9 C7 1_555 1_555
H13 C9 1_555 1_555
H14 C9 1_555 1_555
H15 C9 1_555 1_555
C10 C7 1_555 1_555
H16 C10 1_555 1_555
H17 C10 1_555 1_555
H18 C10 1_555 1_555
O5 Mn1 1_555 1_555
O6 Mn2 1_555 1_555
O7 Mn1 1_555 1_555
C11 O5 1_555 1_555
C12 C11 1_555 1_555
C13 C12 1_555 1_555
H19 C13 1_555 1_555
H20 C13 1_555 1_555
H21 C13 1_555 1_555
C14 C12 1_555 1_555
H22 C14 1_555 1_555
H23 C14 1_555 1_555
H24 C14 1_555 1_555
C15 C12 1_555 1_555
H25 C15 1_555 1_555
H26 C15 1_555 1_555
H27 C15 1_555 1_555
O8 Mn1 1_555 1_555
O9 C16 1_555 1_555
C16 O8 1_555 1_555
C17 C16 1_555 1_555
C18 C17 1_555 1_555
H28 C18 1_555 1_555
H29 C18 1_555 1_555
H30 C18 1_555 1_555
C19 C17 1_555 1_555
H31 C19 1_555 1_555
H32 C19 1_555 1_555
H33 C19 1_555 1_555
C20 C17 1_555 1_555
H34 C20 1_555 1_555
H35 C20 1_555 1_555
H36 C20 1_555 1_555
O10 Mn2 1_555 1_555
O11 Mn3 1_555 1_555
C21 O10 1_555 1_555
C22 C21 1_555 1_555
C23 C22 1_555 1_555
H37 C23 1_555 1_555
H38 C23 1_555 1_555
H39 C23 1_555 1_555
C24 C22 1_555 1_555
H40 C24 1_555 1_555
H41 C24 1_555 1_555
H42 C24 1_555 1_555
C25 C22 1_555 1_555
H43 C25 1_555 1_555
H44 C25 1_555 1_555
H45 C25 1_555 1_555
O12 N1 1_555 1_555
N1 C26 1_555 1_555
C26 C27 1_555 1_555
C27 H46 1_555 1_555
H47 C27 1_555 1_555
H48 C27 1_555 1_555
C28 C26 1_555 1_555
H49 C28 1_555 1_555
H50 C28 1_555 1_555
H51 C28 1_555 1_555
C29 C26 1_555 1_555
C30 C29 1_555 1_555
H52 C30 1_555 1_555
H53 C30 1_555 1_555
H54 C30 1_555 1_555
C31 C29 1_555 1_555
H55 C31 1_555 1_555
H56 C31 1_555 1_555
H57 C31 1_555 1_555
N2 C29 1_555 1_555
O13 Mn1 1_555 1_555
C32 N1 1_555 1_555
C33 C32 1_555 1_555
H58 C33 1_555 1_555
H59 C33 1_555 1_555
H60 C33 1_555 1_555
O9N Mn1 1_555 1_555
Mn2N Mn2 1_555 1_555
O7N Mn2 1_555 1_555
O4N Mn3 1_555 1_555
O10N Mn3 1_555 1_555
O12S Mn3 1_555 1_555
Mn3N O4 1_555 1_555
Mn1N O9 1_555 1_555
Mn3T O12 1_555 1_555
Mn2 O7 1_555 1_555
Mn2 O8 1_555 1_555
Mn3 O7 1_555 1_555
O6 C11 1_555 1_555
O7 Mn2N 1_555 1_555
O10 Mn3N 1_555 1_555
O11 C21 1_555 1_555
N2 O13 1_555 1_555
N2 C32 1_555 1_555
Mn2N O7N 1_555 1_555
Mn2N O10N 1_555 1_555
O7N Mn3N 1_555 1_555
O7N Mn1N 1_555 1_555

#END
