
#######################################################################
#
#                 Cambridge Crystallographic Data Centre
#                                CCDC 
#
#######################################################################
#
# If this CIF has been generated from an entry in the Cambridge 
# Structural Database, then it will include bibliographic, chemical, 
# crystal, experimental, refinement or atomic coordinate data resulting 
# from the CCDC's data processing and validation procedures.
#
#######################################################################

data_EBANAY
_symmetry_cell_setting           monoclinic
_symmetry_space_group_name_H-M   'C 2/c'
_symmetry_Int_Tables_number      15
_space_group_name_Hall           '-C 2yn'
loop_
_symmetry_equiv_pos_site_id
_symmetry_equiv_pos_as_xyz
1 x,y,z
2 -x,y,1/2-z
3 1/2+x,1/2+y,z
4 1/2-x,1/2+y,1/2-z
5 -x,-y,-z
6 x,-y,1/2+z
7 1/2-x,1/2-y,-z
8 1/2+x,1/2-y,1/2+z
_cell_length_a                   17.7887(11)
_cell_length_b                   8.0987(5)
_cell_length_c                   11.1806(6)
_cell_angle_alpha                90
_cell_angle_beta                 97.835(3)
_cell_angle_gamma                90
_cell_volume                     1595.7
loop_
_atom_site_label
_atom_site_type_symbol
_atom_site_fract_x
_atom_site_fract_y
_atom_site_fract_z
Sr1 Sr 0.241424(18) 0.13398(4) 0.31391(3)
O1 O 0.18768(13) 0.3576(3) 0.1428(2)
O2 O 0.10062(14) 0.2021(3) 0.2113(2)
O3 O 0.19221(14) 0.6364(3) -0.0449(2)
O4 O 0.16674(16) 0.4000(3) -0.1444(2)
O5 O 0.15660(17) -0.0546(4) 0.4295(3)
H1 H 0.1594 -0.1553 0.4092
H2 H 0.1094 -0.0520 0.4052
O6 O 0.32683(16) 0.3943(4) 0.3386(2)
H3 H 0.3732 0.3684 0.3391
H4 H 0.3250 0.4212 0.4115
C1 C 0.1196(2) 0.3149(4) 0.1444(3)
C2 C 0.0580(2) 0.4073(4) 0.0654(3)
C3 C 0.07409(19) 0.5059(4) -0.0306(3)
C4 C -0.01548(19) 0.4022(4) 0.0928(3)
H5 H -0.0261 0.3344 0.1555
C5 C 0.15122(19) 0.5128(4) -0.0752(3)
Sr1D Sr -0.241424(18) 0.86602(4) -0.31391(3)
Sr1C Sr 0.258576(18) 0.63398(4) 0.18609(3)
Sr1E Sr 0.241424(18) 0.86602(4) -0.18609(3)
Sr1F Sr 0.258576(18) 0.36602(4) -0.31391(3)
Sr1G Sr -0.258576(18) 0.36602(4) -0.18609(3)
Sr1A Sr -0.241424(18) 0.13398(4) 0.18609(3)
Sr1B Sr -0.258576(18) 0.63398(4) 0.31391(3)
Sr1C_2 Sr 0.258576(18) -0.36602(4) 0.18609(3)
O1D O -0.18768(13) 0.6424(3) -0.1428(2)
O1C O 0.31232(13) -0.1424(3) 0.3572(2)
O1G O -0.31232(13) 1.1424(3) -0.3572(2)
O2D O -0.10062(14) 0.7979(3) -0.2113(2)
O3D O -0.19221(14) 0.3636(3) 0.0449(2)
O3C O 0.30779(14) 0.1364(3) 0.5449(2)
O3E O 0.19221(14) 0.3636(3) 0.4551(2)
O3G O -0.30779(14) 0.8636(3) -0.5449(2)
O3A O -0.19221(14) 0.6364(3) -0.4551(2)
O4D O -0.16674(16) 0.6000(3) 0.1444(2)
O4F O 0.33326(16) 0.1000(3) 0.1444(2)
O4B O -0.33326(16) 0.9000(3) -0.1444(2)
O5D O -0.15660(17) 1.0546(4) -0.4295(3)
H1D H -0.1594 1.1553 -0.4092
H2D H -0.1094 1.0520 -0.4052
O6C O 0.17317(16) -0.1057(4) 0.1614(2)
O6D O -0.32683(16) 0.6057(4) -0.3386(2)
O6G O -0.17317(16) 1.1057(4) -0.1614(2)
H3C H 0.1268 -0.1316 0.1609
H3D H -0.3732 0.6316 -0.3391
H3G H -0.1268 1.1316 -0.1609
H4C H 0.1750 -0.0788 0.0885
H4D H -0.3250 0.5788 -0.4115
H4G H -0.1750 1.0788 -0.0885
C1D C -0.1196(2) 0.6851(4) -0.1444(3)
C2D C -0.0580(2) 0.5927(4) -0.0654(3)
C3D C -0.07409(19) 0.4941(4) 0.0306(3)
C4D C 0.01548(19) 0.5978(4) -0.0928(3)
H5D H 0.0261 0.6656 -0.1555
C5D C -0.15122(19) 0.4872(4) 0.0752(3)
loop_
_geom_bond_atom_site_label_1
_geom_bond_atom_site_label_2
_geom_bond_site_symmetry_1
_geom_bond_site_symmetry_2
Sr1 O1 1_555 1_555
O1 C1 1_555 1_555
O2 Sr1 1_555 1_555
O3 C5 1_555 1_555
O4 C5 1_555 1_555
O5 Sr1 1_555 1_555
H1 O5 1_555 1_555
H2 O5 1_555 1_555
O6 Sr1 1_555 1_555
H3 O6 1_555 1_555
H4 O6 1_555 1_555
C1 O2 1_555 1_555
C2 C1 1_555 1_555
C3 C2 1_555 1_555
C4 C2 1_555 1_555
H5 C4 1_555 1_555
C5 C3 1_555 1_555
Sr1D O1D 1_555 1_555
Sr1C O1 1_555 1_555
Sr1E O3 1_555 1_555
Sr1F O4 1_555 1_555
Sr1G O1D 1_555 1_555
Sr1A O3D 1_555 1_555
Sr1B O4D 1_555 1_555
Sr1C_2 O1C 1_555 1_555
O1D C1D 1_555 1_555
O1C Sr1 1_555 1_555
O1G Sr1D 1_555 1_555
O2D Sr1D 1_555 1_555
O3D Sr1G 1_555 1_555
O3C Sr1 1_555 1_555
O3E Sr1 1_555 1_555
O3G Sr1D 1_555 1_555
O3A Sr1D 1_555 1_555
O4D C5D 1_555 1_555
O4F Sr1 1_555 1_555
O4B Sr1D 1_555 1_555
O5D Sr1D 1_555 1_555
H1D O5D 1_555 1_555
H2D O5D 1_555 1_555
O6C Sr1 1_555 1_555
O6D Sr1D 1_555 1_555
O6G Sr1D 1_555 1_555
H3C O6C 1_555 1_555
H3D O6D 1_555 1_555
H3G O6G 1_555 1_555
H4C O6C 1_555 1_555
H4D O6D 1_555 1_555
H4G O6G 1_555 1_555
C1D O2D 1_555 1_555
C2D C1D 1_555 1_555
C3D C4 1_555 1_555
C4D C3 1_555 1_555
H5D C4D 1_555 1_555
C5D O3D 1_555 1_555
O3 Sr1C 1_555 1_555
O6 Sr1C 1_555 1_555
Sr1G O6D 1_555 1_555
Sr1C_2 O6C 1_555 1_555
C2D C3D 1_555 1_555
C2D C4D 1_555 1_555
C3D C5D 1_555 1_555

#END
