
#######################################################################
#
#                 Cambridge Crystallographic Data Centre
#                                CCDC 
#
#######################################################################
#
# If this CIF has been generated from an entry in the Cambridge 
# Structural Database, then it will include bibliographic, chemical, 
# crystal, experimental, refinement or atomic coordinate data resulting 
# from the CCDC's data processing and validation procedures.
#
#######################################################################

data_EBAQUU
_symmetry_cell_setting           monoclinic
_symmetry_space_group_name_H-M   'P 21/c'
_symmetry_Int_Tables_number      14
_space_group_name_Hall           '-P 2ybc'
loop_
_symmetry_equiv_pos_site_id
_symmetry_equiv_pos_as_xyz
1 x,y,z
2 x,1/2-y,1/2+z
3 -x,-y,-z
4 -x,1/2+y,1/2-z
_cell_length_a                   18.2660(3)
_cell_length_b                   10.2780(3)
_cell_length_c                   12.5540(6)
_cell_angle_alpha                90
_cell_angle_beta                 103.9760(11)
_cell_angle_gamma                90
_cell_volume                     2287.09
loop_
_atom_site_label
_atom_site_type_symbol
_atom_site_fract_x
_atom_site_fract_y
_atom_site_fract_z
N3 N -0.9196(10) -0.5124(18) -0.9387(14)
C25 C -0.9613(14) -0.394(2) -0.9759(18)
C26 C -0.9659(14) -0.613(2) -0.9740(18)
C26B C -1.0341(14) -0.387(2) -1.0260(18)
N3B N -1.0804(10) -0.4876(18) -1.0613(14)
C25B C -1.0387(14) -0.606(2) -1.0241(18)
Pt1 Pt 0.0000 0.0000 0.0000
Zn1 Zn 0.46040(4) -0.23976(7) 0.79768(5)
C1 C -0.1517(3) 0.0468(6) -0.1587(5)
C2 C -0.2311(3) 0.0174(6) -0.1757(4)
H1 H 0.2704 -0.0448 0.2358
C3 C -0.2389(3) -0.0566(6) -0.0901(4)
H2 H 0.2849 0.0891 0.0782
C4 C -0.1645(3) -0.0772(6) -0.0200(5)
C5 C -0.1486(3) -0.1492(6) 0.0760(5)
C6 C -0.0471(4) 0.1606(7) -0.2091(5)
C7 C -0.0170(4) 0.2477(9) -0.2773(6)
H3 H -0.0449 0.2933 -0.3399
C8 C 0.0586(4) 0.2527(9) -0.2356(6)
H4 H 0.0936 0.3028 -0.2633
C9 C 0.0760(4) 0.1691(7) -0.1428(5)
C10 C -0.1226(3) 0.1281(6) -0.2266(5)
N1 N 0.1121(3) 0.0121(5) 0.0633(4)
N2 N -0.0104(3) -0.1162(5) 0.1253(4)
C11 C -0.2154(3) -0.1993(6) 0.1148(5)
C12 C -0.2304(4) -0.1461(6) 0.2097(5)
H5 H 0.1944 0.0909 -0.2555
C13 C -0.2976(3) -0.1737(6) 0.2370(5)
H6 H 0.3080 0.1354 -0.3007
C14 C -0.3505(3) -0.2573(6) 0.1724(4)
C15 C 0.3326(3) 0.3159(6) -0.0820(4)
H7 H 0.3663 0.3773 -0.0396
C16 C 0.2661(3) 0.2855(6) -0.0536(5)
H8 H 0.2552 0.3248 0.0093
C17 C -0.4247(4) -0.2830(6) 0.1993(4)
C18 C 0.1788(3) -0.1824(6) 0.3244(5)
C19 C 0.2172(4) -0.2955(7) 0.3146(5)
H9 H 0.2045 -0.3445 0.2486
C20 C 0.2749(4) -0.3376(6) 0.4025(5)
H10 H 0.3011 -0.4158 0.3958
C21 C 0.2944(3) -0.2674(6) 0.4986(4)
C22 C 0.2535(4) -0.1563(7) 0.5090(5)
H11 H 0.2650 -0.1087 0.5758
C23 C 0.1958(4) -0.1141(7) 0.4223(5)
H12 H 0.1680 -0.0382 0.4302
C24 C 0.3614(3) -0.3080(6) 0.5899(4)
O1 O -0.4393(2) -0.2118(4) 0.2769(3)
O2 O 0.4687(2) 0.3656(4) -0.1481(3)
O3 O 0.3695(2) -0.2438(4) 0.6790(3)
O4 O 0.4039(2) -0.3954(4) 0.5719(3)
O5 O 0.4590(3) -0.0566(5) 0.8592(4)
H13 H 0.5112 -0.0116 0.8624
H14 H 0.4360 -0.0505 0.9209
O6 O 0.4403(3) -0.3677(5) 0.9116(4)
H15 H 0.4616 -0.3606 0.9950
H16 H 0.4401 -0.4622 0.9002
Zn1A Zn -0.53960(4) -0.26024(7) 0.29768(5)
C5B C 0.1486(3) 0.1492(6) -0.0760(5)
C4B C 0.1645(3) 0.0772(6) 0.0200(5)
C3B C 0.2389(3) 0.0566(6) 0.0901(4)
C2B C 0.2311(3) -0.0174(6) 0.1757(4)
C1B C 0.1517(3) -0.0468(6) 0.1587(5)
C10B C 0.1226(3) -0.1281(6) 0.2266(5)
C6B C 0.0471(4) -0.1606(7) 0.2091(5)
C7B C 0.0170(4) -0.2477(9) 0.2773(6)
H3B H 0.0449 -0.2933 0.3399
C8B C -0.0586(4) -0.2527(9) 0.2356(6)
H4B H -0.0936 -0.3028 0.2633
C9B C -0.0760(4) -0.1691(7) 0.1428(5)
N1B N -0.1121(3) -0.0121(5) -0.0633(4)
N2B N 0.0104(3) 0.1162(5) -0.1253(4)
O1A O 0.5607(2) -0.2882(4) 0.7769(3)
C11B C 0.2154(3) 0.1993(6) -0.1148(5)
C12B C 0.2304(4) 0.1461(6) -0.2097(5)
C13B C 0.2976(3) 0.1737(6) -0.2370(5)
C14B C 0.3505(3) 0.2573(6) -0.1724(4)
C17B C 0.4247(4) 0.2830(6) -0.1993(4)
O1B O 0.4393(2) 0.2118(4) -0.2769(3)
Zn1C Zn 0.53960(4) 0.26024(7) -0.29768(5)
C18B C -0.1788(3) 0.1824(6) -0.3244(5)
C19B C -0.2172(4) 0.2955(7) -0.3146(5)
H9B H -0.2045 0.3445 -0.2486
C20B C -0.2749(4) 0.3376(6) -0.4025(5)
H10B H -0.3011 0.4158 -0.3958
C21B C -0.2944(3) 0.2674(6) -0.4986(4)
C22B C -0.2535(4) 0.1563(7) -0.5090(5)
H11B H -0.2650 0.1087 -0.5758
C23B C -0.1958(4) 0.1141(7) -0.4223(5)
H12B H -0.1680 0.0382 -0.4302
C24B C -0.3614(3) 0.3080(6) -0.5899(4)
O3B O -0.3695(2) 0.2438(4) -0.6790(3)
Zn1B Zn -0.46040(4) 0.23976(7) -0.79768(5)
O1C O -0.5607(2) 0.2882(4) -0.7769(3)
O5B O -0.4590(3) 0.0566(5) -0.8592(4)
H13B H -0.5112 0.0116 -0.8624
H14B H -0.4360 0.0505 -0.9209
O6B O -0.4403(3) 0.3677(5) -0.9116(4)
H15B H -0.4616 0.3606 -0.9950
H16B H -0.4401 0.4622 -0.9002
O4B O -0.4039(2) 0.3954(4) -0.5719(3)
H1B H -0.2704 0.0448 -0.2358
H2B H -0.2849 -0.0891 -0.0782
C16B C -0.2661(3) -0.2855(6) 0.0536(5)
C15B C -0.3326(3) -0.3159(6) 0.0820(4)
H7B H -0.3663 -0.3773 0.0396
H8B H -0.2552 -0.3248 -0.0093
H5B H -0.1944 -0.0909 0.2555
H6B H -0.3080 -0.1354 0.3007
O2B O -0.4687(2) -0.3656(4) 0.1481(3)
loop_
_geom_bond_atom_site_label_1
_geom_bond_atom_site_label_2
_geom_bond_site_symmetry_1
_geom_bond_site_symmetry_2
Pt1 N1 1_555 1_555
Zn1 O3 1_555 1_555
C1 C2 1_555 1_555
C2 C3 1_555 1_555
H1 C2B 1_555 1_555
C3 C4 1_555 1_555
H2 C3B 1_555 1_555
C4 C5 1_555 1_555
C5 C11 1_555 1_555
C6 C7 1_555 1_555
C7 H3 1_555 1_555
C8 C7 1_555 1_555
H4 C8 1_555 1_555
C9 C8 1_555 1_555
C10 C1 1_555 1_555
N1 C4B 1_555 1_555
N2 Pt1 1_555 1_555
C11 C12 1_555 1_555
C12 C13 1_555 1_555
H5 C12B 1_555 1_555
C13 C14 1_555 1_555
H6 C13B 1_555 1_555
C14 C17 1_555 1_555
C15 H7 1_555 1_555
C16 C15 1_555 1_555
H8 C16 1_555 1_555
C17 O1 1_555 1_555
C18 C19 1_555 1_555
C19 H9 1_555 1_555
C20 C19 1_555 1_555
H10 C20 1_555 1_555
C21 C20 1_555 1_555
C22 C21 1_555 1_555
H11 C22 1_555 1_555
C23 C18 1_555 1_555
H12 C23 1_555 1_555
C24 C21 1_555 1_555
O1 Zn1A 1_555 1_555
O2 C17B 1_555 1_555
O3 C24 1_555 1_555
O4 C24 1_555 1_555
O5 Zn1 1_555 1_555
H13 O5 1_555 1_555
H14 O5 1_555 1_555
O6 Zn1 1_555 1_555
H15 O6 1_555 1_555
H16 O6 1_555 1_555
N3 C25 1_555 1_555
C25 C26B 1_555 1_555
C26 N3 1_555 1_555
C5B C9 1_555 1_555
C4B C5B 1_555 1_555
C3B C4B 1_555 1_555
C2B C3B 1_555 1_555
C1B N1 1_555 1_555
C10B C18 1_555 1_555
C6B N2 1_555 1_555
C7B C6B 1_555 1_555
H3B C7B 1_555 1_555
C8B C7B 1_555 1_555
H4B C8B 1_555 1_555
C9B C5 1_555 1_555
N1B Pt1 1_555 1_555
N2B Pt1 1_555 1_555
O1A Zn1 1_555 1_555
C11B C16 1_555 1_555
C12B C11B 1_555 1_555
C13B C12B 1_555 1_555
C14B C15 1_555 1_555
C17B C14B 1_555 1_555
O1B C17B 1_555 1_555
Zn1C O1B 1_555 1_555
C18B C10 1_555 1_555
C19B C18B 1_555 1_555
H9B C19B 1_555 1_555
C20B C19B 1_555 1_555
H10B C20B 1_555 1_555
C21B C20B 1_555 1_555
C22B C21B 1_555 1_555
H11B C22B 1_555 1_555
C23B C18B 1_555 1_555
H12B C23B 1_555 1_555
C24B C21B 1_555 1_555
O3B C24B 1_555 1_555
Zn1B O3B 1_555 1_555
O1C Zn1B 1_555 1_555
O5B Zn1B 1_555 1_555
H13B O5B 1_555 1_555
H14B O5B 1_555 1_555
O6B Zn1B 1_555 1_555
H15B O6B 1_555 1_555
H16B O6B 1_555 1_555
O4B C24B 1_555 1_555
H1B C2 1_555 1_555
H2B C3 1_555 1_555
C16B C11 1_555 1_555
C15B C14 1_555 1_555
H7B C15B 1_555 1_555
H8B C16B 1_555 1_555
H5B C12 1_555 1_555
H6B C13 1_555 1_555
O2B C17 1_555 1_555
C26B N3B 1_555 1_555
N3B C25B 1_555 1_555
C25B C26 1_555 1_555
C1 N1B 1_555 1_555
C4 N1B 1_555 1_555
C6 C10 1_555 1_555
C6 N2B 1_555 1_555
C9 N2B 1_555 1_555
N2 C9B 1_555 1_555
C22 C23 1_555 1_555
C5B C11B 1_555 1_555
C2B C1B 1_555 1_555
C1B C10B 1_555 1_555
C10B C6B 1_555 1_555
C8B C9B 1_555 1_555
C13B C14B 1_555 1_555
C22B C23B 1_555 1_555
C16B C15B 1_555 1_555

#END
