
#######################################################################
#
#                 Cambridge Crystallographic Data Centre
#                                CCDC 
#
#######################################################################
#
# If this CIF has been generated from an entry in the Cambridge 
# Structural Database, then it will include bibliographic, chemical, 
# crystal, experimental, refinement or atomic coordinate data resulting 
# from the CCDC's data processing and validation procedures.
#
#######################################################################

data_EBAQOP
_symmetry_cell_setting           triclinic
_symmetry_space_group_name_H-M   'P -1'
_symmetry_Int_Tables_number      2
_space_group_name_Hall           '-P 1'
loop_
_symmetry_equiv_pos_site_id
_symmetry_equiv_pos_as_xyz
1 x,y,z
2 -x,-y,-z
_cell_length_a                   6.6859(3)
_cell_length_b                   10.1524(4)
_cell_length_c                   10.3615(4)
_cell_angle_alpha                109.189(2)
_cell_angle_beta                 91.025(2)
_cell_angle_gamma                107.372(2)
_cell_volume                     628.668
loop_
_atom_site_label
_atom_site_type_symbol
_atom_site_fract_x
_atom_site_fract_y
_atom_site_fract_z
C1 C 0.1722(4) -0.5438(3) -0.2306(3)
C2 C 0.1830(4) -0.5756(3) -0.0072(3)
C3 C 0.0507(4) -0.7222(3) -0.0699(3)
H1 H 0.0086 -0.7826 -0.0155
C4 C -0.0196(4) -0.7800(3) -0.2104(3)
N1 N 0.2384(3) -0.4935(2) -0.0946(2)
H2 H 0.3231 -0.4021 -0.0575
N2 N 0.0489(3) -0.6851(2) -0.2854(2)
H3 H 0.0078 -0.7211 -0.3747
O1 O 0.2555(3) -0.5115(2) 0.11803(18)
O2 O -0.1374(3) -0.91040(19) -0.27911(18)
S1 S 0.24171(11) -0.43444(7) -0.32551(7)
C5 C -0.4189(4) -0.1667(3) -0.6207(3)
C6 C -0.4337(4) -0.1361(3) -0.8443(3)
C7 C -0.2829(4) 0.0171(3) -0.7825(3)
H4 H -0.1655 0.0273 -0.8392
H5 H -0.3570 0.0862 -0.7889
C8 C -0.1900(4) 0.0637(3) -0.6358(3)
N3 N -0.4842(3) -0.2179(2) -0.7597(2)
H6 H -0.5647 -0.3104 -0.7978
N4 N -0.2725(3) -0.0292(2) -0.5651(2)
H7 H -0.2273 0.0023 -0.4765
O3 O -0.5101(3) -0.1887(2) -0.96540(19)
O4 O -0.0509(3) 0.18102(19) -0.57818(18)
S2 S -0.51130(11) -0.26630(7) -0.52441(7)
K1 K -0.22411(9) -0.38251(6) -0.33013(6)
O5 O -0.2082(3) -0.1167(2) -0.1492(2)
H8 H -0.206(5) -0.045(3) -0.188(3)
H9 H -0.322(4) -0.123(4) -0.096(3)
K1A K 0.22411(9) -0.61749(6) 0.33013(6)
K1A_2 K 0.22411(9) 0.38251(6) -0.66987(6)
S1A S -0.24171(11) -0.56556(7) -0.67449(7)
S1_2 S -0.75829(11) -0.43444(7) -0.32551(7)
S2A S -0.48870(11) -0.73370(7) -0.47559(7)
O1A O -0.2555(3) -0.4885(2) -0.11803(18)
O4A O 0.0509(3) -0.18102(19) -0.42182(18)
K1A_3 K -0.77589(9) -0.61749(6) -0.66987(6)
K1A_4 K 0.22411(9) -0.61749(6) -0.66987(6)
K1_2 K 0.77589(9) -0.38251(6) -0.33013(6)
loop_
_geom_bond_atom_site_label_1
_geom_bond_atom_site_label_2
_geom_bond_site_symmetry_1
_geom_bond_site_symmetry_2
C1 N1 1_555 1_555
C2 C3 1_555 1_555
C3 H1 1_555 1_555
C4 C3 1_555 1_555
N1 C2 1_555 1_555
H2 N1 1_555 1_555
N2 C1 1_555 1_555
H3 N2 1_555 1_555
O1 C2 1_555 1_555
O2 C4 1_555 1_555
S1 C1 1_555 1_555
C5 N3 1_555 1_555
C6 C7 1_555 1_555
C7 H4 1_555 1_555
H5 C7 1_555 1_555
C8 C7 1_555 1_555
N3 C6 1_555 1_555
H6 N3 1_555 1_555
N4 C5 1_555 1_555
H7 N4 1_555 1_555
O3 C6 1_555 1_555
O4 C8 1_555 1_555
S2 C5 1_555 1_555
K1 S1 1_555 1_555
O5 K1 1_555 1_555
H8 O5 1_555 1_555
H9 O5 1_555 1_555
K1A O1 1_555 1_555
K1A_2 O4 1_555 1_555
S1A K1 1_555 1_555
S1_2 K1 1_555 1_555
S2A K1 1_555 1_555
O1A K1 1_555 1_555
O4A K1 1_555 1_555
K1A_3 S2 1_555 1_555
K1A_4 S1 1_555 1_555
K1_2 S1 1_555 1_555
C4 N2 1_555 1_555
C8 N4 1_555 1_555
S2 K1 1_555 1_555
S1A K1A_3 1_555 1_555
S1A K1A_4 1_555 1_555
S1_2 K1A_3 1_555 1_555
S2A K1A_3 1_555 1_555

#END
