
#######################################################################
#
#                 Cambridge Crystallographic Data Centre
#                                CCDC 
#
#######################################################################
#
# If this CIF has been generated from an entry in the Cambridge 
# Structural Database, then it will include bibliographic, chemical, 
# crystal, experimental, refinement or atomic coordinate data resulting 
# from the CCDC's data processing and validation procedures.
#
#######################################################################

data_EBAQOP01
_symmetry_cell_setting           triclinic
_symmetry_space_group_name_H-M   'P -1'
_symmetry_Int_Tables_number      2
_space_group_name_Hall           '-P 1'
loop_
_symmetry_equiv_pos_site_id
_symmetry_equiv_pos_as_xyz
1 x,y,z
2 -x,-y,-z
_cell_length_a                   6.7758(8)
_cell_length_b                   10.2313(16)
_cell_length_c                   10.3893(12)
_cell_angle_alpha                109.055(12)
_cell_angle_beta                 91.005(10)
_cell_angle_gamma                107.745(12)
_cell_volume                     642.883
loop_
_atom_site_label
_atom_site_type_symbol
_atom_site_fract_x
_atom_site_fract_y
_atom_site_fract_z
S1 S 0.74269(8) 0.56572(5) 0.17510(5)
K1 K 0.27772(8) 0.61707(5) 0.17061(5)
O1 O 0.3660(3) 0.09188(15) 0.22107(15)
O2 O 0.7556(2) 0.48933(17) 0.61736(14)
N1 N 0.5501(3) 0.31597(18) 0.21542(17)
N2 N 0.7386(3) 0.50707(19) 0.40577(17)
C1 C 0.4831(3) 0.2214(2) 0.2895(2)
C2 C 0.6736(3) 0.4572(2) 0.26969(19)
C3 C 0.5531(3) 0.2791(2) 0.42990(19)
C4 C 0.6840(3) 0.4247(2) 0.49225(19)
H1 H 0.522(4) 0.219(3) 0.482(3)
H2 H 0.811(4) 0.597(3) 0.443(3)
H3 H 0.513(4) 0.285(3) 0.128(3)
S2 S 0.00904(8) 0.26529(6) 0.02471(5)
N3 N -0.2276(3) 0.02867(19) 0.06499(17)
N4 N -0.0161(3) 0.2161(2) 0.25879(17)
C5 C -0.2163(4) -0.0177(2) 0.2818(2)
C6 C -0.0819(3) 0.1658(2) 0.12086(19)
C7 C -0.3088(3) -0.0643(2) 0.1356(2)
C8 C -0.0667(3) 0.1353(2) 0.3428(2)
H4 H 0.062(5) 0.296(4) 0.290(3)
H5 H -0.270(4) -0.003(3) -0.025(3)
H6 H -0.147(4) -0.080(3) 0.285(3)
H7 H -0.329(5) -0.034(4) 0.328(3)
O3 O 0.0089(3) 0.18700(18) 0.46382(16)
O4 O -0.4472(2) -0.18081(16) 0.07864(14)
O5 O 0.2912(3) 0.8828(2) 0.3494(2)
H8 H 0.189(6) 0.883(4) 0.393(4)
H9 H 0.293(7) 0.954(5) 0.313(5)
S1_2 S -0.25731(8) 0.56572(5) 0.17510(5)
S1A S 0.25731(8) 0.43428(5) -0.17510(5)
K1_2 K 1.27772(8) 0.61707(5) 0.17061(5)
K1A K 0.72228(8) 0.38293(5) -0.17061(5)
K1A_2 K 0.72228(8) 0.38293(5) 0.82939(5)
K1A_3 K -0.27772(8) 0.38293(5) -0.17061(5)
K1_3 K -0.72228(8) -0.38293(5) 0.17061(5)
O2A O 0.2444(2) 0.51067(17) 0.38264(14)
S2A S -0.00904(8) 0.73471(6) -0.02471(5)
O4_2 O 0.5528(2) 0.81919(16) 0.07864(14)
loop_
_geom_bond_atom_site_label_1
_geom_bond_atom_site_label_2
_geom_bond_site_symmetry_1
_geom_bond_site_symmetry_2
S1 K1 1_555 1_555
K1 S2 1_555 1_555
O1 C1 1_555 1_555
O2 C4 1_555 1_555
N1 C1 1_555 1_555
N2 C2 1_555 1_555
C1 C3 1_555 1_555
C2 S1 1_555 1_555
C3 C4 1_555 1_555
C4 N2 1_555 1_555
H1 C3 1_555 1_555
H2 N2 1_555 1_555
H3 N1 1_555 1_555
S2 C6 1_555 1_555
N3 C6 1_555 1_555
N4 C6 1_555 1_555
C5 C7 1_555 1_555
C7 N3 1_555 1_555
C8 N4 1_555 1_555
H4 N4 1_555 1_555
H5 N3 1_555 1_555
H6 C5 1_555 1_555
H7 C5 1_555 1_555
O3 C8 1_555 1_555
O4 C7 1_555 1_555
O5 K1 1_555 1_555
H8 O5 1_555 1_555
H9 O5 1_555 1_555
S1_2 K1 1_555 1_555
S1A K1 1_555 1_555
K1_2 S1 1_555 1_555
K1A S1 1_555 1_555
K1A_2 O2 1_555 1_555
K1A_3 S2 1_555 1_555
K1_3 O4 1_555 1_555
O2A K1 1_555 1_555
S2A K1 1_555 1_555
O4_2 K1 1_555 1_555
N1 C2 1_555 1_555
C5 C8 1_555 1_555
S1_2 K1A_3 1_555 1_555
S1A K1A 1_555 1_555
S1A K1A_3 1_555 1_555
K1A_3 S2A 1_555 1_555

#END
