
#######################################################################
#
#                 Cambridge Crystallographic Data Centre
#                                CCDC 
#
#######################################################################
#
# If this CIF has been generated from an entry in the Cambridge 
# Structural Database, then it will include bibliographic, chemical, 
# crystal, experimental, refinement or atomic coordinate data resulting 
# from the CCDC's data processing and validation procedures.
#
#######################################################################

data_EBAVIO
_symmetry_cell_setting           monoclinic
_symmetry_space_group_name_H-M   'P 21/a'
_symmetry_Int_Tables_number      14
_space_group_name_Hall           '-P 2yab'
loop_
_symmetry_equiv_pos_site_id
_symmetry_equiv_pos_as_xyz
1 x,y,z
2 1/2-x,1/2+y,-z
3 -x,-y,-z
4 1/2+x,1/2-y,z
_cell_length_a                   7.2100(6)
_cell_length_b                   23.614(2)
_cell_length_c                   7.6142(7)
_cell_angle_alpha                90
_cell_angle_beta                 98.051(5)
_cell_angle_gamma                90
_cell_volume                     1283.59
loop_
_atom_site_label
_atom_site_type_symbol
_atom_site_fract_x
_atom_site_fract_y
_atom_site_fract_z
Cu1 Cu 1.05172(7) 0.12111(2) 0.82948(7)
O1 O 1.0409(5) 0.07519(16) 0.5789(5)
H1 H 1.136(9) 0.062(3) 0.538(8)
H2 H 0.948(9) 0.055(3) 0.547(8)
O2 O 0.8314(5) 0.07575(16) 0.9062(5)
H3 H 0.7342 0.0599 0.8406
N1 N 0.9267(5) 0.19356(15) 0.7399(5)
N2 N 0.9781(5) 0.24082(15) 0.8262(5)
N3 N 0.9092(5) 0.28484(15) 0.7273(5)
C1 C 0.8217(6) 0.20761(19) 0.5797(5)
C2 C 0.7365(6) 0.1730(2) 0.4399(6)
H4 H 0.7394 0.1337 0.4459
C3 C 0.6491(7) 0.2016(2) 0.2948(6)
H5 H 0.5929 0.1808 0.1981
C4 C 0.6405(6) 0.2612(2) 0.2852(6)
H6 H 0.579 0.2779 0.1826
C5 C 0.7196(6) 0.2959(2) 0.4220(6)
H7 H 0.7129 0.3352 0.4165
C6 C 0.8112(6) 0.26653(18) 0.5705(5)
C7 C 0.9422(6) 0.34227(18) 0.7958(6)
H8 H 0.9182 0.369 0.6985
H9 H 1.0727 0.346 0.8469
C8 C 0.8200(6) 0.35681(19) 0.9345(6)
H10 H 0.766 0.3278 0.9925
C9 C 0.7869(6) 0.4117(2) 0.9768(7)
H11 H 0.8403 0.4411 0.9196
H12 H 0.711 0.4198 1.0628
C10 C 0.8221(8) 0.0615(2) 1.0864(7)
H13 H 0.916 0.0337 1.1254
H14 H 0.7005 0.0464 1.0967
H15 H 0.8436 0.0948 1.1588
Cu1C Cu 1.55172(7) 0.37889(2) 0.82948(7)
Cu1C_2 Cu 0.55172(7) 0.37889(2) 0.82948(7)
O1C O 1.5409(5) 0.42481(16) 0.5789(5)
H1C H 1.636(9) 0.438(3) 0.538(8)
H2C H 1.448(9) 0.445(3) 0.547(8)
O2C O 1.3314(5) 0.42425(16) 0.9062(5)
H3C H 1.2342 0.4401 0.8406
N1C N 1.4267(5) 0.30644(15) 0.7399(5)
N2C N 1.4781(5) 0.25918(15) 0.8262(5)
N3C N 1.4092(5) 0.21516(15) 0.7273(5)
C1C C 1.3217(6) 0.29239(19) 0.5797(5)
C2C C 1.2365(6) 0.3270(2) 0.4399(6)
H4C H 1.2394 0.3663 0.4459
C3C C 1.1491(7) 0.2984(2) 0.2948(6)
H5C H 1.0929 0.3192 0.1981
C4C C 1.1405(6) 0.2388(2) 0.2852(6)
H6C H 1.079 0.2221 0.1826
C5C C 1.2196(6) 0.2041(2) 0.4220(6)
H7C H 1.2129 0.1648 0.4165
C6C C 1.3112(6) 0.23347(18) 0.5705(5)
C7C C 1.4422(6) 0.15773(18) 0.7958(6)
H8C H 1.4182 0.131 0.6985
H9C H 1.5727 0.154 0.8469
C8C C 1.3200(6) 0.14319(19) 0.9345(6)
C8_2 C 1.8200(6) 0.35681(19) 0.9345(6)
H10C H 1.266 0.1722 0.9925
H10_2 H 1.766 0.3278 0.9925
C9C C 1.2869(6) 0.0883(2) 0.9768(7)
C9_2 C 1.7869(6) 0.4117(2) 0.9768(7)
H11C H 1.3403 0.0589 0.9196
H11_2 H 1.8403 0.4411 0.9196
H12C H 1.211 0.0802 1.0628
H12_2 H 1.711 0.4198 1.0628
C10C C 1.3221(8) 0.4385(2) 1.0864(7)
H13C H 1.416 0.4663 1.1254
H14C H 1.2005 0.4536 1.0967
H15C H 1.3436 0.4052 1.1588
Si1 Si 1.00000 0.50000 0.50000
F1 F 0.9031(5) 0.43628(13) 0.4630(4)
F2 F 1.2079(4) 0.47503(15) 0.4550(4)
F3 F 1.0600(4) 0.48332(14) 0.7157(4)
F1B F 1.0969(5) 0.56372(13) 0.5370(4)
F2B F 0.7921(4) 0.52497(15) 0.5450(4)
F3B F 0.9400(4) 0.51668(14) 0.2843(4)
loop_
_geom_bond_atom_site_label_1
_geom_bond_atom_site_label_2
_geom_bond_site_symmetry_1
_geom_bond_site_symmetry_2
Cu1 O1 1_555 1_555
Si1 F1 1_555 1_555
F2 Si1 1_555 1_555
F3 Si1 1_555 1_555
O1 H1 1_555 1_555
H2 O1 1_555 1_555
O2 Cu1 1_555 1_555
H3 O2 1_555 1_555
N1 Cu1 1_555 1_555
N2 N1 1_555 1_555
N3 N2 1_555 1_555
C1 N1 1_555 1_555
C2 C1 1_555 1_555
H4 C2 1_555 1_555
C3 C2 1_555 1_555
H5 C3 1_555 1_555
C4 C3 1_555 1_555
H6 C4 1_555 1_555
C5 C4 1_555 1_555
H7 C5 1_555 1_555
C6 N3 1_555 1_555
C7 N3 1_555 1_555
H8 C7 1_555 1_555
H9 C7 1_555 1_555
C8 C7 1_555 1_555
H10 C8 1_555 1_555
C9 C8 1_555 1_555
H11 C9 1_555 1_555
H12 C9 1_555 1_555
C10 O2 1_555 1_555
H13 C10 1_555 1_555
H14 C10 1_555 1_555
H15 C10 1_555 1_555
Cu1C O1C 1_555 1_555
Cu1C_2 C8 1_555 1_555
F1B Si1 1_555 1_555
F2B Si1 1_555 1_555
F3B Si1 1_555 1_555
O1C H1C 1_555 1_555
H2C O1C 1_555 1_555
O2C Cu1C 1_555 1_555
H3C O2C 1_555 1_555
N1C Cu1C 1_555 1_555
N2C N1C 1_555 1_555
N3C N2C 1_555 1_555
C1C N1C 1_555 1_555
C2C C1C 1_555 1_555
H4C C2C 1_555 1_555
C3C C2C 1_555 1_555
H5C C3C 1_555 1_555
C4C C3C 1_555 1_555
H6C C4C 1_555 1_555
C5C C4C 1_555 1_555
H7C C5C 1_555 1_555
C6C N3C 1_555 1_555
C7C N3C 1_555 1_555
H8C C7C 1_555 1_555
H9C C7C 1_555 1_555
C8C Cu1 1_555 1_555
C8_2 Cu1C 1_555 1_555
H10C C8C 1_555 1_555
H10_2 C8_2 1_555 1_555
C9C Cu1 1_555 1_555
C9_2 Cu1C 1_555 1_555
H11C C9C 1_555 1_555
H11_2 C9_2 1_555 1_555
H12C C9C 1_555 1_555
H12_2 C9_2 1_555 1_555
C10C O2C 1_555 1_555
H13C C10C 1_555 1_555
H14C C10C 1_555 1_555
H15C C10C 1_555 1_555
C1 C6 1_555 1_555
C5 C6 1_555 1_555
C9 Cu1C_2 1_555 1_555
C1C C6C 1_555 1_555
C5C C6C 1_555 1_555
C7C C8C 1_555 1_555
C8C C9C 1_555 1_555
C8_2 C9_2 1_555 1_555

#END
