
#######################################################################
#
#                 Cambridge Crystallographic Data Centre
#                                CCDC 
#
#######################################################################
#
# If this CIF has been generated from an entry in the Cambridge 
# Structural Database, then it will include bibliographic, chemical, 
# crystal, experimental, refinement or atomic coordinate data resulting 
# from the CCDC's data processing and validation procedures.
#
#######################################################################

data_EBAVAF
_symmetry_cell_setting           orthorhombic
_symmetry_space_group_name_H-M   'P b c n'
_symmetry_Int_Tables_number      60
_space_group_name_Hall           '-P 2n 2ab'
loop_
_symmetry_equiv_pos_site_id
_symmetry_equiv_pos_as_xyz
1 x,y,z
2 1/2+x,1/2+y,1/2-z
3 1/2-x,1/2+y,z
4 x,-y,1/2+z
5 -x,-y,-z
6 1/2-x,1/2-y,1/2+z
7 1/2+x,1/2-y,-z
8 -x,y,1/2-z
_cell_length_a                   29.4481(9)
_cell_length_b                   12.3608(4)
_cell_length_c                   12.3821(3)
_cell_angle_alpha                90
_cell_angle_beta                 90
_cell_angle_gamma                90
_cell_volume                     4507.11
loop_
_atom_site_label
_atom_site_type_symbol
_atom_site_fract_x
_atom_site_fract_y
_atom_site_fract_z
Mn1 Mn 0.307692(16) 0.22455(4) 0.47294(4)
Mn2 Mn 0.557409(16) 0.25086(4) 0.49740(4)
N1 N 0.30755(11) 0.3801(2) 0.3221(2)
O1 O 0.30641(9) 0.40064(18) 0.42340(19)
O2 O 0.30847(10) 0.2813(2) 0.2969(2)
O3 O 0.30750(13) 0.4530(2) 0.2555(2)
N2 N 0.31002(11) 0.1777(2) 0.6395(2)
C1 C 0.31038(13) 0.1416(3) 0.7247(3)
N3 N 0.31174(18) 0.1140(3) 0.8255(3)
C2 C 0.31066(12) 0.0163(3) 0.8616(3)
N4 N 0.31016(11) -0.0656(2) 0.9047(2)
N5 N 0.56163(11) 0.1559(3) 0.6464(3)
C3 C 0.56900(14) 0.1109(3) 0.7258(3)
N6 N 0.57985(19) 0.0730(4) 0.8199(3)
C4 C 0.56830(12) -0.0204(3) 0.8567(3)
N7 N 0.56056(10) -0.0995(2) 0.9009(3)
N8 N 0.55293(10) 0.4021(2) 0.5917(3)
C5 C 0.55931(11) 0.4839(3) 0.6334(3)
N9 N 0.56976(13) 0.5801(3) 0.6678(2)
C6 C 0.56031(12) 0.6159(3) 0.7641(3)
N10 N 0.55419(11) 0.6568(2) 0.8459(2)
N11 N 0.38459(9) 0.2425(2) 0.4838(2)
C7 C 0.41014(11) 0.1774(3) 0.4210(3)
H1 H 0.3954 0.1306 0.3712
C8 C 0.45665(11) 0.1766(3) 0.4267(3)
H2 H 0.4733 0.1297 0.3806
N12 N 0.47921(9) 0.2409(2) 0.4964(2)
C9 C 0.45371(11) 0.3048(3) 0.5585(3)
H3 H 0.4684 0.3507 0.6091
C10 C 0.40648(11) 0.3075(3) 0.5525(3)
C11 C 0.37997(12) 0.3846(3) 0.6217(3)
H4 H 0.3520 0.4055 0.5842
H5 H 0.3983 0.4492 0.6360
H6 H 0.3723 0.3494 0.6903
N13 N 0.23110(9) 0.2322(2) 0.4939(2)
C12 C 0.20578(11) 0.1603(3) 0.4392(3)
H7 H 0.2204 0.1076 0.3956
C13 C 0.15879(11) 0.1614(3) 0.4449(3)
H8 H 0.1420 0.1095 0.4047
N14 N 0.13643(9) 0.2330(2) 0.5052(2)
C14 C 0.16173(11) 0.3020(3) 0.5618(3)
H9 H 0.1468 0.3528 0.6073
C15 C 0.20920(11) 0.3035(3) 0.5576(3)
C16 C 0.23564(11) 0.3844(3) 0.6204(3)
H10 H 0.2589 0.3473 0.6633
H11 H 0.2152 0.4241 0.6687
H12 H 0.2503 0.4353 0.5707
N4C N 0.31016(11) 0.0656(2) 0.4047(2)
N7C N 0.56056(10) 0.0995(2) 0.4009(3)
N10C N 0.55419(11) 0.3432(2) 0.3459(2)
N14F N 0.63643(9) 0.2670(2) 0.4948(2)
Mn1C Mn 0.307692(16) -0.22455(4) 0.97294(4)
Mn2C Mn 0.557409(16) -0.25086(4) 0.99740(4)
Mn2C_2 Mn 0.557409(16) 0.74914(4) 0.99740(4)
Mn2F Mn 0.057409(16) 0.24914(4) 0.50260(4)
loop_
_geom_bond_atom_site_label_1
_geom_bond_atom_site_label_2
_geom_bond_site_symmetry_1
_geom_bond_site_symmetry_2
Mn1 O1 1_555 1_555
Mn2 N5 1_555 1_555
N1 O1 1_555 1_555
O2 Mn1 1_555 1_555
O3 N1 1_555 1_555
N2 Mn1 1_555 1_555
C1 N2 1_555 1_555
N3 C1 1_555 1_555
C2 N3 1_555 1_555
N4 C2 1_555 1_555
N5 C3 1_555 1_555
C3 N6 1_555 1_555
N6 C4 1_555 1_555
C4 N7 1_555 1_555
N7 Mn2C 1_555 1_555
N8 Mn2 1_555 1_555
C5 N8 1_555 1_555
N9 C5 1_555 1_555
C6 N9 1_555 1_555
N10 C6 1_555 1_555
N11 Mn1 1_555 1_555
C7 N11 1_555 1_555
H1 C7 1_555 1_555
C8 C7 1_555 1_555
H2 C8 1_555 1_555
N12 Mn2 1_555 1_555
C9 N12 1_555 1_555
H3 C9 1_555 1_555
C10 N11 1_555 1_555
C11 C10 1_555 1_555
H4 C11 1_555 1_555
H5 C11 1_555 1_555
H6 C11 1_555 1_555
N13 Mn1 1_555 1_555
C12 N13 1_555 1_555
H7 C12 1_555 1_555
C13 C12 1_555 1_555
H8 C13 1_555 1_555
N14 C13 1_555 1_555
C14 N14 1_555 1_555
H9 C14 1_555 1_555
C15 N13 1_555 1_555
C16 C15 1_555 1_555
H10 C16 1_555 1_555
H11 C16 1_555 1_555
H12 C16 1_555 1_555
N4C Mn1 1_555 1_555
N7C Mn2 1_555 1_555
N10C Mn2 1_555 1_555
N14F Mn2 1_555 1_555
Mn1C N4 1_555 1_555
Mn2C_2 N10 1_555 1_555
Mn2F N14 1_555 1_555
N1 O2 1_555 1_555
C8 N12 1_555 1_555
C9 C10 1_555 1_555
C14 C15 1_555 1_555

#END
