
#######################################################################
#
#                 Cambridge Crystallographic Data Centre
#                                CCDC 
#
#######################################################################
#
# If this CIF has been generated from an entry in the Cambridge 
# Structural Database, then it will include bibliographic, chemical, 
# crystal, experimental, refinement or atomic coordinate data resulting 
# from the CCDC's data processing and validation procedures.
#
#######################################################################

data_EBAVEK
_symmetry_cell_setting           monoclinic
_symmetry_space_group_name_H-M   'P 21/a'
_symmetry_Int_Tables_number      14
_space_group_name_Hall           '-P 2yab'
loop_
_symmetry_equiv_pos_site_id
_symmetry_equiv_pos_as_xyz
1 x,y,z
2 1/2-x,1/2+y,-z
3 -x,-y,-z
4 1/2+x,1/2-y,z
_cell_length_a                   7.0762(6)
_cell_length_b                   21.8088(17)
_cell_length_c                   7.5835(6)
_cell_angle_alpha                90
_cell_angle_beta                 92.131(4)
_cell_angle_gamma                90
_cell_volume                     1169.5
loop_
_atom_site_label
_atom_site_type_symbol
_atom_site_fract_x
_atom_site_fract_y
_atom_site_fract_z
Cu1 Cu 0.88584(8) 0.11794(2) 0.39770(7)
Si1 Si 1.00000 0.00000 0.00000
F1 F 1.1401(4) -0.02854(12) 0.1645(3)
F2 F 0.9115(4) 0.05235(12) 0.1392(3)
F3 F 0.8248(4) -0.04924(13) 0.0505(4)
O2 O 0.6476(5) 0.07241(15) 0.4505(5)
H3 H 0.628(8) 0.062(3) 0.547(8)
H4 H 0.616(8) 0.047(3) 0.385(8)
N1 N 0.8153(5) 0.24655(15) 0.3510(5)
N2 N 0.7512(5) 0.28983(16) 0.2393(5)
N3 N 0.7840(5) 0.19249(15) 0.2760(5)
C1 C 0.6980(6) 0.20115(18) 0.1126(6)
C2 C 0.6406(6) 0.15937(19) -0.0186(6)
H5 H 0.655 0.1173 -0.0033
C3 C 0.5618(6) 0.1837(2) -0.1715(6)
H6 H 0.5216 0.1573 -0.2617
C4 C 0.5396(7) 0.2479(2) -0.1963(6)
H7 H 0.4856 0.2621 -0.3023
C5 C 0.5954(6) 0.2900(2) -0.0688(6)
H8 H 0.5803 0.3321 -0.0844
C6 C 0.6766(6) 0.26449(18) 0.0863(5)
C7 C 0.7720(6) 0.35433(18) 0.2925(6)
H9 H 0.7246 0.3805 0.1973
H10 H 0.905 0.3636 0.3137
C8 C 0.6668(7) 0.3680(2) 0.4559(6)
H11 H 0.6342 0.3352 0.5273
C9 C 0.6159(6) 0.4257(2) 0.5059(6)
H12 H 0.6465 0.4593 0.437
H13 H 0.5506 0.4314 0.6089
Cu1B Cu 1.11416(8) -0.11794(2) -0.39770(7)
Cu1C Cu 0.38584(8) 0.38206(2) 0.39770(7)
Cu1C_2 Cu 1.38584(8) 0.38206(2) 0.39770(7)
F1B F 0.8599(4) 0.02854(12) -0.1645(3)
F2B F 1.0885(4) -0.05235(12) -0.1392(3)
F3B F 1.1752(4) 0.04924(13) -0.0505(4)
O2B O 1.3524(5) -0.07241(15) -0.4505(5)
H3B H 1.372(8) -0.062(3) -0.547(8)
H4B H 1.384(8) -0.047(3) -0.385(8)
N1C N 1.3153(5) 0.25345(15) 0.3510(5)
N2C N 1.2512(5) 0.21017(16) 0.2393(5)
N3C N 1.2840(5) 0.30751(15) 0.2760(5)
N3B N 1.2160(5) -0.19249(15) -0.2760(5)
C1C C 1.1980(6) 0.29885(18) 0.1126(6)
C2C C 1.1406(6) 0.34063(19) -0.0186(6)
H5C H 1.155 0.3827 -0.0033
C3C C 1.0618(6) 0.3163(2) -0.1715(6)
H6C H 1.0216 0.3427 -0.2617
C4C C 1.0396(7) 0.2521(2) -0.1963(6)
H7C H 0.9856 0.2379 -0.3023
C5C C 1.0954(6) 0.2100(2) -0.0688(6)
H8C H 1.0803 0.1679 -0.0844
C6C C 1.1766(6) 0.23551(18) 0.0863(5)
C7C C 1.2720(6) 0.14567(18) 0.2925(6)
H9C H 1.2246 0.1195 0.1973
H10C H 1.405 0.1364 0.3137
C8C C 1.1668(7) 0.1320(2) 0.4559(6)
C8A C 0.8332(7) -0.1320(2) -0.4559(6)
H11C H 1.1342 0.1648 0.5273
H11A H 0.8658 -0.1648 -0.5273
C9C C 1.1159(6) 0.0743(2) 0.5059(6)
C9A C 0.8841(6) -0.0743(2) -0.5059(6)
H12C H 1.1465 0.0407 0.437
H12A H 0.8535 -0.0407 -0.437
H13C H 1.0506 0.0686 0.6089
H13A H 0.9494 -0.0686 -0.6089
O1 O 0.5116(6) -0.0185(2) 0.2406(5)
H1 H 0.600(9) -0.026(3) 0.167(9)
H2 H 0.418(9) -0.016(3) 0.183(9)
loop_
_geom_bond_atom_site_label_1
_geom_bond_atom_site_label_2
_geom_bond_site_symmetry_1
_geom_bond_site_symmetry_2
Cu1 F2 1_555 1_555
Si1 F1 1_555 1_555
F2 Si1 1_555 1_555
F3 Si1 1_555 1_555
O1 H1 1_555 1_555
H2 O1 1_555 1_555
O2 Cu1 1_555 1_555
H3 O2 1_555 1_555
H4 O2 1_555 1_555
N1 N2 1_555 1_555
N2 C6 1_555 1_555
N3 Cu1 1_555 1_555
C1 N3 1_555 1_555
C2 C1 1_555 1_555
H5 C2 1_555 1_555
C3 C2 1_555 1_555
H6 C3 1_555 1_555
C4 C3 1_555 1_555
H7 C4 1_555 1_555
C5 C4 1_555 1_555
H8 C5 1_555 1_555
C6 C1 1_555 1_555
C7 N2 1_555 1_555
H9 C7 1_555 1_555
H10 C7 1_555 1_555
C8 C7 1_555 1_555
H11 C8 1_555 1_555
C9 C8 1_555 1_555
H12 C9 1_555 1_555
H13 C9 1_555 1_555
Cu1B F2B 1_555 1_555
Cu1C C8 1_555 1_555
Cu1C_2 N3C 1_555 1_555
F1B Si1 1_555 1_555
F2B Si1 1_555 1_555
F3B Si1 1_555 1_555
O2B Cu1B 1_555 1_555
H3B O2B 1_555 1_555
H4B O2B 1_555 1_555
N1C N2C 1_555 1_555
N2C C6C 1_555 1_555
N3C N1C 1_555 1_555
N3B Cu1B 1_555 1_555
C1C N3C 1_555 1_555
C2C C1C 1_555 1_555
H5C C2C 1_555 1_555
C3C C2C 1_555 1_555
H6C C3C 1_555 1_555
C4C C3C 1_555 1_555
H7C C4C 1_555 1_555
C5C C4C 1_555 1_555
H8C C5C 1_555 1_555
C6C C1C 1_555 1_555
C7C N2C 1_555 1_555
H9C C7C 1_555 1_555
H10C C7C 1_555 1_555
C8C Cu1 1_555 1_555
C8A Cu1B 1_555 1_555
H11C C8C 1_555 1_555
H11A C8A 1_555 1_555
C9C Cu1 1_555 1_555
C9A Cu1B 1_555 1_555
H12C C9C 1_555 1_555
H12A C9A 1_555 1_555
H13C C9C 1_555 1_555
H13A C9A 1_555 1_555
N1 N3 1_555 1_555
C5 C6 1_555 1_555
C9 Cu1C 1_555 1_555
C5C C6C 1_555 1_555
C7C C8C 1_555 1_555
C8C C9C 1_555 1_555
C8A C9A 1_555 1_555

#END
