
#######################################################################
#
#                 Cambridge Crystallographic Data Centre
#                                CCDC 
#
#######################################################################
#
# If this CIF has been generated from an entry in the Cambridge 
# Structural Database, then it will include bibliographic, chemical, 
# crystal, experimental, refinement or atomic coordinate data resulting 
# from the CCDC's data processing and validation procedures.
#
#######################################################################

data_EBEHAU
_symmetry_cell_setting           monoclinic
_symmetry_space_group_name_H-M   'C 2/c'
_symmetry_Int_Tables_number      15
_space_group_name_Hall           '-C 2yn'
loop_
_symmetry_equiv_pos_site_id
_symmetry_equiv_pos_as_xyz
1 x,y,z
2 -x,y,1/2-z
3 1/2+x,1/2+y,z
4 1/2-x,1/2+y,1/2-z
5 -x,-y,-z
6 x,-y,1/2+z
7 1/2-x,1/2-y,-z
8 1/2+x,1/2-y,1/2+z
_cell_length_a                   20.621(6)
_cell_length_b                   17.286(5)
_cell_length_c                   14.275(5)
_cell_angle_alpha                90
_cell_angle_beta                 130.25(1)
_cell_angle_gamma                90
_cell_volume                     3883.62
loop_
_atom_site_label
_atom_site_type_symbol
_atom_site_fract_x
_atom_site_fract_y
_atom_site_fract_z
O7 O 0.9860(6) 0.2426(5) 0.6637(8)
C19 C 1.0000 0.2010(6) 0.7500
O7A O 1.0140(6) 0.2426(5) 0.8363(8)
Co1 Co 0.73308(3) 0.02539(3) 0.07830(5)
O1 O 0.8446(2) 0.0814(2) 0.1222(3)
O2 O 0.7994(2) -0.0216(2) 0.0141(3)
O3 O 0.9170(2) 0.0312(3) 0.0752(4)
O4 O 0.6126(2) -0.0151(2) 0.0289(3)
O5 O 0.6470(3) -0.0860(3) -0.0480(4)
O6 O 0.5283(3) -0.1058(3) -0.0881(5)
N1 N 0.8557(3) 0.0302(3) 0.0699(4)
N2 N 0.5917(3) -0.0710(2) -0.0404(2)
N3 N 0.6597(2) 0.0960(2) -0.0839(3)
N4 N 0.7345(2) 0.1061(2) 0.1949(3)
N5 N 0.3122(2) 0.4485(2) -0.7667(3)
C1 C 0.6613(3) 0.1732(2) -0.0753(4)
C2 C 0.6155(3) 0.2221(2) -0.1743(4)
C3 C 0.5649(2) 0.1914(2) -0.2915(3)
C4 C 0.5643(2) 0.1114(2) -0.3030(3)
C5 C 0.6118(3) 0.0669(2) -0.1983(4)
C6 C 0.5125(3) 0.2418(2) -0.3973(4)
C7 C 0.4685(3) 0.2866(2) -0.4787(4)
C8 C 0.4152(3) 0.3413(2) -0.5766(3)
C9 C 0.4504(3) 0.4008(2) -0.5958(4)
C10 C 0.8077(3) 0.1384(2) 0.2930(4)
C11 C 0.8152(3) 0.1811(2) 0.3807(4)
C12 C 0.7440(3) 0.1909(2) 0.3716(4)
C13 C 0.6679(3) 0.1587(2) 0.2702(4)
C14 C 0.6664(3) 0.1179(2) 0.1869(4)
C15 C 0.7497(3) 0.2330(2) 0.4638(4)
C16 C 0.3977(3) 0.4526(2) -0.6903(4)
C17 C 0.3280(3) 0.3376(2) -0.6525(4)
C18 C 0.2798(3) 0.3917(2) -0.7445(4)
H1 H 0.6962 0.1959 0.0043
H2 H 0.6196 0.2770 -0.1609
H3 H 0.5316 0.0876 -0.3821
H4 H 0.6117 0.0127 -0.2067
H5 H 0.5121 0.4072 -0.5424
H6 H 0.8567 0.1310 0.3008
H7 H 0.8693 0.2027 0.4475
H8 H 0.6166 0.1650 0.2570
H9 H 0.6142 0.0960 0.1191
H10 H 0.4228 0.4944 -0.7028
H11 H 0.2990 0.2970 -0.6430
H12 H 0.2203 0.3886 -0.7957
C15F C 0.7503(3) 0.2670(2) 0.5362(4)
C12F C 0.7560(3) 0.3091(2) 0.6284(4)
C11F C 0.6848(3) 0.3189(2) 0.6193(4)
C10F C 0.6923(3) 0.3616(2) 0.7070(4)
N4F N 0.7655(2) 0.3939(2) 0.8051(3)
C14F C 0.8336(3) 0.3821(2) 0.8131(4)
C13F C 0.8321(3) 0.3413(2) 0.7298(4)
H8F H 0.8834 0.3350 0.7430
H9F H 0.8858 0.4040 0.8809
H6F H 0.6433 0.3690 0.6992
H7F H 0.6307 0.2973 0.5525
N3B N 1.1597(2) -0.4040(2) 0.9161(3)
N5B N 0.8122(2) -0.0515(2) 0.2333(3)
C1B C 1.1613(3) -0.3268(2) 0.9247(4)
C2B C 1.1155(3) -0.2779(2) 0.8257(4)
C3B C 1.0649(2) -0.3086(2) 0.7085(3)
C4B C 1.0643(2) -0.3886(2) 0.6970(3)
C5B C 1.1118(3) -0.4331(2) 0.8017(4)
C6B C 1.0125(3) -0.2582(2) 0.6027(4)
C7B C 0.9685(3) -0.2134(2) 0.5213(4)
C8B C 0.9152(3) -0.1587(2) 0.4234(3)
C9B C 0.9504(3) -0.0992(2) 0.4042(4)
C16B C 0.8977(3) -0.0474(2) 0.3097(4)
C17B C 0.8280(3) -0.1624(2) 0.3475(4)
C18B C 0.7798(3) -0.1083(2) 0.2555(4)
H1B H 1.1962 -0.3041 1.0043
H2B H 1.1196 -0.2230 0.8391
H3B H 1.0316 -0.4124 0.6179
H4B H 1.1117 -0.4873 0.7933
H5B H 1.0121 -0.0928 0.4576
H10B H 0.9228 -0.0056 0.2972
H11B H 0.7990 -0.2030 0.3570
H12B H 0.7203 -0.1114 0.2043
Co1B Co 1.23308(3) -0.47461(3) 1.07830(5)
Co1B_2 Co 0.23308(3) 0.52539(3) -0.92170(5)
Co1F Co 0.76692(3) 0.47461(3) 0.92170(5)
O1B O 1.3446(2) -0.4186(2) 1.1222(3)
O2B O 1.2994(2) -0.5216(2) 1.0141(3)
O4B O 1.1126(2) -0.5151(2) 1.0289(3)
O5B O 1.1470(3) -0.5860(3) 0.9520(4)
N4B N 1.2345(2) -0.3939(2) 1.1949(3)
N5_2 N 1.3122(2) -0.5515(2) 1.2333(3)
N2B N 1.0917(3) -0.5710(2) 0.9596(2)
N1B N 1.3557(3) -0.4698(3) 1.0699(4)
O3B O 1.4170(2) -0.4688(3) 1.0752(4)
O6B O 1.0283(3) -0.6058(3) 0.9119(5)
loop_
_geom_bond_atom_site_label_1
_geom_bond_atom_site_label_2
_geom_bond_site_symmetry_1
_geom_bond_site_symmetry_2
Co1 O1 1_555 1_555
O1 N1 1_555 1_555
O2 Co1 1_555 1_555
O3 N1 1_555 1_555
O4 Co1 1_555 1_555
O5 Co1 1_555 1_555
O6 N2 1_555 1_555
O7 C19 1_555 1_555
N1 O2 1_555 1_555
N2 O4 1_555 1_555
N3 Co1 1_555 1_555
N4 Co1 1_555 1_555
N5 C16 1_555 1_555
C1 N3 1_555 1_555
C2 C1 1_555 1_555
C3 C2 1_555 1_555
C4 C3 1_555 1_555
C5 N3 1_555 1_555
C6 C3 1_555 1_555
C7 C6 1_555 1_555
C8 C7 1_555 1_555
C9 C8 1_555 1_555
C10 N4 1_555 1_555
C11 C10 1_555 1_555
C12 C11 1_555 1_555
C13 C12 1_555 1_555
C14 N4 1_555 1_555
C15 C12 1_555 1_555
C16 C9 1_555 1_555
C17 C8 1_555 1_555
C18 N5 1_555 1_555
C19 O7A 1_555 1_555
H1 C1 1_555 1_555
H2 C2 1_555 1_555
H3 C4 1_555 1_555
H4 C5 1_555 1_555
H5 C9 1_555 1_555
H6 C10 1_555 1_555
H7 C11 1_555 1_555
H8 C13 1_555 1_555
H9 C14 1_555 1_555
H10 C16 1_555 1_555
H11 C17 1_555 1_555
H12 C18 1_555 1_555
C15F C15 1_555 1_555
C12F C15F 1_555 1_555
C11F C12F 1_555 1_555
C10F C11F 1_555 1_555
N4F C10F 1_555 1_555
C14F N4F 1_555 1_555
C13F C12F 1_555 1_555
H8F C13F 1_555 1_555
H9F C14F 1_555 1_555
H6F C10F 1_555 1_555
H7F C11F 1_555 1_555
N3B C1B 1_555 1_555
N5B Co1 1_555 1_555
C1B C2B 1_555 1_555
C2B C3B 1_555 1_555
C3B C4B 1_555 1_555
C4B C5B 1_555 1_555
C5B N3B 1_555 1_555
C6B C3B 1_555 1_555
C7B C6B 1_555 1_555
C8B C7B 1_555 1_555
C9B C8B 1_555 1_555
C16B N5B 1_555 1_555
C17B C8B 1_555 1_555
C18B N5B 1_555 1_555
H1B C1B 1_555 1_555
H2B C2B 1_555 1_555
H3B C4B 1_555 1_555
H4B C5B 1_555 1_555
H5B C9B 1_555 1_555
H10B C16B 1_555 1_555
H11B C17B 1_555 1_555
H12B C18B 1_555 1_555
Co1B N3B 1_555 1_555
Co1B_2 N5 1_555 1_555
Co1F N4F 1_555 1_555
O1B Co1B 1_555 1_555
O2B Co1B 1_555 1_555
O4B Co1B 1_555 1_555
O5B Co1B 1_555 1_555
N4B Co1B 1_555 1_555
N5_2 Co1B 1_555 1_555
N2B O4B 1_555 1_555
N1B O1B 1_555 1_555
O3B N1B 1_555 1_555
O6B N2B 1_555 1_555
O5 N2 1_555 1_555
C4 C5 1_555 1_555
C13 C14 1_555 1_555
C17 C18 1_555 1_555
C14F C13F 1_555 1_555
C9B C16B 1_555 1_555
C17B C18B 1_555 1_555
O2B N1B 1_555 1_555
O5B N2B 1_555 1_555

#END
