
#######################################################################
#
#                 Cambridge Crystallographic Data Centre
#                                CCDC 
#
#######################################################################
#
# If this CIF has been generated from an entry in the Cambridge 
# Structural Database, then it will include bibliographic, chemical, 
# crystal, experimental, refinement or atomic coordinate data resulting 
# from the CCDC's data processing and validation procedures.
#
#######################################################################

data_EBEJIG
_symmetry_cell_setting           monoclinic
_symmetry_space_group_name_H-M   'P 21/m'
_symmetry_Int_Tables_number      11
_space_group_name_Hall           '-P 2yb'
loop_
_symmetry_equiv_pos_site_id
_symmetry_equiv_pos_as_xyz
1 x,y,z
2 -x,1/2+y,-z
3 -x,-y,-z
4 x,1/2-y,z
_cell_length_a                   5.9737(12)
_cell_length_b                   14.227(3)
_cell_length_c                   6.8436(14)
_cell_angle_alpha                90
_cell_angle_beta                 110.03(3)
_cell_angle_gamma                90
_cell_volume                     546.442
loop_
_atom_site_label
_atom_site_type_symbol
_atom_site_fract_x
_atom_site_fract_y
_atom_site_fract_z
Cd1 Cd -1.0000 0.5000 0.0000
S1 S -0.6437(3) 0.39769(12) 0.2834(3)
N1 N -0.8725(10) 0.6322(4) 0.2243(10)
N2 N -0.2492(10) 0.4543(4) 0.1800(9)
C1 C -1.0512(12) 0.6601(4) 0.3180(9)
H1 H -1.0682 0.6092 0.4062
H2 H -1.2035 0.6677 0.2072
C2 C -0.9976(17) 0.7500 0.4466(14)
H3 H -0.8305 0.7500 0.5328
H4 H -1.0903 0.7500 0.5385
C3 C -0.773(3) 0.7087(8) 0.148(3)
H5 H -0.6043 0.6944 0.2025
H6 H -0.8215 0.6944 0.0008
C4 C -0.4154(10) 0.4314(4) 0.2199(8)
Cd1_2 Cd 0.0000 0.5000 0.0000
Cd1A Cd -1.0000 1.0000 0.0000
Cd1_3 Cd -2.0000 0.5000 0.0000
S1B S -1.3563(3) 0.60231(12) -0.2834(3)
N1C N -0.8725(10) 0.8678(4) 0.2243(10)
N1B N -1.1275(10) 0.3678(4) -0.2243(10)
N2B N -1.7508(10) 0.5457(4) -0.1800(9)
N2_2 N -1.2492(10) 0.4543(4) 0.1800(9)
N2B_2 N -0.7508(10) 0.5457(4) -0.1800(9)
C1C C -1.0512(12) 0.8399(4) 0.3180(9)
H1C H -1.0682 0.8908 0.4062
H2C H -1.2035 0.8323 0.2072
C3C C -0.773(3) 0.7913(8) 0.148(3)
H5C H -0.6043 0.8056 0.2025
H6C H -0.8215 0.8056 0.0008
C4B C -1.5846(10) 0.5686(4) -0.2199(8)
loop_
_geom_bond_atom_site_label_1
_geom_bond_atom_site_label_2
_geom_bond_site_symmetry_1
_geom_bond_site_symmetry_2
Cd1 S1 1_555 1_555
S1 C4 1_555 1_555
N1 Cd1 1_555 1_555
N2 C4 1_555 1_555
C1 N1 1_555 1_555
H1 C1 1_555 1_555
H2 C1 1_555 1_555
C2 C1 1_555 1_555
H3 C2 1_555 1_555
H4 C2 1_555 1_555
C3 N1 1_555 1_555
H5 C3 1_555 1_555
H6 C3 1_555 1_555
Cd1_2 N2 1_555 1_555
Cd1A N1C 1_555 1_555
Cd1_3 N2B 1_555 1_555
S1B Cd1 1_555 1_555
N1C C1C 1_555 1_555
N1B Cd1 1_555 1_555
N2B C4B 1_555 1_555
N2_2 Cd1 1_555 1_555
N2B_2 Cd1 1_555 1_555
C1C C2 1_555 1_555
H1C C1C 1_555 1_555
H2C C1C 1_555 1_555
C3C C3 1_555 1_555
H5C C3C 1_555 1_555
H6C C3C 1_555 1_555
C4B S1B 1_555 1_555
N1C C3C 1_555 1_555

#END
