
#######################################################################
#
#                 Cambridge Crystallographic Data Centre
#                                CCDC 
#
#######################################################################
#
# If this CIF has been generated from an entry in the Cambridge 
# Structural Database, then it will include bibliographic, chemical, 
# crystal, experimental, refinement or atomic coordinate data resulting 
# from the CCDC's data processing and validation procedures.
#
#######################################################################

data_EBELII
_symmetry_cell_setting           monoclinic
_symmetry_space_group_name_H-M   'P 21/n'
_symmetry_Int_Tables_number      14
_space_group_name_Hall           '-P 2yn'
loop_
_symmetry_equiv_pos_site_id
_symmetry_equiv_pos_as_xyz
1 x,y,z
2 1/2-x,1/2+y,1/2-z
3 -x,-y,-z
4 1/2+x,1/2-y,1/2+z
_cell_length_a                   9.4587(19)
_cell_length_b                   9.989(2)
_cell_length_c                   18.523(4)
_cell_angle_alpha                90
_cell_angle_beta                 90.07(3)
_cell_angle_gamma                90
_cell_volume                     1750.11
loop_
_atom_site_label
_atom_site_type_symbol
_atom_site_fract_x
_atom_site_fract_y
_atom_site_fract_z
Ag1 Ag -0.61820(3) -0.28184(3) -0.273460(12)
C1 C -0.4990(4) -0.3054(3) -0.10186(17)
C2 C -0.4401(3) -0.3190(3) -0.03006(15)
N1 N -0.5484(3) -0.2963(3) -0.15718(14)
N2 N -0.6206(3) -0.7271(3) -0.67703(15)
H1 H -0.6475 -0.8135 -0.6757
H2 H -0.6787 -0.6849 -0.7081
N3 N -0.2901(3) -0.3705(3) 0.18157(13)
H3 H -0.2536 -0.4535 0.1848
H4 H -0.3652 -0.3674 0.2113
C3 C -0.3402(3) -0.3530(3) 0.10984(15)
C4 C -0.6422(3) -0.6722(3) -0.60809(16)
C5 C -0.4931(4) -0.2400(4) 0.02560(17)
H5 H -0.5625 -0.1764 0.0161
N4 N -0.6891(3) -0.4637(3) -0.34253(16)
C6 C -0.3347(4) -0.4123(3) -0.01606(16)
H6 H -0.2982 -0.4639 -0.0534
C7 C -0.6344(4) -0.6960(3) -0.47882(17)
H7 H -0.6201 -0.7490 -0.4382
C8 C -0.6722(3) -0.5624(3) -0.47106(16)
C9 C -0.2842(3) -0.4283(3) 0.05335(15)
H8 H -0.2125 -0.4897 0.0625
C10 C -0.6808(3) -0.5394(3) -0.59960(17)
H9 H -0.6974 -0.4868 -0.6402
C11 C -0.6829(3) -0.5064(3) -0.39961(18)
C12 C -0.6182(4) -0.7499(3) -0.54670(18)
H10 H -0.5909 -0.8389 -0.5517
C13 C -0.6950(3) -0.4839(3) -0.53176(17)
H11 H -0.7197 -0.3943 -0.5268
C14 C -0.4419(4) -0.2564(4) 0.09502(17)
H12 H -0.4758 -0.2025 0.1321
Ag1B Ag -0.38180(3) -0.71816(3) -0.726540(12)
Ag1C Ag -0.11820(3) -0.21816(3) 0.226540(12)
N2B N -0.3794(3) -0.2729(3) -0.32297(15)
H1B H -0.3525 -0.1865 -0.3243
H2B H -0.3213 -0.3151 -0.2919
N3C N -0.7901(3) -0.1295(3) -0.31843(13)
H3C H -0.7536 -0.0465 -0.3152
H4C H -0.8652 -0.1326 -0.2887
P1 P -0.06141(9) -0.37361(9) -0.19259(4)
F1 F 0.0957(3) -0.3152(3) -0.18670(12)
F2 F -0.1113(3) -0.2755(2) -0.13181(14)
F3 F -0.2159(2) -0.4341(3) -0.19886(12)
F4 F -0.0241(3) -0.4817(3) -0.13313(14)
F5 F -0.0933(3) -0.2620(3) -0.25194(15)
F6 F -0.0098(3) -0.4706(3) -0.25457(14)
loop_
_geom_bond_atom_site_label_1
_geom_bond_atom_site_label_2
_geom_bond_site_symmetry_1
_geom_bond_site_symmetry_2
Ag1 N1 1_555 1_555
P1 F1 1_555 1_555
C1 C2 1_555 1_555
C2 C5 1_555 1_555
F2 P1 1_555 1_555
N1 C1 1_555 1_555
N2 H1 1_555 1_555
H2 N2 1_555 1_555
N3 H3 1_555 1_555
H4 N3 1_555 1_555
F3 P1 1_555 1_555
C3 N3 1_555 1_555
C4 N2 1_555 1_555
C5 H5 1_555 1_555
N4 Ag1 1_555 1_555
F4 P1 1_555 1_555
C6 C2 1_555 1_555
H6 C6 1_555 1_555
C7 H7 1_555 1_555
C8 C7 1_555 1_555
C9 C3 1_555 1_555
H8 C9 1_555 1_555
C10 C4 1_555 1_555
H9 C10 1_555 1_555
C11 N4 1_555 1_555
C12 C4 1_555 1_555
H10 C12 1_555 1_555
F5 P1 1_555 1_555
C13 C8 1_555 1_555
H11 C13 1_555 1_555
C14 C3 1_555 1_555
H12 C14 1_555 1_555
F6 P1 1_555 1_555
Ag1B N2 1_555 1_555
Ag1C N3 1_555 1_555
N2B Ag1 1_555 1_555
H1B N2B 1_555 1_555
H2B N2B 1_555 1_555
N3C Ag1 1_555 1_555
H3C N3C 1_555 1_555
H4C N3C 1_555 1_555
C5 C14 1_555 1_555
C6 C9 1_555 1_555
C7 C12 1_555 1_555
C8 C11 1_555 1_555
C10 C13 1_555 1_555

#END
