
#######################################################################
#
#                 Cambridge Crystallographic Data Centre
#                                CCDC 
#
#######################################################################
#
# If this CIF has been generated from an entry in the Cambridge 
# Structural Database, then it will include bibliographic, chemical, 
# crystal, experimental, refinement or atomic coordinate data resulting 
# from the CCDC's data processing and validation procedures.
#
#######################################################################

data_EBELIG
_symmetry_cell_setting           orthorhombic
_symmetry_space_group_name_H-M   'P 21 21 21'
_symmetry_Int_Tables_number      19
_space_group_name_Hall           'P 2ac 2ab'
loop_
_symmetry_equiv_pos_site_id
_symmetry_equiv_pos_as_xyz
1 x,y,z
2 1/2-x,-y,1/2+z
3 1/2+x,1/2-y,-z
4 -x,1/2+y,1/2-z
_cell_length_a                   11.3172(5)
_cell_length_b                   11.3534(5)
_cell_length_c                   33.1523(14)
_cell_angle_alpha                90
_cell_angle_beta                 90
_cell_angle_gamma                90
_cell_volume                     4259.7
loop_
_atom_site_label
_atom_site_type_symbol
_atom_site_fract_x
_atom_site_fract_y
_atom_site_fract_z
Mo1 Mo 0.7332(1) 0.3199(1) 0.8505(1)
Mo2 Mo 0.5587(1) 0.5010(1) 0.8941(1)
Mo3 Mo 0.9041(1) 0.4900(1) 0.9035(1)
Mo4 Mo 0.7376(1) 0.6721(1) 0.8536(1)
Ni1 Ni 0.7241(1) -0.0008(1) 0.8670(1)
Ni2 Ni 0.2291(4) 0.5065(1) 0.8842(1)
O1 O 0.7265(5) 0.8231(4) 0.8633(1)
O2 O 0.7118(5) 0.1739(4) 0.8650(2)
O3 O 0.7819(5) 0.3204(4) 0.8017(1)
O4 O 0.5787(4) 0.3724(4) 0.8503(2)
O5 O 0.5734(4) 0.4007(4) 0.9331(1)
O6 O 0.6115(4) 0.6312(4) 0.9152(1)
O7 O 0.4061(3) 0.5168(4) 0.8862(1)
O8 O 1.0511(3) 0.4963(5) 0.8872(1)
O9 O 0.8756(4) 0.3336(4) 0.8832(2)
O10 O 0.7445(3) 0.4900(5) 0.8736(1)
O11 O 0.9010(4) 0.4719(4) 0.9547(1)
O12 O 0.5950(4) 0.6232(4) 0.8376(1)
O13 O 0.8241(4) 0.6617(4) 0.8117(1)
O14 O 0.8646(4) 0.6472(4) 0.8959(2)
N1 N 1.2121(5) -0.3581(5) 0.9288(2)
N2 N 0.8532(4) -0.0039(6) 0.9139(1)
N3 N 0.5843(4) 0.0018(6) 0.9103(1)
N4 N 0.2417(5) 0.3706(5) 0.9277(2)
N5 N 1.2236(5) 0.3731(4) 0.8390(2)
N6 N 0.8650(4) 0.0150(5) 0.8248(1)
N7 N 0.2278(6) -0.3589(5) 0.8395(2)
N8 N 0.5913(4) -0.0116(6) 0.8208(1)
C1 C 1.2715(6) -0.3669(5) 0.9639(2)
C2 C 1.2477(6) -0.2945(6) 0.9963(2)
C3 C 1.1616(6) -0.2068(6) 0.9930(2)
C4 C 1.1033(6) -0.1914(5) 0.9561(2)
C5 C 1.1305(5) -0.2720(5) 0.9254(2)
C6 C 1.0171(5) -0.0935(5) 0.9505(2)
C7 C 1.0186(5) 0.0012(8) 0.9764(2)
C8 C 0.9390(6) 0.0939(6) 0.9707(2)
C9 C 0.8586(5) 0.0892(5) 0.9392(2)
C10 C 0.9322(5) -0.0926(5) 0.9193(2)
C11 C 0.5627(6) -0.0996(5) 0.9290(2)
C12 C 0.4646(7) -0.1146(6) 0.9539(2)
C13 C 0.3884(5) -0.0232(5) 0.9590(2)
C14 C 0.4113(6) 0.0861(6) 0.9413(2)
C15 C 0.5116(5) 0.0932(5) 0.9171(2)
C16 C 0.3304(5) 0.1865(5) 0.9488(2)
C17 C 0.2576(5) 0.1895(6) 0.9839(2)
C18 C 0.1789(6) 0.2803(6) 0.9893(2)
C19 C 0.3181(5) 0.2800(5) 0.9220(2)
C20 C 1.3191(6) 0.3641(6) 0.8139(2)
C21 C 1.3282(6) 0.2778(6) 0.7853(2)
C22 C 1.2382(6) 0.1965(6) 0.7815(2)
C23 C 1.1372(6) 0.2045(5) 0.8054(2)
C24 C 1.1343(6) 0.2949(5) 0.8348(2)
C25 C 1.0365(5) 0.1198(5) 0.7996(2)
C26 C 1.0235(5) 0.0617(5) 0.7630(2)
C27 C 0.9342(5) -0.0224(5) 0.7580(2)
C28 C 0.8568(5) -0.0439(5) 0.7900(2)
C29 C 0.9544(5) 0.0946(6) 0.8296(2)
C30 C 0.1229(6) -0.3361(6) 0.8217(2)
C31 C 0.1076(6) -0.2413(6) 0.7965(2)
C32 C 0.2018(6) -0.1694(6) 0.7874(2)
C33 C 0.3128(5) -0.1928(5) 0.8053(2)
C34 C 0.3195(6) -0.2905(5) 0.8310(2)
C35 C 0.4133(5) -0.1133(5) 0.7966(2)
C36 C 0.4218(5) -0.0491(5) 0.7599(2)
C37 C 0.5109(5) 0.0333(5) 0.7553(2)
C38 C 0.5920(6) 0.0510(5) 0.7868(2)
C39 C 0.5035(5) -0.0932(5) 0.8255(2)
C40 C 0.1714(5) 0.3682(5) 0.9607(2)
H1 H 1.3305 -0.4235 0.9664
H2 H 1.2888 -0.3042 1.0204
H3 H 1.1434 -0.1592 1.0149
H4 H 1.0897 -0.2657 0.9011
H5 H 1.0723 0.0036 0.9976
H6 H 0.9400 0.1585 0.9879
H7 H 0.8069 0.1519 0.9354
H8 H 0.9301 -0.1560 0.9016
H9 H 0.6145 -0.1622 0.9254
H10 H 0.4515 -0.1861 0.9669
H11 H 0.3205 -0.0335 0.9744
H12 H 0.5292 0.1650 0.9050
H13 H 0.2633 0.1301 1.0031
H14 H 0.1311 0.2825 1.0121
H15 H 0.3649 0.2805 0.8989
H16 H 1.3800 0.4186 0.8163
H17 H 1.3941 0.2740 0.7686
H18 H 1.2450 0.1357 0.7628
H19 H 1.0690 0.3007 0.8517
H20 H 1.0743 0.0787 0.7417
H21 H 0.9235 -0.0632 0.7338
H22 H 0.7981 -0.1006 0.7870
H23 H 0.9606 0.1338 0.8542
H24 H 0.0593 -0.3859 0.8267
H25 H 0.0335 -0.2257 0.7856
H26 H 0.1926 -0.1064 0.7698
H27 H 0.3920 -0.3083 0.8427
H28 H 0.3679 -0.0623 0.7392
H29 H 0.5171 0.0765 0.7316
H30 H 0.6490 0.1093 0.7838
H31 H 0.5029 -0.1380 0.8490
H32 H 0.1161 0.4279 0.9642
O1_2 O 0.7265(5) -0.1769(4) 0.8633(1)
O8_2 O 0.0511(3) 0.4963(5) 0.8872(1)
N1_2 N 0.2121(5) 0.6419(5) 0.9288(2)
N5_2 N 0.2236(5) 0.3731(4) 0.8390(2)
N7_2 N 0.2278(6) 0.6411(5) 0.8395(2)
Ni1_2 Ni 0.7241(1) 0.9992(1) 0.8670(1)
Ni2_2 Ni 1.2291(4) 0.5065(1) 0.8842(1)
Ni2_3 Ni 1.2291(4) -0.4935(1) 0.8842(1)
Ni2_4 Ni 0.2291(4) -0.4935(1) 0.8842(1)
loop_
_geom_bond_atom_site_label_1
_geom_bond_atom_site_label_2
_geom_bond_site_symmetry_1
_geom_bond_site_symmetry_2
Mo1 O2 1_555 1_555
Mo2 O4 1_555 1_555
Mo3 O8 1_555 1_555
Mo4 O1 1_555 1_555
Ni1 O2 1_555 1_555
Ni2 O7 1_555 1_555
O1 Ni1_2 1_555 1_555
O3 Mo1 1_555 1_555
O4 Mo1 1_555 1_555
O5 Mo2 1_555 1_555
O6 Mo2 1_555 1_555
O7 Mo2 1_555 1_555
O8 Ni2_2 1_555 1_555
O9 Mo1 1_555 1_555
O10 Mo1 1_555 1_555
O11 Mo3 1_555 1_555
O12 Mo2 1_555 1_555
O13 Mo4 1_555 1_555
O14 Mo3 1_555 1_555
N1 C1 1_555 1_555
N2 Ni1 1_555 1_555
N3 Ni1 1_555 1_555
N4 Ni2 1_555 1_555
N5 C20 1_555 1_555
N6 Ni1 1_555 1_555
N7 C30 1_555 1_555
N8 Ni1 1_555 1_555
C1 C2 1_555 1_555
C2 C3 1_555 1_555
C3 C4 1_555 1_555
C4 C5 1_555 1_555
C5 N1 1_555 1_555
C6 C4 1_555 1_555
C7 C6 1_555 1_555
C8 C7 1_555 1_555
C9 N2 1_555 1_555
C10 N2 1_555 1_555
C11 N3 1_555 1_555
C12 C11 1_555 1_555
C13 C12 1_555 1_555
C14 C13 1_555 1_555
C15 N3 1_555 1_555
C16 C14 1_555 1_555
C17 C16 1_555 1_555
C18 C17 1_555 1_555
C19 N4 1_555 1_555
C20 C21 1_555 1_555
C21 C22 1_555 1_555
C22 C23 1_555 1_555
C23 C24 1_555 1_555
C24 N5 1_555 1_555
C25 C23 1_555 1_555
C26 C25 1_555 1_555
C27 C26 1_555 1_555
C28 N6 1_555 1_555
C29 N6 1_555 1_555
C30 C31 1_555 1_555
C31 C32 1_555 1_555
C32 C33 1_555 1_555
C33 C34 1_555 1_555
C34 N7 1_555 1_555
C35 C33 1_555 1_555
C36 C35 1_555 1_555
C37 C36 1_555 1_555
C38 N8 1_555 1_555
C39 N8 1_555 1_555
C40 N4 1_555 1_555
H1 C1 1_555 1_555
H2 C2 1_555 1_555
H3 C3 1_555 1_555
H4 C5 1_555 1_555
H5 C7 1_555 1_555
H6 C8 1_555 1_555
H7 C9 1_555 1_555
H8 C10 1_555 1_555
H9 C11 1_555 1_555
H10 C12 1_555 1_555
H11 C13 1_555 1_555
H12 C15 1_555 1_555
H13 C17 1_555 1_555
H14 C18 1_555 1_555
H15 C19 1_555 1_555
H16 C20 1_555 1_555
H17 C21 1_555 1_555
H18 C22 1_555 1_555
H19 C24 1_555 1_555
H20 C26 1_555 1_555
H21 C27 1_555 1_555
H22 C28 1_555 1_555
H23 C29 1_555 1_555
H24 C30 1_555 1_555
H25 C31 1_555 1_555
H26 C32 1_555 1_555
H27 C34 1_555 1_555
H28 C36 1_555 1_555
H29 C37 1_555 1_555
H30 C38 1_555 1_555
H31 C39 1_555 1_555
H32 C40 1_555 1_555
O1_2 Ni1 1_555 1_555
O8_2 Ni2 1_555 1_555
N1_2 Ni2 1_555 1_555
N5_2 Ni2 1_555 1_555
N7_2 Ni2 1_555 1_555
Ni2_2 N5 1_555 1_555
Ni2_3 N1 1_555 1_555
Ni2_4 N7 1_555 1_555
Mo2 O10 1_555 1_555
Mo3 O9 1_555 1_555
Mo3 O10 1_555 1_555
Mo4 O10 1_555 1_555
Mo4 O12 1_555 1_555
Mo4 O14 1_555 1_555
C6 C10 1_555 1_555
C8 C9 1_555 1_555
C14 C15 1_555 1_555
C16 C19 1_555 1_555
C18 C40 1_555 1_555
C25 C29 1_555 1_555
C27 C28 1_555 1_555
C35 C39 1_555 1_555
C37 C38 1_555 1_555

#END
