
#######################################################################
#
#                 Cambridge Crystallographic Data Centre
#                                CCDC 
#
#######################################################################
#
# If this CIF has been generated from an entry in the Cambridge 
# Structural Database, then it will include bibliographic, chemical, 
# crystal, experimental, refinement or atomic coordinate data resulting 
# from the CCDC's data processing and validation procedures.
#
#######################################################################

data_EBEMUU
_symmetry_cell_setting           monoclinic
_symmetry_space_group_name_H-M   'P 21/n'
_symmetry_Int_Tables_number      14
_space_group_name_Hall           '-P 2yn'
loop_
_symmetry_equiv_pos_site_id
_symmetry_equiv_pos_as_xyz
1 x,y,z
2 1/2+x,1/2-y,1/2+z
3 -x,-y,-z
4 1/2-x,1/2+y,1/2-z
_cell_length_a                   9.0242(9)
_cell_length_b                   9.2195(10)
_cell_length_c                   12.6074(13)
_cell_angle_alpha                90
_cell_angle_beta                 93.197(8)
_cell_angle_gamma                90
_cell_volume                     1047.29
loop_
_atom_site_label
_atom_site_type_symbol
_atom_site_fract_x
_atom_site_fract_y
_atom_site_fract_z
B1 B -0.2242(5) 0.2647(5) 0.5643(3)
O1 O -0.1714(3) 0.1645(3) 0.4825(2)
C1 C -0.2281(5) 0.1897(5) 0.3752(3)
H1 H -0.1780 0.1278 0.3288
H2 H -0.3305 0.1653 0.3696
C2 C -0.2095(6) 0.3446(5) 0.3405(4)
H3 H -0.1069 0.3683 0.3428
H4 H -0.2482 0.3555 0.2693
C3 C -0.2902(6) 0.4479(5) 0.4127(4)
H5 H -0.3934 0.4271 0.4079
H6 H -0.2770 0.5449 0.3897
C4 C -0.2315(5) 0.4329(5) 0.5266(4)
H7 H -0.1349 0.4739 0.5341
H8 H -0.2937 0.4854 0.5713
C5 C -0.3865(5) 0.2122(5) 0.6015(4)
C6 C -0.1055(5) 0.2424(5) 0.6642(3)
F1 F -0.5007(3) 0.2363(5) 0.5303(3)
F2 F -0.3990(4) 0.0715(3) 0.6246(4)
F3 F -0.4330(3) 0.2822(4) 0.6890(2)
F4 F 0.0341(3) 0.2841(5) 0.6430(2)
F5 F -0.0856(5) 0.1033(4) 0.6982(3)
F6 F -0.1298(4) 0.3139(4) 0.7535(2)
Cs1 Cs 0.17646(3) 0.16342(3) 0.44535(2)
Cs1B Cs -0.17646(3) -0.16342(3) 0.55465(2)
Cs1_2 Cs -0.82354(3) 0.16342(3) 0.44535(2)
Cs1A Cs -0.32354(3) 0.33658(3) 0.94535(2)
O1B O 0.1714(3) -0.1645(3) 0.5175(2)
F1_2 F 0.4993(3) 0.2363(5) 0.5303(3)
F2B F 0.3990(4) -0.0715(3) 0.3754(4)
F3A F 0.0670(3) 0.2178(4) 0.1890(2)
F5B F 0.0856(5) -0.1033(4) 0.3018(3)
F6A F 0.3702(4) 0.1861(4) 0.2535(2)
loop_
_geom_bond_atom_site_label_1
_geom_bond_atom_site_label_2
_geom_bond_site_symmetry_1
_geom_bond_site_symmetry_2
B1 O1 1_555 1_555
O1 C1 1_555 1_555
C1 H1 1_555 1_555
H2 C1 1_555 1_555
C2 C1 1_555 1_555
H3 C2 1_555 1_555
H4 C2 1_555 1_555
C3 C2 1_555 1_555
H5 C3 1_555 1_555
H6 C3 1_555 1_555
C4 B1 1_555 1_555
H7 C4 1_555 1_555
H8 C4 1_555 1_555
C5 B1 1_555 1_555
C6 B1 1_555 1_555
F1 C5 1_555 1_555
F2 C5 1_555 1_555
F3 C5 1_555 1_555
F4 C6 1_555 1_555
F5 C6 1_555 1_555
F6 C6 1_555 1_555
Cs1 O1 1_555 1_555
Cs1B O1 1_555 1_555
Cs1_2 F1 1_555 1_555
Cs1A F3 1_555 1_555
O1B Cs1 1_555 1_555
F1_2 Cs1 1_555 1_555
F2B Cs1 1_555 1_555
F3A Cs1 1_555 1_555
F5B Cs1 1_555 1_555
F6A Cs1 1_555 1_555
C3 C4 1_555 1_555
F2 Cs1B 1_555 1_555
F4 Cs1 1_555 1_555
F5 Cs1B 1_555 1_555
F6 Cs1A 1_555 1_555
Cs1B O1B 1_555 1_555

#END
