
#######################################################################
#
#                 Cambridge Crystallographic Data Centre
#                                CCDC 
#
#######################################################################
#
# If this CIF has been generated from an entry in the Cambridge 
# Structural Database, then it will include bibliographic, chemical, 
# crystal, experimental, refinement or atomic coordinate data resulting 
# from the CCDC's data processing and validation procedures.
#
#######################################################################

data_EBENIK
_symmetry_cell_setting           triclinic
_symmetry_space_group_name_H-M   'P -1'
_symmetry_Int_Tables_number      2
_space_group_name_Hall           '-P 1'
loop_
_symmetry_equiv_pos_site_id
_symmetry_equiv_pos_as_xyz
1 x,y,z
2 -x,-y,-z
_cell_length_a                   8.3032(10)
_cell_length_b                   11.4028(11)
_cell_length_c                   12.3817(10)
_cell_angle_alpha                76.926(2)
_cell_angle_beta                 83.3280(10)
_cell_angle_gamma                72.711(2)
_cell_volume                     1088.8
loop_
_atom_site_label
_atom_site_type_symbol
_atom_site_fract_x
_atom_site_fract_y
_atom_site_fract_z
Sb1 Sb -0.21471(3) 0.328789(18) 0.194990(17)
F1 F -0.3019(4) 0.4586(2) 0.0799(2)
F2 F -0.1093(3) 0.4293(2) 0.2437(2)
F3 F -0.0208(3) 0.2691(2) 0.10840(19)
F4 F -0.3161(3) 0.2246(2) 0.14896(19)
F5 F -0.4080(2) 0.38496(18) 0.28317(18)
F6 F -0.1321(3) 0.1987(2) 0.31569(18)
Ag1 Ag 0.21124(3) 0.04190(2) 0.47611(2)
N1 N 0.0981(3) 0.1856(2) 0.5720(2)
C1 C -0.0200(4) 0.2864(3) 0.5293(2)
H1 H -0.0537 0.2928 0.4569
N2 N -0.6726(3) 0.8738(2) 0.4108(2)
C2 C 0.1500(4) 0.1755(3) 0.6761(2)
N3 N 0.3209(4) 0.1922(3) 0.3176(3)
C3 C 0.2766(4) 0.0683(3) 0.7229(3)
H2 H 0.3259 0.0037 0.6824
C4 C 0.3280(4) 0.0575(3) 0.8258(3)
H3 H 0.4139 -0.0146 0.8566
C5 C 0.2555(4) 0.1519(3) 0.8873(3)
H4 H 0.2925 0.1426 0.9593
C6 C 0.1334(4) 0.2559(3) 0.8448(3)
H5 H 0.0855 0.3190 0.8871
C7 C 0.0770(4) 0.2709(3) 0.7377(2)
C8 C -0.0495(4) 0.3767(3) 0.6893(3)
H6 H -0.1004 0.4419 0.7288
C9 C -0.0995(4) 0.3859(3) 0.5856(3)
C10 C -0.2277(4) 0.4911(3) 0.5319(3)
C11 C -0.3344(4) 0.5773(3) 0.4865(3)
C12 C -0.4602(4) 0.6753(3) 0.4226(3)
C13 C -0.5572(4) 0.7811(3) 0.4665(2)
H7 H -0.5380 0.7852 0.5395
C14 C -0.7032(4) 0.8684(3) 0.3052(2)
C15 C -0.8269(4) 0.9656(3) 0.2452(3)
H8 H -0.8894 1.0346 0.2776
C16 C -0.8580(4) 0.9617(3) 0.1406(3)
H9 H -0.9418 1.0284 0.1007
C17 C -0.7676(4) 0.8600(3) 0.0908(3)
H10 H -0.7905 0.8585 0.0178
C18 C -0.6474(4) 0.7638(3) 0.1474(3)
H11 H -0.5870 0.6952 0.1137
C19 C -0.6115(4) 0.7652(3) 0.2562(2)
C20 C -0.4884(4) 0.6692(3) 0.3176(3)
H12 H -0.4243 0.5996 0.2863
C21 C 0.3116(5) 0.2635(4) 0.2373(3)
C22 C 0.2999(5) 0.3562(4) 0.1339(3)
H13 H 0.1808 0.3970 0.1186
H14 H 0.3563 0.3147 0.0730
H15 H 0.3546 0.4193 0.1405
Ag1_2 Ag -0.78876(3) 1.04190(2) 0.47611(2)
N2_2 N 0.3274(3) -0.1262(2) 0.4108(2)
loop_
_geom_bond_atom_site_label_1
_geom_bond_atom_site_label_2
_geom_bond_site_symmetry_1
_geom_bond_site_symmetry_2
Sb1 F1 1_555 1_555
Ag1 N1 1_555 1_555
N1 C1 1_555 1_555
C1 H1 1_555 1_555
F2 Sb1 1_555 1_555
N2 C13 1_555 1_555
C2 N1 1_555 1_555
F3 Sb1 1_555 1_555
N3 Ag1 1_555 1_555
C3 C2 1_555 1_555
H2 C3 1_555 1_555
F4 Sb1 1_555 1_555
C4 C3 1_555 1_555
H3 C4 1_555 1_555
F5 Sb1 1_555 1_555
C5 C4 1_555 1_555
H4 C5 1_555 1_555
F6 Sb1 1_555 1_555
C6 C5 1_555 1_555
H5 C6 1_555 1_555
C7 C2 1_555 1_555
C8 C7 1_555 1_555
H6 C8 1_555 1_555
C9 C1 1_555 1_555
C10 C9 1_555 1_555
C11 C10 1_555 1_555
C12 C11 1_555 1_555
C13 C12 1_555 1_555
H7 C13 1_555 1_555
C14 N2 1_555 1_555
C15 C14 1_555 1_555
H8 C15 1_555 1_555
C16 C15 1_555 1_555
H9 C16 1_555 1_555
C17 C16 1_555 1_555
H10 C17 1_555 1_555
C18 C17 1_555 1_555
H11 C18 1_555 1_555
C19 C14 1_555 1_555
C20 C12 1_555 1_555
H12 C20 1_555 1_555
C21 N3 1_555 1_555
C22 C21 1_555 1_555
H13 C22 1_555 1_555
H14 C22 1_555 1_555
H15 C22 1_555 1_555
Ag1_2 N2 1_555 1_555
N2_2 Ag1 1_555 1_555
C6 C7 1_555 1_555
C8 C9 1_555 1_555
C18 C19 1_555 1_555
C19 C20 1_555 1_555

#END
