
#######################################################################
#
#                 Cambridge Crystallographic Data Centre
#                                CCDC 
#
#######################################################################
#
# If this CIF has been generated from an entry in the Cambridge 
# Structural Database, then it will include bibliographic, chemical, 
# crystal, experimental, refinement or atomic coordinate data resulting 
# from the CCDC's data processing and validation procedures.
#
#######################################################################

data_EBERAG
_symmetry_cell_setting           orthorhombic
_symmetry_space_group_name_H-M   'P n a 21'
_symmetry_Int_Tables_number      33
_space_group_name_Hall           'P 2c -2n'
loop_
_symmetry_equiv_pos_site_id
_symmetry_equiv_pos_as_xyz
1 x,y,z
2 -x,-y,1/2+z
3 1/2+x,1/2-y,z
4 1/2-x,1/2+y,1/2+z
_cell_length_a                   18.484(5)
_cell_length_b                   11.438(3)
_cell_length_c                   9.597(3)
_cell_angle_alpha                90
_cell_angle_beta                 90
_cell_angle_gamma                90
_cell_volume                     2029
loop_
_atom_site_label
_atom_site_type_symbol
_atom_site_fract_x
_atom_site_fract_y
_atom_site_fract_z
Zn1 Zn 0.12482(6) 0.35791(11) 0.29161(18)
Br1 Br 0.07992(8) 0.33106(14) 0.0647(2)
Br2 Br 0.05818(8) 0.30728(14) 0.4978(2)
N1 N 0.1557(4) 0.5284(7) 0.3230(10)
N2 N 0.1031(4) 0.7661(7) 0.5518(10)
H1 H 0.0639 0.7332 0.5797
N3 N -0.1204(4) 1.2256(7) 0.5376(10)
H2 H -0.0837 1.2710 0.5491
N4 N -0.2807(4) 1.2336(7) 0.3127(10)
C1 C 0.1210(5) 0.5939(9) 0.4153(12)
H3 H 0.0798 0.5637 0.4578
C2 C 0.1435(5) 0.7057(8) 0.4514(10)
C3 C 0.2068(5) 0.7490(10) 0.3902(11)
H4 H 0.2253 0.8215 0.4154
C4 C 0.2413(5) 0.6797(8) 0.2900(15)
H5 H 0.2821 0.7078 0.2443
C5 C 0.2151(6) 0.5701(9) 0.2590(12)
H6 H 0.2387 0.5243 0.1931
C6 C 0.1192(5) 0.8699(9) 0.6087(11)
C7 C 0.0747(5) 1.0076(8) 0.7742(14)
H7 H 0.1179 1.0082 0.8318
H8 H 0.0784 1.0708 0.7072
C8 C 0.0103(5) 1.0230(9) 0.8609(11)
H9 H 0.0126 1.0993 0.9048
H10 H 0.0110 0.9648 0.9343
C9 C -0.0611(5) 1.0132(8) 0.7832(13)
H11 H -0.0622 0.9431 0.7264
H12 H -0.1014 1.0111 0.8478
C10 C -0.1215(5) 1.1268(9) 0.6157(11)
C11 C -0.1714(5) 1.2618(8) 0.4414(11)
C12 C -0.2325(5) 1.1988(8) 0.4097(11)
H13 H -0.2410 1.1292 0.4570
C13 C -0.2692(6) 1.3322(9) 0.2461(12)
H14 H -0.3020 1.3559 0.1783
C14 C -0.2097(6) 1.4016(8) 0.2740(14)
H15 H -0.2035 1.4720 0.2270
C15 C -0.1591(6) 1.3659(9) 0.3727(12)
H16 H -0.1183 1.4108 0.3917
O1 O 0.1702(4) 0.9305(7) 0.5827(8)
O2 O 0.0683(4) 0.8965(6) 0.7024(8)
O3 O -0.0643(3) 1.1183(6) 0.6957(8)
O4 O -0.1705(4) 1.0558(6) 0.6131(8)
Zn1B Zn -0.37518(6) 1.14209(11) 0.29161(18)
N4B N 0.2193(4) 0.2664(7) 0.3127(10)
loop_
_geom_bond_atom_site_label_1
_geom_bond_atom_site_label_2
_geom_bond_site_symmetry_1
_geom_bond_site_symmetry_2
Zn1 Br1 1_555 1_555
Br2 Zn1 1_555 1_555
N1 Zn1 1_555 1_555
N2 H1 1_555 1_555
N3 H2 1_555 1_555
N4 C12 1_555 1_555
C1 N1 1_555 1_555
H3 C1 1_555 1_555
C2 N2 1_555 1_555
C3 C2 1_555 1_555
H4 C3 1_555 1_555
C4 C3 1_555 1_555
H5 C4 1_555 1_555
C5 N1 1_555 1_555
H6 C5 1_555 1_555
C6 N2 1_555 1_555
C7 H7 1_555 1_555
H8 C7 1_555 1_555
C8 C7 1_555 1_555
H9 C8 1_555 1_555
H10 C8 1_555 1_555
C9 C8 1_555 1_555
H11 C9 1_555 1_555
H12 C9 1_555 1_555
C10 N3 1_555 1_555
C11 N3 1_555 1_555
C12 C11 1_555 1_555
H13 C12 1_555 1_555
C13 N4 1_555 1_555
H14 C13 1_555 1_555
C14 C13 1_555 1_555
H15 C14 1_555 1_555
C15 C11 1_555 1_555
H16 C15 1_555 1_555
O1 C6 1_555 1_555
O2 C6 1_555 1_555
O3 C9 1_555 1_555
O4 C10 1_555 1_555
Zn1B N4 1_555 1_555
N4B Zn1 1_555 1_555
C1 C2 1_555 1_555
C4 C5 1_555 1_555
C7 O2 1_555 1_555
C10 O3 1_555 1_555
C14 C15 1_555 1_555

#END
