
#######################################################################
#
#                 Cambridge Crystallographic Data Centre
#                                CCDC 
#
#######################################################################
#
# If this CIF has been generated from an entry in the Cambridge 
# Structural Database, then it will include bibliographic, chemical, 
# crystal, experimental, refinement or atomic coordinate data resulting 
# from the CCDC's data processing and validation procedures.
#
#######################################################################

data_EBEZES
_symmetry_cell_setting           monoclinic
_symmetry_space_group_name_H-M   'P 21/c'
_symmetry_Int_Tables_number      14
_space_group_name_Hall           '-P 2ybc'
loop_
_symmetry_equiv_pos_site_id
_symmetry_equiv_pos_as_xyz
1 x,y,z
2 -x,1/2+y,1/2-z
3 -x,-y,-z
4 x,1/2-y,1/2+z
_cell_length_a                   6.6989(9)
_cell_length_b                   19.186(2)
_cell_length_c                   22.557(3)
_cell_angle_alpha                90
_cell_angle_beta                 96.501(11)
_cell_angle_gamma                90
_cell_volume                     2880.5
loop_
_atom_site_label
_atom_site_type_symbol
_atom_site_fract_x
_atom_site_fract_y
_atom_site_fract_z
Cu1 Cu 0.07561(11) 0.73187(3) 0.10118(3)
Cu2 Cu 0.35285(12) 0.32763(3) 0.35975(3)
Ca1 Ca 0.05561(18) 0.58737(5) -0.04765(5)
Ca2 Ca 0.21109(19) 0.55045(5) 0.33012(5)
N1 N 0.1143(7) 0.8156(2) 0.14709(18)
N2 N 0.0717(7) 0.6692(2) 0.16625(18)
N3 N 0.3691(7) 0.2987(2) 0.27947(19)
N4 N 0.3992(7) 0.2381(2) 0.39595(19)
O1 O 0.0877(6) 0.79068(18) 0.03287(16)
O2 O 0.1091(7) 0.9019(2) 0.00609(18)
O3 O 0.1575(6) 0.87901(18) 0.23376(16)
O4 O 0.1452(7) 0.63646(18) 0.26243(16)
O5 O 0.0326(6) 0.64795(18) 0.05053(16)
O6 O -0.0081(7) 0.53450(18) 0.05481(16)
O7 O 0.3112(7) 0.42073(19) 0.32621(16)
O8 O 0.3154(7) 0.48098(19) 0.24376(17)
O9 O 0.3701(6) 0.21931(19) 0.20419(16)
O10 O 0.4635(7) 0.12203(19) 0.39772(17)
O11 O 0.3551(7) 0.36211(19) 0.44021(17)
O12 O 0.3933(7) 0.3283(2) 0.53512(17)
O13 O -0.2861(7) 0.6020(2) -0.07827(19)
H1 H -0.353(9) 0.570(2) -0.101(2)
H2 H -0.349(9) 0.6405(19) -0.090(3)
O14 O 0.1522(7) 0.5792(2) -0.14518(17)
H3 H 0.261(7) 0.556(3) -0.145(2)
H4 H 0.132(9) 0.598(3) -0.1808(19)
O15 O 0.1146(7) 0.70627(19) -0.06934(18)
H5 H 0.229(7) 0.713(3) -0.083(2)
H6 H 0.110(9) 0.735(3) -0.041(2)
O16 O 0.3903(7) 0.5705(2) -0.00433(18)
H7 H 0.437(9) 0.590(3) 0.0298(17)
H8 H 0.487(8) 0.575(3) -0.026(2)
O17 O 0.5515(8) 0.5921(2) 0.3445(2)
H9 H 0.581(14) 0.595(4) 0.3800(16)
H10 H 0.562(13) 0.631(3) 0.327(3)
O18 O -0.1200(7) 0.5131(2) 0.2991(2)
H11 H -0.151(9) 0.4689(19) 0.292(3)
H12 H -0.208(9) 0.527(3) 0.322(3)
O19 O 0.2738(9) 0.5067(2) 0.42902(19)
H13 H 0.226(10) 0.526(3) 0.460(2)
H14 H 0.319(11) 0.467(2) 0.444(3)
O20 O 0.0589(8) 0.6329(2) 0.38841(19)
H15 H 0.023(11) 0.630(3) 0.4240(19)
H16 H 0.010(11) 0.672(3) 0.375(3)
C1 C 0.1074(10) 0.8566(3) 0.0451(2)
C2 C 0.1307(10) 0.8772(3) 0.1103(2)
H17 H 0.2631 0.8995 0.1209
H18 H 0.0250 0.9111 0.1176
C3 C 0.1321(9) 0.8216(3) 0.2057(2)
C4 C 0.1287(9) 0.7575(2) 0.2449(2)
H19 H 0.0138 0.7640 0.2684
H20 H 0.2514 0.7602 0.2737
C5 C 0.1160(9) 0.6827(3) 0.2230(2)
C6 C 0.0483(10) 0.5960(3) 0.1478(2)
H21 H -0.0699 0.5756 0.1640
H22 H 0.1688 0.5691 0.1638
C7 C 0.0214(9) 0.5914(3) 0.0812(2)
C8 C 0.3255(9) 0.4239(3) 0.2696(2)
C9 C 0.3529(9) 0.3565(3) 0.2367(2)
H23 H 0.2369 0.3489 0.2062
H24 H 0.4760 0.3591 0.2164
C10 C 0.3757(9) 0.2341(3) 0.2591(2)
C11 C 0.4004(9) 0.1732(3) 0.3020(2)
H25 H 0.2832 0.1425 0.2911
H26 H 0.5196 0.1471 0.2918
C12 C 0.4229(9) 0.1786(3) 0.3691(2)
C13 C 0.4180(9) 0.2409(3) 0.4610(2)
H27 H 0.5528 0.2242 0.4775
H28 H 0.3163 0.2101 0.4760
C14 C 0.3875(9) 0.3155(3) 0.4811(2)
Ca1B Ca -0.05561(18) 0.41263(5) 0.04765(5)
O6B O 0.0081(7) 0.46550(18) -0.05481(16)
O21 O 0.4970(7) 0.2799(2) 0.10678(18)
H29 H 0.464(10) 0.264(3) 0.1413(16)
H30 H 0.457(10) 0.246(3) 0.0823(19)
O22 O 0.4935(7) -0.00497(19) 0.35508(18)
H31 H 0.484(10) 0.038(2) 0.364(2)
H32 H 0.554(9) -0.008(3) 0.325(2)
O23 O 0.728(3) 0.5384(9) 0.4418(8)
loop_
_geom_bond_atom_site_label_1
_geom_bond_atom_site_label_2
_geom_bond_site_symmetry_1
_geom_bond_site_symmetry_2
Cu1 N1 1_555 1_555
Cu2 N3 1_555 1_555
Ca1 O5 1_555 1_555
Ca2 O4 1_555 1_555
N1 C2 1_555 1_555
N2 Cu1 1_555 1_555
N3 C9 1_555 1_555
N4 Cu2 1_555 1_555
O1 Cu1 1_555 1_555
O2 C1 1_555 1_555
O3 C3 1_555 1_555
O4 C5 1_555 1_555
O5 Cu1 1_555 1_555
O6 Ca1 1_555 1_555
O7 Cu2 1_555 1_555
O8 Ca2 1_555 1_555
O9 C10 1_555 1_555
O10 C12 1_555 1_555
O11 Cu2 1_555 1_555
O12 C14 1_555 1_555
O13 Ca1 1_555 1_555
H1 O13 1_555 1_555
H2 O13 1_555 1_555
O14 Ca1 1_555 1_555
H3 O14 1_555 1_555
H4 O14 1_555 1_555
O15 Ca1 1_555 1_555
H5 O15 1_555 1_555
H6 O15 1_555 1_555
O16 Ca1 1_555 1_555
H7 O16 1_555 1_555
H8 O16 1_555 1_555
O17 Ca2 1_555 1_555
H9 O17 1_555 1_555
H10 O17 1_555 1_555
O18 Ca2 1_555 1_555
H11 O18 1_555 1_555
H12 O18 1_555 1_555
O19 Ca2 1_555 1_555
H13 O19 1_555 1_555
H14 O19 1_555 1_555
O20 Ca2 1_555 1_555
H15 O20 1_555 1_555
H16 O20 1_555 1_555
C1 O1 1_555 1_555
C2 C1 1_555 1_555
H17 C2 1_555 1_555
H18 C2 1_555 1_555
C3 N1 1_555 1_555
C4 C3 1_555 1_555
H19 C4 1_555 1_555
H20 C4 1_555 1_555
C5 N2 1_555 1_555
C6 N2 1_555 1_555
H21 C6 1_555 1_555
H22 C6 1_555 1_555
C7 O5 1_555 1_555
C8 O7 1_555 1_555
C9 C8 1_555 1_555
H23 C9 1_555 1_555
H24 C9 1_555 1_555
C10 N3 1_555 1_555
C11 C10 1_555 1_555
H25 C11 1_555 1_555
H26 C11 1_555 1_555
C12 N4 1_555 1_555
C13 N4 1_555 1_555
H27 C13 1_555 1_555
H28 C13 1_555 1_555
C14 O11 1_555 1_555
O21 H29 1_555 1_555
H30 O21 1_555 1_555
O22 H31 1_555 1_555
H32 O22 1_555 1_555
Ca1B O6 1_555 1_555
O6B Ca1 1_555 1_555
Ca2 O7 1_555 1_555
O6 C7 1_555 1_555
O8 C8 1_555 1_555
C4 C5 1_555 1_555
C6 C7 1_555 1_555
C11 C12 1_555 1_555
C13 C14 1_555 1_555
Ca1B O6B 1_555 1_555

#END
