
#######################################################################
#
#                 Cambridge Crystallographic Data Centre
#                                CCDC 
#
#######################################################################
#
# If this CIF has been generated from an entry in the Cambridge 
# Structural Database, then it will include bibliographic, chemical, 
# crystal, experimental, refinement or atomic coordinate data resulting 
# from the CCDC's data processing and validation procedures.
#
#######################################################################

data_EBIBEX
_symmetry_cell_setting           monoclinic
_symmetry_space_group_name_H-M   'P 21'
_symmetry_Int_Tables_number      4
_space_group_name_Hall           'P 2yb'
loop_
_symmetry_equiv_pos_site_id
_symmetry_equiv_pos_as_xyz
1 x,y,z
2 -x,1/2+y,-z
_cell_length_a                   11.0032(4)
_cell_length_b                   7.6246(3)
_cell_length_c                   16.1711(4)
_cell_angle_alpha                90
_cell_angle_beta                 91.9690(10)
_cell_angle_gamma                90
_cell_volume                     1355.87
loop_
_atom_site_label
_atom_site_type_symbol
_atom_site_fract_x
_atom_site_fract_y
_atom_site_fract_z
Cu1 Cu 0.23773(5) 0.54273(7) 0.22649(4)
O1 O 0.2826(3) 0.3578(4) 0.3076(2)
O2 O 0.1749(3) 0.7540(4) 0.1729(2)
O3 O 0.2065(3) 1.0392(5) 0.1596(2)
N1 N 0.3883(3) 0.6828(5) 0.2476(2)
H1 H 0.4493 0.6325 0.2194
C1 C 0.3907(4) 0.3457(7) 0.3505(3)
C2 C 0.4289(4) 0.1865(7) 0.3843(3)
H2 H 0.3793 0.0882 0.3784
C3 C 0.5410(4) 0.1727(8) 0.4272(3)
H3 H 0.5663 0.0650 0.4487
C4 C 0.6139(4) 0.3177(8) 0.4377(3)
H4 H 0.6885 0.3089 0.4663
C5 C 0.5756(4) 0.4749(7) 0.4059(3)
H5 H 0.6258 0.5723 0.4125
C6 C 0.4624(4) 0.4942(6) 0.3633(3)
C7 C 0.4216(5) 0.6744(7) 0.3378(3)
H6 H 0.3518 0.7077 0.3693
H7 H 0.4863 0.7575 0.3503
C8 C 0.3708(4) 0.8664(6) 0.2162(3)
H8 H 0.3789 0.9447 0.2642
C9 C 0.2414(5) 0.8883(7) 0.1800(3)
C10 C 0.4701(4) 0.9204(8) 0.1554(3)
H9 H 0.4531 1.0415 0.1384
C11 C 0.5968(4) 0.9190(9) 0.1987(4)
H10 H 0.5956 0.9907 0.2475
H11 H 0.6555 0.9646 0.1618
H12 H 0.6182 0.8010 0.2139
C12 C 0.4657(6) 0.8094(9) 0.0780(4)
H13 H 0.3854 0.8135 0.0530
H14 H 0.4860 0.6904 0.0921
H15 H 0.5230 0.8539 0.0398
Cu2 Cu 0.13426(5) 0.21263(7) 0.30003(4)
O4 O 0.0875(3) 0.4084(4) 0.2295(2)
O5 O 0.1769(3) 0.0101(4) 0.3638(2)
O6 O 0.1047(3) -0.1685(6) 0.4580(3)
N2 N -0.0345(3) 0.1315(5) 0.3132(2)
H16 H -0.0540 0.0564 0.2711
C13 C -0.0232(4) 0.4228(6) 0.1886(3)
C14 C -0.0290(4) 0.4969(7) 0.1092(3)
H17 H 0.0416 0.5304 0.0834
C15 C -0.1426(5) 0.5195(8) 0.0694(3)
H18 H -0.1480 0.5705 0.0172
C16 C -0.2472(5) 0.4666(8) 0.1073(4)
H19 H -0.3229 0.4839 0.0812
C17 C -0.2388(4) 0.3888(7) 0.1833(4)
H20 H -0.3095 0.3506 0.2076
C18 C -0.1275(4) 0.3650(6) 0.2257(3)
C19 C -0.1218(4) 0.2814(6) 0.3091(3)
H21 H -0.2022 0.2398 0.3223
H22 H -0.0973 0.3684 0.3501
C20 C -0.0361(4) 0.0319(7) 0.3924(3)
H23 H -0.0452 0.1189 0.4364
C21 C 0.0911(4) -0.0519(7) 0.4069(3)
C22 C -0.1437(4) -0.0940(6) 0.3979(3)
H24 H -0.2142 -0.0333 0.3726
C23 C -0.1750(4) -0.1306(8) 0.4870(3)
H25 H -0.2432 -0.2091 0.4880
H26 H -0.1953 -0.0226 0.5137
H27 H -0.1063 -0.1833 0.5156
C24 C -0.1265(5) -0.2602(8) 0.3477(4)
H28 H -0.1961 -0.3347 0.3528
H29 H -0.0550 -0.3206 0.3681
H30 H -0.1174 -0.2301 0.2906
O7 O 0.3141(3) 0.3805(5) 0.1194(2)
H31 H 0.279(4) 0.275(3) 0.127(3)
H32 H 0.281(4) 0.424(5) 0.0724(17)
Cu2_2 Cu 0.13426(5) 1.21263(7) 0.30003(4)
O3_2 O 0.2065(3) 0.0392(5) 0.1596(2)
O8 O 0.2192(4) 0.5484(7) -0.0227(2)
H33 H 0.230(4) 0.662(2) -0.035(3)
H34 H 0.158(3) 0.510(4) -0.057(2)
O9 O -0.0488(4) 0.9490(6) 0.1416(3)
H35 H 0.0320(11) 0.951(5) 0.138(3)
H36 H -0.069(3) 0.842(3) 0.160(3)
loop_
_geom_bond_atom_site_label_1
_geom_bond_atom_site_label_2
_geom_bond_site_symmetry_1
_geom_bond_site_symmetry_2
Cu1 O1 1_555 1_555
O1 C1 1_555 1_555
O2 Cu1 1_555 1_555
O3 C9 1_555 1_555
N1 Cu1 1_555 1_555
H1 N1 1_555 1_555
C1 C2 1_555 1_555
C2 H2 1_555 1_555
C3 C2 1_555 1_555
H3 C3 1_555 1_555
C4 C3 1_555 1_555
H4 C4 1_555 1_555
C5 C4 1_555 1_555
H5 C5 1_555 1_555
C6 C1 1_555 1_555
C7 N1 1_555 1_555
H6 C7 1_555 1_555
H7 C7 1_555 1_555
C8 N1 1_555 1_555
H8 C8 1_555 1_555
C9 O2 1_555 1_555
C10 C8 1_555 1_555
H9 C10 1_555 1_555
C11 C10 1_555 1_555
H10 C11 1_555 1_555
H11 C11 1_555 1_555
H12 C11 1_555 1_555
C12 C10 1_555 1_555
H13 C12 1_555 1_555
H14 C12 1_555 1_555
H15 C12 1_555 1_555
Cu2 O1 1_555 1_555
O4 Cu1 1_555 1_555
O5 Cu2 1_555 1_555
O6 C21 1_555 1_555
N2 Cu2 1_555 1_555
H16 N2 1_555 1_555
C13 O4 1_555 1_555
C14 C13 1_555 1_555
H17 C14 1_555 1_555
C15 C14 1_555 1_555
H18 C15 1_555 1_555
C16 C15 1_555 1_555
H19 C16 1_555 1_555
C17 C16 1_555 1_555
H20 C17 1_555 1_555
C18 C13 1_555 1_555
C19 N2 1_555 1_555
H21 C19 1_555 1_555
H22 C19 1_555 1_555
C20 N2 1_555 1_555
H23 C20 1_555 1_555
C21 O5 1_555 1_555
C22 C20 1_555 1_555
H24 C22 1_555 1_555
C23 C22 1_555 1_555
H25 C23 1_555 1_555
H26 C23 1_555 1_555
H27 C23 1_555 1_555
C24 C22 1_555 1_555
H28 C24 1_555 1_555
H29 C24 1_555 1_555
H30 C24 1_555 1_555
O7 Cu1 1_555 1_555
H31 O7 1_555 1_555
H32 O7 1_555 1_555
O8 H33 1_555 1_555
H34 O8 1_555 1_555
O9 H35 1_555 1_555
H36 O9 1_555 1_555
Cu2_2 O3 1_555 1_555
O3_2 Cu2 1_555 1_555
C5 C6 1_555 1_555
C6 C7 1_555 1_555
C8 C9 1_555 1_555
Cu2 O4 1_555 1_555
C17 C18 1_555 1_555
C18 C19 1_555 1_555
C20 C21 1_555 1_555

#END
