
#######################################################################
#
#                 Cambridge Crystallographic Data Centre
#                                CCDC 
#
#######################################################################
#
# If this CIF has been generated from an entry in the Cambridge 
# Structural Database, then it will include bibliographic, chemical, 
# crystal, experimental, refinement or atomic coordinate data resulting 
# from the CCDC's data processing and validation procedures.
#
#######################################################################

data_EBIDOK
_symmetry_cell_setting           trigonal
_symmetry_space_group_name_H-M   'P -3 c 1'
_symmetry_Int_Tables_number      165
_space_group_name_Hall           '-P 3 2"c'
loop_
_symmetry_equiv_pos_site_id
_symmetry_equiv_pos_as_xyz
1 x,y,z
2 -y,x-y,z
3 -x+y,-x,z
4 x-y,-y,1/2-z
5 -x,-x+y,1/2-z
6 y,x,1/2-z
7 -x,-y,-z
8 y,-x+y,-z
9 x-y,x,-z
10 -x+y,y,1/2+z
11 x,x-y,1/2+z
12 -y,-x,1/2+z
_cell_length_a                   27.6841(11)
_cell_length_b                   27.6841(11)
_cell_length_c                   17.4801(14)
_cell_angle_alpha                90
_cell_angle_beta                 90
_cell_angle_gamma                120
_cell_volume                     11602.1
loop_
_atom_site_label
_atom_site_type_symbol
_atom_site_fract_x
_atom_site_fract_y
_atom_site_fract_z
C8 C 0.6482(7) 0.1000(7) 0.1917(10)
C9 C 0.6603(7) 0.0907(7) 0.1246(9)
H1 H 0.6725 0.1208 0.0914
C10 C 0.6587(6) 0.0408(6) 0.0897(11)
C11 C 0.7650(4) 0.0532(4) 0.2499(6)
C12 C 0.7669(9) 0.0000(9) 0.2500
H2 H 0.8005 0.0000 0.2500
C13 C 0.6521(4) 0.1534(3) 0.2122(6)
C14 C 0.6467(4) 0.1593(4) 0.2902(5)
H3 H 0.6414 0.1309 0.3237
C15 C 0.6493(5) 0.2075(5) 0.3181(5)
H4 H 0.6457 0.2115 0.3703
N1 N 0.6573(4) 0.2499(4) 0.2680(7)
C16 C 0.6627(5) 0.2440(4) 0.1900(7)
H5 H 0.6680 0.2724 0.1565
C17 C 0.6600(4) 0.1957(4) 0.1621(5)
H6 H 0.6636 0.1918 0.1099
C18 C 0.6603(4) 0.0303(4) 0.0147(4)
C19 C 0.6975(4) 0.0727(3) -0.0333(6)
H7 H 0.7166 0.1093 -0.0159
C20 C 0.7063(4) 0.0603(4) -0.1073(5)
H8 H 0.7312 0.0886 -0.1394
N2 N 0.6778(5) 0.0055(5) -0.1333(4)
C21 C 0.6405(5) -0.0369(4) -0.0853(6)
H9 H 0.6214 -0.0735 -0.1027
C22 C 0.6318(4) -0.0244(3) -0.0113(5)
H10 H 0.6069 -0.0528 0.0208
C23 C 0.8204(4) 0.1052(3) 0.2461(5)
C24 C 0.8687(4) 0.1094(5) 0.2767(7)
H11 H 0.8683 0.0779 0.2959
C25 C 0.9177(4) 0.1608(4) 0.2784(7)
H12 H 0.9500 0.1636 0.2988
N3 N 0.9183(5) 0.2079(4) 0.2495(6)
C26 C 0.8699(4) 0.2036(5) 0.2190(7)
H13 H 0.8704 0.2352 0.1997
C27 C 0.8210(4) 0.1523(4) 0.2173(7)
H14 H 0.7886 0.1494 0.1969
O4 O 0.6318(3) 0.0651(3) 0.2491(5)
O5 O 0.6379(3) -0.0014(3) 0.1399(4)
O6 O 0.7225(3) 0.0565(3) 0.2489(5)
Fe1 Fe 0.64401(8) 0.0000 0.2500
Ag1 Ag 0.6667 0.3333 0.30205(8)
Ag2 Ag 0.70832(5) 0.0000 -0.2500
C8C C 0.5482(10) -0.1000(7) 0.3083(10)
C8B C 0.4518(10) 0.3518(7) 0.1917(10)
C8A C 0.9000(7) 0.5482(10) 0.1917(10)
C8C_2 C 0.5482(10) -0.1000(7) -0.6917(10)
C8_2 C 0.6482(7) 0.1000(7) 1.1917(10)
C9C C 0.5696(10) -0.0907(7) 0.3754(9)
C9B C 0.4304(10) 0.3397(7) 0.1246(9)
C9A C 0.9093(7) 0.5696(10) 0.1246(9)
C9C_2 C 0.5696(10) -0.0907(7) -0.6246(9)
C9_2 C 0.6603(7) 0.0907(7) 1.1246(9)
H1C H 0.5517 -0.1208 0.4086
H1B H 0.4483 0.3275 0.0914
H1A H 0.8792 0.5517 0.0914
H1C_2 H 0.5517 -0.1208 -0.5914
H1_2 H 0.6725 0.1208 1.0914
C10C C 0.6179(8) -0.0408(6) 0.4103(11)
C10B C 0.3821(8) 0.3413(6) 0.0897(11)
C10A C 0.9592(6) 0.6179(8) 0.0897(11)
C10C_2 C 0.6179(8) -0.0408(6) -0.5897(11)
C10_2 C 0.6587(6) 0.0408(6) 1.0897(11)
C11C C 0.7118(6) -0.0532(4) 0.2501(6)
C11H C 0.7118(6) -0.2350(4) -0.2499(6)
C11J C 0.7650(4) -0.2882(6) -0.2501(6)
C11K C 0.9468(4) 0.2350(4) -0.2501(6)
C11G C 1.0532(4) 0.2882(6) -0.2499(6)
C12H C 0.7669(13) -0.2331(9) -0.2500
C12G C 1.0000(9) 0.2331(13) -0.2500
H2H H 0.8005 -0.1995 -0.2500
H2G H 1.0000 0.1995 -0.2500
C13C C 0.4987(5) -0.1534(3) 0.2878(6)
C13B C 0.5013(5) 0.3479(4) 0.2122(6)
C13A C 0.8466(3) 0.4987(5) 0.2122(6)
C13C_2 C 0.4987(5) -0.1534(3) -0.7122(6)
C13_2 C 0.6521(4) 0.1534(3) 1.2122(6)
C14C C 0.4874(6) -0.1593(4) 0.2098(5)
C14B C 0.5126(6) 0.3533(4) 0.2902(5)
C14A C 0.8407(4) 0.4874(6) 0.2902(5)
C14C_2 C 0.4874(6) -0.1593(4) -0.7902(5)
C14_2 C 0.6467(4) 0.1593(4) 1.2902(5)
H3C H 0.5105 -0.1309 0.1763
H3B H 0.4895 0.3586 0.3237
H3A H 0.8691 0.5105 0.3237
H3C_2 H 0.5105 -0.1309 -0.8237
H3_2 H 0.6414 0.1309 1.3237
C15C C 0.4418(7) -0.2075(5) 0.1819(5)
C15B C 0.5582(7) 0.3507(5) 0.3181(5)
C15A C 0.7925(5) 0.4418(7) 0.3181(5)
C15C_2 C 0.4418(7) -0.2075(5) -0.8181(5)
C15_2 C 0.6493(5) 0.2075(5) 1.3181(5)
H4C H 0.4342 -0.2115 0.1297
H4B H 0.5658 0.3543 0.3703
H4A H 0.7885 0.4342 0.3703
H4C_2 H 0.4342 -0.2115 -0.8703
H4_2 H 0.6457 0.2115 1.3703
N1C N 0.4074(6) -0.2499(4) 0.2320(7)
N1B N 0.5926(6) 0.3427(4) 0.2680(7)
N1A N 0.7501(4) 0.4074(6) 0.2680(7)
N1C_2 N 0.4074(6) -0.2499(4) -0.7680(7)
N1_2 N 0.6573(4) 0.2499(4) 1.2680(7)
N1B_2 N 0.5926(6) 0.3427(4) 1.2680(7)
N1A_2 N 0.7501(4) 0.4074(6) 1.2680(7)
C16C C 0.4187(6) -0.2440(4) 0.3100(7)
C16B C 0.5813(6) 0.3373(5) 0.1900(7)
C16A C 0.7560(4) 0.4187(6) 0.1900(7)
C16C_2 C 0.4187(6) -0.2440(4) -0.6900(7)
C16_2 C 0.6627(5) 0.2440(4) 1.1900(7)
H5C H 0.3956 -0.2724 0.3435
H5B H 0.6044 0.3320 0.1565
H5A H 0.7276 0.3956 0.1565
H5C_2 H 0.3956 -0.2724 -0.6565
H5_2 H 0.6680 0.2724 1.1565
C17C C 0.4643(6) -0.1957(4) 0.3379(5)
C17B C 0.5357(6) 0.3400(4) 0.1621(5)
C17A C 0.8043(4) 0.4643(6) 0.1621(5)
C17C_2 C 0.4643(6) -0.1957(4) -0.6621(5)
C17_2 C 0.6600(4) 0.1957(4) 1.1621(5)
H6C H 0.4718 -0.1918 0.3901
H6B H 0.5282 0.3364 0.1099
H6A H 0.8082 0.4718 0.1099
H6C_2 H 0.4718 -0.1918 -0.6099
H6_2 H 0.6636 0.1918 1.1099
C18C C 0.6300(6) -0.0303(4) 0.4853(4)
C18B C 0.3700(6) 0.3397(4) 0.0147(4)
C18A C 0.9697(4) 0.6300(6) 0.0147(4)
C18C_2 C 0.6300(6) -0.0303(4) -0.5147(4)
C18_2 C 0.6603(4) 0.0303(4) 1.0147(4)
C19C C 0.6248(5) -0.0727(3) 0.5333(6)
C19B C 0.3752(5) 0.3025(4) -0.0333(6)
C19A C 0.9273(3) 0.6248(5) -0.0333(6)
C19C_2 C 0.6248(5) -0.0727(3) -0.4667(6)
C19_2 C 0.6975(4) 0.0727(3) 0.9667(6)
H7C H 0.6073 -0.1093 0.5159
H7B H 0.3927 0.2834 -0.0159
H7A H 0.8907 0.6073 -0.0159
H7C_2 H 0.6073 -0.1093 -0.4841
H7_2 H 0.7166 0.1093 0.9841
C20C C 0.6460(6) -0.0603(4) 0.6073(5)
C20B C 0.3540(6) 0.2937(4) -0.1073(5)
C20A C 0.9397(4) 0.6460(6) -0.1073(5)
C20C_2 C 0.6460(6) -0.0603(4) -0.3927(5)
C20_2 C 0.7063(4) 0.0603(4) 0.8927(5)
H8C H 0.6426 -0.0886 0.6394
H8B H 0.3574 0.2688 -0.1394
H8A H 0.9114 0.6426 -0.1394
H8C_2 H 0.6426 -0.0886 -0.3606
H8_2 H 0.7312 0.0886 0.8606
N2C N 0.6723(7) -0.0055(5) 0.6333(4)
N2B N 0.3277(7) 0.3222(5) -0.1333(4)
N2A N 0.9945(5) 0.6723(7) -0.1333(4)
N2C_2 N 0.6723(7) -0.0055(5) -0.3667(4)
N2_2 N 0.6778(5) 0.0055(5) 0.8667(4)
N2G N 1.0055(5) 0.3277(7) 0.1333(4)
N2K N 0.9945(5) 0.3222(5) 0.3667(4)
C21C C 0.6774(6) 0.0369(4) 0.5853(6)
C21B C 0.3226(6) 0.3595(5) -0.0853(6)
C21A C 1.0369(4) 0.6774(6) -0.0853(6)
C21C_2 C 0.6774(6) 0.0369(4) -0.4147(6)
C21_2 C 0.6405(5) -0.0369(4) 0.9147(6)
H9C H 0.6949 0.0735 0.6027
H9B H 0.3051 0.3786 -0.1027
H9A H 1.0735 0.6949 -0.1027
H9C_2 H 0.6949 0.0735 -0.3973
H9_2 H 0.6214 -0.0735 0.8973
C22C C 0.6562(5) 0.0244(3) 0.5113(5)
C22B C 0.3438(5) 0.3682(4) -0.0113(5)
C22A C 1.0244(3) 0.6562(5) -0.0113(5)
C22C_2 C 0.6562(5) 0.0244(3) -0.4887(5)
C22_2 C 0.6318(4) -0.0244(3) 0.9887(5)
H10C H 0.6597 0.0528 0.4792
H10B H 0.3403 0.3931 0.0208
H10A H 1.0528 0.6597 0.0208
H10C_2 H 0.6597 0.0528 -0.5208
H10_2 H 0.6069 -0.0528 1.0208
C23C C 0.7152(5) -0.1052(3) 0.2539(5)
C23H C 0.7152(5) -0.1796(4) -0.2461(5)
C23J C 0.8204(4) -0.2848(5) -0.2539(5)
C23K C 0.8948(3) 0.1796(4) -0.2539(5)
C23G C 1.1052(3) 0.2848(5) -0.2461(5)
C24C C 0.7593(6) -0.1094(5) 0.2233(7)
C24H C 0.7593(6) -0.1313(4) -0.2767(7)
C24J C 0.8687(4) -0.2407(6) -0.2233(7)
C24K C 0.8906(5) 0.1313(4) -0.2233(7)
C24G C 1.1094(5) 0.2407(6) -0.2767(7)
H11C H 0.7904 -0.0779 0.2041
H11H H 0.7904 -0.1317 -0.2959
H11J H 0.8683 -0.2096 -0.2041
H11K H 0.9221 0.1317 -0.2041
H11G H 1.0779 0.2096 -0.2959
C25C C 0.7569(6) -0.1608(4) 0.2216(7)
C25H C 0.7569(6) -0.0823(4) -0.2784(7)
C25J C 0.9177(4) -0.2431(6) -0.2216(7)
C25K C 0.8392(4) 0.0823(4) -0.2216(7)
C25G C 1.1608(4) 0.2431(6) -0.2784(7)
H12C H 0.7864 -0.1636 0.2012
H12H H 0.7864 -0.0500 -0.2988
H12J H 0.9500 -0.2136 -0.2012
H12K H 0.8364 0.0500 -0.2012
H12G H 1.1636 0.2136 -0.2988
N3C N 0.7104(6) -0.2079(4) 0.2505(6)
N3H N 0.7104(6) -0.0817(5) -0.2495(6)
N3J N 0.9183(5) -0.2896(6) -0.2505(6)
N3K N 0.7921(4) 0.0817(5) -0.2505(6)
N3G N 1.2079(4) 0.2896(6) -0.2495(6)
N3K_2 N 0.7921(4) 0.0817(5) 0.7495(6)
N3H_2 N 0.7104(6) -0.0817(5) 0.7505(6)
N3D N 1.0817(5) 0.2896(6) 0.2505(6)
C26C C 0.6663(6) -0.2036(5) 0.2810(7)
C26H C 0.6663(6) -0.1301(4) -0.2190(7)
C26J C 0.8699(4) -0.3337(6) -0.2810(7)
C26K C 0.7964(5) 0.1301(4) -0.2810(7)
C26G C 1.2036(5) 0.3337(6) -0.2190(7)
H13C H 0.6352 -0.2352 0.3003
H13H H 0.6352 -0.1296 -0.1997
H13J H 0.8704 -0.3648 -0.3003
H13K H 0.7648 0.1296 -0.3003
H13G H 1.2352 0.3648 -0.1997
C27C C 0.6687(6) -0.1523(4) 0.2827(7)
C27H C 0.6687(6) -0.1790(4) -0.2173(7)
C27J C 0.8210(4) -0.3313(6) -0.2827(7)
C27K C 0.8477(4) 0.1790(4) -0.2827(7)
C27G C 1.1523(4) 0.3313(6) -0.2173(7)
H14C H 0.6392 -0.1494 0.3031
H14H H 0.6392 -0.2114 -0.1969
H14J H 0.7886 -0.3608 -0.3031
H14K H 0.8506 0.2114 -0.3031
H14G H 1.1494 0.3608 -0.1969
O4C O 0.5667(4) -0.0651(3) 0.2509(5)
O4B O 0.4333(4) 0.3682(3) 0.2491(5)
O4A O 0.9349(3) 0.5667(4) 0.2491(5)
O4C_2 O 0.5667(4) -0.0651(3) -0.7491(5)
O4_2 O 0.6318(3) 0.0651(3) 1.2491(5)
O4D O 0.3682(3) 0.4333(4) 0.2509(5)
O4E O 1.0651(3) 0.6318(3) 0.2509(5)
O5C O 0.6393(4) 0.0014(3) 0.3601(4)
O5B O 0.3607(4) 0.3621(3) 0.1399(4)
O5A O 1.0014(3) 0.6393(4) 0.1399(4)
O5C_2 O 0.6393(4) 0.0014(3) -0.6399(4)
O5_2 O 0.6379(3) -0.0014(3) 1.1399(4)
O5D O 0.3621(3) 0.3607(4) 0.3601(4)
O5E O 0.9986(3) 0.6379(3) 0.3601(4)
O6C O 0.6660(4) -0.0565(3) 0.2511(5)
O6H O 0.6660(4) -0.2775(3) -0.2489(5)
O6J O 0.7225(3) -0.3340(4) -0.2511(5)
O6K O 0.9435(3) 0.2775(3) -0.2511(5)
O6G O 1.0565(3) 0.3340(4) -0.2489(5)
O6B O 0.3340(4) 0.2775(3) 0.2489(5)
O6D O 0.2775(3) 0.3340(4) 0.2511(5)
O6A O 0.9435(3) 0.6660(4) 0.2489(5)
O6E O 1.0565(3) 0.7225(3) 0.2511(5)
Fe1B Fe 0.35599(8) 0.35599(8) 0.2500
Fe1A Fe 1.0000 0.64401(8) 0.2500
Fe1H Fe 0.64401(8) -0.35599(8) -0.2500
Fe1_2 Fe 0.64401(8) 0.0000 -0.7500
Fe1G Fe 1.0000 0.35599(8) -0.2500
Fe1_3 Fe 0.64401(8) 0.0000 1.2500
Ag1C Ag 0.3334 -0.3333 0.19795(8)
Ag1C_2 Ag 0.3334 -0.3333 -0.80205(8)
Ag1_2 Ag 0.6667 0.3333 1.30205(8)
Ag2_2 Ag 0.70832(5) 0.0000 0.7500
Ag2G Ag 1.0000 0.29168(5) 0.2500
Ag2H Ag 0.70832(5) -0.29168(5) 0.2500
Ag2B Ag 0.29168(5) 0.29168(5) -0.2500
Ag2A Ag 1.0000 0.70832(5) -0.2500
Ag2A_2 Ag 1.0000 -0.29168(5) -0.2500
Ag2B_2 Ag 1.29168(5) 0.29168(5) -0.2500
S1 S 0.6667 0.3333 0.4922(4)
C1 C 0.6289(2) 0.257371(9) 0.4956(4)
C2 C 0.5760(3) 0.22997(17) 0.4638(9)
C3 C 0.6526(4) 0.22723(17) 0.5249(9)
C4 C 0.5465(4) 0.17214(17) 0.4609(10)
C5 C 0.6226(6) 0.16931(16) 0.5209(10)
C6 C 0.5696(5) 0.141063(9) 0.4892(9)
C7 C 0.5379(7) 0.078516(18) 0.4859(12)
O1 O 0.7013(5) 0.3441(2) 0.4228(7)
O2 O 0.62869(14) 0.35062(17) 0.4913(10)
O3 O 0.7026(5) 0.3485(2) 0.5616(7)
C1A C 0.742629(9) 0.37153(20) 0.4956(4)
C1B C 0.62847(20) 0.3711(2) 0.4956(4)
C2A C 0.77003(17) 0.34603(34) 0.4638(9)
C2B C 0.65397(34) 0.4240(3) 0.4638(9)
C3A C 0.77277(17) 0.42537(43) 0.5249(9)
C3B C 0.57463(43) 0.3474(4) 0.5249(9)
C4A C 0.82786(17) 0.37436(43) 0.4609(10)
C4B C 0.62564(43) 0.4535(4) 0.4609(10)
C5A C 0.83069(16) 0.45329(62) 0.5209(10)
C5B C 0.54671(62) 0.3774(6) 0.5209(10)
C6A C 0.858937(9) 0.42854(50) 0.4892(9)
C6B C 0.57146(50) 0.4304(5) 0.4892(9)
C7B C 0.54062(70) 0.4621(7) 0.4859(12)
C7A C 0.921484(18) 0.45938(70) 0.4859(12)
O1B O 0.6428(5) 0.2987(5) 0.4228(7)
O1A O 0.6559(2) 0.3572(5) 0.4228(7)
O2A O 0.64938(17) 0.27807(22) 0.4913(10)
O2B O 0.72193(22) 0.37131(14) 0.4913(10)
O3A O 0.6515(2) 0.3541(5) 0.5616(7)
O3B O 0.6459(5) 0.2974(5) 0.5616(7)
loop_
_geom_bond_atom_site_label_1
_geom_bond_atom_site_label_2
_geom_bond_site_symmetry_1
_geom_bond_site_symmetry_2
S1 C1 1_555 1_555
C1 C2 1_555 1_555
C2 C4 1_555 1_555
C3 C1 1_555 1_555
C4 C6 1_555 1_555
C5 C3 1_555 1_555
C6 C5 1_555 1_555
C7 C6 1_555 1_555
O1 S1 1_555 1_555
O2 S1 1_555 1_555
O3 S1 1_555 1_555
C8 C9 1_555 1_555
C9 H1 1_555 1_555
C10 C9 1_555 1_555
C11 C12 1_555 1_555
C12 H2 1_555 1_555
C13 C8 1_555 1_555
C14 C13 1_555 1_555
H3 C14 1_555 1_555
C15 C14 1_555 1_555
H4 C15 1_555 1_555
N1 C15 1_555 1_555
C16 N1 1_555 1_555
H5 C16 1_555 1_555
C17 C13 1_555 1_555
H6 C17 1_555 1_555
C18 C10 1_555 1_555
C19 C18 1_555 1_555
H7 C19 1_555 1_555
C20 C19 1_555 1_555
H8 C20 1_555 1_555
N2 C20 1_555 1_555
C21 N2 1_555 1_555
H9 C21 1_555 1_555
C22 C18 1_555 1_555
H10 C22 1_555 1_555
C23 C11 1_555 1_555
C24 C23 1_555 1_555
H11 C24 1_555 1_555
C25 C24 1_555 1_555
H12 C25 1_555 1_555
N3 C25 1_555 1_555
C26 N3 1_555 1_555
H13 C26 1_555 1_555
C27 C23 1_555 1_555
H14 C27 1_555 1_555
O4 C8 1_555 1_555
O5 C10 1_555 1_555
O6 C11 1_555 1_555
Fe1 O4 1_555 1_555
Ag1 N1 1_555 1_555
Ag2 N2 1_555 1_555
C1A S1 1_555 1_555
C1B S1 1_555 1_555
C2A C1A 1_555 1_555
C2B C1B 1_555 1_555
C3A C1A 1_555 1_555
C3B O2 1_555 1_555
C4A C2A 1_555 1_555
C4B C2B 1_555 1_555
C5A C3A 1_555 1_555
C5B C3B 1_555 1_555
C6A C4A 1_555 1_555
C6B C4B 1_555 1_555
C7B C6B 1_555 1_555
C7A C6A 1_555 1_555
O1B S1 1_555 1_555
O1A S1 1_555 1_555
O2A S1 1_555 1_555
O2B S1 1_555 1_555
O3A S1 1_555 1_555
O3B S1 1_555 1_555
C8C C9C 1_555 1_555
C8B C9B 1_555 1_555
C8A C9A 1_555 1_555
C8C_2 C9C_2 1_555 1_555
C8_2 C9_2 1_555 1_555
C9C H1C 1_555 1_555
C9B H1B 1_555 1_555
C9A H1A 1_555 1_555
C9C_2 H1C_2 1_555 1_555
C9_2 H1_2 1_555 1_555
C10C C9C 1_555 1_555
C10B C9B 1_555 1_555
C10A C9A 1_555 1_555
C10C_2 C9C_2 1_555 1_555
C10_2 C9_2 1_555 1_555
C11C C12 1_555 1_555
C11H C12H 1_555 1_555
C11J C12H 1_555 1_555
C11K C12G 1_555 1_555
C11G C12G 1_555 1_555
C12H H2H 1_555 1_555
C12G H2G 1_555 1_555
C13C C8C 1_555 1_555
C13B C8B 1_555 1_555
C13A C8A 1_555 1_555
C13C_2 C8C_2 1_555 1_555
C13_2 C8_2 1_555 1_555
C14C C13C 1_555 1_555
C14B C13B 1_555 1_555
C14A C13A 1_555 1_555
C14C_2 C13C_2 1_555 1_555
C14_2 C13_2 1_555 1_555
H3C C14C 1_555 1_555
H3B C14B 1_555 1_555
H3A C14A 1_555 1_555
H3C_2 C14C_2 1_555 1_555
H3_2 C14_2 1_555 1_555
C15C C14C 1_555 1_555
C15B C14B 1_555 1_555
C15A C14A 1_555 1_555
C15C_2 C14C_2 1_555 1_555
C15_2 C14_2 1_555 1_555
H4C C15C 1_555 1_555
H4B C15B 1_555 1_555
H4A C15A 1_555 1_555
H4C_2 C15C_2 1_555 1_555
H4_2 C15_2 1_555 1_555
N1C C15C 1_555 1_555
N1B Ag1 1_555 1_555
N1A Ag1 1_555 1_555
N1C_2 C15C_2 1_555 1_555
N1_2 C15_2 1_555 1_555
N1B_2 Ag1_2 1_555 1_555
N1A_2 Ag1_2 1_555 1_555
C16C N1C 1_555 1_555
C16B N1B 1_555 1_555
C16A N1A 1_555 1_555
C16C_2 N1C_2 1_555 1_555
C16_2 N1_2 1_555 1_555
H5C C16C 1_555 1_555
H5B C16B 1_555 1_555
H5A C16A 1_555 1_555
H5C_2 C16C_2 1_555 1_555
H5_2 C16_2 1_555 1_555
C17C C13C 1_555 1_555
C17B C13B 1_555 1_555
C17A C13A 1_555 1_555
C17C_2 C13C_2 1_555 1_555
C17_2 C13_2 1_555 1_555
H6C C17C 1_555 1_555
H6B C17B 1_555 1_555
H6A C17A 1_555 1_555
H6C_2 C17C_2 1_555 1_555
H6_2 C17_2 1_555 1_555
C18C C10C 1_555 1_555
C18B C10B 1_555 1_555
C18A C10A 1_555 1_555
C18C_2 C10C_2 1_555 1_555
C18_2 C10_2 1_555 1_555
C19C C18C 1_555 1_555
C19B C18B 1_555 1_555
C19A C18A 1_555 1_555
C19C_2 C18C_2 1_555 1_555
C19_2 C18_2 1_555 1_555
H7C C19C 1_555 1_555
H7B C19B 1_555 1_555
H7A C19A 1_555 1_555
H7C_2 C19C_2 1_555 1_555
H7_2 C19_2 1_555 1_555
C20C C19C 1_555 1_555
C20B C19B 1_555 1_555
C20A C19A 1_555 1_555
C20C_2 C19C_2 1_555 1_555
C20_2 C19_2 1_555 1_555
H8C C20C 1_555 1_555
H8B C20B 1_555 1_555
H8A C20A 1_555 1_555
H8C_2 C20C_2 1_555 1_555
H8_2 C20_2 1_555 1_555
N2C C20C 1_555 1_555
N2B C20B 1_555 1_555
N2A C20A 1_555 1_555
N2C_2 Ag2 1_555 1_555
N2_2 C20_2 1_555 1_555
N2G Ag2G 1_555 1_555
N2K Ag2G 1_555 1_555
C21C N2C 1_555 1_555
C21B N2B 1_555 1_555
C21A N2A 1_555 1_555
C21C_2 N2C_2 1_555 1_555
C21_2 N2_2 1_555 1_555
H9C C21C 1_555 1_555
H9B C21B 1_555 1_555
H9A C21A 1_555 1_555
H9C_2 C21C_2 1_555 1_555
H9_2 C21_2 1_555 1_555
C22C C18C 1_555 1_555
C22B C18B 1_555 1_555
C22A C18A 1_555 1_555
C22C_2 C18C_2 1_555 1_555
C22_2 C18_2 1_555 1_555
H10C C22C 1_555 1_555
H10B C22B 1_555 1_555
H10A C22A 1_555 1_555
H10C_2 C22C_2 1_555 1_555
H10_2 C22_2 1_555 1_555
C23C C11C 1_555 1_555
C23H C11H 1_555 1_555
C23J C11J 1_555 1_555
C23K C11K 1_555 1_555
C23G C11G 1_555 1_555
C24C C23C 1_555 1_555
C24H C23H 1_555 1_555
C24J C23J 1_555 1_555
C24K C23K 1_555 1_555
C24G C23G 1_555 1_555
H11C C24C 1_555 1_555
H11H C24H 1_555 1_555
H11J C24J 1_555 1_555
H11K C24K 1_555 1_555
H11G C24G 1_555 1_555
C25C C24C 1_555 1_555
C25H C24H 1_555 1_555
C25J C24J 1_555 1_555
C25K C24K 1_555 1_555
C25G C24G 1_555 1_555
H12C C25C 1_555 1_555
H12H C25H 1_555 1_555
H12J C25J 1_555 1_555
H12K C25K 1_555 1_555
H12G C25G 1_555 1_555
N3C C25C 1_555 1_555
N3H Ag2 1_555 1_555
N3J C25J 1_555 1_555
N3K Ag2 1_555 1_555
N3G C25G 1_555 1_555
N3K_2 Ag2_2 1_555 1_555
N3H_2 Ag2_2 1_555 1_555
N3D Ag2G 1_555 1_555
C26C N3C 1_555 1_555
C26H N3H 1_555 1_555
C26J N3J 1_555 1_555
C26K N3K 1_555 1_555
C26G N3G 1_555 1_555
H13C C26C 1_555 1_555
H13H C26H 1_555 1_555
H13J C26J 1_555 1_555
H13K C26K 1_555 1_555
H13G C26G 1_555 1_555
C27C C23C 1_555 1_555
C27H C23H 1_555 1_555
C27J C23J 1_555 1_555
C27K C23K 1_555 1_555
C27G C23G 1_555 1_555
H14C C27C 1_555 1_555
H14H C27H 1_555 1_555
H14J C27J 1_555 1_555
H14K C27K 1_555 1_555
H14G C27G 1_555 1_555
O4C Fe1 1_555 1_555
O4B C8B 1_555 1_555
O4A C8A 1_555 1_555
O4C_2 C8C_2 1_555 1_555
O4_2 C8_2 1_555 1_555
O4D Fe1B 1_555 1_555
O4E Fe1A 1_555 1_555
O5C Fe1 1_555 1_555
O5B C10B 1_555 1_555
O5A C10A 1_555 1_555
O5C_2 C10C_2 1_555 1_555
O5_2 C10_2 1_555 1_555
O5D Fe1B 1_555 1_555
O5E Fe1A 1_555 1_555
O6C Fe1 1_555 1_555
O6H C11H 1_555 1_555
O6J C11J 1_555 1_555
O6K C11K 1_555 1_555
O6G C11G 1_555 1_555
O6B Fe1B 1_555 1_555
O6D Fe1B 1_555 1_555
O6A Fe1A 1_555 1_555
O6E Fe1A 1_555 1_555
Fe1B O4B 1_555 1_555
Fe1A O4A 1_555 1_555
Fe1H O6H 1_555 1_555
Fe1_2 O4C_2 1_555 1_555
Fe1G O6K 1_555 1_555
Fe1_3 O4_2 1_555 1_555
Ag1C N1C 1_555 1_555
Ag1C_2 N1C_2 1_555 1_555
Ag1_2 N1_2 1_555 1_555
Ag2_2 N2C 1_555 1_555
Ag2G N3 1_555 1_555
Ag2H N3C 1_555 1_555
Ag2B N2B 1_555 1_555
Ag2A N2A 1_555 1_555
Ag2A_2 N3J 1_555 1_555
Ag2B_2 N3G 1_555 1_555
C1 O1B 1_555 1_555
C1 O2A 1_555 1_555
C1 O3B 1_555 1_555
C3 O2A 1_555 1_555
O1 C1A 1_555 1_555
O1 O1B 1_555 1_555
O1 O1A 1_555 1_555
O1 O2B 1_555 1_555
O2 C1B 1_555 1_555
O2 O1A 1_555 1_555
O2 O3A 1_555 1_555
O3 C1A 1_555 1_555
O3 O2B 1_555 1_555
O3 O3A 1_555 1_555
O3 O3B 1_555 1_555
C16 C17 1_555 1_555
C21 C22 1_555 1_555
C26 C27 1_555 1_555
O5 Fe1 1_555 1_555
O6 Fe1 1_555 1_555
C1A O2B 1_555 1_555
C1B C3B 1_555 1_555
C1B O1A 1_555 1_555
C1B O3A 1_555 1_555
C3A O2B 1_555 1_555
C5A C6A 1_555 1_555
C5B C6B 1_555 1_555
O1B O1A 1_555 1_555
O1B O2A 1_555 1_555
O2A O3B 1_555 1_555
O3A O3B 1_555 1_555
C8C O4C 1_555 1_555
C10C O5C 1_555 1_555
C11C O6C 1_555 1_555
C15B N1B 1_555 1_555
C15A N1A 1_555 1_555
C16C C17C 1_555 1_555
C16B C17B 1_555 1_555
C16A C17A 1_555 1_555
C16C_2 C17C_2 1_555 1_555
C16_2 C17_2 1_555 1_555
C20C_2 N2C_2 1_555 1_555
N2_2 Ag2_2 1_555 1_555
C21C C22C 1_555 1_555
C21B C22B 1_555 1_555
C21A C22A 1_555 1_555
C21C_2 C22C_2 1_555 1_555
C21_2 C22_2 1_555 1_555
C25H N3H 1_555 1_555
C25K N3K 1_555 1_555
C26C C27C 1_555 1_555
C26H C27H 1_555 1_555
C26J C27J 1_555 1_555
C26K C27K 1_555 1_555
C26G C27G 1_555 1_555
O5B Fe1B 1_555 1_555
O5A Fe1A 1_555 1_555
O5C_2 Fe1_2 1_555 1_555
O5_2 Fe1_3 1_555 1_555
O6J Fe1H 1_555 1_555
O6G Fe1G 1_555 1_555

#END
