
#######################################################################
#
#                 Cambridge Crystallographic Data Centre
#                                CCDC 
#
#######################################################################
#
# If this CIF has been generated from an entry in the Cambridge 
# Structural Database, then it will include bibliographic, chemical, 
# crystal, experimental, refinement or atomic coordinate data resulting 
# from the CCDC's data processing and validation procedures.
#
#######################################################################

data_EBIFOM
_symmetry_cell_setting           triclinic
_symmetry_space_group_name_H-M   'P -1'
_symmetry_Int_Tables_number      2
_space_group_name_Hall           '-P 1'
loop_
_symmetry_equiv_pos_site_id
_symmetry_equiv_pos_as_xyz
1 x,y,z
2 -x,-y,-z
_cell_length_a                   6.9683(12)
_cell_length_b                   7.5316(12)
_cell_length_c                   30.887(5)
_cell_angle_alpha                85.113(3)
_cell_angle_beta                 84.509(3)
_cell_angle_gamma                63.010(2)
_cell_volume                     1436.25
loop_
_atom_site_label
_atom_site_type_symbol
_atom_site_fract_x
_atom_site_fract_y
_atom_site_fract_z
C1 C 1.307(2) 0.3814(19) 0.2883(5)
C2 C 1.527(2) 0.3308(19) 0.2805(5)
C3 C 1.641(2) 0.330(2) 0.2377(4)
C4 C 1.652(2) 0.2800(19) 0.3179(5)
H1 H 1.7963 0.2542 0.3142
C5 C 1.563(2) 0.269(2) 0.3586(5)
H2 H 1.6475 0.2365 0.3824
C6 C 1.351(2) 0.304(2) 0.3653(5)
C7 C 1.261(3) 0.281(2) 0.4088(6)
C8 C 1.221(2) 0.365(2) 0.3293(4)
H3 H 1.0757 0.3932 0.3335
C9 C 1.237(3) 0.898(2) 0.2991(6)
H4 H 1.1405 0.9435 0.2772
C10 C 1.161(2) 0.877(2) 0.3426(6)
H5 H 1.0175 0.9045 0.3491
C11 C 1.305(2) 0.815(2) 0.3757(5)
C12 C 1.514(3) 0.774(3) 0.3636(5)
H6 H 1.6165 0.7284 0.3844
C13 C 1.571(3) 0.799(3) 0.3210(5)
H7 H 1.7136 0.7746 0.3140
C14 C 1.228(3) 0.790(2) 0.4228(5)
C15 C 1.041(3) 0.772(3) 0.4330(6)
H8 H 0.9567 0.7783 0.4108
C16 C 0.979(3) 0.745(3) 0.4750(7)
H9 H 0.8499 0.7369 0.4807
C17 C 1.276(3) 0.746(3) 0.4986(6)
H10 H 1.3592 0.7378 0.5211
C18 C 1.347(3) 0.774(3) 0.4573(6)
H11 H 1.4771 0.7816 0.4523
C19 C 0.821(2) 0.6558(18) 0.1048(5)
C20 C 0.779(2) 0.783(2) 0.0642(5)
C21 C 0.7129(19) 0.9927(17) 0.0643(4)
C22 C 0.697(2) 1.1060(18) 0.0261(4)
H12 H 0.6573 1.2414 0.0269
C23 C 0.741(2) 1.0190(19) -0.0132(5)
C24 C 0.725(2) 1.140(2) -0.0543(5)
C25 C 0.796(2) 0.813(2) -0.0145(5)
H13 H 0.8235 0.7529 -0.0410
C26 C 0.810(2) 0.7045(19) 0.0238(5)
H14 H 0.8408 0.5711 0.0227
N1 N 1.440(2) 0.8559(18) 0.2889(4)
N2 N 1.096(2) 0.729(2) 0.5090(5)
O1 O 0.9325(17) 0.4509(17) 0.2657(4)
O2 O 1.0974(19) 0.6427(17) 0.2278(5)
O3 O 1.2378(18) 0.3020(19) 0.2131(4)
O4 O 1.5814(16) 0.4896(14) 0.2131(3)
O5 O 1.7930(17) 0.1641(14) 0.2264(3)
O6 O 1.3659(19) 0.225(2) 0.4420(4)
O7 O 1.0525(18) 0.3211(18) 0.4119(4)
H15 H 1.0153 0.3054 0.4374
O8 O 0.6577(15) 0.6749(13) 0.1317(3)
O9 O 1.0061(15) 0.5300(14) 0.1103(4)
O10 O 0.8337(16) 0.9656(14) 0.1428(3)
O11 O 0.4545(18) 1.1309(17) 0.1323(4)
O12 O 0.6796(16) 1.2889(13) 0.1067(3)
O13 O 0.6470(19) 1.3256(15) -0.0536(4)
O14 O 0.7880(16) 1.0541(14) -0.0905(3)
O15 O 1.2681(14) -0.1156(12) 0.1881(3)
H16 H 1.1935 -0.1440 0.2143
Pb1 Pb 1.02976(8) 0.19398(7) 0.159410(19)
Pb2 Pb 1.60542(8) 0.80943(8) 0.206330(19)
Pb3 Pb 0.32802(8) 0.61507(8) 0.131957(18)
S1 S 1.1298(6) 0.4495(6) 0.24549(12)
S2 S 0.6647(5) 1.1033(5) 0.11506(11)
O5_2 O 0.7930(17) 0.1641(14) 0.2264(3)
O8_2 O 1.6577(15) 0.6749(13) 0.1317(3)
O9_2 O 0.0061(15) 0.5300(14) 0.1103(4)
O10_2 O 0.8337(16) -0.0344(14) 0.1428(3)
O12_2 O 0.6796(16) 0.2889(13) 0.1067(3)
O13A O 0.3530(19) 0.6744(15) 0.0536(4)
O14A O 1.2120(16) -0.0541(14) 0.0905(3)
O14A_2 O 0.2120(16) 0.9459(14) 0.0905(3)
O15_2 O 1.2681(14) 0.8844(12) 0.1881(3)
O15_3 O 0.2681(14) 0.8844(12) 0.1881(3)
H16_2 H 1.1935 0.8560 0.2143
H16_3 H 0.1935 0.8560 0.2143
Pb1_2 Pb 2.02976(8) 0.19398(7) 0.159410(19)
Pb1_3 Pb 1.02976(8) 1.19398(7) 0.159410(19)
Pb1A Pb 0.97024(8) 0.80602(7) -0.159410(19)
Pb2_2 Pb 0.60542(8) 0.80943(8) 0.206330(19)
Pb2_3 Pb 1.60542(8) -0.19057(8) 0.206330(19)
Pb3_2 Pb 1.32802(8) 0.61507(8) 0.131957(18)
Pb3_3 Pb 0.32802(8) 1.61507(8) 0.131957(18)
Pb3A Pb 0.67198(8) 1.38493(8) -0.131957(18)
Pb3_4 Pb 1.32802(8) -0.38493(8) 0.131957(18)
loop_
_geom_bond_atom_site_label_1
_geom_bond_atom_site_label_2
_geom_bond_site_symmetry_1
_geom_bond_site_symmetry_2
C1 C2 1_555 1_555
C2 C3 1_555 1_555
C3 O4 1_555 1_555
C4 C2 1_555 1_555
H1 C4 1_555 1_555
C5 C4 1_555 1_555
H2 C5 1_555 1_555
C6 C5 1_555 1_555
C7 C6 1_555 1_555
C8 C1 1_555 1_555
H3 C8 1_555 1_555
C9 H4 1_555 1_555
C10 C9 1_555 1_555
H5 C10 1_555 1_555
C11 C10 1_555 1_555
C12 C11 1_555 1_555
H6 C12 1_555 1_555
C13 C12 1_555 1_555
H7 C13 1_555 1_555
C14 C11 1_555 1_555
C15 C14 1_555 1_555
H8 C15 1_555 1_555
C16 C15 1_555 1_555
H9 C16 1_555 1_555
C17 H10 1_555 1_555
C18 C14 1_555 1_555
H11 C18 1_555 1_555
C19 C20 1_555 1_555
C20 C21 1_555 1_555
C21 C22 1_555 1_555
C22 H12 1_555 1_555
C23 C22 1_555 1_555
C24 C23 1_555 1_555
C25 C23 1_555 1_555
H13 C25 1_555 1_555
C26 C20 1_555 1_555
H14 C26 1_555 1_555
N1 C9 1_555 1_555
N2 C16 1_555 1_555
O1 S1 1_555 1_555
O2 S1 1_555 1_555
O3 Pb1 1_555 1_555
O4 Pb2 1_555 1_555
O5 C3 1_555 1_555
O6 C7 1_555 1_555
O7 C7 1_555 1_555
H15 O7 1_555 1_555
O8 C19 1_555 1_555
O9 C19 1_555 1_555
O10 S2 1_555 1_555
O11 S2 1_555 1_555
O12 S2 1_555 1_555
O13 C24 1_555 1_555
O14 C24 1_555 1_555
O15 H16 1_555 1_555
Pb1 O9 1_555 1_555
Pb2 N1 1_555 1_555
Pb3 O8 1_555 1_555
S1 C1 1_555 1_555
S2 C21 1_555 1_555
O5_2 Pb1 1_555 1_555
O8_2 Pb2 1_555 1_555
O9_2 Pb3 1_555 1_555
O10_2 Pb1 1_555 1_555
O12_2 Pb3 1_555 1_555
O13A Pb3 1_555 1_555
O14A Pb1 1_555 1_555
O14A_2 Pb3 1_555 1_555
O15_2 Pb2 1_555 1_555
O15_3 Pb3 1_555 1_555
H16_2 O15_2 1_555 1_555
H16_3 O15_3 1_555 1_555
Pb1_2 O5 1_555 1_555
Pb1_3 O10 1_555 1_555
Pb1A O14 1_555 1_555
Pb2_2 O8 1_555 1_555
Pb2_3 O15 1_555 1_555
Pb3_2 O9 1_555 1_555
Pb3_3 O12 1_555 1_555
Pb3A O13 1_555 1_555
Pb3_4 O15 1_555 1_555
C6 C8 1_555 1_555
C13 N1 1_555 1_555
C17 C18 1_555 1_555
C17 N2 1_555 1_555
C25 C26 1_555 1_555
O3 S1 1_555 1_555
O14 Pb3A 1_555 1_555
O15 Pb1 1_555 1_555
O8_2 Pb3_2 1_555 1_555
O14A Pb3_4 1_555 1_555
O15_2 Pb1_3 1_555 1_555
O15_2 Pb3_2 1_555 1_555
O15_3 Pb2_2 1_555 1_555

#END
