
#######################################################################
#
#                 Cambridge Crystallographic Data Centre
#                                CCDC 
#
#######################################################################
#
# If this CIF has been generated from an entry in the Cambridge 
# Structural Database, then it will include bibliographic, chemical, 
# crystal, experimental, refinement or atomic coordinate data resulting 
# from the CCDC's data processing and validation procedures.
#
#######################################################################

data_EBIFUS
_symmetry_cell_setting           monoclinic
_symmetry_space_group_name_H-M   'P 21/c'
_symmetry_Int_Tables_number      14
_space_group_name_Hall           '-P 2ybc'
loop_
_symmetry_equiv_pos_site_id
_symmetry_equiv_pos_as_xyz
1 x,y,z
2 -x,1/2+y,1/2-z
3 -x,-y,-z
4 x,1/2-y,1/2+z
_cell_length_a                   7.3119(8)
_cell_length_b                   22.365(3)
_cell_length_c                   7.5899(8)
_cell_angle_alpha                90
_cell_angle_beta                 111.923(2)
_cell_angle_gamma                90
_cell_volume                     1151.43
loop_
_atom_site_label
_atom_site_type_symbol
_atom_site_fract_x
_atom_site_fract_y
_atom_site_fract_z
C1 C -0.203(2) 0.6754(5) 0.120(2)
C2 C -0.270(2) 0.7394(5) 0.0628(17)
C3 C -0.1370(19) 0.7850(5) 0.1505(16)
H1 H -0.0139 0.7762 0.2420
C4 C -0.1910(19) 0.8430(5) 0.0995(16)
C5 C -0.3749(17) 0.8576(4) -0.0411(16)
C6 C -0.4384(18) 0.9195(4) -0.1156(16)
C7 C -0.508(2) 0.8117(5) -0.1210(19)
H2 H -0.6341 0.8208 -0.2065
C8 C -0.457(2) 0.7523(5) -0.0753(17)
H3 H -0.5437 0.7216 -0.1350
O1 O -0.0394(16) 0.6687(4) 0.2490(14)
O2 O -0.3084(15) 0.6327(3) 0.0379(12)
O3 O 0.1236(17) 0.8705(4) 0.3922(14)
O4 O 0.0681(13) 0.9255(4) 0.1049(13)
O5 O -0.1356(16) 0.9444(4) 0.2834(15)
O6 O -0.3179(14) 0.9519(3) -0.1572(12)
O7 O -0.6049(14) 0.9374(4) -0.1311(14)
O8 O 0.3078(12) 0.9903(3) 0.4767(12)
H4 H 0.2521 0.9585 0.5303
Pb1 Pb 0.47230(7) 0.95074(2) 0.28677(7)
Pb2 Pb -0.03733(7) 0.560560(19) 0.23867(7)
S1 S -0.0220(5) 0.89910(12) 0.2303(5)
O2C O 0.6916(15) 0.8673(3) 0.5379(12)
O4C O 0.0681(13) 0.5745(4) 0.6049(13)
O6B O 0.3179(14) 1.0481(3) 0.1572(12)
O6C O -0.3179(14) 0.5481(3) 0.3428(12)
O8B O 0.6922(12) 1.0097(3) 0.5233(12)
O8A O -0.3078(12) 0.4903(3) 0.0233(12)
H4B H 0.7479 1.0415 0.4697
H4A H -0.2521 0.4585 -0.0303
Pb1C Pb -0.52770(7) 0.54926(2) -0.21323(7)
Pb1B Pb -0.47230(7) 1.04926(2) -0.28677(7)
Pb1B_2 Pb 0.52770(7) 1.04926(2) 0.71323(7)
Pb2C Pb -0.03733(7) 0.939440(19) -0.26133(7)
Pb2A Pb 0.03733(7) 1.060560(19) 0.26133(7)
loop_
_geom_bond_atom_site_label_1
_geom_bond_atom_site_label_2
_geom_bond_site_symmetry_1
_geom_bond_site_symmetry_2
C1 C2 1_555 1_555
C2 C3 1_555 1_555
C3 H1 1_555 1_555
C4 C3 1_555 1_555
C5 C4 1_555 1_555
C6 C5 1_555 1_555
C7 C5 1_555 1_555
H2 C7 1_555 1_555
C8 C2 1_555 1_555
H3 C8 1_555 1_555
O1 C1 1_555 1_555
O2 C1 1_555 1_555
O3 S1 1_555 1_555
O4 Pb1 1_555 1_555
O5 S1 1_555 1_555
O6 C6 1_555 1_555
O7 C6 1_555 1_555
O8 H4 1_555 1_555
Pb1 O8 1_555 1_555
Pb2 O1 1_555 1_555
S1 C4 1_555 1_555
O2C Pb1 1_555 1_555
O4C Pb2 1_555 1_555
O6B Pb1 1_555 1_555
O6C Pb2 1_555 1_555
O8B Pb1 1_555 1_555
O8A Pb2 1_555 1_555
H4B O8B 1_555 1_555
H4A O8A 1_555 1_555
Pb1C O2 1_555 1_555
Pb1B O6 1_555 1_555
Pb1B_2 O8 1_555 1_555
Pb2C O4 1_555 1_555
Pb2A O8 1_555 1_555
C7 C8 1_555 1_555
O2 Pb2 1_555 1_555
O4 S1 1_555 1_555
O6 Pb2C 1_555 1_555
O6B Pb2A 1_555 1_555
O8B Pb1B_2 1_555 1_555
O8A Pb1C 1_555 1_555

#END
