
#######################################################################
#
#                 Cambridge Crystallographic Data Centre
#                                CCDC 
#
#######################################################################
#
# If this CIF has been generated from an entry in the Cambridge 
# Structural Database, then it will include bibliographic, chemical, 
# crystal, experimental, refinement or atomic coordinate data resulting 
# from the CCDC's data processing and validation procedures.
#
#######################################################################

data_EBILIM
_symmetry_cell_setting           monoclinic
_symmetry_space_group_name_H-M   'P 21/c'
_symmetry_Int_Tables_number      14
_space_group_name_Hall           '-P 2ybc'
loop_
_symmetry_equiv_pos_site_id
_symmetry_equiv_pos_as_xyz
1 x,y,z
2 -x,1/2+y,1/2-z
3 -x,-y,-z
4 x,1/2-y,1/2+z
_cell_length_a                   12.4905(17)
_cell_length_b                   11.1849(15)
_cell_length_c                   11.9231(16)
_cell_angle_alpha                90
_cell_angle_beta                 117.768(2)
_cell_angle_gamma                90
_cell_volume                     1473.89
loop_
_atom_site_label
_atom_site_type_symbol
_atom_site_fract_x
_atom_site_fract_y
_atom_site_fract_z
C1 C 0.0454(5) 0.2587(5) 0.9463(5)
H1 H 0.1024 0.1991 0.9873
C2 C -0.0960(5) 0.3851(5) 0.9400(5)
C3 C -0.1111(5) 0.4338(4) 0.8282(5)
C4 C -0.0481(5) 0.3848(5) 0.7685(5)
C5 C -0.2384(5) 0.5235(5) 0.8748(5)
C6 C -0.2175(5) 0.3835(5) 1.0579(5)
H2 H -0.2316 0.4451 1.1068
H3 H -0.1546 0.3310 1.1167
C7 C -0.3323(6) 0.3126(5) 0.9849(6)
H4 H -0.3222 0.2596 0.9262
H5 H -0.3982 0.3670 0.9359
C8 C -0.3648(6) 0.2387(6) 1.0729(6)
H6 H -0.4378 0.1946 1.0232
H7 H -0.3769 0.2910 1.1298
H8 H -0.3002 0.1840 1.1207
C9 C -0.4055(6) 0.6497(6) 0.7445(5)
H9 H -0.3655 0.7187 0.7337
H10 H -0.4805 0.6735 0.7418
H11 H -0.4213 0.5935 0.6777
C10 C -0.3444(6) 0.6320(5) 0.9751(6)
H12 H -0.4089 0.5869 0.9771
H13 H -0.3644 0.7155 0.9665
H14 H -0.2711 0.6191 1.0524
N1 N 0.0336(5) 0.2955(4) 0.8330(5)
N2 N -0.0153(5) 0.2980(4) 1.0059(5)
N3 N -0.0644(5) 0.4190(5) 0.6545(5)
H15 H -0.0239 0.3854 0.6214
H16 H -0.1154 0.4747 0.6142
N4 N -0.1968(5) 0.5240(4) 0.7888(5)
N5 N -0.3273(5) 0.5933(5) 0.8681(5)
N6 N -0.1760(4) 0.4404(4) 0.9717(4)
O1 O -0.2124(5) 1.0941(4) 0.8556(5)
O2 O -0.3905(5) 0.9861(5) 0.7320(5)
O3 O -0.2711(4) 0.9397(4) 0.9492(4)
O4 O -0.2018(4) 0.8943(4) 0.8017(4)
Cl1 Cl -0.26998(13) 0.97913(12) 0.83383(12)
Ag1 Ag -0.12709(4) 0.68661(4) 0.74637(4)
N1A N -0.0336(5) 0.7955(4) 0.6670(5)
N2B N 0.0153(5) 0.7020(4) 0.9941(5)
Ag1A Ag 0.12709(4) 0.18661(4) 0.75363(4)
Ag1B Ag 0.12709(4) 0.31339(4) 1.25363(4)
loop_
_geom_bond_atom_site_label_1
_geom_bond_atom_site_label_2
_geom_bond_site_symmetry_1
_geom_bond_site_symmetry_2
C1 H1 1_555 1_555
C2 C3 1_555 1_555
C3 C4 1_555 1_555
C4 N1 1_555 1_555
C5 N4 1_555 1_555
C6 H2 1_555 1_555
H3 C6 1_555 1_555
C7 C6 1_555 1_555
H4 C7 1_555 1_555
H5 C7 1_555 1_555
C8 C7 1_555 1_555
H6 C8 1_555 1_555
H7 C8 1_555 1_555
H8 C8 1_555 1_555
C9 H9 1_555 1_555
H10 C9 1_555 1_555
H11 C9 1_555 1_555
C10 H12 1_555 1_555
H13 C10 1_555 1_555
H14 C10 1_555 1_555
N1 C1 1_555 1_555
N2 C1 1_555 1_555
N3 C4 1_555 1_555
H15 N3 1_555 1_555
H16 N3 1_555 1_555
N4 C3 1_555 1_555
N5 C5 1_555 1_555
N6 C2 1_555 1_555
O1 Cl1 1_555 1_555
O2 Cl1 1_555 1_555
O3 Cl1 1_555 1_555
O4 Cl1 1_555 1_555
Ag1 N4 1_555 1_555
N1A Ag1 1_555 1_555
N2B Ag1 1_555 1_555
Ag1A N1 1_555 1_555
Ag1B N2 1_555 1_555
C2 N2 1_555 1_555
C5 N6 1_555 1_555
C6 N6 1_555 1_555
C9 N5 1_555 1_555
C10 N5 1_555 1_555
O4 Ag1 1_555 1_555

#END
