
#######################################################################
#
#                 Cambridge Crystallographic Data Centre
#                                CCDC 
#
#######################################################################
#
# If this CIF has been generated from an entry in the Cambridge 
# Structural Database, then it will include bibliographic, chemical, 
# crystal, experimental, refinement or atomic coordinate data resulting 
# from the CCDC's data processing and validation procedures.
#
#######################################################################

data_EBINEK
_symmetry_cell_setting           monoclinic
_symmetry_space_group_name_H-M   'C 2/c'
_symmetry_Int_Tables_number      15
_space_group_name_Hall           '-C 2yn'
loop_
_symmetry_equiv_pos_site_id
_symmetry_equiv_pos_as_xyz
1 x,y,z
2 -x,y,1/2-z
3 1/2+x,1/2+y,z
4 1/2-x,1/2+y,1/2-z
5 -x,-y,-z
6 x,-y,1/2+z
7 1/2-x,1/2-y,-z
8 1/2+x,1/2-y,1/2+z
_cell_length_a                   21.091(6)
_cell_length_b                   8.2252(18)
_cell_length_c                   10.579(3)
_cell_angle_alpha                90
_cell_angle_beta                 120.686(5)
_cell_angle_gamma                90
_cell_volume                     1578.25
loop_
_atom_site_label
_atom_site_type_symbol
_atom_site_fract_x
_atom_site_fract_y
_atom_site_fract_z
Cu1 Cu 0.5000 0.29578(5) 0.7500
O1 O 0.5000 0.5817(4) 0.7500
O2 O 0.5000 0.0111(4) 0.7500
O3 O 0.55746(10) 0.3067(2) 0.97161(19)
O4 O 0.58218(12) 0.2029(3) 1.1853(2)
N1 N 0.32955(11) 0.3358(3) 0.8293(2)
N2 N 0.28990(12) 0.2715(4) 0.6928(3)
N3 N 0.40798(10) 0.2985(2) 0.7580(2)
C1 C 0.26860(14) 0.2270(3) 0.9572(3)
H1 H 0.3103 0.1566 1.0168
H2 H 0.2341 0.1676 0.8694
C2 C 0.29478(15) 0.3769(3) 0.9143(3)
H3 H 0.2531 0.4482 0.8565
H4 H 0.3298 0.4351 1.0024
C3 C 0.33945(14) 0.2511(4) 0.6552(3)
H5 H 0.3284 0.2076 0.5651
C4 C 0.39870(13) 0.3520(3) 0.8657(3)
H6 H 0.4358 0.3947 0.9542
C5 C 0.57363(17) 0.1954(3) 1.0613(3)
H7 H 0.5802 0.0934 1.0316
H8 H 0.5286(17) 0.638(4) 0.733(4)
H9 H 0.5292(19) -0.039(5) 0.740(4)
Cu1F Cu 0.0000 0.20422(5) 1.2500
O3A O 0.44254(10) 0.3067(2) 0.52839(19)
O4A O 0.41782(12) 0.2029(3) 0.3147(2)
N1F N 0.17045(11) 0.1642(3) 1.1707(2)
N2F N 0.21010(12) 0.2285(4) 1.3072(3)
N3F N 0.09202(10) 0.2015(2) 1.2420(2)
N3A N 0.59202(10) 0.2985(2) 0.7420(2)
C1F C 0.23140(14) 0.2730(3) 1.0428(3)
H1F H 0.1897 0.3434 0.9832
H2F H 0.2659 0.3324 1.1306
C2F C 0.20522(15) 0.1231(3) 1.0857(3)
H3F H 0.2469 0.0518 1.1435
H4F H 0.1702 0.0649 0.9976
C3F C 0.16055(14) 0.2489(4) 1.3448(3)
H5F H 0.1716 0.2924 1.4349
C4F C 0.10130(13) 0.1480(3) 1.1343(3)
H6F H 0.0642 0.1053 1.0458
C5A C 0.42637(17) 0.1954(3) 0.4387(3)
H7A H 0.4198 0.0934 0.4684
H8A H 0.4714(17) 0.638(4) 0.767(4)
H9A H 0.4708(19) -0.039(5) 0.760(4)
loop_
_geom_bond_atom_site_label_1
_geom_bond_atom_site_label_2
_geom_bond_site_symmetry_1
_geom_bond_site_symmetry_2
Cu1 O1 1_555 1_555
O1 H8 1_555 1_555
O2 Cu1 1_555 1_555
O3 Cu1 1_555 1_555
O4 C5 1_555 1_555
N1 N2 1_555 1_555
N2 C3 1_555 1_555
N3 Cu1 1_555 1_555
C1 H1 1_555 1_555
H2 C1 1_555 1_555
C2 N1 1_555 1_555
H3 C2 1_555 1_555
H4 C2 1_555 1_555
C3 N3 1_555 1_555
H5 C3 1_555 1_555
C4 N1 1_555 1_555
H6 C4 1_555 1_555
C5 O3 1_555 1_555
H7 C5 1_555 1_555
H9 O2 1_555 1_555
Cu1F N3F 1_555 1_555
O3A Cu1 1_555 1_555
O4A C5A 1_555 1_555
N1F N2F 1_555 1_555
N2F C3F 1_555 1_555
N3F C3F 1_555 1_555
N3A Cu1 1_555 1_555
C1F C1 1_555 1_555
H1F C1F 1_555 1_555
H2F C1F 1_555 1_555
C2F N1F 1_555 1_555
H3F C2F 1_555 1_555
H4F C2F 1_555 1_555
C3F H5F 1_555 1_555
C4F N1F 1_555 1_555
H6F C4F 1_555 1_555
C5A O3A 1_555 1_555
H7A C5A 1_555 1_555
H8A O1 1_555 1_555
H9A O2 1_555 1_555
N3 C4 1_555 1_555
C1 C2 1_555 1_555
N3F C4F 1_555 1_555
C1F C2F 1_555 1_555

#END
