
#######################################################################
#
#                 Cambridge Crystallographic Data Centre
#                                CCDC 
#
#######################################################################
#
# If this CIF has been generated from an entry in the Cambridge 
# Structural Database, then it will include bibliographic, chemical, 
# crystal, experimental, refinement or atomic coordinate data resulting 
# from the CCDC's data processing and validation procedures.
#
#######################################################################

data_EBIPEM
_symmetry_cell_setting           monoclinic
_symmetry_space_group_name_H-M   'C 2/c'
_symmetry_Int_Tables_number      15
_space_group_name_Hall           '-C 2yn'
loop_
_symmetry_equiv_pos_site_id
_symmetry_equiv_pos_as_xyz
1 x,y,z
2 -x,y,1/2-z
3 1/2+x,1/2+y,z
4 1/2-x,1/2+y,1/2-z
5 -x,-y,-z
6 x,-y,1/2+z
7 1/2-x,1/2-y,-z
8 1/2+x,1/2-y,1/2+z
_cell_length_a                   16.103(4)
_cell_length_b                   8.6062(19)
_cell_length_c                   13.525(3)
_cell_angle_alpha                90
_cell_angle_beta                 112.305(5)
_cell_angle_gamma                90
_cell_volume                     1734.12
loop_
_atom_site_label
_atom_site_type_symbol
_atom_site_fract_x
_atom_site_fract_y
_atom_site_fract_z
Cu1 Cu 0.5000 0.0000 0.0000
O1 O 0.47416(11) 0.2065(2) -0.06744(12)
O2 O 0.56303(13) 0.1013(2) -0.13901(13)
N1 N 0.71450(14) 0.1353(3) 0.26800(16)
N2 N 0.73211(19) 0.2317(3) 0.1993(2)
N3 N 0.61320(13) 0.0805(2) 0.11254(15)
C1 C 0.72307(19) 0.2450(4) 0.4402(2)
H1 H 0.6630 0.2049 0.4280
H2 H 0.7161 0.3496 0.4094
C2 C 0.76663(18) 0.1420(3) 0.38381(19)
H3 H 0.8270 0.1812 0.3966
H4 H 0.7727 0.0369 0.4136
C3 C 0.6697(2) 0.1935(4) 0.1072(2)
H5 H 0.6646 0.2409 0.0425
C4 C 0.64461(16) 0.0466(3) 0.21592(19)
H6 H 0.6207 -0.0294 0.2475
C5 C 0.50399(15) 0.3549(3) -0.19663(18)
C6 C 0.50705(19) 0.4968(3) -0.1454(2)
H7 H 0.5117 0.4975 -0.0740
C7 C 0.50338(18) 0.6365(3) -0.1976(2)
H8 H 0.5055 0.7309 -0.1619
C8 C 0.51511(16) 0.2092(3) -0.13202(18)
Cu1B Cu 1.0000 0.5000 1.0000
Cu1A Cu 0.5000 0.0000 -0.5000
O1A O 0.52584(11) 0.2065(2) -0.43256(12)
O1D O 0.52584(11) -0.2065(2) 0.06744(12)
O2A O 0.43697(13) 0.1013(2) -0.36099(13)
O2D O 0.43697(13) -0.1013(2) 0.13901(13)
N1F N 0.78550(14) 0.3647(3) 0.73200(16)
N2F N 0.76789(19) 0.2683(3) 0.8007(2)
N3F N 0.88680(13) 0.4195(2) 0.88746(15)
N3D N 0.38680(13) -0.0805(2) -0.11254(15)
C1F C 0.77693(19) 0.2550(4) 0.5598(2)
H1F H 0.8370 0.2951 0.5720
H2F H 0.7839 0.1504 0.5906
C2F C 0.73337(18) 0.3580(3) 0.61619(19)
H3F H 0.6730 0.3188 0.6034
H4F H 0.7273 0.4631 0.5864
C3F C 0.8303(2) 0.3065(4) 0.8928(2)
H5F H 0.8354 0.2591 0.9575
C4F C 0.85539(16) 0.4534(3) 0.78408(19)
H6F H 0.8793 0.5294 0.7525
C5A C 0.49601(15) 0.3549(3) -0.30337(18)
C6A C 0.49295(19) 0.4968(3) -0.3546(2)
H7A H 0.4883 0.4975 -0.4260
C7A C 0.49662(18) 0.6365(3) -0.3024(2)
H8A H 0.4945 0.7309 -0.3381
C8A C 0.48489(16) 0.2092(3) -0.36798(18)
loop_
_geom_bond_atom_site_label_1
_geom_bond_atom_site_label_2
_geom_bond_site_symmetry_1
_geom_bond_site_symmetry_2
Cu1 O1 1_555 1_555
O1 C8 1_555 1_555
O2 Cu1 1_555 1_555
N1 N2 1_555 1_555
N2 C3 1_555 1_555
N3 Cu1 1_555 1_555
C1 H1 1_555 1_555
H2 C1 1_555 1_555
C2 N1 1_555 1_555
H3 C2 1_555 1_555
H4 C2 1_555 1_555
C3 N3 1_555 1_555
H5 C3 1_555 1_555
C4 N1 1_555 1_555
H6 C4 1_555 1_555
C5 C6 1_555 1_555
C6 H7 1_555 1_555
C7 C6 1_555 1_555
H8 C7 1_555 1_555
C8 O2 1_555 1_555
Cu1B N3F 1_555 1_555
Cu1A O1A 1_555 1_555
O1A C8A 1_555 1_555
O1D Cu1 1_555 1_555
O2A Cu1A 1_555 1_555
O2D Cu1 1_555 1_555
N1F N2F 1_555 1_555
N2F C3F 1_555 1_555
N3F C3F 1_555 1_555
N3D Cu1 1_555 1_555
C1F C1 1_555 1_555
H1F C1F 1_555 1_555
H2F C1F 1_555 1_555
C2F N1F 1_555 1_555
H3F C2F 1_555 1_555
H4F C2F 1_555 1_555
C3F H5F 1_555 1_555
C4F N1F 1_555 1_555
H6F C4F 1_555 1_555
C5A C5 1_555 1_555
C6A C5A 1_555 1_555
H7A C6A 1_555 1_555
C7A C7 1_555 1_555
H8A C7A 1_555 1_555
C8A O2A 1_555 1_555
N3 C4 1_555 1_555
C1 C2 1_555 1_555
C5 C8 1_555 1_555
N3F C4F 1_555 1_555
C1F C2F 1_555 1_555
C5A C8A 1_555 1_555
C6A C7A 1_555 1_555

#END
