
#######################################################################
#
#                 Cambridge Crystallographic Data Centre
#                                CCDC 
#
#######################################################################
#
# If this CIF has been generated from an entry in the Cambridge 
# Structural Database, then it will include bibliographic, chemical, 
# crystal, experimental, refinement or atomic coordinate data resulting 
# from the CCDC's data processing and validation procedures.
#
#######################################################################

data_EBITIU
_symmetry_cell_setting           monoclinic
_symmetry_space_group_name_H-M   'P 21/c'
_symmetry_Int_Tables_number      14
_space_group_name_Hall           '-P 2ybc'
loop_
_symmetry_equiv_pos_site_id
_symmetry_equiv_pos_as_xyz
1 x,y,z
2 -x,1/2+y,1/2-z
3 -x,-y,-z
4 x,1/2-y,1/2+z
_cell_length_a                   14.4957(5)
_cell_length_b                   8.8235(3)
_cell_length_c                   23.1793(8)
_cell_angle_alpha                90
_cell_angle_beta                 96.8080(10)
_cell_angle_gamma                90
_cell_volume                     2943.79
loop_
_atom_site_label
_atom_site_type_symbol
_atom_site_fract_x
_atom_site_fract_y
_atom_site_fract_z
Zn1 Zn 0.26770(2) 0.55457(4) 0.055128(14)
Cl1 Cl 0.51277(5) 1.34084(8) 0.04109(3)
Cl2 Cl -0.04642(6) 0.80032(11) 0.29259(4)
N1 N 0.28152(16) 0.3491(3) 0.09332(10)
O1 O 0.37428(14) 0.6756(2) 0.08728(9)
O2 O 0.14886(15) 0.6409(3) 0.07085(9)
C1 C 0.44579(19) 0.9207(3) 0.08779(12)
C2 C 0.0522(2) 0.7260(3) 0.14065(13)
Cl3 Cl 0.65263(6) 0.99086(10) 0.21836(4)
Cl4 Cl -0.17144(6) 0.97151(10) 0.07567(4)
O3 O 0.31435(15) 0.8451(2) 0.02324(9)
O4 O 0.19348(15) 0.5894(3) 0.16284(10)
C3 C 0.5096(2) 0.8999(3) 0.13817(13)
C4 C -0.0152(2) 0.7992(4) 0.10174(14)
Cl5 Cl 0.50727(6) 0.74020(9) 0.18126(4)
Cl6 Cl -0.00856(7) 0.80459(14) 0.02816(4)
O5 O 0.38760(14) 1.0892(2) 0.00979(8)
H1 H 0.3512 1.0183 0.0036
O6 O 0.10714(14) 0.6679(2) 0.24001(9)
H2 H 0.1484 0.6298 0.2234
C5 C 0.5742(2) 1.0112(3) 0.15601(13)
C6 C -0.0893(2) 0.8737(3) 0.12240(15)
C7 C 0.5765(2) 1.1454(3) 0.12522(13)
H3 H 0.6206 1.2192 0.1370
C8 C -0.0987(2) 0.8738(4) 0.18080(15)
H4 H -0.1488 0.9228 0.1942
C9 C 0.5133(2) 1.1682(3) 0.07736(13)
C10 C -0.0342(2) 0.8018(4) 0.21903(13)
C11 C 0.4482(2) 1.0589(3) 0.05771(12)
C12 C 0.0426(2) 0.7303(3) 0.20038(14)
C13 C 0.3734(2) 0.8055(3) 0.06453(13)
C14 C 0.1368(2) 0.6460(3) 0.12286(14)
C15 C 0.2215(2) 0.2383(3) 0.07638(13)
H5 H 0.1812 0.2517 0.0425
C16 C 0.2167(2) 0.1051(3) 0.10700(13)
H6 H 0.1739 0.0309 0.0935
C17 C 0.2753(2) 0.0817(3) 0.15771(12)
C18 C 0.3380(2) 0.1966(3) 0.17492(12)
H7 H 0.3794 0.1858 0.2085
C19 C 0.3386(2) 0.3264(3) 0.14216(12)
H8 H 0.3808 0.4022 0.1546
C20 C 0.2713(2) -0.0655(3) 0.19026(12)
H9 H 0.3160 -0.1344 0.1765
H10 H 0.2102 -0.1093 0.1801
C21 C 0.2902(2) -0.0583(3) 0.25629(12)
H11 H 0.3511 -0.0145 0.2672
H12 H 0.2907 -0.1604 0.2718
C22 C 0.2177(2) 0.0354(3) 0.28302(12)
H13 H 0.2244 0.1412 0.2729
H14 H 0.1560 0.0027 0.2670
C23 C 0.2274(2) 0.0196(3) 0.34827(12)
C24 C 0.1884(2) -0.1021(3) 0.37435(13)
H15 H 0.1541 -0.1739 0.3516
C25 C 0.2781(2) 0.1222(3) 0.38450(13)
H16 H 0.3057 0.2053 0.3688
C26 C 0.2003(2) -0.1167(3) 0.43377(13)
H17 H 0.1734 -0.1989 0.4505
C27 C 0.2877(2) 0.1010(3) 0.44386(13)
H18 H 0.3219 0.1712 0.4675
N2 N 0.24959(16) -0.0166(3) 0.46870(10)
Zn1C Zn 0.26770(2) -0.05457(4) 0.555128(14)
N2C N 0.24959(16) 0.5166(3) -0.03130(10)
loop_
_geom_bond_atom_site_label_1
_geom_bond_atom_site_label_2
_geom_bond_site_symmetry_1
_geom_bond_site_symmetry_2
Zn1 N1 1_555 1_555
Cl1 C9 1_555 1_555
Cl2 C10 1_555 1_555
N1 C15 1_555 1_555
O1 Zn1 1_555 1_555
O2 Zn1 1_555 1_555
C1 C3 1_555 1_555
C2 C4 1_555 1_555
Cl3 C5 1_555 1_555
Cl4 C6 1_555 1_555
O3 C13 1_555 1_555
O4 C14 1_555 1_555
C3 Cl5 1_555 1_555
C4 Cl6 1_555 1_555
O5 H1 1_555 1_555
O6 H2 1_555 1_555
C5 C3 1_555 1_555
C6 C4 1_555 1_555
C7 C5 1_555 1_555
H3 C7 1_555 1_555
C8 C6 1_555 1_555
H4 C8 1_555 1_555
C9 C7 1_555 1_555
C10 C8 1_555 1_555
C11 C1 1_555 1_555
C12 C2 1_555 1_555
C13 O1 1_555 1_555
C14 O2 1_555 1_555
C15 H5 1_555 1_555
C16 C15 1_555 1_555
H6 C16 1_555 1_555
C17 C16 1_555 1_555
C18 C17 1_555 1_555
H7 C18 1_555 1_555
C19 N1 1_555 1_555
H8 C19 1_555 1_555
C20 C17 1_555 1_555
H9 C20 1_555 1_555
H10 C20 1_555 1_555
C21 C20 1_555 1_555
H11 C21 1_555 1_555
H12 C21 1_555 1_555
C22 C21 1_555 1_555
H13 C22 1_555 1_555
H14 C22 1_555 1_555
C23 C22 1_555 1_555
C24 C23 1_555 1_555
H15 C24 1_555 1_555
C25 C23 1_555 1_555
H16 C25 1_555 1_555
C26 C24 1_555 1_555
H17 C26 1_555 1_555
C27 C25 1_555 1_555
H18 C27 1_555 1_555
N2 C26 1_555 1_555
Zn1C N2 1_555 1_555
N2C Zn1 1_555 1_555
C1 C13 1_555 1_555
C2 C14 1_555 1_555
O5 C11 1_555 1_555
O6 C12 1_555 1_555
C9 C11 1_555 1_555
C10 C12 1_555 1_555
C18 C19 1_555 1_555
C27 N2 1_555 1_555

#END
