
#######################################################################
#
#                 Cambridge Crystallographic Data Centre
#                                CCDC 
#
#######################################################################
#
# If this CIF has been generated from an entry in the Cambridge 
# Structural Database, then it will include bibliographic, chemical, 
# crystal, experimental, refinement or atomic coordinate data resulting 
# from the CCDC's data processing and validation procedures.
#
#######################################################################

data_EBIVES
_symmetry_cell_setting           triclinic
_symmetry_space_group_name_H-M   'P -1'
_symmetry_Int_Tables_number      2
_space_group_name_Hall           '-P 1'
loop_
_symmetry_equiv_pos_site_id
_symmetry_equiv_pos_as_xyz
1 x,y,z
2 -x,-y,-z
_cell_length_a                   9.1994(6)
_cell_length_b                   10.5683(7)
_cell_length_c                   13.8477(9)
_cell_angle_alpha                80.486(2)
_cell_angle_beta                 78.545(2)
_cell_angle_gamma                65.856(2)
_cell_volume                     1198.73
loop_
_atom_site_label
_atom_site_type_symbol
_atom_site_fract_x
_atom_site_fract_y
_atom_site_fract_z
Zn1 Zn 0.30518(3) 0.11286(3) 0.40453(2)
Cl1 Cl 0.17113(9) -0.21066(8) 0.27711(6)
Cl2 Cl 0.79827(10) -0.52350(9) 0.17401(7)
Cl3 Cl 0.89180(8) -0.34795(7) 0.29757(5)
O1 O 0.5720(2) -0.00287(18) 0.39947(13)
N1 N 0.3435(3) 0.2336(2) 0.27451(16)
C1 C 0.5714(3) -0.2042(3) 0.34478(19)
O2 O 0.6754(2) -0.20778(18) 0.48791(13)
N3 N 0.0488(3) 0.2115(2) 0.43407(16)
C3 C 0.6905(3) -0.3131(3) 0.2940(2)
O3 O 0.2916(2) -0.05601(18) 0.37692(14)
C5 C 0.6514(3) -0.3884(3) 0.2383(2)
C7 C 0.4901(4) -0.3566(3) 0.2344(2)
H3 H 0.4614 -0.4106 0.1991
C9 C 0.3721(3) -0.2463(3) 0.2818(2)
C11 C 0.4063(3) -0.1618(3) 0.33573(19)
C13 C 0.6101(3) -0.1317(3) 0.41449(18)
C14 C 0.4950(3) 0.2122(3) 0.2289(2)
H7 H 0.5823 0.1376 0.2552
C15 C 0.5284(3) 0.2934(3) 0.1462(2)
H8 H 0.6368 0.2744 0.1167
C16 C 0.4027(3) 0.4039(3) 0.10559(19)
C17 C 0.2462(3) 0.4228(3) 0.1509(2)
H9 H 0.1564 0.4945 0.1249
C18 C 0.2225(3) 0.3363(3) 0.2341(2)
H10 H 0.1152 0.3508 0.2638
C19 C 0.4284(3) 0.5010(3) 0.02156(19)
H11 H 0.3361 0.5701 -0.0037
C20 C -0.4616(3) 0.4379(3) 0.4817(2)
H12 H -0.5258 0.3961 0.4646
C21 C -0.2868(3) 0.3616(3) 0.46580(19)
C22 C -0.1800(3) 0.4131(3) 0.4868(2)
H13 H -0.2200 0.5013 0.5120
C23 C -0.0169(3) 0.3362(3) 0.4711(2)
H14 H 0.0530 0.3730 0.4870
C24 C -0.0528(3) 0.1606(3) 0.4138(2)
H15 H -0.0091 0.0724 0.3881
C25 C -0.2186(3) 0.2312(3) 0.4288(2)
H16 H -0.2860 0.1910 0.4139
Zn1A Zn -1.30518(3) 0.88714(3) 0.59547(2)
Zn1_2 Zn -1.69482(3) 1.11286(3) 0.40453(2)
Zn1A_2 Zn 0.69482(3) -0.11286(3) 0.59547(2)
Zn1A_3 Zn 0.69482(3) 0.88714(3) -0.40453(2)
Cl1A Cl -1.17113(9) 1.21066(8) 0.72289(6)
Cl2A Cl -1.79827(10) 1.52350(9) 0.82599(7)
Cl3A Cl -1.89180(8) 1.34795(7) 0.70243(5)
O1A O -1.5720(2) 1.00287(18) 0.60053(13)
N1A N 0.6565(3) 0.7664(2) -0.27451(16)
N1A_2 N -1.3435(3) 0.7664(2) 0.72549(16)
C1A C -1.5714(3) 1.2042(3) 0.65522(19)
O2A O -1.6754(2) 1.20778(18) 0.51209(13)
O2_2 O -1.3246(2) 0.79222(18) 0.48791(13)
O2A_2 O 0.3246(2) 0.20778(18) 0.51209(13)
N3A N -1.0488(3) 0.7885(2) 0.56593(16)
C3A C -1.6905(3) 1.3131(3) 0.7060(2)
O3A O -1.2916(2) 1.05601(18) 0.62308(14)
C5A C -1.6514(3) 1.3884(3) 0.7617(2)
C7A C -1.4901(4) 1.3566(3) 0.7656(2)
H3A H -1.4614 1.4106 0.8009
C9A C -1.3721(3) 1.2463(3) 0.7182(2)
C11A C -1.4063(3) 1.1618(3) 0.66427(19)
C13A C -1.6101(3) 1.1317(3) 0.58551(18)
C14A C 0.5050(3) 0.7878(3) -0.2289(2)
H7A H 0.4177 0.8624 -0.2552
C15A C 0.4716(3) 0.7066(3) -0.1462(2)
H8A H 0.3632 0.7256 -0.1167
C16A C 0.5973(3) 0.5961(3) -0.10559(19)
C17A C 0.7538(3) 0.5772(3) -0.1509(2)
H9A H 0.8436 0.5055 -0.1249
C18A C 0.7775(3) 0.6637(3) -0.2341(2)
H10A H 0.8848 0.6492 -0.2638
C19A C 0.5716(3) 0.4990(3) -0.02156(19)
H11A H 0.6639 0.4299 0.0037
C20A C -0.5384(3) 0.5621(3) 0.5183(2)
H12A H -0.4742 0.6039 0.5354
C21A C -0.7132(3) 0.6384(3) 0.53420(19)
C22A C -0.8200(3) 0.5869(3) 0.5132(2)
H13A H -0.7800 0.4987 0.4880
C23A C -0.9831(3) 0.6638(3) 0.5289(2)
H14A H -1.0530 0.6270 0.5130
C24A C -0.9472(3) 0.8394(3) 0.5862(2)
H15A H -0.9909 0.9276 0.6119
C25A C -0.7814(3) 0.7688(3) 0.5712(2)
H16A H -0.7140 0.8090 0.5861
N2 N 0.9269(4) -0.8055(3) 0.0450(2)
C2 C 1.0216(5) -0.8229(4) -0.0401(3)
H1 H 0.9716 -0.7946 -0.0982
C4 C 1.1881(5) -0.8787(4) -0.0529(4)
H2 H 1.2480 -0.8835 -0.1175
C6 C 1.2660(6) -0.9273(5) 0.0292(4)
C8 C 1.1734(6) -0.9164(4) 0.1181(4)
H4 H 1.2209 -0.9482 0.1771
C10 C 1.0095(5) -0.8589(4) 0.1223(3)
H5 H 0.9478 -0.8564 0.1862
C12 C 1.4430(6) -0.9908(7) 0.0235(9)
H6 H 1.4662 -1.0326 0.0879
N2A N 2.0731(4) -1.1945(3) -0.0450(2)
C2A C 1.9784(5) -1.1771(4) 0.0401(3)
H1A H 2.0284 -1.2054 0.0982
C4A C 1.8119(5) -1.1213(4) 0.0529(4)
H2A H 1.7520 -1.1165 0.1175
C6A C 1.7340(6) -1.0727(5) -0.0292(4)
C8A C 1.8266(6) -1.0836(4) -0.1181(4)
H4A H 1.7791 -1.0518 -0.1771
C10A C 1.9905(5) -1.1411(4) -0.1223(3)
H5A H 2.0522 -1.1436 -0.1862
C12A C 1.5570(6) -1.0092(7) -0.0235(9)
H6A H 1.5338 -0.9674 -0.0879
loop_
_geom_bond_atom_site_label_1
_geom_bond_atom_site_label_2
_geom_bond_site_symmetry_1
_geom_bond_site_symmetry_2
Zn1 O1 1_555 1_555
Cl1 C9 1_555 1_555
Cl2 C5 1_555 1_555
Cl3 C3 1_555 1_555
O1 C13 1_555 1_555
N1 Zn1 1_555 1_555
C1 C3 1_555 1_555
N2 C2 1_555 1_555
C2 H1 1_555 1_555
O2 C13 1_555 1_555
N3 Zn1 1_555 1_555
C3 C5 1_555 1_555
C4 C2 1_555 1_555
H2 C4 1_555 1_555
O3 Zn1 1_555 1_555
C5 C7 1_555 1_555
C6 C4 1_555 1_555
C7 H3 1_555 1_555
C8 C6 1_555 1_555
H4 C8 1_555 1_555
C9 C7 1_555 1_555
C10 N2 1_555 1_555
H5 C10 1_555 1_555
C11 C1 1_555 1_555
C12 C6 1_555 1_555
H6 C12 1_555 1_555
C13 C1 1_555 1_555
C14 N1 1_555 1_555
H7 C14 1_555 1_555
C15 C14 1_555 1_555
H8 C15 1_555 1_555
C16 C15 1_555 1_555
C17 C16 1_555 1_555
H9 C17 1_555 1_555
C18 N1 1_555 1_555
H10 C18 1_555 1_555
C19 C16 1_555 1_555
H11 C19 1_555 1_555
C20 H12 1_555 1_555
C21 C20 1_555 1_555
C22 C21 1_555 1_555
H13 C22 1_555 1_555
C23 N3 1_555 1_555
H14 C23 1_555 1_555
C24 N3 1_555 1_555
H15 C24 1_555 1_555
C25 C21 1_555 1_555
H16 C25 1_555 1_555
Zn1A O1A 1_555 1_555
Zn1_2 O2A 1_555 1_555
Zn1A_2 O2 1_555 1_555
Zn1A_3 N1A 1_555 1_555
Cl1A C9A 1_555 1_555
Cl2A C5A 1_555 1_555
Cl3A C3A 1_555 1_555
O1A C13A 1_555 1_555
N1A C14A 1_555 1_555
N1A_2 Zn1A 1_555 1_555
C1A C3A 1_555 1_555
N2A C2A 1_555 1_555
C2A H1A 1_555 1_555
O2A C13A 1_555 1_555
O2_2 Zn1A 1_555 1_555
O2A_2 Zn1 1_555 1_555
N3A Zn1A 1_555 1_555
C3A C5A 1_555 1_555
C4A C2A 1_555 1_555
H2A C4A 1_555 1_555
O3A Zn1A 1_555 1_555
C5A C7A 1_555 1_555
C6A C4A 1_555 1_555
C7A H3A 1_555 1_555
C8A C6A 1_555 1_555
H4A C8A 1_555 1_555
C9A C7A 1_555 1_555
C10A N2A 1_555 1_555
H5A C10A 1_555 1_555
C11A C1A 1_555 1_555
C12A C12 1_555 1_555
H6A C12A 1_555 1_555
C13A C1A 1_555 1_555
C14A H7A 1_555 1_555
C15A C14A 1_555 1_555
H8A C15A 1_555 1_555
C16A C15A 1_555 1_555
C17A C16A 1_555 1_555
H9A C17A 1_555 1_555
C18A N1A 1_555 1_555
H10A C18A 1_555 1_555
C19A C19 1_555 1_555
H11A C19A 1_555 1_555
C20A C20 1_555 1_555
H12A C20A 1_555 1_555
C21A C20A 1_555 1_555
C22A C21A 1_555 1_555
H13A C22A 1_555 1_555
C23A N3A 1_555 1_555
H14A C23A 1_555 1_555
C24A N3A 1_555 1_555
H15A C24A 1_555 1_555
C25A C21A 1_555 1_555
H16A C25A 1_555 1_555
O3 C11 1_555 1_555
C8 C10 1_555 1_555
C9 C11 1_555 1_555
C17 C18 1_555 1_555
C22 C23 1_555 1_555
C24 C25 1_555 1_555
O3A C11A 1_555 1_555
C6A C12A 1_555 1_555
C8A C10A 1_555 1_555
C9A C11A 1_555 1_555
C16A C19A 1_555 1_555
C17A C18A 1_555 1_555
C22A C23A 1_555 1_555
C24A C25A 1_555 1_555

#END
