
#######################################################################
#
#                 Cambridge Crystallographic Data Centre
#                                CCDC 
#
#######################################################################
#
# If this CIF has been generated from an entry in the Cambridge 
# Structural Database, then it will include bibliographic, chemical, 
# crystal, experimental, refinement or atomic coordinate data resulting 
# from the CCDC's data processing and validation procedures.
#
#######################################################################

data_EBIVIV
_symmetry_cell_setting           monoclinic
_symmetry_space_group_name_H-M   'P 21/n'
_symmetry_Int_Tables_number      14
_space_group_name_Hall           '-P 2yn'
loop_
_symmetry_equiv_pos_site_id
_symmetry_equiv_pos_as_xyz
1 x,y,z
2 1/2+x,1/2-y,1/2+z
3 -x,-y,-z
4 1/2-x,1/2+y,1/2-z
_cell_length_a                   13.1127(16)
_cell_length_b                   8.9291(11)
_cell_length_c                   16.0213(19)
_cell_angle_alpha                90
_cell_angle_beta                 109.383(2)
_cell_angle_gamma                90
_cell_volume                     1769.53
loop_
_atom_site_label
_atom_site_type_symbol
_atom_site_fract_x
_atom_site_fract_y
_atom_site_fract_z
Br1 Br 1.03615(4) 0.22883(7) -0.03280(4)
Mn1 Mn 0.5000 1.0000 0.0000
O1 O 0.6197(2) 1.1044(3) 0.11653(18)
N1 N 0.5794(3) 0.7743(3) 0.0408(2)
N2 N 0.8211(2) 0.5919(3) -0.31881(19)
N3 N 0.6393(2) 0.5544(3) 0.01850(19)
N4 N 0.8880(2) 0.5255(3) -0.42217(19)
C1 C 0.7379(3) 0.5360(4) -0.1329(2)
H1 H 0.6764 0.5950 -0.1549
C2 C 0.8197(3) 0.5508(4) -0.1680(2)
C3 C 0.7449(3) 0.4350(4) -0.0654(2)
C4 C 0.9047(3) 0.6010(4) -0.3485(2)
H2 H 0.9676 0.6545 -0.3202
C5 C 0.5721(3) 0.6669(4) -0.0167(2)
H3 H 0.5257 0.6690 -0.0750
C6 C 0.9152(3) 0.3583(4) -0.0709(2)
C7 C 0.8353(3) 0.3453(4) -0.0341(2)
H4 H 0.8418 0.2772 0.0113
C8 C 0.9099(3) 0.4608(4) -0.1362(2)
H5 H 0.9666 0.4695 -0.1587
C9 C 0.6555(3) 0.7265(4) 0.1165(3)
H6 H 0.6780 0.7796 0.1695
C10 C 0.8118(3) 0.6623(4) -0.2397(3)
H7 H 0.8687 0.7362 -0.2180
H8 H 0.7429 0.7139 -0.2547
C11 C 0.7449(3) 0.5041(4) -0.3771(3)
H9 H 0.6779 0.4770 -0.3738
C12 C 0.7862(3) 0.4646(4) -0.4404(3)
H10 H 0.7513 0.4050 -0.4892
C13 C 0.6933(4) 0.5918(5) 0.1041(3)
H11 H 0.7458 0.5354 0.1456
C14 C 0.6534(4) 0.4192(4) -0.0287(3)
H12 H 0.589(3) 0.411(4) -0.074(2)
H13 H 0.669(3) 0.340(4) 0.013(2)
O1B O 0.3803(2) 0.8956(3) -0.11653(18)
Br1B Br -0.03615(4) 1.77117(7) 0.03280(4)
N1B N 0.4206(3) 1.2257(3) -0.0408(2)
N2B N 0.1789(2) 1.4081(3) 0.31881(19)
N3B N 0.3607(2) 1.4456(3) -0.01850(19)
N4B N 0.1120(2) 1.4745(3) 0.42217(19)
C1B C 0.2621(3) 1.4640(4) 0.1329(2)
H1B H 0.3236 1.4050 0.1549
C2B C 0.1803(3) 1.4492(4) 0.1680(2)
C3B C 0.2551(3) 1.5650(4) 0.0654(2)
C4B C 0.0953(3) 1.3990(4) 0.3485(2)
H2B H 0.0324 1.3455 0.3202
C5B C 0.4279(3) 1.3331(4) 0.0167(2)
H3B H 0.4743 1.3310 0.0750
C6B C 0.0848(3) 1.6417(4) 0.0709(2)
C7B C 0.1647(3) 1.6547(4) 0.0341(2)
H4B H 0.1582 1.7228 -0.0113
C8B C 0.0901(3) 1.5392(4) 0.1362(2)
H5B H 0.0334 1.5305 0.1587
C9B C 0.3445(3) 1.2735(4) -0.1165(3)
H6B H 0.3220 1.2204 -0.1695
C10B C 0.1882(3) 1.3377(4) 0.2397(3)
H7B H 0.1313 1.2638 0.2180
H8B H 0.2571 1.2861 0.2547
C11B C 0.2551(3) 1.4959(4) 0.3771(3)
H9B H 0.3221 1.5230 0.3738
C12B C 0.2138(3) 1.5354(4) 0.4404(3)
H10B H 0.2487 1.5950 0.4892
C13B C 0.3067(4) 1.4082(5) -0.1041(3)
H11B H 0.2542 1.4646 -0.1456
C14B C 0.3466(4) 1.5808(4) 0.0287(3)
H12B H 0.411(3) 1.589(4) 0.074(2)
H13B H 0.331(3) 1.660(4) -0.013(2)
N4A N 0.3880(2) 0.9745(3) 0.07783(19)
N4C N 0.6120(2) 1.0255(3) -0.07783(19)
Mn1A Mn 1.0000 0.5000 -0.5000
Mn1A_2 Mn 0.0000 1.5000 0.5000
O2 O 0.6687(3) 0.5230(5) 0.3259(3)
O3 O 0.5061(3) 0.5840(5) 0.2611(3)
O4 O 0.6213(4) 0.7563(5) 0.3209(3)
N5 N 0.5977(3) 0.6252(6) 0.3043(2)
O5 O 0.5593(4) 1.2574(4) 0.2425(3)
loop_
_geom_bond_atom_site_label_1
_geom_bond_atom_site_label_2
_geom_bond_site_symmetry_1
_geom_bond_site_symmetry_2
Br1 C6 1_555 1_555
Mn1 O1 1_555 1_555
O2 N5 1_555 1_555
O3 N5 1_555 1_555
O4 N5 1_555 1_555
N1 Mn1 1_555 1_555
N2 C4 1_555 1_555
N3 C5 1_555 1_555
N4 C4 1_555 1_555
C1 H1 1_555 1_555
C2 C1 1_555 1_555
C3 C1 1_555 1_555
C4 H2 1_555 1_555
C5 N1 1_555 1_555
H3 C5 1_555 1_555
C6 C7 1_555 1_555
C7 C3 1_555 1_555
H4 C7 1_555 1_555
C8 C2 1_555 1_555
H5 C8 1_555 1_555
C9 N1 1_555 1_555
H6 C9 1_555 1_555
C10 N2 1_555 1_555
H7 C10 1_555 1_555
H8 C10 1_555 1_555
C11 N2 1_555 1_555
H9 C11 1_555 1_555
C12 N4 1_555 1_555
H10 C12 1_555 1_555
C13 N3 1_555 1_555
H11 C13 1_555 1_555
C14 N3 1_555 1_555
H12 C14 1_555 1_555
H13 C14 1_555 1_555
O1B Mn1 1_555 1_555
Br1B C6B 1_555 1_555
N1B Mn1 1_555 1_555
N2B C4B 1_555 1_555
N3B C5B 1_555 1_555
N4B C4B 1_555 1_555
C1B H1B 1_555 1_555
C2B C1B 1_555 1_555
C3B C1B 1_555 1_555
C4B H2B 1_555 1_555
C5B N1B 1_555 1_555
H3B C5B 1_555 1_555
C6B C7B 1_555 1_555
C7B C3B 1_555 1_555
H4B C7B 1_555 1_555
C8B C2B 1_555 1_555
H5B C8B 1_555 1_555
C9B N1B 1_555 1_555
H6B C9B 1_555 1_555
C10B N2B 1_555 1_555
H7B C10B 1_555 1_555
H8B C10B 1_555 1_555
C11B N2B 1_555 1_555
H9B C11B 1_555 1_555
C12B N4B 1_555 1_555
H10B C12B 1_555 1_555
C13B N3B 1_555 1_555
H11B C13B 1_555 1_555
C14B N3B 1_555 1_555
H12B C14B 1_555 1_555
H13B C14B 1_555 1_555
N4A Mn1 1_555 1_555
N4C Mn1 1_555 1_555
Mn1A N4 1_555 1_555
Mn1A_2 N4B 1_555 1_555
C2 C10 1_555 1_555
C3 C14 1_555 1_555
C6 C8 1_555 1_555
C9 C13 1_555 1_555
C11 C12 1_555 1_555
C2B C10B 1_555 1_555
C3B C14B 1_555 1_555
C6B C8B 1_555 1_555
C9B C13B 1_555 1_555
C11B C12B 1_555 1_555

#END
