
#######################################################################
#
#                 Cambridge Crystallographic Data Centre
#                                CCDC 
#
#######################################################################
#
# If this CIF has been generated from an entry in the Cambridge 
# Structural Database, then it will include bibliographic, chemical, 
# crystal, experimental, refinement or atomic coordinate data resulting 
# from the CCDC's data processing and validation procedures.
#
#######################################################################

data_EBIVUI
_symmetry_cell_setting           monoclinic
_symmetry_space_group_name_H-M   'P 21/n'
_symmetry_Int_Tables_number      14
_space_group_name_Hall           '-P 2yn'
loop_
_symmetry_equiv_pos_site_id
_symmetry_equiv_pos_as_xyz
1 x,y,z
2 1/2-x,1/2+y,1/2-z
3 -x,-y,-z
4 1/2+x,1/2-y,1/2+z
_cell_length_a                   11.1225(17)
_cell_length_b                   6.2139(10)
_cell_length_c                   15.089(2)
_cell_angle_alpha                90
_cell_angle_beta                 94.651(2)
_cell_angle_gamma                90
_cell_volume                     1039.43
loop_
_atom_site_label
_atom_site_type_symbol
_atom_site_fract_x
_atom_site_fract_y
_atom_site_fract_z
Na1 Na 0.51073(10) -0.72047(19) 0.68846(7)
Zn1 Zn 0.5000 0.0000 1.0000
Zn2 Zn 0.70610(3) -0.48307(5) 1.20115(2)
S1 S 0.70171(6) 0.00327(10) 0.86515(4)
O1 O 0.44229(16) -0.1452(3) 0.87960(11)
O2 O 0.46376(17) -0.4175(3) 0.78758(12)
O3 O 0.58178(17) -0.2838(3) 1.04375(12)
O4 O 0.74545(18) -0.4799(3) 1.07534(13)
O5 O 0.66551(16) 0.0810(3) 0.95131(12)
O6 O 0.64898(19) 0.1279(3) 0.79113(13)
O7 O 0.83219(18) -0.0134(3) 0.86779(14)
O8 O 0.31686(16) -0.8160(3) 0.76127(12)
H1 H 0.3513 -0.8877 0.8041
O9 O 0.5058(3) -1.0599(5) 0.6094(2)
H2 H 0.4387 -1.1197 0.5938
H3 H 0.5483 -1.1750 0.6163
O10 O 0.3843(3) -0.5689(7) 0.5760(2)
H4 H 0.3687 -0.4703 0.5377
H5 H 0.3497 -0.6645 0.5426
C1 C 0.5065(2) -0.2728(4) 0.83922(16)
C2 C 0.6440(2) -0.2638(4) 0.85131(16)
H6 H 0.6725 -0.3172 0.7956
C3 C 0.6965(3) -0.4154(4) 0.92406(17)
H7 H 0.6702 -0.5597 0.9073
H8 H 0.7835 -0.4127 0.9222
C4 C 0.6707(2) -0.3837(4) 1.01991(17)
Na1B Na 0.48927(10) 0.72047(19) 1.31154(7)
Na1_2 Na 0.51073(10) 0.27953(19) 0.68846(7)
Na1A Na 0.98927(10) -0.22047(19) 0.81154(7)
Na1B_2 Na 0.48927(10) -0.27953(19) 1.31154(7)
Na1C Na 0.01073(10) 0.22047(19) 1.18846(7)
Zn2B Zn 0.29390(3) 0.48307(5) 0.79885(2)
Zn2B_2 Zn 0.29390(3) -0.51693(5) 0.79885(2)
Zn2C Zn 0.20610(3) -1.01693(5) 0.70115(2)
Zn2_2 Zn 0.70610(3) 0.51693(5) 1.20115(2)
Zn2A Zn 0.79390(3) 0.01693(5) 1.29885(2)
S1B S 0.29829(6) -0.00327(10) 1.13485(4)
O1B O 0.55771(16) 0.1452(3) 1.12040(11)
O2B O 0.53624(17) 0.4175(3) 1.21242(12)
O2B_2 O 0.53624(17) -0.5825(3) 1.21242(12)
O2_2 O 0.46376(17) 0.5825(3) 0.78758(12)
O3B O 0.41822(17) 0.2838(3) 0.95625(12)
O4B O 0.25455(18) 0.4799(3) 0.92466(13)
O5B O 0.33449(16) -0.0810(3) 1.04869(12)
O6B O 0.35102(19) -0.1279(3) 1.20887(13)
O6_2 O 0.64898(19) -0.8721(3) 0.79113(13)
O6B_2 O 0.35102(19) 0.8721(3) 1.20887(13)
O7B O 0.16781(18) 0.0134(3) 1.13221(14)
O7A O 0.66781(18) -0.5134(3) 0.63221(14)
O7C O 0.33219(18) 0.5134(3) 1.36779(14)
O8B O 0.68314(16) -0.1840(3) 1.23873(12)
O8C O 0.81686(16) -0.6840(3) 1.26127(12)
O8B_2 O 0.68314(16) 0.8160(3) 1.23873(12)
O8_2 O 0.31686(16) 0.1840(3) 0.76127(12)
O8A O 0.18314(16) 0.6840(3) 0.73873(12)
H1B H 0.6487 -0.1123 1.1959
H1C H 0.8513 -0.6123 1.3041
H1B_2 H 0.6487 0.8877 1.1959
H1_2 H 0.3513 0.1123 0.8041
H1A H 0.1487 0.6123 0.6959
O9B O 0.4942(3) 1.0599(5) 1.3906(2)
H2B H 0.5613 1.1197 1.4062
H3B H 0.4517 1.1750 1.3837
O10B O 0.6157(3) 0.5689(7) 1.4240(2)
H4B H 0.6313 0.4703 1.4623
H5B H 0.6503 0.6645 1.4574
C1B C 0.4935(2) 0.2728(4) 1.16078(16)
C2B C 0.3560(2) 0.2638(4) 1.14869(16)
H6B H 0.3275 0.3172 1.2044
C3B C 0.3035(3) 0.4154(4) 1.07594(17)
H7B H 0.3298 0.5597 1.0927
H8B H 0.2165 0.4127 1.0778
C4B C 0.3293(2) 0.3837(4) 0.98009(17)
loop_
_geom_bond_atom_site_label_1
_geom_bond_atom_site_label_2
_geom_bond_site_symmetry_1
_geom_bond_site_symmetry_2
Na1 O2 1_555 1_555
Zn1 O1 1_555 1_555
Zn2 O4 1_555 1_555
S1 O5 1_555 1_555
O1 C1 1_555 1_555
O2 C1 1_555 1_555
O3 Zn1 1_555 1_555
O4 C4 1_555 1_555
O5 Zn1 1_555 1_555
O6 S1 1_555 1_555
O7 S1 1_555 1_555
O8 Na1 1_555 1_555
H1 O8 1_555 1_555
O9 Na1 1_555 1_555
H2 O9 1_555 1_555
H3 O9 1_555 1_555
O10 Na1 1_555 1_555
H4 O10 1_555 1_555
H5 O10 1_555 1_555
C1 C2 1_555 1_555
C2 S1 1_555 1_555
H6 C2 1_555 1_555
C3 C2 1_555 1_555
H7 C3 1_555 1_555
H8 C3 1_555 1_555
C4 O3 1_555 1_555
Na1B O2B 1_555 1_555
Na1_2 O6 1_555 1_555
Na1A O7 1_555 1_555
Na1B_2 O2B_2 1_555 1_555
Na1C O7B 1_555 1_555
Zn2B O2_2 1_555 1_555
Zn2B_2 O2 1_555 1_555
Zn2C O8 1_555 1_555
Zn2_2 O2B 1_555 1_555
Zn2A O8B 1_555 1_555
S1B O5B 1_555 1_555
O1B Zn1 1_555 1_555
O2B C1B 1_555 1_555
O2B_2 Zn2 1_555 1_555
O2_2 Na1_2 1_555 1_555
O3B Zn1 1_555 1_555
O4B Zn2B 1_555 1_555
O5B Zn1 1_555 1_555
O6B Na1B_2 1_555 1_555
O6_2 Na1 1_555 1_555
O6B_2 Na1B 1_555 1_555
O7B S1B 1_555 1_555
O7A Na1 1_555 1_555
O7C Na1B 1_555 1_555
O8B Zn2 1_555 1_555
O8C Zn2 1_555 1_555
O8B_2 Na1B 1_555 1_555
O8_2 Na1_2 1_555 1_555
O8A Zn2B 1_555 1_555
H1B O8B 1_555 1_555
H1C O8C 1_555 1_555
H1B_2 O8B_2 1_555 1_555
H1_2 O8_2 1_555 1_555
H1A O8A 1_555 1_555
O9B Na1B 1_555 1_555
H2B O9B 1_555 1_555
H3B O9B 1_555 1_555
O10B Na1B 1_555 1_555
H4B O10B 1_555 1_555
H5B O10B 1_555 1_555
C1B O1B 1_555 1_555
C2B S1B 1_555 1_555
H6B C2B 1_555 1_555
C3B C2B 1_555 1_555
H7B C3B 1_555 1_555
H8B C3B 1_555 1_555
C4B O3B 1_555 1_555
O8 Zn2B_2 1_555 1_555
C3 C4 1_555 1_555
Na1B_2 O8B 1_555 1_555
Zn2B O8_2 1_555 1_555
Zn2_2 O8B_2 1_555 1_555
S1B O6B 1_555 1_555
O4B C4B 1_555 1_555
C1B C2B 1_555 1_555
C3B C4B 1_555 1_555

#END
