
#######################################################################
#
#                 Cambridge Crystallographic Data Centre
#                                CCDC 
#
#######################################################################
#
# If this CIF has been generated from an entry in the Cambridge 
# Structural Database, then it will include bibliographic, chemical, 
# crystal, experimental, refinement or atomic coordinate data resulting 
# from the CCDC's data processing and validation procedures.
#
#######################################################################

data_EBIXUK
_symmetry_cell_setting           rhombohedral
_symmetry_space_group_name_H-M   'R -3 c'
_symmetry_Int_Tables_number      167
_space_group_name_Hall           '-R 3 2"c'
loop_
_symmetry_equiv_pos_site_id
_symmetry_equiv_pos_as_xyz
1 x,y,z
2 -y,x-y,z
3 -x+y,-x,z
4 y,x,1/2-z
5 -x,-x+y,1/2-z
6 x-y,-y,1/2-z
7 2/3+x,1/3+y,1/3+z
8 2/3-y,1/3+x-y,1/3+z
9 2/3-x+y,1/3-x,1/3+z
10 2/3+y,1/3+x,5/6-z
11 2/3-x,1/3-x+y,5/6-z
12 2/3+x-y,1/3-y,5/6-z
13 1/3+x,2/3+y,2/3+z
14 1/3-y,2/3+x-y,2/3+z
15 1/3-x+y,2/3-x,2/3+z
16 1/3+y,2/3+x,1/6-z
17 1/3-x,2/3-x+y,1/6-z
18 1/3+x-y,2/3-y,1/6-z
19 -x,-y,-z
20 y,-x+y,-z
21 x-y,x,-z
22 -y,-x,1/2+z
23 x,x-y,1/2+z
24 -x+y,y,1/2+z
25 1/3-x,2/3-y,2/3-z
26 1/3+y,2/3-x+y,2/3-z
27 1/3+x-y,2/3+x,2/3-z
28 1/3-y,2/3-x,1/6+z
29 1/3+x,2/3+x-y,1/6+z
30 1/3-x+y,2/3+y,1/6+z
31 2/3-x,1/3-y,1/3-z
32 2/3+y,1/3-x+y,1/3-z
33 2/3+x-y,1/3+x,1/3-z
34 2/3-y,1/3-x,5/6+z
35 2/3+x,1/3+x-y,5/6+z
36 2/3-x+y,1/3+y,5/6+z
_cell_length_a                   23.8364(8)
_cell_length_b                   23.8364(8)
_cell_length_c                   26.589(2)
_cell_angle_alpha                90
_cell_angle_beta                 90
_cell_angle_gamma                120
_cell_volume                     13083.2
loop_
_atom_site_label
_atom_site_type_symbol
_atom_site_fract_x
_atom_site_fract_y
_atom_site_fract_z
Zn1 Zn 1.01624(2) 0.34957(2) -0.0833
C1 C 0.94962(17) 0.21090(17) -0.05072(12)
H1 H 0.9325 0.2028 -0.0831
C2 C 0.92785(17) 0.15928(17) -0.01778(13)
H2 H 0.8963 0.1180 -0.0278
C3 C 0.95370(15) 0.16986(15) 0.03055(11)
C4 C 1.00108(15) 0.23279(15) 0.04241(11)
H3 H 1.0201 0.2422 0.0741
C5 C 1.01962(15) 0.28073(16) 0.00739(12)
H4 H 1.0521 0.3223 0.0160
C6 C 0.92477(16) 0.05714(16) 0.05457(13)
H5 H 0.9301 0.0459 0.0222
C7 C 0.93233(15) 0.11611(15) 0.06675(12)
C8 C 0.91979(16) 0.11788(15) 0.11903(12)
C9 C 0.90388(16) 0.06232(16) 0.14374(13)
H6 H 0.8939 0.0557 0.1778
C10 C 0.95596(15) 0.20012(16) 0.18555(11)
H7 H 0.9784 0.1846 0.2041
C11 C 0.91473(16) 0.25787(17) 0.15965(12)
H8 H 0.9040 0.2903 0.1578
C12 C 0.89675(16) 0.20961(16) 0.12656(12)
H9 H 0.8715 0.2022 0.0980
N1 N 0.99357(13) 0.27121(13) -0.03886(9)
N2 N 0.92314(12) 0.17292(12) 0.14319(9)
N3 N 0.95220(12) 0.25197(13) 0.19738(9)
S1 S 0.90449(5) 0.00616(5) 0.10468(4)
Zn1D Zn 0.98376(2) 0.33333(3) -0.4167
Zn1H Zn 1.00000(3) 0.31709(2) 0.2500
C1I C 0.87757(17) 0.28295(17) -0.11595(12)
H1I H 0.8695 0.2658 -0.0836
C2I C 0.82595(17) 0.26118(17) -0.14889(13)
H2I H 0.7847 0.2296 -0.1389
C3I C 0.83653(15) 0.28703(15) -0.19722(11)
C4I C 0.89946(15) 0.33441(15) -0.20908(11)
H3I H 0.9089 0.3534 -0.2408
C5I C 0.94740(16) 0.35295(15) -0.17406(12)
H4I H 0.9890 0.3854 -0.1827
C6I C 0.72381(16) 0.25810(16) -0.22124(13)
H5I H 0.7126 0.2634 -0.1889
C7I C 0.78278(15) 0.26566(15) -0.23342(12)
C8I C 0.78455(15) 0.25312(16) -0.28570(12)
C9I C 0.72899(16) 0.23721(16) -0.31041(13)
H6I H 0.7224 0.2272 -0.3445
C10I C 0.86679(16) 0.28929(15) -0.35222(11)
H7I H 0.8513 0.3117 -0.3708
C11I C 0.92454(17) 0.24806(16) -0.32632(12)
H8I H 0.9570 0.2373 -0.3245
C12I C 0.87628(16) 0.23008(16) -0.29323(12)
H9I H 0.8689 0.2048 -0.2647
N1I N 0.93788(13) 0.32690(13) -0.12781(9)
N2I N 0.83959(12) 0.25647(12) -0.30986(9)
N3I N 0.91864(13) 0.28553(12) -0.36405(9)
N3M N 1.08136(13) 0.36690(18) -0.13595(9)
N3Q N 1.03356(18) 0.41470(13) -0.03071(9)
S1I S 0.67283(5) 0.23782(5) -0.27135(4)
Cl1 Cl 0.75485(5) 0.87860(4) 0.18045(3)
O1 O 0.8142(2) 0.9026(2) 0.20626(19)
O2 O 0.73749(15) 0.92718(13) 0.17722(11)
O3 O 0.7598(2) 0.85812(17) 0.13266(11)
O4 O 0.70878(16) 0.82472(13) 0.20818(10)
O5 O 0.0000 0.0000 0.2500
loop_
_geom_bond_atom_site_label_1
_geom_bond_atom_site_label_2
_geom_bond_site_symmetry_1
_geom_bond_site_symmetry_2
Zn1 N1 1_555 1_555
C1 H1 1_555 1_555
C2 C1 1_555 1_555
H2 C2 1_555 1_555
C3 C2 1_555 1_555
C4 C3 1_555 1_555
H3 C4 1_555 1_555
C5 C4 1_555 1_555
H4 C5 1_555 1_555
C6 H5 1_555 1_555
C7 C3 1_555 1_555
C8 C7 1_555 1_555
C9 C8 1_555 1_555
H6 C9 1_555 1_555
C10 H7 1_555 1_555
C11 H8 1_555 1_555
C12 C11 1_555 1_555
H9 C12 1_555 1_555
Cl1 O1 1_555 1_555
N1 C1 1_555 1_555
N2 C8 1_555 1_555
N3 C10 1_555 1_555
O2 Cl1 1_555 1_555
O3 Cl1 1_555 1_555
O4 Cl1 1_555 1_555
S1 C6 1_555 1_555
Zn1D N3I 1_555 1_555
Zn1H N3 1_555 1_555
C1I H1I 1_555 1_555
C2I C1I 1_555 1_555
H2I C2I 1_555 1_555
C3I C2I 1_555 1_555
C4I C3I 1_555 1_555
H3I C4I 1_555 1_555
C5I C4I 1_555 1_555
H4I C5I 1_555 1_555
C6I H5I 1_555 1_555
C7I C3I 1_555 1_555
C8I C7I 1_555 1_555
C9I C8I 1_555 1_555
H6I C9I 1_555 1_555
C10I H7I 1_555 1_555
C11I H8I 1_555 1_555
C12I C11I 1_555 1_555
H9I C12I 1_555 1_555
N1I Zn1 1_555 1_555
N2I C8I 1_555 1_555
N3I C10I 1_555 1_555
N3M Zn1 1_555 1_555
N3Q Zn1 1_555 1_555
S1I C6I 1_555 1_555
C5 N1 1_555 1_555
C6 C7 1_555 1_555
C9 S1 1_555 1_555
C10 N2 1_555 1_555
C11 N3 1_555 1_555
C12 N2 1_555 1_555
C1I N1I 1_555 1_555
C5I N1I 1_555 1_555
C6I C7I 1_555 1_555
C9I S1I 1_555 1_555
C10I N2I 1_555 1_555
C11I N3I 1_555 1_555
C12I N2I 1_555 1_555

#END
