
#######################################################################
#
#                 Cambridge Crystallographic Data Centre
#                                CCDC 
#
#######################################################################
#
# If this CIF has been generated from an entry in the Cambridge 
# Structural Database, then it will include bibliographic, chemical, 
# crystal, experimental, refinement or atomic coordinate data resulting 
# from the CCDC's data processing and validation procedures.
#
#######################################################################

data_EBIYEV
_symmetry_cell_setting           monoclinic
_symmetry_space_group_name_H-M   'P 21/c'
_symmetry_Int_Tables_number      14
_space_group_name_Hall           '-P 2ybc'
loop_
_symmetry_equiv_pos_site_id
_symmetry_equiv_pos_as_xyz
1 x,y,z
2 -x,1/2+y,1/2-z
3 -x,-y,-z
4 x,1/2-y,1/2+z
_cell_length_a                   9.0358(10)
_cell_length_b                   15.9866(17)
_cell_length_c                   12.5425(16)
_cell_angle_alpha                90
_cell_angle_beta                 116.0400(10)
_cell_angle_gamma                90
_cell_volume                     1627.87
loop_
_atom_site_label
_atom_site_type_symbol
_atom_site_fract_x
_atom_site_fract_y
_atom_site_fract_z
Zn1 Zn 0.5000 0.0000 1.0000
C1 C 0.6029(2) 0.05223(13) 0.80320(17)
H1 H 0.7051 0.0274 0.8467
C2 C 0.3581(3) 0.09694(13) 0.74886(19)
H2 H 0.2572 0.1087 0.7487
C3 C 0.3999(3) 0.11819(14) 0.66167(19)
H3 H 0.3352 0.1467 0.5920
C4 C 0.6560(2) 0.09490(13) 0.63441(17)
C5 C 0.7166(3) 0.02737(15) 0.60202(19)
H4 H 0.6962 -0.0277 0.6153
C6 C 0.8037(3) 0.15964(15) 0.54808(19)
H5 H 0.8485 0.2027 0.5217
C7 C 0.7054(2) 0.17148(13) 0.60262(17)
C8 C 0.5969(3) 0.31323(13) 0.54153(19)
H6 H 0.5759 0.3072 0.4624
C9 C 0.6171(3) 0.36406(15) 0.70411(19)
H7 H 0.6120 0.4012 0.7594
C10 C 0.6690(3) 0.28484(15) 0.72697(19)
H8 H 0.7066 0.2575 0.7996
C11 C 0.1013(3) -0.01204(19) 0.8806(3)
H9 H 0.1057 -0.0277 0.8082
H10 H 0.0059 0.0221 0.8627
H11 H 0.0947 -0.0614 0.9218
N1 N 0.4854(2) 0.05559(10) 0.83779(14)
N2 N 0.5569(2) 0.08928(10) 0.69664(14)
N3 N 0.6558(2) 0.25189(10) 0.62236(14)
N4 N 0.5725(2) 0.38259(10) 0.58696(14)
O1 O 0.24592(16) 0.03267(10) 0.95408(13)
H15 H 0.2312 0.0841 0.9349
S1 S 0.83532(8) 0.05626(4) 0.53376(6)
Zn1A Zn 0.5000 0.5000 0.5000
Zn1A_2 Zn 0.5000 0.5000 1.5000
C1C C 0.6029(2) 0.44777(13) 1.30320(17)
H1C H 0.7051 0.4726 1.3467
C2C C 0.3581(3) 0.40306(13) 1.24886(19)
H2C H 0.2572 0.3913 1.2487
C3C C 0.3999(3) 0.38181(14) 1.16167(19)
H3C H 0.3352 0.3533 1.0920
C4C C 0.6560(2) 0.40510(13) 1.13441(17)
C5C C 0.7166(3) 0.47263(15) 1.10202(19)
H4C H 0.6962 0.5277 1.1153
C6C C 0.8037(3) 0.34036(15) 1.04808(19)
H5C H 0.8485 0.2973 1.0217
C7C C 0.7054(2) 0.32852(13) 1.10262(17)
C8C C 0.5969(3) 0.18677(13) 1.04153(19)
H6C H 0.5759 0.1928 0.9624
C9C C 0.6171(3) 0.13594(15) 1.20411(19)
H7C H 0.6120 0.0988 1.2594
C10C C 0.6690(3) 0.21516(15) 1.22697(19)
H8C H 0.7066 0.2425 1.2996
C11B C 0.8987(3) 0.01204(19) 1.1194(3)
H9B H 0.8943 0.0277 1.1918
H10B H 0.9941 -0.0221 1.1373
H11B H 0.9053 0.0614 1.0782
N1C N 0.4854(2) 0.44441(10) 1.33779(14)
N1B N 0.5146(2) -0.05559(10) 1.16221(14)
N2C N 0.5569(2) 0.41072(10) 1.19664(14)
N3C N 0.6558(2) 0.24811(10) 1.12236(14)
N4C N 0.5725(2) 0.11741(10) 1.08696(14)
N4A N 0.4275(2) -0.11741(10) 0.91304(14)
O1B O 0.75408(16) -0.03267(10) 1.04592(13)
H15B H 0.7688 -0.0841 1.0651
S1C S 0.83532(8) 0.44374(4) 1.03376(6)
C12 C 0.2311(4) 0.17478(18) 0.2280(3)
H12 H 0.1233 0.1588 0.2178
H13 H 0.2679 0.1364 0.1858
H14 H 0.2271 0.2303 0.1976
O2 O 0.3397(2) 0.17323(12) 0.34754(18)
H16 H 0.2948 0.1932 0.3861
N5 N 0.0696(3) 0.22641(17) 0.93444(19)
O3 O 0.1955(2) 0.19827(12) 0.9273(2)
O4 O -0.0351(2) 0.17783(13) 0.93686(18)
O5 O 0.0572(2) 0.30282(13) 0.94037(19)
loop_
_geom_bond_atom_site_label_1
_geom_bond_atom_site_label_2
_geom_bond_site_symmetry_1
_geom_bond_site_symmetry_2
Zn1 N1 1_555 1_555
C1 H1 1_555 1_555
C2 H2 1_555 1_555
C3 C2 1_555 1_555
H3 C3 1_555 1_555
C4 C5 1_555 1_555
C5 H4 1_555 1_555
C6 H5 1_555 1_555
C7 C4 1_555 1_555
C8 H6 1_555 1_555
C9 H7 1_555 1_555
C10 C9 1_555 1_555
H8 C10 1_555 1_555
C11 H9 1_555 1_555
H10 C11 1_555 1_555
H11 C11 1_555 1_555
C12 H12 1_555 1_555
H13 C12 1_555 1_555
H14 C12 1_555 1_555
N1 C1 1_555 1_555
N2 C1 1_555 1_555
N3 C7 1_555 1_555
N4 C8 1_555 1_555
N5 O3 1_555 1_555
O1 Zn1 1_555 1_555
H15 O1 1_555 1_555
O2 C12 1_555 1_555
H16 O2 1_555 1_555
O4 N5 1_555 1_555
O5 N5 1_555 1_555
S1 C5 1_555 1_555
Zn1A N4 1_555 1_555
Zn1A_2 N1C 1_555 1_555
C1C H1C 1_555 1_555
C2C H2C 1_555 1_555
C3C C2C 1_555 1_555
H3C C3C 1_555 1_555
C4C C5C 1_555 1_555
C5C H4C 1_555 1_555
C6C H5C 1_555 1_555
C7C C4C 1_555 1_555
C8C H6C 1_555 1_555
C9C H7C 1_555 1_555
C10C C9C 1_555 1_555
H8C C10C 1_555 1_555
C11B H9B 1_555 1_555
H10B C11B 1_555 1_555
H11B C11B 1_555 1_555
N1C C1C 1_555 1_555
N1B Zn1 1_555 1_555
N2C C1C 1_555 1_555
N3C C7C 1_555 1_555
N4C Zn1 1_555 1_555
N4A Zn1 1_555 1_555
O1B Zn1 1_555 1_555
H15B O1B 1_555 1_555
S1C C5C 1_555 1_555
C2 N1 1_555 1_555
C3 N2 1_555 1_555
C4 N2 1_555 1_555
C6 C7 1_555 1_555
C6 S1 1_555 1_555
C8 N3 1_555 1_555
C9 N4 1_555 1_555
C10 N3 1_555 1_555
C11 O1 1_555 1_555
C2C N1C 1_555 1_555
C3C N2C 1_555 1_555
C4C N2C 1_555 1_555
C6C C7C 1_555 1_555
C6C S1C 1_555 1_555
C8C N3C 1_555 1_555
C8C N4C 1_555 1_555
C9C N4C 1_555 1_555
C10C N3C 1_555 1_555
C11B O1B 1_555 1_555

#END
