
#######################################################################
#
#                 Cambridge Crystallographic Data Centre
#                                CCDC 
#
#######################################################################
#
# If this CIF has been generated from an entry in the Cambridge 
# Structural Database, then it will include bibliographic, chemical, 
# crystal, experimental, refinement or atomic coordinate data resulting 
# from the CCDC's data processing and validation procedures.
#
#######################################################################

data_EBIYIZ
_symmetry_cell_setting           monoclinic
_symmetry_space_group_name_H-M   'P 21/c'
_symmetry_Int_Tables_number      14
_space_group_name_Hall           '-P 2ybc'
loop_
_symmetry_equiv_pos_site_id
_symmetry_equiv_pos_as_xyz
1 x,y,z
2 -x,1/2+y,1/2-z
3 -x,-y,-z
4 x,1/2-y,1/2+z
_cell_length_a                   9.0887(8)
_cell_length_b                   16.3768(15)
_cell_length_c                   12.6796(14)
_cell_angle_alpha                90
_cell_angle_beta                 116.0150(10)
_cell_angle_gamma                90
_cell_volume                     1696.06
loop_
_atom_site_label
_atom_site_type_symbol
_atom_site_fract_x
_atom_site_fract_y
_atom_site_fract_z
Cd1 Cd 0.5000 0.0000 0.0000
C1 C 0.4013(4) 0.05213(17) 0.2079(3)
H1 H 0.3013 0.0264 0.1652
C2 C 0.6414(4) 0.09916(18) 0.2605(3)
H2 H 0.7413 0.1120 0.2607
C3 C 0.5974(4) 0.12013(18) 0.3453(3)
H3 H 0.6594 0.1496 0.4132
C4 C 0.3442(4) 0.09492(18) 0.3723(2)
C5 C 0.2833(4) 0.02921(19) 0.4046(3)
H4 H 0.3040 -0.0246 0.3919
C6 C 0.1944(4) 0.15752(19) 0.4558(3)
H5 H 0.1487 0.1995 0.4811
C7 C 0.2919(4) 0.16923(18) 0.4025(2)
C8 C 0.4010(4) 0.30853(19) 0.4590(3)
H6 H 0.4251 0.3035 0.5380
C9 C 0.3726(4) 0.3566(2) 0.2950(3)
H7 H 0.3743 0.3924 0.2387
C10 C 0.3210(4) 0.2790(2) 0.2746(3)
H8 H 0.2805 0.2518 0.2030
C12 C 0.9118(5) -0.0127(3) 0.1205(4)
H12 H 0.8894 -0.0700 0.1066
H13 H 0.9379 -0.0004 0.2008
H14 H 1.0029 0.0016 0.1050
N1 N 0.5187(3) 0.05641(14) 0.1740(2)
N2 N 0.4432(3) 0.08948(13) 0.3118(2)
N3 N 0.3397(3) 0.24765(15) 0.3800(2)
N4 N 0.4226(3) 0.37572(15) 0.4114(2)
O1 O 0.7729(3) 0.03240(13) 0.04642(19)
H15 H 0.7887 0.0823 0.0666
S1 S 0.16484(12) 0.05691(6) 0.47116(8)
Cd1A Cd 0.5000 -0.5000 -0.5000
Cd1A_2 Cd 0.5000 0.5000 0.5000
C1B C 0.5987(4) -0.05213(17) -0.2079(3)
H1B H 0.6987 -0.0264 -0.1652
C2B C 0.3586(4) -0.09916(18) -0.2605(3)
H2B H 0.2587 -0.1120 -0.2607
C3B C 0.4026(4) -0.12013(18) -0.3453(3)
H3B H 0.3406 -0.1496 -0.4132
C4B C 0.6558(4) -0.09492(18) -0.3723(2)
C5B C 0.7167(4) -0.02921(19) -0.4046(3)
H4B H 0.6960 0.0246 -0.3919
C6B C 0.8056(4) -0.15752(19) -0.4558(3)
H5B H 0.8513 -0.1995 -0.4811
C7B C 0.7081(4) -0.16923(18) -0.4025(2)
C8B C 0.5990(4) -0.30853(19) -0.4590(3)
H6B H 0.5749 -0.3035 -0.5380
C9B C 0.6274(4) -0.3566(2) -0.2950(3)
H7B H 0.6257 -0.3924 -0.2387
C10B C 0.6790(4) -0.2790(2) -0.2746(3)
H8B H 0.7195 -0.2518 -0.2030
C12B C 0.0882(5) 0.0127(3) -0.1205(4)
H12B H 0.1106 0.0700 -0.1066
H13B H 0.0621 0.0004 -0.2008
H14B H -0.0029 -0.0016 -0.1050
N1B N 0.4813(3) -0.05641(14) -0.1740(2)
N2B N 0.5568(3) -0.08948(13) -0.3118(2)
N3B N 0.6603(3) -0.24765(15) -0.3800(2)
N4B N 0.5774(3) -0.37572(15) -0.4114(2)
N4A N 0.5774(3) -0.12428(15) 0.0886(2)
N4C N 0.4226(3) 0.12428(15) -0.0886(2)
O1B O 0.2271(3) -0.03240(13) -0.04642(19)
H15B H 0.2113 -0.0823 -0.0666
S1B S 0.83516(12) -0.05691(6) -0.47116(8)
C11 C 0.7610(6) 0.3258(2) 0.2674(4)
H9 H 0.8691 0.3463 0.2881
H10 H 0.7677 0.2698 0.2919
H11 H 0.7100 0.3577 0.3058
O2 O 0.6711(4) 0.33016(17) 0.1508(3)
H16 H 0.7288 0.3191 0.1180
N5 N 0.9305(5) 0.2231(3) 0.0660(3)
O3 O 0.8120(4) 0.19522(18) 0.0796(3)
O4 O 1.0349(4) 0.17710(19) 0.0613(3)
O5 O 0.9392(3) 0.2977(2) 0.0582(3)
loop_
_geom_bond_atom_site_label_1
_geom_bond_atom_site_label_2
_geom_bond_site_symmetry_1
_geom_bond_site_symmetry_2
Cd1 N1 1_555 1_555
C1 H1 1_555 1_555
C2 H2 1_555 1_555
C3 C2 1_555 1_555
H3 C3 1_555 1_555
C4 C5 1_555 1_555
C5 H4 1_555 1_555
C6 H5 1_555 1_555
C7 C4 1_555 1_555
C8 H6 1_555 1_555
C9 H7 1_555 1_555
C10 C9 1_555 1_555
H8 C10 1_555 1_555
C11 H9 1_555 1_555
H10 C11 1_555 1_555
H11 C11 1_555 1_555
C12 H12 1_555 1_555
H13 C12 1_555 1_555
H14 C12 1_555 1_555
N1 C1 1_555 1_555
N2 C1 1_555 1_555
N3 C7 1_555 1_555
N4 C8 1_555 1_555
N5 O3 1_555 1_555
O1 Cd1 1_555 1_555
H15 O1 1_555 1_555
O2 C11 1_555 1_555
H16 O2 1_555 1_555
O4 N5 1_555 1_555
O5 N5 1_555 1_555
S1 C5 1_555 1_555
Cd1A N4B 1_555 1_555
Cd1A_2 N4 1_555 1_555
C1B H1B 1_555 1_555
C2B H2B 1_555 1_555
C3B C2B 1_555 1_555
H3B C3B 1_555 1_555
C4B C5B 1_555 1_555
C5B H4B 1_555 1_555
C6B H5B 1_555 1_555
C7B C4B 1_555 1_555
C8B H6B 1_555 1_555
C9B H7B 1_555 1_555
C10B C9B 1_555 1_555
H8B C10B 1_555 1_555
C12B H12B 1_555 1_555
H13B C12B 1_555 1_555
H14B C12B 1_555 1_555
N1B Cd1 1_555 1_555
N2B C1B 1_555 1_555
N3B C7B 1_555 1_555
N4B C8B 1_555 1_555
N4A Cd1 1_555 1_555
N4C Cd1 1_555 1_555
O1B Cd1 1_555 1_555
H15B O1B 1_555 1_555
S1B C5B 1_555 1_555
C2 N1 1_555 1_555
C3 N2 1_555 1_555
C4 N2 1_555 1_555
C6 C7 1_555 1_555
C6 S1 1_555 1_555
C8 N3 1_555 1_555
C9 N4 1_555 1_555
C10 N3 1_555 1_555
C12 O1 1_555 1_555
C1B N1B 1_555 1_555
C2B N1B 1_555 1_555
C3B N2B 1_555 1_555
C4B N2B 1_555 1_555
C6B C7B 1_555 1_555
C6B S1B 1_555 1_555
C8B N3B 1_555 1_555
C9B N4B 1_555 1_555
C10B N3B 1_555 1_555
C12B O1B 1_555 1_555

#END
