
#######################################################################
#
#                 Cambridge Crystallographic Data Centre
#                                CCDC 
#
#######################################################################
#
# If this CIF has been generated from an entry in the Cambridge 
# Structural Database, then it will include bibliographic, chemical, 
# crystal, experimental, refinement or atomic coordinate data resulting 
# from the CCDC's data processing and validation procedures.
#
#######################################################################

data_EBOJUC
_symmetry_cell_setting           monoclinic
_symmetry_space_group_name_H-M   'P 21/n'
_symmetry_Int_Tables_number      14
_space_group_name_Hall           '-P 2yn'
loop_
_symmetry_equiv_pos_site_id
_symmetry_equiv_pos_as_xyz
1 x,y,z
2 1/2-x,1/2+y,1/2-z
3 -x,-y,-z
4 1/2+x,1/2-y,1/2+z
_cell_length_a                   8.371(4)
_cell_length_b                   22.545(10)
_cell_length_c                   9.785(5)
_cell_angle_alpha                90
_cell_angle_beta                 112.6030(10)
_cell_angle_gamma                90
_cell_volume                     1704.82
loop_
_atom_site_label
_atom_site_type_symbol
_atom_site_fract_x
_atom_site_fract_y
_atom_site_fract_z
Zn1 Zn -0.02971(4) -0.040308(14) 0.66690(3)
Zn2 Zn 0.13986(4) 0.093365(14) 0.73637(3)
O1 O 0.2141(2) -0.05822(9) 0.6968(2)
O2 O 0.3371(2) 0.02726(9) 0.8003(2)
O3 O -0.0663(2) 0.04269(8) 0.6321(2)
N1 N 0.8925(3) -0.08474(10) 1.0528(2)
N2 N 1.0349(3) -0.11508(11) 1.0573(3)
N3 N 1.0639(3) -0.10446(11) 0.9392(3)
N4 N 0.9412(3) -0.06592(10) 0.8534(2)
N5 N 0.3347(3) 0.16234(10) 0.8007(2)
N6 N -0.0086(3) 0.17481(10) 0.6744(2)
N7 N -0.1803(3) -0.09229(11) 0.4986(3)
N8 N -0.3002(4) -0.10747(14) 0.5024(3)
N9 N -0.4323(5) -0.1291(2) 0.5018(5)
C1 C 0.8374(3) -0.05458(12) 0.9254(3)
C2 C 0.6789(3) -0.01688(12) 0.8680(3)
H1 H 0.6825 0.0081 0.7886
H2 H 0.6746 0.0086 0.9464
C3 C 0.5172(3) -0.05611(13) 0.8105(3)
H3 H 0.5186 -0.0779 0.7255
H4 H 0.5262 -0.0850 0.8866
C4 C 0.3437(3) -0.02581(13) 0.7657(3)
C5 C -0.1804(4) 0.17740(14) 0.6177(3)
H5 H -0.2427 0.1422 0.5921
C6 C -0.2706(4) 0.23036(14) 0.5951(3)
H6 H -0.3909 0.2312 0.5528
C7 C -0.1752(4) 0.28218(14) 0.6380(4)
H7 H -0.2313 0.3185 0.6270
C8 C 0.0012(4) 0.27979(13) 0.6962(3)
H8 H 0.0661 0.3144 0.7247
C9 C 0.0831(4) 0.22494(13) 0.7126(3)
C10 C 0.2746(3) 0.21857(12) 0.7731(3)
C11 C 0.3845(4) 0.26700(13) 0.7988(3)
H9 H 0.3405 0.3052 0.7765
C12 C 0.5619(4) 0.25709(14) 0.8585(4)
H10 H 0.6388 0.2887 0.8782
C13 C 0.6224(4) 0.19996(14) 0.8881(3)
H11 H 0.7407 0.1924 0.9288
C14 C 0.5058(4) 0.15421(13) 0.8568(3)
H12 H 0.5480 0.1156 0.8755
Zn1_2 Zn 0.97029(4) -0.040308(14) 0.66690(3)
Zn2B Zn 0.86014(4) -0.093365(14) 1.26363(3)
Zn2B_2 Zn -0.13986(4) -0.093365(14) 0.26363(3)
N1B N 0.1075(3) 0.08474(10) 0.9472(2)
N4_2 N -0.0588(3) -0.06592(10) 0.8534(2)
N7B N 0.1803(3) 0.09229(11) 0.5014(3)
loop_
_geom_bond_atom_site_label_1
_geom_bond_atom_site_label_2
_geom_bond_site_symmetry_1
_geom_bond_site_symmetry_2
Zn1 O1 1_555 1_555
Zn2 O2 1_555 1_555
O1 C4 1_555 1_555
O2 C4 1_555 1_555
O3 Zn1 1_555 1_555
N1 N2 1_555 1_555
N2 N3 1_555 1_555
N3 N4 1_555 1_555
N4 C1 1_555 1_555
N5 Zn2 1_555 1_555
N6 Zn2 1_555 1_555
N7 Zn1 1_555 1_555
N8 N7 1_555 1_555
N9 N8 1_555 1_555
C1 N1 1_555 1_555
C2 C1 1_555 1_555
H1 C2 1_555 1_555
H2 C2 1_555 1_555
C3 C2 1_555 1_555
H3 C3 1_555 1_555
H4 C3 1_555 1_555
C4 C3 1_555 1_555
C5 N6 1_555 1_555
H5 C5 1_555 1_555
C6 C5 1_555 1_555
H6 C6 1_555 1_555
C7 C6 1_555 1_555
H7 C7 1_555 1_555
C8 C7 1_555 1_555
H8 C8 1_555 1_555
C9 N6 1_555 1_555
C10 N5 1_555 1_555
C11 C10 1_555 1_555
H9 C11 1_555 1_555
C12 C11 1_555 1_555
H10 C12 1_555 1_555
C13 C12 1_555 1_555
H11 C13 1_555 1_555
C14 N5 1_555 1_555
H12 C14 1_555 1_555
Zn1_2 N4 1_555 1_555
Zn2B N1 1_555 1_555
Zn2B_2 N7 1_555 1_555
N1B Zn2 1_555 1_555
N4_2 Zn1 1_555 1_555
N7B Zn2 1_555 1_555
Zn2 O3 1_555 1_555
C8 C9 1_555 1_555
C9 C10 1_555 1_555
C13 C14 1_555 1_555

#END
