
#######################################################################
#
#                 Cambridge Crystallographic Data Centre
#                                CCDC 
#
#######################################################################
#
# If this CIF has been generated from an entry in the Cambridge 
# Structural Database, then it will include bibliographic, chemical, 
# crystal, experimental, refinement or atomic coordinate data resulting 
# from the CCDC's data processing and validation procedures.
#
#######################################################################

data_EBOJIQ
_symmetry_cell_setting           monoclinic
_symmetry_space_group_name_H-M   'P 2/n'
_symmetry_Int_Tables_number      13
_space_group_name_Hall           '-P 2yac'
loop_
_symmetry_equiv_pos_site_id
_symmetry_equiv_pos_as_xyz
1 x,y,z
2 1/2-x,y,1/2-z
3 -x,-y,-z
4 1/2+x,-y,1/2+z
_cell_length_a                   10.5156(15)
_cell_length_b                   9.3977(13)
_cell_length_c                   23.034(3)
_cell_angle_alpha                90
_cell_angle_beta                 99.967(2)
_cell_angle_gamma                90
_cell_volume                     2241.92
loop_
_atom_site_label
_atom_site_type_symbol
_atom_site_fract_x
_atom_site_fract_y
_atom_site_fract_z
Cd1 Cd 0.687787(18) 0.454583(19) 0.454351(8)
O1 O 0.5431(3) 0.3348(4) 0.49531(13)
O2 O 0.4540(3) 0.3195(3) 0.40248(12)
O3 O 0.0959(2) 0.3725(2) 0.54316(10)
O4 O 0.1284(2) -0.0714(2) 0.47135(10)
O5 O 0.8264(2) 0.3703(3) 0.54317(9)
O6 O 0.3130(3) -0.1015(4) 0.40595(19)
O7 O 0.4822(3) 0.0199(3) 0.43421(14)
N1 N 0.2720(2) 0.3267(2) 0.50287(10)
N2 N 0.1144(2) 0.1514(2) 0.50515(10)
H1 H 0.0421 0.1282 0.5152
N3 N 0.3678(3) 0.0003(3) 0.43152(13)
N4 N 0.6102(3) 0.5744(3) 0.36508(12)
N5 N 0.7096(3) 1.2887(3) 0.09556(12)
C1 C 0.4557(3) 0.2992(3) 0.45483(16)
C2 C 0.3358(2) 0.2354(3) 0.47424(12)
C3 C 0.1576(2) 0.2885(3) 0.51803(12)
C4 C 0.1755(3) 0.0490(3) 0.47803(13)
C5 C 0.2935(3) 0.0970(3) 0.46096(12)
C6 C 0.6175(8) 0.5181(6) 0.3129(2)
H2 H 0.6649 0.4349 0.3117
C7 C 0.5570(9) 0.5786(7) 0.2596(2)
H3 H 0.5665 0.5364 0.2241
C8 C 0.5399(4) 0.6899(4) 0.36445(16)
H4 H 0.5307 0.7306 0.4003
C9 C 0.4788(4) 0.7540(5) 0.31299(17)
H5 H 0.4324 0.8375 0.3150
C10 C 0.4861(4) 0.6960(4) 0.25951(15)
C11 C 0.4159(5) 0.7612(5) 0.20291(18)
H6 H 0.3467 0.8210 0.2119
H7 H 0.3772 0.6857 0.1770
C12 C 0.5034(5) 0.8504(5) 0.17038(18)
H8 H 0.5803 0.7961 0.1672
H9 H 0.4584 0.8703 0.1308
C13 C 0.5423(6) 0.9881(5) 0.2012(2)
H10 H 0.6033 0.9684 0.2369
H11 H 0.4666 1.0316 0.2126
C14 C 0.6025(4) 1.0924(5) 0.16401(16)
C15 C 0.7172(5) 1.0659(4) 0.1446(2)
H12 H 0.7606 0.9806 0.1542
C16 C 0.5410(4) 1.2184(4) 0.14660(17)
H13 H 0.4622 1.2401 0.1576
C17 C 0.5969(3) 1.3113(4) 0.11298(15)
H14 H 0.5535 1.3957 0.1015
C18 C 0.7678(4) 1.1663(4) 0.11084(18)
H15 H 0.8456 1.1468 0.0985
H16 H 0.802(4) 0.295(6) 0.5473(16)
H17 H 0.915(4) 0.369(4) 0.5462(16)
Cd1B Cd 0.312213(18) 0.545417(19) 0.545649(8)
Cd1A Cd 0.812213(18) 1.454583(19) 0.045649(8)
N1B N 0.7280(2) 0.6733(2) 0.49713(10)
N5A N 0.7904(3) 0.2887(3) 0.40444(12)
O8 O 0.2794(10) 0.4405(12) 0.1557(8)
O9 O 0.3385(18) 1.194(3) 0.2895(5)
loop_
_geom_bond_atom_site_label_1
_geom_bond_atom_site_label_2
_geom_bond_site_symmetry_1
_geom_bond_site_symmetry_2
Cd1 O1 1_555 1_555
O1 C1 1_555 1_555
O2 C1 1_555 1_555
O3 C3 1_555 1_555
O4 C4 1_555 1_555
O5 Cd1 1_555 1_555
O6 N3 1_555 1_555
O7 N3 1_555 1_555
N1 C2 1_555 1_555
N2 H1 1_555 1_555
N3 C5 1_555 1_555
N4 Cd1 1_555 1_555
N5 C17 1_555 1_555
C1 C2 1_555 1_555
C2 C5 1_555 1_555
C3 N1 1_555 1_555
C4 N2 1_555 1_555
C5 C4 1_555 1_555
C6 N4 1_555 1_555
H2 C6 1_555 1_555
C7 C6 1_555 1_555
H3 C7 1_555 1_555
C8 N4 1_555 1_555
H4 C8 1_555 1_555
C9 C8 1_555 1_555
H5 C9 1_555 1_555
C10 C7 1_555 1_555
C11 C10 1_555 1_555
H6 C11 1_555 1_555
H7 C11 1_555 1_555
C12 C11 1_555 1_555
H8 C12 1_555 1_555
H9 C12 1_555 1_555
C13 C12 1_555 1_555
H10 C13 1_555 1_555
H11 C13 1_555 1_555
C14 C13 1_555 1_555
C15 C14 1_555 1_555
H12 C15 1_555 1_555
C16 C14 1_555 1_555
H13 C16 1_555 1_555
C17 C16 1_555 1_555
H14 C17 1_555 1_555
C18 N5 1_555 1_555
H15 C18 1_555 1_555
H16 O5 1_555 1_555
H17 O5 1_555 1_555
Cd1B N1 1_555 1_555
Cd1A N5 1_555 1_555
N1B Cd1 1_555 1_555
N5A Cd1 1_555 1_555
N2 C3 1_555 1_555
C9 C10 1_555 1_555
C15 C18 1_555 1_555

#END
