
#######################################################################
#
#                 Cambridge Crystallographic Data Centre
#                                CCDC 
#
#######################################################################
#
# If this CIF has been generated from an entry in the Cambridge 
# Structural Database, then it will include bibliographic, chemical, 
# crystal, experimental, refinement or atomic coordinate data resulting 
# from the CCDC's data processing and validation procedures.
#
#######################################################################

data_EBOJOW
_symmetry_cell_setting           monoclinic
_symmetry_space_group_name_H-M   'P 21/c'
_symmetry_Int_Tables_number      14
_space_group_name_Hall           '-P 2ybc'
loop_
_symmetry_equiv_pos_site_id
_symmetry_equiv_pos_as_xyz
1 x,y,z
2 -x,1/2+y,1/2-z
3 -x,-y,-z
4 x,1/2-y,1/2+z
_cell_length_a                   6.822(10)
_cell_length_b                   10.44(2)
_cell_length_c                   8.870(15)
_cell_angle_alpha                90
_cell_angle_beta                 101.396(13)
_cell_angle_gamma                90
_cell_volume                     619.282
loop_
_atom_site_label
_atom_site_type_symbol
_atom_site_fract_x
_atom_site_fract_y
_atom_site_fract_z
Zn1 Zn 0.26844(4) 0.24321(2) 0.22304(4)
O1 O 0.1875(3) 0.27263(17) 0.4247(2)
O2 O 0.0141(2) 0.32131(17) 0.5983(2)
C1 C -0.4645(3) 0.4782(2) 0.2776(3)
C2 C -0.3137(3) 0.4189(2) 0.4009(3)
H1 H -0.3746 0.3490 0.4472
H2 H -0.2669 0.4819 0.4802
C3 C -0.1358(3) 0.3679(2) 0.3368(3)
H3 H -0.1823 0.3006 0.2631
H4 H -0.0835 0.4366 0.2825
C4 C 0.0299(3) 0.3163(2) 0.4584(3)
N1 N -0.6209(3) 0.41645(18) 0.1953(2)
N2 N -0.7181(3) 0.5016(2) 0.0898(3)
N3 N -0.6240(3) 0.6089(2) 0.1080(3)
N4 N -0.4625(3) 0.59812(19) 0.2272(2)
Zn1_2 Zn -0.73156(4) 0.24321(2) 0.22304(4)
Zn1A Zn -0.26844(4) 0.74321(2) 0.27696(4)
Zn1C Zn 0.26844(4) 0.25679(2) 0.72304(4)
O2C O 0.0141(2) 0.17869(17) 0.0983(2)
N1_2 N 0.3791(3) 0.41645(18) 0.1953(2)
N4A N 0.4625(3) 0.09812(19) 0.2728(2)
loop_
_geom_bond_atom_site_label_1
_geom_bond_atom_site_label_2
_geom_bond_site_symmetry_1
_geom_bond_site_symmetry_2
Zn1 O1 1_555 1_555
O1 C4 1_555 1_555
O2 C4 1_555 1_555
C1 C2 1_555 1_555
C2 H1 1_555 1_555
H2 C2 1_555 1_555
C3 C2 1_555 1_555
H3 C3 1_555 1_555
H4 C3 1_555 1_555
C4 C3 1_555 1_555
N1 C1 1_555 1_555
N2 N1 1_555 1_555
N3 N2 1_555 1_555
N4 C1 1_555 1_555
Zn1_2 N1 1_555 1_555
Zn1A N4 1_555 1_555
Zn1C O2 1_555 1_555
O2C Zn1 1_555 1_555
N1_2 Zn1 1_555 1_555
N4A Zn1 1_555 1_555
N3 N4 1_555 1_555

#END
