
#######################################################################
#
#                 Cambridge Crystallographic Data Centre
#                                CCDC 
#
#######################################################################
#
# If this CIF has been generated from an entry in the Cambridge 
# Structural Database, then it will include bibliographic, chemical, 
# crystal, experimental, refinement or atomic coordinate data resulting 
# from the CCDC's data processing and validation procedures.
#
#######################################################################

data_EBOKUB
_symmetry_cell_setting           monoclinic
_symmetry_space_group_name_H-M   'P 21/m'
_symmetry_Int_Tables_number      11
_space_group_name_Hall           '-P 2yb'
loop_
_symmetry_equiv_pos_site_id
_symmetry_equiv_pos_as_xyz
1 x,y,z
2 x,1/2-y,z
3 -x,-y,-z
4 -x,1/2+y,-z
_cell_length_a                   6.0068(4)
_cell_length_b                   9.9518(8)
_cell_length_c                   6.9936(6)
_cell_angle_alpha                90
_cell_angle_beta                 110.472(5)
_cell_angle_gamma                90
_cell_volume                     391.663
loop_
_atom_site_label
_atom_site_type_symbol
_atom_site_fract_x
_atom_site_fract_y
_atom_site_fract_z
Zn1 Zn 0.62290(14) 0.2500 0.54948(15)
Br1 Br 0.27193(14) 0.2500 0.26918(15)
Br2 Br 0.62528(18) 0.2500 0.88337(15)
N1 N 0.8423(8) 0.0949(4) 0.5211(8)
C1 C 1.0393(11) 0.0615(6) 0.6769(9)
H1 H 1.0709 0.1035 0.8024
C2 C 0.8028(11) 0.0340(6) 0.3442(10)
H2 H 0.6681 0.0555 0.2330
C2B C 1.1972(11) -0.0340(6) 0.6558(10)
N1B N 1.1577(8) -0.0949(4) 0.4789(8)
C1B C 0.9607(11) -0.0615(6) 0.3231(9)
H1B H 0.9291 -0.1035 0.1976
H2B H 1.3319 -0.0555 0.7670
N1A N 0.8423(8) 0.4051(4) 0.5211(8)
Zn1B Zn 1.37710(14) -0.2500 0.45052(15)
loop_
_geom_bond_atom_site_label_1
_geom_bond_atom_site_label_2
_geom_bond_site_symmetry_1
_geom_bond_site_symmetry_2
Zn1 Br1 1_555 1_555
Br2 Zn1 1_555 1_555
N1 Zn1 1_555 1_555
C1 N1 1_555 1_555
H1 C1 1_555 1_555
C2 N1 1_555 1_555
H2 C2 1_555 1_555
C2B C1 1_555 1_555
N1B C2B 1_555 1_555
C1B C2 1_555 1_555
H1B C1B 1_555 1_555
H2B C2B 1_555 1_555
N1A Zn1 1_555 1_555
Zn1B N1B 1_555 1_555
N1B C1B 1_555 1_555

#END
