
#######################################################################
#
#                 Cambridge Crystallographic Data Centre
#                                CCDC 
#
#######################################################################
#
# If this CIF has been generated from an entry in the Cambridge 
# Structural Database, then it will include bibliographic, chemical, 
# crystal, experimental, refinement or atomic coordinate data resulting 
# from the CCDC's data processing and validation procedures.
#
#######################################################################

data_EBOKAH
_symmetry_cell_setting           monoclinic
_symmetry_space_group_name_H-M   'P 21/a'
_symmetry_Int_Tables_number      14
_space_group_name_Hall           '-P 2yab'
loop_
_symmetry_equiv_pos_site_id
_symmetry_equiv_pos_as_xyz
1 x,y,z
2 1/2-x,1/2+y,-z
3 -x,-y,-z
4 1/2+x,1/2-y,z
_cell_length_a                   21.481(6)
_cell_length_b                   14.822(8)
_cell_length_c                   10.604(7)
_cell_angle_alpha                90
_cell_angle_beta                 103.98(3)
_cell_angle_gamma                90
_cell_volume                     3276.22
loop_
_atom_site_label
_atom_site_type_symbol
_atom_site_fract_x
_atom_site_fract_y
_atom_site_fract_z
I1 I -0.32916(11) 0.13081(21) -0.25852(24)
I2 I -0.25861(17) 0.13062(21) 0.14951(24)
Co1 Co -0.22669(19) 0.13054(32) -0.07367(39)
P1 P -0.17938(42) -0.07487(55) -0.09647(92)
P2 P -0.32594(38) -0.16545(54) 0.10487(92)
O1 O -0.17567(94) 0.0255(13) -0.0828(19)
O2 O -0.3298(10) -0.2677(15) 0.0877(21)
C1 C -0.2175(12) -0.1221(22) 0.0176(23)
C2 C -0.2210(13) -0.1121(23) -0.2579(27)
C3 C -0.1880(13) -0.0953(20) -0.3642(26)
C4 C -0.1580(18) -0.1669(23) -0.4040(37)
C5 C -0.1245(18) -0.1563(25) -0.4999(37)
C6 C -0.1207(21) -0.0738(29) -0.5544(42)
C7 C -0.1583(22) -0.0096(31) -0.5238(44)
C8 C -0.1878(16) -0.0153(22) -0.4209(35)
C9 C -0.1013(13) -0.1289(28) -0.0735(26)
C10 C -0.0606(12) -0.1151(23) 0.0655(25)
C11 C -0.0479(25) -0.1920(33) 0.1357(50)
C12 C -0.0110(18) -0.2028(23) 0.2550(39)
C13 C 0.0146(16) -0.1268(33) 0.3144(33)
C14 C 0.0098(23) -0.0488(31) 0.2622(49)
C15 C -0.0397(14) -0.0387(18) 0.1250(29)
C16 C -0.2908(12) -0.1122(19) -0.0122(23)
C17 C -0.4055(12) -0.1207(24) 0.0801(23)
C18 C -0.4468(13) -0.1176(25) -0.0579(26)
C19 C -0.4753(22) -0.1986(30) -0.1155(45)
C20 C -0.4989(20) -0.2187(26) -0.2347(42)
C21 C -0.5210(18) -0.1398(33) -0.2984(37)
C22 C -0.5055(23) -0.0610(30) -0.2659(49)
C23 C -0.4571(15) -0.0426(20) -0.1266(32)
C24 C -0.2825(13) -0.1302(26) 0.2621(26)
C25 C -0.3182(16) -0.1422(28) 0.3661(31)
C26 C -0.3226(19) -0.2299(26) 0.4238(40)
C27 C -0.3549(19) -0.2405(27) 0.5247(38)
C28 C -0.3817(22) -0.1712(32) 0.5586(44)
C29 C -0.3835(20) -0.0944(29) 0.5088(42)
C30 C -0.3492(19) -0.0750(24) 0.4113(37)
H1 H -0.1991 -0.0944 0.1018
H2 H -0.2068 -0.1853 0.0271
H3 H -0.2272 -0.1760 -0.2533
H4 H -0.2613 -0.0832 -0.2798
H5 H -0.1598 -0.2245 -0.3669
H6 H -0.1041 -0.2070 -0.5269
H7 H -0.0938 -0.0619 -0.6098
H8 H -0.1647 0.0437 -0.5733
H9 H -0.2080 0.0354 -0.3923
H10 H -0.1073 -0.1918 -0.0894
H11 H -0.0793 -0.1038 -0.1324
H12 H -0.0686 -0.2450 0.0949
H13 H -0.0031 -0.2597 0.2956
H14 H 0.0381 -0.1313 0.4036
H15 H 0.0350 0.0000 0.3032
H16 H -0.0532 0.0185 0.0888
H17 H -0.3019 -0.0480 -0.0176
H18 H -0.3094 -0.1365 -0.0980
H19 H -0.4277 -0.1560 0.1298
H20 H -0.4018 -0.0603 0.1117
H21 H -0.4766 -0.2457 -0.0563
H22 H -0.5016 -0.2769 -0.2720
H23 H -0.5521 -0.1462 -0.3792
H24 H -0.5223 -0.0127 -0.3230
H25 H -0.4387 0.0144 -0.0987
H26 H -0.2443 -0.1645 0.2852
H27 H -0.2726 -0.0683 0.2576
H28 H -0.3033 -0.2805 0.3942
H29 H -0.3560 -0.2975 0.5650
H30 H -0.4028 -0.1775 0.6265
H31 H -0.4073 -0.0470 0.5343
H32 H -0.3482 -0.0154 0.3784
O2A O -0.1702(10) 0.2323(15) -0.0877(21)
Co1A Co -0.27331(19) -0.36946(32) 0.07367(39)
loop_
_geom_bond_atom_site_label_1
_geom_bond_atom_site_label_2
_geom_bond_site_symmetry_1
_geom_bond_site_symmetry_2
I1 Co1 1_555 1_555
I2 Co1 1_555 1_555
Co1 O1 1_555 1_555
P1 O1 1_555 1_555
P2 O2 1_555 1_555
O2 Co1A 1_555 1_555
C1 P1 1_555 1_555
C2 P1 1_555 1_555
C3 C2 1_555 1_555
C4 C3 1_555 1_555
C5 C4 1_555 1_555
C6 C5 1_555 1_555
C7 C6 1_555 1_555
C8 C3 1_555 1_555
C9 P1 1_555 1_555
C10 C9 1_555 1_555
C11 C10 1_555 1_555
C12 C11 1_555 1_555
C13 C12 1_555 1_555
C14 C13 1_555 1_555
C15 C10 1_555 1_555
C16 P2 1_555 1_555
C17 P2 1_555 1_555
C18 C17 1_555 1_555
C19 C18 1_555 1_555
C20 C19 1_555 1_555
C21 C20 1_555 1_555
C22 C21 1_555 1_555
C23 C18 1_555 1_555
C24 P2 1_555 1_555
C25 C24 1_555 1_555
C26 C25 1_555 1_555
C27 C26 1_555 1_555
C28 C27 1_555 1_555
C29 C28 1_555 1_555
C30 C25 1_555 1_555
H1 C1 1_555 1_555
H2 C1 1_555 1_555
H3 C2 1_555 1_555
H4 C2 1_555 1_555
H5 C4 1_555 1_555
H6 C5 1_555 1_555
H7 C6 1_555 1_555
H8 C7 1_555 1_555
H9 C8 1_555 1_555
H10 C9 1_555 1_555
H11 C9 1_555 1_555
H12 C11 1_555 1_555
H13 C12 1_555 1_555
H14 C13 1_555 1_555
H15 C14 1_555 1_555
H16 C15 1_555 1_555
H17 C16 1_555 1_555
H18 C16 1_555 1_555
H19 C17 1_555 1_555
H20 C17 1_555 1_555
H21 C19 1_555 1_555
H22 C20 1_555 1_555
H23 C21 1_555 1_555
H24 C22 1_555 1_555
H25 C23 1_555 1_555
H26 C24 1_555 1_555
H27 C24 1_555 1_555
H28 C26 1_555 1_555
H29 C27 1_555 1_555
H30 C28 1_555 1_555
H31 C29 1_555 1_555
H32 C30 1_555 1_555
O2A Co1 1_555 1_555
C1 C16 1_555 1_555
C7 C8 1_555 1_555
C14 C15 1_555 1_555
C22 C23 1_555 1_555
C29 C30 1_555 1_555

#END
