
#######################################################################
#
#                 Cambridge Crystallographic Data Centre
#                                CCDC 
#
#######################################################################
#
# If this CIF has been generated from an entry in the Cambridge 
# Structural Database, then it will include bibliographic, chemical, 
# crystal, experimental, refinement or atomic coordinate data resulting 
# from the CCDC's data processing and validation procedures.
#
#######################################################################

data_EBOMIT
_symmetry_cell_setting           monoclinic
_symmetry_space_group_name_H-M   'P 21'
_symmetry_Int_Tables_number      4
_space_group_name_Hall           'P 2yb'
loop_
_symmetry_equiv_pos_site_id
_symmetry_equiv_pos_as_xyz
1 x,y,z
2 -x,1/2+y,-z
_cell_length_a                   8.3240(8)
_cell_length_b                   6.4377(4)
_cell_length_c                   11.3504(8)
_cell_angle_alpha                90
_cell_angle_beta                 101.988(9)
_cell_angle_gamma                90
_cell_volume                     594.974
loop_
_atom_site_label
_atom_site_type_symbol
_atom_site_fract_x
_atom_site_fract_y
_atom_site_fract_z
Zn1 Zn -0.00003(10) 0.76868(14) 0.83226(7)
O1 O 0.2280(7) 0.5412(11) 0.7637(5)
O2 O 0.0215(7) 0.7227(11) 0.6680(5)
O3 O 0.0164(7) 0.0557(8) 0.0395(4)
O4 O 0.1559(6) -0.0198(8) -0.0978(4)
O5 O 0.4541(7) -0.0265(8) 0.1410(5)
H1 H 0.5477 -0.0432 0.1805
N1 N 0.2433(7) 0.3007(12) 0.1660(5)
H2 H 0.2950 0.2038 0.2190
C1 C 0.1530(10) 0.6208(13) 0.6696(7)
C2 C 0.2090(10) 0.6002(12) 0.5520(7)
C3 C 0.3302(10) 0.4608(15) 0.5411(7)
H3 H 0.3827 0.3832 0.6070
C4 C 0.3724(11) 0.4385(15) 0.4303(8)
H4 H 0.4549 0.3453 0.4224
C5 C 0.2947(10) 0.5515(12) 0.3302(7)
C6 C 0.1767(11) 0.6943(11) 0.3459(7)
H5 H 0.1270 0.7786 0.2822
C7 C 0.1334(11) 0.7111(12) 0.4550(7)
H6 H 0.0493 0.8017 0.4630
C8 C 0.3264(10) 0.5032(12) 0.2087(7)
H7 H 0.4437 0.4920 0.2127
H8 H 0.2836 0.6135 0.1527
C9 C 0.1387(9) 0.0803(11) -0.0047(6)
C10 C 0.2716(8) 0.2337(14) 0.0478(6)
H9 H 0.2629 0.3549 -0.0055
C11 C 0.4397(9) 0.1397(11) 0.0595(6)
H10 H 0.4545 0.0906 -0.0183
H11 H 0.5233 0.2431 0.0885
Zn1_2 Zn -0.00003(10) -0.23132(14) -0.16774(7)
Zn1A Zn 0.00003(10) 0.26868(14) 0.16774(7)
O3A O -0.0164(7) 0.5557(8) 0.9605(4)
O4_2 O 0.1559(6) 0.9802(8) 0.9022(4)
N1A N -0.2433(7) 0.8007(12) 0.8340(5)
loop_
_geom_bond_atom_site_label_1
_geom_bond_atom_site_label_2
_geom_bond_site_symmetry_1
_geom_bond_site_symmetry_2
Zn1 O2 1_555 1_555
O1 C1 1_555 1_555
O2 C1 1_555 1_555
O3 C9 1_555 1_555
O4 C9 1_555 1_555
O5 H1 1_555 1_555
N1 H2 1_555 1_555
C1 C2 1_555 1_555
C2 C3 1_555 1_555
C3 H3 1_555 1_555
C4 C3 1_555 1_555
H4 C4 1_555 1_555
C5 C4 1_555 1_555
C6 C5 1_555 1_555
H5 C6 1_555 1_555
C7 C2 1_555 1_555
H6 C7 1_555 1_555
C8 N1 1_555 1_555
H7 C8 1_555 1_555
H8 C8 1_555 1_555
C9 C10 1_555 1_555
C10 N1 1_555 1_555
H9 C10 1_555 1_555
C11 O5 1_555 1_555
H10 C11 1_555 1_555
H11 C11 1_555 1_555
Zn1_2 O4 1_555 1_555
Zn1A O3 1_555 1_555
O3A Zn1 1_555 1_555
O4_2 Zn1 1_555 1_555
N1A Zn1 1_555 1_555
N1 Zn1A 1_555 1_555
C5 C8 1_555 1_555
C6 C7 1_555 1_555
C10 C11 1_555 1_555

#END
