
#######################################################################
#
#                 Cambridge Crystallographic Data Centre
#                                CCDC 
#
#######################################################################
#
# If this CIF has been generated from an entry in the Cambridge 
# Structural Database, then it will include bibliographic, chemical, 
# crystal, experimental, refinement or atomic coordinate data resulting 
# from the CCDC's data processing and validation procedures.
#
#######################################################################

data_EBOMUE
_symmetry_cell_setting           monoclinic
_symmetry_space_group_name_H-M   'P 21/c'
_symmetry_Int_Tables_number      14
_space_group_name_Hall           '-P 2ybc'
loop_
_symmetry_equiv_pos_site_id
_symmetry_equiv_pos_as_xyz
1 x,y,z
2 -x,1/2+y,1/2-z
3 -x,-y,-z
4 x,1/2-y,1/2+z
_cell_length_a                   10.0358(4)
_cell_length_b                   30.2781(13)
_cell_length_c                   15.1222(7)
_cell_angle_alpha                90
_cell_angle_beta                 103.062(1)
_cell_angle_gamma                90
_cell_volume                     4476.21
loop_
_atom_site_label
_atom_site_type_symbol
_atom_site_fract_x
_atom_site_fract_y
_atom_site_fract_z
Zn1 Zn 0.19106(4) 0.133419(14) 0.39657(3)
S1 S 0.24333(12) 0.09011(3) 0.28357(7)
S2 S 0.40638(11) 0.18345(4) 0.24348(8)
S3 S 0.11053(11) 0.08154(3) 0.48357(7)
S4 S 0.01380(12) 0.17349(3) 0.58068(8)
P1 P 0.33618(10) 0.12541(3) 0.20130(7)
P2 P 0.09771(10) 0.11490(3) 0.59657(7)
O1 O 0.4458(3) 0.09369(10) 0.17385(19)
O2 O 0.2380(3) 0.12525(10) 0.10282(19)
O3 O 0.2484(3) 0.11522(10) 0.65786(18)
O4 O 0.0230(3) 0.08260(9) 0.65253(19)
N1 N 0.3493(3) 0.17007(10) 0.4658(2)
N2 N 1.0457(3) 0.32010(10) 0.8460(2)
C1 C 0.5822(4) 0.08671(15) 0.2289(3)
H1 H 0.6090 0.1128 0.2682
C2 C 0.6766(5) 0.0829(2) 0.1649(4)
H2 H 0.6427 0.0599 0.1200
H3 H 0.6766 0.1109 0.1324
C3 C 0.8208(6) 0.0720(2) 0.2142(5)
H4 H 0.8602 0.0973 0.2513
H5 H 0.8763 0.0665 0.1697
C4 C 0.8273(5) 0.0322(2) 0.2742(5)
H6 H 0.9219 0.0278 0.3079
H7 H 0.7994 0.0060 0.2364
C5 C 0.7353(6) 0.0371(3) 0.3410(5)
H8 H 0.7679 0.0615 0.3829
H9 H 0.7379 0.0100 0.3766
C6 C 0.5860(5) 0.0464(2) 0.2881(5)
H10 H 0.5507 0.0209 0.2504
H11 H 0.5276 0.0512 0.3311
C7 C 0.1065(4) 0.14738(14) 0.0825(3)
H12 H 0.0774 0.1534 0.1397
C8 C 0.1163(5) 0.19002(15) 0.0336(3)
H13 H 0.1779 0.2102 0.0742
H14 H 0.1556 0.1842 -0.0190
C9 C -0.0213(5) 0.21175(16) 0.0021(3)
H15 H -0.0114 0.2382 -0.0333
H16 H -0.0553 0.2211 0.0551
C10 C -0.1240(5) 0.18098(17) -0.0554(4)
H17 H -0.2139 0.1953 -0.0705
H18 H -0.0964 0.1747 -0.1123
C11 C -0.1341(5) 0.1383(2) -0.0060(5)
H19 H -0.1966 0.1182 -0.0461
H20 H -0.1718 0.1442 0.0472
C12 C 0.0068(5) 0.11618(18) 0.0246(4)
H21 H -0.0018 0.0894 0.0592
H22 H 0.0409 0.1076 -0.0288
C13 C 0.2736(4) 0.13399(15) 0.7498(3)
H23 H 0.1853 0.1422 0.7640
C14 C 0.3604(5) 0.17452(16) 0.7529(3)
H24 H 0.3102 0.1969 0.7115
H25 H 0.4438 0.1671 0.7327
C15 C 0.3984(6) 0.19321(19) 0.8490(3)
H26 H 0.4597 0.2185 0.8505
H27 H 0.3157 0.2035 0.8667
C16 C 0.4683(5) 0.1585(2) 0.9155(4)
H28 H 0.4869 0.1707 0.9770
H29 H 0.5562 0.1508 0.9016
C17 C 0.3824(5) 0.11690(19) 0.9124(3)
H30 H 0.2997 0.1236 0.9340
H31 H 0.4346 0.0945 0.9525
C18 C 0.3424(5) 0.09896(16) 0.8157(3)
H32 H 0.4243 0.0883 0.7974
H33 H 0.2800 0.0739 0.8138
C19 C -0.1260(4) 0.07992(14) 0.6320(3)
H34 H -0.1638 0.0999 0.5806
C20 C -0.1704(5) 0.03352(16) 0.6057(4)
H35 H -0.1299 0.0132 0.6549
H36 H -0.1395 0.0249 0.5512
C21 C -0.3271(5) 0.0311(2) 0.5872(5)
H37 H -0.3666 0.0497 0.5348
H38 H -0.3567 0.0007 0.5722
C22 C -0.3797(6) 0.0462(2) 0.6678(5)
H39 H -0.3505 0.0252 0.7178
H40 H -0.4800 0.0464 0.6517
C23 C -0.3284(6) 0.0917(2) 0.6989(5)
H41 H -0.3563 0.0988 0.7553
H42 H -0.3707 0.1134 0.6529
C24 C -0.1730(6) 0.09531(18) 0.7149(4)
H43 H -0.1450 0.1260 0.7283
H44 H -0.1300 0.0772 0.7673
C25 C 0.4796(4) 0.15748(15) 0.4697(3)
H45 H 0.4963 0.1313 0.4406
C26 C 0.5894(4) 0.18254(16) 0.5160(3)
H46 H 0.6794 0.1731 0.5182
C27 C 0.5672(4) 0.22115(14) 0.5585(3)
C28 C 0.4328(4) 0.23353(13) 0.5538(3)
H47 H 0.4136 0.2595 0.5826
C29 C 0.3277(4) 0.20764(13) 0.5069(3)
H48 H 0.2372 0.2167 0.5036
C30 C 0.6830(4) 0.24794(15) 0.6115(3)
H49 H 0.6557 0.2791 0.6094
H50 H 0.7614 0.2454 0.5831
C31 C 1.0733(4) 0.28442(13) 0.7999(3)
H51 H 1.1643 0.2795 0.7960
C32 C 0.9749(4) 0.25501(13) 0.7584(3)
H52 H 0.9990 0.2302 0.7280
C33 C 0.8391(4) 0.26217(13) 0.7618(3)
C34 C 0.8106(4) 0.29835(14) 0.8104(3)
H53 H 0.7205 0.3038 0.8156
C35 C 0.9153(4) 0.32636(13) 0.8512(3)
H54 H 0.8944 0.3508 0.8840
C36 C 0.7263(4) 0.23326(14) 0.7104(3)
H55 H 0.7577 0.2025 0.7130
H56 H 0.6476 0.2348 0.7386
N2C N 0.0457(3) 0.17990(10) 0.3460(2)
Zn1C Zn 1.19106(4) 0.366581(14) 0.89657(3)
Cl1 Cl 0.8855(3) 0.00361(9) 0.88885(18)
Cl2 Cl 0.8275(6) -0.01888(12) 1.0590(2)
Cl3 Cl 0.6297(5) 0.02317(13) 0.9255(3)
C37 C 0.7592(11) -0.0145(3) 0.9472(7)
H57 H 0.7236 -0.0436 0.9232
loop_
_geom_bond_atom_site_label_1
_geom_bond_atom_site_label_2
_geom_bond_site_symmetry_1
_geom_bond_site_symmetry_2
Zn1 S1 1_555 1_555
S1 P1 1_555 1_555
S2 P1 1_555 1_555
S3 Zn1 1_555 1_555
S4 P2 1_555 1_555
P1 O1 1_555 1_555
P2 S3 1_555 1_555
O1 C1 1_555 1_555
O2 P1 1_555 1_555
O3 P2 1_555 1_555
O4 P2 1_555 1_555
N1 Zn1 1_555 1_555
N2 C31 1_555 1_555
C1 H1 1_555 1_555
C2 C1 1_555 1_555
H2 C2 1_555 1_555
H3 C2 1_555 1_555
C3 C2 1_555 1_555
H4 C3 1_555 1_555
H5 C3 1_555 1_555
C4 C3 1_555 1_555
H6 C4 1_555 1_555
H7 C4 1_555 1_555
C5 C4 1_555 1_555
H8 C5 1_555 1_555
H9 C5 1_555 1_555
C6 C1 1_555 1_555
H10 C6 1_555 1_555
H11 C6 1_555 1_555
C7 O2 1_555 1_555
H12 C7 1_555 1_555
C8 C7 1_555 1_555
H13 C8 1_555 1_555
H14 C8 1_555 1_555
C9 C8 1_555 1_555
H15 C9 1_555 1_555
H16 C9 1_555 1_555
C10 C9 1_555 1_555
H17 C10 1_555 1_555
H18 C10 1_555 1_555
C11 C10 1_555 1_555
H19 C11 1_555 1_555
H20 C11 1_555 1_555
C12 C7 1_555 1_555
H21 C12 1_555 1_555
H22 C12 1_555 1_555
C13 O3 1_555 1_555
H23 C13 1_555 1_555
C14 C13 1_555 1_555
H24 C14 1_555 1_555
H25 C14 1_555 1_555
C15 C14 1_555 1_555
H26 C15 1_555 1_555
H27 C15 1_555 1_555
C16 C15 1_555 1_555
H28 C16 1_555 1_555
H29 C16 1_555 1_555
C17 C16 1_555 1_555
H30 C17 1_555 1_555
H31 C17 1_555 1_555
C18 C13 1_555 1_555
H32 C18 1_555 1_555
H33 C18 1_555 1_555
C19 O4 1_555 1_555
H34 C19 1_555 1_555
C20 C19 1_555 1_555
H35 C20 1_555 1_555
H36 C20 1_555 1_555
C21 C20 1_555 1_555
H37 C21 1_555 1_555
H38 C21 1_555 1_555
C22 C21 1_555 1_555
H39 C22 1_555 1_555
H40 C22 1_555 1_555
C23 C22 1_555 1_555
H41 C23 1_555 1_555
H42 C23 1_555 1_555
C24 C19 1_555 1_555
H43 C24 1_555 1_555
H44 C24 1_555 1_555
C25 N1 1_555 1_555
H45 C25 1_555 1_555
C26 C25 1_555 1_555
H46 C26 1_555 1_555
C27 C26 1_555 1_555
C28 C27 1_555 1_555
H47 C28 1_555 1_555
C29 N1 1_555 1_555
H48 C29 1_555 1_555
C30 C27 1_555 1_555
H49 C30 1_555 1_555
H50 C30 1_555 1_555
C31 H51 1_555 1_555
C32 C31 1_555 1_555
H52 C32 1_555 1_555
C33 C32 1_555 1_555
C34 C33 1_555 1_555
H53 C34 1_555 1_555
C35 N2 1_555 1_555
H54 C35 1_555 1_555
C36 C30 1_555 1_555
H55 C36 1_555 1_555
H56 C36 1_555 1_555
Cl1 C37 1_555 1_555
Cl2 C37 1_555 1_555
Cl3 C37 1_555 1_555
C37 H57 1_555 1_555
N2C Zn1 1_555 1_555
Zn1C N2 1_555 1_555
C5 C6 1_555 1_555
C11 C12 1_555 1_555
C17 C18 1_555 1_555
C23 C24 1_555 1_555
C28 C29 1_555 1_555
C33 C36 1_555 1_555
C34 C35 1_555 1_555

#END
