
#######################################################################
#
#                 Cambridge Crystallographic Data Centre
#                                CCDC 
#
#######################################################################
#
# If this CIF has been generated from an entry in the Cambridge 
# Structural Database, then it will include bibliographic, chemical, 
# crystal, experimental, refinement or atomic coordinate data resulting 
# from the CCDC's data processing and validation procedures.
#
#######################################################################

data_EBONAL
_symmetry_cell_setting           triclinic
_symmetry_space_group_name_H-M   'P -1'
_symmetry_Int_Tables_number      2
_space_group_name_Hall           '-P 1'
loop_
_symmetry_equiv_pos_site_id
_symmetry_equiv_pos_as_xyz
1 x,y,z
2 -x,-y,-z
_cell_length_a                   8.4827(6)
_cell_length_b                   11.6392(7)
_cell_length_c                   17.4996(12)
_cell_angle_alpha                78.124(3)
_cell_angle_beta                 83.169(3)
_cell_angle_gamma                75.006(3)
_cell_volume                     1629.27
loop_
_atom_site_label
_atom_site_type_symbol
_atom_site_fract_x
_atom_site_fract_y
_atom_site_fract_z
Zn1 Zn 0.02109(6) -0.18835(4) -0.19229(3)
S1 S 0.10388(18) -0.21768(14) -0.31791(7)
S2 S 0.30871(18) -0.45982(12) -0.19761(8)
S3 S -0.20727(14) -0.02714(11) -0.18484(7)
S4 S -0.30277(19) 0.27257(13) -0.22626(10)
P1 P 0.30151(18) -0.35734(12) -0.29912(8)
P2 P -0.13400(15) 0.12592(11) -0.23126(7)
O1 O 0.4603(5) -0.3014(4) -0.3106(2)
O2 O 0.3338(6) -0.4239(4) -0.3707(2)
O3 O -0.0489(5) 0.1167(3) -0.31673(19)
O4 O 0.0222(4) 0.1134(3) -0.18586(19)
N1 N 0.1842(4) -0.1684(3) -0.1212(2)
N2 N -0.0962(4) -0.3202(3) -0.1337(2)
C1 C 0.4985(10) -0.2268(8) -0.3826(4)
H1 H 0.4245 -0.2274 -0.4222
C2 C 0.4704(15) -0.1003(10) -0.3676(6)
H2 H 0.3562 -0.0712 -0.3510
H3 H 0.4983 -0.0480 -0.4152
H4 H 0.5385 -0.1002 -0.3269
C3 C 0.6720(12) -0.2863(14) -0.4078(6)
H5 H 0.6770 -0.3672 -0.4159
H6 H 0.7438 -0.2911 -0.3674
H7 H 0.7067 -0.2389 -0.4562
C4 C 0.2682(10) -0.5321(6) -0.3698(4)
H8 H 0.2428 -0.5698 -0.3152
C5 C 0.3995(12) -0.6143(7) -0.4062(5)
H9 H 0.4925 -0.6398 -0.3742
H10 H 0.4313 -0.5738 -0.4577
H11 H 0.3626 -0.6846 -0.4111
C6 C 0.1222(16) -0.4972(13) -0.4131(11)
H12 H 0.0365 -0.4428 -0.3870
H13 H 0.0859 -0.5688 -0.4155
H14 H 0.1468 -0.4567 -0.4658
C7 C -0.1301(9) 0.1642(6) -0.3883(3)
H15 H -0.1935 0.2486 -0.3886
C8 C 0.0128(14) 0.1605(11) -0.4515(5)
H16 H 0.0820 0.2103 -0.4424
H17 H -0.0299 0.1912 -0.5028
H18 H 0.0765 0.0778 -0.4493
C9 C -0.2376(11) 0.0887(7) -0.4001(5)
H19 H -0.3300 0.0961 -0.3615
H20 H -0.1767 0.0049 -0.3945
H21 H -0.2770 0.1157 -0.4522
C10 C 0.1125(7) 0.2091(4) -0.2045(3)
H22 H 0.0614 0.2726 -0.2473
C11 C 0.2844(8) 0.1530(6) -0.2308(4)
H23 H 0.2845 0.1227 -0.2784
H24 H 0.3317 0.0867 -0.1903
H25 H 0.3484 0.2132 -0.2406
C12 C 0.0979(9) 0.2618(5) -0.1319(4)
H26 H -0.0164 0.2963 -0.1184
H27 H 0.1579 0.3245 -0.1412
H28 H 0.1429 0.1987 -0.0892
C13 C 0.3424(5) -0.1797(4) -0.1446(2)
H29 H 0.3819 -0.2089 -0.1912
C14 C 0.4507(5) -0.1501(4) -0.1030(3)
H30 H 0.5608 -0.1586 -0.1219
C15 C 0.3974(5) -0.1084(4) -0.0341(3)
C16 C 0.2337(6) -0.1011(4) -0.0081(3)
H31 H 0.1930 -0.0775 0.0401
C17 C 0.1329(5) -0.1286(4) -0.0537(3)
H32 H 0.0217 -0.1190 -0.0367
C18 C 0.5086(6) -0.0684(4) 0.0105(3)
H33 H 0.6222 -0.1103 -0.0013
H34 H 0.4824 -0.0910 0.0668
C19 C -0.1160(6) -0.3454(4) -0.0563(3)
H35 H -0.0588 -0.3122 -0.0271
C20 C -0.2161(7) -0.4176(5) -0.0164(3)
H36 H -0.2243 -0.4336 0.0386
C21 C -0.3039(5) -0.4663(4) -0.0572(3)
C22 C -0.2806(6) -0.4426(4) -0.1373(3)
H37 H -0.3355 -0.4758 -0.1677
C23 C -0.1773(6) -0.3706(4) -0.1737(3)
H38 H -0.1632 -0.3562 -0.2287
C24 C -0.4207(6) -0.5404(4) -0.0144(3)
H39 H -0.3685 -0.5968 0.0303
H40 H -0.4455 -0.5879 -0.0496
C18A C 0.4914(6) 0.0684(4) -0.0105(3)
C15A C 0.6026(5) 0.1084(4) 0.0341(3)
C14A C 0.5493(5) 0.1501(4) 0.1030(3)
C13A C 0.6576(5) 0.1797(4) 0.1446(2)
N1A N 0.8158(4) 0.1684(3) 0.1212(2)
C17A C 0.8671(5) 0.1286(4) 0.0537(3)
C16A C 0.7663(6) 0.1011(4) 0.0081(3)
H31A H 0.8070 0.0775 -0.0401
H32A H 0.9783 0.1190 0.0367
H29A H 0.6181 0.2089 0.1912
H30A H 0.4392 0.1586 0.1219
H33A H 0.3778 0.1103 0.0013
H34A H 0.5176 0.0910 -0.0668
C24A C -0.5793(6) -0.4596(4) 0.0144(3)
C21A C -0.6961(5) -0.5337(4) 0.0572(3)
C20A C -0.7839(7) -0.5824(5) 0.0164(3)
C19A C -0.8840(6) -0.6546(4) 0.0563(3)
N2A N -0.9038(4) -0.6798(3) 0.1337(2)
C23A C -0.8227(6) -0.6294(4) 0.1737(3)
C22A C -0.7194(6) -0.5574(4) 0.1373(3)
H37A H -0.6645 -0.5242 0.1677
H38A H -0.8368 -0.6438 0.2287
H35A H -0.9412 -0.6878 0.0271
H36A H -0.7757 -0.5664 -0.0386
H39A H -0.6315 -0.4032 -0.0303
H40A H -0.5545 -0.4121 0.0496
Zn1A Zn 0.97891(6) 0.18835(4) 0.19229(3)
S1A S 0.89612(18) 0.21768(14) 0.31791(7)
S2A S 0.69129(18) 0.45982(12) 0.19761(8)
P1A P 0.69849(18) 0.35734(12) 0.29912(8)
O1A O 0.5397(5) 0.3014(4) 0.3106(2)
O2A O 0.6662(6) 0.4239(4) 0.3707(2)
C1A C 0.5015(10) 0.2268(8) 0.3826(4)
H1A H 0.5755 0.2274 0.4222
C2A C 0.5296(15) 0.1003(10) 0.3676(6)
H2A H 0.6438 0.0712 0.3510
H3A H 0.5017 0.0480 0.4152
H4A H 0.4615 0.1002 0.3269
C3A C 0.3280(12) 0.2863(14) 0.4078(6)
H5A H 0.3230 0.3672 0.4159
H6A H 0.2562 0.2911 0.3674
H7A H 0.2933 0.2389 0.4562
C4A C 0.7318(10) 0.5321(6) 0.3698(4)
H8A H 0.7572 0.5698 0.3152
C5A C 0.6005(12) 0.6143(7) 0.4062(5)
H9A H 0.5075 0.6398 0.3742
H10A H 0.5687 0.5738 0.4577
H11A H 0.6374 0.6846 0.4111
C6A C 0.8778(16) 0.4972(13) 0.4131(11)
H12A H 0.9635 0.4428 0.3870
H13A H 0.9141 0.5688 0.4155
H14A H 0.8532 0.4567 0.4658
S3A S 1.20727(14) 0.02714(11) 0.18484(7)
S4A S 1.30277(19) -0.27257(13) 0.22626(10)
P2A P 1.13400(15) -0.12592(11) 0.23126(7)
O3A O 1.0489(5) -0.1167(3) 0.31673(19)
O4A O 0.9778(4) -0.1134(3) 0.18586(19)
C7A C 1.1301(9) -0.1642(6) 0.3883(3)
H15A H 1.1935 -0.2486 0.3886
C8A C 0.9872(14) -0.1605(11) 0.4515(5)
H16A H 0.9180 -0.2103 0.4424
H17A H 1.0299 -0.1912 0.5028
H18A H 0.9235 -0.0778 0.4493
C9A C 1.2376(11) -0.0887(7) 0.4001(5)
H19A H 1.3300 -0.0961 0.3615
H20A H 1.1767 -0.0049 0.3945
H21A H 1.2770 -0.1157 0.4522
C10A C 0.8875(7) -0.2091(4) 0.2045(3)
H22A H 0.9386 -0.2726 0.2473
C11A C 0.7156(8) -0.1530(6) 0.2308(4)
H23A H 0.7155 -0.1227 0.2784
H24A H 0.6683 -0.0867 0.1903
H25A H 0.6516 -0.2132 0.2406
C12A C 0.9021(9) -0.2618(5) 0.1319(4)
H26A H 1.0164 -0.2963 0.1184
H27A H 0.8421 -0.3245 0.1412
H28A H 0.8571 -0.1987 0.0892
Zn1A_2 Zn -1.02109(6) -0.81165(4) 0.19229(3)
N2A_2 N 1.0962(4) 0.3202(3) 0.1337(2)
loop_
_geom_bond_atom_site_label_1
_geom_bond_atom_site_label_2
_geom_bond_site_symmetry_1
_geom_bond_site_symmetry_2
Zn1 S1 1_555 1_555
S1 P1 1_555 1_555
S2 P1 1_555 1_555
S3 Zn1 1_555 1_555
S4 P2 1_555 1_555
P1 O1 1_555 1_555
P2 S3 1_555 1_555
O1 C1 1_555 1_555
O2 P1 1_555 1_555
O3 P2 1_555 1_555
O4 P2 1_555 1_555
N1 Zn1 1_555 1_555
N2 Zn1 1_555 1_555
C1 H1 1_555 1_555
C2 C1 1_555 1_555
H2 C2 1_555 1_555
H3 C2 1_555 1_555
H4 C2 1_555 1_555
C3 C1 1_555 1_555
H5 C3 1_555 1_555
H6 C3 1_555 1_555
H7 C3 1_555 1_555
C4 O2 1_555 1_555
H8 C4 1_555 1_555
C5 C4 1_555 1_555
H9 C5 1_555 1_555
H10 C5 1_555 1_555
H11 C5 1_555 1_555
C6 C4 1_555 1_555
H12 C6 1_555 1_555
H13 C6 1_555 1_555
H14 C6 1_555 1_555
C7 O3 1_555 1_555
H15 C7 1_555 1_555
C8 C7 1_555 1_555
H16 C8 1_555 1_555
H17 C8 1_555 1_555
H18 C8 1_555 1_555
C9 C7 1_555 1_555
H19 C9 1_555 1_555
H20 C9 1_555 1_555
H21 C9 1_555 1_555
C10 O4 1_555 1_555
H22 C10 1_555 1_555
C11 C10 1_555 1_555
H23 C11 1_555 1_555
H24 C11 1_555 1_555
H25 C11 1_555 1_555
C12 C10 1_555 1_555
H26 C12 1_555 1_555
H27 C12 1_555 1_555
H28 C12 1_555 1_555
C13 N1 1_555 1_555
H29 C13 1_555 1_555
C14 C13 1_555 1_555
H30 C14 1_555 1_555
C15 C14 1_555 1_555
C16 C15 1_555 1_555
H31 C16 1_555 1_555
C17 N1 1_555 1_555
H32 C17 1_555 1_555
C18 C15 1_555 1_555
H33 C18 1_555 1_555
H34 C18 1_555 1_555
C19 N2 1_555 1_555
H35 C19 1_555 1_555
C20 C19 1_555 1_555
H36 C20 1_555 1_555
C21 C20 1_555 1_555
C22 C21 1_555 1_555
H37 C22 1_555 1_555
C23 N2 1_555 1_555
H38 C23 1_555 1_555
C24 C21 1_555 1_555
H39 C24 1_555 1_555
H40 C24 1_555 1_555
C18A C18 1_555 1_555
C15A C18A 1_555 1_555
C14A C15A 1_555 1_555
C13A C14A 1_555 1_555
N1A C13A 1_555 1_555
C17A N1A 1_555 1_555
C16A C15A 1_555 1_555
H31A C16A 1_555 1_555
H32A C17A 1_555 1_555
H29A C13A 1_555 1_555
H30A C14A 1_555 1_555
H33A C18A 1_555 1_555
H34A C18A 1_555 1_555
C24A C24 1_555 1_555
C21A C24A 1_555 1_555
C20A C21A 1_555 1_555
C19A C20A 1_555 1_555
N2A C19A 1_555 1_555
C23A N2A 1_555 1_555
C22A C21A 1_555 1_555
H37A C22A 1_555 1_555
H38A C23A 1_555 1_555
H35A C19A 1_555 1_555
H36A C20A 1_555 1_555
H39A C24A 1_555 1_555
H40A C24A 1_555 1_555
Zn1A N1A 1_555 1_555
S1A Zn1A 1_555 1_555
S2A P1A 1_555 1_555
P1A S1A 1_555 1_555
O1A P1A 1_555 1_555
O2A P1A 1_555 1_555
C1A O1A 1_555 1_555
H1A C1A 1_555 1_555
C2A C1A 1_555 1_555
H2A C2A 1_555 1_555
H3A C2A 1_555 1_555
H4A C2A 1_555 1_555
C3A C1A 1_555 1_555
H5A C3A 1_555 1_555
H6A C3A 1_555 1_555
H7A C3A 1_555 1_555
C4A O2A 1_555 1_555
H8A C4A 1_555 1_555
C5A C4A 1_555 1_555
H9A C5A 1_555 1_555
H10A C5A 1_555 1_555
H11A C5A 1_555 1_555
C6A C4A 1_555 1_555
H12A C6A 1_555 1_555
H13A C6A 1_555 1_555
H14A C6A 1_555 1_555
S3A Zn1A 1_555 1_555
S4A P2A 1_555 1_555
P2A S3A 1_555 1_555
O3A P2A 1_555 1_555
O4A P2A 1_555 1_555
C7A O3A 1_555 1_555
H15A C7A 1_555 1_555
C8A C7A 1_555 1_555
H16A C8A 1_555 1_555
H17A C8A 1_555 1_555
H18A C8A 1_555 1_555
C9A C7A 1_555 1_555
H19A C9A 1_555 1_555
H20A C9A 1_555 1_555
H21A C9A 1_555 1_555
C10A O4A 1_555 1_555
H22A C10A 1_555 1_555
C11A C10A 1_555 1_555
H23A C11A 1_555 1_555
H24A C11A 1_555 1_555
H25A C11A 1_555 1_555
C12A C10A 1_555 1_555
H26A C12A 1_555 1_555
H27A C12A 1_555 1_555
H28A C12A 1_555 1_555
Zn1A_2 N2A 1_555 1_555
N2A_2 Zn1A 1_555 1_555
C16 C17 1_555 1_555
C22 C23 1_555 1_555
C17A C16A 1_555 1_555
C23A C22A 1_555 1_555

#END
