
#######################################################################
#
#                 Cambridge Crystallographic Data Centre
#                                CCDC 
#
#######################################################################
#
# If this CIF has been generated from an entry in the Cambridge 
# Structural Database, then it will include bibliographic, chemical, 
# crystal, experimental, refinement or atomic coordinate data resulting 
# from the CCDC's data processing and validation procedures.
#
#######################################################################

data_EBONEP
_symmetry_cell_setting           triclinic
_symmetry_space_group_name_H-M   'P -1'
_symmetry_Int_Tables_number      2
_space_group_name_Hall           '-P 1'
loop_
_symmetry_equiv_pos_site_id
_symmetry_equiv_pos_as_xyz
1 x,y,z
2 -x,-y,-z
_cell_length_a                   9.3237(7)
_cell_length_b                   13.9138(11)
_cell_length_c                   17.0917(12)
_cell_angle_alpha                73.994(2)
_cell_angle_beta                 77.547(2)
_cell_angle_gamma                80.795(2)
_cell_volume                     2069.21
loop_
_atom_site_label
_atom_site_type_symbol
_atom_site_fract_x
_atom_site_fract_y
_atom_site_fract_z
Zn1 Zn -0.00395(5) 0.27870(3) 0.26241(3)
S1 S -0.11500(11) 0.38919(7) 0.35876(6)
S2 S 0.15908(11) 0.42232(7) 0.20162(6)
S3 S -0.17457(11) 0.13902(8) 0.32206(6)
S4 S 0.10953(12) 0.16274(8) 0.16573(6)
P1 P 0.03558(12) 0.47965(8) 0.29254(6)
P2 P -0.03193(12) 0.07233(8) 0.24430(7)
O1 O 0.1338(3) 0.50632(19) 0.34642(16)
O2 O -0.0345(3) 0.59154(19) 0.25904(17)
O3 O 0.0493(3) -0.0236(2) 0.29762(16)
O4 O -0.1131(3) 0.0203(2) 0.19688(18)
N1 N 0.1480(3) 0.1951(2) 0.34563(18)
N2 N -0.1547(3) 0.3522(2) 0.17457(18)
C1 C 0.2245(4) 0.4262(3) 0.3954(2)
H1 H 0.2251 0.3628 0.3797
C2 C 0.3795(5) 0.4547(4) 0.3754(3)
H2 H 0.3789 0.5205 0.3861
H3 H 0.4196 0.4598 0.3167
C3 C 0.4771(5) 0.3755(4) 0.4285(3)
H4 H 0.4851 0.3112 0.4140
H5 H 0.5765 0.3965 0.4174
C4 C 0.4114(5) 0.3624(4) 0.5202(3)
H6 H 0.4732 0.3101 0.5533
H7 H 0.4104 0.4254 0.5355
C5 C 0.2570(5) 0.3337(4) 0.5387(3)
H8 H 0.2155 0.3281 0.5973
H9 H 0.2588 0.2680 0.5276
C6 C 0.1602(5) 0.4120(3) 0.4856(2)
H10 H 0.0612 0.3906 0.4965
H11 H 0.1510 0.4762 0.5005
C7 C -0.1416(5) 0.6104(3) 0.2040(2)
H12 H -0.1419 0.5487 0.1859
C8 C -0.0936(7) 0.6937(4) 0.1293(3)
H13 H 0.0049 0.6735 0.1007
H14 H -0.0885 0.7544 0.1467
C9 C -0.2045(9) 0.7158(5) 0.0709(3)
H15 H -0.1768 0.7726 0.0239
H16 H -0.2015 0.6571 0.0492
C10 C -0.3602(9) 0.7407(4) 0.1147(4)
H17 H -0.4294 0.7496 0.0768
H18 H -0.3661 0.8041 0.1302
C11 C -0.4040(6) 0.6588(4) 0.1910(4)
H19 H -0.4095 0.5973 0.1750
H20 H -0.5021 0.6791 0.2200
C12 C -0.2935(5) 0.6380(4) 0.2485(3)
H21 H -0.2936 0.6978 0.2681
H22 H -0.3218 0.5828 0.2967
C13 C 0.1714(6) -0.0855(3) 0.2561(3)
H23 H 0.1930 -0.0536 0.1960
C14 C 0.3043(6) -0.0904(4) 0.2939(3)
H24 H 0.3896 -0.1249 0.2641
H25 H 0.3265 -0.0219 0.2878
C15 C 0.2811(6) -0.1441(4) 0.3831(3)
H26 H 0.2032 -0.1057 0.4141
H27 H 0.3722 -0.1494 0.4045
C16 C 0.2379(6) -0.2481(4) 0.3956(3)
H28 H 0.3189 -0.2882 0.3680
H29 H 0.2205 -0.2814 0.4549
C17 C 0.1006(6) -0.2429(4) 0.3612(3)
H30 H 0.0173 -0.2086 0.3925
H31 H 0.0775 -0.3112 0.3673
C18 C 0.1214(6) -0.1868(4) 0.2704(3)
H32 H 0.1947 -0.2266 0.2382
H33 H 0.0278 -0.1788 0.2508
C19 C -0.2039(6) 0.0782(4) 0.1379(3)
H34 H -0.2155 0.1498 0.1389
C20 C -0.1317(9) 0.0683(8) 0.0563(4)
H35 H -0.1112 -0.0033 0.0571
H36 H -0.0369 0.0965 0.0419
C21 C -0.2240(12) 0.1210(9) -0.0099(5)
H37 H -0.2387 0.1935 -0.0144
H38 H -0.1728 0.1100 -0.0636
C22 C -0.3700(11) 0.0796(6) 0.0134(6)
H39 H -0.4306 0.1119 -0.0289
H40 H -0.3558 0.0071 0.0180
C23 C -0.4403(9) 0.0987(10) 0.0896(6)
H41 H -0.5384 0.0750 0.1055
H42 H -0.4524 0.1712 0.0851
C24 C -0.3446(8) 0.0431(8) 0.1569(4)
H43 H -0.3959 0.0535 0.2108
H44 H -0.3325 -0.0293 0.1609
C25 C 0.2935(4) 0.1815(3) 0.3200(2)
H45 H 0.3323 0.2119 0.2647
C26 C 0.3902(4) 0.1253(3) 0.3703(2)
H46 H 0.4922 0.1191 0.3495
C27 C 0.3356(4) 0.0779(3) 0.4521(2)
C28 C 0.1848(4) 0.0933(3) 0.4784(2)
H47 H 0.1431 0.0638 0.5334
C29 C 0.0952(4) 0.1514(3) 0.4251(2)
H48 H -0.0069 0.1609 0.4449
C30 C 0.4302(4) 0.0149(3) 0.5093(2)
H49 H 0.3853 -0.0061 0.5651
C31 C -0.3009(4) 0.3634(3) 0.1974(2)
H50 H -0.3412 0.3420 0.2539
C32 C -0.3965(5) 0.4049(3) 0.1424(3)
H51 H -0.4991 0.4103 0.1615
C33 C -0.3394(5) 0.4387(3) 0.0582(2)
C34 C -0.1875(5) 0.4268(3) 0.0351(2)
H52 H -0.1440 0.4481 -0.0209
C35 C -0.1002(4) 0.3842(3) 0.0930(2)
H53 H 0.0027 0.3768 0.0753
C36 C -0.4311(4) 0.4863(3) -0.0060(3)
H54 H -0.3821 0.4974 -0.0614
C30A C 0.5698(4) -0.0149(3) 0.4907(2)
C27A C 0.6644(4) -0.0779(3) 0.5479(2)
C26A C 0.6098(4) -0.1253(3) 0.6297(2)
C25A C 0.7065(4) -0.1815(3) 0.6800(2)
N1A N 0.8520(3) -0.1951(2) 0.65437(18)
C29A C 0.9048(4) -0.1514(3) 0.5749(2)
C28A C 0.8152(4) -0.0933(3) 0.5216(2)
H47A H 0.8569 -0.0638 0.4666
H48A H 1.0069 -0.1609 0.5551
H45A H 0.6677 -0.2119 0.7353
H46A H 0.5078 -0.1191 0.6505
H49A H 0.6147 0.0061 0.4349
C36A C -0.5689(4) 0.5137(3) 0.0060(3)
C33A C -0.6606(5) 0.5613(3) -0.0582(2)
C32A C -0.6035(5) 0.5951(3) -0.1424(3)
C31A C -0.6991(4) 0.6366(3) -0.1974(2)
N2A N -0.8453(3) 0.6478(2) -0.17457(18)
C35A C -0.8998(4) 0.6158(3) -0.0930(2)
C34A C -0.8125(5) 0.5732(3) -0.0351(2)
H52A H -0.8560 0.5519 0.0209
H53A H -1.0027 0.6232 -0.0753
H50A H -0.6588 0.6580 -0.2539
H51A H -0.5009 0.5897 -0.1615
H54A H -0.6179 0.5026 0.0614
Zn1A Zn 1.00395(5) -0.27870(3) 0.73759(3)
S1A S 1.11500(11) -0.38919(7) 0.64124(6)
S2A S 0.84092(11) -0.42232(7) 0.79838(6)
P1A P 0.96442(12) -0.47965(8) 0.70746(6)
O1A O 0.8662(3) -0.50632(19) 0.65358(16)
O2A O 1.0345(3) -0.59154(19) 0.74096(17)
C1A C 0.7755(4) -0.4262(3) 0.6046(2)
H1A H 0.7749 -0.3628 0.6203
C2A C 0.6205(5) -0.4547(4) 0.6246(3)
H2A H 0.6211 -0.5205 0.6139
H3A H 0.5804 -0.4598 0.6833
C3A C 0.5229(5) -0.3755(4) 0.5715(3)
H4A H 0.5149 -0.3112 0.5860
H5A H 0.4235 -0.3965 0.5826
C4A C 0.5886(5) -0.3624(4) 0.4798(3)
H6A H 0.5268 -0.3101 0.4467
H7A H 0.5896 -0.4254 0.4645
C5A C 0.7430(5) -0.3337(4) 0.4613(3)
H8A H 0.7845 -0.3281 0.4027
H9A H 0.7412 -0.2680 0.4724
C6A C 0.8398(5) -0.4120(3) 0.5144(2)
H10A H 0.9388 -0.3906 0.5035
H11A H 0.8490 -0.4762 0.4995
C7A C 1.1416(5) -0.6104(3) 0.7960(2)
H12A H 1.1419 -0.5487 0.8141
C8A C 1.0936(7) -0.6937(4) 0.8707(3)
H13A H 0.9951 -0.6735 0.8993
H14A H 1.0885 -0.7544 0.8533
C9A C 1.2045(9) -0.7158(5) 0.9291(3)
H15A H 1.1768 -0.7726 0.9761
H16A H 1.2015 -0.6571 0.9508
C10A C 1.3602(9) -0.7407(4) 0.8853(4)
H17A H 1.4294 -0.7496 0.9232
H18A H 1.3661 -0.8041 0.8698
C11A C 1.4040(6) -0.6588(4) 0.8090(4)
H19A H 1.4095 -0.5973 0.8250
H20A H 1.5021 -0.6791 0.7800
C12A C 1.2935(5) -0.6380(4) 0.7515(3)
H21A H 1.2936 -0.6978 0.7319
H22A H 1.3218 -0.5828 0.7033
S3A S 1.17457(11) -0.13902(8) 0.67794(6)
S4A S 0.89047(12) -0.16274(8) 0.83427(6)
P2A P 1.03193(12) -0.07233(8) 0.75570(7)
O3A O 0.9507(3) 0.0236(2) 0.70238(16)
O4A O 1.1131(3) -0.0203(2) 0.80312(18)
C13A C 0.8286(6) 0.0855(3) 0.7439(3)
H23A H 0.8070 0.0536 0.8040
C14A C 0.6957(6) 0.0904(4) 0.7061(3)
H24A H 0.6104 0.1249 0.7359
H25A H 0.6735 0.0219 0.7122
C15A C 0.7189(6) 0.1441(4) 0.6169(3)
H26A H 0.7968 0.1057 0.5859
H27A H 0.6278 0.1494 0.5955
C16A C 0.7621(6) 0.2481(4) 0.6044(3)
H28A H 0.6811 0.2882 0.6320
H29A H 0.7795 0.2814 0.5451
C17A C 0.8994(6) 0.2429(4) 0.6388(3)
H30A H 0.9827 0.2086 0.6075
H31A H 0.9225 0.3112 0.6327
C18A C 0.8786(6) 0.1868(4) 0.7296(3)
H32A H 0.8053 0.2266 0.7618
H33A H 0.9722 0.1788 0.7492
C19A C 1.2039(6) -0.0782(4) 0.8621(3)
H34A H 1.2155 -0.1498 0.8611
C20A C 1.1317(9) -0.0683(8) 0.9437(4)
H35A H 1.1112 0.0033 0.9429
H36A H 1.0369 -0.0965 0.9581
C21A C 1.2240(12) -0.1210(9) 1.0099(5)
H37A H 1.2387 -0.1935 1.0144
H38A H 1.1728 -0.1100 1.0636
C22A C 1.3700(11) -0.0796(6) 0.9866(6)
H39A H 1.4306 -0.1119 1.0289
H40A H 1.3558 -0.0071 0.9820
C23A C 1.4403(9) -0.0987(10) 0.9104(6)
H41A H 1.5384 -0.0750 0.8945
H42A H 1.4524 -0.1712 0.9149
C24A C 1.3446(8) -0.0431(8) 0.8431(4)
H43A H 1.3959 -0.0535 0.7892
H44A H 1.3325 0.0293 0.8391
Zn1A_2 Zn -0.99605(5) 0.72130(3) -0.26241(3)
N2A_2 N 1.1547(3) -0.3522(2) 0.82543(18)
loop_
_geom_bond_atom_site_label_1
_geom_bond_atom_site_label_2
_geom_bond_site_symmetry_1
_geom_bond_site_symmetry_2
Zn1 S1 1_555 1_555
S1 P1 1_555 1_555
S2 Zn1 1_555 1_555
S3 Zn1 1_555 1_555
S4 Zn1 1_555 1_555
P1 S2 1_555 1_555
P2 S3 1_555 1_555
O1 P1 1_555 1_555
O2 P1 1_555 1_555
O3 P2 1_555 1_555
O4 P2 1_555 1_555
N1 Zn1 1_555 1_555
N2 Zn1 1_555 1_555
C1 O1 1_555 1_555
H1 C1 1_555 1_555
C2 C1 1_555 1_555
H2 C2 1_555 1_555
H3 C2 1_555 1_555
C3 C2 1_555 1_555
H4 C3 1_555 1_555
H5 C3 1_555 1_555
C4 C3 1_555 1_555
H6 C4 1_555 1_555
H7 C4 1_555 1_555
C5 C4 1_555 1_555
H8 C5 1_555 1_555
H9 C5 1_555 1_555
C6 C1 1_555 1_555
H10 C6 1_555 1_555
H11 C6 1_555 1_555
C7 O2 1_555 1_555
H12 C7 1_555 1_555
C8 C7 1_555 1_555
H13 C8 1_555 1_555
H14 C8 1_555 1_555
C9 C8 1_555 1_555
H15 C9 1_555 1_555
H16 C9 1_555 1_555
C10 C9 1_555 1_555
H17 C10 1_555 1_555
H18 C10 1_555 1_555
C11 C10 1_555 1_555
H19 C11 1_555 1_555
H20 C11 1_555 1_555
C12 C7 1_555 1_555
H21 C12 1_555 1_555
H22 C12 1_555 1_555
C13 O3 1_555 1_555
H23 C13 1_555 1_555
C14 C13 1_555 1_555
H24 C14 1_555 1_555
H25 C14 1_555 1_555
C15 C14 1_555 1_555
H26 C15 1_555 1_555
H27 C15 1_555 1_555
C16 C15 1_555 1_555
H28 C16 1_555 1_555
H29 C16 1_555 1_555
C17 C16 1_555 1_555
H30 C17 1_555 1_555
H31 C17 1_555 1_555
C18 C13 1_555 1_555
H32 C18 1_555 1_555
H33 C18 1_555 1_555
C19 O4 1_555 1_555
H34 C19 1_555 1_555
C20 C19 1_555 1_555
H35 C20 1_555 1_555
H36 C20 1_555 1_555
C21 C20 1_555 1_555
H37 C21 1_555 1_555
H38 C21 1_555 1_555
C22 C21 1_555 1_555
H39 C22 1_555 1_555
H40 C22 1_555 1_555
C23 C22 1_555 1_555
H41 C23 1_555 1_555
H42 C23 1_555 1_555
C24 C19 1_555 1_555
H43 C24 1_555 1_555
H44 C24 1_555 1_555
C25 N1 1_555 1_555
H45 C25 1_555 1_555
C26 C25 1_555 1_555
H46 C26 1_555 1_555
C27 C26 1_555 1_555
C28 C27 1_555 1_555
H47 C28 1_555 1_555
C29 N1 1_555 1_555
H48 C29 1_555 1_555
C30 C27 1_555 1_555
H49 C30 1_555 1_555
C31 N2 1_555 1_555
H50 C31 1_555 1_555
C32 C31 1_555 1_555
H51 C32 1_555 1_555
C33 C32 1_555 1_555
C34 C33 1_555 1_555
H52 C34 1_555 1_555
C35 N2 1_555 1_555
H53 C35 1_555 1_555
C36 C33 1_555 1_555
H54 C36 1_555 1_555
C30A C30 1_555 1_555
C27A C30A 1_555 1_555
C26A C27A 1_555 1_555
C25A C26A 1_555 1_555
N1A C25A 1_555 1_555
C29A N1A 1_555 1_555
C28A C27A 1_555 1_555
H47A C28A 1_555 1_555
H48A C29A 1_555 1_555
H45A C25A 1_555 1_555
H46A C26A 1_555 1_555
H49A C30A 1_555 1_555
C36A C36 1_555 1_555
C33A C36A 1_555 1_555
C32A C33A 1_555 1_555
C31A C32A 1_555 1_555
N2A C31A 1_555 1_555
C35A N2A 1_555 1_555
C34A C33A 1_555 1_555
H52A C34A 1_555 1_555
H53A C35A 1_555 1_555
H50A C31A 1_555 1_555
H51A C32A 1_555 1_555
H54A C36A 1_555 1_555
Zn1A N1A 1_555 1_555
S1A Zn1A 1_555 1_555
S2A Zn1A 1_555 1_555
P1A S1A 1_555 1_555
O1A P1A 1_555 1_555
O2A P1A 1_555 1_555
C1A O1A 1_555 1_555
H1A C1A 1_555 1_555
C2A C1A 1_555 1_555
H2A C2A 1_555 1_555
H3A C2A 1_555 1_555
C3A C2A 1_555 1_555
H4A C3A 1_555 1_555
H5A C3A 1_555 1_555
C4A C3A 1_555 1_555
H6A C4A 1_555 1_555
H7A C4A 1_555 1_555
C5A C4A 1_555 1_555
H8A C5A 1_555 1_555
H9A C5A 1_555 1_555
C6A C1A 1_555 1_555
H10A C6A 1_555 1_555
H11A C6A 1_555 1_555
C7A O2A 1_555 1_555
H12A C7A 1_555 1_555
C8A C7A 1_555 1_555
H13A C8A 1_555 1_555
H14A C8A 1_555 1_555
C9A C8A 1_555 1_555
H15A C9A 1_555 1_555
H16A C9A 1_555 1_555
C10A C9A 1_555 1_555
H17A C10A 1_555 1_555
H18A C10A 1_555 1_555
C11A C10A 1_555 1_555
H19A C11A 1_555 1_555
H20A C11A 1_555 1_555
C12A C7A 1_555 1_555
H21A C12A 1_555 1_555
H22A C12A 1_555 1_555
S3A Zn1A 1_555 1_555
S4A Zn1A 1_555 1_555
P2A S3A 1_555 1_555
O3A P2A 1_555 1_555
O4A P2A 1_555 1_555
C13A O3A 1_555 1_555
H23A C13A 1_555 1_555
C14A C13A 1_555 1_555
H24A C14A 1_555 1_555
H25A C14A 1_555 1_555
C15A C14A 1_555 1_555
H26A C15A 1_555 1_555
H27A C15A 1_555 1_555
C16A C15A 1_555 1_555
H28A C16A 1_555 1_555
H29A C16A 1_555 1_555
C17A C16A 1_555 1_555
H30A C17A 1_555 1_555
H31A C17A 1_555 1_555
C18A C13A 1_555 1_555
H32A C18A 1_555 1_555
H33A C18A 1_555 1_555
C19A O4A 1_555 1_555
H34A C19A 1_555 1_555
C20A C19A 1_555 1_555
H35A C20A 1_555 1_555
H36A C20A 1_555 1_555
C21A C20A 1_555 1_555
H37A C21A 1_555 1_555
H38A C21A 1_555 1_555
C22A C21A 1_555 1_555
H39A C22A 1_555 1_555
H40A C22A 1_555 1_555
C23A C22A 1_555 1_555
H41A C23A 1_555 1_555
H42A C23A 1_555 1_555
C24A C19A 1_555 1_555
H43A C24A 1_555 1_555
H44A C24A 1_555 1_555
Zn1A_2 N2A 1_555 1_555
N2A_2 Zn1A 1_555 1_555
S4 P2 1_555 1_555
C5 C6 1_555 1_555
C11 C12 1_555 1_555
C17 C18 1_555 1_555
C23 C24 1_555 1_555
C28 C29 1_555 1_555
C34 C35 1_555 1_555
C29A C28A 1_555 1_555
C35A C34A 1_555 1_555
S2A P1A 1_555 1_555
C5A C6A 1_555 1_555
C11A C12A 1_555 1_555
S4A P2A 1_555 1_555
C17A C18A 1_555 1_555
C23A C24A 1_555 1_555

#END
