
#######################################################################
#
#                 Cambridge Crystallographic Data Centre
#                                CCDC 
#
#######################################################################
#
# If this CIF has been generated from an entry in the Cambridge 
# Structural Database, then it will include bibliographic, chemical, 
# crystal, experimental, refinement or atomic coordinate data resulting 
# from the CCDC's data processing and validation procedures.
#
#######################################################################

data_EBOQUJ
_symmetry_cell_setting           monoclinic
_symmetry_space_group_name_H-M   'P 21/c'
_symmetry_Int_Tables_number      14
_space_group_name_Hall           '-P 2ybc'
loop_
_symmetry_equiv_pos_site_id
_symmetry_equiv_pos_as_xyz
1 x,y,z
2 -x,1/2+y,1/2-z
3 -x,-y,-z
4 x,1/2-y,1/2+z
_cell_length_a                   10.399(2)
_cell_length_b                   10.583(2)
_cell_length_c                   23.268(5)
_cell_angle_alpha                90
_cell_angle_beta                 101.25(3)
_cell_angle_gamma                90
_cell_volume                     2511.5
loop_
_atom_site_label
_atom_site_type_symbol
_atom_site_fract_x
_atom_site_fract_y
_atom_site_fract_z
Cu1 Cu 0.43931(7) 0.78172(7) 0.76117(3)
C1 C 0.4042(6) 0.9364(6) 0.8534(3)
C2 C 0.4423(6) 1.0441(6) 0.8945(3)
C3 C 0.5597(7) 1.0389(7) 0.9353(3)
H1 H 0.6129 0.9680 0.9365
C4 C 0.5984(8) 1.1361(8) 0.9738(3)
H2 H 0.6761 1.1300 1.0014
C5 C 0.5219(8) 1.2423(8) 0.9715(3)
H3 H 0.5479 1.3085 0.9975
C6 C 0.4075(8) 1.2513(7) 0.9310(3)
H4 H 0.3578 1.3248 0.9289
C7 C 0.3642(7) 1.1516(6) 0.8926(3)
C8 C 0.2342(7) 1.1587(7) 0.8518(3)
C9 C 0.1377(8) 1.0729(8) 0.8608(4)
H5 H 0.1565 1.0140 0.8909
C10 C 0.0156(8) 1.0750(8) 0.8254(5)
H6 H -0.0470 1.0168 0.8318
C11 C -0.0156(8) 1.1598(8) 0.7816(4)
H7 H -0.0986 1.1594 0.7579
C12 C 0.0772(7) 1.2475(7) 0.7724(4)
H8 H 0.0554 1.3073 0.7428
C13 C 0.2041(6) 1.2470(6) 0.8073(3)
C14 C 0.3005(7) 1.3403(7) 0.7927(3)
C15 C 0.2034(6) 0.9296(6) 0.7063(3)
H9 H 0.2143 0.9706 0.7423
C16 C 0.0945(6) 0.9569(6) 0.6644(3)
H10 H 0.0329 1.0149 0.6722
C17 C 0.0772(6) 0.8974(6) 0.6105(2)
C18 C 0.1731(6) 0.8163(6) 0.6007(3)
H11 H 0.1663 0.7768 0.5645
C19 C 0.2798(6) 0.7938(6) 0.6447(2)
H12 H 0.3447 0.7392 0.6373
C20 C -0.0398(6) 0.9192(6) 0.5646(3)
C21 C -0.1893(6) 0.9093(6) 0.4893(2)
C22 C -0.2707(6) 0.8681(6) 0.4336(3)
C23 C -0.2347(6) 0.7688(7) 0.4014(3)
H13 H -0.1558 0.7267 0.4142
C24 C -0.3170(6) 0.7332(7) 0.3505(3)
H14 H -0.2923 0.6657 0.3294
C25 C -0.4626(7) 0.8880(6) 0.3597(3)
H15 H -0.5401 0.9310 0.3451
C26 C -0.3868(6) 0.9289(6) 0.4117(3)
H16 H -0.4139 0.9968 0.4317
N1 N 0.2943(5) 0.8466(4) 0.69749(19)
N2 N -0.0762(5) 0.8519(5) 0.5162(2)
N3 N -0.1277(5) 1.0106(5) 0.5667(2)
N4 N -0.2239(5) 1.0055(5) 0.5187(2)
N5 N -0.4309(5) 0.7909(5) 0.3297(2)
O1 O 0.4456(4) 0.9414(4) 0.80502(17)
O2 O 0.3429(6) 0.8465(5) 0.8671(3)
O3 O 0.4140(5) 1.3031(5) 0.7927(2)
O4 O 0.2604(5) 1.4503(5) 0.7800(3)
O5 O 0.3922(5) 0.6089(4) 0.7302(2)
H17 H -0.130(9) 1.078(9) 0.594(4)
H18 H 0.361(11) 0.566(10) 0.746(5)
H19 H 0.454(10) 0.574(10) 0.721(4)
Cu1C Cu -0.56069(7) 0.71828(7) 0.26117(3)
Cu1A Cu 0.56069(7) 1.28172(7) 0.73883(3)
N5C N 0.5691(5) 0.7091(5) 0.8297(2)
O3A O 0.5860(5) 0.8031(5) 0.7073(2)
O6 O 0.0428(11) 0.6321(11) 0.4764(5)
O7 O 0.8894(9) 0.2426(9) 0.6216(4)
O8? O 0.0605(14) 0.5226(16) 0.5066(7)
O9? O 0.8241(13) 0.1512(13) 0.6552(6)
loop_
_geom_bond_atom_site_label_1
_geom_bond_atom_site_label_2
_geom_bond_site_symmetry_1
_geom_bond_site_symmetry_2
Cu1 N1 1_555 1_555
C1 C2 1_555 1_555
C2 C3 1_555 1_555
C3 H1 1_555 1_555
C4 C3 1_555 1_555
H2 C4 1_555 1_555
C5 C4 1_555 1_555
H3 C5 1_555 1_555
C6 C5 1_555 1_555
H4 C6 1_555 1_555
C7 C2 1_555 1_555
C8 C7 1_555 1_555
C9 C8 1_555 1_555
H5 C9 1_555 1_555
C10 C9 1_555 1_555
H6 C10 1_555 1_555
C11 C10 1_555 1_555
H7 C11 1_555 1_555
C12 C11 1_555 1_555
H8 C12 1_555 1_555
C13 C8 1_555 1_555
C14 C13 1_555 1_555
C15 H9 1_555 1_555
C16 C15 1_555 1_555
H10 C16 1_555 1_555
C17 C16 1_555 1_555
C18 C17 1_555 1_555
H11 C18 1_555 1_555
C19 C18 1_555 1_555
H12 C19 1_555 1_555
C20 C17 1_555 1_555
C21 C22 1_555 1_555
C22 C23 1_555 1_555
C23 H13 1_555 1_555
C24 C23 1_555 1_555
H14 C24 1_555 1_555
C25 H15 1_555 1_555
C26 C22 1_555 1_555
H16 C26 1_555 1_555
N1 C15 1_555 1_555
N2 C20 1_555 1_555
N3 C20 1_555 1_555
N4 C21 1_555 1_555
N5 C24 1_555 1_555
O1 Cu1 1_555 1_555
O2 C1 1_555 1_555
O3 C14 1_555 1_555
O4 C14 1_555 1_555
O5 Cu1 1_555 1_555
H17 N3 1_555 1_555
H18 O5 1_555 1_555
H19 O5 1_555 1_555
Cu1C N5 1_555 1_555
Cu1A O3 1_555 1_555
N5C Cu1 1_555 1_555
O3A Cu1 1_555 1_555
C1 O1 1_555 1_555
C6 C7 1_555 1_555
C12 C13 1_555 1_555
C19 N1 1_555 1_555
C21 N2 1_555 1_555
C25 C26 1_555 1_555
C25 N5 1_555 1_555
N3 N4 1_555 1_555

#END
