
#######################################################################
#
#                 Cambridge Crystallographic Data Centre
#                                CCDC 
#
#######################################################################
#
# If this CIF has been generated from an entry in the Cambridge 
# Structural Database, then it will include bibliographic, chemical, 
# crystal, experimental, refinement or atomic coordinate data resulting 
# from the CCDC's data processing and validation procedures.
#
#######################################################################

data_EBOQET
_symmetry_cell_setting           monoclinic
_symmetry_space_group_name_H-M   'P 21/n'
_symmetry_Int_Tables_number      14
_space_group_name_Hall           '-P 2yn'
loop_
_symmetry_equiv_pos_site_id
_symmetry_equiv_pos_as_xyz
1 x,y,z
2 1/2-x,1/2+y,1/2-z
3 -x,-y,-z
4 1/2+x,1/2-y,1/2+z
_cell_length_a                   9.4560(19)
_cell_length_b                   20.106(4)
_cell_length_c                   12.865(3)
_cell_angle_alpha                90
_cell_angle_beta                 106.81(3)
_cell_angle_gamma                90
_cell_volume                     2341.41
loop_
_atom_site_label
_atom_site_type_symbol
_atom_site_fract_x
_atom_site_fract_y
_atom_site_fract_z
Co1 Co 0.25227(6) -0.00882(3) 0.02123(5)
C1 C 0.0211(5) -0.06275(18) 0.1199(3)
C2 C -0.0171(4) -0.0791(2) 0.2216(3)
C3 C 0.0709(5) -0.0546(2) 0.3192(4)
H1 H 0.1582 -0.0327 0.3209
C4 C 0.0327(6) -0.0617(3) 0.4139(4)
H2 H 0.0937 -0.0449 0.4787
C5 C -0.0964(6) -0.0940(3) 0.4120(4)
H3 H -0.1258 -0.0971 0.4749
C6 C -0.1820(5) -0.1217(2) 0.3162(4)
H4 H -0.2670 -0.1450 0.3161
C7 C -0.1445(4) -0.1158(2) 0.2202(4)
C8 C -0.2295(4) -0.1559(2) 0.1252(4)
C9 C -0.1684(5) -0.2156(2) 0.1031(4)
H5 H -0.0725 -0.2266 0.1429
C10 C -0.2464(6) -0.2586(2) 0.0244(5)
H6 H -0.2025 -0.2977 0.0105
C11 C -0.3895(6) -0.2439(2) -0.0339(4)
H7 H -0.4429 -0.2729 -0.0872
C12 C -0.4530(5) -0.1856(2) -0.0125(4)
H8 H -0.5504 -0.1759 -0.0507
C13 C -0.3741(4) -0.14146(19) 0.0647(4)
C14 C -0.4452(5) -0.0763(2) 0.0773(3)
C15 C 0.1724(5) -0.0834(2) -0.2054(4)
H9 H 0.1975 -0.0434 -0.2318
C16 C 0.1435(6) -0.1377(2) -0.2733(4)
H10 H 0.1456 -0.1336 -0.3449
C17 C 0.1111(5) -0.1983(2) -0.2349(4)
H11 H 0.0925 -0.2357 -0.2795
C18 C 0.1072(4) -0.20199(19) -0.1290(3)
C19 C 0.1326(4) -0.1444(2) -0.0681(3)
H12 H 0.1260 -0.1466 0.0026
C20 C 0.0808(5) -0.2640(2) -0.0769(3)
C21 C 0.1125(5) -0.3759(2) 0.1401(4)
C22 C 0.0429(5) -0.4355(2) 0.1482(4)
H13 H -0.0230 -0.4542 0.0870
C23 C 0.0714(5) -0.4668(2) 0.2464(4)
H14 H 0.0233 -0.5067 0.2496
C24 C 0.2306(5) -0.3863(2) 0.3298(4)
H15 H 0.2962 -0.3688 0.3921
C25 C 0.2079(5) -0.3516(2) 0.2337(4)
H16 H 0.2574 -0.3118 0.2327
C26 C 0.0830(5) -0.3400(2) 0.0368(3)
N1 N 0.1660(4) -0.08578(16) -0.1034(3)
N2 N -0.0052(4) -0.31381(17) -0.1260(3)
N3 N -0.0061(4) -0.36364(17) -0.0549(3)
N4 N 0.1395(4) -0.27826(16) 0.0276(3)
N5 N 0.1639(4) -0.44351(17) 0.3380(3)
O1 O -0.0815(3) -0.05661(13) 0.0330(2)
O2 O 0.1562(3) -0.05500(14) 0.1280(2)
O3 O -0.3717(3) -0.02382(13) 0.0821(2)
O4 O -0.5771(3) -0.07870(13) 0.0812(2)
H17 H -0.0614 -0.3149 -0.1966
Co1B Co -0.25227(6) 0.00882(3) -0.02123(5)
Co1_2 Co -0.74773(6) -0.00882(3) 0.02123(5)
Co1A Co 0.24773(6) -0.50882(3) 0.47877(5)
N5A N 0.3361(4) 0.05649(17) 0.1620(3)
O1B O 0.0815(3) 0.05661(13) -0.0330(2)
O3B O 0.3717(3) 0.02382(13) -0.0821(2)
O4_2 O 0.4229(3) -0.07870(13) 0.0812(2)
O5 O 0.8434(4) -0.30760(17) -0.3302(3)
H18 H 0.7856 -0.2817 -0.3767
H19 H 0.8206 -0.3483 -0.3485
loop_
_geom_bond_atom_site_label_1
_geom_bond_atom_site_label_2
_geom_bond_site_symmetry_1
_geom_bond_site_symmetry_2
Co1 N1 1_555 1_555
C1 C2 1_555 1_555
C2 C3 1_555 1_555
C3 H1 1_555 1_555
C4 C3 1_555 1_555
H2 C4 1_555 1_555
C5 C4 1_555 1_555
H3 C5 1_555 1_555
C6 C5 1_555 1_555
H4 C6 1_555 1_555
C7 C2 1_555 1_555
C8 C7 1_555 1_555
C9 C8 1_555 1_555
H5 C9 1_555 1_555
C10 C9 1_555 1_555
H6 C10 1_555 1_555
C11 C10 1_555 1_555
H7 C11 1_555 1_555
C12 C11 1_555 1_555
H8 C12 1_555 1_555
C13 C8 1_555 1_555
C14 C13 1_555 1_555
C15 H9 1_555 1_555
C16 C15 1_555 1_555
H10 C16 1_555 1_555
C17 C16 1_555 1_555
H11 C17 1_555 1_555
C18 C17 1_555 1_555
C19 C18 1_555 1_555
H12 C19 1_555 1_555
C20 C18 1_555 1_555
C21 C22 1_555 1_555
C22 H13 1_555 1_555
C23 C22 1_555 1_555
H14 C23 1_555 1_555
C24 H15 1_555 1_555
C25 C21 1_555 1_555
H16 C25 1_555 1_555
C26 C21 1_555 1_555
N1 C15 1_555 1_555
N2 C20 1_555 1_555
N3 C26 1_555 1_555
N4 C20 1_555 1_555
N5 C23 1_555 1_555
O1 C1 1_555 1_555
O2 Co1 1_555 1_555
O3 C14 1_555 1_555
O4 C14 1_555 1_555
O5 H18 1_555 1_555
H17 N2 1_555 1_555
H19 O5 1_555 1_555
Co1B O1 1_555 1_555
Co1_2 O4 1_555 1_555
Co1A N5 1_555 1_555
N5A Co1 1_555 1_555
O1B Co1 1_555 1_555
O3B Co1 1_555 1_555
O4_2 Co1 1_555 1_555
C1 O2 1_555 1_555
C6 C7 1_555 1_555
C12 C13 1_555 1_555
C19 N1 1_555 1_555
C24 C25 1_555 1_555
C24 N5 1_555 1_555
C26 N4 1_555 1_555
N2 N3 1_555 1_555
O3 Co1B 1_555 1_555

#END
