
#######################################################################
#
#                 Cambridge Crystallographic Data Centre
#                                CCDC 
#
#######################################################################
#
# If this CIF has been generated from an entry in the Cambridge 
# Structural Database, then it will include bibliographic, chemical, 
# crystal, experimental, refinement or atomic coordinate data resulting 
# from the CCDC's data processing and validation procedures.
#
#######################################################################

data_EBOVIA
_symmetry_cell_setting           triclinic
_symmetry_space_group_name_H-M   'P -1'
_symmetry_Int_Tables_number      2
_space_group_name_Hall           '-P 1'
loop_
_symmetry_equiv_pos_site_id
_symmetry_equiv_pos_as_xyz
1 x,y,z
2 -x,-y,-z
_cell_length_a                   15.9459(5)
_cell_length_b                   22.0822(9)
_cell_length_c                   12.7695(5)
_cell_angle_alpha                90.150(2)
_cell_angle_beta                 90.138(2)
_cell_angle_gamma                69.2587(7)
_cell_volume                     4204.97
loop_
_atom_site_label
_atom_site_type_symbol
_atom_site_fract_x
_atom_site_fract_y
_atom_site_fract_z
O17 O 0.0710(5) 0.4630(4) 0.9676(6)
C73 C -0.0075(8) 0.4423(10) 0.9846(8)
C74 C 0.0614(6) 0.5346(4) 0.9492(6)
C74A C -0.0614(6) 0.4654(4) 1.0508(6)
O17A O -0.0710(5) 0.5370(4) 1.0324(6)
C73A C 0.0075(8) 0.5577(10) 1.0154(8)
O18 O 0.4566(6) 0.0551(5) 0.4719(7)
C75 C 0.4663(9) -0.0041(4) 0.4156(8)
C76 C 0.5331(7) 0.0602(5) 0.5393(7)
C76A C 0.4669(7) -0.0602(5) 0.4607(7)
O18A O 0.5434(6) -0.0551(5) 0.5281(7)
C75A C 0.5337(9) 0.0041(4) 0.5844(8)
O19 O 0.5710(5) 0.4624(4) 0.5317(7)
C77 C 0.4951(8) 0.4374(10) 0.5155(8)
C78 C 0.5620(6) 0.5346(4) 0.5504(7)
C78A C 0.4380(6) 0.4654(4) 0.4496(7)
O19A O 0.4290(5) 0.5376(4) 0.4683(7)
C77A C 0.5049(8) 0.5626(10) 0.4845(8)
O20 O 0.9572(6) 0.0533(5) 0.0274(7)
C79 C 0.9653(9) -0.0044(4) 0.0853(9)
C80 C 1.0336(7) 0.0597(4) -0.0383(8)
C80A C 0.9664(7) -0.0597(4) 0.0383(8)
O20A O 1.0428(6) -0.0533(5) -0.0274(7)
C79A C 1.0347(9) 0.0044(4) -0.0853(9)
Ru1 Ru 0.21020(2) 0.22851(2) 0.27882(3)
Ru2 Ru 0.27663(2) 0.28596(2) 0.18075(3)
Ru3 Ru -0.28983(2) 0.22848(2) 0.22118(3)
Ru4 Ru -0.22336(2) 0.28598(2) 0.31927(3)
Cl1 Cl 0.2284(1) -0.08253(6) 0.2015(1)
Cl2 Cl 0.23818(9) 0.60164(6) 0.2258(1)
Cl3 Cl -0.2718(1) -0.08241(7) 0.2986(1)
Cl4 Cl -0.26182(9) 0.60180(6) 0.2743(1)
Na1 Na 0.4956(1) 0.24784(8) 0.0630(1)
Na2 Na -0.0043(1) 0.24773(8) 0.4369(1)
O1 O 0.1331(2) 0.1803(1) 0.3720(2)
O2 O 0.3602(2) 0.3301(1) 0.0905(3)
O3 O 0.1677(2) 0.3679(1) 0.2025(2)
O4 O 0.1055(2) 0.3135(2) 0.3075(2)
O5 O 0.3853(2) 0.2023(1) 0.1580(2)
O6 O 0.3172(2) 0.1460(1) 0.2501(2)
O7 O -0.3671(2) 0.1802(1) 0.1280(2)
O8 O -0.1395(2) 0.3301(1) 0.4095(2)
O9 O -0.3320(2) 0.3676(1) 0.2977(2)
O10 O -0.3943(2) 0.3132(2) 0.1923(2)
O11 O -0.1150(2) 0.2025(1) 0.3421(2)
O12 O -0.1832(2) 0.1462(1) 0.2498(2)
O13 O 0.4716(2) 0.1815(2) -0.0721(3)
O14 O 0.5417(2) 0.3025(2) -0.0762(3)
O15 O -0.0282(2) 0.1812(2) 0.5726(3)
O16 O 0.0419(2) 0.3026(2) 0.5762(3)
N1 N 0.2174(2) 0.2663(2) 0.0463(3)
N2 N 0.1510(3) 0.2092(2) 0.1478(3)
N3 N 0.2774(2) 0.2417(2) 0.4113(3)
N4 N 0.3318(3) 0.3078(2) 0.3137(3)
N5 N -0.2827(3) 0.2665(2) 0.4537(3)
N6 N -0.3493(3) 0.2091(2) 0.3525(3)
N7 N -0.2223(2) 0.2418(2) 0.0885(3)
N8 N -0.1686(3) 0.3080(2) 0.1871(3)
C1 C 0.2303(3) 0.2920(2) -0.0477(4)
C2 C 0.1941(4) 0.2807(3) -0.1396(4)
C3 C 0.1419(4) 0.2414(3) -0.1373(4)
C4 C 0.1263(3) 0.2165(2) -0.0447(4)
C5 C 0.1631(3) 0.2296(2) 0.0512(4)
C6 C 0.0948(4) 0.1692(3) 0.1607(4)
C7 C 0.1385(3) 0.1112(2) 0.2285(4)
C8 C 0.1624(4) 0.0486(2) 0.1874(4)
C9 C 0.2008(3) -0.0042(2) 0.2544(5)
C10 C 0.2160(3) 0.0037(2) 0.3582(5)
C11 C 0.1931(3) 0.0660(2) 0.3991(4)
C12 C 0.1539(3) 0.1205(2) 0.3350(4)
C13 C 0.2742(3) 0.2108(2) 0.5024(4)
C14 C 0.3219(4) 0.2146(2) 0.5902(4)
C15 C 0.3781(4) 0.2504(2) 0.5850(4)
C16 C 0.3839(3) 0.2822(2) 0.4941(4)
C17 C 0.3313(3) 0.2787(2) 0.4048(3)
C18 C 0.3789(3) 0.3546(2) 0.3053(4)
C19 C 0.3380(3) 0.4075(2) 0.2278(4)
C20 C 0.3070(3) 0.4718(2) 0.2587(4)
C21 C 0.2755(3) 0.5206(2) 0.1846(4)
C22 C 0.2749(3) 0.5069(2) 0.0792(4)
C23 C 0.3046(3) 0.4422(2) 0.0470(4)
C24 C 0.3352(3) 0.3916(2) 0.1204(4)
C25 C 0.1091(3) 0.3654(2) 0.2675(4)
C26 C 0.0399(3) 0.4288(2) 0.3007(4)
C27 C 0.3806(3) 0.1489(2) 0.1925(4)
C28 C 0.4528(3) 0.0865(2) 0.1627(4)
C29 C -0.2702(3) 0.2918(2) 0.5480(4)
C30 C -0.3063(4) 0.2812(3) 0.6395(4)
C31 C -0.3583(4) 0.2413(3) 0.6365(4)
C32 C -0.3733(3) 0.2156(2) 0.5446(4)
C33 C -0.3359(3) 0.2293(2) 0.4479(3)
C34 C -0.4049(3) 0.1690(3) 0.3397(4)
C35 C -0.3611(3) 0.1107(2) 0.2716(4)
C36 C -0.3455(3) 0.1204(2) 0.1645(4)
C37 C -0.3071(3) 0.0664(2) 0.1015(4)
C38 C -0.2846(3) 0.0039(2) 0.1424(5)
C39 C -0.2998(3) -0.0034(2) 0.2468(4)
C40 C -0.3375(4) 0.0483(3) 0.3134(4)
C41 C -0.2260(3) 0.2110(2) -0.0022(4)
C42 C -0.1785(4) 0.2146(2) -0.0897(4)
C43 C -0.1219(4) 0.2505(2) -0.0849(4)
C44 C -0.1160(3) 0.2821(2) 0.0061(4)
C45 C -0.1679(3) 0.2786(2) 0.0950(4)
C46 C -0.1206(3) 0.3541(2) 0.1946(4)
C47 C -0.1626(3) 0.4077(2) 0.2729(4)
C48 C -0.1932(3) 0.4717(2) 0.2417(4)
C49 C -0.2244(3) 0.5207(2) 0.3160(4)
C50 C -0.2249(4) 0.5067(2) 0.4214(4)
C51 C -0.1962(3) 0.4425(2) 0.4530(4)
C52 C -0.1646(3) 0.3921(2) 0.3803(4)
C53 C -0.3912(3) 0.3657(2) 0.2332(4)
C54 C -0.4595(3) 0.4291(2) 0.1992(4)
C55 C -0.1190(3) 0.1490(2) 0.3070(4)
C56 C -0.0474(3) 0.0871(2) 0.3379(4)
C57 C 0.4065(3) 0.1532(3) -0.1020(4)
C58 C 0.4597(4) 0.0835(3) -0.1344(5)
C59 C 0.5540(4) 0.0809(3) -0.1443(6)
C60 C 0.5478(4) 0.1514(3) -0.1370(5)
C61 C 0.4706(3) 0.3312(2) -0.1498(4)
C62 C 0.4814(4) 0.3933(3) -0.1885(4)
C63 C 0.5346(4) 0.4095(2) -0.1019(5)
C64 C 0.5953(3) 0.3431(2) -0.0681(4)
C65 C -0.0933(3) 0.1529(3) 0.6018(4)
C66 C -0.0406(4) 0.0837(3) 0.6338(6)
C67 C 0.0540(4) 0.0807(3) 0.6442(6)
C68 C 0.0476(4) 0.1509(3) 0.6360(5)
C69 C -0.0297(3) 0.3318(2) 0.6498(4)
C70 C -0.0185(4) 0.3932(3) 0.6882(4)
C71 C 0.0345(3) 0.4092(2) 0.6015(5)
C72 C 0.0953(3) 0.3431(2) 0.5678(4)
O7_2 O 0.6329(2) 0.1802(1) 0.1280(2)
Na1_2 Na -0.5044(1) 0.24784(8) 0.0630(1)
O10_2 O 0.6057(2) 0.3132(2) 0.1923(2)
loop_
_geom_bond_atom_site_label_1
_geom_bond_atom_site_label_2
_geom_bond_site_symmetry_1
_geom_bond_site_symmetry_2
Ru1 Ru2 1_555 1_555
Ru2 O2 1_555 1_555
Ru3 Ru4 1_555 1_555
Ru4 O8 1_555 1_555
Cl1 C9 1_555 1_555
Cl2 C21 1_555 1_555
Cl3 C39 1_555 1_555
Cl4 C49 1_555 1_555
Na1 O2 1_555 1_555
Na2 O1 1_555 1_555
O1 Ru1 1_555 1_555
O2 C24 1_555 1_555
O3 Ru2 1_555 1_555
O4 Ru1 1_555 1_555
O5 Ru2 1_555 1_555
O6 Ru1 1_555 1_555
O7 Ru3 1_555 1_555
O8 Na2 1_555 1_555
O9 Ru4 1_555 1_555
O10 Ru3 1_555 1_555
O11 Ru4 1_555 1_555
O12 Ru3 1_555 1_555
O13 Na1 1_555 1_555
O14 Na1 1_555 1_555
O15 Na2 1_555 1_555
O16 Na2 1_555 1_555
O17 C73 1_555 1_555
O18 C75 1_555 1_555
O19 C77 1_555 1_555
O20 C79 1_555 1_555
N1 Ru2 1_555 1_555
N2 Ru1 1_555 1_555
N3 Ru1 1_555 1_555
N4 Ru2 1_555 1_555
N5 Ru4 1_555 1_555
N6 Ru3 1_555 1_555
N7 Ru3 1_555 1_555
N8 Ru4 1_555 1_555
C1 N1 1_555 1_555
C2 C1 1_555 1_555
C3 C2 1_555 1_555
C4 C3 1_555 1_555
C5 N1 1_555 1_555
C6 N2 1_555 1_555
C7 C6 1_555 1_555
C8 C7 1_555 1_555
C9 C8 1_555 1_555
C10 C9 1_555 1_555
C11 C10 1_555 1_555
C12 O1 1_555 1_555
C13 N3 1_555 1_555
C14 C13 1_555 1_555
C15 C14 1_555 1_555
C16 C15 1_555 1_555
C17 N3 1_555 1_555
C18 N4 1_555 1_555
C19 C18 1_555 1_555
C20 C19 1_555 1_555
C21 C20 1_555 1_555
C22 C21 1_555 1_555
C23 C22 1_555 1_555
C24 C19 1_555 1_555
C25 O3 1_555 1_555
C26 C25 1_555 1_555
C27 O5 1_555 1_555
C28 C27 1_555 1_555
C29 N5 1_555 1_555
C30 C29 1_555 1_555
C31 C30 1_555 1_555
C32 C31 1_555 1_555
C33 N5 1_555 1_555
C34 N6 1_555 1_555
C35 C34 1_555 1_555
C36 O7 1_555 1_555
C37 C36 1_555 1_555
C38 C37 1_555 1_555
C39 C38 1_555 1_555
C40 C35 1_555 1_555
C41 N7 1_555 1_555
C42 C41 1_555 1_555
C43 C42 1_555 1_555
C44 C43 1_555 1_555
C45 N7 1_555 1_555
C46 N8 1_555 1_555
C47 C46 1_555 1_555
C48 C47 1_555 1_555
C49 C48 1_555 1_555
C50 C49 1_555 1_555
C51 C50 1_555 1_555
C52 O8 1_555 1_555
C53 O9 1_555 1_555
C54 C53 1_555 1_555
C55 O11 1_555 1_555
C56 C55 1_555 1_555
C57 O13 1_555 1_555
C58 C57 1_555 1_555
C59 C58 1_555 1_555
C60 O13 1_555 1_555
C61 O14 1_555 1_555
C62 C61 1_555 1_555
C63 C62 1_555 1_555
C64 O14 1_555 1_555
C65 O15 1_555 1_555
C66 C65 1_555 1_555
C67 C66 1_555 1_555
C68 O15 1_555 1_555
C69 O16 1_555 1_555
C70 C69 1_555 1_555
C71 C70 1_555 1_555
C72 O16 1_555 1_555
C73 C74A 1_555 1_555
C74 O17 1_555 1_555
C75 C76A 1_555 1_555
C76 O18 1_555 1_555
C77 C78A 1_555 1_555
C78 O19 1_555 1_555
C79 C80A 1_555 1_555
C80 O20 1_555 1_555
O7_2 Na1 1_555 1_555
Na1_2 O7 1_555 1_555
O10_2 Na1 1_555 1_555
C74A O17A 1_555 1_555
O17A C73A 1_555 1_555
C73A C74 1_555 1_555
C76A O18A 1_555 1_555
O18A C75A 1_555 1_555
C75A C76 1_555 1_555
C78A O19A 1_555 1_555
O19A C77A 1_555 1_555
C77A C78 1_555 1_555
C80A O20A 1_555 1_555
O20A C79A 1_555 1_555
C79A C80 1_555 1_555
Na1 O5 1_555 1_555
Na2 O4 1_555 1_555
Na2 O11 1_555 1_555
O4 C25 1_555 1_555
O6 C27 1_555 1_555
O10 Na1_2 1_555 1_555
O10 C53 1_555 1_555
O12 C55 1_555 1_555
N2 C5 1_555 1_555
N4 C17 1_555 1_555
N6 C33 1_555 1_555
N8 C45 1_555 1_555
C4 C5 1_555 1_555
C7 C12 1_555 1_555
C11 C12 1_555 1_555
C16 C17 1_555 1_555
C23 C24 1_555 1_555
C32 C33 1_555 1_555
C35 C36 1_555 1_555
C39 C40 1_555 1_555
C44 C45 1_555 1_555
C47 C52 1_555 1_555
C51 C52 1_555 1_555
C59 C60 1_555 1_555
C63 C64 1_555 1_555
C67 C68 1_555 1_555
C71 C72 1_555 1_555

#END
