
#######################################################################
#
#                 Cambridge Crystallographic Data Centre
#                                CCDC 
#
#######################################################################
#
# If this CIF has been generated from an entry in the Cambridge 
# Structural Database, then it will include bibliographic, chemical, 
# crystal, experimental, refinement or atomic coordinate data resulting 
# from the CCDC's data processing and validation procedures.
#
#######################################################################

data_EBOYAV
_symmetry_cell_setting           monoclinic
_symmetry_space_group_name_H-M   'C 2/c'
_symmetry_Int_Tables_number      15
_space_group_name_Hall           '-C 2yn'
loop_
_symmetry_equiv_pos_site_id
_symmetry_equiv_pos_as_xyz
1 x,y,z
2 1/2+x,1/2+y,z
3 -x,y,1/2-z
4 1/2-x,1/2+y,1/2-z
5 -x,-y,-z
6 1/2-x,1/2-y,-z
7 x,-y,1/2+z
8 1/2+x,1/2-y,1/2+z
_cell_length_a                   16.927(5)
_cell_length_b                   13.026(4)
_cell_length_c                   7.304(2)
_cell_angle_alpha                90
_cell_angle_beta                 109.179(6)
_cell_angle_gamma                90
_cell_volume                     1521.08
loop_
_atom_site_label
_atom_site_type_symbol
_atom_site_fract_x
_atom_site_fract_y
_atom_site_fract_z
Ni1 Ni -0.2500 -0.2500 0.5000
O1 O -0.65324(17) -0.15627(17) 0.1305(4)
O2 O -0.71604(17) -0.02277(19) 0.2150(4)
C1 C -0.6539(3) -0.0649(3) 0.1886(6)
C2 C -0.5747(2) -0.0056(3) 0.2249(5)
C3 C -0.5000 -0.0580(4) 0.2500
H1 H -0.5000 -0.1294 0.2500
C4 C -0.5732(3) 0.1017(3) 0.2311(6)
H2 H -0.6216 0.1380 0.2225
C5 C -0.5000 0.1537(4) 0.2500
H3 H -0.5000 0.2251 0.2500
O3 O -0.28633(17) -0.35016(19) 0.2710(4)
H4 H -0.2682 -0.3990 0.2539
C6 C -0.3363(4) -0.3285(4) 0.0800(7)
H5 H -0.3072 -0.3363 -0.0212
H6 H -0.3609 -0.2736 0.0603
H7 H -0.3786 -0.3699 0.0232
O4 O -0.17439(17) -0.17027(19) 0.3743(4)
H8 H -0.2038 -0.1155 0.3345
C7 C -0.0908(3) -0.1403(3) 0.4865(7)
H9 H -0.0671 -0.1027 0.3954
H10 H -0.0618 -0.2048 0.5275
H11 H -0.0896 -0.0818 0.5852
C2B C -0.4253(2) -0.0056(3) 0.2751(5)
C1B C -0.3461(3) -0.0649(3) 0.3114(6)
O1B O -0.34676(17) -0.15627(17) 0.3695(4)
Ni1G Ni -0.7500 -0.2500 0.0000
O1G O -0.15324(17) -0.34373(17) 0.6305(4)
O3E O -0.21367(17) -0.14984(19) 0.7290(4)
H4E H -0.2318 -0.1010 0.7461
C6E C -0.1637(4) -0.1715(4) 0.9200(7)
H5E H -0.1928 -0.1637 1.0212
H6E H -0.1391 -0.2264 0.9397
H7E H -0.1214 -0.1301 0.9768
O4E O -0.32561(17) -0.32973(19) 0.6257(4)
H8E H -0.2962 -0.3845 0.6655
C7E C -0.4092(3) -0.3597(3) 0.5135(7)
H9E H -0.4329 -0.3973 0.6046
H10E H -0.4382 -0.2952 0.4725
H11E H -0.4104 -0.4182 0.4148
O2B O -0.28396(17) -0.02277(19) 0.2850(4)
C4B C -0.4268(3) 0.1017(3) 0.2689(6)
H2B H -0.3784 0.1380 0.2775
loop_
_geom_bond_atom_site_label_1
_geom_bond_atom_site_label_2
_geom_bond_site_symmetry_1
_geom_bond_site_symmetry_2
Ni1 O3 1_555 1_555
O1 C1 1_555 1_555
O2 C1 1_555 1_555
C1 C2 1_555 1_555
C2 C3 1_555 1_555
C3 H1 1_555 1_555
C4 C2 1_555 1_555
H2 C4 1_555 1_555
C5 C4 1_555 1_555
H3 C5 1_555 1_555
O3 H4 1_555 1_555
C6 O3 1_555 1_555
H5 C6 1_555 1_555
H6 C6 1_555 1_555
H7 C6 1_555 1_555
O4 Ni1 1_555 1_555
H8 O4 1_555 1_555
C7 O4 1_555 1_555
H9 C7 1_555 1_555
H10 C7 1_555 1_555
H11 C7 1_555 1_555
C2B C3 1_555 1_555
C1B C2B 1_555 1_555
O1B Ni1 1_555 1_555
Ni1G O1 1_555 1_555
O1G Ni1 1_555 1_555
O3E Ni1 1_555 1_555
H4E O3E 1_555 1_555
C6E O3E 1_555 1_555
H5E C6E 1_555 1_555
H6E C6E 1_555 1_555
H7E C6E 1_555 1_555
O4E Ni1 1_555 1_555
H8E O4E 1_555 1_555
C7E O4E 1_555 1_555
H9E C7E 1_555 1_555
H10E C7E 1_555 1_555
H11E C7E 1_555 1_555
O2B C1B 1_555 1_555
C4B C5 1_555 1_555
H2B C4B 1_555 1_555
C2B C4B 1_555 1_555
C1B O1B 1_555 1_555

#END
