
#######################################################################
#
#                 Cambridge Crystallographic Data Centre
#                                CCDC 
#
#######################################################################
#
# If this CIF has been generated from an entry in the Cambridge 
# Structural Database, then it will include bibliographic, chemical, 
# crystal, experimental, refinement or atomic coordinate data resulting 
# from the CCDC's data processing and validation procedures.
#
#######################################################################

data_EBUDOW
_symmetry_cell_setting           monoclinic
_symmetry_space_group_name_H-M   'P 21/n'
_symmetry_Int_Tables_number      14
_space_group_name_Hall           '-P 2yn'
loop_
_symmetry_equiv_pos_site_id
_symmetry_equiv_pos_as_xyz
1 x,y,z
2 1/2-x,1/2+y,1/2-z
3 -x,-y,-z
4 1/2+x,1/2-y,1/2+z
_cell_length_a                   10.4133(9)
_cell_length_b                   11.8185(11)
_cell_length_c                   14.8969(13)
_cell_angle_alpha                90
_cell_angle_beta                 90.08
_cell_angle_gamma                90
_cell_volume                     1833.35
loop_
_atom_site_label
_atom_site_type_symbol
_atom_site_fract_x
_atom_site_fract_y
_atom_site_fract_z
Zn1 Zn 0.28272(3) -0.02665(3) 0.16024(2)
N1 N 0.6576(2) 0.50340(19) -0.24022(15)
N2 N 0.3369(2) 0.13280(19) 0.12281(15)
N3 N 0.3819(2) 0.40948(19) -0.05034(15)
H1 H 0.3165 0.4538 -0.0493
O1 O 0.55929(19) -0.27822(18) 0.37098(14)
O2 O 0.43641(19) -0.11612(18) 0.16804(13)
O3 O 0.6813(2) -0.44427(19) 0.55199(15)
C1 C 0.3763(2) 0.3192(2) 0.00860(17)
C2 C 0.4466(3) 0.5159(2) -0.17852(19)
H2 H 0.3651 0.5477 -0.1815
C3 C 0.4767(2) 0.4390(2) -0.11043(18)
C4 C 0.6031(3) 0.4011(2) -0.10750(19)
H3 H 0.6298 0.3532 -0.0616
C5 C 0.6223(2) -0.1831(2) 0.23941(18)
C6 C 0.5007(3) -0.1139(2) 0.24105(19)
C7 C 0.2695(3) 0.3132(2) 0.06634(19)
H4 H 0.2097 0.3716 0.0677
C8 C 0.4632(3) 0.2301(2) 0.01292(19)
H5 H 0.5369 0.2310 -0.0223
O4 O 0.4697(2) -0.05782(19) 0.30678(14)
C9 C 0.7086(3) -0.1684(3) 0.1697(2)
H6 H 0.6905 -0.1153 0.1254
C10 C 0.6505(3) -0.2633(2) 0.3056(2)
C11 C 0.2548(3) 0.2207(2) 0.12032(19)
H7 H 0.1835 0.2184 0.1578
C12 C 0.4397(3) 0.1416(3) 0.06912(19)
H8 H 0.4993 0.0830 0.0703
O5 O 0.6889(3) -0.2598(2) 0.53279(18)
C13 C 0.8473(3) -0.3077(3) 0.2307(3)
H9 H 0.9228 -0.3496 0.2282
C14 C 0.8209(3) -0.2306(3) 0.1642(2)
H10 H 0.8772 -0.2203 0.1166
C15 C 0.7641(3) -0.3241(3) 0.3009(2)
H11 H 0.7840 -0.3763 0.3455
C16 C 0.5373(3) 0.5439(2) -0.24048(19)
H12 H 0.5144 0.5942 -0.2857
C17 C 0.6881(3) 0.4345(3) -0.17215(19)
H13 H 0.7719 0.4077 -0.1686
C18 C 0.6561(3) -0.3537(3) 0.5112(2)
C19 C 0.5716(3) -0.3729(3) 0.4294(2)
H14 H 0.6064 -0.4358 0.3954
H15 H 0.4867 -0.3947 0.4497
Zn1C Zn 0.78272(3) -0.47335(3) 0.66024(2)
Zn1C_2 Zn 0.78272(3) 0.52665(3) -0.33976(2)
N1C N 0.1576(2) -0.00340(19) 0.25978(15)
O3C O 0.1813(2) -0.05573(19) 0.05199(15)
O6 O 0.1562(2) 0.5425(2) 0.94910(18)
H16 H 0.091(2) 0.537(3) 0.911(2)
H17 H 0.156(3) 0.6116(15) 0.972(2)
loop_
_geom_bond_atom_site_label_1
_geom_bond_atom_site_label_2
_geom_bond_site_symmetry_1
_geom_bond_site_symmetry_2
Zn1 N2 1_555 1_555
N1 C16 1_555 1_555
N2 C11 1_555 1_555
N3 H1 1_555 1_555
O1 C10 1_555 1_555
O2 Zn1 1_555 1_555
O3 C18 1_555 1_555
C1 N3 1_555 1_555
C2 H2 1_555 1_555
C3 N3 1_555 1_555
C4 C3 1_555 1_555
H3 C4 1_555 1_555
C5 C6 1_555 1_555
C6 O2 1_555 1_555
C7 C1 1_555 1_555
H4 C7 1_555 1_555
C8 C1 1_555 1_555
H5 C8 1_555 1_555
O4 C6 1_555 1_555
C9 C5 1_555 1_555
H6 C9 1_555 1_555
C10 C5 1_555 1_555
C11 C7 1_555 1_555
H7 C11 1_555 1_555
C12 N2 1_555 1_555
H8 C12 1_555 1_555
O5 C18 1_555 1_555
C13 H9 1_555 1_555
C14 C9 1_555 1_555
H10 C14 1_555 1_555
C15 C10 1_555 1_555
H11 C15 1_555 1_555
O6 H16 1_555 1_555
C16 C2 1_555 1_555
H12 C16 1_555 1_555
C17 N1 1_555 1_555
H13 C17 1_555 1_555
C18 C19 1_555 1_555
C19 O1 1_555 1_555
H14 C19 1_555 1_555
H15 C19 1_555 1_555
H17 O6 1_555 1_555
Zn1C O3 1_555 1_555
Zn1C_2 N1 1_555 1_555
N1C Zn1 1_555 1_555
O3C Zn1 1_555 1_555
C2 C3 1_555 1_555
C4 C17 1_555 1_555
C8 C12 1_555 1_555
C13 C14 1_555 1_555
C13 C15 1_555 1_555

#END
