
#######################################################################
#
#                 Cambridge Crystallographic Data Centre
#                                CCDC 
#
#######################################################################
#
# If this CIF has been generated from an entry in the Cambridge 
# Structural Database, then it will include bibliographic, chemical, 
# crystal, experimental, refinement or atomic coordinate data resulting 
# from the CCDC's data processing and validation procedures.
#
#######################################################################

data_EBUJUI
_symmetry_cell_setting           trigonal
_symmetry_space_group_name_H-M   'P -3'
_symmetry_Int_Tables_number      147
_space_group_name_Hall           '-P 3'
loop_
_symmetry_equiv_pos_site_id
_symmetry_equiv_pos_as_xyz
1 x,y,z
2 -y,x-y,z
3 -x+y,-x,z
4 -x,-y,-z
5 y,-x+y,-z
6 x-y,x,-z
_cell_length_a                   10.9001(7)
_cell_length_b                   10.9001(7)
_cell_length_c                   8.1598(9)
_cell_angle_alpha                90
_cell_angle_beta                 90
_cell_angle_gamma                120
_cell_volume                     839.597
loop_
_atom_site_label
_atom_site_type_symbol
_atom_site_fract_x
_atom_site_fract_y
_atom_site_fract_z
C1 C 0.09479(13) 0.22806(14) 0.21911(17)
H1 H 0.0030 0.1855 0.1779
C2 C 0.26852(12) 0.26681(12) 0.36486(15)
H2 H 0.3269 0.2612 0.4441
C3 C 0.45355(15) 0.48989(15) 0.23256(18)
H3 H 0.5106 0.4956 0.3267
H4 H 0.4467 0.5752 0.2306
C4 C 0.52717(14) 0.48358(15) 0.07774(17)
H5 H 0.5154 0.3896 0.0682
H6 H 0.6278 0.5504 0.0877
N1 N 0.13064(9) 0.17583(9) 0.34947(11)
N2 N 0.20000(12) 0.34389(13) 0.15509(16)
N3 N 0.31078(11) 0.36635(11) 0.25157(13)
Ni1 Ni 0.0000 0.0000 0.5000
C1C C 0.90521(13) 0.77194(14) -0.21911(17)
C1A C -0.22806(14) -0.13327(19) 0.21911(17)
C1D C -0.77194(14) 0.13327(19) -0.21911(17)
C1B C 0.13327(19) -0.09479(13) 0.21911(17)
C1E C -0.13327(19) -0.90521(13) -0.21911(17)
H1C H 0.9970 0.8145 -0.1779
H1A H -0.1855 -0.1825 0.1779
H1D H -0.8145 0.1825 -0.1779
H1B H 0.1825 -0.0030 0.1779
H1E H -0.1825 -0.9970 -0.1779
C2C C 0.73148(12) 0.73319(12) -0.36486(15)
C2A C -0.26681(12) 0.00171(17) 0.36486(15)
C2D C -0.73319(12) -0.00171(17) -0.36486(15)
C2B C -0.00171(17) -0.26852(12) 0.36486(15)
C2E C 0.00171(17) -0.73148(12) -0.36486(15)
H2C H 0.6731 0.7388 -0.4441
H2A H -0.2612 0.0657 0.4441
H2D H -0.7388 -0.0657 -0.4441
H2B H -0.0657 -0.3269 0.4441
H2E H 0.0657 -0.6731 -0.4441
C3C C 0.54645(15) 0.51011(15) -0.23256(18)
C3A C -0.48989(15) -0.03634(21) 0.23256(18)
C3D C -0.51011(15) 0.03634(21) -0.23256(18)
C3B C 0.03634(21) -0.45355(15) 0.23256(18)
C3E C -0.03634(21) -0.54645(15) -0.23256(18)
H3C H 0.4894 0.5044 -0.3267
H3A H -0.4956 0.0150 0.3267
H3D H -0.5044 -0.0150 -0.3267
H3B H -0.0150 -0.5106 0.3267
H3E H 0.0150 -0.4894 -0.3267
H4C H 0.5533 0.4248 -0.2306
H4A H -0.5752 -0.1285 0.2306
H4D H -0.4248 0.1285 -0.2306
H4B H 0.1285 -0.4467 0.2306
H4E H -0.1285 -0.5533 -0.2306
C4C C 0.47283(14) 0.51642(15) -0.07774(17)
C4A C -0.48358(15) 0.04359(21) 0.07774(17)
C4D C -0.51642(15) -0.04359(21) -0.07774(17)
C4B C -0.04359(21) -0.52717(14) 0.07774(17)
C4E C 0.04359(21) -0.47283(14) -0.07774(17)
H5C H 0.4846 0.6104 -0.0682
H5A H -0.3896 0.1258 0.0682
H5D H -0.6104 -0.1258 -0.0682
H5B H -0.1258 -0.5154 0.0682
H5E H 0.1258 -0.4846 -0.0682
H6C H 0.3722 0.4496 -0.0877
H6A H -0.5504 0.0774 0.0877
H6D H -0.4496 -0.0774 -0.0877
H6B H -0.0774 -0.6278 0.0877
H6E H 0.0774 -0.3722 -0.0877
N1C N 0.86936(9) 0.82417(9) -0.34947(11)
N1A N -0.17583(9) -0.04519(13) 0.34947(11)
N1D N -0.82417(9) 0.04519(13) -0.34947(11)
N1B N 0.04519(13) -0.13064(9) 0.34947(11)
N1E N -0.04519(13) -0.86936(9) -0.34947(11)
N1C_2 N -0.13064(9) -0.17583(9) 0.65053(11)
N1D_2 N 0.17583(9) 0.04519(13) 0.65053(11)
N1E_2 N -0.04519(13) 0.13064(9) 0.65053(11)
N2C N 0.80000(12) 0.65611(13) -0.15509(16)
N2A N -0.34389(13) -0.14389(18) 0.15509(16)
N2D N -0.65611(13) 0.14389(18) -0.15509(16)
N2B N 0.14389(18) -0.20000(12) 0.15509(16)
N2E N -0.14389(18) -0.80000(12) -0.15509(16)
N3C N 0.68922(11) 0.63365(11) -0.25157(13)
N3A N -0.36635(11) -0.05557(16) 0.25157(13)
N3D N -0.63365(11) 0.05557(16) -0.25157(13)
N3B N 0.05557(16) -0.31078(11) 0.25157(13)
N3E N -0.05557(16) -0.68922(11) -0.25157(13)
Ni1_2 Ni -1.0000 0.0000 -0.5000
Ni1_3 Ni 0.0000 -1.0000 -0.5000
Ni1_4 Ni 1.0000 1.0000 -0.5000
N4 N 0.6667 0.3333 0.4514(3)
O1 O 0.75150(14) 0.29028(15) 0.4520(2)
O1A O 0.70972(15) 0.46122(21) 0.4520(2)
O1B O 0.53878(21) 0.24850(14) 0.4520(2)
loop_
_geom_bond_atom_site_label_1
_geom_bond_atom_site_label_2
_geom_bond_site_symmetry_1
_geom_bond_site_symmetry_2
C1 H1 1_555 1_555
C2 H2 1_555 1_555
C3 H3 1_555 1_555
H4 C3 1_555 1_555
C4 C3 1_555 1_555
H5 C4 1_555 1_555
H6 C4 1_555 1_555
N1 C1 1_555 1_555
N2 C1 1_555 1_555
N3 C2 1_555 1_555
N4 O1 1_555 1_555
Ni1 N1 1_555 1_555
C1C H1C 1_555 1_555
C1A H1A 1_555 1_555
C1D H1D 1_555 1_555
C1B H1B 1_555 1_555
C1E H1E 1_555 1_555
C2C H2C 1_555 1_555
C2A H2A 1_555 1_555
C2D H2D 1_555 1_555
C2B H2B 1_555 1_555
C2E H2E 1_555 1_555
C3C H3C 1_555 1_555
C3A H3A 1_555 1_555
C3D H3D 1_555 1_555
C3B H3B 1_555 1_555
C3E H3E 1_555 1_555
H4C C3C 1_555 1_555
H4A C3A 1_555 1_555
H4D C3D 1_555 1_555
H4B C3B 1_555 1_555
H4E C3E 1_555 1_555
C4C C4 1_555 1_555
C4A C3A 1_555 1_555
C4D C3D 1_555 1_555
C4B C3B 1_555 1_555
C4E C3E 1_555 1_555
H5C C4C 1_555 1_555
H5A C4A 1_555 1_555
H5D C4D 1_555 1_555
H5B C4B 1_555 1_555
H5E C4E 1_555 1_555
H6C C4C 1_555 1_555
H6A C4A 1_555 1_555
H6D C4D 1_555 1_555
H6B C4B 1_555 1_555
H6E C4E 1_555 1_555
N1C C1C 1_555 1_555
N1A Ni1 1_555 1_555
N1D C1D 1_555 1_555
N1B Ni1 1_555 1_555
N1E C1E 1_555 1_555
N1C_2 Ni1 1_555 1_555
N1D_2 Ni1 1_555 1_555
N1E_2 Ni1 1_555 1_555
N2C C1C 1_555 1_555
N2A C1A 1_555 1_555
N2D C1D 1_555 1_555
N2B C1B 1_555 1_555
N2E C1E 1_555 1_555
N3C C2C 1_555 1_555
N3A C2A 1_555 1_555
N3D C2D 1_555 1_555
N3B C2B 1_555 1_555
N3E C2E 1_555 1_555
Ni1_2 N1D 1_555 1_555
Ni1_3 N1E 1_555 1_555
Ni1_4 N1C 1_555 1_555
O1A N4 1_555 1_555
O1B N4 1_555 1_555
C2 N1 1_555 1_555
C3 N3 1_555 1_555
N2 N3 1_555 1_555
C1A N1A 1_555 1_555
C1B N1B 1_555 1_555
C2C N1C 1_555 1_555
C2A N1A 1_555 1_555
C2D N1D 1_555 1_555
C2B N1B 1_555 1_555
C2E N1E 1_555 1_555
C3C C4C 1_555 1_555
C3C N3C 1_555 1_555
C3A N3A 1_555 1_555
C3D N3D 1_555 1_555
C3B N3B 1_555 1_555
C3E N3E 1_555 1_555
C4A C4D 1_555 1_555
C4B C4E 1_555 1_555
N2C N3C 1_555 1_555
N2A N3A 1_555 1_555
N2D N3D 1_555 1_555
N2B N3B 1_555 1_555
N2E N3E 1_555 1_555

#END
