
#######################################################################
#
#                 Cambridge Crystallographic Data Centre
#                                CCDC 
#
#######################################################################
#
# If this CIF has been generated from an entry in the Cambridge 
# Structural Database, then it will include bibliographic, chemical, 
# crystal, experimental, refinement or atomic coordinate data resulting 
# from the CCDC's data processing and validation procedures.
#
#######################################################################

data_EBURIE
_symmetry_cell_setting           tetragonal
_symmetry_space_group_name_H-M   'I 41/a'
_symmetry_Int_Tables_number      88
_space_group_name_Hall           '-I 4ad'
loop_
_symmetry_equiv_pos_site_id
_symmetry_equiv_pos_as_xyz
1 x,y,z
2 1/2-x,-y,1/2+z
3 3/4-y,1/4+x,1/4+z
4 3/4+y,3/4-x,3/4+z
5 1/2+x,1/2+y,1/2+z
6 -x,1/2-y,z
7 1/4-y,3/4+x,3/4+z
8 1/4+y,1/4-x,1/4+z
9 -x,-y,-z
10 1/2+x,y,1/2-z
11 1/4+y,3/4-x,3/4-z
12 1/4-y,1/4+x,1/4-z
13 1/2-x,1/2-y,1/2-z
14 x,1/2+y,-z
15 3/4+y,1/4-x,1/4-z
16 3/4-y,3/4+x,3/4-z
_cell_length_a                   10.0681(3)
_cell_length_b                   10.0681(3)
_cell_length_c                   23.3960(10)
_cell_angle_alpha                90
_cell_angle_beta                 90
_cell_angle_gamma                90
_cell_volume                     2371.57
loop_
_atom_site_label
_atom_site_type_symbol
_atom_site_fract_x
_atom_site_fract_y
_atom_site_fract_z
Co1 Co 0.0000 0.7500 0.11674(4)
Br1 Br 0.0000 0.7500 0.22620(4)
Br2 Br 0.0000 0.7500 0.00807(3)
O1 O -0.1581(4) 0.6047(4) 0.1188(4)
O2 O -0.3457(4) 0.3977(4) 0.1330(3)
C1 C -0.2788(7) 0.6229(7) 0.1519(3)
H1 H -0.3491 0.6561 0.1274
H2 H -0.2636 0.6872 0.1820
C2 C -0.3196(8) 0.4909(7) 0.1776(3)
H3 H -0.2491 0.4577 0.2020
H4 H -0.3985 0.5026 0.2008
C3 C -0.2235(7) 0.3770(7) 0.1006(3)
H5 H -0.2381 0.3119 0.0707
H6 H -0.1540 0.3443 0.1257
C4 C -0.1825(8) 0.5084(7) 0.0747(3)
H7 H -0.1028 0.4963 0.0520
H8 H -0.2523 0.5404 0.0496
Co1K Co -0.5000 0.2500 0.13326(4)
Co1K_2 Co 0.5000 0.2500 0.13326(4)
O1N O 0.3547(4) 0.4081(4) 0.1312(4)
O1E O 0.1581(4) 0.8953(4) 0.1188(4)
O2N O 0.1477(4) 0.5957(4) 0.1170(3)
O2K O -0.1477(4) 0.9043(4) 0.1170(3)
C1N C 0.3729(7) 0.5288(7) 0.0981(3)
H1N H 0.4061 0.5991 0.1226
H2N H 0.4372 0.5136 0.0680
C2N C 0.2409(7) 0.5696(8) 0.0724(3)
H3N H 0.2077 0.4991 0.0480
H4N H 0.2526 0.6485 0.0492
C3N C 0.1270(7) 0.4735(7) 0.1494(3)
H5N H 0.0619 0.4881 0.1793
H6N H 0.0943 0.4040 0.1243
C4N C 0.2584(7) 0.4325(8) 0.1753(3)
H7N H 0.2463 0.3528 0.1980
H8N H 0.2904 0.5023 0.2004
loop_
_geom_bond_atom_site_label_1
_geom_bond_atom_site_label_2
_geom_bond_site_symmetry_1
_geom_bond_site_symmetry_2
Co1 Br1 1_555 1_555
Br2 Co1 1_555 1_555
O1 Co1 1_555 1_555
O2 C2 1_555 1_555
C1 O1 1_555 1_555
H1 C1 1_555 1_555
H2 C1 1_555 1_555
C2 C1 1_555 1_555
H3 C2 1_555 1_555
H4 C2 1_555 1_555
C3 O2 1_555 1_555
H5 C3 1_555 1_555
H6 C3 1_555 1_555
C4 O1 1_555 1_555
H7 C4 1_555 1_555
H8 C4 1_555 1_555
Co1K O2 1_555 1_555
Co1K_2 O1N 1_555 1_555
O1N C1N 1_555 1_555
O1E Co1 1_555 1_555
O2N Co1 1_555 1_555
O2K Co1 1_555 1_555
C1N H1N 1_555 1_555
H2N C1N 1_555 1_555
C2N O2N 1_555 1_555
H3N C2N 1_555 1_555
H4N C2N 1_555 1_555
C3N O2N 1_555 1_555
H5N C3N 1_555 1_555
H6N C3N 1_555 1_555
C4N O1N 1_555 1_555
H7N C4N 1_555 1_555
H8N C4N 1_555 1_555
C3 C4 1_555 1_555
C1N C2N 1_555 1_555
C3N C4N 1_555 1_555

#END
