
#######################################################################
#
#                 Cambridge Crystallographic Data Centre
#                                CCDC 
#
#######################################################################
#
# If this CIF has been generated from an entry in the Cambridge 
# Structural Database, then it will include bibliographic, chemical, 
# crystal, experimental, refinement or atomic coordinate data resulting 
# from the CCDC's data processing and validation procedures.
#
#######################################################################

data_EBUTAW
_symmetry_cell_setting           orthorhombic
_symmetry_space_group_name_H-M   'P n m a'
_symmetry_Int_Tables_number      62
_space_group_name_Hall           '-P 2ac 2n'
loop_
_symmetry_equiv_pos_site_id
_symmetry_equiv_pos_as_xyz
1 x,y,z
2 1/2+x,y,1/2-z
3 x,1/2-y,z
4 1/2-x,1/2+y,1/2+z
5 -x,-y,-z
6 1/2-x,-y,1/2+z
7 -x,1/2+y,-z
8 1/2+x,1/2-y,1/2-z
_cell_length_a                   16.203(3)
_cell_length_b                   13.122(3)
_cell_length_c                   10.438(2)
_cell_angle_alpha                90
_cell_angle_beta                 90
_cell_angle_gamma                90
_cell_volume                     2219.28
loop_
_atom_site_label
_atom_site_type_symbol
_atom_site_fract_x
_atom_site_fract_y
_atom_site_fract_z
Fe1 Fe -0.85354(4) -0.52521(5) 0.34111(6)
N1 N -0.4735(2) -0.5314(3) 0.2429(3)
N2 N -0.7263(2) -0.5426(3) 0.3942(3)
N3 N -0.5781(2) -0.5780(4) 0.4037(4)
C1 C -0.5249(3) -0.5515(4) 0.3148(4)
C2 C -0.6569(3) -0.5586(4) 0.3911(4)
N4 N -0.8839(2) -0.4150(3) 0.4819(3)
N5 N -0.9177(3) -0.2500 0.5828(5)
C3 C -0.8989(3) -0.3362(4) 0.5258(4)
N6 N -0.8167(2) -0.0868(3) 0.2081(3)
N7 N -0.7884(3) -0.2500 0.0991(5)
C4 C -0.8041(3) -0.1649(3) 0.1624(4)
N8 N -0.8827(2) -0.6589(3) 0.4619(3)
N9 N -0.8292(2) -0.8411(3) 0.2161(3)
C5 C -0.8696(3) -0.7500 0.4058(6)
C6 C -0.8411(3) -0.7500 0.2719(6)
C7 C -0.9109(3) -0.8384(4) 0.5826(4)
C8 C -0.9261(4) -0.7500 0.6486(6)
C9 C -0.8046(3) -0.6594(3) 0.0945(4)
C10 C -0.7925(4) -0.7500 0.0291(6)
H2 H -0.9210 -0.5986 0.6247
H3 H -0.9457 -0.7500 0.7344
H4 H -0.7952 -0.9034 0.0518
H5 H -0.7763 -0.7500 -0.0584
Fe1A Fe -0.35354(4) -0.52521(5) 0.15889(6)
N1A N -0.9735(2) -0.5314(3) 0.2571(3)
C1A C -1.0249(3) -0.5515(4) 0.1852(4)
N3A N -1.0781(2) -0.5780(4) 0.0963(4)
C2A C -1.1569(3) -0.5586(4) 0.1089(4)
N2A N -1.2263(2) -0.5426(3) 0.1058(3)
Fe1A_2 Fe -1.35354(4) -0.52521(5) 0.15889(6)
C3B C -0.8989(3) -0.1638(4) 0.5258(4)
N4B N -0.8839(2) -0.0850(3) 0.4819(3)
Fe1B Fe -0.85354(4) 0.02521(5) 0.34111(6)
C4B C -0.8041(3) -0.3351(3) 0.1624(4)
N6B N -0.8167(2) -0.4132(3) 0.2081(3)
N8B N -0.8827(2) -0.8411(3) 0.4619(3)
Fe1B_2 Fe -0.85354(4) -0.97479(5) 0.34111(6)
N1G N -0.9735(2) -0.9686(3) 0.2571(3)
N2B N -0.7263(2) -0.9574(3) 0.3942(3)
N4B_2 N -0.8839(2) -1.0850(3) 0.4819(3)
N6_2 N -0.8167(2) -1.0868(3) 0.2081(3)
N9B N -0.8292(2) -0.6589(3) 0.2161(3)
C9B C -0.8046(3) -0.8406(3) 0.0945(4)
H4B H -0.7952 -0.5966 0.0518
C7B C -0.9109(3) -0.6616(4) 0.5826(4)
H2B H -0.9210 -0.9014 0.6247
O1 O 0.5032(3) 0.2500 0.5597(5)
H1 H 0.473(2) 0.197(3) 0.517(3)
H1B H 0.473(2) 0.303(3) 0.517(3)
loop_
_geom_bond_atom_site_label_1
_geom_bond_atom_site_label_2
_geom_bond_site_symmetry_1
_geom_bond_site_symmetry_2
Fe1 N2 1_555 1_555
N1 C1 1_555 1_555
N2 C2 1_555 1_555
N3 C1 1_555 1_555
C2 N3 1_555 1_555
N4 Fe1 1_555 1_555
N5 C3 1_555 1_555
C3 N4 1_555 1_555
N6 C4 1_555 1_555
N7 C4 1_555 1_555
N8 Fe1 1_555 1_555
N9 C6 1_555 1_555
C5 N8 1_555 1_555
C6 C5 1_555 1_555
C7 C8 1_555 1_555
C8 H3 1_555 1_555
C9 C10 1_555 1_555
C10 H5 1_555 1_555
O1 H1 1_555 1_555
H2 C7B 1_555 1_555
H4 C9B 1_555 1_555
Fe1A N1 1_555 1_555
N1A Fe1 1_555 1_555
C1A N1A 1_555 1_555
N3A C1A 1_555 1_555
C2A N3A 1_555 1_555
N2A C2A 1_555 1_555
Fe1A_2 N2A 1_555 1_555
C3B N5 1_555 1_555
N4B C3B 1_555 1_555
Fe1B N6 1_555 1_555
C4B N7 1_555 1_555
N6B Fe1 1_555 1_555
N8B C5 1_555 1_555
Fe1B_2 N9 1_555 1_555
N1G Fe1B_2 1_555 1_555
N2B Fe1B_2 1_555 1_555
N4B_2 Fe1B_2 1_555 1_555
N6_2 Fe1B_2 1_555 1_555
N9B Fe1 1_555 1_555
C9B N9 1_555 1_555
H4B C9 1_555 1_555
C7B N8 1_555 1_555
H2B C7 1_555 1_555
H1B O1 1_555 1_555
C6 N9B 1_555 1_555
C7 N8B 1_555 1_555
C8 C7B 1_555 1_555
C9 N9B 1_555 1_555
C10 C9B 1_555 1_555
N4B Fe1B 1_555 1_555
C4B N6B 1_555 1_555
N8B Fe1B_2 1_555 1_555

#END
