
#######################################################################
#
#                 Cambridge Crystallographic Data Centre
#                                CCDC 
#
#######################################################################
#
# If this CIF has been generated from an entry in the Cambridge 
# Structural Database, then it will include bibliographic, chemical, 
# crystal, experimental, refinement or atomic coordinate data resulting 
# from the CCDC's data processing and validation procedures.
#
#######################################################################

data_EBUVEE
_symmetry_cell_setting           monoclinic
_symmetry_space_group_name_H-M   'P 21/n'
_symmetry_Int_Tables_number      14
_space_group_name_Hall           '-P 2yn'
loop_
_symmetry_equiv_pos_site_id
_symmetry_equiv_pos_as_xyz
1 x,y,z
2 1/2-x,1/2+y,1/2-z
3 -x,-y,-z
4 1/2+x,1/2-y,1/2+z
_cell_length_a                   13.6038(7)
_cell_length_b                   10.8508(7)
_cell_length_c                   19.3004(12)
_cell_angle_alpha                90
_cell_angle_beta                 95.047(4)
_cell_angle_gamma                90
_cell_volume                     2837.93
loop_
_atom_site_label
_atom_site_type_symbol
_atom_site_fract_x
_atom_site_fract_y
_atom_site_fract_z
C1 C 0.2943(10) -0.1165(13) -0.0117(16)
H1 H 0.2380 -0.1273 -0.0420
C2 C 0.3737(8) -0.0519(11) -0.0319(11)
H2 H 0.3700 -0.0191 -0.0765
C3 C 0.4564(6) -0.0353(6) 0.0115(7)
C4 C 0.4588(16) -0.0856(9) 0.0770(8)
H3 H 0.5146 -0.0759 0.1081
C5 C 0.3771(19) -0.1488(9) 0.0936(13)
H4 H 0.3796 -0.1824 0.1381
N1 N 0.2958(16) -0.1655(11) 0.0520(18)
C6 C -0.3422(16) -0.2470(15) -0.0434(15)
C7 C -0.3634(19) -0.3122(13) 0.0149(17)
H5 H -0.4199 -0.3609 0.0131
C8 C -0.3024(23) -0.3053(17) 0.0752(16)
H6 H -0.3183 -0.3496 0.1139
C9 C -0.2579(18) -0.1760(12) -0.0389(16)
H7 H -0.2413 -0.1317 -0.0775
C10 C -0.1991(17) -0.1718(15) 0.0222(18)
H8 H -0.1424 -0.1235 0.0243
C11 C -0.5390(16) -0.3461(20) -0.1802(20)
H9 H -0.5879 -0.4062 -0.1850
C12 C -0.4791(17) -0.3402(14) -0.1181(18)
H10 H -0.4881 -0.3954 -0.0823
C13 C -0.4059(16) -0.2526(14) -0.1091(15)
C14 C -0.3959(17) -0.1737(14) -0.1637(16)
H11 H -0.3477 -0.1127 -0.1603
C15 C -0.4589(20) -0.1866(20) -0.2233(16)
H12 H -0.4514 -0.1323 -0.2597
N2 N -0.2191(22) -0.2355(20) 0.0806(16)
N3 N -0.5298(18) -0.2701(25) -0.2332(17)
Ni1 Ni -0.1199(11) -0.2202(11) 0.1750(10)
O1 O -0.0940(34) -0.3972(29) 0.1716(27)
Ni2 Ni 0.1623(8) -0.2201(12) 0.0912(8)
N4 N -0.1088(11) -0.0286(12) 0.1770(6)
C16 C -0.1618(10) 0.0602(18) 0.2042(6)
H13 H -0.2101 0.0358 0.2325
C17 C -0.1484(10) 0.1850(17) 0.1922(6)
C18 C -0.0778(11) 0.2222(18) 0.1509(6)
H14 H -0.0690 0.3059 0.1431
C19 C -0.0213(10) 0.1335(18) 0.1218(6)
H15 H 0.0274 0.1565 0.0934
C20 C -0.0397(10) 0.0112(17) 0.1366(6)
C21 C 0.0211(10) -0.0869(18) 0.1056(6)
O2 O 0.0014(8) -0.1972(19) 0.1207(5)
O3 O 0.0847(11) -0.0495(19) 0.0680(6)
C22 C -0.2121(11) 0.2803(20) 0.2256(6)
O4 O -0.1978(17) 0.3934(21) 0.2170(9)
O5 O -0.2756(10) 0.2336(28) 0.2600(6)
N5 N 0.2112(9) -0.3986(15) 0.1190(10)
C23 C 0.1386(10) -0.5966(14) 0.1083(12)
H16 H 0.0998 -0.6531 0.0820
C24 C 0.2507(10) -0.4247(20) 0.1819(11)
H17 H 0.2891 -0.3666 0.2073
C25 C 0.2363(10) -0.5394(21) 0.2114(11)
C26 C 0.1804(11) -0.6251(18) 0.1746(12)
H18 H 0.1700 -0.7022 0.1937
C27 C 0.1560(7) -0.4813(14) 0.0821(10)
C28 C 0.1170(7) -0.4379(20) 0.0109(10)
O6 O 0.1068(8) -0.3216(21) 0.0018(12)
O7 O 0.0983(9) -0.5179(28) -0.0349(13)
C29 C 0.2848(11) -0.5628(23) 0.2840(11)
O8 O 0.2740(16) -0.6697(23) 0.3066(18)
O9 O 0.3284(12) -0.4716(26) 0.3110(15)
C1B C 0.7057(10) 0.1165(13) 0.0117(16)
H1B H 0.7620 0.1273 0.0420
C2B C 0.6263(8) 0.0519(11) 0.0319(11)
H2B H 0.6300 0.0191 0.0765
C3B C 0.5436(6) 0.0353(6) -0.0115(7)
C4B C 0.5412(16) 0.0856(9) -0.0770(8)
H3B H 0.4854 0.0759 -0.1081
C5B C 0.6229(19) 0.1488(9) -0.0936(13)
H4B H 0.6204 0.1824 -0.1381
N1B N 0.7042(16) 0.1655(11) -0.0520(18)
N1A N -0.7958(16) -0.6655(11) 0.4480(18)
C6C C 0.1578(16) -0.2530(15) 0.4566(15)
C7C C 0.1366(19) -0.1878(13) 0.5149(17)
H5C H 0.0801 -0.1391 0.5131
C8C C 0.1976(23) -0.1947(17) 0.5752(16)
H6C H 0.1817 -0.1504 0.6139
C9C C 0.2421(18) -0.3240(12) 0.4611(16)
H7C H 0.2587 -0.3683 0.4225
C10C C 0.3009(17) -0.3282(15) 0.5222(18)
H8C H 0.3576 -0.3765 0.5243
C11C C -0.0390(16) -0.1539(20) 0.3198(20)
H9C H -0.0879 -0.0938 0.3150
C12C C 0.0209(17) -0.1598(14) 0.3819(18)
H10C H 0.0119 -0.1046 0.4177
C13C C 0.0941(16) -0.2474(14) 0.3909(15)
C14C C 0.1041(17) -0.3263(14) 0.3363(16)
H11C H 0.1523 -0.3873 0.3397
C15C C 0.0411(20) -0.3134(20) 0.2767(16)
H12C H 0.0486 -0.3677 0.2403
N2C N 0.2809(22) -0.2645(20) 0.5806(16)
N3C N -0.0298(18) -0.2299(25) 0.2668(17)
N3_2 N 0.4702(18) -0.2701(25) 0.7668(17)
Ni1C Ni 0.3801(11) -0.2798(11) 0.6750(10)
Ni1C_2 Ni -0.6199(11) -0.2798(11) -0.3250(10)
Ni1A Ni -0.3801(11) 0.2798(11) 0.3250(10)
Ni1A_2 Ni -0.3801(11) -0.7202(11) 0.3250(10)
O1C O 0.4060(34) -0.1028(29) 0.6716(27)
Ni2A Ni -0.6623(8) -0.7201(12) 0.4088(8)
Ni2A_2 Ni 0.3377(8) -0.7201(12) 0.4088(8)
Ni2B Ni 0.8377(8) 0.2201(12) -0.0912(8)
Ni2A_3 Ni 0.3377(8) 0.2799(12) 0.4088(8)
N4A N -0.3912(11) -0.5286(12) 0.3230(6)
N4C N 0.3912(11) -0.4714(12) 0.6770(6)
C16A C -0.3382(10) -0.4398(18) 0.2958(6)
H13A H -0.2899 -0.4642 0.2675
C17A C -0.3516(10) -0.3150(17) 0.3078(6)
C18A C -0.4222(11) -0.2778(18) 0.3491(6)
H14A H -0.4310 -0.1941 0.3569
C19A C -0.4787(10) -0.3665(18) 0.3782(6)
H15A H -0.5274 -0.3435 0.4066
C20A C -0.4603(10) -0.4888(17) 0.3634(6)
C21A C -0.5211(10) -0.5869(18) 0.3944(6)
O2A O -0.5014(8) -0.6972(19) 0.3793(5)
O2C O 0.5014(8) -0.3028(19) 0.6207(5)
O3A O -0.5847(11) -0.5495(19) 0.4320(6)
C22A C -0.2879(11) -0.2197(20) 0.2744(6)
O4A O -0.3022(17) -0.1066(21) 0.2830(9)
O5A O -0.2244(10) -0.2664(28) 0.2400(6)
O5B O 0.2756(10) -0.2336(28) 0.7400(6)
N5A N 0.2888(9) 0.1014(15) 0.3810(10)
N5A_2 N -0.7112(9) -0.8986(15) 0.3810(10)
C23A C 0.3614(10) -0.0966(14) 0.3917(12)
H16A H 0.4002 -0.1531 0.4180
C24A C 0.2493(10) 0.0753(20) 0.3181(11)
H17A H 0.2109 0.1334 0.2927
C25A C 0.2637(10) -0.0394(21) 0.2886(11)
C26A C 0.3196(11) -0.1251(18) 0.3254(12)
H18A H 0.3300 -0.2022 0.3063
C27A C 0.3440(7) 0.0187(14) 0.4179(10)
C28A C 0.3830(7) 0.0621(20) 0.4891(10)
O6A O 0.3932(8) 0.1784(21) 0.4982(12)
O6A_2 O -0.6068(8) -0.8216(21) 0.4982(12)
O7A O 0.4017(9) -0.0179(28) 0.5349(13)
C29A C 0.2152(11) -0.0628(23) 0.2160(11)
O8A O 0.2260(16) -0.1697(23) 0.1934(18)
O8_2 O -0.7260(16) -0.6697(23) 0.3066(18)
O9A O 0.1716(12) 0.0284(26) 0.1890(15)
loop_
_geom_bond_atom_site_label_1
_geom_bond_atom_site_label_2
_geom_bond_site_symmetry_1
_geom_bond_site_symmetry_2
C1 H1 1_555 1_555
C2 C1 1_555 1_555
H2 C2 1_555 1_555
C3 C2 1_555 1_555
C4 C3 1_555 1_555
H3 C4 1_555 1_555
C5 C4 1_555 1_555
H4 C5 1_555 1_555
N1 C1 1_555 1_555
C6 C7 1_555 1_555
C7 H5 1_555 1_555
C8 C7 1_555 1_555
H6 C8 1_555 1_555
C9 C6 1_555 1_555
H7 C9 1_555 1_555
C10 C9 1_555 1_555
H8 C10 1_555 1_555
C11 H9 1_555 1_555
C12 C11 1_555 1_555
H10 C12 1_555 1_555
C13 C6 1_555 1_555
C14 C13 1_555 1_555
H11 C14 1_555 1_555
C15 C14 1_555 1_555
H12 C15 1_555 1_555
N2 C8 1_555 1_555
N3 C11 1_555 1_555
Ni1 N2 1_555 1_555
O1 Ni1 1_555 1_555
Ni2 N1 1_555 1_555
N4 Ni1 1_555 1_555
C16 N4 1_555 1_555
H13 C16 1_555 1_555
C17 C16 1_555 1_555
C18 C17 1_555 1_555
H14 C18 1_555 1_555
C19 C18 1_555 1_555
H15 C19 1_555 1_555
C20 N4 1_555 1_555
C21 C20 1_555 1_555
O2 Ni1 1_555 1_555
O3 Ni2 1_555 1_555
C22 C17 1_555 1_555
O4 C22 1_555 1_555
O5 C22 1_555 1_555
N5 Ni2 1_555 1_555
C23 H16 1_555 1_555
C24 N5 1_555 1_555
H17 C24 1_555 1_555
C25 C24 1_555 1_555
C26 C23 1_555 1_555
H18 C26 1_555 1_555
C27 N5 1_555 1_555
C28 C27 1_555 1_555
O6 Ni2 1_555 1_555
O7 C28 1_555 1_555
C29 C25 1_555 1_555
O8 C29 1_555 1_555
O9 C29 1_555 1_555
C1B H1B 1_555 1_555
C2B C1B 1_555 1_555
H2B C2B 1_555 1_555
C3B C3 1_555 1_555
C4B C3B 1_555 1_555
H3B C4B 1_555 1_555
C5B C4B 1_555 1_555
H4B C5B 1_555 1_555
N1B C1B 1_555 1_555
N1A Ni2A 1_555 1_555
C6C C7C 1_555 1_555
C7C H5C 1_555 1_555
C8C C7C 1_555 1_555
H6C C8C 1_555 1_555
C9C C6C 1_555 1_555
H7C C9C 1_555 1_555
C10C C9C 1_555 1_555
H8C C10C 1_555 1_555
C11C H9C 1_555 1_555
C12C C11C 1_555 1_555
H10C C12C 1_555 1_555
C13C C6C 1_555 1_555
C14C C13C 1_555 1_555
H11C C14C 1_555 1_555
C15C C14C 1_555 1_555
H12C C15C 1_555 1_555
N2C C8C 1_555 1_555
N3C Ni1 1_555 1_555
N3_2 Ni1C 1_555 1_555
Ni1C N2C 1_555 1_555
Ni1C_2 N3 1_555 1_555
Ni1A O5 1_555 1_555
Ni1A_2 N4A 1_555 1_555
O1C Ni1C 1_555 1_555
Ni2A O2A 1_555 1_555
Ni2A_2 O8 1_555 1_555
Ni2B N1B 1_555 1_555
Ni2A_3 N5A 1_555 1_555
N4A C16A 1_555 1_555
N4C Ni1C 1_555 1_555
C16A H13A 1_555 1_555
C17A C16A 1_555 1_555
C18A C17A 1_555 1_555
H14A C18A 1_555 1_555
C19A C18A 1_555 1_555
H15A C19A 1_555 1_555
C20A N4A 1_555 1_555
C21A C20A 1_555 1_555
O2A Ni1A_2 1_555 1_555
O2C Ni1C 1_555 1_555
O3A Ni2A 1_555 1_555
C22A C17A 1_555 1_555
O4A C22A 1_555 1_555
O5A Ni1 1_555 1_555
O5B Ni1C 1_555 1_555
N5A C24A 1_555 1_555
N5A_2 Ni2A 1_555 1_555
C23A H16A 1_555 1_555
C24A H17A 1_555 1_555
C25A C24A 1_555 1_555
C26A C23A 1_555 1_555
H18A C26A 1_555 1_555
C27A N5A 1_555 1_555
C28A C27A 1_555 1_555
O6A Ni2A_3 1_555 1_555
O6A_2 Ni2A 1_555 1_555
O7A C28A 1_555 1_555
C29A C25A 1_555 1_555
O8A Ni2 1_555 1_555
O8_2 Ni2A 1_555 1_555
O9A C29A 1_555 1_555
C5 N1 1_555 1_555
C10 N2 1_555 1_555
C12 C13 1_555 1_555
C15 N3 1_555 1_555
Ni2 O2 1_555 1_555
C19 C20 1_555 1_555
C21 O2 1_555 1_555
C21 O3 1_555 1_555
C23 C27 1_555 1_555
C25 C26 1_555 1_555
C28 O6 1_555 1_555
C2B C3B 1_555 1_555
C5B N1B 1_555 1_555
C10C N2C 1_555 1_555
C11C N3C 1_555 1_555
C12C C13C 1_555 1_555
C15C N3C 1_555 1_555
C19A C20A 1_555 1_555
C21A O2A 1_555 1_555
C21A O3A 1_555 1_555
C22A O5A 1_555 1_555
C23A C27A 1_555 1_555
C25A C26A 1_555 1_555
C28A O6A 1_555 1_555
C29A O8A 1_555 1_555

#END
