
#######################################################################
#
#                 Cambridge Crystallographic Data Centre
#                                CCDC 
#
#######################################################################
#
# If this CIF has been generated from an entry in the Cambridge 
# Structural Database, then it will include bibliographic, chemical, 
# crystal, experimental, refinement or atomic coordinate data resulting 
# from the CCDC's data processing and validation procedures.
#
#######################################################################

data_EBUWUV
_symmetry_cell_setting           monoclinic
_symmetry_space_group_name_H-M   'P 21/c'
_symmetry_Int_Tables_number      14
_space_group_name_Hall           '-P 2ybc'
loop_
_symmetry_equiv_pos_site_id
_symmetry_equiv_pos_as_xyz
1 x,y,z
2 -x,1/2+y,1/2-z
3 -x,-y,-z
4 x,1/2-y,1/2+z
_cell_length_a                   8.9896(12)
_cell_length_b                   31.618(4)
_cell_length_c                   12.7659(17)
_cell_angle_alpha                90
_cell_angle_beta                 105.991(2)
_cell_angle_gamma                90
_cell_volume                     3488.09
loop_
_atom_site_label
_atom_site_type_symbol
_atom_site_fract_x
_atom_site_fract_y
_atom_site_fract_z
Ag1 Ag 0.43449(4) -0.050273(11) 0.44238(3)
N1 N 0.3459(4) 0.04903(11) 0.4264(3)
N2 N 0.3258(4) 0.01283(11) 0.3607(3)
N3 N 0.7164(9) 0.32873(19) 0.3819(5)
N4 N 1.1969(5) -0.07900(15) 0.4285(4)
C1 C 1.0668(6) -0.07731(16) 0.3889(4)
C2 C 0.9040(5) -0.07534(16) 0.3339(4)
C3 C 0.8379(6) -0.10743(16) 0.2614(4)
H1 H 0.8982 -0.1309 0.2513
C4 C 0.6832(6) -0.10462(15) 0.2044(4)
H2 H 0.6363 -0.1267 0.1560
C5 C 0.5963(5) -0.06984(15) 0.2174(3)
C6 C 0.6631(5) -0.03810(15) 0.2902(4)
H3 H 0.6033 -0.0144 0.2999
C7 C 0.8165(6) -0.04104(15) 0.3484(4)
H4 H 0.8623 -0.0194 0.3987
C8 C 0.4301(5) -0.06747(18) 0.1489(4)
H5 H 0.4219 -0.0485 0.0858
H6 H 0.3933 -0.0959 0.1211
C9 C 0.1838(5) -0.04455(14) 0.1636(4)
C10 C 0.0986(6) -0.06979(16) 0.0806(4)
H7 H 0.1467 -0.0931 0.0562
C11 C -0.0567(5) -0.06146(16) 0.0321(4)
H8 H -0.1137 -0.0791 -0.0251
C12 C -0.1289(5) -0.02791(15) 0.0663(4)
H9 H -0.2356 -0.0225 0.0336
C13 C -0.0451(5) -0.00240(14) 0.1477(3)
H10 H -0.0942 0.0211 0.1706
C14 C 0.1121(5) -0.01021(13) 0.1983(3)
C15 C 0.1948(5) 0.01770(13) 0.2862(3)
C16 C 0.2264(5) 0.07315(13) 0.3872(3)
C17 C 0.1784(5) 0.11323(14) 0.4234(4)
C18 C 0.0242(6) 0.12541(16) 0.3764(5)
H11 H -0.0408 0.1084 0.3210
C19 C -0.0334(7) 0.16173(19) 0.4098(6)
H12 H -0.1381 0.1696 0.3779
C20 C 0.0593(7) 0.18623(18) 0.4881(5)
H13 H 0.0187 0.2113 0.5105
C21 C 0.2114(6) 0.17539(16) 0.5360(4)
H14 H 0.2746 0.1930 0.5908
C22 C 0.2722(5) 0.13888(14) 0.5042(4)
C23 C 0.5218(7) 0.15259(15) 0.6259(4)
H15 H 0.6169 0.1368 0.6626
H16 H 0.4709 0.1611 0.6823
C24 C 0.5656(6) 0.19169(16) 0.5740(4)
C25 C 0.6003(7) 0.18925(15) 0.4762(5)
H17 H 0.5957 0.1625 0.4413
C26 C 0.6413(7) 0.22403(17) 0.4273(5)
H18 H 0.6627 0.2215 0.3587
C27 C 0.6518(8) 0.26326(17) 0.4781(5)
C28 C 0.6154(12) 0.2661(2) 0.5773(6)
H19 H 0.6194 0.2927 0.6126
C29 C 0.5736(11) 0.23030(19) 0.6242(5)
H20 H 0.5500 0.2324 0.6921
C30 C 0.6878(9) 0.3000(2) 0.4260(6)
O1 O 0.3380(4) -0.05154(10) 0.2149(2)
O2 O 0.4200(4) 0.12527(10) 0.5493(3)
O3 O 0.1284(3) 0.05503(9) 0.2986(2)
Ag1B Ag 0.56551(4) 0.050273(11) 0.55762(3)
Ag1_2 Ag 1.43449(4) -0.050273(11) 0.44238(3)
Ag1B_2 Ag -0.43449(4) 0.050273(11) 0.55762(3)
N1B N 0.6541(4) -0.04903(11) 0.5736(3)
N2B N 0.6742(4) -0.01283(11) 0.6393(3)
N3B N 0.2836(9) -0.32873(19) 0.6181(5)
N4B N -0.1969(5) 0.07900(15) 0.5715(4)
N4_2 N 0.1969(5) -0.07900(15) 0.4285(4)
N4B_2 N 0.8031(5) 0.07900(15) 0.5715(4)
C1B C -0.0668(6) 0.07731(16) 0.6111(4)
C2B C 0.0960(5) 0.07534(16) 0.6661(4)
C3B C 0.1621(6) 0.10743(16) 0.7386(4)
H1B H 0.1018 0.1309 0.7487
C4B C 0.3168(6) 0.10462(15) 0.7956(4)
H2B H 0.3637 0.1267 0.8440
C5B C 0.4037(5) 0.06984(15) 0.7826(3)
C6B C 0.3369(5) 0.03810(15) 0.7098(4)
H3B H 0.3967 0.0144 0.7001
C7B C 0.1835(6) 0.04104(15) 0.6516(4)
H4B H 0.1377 0.0194 0.6013
C8B C 0.5699(5) 0.06747(18) 0.8511(4)
H5B H 0.5781 0.0485 0.9142
H6B H 0.6067 0.0959 0.8789
C9B C 0.8162(5) 0.04455(14) 0.8364(4)
C10B C 0.9014(6) 0.06979(16) 0.9194(4)
H7B H 0.8533 0.0931 0.9438
C11B C 1.0567(5) 0.06146(16) 0.9679(4)
H8B H 1.1137 0.0791 1.0251
C12B C 1.1289(5) 0.02791(15) 0.9337(4)
H9B H 1.2356 0.0225 0.9664
C13B C 1.0451(5) 0.00240(14) 0.8523(3)
H10B H 1.0942 -0.0211 0.8294
C14B C 0.8879(5) 0.01021(13) 0.8017(3)
C15B C 0.8052(5) -0.01770(13) 0.7138(3)
C16B C 0.7736(5) -0.07315(13) 0.6128(3)
C17B C 0.8216(5) -0.11323(14) 0.5766(4)
C18B C 0.9758(6) -0.12541(16) 0.6236(5)
H11B H 1.0408 -0.1084 0.6790
C19B C 1.0334(7) -0.16173(19) 0.5902(6)
H12B H 1.1381 -0.1696 0.6221
C20B C 0.9407(7) -0.18623(18) 0.5119(5)
H13B H 0.9813 -0.2113 0.4895
C21B C 0.7886(6) -0.17539(16) 0.4640(4)
H14B H 0.7254 -0.1930 0.4092
C22B C 0.7278(5) -0.13888(14) 0.4958(4)
C23B C 0.4782(7) -0.15259(15) 0.3741(4)
H15B H 0.3831 -0.1368 0.3374
H16B H 0.5291 -0.1611 0.3177
C24B C 0.4344(6) -0.19169(16) 0.4260(4)
C25B C 0.3997(7) -0.18925(15) 0.5238(5)
H17B H 0.4043 -0.1625 0.5587
C26B C 0.3587(7) -0.22403(17) 0.5727(5)
H18B H 0.3373 -0.2215 0.6413
C27B C 0.3482(8) -0.26326(17) 0.5219(5)
C28B C 0.3846(12) -0.2661(2) 0.4227(6)
H19B H 0.3806 -0.2927 0.3874
C29B C 0.4264(11) -0.23030(19) 0.3758(5)
H20B H 0.4500 -0.2324 0.3079
C30B C 0.3122(9) -0.3000(2) 0.5740(6)
O1B O 0.6620(4) 0.05154(10) 0.7851(2)
O2B O 0.5800(4) -0.12527(10) 0.4507(3)
O3B O 0.8716(3) -0.05503(9) 0.7014(2)
F1 F 0.6442(5) 0.06717(12) 0.3103(3)
F2 F 0.7414(4) 0.09229(14) 0.1423(4)
F3 F 0.5020(6) 0.04168(12) 0.1097(3)
F4 F 0.4629(5) 0.12130(12) 0.0465(3)
F5 F 0.6060(5) 0.14640(10) 0.2435(3)
F6 F 0.3646(5) 0.09559(14) 0.2107(3)
Sb1 Sb 0.55325(4) 0.094047(11) 0.17774(3)
loop_
_geom_bond_atom_site_label_1
_geom_bond_atom_site_label_2
_geom_bond_site_symmetry_1
_geom_bond_site_symmetry_2
Ag1 N2 1_555 1_555
N1 N2 1_555 1_555
N2 C15 1_555 1_555
N3 C30 1_555 1_555
N4 C1 1_555 1_555
C1 C2 1_555 1_555
C2 C3 1_555 1_555
C3 H1 1_555 1_555
C4 C3 1_555 1_555
H2 C4 1_555 1_555
C5 C4 1_555 1_555
C6 C5 1_555 1_555
H3 C6 1_555 1_555
C7 C2 1_555 1_555
H4 C7 1_555 1_555
C8 C5 1_555 1_555
H5 C8 1_555 1_555
H6 C8 1_555 1_555
C9 C10 1_555 1_555
C10 H7 1_555 1_555
C11 C10 1_555 1_555
H8 C11 1_555 1_555
C12 C11 1_555 1_555
H9 C12 1_555 1_555
C13 C12 1_555 1_555
H10 C13 1_555 1_555
C14 C9 1_555 1_555
C15 C14 1_555 1_555
C16 N1 1_555 1_555
C17 C16 1_555 1_555
C18 C17 1_555 1_555
H11 C18 1_555 1_555
C19 C18 1_555 1_555
H12 C19 1_555 1_555
C20 C19 1_555 1_555
H13 C20 1_555 1_555
C21 C20 1_555 1_555
H14 C21 1_555 1_555
C22 C17 1_555 1_555
C23 H15 1_555 1_555
H16 C23 1_555 1_555
C24 C23 1_555 1_555
C25 C24 1_555 1_555
H17 C25 1_555 1_555
C26 C25 1_555 1_555
H18 C26 1_555 1_555
C27 C26 1_555 1_555
C28 C27 1_555 1_555
H19 C28 1_555 1_555
C29 C24 1_555 1_555
H20 C29 1_555 1_555
C30 C27 1_555 1_555
O1 C8 1_555 1_555
O2 C22 1_555 1_555
O3 C15 1_555 1_555
F1 Sb1 1_555 1_555
F2 Sb1 1_555 1_555
F3 Sb1 1_555 1_555
F4 Sb1 1_555 1_555
F5 Sb1 1_555 1_555
F6 Sb1 1_555 1_555
Ag1B N1 1_555 1_555
Ag1_2 N4 1_555 1_555
Ag1B_2 N4B 1_555 1_555
N1B Ag1 1_555 1_555
N2B Ag1B 1_555 1_555
N3B C30B 1_555 1_555
N4B C1B 1_555 1_555
N4_2 Ag1 1_555 1_555
N4B_2 Ag1B 1_555 1_555
C1B C2B 1_555 1_555
C2B C3B 1_555 1_555
C3B H1B 1_555 1_555
C4B C3B 1_555 1_555
H2B C4B 1_555 1_555
C5B C4B 1_555 1_555
C6B C5B 1_555 1_555
H3B C6B 1_555 1_555
C7B C2B 1_555 1_555
H4B C7B 1_555 1_555
C8B C5B 1_555 1_555
H5B C8B 1_555 1_555
H6B C8B 1_555 1_555
C9B C10B 1_555 1_555
C10B H7B 1_555 1_555
C11B C10B 1_555 1_555
H8B C11B 1_555 1_555
C12B C11B 1_555 1_555
H9B C12B 1_555 1_555
C13B C12B 1_555 1_555
H10B C13B 1_555 1_555
C14B C9B 1_555 1_555
C15B N2B 1_555 1_555
C16B N1B 1_555 1_555
C17B C16B 1_555 1_555
C18B C17B 1_555 1_555
H11B C18B 1_555 1_555
C19B C18B 1_555 1_555
H12B C19B 1_555 1_555
C20B C19B 1_555 1_555
H13B C20B 1_555 1_555
C21B C20B 1_555 1_555
H14B C21B 1_555 1_555
C22B C17B 1_555 1_555
C23B H15B 1_555 1_555
H16B C23B 1_555 1_555
C24B C23B 1_555 1_555
C25B C24B 1_555 1_555
H17B C25B 1_555 1_555
C26B C25B 1_555 1_555
H18B C26B 1_555 1_555
C27B C26B 1_555 1_555
C28B C27B 1_555 1_555
H19B C28B 1_555 1_555
C29B C24B 1_555 1_555
H20B C29B 1_555 1_555
C30B C27B 1_555 1_555
O1B C8B 1_555 1_555
O2B Ag1 1_555 1_555
O3B C15B 1_555 1_555
C6 C7 1_555 1_555
C9 O1 1_555 1_555
C13 C14 1_555 1_555
C16 O3 1_555 1_555
C21 C22 1_555 1_555
C23 O2 1_555 1_555
C28 C29 1_555 1_555
O2 Ag1B 1_555 1_555
N1B N2B 1_555 1_555
C6B C7B 1_555 1_555
C9B O1B 1_555 1_555
C13B C14B 1_555 1_555
C14B C15B 1_555 1_555
C16B O3B 1_555 1_555
C21B C22B 1_555 1_555
C22B O2B 1_555 1_555
C23B O2B 1_555 1_555
C28B C29B 1_555 1_555

#END
