
#######################################################################
#
#                 Cambridge Crystallographic Data Centre
#                                CCDC 
#
#######################################################################
#
# If this CIF has been generated from an entry in the Cambridge 
# Structural Database, then it will include bibliographic, chemical, 
# crystal, experimental, refinement or atomic coordinate data resulting 
# from the CCDC's data processing and validation procedures.
#
#######################################################################

data_EBUXIK
_symmetry_cell_setting           monoclinic
_symmetry_space_group_name_H-M   'P 21/m'
_symmetry_Int_Tables_number      11
_space_group_name_Hall           '-P 2yb'
loop_
_symmetry_equiv_pos_site_id
_symmetry_equiv_pos_as_xyz
1 x,y,z
2 -x,1/2+y,-z
3 -x,-y,-z
4 x,1/2-y,z
_cell_length_a                   7.8557(10)
_cell_length_b                   18.207(2)
_cell_length_c                   13.4719(17)
_cell_angle_alpha                90
_cell_angle_beta                 103.544(2)
_cell_angle_gamma                90
_cell_volume                     1873.28
loop_
_atom_site_label
_atom_site_type_symbol
_atom_site_fract_x
_atom_site_fract_y
_atom_site_fract_z
F1 F 1.1697(7) 0.7500 -0.0020(5)
F2 F 1.4129(5) 0.6911(2) 0.0246(4)
C1 C 1.3326(10) 0.7500 0.0508(8)
O1 O 1.5255(6) 0.7500 0.2339(4)
S1 S 1.3406(2) 0.7500 0.18716(17)
O2 O 1.2521(5) 0.6836(2) 0.2010(4)
Ag1 Ag 0.96275(5) 0.65332(2) 0.26274(3)
O3 O 0.8558(7) 0.7500 0.3622(4)
H1 H 0.9154 0.7500 0.4356
H2 H 0.7270 0.7500 0.3530
C2 C 0.8063(5) 0.6908(2) 0.0232(3)
C3 C 0.7978(6) 0.6190(2) -0.0256(3)
C4 C 0.8144(7) 0.6169(3) -0.1265(4)
H3 H 0.8300 0.6614 -0.1600
C5 C 0.8085(8) 0.5511(3) -0.1788(4)
H4 H 0.8208 0.5502 -0.2472
C6 C 0.7843(7) 0.4863(3) -0.1293(5)
H5 H 0.7789 0.4409 -0.1648
C7 C 0.7682(7) 0.4867(3) -0.0298(4)
H6 H 0.7524 0.4418 0.0029
C8 C 0.7749(6) 0.5528(2) 0.0233(4)
C9 C 0.7214(7) 0.4913(3) 0.1708(4)
H7 H 0.8164 0.4548 0.1757
H8 H 0.6111 0.4696 0.1306
C10 C 0.7024(6) 0.5123(3) 0.2751(4)
C11 C 0.6099(7) 0.5746(3) 0.2887(4)
H9 H 0.5602 0.6043 0.2313
C12 C 0.5881(7) 0.5948(3) 0.3837(4)
H10 H 0.5224 0.6375 0.3909
C13 C 0.6632(7) 0.5523(3) 0.4699(4)
H11 H 0.6526 0.5662 0.5361
C14 C 0.7536(6) 0.4890(3) 0.4549(4)
C15 C 0.7753(7) 0.4688(3) 0.3591(4)
H12 H 0.8393 0.4258 0.3512
C16 C 0.8278(7) 0.4457(3) 0.5433(4)
N1 N 0.8410(5) 0.71130(19) 0.1181(3)
N2 N 0.8883(6) 0.4123(3) 0.6143(4)
O4 O 0.7810(6) 0.7500 -0.0401(3)
O5 O 0.7625(5) 0.55748(18) 0.1226(3)
F2C F 1.4129(5) 0.8089(2) 0.0246(4)
O2C O 1.2521(5) 0.8164(2) 0.2010(4)
Ag1C Ag 0.96275(5) 0.84668(2) 0.26274(3)
Ag1B Ag 1.03725(5) 0.34668(2) 0.73726(3)
Ag1A Ag 1.03725(5) 1.15332(2) 0.73726(3)
C2C C 0.8063(5) 0.8092(2) 0.0232(3)
C3C C 0.7978(6) 0.8810(2) -0.0256(3)
C4C C 0.8144(7) 0.8831(3) -0.1265(4)
H3C H 0.8300 0.8386 -0.1600
C5C C 0.8085(8) 0.9489(3) -0.1788(4)
H4C H 0.8208 0.9498 -0.2472
C6C C 0.7843(7) 1.0137(3) -0.1293(5)
H5C H 0.7789 1.0591 -0.1648
C7C C 0.7682(7) 1.0133(3) -0.0298(4)
H6C H 0.7524 1.0582 0.0029
C8C C 0.7749(6) 0.9472(2) 0.0233(4)
C9C C 0.7214(7) 1.0087(3) 0.1708(4)
H7C H 0.8164 1.0452 0.1757
H8C H 0.6111 1.0304 0.1306
C10C C 0.7024(6) 0.9877(3) 0.2751(4)
C11C C 0.6099(7) 0.9254(3) 0.2887(4)
H9C H 0.5602 0.8957 0.2313
C12C C 0.5881(7) 0.9052(3) 0.3837(4)
H10C H 0.5224 0.8625 0.3909
C13C C 0.6632(7) 0.9477(3) 0.4699(4)
H11C H 0.6526 0.9338 0.5361
C14C C 0.7536(6) 1.0110(3) 0.4549(4)
C15C C 0.7753(7) 1.0312(3) 0.3591(4)
H12C H 0.8393 1.0742 0.3512
C16C C 0.8278(7) 1.0543(3) 0.5433(4)
N1C N 0.8410(5) 0.78870(19) 0.1181(3)
N2C N 0.8883(6) 1.0877(3) 0.6143(4)
N2B N 1.1117(6) 0.5877(3) 0.3857(4)
N2A N 1.1117(6) 0.9123(3) 0.3857(4)
O5C O 0.7625(5) 0.94252(18) 0.1226(3)
C17 C 0.6948(11) 0.7500 0.6254(10)
F3 F 0.598(3) 0.7500 0.5272(11)
F4 F 0.613(2) 0.6915(10) 0.6581(15)
O6 O 0.9896(19) 0.7500 0.7496(6)
O7 O 0.9540(14) 0.6863(7) 0.5892(12)
S2 S 0.9425(6) 0.7500 0.6449(2)
F4C F 0.613(2) 0.8085(10) 0.6581(15)
O7C O 0.9540(14) 0.8137(7) 0.5892(12)
loop_
_geom_bond_atom_site_label_1
_geom_bond_atom_site_label_2
_geom_bond_site_symmetry_1
_geom_bond_site_symmetry_2
F1 C1 1_555 1_555
F2 C1 1_555 1_555
C1 S1 1_555 1_555
O1 S1 1_555 1_555
S1 O2 1_555 1_555
O2 Ag1 1_555 1_555
Ag1 O3 1_555 1_555
O3 H1 1_555 1_555
H2 O3 1_555 1_555
C2 C3 1_555 1_555
C3 C4 1_555 1_555
C4 H3 1_555 1_555
C5 C4 1_555 1_555
H4 C5 1_555 1_555
C6 C5 1_555 1_555
H5 C6 1_555 1_555
C7 C6 1_555 1_555
H6 C7 1_555 1_555
C8 C3 1_555 1_555
C9 H7 1_555 1_555
H8 C9 1_555 1_555
C10 C9 1_555 1_555
C11 C10 1_555 1_555
H9 C11 1_555 1_555
C12 C11 1_555 1_555
H10 C12 1_555 1_555
C13 C12 1_555 1_555
H11 C13 1_555 1_555
C14 C13 1_555 1_555
C15 C10 1_555 1_555
H12 C15 1_555 1_555
C16 C14 1_555 1_555
C17 F3 1_555 1_555
F4 C17 1_555 1_555
N1 Ag1 1_555 1_555
N2 C16 1_555 1_555
O4 C2 1_555 1_555
O5 C8 1_555 1_555
O6 S2 1_555 1_555
O7 S2 1_555 1_555
S2 C17 1_555 1_555
F2C C1 1_555 1_555
O2C S1 1_555 1_555
Ag1C O3 1_555 1_555
Ag1B N2 1_555 1_555
Ag1A N2C 1_555 1_555
C2C O4 1_555 1_555
C3C C2C 1_555 1_555
C4C C3C 1_555 1_555
H3C C4C 1_555 1_555
C5C C4C 1_555 1_555
H4C C5C 1_555 1_555
C6C C5C 1_555 1_555
H5C C6C 1_555 1_555
C7C C6C 1_555 1_555
H6C C7C 1_555 1_555
C8C C3C 1_555 1_555
C9C H7C 1_555 1_555
H8C C9C 1_555 1_555
C10C C9C 1_555 1_555
C11C C10C 1_555 1_555
H9C C11C 1_555 1_555
C12C C11C 1_555 1_555
H10C C12C 1_555 1_555
C13C C12C 1_555 1_555
H11C C13C 1_555 1_555
C14C C13C 1_555 1_555
C15C C10C 1_555 1_555
H12C C15C 1_555 1_555
C16C C14C 1_555 1_555
F4C C17 1_555 1_555
N1C N1 1_555 1_555
N2C C16C 1_555 1_555
N2B Ag1 1_555 1_555
N2A Ag1C 1_555 1_555
O5C C8C 1_555 1_555
O7C S2 1_555 1_555
C2 N1 1_555 1_555
C7 C8 1_555 1_555
C9 O5 1_555 1_555
C14 C15 1_555 1_555
O2C Ag1C 1_555 1_555
Ag1C N1C 1_555 1_555
C2C N1C 1_555 1_555
C7C C8C 1_555 1_555
C9C O5C 1_555 1_555
C14C C15C 1_555 1_555

#END
