
#######################################################################
#
#                 Cambridge Crystallographic Data Centre
#                                CCDC 
#
#######################################################################
#
# If this CIF has been generated from an entry in the Cambridge 
# Structural Database, then it will include bibliographic, chemical, 
# crystal, experimental, refinement or atomic coordinate data resulting 
# from the CCDC's data processing and validation procedures.
#
#######################################################################

data_ECAHIB
_symmetry_cell_setting           rhombohedral
_symmetry_space_group_name_H-M   'R -3'
_symmetry_Int_Tables_number      148
_space_group_name_Hall           '-R 3'
loop_
_symmetry_equiv_pos_site_id
_symmetry_equiv_pos_as_xyz
1 x,y,z
2 -y,x-y,z
3 -x+y,-x,z
4 2/3+x,1/3+y,1/3+z
5 2/3-y,1/3+x-y,1/3+z
6 2/3-x+y,1/3-x,1/3+z
7 1/3+x,2/3+y,2/3+z
8 1/3-y,2/3+x-y,2/3+z
9 1/3-x+y,2/3-x,2/3+z
10 -x,-y,-z
11 y,-x+y,-z
12 x-y,x,-z
13 1/3-x,2/3-y,2/3-z
14 1/3+y,2/3-x+y,2/3-z
15 1/3+x-y,2/3+x,2/3-z
16 2/3-x,1/3-y,1/3-z
17 2/3+y,1/3-x+y,1/3-z
18 2/3+x-y,1/3+x,1/3-z
_cell_length_a                   26.473(4)
_cell_length_b                   26.473(4)
_cell_length_c                   7.635(2)
_cell_angle_alpha                90
_cell_angle_beta                 90
_cell_angle_gamma                120
_cell_volume                     4633.89
loop_
_atom_site_label
_atom_site_type_symbol
_atom_site_fract_x
_atom_site_fract_y
_atom_site_fract_z
C1 C 0.85459(18) 0.62200(18) 0.3162(5)
H1 H 0.8300 0.6362 0.2846
C2 C 0.9066(2) 0.60772(19) 0.5212(5)
H2 H 0.9198 0.6117 0.6360
C3 C 0.88988(19) 0.47802(19) -0.1602(5)
C4 C 0.88730(18) 0.51720(19) -0.0416(5)
H3 H 0.8590 0.5274 -0.0626
C5 C 0.92259(17) 0.54211(15) 0.1032(4)
C6 C 0.90614(16) 0.57436(15) 0.2301(4)
C7 C 0.87083(17) 0.59699(17) 0.1892(4)
H4 H 0.8581 0.5952 0.0747
C8 C 0.92479(19) 0.58146(19) 0.4024(5)
H5 H 0.9499 0.5683 0.4376
C9 C 0.8427(2) 0.4516(2) -0.2961(6)
H6 H 0.8578 0.4433 -0.3998
H7 H 0.8295 0.4784 -0.3240
H8 H 0.8107 0.4161 -0.2515
Cu1 Cu 1.0000 0.5000 0.0000
N1 N 0.87131(14) 0.62755(14) 0.4818(4)
O1 O 0.96725(11) 0.53863(10) 0.1418(3)
O2 O 0.92739(12) 0.46298(11) -0.1600(3)
C1I C 1.14541(18) 0.37800(18) -0.3162(5)
H1I H 1.1700 0.3638 -0.2846
C2I C 1.0934(2) 0.39228(19) -0.5212(5)
H2I H 1.0802 0.3883 -0.6360
C3I C 1.11012(19) 0.52198(19) 0.1602(5)
C4I C 1.11270(18) 0.48280(19) 0.0416(5)
H3I H 1.1410 0.4726 0.0626
C5I C 1.07741(17) 0.45789(15) -0.1032(4)
C6I C 1.09386(16) 0.42564(15) -0.2301(4)
C7I C 1.12917(17) 0.40301(17) -0.1892(4)
H4I H 1.1419 0.4048 -0.0747
C8I C 1.07521(19) 0.41854(19) -0.4024(5)
H5I H 1.0501 0.4317 -0.4376
C9I C 1.1573(2) 0.5484(2) 0.2961(6)
H6I H 1.1422 0.5567 0.3998
H7I H 1.1705 0.5216 0.3240
H8I H 1.1893 0.5839 0.2515
Cu1E Cu 1.1667 0.3333 -0.6667
Cu1H Cu 0.8333 0.6667 0.6667
N1I N 1.12869(14) 0.37245(14) -0.4818(4)
N1D N 1.03912(14) 0.57709(20) -0.1849(4)
N1M N 0.96088(14) 0.42291(20) 0.1849(4)
O1I O 1.03275(11) 0.46137(10) -0.1418(3)
O2I O 1.07261(12) 0.53702(11) 0.1600(3)
loop_
_geom_bond_atom_site_label_1
_geom_bond_atom_site_label_2
_geom_bond_site_symmetry_1
_geom_bond_site_symmetry_2
C1 H1 1_555 1_555
C2 H2 1_555 1_555
C3 C4 1_555 1_555
C4 H3 1_555 1_555
C5 C4 1_555 1_555
C6 C5 1_555 1_555
C7 C1 1_555 1_555
H4 C7 1_555 1_555
C8 C2 1_555 1_555
H5 C8 1_555 1_555
C9 C3 1_555 1_555
H6 C9 1_555 1_555
H7 C9 1_555 1_555
H8 C9 1_555 1_555
Cu1 O1 1_555 1_555
N1 C1 1_555 1_555
O1 C5 1_555 1_555
O2 C3 1_555 1_555
C1I H1I 1_555 1_555
C2I H2I 1_555 1_555
C3I C4I 1_555 1_555
C4I H3I 1_555 1_555
C5I C4I 1_555 1_555
C6I C5I 1_555 1_555
C7I C1I 1_555 1_555
H4I C7I 1_555 1_555
C8I C2I 1_555 1_555
H5I C8I 1_555 1_555
C9I C3I 1_555 1_555
H6I C9I 1_555 1_555
H7I C9I 1_555 1_555
H8I C9I 1_555 1_555
Cu1E N1I 1_555 1_555
Cu1H N1 1_555 1_555
N1I C1I 1_555 1_555
N1D Cu1 1_555 1_555
N1M Cu1 1_555 1_555
O1I Cu1 1_555 1_555
O2I Cu1 1_555 1_555
C2 N1 1_555 1_555
C6 C7 1_555 1_555
C6 C8 1_555 1_555
Cu1 O2 1_555 1_555
C2I N1I 1_555 1_555
C3I O2I 1_555 1_555
C5I O1I 1_555 1_555
C6I C7I 1_555 1_555
C6I C8I 1_555 1_555

#END
