
#######################################################################
#
#                 Cambridge Crystallographic Data Centre
#                                CCDC 
#
#######################################################################
#
# If this CIF has been generated from an entry in the Cambridge 
# Structural Database, then it will include bibliographic, chemical, 
# crystal, experimental, refinement or atomic coordinate data resulting 
# from the CCDC's data processing and validation procedures.
#
#######################################################################

data_ECAVUA
_symmetry_cell_setting           triclinic
_symmetry_space_group_name_H-M   'P -1'
_symmetry_Int_Tables_number      2
_space_group_name_Hall           '-P 1'
loop_
_symmetry_equiv_pos_site_id
_symmetry_equiv_pos_as_xyz
1 x,y,z
2 -x,-y,-z
_cell_length_a                   10.7871(6)
_cell_length_b                   10.9016(6)
_cell_length_c                   12.7897(7)
_cell_angle_alpha                96.8500(10)
_cell_angle_beta                 110.0850(10)
_cell_angle_gamma                103.5800(10)
_cell_volume                     1339.74
loop_
_atom_site_label
_atom_site_type_symbol
_atom_site_fract_x
_atom_site_fract_y
_atom_site_fract_z
Cu1 Cu -0.1179(3) -0.0326(2) 0.6847(3)
N1 N -0.1061(17) 0.1414(15) 0.6828(15)
N2 N -0.1299(17) -0.2126(14) 0.6741(14)
C1 C -0.033(2) 0.2396(18) 0.7754(19)
H1 H 0.0166 0.2193 0.8430
C2 C -0.026(2) 0.367(2) 0.7766(19)
H2 H 0.0277 0.4305 0.8430
C3 C -0.1010(18) 0.4020(14) 0.6766(15)
C4 C -0.173(2) 0.3044(16) 0.5807(18)
H3 H -0.2198 0.3240 0.5121
C5 C -0.176(2) 0.1765(18) 0.5843(18)
H4 H -0.2264 0.1127 0.5180
C6 C -0.1059(19) 0.5380(16) 0.6769(17)
C7 C -0.124(2) 0.6095(17) 0.7650(18)
H5 H -0.1247 0.5754 0.8281
C8 C -0.140(2) -0.2695(16) 0.7599(19)
H6 H -0.1585 -0.2260 0.8172
C9 C -0.1144(19) -0.2802(16) 0.5881(16)
H7 H -0.1100 -0.2428 0.5273
C10 C -0.105(2) 0.5953(19) 0.5867(16)
H8 H -0.0970 0.5497 0.5241
Cu1_2 Cu -0.1179(3) 0.9674(2) 0.6847(3)
Cu1_3 Cu -0.1179(3) -1.0326(2) 0.6847(3)
N1_2 N -0.1061(17) 1.1414(15) 0.6828(15)
N1_3 N -0.1061(17) -0.8586(15) 0.6828(15)
N2_2 N -0.1299(17) 0.7874(14) 0.6741(14)
C1_2 C -0.033(2) -0.7604(18) 0.7754(19)
H1_2 H 0.0166 -0.7807 0.8430
C2_2 C -0.026(2) -0.633(2) 0.7766(19)
H2_2 H 0.0277 -0.5695 0.8430
C3_2 C -0.1010(18) -0.5980(14) 0.6766(15)
C4_2 C -0.173(2) -0.6956(16) 0.5807(18)
H3_2 H -0.2198 -0.6760 0.5121
C5_2 C -0.176(2) -0.8235(18) 0.5843(18)
H4_2 H -0.2264 -0.8873 0.5180
C6_2 C -0.1059(19) -0.4620(16) 0.6769(17)
C7_2 C -0.124(2) -0.3905(17) 0.7650(18)
H5_2 H -0.1247 -0.4246 0.8281
C8_2 C -0.140(2) 0.7305(16) 0.7599(19)
H6_2 H -0.1585 0.7740 0.8172
C9_2 C -0.1144(19) 0.7198(16) 0.5881(16)
H7_2 H -0.1100 0.7572 0.5273
C10_2 C -0.105(2) -0.4047(19) 0.5867(16)
H8_2 H -0.0970 -0.4503 0.5241
Mo1 Mo 0.61519(17) -0.27960(14) 1.02717(13)
Mo2 Mo 0.55760(17) -0.02690(16) 0.74188(13)
Mo3 Mo 0.67903(16) 0.28777(14) 1.21576(13)
Mo4 Mo 0.71465(17) 0.27236(14) 0.94892(14)
Mo5 Mo 0.76718(18) -0.00478(18) 1.25394(14)
Mo6 Mo 0.8245(2) 0.0022(2) 1.00056(17)
P1 P 0.5000 0.0000 1.0000
O1 O 0.624(2) -0.057(2) 1.0529(19)
O4 O 0.603(3) 0.051(2) 0.944(2)
O5 O 0.867(2) 0.0202(16) 1.1602(14)
O6 O 0.8134(17) 0.4059(16) 0.9328(13)
O7 O 1.0000 0.0000 1.0000
O8 O 0.643(2) 0.1665(15) 0.8112(14)
O9 O 0.7236(18) -0.0421(15) 0.8391(14)
O10 O 0.7779(18) 0.1761(17) 1.275(2)
O11 O 0.748(2) -0.1868(18) 0.9932(15)
O12 O 0.8453(18) 0.1747(15) 1.0045(13)
O13 O 0.7574(14) 0.4205(15) 1.3203(12)
O14 O 0.692(2) -0.1824(19) 1.1824(17)
O15 O 0.5792(17) -0.0314(12) 0.6198(12)
O16 O 0.6121(16) -0.0239(16) 1.2992(19)
O17 O 0.4560(16) -0.1935(15) 0.7254(18)
O18 O 0.4459(15) -0.3210(17) 1.0713(12)
O19 O 0.8871(14) -0.0059(13) 1.3771(11)
O20 O 0.7576(15) 0.3208(17) 1.1147(11)
O21 O 0.4813(15) -0.3306(14) 0.8763(11)
O22 O 0.6603(19) -0.4135(17) 1.0477(13)
Mo1A Mo 0.38481(17) 0.27960(14) 0.97283(13)
Mo2A Mo 0.44240(17) 0.02690(16) 1.25812(13)
Mo3A Mo 0.32097(16) -0.28777(14) 0.78424(13)
Mo4A Mo 0.28535(17) -0.27236(14) 1.05108(14)
Mo5A Mo 0.23282(18) 0.00478(18) 0.74606(14)
Mo6A Mo 0.1755(2) -0.0022(2) 0.99944(17)
Mo6A_2 Mo 1.1755(2) -0.0022(2) 0.99944(17)
O1A O 0.376(2) 0.057(2) 0.9471(19)
O4A O 0.397(3) -0.051(2) 1.056(2)
O5A O 0.133(2) -0.0202(16) 0.8398(14)
O6A O 0.1866(17) -0.4059(16) 1.0672(13)
O7_2 O 0.0000 0.0000 1.0000
O8A O 0.357(2) -0.1665(15) 1.1888(14)
O9A O 0.2764(18) 0.0421(15) 1.1609(14)
O10A O 0.2221(18) -0.1761(17) 0.725(2)
O11A O 0.252(2) 0.1868(18) 1.0068(15)
O12A O 0.1547(18) -0.1747(15) 0.9955(13)
O13A O 0.2426(14) -0.4205(15) 0.6797(12)
O14A O 0.308(2) 0.1824(19) 0.8176(17)
O15A O 0.4208(17) 0.0314(12) 1.3802(12)
O16A O 0.3879(16) 0.0239(16) 0.7008(19)
O17A O 0.5440(16) 0.1935(15) 1.2746(18)
O18A O 0.5541(15) 0.3210(17) 0.9287(12)
O19A O 0.1129(14) 0.0059(13) 0.6229(11)
O20A O 0.2424(15) -0.3208(17) 0.8853(11)
O21A O 0.5187(15) 0.3306(14) 1.1237(11)
O22A O 0.3397(19) 0.4135(17) 0.9523(13)
N3 N 0.5489(17) -0.2950(15) 1.3198(13)
C11 C 0.5085(16) -0.4551(15) 1.4587(15)
C12 C 0.518(2) -0.3278(19) 1.4878(19)
H9 H 0.5051 -0.2962 1.5527
C13 C 0.548(3) -0.247(2) 1.4189(16)
H10 H 0.5681 -0.1576 1.4426
C14 C 0.539(3) -0.4164(19) 1.290(2)
H11 H 0.5497 -0.4455 1.2230
C15 C 0.514(2) -0.503(2) 1.3570(17)
H12 H 0.5013 -0.5906 1.3328
N3A N 0.4511(17) -0.7050(15) 1.6802(13)
C11A C 0.4915(16) -0.5449(15) 1.5413(15)
C12A C 0.482(2) -0.6722(19) 1.5122(19)
H9A H 0.4949 -0.7038 1.4473
C13A C 0.452(3) -0.753(2) 1.5811(16)
H10A H 0.4319 -0.8424 1.5574
C14A C 0.461(3) -0.5836(19) 1.710(2)
H11A H 0.4503 -0.5545 1.7770
C15A C 0.486(2) -0.497(2) 1.6430(17)
H12A H 0.4987 -0.4094 1.6672
O2? O 0.568(2) 0.060(2) 1.1276(19)
O3? O 0.550(2) 0.140(2) 1.0249(18)
loop_
_geom_bond_atom_site_label_1
_geom_bond_atom_site_label_2
_geom_bond_site_symmetry_1
_geom_bond_site_symmetry_2
Cu1 N1 1_555 1_555
Mo1 O1 1_555 1_555
Mo2 O4 1_555 1_555
Mo3 O10 1_555 1_555
Mo4 O4 1_555 1_555
Mo5 O1 1_555 1_555
Mo6 O1 1_555 1_555
P1 O1 1_555 1_555
N1 C1 1_555 1_555
N2 Cu1 1_555 1_555
N3 C13 1_555 1_555
C1 H1 1_555 1_555
C2 C1 1_555 1_555
H2 C2 1_555 1_555
C3 C2 1_555 1_555
C4 C3 1_555 1_555
H3 C4 1_555 1_555
C5 N1 1_555 1_555
H4 C5 1_555 1_555
C6 C3 1_555 1_555
C7 C6 1_555 1_555
H5 C7 1_555 1_555
C8 N2 1_555 1_555
H6 C8 1_555 1_555
C9 N2 1_555 1_555
H7 C9 1_555 1_555
C10 C6 1_555 1_555
H8 C10 1_555 1_555
C11 C12 1_555 1_555
C12 H9 1_555 1_555
C13 C12 1_555 1_555
H10 C13 1_555 1_555
C14 N3 1_555 1_555
H11 C14 1_555 1_555
C15 C11 1_555 1_555
H12 C15 1_555 1_555
O4 Mo6 1_555 1_555
O5 Mo5 1_555 1_555
O6 Mo4 1_555 1_555
O7 Mo6 1_555 1_555
O8 Mo2 1_555 1_555
O9 Mo2 1_555 1_555
O10 Mo5 1_555 1_555
O11 Mo1 1_555 1_555
O12 Mo4 1_555 1_555
O13 Mo3 1_555 1_555
O14 Mo1 1_555 1_555
O15 Mo2 1_555 1_555
O16 Mo5 1_555 1_555
O17 Mo2 1_555 1_555
O18 Mo1 1_555 1_555
O19 Mo5 1_555 1_555
O20 Mo3 1_555 1_555
O21 Mo1 1_555 1_555
O22 Mo1 1_555 1_555
Cu1_2 N1_2 1_555 1_555
Cu1_3 N1_3 1_555 1_555
Mo1A O1A 1_555 1_555
Mo2A O16 1_555 1_555
Mo3A O17 1_555 1_555
Mo4A O18 1_555 1_555
Mo5A O1A 1_555 1_555
Mo6A O1A 1_555 1_555
Mo6A_2 O7 1_555 1_555
N1_3 C1_2 1_555 1_555
N2_2 Cu1_2 1_555 1_555
N3A C13A 1_555 1_555
C1_2 H1_2 1_555 1_555
C2_2 C1_2 1_555 1_555
H2_2 C2_2 1_555 1_555
C3_2 C2_2 1_555 1_555
C4_2 C3_2 1_555 1_555
H3_2 C4_2 1_555 1_555
C5_2 N1_3 1_555 1_555
H4_2 C5_2 1_555 1_555
C6_2 C3_2 1_555 1_555
C7_2 C8 1_555 1_555
H5_2 C7_2 1_555 1_555
C8_2 C7 1_555 1_555
H6_2 C8_2 1_555 1_555
C9_2 C10 1_555 1_555
H7_2 C9_2 1_555 1_555
C10_2 C9 1_555 1_555
H8_2 C10_2 1_555 1_555
C11A C11 1_555 1_555
C12A C11A 1_555 1_555
H9A C12A 1_555 1_555
C13A C12A 1_555 1_555
H10A C13A 1_555 1_555
C14A N3A 1_555 1_555
H11A C14A 1_555 1_555
C15A C11A 1_555 1_555
H12A C15A 1_555 1_555
O1A P1 1_555 1_555
O4A P1 1_555 1_555
O5A Mo5A 1_555 1_555
O6A Mo4A 1_555 1_555
O7_2 Mo6A 1_555 1_555
O8A Mo2A 1_555 1_555
O9A Mo2A 1_555 1_555
O10A Mo3A 1_555 1_555
O11A Mo1A 1_555 1_555
O12A Mo4A 1_555 1_555
O13A Mo3A 1_555 1_555
O14A Mo1A 1_555 1_555
O15A Mo2A 1_555 1_555
O16A Mo2 1_555 1_555
O17A Mo3 1_555 1_555
O18A Mo4 1_555 1_555
O19A Mo5A 1_555 1_555
O20A Mo3A 1_555 1_555
O21A Mo3 1_555 1_555
O22A Mo1A 1_555 1_555
Mo4 O8 1_555 1_555
Mo4 O20 1_555 1_555
Mo5 O14 1_555 1_555
Mo6 O5 1_555 1_555
Mo6 O9 1_555 1_555
Mo6 O11 1_555 1_555
Mo6 O12 1_555 1_555
P1 O4 1_555 1_555
C4 C5 1_555 1_555
C14 C15 1_555 1_555
O21 Mo3A 1_555 1_555
Mo1A O18A 1_555 1_555
Mo1A O21A 1_555 1_555
Mo2A O4A 1_555 1_555
Mo2A O17A 1_555 1_555
Mo4A O4A 1_555 1_555
Mo4A O8A 1_555 1_555
Mo4A O20A 1_555 1_555
Mo5A O10A 1_555 1_555
Mo5A O14A 1_555 1_555
Mo5A O16A 1_555 1_555
Mo6A O4A 1_555 1_555
Mo6A O5A 1_555 1_555
Mo6A O9A 1_555 1_555
Mo6A O11A 1_555 1_555
Mo6A O12A 1_555 1_555
N2_2 C8_2 1_555 1_555
N2_2 C9_2 1_555 1_555
C4_2 C5_2 1_555 1_555
C6_2 C7_2 1_555 1_555
C6_2 C10_2 1_555 1_555
C14A C15A 1_555 1_555

#END
