
#######################################################################
#
#                 Cambridge Crystallographic Data Centre
#                                CCDC 
#
#######################################################################
#
# If this CIF has been generated from an entry in the Cambridge 
# Structural Database, then it will include bibliographic, chemical, 
# crystal, experimental, refinement or atomic coordinate data resulting 
# from the CCDC's data processing and validation procedures.
#
#######################################################################

data_ECAWIP
_symmetry_cell_setting           monoclinic
_symmetry_space_group_name_H-M   'P 21/n'
_symmetry_Int_Tables_number      14
_space_group_name_Hall           '-P 2yn'
loop_
_symmetry_equiv_pos_site_id
_symmetry_equiv_pos_as_xyz
1 x,y,z
2 1/2-x,1/2+y,1/2-z
3 -x,-y,-z
4 1/2+x,1/2-y,1/2+z
_cell_length_a                   10.1339(15)
_cell_length_b                   9.0505(14)
_cell_length_c                   17.211(3)
_cell_angle_alpha                90
_cell_angle_beta                 90.012(14)
_cell_angle_gamma                90
_cell_volume                     1578.54
loop_
_atom_site_label
_atom_site_type_symbol
_atom_site_fract_x
_atom_site_fract_y
_atom_site_fract_z
K1 K 0.22194(13) -0.37631(11) 0.24485(8)
B1 B 0.0007(6) -0.0771(5) 0.1705(4)
N1 N 0.0014(4) -0.1403(4) 0.2554(3)
N2 N 0.0977(5) -0.0917(5) 0.3049(3)
C1 C 0.0761(6) -0.1648(6) 0.3712(3)
H1 H 0.1283 -0.1536 0.4167
C2 C -0.0304(7) -0.2577(8) 0.3657(4)
H2 H -0.0646 -0.3219 0.4045
C3 C -0.0760(6) -0.2373(6) 0.2921(4)
H3 H -0.1511 -0.2845 0.2703
N3 N 0.1227(4) -0.1445(4) 0.1255(2)
N4 N 0.2476(4) -0.1028(5) 0.1454(3)
C4 C 0.3288(6) -0.1827(6) 0.1006(4)
H4 H 0.4224 -0.1771 0.1021
C5 C 0.2565(7) -0.2757(5) 0.0510(3)
H5 H 0.2899 -0.3437 0.0138
C6 C 0.1280(6) -0.2468(6) 0.0683(3)
H6 H 0.0538 -0.2912 0.0439
N5 N -0.1264(4) -0.1257(4) 0.1284(3)
N6 N -0.1634(5) -0.2724(4) 0.1243(3)
C7 C -0.2706(6) -0.2741(6) 0.0801(3)
H7 H -0.3191 -0.3609 0.0678
C8 C -0.3034(6) -0.1324(6) 0.0536(3)
H8 H -0.3751 -0.1051 0.0210
C9 C -0.2097(5) -0.0423(5) 0.0851(3)
H9 H -0.2037 0.0615 0.0779
C10 C 0.0069(5) 0.1013(5) 0.1717(3)
C11 C -0.0572(6) 0.1796(6) 0.2300(3)
H10 H -0.0946 0.1266 0.2722
C12 C -0.0684(6) 0.3323(6) 0.2287(4)
H11 H -0.1136 0.3825 0.2693
C13 C -0.0126(6) 0.4117(5) 0.1671(4)
H12 H -0.0221 0.5160 0.1646
C14 C 0.0560(6) 0.3378(6) 0.1105(4)
H13 H 0.0977 0.3919 0.0700
C15 C 0.0650(6) 0.1839(5) 0.1116(4)
H14 H 0.1111 0.1343 0.0713
K1A K 0.27806(13) 0.12369(11) 0.25515(8)
N2A N 0.4023(5) -0.5917(5) 0.1951(3)
N4A N 0.2524(4) -0.6028(5) 0.3546(3)
C10A C 0.4931(5) -0.3987(5) 0.3283(3)
loop_
_geom_bond_atom_site_label_1
_geom_bond_atom_site_label_2
_geom_bond_site_symmetry_1
_geom_bond_site_symmetry_2
K1 N1 1_555 1_555
B1 N1 1_555 1_555
N1 N2 1_555 1_555
N2 K1 1_555 1_555
C1 N2 1_555 1_555
H1 C1 1_555 1_555
C2 C1 1_555 1_555
H2 C2 1_555 1_555
C3 N1 1_555 1_555
H3 C3 1_555 1_555
N3 K1 1_555 1_555
N4 K1 1_555 1_555
C4 N4 1_555 1_555
H4 C4 1_555 1_555
C5 C4 1_555 1_555
H5 C5 1_555 1_555
C6 N3 1_555 1_555
H6 C6 1_555 1_555
N5 B1 1_555 1_555
N6 N5 1_555 1_555
C7 N6 1_555 1_555
H7 C7 1_555 1_555
C8 C7 1_555 1_555
H8 C8 1_555 1_555
C9 N5 1_555 1_555
H9 C9 1_555 1_555
C10 B1 1_555 1_555
C11 C10 1_555 1_555
H10 C11 1_555 1_555
C12 C11 1_555 1_555
H11 C12 1_555 1_555
C13 C12 1_555 1_555
H12 C13 1_555 1_555
C14 C13 1_555 1_555
H13 C14 1_555 1_555
C15 C10 1_555 1_555
H14 C15 1_555 1_555
K1A N2 1_555 1_555
N2A K1 1_555 1_555
N4A K1 1_555 1_555
C10A K1 1_555 1_555
B1 N3 1_555 1_555
C2 C3 1_555 1_555
N3 N4 1_555 1_555
N4 K1A 1_555 1_555
C5 C6 1_555 1_555
C8 C9 1_555 1_555
C10 K1A 1_555 1_555
C14 C15 1_555 1_555

#END
