
#######################################################################
#
#                 Cambridge Crystallographic Data Centre
#                                CCDC 
#
#######################################################################
#
# If this CIF has been generated from an entry in the Cambridge 
# Structural Database, then it will include bibliographic, chemical, 
# crystal, experimental, refinement or atomic coordinate data resulting 
# from the CCDC's data processing and validation procedures.
#
#######################################################################

data_ECAWUC
_symmetry_cell_setting           monoclinic
_symmetry_space_group_name_H-M   'P 21/n'
_symmetry_Int_Tables_number      14
_space_group_name_Hall           '-P 2yn'
loop_
_symmetry_equiv_pos_site_id
_symmetry_equiv_pos_as_xyz
1 x,y,z
2 1/2-x,1/2+y,1/2-z
3 -x,-y,-z
4 1/2+x,1/2-y,1/2+z
_cell_length_a                   4.794(5)
_cell_length_b                   24.697(5)
_cell_length_c                   11.500(5)
_cell_angle_alpha                90
_cell_angle_beta                 93.631(5)
_cell_angle_gamma                90
_cell_volume                     1358.84
loop_
_atom_site_label
_atom_site_type_symbol
_atom_site_fract_x
_atom_site_fract_y
_atom_site_fract_z
Cu1 Cu 0.00185(10) -0.01434(2) 0.62705(4)
O1 O 0.0242(6) 0.04784(11) 0.5249(2)
O2 O -0.1166(5) -0.07890(11) 0.7147(2)
O3 O -0.5359(6) -0.04247(11) 0.6721(2)
O4 O -0.3353(6) -0.16789(11) 0.8161(2)
N1 N 0.0100(7) 0.03438(13) 0.7658(3)
C1 C 0.1680(9) 0.02229(18) 0.8626(3)
H1 H 0.2758 -0.0100 0.8642
C2 C 0.1800(10) 0.0549(2) 0.9598(4)
H2 H 0.2953 0.0454 1.0269
C3 C 0.0231(10) 0.10142(19) 0.9584(4)
H3 H 0.0245 0.1242 1.0250
C4 C -0.1362(10) 0.11432(18) 0.8587(4)
H4 H -0.2442 0.1466 0.8555
C5 C -0.1397(8) 0.08016(17) 0.7624(3)
C6 C -0.2962(9) 0.09365(18) 0.6493(3)
H5 H -0.3967 0.1284 0.6570
H6 H -0.4362 0.0651 0.6297
C7 C -0.0939(9) 0.09826(17) 0.5506(3)
H7 H -0.1961 0.1127 0.4798
H8 H 0.0573 0.1241 0.5742
C8 C -0.3811(8) -0.07954(16) 0.7124(3)
C9 C -0.5218(8) -0.12886(16) 0.7636(4)
H9 H -0.6482 -0.1162 0.8228
H10 H -0.6384 -0.1468 0.7007
C10 C -0.1885(8) -0.20057(16) 0.7451(3)
C11 C -0.0104(9) -0.23764(17) 0.8026(4)
H11 H -0.0009 -0.2396 0.8853
C12 C 0.1519(9) -0.27150(18) 0.7406(4)
H12 H 0.2735 -0.2966 0.7807
C13 C 0.1401(9) -0.26947(18) 0.6197(4)
H13 H 0.2537 -0.2927 0.5769
C14 C -0.0392(9) -0.23313(17) 0.5632(3)
H14 H -0.0508 -0.2317 0.4805
C15 C -0.2018(8) -0.19887(17) 0.6244(3)
H15 H -0.3237 -0.1740 0.5839
Cu1B Cu -0.00185(10) 0.01434(2) 0.37295(4)
Cu1_2 Cu -0.99815(10) -0.01434(2) 0.62705(4)
O1B O -0.0242(6) -0.04784(11) 0.4751(2)
O3_2 O 0.4641(6) -0.04247(11) 0.6721(2)
loop_
_geom_bond_atom_site_label_1
_geom_bond_atom_site_label_2
_geom_bond_site_symmetry_1
_geom_bond_site_symmetry_2
Cu1 O1 1_555 1_555
O1 C7 1_555 1_555
O2 Cu1 1_555 1_555
O3 C8 1_555 1_555
O4 C9 1_555 1_555
N1 Cu1 1_555 1_555
C1 N1 1_555 1_555
H1 C1 1_555 1_555
C2 C1 1_555 1_555
H2 C2 1_555 1_555
C3 C2 1_555 1_555
H3 C3 1_555 1_555
C4 C3 1_555 1_555
H4 C4 1_555 1_555
C5 N1 1_555 1_555
C6 C5 1_555 1_555
H5 C6 1_555 1_555
H6 C6 1_555 1_555
C7 C6 1_555 1_555
H7 C7 1_555 1_555
H8 C7 1_555 1_555
C8 O2 1_555 1_555
C9 C8 1_555 1_555
H9 C9 1_555 1_555
H10 C9 1_555 1_555
C10 O4 1_555 1_555
C11 C10 1_555 1_555
H11 C11 1_555 1_555
C12 C11 1_555 1_555
H12 C12 1_555 1_555
C13 C12 1_555 1_555
H13 C13 1_555 1_555
C14 C13 1_555 1_555
H14 C14 1_555 1_555
C15 C10 1_555 1_555
H15 C15 1_555 1_555
Cu1B O1 1_555 1_555
Cu1_2 O3 1_555 1_555
O1B Cu1 1_555 1_555
O3_2 Cu1 1_555 1_555
C4 C5 1_555 1_555
C14 C15 1_555 1_555
Cu1B O1B 1_555 1_555

#END
