
#######################################################################
#
#                 Cambridge Crystallographic Data Centre
#                                CCDC 
#
#######################################################################
#
# If this CIF has been generated from an entry in the Cambridge 
# Structural Database, then it will include bibliographic, chemical, 
# crystal, experimental, refinement or atomic coordinate data resulting 
# from the CCDC's data processing and validation procedures.
#
#######################################################################

data_ECAWAH
_symmetry_cell_setting           orthorhombic
_symmetry_space_group_name_H-M   'P n a 21'
_symmetry_Int_Tables_number      33
_space_group_name_Hall           'P 2c -2n'
loop_
_symmetry_equiv_pos_site_id
_symmetry_equiv_pos_as_xyz
1 x,y,z
2 -x,-y,1/2+z
3 1/2+x,1/2-y,z
4 1/2-x,1/2+y,1/2+z
_cell_length_a                   21.4231(18)
_cell_length_b                   22.282(3)
_cell_length_c                   9.1786(12)
_cell_angle_alpha                90
_cell_angle_beta                 90
_cell_angle_gamma                90
_cell_volume                     4381.4
loop_
_atom_site_label
_atom_site_type_symbol
_atom_site_fract_x
_atom_site_fract_y
_atom_site_fract_z
K1 K 0.40286(5) -0.30422(6) -0.37181(15)
K2 K 0.58450(5) -0.20746(6) -0.29482(13)
K3 K 0.24939(6) -0.18671(6) -0.3456(2)
B1 B 0.4416(3) -0.1527(4) -0.1445(7)
N1 N 0.5046(2) -0.1279(2) -0.1096(5)
C1 C 0.5324(3) -0.1398(4) 0.0337(7)
H1 H 0.5778 -0.1348 0.0279
H2 H 0.5227 -0.1810 0.0635
H3 H 0.5154 -0.1117 0.1054
C2 C 0.5218(3) -0.0676(3) -0.1591(8)
H4 H 0.4986 -0.0376 -0.1027
H5 H 0.5116 -0.0633 -0.2627
H6 H 0.5667 -0.0615 -0.1451
B2 B 0.6095(3) -0.3999(3) -0.3658(7)
N2 N 0.6728(2) -0.4156(2) -0.4266(5)
C3 C 0.7141(2) -0.4549(2) -0.3488(6)
H7 H 0.6926 -0.4927 -0.3276
H8 H 0.7267 -0.4358 -0.2572
H9 H 0.7511 -0.4629 -0.4083
C4 C 0.6840(3) -0.4221(3) -0.5819(7)
H10 H 0.7272 -0.4350 -0.5980
H11 H 0.6770 -0.3836 -0.6305
H12 H 0.6554 -0.4522 -0.6219
B3 B 0.2549(3) -0.3588(3) -0.4846(8)
N3 N 0.3153(2) -0.3915(2) -0.4983(6)
C5 C 0.3243(3) -0.4462(3) -0.4175(8)
H13 H 0.3690 -0.4557 -0.4135
H14 H 0.3082 -0.4411 -0.3183
H15 H 0.3020 -0.4790 -0.4657
C6 C 0.3452(2) -0.3958(3) -0.6412(8)
H16 H 0.3293 -0.4310 -0.6930
H17 H 0.3360 -0.3595 -0.6978
H18 H 0.3905 -0.3996 -0.6286
N4 N 0.3853(2) -0.1204(2) -0.0698(5)
N5 N 0.3245(2) -0.1331(2) -0.1069(6)
C7 C 0.2907(3) -0.1022(3) -0.0110(7)
H19 H 0.2464 -0.1030 -0.0070
C8 C 0.3275(3) -0.0688(3) 0.0818(8)
H20 H 0.3143 -0.0423 0.1568
C9 C 0.3870(3) -0.0826(3) 0.0413(7)
H21 H 0.4238 -0.0674 0.0857
N6 N 0.42966(18) -0.14493(19) -0.3148(5)
N7 N 0.45977(19) -0.1811(2) -0.4132(5)
C10 C 0.4451(3) -0.1571(3) -0.5425(7)
H22 H 0.4591 -0.1731 -0.6327
C11 C 0.4079(3) -0.1074(3) -0.5315(8)
H23 H 0.3923 -0.0827 -0.6075
C12 C 0.3987(3) -0.1020(2) -0.3848(8)
H24 H 0.3738 -0.0720 -0.3396
N8 N 0.4387(2) -0.2187(2) -0.0979(5)
N9 N 0.48357(19) -0.2586(2) -0.1408(5)
C13 C 0.4700(2) -0.3097(3) -0.0752(6)
H25 H 0.4936 -0.3455 -0.0859
C14 C 0.4175(3) -0.3046(3) 0.0109(6)
H26 H 0.3985 -0.3348 0.0689
C15 C 0.3992(2) -0.2465(3) -0.0058(7)
H27 H 0.3642 -0.2285 0.0401
N10 N 0.6174(2) -0.3739(2) -0.2073(5)
N11 N 0.6384(2) -0.3167(2) -0.1805(5)
C16 C 0.6392(2) -0.3115(3) -0.0351(6)
H28 H 0.6515 -0.2761 0.0148
C17 C 0.6200(2) -0.3637(3) 0.0345(6)
H29 H 0.6167 -0.3711 0.1362
C18 C 0.6068(2) -0.4023(3) -0.0795(7)
H30 H 0.5925 -0.4425 -0.0695
N12 N 0.56450(19) -0.45344(19) -0.3514(5)
N13 N 0.5075(2) -0.4468(2) -0.2871(6)
C19 C 0.4826(3) -0.5011(3) -0.2929(8)
H31 H 0.4425 -0.5103 -0.2550
C20 C 0.5204(3) -0.5425(3) -0.3588(8)
H32 H 0.5124 -0.5840 -0.3747
C21 C 0.5728(3) -0.5098(2) -0.3969(6)
H33 H 0.6085 -0.5248 -0.4466
N14 N 0.5782(2) -0.35326(19) -0.4693(5)
N15 N 0.6057(2) -0.2999(2) -0.5027(5)
C22 C 0.5705(3) -0.2763(3) -0.6069(6)
H34 H 0.5783 -0.2386 -0.6517
C23 C 0.5207(2) -0.3134(3) -0.6422(6)
H35 H 0.4892 -0.3065 -0.7131
C24 C 0.5268(3) -0.3615(3) -0.5539(7)
H36 H 0.4998 -0.3954 -0.5514
N16 N 0.24056(18) -0.34773(18) -0.3194(5)
N17 N 0.2733(2) -0.3054(2) -0.2436(5)
C25 C 0.2562(3) -0.3141(3) -0.1023(7)
H37 H 0.2708 -0.2905 -0.0231
C26 C 0.2152(3) -0.3616(3) -0.0882(7)
H38 H 0.1973 -0.3771 -0.0013
C27 C 0.2061(3) -0.3811(3) -0.2278(7)
H39 H 0.1795 -0.4132 -0.2557
N18 N 0.3103(2) -0.2622(2) -0.5615(5)
N19 N 0.25932(19) -0.2988(2) -0.5712(5)
C28 C 0.2227(3) -0.2794(3) -0.6819(7)
H40 H 0.1847 -0.2976 -0.7122
C29 C 0.2489(3) -0.2297(3) -0.7428(7)
H41 H 0.2338 -0.2064 -0.8220
C30 C 0.3031(3) -0.2209(3) -0.6623(6)
H42 H 0.3316 -0.1889 -0.6783
N20 N 0.19579(19) -0.3917(2) -0.5458(5)
N21 N 0.13625(19) -0.3732(2) -0.5125(6)
C31 C 0.0996(2) -0.4061(3) -0.5987(7)
H43 H 0.0553 -0.4034 -0.5998
C32 C 0.1336(3) -0.4444(3) -0.6860(8)
H44 H 0.1179 -0.4717 -0.7566
C33 C 0.1934(3) -0.4350(3) -0.6502(7)
H45 H 0.2283 -0.4552 -0.6909
K2B K 0.08450(5) -0.29254(6) -0.29482(13)
K3B K 0.74939(6) -0.31329(6) -0.3456(2)
N2B N 0.1728(2) -0.0844(2) -0.4266(5)
N11B N 0.1384(2) -0.1833(2) -0.1805(5)
N21B N 0.63625(19) -0.1268(2) -0.5125(6)
loop_
_geom_bond_atom_site_label_1
_geom_bond_atom_site_label_2
_geom_bond_site_symmetry_1
_geom_bond_site_symmetry_2
K1 N3 1_555 1_555
K2 N1 1_555 1_555
K3 N5 1_555 1_555
B1 N1 1_555 1_555
N1 C1 1_555 1_555
C1 H1 1_555 1_555
H2 C1 1_555 1_555
H3 C1 1_555 1_555
C2 N1 1_555 1_555
H4 C2 1_555 1_555
H5 C2 1_555 1_555
H6 C2 1_555 1_555
B2 N2 1_555 1_555
N2 C3 1_555 1_555
C3 H7 1_555 1_555
H8 C3 1_555 1_555
H9 C3 1_555 1_555
C4 N2 1_555 1_555
H10 C4 1_555 1_555
H11 C4 1_555 1_555
H12 C4 1_555 1_555
B3 N3 1_555 1_555
N3 C5 1_555 1_555
C5 H13 1_555 1_555
H14 C5 1_555 1_555
H15 C5 1_555 1_555
C6 N3 1_555 1_555
H16 C6 1_555 1_555
H17 C6 1_555 1_555
H18 C6 1_555 1_555
N4 B1 1_555 1_555
N5 N4 1_555 1_555
C7 N5 1_555 1_555
H19 C7 1_555 1_555
C8 C7 1_555 1_555
H20 C8 1_555 1_555
C9 N4 1_555 1_555
H21 C9 1_555 1_555
N6 B1 1_555 1_555
N7 K1 1_555 1_555
C10 N7 1_555 1_555
H22 C10 1_555 1_555
C11 C10 1_555 1_555
H23 C11 1_555 1_555
C12 N6 1_555 1_555
H24 C12 1_555 1_555
N8 B1 1_555 1_555
N9 K1 1_555 1_555
C13 N9 1_555 1_555
H25 C13 1_555 1_555
C14 C13 1_555 1_555
H26 C14 1_555 1_555
C15 N8 1_555 1_555
H27 C15 1_555 1_555
N10 B2 1_555 1_555
N11 K2 1_555 1_555
C16 N11 1_555 1_555
H28 C16 1_555 1_555
C17 C16 1_555 1_555
H29 C17 1_555 1_555
C18 N10 1_555 1_555
H30 C18 1_555 1_555
N12 B2 1_555 1_555
N13 N12 1_555 1_555
C19 N13 1_555 1_555
H31 C19 1_555 1_555
C20 C19 1_555 1_555
H32 C20 1_555 1_555
C21 N12 1_555 1_555
H33 C21 1_555 1_555
N14 B2 1_555 1_555
N15 K2 1_555 1_555
C22 N15 1_555 1_555
H34 C22 1_555 1_555
C23 C22 1_555 1_555
H35 C23 1_555 1_555
C24 N14 1_555 1_555
H36 C24 1_555 1_555
N16 B3 1_555 1_555
N17 K1 1_555 1_555
C25 N17 1_555 1_555
H37 C25 1_555 1_555
C26 C25 1_555 1_555
H38 C26 1_555 1_555
C27 N16 1_555 1_555
H39 C27 1_555 1_555
N18 K1 1_555 1_555
N19 B3 1_555 1_555
C28 N19 1_555 1_555
H40 C28 1_555 1_555
C29 C28 1_555 1_555
H41 C29 1_555 1_555
C30 N18 1_555 1_555
H42 C30 1_555 1_555
N20 B3 1_555 1_555
N21 N20 1_555 1_555
C31 N21 1_555 1_555
H43 C31 1_555 1_555
C32 C31 1_555 1_555
H44 C32 1_555 1_555
C33 N20 1_555 1_555
H45 C33 1_555 1_555
K2B N21 1_555 1_555
K3B N2 1_555 1_555
N2B K3 1_555 1_555
N11B K3 1_555 1_555
N21B K2 1_555 1_555
K2 N7 1_555 1_555
K2 N9 1_555 1_555
K3 N17 1_555 1_555
K3 N18 1_555 1_555
C8 C9 1_555 1_555
N6 N7 1_555 1_555
C11 C12 1_555 1_555
N8 N9 1_555 1_555
C14 C15 1_555 1_555
N10 N11 1_555 1_555
N11 K3B 1_555 1_555
C17 C18 1_555 1_555
C20 C21 1_555 1_555
N14 N15 1_555 1_555
C23 C24 1_555 1_555
N16 N17 1_555 1_555
C26 C27 1_555 1_555
N18 N19 1_555 1_555
C29 C30 1_555 1_555
C32 C33 1_555 1_555
K2B N11B 1_555 1_555

#END
