
#######################################################################
#
#                 Cambridge Crystallographic Data Centre
#                                CCDC 
#
#######################################################################
#
# If this CIF has been generated from an entry in the Cambridge 
# Structural Database, then it will include bibliographic, chemical, 
# crystal, experimental, refinement or atomic coordinate data resulting 
# from the CCDC's data processing and validation procedures.
#
#######################################################################

data_ECEMOP
_symmetry_cell_setting           triclinic
_symmetry_space_group_name_H-M   'P -1'
_symmetry_Int_Tables_number      2
_space_group_name_Hall           '-P 1'
loop_
_symmetry_equiv_pos_site_id
_symmetry_equiv_pos_as_xyz
1 x,y,z
2 -x,-y,-z
_cell_length_a                   12.7964(9)
_cell_length_b                   13.3969(9)
_cell_length_c                   14.1537(10)
_cell_angle_alpha                65.381(2)
_cell_angle_beta                 72.5220(10)
_cell_angle_gamma                76.844(2)
_cell_volume                     2089.25
loop_
_atom_site_label
_atom_site_type_symbol
_atom_site_fract_x
_atom_site_fract_y
_atom_site_fract_z
C1 C -0.0459(2) 1.1220(2) 0.1203(2)
C2 C -0.0234(3) 1.2286(2) 0.1007(2)
H1 H 0.0464 1.2506 0.0814
C3 C -0.1241(3) 1.2955(3) 0.1154(3)
H2 H -0.1326 1.3693 0.1072
C4 C -0.2094(3) 1.2312(3) 0.1446(3)
H3 H -0.2845 1.2552 0.1594
C5 C -0.1624(3) 1.1237(3) 0.1478(2)
H4 H -0.2008 1.0650 0.1648
C6 C -0.0487(3) 1.0442(2) 0.3767(2)
C7 C -0.0233(3) 1.1515(2) 0.3540(2)
H5 H 0.0468 1.1732 0.3334
C8 C -0.1253(4) 1.2188(3) 0.3689(3)
H6 H -0.1337 1.2927 0.3602
C9 C -0.2111(3) 1.1550(3) 0.3988(3)
H7 H -0.2861 1.1795 0.4133
C10 C -0.1644(3) 1.0469(2) 0.4035(2)
H8 H -0.2032 0.9883 0.4210
C11 C 0.0360(2) 1.0265(2) 0.1134(2)
C12 C 0.0771(3) 0.8456(3) 0.1375(3)
H9 H 0.0552 0.7765 0.1586
C13 C 0.1880(3) 0.8573(2) 0.1000(2)
H10 H 0.2384 0.7961 0.0963
C14 C 0.1476(2) 1.0379(2) 0.0754(2)
H11 H 0.1698 1.1072 0.0536
C15 C 0.0357(2) 0.9495(2) 0.3727(2)
C16 C 0.2154(3) 0.8838(2) 0.3297(3)
H12 H 0.2890 0.8958 0.2997
C17 C 0.1890(2) 0.7775(2) 0.3712(2)
H13 H 0.2448 0.7195 0.3701
C18 C 0.0089(2) 0.8425(2) 0.4128(2)
H14 H -0.0649 0.8306 0.4406
C19 C 0.5399(2) 0.9279(2) -0.1480(2)
C20 C 0.5701(2) 0.8791(2) -0.2313(2)
C21 C 0.4899(3) 0.8597(4) -0.2649(4)
H15 H 0.4160 0.8779 -0.2362
C22 C 0.5176(4) 0.8135(5) -0.3406(5)
H16 H 0.4620 0.7995 -0.3617
C23 C 0.6244(5) 0.7881(4) -0.3851(4)
H17 H 0.6424 0.7587 -0.4378
C24 C 0.7040(3) 0.8060(3) -0.3522(3)
H18 H 0.7777 0.7861 -0.3801
C25 C 0.6771(3) 0.8540(3) -0.2770(3)
H19 H 0.7331 0.8693 -0.2574
C26 C 0.5511(3) 0.8021(2) 0.1162(2)
C27 C 0.5850(3) 0.6817(2) 0.1730(2)
C28 C 0.5089(3) 0.6081(2) 0.2154(3)
H20 H 0.4360 0.6331 0.2107
C29 C 0.5408(4) 0.4961(3) 0.2653(3)
H21 H 0.4894 0.4458 0.2933
C30 C 0.6481(4) 0.4598(3) 0.2733(3)
H22 H 0.6692 0.3848 0.3070
C31 C 0.7237(4) 0.5323(3) 0.2326(3)
H23 H 0.7962 0.5069 0.2388
C32 C 0.6929(3) 0.6445(3) 0.1815(2)
H24 H 0.7447 0.6943 0.1533
C33 C 0.0983(3) 0.4887(2) 0.3194(2)
C34 C 0.1674(3) 0.4804(2) 0.2166(2)
C35 C 0.1437(4) 0.4163(3) 0.1735(3)
H25 H 0.0813 0.3793 0.2068
C36 C 0.2117(4) 0.4059(3) 0.0808(3)
H26 H 0.1942 0.3626 0.0519
C37 C 0.3031(4) 0.4579(3) 0.0318(3)
H27 H 0.3496 0.4489 -0.0294
C38 C 0.3270(4) 0.5240(4) 0.0728(3)
H28 H 0.3894 0.5610 0.0389
C39 C 0.2583(3) 0.5357(3) 0.1645(3)
H29 H 0.2741 0.5818 0.1913
C40 C 0.1761(3) 0.4020(2) 0.5595(2)
C41 C 0.2792(3) 0.3344(2) 0.5884(2)
C42 C 0.2778(3) 0.2242(3) 0.6549(3)
H30 H 0.2115 0.1937 0.6841
C43 C 0.3739(4) 0.1592(3) 0.6784(3)
H31 H 0.3721 0.0860 0.7257
C44 C 0.4707(4) 0.2026(4) 0.6323(4)
H32 H 0.5360 0.1577 0.6450
C45 C 0.4740(3) 0.3119(4) 0.5669(3)
H33 H 0.5410 0.3412 0.5371
C46 C 0.3776(3) 0.3784(3) 0.5455(3)
H34 H 0.3794 0.4528 0.5021
Cu1 Cu 0.39714(3) 0.98062(2) 0.02406(3)
Cu2 Cu 0.03991(3) 0.59222(2) 0.47346(3)
Fe1 Fe -0.11319(4) 1.16040(3) 0.25291(3)
N1 N 0.0007(2) 0.9289(2) 0.1449(2)
N2 N 0.22428(19) 0.95394(18) 0.06885(17)
N3 N 0.1402(2) 0.96972(19) 0.3306(2)
N4 N 0.08489(19) 0.75678(17) 0.41298(17)
O1 O 0.44173(16) 0.93074(17) -0.09617(17)
O2 O 0.61643(16) 0.96204(16) -0.13521(15)
O3 O 0.45154(18) 0.83201(15) 0.11449(17)
O4 O 0.62646(17) 0.86462(15) 0.07181(15)
O5 O 0.10877(19) 0.56954(16) 0.33858(16)
O6 O 0.03667(19) 0.41513(16) 0.38053(16)
O7 O 0.17074(18) 0.50505(16) 0.52518(18)
O8 O 0.10055(18) 0.34974(16) 0.57024(18)
Cu1A Cu 0.60286(3) 1.01938(2) -0.02406(3)
Cu2A Cu -0.03991(3) 0.40778(2) 0.52654(3)
O2A O 0.38357(16) 1.03796(16) 0.13521(15)
O4A O 0.37354(17) 1.13538(15) -0.07181(15)
O6A O -0.03667(19) 0.58487(16) 0.61947(16)
O8A O -0.10055(18) 0.65026(16) 0.42976(18)
loop_
_geom_bond_atom_site_label_1
_geom_bond_atom_site_label_2
_geom_bond_site_symmetry_1
_geom_bond_site_symmetry_2
C1 C2 1_555 1_555
C2 H1 1_555 1_555
C3 C2 1_555 1_555
H2 C3 1_555 1_555
C4 C3 1_555 1_555
H3 C4 1_555 1_555
C5 C1 1_555 1_555
H4 C5 1_555 1_555
C6 C7 1_555 1_555
C7 H5 1_555 1_555
C8 C7 1_555 1_555
H6 C8 1_555 1_555
C9 C8 1_555 1_555
H7 C9 1_555 1_555
C10 C6 1_555 1_555
H8 C10 1_555 1_555
C11 C1 1_555 1_555
C12 H9 1_555 1_555
C13 C12 1_555 1_555
H10 C13 1_555 1_555
C14 C11 1_555 1_555
H11 C14 1_555 1_555
C15 C6 1_555 1_555
C16 H12 1_555 1_555
C17 C16 1_555 1_555
H13 C17 1_555 1_555
C18 C15 1_555 1_555
H14 C18 1_555 1_555
C19 C20 1_555 1_555
C20 C21 1_555 1_555
C21 H15 1_555 1_555
C22 C21 1_555 1_555
H16 C22 1_555 1_555
C23 C22 1_555 1_555
H17 C23 1_555 1_555
C24 C23 1_555 1_555
H18 C24 1_555 1_555
C25 C20 1_555 1_555
H19 C25 1_555 1_555
C26 C27 1_555 1_555
C27 C28 1_555 1_555
C28 H20 1_555 1_555
C29 C28 1_555 1_555
H21 C29 1_555 1_555
C30 C29 1_555 1_555
H22 C30 1_555 1_555
C31 C30 1_555 1_555
H23 C31 1_555 1_555
C32 C27 1_555 1_555
H24 C32 1_555 1_555
C33 C34 1_555 1_555
C34 C35 1_555 1_555
C35 H25 1_555 1_555
C36 C35 1_555 1_555
H26 C36 1_555 1_555
C37 C36 1_555 1_555
H27 C37 1_555 1_555
C38 C37 1_555 1_555
H28 C38 1_555 1_555
C39 C34 1_555 1_555
H29 C39 1_555 1_555
C40 C41 1_555 1_555
C41 C42 1_555 1_555
C42 H30 1_555 1_555
C43 C42 1_555 1_555
H31 C43 1_555 1_555
C44 C43 1_555 1_555
H32 C44 1_555 1_555
C45 C44 1_555 1_555
H33 C45 1_555 1_555
C46 C41 1_555 1_555
H34 C46 1_555 1_555
Cu1 N2 1_555 1_555
Cu2 N4 1_555 1_555
Fe1 C1 1_555 1_555
N1 C11 1_555 1_555
N2 C13 1_555 1_555
N3 C15 1_555 1_555
N4 C17 1_555 1_555
O1 C19 1_555 1_555
O2 C19 1_555 1_555
O3 C26 1_555 1_555
O4 C26 1_555 1_555
O5 C33 1_555 1_555
O6 C33 1_555 1_555
O7 C40 1_555 1_555
O8 C40 1_555 1_555
Cu1A Cu1 1_555 1_555
Cu2A Cu2 1_555 1_555
O2A Cu1 1_555 1_555
O4A Cu1 1_555 1_555
O6A Cu2 1_555 1_555
O8A Cu2 1_555 1_555
C2 Fe1 1_555 1_555
C3 Fe1 1_555 1_555
C4 C5 1_555 1_555
C4 Fe1 1_555 1_555
C5 Fe1 1_555 1_555
C6 Fe1 1_555 1_555
C7 Fe1 1_555 1_555
C8 Fe1 1_555 1_555
C9 C10 1_555 1_555
C9 Fe1 1_555 1_555
C10 Fe1 1_555 1_555
C12 N1 1_555 1_555
C14 N2 1_555 1_555
C16 N3 1_555 1_555
C18 N4 1_555 1_555
C24 C25 1_555 1_555
C31 C32 1_555 1_555
C38 C39 1_555 1_555
C45 C46 1_555 1_555
Cu1 O1 1_555 1_555
Cu1 O3 1_555 1_555
Cu2 O5 1_555 1_555
Cu2 O7 1_555 1_555
O2 Cu1A 1_555 1_555
O4 Cu1A 1_555 1_555
O6 Cu2A 1_555 1_555
O8 Cu2A 1_555 1_555

#END
