
#######################################################################
#
#                 Cambridge Crystallographic Data Centre
#                                CCDC 
#
#######################################################################
#
# If this CIF has been generated from an entry in the Cambridge 
# Structural Database, then it will include bibliographic, chemical, 
# crystal, experimental, refinement or atomic coordinate data resulting 
# from the CCDC's data processing and validation procedures.
#
#######################################################################

data_ECESEM
_symmetry_cell_setting           monoclinic
_symmetry_space_group_name_H-M   'P 21/c'
_symmetry_Int_Tables_number      14
_space_group_name_Hall           '-P 2ybc'
loop_
_symmetry_equiv_pos_site_id
_symmetry_equiv_pos_as_xyz
1 x,y,z
2 -x,1/2+y,1/2-z
3 -x,-y,-z
4 x,1/2-y,1/2+z
_cell_length_a                   9.8140(17)
_cell_length_b                   22.615(4)
_cell_length_c                   16.230(3)
_cell_angle_alpha                90
_cell_angle_beta                 106.503(6)
_cell_angle_gamma                90
_cell_volume                     3453.75
loop_
_atom_site_label
_atom_site_type_symbol
_atom_site_fract_x
_atom_site_fract_y
_atom_site_fract_z
Ag1 Ag 0.142672(16) 0.519327(6) 0.865852(10)
P1 P 0.28761(6) 0.58926(2) 0.80935(3)
P2 P 0.03235(6) 0.42755(2) 0.80466(3)
O1 O 0.45855(15) 0.58038(6) 0.85718(9)
O2 O 0.02573(16) 0.37179(6) 0.86875(9)
N1 N 0.69587(18) 0.47689(7) 0.99311(11)
N2 N 0.02475(19) 0.42459(8) 1.08100(11)
C1 C 0.5162(2) 0.52581(9) 0.88435(13)
C2 C 0.6299(2) 0.52618(9) 0.95837(13)
H1 H 0.6617 0.5630 0.9853
C3 C 0.6494(2) 0.42532(9) 0.95420(14)
H2 H 0.6947 0.3898 0.9790
C4 C 0.5388(2) 0.42169(9) 0.87982(14)
H3 H 0.5098 0.3844 0.8538
C5 C 0.4700(2) 0.47291(9) 0.84327(14)
H4 H 0.3939 0.4717 0.7918
C6 C 0.2818(2) 0.58716(9) 0.69736(13)
C7 C 0.1856(2) 0.54974(10) 0.64226(14)
H5 H 0.1190 0.5280 0.6627
C8 C 0.1867(3) 0.54406(11) 0.55750(15)
H6 H 0.1210 0.5183 0.5200
C9 C 0.2829(3) 0.57560(11) 0.52739(15)
H7 H 0.2830 0.5716 0.4691
C10 C 0.3793(2) 0.61295(10) 0.58147(15)
H8 H 0.4453 0.6346 0.5605
C11 C 0.3793(2) 0.61880(9) 0.66654(14)
H9 H 0.4458 0.6444 0.7039
C12 C 0.2742(2) 0.66624(9) 0.83639(13)
C13 C 0.1429(3) 0.69319(10) 0.80332(15)
H10 H 0.0684 0.6727 0.7632
C14 C 0.1208(3) 0.74995(11) 0.82898(18)
H11 H 0.0309 0.7684 0.8065
C15 C 0.2286(3) 0.77958(11) 0.88696(17)
H12 H 0.2126 0.8183 0.9048
C16 C 0.3600(3) 0.75348(11) 0.91940(17)
H13 H 0.4345 0.7744 0.9588
C17 C 0.3830(3) 0.69658(10) 0.89431(15)
H14 H 0.4732 0.6784 0.9168
C18 C 0.0601(2) 0.37731(9) 0.95725(13)
C19 C -0.0005(2) 0.42064(9) 0.99529(13)
H15 H -0.0622 0.4486 0.9597
C20 C 0.1154(2) 0.38573(9) 1.12950(14)
H16 H 0.1365 0.3887 1.1902
C21 C 0.1801(2) 0.34128(9) 1.09545(14)
H17 H 0.2434 0.3144 1.1323
C22 C 0.1516(2) 0.33636(9) 1.00726(14)
H18 H 0.1933 0.3060 0.9820
C23 C -0.1509(2) 0.44040(9) 0.74519(13)
C24 C -0.1897(2) 0.49617(10) 0.70943(15)
H19 H -0.1204 0.5266 0.7177
C25 C -0.3288(3) 0.50745(11) 0.66190(16)
H20 H -0.3544 0.5454 0.6374
C26 C -0.4300(3) 0.46350(12) 0.65031(16)
H21 H -0.5253 0.4713 0.6180
C27 C -0.3927(3) 0.40813(12) 0.68580(16)
H22 H -0.4628 0.3781 0.6777
C28 C -0.2538(2) 0.39607(10) 0.73306(14)
H23 H -0.2289 0.3579 0.7570
C29 C 0.1073(2) 0.38759(9) 0.73075(13)
C30 C 0.0651(2) 0.39983(10) 0.64288(14)
H24 H -0.0089 0.4275 0.6201
C31 C 0.1313(3) 0.37162(11) 0.58881(15)
H25 H 0.1032 0.3803 0.5291
C32 C 0.2383(3) 0.33082(10) 0.62157(16)
H26 H 0.2835 0.3116 0.5843
C33 C 0.2795(2) 0.31803(10) 0.70838(16)
H27 H 0.3521 0.2897 0.7306
C34 C 0.2149(2) 0.34649(10) 0.76313(15)
H28 H 0.2442 0.3379 0.8229
Ag1B Ag 0.857328(16) 0.480673(6) 1.134148(10)
Ag1B_2 Ag -0.142672(16) 0.480673(6) 1.134148(10)
N1B N 0.30413(18) 0.52311(7) 1.00689(11)
N2B N -0.02475(19) 0.57541(8) 0.91900(11)
B1 B 0.2342(3) 0.32486(14) 0.3716(2)
F1 F 0.1770(2) 0.26981(8) 0.37198(16)
F2 F 0.33125(19) 0.33657(14) 0.44889(11)
F3 F 0.12552(18) 0.36603(7) 0.35722(12)
F4 F 0.30007(17) 0.32886(7) 0.30721(9)
N3 N 0.3570(3) 0.78376(11) 0.6475(2)
C35 C 0.2525(3) 0.76016(11) 0.6183(2)
C36 C 0.1182(3) 0.73048(12) 0.58100(19)
H29 H 0.1322 0.6876 0.5865
H30 H 0.0822 0.7410 0.5201
H31 H 0.0495 0.7428 0.6112
loop_
_geom_bond_atom_site_label_1
_geom_bond_atom_site_label_2
_geom_bond_site_symmetry_1
_geom_bond_site_symmetry_2
Ag1 P1 1_555 1_555
P1 O1 1_555 1_555
P2 Ag1 1_555 1_555
O1 C1 1_555 1_555
O2 P2 1_555 1_555
N1 C2 1_555 1_555
N2 C19 1_555 1_555
C1 C2 1_555 1_555
C2 H1 1_555 1_555
C3 N1 1_555 1_555
H2 C3 1_555 1_555
C4 C3 1_555 1_555
H3 C4 1_555 1_555
C5 C1 1_555 1_555
H4 C5 1_555 1_555
C6 P1 1_555 1_555
C7 C6 1_555 1_555
H5 C7 1_555 1_555
C8 C7 1_555 1_555
H6 C8 1_555 1_555
C9 C8 1_555 1_555
H7 C9 1_555 1_555
C10 C9 1_555 1_555
H8 C10 1_555 1_555
C11 C6 1_555 1_555
H9 C11 1_555 1_555
C12 P1 1_555 1_555
C13 C12 1_555 1_555
H10 C13 1_555 1_555
C14 C13 1_555 1_555
H11 C14 1_555 1_555
C15 C14 1_555 1_555
H12 C15 1_555 1_555
C16 C15 1_555 1_555
H13 C16 1_555 1_555
C17 C12 1_555 1_555
H14 C17 1_555 1_555
C18 O2 1_555 1_555
C19 C18 1_555 1_555
H15 C19 1_555 1_555
C20 N2 1_555 1_555
H16 C20 1_555 1_555
C21 C20 1_555 1_555
H17 C21 1_555 1_555
C22 C18 1_555 1_555
H18 C22 1_555 1_555
C23 P2 1_555 1_555
C24 C23 1_555 1_555
H19 C24 1_555 1_555
C25 C24 1_555 1_555
H20 C25 1_555 1_555
C26 C25 1_555 1_555
H21 C26 1_555 1_555
C27 C26 1_555 1_555
H22 C27 1_555 1_555
C28 C23 1_555 1_555
H23 C28 1_555 1_555
C29 P2 1_555 1_555
C30 C29 1_555 1_555
H24 C30 1_555 1_555
C31 C30 1_555 1_555
H25 C31 1_555 1_555
C32 C31 1_555 1_555
H26 C32 1_555 1_555
C33 C32 1_555 1_555
H27 C33 1_555 1_555
C34 C29 1_555 1_555
H28 C34 1_555 1_555
B1 F1 1_555 1_555
F2 B1 1_555 1_555
F3 B1 1_555 1_555
F4 B1 1_555 1_555
N3 C35 1_555 1_555
C35 C36 1_555 1_555
C36 H29 1_555 1_555
H30 C36 1_555 1_555
H31 C36 1_555 1_555
Ag1B N1 1_555 1_555
Ag1B_2 N2 1_555 1_555
N1B Ag1 1_555 1_555
N2B Ag1 1_555 1_555
C4 C5 1_555 1_555
C10 C11 1_555 1_555
C16 C17 1_555 1_555
C21 C22 1_555 1_555
C27 C28 1_555 1_555
C33 C34 1_555 1_555

#END
