
#######################################################################
#
#                 Cambridge Crystallographic Data Centre
#                                CCDC 
#
#######################################################################
#
# If this CIF has been generated from an entry in the Cambridge 
# Structural Database, then it will include bibliographic, chemical, 
# crystal, experimental, refinement or atomic coordinate data resulting 
# from the CCDC's data processing and validation procedures.
#
#######################################################################

data_ECEZES
_symmetry_cell_setting           triclinic
_symmetry_space_group_name_H-M   'P -1'
_symmetry_Int_Tables_number      2
_space_group_name_Hall           '-P 1'
loop_
_symmetry_equiv_pos_site_id
_symmetry_equiv_pos_as_xyz
1 x,y,z
2 -x,-y,-z
_cell_length_a                   4.8931(7)
_cell_length_b                   6.2735(8)
_cell_length_c                   9.5319(13)
_cell_angle_alpha                79.855(2)
_cell_angle_beta                 78.971(3)
_cell_angle_gamma                77.076(3)
_cell_volume                     277.187
loop_
_atom_site_label
_atom_site_type_symbol
_atom_site_fract_x
_atom_site_fract_y
_atom_site_fract_z
Ni1 Ni 0.5000 0.5000 0.5000
O1 O 0.77445(19) 0.68459(15) 0.36591(10)
O2 O 0.1812(2) 0.77141(15) 0.52133(10)
H1 H 0.0408 0.7546 0.4887
O3 O 0.6522(2) 0.55148(16) 0.67832(11)
H2 H 0.6039 0.6856 0.6887
O4 O 0.4727(2) 0.99975(16) 0.31119(11)
C1 C 0.7051(3) 0.8712(2) 0.28667(13)
C2 C 0.9208(3) 0.9235(2) 0.15512(13)
H3 H 1.1147 0.8696 0.1821
C3 C 0.8893(3) 1.1692(2) 0.09785(13)
H4 H 0.9177 1.2495 0.1729
H5 H 0.6950 1.2281 0.0753
C4 C 0.8941(3) 0.7929(2) 0.03792(14)
H6 H 0.9237 0.6334 0.0759
H7 H 0.7002 0.8389 0.0130
H8 H 0.812(5) 0.498(4) 0.680(2)
H9 H 0.242(6) 0.869(5) 0.461(3)
Ni1_2 Ni 1.5000 1.5000 -0.5000
O1A O 1.22555(19) 1.31541(15) -0.36591(10)
O1A_2 O 0.22555(19) 0.31541(15) 0.63409(10)
O2A O 0.8188(2) 0.22859(15) 0.47867(10)
H1A H 0.9592 0.2454 0.5113
O3A O 0.3478(2) 0.44852(16) 0.32168(11)
H2A H 0.3961 0.3144 0.3113
O4A O 1.5273(2) 1.00025(16) -0.31119(11)
C1A C 1.2949(3) 1.1288(2) -0.28667(13)
C2A C 1.0792(3) 1.0765(2) -0.15512(13)
H3A H 0.8853 1.1304 -0.1821
C3A C 1.1107(3) 0.8308(2) -0.09785(13)
H4A H 1.0823 0.7505 -0.1729
H5A H 1.3050 0.7719 -0.0753
C4A C 1.1059(3) 1.2071(2) -0.03792(14)
H6A H 1.0763 1.3666 -0.0759
H7A H 1.2998 1.1611 -0.0130
H8A H 0.188(5) 0.502(4) 0.320(2)
H9A H 0.758(6) 0.131(5) 0.539(3)
loop_
_geom_bond_atom_site_label_1
_geom_bond_atom_site_label_2
_geom_bond_site_symmetry_1
_geom_bond_site_symmetry_2
Ni1 O1 1_555 1_555
O1 C1 1_555 1_555
O2 Ni1 1_555 1_555
H1 O2 1_555 1_555
O3 Ni1 1_555 1_555
H2 O3 1_555 1_555
O4 C1 1_555 1_555
C1 C2 1_555 1_555
C2 H3 1_555 1_555
C3 C2 1_555 1_555
H4 C3 1_555 1_555
H5 C3 1_555 1_555
C4 C2 1_555 1_555
H6 C4 1_555 1_555
H7 C4 1_555 1_555
H8 O3 1_555 1_555
H9 O2 1_555 1_555
Ni1_2 O1A 1_555 1_555
O1A C1A 1_555 1_555
O1A_2 Ni1 1_555 1_555
O2A Ni1 1_555 1_555
H1A O2A 1_555 1_555
O3A Ni1 1_555 1_555
H2A O3A 1_555 1_555
O4A C1A 1_555 1_555
C1A C2A 1_555 1_555
C2A H3A 1_555 1_555
C3A C4 1_555 1_555
H4A C3A 1_555 1_555
H5A C3A 1_555 1_555
C4A C3 1_555 1_555
H6A C4A 1_555 1_555
H7A C4A 1_555 1_555
H8A O3A 1_555 1_555
H9A O2A 1_555 1_555
C2A C3A 1_555 1_555
C2A C4A 1_555 1_555

#END
