
#######################################################################
#
#                 Cambridge Crystallographic Data Centre
#                                CCDC 
#
#######################################################################
#
# If this CIF has been generated from an entry in the Cambridge 
# Structural Database, then it will include bibliographic, chemical, 
# crystal, experimental, refinement or atomic coordinate data resulting 
# from the CCDC's data processing and validation procedures.
#
#######################################################################

data_ECIDID
_symmetry_cell_setting           orthorhombic
_symmetry_space_group_name_H-M   'P c a 21'
_symmetry_Int_Tables_number      29
_space_group_name_Hall           'P 2c -2ac'
loop_
_symmetry_equiv_pos_site_id
_symmetry_equiv_pos_as_xyz
1 x,y,z
2 -x,-y,1/2+z
3 1/2-x,y,1/2+z
4 1/2+x,-y,z
_cell_length_a                   15.350(3)
_cell_length_b                   7.957(2)
_cell_length_c                   13.997(3)
_cell_angle_alpha                90
_cell_angle_beta                 90
_cell_angle_gamma                90
_cell_volume                     1709.59
loop_
_atom_site_label
_atom_site_type_symbol
_atom_site_fract_x
_atom_site_fract_y
_atom_site_fract_z
Co1 Co -0.1751(1) 0.1256(1) -0.4000(1)
N1 N -0.0797(2) 0.0914(3) -0.3013(2)
C1 C 0.0043(2) 0.0607(4) -0.3177(2)
N2 N 0.0460(2) 0.0398(3) -0.2342(2)
C2 C -0.0120(2) 0.0563(5) -0.1617(3)
C3 C -0.0899(2) 0.0897(4) -0.2026(2)
C4 C 0.0473(2) 0.0467(6) -0.4109(3)
N3 N -0.2159(2) -0.1009(3) -0.4479(2)
C5 C -0.2242(2) -0.2452(3) -0.3997(3)
N4 N -0.2440(2) -0.3694(3) -0.4596(2)
C6 C -0.2496(2) -0.3061(4) -0.5507(2)
C7 C -0.2319(2) -0.1394(4) -0.5430(2)
C8 C -0.2157(3) -0.2688(4) -0.2950(3)
O1 O -0.2511(1) 0.3142(2) -0.3557(2)
O2 O -0.2888(1) 0.1031(2) -0.2627(2)
O3 O -0.2634(1) 0.2979(2) -0.0853(2)
O4 O -0.3866(1) 0.2226(3) -0.0106(2)
C9 C -0.3753(2) 0.3527(3) -0.2559(2)
C10 C -0.4001(2) 0.3586(3) -0.1602(2)
C11 C -0.4786(2) 0.4365(4) -0.1354(3)
C12 C -0.5309(2) 0.5087(4) -0.2043(3)
C13 C -0.5060(2) 0.5043(4) -0.3000(3)
C14 C -0.4285(2) 0.4276(4) -0.3256(2)
C15 C -0.2994(2) 0.2501(3) -0.2907(2)
C16 C -0.3435(2) 0.2874(3) -0.0809(2)
H1 H -0.577270 0.549450 -0.188580
H2 H 0.035594 -0.073817 -0.440744
H3 H 0.021057 0.105027 -0.462646
H4 H -0.178211 -0.226097 -0.265538
H5 H -0.408220 0.419520 -0.395830
H6 H -0.229756 -0.063510 -0.581255
H7 H 0.100497 -0.000539 -0.233662
H8 H -0.493270 0.452450 -0.065640
H9 H -0.141985 0.114448 -0.176149
H10 H -0.207558 -0.381184 -0.279784
H11 H 0.105038 0.050564 -0.404772
H12 H 0.004211 0.037092 -0.106619
H13 H -0.542780 0.547180 -0.346380
H14 H -0.268363 -0.234216 -0.264255
H15 H -0.263069 -0.377074 -0.606950
H16 H -0.252693 -0.468301 -0.443884
O4B O -0.1134(1) 0.2226(3) -0.5106(2)
Co1B Co -0.3249(1) 0.1256(1) 0.1000(1)
loop_
_geom_bond_atom_site_label_1
_geom_bond_atom_site_label_2
_geom_bond_site_symmetry_1
_geom_bond_site_symmetry_2
Co1 N1 1_555 1_555
N1 C1 1_555 1_555
C1 N2 1_555 1_555
N2 C2 1_555 1_555
C2 C3 1_555 1_555
C3 N1 1_555 1_555
C4 C1 1_555 1_555
N3 Co1 1_555 1_555
C5 N3 1_555 1_555
N4 C5 1_555 1_555
C6 N4 1_555 1_555
C7 N3 1_555 1_555
C8 C5 1_555 1_555
O1 Co1 1_555 1_555
O2 C15 1_555 1_555
O3 C16 1_555 1_555
O4 C16 1_555 1_555
C9 C10 1_555 1_555
C10 C11 1_555 1_555
C11 C12 1_555 1_555
C12 C13 1_555 1_555
C13 C14 1_555 1_555
C14 C9 1_555 1_555
C15 O1 1_555 1_555
C16 C10 1_555 1_555
H1 C12 1_555 1_555
H2 C4 1_555 1_555
H3 C4 1_555 1_555
H4 C8 1_555 1_555
H5 C14 1_555 1_555
H6 C7 1_555 1_555
H7 N2 1_555 1_555
H8 C11 1_555 1_555
H9 C3 1_555 1_555
H10 C8 1_555 1_555
H11 C4 1_555 1_555
H12 C2 1_555 1_555
H13 C13 1_555 1_555
H14 C8 1_555 1_555
H15 C6 1_555 1_555
H16 N4 1_555 1_555
O4B Co1 1_555 1_555
Co1B O4 1_555 1_555
C6 C7 1_555 1_555
C9 C15 1_555 1_555

#END
