
#######################################################################
#
#                 Cambridge Crystallographic Data Centre
#                                CCDC 
#
#######################################################################
#
# If this CIF has been generated from an entry in the Cambridge 
# Structural Database, then it will include bibliographic, chemical, 
# crystal, experimental, refinement or atomic coordinate data resulting 
# from the CCDC's data processing and validation procedures.
#
#######################################################################

data_ECINEK
_symmetry_cell_setting           monoclinic
_symmetry_space_group_name_H-M   'P 21/c'
_symmetry_Int_Tables_number      14
_space_group_name_Hall           '-P 2ybc'
loop_
_symmetry_equiv_pos_site_id
_symmetry_equiv_pos_as_xyz
1 x,y,z
2 -x,1/2+y,1/2-z
3 -x,-y,-z
4 x,1/2-y,1/2+z
_cell_length_a                   18.489(4)
_cell_length_b                   21.169(4)
_cell_length_c                   18.701(4)
_cell_angle_alpha                90
_cell_angle_beta                 112.47(3)
_cell_angle_gamma                90
_cell_volume                     6763.76
loop_
_atom_site_label
_atom_site_type_symbol
_atom_site_fract_x
_atom_site_fract_y
_atom_site_fract_z
Au1 Au 0.79753(3) 0.21297(3) 0.51389(3)
Au2 Au 0.92112(4) 0.11810(3) 0.62294(3)
Au3 Au 0.77157(4) 0.22627(3) 0.33976(3)
Au4 Au 0.79959(3) 0.24248(3) 0.68953(3)
P1 P 0.8794(2) 0.29607(17) 0.5335(2)
P2 P 0.8401(2) 0.05920(18) 0.6613(2)
P3 P 0.8464(3) 0.13887(17) 0.3495(2)
P4 P 0.6753(3) 0.2755(2) 0.6198(2)
N1 N 0.9922(9) 0.3761(6) 0.6277(7)
N2 N 0.8947(9) 0.4236(6) 0.5091(7)
N3 N 0.9964(9) 0.3534(6) 0.5002(7)
N4 N 0.7702(9) -0.0558(6) 0.6557(8)
N5 N 0.7144(8) 0.0343(6) 0.7020(7)
N6 N 0.8406(8) -0.0122(7) 0.7876(7)
N7 N 0.8993(8) 0.0215(6) 0.4064(6)
N8 N 0.9876(9) 0.0869(6) 0.3699(8)
N9 N 0.8769(9) 0.0398(6) 0.2679(7)
N10 N 0.5215(10) 0.2458(8) 0.5434(11)
N11 N 0.5490(10) 0.3443(11) 0.6182(10)
N12 N 0.5687(11) 0.3406(9) 0.4917(10)
O1 O 0.5845(8) 0.0285(6) 0.4771(7)
H1 H 0.6121 -0.0031 0.4889
O2 O 1.1509(7) 0.2419(5) 0.5620(6)
H2 H 1.1462 0.2680 0.5924
O3 O 0.5757(7) 0.4199(5) 0.2105(6)
H3 H 0.6028 0.4518 0.2188
O4 O 1.0843(8) 0.2026(6) 0.9191(6)
H4 H 1.1013 0.2388 0.9269
C1 C 0.9454(12) 0.3204(7) 0.6304(7)
H5 H 0.9149 0.3302 0.6612
H6 H 0.9802 0.2857 0.6553
C2 C 0.8338(11) 0.3766(7) 0.4966(9)
H7 H 0.8017 0.3739 0.4418
H8 H 0.8005 0.3891 0.5235
C3 C 0.9493(9) 0.2950(6) 0.4846(8)
H9 H 0.9838 0.2589 0.5024
H10 H 0.9208 0.2906 0.4292
C4 C 0.9456(10) 0.4299(7) 0.5932(8)
H11 H 0.9802 0.4658 0.5994
H12 H 0.9125 0.4392 0.6215
C5 C 0.9474(12) 0.4082(7) 0.4701(8)
H13 H 0.9163 0.4012 0.4157
H14 H 0.9809 0.4444 0.4738
C6 C 1.0405(10) 0.3636(7) 0.5844(8)
H15 H 1.0719 0.3264 0.6059
H16 H 1.0760 0.3989 0.5912
C7 C 0.7179(10) 0.1442(7) 0.4822(8)
C8 C 0.6653(10) 0.1072(9) 0.4554(8)
C9 C 0.5988(11) 0.0617(9) 0.4185(8)
C10 C 0.5213(12) 0.1019(10) 0.3667(11)
H17 H 0.4767 0.0738 0.3456
H18 H 0.5096 0.1330 0.3988
C11 C 0.6219(14) 0.0161(10) 0.3692(13)
H19 H 0.6574 -0.0147 0.4018
H20 H 0.6470 0.0387 0.3405
H21 H 0.5760 -0.0047 0.3339
C12 C 0.537(3) 0.1366(19) 0.2972(18)
H22 H 0.5225 0.1802 0.2953
H23 H 0.5068 0.1166 0.2490
H24 H 0.5918 0.1336 0.3061
C13 C 0.8076(10) -0.0180(7) 0.6143(9)
H25 H 0.7710 -0.0115 0.5615
H26 H 0.8524 -0.0408 0.6124
C14 C 0.8889(11) 0.0315(8) 0.7621(8)
H27 H 0.9371 0.0102 0.7672
H28 H 0.9027 0.0678 0.7962
C15 C 0.7471(11) 0.0840(7) 0.6680(9)
H29 H 0.7561 0.1218 0.6995
H30 H 0.7096 0.0943 0.6167
C16 C 0.6965(11) -0.0243(7) 0.6542(11)
H31 H 0.6636 -0.0137 0.6012
H32 H 0.6678 -0.0534 0.6736
C17 C 0.7698(10) 0.0177(9) 0.7819(8)
H33 H 0.7829 0.0561 0.8125
H34 H 0.7428 -0.0100 0.8050
C18 C 0.8216(10) -0.0694(8) 0.7379(10)
H35 H 0.7958 -0.0999 0.7588
H36 H 0.8699 -0.0884 0.7393
C19 C 1.0118(11) 0.1533(7) 0.6004(8)
C20 C 1.0734(9) 0.1661(6) 0.5973(8)
C21 C 1.1514(10) 0.1799(7) 0.5921(8)
C22 C 1.1683(11) 0.1302(8) 0.5378(10)
H37 H 1.1294 0.1340 0.4863
H38 H 1.1666 0.0884 0.5570
H39 H 1.2191 0.1379 0.5371
C23 C 1.2138(12) 0.1814(12) 0.6753(10)
H40 H 1.2073 0.2196 0.7008
H41 H 1.2058 0.1456 0.7039
C24 C 1.295(2) 0.179(2) 0.677(2)
H42 H 1.2933 0.1704 0.6262
H43 H 1.3240 0.1467 0.7121
H44 H 1.3200 0.2193 0.6943
C25 C 0.8519(10) 0.0731(7) 0.4158(8)
H45 H 0.8742 0.0882 0.4688
H46 H 0.7995 0.0578 0.4059
C26 C 0.9510(10) 0.1477(7) 0.3739(9)
H47 H 0.9596 0.1773 0.3384
H48 H 0.9754 0.1648 0.4258
C27 C 0.8243(11) 0.0934(8) 0.2590(9)
H49 H 0.7709 0.0780 0.2414
H50 H 0.8280 0.1214 0.2194
C28 C 0.9817(11) 0.0417(7) 0.4256(8)
H51 H 1.0020 0.0604 0.4768
H52 H 1.0134 0.0049 0.4265
C29 C 0.9564(12) 0.0604(8) 0.2954(9)
H53 H 0.9886 0.0245 0.2944
H54 H 0.9611 0.0914 0.2592
C30 C 0.8698(11) -0.0045(7) 0.3266(8)
H55 H 0.8152 -0.0160 0.3118
H56 H 0.8987 -0.0428 0.3265
C31 C 0.6977(11) 0.3009(8) 0.3190(10)
C32 C 0.6493(11) 0.3397(8) 0.3022(9)
C33 C 0.5867(12) 0.3892(8) 0.2842(9)
C34 C 0.6061(12) 0.4376(8) 0.3493(11)
H57 H 0.6568 0.4557 0.3576
H58 H 0.6111 0.4153 0.3963
C35 C 0.5067(14) 0.3601(10) 0.2737(13)
H59 H 0.4674 0.3925 0.2586
H60 H 0.5097 0.3417 0.3217
H61 H 0.4933 0.3281 0.2344
C36 C 0.547(2) 0.4928(14) 0.338(2)
H62 H 0.5145 0.4842 0.3662
H63 H 0.5146 0.4967 0.2836
H64 H 0.5750 0.5315 0.3557
C37 C 0.5980(11) 0.2170(8) 0.5835(10)
H65 H 0.6095 0.1889 0.5483
H66 H 0.5968 0.1920 0.6265
C38 C 0.6296(11) 0.3272(11) 0.6683(10)
H67 H 0.6291 0.3062 0.7142
H68 H 0.6605 0.3654 0.6847
C39 C 0.6519(12) 0.3198(9) 0.5272(11)
H69 H 0.6855 0.3567 0.5370
H70 H 0.6634 0.2931 0.4907
C40 C 0.5001(11) 0.2858(11) 0.5923(12)
H71 H 0.5034 0.2620 0.6378
H72 H 0.4459 0.2982 0.5655
C41 C 0.5465(13) 0.3793(10) 0.5421(13)
H73 H 0.4938 0.3948 0.5140
H74 H 0.5811 0.4156 0.5570
C42 C 0.5188(13) 0.2846(12) 0.4733(12)
H75 H 0.5341 0.2575 0.4396
H76 H 0.4652 0.2977 0.4447
C43 C 0.9106(8) 0.2136(7) 0.7545(7)
C44 C 0.9773(11) 0.2028(8) 0.7935(8)
C45 C 1.0632(12) 0.1869(12) 0.8385(9)
C46 C 1.0725(10) 0.1069(9) 0.8317(9)
H77 H 1.0378 0.0928 0.7815
H78 H 1.0593 0.0862 0.8707
H79 H 1.1255 0.0970 0.8390
C47 C 1.1122(12) 0.2152(12) 0.8101(13)
H80 H 1.0951 0.2056 0.7553
H81 H 1.1644 0.1979 0.8358
C48 C 1.1153(13) 0.2821(9) 0.8200(11)
H82 H 1.1040 0.3022 0.7709
H83 H 1.1667 0.2941 0.8551
H84 H 1.0774 0.2949 0.8407
Au3C Au 0.77157(4) 0.27373(3) 0.83976(3)
Au4C Au 0.79959(3) 0.25752(3) 0.18953(3)
C49 C 0.2396(17) 0.3730(11) 0.5590(12)
H85 H 0.2049 0.3438 0.5703
H86 H 0.2471 0.3572 0.5136
Cl1 Cl 0.1936(3) 0.4445(2) 0.5361(3)
Cl2 Cl 0.3285(5) 0.3717(4) 0.6354(5)
C50 C 0.3438(13) 0.1854(7) 0.4283(8)
H87 H 0.3957 0.1754 0.4657
H88 H 0.3061 0.1538 0.4290
Cl3 Cl 0.3412(4) 0.2017(3) 0.3362(4)
Cl5 Cl 0.3053(6) 0.2356(4) 0.4793(5)
O5 O 0.4956(8) 0.0845(6) 0.5499(7)
O6 O 0.3456(8) 0.4671(7) 0.3035(7)
O7 O 0.3306(13) 0.4586(10) 0.4461(11)
Cl4? Cl 0.3143(12) 0.2634(6) 0.4349(10)
O8? O 0.261(3) 0.501(2) 0.387(2)
loop_
_geom_bond_atom_site_label_1
_geom_bond_atom_site_label_2
_geom_bond_site_symmetry_1
_geom_bond_site_symmetry_2
Au1 Au2 1_555 1_555
Au2 P2 1_555 1_555
Au3 Au1 1_555 1_555
Au4 Au1 1_555 1_555
P1 Au1 1_555 1_555
P2 C13 1_555 1_555
P3 Au3 1_555 1_555
P4 Au4 1_555 1_555
N1 C1 1_555 1_555
N2 C2 1_555 1_555
N3 C3 1_555 1_555
N4 C13 1_555 1_555
N5 C15 1_555 1_555
N6 C14 1_555 1_555
N7 C25 1_555 1_555
N8 C26 1_555 1_555
N9 C27 1_555 1_555
N10 C37 1_555 1_555
N11 C38 1_555 1_555
N12 C39 1_555 1_555
O1 H1 1_555 1_555
O2 H2 1_555 1_555
O3 H3 1_555 1_555
O4 H4 1_555 1_555
C1 P1 1_555 1_555
H5 C1 1_555 1_555
H6 C1 1_555 1_555
C2 P1 1_555 1_555
H7 C2 1_555 1_555
H8 C2 1_555 1_555
C3 P1 1_555 1_555
H9 C3 1_555 1_555
H10 C3 1_555 1_555
C4 N1 1_555 1_555
H11 C4 1_555 1_555
H12 C4 1_555 1_555
C5 N2 1_555 1_555
H13 C5 1_555 1_555
H14 C5 1_555 1_555
C6 N1 1_555 1_555
H15 C6 1_555 1_555
H16 C6 1_555 1_555
C7 Au1 1_555 1_555
C8 C7 1_555 1_555
C9 O1 1_555 1_555
C10 C9 1_555 1_555
H17 C10 1_555 1_555
H18 C10 1_555 1_555
C11 C9 1_555 1_555
H19 C11 1_555 1_555
H20 C11 1_555 1_555
H21 C11 1_555 1_555
C12 C10 1_555 1_555
H22 C12 1_555 1_555
H23 C12 1_555 1_555
H24 C12 1_555 1_555
C13 H25 1_555 1_555
H26 C13 1_555 1_555
C14 P2 1_555 1_555
H27 C14 1_555 1_555
H28 C14 1_555 1_555
C15 P2 1_555 1_555
H29 C15 1_555 1_555
H30 C15 1_555 1_555
C16 N4 1_555 1_555
H31 C16 1_555 1_555
H32 C16 1_555 1_555
C17 N5 1_555 1_555
H33 C17 1_555 1_555
H34 C17 1_555 1_555
C18 N4 1_555 1_555
H35 C18 1_555 1_555
H36 C18 1_555 1_555
C19 Au2 1_555 1_555
C20 C19 1_555 1_555
C21 O2 1_555 1_555
C22 C21 1_555 1_555
H37 C22 1_555 1_555
H38 C22 1_555 1_555
H39 C22 1_555 1_555
C23 C21 1_555 1_555
H40 C23 1_555 1_555
H41 C23 1_555 1_555
C24 C23 1_555 1_555
H42 C24 1_555 1_555
H43 C24 1_555 1_555
H44 C24 1_555 1_555
C25 P3 1_555 1_555
H45 C25 1_555 1_555
H46 C25 1_555 1_555
C26 P3 1_555 1_555
H47 C26 1_555 1_555
H48 C26 1_555 1_555
C27 P3 1_555 1_555
H49 C27 1_555 1_555
H50 C27 1_555 1_555
C28 N7 1_555 1_555
H51 C28 1_555 1_555
H52 C28 1_555 1_555
C29 N8 1_555 1_555
H53 C29 1_555 1_555
H54 C29 1_555 1_555
C30 N7 1_555 1_555
H55 C30 1_555 1_555
H56 C30 1_555 1_555
C31 Au3 1_555 1_555
C32 C31 1_555 1_555
C33 O3 1_555 1_555
C34 C33 1_555 1_555
H57 C34 1_555 1_555
H58 C34 1_555 1_555
C35 C33 1_555 1_555
H59 C35 1_555 1_555
H60 C35 1_555 1_555
H61 C35 1_555 1_555
C36 C34 1_555 1_555
H62 C36 1_555 1_555
H63 C36 1_555 1_555
H64 C36 1_555 1_555
C37 P4 1_555 1_555
H65 C37 1_555 1_555
H66 C37 1_555 1_555
C38 P4 1_555 1_555
H67 C38 1_555 1_555
H68 C38 1_555 1_555
C39 P4 1_555 1_555
H69 C39 1_555 1_555
H70 C39 1_555 1_555
C40 N10 1_555 1_555
H71 C40 1_555 1_555
H72 C40 1_555 1_555
C41 N11 1_555 1_555
H73 C41 1_555 1_555
H74 C41 1_555 1_555
C42 N10 1_555 1_555
H75 C42 1_555 1_555
H76 C42 1_555 1_555
C43 Au4 1_555 1_555
C44 C43 1_555 1_555
C45 O4 1_555 1_555
C46 C45 1_555 1_555
H77 C46 1_555 1_555
H78 C46 1_555 1_555
H79 C46 1_555 1_555
C47 C45 1_555 1_555
H80 C47 1_555 1_555
H81 C47 1_555 1_555
C48 C47 1_555 1_555
H82 C48 1_555 1_555
H83 C48 1_555 1_555
H84 C48 1_555 1_555
C49 H85 1_555 1_555
H86 C49 1_555 1_555
Cl1 C49 1_555 1_555
Cl2 C49 1_555 1_555
C50 H87 1_555 1_555
H88 C50 1_555 1_555
Cl3 C50 1_555 1_555
Cl5 C50 1_555 1_555
Au3C Au4 1_555 1_555
Au4C Au3 1_555 1_555
N2 C4 1_555 1_555
N3 C5 1_555 1_555
N3 C6 1_555 1_555
N5 C16 1_555 1_555
N6 C17 1_555 1_555
N6 C18 1_555 1_555
N8 C28 1_555 1_555
N9 C29 1_555 1_555
N9 C30 1_555 1_555
N11 C40 1_555 1_555
N12 C41 1_555 1_555
N12 C42 1_555 1_555
C8 C9 1_555 1_555
C20 C21 1_555 1_555
C32 C33 1_555 1_555
C44 C45 1_555 1_555

#END
