
#######################################################################
#
#                 Cambridge Crystallographic Data Centre
#                                CCDC 
#
#######################################################################
#
# If this CIF has been generated from an entry in the Cambridge 
# Structural Database, then it will include bibliographic, chemical, 
# crystal, experimental, refinement or atomic coordinate data resulting 
# from the CCDC's data processing and validation procedures.
#
#######################################################################

data_ECOBOP
_symmetry_cell_setting           triclinic
_symmetry_space_group_name_H-M   'P -1'
_symmetry_Int_Tables_number      2
_space_group_name_Hall           '-P 1'
loop_
_symmetry_equiv_pos_site_id
_symmetry_equiv_pos_as_xyz
1 x,y,z
2 -x,-y,-z
_cell_length_a                   8.9224(3)
_cell_length_b                   9.9414(3)
_cell_length_c                   19.3344(6)
_cell_angle_alpha                87.969(2)
_cell_angle_beta                 83.228(3)
_cell_angle_gamma                72.600(3)
_cell_volume                     1625.09
loop_
_atom_site_label
_atom_site_type_symbol
_atom_site_fract_x
_atom_site_fract_y
_atom_site_fract_z
Cr1 Cr 0.62102(6) 0.22483(5) 0.12428(2)
Cr2 Cr 1.37776(5) 0.75610(5) 0.38427(2)
Ca1 Ca 0.99923(6) 0.49171(6) 0.25365(3)
O1 O 0.8222(2) 0.1630(2) 0.16534(11)
O2 O 0.6537(3) 0.4111(2) 0.12741(12)
O3 O 0.9764(3) 0.2559(2) 0.21862(14)
O4 O 0.8065(3) 0.5163(2) 0.17275(15)
O5 O 1.0593(3) 0.5605(3) 0.36827(12)
O6 O 1.1579(3) 0.6510(3) 0.23943(11)
O7 O 1.3109(3) 0.7462(2) 0.29198(11)
O8 O 1.2090(3) 0.6700(2) 0.41455(10)
O9 O 0.4103(3) 0.3113(2) 0.09384(11)
O10 O 0.5018(3) 0.2449(2) 0.21671(10)
O11 O 0.1661(3) 0.4274(3) 0.13903(12)
O12 O 0.2577(3) 0.3360(3) 0.26886(11)
O13 O 0.5319(3) 0.5682(2) 0.37594(13)
O14 O 0.5585(3) 0.8165(2) 0.34009(12)
O15 O 0.7780(3) 0.4607(2) 0.33028(15)
O16 O 0.7981(3) 0.7209(2) 0.28329(15)
N1 N 0.6146(3) 0.0215(3) 0.11214(14)
N2 N 0.7293(3) 0.1828(3) 0.02447(13)
N3 N 1.2301(3) 0.9565(3) 0.40476(13)
N4 N 1.4217(3) 0.7857(3) 0.48424(14)
C1 C 0.8662(4) 0.2657(3) 0.18475(16)
C2 C 0.7698(4) 0.4119(3) 0.16067(17)
C3 C 1.2084(3) 0.6790(3) 0.29093(15)
C4 C 1.1512(3) 0.6302(3) 0.36377(15)
C5 C 0.5497(5) -0.0521(4) 0.1597(2)
H1 H 0.5082 -0.0119 0.2031
C6 C 0.5422(6) -0.1854(5) 0.1466(2)
H2 H 0.4952 -0.2337 0.1802
C7 C 0.6059(6) -0.2447(4) 0.0827(2)
H3 H 0.6013 -0.3339 0.0722
C8 C 0.6760(5) -0.1720(4) 0.0346(2)
H4 H 0.7212 -0.2125 -0.0085
C9 C 0.6800(4) -0.0376(3) 0.04977(17)
C10 C 0.7483(4) 0.0505(4) 0.00097(17)
C11 C 0.8243(6) 0.0102(5) -0.0643(2)
H5 H 0.8391 -0.0808 -0.0799
C12 C 0.8788(7) 0.1034(6) -0.1066(2)
H6 H 0.929 0.0764 -0.1511
C13 C 0.8583(7) 0.2366(6) -0.0827(2)
H7 H 0.8948 0.3012 -0.1104
C14 C 0.7822(6) 0.2728(4) -0.0165(2)
H8 H 0.7674 0.3632 -0.0001
C15 C 1.1338(4) 1.0355(4) 0.36100(18)
H9 H 1.1378 1.002 0.3163
C16 C 1.0285(5) 1.1652(4) 0.3802(2)
H10 H 0.9622 1.2177 0.349
C17 C 1.0230(6) 1.2153(4) 0.4457(2)
H11 H 0.9524 1.302 0.4597
C18 C 1.1228(5) 1.1360(4) 0.4904(2)
H12 H 1.1219 1.17 0.5347
C19 C 1.2258(4) 1.0049(3) 0.46977(16)
C20 C 1.3357(4) 0.9109(3) 0.51352(15)
C21 C 1.3538(6) 0.9438(5) 0.5802(2)
H13 H 1.2929 1.0292 0.6003
C22 C 1.4630(7) 0.8488(5) 0.6167(2)
H14 H 1.4777 0.8704 0.6613
C23 C 1.5491(7) 0.7233(5) 0.5868(2)
H15 H 1.6228 0.6581 0.6109
C24 C 1.5256(5) 0.6939(4) 0.5202(2)
H16 H 1.5838 0.6079 0.4999
C25 C 0.3015(4) 0.3563(3) 0.14436(15)
C26 C 0.3548(4) 0.3109(3) 0.21719(15)
C27 C 0.6638(4) 0.5658(3) 0.34285(17)
C28 C 0.6777(4) 0.7133(3) 0.31887(16)
Cr1_2 Cr -0.37898(6) 0.22483(5) 0.12428(2)
Cr1_3 Cr 1.62102(6) 0.22483(5) 0.12428(2)
Cr2_2 Cr 0.37776(5) 0.75610(5) 0.38427(2)
Cr2_3 Cr -0.62224(5) 0.75610(5) 0.38427(2)
Ca1_2 Ca -0.00077(6) 0.49171(6) 0.25365(3)
O1_2 O -0.1778(2) 0.1630(2) 0.16534(11)
O2_2 O -0.3463(3) 0.4111(2) 0.12741(12)
O3_2 O -0.0236(3) 0.2559(2) 0.21862(14)
O4_2 O -0.1935(3) 0.5163(2) 0.17275(15)
O5_2 O 0.0593(3) 0.5605(3) 0.36827(12)
O6_2 O 0.1579(3) 0.6510(3) 0.23943(11)
O7_2 O 0.3109(3) 0.7462(2) 0.29198(11)
O8_2 O 0.2090(3) 0.6700(2) 0.41455(10)
O9_2 O 1.4103(3) 0.3113(2) 0.09384(11)
O9_3 O -0.5897(3) 0.3113(2) 0.09384(11)
O10_2 O 1.5018(3) 0.2449(2) 0.21671(10)
O10_3 O -0.4982(3) 0.2449(2) 0.21671(10)
O11_2 O 1.1661(3) 0.4274(3) 0.13903(12)
O12_2 O 1.2577(3) 0.3360(3) 0.26886(11)
O13_2 O -0.4681(3) 0.5682(2) 0.37594(13)
O13_3 O 1.5319(3) 0.5682(2) 0.37594(13)
O14_2 O -0.4415(3) 0.8165(2) 0.34009(12)
O14_3 O 1.5585(3) 0.8165(2) 0.34009(12)
O15_2 O -0.2220(3) 0.4607(2) 0.33028(15)
O16_2 O -0.2019(3) 0.7209(2) 0.28329(15)
N1_2 N -0.3854(3) 0.0215(3) 0.11214(14)
N2_2 N -0.2707(3) 0.1828(3) 0.02447(13)
N3_2 N 0.2301(3) 0.9565(3) 0.40476(13)
N4_2 N 0.4217(3) 0.7857(3) 0.48424(14)
C1_2 C -0.1338(4) 0.2657(3) 0.18475(16)
C2_2 C -0.2302(4) 0.4119(3) 0.16067(17)
C3_2 C 0.2084(3) 0.6790(3) 0.29093(15)
C4_2 C 0.1512(3) 0.6302(3) 0.36377(15)
C5_2 C -0.4503(5) -0.0521(4) 0.1597(2)
H1_2 H -0.4918 -0.0119 0.2031
C6_2 C -0.4578(6) -0.1854(5) 0.1466(2)
H2_2 H -0.5048 -0.2337 0.1802
C7_2 C -0.3941(6) -0.2447(4) 0.0827(2)
H3_2 H -0.3987 -0.3339 0.0722
C8_2 C -0.3240(5) -0.1720(4) 0.0346(2)
H4_2 H -0.2788 -0.2125 -0.0085
C9_2 C -0.3200(4) -0.0376(3) 0.04977(17)
C10_2 C -0.2517(4) 0.0505(4) 0.00097(17)
C11_2 C -0.1757(6) 0.0102(5) -0.0643(2)
H5_2 H -0.1609 -0.0808 -0.0799
C12_2 C -0.1212(7) 0.1034(6) -0.1066(2)
H6_2 H -0.071 0.0764 -0.1511
C13_2 C -0.1417(7) 0.2366(6) -0.0827(2)
H7_2 H -0.1052 0.3012 -0.1104
C14_2 C -0.2178(6) 0.2728(4) -0.0165(2)
H8_2 H -0.2326 0.3632 -0.0001
C15_2 C 0.1338(4) 1.0355(4) 0.36100(18)
H9_2 H 0.1378 1.002 0.3163
C16_2 C 0.0285(5) 1.1652(4) 0.3802(2)
H10_2 H -0.0378 1.2177 0.349
C17_2 C 0.0230(6) 1.2153(4) 0.4457(2)
H11_2 H -0.0476 1.302 0.4597
C18_2 C 0.1228(5) 1.1360(4) 0.4904(2)
H12_2 H 0.1219 1.17 0.5347
C19_2 C 0.2258(4) 1.0049(3) 0.46977(16)
C20_2 C 0.3357(4) 0.9109(3) 0.51352(15)
C21_2 C 0.3538(6) 0.9438(5) 0.5802(2)
H13_2 H 0.2929 1.0292 0.6003
C22_2 C 0.4630(7) 0.8488(5) 0.6167(2)
H14_2 H 0.4777 0.8704 0.6613
C23_2 C 0.5491(7) 0.7233(5) 0.5868(2)
H15_2 H 0.6228 0.6581 0.6109
C24_2 C 0.5256(5) 0.6939(4) 0.5202(2)
H16_2 H 0.5838 0.6079 0.4999
C25_2 C 1.3015(4) 0.3563(3) 0.14436(15)
C26_2 C 1.3548(4) 0.3109(3) 0.21719(15)
C27_2 C -0.3362(4) 0.5658(3) 0.34285(17)
C28_2 C -0.3223(4) 0.7133(3) 0.31887(16)
O17 O 0.8982(8) 0.9567(6) 0.2785(4)
O18 O 1.00000 0.50000 0.00000
loop_
_geom_bond_atom_site_label_1
_geom_bond_atom_site_label_2
_geom_bond_site_symmetry_1
_geom_bond_site_symmetry_2
Cr1 O1 1_555 1_555
Cr2 O7 1_555 1_555
Ca1 O3 1_555 1_555
O1 C1 1_555 1_555
O2 Cr1 1_555 1_555
O3 C1 1_555 1_555
O4 Ca1 1_555 1_555
O5 Ca1 1_555 1_555
O6 Ca1 1_555 1_555
O7 C3 1_555 1_555
O8 Cr2 1_555 1_555
O9 Cr1 1_555 1_555
O10 Cr1 1_555 1_555
O11 C25 1_555 1_555
O12 C26 1_555 1_555
O13 C27 1_555 1_555
O14 C28 1_555 1_555
O15 Ca1 1_555 1_555
O16 Ca1 1_555 1_555
N1 Cr1 1_555 1_555
N2 Cr1 1_555 1_555
N3 Cr2 1_555 1_555
N4 Cr2 1_555 1_555
C1 C2 1_555 1_555
C2 O2 1_555 1_555
C3 O6 1_555 1_555
C4 O5 1_555 1_555
C5 N1 1_555 1_555
H1 C5 1_555 1_555
C6 C5 1_555 1_555
H2 C6 1_555 1_555
C7 C6 1_555 1_555
H3 C7 1_555 1_555
C8 C7 1_555 1_555
H4 C8 1_555 1_555
C9 N1 1_555 1_555
C10 N2 1_555 1_555
C11 C10 1_555 1_555
H5 C11 1_555 1_555
C12 C11 1_555 1_555
H6 C12 1_555 1_555
C13 C12 1_555 1_555
H7 C13 1_555 1_555
C14 N2 1_555 1_555
H8 C14 1_555 1_555
C15 N3 1_555 1_555
H9 C15 1_555 1_555
C16 C15 1_555 1_555
H10 C16 1_555 1_555
C17 C16 1_555 1_555
H11 C17 1_555 1_555
C18 C17 1_555 1_555
H12 C18 1_555 1_555
C19 N3 1_555 1_555
C20 N4 1_555 1_555
C21 C20 1_555 1_555
H13 C21 1_555 1_555
C22 C21 1_555 1_555
H14 C22 1_555 1_555
C23 C22 1_555 1_555
H15 C23 1_555 1_555
C24 N4 1_555 1_555
H16 C24 1_555 1_555
C25 O9 1_555 1_555
C26 O10 1_555 1_555
C27 O15 1_555 1_555
C28 O16 1_555 1_555
Cr1_2 O1_2 1_555 1_555
Cr1_3 O9_2 1_555 1_555
Cr2_2 O13 1_555 1_555
Cr2_3 O13_2 1_555 1_555
Ca1_2 O11 1_555 1_555
O1_2 C1_2 1_555 1_555
O2_2 Cr1_2 1_555 1_555
O3_2 Ca1_2 1_555 1_555
O4_2 Ca1_2 1_555 1_555
O5_2 Ca1_2 1_555 1_555
O6_2 Ca1_2 1_555 1_555
O7_2 Cr2_2 1_555 1_555
O8_2 Cr2_2 1_555 1_555
O9_2 C25_2 1_555 1_555
O9_3 Cr1_2 1_555 1_555
O10_2 Cr1_3 1_555 1_555
O10_3 Cr1_2 1_555 1_555
O11_2 Ca1 1_555 1_555
O12_2 Ca1 1_555 1_555
O13_2 C27_2 1_555 1_555
O13_3 Cr2 1_555 1_555
O14_2 Cr2_3 1_555 1_555
O14_3 Cr2 1_555 1_555
O15_2 Ca1_2 1_555 1_555
O16_2 Ca1_2 1_555 1_555
N1_2 Cr1_2 1_555 1_555
N2_2 Cr1_2 1_555 1_555
N3_2 Cr2_2 1_555 1_555
N4_2 Cr2_2 1_555 1_555
C1_2 O3_2 1_555 1_555
C2_2 O2_2 1_555 1_555
C3_2 O6_2 1_555 1_555
C4_2 O5_2 1_555 1_555
C5_2 N1_2 1_555 1_555
H1_2 C5_2 1_555 1_555
C6_2 C5_2 1_555 1_555
H2_2 C6_2 1_555 1_555
C7_2 C6_2 1_555 1_555
H3_2 C7_2 1_555 1_555
C8_2 C7_2 1_555 1_555
H4_2 C8_2 1_555 1_555
C9_2 N1_2 1_555 1_555
C10_2 N2_2 1_555 1_555
C11_2 C10_2 1_555 1_555
H5_2 C11_2 1_555 1_555
C12_2 C11_2 1_555 1_555
H6_2 C12_2 1_555 1_555
C13_2 C12_2 1_555 1_555
H7_2 C13_2 1_555 1_555
C14_2 N2_2 1_555 1_555
H8_2 C14_2 1_555 1_555
C15_2 N3_2 1_555 1_555
H9_2 C15_2 1_555 1_555
C16_2 C15_2 1_555 1_555
H10_2 C16_2 1_555 1_555
C17_2 C16_2 1_555 1_555
H11_2 C17_2 1_555 1_555
C18_2 C17_2 1_555 1_555
H12_2 C18_2 1_555 1_555
C19_2 N3_2 1_555 1_555
C20_2 N4_2 1_555 1_555
C21_2 C20_2 1_555 1_555
H13_2 C21_2 1_555 1_555
C22_2 C21_2 1_555 1_555
H14_2 C22_2 1_555 1_555
C23_2 C22_2 1_555 1_555
H15_2 C23_2 1_555 1_555
C24_2 N4_2 1_555 1_555
H16_2 C24_2 1_555 1_555
C25_2 O11_2 1_555 1_555
C26_2 O10_2 1_555 1_555
C27_2 O15_2 1_555 1_555
C28_2 O14_2 1_555 1_555
O4 C2 1_555 1_555
O8 C4 1_555 1_555
O12 Ca1_2 1_555 1_555
O14 Cr2_2 1_555 1_555
C3 C4 1_555 1_555
C8 C9 1_555 1_555
C9 C10 1_555 1_555
C13 C14 1_555 1_555
C18 C19 1_555 1_555
C19 C20 1_555 1_555
C23 C24 1_555 1_555
C25 C26 1_555 1_555
C27 C28 1_555 1_555
O4_2 C2_2 1_555 1_555
O7_2 C3_2 1_555 1_555
O8_2 C4_2 1_555 1_555
O12_2 C26_2 1_555 1_555
O16_2 C28_2 1_555 1_555
C1_2 C2_2 1_555 1_555
C3_2 C4_2 1_555 1_555
C8_2 C9_2 1_555 1_555
C9_2 C10_2 1_555 1_555
C13_2 C14_2 1_555 1_555
C18_2 C19_2 1_555 1_555
C19_2 C20_2 1_555 1_555
C23_2 C24_2 1_555 1_555
C25_2 C26_2 1_555 1_555
C27_2 C28_2 1_555 1_555

#END
