
#######################################################################
#
#                 Cambridge Crystallographic Data Centre
#                                CCDC 
#
#######################################################################
#
# If this CIF has been generated from an entry in the Cambridge 
# Structural Database, then it will include bibliographic, chemical, 
# crystal, experimental, refinement or atomic coordinate data resulting 
# from the CCDC's data processing and validation procedures.
#
#######################################################################

data_ECOFAF
_symmetry_cell_setting           rhombohedral
_symmetry_space_group_name_H-M   'R -3'
_symmetry_Int_Tables_number      148
_space_group_name_Hall           '-P 3*'
loop_
_symmetry_equiv_pos_site_id
_symmetry_equiv_pos_as_xyz
1 x,y,z
2 z,x,y
3 y,z,x
4 -x,-y,-z
5 -z,-x,-y
6 -y,-z,-x
_cell_length_a                   18.865(2)
_cell_length_b                   18.865(2)
_cell_length_c                   18.865(2)
_cell_angle_alpha                117.220(17)
_cell_angle_beta                 117.220(17)
_cell_angle_gamma                117.220(17)
_cell_volume                     2855.81
loop_
_atom_site_label
_atom_site_type_symbol
_atom_site_fract_x
_atom_site_fract_y
_atom_site_fract_z
C1 C 1.1950(5) 1.2241(5) 0.3371(5)
C2 C 1.1650(5) 1.2271(5) 0.3977(5)
C3 C 1.2805(5) 1.3474(5) 0.5495(5)
H1 H 1.3772 1.4280 0.6136
C4 C 1.2539(5) 1.3491(5) 0.6060(5)
H2 H 1.3325 1.4308 0.7081
C5 C 1.1105(5) 1.2297(5) 0.5122(5)
C6 C 0.9934(5) 1.1108(5) 0.3609(5)
H3 H 0.8966 1.0316 0.2972
C7 C 1.0219(5) 1.1108(5) 0.3052(5)
H4 H 0.9431 1.0307 0.2032
C8 C 0.9528(6) 1.1176(6) 0.4891(6)
H5 H 0.9030 1.0257 0.4141
H6 H 0.8940 1.1112 0.4397
C9 C 0.9700(6) 1.1427(7) 0.5881(7)
H7 H 0.8724 1.0625 0.5281
H8 H 1.0184 1.2341 0.6611
C10 C 1.0592(5) 1.1517(6) 0.6688(6)
H9 H 1.0201 1.1103 0.6792
H10 H 1.0453 1.0909 0.6081
C11 C 1.2238(6) 1.3073(6) 0.8208(6)
H11 H 1.2589 1.3579 0.8151
H12 H 1.2402 1.3615 0.8890
C12 C 1.3315(5) 1.2963(5) 0.9506(5)
C13 C 1.2935(5) 1.2959(5) 0.9980(5)
H13 H 1.2475 1.3066 0.9853
C14 C 1.3261(5) 1.2791(5) 1.0647(5)
H14 H 1.3026 1.2801 1.0987
C15 C 1.3928(5) 1.2608(5) 1.0829(5)
H15 H 1.4108 1.2471 1.1261
C16 C 1.4327(5) 1.2629(5) 1.0368(5)
H16 H 1.4782 1.2516 1.0496
C17 C 1.4033(5) 1.2822(5) 0.9709(5)
C18 C 1.4280(5) 1.2883(5) 0.9104(5)
C19 C 1.4931(5) 1.2839(5) 0.8985(5)
H17 H 1.5348 1.2753 0.9363
C20 C 1.4972(6) 1.2923(6) 0.8313(6)
H18 H 1.5403 1.2877 0.8227
C21 C 1.4372(6) 1.3075(6) 0.7761(6)
H19 H 1.4420 1.3143 0.7322
C22 C 1.3705(6) 1.3127(5) 0.7850(5)
H20 H 1.3293 1.3215 0.7470
C23 C 1.3675(5) 1.3041(5) 0.8538(5)
N1 N 1.3094(4) 1.3083(4) 0.8784(4)
O1 O 1.3279(3) 1.3301(3) 0.4268(3)
O2 O 1.0871(3) 1.1149(3) 0.1983(3)
O3 O 1.0971(4) 1.2394(3) 0.5801(4)
Tb1 Tb 1.5000 1.5000 0.5000
Tb2 Tb 1.0000 1.0000 0.0000
C1A C 1.3371(5) 1.1950(5) 0.2241(5)
C1B C 1.2241(5) 1.3371(5) 0.1950(5)
C1C C 0.8050(5) 0.7759(5) -0.3371(5)
C1D C 0.6629(5) 0.8050(5) -0.2241(5)
C1E C 0.7759(5) 0.6629(5) -0.1950(5)
C2A C 1.3977(5) 1.1650(5) 0.2271(5)
C2B C 1.2271(5) 1.3977(5) 0.1650(5)
C2C C 0.8350(5) 0.7729(5) -0.3977(5)
C2D C 0.6023(5) 0.8350(5) -0.2271(5)
C2E C 0.7729(5) 0.6023(5) -0.1650(5)
C3A C 1.5495(5) 1.2805(5) 0.3474(5)
C3B C 1.3474(5) 1.5495(5) 0.2805(5)
C3C C 0.7195(5) 0.6526(5) -0.5495(5)
C3D C 0.4505(5) 0.7195(5) -0.3474(5)
C3E C 0.6526(5) 0.4505(5) -0.2805(5)
H1A H 1.6136 1.3772 0.4280
H1B H 1.4280 1.6136 0.3772
H1C H 0.6228 0.5720 -0.6136
H1D H 0.3864 0.6228 -0.4280
H1E H 0.5720 0.3864 -0.3772
C4A C 1.6060(5) 1.2539(5) 0.3491(5)
C4B C 1.3491(5) 1.6060(5) 0.2539(5)
C4C C 0.7461(5) 0.6509(5) -0.6060(5)
C4D C 0.3940(5) 0.7461(5) -0.3491(5)
C4E C 0.6509(5) 0.3940(5) -0.2539(5)
H2A H 1.7081 1.3325 0.4308
H2B H 1.4308 1.7081 0.3325
H2C H 0.6675 0.5692 -0.7081
H2D H 0.2919 0.6675 -0.4308
H2E H 0.5692 0.2919 -0.3325
C5A C 1.5122(5) 1.1105(5) 0.2297(5)
C5B C 1.2297(5) 1.5122(5) 0.1105(5)
C5C C 0.8895(5) 0.7703(5) -0.5122(5)
C5D C 0.4878(5) 0.8895(5) -0.2297(5)
C5E C 0.7703(5) 0.4878(5) -0.1105(5)
C6A C 1.3609(5) 0.9934(5) 0.1108(5)
C6B C 1.1108(5) 1.3609(5) -0.0066(5)
C6C C 1.0066(5) 0.8892(5) -0.3609(5)
C6D C 0.6391(5) 1.0066(5) -0.1108(5)
C6E C 0.8892(5) 0.6391(5) 0.0066(5)
H3A H 1.2972 0.8966 0.0316
H3B H 1.0316 1.2972 -0.1034
H3C H 1.1034 0.9684 -0.2972
H3D H 0.7028 1.1034 -0.0316
H3E H 0.9684 0.7028 0.1034
C7A C 1.3052(5) 1.0219(5) 0.1108(5)
C7B C 1.1108(5) 1.3052(5) 0.0219(5)
C7C C 0.9781(5) 0.8892(5) -0.3052(5)
C7D C 0.6948(5) 0.9781(5) -0.1108(5)
C7E C 0.8892(5) 0.6948(5) -0.0219(5)
H4A H 1.2032 0.9431 0.0307
H4B H 1.0307 1.2032 -0.0569
H4C H 1.0569 0.9693 -0.2032
H4D H 0.7968 1.0569 -0.0307
H4E H 0.9693 0.7968 0.0569
C8A C 1.4891(6) 0.9528(6) 0.1176(6)
C8B C 1.1176(6) 1.4891(6) -0.0472(6)
C8C C 1.0472(6) 0.8824(6) -0.4891(6)
C8D C 0.5109(6) 1.0472(6) -0.1176(6)
C8E C 0.8824(6) 0.5109(6) 0.0472(6)
H5A H 1.4141 0.9030 0.0257
H5B H 1.0257 1.4141 -0.0970
H5C H 1.0970 0.9743 -0.4141
H5D H 0.5859 1.0970 -0.0257
H5E H 0.9743 0.5859 0.0970
H6A H 1.4397 0.8940 0.1112
H6B H 1.1112 1.4397 -0.1060
H6C H 1.1060 0.8888 -0.4397
H6D H 0.5603 1.1060 -0.1112
H6E H 0.8888 0.5603 0.1060
C9A C 1.5881(7) 0.9700(6) 0.1427(7)
C9B C 1.1427(7) 1.5881(7) -0.0300(6)
C9C C 1.0300(6) 0.8573(7) -0.5881(7)
C9D C 0.4119(7) 1.0300(6) -0.1427(7)
C9E C 0.8573(7) 0.4119(7) 0.0300(6)
H7A H 1.5281 0.8724 0.0625
H7B H 1.0625 1.5281 -0.1276
H7C H 1.1276 0.9375 -0.5281
H7D H 0.4719 1.1276 -0.0625
H7E H 0.9375 0.4719 0.1276
H8A H 1.6611 1.0184 0.2341
H8B H 1.2341 1.6611 0.0184
H8C H 0.9816 0.7659 -0.6611
H8D H 0.3389 0.9816 -0.2341
H8E H 0.7659 0.3389 -0.0184
C10A C 1.6688(6) 1.0592(5) 0.1517(6)
C10B C 1.1517(6) 1.6688(6) 0.0592(5)
C10C C 0.9408(5) 0.8483(6) -0.6688(6)
C10D C 0.3312(6) 0.9408(5) -0.1517(6)
C10E C 0.8483(6) 0.3312(6) -0.0592(5)
H9A H 1.6792 1.0201 0.1103
H9B H 1.1103 1.6792 0.0201
H9C H 0.9799 0.8897 -0.6792
H9D H 0.3208 0.9799 -0.1103
H9E H 0.8897 0.3208 -0.0201
H10A H 1.6081 1.0453 0.0909
H10B H 1.0909 1.6081 0.0453
H10C H 0.9547 0.9091 -0.6081
H10D H 0.3919 0.9547 -0.0909
H10E H 0.9091 0.3919 -0.0453
C11A C 1.8208(6) 1.2238(6) 0.3073(6)
C11B C 1.3073(6) 1.8208(6) 0.2238(6)
C11C C 0.7762(6) 0.6927(6) -0.8208(6)
C11D C 0.1792(6) 0.7762(6) -0.3073(6)
C11E C 0.6927(6) 0.1792(6) -0.2238(6)
H11A H 1.8151 1.2589 0.3579
H11B H 1.3579 1.8151 0.2589
H11C H 0.7411 0.6421 -0.8151
H11D H 0.1849 0.7411 -0.3579
H11E H 0.6421 0.1849 -0.2589
H12A H 1.8890 1.2402 0.3615
H12B H 1.3615 1.8890 0.2402
H12C H 0.7598 0.6385 -0.8890
H12D H 0.1110 0.7598 -0.3615
H12E H 0.6385 0.1110 -0.2402
C12A C 1.9506(5) 1.3315(5) 0.2963(5)
C12B C 1.2963(5) 1.9506(5) 0.3315(5)
C12C C 0.6685(5) 0.7037(5) -0.9506(5)
C12D C 0.0494(5) 0.6685(5) -0.2963(5)
C12E C 0.7037(5) 0.0494(5) -0.3315(5)
C13A C 1.9980(5) 1.2935(5) 0.2959(5)
C13B C 1.2959(5) 1.9980(5) 0.2935(5)
C13C C 0.7065(5) 0.7041(5) -0.9980(5)
C13D C 0.0020(5) 0.7065(5) -0.2959(5)
C13E C 0.7041(5) 0.0020(5) -0.2935(5)
H13A H 1.9853 1.2475 0.3066
H13B H 1.3066 1.9853 0.2475
H13C H 0.7525 0.6934 -0.9853
H13D H 0.0147 0.7525 -0.3066
H13E H 0.6934 0.0147 -0.2475
C14A C 2.0647(5) 1.3261(5) 0.2791(5)
C14B C 1.2791(5) 2.0647(5) 0.3261(5)
C14C C 0.6739(5) 0.7209(5) -1.0647(5)
C14D C -0.0647(5) 0.6739(5) -0.2791(5)
C14E C 0.7209(5) -0.0647(5) -0.3261(5)
H14A H 2.0987 1.3026 0.2801
H14B H 1.2801 2.0987 0.3026
H14C H 0.6974 0.7199 -1.0987
H14D H -0.0987 0.6974 -0.2801
H14E H 0.7199 -0.0987 -0.3026
C15A C 2.0829(5) 1.3928(5) 0.2608(5)
C15B C 1.2608(5) 2.0829(5) 0.3928(5)
C15C C 0.6072(5) 0.7392(5) -1.0829(5)
C15D C -0.0829(5) 0.6072(5) -0.2608(5)
C15E C 0.7392(5) -0.0829(5) -0.3928(5)
H15A H 2.1261 1.4108 0.2471
H15B H 1.2471 2.1261 0.4108
H15C H 0.5892 0.7529 -1.1261
H15D H -0.1261 0.5892 -0.2471
H15E H 0.7529 -0.1261 -0.4108
C16A C 2.0368(5) 1.4327(5) 0.2629(5)
C16B C 1.2629(5) 2.0368(5) 0.4327(5)
C16C C 0.5673(5) 0.7371(5) -1.0368(5)
C16D C -0.0368(5) 0.5673(5) -0.2629(5)
C16E C 0.7371(5) -0.0368(5) -0.4327(5)
H16A H 2.0496 1.4782 0.2516
H16B H 1.2516 2.0496 0.4782
H16C H 0.5218 0.7484 -1.0496
H16D H -0.0496 0.5218 -0.2516
H16E H 0.7484 -0.0496 -0.4782
C17A C 1.9709(5) 1.4033(5) 0.2822(5)
C17B C 1.2822(5) 1.9709(5) 0.4033(5)
C17C C 0.5967(5) 0.7178(5) -0.9709(5)
C17D C 0.0291(5) 0.5967(5) -0.2822(5)
C17E C 0.7178(5) 0.0291(5) -0.4033(5)
C18A C 1.9104(5) 1.4280(5) 0.2883(5)
C18B C 1.2883(5) 1.9104(5) 0.4280(5)
C18C C 0.5720(5) 0.7117(5) -0.9104(5)
C18D C 0.0896(5) 0.5720(5) -0.2883(5)
C18E C 0.7117(5) 0.0896(5) -0.4280(5)
C19A C 1.8985(5) 1.4931(5) 0.2839(5)
C19B C 1.2839(5) 1.8985(5) 0.4931(5)
C19C C 0.5069(5) 0.7161(5) -0.8985(5)
C19D C 0.1015(5) 0.5069(5) -0.2839(5)
C19E C 0.7161(5) 0.1015(5) -0.4931(5)
H17A H 1.9363 1.5348 0.2753
H17B H 1.2753 1.9363 0.5348
H17C H 0.4652 0.7247 -0.9363
H17D H 0.0637 0.4652 -0.2753
H17E H 0.7247 0.0637 -0.5348
C20A C 1.8313(6) 1.4972(6) 0.2923(6)
C20B C 1.2923(6) 1.8313(6) 0.4972(6)
C20C C 0.5028(6) 0.7077(6) -0.8313(6)
C20D C 0.1687(6) 0.5028(6) -0.2923(6)
C20E C 0.7077(6) 0.1687(6) -0.4972(6)
H18A H 1.8227 1.5403 0.2877
H18B H 1.2877 1.8227 0.5403
H18C H 0.4597 0.7123 -0.8227
H18D H 0.1773 0.4597 -0.2877
H18E H 0.7123 0.1773 -0.5403
C21A C 1.7761(6) 1.4372(6) 0.3075(6)
C21B C 1.3075(6) 1.7761(6) 0.4372(6)
C21C C 0.5628(6) 0.6925(6) -0.7761(6)
C21D C 0.2239(6) 0.5628(6) -0.3075(6)
C21E C 0.6925(6) 0.2239(6) -0.4372(6)
H19A H 1.7322 1.4420 0.3143
H19B H 1.3143 1.7322 0.4420
H19C H 0.5580 0.6857 -0.7322
H19D H 0.2678 0.5580 -0.3143
H19E H 0.6857 0.2678 -0.4420
C22A C 1.7850(5) 1.3705(6) 0.3127(5)
C22B C 1.3127(5) 1.7850(5) 0.3705(6)
C22C C 0.6295(6) 0.6873(5) -0.7850(5)
C22D C 0.2150(5) 0.6295(6) -0.3127(5)
C22E C 0.6873(5) 0.2150(5) -0.3705(6)
H20A H 1.7470 1.3293 0.3215
H20B H 1.3215 1.7470 0.3293
H20C H 0.6707 0.6785 -0.7470
H20D H 0.2530 0.6707 -0.3215
H20E H 0.6785 0.2530 -0.3293
C23A C 1.8538(5) 1.3675(5) 0.3041(5)
C23B C 1.3041(5) 1.8538(5) 0.3675(5)
C23C C 0.6325(5) 0.6959(5) -0.8538(5)
C23D C 0.1462(5) 0.6325(5) -0.3041(5)
C23E C 0.6959(5) 0.1462(5) -0.3675(5)
N1A N 1.8784(4) 1.3094(4) 0.3083(4)
N1B N 1.3083(4) 1.8784(4) 0.3094(4)
N1C N 0.6906(4) 0.6917(4) -0.8784(4)
N1D N 0.1216(4) 0.6906(4) -0.3083(4)
N1E N 0.6917(4) 0.1216(4) -0.3094(4)
O1A O 1.4268(3) 1.3279(3) 0.3301(3)
O1B O 1.3301(3) 1.4268(3) 0.3279(3)
O1C O 0.6721(3) 0.6699(3) -0.4268(3)
O1D O 0.5732(3) 0.6721(3) -0.3301(3)
O1E O 0.6699(3) 0.5732(3) -0.3279(3)
O1C_2 O 1.6721(3) 1.6699(3) 0.5732(3)
O1D_2 O 1.5732(3) 1.6721(3) 0.6699(3)
O1E_2 O 1.6699(3) 1.5732(3) 0.6721(3)
O2A O 1.1983(3) 1.0871(3) 0.1149(3)
O2B O 1.1149(3) 1.1983(3) 0.0871(3)
O2C O 0.9129(3) 0.8851(3) -0.1983(3)
O2D O 0.8017(3) 0.9129(3) -0.1149(3)
O2E O 0.8851(3) 0.8017(3) -0.0871(3)
O3A O 1.5801(4) 1.0971(4) 0.2394(3)
O3B O 1.2394(3) 1.5801(4) 0.0971(4)
O3C O 0.9029(4) 0.7606(3) -0.5801(4)
O3D O 0.4199(4) 0.9029(4) -0.2394(3)
O3E O 0.7606(3) 0.4199(4) -0.0971(4)
Tb1_2 Tb 0.5000 0.5000 -0.5000
loop_
_geom_bond_atom_site_label_1
_geom_bond_atom_site_label_2
_geom_bond_site_symmetry_1
_geom_bond_site_symmetry_2
C1 C2 1_555 1_555
C2 C3 1_555 1_555
C3 H1 1_555 1_555
C4 C3 1_555 1_555
H2 C4 1_555 1_555
C5 C4 1_555 1_555
C6 C5 1_555 1_555
H3 C6 1_555 1_555
C7 C2 1_555 1_555
H4 C7 1_555 1_555
C8 H5 1_555 1_555
H6 C8 1_555 1_555
C9 C8 1_555 1_555
H7 C9 1_555 1_555
H8 C9 1_555 1_555
C10 C9 1_555 1_555
H9 C10 1_555 1_555
H10 C10 1_555 1_555
C11 C10 1_555 1_555
H11 C11 1_555 1_555
H12 C11 1_555 1_555
C12 C13 1_555 1_555
C13 H13 1_555 1_555
C14 C13 1_555 1_555
H14 C14 1_555 1_555
C15 C14 1_555 1_555
H15 C15 1_555 1_555
C16 C15 1_555 1_555
H16 C16 1_555 1_555
C17 C12 1_555 1_555
C18 C17 1_555 1_555
C19 C18 1_555 1_555
H17 C19 1_555 1_555
C20 C19 1_555 1_555
H18 C20 1_555 1_555
C21 C20 1_555 1_555
H19 C21 1_555 1_555
C22 C21 1_555 1_555
H20 C22 1_555 1_555
C23 C18 1_555 1_555
N1 C11 1_555 1_555
O1 C1 1_555 1_555
O2 C1 1_555 1_555
O3 C5 1_555 1_555
Tb1 O1 1_555 1_555
Tb2 O2 1_555 1_555
C1A C2A 1_555 1_555
C1B C2B 1_555 1_555
C1C C2C 1_555 1_555
C1D C2D 1_555 1_555
C1E C2E 1_555 1_555
C2A C3A 1_555 1_555
C2B C3B 1_555 1_555
C2C C3C 1_555 1_555
C2D C3D 1_555 1_555
C2E C3E 1_555 1_555
C3A H1A 1_555 1_555
C3B H1B 1_555 1_555
C3C H1C 1_555 1_555
C3D H1D 1_555 1_555
C3E H1E 1_555 1_555
C4A C3A 1_555 1_555
C4B C3B 1_555 1_555
C4C C3C 1_555 1_555
C4D C3D 1_555 1_555
C4E C3E 1_555 1_555
H2A C4A 1_555 1_555
H2B C4B 1_555 1_555
H2C C4C 1_555 1_555
H2D C4D 1_555 1_555
H2E C4E 1_555 1_555
C5A C4A 1_555 1_555
C5B C4B 1_555 1_555
C5C C4C 1_555 1_555
C5D C4D 1_555 1_555
C5E C4E 1_555 1_555
C6A C5A 1_555 1_555
C6B C5B 1_555 1_555
C6C C5C 1_555 1_555
C6D C5D 1_555 1_555
C6E C5E 1_555 1_555
H3A C6A 1_555 1_555
H3B C6B 1_555 1_555
H3C C6C 1_555 1_555
H3D C6D 1_555 1_555
H3E C6E 1_555 1_555
C7A C2A 1_555 1_555
C7B C2B 1_555 1_555
C7C C2C 1_555 1_555
C7D C2D 1_555 1_555
C7E C2E 1_555 1_555
H4A C7A 1_555 1_555
H4B C7B 1_555 1_555
H4C C7C 1_555 1_555
H4D C7D 1_555 1_555
H4E C7E 1_555 1_555
C8A H5A 1_555 1_555
C8B H5B 1_555 1_555
C8C H5C 1_555 1_555
C8D H5D 1_555 1_555
C8E H5E 1_555 1_555
H6A C8A 1_555 1_555
H6B C8B 1_555 1_555
H6C C8C 1_555 1_555
H6D C8D 1_555 1_555
H6E C8E 1_555 1_555
C9A C8A 1_555 1_555
C9B C8B 1_555 1_555
C9C C8C 1_555 1_555
C9D C8D 1_555 1_555
C9E C8E 1_555 1_555
H7A C9A 1_555 1_555
H7B C9B 1_555 1_555
H7C C9C 1_555 1_555
H7D C9D 1_555 1_555
H7E C9E 1_555 1_555
H8A C9A 1_555 1_555
H8B C9B 1_555 1_555
H8C C9C 1_555 1_555
H8D C9D 1_555 1_555
H8E C9E 1_555 1_555
C10A C9A 1_555 1_555
C10B C9B 1_555 1_555
C10C C9C 1_555 1_555
C10D C9D 1_555 1_555
C10E C9E 1_555 1_555
H9A C10A 1_555 1_555
H9B C10B 1_555 1_555
H9C C10C 1_555 1_555
H9D C10D 1_555 1_555
H9E C10E 1_555 1_555
H10A C10A 1_555 1_555
H10B C10B 1_555 1_555
H10C C10C 1_555 1_555
H10D C10D 1_555 1_555
H10E C10E 1_555 1_555
C11A C10A 1_555 1_555
C11B C10B 1_555 1_555
C11C C10C 1_555 1_555
C11D C10D 1_555 1_555
C11E C10E 1_555 1_555
H11A C11A 1_555 1_555
H11B C11B 1_555 1_555
H11C C11C 1_555 1_555
H11D C11D 1_555 1_555
H11E C11E 1_555 1_555
H12A C11A 1_555 1_555
H12B C11B 1_555 1_555
H12C C11C 1_555 1_555
H12D C11D 1_555 1_555
H12E C11E 1_555 1_555
C12A C13A 1_555 1_555
C12B C13B 1_555 1_555
C12C C13C 1_555 1_555
C12D C13D 1_555 1_555
C12E C13E 1_555 1_555
C13A H13A 1_555 1_555
C13B H13B 1_555 1_555
C13C H13C 1_555 1_555
C13D H13D 1_555 1_555
C13E H13E 1_555 1_555
C14A C13A 1_555 1_555
C14B C13B 1_555 1_555
C14C C13C 1_555 1_555
C14D C13D 1_555 1_555
C14E C13E 1_555 1_555
H14A C14A 1_555 1_555
H14B C14B 1_555 1_555
H14C C14C 1_555 1_555
H14D C14D 1_555 1_555
H14E C14E 1_555 1_555
C15A C14A 1_555 1_555
C15B C14B 1_555 1_555
C15C C14C 1_555 1_555
C15D C14D 1_555 1_555
C15E C14E 1_555 1_555
H15A C15A 1_555 1_555
H15B C15B 1_555 1_555
H15C C15C 1_555 1_555
H15D C15D 1_555 1_555
H15E C15E 1_555 1_555
C16A C15A 1_555 1_555
C16B C15B 1_555 1_555
C16C C15C 1_555 1_555
C16D C15D 1_555 1_555
C16E C15E 1_555 1_555
H16A C16A 1_555 1_555
H16B C16B 1_555 1_555
H16C C16C 1_555 1_555
H16D C16D 1_555 1_555
H16E C16E 1_555 1_555
C17A C12A 1_555 1_555
C17B C12B 1_555 1_555
C17C C12C 1_555 1_555
C17D C12D 1_555 1_555
C17E C12E 1_555 1_555
C18A C17A 1_555 1_555
C18B C17B 1_555 1_555
C18C C17C 1_555 1_555
C18D C17D 1_555 1_555
C18E C17E 1_555 1_555
C19A C18A 1_555 1_555
C19B C18B 1_555 1_555
C19C C18C 1_555 1_555
C19D C18D 1_555 1_555
C19E C18E 1_555 1_555
H17A C19A 1_555 1_555
H17B C19B 1_555 1_555
H17C C19C 1_555 1_555
H17D C19D 1_555 1_555
H17E C19E 1_555 1_555
C20A C19A 1_555 1_555
C20B C19B 1_555 1_555
C20C C19C 1_555 1_555
C20D C19D 1_555 1_555
C20E C19E 1_555 1_555
H18A C20A 1_555 1_555
H18B C20B 1_555 1_555
H18C C20C 1_555 1_555
H18D C20D 1_555 1_555
H18E C20E 1_555 1_555
C21A C20A 1_555 1_555
C21B C20B 1_555 1_555
C21C C20C 1_555 1_555
C21D C20D 1_555 1_555
C21E C20E 1_555 1_555
H19A C21A 1_555 1_555
H19B C21B 1_555 1_555
H19C C21C 1_555 1_555
H19D C21D 1_555 1_555
H19E C21E 1_555 1_555
C22A C21A 1_555 1_555
C22B C21B 1_555 1_555
C22C C21C 1_555 1_555
C22D C21D 1_555 1_555
C22E C21E 1_555 1_555
H20A C22A 1_555 1_555
H20B C22B 1_555 1_555
H20C C22C 1_555 1_555
H20D C22D 1_555 1_555
H20E C22E 1_555 1_555
C23A C18A 1_555 1_555
C23B C18B 1_555 1_555
C23C C18C 1_555 1_555
C23D C18D 1_555 1_555
C23E C18E 1_555 1_555
N1A C11A 1_555 1_555
N1B C11B 1_555 1_555
N1C C11C 1_555 1_555
N1D C11D 1_555 1_555
N1E C11E 1_555 1_555
O1A Tb1 1_555 1_555
O1B Tb1 1_555 1_555
O1C C1C 1_555 1_555
O1D C1D 1_555 1_555
O1E C1E 1_555 1_555
O1C_2 Tb1 1_555 1_555
O1D_2 Tb1 1_555 1_555
O1E_2 Tb1 1_555 1_555
O2A Tb2 1_555 1_555
O2B Tb2 1_555 1_555
O2C Tb2 1_555 1_555
O2D Tb2 1_555 1_555
O2E Tb2 1_555 1_555
O3A C5A 1_555 1_555
O3B C5B 1_555 1_555
O3C C5C 1_555 1_555
O3D C5D 1_555 1_555
O3E C5E 1_555 1_555
Tb1_2 O1C 1_555 1_555
C6 C7 1_555 1_555
C8 O3 1_555 1_555
C12 N1 1_555 1_555
C16 C17 1_555 1_555
C22 C23 1_555 1_555
C23 N1 1_555 1_555
C1A O1A 1_555 1_555
C1A O2A 1_555 1_555
C1B O1B 1_555 1_555
C1B O2B 1_555 1_555
C1C O2C 1_555 1_555
C1D O2D 1_555 1_555
C1E O2E 1_555 1_555
C6A C7A 1_555 1_555
C6B C7B 1_555 1_555
C6C C7C 1_555 1_555
C6D C7D 1_555 1_555
C6E C7E 1_555 1_555
C8A O3A 1_555 1_555
C8B O3B 1_555 1_555
C8C O3C 1_555 1_555
C8D O3D 1_555 1_555
C8E O3E 1_555 1_555
C12A N1A 1_555 1_555
C12B N1B 1_555 1_555
C12C N1C 1_555 1_555
C12D N1D 1_555 1_555
C12E N1E 1_555 1_555
C16A C17A 1_555 1_555
C16B C17B 1_555 1_555
C16C C17C 1_555 1_555
C16D C17D 1_555 1_555
C16E C17E 1_555 1_555
C22A C23A 1_555 1_555
C22B C23B 1_555 1_555
C22C C23C 1_555 1_555
C22D C23D 1_555 1_555
C22E C23E 1_555 1_555
C23A N1A 1_555 1_555
C23B N1B 1_555 1_555
C23C N1C 1_555 1_555
C23D N1D 1_555 1_555
C23E N1E 1_555 1_555
O1D Tb1_2 1_555 1_555
O1E Tb1_2 1_555 1_555

#END
