
#######################################################################
#
#                 Cambridge Crystallographic Data Centre
#                                CCDC 
#
#######################################################################
#
# If this CIF has been generated from an entry in the Cambridge 
# Structural Database, then it will include bibliographic, chemical, 
# crystal, experimental, refinement or atomic coordinate data resulting 
# from the CCDC's data processing and validation procedures.
#
#######################################################################

data_ECOHEJ
_symmetry_cell_setting           triclinic
_symmetry_space_group_name_H-M   'P -1'
_symmetry_Int_Tables_number      2
_space_group_name_Hall           '-P 1'
loop_
_symmetry_equiv_pos_site_id
_symmetry_equiv_pos_as_xyz
1 x,y,z
2 -x,-y,-z
_cell_length_a                   11.2151(7)
_cell_length_b                   13.1298(7)
_cell_length_c                   8.2073(4)
_cell_angle_alpha                94.744(2)
_cell_angle_beta                 99.760(2)
_cell_angle_gamma                77.517(3)
_cell_volume                     1161.56
loop_
_atom_site_label
_atom_site_type_symbol
_atom_site_fract_x
_atom_site_fract_y
_atom_site_fract_z
Cu1 Cu -0.13013(4) 0.53641(3) 0.10908(5)
Cu2 Cu 0.00768(4) 0.34690(3) 0.28974(5)
Mn1 Mn 0.0000 0.0000 0.5000
O1 O -0.3139(2) 0.6410(2) -0.1475(3)
O2 O -0.1446(2) 0.3941(2) 0.1446(3)
O3 O -0.0269(2) 0.2161(2) 0.3140(3)
O4 O -0.1336(3) 0.0933(2) 0.3038(4)
O5 O -0.1248(2) 0.7177(2) -0.0614(3)
O6 O 0.0162(2) 0.4893(2) 0.2708(3)
O7 O 0.1377(2) 0.3246(2) 0.4718(3)
O8 O 0.2565(2) 0.3739(2) 0.6931(3)
O9 O -0.1177(3) 0.0474(2) 0.6918(4)
O10 O 0.1000(3) 0.1207(2) 0.5945(4)
N1 N -0.2755(3) 0.5507(2) -0.0594(4)
N2 N -0.0659(3) 0.6571(2) 0.0704(4)
C1 C -0.2324(3) 0.3396(3) 0.0864(4)
C2 C -0.3353(3) 0.3855(3) -0.0283(4)
C3 C -0.4269(4) 0.3293(3) -0.0899(5)
C4 C -0.4189(4) 0.2294(3) -0.0444(5)
C5 C -0.3186(4) 0.1843(3) 0.0663(5)
C6 C -0.2246(3) 0.2367(3) 0.1354(4)
C7 C -0.3499(3) 0.4872(3) -0.0947(4)
C8 C -0.1232(4) 0.1796(3) 0.2573(5)
C9 C 0.1069(3) 0.5375(3) 0.3465(4)
C10 C 0.1117(3) 0.6366(3) 0.2951(4)
C11 C 0.2074(4) 0.6853(3) 0.3699(5)
C12 C 0.2962(4) 0.6391(3) 0.4942(5)
C13 C 0.2896(3) 0.5447(3) 0.5471(5)
C14 C 0.1950(3) 0.4925(3) 0.4774(4)
C15 C 0.0273(3) 0.6892(3) 0.1579(4)
C16 C 0.1958(3) 0.3911(3) 0.5509(4)
H1 H -0.4857 0.3555 -0.1670
H2 H -0.4838 0.1996 -0.0777
H3 H -0.3276 0.1244 0.0754
H4 H -0.4243 0.5071 -0.1717
H5 H 0.2199 0.7503 0.3282
H6 H 0.3566 0.6740 0.5353
H7 H 0.3350 0.5142 0.6417
H8 H 0.0627 0.7553 0.1069
H9 H -0.2255 0.6592 -0.1070
H10 H -0.1907 0.0648 0.6668
H11 H -0.1136 -0.0187 0.7635
H12 H 0.0867 0.1657 0.5420
H13 H 0.1618 0.1272 0.6757
O1A O 0.3139(2) -0.6410(2) 1.1475(3)
O2A O 0.1446(2) -0.3941(2) 0.8554(3)
O3A O 0.0269(2) -0.2161(2) 0.6860(3)
O4A O 0.1336(3) -0.0933(2) 0.6962(4)
N1A N 0.2755(3) -0.5507(2) 1.0594(4)
C1A C 0.2324(3) -0.3396(3) 0.9136(4)
C2A C 0.3353(3) -0.3855(3) 1.0283(4)
C3A C 0.4269(4) -0.3293(3) 1.0899(5)
C4A C 0.4189(4) -0.2294(3) 1.0444(5)
C5A C 0.3186(4) -0.1843(3) 0.9337(5)
C6A C 0.2246(3) -0.2367(3) 0.8646(4)
C7A C 0.3499(3) -0.4872(3) 1.0947(4)
C8A C 0.1232(4) -0.1796(3) 0.7427(5)
H1A H 0.4857 -0.3555 1.1670
H2A H 0.4838 -0.1996 1.0777
H3A H 0.3276 -0.1244 0.9246
H4A H 0.4243 -0.5071 1.1717
H9A H 0.2255 -0.6592 1.1070
O9A O 0.1177(3) -0.0474(2) 0.3082(4)
H10A H 0.1907 -0.0648 0.3332
H11A H 0.1136 0.0187 0.2365
O10A O -0.1000(3) -0.1207(2) 0.4055(4)
H12A H -0.0867 -0.1657 0.4580
H13A H -0.1618 -0.1272 0.3243
Cu1A Cu 0.13013(4) -0.53641(3) 0.89092(5)
Cu2A Cu -0.00768(4) -0.34690(3) 0.71026(5)
O5A O 0.1248(2) 0.2823(2) 1.0614(3)
O6A O -0.0162(2) 0.5107(2) 0.7292(3)
O7A O -0.1377(2) 0.6754(2) 0.5282(3)
O8A O -0.2565(2) 0.6261(2) 0.3069(3)
N2A N 0.0659(3) 0.3429(2) 0.9296(4)
C9A C -0.1069(3) 0.4625(3) 0.6535(4)
C10A C -0.1117(3) 0.3634(3) 0.7049(4)
C11A C -0.2074(4) 0.3147(3) 0.6301(5)
C12A C -0.2962(4) 0.3609(3) 0.5058(5)
C13A C -0.2896(3) 0.4553(3) 0.4529(5)
C14A C -0.1950(3) 0.5075(3) 0.5226(4)
C15A C -0.0273(3) 0.3108(3) 0.8421(4)
C16A C -0.1958(3) 0.6089(3) 0.4491(4)
H5A H -0.2199 0.2497 0.6718
H6A H -0.3566 0.3260 0.4647
H7A H -0.3350 0.4858 0.3583
H8A H -0.0627 0.2447 0.8931
O5A_2 O 0.1248(2) 0.2823(2) 0.0614(3)
Cu2A_2 Cu -0.00768(4) 0.65310(3) -0.28974(5)
Cu1A_2 Cu 0.13013(4) 0.46359(3) 0.89092(5)
O6A_2 O -0.0162(2) -0.4893(2) 0.7292(3)
O8_2 O 0.2565(2) -0.6261(2) 0.6931(3)
N2A_2 N 0.0659(3) -0.6571(2) 0.9296(4)
O5_2 O -0.1248(2) -0.2823(2) 0.9386(3)
O7A_2 O -0.1377(2) -0.3246(2) 0.5282(3)
Cu2_2 Cu 0.00768(4) 0.34690(3) 1.28974(5)
Cu2A_3 Cu -0.00768(4) 0.65310(3) 0.71026(5)
O11 O -0.1175(4) 0.9365(2) -0.0367(4)
H14 H -0.1115 0.8709 -0.0335
H15 H -0.0823 0.9348 0.0729
O12 O 0.2889(3) 0.1747(2) 0.8140(3)
H16 H 0.2474 0.1858 0.9042
H17 H 0.2729 0.2326 0.7725
O13 O -0.3559(3) 0.1120(3) 0.5750(4)
N3 N -0.5089(3) 0.0993(3) 0.3602(4)
C17 C -0.3945(4) 0.0752(3) 0.4378(5)
C18 C -0.5464(5) 0.0535(4) 0.1983(6)
C19 C -0.5996(5) 0.1756(4) 0.4339(7)
H18 H -0.3510 0.0241 0.3651
H19 H -0.4754 0.0136 0.1390
H20 H -0.6135 0.0248 0.1978
H21 H -0.5812 0.1247 0.1213
H22 H -0.6818 0.1584 0.4036
H23 H -0.6186 0.2313 0.3792
H24 H -0.5841 0.1950 0.5496
loop_
_geom_bond_atom_site_label_1
_geom_bond_atom_site_label_2
_geom_bond_site_symmetry_1
_geom_bond_site_symmetry_2
Cu1 O2 1_555 1_555
Cu2 O2 1_555 1_555
Mn1 O4 1_555 1_555
O1 N1 1_555 1_555
O2 C1 1_555 1_555
O3 Cu2 1_555 1_555
O4 C8 1_555 1_555
O5 N2 1_555 1_555
O6 Cu1 1_555 1_555
O7 Cu2 1_555 1_555
O8 C16 1_555 1_555
O9 Mn1 1_555 1_555
O10 Mn1 1_555 1_555
O11 H14 1_555 1_555
O12 H16 1_555 1_555
O13 C17 1_555 1_555
N1 Cu1 1_555 1_555
N2 Cu1 1_555 1_555
N3 C17 1_555 1_555
C1 C2 1_555 1_555
C2 C3 1_555 1_555
C3 C4 1_555 1_555
C4 C5 1_555 1_555
C5 C6 1_555 1_555
C6 C1 1_555 1_555
C7 N1 1_555 1_555
C8 O3 1_555 1_555
C9 O6 1_555 1_555
C10 C9 1_555 1_555
C11 C10 1_555 1_555
C12 C11 1_555 1_555
C13 C12 1_555 1_555
C14 C9 1_555 1_555
C15 N2 1_555 1_555
C16 O7 1_555 1_555
C17 H18 1_555 1_555
C18 N3 1_555 1_555
C19 N3 1_555 1_555
H1 C3 1_555 1_555
H2 C4 1_555 1_555
H3 C5 1_555 1_555
H4 C7 1_555 1_555
H5 C11 1_555 1_555
H6 C12 1_555 1_555
H7 C13 1_555 1_555
H8 C15 1_555 1_555
H9 O1 1_555 1_555
H10 O9 1_555 1_555
H11 O9 1_555 1_555
H12 O10 1_555 1_555
H13 O10 1_555 1_555
H15 O11 1_555 1_555
H17 O12 1_555 1_555
H19 C18 1_555 1_555
H20 C18 1_555 1_555
H21 C18 1_555 1_555
H22 C19 1_555 1_555
H23 C19 1_555 1_555
H24 C19 1_555 1_555
O1A N1A 1_555 1_555
O2A C1A 1_555 1_555
O3A C8A 1_555 1_555
O4A Mn1 1_555 1_555
N1A C7A 1_555 1_555
C1A C2A 1_555 1_555
C2A C3A 1_555 1_555
C3A C4A 1_555 1_555
C4A C5A 1_555 1_555
C5A C6A 1_555 1_555
C6A C1A 1_555 1_555
C7A C2A 1_555 1_555
C8A O4A 1_555 1_555
H1A C3A 1_555 1_555
H2A C4A 1_555 1_555
H3A C5A 1_555 1_555
H4A C7A 1_555 1_555
H9A O1A 1_555 1_555
O9A Mn1 1_555 1_555
H10A O9A 1_555 1_555
H11A O9A 1_555 1_555
O10A Mn1 1_555 1_555
H12A O10A 1_555 1_555
H13A O10A 1_555 1_555
Cu1A O2A 1_555 1_555
Cu2A O2A 1_555 1_555
O5A N2A 1_555 1_555
O6A C9A 1_555 1_555
O7A C16A 1_555 1_555
O8A Cu1 1_555 1_555
N2A C15A 1_555 1_555
C9A C10A 1_555 1_555
C10A C11A 1_555 1_555
C11A C12A 1_555 1_555
C12A C13A 1_555 1_555
C13A C14A 1_555 1_555
C14A C9A 1_555 1_555
C15A C10A 1_555 1_555
C16A O8A 1_555 1_555
H5A C11A 1_555 1_555
H6A C12A 1_555 1_555
H7A C13A 1_555 1_555
H8A C15A 1_555 1_555
O5A_2 Cu2 1_555 1_555
Cu2A_2 O5 1_555 1_555
Cu1A_2 O8 1_555 1_555
O6A_2 Cu1A 1_555 1_555
O8_2 Cu1A 1_555 1_555
N2A_2 Cu1A 1_555 1_555
O5_2 Cu2A 1_555 1_555
O7A_2 Cu2A 1_555 1_555
Cu2_2 O5A 1_555 1_555
Cu2A_3 O6A 1_555 1_555
Cu2 O6 1_555 1_555
C2 C7 1_555 1_555
C6 C8 1_555 1_555
C10 C15 1_555 1_555
C13 C14 1_555 1_555
C14 C16 1_555 1_555
O3A Cu2A 1_555 1_555
N1A Cu1A 1_555 1_555
C6A C8A 1_555 1_555
Cu2A O6A_2 1_555 1_555
O6A Cu1A_2 1_555 1_555
O7A Cu2A_3 1_555 1_555
N2A Cu1A_2 1_555 1_555
C14A C16A 1_555 1_555

#END
