
#######################################################################
#
#                 Cambridge Crystallographic Data Centre
#                                CCDC 
#
#######################################################################
#
# If this CIF has been generated from an entry in the Cambridge 
# Structural Database, then it will include bibliographic, chemical, 
# crystal, experimental, refinement or atomic coordinate data resulting 
# from the CCDC's data processing and validation procedures.
#
#######################################################################

data_ECOLEP
_symmetry_cell_setting           cubic
_symmetry_space_group_name_H-M   'P 41 3 2'
_symmetry_Int_Tables_number      213
_space_group_name_Hall           'P 4bd 2ab 3'
loop_
_symmetry_equiv_pos_site_id
_symmetry_equiv_pos_as_xyz
1 x,y,z
2 1/2-x,-y,1/2+z
3 1/2+x,1/2-y,-z
4 -x,1/2+y,1/2-z
5 z,x,y
6 y,z,x
7 1/2-z,-x,1/2+y
8 -y,1/2+z,1/2-x
9 1/2+z,1/2-x,-y
10 1/2-y,-z,1/2+x
11 -z,1/2+x,1/2-y
12 1/2+y,1/2-z,-x
13 3/4-y,3/4-x,3/4-z
14 3/4+y,1/4+x,1/4-z
15 1/4+y,1/4-x,3/4+z
16 1/4-y,3/4+x,1/4+z
17 3/4-x,3/4-z,3/4-y
18 3/4-z,3/4-y,3/4-x
19 3/4+x,1/4+z,1/4-y
20 1/4-z,3/4+y,1/4+x
21 1/4+x,1/4-z,3/4+y
22 3/4+z,1/4+y,1/4-x
23 1/4-x,3/4+z,1/4+y
24 1/4+z,1/4-y,3/4+x
_cell_length_a                   18.6400(18)
_cell_length_b                   18.6400(18)
_cell_length_c                   18.6400(18)
_cell_angle_alpha                90
_cell_angle_beta                 90
_cell_angle_gamma                90
_cell_volume                     6476.46
loop_
_atom_site_label
_atom_site_type_symbol
_atom_site_fract_x
_atom_site_fract_y
_atom_site_fract_z
Co1 Co -0.06672(2) 0.06672(2) 0.56672(2)
N1 N -0.03855(12) 0.17061(13) 0.60321(13)
N2 N 0.02192(13) 0.20551(13) 0.58737(13)
C1 C 0.07255(17) 0.32255(17) 0.6250
C2 C 0.01633(17) 0.26633(17) 0.6250
C3 C 0.07350(17) 0.3750 0.67650(17)
H1 H 0.0382 0.3750 0.7118
O1 O -0.08890(14) -0.03791(14) 0.52901(14)
N1F N -0.10321(13) 0.03855(12) 0.67061(13)
N1G N -0.17061(13) 0.10321(13) 0.53855(12)
N1M N -0.07939(13) 0.21145(12) 0.64679(13)
N2M N -0.04449(13) 0.27192(13) 0.66263(13)
C1H C 0.1250 0.42745(17) 0.67745(17)
C3I C 0.1250 0.32350(17) 0.57350(17)
O1F O -0.02901(14) 0.08890(14) 0.46209(14)
O1G O 0.03791(14) 0.02901(14) 0.58890(14)
loop_
_geom_bond_atom_site_label_1
_geom_bond_atom_site_label_2
_geom_bond_site_symmetry_1
_geom_bond_site_symmetry_2
Co1 N1 1_555 1_555
N1 N2 1_555 1_555
N2 C2 1_555 1_555
C1 C2 1_555 1_555
C2 N2M 1_555 1_555
C3 C1 1_555 1_555
H1 C3 1_555 1_555
O1 Co1 1_555 1_555
N1F Co1 1_555 1_555
N1G Co1 1_555 1_555
N1M N1 1_555 1_555
N2M N1M 1_555 1_555
C1H C3 1_555 1_555
C3I C1 1_555 1_555
O1F Co1 1_555 1_555
O1G Co1 1_555 1_555

#END
