
#######################################################################
#
#                 Cambridge Crystallographic Data Centre
#                                CCDC 
#
#######################################################################
#
# If this CIF has been generated from an entry in the Cambridge 
# Structural Database, then it will include bibliographic, chemical, 
# crystal, experimental, refinement or atomic coordinate data resulting 
# from the CCDC's data processing and validation procedures.
#
#######################################################################

data_ECOLAL
_symmetry_cell_setting           monoclinic
_symmetry_space_group_name_H-M   'P 21/c'
_symmetry_Int_Tables_number      14
_space_group_name_Hall           '-P 2ybc'
loop_
_symmetry_equiv_pos_site_id
_symmetry_equiv_pos_as_xyz
1 x,y,z
2 -x,1/2+y,1/2-z
3 -x,-y,-z
4 x,1/2-y,1/2+z
_cell_length_a                   10.808(3)
_cell_length_b                   14.067(2)
_cell_length_c                   15.788(4)
_cell_angle_alpha                90
_cell_angle_beta                 132.447(15)
_cell_angle_gamma                90
_cell_volume                     1771.22
loop_
_atom_site_label
_atom_site_type_symbol
_atom_site_fract_x
_atom_site_fract_y
_atom_site_fract_z
Cd1 Cd 0.15795(14) 0.50224(7) 0.17998(11)
P1 P -0.0051(5) 0.6112(2) 0.2281(3)
O1 O 0.2627(13) 0.8810(6) 0.6497(10)
O2 O 0.0494(15) 0.9146(7) 0.4688(11)
O3 O 0.6701(14) 0.6319(7) 0.7563(10)
O4 O 0.5790(12) 0.5167(7) 0.6361(9)
C1 C 0.169(2) 0.8654(9) 0.5451(15)
C2 C 0.2125(16) 0.7760(8) 0.5136(13)
C3 C 0.0991(17) 0.7434(8) 0.4014(12)
H1 H 0.0001 0.7765 0.3457
C4 C 0.1356(17) 0.6590(8) 0.3723(12)
C5 C 0.2833(16) 0.6140(8) 0.4580(12)
H2 H 0.3088 0.5586 0.4403
C6 C 0.3971(16) 0.6468(7) 0.5700(12)
C7 C 0.3588(15) 0.7281(7) 0.5978(11)
H3 H 0.4318 0.7502 0.6730
C8 C 0.5600(18) 0.5958(9) 0.6606(13)
C9 C -0.0946(19) 0.7173(9) 0.1368(12)
C10 C 0.015(2) 0.7719(9) 0.1396(15)
H4 H 0.1271 0.7544 0.1866
C11 C -0.044(3) 0.8527(10) 0.0721(18)
H5 H 0.0285 0.8910 0.0742
C12 C -0.213(3) 0.8753(13) 0.0008(18)
H6 H -0.2546 0.9277 -0.0476
C13 C -0.318(3) 0.8245(14) -0.0004(19)
H7 H -0.4300 0.8423 -0.0470
C14 C -0.258(2) 0.7436(12) 0.0693(15)
H8 H -0.3302 0.7078 0.0695
C15 C -0.1763(18) 0.5543(8) 0.2058(12)
C16 C -0.228(2) 0.4682(10) 0.1492(15)
H9 H -0.1760 0.4439 0.1249
C17 C -0.354(2) 0.4184(13) 0.1288(16)
H10 H -0.3890 0.3608 0.0898
C18 C -0.432(2) 0.4525(14) 0.1653(15)
H11 H -0.5165 0.4180 0.1524
C19 C -0.380(2) 0.5387(12) 0.2213(15)
H12 H -0.4315 0.5632 0.2454
C20 C -0.253(2) 0.5892(11) 0.2419(15)
H13 H -0.2186 0.6470 0.2804
Cd1B Cd 0.84205(14) 0.49776(7) 0.82002(11)
Cd1A Cd -0.15795(14) 1.00224(7) 0.32002(11)
Cd1A_2 Cd 0.84205(14) 0.00224(7) 0.32002(11)
Cd1C Cd 0.15795(14) 0.99776(7) 0.67998(11)
Cd1C_2 Cd 1.15795(14) -0.00224(7) 0.67998(11)
P1B P 1.0051(5) 0.3888(2) 0.7719(3)
O1B O 0.7373(13) 0.1190(6) 0.3503(10)
O1A O 0.7373(13) 0.3810(6) 0.8503(10)
O1C O 0.2627(13) 0.6190(6) 0.1497(10)
O2B O 0.9506(15) 0.0854(7) 0.5312(11)
O2A O -0.0494(15) 0.4146(7) 0.0312(11)
O2C O 1.0494(15) 0.5854(7) 0.9688(11)
O3B O 0.3299(14) 0.3681(7) 0.2437(10)
O4B O 0.4210(12) 0.4833(7) 0.3639(9)
C1B C 0.831(2) 0.1346(9) 0.4549(15)
C2B C 0.7875(16) 0.2240(8) 0.4864(13)
C3B C 0.9009(17) 0.2566(8) 0.5986(12)
H1B H 0.9999 0.2235 0.6543
C4B C 0.8644(17) 0.3410(8) 0.6277(12)
C5B C 0.7167(16) 0.3860(8) 0.5420(12)
H2B H 0.6912 0.4414 0.5597
C6B C 0.6029(16) 0.3532(7) 0.4300(12)
C7B C 0.6412(15) 0.2719(7) 0.4022(11)
H3B H 0.5682 0.2498 0.3270
C8B C 0.4400(18) 0.4042(9) 0.3394(13)
C9B C 1.0946(19) 0.2827(9) 0.8632(12)
C10B C 0.985(2) 0.2281(9) 0.8604(15)
H4B H 0.8729 0.2456 0.8134
C11B C 1.044(3) 0.1473(10) 0.9279(18)
H5B H 0.9715 0.1090 0.9258
C12B C 1.213(3) 0.1247(13) 0.9992(18)
H6B H 1.2546 0.0723 1.0476
C13B C 1.318(3) 0.1755(14) 1.0004(19)
H7B H 1.4300 0.1577 1.0470
C14B C 1.258(2) 0.2564(12) 0.9307(15)
H8B H 1.3302 0.2922 0.9305
C15B C 1.1763(18) 0.4457(8) 0.7942(12)
C16B C 1.228(2) 0.5318(10) 0.8508(15)
H9B H 1.1760 0.5561 0.8751
C17B C 1.354(2) 0.5816(13) 0.8712(16)
H10B H 1.3890 0.6392 0.9102
C18B C 1.432(2) 0.5475(14) 0.8347(15)
H11B H 1.5165 0.5820 0.8476
C19B C 1.380(2) 0.4613(12) 0.7787(15)
H12B H 1.4315 0.4368 0.7546
C20B C 1.253(2) 0.4108(11) 0.7581(15)
H13B H 1.2186 0.3530 0.7196
loop_
_geom_bond_atom_site_label_1
_geom_bond_atom_site_label_2
_geom_bond_site_symmetry_1
_geom_bond_site_symmetry_2
Cd1 P1 1_555 1_555
P1 C4 1_555 1_555
O1 C1 1_555 1_555
O2 C1 1_555 1_555
O3 C8 1_555 1_555
O4 C8 1_555 1_555
C1 C2 1_555 1_555
C2 C3 1_555 1_555
C3 H1 1_555 1_555
C4 C3 1_555 1_555
C5 C4 1_555 1_555
H2 C5 1_555 1_555
C6 C5 1_555 1_555
C7 C2 1_555 1_555
H3 C7 1_555 1_555
C8 C6 1_555 1_555
C9 P1 1_555 1_555
C10 C9 1_555 1_555
H4 C10 1_555 1_555
C11 C10 1_555 1_555
H5 C11 1_555 1_555
C12 C11 1_555 1_555
H6 C12 1_555 1_555
C13 C12 1_555 1_555
H7 C13 1_555 1_555
C14 C9 1_555 1_555
H8 C14 1_555 1_555
C15 P1 1_555 1_555
C16 C15 1_555 1_555
H9 C16 1_555 1_555
C17 C16 1_555 1_555
H10 C17 1_555 1_555
C18 C17 1_555 1_555
H11 C18 1_555 1_555
C19 C18 1_555 1_555
H12 C19 1_555 1_555
C20 C15 1_555 1_555
H13 C20 1_555 1_555
Cd1B O3 1_555 1_555
Cd1A O2 1_555 1_555
Cd1A_2 O1B 1_555 1_555
Cd1C O1 1_555 1_555
Cd1C_2 O2B 1_555 1_555
P1B Cd1B 1_555 1_555
O1B C1B 1_555 1_555
O1A Cd1B 1_555 1_555
O1C Cd1 1_555 1_555
O2B C1B 1_555 1_555
O2A Cd1 1_555 1_555
O2C Cd1B 1_555 1_555
O3B Cd1 1_555 1_555
O4B Cd1 1_555 1_555
C1B C2B 1_555 1_555
C2B C3B 1_555 1_555
C3B H1B 1_555 1_555
C4B P1B 1_555 1_555
C5B C4B 1_555 1_555
H2B C5B 1_555 1_555
C6B C5B 1_555 1_555
C7B C2B 1_555 1_555
H3B C7B 1_555 1_555
C8B O3B 1_555 1_555
C9B P1B 1_555 1_555
C10B C9B 1_555 1_555
H4B C10B 1_555 1_555
C11B C10B 1_555 1_555
H5B C11B 1_555 1_555
C12B C11B 1_555 1_555
H6B C12B 1_555 1_555
C13B C12B 1_555 1_555
H7B C13B 1_555 1_555
C14B C9B 1_555 1_555
H8B C14B 1_555 1_555
C15B P1B 1_555 1_555
C16B C15B 1_555 1_555
H9B C16B 1_555 1_555
C17B C16B 1_555 1_555
H10B C17B 1_555 1_555
C18B C17B 1_555 1_555
H11B C18B 1_555 1_555
C19B C18B 1_555 1_555
H12B C19B 1_555 1_555
C20B C15B 1_555 1_555
H13B C20B 1_555 1_555
O4 Cd1B 1_555 1_555
C6 C7 1_555 1_555
C13 C14 1_555 1_555
C19 C20 1_555 1_555
O4B C8B 1_555 1_555
C3B C4B 1_555 1_555
C6B C7B 1_555 1_555
C6B C8B 1_555 1_555
C13B C14B 1_555 1_555
C19B C20B 1_555 1_555

#END
