
#######################################################################
#
#                 Cambridge Crystallographic Data Centre
#                                CCDC 
#
#######################################################################
#
# If this CIF has been generated from an entry in the Cambridge 
# Structural Database, then it will include bibliographic, chemical, 
# crystal, experimental, refinement or atomic coordinate data resulting 
# from the CCDC's data processing and validation procedures.
#
#######################################################################

data_ECOSUL01
_symmetry_cell_setting           monoclinic
_symmetry_space_group_name_H-M   'P 21/n'
_symmetry_Int_Tables_number      14
_space_group_name_Hall           '-P 2yn'
loop_
_symmetry_equiv_pos_site_id
_symmetry_equiv_pos_as_xyz
1 x,y,z
2 1/2-x,1/2+y,1/2-z
3 -x,-y,-z
4 1/2+x,1/2-y,1/2+z
_cell_length_a                   5.80630(10)
_cell_length_b                   10.3867(3)
_cell_length_c                   14.8094(4)
_cell_angle_alpha                90
_cell_angle_beta                 96.9260(10)
_cell_angle_gamma                90
_cell_volume                     886.612
loop_
_atom_site_label
_atom_site_type_symbol
_atom_site_fract_x
_atom_site_fract_y
_atom_site_fract_z
Na1 Na -0.12332(8) 0.74997(4) 0.17337(3)
Fe1 Fe 0.40815(2) -0.443590(13) 0.243050(10)
Fe2 Fe 0.5000 0.0000 0.5000
P1 P 0.57676(5) -0.31287(3) 0.45317(2)
O1 O 0.50948(16) -0.17439(8) 0.43978(6)
O2 O 0.44805(15) -0.40936(8) 0.38851(6)
O3 O 0.5297(2) -0.35056(10) 0.55281(6)
H1 H 0.558(4) -0.428(2) 0.5706(16)
O4 O 0.29677(12) -0.63873(7) 0.25489(6)
O5 O -0.01401(13) -0.75722(7) 0.27524(6)
O6 O -0.27238(13) -0.54221(8) 0.26306(6)
O7 O 0.04358(13) -0.42806(7) 0.24084(6)
O8 O 0.22083(13) -0.06886(8) 0.57523(6)
O9 O -0.15462(13) -0.03861(8) 0.59098(5)
C1 C 0.8831(3) -0.32946(17) 0.44856(13)
C2 C 0.08703(16) -0.65344(9) 0.26165(7)
C3 C -0.06233(16) -0.53019(9) 0.25420(7)
C4 C 0.02063(17) -0.03099(10) 0.54789(7)
Fe1B Fe 0.59185(2) 0.443590(13) 0.756950(10)
Fe1A Fe 0.09185(2) -0.943590(13) 0.256950(10)
Fe1_2 Fe -0.59185(2) -0.443590(13) 0.243050(10)
Fe1C Fe -0.09185(2) -0.056410(13) 0.743050(10)
Fe1A_2 Fe 0.09185(2) 0.056410(13) 0.256950(10)
Fe1A_3 Fe 1.09185(2) 0.056410(13) 0.256950(10)
Fe2_2 Fe -0.5000 0.0000 0.5000
P1B P 0.42324(5) 0.31287(3) 0.54683(2)
O1B O 0.49052(16) 0.17439(8) 0.56022(6)
O2B O 0.55195(15) 0.40936(8) 0.61149(6)
O3B O 0.4703(2) 0.35056(10) 0.44719(6)
H1B H 0.442(4) 0.428(2) 0.4294(16)
O4A O 0.20323(12) -0.13873(7) 0.24511(6)
O4B O 0.70323(12) 0.63873(7) 0.74511(6)
O5A O 0.51401(13) -0.25722(7) 0.22476(6)
O5C O 0.48599(13) 0.25722(7) 0.77524(6)
O6A O 0.77238(13) -0.04221(8) 0.23694(6)
O6_2 O 0.72762(13) -0.54221(8) 0.26306(6)
O6B O 0.27238(13) 0.54221(8) 0.73694(6)
O7A O 0.45642(13) 0.07194(7) 0.25916(6)
O7B O 0.95642(13) 0.42806(7) 0.75916(6)
O8B O -0.22083(13) 0.06886(8) 0.42477(6)
O8B_2 O 0.77917(13) 0.06886(8) 0.42477(6)
O9B O 0.15462(13) 0.03861(8) 0.40902(5)
O9C O 0.34538(13) -0.46139(8) 0.09098(5)
O9_2 O 0.84538(13) -0.03861(8) 0.59098(5)
O9A O 0.65462(13) 0.46139(8) 0.90902(5)
C1B C 0.1169(3) 0.32946(17) 0.55144(13)
C2A C 0.41297(16) -0.15344(9) 0.23835(7)
C3A C 0.56233(16) -0.03019(9) 0.24580(7)
C4B C -0.02063(17) 0.03099(10) 0.45211(7)
loop_
_geom_bond_atom_site_label_1
_geom_bond_atom_site_label_2
_geom_bond_site_symmetry_1
_geom_bond_site_symmetry_2
Fe1 O2 1_555 1_555
Fe2 O1 1_555 1_555
P1 O1 1_555 1_555
O2 P1 1_555 1_555
O3 P1 1_555 1_555
H1 O3 1_555 1_555
O4 Fe1 1_555 1_555
O5 C2 1_555 1_555
O6 C3 1_555 1_555
O7 Fe1 1_555 1_555
O8 Fe2 1_555 1_555
O9 C4 1_555 1_555
C1 P1 1_555 1_555
C2 O4 1_555 1_555
C3 O7 1_555 1_555
C4 O8 1_555 1_555
Fe1B O2B 1_555 1_555
Fe1A O5 1_555 1_555
Fe1_2 O6 1_555 1_555
Fe1C O9 1_555 1_555
Fe1A_2 O4A 1_555 1_555
Fe1A_3 O6A 1_555 1_555
Fe2_2 O9 1_555 1_555
P1B O1B 1_555 1_555
O1B Fe2 1_555 1_555
O2B P1B 1_555 1_555
O3B P1B 1_555 1_555
H1B O3B 1_555 1_555
O4A C2A 1_555 1_555
O4B Fe1B 1_555 1_555
O5A Fe1 1_555 1_555
O5C Fe1B 1_555 1_555
O6A C3A 1_555 1_555
O6_2 Fe1 1_555 1_555
O6B Fe1B 1_555 1_555
O7A Fe1A_2 1_555 1_555
O7B Fe1B 1_555 1_555
O8B Fe2_2 1_555 1_555
O8B_2 Fe2 1_555 1_555
O9B Fe2 1_555 1_555
O9C Fe1 1_555 1_555
O9_2 Fe2 1_555 1_555
O9A Fe1B 1_555 1_555
C1B P1B 1_555 1_555
C2A O5A 1_555 1_555
C3A O7A 1_555 1_555
C4B C4 1_555 1_555
C2 C3 1_555 1_555
Fe1A_2 O9B 1_555 1_555
O8B C4B 1_555 1_555
O9B C4B 1_555 1_555
C2A C3A 1_555 1_555

#END
