
#######################################################################
#
#                 Cambridge Crystallographic Data Centre
#                                CCDC 
#
#######################################################################
#
# If this CIF has been generated from an entry in the Cambridge 
# Structural Database, then it will include bibliographic, chemical, 
# crystal, experimental, refinement or atomic coordinate data resulting 
# from the CCDC's data processing and validation procedures.
#
#######################################################################

data_ECOTEW
_symmetry_cell_setting           monoclinic
_symmetry_space_group_name_H-M   'P 21/n'
_symmetry_Int_Tables_number      14
_space_group_name_Hall           '-P 2yn'
loop_
_symmetry_equiv_pos_site_id
_symmetry_equiv_pos_as_xyz
1 x,y,z
2 1/2-x,1/2+y,1/2-z
3 -x,-y,-z
4 1/2+x,1/2-y,1/2+z
_cell_length_a                   8.0038(3)
_cell_length_b                   10.2923(3)
_cell_length_c                   11.4755(4)
_cell_angle_alpha                90
_cell_angle_beta                 100.5070(10)
_cell_angle_gamma                90
_cell_volume                     929.473
loop_
_atom_site_label
_atom_site_type_symbol
_atom_site_fract_x
_atom_site_fract_y
_atom_site_fract_z
Cs1 Cs 0.46164(5) 0.31882(4) 0.84137(3)
Fe1 Fe 0.45656(8) 0.73504(6) 0.50379(5)
P1 P 0.64902(15) 0.69281(11) 0.78081(10)
P2 P 0.74776(15) 0.52166(11) 0.45942(10)
O1 O 0.6025(4) 0.7543(3) 0.6608(3)
O2 O 0.8067(4) 0.7567(3) 0.8474(3)
O3 O 0.6766(5) 0.5433(3) 0.7731(3)
H1 H 0.7327 0.5164 0.7132
O4 O 0.5010(4) 0.6952(3) 0.8528(3)
H2 H 0.4586 0.7843 0.8585
O5 O 0.5912(4) 0.6066(3) 0.4408(3)
O6 O 0.7040(4) 0.3784(3) 0.4340(3)
O7 O 0.8652(4) 0.5683(3) 0.3746(3)
O8 O 0.8439(4) 0.5365(3) 0.5904(3)
H3 H 0.9104 0.6007 0.5754
O9 O 0.6157(4) 0.8782(3) 0.4473(3)
O10 O 0.6573(4) 1.0925(3) 0.4531(3)
C1 C 0.5792(6) 0.9911(4) 0.4709(4)
Fe1C Fe -0.04344(8) 0.76496(6) 0.00379(5)
Fe1C_2 Fe 0.95656(8) 0.76496(6) 1.00379(5)
Fe1B Fe 0.54344(8) 0.26496(6) 0.49621(5)
Fe1B_2 Fe 0.54344(8) 1.26496(6) 0.49621(5)
P1C P 0.14902(15) 0.80719(11) 0.28081(10)
P2B P 0.25224(15) 0.47834(11) 0.54058(10)
O1C O 0.1025(4) 0.7457(3) 0.1608(3)
O2C O 0.3067(4) 0.7433(3) 0.3474(3)
O2_2 O -0.1933(4) 0.7567(3) -0.1526(3)
O3C O 0.1766(5) 0.9567(3) 0.2731(3)
H1C H 0.2327 0.9836 0.2132
O4C O 0.0010(4) 0.8048(3) 0.3528(3)
H2C H -0.0414 0.7157 0.3585
O5B O 0.4088(4) 0.3934(3) 0.5592(3)
O5C O 0.0912(4) 0.8934(3) -0.0592(3)
O6B O 0.2960(4) 0.6216(3) 0.5660(3)
O6A O -0.2040(4) 0.8784(3) 0.0660(3)
O7B O 0.1348(4) 0.4317(3) 0.6254(3)
O8B O 0.1561(4) 0.4635(3) 0.4096(3)
H3B H 0.0896 0.3993 0.4246
O9B O 0.3843(4) 1.1218(3) 0.5527(3)
O9C O 0.1157(4) 0.6218(3) -0.0527(3)
O10B O 0.3427(4) 0.9075(3) 0.5469(3)
O10A O -0.1573(4) 0.5925(3) 0.0469(3)
C1B C 0.4208(6) 1.0089(4) 0.5291(4)
loop_
_geom_bond_atom_site_label_1
_geom_bond_atom_site_label_2
_geom_bond_site_symmetry_1
_geom_bond_site_symmetry_2
Fe1 O1 1_555 1_555
P1 O1 1_555 1_555
P2 O5 1_555 1_555
O2 P1 1_555 1_555
O3 P1 1_555 1_555
H1 O3 1_555 1_555
O4 P1 1_555 1_555
H2 O4 1_555 1_555
O5 Fe1 1_555 1_555
O6 P2 1_555 1_555
O7 P2 1_555 1_555
O8 P2 1_555 1_555
H3 O8 1_555 1_555
O9 Fe1 1_555 1_555
O10 C1 1_555 1_555
C1 O9 1_555 1_555
Fe1C O1C 1_555 1_555
Fe1C_2 O2 1_555 1_555
Fe1B O6 1_555 1_555
Fe1B_2 O10 1_555 1_555
P1C O1C 1_555 1_555
P2B O5B 1_555 1_555
O2C Fe1 1_555 1_555
O2_2 Fe1C 1_555 1_555
O3C P1C 1_555 1_555
H1C O3C 1_555 1_555
O4C P1C 1_555 1_555
H2C O4C 1_555 1_555
O5B Fe1B 1_555 1_555
O5C Fe1C 1_555 1_555
O6B Fe1 1_555 1_555
O6A Fe1C 1_555 1_555
O7B P2B 1_555 1_555
O8B P2B 1_555 1_555
H3B O8B 1_555 1_555
O9B Fe1B_2 1_555 1_555
O9C Fe1C 1_555 1_555
O10B Fe1 1_555 1_555
O10A Fe1C 1_555 1_555
C1B C1 1_555 1_555
P1C O2C 1_555 1_555
P2B O6B 1_555 1_555
O9B C1B 1_555 1_555
O10B C1B 1_555 1_555

#END
