
#######################################################################
#
#                 Cambridge Crystallographic Data Centre
#                                CCDC 
#
#######################################################################
#
# If this CIF has been generated from an entry in the Cambridge 
# Structural Database, then it will include bibliographic, chemical, 
# crystal, experimental, refinement or atomic coordinate data resulting 
# from the CCDC's data processing and validation procedures.
#
#######################################################################

data_ECOWOI
_symmetry_cell_setting           monoclinic
_symmetry_space_group_name_H-M   'C 2/c'
_symmetry_Int_Tables_number      15
_space_group_name_Hall           '-C 2yn'
loop_
_symmetry_equiv_pos_site_id
_symmetry_equiv_pos_as_xyz
1 x,y,z
2 1/2+x,1/2+y,z
3 x,-y,1/2+z
4 1/2+x,1/2-y,1/2+z
5 -x,-y,-z
6 1/2-x,1/2-y,-z
7 -x,y,1/2-z
8 1/2-x,1/2+y,1/2-z
_cell_length_a                   18.698(2)
_cell_length_b                   14.3969(18)
_cell_length_c                   12.9711(16)
_cell_angle_alpha                90
_cell_angle_beta                 121.106(2)
_cell_angle_gamma                90
_cell_volume                     2989.67
loop_
_atom_site_label
_atom_site_type_symbol
_atom_site_fract_x
_atom_site_fract_y
_atom_site_fract_z
Cu1 Cu 0.0000 0.0000 0.0000
S1 S 0.0000 0.14667(8) 0.2500
O1 O 0.00797(14) 0.08864(18) 0.16480(19)
O2 O 0.0760(3) 0.2017(3) 0.3163(4)
S2 S 0.37658(5) 0.13400(7) 0.14214(9)
N1 N 0.12059(14) 0.03856(18) 0.0594(2)
N2 N 0.45637(14) 0.38360(17) 0.3924(2)
C1 C 0.15882(18) 0.1093(2) 0.1364(3)
H1 H 0.1314 0.1381 0.1705
C2 C 0.23708(19) 0.1412(2) 0.1670(3)
H2 H 0.2616 0.1904 0.2205
C3 C 0.27855(17) 0.0986(2) 0.1168(3)
C4 C 0.24032(19) 0.0235(2) 0.0379(3)
C5 C 0.1624(2) -0.0033(2) 0.0140(3)
H3 H 0.1371 -0.0537 -0.0371
C6 C 0.2806(3) -0.0254(3) -0.0221(4)
H4 H 0.2447 -0.0744 -0.0724
H5 H 0.3333 -0.0511 0.0382
H6 H 0.2896 0.0181 -0.0704
C7 C 0.40309(17) 0.2294(2) 0.2428(3)
C8 C 0.43987(19) 0.2166(2) 0.3666(3)
C9 C 0.46525(19) 0.2977(2) 0.4362(3)
H7 H 0.4901 0.2912 0.5191
C10 C 0.41922(19) 0.3935(2) 0.2731(3)
H8 H 0.4113 0.4529 0.2408
C11 C 0.3923(2) 0.3181(2) 0.1967(3)
H9 H 0.3669 0.3270 0.1141
C12 C 0.4522(3) 0.1242(3) 0.4252(4)
H10 H 0.4789 0.1322 0.5107
H11 H 0.4867 0.0862 0.4075
H12 H 0.3990 0.0946 0.3951
O1F O -0.00797(14) 0.08864(18) 0.33520(19)
O2F O -0.0760(3) 0.2017(3) 0.1837(4)
S2D S -0.37658(5) -0.13400(7) -0.14214(9)
N1D N -0.12059(14) -0.03856(18) -0.0594(2)
N2D N -0.45637(14) -0.38360(17) -0.3924(2)
C1D C -0.15882(18) -0.1093(2) -0.1364(3)
H1D H -0.1314 -0.1381 -0.1705
C2D C -0.23708(19) -0.1412(2) -0.1670(3)
H2D H -0.2616 -0.1904 -0.2205
C3D C -0.27855(17) -0.0986(2) -0.1168(3)
C4D C -0.24032(19) -0.0235(2) -0.0379(3)
C5D C -0.1624(2) 0.0033(2) -0.0140(3)
H3D H -0.1371 0.0537 0.0371
C6D C -0.2806(3) 0.0254(3) 0.0221(4)
H4D H -0.2447 0.0744 0.0724
H5D H -0.3333 0.0511 -0.0382
H6D H -0.2896 -0.0181 0.0704
C7D C -0.40309(17) -0.2294(2) -0.2428(3)
C8D C -0.43987(19) -0.2166(2) -0.3666(3)
C9D C -0.46525(19) -0.2977(2) -0.4362(3)
H7D H -0.4901 -0.2912 -0.5191
C10D C -0.41922(19) -0.3935(2) -0.2731(3)
H8D H -0.4113 -0.4529 -0.2408
C11D C -0.3923(2) -0.3181(2) -0.1967(3)
H9D H -0.3669 -0.3270 -0.1141
C12D C -0.4522(3) -0.1242(3) -0.4252(4)
H10D H -0.4789 -0.1322 -0.5107
H11D H -0.4867 -0.0862 -0.4075
H12D H -0.3990 -0.0946 -0.3951
O1D O -0.00797(14) -0.08864(18) -0.16480(19)
N2C N -0.04363(14) 0.11640(17) -0.1076(2)
N2G N 0.04363(14) -0.11640(17) 0.1076(2)
Cu1C Cu 0.5000 0.5000 0.5000
Cu1B Cu 0.0000 0.0000 0.5000
Cu1C_2 Cu -0.5000 -0.5000 -0.5000
Cl1 Cl 0.2876(8) 0.2652(6) 0.4292(10)
Cl2 Cl 0.1531(11) 0.3534(10) 0.2326(11)
C13 C 0.2031(17) 0.284(2) 0.332(3)
O3 O 0.5000 -0.0938(9) 0.2500
loop_
_geom_bond_atom_site_label_1
_geom_bond_atom_site_label_2
_geom_bond_site_symmetry_1
_geom_bond_site_symmetry_2
Cu1 O1 1_555 1_555
S1 O1 1_555 1_555
O2 S1 1_555 1_555
S2 C3 1_555 1_555
N1 Cu1 1_555 1_555
N2 C9 1_555 1_555
C1 N1 1_555 1_555
H1 C1 1_555 1_555
C2 C1 1_555 1_555
H2 C2 1_555 1_555
C3 C2 1_555 1_555
C4 C3 1_555 1_555
C5 N1 1_555 1_555
H3 C5 1_555 1_555
C6 C4 1_555 1_555
H4 C6 1_555 1_555
H5 C6 1_555 1_555
H6 C6 1_555 1_555
C7 S2 1_555 1_555
C8 C7 1_555 1_555
C9 C8 1_555 1_555
H7 C9 1_555 1_555
C10 N2 1_555 1_555
H8 C10 1_555 1_555
C11 C7 1_555 1_555
H9 C11 1_555 1_555
C12 C8 1_555 1_555
H10 C12 1_555 1_555
H11 C12 1_555 1_555
H12 C12 1_555 1_555
Cl1 C13 1_555 1_555
Cl2 C13 1_555 1_555
O1F S1 1_555 1_555
O2F S1 1_555 1_555
S2D C3D 1_555 1_555
N1D Cu1 1_555 1_555
N2D C9D 1_555 1_555
C1D N1D 1_555 1_555
H1D C1D 1_555 1_555
C2D C1D 1_555 1_555
H2D C2D 1_555 1_555
C3D C2D 1_555 1_555
C4D C3D 1_555 1_555
C5D N1D 1_555 1_555
H3D C5D 1_555 1_555
C6D C4D 1_555 1_555
H4D C6D 1_555 1_555
H5D C6D 1_555 1_555
H6D C6D 1_555 1_555
C7D S2D 1_555 1_555
C8D C7D 1_555 1_555
C9D C8D 1_555 1_555
H7D C9D 1_555 1_555
C10D N2D 1_555 1_555
H8D C10D 1_555 1_555
C11D C7D 1_555 1_555
H9D C11D 1_555 1_555
C12D C8D 1_555 1_555
H10D C12D 1_555 1_555
H11D C12D 1_555 1_555
H12D C12D 1_555 1_555
O1D Cu1 1_555 1_555
N2C Cu1 1_555 1_555
N2G Cu1 1_555 1_555
Cu1C N2 1_555 1_555
Cu1B O1F 1_555 1_555
Cu1C_2 N2D 1_555 1_555
C4 C5 1_555 1_555
C10 C11 1_555 1_555
C4D C5D 1_555 1_555
C10D C11D 1_555 1_555

#END
