
#######################################################################
#
#                 Cambridge Crystallographic Data Centre
#                                CCDC 
#
#######################################################################
#
# If this CIF has been generated from an entry in the Cambridge 
# Structural Database, then it will include bibliographic, chemical, 
# crystal, experimental, refinement or atomic coordinate data resulting 
# from the CCDC's data processing and validation procedures.
#
#######################################################################

data_ECOXAX
_symmetry_cell_setting           monoclinic
_symmetry_space_group_name_H-M   'P 21'
_symmetry_Int_Tables_number      4
_space_group_name_Hall           'P 2yb'
loop_
_symmetry_equiv_pos_site_id
_symmetry_equiv_pos_as_xyz
1 x,y,z
2 -x,1/2+y,-z
_cell_length_a                   6.1363(13)
_cell_length_b                   15.109(4)
_cell_length_c                   9.7475(17)
_cell_angle_alpha                90
_cell_angle_beta                 94.370(15)
_cell_angle_gamma                90
_cell_volume                     901.096
loop_
_atom_site_label
_atom_site_type_symbol
_atom_site_fract_x
_atom_site_fract_y
_atom_site_fract_z
C1 C -0.1658(15) 0.2354(9) 0.0269(13)
H1 H -0.1875 0.2489 -0.0737
C2 C -0.3902(18) 0.2209(9) 0.0864(13)
H2 H -0.4849 0.1833 0.0219
C3 C -0.3855(18) 0.1838(11) 0.2260(13)
H3 H -0.5364 0.1745 0.2523
H4 H -0.3109 0.2254 0.2927
C4 C -0.2598(18) 0.0936(9) 0.2280(15)
H5 H -0.2580 0.0660 0.3202
H6 H -0.3312 0.0523 0.1597
C5 C -0.0249(18) 0.1145(11) 0.1917(13)
H7 H 0.0411 0.1584 0.2578
H8 H 0.0643 0.0598 0.2002
C6 C -0.0211(18) 0.1498(10) 0.0501(13)
H9 H -0.0748 0.1037 -0.0164
H10 H 0.1316 0.1639 0.0318
C7 C -0.1644(19) 0.5307(11) 0.2778(12)
H11 H -0.0679 0.5841 0.2809
C8 C -0.3856(18) 0.5509(10) 0.1969(12)
H12 H -0.3540 0.5819 0.1100
C9 C -0.5360(19) 0.6126(10) 0.2771(13)
H13 H -0.4735 0.6730 0.2820
H14 H -0.6822 0.6160 0.2269
C10 C -0.5586(18) 0.5789(10) 0.4191(12)
H15 H -0.6395 0.5222 0.4137
H16 H -0.6450 0.6218 0.4694
C11 C -0.3346(17) 0.5645(9) 0.4999(14)
H17 H -0.2570 0.6217 0.5125
H18 H -0.3560 0.5397 0.5919
C12 C -0.1983(17) 0.4999(9) 0.4184(13)
H19 H -0.0541 0.4913 0.4694
H20 H -0.2730 0.4418 0.4126
C13 C 0.311(2) 0.3464(10) 0.5632(15)
H21 H 0.4493 0.3677 0.5985
C14 C -0.0432(19) 0.2930(11) 0.6087(14)
H22 H -0.1573 0.3344 0.6323
H23 H -0.0633 0.2363 0.6550
H24 H -0.0528 0.2838 0.5089
C15 C 0.218(2) 0.3426(10) 0.7989(12)
H25 H 0.3592 0.3727 0.8146
H26 H 0.2244 0.2853 0.8461
H27 H 0.1034 0.3791 0.8350
N1 N 0.1694(15) 0.3290(8) 0.6530(10)
O1 O -0.0700(12) 0.3086(6) 0.0979(8)
O2 O 0.2829(17) 0.3381(7) 0.4385(11)
O3 O -0.4811(12) 0.3120(6) 0.0884(8)
O4 O -0.0757(10) 0.4621(6) 0.1965(8)
O5 O -0.4856(12) 0.4685(6) 0.1602(9)
O6 O -0.2744(10) 0.4332(6) -0.0705(8)
Na1 Na 0.2387(6) 0.3729(3) 0.2101(4)
Cr1 Cr -0.2771(3) 0.40119(14) 0.0800(2)
O3_2 O 0.5189(12) 0.3120(6) 0.0884(8)
O5_2 O 0.5144(12) 0.4685(6) 0.1602(9)
Na1_2 Na -0.7613(6) 0.3729(3) 0.2101(4)
loop_
_geom_bond_atom_site_label_1
_geom_bond_atom_site_label_2
_geom_bond_site_symmetry_1
_geom_bond_site_symmetry_2
C1 H1 1_555 1_555
C2 C1 1_555 1_555
H2 C2 1_555 1_555
C3 C2 1_555 1_555
H3 C3 1_555 1_555
H4 C3 1_555 1_555
C4 C3 1_555 1_555
H5 C4 1_555 1_555
H6 C4 1_555 1_555
C5 C4 1_555 1_555
H7 C5 1_555 1_555
H8 C5 1_555 1_555
C6 C1 1_555 1_555
H9 C6 1_555 1_555
H10 C6 1_555 1_555
C7 H11 1_555 1_555
C8 C7 1_555 1_555
H12 C8 1_555 1_555
C9 C8 1_555 1_555
H13 C9 1_555 1_555
H14 C9 1_555 1_555
C10 C9 1_555 1_555
H15 C10 1_555 1_555
H16 C10 1_555 1_555
C11 C10 1_555 1_555
H17 C11 1_555 1_555
H18 C11 1_555 1_555
C12 C7 1_555 1_555
H19 C12 1_555 1_555
H20 C12 1_555 1_555
C13 H21 1_555 1_555
C14 H22 1_555 1_555
H23 C14 1_555 1_555
H24 C14 1_555 1_555
C15 H25 1_555 1_555
H26 C15 1_555 1_555
H27 C15 1_555 1_555
N1 C13 1_555 1_555
O1 C1 1_555 1_555
O2 C13 1_555 1_555
O3 C2 1_555 1_555
O4 C7 1_555 1_555
O5 C8 1_555 1_555
O6 Cr1 1_555 1_555
Na1 O1 1_555 1_555
Cr1 O1 1_555 1_555
O3_2 Na1 1_555 1_555
O5_2 Na1 1_555 1_555
Na1_2 O3 1_555 1_555
C5 C6 1_555 1_555
C11 C12 1_555 1_555
C14 N1 1_555 1_555
C15 N1 1_555 1_555
O2 Na1 1_555 1_555
O3 Cr1 1_555 1_555
O4 Na1 1_555 1_555
O4 Cr1 1_555 1_555
O5 Cr1 1_555 1_555
O5 Na1_2 1_555 1_555

#END
