
#######################################################################
#
#                 Cambridge Crystallographic Data Centre
#                                CCDC 
#
#######################################################################
#
# If this CIF has been generated from an entry in the Cambridge 
# Structural Database, then it will include bibliographic, chemical, 
# crystal, experimental, refinement or atomic coordinate data resulting 
# from the CCDC's data processing and validation procedures.
#
#######################################################################

data_ECOYOM
_symmetry_cell_setting           triclinic
_symmetry_space_group_name_H-M   'P -1'
_symmetry_Int_Tables_number      2
_space_group_name_Hall           '-P 1'
loop_
_symmetry_equiv_pos_site_id
_symmetry_equiv_pos_as_xyz
1 x,y,z
2 -x,-y,-z
_cell_length_a                   11.795(5)
_cell_length_b                   13.564(5)
_cell_length_c                   16.478(5)
_cell_angle_alpha                68.809(5)
_cell_angle_beta                 70.639(5)
_cell_angle_gamma                84.471(5)
_cell_volume                     2318.18
loop_
_atom_site_label
_atom_site_type_symbol
_atom_site_fract_x
_atom_site_fract_y
_atom_site_fract_z
Ag1 Ag -1.0000 -2.0000 0.0000
Ag2 Ag -0.48956(5) -1.45609(4) -0.89018(4)
Ag3 Ag 0.0000 -0.5000 -1.5000
C1 C -0.8325(6) -1.9438(5) -0.1989(4)
H1 H -0.8693 -2.0044 -0.1937
C2 C -0.7368(6) -1.8994(5) -0.2746(4)
H2 H -0.7085 -1.9304 -0.3193
C3 C -0.6816(6) -1.8085(5) -0.2852(4)
C4 C -0.7299(6) -1.7654(5) -0.2165(4)
H3 H -0.6971 -1.7030 -0.2213
C5 C -0.8251(6) -1.8147(5) -0.1423(4)
H4 H -0.8561 -1.7847 -0.0970
C6 C -0.5780(6) -1.7593(5) -0.3659(4)
C7 C -0.3870(7) -1.7439(6) -0.5816(4)
H5 H -0.3863 -1.8190 -0.5711
H6 H -0.3043 -1.7180 -0.6048
C8 C -0.5825(8) -1.6534(7) -0.7104(5)
H7 H -0.6541 -1.6558 -0.7219
C9 C -0.4104(7) -1.6053(5) -0.7255(4)
H8 H -0.3365 -1.5701 -0.7471
C10 C -0.4375(6) -1.6518(5) -0.4631(4)
C11 C -0.3524(6) -1.5608(5) -0.5089(4)
C12 C -0.3513(6) -1.4915(5) -0.4650(4)
H9 H -0.4054 -1.5006 -0.4068
C13 C -0.2683(7) -1.4084(6) -0.5094(5)
H10 H -0.2663 -1.3598 -0.4820
C14 C -0.1882(6) -1.3986(6) -0.5949(5)
H11 H -0.1299 -1.3445 -0.6255
C15 C -0.1964(7) -1.4696(6) -0.6334(5)
H12 H -0.1427 -1.4615 -0.6915
C16 C -0.3953(7) -1.3041(6) -1.0951(5)
H13 H -0.3288 -1.3457 -1.1069
C17 C -0.5593(6) -1.2507(5) -1.0257(4)
H14 H -0.6301 -1.2438 -0.9818
C18 C -0.5713(7) -1.0876(5) -1.1573(5)
H15 H -0.6569 -1.0905 -1.1247
H16 H -0.5614 -1.0837 -1.2193
C19 C -0.4033(6) -0.8599(5) -1.2186(4)
C20 C -0.3054(7) -0.7805(5) -1.2820(5)
C21 C -0.2288(8) -0.7932(6) -1.3614(6)
H17 H -0.2366 -0.8518 -1.3759
C22 C -0.1389(8) -0.7153(7) -1.4196(6)
H18 H -0.0865 -0.7231 -1.4731
C23 C -0.2002(8) -0.6186(6) -1.3234(5)
H19 H -0.1914 -0.5597 -1.3095
C24 C -0.2907(7) -0.6944(6) -1.2633(5)
H20 H -0.3416 -0.6854 -1.2098
C25 C -0.5523(6) -0.9365(5) -1.1038(4)
C26 C -0.6528(6) -0.9585(5) -1.0193(4)
C27 C -0.6917(7) -0.8843(6) -0.9778(5)
H21 H -0.6541 -0.8177 -1.0046
C28 C -0.7840(7) -0.9076(6) -0.8984(5)
H22 H -0.8095 -0.8586 -0.8690
C29 C -0.8401(7) -1.0069(6) -0.8617(5)
H23 H -0.9046 -1.0251 -0.8074
C30 C -0.8001(7) -1.0763(6) -0.9055(5)
H24 H -0.8390 -1.1422 -0.8804
N1 N -0.8761(5) -1.9043(4) -0.1314(3)
N2 N -0.5191(5) -1.6699(4) -0.3797(3)
N3 N -0.5393(5) -1.7965(4) -0.4340(3)
N4 N -0.4489(5) -1.7265(4) -0.4950(3)
N5 N -0.4471(5) -1.6893(4) -0.6486(3)
N6 N -0.5579(6) -1.7219(5) -0.6383(4)
N7 N -0.4934(6) -1.5787(5) -0.7669(4)
N8 N -0.2775(6) -1.5515(5) -0.5931(4)
N9 N -0.4826(5) -1.3293(4) -1.0130(3)
N10 N -0.4124(6) -1.2154(4) -1.1570(4)
N11 N -0.5175(5) -1.1841(4) -1.1117(3)
N12 N -0.5182(5) -0.9926(4) -1.1615(3)
N13 N -0.4229(5) -0.9454(4) -1.2345(4)
N14 N -0.4801(5) -0.8508(4) -1.1400(4)
N15 N -0.1268(6) -0.6298(5) -1.3998(5)
N16 N -0.7073(5) -1.0554(4) -0.9834(4)
Ag2A Ag -1.51044(5) -2.54391(4) 0.89018(4)
Ag3_2 Ag -2.0000 -3.5000 1.5000
C1A C -1.1675(6) -2.0562(5) 0.1989(4)
H1A H -1.1307 -1.9956 0.1937
C2A C -1.2632(6) -2.1006(5) 0.2746(4)
H2A H -1.2915 -2.0696 0.3193
C3A C -1.3184(6) -2.1915(5) 0.2852(4)
C4A C -1.2701(6) -2.2346(5) 0.2165(4)
H3A H -1.3029 -2.2970 0.2213
C5A C -1.1749(6) -2.1853(5) 0.1423(4)
H4A H -1.1439 -2.2153 0.0970
C6A C -1.4220(6) -2.2407(5) 0.3659(4)
C7A C -1.6130(7) -2.2561(6) 0.5816(4)
H5A H -1.6137 -2.1810 0.5711
H6A H -1.6957 -2.2820 0.6048
C8A C -1.4175(8) -2.3466(7) 0.7104(5)
H7A H -1.3459 -2.3442 0.7219
C9A C -1.5896(7) -2.3947(5) 0.7255(4)
H8A H -1.6635 -2.4299 0.7471
C10A C -1.5625(6) -2.3482(5) 0.4631(4)
C11A C -1.6476(6) -2.4392(5) 0.5089(4)
C12A C -1.6487(6) -2.5085(5) 0.4650(4)
H9A H -1.5946 -2.4994 0.4068
C13A C -1.7317(7) -2.5916(6) 0.5094(5)
H10A H -1.7337 -2.6402 0.4820
C14A C -1.8118(6) -2.6014(6) 0.5949(5)
H11A H -1.8701 -2.6555 0.6255
C15A C -1.8036(7) -2.5304(6) 0.6334(5)
H12A H -1.8573 -2.5385 0.6915
C16A C -1.6047(7) -2.6959(6) 1.0951(5)
H13A H -1.6712 -2.6543 1.1069
C17A C -1.4407(6) -2.7493(5) 1.0257(4)
H14A H -1.3699 -2.7562 0.9818
C18A C -1.4287(7) -2.9124(5) 1.1573(5)
H15A H -1.3431 -2.9095 1.1247
H16A H -1.4386 -2.9163 1.2193
C19A C -1.5967(6) -3.1401(5) 1.2186(4)
C20A C -1.6946(7) -3.2195(5) 1.2820(5)
C21A C -1.7712(8) -3.2068(6) 1.3614(6)
H17A H -1.7634 -3.1482 1.3759
C22A C -1.8611(8) -3.2847(7) 1.4196(6)
H18A H -1.9135 -3.2769 1.4731
C23A C -1.7998(8) -3.3814(6) 1.3234(5)
H19A H -1.8086 -3.4403 1.3095
C24A C -1.7093(7) -3.3056(6) 1.2633(5)
H20A H -1.6584 -3.3146 1.2098
C25A C -1.4477(6) -3.0635(5) 1.1038(4)
C26A C -1.3472(6) -3.0415(5) 1.0193(4)
C27A C -1.3083(7) -3.1157(6) 0.9778(5)
H21A H -1.3459 -3.1823 1.0046
C28A C -1.2160(7) -3.0924(6) 0.8984(5)
H22A H -1.1905 -3.1414 0.8690
C29A C -1.1599(7) -2.9931(6) 0.8617(5)
H23A H -1.0954 -2.9749 0.8074
C30A C -1.1999(7) -2.9237(6) 0.9055(5)
H24A H -1.1610 -2.8578 0.8804
N1A N -1.1239(5) -2.0957(4) 0.1314(3)
N2A N -1.4809(5) -2.3301(4) 0.3797(3)
N3A N -1.4607(5) -2.2035(4) 0.4340(3)
N4A N -1.5511(5) -2.2735(4) 0.4950(3)
N5A N -1.5529(5) -2.3107(4) 0.6486(3)
N6A N -1.4421(6) -2.2781(5) 0.6383(4)
N7A N -1.5066(6) -2.4213(5) 0.7669(4)
N8A N -1.7225(6) -2.4485(5) 0.5931(4)
N9A N -1.5174(5) -2.6707(4) 1.0130(3)
N10A N -1.5876(6) -2.7846(4) 1.1570(4)
N11A N -1.4825(5) -2.8159(4) 1.1117(3)
N12A N -1.4818(5) -3.0074(4) 1.1615(3)
N13A N -1.5771(5) -3.0546(4) 1.2345(4)
N14A N -1.5199(5) -3.1492(4) 1.1400(4)
N15A N -1.8732(6) -3.3702(5) 1.3998(5)
N15A_2 N 0.1268(6) -0.3702(5) -1.6002(5)
N16A N -1.2927(5) -2.9446(4) 0.9834(4)
Mo1 Mo -1.14171(5) -1.44612(4) 0.05401(3)
Mo2 Mo -1.14138(5) -1.57197(4) -0.11607(4)
Mo3 Mo -1.00754(5) -1.32984(4) -0.21019(4)
Mo4 Mo -0.86309(6) -1.26476(4) -0.09120(4)
O1 O -1.1429(4) -1.4346(3) -0.0570(3)
O2 O -1.2653(4) -1.3908(3) 0.1060(3)
O3 O -1.0115(4) -1.3791(3) 0.0422(3)
O4 O -1.1007(5) -1.6724(4) -0.1560(3)
O5 O -1.2621(4) -1.5210(4) -0.1502(3)
O6 O -1.0175(4) -1.4714(3) -0.2033(2)
O7 O -1.1306(5) -1.2747(4) -0.2394(3)
O8 O -0.8907(5) -1.2814(4) -0.3080(3)
O9 O -0.9930(4) -1.2541(3) -0.1383(3)
O10 O -0.7465(5) -1.2124(4) -0.1890(3)
O11 O -0.8987(6) -1.1665(4) -0.0454(3)
O12 O -1.2184(4) -1.6448(4) 0.0118(3)
O13 O -1.1384(4) -1.5804(3) 0.1239(3)
Mo1A Mo -0.85829(5) -1.55388(4) -0.05401(3)
Mo2A Mo -0.85862(5) -1.42803(4) 0.11607(4)
Mo3A Mo -0.99246(5) -1.67016(4) 0.21019(4)
Mo4A Mo -1.13691(6) -1.73524(4) 0.09120(4)
O1A O -0.8571(4) -1.5654(3) 0.0570(3)
O2A O -0.7347(4) -1.6092(3) -0.1060(3)
O3A O -0.9885(4) -1.6209(3) -0.0422(3)
O4A O -0.8993(5) -1.3276(4) 0.1560(3)
O5A O -0.7379(4) -1.4790(4) 0.1502(3)
O6A O -0.9825(4) -1.5286(3) 0.2033(2)
O7A O -0.8694(5) -1.7253(4) 0.2394(3)
O8A O -1.1093(5) -1.7186(4) 0.3080(3)
O9A O -1.0070(4) -1.7459(3) 0.1383(3)
O10A O -1.2535(5) -1.7876(4) 0.1890(3)
O11A O -1.1013(6) -1.8335(4) 0.0454(3)
O12A O -0.7816(4) -1.3552(4) -0.0118(3)
O13A O -0.8616(4) -1.4196(3) -0.1239(3)
O15 O -0.0792(17) -0.3924(15) 0.6123(11)
O16 O -0.2436(13) 0.9270(11) -0.3477(9)
O17 O 0.6443(18) 0.9647(15) -0.5085(12)
O18 O 0.146(2) -0.8111(18) 0.492(2)
O19 O 0.169(3) 0.943(2) -0.3592(18)
O14? O -0.1131(17) -0.3517(15) 0.6040(11)
O20? O 0.025(4) 0.990(3) -0.356(3)
loop_
_geom_bond_atom_site_label_1
_geom_bond_atom_site_label_2
_geom_bond_site_symmetry_1
_geom_bond_site_symmetry_2
Ag1 N1 1_555 1_555
Ag2 N7 1_555 1_555
Ag3 N15 1_555 1_555
Mo1 O1 1_555 1_555
Mo2 O1 1_555 1_555
Mo3 O6 1_555 1_555
Mo4 O3 1_555 1_555
C1 H1 1_555 1_555
C2 C1 1_555 1_555
H2 C2 1_555 1_555
C3 C2 1_555 1_555
C4 C3 1_555 1_555
H3 C4 1_555 1_555
C5 C4 1_555 1_555
H4 C5 1_555 1_555
C6 C3 1_555 1_555
C7 H5 1_555 1_555
H6 C7 1_555 1_555
C8 H7 1_555 1_555
C9 H8 1_555 1_555
C10 C11 1_555 1_555
C11 C12 1_555 1_555
C12 H9 1_555 1_555
C13 C12 1_555 1_555
H10 C13 1_555 1_555
C14 C13 1_555 1_555
H11 C14 1_555 1_555
C15 C14 1_555 1_555
H12 C15 1_555 1_555
C16 H13 1_555 1_555
C17 H14 1_555 1_555
C18 H15 1_555 1_555
H16 C18 1_555 1_555
C19 C20 1_555 1_555
C20 C21 1_555 1_555
C21 H17 1_555 1_555
C22 C21 1_555 1_555
H18 C22 1_555 1_555
C23 H19 1_555 1_555
C24 C20 1_555 1_555
H20 C24 1_555 1_555
C25 C26 1_555 1_555
C26 C27 1_555 1_555
C27 H21 1_555 1_555
C28 C27 1_555 1_555
H22 C28 1_555 1_555
C29 C28 1_555 1_555
H23 C29 1_555 1_555
C30 C29 1_555 1_555
H24 C30 1_555 1_555
N1 C1 1_555 1_555
N2 C6 1_555 1_555
N3 C6 1_555 1_555
N4 C7 1_555 1_555
N5 C7 1_555 1_555
N6 C8 1_555 1_555
N7 C8 1_555 1_555
N8 C11 1_555 1_555
N9 Ag2 1_555 1_555
N10 C16 1_555 1_555
N11 C17 1_555 1_555
N12 C18 1_555 1_555
N13 C19 1_555 1_555
N14 C19 1_555 1_555
N15 C22 1_555 1_555
N16 C26 1_555 1_555
O2 Mo1 1_555 1_555
O3 Mo1 1_555 1_555
O4 Mo2 1_555 1_555
O5 Mo2 1_555 1_555
O6 Mo2 1_555 1_555
O7 Mo3 1_555 1_555
O8 Mo3 1_555 1_555
O9 Mo3 1_555 1_555
O10 Mo4 1_555 1_555
O11 Mo4 1_555 1_555
O12 Mo2 1_555 1_555
O13 Mo1 1_555 1_555
Ag2A N7A 1_555 1_555
Ag3_2 N15A 1_555 1_555
Mo1A O1A 1_555 1_555
Mo2A O3 1_555 1_555
Mo3A O6A 1_555 1_555
Mo4A O12 1_555 1_555
C1A H1A 1_555 1_555
C2A C1A 1_555 1_555
H2A C2A 1_555 1_555
C3A C2A 1_555 1_555
C4A C3A 1_555 1_555
H3A C4A 1_555 1_555
C5A C4A 1_555 1_555
H4A C5A 1_555 1_555
C6A C3A 1_555 1_555
C7A H5A 1_555 1_555
H6A C7A 1_555 1_555
C8A H7A 1_555 1_555
C9A H8A 1_555 1_555
C10A C11A 1_555 1_555
C11A C12A 1_555 1_555
C12A H9A 1_555 1_555
C13A C12A 1_555 1_555
H10A C13A 1_555 1_555
C14A C13A 1_555 1_555
H11A C14A 1_555 1_555
C15A C14A 1_555 1_555
H12A C15A 1_555 1_555
C16A H13A 1_555 1_555
C17A H14A 1_555 1_555
C18A H15A 1_555 1_555
H16A C18A 1_555 1_555
C19A C20A 1_555 1_555
C20A C21A 1_555 1_555
C21A H17A 1_555 1_555
C22A C21A 1_555 1_555
H18A C22A 1_555 1_555
C23A H19A 1_555 1_555
C24A C20A 1_555 1_555
H20A C24A 1_555 1_555
C25A C26A 1_555 1_555
C26A C27A 1_555 1_555
C27A H21A 1_555 1_555
C28A C27A 1_555 1_555
H22A C28A 1_555 1_555
C29A C28A 1_555 1_555
H23A C29A 1_555 1_555
C30A C29A 1_555 1_555
H24A C30A 1_555 1_555
N1A Ag1 1_555 1_555
N2A C6A 1_555 1_555
N3A C6A 1_555 1_555
N4A C7A 1_555 1_555
N5A C7A 1_555 1_555
N6A C8A 1_555 1_555
N7A C8A 1_555 1_555
N8A C11A 1_555 1_555
N9A Ag2A 1_555 1_555
N10A C16A 1_555 1_555
N11A C17A 1_555 1_555
N12A C18A 1_555 1_555
N13A C19A 1_555 1_555
N14A C19A 1_555 1_555
N15A C22A 1_555 1_555
N15A_2 Ag3 1_555 1_555
N16A C26A 1_555 1_555
O1A Mo2A 1_555 1_555
O2A Mo1A 1_555 1_555
O3A Mo2 1_555 1_555
O4A Mo2A 1_555 1_555
O5A Mo2A 1_555 1_555
O6A Mo2A 1_555 1_555
O7A Mo3A 1_555 1_555
O8A Mo3A 1_555 1_555
O9A Mo3A 1_555 1_555
O10A Mo4A 1_555 1_555
O11A Mo4A 1_555 1_555
O12A Mo4 1_555 1_555
O13A Mo4 1_555 1_555
Mo4 O9 1_555 1_555
C5 N1 1_555 1_555
C9 N5 1_555 1_555
C9 N7 1_555 1_555
C10 N2 1_555 1_555
C10 N4 1_555 1_555
C15 N8 1_555 1_555
C16 N9 1_555 1_555
C17 N9 1_555 1_555
C18 N11 1_555 1_555
C23 C24 1_555 1_555
C23 N15 1_555 1_555
C25 N12 1_555 1_555
C25 N14 1_555 1_555
C30 N16 1_555 1_555
N3 N4 1_555 1_555
N5 N6 1_555 1_555
N10 N11 1_555 1_555
N12 N13 1_555 1_555
O13 Mo4A 1_555 1_555
Mo1A O3A 1_555 1_555
Mo1A O13A 1_555 1_555
Mo2A O12A 1_555 1_555
Mo4A O3A 1_555 1_555
Mo4A O9A 1_555 1_555
C1A N1A 1_555 1_555
C5A N1A 1_555 1_555
C9A N5A 1_555 1_555
C9A N7A 1_555 1_555
C10A N2A 1_555 1_555
C10A N4A 1_555 1_555
C15A N8A 1_555 1_555
C16A N9A 1_555 1_555
C17A N9A 1_555 1_555
C18A N11A 1_555 1_555
C23A C24A 1_555 1_555
C23A N15A 1_555 1_555
C25A N12A 1_555 1_555
C25A N14A 1_555 1_555
C30A N16A 1_555 1_555
N3A N4A 1_555 1_555
N5A N6A 1_555 1_555
N10A N11A 1_555 1_555
N12A N13A 1_555 1_555

#END
