
#######################################################################
#
#                 Cambridge Crystallographic Data Centre
#                                CCDC 
#
#######################################################################
#
# If this CIF has been generated from an entry in the Cambridge 
# Structural Database, then it will include bibliographic, chemical, 
# crystal, experimental, refinement or atomic coordinate data resulting 
# from the CCDC's data processing and validation procedures.
#
#######################################################################

data_ECOYUS
_symmetry_cell_setting           monoclinic
_symmetry_space_group_name_H-M   'C 2/m'
_symmetry_Int_Tables_number      12
_space_group_name_Hall           '-C 2y'
loop_
_symmetry_equiv_pos_site_id
_symmetry_equiv_pos_as_xyz
1 x,y,z
2 -x,y,-z
3 1/2+x,1/2+y,z
4 1/2-x,1/2+y,-z
5 -x,-y,-z
6 x,-y,z
7 1/2-x,1/2-y,-z
8 1/2+x,1/2-y,z
_cell_length_a                   19.278(5)
_cell_length_b                   25.321(5)
_cell_length_c                   11.665(5)
_cell_angle_alpha                90
_cell_angle_beta                 104.744(5)
_cell_angle_gamma                90
_cell_volume                     5506.64
loop_
_atom_site_label
_atom_site_type_symbol
_atom_site_fract_x
_atom_site_fract_y
_atom_site_fract_z
Ag1 Ag 0.004350(19) 0.255690(14) 0.73189(3)
Ag2 Ag 0.28735(3) 0.5000 0.11339(6)
Mo4 Mo 0.0000 0.13002(2) 0.5000
Mo5 Mo -0.14676(2) 0.066480(18) 0.52432(3)
Mo6 Mo 0.03419(4) 0.0000 0.66153(5)
C1 C 0.1281(3) 0.33204(18) 0.7118(4)
H1 H 0.1215 0.3411 0.7855
C2 C 0.1784(3) 0.3585(2) 0.6700(5)
H2 H 0.2044 0.3859 0.7139
C3 C 0.1905(3) 0.3445(2) 0.5626(4)
H3 H 0.2252 0.3618 0.5340
C4 C 0.1504(2) 0.30438(17) 0.4982(4)
C5 C 0.1001(2) 0.27959(17) 0.5456(3)
H4 H 0.0735 0.2521 0.5029
C6 C 0.1640(2) 0.28675(17) 0.3867(3)
C7 C 0.2708(2) 0.27991(17) 0.1890(4)
H5 H 0.3177 0.2762 0.2439
H6 H 0.2660 0.2527 0.1290
C8 C 0.2909(2) 0.37723(19) 0.1802(4)
H7 H 0.3197 0.3820 0.2566
C9 C 0.2291(3) 0.3892(2) 0.0077(4)
H8 H 0.2063 0.4065 -0.0619
C10 C 0.1512(2) 0.24983(17) 0.2191(4)
C11 C 0.1233(2) 0.21830(18) 0.1117(3)
C12 C 0.1253(3) 0.1638(2) 0.1167(4)
H9 H 0.1455 0.1467 0.1879
C13 C 0.0973(3) 0.1352(2) 0.0159(4)
H10 H 0.0982 0.0984 0.0175
C14 C 0.0678(3) 0.16171(19) -0.0870(4)
H11 H 0.0483 0.1420 -0.1548
C15 C 0.0931(3) 0.24139(18) 0.0035(3)
H12 H 0.0918 0.2781 -0.0012
N1 N 0.08764(19) 0.29286(14) 0.6489(3)
N2 N 0.1167(2) 0.25824(14) 0.3024(3)
N3 N 0.2250(2) 0.29706(15) 0.3596(3)
N4 N 0.2158(2) 0.27283(15) 0.2523(3)
N5 N 0.26530(19) 0.33105(15) 0.1336(3)
N6 N 0.2240(2) 0.33833(15) 0.0206(3)
N7 N 0.2698(2) 0.41487(15) 0.1029(3)
N8 N 0.0654(2) 0.21351(15) -0.0955(3)
O10 O -0.0067(2) 0.17084(14) 0.6119(4)
O11 O -0.09733(17) 0.10874(12) 0.4360(3)
O12 O -0.22973(18) 0.06606(15) 0.4301(3)
O13 O -0.1543(2) 0.10740(19) 0.6348(3)
O14 O -0.1441(3) 0.0000 0.6057(4)
O15 O -0.02048(16) 0.05771(12) 0.6126(2)
O16 O -0.1084(2) 0.0000 0.4053(4)
O17 O 0.0663(3) 0.0000 0.8090(4)
Ag1E Ag 0.004350(19) 0.744310(14) 0.73189(3)
Ag1A Ag -0.004350(19) 0.255690(14) 0.26811(3)
Ag1_2 Ag 0.004350(19) 0.255690(14) -0.26811(3)
Ag1D Ag -0.004350(19) 0.744310(14) 0.26811(3)
Ag1E_2 Ag 0.004350(19) 0.744310(14) -0.26811(3)
Mo4D Mo 0.0000 0.86998(2) 0.5000
Mo5A Mo 0.14676(2) 0.066480(18) 0.47568(3)
Mo5E Mo -0.14676(2) -0.066480(18) 0.52432(3)
Mo6A Mo -0.03419(4) 0.0000 0.33847(5)
C1E C 0.1281(3) 0.66796(18) 0.7118(4)
H1E H 0.1215 0.6589 0.7855
C2E C 0.1784(3) 0.6415(2) 0.6700(5)
H2E H 0.2044 0.6141 0.7139
C3E C 0.1905(3) 0.6555(2) 0.5626(4)
H3E H 0.2252 0.6382 0.5340
C4E C 0.1504(2) 0.69562(17) 0.4982(4)
C5E C 0.1001(2) 0.72041(17) 0.5456(3)
H4E H 0.0735 0.7479 0.5029
C6E C 0.1640(2) 0.71325(17) 0.3867(3)
C7E C 0.2708(2) 0.72009(17) 0.1890(4)
H5E H 0.3177 0.7238 0.2439
H6E H 0.2660 0.7473 0.1290
C8E C 0.2909(2) 0.62277(19) 0.1802(4)
H7E H 0.3197 0.6180 0.2566
C9E C 0.2291(3) 0.6108(2) 0.0077(4)
H8E H 0.2063 0.5935 -0.0619
C10E C 0.1512(2) 0.75017(17) 0.2191(4)
C11E C 0.1233(2) 0.78170(18) 0.1117(3)
C12E C 0.1253(3) 0.8362(2) 0.1167(4)
H9E H 0.1455 0.8533 0.1879
C13E C 0.0973(3) 0.8648(2) 0.0159(4)
H10E H 0.0982 0.9016 0.0175
C14E C 0.0678(3) 0.83829(19) -0.0870(4)
H11E H 0.0483 0.8580 -0.1548
C15E C 0.0931(3) 0.75861(18) 0.0035(3)
H12E H 0.0918 0.7219 -0.0012
N1E N 0.08764(19) 0.70714(14) 0.6489(3)
N2E N 0.1167(2) 0.74176(14) 0.3024(3)
N2A N -0.1167(2) 0.25824(14) 0.6976(3)
N2D N -0.1167(2) 0.74176(14) 0.6976(3)
N3E N 0.2250(2) 0.70294(15) 0.3596(3)
N4E N 0.2158(2) 0.72717(15) 0.2523(3)
N5E N 0.26530(19) 0.66895(15) 0.1336(3)
N6E N 0.2240(2) 0.66167(15) 0.0206(3)
N7E N 0.2698(2) 0.58513(15) 0.1029(3)
N8E N 0.0654(2) 0.78649(15) -0.0955(3)
N8_2 N 0.0654(2) 0.21351(15) 0.9045(3)
N8E_2 N 0.0654(2) 0.78649(15) 0.9045(3)
O10E O -0.0067(2) 0.82916(14) 0.6119(4)
O10A O 0.0067(2) 0.17084(14) 0.3881(4)
O11A O 0.09733(17) 0.10874(12) 0.5640(3)
O12A O 0.22973(18) 0.06606(15) 0.5699(3)
O13A O 0.1543(2) 0.10740(19) 0.3652(3)
O14A O 0.1441(3) 0.0000 0.3943(4)
O15A O 0.02048(16) 0.05771(12) 0.3874(2)
O15E O -0.02048(16) -0.05771(12) 0.6126(2)
O16A O 0.1084(2) 0.0000 0.5947(4)
Mo1 Mo -0.00908(2) 0.408458(14) 0.85018(3)
Mo2 Mo 0.08100(3) 0.5000 0.75348(4)
Mo3 Mo 0.09444(3) 0.5000 1.05397(4)
O1 O -0.07422(18) 0.41290(12) 0.7214(2)
O2 O 0.00561(18) 0.34250(12) 0.8731(2)
O3 O -0.06840(15) 0.42541(10) 0.9611(2)
O4 O -0.0013(2) 0.5000 0.8814(3)
O5 O 0.0124(3) 0.5000 0.6292(3)
O6 O 0.1571(3) 0.5000 0.7037(4)
O7 O 0.07336(17) 0.57170(11) 0.7994(2)
O8 O 0.1443(2) 0.5000 0.9468(3)
O9 O 0.1561(2) 0.5000 1.1850(3)
Mo1E Mo -0.00908(2) 0.591542(14) 0.85018(3)
Mo1A Mo 0.00908(2) 0.408458(14) 1.14982(3)
Mo3A Mo -0.09444(3) 0.5000 0.94603(4)
O1E O -0.07422(18) 0.58710(12) 0.7214(2)
O2E O 0.00561(18) 0.65750(12) 0.8731(2)
O3A O 0.06840(15) 0.42541(10) 1.0389(2)
O3D O 0.06840(15) 0.57459(10) 1.0389(2)
O3E O -0.06840(15) 0.57459(10) 0.9611(2)
O4A O 0.0013(2) 0.5000 1.1186(3)
O7E O 0.07336(17) 0.42830(11) 0.7994(2)
O18 O -0.1415(3) 0.5000 0.5648(5)
O19 O -0.3057(7) 0.5000 1.1451(11)
O20 O -0.4520(9) 0.5000 1.0562(15)
O21 O 0.0000 0.6065(17) 0.5000
Mo7? Mo -0.0081(2) 0.0000 0.7051(3)
loop_
_geom_bond_atom_site_label_1
_geom_bond_atom_site_label_2
_geom_bond_site_symmetry_1
_geom_bond_site_symmetry_2
Ag1 N1 1_555 1_555
Ag2 N7 1_555 1_555
Mo1 O1 1_555 1_555
Mo2 O4 1_555 1_555
Mo3 O4 1_555 1_555
Mo4 O10 1_555 1_555
Mo5 O11 1_555 1_555
Mo6 O15 1_555 1_555
C1 H1 1_555 1_555
C2 C1 1_555 1_555
H2 C2 1_555 1_555
C3 C2 1_555 1_555
H3 C3 1_555 1_555
C4 C3 1_555 1_555
C5 C4 1_555 1_555
H4 C5 1_555 1_555
C6 C4 1_555 1_555
C7 H5 1_555 1_555
H6 C7 1_555 1_555
C8 H7 1_555 1_555
C9 H8 1_555 1_555
C10 C11 1_555 1_555
C11 C12 1_555 1_555
C12 H9 1_555 1_555
C13 C12 1_555 1_555
H10 C13 1_555 1_555
C14 C13 1_555 1_555
H11 C14 1_555 1_555
C15 C11 1_555 1_555
H12 C15 1_555 1_555
N1 C1 1_555 1_555
N2 C6 1_555 1_555
N3 C6 1_555 1_555
N4 C7 1_555 1_555
N5 C7 1_555 1_555
N6 C9 1_555 1_555
N7 C8 1_555 1_555
N8 C14 1_555 1_555
O2 Mo1 1_555 1_555
O3 Mo1 1_555 1_555
O4 Mo1 1_555 1_555
O5 Mo2 1_555 1_555
O6 Mo2 1_555 1_555
O7 Mo2 1_555 1_555
O8 Mo2 1_555 1_555
O9 Mo3 1_555 1_555
O10 Ag1 1_555 1_555
O11 Mo4 1_555 1_555
O12 Mo5 1_555 1_555
O13 Mo5 1_555 1_555
O14 Mo5 1_555 1_555
O15 Mo4 1_555 1_555
O16 Mo5 1_555 1_555
O17 Mo6 1_555 1_555
Ag1E N1E 1_555 1_555
Ag1A N2 1_555 1_555
Ag1_2 N8 1_555 1_555
Ag1D N2E 1_555 1_555
Ag1E_2 N8E 1_555 1_555
Mo1E O4 1_555 1_555
Mo1A O3 1_555 1_555
Mo3A O3 1_555 1_555
Mo4D O10E 1_555 1_555
Mo5A O11A 1_555 1_555
Mo5E O14 1_555 1_555
Mo6A O16 1_555 1_555
C1E H1E 1_555 1_555
C2E C1E 1_555 1_555
H2E C2E 1_555 1_555
C3E C2E 1_555 1_555
H3E C3E 1_555 1_555
C4E C3E 1_555 1_555
C5E C4E 1_555 1_555
H4E C5E 1_555 1_555
C6E C4E 1_555 1_555
C7E H5E 1_555 1_555
H6E C7E 1_555 1_555
C8E H7E 1_555 1_555
C9E H8E 1_555 1_555
C10E C11E 1_555 1_555
C11E C12E 1_555 1_555
C12E H9E 1_555 1_555
C13E C12E 1_555 1_555
H10E C13E 1_555 1_555
C14E C13E 1_555 1_555
H11E C14E 1_555 1_555
C15E C11E 1_555 1_555
H12E C15E 1_555 1_555
N1E C1E 1_555 1_555
N2E C6E 1_555 1_555
N2A Ag1 1_555 1_555
N2D Ag1E 1_555 1_555
N3E C6E 1_555 1_555
N4E C7E 1_555 1_555
N5E C7E 1_555 1_555
N6E C9E 1_555 1_555
N7E Ag2 1_555 1_555
N8E C14E 1_555 1_555
N8_2 Ag1 1_555 1_555
N8E_2 Ag1E 1_555 1_555
O1E Mo1E 1_555 1_555
O2E Mo1E 1_555 1_555
O3A Mo1 1_555 1_555
O3D Mo3 1_555 1_555
O3E Mo1E 1_555 1_555
O4A Mo3 1_555 1_555
O7E Mo1 1_555 1_555
O10E Ag1E 1_555 1_555
O10A Mo4 1_555 1_555
O11A Mo4 1_555 1_555
O12A Mo5A 1_555 1_555
O13A Mo5A 1_555 1_555
O14A Mo5A 1_555 1_555
O15A Mo4 1_555 1_555
O15E Mo6 1_555 1_555
O16A Mo6 1_555 1_555
Mo2 O7E 1_555 1_555
Mo3 O8 1_555 1_555
Mo3 O3A 1_555 1_555
Mo5 O15 1_555 1_555
C5 N1 1_555 1_555
C8 N5 1_555 1_555
C9 N7 1_555 1_555
C10 N2 1_555 1_555
C10 N4 1_555 1_555
C15 N8 1_555 1_555
N3 N4 1_555 1_555
N5 N6 1_555 1_555
O4 Mo3A 1_555 1_555
O7 Mo1E 1_555 1_555
O16 Mo5E 1_555 1_555
Ag1A O10A 1_555 1_555
Mo1E O3D 1_555 1_555
Mo1A O3A 1_555 1_555
Mo1A O4A 1_555 1_555
Mo3A O3E 1_555 1_555
Mo3A O4A 1_555 1_555
Mo5A O15A 1_555 1_555
Mo5A O16A 1_555 1_555
Mo5E O15E 1_555 1_555
Mo6A O15A 1_555 1_555
C5E N1E 1_555 1_555
C8E N5E 1_555 1_555
C8E N7E 1_555 1_555
C9E N7E 1_555 1_555
C10E N2E 1_555 1_555
C10E N4E 1_555 1_555
C15E N8E 1_555 1_555
N3E N4E 1_555 1_555
N5E N6E 1_555 1_555

#END
