
#######################################################################
#
#                 Cambridge Crystallographic Data Centre
#                                CCDC 
#
#######################################################################
#
# If this CIF has been generated from an entry in the Cambridge 
# Structural Database, then it will include bibliographic, chemical, 
# crystal, experimental, refinement or atomic coordinate data resulting 
# from the CCDC's data processing and validation procedures.
#
#######################################################################

data_ECOZIH
_symmetry_cell_setting           triclinic
_symmetry_space_group_name_H-M   'P -1'
_symmetry_Int_Tables_number      2
_space_group_name_Hall           '-P 1'
loop_
_symmetry_equiv_pos_site_id
_symmetry_equiv_pos_as_xyz
1 x,y,z
2 -x,-y,-z
_cell_length_a                   10.385(5)
_cell_length_b                   10.488(5)
_cell_length_c                   12.150(5)
_cell_angle_alpha                98.289(5)
_cell_angle_beta                 94.162(5)
_cell_angle_gamma                107.191(5)
_cell_volume                     1241.7
loop_
_atom_site_label
_atom_site_type_symbol
_atom_site_fract_x
_atom_site_fract_y
_atom_site_fract_z
Ag1 Ag -0.64863(4) -0.44125(4) 0.47735(3)
Mo1 Mo -0.14653(4) -0.43668(4) 0.10977(3)
Mo2 Mo -0.68259(4) -0.41119(4) 0.13435(3)
Mo3 Mo -0.42614(4) -0.52966(4) 0.22357(3)
Mo4 Mo -0.40915(4) -0.32405(4) 0.01675(3)
C1 C -0.4430(5) -0.1733(5) 0.4308(4)
H1 H -0.4619 -0.2154 0.3561
C2 C -0.4455(5) -0.1429(5) 0.6046(4)
H2 H -0.4623 -0.1539 0.6773
C3 C -0.2736(4) 0.0903(5) 0.6463(4)
H3 H -0.2745 0.1683 0.6123
H4 H -0.3048 0.1018 0.7193
C4 C -0.0244(4) 0.1361(5) 0.6104(3)
C5 C -0.0088(4) 0.2277(5) 0.5274(3)
C6 C -0.1121(4) 0.2340(5) 0.4503(4)
H5 H -0.2005 0.1776 0.4478
C7 C -0.0808(5) 0.3255(5) 0.3778(4)
H6 H -0.1480 0.3316 0.3258
C8 C 0.0498(5) 0.4069(5) 0.3831(4)
H7 H 0.0693 0.4686 0.3342
C9 C 0.1217(4) 0.3139(5) 0.5256(3)
H8 H 0.1915 0.3096 0.5759
C10 C 0.0220(5) 0.0248(5) 0.7304(4)
C11 C 0.0995(5) -0.0313(5) 0.8035(4)
C12 C 0.2354(5) -0.0148(5) 0.7939(4)
H9 H 0.2772 0.0313 0.7397
C13 C 0.3074(6) -0.0661(5) 0.8637(4)
H10 H 0.3985 -0.0554 0.8572
C14 C 0.1193(7) -0.1498(6) 0.9538(5)
H11 H 0.0814 -0.1955 1.0096
C15 C 0.0406(6) -0.1015(5) 0.8841(4)
H12 H -0.0510 -0.1161 0.8914
N1 N -0.4991(4) -0.2352(4) 0.5142(3)
N2 N -0.3602(4) -0.0502(4) 0.4632(3)
N3 N -0.3645(3) -0.0324(4) 0.5763(3)
N4 N -0.1371(4) 0.0826(4) 0.6593(3)
N5 N -0.1080(4) 0.0102(4) 0.7365(3)
N6 N 0.0767(4) 0.1007(4) 0.6532(3)
N7 N 0.1515(4) 0.4023(4) 0.4556(3)
N8 N 0.2481(6) -0.1310(5) 0.9410(4)
H13 H 0.2955 -0.1623 0.9847
O1 O 0.0064(3) -0.3182(3) 0.1532(3)
O2 O -0.2481(3) -0.4138(3) 0.2336(2)
O3 O -0.1238(3) -0.5842(3) 0.1319(2)
O4 O -0.1606(3) -0.4656(3) -0.0521(2)
O5 O -0.6927(3) -0.2580(3) 0.1095(2)
O6 O -0.7139(3) -0.4105(3) 0.2700(2)
O7 O -0.4785(3) -0.3482(3) 0.1597(2)
O8 O -0.4675(3) -0.4791(3) 0.3535(2)
O9 O -0.4007(3) -0.6811(3) 0.2313(2)
O10 O -0.6093(3) -0.5984(3) 0.1360(2)
O11 O -0.3905(3) -0.5365(3) 0.0382(2)
O12 O -0.4458(3) -0.1831(3) -0.0066(2)
O13 O -0.2372(3) -0.2716(3) 0.0669(2)
Ag1_2 Ag 0.35137(4) 0.55875(4) 0.47735(3)
Mo2A Mo -0.31741(4) -0.58881(4) -0.13435(3)
Mo4A Mo -0.59085(4) -0.67595(4) -0.01675(3)
N7_2 N -0.8485(4) -0.5977(4) 0.4556(3)
O4A O -0.8394(3) -0.5344(3) 0.0521(2)
O10A O -0.3907(3) -0.4016(3) -0.1360(2)
O11A O -0.6095(3) -0.4635(3) -0.0382(2)
loop_
_geom_bond_atom_site_label_1
_geom_bond_atom_site_label_2
_geom_bond_site_symmetry_1
_geom_bond_site_symmetry_2
Ag1 N1 1_555 1_555
Mo1 O1 1_555 1_555
Mo2 O5 1_555 1_555
Mo3 O2 1_555 1_555
Mo4 O7 1_555 1_555
C1 H1 1_555 1_555
C2 H2 1_555 1_555
C3 H3 1_555 1_555
H4 C3 1_555 1_555
C4 C5 1_555 1_555
C5 C6 1_555 1_555
C6 H5 1_555 1_555
C7 C6 1_555 1_555
H6 C7 1_555 1_555
C8 C7 1_555 1_555
H7 C8 1_555 1_555
C9 C5 1_555 1_555
H8 C9 1_555 1_555
C10 C11 1_555 1_555
C11 C12 1_555 1_555
C12 H9 1_555 1_555
C13 C12 1_555 1_555
H10 C13 1_555 1_555
C14 H11 1_555 1_555
C15 C11 1_555 1_555
H12 C15 1_555 1_555
N1 C1 1_555 1_555
N2 C1 1_555 1_555
N3 C2 1_555 1_555
N4 C3 1_555 1_555
N5 C10 1_555 1_555
N6 C4 1_555 1_555
N7 C8 1_555 1_555
N8 C13 1_555 1_555
H13 N8 1_555 1_555
O2 Mo1 1_555 1_555
O3 Mo1 1_555 1_555
O4 Mo1 1_555 1_555
O6 Mo2 1_555 1_555
O7 Mo2 1_555 1_555
O8 Ag1 1_555 1_555
O9 Mo3 1_555 1_555
O10 Mo2 1_555 1_555
O11 Mo1 1_555 1_555
O12 Mo4 1_555 1_555
O13 Mo1 1_555 1_555
Ag1_2 N7 1_555 1_555
Mo2A O4 1_555 1_555
Mo4A O10 1_555 1_555
N7_2 Ag1 1_555 1_555
O4A Mo2 1_555 1_555
O10A Mo4 1_555 1_555
O11A Mo2 1_555 1_555
Mo3 O7 1_555 1_555
Mo3 O8 1_555 1_555
Mo3 O10 1_555 1_555
Mo3 O11 1_555 1_555
Mo4 O11 1_555 1_555
Mo4 O13 1_555 1_555
Mo4 O11A 1_555 1_555
C2 N1 1_555 1_555
C3 N3 1_555 1_555
C4 N4 1_555 1_555
C9 N7 1_555 1_555
C10 N6 1_555 1_555
C14 C15 1_555 1_555
C14 N8 1_555 1_555
N2 N3 1_555 1_555
N4 N5 1_555 1_555
O11 Mo2A 1_555 1_555
O11 Mo4A 1_555 1_555
Mo2A O10A 1_555 1_555
Mo4A O11A 1_555 1_555

#END
