
#######################################################################
#
#                 Cambridge Crystallographic Data Centre
#                                CCDC 
#
#######################################################################
#
# If this CIF has been generated from an entry in the Cambridge 
# Structural Database, then it will include bibliographic, chemical, 
# crystal, experimental, refinement or atomic coordinate data resulting 
# from the CCDC's data processing and validation procedures.
#
#######################################################################

data_ECOZED
_symmetry_cell_setting           triclinic
_symmetry_space_group_name_H-M   'P -1'
_symmetry_Int_Tables_number      2
_space_group_name_Hall           '-P 1'
loop_
_symmetry_equiv_pos_site_id
_symmetry_equiv_pos_as_xyz
1 x,y,z
2 -x,-y,-z
_cell_length_a                   13.029(5)
_cell_length_b                   13.059(5)
_cell_length_c                   13.811(5)
_cell_angle_alpha                71.638(5)
_cell_angle_beta                 75.025(5)
_cell_angle_gamma                63.005(5)
_cell_volume                     1968.65
loop_
_atom_site_label
_atom_site_type_symbol
_atom_site_fract_x
_atom_site_fract_y
_atom_site_fract_z
Ag1 Ag 0.30921(5) -0.42742(4) -0.10673(4)
Mo1 Mo 0.48287(4) -0.78374(4) -0.14294(4)
Mo2 Mo 0.39082(5) -0.91414(5) -0.24810(4)
Mo3 Mo 0.43480(4) -0.83013(4) 0.12147(4)
Mo4 Mo 0.34878(4) -0.96600(4) 0.02147(4)
C1 C 0.2216(5) -0.4741(5) 0.1229(4)
H1 H 0.1671 -0.4849 0.0995
C2 C 0.2170(5) -0.4938(5) 0.2272(4)
H2 H 0.1610 -0.5172 0.2727
C3 C 0.2967(5) -0.4784(4) 0.2633(4)
C4 C 0.3787(5) -0.4452(4) 0.1914(4)
H3 H 0.4351 -0.4353 0.2128
C5 C 0.3764(5) -0.4270(5) 0.0883(4)
H4 H 0.4315 -0.4041 0.0408
C6 C 0.2990(5) -0.4869(5) 0.3709(4)
C7 C 0.2698(5) -0.6765(5) 0.4670(5)
H5 H 0.3004 -0.7024 0.4029
H6 H 0.3145 -0.7382 0.5197
C8 C 0.0826(6) -0.6612(6) 0.5859(6)
H7 H 0.1053 -0.6666 0.6465
C9 C -0.0110(6) -0.6440(6) 0.4772(7)
H8 H -0.0723 -0.6354 0.4483
C10 C 0.3231(5) -0.4530(5) 0.5011(4)
C11 C 0.3490(5) -0.3964(5) 0.5628(4)
C12 C 0.3979(5) -0.3152(5) 0.5159(4)
H9 H 0.4162 -0.2963 0.4447
C13 C 0.4186(5) -0.2636(5) 0.5762(5)
H10 H 0.4518 -0.2092 0.5465
C14 C 0.3900(5) -0.2926(5) 0.6815(5)
H11 H 0.4035 -0.2560 0.7218
C15 C 0.3240(5) -0.4220(5) 0.6692(4)
H12 H 0.2920 -0.4772 0.7010
N1 N 0.2983(4) -0.4409(4) 0.0537(3)
N2 N 0.3217(4) -0.4124(4) 0.3981(3)
N3 N 0.2858(4) -0.5698(4) 0.4549(4)
N4 N 0.1501(4) -0.6616(4) 0.4947(4)
N5 N 0.0888(5) -0.6489(5) 0.4223(4)
N6 N -0.0192(5) -0.6522(5) 0.5788(5)
N7 N 0.3009(4) -0.5488(4) 0.5404(3)
N8 N 0.3438(4) -0.3711(4) 0.7277(4)
O1 O 0.4232(3) -0.6418(3) -0.1291(3)
O2 O 0.3559(3) -0.8171(3) 0.0080(3)
O3 O 0.5733(3) -0.8666(3) -0.0245(3)
O4 O 0.6004(3) -0.7940(3) -0.2349(3)
O5 O 0.3715(3) -0.7749(3) -0.2134(3)
O6 O 0.2723(4) -0.8702(4) -0.3048(4)
O7 O 0.5006(4) -0.9164(4) -0.3476(3)
O8 O 0.2826(3) -0.9228(3) -0.0878(3)
O9 O 0.4364(3) -1.0797(3) -0.1960(3)
O10 O 0.3197(4) -0.8234(4) 0.2153(3)
O11 O 0.4373(4) -0.6953(3) 0.0931(4)
O12 O 0.5128(3) -0.9771(3) -0.1071(3)
O13 O 0.2401(3) -0.9642(3) 0.1199(3)
Ag1_2 Ag 0.30921(5) -0.42742(4) 0.89327(4)
Mo3A Mo 0.56520(4) -1.16987(4) -0.12147(4)
Mo4A Mo 0.65122(4) -1.03400(4) -0.02147(4)
N8_2 N 0.3438(4) -0.3711(4) -0.2723(4)
O3A O 0.4267(3) -1.1334(3) 0.0245(3)
O9A O 0.5636(3) -0.9203(3) 0.1960(3)
O12A O 0.4872(3) -1.0229(3) 0.1071(3)
Ag2 Ag 0.15727(7) -0.17745(7) 0.30607(5)
C16 C 0.0134(5) -0.1628(5) 0.1457(5)
H13 H -0.0448 -0.1641 0.2011
C17 C -0.0069(5) -0.1534(5) 0.0496(4)
H14 H -0.0773 -0.1491 0.0409
C18 C 0.0782(5) -0.1503(4) -0.0339(4)
C19 C 0.1788(5) -0.1511(5) -0.0173(4)
H15 H 0.2362 -0.1438 -0.0719
C20 C 0.1920(5) -0.1630(5) 0.0809(4)
H16 H 0.2612 -0.1663 0.0916
C21 C 0.0675(5) -0.1444(4) -0.1395(4)
C22 C -0.0400(5) -0.2771(5) -0.1069(5)
H17 H -0.1199 -0.2419 -0.1202
H18 H -0.0409 -0.2870 -0.0341
C23 C -0.0055(6) -0.4280(6) -0.1974(5)
H19 H -0.0675 -0.3832 -0.2353
C24 C 0.1389(6) -0.5613(6) -0.1367(6)
H20 H 0.2014 -0.6341 -0.1237
C25 C 0.0896(5) -0.1127(5) -0.3012(4)
C26 C 0.1300(5) -0.0741(5) -0.4103(4)
C27 C 0.1820(5) 0.0051(5) -0.4428(5)
H21 H 0.1893 0.0384 -0.3960
C28 C 0.2224(6) 0.0337(5) -0.5455(5)
H22 H 0.2563 0.0878 -0.5690
C29 C 0.2127(6) -0.0180(5) -0.6131(5)
H23 H 0.2424 0.0003 -0.6820
C30 C 0.1217(5) -0.1206(5) -0.4830(4)
H24 H 0.0861 -0.1733 -0.4613
N9 N 0.1125(4) -0.1702(4) 0.1626(4)
N10 N 0.1154(4) -0.0903(4) -0.2228(3)
N11 N 0.0159(4) -0.2000(4) -0.1659(4)
N12 N 0.0300(4) -0.1797(4) -0.2706(4)
N13 N 0.0193(4) -0.3908(4) -0.1325(4)
N14 N 0.1151(4) -0.4761(4) -0.0910(4)
N15 N 0.0672(6) -0.5356(5) -0.2025(5)
N16 N 0.1614(4) -0.0947(4) -0.5829(4)
Ag2_2 Ag 0.15727(7) -0.17745(7) -0.69393(5)
N16_2 N 0.1614(4) -0.0947(4) 0.4171(4)
O14 O 0.4607(18) -0.9242(17) -0.5410(18)
loop_
_geom_bond_atom_site_label_1
_geom_bond_atom_site_label_2
_geom_bond_site_symmetry_1
_geom_bond_site_symmetry_2
Ag1 N1 1_555 1_555
Ag2 N9 1_555 1_555
Mo1 O1 1_555 1_555
Mo2 O5 1_555 1_555
Mo3 O2 1_555 1_555
Mo4 O2 1_555 1_555
C1 H1 1_555 1_555
C2 C1 1_555 1_555
H2 C2 1_555 1_555
C3 C2 1_555 1_555
C4 C3 1_555 1_555
H3 C4 1_555 1_555
C5 C4 1_555 1_555
H4 C5 1_555 1_555
C6 C3 1_555 1_555
C7 H5 1_555 1_555
H6 C7 1_555 1_555
C8 H7 1_555 1_555
C9 H8 1_555 1_555
C10 C11 1_555 1_555
C11 C12 1_555 1_555
C12 H9 1_555 1_555
C13 C12 1_555 1_555
H10 C13 1_555 1_555
C14 C13 1_555 1_555
H11 C14 1_555 1_555
C15 C11 1_555 1_555
H12 C15 1_555 1_555
C16 H13 1_555 1_555
C17 C16 1_555 1_555
H14 C17 1_555 1_555
C18 C17 1_555 1_555
C19 C18 1_555 1_555
H15 C19 1_555 1_555
C20 C19 1_555 1_555
H16 C20 1_555 1_555
C21 C18 1_555 1_555
C22 H17 1_555 1_555
H18 C22 1_555 1_555
C23 H19 1_555 1_555
C24 H20 1_555 1_555
C25 C26 1_555 1_555
C26 C27 1_555 1_555
C27 H21 1_555 1_555
C28 C27 1_555 1_555
H22 C28 1_555 1_555
C29 C28 1_555 1_555
H23 C29 1_555 1_555
C30 C26 1_555 1_555
H24 C30 1_555 1_555
N1 C1 1_555 1_555
N2 C6 1_555 1_555
N3 C6 1_555 1_555
N4 C7 1_555 1_555
N5 C9 1_555 1_555
N6 C8 1_555 1_555
N7 C10 1_555 1_555
N8 C14 1_555 1_555
N9 C16 1_555 1_555
N10 C21 1_555 1_555
N11 C21 1_555 1_555
N12 C25 1_555 1_555
N13 C22 1_555 1_555
N14 C24 1_555 1_555
N15 C23 1_555 1_555
N16 C29 1_555 1_555
O1 Ag1 1_555 1_555
O2 Mo1 1_555 1_555
O3 Mo1 1_555 1_555
O4 Mo1 1_555 1_555
O5 Mo1 1_555 1_555
O6 Mo2 1_555 1_555
O7 Mo2 1_555 1_555
O8 Mo2 1_555 1_555
O9 Mo2 1_555 1_555
O10 Mo3 1_555 1_555
O11 Mo3 1_555 1_555
O12 Mo1 1_555 1_555
O13 Mo4 1_555 1_555
Ag1_2 N8 1_555 1_555
Ag2_2 N16 1_555 1_555
Mo3A O9 1_555 1_555
Mo4A O3 1_555 1_555
N8_2 Ag1 1_555 1_555
N16_2 Ag2 1_555 1_555
O3A Mo4 1_555 1_555
O9A Mo3 1_555 1_555
O12A Mo3 1_555 1_555
Mo3 O3 1_555 1_555
Mo4 O8 1_555 1_555
Mo4 O12 1_555 1_555
Mo4 O12A 1_555 1_555
C5 N1 1_555 1_555
C7 N3 1_555 1_555
C8 N4 1_555 1_555
C9 N6 1_555 1_555
C10 N2 1_555 1_555
C15 N8 1_555 1_555
C20 N9 1_555 1_555
C22 N11 1_555 1_555
C23 N13 1_555 1_555
C24 N15 1_555 1_555
C25 N10 1_555 1_555
C30 N16 1_555 1_555
N3 N7 1_555 1_555
N4 N5 1_555 1_555
N11 N12 1_555 1_555
N13 N14 1_555 1_555
O12 Mo3A 1_555 1_555
O12 Mo4A 1_555 1_555
Mo3A O3A 1_555 1_555
Mo4A O12A 1_555 1_555

#END
