
#######################################################################
#
#                 Cambridge Crystallographic Data Centre
#                                CCDC 
#
#######################################################################
#
# If this CIF has been generated from an entry in the Cambridge 
# Structural Database, then it will include bibliographic, chemical, 
# crystal, experimental, refinement or atomic coordinate data resulting 
# from the CCDC's data processing and validation procedures.
#
#######################################################################

data_ECOZAZ
_symmetry_cell_setting           monoclinic
_symmetry_space_group_name_H-M   'P 21/n'
_symmetry_Int_Tables_number      14
_space_group_name_Hall           '-P 2yn'
loop_
_symmetry_equiv_pos_site_id
_symmetry_equiv_pos_as_xyz
1 x,y,z
2 1/2-x,1/2+y,1/2-z
3 -x,-y,-z
4 1/2+x,1/2-y,1/2+z
_cell_length_a                   12.080(5)
_cell_length_b                   18.297(5)
_cell_length_c                   12.700(5)
_cell_angle_alpha                90
_cell_angle_beta                 98.770(5)
_cell_angle_gamma                90
_cell_volume                     2774.23
loop_
_atom_site_label
_atom_site_type_symbol
_atom_site_fract_x
_atom_site_fract_y
_atom_site_fract_z
Ag1 Ag 0.62924(4) -0.28663(3) 0.17037(4)
Ag2 Ag 0.59354(5) -0.29451(3) 0.65521(4)
Mo1 Mo 0.60727(4) -0.06570(3) 0.27618(4)
Mo2 Mo 0.77066(4) 0.00796(3) 0.47454(4)
Mo3 Mo 0.52680(4) 0.09097(3) 0.46056(4)
Mo4 Mo 0.34101(4) -0.07273(3) 0.29726(4)
C1 C 0.7601(5) -0.2573(3) 0.4062(4)
H1 H 0.7067 -0.2208 0.4072
C2 C 0.8407(5) -0.2674(3) 0.4964(4)
C3 C 0.9198(5) -0.3222(4) 0.4941(5)
H2 H 0.9739 -0.3306 0.5532
C4 C 0.9175(5) -0.3642(4) 0.4031(5)
H3 H 0.9696 -0.4012 0.3997
C5 C 0.8358(5) -0.3496(4) 0.3176(5)
H4 H 0.8353 -0.3769 0.2558
C6 C 0.8404(5) -0.2230(3) 0.5922(4)
C7 C 0.7091(5) -0.1423(4) 0.7885(5)
C8 C 0.7061(6) -0.2034(4) 0.9659(5)
H5 H 0.7476 -0.1687 1.0086
C9 C 0.6103(5) -0.2952(4) 0.9128(5)
H6 H 0.5711 -0.3390 0.9128
C10 C 0.8978(5) -0.1673(3) 0.7359(4)
C11 C 0.9685(5) -0.1328(4) 0.8282(5)
C12 C 1.0208(6) -0.0668(4) 0.8159(6)
H7 H 1.0089 -0.0419 0.7513
C13 C 1.0912(6) -0.0389(4) 0.9024(5)
H8 H 1.1283 0.0051 0.8968
C14 C 1.1059(6) -0.0768(4) 0.9967(5)
H9 H 1.1520 -0.0568 1.0549
C15 C 0.9888(5) -0.1680(4) 0.9245(5)
H10 H 0.9537 -0.2126 0.9313
N1 N 0.7569(4) -0.2982(3) 0.3185(4)
N2 N 0.9358(4) -0.2001(3) 0.6563(4)
N3 N 0.7474(4) -0.2046(3) 0.6279(4)
N4 N 0.7856(4) -0.1694(3) 0.7211(4)
N5 N 0.6833(4) -0.1997(3) 0.8605(4)
N6 N 0.6202(5) -0.2592(3) 0.8249(4)
N7 N 0.6617(5) -0.2631(3) 1.0029(4)
N8 N 1.0565(5) -0.1417(3) 1.0089(4)
O1 O 0.6034(4) -0.1535(3) 0.2324(4)
O2 O 0.6693(4) -0.0196(3) 0.1841(3)
O3 O 0.7330(4) -0.0767(2) 0.3910(3)
O4 O 0.6123(3) 0.0337(2) 0.3799(3)
O5 O 0.8561(4) -0.0297(3) 0.5784(4)
O6 O 0.8542(4) 0.0595(3) 0.4091(4)
O7 O 0.6957(3) 0.0816(2) 0.5559(3)
O8 O 0.5236(4) 0.1761(2) 0.4063(4)
O9 O 0.3999(3) 0.0482(3) 0.4133(3)
O10 O 0.4955(3) -0.1006(2) 0.3986(3)
O11 O 0.3130(4) -0.1569(3) 0.2455(4)
O12 O 0.2323(4) -0.0198(3) 0.2414(3)
O13 O 0.4536(3) -0.0349(2) 0.2232(3)
Ag1C Ag 1.12924(4) -0.21337(3) 0.67037(4)
Ag1_2 Ag 0.62924(4) -0.28663(3) 1.17037(4)
Ag2C Ag 1.09354(5) -0.20549(3) 1.15521(4)
Mo3B Mo 0.47320(4) -0.09097(3) 0.53944(4)
Mo4B Mo 0.65899(4) 0.07273(3) 0.70274(4)
N2C N 0.4358(4) -0.2999(3) 0.1563(4)
N7_2 N 0.6617(5) -0.2631(3) 0.0029(4)
N8C N 0.5565(5) -0.3583(3) 0.5089(4)
O7B O 0.3043(3) -0.0816(2) 0.4441(3)
O10B O 0.5045(3) 0.1006(2) 0.6014(3)
O14 O 0.6595(4) -0.0356(3) -0.0371(4)
O15 O 0.8724(9) -0.1560(8) 1.1954(13)
O16 O 0.963(2) -0.0837(13) 1.326(2)
loop_
_geom_bond_atom_site_label_1
_geom_bond_atom_site_label_2
_geom_bond_site_symmetry_1
_geom_bond_site_symmetry_2
Ag1 N1 1_555 1_555
Ag2 N3 1_555 1_555
Mo1 O1 1_555 1_555
Mo2 O3 1_555 1_555
Mo3 O4 1_555 1_555
Mo4 O10 1_555 1_555
C1 H1 1_555 1_555
C2 C1 1_555 1_555
C3 C2 1_555 1_555
H2 C3 1_555 1_555
C4 C3 1_555 1_555
H3 C4 1_555 1_555
C5 C4 1_555 1_555
H4 C5 1_555 1_555
C6 C2 1_555 1_555
C7 N4 1_555 1_555
C8 H5 1_555 1_555
C9 H6 1_555 1_555
C10 C11 1_555 1_555
C11 C12 1_555 1_555
C12 H7 1_555 1_555
C13 C12 1_555 1_555
H8 C13 1_555 1_555
C14 C13 1_555 1_555
H9 C14 1_555 1_555
C15 C11 1_555 1_555
H10 C15 1_555 1_555
N1 C1 1_555 1_555
N2 C6 1_555 1_555
N3 C6 1_555 1_555
N4 C10 1_555 1_555
N5 C7 1_555 1_555
N6 Ag2 1_555 1_555
N7 C8 1_555 1_555
N8 C14 1_555 1_555
O1 Ag1 1_555 1_555
O2 Mo1 1_555 1_555
O3 Mo1 1_555 1_555
O4 Mo1 1_555 1_555
O5 Mo2 1_555 1_555
O6 Mo2 1_555 1_555
O7 Mo2 1_555 1_555
O8 Mo3 1_555 1_555
O9 Mo3 1_555 1_555
O10 Mo1 1_555 1_555
O11 Mo4 1_555 1_555
O12 Mo4 1_555 1_555
O13 Mo1 1_555 1_555
Ag1C N2 1_555 1_555
Ag1_2 N7 1_555 1_555
Ag2C N8 1_555 1_555
Mo3B O10 1_555 1_555
Mo4B O7 1_555 1_555
N2C Ag1 1_555 1_555
N7_2 Ag1 1_555 1_555
N8C Ag2 1_555 1_555
O7B Mo4 1_555 1_555
O10B Mo3 1_555 1_555
Mo2 O4 1_555 1_555
Mo3 O7 1_555 1_555
Mo4 O13 1_555 1_555
C5 N1 1_555 1_555
C8 N5 1_555 1_555
C9 N6 1_555 1_555
C9 N7 1_555 1_555
C10 N2 1_555 1_555
C15 N8 1_555 1_555
N3 N4 1_555 1_555
N5 N6 1_555 1_555
Mo3B O7B 1_555 1_555
Mo4B O10B 1_555 1_555

#END
