
#######################################################################
#
#                 Cambridge Crystallographic Data Centre
#                                CCDC 
#
#######################################################################
#
# If this CIF has been generated from an entry in the Cambridge 
# Structural Database, then it will include bibliographic, chemical, 
# crystal, experimental, refinement or atomic coordinate data resulting 
# from the CCDC's data processing and validation procedures.
#
#######################################################################

data_ECUBOV
_symmetry_cell_setting           monoclinic
_symmetry_space_group_name_H-M   'P 21/c'
_symmetry_Int_Tables_number      14
_space_group_name_Hall           '-P 2ybc'
loop_
_symmetry_equiv_pos_site_id
_symmetry_equiv_pos_as_xyz
1 x,y,z
2 -x,1/2+y,1/2-z
3 -x,-y,-z
4 x,1/2-y,1/2+z
_cell_length_a                   14.3054(14)
_cell_length_b                   11.1468(11)
_cell_length_c                   12.5648(13)
_cell_angle_alpha                90
_cell_angle_beta                 101.059(2)
_cell_angle_gamma                90
_cell_volume                     1966.37
loop_
_atom_site_label
_atom_site_type_symbol
_atom_site_fract_x
_atom_site_fract_y
_atom_site_fract_z
C1 C 0.0390(3) 0.6169(4) -0.1169(4)
H1 H -0.0034 0.6772 -0.1456
S1 S 0.07990(8) 0.75431(10) 0.06792(9)
Nd1 Nd 0.143702(17) 0.06091(2) 0.008099(19)
O1 O 0.1391(2) 0.8466(3) 0.0305(3)
S2 S 0.23639(8) 0.31545(10) 0.03262(10)
O2 O -0.0860(2) 0.5449(3) -0.3151(2)
N1 N 0.3025(3) 0.0280(3) 0.1483(3)
O3 O 0.2394(2) 0.2271(3) -0.0544(3)
C2 C 0.1614(3) 0.4335(4) -0.0278(3)
O4 O 0.0402(2) 0.4655(3) -0.3651(3)
O5 O -0.0206(2) 0.7882(3) 0.0402(3)
C3 C 0.1127(3) 0.4242(4) -0.1342(3)
H2 H 0.1207 0.3571 -0.1755
C4 C 0.4588(3) -0.0634(5) 0.1965(4)
O6 O 0.1894(2) 0.2578(3) 0.1133(3)
O7 O 0.1113(3) 0.7219(3) 0.1795(3)
C5 C 0.4273(4) -0.1815(5) -0.1272(5)
H3 H 0.4754 -0.2239 -0.1510
C6 C 0.3747(3) -0.0374(4) 0.1212(4)
C7 C 0.0515(3) 0.5162(4) -0.1786(4)
O8 O 0.3273(2) 0.3678(3) 0.0765(3)
C8 C 0.5334(4) -0.1300(5) 0.1618(5)
H4 H 0.5890 -0.1472 0.2113
C9 C 0.3129(3) 0.0675(5) 0.2501(4)
H5 H 0.2643 0.1136 0.2688
C10 C 0.0911(3) 0.6252(4) -0.0119(3)
C11 C 0.1521(3) 0.5344(4) 0.0343(4)
H6 H 0.1859 0.5410 0.1051
C12 C 0.3454(4) -0.1565(5) -0.1974(5)
H7 H 0.3361 -0.1835 -0.2687
C13 C 0.3929(4) 0.0433(5) 0.3300(4)
H8 H 0.3963 0.0706 0.4006
C14 C 0.5243(4) -0.1676(5) 0.0595(5)
H9 H 0.5738 -0.2101 0.0389
C15 C 0.2753(4) -0.0897(5) -0.1611(4)
H10 H 0.2195 -0.0727 -0.2102
N2 N 0.2838(2) -0.0489(3) -0.0603(3)
C16 C 0.4652(4) -0.0205(5) 0.3029(4)
H11 H 0.5194 -0.0361 0.3549
C17 C 0.3653(3) -0.0779(4) 0.0119(4)
C18 C 0.4400(4) -0.1439(4) -0.0189(4)
C19 C -0.0022(3) 0.5067(4) -0.2935(4)
Nd1B Nd -0.143702(17) 0.93909(2) -0.008099(19)
Nd1_2 Nd 0.143702(17) 1.06091(2) 0.008099(19)
Nd1A Nd -0.143702(17) 0.56091(2) -0.508099(19)
Nd1C Nd 0.143702(17) 0.43909(2) -0.491901(19)
O1_2 O 0.1391(2) -0.1534(3) 0.0305(3)
O2A O 0.0860(2) 0.0449(3) -0.1849(2)
O4C O 0.0402(2) 0.0345(3) 0.1349(3)
O5B O 0.0206(2) 0.2118(3) -0.0402(3)
loop_
_geom_bond_atom_site_label_1
_geom_bond_atom_site_label_2
_geom_bond_site_symmetry_1
_geom_bond_site_symmetry_2
C1 H1 1_555 1_555
S1 O1 1_555 1_555
Nd1 N1 1_555 1_555
O1 Nd1_2 1_555 1_555
S2 O3 1_555 1_555
O2 C19 1_555 1_555
N1 C6 1_555 1_555
O3 Nd1 1_555 1_555
C2 S2 1_555 1_555
O4 C19 1_555 1_555
O5 S1 1_555 1_555
C3 C2 1_555 1_555
H2 C3 1_555 1_555
C4 C6 1_555 1_555
O6 Nd1 1_555 1_555
O7 S1 1_555 1_555
C5 H3 1_555 1_555
C6 C17 1_555 1_555
C7 C1 1_555 1_555
O8 S2 1_555 1_555
C8 C4 1_555 1_555
H4 C8 1_555 1_555
C9 N1 1_555 1_555
H5 C9 1_555 1_555
C10 C1 1_555 1_555
C11 C2 1_555 1_555
H6 C11 1_555 1_555
C12 C5 1_555 1_555
H7 C12 1_555 1_555
C13 C9 1_555 1_555
H8 C13 1_555 1_555
C14 C8 1_555 1_555
H9 C14 1_555 1_555
C15 C12 1_555 1_555
H10 C15 1_555 1_555
N2 Nd1 1_555 1_555
C16 C4 1_555 1_555
H11 C16 1_555 1_555
C17 N2 1_555 1_555
C18 C5 1_555 1_555
C19 C7 1_555 1_555
Nd1B O5 1_555 1_555
Nd1A O2 1_555 1_555
Nd1C O4 1_555 1_555
O1_2 Nd1 1_555 1_555
O2A Nd1 1_555 1_555
O4C Nd1 1_555 1_555
O5B Nd1 1_555 1_555
S1 C10 1_555 1_555
S2 O6 1_555 1_555
C3 C7 1_555 1_555
C10 C11 1_555 1_555
C13 C16 1_555 1_555
C14 C18 1_555 1_555
C15 N2 1_555 1_555
C17 C18 1_555 1_555

#END
