
#######################################################################
#
#                 Cambridge Crystallographic Data Centre
#                                CCDC 
#
#######################################################################
#
# If this CIF has been generated from an entry in the Cambridge 
# Structural Database, then it will include bibliographic, chemical, 
# crystal, experimental, refinement or atomic coordinate data resulting 
# from the CCDC's data processing and validation procedures.
#
#######################################################################

data_ECUBIP
_symmetry_cell_setting           monoclinic
_symmetry_space_group_name_H-M   'C 2/c'
_symmetry_Int_Tables_number      15
_space_group_name_Hall           '-C 2yn'
loop_
_symmetry_equiv_pos_site_id
_symmetry_equiv_pos_as_xyz
1 x,y,z
2 -x,y,1/2-z
3 1/2+x,1/2+y,z
4 1/2-x,1/2+y,1/2-z
5 -x,-y,-z
6 x,-y,1/2+z
7 1/2-x,1/2-y,-z
8 1/2+x,1/2-y,1/2+z
_cell_length_a                   13.9971(16)
_cell_length_b                   11.3873(13)
_cell_length_c                   24.372(3)
_cell_angle_alpha                90
_cell_angle_beta                 97.031(2)
_cell_angle_gamma                90
_cell_volume                     3855.42
loop_
_atom_site_label
_atom_site_type_symbol
_atom_site_fract_x
_atom_site_fract_y
_atom_site_fract_z
La1 La 0.67769(3) 0.09642(3) 0.578200(17)
S1 S 0.89773(13) 0.07313(16) 0.62809(8)
S2 S 1.08665(13) 0.33253(15) 0.48389(8)
O1 O 1.2418(4) -0.0995(5) 0.5031(2)
O2 O 1.1212(4) 0.4155(4) 0.5276(2)
O3 O 0.8345(4) -0.0238(4) 0.6072(2)
C1 C 0.9956(5) 0.1935(6) 0.5537(3)
H1 H 0.9547 0.2567 0.5572
O4 O 0.8401(4) 0.1822(4) 0.6229(2)
O5 O 0.9495(4) 0.0535(5) 0.6818(2)
O6 O 1.1544(4) 0.3101(5) 0.4458(2)
C2 C 0.9852(5) 0.0893(7) 0.5817(3)
C3 C 1.1827(5) -0.1034(6) 0.5371(3)
N1 N 0.6451(4) 0.1811(5) 0.6800(3)
C4 C 1.1312(5) 0.1071(6) 0.5147(3)
H2 H 1.1803 0.1139 0.4925
O7 O 0.9916(4) 0.3670(4) 0.4572(2)
C5 C 0.6531(6) -0.1707(7) 0.6495(3)
H3 H 0.6659 -0.1958 0.6148
C6 C 0.6246(6) -0.0993(8) 0.7539(3)
O8 O 1.1662(4) -0.1932(4) 0.5644(2)
C7 C 0.6375(5) -0.0187(7) 0.7117(3)
C8 C 1.0695(5) 0.2004(6) 0.5200(3)
C9 C 0.6351(5) 0.1056(7) 0.7219(3)
N2 N 0.6499(5) -0.0548(6) 0.6597(3)
C10 C 0.6237(6) -0.2193(8) 0.7411(4)
H4 H 0.6135 -0.2746 0.7679
C11 C 0.6231(6) 0.1437(8) 0.7757(3)
C12 C 1.1190(5) 0.0023(6) 0.5432(3)
C13 C 1.0459(5) -0.0058(6) 0.5763(3)
H5 H 1.0371 -0.0753 0.5951
C14 C 0.6147(7) 0.0590(10) 0.8184(4)
H6 H 0.6086 0.0847 0.8540
C15 C 0.6380(6) -0.2546(8) 0.6894(4)
H7 H 0.6376 -0.3341 0.6806
C16 C 0.6156(7) -0.0561(10) 0.8079(4)
H8 H 0.6103 -0.1090 0.8364
C17 C 0.6427(6) 0.2962(8) 0.6902(4)
H9 H 0.6510 0.3486 0.6619
C18 C 0.6281(6) 0.3405(8) 0.7419(4)
H10 H 0.6243 0.4212 0.7472
C19 C 0.6195(6) 0.2661(9) 0.7847(4)
H11 H 0.6113 0.2954 0.8194
La1D La 1.32231(3) -0.09642(3) 0.421800(17)
La1B La 1.17769(3) -0.40358(3) 0.578200(17)
La1B_2 La 1.17769(3) 0.59642(3) 0.578200(17)
La1F La 0.82231(3) 0.40358(3) 0.421800(17)
O1D O 0.7582(4) 0.0995(5) 0.4969(2)
O2B O 0.6212(4) -0.0845(4) 0.5276(2)
O7F O 0.5084(4) 0.1330(4) 0.5428(2)
O8B O 0.6662(4) 0.3068(4) 0.5644(2)
loop_
_geom_bond_atom_site_label_1
_geom_bond_atom_site_label_2
_geom_bond_site_symmetry_1
_geom_bond_site_symmetry_2
La1 O3 1_555 1_555
S1 O3 1_555 1_555
S2 O2 1_555 1_555
O1 C3 1_555 1_555
O2 La1B_2 1_555 1_555
C1 H1 1_555 1_555
O4 La1 1_555 1_555
O5 S1 1_555 1_555
O6 S2 1_555 1_555
C2 S1 1_555 1_555
C3 O8 1_555 1_555
N1 La1 1_555 1_555
C4 H2 1_555 1_555
O7 S2 1_555 1_555
C5 H3 1_555 1_555
C6 C7 1_555 1_555
O8 La1B 1_555 1_555
C7 C9 1_555 1_555
C8 S2 1_555 1_555
C9 N1 1_555 1_555
N2 La1 1_555 1_555
C10 C6 1_555 1_555
H4 C10 1_555 1_555
C11 C9 1_555 1_555
C12 C3 1_555 1_555
C13 C2 1_555 1_555
H5 C13 1_555 1_555
C14 C11 1_555 1_555
H6 C14 1_555 1_555
C15 C5 1_555 1_555
H7 C15 1_555 1_555
C16 C6 1_555 1_555
H8 C16 1_555 1_555
C17 N1 1_555 1_555
H9 C17 1_555 1_555
C18 C17 1_555 1_555
H10 C18 1_555 1_555
C19 C11 1_555 1_555
H11 C19 1_555 1_555
La1D O1 1_555 1_555
La1F O7 1_555 1_555
O1D La1 1_555 1_555
O2B La1 1_555 1_555
O7F La1 1_555 1_555
O8B La1 1_555 1_555
S1 O4 1_555 1_555
C1 C2 1_555 1_555
C1 C8 1_555 1_555
C4 C8 1_555 1_555
C4 C12 1_555 1_555
C5 N2 1_555 1_555
C7 N2 1_555 1_555
C10 C15 1_555 1_555
C12 C13 1_555 1_555
C14 C16 1_555 1_555
C18 C19 1_555 1_555

#END
