
#######################################################################
#
#                 Cambridge Crystallographic Data Centre
#                                CCDC 
#
#######################################################################
#
# If this CIF has been generated from an entry in the Cambridge 
# Structural Database, then it will include bibliographic, chemical, 
# crystal, experimental, refinement or atomic coordinate data resulting 
# from the CCDC's data processing and validation procedures.
#
#######################################################################

data_ECUMAS
_symmetry_cell_setting           orthorhombic
_symmetry_space_group_name_H-M   'C 2 c b'
_symmetry_Int_Tables_number      41
_space_group_name_Hall           'C -2bc 2'
loop_
_symmetry_equiv_pos_site_id
_symmetry_equiv_pos_as_xyz
1 x,y,z
2 x,-y,-z
3 x,1/2-y,1/2+z
4 x,1/2+y,1/2-z
5 1/2+x,1/2+y,z
6 1/2+x,1/2-y,-z
7 1/2+x,-y,1/2+z
8 1/2+x,y,1/2-z
_cell_length_a                   11.2670(16)
_cell_length_b                   17.750(4)
_cell_length_c                   23.321(2)
_cell_angle_alpha                90
_cell_angle_beta                 90
_cell_angle_gamma                90
_cell_volume                     4663.95
loop_
_atom_site_label
_atom_site_type_symbol
_atom_site_fract_x
_atom_site_fract_y
_atom_site_fract_z
Mn1 Mn 0.43971(4) 0.19032(2) 0.319095(16)
Cr1 Cr 0.36276(4) 0.38579(2) 0.128251(17)
N1 N 0.2868(3) 0.38035(15) 0.43404(11)
N2 N 0.4072(3) 0.42288(18) 0.60032(11)
O1 O 0.31881(19) 0.08828(12) 0.30054(9)
O2 O 0.4913(2) 0.09441(12) 0.38268(9)
O3 O 0.28349(18) -0.03223(11) 0.32593(8)
O4 O 0.46014(18) -0.02891(11) 0.40099(8)
O5 O 0.29510(19) 0.22550(12) 0.24562(9)
O6 O 0.4961(2) 0.30094(13) 0.27401(9)
O7 O 0.27605(19) 0.30212(11) 0.16840(8)
O8 O 0.47631(18) 0.37085(11) 0.19376(8)
O9 O 0.4496(2) 0.31657(11) 0.07860(8)
O10 O 0.24899(19) 0.38806(12) 0.06439(8)
O11 O 0.4581(2) 0.28210(14) -0.01393(8)
O12 O 0.2337(2) 0.34865(17) -0.02737(10)
O13 O 0.30508(19) 0.22945(13) 0.37909(8)
O14 O 0.5714(2) 0.14496(13) 0.26058(9)
H1 H 0.6420 0.1705 0.2600
H2 H 0.5879 0.0982 0.2590
O15 O 0.5644(2) 0.24508(14) 0.37936(8)
H3 H 0.5791 0.2312 0.4167
H4 H 0.6184 0.2689 0.3687
C1 C 0.3384(2) 0.03105(16) 0.32970(11)
C2 C 0.4395(3) 0.03389(15) 0.37508(10)
C3 C 0.3273(2) 0.27714(15) 0.21373(11)
C4 C 0.4443(3) 0.31902(14) 0.22950(10)
C5 C 0.4083(3) 0.31234(17) 0.02632(12)
C6 C 0.2866(3) 0.35224(18) 0.01898(12)
C7 C 0.2051(3) 0.2781(2) 0.37207(14)
H5 H 0.1457 0.2671 0.4022
H6 H 0.1678 0.2685 0.3344
C8 C 0.2412(3) 0.3602(2) 0.37578(14)
H7 H 0.3035 0.3704 0.3469
H8 H 0.1718 0.3922 0.3666
C9 C 0.2091(3) 0.3892(2) 0.47783(16)
H9 H 0.1265 0.3858 0.4700
C10 C 0.2450(3) 0.4030(2) 0.53273(15)
H10 H 0.1875 0.4085 0.5622
C11 C 0.3683(3) 0.40906(17) 0.54638(12)
C12 C 0.4488(3) 0.40027(19) 0.49905(13)
H11 H 0.5319 0.4047 0.5051
C13 C 0.4058(3) 0.38548(19) 0.44508(14)
H12 H 0.4604 0.3786 0.4145
C14 C 0.3242(5) 0.4280(3) 0.64785(16)
H13 H 0.2668 0.4683 0.6403
H14 H 0.3676 0.4391 0.6832
H15 H 0.2821 0.3800 0.6520
C15 C 0.5349(4) 0.4299(3) 0.61335(19)
H16 H 0.5745 0.3818 0.6059
H17 H 0.5451 0.4436 0.6538
H18 H 0.5699 0.4691 0.5891
Cr1C Cr 0.36276(4) -0.11421(2) 0.371749(17)
O3C O 0.28349(18) 0.46777(11) 0.17407(8)
O4C O 0.46014(18) 0.47109(11) 0.09901(8)
O16 O 0.1068(3) -0.00778(13) 0.24071(13)
loop_
_geom_bond_atom_site_label_1
_geom_bond_atom_site_label_2
_geom_bond_site_symmetry_1
_geom_bond_site_symmetry_2
Mn1 O1 1_555 1_555
Cr1 O7 1_555 1_555
N1 C8 1_555 1_555
N2 C11 1_555 1_555
O1 C1 1_555 1_555
O2 Mn1 1_555 1_555
O3 C1 1_555 1_555
O4 C2 1_555 1_555
O5 Mn1 1_555 1_555
O6 Mn1 1_555 1_555
O7 C3 1_555 1_555
O8 Cr1 1_555 1_555
O9 Cr1 1_555 1_555
O10 Cr1 1_555 1_555
O11 C5 1_555 1_555
O12 C6 1_555 1_555
O13 Mn1 1_555 1_555
O14 Mn1 1_555 1_555
H1 O14 1_555 1_555
H2 O14 1_555 1_555
O15 Mn1 1_555 1_555
H3 O15 1_555 1_555
H4 O15 1_555 1_555
C1 C2 1_555 1_555
C2 O2 1_555 1_555
C3 O5 1_555 1_555
C4 O6 1_555 1_555
C5 O9 1_555 1_555
C6 O10 1_555 1_555
C7 O13 1_555 1_555
H5 C7 1_555 1_555
H6 C7 1_555 1_555
C8 C7 1_555 1_555
H7 C8 1_555 1_555
H8 C8 1_555 1_555
C9 N1 1_555 1_555
H9 C9 1_555 1_555
C10 C9 1_555 1_555
H10 C10 1_555 1_555
C11 C10 1_555 1_555
C12 C11 1_555 1_555
H11 C12 1_555 1_555
C13 N1 1_555 1_555
H12 C13 1_555 1_555
C14 N2 1_555 1_555
H13 C14 1_555 1_555
H14 C14 1_555 1_555
H15 C14 1_555 1_555
C15 N2 1_555 1_555
H16 C15 1_555 1_555
H17 C15 1_555 1_555
H18 C15 1_555 1_555
Cr1C O3 1_555 1_555
O3C Cr1 1_555 1_555
O4C Cr1 1_555 1_555
O4 Cr1C 1_555 1_555
O8 C4 1_555 1_555
C3 C4 1_555 1_555
C5 C6 1_555 1_555
C12 C13 1_555 1_555

#END
