
#######################################################################
#
#                 Cambridge Crystallographic Data Centre
#                                CCDC 
#
#######################################################################
#
# If this CIF has been generated from an entry in the Cambridge 
# Structural Database, then it will include bibliographic, chemical, 
# crystal, experimental, refinement or atomic coordinate data resulting 
# from the CCDC's data processing and validation procedures.
#
#######################################################################

data_ECUSIG
_symmetry_cell_setting           orthorhombic
_symmetry_space_group_name_H-M   'P b c a'
_symmetry_Int_Tables_number      61
_space_group_name_Hall           '-P 2ac 2ab'
loop_
_symmetry_equiv_pos_site_id
_symmetry_equiv_pos_as_xyz
1 x,y,z
2 1/2-x,-y,1/2+z
3 -x,1/2+y,1/2-z
4 1/2+x,1/2-y,-z
5 -x,-y,-z
6 1/2+x,y,1/2-z
7 x,1/2-y,1/2+z
8 1/2-x,1/2+y,z
_cell_length_a                   16.65(2)
_cell_length_b                   29.14(3)
_cell_length_c                   31.71(4)
_cell_angle_alpha                90
_cell_angle_beta                 90
_cell_angle_gamma                90
_cell_volume                     15385.1
loop_
_atom_site_label
_atom_site_type_symbol
_atom_site_fract_x
_atom_site_fract_y
_atom_site_fract_z
Sn1 Sn 0.81999(17) 0.35585(10) 1.12075(10)
Sn2 Sn 0.64992(15) 0.29548(9) 0.98753(9)
Sn3 Sn 0.48894(16) 0.58140(10) 1.12713(9)
Sn4 Sn 0.32396(18) 0.48843(12) 1.25589(12)
O1 O 0.8648(15) 0.3005(9) 1.0789(9)
O2 O 0.7608(15) 0.3032(9) 1.0371(8)
O3 O 1.0435(14) 0.2134(9) 1.0516(8)
O4 O 1.0422(14) 0.1461(9) 1.0837(8)
O5 O 0.5285(15) 0.5215(10) 1.1639(9)
O6 O 0.4234(18) 0.5109(10) 1.2038(10)
O7 O 0.7252(16) 0.4754(11) 1.2023(10)
O8 O 0.7753(17) 0.4167(10) 1.1675(10)
S1 S 0.8498(6) 0.1937(3) 1.0545(4)
S2 S 0.5652(7) 0.4144(4) 1.1780(4)
C1 C 0.826(2) 0.2876(14) 1.0479(14)
C2 C 0.865(2) 0.2488(12) 1.0251(12)
H1 H 0.9215 0.2547 1.0219
H2 H 0.8412 0.2461 0.9972
C3 C 1.007(2) 0.1838(15) 1.0720(13)
C4 C 0.926(2) 0.2000(12) 1.0954(12)
H3 H 0.9303 0.2316 1.1048
H4 H 0.9145 0.1806 1.1195
C5 C 0.497(3) 0.5041(16) 1.1953(16)
C6 C 0.536(3) 0.4606(15) 1.2136(14)
H5 H 0.5839 0.4701 1.2288
H6 H 0.4994 0.4479 1.2342
C7 C 0.721(3) 0.4438(17) 1.1764(15)
C8 C 0.651(2) 0.4434(17) 1.1459(15)
H7 H 0.6635 0.4258 1.1208
H8 H 0.6361 0.4744 1.1377
C9 C 0.7206(16) 0.3197(8) 1.1424(14)
H9 H 0.7090 0.3301 1.1708
H10 H 0.6751 0.3281 1.1249
C10 C 0.7254(18) 0.2674(8) 1.1433(14)
H11 H 0.7734 0.2584 1.1585
H12 H 0.7305 0.2562 1.1146
C11 C 0.653(2) 0.2446(9) 1.1639(15)
H13 H 0.6039 0.2565 1.1511
H14 H 0.6515 0.2524 1.1936
C12 C 0.654(3) 0.1923(9) 1.1592(18)
H15 H 0.6254 0.1837 1.1341
H16 H 0.6285 0.1785 1.1833
H17 H 0.7084 0.1819 1.1573
C13 C 0.9267(15) 0.3571(12) 1.1533(10)
H18 H 0.9700 0.3553 1.1329
H19 H 0.9310 0.3867 1.1672
C14 C 0.941(2) 0.3199(13) 1.1866(9)
H20 H 0.9179 0.2912 1.1769
H21 H 0.9983 0.3152 1.1901
C15 C 0.904(3) 0.3327(16) 1.2291(11)
H22 H 0.8461 0.3291 1.2276
H23 H 0.9154 0.3647 1.2352
C16 C 0.937(4) 0.303(2) 1.2649(11)
H24 H 0.9009 0.2777 1.2700
H25 H 0.9423 0.3209 1.2900
H26 H 0.9887 0.2909 1.2570
C17 C 0.8200(19) 0.4076(11) 1.0741(10)
H27 H 0.7716 0.4045 1.0573
H28 H 0.8180 0.4372 1.0880
C18 C 0.893(2) 0.4066(11) 1.0447(10)
H29 H 0.9409 0.4059 1.0618
H30 H 0.8910 0.3782 1.0287
C19 C 0.900(2) 0.4462(13) 1.0138(12)
H31 H 0.8942 0.4749 1.0290
H32 H 0.8561 0.4444 0.9935
C20 C 0.980(2) 0.4456(18) 0.9903(14)
H33 H 0.9929 0.4760 0.9808
H34 H 0.9766 0.4254 0.9665
H35 H 1.0216 0.4350 1.0090
C21 C 0.6026(17) 0.3551(12) 1.0241(12)
H36 H 0.6369 0.3620 1.0480
H37 H 0.5983 0.3822 1.0065
C22 C 0.5194(18) 0.3388(10) 1.0387(12)
H38 H 0.4895 0.3275 1.0147
H39 H 0.5257 0.3137 1.0585
C23 C 0.473(2) 0.3777(11) 1.0597(14)
H40 H 0.4527 0.3985 1.0383
H41 H 0.5079 0.3947 1.0783
C24 C 0.402(2) 0.3587(17) 1.0853(16)
H42 H 0.3645 0.3437 1.0666
H43 H 0.3749 0.3835 1.0995
H44 H 0.4210 0.3370 1.1057
C25 C 0.7341(18) 0.3085(14) 0.9356(11)
H45 H 0.7274 0.2810 0.9187
H46 H 0.7059 0.3322 0.9200
C26 C 0.8218(18) 0.3208(15) 0.9265(9)
H47 H 0.8296 0.3534 0.9313
H48 H 0.8562 0.3043 0.9458
C27 C 0.846(2) 0.3092(12) 0.8812(12)
H49 H 0.8006 0.2953 0.8671
H50 H 0.8889 0.2867 0.8820
C28 C 0.874(3) 0.3505(17) 0.8554(13)
H51 H 0.8287 0.3686 0.8472
H52 H 0.9018 0.3399 0.8306
H53 H 0.9100 0.3689 0.8721
C29 C 0.635(2) 0.2330(11) 1.0137(12)
H54 H 0.6862 0.2239 1.0260
H55 H 0.5972 0.2360 1.0367
C30 C 0.6066(19) 0.1940(11) 0.9854(13)
H56 H 0.5589 0.1804 0.9977
H57 H 0.5920 0.2065 0.9581
C31 C 0.670(2) 0.1568(13) 0.9793(14)
H58 H 0.6842 0.1443 1.0066
H59 H 0.7173 0.1704 0.9670
C32 C 0.641(3) 0.1177(13) 0.9509(16)
H60 H 0.6225 0.0926 0.9681
H61 H 0.6842 0.1076 0.9333
H62 H 0.5973 0.1284 0.9335
C33 C 0.5966(16) 0.5744(15) 1.0909(12)
H63 H 0.5939 0.5961 1.0678
H64 H 0.5968 0.5439 1.0787
C34 C 0.6771(17) 0.5815(15) 1.1132(10)
H65 H 0.6825 0.6134 1.1213
H66 H 0.6785 0.5630 1.1387
C35 C 0.7476(17) 0.5680(13) 1.0846(14)
H67 H 0.7278 0.5626 1.0563
H68 H 0.7711 0.5396 1.0948
C36 C 0.812(2) 0.6052(17) 1.0833(18)
H69 H 0.8547 0.5973 1.1024
H70 H 0.8332 0.6076 1.0552
H71 H 0.7891 0.6340 1.0915
C37 C 0.481(2) 0.6310(12) 1.1790(13)
H72 H 0.5254 0.6524 1.1770
H73 H 0.4857 0.6148 1.2056
C38 C 0.4020(19) 0.6575(12) 1.1782(13)
H74 H 0.3887 0.6651 1.1492
H75 H 0.3595 0.6382 1.1892
C39 C 0.406(2) 0.7017(13) 1.2042(15)
H76 H 0.4512 0.7202 1.1945
H77 H 0.4156 0.6941 1.2336
C40 C 0.329(3) 0.7295(15) 1.2004(19)
H78 H 0.2937 0.7220 1.2234
H79 H 0.3410 0.7616 1.2010
H80 H 0.3026 0.7221 1.1742
C41 C 0.382(2) 0.5570(13) 1.1029(15)
H81 H 0.3872 0.5640 1.0731
H82 H 0.3434 0.5789 1.1136
C42 C 0.3345(19) 0.5123(11) 1.1026(14)
H83 H 0.3559 0.4922 1.0809
H84 H 0.3412 0.4970 1.1295
C43 C 0.2445(17) 0.5198(15) 1.0944(15)
H85 H 0.2145 0.5129 1.1199
H86 H 0.2352 0.5518 1.0874
C44 C 0.215(2) 0.4891(17) 1.0582(15)
H87 H 0.2580 0.4831 1.0391
H88 H 0.1950 0.4607 1.0695
H89 H 0.1720 0.5045 1.0435
C45 C 0.262(2) 0.5422(12) 1.2265(11)
H90 H 0.2401 0.5308 1.2001
H91 H 0.3000 0.5662 1.2198
C46 C 0.1932(19) 0.5635(10) 1.2517(14)
H92 H 0.1452 0.5453 1.2475
H93 H 0.2066 0.5623 1.2814
C47 C 0.175(3) 0.6132(10) 1.2399(12)
H94 H 0.2011 0.6205 1.2135
H95 H 0.1173 0.6165 1.2357
C48 C 0.203(3) 0.6471(14) 1.2738(17)
H96 H 0.1973 0.6332 1.3011
H97 H 0.2576 0.6551 1.2689
H98 H 0.1699 0.6743 1.2726
C49 C 0.4154(18) 0.4902(10) 1.2995(10)
H99 H 0.4544 0.4670 1.2916
H100 H 0.3932 0.4811 1.3265
C50 C 0.4602(17) 0.5353(13) 1.3058(9)
H101 H 0.5161 0.5289 1.3119
H102 H 0.4579 0.5531 1.2800
C51 C 0.424(2) 0.5634(13) 1.3420(13)
H103 H 0.3838 0.5453 1.3566
H104 H 0.3979 0.5905 1.3308
C52 C 0.490(3) 0.5778(15) 1.3733(12)
H105 H 0.5401 0.5649 1.3647
H106 H 0.4937 0.6107 1.3738
H107 H 0.4761 0.5669 1.4010
C53 C 0.318(3) 0.4350(7) 1.2134(9)
H108 H 0.3524 0.4425 1.1899
H109 H 0.2632 0.4339 1.2026
C54 C 0.340(3) 0.3868(7) 1.2285(12)
H110 H 0.3962 0.3813 1.2232
H111 H 0.3306 0.3847 1.2586
C55 C 0.290(2) 0.3498(9) 1.2060(16)
H112 H 0.2648 0.3629 1.1811
H113 H 0.2474 0.3393 1.2247
C56 C 0.342(3) 0.3089(12) 1.1930(18)
H114 H 0.3861 0.3195 1.1764
H115 H 0.3614 0.2937 1.2178
H116 H 0.3100 0.2878 1.1767
Sn2C Sn 1.14992(15) 0.20452(9) 1.01247(9)
Sn3G Sn 1.01106(16) 0.08140(10) 1.12713(9)
Sn4E Sn 0.82396(18) 0.48843(12) 1.24411(12)
O3C O 0.5435(14) 0.2866(9) 0.9484(8)
O4G O 0.4578(14) 0.6461(9) 1.0837(8)
O7E O 0.2252(16) 0.4754(11) 1.2977(10)
loop_
_geom_bond_atom_site_label_1
_geom_bond_atom_site_label_2
_geom_bond_site_symmetry_1
_geom_bond_site_symmetry_2
Sn1 O1 1_555 1_555
Sn2 O2 1_555 1_555
Sn3 O5 1_555 1_555
Sn4 O6 1_555 1_555
O1 C1 1_555 1_555
O2 C1 1_555 1_555
O3 C3 1_555 1_555
O4 C3 1_555 1_555
O5 C5 1_555 1_555
O6 C5 1_555 1_555
O7 C7 1_555 1_555
O8 Sn1 1_555 1_555
S1 C2 1_555 1_555
S2 C6 1_555 1_555
C1 C2 1_555 1_555
C2 H1 1_555 1_555
H2 C2 1_555 1_555
C3 C4 1_555 1_555
C4 S1 1_555 1_555
H3 C4 1_555 1_555
H4 C4 1_555 1_555
C5 C6 1_555 1_555
C6 H5 1_555 1_555
H6 C6 1_555 1_555
C7 O8 1_555 1_555
C8 S2 1_555 1_555
H7 C8 1_555 1_555
H8 C8 1_555 1_555
C9 Sn1 1_555 1_555
H9 C9 1_555 1_555
H10 C9 1_555 1_555
C10 C9 1_555 1_555
H11 C10 1_555 1_555
H12 C10 1_555 1_555
C11 C10 1_555 1_555
H13 C11 1_555 1_555
H14 C11 1_555 1_555
C12 C11 1_555 1_555
H15 C12 1_555 1_555
H16 C12 1_555 1_555
H17 C12 1_555 1_555
C13 Sn1 1_555 1_555
H18 C13 1_555 1_555
H19 C13 1_555 1_555
C14 C13 1_555 1_555
H20 C14 1_555 1_555
H21 C14 1_555 1_555
C15 C14 1_555 1_555
H22 C15 1_555 1_555
H23 C15 1_555 1_555
C16 C15 1_555 1_555
H24 C16 1_555 1_555
H25 C16 1_555 1_555
H26 C16 1_555 1_555
C17 Sn1 1_555 1_555
H27 C17 1_555 1_555
H28 C17 1_555 1_555
C18 C17 1_555 1_555
H29 C18 1_555 1_555
H30 C18 1_555 1_555
C19 C18 1_555 1_555
H31 C19 1_555 1_555
H32 C19 1_555 1_555
C20 C19 1_555 1_555
H33 C20 1_555 1_555
H34 C20 1_555 1_555
H35 C20 1_555 1_555
C21 Sn2 1_555 1_555
H36 C21 1_555 1_555
H37 C21 1_555 1_555
C22 C21 1_555 1_555
H38 C22 1_555 1_555
H39 C22 1_555 1_555
C23 C22 1_555 1_555
H40 C23 1_555 1_555
H41 C23 1_555 1_555
C24 C23 1_555 1_555
H42 C24 1_555 1_555
H43 C24 1_555 1_555
H44 C24 1_555 1_555
C25 Sn2 1_555 1_555
H45 C25 1_555 1_555
H46 C25 1_555 1_555
C26 C25 1_555 1_555
H47 C26 1_555 1_555
H48 C26 1_555 1_555
C27 C26 1_555 1_555
H49 C27 1_555 1_555
H50 C27 1_555 1_555
C28 C27 1_555 1_555
H51 C28 1_555 1_555
H52 C28 1_555 1_555
H53 C28 1_555 1_555
C29 Sn2 1_555 1_555
H54 C29 1_555 1_555
H55 C29 1_555 1_555
C30 C29 1_555 1_555
H56 C30 1_555 1_555
H57 C30 1_555 1_555
C31 C30 1_555 1_555
H58 C31 1_555 1_555
H59 C31 1_555 1_555
C32 C31 1_555 1_555
H60 C32 1_555 1_555
H61 C32 1_555 1_555
H62 C32 1_555 1_555
C33 Sn3 1_555 1_555
H63 C33 1_555 1_555
H64 C33 1_555 1_555
C34 C33 1_555 1_555
H65 C34 1_555 1_555
H66 C34 1_555 1_555
C35 C34 1_555 1_555
H67 C35 1_555 1_555
H68 C35 1_555 1_555
C36 C35 1_555 1_555
H69 C36 1_555 1_555
H70 C36 1_555 1_555
H71 C36 1_555 1_555
C37 Sn3 1_555 1_555
H72 C37 1_555 1_555
H73 C37 1_555 1_555
C38 C37 1_555 1_555
H74 C38 1_555 1_555
H75 C38 1_555 1_555
C39 C38 1_555 1_555
H76 C39 1_555 1_555
H77 C39 1_555 1_555
C40 C39 1_555 1_555
H78 C40 1_555 1_555
H79 C40 1_555 1_555
H80 C40 1_555 1_555
C41 Sn3 1_555 1_555
H81 C41 1_555 1_555
H82 C41 1_555 1_555
C42 C41 1_555 1_555
H83 C42 1_555 1_555
H84 C42 1_555 1_555
C43 C42 1_555 1_555
H85 C43 1_555 1_555
H86 C43 1_555 1_555
C44 C43 1_555 1_555
H87 C44 1_555 1_555
H88 C44 1_555 1_555
H89 C44 1_555 1_555
C45 Sn4 1_555 1_555
H90 C45 1_555 1_555
H91 C45 1_555 1_555
C46 C45 1_555 1_555
H92 C46 1_555 1_555
H93 C46 1_555 1_555
C47 C46 1_555 1_555
H94 C47 1_555 1_555
H95 C47 1_555 1_555
C48 C47 1_555 1_555
H96 C48 1_555 1_555
H97 C48 1_555 1_555
H98 C48 1_555 1_555
C49 Sn4 1_555 1_555
H99 C49 1_555 1_555
H100 C49 1_555 1_555
C50 C49 1_555 1_555
H101 C50 1_555 1_555
H102 C50 1_555 1_555
C51 C50 1_555 1_555
H103 C51 1_555 1_555
H104 C51 1_555 1_555
C52 C51 1_555 1_555
H105 C52 1_555 1_555
H106 C52 1_555 1_555
H107 C52 1_555 1_555
C53 Sn4 1_555 1_555
H108 C53 1_555 1_555
H109 C53 1_555 1_555
C54 C53 1_555 1_555
H110 C54 1_555 1_555
H111 C54 1_555 1_555
C55 C54 1_555 1_555
H112 C55 1_555 1_555
H113 C55 1_555 1_555
C56 C55 1_555 1_555
H114 C56 1_555 1_555
H115 C56 1_555 1_555
H116 C56 1_555 1_555
Sn2C O3 1_555 1_555
Sn3G O4 1_555 1_555
Sn4E O7 1_555 1_555
O3C Sn2 1_555 1_555
O4G Sn3 1_555 1_555
O7E Sn4 1_555 1_555
C7 C8 1_555 1_555

#END
