
#######################################################################
#
#                 Cambridge Crystallographic Data Centre
#                                CCDC 
#
#######################################################################
#
# If this CIF has been generated from an entry in the Cambridge 
# Structural Database, then it will include bibliographic, chemical, 
# crystal, experimental, refinement or atomic coordinate data resulting 
# from the CCDC's data processing and validation procedures.
#
#######################################################################

data_ECUTAX
_symmetry_cell_setting           monoclinic
_symmetry_space_group_name_H-M   'P 21/c'
_symmetry_Int_Tables_number      14
_space_group_name_Hall           '-P 2ybc'
loop_
_symmetry_equiv_pos_site_id
_symmetry_equiv_pos_as_xyz
1 x,y,z
2 x,1/2-y,1/2+z
3 -x,-y,-z
4 -x,1/2+y,1/2-z
_cell_length_a                   8.5820(7)
_cell_length_b                   17.6497(13)
_cell_length_c                   7.3216(6)
_cell_angle_alpha                90
_cell_angle_beta                 91.720(2)
_cell_angle_gamma                90
_cell_volume                     1108.5
loop_
_atom_site_label
_atom_site_type_symbol
_atom_site_fract_x
_atom_site_fract_y
_atom_site_fract_z
C1 C 0.3190(4) 0.54536(19) 0.3298(5)
H1 H 0.3224 0.5955 0.2829
C2 C -0.1656(4) 0.1465(2) 0.5943(5)
H2 H -0.2589 0.1176 0.5959
C3 C 0.1091(4) 0.15884(19) 0.5457(5)
H3 H 0.2048 0.1364 0.5127
C4 C 0.2423(5) 0.5297(2) 0.4893(5)
H4 H 0.1923 0.5693 0.5532
C5 C -0.0290(4) 0.2636(2) 0.6277(5)
H5 H -0.0313 0.3160 0.6579
C6 C 0.2386(4) 0.4568(2) 0.5549(5)
H6 H 0.1844 0.4471 0.6637
C7 C -0.1666(5) 0.2232(2) 0.6325(5)
H7 H -0.2611 0.2478 0.6617
C8 C 0.3815(4) 0.41330(19) 0.3165(5)
H8 H 0.4295 0.3724 0.2554
C9 C 0.4688(4) 0.49601(19) 0.0714(5)
C10 C -0.0230(4) 0.11249(19) 0.5529(5)
N1 N 0.3083(3) 0.39848(16) 0.4716(4)
C11 C -0.0081(4) 0.03292(19) 0.5156(6)
C12 C 0.3910(4) 0.48582(19) 0.2395(5)
N2 N 0.1079(3) 0.23308(16) 0.5827(4)
Cu1 Cu 0.31050(5) 0.29199(2) 0.57617(6)
Br1 Br 0.46631(4) 0.289642(19) 0.86267(5)
C9B C 0.5312(4) 0.50399(19) -0.0714(5)
C12B C 0.6090(4) 0.51418(19) -0.2395(5)
C1B C 0.6810(4) 0.45464(19) -0.3298(5)
H1B H 0.6776 0.4045 -0.2829
C4B C 0.7577(5) 0.4703(2) -0.4893(5)
H4B H 0.8077 0.4307 -0.5532
C6B C 0.7614(4) 0.5432(2) -0.5549(5)
H6B H 0.8156 0.5529 -0.6637
N1B N 0.6917(3) 0.60152(16) -0.4716(4)
C8B C 0.6185(4) 0.58670(19) -0.3165(5)
H8B H 0.5705 0.6276 -0.2554
C11B C 0.0081(4) -0.03292(19) 0.4844(6)
C10B C 0.0230(4) -0.11249(19) 0.4471(5)
C2B C 0.1656(4) -0.1465(2) 0.4057(5)
H2B H 0.2589 -0.1176 0.4041
C7B C 0.1666(5) -0.2232(2) 0.3675(5)
C5B C 0.0290(4) -0.2636(2) 0.3723(5)
H5B H 0.0313 -0.3160 0.3421
N2B N -0.1079(3) -0.23308(16) 0.4173(4)
C3B C -0.1091(4) -0.15884(19) 0.4543(5)
H3B H -0.2048 -0.1364 0.4873
H7B H 0.2611 -0.2478 0.3383
Br1A Br 0.46631(4) 0.210358(19) 0.36267(5)
Cu1B Cu 0.68950(5) 0.70801(2) -0.57617(6)
Cu1A Cu 0.31050(5) 0.20801(2) 1.07617(6)
Cu1B_2 Cu -0.31050(5) -0.29199(2) 0.42383(6)
Cu1A_2 Cu 0.31050(5) 0.20801(2) 0.07617(6)
N2B_2 N 0.8921(3) 0.76692(16) -0.5827(4)
Br1B Br 0.53369(4) 0.710358(19) -0.86267(5)
Br1C Br 0.53369(4) 0.789642(19) -0.36267(5)
loop_
_geom_bond_atom_site_label_1
_geom_bond_atom_site_label_2
_geom_bond_site_symmetry_1
_geom_bond_site_symmetry_2
C1 H1 1_555 1_555
C2 H2 1_555 1_555
C3 H3 1_555 1_555
C4 C1 1_555 1_555
H4 C4 1_555 1_555
C5 H5 1_555 1_555
C6 C4 1_555 1_555
H6 C6 1_555 1_555
C7 C2 1_555 1_555
H7 C7 1_555 1_555
C8 H8 1_555 1_555
C9 C12 1_555 1_555
C10 C2 1_555 1_555
N1 C6 1_555 1_555
C11 C10 1_555 1_555
C12 C1 1_555 1_555
N2 C3 1_555 1_555
Cu1 N1 1_555 1_555
Br1 Cu1 1_555 1_555
C9B C9 1_555 1_555
C12B C9B 1_555 1_555
C1B C12B 1_555 1_555
H1B C1B 1_555 1_555
C4B C1B 1_555 1_555
H4B C4B 1_555 1_555
C6B C4B 1_555 1_555
H6B C6B 1_555 1_555
N1B C6B 1_555 1_555
C8B C12B 1_555 1_555
H8B C8B 1_555 1_555
C11B C11 1_555 1_555
C10B C11B 1_555 1_555
C2B C10B 1_555 1_555
H2B C2B 1_555 1_555
C7B C2B 1_555 1_555
C5B C7B 1_555 1_555
H5B C5B 1_555 1_555
N2B C5B 1_555 1_555
C3B C10B 1_555 1_555
H3B C3B 1_555 1_555
H7B C7B 1_555 1_555
Br1A Cu1 1_555 1_555
Cu1B N1B 1_555 1_555
Cu1A Br1 1_555 1_555
Cu1B_2 N2B 1_555 1_555
Cu1A_2 Br1A 1_555 1_555
N2B_2 Cu1B 1_555 1_555
Br1B Cu1B 1_555 1_555
Br1C Cu1B 1_555 1_555
C3 C10 1_555 1_555
C5 C7 1_555 1_555
C5 N2 1_555 1_555
C8 N1 1_555 1_555
C8 C12 1_555 1_555
N2 Cu1 1_555 1_555
N1B C8B 1_555 1_555
N2B C3B 1_555 1_555

#END
