
#######################################################################
#
#                 Cambridge Crystallographic Data Centre
#                                CCDC 
#
#######################################################################
#
# If this CIF has been generated from an entry in the Cambridge 
# Structural Database, then it will include bibliographic, chemical, 
# crystal, experimental, refinement or atomic coordinate data resulting 
# from the CCDC's data processing and validation procedures.
#
#######################################################################

data_ECUVIJ
_symmetry_cell_setting           triclinic
_symmetry_space_group_name_H-M   'P -1'
_symmetry_Int_Tables_number      2
_space_group_name_Hall           '-P 1'
loop_
_symmetry_equiv_pos_site_id
_symmetry_equiv_pos_as_xyz
1 x,y,z
2 -x,-y,-z
_cell_length_a                   9.715(3)
_cell_length_b                   12.891(5)
_cell_length_c                   13.903(6)
_cell_angle_alpha                72.64(2)
_cell_angle_beta                 75.70(3)
_cell_angle_gamma                73.27(3)
_cell_volume                     1566.59
loop_
_atom_site_label
_atom_site_type_symbol
_atom_site_fract_x
_atom_site_fract_y
_atom_site_fract_z
Ni1 Ni 0.0000 0.5000 0.0000
Ni2 Ni 0.5000 0.0000 0.5000
N1 N -0.1921(7) 0.4518(6) 0.0458(5)
H1 H -0.192(10) 0.424(7) 0.097(6)
N2 N 0.0716(7) 0.3617(6) -0.0629(5)
H2 H 0.054(9) 0.387(7) -0.118(6)
N3 N 0.6485(7) 0.0826(6) 0.5083(5)
H3 H 0.590(9) 0.146(7) 0.505(6)
N4 N 0.4522(7) -0.0262(6) 0.6580(5)
H4 H 0.510(8) -0.097(7) 0.670(6)
O1 O 0.0695(6) 0.4100(5) 0.1428(4)
O2 O -0.1187(6) 0.3585(5) 0.2577(4)
O3 O -0.0918(6) 0.3752(6) 0.5583(5)
O4 O -0.1926(6) 0.3600(5) 0.4395(5)
H5 H -0.173(10) 0.355(8) 0.380(8)
O5 O 0.3352(6) 0.1519(4) 0.4690(4)
O6 O 0.4236(7) 0.2825(5) 0.4883(6)
O7 O 0.4187(7) 0.2631(5) 0.2219(4)
O8 O 0.4612(8) 0.4143(7) 0.2376(6)
H6 H 0.422(13) 0.463(10) 0.264(9)
C1 C -0.1885(8) 0.3700(7) -0.0095(5)
H13 H -0.2045 0.4104 -0.0792
C2 C -0.3048(8) 0.3031(7) 0.0395(6)
H14 H -0.2966 0.2687 0.1108
H15 H -0.4005 0.3534 0.0375
C3 C -0.2917(10) 0.2132(8) -0.0136(8)
H16 H -0.3642 0.1701 0.0230
H17 H -0.3116 0.2478 -0.0825
C4 C -0.1435(9) 0.1367(7) -0.0186(7)
H18 H -0.1371 0.0829 -0.0566
H19 H -0.1270 0.0959 0.0501
C5 C -0.0250(9) 0.2045(7) -0.0716(7)
H20 H 0.0711 0.1544 -0.0717
H21 H -0.0366 0.2401 -0.1421
C6 C -0.0373(8) 0.2923(7) -0.0164(6)
H22 H -0.0214 0.2536 0.0536
C7 C 0.2276(9) 0.2991(7) -0.0725(6)
H23 H 0.2449 0.2572 -0.1243
C8 C 0.2654(10) 0.2157(7) 0.0247(7)
H24 H 0.2017 0.1651 0.0474
H25 H 0.2536 0.2544 0.0766
H26 H 0.3648 0.1746 0.0122
C9 C 0.3268(8) 0.3830(7) -0.1135(6)
H27 H 0.4267 0.3414 -0.1289
H28 H 0.3002 0.4319 -0.1775
C10 C -0.3231(8) 0.5448(7) 0.0443(7)
H29 H -0.3242 0.5904 -0.0252
H30 H -0.4098 0.5149 0.0663
C11 C 0.6696(8) 0.0493(7) 0.6162(6)
H31 H 0.7292 -0.0274 0.6290
C12 C 0.7485(10) 0.1220(8) 0.6403(7)
H32 H 0.6959 0.1995 0.6229
H33 H 0.8456 0.1156 0.5992
C13 C 0.7598(11) 0.0870(9) 0.7532(7)
H34 H 0.8209 0.0121 0.7688
H35 H 0.8059 0.1370 0.7675
C14 C 0.6126(11) 0.0895(8) 0.8204(7)
H36 H 0.5546 0.1657 0.8098
H37 H 0.6243 0.0634 0.8917
C15 C 0.5337(10) 0.0164(7) 0.7971(6)
H38 H 0.4369 0.0232 0.8386
H39 H 0.5863 -0.0610 0.8154
C16 C 0.5204(8) 0.0482(6) 0.6845(6)
H40 H 0.4590 0.1241 0.6693
C17 C 0.3023(9) -0.0331(7) 0.7148(6)
H41 H 0.3104 -0.0684 0.7867
C18 C 0.1958(10) 0.0800(8) 0.7118(8)
H42 H 0.2352 0.1259 0.7360
H43 H 0.1044 0.0698 0.7548
H44 H 0.1808 0.1157 0.6428
C19 C 0.2471(10) -0.1101(8) 0.6771(6)
H45 H 0.3181 -0.1812 0.6836
H46 H 0.1575 -0.1237 0.7229
C20 C 0.7831(9) 0.0723(8) 0.4316(6)
H47 H 0.8435 0.1167 0.4389
H48 H 0.8372 -0.0051 0.4442
C21 C 0.1133(8) 0.3142(6) 0.3075(5)
H49 H 0.1708 0.2424 0.2938
C22 C 0.0147(8) 0.3650(7) 0.2309(6)
C23 C 0.0668(8) 0.2948(7) 0.4270(6)
H50 H 0.0861 0.2142 0.4579
C24 C -0.0790(9) 0.3483(7) 0.4785(6)
C25 C 0.1987(8) 0.3388(7) 0.4303(6)
H51 H 0.1695 0.4008 0.4637
C26 C 0.3279(9) 0.2493(7) 0.4681(6)
C27 C 0.2223(9) 0.3791(6) 0.3102(6)
H52 H 0.1831 0.4598 0.2884
C28 C 0.3756(9) 0.3454(8) 0.2524(6)
Ni2_2 Ni -0.5000 1.0000 -0.5000
N1A N 0.1921(7) 0.5482(6) -0.0458(5)
H1A H 0.192(10) 0.576(7) -0.097(6)
N2A N -0.0716(7) 0.6383(6) 0.0629(5)
H2A H -0.054(9) 0.613(7) 0.118(6)
N3A N 0.3515(7) -0.0826(6) 0.4917(5)
H3A H 0.410(9) -0.146(7) 0.495(6)
N4A N 0.5478(7) 0.0262(6) 0.3420(5)
H4A H 0.490(8) 0.097(7) 0.330(6)
O1A O -0.0695(6) 0.5900(5) -0.1428(4)
O2A O 0.1187(6) 0.6415(5) -0.2577(4)
O3A O 0.0918(6) 0.6248(6) -0.5583(5)
O4A O 0.1926(6) 0.6400(5) -0.4395(5)
H5A H 0.173(10) 0.645(8) -0.380(8)
O5A O -0.3352(6) 0.8481(4) -0.4690(4)
O5A_2 O 0.6648(6) -0.1519(4) 0.5310(4)
O6A O -0.4236(7) 0.7175(5) -0.4883(6)
O7A O -0.4187(7) 0.7369(5) -0.2219(4)
O8A O -0.4612(8) 0.5857(7) -0.2376(6)
H6A H -0.422(13) 0.537(10) -0.264(9)
C1A C 0.1885(8) 0.6300(7) 0.0095(5)
H13A H 0.2045 0.5896 0.0792
C2A C 0.3048(8) 0.6969(7) -0.0395(6)
H14A H 0.2966 0.7313 -0.1108
H15A H 0.4005 0.6466 -0.0375
C3A C 0.2917(10) 0.7868(8) 0.0136(8)
H16A H 0.3642 0.8299 -0.0230
H17A H 0.3116 0.7522 0.0825
C4A C 0.1435(9) 0.8633(7) 0.0186(7)
H18A H 0.1371 0.9171 0.0566
H19A H 0.1270 0.9041 -0.0501
C5A C 0.0250(9) 0.7955(7) 0.0716(7)
H20A H -0.0711 0.8456 0.0717
H21A H 0.0366 0.7599 0.1421
C6A C 0.0373(8) 0.7077(7) 0.0164(6)
H22A H 0.0214 0.7464 -0.0536
C7A C -0.2276(9) 0.7009(7) 0.0725(6)
H23A H -0.2449 0.7428 0.1243
C8A C -0.2654(10) 0.7843(7) -0.0247(7)
H24A H -0.2017 0.8349 -0.0474
H25A H -0.2536 0.7456 -0.0766
H26A H -0.3648 0.8254 -0.0122
C9A C -0.3268(8) 0.6170(7) 0.1135(6)
H27A H -0.4267 0.6586 0.1289
H28A H -0.3002 0.5681 0.1775
C10A C 0.3231(8) 0.4552(7) -0.0443(7)
H29A H 0.3242 0.4096 0.0252
H30A H 0.4098 0.4851 -0.0663
C11A C 0.3304(8) -0.0493(7) 0.3838(6)
H31A H 0.2708 0.0274 0.3710
C12A C 0.2515(10) -0.1220(8) 0.3597(7)
H32A H 0.3041 -0.1995 0.3771
H33A H 0.1544 -0.1156 0.4008
C13A C 0.2402(11) -0.0870(9) 0.2468(7)
H34A H 0.1791 -0.0121 0.2312
H35A H 0.1941 -0.1370 0.2325
C14A C 0.3874(11) -0.0895(8) 0.1796(7)
H36A H 0.4454 -0.1657 0.1902
H37A H 0.3757 -0.0634 0.1083
C15A C 0.4663(10) -0.0164(7) 0.2029(6)
H38A H 0.5631 -0.0232 0.1614
H39A H 0.4137 0.0610 0.1846
C16A C 0.4796(8) -0.0482(6) 0.3155(6)
H40A H 0.5410 -0.1241 0.3307
C17A C 0.6977(9) 0.0331(7) 0.2852(6)
H41A H 0.6896 0.0684 0.2133
C18A C 0.8042(10) -0.0800(8) 0.2882(8)
H42A H 0.7648 -0.1259 0.2640
H43A H 0.8956 -0.0698 0.2452
H44A H 0.8192 -0.1157 0.3572
C19A C 0.7529(10) 0.1101(8) 0.3229(6)
H45A H 0.6819 0.1812 0.3164
H46A H 0.8425 0.1237 0.2771
C20A C 0.2169(9) -0.0723(8) 0.5684(6)
H47A H 0.1565 -0.1167 0.5611
H48A H 0.1628 0.0051 0.5558
C21A C -0.1133(8) 0.6858(6) -0.3075(5)
H49A H -0.1708 0.7576 -0.2938
C22A C -0.0147(8) 0.6350(7) -0.2309(6)
C23A C -0.0668(8) 0.7052(7) -0.4270(6)
H50A H -0.0861 0.7858 -0.4579
C24A C 0.0790(9) 0.6517(7) -0.4785(6)
C25A C -0.1987(8) 0.6612(7) -0.4303(6)
H51A H -0.1695 0.5992 -0.4637
C26A C -0.3279(9) 0.7507(7) -0.4681(6)
C27A C -0.2223(9) 0.6209(6) -0.3102(6)
H52A H -0.1831 0.5402 -0.2884
C28A C -0.3756(9) 0.6546(8) -0.2524(6)
O9 O 0.0797(9) 0.4064(8) 0.6937(6)
H7 H 0.156(14) 0.366(11) 0.686(10)
H8 H 0.046(13) 0.389(11) 0.650(9)
O10 O 0.3911(9) 0.4212(7) 0.6058(7)
H9 H 0.380(14) 0.480(11) 0.565(10)
H10 H 0.404(12) 0.371(10) 0.563(9)
O11 O 0.3681(8) 0.5855(8) 0.3149(8)
H11 H 0.311(14) 0.602(13) 0.330(12)
H12 H 0.442(12) 0.591(9) 0.344(8)
loop_
_geom_bond_atom_site_label_1
_geom_bond_atom_site_label_2
_geom_bond_site_symmetry_1
_geom_bond_site_symmetry_2
Ni1 N1 1_555 1_555
Ni2 N3 1_555 1_555
N1 H1 1_555 1_555
N2 Ni1 1_555 1_555
H2 N2 1_555 1_555
N3 H3 1_555 1_555
N4 Ni2 1_555 1_555
H4 N4 1_555 1_555
O1 Ni1 1_555 1_555
O2 C22 1_555 1_555
O3 C24 1_555 1_555
O4 H5 1_555 1_555
O5 Ni2 1_555 1_555
O6 C26 1_555 1_555
O7 C28 1_555 1_555
O8 H6 1_555 1_555
O9 H7 1_555 1_555
H8 O9 1_555 1_555
O10 H9 1_555 1_555
H10 O10 1_555 1_555
O11 H11 1_555 1_555
H12 O11 1_555 1_555
C1 N1 1_555 1_555
H13 C1 1_555 1_555
C2 C1 1_555 1_555
H14 C2 1_555 1_555
H15 C2 1_555 1_555
C3 C2 1_555 1_555
H16 C3 1_555 1_555
H17 C3 1_555 1_555
C4 C3 1_555 1_555
H18 C4 1_555 1_555
H19 C4 1_555 1_555
C5 C4 1_555 1_555
H20 C5 1_555 1_555
H21 C5 1_555 1_555
C6 N2 1_555 1_555
H22 C6 1_555 1_555
C7 N2 1_555 1_555
H23 C7 1_555 1_555
C8 C7 1_555 1_555
H24 C8 1_555 1_555
H25 C8 1_555 1_555
H26 C8 1_555 1_555
C9 C7 1_555 1_555
H27 C9 1_555 1_555
H28 C9 1_555 1_555
C10 N1 1_555 1_555
H29 C10 1_555 1_555
H30 C10 1_555 1_555
C11 N3 1_555 1_555
H31 C11 1_555 1_555
C12 C11 1_555 1_555
H32 C12 1_555 1_555
H33 C12 1_555 1_555
C13 C12 1_555 1_555
H34 C13 1_555 1_555
H35 C13 1_555 1_555
C14 C13 1_555 1_555
H36 C14 1_555 1_555
H37 C14 1_555 1_555
C15 C14 1_555 1_555
H38 C15 1_555 1_555
H39 C15 1_555 1_555
C16 N4 1_555 1_555
H40 C16 1_555 1_555
C17 N4 1_555 1_555
H41 C17 1_555 1_555
C18 C17 1_555 1_555
H42 C18 1_555 1_555
H43 C18 1_555 1_555
H44 C18 1_555 1_555
C19 C17 1_555 1_555
H45 C19 1_555 1_555
H46 C19 1_555 1_555
C20 N3 1_555 1_555
H47 C20 1_555 1_555
H48 C20 1_555 1_555
C21 H49 1_555 1_555
C22 O1 1_555 1_555
C23 C21 1_555 1_555
H50 C23 1_555 1_555
C24 O4 1_555 1_555
C25 C23 1_555 1_555
H51 C25 1_555 1_555
C26 O5 1_555 1_555
C27 C21 1_555 1_555
H52 C27 1_555 1_555
C28 O8 1_555 1_555
Ni2_2 O5A 1_555 1_555
N1A Ni1 1_555 1_555
H1A N1A 1_555 1_555
N2A Ni1 1_555 1_555
H2A N2A 1_555 1_555
N3A Ni2 1_555 1_555
H3A N3A 1_555 1_555
N4A Ni2 1_555 1_555
H4A N4A 1_555 1_555
O1A Ni1 1_555 1_555
O2A C22A 1_555 1_555
O3A C24A 1_555 1_555
O4A H5A 1_555 1_555
O5A C26A 1_555 1_555
O5A_2 Ni2 1_555 1_555
O6A C26A 1_555 1_555
O7A C28A 1_555 1_555
O8A H6A 1_555 1_555
C1A N1A 1_555 1_555
H13A C1A 1_555 1_555
C2A C1A 1_555 1_555
H14A C2A 1_555 1_555
H15A C2A 1_555 1_555
C3A C2A 1_555 1_555
H16A C3A 1_555 1_555
H17A C3A 1_555 1_555
C4A C3A 1_555 1_555
H18A C4A 1_555 1_555
H19A C4A 1_555 1_555
C5A C4A 1_555 1_555
H20A C5A 1_555 1_555
H21A C5A 1_555 1_555
C6A N2A 1_555 1_555
H22A C6A 1_555 1_555
C7A N2A 1_555 1_555
H23A C7A 1_555 1_555
C8A C7A 1_555 1_555
H24A C8A 1_555 1_555
H25A C8A 1_555 1_555
H26A C8A 1_555 1_555
C9A C10 1_555 1_555
H27A C9A 1_555 1_555
H28A C9A 1_555 1_555
C10A C9 1_555 1_555
H29A C10A 1_555 1_555
H30A C10A 1_555 1_555
C11A N3A 1_555 1_555
H31A C11A 1_555 1_555
C12A C11A 1_555 1_555
H32A C12A 1_555 1_555
H33A C12A 1_555 1_555
C13A C12A 1_555 1_555
H34A C13A 1_555 1_555
H35A C13A 1_555 1_555
C14A C13A 1_555 1_555
H36A C14A 1_555 1_555
H37A C14A 1_555 1_555
C15A C14A 1_555 1_555
H38A C15A 1_555 1_555
H39A C15A 1_555 1_555
C16A N4A 1_555 1_555
H40A C16A 1_555 1_555
C17A N4A 1_555 1_555
H41A C17A 1_555 1_555
C18A C17A 1_555 1_555
H42A C18A 1_555 1_555
H43A C18A 1_555 1_555
H44A C18A 1_555 1_555
C19A C20 1_555 1_555
H45A C19A 1_555 1_555
H46A C19A 1_555 1_555
C20A C19 1_555 1_555
H47A C20A 1_555 1_555
H48A C20A 1_555 1_555
C21A H49A 1_555 1_555
C22A O1A 1_555 1_555
C23A C21A 1_555 1_555
H50A C23A 1_555 1_555
C24A O4A 1_555 1_555
C25A C23A 1_555 1_555
H51A C25A 1_555 1_555
C26A C25A 1_555 1_555
C27A C21A 1_555 1_555
H52A C27A 1_555 1_555
C28A O8A 1_555 1_555
C1 C6 1_555 1_555
C5 C6 1_555 1_555
C11 C16 1_555 1_555
C15 C16 1_555 1_555
C21 C22 1_555 1_555
C23 C24 1_555 1_555
C25 C26 1_555 1_555
C25 C27 1_555 1_555
C27 C28 1_555 1_555
N1A C10A 1_555 1_555
N3A C20A 1_555 1_555
C1A C6A 1_555 1_555
C5A C6A 1_555 1_555
C7A C9A 1_555 1_555
C11A C16A 1_555 1_555
C15A C16A 1_555 1_555
C17A C19A 1_555 1_555
C21A C22A 1_555 1_555
C23A C24A 1_555 1_555
C25A C27A 1_555 1_555
C27A C28A 1_555 1_555

#END
