
#######################################################################
#
#                 Cambridge Crystallographic Data Centre
#                                CCDC 
#
#######################################################################
#
# If this CIF has been generated from an entry in the Cambridge 
# Structural Database, then it will include bibliographic, chemical, 
# crystal, experimental, refinement or atomic coordinate data resulting 
# from the CCDC's data processing and validation procedures.
#
#######################################################################

data_ECUXAD
_symmetry_cell_setting           monoclinic
_symmetry_space_group_name_H-M   'C 2/c'
_symmetry_Int_Tables_number      15
_space_group_name_Hall           '-C 2yn'
loop_
_symmetry_equiv_pos_site_id
_symmetry_equiv_pos_as_xyz
1 x,y,z
2 -x,y,1/2-z
3 1/2+x,1/2+y,z
4 1/2-x,1/2+y,1/2-z
5 -x,-y,-z
6 x,-y,1/2+z
7 1/2-x,1/2-y,-z
8 1/2+x,1/2-y,1/2+z
_cell_length_a                   22.469(1)
_cell_length_b                   8.845(1)
_cell_length_c                   17.743(1)
_cell_angle_alpha                90
_cell_angle_beta                 104.900(5)
_cell_angle_gamma                90
_cell_volume                     3407.65
loop_
_atom_site_label
_atom_site_type_symbol
_atom_site_fract_x
_atom_site_fract_y
_atom_site_fract_z
Cd1 Cd 1.0000 0.0000 0.5000
N1 N 0.59577(12) 0.3971(3) 0.57173(16)
O1 O 1.05791(11) 0.2171(3) 0.50497(15)
N2 N 0.96896(12) 0.0848(3) 0.60815(15)
O2 O 1.16295(11) 0.3911(3) 0.56180(14)
C1 C 0.94581(17) -0.0079(4) 0.6527(2)
H1 H 0.9492 -0.1117 0.6465
C2 C 0.65701(15) 0.2384(4) 0.6700(2)
H2 H 0.6586 0.1731 0.7116
C3 C 0.93618(15) 0.2927(4) 0.6729(2)
H3 H 0.9340 0.3970 0.6784
C4 C 0.60179(15) 0.2997(4) 0.6303(2)
H4 H 0.5666 0.2715 0.6451
O3 O 1.02623(13) 0.3791(3) 0.40712(18)
C5 C 1.10889(17) 0.4525(4) 0.5103(2)
H5 H 1.1212 0.5103 0.4703
H6 H 1.0902 0.5225 0.5396
C6 C 1.06013(16) 0.3390(4) 0.4702(2)
C7 C 0.91167(14) 0.1981(4) 0.71910(18)
C8 C 1.23940(16) 0.2166(5) 0.4225(2)
H7 H 1.2319 0.1943 0.3697
C9 C 1.20470(16) 0.3223(4) 0.5283(2)
C10 C 1.19418(16) 0.2879(5) 0.4493(2)
H8 H 1.1568 0.3129 0.4147
C11 C 0.70424(16) 0.3738(5) 0.5884(3)
H9 H 0.7387 0.4018 0.5718
C12 C 0.91682(17) 0.0450(5) 0.7081(2)
H10 H 0.9009 -0.0231 0.7377
C13 C 0.71031(15) 0.2736(4) 0.6484(2)
C14 C 0.96391(14) 0.2325(4) 0.61854(19)
H11 H 0.9798 0.2985 0.5878
C15 C 0.81600(15) 0.3260(4) 0.7362(2)
H12 H 0.7978 0.3703 0.7750
H13 H 0.8215 0.4061 0.7012
C16 C 0.87914(15) 0.2600(5) 0.7769(2)
H14 H 0.9043 0.3382 0.8079
H15 H 0.8739 0.1798 0.8119
C17 C 0.77192(15) 0.2078(5) 0.6898(3)
H16 H 0.7905 0.1620 0.6516
H17 H 0.7658 0.1289 0.7250
C18 C 0.64750(17) 0.4340(5) 0.5520(3)
H18 H 0.6451 0.5034 0.5119
Cd1B Cd 0.5000 0.5000 0.5000
Cd1B_2 Cd 1.5000 -0.5000 0.5000
Cd1B_3 Cd 1.5000 0.5000 0.5000
N1D N 1.40423(12) -0.3971(3) 0.42827(16)
N1B N 1.09577(12) -0.1029(3) 0.57173(16)
N1F N 0.90423(12) 0.1029(3) 0.42827(16)
O1F O 1.44209(11) 0.2829(3) 0.49503(15)
O1D O 0.94209(11) -0.2171(3) 0.49503(15)
N2D N 1.03104(12) -0.0848(3) 0.39185(15)
O2F O 1.33705(11) 0.1089(3) 0.43820(14)
C1D C 1.05419(17) 0.0079(4) 0.3473(2)
H1D H 1.0508 0.1117 0.3535
C2D C 1.34299(15) -0.2384(4) 0.3300(2)
H2D H 1.3414 -0.1731 0.2884
C3D C 1.06382(15) -0.2927(4) 0.3271(2)
H3D H 1.0660 -0.3970 0.3216
C4D C 1.39821(15) -0.2997(4) 0.3697(2)
H4D H 1.4334 -0.2715 0.3549
O3F O 1.47377(13) 0.1209(3) 0.59288(18)
C5F C 1.39111(17) 0.0475(4) 0.4897(2)
H5F H 1.3788 -0.0103 0.5297
H6F H 1.4098 -0.0225 0.4604
C6F C 1.43987(16) 0.1610(4) 0.5298(2)
C7D C 1.08833(14) -0.1981(4) 0.28090(18)
C8F C 1.26060(16) 0.2834(5) 0.5775(2)
H7F H 1.2681 0.3057 0.6303
C9F C 1.29530(16) 0.1777(4) 0.4717(2)
C10F C 1.30582(16) 0.2121(5) 0.5507(2)
H8F H 1.3432 0.1871 0.5853
C11D C 1.29576(16) -0.3738(5) 0.4116(3)
H9D H 1.2613 -0.4018 0.4282
C12D C 1.08318(17) -0.0450(5) 0.2919(2)
H10D H 1.0991 0.0231 0.2623
C13D C 1.28969(15) -0.2736(4) 0.3516(2)
C14D C 1.03609(14) -0.2325(4) 0.38146(19)
H11D H 1.0202 -0.2985 0.4122
C15D C 1.18400(15) -0.3260(4) 0.2638(2)
H12D H 1.2022 -0.3703 0.2250
H13D H 1.1785 -0.4061 0.2988
C16D C 1.12086(15) -0.2600(5) 0.2231(2)
H14D H 1.0957 -0.3382 0.1921
H15D H 1.1261 -0.1798 0.1881
C17D C 1.22808(15) -0.2078(5) 0.3102(3)
H16D H 1.2095 -0.1620 0.3484
H17D H 1.2342 -0.1289 0.2750
C18D C 1.35250(17) -0.4340(5) 0.4480(3)
H18D H 1.3549 -0.5034 0.4881
O4 O 0.5417(3) 0.1503(9) 0.7589(5)
loop_
_geom_bond_atom_site_label_1
_geom_bond_atom_site_label_2
_geom_bond_site_symmetry_1
_geom_bond_site_symmetry_2
Cd1 O1 1_555 1_555
N1 C4 1_555 1_555
O1 C6 1_555 1_555
N2 Cd1 1_555 1_555
O2 C5 1_555 1_555
C1 N2 1_555 1_555
H1 C1 1_555 1_555
C2 H2 1_555 1_555
C3 H3 1_555 1_555
C4 C2 1_555 1_555
H4 C4 1_555 1_555
O3 C6 1_555 1_555
C5 H5 1_555 1_555
H6 C5 1_555 1_555
C6 C5 1_555 1_555
C7 C3 1_555 1_555
C8 H7 1_555 1_555
C9 O2 1_555 1_555
C10 C8 1_555 1_555
H8 C10 1_555 1_555
C11 H9 1_555 1_555
C12 C1 1_555 1_555
H10 C12 1_555 1_555
C13 C2 1_555 1_555
C14 N2 1_555 1_555
H11 C14 1_555 1_555
C15 H12 1_555 1_555
H13 C15 1_555 1_555
C16 C7 1_555 1_555
H14 C16 1_555 1_555
H15 C16 1_555 1_555
C17 C13 1_555 1_555
H16 C17 1_555 1_555
H17 C17 1_555 1_555
C18 N1 1_555 1_555
H18 C18 1_555 1_555
Cd1B N1 1_555 1_555
Cd1B_2 N1D 1_555 1_555
Cd1B_3 O1F 1_555 1_555
N1D C4D 1_555 1_555
N1B Cd1 1_555 1_555
N1F Cd1 1_555 1_555
O1F C6F 1_555 1_555
O1D Cd1 1_555 1_555
N2D Cd1 1_555 1_555
O2F C5F 1_555 1_555
C1D N2D 1_555 1_555
H1D C1D 1_555 1_555
C2D H2D 1_555 1_555
C3D H3D 1_555 1_555
C4D C2D 1_555 1_555
H4D C4D 1_555 1_555
O3F C6F 1_555 1_555
C5F H5F 1_555 1_555
H6F C5F 1_555 1_555
C6F C5F 1_555 1_555
C7D C3D 1_555 1_555
C8F C9 1_555 1_555
H7F C8F 1_555 1_555
C9F C8 1_555 1_555
C10F C8F 1_555 1_555
H8F C10F 1_555 1_555
C11D H9D 1_555 1_555
C12D C1D 1_555 1_555
H10D C12D 1_555 1_555
C13D C2D 1_555 1_555
C14D N2D 1_555 1_555
H11D C14D 1_555 1_555
C15D H12D 1_555 1_555
H13D C15D 1_555 1_555
C16D C7D 1_555 1_555
H14D C16D 1_555 1_555
H15D C16D 1_555 1_555
C17D C13D 1_555 1_555
H16D C17D 1_555 1_555
H17D C17D 1_555 1_555
C18D N1D 1_555 1_555
H18D C18D 1_555 1_555
C3 C14 1_555 1_555
C7 C12 1_555 1_555
C9 C10 1_555 1_555
C11 C13 1_555 1_555
C11 C18 1_555 1_555
C15 C16 1_555 1_555
C15 C17 1_555 1_555
O2F C9F 1_555 1_555
C3D C14D 1_555 1_555
C7D C12D 1_555 1_555
C9F C10F 1_555 1_555
C11D C13D 1_555 1_555
C11D C18D 1_555 1_555
C15D C16D 1_555 1_555
C15D C17D 1_555 1_555

#END
