
#######################################################################
#
#                 Cambridge Crystallographic Data Centre
#                                CCDC 
#
#######################################################################
#
# If this CIF has been generated from an entry in the Cambridge 
# Structural Database, then it will include bibliographic, chemical, 
# crystal, experimental, refinement or atomic coordinate data resulting 
# from the CCDC's data processing and validation procedures.
#
#######################################################################

data_EDACOD
_symmetry_cell_setting           monoclinic
_symmetry_space_group_name_H-M   'P 21/c'
_symmetry_Int_Tables_number      14
_space_group_name_Hall           '-P 2ybc'
loop_
_symmetry_equiv_pos_site_id
_symmetry_equiv_pos_as_xyz
1 x,y,z
2 -x,1/2+y,1/2-z
3 -x,-y,-z
4 x,1/2-y,1/2+z
_cell_length_a                   13.958(3)
_cell_length_b                   11.216(2)
_cell_length_c                   12.780(3)
_cell_angle_alpha                90
_cell_angle_beta                 102.63(3)
_cell_angle_gamma                90
_cell_volume                     1952.33
loop_
_atom_site_label
_atom_site_type_symbol
_atom_site_fract_x
_atom_site_fract_y
_atom_site_fract_z
Tb1 Tb 1.270462(13) 0.296412(15) 1.149257(15)
O1 O 1.3681(2) 0.3440(3) 1.3235(3)
O2 O 1.1278(2) 0.1901(3) 1.0663(3)
O3 O 1.3399(2) 0.1020(2) 1.1337(2)
O4 O 1.4648(2) -0.0198(3) 1.1243(3)
O5 O 1.3520(2) 0.4922(2) 1.1382(3)
O6 O 1.4810(2) 0.6029(3) 1.1262(3)
O7 O 1.2752(2) 0.2772(2) 0.9559(2)
O8 O 1.2203(2) 0.3274(2) 0.7828(2)
O9 O 1.1596(2) 0.4250(2) 1.2212(2)
O10 O 1.0835(2) 0.6015(3) 1.2180(3)
H1 H 1.0849 0.5846 1.2808
N1 N 1.4483(2) 0.2924(3) 1.1333(3)
N2 N 1.1698(2) 0.4438(3) 1.0192(3)
C1 C 1.4275(3) 0.0812(4) 1.1290(3)
C2 C 1.4936(3) 0.1883(4) 1.1313(4)
C3 C 1.5931(3) 0.1810(4) 1.1323(5)
H2 H 1.6233 0.1074 1.1300
C4 C 1.6460(4) 0.2850(5) 1.1367(5)
H3 H 1.7132 0.2822 1.1400
C5 C 1.5994(4) 0.3938(5) 1.1362(5)
H4 H 1.6338 0.4649 1.1370
C6 C 1.4998(3) 0.3936(4) 1.1347(4)
C7 C 1.4382(3) 0.5022(4) 1.1334(4)
C8 C 1.2278(3) 0.3422(3) 0.8812(3)
C9 C 1.1746(3) 0.4471(3) 0.9165(3)
C10 C 1.1388(3) 0.5424(3) 0.8495(3)
H5 H 1.1411 0.5410 0.7773
C11 C 1.0998(3) 0.6391(4) 0.8930(4)
H6 H 1.0777 0.7055 0.8510
C12 C 1.0941(3) 0.6357(4) 0.9995(3)
H7 H 1.0676 0.6995 1.0300
C13 C 1.1285(3) 0.5355(3) 1.0605(3)
C14 C 1.1236(3) 0.5208(4) 1.1764(3)
H16 H 1.420(2) 0.383(4) 1.337(4)
H17 H 1.346(4) 0.314(5) 1.374(3)
H18 H 1.115(3) 0.201(4) 0.9992(17)
H19 H 1.093(4) 0.141(4) 1.091(5)
Tb1C Tb 1.270462(13) 0.203588(15) 0.649257(15)
O8C O 1.2203(2) 0.1726(2) 1.2828(2)
O11 O 1.0425(2) 0.1943(3) 0.8515(2)
H8 H 0.9921 0.1496 0.8395
H9 H 1.0255 0.2653 0.8327
O12 O 1.0284(3) 0.5571(3) 1.4014(3)
H10 H 0.9944 0.5041 1.4241
H11 H 1.0691 0.5870 1.4541
O13 O 1.3685(3) 0.7760(3) 1.1132(4)
H12 H 1.4282 0.7949 1.1174
H13 H 1.3345 0.7972 1.0525
O14 O 1.1966(3) -0.0921(3) 1.0869(4)
H14 H 1.2498 -0.0962 1.1342
H15 H 1.1489 -0.0810 1.1172
loop_
_geom_bond_atom_site_label_1
_geom_bond_atom_site_label_2
_geom_bond_site_symmetry_1
_geom_bond_site_symmetry_2
Tb1 O1 1_555 1_555
O1 H16 1_555 1_555
O2 Tb1 1_555 1_555
O3 Tb1 1_555 1_555
O4 C1 1_555 1_555
O5 Tb1 1_555 1_555
O6 C7 1_555 1_555
O7 Tb1 1_555 1_555
O8 C8 1_555 1_555
O9 Tb1 1_555 1_555
O10 H1 1_555 1_555
N1 Tb1 1_555 1_555
N2 Tb1 1_555 1_555
C1 O3 1_555 1_555
C2 N1 1_555 1_555
C3 C2 1_555 1_555
H2 C3 1_555 1_555
C4 C3 1_555 1_555
H3 C4 1_555 1_555
C5 C4 1_555 1_555
H4 C5 1_555 1_555
C6 N1 1_555 1_555
C7 O5 1_555 1_555
C8 O7 1_555 1_555
C9 N2 1_555 1_555
C10 C9 1_555 1_555
H5 C10 1_555 1_555
C11 C10 1_555 1_555
H6 C11 1_555 1_555
C12 C11 1_555 1_555
H7 C12 1_555 1_555
C13 N2 1_555 1_555
C14 O9 1_555 1_555
O11 H8 1_555 1_555
H9 O11 1_555 1_555
O12 H10 1_555 1_555
H11 O12 1_555 1_555
O13 H12 1_555 1_555
H13 O13 1_555 1_555
O14 H14 1_555 1_555
H15 O14 1_555 1_555
H17 O1 1_555 1_555
H18 O2 1_555 1_555
H19 O2 1_555 1_555
Tb1C O8 1_555 1_555
O8C Tb1 1_555 1_555
O10 C14 1_555 1_555
C1 C2 1_555 1_555
C5 C6 1_555 1_555
C6 C7 1_555 1_555
C8 C9 1_555 1_555
C12 C13 1_555 1_555
C13 C14 1_555 1_555

#END
