
#######################################################################
#
#                 Cambridge Crystallographic Data Centre
#                                CCDC 
#
#######################################################################
#
# If this CIF has been generated from an entry in the Cambridge 
# Structural Database, then it will include bibliographic, chemical, 
# crystal, experimental, refinement or atomic coordinate data resulting 
# from the CCDC's data processing and validation procedures.
#
#######################################################################

data_EDAREG
_symmetry_cell_setting           monoclinic
_symmetry_space_group_name_H-M   'P 21/n'
_symmetry_Int_Tables_number      14
_space_group_name_Hall           '-P 2yn'
loop_
_symmetry_equiv_pos_site_id
_symmetry_equiv_pos_as_xyz
1 x,y,z
2 1/2+x,1/2-y,1/2+z
3 -x,-y,-z
4 1/2-x,1/2+y,1/2-z
_cell_length_a                   10.8346(6)
_cell_length_b                   6.7519(3)
_cell_length_c                   24.3630(10)
_cell_angle_alpha                90
_cell_angle_beta                 101.781(2)
_cell_angle_gamma                90
_cell_volume                     1744.71
loop_
_atom_site_label
_atom_site_type_symbol
_atom_site_fract_x
_atom_site_fract_y
_atom_site_fract_z
Ca1 Ca 0.83850(7) 0.14640(10) 0.24049(2)
O1 O 0.9765(2) 0.3160(3) 0.32587(7)
O2 O 0.9639(2) -0.0103(3) 0.32757(8)
O3 O 0.6704(2) -0.0174(3) 0.29188(8)
O4 O 0.6888(2) 0.3081(3) 0.28969(7)
O5 O 1.0314(2) 0.1238(3) 0.20991(7)
O6 O 0.6676(2) 0.1483(3) 0.16009(6)
N1 N 1.2400(3) 0.1273(4) 0.20691(9)
C1 C 1.0629(3) 0.1560(5) 0.41211(10)
C2 C 1.1061(4) -0.0208(5) 0.43910(10)
C3 C 1.1687(4) -0.0177(5) 0.49560(10)
C4 C 1.1832(3) 0.1594(6) 0.52470(10)
C5 C 1.1396(4) 0.3348(6) 0.49790(10)
C6 C 1.0793(3) 0.3314(5) 0.44220(10)
C7 C 0.9961(3) 0.1491(6) 0.35170(10)
C8 C 0.5945(3) 0.1718(5) 0.36180(10)
C9 C 0.5202(4) 0.0213(5) 0.37590(10)
C10 C 0.4601(4) 0.0447(5) 0.42030(10)
C11 C 0.4787(4) 0.2190(5) 0.45230(10)
C12 C 0.5566(4) 0.3654(6) 0.44020(10)
C13 C 0.6162(3) 0.3430(5) 0.39430(10)
C14 C 0.6551(3) 0.1522(5) 0.31112(10)
C15 C 1.1439(3) 0.1456(5) 0.23220(10)
C16 C 1.3699(3) 0.1573(6) 0.23540(10)
C17 C 1.2185(4) 0.0760(5) 0.14730(10)
H1 H 1.0941 -0.1426 0.4192
H2 H 1.1994 -0.1391 0.5135
H3 H 1.2238 0.1572 0.5629
H4 H 1.1514 0.4542 0.5185
H5 H 1.0494 0.4526 0.4243
H6 H 0.6112 0.2391 0.1615
H7 H 0.6224 0.0568 0.1611
H8 H 0.5102 -0.0987 0.3549
H9 H 0.4057 -0.0564 0.4291
H10 H 0.4363 0.2347 0.4825
H11 H 0.5728 0.4792 0.4632
H12 H 0.6689 0.4436 0.3854
H13 H 1.1623 0.1782 0.2711
H14 H 1.4194 0.0464 0.2327
H15 H 1.4027 0.2707 0.2196
H16 H 1.3722 0.1866 0.2745
H17 H 1.2443 0.1803 0.1279
H18 H 1.1331 0.0442 0.1349
H19 H 1.2689 -0.0406 0.1441
O3C O 0.8296(2) 0.4826(3) 0.20812(8)
O4C O 0.8112(2) -0.1919(3) 0.21031(7)
Ca1C Ca 0.66150(7) -0.35360(10) 0.25951(2)
Ca1C_2 Ca 0.66150(7) 0.64640(10) 0.25951(2)
loop_
_geom_bond_atom_site_label_1
_geom_bond_atom_site_label_2
_geom_bond_site_symmetry_1
_geom_bond_site_symmetry_2
Ca1 O1 1_555 1_555
O1 C7 1_555 1_555
O2 Ca1 1_555 1_555
O3 Ca1 1_555 1_555
O4 Ca1 1_555 1_555
O5 Ca1 1_555 1_555
O6 Ca1 1_555 1_555
N1 C15 1_555 1_555
C1 C2 1_555 1_555
C2 C3 1_555 1_555
C3 C4 1_555 1_555
C4 C5 1_555 1_555
C5 C6 1_555 1_555
C6 C1 1_555 1_555
C7 O2 1_555 1_555
C8 C9 1_555 1_555
C9 C10 1_555 1_555
C10 C11 1_555 1_555
C11 C12 1_555 1_555
C12 C13 1_555 1_555
C13 C8 1_555 1_555
C14 O3 1_555 1_555
C15 O5 1_555 1_555
C16 N1 1_555 1_555
C17 N1 1_555 1_555
H1 C2 1_555 1_555
H2 C3 1_555 1_555
H3 C4 1_555 1_555
H4 C5 1_555 1_555
H5 C6 1_555 1_555
H6 O6 1_555 1_555
H7 O6 1_555 1_555
H8 C9 1_555 1_555
H9 C10 1_555 1_555
H10 C11 1_555 1_555
H11 C12 1_555 1_555
H12 C13 1_555 1_555
H13 C15 1_555 1_555
H14 C16 1_555 1_555
H15 C16 1_555 1_555
H16 C16 1_555 1_555
H17 C17 1_555 1_555
H18 C17 1_555 1_555
H19 C17 1_555 1_555
O3C Ca1 1_555 1_555
O4C Ca1 1_555 1_555
Ca1C O3 1_555 1_555
Ca1C_2 O4 1_555 1_555
O4 C14 1_555 1_555
C1 C7 1_555 1_555
C8 C14 1_555 1_555
O3C Ca1C_2 1_555 1_555
O4C Ca1C 1_555 1_555

#END
