
#######################################################################
#
#                 Cambridge Crystallographic Data Centre
#                                CCDC 
#
#######################################################################
#
# If this CIF has been generated from an entry in the Cambridge 
# Structural Database, then it will include bibliographic, chemical, 
# crystal, experimental, refinement or atomic coordinate data resulting 
# from the CCDC's data processing and validation procedures.
#
#######################################################################

data_EDASIM
_symmetry_cell_setting           monoclinic
_symmetry_space_group_name_H-M   'C 2/c'
_symmetry_Int_Tables_number      15
_space_group_name_Hall           '-C 2yn'
loop_
_symmetry_equiv_pos_site_id
_symmetry_equiv_pos_as_xyz
1 x,y,z
2 1/2+x,1/2+y,z
3 -x,y,1/2-z
4 1/2-x,1/2+y,1/2-z
5 -x,-y,-z
6 1/2-x,1/2-y,-z
7 x,-y,1/2+z
8 1/2+x,1/2-y,1/2+z
_cell_length_a                   15.5339(12)
_cell_length_b                   7.8160(7)
_cell_length_c                   16.9831(12)
_cell_angle_alpha                90
_cell_angle_beta                 99.674(3)
_cell_angle_gamma                90
_cell_volume                     2032.65
loop_
_atom_site_label
_atom_site_type_symbol
_atom_site_fract_x
_atom_site_fract_y
_atom_site_fract_z
Cu1 Cu 0.5000 0.09676(4) 0.7500
F1 F 0.39117(8) 0.16309(17) 0.98649(6)
F2 F 0.40996(8) -0.10966(17) 0.97725(6)
F3 F 0.28051(8) -0.00229(18) 0.95031(6)
F4 F 0.16463(8) -0.0398(2) 0.67977(8)
F5 F 0.25447(8) -0.13519(16) 0.60663(6)
F6 F 0.21944(8) 0.13243(18) 0.60150(8)
O1 O 0.45379(8) 0.08882(17) 0.85067(8)
O2 O 0.38197(9) 0.08373(17) 0.68776(8)
N1 N 0.5000 0.4302(2) 0.7500
N2 N 0.5000 0.7887(2) 0.7500
C1 C 0.52914(11) 0.5202(2) 0.81702(11)
C2 C 0.52936(12) 0.6991(2) 0.81580(11)
C3 C 0.56095(12) 0.4280(2) 0.89362(11)
C4 C 0.36360(12) 0.0234(2) 0.94378(11)
C5 C 0.37758(12) 0.0449(2) 0.85654(11)
C6 C 0.30702(12) 0.0124(2) 0.79553(11)
C7 C 0.31609(12) 0.0359(2) 0.71572(11)
C8 C 0.23679(12) -0.0010(2) 0.65056(12)
H1 H 0.5513 0.7590 0.8637
H2 H 0.5135 0.4102 0.9215
H3 H 0.6046 0.4945 0.9256
H4 H 0.5849 0.3206 0.8823
H5 H 0.2530 -0.0257 0.8083
Cu1_2 Cu 0.5000 1.09676(4) 0.7500
F1B F 0.60883(8) 0.16309(17) 0.51351(6)
F2B F 0.59004(8) -0.10966(17) 0.52275(6)
F3B F 0.71949(8) -0.00229(18) 0.54969(6)
F4B F 0.83537(8) -0.0398(2) 0.82023(8)
F5B F 0.74553(8) -0.13519(16) 0.89337(6)
F6B F 0.78056(8) 0.13243(18) 0.89850(8)
O1B O 0.54621(8) 0.08882(17) 0.64933(8)
O2B O 0.61803(9) 0.08373(17) 0.81224(8)
N2_2 N 0.5000 -0.2113(2) 0.7500
C1B C 0.47086(11) 0.5202(2) 0.68298(11)
C2B C 0.47064(12) 0.6991(2) 0.68420(11)
C3B C 0.43905(12) 0.4280(2) 0.60638(11)
C4B C 0.63640(12) 0.0234(2) 0.55622(11)
C5B C 0.62242(12) 0.0449(2) 0.64346(11)
C6B C 0.69298(12) 0.0124(2) 0.70447(11)
C7B C 0.68391(12) 0.0359(2) 0.78428(11)
C8B C 0.76321(12) -0.0010(2) 0.84944(12)
H1B H 0.4487 0.7590 0.6363
H2B H 0.4865 0.4102 0.5785
H3B H 0.3954 0.4945 0.5744
H4B H 0.4151 0.3206 0.6177
H5B H 0.7470 -0.0257 0.6917
loop_
_geom_bond_atom_site_label_1
_geom_bond_atom_site_label_2
_geom_bond_site_symmetry_1
_geom_bond_site_symmetry_2
Cu1 O1 1_555 1_555
F1 C4 1_555 1_555
F2 C4 1_555 1_555
F3 C4 1_555 1_555
F4 C8 1_555 1_555
F5 C8 1_555 1_555
F6 C8 1_555 1_555
O1 C5 1_555 1_555
O2 Cu1 1_555 1_555
N1 Cu1 1_555 1_555
N2 C2 1_555 1_555
C1 N1 1_555 1_555
C2 C1 1_555 1_555
C3 C1 1_555 1_555
C4 C5 1_555 1_555
C5 C6 1_555 1_555
C6 C7 1_555 1_555
C7 O2 1_555 1_555
C8 C7 1_555 1_555
H1 C2 1_555 1_555
H2 C3 1_555 1_555
H3 C3 1_555 1_555
H4 C3 1_555 1_555
H5 C6 1_555 1_555
Cu1_2 N2 1_555 1_555
F1B C4B 1_555 1_555
F2B C4B 1_555 1_555
F3B C4B 1_555 1_555
F4B C8B 1_555 1_555
F5B C8B 1_555 1_555
F6B C8B 1_555 1_555
O1B Cu1 1_555 1_555
O2B Cu1 1_555 1_555
N2_2 Cu1 1_555 1_555
C1B N1 1_555 1_555
C2B N2 1_555 1_555
C3B C1B 1_555 1_555
C4B C5B 1_555 1_555
C5B O1B 1_555 1_555
C6B C5B 1_555 1_555
C7B O2B 1_555 1_555
C8B C7B 1_555 1_555
H1B C2B 1_555 1_555
H2B C3B 1_555 1_555
H3B C3B 1_555 1_555
H4B C3B 1_555 1_555
H5B C6B 1_555 1_555
C1B C2B 1_555 1_555
C6B C7B 1_555 1_555

#END
