
#######################################################################
#
#                 Cambridge Crystallographic Data Centre
#                                CCDC 
#
#######################################################################
#
# If this CIF has been generated from an entry in the Cambridge 
# Structural Database, then it will include bibliographic, chemical, 
# crystal, experimental, refinement or atomic coordinate data resulting 
# from the CCDC's data processing and validation procedures.
#
#######################################################################

data_EDASEI
_symmetry_cell_setting           triclinic
_symmetry_space_group_name_H-M   'P -1'
_symmetry_Int_Tables_number      2
_space_group_name_Hall           '-P 1'
loop_
_symmetry_equiv_pos_site_id
_symmetry_equiv_pos_as_xyz
1 x,y,z
2 -x,-y,-z
_cell_length_a                   8.6584(7)
_cell_length_b                   8.8051(7)
_cell_length_c                   7.8486(7)
_cell_angle_alpha                114.993(4)
_cell_angle_beta                 99.302(4)
_cell_angle_gamma                94.889(4)
_cell_volume                     527.257
loop_
_atom_site_label
_atom_site_type_symbol
_atom_site_fract_x
_atom_site_fract_y
_atom_site_fract_z
Cu1 Cu 0.0000 0.0000 0.0000
F1 F -0.4691(3) 0.2031(4) -0.0723(4)
F2 F -0.3947(3) 0.4346(4) 0.1869(5)
F3 F -0.4492(3) 0.1997(4) 0.2007(4)
F4 F 0.2759(4) 0.5224(6) 0.1437(7)
F5 F 0.3079(5) 0.5179(5) 0.4023(5)
F6 F 0.1417(5) 0.6606(4) 0.3397(13)
O1 O -0.1992(2) 0.0872(3) 0.0280(3)
O2 O 0.1240(2) 0.2274(3) 0.1145(3)
N1 N 0.0181(3) 0.0073(3) 0.3300(3)
C1 C -0.1206(3) -0.0521(4) 0.3498(4)
C2 C 0.1424(3) 0.0583(4) 0.4800(4)
C3 C 0.3018(4) 0.1219(6) 0.4621(5)
C4 C -0.3827(4) 0.2705(5) 0.1048(5)
C5 C -0.2106(4) 0.2413(4) 0.1080(4)
C6 C -0.0889(5) 0.3797(5) 0.1876(5)
C7 C 0.0685(4) 0.3622(4) 0.1845(4)
C8 C 0.1954(5) 0.5198(5) 0.2703(8)
H1 H -0.2121 -0.0969 0.2283
H2 H 0.3122 0.2408 0.5016
H3 H 0.3117 0.0660 0.3321
H4 H 0.3826 0.1001 0.5421
H5 H -0.1062 0.4930 0.2456
Cu1_2 Cu 0.0000 0.0000 1.0000
F1A F 0.4691(3) -0.2031(4) 0.0723(4)
F2A F 0.3947(3) -0.4346(4) -0.1869(5)
F3A F 0.4492(3) -0.1997(4) -0.2007(4)
F4A F -0.2759(4) -0.5224(6) -0.1437(7)
F5A F -0.3079(5) -0.5179(5) -0.4023(5)
F6A F -0.1417(5) -0.6606(4) -0.3397(13)
O1A O 0.1992(2) -0.0872(3) -0.0280(3)
O2A O -0.1240(2) -0.2274(3) -0.1145(3)
N1A N -0.0181(3) -0.0073(3) 0.6700(3)
N1A_2 N -0.0181(3) -0.0073(3) -0.3300(3)
C1A C 0.1206(3) 0.0521(4) 0.6502(4)
C2A C -0.1424(3) -0.0583(4) 0.5200(4)
C3A C -0.3018(4) -0.1219(6) 0.5379(5)
C4A C 0.3827(4) -0.2705(5) -0.1048(5)
C5A C 0.2106(4) -0.2413(4) -0.1080(4)
C6A C 0.0889(5) -0.3797(5) -0.1876(5)
C7A C -0.0685(4) -0.3622(4) -0.1845(4)
C8A C -0.1954(5) -0.5198(5) -0.2703(8)
H1A H 0.2121 0.0969 0.7717
H2A H -0.3122 -0.2408 0.4984
H3A H -0.3117 -0.0660 0.6679
H4A H -0.3826 -0.1001 0.4579
H5A H 0.1062 -0.4930 -0.2456
loop_
_geom_bond_atom_site_label_1
_geom_bond_atom_site_label_2
_geom_bond_site_symmetry_1
_geom_bond_site_symmetry_2
Cu1 O1 1_555 1_555
F1 C4 1_555 1_555
F2 C4 1_555 1_555
F3 C4 1_555 1_555
F4 C8 1_555 1_555
F5 C8 1_555 1_555
F6 C8 1_555 1_555
O1 C5 1_555 1_555
O2 Cu1 1_555 1_555
N1 Cu1 1_555 1_555
C1 N1 1_555 1_555
C2 N1 1_555 1_555
C3 C2 1_555 1_555
C4 C5 1_555 1_555
C5 C6 1_555 1_555
C6 C7 1_555 1_555
C7 O2 1_555 1_555
C8 C7 1_555 1_555
H1 C1 1_555 1_555
H2 C3 1_555 1_555
H3 C3 1_555 1_555
H4 C3 1_555 1_555
H5 C6 1_555 1_555
Cu1_2 N1A 1_555 1_555
F1A C4A 1_555 1_555
F2A C4A 1_555 1_555
F3A C4A 1_555 1_555
F4A C8A 1_555 1_555
F5A C8A 1_555 1_555
F6A C8A 1_555 1_555
O1A Cu1 1_555 1_555
O2A Cu1 1_555 1_555
N1A C1A 1_555 1_555
N1A_2 Cu1 1_555 1_555
C1A C2 1_555 1_555
C2A C1 1_555 1_555
C3A C2A 1_555 1_555
C4A C5A 1_555 1_555
C5A O1A 1_555 1_555
C6A C5A 1_555 1_555
C7A O2A 1_555 1_555
C8A C7A 1_555 1_555
H1A C1A 1_555 1_555
H2A C3A 1_555 1_555
H3A C3A 1_555 1_555
H4A C3A 1_555 1_555
H5A C6A 1_555 1_555
N1A C2A 1_555 1_555
C6A C7A 1_555 1_555

#END
