
#######################################################################
#
#                 Cambridge Crystallographic Data Centre
#                                CCDC 
#
#######################################################################
#
# If this CIF has been generated from an entry in the Cambridge 
# Structural Database, then it will include bibliographic, chemical, 
# crystal, experimental, refinement or atomic coordinate data resulting 
# from the CCDC's data processing and validation procedures.
#
#######################################################################

data_EDATEJ
_symmetry_cell_setting           orthorhombic
_symmetry_space_group_name_H-M   'P b c a'
_symmetry_Int_Tables_number      61
_space_group_name_Hall           '-P 2ac 2ab'
loop_
_symmetry_equiv_pos_site_id
_symmetry_equiv_pos_as_xyz
1 x,y,z
2 1/2+x,1/2-y,-z
3 -x,1/2+y,1/2-z
4 1/2-x,-y,1/2+z
5 -x,-y,-z
6 1/2-x,1/2+y,z
7 x,1/2-y,1/2+z
8 1/2+x,y,1/2-z
_cell_length_a                   12.6377(4)
_cell_length_b                   30.2602(12)
_cell_length_c                   11.1072(4)
_cell_angle_alpha                90
_cell_angle_beta                 90
_cell_angle_gamma                90
_cell_volume                     4247.61
loop_
_atom_site_label
_atom_site_type_symbol
_atom_site_fract_x
_atom_site_fract_y
_atom_site_fract_z
Cu1 Cu 0.10850(6) 0.13405(2) -0.26829(6)
F1 F 0.2504(4) 0.0796(2) -0.6257(3)
F2 F 0.3739(3) 0.07643(18) -0.4991(4)
F3 F 0.2926(3) 0.01874(14) -0.5504(5)
F4 F -0.1061(4) 0.0123(2) -0.2910(7)
F5 F 0.0161(6) -0.03275(16) -0.3078(8)
F6 F -0.0106(5) -0.00234(19) -0.1453(5)
F7 F 0.2255(2) 0.27072(11) -0.3978(2)
F8 F 0.3359(2) 0.25175(12) -0.2639(3)
F9 F 0.2182(3) 0.29980(11) -0.2220(3)
F10 F 0.0010(3) 0.18718(16) 0.1041(2)
F11 F -0.1337(2) 0.19275(14) -0.0073(3)
F12 F -0.0442(4) 0.24958(12) 0.0346(3)
O1 O 0.1979(2) 0.10989(11) -0.3941(2)
O2 O 0.0425(2) 0.07668(11) -0.2390(3)
O3 O 0.1719(2) 0.19111(10) -0.3065(2)
O4 O 0.0220(2) 0.15935(10) -0.1420(2)
N1 N 0.2558(2) 0.12053(12) -0.1220(3)
N2 N 0.4372(3) 0.14132(12) -0.0990(3)
C1 C 0.3506(3) 0.13422(14) -0.1627(4)
C2 C 0.2517(3) 0.11126(13) -0.0035(4)
C3 C 0.3375(4) 0.11879(16) 0.0707(4)
C4 C 0.4278(3) 0.13430(12) 0.0206(4)
C5 C 0.1480(4) 0.0922(2) 0.0447(5)
C6 C 0.5225(5) 0.1449(2) 0.0959(5)
C7 C 0.2812(4) 0.0617(2) -0.5243(5)
C8 C 0.2001(3) 0.07044(16) -0.4261(4)
C9 C 0.1384(4) 0.03618(17) -0.3851(5)
C10 C 0.0631(3) 0.04272(16) -0.2957(4)
C11 C -0.0087(5) 0.0043(2) -0.2614(6)
C12 C 0.2356(3) 0.26240(14) -0.2811(3)
C13 C 0.1633(3) 0.22452(13) -0.2409(3)
C14 C 0.0996(3) 0.23058(14) -0.1416(3)
C15 C 0.0322(3) 0.19755(14) -0.1010(3)
C16 C -0.0377(3) 0.20696(17) 0.0084(3)
H1 H 0.3558 0.1394 -0.2468
H2 H 0.3332 0.1132 0.1547
H3 H 0.0918 0.0996 -0.0084
H4 H 0.1537 0.0609 0.0503
H5 H 0.1340 0.1041 0.1222
H6 H 0.5833 0.1469 0.0459
H7 H 0.5118 0.1723 0.1357
H8 H 0.5327 0.1222 0.1540
H9 H 0.1475 0.0075 -0.4183
H10 H 0.1018 0.2580 -0.1000
Cu1G Cu 0.60850(6) 0.13405(2) -0.23171(6)
N2G N -0.0628(3) 0.14132(12) -0.4010(3)
loop_
_geom_bond_atom_site_label_1
_geom_bond_atom_site_label_2
_geom_bond_site_symmetry_1
_geom_bond_site_symmetry_2
Cu1 O1 1_555 1_555
F1 C7 1_555 1_555
F2 C7 1_555 1_555
F3 C7 1_555 1_555
F4 C11 1_555 1_555
F5 C11 1_555 1_555
F6 C11 1_555 1_555
F7 C12 1_555 1_555
F8 C12 1_555 1_555
F9 C12 1_555 1_555
F10 C16 1_555 1_555
F11 C16 1_555 1_555
F12 C16 1_555 1_555
O1 C8 1_555 1_555
O2 Cu1 1_555 1_555
O3 Cu1 1_555 1_555
O4 Cu1 1_555 1_555
N1 Cu1 1_555 1_555
N2 C1 1_555 1_555
C1 N1 1_555 1_555
C2 N1 1_555 1_555
C3 C2 1_555 1_555
C4 N2 1_555 1_555
C5 C2 1_555 1_555
C6 C4 1_555 1_555
C7 C8 1_555 1_555
C8 C9 1_555 1_555
C9 C10 1_555 1_555
C10 O2 1_555 1_555
C11 C10 1_555 1_555
C12 C13 1_555 1_555
C13 O3 1_555 1_555
C14 C13 1_555 1_555
C15 O4 1_555 1_555
C16 C15 1_555 1_555
H1 C1 1_555 1_555
H2 C3 1_555 1_555
H3 C5 1_555 1_555
H4 C5 1_555 1_555
H5 C5 1_555 1_555
H6 C6 1_555 1_555
H7 C6 1_555 1_555
H8 C6 1_555 1_555
H9 C9 1_555 1_555
H10 C14 1_555 1_555
Cu1G N2 1_555 1_555
N2G Cu1 1_555 1_555
C3 C4 1_555 1_555
C14 C15 1_555 1_555

#END
