
#######################################################################
#
#                 Cambridge Crystallographic Data Centre
#                                CCDC 
#
#######################################################################
#
# If this CIF has been generated from an entry in the Cambridge 
# Structural Database, then it will include bibliographic, chemical, 
# crystal, experimental, refinement or atomic coordinate data resulting 
# from the CCDC's data processing and validation procedures.
#
#######################################################################

data_EDEXIV
_symmetry_cell_setting           monoclinic
_symmetry_space_group_name_H-M   'P 21/c'
_symmetry_Int_Tables_number      14
_space_group_name_Hall           '-P 2ybc'
loop_
_symmetry_equiv_pos_site_id
_symmetry_equiv_pos_as_xyz
1 x,y,z
2 -x,1/2+y,1/2-z
3 -x,-y,-z
4 x,1/2-y,1/2+z
_cell_length_a                   11.672(5)
_cell_length_b                   12.952(5)
_cell_length_c                   14.072(5)
_cell_angle_alpha                90
_cell_angle_beta                 97.084(5)
_cell_angle_gamma                90
_cell_volume                     2111.11
loop_
_atom_site_label
_atom_site_type_symbol
_atom_site_fract_x
_atom_site_fract_y
_atom_site_fract_z
C1 C 0.0259(3) 0.1099(3) 0.5735(3)
H1 H 0.0770 0.0616 0.6037
C2 C -0.0910(4) 0.0905(4) 0.5665(3)
H2 H -0.1161 0.0305 0.5938
C3 C -0.1273(3) 0.2389(3) 0.4869(3)
H3 H -0.1792 0.2855 0.4550
C4 C -0.0106(3) 0.2616(3) 0.4950(3)
C5 C 0.0282(3) 0.3599(3) 0.4532(3)
H4 H -0.0307 0.4123 0.4557
H5 H 0.0378 0.3486 0.3865
C6 C 0.2466(3) 0.4246(3) 0.4193(2)
H6 H 0.2128 0.4805 0.3793
H7 H 0.3245 0.4448 0.4444
C7 C 0.2514(3) 0.3302(3) 0.3596(2)
C8 C 0.2453(3) 0.3375(3) 0.2612(2)
H8 H 0.2356 0.4022 0.2327
C9 C 0.2703(3) 0.1642(3) 0.2493(2)
H9 H 0.2804 0.1055 0.2131
C10 C 0.2735(3) 0.1554(3) 0.3470(2)
H10 H 0.2848 0.0907 0.3752
C11 C 0.5134(3) 0.2943(3) 0.5944(3)
C12 C 0.6359(3) 0.3082(4) 0.6184(4)
H11 H 0.6715 0.2427 0.6342
H12 H 0.6501 0.3538 0.6724
H13 H 0.6676 0.3375 0.5647
C13 C 0.3489(3) 0.0019(3) 0.5810(3)
C14 C 0.4071(4) -0.0956(3) 0.6033(4)
H14 H 0.4734 -0.0845 0.6497
H15 H 0.4312 -0.1243 0.5461
H16 H 0.3552 -0.1426 0.6290
N1 N 0.0680(3) 0.1949(2) 0.5387(2)
N2 N -0.1683(3) 0.1539(3) 0.5225(3)
N3 N 0.2609(2) 0.2375(2) 0.40267(19)
N4 N 0.2530(2) 0.2548(2) 0.20539(19)
N5 N 0.4178(3) 0.2820(2) 0.5749(2)
N6 N 0.3044(3) 0.0782(2) 0.5654(2)
S1 S 0.16372(8) 0.40580(7) 0.51700(6)
Co1 Co 0.24611(4) 0.23215(4) 0.55320(3)
N4C N 0.2530(2) 0.2452(2) 0.70539(19)
Co1C Co 0.24611(4) 0.26785(4) 0.05320(3)
O1 O -0.0856(4) 0.2409(3) 0.2362(3)
O2 O 0.0254(3) 0.1212(3) 0.3251(3)
O3 O -0.0333(4) 0.0888(3) 0.1638(3)
O4 O -0.1646(3) 0.0839(2) 0.2761(2)
Cl1 Cl -0.06339(9) 0.13207(8) 0.24946(7)
O5 O 0.6057(4) 0.4301(3) 0.2204(3)
O6 O 0.6492(4) 0.4337(4) 0.3850(3)
O7 O 0.4664(3) 0.4791(3) 0.3134(3)
O8 O 0.5241(3) 0.3085(3) 0.3141(3)
Cl2 Cl 0.56137(9) 0.41186(9) 0.31002(9)
loop_
_geom_bond_atom_site_label_1
_geom_bond_atom_site_label_2
_geom_bond_site_symmetry_1
_geom_bond_site_symmetry_2
C1 H1 1_555 1_555
C2 C1 1_555 1_555
H2 C2 1_555 1_555
C3 H3 1_555 1_555
C4 C3 1_555 1_555
C5 C4 1_555 1_555
H4 C5 1_555 1_555
H5 C5 1_555 1_555
C6 H6 1_555 1_555
H7 C6 1_555 1_555
C7 C6 1_555 1_555
C8 C7 1_555 1_555
H8 C8 1_555 1_555
C9 H9 1_555 1_555
C10 C9 1_555 1_555
H10 C10 1_555 1_555
C11 C12 1_555 1_555
C12 H11 1_555 1_555
H12 C12 1_555 1_555
H13 C12 1_555 1_555
C13 C14 1_555 1_555
C14 H14 1_555 1_555
H15 C14 1_555 1_555
H16 C14 1_555 1_555
N1 C1 1_555 1_555
N2 C2 1_555 1_555
N3 C7 1_555 1_555
N4 C8 1_555 1_555
N5 C11 1_555 1_555
N6 C13 1_555 1_555
O1 Cl1 1_555 1_555
O2 Cl1 1_555 1_555
O3 Cl1 1_555 1_555
O4 Cl1 1_555 1_555
O5 Cl2 1_555 1_555
O6 Cl2 1_555 1_555
O7 Cl2 1_555 1_555
O8 Cl2 1_555 1_555
S1 C5 1_555 1_555
Co1 N1 1_555 1_555
N4C Co1 1_555 1_555
Co1C N4 1_555 1_555
C3 N2 1_555 1_555
C4 N1 1_555 1_555
C6 S1 1_555 1_555
C9 N4 1_555 1_555
C10 N3 1_555 1_555
N3 Co1 1_555 1_555
N5 Co1 1_555 1_555
N6 Co1 1_555 1_555
S1 Co1 1_555 1_555

#END
