
#######################################################################
#
#                 Cambridge Crystallographic Data Centre
#                                CCDC 
#
#######################################################################
#
# If this CIF has been generated from an entry in the Cambridge 
# Structural Database, then it will include bibliographic, chemical, 
# crystal, experimental, refinement or atomic coordinate data resulting 
# from the CCDC's data processing and validation procedures.
#
#######################################################################

data_EDEXUH
_symmetry_cell_setting           monoclinic
_symmetry_space_group_name_H-M   'P 21/c'
_symmetry_Int_Tables_number      14
_space_group_name_Hall           '-P 2ybc'
loop_
_symmetry_equiv_pos_site_id
_symmetry_equiv_pos_as_xyz
1 x,y,z
2 -x,1/2+y,1/2-z
3 -x,-y,-z
4 x,1/2-y,1/2+z
_cell_length_a                   7.42240(10)
_cell_length_b                   26.3251(5)
_cell_length_c                   13.7056(2)
_cell_angle_alpha                90
_cell_angle_beta                 116.6530(10)
_cell_angle_gamma                90
_cell_volume                     2393.45
loop_
_atom_site_label
_atom_site_type_symbol
_atom_site_fract_x
_atom_site_fract_y
_atom_site_fract_z
C1 C -0.2112(10) 0.0934(3) -0.1313(6)
H1 H -0.3092 0.0859 -0.2035
C2 C -0.1952(10) 0.0625(3) -0.0464(6)
H2 H -0.2807 0.0336 -0.0620
C3 C 0.0600(9) 0.1116(3) 0.0744(6)
H3 H 0.1588 0.1185 0.1468
C4 C 0.0476(9) 0.1430(3) -0.0095(6)
C5 C 0.1903(9) 0.1873(3) 0.0135(6)
H4 H 0.2992 0.1776 -0.0058
H5 H 0.2531 0.1949 0.0927
C6 C 0.2444(10) 0.2647(3) -0.1110(6)
H6 H 0.1939 0.2969 -0.1517
H7 H 0.3745 0.2723 -0.0471
C7 C 0.2840(9) 0.2277(3) -0.1843(5)
C8 C 0.4738(10) 0.2269(3) -0.1825(6)
H8 H 0.5795 0.2473 -0.1316
C9 C 0.3600(9) 0.1678(3) -0.3198(6)
H9 H 0.3814 0.1467 -0.3698
C10 C 0.1734(9) 0.1672(3) -0.3185(6)
H10 H 0.0704 0.1452 -0.3666
C11 C 0.4195(11) 0.0025(3) 0.3381(6)
C12 C 0.6255(11) -0.0121(4) 0.4077(7)
H11 H 0.6276 -0.0386 0.4583
H12 H 0.7013 0.0175 0.4492
H13 H 0.6874 -0.0250 0.3627
N1 N -0.0890(8) 0.1345(2) -0.1132(5)
N2 N -0.0636(8) 0.0718(2) 0.0563(5)
N3 N 0.1380(7) 0.1967(2) -0.2515(5)
N4 N 0.5074(8) 0.1972(2) -0.2528(5)
N5 N 0.2566(10) 0.0129(3) 0.2822(6)
N6 N -0.3422(8) 0.1379(3) -0.4545(5)
N7 N -0.2369(8) 0.2989(2) -0.3836(5)
N8 N 0.0225(9) 0.1006(3) 0.3756(5)
N9 N -0.2643(8) -0.0630(2) 0.1377(5)
O1 O -0.4183(8) 0.0536(2) 0.1512(4)
O3 O -0.2885(8) 0.1195(2) -0.3620(4)
O4 O -0.3134(8) 0.1847(2) -0.4598(5)
O5 O -0.4216(9) 0.1112(3) -0.5376(5)
O6 O -0.2980(8) 0.2795(2) -0.3168(5)
O7 O -0.0801(8) 0.2826(2) -0.3813(5)
O8 O -0.3350(8) 0.3335(2) -0.4449(5)
O9 O -0.0278(8) 0.0550(2) 0.3785(4)
O10 O 0.0162(8) 0.1164(2) 0.2873(5)
O11 O 0.0806(12) 0.1280(3) 0.4572(5)
O12 O -0.1747(9) -0.0492(2) 0.2361(5)
O13 O -0.2532(9) -0.0338(2) 0.0664(5)
O14 O -0.3600(8) -0.1027(2) 0.1094(5)
H16 H -0.5011 0.0697 0.0740
H17 H -0.4408 0.0828 0.1774
Cd1 Cd -0.17668(6) 0.198642(19) -0.25562(4)
Cd2 Cd -0.08709(7) 0.03348(2) 0.20131(4)
S1 S 0.0678(2) 0.24424(7) -0.06128(15)
N4_2 N -0.4926(8) 0.1972(2) -0.2528(5)
Cd1_2 Cd 0.82332(6) 0.198642(19) -0.25562(4)
O2 O -0.4691(8) 0.1384(2) 0.2503(5)
H14 H -0.4304 0.1399 0.3166
H15 H -0.4227 0.1639 0.2352
loop_
_geom_bond_atom_site_label_1
_geom_bond_atom_site_label_2
_geom_bond_site_symmetry_1
_geom_bond_site_symmetry_2
C1 H1 1_555 1_555
C2 C1 1_555 1_555
H2 C2 1_555 1_555
C3 H3 1_555 1_555
C4 C3 1_555 1_555
C5 C4 1_555 1_555
H4 C5 1_555 1_555
H5 C5 1_555 1_555
C6 H6 1_555 1_555
H7 C6 1_555 1_555
C7 C6 1_555 1_555
C8 C7 1_555 1_555
H8 C8 1_555 1_555
C9 H9 1_555 1_555
C10 C9 1_555 1_555
H10 C10 1_555 1_555
C11 C12 1_555 1_555
C12 H11 1_555 1_555
H12 C12 1_555 1_555
H13 C12 1_555 1_555
N1 C1 1_555 1_555
N2 C2 1_555 1_555
N3 C7 1_555 1_555
N4 C8 1_555 1_555
N5 C11 1_555 1_555
N6 O3 1_555 1_555
N7 O6 1_555 1_555
N8 O9 1_555 1_555
N9 O12 1_555 1_555
O1 H16 1_555 1_555
O2 H14 1_555 1_555
H15 O2 1_555 1_555
O3 Cd1 1_555 1_555
O4 N6 1_555 1_555
O5 N6 1_555 1_555
O6 Cd1 1_555 1_555
O7 N7 1_555 1_555
O8 N7 1_555 1_555
O9 Cd2 1_555 1_555
O10 N8 1_555 1_555
O11 N8 1_555 1_555
O12 Cd2 1_555 1_555
O13 N9 1_555 1_555
O14 N9 1_555 1_555
H17 O1 1_555 1_555
Cd1 N1 1_555 1_555
Cd2 N2 1_555 1_555
S1 C5 1_555 1_555
N4_2 Cd1 1_555 1_555
Cd1_2 N4 1_555 1_555
C3 N2 1_555 1_555
C4 N1 1_555 1_555
C6 S1 1_555 1_555
C9 N4 1_555 1_555
C10 N3 1_555 1_555
N3 Cd1 1_555 1_555
N5 Cd2 1_555 1_555
O1 Cd2 1_555 1_555
O4 Cd1 1_555 1_555
O10 Cd2 1_555 1_555
O13 Cd2 1_555 1_555
Cd1 S1 1_555 1_555

#END
