
#######################################################################
#
#                 Cambridge Crystallographic Data Centre
#                                CCDC 
#
#######################################################################
#
# If this CIF has been generated from an entry in the Cambridge 
# Structural Database, then it will include bibliographic, chemical, 
# crystal, experimental, refinement or atomic coordinate data resulting 
# from the CCDC's data processing and validation procedures.
#
#######################################################################

data_EDEYAO
_symmetry_cell_setting           triclinic
_symmetry_space_group_name_H-M   'P -1'
_symmetry_Int_Tables_number      2
_space_group_name_Hall           '-P 1'
loop_
_symmetry_equiv_pos_site_id
_symmetry_equiv_pos_as_xyz
1 x,y,z
2 -x,-y,-z
_cell_length_a                   7.018(5)
_cell_length_b                   7.443(5)
_cell_length_c                   19.420(5)
_cell_angle_alpha                87.170(5)
_cell_angle_beta                 88.412(5)
_cell_angle_gamma                85.967(5)
_cell_volume                     1010.36
loop_
_atom_site_label
_atom_site_type_symbol
_atom_site_fract_x
_atom_site_fract_y
_atom_site_fract_z
C1 C 0.2737(4) 0.1115(4) 0.14507(17)
H1 H 0.2170 0.0470 0.1123
C2 C 0.4712(4) 0.1051(4) 0.14805(17)
H2 H 0.5443 0.0337 0.1179
C3 C 0.4482(4) 0.2935(4) 0.23736(16)
H3 H 0.5056 0.3574 0.2702
C4 C 0.2499(4) 0.3000(4) 0.23603(16)
C5 C 0.1271(4) 0.4090(5) 0.28583(17)
H4 H 0.1059 0.5312 0.2664
H5 H 0.1953 0.4146 0.3283
C6 C -0.0333(5) 0.1263(5) 0.36377(17)
H6 H -0.1405 0.0514 0.3707
H7 H 0.0712 0.0543 0.3428
C7 C 0.0273(5) 0.1846(5) 0.43242(17)
C8 C -0.1092(5) 0.2466(5) 0.48059(18)
H8 H -0.2380 0.2526 0.4700
C9 C -0.0551(5) 0.2996(5) 0.54436(18)
H9 H -0.1476 0.3399 0.5763
C10 C 0.1359(6) 0.2927(5) 0.56042(19)
H10 H 0.1722 0.3281 0.6031
C11 C 0.2732(5) 0.2328(5) 0.5125(2)
H11 H 0.4018 0.2287 0.5233
C12 C 0.2203(5) 0.1788(5) 0.44875(19)
H12 H 0.3134 0.1389 0.4169
N1 N 0.1633(3) 0.2096(4) 0.18879(13)
N2 N 0.5592(3) 0.1989(4) 0.19325(14)
O1 O -0.1237(3) 0.1298(3) 0.08469(12)
O2 O -0.1674(3) 0.4698(3) 0.15136(13)
O3 O -0.1031(3) -0.0692(3) 0.21566(13)
S1 S -0.10184(10) 0.31885(11) 0.30558(4)
Co1 Co -0.13756(5) 0.20233(6) 0.18900(2)
H13 H -0.148(7) 0.200(4) 0.0514(17)
H14 H -0.147(6) 0.028(3) 0.0714(19)
H15 H -0.266(4) 0.530(6) 0.138(3)
H16 H -0.078(4) 0.536(5) 0.141(2)
H17 H -0.182(6) -0.142(7) 0.229(3)
H18 H 0.002(4) -0.109(7) 0.230(3)
N2_2 N -0.4408(3) 0.1989(4) 0.19325(14)
Co1_2 Co 0.86244(5) 0.20233(6) 0.18900(2)
O4 O -0.2188(4) -0.1981(4) 0.04348(15)
H19 H -0.333(3) -0.212(7) 0.035(3)
H20 H -0.156(6) -0.274(6) 0.020(2)
O5 O 0.4482(3) 0.4956(3) 0.08658(14)
O6 O 0.1760(3) 0.5659(4) 0.01899(13)
O7 O 0.1770(3) 0.6583(4) 0.13308(13)
O8 O 0.3697(3) 0.7947(3) 0.04683(13)
Cl1 Cl 0.29425(10) 0.62780(10) 0.07195(4)
O9 O 0.4617(3) -0.3668(3) 0.34544(14)
O10 O 0.2685(3) -0.1688(4) 0.27462(14)
O11 O 0.5316(4) -0.0626(4) 0.32815(14)
O12 O 0.5816(3) -0.2614(4) 0.23781(14)
Cl2 Cl 0.46071(10) -0.21487(10) 0.29742(4)
loop_
_geom_bond_atom_site_label_1
_geom_bond_atom_site_label_2
_geom_bond_site_symmetry_1
_geom_bond_site_symmetry_2
C1 H1 1_555 1_555
C2 C1 1_555 1_555
H2 C2 1_555 1_555
C3 H3 1_555 1_555
C4 C3 1_555 1_555
C5 C4 1_555 1_555
H4 C5 1_555 1_555
H5 C5 1_555 1_555
C6 H6 1_555 1_555
H7 C6 1_555 1_555
C7 C6 1_555 1_555
C8 C7 1_555 1_555
H8 C8 1_555 1_555
C9 C8 1_555 1_555
H9 C9 1_555 1_555
C10 C9 1_555 1_555
H10 C10 1_555 1_555
C11 C10 1_555 1_555
H11 C11 1_555 1_555
C12 C7 1_555 1_555
H12 C12 1_555 1_555
N1 C1 1_555 1_555
N2 C2 1_555 1_555
O1 Co1 1_555 1_555
O2 Co1 1_555 1_555
O3 Co1 1_555 1_555
O4 H19 1_555 1_555
O5 Cl1 1_555 1_555
O6 Cl1 1_555 1_555
O7 Cl1 1_555 1_555
O8 Cl1 1_555 1_555
O9 Cl2 1_555 1_555
O10 Cl2 1_555 1_555
O11 Cl2 1_555 1_555
O12 Cl2 1_555 1_555
S1 C5 1_555 1_555
Co1 N1 1_555 1_555
H13 O1 1_555 1_555
H14 O1 1_555 1_555
H15 O2 1_555 1_555
H16 O2 1_555 1_555
H17 O3 1_555 1_555
H18 O3 1_555 1_555
H20 O4 1_555 1_555
N2_2 Co1 1_555 1_555
Co1_2 N2 1_555 1_555
C3 N2 1_555 1_555
C4 N1 1_555 1_555
C6 S1 1_555 1_555
C11 C12 1_555 1_555
S1 Co1 1_555 1_555

#END
