
#######################################################################
#
#                 Cambridge Crystallographic Data Centre
#                                CCDC 
#
#######################################################################
#
# If this CIF has been generated from an entry in the Cambridge 
# Structural Database, then it will include bibliographic, chemical, 
# crystal, experimental, refinement or atomic coordinate data resulting 
# from the CCDC's data processing and validation procedures.
#
#######################################################################

data_EDEYES
_symmetry_cell_setting           monoclinic
_symmetry_space_group_name_H-M   'C c'
_symmetry_Int_Tables_number      9
_space_group_name_Hall           'C -2yc'
loop_
_symmetry_equiv_pos_site_id
_symmetry_equiv_pos_as_xyz
1 x,y,z
2 x,-y,1/2+z
3 1/2+x,1/2+y,z
4 1/2+x,1/2-y,1/2+z
_cell_length_a                   7.429(5)
_cell_length_b                   30.728(5)
_cell_length_c                   8.143(5)
_cell_angle_alpha                90
_cell_angle_beta                 116.802(5)
_cell_angle_gamma                90
_cell_volume                     1659.17
loop_
_atom_site_label
_atom_site_type_symbol
_atom_site_fract_x
_atom_site_fract_y
_atom_site_fract_z
C1 C 0.3116(3) 0.71321(6) 0.3859(3)
H1 H 0.3563 0.7388 0.3550
C2 C 0.1221(3) 0.71213(6) 0.3790(3)
H2 H 0.0417 0.7369 0.3437
C3 C 0.1728(3) 0.64097(6) 0.4715(3)
H3 H 0.1273 0.6153 0.5007
C4 C 0.3639(3) 0.64204(6) 0.4800(3)
C5 C 0.5005(3) 0.60301(6) 0.5461(3)
H4 H 0.4203 0.5776 0.5406
H5 H 0.5968 0.6075 0.6738
C6 C 0.4279(3) 0.58096(6) 0.1883(3)
H6 H 0.3517 0.6075 0.1394
H7 H 0.4810 0.5716 0.1048
C7 C 0.2893(3) 0.54636(6) 0.1974(3)
C8 C 0.0939(3) 0.55715(7) 0.1645(3)
H8 H 0.0481 0.5856 0.1337
C9 C -0.0327(3) 0.52558(7) 0.1775(3)
H9 H -0.1632 0.5330 0.1551
C10 C 0.0336(4) 0.48332(7) 0.2232(3)
H10 H -0.0513 0.4624 0.2332
C11 C 0.2275(4) 0.47216(7) 0.2543(3)
H11 H 0.2718 0.4436 0.2833
C12 C 0.3555(3) 0.50352(7) 0.2422(3)
H12 H 0.4856 0.4960 0.2640
N1 N 0.4322(4) 0.67825(5) 0.4360(4)
N2 N 0.0528(4) 0.67593(5) 0.4222(4)
N3 N 0.5999(3) 0.66740(6) 0.0051(3)
N4 N 1.0028(2) 0.65867(5) 0.8423(2)
O1 O 0.7529(3) 0.75055(4) 0.4336(3)
O2 O 0.7042(2) 0.63451(5) 0.0676(2)
O3 O 0.5204(4) 0.67704(6) -0.1584(3)
O4 O 0.5745(3) 0.69339(6) 0.1178(2)
O5 O 1.0939(3) 0.66396(5) 1.0095(2)
O6 O 0.9819(2) 0.62252(4) 0.7683(2)
O7 O 0.9283(3) 0.69236(6) 0.7383(2)
S1 S 0.63744(7) 0.592161(14) 0.41397(6)
Cd1 Cd 0.744470(19) 0.675664(3) 0.425939(18)
H13 H 0.669(3) 0.7668(7) 0.362(3)
H14 H 0.849(3) 0.7662(7) 0.485(3)
N2_2 N 1.0528(4) 0.67593(5) 0.4222(4)
Cd1_2 Cd -0.255530(19) 0.675664(3) 0.425939(18)
loop_
_geom_bond_atom_site_label_1
_geom_bond_atom_site_label_2
_geom_bond_site_symmetry_1
_geom_bond_site_symmetry_2
C1 H1 1_555 1_555
C2 C1 1_555 1_555
H2 C2 1_555 1_555
C3 H3 1_555 1_555
C4 C3 1_555 1_555
C5 C4 1_555 1_555
H4 C5 1_555 1_555
H5 C5 1_555 1_555
C6 H6 1_555 1_555
H7 C6 1_555 1_555
C7 C6 1_555 1_555
C8 C7 1_555 1_555
H8 C8 1_555 1_555
C9 C8 1_555 1_555
H9 C9 1_555 1_555
C10 C9 1_555 1_555
H10 C10 1_555 1_555
C11 C10 1_555 1_555
H11 C11 1_555 1_555
C12 C7 1_555 1_555
H12 C12 1_555 1_555
N1 C1 1_555 1_555
N2 C2 1_555 1_555
N3 O2 1_555 1_555
N4 O5 1_555 1_555
O1 Cd1 1_555 1_555
O3 N3 1_555 1_555
O4 N3 1_555 1_555
O6 N4 1_555 1_555
O7 N4 1_555 1_555
S1 C5 1_555 1_555
Cd1 N1 1_555 1_555
H13 O1 1_555 1_555
H14 O1 1_555 1_555
N2_2 Cd1 1_555 1_555
Cd1_2 N2 1_555 1_555
C3 N2 1_555 1_555
C4 N1 1_555 1_555
C6 S1 1_555 1_555
C11 C12 1_555 1_555
O4 Cd1 1_555 1_555
O7 Cd1 1_555 1_555
S1 Cd1 1_555 1_555

#END
