
#######################################################################
#
#                 Cambridge Crystallographic Data Centre
#                                CCDC 
#
#######################################################################
#
# If this CIF has been generated from an entry in the Cambridge 
# Structural Database, then it will include bibliographic, chemical, 
# crystal, experimental, refinement or atomic coordinate data resulting 
# from the CCDC's data processing and validation procedures.
#
#######################################################################

data_EDINAG
_symmetry_cell_setting           monoclinic
_symmetry_space_group_name_H-M   'P 21/c'
_symmetry_Int_Tables_number      14
_space_group_name_Hall           '-P 2ybc'
loop_
_symmetry_equiv_pos_site_id
_symmetry_equiv_pos_as_xyz
1 x,y,z
2 -x,1/2+y,1/2-z
3 -x,-y,-z
4 x,1/2-y,1/2+z
_cell_length_a                   7.305(5)
_cell_length_b                   43.25(2)
_cell_length_c                   7.973(5)
_cell_angle_alpha                90
_cell_angle_beta                 116.66(6)
_cell_angle_gamma                90
_cell_volume                     2251.19
loop_
_atom_site_label
_atom_site_type_symbol
_atom_site_fract_x
_atom_site_fract_y
_atom_site_fract_z
Eu1 Eu 0.12085(6) 0.124173(9) 0.20952(6)
S1 S 0.3217(3) 0.32907(5) 0.4134(3)
S2 S 0.1189(3) -0.08152(6) 0.2663(3)
O1 O 0.2689(10) 0.18249(15) 0.3769(10)
O2 O 0.0606(10) 0.21747(16) 0.1709(11)
O3 O 0.6111(10) 0.20141(16) 0.6388(11)
O4 O 0.3312(9) 0.34483(14) 0.5752(9)
O5 O 0.1155(8) 0.32684(15) 0.2594(9)
O6 O 0.4653(9) 0.34256(14) 0.3499(9)
O7 O 0.0583(9) 0.06493(15) 0.2541(10)
O8 O 0.3069(10) 0.03424(16) 0.2568(12)
O9 O -0.2746(10) 0.03893(17) 0.2331(11)
O10 O -0.0294(9) -0.10007(15) 0.1149(10)
O11 O 0.3062(9) -0.07533(15) 0.2495(9)
O12 O 0.1670(10) -0.09459(15) 0.4488(9)
O13 O -0.1126(8) 0.16762(14) -0.0318(8)
O14 O 0.4532(9) 0.09034(14) 0.2505(9)
O15 O -0.0689(9) 0.14680(15) 0.3951(9)
O16 O 0.3654(11) 0.11571(19) 0.5570(10)
O17 O -0.2932(9) 0.10567(16) 0.0667(9)
C1 C 0.2253(13) 0.2093(2) 0.3256(12)
C2 C 0.3489(12) 0.2362(2) 0.4291(13)
C3 C 0.5387(13) 0.2307(2) 0.5907(13)
C4 C 0.6558(12) 0.2556(2) 0.6895(12)
C5 C 0.5882(13) 0.2853(2) 0.6370(14)
C6 C 0.4055(12) 0.29071(18) 0.4842(12)
C7 C 0.2849(13) 0.2660(2) 0.3804(13)
C8 C 0.1267(13) 0.0387(2) 0.2551(13)
C9 C 0.0209(13) 0.0107(2) 0.2534(14)
C10 C -0.1791(15) 0.0116(2) 0.2430(14)
C11 C -0.2827(15) -0.0159(2) 0.2365(16)
C12 C -0.1915(15) -0.0433(2) 0.2476(14)
C13 C 0.0049(13) -0.04553(19) 0.2579(13)
C14 C 0.1064(13) -0.0187(2) 0.2598(12)
O4C O 0.3312(9) 0.15517(14) 0.0752(9)
O10B O 0.0294(9) 0.10007(15) -0.1149(10)
Eu1C Eu 0.12085(6) 0.375827(9) 0.70952(6)
Eu1B Eu -0.12085(6) -0.124173(9) -0.20952(6)
loop_
_geom_bond_atom_site_label_1
_geom_bond_atom_site_label_2
_geom_bond_site_symmetry_1
_geom_bond_site_symmetry_2
Eu1 O1 1_555 1_555
S1 O4 1_555 1_555
S2 O10 1_555 1_555
O1 C1 1_555 1_555
O2 C1 1_555 1_555
O3 C3 1_555 1_555
O4 Eu1C 1_555 1_555
O5 S1 1_555 1_555
O6 S1 1_555 1_555
O7 Eu1 1_555 1_555
O8 C8 1_555 1_555
O9 C10 1_555 1_555
O10 Eu1B 1_555 1_555
O11 S2 1_555 1_555
O12 S2 1_555 1_555
O13 Eu1 1_555 1_555
O14 Eu1 1_555 1_555
O15 Eu1 1_555 1_555
O16 Eu1 1_555 1_555
O17 Eu1 1_555 1_555
C1 C2 1_555 1_555
C2 C3 1_555 1_555
C3 C4 1_555 1_555
C4 C5 1_555 1_555
C5 C6 1_555 1_555
C6 S1 1_555 1_555
C7 C2 1_555 1_555
C8 O7 1_555 1_555
C9 C8 1_555 1_555
C10 C9 1_555 1_555
C11 C10 1_555 1_555
C12 C11 1_555 1_555
C13 S2 1_555 1_555
C14 C9 1_555 1_555
O4C Eu1 1_555 1_555
O10B Eu1 1_555 1_555
C6 C7 1_555 1_555
C12 C13 1_555 1_555
C13 C14 1_555 1_555

#END
