
#######################################################################
#
#                 Cambridge Crystallographic Data Centre
#                                CCDC 
#
#######################################################################
#
# If this CIF has been generated from an entry in the Cambridge 
# Structural Database, then it will include bibliographic, chemical, 
# crystal, experimental, refinement or atomic coordinate data resulting 
# from the CCDC's data processing and validation procedures.
#
#######################################################################

data_EDITAN
_symmetry_cell_setting           monoclinic
_symmetry_space_group_name_H-M   'C 2/c'
_symmetry_Int_Tables_number      15
_space_group_name_Hall           '-C 2yn'
loop_
_symmetry_equiv_pos_site_id
_symmetry_equiv_pos_as_xyz
1 x,y,z
2 1/2+x,1/2+y,z
3 -x,y,1/2-z
4 1/2-x,1/2+y,1/2-z
5 -x,-y,-z
6 1/2-x,1/2-y,-z
7 x,-y,1/2+z
8 1/2+x,1/2-y,1/2+z
_cell_length_a                   8.75580(10)
_cell_length_b                   16.6604(3)
_cell_length_c                   21.5919(4)
_cell_angle_alpha                90
_cell_angle_beta                 99.6544(7)
_cell_angle_gamma                90
_cell_volume                     3105.11
loop_
_atom_site_label
_atom_site_type_symbol
_atom_site_fract_x
_atom_site_fract_y
_atom_site_fract_z
Cu1 Cu 0.43908(5) 0.07243(2) -0.10679(2)
Cu2 Cu 0.42938(5) 0.43157(2) -0.10721(2)
Na1 Na 0.2500 0.2500 0.0000
Na2 Na 0.2500 0.7500 0.0000
Na3 Na 1.00316(18) 0.33871(9) -0.15926(8)
C1 C 0.6280(4) 0.1449(2) -0.18329(17)
C2 C 0.5637(4) 0.2124(2) -0.14953(17)
C3 C 0.5605(4) 0.2950(2) -0.14966(17)
C4 C 0.6274(4) 0.3628(2) -0.18084(17)
C5 C 0.3659(4) 0.5800(2) -0.05987(18)
C6 C 0.2903(4) 0.5207(2) -0.02317(17)
C7 C 0.2001(4) 0.5204(2) 0.02386(17)
C8 C 0.1323(4) 0.5791(2) 0.06360(18)
N1 N 0.4792(3) 0.18868(17) -0.10606(14)
N2 N 0.4252(3) 0.25213(15) -0.07923(14)
N3 N 0.4734(3) 0.31612(17) -0.10655(14)
N4 N 0.3099(3) 0.44305(17) -0.03762(14)
N5 N 0.2392(3) 0.39546(17) -0.00245(14)
N6 N 0.1725(3) 0.44177(17) 0.03511(14)
O1 O 0.5834(3) 0.07530(13) -0.16803(12)
O2 O 0.2156(3) 0.08458(15) -0.17553(12)
O3 O 0.7165(3) 0.15849(15) -0.22097(12)
O4 O 0.2082(3) 0.42672(13) -0.18185(12)
O5 O 0.7276(3) 0.35157(15) -0.21426(12)
O6 O 0.0842(3) 0.22128(16) -0.10380(13)
O7 O 0.5747(3) 0.43194(13) -0.16762(12)
O8 O 1.0000 0.2558(2) -0.2500
O9 O 0.4404(3) 0.54881(14) -0.09971(11)
O10 O 0.3531(3) 0.65310(13) -0.05125(12)
O11 O 0.1453(3) 0.65200(13) 0.05747(11)
O12 O 0.0570(3) 0.54566(14) 0.10305(11)
Cu1E Cu 0.06092(5) 0.42757(2) 0.10679(2)
Cu2E Cu 0.07062(5) 0.06843(2) 0.10721(2)
Na2_2 Na 0.2500 -0.2500 0.0000
Na3E Na -0.50316(18) 0.16129(9) 0.15926(8)
Na3_2 Na 0.00316(18) 0.33871(9) -0.15926(8)
Na3B Na 0.99684(18) 0.33871(9) -0.34074(8)
Na3D Na -0.00316(18) 0.66129(9) 0.15926(8)
Na3A Na 0.50316(18) -0.16129(9) -0.15926(8)
Na3E_2 Na 0.49684(18) 0.16129(9) 0.15926(8)
C1E C -0.1280(4) 0.3551(2) 0.18329(17)
C2E C -0.0637(4) 0.2876(2) 0.14953(17)
C3E C -0.0605(4) 0.2050(2) 0.14966(17)
C4E C -0.1274(4) 0.1372(2) 0.18084(17)
C5E C 0.1341(4) -0.0800(2) 0.05987(18)
C6E C 0.2097(4) -0.0207(2) 0.02317(17)
C7E C 0.2999(4) -0.0204(2) -0.02386(17)
C8E C 0.3677(4) -0.0791(2) -0.06360(18)
N1E N 0.0208(3) 0.31132(17) 0.10606(14)
N2E N 0.0748(3) 0.24787(15) 0.07923(14)
N3E N 0.0266(3) 0.18388(17) 0.10655(14)
N4E N 0.1901(3) 0.05695(17) 0.03762(14)
N5E N 0.2608(3) 0.10454(17) 0.00245(14)
N6E N 0.3275(3) 0.05823(17) -0.03511(14)
O1E O -0.0834(3) 0.42470(13) 0.16803(12)
O2E O 0.2844(3) 0.41542(15) 0.17553(12)
O3E O -0.2165(3) 0.34151(15) 0.22097(12)
O4_2 O 1.2082(3) 0.42672(13) -0.18185(12)
O4E O 0.2918(3) 0.07328(13) 0.18185(12)
O4E_2 O -0.7082(3) 0.07328(13) 0.18185(12)
O5E O -0.2276(3) 0.14843(15) 0.21426(12)
O6E O 0.4158(3) 0.27872(16) 0.10380(13)
O6_2 O 1.0842(3) 0.22128(16) -0.10380(13)
O6E_2 O -0.5842(3) 0.27872(16) 0.10380(13)
O7E O -0.0747(3) 0.06806(13) 0.16762(12)
O8G O -0.5000 0.2442(2) 0.2500
O9E O 0.0596(3) -0.04881(14) 0.09971(11)
O10E O 0.1469(3) -0.15310(13) 0.05125(12)
O10E_2 O 0.1469(3) 0.84690(13) 0.05125(12)
O11E O 0.3547(3) -0.15200(13) -0.05747(11)
O11E_2 O 0.3547(3) 0.84800(13) -0.05747(11)
O11D O 0.8547(3) 0.34800(13) -0.05747(11)
O11A O -0.3547(3) 0.15200(13) 0.05747(11)
O12E O 0.4430(3) -0.04566(14) -0.10305(11)
O12D O 0.9430(3) 0.45434(14) -0.10305(11)
O12A O -0.4430(3) 0.04566(14) 0.10305(11)
loop_
_geom_bond_atom_site_label_1
_geom_bond_atom_site_label_2
_geom_bond_site_symmetry_1
_geom_bond_site_symmetry_2
Cu1 N1 1_555 1_555
Cu2 N3 1_555 1_555
Na1 N2 1_555 1_555
Na2 O10 1_555 1_555
Na3 O5 1_555 1_555
C1 C2 1_555 1_555
C2 C3 1_555 1_555
C3 C4 1_555 1_555
C4 O5 1_555 1_555
C5 C6 1_555 1_555
C6 C7 1_555 1_555
C7 C8 1_555 1_555
C8 O11 1_555 1_555
N1 C2 1_555 1_555
N2 N1 1_555 1_555
N3 C3 1_555 1_555
N4 Cu2 1_555 1_555
N5 Na1 1_555 1_555
N6 C7 1_555 1_555
O1 Cu1 1_555 1_555
O2 Cu1 1_555 1_555
O3 C1 1_555 1_555
O4 Cu2 1_555 1_555
O6 Na1 1_555 1_555
O7 Cu2 1_555 1_555
O8 Na3 1_555 1_555
O9 Cu2 1_555 1_555
O10 C5 1_555 1_555
O11 Na2 1_555 1_555
O12 C8 1_555 1_555
Cu1E N6 1_555 1_555
Cu2E N3E 1_555 1_555
Na2_2 O10E 1_555 1_555
Na3E O4E_2 1_555 1_555
Na3_2 O4 1_555 1_555
Na3B O8 1_555 1_555
Na3D O11 1_555 1_555
Na3A O11E 1_555 1_555
Na3E_2 O4E 1_555 1_555
C1E C2E 1_555 1_555
C2E C3E 1_555 1_555
C3E C4E 1_555 1_555
C4E O5E 1_555 1_555
C5E C6E 1_555 1_555
C6E C7E 1_555 1_555
C7E C8E 1_555 1_555
C8E O11E 1_555 1_555
N1E Cu1E 1_555 1_555
N2E Na1 1_555 1_555
N3E C3E 1_555 1_555
N4E Cu2E 1_555 1_555
N5E Na1 1_555 1_555
N6E Cu1 1_555 1_555
O1E Cu1E 1_555 1_555
O2E Cu1E 1_555 1_555
O3E C1E 1_555 1_555
O4_2 Na3 1_555 1_555
O4E Cu2E 1_555 1_555
O5E Na3E 1_555 1_555
O6E Na1 1_555 1_555
O6_2 Na3 1_555 1_555
O6E_2 Na3E 1_555 1_555
O7E Cu2E 1_555 1_555
O8G Na3E 1_555 1_555
O9E Cu2E 1_555 1_555
O10E C5E 1_555 1_555
O10E_2 Na2 1_555 1_555
O11E Na2_2 1_555 1_555
O11E_2 Na2 1_555 1_555
O11D Na3 1_555 1_555
O11A Na3E 1_555 1_555
O12E Cu1 1_555 1_555
O12D Na3 1_555 1_555
O12A Na3E 1_555 1_555
C1 O1 1_555 1_555
C4 O7 1_555 1_555
C5 O9 1_555 1_555
C6 N4 1_555 1_555
N2 N3 1_555 1_555
N4 N5 1_555 1_555
N5 N6 1_555 1_555
O6 Na3_2 1_555 1_555
O12 Cu1E 1_555 1_555
O12 Na3D 1_555 1_555
Na3A O12E 1_555 1_555
Na3E_2 O6E 1_555 1_555
C1E O1E 1_555 1_555
C2E N1E 1_555 1_555
C4E O7E 1_555 1_555
C5E O9E 1_555 1_555
C6E N4E 1_555 1_555
C7E N6E 1_555 1_555
C8E O12E 1_555 1_555
N1E N2E 1_555 1_555
N2E N3E 1_555 1_555
N4E N5E 1_555 1_555
N5E N6E 1_555 1_555

#END
