
#######################################################################
#
#                 Cambridge Crystallographic Data Centre
#                                CCDC 
#
#######################################################################
#
# If this CIF has been generated from an entry in the Cambridge 
# Structural Database, then it will include bibliographic, chemical, 
# crystal, experimental, refinement or atomic coordinate data resulting 
# from the CCDC's data processing and validation procedures.
#
#######################################################################

data_EDIYIA
_symmetry_cell_setting           monoclinic
_symmetry_space_group_name_H-M   'P 21'
_symmetry_Int_Tables_number      4
_space_group_name_Hall           'P 2yb'
loop_
_symmetry_equiv_pos_site_id
_symmetry_equiv_pos_as_xyz
1 x,y,z
2 -x,1/2+y,-z
_cell_length_a                   9.2606(16)
_cell_length_b                   12.637(2)
_cell_length_c                   17.690(3)
_cell_angle_alpha                90
_cell_angle_beta                 90.756(3)
_cell_angle_gamma                90
_cell_volume                     2070.01
loop_
_atom_site_label
_atom_site_type_symbol
_atom_site_fract_x
_atom_site_fract_y
_atom_site_fract_z
Cu1 Cu 0.10426(6) 0.76844(6) 0.81460(4)
Cu2 Cu 0.60264(6) 0.73043(6) 0.77854(4)
C1 C 0.8578(15) 0.4786(10) 0.4153(5)
H1 H 0.7751 0.4328 0.4163
H2 H 0.9224 0.4554 0.3767
H3 H 0.8270 0.5497 0.4047
C2 C 0.8463(10) 0.4799(6) 0.5484(4)
C3 C 0.9340(9) 0.4814(6) 0.6169(5)
H4 H 1.0343 0.4800 0.6150
C4 C 0.8650(8) 0.4851(6) 0.6828(4)
H5 H 0.9202 0.4835 0.7271
C5 C 0.7116(7) 0.4912(5) 0.6893(3)
C6 C 0.6300(9) 0.4885(5) 0.6224(4)
C7 C 0.7036(10) 0.4839(6) 0.5500(4)
H6 H 0.6502 0.4838 0.5051
C8 C 0.6422(7) 0.5016(5) 0.7590(4)
H7 H 0.6969 0.5009 0.8035
C9 C 0.4933(6) 0.5130(5) 0.7627(4)
C10 C 0.4139(7) 0.5082(5) 0.6958(4)
H8 H 0.3138 0.5127 0.6977
C11 C 0.4786(8) 0.4970(6) 0.6268(4)
H9 H 0.4224 0.4951 0.5829
C12 C 0.4197(6) 0.5341(5) 0.8362(3)
H10 H 0.493(7) 0.543(5) 0.883(4)
C13 C 0.3306(7) 0.4404(5) 0.8650(4)
H11 H 0.2634 0.4649 0.9019
H12 H 0.3939 0.3888 0.8875
H13 H 0.2786 0.4088 0.8234
C14 C 0.3310(6) 0.6340(4) 0.8293(3)
C15 C 0.3567(6) 0.8986(5) 0.7972(4)
H14 H 0.4564 0.9044 0.7932
C16 C 0.2715(7) 0.9946(5) 0.7879(4)
C17 C 0.3441(8) 1.0896(6) 0.7746(5)
H15 H 0.4444 1.0910 0.7781
C18 C 0.2723(10) 1.1795(6) 0.7567(6)
H16 H 0.3227 1.2424 0.7500
C19 C 0.1218(10) 1.1774(5) 0.7483(5)
H17 H 0.0721 1.2372 0.7319
C20 C 0.0487(8) 1.0862(6) 0.7645(4)
H18 H -0.0517 1.0880 0.7636
C21 C 0.1170(7) 0.9903(5) 0.7824(4)
C22 C -0.2565(11) -0.0124(7) 0.9068(7)
H19 H -0.2214 0.0238 0.8631
H20 H -0.3019 -0.0774 0.8916
H21 H -0.1772 -0.0276 0.9406
C23 C -0.3221(8) 0.1582(6) 0.9501(5)
C24 C -0.4147(7) 0.2148(6) 0.9943(4)
H22 H -0.4924 0.1811 1.0168
C25 C -0.3932(7) 0.3200(6) 1.0054(4)
H23 H -0.4546 0.3573 1.0369
C26 C -0.2768(7) 0.3749(5) 0.9689(4)
C27 C -0.1877(7) 0.3141(6) 0.9200(4)
C28 C -0.2114(7) 0.2058(5) 0.9128(4)
H24 H -0.1513 0.1655 0.8825
C29 C -0.2515(7) 0.4826(6) 0.9805(4)
H25 H -0.3113 0.5208 1.0123
C30 C -0.1358(6) 0.5342(5) 0.9444(3)
C31 C -0.0487(7) 0.4719(5) 0.8970(4)
H26 H 0.0271 0.5040 0.8718
C32 C -0.0715(7) 0.3677(5) 0.8870(3)
H27 H -0.0080 0.3296 0.8571
C33 C -0.1091(6) 0.6526(5) 0.9484(3)
H28 H -0.007(7) 0.681(5) 0.939(4)
C34 C -0.1658(8) 0.7058(7) 1.0203(4)
H29 H -0.2689 0.6984 1.0219
H30 H -0.1410 0.7796 1.0198
H31 H -0.1230 0.6727 1.0640
C35 C -0.1810(6) 0.6973(4) 0.8759(4)
C36 C -0.1405(6) 0.7490(5) 0.6894(3)
H32 H -0.0406 0.7465 0.6853
C37 C -0.2236(6) 0.7617(6) 0.6218(3)
C38 C -0.1481(7) 0.7671(7) 0.5535(4)
H33 H -0.0477 0.7694 0.5552
C39 C -0.2158(9) 0.7692(8) 0.4860(4)
H34 H -0.1629 0.7669 0.4417
C40 C -0.3664(9) 0.7748(7) 0.4827(4)
H35 H -0.4140 0.7808 0.4363
C41 C -0.4443(7) 0.7714(7) 0.5485(4)
H36 H -0.5446 0.7720 0.5455
C42 C -0.3772(6) 0.7669(6) 0.6188(3)
N3 N 0.4001(5) 0.7233(4) 0.8160(3)
N4 N 0.3057(5) 0.8085(4) 0.8102(3)
N5 N -0.1022(4) 0.7194(4) 0.8192(3)
N6 N -0.1947(4) 0.7406(4) 0.7562(2)
O3 O 0.9292(8) 0.4757(6) 0.4858(4)
O4 O 0.1933(4) 0.6318(3) 0.8363(2)
O5 O 0.0397(5) 0.9092(4) 0.7970(3)
O6 O -0.3551(6) 0.0504(4) 0.9429(3)
O7 O -0.3184(4) 0.7015(3) 0.8771(2)
O8 O -0.4598(4) 0.7633(4) 0.6792(2)
Cu2_2 Cu -0.39736(6) 0.73043(6) 0.77854(4)
N6_2 N 0.8053(4) 0.7406(4) 0.7562(2)
O7_2 O 0.6816(4) 0.7015(3) 0.8771(2)
O8_2 O 0.5402(4) 0.7633(4) 0.6792(2)
C43 C 0.674(3) 0.0289(15) 0.6122(16)
H37 H 0.5878 0.0179 0.5828
H38 H 0.6568 0.0111 0.6640
H39 H 0.7500 -0.0153 0.5931
C44 C 0.697(3) 0.2080(17) 0.6712(14)
H40 H 0.7821 0.2506 0.6785
H41 H 0.6809 0.1664 0.7157
H42 H 0.6154 0.2530 0.6618
C45 C 0.796(2) 0.1861(13) 0.5468(10)
O1 O 0.7907(16) 0.1291(14) 0.4845(8)
N1 N 0.717(2) 0.1386(16) 0.6072(10)
O9 O 0.2168(6) 0.7218(7) 0.6562(3)
H49 H 0.219(9) 0.709(10) 0.6106(16)
H50 H 0.298(4) 0.736(10) 0.672(4)
O2? O 0.802(4) 0.225(3) 0.5110(19)
C46? C 0.775(3) 0.128(2) 0.5361(12)
C47? C 0.725(8) 0.226(3) 0.660(3)
H43? H 0.7814 0.2810 0.6371
H44? H 0.7617 0.2124 0.7101
H45? H 0.6263 0.2476 0.6624
C48? C 0.699(5) 0.037(3) 0.658(2)
H46? H 0.6002 0.0174 0.6472
H47? H 0.7094 0.0515 0.7112
H48? H 0.7612 -0.0204 0.6446
N2? N 0.736(3) 0.130(3) 0.6150(12)
loop_
_geom_bond_atom_site_label_1
_geom_bond_atom_site_label_2
_geom_bond_site_symmetry_1
_geom_bond_site_symmetry_2
Cu1 N4 1_555 1_555
Cu2 N3 1_555 1_555
C1 H1 1_555 1_555
H2 C1 1_555 1_555
H3 C1 1_555 1_555
C2 C3 1_555 1_555
C3 H4 1_555 1_555
C4 C3 1_555 1_555
H5 C4 1_555 1_555
C5 C4 1_555 1_555
C6 C5 1_555 1_555
C7 C2 1_555 1_555
H6 C7 1_555 1_555
C8 C5 1_555 1_555
H7 C8 1_555 1_555
C9 C8 1_555 1_555
C10 C9 1_555 1_555
H8 C10 1_555 1_555
C11 C6 1_555 1_555
H9 C11 1_555 1_555
C12 C9 1_555 1_555
H10 C12 1_555 1_555
C13 C12 1_555 1_555
H11 C13 1_555 1_555
H12 C13 1_555 1_555
H13 C13 1_555 1_555
C14 C12 1_555 1_555
C15 H14 1_555 1_555
C16 C15 1_555 1_555
C17 C16 1_555 1_555
H15 C17 1_555 1_555
C18 C17 1_555 1_555
H16 C18 1_555 1_555
C19 C18 1_555 1_555
H17 C19 1_555 1_555
C20 C19 1_555 1_555
H18 C20 1_555 1_555
C21 C16 1_555 1_555
C22 H19 1_555 1_555
H20 C22 1_555 1_555
H21 C22 1_555 1_555
C23 C24 1_555 1_555
C24 H22 1_555 1_555
C25 C24 1_555 1_555
H23 C25 1_555 1_555
C26 C25 1_555 1_555
C27 C26 1_555 1_555
C28 C23 1_555 1_555
H24 C28 1_555 1_555
C29 C26 1_555 1_555
H25 C29 1_555 1_555
C30 C29 1_555 1_555
C31 C30 1_555 1_555
H26 C31 1_555 1_555
C32 C27 1_555 1_555
H27 C32 1_555 1_555
C33 C30 1_555 1_555
H28 C33 1_555 1_555
C34 C33 1_555 1_555
H29 C34 1_555 1_555
H30 C34 1_555 1_555
H31 C34 1_555 1_555
C35 C33 1_555 1_555
C36 H32 1_555 1_555
C37 C36 1_555 1_555
C38 C37 1_555 1_555
H33 C38 1_555 1_555
C39 C38 1_555 1_555
H34 C39 1_555 1_555
C40 C39 1_555 1_555
H35 C40 1_555 1_555
C41 C40 1_555 1_555
H36 C41 1_555 1_555
C42 C37 1_555 1_555
C43 H37 1_555 1_555
H38 C43 1_555 1_555
H39 C43 1_555 1_555
C44 H40 1_555 1_555
H41 C44 1_555 1_555
H42 C44 1_555 1_555
C45 O1 1_555 1_555
N1 C43 1_555 1_555
N3 C14 1_555 1_555
N4 C15 1_555 1_555
N5 Cu1 1_555 1_555
N6 C36 1_555 1_555
O3 C1 1_555 1_555
O4 Cu1 1_555 1_555
O5 Cu1 1_555 1_555
O6 C22 1_555 1_555
O7 C35 1_555 1_555
O8 C42 1_555 1_555
O9 H49 1_555 1_555
H50 O9 1_555 1_555
Cu2_2 N6 1_555 1_555
N6_2 Cu2 1_555 1_555
O7_2 Cu2 1_555 1_555
O8_2 Cu2 1_555 1_555
C2 O3 1_555 1_555
C6 C7 1_555 1_555
C10 C11 1_555 1_555
C14 O4 1_555 1_555
C20 C21 1_555 1_555
C21 O5 1_555 1_555
C23 O6 1_555 1_555
C27 C28 1_555 1_555
C31 C32 1_555 1_555
C35 N5 1_555 1_555
C41 C42 1_555 1_555
C44 N1 1_555 1_555
C45 N1 1_555 1_555
N3 N4 1_555 1_555
N5 N6 1_555 1_555
O7 Cu2_2 1_555 1_555
O8 Cu2_2 1_555 1_555

#END
