
#######################################################################
#
#                 Cambridge Crystallographic Data Centre
#                                CCDC 
#
#######################################################################
#
# If this CIF has been generated from an entry in the Cambridge 
# Structural Database, then it will include bibliographic, chemical, 
# crystal, experimental, refinement or atomic coordinate data resulting 
# from the CCDC's data processing and validation procedures.
#
#######################################################################

data_EDOGUZ
_symmetry_cell_setting           monoclinic
_symmetry_space_group_name_H-M   'C 2/c'
_symmetry_Int_Tables_number      15
_space_group_name_Hall           '-C 2yn'
loop_
_symmetry_equiv_pos_site_id
_symmetry_equiv_pos_as_xyz
1 x,y,z
2 x,-y,1/2+z
3 1/2+x,1/2+y,z
4 1/2+x,1/2-y,1/2+z
5 -x,-y,-z
6 -x,y,1/2-z
7 1/2-x,1/2-y,-z
8 1/2-x,1/2+y,1/2-z
_cell_length_a                   10.739(3)
_cell_length_b                   19.527(1)
_cell_length_c                   11.208(1)
_cell_angle_alpha                90
_cell_angle_beta                 92.29(2)
_cell_angle_gamma                90
_cell_volume                     2348.45
loop_
_atom_site_label
_atom_site_type_symbol
_atom_site_fract_x
_atom_site_fract_y
_atom_site_fract_z
Ag1 Ag 0.0000 0.29506(1) 0.2500
S1 S -0.11381(7) -0.01853(4) 0.62535(6)
S2 S -0.19963(7) 0.06990(4) 0.67125(6)
N1 N -0.0942(2) 0.2252(1) 0.3871(2)
N2 N -0.3730(2) -0.1427(1) 0.3769(2)
C1 C -0.2643(3) -0.1671(1) 0.4232(2)
C2 C -0.1866(3) -0.1301(1) 0.4993(2)
C3 C -0.2200(3) -0.0634(1) 0.5301(2)
C4 C -0.3317(3) -0.0376(1) 0.4829(2)
C5 C -0.4039(3) -0.0788(1) 0.4075(2)
C6 C -0.1313(2) 0.1616(1) 0.3563(2)
C7 C -0.1616(3) 0.1118(1) 0.4376(2)
C8 C -0.1563(2) 0.1286(1) 0.5585(2)
C9 C -0.1209(3) 0.1944(1) 0.5923(2)
C10 C -0.0902(3) 0.2408(1) 0.5041(3)
H1 H -0.2402 -0.2123 0.4023
H2 H -0.1111 -0.1496 0.5307
H3 H -0.3583 0.0077 0.5020
H4 H -0.4803 -0.0606 0.3755
H5 H -0.1369 0.1503 0.2731
H6 H -0.1856 0.0671 0.4121
H7 H -0.1181 0.2076 0.6736
H8 H -0.0651 0.2858 0.5278
S1E S 0.11381(7) -0.01853(4) -0.12535(6)
S2E S 0.19963(7) 0.06990(4) -0.17125(6)
N1E N 0.0942(2) 0.2252(1) 0.1129(2)
N2E N 0.3730(2) -0.1427(1) 0.1231(2)
C1E C 0.2643(3) -0.1671(1) 0.0768(2)
C2E C 0.1866(3) -0.1301(1) 0.0007(2)
C3E C 0.2200(3) -0.0634(1) -0.0301(2)
C4E C 0.3317(3) -0.0376(1) 0.0171(2)
C5E C 0.4039(3) -0.0788(1) 0.0925(2)
C6E C 0.1313(2) 0.1616(1) 0.1437(2)
C7E C 0.1616(3) 0.1118(1) 0.0624(2)
C8E C 0.1563(2) 0.1286(1) -0.0585(2)
C9E C 0.1209(3) 0.1944(1) -0.0923(2)
C10E C 0.0902(3) 0.2408(1) -0.0041(3)
H1E H 0.2402 -0.2123 0.0977
H2E H 0.1111 -0.1496 -0.0307
H3E H 0.3583 0.0077 -0.0020
H4E H 0.4803 -0.0606 0.1245
H5E H 0.1369 0.1503 0.2269
H6E H 0.1856 0.0671 0.0879
H7E H 0.1181 0.2076 -0.1736
H8E H 0.0651 0.2858 -0.0278
N2B N 0.1270(2) 0.3573(1) 0.3769(2)
N2G N -0.1270(2) 0.3573(1) 0.1231(2)
Ag1B Ag -0.5000 -0.20494(1) 0.2500
Ag1B_2 Ag 0.5000 -0.20494(1) 0.2500
Cl1 Cl 0.0000 0.36787(5) -0.2500
O1 O 0.0558(3) 0.4089(2) -0.1567(3)
O2 O 0.0948(2) 0.3250(1) -0.2992(2)
O1E O -0.0558(3) 0.4089(2) -0.3433(3)
O2E O -0.0948(2) 0.3250(1) -0.2008(2)
loop_
_geom_bond_atom_site_label_1
_geom_bond_atom_site_label_2
_geom_bond_site_symmetry_1
_geom_bond_site_symmetry_2
Ag1 N1 1_555 1_555
Cl1 O1 1_555 1_555
S1 S2 1_555 1_555
S2 C8 1_555 1_555
O2 Cl1 1_555 1_555
N1 C6 1_555 1_555
N2 C1 1_555 1_555
C1 C2 1_555 1_555
C2 C3 1_555 1_555
C3 S1 1_555 1_555
C4 C3 1_555 1_555
C5 N2 1_555 1_555
C6 C7 1_555 1_555
C7 C8 1_555 1_555
C8 C9 1_555 1_555
C9 C10 1_555 1_555
C10 N1 1_555 1_555
H1 C1 1_555 1_555
H2 C2 1_555 1_555
H3 C4 1_555 1_555
H4 C5 1_555 1_555
H5 C6 1_555 1_555
H6 C7 1_555 1_555
H7 C9 1_555 1_555
H8 C10 1_555 1_555
O1E Cl1 1_555 1_555
O2E Cl1 1_555 1_555
S1E S2E 1_555 1_555
S2E C8E 1_555 1_555
N1E Ag1 1_555 1_555
N2E C1E 1_555 1_555
C1E C2E 1_555 1_555
C2E C3E 1_555 1_555
C3E S1E 1_555 1_555
C4E C3E 1_555 1_555
C5E N2E 1_555 1_555
C6E N1E 1_555 1_555
C7E C6E 1_555 1_555
C8E C7E 1_555 1_555
C9E C8E 1_555 1_555
C10E N1E 1_555 1_555
H1E C1E 1_555 1_555
H2E C2E 1_555 1_555
H3E C4E 1_555 1_555
H4E C5E 1_555 1_555
H5E C6E 1_555 1_555
H6E C7E 1_555 1_555
H7E C9E 1_555 1_555
H8E C10E 1_555 1_555
N2B Ag1 1_555 1_555
N2G Ag1 1_555 1_555
Ag1B N2 1_555 1_555
Ag1B_2 N2E 1_555 1_555
C4 C5 1_555 1_555
C4E C5E 1_555 1_555
C9E C10E 1_555 1_555

#END
