
#######################################################################
#
#                 Cambridge Crystallographic Data Centre
#                                CCDC 
#
#######################################################################
#
# If this CIF has been generated from an entry in the Cambridge 
# Structural Database, then it will include bibliographic, chemical, 
# crystal, experimental, refinement or atomic coordinate data resulting 
# from the CCDC's data processing and validation procedures.
#
#######################################################################

data_EDOHEK
_symmetry_cell_setting           monoclinic
_symmetry_space_group_name_H-M   'P 21/c'
_symmetry_Int_Tables_number      14
_space_group_name_Hall           '-P 2ybc'
loop_
_symmetry_equiv_pos_site_id
_symmetry_equiv_pos_as_xyz
1 x,y,z
2 x,1/2-y,1/2+z
3 -x,-y,-z
4 -x,1/2+y,1/2-z
_cell_length_a                   4.957(2)
_cell_length_b                   19.291(3)
_cell_length_c                   15.335(2)
_cell_angle_alpha                90
_cell_angle_beta                 91.76(2)
_cell_angle_gamma                90
_cell_volume                     1465.73
loop_
_atom_site_label
_atom_site_type_symbol
_atom_site_fract_x
_atom_site_fract_y
_atom_site_fract_z
Ag1 Ag 0.4659(2) 0.26513(5) 0.35179(8)
S1 S -0.4272(6) 0.0079(1) 0.1196(2)
S2 S -0.5112(6) 0.0400(2) 0.2413(2)
N1 N 0.144(2) 0.1962(4) 0.3137(6)
N2 N 0.220(2) -0.1590(4) 0.1424(6)
C1 C 0.135(2) -0.1263(6) 0.2144(7)
C2 C -0.058(2) -0.0753(5) 0.2122(6)
C3 C -0.180(2) -0.0563(5) 0.1332(6)
C4 C -0.102(2) -0.0918(6) 0.0586(6)
C5 C 0.091(2) -0.1416(6) 0.0670(7)
C6 C 0.042(3) 0.1920(5) 0.2342(7)
C7 C -0.153(2) 0.1457(6) 0.2074(7)
C8 C -0.253(2) 0.1020(5) 0.2667(7)
C9 C -0.158(3) 0.1065(7) 0.3526(7)
C10 C 0.036(3) 0.1532(7) 0.3720(7)
H1 H 0.2167 -0.1380 0.2692
H2 H -0.1098 -0.0543 0.2646
H3 H -0.1788 -0.0812 0.0028
H4 H 0.1404 -0.1661 0.0161
H5 H 0.1107 0.2231 0.1921
H6 H -0.2169 0.1437 0.1487
H7 H -0.2298 0.0777 0.3964
H8 H 0.1024 0.1557 0.4307
N2C N 0.780(2) 0.3410(4) 0.3576(6)
Ag1C Ag 0.5341(2) -0.23487(5) 0.14821(8)
O1 O 0.400(3) 0.2820(7) 0.5466(8)
O2 O 0.454(3) 0.1983(7) 0.6371(6)
O3 O 0.606(4) 0.1968(9) 0.513(1)
N3 N 0.485(2) 0.2252(6) 0.5663(7)
N4 N 0.8992 0.0766 0.5769
C11 C 1.1431 0.0692 0.5673
C12 C 1.4227 0.0392 0.5421
H9 H 1.5614 0.0707 0.5597
H10 H 1.4513 -0.0040 0.5705
H11 H 1.4253 0.0328 0.4807
loop_
_geom_bond_atom_site_label_1
_geom_bond_atom_site_label_2
_geom_bond_site_symmetry_1
_geom_bond_site_symmetry_2
Ag1 N1 1_555 1_555
S1 S2 1_555 1_555
S2 C8 1_555 1_555
O1 N3 1_555 1_555
O2 N3 1_555 1_555
O3 N3 1_555 1_555
N1 C6 1_555 1_555
N2 C1 1_555 1_555
N4 C11 1_555 1_555
C1 C2 1_555 1_555
C2 C3 1_555 1_555
C3 S1 1_555 1_555
C4 C3 1_555 1_555
C5 N2 1_555 1_555
C6 C7 1_555 1_555
C7 C8 1_555 1_555
C8 C9 1_555 1_555
C9 C10 1_555 1_555
C10 N1 1_555 1_555
C11 C12 1_555 1_555
C12 H9 1_555 1_555
H1 C1 1_555 1_555
H2 C2 1_555 1_555
H3 C4 1_555 1_555
H4 C5 1_555 1_555
H5 C6 1_555 1_555
H6 C7 1_555 1_555
H7 C9 1_555 1_555
H8 C10 1_555 1_555
H10 C12 1_555 1_555
H11 C12 1_555 1_555
N2C Ag1 1_555 1_555
Ag1C N2 1_555 1_555
C4 C5 1_555 1_555

#END
