
#######################################################################
#
#                 Cambridge Crystallographic Data Centre
#                                CCDC 
#
#######################################################################
#
# If this CIF has been generated from an entry in the Cambridge 
# Structural Database, then it will include bibliographic, chemical, 
# crystal, experimental, refinement or atomic coordinate data resulting 
# from the CCDC's data processing and validation procedures.
#
#######################################################################

data_EDOKUE
_symmetry_cell_setting           orthorhombic
_symmetry_space_group_name_H-M   'P b c a'
_symmetry_Int_Tables_number      61
_space_group_name_Hall           '-P 2ac 2ab'
loop_
_symmetry_equiv_pos_site_id
_symmetry_equiv_pos_as_xyz
1 x,y,z
2 1/2-x,-y,1/2+z
3 -x,1/2+y,1/2-z
4 1/2+x,1/2-y,-z
5 -x,-y,-z
6 1/2+x,y,1/2-z
7 x,1/2-y,1/2+z
8 1/2-x,1/2+y,z
_cell_length_a                   19.954(2)
_cell_length_b                   8.8187(9)
_cell_length_c                   22.344(2)
_cell_angle_alpha                90
_cell_angle_beta                 90
_cell_angle_gamma                90
_cell_volume                     3931.84
loop_
_atom_site_label
_atom_site_type_symbol
_atom_site_fract_x
_atom_site_fract_y
_atom_site_fract_z
Eu1 Eu 0.232968(7) 0.154133(16) 0.449677(6)
Ag1 Ag 0.128059(14) 0.41935(3) 0.331135(12)
O1 O 0.22950(10) -0.0944(2) 0.40182(9)
O2 O 0.26206(14) 0.2810(3) 0.54411(10)
O3 O 0.18433(11) -0.3060(2) 0.37067(10)
N1 N 0.08837(15) 0.1487(3) 0.29306(13)
O4 O 0.16319(12) 0.1666(2) 0.36768(10)
O5 O 0.31997(12) 0.4860(3) 0.51695(10)
N2 N -0.03567(13) 0.5222(3) 0.61436(11)
O6 O 0.13948(11) 0.2974(3) 0.48188(11)
C1 C 0.00765(17) 0.6318(4) 0.59938(15)
H1 H 0.0001 0.7293 0.6137
O7 O 0.17022(11) 0.5392(3) 0.48757(11)
N3 N 0.33281(16) 0.5182(3) 0.73828(12)
C2 C 0.13209(14) 0.0788(3) 0.33074(13)
C3 C -0.02343(16) 0.3826(4) 0.59344(14)
H2 H -0.0529 0.3049 0.6035
C4 C 0.06316(17) 0.6067(4) 0.56368(15)
H3 H 0.0921 0.6859 0.5544
C5 C 0.3670(2) 0.5776(5) 0.69373(17)
H4 H 0.4006 0.6471 0.7027
C6 C 0.0567(2) -0.0917(4) 0.25168(17)
H5 H 0.0301 -0.1462 0.2251
C7 C 0.2855(2) 0.4181(5) 0.72450(16)
H6 H 0.2602 0.3761 0.7552
C8 C 0.05310(19) 0.0641(4) 0.25511(16)
H7 H 0.0240 0.1135 0.2291
C9 C 0.07502(14) 0.4623(4) 0.54196(13)
C10 C 0.13305(14) 0.4299(4) 0.50039(14)
C11 C 0.03116(16) 0.3487(4) 0.55749(14)
H8 H 0.0380 0.2501 0.5440
C12 C 0.3558(2) 0.5423(5) 0.63408(16)
H9 H 0.3804 0.5893 0.6040
C13 C 0.30761(17) 0.4367(4) 0.62009(14)
C14 C 0.2723(2) 0.3739(5) 0.66605(16)
H10 H 0.2395 0.3015 0.6583
C15 C 0.29497(18) 0.3971(4) 0.55519(13)
C16 C 0.10145(17) -0.1634(4) 0.28937(15)
H11 H 0.1057 -0.2684 0.2880
C17 C 0.14015(14) -0.0807(3) 0.32927(13)
C18 C 0.18694(14) -0.1634(3) 0.36901(12)
Eu1G Eu 0.267032(7) -0.345867(16) 0.449677(6)
Eu1G_2 Eu 0.267032(7) 0.654133(16) 0.449677(6)
Ag1D Ag -0.128059(14) 0.58065(3) 0.668865(12)
Ag1A Ag 0.371941(14) 0.58065(3) 0.831135(12)
O1G O 0.27050(10) 0.4056(2) 0.40182(9)
O3G O 0.31567(11) 0.1940(2) 0.37067(10)
O5G O 0.18003(12) -0.0140(3) 0.51695(10)
N2D N 0.03567(13) 0.4778(3) 0.38564(11)
O7G O 0.32978(11) 0.0392(3) 0.48757(11)
N3A N 0.16719(16) 0.4818(3) 0.23828(12)
O8 O 0.0486(4) -0.0023(9) 0.4566(3)
loop_
_geom_bond_atom_site_label_1
_geom_bond_atom_site_label_2
_geom_bond_site_symmetry_1
_geom_bond_site_symmetry_2
Eu1 O1 1_555 1_555
Ag1 N1 1_555 1_555
O1 C18 1_555 1_555
O2 Eu1 1_555 1_555
O3 C18 1_555 1_555
N1 C2 1_555 1_555
O4 Eu1 1_555 1_555
O5 C15 1_555 1_555
N2 C1 1_555 1_555
O6 Eu1 1_555 1_555
C1 H1 1_555 1_555
O7 C10 1_555 1_555
N3 C5 1_555 1_555
C2 O4 1_555 1_555
C3 N2 1_555 1_555
H2 C3 1_555 1_555
C4 C1 1_555 1_555
H3 C4 1_555 1_555
C5 H4 1_555 1_555
C6 H5 1_555 1_555
C7 N3 1_555 1_555
H6 C7 1_555 1_555
C8 N1 1_555 1_555
H7 C8 1_555 1_555
C9 C4 1_555 1_555
C10 O6 1_555 1_555
C11 C3 1_555 1_555
H8 C11 1_555 1_555
C12 C5 1_555 1_555
H9 C12 1_555 1_555
C13 C12 1_555 1_555
C14 C7 1_555 1_555
H10 C14 1_555 1_555
C15 O2 1_555 1_555
C16 C6 1_555 1_555
H11 C16 1_555 1_555
C17 C2 1_555 1_555
C18 C17 1_555 1_555
Eu1G O1 1_555 1_555
Eu1G_2 O5 1_555 1_555
Ag1D N2 1_555 1_555
Ag1A N3 1_555 1_555
O1G Eu1 1_555 1_555
O3G Eu1 1_555 1_555
O5G Eu1 1_555 1_555
N2D Ag1 1_555 1_555
O7G Eu1 1_555 1_555
N3A Ag1 1_555 1_555
Ag1 O4 1_555 1_555
O3 Eu1G 1_555 1_555
O7 Eu1G_2 1_555 1_555
C6 C8 1_555 1_555
C9 C10 1_555 1_555
C9 C11 1_555 1_555
C13 C14 1_555 1_555
C13 C15 1_555 1_555
C16 C17 1_555 1_555
Eu1G_2 O1G 1_555 1_555

#END
