
#######################################################################
#
#                 Cambridge Crystallographic Data Centre
#                                CCDC 
#
#######################################################################
#
# If this CIF has been generated from an entry in the Cambridge 
# Structural Database, then it will include bibliographic, chemical, 
# crystal, experimental, refinement or atomic coordinate data resulting 
# from the CCDC's data processing and validation procedures.
#
#######################################################################

data_EDOKOY
_symmetry_cell_setting           orthorhombic
_symmetry_space_group_name_H-M   'P b c a'
_symmetry_Int_Tables_number      61
_space_group_name_Hall           '-P 2ac 2ab'
loop_
_symmetry_equiv_pos_site_id
_symmetry_equiv_pos_as_xyz
1 x,y,z
2 1/2-x,-y,1/2+z
3 -x,1/2+y,1/2-z
4 1/2+x,1/2-y,-z
5 -x,-y,-z
6 1/2+x,y,1/2-z
7 x,1/2-y,1/2+z
8 1/2-x,1/2+y,z
_cell_length_a                   20.070(4)
_cell_length_b                   8.8346(19)
_cell_length_c                   22.339(5)
_cell_angle_alpha                90
_cell_angle_beta                 90
_cell_angle_gamma                90
_cell_volume                     3960.94
loop_
_atom_site_label
_atom_site_type_symbol
_atom_site_fract_x
_atom_site_fract_y
_atom_site_fract_z
Nd1 Nd 0.233286(12) 0.34953(3) 0.450096(10)
Ag1 Ag 0.12584(2) 0.08638(4) 0.329800(18)
C1 C 0.1399(2) 0.5846(5) 0.32808(19)
O1 O 0.22922(15) 0.5972(3) 0.39944(13)
O2 O 0.16203(17) 0.3372(3) 0.36740(14)
O3 O 0.18354(16) 0.8092(3) 0.36951(15)
N1 N 0.0880(2) 0.3546(4) 0.29241(18)
O4 O 0.2600(2) 0.2282(5) 0.54827(15)
O5 O 0.3178(2) 0.0283(4) 0.51700(15)
C2 C 0.0080(3) -0.1327(6) 0.5986(2)
H1 H 0.0009 -0.2308 0.6123
C3 C 0.1310(2) 0.4251(5) 0.3302(2)
O6 O 0.13731(17) 0.2096(5) 0.48430(16)
N2 N -0.03541(19) -0.0256(5) 0.61428(16)
C4 C 0.3674(3) -0.0786(7) 0.6926(3)
H2 H 0.4008 -0.1488 0.7004
N3 N 0.3339(2) -0.0224(5) 0.73808(18)
C5 C 0.2719(3) 0.1236(6) 0.6687(2)
H3 H 0.2381 0.1939 0.6623
C6 C 0.2867(3) 0.0770(7) 0.7260(2)
H4 H 0.2624 0.1174 0.7576
O7 O 0.16901(18) -0.0323(5) 0.48753(16)
C7 C 0.1008(2) 0.6664(5) 0.2879(2)
H5 H 0.1047 0.7712 0.2861
C8 C 0.3067(3) 0.0666(5) 0.6215(2)
C9 C 0.0624(2) -0.1059(6) 0.5634(2)
H6 H 0.0912 -0.1844 0.5534
C10 C -0.0242(2) 0.1153(5) 0.5946(2)
H7 H -0.0539 0.1914 0.6052
C11 C 0.0565(3) 0.5934(6) 0.2510(2)
H8 H 0.0298 0.6473 0.2245
C12 C 0.3552(3) -0.0379(7) 0.6335(2)
H9 H 0.3797 -0.0811 0.6026
C13 C 0.0529(3) 0.4389(6) 0.2545(2)
H10 H 0.0239 0.3895 0.2285
C14 C 0.2933(3) 0.1130(6) 0.5570(2)
C15 C 0.1860(2) 0.6667(5) 0.36724(18)
C16 C 0.0297(2) 0.1517(5) 0.5593(2)
H11 H 0.0361 0.2510 0.5467
C17 C 0.0743(2) 0.0402(6) 0.54269(19)
C18 C 0.1318(2) 0.0758(7) 0.5012(2)
Nd1G Nd 0.266714(12) 0.84953(3) 0.450096(10)
Nd1G_2 Nd 0.266714(12) -0.15047(3) 0.450096(10)
Ag1D Ag -0.12584(2) -0.08638(4) 0.670200(18)
Ag1A Ag 0.37416(2) -0.08638(4) 0.829800(18)
O1G O 0.27078(15) 0.0972(3) 0.39944(13)
O3G O 0.31646(16) 0.3092(3) 0.36951(15)
O5G O 0.1822(2) 0.5283(4) 0.51700(15)
N2D N 0.03541(19) 0.0256(5) 0.38572(16)
N3A N 0.1661(2) 0.0224(5) 0.23808(18)
O7G O 0.33099(18) 0.4677(5) 0.48753(16)
O8 O 0.0496(4) 0.5050(10) 0.4577(4)
loop_
_geom_bond_atom_site_label_1
_geom_bond_atom_site_label_2
_geom_bond_site_symmetry_1
_geom_bond_site_symmetry_2
Nd1 O1 1_555 1_555
Ag1 O2 1_555 1_555
C1 C3 1_555 1_555
O1 C15 1_555 1_555
O2 Nd1 1_555 1_555
O3 C15 1_555 1_555
N1 Ag1 1_555 1_555
O4 Nd1 1_555 1_555
O5 C14 1_555 1_555
C2 H1 1_555 1_555
C3 O2 1_555 1_555
O6 Nd1 1_555 1_555
N2 C2 1_555 1_555
C4 H2 1_555 1_555
N3 C4 1_555 1_555
C5 H3 1_555 1_555
C6 N3 1_555 1_555
H4 C6 1_555 1_555
O7 C18 1_555 1_555
C7 C1 1_555 1_555
H5 C7 1_555 1_555
C8 C5 1_555 1_555
C9 C2 1_555 1_555
H6 C9 1_555 1_555
C10 N2 1_555 1_555
H7 C10 1_555 1_555
C11 C7 1_555 1_555
H8 C11 1_555 1_555
C12 C4 1_555 1_555
H9 C12 1_555 1_555
C13 N1 1_555 1_555
H10 C13 1_555 1_555
C14 O4 1_555 1_555
C15 C1 1_555 1_555
C16 C10 1_555 1_555
H11 C16 1_555 1_555
C17 C9 1_555 1_555
C18 O6 1_555 1_555
Nd1G O1 1_555 1_555
Nd1G_2 O5 1_555 1_555
Ag1D N2 1_555 1_555
Ag1A N3 1_555 1_555
O1G Nd1 1_555 1_555
O3G Nd1 1_555 1_555
O5G Nd1 1_555 1_555
N2D Ag1 1_555 1_555
N3A Ag1 1_555 1_555
O7G Nd1 1_555 1_555
O3 Nd1G 1_555 1_555
N1 C3 1_555 1_555
C5 C6 1_555 1_555
O7 Nd1G_2 1_555 1_555
C8 C12 1_555 1_555
C8 C14 1_555 1_555
C11 C13 1_555 1_555
C16 C17 1_555 1_555
C17 C18 1_555 1_555
Nd1G_2 O1G 1_555 1_555

#END
