
#######################################################################
#
#                 Cambridge Crystallographic Data Centre
#                                CCDC 
#
#######################################################################
#
# If this CIF has been generated from an entry in the Cambridge 
# Structural Database, then it will include bibliographic, chemical, 
# crystal, experimental, refinement or atomic coordinate data resulting 
# from the CCDC's data processing and validation procedures.
#
#######################################################################

data_EDOTUN01
_symmetry_cell_setting           monoclinic
_symmetry_space_group_name_H-M   'P 21/c'
_symmetry_Int_Tables_number      14
_space_group_name_Hall           '-P 2ybc'
loop_
_symmetry_equiv_pos_site_id
_symmetry_equiv_pos_as_xyz
1 x,y,z
2 -x,1/2+y,1/2-z
3 -x,-y,-z
4 x,1/2-y,1/2+z
_cell_length_a                   6.9872(14)
_cell_length_b                   26.781(5)
_cell_length_c                   21.822(4)
_cell_angle_alpha                90
_cell_angle_beta                 92.10(3)
_cell_angle_gamma                90
_cell_volume                     4080.68
loop_
_atom_site_label
_atom_site_type_symbol
_atom_site_fract_x
_atom_site_fract_y
_atom_site_fract_z
C1 C -0.3814(6) -0.40900(17) -0.3054(2)
C2 C -0.3256(6) -0.45873(16) -0.3314(2)
C3 C -0.3476(7) -0.46854(17) -0.3938(2)
H1 H -0.3904 -0.4436 -0.4206
C4 C -0.3057(7) -0.51568(18) -0.4161(2)
H2 H -0.3184 -0.5221 -0.4579
C5 C -0.2453(6) -0.55301(18) -0.3763(2)
H3 H -0.2182 -0.5846 -0.3916
C6 C -0.2243(6) -0.54390(17) -0.3135(2)
C7 C -0.2615(6) -0.49621(17) -0.2916(2)
H4 H -0.2433 -0.4893 -0.2500
C8 C -0.1703(7) -0.58470(17) -0.2691(2)
C9 C -0.1559(6) -0.59061(18) 0.2606(2)
C10 C -0.1814(6) -0.54992(17) 0.3058(2)
C11 C -0.1429(7) -0.55765(18) 0.3685(2)
H5 H -0.1015 -0.5888 0.3825
C12 C -0.1663(7) -0.51907(19) 0.4096(2)
H6 H -0.1374 -0.5242 0.4510
C13 C -0.2325(7) -0.47267(18) 0.3898(2)
H7 H -0.2512 -0.4471 0.4179
C14 C -0.2705(6) -0.46486(17) 0.32731(19)
C15 C -0.2419(6) -0.50315(17) 0.2857(2)
H8 H -0.2635 -0.4974 0.2440
C16 C -0.3514(6) -0.41604(17) 0.3043(2)
C17 C -0.2369(6) -0.74026(17) 0.61421(19)
C18 C -0.1842(6) -0.76840(17) 0.55777(19)
C19 C -0.0993(7) -0.81489(18) 0.5630(2)
H9 H -0.0781 -0.8290 0.6016
C20 C -0.0454(7) -0.84068(17) 0.5114(2)
H10 H 0.0142 -0.8716 0.5153
C21 C -0.0811(7) -0.81995(18) 0.4539(2)
H11 H -0.0447 -0.8371 0.4192
C22 C -0.1711(6) -0.77356(17) 0.4477(2)
C23 C -0.2211(6) -0.74753(17) 0.49984(19)
H12 H -0.2789 -0.7163 0.4962
C24 C -0.2143(6) -0.75220(18) 0.3855(2)
C25 C -0.3080(6) -0.25498(17) 0.11804(19)
C26 C -0.2694(6) -0.22683(17) 0.06015(19)
C27 C -0.3025(6) -0.25043(17) 0.00392(19)
H13 H -0.3510 -0.2828 0.0023
C28 C -0.2625(6) -0.22530(17) -0.04976(19)
C29 C -0.1895(7) -0.17701(18) -0.0474(2)
H14 H -0.1632 -0.1602 -0.0834
C30 C -0.1562(7) -0.15417(18) 0.0089(2)
H15 H -0.1058 -0.1221 0.0107
C31 C -0.1979(7) -0.17912(17) 0.06256(19)
H16 H -0.1774 -0.1634 0.1003
C32 C -0.2964(7) -0.25130(17) -0.10988(19)
Co1 Co -0.35534(9) -0.35246(2) 0.18500(3)
Co2 Co -0.30581(8) -0.25257(2) 0.25427(2)
Co3 Co -0.34342(9) -0.34832(2) -0.18031(3)
H17 H -0.616(4) -0.296(2) 0.224(2)
H18 H -0.029(7) -0.302(2) 0.203(2)
H19 H -0.610(7) -0.206(3) 0.289(3)
H20 H -0.040(7) -0.324(2) -0.245(2)
H21 H -0.674(9) -0.395(2) 0.164(3)
H22 H -0.209(11) -0.4292(12) 0.130(4)
H23 H -0.575(12) -0.370(3) -0.0977(19)
H24 H -0.069(7) -0.405(3) -0.159(3)
H25 H -0.033(7) -0.3316(19) 0.251(2)
H26 H -0.017(8) -0.295(3) -0.196(3)
H27 H -0.671(13) -0.353(2) 0.133(5)
H28 H -0.083(6) -0.404(2) 0.166(2)
H29 H -0.657(7) -0.389(3) -0.157(3)
H30 H -0.219(9) -0.4247(15) -0.128(3)
O1 O -0.4694(5) -0.37967(12) -0.34221(15)
O2 O -0.3445(6) -0.40113(13) -0.25020(16)
O3 O -0.1650(5) -0.62939(12) -0.28940(16)
O4 O -0.1347(5) -0.57330(13) -0.21391(16)
O5 O -0.1429(5) -0.63575(12) 0.28118(15)
O6 O -0.1461(5) -0.57997(13) 0.20482(15)
O7 O -0.4082(5) -0.38533(12) 0.34425(15)
O8 O -0.3637(5) -0.40943(13) 0.24747(15)
O9 O -0.3264(5) -0.69934(12) 0.60652(14)
O10 O -0.1945(5) -0.75821(13) 0.66651(14)
O11 O -0.2840(5) -0.70852(13) 0.38374(14)
O12 O -0.1839(5) -0.77808(15) 0.33871(15)
O13 O -0.3483(5) -0.30039(12) 0.11521(14)
O14 O -0.2945(5) -0.22934(12) 0.16723(14)
O15 O -0.3335(5) -0.29724(12) -0.10969(13)
O16 O -0.2807(5) -0.22482(12) -0.15805(13)
O17 O -0.5124(5) -0.30695(12) 0.24019(14)
O18 O -0.1058(5) -0.31320(12) 0.22883(14)
O19 O -0.5166(4) -0.19826(11) 0.26708(14)
O20 O -0.1034(5) -0.30631(12) -0.22021(14)
O21 O -0.6075(6) -0.38015(15) 0.13860(17)
O22 O -0.1721(5) -0.39976(13) 0.13874(15)
O23 O -0.5619(6) -0.38310(15) -0.13253(17)
O24 O -0.1590(5) -0.39789(12) -0.13494(15)
Zn1 Zn -0.37746(8) -0.67418(2) 0.31098(2)
Zn2 Zn -0.59026(8) -0.33306(2) 0.31916(2)
Co2C Co -0.30581(8) -0.24743(2) -0.24573(2)
Co3C Co -0.34342(9) -0.15168(2) 0.31969(3)
H19C H -0.610(7) -0.294(3) -0.211(3)
H19A H -0.390(7) -0.706(3) 0.211(3)
H20C H -0.040(7) -0.176(2) 0.255(2)
H26C H -0.017(8) -0.205(3) 0.304(3)
O1B O -0.5306(5) -0.62033(12) 0.34221(15)
O3B O -0.8350(5) -0.37061(12) 0.28940(16)
O9B O -0.6736(5) -0.30066(12) 0.39348(14)
O16C O -0.2807(5) -0.27518(12) 0.34195(13)
O19C O -0.5166(4) -0.30174(11) -0.23292(14)
O19A O -0.4834(4) -0.69826(11) 0.23292(14)
O20C O -0.1034(5) -0.19369(12) 0.27979(14)
Zn1B Zn -0.62254(8) -0.32582(2) -0.31098(2)
Zn1A Zn -0.62254(8) -0.17418(2) 0.18902(2)
Zn2B Zn -0.40974(8) -0.66694(2) -0.31916(2)
Zn2B_2 Zn -0.40974(8) -0.66694(2) 0.68084(2)
O25 O -0.2930(7) -0.00054(16) 0.6180(2)
O26 O -0.7841(13) -0.0375(3) 0.4975(5)
O27 O -0.6289(19) -0.3838(5) 0.5087(5)
O28 O -0.4744(10) -0.1133(2) 0.5045(3)
O29 O -0.7039(8) -0.9973(2) 0.6209(3)
O30 O -0.8181(12) -0.9634(3) 0.5004(3)
O31? O -0.636(2) -0.9637(6) 0.5636(6)
loop_
_geom_bond_atom_site_label_1
_geom_bond_atom_site_label_2
_geom_bond_site_symmetry_1
_geom_bond_site_symmetry_2
C1 C2 1_555 1_555
C2 C3 1_555 1_555
C3 H1 1_555 1_555
C4 C3 1_555 1_555
H2 C4 1_555 1_555
C5 C4 1_555 1_555
H3 C5 1_555 1_555
C6 C5 1_555 1_555
C7 C2 1_555 1_555
H4 C7 1_555 1_555
C8 C6 1_555 1_555
C9 C10 1_555 1_555
C10 C11 1_555 1_555
C11 H5 1_555 1_555
C12 C11 1_555 1_555
H6 C12 1_555 1_555
C13 C12 1_555 1_555
H7 C13 1_555 1_555
C14 C13 1_555 1_555
C15 C10 1_555 1_555
H8 C15 1_555 1_555
C16 C14 1_555 1_555
C17 C18 1_555 1_555
C18 C19 1_555 1_555
C19 H9 1_555 1_555
C20 C19 1_555 1_555
H10 C20 1_555 1_555
C21 C20 1_555 1_555
H11 C21 1_555 1_555
C22 C21 1_555 1_555
C23 C18 1_555 1_555
H12 C23 1_555 1_555
C24 C22 1_555 1_555
C25 C26 1_555 1_555
C26 C27 1_555 1_555
C27 H13 1_555 1_555
C28 C27 1_555 1_555
C29 C28 1_555 1_555
H14 C29 1_555 1_555
C30 C29 1_555 1_555
H15 C30 1_555 1_555
C31 C26 1_555 1_555
H16 C31 1_555 1_555
C32 C28 1_555 1_555
Co1 O8 1_555 1_555
Co2 O14 1_555 1_555
Co3 O2 1_555 1_555
H17 O17 1_555 1_555
H18 O18 1_555 1_555
H19 O19 1_555 1_555
H20 O20 1_555 1_555
H21 O21 1_555 1_555
H22 O22 1_555 1_555
H23 O23 1_555 1_555
H24 O24 1_555 1_555
H25 O18 1_555 1_555
H26 O20 1_555 1_555
H27 O21 1_555 1_555
H28 O22 1_555 1_555
H29 O23 1_555 1_555
H30 O24 1_555 1_555
O1 C1 1_555 1_555
O2 C1 1_555 1_555
O3 C8 1_555 1_555
O4 C8 1_555 1_555
O5 C9 1_555 1_555
O6 C9 1_555 1_555
O7 C16 1_555 1_555
O8 C16 1_555 1_555
O9 C17 1_555 1_555
O10 C17 1_555 1_555
O11 C24 1_555 1_555
O12 C24 1_555 1_555
O13 C25 1_555 1_555
O14 C25 1_555 1_555
O15 C32 1_555 1_555
O16 C32 1_555 1_555
O17 Co1 1_555 1_555
O18 Co1 1_555 1_555
O19 Co2 1_555 1_555
O20 Co3 1_555 1_555
O21 Co1 1_555 1_555
O22 Co1 1_555 1_555
O23 Co3 1_555 1_555
O24 Co3 1_555 1_555
Zn1 O5 1_555 1_555
Zn2 O7 1_555 1_555
Co2C O16 1_555 1_555
Co3C O19 1_555 1_555
H19C O19C 1_555 1_555
H19A O19A 1_555 1_555
H20C O20C 1_555 1_555
H26C O20C 1_555 1_555
O1B Zn1 1_555 1_555
O3B Zn2 1_555 1_555
O9B Zn2 1_555 1_555
O16C Co2 1_555 1_555
O19C Co3 1_555 1_555
O19A Zn1 1_555 1_555
O20C Co2 1_555 1_555
Zn1B O1 1_555 1_555
Zn1A O19 1_555 1_555
Zn2B O3 1_555 1_555
Zn2B_2 O9 1_555 1_555
C6 C7 1_555 1_555
C14 C15 1_555 1_555
C22 C23 1_555 1_555
C30 C31 1_555 1_555
Co1 O13 1_555 1_555
Co2 O17 1_555 1_555
Co2 O18 1_555 1_555
Co3 O15 1_555 1_555
O11 Zn1 1_555 1_555
O17 Zn2 1_555 1_555
O20 Co2C 1_555 1_555
Co2C O19C 1_555 1_555
Co3C O20C 1_555 1_555
O19C Zn1B 1_555 1_555

#END
