
#######################################################################
#
#                 Cambridge Crystallographic Data Centre
#                                CCDC 
#
#######################################################################
#
# If this CIF has been generated from an entry in the Cambridge 
# Structural Database, then it will include bibliographic, chemical, 
# crystal, experimental, refinement or atomic coordinate data resulting 
# from the CCDC's data processing and validation procedures.
#
#######################################################################

data_EDOVIC
_symmetry_cell_setting           monoclinic
_symmetry_space_group_name_H-M   'P 21/c'
_symmetry_Int_Tables_number      14
_space_group_name_Hall           '-P 2ybc'
loop_
_symmetry_equiv_pos_site_id
_symmetry_equiv_pos_as_xyz
1 x,y,z
2 -x,1/2+y,1/2-z
3 -x,-y,-z
4 x,1/2-y,1/2+z
_cell_length_a                   8.157(4)
_cell_length_b                   19.586(11)
_cell_length_c                   7.404(2)
_cell_angle_alpha                90
_cell_angle_beta                 92.80(3)
_cell_angle_gamma                90
_cell_volume                     1181.47
loop_
_atom_site_label
_atom_site_type_symbol
_atom_site_fract_x
_atom_site_fract_y
_atom_site_fract_z
Ag1 Ag 1.0000 0.0000 1.0000
N1 N 0.8671(4) -0.0174(3) 0.7462(4)
C1 C 0.6001(5) -0.0455(4) 0.2371(5)
O1 O 0.5353(4) -0.1001(3) 0.2045(3)
C2 C 0.7618(5) 0.0269(3) 0.4650(5)
H1 H 0.7488(5) 0.0640(3) 0.3872(5)
O2 O 0.5942(5) 0.0072(2) 0.1347(4)
H2 H 0.5000 0.0000 0.0000
C3 C 0.6973(4) -0.0353(3) 0.4162(4)
C4 C 0.8057(6) -0.0789(4) 0.6985(6)
H3 H 0.8208(6) -0.1154(4) 0.7777(6)
C5 C 0.8460(5) 0.0343(3) 0.6299(5)
H4 H 0.8897(5) 0.0768(3) 0.6612(5)
C6 C 0.7205(6) -0.0890(4) 0.5342(5)
H5 H 0.6792(6) -0.1319(4) 0.5038(5)
O2B O 0.4058(5) -0.0072(2) -0.1347(4)
C1B C 0.3999(5) 0.0455(4) -0.2371(5)
O1B O 0.4647(4) 0.1001(3) -0.2045(3)
C3B C 0.3027(4) 0.0353(3) -0.4162(4)
C2B C 0.2382(5) -0.0269(3) -0.4650(5)
H1B H 0.2512(5) -0.0640(3) -0.3872(5)
C5B C 0.1540(5) -0.0343(3) -0.6299(5)
N1B N 0.1329(4) 0.0174(3) -0.7462(4)
C4B C 0.1943(6) 0.0789(4) -0.6985(6)
H3B H 0.1792(6) 0.1154(4) -0.7777(6)
C6B C 0.2795(6) 0.0890(4) -0.5342(5)
H5B H 0.3208(6) 0.1319(4) -0.5038(5)
H4B H 0.1103(5) -0.0768(3) -0.6612(5)
N1B_2 N 1.1329(4) 0.0174(3) 1.2538(4)
Ag1_2 Ag 0.0000 0.0000 -1.0000
Ag2 Ag 0.64705(3) -0.22768(3) 0.22477(4)
O3 O 0.8596(4) -0.2458(2) 0.0749(4)
C7 C 0.9548(5) -0.1948(5) 0.0650(5)
O4 O 0.9298(3) -0.1358(3) 0.1121(4)
N2 N 1.4212(4) -0.2451(3) -0.1489(4)
C8 C 1.3143(4) -0.2941(3) -0.1086(5)
H6 H 1.3428(4) -0.3396(3) -0.1256(5)
C9 C 1.3798(5) -0.1802(4) -0.1219(5)
H7 H 1.4539(5) -0.1460(4) -0.1487(5)
C10 C 1.1186(4) -0.2124(4) -0.0142(4)
C11 C 1.2299(4) -0.1620(3) -0.0550(4)
H8 H 1.2045(4) -0.1162(3) -0.0378(4)
C12 C 1.1622(5) -0.2791(4) -0.0421(5)
H9 H 1.0900(5) -0.3141(4) -0.0166(5)
O3C O -0.1404(4) -0.2542(2) 0.5749(4)
C7C C -0.0452(5) -0.3052(5) 0.5650(5)
O4C O -0.0702(3) -0.3642(3) 0.6121(4)
N2C N 0.4212(4) -0.2549(3) 0.3511(4)
C8C C 0.3143(4) -0.2059(3) 0.3914(5)
H6C H 0.3428(4) -0.1604(3) 0.3744(5)
C9C C 0.3798(5) -0.3198(4) 0.3781(5)
H7C H 0.4539(5) -0.3540(4) 0.3513(5)
C10C C 0.1186(4) -0.2876(4) 0.4858(4)
C11C C 0.2299(4) -0.3380(3) 0.4450(4)
H8C H 0.2045(4) -0.3838(3) 0.4622(4)
C12C C 0.1622(5) -0.2209(4) 0.4579(5)
H9C H 0.0900(5) -0.1859(4) 0.4834(5)
Ag2C Ag -0.35295(3) -0.27232(3) 0.72477(4)
Ag2C_2 Ag 1.64705(3) -0.27232(3) -0.27523(4)
N2_2 N -0.5788(4) -0.2451(3) 0.8511(4)
loop_
_geom_bond_atom_site_label_1
_geom_bond_atom_site_label_2
_geom_bond_site_symmetry_1
_geom_bond_site_symmetry_2
Ag1 N1 1_555 1_555
N1 C4 1_555 1_555
C1 O1 1_555 1_555
C2 H1 1_555 1_555
O2 C1 1_555 1_555
H2 O2 1_555 1_555
C3 C1 1_555 1_555
C4 H3 1_555 1_555
C5 N1 1_555 1_555
H4 C5 1_555 1_555
C6 C3 1_555 1_555
H5 C6 1_555 1_555
Ag2 O3 1_555 1_555
O3 C7 1_555 1_555
C7 O4 1_555 1_555
N2 C8 1_555 1_555
C8 H6 1_555 1_555
C9 N2 1_555 1_555
H7 C9 1_555 1_555
C10 C7 1_555 1_555
C11 C9 1_555 1_555
H8 C11 1_555 1_555
C12 C8 1_555 1_555
H9 C12 1_555 1_555
O2B H2 1_555 1_555
C1B O2B 1_555 1_555
O1B C1B 1_555 1_555
C3B C1B 1_555 1_555
C2B C3B 1_555 1_555
H1B C2B 1_555 1_555
C5B C2B 1_555 1_555
N1B C5B 1_555 1_555
C4B N1B 1_555 1_555
H3B C4B 1_555 1_555
C6B C3B 1_555 1_555
H5B C6B 1_555 1_555
H4B C5B 1_555 1_555
N1B_2 Ag1 1_555 1_555
Ag1_2 N1B 1_555 1_555
O3C C7C 1_555 1_555
C7C O4C 1_555 1_555
N2C Ag2 1_555 1_555
C8C N2C 1_555 1_555
H6C C8C 1_555 1_555
C9C N2C 1_555 1_555
H7C C9C 1_555 1_555
C10C C7C 1_555 1_555
C11C C9C 1_555 1_555
H8C C11C 1_555 1_555
C12C C8C 1_555 1_555
H9C C12C 1_555 1_555
Ag2C O3C 1_555 1_555
Ag2C_2 N2 1_555 1_555
N2_2 Ag2C 1_555 1_555
C2 C3 1_555 1_555
C2 C5 1_555 1_555
C4 C6 1_555 1_555
C10 C11 1_555 1_555
C10 C12 1_555 1_555
C4B C6B 1_555 1_555
C10C C11C 1_555 1_555
C10C C12C 1_555 1_555

#END
