
#######################################################################
#
#                 Cambridge Crystallographic Data Centre
#                                CCDC 
#
#######################################################################
#
# If this CIF has been generated from an entry in the Cambridge 
# Structural Database, then it will include bibliographic, chemical, 
# crystal, experimental, refinement or atomic coordinate data resulting 
# from the CCDC's data processing and validation procedures.
#
#######################################################################

data_EDUDAK01
_symmetry_cell_setting           monoclinic
_symmetry_space_group_name_H-M   'P 21/n'
_symmetry_Int_Tables_number      14
_space_group_name_Hall           '-P 2yn'
loop_
_symmetry_equiv_pos_site_id
_symmetry_equiv_pos_as_xyz
1 x,y,z
2 1/2-x,1/2+y,1/2-z
3 -x,-y,-z
4 1/2+x,1/2-y,1/2+z
_cell_length_a                   7.6394(2)
_cell_length_b                   11.4084(3)
_cell_length_c                   11.8859(3)
_cell_angle_alpha                90
_cell_angle_beta                 91.400(3)
_cell_angle_gamma                90
_cell_volume                     1035.59
loop_
_atom_site_label
_atom_site_type_symbol
_atom_site_fract_x
_atom_site_fract_y
_atom_site_fract_z
Ca1 Ca 0.52934(6) 0.05116(4) 0.15934(4)
N1 N 0.7147(3) -0.06656(19) 0.30758(18)
C1 C 0.7871(3) -0.1723(2) 0.2914(2)
H1 H 0.7786 -0.2031 0.2190
N2 N 0.8700(3) -0.23732(19) 0.36919(18)
C2 C 0.8816(3) -0.1919(2) 0.4733(2)
C3 C 0.8168(3) -0.0819(2) 0.4979(2)
H2 H 0.8297 -0.0500 0.5696
C4 C 0.7316(3) -0.0208(2) 0.4113(2)
C5 C 0.6477(3) 0.0973(2) 0.4280(2)
O1 O 0.5527(2) 0.13570(15) 0.34772(15)
O2 O 0.6776(3) 0.14833(16) 0.51956(15)
C6 C 0.9581(3) -0.2703(2) 0.5655(2)
O3 O 0.9957(2) -0.37459(15) 0.53873(15)
O4 O 0.9691(2) -0.22666(16) 0.66195(15)
O5 O 0.3311(2) -0.08440(16) 0.26102(15)
O6 O 0.8233(2) 0.04170(17) 0.09719(16)
O7 O 0.2429(2) 0.13904(17) 0.14577(16)
H3 H 0.3791 -0.1453 0.2335
H4 H 0.3283 -0.0991 0.3316
H5 H 0.8933 -0.0165 0.1009
H6 H 0.8535 0.0781 0.0378
H7 H 0.1685 0.1488 0.2000
H8 H 0.2515 0.2076 0.1121
Ca1A Ca 0.97066(6) -0.44884(4) 0.34066(4)
Ca1C Ca 1.02934(6) -0.55116(4) 0.65934(4)
N2A N 0.6300(3) 0.26268(19) 0.13081(18)
O3A O 0.5043(2) 0.12541(15) -0.03873(15)
O3C O 0.4957(2) -0.12541(15) 0.03873(15)
O8 O 0.4316(2) 0.35929(16) 0.39653(16)
H9 H 0.3687 0.3796 0.3374
H10 H 0.4473 0.2836 0.3907
loop_
_geom_bond_atom_site_label_1
_geom_bond_atom_site_label_2
_geom_bond_site_symmetry_1
_geom_bond_site_symmetry_2
Ca1 N1 1_555 1_555
N1 C1 1_555 1_555
C1 H1 1_555 1_555
N2 C1 1_555 1_555
C2 N2 1_555 1_555
C3 C2 1_555 1_555
H2 C3 1_555 1_555
C4 N1 1_555 1_555
C5 C4 1_555 1_555
O1 Ca1 1_555 1_555
O2 C5 1_555 1_555
C6 C2 1_555 1_555
O3 C6 1_555 1_555
O4 C6 1_555 1_555
O5 Ca1 1_555 1_555
O6 Ca1 1_555 1_555
O7 Ca1 1_555 1_555
H3 O5 1_555 1_555
H4 O5 1_555 1_555
H5 O6 1_555 1_555
H6 O6 1_555 1_555
H7 O7 1_555 1_555
H8 O7 1_555 1_555
O8 H9 1_555 1_555
H10 O8 1_555 1_555
Ca1A N2 1_555 1_555
Ca1C O3 1_555 1_555
N2A Ca1 1_555 1_555
O3A Ca1 1_555 1_555
O3C Ca1 1_555 1_555
C3 C4 1_555 1_555
C5 O1 1_555 1_555
O3 Ca1A 1_555 1_555

#END
