
#######################################################################
#
#                 Cambridge Crystallographic Data Centre
#                                CCDC 
#
#######################################################################
#
# If this CIF has been generated from an entry in the Cambridge 
# Structural Database, then it will include bibliographic, chemical, 
# crystal, experimental, refinement or atomic coordinate data resulting 
# from the CCDC's data processing and validation procedures.
#
#######################################################################

data_EDUMOH
_symmetry_cell_setting           monoclinic
_symmetry_space_group_name_H-M   'P 21/c'
_symmetry_Int_Tables_number      14
_space_group_name_Hall           '-P 2ybc'
loop_
_symmetry_equiv_pos_site_id
_symmetry_equiv_pos_as_xyz
1 x,y,z
2 -x,1/2+y,1/2-z
3 -x,-y,-z
4 x,1/2-y,1/2+z
_cell_length_a                   13.1628(18)
_cell_length_b                   10.9926(18)
_cell_length_c                   16.315(2)
_cell_angle_alpha                90
_cell_angle_beta                 110.412(4)
_cell_angle_gamma                90
_cell_volume                     2212.44
loop_
_atom_site_label
_atom_site_type_symbol
_atom_site_fract_x
_atom_site_fract_y
_atom_site_fract_z
Ag1 Ag 0.82406(3) 0.44988(5) 0.68283(2)
Ag2 Ag 0.45572(3) 0.48314(3) 0.614910(19)
O1 O 0.6234(2) 0.4403(3) 0.57575(15)
O2 O 1.0680(3) 0.1718(4) 0.3037(2)
H1 H 1.0946 0.1023 0.3041
O3 O 0.6612(3) 0.8349(3) 1.07189(16)
H2 H 0.6532 0.9104 1.0744
N1 N 0.5108(3) 0.0936(3) 0.24501(19)
N2 N 0.6020(2) 0.3906(3) 0.49497(17)
N3 N 0.8829(3) 0.3913(4) 0.5817(2)
N4 N 1.0390(3) 0.1859(5) 0.3770(2)
N5 N 0.7900(3) 0.5396(4) 0.7881(2)
N6 N 0.6741(3) 0.8056(3) 0.99397(19)
C1 C 0.5737(3) 0.1916(4) 0.2613(2)
H3 H 0.5978 0.2198 0.2175
C2 C 0.6052(3) 0.2537(4) 0.3395(2)
H4 H 0.6491 0.3223 0.3475
C3 C 0.5710(3) 0.2131(4) 0.4062(2)
C4 C 0.5075(4) 0.1096(4) 0.3898(2)
H5 H 0.4840 0.0783 0.4331
C5 C 0.4786(4) 0.0526(4) 0.3098(3)
H6 H 0.4354 -0.0166 0.3001
C6 C 0.5966(3) 0.2758(4) 0.4903(2)
H7 H 0.6089 0.2305 0.5410
C7 C 0.9441(4) 0.2916(5) 0.5886(3)
H8 H 0.9633 0.2467 0.6401
C8 C 0.9799(4) 0.2525(5) 0.5230(3)
H9 H 1.0224 0.1830 0.5305
C9 C 0.9516(3) 0.3179(4) 0.4458(3)
C10 C 0.8877(3) 0.4200(5) 0.4382(3)
H10 H 0.8670 0.4666 0.3874
C11 C 0.8553(4) 0.4518(5) 0.5069(3)
H11 H 0.8114 0.5200 0.5005
C12 C 0.9898(4) 0.2858(5) 0.3741(3)
H12 H 0.9781 0.3383 0.3270
C13 C 0.7989(4) 0.4791(5) 0.8613(3)
H13 H 0.8249 0.3997 0.8674
C14 C 0.7717(4) 0.5284(4) 0.9274(3)
H14 H 0.7795 0.4827 0.9772
C15 C 0.7327(3) 0.6453(4) 0.9210(2)
C16 C 0.7235(3) 0.7088(4) 0.8454(2)
H15 H 0.6980 0.7885 0.8378
C17 C 0.7525(4) 0.6524(5) 0.7817(3)
H16 H 0.7454 0.6960 0.7311
C18 C 0.7078(3) 0.6971(4) 0.9947(2)
H17 H 0.7171 0.6489 1.0437
Ag2C Ag 0.45572(3) 0.01686(3) 0.114910(19)
Ag2B Ag 0.54428(3) 0.51686(3) 0.385090(19)
N1C N 0.5108(3) 0.4064(3) 0.74501(19)
N2B N 0.3980(2) 0.6094(3) 0.50503(17)
O4 O 1.1249(5) -0.0582(8) 0.3006(6)
O5 O 1.2395(7) -0.1874(9) 0.2869(8)
O6 O 1.2906(5) -0.0465(7) 0.3833(5)
N7 N 1.2216(8) -0.0974(7) 0.3251(6)
N8? N 1.2207(7) -0.0713(10) 0.3065(6)
O7? O 1.1788(14) -0.0670(13) 0.3637(8)
O8? O 1.2614(15) -0.1635(11) 0.2915(11)
O9? O 1.2181(13) 0.0236(10) 0.2655(8)
loop_
_geom_bond_atom_site_label_1
_geom_bond_atom_site_label_2
_geom_bond_site_symmetry_1
_geom_bond_site_symmetry_2
Ag1 O1 1_555 1_555
Ag2 O1 1_555 1_555
O1 N2 1_555 1_555
O2 H1 1_555 1_555
O3 H2 1_555 1_555
O4 N7 1_555 1_555
O5 N7 1_555 1_555
O6 N7 1_555 1_555
N1 C1 1_555 1_555
N2 C6 1_555 1_555
N3 Ag1 1_555 1_555
N4 O2 1_555 1_555
N5 Ag1 1_555 1_555
N6 O3 1_555 1_555
C1 H3 1_555 1_555
C2 C1 1_555 1_555
H4 C2 1_555 1_555
C3 C2 1_555 1_555
C4 C3 1_555 1_555
H5 C4 1_555 1_555
C5 N1 1_555 1_555
H6 C5 1_555 1_555
C6 C3 1_555 1_555
H7 C6 1_555 1_555
C7 N3 1_555 1_555
H8 C7 1_555 1_555
C8 C7 1_555 1_555
H9 C8 1_555 1_555
C9 C8 1_555 1_555
C10 C9 1_555 1_555
H10 C10 1_555 1_555
C11 N3 1_555 1_555
H11 C11 1_555 1_555
C12 N4 1_555 1_555
H12 C12 1_555 1_555
C13 N5 1_555 1_555
H13 C13 1_555 1_555
C14 C13 1_555 1_555
H14 C14 1_555 1_555
C15 C14 1_555 1_555
C16 C15 1_555 1_555
H15 C16 1_555 1_555
C17 N5 1_555 1_555
H16 C17 1_555 1_555
C18 N6 1_555 1_555
H17 C18 1_555 1_555
Ag2C N1 1_555 1_555
Ag2B N2 1_555 1_555
N1C Ag2 1_555 1_555
N2B Ag2 1_555 1_555
C4 C5 1_555 1_555
C9 C12 1_555 1_555
C10 C11 1_555 1_555
C15 C18 1_555 1_555
C16 C17 1_555 1_555

#END
