
#######################################################################
#
#                 Cambridge Crystallographic Data Centre
#                                CCDC 
#
#######################################################################
#
# If this CIF has been generated from an entry in the Cambridge 
# Structural Database, then it will include bibliographic, chemical, 
# crystal, experimental, refinement or atomic coordinate data resulting 
# from the CCDC's data processing and validation procedures.
#
#######################################################################

data_EDUNIB
_symmetry_cell_setting           orthorhombic
_symmetry_space_group_name_H-M   'F d d 2'
_symmetry_Int_Tables_number      43
_space_group_name_Hall           'F 2 -2d'
loop_
_symmetry_equiv_pos_site_id
_symmetry_equiv_pos_as_xyz
1 x,y,z
2 -x,-y,z
3 1/4+x,1/4-y,1/4+z
4 1/4-x,1/4+y,1/4+z
5 x,1/2+y,1/2+z
6 -x,1/2-y,1/2+z
7 1/4+x,3/4-y,3/4+z
8 1/4-x,3/4+y,3/4+z
9 1/2+x,y,1/2+z
10 1/2-x,-y,1/2+z
11 3/4+x,1/4-y,3/4+z
12 3/4-x,1/4+y,3/4+z
13 1/2+x,1/2+y,z
14 1/2-x,1/2-y,z
15 3/4+x,3/4-y,1/4+z
16 3/4-x,3/4+y,1/4+z
_cell_length_a                   20.194(5)
_cell_length_b                   25.528(8)
_cell_length_c                   11.458(6)
_cell_angle_alpha                90
_cell_angle_beta                 90
_cell_angle_gamma                90
_cell_volume                     5906.74
loop_
_atom_site_label
_atom_site_type_symbol
_atom_site_fract_x
_atom_site_fract_y
_atom_site_fract_z
C1 C 0.02754(11) 0.72498(7) 0.2397(2)
C2 C 0.06452(12) 0.70605(8) 0.1464(2)
H1 H 0.0606 0.7211 0.0729
C3 C 0.10706(13) 0.66457(8) 0.1647(2)
H2 H 0.1336 0.6521 0.1045
C4 C 0.10952(13) 0.64206(9) 0.2733(3)
C5 C 0.07313(15) 0.66025(11) 0.3662(3)
H3 H 0.0760 0.6444 0.4391
C6 C 0.03208(14) 0.70286(10) 0.3482(2)
H4 H 0.0076 0.7165 0.4099
C7 C 0.02983(10) 0.82874(7) 0.1969(2)
H5 H 0.0576 0.8306 0.2658
H6 H 0.0579 0.8213 0.1302
C8 C -0.00572(11) 0.88119(7) 0.17876(17)
C9 C 0.01985(13) 1.04164(8) 0.4480(2)
H7 H 0.0347 1.0708 0.4071
C10 C 0.01934(16) 1.04353(10) 0.5687(2)
H8 H 0.0319 1.0739 0.6075
C11 C 0.0000 1.0000 0.6309(3)
C12 C 0.0000 1.0000 0.7607(3)
C13 C 0.03379(13) 0.96210(9) 0.8246(2)
H9 H 0.0567 0.9357 0.7861
C14 C 0.03333(11) 0.96369(8) 0.9447(2)
H10 H 0.0572 0.9384 0.9852
Cl1 Cl 0.16118(5) 0.58797(3) 0.29340(12)
N1 N 0.0000 1.0000 0.3880(2)
N2 N 0.0000 1.0000 1.0064(2)
O1 O -0.06247(10) 0.78794(6) 0.32997(18)
O2 O -0.06317(9) 0.88029(6) 0.14055(18)
O3 O 0.02837(7) 0.92075(5) 0.20348(13)
O4 O 0.10101(7) 1.02337(5) 0.19763(13)
H11 H 0.1242 1.0061 0.1491
H12 H 0.0997 1.0558 0.1805
S1 S -0.03021(3) 0.777363(17) 0.21386(5)
Zn1 Zn 0.0000 1.0000 0.198249(18)
C1A C -0.02754(11) 1.27502(7) 0.2397(2)
C2A C -0.06452(12) 1.29395(8) 0.1464(2)
H1A H -0.0606 1.2789 0.0729
C3A C -0.10706(13) 1.33543(8) 0.1647(2)
H2A H -0.1336 1.3479 0.1045
C4A C -0.10952(13) 1.35794(9) 0.2733(3)
C5A C -0.07313(15) 1.33975(11) 0.3662(3)
H3A H -0.0760 1.3556 0.4391
C6A C -0.03208(14) 1.29714(10) 0.3482(2)
H4A H -0.0076 1.2835 0.4099
C7A C -0.02983(10) 1.17126(7) 0.1969(2)
H5A H -0.0576 1.1694 0.2658
H6A H -0.0579 1.1787 0.1302
C8A C 0.00572(11) 1.11881(7) 0.17876(17)
C9A C -0.01985(13) 0.95836(8) 0.4480(2)
H7A H -0.0347 0.9292 0.4071
C10A C -0.01934(16) 0.95647(10) 0.5687(2)
H8A H -0.0319 0.9261 0.6075
C13A C -0.03379(13) 1.03790(9) 0.8246(2)
H9A H -0.0567 1.0643 0.7861
C14A C -0.03333(11) 1.03631(8) 0.9447(2)
H10A H -0.0572 1.0616 0.9852
Cl1A Cl -0.16118(5) 1.41203(3) 0.29340(12)
N2_2 N 0.0000 1.0000 0.0064(2)
O1A O 0.06247(10) 1.21206(6) 0.32997(18)
O2A O 0.06317(9) 1.11971(6) 0.14055(18)
O3A O -0.02837(7) 1.07925(5) 0.20348(13)
O4A O -0.10101(7) 0.97663(5) 0.19763(13)
H11A H -0.1242 0.9939 0.1491
H12A H -0.0997 0.9442 0.1805
S1A S 0.03021(3) 1.222637(17) 0.21386(5)
Zn1_2 Zn 0.0000 1.0000 1.198249(18)
loop_
_geom_bond_atom_site_label_1
_geom_bond_atom_site_label_2
_geom_bond_site_symmetry_1
_geom_bond_site_symmetry_2
C1 C2 1_555 1_555
C2 H1 1_555 1_555
C3 C2 1_555 1_555
H2 C3 1_555 1_555
C4 C3 1_555 1_555
C5 C4 1_555 1_555
H3 C5 1_555 1_555
C6 C1 1_555 1_555
H4 C6 1_555 1_555
C7 H5 1_555 1_555
H6 C7 1_555 1_555
C8 C7 1_555 1_555
C9 H7 1_555 1_555
C10 C9 1_555 1_555
H8 C10 1_555 1_555
C11 C10 1_555 1_555
C12 C11 1_555 1_555
C13 C12 1_555 1_555
H9 C13 1_555 1_555
C14 C13 1_555 1_555
H10 C14 1_555 1_555
Cl1 C4 1_555 1_555
N1 C9 1_555 1_555
N2 C14 1_555 1_555
O1 S1 1_555 1_555
O2 C8 1_555 1_555
O3 C8 1_555 1_555
O4 H11 1_555 1_555
H12 O4 1_555 1_555
S1 C1 1_555 1_555
Zn1 N1 1_555 1_555
C1A C2A 1_555 1_555
C2A H1A 1_555 1_555
C3A C2A 1_555 1_555
H2A C3A 1_555 1_555
C4A C3A 1_555 1_555
C5A C4A 1_555 1_555
H3A C5A 1_555 1_555
C6A C1A 1_555 1_555
H4A C6A 1_555 1_555
C7A H5A 1_555 1_555
H6A C7A 1_555 1_555
C8A C7A 1_555 1_555
C9A N1 1_555 1_555
H7A C9A 1_555 1_555
C10A C11 1_555 1_555
H8A C10A 1_555 1_555
C13A C12 1_555 1_555
H9A C13A 1_555 1_555
C14A N2 1_555 1_555
H10A C14A 1_555 1_555
Cl1A C4A 1_555 1_555
N2_2 Zn1 1_555 1_555
O1A S1A 1_555 1_555
O2A C8A 1_555 1_555
O3A Zn1 1_555 1_555
O4A Zn1 1_555 1_555
H11A O4A 1_555 1_555
H12A O4A 1_555 1_555
S1A C1A 1_555 1_555
Zn1_2 N2 1_555 1_555
C5 C6 1_555 1_555
C7 S1 1_555 1_555
O3 Zn1 1_555 1_555
O4 Zn1 1_555 1_555
C5A C6A 1_555 1_555
C7A S1A 1_555 1_555
C8A O3A 1_555 1_555
C9A C10A 1_555 1_555
C13A C14A 1_555 1_555

#END
