
#######################################################################
#
#                 Cambridge Crystallographic Data Centre
#                                CCDC 
#
#######################################################################
#
# If this CIF has been generated from an entry in the Cambridge 
# Structural Database, then it will include bibliographic, chemical, 
# crystal, experimental, refinement or atomic coordinate data resulting 
# from the CCDC's data processing and validation procedures.
#
#######################################################################

data_EDUPUP
_symmetry_cell_setting           triclinic
_symmetry_space_group_name_H-M   'P -1'
_symmetry_Int_Tables_number      2
_space_group_name_Hall           '-P 1'
loop_
_symmetry_equiv_pos_site_id
_symmetry_equiv_pos_as_xyz
1 x,y,z
2 -x,-y,-z
_cell_length_a                   8.851(6)
_cell_length_b                   9.139(6)
_cell_length_c                   12.458(6)
_cell_angle_alpha                72.19(2)
_cell_angle_beta                 77.68(3)
_cell_angle_gamma                78.69(2)
_cell_volume                     928.009
loop_
_atom_site_label
_atom_site_type_symbol
_atom_site_fract_x
_atom_site_fract_y
_atom_site_fract_z
Cu1 Cu 0.27702(4) 0.27166(4) 0.12226(3)
K1 K 0.03569(8) 0.65451(7) 0.05460(6)
O1 O 0.2426(2) 0.4267(2) -0.01471(17)
O2 O 0.0917(2) 0.3708(2) 0.20129(17)
N1 N 0.3005(3) 0.0990(3) 0.2574(2)
N2 N 0.4802(3) 0.1843(3) 0.0599(2)
C1 C 0.3546(3) 0.4689(3) -0.1033(2)
C2 C 0.5110(3) 0.3922(3) -0.1150(3)
O3 O 0.7203(2) 0.2010(3) -0.0501(2)
C3 C 0.0455(3) 0.3377(3) 0.3110(3)
C4 C -0.0732(4) 0.4438(3) 0.3569(3)
C5 C 0.2269(4) 0.0894(3) 0.3583(3)
H1 H 0.2556 0.0012 0.4153
C6 C 0.6138(4) 0.4529(4) -0.2151(3)
H2 H 0.7163 0.4038 -0.2241
C7 C 0.4203(4) -0.0246(3) 0.2303(3)
H3 H 0.3758 -0.0905 0.2010
H4 H 0.4613 -0.0879 0.2987
C8 C 0.5754(3) 0.2510(3) -0.0307(3)
C9 C 0.1032(3) 0.2026(3) 0.3925(3)
C10 C -0.0790(5) 0.2770(4) 0.5471(3)
H5 H -0.1221 0.2557 0.6243
C11 C 0.3135(4) 0.6004(4) -0.1913(3)
H6 H 0.2120 0.6524 -0.1840
C12 C 0.5699(4) 0.5814(4) -0.3001(3)
H7 H 0.6415 0.6179 -0.3650
C13 C 0.5501(4) 0.0481(4) 0.1414(3)
H8 H 0.6202 0.0791 0.1780
H9 H 0.6098 -0.0264 0.1017
C14 C 0.0393(4) 0.1755(4) 0.5088(3)
H10 H 0.0784 0.0865 0.5608
C15 C -0.1347(4) 0.4125(4) 0.4699(3)
H11 H -0.2148 0.4823 0.4958
C16 C 0.4183(4) 0.6552(4) -0.2879(3)
H12 H 0.3868 0.7421 -0.3449
C17 C -0.2533(4) 0.6761(4) 0.3077(3)
H13 H -0.3396 0.6178 0.3350
H14 H -0.2751 0.7612 0.2427
H15 H -0.2377 0.7154 0.3672
O4 O -0.1159(3) 0.5782(2) 0.27564(19)
O5 O -0.1113(3) 0.9268(3) -0.06939(19)
C18 C 0.0008(4) 0.9855(4) -0.1635(3)
H16 H -0.0447 1.0816 -0.2103
H17 H 0.0358 0.9119 -0.2076
H18 H 0.0880 1.0031 -0.1369
H19 H -0.1666 0.9996 -0.0431
K1A K -0.03569(8) 0.34549(7) -0.05460(6)
K1A_2 K 0.96431(8) 0.34549(7) -0.05460(6)
O1A O -0.2426(2) 0.5733(2) 0.01471(17)
O3A O 0.2797(2) 0.7990(3) 0.0501(2)
loop_
_geom_bond_atom_site_label_1
_geom_bond_atom_site_label_2
_geom_bond_site_symmetry_1
_geom_bond_site_symmetry_2
Cu1 O1 1_555 1_555
K1 O1 1_555 1_555
O1 C1 1_555 1_555
O2 Cu1 1_555 1_555
N1 Cu1 1_555 1_555
N2 Cu1 1_555 1_555
C1 C2 1_555 1_555
C2 C6 1_555 1_555
O3 C8 1_555 1_555
C3 O2 1_555 1_555
C4 C3 1_555 1_555
C5 N1 1_555 1_555
H1 C5 1_555 1_555
C6 H2 1_555 1_555
C7 N1 1_555 1_555
H3 C7 1_555 1_555
H4 C7 1_555 1_555
C8 N2 1_555 1_555
C9 C3 1_555 1_555
C10 H5 1_555 1_555
C11 C1 1_555 1_555
H6 C11 1_555 1_555
C12 C6 1_555 1_555
H7 C12 1_555 1_555
C13 N2 1_555 1_555
H8 C13 1_555 1_555
H9 C13 1_555 1_555
C14 C9 1_555 1_555
H10 C14 1_555 1_555
C15 C4 1_555 1_555
H11 C15 1_555 1_555
C16 C11 1_555 1_555
H12 C16 1_555 1_555
C17 H13 1_555 1_555
H14 C17 1_555 1_555
H15 C17 1_555 1_555
O4 K1 1_555 1_555
O5 K1 1_555 1_555
C18 O5 1_555 1_555
H16 C18 1_555 1_555
H17 C18 1_555 1_555
H18 C18 1_555 1_555
H19 O5 1_555 1_555
K1A O1 1_555 1_555
K1A_2 O3 1_555 1_555
O1A K1 1_555 1_555
O3A K1 1_555 1_555
K1 O2 1_555 1_555
C2 C8 1_555 1_555
C4 O4 1_555 1_555
C5 C9 1_555 1_555
C7 C13 1_555 1_555
C10 C14 1_555 1_555
C10 C15 1_555 1_555
C12 C16 1_555 1_555
C17 O4 1_555 1_555
K1A O1A 1_555 1_555

#END
