
#######################################################################
#
#                 Cambridge Crystallographic Data Centre
#                                CCDC 
#
#######################################################################
#
# If this CIF has been generated from an entry in the Cambridge 
# Structural Database, then it will include bibliographic, chemical, 
# crystal, experimental, refinement or atomic coordinate data resulting 
# from the CCDC's data processing and validation procedures.
#
#######################################################################

data_EFADEV
_symmetry_cell_setting           monoclinic
_symmetry_space_group_name_H-M   'P 21/c'
_symmetry_Int_Tables_number      14
_space_group_name_Hall           '-P 2ybc'
loop_
_symmetry_equiv_pos_site_id
_symmetry_equiv_pos_as_xyz
1 x,y,z
2 -x,1/2+y,1/2-z
3 -x,-y,-z
4 x,1/2-y,1/2+z
_cell_length_a                   12.981(3)
_cell_length_b                   17.089(3)
_cell_length_c                   13.206(3)
_cell_angle_alpha                90
_cell_angle_beta                 115.63(3)
_cell_angle_gamma                90
_cell_volume                     2641.27
loop_
_atom_site_label
_atom_site_type_symbol
_atom_site_fract_x
_atom_site_fract_y
_atom_site_fract_z
C1 C -0.0471(5) 0.7129(3) 0.6034(5)
C2 C -0.0884(6) 0.7733(4) 0.5287(5)
H1 H -0.1099 0.7645 0.4527
C3 C -0.1408(8) 0.9138(4) 0.4937(6)
H2 H -0.1624 0.9073 0.4173
C4 C -0.1505(9) 0.9840(4) 0.5331(6)
H3 H -0.1820 1.0260 0.4846
C5 C -0.1117(7) 0.9930(4) 0.6500(6)
H4 H -0.1169 1.0424 0.6770
C6 C -0.0197(6) 0.7995(3) 0.7574(5)
H5 H 0.0037 0.8077 0.8338
C7 C -0.0129(6) 0.7266(3) 0.7179(5)
H6 H 0.0151 0.6852 0.7683
C8 C -0.0985(6) 0.8497(3) 0.5664(5)
C9 C -0.0622(5) 0.8620(3) 0.6814(5)
C10 C -0.0349(5) 0.6340(3) 0.5621(5)
C11 C 0.3348(6) 0.9550(4) 1.1049(6)
C12 C 0.3760(6) 0.9221(4) 1.0360(6)
H7 H 0.3252 0.9060 0.9644
C13 C 0.5424(7) 0.8795(5) 1.0010(7)
H8 H 0.4959 0.8603 0.9298
C14 C 0.6590(8) 0.8778(6) 1.0433(9)
H9 H 0.6929 0.8570 0.9999
C15 C 0.7270(8) 0.9062(6) 1.1486(8)
H10 H 0.8058 0.9036 1.1737
C16 C 0.5268(7) 0.9714(6) 1.2483(7)
H11 H 0.5761 0.9882 1.3200
C17 C 0.4119(7) 0.9785(5) 1.2124(7)
H12 H 0.3840 0.9996 1.2606
C18 C 0.4960(6) 0.9120(5) 1.0714(6)
C19 C 0.5712(7) 0.9390(5) 1.1783(7)
C20 C 0.2098(5) 0.9672(4) 1.0660(5)
Cu1 Cu -0.02175(6) 0.96984(4) 0.89857(6)
N1 N -0.0686(5) 0.9361(3) 0.7233(4)
N2 N 0.6876(6) 0.9368(5) 1.2163(6)
O1 O -0.0471(4) 0.6272(2) 0.4623(4)
O2 O -0.0094(4) 0.5779(2) 0.6314(4)
O3 O 0.1436(4) 0.9480(3) 0.9656(4)
O4 O 0.1785(4) 0.9983(3) 1.1344(4)
Cu1C Cu -0.02175(6) 0.53016(4) 0.39857(6)
Cu1A Cu 0.02175(6) 0.46984(4) 0.60143(6)
Cu1B Cu 0.02175(6) 1.03016(4) 1.10143(6)
O1C O -0.0471(4) 0.8728(2) 0.9623(4)
O2A O 0.0094(4) 1.0779(2) 0.8686(4)
O4B O -0.1785(4) 1.0017(3) 0.8656(4)
O5 O 0.1628(6) 0.8205(4) 0.4915(7)
N3 N 0.2270(6) 0.7820(4) 0.6720(6)
C21 C 0.1937(8) 0.7680(5) 0.5609(7)
C22 C 0.2302(9) 0.8587(5) 0.7112(9)
C23 C 0.2674(10) 0.7190(6) 0.7487(9)
N4 N 0.4243(11) 0.1792(7) 0.3607(11)
C24 C 0.433(2) 0.1410(18) 0.4562(17)
C25 C 0.3129(13) 0.1901(17) 0.2776(18)
C26 C 0.5099(15) 0.1918(18) 0.327(2)
O6 O 0.4731(18) 0.2217(14) 0.2320(18)
loop_
_geom_bond_atom_site_label_1
_geom_bond_atom_site_label_2
_geom_bond_site_symmetry_1
_geom_bond_site_symmetry_2
C1 C2 1_555 1_555
C2 H1 1_555 1_555
C3 H2 1_555 1_555
C4 C3 1_555 1_555
H3 C4 1_555 1_555
C5 C4 1_555 1_555
H4 C5 1_555 1_555
C6 H5 1_555 1_555
C7 C1 1_555 1_555
H6 C7 1_555 1_555
C8 C2 1_555 1_555
C9 C6 1_555 1_555
C10 C1 1_555 1_555
C11 C12 1_555 1_555
C12 H7 1_555 1_555
C13 H8 1_555 1_555
C14 C13 1_555 1_555
H9 C14 1_555 1_555
C15 C14 1_555 1_555
H10 C15 1_555 1_555
C16 H11 1_555 1_555
C17 C11 1_555 1_555
H12 C17 1_555 1_555
C18 C12 1_555 1_555
C19 C16 1_555 1_555
C20 C11 1_555 1_555
Cu1 N1 1_555 1_555
N1 C5 1_555 1_555
N2 C15 1_555 1_555
O1 C10 1_555 1_555
O2 C10 1_555 1_555
O3 C20 1_555 1_555
O4 C20 1_555 1_555
O5 C21 1_555 1_555
N3 C21 1_555 1_555
C22 N3 1_555 1_555
C23 N3 1_555 1_555
N4 C24 1_555 1_555
C25 N4 1_555 1_555
C26 N4 1_555 1_555
O6 C26 1_555 1_555
Cu1C O1 1_555 1_555
Cu1A O2 1_555 1_555
Cu1B O4 1_555 1_555
O1C Cu1 1_555 1_555
O2A Cu1 1_555 1_555
O4B Cu1 1_555 1_555
C3 C8 1_555 1_555
C6 C7 1_555 1_555
C8 C9 1_555 1_555
C9 N1 1_555 1_555
C13 C18 1_555 1_555
C16 C17 1_555 1_555
C18 C19 1_555 1_555
C19 N2 1_555 1_555
Cu1 O3 1_555 1_555

#END
