
#######################################################################
#
#                 Cambridge Crystallographic Data Centre
#                                CCDC 
#
#######################################################################
#
# If this CIF has been generated from an entry in the Cambridge 
# Structural Database, then it will include bibliographic, chemical, 
# crystal, experimental, refinement or atomic coordinate data resulting 
# from the CCDC's data processing and validation procedures.
#
#######################################################################

data_EFECEY
_symmetry_cell_setting           monoclinic
_symmetry_space_group_name_H-M   'P 21/c'
_symmetry_Int_Tables_number      14
_space_group_name_Hall           '-P 2ybc'
loop_
_symmetry_equiv_pos_site_id
_symmetry_equiv_pos_as_xyz
1 x,y,z
2 -x,1/2+y,1/2-z
3 -x,-y,-z
4 x,1/2-y,1/2+z
_cell_length_a                   18.538(4)
_cell_length_b                   8.8707(18)
_cell_length_c                   17.720(4)
_cell_angle_alpha                90
_cell_angle_beta                 106.85(3)
_cell_angle_gamma                90
_cell_volume                     2788.86
loop_
_atom_site_label
_atom_site_type_symbol
_atom_site_fract_x
_atom_site_fract_y
_atom_site_fract_z
Mo1 Mo 0.67068(3) 0.06968(6) 0.18195(3)
Cu1 Cu 0.68615(5) -0.12937(9) 0.07624(5)
Cu2 Cu 0.77330(5) -0.13810(9) 0.24519(5)
Cu3 Cu 0.79816(5) 0.14197(9) 0.15157(5)
Br1 Br 0.86578(4) -0.11238(8) 0.14586(4)
Br2 Br 0.67733(4) -0.32081(9) -0.01385(4)
S1 S 0.68654(9) 0.12063(19) 0.06079(9)
S2 S 0.65147(10) -0.18338(18) 0.18316(10)
S3 S 0.78497(9) 0.11077(19) 0.27248(9)
N1 N 0.8252(3) -0.3047(6) 0.3127(3)
N2 N 1.1342(3) -1.1984(6) 0.3663(3)
C1 C 0.8784(4) -0.3908(7) 0.2976(4)
H1 H 0.8924 -0.3716 0.2510
C2 C 0.9141(4) -0.5066(7) 0.3464(4)
H2 H 0.9527 -0.5626 0.3338
C3 C 0.8937(4) -0.5410(7) 0.4133(4)
C4 C 0.8370(4) -0.4551(7) 0.4272(4)
H3 H 0.8198 -0.4768 0.4716
C5 C 0.8050(4) -0.3385(7) 0.3778(4)
H4 H 0.7672 -0.2794 0.3901
C6 C 0.9312(4) -0.6590(8) 0.4722(4)
H5 H 0.8920 -0.7329 0.4750
H6 H 0.9484 -0.6092 0.5244
C7 C 0.9983(4) -0.7484(8) 0.4611(5)
H7 H 1.0328 -0.6787 0.4449
H8 H 1.0264 -0.7946 0.5120
C8 C 0.9731(4) -0.8696(8) 0.4001(5)
H9 H 0.9505 -0.8204 0.3485
H10 H 0.9328 -0.9282 0.4129
C9 C 1.0329(4) -0.9805(8) 0.3905(4)
C10 C 1.1097(4) -0.9716(8) 0.4280(4)
H11 H 1.1290 -0.8911 0.4634
C11 C 1.1585(4) -1.0804(7) 0.4140(4)
H12 H 1.2110 -1.0704 0.4392
C12 C 1.0596(4) -1.2051(8) 0.3311(4)
H13 H 1.0408 -1.2879 0.2970
C13 C 1.0090(4) -1.1012(8) 0.3410(4)
H14 H 0.9571 -1.1123 0.3136
C14 C 0.6276(4) 0.3050(7) 0.2137(4)
C15 C 0.5753(4) 0.2589(7) 0.1428(4)
C16 C 0.5414(4) 0.1244(8) 0.1586(4)
C17 C 0.5705(4) 0.0892(8) 0.2404(4)
C18 C 0.6244(4) 0.2012(8) 0.2750(4)
C19 C 0.6770(5) 0.4415(8) 0.2260(6)
H15 H 0.6853 0.4708 0.1759
H16 H 0.7255 0.4187 0.2646
H17 H 0.6525 0.5245 0.2456
C20 C 0.5531(4) 0.3443(9) 0.0670(4)
H18 H 0.5877 0.4291 0.0701
H19 H 0.5016 0.3824 0.0573
H20 H 0.5554 0.2774 0.0237
C21 C 0.4792(4) 0.0370(9) 0.1024(4)
H21 H 0.4312 0.0596 0.1127
H22 H 0.4898 -0.0711 0.1096
H23 H 0.4762 0.0656 0.0481
C22 C 0.5437(5) -0.0327(9) 0.2831(5)
H24 H 0.5826 -0.0549 0.3325
H25 H 0.5332 -0.1235 0.2502
H26 H 0.4976 0.0000 0.2947
C23 C 0.6642(4) 0.2174(10) 0.3616(4)
H27 H 0.6284 0.2526 0.3890
H28 H 0.7052 0.2907 0.3691
H29 H 0.6849 0.1196 0.3832
Cu3A Cu 1.20184(5) -1.35803(9) 0.34843(5)
N2A N 0.8658(3) 0.3016(6) 0.1337(3)
loop_
_geom_bond_atom_site_label_1
_geom_bond_atom_site_label_2
_geom_bond_site_symmetry_1
_geom_bond_site_symmetry_2
Mo1 S1 1_555 1_555
Cu1 Br2 1_555 1_555
Cu2 Br1 1_555 1_555
Cu3 Br1 1_555 1_555
S1 Cu1 1_555 1_555
S2 Mo1 1_555 1_555
S3 Mo1 1_555 1_555
N1 Cu2 1_555 1_555
N2 C11 1_555 1_555
C1 N1 1_555 1_555
H1 C1 1_555 1_555
C2 C1 1_555 1_555
H2 C2 1_555 1_555
C3 C2 1_555 1_555
C4 C3 1_555 1_555
H3 C4 1_555 1_555
C5 N1 1_555 1_555
H4 C5 1_555 1_555
C6 C3 1_555 1_555
H5 C6 1_555 1_555
H6 C6 1_555 1_555
C7 C6 1_555 1_555
H7 C7 1_555 1_555
H8 C7 1_555 1_555
C8 C7 1_555 1_555
H9 C8 1_555 1_555
H10 C8 1_555 1_555
C9 C8 1_555 1_555
C10 C9 1_555 1_555
H11 C10 1_555 1_555
C11 C10 1_555 1_555
H12 C11 1_555 1_555
C12 N2 1_555 1_555
H13 C12 1_555 1_555
C13 C9 1_555 1_555
H14 C13 1_555 1_555
C14 Mo1 1_555 1_555
C15 Mo1 1_555 1_555
C16 Mo1 1_555 1_555
C17 Mo1 1_555 1_555
C18 Mo1 1_555 1_555
C19 C14 1_555 1_555
H15 C19 1_555 1_555
H16 C19 1_555 1_555
H17 C19 1_555 1_555
C20 C15 1_555 1_555
H18 C20 1_555 1_555
H19 C20 1_555 1_555
H20 C20 1_555 1_555
C21 C16 1_555 1_555
H21 C21 1_555 1_555
H22 C21 1_555 1_555
H23 C21 1_555 1_555
C22 C17 1_555 1_555
H24 C22 1_555 1_555
H25 C22 1_555 1_555
H26 C22 1_555 1_555
C23 C18 1_555 1_555
H27 C23 1_555 1_555
H28 C23 1_555 1_555
H29 C23 1_555 1_555
Cu3A N2 1_555 1_555
N2A Cu3 1_555 1_555
Cu1 S2 1_555 1_555
Cu2 S2 1_555 1_555
Cu2 S3 1_555 1_555
Cu3 S1 1_555 1_555
Cu3 S3 1_555 1_555
C4 C5 1_555 1_555
C12 C13 1_555 1_555
C14 C15 1_555 1_555
C14 C18 1_555 1_555
C15 C16 1_555 1_555
C16 C17 1_555 1_555
C17 C18 1_555 1_555

#END
