
#######################################################################
#
#                 Cambridge Crystallographic Data Centre
#                                CCDC 
#
#######################################################################
#
# If this CIF has been generated from an entry in the Cambridge 
# Structural Database, then it will include bibliographic, chemical, 
# crystal, experimental, refinement or atomic coordinate data resulting 
# from the CCDC's data processing and validation procedures.
#
#######################################################################

data_EFECAU
_symmetry_cell_setting           triclinic
_symmetry_space_group_name_H-M   'P -1'
_symmetry_Int_Tables_number      2
_space_group_name_Hall           '-P 1'
loop_
_symmetry_equiv_pos_site_id
_symmetry_equiv_pos_as_xyz
1 x,y,z
2 -x,-y,-z
_cell_length_a                   10.027(2)
_cell_length_b                   15.706(3)
_cell_length_c                   20.198(4)
_cell_angle_alpha                85.34(3)
_cell_angle_beta                 86.70(3)
_cell_angle_gamma                87.41(3)
_cell_volume                     3162.47
loop_
_atom_site_label
_atom_site_type_symbol
_atom_site_fract_x
_atom_site_fract_y
_atom_site_fract_z
Mo1 Mo 1.12011(7) 0.50058(5) 0.30914(4)
Mo2 Mo -0.22252(8) 0.00824(5) 0.82832(4)
Cu1 Cu 0.91086(11) 0.43882(7) 0.38090(6)
Cu2 Cu 1.01072(12) 0.61936(7) 0.38439(6)
Cu3 Cu 0.90499(12) 0.56874(8) 0.25209(7)
Cu4 Cu -0.00363(13) 0.03056(9) 0.75296(7)
Cu5 Cu -0.26092(13) -0.05071(8) 0.71209(6)
Cu6 Cu -0.06708(12) -0.13382(7) 0.82820(7)
Br1 Br 0.75758(13) 0.62635(10) 0.17564(7)
Br2 Br 0.75035(9) 0.58793(6) 0.38927(5)
Br3 Br -0.34538(12) -0.07358(7) 0.61194(6)
Br4 Br 0.03671(11) -0.14673(6) 0.71139(6)
S1 S 0.9495(2) 0.42912(15) 0.27199(13)
S2 S 1.0901(2) 0.48913(14) 0.42260(12)
S3 S 1.0785(2) 0.64163(14) 0.27687(13)
S4 S -0.0076(2) -0.00876(15) 0.86129(13)
S5 S -0.2064(3) 0.08157(15) 0.72631(13)
S6 S -0.2873(2) -0.12503(15) 0.80976(13)
N1 N 0.7870(8) 0.3611(5) 0.4316(4)
N2 N 0.1534(8) 0.0773(6) 0.7055(4)
N3 N 1.0155(8) 0.7244(5) 0.4323(4)
N4 N -0.0085(8) -0.2328(5) 0.8888(5)
C1 C 0.7705(9) 0.2820(6) 0.4159(5)
H1 H 0.8283 0.2597 0.3820
C2 C 0.6726(11) 0.2304(6) 0.4468(5)
H2 H 0.6657 0.1737 0.4345
C3 C 0.5860(9) 0.2611(6) 0.4950(5)
C4 C 0.6045(9) 0.3445(6) 0.5123(5)
H3 H 0.5484 0.3681 0.5462
C5 C 0.7037(9) 0.3917(6) 0.4799(5)
H4 H 0.7144 0.4481 0.4920
C6 C 0.4749(11) 0.2103(7) 0.5309(5)
H5 H 0.3898 0.2446 0.5278
H6 H 0.4653 0.1577 0.5081
C7 C 0.4976(10) 0.1860(7) 0.6025(6)
H7 H 0.5746 0.1444 0.6054
H8 H 0.5214 0.2375 0.6237
C8 C 0.3800(10) 0.1481(6) 0.6402(5)
C9 C 0.3465(11) 0.0662(7) 0.6325(6)
H9 H 0.3991 0.0320 0.6034
C10 C 0.2356(11) 0.0340(7) 0.6674(6)
H10 H 0.2176 -0.0241 0.6634
C11 C 0.1861(11) 0.1572(7) 0.7130(6)
H11 H 0.1304 0.1902 0.7417
C12 C 0.2981(11) 0.1950(7) 0.6808(6)
H12 H 0.3168 0.2524 0.6871
C13 C 1.1059(10) 0.7821(6) 0.4097(5)
H13 H 1.1666 0.7703 0.3734
C14 C 1.1112(10) 0.8583(6) 0.4389(5)
H14 H 1.1778 0.8972 0.4230
C15 C 1.0234(10) 0.8796(5) 0.4899(5)
C16 C 0.9313(11) 0.8194(6) 0.5121(5)
H15 H 0.8680 0.8304 0.5475
C17 C 0.9317(10) 0.7425(6) 0.4822(5)
H16 H 0.8687 0.7014 0.4986
C18 C 1.0298(12) 0.9631(6) 0.5215(5)
H17 H 1.1242 0.9741 0.5286
H18 H 0.9805 0.9588 0.5655
C19 C 0.0732(10) -0.2966(6) 0.8695(5)
H19 H 0.1168 -0.2901 0.8265
C20 C 0.0984(10) -0.3718(6) 0.9085(6)
H20 H 0.1597 -0.4145 0.8928
C21 C 0.0332(11) -0.3837(6) 0.9702(6)
C22 C -0.0489(13) -0.3177(7) 0.9914(6)
H21 H -0.0935 -0.3229 1.0342
C23 C -0.0665(14) -0.2438(7) 0.9502(6)
H22 H -0.1224 -0.1987 0.9662
C24 C 0.0456(13) -0.4679(7) 1.0113(6)
H23 H 0.1392 -0.4906 1.0076
H24 H 0.0228 -0.4589 1.0586
C25 C 1.2990(9) 0.5039(6) 0.2269(5)
C26 C 1.3535(8) 0.5236(5) 0.2866(5)
C27 C 1.3431(9) 0.4499(5) 0.3325(5)
C28 C 1.2809(8) 0.3863(5) 0.3013(5)
C29 C 1.2558(9) 0.4180(6) 0.2343(5)
C30 C 1.3018(11) 0.5613(7) 0.1624(5)
H25 H 1.3874 0.5523 0.1376
H26 H 1.2910 0.6212 0.1727
H27 H 1.2287 0.5474 0.1355
C31 C 1.4204(10) 0.6034(6) 0.2976(6)
H28 H 1.5126 0.6004 0.2788
H29 H 1.4207 0.6099 0.3454
H30 H 1.3719 0.6525 0.2758
C32 C 1.4035(10) 0.4379(7) 0.3978(5)
H31 H 1.3339 0.4242 0.4326
H32 H 1.4455 0.4906 0.4068
H33 H 1.4712 0.3909 0.3973
C33 C 1.2543(10) 0.2977(6) 0.3313(6)
H34 H 1.3329 0.2600 0.3230
H35 H 1.1771 0.2763 0.3111
H36 H 1.2354 0.2991 0.3794
C34 C 1.2104(11) 0.3681(7) 0.1819(6)
H37 H 1.1549 0.4051 0.1521
H38 H 1.1580 0.3207 0.2022
H39 H 1.2882 0.3453 0.1563
C35 C -0.3795(11) -0.0025(7) 0.9207(5)
C36 C -0.4422(10) 0.0438(7) 0.8669(5)
C37 C -0.3808(10) 0.1208(6) 0.8526(5)
C38 C -0.2742(11) 0.1219(7) 0.8943(6)
C39 C -0.2753(11) 0.0466(8) 0.9379(5)
C40 C -0.4224(13) -0.0881(7) 0.9558(7)
H40 H -0.3430 -0.1223 0.9695
H41 H -0.4707 -0.1193 0.9252
H42 H -0.4809 -0.0775 0.9951
C41 C -0.5668(11) 0.0188(9) 0.8345(7)
H43 H -0.6441 0.0537 0.8499
H44 H -0.5826 -0.0418 0.8467
H45 H -0.5539 0.0283 0.7860
C42 C -0.4247(13) 0.1947(7) 0.8042(7)
H46 H -0.4873 0.2333 0.8274
H47 H -0.4687 0.1723 0.7675
H48 H -0.3464 0.2259 0.7865
C43 C -0.1782(13) 0.1949(8) 0.8987(8)
H49 H -0.1439 0.2144 0.8539
H50 H -0.1035 0.1741 0.9257
H51 H -0.2263 0.2425 0.9194
C44 C -0.1921(14) 0.0278(11) 0.9957(6)
H52 H -0.2308 0.0581 1.0333
H53 H -0.1013 0.0466 0.9842
H54 H -0.1892 -0.0339 1.0081
Mo1A Mo 0.87989(7) 1.49942(5) 0.69086(4)
Mo2A Mo 2.22252(8) 1.99176(5) 0.17168(4)
Mo2A_2 Mo 0.22252(8) -1.00824(5) 1.17168(4)
Cu1A Cu 1.08914(11) 1.56118(7) 0.61910(6)
Cu2A Cu 0.98928(12) 1.38064(7) 0.61561(6)
Cu3A Cu 1.09501(12) 1.43126(8) 0.74791(7)
Cu4A Cu 2.00363(13) 1.96944(9) 0.24704(7)
Cu5A Cu 2.26092(13) 2.05071(8) 0.28791(6)
Cu5A_2 Cu 0.26092(13) -0.94929(8) 1.28791(6)
Cu6A Cu 0.06708(12) -0.86618(7) 1.17180(7)
Cu6A_2 Cu 2.06708(12) 2.13382(7) 0.17180(7)
Br1A Br 1.24242(13) 1.37365(10) 0.82436(7)
Br2A Br 1.24965(9) 1.41207(6) 0.61073(5)
Br3A Br 2.34538(12) 2.07358(7) 0.38806(6)
Br4A Br -0.03671(11) -0.85327(6) 1.28861(6)
S1A S 1.0505(2) 1.57088(15) 0.72801(13)
S2A S 0.9099(2) 1.51087(14) 0.57740(12)
S3A S 0.9215(2) 1.35837(14) 0.72313(13)
S4A S 2.0076(2) 2.00876(15) 0.13871(13)
S4A_2 S 0.0076(2) -0.99124(15) 1.13871(13)
S5A S 2.2064(3) 1.91843(15) 0.27369(13)
S6A S 0.2873(2) -0.87497(15) 1.19024(13)
S6A_2 S 2.2873(2) 2.12503(15) 0.19024(13)
N1A N 1.2130(8) 1.6389(5) 0.5684(4)
N2A N 1.8466(8) 1.9227(6) 0.2945(4)
N3A N 0.9845(8) 1.2756(5) 0.5677(4)
N4A N 0.0085(8) -0.7672(5) 1.1112(5)
C1A C 1.2295(9) 1.7180(6) 0.5841(5)
H1A H 1.1717 1.7403 0.6180
C2A C 1.3274(11) 1.7696(6) 0.5532(5)
H2A H 1.3343 1.8263 0.5655
C3A C 1.4140(9) 1.7389(6) 0.5050(5)
C4A C 1.3955(9) 1.6555(6) 0.4877(5)
H3A H 1.4516 1.6319 0.4538
C5A C 1.2963(9) 1.6083(6) 0.5201(5)
H4A H 1.2856 1.5519 0.5080
C6A C 1.5251(11) 1.7897(7) 0.4691(5)
H5A H 1.6102 1.7554 0.4722
H6A H 1.5347 1.8423 0.4919
C7A C 1.5024(10) 1.8140(7) 0.3975(6)
H7A H 1.4254 1.8556 0.3946
H8A H 1.4786 1.7625 0.3763
C8A C 1.6200(10) 1.8519(6) 0.3598(5)
C9A C 1.6535(11) 1.9338(7) 0.3675(6)
H9A H 1.6009 1.9680 0.3966
C10A C 1.7644(11) 1.9660(7) 0.3326(6)
H10A H 1.7824 2.0241 0.3366
C11A C 1.8139(11) 1.8428(7) 0.2870(6)
H11A H 1.8696 1.8098 0.2583
C12A C 1.7019(11) 1.8050(7) 0.3192(6)
H12A H 1.6832 1.7476 0.3129
C13A C 0.8941(10) 1.2179(6) 0.5903(5)
H13A H 0.8334 1.2297 0.6266
C14A C 0.8888(10) 1.1417(6) 0.5611(5)
H14A H 0.8222 1.1028 0.5770
C15A C 0.9766(10) 1.1204(5) 0.5101(5)
C16A C 1.0687(11) 1.1806(6) 0.4879(5)
H15A H 1.1320 1.1696 0.4525
C17A C 1.0683(10) 1.2575(6) 0.5178(5)
H16A H 1.1313 1.2986 0.5014
C18A C 0.9702(12) 1.0369(6) 0.4785(5)
H17A H 0.8758 1.0259 0.4714
H18A H 1.0195 1.0412 0.4345
C19A C -0.0732(10) -0.7034(6) 1.1305(5)
H19A H -0.1168 -0.7099 1.1735
C20A C -0.0984(10) -0.6282(6) 1.0915(6)
H20A H -0.1597 -0.5855 1.1072
C21A C -0.0332(11) -0.6163(6) 1.0298(6)
C22A C 0.0489(13) -0.6823(7) 1.0086(6)
H21A H 0.0935 -0.6771 0.9658
C23A C 0.0665(14) -0.7562(7) 1.0498(6)
H22A H 0.1224 -0.8013 1.0338
C24A C -0.0456(13) -0.5321(7) 0.9887(6)
H23A H -0.1392 -0.5094 0.9924
H24A H -0.0228 -0.5411 0.9414
C25A C 0.7010(9) 1.4961(6) 0.7731(5)
C26A C 0.6465(8) 1.4764(5) 0.7134(5)
C27A C 0.6569(9) 1.5501(5) 0.6675(5)
C28A C 0.7191(8) 1.6137(5) 0.6987(5)
C29A C 0.7442(9) 1.5820(6) 0.7657(5)
C30A C 0.6982(11) 1.4387(7) 0.8376(5)
H25A H 0.6126 1.4477 0.8624
H26A H 0.7090 1.3788 0.8273
H27A H 0.7713 1.4526 0.8645
C31A C 0.5796(10) 1.3966(6) 0.7024(6)
H28A H 0.4874 1.3996 0.7212
H29A H 0.5793 1.3901 0.6546
H30A H 0.6281 1.3475 0.7242
C32A C 0.5965(10) 1.5621(7) 0.6022(5)
H31A H 0.6661 1.5758 0.5674
H32A H 0.5545 1.5094 0.5932
H33A H 0.5288 1.6091 0.6027
C33A C 0.7457(10) 1.7023(6) 0.6687(6)
H34A H 0.6671 1.7400 0.6770
H35A H 0.8229 1.7237 0.6889
H36A H 0.7646 1.7009 0.6206
C34A C 0.7896(11) 1.6319(7) 0.8181(6)
H37A H 0.8451 1.5949 0.8479
H38A H 0.8420 1.6793 0.7978
H39A H 0.7118 1.6547 0.8437
C35A C 2.3795(11) 2.0025(7) 0.0793(5)
C36A C 2.4422(10) 1.9562(7) 0.1331(5)
C37A C 2.3808(10) 1.8792(6) 0.1474(5)
C38A C 2.2742(11) 1.8781(7) 0.1057(6)
C39A C 2.2753(11) 1.9534(8) 0.0621(5)
C40A C 2.4224(13) 2.0881(7) 0.0442(7)
H40A H 2.3430 2.1223 0.0305
H41A H 2.4707 2.1193 0.0748
H42A H 2.4809 2.0775 0.0049
C41A C 2.5668(11) 1.9812(9) 0.1655(7)
H43A H 2.6441 1.9463 0.1501
H44A H 2.5826 2.0418 0.1533
H45A H 2.5539 1.9717 0.2140
C42A C 2.4247(13) 1.8053(7) 0.1958(7)
H46A H 2.4873 1.7667 0.1726
H47A H 2.4687 1.8277 0.2325
H48A H 2.3464 1.7741 0.2135
C43A C 2.1782(13) 1.8051(8) 0.1013(8)
H49A H 2.1439 1.7856 0.1461
H50A H 2.1035 1.8259 0.0743
H51A H 2.2263 1.7575 0.0806
C44A C 2.1921(14) 1.9722(11) 0.0043(6)
H52A H 2.2308 1.9419 -0.0333
H53A H 2.1013 1.9534 0.0158
H54A H 2.1892 2.0339 -0.0081
O1 O 0.4424(12) 0.5833(9) 0.8823(7)
N5 N 0.3954(11) 0.6765(10) 0.7933(8)
C45 C 0.4086(19) 0.7475(15) 0.8306(14)
H55 H 0.4656 0.7890 0.8052
H56 H 0.4492 0.7285 0.8726
H57 H 0.3202 0.7744 0.8401
C46 C 0.3685(16) 0.6845(16) 0.7280(9)
H58 H 0.3944 0.6310 0.7079
H59 H 0.4191 0.7313 0.7052
H60 H 0.2726 0.6970 0.7238
C47 C 0.4118(14) 0.5949(14) 0.8211(11)
H61 H 0.4009 0.5475 0.7959
N6 N 0.478(3) 0.7308(16) 0.0268(12)
C48 C 0.600(2) 0.5955(16) 0.0127(11)
H62 H 0.6766 0.6066 -0.0185
H63 H 0.5427 0.5548 -0.0052
H64 H 0.6311 0.5715 0.0556
C49 C 0.526(2) 0.6727(16) 0.0214(11)
loop_
_geom_bond_atom_site_label_1
_geom_bond_atom_site_label_2
_geom_bond_site_symmetry_1
_geom_bond_site_symmetry_2
Mo1 S1 1_555 1_555
Mo2 S4 1_555 1_555
Cu1 Br2 1_555 1_555
Cu2 Br2 1_555 1_555
Cu3 Br1 1_555 1_555
Cu4 S4 1_555 1_555
Cu5 Br3 1_555 1_555
Cu6 Br4 1_555 1_555
S1 Cu1 1_555 1_555
S2 Mo1 1_555 1_555
S3 Mo1 1_555 1_555
S4 Cu6 1_555 1_555
S5 Mo2 1_555 1_555
S6 Mo2 1_555 1_555
O1 C47 1_555 1_555
N1 Cu1 1_555 1_555
N2 Cu4 1_555 1_555
N3 Cu2 1_555 1_555
N4 Cu6 1_555 1_555
N5 C45 1_555 1_555
N6 C49 1_555 1_555
C1 N1 1_555 1_555
H1 C1 1_555 1_555
C2 C1 1_555 1_555
H2 C2 1_555 1_555
C3 C2 1_555 1_555
C4 C3 1_555 1_555
H3 C4 1_555 1_555
C5 N1 1_555 1_555
H4 C5 1_555 1_555
C6 C3 1_555 1_555
H5 C6 1_555 1_555
H6 C6 1_555 1_555
C7 C6 1_555 1_555
H7 C7 1_555 1_555
H8 C7 1_555 1_555
C8 C7 1_555 1_555
C9 C8 1_555 1_555
H9 C9 1_555 1_555
C10 N2 1_555 1_555
H10 C10 1_555 1_555
C11 N2 1_555 1_555
H11 C11 1_555 1_555
C12 C8 1_555 1_555
H12 C12 1_555 1_555
C13 N3 1_555 1_555
H13 C13 1_555 1_555
C14 C13 1_555 1_555
H14 C14 1_555 1_555
C15 C14 1_555 1_555
C16 C15 1_555 1_555
H15 C16 1_555 1_555
C17 N3 1_555 1_555
H16 C17 1_555 1_555
C18 C15 1_555 1_555
H17 C18 1_555 1_555
H18 C18 1_555 1_555
C19 N4 1_555 1_555
H19 C19 1_555 1_555
C20 C19 1_555 1_555
H20 C20 1_555 1_555
C21 C20 1_555 1_555
C22 C21 1_555 1_555
H21 C22 1_555 1_555
C23 N4 1_555 1_555
H22 C23 1_555 1_555
C24 C21 1_555 1_555
H23 C24 1_555 1_555
H24 C24 1_555 1_555
C25 Mo1 1_555 1_555
C26 Mo1 1_555 1_555
C27 Mo1 1_555 1_555
C28 Mo1 1_555 1_555
C29 Mo1 1_555 1_555
C30 C25 1_555 1_555
H25 C30 1_555 1_555
H26 C30 1_555 1_555
H27 C30 1_555 1_555
C31 C26 1_555 1_555
H28 C31 1_555 1_555
H29 C31 1_555 1_555
H30 C31 1_555 1_555
C32 C27 1_555 1_555
H31 C32 1_555 1_555
H32 C32 1_555 1_555
H33 C32 1_555 1_555
C33 C28 1_555 1_555
H34 C33 1_555 1_555
H35 C33 1_555 1_555
H36 C33 1_555 1_555
C34 C29 1_555 1_555
H37 C34 1_555 1_555
H38 C34 1_555 1_555
H39 C34 1_555 1_555
C35 Mo2 1_555 1_555
C36 Mo2 1_555 1_555
C37 Mo2 1_555 1_555
C38 Mo2 1_555 1_555
C39 Mo2 1_555 1_555
C40 C35 1_555 1_555
H40 C40 1_555 1_555
H41 C40 1_555 1_555
H42 C40 1_555 1_555
C41 C36 1_555 1_555
H43 C41 1_555 1_555
H44 C41 1_555 1_555
H45 C41 1_555 1_555
C42 C37 1_555 1_555
H46 C42 1_555 1_555
H47 C42 1_555 1_555
H48 C42 1_555 1_555
C43 C38 1_555 1_555
H49 C43 1_555 1_555
H50 C43 1_555 1_555
H51 C43 1_555 1_555
C44 C39 1_555 1_555
H52 C44 1_555 1_555
H53 C44 1_555 1_555
H54 C44 1_555 1_555
C45 H55 1_555 1_555
H56 C45 1_555 1_555
H57 C45 1_555 1_555
C46 N5 1_555 1_555
H58 C46 1_555 1_555
H59 C46 1_555 1_555
H60 C46 1_555 1_555
C47 N5 1_555 1_555
H61 C47 1_555 1_555
C48 H62 1_555 1_555
H63 C48 1_555 1_555
H64 C48 1_555 1_555
C49 C48 1_555 1_555
Mo1A S1A 1_555 1_555
Mo2A S4A 1_555 1_555
Mo2A_2 S4A_2 1_555 1_555
Cu1A Br2A 1_555 1_555
Cu2A Br2A 1_555 1_555
Cu3A Br1A 1_555 1_555
Cu4A S4A 1_555 1_555
Cu5A Br3A 1_555 1_555
Cu5A_2 S6A 1_555 1_555
Cu6A Br4A 1_555 1_555
Cu6A_2 S4A 1_555 1_555
S1A Cu1A 1_555 1_555
S2A Mo1A 1_555 1_555
S3A Mo1A 1_555 1_555
S4A_2 Cu6A 1_555 1_555
S5A Mo2A 1_555 1_555
S6A Mo2A_2 1_555 1_555
S6A_2 Mo2A 1_555 1_555
N1A Cu1A 1_555 1_555
N2A Cu4A 1_555 1_555
N3A Cu2A 1_555 1_555
N4A Cu6A 1_555 1_555
C1A N1A 1_555 1_555
H1A C1A 1_555 1_555
C2A C1A 1_555 1_555
H2A C2A 1_555 1_555
C3A C2A 1_555 1_555
C4A C3A 1_555 1_555
H3A C4A 1_555 1_555
C5A N1A 1_555 1_555
H4A C5A 1_555 1_555
C6A C3A 1_555 1_555
H5A C6A 1_555 1_555
H6A C6A 1_555 1_555
C7A C6A 1_555 1_555
H7A C7A 1_555 1_555
H8A C7A 1_555 1_555
C8A C7A 1_555 1_555
C9A C8A 1_555 1_555
H9A C9A 1_555 1_555
C10A N2A 1_555 1_555
H10A C10A 1_555 1_555
C11A N2A 1_555 1_555
H11A C11A 1_555 1_555
C12A C8A 1_555 1_555
H12A C12A 1_555 1_555
C13A N3A 1_555 1_555
H13A C13A 1_555 1_555
C14A C13A 1_555 1_555
H14A C14A 1_555 1_555
C15A C14A 1_555 1_555
C16A C15A 1_555 1_555
H15A C16A 1_555 1_555
C17A N3A 1_555 1_555
H16A C17A 1_555 1_555
C18A C18 1_555 1_555
H17A C18A 1_555 1_555
H18A C18A 1_555 1_555
C19A N4A 1_555 1_555
H19A C19A 1_555 1_555
C20A C19A 1_555 1_555
H20A C20A 1_555 1_555
C21A C20A 1_555 1_555
C22A C21A 1_555 1_555
H21A C22A 1_555 1_555
C23A N4A 1_555 1_555
H22A C23A 1_555 1_555
C24A C24 1_555 1_555
H23A C24A 1_555 1_555
H24A C24A 1_555 1_555
C25A Mo1A 1_555 1_555
C26A Mo1A 1_555 1_555
C27A Mo1A 1_555 1_555
C28A Mo1A 1_555 1_555
C29A Mo1A 1_555 1_555
C30A C25A 1_555 1_555
H25A C30A 1_555 1_555
H26A C30A 1_555 1_555
H27A C30A 1_555 1_555
C31A C26A 1_555 1_555
H28A C31A 1_555 1_555
H29A C31A 1_555 1_555
H30A C31A 1_555 1_555
C32A C27A 1_555 1_555
H31A C32A 1_555 1_555
H32A C32A 1_555 1_555
H33A C32A 1_555 1_555
C33A C28A 1_555 1_555
H34A C33A 1_555 1_555
H35A C33A 1_555 1_555
H36A C33A 1_555 1_555
C34A C29A 1_555 1_555
H37A C34A 1_555 1_555
H38A C34A 1_555 1_555
H39A C34A 1_555 1_555
C35A Mo2A 1_555 1_555
C36A Mo2A 1_555 1_555
C37A Mo2A 1_555 1_555
C38A Mo2A 1_555 1_555
C39A Mo2A 1_555 1_555
C40A C35A 1_555 1_555
H40A C40A 1_555 1_555
H41A C40A 1_555 1_555
H42A C40A 1_555 1_555
C41A C36A 1_555 1_555
H43A C41A 1_555 1_555
H44A C41A 1_555 1_555
H45A C41A 1_555 1_555
C42A C37A 1_555 1_555
H46A C42A 1_555 1_555
H47A C42A 1_555 1_555
H48A C42A 1_555 1_555
C43A C38A 1_555 1_555
H49A C43A 1_555 1_555
H50A C43A 1_555 1_555
H51A C43A 1_555 1_555
C44A C39A 1_555 1_555
H52A C44A 1_555 1_555
H53A C44A 1_555 1_555
H54A C44A 1_555 1_555
Cu1 S2 1_555 1_555
Cu2 S2 1_555 1_555
Cu2 S3 1_555 1_555
Cu3 S1 1_555 1_555
Cu3 S3 1_555 1_555
Cu4 S5 1_555 1_555
Cu5 S5 1_555 1_555
Cu5 S6 1_555 1_555
Cu6 S6 1_555 1_555
C4 C5 1_555 1_555
C9 C10 1_555 1_555
C11 C12 1_555 1_555
C16 C17 1_555 1_555
C22 C23 1_555 1_555
C25 C26 1_555 1_555
C25 C29 1_555 1_555
C26 C27 1_555 1_555
C27 C28 1_555 1_555
C28 C29 1_555 1_555
C35 C36 1_555 1_555
C35 C39 1_555 1_555
C36 C37 1_555 1_555
C37 C38 1_555 1_555
C38 C39 1_555 1_555
Cu1A S2A 1_555 1_555
Cu2A S2A 1_555 1_555
Cu2A S3A 1_555 1_555
Cu3A S1A 1_555 1_555
Cu3A S3A 1_555 1_555
Cu4A S5A 1_555 1_555
Cu5A S5A 1_555 1_555
Cu5A S6A_2 1_555 1_555
Cu6A S6A 1_555 1_555
Cu6A_2 S6A_2 1_555 1_555
C4A C5A 1_555 1_555
C9A C10A 1_555 1_555
C11A C12A 1_555 1_555
C15A C18A 1_555 1_555
C16A C17A 1_555 1_555
C21A C24A 1_555 1_555
C22A C23A 1_555 1_555
C25A C26A 1_555 1_555
C25A C29A 1_555 1_555
C26A C27A 1_555 1_555
C27A C28A 1_555 1_555
C28A C29A 1_555 1_555
C35A C36A 1_555 1_555
C35A C39A 1_555 1_555
C36A C37A 1_555 1_555
C37A C38A 1_555 1_555
C38A C39A 1_555 1_555

#END
