
#######################################################################
#
#                 Cambridge Crystallographic Data Centre
#                                CCDC 
#
#######################################################################
#
# If this CIF has been generated from an entry in the Cambridge 
# Structural Database, then it will include bibliographic, chemical, 
# crystal, experimental, refinement or atomic coordinate data resulting 
# from the CCDC's data processing and validation procedures.
#
#######################################################################

data_EFEFUS
_symmetry_cell_setting           tetragonal
_symmetry_space_group_name_H-M   'P 42 b c'
_symmetry_Int_Tables_number      106
_space_group_name_Hall           'P 4c -2ab'
loop_
_symmetry_equiv_pos_site_id
_symmetry_equiv_pos_as_xyz
1 x,y,z
2 -x,-y,z
3 -y,x,1/2+z
4 y,-x,1/2+z
5 1/2+x,1/2-y,z
6 1/2-x,1/2+y,z
7 1/2-y,1/2-x,1/2+z
8 1/2+y,1/2+x,1/2+z
_cell_length_a                   19.870(3)
_cell_length_b                   19.870(3)
_cell_length_c                   12.749(3)
_cell_angle_alpha                90
_cell_angle_beta                 90
_cell_angle_gamma                90
_cell_volume                     5033.52
loop_
_atom_site_label
_atom_site_type_symbol
_atom_site_fract_x
_atom_site_fract_y
_atom_site_fract_z
Br1 Br 0.98927(3) 0.86805(4) 0.91127(7)
Mn1 Mn 0.79469(4) 0.99726(4) 0.87143(9)
Mn2 Mn 0.83326(5) 0.83784(5) 0.64283(11)
O1 O 0.92006(19) 0.90442(18) 0.6340(4)
O2 O 0.8573(2) 0.9657(2) 0.7384(4)
O3 O 0.8881(2) 0.7810(2) 0.7658(3)
H1 H 0.9115 0.8047 0.8075
H2 H 0.8615 0.7937 0.8141
O4 O 0.7802(2) 0.8912(2) 0.5160(4)
H3 H 0.8123 0.9106 0.4839
H4 H 0.7615 0.8618 0.4772
O5 O 0.8809(2) 0.9957(2) 0.9664(4)
H5 H 0.8931 1.0222 1.0153
H6 H 0.9130 0.9762 0.9344
N1 N 0.6355(3) 0.9170(3) 1.1781(5)
N2 N 0.7271(3) 0.9630(3) 1.0285(5)
N3 N 0.7499(2) 0.8973(2) 0.8508(4)
N4 N 0.6803(2) 0.8109(2) 0.8847(4)
N5 N 0.7540(3) 0.8544(2) 0.7680(4)
N6 N 0.7537(2) 0.7533(2) 0.6401(5)
N7 N 0.8577(2) 0.7623(2) 0.5055(4)
N8 N 0.8998(2) 0.7567(2) 0.4224(5)
N9 N 0.8147(2) 0.6837(2) 0.3967(4)
N10 N 0.9625(3) 0.7243(3) 0.2422(4)
N11 N 0.9134(3) 0.6267(3) 0.1038(5)
C1 C 0.7176(5) 0.9940(4) 1.1178(7)
H7 H 0.7423 1.0327 1.1319
C2 C 0.6708(6) 0.9705(4) 1.1943(7)
H8 H 0.6656 0.9941 1.2568
C3 C 0.6449(4) 0.8844(4) 1.0880(5)
H9 H 0.6199 0.8458 1.0745
C4 C 0.6907(3) 0.9063(3) 1.0142(5)
C5 C 0.7063(3) 0.8710(3) 0.9172(6)
C6 C 0.7133(3) 0.8037(3) 0.7923(5)
C7 C 0.7076(3) 0.7491(3) 0.7165(5)
C8 C 0.6586(3) 0.6979(4) 0.7178(6)
H10 H 0.6275 0.6946 0.7722
C9 C 0.6582(3) 0.6533(3) 0.6368(9)
H11 H 0.6264 0.6191 0.6359
C10 C 0.7050(3) 0.6581(3) 0.5546(6)
H12 H 0.7040 0.6286 0.4980
C11 C 0.7525(3) 0.7084(3) 0.5619(5)
C12 C 0.8077(3) 0.7176(3) 0.4863(5)
C13 C 0.8716(3) 0.7103(3) 0.3603(5)
C14 C 0.9058(3) 0.6904(3) 0.2628(5)
C15 C 0.8821(3) 0.6415(3) 0.1942(6)
H13 H 0.8431 0.6181 0.2116
C16 C 0.9677(4) 0.6625(5) 0.0823(6)
H14 H 0.9894 0.6555 0.0186
C17 C 0.9935(3) 0.7092(4) 0.1494(7)
H15 H 1.0331 0.7314 0.1316
C18 C 0.9104(3) 0.9568(3) 0.6892(5)
C19 C 0.9641(3) 1.0117(3) 0.6892(6)
H16 H 0.9572 1.0398 0.6279
H17 H 0.9572 1.0398 0.7505
O1A O 1.07994(19) 1.09558(18) 0.6340(4)
O2A O 1.1427(2) 1.0343(2) 0.7384(4)
C18A C 1.0896(3) 1.0432(3) 0.6892(5)
C19A C 1.0359(3) 0.9883(3) 0.6892(6)
H16A H 1.0428 0.9602 0.6279
H17A H 1.0428 0.9602 0.7505
Mn1A Mn 1.20531(4) 1.00274(4) 0.87143(9)
Mn2A Mn 1.16674(5) 1.16216(5) 0.64283(11)
O3A O 1.1119(2) 1.2190(2) 0.7658(3)
H1A H 1.0885 1.1953 0.8075
H2A H 1.1385 1.2063 0.8141
O4A O 1.2198(2) 1.1088(2) 0.5160(4)
H3A H 1.1877 1.0894 0.4839
H4A H 1.2385 1.1382 0.4772
O5A O 1.1191(2) 1.0043(2) 0.9664(4)
H5A H 1.1069 0.9778 1.0153
H6A H 1.0870 1.0238 0.9344
N1A N 1.3645(3) 1.0830(3) 1.1781(5)
N2A N 1.2729(3) 1.0370(3) 1.0285(5)
N3A N 1.2501(2) 1.1027(2) 0.8508(4)
N4A N 1.3197(2) 1.1891(2) 0.8847(4)
N5A N 1.2460(3) 1.1456(2) 0.7680(4)
N6A N 1.2463(2) 1.2467(2) 0.6401(5)
N7A N 1.1423(2) 1.2377(2) 0.5055(4)
N8A N 1.1002(2) 1.2433(2) 0.4224(5)
N9A N 1.1853(2) 1.3163(2) 0.3967(4)
N10A N 1.0375(3) 1.2757(3) 0.2422(4)
N11A N 1.0866(3) 1.3733(3) 0.1038(5)
C1A C 1.2824(5) 1.0060(4) 1.1178(7)
H7A H 1.2577 0.9673 1.1319
C2A C 1.3292(6) 1.0295(4) 1.1943(7)
H8A H 1.3344 1.0059 1.2568
C3A C 1.3551(4) 1.1156(4) 1.0880(5)
H9A H 1.3801 1.1542 1.0745
C4A C 1.3093(3) 1.0937(3) 1.0142(5)
C5A C 1.2937(3) 1.1290(3) 0.9172(6)
C6A C 1.2867(3) 1.1963(3) 0.7923(5)
C7A C 1.2924(3) 1.2509(3) 0.7165(5)
C8A C 1.3414(3) 1.3021(4) 0.7178(6)
H10A H 1.3725 1.3054 0.7722
C9A C 1.3418(3) 1.3467(3) 0.6368(9)
H11A H 1.3736 1.3809 0.6359
C10A C 1.2950(3) 1.3419(3) 0.5546(6)
H12A H 1.2960 1.3714 0.4980
C11A C 1.2475(3) 1.2916(3) 0.5619(5)
C12A C 1.1923(3) 1.2824(3) 0.4863(5)
C13A C 1.1284(3) 1.2897(3) 0.3603(5)
C14A C 1.0942(3) 1.3096(3) 0.2628(5)
C15A C 1.1179(3) 1.3585(3) 0.1942(6)
H13A H 1.1569 1.3819 0.2116
C16A C 1.0323(4) 1.3375(5) 0.0823(6)
H14A H 1.0106 1.3445 0.0186
C17A C 1.0065(3) 1.2908(4) 0.1494(7)
H15A H 0.9669 1.2686 0.1316
Mn1B Mn 1.00274(4) 0.79469(4) 0.37143(9)
Mn1C Mn 0.99726(4) 1.20531(4) 0.37143(9)
N8B N 1.2433(2) 0.8998(2) 0.9224(5)
N8C N 0.7567(2) 1.1002(2) 0.9224(5)
N10B N 1.2757(3) 0.9625(3) 0.7422(4)
N10C N 0.7243(3) 1.0375(3) 0.7422(4)
H18? H 0.5048 1.0125 0.8740
O6? O 0.5433(9) 1.0003(9) 0.896(2)
H19? H 0.5579 0.9822 0.8400
loop_
_geom_bond_atom_site_label_1
_geom_bond_atom_site_label_2
_geom_bond_site_symmetry_1
_geom_bond_site_symmetry_2
Mn1 O2 1_555 1_555
Mn2 O1 1_555 1_555
O1 C18 1_555 1_555
O2 C18 1_555 1_555
O3 Mn2 1_555 1_555
H1 O3 1_555 1_555
H2 O3 1_555 1_555
O4 Mn2 1_555 1_555
H3 O4 1_555 1_555
H4 O4 1_555 1_555
O5 Mn1 1_555 1_555
H5 O5 1_555 1_555
H6 O5 1_555 1_555
N1 C2 1_555 1_555
N2 C1 1_555 1_555
N3 Mn1 1_555 1_555
N4 C5 1_555 1_555
N5 Mn2 1_555 1_555
N6 Mn2 1_555 1_555
N7 Mn2 1_555 1_555
N8 N7 1_555 1_555
N9 C12 1_555 1_555
N10 C14 1_555 1_555
N11 C15 1_555 1_555
C1 H7 1_555 1_555
C2 C1 1_555 1_555
H8 C2 1_555 1_555
C3 N1 1_555 1_555
H9 C3 1_555 1_555
C4 N2 1_555 1_555
C5 N3 1_555 1_555
C6 N4 1_555 1_555
C7 N6 1_555 1_555
C8 C7 1_555 1_555
H10 C8 1_555 1_555
C9 C8 1_555 1_555
H11 C9 1_555 1_555
C10 C9 1_555 1_555
H12 C10 1_555 1_555
C11 N6 1_555 1_555
C12 N7 1_555 1_555
C13 N8 1_555 1_555
C14 C13 1_555 1_555
C15 C14 1_555 1_555
H13 C15 1_555 1_555
C16 N11 1_555 1_555
H14 C16 1_555 1_555
C17 N10 1_555 1_555
H15 C17 1_555 1_555
C18 C19 1_555 1_555
C19 H16 1_555 1_555
H17 C19 1_555 1_555
O1A C18A 1_555 1_555
O2A C18A 1_555 1_555
C18A C19A 1_555 1_555
C19A C19 1_555 1_555
H16A C19A 1_555 1_555
H17A C19A 1_555 1_555
Mn1A O2A 1_555 1_555
Mn2A O1A 1_555 1_555
O3A Mn2A 1_555 1_555
H1A O3A 1_555 1_555
H2A O3A 1_555 1_555
O4A Mn2A 1_555 1_555
H3A O4A 1_555 1_555
H4A O4A 1_555 1_555
O5A Mn1A 1_555 1_555
H5A O5A 1_555 1_555
H6A O5A 1_555 1_555
N1A C2A 1_555 1_555
N2A C1A 1_555 1_555
N3A Mn1A 1_555 1_555
N4A C5A 1_555 1_555
N5A Mn2A 1_555 1_555
N6A Mn2A 1_555 1_555
N7A Mn2A 1_555 1_555
N8A N7A 1_555 1_555
N9A C12A 1_555 1_555
N10A C14A 1_555 1_555
N11A C15A 1_555 1_555
C1A H7A 1_555 1_555
C2A C1A 1_555 1_555
H8A C2A 1_555 1_555
C3A N1A 1_555 1_555
H9A C3A 1_555 1_555
C4A N2A 1_555 1_555
C5A N3A 1_555 1_555
C6A N4A 1_555 1_555
C7A N6A 1_555 1_555
C8A C7A 1_555 1_555
H10A C8A 1_555 1_555
C9A C8A 1_555 1_555
H11A C9A 1_555 1_555
C10A C9A 1_555 1_555
H12A C10A 1_555 1_555
C11A N6A 1_555 1_555
C12A N7A 1_555 1_555
C13A N8A 1_555 1_555
C14A C13A 1_555 1_555
C15A C14A 1_555 1_555
H13A C15A 1_555 1_555
C16A N11A 1_555 1_555
H14A C16A 1_555 1_555
C17A N10A 1_555 1_555
H15A C17A 1_555 1_555
Mn1B N8 1_555 1_555
Mn1C N8A 1_555 1_555
N8B Mn1A 1_555 1_555
N8C Mn1 1_555 1_555
N10B Mn1A 1_555 1_555
N10C Mn1 1_555 1_555
N3 N5 1_555 1_555
N5 C6 1_555 1_555
N9 C13 1_555 1_555
N10 Mn1B 1_555 1_555
C3 C4 1_555 1_555
C4 C5 1_555 1_555
C6 C7 1_555 1_555
C10 C11 1_555 1_555
C11 C12 1_555 1_555
C16 C17 1_555 1_555
N3A N5A 1_555 1_555
N5A C6A 1_555 1_555
N9A C13A 1_555 1_555
N10A Mn1C 1_555 1_555
C3A C4A 1_555 1_555
C4A C5A 1_555 1_555
C6A C7A 1_555 1_555
C10A C11A 1_555 1_555
C11A C12A 1_555 1_555
C16A C17A 1_555 1_555

#END
