
#######################################################################
#
#                 Cambridge Crystallographic Data Centre
#                                CCDC 
#
#######################################################################
#
# If this CIF has been generated from an entry in the Cambridge 
# Structural Database, then it will include bibliographic, chemical, 
# crystal, experimental, refinement or atomic coordinate data resulting 
# from the CCDC's data processing and validation procedures.
#
#######################################################################

data_EFEGIH01
_symmetry_cell_setting           monoclinic
_symmetry_space_group_name_H-M   'P 21/n'
_symmetry_Int_Tables_number      14
_space_group_name_Hall           '-P 2yn'
loop_
_symmetry_equiv_pos_site_id
_symmetry_equiv_pos_as_xyz
1 x,y,z
2 1/2-x,1/2+y,1/2-z
3 -x,-y,-z
4 1/2+x,1/2-y,1/2+z
_cell_length_a                   11.637(6)
_cell_length_b                   10.905(6)
_cell_length_c                   21.023(12)
_cell_angle_alpha                90
_cell_angle_beta                 97.947(11)
_cell_angle_gamma                90
_cell_volume                     2642.23
loop_
_atom_site_label
_atom_site_type_symbol
_atom_site_fract_x
_atom_site_fract_y
_atom_site_fract_z
Zn1 Zn 0.59436(5) 0.59332(5) 0.17413(2)
C1 C 0.8587(4) 0.6208(4) -0.0012(2)
C2 C 0.8612(4) 0.6502(4) 0.0640(2)
C3 C 0.9264(4) 0.7493(5) 0.0894(2)
H1 H 0.9301 0.7680 0.1327
C4 C 0.9863(4) 0.8204(5) 0.0505(2)
C5 C 0.9840(5) 0.7936(5) -0.0135(3)
H2 H 1.0237 0.8425 -0.0395
C6 C 0.9213(5) 0.6922(5) -0.0388(2)
H3 H 0.9214 0.6717 -0.0817
C7 C 1.3212(4) 0.9151(4) 0.2202(2)
C8 C 1.3126(4) 0.8265(4) 0.1718(2)
C9 C 1.2163(4) 0.8268(4) 0.1241(2)
H4 H 1.2080 0.7664 0.0925
C10 C 1.1332(4) 0.9176(5) 0.1242(2)
C11 C 1.1422(4) 1.0077(5) 0.1709(2)
H5 H 1.0861 1.0686 0.1702
C12 C 1.2370(5) 1.0050(5) 0.2190(2)
H6 H 1.2439 1.0647 0.2509
C13 C 0.7840(4) 0.5915(4) 0.1079(2)
C14 C 0.7877(5) 0.5161(5) -0.0303(3)
C15 C 1.4171(5) 0.9105(5) 0.2752(2)
C16 C 1.4071(5) 0.7342(5) 0.1679(2)
C17 C 0.7336(5) 0.4811(5) 0.2890(2)
H7 H 0.7459 0.4195 0.2600
C18 C 0.7739(5) 0.4638(5) 0.3529(2)
H8 H 0.8100 0.3904 0.3665
C19 C 0.7611(4) 0.5555(5) 0.3975(2)
C20 C 0.7105(4) 0.6648(4) 0.3732(2)
H9 H 0.7044 0.7309 0.4005
C21 C 0.6695(4) 0.6748(4) 0.3085(2)
H10 H 0.6352 0.7482 0.2934
C22 C 0.9951(6) 0.1628(5) 0.6810(2)
H11 H 0.9990 0.1486 0.7248
C23 C 0.9454(6) 0.2713(6) 0.6564(2)
H12 H 0.9197 0.3291 0.6838
C24 C 0.9339(4) 0.2936(5) 0.5906(2)
C25 C 0.9781(5) 0.2061(5) 0.5540(2)
H13 H 0.9736 0.2173 0.5099
C26 C 1.0290(5) 0.1016(5) 0.5820(2)
H14 H 1.0590 0.0447 0.5557
C27 C 0.7941(5) 0.5400(5) 0.4692(2)
H15 H 0.7244 0.5478 0.4894
H16 H 0.8456 0.6066 0.4849
C28 C 0.8529(5) 0.4198(4) 0.4908(2)
H17 H 0.9257 0.4133 0.4735
H18 H 0.8038 0.3520 0.4741
C29 C 0.8765(5) 0.4105(5) 0.5643(2)
H19 H 0.9253 0.4790 0.5804
H20 H 0.8034 0.4191 0.5810
O1 O 0.6842(3) 0.6407(3) 0.10573(15)
O2 O 0.8216(3) 0.5098(4) 0.14620(18)
O3 O 0.7373(4) 0.4444(4) -0.0007(2)
O4 O 0.7832(5) 0.5096(4) -0.09325(19)
H21 H 0.7425 0.4489 -0.1149
O5 O 1.4400(3) 0.8195(4) 0.30746(17)
O6 O 1.4705(4) 1.0163(4) 0.2865(2)
H22 H 1.5299 1.0223 0.3186
O7 O 1.3819(5) 0.6272(5) 0.1544(3)
O8 O 1.5101(3) 0.7619(5) 0.18251(19)
O9 O 1.0415(3) 0.9282(3) 0.07412(18)
N1 N 0.6768(4) 0.5837(4) 0.26633(19)
N2 N 1.0378(3) 0.0774(4) 0.64522(18)
Zn1_2 Zn 1.59436(5) 0.59332(5) 0.17413(2)
Zn1C Zn 1.09436(5) -0.09332(5) 0.67413(2)
O7_2 O 0.3819(5) 0.6272(5) 0.1544(3)
O8_2 O 0.5101(3) 0.7619(5) 0.18251(19)
N2C N 0.5378(3) 0.4226(4) 0.14522(18)
loop_
_geom_bond_atom_site_label_1
_geom_bond_atom_site_label_2
_geom_bond_site_symmetry_1
_geom_bond_site_symmetry_2
Zn1 O1 1_555 1_555
C1 C2 1_555 1_555
C2 C3 1_555 1_555
C3 H1 1_555 1_555
C4 C3 1_555 1_555
C5 C4 1_555 1_555
H2 C5 1_555 1_555
C6 C1 1_555 1_555
H3 C6 1_555 1_555
C7 C8 1_555 1_555
C8 C9 1_555 1_555
C9 H4 1_555 1_555
C10 C9 1_555 1_555
C11 C10 1_555 1_555
H5 C11 1_555 1_555
C12 C7 1_555 1_555
H6 C12 1_555 1_555
C13 C2 1_555 1_555
C14 C1 1_555 1_555
C15 C7 1_555 1_555
C16 C8 1_555 1_555
C17 H7 1_555 1_555
C18 C17 1_555 1_555
H8 C18 1_555 1_555
C19 C18 1_555 1_555
C20 C19 1_555 1_555
H9 C20 1_555 1_555
C21 C20 1_555 1_555
H10 C21 1_555 1_555
C22 H11 1_555 1_555
C23 C22 1_555 1_555
H12 C23 1_555 1_555
C24 C23 1_555 1_555
C25 C24 1_555 1_555
H13 C25 1_555 1_555
C26 C25 1_555 1_555
H14 C26 1_555 1_555
C27 C19 1_555 1_555
H15 C27 1_555 1_555
H16 C27 1_555 1_555
C28 C27 1_555 1_555
H17 C28 1_555 1_555
H18 C28 1_555 1_555
C29 C24 1_555 1_555
H19 C29 1_555 1_555
H20 C29 1_555 1_555
O1 C13 1_555 1_555
O2 C13 1_555 1_555
O3 C14 1_555 1_555
O4 C14 1_555 1_555
H21 O4 1_555 1_555
O5 C15 1_555 1_555
O6 C15 1_555 1_555
H22 O6 1_555 1_555
O7 C16 1_555 1_555
O8 C16 1_555 1_555
O9 C4 1_555 1_555
N1 Zn1 1_555 1_555
N2 C22 1_555 1_555
Zn1_2 O7 1_555 1_555
Zn1C N2 1_555 1_555
O7_2 Zn1 1_555 1_555
O8_2 Zn1 1_555 1_555
N2C Zn1 1_555 1_555
C5 C6 1_555 1_555
C10 O9 1_555 1_555
C11 C12 1_555 1_555
C17 N1 1_555 1_555
C21 N1 1_555 1_555
C26 N2 1_555 1_555
C28 C29 1_555 1_555
O8 Zn1_2 1_555 1_555

#END
