
#######################################################################
#
#                 Cambridge Crystallographic Data Centre
#                                CCDC 
#
#######################################################################
#
# If this CIF has been generated from an entry in the Cambridge 
# Structural Database, then it will include bibliographic, chemical, 
# crystal, experimental, refinement or atomic coordinate data resulting 
# from the CCDC's data processing and validation procedures.
#
#######################################################################

data_EFIKEK
_symmetry_cell_setting           monoclinic
_symmetry_space_group_name_H-M   'P 21/c'
_symmetry_Int_Tables_number      14
_space_group_name_Hall           '-P 2ybc'
loop_
_symmetry_equiv_pos_site_id
_symmetry_equiv_pos_as_xyz
1 x,y,z
2 -x,1/2+y,1/2-z
3 -x,-y,-z
4 x,1/2-y,1/2+z
_cell_length_a                   10.0936(18)
_cell_length_b                   15.105(3)
_cell_length_c                   24.167(4)
_cell_angle_alpha                90
_cell_angle_beta                 97.780(3)
_cell_angle_gamma                90
_cell_volume                     3650.68
loop_
_atom_site_label
_atom_site_type_symbol
_atom_site_fract_x
_atom_site_fract_y
_atom_site_fract_z
C1 C 0.2068(3) 0.38084(19) 0.42163(13)
C2 C 0.0839(2) 0.37950(19) 0.45110(11)
C3 C 0.0954(3) 0.3877(2) 0.50837(12)
H1 H 0.1794 0.3921 0.5294
C4 C -0.0186(3) 0.3894(2) 0.53439(12)
H2 H -0.0112 0.3959 0.5729
C5 C -0.1419(3) 0.3814(2) 0.50368(11)
H3 H -0.2179 0.3834 0.5215
C6 C -0.1551(2) 0.37055(18) 0.44642(11)
C7 C -0.0407(2) 0.37059(18) 0.42051(11)
H4 H -0.0482 0.3645 0.3819
C8 C -0.2903(3) 0.36189(18) 0.41305(13)
C9 C 0.3664(3) 0.5865(2) 0.34088(12)
H5 H 0.3279 0.5616 0.3073
C10 C 0.3459(3) 0.6744(2) 0.34929(12)
H6 H 0.2951 0.7080 0.3219
C11 C 0.4014(3) 0.71312(18) 0.39903(11)
C12 C 0.4754(3) 0.65934(18) 0.43757(11)
H7 H 0.5140 0.6821 0.4718
C13 C 0.4917(3) 0.57166(18) 0.42483(11)
H8 H 0.5435 0.5366 0.4510
C14 C 0.3778(3) 0.80626(18) 0.41141(10)
C15 C 0.3914(2) 0.88137(18) 0.38066(10)
C16 C 0.3537(3) 0.95955(18) 0.40812(11)
C17 C 0.3108(3) 0.94187(18) 0.45875(11)
C18 C 0.2658(3) 1.00391(19) 0.49954(11)
C19 C 0.1734(3) 0.9765(2) 0.53357(12)
H9 H 0.1393 0.9192 0.5310
C20 C 0.1333(3) 1.0355(3) 0.57120(13)
H10 H 0.0721 1.0160 0.5940
C21 C 0.2645(3) 1.1433(2) 0.54506(13)
H11 H 0.2957 1.2012 0.5484
C22 C 0.3135(3) 1.0885(2) 0.50697(11)
H12 H 0.3786 1.1090 0.4864
C23 C 0.3650(3) 1.05021(17) 0.38640(10)
C24 C 0.4889(3) 1.08527(19) 0.38055(11)
H13 H 0.5648 1.0497 0.3859
C25 C 0.4989(3) 1.17256(19) 0.36685(11)
H14 H 0.5833 1.1952 0.3638
C26 C 0.2737(3) 1.19111(19) 0.35986(11)
H15 H 0.1987 1.2269 0.3516
C27 C 0.2555(3) 1.10455(18) 0.37372(11)
H16 H 0.1698 1.0825 0.3746
C28 C 0.4416(3) 0.88391(18) 0.32594(10)
C29 C 0.3827(3) 0.93808(18) 0.28339(11)
H17 H 0.3083 0.9719 0.2884
C30 C 0.4346(3) 0.94158(19) 0.23391(11)
H18 H 0.3942 0.9793 0.2062
C31 C 0.5947(3) 0.8412(2) 0.26397(11)
H19 H 0.6676 0.8069 0.2574
C32 C 0.5507(3) 0.83412(18) 0.31502(11)
H20 H 0.5936 0.7963 0.3421
Cd1 Cd 0.429236(19) 0.379931(13) 0.371404(8)
N1 N 0.4380(2) 0.53421(14) 0.37765(9)
N2 N 0.1753(3) 1.1174(2) 0.57722(10)
N3 N 0.3944(2) 1.22689(15) 0.35758(9)
N4 N 0.5392(2) 0.89433(15) 0.22296(9)
O1 O 0.19344(17) 0.38893(13) 0.37006(8)
O2 O 0.31806(18) 0.37286(15) 0.45098(8)
O3 O -0.30165(18) 0.34317(15) 0.36238(8)
O4 O -0.39050(17) 0.37457(13) 0.43777(8)
S1 S 0.31803(8) 0.83079(5) 0.47296(3)
Cd1_2 Cd 0.429236(19) 1.379931(13) 0.371404(8)
Cd1A Cd 0.570764(19) 0.879931(13) 0.128596(8)
Cd1_3 Cd -0.570764(19) 0.379931(13) 0.371404(8)
N3_2 N 0.3944(2) 0.22689(15) 0.35758(9)
N4A N 0.4608(2) 0.39433(15) 0.27704(9)
O4_2 O 0.60950(17) 0.37457(13) 0.43777(8)
C33 C -0.1435(3) 0.1727(3) 0.31073(15)
C34 C -0.0632(3) 0.1299(2) 0.27009(12)
C35 C -0.0506(3) 0.0396(2) 0.26817(14)
H21 H -0.0926 0.0043 0.2921
C36 C 0.0241(4) 0.0009(3) 0.23104(15)
H22 H 0.0312 -0.0605 0.2294
C37 C 0.0884(3) 0.0533(2) 0.19628(13)
H23 H 0.1404 0.0273 0.1717
C38 C 0.0757(3) 0.1437(2) 0.19780(12)
C39 C -0.0007(3) 0.1826(2) 0.23435(12)
H24 H -0.0102 0.2438 0.2350
C40 C 0.1421(3) 0.2006(3) 0.15895(13)
O5 O -0.1680(2) 0.25539(17) 0.29992(9)
H25 H -0.2105 0.2762 0.3234
O6 O -0.1825(3) 0.1331(2) 0.34820(12)
O7 O 0.0911(3) 0.27982(18) 0.15375(10)
H26 H 0.1227 0.3065 0.1290
O8 O 0.2332(2) 0.17493(17) 0.13533(9)
loop_
_geom_bond_atom_site_label_1
_geom_bond_atom_site_label_2
_geom_bond_site_symmetry_1
_geom_bond_site_symmetry_2
C1 C2 1_555 1_555
C2 C3 1_555 1_555
C3 H1 1_555 1_555
C4 C3 1_555 1_555
H2 C4 1_555 1_555
C5 C4 1_555 1_555
H3 C5 1_555 1_555
C6 C5 1_555 1_555
C7 C2 1_555 1_555
H4 C7 1_555 1_555
C8 C6 1_555 1_555
C9 H5 1_555 1_555
C10 C9 1_555 1_555
H6 C10 1_555 1_555
C11 C10 1_555 1_555
C12 C11 1_555 1_555
H7 C12 1_555 1_555
C13 C12 1_555 1_555
H8 C13 1_555 1_555
C14 C11 1_555 1_555
C15 C14 1_555 1_555
C16 C15 1_555 1_555
C17 C16 1_555 1_555
C18 C17 1_555 1_555
C19 C18 1_555 1_555
H9 C19 1_555 1_555
C20 C19 1_555 1_555
H10 C20 1_555 1_555
C21 H11 1_555 1_555
C22 C18 1_555 1_555
H12 C22 1_555 1_555
C23 C16 1_555 1_555
C24 C23 1_555 1_555
H13 C24 1_555 1_555
C25 C24 1_555 1_555
H14 C25 1_555 1_555
C26 H15 1_555 1_555
C27 C23 1_555 1_555
H16 C27 1_555 1_555
C28 C15 1_555 1_555
C29 C28 1_555 1_555
H17 C29 1_555 1_555
C30 C29 1_555 1_555
H18 C30 1_555 1_555
C31 H19 1_555 1_555
C32 C28 1_555 1_555
H20 C32 1_555 1_555
Cd1 N1 1_555 1_555
N1 C9 1_555 1_555
N2 C20 1_555 1_555
N3 C25 1_555 1_555
N4 C30 1_555 1_555
O1 C1 1_555 1_555
O2 C1 1_555 1_555
O3 C8 1_555 1_555
O4 C8 1_555 1_555
S1 C14 1_555 1_555
C33 C34 1_555 1_555
C34 C35 1_555 1_555
C35 H21 1_555 1_555
C36 C35 1_555 1_555
H22 C36 1_555 1_555
C37 C36 1_555 1_555
H23 C37 1_555 1_555
C38 C37 1_555 1_555
C39 C34 1_555 1_555
H24 C39 1_555 1_555
C40 C38 1_555 1_555
O5 C33 1_555 1_555
H25 O5 1_555 1_555
O6 C33 1_555 1_555
O7 C40 1_555 1_555
H26 O7 1_555 1_555
O8 C40 1_555 1_555
Cd1_2 N3 1_555 1_555
Cd1A N4 1_555 1_555
Cd1_3 O4 1_555 1_555
N3_2 Cd1 1_555 1_555
N4A Cd1 1_555 1_555
O4_2 Cd1 1_555 1_555
C6 C7 1_555 1_555
C13 N1 1_555 1_555
C17 S1 1_555 1_555
C21 C22 1_555 1_555
C21 N2 1_555 1_555
C26 C27 1_555 1_555
C26 N3 1_555 1_555
C31 C32 1_555 1_555
C31 N4 1_555 1_555
Cd1 O1 1_555 1_555
Cd1 O2 1_555 1_555
C38 C39 1_555 1_555

#END
