
#######################################################################
#
#                 Cambridge Crystallographic Data Centre
#                                CCDC 
#
#######################################################################
#
# If this CIF has been generated from an entry in the Cambridge 
# Structural Database, then it will include bibliographic, chemical, 
# crystal, experimental, refinement or atomic coordinate data resulting 
# from the CCDC's data processing and validation procedures.
#
#######################################################################

data_EFIMAH
_symmetry_cell_setting           monoclinic
_symmetry_space_group_name_H-M   'C 2/c'
_symmetry_Int_Tables_number      15
_space_group_name_Hall           '-C 2yn'
loop_
_symmetry_equiv_pos_site_id
_symmetry_equiv_pos_as_xyz
1 x,y,z
2 -x,y,1/2-z
3 1/2+x,1/2+y,z
4 1/2-x,1/2+y,1/2-z
5 -x,-y,-z
6 x,-y,1/2+z
7 1/2-x,1/2-y,-z
8 1/2+x,1/2-y,1/2+z
_cell_length_a                   9.537(1)
_cell_length_b                   29.622(3)
_cell_length_c                   8.9398(9)
_cell_angle_alpha                90
_cell_angle_beta                 121.19(4)
_cell_angle_gamma                90
_cell_volume                     2160.48
loop_
_atom_site_label
_atom_site_type_symbol
_atom_site_fract_x
_atom_site_fract_y
_atom_site_fract_z
Pb1 Pb 0.500 0.0264(1) 0.250
Pb2 Pb 1.000 -0.2605(1) -0.250
Zr1 Zr 1.000 -0.1162(2) 0.250
C1 C 1.104(2) -0.186(1) 0.082(3)
C2 C 0.921(2) -0.177(1) -0.060(2)
O1 O 1.181(2) -0.2173(7) 0.058(5)
O2 O 1.163(3) -0.1634(7) 0.221(2)
O3 O 0.863(3) -0.1488(8) -0.001(3)
O4 O 0.842(3) -0.1932(9) -0.212(2)
C3 C 0.820(2) -0.054(1) 0.372(1)
C4 C 0.713(2) -0.057(1) 0.169(1)
O5 O 0.947(2) -0.0774(8) 0.436(2)
O6 O 0.762(3) -0.0365(8) 0.457(3)
O7 O 0.571(2) -0.0404(9) 0.086(3)
O8 O 0.780(2) -0.0787(8) 0.102(3)
O9 O 0.500 0.116(2) 0.250
O10 O 0.977(6) -0.311(1) 0.013(6)
O11 O 0.228(4) 0.0535(8) 0.263(4)
C3A C 0.180(2) -0.054(1) 0.128(1)
C4A C 0.287(2) -0.057(1) 0.331(1)
O5A O 0.053(2) -0.0774(8) 0.064(2)
O6A O 0.238(3) -0.0365(8) 0.043(3)
O7A O 0.429(2) -0.0404(9) 0.414(3)
O8A O 0.220(2) -0.0787(8) 0.398(3)
O11A O 0.772(4) 0.0535(8) 0.237(4)
C1A C 0.896(2) -0.186(1) 0.418(3)
C2A C 1.079(2) -0.177(1) 0.560(2)
O1A O 0.819(2) -0.2173(7) 0.442(5)
O2A O 0.837(3) -0.1634(7) 0.279(2)
O3A O 1.137(3) -0.1488(8) 0.501(3)
O4A O 1.158(3) -0.1932(9) 0.712(2)
O10A O 1.023(6) -0.311(1) -0.513(6)
O7D O 0.429(2) 0.0404(9) -0.086(3)
O7E O 0.571(2) 0.0404(9) 0.586(3)
O1A_2 O 0.819(2) -0.2173(7) -0.558(5)
O1F O 1.319(2) -0.2827(7) -0.058(5)
O1G O 0.681(2) -0.2827(7) -0.442(5)
O4A_2 O 1.158(3) -0.1932(9) -0.288(2)
O5A_2 O 1.053(2) -0.0774(8) 0.064(2)
O8A_2 O 1.220(2) -0.0787(8) 0.398(3)
Pb2F Pb 1.500 -0.2395(1) 0.250
Pb1D Pb 0.500 -0.0264(1) -0.250
Zr1_2 Zr 0.000 -0.1162(2) 0.250
Pb1D_2 Pb 0.500 -0.0264(1) 0.750
Pb2_2 Pb 1.000 -0.2605(1) 0.750
Pb2F_2 Pb 0.500 -0.2395(1) 0.250
O12 O 0.500 -0.241(2) 0.750
loop_
_geom_bond_atom_site_label_1
_geom_bond_atom_site_label_2
_geom_bond_site_symmetry_1
_geom_bond_site_symmetry_2
Pb1 O6 1_555 1_555
Pb2 O1 1_555 1_555
Zr1 O2 1_555 1_555
C1 C2 1_555 1_555
C2 O3 1_555 1_555
O1 C1 1_555 1_555
O2 C1 1_555 1_555
O3 Zr1 1_555 1_555
O4 Pb2 1_555 1_555
C3 C4 1_555 1_555
C4 O7 1_555 1_555
O5 Zr1 1_555 1_555
O6 C3 1_555 1_555
O7 Pb1 1_555 1_555
O8 Zr1 1_555 1_555
O9 Pb1 1_555 1_555
O10 Pb2 1_555 1_555
O11 Pb1 1_555 1_555
C3A C4A 1_555 1_555
C4A O7A 1_555 1_555
O5A C3A 1_555 1_555
O6A Pb1 1_555 1_555
O7A Pb1 1_555 1_555
O8A C4A 1_555 1_555
O11A Pb1 1_555 1_555
C1A C2A 1_555 1_555
C2A O3A 1_555 1_555
O1A C1A 1_555 1_555
O2A Zr1 1_555 1_555
O3A Zr1 1_555 1_555
O4A C2A 1_555 1_555
O10A Pb2 1_555 1_555
O7D Pb1 1_555 1_555
O7E Pb1 1_555 1_555
O1A_2 Pb2 1_555 1_555
O1F Pb2 1_555 1_555
O1G Pb2 1_555 1_555
O4A_2 Pb2 1_555 1_555
O5A_2 Zr1 1_555 1_555
O8A_2 Zr1 1_555 1_555
Pb2F O1 1_555 1_555
Pb1D O7 1_555 1_555
Zr1_2 O5A 1_555 1_555
Pb1D_2 O7A 1_555 1_555
Pb2_2 O1A 1_555 1_555
Pb2F_2 O1A 1_555 1_555
C2 O4 1_555 1_555
C3 O5 1_555 1_555
C4 O8 1_555 1_555
C3A O6A 1_555 1_555
O8A Zr1_2 1_555 1_555
C1A O2A 1_555 1_555
O4A Pb2_2 1_555 1_555
O7D Pb1D 1_555 1_555
O7E Pb1D_2 1_555 1_555
O1F Pb2F 1_555 1_555

#END
