
#######################################################################
#
#                 Cambridge Crystallographic Data Centre
#                                CCDC 
#
#######################################################################
#
# If this CIF has been generated from an entry in the Cambridge 
# Structural Database, then it will include bibliographic, chemical, 
# crystal, experimental, refinement or atomic coordinate data resulting 
# from the CCDC's data processing and validation procedures.
#
#######################################################################

data_EFIYIB
_symmetry_cell_setting           monoclinic
_symmetry_space_group_name_H-M   'P 21/a'
_symmetry_Int_Tables_number      14
_space_group_name_Hall           '-P 2yab'
loop_
_symmetry_equiv_pos_site_id
_symmetry_equiv_pos_as_xyz
1 x,y,z
2 1/2+x,1/2-y,z
3 -x,-y,-z
4 1/2-x,1/2+y,-z
_cell_length_a                   13.037(4)
_cell_length_b                   11.003(3)
_cell_length_c                   14.851(3)
_cell_angle_alpha                90
_cell_angle_beta                 100.12(2)
_cell_angle_gamma                90
_cell_volume                     2097.17
loop_
_atom_site_label
_atom_site_type_symbol
_atom_site_fract_x
_atom_site_fract_y
_atom_site_fract_z
La1 La 0.65477(2) 0.30683(2) 0.272070(10)
O1 O 0.6296(3) 0.0046(3) 0.4822(2)
O2 O 0.6405(3) 0.1150(3) 0.3591(2)
O3 O 0.6299(3) 0.6397(3) 0.4671(3)
O4 O 0.6374(3) 0.5192(3) 0.3469(2)
O5 O 0.2907(2) 0.3300(3) 0.2259(2)
O6 O 0.4586(2) 0.2903(3) 0.2798(2)
O7 O 0.7070(3) 0.6112(3) 0.0684(3)
O8 O 0.7172(2) 0.4394(3) 0.1510(2)
O9 O 0.8338(3) 0.3676(4) 0.3589(3)
O10 O 0.5690(3) 0.1836(3) 0.1374(3)
N1 N 0.6338(3) 0.3217(3) 0.4481(3)
N2 N 0.5204(3) 0.4535(3) 0.1692(2)
C1 C 0.6314(4) 0.2197(4) 0.4962(3)
C2 C 0.6252(5) 0.2212(5) 0.5883(4)
C3 C 0.6243(6) 0.3327(6) 0.6313(4)
C4 C 0.6272(4) 0.4389(5) 0.5813(3)
C5 C 0.6316(3) 0.4287(4) 0.4906(3)
C6 C 0.6334(3) 0.1040(4) 0.4423(3)
C7 C 0.6337(3) 0.5352(4) 0.4282(3)
C8 C 0.4188(3) 0.4524(4) 0.1748(3)
C9 C 0.3492(3) 0.5397(4) 0.1341(3)
C10 C 0.3876(4) 0.6333(5) 0.0874(4)
C11 C 0.4914(4) 0.6352(4) 0.0805(3)
C12 C 0.5555(3) 0.5426(4) 0.1211(3)
C13 C 0.3861(3) 0.3491(4) 0.2305(3)
C14 C 0.6696(3) 0.5311(4) 0.1126(3)
H1 H 0.6382 0.6938 0.4311
H2 H 0.6220 0.1493 0.6205
H3 H 0.6216 0.3363 0.6933
H4 H 0.6261 0.5147 0.6090
H5 H 0.8386 0.4136 0.4028
H6 H 0.8893 0.3359 0.3541
H7 H 0.2789 0.5355 0.1380
H8 H 0.5056 0.1860 0.1356
H9 H 0.5837 0.1576 0.0895
H10 H 0.3434 0.6948 0.0608
H11 H 0.5181 0.6976 0.0492
La1A La 0.15477(2) 0.19317(2) 0.272070(10)
O5A O 0.7907(2) 0.1700(3) 0.2259(2)
O11 O 0.1136(4) -0.3191(4) 0.3674(3)
C15 C 0.0230(10) -0.4010(10) 0.2188(9)
C16 C 0.107(2) -0.3400(10) 0.2731(10)
H14 H 0.1178 -0.3844 0.3944
H17 H 0.0106 -0.4765 0.2479
H18 H 0.0393 -0.4178 0.1594
H19 H -0.0381 -0.3513 0.2125
H20 H 0.1705 -0.3840 0.2660
H21 H 0.1128 -0.2608 0.2448
O12 O 0.6134(3) 0.0584(4) 0.9958(3)
H12 H 0.5959 -0.0119 0.9889
H13 H 0.6662 0.0795 0.9786
O13 O 0.3601(3) 0.1915(3) 0.0538(3)
H15 H 0.3185 0.1438 0.0673
H16 H 0.3404 0.2467 0.0197
loop_
_geom_bond_atom_site_label_1
_geom_bond_atom_site_label_2
_geom_bond_site_symmetry_1
_geom_bond_site_symmetry_2
La1 O2 1_555 1_555
O1 C6 1_555 1_555
O2 C6 1_555 1_555
O3 C7 1_555 1_555
O4 La1 1_555 1_555
O5 C13 1_555 1_555
O6 La1 1_555 1_555
O7 C14 1_555 1_555
O8 La1 1_555 1_555
O9 La1 1_555 1_555
O10 La1 1_555 1_555
O11 C16 1_555 1_555
O12 H12 1_555 1_555
O13 H15 1_555 1_555
N1 La1 1_555 1_555
N2 La1 1_555 1_555
C1 N1 1_555 1_555
C2 C1 1_555 1_555
C3 C2 1_555 1_555
C4 C3 1_555 1_555
C5 N1 1_555 1_555
C6 C1 1_555 1_555
C7 O4 1_555 1_555
C8 N2 1_555 1_555
C9 C8 1_555 1_555
C10 C9 1_555 1_555
C11 C10 1_555 1_555
C12 N2 1_555 1_555
C13 O6 1_555 1_555
C14 O8 1_555 1_555
C15 C16 1_555 1_555
C16 H20 1_555 1_555
H1 O3 1_555 1_555
H2 C2 1_555 1_555
H3 C3 1_555 1_555
H4 C4 1_555 1_555
H5 O9 1_555 1_555
H6 O9 1_555 1_555
H7 C9 1_555 1_555
H8 O10 1_555 1_555
H9 O10 1_555 1_555
H10 C10 1_555 1_555
H11 C11 1_555 1_555
H13 O12 1_555 1_555
H14 O11 1_555 1_555
H16 O13 1_555 1_555
H17 C15 1_555 1_555
H18 C15 1_555 1_555
H19 C15 1_555 1_555
H21 C16 1_555 1_555
La1A O5 1_555 1_555
O5A La1 1_555 1_555
C4 C5 1_555 1_555
C5 C7 1_555 1_555
C8 C13 1_555 1_555
C11 C12 1_555 1_555
C12 C14 1_555 1_555

#END
