
#######################################################################
#
#                 Cambridge Crystallographic Data Centre
#                                CCDC 
#
#######################################################################
#
# If this CIF has been generated from an entry in the Cambridge 
# Structural Database, then it will include bibliographic, chemical, 
# crystal, experimental, refinement or atomic coordinate data resulting 
# from the CCDC's data processing and validation procedures.
#
#######################################################################

data_EFIYOH
_symmetry_cell_setting           tetragonal
_symmetry_space_group_name_H-M   'P 41 21 2'
_symmetry_Int_Tables_number      92
_space_group_name_Hall           'P 4abw 2nw'
loop_
_symmetry_equiv_pos_site_id
_symmetry_equiv_pos_as_xyz
1 x,y,z
2 -x,-y,1/2+z
3 1/2-y,1/2+x,1/4+z
4 1/2+y,1/2-x,3/4+z
5 1/2-x,1/2+y,1/4-z
6 1/2+x,1/2-y,3/4-z
7 y,x,-z
8 -y,-x,1/2-z
_cell_length_a                   6.1030(3)
_cell_length_b                   6.1030(3)
_cell_length_c                   36.826(2)
_cell_angle_alpha                90
_cell_angle_beta                 90
_cell_angle_gamma                90
_cell_volume                     1371.64
loop_
_atom_site_label
_atom_site_type_symbol
_atom_site_fract_x
_atom_site_fract_y
_atom_site_fract_z
Sm1 Sm -0.32100(6) -0.32100(6) -0.5000
O1 O 0.3751(10) -0.2186(8) -0.46290(16)
O2 O 0.0631(10) -0.2976(8) -0.49160(11)
O3 O -0.1850(9) -0.1641(9) -0.43987(11)
H1 H -0.2604 -0.1930 -0.4221
O4 O 0.1054(10) 0.2103(9) -0.43712(18)
H2 H 0.1736 0.3164 -0.4294
O5 O 0.0527(12) -0.0761(12) -0.35287(17)
O6 O -0.1026(10) 0.2365(10) -0.37169(16)
O7 O -0.3024(9) -0.6223(12) -0.45559(15)
H3 H -0.4067 -0.7049 -0.4586
H4 H -0.1916 -0.6275 -0.4395
O8 O -0.6375(17) -0.6375(17) -0.5000
H5 H -0.5802 -0.7582 -0.5023
C1 C 0.1692(11) -0.2328(12) -0.46480(19)
C2 C 0.0406(14) -0.1770(11) -0.4303(2)
H6 H 0.0591 -0.2974 -0.4130
C3 C 0.1277(13) 0.0342(12) -0.4127(2)
H7 H 0.2843 0.0138 -0.4079
C4 C 0.0133(14) 0.0745(13) -0.3764(3)
Sm1_2 Sm 0.67900(6) -0.32100(6) -0.5000
O1_2 O -0.6249(10) -0.2186(8) -0.46290(16)
O1F O -0.2186(8) -0.6249(10) -0.53710(16)
O2F O -0.2976(8) 0.0631(10) -0.50840(11)
O3F O -0.1641(9) -0.1850(9) -0.56013(11)
H1F H -0.1930 -0.2604 -0.5779
C2F C -0.1770(11) 0.0406(14) -0.5697(2)
C1F C -0.2328(12) 0.1692(11) -0.53520(19)
O1F_2 O -0.2186(8) 0.3751(10) -0.53710(16)
H6F H -0.2974 0.0591 -0.5870
C3F C 0.0342(12) 0.1277(13) -0.5873(2)
O4F O 0.2103(9) 0.1054(10) -0.56288(18)
H2F H 0.3164 0.1736 -0.5706
H7F H 0.0138 0.2843 -0.5921
C4F C 0.0745(13) 0.0133(14) -0.6236(3)
O5F O -0.0761(12) 0.0527(12) -0.64713(17)
O6F O 0.2365(10) -0.1026(10) -0.62831(16)
O7F O -0.6223(12) -0.3024(9) -0.54441(15)
H3F H -0.7049 -0.4067 -0.5414
H4F H -0.6275 -0.1916 -0.5605
H5F H -0.7582 -0.5802 -0.4977
Sm1_3 Sm -0.32100(6) 0.67900(6) -0.5000
loop_
_geom_bond_atom_site_label_1
_geom_bond_atom_site_label_2
_geom_bond_site_symmetry_1
_geom_bond_site_symmetry_2
Sm1 O2 1_555 1_555
O1 C1 1_555 1_555
O2 C1 1_555 1_555
O3 Sm1 1_555 1_555
H1 O3 1_555 1_555
O4 H2 1_555 1_555
O5 C4 1_555 1_555
O6 C4 1_555 1_555
O7 Sm1 1_555 1_555
H3 O7 1_555 1_555
H4 O7 1_555 1_555
O8 Sm1 1_555 1_555
H5 O8 1_555 1_555
C1 C2 1_555 1_555
C2 O3 1_555 1_555
H6 C2 1_555 1_555
C3 O4 1_555 1_555
H7 C3 1_555 1_555
C4 C3 1_555 1_555
Sm1_2 O1 1_555 1_555
O1_2 Sm1 1_555 1_555
O1F Sm1 1_555 1_555
O2F Sm1 1_555 1_555
O3F Sm1 1_555 1_555
H1F O3F 1_555 1_555
C2F O3F 1_555 1_555
C1F O2F 1_555 1_555
O1F_2 C1F 1_555 1_555
H6F C2F 1_555 1_555
C3F C2F 1_555 1_555
O4F C3F 1_555 1_555
H2F O4F 1_555 1_555
H7F C3F 1_555 1_555
C4F C3F 1_555 1_555
O5F C4F 1_555 1_555
O6F C4F 1_555 1_555
O7F Sm1 1_555 1_555
H3F O7F 1_555 1_555
H4F O7F 1_555 1_555
H5F O8 1_555 1_555
Sm1_3 O1F_2 1_555 1_555
C2 C3 1_555 1_555
C2F C1F 1_555 1_555

#END
