
#######################################################################
#
#                 Cambridge Crystallographic Data Centre
#                                CCDC 
#
#######################################################################
#
# If this CIF has been generated from an entry in the Cambridge 
# Structural Database, then it will include bibliographic, chemical, 
# crystal, experimental, refinement or atomic coordinate data resulting 
# from the CCDC's data processing and validation procedures.
#
#######################################################################

data_EFOBOQ01
_symmetry_cell_setting           orthorhombic
_symmetry_space_group_name_H-M   'P 21 21 21'
_symmetry_Int_Tables_number      19
_space_group_name_Hall           'P 2ac 2ab'
loop_
_symmetry_equiv_pos_site_id
_symmetry_equiv_pos_as_xyz
1 x,y,z
2 1/2-x,-y,1/2+z
3 -x,1/2+y,1/2-z
4 1/2+x,1/2-y,-z
_cell_length_a                   12.4380(13)
_cell_length_b                   14.4721(14)
_cell_length_c                   19.130(2)
_cell_angle_alpha                90
_cell_angle_beta                 90
_cell_angle_gamma                90
_cell_volume                     3443.48
loop_
_atom_site_label
_atom_site_type_symbol
_atom_site_fract_x
_atom_site_fract_y
_atom_site_fract_z
Se1 Se 0.66510(3) 0.35822(3) 1.11793(2)
Cu1 Cu 0.16995(3) 0.58005(3) 1.12199(2)
Cu2 Cu 0.52764(3) 0.46689(3) 1.01356(2)
Cu3 Cu 0.82320(3) 0.42571(3) 0.82286(2)
O1 O 0.22516(16) 0.46430(17) 1.08028(12)
O2 O 0.32617(17) 0.61646(15) 1.12293(12)
O3 O 0.47841(18) 0.57046(17) 1.07458(12)
O4 O 0.66148(18) 0.53093(17) 0.98202(12)
O5 O 0.68668(18) 0.36515(16) 0.84948(12)
O6 O 0.78916(19) 0.51283(19) 0.90277(14)
O7 O 0.1514(2) 0.6432(2) 1.01069(15)
N1 N 0.1254(2) 0.6895(2) 1.17791(15)
N2 N 0.0240(2) 0.5258(2) 1.14113(15)
N3 N 0.38571(19) 0.41543(19) 1.03131(13)
N4 N 0.5633(2) 0.37972(18) 0.94019(14)
N5 N 0.8717(2) 0.3150(2) 0.76490(14)
N6 N 0.9801(2) 0.4624(2) 0.82689(15)
N7 N 0.7236(3) 0.4758(3) 1.2383(2)
C1 C 0.0102(3) 0.6735(3) 1.1949(3)
H1 H -0.0020 0.6957 1.2421
H2 H -0.0324 0.7119 1.1639
C2 C -0.0276(4) 0.5897(4) 1.1912(4)
H3 H -0.1033 0.5937 1.1795
H4 H -0.0227 0.5623 1.2374
C3 C 0.1898(3) 0.7018(3) 1.2409(2)
H5 H 0.1851 0.6472 1.2693
H6 H 0.1633 0.7539 1.2668
H7 H 0.2634 0.7124 1.2282
C4 C 0.1392(4) 0.7745(3) 1.1379(3)
H8 H 0.0990 0.7704 1.0951
H9 H 0.2140 0.7831 1.1273
H10 H 0.1137 0.8260 1.1648
C5 C -0.0351(4) 0.5077(4) 1.0760(3)
H11 H -0.0432 0.5643 1.0504
H12 H -0.1047 0.4831 1.0869
H13 H 0.0041 0.4639 1.0482
C6 C 0.0307(4) 0.4371(3) 1.1765(2)
H14 H 0.0666 0.4447 1.2205
H15 H 0.0702 0.3944 1.1479
H16 H -0.0405 0.4136 1.1843
C7 C 0.3247(2) 0.4712(2) 1.06507(16)
C8 C 0.3813(2) 0.5588(2) 1.08860(15)
C9 C 0.3410(3) 0.3319(2) 1.00074(16)
H17 H 0.2978 0.3482 0.9604
H18 H 0.2944 0.3021 1.0346
C10 C 0.4277(3) 0.2654(3) 0.9788(2)
H19 H 0.3938 0.2085 0.9636
H20 H 0.4713 0.2509 1.0194
C11 C 0.5023(3) 0.2992(2) 0.92027(18)
H21 H 0.5515 0.2499 0.9078
H22 H 0.4595 0.3137 0.8793
C12 C 0.6462(2) 0.4043(2) 0.90402(18)
C13 C 0.7023(2) 0.4892(2) 0.93148(18)
C14 C 0.9909(3) 0.3247(3) 0.7560(2)
H23 H 1.0272 0.2885 0.7915
H24 H 1.0115 0.3006 0.7106
C15 C 1.0250(3) 0.4210(3) 0.7614(2)
H25 H 0.9996 0.4554 0.7211
H26 H 1.1028 0.4243 0.7623
C16 C 0.8498(4) 0.2265(3) 0.8004(3)
H27 H 0.8821 0.2271 0.8460
H28 H 0.8796 0.1767 0.7734
H29 H 0.7736 0.2180 0.8048
C17 C 0.8216(3) 0.3164(3) 0.6957(2)
H30 H 0.8372 0.3741 0.6731
H31 H 0.7452 0.3094 0.7005
H32 H 0.8497 0.2665 0.6681
C18 C 1.0294(4) 0.4268(4) 0.8899(3)
H33 H 1.0216 0.3608 0.8912
H34 H 0.9948 0.4534 0.9300
H35 H 1.1043 0.4425 0.8903
C19 C 0.9960(3) 0.5647(3) 0.8261(2)
H36 H 0.9646 0.5901 0.7845
H37 H 1.0715 0.5784 0.8270
H38 H 0.9620 0.5914 0.8664
C20 C 0.6999(3) 0.4307(3) 1.1920(2)
N7A N 0.7764(3) 0.5242(3) 0.7383(2)
Cu3A Cu 0.67680(3) 0.57429(3) 1.32286(2)
O8 O 0.7941(3) 0.6878(2) 0.0187(2)
O9 O 0.9857(3) 0.7314(3) 0.95483(19)
Cl1 Cl 0.84449(9) 0.93020(9) 0.13014(6)
O10 O 0.9441(3) 0.9667(3) 0.1277(2)
O11 O 0.7788(4) 0.9367(4) 0.0755(2)
O12 O 0.8467(4) 0.8475(3) 0.1667(3)
O13 O 0.7931(3) 0.9870(3) 0.1855(3)
loop_
_geom_bond_atom_site_label_1
_geom_bond_atom_site_label_2
_geom_bond_site_symmetry_1
_geom_bond_site_symmetry_2
Se1 Cu2 1_555 1_555
Cu1 O1 1_555 1_555
Cu2 O3 1_555 1_555
Cu3 O5 1_555 1_555
O1 C7 1_555 1_555
O2 Cu1 1_555 1_555
O3 C8 1_555 1_555
O4 Cu2 1_555 1_555
O5 C12 1_555 1_555
O6 Cu3 1_555 1_555
O7 Cu1 1_555 1_555
N1 Cu1 1_555 1_555
N2 Cu1 1_555 1_555
N3 Cu2 1_555 1_555
N4 Cu2 1_555 1_555
N5 Cu3 1_555 1_555
N6 Cu3 1_555 1_555
N7 C20 1_555 1_555
C1 N1 1_555 1_555
H1 C1 1_555 1_555
H2 C1 1_555 1_555
C2 N2 1_555 1_555
H3 C2 1_555 1_555
H4 C2 1_555 1_555
C3 N1 1_555 1_555
H5 C3 1_555 1_555
H6 C3 1_555 1_555
H7 C3 1_555 1_555
C4 N1 1_555 1_555
H8 C4 1_555 1_555
H9 C4 1_555 1_555
H10 C4 1_555 1_555
C5 N2 1_555 1_555
H11 C5 1_555 1_555
H12 C5 1_555 1_555
H13 C5 1_555 1_555
C6 N2 1_555 1_555
H14 C6 1_555 1_555
H15 C6 1_555 1_555
H16 C6 1_555 1_555
C7 N3 1_555 1_555
C8 O2 1_555 1_555
C9 N3 1_555 1_555
H17 C9 1_555 1_555
H18 C9 1_555 1_555
C10 C9 1_555 1_555
H19 C10 1_555 1_555
H20 C10 1_555 1_555
C11 N4 1_555 1_555
H21 C11 1_555 1_555
H22 C11 1_555 1_555
C12 N4 1_555 1_555
C13 O4 1_555 1_555
C14 N5 1_555 1_555
H23 C14 1_555 1_555
H24 C14 1_555 1_555
C15 N6 1_555 1_555
H25 C15 1_555 1_555
H26 C15 1_555 1_555
C16 N5 1_555 1_555
H27 C16 1_555 1_555
H28 C16 1_555 1_555
H29 C16 1_555 1_555
C17 N5 1_555 1_555
H30 C17 1_555 1_555
H31 C17 1_555 1_555
H32 C17 1_555 1_555
C18 N6 1_555 1_555
H33 C18 1_555 1_555
H34 C18 1_555 1_555
H35 C18 1_555 1_555
C19 N6 1_555 1_555
H36 C19 1_555 1_555
H37 C19 1_555 1_555
H38 C19 1_555 1_555
C20 Se1 1_555 1_555
Cl1 O10 1_555 1_555
O11 Cl1 1_555 1_555
O12 Cl1 1_555 1_555
O13 Cl1 1_555 1_555
N7A Cu3 1_555 1_555
Cu3A N7 1_555 1_555
O6 C13 1_555 1_555
C1 C2 1_555 1_555
C7 C8 1_555 1_555
C10 C11 1_555 1_555
C12 C13 1_555 1_555
C14 C15 1_555 1_555

#END
