
#######################################################################
#
#                 Cambridge Crystallographic Data Centre
#                                CCDC 
#
#######################################################################
#
# If this CIF has been generated from an entry in the Cambridge 
# Structural Database, then it will include bibliographic, chemical, 
# crystal, experimental, refinement or atomic coordinate data resulting 
# from the CCDC's data processing and validation procedures.
#
#######################################################################

data_EFOCUZ
_symmetry_cell_setting           triclinic
_symmetry_space_group_name_H-M   'P -1'
_symmetry_Int_Tables_number      2
_space_group_name_Hall           '-P 1'
loop_
_symmetry_equiv_pos_site_id
_symmetry_equiv_pos_as_xyz
1 x,y,z
2 -x,-y,-z
_cell_length_a                   10.8597(13)
_cell_length_b                   11.5803(13)
_cell_length_c                   12.4354(14)
_cell_angle_alpha                96.764(2)
_cell_angle_beta                 114.425(2)
_cell_angle_gamma                107.546(2)
_cell_volume                     1303.64
loop_
_atom_site_label
_atom_site_type_symbol
_atom_site_fract_x
_atom_site_fract_y
_atom_site_fract_z
C1 C 1.1557(4) 0.3574(4) 1.2156(4)
H1 H 1.1823 0.2848 1.2123
H2 H 1.2144 0.4123 1.2991
Zn1 Zn 0.54889(3) -0.02661(3) 0.71094(3)
C2 C 0.8470(3) 0.1321(3) 0.7578(3)
C3 C 0.8274(4) 0.2905(3) 0.6818(3)
H3 H 0.8503 0.3660 0.6613
C4 C 0.6927(4) 0.2081(3) 0.6501(3)
H4 H 0.6052 0.2169 0.6035
C5 C 0.9127(4) 0.0508(4) 0.8255(5)
H5 H 0.8363 -0.0224 0.8193
H6 H 0.9770 0.0971 0.9104
H7 H 0.9675 0.0251 0.7905
C6 C 1.0851(4) 0.3057(4) 0.8094(4)
H8 H 1.1128 0.3455 0.7540
H9 H 1.1280 0.2432 0.8251
C7 C 1.1459(4) 0.4038(3) 0.9286(4)
H10 H 1.2506 0.4489 0.9613
H11 H 1.0994 0.4641 0.9151
C8 C 1.1853(4) 0.4255(4) 1.1306(4)
H12 H 1.1480 0.4920 1.1267
H13 H 1.2904 0.4640 1.1607
C9 C 0.6861(3) 0.1174(3) 0.9762(2)
C10 C 0.6294(4) -0.0823(3) 0.9590(3)
H14 H 0.5948 -0.1687 0.9249
C11 C 0.6926(4) -0.0245(3) 1.0796(3)
H15 H 0.7088 -0.0626 1.1431
C12 C 0.7076(4) 0.2407(3) 0.9493(3)
H16 H 0.8045 0.2779 0.9584
H17 H 0.6960 0.2954 1.0054
H18 H 0.6364 0.2290 0.8665
C13 C 0.8032(4) 0.2021(3) 1.2065(3)
H19 H 0.7754 0.1696 1.2651
H20 H 0.7718 0.2715 1.1924
C14 C 0.9663(4) 0.2497(4) 1.2597(3)
H21 H 1.0134 0.3045 1.3425
H22 H 0.9979 0.1796 1.2630
C15 C 0.4935(3) -0.3975(2) 0.5656(2)
C16 C 0.5562(3) -0.3806(3) 0.4886(3)
H23 H 0.5941 -0.3005 0.4806
C17 C 0.5627(3) -0.4823(3) 0.4237(3)
H24 H 0.6051 -0.4699 0.3723
C18 C 0.4879(3) -0.2873(3) 0.6384(2)
C19 C 0.1500(3) 0.0241(3) 0.5593(2)
C20 C 0.1011(3) 0.1218(3) 0.5589(3)
H25 H 0.1688 0.2046 0.5981
C21 C 0.0466(3) -0.0979(3) 0.4988(3)
H26 H 0.0774 -0.1646 0.4970
C22 C 0.3117(3) 0.0508(3) 0.6265(2)
N1 N 0.7055(3) 0.1082(2) 0.6980(2)
N2 N 0.9247(3) 0.2425(2) 0.7499(3)
N3 N 0.6234(2) 0.0059(2) 0.8936(2)
N4 N 0.7285(3) 0.1023(2) 1.0904(2)
O1 O 1.1180(3) 0.3420(2) 1.0123(2)
O2 O 1.0053(2) 0.3176(3) 1.1825(2)
O3 O 0.5627(2) -0.17893(18) 0.63844(19)
O4 O 0.4142(3) -0.3050(2) 0.6927(2)
O5 O 0.3457(2) -0.04509(19) 0.61915(19)
O6 O 0.4007(2) 0.1597(2) 0.6845(2)
C15A C 0.5065(3) -0.6025(2) 0.4344(2)
C16A C 0.4438(3) -0.6194(3) 0.5114(3)
H23A H 0.4059 -0.6995 0.5194
C17A C 0.4373(3) -0.5177(3) 0.5763(3)
H24A H 0.3949 -0.5301 0.6277
C18A C 0.5121(3) -0.7127(3) 0.3616(2)
O3A O 0.4373(2) -0.82107(18) 0.36156(19)
O4A O 0.5858(3) -0.6950(2) 0.3073(2)
C19A C -0.1500(3) -0.0241(3) 0.4407(2)
C20A C -0.1011(3) -0.1218(3) 0.4411(3)
H25A H -0.1688 -0.2046 0.4019
C21A C -0.0466(3) 0.0979(3) 0.5012(3)
H26A H -0.0774 0.1646 0.5030
C22A C -0.3117(3) -0.0508(3) 0.3735(2)
O5A O -0.3457(2) 0.04509(19) 0.38085(19)
O6A O -0.4007(2) -0.1597(2) 0.3155(2)
C1A C -1.1557(4) -0.3574(4) -0.2156(4)
H1A H -1.1823 -0.2848 -0.2123
H2A H -1.2144 -0.4123 -0.2991
Zn1A Zn -0.54889(3) 0.02661(3) 0.28906(3)
C2A C -0.8470(3) -0.1321(3) 0.2422(3)
C3A C -0.8274(4) -0.2905(3) 0.3182(3)
H3A H -0.8503 -0.3660 0.3387
C4A C -0.6927(4) -0.2081(3) 0.3499(3)
H4A H -0.6052 -0.2169 0.3965
C5A C -0.9127(4) -0.0508(4) 0.1745(5)
H5A H -0.8363 0.0224 0.1807
H6A H -0.9770 -0.0971 0.0896
H7A H -0.9675 -0.0251 0.2095
C6A C -1.0851(4) -0.3057(4) 0.1906(4)
H8A H -1.1128 -0.3455 0.2460
H9A H -1.1280 -0.2432 0.1749
C7A C -1.1459(4) -0.4038(3) 0.0714(4)
H10A H -1.2506 -0.4489 0.0387
H11A H -1.0994 -0.4641 0.0849
C8A C -1.1853(4) -0.4255(4) -0.1306(4)
H12A H -1.1480 -0.4920 -0.1267
H13A H -1.2904 -0.4640 -0.1607
C9A C -0.6861(3) -0.1174(3) 0.0238(2)
C10A C -0.6294(4) 0.0823(3) 0.0410(3)
H14A H -0.5948 0.1687 0.0751
C11A C -0.6926(4) 0.0245(3) -0.0796(3)
H15A H -0.7088 0.0626 -0.1431
C12A C -0.7076(4) -0.2407(3) 0.0507(3)
H16A H -0.8045 -0.2779 0.0416
H17A H -0.6960 -0.2954 -0.0054
H18A H -0.6364 -0.2290 0.1335
C13A C -0.8032(4) -0.2021(3) -0.2065(3)
H19A H -0.7754 -0.1696 -0.2651
H20A H -0.7718 -0.2715 -0.1924
C14A C -0.9663(4) -0.2497(4) -0.2597(3)
H21A H -1.0134 -0.3045 -0.3425
H22A H -0.9979 -0.1796 -0.2630
N1A N -0.7055(3) -0.1082(2) 0.3020(2)
N2A N -0.9247(3) -0.2425(2) 0.2501(3)
N3A N -0.6234(2) -0.0059(2) 0.1064(2)
N4A N -0.7285(3) -0.1023(2) -0.0904(2)
O1A O -1.1180(3) -0.3420(2) -0.0123(2)
O2A O -1.0053(2) -0.3176(3) -0.1825(2)
Zn1A_2 Zn 0.45111(3) -0.97339(3) 0.28906(3)
O3A_2 O -0.5627(2) 0.17893(18) 0.36156(19)
O7 O 0.4119(3) 0.3441(3) 0.8612(3)
H27 H 0.4132 0.2945 0.8095
H28 H 0.4771 0.3543 0.9300
O8 O 0.4194(4) 0.5860(3) 0.8792(3)
H29 H 0.4228 0.5167 0.8624
H30 H 0.4219 0.6178 0.8238
O9 O 0.1118(7) 0.5045(8) 0.5787(8)
H31 H 0.0235 0.4660 0.5154
H32 H 0.0982 0.5171 0.6384
loop_
_geom_bond_atom_site_label_1
_geom_bond_atom_site_label_2
_geom_bond_site_symmetry_1
_geom_bond_site_symmetry_2
C1 H1 1_555 1_555
H2 C1 1_555 1_555
Zn1 N1 1_555 1_555
C2 C5 1_555 1_555
C3 H3 1_555 1_555
C4 C3 1_555 1_555
H4 C4 1_555 1_555
C5 H5 1_555 1_555
H6 C5 1_555 1_555
H7 C5 1_555 1_555
C6 H8 1_555 1_555
H9 C6 1_555 1_555
C7 C6 1_555 1_555
H10 C7 1_555 1_555
H11 C7 1_555 1_555
C8 C1 1_555 1_555
H12 C8 1_555 1_555
H13 C8 1_555 1_555
C9 C12 1_555 1_555
C10 H14 1_555 1_555
C11 C10 1_555 1_555
H15 C11 1_555 1_555
C12 H16 1_555 1_555
H17 C12 1_555 1_555
H18 C12 1_555 1_555
C13 H19 1_555 1_555
H20 C13 1_555 1_555
C14 C13 1_555 1_555
H21 C14 1_555 1_555
H22 C14 1_555 1_555
C15 C16 1_555 1_555
C16 H23 1_555 1_555
C17 C16 1_555 1_555
H24 C17 1_555 1_555
C18 C15 1_555 1_555
C19 C20 1_555 1_555
C20 H25 1_555 1_555
C21 C19 1_555 1_555
H26 C21 1_555 1_555
C22 C19 1_555 1_555
N1 C2 1_555 1_555
N2 C2 1_555 1_555
N3 Zn1 1_555 1_555
N4 C9 1_555 1_555
O1 C7 1_555 1_555
O2 C1 1_555 1_555
O3 Zn1 1_555 1_555
O4 C18 1_555 1_555
O5 Zn1 1_555 1_555
O6 C22 1_555 1_555
O7 H27 1_555 1_555
H28 O7 1_555 1_555
O8 H29 1_555 1_555
H30 O8 1_555 1_555
O9 H31 1_555 1_555
H32 O9 1_555 1_555
C15A C17 1_555 1_555
C16A C15A 1_555 1_555
H23A C16A 1_555 1_555
C17A C15 1_555 1_555
H24A C17A 1_555 1_555
C18A C15A 1_555 1_555
O3A C18A 1_555 1_555
O4A C18A 1_555 1_555
C19A C20A 1_555 1_555
C20A C21 1_555 1_555
H25A C20A 1_555 1_555
C21A C20 1_555 1_555
H26A C21A 1_555 1_555
C22A C19A 1_555 1_555
O5A C22A 1_555 1_555
O6A C22A 1_555 1_555
C1A H1A 1_555 1_555
H2A C1A 1_555 1_555
Zn1A O5A 1_555 1_555
C2A C5A 1_555 1_555
C3A H3A 1_555 1_555
C4A C3A 1_555 1_555
H4A C4A 1_555 1_555
C5A H5A 1_555 1_555
H6A C5A 1_555 1_555
H7A C5A 1_555 1_555
C6A H8A 1_555 1_555
H9A C6A 1_555 1_555
C7A C6A 1_555 1_555
H10A C7A 1_555 1_555
H11A C7A 1_555 1_555
C8A C1A 1_555 1_555
H12A C8A 1_555 1_555
H13A C8A 1_555 1_555
C9A C12A 1_555 1_555
C10A H14A 1_555 1_555
C11A C10A 1_555 1_555
H15A C11A 1_555 1_555
C12A H16A 1_555 1_555
H17A C12A 1_555 1_555
H18A C12A 1_555 1_555
C13A H19A 1_555 1_555
H20A C13A 1_555 1_555
C14A C13A 1_555 1_555
H21A C14A 1_555 1_555
H22A C14A 1_555 1_555
N1A Zn1A 1_555 1_555
N2A C2A 1_555 1_555
N3A Zn1A 1_555 1_555
N4A C9A 1_555 1_555
O1A C7A 1_555 1_555
O2A C1A 1_555 1_555
Zn1A_2 O3A 1_555 1_555
O3A_2 Zn1A 1_555 1_555
C3 N2 1_555 1_555
C4 N1 1_555 1_555
C6 N2 1_555 1_555
C8 O1 1_555 1_555
C9 N3 1_555 1_555
C10 N3 1_555 1_555
C11 N4 1_555 1_555
C13 N4 1_555 1_555
C14 O2 1_555 1_555
C18 O3 1_555 1_555
C22 O5 1_555 1_555
C16A C17A 1_555 1_555
C19A C21A 1_555 1_555
C2A N1A 1_555 1_555
C3A N2A 1_555 1_555
C4A N1A 1_555 1_555
C6A N2A 1_555 1_555
C8A O1A 1_555 1_555
C9A N3A 1_555 1_555
C10A N3A 1_555 1_555
C11A N4A 1_555 1_555
C13A N4A 1_555 1_555
C14A O2A 1_555 1_555

#END
