
#######################################################################
#
#                 Cambridge Crystallographic Data Centre
#                                CCDC 
#
#######################################################################
#
# If this CIF has been generated from an entry in the Cambridge 
# Structural Database, then it will include bibliographic, chemical, 
# crystal, experimental, refinement or atomic coordinate data resulting 
# from the CCDC's data processing and validation procedures.
#
#######################################################################

data_EFOZUW
_symmetry_cell_setting           monoclinic
_symmetry_space_group_name_H-M   'P 21/c'
_symmetry_Int_Tables_number      14
_space_group_name_Hall           '-P 2ybc'
loop_
_symmetry_equiv_pos_site_id
_symmetry_equiv_pos_as_xyz
1 x,y,z
2 -x,1/2+y,1/2-z
3 -x,-y,-z
4 x,1/2-y,1/2+z
_cell_length_a                   5.8512(12)
_cell_length_b                   7.7893(16)
_cell_length_c                   22.807(5)
_cell_angle_alpha                90
_cell_angle_beta                 98.51(3)
_cell_angle_gamma                90
_cell_volume                     1028.02
loop_
_atom_site_label
_atom_site_type_symbol
_atom_site_fract_x
_atom_site_fract_y
_atom_site_fract_z
Co1 Co 0.5000 1.0000 0.0000
C1 C 0.3084(9) 0.6385(8) 0.0152(2)
H1 H 0.3152 0.6406 -0.0252
C2 C 0.3511(9) 0.7807(8) 0.1039(2)
H2 H 0.3916 0.8785 0.1265
C3 C 0.2734(9) 0.6368(8) 0.1312(2)
C4 C 0.2233(9) 0.4936(8) 0.0951(2)
H3 H 0.1768 0.3933 0.1121
C5 C 0.2507(9) 0.6319(7) 0.1954(2)
C6 C 0.4268(10) 0.6950(8) 0.2381(2)
H4 H 0.5568 0.7456 0.2264
C7 C 0.4086(10) 0.6827(8) 0.2974(2)
H5 H 0.5291 0.7211 0.3256
C8 C 0.2115(9) 0.6134(7) 0.3157(2)
C9 C 0.0353(10) 0.5549(8) 0.2733(2)
H6 H -0.0989 0.5106 0.2847
C10 C 0.0575(10) 0.5620(9) 0.2140(2)
H7 H -0.0602 0.5187 0.1861
C11 C 0.1898(10) 0.6014(7) 0.3814(2)
O1 O 0.8041(6) 0.8624(5) -0.00464(15)
H8 H 0.8206 0.7560 0.0108
H9 H 0.9184 0.9092 -0.0218
O2 O -0.0094(7) 0.5978(6) 0.39443(16)
O3 O 0.3773(6) 0.6019(5) 0.41686(15)
N1 N 0.3696(7) 0.7825(6) 0.04557(17)
N2 N 0.2388(8) 0.4930(6) 0.03732(18)
C1B C 0.6916(9) 1.3615(8) -0.0152(2)
H1B H 0.6848 1.3594 0.0252
C2B C 0.6489(9) 1.2193(8) -0.1039(2)
H2B H 0.6084 1.1215 -0.1265
C3B C 0.7266(9) 1.3632(8) -0.1312(2)
C4B C 0.7767(9) 1.5064(8) -0.0951(2)
H3B H 0.8232 1.6067 -0.1121
C5B C 0.7493(9) 1.3681(7) -0.1954(2)
C6B C 0.5732(10) 1.3050(8) -0.2381(2)
H4B H 0.4432 1.2544 -0.2264
C7B C 0.5914(10) 1.3173(8) -0.2974(2)
H5B H 0.4709 1.2789 -0.3256
C8B C 0.7885(9) 1.3866(7) -0.3157(2)
C9B C 0.9647(10) 1.4451(8) -0.2733(2)
H6B H 1.0989 1.4894 -0.2847
C10B C 0.9425(10) 1.4380(9) -0.2140(2)
H7B H 1.0602 1.4813 -0.1861
C11B C 0.8102(10) 1.3986(7) -0.3814(2)
O1B O 0.1959(6) 1.1376(5) 0.00464(15)
H8B H 0.1794 1.2440 -0.0108
H9B H 0.0816 1.0908 0.0218
O2B O 1.0094(7) 1.4022(6) -0.39443(16)
O3B O 0.6227(6) 1.3981(5) -0.41686(15)
N1B N 0.6304(7) 1.2175(6) -0.04557(17)
N2B N 0.7612(8) 1.5070(6) -0.03732(18)
Co1A Co 0.5000 0.5000 0.5000
Co1A_2 Co 0.5000 1.5000 -0.5000
O3A O 0.6227(6) 1.1019(5) 0.08314(15)
O3C O 0.3773(6) 0.8981(5) -0.08314(15)
loop_
_geom_bond_atom_site_label_1
_geom_bond_atom_site_label_2
_geom_bond_site_symmetry_1
_geom_bond_site_symmetry_2
Co1 O1 1_555 1_555
C1 H1 1_555 1_555
C2 H2 1_555 1_555
C3 C2 1_555 1_555
C4 C3 1_555 1_555
H3 C4 1_555 1_555
C5 C3 1_555 1_555
C6 C5 1_555 1_555
H4 C6 1_555 1_555
C7 C6 1_555 1_555
H5 C7 1_555 1_555
C8 C7 1_555 1_555
C9 C8 1_555 1_555
H6 C9 1_555 1_555
C10 C5 1_555 1_555
H7 C10 1_555 1_555
C11 C8 1_555 1_555
O1 H8 1_555 1_555
H9 O1 1_555 1_555
O2 C11 1_555 1_555
O3 C11 1_555 1_555
N1 Co1 1_555 1_555
N2 C1 1_555 1_555
C1B H1B 1_555 1_555
C2B H2B 1_555 1_555
C3B C2B 1_555 1_555
C4B C3B 1_555 1_555
H3B C4B 1_555 1_555
C5B C3B 1_555 1_555
C6B C5B 1_555 1_555
H4B C6B 1_555 1_555
C7B C6B 1_555 1_555
H5B C7B 1_555 1_555
C8B C7B 1_555 1_555
C9B C8B 1_555 1_555
H6B C9B 1_555 1_555
C10B C5B 1_555 1_555
H7B C10B 1_555 1_555
C11B C8B 1_555 1_555
O1B Co1 1_555 1_555
H8B O1B 1_555 1_555
H9B O1B 1_555 1_555
O2B C11B 1_555 1_555
O3B C11B 1_555 1_555
N1B Co1 1_555 1_555
N2B C1B 1_555 1_555
Co1A O3 1_555 1_555
Co1A_2 O3B 1_555 1_555
O3A Co1 1_555 1_555
O3C Co1 1_555 1_555
C1 N1 1_555 1_555
C2 N1 1_555 1_555
C4 N2 1_555 1_555
C9 C10 1_555 1_555
C1B N1B 1_555 1_555
C2B N1B 1_555 1_555
C4B N2B 1_555 1_555
C9B C10B 1_555 1_555

#END
