
#######################################################################
#
#                 Cambridge Crystallographic Data Centre
#                                CCDC 
#
#######################################################################
#
# If this CIF has been generated from an entry in the Cambridge 
# Structural Database, then it will include bibliographic, chemical, 
# crystal, experimental, refinement or atomic coordinate data resulting 
# from the CCDC's data processing and validation procedures.
#
#######################################################################

data_EFOZEG
_symmetry_cell_setting           triclinic
_symmetry_space_group_name_H-M   'P -1'
_symmetry_Int_Tables_number      2
_space_group_name_Hall           '-P 1'
loop_
_symmetry_equiv_pos_site_id
_symmetry_equiv_pos_as_xyz
1 x,y,z
2 -x,-y,-z
_cell_length_a                   10.561(4)
_cell_length_b                   10.612(4)
_cell_length_c                   13.367(5)
_cell_angle_alpha                105.881(3)
_cell_angle_beta                 110.510(4)
_cell_angle_gamma                98.743(3)
_cell_volume                     1297.47
loop_
_atom_site_label
_atom_site_type_symbol
_atom_site_fract_x
_atom_site_fract_y
_atom_site_fract_z
Mn1 Mn 0.5000 1.0000 0.5000
N1 N 0.16775(17) 1.06916(16) 0.23275(13)
O1 O 0.45819(14) 0.80788(13) 0.36809(11)
O2 O 0.23390(14) 0.69221(14) 0.27081(13)
N2 N 0.34708(16) 0.91127(17) 0.56400(14)
N3 N 0.17910(18) 0.75855(18) 0.56144(15)
C1 C 0.0300(2) 1.0873(2) -0.05786(17)
O3 O -0.00034(17) 0.48280(17) -0.12580(15)
H1 H -0.0796 0.4374 -0.1732
C2 C 0.36179(19) 0.70302(18) 0.30072(15)
C3 C 0.0798(2) 1.03201(19) 0.11332(15)
N4 N 0.32976(15) 1.06500(16) 0.38796(12)
O4 O 0.51023(15) 0.69392(18) 0.15646(13)
C4 C 0.40858(18) 0.58023(18) 0.25518(15)
C5 C 0.2609(2) 1.0041(2) 0.27767(16)
H2 H 0.2744 0.9258 0.2354
O5 O -0.0365(2) 0.6159(2) -0.22768(18)
C6 C 0.2853(2) 0.7816(2) 0.53112(19)
H3 H 0.3126 0.7128 0.4908
C7 C 0.0846(2) 0.6263(2) 0.52929(18)
C8 C 0.1083(2) 1.1166(2) 0.05760(17)
H4 H 0.1823 1.1957 0.0985
C9 C 0.1793(2) 1.1794(2) 0.32089(17)
H5 H 0.1288 1.2438 0.3166
C10 C 0.2790(2) 1.1750(2) 0.41506(16)
H6 H 0.3092 1.2380 0.4883
C11 C 0.0356(2) 0.5921(2) -0.14726(19)
C12 C 0.4041(2) 0.7292(2) 0.08411(18)
C13 C 0.1777(2) 0.6841(2) -0.06470(19)
C14 C 0.3902(2) 0.4682(2) 0.28866(19)
H7 H 0.3424 0.4658 0.3351
C15 C 0.2717(2) 0.6420(2) 0.01307(17)
H8 H 0.2458 0.5564 0.0173
C16 C 0.1299(2) 0.5421(2) 0.5877(2)
H9 H 0.2189 0.5728 0.6473
C17 C 0.4779(2) 0.5792(2) 0.18462(17)
C18 C 0.0463(2) 0.4117(2) 0.5600(2)
C19 C 0.2157(3) 0.8140(3) -0.0668(3)
H10 H 0.1528 0.8423 -0.1188
C20 C 0.2761(3) 0.9765(3) 0.6189(2)
H11 H 0.2966 1.0704 0.6530
C21 C 0.1713(3) 0.8837(3) 0.6164(3)
H12 H 0.1061 0.9018 0.6466
C22 C 0.4426(3) 0.3600(2) 0.2535(3)
H13 H 0.4328 0.2868 0.2784
C23 C 0.0665(3) 1.1792(3) -0.1175(2)
H14 H 0.0606 1.1250 -0.1903
H15 H 0.1605 1.2374 -0.0718
H16 H 0.0019 1.2339 -0.1285
C24 C 0.4404(3) 0.8597(3) 0.0824(2)
H17 H 0.5287 0.9188 0.1321
C25 C 0.5260(3) 0.4704(3) 0.1475(2)
H18 H 0.5706 0.4707 0.0986
C26 C 0.5087(3) 0.3615(3) 0.1819(3)
H19 H 0.5420 0.2881 0.1567
C27 C 0.3457(3) 0.9009(3) 0.0073(3)
H20 H 0.3697 0.9886 0.0066
C28 C 0.0940(3) 0.3226(3) 0.6276(3)
H21 H 0.0262 0.2972 0.6562
H22 H 0.1833 0.3715 0.6904
H23 H 0.1030 0.2420 0.5793
N1A N -0.16775(17) 0.93084(16) -0.23275(13)
C1A C -0.0300(2) 0.9127(2) 0.05786(17)
C3A C -0.0798(2) 0.96799(19) -0.11332(15)
N4A N -0.32976(15) 0.93500(16) -0.38796(12)
C5A C -0.2609(2) 0.9959(2) -0.27767(16)
H2A H -0.2744 1.0742 -0.2354
C8A C -0.1083(2) 0.8834(2) -0.05760(17)
H4A H -0.1823 0.8043 -0.0985
C9A C -0.1793(2) 0.8206(2) -0.32089(17)
H5A H -0.1288 0.7562 -0.3166
C10A C -0.2790(2) 0.8250(2) -0.41506(16)
H6A H -0.3092 0.7620 -0.4883
C23A C -0.0665(3) 0.8208(3) 0.1175(2)
H14A H -0.0606 0.8750 0.1903
H15A H -0.1605 0.7626 0.0718
H16A H -0.0019 0.7661 0.1285
N2A N -0.34708(16) 0.08873(17) 0.43600(14)
N3A N -0.17910(18) 0.24145(18) 0.43856(15)
C6A C -0.2853(2) 0.2184(2) 0.46888(19)
H3A H -0.3126 0.2872 0.5092
C7A C -0.0846(2) 0.3737(2) 0.47071(18)
C16A C -0.1299(2) 0.4579(2) 0.4123(2)
H9A H -0.2189 0.4272 0.3527
C18A C -0.0463(2) 0.5883(2) 0.4400(2)
C20A C -0.2761(3) 0.0235(3) 0.3811(2)
H11A H -0.2966 -0.0704 0.3470
C21A C -0.1713(3) 0.1163(3) 0.3836(3)
H12A H -0.1061 0.0982 0.3534
C28A C -0.0940(3) 0.6774(3) 0.3724(3)
H21A H -0.0262 0.7028 0.3438
H22A H -0.1833 0.6285 0.3096
H23A H -0.1030 0.7580 0.4207
O1A O 0.54181(14) 1.19212(13) 0.63191(11)
O2A O 0.76610(14) 1.30779(14) 0.72919(13)
O3A O 1.00034(17) 1.51720(17) 1.12580(15)
H1A H 1.0796 1.5626 1.1732
C2A C 0.63821(19) 1.29698(18) 0.69928(15)
O4A O 0.48977(15) 1.30608(18) 0.84354(13)
C4A C 0.59142(18) 1.41977(18) 0.74482(15)
O5A O 1.0365(2) 1.3841(2) 1.22768(18)
C11A C 0.9644(2) 1.4079(2) 1.14726(19)
C12A C 0.5959(2) 1.2708(2) 0.91589(18)
C13A C 0.8223(2) 1.3159(2) 1.06470(19)
C14A C 0.6098(2) 1.5318(2) 0.71134(19)
H7A H 0.6576 1.5342 0.6649
C15A C 0.7283(2) 1.3580(2) 0.98693(17)
H8A H 0.7542 1.4436 0.9827
C17A C 0.5221(2) 1.4208(2) 0.81538(17)
C19A C 0.7843(3) 1.1860(3) 1.0668(3)
H10A H 0.8472 1.1577 1.1188
C22A C 0.5574(3) 1.6400(2) 0.7465(3)
H13A H 0.5672 1.7132 0.7216
C24A C 0.5596(3) 1.1403(3) 0.9176(2)
H17A H 0.4713 1.0812 0.8679
C25A C 0.4740(3) 1.5296(3) 0.8525(2)
H18A H 0.4294 1.5293 0.9014
C26A C 0.4913(3) 1.6385(3) 0.8181(3)
H19A H 0.4580 1.7119 0.8433
C27A C 0.6543(3) 1.0991(3) 0.9927(3)
H20A H 0.6303 1.0114 0.9934
Mn1_2 Mn -0.5000 0.0000 0.5000
Mn1_3 Mn -0.5000 1.0000 -0.5000
N2A_2 N 0.65292(16) 1.08873(17) 0.43600(14)
N4A_2 N 0.67024(15) 0.93500(16) 0.61204(12)
loop_
_geom_bond_atom_site_label_1
_geom_bond_atom_site_label_2
_geom_bond_site_symmetry_1
_geom_bond_site_symmetry_2
Mn1 O1 1_555 1_555
N1 C3 1_555 1_555
O1 C2 1_555 1_555
O2 C2 1_555 1_555
N2 Mn1 1_555 1_555
N3 C6 1_555 1_555
C1 C8 1_555 1_555
O3 H1 1_555 1_555
C2 C4 1_555 1_555
C3 C8 1_555 1_555
N4 Mn1 1_555 1_555
O4 C12 1_555 1_555
C4 C14 1_555 1_555
C5 N1 1_555 1_555
H2 C5 1_555 1_555
O5 C11 1_555 1_555
C6 N2 1_555 1_555
H3 C6 1_555 1_555
C7 N3 1_555 1_555
C8 H4 1_555 1_555
C9 N1 1_555 1_555
H5 C9 1_555 1_555
C10 N4 1_555 1_555
H6 C10 1_555 1_555
C11 O3 1_555 1_555
C12 C15 1_555 1_555
C13 C11 1_555 1_555
C14 H7 1_555 1_555
C15 C13 1_555 1_555
H8 C15 1_555 1_555
C16 C7 1_555 1_555
H9 C16 1_555 1_555
C17 O4 1_555 1_555
C18 C16 1_555 1_555
C19 C13 1_555 1_555
H10 C19 1_555 1_555
C20 N2 1_555 1_555
H11 C20 1_555 1_555
C21 N3 1_555 1_555
H12 C21 1_555 1_555
C22 C14 1_555 1_555
H13 C22 1_555 1_555
C23 C1 1_555 1_555
H14 C23 1_555 1_555
H15 C23 1_555 1_555
H16 C23 1_555 1_555
C24 C12 1_555 1_555
H17 C24 1_555 1_555
C25 C17 1_555 1_555
H18 C25 1_555 1_555
C26 C22 1_555 1_555
H19 C26 1_555 1_555
C27 C19 1_555 1_555
H20 C27 1_555 1_555
C28 C18 1_555 1_555
H21 C28 1_555 1_555
H22 C28 1_555 1_555
H23 C28 1_555 1_555
N1A C3A 1_555 1_555
C1A C3 1_555 1_555
C3A C1 1_555 1_555
N4A C5A 1_555 1_555
C5A N1A 1_555 1_555
H2A C5A 1_555 1_555
C8A C1A 1_555 1_555
H4A C8A 1_555 1_555
C9A N1A 1_555 1_555
H5A C9A 1_555 1_555
C10A N4A 1_555 1_555
H6A C10A 1_555 1_555
C23A C1A 1_555 1_555
H14A C23A 1_555 1_555
H15A C23A 1_555 1_555
H16A C23A 1_555 1_555
N2A C6A 1_555 1_555
N3A C6A 1_555 1_555
C6A H3A 1_555 1_555
C7A C18 1_555 1_555
C16A C7A 1_555 1_555
H9A C16A 1_555 1_555
C18A C7 1_555 1_555
C20A N2A 1_555 1_555
H11A C20A 1_555 1_555
C21A N3A 1_555 1_555
H12A C21A 1_555 1_555
C28A C18A 1_555 1_555
H21A C28A 1_555 1_555
H22A C28A 1_555 1_555
H23A C28A 1_555 1_555
O1A Mn1 1_555 1_555
O2A C2A 1_555 1_555
O3A H1A 1_555 1_555
C2A O1A 1_555 1_555
O4A C12A 1_555 1_555
C4A C2A 1_555 1_555
O5A C11A 1_555 1_555
C11A O3A 1_555 1_555
C12A C15A 1_555 1_555
C13A C11A 1_555 1_555
C14A C4A 1_555 1_555
H7A C14A 1_555 1_555
C15A C13A 1_555 1_555
H8A C15A 1_555 1_555
C17A O4A 1_555 1_555
C19A C13A 1_555 1_555
H10A C19A 1_555 1_555
C22A C14A 1_555 1_555
H13A C22A 1_555 1_555
C24A C12A 1_555 1_555
H17A C24A 1_555 1_555
C25A C17A 1_555 1_555
H18A C25A 1_555 1_555
C26A C22A 1_555 1_555
H19A C26A 1_555 1_555
C27A C19A 1_555 1_555
H20A C27A 1_555 1_555
Mn1_2 N2A 1_555 1_555
Mn1_3 N4A 1_555 1_555
N2A_2 Mn1 1_555 1_555
N4A_2 Mn1 1_555 1_555
N4 C5 1_555 1_555
C4 C17 1_555 1_555
C9 C10 1_555 1_555
C20 C21 1_555 1_555
C24 C27 1_555 1_555
C25 C26 1_555 1_555
C3A C8A 1_555 1_555
C9A C10A 1_555 1_555
N3A C7A 1_555 1_555
C16A C18A 1_555 1_555
C20A C21A 1_555 1_555
C4A C17A 1_555 1_555
C24A C27A 1_555 1_555
C25A C26A 1_555 1_555

#END
