
#######################################################################
#
#                 Cambridge Crystallographic Data Centre
#                                CCDC 
#
#######################################################################
#
# If this CIF has been generated from an entry in the Cambridge 
# Structural Database, then it will include bibliographic, chemical, 
# crystal, experimental, refinement or atomic coordinate data resulting 
# from the CCDC's data processing and validation procedures.
#
#######################################################################

data_EFUCOZ
_symmetry_cell_setting           monoclinic
_symmetry_space_group_name_H-M   'P 21/n'
_symmetry_Int_Tables_number      14
_space_group_name_Hall           '-P 2yn'
loop_
_symmetry_equiv_pos_site_id
_symmetry_equiv_pos_as_xyz
1 x,y,z
2 1/2-x,1/2+y,1/2-z
3 -x,-y,-z
4 1/2+x,1/2-y,1/2+z
_cell_length_a                   11.1200(11)
_cell_length_b                   10.6856(15)
_cell_length_c                   12.4923(13)
_cell_angle_alpha                90
_cell_angle_beta                 105.819(12)
_cell_angle_gamma                90
_cell_volume                     1428.17
loop_
_atom_site_label
_atom_site_type_symbol
_atom_site_fract_x
_atom_site_fract_y
_atom_site_fract_z
Cu1 Cu 0.94114(7) 0.12693(6) 0.73543(5)
Pd1 Pd 0.5000 0.0000 0.5000
Pd2 Pd 1.0000 0.5000 0.5000
C1 C 0.9660(6) 0.3440(5) 0.9112(5)
C2 C 0.6568(6) 0.0709(5) 0.5983(4)
C3 C 1.1816(6) 0.4684(6) 0.5215(5)
C4 C 0.9847(6) 0.3479(5) 0.5883(5)
C5 C 0.8969(7) -0.1299(6) 0.8164(6)
H1 H 0.8086 -0.1403 0.8167
H2 H 0.9476 -0.1901 0.8704
C6 C 0.9092(7) -0.1609(5) 0.6999(5)
H3 H 0.9000 -0.2524 0.6880
H4 H 0.8403 -0.1196 0.6438
C7 C 1.0313(7) -0.1203(6) 0.6825(5)
C8 C 1.1178(8) -0.2053(8) 0.6660(6)
H5 H 1.1021 -0.2926 0.6672
C9 C 1.2250(10) -0.1629(9) 0.6479(7)
H6 H 1.2844 -0.2209 0.6352
C10 C 1.2490(9) -0.0378(8) 0.6477(7)
H7 H 1.3249 -0.0076 0.6364
C11 C 1.1598(8) 0.0431(7) 0.6643(6)
H8 H 1.1752 0.1305 0.6632
N1 N 0.9504(5) 0.2580(5) 0.8550(4)
N2 N 0.7500(5) 0.1063(4) 0.6514(4)
N3 N 1.2881(6) 0.4555(6) 0.5313(5)
N4 N 0.9721(5) 0.2612(5) 0.6368(4)
N5 N 0.9378(5) -0.0013(5) 0.8525(4)
H9 H 1.0230 -0.0066 0.9036
H10 H 0.8823 0.0307 0.8963
N6 N 1.0531(5) 0.0049(5) 0.6818(4)
Cu1B Cu 0.05886(7) -0.12693(6) 0.26457(5)
C1B C 0.0340(6) -0.3440(5) 0.0888(5)
C2B C 0.3432(6) -0.0709(5) 0.4017(4)
C4B C 0.0153(6) -0.3479(5) 0.4117(5)
C5B C 0.1031(7) 0.1299(6) 0.1836(6)
H1B H 0.1914 0.1403 0.1833
H2B H 0.0524 0.1901 0.1296
C6B C 0.0908(7) 0.1609(5) 0.3001(5)
H3B H 0.1000 0.2524 0.3120
H4B H 0.1597 0.1196 0.3562
C7B C -0.0313(7) 0.1203(6) 0.3175(5)
C8B C -0.1178(8) 0.2053(8) 0.3340(6)
H5B H -0.1021 0.2926 0.3328
C9B C -0.2250(10) 0.1629(9) 0.3521(7)
H6B H -0.2844 0.2209 0.3648
C10B C -0.2490(9) 0.0378(8) 0.3523(7)
H7B H -0.3249 0.0076 0.3636
C11B C -0.1598(8) -0.0431(7) 0.3357(6)
H8B H -0.1752 -0.1305 0.3368
N1B N 0.0496(5) -0.2580(5) 0.1450(4)
N2B N 0.2500(5) -0.1063(4) 0.3486(4)
N4B N 0.0279(5) -0.2612(5) 0.3632(4)
N5B N 0.0622(5) 0.0013(5) 0.1475(4)
H9B H -0.0230 0.0066 0.0964
H10B H 0.1177 -0.0307 0.1037
N6B N -0.0531(5) -0.0049(5) 0.3182(4)
C3B C 0.8184(6) 0.5316(6) 0.4785(5)
N3B N 0.7119(6) 0.5445(6) 0.4687(5)
Pd1A Pd 0.0000 -0.5000 0.0000
Pd1A_2 Pd 1.0000 0.5000 1.0000
Pd2_2 Pd 0.0000 -0.5000 0.5000
C1A C 0.5340(6) -0.1560(5) 0.5888(5)
C1C C 0.4660(6) 0.1560(5) 0.4112(5)
C4B_2 C 1.0153(6) 0.6521(5) 0.4117(5)
loop_
_geom_bond_atom_site_label_1
_geom_bond_atom_site_label_2
_geom_bond_site_symmetry_1
_geom_bond_site_symmetry_2
Cu1 N1 1_555 1_555
Pd1 C2 1_555 1_555
Pd2 C3 1_555 1_555
C1 N1 1_555 1_555
C2 N2 1_555 1_555
C3 N3 1_555 1_555
C4 Pd2 1_555 1_555
C5 H1 1_555 1_555
H2 C5 1_555 1_555
C6 C5 1_555 1_555
H3 C6 1_555 1_555
H4 C6 1_555 1_555
C7 C6 1_555 1_555
C8 C7 1_555 1_555
H5 C8 1_555 1_555
C9 C8 1_555 1_555
H6 C9 1_555 1_555
C10 C9 1_555 1_555
H7 C10 1_555 1_555
C11 C10 1_555 1_555
H8 C11 1_555 1_555
N2 Cu1 1_555 1_555
N4 Cu1 1_555 1_555
N5 Cu1 1_555 1_555
H9 N5 1_555 1_555
H10 N5 1_555 1_555
N6 Cu1 1_555 1_555
Cu1B N1B 1_555 1_555
C1B N1B 1_555 1_555
C2B Pd1 1_555 1_555
C4B N4B 1_555 1_555
C5B H1B 1_555 1_555
H2B C5B 1_555 1_555
C6B C5B 1_555 1_555
H3B C6B 1_555 1_555
H4B C6B 1_555 1_555
C7B C6B 1_555 1_555
C8B C7B 1_555 1_555
H5B C8B 1_555 1_555
C9B C8B 1_555 1_555
H6B C9B 1_555 1_555
C10B C9B 1_555 1_555
H7B C10B 1_555 1_555
C11B C10B 1_555 1_555
H8B C11B 1_555 1_555
N2B Cu1B 1_555 1_555
N4B Cu1B 1_555 1_555
N5B Cu1B 1_555 1_555
H9B N5B 1_555 1_555
H10B N5B 1_555 1_555
N6B Cu1B 1_555 1_555
C3B Pd2 1_555 1_555
N3B C3B 1_555 1_555
Pd1A C1B 1_555 1_555
Pd1A_2 C1 1_555 1_555
Pd2_2 C4B 1_555 1_555
C1A Pd1 1_555 1_555
C1C Pd1 1_555 1_555
C4B_2 Pd2 1_555 1_555
C4 N4 1_555 1_555
C5 N5 1_555 1_555
C7 N6 1_555 1_555
C11 N6 1_555 1_555
C2B N2B 1_555 1_555
C5B N5B 1_555 1_555
C7B N6B 1_555 1_555
C11B N6B 1_555 1_555

#END
