
#######################################################################
#
#                 Cambridge Crystallographic Data Centre
#                                CCDC 
#
#######################################################################
#
# If this CIF has been generated from an entry in the Cambridge 
# Structural Database, then it will include bibliographic, chemical, 
# crystal, experimental, refinement or atomic coordinate data resulting 
# from the CCDC's data processing and validation procedures.
#
#######################################################################

data_EFUFAM
_symmetry_cell_setting           triclinic
_symmetry_space_group_name_H-M   'P -1'
_symmetry_Int_Tables_number      2
_space_group_name_Hall           '-P 1'
loop_
_symmetry_equiv_pos_site_id
_symmetry_equiv_pos_as_xyz
1 x,y,z
2 -x,-y,-z
_cell_length_a                   11.6549(8)
_cell_length_b                   11.7464(9)
_cell_length_c                   14.8121(11)
_cell_angle_alpha                104.5010(10)
_cell_angle_beta                 90.4280(10)
_cell_angle_gamma                117.5980(10)
_cell_volume                     1721.74
loop_
_atom_site_label
_atom_site_type_symbol
_atom_site_fract_x
_atom_site_fract_y
_atom_site_fract_z
Ag1 Ag 0.09920(2) 0.97780(2) 0.447066(15)
Ag2 Ag 0.49137(2) 0.99439(2) 0.097373(15)
F1 F 0.38506(19) 1.3317(2) 0.73252(15)
F2 F 0.3368(2) 1.1472(2) 0.76544(14)
F3 F 0.2325(2) 1.2551(2) 0.81600(13)
F4 F 0.02438(18) 0.7829(2) -0.04002(16)
F5 F 0.0563(2) 0.6822(2) -0.17194(14)
F6 F 0.06552(18) 0.62059(18) -0.04888(15)
O1 O 0.2238(2) 1.0790(2) 0.58630(14)
O2 O 0.0863(2) 1.1510(2) 0.65185(15)
O3 O 0.29012(19) 0.8468(2) 0.02788(15)
O4 O 0.29459(19) 0.8850(2) -0.11469(15)
N1 N 0.2376(2) 1.0554(2) 0.32910(15)
N2 N 0.3938(2) 1.0795(2) 0.22421(15)
N3 N 0.3089(2) 1.2317(2) 0.25722(16)
C1 C 0.3160(2) 1.0153(2) 0.28155(17)
C2 C 0.3875(2) 1.1874(2) 0.21490(17)
C3 C 0.2366(2) 1.1633(2) 0.31364(18)
C4 C 0.3153(3) 0.8919(2) 0.29185(18)
C5 C 0.2043(3) 0.7672(3) 0.2511(2)
C6 C 0.2053(3) 0.6536(3) 0.2631(2)
H1 H 0.1316 0.5682 0.2355
C7 C 0.3102(3) 0.6611(3) 0.3138(2)
C8 C 0.4180(3) 0.7855(3) 0.3527(2)
H2 H 0.4902 0.7915 0.3877
C9 C 0.4236(3) 0.9028(3) 0.3419(2)
C10 C 0.0883(3) 0.7537(3) 0.1945(2)
H3 H 0.0294 0.7685 0.2371
H4 H 0.0415 0.6635 0.1503
H5 H 0.1186 0.8203 0.1593
C11 C 0.3058(4) 0.5349(4) 0.3258(3)
H6 H 0.2217 0.4804 0.3446
H7 H 0.3771 0.5592 0.3745
H8 H 0.3158 0.4836 0.2660
C12 C 0.5447(3) 1.0360(3) 0.3843(2)
H9 H 0.6027 1.0243 0.4249
H10 H 0.5195 1.1002 0.4217
H11 H 0.5903 1.0699 0.3338
C13 C 0.4714(3) 1.2613(2) 0.15128(18)
C14 C 0.4122(3) 1.2486(3) 0.0640(2)
C15 C 0.4928(3) 1.3201(3) 0.0063(2)
H12 H 0.4550 1.3111 -0.0538
C16 C 0.6257(3) 1.4034(3) 0.0341(2)
C17 C 0.6800(3) 1.4154(3) 0.1212(2)
H13 H 0.7709 1.4744 0.1412
C18 C 0.6060(3) 1.3441(3) 0.18103(19)
C19 C 0.2671(3) 1.1640(3) 0.0330(2)
H14 H 0.2223 1.2117 0.0658
H15 H 0.2364 1.0789 0.0482
H16 H 0.2481 1.1463 -0.0351
C20 C 0.7100(4) 1.4794(4) -0.0304(3)
H17 H 0.7570 1.4333 -0.0616
H18 H 0.7732 1.5706 0.0069
H19 H 0.6544 1.4836 -0.0780
C21 C 0.6697(3) 1.3569(3) 0.2750(2)
H20 H 0.6634 1.2707 0.2747
H21 H 0.6249 1.3830 0.3253
H22 H 0.7619 1.4254 0.2859
C22 C 0.1455(3) 1.2061(2) 0.36207(18)
C23 C 0.0234(3) 1.1634(3) 0.31276(19)
C24 C -0.0611(3) 1.2032(3) 0.3580(2)
H23 H -0.1441 1.1754 0.3248
C25 C -0.0273(3) 1.2830(3) 0.4511(2)
C26 C 0.0952(3) 1.3256(3) 0.4982(2)
H24 H 0.1189 1.3807 0.5615
C27 C 0.1846(3) 1.2899(3) 0.45507(19)
C28 C -0.0153(3) 1.0755(3) 0.2120(2)
H25 H -0.1039 1.0544 0.1888
H26 H -0.0132 0.9922 0.2092
H27 H 0.0462 1.1228 0.1727
C29 C -0.1222(3) 1.3222(4) 0.5002(3)
H28 H -0.1845 1.2488 0.5234
H29 H -0.1697 1.3404 0.4557
H30 H -0.0740 1.4029 0.5533
C30 C 0.3211(3) 1.3452(3) 0.5043(2)
H31 H 0.3839 1.4103 0.4750
H32 H 0.3414 1.2719 0.4989
H33 H 0.3268 1.3895 0.5710
C31 C 0.1876(3) 1.1405(3) 0.6507(2)
C32 C 0.2860(3) 1.2197(3) 0.7424(2)
C33 C 0.2437(3) 0.8304(3) -0.0530(2)
C34 C 0.0963(3) 0.7276(3) -0.0793(2)
Ag1A Ag -0.09920(2) 1.02220(2) 0.552934(15)
O2A O -0.0863(2) 0.8490(2) 0.34815(15)
Ag2A Ag 0.50863(2) 1.00561(2) -0.097373(15)
O4A O 0.70541(19) 1.1150(2) 0.11469(15)
loop_
_geom_bond_atom_site_label_1
_geom_bond_atom_site_label_2
_geom_bond_site_symmetry_1
_geom_bond_site_symmetry_2
Ag1 O1 1_555 1_555
Ag2 O3 1_555 1_555
F1 C32 1_555 1_555
F2 C32 1_555 1_555
F3 C32 1_555 1_555
F4 C34 1_555 1_555
F5 C34 1_555 1_555
F6 C34 1_555 1_555
O1 C31 1_555 1_555
O2 C31 1_555 1_555
O3 C33 1_555 1_555
O4 C33 1_555 1_555
N1 Ag1 1_555 1_555
N2 Ag2 1_555 1_555
N3 C2 1_555 1_555
C1 N1 1_555 1_555
C2 N2 1_555 1_555
C3 N1 1_555 1_555
C4 C1 1_555 1_555
C5 C4 1_555 1_555
C6 C5 1_555 1_555
H1 C6 1_555 1_555
C7 C6 1_555 1_555
C8 C7 1_555 1_555
H2 C8 1_555 1_555
C9 C4 1_555 1_555
C10 C5 1_555 1_555
H3 C10 1_555 1_555
H4 C10 1_555 1_555
H5 C10 1_555 1_555
C11 C7 1_555 1_555
H6 C11 1_555 1_555
H7 C11 1_555 1_555
H8 C11 1_555 1_555
C12 C9 1_555 1_555
H9 C12 1_555 1_555
H10 C12 1_555 1_555
H11 C12 1_555 1_555
C13 C2 1_555 1_555
C14 C13 1_555 1_555
C15 C14 1_555 1_555
H12 C15 1_555 1_555
C16 C15 1_555 1_555
C17 C16 1_555 1_555
H13 C17 1_555 1_555
C18 C13 1_555 1_555
C19 C14 1_555 1_555
H14 C19 1_555 1_555
H15 C19 1_555 1_555
H16 C19 1_555 1_555
C20 C16 1_555 1_555
H17 C20 1_555 1_555
H18 C20 1_555 1_555
H19 C20 1_555 1_555
C21 C18 1_555 1_555
H20 C21 1_555 1_555
H21 C21 1_555 1_555
H22 C21 1_555 1_555
C22 C3 1_555 1_555
C23 C22 1_555 1_555
C24 C23 1_555 1_555
H23 C24 1_555 1_555
C25 C24 1_555 1_555
C26 C25 1_555 1_555
H24 C26 1_555 1_555
C27 C22 1_555 1_555
C28 C23 1_555 1_555
H25 C28 1_555 1_555
H26 C28 1_555 1_555
H27 C28 1_555 1_555
C29 C25 1_555 1_555
H28 C29 1_555 1_555
H29 C29 1_555 1_555
H30 C29 1_555 1_555
C30 C27 1_555 1_555
H31 C30 1_555 1_555
H32 C30 1_555 1_555
H33 C30 1_555 1_555
C31 C32 1_555 1_555
C33 C34 1_555 1_555
Ag1A Ag1 1_555 1_555
O2A Ag1 1_555 1_555
Ag2A Ag2 1_555 1_555
O4A Ag2 1_555 1_555
O2 Ag1A 1_555 1_555
O4 Ag2A 1_555 1_555
N2 C1 1_555 1_555
N3 C3 1_555 1_555
C8 C9 1_555 1_555
C17 C18 1_555 1_555
C26 C27 1_555 1_555

#END
