
#######################################################################
#
#                 Cambridge Crystallographic Data Centre
#                                CCDC 
#
#######################################################################
#
# If this CIF has been generated from an entry in the Cambridge 
# Structural Database, then it will include bibliographic, chemical, 
# crystal, experimental, refinement or atomic coordinate data resulting 
# from the CCDC's data processing and validation procedures.
#
#######################################################################

data_EFUKUM
_symmetry_cell_setting           triclinic
_symmetry_space_group_name_H-M   'P -1'
_symmetry_Int_Tables_number      2
_space_group_name_Hall           '-P 1'
loop_
_symmetry_equiv_pos_site_id
_symmetry_equiv_pos_as_xyz
1 x,y,z
2 -x,-y,-z
_cell_length_a                   10.069(3)
_cell_length_b                   10.480(2)
_cell_length_c                   10.749(4)
_cell_angle_alpha                88.59(3)
_cell_angle_beta                 63.20(3)
_cell_angle_gamma                73.59(5)
_cell_volume                     964.169
loop_
_atom_site_label
_atom_site_type_symbol
_atom_site_fract_x
_atom_site_fract_y
_atom_site_fract_z
C1 C 0.4231(3) 0.8318(3) -0.1039(3)
H1 H 0.3451 0.7905 -0.0735
C2 C 0.4198(3) 0.9327(3) -0.1904(3)
H2 H 0.3400 0.9589 -0.2158
C3 C 0.5351(3) 0.9927(3) -0.2373(3)
H3 H 0.5342 1.0605 -0.2946
C4 C 0.6547(3) 0.9514(2) -0.1986(2)
C5 C 0.6497(3) 0.8491(2) -0.1100(2)
C6 C 0.7708(3) 0.8012(2) -0.0661(3)
C7 C 0.8617(4) 0.6646(3) 0.0682(4)
H4 H 0.8500 0.6001 0.1300
C8 C 0.9882(4) 0.7125(4) 0.0284(4)
H5 H 1.0592 0.6817 0.0635
C9 C 1.0061(4) 0.8062(3) -0.0637(4)
H6 H 1.0915 0.8383 -0.0935
C10 C 0.8972(3) 0.8537(3) -0.1130(3)
C11 C 0.9021(3) 0.9548(3) -0.2042(3)
C12 C 0.7848(3) 1.0020(2) -0.2416(3)
C13 C 0.9654(3) 1.1033(3) -0.3384(3)
C14 C 1.0505(3) 1.1930(3) -0.4231(3)
C15 C 1.1828(4) 1.1979(4) -0.4166(4)
H7 H 1.2147 1.1461 -0.3579
C16 C 1.2683(5) 1.2790(4) -0.4964(4)
H8 H 1.3574 1.2813 -0.4914
C17 C 1.2217(5) 1.3556(4) -0.5827(4)
H9 H 1.2792 1.4103 -0.6361
C18 C 1.0911(5) 1.3522(3) -0.5908(3)
H10 H 1.0599 1.4045 -0.6497
C19 C 1.0043(4) 1.2701(3) -0.5105(3)
H11 H 0.9156 1.2676 -0.5162
C20 C 0.4984(3) 0.5876(3) 0.3413(3)
C21 C 0.4637(3) 0.5568(3) 0.4866(3)
H12 H 0.3874 0.6208 0.5614
N1 N 0.7562(3) 0.7065(2) 0.0221(2)
N2 N 0.5331(2) 0.79241(19) -0.0635(2)
N3 N 0.8268(3) 1.0978(2) -0.3281(2)
H13 H 0.7757 1.1452 -0.3681
N4 N 1.0148(3) 1.0182(2) -0.2652(3)
O1 O 0.4310(2) 0.70323(19) 0.3250(2)
O2 O 0.5921(3) 0.4988(2) 0.2410(2)
Cd1 Cd 0.55367(2) 0.618432(18) 0.072732(19)
Cl1 Cl 0.70589(7) 0.41956(6) -0.12379(7)
C1A C 0.5769(3) 0.1682(3) 1.1039(3)
H1A H 0.6549 0.2095 1.0735
C2A C 0.5802(3) 0.0673(3) 1.1904(3)
H2A H 0.6600 0.0411 1.2158
C3A C 0.4649(3) 0.0073(3) 1.2373(3)
H3A H 0.4658 -0.0605 1.2946
C4A C 0.3453(3) 0.0486(2) 1.1986(2)
C5A C 0.3503(3) 0.1509(2) 1.1100(2)
C6A C 0.2292(3) 0.1988(2) 1.0661(3)
C7A C 0.1383(4) 0.3354(3) 0.9318(4)
H4A H 0.1500 0.3999 0.8700
C8A C 0.0118(4) 0.2875(4) 0.9716(4)
H5A H -0.0592 0.3183 0.9365
C9A C -0.0061(4) 0.1938(3) 1.0637(4)
H6A H -0.0915 0.1617 1.0935
C10A C 0.1028(3) 0.1463(3) 1.1130(3)
C11A C 0.0979(3) 0.0452(3) 1.2042(3)
C12A C 0.2152(3) -0.0020(2) 1.2416(3)
C13A C 0.0346(3) -0.1033(3) 1.3384(3)
C14A C -0.0505(3) -0.1930(3) 1.4231(3)
C15A C -0.1828(4) -0.1979(4) 1.4166(4)
H7A H -0.2147 -0.1461 1.3579
C16A C -0.2683(5) -0.2790(4) 1.4964(4)
H8A H -0.3574 -0.2813 1.4914
C17A C -0.2217(5) -0.3556(4) 1.5827(4)
H9A H -0.2792 -0.4103 1.6361
C18A C -0.0911(5) -0.3522(3) 1.5908(3)
H10A H -0.0599 -0.4045 1.6497
C19A C -0.0043(4) -0.2701(3) 1.5105(3)
H11A H 0.0844 -0.2676 1.5162
C20A C 0.5016(3) 0.4124(3) 0.6587(3)
C21A C 0.5363(3) 0.4432(3) 0.5134(3)
H12A H 0.6126 0.3792 0.4386
N1A N 0.2438(3) 0.2935(2) 0.9779(2)
N2A N 0.4669(2) 0.20759(19) 1.0635(2)
N3A N 0.1732(3) -0.0978(2) 1.3281(2)
H13A H 0.2243 -0.1452 1.3681
N4A N -0.0148(3) -0.0182(2) 1.2652(3)
O1A O 0.5690(2) 0.29677(19) 0.6750(2)
O2A O 0.4079(3) 0.5012(2) 0.7590(2)
Cd1A Cd 0.44633(2) 0.381568(18) 0.927268(19)
Cd1A_2 Cd 0.44633(2) 0.381568(18) -0.072732(19)
Cl1A Cl 0.29411(7) 0.58044(6) 0.12379(7)
Cl1_2 Cl 0.70589(7) 0.41956(6) 0.87621(7)
Cl1A_2 Cl 0.29411(7) 0.58044(6) 1.12379(7)
loop_
_geom_bond_atom_site_label_1
_geom_bond_atom_site_label_2
_geom_bond_site_symmetry_1
_geom_bond_site_symmetry_2
C1 H1 1_555 1_555
C2 C1 1_555 1_555
H2 C2 1_555 1_555
C3 C2 1_555 1_555
H3 C3 1_555 1_555
C4 C3 1_555 1_555
C5 C4 1_555 1_555
C6 C5 1_555 1_555
C7 H4 1_555 1_555
C8 C7 1_555 1_555
H5 C8 1_555 1_555
C9 C8 1_555 1_555
H6 C9 1_555 1_555
C10 C6 1_555 1_555
C11 C10 1_555 1_555
C12 C4 1_555 1_555
C13 C14 1_555 1_555
C14 C15 1_555 1_555
C15 H7 1_555 1_555
C16 C15 1_555 1_555
H8 C16 1_555 1_555
C17 C16 1_555 1_555
H9 C17 1_555 1_555
C18 C17 1_555 1_555
H10 C18 1_555 1_555
C19 C14 1_555 1_555
H11 C19 1_555 1_555
C20 C21 1_555 1_555
C21 H12 1_555 1_555
N1 C6 1_555 1_555
N2 C1 1_555 1_555
N3 C12 1_555 1_555
H13 N3 1_555 1_555
N4 C11 1_555 1_555
O1 C20 1_555 1_555
O2 C20 1_555 1_555
Cd1 N1 1_555 1_555
Cl1 Cd1 1_555 1_555
C1A H1A 1_555 1_555
C2A C1A 1_555 1_555
H2A C2A 1_555 1_555
C3A C2A 1_555 1_555
H3A C3A 1_555 1_555
C4A C3A 1_555 1_555
C5A C4A 1_555 1_555
C6A C5A 1_555 1_555
C7A H4A 1_555 1_555
C8A C7A 1_555 1_555
H5A C8A 1_555 1_555
C9A C8A 1_555 1_555
H6A C9A 1_555 1_555
C10A C6A 1_555 1_555
C11A C10A 1_555 1_555
C12A C4A 1_555 1_555
C13A C14A 1_555 1_555
C14A C15A 1_555 1_555
C15A H7A 1_555 1_555
C16A C15A 1_555 1_555
H8A C16A 1_555 1_555
C17A C16A 1_555 1_555
H9A C17A 1_555 1_555
C18A C17A 1_555 1_555
H10A C18A 1_555 1_555
C19A C14A 1_555 1_555
H11A C19A 1_555 1_555
C20A C21A 1_555 1_555
C21A C21 1_555 1_555
H12A C21A 1_555 1_555
N1A C6A 1_555 1_555
N2A C1A 1_555 1_555
N3A C12A 1_555 1_555
H13A N3A 1_555 1_555
N4A C11A 1_555 1_555
O1A C20A 1_555 1_555
O2A C20A 1_555 1_555
Cd1A N1A 1_555 1_555
Cd1A_2 Cl1 1_555 1_555
Cl1A Cd1 1_555 1_555
Cl1_2 Cd1A 1_555 1_555
Cl1A_2 Cd1A 1_555 1_555
C5 N2 1_555 1_555
C7 N1 1_555 1_555
C9 C10 1_555 1_555
C11 C12 1_555 1_555
C13 N3 1_555 1_555
C13 N4 1_555 1_555
C18 C19 1_555 1_555
N2 Cd1 1_555 1_555
O1 Cd1 1_555 1_555
O2 Cd1 1_555 1_555
C5A N2A 1_555 1_555
C7A N1A 1_555 1_555
C9A C10A 1_555 1_555
C11A C12A 1_555 1_555
C13A N3A 1_555 1_555
C13A N4A 1_555 1_555
C18A C19A 1_555 1_555
N2A Cd1A 1_555 1_555
O1A Cd1A 1_555 1_555
O2A Cd1A 1_555 1_555
Cd1A_2 Cl1A 1_555 1_555

#END
