
#######################################################################
#
#                 Cambridge Crystallographic Data Centre
#                                CCDC 
#
#######################################################################
#
# If this CIF has been generated from an entry in the Cambridge 
# Structural Database, then it will include bibliographic, chemical, 
# crystal, experimental, refinement or atomic coordinate data resulting 
# from the CCDC's data processing and validation procedures.
#
#######################################################################

data_EFUKOG
_symmetry_cell_setting           monoclinic
_symmetry_space_group_name_H-M   'P 21/n'
_symmetry_Int_Tables_number      14
_space_group_name_Hall           '-P 2yn'
loop_
_symmetry_equiv_pos_site_id
_symmetry_equiv_pos_as_xyz
1 x,y,z
2 1/2-x,1/2+y,1/2-z
3 -x,-y,-z
4 1/2+x,1/2-y,1/2+z
_cell_length_a                   5.2011(2)
_cell_length_b                   23.5553(11)
_cell_length_c                   12.2402(6)
_cell_angle_alpha                90
_cell_angle_beta                 101.7190(10)
_cell_angle_gamma                90
_cell_volume                     1468.33
loop_
_atom_site_label
_atom_site_type_symbol
_atom_site_fract_x
_atom_site_fract_y
_atom_site_fract_z
C1 C 0.3875(4) 0.07382(8) 0.87479(16)
C2 C 0.3891(4) 0.01664(8) 0.81996(17)
C3 C 0.5985(4) -0.02297(8) 0.84865(16)
C4 C 0.5854(4) -0.07520(8) 0.78954(17)
C5 C 0.3694(4) -0.08508(9) 0.70422(19)
H1 H 0.3614 -0.1189 0.6645
C6 C 0.1646(5) -0.04639(9) 0.6757(2)
H2 H 0.0230 -0.0542 0.6179
C7 C 0.1755(4) 0.00368(9) 0.73481(19)
H3 H 0.0374 0.0294 0.7175
C8 C 0.5675(5) 0.20908(9) 1.08446(18)
H4 H 0.6585 0.1786 1.0625
C9 C 0.6686(4) 0.23533(9) 1.18769(18)
H5 H 0.8240 0.2216 1.2309
C10 C 0.3229(4) 0.29778(9) 1.15748(17)
C11 C 0.1873(5) 0.34460(9) 1.19042(19)
H6 H 0.2490 0.3619 1.2590
C12 C -0.0349(5) 0.36457(10) 1.1214(2)
H7 H -0.1223 0.3957 1.1433
C13 C -0.1323(5) 0.33878(10) 1.01838(19)
H8 H -0.2829 0.3530 0.9723
C14 C -0.0086(5) 0.29320(9) 0.98517(18)
H9 H -0.0764 0.2760 0.9170
C15 C 0.2213(4) 0.27178(8) 1.05309(17)
C16 C 0.7921(4) -0.12175(8) 0.81325(18)
N1 N 0.3490(4) 0.22601(7) 1.01771(14)
N2 N 0.5513(4) 0.27873(7) 1.22558(14)
O1 O 0.1729(3) 0.10073(6) 0.85540(13)
O2 O 0.5921(3) 0.09585(6) 0.93331(13)
O3 O 0.8022(3) -0.01133(6) 0.93043(12)
O4 O 0.7721(3) -0.16162(6) 0.74691(13)
O5 O 0.9752(3) -0.12024(6) 0.90078(13)
Cu1 Cu 0.90826(5) 0.059211(10) 1.00466(2)
Cu2 Cu 0.20383(5) 0.187416(11) 0.87622(2)
N2C N 0.0513(4) 0.22127(7) 0.72558(14)
O3B O 1.1978(3) 0.01133(6) 1.06957(12)
O5B O 1.0248(3) 0.12024(6) 1.09922(13)
Cu1B Cu 1.09174(5) -0.059211(10) 0.99534(2)
Cu2C Cu 0.70383(5) 0.312584(11) 1.37622(2)
loop_
_geom_bond_atom_site_label_1
_geom_bond_atom_site_label_2
_geom_bond_site_symmetry_1
_geom_bond_site_symmetry_2
C1 C2 1_555 1_555
C2 C3 1_555 1_555
C3 C4 1_555 1_555
C4 C5 1_555 1_555
C5 H1 1_555 1_555
C6 C5 1_555 1_555
H2 C6 1_555 1_555
C7 C2 1_555 1_555
H3 C7 1_555 1_555
C8 H4 1_555 1_555
C9 C8 1_555 1_555
H5 C9 1_555 1_555
C10 C11 1_555 1_555
C11 H6 1_555 1_555
C12 C11 1_555 1_555
H7 C12 1_555 1_555
C13 C12 1_555 1_555
H8 C13 1_555 1_555
C14 C13 1_555 1_555
H9 C14 1_555 1_555
C15 C10 1_555 1_555
C16 C4 1_555 1_555
N1 C8 1_555 1_555
N2 C9 1_555 1_555
O1 C1 1_555 1_555
O2 C1 1_555 1_555
O3 C3 1_555 1_555
O4 C16 1_555 1_555
O5 C16 1_555 1_555
Cu1 O2 1_555 1_555
Cu2 N1 1_555 1_555
N2C Cu2 1_555 1_555
O3B Cu1 1_555 1_555
O5B Cu1 1_555 1_555
Cu1B O3 1_555 1_555
Cu2C N2 1_555 1_555
C6 C7 1_555 1_555
C10 N2 1_555 1_555
C14 C15 1_555 1_555
C15 N1 1_555 1_555
O1 Cu2 1_555 1_555
O3 Cu1 1_555 1_555
O5 Cu1B 1_555 1_555
O3B Cu1B 1_555 1_555

#END
