
#######################################################################
#
#                 Cambridge Crystallographic Data Centre
#                                CCDC 
#
#######################################################################
#
# If this CIF has been generated from an entry in the Cambridge 
# Structural Database, then it will include bibliographic, chemical, 
# crystal, experimental, refinement or atomic coordinate data resulting 
# from the CCDC's data processing and validation procedures.
#
#######################################################################

data_EFULUN01
_symmetry_cell_setting           triclinic
_symmetry_space_group_name_H-M   'P -1'
_symmetry_Int_Tables_number      2
_space_group_name_Hall           '-P 1'
loop_
_symmetry_equiv_pos_site_id
_symmetry_equiv_pos_as_xyz
1 x,y,z
2 -x,-y,-z
_cell_length_a                   12.245(2)
_cell_length_b                   12.559(3)
_cell_length_c                   12.983(3)
_cell_angle_alpha                103.75(3)
_cell_angle_beta                 98.64(3)
_cell_angle_gamma                118.67(3)
_cell_volume                     1617.73
loop_
_atom_site_label
_atom_site_type_symbol
_atom_site_fract_x
_atom_site_fract_y
_atom_site_fract_z
C1 C 0.3171(4) -0.0552(3) 0.4707(3)
H1 H 0.3095 -0.0827 0.3954
C2 C 0.3091(4) -0.1241(3) 0.5370(3)
H2 H 0.2952 -0.2068 0.5162
C3 C 0.3420(3) 0.0610(3) 0.6332(3)
H3 H 0.3548 0.1288 0.6923
C4 C 0.3220(4) -0.0855(4) 0.7395(3)
H4 H 0.3794 -0.0072 0.8047
H5 H 0.3563 -0.1412 0.7368
C5 C 0.1867(3) -0.1547(3) 0.7525(3)
C6 C 0.1725(3) -0.2031(3) 0.8377(3)
H6 H 0.2437 -0.1969 0.8824
C7 C 0.0523(3) -0.2613(3) 0.8570(3)
H7 H 0.0444 -0.2927 0.9153
C8 C -0.0555(3) -0.2733(3) 0.7914(3)
C9 C -0.0406(3) -0.2272(3) 0.7047(3)
H8 H -0.1125 -0.2361 0.6582
C10 C 0.0790(3) -0.1680(3) 0.6857(3)
H9 H 0.0868 -0.1369 0.6272
C11 C -0.1857(3) -0.3354(3) 0.8131(3)
H10 H -0.1708 -0.3215 0.8919
H11 H -0.2307 -0.2935 0.7940
C12 C -0.2616(4) -0.5720(3) 0.7727(3)
H12 H -0.2016 -0.5616 0.8335
C13 C -0.3572(3) -0.6848(3) 0.6922(3)
H13 H -0.3744 -0.7665 0.6883
C14 C -0.3683(3) -0.5331(3) 0.6544(3)
H14 H -0.3939 -0.4884 0.6195
C15 C 0.1577(3) 0.1919(3) 0.5688(3)
H15 H 0.1154 0.1030 0.5536
C16 C 0.1129(4) 0.2682(3) 0.6101(3)
H16 H 0.0347 0.2410 0.6268
C17 C 0.3000(3) 0.3869(3) 0.5865(3)
H17 H 0.3743 0.4589 0.5856
C18 C 0.1980(4) 0.5076(3) 0.6620(3)
H18 H 0.2827 0.5844 0.6759
H19 H 0.1779 0.5132 0.7318
C19 C 0.0954(3) 0.5043(3) 0.5785(3)
C20 C 0.1156(3) 0.5253(3) 0.4819(3)
H20 H 0.1940 0.5425 0.4688
C21 C -0.0230(4) 0.4786(3) 0.5958(3)
H21 H -0.0394 0.4639 0.6603
C22 C 0.4353(4) 0.2480(3) 0.3206(3)
N1 N 0.3381(3) 0.0619(2) 0.5310(2)
N2 N 0.3250(3) -0.0504(3) 0.6403(2)
N3 N -0.2696(2) -0.4760(2) 0.7484(2)
N4 N -0.4256(3) -0.6611(2) 0.6164(2)
N5 N 0.2760(3) 0.2678(2) 0.5529(2)
N6 N 0.2043(3) 0.3917(2) 0.6223(2)
O1 O 0.4065(3) 0.1410(2) 0.33841(19)
O2 O 0.4334(3) 0.3296(2) 0.3995(2)
O3 O 0.4637(3) 0.2692(3) 0.2362(2)
Cu1 Cu 0.39039(4) 0.21364(4) 0.48548(3)
C1_2 C 1.3171(4) 0.9448(3) 0.4707(3)
H1_2 H 1.3095 0.9173 0.3954
C2_2 C 1.3091(4) 0.8759(3) 0.5370(3)
H2_2 H 1.2952 0.7932 0.5162
C3_2 C 1.3420(3) 1.0610(3) 0.6332(3)
H3_2 H 1.3548 1.1288 0.6923
C4_2 C 1.3220(4) 0.9145(4) 0.7395(3)
H4_2 H 1.3794 0.9928 0.8047
H5_2 H 1.3563 0.8588 0.7368
C5_2 C 1.1867(3) 0.8453(3) 0.7525(3)
C6_2 C 1.1725(3) 0.7969(3) 0.8377(3)
H6_2 H 1.2437 0.8031 0.8824
C7_2 C 1.0523(3) 0.7387(3) 0.8570(3)
H7_2 H 1.0444 0.7073 0.9153
C8_2 C 0.9445(3) 0.7267(3) 0.7914(3)
C9_2 C 0.9594(3) 0.7728(3) 0.7047(3)
H8_2 H 0.8875 0.7639 0.6582
C10_2 C 1.0790(3) 0.8320(3) 0.6857(3)
H9_2 H 1.0868 0.8631 0.6272
C11_2 C 0.8143(3) 0.6646(3) 0.8131(3)
H10_2 H 0.8292 0.6785 0.8919
H11_2 H 0.7693 0.7065 0.7940
C12_2 C 0.7384(4) 0.4280(3) 0.7727(3)
H12_2 H 0.7984 0.4384 0.8335
C13_2 C 0.6428(3) 0.3152(3) 0.6922(3)
H13_2 H 0.6256 0.2335 0.6883
C14_2 C 0.6317(3) 0.4669(3) 0.6544(3)
H14_2 H 0.6061 0.5116 0.6195
C15A C -0.1577(3) 0.8081(3) 0.4312(3)
H15A H -0.1154 0.8970 0.4464
C16A C -0.1129(4) 0.7318(3) 0.3899(3)
H16A H -0.0347 0.7590 0.3732
C17A C -0.3000(3) 0.6131(3) 0.4135(3)
H17A H -0.3743 0.5411 0.4144
C18A C -0.1980(4) 0.4924(3) 0.3380(3)
H18A H -0.2827 0.4156 0.3241
H19A H -0.1779 0.4868 0.2682
C19A C -0.0954(3) 0.4957(3) 0.4215(3)
C20A C -0.1156(3) 0.4747(3) 0.5181(3)
H20A H -0.1940 0.4575 0.5312
C21A C 0.0230(4) 0.5214(3) 0.4042(3)
H21A H 0.0394 0.5361 0.3397
C22_2 C 1.4353(4) 1.2480(3) 0.3206(3)
N1_2 N 1.3381(3) 1.0619(2) 0.5310(2)
N2_2 N 1.3250(3) 0.9496(3) 0.6403(2)
N3_2 N 0.7304(2) 0.5240(2) 0.7484(2)
N4_2 N 0.5744(3) 0.3389(2) 0.6164(2)
N4_3 N 1.5744(3) 1.3389(2) 0.6164(2)
N5A N -0.2760(3) 0.7322(2) 0.4471(2)
N5_2 N 1.2760(3) 1.2678(2) 0.5529(2)
N6A N -0.2043(3) 0.6083(2) 0.3777(2)
O1_2 O 1.4065(3) 1.1410(2) 0.33841(19)
O2_2 O 1.4334(3) 1.3296(2) 0.3995(2)
O3_2 O 1.4637(3) 1.2692(3) 0.2362(2)
Cu1_2 Cu 1.39039(4) 1.21364(4) 0.48548(3)
Cu1_3 Cu -0.60961(4) -0.78636(4) 0.48548(3)
Cu1A Cu -0.39039(4) 0.78636(4) 0.51452(3)
C23 C -0.1239(4) -0.0630(4) 1.0073(4)
H22 H -0.2090 -0.1061 1.0107
C24 C -0.0980(5) -0.0070(4) 0.9267(3)
H23 H -0.1656 -0.0121 0.8778
C25 C -0.0269(5) -0.0562(3) 1.0820(3)
C26 C -0.0540(5) -0.1173(4) 1.1695(3)
H24 H -0.1321 -0.1243 1.1844
H25 H 0.0184 -0.0603 1.2380
C27 C 0.0209(4) -0.2752(5) 1.1428(3)
H26 H 0.1110 -0.2166 1.1666
C28 C -0.1868(5) -0.3614(5) 1.0978(3)
H27 H -0.2680 -0.3702 1.0858
C29 C -0.0416(6) -0.4050(5) 1.1059(4)
H28 H 0.0000 -0.4506 1.1013
N7 N -0.0724(4) -0.2453(3) 1.1389(2)
N8 N -0.1724(4) -0.4610(4) 1.0765(3)
C23A C 0.1239(4) 0.0630(4) 0.9927(4)
H22A H 0.2090 0.1061 0.9893
C24A C 0.0980(5) 0.0070(4) 1.0733(3)
H23A H 0.1656 0.0121 1.1222
C25A C 0.0269(5) 0.0562(3) 0.9180(3)
C26A C 0.0540(5) 0.1173(4) 0.8305(3)
H24A H 0.1321 0.1243 0.8156
H25A H -0.0184 0.0603 0.7620
C27A C -0.0209(4) 0.2752(5) 0.8572(3)
H26A H -0.1110 0.2166 0.8334
C28A C 0.1868(5) 0.3614(5) 0.9022(3)
H27A H 0.2680 0.3702 0.9142
C29A C 0.0416(6) 0.4050(5) 0.8941(4)
H28A H 0.0000 0.4506 0.8987
N7A N 0.0724(4) 0.2453(3) 0.8611(2)
N8A N 0.1724(4) 0.4610(4) 0.9235(3)
O4 O 0.4770(4) 0.4336(3) 0.1210(3)
H29 H 0.480(6) 0.387(5) 0.162(4)
H30 H 0.474(6) 0.401(5) 0.051(2)
O5 O 0.4330(3) 0.3118(3) 0.8748(3)
H31 H 0.506(3) 0.310(4) 0.897(4)
H32 H 0.475(4) 0.398(3) 0.879(5)
O6 O 0.3362(4) -0.0827(4) 0.1758(3)
H33 H 0.392(5) 0.0002(18) 0.202(2)
H34 H 0.369(5) -0.127(4) 0.186(2)
O7 O 0.4602(4) 0.1082(4) 0.0557(3)
H35 H 0.482(6) 0.150(4) 0.124(2)
H36 H 0.445(6) 0.028(3) 0.054(3)
O8 O 0.3719(3) -0.2680(3) 0.0427(3)
H37 H 0.300(3) -0.325(3) -0.007(4)
H38 H 0.396(5) -0.192(2) 0.028(3)
loop_
_geom_bond_atom_site_label_1
_geom_bond_atom_site_label_2
_geom_bond_site_symmetry_1
_geom_bond_site_symmetry_2
C1 H1 1_555 1_555
C2 C1 1_555 1_555
H2 C2 1_555 1_555
C3 H3 1_555 1_555
C4 H4 1_555 1_555
H5 C4 1_555 1_555
C5 C4 1_555 1_555
C6 C5 1_555 1_555
H6 C6 1_555 1_555
C7 C6 1_555 1_555
H7 C7 1_555 1_555
C8 C7 1_555 1_555
C9 C8 1_555 1_555
H8 C9 1_555 1_555
C10 C5 1_555 1_555
H9 C10 1_555 1_555
C11 C8 1_555 1_555
H10 C11 1_555 1_555
H11 C11 1_555 1_555
C12 H12 1_555 1_555
C13 C12 1_555 1_555
H13 C13 1_555 1_555
C14 H14 1_555 1_555
C15 H15 1_555 1_555
C16 C15 1_555 1_555
H16 C16 1_555 1_555
C17 H17 1_555 1_555
C18 H18 1_555 1_555
H19 C18 1_555 1_555
C19 C18 1_555 1_555
C20 C19 1_555 1_555
H20 C20 1_555 1_555
C21 C19 1_555 1_555
H21 C21 1_555 1_555
C22 O1 1_555 1_555
N1 C1 1_555 1_555
N2 C2 1_555 1_555
N3 C11 1_555 1_555
N4 C13 1_555 1_555
N5 C15 1_555 1_555
N6 C16 1_555 1_555
O1 Cu1 1_555 1_555
O2 C22 1_555 1_555
O3 C22 1_555 1_555
Cu1 N1 1_555 1_555
C23 H22 1_555 1_555
C24 C23 1_555 1_555
H23 C24 1_555 1_555
C25 C23 1_555 1_555
C26 C25 1_555 1_555
H24 C26 1_555 1_555
H25 C26 1_555 1_555
C27 H26 1_555 1_555
C28 H27 1_555 1_555
C29 C27 1_555 1_555
H28 C29 1_555 1_555
N7 C26 1_555 1_555
N8 C28 1_555 1_555
O4 H29 1_555 1_555
H30 O4 1_555 1_555
O5 H31 1_555 1_555
H32 O5 1_555 1_555
O6 H33 1_555 1_555
H34 O6 1_555 1_555
O7 H35 1_555 1_555
H36 O7 1_555 1_555
O8 H37 1_555 1_555
H38 O8 1_555 1_555
C1_2 H1_2 1_555 1_555
C2_2 C1_2 1_555 1_555
H2_2 C2_2 1_555 1_555
C3_2 H3_2 1_555 1_555
C4_2 H4_2 1_555 1_555
H5_2 C4_2 1_555 1_555
C5_2 C4_2 1_555 1_555
C6_2 C5_2 1_555 1_555
H6_2 C6_2 1_555 1_555
C7_2 C6_2 1_555 1_555
H7_2 C7_2 1_555 1_555
C8_2 C7_2 1_555 1_555
C9_2 C8_2 1_555 1_555
H8_2 C9_2 1_555 1_555
C10_2 C5_2 1_555 1_555
H9_2 C10_2 1_555 1_555
C11_2 C8_2 1_555 1_555
H10_2 C11_2 1_555 1_555
H11_2 C11_2 1_555 1_555
C12_2 H12_2 1_555 1_555
C13_2 C12_2 1_555 1_555
H13_2 C13_2 1_555 1_555
C14_2 H14_2 1_555 1_555
C15A H15A 1_555 1_555
C16A C15A 1_555 1_555
H16A C16A 1_555 1_555
C17A H17A 1_555 1_555
C18A H18A 1_555 1_555
H19A C18A 1_555 1_555
C19A C18A 1_555 1_555
C20A C21 1_555 1_555
H20A C20A 1_555 1_555
C21A C20 1_555 1_555
H21A C21A 1_555 1_555
C22_2 O1_2 1_555 1_555
N1_2 C1_2 1_555 1_555
N2_2 C2_2 1_555 1_555
N3_2 C11_2 1_555 1_555
N4_2 Cu1 1_555 1_555
N4_3 Cu1_2 1_555 1_555
N5A C15A 1_555 1_555
N5_2 Cu1_2 1_555 1_555
N6A C16A 1_555 1_555
O1_2 Cu1_2 1_555 1_555
O2_2 C22_2 1_555 1_555
O3_2 C22_2 1_555 1_555
Cu1_2 N1_2 1_555 1_555
Cu1_3 N4 1_555 1_555
Cu1A N5A 1_555 1_555
C23A H22A 1_555 1_555
C24A C25 1_555 1_555
H23A C24A 1_555 1_555
C25A C24 1_555 1_555
C26A C25A 1_555 1_555
H24A C26A 1_555 1_555
H25A C26A 1_555 1_555
C27A H26A 1_555 1_555
C28A H27A 1_555 1_555
C29A C27A 1_555 1_555
H28A C29A 1_555 1_555
N7A C26A 1_555 1_555
N8A C28A 1_555 1_555
C3 N1 1_555 1_555
C3 N2 1_555 1_555
C4 N2 1_555 1_555
C9 C10 1_555 1_555
C12 N3 1_555 1_555
C14 N3 1_555 1_555
C14 N4 1_555 1_555
C17 N5 1_555 1_555
C17 N6 1_555 1_555
C18 N6 1_555 1_555
N5 Cu1 1_555 1_555
O2 Cu1 1_555 1_555
C27 N7 1_555 1_555
C28 N7 1_555 1_555
C29 N8 1_555 1_555
C3_2 N1_2 1_555 1_555
C3_2 N2_2 1_555 1_555
C4_2 N2_2 1_555 1_555
C9_2 C10_2 1_555 1_555
C12_2 N3_2 1_555 1_555
C13_2 N4_2 1_555 1_555
C14_2 N3_2 1_555 1_555
C14_2 N4_2 1_555 1_555
C17A N5A 1_555 1_555
C17A N6A 1_555 1_555
C18A N6A 1_555 1_555
C19A C20A 1_555 1_555
C19A C21A 1_555 1_555
O2_2 Cu1_2 1_555 1_555
C23A C24A 1_555 1_555
C23A C25A 1_555 1_555
C27A N7A 1_555 1_555
C28A N7A 1_555 1_555
C29A N8A 1_555 1_555

#END
