
#######################################################################
#
#                 Cambridge Crystallographic Data Centre
#                                CCDC 
#
#######################################################################
#
# If this CIF has been generated from an entry in the Cambridge 
# Structural Database, then it will include bibliographic, chemical, 
# crystal, experimental, refinement or atomic coordinate data resulting 
# from the CCDC's data processing and validation procedures.
#
#######################################################################

data_EFULAT
_symmetry_cell_setting           monoclinic
_symmetry_space_group_name_H-M   'P 21/c'
_symmetry_Int_Tables_number      14
_space_group_name_Hall           '-P 2ybc'
loop_
_symmetry_equiv_pos_site_id
_symmetry_equiv_pos_as_xyz
1 x,y,z
2 -x,1/2+y,1/2-z
3 -x,-y,-z
4 x,1/2-y,1/2+z
_cell_length_a                   10.162(2)
_cell_length_b                   18.040(4)
_cell_length_c                   24.160(5)
_cell_angle_alpha                90
_cell_angle_beta                 92.78(3)
_cell_angle_gamma                90
_cell_volume                     4423.86
loop_
_atom_site_label
_atom_site_type_symbol
_atom_site_fract_x
_atom_site_fract_y
_atom_site_fract_z
C1 C -0.1817(3) 0.2785(2) 0.10967(12)
C2 C -0.0414(3) 0.30369(17) 0.10833(12)
C3 C 0.0363(3) 0.27313(19) 0.06958(14)
H1 H 0.0018 0.2366 0.0459
C4 C 0.1674(3) 0.2963(2) 0.06519(13)
H2 H 0.2192 0.2742 0.0391
C5 C 0.2201(3) 0.35097(18) 0.09874(12)
C6 C 0.3547(3) 0.3810(2) 0.08698(12)
C7 C 0.1453(3) 0.38070(18) 0.14205(12)
C8 C 0.1990(3) 0.4308(2) 0.18224(15)
H3 H 0.2838 0.4490 0.1788
C9 C 0.1284(4) 0.4527(2) 0.22584(16)
H4 H 0.1665 0.4845 0.2523
C10 C -0.0011(4) 0.4278(2) 0.23128(16)
H5 H -0.0481 0.4428 0.2614
C11 C -0.0577(3) 0.38162(19) 0.19249(13)
H6 H -0.1443 0.3663 0.1961
C12 C 0.0123(3) 0.35635(17) 0.14671(12)
C13 C -0.3092(4) 0.2129(3) -0.01395(16)
H7 H -0.2517 0.2490 0.0002
C14 C -0.2883(6) 0.1845(3) -0.06573(19)
H8 H -0.2183 0.2013 -0.0857
C15 C -0.3710(6) 0.1317(3) -0.08722(19)
H9 H -0.3579 0.1118 -0.1221
C16 C -0.4757(5) 0.1074(2) -0.05670(17)
C17 C -0.4900(4) 0.1399(2) -0.00375(15)
C18 C -0.6015(4) 0.1187(2) 0.02941(16)
C19 C -0.7109(4) 0.1349(3) 0.11008(18)
H10 H -0.7177 0.1574 0.1444
C20 C -0.8077(5) 0.0843(3) 0.0918(2)
H11 H -0.8771 0.0730 0.1140
C21 C -0.8000(6) 0.0519(3) 0.0412(2)
H12 H -0.8649 0.0187 0.0287
C22 C -0.6958(5) 0.0681(2) 0.0083(2)
C23 C -0.6763(6) 0.0345(2) -0.0464(2)
C24 C -0.5695(6) 0.0536(3) -0.0767(2)
C25 C -0.6398(9) -0.0267(4) -0.1436(3)
H13 H -0.6293 -0.0496 -0.1776
C26 C -0.4285(3) 0.10762(19) 0.44911(12)
C27 C -0.4460(3) 0.14028(18) 0.39188(12)
C28 C -0.3605(3) 0.1182(2) 0.35297(13)
H14 H -0.2914 0.0862 0.3628
C29 C -0.3776(3) 0.1441(2) 0.29815(13)
H15 H -0.3214 0.1267 0.2718
C30 C -0.4736(3) 0.19372(19) 0.28217(12)
C31 C -0.5618(3) 0.22032(18) 0.32248(13)
C32 C -0.5488(3) 0.19091(17) 0.37759(12)
C33 C -0.6381(3) 0.21609(19) 0.41703(14)
H16 H -0.6309 0.1976 0.4530
C34 C -0.7335(4) 0.2664(2) 0.40357(16)
H17 H -0.7908 0.2819 0.4301
C35 C -0.7458(4) 0.2951(2) 0.34932(17)
H18 H -0.8112 0.3297 0.3403
C36 C -0.6628(4) 0.2727(2) 0.30978(15)
H19 H -0.6727 0.2919 0.2741
C37 C 0.8524(3) 0.5368(2) 0.02255(17)
H20 H 0.8307 0.5181 -0.0126
C38 C 0.9583(4) 0.5867(3) 0.0293(2)
H21 H 1.0071 0.5997 -0.0008
C39 C 0.9884(4) 0.6155(2) 0.0800(2)
H22 H 1.0591 0.6480 0.0851
C40 C 0.9125(3) 0.5962(2) 0.12481(18)
C41 C 0.8104(3) 0.54562(18) 0.11505(15)
C42 C 0.7306(3) 0.52209(18) 0.16042(13)
C43 C 0.5710(4) 0.4436(2) 0.19117(14)
H23 H 0.5094 0.4063 0.1837
C44 C 0.5895(4) 0.4687(3) 0.24498(15)
H24 H 0.5412 0.4486 0.2731
C45 C 0.6790(5) 0.5229(3) 0.25628(16)
H25 H 0.6903 0.5417 0.2920
C46 C 0.7542(4) 0.5505(2) 0.21401(16)
C47 C 0.8596(4) 0.6035(2) 0.22339(19)
C48 C 0.9361(4) 0.6261(2) 0.1809(2)
C49 C 1.0560(6) 0.6983(4) 0.2412(3)
H26 H 1.1250 0.7307 0.2502
C50 C 0.9796(7) 0.6756(4) 0.2822(3)
H27 H 0.9973 0.6949 0.3175
C51 C -0.7458(9) -0.0447(3) -0.1141(3)
H28 H -0.8039 -0.0799 -0.1292
C52 C -0.4791(4) 0.2167(2) 0.22163(14)
N1 N -0.4071(3) 0.19142(18) 0.01702(11)
N2 N -0.6093(3) 0.15162(17) 0.07961(12)
N3 N -0.5537(6) 0.0211(3) -0.12589(18)
N4 N -0.7733(6) -0.0151(3) -0.0640(2)
N5 N 0.7827(3) 0.51551(16) 0.06439(11)
N6 N 0.6371(3) 0.47031(16) 0.14962(11)
N7 N 1.0374(4) 0.6763(2) 0.1874(2)
N8 N 0.8831(4) 0.6286(3) 0.27568(18)
O1 O -0.2026(2) 0.21104(15) 0.11367(13)
O2 O -0.2733(2) 0.32490(14) 0.10492(10)
O3 O 0.3700(2) 0.44930(15) 0.08679(10)
O4 O 0.4440(2) 0.33603(14) 0.07412(9)
O5 O -0.3221(2) 0.11629(15) 0.47631(9)
O6 O -0.5225(2) 0.07169(13) 0.46810(9)
O7 O -0.5347(4) 0.2713(2) 0.20422(13)
O8 O -0.4281(4) 0.1756(2) 0.18967(11)
Cd1 Cd -0.44274(2) 0.236071(14) 0.109183(9)
Cd2 Cd 0.59398(2) 0.441582(15) 0.056187(9)
O4_2 O -0.5560(2) 0.33603(14) 0.07412(9)
O5C O 0.6779(2) 0.38371(15) -0.02369(9)
O6C O 0.4775(2) 0.42831(13) -0.03190(9)
O6A O 0.5225(2) 0.57169(13) 0.03190(9)
Cd1_2 Cd 0.55726(2) 0.236071(14) 0.109183(9)
Cd2C Cd -0.40602(2) 0.058418(15) 0.556187(9)
Cd2A Cd -0.59398(2) -0.058418(15) 0.443813(9)
loop_
_geom_bond_atom_site_label_1
_geom_bond_atom_site_label_2
_geom_bond_site_symmetry_1
_geom_bond_site_symmetry_2
C1 C2 1_555 1_555
C2 C3 1_555 1_555
C3 H1 1_555 1_555
C4 C3 1_555 1_555
H2 C4 1_555 1_555
C5 C4 1_555 1_555
C6 C5 1_555 1_555
C7 C5 1_555 1_555
C8 C7 1_555 1_555
H3 C8 1_555 1_555
C9 C8 1_555 1_555
H4 C9 1_555 1_555
C10 C9 1_555 1_555
H5 C10 1_555 1_555
C11 C10 1_555 1_555
H6 C11 1_555 1_555
C12 C2 1_555 1_555
C13 H7 1_555 1_555
C14 C13 1_555 1_555
H8 C14 1_555 1_555
C15 C14 1_555 1_555
H9 C15 1_555 1_555
C16 C15 1_555 1_555
C17 C16 1_555 1_555
C18 C17 1_555 1_555
C19 H10 1_555 1_555
C20 C19 1_555 1_555
H11 C20 1_555 1_555
C21 C20 1_555 1_555
H12 C21 1_555 1_555
C22 C18 1_555 1_555
C23 C22 1_555 1_555
C24 C16 1_555 1_555
C25 H13 1_555 1_555
C26 C27 1_555 1_555
C27 C28 1_555 1_555
C28 H14 1_555 1_555
C29 C28 1_555 1_555
H15 C29 1_555 1_555
C30 C29 1_555 1_555
C31 C30 1_555 1_555
C32 C27 1_555 1_555
C33 C32 1_555 1_555
H16 C33 1_555 1_555
C34 C33 1_555 1_555
H17 C34 1_555 1_555
C35 C34 1_555 1_555
H18 C35 1_555 1_555
C36 C31 1_555 1_555
H19 C36 1_555 1_555
C37 H20 1_555 1_555
C38 C37 1_555 1_555
H21 C38 1_555 1_555
C39 C38 1_555 1_555
H22 C39 1_555 1_555
C40 C39 1_555 1_555
C41 C40 1_555 1_555
C42 C41 1_555 1_555
C43 H23 1_555 1_555
C44 C43 1_555 1_555
H24 C44 1_555 1_555
C45 C44 1_555 1_555
H25 C45 1_555 1_555
C46 C42 1_555 1_555
C47 C46 1_555 1_555
C48 C40 1_555 1_555
C49 H26 1_555 1_555
C50 C49 1_555 1_555
H27 C50 1_555 1_555
C51 C25 1_555 1_555
H28 C51 1_555 1_555
C52 C30 1_555 1_555
N1 C13 1_555 1_555
N2 C18 1_555 1_555
N3 C24 1_555 1_555
N4 C23 1_555 1_555
N5 C37 1_555 1_555
N6 C42 1_555 1_555
N7 C48 1_555 1_555
N8 C47 1_555 1_555
O1 C1 1_555 1_555
O2 C1 1_555 1_555
O3 C6 1_555 1_555
O4 C6 1_555 1_555
O5 C26 1_555 1_555
O6 C26 1_555 1_555
O7 C52 1_555 1_555
O8 C52 1_555 1_555
Cd1 N1 1_555 1_555
Cd2 N5 1_555 1_555
O4_2 Cd1 1_555 1_555
O5C Cd2 1_555 1_555
O6C Cd2 1_555 1_555
O6A Cd2 1_555 1_555
Cd1_2 O4 1_555 1_555
Cd2C O5 1_555 1_555
Cd2A O6 1_555 1_555
C7 C12 1_555 1_555
C11 C12 1_555 1_555
C17 N1 1_555 1_555
C19 N2 1_555 1_555
C21 C22 1_555 1_555
C23 C24 1_555 1_555
C25 N3 1_555 1_555
C31 C32 1_555 1_555
C35 C36 1_555 1_555
C41 N5 1_555 1_555
C43 N6 1_555 1_555
C45 C46 1_555 1_555
C47 C48 1_555 1_555
C49 N7 1_555 1_555
C50 N8 1_555 1_555
C51 N4 1_555 1_555
N2 Cd1 1_555 1_555
N6 Cd2 1_555 1_555
O1 Cd1 1_555 1_555
O2 Cd1 1_555 1_555
O3 Cd2 1_555 1_555
O4 Cd2 1_555 1_555
O6 Cd2C 1_555 1_555
O7 Cd1 1_555 1_555
O8 Cd1 1_555 1_555

#END
