
#######################################################################
#
#                 Cambridge Crystallographic Data Centre
#                                CCDC 
#
#######################################################################
#
# If this CIF has been generated from an entry in the Cambridge 
# Structural Database, then it will include bibliographic, chemical, 
# crystal, experimental, refinement or atomic coordinate data resulting 
# from the CCDC's data processing and validation procedures.
#
#######################################################################

data_EFUPEA
_symmetry_cell_setting           monoclinic
_symmetry_space_group_name_H-M   'C 2/c'
_symmetry_Int_Tables_number      15
_space_group_name_Hall           '-C 2yn'
loop_
_symmetry_equiv_pos_site_id
_symmetry_equiv_pos_as_xyz
1 x,y,z
2 1/2+x,1/2+y,z
3 x,-y,1/2+z
4 1/2+x,1/2-y,1/2+z
5 -x,-y,-z
6 1/2-x,1/2-y,-z
7 -x,y,1/2-z
8 1/2-x,1/2+y,1/2-z
_cell_length_a                   8.7047(6)
_cell_length_b                   23.3712(18)
_cell_length_c                   19.7186(15)
_cell_angle_alpha                90
_cell_angle_beta                 101.409(1)
_cell_angle_gamma                90
_cell_volume                     3932.27
loop_
_atom_site_label
_atom_site_type_symbol
_atom_site_fract_x
_atom_site_fract_y
_atom_site_fract_z
Mo1 Mo 0.5000 0.17841(4) 0.2500
Mo2 Mo 0.29636(7) 0.26067(3) 0.12289(3)
Mo3 Mo 0.39990(7) 0.40221(3) 0.15984(3)
Cu1 Cu 0.23376(10) 0.13593(4) 0.00533(5)
P1 P 0.3292(2) 0.30540(9) 0.28974(10)
O1 O 0.3475(5) 0.2211(2) 0.0574(2)
O2 O 0.3070(5) 0.2030(2) 0.1921(2)
O3 O 0.0986(5) 0.2649(2) 0.1020(2)
O4 O 0.3390(5) 0.3385(2) 0.0901(2)
O5 O 0.3338(5) 0.3198(2) 0.2128(2)
O6 O 0.4384(5) 0.2550(2) 0.3170(2)
O7 O 0.5764(6) 0.1334(2) 0.1976(3)
O8 O 0.2152(5) 0.4260(2) 0.1642(2)
O9 O 0.5000 0.4265(3) 0.2500
O10 O 0.4551(6) 0.4497(2) 0.1039(3)
O11 O 0.3731(5) 0.3582(2) 0.3336(2)
N1 N 0.0295(7) 0.1486(3) 0.0353(3)
N2 N 0.2703(7) 0.0905(3) 0.0891(3)
N3 N 0.4447(7) 0.1003(3) -0.0001(3)
C1 C -0.0891(9) 0.1785(4) 0.0030(4)
H1 H -0.0852 0.1936 -0.0403
C2 C -0.2224(9) 0.1886(3) 0.0312(4)
H2 H -0.3071 0.2086 0.0059
C3 C -0.2269(9) 0.1691(4) 0.0961(4)
H3 H -0.3120 0.1772 0.1165
C4 C -0.1019(9) 0.1368(4) 0.1308(4)
H4 H -0.1009 0.1230 0.1751
C5 C 0.0206(9) 0.1257(3) 0.0979(4)
C6 C 0.1551(8) 0.0877(3) 0.1265(4)
C7 C 0.1667(10) 0.0486(4) 0.1802(4)
H5 H 0.0875 0.0460 0.2055
C8 C 0.2970(9) 0.0136(4) 0.1957(4)
H6 H 0.3060 -0.0128 0.2315
C9 C 0.4142(9) 0.0182(3) 0.1576(4)
H7 H 0.5036 -0.0044 0.1681
C10 C 0.3961(9) 0.0571(3) 0.1035(4)
C11 C 0.5007(8) 0.0643(3) 0.0531(4)
C12 C 0.6443(9) 0.0362(3) 0.0590(4)
H8 H 0.6825 0.0126 0.0965
C13 C 0.7287(9) 0.0449(3) 0.0062(4)
H9 H 0.8235 0.0261 0.0078
C14 C 0.6717(8) 0.0810(3) -0.0478(4)
H10 H 0.7268 0.0867 -0.0831
C15 C 0.5299(9) 0.1089(3) -0.0487(4)
H11 H 0.4931 0.1344 -0.0844
C16 C 0.1339(8) 0.2818(3) 0.2892(4)
H12 H 0.1221 0.2437 0.2692
H13 H 0.1211 0.2785 0.3368
C17 C 0.0000 0.3195(5) 0.2500
H14 H -0.0394 0.3438 0.2825
H15 H 0.0394 0.3438 0.2175
C16F C -0.1339(8) 0.2818(3) 0.2108(4)
P1F P -0.3292(2) 0.30540(9) 0.21026(10)
O5F O -0.3338(5) 0.3198(2) 0.2872(2)
O6F O -0.4384(5) 0.2550(2) 0.1830(2)
O11F O -0.3731(5) 0.3582(2) 0.1664(2)
H12F H -0.1221 0.2437 0.2308
H13F H -0.1211 0.2785 0.1632
O2F O 0.6930(5) 0.2030(2) 0.3079(2)
O7F O 0.4236(6) 0.1334(2) 0.3024(3)
Mo2F Mo 0.70364(7) 0.26067(3) 0.37711(3)
Mo3F Mo -0.39990(7) 0.40221(3) 0.34016(3)
O1F O 0.6525(5) 0.2211(2) 0.4426(2)
O3F O 0.9014(5) 0.2649(2) 0.3980(2)
O4F O 0.6610(5) 0.3385(2) 0.4099(2)
O8F O -0.2152(5) 0.4260(2) 0.3358(2)
O10F O -0.4551(6) 0.4497(2) 0.3961(3)
Cu1F Cu 0.76624(10) 0.13593(4) 0.49467(5)
N1F N 0.9705(7) 0.1486(3) 0.4647(3)
N2F N 0.7297(7) 0.0905(3) 0.4109(3)
N3F N 0.5553(7) 0.1003(3) 0.5001(3)
C1F C 1.0891(9) 0.1785(4) 0.4970(4)
H1F H 1.0852 0.1936 0.5403
C2F C 1.2224(9) 0.1886(3) 0.4688(4)
H2F H 1.3071 0.2086 0.4941
C3F C 1.2269(9) 0.1691(4) 0.4039(4)
H3F H 1.3120 0.1772 0.3835
C4F C 1.1019(9) 0.1368(4) 0.3692(4)
H4F H 1.1009 0.1230 0.3249
C5F C 0.9794(9) 0.1257(3) 0.4021(4)
C6F C 0.8449(8) 0.0877(3) 0.3735(4)
C7F C 0.8333(10) 0.0486(4) 0.3198(4)
H5F H 0.9125 0.0460 0.2945
C8F C 0.7030(9) 0.0136(4) 0.3043(4)
H6F H 0.6940 -0.0128 0.2685
C9F C 0.5858(9) 0.0182(3) 0.3424(4)
H7F H 0.4964 -0.0044 0.3319
C10F C 0.6039(9) 0.0571(3) 0.3965(4)
C11F C 0.4993(8) 0.0643(3) 0.4469(4)
C12F C 0.3557(9) 0.0362(3) 0.4410(4)
H8F H 0.3175 0.0126 0.4035
C13F C 0.2713(9) 0.0449(3) 0.4938(4)
H9F H 0.1765 0.0261 0.4922
C14F C 0.3283(8) 0.0810(3) 0.5478(4)
H10F H 0.2732 0.0867 0.5831
C15F C 0.4701(9) 0.1089(3) 0.5487(4)
H11F H 0.5069 0.1344 0.5844
O6F_2 O 0.5616(5) 0.2550(2) 0.1830(2)
O11F_2 O 0.6269(5) 0.3582(2) 0.1664(2)
O4E O 0.1610(5) 0.1615(2) -0.0901(2)
Cu1E Cu 0.26624(10) 0.36407(4) -0.00533(5)
Mo3F_2 Mo 0.60010(7) 0.40221(3) 0.34016(3)
Mo2F_2 Mo -0.29636(7) 0.26067(3) 0.37711(3)
Mo1_2 Mo -0.5000 0.17841(4) 0.2500
Mo2_2 Mo -0.70364(7) 0.26067(3) 0.12289(3)
Mo3_2 Mo -0.60010(7) 0.40221(3) 0.15984(3)
O5F_2 O 0.6662(5) 0.3198(2) 0.2872(2)
O4F_2 O -0.3390(5) 0.3385(2) 0.4099(2)
O9_2 O -0.5000 0.4265(3) 0.2500
O11_2 O -0.6269(5) 0.3582(2) 0.3336(2)
Cu1C Cu 0.73376(10) 0.36407(4) 0.50533(5)
O4C O 0.8390(5) 0.1615(2) 0.5901(2)
loop_
_geom_bond_atom_site_label_1
_geom_bond_atom_site_label_2
_geom_bond_site_symmetry_1
_geom_bond_site_symmetry_2
Mo1 O2 1_555 1_555
Mo2 O1 1_555 1_555
Mo3 O4 1_555 1_555
Cu1 O1 1_555 1_555
P1 O5 1_555 1_555
O2 Mo2 1_555 1_555
O3 Mo2 1_555 1_555
O4 Mo2 1_555 1_555
O5 Mo2 1_555 1_555
O6 Mo1 1_555 1_555
O7 Mo1 1_555 1_555
O8 Mo3 1_555 1_555
O9 Mo3 1_555 1_555
O10 Mo3 1_555 1_555
O11 P1 1_555 1_555
N1 Cu1 1_555 1_555
N2 Cu1 1_555 1_555
N3 Cu1 1_555 1_555
C1 N1 1_555 1_555
H1 C1 1_555 1_555
C2 C1 1_555 1_555
H2 C2 1_555 1_555
C3 C2 1_555 1_555
H3 C3 1_555 1_555
C4 C3 1_555 1_555
H4 C4 1_555 1_555
C5 N1 1_555 1_555
C6 N2 1_555 1_555
C7 C6 1_555 1_555
H5 C7 1_555 1_555
C8 C7 1_555 1_555
H6 C8 1_555 1_555
C9 C8 1_555 1_555
H7 C9 1_555 1_555
C10 N2 1_555 1_555
C11 N3 1_555 1_555
C12 C11 1_555 1_555
H8 C12 1_555 1_555
C13 C12 1_555 1_555
H9 C13 1_555 1_555
C14 C13 1_555 1_555
H10 C14 1_555 1_555
C15 N3 1_555 1_555
H11 C15 1_555 1_555
C16 P1 1_555 1_555
H12 C16 1_555 1_555
H13 C16 1_555 1_555
C17 C16 1_555 1_555
H14 C17 1_555 1_555
H15 C17 1_555 1_555
C16F C17 1_555 1_555
P1F C16F 1_555 1_555
O5F P1F 1_555 1_555
O6F P1F 1_555 1_555
O11F P1F 1_555 1_555
H12F C16F 1_555 1_555
H13F C16F 1_555 1_555
O2F Mo1 1_555 1_555
O7F Mo1 1_555 1_555
Mo2F O6 1_555 1_555
Mo3F O5F 1_555 1_555
O1F Mo2F 1_555 1_555
O3F Mo2F 1_555 1_555
O4F Mo2F 1_555 1_555
O8F Mo3F 1_555 1_555
O10F Mo3F 1_555 1_555
Cu1F O1F 1_555 1_555
N1F Cu1F 1_555 1_555
N2F Cu1F 1_555 1_555
N3F Cu1F 1_555 1_555
C1F N1F 1_555 1_555
H1F C1F 1_555 1_555
C2F C1F 1_555 1_555
H2F C2F 1_555 1_555
C3F C2F 1_555 1_555
H3F C3F 1_555 1_555
C4F C3F 1_555 1_555
H4F C4F 1_555 1_555
C5F N1F 1_555 1_555
C6F N2F 1_555 1_555
C7F C6F 1_555 1_555
H5F C7F 1_555 1_555
C8F C7F 1_555 1_555
H6F C8F 1_555 1_555
C9F C8F 1_555 1_555
H7F C9F 1_555 1_555
C10F N2F 1_555 1_555
C11F N3F 1_555 1_555
C12F C11F 1_555 1_555
H8F C12F 1_555 1_555
C13F C12F 1_555 1_555
H9F C13F 1_555 1_555
C14F C13F 1_555 1_555
H10F C14F 1_555 1_555
C15F N3F 1_555 1_555
H11F C15F 1_555 1_555
O6F_2 Mo1 1_555 1_555
O11F_2 Mo3 1_555 1_555
O4E Cu1 1_555 1_555
Cu1E O4 1_555 1_555
Mo3F_2 O9 1_555 1_555
Mo2F_2 O5F 1_555 1_555
Mo1_2 O6F 1_555 1_555
Mo2_2 O6F 1_555 1_555
Mo3_2 O11F 1_555 1_555
O5F_2 Mo2F 1_555 1_555
O4F_2 Mo3F 1_555 1_555
O9_2 Mo3F 1_555 1_555
O11_2 Mo3F 1_555 1_555
Cu1C O4F 1_555 1_555
O4C Cu1F 1_555 1_555
Mo2 O6F_2 1_555 1_555
Mo3 O5 1_555 1_555
P1 O6 1_555 1_555
O11 Mo3F_2 1_555 1_555
C4 C5 1_555 1_555
C5 C6 1_555 1_555
C9 C10 1_555 1_555
C10 C11 1_555 1_555
C14 C15 1_555 1_555
O2F Mo2F 1_555 1_555
O4F Mo3F_2 1_555 1_555
C4F C5F 1_555 1_555
C5F C6F 1_555 1_555
C9F C10F 1_555 1_555
C10F C11F 1_555 1_555
C14F C15F 1_555 1_555
Mo3F_2 O5F_2 1_555 1_555
Mo2F_2 O4F_2 1_555 1_555
Mo3_2 O9_2 1_555 1_555

#END
