
#######################################################################
#
#                 Cambridge Crystallographic Data Centre
#                                CCDC 
#
#######################################################################
#
# If this CIF has been generated from an entry in the Cambridge 
# Structural Database, then it will include bibliographic, chemical, 
# crystal, experimental, refinement or atomic coordinate data resulting 
# from the CCDC's data processing and validation procedures.
#
#######################################################################

data_EFUWOR
_symmetry_cell_setting           triclinic
_symmetry_space_group_name_H-M   'P -1'
_symmetry_Int_Tables_number      2
_space_group_name_Hall           '-P 1'
loop_
_symmetry_equiv_pos_site_id
_symmetry_equiv_pos_as_xyz
1 x,y,z
2 -x,-y,-z
_cell_length_a                   7.3602(3)
_cell_length_b                   7.6246(3)
_cell_length_c                   10.6886(3)
_cell_angle_alpha                97.119(3)
_cell_angle_beta                 102.357(3)
_cell_angle_gamma                117.8352(17)
_cell_volume                     500.436
loop_
_atom_site_label
_atom_site_type_symbol
_atom_site_fract_x
_atom_site_fract_y
_atom_site_fract_z
Mn1 Mn 0.0000 0.5000 0.0000
Cu1 Cu 0.5000 0.5000 0.5000
N1 N 0.2378(3) 0.6586(3) 0.20125(17)
N2 N 0.5499(3) 0.8088(2) 0.39966(16)
N3 N 0.8695(3) 1.1554(3) 0.4720(2)
N4 N -0.1637(3) 0.2161(2) 0.06938(17)
N5 N -0.2856(4) -0.1123(3) 0.1249(2)
N6 N -0.1977(3) -0.3723(3) 0.0559(2)
N7 N 0.2435(2) 0.2929(2) 0.34280(15)
N8 N 0.6755(2) 0.4462(3) 0.39671(16)
C1 C 0.3900(3) 0.7410(2) 0.29120(17)
C2 C 0.7167(3) 0.9951(3) 0.43196(18)
C3 C -0.2179(3) 0.0586(3) 0.09027(17)
C4 C -0.2346(3) -0.2458(3) 0.08469(17)
C5 C 0.3150(3) 0.1798(3) 0.26367(19)
C6 C 0.5346(3) 0.3319(4) 0.2588(2)
H1 H 0.193(4) 0.343(4) 0.293(3)
H2 H 0.143(4) 0.214(3) 0.370(2)
H3 H 0.724(4) 0.374(4) 0.436(2)
H4 H 0.780(4) 0.556(4) 0.397(2)
H5 H 0.209(4) 0.106(3) 0.173(2)
H6 H 0.326(4) 0.083(4) 0.314(2)
H7 H 0.521(4) 0.428(4) 0.205(2)
H8 H 0.590(4) 0.261(4) 0.216(2)
N1A N -0.2378(3) 0.3414(3) -0.20125(17)
N2A N -0.5499(3) 0.1912(2) -0.39966(16)
N3A N -0.8695(3) -0.1554(3) -0.4720(2)
C1A C -0.3900(3) 0.2590(2) -0.29120(17)
C2A C -0.7167(3) 0.0049(3) -0.43196(18)
N4A N 0.1637(3) 0.7839(2) -0.06938(17)
N5A N 0.2856(4) 1.1123(3) -0.1249(2)
N6A N 0.1977(3) 1.3723(3) -0.0559(2)
C3A C 0.2179(3) 0.9414(3) -0.09027(17)
C4A C 0.2346(3) 1.2458(3) -0.08469(17)
N7A N 0.7565(2) 0.7071(2) 0.65720(15)
N8A N 0.3245(2) 0.5538(3) 0.60329(16)
C5A C 0.6850(3) 0.8202(3) 0.73633(19)
C6A C 0.4654(3) 0.6681(4) 0.7412(2)
H1A H 0.807(4) 0.657(4) 0.707(3)
H2A H 0.857(4) 0.786(3) 0.630(2)
H3A H 0.276(4) 0.626(4) 0.564(2)
H4A H 0.220(4) 0.444(4) 0.603(2)
H5A H 0.791(4) 0.894(3) 0.827(2)
H6A H 0.674(4) 0.917(4) 0.686(2)
H7A H 0.479(4) 0.572(4) 0.795(2)
H8A H 0.410(4) 0.739(4) 0.784(2)
N6_2 N -0.1977(3) 0.6277(3) 0.0559(2)
N6A_2 N 0.1977(3) 0.3723(3) -0.0559(2)
N2A_2 N 0.4501(3) 0.1912(2) 0.60034(16)
Mn1_2 Mn 0.0000 -0.5000 0.0000
Cu1_2 Cu -0.5000 0.5000 -0.5000
Mn1_3 Mn 0.0000 1.5000 0.0000
loop_
_geom_bond_atom_site_label_1
_geom_bond_atom_site_label_2
_geom_bond_site_symmetry_1
_geom_bond_site_symmetry_2
Mn1 N1 1_555 1_555
Cu1 N2 1_555 1_555
N1 C1 1_555 1_555
N2 C1 1_555 1_555
N3 C2 1_555 1_555
N4 Mn1 1_555 1_555
N5 C3 1_555 1_555
N6 C4 1_555 1_555
N7 Cu1 1_555 1_555
N8 Cu1 1_555 1_555
C2 N2 1_555 1_555
C3 N4 1_555 1_555
C4 N5 1_555 1_555
C5 N7 1_555 1_555
C6 N8 1_555 1_555
H1 N7 1_555 1_555
H2 N7 1_555 1_555
H3 N8 1_555 1_555
H4 N8 1_555 1_555
H5 C5 1_555 1_555
H6 C5 1_555 1_555
H7 C6 1_555 1_555
H8 C6 1_555 1_555
N1A Mn1 1_555 1_555
N2A C1A 1_555 1_555
N3A C2A 1_555 1_555
C1A N1A 1_555 1_555
C2A N2A 1_555 1_555
N4A Mn1 1_555 1_555
N5A C3A 1_555 1_555
N6A C4A 1_555 1_555
C3A N4A 1_555 1_555
C4A N5A 1_555 1_555
N7A Cu1 1_555 1_555
N8A Cu1 1_555 1_555
C5A N7A 1_555 1_555
C6A N8A 1_555 1_555
H1A N7A 1_555 1_555
H2A N7A 1_555 1_555
H3A N8A 1_555 1_555
H4A N8A 1_555 1_555
H5A C5A 1_555 1_555
H6A C5A 1_555 1_555
H7A C6A 1_555 1_555
H8A C6A 1_555 1_555
N6_2 Mn1 1_555 1_555
N6A_2 Mn1 1_555 1_555
N2A_2 Cu1 1_555 1_555
Mn1_2 N6 1_555 1_555
Cu1_2 N2A 1_555 1_555
Mn1_3 N6A 1_555 1_555
C5 C6 1_555 1_555
C5A C6A 1_555 1_555

#END
