
#######################################################################
#
#                 Cambridge Crystallographic Data Centre
#                                CCDC 
#
#######################################################################
#
# If this CIF has been generated from an entry in the Cambridge 
# Structural Database, then it will include bibliographic, chemical, 
# crystal, experimental, refinement or atomic coordinate data resulting 
# from the CCDC's data processing and validation procedures.
#
#######################################################################

data_EFUWOS
_symmetry_cell_setting           monoclinic
_symmetry_space_group_name_H-M   'P 21/c'
_symmetry_Int_Tables_number      14
_space_group_name_Hall           '-P 2ybc'
loop_
_symmetry_equiv_pos_site_id
_symmetry_equiv_pos_as_xyz
1 x,y,z
2 -x,1/2+y,1/2-z
3 -x,-y,-z
4 x,1/2-y,1/2+z
_cell_length_a                   9.715(2)
_cell_length_b                   6.7533(15)
_cell_length_c                   9.044(2)
_cell_angle_alpha                90
_cell_angle_beta                 106.931(2)
_cell_angle_gamma                90
_cell_volume                     567.643
loop_
_atom_site_label
_atom_site_type_symbol
_atom_site_fract_x
_atom_site_fract_y
_atom_site_fract_z
Pb1 Pb -0.07038(3) 0.23325(4) -0.35808(3)
O1 O -0.3282(6) 0.1448(11) -0.3392(7)
O2 O -0.1425(5) 0.0473(8) -0.1468(5)
O3 O -0.0863(5) -0.3571(8) 0.0769(6)
O4 O -0.1655(5) -0.0958(8) 0.1757(5)
C1 C -0.2791(8) 0.0603(11) -0.2124(8)
C2 C -0.3774(7) -0.0365(12) -0.1314(9)
H1 H -0.4716 -0.0539 -0.2051
H2 H -0.3883 0.0514 -0.0507
C3 C -0.3237(10) -0.2371(10) -0.0596(10)
H3 H -0.3097 -0.3236 -0.1397
H4 H -0.3972 -0.2960 -0.0205
C4 C -0.1809(9) -0.2264(11) 0.0739(10)
Pb1B Pb 0.07038(3) -0.23325(4) 0.35808(3)
Pb1C Pb -0.07038(3) 0.26675(4) 0.14192(3)
Pb1C_2 Pb -0.07038(3) -0.73325(4) 0.14192(3)
O3B O 0.0863(5) 0.3571(8) -0.0769(6)
O3C O -0.0863(5) -0.1429(8) -0.4231(6)
O4B O 0.1655(5) 0.0958(8) -0.1757(5)
O4C O -0.1655(5) 0.5958(8) -0.3243(5)
loop_
_geom_bond_atom_site_label_1
_geom_bond_atom_site_label_2
_geom_bond_site_symmetry_1
_geom_bond_site_symmetry_2
Pb1 O1 1_555 1_555
O1 C1 1_555 1_555
O2 Pb1 1_555 1_555
O3 C4 1_555 1_555
O4 C4 1_555 1_555
C1 O2 1_555 1_555
C2 C1 1_555 1_555
H1 C2 1_555 1_555
H2 C2 1_555 1_555
C3 C2 1_555 1_555
H3 C3 1_555 1_555
H4 C3 1_555 1_555
C4 C3 1_555 1_555
Pb1B O3 1_555 1_555
Pb1C O4 1_555 1_555
Pb1C_2 O3 1_555 1_555
O3B Pb1 1_555 1_555
O3C Pb1 1_555 1_555
O4B Pb1 1_555 1_555
O4C Pb1 1_555 1_555
O4 Pb1B 1_555 1_555

#END
