
#######################################################################
#
#                 Cambridge Crystallographic Data Centre
#                                CCDC 
#
#######################################################################
#
# If this CIF has been generated from an entry in the Cambridge 
# Structural Database, then it will include bibliographic, chemical, 
# crystal, experimental, refinement or atomic coordinate data resulting 
# from the CCDC's data processing and validation procedures.
#
#######################################################################

data_EGADOF
_symmetry_cell_setting           monoclinic
_symmetry_space_group_name_H-M   'P 21/c'
_symmetry_Int_Tables_number      14
_space_group_name_Hall           '-P 2ybc'
loop_
_symmetry_equiv_pos_site_id
_symmetry_equiv_pos_as_xyz
1 x,y,z
2 -x,1/2+y,1/2-z
3 -x,-y,-z
4 x,1/2-y,1/2+z
_cell_length_a                   14.8703(9)
_cell_length_b                   19.2390(14)
_cell_length_c                   8.4894(7)
_cell_angle_alpha                90
_cell_angle_beta                 92.937(6)
_cell_angle_gamma                90
_cell_volume                     2425.54
loop_
_atom_site_label
_atom_site_type_symbol
_atom_site_fract_x
_atom_site_fract_y
_atom_site_fract_z
Ag1 Ag 0.73284(4) 0.71490(3) 0.33972(8)
N1 N 0.8121(4) 0.7985(3) 0.4493(7)
C1 C 0.8732(5) 0.7841(4) 0.5652(9)
H1 H 0.8852(5) 0.7377(4) 0.5888(9)
C2 C 0.9193(5) 0.8343(3) 0.6517(9)
H2 H 0.9604(5) 0.8217(3) 0.7330(9)
C3 C 0.9037(4) 0.9044(3) 0.6163(8)
C4 C 0.8388(5) 0.9192(3) 0.4981(9)
H3 H 0.8248(5) 0.9651(3) 0.4723(9)
C5 C 0.7950(5) 0.8653(4) 0.4191(9)
H4 H 0.7512(5) 0.8761(4) 0.3408(9)
N2 N 0.9533(4) 0.9581(3) 0.6969(7)
C6 C 1.0390(5) 0.9476(3) 0.7545(10)
H5 H 1.0658(5) 0.9046(3) 0.7399(10)
C7 C 1.0863(5) 0.9975(4) 0.8317(11)
H6 H 1.1438(5) 0.9867(4) 0.8725(11)
C8 C 1.0535(5) 1.0660(4) 0.8550(10)
O1 O 1.0957(4) 1.1122(3) 0.9253(9)
C9 C 0.9627(5) 1.0749(4) 0.7857(11)
H7 H 0.9354(5) 1.1182(4) 0.7933(11)
C10 C 0.9176(5) 1.0246(4) 0.7130(10)
H8 H 0.8599(5) 1.0337(4) 0.6707(10)
N3 N 0.6853(4) 0.6075(3) 0.3087(8)
C11 C 0.7120(5) 0.5594(4) 0.4121(10)
H9 H 0.7617(5) 0.5694(4) 0.4793(10)
C12 C 0.6710(5) 0.4952(4) 0.4274(10)
H10 H 0.6924(5) 0.4626(4) 0.5010(10)
C13 C 0.5961(4) 0.4820(3) 0.3267(7)
C14 C 0.5687(5) 0.5305(3) 0.2177(9)
H11 H 0.5196(5) 0.5222(3) 0.1481(9)
C15 C 0.6154(6) 0.5922(4) 0.2127(9)
H12 H 0.5967(6) 0.6249(4) 0.1374(9)
N4 N 0.5474(4) 0.4181(2) 0.3390(6)
C16 C 0.5406(5) 0.3847(3) 0.4810(8)
H13 H 0.5740(5) 0.4011(3) 0.5688(8)
C17 C 0.4881(5) 0.3297(4) 0.4968(9)
H14 H 0.4865(5) 0.3085(4) 0.5950(9)
C18 C 0.4336(5) 0.3019(3) 0.3669(8)
O2 O 0.3774(4) 0.2540(3) 0.3842(6)
C19 C 0.4476(5) 0.3349(3) 0.2201(8)
H15 H 0.4181(5) 0.3177(3) 0.1290(8)
C20 C 0.5016(5) 0.3897(3) 0.2091(8)
H16 H 0.5087(5) 0.4095(3) 0.1105(8)
O2A O 0.6226(4) 0.7540(3) 0.1158(6)
Ag1A Ag 0.26716(4) 0.21490(3) 0.16028(8)
Cl1 Cl 0.31340(13) 0.58340(10) 0.1188(2)
O3 O 0.3415(7) 0.5150(4) 0.1616(12)
O4 O 0.3884(5) 0.6293(5) 0.1257(11)
O5 O 0.2550(7) 0.6064(5) 0.2284(14)
O6 O 0.2738(8) 0.5825(5) -0.0307(11)
C21 C 0.2202(8) -0.2320(6) -0.0119(16)
H17 H 0.2404(8) -0.2126(6) -0.1095(16)
H18 H 0.2496(8) -0.2766(6) 0.0046(16)
Cl2 Cl 0.2524(2) -0.1766(2) 0.1435(4)
Cl3 Cl 0.1049(3) -0.2443(3) -0.0295(6)
loop_
_geom_bond_atom_site_label_1
_geom_bond_atom_site_label_2
_geom_bond_site_symmetry_1
_geom_bond_site_symmetry_2
Ag1 N1 1_555 1_555
N1 C1 1_555 1_555
C1 H1 1_555 1_555
C2 C1 1_555 1_555
H2 C2 1_555 1_555
C3 C2 1_555 1_555
C4 C3 1_555 1_555
H3 C4 1_555 1_555
C5 N1 1_555 1_555
H4 C5 1_555 1_555
N2 C3 1_555 1_555
C6 N2 1_555 1_555
H5 C6 1_555 1_555
C7 C6 1_555 1_555
H6 C7 1_555 1_555
C8 C7 1_555 1_555
O1 C8 1_555 1_555
C9 C8 1_555 1_555
H7 C9 1_555 1_555
C10 N2 1_555 1_555
H8 C10 1_555 1_555
N3 Ag1 1_555 1_555
C11 N3 1_555 1_555
H9 C11 1_555 1_555
C12 C11 1_555 1_555
H10 C12 1_555 1_555
C13 C12 1_555 1_555
C14 C13 1_555 1_555
H11 C14 1_555 1_555
C15 N3 1_555 1_555
H12 C15 1_555 1_555
N4 C13 1_555 1_555
C16 N4 1_555 1_555
H13 C16 1_555 1_555
C17 C16 1_555 1_555
H14 C17 1_555 1_555
C18 C17 1_555 1_555
O2 C18 1_555 1_555
C19 C18 1_555 1_555
H15 C19 1_555 1_555
C20 N4 1_555 1_555
H16 C20 1_555 1_555
Cl1 O3 1_555 1_555
O4 Cl1 1_555 1_555
O5 Cl1 1_555 1_555
O6 Cl1 1_555 1_555
C21 H17 1_555 1_555
H18 C21 1_555 1_555
Cl2 C21 1_555 1_555
Cl3 C21 1_555 1_555
O2A Ag1 1_555 1_555
Ag1A O2 1_555 1_555
C4 C5 1_555 1_555
C9 C10 1_555 1_555
C14 C15 1_555 1_555
C19 C20 1_555 1_555

#END
