
#######################################################################
#
#                 Cambridge Crystallographic Data Centre
#                                CCDC 
#
#######################################################################
#
# If this CIF has been generated from an entry in the Cambridge 
# Structural Database, then it will include bibliographic, chemical, 
# crystal, experimental, refinement or atomic coordinate data resulting 
# from the CCDC's data processing and validation procedures.
#
#######################################################################

data_EGANEF
_symmetry_cell_setting           monoclinic
_symmetry_space_group_name_H-M   'P 21/n'
_symmetry_Int_Tables_number      14
_space_group_name_Hall           '-P 2yn'
loop_
_symmetry_equiv_pos_site_id
_symmetry_equiv_pos_as_xyz
1 x,y,z
2 1/2+x,1/2-y,1/2+z
3 -x,-y,-z
4 1/2-x,1/2+y,1/2-z
_cell_length_a                   6.8171(13)
_cell_length_b                   22.535(4)
_cell_length_c                   11.320(2)
_cell_angle_alpha                90
_cell_angle_beta                 92.777(4)
_cell_angle_gamma                90
_cell_volume                     1736.97
loop_
_atom_site_label
_atom_site_type_symbol
_atom_site_fract_x
_atom_site_fract_y
_atom_site_fract_z
Cd1 Cd 0.83268(3) 0.115587(8) 0.125385(17)
Fe1 Fe 0.53054(5) -0.083120(16) 0.29941(3)
C1 C 0.6715(4) 0.22994(13) -0.0024(3)
H1 H 0.6869 0.2693 -0.0332
H2 H 0.5848 0.2084 -0.0563
C2 C 0.5833(4) 0.23284(13) 0.1174(3)
H3 H 0.4622 0.2546 0.1105
H4 H 0.6715 0.2540 0.1709
C3 C 0.5470(5) 0.17476(17) 0.2984(3)
H5 H 0.4479 0.2019 0.3225
H6 H 0.5138 0.1360 0.3264
C4 C 0.7445(5) 0.19272(17) 0.3564(3)
H7 H 0.7459 0.1832 0.4391
H8 H 0.7581 0.2350 0.3495
C5 C 0.3527(4) 0.15180(13) 0.1180(3)
H9 H 0.2508 0.1757 0.1493
H10 H 0.3479 0.1574 0.0338
C6 C 0.3091(4) 0.08713(13) 0.1434(3)
H11 H 0.2967 0.0816 0.2268
H12 H 0.4152 0.0628 0.1188
C7 C 0.6668(4) -0.00973(13) 0.2668(2)
C8 C 0.6002(4) 0.07688(12) -0.1430(2)
C9 C 0.4435(4) -0.16443(13) 0.3112(3)
C10 C 0.7481(4) -0.11956(13) 0.2216(2)
C11 C 0.6942(5) -0.09355(13) 0.4435(3)
N1 N 0.8630(4) 0.20003(11) 0.0075(2)
H13 H 0.9009 0.1896 -0.0647
H14 H 0.9539 0.2247 0.0405
N2 N 0.5447(3) 0.17335(10) 0.16718(19)
N3 N 0.9133(4) 0.16427(14) 0.3041(2)
H15 H 1.0052 0.1919 0.2915
H16 H 0.9659 0.1378 0.3561
N4 N 0.1256(3) 0.06965(11) 0.0787(2)
H17 H 0.0593 0.0964 0.0332
H18 H 0.0795 0.0324 0.0846
N5 N 0.7478(4) 0.03220(12) 0.2393(3)
N6 N 0.6799(4) 0.07261(12) -0.0517(2)
N7 N 0.3987(4) -0.21367(12) 0.3161(3)
N8 N 0.8747(5) -0.14108(15) 0.1753(3)
N9 N 0.7867(5) -0.09942(16) 0.5285(3)
N10 N 0.3407(4) -0.05568(12) 0.3682(2)
O1 O 0.2076(5) -0.03978(17) 0.4141(4)
N4_2 N 1.1256(3) 0.06965(11) 0.0787(2)
C8B C 0.3998(4) -0.07688(12) 0.1430(2)
Fe1B Fe 0.46946(5) 0.083120(16) -0.29941(3)
Cd1_2 Cd -0.16732(3) 0.115587(8) 0.125385(17)
H17_2 H 1.0593 0.0964 0.0332
H18_2 H 1.0795 0.0324 0.0846
loop_
_geom_bond_atom_site_label_1
_geom_bond_atom_site_label_2
_geom_bond_site_symmetry_1
_geom_bond_site_symmetry_2
Cd1 N1 1_555 1_555
Fe1 C7 1_555 1_555
C1 H1 1_555 1_555
H2 C1 1_555 1_555
C2 C1 1_555 1_555
H3 C2 1_555 1_555
H4 C2 1_555 1_555
C3 H5 1_555 1_555
H6 C3 1_555 1_555
C4 C3 1_555 1_555
H7 C4 1_555 1_555
H8 C4 1_555 1_555
C5 H9 1_555 1_555
H10 C5 1_555 1_555
C6 C5 1_555 1_555
H11 C6 1_555 1_555
H12 C6 1_555 1_555
C7 N5 1_555 1_555
C8 N6 1_555 1_555
C9 Fe1 1_555 1_555
C10 Fe1 1_555 1_555
C11 Fe1 1_555 1_555
N1 C1 1_555 1_555
H13 N1 1_555 1_555
H14 N1 1_555 1_555
N2 Cd1 1_555 1_555
N3 Cd1 1_555 1_555
H15 N3 1_555 1_555
H16 N3 1_555 1_555
N4 C6 1_555 1_555
H17 N4 1_555 1_555
H18 N4 1_555 1_555
N5 Cd1 1_555 1_555
N6 Cd1 1_555 1_555
N7 C9 1_555 1_555
N8 C10 1_555 1_555
N9 C11 1_555 1_555
N10 Fe1 1_555 1_555
O1 N10 1_555 1_555
N4_2 Cd1 1_555 1_555
C8B Fe1 1_555 1_555
Fe1B C8 1_555 1_555
Cd1_2 N4 1_555 1_555
H17_2 N4_2 1_555 1_555
H18_2 N4_2 1_555 1_555
C2 N2 1_555 1_555
C3 N2 1_555 1_555
C4 N3 1_555 1_555
C5 N2 1_555 1_555

#END
