
#######################################################################
#
#                 Cambridge Crystallographic Data Centre
#                                CCDC 
#
#######################################################################
#
# If this CIF has been generated from an entry in the Cambridge 
# Structural Database, then it will include bibliographic, chemical, 
# crystal, experimental, refinement or atomic coordinate data resulting 
# from the CCDC's data processing and validation procedures.
#
#######################################################################

data_EGATOX
_symmetry_cell_setting           monoclinic
_symmetry_space_group_name_H-M   'P 21/c'
_symmetry_Int_Tables_number      14
_space_group_name_Hall           '-P 2ybc'
loop_
_symmetry_equiv_pos_site_id
_symmetry_equiv_pos_as_xyz
1 x,y,z
2 -x,1/2+y,1/2-z
3 -x,-y,-z
4 x,1/2-y,1/2+z
_cell_length_a                   22.200(3)
_cell_length_b                   10.0714(15)
_cell_length_c                   21.147(3)
_cell_angle_alpha                90
_cell_angle_beta                 110.948(2)
_cell_angle_gamma                90
_cell_volume                     4415.65
loop_
_atom_site_label
_atom_site_type_symbol
_atom_site_fract_x
_atom_site_fract_y
_atom_site_fract_z
Co1 Co 0.545080(19) 0.55826(4) 1.21219(2)
O1 O 0.46499(10) 0.4440(2) 1.19664(11)
O2 O 0.39607(11) 0.6022(3) 1.20138(13)
O3 O 0.51177(11) 0.6782(2) 1.27572(11)
H1 H 0.4706(9) 0.677(3) 1.2536(14)
H2 H 0.5228(13) 0.756(2) 1.2857(15)
O4 O 0.69511(11) 0.1120(2) 1.05444(11)
O5 O 0.15742(11) 0.4043(2) 0.83586(11)
O6 O 0.19935(11) 0.4504(2) 0.75613(12)
H3 H 0.1593(10) 0.466(3) 0.7317(15)
O7 O 0.60646(10) 0.7067(2) 1.20077(10)
O8 O 0.50715(10) 0.71557(19) 1.12750(10)
N1 N 0.57510(11) 0.4265(2) 1.14751(13)
N2 N 0.61926(12) 0.1838(2) 0.95648(13)
H4 H 0.5803(9) 0.217(3) 0.9406(14)
N3 N 0.61532(12) 0.0171(2) 0.80194(12)
C1 C 0.72446(15) 0.0273(3) 0.87645(16)
H5 H 0.7686 0.0082 0.8848
C2 C 0.56267(15) 0.7661(3) 1.15401(15)
C3 C 0.57850(16) 0.9022(3) 1.13376(17)
H6 H 0.5756 0.9671 1.1677
H7 H 0.6239 0.9013 1.1362
C4 C 0.53690(15) 0.9516(3) 1.06448(16)
C5 C 0.49621(15) 1.0603(3) 1.05714(16)
H8 H 0.4928 1.1016 1.0961
C6 C 0.53920(15) 0.8917(3) 1.00662(17)
H9 H 0.5657 0.8157 1.0107
C7 C 0.40789(16) 0.4888(4) 1.18783(16)
C8 C 0.35301(15) 0.3908(3) 1.15770(16)
H10 H 0.3680 0.3004 1.1745
H11 H 0.3169 0.4140 1.1728
C9 C 0.32919(14) 0.3914(3) 1.08110(16)
C10 C 0.28711(15) 0.3963(4) 0.93892(18)
C11 C 0.20334(17) 0.4204(3) 0.81872(17)
C12 C 0.28057(15) 0.5065(3) 0.97498(17)
H12 H 0.2612 0.5846 0.9512
C13 C 0.30160(15) 0.5052(3) 1.04480(17)
H13 H 0.2972 0.5828 1.0684
C14 C 0.61011(15) 0.3168(3) 1.17160(16)
H14 H 0.6193 0.2931 1.2176
C15 C 0.63322(15) 0.2371(3) 1.13245(16)
H15 H 0.6587 0.1615 1.1519
C16 C 0.61927(14) 0.2671(3) 1.06475(15)
C17 C 0.64792(15) 0.1799(3) 1.02480(16)
C18 C 0.64247(15) 0.1163(3) 0.91156(16)
C19 C 0.59874(15) 0.0780(3) 0.84937(15)
H16 H 0.5544 0.0962 0.8398
C20 C 0.70704(15) 0.0899(3) 0.92520(16)
H17 H 0.7387 0.1144 0.9674
C21 C 0.58290(14) 0.3794(3) 1.03959(16)
H18 H 0.5720 0.4038 0.9934
C22 C 0.56266(15) 0.4556(3) 1.08227(16)
H19 H 0.5384 0.5334 1.0644
C23 C 0.67790(15) -0.0078(3) 0.81540(16)
H20 H 0.6906 -0.0506 0.7821
C24 C 0.33232(16) 0.2799(3) 1.04482(19)
H21 H 0.3491 0.1998 1.0682
C25 C 0.31159(16) 0.2822(4) 0.97493(19)
H22 H 0.3143 0.2036 0.9512
C26 C 0.27275(16) 0.4053(4) 0.86382(17)
H23 H 0.2970 0.4818 0.8556
H24 H 0.2899 0.3243 0.8497
O7B O 0.39354(10) 1.2933(2) 0.79923(10)
O8B O 0.49285(10) 1.28443(19) 0.87250(10)
C2B C 0.43733(15) 1.2339(3) 0.84599(15)
C3B C 0.42150(16) 1.0978(3) 0.86624(17)
H6B H 0.4244 1.0329 0.8323
H7B H 0.3761 1.0987 0.8638
C4B C 0.46310(15) 1.0484(3) 0.93552(16)
C5B C 0.50379(15) 0.9397(3) 0.94286(16)
H8B H 0.5072 0.8984 0.9039
C6B C 0.46080(15) 1.1083(3) 0.99338(17)
H9B H 0.4343 1.1843 0.9893
Co1B Co 0.454920(19) 1.44174(4) 0.78781(2)
O1B O 0.53501(10) 1.5560(2) 0.80336(11)
O2B O 0.60393(11) 1.3978(3) 0.79862(13)
O3B O 0.48823(11) 1.3218(2) 0.72428(11)
H1B H 0.5294(9) 1.323(3) 0.7464(14)
H2B H 0.4772(13) 1.244(2) 0.7143(15)
O4B O 0.30489(11) 1.8880(2) 0.94556(11)
O5B O 0.84258(11) 1.5957(2) 1.16414(11)
O6B O 0.80065(11) 1.5496(2) 1.24387(12)
H3B H 0.8407(10) 1.534(3) 1.2683(15)
N1B N 0.42490(11) 1.5735(2) 0.85249(13)
N2B N 0.38074(12) 1.8162(2) 1.04352(13)
H4B H 0.4197(9) 1.783(3) 1.0594(14)
N3B N 0.38468(12) 1.9829(2) 1.19806(12)
C1B C 0.27554(15) 1.9727(3) 1.12355(16)
H5B H 0.2314 1.9918 1.1152
C7B C 0.59211(16) 1.5112(4) 0.81217(16)
C8B C 0.64699(15) 1.6092(3) 0.84230(16)
H10B H 0.6320 1.6996 0.8255
H11B H 0.6831 1.5860 0.8272
C9B C 0.67081(14) 1.6086(3) 0.91890(16)
C10B C 0.71289(15) 1.6037(4) 1.06108(18)
C11B C 0.79666(17) 1.5796(3) 1.18128(17)
C12B C 0.71943(15) 1.4935(3) 1.02502(17)
H12B H 0.7388 1.4154 1.0488
C13B C 0.69840(15) 1.4948(3) 0.95520(17)
H13B H 0.7028 1.4172 0.9316
C14B C 0.38989(15) 1.6832(3) 0.82840(16)
H14B H 0.3807 1.7069 0.7824
C15B C 0.36678(15) 1.7629(3) 0.86755(16)
H15B H 0.3413 1.8385 0.8481
C16B C 0.38073(14) 1.7329(3) 0.93525(15)
C17B C 0.35208(15) 1.8201(3) 0.97520(16)
C18B C 0.35753(15) 1.8837(3) 1.08844(16)
C19B C 0.40126(15) 1.9220(3) 1.15063(15)
H16B H 0.4456 1.9038 1.1602
C20B C 0.29296(15) 1.9101(3) 1.07480(16)
H17B H 0.2613 1.8856 1.0326
C21B C 0.41710(14) 1.6206(3) 0.96041(16)
H18B H 0.4280 1.5962 1.0066
C22B C 0.43734(15) 1.5444(3) 0.91773(16)
H19B H 0.4616 1.4666 0.9356
C23B C 0.32210(15) 2.0078(3) 1.18460(16)
H20B H 0.3094 2.0506 1.2179
C24B C 0.66768(16) 1.7201(3) 0.95518(19)
H21B H 0.6509 1.8002 0.9318
C25B C 0.68841(16) 1.7178(4) 1.02507(19)
H22B H 0.6857 1.7964 1.0488
C26B C 0.72725(16) 1.5947(4) 1.13618(17)
H23B H 0.7030 1.5182 1.1444
H24B H 0.7101 1.6757 1.1503
Co1A Co 0.454920(19) 2.05826(4) 1.28781(2)
Co1C Co 0.545080(19) -0.05826(4) 0.71219(2)
N3A N 0.38468(12) 1.5171(2) 0.69806(12)
N3C N 0.61532(12) 0.4829(2) 1.30194(12)
Co2 Co 0.03443(2) 0.53542(4) 0.32753(2)
O9 O -0.01221(10) 0.3477(2) 0.30013(11)
O10 O -0.08178(11) 0.4859(2) 0.31537(11)
O11 O -0.00854(10) 0.2972(2) 0.62421(10)
O12 O 0.20839(12) 0.3347(3) 0.12101(12)
O13 O -0.09783(11) 0.2811(2) 0.64444(12)
O14 O -0.01772(10) 0.6019(2) 0.22786(11)
H25 H -0.0575(9) 0.590(3) 0.2112(15)
H26 H -0.0081(14) 0.679(2) 0.2180(15)
N4 N 0.10999(12) 0.4658(2) 0.29595(12)
N5 N 0.12253(12) 0.2871(3) 0.15108(13)
H27 H 0.0827(10) 0.254(3) 0.1346(14)
N6 N 0.08011(12) 0.0582(2) -0.07484(12)
C27 C -0.06678(16) 0.3701(3) 0.30418(15)
C28 C -0.11192(15) 0.2554(3) 0.30040(15)
H28 H -0.1571 0.2833 0.2761
H29 H -0.1021 0.1808 0.2752
C29 C -0.10369(15) 0.2113(3) 0.37118(16)
C30 C -0.04239(16) 0.1842(3) 0.41812(16)
H30 H -0.0060 0.1905 0.4046
C31 C -0.03351(15) 0.1483(3) 0.48382(17)
H31 H 0.0089 0.1317 0.5149
C32 C -0.08543(16) 0.1362(3) 0.50524(16)
C33 C -0.15513(16) 0.1980(3) 0.39268(17)
H32 H -0.1976 0.2150 0.3619
C34 C -0.07492(16) 0.1074(3) 0.57876(16)
H33 H -0.1142 0.0662 0.5821
H34 H -0.0387 0.0443 0.5975
C35 C -0.05997(16) 0.2350(3) 0.61898(15)
C36 C 0.09637(15) 0.3992(3) 0.23779(15)
H35 H 0.0525 0.3795 0.2123
C37 C 0.14301(15) 0.3574(3) 0.21280(15)
C38 C 0.15680(16) 0.2805(3) 0.10934(17)
C39 C 0.12766(14) 0.2017(3) 0.04589(16)
C40 C 0.11324(15) 0.1723(3) -0.07020(16)
H36 H 0.1193 0.2046 -0.1097
C41 C 0.07162(15) 0.0161(3) -0.01854(15)
H37 H 0.0496 -0.0655 -0.0203
C42 C 0.09311(14) 0.0849(3) 0.04182(15)
H38 H 0.0845 0.0530 0.0800
C43 C 0.20702(15) 0.3834(3) 0.25057(16)
H39 H 0.2405 0.3547 0.2357
C44 C 0.22080(16) 0.4527(3) 0.31094(16)
H40 H 0.2643 0.4725 0.3379
C45 C 0.17178(15) 0.4923(3) 0.33153(16)
H41 H 0.1821 0.5405 0.3727
C46 C 0.13861(15) 0.2440(3) -0.01140(16)
H42 H 0.1633 0.3217 -0.0100
C47 C -0.14601(17) 0.1604(3) 0.45856(18)
H43 H -0.1824 0.1511 0.4718
Co2B Co -0.03443(2) 0.46458(4) 0.67247(2)
Co2C Co 0.03443(2) -0.03542(4) -0.17247(2)
O11B O 0.00854(10) 0.7028(2) 0.37579(10)
O13B O 0.09783(11) 0.7189(2) 0.35556(12)
N6C N 0.08011(12) 0.4418(2) 0.42516(12)
O15 O 0.2161(6) 0.7085(13) 0.8507(7)
loop_
_geom_bond_atom_site_label_1
_geom_bond_atom_site_label_2
_geom_bond_site_symmetry_1
_geom_bond_site_symmetry_2
Co1 O1 1_555 1_555
O1 C7 1_555 1_555
O2 C7 1_555 1_555
O3 Co1 1_555 1_555
H1 O3 1_555 1_555
H2 O3 1_555 1_555
O4 C17 1_555 1_555
O5 C11 1_555 1_555
O6 H3 1_555 1_555
O7 Co1 1_555 1_555
O8 Co1 1_555 1_555
N1 Co1 1_555 1_555
N2 H4 1_555 1_555
N3 C19 1_555 1_555
C1 H5 1_555 1_555
C2 O7 1_555 1_555
C3 C2 1_555 1_555
H6 C3 1_555 1_555
H7 C3 1_555 1_555
C4 C3 1_555 1_555
C5 C4 1_555 1_555
H8 C5 1_555 1_555
C6 C4 1_555 1_555
H9 C6 1_555 1_555
C7 C8 1_555 1_555
C8 H10 1_555 1_555
H11 C8 1_555 1_555
C9 C8 1_555 1_555
C10 C12 1_555 1_555
C11 O6 1_555 1_555
C12 H12 1_555 1_555
C13 C9 1_555 1_555
H13 C13 1_555 1_555
C14 N1 1_555 1_555
H14 C14 1_555 1_555
C15 C14 1_555 1_555
H15 C15 1_555 1_555
C16 C15 1_555 1_555
C17 N2 1_555 1_555
C18 N2 1_555 1_555
C19 C18 1_555 1_555
H16 C19 1_555 1_555
C20 C1 1_555 1_555
H17 C20 1_555 1_555
C21 C16 1_555 1_555
H18 C21 1_555 1_555
C22 N1 1_555 1_555
H19 C22 1_555 1_555
C23 N3 1_555 1_555
H20 C23 1_555 1_555
C24 C9 1_555 1_555
H21 C24 1_555 1_555
C25 C10 1_555 1_555
H22 C25 1_555 1_555
C26 C10 1_555 1_555
H23 C26 1_555 1_555
H24 C26 1_555 1_555
Co2 O9 1_555 1_555
O9 C27 1_555 1_555
O10 C27 1_555 1_555
O11 C35 1_555 1_555
O12 C38 1_555 1_555
O13 C35 1_555 1_555
O14 Co2 1_555 1_555
H25 O14 1_555 1_555
H26 O14 1_555 1_555
N4 Co2 1_555 1_555
N5 H27 1_555 1_555
N6 C40 1_555 1_555
C27 C28 1_555 1_555
C28 H28 1_555 1_555
H29 C28 1_555 1_555
C29 C28 1_555 1_555
C30 C29 1_555 1_555
H30 C30 1_555 1_555
C31 C30 1_555 1_555
H31 C31 1_555 1_555
C32 C31 1_555 1_555
C33 C29 1_555 1_555
H32 C33 1_555 1_555
C34 C32 1_555 1_555
H33 C34 1_555 1_555
H34 C34 1_555 1_555
C35 C34 1_555 1_555
C36 N4 1_555 1_555
H35 C36 1_555 1_555
C37 N5 1_555 1_555
C38 N5 1_555 1_555
C39 C38 1_555 1_555
C40 H36 1_555 1_555
C41 N6 1_555 1_555
H37 C41 1_555 1_555
C42 C39 1_555 1_555
H38 C42 1_555 1_555
C43 C37 1_555 1_555
H39 C43 1_555 1_555
C44 C43 1_555 1_555
H40 C44 1_555 1_555
C45 N4 1_555 1_555
H41 C45 1_555 1_555
C46 C39 1_555 1_555
H42 C46 1_555 1_555
C47 C32 1_555 1_555
H43 C47 1_555 1_555
O7B C2B 1_555 1_555
O8B C2B 1_555 1_555
C2B C3B 1_555 1_555
C3B H6B 1_555 1_555
H7B C3B 1_555 1_555
C4B C3B 1_555 1_555
C5B C6 1_555 1_555
H8B C5B 1_555 1_555
C6B C5 1_555 1_555
H9B C6B 1_555 1_555
Co1B O7B 1_555 1_555
O1B Co1B 1_555 1_555
O2B C7B 1_555 1_555
O3B Co1B 1_555 1_555
H1B O3B 1_555 1_555
H2B O3B 1_555 1_555
O4B C17B 1_555 1_555
O5B C11B 1_555 1_555
O6B H3B 1_555 1_555
N1B Co1B 1_555 1_555
N2B H4B 1_555 1_555
N3B C19B 1_555 1_555
C1B H5B 1_555 1_555
C7B O1B 1_555 1_555
C8B C7B 1_555 1_555
H10B C8B 1_555 1_555
H11B C8B 1_555 1_555
C9B C8B 1_555 1_555
C10B C12B 1_555 1_555
C11B O6B 1_555 1_555
C12B H12B 1_555 1_555
C13B C9B 1_555 1_555
H13B C13B 1_555 1_555
C14B N1B 1_555 1_555
H14B C14B 1_555 1_555
C15B C14B 1_555 1_555
H15B C15B 1_555 1_555
C16B C15B 1_555 1_555
C17B N2B 1_555 1_555
C18B N2B 1_555 1_555
C19B C18B 1_555 1_555
H16B C19B 1_555 1_555
C20B C1B 1_555 1_555
H17B C20B 1_555 1_555
C21B C16B 1_555 1_555
H18B C21B 1_555 1_555
C22B N1B 1_555 1_555
H19B C22B 1_555 1_555
C23B N3B 1_555 1_555
H20B C23B 1_555 1_555
C24B C9B 1_555 1_555
H21B C24B 1_555 1_555
C25B C10B 1_555 1_555
H22B C25B 1_555 1_555
C26B C10B 1_555 1_555
H23B C26B 1_555 1_555
H24B C26B 1_555 1_555
Co1A N3B 1_555 1_555
Co1C N3 1_555 1_555
N3A Co1B 1_555 1_555
N3C Co1 1_555 1_555
Co2B O11 1_555 1_555
Co2C N6 1_555 1_555
O11B Co2 1_555 1_555
O13B Co2 1_555 1_555
N6C Co2 1_555 1_555
O8 C2 1_555 1_555
C1 C23 1_555 1_555
C11 C26 1_555 1_555
C12 C13 1_555 1_555
C16 C17 1_555 1_555
C18 C20 1_555 1_555
C21 C22 1_555 1_555
C24 C25 1_555 1_555
O13 Co2B 1_555 1_555
C33 C47 1_555 1_555
C36 C37 1_555 1_555
C40 C46 1_555 1_555
C41 C42 1_555 1_555
C44 C45 1_555 1_555
O8B Co1B 1_555 1_555
C4B C5B 1_555 1_555
C4B C6B 1_555 1_555
C1B C23B 1_555 1_555
C11B C26B 1_555 1_555
C12B C13B 1_555 1_555
C16B C17B 1_555 1_555
C18B C20B 1_555 1_555
C21B C22B 1_555 1_555
C24B C25B 1_555 1_555

#END
