
#######################################################################
#
#                 Cambridge Crystallographic Data Centre
#                                CCDC 
#
#######################################################################
#
# If this CIF has been generated from an entry in the Cambridge 
# Structural Database, then it will include bibliographic, chemical, 
# crystal, experimental, refinement or atomic coordinate data resulting 
# from the CCDC's data processing and validation procedures.
#
#######################################################################

data_EGATEN
_symmetry_cell_setting           triclinic
_symmetry_space_group_name_H-M   'P -1'
_symmetry_Int_Tables_number      2
_space_group_name_Hall           '-P 1'
loop_
_symmetry_equiv_pos_site_id
_symmetry_equiv_pos_as_xyz
1 x,y,z
2 -x,-y,-z
_cell_length_a                   7.1926(5)
_cell_length_b                   8.8838(7)
_cell_length_c                   10.1460(8)
_cell_angle_alpha                74.9690(10)
_cell_angle_beta                 87.9680(10)
_cell_angle_gamma                87.7180(10)
_cell_volume                     625.415
loop_
_atom_site_label
_atom_site_type_symbol
_atom_site_fract_x
_atom_site_fract_y
_atom_site_fract_z
Co1 Co 0.5000 0.5000 0.0000
O1 O 0.28917(15) 0.64806(12) 0.02590(11)
O2 O 0.23213(17) 0.66950(13) 0.23811(11)
O3 O 0.76520(18) 0.04253(13) 0.40777(11)
N1 N 0.65172(19) -0.28870(15) 0.87882(13)
N2 N 0.73416(19) 0.22890(15) 0.52681(13)
H1 H 0.7434 0.2459 0.6086
N3 N 0.63644(18) 0.50127(15) 0.19151(13)
C1 C 0.0011(2) 0.93606(18) 0.13953(16)
H2 H 0.0010 0.8920 0.2354
C2 C 0.0968(2) 0.92531(18) -0.08688(16)
H3 H 0.1622 0.8742 -0.1468
C3 C 0.0996(2) 0.86037(18) 0.05360(16)
C4 C 0.2145(2) 0.71443(18) 0.11221(16)
C5 C 0.6692(2) 0.63588(19) 0.22070(16)
H4 H 0.6544 0.7300 0.1510
C6 C 0.7236(2) 0.64415(19) 0.34767(17)
H5 H 0.7444 0.7422 0.3648
C7 C 0.7474(2) 0.50829(19) 0.44927(17)
H6 H 0.7827 0.5114 0.5379
C8 C 0.7189(2) 0.36654(18) 0.41996(16)
C9 C 0.6649(2) 0.36849(18) 0.28945(16)
H7 H 0.6473 0.2719 0.2685
C10 C 0.7213(2) -0.04378(18) 0.64793(16)
C11 C 0.8044(2) -0.19038(18) 0.66086(16)
H8 H 0.8854 -0.2098 0.5907
C12 C 0.6095(2) -0.02048(18) 0.75549(16)
H9 H 0.5544 0.0794 0.7521
C13 C 0.5794(2) -0.14442(18) 0.86748(16)
H10 H 0.5031 -0.1267 0.9407
C14 C 0.7677(2) -0.30781(19) 0.77713(17)
H11 H 0.8275 -0.4070 0.7856
C15 C 0.7439(2) 0.07977(18) 0.51523(16)
O1A O -0.28917(15) 1.35194(12) -0.02590(11)
O2A O -0.23213(17) 1.33050(13) -0.23811(11)
C1A C -0.0011(2) 1.06394(18) -0.13953(16)
H2A H -0.0010 1.1080 -0.2354
C2A C -0.0968(2) 1.07469(18) 0.08688(16)
H3A H -0.1622 1.1258 0.1468
C3A C -0.0996(2) 1.13963(18) -0.05360(16)
C4A C -0.2145(2) 1.28557(18) -0.11221(16)
O3A O 0.23480(18) -0.04253(13) 0.59223(11)
N1A N 0.34828(19) 0.28870(15) 0.12118(13)
N2A N 0.26584(19) -0.22890(15) 0.47319(13)
H1A H 0.2566 -0.2459 0.3914
N3A N 0.36356(18) -0.50127(15) 0.80849(13)
C5A C 0.3308(2) -0.63588(19) 0.77930(16)
H4A H 0.3456 -0.7300 0.8490
C6A C 0.2764(2) -0.64415(19) 0.65233(17)
H5A H 0.2556 -0.7422 0.6352
C7A C 0.2526(2) -0.50829(19) 0.55073(17)
H6A H 0.2173 -0.5114 0.4621
C8A C 0.2811(2) -0.36654(18) 0.58004(16)
C9A C 0.3351(2) -0.36849(18) 0.71055(16)
H7A H 0.3527 -0.2719 0.7315
C10A C 0.2787(2) 0.04378(18) 0.35207(16)
C11A C 0.1956(2) 0.19038(18) 0.33914(16)
H8A H 0.1146 0.2098 0.4093
C12A C 0.3905(2) 0.02048(18) 0.24451(16)
H9A H 0.4456 -0.0794 0.2479
C13A C 0.4206(2) 0.14442(18) 0.13252(16)
H10A H 0.4969 0.1267 0.0593
C14A C 0.2323(2) 0.30781(19) 0.22287(17)
H11A H 0.1725 0.4070 0.2144
C15A C 0.2561(2) -0.07977(18) 0.48477(16)
Co1_2 Co -0.5000 1.5000 0.0000
Co1_3 Co 0.5000 -0.5000 1.0000
O1A_2 O 0.71083(15) 0.35194(12) -0.02590(11)
N1_2 N 0.65172(19) 0.71130(15) -0.12118(13)
N3A_2 N 0.36356(18) 0.49873(15) -0.19151(13)
loop_
_geom_bond_atom_site_label_1
_geom_bond_atom_site_label_2
_geom_bond_site_symmetry_1
_geom_bond_site_symmetry_2
Co1 O1 1_555 1_555
O1 C4 1_555 1_555
O2 C4 1_555 1_555
O3 C15 1_555 1_555
N1 C13 1_555 1_555
N2 H1 1_555 1_555
N3 Co1 1_555 1_555
C1 H2 1_555 1_555
C2 H3 1_555 1_555
C3 C1 1_555 1_555
C4 C3 1_555 1_555
C5 N3 1_555 1_555
H4 C5 1_555 1_555
C6 C5 1_555 1_555
H5 C6 1_555 1_555
C7 C6 1_555 1_555
H6 C7 1_555 1_555
C8 N2 1_555 1_555
C9 N3 1_555 1_555
H7 C9 1_555 1_555
C10 C11 1_555 1_555
C11 H8 1_555 1_555
C12 C10 1_555 1_555
H9 C12 1_555 1_555
C13 C12 1_555 1_555
H10 C13 1_555 1_555
C14 N1 1_555 1_555
H11 C14 1_555 1_555
C15 N2 1_555 1_555
O1A C4A 1_555 1_555
O2A C4A 1_555 1_555
C1A C2 1_555 1_555
H2A C1A 1_555 1_555
C2A C1 1_555 1_555
H3A C2A 1_555 1_555
C3A C1A 1_555 1_555
C4A C3A 1_555 1_555
O3A C15A 1_555 1_555
N1A Co1 1_555 1_555
N2A H1A 1_555 1_555
N3A C5A 1_555 1_555
C5A H4A 1_555 1_555
C6A C5A 1_555 1_555
H5A C6A 1_555 1_555
C7A C6A 1_555 1_555
H6A C7A 1_555 1_555
C8A N2A 1_555 1_555
C9A N3A 1_555 1_555
H7A C9A 1_555 1_555
C10A C11A 1_555 1_555
C11A H8A 1_555 1_555
C12A C10A 1_555 1_555
H9A C12A 1_555 1_555
C13A N1A 1_555 1_555
H10A C13A 1_555 1_555
C14A N1A 1_555 1_555
H11A C14A 1_555 1_555
C15A N2A 1_555 1_555
Co1_2 O1A 1_555 1_555
Co1_3 N1 1_555 1_555
O1A_2 Co1 1_555 1_555
N1_2 Co1 1_555 1_555
N3A_2 Co1 1_555 1_555
C2 C3 1_555 1_555
C7 C8 1_555 1_555
C8 C9 1_555 1_555
C10 C15 1_555 1_555
C11 C14 1_555 1_555
C2A C3A 1_555 1_555
N3A Co1_3 1_555 1_555
C7A C8A 1_555 1_555
C8A C9A 1_555 1_555
C10A C15A 1_555 1_555
C11A C14A 1_555 1_555
C12A C13A 1_555 1_555

#END
