
#######################################################################
#
#                 Cambridge Crystallographic Data Centre
#                                CCDC 
#
#######################################################################
#
# If this CIF has been generated from an entry in the Cambridge 
# Structural Database, then it will include bibliographic, chemical, 
# crystal, experimental, refinement or atomic coordinate data resulting 
# from the CCDC's data processing and validation procedures.
#
#######################################################################

data_EGEFIH
_symmetry_cell_setting           monoclinic
_symmetry_space_group_name_H-M   'P 21/n'
_symmetry_Int_Tables_number      14
_space_group_name_Hall           '-P 2yn'
loop_
_symmetry_equiv_pos_site_id
_symmetry_equiv_pos_as_xyz
1 x,y,z
2 1/2-x,1/2+y,1/2-z
3 -x,-y,-z
4 1/2+x,1/2-y,1/2+z
_cell_length_a                   12.1056(6)
_cell_length_b                   17.5149(11)
_cell_length_c                   15.3373(12)
_cell_angle_alpha                90
_cell_angle_beta                 99.041(6)
_cell_angle_gamma                90
_cell_volume                     3211.54
loop_
_atom_site_label
_atom_site_type_symbol
_atom_site_fract_x
_atom_site_fract_y
_atom_site_fract_z
C1 C -0.26066(18) 0.84522(15) 0.75905(17)
H1 H -0.2526 0.8994 0.7747
H2 H -0.3359 0.8279 0.7657
H3 H -0.2493 0.8382 0.6977
C2 C 0.01119(17) 0.74743(12) 0.89397(14)
C3 C 0.10553(18) 0.70799(13) 0.87805(15)
H4 H 0.1388 0.7208 0.8278
C4 C 0.15224(19) 0.65018(13) 0.93419(15)
H5 H 0.2175 0.6242 0.9230
C5 C 0.10272(18) 0.63076(12) 1.00672(15)
C6 C 0.00886(19) 0.67037(13) 1.02447(15)
H6 H -0.0247 0.6573 1.0744
C7 C -0.03498(17) 0.72860(13) 0.96908(15)
H7 H -0.0977 0.7564 0.9822
C8 C 0.2424(2) 0.53730(15) 1.05762(17)
H8 H 0.2333 0.5093 1.0016
H9 H 0.2621 0.5015 1.1067
H10 H 0.3020 0.5753 1.0585
C9 C 0.3961(2) 0.75333(13) 0.71778(17)
H11 H 0.3767 0.7299 0.7714
H12 H 0.4452 0.7189 0.6911
H13 H 0.3277 0.7627 0.6758
C10 C 0.48938(16) 0.96752(12) 0.78926(14)
C11 C 0.53747(17) 0.98507(12) 0.87493(15)
H14 H 0.5141 0.9583 0.9227
C12 C 0.61965(18) 1.04128(13) 0.89228(15)
H15 H 0.6522 1.0526 0.9513
C13 C 0.65324(18) 1.08035(13) 0.82235(15)
C14 C 0.60428(18) 1.06398(13) 0.73550(15)
H16 H 0.6266 1.0914 0.6878
C15 C 0.52355(18) 1.00800(13) 0.71932(15)
H17 H 0.4908 0.9968 0.6603
C16 C 0.7800(3) 1.15913(18) 0.91802(18)
H18 H 0.7204 1.1773 0.9492
H19 H 0.8342 1.2002 0.9151
H20 H 0.8177 1.1155 0.9497
C17 C 0.28604(17) 1.09338(12) 0.81506(15)
H21 H 0.2944 1.0854 0.7552
C18 C 0.35514(18) 1.14589(12) 0.86456(15)
H22 H 0.4103 1.1725 0.8388
C19 C 0.34369(17) 1.15945(12) 0.95171(15)
C20 C 0.26101(18) 1.11841(12) 0.98548(15)
H23 H 0.2495 1.1261 1.0447
C21 C 0.19626(18) 1.06667(12) 0.93251(15)
H24 H 0.1407 1.0391 0.9567
C22 C 0.41364(19) 1.21806(13) 1.00726(17)
C23 C 0.44144(17) 1.42202(12) 1.21287(15)
H25 H 0.4254 1.4327 1.2703
C24 C 0.38297(17) 1.36371(12) 1.16464(15)
H26 H 0.3285 1.3352 1.1890
C25 C 0.40473(17) 1.34748(12) 1.08082(15)
C26 C 0.48577(19) 1.39069(13) 1.04847(16)
H27 H 0.5032 1.3813 0.9912
C27 C 0.54059(19) 1.44753(13) 1.10116(15)
H28 H 0.5962 1.4764 1.0786
C28 C 0.34144(19) 1.28555(13) 1.02539(17)
N1 N 0.20792(14) 1.05335(9) 0.84824(12)
N2 N 0.51962(14) 1.46394(10) 1.18196(12)
O1 O -0.17835(11) 0.80119(8) 0.81675(10)
O2 O 0.45337(11) 0.82506(8) 0.74017(10)
O3 O 0.73290(13) 1.13634(9) 0.83061(11)
O4 O 0.13982(14) 0.57503(9) 1.06631(11)
P1 P -0.04897(4) 0.82353(3) 0.82362(4)
P2 P 0.38121(4) 0.89629(3) 0.76625(4)
S1 S -0.02124(4) 0.92490(3) 0.88483(4)
S2 S 0.00240(4) 0.82210(3) 0.70636(4)
S3 S 0.30825(4) 0.87047(3) 0.86965(4)
S4 S 0.27157(4) 0.92801(3) 0.66019(4)
Cd1 Cd 0.125215(11) 0.944268(8) 0.773089(10)
H29 H 0.476(2) 1.2353(16) 0.9767(19)
H30 H 0.445(2) 1.1971(16) 1.062(2)
H31 H 0.307(2) 1.3074(15) 0.9712(19)
H32 H 0.275(2) 1.2691(16) 1.0551(18)
N2C N 0.01962(14) 1.03606(10) 0.68196(12)
Cd1C Cd 0.625215(11) 1.555732(8) 1.273089(10)
loop_
_geom_bond_atom_site_label_1
_geom_bond_atom_site_label_2
_geom_bond_site_symmetry_1
_geom_bond_site_symmetry_2
C1 H1 1_555 1_555
H2 C1 1_555 1_555
H3 C1 1_555 1_555
C2 C3 1_555 1_555
C3 H4 1_555 1_555
C4 C3 1_555 1_555
H5 C4 1_555 1_555
C5 C4 1_555 1_555
C6 C5 1_555 1_555
H6 C6 1_555 1_555
C7 C2 1_555 1_555
H7 C7 1_555 1_555
C8 H8 1_555 1_555
H9 C8 1_555 1_555
H10 C8 1_555 1_555
C9 H11 1_555 1_555
H12 C9 1_555 1_555
H13 C9 1_555 1_555
C10 C11 1_555 1_555
C11 H14 1_555 1_555
C12 C11 1_555 1_555
H15 C12 1_555 1_555
C13 C12 1_555 1_555
C14 C13 1_555 1_555
H16 C14 1_555 1_555
C15 C10 1_555 1_555
H17 C15 1_555 1_555
C16 H18 1_555 1_555
H19 C16 1_555 1_555
H20 C16 1_555 1_555
C17 H21 1_555 1_555
C18 C17 1_555 1_555
H22 C18 1_555 1_555
C19 C18 1_555 1_555
C20 C19 1_555 1_555
H23 C20 1_555 1_555
C21 C20 1_555 1_555
H24 C21 1_555 1_555
C22 C19 1_555 1_555
C23 H25 1_555 1_555
C24 C23 1_555 1_555
H26 C24 1_555 1_555
C25 C24 1_555 1_555
C26 C25 1_555 1_555
H27 C26 1_555 1_555
C27 C26 1_555 1_555
H28 C27 1_555 1_555
C28 C22 1_555 1_555
N1 C17 1_555 1_555
N2 C23 1_555 1_555
O1 C1 1_555 1_555
O2 C9 1_555 1_555
O3 C13 1_555 1_555
O4 C5 1_555 1_555
P1 C2 1_555 1_555
P2 C10 1_555 1_555
S1 P1 1_555 1_555
S2 P1 1_555 1_555
S3 P2 1_555 1_555
S4 P2 1_555 1_555
Cd1 N1 1_555 1_555
H29 C22 1_555 1_555
H30 C22 1_555 1_555
H31 C28 1_555 1_555
H32 C28 1_555 1_555
N2C Cd1 1_555 1_555
Cd1C N2 1_555 1_555
C6 C7 1_555 1_555
C8 O4 1_555 1_555
C14 C15 1_555 1_555
C16 O3 1_555 1_555
C21 N1 1_555 1_555
C25 C28 1_555 1_555
C27 N2 1_555 1_555
O1 P1 1_555 1_555
O2 P2 1_555 1_555
S1 Cd1 1_555 1_555
S2 Cd1 1_555 1_555
S3 Cd1 1_555 1_555
S4 Cd1 1_555 1_555

#END
