
#######################################################################
#
#                 Cambridge Crystallographic Data Centre
#                                CCDC 
#
#######################################################################
#
# If this CIF has been generated from an entry in the Cambridge 
# Structural Database, then it will include bibliographic, chemical, 
# crystal, experimental, refinement or atomic coordinate data resulting 
# from the CCDC's data processing and validation procedures.
#
#######################################################################

data_EGELOS
_symmetry_cell_setting           orthorhombic
_symmetry_space_group_name_H-M   'I m m a'
_symmetry_Int_Tables_number      74
_space_group_name_Hall           '-I 2b 2'
loop_
_symmetry_equiv_pos_site_id
_symmetry_equiv_pos_as_xyz
1 x,y,z
2 1/2+x,1/2+y,1/2+z
3 x,-y,-z
4 -x,1/2+y,-z
5 -x,1/2-y,z
6 1/2+x,1/2-y,1/2-z
7 1/2-x,y,1/2-z
8 1/2-x,-y,1/2+z
9 -x,-y,-z
10 1/2-x,1/2-y,1/2-z
11 -x,y,z
12 x,1/2-y,z
13 x,1/2+y,-z
14 1/2-x,1/2+y,1/2+z
15 1/2+x,-y,1/2+z
16 1/2+x,y,1/2-z
_cell_length_a                   6.63378(22)
_cell_length_b                   16.2884(6)
_cell_length_c                   13.4909(5)
_cell_angle_alpha                90
_cell_angle_beta                 90
_cell_angle_gamma                90
_cell_volume                     1457.74
loop_
_atom_site_label
_atom_site_type_symbol
_atom_site_fract_x
_atom_site_fract_y
_atom_site_fract_z
C1 C 0.46388(21) 0.15074(25) 0.4739(5)
C2 C 0.10181(20) 0.105342(6) 0.504490(12)
C3 C 0.0054(6) 0.25804(7) 0.26432(15)
C4 C 0.1506(4) 0.128800(28) 0.34900(6)
C5 C 0.04558(23) 0.15959(4) 0.26985(9)
C6 C 0.0701(4) 0.206462(28) 0.33795(6)
C7 C 0.2153(6) 0.18038(7) 0.42263(15)
C8 C 0.17507(23) 0.23725(4) 0.41710(9)
C9 C 0.3302(13) 0.14667(15) 0.50929(32)
C10 C 0.2460(5) 0.18078(9) 0.49771(20)
C1J C 0.53612(21) 0.15074(25) 0.4739(5)
C2J C -0.10181(20) 0.105342(6) 0.504490(12)
C3J C -0.0054(6) 0.25804(7) 0.26432(15)
C3K C 0.0054(6) 0.24196(7) 0.26432(15)
C3D C -0.0054(6) 0.24196(7) 0.26432(15)
C4J C -0.1506(4) 0.128800(28) 0.34900(6)
C5K C 0.04558(23) 0.34041(4) 0.26985(9)
C5D C -0.04558(23) 0.34041(4) 0.26985(9)
C5J C -0.04558(23) 0.15959(4) 0.26985(9)
C6J C -0.0701(4) 0.206462(28) 0.33795(6)
C6K C 0.0701(4) 0.293538(28) 0.33795(6)
C6D C -0.0701(4) 0.293538(28) 0.33795(6)
C7K C 0.2153(6) 0.31962(7) 0.42263(15)
C8K C 0.17507(23) 0.26275(4) 0.41710(9)
C9J C 0.6698(13) 0.14667(15) 0.50929(32)
Al1 Al 0.25000 0.25000 0.75000
O1 O 0.00000 0.25000 0.693
C11 C 0.00000 0.43260(4) 0.939260(6)
C12 C 0.178850 0.46630(2) 0.969630(3)
C15 C 0.00000 0.35880(8) 0.872750(13)
O2 O 0.169710 0.32682(10) 0.843940(16)
Al1J Al -0.25000 0.25000 0.75000
Al1A Al -0.25000 0.75000 1.25000
Al1L Al 0.25000 0.75000 1.25000
O1O O 0.50000 0.25000 0.807
C11H C 0.00000 0.56740(4) 1.060740(6)
C12J C -0.178850 0.46630(2) 0.969630(3)
C12B C 0.178850 0.53370(2) 1.030370(3)
C12H C -0.178850 0.53370(2) 1.030370(3)
C15H C 0.00000 0.64120(8) 1.127250(13)
O2F O 0.330290 0.32682(10) 0.656060(16)
O2K O 0.169710 0.17318(10) 0.843940(16)
O2I O 0.330290 0.17318(10) 0.656060(16)
O2J O -0.169710 0.32682(10) 0.843940(16)
O2H O -0.169710 0.67318(10) 1.156060(16)
O2B O 0.169710 0.67318(10) 1.156060(16)
C13? C 0.178846 0.03370(2) -0.030370(3)
C14? C 0.00000 0.06740(4) -0.060741(6)
C16? C 0.00000 0.14120(8) -0.127245(13)
C17? C 0.169708 0.17318(10) -0.156064(16)
loop_
_geom_bond_atom_site_label_1
_geom_bond_atom_site_label_2
_geom_bond_site_symmetry_1
_geom_bond_site_symmetry_2
Al1 O1 1_555 1_555
O1 Al1J 1_555 1_555
C1 C9 1_555 1_555
C2 C9 1_555 1_555
C3 C5 1_555 1_555
C4 C5 1_555 1_555
C5 C6 1_555 1_555
C6 C3 1_555 1_555
C7 C4 1_555 1_555
C8 C6 1_555 1_555
C9 C7 1_555 1_555
C10 C1 1_555 1_555
C11 C12 1_555 1_555
C12 C12B 1_555 1_555
C15 C11 1_555 1_555
O2 Al1 1_555 1_555
Al1J O2J 1_555 1_555
Al1A O2H 1_555 1_555
Al1L O2B 1_555 1_555
O1O Al1 1_555 1_555
C1J C1 1_555 1_555
C2J C2 1_555 1_555
C3J C3 1_555 1_555
C3K C3 1_555 1_555
C3D C3 1_555 1_555
C4J C5 1_555 1_555
C5K C3 1_555 1_555
C5D C3 1_555 1_555
C5J C3 1_555 1_555
C6J C3 1_555 1_555
C6K C3 1_555 1_555
C6D C3 1_555 1_555
C7K C8 1_555 1_555
C8K C6 1_555 1_555
C9J C1 1_555 1_555
C11H C12B 1_555 1_555
C12J C11 1_555 1_555
C12H C11H 1_555 1_555
C15H C11H 1_555 1_555
O2F Al1 1_555 1_555
O2K Al1 1_555 1_555
O2I Al1 1_555 1_555
O2J C15 1_555 1_555
O2H C15H 1_555 1_555
O2B C15H 1_555 1_555
C2 C10 1_555 1_555
C4 C6 1_555 1_555
C4 C5J 1_555 1_555
C5 C3J 1_555 1_555
C5 C3K 1_555 1_555
C5 C3D 1_555 1_555
C5 C5J 1_555 1_555
C5 C6J 1_555 1_555
C6 C7 1_555 1_555
C6 C3J 1_555 1_555
C6 C3K 1_555 1_555
C6 C3D 1_555 1_555
C6 C5J 1_555 1_555
C6 C6J 1_555 1_555
C6 C6K 1_555 1_555
C6 C6D 1_555 1_555
C7 C8 1_555 1_555
C7 C10 1_555 1_555
C7 C8K 1_555 1_555
C8 C10 1_555 1_555
C8 C6K 1_555 1_555
C8 C8K 1_555 1_555
C9 C10 1_555 1_555
C9 C1J 1_555 1_555
C15 O2 1_555 1_555
C1J C9J 1_555 1_555
C3J C3K 1_555 1_555
C3J C3D 1_555 1_555
C3J C5K 1_555 1_555
C3J C5D 1_555 1_555
C3J C5J 1_555 1_555
C3J C6J 1_555 1_555
C3J C6K 1_555 1_555
C3J C6D 1_555 1_555
C3K C3D 1_555 1_555
C3K C5K 1_555 1_555
C3K C5D 1_555 1_555
C3K C5J 1_555 1_555
C3K C6J 1_555 1_555
C3K C6K 1_555 1_555
C3K C6D 1_555 1_555
C3D C5K 1_555 1_555
C3D C5D 1_555 1_555
C3D C5J 1_555 1_555
C3D C6J 1_555 1_555
C3D C6K 1_555 1_555
C3D C6D 1_555 1_555
C4J C5J 1_555 1_555
C4J C6J 1_555 1_555
C5K C5D 1_555 1_555
C5K C6K 1_555 1_555
C5K C6D 1_555 1_555
C5D C6K 1_555 1_555
C5D C6D 1_555 1_555
C5J C6J 1_555 1_555
C6J C6K 1_555 1_555
C6J C6D 1_555 1_555
C6K C6D 1_555 1_555
C6K C7K 1_555 1_555
C6K C8K 1_555 1_555
C7K C8K 1_555 1_555
C12J C12H 1_555 1_555

#END
