
#######################################################################
#
#                 Cambridge Crystallographic Data Centre
#                                CCDC 
#
#######################################################################
#
# If this CIF has been generated from an entry in the Cambridge 
# Structural Database, then it will include bibliographic, chemical, 
# crystal, experimental, refinement or atomic coordinate data resulting 
# from the CCDC's data processing and validation procedures.
#
#######################################################################

data_EGELIM
_symmetry_cell_setting           orthorhombic
_symmetry_space_group_name_H-M   'I m m a'
_symmetry_Int_Tables_number      74
_space_group_name_Hall           '-I 2b 2'
loop_
_symmetry_equiv_pos_site_id
_symmetry_equiv_pos_as_xyz
1 x,y,z
2 -x,1/2-y,z
3 x,-y,-z
4 -x,1/2+y,-z
5 1/2+x,1/2+y,1/2+z
6 1/2-x,-y,1/2+z
7 1/2+x,1/2-y,1/2-z
8 1/2-x,y,1/2-z
9 -x,-y,-z
10 x,1/2+y,-z
11 -x,y,z
12 x,1/2-y,z
13 1/2-x,1/2-y,1/2-z
14 1/2+x,y,1/2-z
15 1/2-x,1/2+y,1/2+z
16 1/2+x,-y,1/2+z
_cell_length_a                   6.63456(28)
_cell_length_b                   16.0005(8)
_cell_length_c                   13.8726(7)
_cell_angle_alpha                90
_cell_angle_beta                 90
_cell_angle_gamma                90
_cell_volume                     1472.66
loop_
_atom_site_label
_atom_site_type_symbol
_atom_site_fract_x
_atom_site_fract_y
_atom_site_fract_z
C1 C 0.143213(9) 0.22276(3) 0.37591(5)
C2 C 0.149645(4) 0.327981(14) 0.25542(4)
C3 C 0.116632(10) 0.246649(19) 0.28193(9)
C4 C 0.202807(4) 0.280203(14) 0.44337(4)
C5 C 0.209238(9) 0.385425(3) 0.32288(5)
C6 C 0.235820(10) 0.138460(19) 0.41685(9)
C7 C 0.245384(16) 0.474475(12) 0.29384(11)
C8 C 0.231910(5) 0.254048(7) 0.54626(8)
C1K C 0.143213(9) 0.27724(3) 0.37591(5)
C2G C 0.350355(4) 0.327981(14) 0.24458(4)
C2K C 0.149645(4) 0.172019(14) 0.25542(4)
C3K C 0.116632(10) 0.253351(19) 0.28193(9)
C3A C -0.116632(10) 0.253351(19) 0.28193(9)
C3J C -0.116632(10) 0.246649(19) 0.28193(9)
C4K C 0.202807(4) 0.219797(14) 0.44337(4)
C5G C 0.290762(9) 0.385425(3) 0.17712(5)
C5K C 0.209238(9) 0.114575(3) 0.32288(5)
C6K C 0.235820(10) 0.361540(19) 0.41685(9)
C7G C 0.254616(16) 0.474475(12) 0.20616(11)
C8K C 0.231910(5) 0.245952(7) 0.54626(8)
Al1 Al 0.25000 0.25000 0.75000
O1 O 0.00000 0.25000 0.693
C9 C 0.00000 0.06667(17) 0.93709(7)
C10 C 0.178820 0.03332(25) 0.96854(4)
C13 C 0.00000 0.13826(17) 0.86821(15)
O2 O 0.169690 0.16957(25) 0.83836(19)
Al1A Al -0.25000 0.25000 0.75000
Al1B Al 0.25000 -0.25000 1.25000
Al1C Al -0.25000 -0.25000 1.25000
O1F O 0.50000 0.25000 0.807
C9B C 0.00000 -0.06667(17) 1.06291(7)
C10J C -0.178820 0.03332(25) 0.96854(4)
C10B C 0.178820 -0.03332(25) 1.03146(4)
C10H C -0.178820 -0.03332(25) 1.03146(4)
C13B C 0.00000 -0.13826(17) 1.13179(15)
O2G O 0.330310 0.16957(25) 0.66164(19)
O2K O 0.169690 0.33043(25) 0.83836(19)
O2L O 0.330310 0.33043(25) 0.66164(19)
O2J O -0.169690 0.16957(25) 0.83836(19)
O2B O 0.169690 -0.16957(25) 1.16164(19)
O2H O -0.169690 -0.16957(25) 1.16164(19)
C11? C 0.178824 0.03332(25) -0.03146(4)
C12? C 0.00000 0.06667(17) -0.06291(7)
C14? C 0.00000 0.13826(25) -0.13179(15)
C15? C 0.169687 0.16957(17) -0.16164(19)
loop_
_geom_bond_atom_site_label_1
_geom_bond_atom_site_label_2
_geom_bond_site_symmetry_1
_geom_bond_site_symmetry_2
Al1 O1 1_555 1_555
O1 Al1A 1_555 1_555
C1 C3 1_555 1_555
C2 C3 1_555 1_555
C3 C1K 1_555 1_555
C4 C1 1_555 1_555
C5 C2 1_555 1_555
C6 C1 1_555 1_555
C7 C5 1_555 1_555
C8 C4 1_555 1_555
C9 C10 1_555 1_555
C10 C10B 1_555 1_555
C13 C9 1_555 1_555
O2 Al1 1_555 1_555
Al1A O2J 1_555 1_555
Al1B O2B 1_555 1_555
Al1C O2H 1_555 1_555
O1F Al1 1_555 1_555
C1K C1 1_555 1_555
C2G C2 1_555 1_555
C2K C3 1_555 1_555
C3K C1 1_555 1_555
C3A C3 1_555 1_555
C3J C3 1_555 1_555
C4K C1 1_555 1_555
C5G C2 1_555 1_555
C5K C6 1_555 1_555
C6K C4 1_555 1_555
C7G C7 1_555 1_555
C8K C4 1_555 1_555
C9B C10B 1_555 1_555
C10J C9 1_555 1_555
C10H C9B 1_555 1_555
C13B C9B 1_555 1_555
O2G Al1 1_555 1_555
O2K Al1 1_555 1_555
O2L Al1 1_555 1_555
O2J C13 1_555 1_555
O2B C13B 1_555 1_555
O2H C13B 1_555 1_555
C2 C3K 1_555 1_555
C3 C3K 1_555 1_555
C4 C1K 1_555 1_555
C4 C4K 1_555 1_555
C5 C2G 1_555 1_555
C5 C6K 1_555 1_555
C6 C4K 1_555 1_555
C8 C4K 1_555 1_555
C8 C8K 1_555 1_555
C13 O2 1_555 1_555
C1K C3K 1_555 1_555
C1K C4K 1_555 1_555
C1K C6K 1_555 1_555
C2G C5G 1_555 1_555
C2K C3K 1_555 1_555
C2K C5K 1_555 1_555
C3K C3A 1_555 1_555
C3K C3J 1_555 1_555
C3A C3J 1_555 1_555
C4K C8K 1_555 1_555
C5G C7G 1_555 1_555
C10J C10H 1_555 1_555

#END
