
#######################################################################
#
#                 Cambridge Crystallographic Data Centre
#                                CCDC 
#
#######################################################################
#
# If this CIF has been generated from an entry in the Cambridge 
# Structural Database, then it will include bibliographic, chemical, 
# crystal, experimental, refinement or atomic coordinate data resulting 
# from the CCDC's data processing and validation procedures.
#
#######################################################################

data_EGEMIO
_symmetry_cell_setting           monoclinic
_symmetry_space_group_name_H-M   'C 2/m'
_symmetry_Int_Tables_number      12
_space_group_name_Hall           '-C 2y'
loop_
_symmetry_equiv_pos_site_id
_symmetry_equiv_pos_as_xyz
1 x,y,z
2 -x,y,-z
3 1/2+x,1/2+y,z
4 1/2-x,1/2+y,-z
5 -x,-y,-z
6 x,-y,z
7 1/2-x,1/2-y,-z
8 1/2+x,1/2-y,z
_cell_length_a                   10.2973(8)
_cell_length_b                   29.825(5)
_cell_length_c                   9.3067(11)
_cell_angle_alpha                90
_cell_angle_beta                 90.417(10)
_cell_angle_gamma                90
_cell_volume                     2858.17
loop_
_atom_site_label
_atom_site_type_symbol
_atom_site_fract_x
_atom_site_fract_y
_atom_site_fract_z
C1 C 0.3213(3) 0.07989(12) 0.5381(4)
H1 H 0.3571 0.0780 0.6324
C2 C 0.2244(3) 0.11161(11) 0.5124(4)
C3 C 0.1732(4) 0.11392(13) 0.3744(4)
H2 H 0.1052 0.1344 0.3526
C4 C 0.2223(4) 0.08611(15) 0.2688(4)
H3 H 0.1904 0.0880 0.1729
C5 C 0.3180(4) 0.05566(13) 0.3045(4)
H4 H 0.3506 0.0366 0.2315
C6 C 0.1747(3) 0.13995(11) 0.6312(4)
C7 C 0.1350(3) 0.18447(12) 0.6068(4)
H5 H 0.1449 0.1973 0.5141
C8 C 0.0818(3) 0.20993(12) 0.7164(4)
C9 C 0.0651(3) 0.19279(11) 0.8561(3)
C10 C 0.1105(3) 0.14889(12) 0.8801(4)
H6 H 0.1053 0.1367 0.9742
C11 C 0.1629(3) 0.12275(12) 0.7709(4)
H7 H 0.1910 0.0931 0.7911
C12 C 0.0353(4) 0.25716(12) 0.6931(4)
H8 H 0.0844 0.2711 0.6137
H9 H -0.0579 0.2570 0.6661
C13 C -0.0222(4) 0.32569(12) 0.8116(4)
H10 H -0.0119 0.3440 0.8982
H11 H -0.1141 0.3182 0.7977
H12 H 0.0090 0.3425 0.7281
C14 C 0.1945(3) 0.29518(13) 0.8435(4)
H13 H 0.2454 0.2676 0.8537
H14 H 0.2070 0.3139 0.9289
H15 H 0.2233 0.3116 0.7582
N1 N 0.3672(3) 0.05178(10) 0.4374(3)
N2 N 0.0545(3) 0.28369(9) 0.8277(3)
Ni1 Ni 0.5000 0.0000 0.5000
Pt1 Pt 0.0000 0.237047(6) 1.0000
Cl1 Cl 0.59016(16) 0.0000 0.25306(19)
C1A C -0.3213(3) 0.07989(12) 1.4619(4)
H1A H -0.3571 0.0780 1.3676
C2A C -0.2244(3) 0.11161(11) 1.4876(4)
C3A C -0.1732(4) 0.11392(13) 1.6256(4)
H2A H -0.1052 0.1344 1.6474
C4A C -0.2223(4) 0.08611(15) 1.7312(4)
H3A H -0.1904 0.0880 1.8271
C5A C -0.3180(4) 0.05566(13) 1.6955(4)
H4A H -0.3506 0.0366 1.7685
C6A C -0.1747(3) 0.13995(11) 1.3688(4)
C7A C -0.1350(3) 0.18447(12) 1.3932(4)
H5A H -0.1449 0.1973 1.4859
C8A C -0.0818(3) 0.20993(12) 1.2836(4)
C9A C -0.0651(3) 0.19279(11) 1.1439(3)
C10A C -0.1105(3) 0.14889(12) 1.1199(4)
H6A H -0.1053 0.1367 1.0258
C11A C -0.1629(3) 0.12275(12) 1.2291(4)
H7A H -0.1910 0.0931 1.2089
C12A C -0.0353(4) 0.25716(12) 1.3069(4)
H8A H -0.0844 0.2711 1.3863
H9A H 0.0579 0.2570 1.3339
C13A C 0.0222(4) 0.32569(12) 1.1884(4)
H10A H 0.0119 0.3440 1.1018
H11A H 0.1141 0.3182 1.2023
H12A H -0.0090 0.3425 1.2719
C14A C -0.1945(3) 0.29518(13) 1.1565(4)
H13A H -0.2454 0.2676 1.1463
H14A H -0.2070 0.3139 1.0711
H15A H -0.2233 0.3116 1.2418
N1A N -0.3672(3) 0.05178(10) 1.5626(3)
N2A N -0.0545(3) 0.28369(9) 1.1723(3)
C1D C -0.3213(3) -0.07989(12) 1.4619(4)
H1D H -0.3571 -0.0780 1.3676
C2D C -0.2244(3) -0.11161(11) 1.4876(4)
C3D C -0.1732(4) -0.11392(13) 1.6256(4)
H2D H -0.1052 -0.1344 1.6474
C4D C -0.2223(4) -0.08611(15) 1.7312(4)
H3D H -0.1904 -0.0880 1.8271
C5D C -0.3180(4) -0.05566(13) 1.6955(4)
H4D H -0.3506 -0.0366 1.7685
C6D C -0.1747(3) -0.13995(11) 1.3688(4)
C7D C -0.1350(3) -0.18447(12) 1.3932(4)
H5D H -0.1449 -0.1973 1.4859
C8D C -0.0818(3) -0.20993(12) 1.2836(4)
C9D C -0.0651(3) -0.19279(11) 1.1439(3)
C10D C -0.1105(3) -0.14889(12) 1.1199(4)
H6D H -0.1053 -0.1367 1.0258
C11D C -0.1629(3) -0.12275(12) 1.2291(4)
H7D H -0.1910 -0.0931 1.2089
C12D C -0.0353(4) -0.25716(12) 1.3069(4)
H8D H -0.0844 -0.2711 1.3863
H9D H 0.0579 -0.2570 1.3339
C13D C 0.0222(4) -0.32569(12) 1.1884(4)
H10D H 0.0119 -0.3440 1.1018
H11D H 0.1141 -0.3182 1.2023
H12D H -0.0090 -0.3425 1.2719
C14D C -0.1945(3) -0.29518(13) 1.1565(4)
H13D H -0.2454 -0.2676 1.1463
H14D H -0.2070 -0.3139 1.0711
H15D H -0.2233 -0.3116 1.2418
N1D N -0.3672(3) -0.05178(10) 1.5626(3)
N2D N -0.0545(3) -0.28369(9) 1.1723(3)
Pt1D Pt 0.0000 -0.237047(6) 1.0000
C1E C 0.3213(3) -0.07989(12) 0.5381(4)
H1E H 0.3571 -0.0780 0.6324
C2E C 0.2244(3) -0.11161(11) 0.5124(4)
C3E C 0.1732(4) -0.11392(13) 0.3744(4)
H2E H 0.1052 -0.1344 0.3526
C4E C 0.2223(4) -0.08611(15) 0.2688(4)
H3E H 0.1904 -0.0880 0.1729
C5E C 0.3180(4) -0.05566(13) 0.3045(4)
H4E H 0.3506 -0.0366 0.2315
C6E C 0.1747(3) -0.13995(11) 0.6312(4)
C7E C 0.1350(3) -0.18447(12) 0.6068(4)
H5E H 0.1449 -0.1973 0.5141
C8E C 0.0818(3) -0.20993(12) 0.7164(4)
C9E C 0.0651(3) -0.19279(11) 0.8561(3)
C10E C 0.1105(3) -0.14889(12) 0.8801(4)
H6E H 0.1053 -0.1367 0.9742
C11E C 0.1629(3) -0.12275(12) 0.7709(4)
H7E H 0.1910 -0.0931 0.7911
C12E C 0.0353(4) -0.25716(12) 0.6931(4)
H8E H 0.0844 -0.2711 0.6137
H9E H -0.0579 -0.2570 0.6661
C13E C -0.0222(4) -0.32569(12) 0.8116(4)
H10E H -0.0119 -0.3440 0.8982
H11E H -0.1141 -0.3182 0.7977
H12E H 0.0090 -0.3425 0.7281
C14E C 0.1945(3) -0.29518(13) 0.8435(4)
H13E H 0.2454 -0.2676 0.8537
H14E H 0.2070 -0.3139 0.9289
H15E H 0.2233 -0.3116 0.7582
N1E N 0.3672(3) -0.05178(10) 0.4374(3)
N2E N 0.0545(3) -0.28369(9) 0.8277(3)
Cl1A Cl 0.40984(16) 0.0000 0.74694(19)
N1A_2 N 0.6328(3) 0.05178(10) 0.5626(3)
N1D_2 N 0.6328(3) -0.05178(10) 0.5626(3)
Ni1_2 Ni -0.5000 0.0000 1.5000
loop_
_geom_bond_atom_site_label_1
_geom_bond_atom_site_label_2
_geom_bond_site_symmetry_1
_geom_bond_site_symmetry_2
C1 H1 1_555 1_555
C2 C1 1_555 1_555
C3 C2 1_555 1_555
H2 C3 1_555 1_555
C4 C3 1_555 1_555
H3 C4 1_555 1_555
C5 C4 1_555 1_555
H4 C5 1_555 1_555
C6 C2 1_555 1_555
C7 C6 1_555 1_555
H5 C7 1_555 1_555
C8 C7 1_555 1_555
C9 C8 1_555 1_555
C10 C9 1_555 1_555
H6 C10 1_555 1_555
C11 C6 1_555 1_555
H7 C11 1_555 1_555
C12 C8 1_555 1_555
H8 C12 1_555 1_555
H9 C12 1_555 1_555
C13 H10 1_555 1_555
H11 C13 1_555 1_555
H12 C13 1_555 1_555
C14 H13 1_555 1_555
H14 C14 1_555 1_555
H15 C14 1_555 1_555
N1 C1 1_555 1_555
N2 C12 1_555 1_555
Ni1 N1 1_555 1_555
Pt1 C9 1_555 1_555
Cl1 Ni1 1_555 1_555
C1A H1A 1_555 1_555
C2A C1A 1_555 1_555
C3A C2A 1_555 1_555
H2A C3A 1_555 1_555
C4A C3A 1_555 1_555
H3A C4A 1_555 1_555
C5A C4A 1_555 1_555
H4A C5A 1_555 1_555
C6A C2A 1_555 1_555
C7A C6A 1_555 1_555
H5A C7A 1_555 1_555
C8A C7A 1_555 1_555
C9A Pt1 1_555 1_555
C10A C9A 1_555 1_555
H6A C10A 1_555 1_555
C11A C6A 1_555 1_555
H7A C11A 1_555 1_555
C12A C8A 1_555 1_555
H8A C12A 1_555 1_555
H9A C12A 1_555 1_555
C13A H10A 1_555 1_555
H11A C13A 1_555 1_555
H12A C13A 1_555 1_555
C14A H13A 1_555 1_555
H14A C14A 1_555 1_555
H15A C14A 1_555 1_555
N1A C1A 1_555 1_555
N2A Pt1 1_555 1_555
C1D H1D 1_555 1_555
C2D C1D 1_555 1_555
C3D C2D 1_555 1_555
H2D C3D 1_555 1_555
C4D C3D 1_555 1_555
H3D C4D 1_555 1_555
C5D C4D 1_555 1_555
H4D C5D 1_555 1_555
C6D C2D 1_555 1_555
C7D C6D 1_555 1_555
H5D C7D 1_555 1_555
C8D C7D 1_555 1_555
C9D C8D 1_555 1_555
C10D C9D 1_555 1_555
H6D C10D 1_555 1_555
C11D C6D 1_555 1_555
H7D C11D 1_555 1_555
C12D C8D 1_555 1_555
H8D C12D 1_555 1_555
H9D C12D 1_555 1_555
C13D H10D 1_555 1_555
H11D C13D 1_555 1_555
H12D C13D 1_555 1_555
C14D H13D 1_555 1_555
H14D C14D 1_555 1_555
H15D C14D 1_555 1_555
N1D C1D 1_555 1_555
N2D C12D 1_555 1_555
Pt1D C9D 1_555 1_555
C1E H1E 1_555 1_555
C2E C1E 1_555 1_555
C3E C2E 1_555 1_555
H2E C3E 1_555 1_555
C4E C3E 1_555 1_555
H3E C4E 1_555 1_555
C5E C4E 1_555 1_555
H4E C5E 1_555 1_555
C6E C2E 1_555 1_555
C7E C6E 1_555 1_555
H5E C7E 1_555 1_555
C8E C7E 1_555 1_555
C9E Pt1D 1_555 1_555
C10E C9E 1_555 1_555
H6E C10E 1_555 1_555
C11E C6E 1_555 1_555
H7E C11E 1_555 1_555
C12E C8E 1_555 1_555
H8E C12E 1_555 1_555
H9E C12E 1_555 1_555
C13E H10E 1_555 1_555
H11E C13E 1_555 1_555
H12E C13E 1_555 1_555
C14E H13E 1_555 1_555
H14E C14E 1_555 1_555
H15E C14E 1_555 1_555
N1E Ni1 1_555 1_555
N2E Pt1D 1_555 1_555
Cl1A Ni1 1_555 1_555
N1A_2 Ni1 1_555 1_555
N1D_2 Ni1 1_555 1_555
Ni1_2 N1A 1_555 1_555
C5 N1 1_555 1_555
C10 C11 1_555 1_555
C13 N2 1_555 1_555
C14 N2 1_555 1_555
N2 Pt1 1_555 1_555
C5A N1A 1_555 1_555
C8A C9A 1_555 1_555
C10A C11A 1_555 1_555
C12A N2A 1_555 1_555
C13A N2A 1_555 1_555
C14A N2A 1_555 1_555
C5D N1D 1_555 1_555
C10D C11D 1_555 1_555
C13D N2D 1_555 1_555
C14D N2D 1_555 1_555
N1D Ni1_2 1_555 1_555
N2D Pt1D 1_555 1_555
C1E N1E 1_555 1_555
C5E N1E 1_555 1_555
C8E C9E 1_555 1_555
C10E C11E 1_555 1_555
C12E N2E 1_555 1_555
C13E N2E 1_555 1_555
C14E N2E 1_555 1_555

#END
