
#######################################################################
#
#                 Cambridge Crystallographic Data Centre
#                                CCDC 
#
#######################################################################
#
# If this CIF has been generated from an entry in the Cambridge 
# Structural Database, then it will include bibliographic, chemical, 
# crystal, experimental, refinement or atomic coordinate data resulting 
# from the CCDC's data processing and validation procedures.
#
#######################################################################

data_EGEQAJ
_symmetry_cell_setting           monoclinic
_symmetry_space_group_name_H-M   'P 21'
_symmetry_Int_Tables_number      4
_space_group_name_Hall           'P 2yb'
loop_
_symmetry_equiv_pos_site_id
_symmetry_equiv_pos_as_xyz
1 x,y,z
2 -x,1/2+y,-z
_cell_length_a                   7.150(2)
_cell_length_b                   10.268(3)
_cell_length_c                   8.515(3)
_cell_angle_alpha                90
_cell_angle_beta                 112.332(3)
_cell_angle_gamma                90
_cell_volume                     578.252
loop_
_atom_site_label
_atom_site_type_symbol
_atom_site_fract_x
_atom_site_fract_y
_atom_site_fract_z
Sn1 Sn -0.62230(4) 1.03542(2) -0.18535(3)
P1 P -0.10261(17) 0.95413(12) -0.13865(15)
P2 P 0.36062(17) 0.71084(10) 0.82961(14)
O1 O -0.2896(4) 1.0321(5) -0.1750(3)
O2 O -0.1456(5) 0.8459(3) -0.2784(4)
O3 O 0.0849(4) 1.0297(6) -0.1155(4)
O4 O 0.4341(5) 0.8436(3) 0.9141(4)
O5 O 0.1410(5) 0.6859(3) 0.8005(4)
O6 O 0.4967(5) 0.6003(3) 0.9277(4)
N1 N -0.0027(5) 0.9430(4) 0.2072(5)
H1 H -0.0696 1.0195 0.1717
N2 N 0.2610(5) 0.8151(3) 0.5145(4)
H2 H 0.2592 0.8840 0.5812
C1 C -0.0539(7) 0.8582(5) 0.0530(5)
H3 H -0.1726 0.8066 0.0398
H4 H 0.0573 0.7988 0.0686
C2 C -0.0769(7) 0.8866(5) 0.3349(6)
H5 H -0.2159 0.8583 0.2783
H6 H -0.0732 0.9529 0.4172
C3 C 0.0526(6) 0.7725(4) 0.4249(5)
H7 H 0.0007 0.7356 0.5052
H8 H 0.0479 0.7057 0.3430
C4 C 0.3433(7) 0.8608(5) 0.3908(6)
H9 H 0.3409 0.7904 0.3141
H10 H 0.4827 0.8877 0.4494
C5 C 0.2182(6) 0.9757(4) 0.2890(6)
H11 H 0.2354 1.0497 0.3640
H12 H 0.2678 1.0005 0.2018
C6 C 0.3870(7) 0.7137(4) 0.6245(6)
H13 H 0.5274 0.7292 0.6421
H14 H 0.3484 0.6297 0.5697
Sn1_2 Sn 0.37770(4) 1.03542(2) -0.18535(3)
Sn1_3 Sn 0.37770(4) 1.03542(2) 0.81465(3)
Sn1A Sn 0.62230(4) 0.53542(2) 1.18535(3)
O3_2 O -0.9151(4) 1.0297(6) -0.1155(4)
O4_2 O -0.5659(5) 0.8436(3) -0.0859(4)
O6A O -0.4967(5) 1.1003(3) 0.0723(4)
loop_
_geom_bond_atom_site_label_1
_geom_bond_atom_site_label_2
_geom_bond_site_symmetry_1
_geom_bond_site_symmetry_2
Sn1 O1 1_555 1_555
P1 O1 1_555 1_555
P2 O4 1_555 1_555
O2 P1 1_555 1_555
O3 P1 1_555 1_555
O4 Sn1_3 1_555 1_555
O5 P2 1_555 1_555
O6 P2 1_555 1_555
N1 H1 1_555 1_555
N2 H2 1_555 1_555
C1 P1 1_555 1_555
H3 C1 1_555 1_555
H4 C1 1_555 1_555
C2 N1 1_555 1_555
H5 C2 1_555 1_555
H6 C2 1_555 1_555
C3 N2 1_555 1_555
H7 C3 1_555 1_555
H8 C3 1_555 1_555
C4 N2 1_555 1_555
H9 C4 1_555 1_555
H10 C4 1_555 1_555
C5 N1 1_555 1_555
H11 C5 1_555 1_555
H12 C5 1_555 1_555
C6 P2 1_555 1_555
H13 C6 1_555 1_555
H14 C6 1_555 1_555
Sn1_2 O3 1_555 1_555
Sn1A O6 1_555 1_555
O3_2 Sn1 1_555 1_555
O4_2 Sn1 1_555 1_555
O6A Sn1 1_555 1_555
N1 C1 1_555 1_555
N2 C6 1_555 1_555
C2 C3 1_555 1_555
C4 C5 1_555 1_555

#END
