
#######################################################################
#
#                 Cambridge Crystallographic Data Centre
#                                CCDC 
#
#######################################################################
#
# If this CIF has been generated from an entry in the Cambridge 
# Structural Database, then it will include bibliographic, chemical, 
# crystal, experimental, refinement or atomic coordinate data resulting 
# from the CCDC's data processing and validation procedures.
#
#######################################################################

data_EGEQOW02
_symmetry_cell_setting           monoclinic
_symmetry_space_group_name_H-M   'C 2/c'
_symmetry_Int_Tables_number      15
_space_group_name_Hall           '-C 2yn'
loop_
_symmetry_equiv_pos_site_id
_symmetry_equiv_pos_as_xyz
1 x,y,z
2 x,-y,1/2+z
3 1/2+x,1/2+y,z
4 1/2+x,1/2-y,1/2+z
5 -x,-y,-z
6 -x,y,1/2-z
7 1/2-x,1/2-y,-z
8 1/2-x,1/2+y,1/2-z
_cell_length_a                   14.391(2)
_cell_length_b                   11.4180(10)
_cell_length_c                   22.908(3)
_cell_angle_alpha                90
_cell_angle_beta                 95.080(10)
_cell_angle_gamma                90
_cell_volume                     3749.38
loop_
_atom_site_label
_atom_site_type_symbol
_atom_site_fract_x
_atom_site_fract_y
_atom_site_fract_z
Zn1 Zn 0.5000 0.49511(8) 0.2500
O8 O 0.3524(2) 0.4994(4) 0.24810(10)
N1 N 0.5000 -0.3148(5) 0.2500
N2 N 0.5000 0.3048(5) 0.2500
N3 N 0.5084(3) 0.4938(4) 0.34580(10)
C1 C 0.5733(4) -0.2526(4) 0.2359(2)
C2 C 0.5758(4) -0.1324(5) 0.2356(2)
C3 C 0.5000 -0.0691(6) 0.2500
C4 C 0.5000 0.0593(7) 0.2500
C5 C 0.5786(4) 0.1226(4) 0.2704(2)
C6 C 0.5750(4) 0.2431(4) 0.2700(2)
C7 C 0.4739(4) 0.4060(5) 0.3745(2)
C8 C 0.4699(4) 0.4055(5) 0.4343(2)
C9 C 0.5036(3) 0.4981(5) 0.4679(2)
C10 C 0.4576(4) 0.4128(5) 0.5621(2)
C11 C 0.4574(4) 0.4174(5) 0.6219(2)
H1 H 0.321(3) 0.476(4) 0.2750(10)
H2 H 0.322(3) 0.487(5) 0.2150(10)
H5 H 0.6255 -0.2930 0.2256
H6 H 0.6290 -0.0938 0.2256
H7 H 0.6331 0.0840 0.2842
H8 H 0.3721 0.2840 0.2155
H9 H 0.5488 0.6588 0.6468
H10 H 0.5560 0.6584 0.5478
H11 H 0.4312 0.3488 0.5417
H12 H 0.4317 0.3546 0.6408
C2E C 0.4242(4) -0.1324(5) 0.2644(2)
C1E C 0.4267(4) -0.2526(4) 0.2641(2)
H5E H 0.3745 -0.2930 0.2744
H6E H 0.3710 -0.0938 0.2744
Zn1_2 Zn 0.5000 -0.50489(8) 0.2500
O8E O 0.6476(2) 0.4994(4) 0.25190(10)
N1_2 N 0.5000 0.6852(5) 0.2500
C9D C 0.4964(3) 0.5019(5) 0.5321(2)
C8D C 0.5301(4) 0.5945(5) 0.5657(2)
C7D C 0.5261(4) 0.5940(5) 0.6255(2)
N3D N 0.4916(3) 0.5062(4) 0.65420(10)
Zn1A Zn 0.5000 0.50489(8) 0.7500
C10D C 0.5424(4) 0.5872(5) 0.4379(2)
C11D C 0.5426(4) 0.5826(5) 0.3781(2)
H12D H 0.5683 0.6454 0.3592
H11D H 0.5688 0.6512 0.4583
H10D H 0.4440 0.3416 0.4522
H9D H 0.4512 0.3412 0.3532
N3E N 0.4916(3) 0.4938(4) 0.15420(10)
C6E C 0.4250(4) 0.2431(4) 0.2300(2)
C5E C 0.4214(4) 0.1226(4) 0.2296(2)
H7E H 0.3669 0.0840 0.2158
H8E H 0.6279 0.2840 0.2845
H1E H 0.679(3) 0.476(4) 0.2250(10)
H2E H 0.678(3) 0.487(5) 0.2850(10)
O1 O 0.2599(3) -0.5733(4) 0.1471(2)
O2 O 0.2301(5) -0.3437(5) 0.1555(2)
O3 O 0.2327(5) -0.2552(5) 0.0736(3)
O4 O 0.0503(5) -0.4245(7) -0.0891(2)
O5 O 0.0286(4) -0.6118(7) -0.0935(2)
O6 O 0.1809(4) -0.8588(5) 0.0504(3)
O7 O 0.2297(7) -0.7948(6) 0.1321(3)
N4 N 0.2217(4) -0.3420(5) 0.1025(2)
N5 N 0.0620(4) -0.5235(7) -0.0697(2)
N6 N 0.1970(5) -0.7783(5) 0.0832(3)
C12 C 0.2131(3) -0.5608(4) 0.09600(10)
C13 C 0.1966(3) -0.4499(3) 0.0723(2)
C14 C 0.1482(3) -0.4375(3) 0.0174(2)
C15 C 0.1163(2) -0.5361(4) -0.01380(10)
C16 C 0.1327(3) -0.6470(3) 0.0099(2)
C17 C 0.1811(3) -0.6594(3) 0.0648(2)
H13 H 0.1373 -0.3633 0.0016
H14 H 0.1113 -0.7130 -0.0110
O9 O 0.2530(4) -0.5471(4) 0.34160(10)
H3 H 0.253(5) -0.617(2) 0.355(2)
H4 H 0.263(5) -0.500(3) 0.370(2)
loop_
_geom_bond_atom_site_label_1
_geom_bond_atom_site_label_2
_geom_bond_site_symmetry_1
_geom_bond_site_symmetry_2
Zn1 O8 1_555 1_555
O1 C12 1_555 1_555
O2 N4 1_555 1_555
O3 N4 1_555 1_555
O4 N5 1_555 1_555
O5 N5 1_555 1_555
O6 N6 1_555 1_555
O7 N6 1_555 1_555
O8 H1 1_555 1_555
O9 H3 1_555 1_555
N1 C1 1_555 1_555
N2 Zn1 1_555 1_555
N3 Zn1 1_555 1_555
N4 C13 1_555 1_555
N5 C15 1_555 1_555
N6 C17 1_555 1_555
C1 C2 1_555 1_555
C2 C3 1_555 1_555
C3 C4 1_555 1_555
C4 C5 1_555 1_555
C5 C6 1_555 1_555
C6 N2 1_555 1_555
C7 N3 1_555 1_555
C8 C7 1_555 1_555
C9 C8 1_555 1_555
C10 C11 1_555 1_555
C11 H12 1_555 1_555
C12 C13 1_555 1_555
C13 C14 1_555 1_555
C14 C15 1_555 1_555
C15 C16 1_555 1_555
C16 C17 1_555 1_555
C17 C12 1_555 1_555
H2 O8 1_555 1_555
H4 O9 1_555 1_555
H5 C1 1_555 1_555
H6 C2 1_555 1_555
H7 C5 1_555 1_555
H8 C6E 1_555 1_555
H9 C7D 1_555 1_555
H10 C8D 1_555 1_555
H11 C10 1_555 1_555
H13 C14 1_555 1_555
H14 C16 1_555 1_555
C2E C3 1_555 1_555
C1E N1 1_555 1_555
H5E C1E 1_555 1_555
H6E C2E 1_555 1_555
Zn1_2 N1 1_555 1_555
O8E Zn1 1_555 1_555
N1_2 Zn1 1_555 1_555
C9D C9 1_555 1_555
C8D C9D 1_555 1_555
C7D C8D 1_555 1_555
N3D C11 1_555 1_555
Zn1A N3D 1_555 1_555
C10D C9 1_555 1_555
C11D N3 1_555 1_555
H12D C11D 1_555 1_555
H11D C10D 1_555 1_555
H10D C8 1_555 1_555
H9D C7 1_555 1_555
N3E Zn1 1_555 1_555
C6E N2 1_555 1_555
C5E C4 1_555 1_555
H7E C5E 1_555 1_555
H8E C6 1_555 1_555
H1E O8E 1_555 1_555
H2E O8E 1_555 1_555
C10 C9D 1_555 1_555
C2E C1E 1_555 1_555
C7D N3D 1_555 1_555
C10D C11D 1_555 1_555
C6E C5E 1_555 1_555

#END
