
#######################################################################
#
#                 Cambridge Crystallographic Data Centre
#                                CCDC 
#
#######################################################################
#
# If this CIF has been generated from an entry in the Cambridge 
# Structural Database, then it will include bibliographic, chemical, 
# crystal, experimental, refinement or atomic coordinate data resulting 
# from the CCDC's data processing and validation procedures.
#
#######################################################################

data_EGEROY
_symmetry_cell_setting           monoclinic
_symmetry_space_group_name_H-M   'P 21/c'
_symmetry_Int_Tables_number      14
_space_group_name_Hall           '-P 2ybc'
loop_
_symmetry_equiv_pos_site_id
_symmetry_equiv_pos_as_xyz
1 x,y,z
2 -x,1/2+y,1/2-z
3 -x,-y,-z
4 x,1/2-y,1/2+z
_cell_length_a                   10.287(2)
_cell_length_b                   15.608(3)
_cell_length_c                   34.978(7)
_cell_angle_alpha                90
_cell_angle_beta                 97.82(3)
_cell_angle_gamma                90
_cell_volume                     5563.82
loop_
_atom_site_label
_atom_site_type_symbol
_atom_site_fract_x
_atom_site_fract_y
_atom_site_fract_z
Mn1 Mn 0.72272(13) 0.64111(8) 0.25409(4)
Mn2 Mn 1.22566(13) 0.78519(8) 0.26115(5)
C1 C 0.9815(10) 0.6977(5) 0.2375(3)
C2 C 0.9632(9) 0.7384(5) 0.2768(3)
O1 O 0.8800(6) 0.6639(4) 0.21890(18)
O2 O 0.8534(6) 0.7312(4) 0.28785(18)
O3 O 1.0909(6) 0.7023(4) 0.2268(2)
O4 O 1.0604(6) 0.7765(4) 0.29446(18)
C3 C 0.4740(10) 0.7310(6) 0.2382(3)
C4 C 0.4660(9) 0.6839(5) 0.2762(3)
O5 O 0.5784(7) 0.7252(4) 0.22377(19)
O6 O 0.5621(6) 0.6387(3) 0.29004(18)
O7 O 0.3739(7) 0.7692(4) 0.2229(2)
O8 O 0.3595(6) 0.6924(3) 0.29045(18)
C5 C 0.7051(9) 0.4665(5) 0.2258(3)
C6 C 0.7974(9) 0.4645(6) 0.2636(3)
O9 O 0.6559(6) 0.5368(4) 0.21482(18)
O10 O 0.8179(6) 0.5327(4) 0.28255(19)
O11 O 0.6840(6) 0.3959(4) 0.20752(19)
O12 O 0.8517(6) 0.3933(4) 0.2731(2)
Mn2_2 Mn 0.22566(13) 0.78519(8) 0.26115(5)
Mn2A Mn 0.77434(13) 0.28519(8) 0.23885(5)
O7_2 O 1.3739(7) 0.7692(4) 0.2229(2)
O8_2 O 1.3595(6) 0.6924(3) 0.29045(18)
O11A O 1.3160(6) 0.8959(4) 0.29248(19)
O12A O 1.1483(6) 0.8933(4) 0.2269(2)
Fe1 Fe 0.35507(13) 0.48263(8) 0.38167(4)
C7 C 0.2864(11) 0.3588(7) 0.4403(3)
C8 C 0.1960(13) 0.3346(8) 0.4642(4)
H1 H 0.1302 0.3727 0.4686
C9 C 0.2017(15) 0.2541(10) 0.4819(4)
H2 H 0.1427 0.2397 0.4987
C10 C 0.2961(15) 0.1961(9) 0.4740(4)
H3 H 0.2973 0.1416 0.4847
C11 C 0.3870(13) 0.2170(7) 0.4508(3)
H4 H 0.4512 0.1774 0.4466
C12 C 0.3851(11) 0.2989(6) 0.4329(3)
C13 C 0.4881(10) 0.3204(7) 0.4109(3)
H5 H 0.5546 0.2803 0.4101
C14 C 0.6100(12) 0.4060(7) 0.3722(4)
H6 H 0.6664 0.3559 0.3736
H7 H 0.6605 0.4541 0.3837
C15 C 0.5574(13) 0.4251(7) 0.3316(5)
H8 H 0.5259 0.3727 0.3187
H9 H 0.6269 0.4481 0.3184
C16 C 0.3432(14) 0.4735(6) 0.2958(4)
H10 H 0.3837 0.4610 0.2729
H11 H 0.2906 0.5249 0.2908
C17 C 0.2562(14) 0.3995(7) 0.3041(3)
H12 H 0.1784 0.3985 0.2850
H13 H 0.3029 0.3459 0.3022
C18 C 0.0862(10) 0.4480(7) 0.3444(4)
H14 H 0.0590 0.4394 0.3696
H15 H 0.0208 0.4225 0.3251
C19 C 0.1000(10) 0.5447(6) 0.3364(3)
H16 H 0.1069 0.5541 0.3093
H17 H 0.0241 0.5756 0.3428
C20 C 0.2373(11) 0.6564(7) 0.3637(3)
H18 H 0.1718 0.6915 0.3512
C21 C 0.3489(10) 0.6976(6) 0.3850(3)
C22 C 0.3490(13) 0.7901(6) 0.3840(3)
H19 H 0.2797 0.8185 0.3695
C23 C 0.4487(13) 0.8376(7) 0.4041(3)
H20 H 0.4477 0.8972 0.4033
C24 C 0.5497(11) 0.7936(6) 0.4252(3)
H21 H 0.6168 0.8247 0.4393
C25 C 0.5563(10) 0.7044(7) 0.4264(3)
H22 H 0.6268 0.6774 0.4410
O13 O 0.2778(7) 0.4382(4) 0.4244(2)
O14 O 0.4623(6) 0.5713(4) 0.4065(2)
N1 N 0.4962(8) 0.3900(5) 0.3922(3)
N2 N 0.4480(9) 0.4883(5) 0.3296(3)
H23 H 0.4816 0.5418 0.3275
N3 N 0.2173(8) 0.4075(5) 0.3429(2)
H24 H 0.2150 0.3539 0.3530
N4 N 0.2198(8) 0.5748(5) 0.3605(2)
C26 C 0.4570(10) 0.6556(6) 0.4055(3)
Fe2 Fe 0.13437(13) 0.42674(8) 0.11614(4)
N5 N 0.2581(7) 0.3389(5) 0.1442(2)
O15 O 0.0429(7) 0.3369(4) 0.0877(2)
N6 N 0.2338(8) 0.5013(5) 0.1610(3)
H25 H 0.2496 0.5494 0.1476
N7 N 0.0027(8) 0.5110(5) 0.0891(3)
N8 N -0.0059(9) 0.4309(5) 0.1556(3)
H26 H -0.0414 0.3781 0.1578
O16 O 0.2575(7) 0.4662(6) 0.0836(2)
C27 C 0.0593(9) 0.2534(5) 0.0881(3)
C28 C -0.0268(10) 0.2016(6) 0.0638(3)
H27 H -0.0940 0.2279 0.0474
C29 C -0.0170(11) 0.1139(6) 0.0627(3)
H28 H -0.0756 0.0816 0.0460
C30 C 0.0822(11) 0.0750(6) 0.0872(4)
H29 H 0.0910 0.0157 0.0868
C31 C 0.1668(10) 0.1218(6) 0.1118(3)
H30 H 0.2315 0.0939 0.1284
C32 C 0.1596(10) 0.2108(6) 0.1129(3)
C33 C 0.2525(9) 0.2565(6) 0.1390(3)
H31 H 0.3161 0.2240 0.1540
C34 C 0.3614(10) 0.3706(6) 0.1740(3)
H32 H 0.4449 0.3445 0.1709
H33 H 0.3405 0.3562 0.1995
C35 C 0.3691(11) 0.4667(6) 0.1696(4)
H34 H 0.4131 0.4919 0.1932
H35 H 0.4188 0.4807 0.1488
C39 C 0.159(2) 0.496(2) 0.1968(8)
H42 H 0.1823 0.4436 0.2111
H43 H 0.1815 0.5442 0.2138
C40 C 0.011(2) 0.4965(16) 0.1821(7)
H44 H -0.0403 0.4862 0.2030
H45 H -0.0159 0.5509 0.1701
C41 C -0.146(2) 0.4515(16) 0.1249(8)
H46 H -0.1722 0.4010 0.1095
H47 H -0.2170 0.4658 0.1396
C42 C -0.1256(11) 0.5141(10) 0.1028(4)
H48 H -0.1860 0.4741 0.0886
H49 H -0.1626 0.5713 0.0998
C43 C 0.0134(10) 0.5495(7) 0.0569(4)
H50 H -0.0612 0.5771 0.0448
C44 C 0.1306(9) 0.5539(6) 0.0377(3)
C45 C 0.1252(11) 0.6004(6) 0.0024(3)
H51 H 0.0462 0.6247 -0.0085
C46 C 0.2329(10) 0.6100(6) -0.0158(3)
H52 H 0.2278 0.6402 -0.0388
C47 C 0.3506(11) 0.5739(7) 0.0006(3)
H53 H 0.4250 0.5807 -0.0115
C48 C 0.3592(11) 0.5279(7) 0.0348(3)
H54 H 0.4401 0.5064 0.0458
C49 C 0.2468(10) 0.5132(7) 0.0532(3)
N9 N 0.7128(9) 0.3852(6) 0.4821(3)
O17 O 0.8613(10) 0.3625(5) 0.4401(3)
C50 C 0.6362(12) 0.3474(8) 0.5098(3)
H55 H 0.5858 0.3912 0.5202
H56 H 0.6942 0.3211 0.5303
H57 H 0.5782 0.3048 0.4971
C51 C 0.6993(17) 0.4762(7) 0.4765(4)
H58 H 0.6387 0.4983 0.4927
H59 H 0.6671 0.4879 0.4500
H60 H 0.7832 0.5031 0.4832
C52 C 0.7938(12) 0.3350(8) 0.4630(4)
H61 H 0.7966 0.2765 0.4681
O18 O 0.8149(7) 0.7214(4) 0.1421(2)
O19 O 0.5876(10) 0.6128(6) 0.1376(3)
O20 O 0.3078(14) 0.6850(6) 0.1456(3)
O21 O 0.0526(10) 0.7320(6) 0.1037(3)
C36? C 0.177(5) 0.535(3) 0.1891(16)
H36? H 0.1245 0.5852 0.1806
H37? H 0.2400 0.5501 0.2114
C37? C 0.092(4) 0.4569(15) 0.1965(7)
H38? H 0.0392 0.4702 0.2167
H39? H 0.1484 0.4087 0.2051
C38? C -0.099(3) 0.488(2) 0.1478(10)
H40? H -0.0755 0.5390 0.1630
H41? H -0.1794 0.4654 0.1554
loop_
_geom_bond_atom_site_label_1
_geom_bond_atom_site_label_2
_geom_bond_site_symmetry_1
_geom_bond_site_symmetry_2
Mn1 O1 1_555 1_555
Mn2 O3 1_555 1_555
C1 C2 1_555 1_555
C2 O2 1_555 1_555
O1 C1 1_555 1_555
O2 Mn1 1_555 1_555
O3 C1 1_555 1_555
O4 Mn2 1_555 1_555
C3 C4 1_555 1_555
C4 O6 1_555 1_555
O5 Mn1 1_555 1_555
O6 Mn1 1_555 1_555
O7 C3 1_555 1_555
O8 C4 1_555 1_555
C5 C6 1_555 1_555
C6 O10 1_555 1_555
O9 Mn1 1_555 1_555
O10 Mn1 1_555 1_555
O11 C5 1_555 1_555
O12 C6 1_555 1_555
Fe1 O13 1_555 1_555
Fe2 N5 1_555 1_555
C7 C8 1_555 1_555
C8 H1 1_555 1_555
C9 C8 1_555 1_555
H2 C9 1_555 1_555
C10 C9 1_555 1_555
H3 C10 1_555 1_555
C11 C10 1_555 1_555
H4 C11 1_555 1_555
C12 C7 1_555 1_555
C13 C12 1_555 1_555
H5 C13 1_555 1_555
C14 H6 1_555 1_555
H7 C14 1_555 1_555
C15 C14 1_555 1_555
H8 C15 1_555 1_555
H9 C15 1_555 1_555
C16 H10 1_555 1_555
H11 C16 1_555 1_555
C17 C16 1_555 1_555
H12 C17 1_555 1_555
H13 C17 1_555 1_555
C18 H14 1_555 1_555
H15 C18 1_555 1_555
C19 C18 1_555 1_555
H16 C19 1_555 1_555
H17 C19 1_555 1_555
C20 H18 1_555 1_555
C21 C20 1_555 1_555
C22 C21 1_555 1_555
H19 C22 1_555 1_555
C23 C22 1_555 1_555
H20 C23 1_555 1_555
C24 C23 1_555 1_555
H21 C24 1_555 1_555
C25 C24 1_555 1_555
H22 C25 1_555 1_555
O13 C7 1_555 1_555
O14 Fe1 1_555 1_555
N1 Fe1 1_555 1_555
N2 Fe1 1_555 1_555
H23 N2 1_555 1_555
N3 Fe1 1_555 1_555
H24 N3 1_555 1_555
N4 Fe1 1_555 1_555
N5 C33 1_555 1_555
O15 Fe2 1_555 1_555
N6 Fe2 1_555 1_555
H25 N6 1_555 1_555
N7 Fe2 1_555 1_555
N8 Fe2 1_555 1_555
H26 N8 1_555 1_555
O16 Fe2 1_555 1_555
C26 C21 1_555 1_555
C27 O15 1_555 1_555
C28 C27 1_555 1_555
H27 C28 1_555 1_555
C29 C28 1_555 1_555
H28 C29 1_555 1_555
C30 C29 1_555 1_555
H29 C30 1_555 1_555
C31 C30 1_555 1_555
H30 C31 1_555 1_555
C32 C27 1_555 1_555
C33 C32 1_555 1_555
H31 C33 1_555 1_555
C34 N5 1_555 1_555
H32 C34 1_555 1_555
H33 C34 1_555 1_555
C35 N6 1_555 1_555
H34 C35 1_555 1_555
H35 C35 1_555 1_555
C39 N6 1_555 1_555
H42 C39 1_555 1_555
H43 C39 1_555 1_555
C40 N8 1_555 1_555
H44 C40 1_555 1_555
H45 C40 1_555 1_555
C41 N8 1_555 1_555
H46 C41 1_555 1_555
H47 C41 1_555 1_555
C42 N7 1_555 1_555
H48 C42 1_555 1_555
H49 C42 1_555 1_555
C43 N7 1_555 1_555
H50 C43 1_555 1_555
C44 C43 1_555 1_555
C45 C44 1_555 1_555
H51 C45 1_555 1_555
C46 C45 1_555 1_555
H52 C46 1_555 1_555
C47 C46 1_555 1_555
H53 C47 1_555 1_555
C48 C47 1_555 1_555
H54 C48 1_555 1_555
C49 O16 1_555 1_555
N9 C50 1_555 1_555
O17 C52 1_555 1_555
C50 H55 1_555 1_555
H56 C50 1_555 1_555
H57 C50 1_555 1_555
C51 N9 1_555 1_555
H58 C51 1_555 1_555
H59 C51 1_555 1_555
H60 C51 1_555 1_555
C52 N9 1_555 1_555
H61 C52 1_555 1_555
Mn2_2 O7 1_555 1_555
Mn2A O11 1_555 1_555
O7_2 Mn2 1_555 1_555
O8_2 Mn2 1_555 1_555
O11A Mn2 1_555 1_555
O12A Mn2 1_555 1_555
C2 O4 1_555 1_555
C3 O5 1_555 1_555
O8 Mn2_2 1_555 1_555
C5 O9 1_555 1_555
O12 Mn2A 1_555 1_555
C11 C12 1_555 1_555
C13 N1 1_555 1_555
C14 N1 1_555 1_555
C15 N2 1_555 1_555
C16 N2 1_555 1_555
C17 N3 1_555 1_555
C18 N3 1_555 1_555
C19 N4 1_555 1_555
C20 N4 1_555 1_555
C25 C26 1_555 1_555
O14 C26 1_555 1_555
C31 C32 1_555 1_555
C34 C35 1_555 1_555
C39 C40 1_555 1_555
C41 C42 1_555 1_555
C44 C49 1_555 1_555
C48 C49 1_555 1_555

#END
