
#######################################################################
#
#                 Cambridge Crystallographic Data Centre
#                                CCDC 
#
#######################################################################
#
# If this CIF has been generated from an entry in the Cambridge 
# Structural Database, then it will include bibliographic, chemical, 
# crystal, experimental, refinement or atomic coordinate data resulting 
# from the CCDC's data processing and validation procedures.
#
#######################################################################

data_EGIBED
_symmetry_cell_setting           triclinic
_symmetry_space_group_name_H-M   'P -1'
_symmetry_Int_Tables_number      2
_space_group_name_Hall           '-P 1'
loop_
_symmetry_equiv_pos_site_id
_symmetry_equiv_pos_as_xyz
1 x,y,z
2 -x,-y,-z
_cell_length_a                   9.779(2)
_cell_length_b                   10.868(2)
_cell_length_c                   20.395(4)
_cell_angle_alpha                100.77(3)
_cell_angle_beta                 92.74(3)
_cell_angle_gamma                91.79(3)
_cell_volume                     2125.15
loop_
_atom_site_label
_atom_site_type_symbol
_atom_site_fract_x
_atom_site_fract_y
_atom_site_fract_z
Gd1 Gd 0.87548(3) 0.20441(2) 0.161924(14)
Gd2 Gd 0.69483(3) -0.19095(2) 0.358096(14)
Cd1 Cd 0.70233(4) 0.23606(4) 0.33624(2)
Cd2 Cd 0.86014(4) -0.22702(4) 0.18168(2)
O1 O 0.3655(5) 0.1037(4) 0.5278(2)
O2 O 0.7230(5) 0.0722(5) 0.0797(2)
H1 H 0.7346 -0.0044 0.0819
H2 H 0.6403 0.0899 0.0875
O3 O 0.4679(5) 0.2855(4) 0.5717(2)
O4 O 1.0508(4) 0.3724(4) 0.1777(2)
H3 H 1.0982 0.3655 0.1431
H4 H 1.0127 0.4430 0.1837
O5 O 0.7029(4) 0.4613(4) 0.3473(2)
O6 O 0.4764(5) -0.0968(5) 0.3442(3)
H5 H 0.4350 -0.1335 0.3072
H6 H 0.4259 -0.1051 0.3767
O7 O 0.6127(5) 0.6093(4) 0.2986(2)
O8 O 0.8232(5) -0.3232(4) 0.4202(2)
H7 H 0.7977 -0.4036 0.4067
H8 H 0.9125 -0.3157 0.4145
O9 O 0.9024(4) 0.2812(4) 0.2845(2)
O10 O 1.0967(5) 0.3979(5) 0.3056(2)
O11 O 0.4928(5) 0.1214(6) 0.1388(2)
O12 O 0.6613(4) 0.1633(4) 0.2186(2)
O13 O 0.7582(4) 0.0369(4) 0.3594(2)
O14 O 0.8996(5) -0.0619(4) 0.4175(2)
O15 O 1.0587(5) -0.2970(5) 0.3644(2)
O16 O 0.9024(4) -0.2372(4) 0.2954(2)
O17 O 0.6600(4) -0.1756(4) 0.2377(2)
O18 O 0.4463(5) -0.1259(5) 0.2157(3)
O19 O 0.7314(5) -0.6213(4) 0.1631(2)
O20 O 0.8677(4) -0.4480(4) 0.1758(2)
O21 O 0.9170(4) -0.0126(4) 0.1872(2)
O22 O 1.0870(4) 0.1277(4) 0.2097(2)
O23 O 0.9825(5) -0.1239(4) -0.0700(2)
O24 O 1.0993(5) -0.2843(4) -0.0526(2)
N1 N 0.8891(5) 0.2647(4) 0.4172(2)
N2 N 0.5922(5) 0.2893(4) 0.4428(2)
N3 N 0.4811(5) 0.2934(4) 0.3048(2)
N4 N 1.0971(5) -0.2041(4) 0.2064(2)
N5 N 0.9538(5) -0.2854(4) 0.0711(2)
N6 N 0.6717(5) -0.3225(4) 0.1125(2)
C1 C 0.8665(7) 0.0342(5) 0.3958(3)
C2 C 0.9629(6) 0.1488(5) 0.4113(3)
H9 H 1.0155 0.1485 0.4528
H10 H 1.0266 0.1454 0.3760
C3 C 0.8380(7) 0.2992(6) 0.4855(3)
H11 H 0.9060 0.3543 0.5137
H12 H 0.8274 0.2238 0.5042
C4 C 0.7010(7) 0.3643(5) 0.4872(3)
H13 H 0.6716 0.3798 0.5327
H14 H 0.7139 0.4447 0.4738
C5 C 0.5429(7) 0.1753(5) 0.4662(3)
H15 H 0.6225 0.1304 0.4771
H16 H 0.4921 0.1218 0.4290
C6 C 0.4537(7) 0.1922(5) 0.5256(3)
C7 C 0.4750(7) 0.3633(6) 0.4275(3)
H17 H 0.5083 0.4465 0.4235
H18 H 0.4143 0.3723 0.4642
C8 C 0.3954(7) 0.3031(6) 0.3635(3)
H19 H 0.3619 0.2200 0.3674
H20 H 0.3168 0.3525 0.3568
C9 C 0.4274(6) 0.1928(5) 0.2494(3)
H21 H 0.3471 0.2211 0.2277
H22 H 0.3999 0.1198 0.2674
C10 C 0.5347(7) 0.1560(6) 0.1977(3)
C11 C 0.4913(7) 0.4148(6) 0.2809(3)
H23 H 0.4078 0.4589 0.2905
H24 H 0.4979 0.3973 0.2328
C12 C 0.6124(6) 0.4999(5) 0.3120(3)
C13 C 0.9790(6) 0.3644(5) 0.3994(3)
H25 H 1.0687 0.3638 0.4218
H26 H 0.9410 0.4453 0.4153
C14 C 0.9946(6) 0.3474(5) 0.3235(3)
C15 C 1.0225(6) -0.2719(5) 0.3099(3)
C16 C 1.1272(6) -0.2834(6) 0.2562(3)
H27 H 1.2176 -0.2597 0.2773
H28 H 1.1283 -0.3702 0.2336
C17 C 1.1301(6) -0.0709(5) 0.2371(3)
H29 H 1.2250 -0.0509 0.2302
H30 H 1.1199 -0.0597 0.2849
C18 C 1.0400(6) 0.0193(5) 0.2088(3)
C19 C 1.1699(6) -0.2421(6) 0.1436(3)
H31 H 1.2549 -0.2797 0.1542
H32 H 1.1932 -0.1677 0.1260
C20 C 1.0881(6) -0.3330(6) 0.0907(3)
H33 H 1.1415 -0.3522 0.0515
H34 H 1.0719 -0.4103 0.1069
C21 C 0.8579(7) -0.3832(6) 0.0339(3)
H35 H 0.8708 -0.4606 0.0501
H36 H 0.8774 -0.3980 -0.0131
C22 C 0.7096(7) -0.3464(6) 0.0413(3)
H37 H 0.6956 -0.2715 0.0228
H38 H 0.6497 -0.4131 0.0159
C23 C 0.5634(6) -0.2320(6) 0.1242(3)
H39 H 0.4762 -0.2737 0.1072
H40 H 0.5805 -0.1657 0.0994
C24 C 0.5533(6) -0.1732(5) 0.1987(3)
C25 C 0.9663(6) -0.1771(5) 0.0374(3)
H41 H 1.0275 -0.1145 0.0652
H42 H 0.8769 -0.1411 0.0356
C26 C 1.0179(7) -0.2004(6) -0.0334(3)
C27 C 0.7541(6) -0.5070(5) 0.1595(3)
C28 C 0.6344(6) -0.4400(5) 0.1344(3)
H43 H 0.5865 -0.4963 0.0973
H44 H 0.5711 -0.4217 0.1699
Gd1_2 Gd 0.87548(3) -0.79559(2) 0.161924(14)
Gd1A Gd 1.12452(3) -0.20441(2) -0.161924(14)
Gd2_2 Gd 0.69483(3) 0.80905(2) 0.358096(14)
Gd2A Gd 0.30517(3) 0.19095(2) 0.641904(14)
O1A O 0.6345(5) -0.1037(4) 0.4722(2)
O3A O 0.5321(5) -0.2855(4) 0.4283(2)
O7_2 O 0.6127(5) -0.3907(4) 0.2986(2)
O19_2 O 0.7314(5) 0.3787(4) 0.1631(2)
O23A O 1.0175(5) 0.1239(4) 0.0700(2)
O24A O 0.9007(5) 0.2843(4) 0.0526(2)
O25 O 0.7345(5) -0.0097(5) -0.0553(3)
O26 O 1.425(5) -0.297(4) -0.018(2)
O27 O 0.2378(6) -0.0444(5) 0.4124(3)
O28 O 1.3189(9) 0.3601(10) 0.1172(4)
loop_
_geom_bond_atom_site_label_1
_geom_bond_atom_site_label_2
_geom_bond_site_symmetry_1
_geom_bond_site_symmetry_2
Gd1 O2 1_555 1_555
Gd2 O6 1_555 1_555
Cd1 O5 1_555 1_555
Cd2 O16 1_555 1_555
O1 C6 1_555 1_555
O2 H1 1_555 1_555
H2 O2 1_555 1_555
O3 C6 1_555 1_555
O4 Gd1 1_555 1_555
H3 O4 1_555 1_555
H4 O4 1_555 1_555
O5 C12 1_555 1_555
O6 H5 1_555 1_555
H6 O6 1_555 1_555
O7 C12 1_555 1_555
O8 Gd2 1_555 1_555
H7 O8 1_555 1_555
H8 O8 1_555 1_555
O9 Gd1 1_555 1_555
O10 C14 1_555 1_555
O11 C10 1_555 1_555
O12 Gd1 1_555 1_555
O13 Gd2 1_555 1_555
O14 Gd2 1_555 1_555
O15 C15 1_555 1_555
O16 Gd2 1_555 1_555
O17 Gd2 1_555 1_555
O18 C24 1_555 1_555
O19 C27 1_555 1_555
O20 Cd2 1_555 1_555
O21 Gd1 1_555 1_555
O22 Gd1 1_555 1_555
O23 C26 1_555 1_555
O24 C26 1_555 1_555
N1 Cd1 1_555 1_555
N2 Cd1 1_555 1_555
N3 Cd1 1_555 1_555
N4 Cd2 1_555 1_555
N5 Cd2 1_555 1_555
N6 Cd2 1_555 1_555
C1 O13 1_555 1_555
C2 N1 1_555 1_555
H9 C2 1_555 1_555
H10 C2 1_555 1_555
C3 N1 1_555 1_555
H11 C3 1_555 1_555
H12 C3 1_555 1_555
C4 N2 1_555 1_555
H13 C4 1_555 1_555
H14 C4 1_555 1_555
C5 N2 1_555 1_555
H15 C5 1_555 1_555
H16 C5 1_555 1_555
C6 C5 1_555 1_555
C7 N2 1_555 1_555
H17 C7 1_555 1_555
H18 C7 1_555 1_555
C8 N3 1_555 1_555
H19 C8 1_555 1_555
H20 C8 1_555 1_555
C9 N3 1_555 1_555
H21 C9 1_555 1_555
H22 C9 1_555 1_555
C10 O12 1_555 1_555
C11 N3 1_555 1_555
H23 C11 1_555 1_555
H24 C11 1_555 1_555
C12 C11 1_555 1_555
C13 N1 1_555 1_555
H25 C13 1_555 1_555
H26 C13 1_555 1_555
C14 O9 1_555 1_555
C15 O16 1_555 1_555
C16 N4 1_555 1_555
H27 C16 1_555 1_555
H28 C16 1_555 1_555
C17 N4 1_555 1_555
H29 C17 1_555 1_555
H30 C17 1_555 1_555
C18 O21 1_555 1_555
C19 N4 1_555 1_555
H31 C19 1_555 1_555
H32 C19 1_555 1_555
C20 N5 1_555 1_555
H33 C20 1_555 1_555
H34 C20 1_555 1_555
C21 N5 1_555 1_555
H35 C21 1_555 1_555
H36 C21 1_555 1_555
C22 N6 1_555 1_555
H37 C22 1_555 1_555
H38 C22 1_555 1_555
C23 N6 1_555 1_555
H39 C23 1_555 1_555
H40 C23 1_555 1_555
C24 O17 1_555 1_555
C25 N5 1_555 1_555
H41 C25 1_555 1_555
H42 C25 1_555 1_555
C26 C25 1_555 1_555
C27 O20 1_555 1_555
C28 N6 1_555 1_555
H43 C28 1_555 1_555
H44 C28 1_555 1_555
Gd1_2 O19 1_555 1_555
Gd1A O23 1_555 1_555
Gd2_2 O7 1_555 1_555
Gd2A O1 1_555 1_555
O1A Gd2 1_555 1_555
O3A Gd2 1_555 1_555
O7_2 Gd2 1_555 1_555
O19_2 Gd1 1_555 1_555
O23A Gd1 1_555 1_555
O24A Gd1 1_555 1_555
Cd1 O9 1_555 1_555
Cd1 O12 1_555 1_555
Cd1 O13 1_555 1_555
Cd2 O17 1_555 1_555
Cd2 O21 1_555 1_555
O3 Gd2A 1_555 1_555
O14 C1 1_555 1_555
O22 C18 1_555 1_555
O24 Gd1A 1_555 1_555
C1 C2 1_555 1_555
C3 C4 1_555 1_555
C7 C8 1_555 1_555
C9 C10 1_555 1_555
C13 C14 1_555 1_555
C15 C16 1_555 1_555
C17 C18 1_555 1_555
C19 C20 1_555 1_555
C21 C22 1_555 1_555
C23 C24 1_555 1_555
C27 C28 1_555 1_555

#END
