
#######################################################################
#
#                 Cambridge Crystallographic Data Centre
#                                CCDC 
#
#######################################################################
#
# If this CIF has been generated from an entry in the Cambridge 
# Structural Database, then it will include bibliographic, chemical, 
# crystal, experimental, refinement or atomic coordinate data resulting 
# from the CCDC's data processing and validation procedures.
#
#######################################################################

data_EGIGOS
_symmetry_cell_setting           monoclinic
_symmetry_space_group_name_H-M   'P 21/c'
_symmetry_Int_Tables_number      14
_space_group_name_Hall           '-P 2ybc'
loop_
_symmetry_equiv_pos_site_id
_symmetry_equiv_pos_as_xyz
1 x,y,z
2 -x,1/2+y,1/2-z
3 -x,-y,-z
4 x,1/2-y,1/2+z
_cell_length_a                   16.213(6)
_cell_length_b                   10.296(4)
_cell_length_c                   24.666(9)
_cell_angle_alpha                90
_cell_angle_beta                 100.109(6)
_cell_angle_gamma                90
_cell_volume                     4053.55
loop_
_atom_site_label
_atom_site_type_symbol
_atom_site_fract_x
_atom_site_fract_y
_atom_site_fract_z
Re1 Re 0.10482(2) 0.08904(3) 0.417163(12)
Cu1 Cu -0.02757(6) 0.24704(9) 0.38610(4)
Cu2 Cu 0.04445(6) -0.02030(9) 0.32203(4)
Cu3 Cu 0.17682(6) 0.24718(9) 0.35189(4)
P1 P -0.13839(12) 0.33723(19) 0.41455(8)
P2 P 0.30046(13) 0.3381(2) 0.34437(9)
S1 S -0.02663(13) 0.0265(2) 0.39134(9)
S2 S 0.10703(12) 0.30504(19) 0.42132(8)
S3 S 0.18109(12) 0.02625(19) 0.35571(9)
S4 S 0.00892(12) 0.25287(17) 0.26347(7)
O1 O 0.1447(4) 0.0232(6) 0.4818(2)
O2 O 0.0963(3) 0.2975(5) 0.2811(2)
O3 O -0.0432(3) 0.2965(5) 0.3029(2)
O4 O 0.0060(4) 0.1117(4) 0.2583(2)
O5 O -0.0239(3) 0.3081(5) 0.2090(2)
C1 C -0.1343(5) 0.3322(6) 0.4887(3)
C2 C -0.0571(5) 0.3328(8) 0.5225(3)
H1 H -0.0082 0.3351 0.5077
C3 C -0.0539(6) 0.3298(9) 0.5799(4)
H2 H -0.0022 0.3262 0.6031
C4 C -0.1239(6) 0.3320(9) 0.6014(4)
H3 H -0.1206 0.3328 0.6395
C5 C -0.1991(6) 0.3333(11) 0.5684(4)
H4 H -0.2474 0.3352 0.5840
C6 C -0.2062(5) 0.3317(9) 0.5121(4)
H5 H -0.2587 0.3303 0.4898
C7 C -0.2358(5) 0.2551(7) 0.3872(3)
C8 C -0.3030(6) 0.3165(9) 0.3530(4)
H6 H -0.3003 0.4042 0.3445
C9 C -0.3738(6) 0.2428(11) 0.3320(4)
H7 H -0.4177 0.2822 0.3084
C10 C -0.3802(6) 0.1187(11) 0.3447(5)
H8 H -0.4283 0.0721 0.3304
C11 C -0.3156(6) 0.0595(9) 0.3790(5)
H9 H -0.3209 -0.0267 0.3893
C12 C -0.2436(5) 0.1255(9) 0.3983(4)
H10 H -0.1989 0.0820 0.4194
C13 C -0.1581(4) 0.5052(7) 0.3941(3)
C14 C -0.1516(5) 0.5416(8) 0.3411(3)
H11 H -0.1361 0.4805 0.3170
C15 C -0.1682(5) 0.6697(9) 0.3233(4)
H12 H -0.1652 0.6933 0.2873
C16 C -0.1891(6) 0.7602(9) 0.3597(4)
H13 H -0.2008 0.8450 0.3479
C17 C -0.1928(6) 0.7271(9) 0.4128(4)
H14 H -0.2046 0.7899 0.4375
C18 C -0.1792(5) 0.6009(8) 0.4297(3)
H15 H -0.1840 0.5783 0.4655
C19 C 0.2954(5) 0.5083(7) 0.3234(3)
C20 C 0.2258(5) 0.5460(9) 0.2860(4)
H16 H 0.1832 0.4871 0.2736
C21 C 0.2205(6) 0.6741(9) 0.2671(4)
H17 H 0.1746 0.7004 0.2414
C22 C 0.2825(7) 0.7613(9) 0.2863(4)
H18 H 0.2783 0.8465 0.2736
C23 C 0.3516(7) 0.7235(9) 0.3246(4)
H19 H 0.3929 0.7830 0.3387
C24 C 0.3574(5) 0.5954(8) 0.3411(4)
H20 H 0.4050 0.5677 0.3650
C25 C 0.3545(5) 0.2574(7) 0.2941(3)
C26 C 0.3781(6) 0.3236(9) 0.2505(4)
H21 H 0.3687 0.4124 0.2463
C27 C 0.4161(6) 0.2549(10) 0.2132(4)
H22 H 0.4318 0.2990 0.1837
C28 C 0.4309(6) 0.1282(10) 0.2183(4)
H23 H 0.4574 0.0852 0.1930
C29 C 0.4071(6) 0.0609(9) 0.2608(4)
H24 H 0.4160 -0.0282 0.2636
C30 C 0.3701(5) 0.1235(9) 0.2993(4)
H25 H 0.3554 0.0776 0.3286
C31 C 0.3755(6) 0.3350(8) 0.4083(4)
C32 C 0.4616(6) 0.3192(11) 0.4097(5)
H26 H 0.4825 0.3075 0.3773
C33 C 0.5144(8) 0.3212(13) 0.4593(7)
H27 H 0.5715 0.3093 0.4604
C34 C 0.4851(11) 0.3405(13) 0.5082(6)
H28 H 0.5218 0.3429 0.5417
C35 C 0.4013(9) 0.3560(13) 0.5061(5)
H29 H 0.3804 0.3701 0.5383
C36 C 0.3481(7) 0.3509(10) 0.4573(4)
H30 H 0.2908 0.3584 0.4571
Cu2A Cu -0.04445(6) 0.47970(9) 0.17797(4)
O5A O 0.0239(3) -0.1919(5) 0.2910(2)
loop_
_geom_bond_atom_site_label_1
_geom_bond_atom_site_label_2
_geom_bond_site_symmetry_1
_geom_bond_site_symmetry_2
Re1 S1 1_555 1_555
Cu1 P1 1_555 1_555
Cu2 S1 1_555 1_555
Cu3 P2 1_555 1_555
P1 C1 1_555 1_555
P2 C19 1_555 1_555
S1 Cu1 1_555 1_555
S2 Re1 1_555 1_555
S3 Re1 1_555 1_555
S4 O2 1_555 1_555
O1 Re1 1_555 1_555
O2 Cu3 1_555 1_555
O3 Cu1 1_555 1_555
O4 Cu2 1_555 1_555
O5 S4 1_555 1_555
C1 C2 1_555 1_555
C2 H1 1_555 1_555
C3 C2 1_555 1_555
H2 C3 1_555 1_555
C4 C3 1_555 1_555
H3 C4 1_555 1_555
C5 C4 1_555 1_555
H4 C5 1_555 1_555
C6 C1 1_555 1_555
H5 C6 1_555 1_555
C7 P1 1_555 1_555
C8 C7 1_555 1_555
H6 C8 1_555 1_555
C9 C8 1_555 1_555
H7 C9 1_555 1_555
C10 C9 1_555 1_555
H8 C10 1_555 1_555
C11 C10 1_555 1_555
H9 C11 1_555 1_555
C12 C7 1_555 1_555
H10 C12 1_555 1_555
C13 P1 1_555 1_555
C14 C13 1_555 1_555
H11 C14 1_555 1_555
C15 C14 1_555 1_555
H12 C15 1_555 1_555
C16 C15 1_555 1_555
H13 C16 1_555 1_555
C17 C16 1_555 1_555
H14 C17 1_555 1_555
C18 C13 1_555 1_555
H15 C18 1_555 1_555
C19 C20 1_555 1_555
C20 H16 1_555 1_555
C21 C20 1_555 1_555
H17 C21 1_555 1_555
C22 C21 1_555 1_555
H18 C22 1_555 1_555
C23 C22 1_555 1_555
H19 C23 1_555 1_555
C24 C19 1_555 1_555
H20 C24 1_555 1_555
C25 P2 1_555 1_555
C26 C25 1_555 1_555
H21 C26 1_555 1_555
C27 C26 1_555 1_555
H22 C27 1_555 1_555
C28 C27 1_555 1_555
H23 C28 1_555 1_555
C29 C28 1_555 1_555
H24 C29 1_555 1_555
C30 C25 1_555 1_555
H25 C30 1_555 1_555
C31 P2 1_555 1_555
C32 C31 1_555 1_555
H26 C32 1_555 1_555
C33 C32 1_555 1_555
H27 C33 1_555 1_555
C34 C33 1_555 1_555
H28 C34 1_555 1_555
C35 C34 1_555 1_555
H29 C35 1_555 1_555
C36 C31 1_555 1_555
H30 C36 1_555 1_555
Cu2A O5 1_555 1_555
O5A Cu2 1_555 1_555
Cu1 S2 1_555 1_555
Cu2 S3 1_555 1_555
Cu3 S2 1_555 1_555
Cu3 S3 1_555 1_555
S4 O3 1_555 1_555
S4 O4 1_555 1_555
C5 C6 1_555 1_555
C11 C12 1_555 1_555
C17 C18 1_555 1_555
C23 C24 1_555 1_555
C29 C30 1_555 1_555
C35 C36 1_555 1_555

#END
