
#######################################################################
#
#                 Cambridge Crystallographic Data Centre
#                                CCDC 
#
#######################################################################
#
# If this CIF has been generated from an entry in the Cambridge 
# Structural Database, then it will include bibliographic, chemical, 
# crystal, experimental, refinement or atomic coordinate data resulting 
# from the CCDC's data processing and validation procedures.
#
#######################################################################

data_EGIMIR
_symmetry_cell_setting           triclinic
_symmetry_space_group_name_H-M   'P -1'
_symmetry_Int_Tables_number      2
_space_group_name_Hall           '-P 1'
loop_
_symmetry_equiv_pos_site_id
_symmetry_equiv_pos_as_xyz
1 x,y,z
2 -x,-y,-z
_cell_length_a                   7.182(4)
_cell_length_b                   7.989(4)
_cell_length_c                   11.573(6)
_cell_angle_alpha                92.448(9)
_cell_angle_beta                 101.235(9)
_cell_angle_gamma                112.596(8)
_cell_volume                     596.213
loop_
_atom_site_label
_atom_site_type_symbol
_atom_site_fract_x
_atom_site_fract_y
_atom_site_fract_z
Ca1 Ca 0.07708(18) -0.28517(14) 0.42244(10)
S1 S -0.2916(2) -0.73101(18) 0.03828(12)
O1 O -0.0770(7) -0.5557(5) 0.2822(3)
O2 O -0.1756(7) -0.8071(5) 0.3723(3)
O5 O 0.2323(6) -0.5042(5) 0.5046(4)
O6 O 0.2423(8) 0.0410(5) 0.4451(4)
O7 O -0.1812(8) -0.2075(6) 0.3137(5)
O8 O 0.3522(11) -0.2200(7) 0.3265(5)
N1 N -0.4345(7) -1.0049(6) 0.1567(4)
C1 C -0.1730(9) -0.7215(8) 0.2857(5)
C2 C -0.3042(9) -0.8337(7) 0.1667(5)
C3 C -0.4700(9) -0.9374(7) -0.0388(5)
H1 H 0.338(9) -0.459(9) 0.561(5)
H2 H 0.251(10) 0.100(7) 0.386(3)
H3 H 0.275(11) -0.539(9) 0.449(5)
H4 H -0.287(9) -0.285(8) 0.274(6)
H5 H -0.187(11) -0.110(7) 0.308(6)
H6 H 0.286(10) 0.098(7) 0.514(2)
H7 H 0.265(7) -0.258(9) 0.263(4)
H8 H 0.452(6) -0.145(7) 0.315(5)
Ca1A Ca -0.07708(18) -0.71483(14) 0.57756(10)
Ca1A_2 Ca -1.07708(18) -1.71483(14) -0.42244(10)
Ca1_2 Ca -0.92292(18) -1.28517(14) -0.57756(10)
S1A S -0.7084(2) -1.26899(18) -0.03828(12)
O1A O -0.9230(7) -1.4443(5) -0.2822(3)
O2A O 0.1756(7) -0.1929(5) 0.6277(3)
O2A_2 O -0.8244(7) -1.1929(5) -0.3723(3)
O2_2 O -1.1756(7) -1.8071(5) -0.6277(3)
O5A O -0.2323(6) -0.4958(5) 0.4954(4)
O5_2 O -0.7677(6) -1.5042(5) -0.4954(4)
O5A_2 O -1.2323(6) -1.4958(5) -0.5046(4)
O6A O -1.2423(8) -2.0410(5) -0.4451(4)
O7A O -0.8188(8) -1.7925(6) -0.3137(5)
O8A O -1.3522(11) -1.7800(7) -0.3265(5)
N1A N -0.5655(7) -0.9951(6) -0.1567(4)
C1A C -0.8270(9) -1.2785(8) -0.2857(5)
C2A C -0.6958(9) -1.1663(7) -0.1667(5)
C3A C -0.5300(9) -1.0626(7) 0.0388(5)
H1A H -0.338(9) -0.541(9) 0.439(5)
H1_2 H -0.662(9) -1.459(9) -0.439(5)
H1A_2 H -1.338(9) -1.541(9) -0.561(5)
H2A H -1.251(10) -2.100(7) -0.386(3)
H3A H -0.275(11) -0.461(9) 0.551(5)
H3_2 H -0.725(11) -1.539(9) -0.551(5)
H3A_2 H -1.275(11) -1.461(9) -0.449(5)
H4A H -0.713(9) -1.715(8) -0.274(6)
H5A H -0.813(11) -1.890(7) -0.308(6)
H6A H -1.286(10) -2.098(7) -0.514(2)
H7A H -1.265(7) -1.742(9) -0.263(4)
H8A H -1.452(6) -1.855(7) -0.315(5)
S2 S 0.1849(2) -0.73509(19) -0.01568(13)
O3 O 0.4394(7) -0.4648(5) 0.1898(4)
O4 O 0.3901(7) -0.6470(6) 0.3322(4)
N2 N 0.1068(8) -0.9347(6) 0.1562(4)
C4 C 0.3595(9) -0.6126(8) 0.2264(5)
C5 C 0.2148(9) -0.7709(7) 0.1319(5)
C6 C 0.0098(9) -0.9591(7) -0.0511(5)
S2A S -0.1849(2) -1.26491(19) 0.01568(13)
O3A O -0.4394(7) -1.5352(5) -0.1898(4)
O4A O -0.3901(7) -1.3530(6) -0.3322(4)
N2A N -0.1068(8) -1.0653(6) -0.1562(4)
C4A C -0.3595(9) -1.3874(8) -0.2264(5)
C5A C -0.2148(9) -1.2291(7) -0.1319(5)
C6A C -0.0098(9) -1.0409(7) 0.0511(5)
loop_
_geom_bond_atom_site_label_1
_geom_bond_atom_site_label_2
_geom_bond_site_symmetry_1
_geom_bond_site_symmetry_2
Ca1 O1 1_555 1_555
S1 C2 1_555 1_555
S2 C5 1_555 1_555
O1 C1 1_555 1_555
O2 C1 1_555 1_555
O3 C4 1_555 1_555
O4 C4 1_555 1_555
O5 Ca1 1_555 1_555
O6 Ca1 1_555 1_555
O7 Ca1 1_555 1_555
O8 Ca1 1_555 1_555
N1 C2 1_555 1_555
N2 C5 1_555 1_555
C1 C2 1_555 1_555
C3 S1 1_555 1_555
C4 C5 1_555 1_555
C6 S2 1_555 1_555
H1 O5 1_555 1_555
H2 O6 1_555 1_555
H3 O5 1_555 1_555
H4 O7 1_555 1_555
H5 O7 1_555 1_555
H6 O6 1_555 1_555
H7 O8 1_555 1_555
H8 O8 1_555 1_555
Ca1A O2 1_555 1_555
Ca1A_2 O1A 1_555 1_555
Ca1_2 O2A_2 1_555 1_555
S1A C2A 1_555 1_555
S2A C5A 1_555 1_555
O1A C1A 1_555 1_555
O2A Ca1 1_555 1_555
O2A_2 C1A 1_555 1_555
O2_2 Ca1A_2 1_555 1_555
O3A C4A 1_555 1_555
O4A C4A 1_555 1_555
O5A Ca1 1_555 1_555
O5_2 Ca1A_2 1_555 1_555
O5A_2 Ca1A_2 1_555 1_555
O6A Ca1A_2 1_555 1_555
O7A Ca1A_2 1_555 1_555
O8A Ca1A_2 1_555 1_555
N1A C3 1_555 1_555
N2A C6 1_555 1_555
C1A C2A 1_555 1_555
C2A N1A 1_555 1_555
C3A N1 1_555 1_555
C4A C5A 1_555 1_555
C5A N2A 1_555 1_555
C6A N2 1_555 1_555
H1A O5A 1_555 1_555
H1_2 O5_2 1_555 1_555
H1A_2 O5A_2 1_555 1_555
H2A O6A 1_555 1_555
H3A O5A 1_555 1_555
H3_2 O5_2 1_555 1_555
H3A_2 O5A_2 1_555 1_555
H4A O7A 1_555 1_555
H5A O7A 1_555 1_555
H6A O6A 1_555 1_555
H7A O8A 1_555 1_555
H8A O8A 1_555 1_555
O5 Ca1A 1_555 1_555
C3 C3A 1_555 1_555
C6 C6A 1_555 1_555
Ca1A O5A 1_555 1_555
Ca1_2 O5_2 1_555 1_555
Ca1_2 O5A_2 1_555 1_555
S1A C3A 1_555 1_555
S2A C6A 1_555 1_555

#END
