
#######################################################################
#
#                 Cambridge Crystallographic Data Centre
#                                CCDC 
#
#######################################################################
#
# If this CIF has been generated from an entry in the Cambridge 
# Structural Database, then it will include bibliographic, chemical, 
# crystal, experimental, refinement or atomic coordinate data resulting 
# from the CCDC's data processing and validation procedures.
#
#######################################################################

data_EGIMOX
_symmetry_cell_setting           monoclinic
_symmetry_space_group_name_H-M   'P 21/c'
_symmetry_Int_Tables_number      14
_space_group_name_Hall           '-P 2ybc'
loop_
_symmetry_equiv_pos_site_id
_symmetry_equiv_pos_as_xyz
1 x,y,z
2 -x,1/2+y,1/2-z
3 -x,-y,-z
4 x,1/2-y,1/2+z
_cell_length_a                   7.1852(6)
_cell_length_b                   23.6079(18)
_cell_length_c                   6.8973(5)
_cell_angle_alpha                90
_cell_angle_beta                 95.973(2)
_cell_angle_gamma                90
_cell_volume                     1163.62
loop_
_atom_site_label
_atom_site_type_symbol
_atom_site_fract_x
_atom_site_fract_y
_atom_site_fract_z
Sr1 Sr 0.18480(5) 0.196090(13) -0.71066(4)
S1 S 0.30405(12) 0.05406(3) -0.28188(11)
S2 S 0.20491(12) -0.01242(3) 0.24883(12)
O1 O -0.0580(4) 0.26169(11) -0.9379(4)
O2 O -0.0195(4) 0.11272(13) -0.6270(4)
O3 O 0.5314(4) 0.17530(17) -0.6855(4)
O4 O 0.2475(5) -0.16287(10) 0.0119(4)
O5 O 0.2019(4) -0.13723(11) 0.3146(4)
O6 O 0.3046(4) 0.17491(10) -0.3619(3)
O7 O 0.2535(4) 0.20558(9) -0.0669(3)
N1 N 0.2367(4) 0.09350(11) 0.0572(4)
N2 N 0.2734(4) -0.05044(11) -0.0909(4)
C1 C 0.2277(5) -0.12776(14) 0.1409(5)
C2 C 0.2408(5) -0.06630(13) 0.0837(5)
C3 C 0.2743(5) 0.00693(13) -0.0982(4)
C4 C 0.2400(5) 0.03594(13) 0.0683(4)
C5 C 0.2695(5) 0.10810(13) -0.1195(4)
C6 C 0.2779(5) 0.16792(14) -0.1897(5)
H1 H -0.132(5) 0.2369(15) -0.974(6)
H2 H -0.106(5) 0.103(2) -0.706(5)
H3 H -0.113(6) 0.2851(16) -0.881(6)
H4 H -0.064(6) 0.112(2) -0.523(4)
H5 H 0.590(6) 0.174(2) -0.775(5)
H6 H 0.587(6) 0.163(2) -0.590(4)
Sr1C Sr 0.18480(5) 0.303910(13) -1.21066(4)
Sr1_2 Sr 0.18480(5) 0.196090(13) 0.28934(4)
Sr1C_2 Sr 0.18480(5) 0.303910(13) -0.21066(4)
O1C O -0.0580(4) 0.23831(11) -0.4379(4)
O7_2 O 0.2535(4) 0.20558(9) -1.0669(3)
O7C O 0.2535(4) 0.29442(9) -0.5669(3)
N1_2 N 0.2367(4) 0.09350(11) -0.9428(4)
H1C H -0.132(5) 0.2631(15) -0.474(6)
H3C H -0.113(6) 0.2149(16) -0.381(6)
loop_
_geom_bond_atom_site_label_1
_geom_bond_atom_site_label_2
_geom_bond_site_symmetry_1
_geom_bond_site_symmetry_2
Sr1 O1 1_555 1_555
S1 C3 1_555 1_555
S2 C2 1_555 1_555
O1 H1 1_555 1_555
O2 Sr1 1_555 1_555
O3 Sr1 1_555 1_555
O4 C1 1_555 1_555
O5 C1 1_555 1_555
O6 Sr1 1_555 1_555
O7 C6 1_555 1_555
N1 C4 1_555 1_555
N2 C2 1_555 1_555
C1 C2 1_555 1_555
C3 N2 1_555 1_555
C4 S2 1_555 1_555
C5 S1 1_555 1_555
C6 O6 1_555 1_555
H2 O2 1_555 1_555
H3 O1 1_555 1_555
H4 O2 1_555 1_555
H5 O3 1_555 1_555
H6 O3 1_555 1_555
Sr1C O1 1_555 1_555
Sr1_2 O7 1_555 1_555
Sr1C_2 O7 1_555 1_555
O1C Sr1 1_555 1_555
O7_2 Sr1 1_555 1_555
O7C Sr1 1_555 1_555
N1_2 Sr1 1_555 1_555
H1C O1C 1_555 1_555
H3C O1C 1_555 1_555
N1 C5 1_555 1_555
N1 Sr1_2 1_555 1_555
C3 C4 1_555 1_555
C5 C6 1_555 1_555
Sr1C O7_2 1_555 1_555
Sr1C_2 O1C 1_555 1_555
Sr1C_2 O7C 1_555 1_555

#END
