
#######################################################################
#
#                 Cambridge Crystallographic Data Centre
#                                CCDC 
#
#######################################################################
#
# If this CIF has been generated from an entry in the Cambridge 
# Structural Database, then it will include bibliographic, chemical, 
# crystal, experimental, refinement or atomic coordinate data resulting 
# from the CCDC's data processing and validation procedures.
#
#######################################################################

data_EGOFIQ
_symmetry_cell_setting           monoclinic
_symmetry_space_group_name_H-M   'C 2/c'
_symmetry_Int_Tables_number      15
_space_group_name_Hall           '-C 2yn'
loop_
_symmetry_equiv_pos_site_id
_symmetry_equiv_pos_as_xyz
1 x,y,z
2 1/2+x,1/2+y,z
3 -x,y,1/2-z
4 1/2-x,1/2+y,1/2-z
5 -x,-y,-z
6 1/2-x,1/2-y,-z
7 x,-y,1/2+z
8 1/2+x,1/2-y,1/2+z
_cell_length_a                   19.731(5)
_cell_length_b                   15.198(4)
_cell_length_c                   9.498(2)
_cell_angle_alpha                90
_cell_angle_beta                 95.615(4)
_cell_angle_gamma                90
_cell_volume                     2834.52
loop_
_atom_site_label
_atom_site_type_symbol
_atom_site_fract_x
_atom_site_fract_y
_atom_site_fract_z
C1 C 0.1554(9) 0.8648(12) 0.9695(18)
C6 C 0.3575(9) 0.8625(11) 1.0257(16)
N3 N 0.1010(10) 0.8703(16) 0.952(2)
N6 N 0.4134(9) 0.8649(13) 1.044(2)
Au1 Au 0.25605(3) 0.86314(4) 0.99852(4)
N1 N 0.1785(7) 0.7540(6) 1.3134(13)
N2 N 0.0501(7) 0.7497(6) 1.6157(15)
C2 C 0.1986(7) 0.9071(10) 1.6309(12)
C3 C 0.0480(8) 0.5781(14) 1.3354(18)
H1 H 0.0811 0.5492 1.3948
C4 C 0.0000 0.5274(17) 1.2500
H2 H 0.0000 0.4662 1.2500
C5 C 0.3053(7) 1.0843(8) 1.8593(12)
N4 N 0.1683(6) 0.8533(8) 1.5671(12)
N5 N 0.3321(6) 1.1385(7) 1.9267(12)
Au2 Au 0.25309(3) 0.99613(3) 1.74306(4)
Cu1 Cu 0.11444(8) 0.75068(8) 1.46507(16)
O1 O 0.0440(5) 0.8422(7) 1.3340(11)
C7 C 0.0000 0.7060(12) 1.2500
C8 C 0.0000 0.8038(12) 1.2500
N7 N 0.0478(6) 0.6676(7) 1.3338(11)
N1C N 0.3215(7) 1.2540(6) 2.1866(13)
N2C N 0.4499(7) 1.2497(6) 1.8843(15)
C2C C 0.3014(7) 1.4071(10) 1.8691(12)
C3B C -0.0480(8) 0.5781(14) 1.1646(18)
H1B H -0.0811 0.5492 1.1052
C5C C 0.1947(7) 0.5843(8) 1.6407(12)
C5C_2 C 0.1947(7) 1.5843(8) 1.6407(12)
N4C N 0.3317(6) 1.3533(8) 1.9329(12)
N5C N 0.1679(6) 0.6385(7) 1.5733(12)
Au2C Au 0.24691(3) 1.49613(3) 1.75694(4)
Au2C_2 Au 0.24691(3) 0.49613(3) 1.75694(4)
Cu1C Cu 0.38556(8) 1.25068(8) 2.03493(16)
Cu1B Cu -0.11444(8) 0.75068(8) 1.03493(16)
O1B O -0.0440(5) 0.8422(7) 1.1660(11)
O1C O 0.4560(5) 1.3422(7) 2.1660(11)
N7B N -0.0478(6) 0.6676(7) 1.1662(11)
N7C N 0.4522(6) 1.1676(7) 2.1662(11)
K1 K 0.0259(7) 0.9931(8) 0.8729(18)
loop_
_geom_bond_atom_site_label_1
_geom_bond_atom_site_label_2
_geom_bond_site_symmetry_1
_geom_bond_site_symmetry_2
C1 N3 1_555 1_555
N1 Cu1 1_555 1_555
N2 Cu1 1_555 1_555
C2 N4 1_555 1_555
C3 H1 1_555 1_555
C4 C3 1_555 1_555
H2 C4 1_555 1_555
C5 N5 1_555 1_555
C6 N6 1_555 1_555
N4 Cu1 1_555 1_555
N5 Cu1C 1_555 1_555
Au1 C1 1_555 1_555
Au2 C2 1_555 1_555
Cu1 O1 1_555 1_555
O1 C8 1_555 1_555
C7 C8 1_555 1_555
C8 O1B 1_555 1_555
N7 C3 1_555 1_555
N1C Cu1C 1_555 1_555
N2C Cu1C 1_555 1_555
C2C N4C 1_555 1_555
C3B C4 1_555 1_555
H1B C3B 1_555 1_555
C5C N5C 1_555 1_555
C5C_2 Au2C 1_555 1_555
N4C Cu1C 1_555 1_555
N5C Cu1 1_555 1_555
Au2C C2C 1_555 1_555
Au2C_2 C5C 1_555 1_555
Cu1C O1C 1_555 1_555
Cu1B O1B 1_555 1_555
N7B C7 1_555 1_555
N7C Cu1C 1_555 1_555
C5 Au2 1_555 1_555
C6 Au1 1_555 1_555
Cu1 N7 1_555 1_555
C7 N7 1_555 1_555
C3B N7B 1_555 1_555
Cu1B N7B 1_555 1_555

#END
