
#######################################################################
#
#                 Cambridge Crystallographic Data Centre
#                                CCDC 
#
#######################################################################
#
# If this CIF has been generated from an entry in the Cambridge 
# Structural Database, then it will include bibliographic, chemical, 
# crystal, experimental, refinement or atomic coordinate data resulting 
# from the CCDC's data processing and validation procedures.
#
#######################################################################

data_EGOREX
_symmetry_cell_setting           orthorhombic
_symmetry_space_group_name_H-M   'P 21 21 21'
_symmetry_Int_Tables_number      19
_space_group_name_Hall           'P 2ac 2ab'
loop_
_symmetry_equiv_pos_site_id
_symmetry_equiv_pos_as_xyz
1 x,y,z
2 1/2-x,-y,1/2+z
3 -x,1/2+y,1/2-z
4 1/2+x,1/2-y,-z
_cell_length_a                   7.3782(4)
_cell_length_b                   10.9182(6)
_cell_length_c                   23.4693(14)
_cell_angle_alpha                90
_cell_angle_beta                 90
_cell_angle_gamma                90
_cell_volume                     1890.61
loop_
_atom_site_label
_atom_site_type_symbol
_atom_site_fract_x
_atom_site_fract_y
_atom_site_fract_z
K1 K 0.11084(4) -0.05874(2) -0.223090(11)
K2 K 0.60881(3) 0.11922(2) -0.195370(10)
S1 S 0.10277(4) 0.23922(2) -0.161430(10)
O1 O 0.25300(12) 0.20140(8) -0.19644(4)
O2 O 0.01304(13) 0.34854(8) -0.17991(4)
O3 O 0.18370(11) 0.27010(7) -0.09732(3)
N1 N -0.02865(13) 0.12889(9) -0.14579(4)
C1 C -0.02625(14) 0.11430(10) -0.08773(4)
C2 C 0.09342(14) 0.19546(9) -0.05917(4)
C3 C 0.11646(15) 0.19834(9) -0.00136(4)
H1 H 0.1955 0.2550 0.0167
C4 C 0.01531(14) 0.11184(10) 0.02934(4)
C5 C -0.10029(16) 0.02809(10) 0.00347(5)
H2 H -0.1636 -0.0302 0.0260
C6 C -0.12330(15) 0.02959(10) -0.05530(5)
H3 H -0.2040 -0.0263 -0.0732
N2 N 0.03287(13) 0.11096(9) 0.09049(4)
O4 O -0.03885(13) 0.02708(8) 0.11779(4)
O5 O 0.11881(14) 0.19497(9) 0.11356(4)
S2 S -0.31067(3) -0.24863(2) -0.160830(10)
O6 O -0.22974(12) -0.13548(8) -0.17995(4)
O7 O -0.47006(11) -0.28305(8) -0.19218(4)
O8 O -0.37548(11) -0.22536(7) -0.09442(3)
N3 N -0.16977(13) -0.35641(9) -0.15107(4)
C7 C -0.16131(14) -0.37958(10) -0.09344(5)
C8 C -0.27790(14) -0.30503(10) -0.06029(5)
C9 C -0.29286(15) -0.31154(10) -0.00235(5)
H4 H -0.3711 -0.2593 0.0187
C10 C -0.18441(16) -0.40096(10) 0.02398(5)
C11 C -0.06849(15) -0.47712(10) -0.00671(5)
H5 H 0.0016 -0.5369 0.0128
C12 C -0.05442(15) -0.46643(10) -0.06560(5)
H6 H 0.0263 -0.5172 -0.0865
N4 N -0.19888(14) -0.41585(9) 0.08488(4)
O9 O -0.10920(15) -0.49718(8) 0.10846(4)
O10 O -0.30170(14) -0.34734(9) 0.11150(4)
O11 O 0.45727(13) -0.06109(9) -0.26215(4)
H7 H 0.524(3) -0.1176(17) -0.2547(9)
H8 H 0.468(3) -0.0526(18) -0.2961(6)
O12 O 0.15790(13) -0.33344(11) -0.21593(4)
H9 H 0.065(2) -0.3483(19) -0.1978(8)
H10 H 0.237(3) -0.333(2) -0.1917(8)
N1_2 N 0.97135(13) 0.12889(9) -0.14579(4)
O6_2 O 0.77026(12) -0.13548(8) -0.17995(4)
O12B O 0.84210(13) 0.16656(11) -0.28407(4)
O2B O -0.01304(13) -0.15146(8) -0.32009(4)
K2_2 K -0.39119(3) 0.11922(2) -0.195370(10)
O5C O 0.61881(14) 0.30503(9) -0.11356(4)
O7B O 0.47006(11) 0.21695(8) -0.30782(4)
O9C O 0.39080(15) -0.00282(8) -0.10846(4)
O10C O 0.19830(14) -0.15266(9) -0.11150(4)
K2B K 0.39119(3) -0.38078(2) -0.304630(10)
H9B H 0.935(2) 0.1517(19) -0.3022(8)
H10B H 0.763(3) 0.167(2) -0.3083(8)
K1B K -0.11084(4) 0.44126(2) -0.276910(11)
K2C K 0.10881(3) 0.38078(2) 0.195370(10)
K2B_2 K -0.60881(3) -0.38078(2) -0.304630(10)
K2C_2 K 0.10881(3) -0.61922(2) 0.195370(10)
K1C K -0.38916(4) -0.44126(2) 0.223090(11)
loop_
_geom_bond_atom_site_label_1
_geom_bond_atom_site_label_2
_geom_bond_site_symmetry_1
_geom_bond_site_symmetry_2
K1 O1 1_555 1_555
K2 O1 1_555 1_555
S1 O1 1_555 1_555
O2 S1 1_555 1_555
O3 S1 1_555 1_555
N1 K1 1_555 1_555
C1 N1 1_555 1_555
C2 O3 1_555 1_555
C3 C2 1_555 1_555
H1 C3 1_555 1_555
C4 C3 1_555 1_555
C5 C4 1_555 1_555
H2 C5 1_555 1_555
C6 C1 1_555 1_555
H3 C6 1_555 1_555
N2 C4 1_555 1_555
O4 N2 1_555 1_555
O5 N2 1_555 1_555
S2 O6 1_555 1_555
O6 K1 1_555 1_555
O7 S2 1_555 1_555
O8 S2 1_555 1_555
N3 S2 1_555 1_555
C7 N3 1_555 1_555
C8 O8 1_555 1_555
C9 C8 1_555 1_555
H4 C9 1_555 1_555
C10 C9 1_555 1_555
C11 C10 1_555 1_555
H5 C11 1_555 1_555
C12 C7 1_555 1_555
H6 C12 1_555 1_555
N4 C10 1_555 1_555
O9 N4 1_555 1_555
O10 N4 1_555 1_555
O11 K1 1_555 1_555
H7 O11 1_555 1_555
H8 O11 1_555 1_555
O12 K1 1_555 1_555
H9 O12 1_555 1_555
H10 O12 1_555 1_555
N1_2 K2 1_555 1_555
O6_2 K2 1_555 1_555
O12B K2 1_555 1_555
O2B K1 1_555 1_555
K2_2 N1 1_555 1_555
O5C K2 1_555 1_555
O7B K2 1_555 1_555
O9C K2 1_555 1_555
O10C K1 1_555 1_555
K2B O12 1_555 1_555
H9B O12B 1_555 1_555
H10B O12B 1_555 1_555
K1B O2 1_555 1_555
K2C O5 1_555 1_555
K2B_2 O7 1_555 1_555
K2C_2 O9 1_555 1_555
K1C O10 1_555 1_555
K2 O11 1_555 1_555
S1 N1 1_555 1_555
C1 C2 1_555 1_555
C5 C6 1_555 1_555
O6 K2_2 1_555 1_555
C7 C8 1_555 1_555
C11 C12 1_555 1_555

#END
