
#######################################################################
#
#                 Cambridge Crystallographic Data Centre
#                                CCDC 
#
#######################################################################
#
# If this CIF has been generated from an entry in the Cambridge 
# Structural Database, then it will include bibliographic, chemical, 
# crystal, experimental, refinement or atomic coordinate data resulting 
# from the CCDC's data processing and validation procedures.
#
#######################################################################

data_EGOSOJ
_symmetry_cell_setting           triclinic
_symmetry_space_group_name_H-M   'P -1'
_symmetry_Int_Tables_number      2
_space_group_name_Hall           '-P 1'
loop_
_symmetry_equiv_pos_site_id
_symmetry_equiv_pos_as_xyz
1 x,y,z
2 -x,-y,-z
_cell_length_a                   10.986(5)
_cell_length_b                   12.668(5)
_cell_length_c                   14.858(5)
_cell_angle_alpha                104.097(5)
_cell_angle_beta                 106.481(5)
_cell_angle_gamma                98.750(5)
_cell_volume                     1867.93
loop_
_atom_site_label
_atom_site_type_symbol
_atom_site_fract_x
_atom_site_fract_y
_atom_site_fract_z
O4 O 0.4256(7) 0.0539(5) 0.4052(5)
H36 H 0.3971 -0.0153 0.3972
H37 H 0.4793 0.1133 0.4441
Cl1 Cl -0.06341(10) 0.47780(8) 0.69131(6)
Na1 Na 0.10721(18) 1.01034(14) 1.11501(12)
O1 O -0.3809(3) 0.2835(2) 0.20836(18)
O2 O 0.3355(2) 0.5958(2) 1.21159(16)
O3 O -0.0965(3) 0.8804(2) 0.9921(2)
C1 C 0.2478(3) 0.6514(3) 1.1744(3)
C2 C 0.3399(4) 0.5018(3) 1.1307(2)
C3 C 0.2410(4) 0.5113(3) 1.0391(3)
C4 C 0.1901(3) 0.6036(3) 1.0709(2)
C5 C 0.0175(4) 0.3160(3) 0.5833(3)
C6 C -0.1972(4) 0.2219(3) 0.2210(3)
C7 C -0.3083(4) 0.3150(3) 0.3158(3)
C8 C -0.0859(4) 0.2744(3) 0.4014(3)
C9 C 0.0286(4) 0.3770(3) 0.6787(3)
C10 C 0.1113(3) 0.3667(3) 0.7657(2)
C11 C 0.2320(4) 0.7421(3) 1.2391(3)
C12 C -0.3178(4) 0.2274(3) 0.1572(3)
C13 C -0.1850(4) 0.2715(3) 0.3194(3)
C14 C 0.0986(4) 0.6475(3) 1.0115(3)
C15 C -0.0748(4) 0.3230(3) 0.5000(3)
C16 C 0.1825(4) 0.2728(3) 0.7564(3)
C17 C 0.1328(4) 0.4400(3) 0.8585(3)
C18 C 0.2165(4) 0.4354(3) 0.9468(3)
N1 N 0.0759(4) 0.8673(3) 1.1959(3)
N2 N 0.3612(4) 0.8039(3) 1.4247(3)
C19 C 0.3033(4) 0.3952(3) 1.1557(3)
C20 C -0.1021(4) 0.1694(4) 0.1948(3)
C21 C 0.3044(4) 0.7739(3) 1.3421(3)
C22 C 0.1440(4) 0.8088(3) 1.2122(3)
N3 N -0.2687(4) 0.0706(3) -0.0539(3)
C23 C -0.3181(4) 0.1224(4) -0.0052(3)
N4 N -0.0234(4) 0.1258(4) 0.1777(3)
C24 C -0.3774(4) 0.1854(4) 0.0560(3)
C25 C 0.4777(4) 0.5256(4) 1.1276(3)
C26 C -0.3969(4) 0.2492(4) 0.3561(3)
C27 C 0.2409(4) 0.1118(4) 0.6494(3)
N5 N 0.0247(4) 0.6857(3) 0.9652(2)
C28 C 0.1473(5) 0.1929(4) 0.6564(3)
C29 C -0.2845(4) 0.4404(3) 0.3542(3)
C31 C 0.1145(5) 0.2436(4) 0.5756(3)
C32 C -0.5030(5) 0.1975(4) 0.0120(3)
N6 N -0.6095(5) 0.2073(5) -0.0231(3)
C35 C 0.2266(7) 0.0423(5) 0.7180(5)
C36 C 0.3799(6) 0.1693(5) 0.6804(6)
C37 C 0.1944(8) 0.0278(7) 0.5454(4)
O5 O 0.2868(11) 1.1218(7) 1.2584(9)
H1 H -0.0182 0.2406 0.3909
H2 H -0.1379 0.3646 0.5094
H3 H 0.1677 0.2313 0.8001
H4 H 0.2751 0.3071 0.7779
H5 H 0.0904 0.4975 0.8610
H6 H 0.2601 0.3783 0.9447
H7 H 0.3154 0.3326 1.1100
H8 H 0.3585 0.4010 1.2205
H9 H 0.2114 0.3773 1.1501
H10 H 0.4851 0.4704 1.0744
H11 H 0.5377 0.5222 1.1860
H12 H 0.5031 0.5992 1.1198
H13 H -0.3605 0.2670 0.4256
H14 H -0.4817 0.2646 0.3407
H15 H -0.4078 0.1714 0.3268
H16 H 0.0602 0.1434 0.6456
H17 H -0.2302 0.4694 0.4228
H18 H -0.3667 0.4621 0.3483
H19 H -0.2398 0.4779 0.3192
H21 H 0.1967 0.2931 0.5850
H22 H 0.0877 0.1876 0.5128
H24 H 0.2716 -0.0163 0.7085
H25 H 0.2656 0.0911 0.7857
H26 H 0.1349 0.0111 0.7039
H27 H 0.4346 0.1172 0.6788
H28 H 0.4047 0.2175 0.7468
H29 H 0.3941 0.2135 0.6398
H30 H 0.2334 -0.0354 0.5449
H31 H 0.1015 0.0024 0.5238
H32 H 0.2183 0.0663 0.5019
H38 H -0.0921 0.8146 0.9725
H39 H -0.1652 0.8807 1.0060
H40 H 0.2828 1.0723 1.1892
H41 H 0.3011 1.1925 1.2694
Na1A Na -0.10721(18) 0.98966(14) 0.88499(12)
Na1A_2 Na -0.10721(18) -0.01034(14) -0.11501(12)
Na1_2 Na 0.10721(18) 0.01034(14) 0.11501(12)
O3A O 0.0965(3) 1.1196(2) 1.0079(2)
N3A N 0.2687(4) 0.9294(3) 1.0539(3)
N4_2 N -0.0234(4) 1.1258(4) 1.1777(3)
H38A H 0.0921 1.1854 1.0275
H39A H 0.1652 1.1193 0.9940
C30? C -0.5245(6) 0.3998(5) 0.5218(4)
C33? C -0.4123(6) 0.4758(5) 0.5739(3)
C34? C -0.6207(6) 0.4198(5) 0.4448(4)
C38? C -0.7325(12) 0.3392(10) 0.3925(9)
H20? H -0.5414 0.3315 0.5355
H23? H -0.3530 0.4599 0.6237
H33? H -0.7764 0.3575 0.3352
H34? H -0.7871 0.3357 0.4316
H35? H -0.7125 0.2682 0.3729
loop_
_geom_bond_atom_site_label_1
_geom_bond_atom_site_label_2
_geom_bond_site_symmetry_1
_geom_bond_site_symmetry_2
Cl1 C9 1_555 1_555
Na1 O3 1_555 1_555
O1 C7 1_555 1_555
O2 C1 1_555 1_555
O3 H38 1_555 1_555
C1 C4 1_555 1_555
C2 O2 1_555 1_555
C3 C2 1_555 1_555
C4 C3 1_555 1_555
C5 C9 1_555 1_555
C6 C12 1_555 1_555
C7 C13 1_555 1_555
C8 C13 1_555 1_555
C9 C10 1_555 1_555
C10 C16 1_555 1_555
C11 C1 1_555 1_555
C12 O1 1_555 1_555
C13 C6 1_555 1_555
C14 C4 1_555 1_555
C15 C5 1_555 1_555
C16 C28 1_555 1_555
C17 C10 1_555 1_555
C18 C3 1_555 1_555
N1 Na1 1_555 1_555
N2 C21 1_555 1_555
C19 C2 1_555 1_555
C20 C6 1_555 1_555
C21 C11 1_555 1_555
C22 C11 1_555 1_555
N3 C23 1_555 1_555
C23 C24 1_555 1_555
N4 C20 1_555 1_555
C24 C12 1_555 1_555
C25 C2 1_555 1_555
C26 C7 1_555 1_555
C27 C28 1_555 1_555
N5 C14 1_555 1_555
C28 C31 1_555 1_555
C29 C7 1_555 1_555
C31 C5 1_555 1_555
C32 C24 1_555 1_555
N6 C32 1_555 1_555
C35 C27 1_555 1_555
C36 C27 1_555 1_555
C37 C27 1_555 1_555
O4 H36 1_555 1_555
O5 Na1 1_555 1_555
H1 C8 1_555 1_555
H2 C15 1_555 1_555
H3 C16 1_555 1_555
H4 C16 1_555 1_555
H5 C17 1_555 1_555
H6 C18 1_555 1_555
H7 C19 1_555 1_555
H8 C19 1_555 1_555
H9 C19 1_555 1_555
H10 C25 1_555 1_555
H11 C25 1_555 1_555
H12 C25 1_555 1_555
H13 C26 1_555 1_555
H14 C26 1_555 1_555
H15 C26 1_555 1_555
H16 C28 1_555 1_555
H17 C29 1_555 1_555
H18 C29 1_555 1_555
H19 C29 1_555 1_555
H21 C31 1_555 1_555
H22 C31 1_555 1_555
H24 C35 1_555 1_555
H25 C35 1_555 1_555
H26 C35 1_555 1_555
H27 C36 1_555 1_555
H28 C36 1_555 1_555
H29 C36 1_555 1_555
H30 C37 1_555 1_555
H31 C37 1_555 1_555
H32 C37 1_555 1_555
H37 O4 1_555 1_555
H39 O3 1_555 1_555
H40 O5 1_555 1_555
H41 O5 1_555 1_555
Na1A O3 1_555 1_555
Na1A_2 N3 1_555 1_555
Na1_2 N4 1_555 1_555
O3A Na1 1_555 1_555
N3A Na1 1_555 1_555
N4_2 Na1 1_555 1_555
H38A O3A 1_555 1_555
H39A O3A 1_555 1_555
C8 C15 1_555 1_555
C17 C18 1_555 1_555
N1 C22 1_555 1_555
Na1A O3A 1_555 1_555

#END
