
#######################################################################
#
#                 Cambridge Crystallographic Data Centre
#                                CCDC 
#
#######################################################################
#
# If this CIF has been generated from an entry in the Cambridge 
# Structural Database, then it will include bibliographic, chemical, 
# crystal, experimental, refinement or atomic coordinate data resulting 
# from the CCDC's data processing and validation procedures.
#
#######################################################################

data_EGUHET
_symmetry_cell_setting           monoclinic
_symmetry_space_group_name_H-M   'C c'
_symmetry_Int_Tables_number      9
_space_group_name_Hall           'C -2yc'
loop_
_symmetry_equiv_pos_site_id
_symmetry_equiv_pos_as_xyz
1 x,y,z
2 x,-y,1/2+z
3 1/2+x,1/2+y,z
4 1/2+x,1/2-y,1/2+z
_cell_length_a                   23.144(2)
_cell_length_b                   6.4466(6)
_cell_length_c                   7.1648(7)
_cell_angle_alpha                90
_cell_angle_beta                 91.160(4)
_cell_angle_gamma                90
_cell_volume                     1068.77
loop_
_atom_site_label
_atom_site_type_symbol
_atom_site_fract_x
_atom_site_fract_y
_atom_site_fract_z
Mn1 Mn 0.16092(8) 0.31515(5) 0.7621(2)
O1 O 0.1213(3) 0.3065(8) 1.0355(8)
O2 O 0.0815(2) 0.5822(9) 1.1615(8)
O3 O -0.2583(2) -0.0840(9) 0.8659(7)
O4 O -0.2992(2) 0.1950(9) 0.9903(8)
O5 O 0.1615(4) -0.0106(3) 0.7652(11)
C1 C -0.0310(2) 0.4340(11) 1.0890(9)
H1 H -0.0278(2) 0.5643(11) 1.1439(9)
C2 C 0.0200(3) 0.3198(11) 1.0438(12)
C3 C 0.0134(3) 0.1186(13) 0.9649(12)
H2 H 0.0458(3) 0.0407(13) 0.9356(12)
C4 C -0.0422(3) 0.0381(12) 0.9314(9)
H3 H -0.0460(3) -0.0942(12) 0.8808(9)
C5 C -0.1489(3) 0.0684(13) 0.9397(10)
H4 H -0.1540(3) -0.0639(13) 0.8904(10)
C6 C -0.1943(3) 0.1794(12) 0.9798(13)
C7 C -0.1902(3) 0.3816(14) 1.0581(11)
H5 H -0.2236(3) 0.4553(14) 1.0847(11)
C8 C -0.1382(3) 0.4656(11) 1.0934(9)
H6 H -0.1355(3) 0.5976(11) 1.1451(9)
C9 C -0.0854(3) 0.3490(12) 1.0502(11)
C10 C -0.0904(3) 0.1469(12) 0.9703(11)
C11 C 0.0754(3) 0.4077(13) 1.0820(10)
C12 C -0.2562(3) 0.0878(13) 0.9445(9)
O2A O 0.0815(2) 0.4178(9) 0.6615(8)
O3B O 0.2417(2) 0.4160(9) 0.8659(7)
O4C O 0.2008(2) 0.3050(9) 0.4903(8)
Mn1A Mn 0.16092(8) 0.68485(5) 1.2621(2)
Mn1B Mn -0.33908(8) -0.18485(5) 0.7621(2)
Mn1C Mn -0.33908(8) 0.18485(5) 1.2621(2)
loop_
_geom_bond_atom_site_label_1
_geom_bond_atom_site_label_2
_geom_bond_site_symmetry_1
_geom_bond_site_symmetry_2
Mn1 O1 1_555 1_555
O1 C11 1_555 1_555
O2 C11 1_555 1_555
O3 C12 1_555 1_555
O4 C12 1_555 1_555
O5 Mn1 1_555 1_555
C1 H1 1_555 1_555
C2 C1 1_555 1_555
C3 C2 1_555 1_555
H2 C3 1_555 1_555
C4 C3 1_555 1_555
H3 C4 1_555 1_555
C5 H4 1_555 1_555
C6 C5 1_555 1_555
C7 C6 1_555 1_555
H5 C7 1_555 1_555
C8 C7 1_555 1_555
H6 C8 1_555 1_555
C9 C1 1_555 1_555
C10 C4 1_555 1_555
C11 C2 1_555 1_555
C12 C6 1_555 1_555
O2A Mn1 1_555 1_555
O3B Mn1 1_555 1_555
O4C Mn1 1_555 1_555
Mn1A O2 1_555 1_555
Mn1B O3 1_555 1_555
Mn1C O4 1_555 1_555
C5 C10 1_555 1_555
C8 C9 1_555 1_555
C9 C10 1_555 1_555

#END
