
#######################################################################
#
#                 Cambridge Crystallographic Data Centre
#                                CCDC 
#
#######################################################################
#
# If this CIF has been generated from an entry in the Cambridge 
# Structural Database, then it will include bibliographic, chemical, 
# crystal, experimental, refinement or atomic coordinate data resulting 
# from the CCDC's data processing and validation procedures.
#
#######################################################################

data_EGUMEY01
_symmetry_cell_setting           monoclinic
_symmetry_space_group_name_H-M   'P 21/n'
_symmetry_Int_Tables_number      14
_space_group_name_Hall           '-P 2yn'
loop_
_symmetry_equiv_pos_site_id
_symmetry_equiv_pos_as_xyz
1 x,y,z
2 1/2-x,1/2+y,1/2-z
3 -x,-y,-z
4 1/2+x,1/2-y,1/2+z
_cell_length_a                   11.9640(9)
_cell_length_b                   8.2127(7)
_cell_length_c                   12.5386(6)
_cell_angle_alpha                90
_cell_angle_beta                 97.170(4)
_cell_angle_gamma                90
_cell_volume                     1222.37
loop_
_atom_site_label
_atom_site_type_symbol
_atom_site_fract_x
_atom_site_fract_y
_atom_site_fract_z
Ni1 Ni -0.50925(4) -0.56897(7) 0.29888(4)
N1 N -0.0669(3) -0.1979(4) 0.3126(2)
N2 N 0.1284(3) -0.0474(4) 0.3330(2)
O1 O -0.3573(2) -0.5442(3) 0.4051(2)
O2 O -0.3957(2) -0.3724(4) 0.2703(2)
O3 O 0.4184(2) 0.2243(4) 0.3473(2)
O4 O 0.4526(2) 0.1897(4) 0.5269(2)
O5 O -0.5934(2) -0.4182(4) 0.3904(2)
H1 H -0.5525 -0.3429 0.4189
H2 H -0.6253 -0.4335 0.4456
C1 C -0.3300(3) -0.4247(5) 0.3490(3)
C2 C -0.2162(3) -0.3509(5) 0.3760(3)
C3 C -0.1517(3) -0.3694(5) 0.4754(3)
H3 H -0.1795 -0.4313 0.5304
C4 C -0.0468(3) -0.2972(5) 0.4935(3)
H4 H -0.0031 -0.3054 0.5620
C5 C -0.0059(3) -0.2128(5) 0.4110(3)
C6 C -0.1691(3) -0.2623(5) 0.2971(3)
H5 H -0.2127 -0.2477 0.2291
C7 C 0.1044(3) -0.1278(5) 0.4223(3)
C8 C 0.1777(4) -0.1256(6) 0.5163(3)
H6 H 0.1605 -0.1845 0.5774
C9 C 0.2768(4) -0.0370(5) 0.5212(3)
H7 H 0.3285 -0.0363 0.5852
C10 C 0.3001(3) 0.0511(5) 0.4317(3)
C11 C 0.2227(3) 0.0399(5) 0.3384(3)
H8 H 0.2382 0.0971 0.2761
C12 C 0.3994(3) 0.1636(5) 0.4366(3)
Ni1A Ni 0.00925(4) -0.06897(7) 0.20112(4)
Ni1_2 Ni 0.49075(4) 0.43103(7) 0.29888(4)
N1A N -0.4331(3) -0.6979(4) 0.1874(2)
N2A N -0.6284(3) -0.5474(4) 0.1670(2)
O3_2 O -0.5816(2) -0.7757(4) 0.3473(2)
O6 O -0.9839(4) 0.4392(5) 0.2746(3)
H9 H -1.0186 0.3703 0.2335
H10 H -0.9547 0.4936 0.2285
loop_
_geom_bond_atom_site_label_1
_geom_bond_atom_site_label_2
_geom_bond_site_symmetry_1
_geom_bond_site_symmetry_2
Ni1 O1 1_555 1_555
N1 C5 1_555 1_555
N2 C7 1_555 1_555
O1 C1 1_555 1_555
O2 Ni1 1_555 1_555
O3 C12 1_555 1_555
O4 C12 1_555 1_555
O5 Ni1 1_555 1_555
H1 O5 1_555 1_555
H2 O5 1_555 1_555
C1 O2 1_555 1_555
C2 C1 1_555 1_555
C3 C2 1_555 1_555
H3 C3 1_555 1_555
C4 C3 1_555 1_555
H4 C4 1_555 1_555
C5 C4 1_555 1_555
C6 N1 1_555 1_555
H5 C6 1_555 1_555
C7 C5 1_555 1_555
C8 C7 1_555 1_555
H6 C8 1_555 1_555
C9 C8 1_555 1_555
H7 C9 1_555 1_555
C10 C9 1_555 1_555
C11 N2 1_555 1_555
H8 C11 1_555 1_555
C12 C10 1_555 1_555
O6 H9 1_555 1_555
H10 O6 1_555 1_555
Ni1A N1 1_555 1_555
Ni1_2 O3 1_555 1_555
N1A Ni1 1_555 1_555
N2A Ni1 1_555 1_555
O3_2 Ni1 1_555 1_555
N2 Ni1A 1_555 1_555
C2 C6 1_555 1_555
C10 C11 1_555 1_555

#END
