
#######################################################################
#
#                 Cambridge Crystallographic Data Centre
#                                CCDC 
#
#######################################################################
#
# If this CIF has been generated from an entry in the Cambridge 
# Structural Database, then it will include bibliographic, chemical, 
# crystal, experimental, refinement or atomic coordinate data resulting 
# from the CCDC's data processing and validation procedures.
#
#######################################################################

data_EGUNAV
_symmetry_cell_setting           orthorhombic
_symmetry_space_group_name_H-M   'P n a 21'
_symmetry_Int_Tables_number      33
_space_group_name_Hall           'P 2c -2n'
loop_
_symmetry_equiv_pos_site_id
_symmetry_equiv_pos_as_xyz
1 x,y,z
2 -x,-y,1/2+z
3 1/2+x,1/2-y,z
4 1/2-x,1/2+y,1/2+z
_cell_length_a                   10.159(2)
_cell_length_b                   19.378(4)
_cell_length_c                   8.3720(17)
_cell_angle_alpha                90
_cell_angle_beta                 90
_cell_angle_gamma                90
_cell_volume                     1648.12
loop_
_atom_site_label
_atom_site_type_symbol
_atom_site_fract_x
_atom_site_fract_y
_atom_site_fract_z
Zn1 Zn 0.35890(6) 0.56314(3) 1.01047(11)
O1 O 0.4931(4) 0.6064(3) 1.1587(5)
O2 O 0.6304(5) 0.6608(3) 0.9948(8)
O3 O 0.5527(7) 0.5504(3) 1.5529(7)
O4 O 0.6976(6) 0.5236(3) 1.3715(7)
O5 O 0.4478(5) 0.6120(3) 0.8156(7)
N1 N 0.1816(6) 0.6169(3) 0.9659(6)
N2 N 0.2400(6) 0.5462(3) 1.2228(7)
C1 C 0.5886(6) 0.6455(3) 1.1308(8)
C2 C 0.6595(6) 0.6750(3) 1.2728(8)
C3 C 0.7177(7) 0.7400(4) 1.2549(10)
H1 H 0.7127 0.7620 1.1564
C4 C 0.7809(8) 0.7717(4) 1.3763(13)
H2 H 0.8199 0.8146 1.3604
C5 C 0.7875(7) 0.7396(3) 1.5272(15)
H3 H 0.8285 0.7612 1.6129
C6 C 0.7313(7) 0.6750(4) 1.5442(10)
H4 H 0.7355 0.6534 1.6432
C7 C 0.6694(6) 0.6415(4) 1.4199(8)
C8 C 0.6335(8) 0.5686(4) 1.4437(10)
C9 C 0.2832(8) 0.5154(4) 1.3578(11)
H5 H 0.3659 0.4948 1.3583
C10 C 0.2075(9) 0.5136(4) 1.4953(13)
H6 H 0.2402 0.4932 1.5877
C11 C 0.0856(10) 0.5418(5) 1.4946(13)
H7 H 0.0326 0.5403 1.5851
C12 C 0.0405(8) 0.5739(4) 1.3511(12)
H8 H -0.0436 0.5927 1.3453
C13 C -0.0336(7) 0.6445(4) 1.0477(10)
H9 H -0.0993 0.6412 1.1246
C14 C -0.0556(8) 0.6800(5) 0.9113(14)
H10 H -0.1359 0.7020 0.8953
C15 C 0.0412(8) 0.6836(5) 0.7959(12)
H11 H 0.0272 0.7071 0.7006
C16 C 0.1586(7) 0.6512(4) 0.8267(10)
H12 H 0.2248 0.6527 0.7499
C17 C 0.0865(6) 0.6133(3) 1.0725(8)
C18 C 0.1205(6) 0.5764(4) 1.2266(9)
O3A O 0.4473(7) 0.4496(3) 1.0529(7)
O4A O 0.3024(6) 0.4764(3) 0.8715(7)
Zn1A Zn 0.64110(6) 0.43686(3) 1.51047(11)
loop_
_geom_bond_atom_site_label_1
_geom_bond_atom_site_label_2
_geom_bond_site_symmetry_1
_geom_bond_site_symmetry_2
Zn1 O1 1_555 1_555
O1 C1 1_555 1_555
O2 C1 1_555 1_555
O3 C8 1_555 1_555
O4 C8 1_555 1_555
O5 Zn1 1_555 1_555
N1 Zn1 1_555 1_555
N2 Zn1 1_555 1_555
C1 C2 1_555 1_555
C2 C3 1_555 1_555
C3 H1 1_555 1_555
C4 C3 1_555 1_555
H2 C4 1_555 1_555
C5 C4 1_555 1_555
H3 C5 1_555 1_555
C6 C5 1_555 1_555
H4 C6 1_555 1_555
C7 C2 1_555 1_555
C8 C7 1_555 1_555
C9 N2 1_555 1_555
H5 C9 1_555 1_555
C10 C9 1_555 1_555
H6 C10 1_555 1_555
C11 C10 1_555 1_555
H7 C11 1_555 1_555
C12 C11 1_555 1_555
H8 C12 1_555 1_555
C13 H9 1_555 1_555
C14 C13 1_555 1_555
H10 C14 1_555 1_555
C15 C14 1_555 1_555
H11 C15 1_555 1_555
C16 N1 1_555 1_555
H12 C16 1_555 1_555
C17 N1 1_555 1_555
C18 N2 1_555 1_555
O3A Zn1 1_555 1_555
O4A Zn1 1_555 1_555
Zn1A O3 1_555 1_555
O4 Zn1A 1_555 1_555
C6 C7 1_555 1_555
C12 C18 1_555 1_555
C13 C17 1_555 1_555
C15 C16 1_555 1_555
C17 C18 1_555 1_555

#END
