
#######################################################################
#
#                 Cambridge Crystallographic Data Centre
#                                CCDC 
#
#######################################################################
#
# If this CIF has been generated from an entry in the Cambridge 
# Structural Database, then it will include bibliographic, chemical, 
# crystal, experimental, refinement or atomic coordinate data resulting 
# from the CCDC's data processing and validation procedures.
#
#######################################################################

data_EGUPIH
_symmetry_cell_setting           orthorhombic
_symmetry_space_group_name_H-M   'P n m a'
_symmetry_Int_Tables_number      62
_space_group_name_Hall           '-P 2ac 2n'
loop_
_symmetry_equiv_pos_site_id
_symmetry_equiv_pos_as_xyz
1 x,y,z
2 1/2-x,-y,1/2+z
3 -x,1/2+y,-z
4 1/2+x,1/2-y,1/2-z
5 -x,-y,-z
6 1/2+x,y,1/2-z
7 x,1/2-y,z
8 1/2-x,1/2+y,1/2+z
_cell_length_a                   7.6143(12)
_cell_length_b                   22.461(4)
_cell_length_c                   7.7097(12)
_cell_angle_alpha                90
_cell_angle_beta                 90
_cell_angle_gamma                90
_cell_volume                     1318.55
loop_
_atom_site_label
_atom_site_type_symbol
_atom_site_fract_x
_atom_site_fract_y
_atom_site_fract_z
Zn1 Zn 0.16308(5) 0.7500 0.07023(5)
O1 O 0.0612(2) 0.67337(8) 0.0460(3)
O2 O 0.3708(5) 0.7500 -0.0780(4)
H1 H 0.4109 0.7191 -0.1276
O3 O 0.2362(5) 0.7500 0.3123(4)
H2 H 0.2340 0.7199 0.3790
O4 O -0.2466(2) 0.65612(8) -0.0354(2)
H3 H -0.3090 0.6499 -0.1202
O5 O -0.0148(2) 0.64933(7) -0.2687(2)
P1 P -0.05027(8) 0.63861(2) -0.07963(8)
C1 C -0.0941(4) 0.57621(11) 0.2952(3)
H4 H -0.1084 0.6169 0.2594
H5 H -0.0016 0.5737 0.3795
H6 H -0.2017 0.5621 0.3454
C2 C -0.0479(3) 0.53835(10) 0.1396(3)
C3 C -0.0253(3) 0.56086(9) -0.0288(3)
C4 C 0.0216(3) 0.52251(10) -0.1639(3)
H7 H 0.0359 0.5382 -0.2746
O1D O -0.0612(2) 0.32663(8) -0.0460(3)
O4D O 0.2466(2) 0.34388(8) 0.0354(2)
H3D H 0.3090 0.3501 0.1202
O5D O 0.0148(2) 0.35067(7) 0.2687(2)
P1D P 0.05027(8) 0.36139(2) 0.07963(8)
C1D C 0.0941(4) 0.42379(11) -0.2952(3)
H4D H 0.1084 0.3831 -0.2594
H5D H 0.0016 0.4263 -0.3795
H6D H 0.2017 0.4379 -0.3454
C2D C 0.0479(3) 0.46165(10) -0.1396(3)
C3D C 0.0253(3) 0.43914(9) 0.0288(3)
C4D C -0.0216(3) 0.47749(10) 0.1639(3)
H7D H -0.0359 0.4618 0.2746
H1F H 0.4109 0.7809 -0.1276
H2F H 0.2340 0.7801 0.3790
Zn1B Zn -0.16308(5) 0.2500 -0.07023(5)
O1F O 0.0612(2) 0.82663(8) 0.0460(3)
loop_
_geom_bond_atom_site_label_1
_geom_bond_atom_site_label_2
_geom_bond_site_symmetry_1
_geom_bond_site_symmetry_2
Zn1 O1 1_555 1_555
O1 P1 1_555 1_555
O2 Zn1 1_555 1_555
H1 O2 1_555 1_555
O3 Zn1 1_555 1_555
H2 O3 1_555 1_555
O4 H3 1_555 1_555
O5 P1 1_555 1_555
P1 O4 1_555 1_555
C1 H4 1_555 1_555
H5 C1 1_555 1_555
H6 C1 1_555 1_555
C2 C1 1_555 1_555
C3 P1 1_555 1_555
C4 C3 1_555 1_555
H7 C4 1_555 1_555
O1D P1D 1_555 1_555
O4D H3D 1_555 1_555
O5D P1D 1_555 1_555
P1D O4D 1_555 1_555
C1D H4D 1_555 1_555
H5D C1D 1_555 1_555
H6D C1D 1_555 1_555
C2D C4 1_555 1_555
C3D P1D 1_555 1_555
C4D C2 1_555 1_555
H7D C4D 1_555 1_555
H1F O2 1_555 1_555
H2F O3 1_555 1_555
Zn1B O1D 1_555 1_555
O1F Zn1 1_555 1_555
C2 C3 1_555 1_555
C1D C2D 1_555 1_555
C2D C3D 1_555 1_555
C3D C4D 1_555 1_555

#END
