
#######################################################################
#
#                 Cambridge Crystallographic Data Centre
#                                CCDC 
#
#######################################################################
#
# If this CIF has been generated from an entry in the Cambridge 
# Structural Database, then it will include bibliographic, chemical, 
# crystal, experimental, refinement or atomic coordinate data resulting 
# from the CCDC's data processing and validation procedures.
#
#######################################################################

data_EGUSEG
_symmetry_cell_setting           tetragonal
_symmetry_space_group_name_H-M   'I 41/a'
_symmetry_Int_Tables_number      88
_space_group_name_Hall           '-I 4ad'
loop_
_symmetry_equiv_pos_site_id
_symmetry_equiv_pos_as_xyz
1 x,y,z
2 1/2-x,-y,1/2+z
3 3/4-y,1/4+x,1/4+z
4 3/4+y,3/4-x,3/4+z
5 1/2+x,1/2+y,1/2+z
6 -x,1/2-y,z
7 1/4-y,3/4+x,3/4+z
8 1/4+y,1/4-x,1/4+z
9 -x,-y,-z
10 1/2+x,y,1/2-z
11 1/4+y,3/4-x,3/4-z
12 1/4-y,1/4+x,1/4-z
13 1/2-x,1/2-y,1/2-z
14 x,1/2+y,-z
15 3/4+y,1/4-x,1/4-z
16 3/4-y,3/4+x,3/4-z
_cell_length_a                   13.8054(14)
_cell_length_b                   13.8054(14)
_cell_length_c                   27.530(5)
_cell_angle_alpha                90
_cell_angle_beta                 90
_cell_angle_gamma                90
_cell_volume                     5246.92
loop_
_atom_site_label
_atom_site_type_symbol
_atom_site_fract_x
_atom_site_fract_y
_atom_site_fract_z
Pb1 Pb 0.23782(2) 0.51418(2) 0.105914(10)
O1 O 0.2466(3) 0.5171(4) 0.0071(2)
H1 H 0.2386 0.4684 -0.0113
H2 H 0.2586 0.5745 -0.0024
N1 N 0.2041(6) 0.3289(5) 0.0763(3)
N2 N 0.1643(6) 0.2865(5) 0.0374(3)
N3 N 0.1658(5) 0.1918(5) 0.0434(3)
N4 N 0.2106(5) 0.1712(5) 0.0856(2)
N5 N 0.3106(6) 0.1917(5) 0.1775(3)
N6 N 0.3524(6) 0.3278(5) 0.2094(3)
H3 H 0.382(6) 0.376(4) 0.225(3)
N7 N 0.3041(5) 0.3530(4) 0.1685(2)
N8 N 0.1959(6) 0.6751(5) 0.1641(3)
N9 N 0.1533(6) 0.6989(5) 0.2068(3)
N10 N 0.1639(5) 0.7925(5) 0.2143(3)
N11 N 0.2133(5) 0.8322(4) 0.1772(3)
N12 N 0.3187(5) 0.8477(5) 0.0854(3)
N13 N 0.3614(5) 0.8209(5) 0.0436(3)
H4 H 0.391(6) 0.862(5) 0.023(3)
N14 N 0.3012(6) 0.6886(5) 0.0742(3)
C1 C 0.2309(6) 0.2559(5) 0.1042(3)
C2 C 0.2815(6) 0.2678(5) 0.1507(3)
C3 C 0.3561(7) 0.2331(6) 0.2146(3)
H5 H 0.3857 0.2004 0.2401
C4 C 0.2307(6) 0.7593(5) 0.1476(3)
C5 C 0.2825(6) 0.7660(5) 0.1022(3)
C6 C 0.3504(7) 0.7263(6) 0.0374(3)
H6 H 0.3738 0.6914 0.0110
Pb1N Pb 0.26418(2) 0.01218(2) 0.144086(10)
Pb1N_2 Pb 0.26418(2) 1.01218(2) 0.144086(10)
N4K N 0.0788(5) 0.4606(5) 0.1644(2)
N5K N 0.0583(5) 0.5606(6) 0.0725(3)
N11K N 0.4178(4) 0.4633(5) 0.0728(3)
N12K N 0.4023(5) 0.5687(5) 0.1646(3)
loop_
_geom_bond_atom_site_label_1
_geom_bond_atom_site_label_2
_geom_bond_site_symmetry_1
_geom_bond_site_symmetry_2
Pb1 O1 1_555 1_555
O1 H1 1_555 1_555
H2 O1 1_555 1_555
N1 Pb1 1_555 1_555
N2 N1 1_555 1_555
N3 N2 1_555 1_555
N4 N3 1_555 1_555
N5 C2 1_555 1_555
N6 H3 1_555 1_555
N7 N6 1_555 1_555
N8 Pb1 1_555 1_555
N9 N8 1_555 1_555
N10 N9 1_555 1_555
N11 N10 1_555 1_555
N12 N13 1_555 1_555
N13 H4 1_555 1_555
N14 Pb1 1_555 1_555
C1 N1 1_555 1_555
C2 N7 1_555 1_555
C3 N5 1_555 1_555
H5 C3 1_555 1_555
C4 N8 1_555 1_555
C5 N12 1_555 1_555
C6 N13 1_555 1_555
H6 C6 1_555 1_555
Pb1N N4 1_555 1_555
Pb1N_2 N11 1_555 1_555
N4K Pb1 1_555 1_555
N5K Pb1 1_555 1_555
N11K Pb1 1_555 1_555
N12K Pb1 1_555 1_555
N4 C1 1_555 1_555
N5 Pb1N 1_555 1_555
N6 C3 1_555 1_555
N11 C4 1_555 1_555
N12 Pb1N_2 1_555 1_555
N14 C5 1_555 1_555
N14 C6 1_555 1_555
C1 C2 1_555 1_555
C4 C5 1_555 1_555

#END
