
#######################################################################
#
#                 Cambridge Crystallographic Data Centre
#                                CCDC 
#
#######################################################################
#
# If this CIF has been generated from an entry in the Cambridge 
# Structural Database, then it will include bibliographic, chemical, 
# crystal, experimental, refinement or atomic coordinate data resulting 
# from the CCDC's data processing and validation procedures.
#
#######################################################################

data_EHAFOK
_symmetry_cell_setting           triclinic
_symmetry_space_group_name_H-M   'P -1'
_symmetry_Int_Tables_number      2
_space_group_name_Hall           '-P 1'
loop_
_symmetry_equiv_pos_site_id
_symmetry_equiv_pos_as_xyz
1 x,y,z
2 -x,-y,-z
_cell_length_a                   10.8860(5)
_cell_length_b                   11.4737(4)
_cell_length_c                   13.4734(5)
_cell_angle_alpha                69.544(3)
_cell_angle_beta                 80.149(3)
_cell_angle_gamma                62.652(4)
_cell_volume                     1400.4
loop_
_atom_site_label
_atom_site_type_symbol
_atom_site_fract_x
_atom_site_fract_y
_atom_site_fract_z
U1 U 0.63171(3) 0.70253(3) 0.83336(2)
U2 U 1.0000 0.5000 0.5000
Pr1 Pr 0.61975(4) 0.21572(4) 0.77469(3)
O1 O 0.5504(6) 0.6184(5) 0.9378(4)
O2 O 0.7145(6) 0.7859(6) 0.7292(4)
O3 O 1.0655(6) 0.5004(5) 0.6108(4)
O4 O 0.8581(6) 0.5295(6) 0.9056(5)
O5 O 0.7743(5) 0.4842(5) 0.7948(5)
O6 O 0.8528(5) 0.2075(5) 0.7611(4)
O7 O 0.8999(5) 0.3557(5) 0.6226(4)
O8 O 1.4270(5) -0.0911(5) 0.8274(4)
O9 O 1.5151(6) 0.0606(5) 0.7748(5)
O10 O 1.4756(6) 0.1750(6) 0.9315(5)
O11 O 1.3124(5) 0.2133(5) 1.0545(4)
O12 O 0.5080(5) 0.6910(5) 0.7128(4)
O13 O 0.4284(7) 0.6962(6) 0.5697(5)
O14 O 0.7391(6) 0.6317(5) 0.5350(5)
O15 O 0.8583(6) 0.7512(5) 0.4772(5)
O16 O 0.7960(7) -0.0265(6) 0.8353(6)
H1 H 0.8405 -0.0587 0.8965
H2 H 0.8158 -0.0824 0.7959
O17 O 0.7162(8) 0.1757(10) 0.9539(6)
H3 H 0.6608 0.2210 0.9990
H4 H 0.8049 0.1164 0.9708
O18 O 0.4961(8) 0.4330(6) 0.8275(5)
H5 H 0.5183 0.4349 0.8881
H6 H 0.4298 0.5086 0.7859
O19 O 0.3890(7) 0.3622(7) 0.6748(6)
H7 H 0.3145 0.4183 0.7037
H8 H 0.3831 0.3568 0.6109
O20 O 0.6263(6) 0.4133(5) 0.6192(5)
H9 H 0.6610 0.4677 0.6263
H10 H 0.5938 0.4297 0.5563
O21 O 0.7060(7) 0.1375(6) 0.6163(5)
H11 H 0.7949 0.0774 0.6123
H12 H 0.6483 0.1690 0.5628
C1 C 1.0093(8) 0.3370(7) 0.8449(6)
C2 C 1.1166(8) 0.3116(7) 0.9041(6)
H13 H 1.0979 0.3616 0.9507
C3 C 1.2511(8) 0.2139(7) 0.8961(6)
C4 C 1.2774(8) 0.1355(7) 0.8271(6)
C5 C 1.1674(8) 0.1555(7) 0.7744(6)
H14 H 1.1834 0.0991 0.7336
C6 C 1.0323(7) 0.2578(7) 0.7800(5)
C7 C 0.6205(8) 1.0020(7) 0.4515(6)
H15 H 0.7025 1.0032 0.4187
C8 C 0.6169(8) 0.8755(7) 0.5041(6)
C9 C 0.4936(8) 0.8739(7) 0.5538(6)
C10 C 0.8718(8) 0.4546(7) 0.8496(6)
C11 C 1.3561(8) 0.1983(7) 0.9632(6)
C12 C 1.4184(8) 0.0292(7) 0.8082(6)
C13 C 0.9186(7) 0.2765(7) 0.7172(6)
C14 C 0.4777(8) 0.7443(7) 0.6144(6)
C15 C 0.7441(8) 0.7451(7) 0.5063(6)
O12A O 0.4920(5) 1.3090(5) 0.2872(4)
O13A O 0.5716(7) 1.3038(6) 0.4303(5)
O14A O 0.2609(6) 1.3683(5) 0.4650(5)
O15A O 0.1417(6) 1.2488(5) 0.5228(5)
C7A C 0.3795(8) 0.9980(7) 0.5485(6)
H15A H 0.2975 0.9968 0.5813
C8A C 0.3831(8) 1.1245(7) 0.4959(6)
C9A C 0.5064(8) 1.1261(7) 0.4462(6)
C14A C 0.5223(8) 1.2557(7) 0.3856(6)
C15A C 0.2559(8) 1.2549(7) 0.4937(6)
U1A U 0.36829(3) 1.29747(3) 0.16664(2)
Pr1A Pr 0.38025(4) 1.78428(4) 0.22531(3)
O1A O 0.4496(6) 1.3816(5) 0.0622(4)
O2A O 0.2855(6) 1.2141(6) 0.2708(4)
O4A O 0.1419(6) 1.4705(6) 0.0944(5)
O5A O 0.2257(5) 1.5158(5) 0.2052(5)
O6A O 0.1472(5) 1.7925(5) 0.2389(4)
O7A O 0.1001(5) 1.6443(5) 0.3774(4)
O8A O -0.4270(5) 2.0911(5) 0.1726(4)
O9A O -0.5151(6) 1.9394(5) 0.2252(5)
O10A O -0.4756(6) 1.8250(6) 0.0685(5)
O11A O -0.3124(5) 1.7867(5) -0.0545(4)
O16A O 0.2040(7) 2.0265(6) 0.1647(6)
H1A H 0.1595 2.0587 0.1035
H2A H 0.1842 2.0824 0.2041
O17A O 0.2838(8) 1.8243(10) 0.0461(6)
H3A H 0.3392 1.7790 0.0010
H4A H 0.1951 1.8836 0.0292
O18A O 0.5039(8) 1.5670(6) 0.1725(5)
H5A H 0.4817 1.5651 0.1119
H6A H 0.5702 1.4914 0.2141
O19A O 0.6110(7) 1.6378(7) 0.3252(6)
H7A H 0.6855 1.5817 0.2963
H8A H 0.6169 1.6432 0.3891
O20A O 0.3737(6) 1.5867(5) 0.3808(5)
H9A H 0.3390 1.5323 0.3737
H10A H 0.4062 1.5703 0.4437
O21A O 0.2940(7) 1.8625(6) 0.3837(5)
H11A H 0.2051 1.9226 0.3877
H12A H 0.3517 1.8310 0.4372
C1A C -0.0093(8) 1.6630(7) 0.1551(6)
C2A C -0.1166(8) 1.6884(7) 0.0959(6)
H13A H -0.0979 1.6384 0.0493
C3A C -0.2511(8) 1.7861(7) 0.1039(6)
C4A C -0.2774(8) 1.8645(7) 0.1729(6)
C5A C -0.1674(8) 1.8445(7) 0.2256(6)
H14A H -0.1834 1.9009 0.2664
C6A C -0.0323(7) 1.7422(7) 0.2200(5)
C10A C 0.1282(8) 1.5454(7) 0.1504(6)
C11A C -0.3561(8) 1.8017(7) 0.0368(6)
C12A C -0.4184(8) 1.9708(7) 0.1918(6)
C13A C 0.0814(7) 1.7235(7) 0.2828(6)
O3A O 0.9345(6) 0.4996(5) 0.3892(4)
U1_2 U -0.36829(3) 1.70253(3) -0.16664(2)
U1_3 U 1.63171(3) -0.29747(3) 0.83336(2)
U1A_2 U -0.63171(3) 2.29747(3) 0.16664(2)
U1A_3 U 1.36829(3) 0.29747(3) 1.16664(2)
U2_2 U 0.0000 1.5000 0.5000
Pr1_2 Pr 1.61975(4) 0.21572(4) 0.77469(3)
Pr1A_2 Pr -0.61975(4) 1.78428(4) 0.22531(3)
O7A_2 O 1.1001(5) 0.6443(5) 0.3774(4)
O8_2 O 0.4270(5) 0.9089(5) 0.8274(4)
O8A_2 O 0.5730(5) 1.0911(5) 0.1726(4)
O9_2 O 0.5151(6) 0.0606(5) 0.7748(5)
O9A_2 O 0.4849(6) 1.9394(5) 0.2252(5)
O10_2 O 0.4756(6) 0.1750(6) 0.9315(5)
O10A_2 O 0.5244(6) 1.8250(6) 0.0685(5)
O11_2 O 0.3124(5) 1.2133(5) 0.0545(4)
O11A_2 O 0.6876(5) 0.7867(5) 0.9455(4)
O14A_2 O 1.2609(6) 0.3683(5) 0.4650(5)
O15A_2 O 1.1417(6) 0.2488(5) 0.5228(5)
O22 O 0.0000 0.0000 0.0000
O23 O 0.209(3) 0.623(2) 0.693(3)
loop_
_geom_bond_atom_site_label_1
_geom_bond_atom_site_label_2
_geom_bond_site_symmetry_1
_geom_bond_site_symmetry_2
U1 O1 1_555 1_555
U2 O3 1_555 1_555
Pr1 O6 1_555 1_555
O2 U1 1_555 1_555
O4 U1 1_555 1_555
O5 U1 1_555 1_555
O6 C13 1_555 1_555
O7 U2 1_555 1_555
O8 C12 1_555 1_555
O9 C12 1_555 1_555
O10 C11 1_555 1_555
O11 C11 1_555 1_555
O12 U1 1_555 1_555
O13 C14 1_555 1_555
O14 U2 1_555 1_555
O15 U2 1_555 1_555
O16 Pr1 1_555 1_555
H1 O16 1_555 1_555
H2 O16 1_555 1_555
O17 Pr1 1_555 1_555
H3 O17 1_555 1_555
H4 O17 1_555 1_555
O18 Pr1 1_555 1_555
H5 O18 1_555 1_555
H6 O18 1_555 1_555
O19 Pr1 1_555 1_555
H7 O19 1_555 1_555
H8 O19 1_555 1_555
O20 Pr1 1_555 1_555
H9 O20 1_555 1_555
H10 O20 1_555 1_555
O21 Pr1 1_555 1_555
H11 O21 1_555 1_555
H12 O21 1_555 1_555
C1 C2 1_555 1_555
C2 H13 1_555 1_555
C3 C2 1_555 1_555
C4 C3 1_555 1_555
C5 C4 1_555 1_555
H14 C5 1_555 1_555
C6 C1 1_555 1_555
C7 H15 1_555 1_555
C8 C7 1_555 1_555
C9 C8 1_555 1_555
C10 O4 1_555 1_555
C11 C3 1_555 1_555
C12 C4 1_555 1_555
C13 O7 1_555 1_555
C14 O12 1_555 1_555
C15 O14 1_555 1_555
O12A C14A 1_555 1_555
O13A C14A 1_555 1_555
O14A C15A 1_555 1_555
O15A C15A 1_555 1_555
C7A C9 1_555 1_555
H15A C7A 1_555 1_555
C8A C7A 1_555 1_555
C9A C7 1_555 1_555
C14A C9A 1_555 1_555
C15A C8A 1_555 1_555
U1A O12A 1_555 1_555
Pr1A O6A 1_555 1_555
O1A U1A 1_555 1_555
O2A U1A 1_555 1_555
O4A U1A 1_555 1_555
O5A U1A 1_555 1_555
O6A C13A 1_555 1_555
O7A C13A 1_555 1_555
O8A C12A 1_555 1_555
O9A C12A 1_555 1_555
O10A C11A 1_555 1_555
O11A C11A 1_555 1_555
O16A Pr1A 1_555 1_555
H1A O16A 1_555 1_555
H2A O16A 1_555 1_555
O17A Pr1A 1_555 1_555
H3A O17A 1_555 1_555
H4A O17A 1_555 1_555
O18A Pr1A 1_555 1_555
H5A O18A 1_555 1_555
H6A O18A 1_555 1_555
O19A Pr1A 1_555 1_555
H7A O19A 1_555 1_555
H8A O19A 1_555 1_555
O20A Pr1A 1_555 1_555
H9A O20A 1_555 1_555
H10A O20A 1_555 1_555
O21A Pr1A 1_555 1_555
H11A O21A 1_555 1_555
H12A O21A 1_555 1_555
C1A C2A 1_555 1_555
C2A H13A 1_555 1_555
C3A C2A 1_555 1_555
C4A C3A 1_555 1_555
C5A C4A 1_555 1_555
H14A C5A 1_555 1_555
C6A C1A 1_555 1_555
C10A O4A 1_555 1_555
C11A C3A 1_555 1_555
C12A C4A 1_555 1_555
C13A C6A 1_555 1_555
O3A U2 1_555 1_555
U1_2 O11A 1_555 1_555
U1_3 O8 1_555 1_555
U1A_2 O8A 1_555 1_555
U1A_3 O11 1_555 1_555
U2_2 O14A 1_555 1_555
Pr1_2 O9 1_555 1_555
Pr1A_2 O9A 1_555 1_555
O7A_2 U2 1_555 1_555
O8_2 U1 1_555 1_555
O8A_2 U1A 1_555 1_555
O9_2 Pr1 1_555 1_555
O9A_2 Pr1A 1_555 1_555
O10_2 Pr1 1_555 1_555
O10A_2 Pr1A 1_555 1_555
O11_2 U1A 1_555 1_555
O11A_2 U1 1_555 1_555
O14A_2 U2 1_555 1_555
O15A_2 U2 1_555 1_555
O5 C10 1_555 1_555
O10 Pr1_2 1_555 1_555
O15 C15 1_555 1_555
C1 C10 1_555 1_555
C5 C6 1_555 1_555
C6 C13 1_555 1_555
C8 C15 1_555 1_555
C9 C14 1_555 1_555
O15A U2_2 1_555 1_555
C8A C9A 1_555 1_555
O5A C10A 1_555 1_555
O7A U2_2 1_555 1_555
O10A Pr1A_2 1_555 1_555
C1A C10A 1_555 1_555
C5A C6A 1_555 1_555

#END
