
#######################################################################
#
#                 Cambridge Crystallographic Data Centre
#                                CCDC 
#
#######################################################################
#
# If this CIF has been generated from an entry in the Cambridge 
# Structural Database, then it will include bibliographic, chemical, 
# crystal, experimental, refinement or atomic coordinate data resulting 
# from the CCDC's data processing and validation procedures.
#
#######################################################################

data_EHAFUO
_symmetry_cell_setting           triclinic
_symmetry_space_group_name_H-M   'P -1'
_symmetry_Int_Tables_number      2
_space_group_name_Hall           '-P 1'
loop_
_symmetry_equiv_pos_site_id
_symmetry_equiv_pos_as_xyz
1 x,y,z
2 -x,-y,-z
_cell_length_a                   7.7131(4)
_cell_length_b                   9.1907(6)
_cell_length_c                   10.4207(6)
_cell_angle_alpha                66.339(3)
_cell_angle_beta                 80.242(3)
_cell_angle_gamma                66.184(3)
_cell_volume                     618.972
loop_
_atom_site_label
_atom_site_type_symbol
_atom_site_fract_x
_atom_site_fract_y
_atom_site_fract_z
Mn1 Mn -0.5000 0.5000 0.5000
O1 O -0.5680(5) 0.5199(6) 0.7037(4)
H1 H -0.497(13) 0.527(11) 0.751(9)
H2 H -0.669(10) 0.536(8) 0.739(7)
N1 N -0.3604(5) 0.6889(5) 0.4385(4)
C1 C -0.2437(6) 0.7467(5) 0.4122(5)
N2 N -0.1292(5) 0.8284(5) 0.3766(5)
C2 C 0.0516(6) 0.7471(5) 0.4052(5)
N3 N 0.2122(5) 0.6918(5) 0.4235(5)
O1A O -0.4320(5) 0.4801(6) 0.2963(4)
H1A H -0.503(13) 0.473(11) 0.249(9)
H2A H -0.331(10) 0.464(8) 0.261(7)
N1A N -0.6396(5) 0.3111(5) 0.5615(4)
C1A C -0.7563(6) 0.2533(5) 0.5878(5)
N2A N -0.8708(5) 0.1716(5) 0.6234(5)
C2A C -1.0516(6) 0.2529(5) 0.5948(5)
N3A N -1.2122(5) 0.3082(5) 0.5765(5)
N3_2 N -0.7878(5) 0.6918(5) 0.4235(5)
N3A_2 N -0.2122(5) 0.3082(5) 0.5765(5)
Mn1_2 Mn 0.5000 0.5000 0.5000
Mn1_3 Mn -1.5000 0.5000 0.5000
N4 N -0.2928(5) 0.5426(5) 0.8311(4)
C3 C -0.2578(6) 0.6893(6) 0.7699(5)
C4 C -0.0733(6) 0.6850(6) 0.7602(5)
N5 N 0.0736(5) 0.5352(5) 0.8106(4)
C5 C 0.0390(6) 0.3903(6) 0.8708(4)
C6 C -0.1459(6) 0.3944(6) 0.8818(5)
C7 C -0.4255(7) 0.8531(6) 0.7155(6)
H3 H -0.5411 0.8280 0.7324
H4 H -0.4093 0.9100 0.6146
H5 H -0.4354 0.9282 0.7639
C8 C -0.0308(7) 0.8463(6) 0.6956(5)
H6 H 0.1059 0.8169 0.6987
H7 H -0.0980 0.9211 0.7482
H8 H -0.0729 0.9056 0.5980
C9 C 0.2073(7) 0.2265(6) 0.9243(5)
H9 H 0.3228 0.2520 0.9066
H10 H 0.2166 0.1515 0.8761
H11 H 0.1924 0.1693 1.0253
C10 C -0.1925(8) 0.2361(7) 0.9487(6)
H12 H -0.3296 0.2678 0.9452
H13 H -0.1516 0.1786 1.0466
H14 H -0.1267 0.1588 0.8981
loop_
_geom_bond_atom_site_label_1
_geom_bond_atom_site_label_2
_geom_bond_site_symmetry_1
_geom_bond_site_symmetry_2
Mn1 O1 1_555 1_555
O1 H1 1_555 1_555
H2 O1 1_555 1_555
N1 Mn1 1_555 1_555
C1 N1 1_555 1_555
N2 C1 1_555 1_555
C2 N2 1_555 1_555
N3 C2 1_555 1_555
N4 C3 1_555 1_555
C3 C4 1_555 1_555
C4 N5 1_555 1_555
N5 C5 1_555 1_555
C5 C6 1_555 1_555
C6 N4 1_555 1_555
C7 C3 1_555 1_555
H3 C7 1_555 1_555
H4 C7 1_555 1_555
H5 C7 1_555 1_555
C8 C4 1_555 1_555
H6 C8 1_555 1_555
H7 C8 1_555 1_555
H8 C8 1_555 1_555
C9 C5 1_555 1_555
H9 C9 1_555 1_555
H10 C9 1_555 1_555
H11 C9 1_555 1_555
C10 C6 1_555 1_555
H12 C10 1_555 1_555
H13 C10 1_555 1_555
H14 C10 1_555 1_555
O1A Mn1 1_555 1_555
H1A O1A 1_555 1_555
H2A O1A 1_555 1_555
N1A Mn1 1_555 1_555
C1A N1A 1_555 1_555
N2A C1A 1_555 1_555
C2A N2A 1_555 1_555
N3A C2A 1_555 1_555
N3_2 Mn1 1_555 1_555
N3A_2 Mn1 1_555 1_555
Mn1_2 N3 1_555 1_555
Mn1_3 N3A 1_555 1_555

#END
