
#######################################################################
#
#                 Cambridge Crystallographic Data Centre
#                                CCDC 
#
#######################################################################
#
# If this CIF has been generated from an entry in the Cambridge 
# Structural Database, then it will include bibliographic, chemical, 
# crystal, experimental, refinement or atomic coordinate data resulting 
# from the CCDC's data processing and validation procedures.
#
#######################################################################

data_EHAJAZ
_symmetry_cell_setting           monoclinic
_symmetry_space_group_name_H-M   'P 21/c'
_symmetry_Int_Tables_number      14
_space_group_name_Hall           '-P 2ybc'
loop_
_symmetry_equiv_pos_site_id
_symmetry_equiv_pos_as_xyz
1 x,y,z
2 -x,1/2+y,1/2-z
3 -x,-y,-z
4 x,1/2-y,1/2+z
_cell_length_a                   22.5926(4)
_cell_length_b                   11.7646(2)
_cell_length_c                   7.2025(11)
_cell_angle_alpha                90
_cell_angle_beta                 92.221(2)
_cell_angle_gamma                90
_cell_volume                     1912.94
loop_
_atom_site_label
_atom_site_type_symbol
_atom_site_fract_x
_atom_site_fract_y
_atom_site_fract_z
Sr1 Sr -0.276170(8) -0.051210(16) -0.19056(2)
S1 S -0.32605(2) -0.37163(4) -0.19410(6)
S2 S -0.18369(2) 0.09580(4) -0.54145(6)
O1 O -0.29866(6) -0.42676(12) -0.34796(17)
O2 O -0.31726(6) -0.43371(12) -0.02207(17)
O3 O -0.31050(6) -0.25254(12) -0.17666(19)
O4 O -0.21141(6) 0.08528(11) -0.36404(17)
O5 O -0.21603(6) 0.17056(11) -0.67043(17)
O6 O -0.17074(6) -0.01458(11) -0.62231(17)
O7 O -0.61735(6) -0.47413(12) -0.31290(19)
O8 O -0.61082(6) -0.31141(14) -0.4707(2)
H1 H -0.6463(11) -0.320(2) -0.479(3)
O9 O 0.06509(6) 0.40545(12) -0.38678(19)
O10 O 0.09079(6) 0.23625(14) -0.2688(2)
H2 H 0.1216(10) 0.268(2) -0.240(3)
O11 O -0.19452(6) -0.17990(13) -0.3673(2)
H3 H -0.2065(9) -0.2334(15) -0.413(3)
H4 H -0.1863(9) -0.1377(19) -0.461(3)
O12 O -0.27444(6) 0.14974(13) -0.01431(19)
H5 H -0.2600(9) 0.2060(19) -0.065(3)
H6 H -0.2597(9) 0.1419(19) 0.085(3)
O13 O -0.18191(6) -0.07777(13) 0.0093(2)
H7 H -0.1482(10) -0.075(2) -0.021(3)
H8 H -0.1798(10) -0.054(2) 0.116(3)
C1 C -0.52329(8) -0.38758(17) -0.3326(2)
C2 C -0.49498(9) -0.47620(18) -0.2406(3)
H9 H -0.5171 -0.5411 -0.2067
C3 C -0.43511(8) -0.47197(17) -0.1970(3)
H10 H -0.4159 -0.5334 -0.1340
C4 C -0.40336(8) -0.37611(16) -0.2470(2)
C5 C -0.43095(8) -0.28731(18) -0.3405(3)
H11 H -0.4087 -0.2226 -0.3748
C6 C -0.49097(8) -0.29276(18) -0.3841(3)
H12 H -0.5101 -0.2320 -0.4491
C7 C -0.58819(9) -0.39597(18) -0.3704(3)
C8 C -0.00562(8) 0.25537(17) -0.3971(2)
C9 C -0.05218(9) 0.32432(17) -0.4582(3)
H13 H -0.0466 0.4041 -0.4673
C10 C -0.10690(8) 0.27683(17) -0.5059(2)
H14 H -0.1390 0.3236 -0.5481
C11 C -0.11406(8) 0.16065(17) -0.4912(2)
C12 C -0.06784(8) 0.09132(17) -0.4305(3)
H15 H -0.0734 0.0114 -0.4229
C13 C -0.01381(8) 0.13871(17) -0.3813(3)
H16 H 0.0178 0.0918 -0.3366
C14 C 0.05274(8) 0.30772(18) -0.3516(3)
Sr1C Sr -0.276170(8) -0.448790(16) 0.30944(2)
Sr1A Sr -0.723830(8) -0.551210(16) -0.30944(2)
Sr1C_2 Sr -0.276170(8) -0.448790(16) -0.69056(2)
O1C O -0.29866(6) -0.07324(12) 0.15204(17)
O2C O -0.31726(6) -0.06629(12) -0.52207(17)
O7A O -0.38265(6) 0.02587(12) -0.18710(19)
loop_
_geom_bond_atom_site_label_1
_geom_bond_atom_site_label_2
_geom_bond_site_symmetry_1
_geom_bond_site_symmetry_2
Sr1 O3 1_555 1_555
S1 O1 1_555 1_555
S2 O4 1_555 1_555
O1 Sr1C_2 1_555 1_555
O2 S1 1_555 1_555
O3 S1 1_555 1_555
O4 Sr1 1_555 1_555
O5 S2 1_555 1_555
O6 S2 1_555 1_555
O7 C7 1_555 1_555
O8 H1 1_555 1_555
O9 C14 1_555 1_555
O10 H2 1_555 1_555
O11 Sr1 1_555 1_555
H3 O11 1_555 1_555
H4 O11 1_555 1_555
O12 Sr1 1_555 1_555
H5 O12 1_555 1_555
H6 O12 1_555 1_555
O13 Sr1 1_555 1_555
H7 O13 1_555 1_555
H8 O13 1_555 1_555
C1 C2 1_555 1_555
C2 H9 1_555 1_555
C3 C2 1_555 1_555
H10 C3 1_555 1_555
C4 S1 1_555 1_555
C5 C4 1_555 1_555
H11 C5 1_555 1_555
C6 C1 1_555 1_555
H12 C6 1_555 1_555
C7 O8 1_555 1_555
C8 C9 1_555 1_555
C9 H13 1_555 1_555
C10 C9 1_555 1_555
H14 C10 1_555 1_555
C11 S2 1_555 1_555
C12 C11 1_555 1_555
H15 C12 1_555 1_555
C13 C8 1_555 1_555
H16 C13 1_555 1_555
C14 O10 1_555 1_555
Sr1C O2 1_555 1_555
Sr1A O7 1_555 1_555
O1C Sr1 1_555 1_555
O2C Sr1 1_555 1_555
O7A Sr1 1_555 1_555
C1 C7 1_555 1_555
C3 C4 1_555 1_555
C5 C6 1_555 1_555
C8 C14 1_555 1_555
C10 C11 1_555 1_555
C12 C13 1_555 1_555

#END
