
#######################################################################
#
#                 Cambridge Crystallographic Data Centre
#                                CCDC 
#
#######################################################################
#
# If this CIF has been generated from an entry in the Cambridge 
# Structural Database, then it will include bibliographic, chemical, 
# crystal, experimental, refinement or atomic coordinate data resulting 
# from the CCDC's data processing and validation procedures.
#
#######################################################################

data_EHAKOO
_symmetry_cell_setting           monoclinic
_symmetry_space_group_name_H-M   'P 21/c'
_symmetry_Int_Tables_number      14
_space_group_name_Hall           '-P 2ybc'
loop_
_symmetry_equiv_pos_site_id
_symmetry_equiv_pos_as_xyz
1 x,y,z
2 -x,1/2+y,1/2-z
3 -x,-y,-z
4 x,1/2-y,1/2+z
_cell_length_a                   21.690(10)
_cell_length_b                   12.867(9)
_cell_length_c                   16.810(10)
_cell_angle_alpha                90
_cell_angle_beta                 114.46(2)
_cell_angle_gamma                90
_cell_volume                     4270.37
loop_
_atom_site_label
_atom_site_type_symbol
_atom_site_fract_x
_atom_site_fract_y
_atom_site_fract_z
Cu1 Cu 0.00122(2) 0.54646(3) 0.09218(3)
Cu2 Cu 0.15085(2) 0.50375(3) 0.22017(3)
Cu3 Cu 0.36760(2) 0.50919(4) 0.57142(3)
Cu4 Cu 0.51146(2) 0.54933(4) 0.59426(3)
O1 O 0.05969(11) 0.52124(17) 0.21533(14)
N1 N -0.04996(13) 0.4303(2) 0.11128(17)
N2 N 0.14847(15) 0.3752(2) 0.28644(18)
O2 O 0.45887(11) 0.52654(17) 0.66276(14)
N3 N 0.36814(14) 0.3850(2) 0.63985(19)
N4 N 0.56707(14) 0.4370(2) 0.66833(17)
O3 O 0.04246(11) 0.68023(17) 0.09488(15)
O4 O 0.15185(12) 0.64251(18) 0.17401(16)
O5 O 0.36095(12) 0.64985(19) 0.53077(17)
O6 O 0.46695(12) 0.68039(18) 0.54719(16)
N5 N -0.06283(15) 0.5684(2) -0.03159(18)
N6 N 0.22943(17) 0.4577(2) 0.2032(3)
N7 N 0.21882(18) 0.5840(3) 0.3656(2)
N8 N 0.27935(19) 0.4756(3) 0.4837(3)
N9 N 0.56697(15) 0.5667(2) 0.52609(19)
C1 C 0.2006(2) 0.3098(3) 0.3243(3)
C2 C 0.2021(2) 0.2373(3) 0.3855(3)
C3 C 0.1494(2) 0.2361(3) 0.4110(3)
C4 C 0.0962(2) 0.3036(3) 0.3730(2)
C5 C 0.09614(17) 0.3717(3) 0.3083(2)
C6 C 0.03815(17) 0.4470(2) 0.2585(2)
O7 O 0.02182(14) 0.49092(19) 0.32396(16)
C7 C -0.02369(17) 0.3895(3) 0.1918(2)
C8 C -0.0534(2) 0.3056(4) 0.2130(3)
C9 C -0.1105(2) 0.2621(4) 0.1497(3)
C10 C -0.1378(2) 0.3034(3) 0.0672(3)
C11 C -0.10679(18) 0.3885(3) 0.0498(2)
C12 C -0.0350(3) 0.5608(4) 0.2929(4)
C13 C 0.3142(2) 0.3240(3) 0.6242(3)
C14 C 0.3122(2) 0.2542(3) 0.6844(3)
C15 C 0.3668(2) 0.2476(3) 0.7637(3)
C16 C 0.4228(2) 0.3088(3) 0.7804(3)
C17 C 0.42248(17) 0.3764(3) 0.7158(2)
C18 C 0.48139(17) 0.4487(3) 0.7263(2)
O8 O 0.50160(13) 0.4886(2) 0.81175(15)
C19 C 0.54176(17) 0.3917(3) 0.7206(2)
C20 C 0.5725(2) 0.3061(4) 0.7703(3)
C21 C 0.6318(3) 0.2698(4) 0.7681(3)
C22 C 0.6590(2) 0.3180(4) 0.7181(3)
C23 C 0.62520(19) 0.4011(3) 0.6684(2)
C24 C 0.5572(3) 0.5598(4) 0.8403(3)
C25 C 0.10435(17) 0.7038(3) 0.1309(2)
C26 C 0.12292(17) 0.8132(3) 0.1195(2)
C27 C 0.1839(2) 0.8544(3) 0.1761(4)
C28 C 0.2012(3) 0.9558(4) 0.1650(5)
C29 C 0.1577(3) 1.0140(4) 0.0959(4)
C30 C 0.0976(3) 0.9742(3) 0.0413(3)
C31 C 0.0788(2) 0.8743(3) 0.0531(3)
C32 C 0.40545(17) 0.7060(3) 0.5231(2)
C33 C 0.38492(18) 0.8111(3) 0.4828(2)
C34 C 0.4289(2) 0.8712(3) 0.4623(3)
C35 C 0.4085(3) 0.9669(3) 0.4225(3)
C36 C 0.3435(3) 1.0020(3) 0.4031(3)
C37 C 0.3005(3) 0.9437(4) 0.4248(4)
C38 C 0.3208(2) 0.8473(3) 0.4641(3)
N10 N -0.07350(16) 0.6564(2) -0.05957(18)
N11 N -0.0851(3) 0.7375(3) -0.0888(3)
N12 N 0.24181(19) 0.4894(3) 0.1467(3)
N13 N 0.2565(3) 0.5163(7) 0.0919(4)
N14 N 0.24921(16) 0.5330(3) 0.4244(2)
N15 N 0.57967(17) 0.6557(2) 0.5139(2)
N16 N 0.5945(3) 0.7377(3) 0.5028(3)
H1 H 0.2329(19) 0.314(3) 0.307(2)
H2 H 0.243(2) 0.196(4) 0.416(3)
H3 H 0.150(2) 0.188(4) 0.458(3)
H4 H 0.061(2) 0.309(3) 0.391(3)
H5 H -0.0375(19) 0.284(3) 0.270(3)
H6 H -0.129(3) 0.198(4) 0.167(3)
H7 H -0.178(2) 0.277(3) 0.020(3)
H8 H -0.126(2) 0.425(3) -0.004(3)
H9 H -0.081(3) 0.526(5) 0.264(4)
H10 H -0.031(3) 0.610(4) 0.256(4)
H11 H -0.039(3) 0.598(5) 0.338(4)
H12 H 0.278(2) 0.334(3) 0.571(3)
H13 H 0.271(2) 0.213(4) 0.669(3)
H14 H 0.369(2) 0.207(3) 0.807(3)
H15 H 0.457(2) 0.310(3) 0.828(3)
H16 H 0.555(2) 0.274(4) 0.810(3)
H17 H 0.657(3) 0.212(4) 0.811(3)
H18 H 0.705(2) 0.294(4) 0.719(3)
H19 H 0.641(2) 0.439(4) 0.629(3)
H20 H 0.552(3) 0.625(5) 0.801(4)
H21 H 0.607(4) 0.531(5) 0.846(5)
H22 H 0.564(3) 0.577(5) 0.891(5)
H23 H 0.213(2) 0.817(4) 0.228(3)
H24 H 0.245(3) 0.983(4) 0.203(4)
H25 H 0.168(3) 1.091(5) 0.088(4)
H26 H 0.072(3) 1.012(4) 0.006(3)
H27 H 0.038(2) 0.849(3) 0.020(3)
H28 H 0.474(2) 0.844(3) 0.475(3)
H29 H 0.440(2) 1.002(3) 0.407(3)
H30 H 0.331(3) 1.073(4) 0.376(3)
H31 H 0.259(3) 0.971(4) 0.416(3)
H32 H 0.290(3) 0.804(4) 0.476(3)
N5B N 0.06283(15) 0.4316(2) 0.03159(18)
N9B N 0.43303(15) 0.4333(2) 0.47391(19)
Cu1B Cu -0.00122(2) 0.45354(3) -0.09218(3)
Cu4B Cu 0.48854(2) 0.45067(4) 0.40574(3)
loop_
_geom_bond_atom_site_label_1
_geom_bond_atom_site_label_2
_geom_bond_site_symmetry_1
_geom_bond_site_symmetry_2
Cu1 O1 1_555 1_555
Cu2 O1 1_555 1_555
Cu3 O2 1_555 1_555
Cu4 O2 1_555 1_555
O1 C6 1_555 1_555
N1 Cu1 1_555 1_555
N2 Cu2 1_555 1_555
O2 C18 1_555 1_555
N3 Cu3 1_555 1_555
N4 Cu4 1_555 1_555
O3 Cu1 1_555 1_555
O4 Cu2 1_555 1_555
O5 Cu3 1_555 1_555
O6 Cu4 1_555 1_555
N5 Cu1 1_555 1_555
N6 Cu2 1_555 1_555
N7 Cu2 1_555 1_555
N8 Cu3 1_555 1_555
N9 Cu4 1_555 1_555
C1 N2 1_555 1_555
C2 C1 1_555 1_555
C3 C2 1_555 1_555
C4 C3 1_555 1_555
C5 N2 1_555 1_555
C6 C5 1_555 1_555
O7 C6 1_555 1_555
C7 N1 1_555 1_555
C8 C7 1_555 1_555
C9 C8 1_555 1_555
C10 C9 1_555 1_555
C11 N1 1_555 1_555
C12 O7 1_555 1_555
C13 N3 1_555 1_555
C14 C13 1_555 1_555
C15 C14 1_555 1_555
C16 C15 1_555 1_555
C17 N3 1_555 1_555
C18 C17 1_555 1_555
O8 C18 1_555 1_555
C19 N4 1_555 1_555
C20 C19 1_555 1_555
C21 C20 1_555 1_555
C22 C21 1_555 1_555
C23 N4 1_555 1_555
C24 O8 1_555 1_555
C25 O3 1_555 1_555
C26 C25 1_555 1_555
C27 C26 1_555 1_555
C28 C27 1_555 1_555
C29 C28 1_555 1_555
C30 C29 1_555 1_555
C31 C26 1_555 1_555
C32 O5 1_555 1_555
C33 C32 1_555 1_555
C34 C33 1_555 1_555
C35 C34 1_555 1_555
C36 C35 1_555 1_555
C37 C36 1_555 1_555
C38 C33 1_555 1_555
N10 N5 1_555 1_555
N11 N10 1_555 1_555
N12 N6 1_555 1_555
N13 N12 1_555 1_555
N14 N7 1_555 1_555
N15 N9 1_555 1_555
N16 N15 1_555 1_555
H1 C1 1_555 1_555
H2 C2 1_555 1_555
H3 C3 1_555 1_555
H4 C4 1_555 1_555
H5 C8 1_555 1_555
H6 C9 1_555 1_555
H7 C10 1_555 1_555
H8 C11 1_555 1_555
H9 C12 1_555 1_555
H10 C12 1_555 1_555
H11 C12 1_555 1_555
H12 C13 1_555 1_555
H13 C14 1_555 1_555
H14 C15 1_555 1_555
H15 C16 1_555 1_555
H16 C20 1_555 1_555
H17 C21 1_555 1_555
H18 C22 1_555 1_555
H19 C23 1_555 1_555
H20 C24 1_555 1_555
H21 C24 1_555 1_555
H22 C24 1_555 1_555
H23 C27 1_555 1_555
H24 C28 1_555 1_555
H25 C29 1_555 1_555
H26 C30 1_555 1_555
H27 C31 1_555 1_555
H28 C34 1_555 1_555
H29 C35 1_555 1_555
H30 C36 1_555 1_555
H31 C37 1_555 1_555
H32 C38 1_555 1_555
N5B Cu1 1_555 1_555
N9B Cu4 1_555 1_555
Cu1B N5 1_555 1_555
Cu4B N9 1_555 1_555
O4 C25 1_555 1_555
O6 C32 1_555 1_555
N8 N14 1_555 1_555
C4 C5 1_555 1_555
C6 C7 1_555 1_555
C10 C11 1_555 1_555
C16 C17 1_555 1_555
C18 C19 1_555 1_555
C22 C23 1_555 1_555
C30 C31 1_555 1_555
C37 C38 1_555 1_555
N5B Cu1B 1_555 1_555
N9B Cu4B 1_555 1_555

#END
