
#######################################################################
#
#                 Cambridge Crystallographic Data Centre
#                                CCDC 
#
#######################################################################
#
# If this CIF has been generated from an entry in the Cambridge 
# Structural Database, then it will include bibliographic, chemical, 
# crystal, experimental, refinement or atomic coordinate data resulting 
# from the CCDC's data processing and validation procedures.
#
#######################################################################

data_EHAWUF
_symmetry_cell_setting           monoclinic
_symmetry_space_group_name_H-M   'C 2/c'
_symmetry_Int_Tables_number      15
_space_group_name_Hall           '-C 2yn'
loop_
_symmetry_equiv_pos_site_id
_symmetry_equiv_pos_as_xyz
1 x,y,z
2 1/2+x,1/2+y,z
3 x,-y,1/2+z
4 1/2+x,1/2-y,1/2+z
5 -x,-y,-z
6 1/2-x,1/2-y,-z
7 -x,y,1/2-z
8 1/2-x,1/2+y,1/2-z
_cell_length_a                   29.711(3)
_cell_length_b                   7.9124(8)
_cell_length_c                   15.5028(15)
_cell_angle_alpha                90
_cell_angle_beta                 109.212(2)
_cell_angle_gamma                90
_cell_volume                     3441.51
loop_
_atom_site_label
_atom_site_type_symbol
_atom_site_fract_x
_atom_site_fract_y
_atom_site_fract_z
Rh1 Rh 0.283115(12) 1.17999(5) 0.05424(3)
Mn1 Mn 0.5000 0.68803(13) 0.2500
C1 C 0.41642(16) 0.8919(6) 0.1263(4)
C2 C 0.37380(16) 0.9787(6) 0.0888(3)
H1 H 0.3618 0.9966 0.0246
C3 C 0.36621(16) 1.0098(6) 0.2307(3)
C4 C 0.40981(16) 0.9270(6) 0.2671(4)
H2 H 0.4225 0.9122 0.3314
C5 C 0.44296(16) 0.8182(7) 0.0667(4)
C6 C 0.33841(16) 1.0664(6) 0.2892(3)
H3 H 0.3195 1.1660 0.2618
H4 H 0.3603 1.0952 0.3501
H5 H 0.3171 0.9753 0.2944
C7 C 0.4038(2) 0.4586(8) 0.2046(5)
H6 H 0.3986 0.4831 0.1402
H7 H 0.3830 0.5308 0.2265
H8 H 0.3963 0.3396 0.2113
C8 C 0.23571(16) 0.9848(6) -0.1061(3)
C9 C 0.22567(16) 0.8259(6) -0.1620(3)
H9 H 0.2372 0.8386 -0.2140
H10 H 0.1913 0.8048 -0.1844
H11 H 0.2420 0.7307 -0.1242
C10 C 0.30820(17) 1.3916(6) -0.0729(4)
C11 C 0.34193(17) 1.4861(7) -0.1087(4)
H12 H 0.3564 1.5790 -0.0670
H13 H 0.3245 1.5319 -0.1693
H14 H 0.3669 1.4093 -0.1133
N1 N 0.43461(13) 0.8673(5) 0.2155(3)
N2 N 0.34927(13) 1.0378(5) 0.1413(3)
O1 O 0.47996(11) 0.7326(4) 0.1083(2)
O2 O 0.42726(13) 0.8465(5) -0.0163(3)
O3 O 0.45128(12) 0.4901(4) 0.2559(3)
H15 H 0.4667 0.4058 0.2969
O4 O 0.27091(11) 0.9805(4) -0.0329(2)
O5 O 0.20869(10) 1.1099(4) -0.1352(2)
O6 O 0.32637(10) 1.2914(4) -0.0072(2)
O7 O 0.26412(11) 1.4235(4) -0.1096(2)
C1F C 0.58358(16) 0.8919(6) 0.3737(4)
C2F C 0.62620(16) 0.9787(6) 0.4112(3)
H1F H 0.6382 0.9966 0.4754
C3F C 0.63379(16) 1.0098(6) 0.2693(3)
C4F C 0.59019(16) 0.9270(6) 0.2329(4)
H2F H 0.5775 0.9122 0.1686
C5F C 0.55704(16) 0.8182(7) 0.4333(4)
C6F C 0.66159(16) 1.0664(6) 0.2108(3)
H3F H 0.6805 1.1660 0.2382
H4F H 0.6397 1.0952 0.1499
H5F H 0.6829 0.9753 0.2056
N1F N 0.56539(13) 0.8673(5) 0.2845(3)
N2F N 0.65073(13) 1.0378(5) 0.3587(3)
O1F O 0.52004(11) 0.7326(4) 0.3917(2)
O2F O 0.57274(13) 0.8465(5) 0.5163(3)
C7F C 0.5962(2) 0.4586(8) 0.2954(5)
H6F H 0.6014 0.4831 0.3598
H7F H 0.6170 0.5308 0.2735
H8F H 0.6037 0.3396 0.2887
O3F O 0.54872(12) 0.4901(4) 0.2441(3)
H15F H 0.5333 0.4058 0.2031
Rh1F Rh 0.716885(12) 1.17999(5) 0.44576(3)
C8E C 0.26429(16) 1.5152(6) 0.1061(3)
C9E C 0.27433(16) 1.6741(6) 0.1620(3)
H9E H 0.2628 1.6614 0.2140
H10E H 0.3087 1.6952 0.1844
H11E H 0.2580 1.7693 0.1242
O4E O 0.22909(11) 1.5195(4) 0.0329(2)
O5E O 0.29131(10) 1.3901(4) 0.1352(2)
C10E C 0.19180(17) 1.1084(6) 0.0729(4)
C11E C 0.15807(17) 1.0139(7) 0.1087(4)
H12E H 0.1436 0.9210 0.0670
H13E H 0.1755 0.9681 0.1693
H14E H 0.1331 1.0907 0.1133
O6E O 0.17363(10) 1.2086(4) 0.0072(2)
O7E O 0.23588(11) 1.0765(4) 0.1096(2)
Rh1E Rh 0.216885(12) 1.32001(5) -0.05424(3)
Rh1C Rh 0.783115(12) 1.32001(5) 0.55424(3)
O4F O 0.72909(11) 0.9805(4) 0.5329(2)
O5C O 0.70869(10) 1.3901(4) 0.3648(2)
O6F O 0.67363(10) 1.2914(4) 0.5072(2)
O7C O 0.76412(11) 1.0765(4) 0.3904(2)
C12 C 0.5365(3) 0.302(2) 0.4581(10)
H16 H 0.5584 0.3281 0.4245
H17 H 0.5496 0.2085 0.5007
H18 H 0.5326 0.4015 0.4923
O8 O 0.4901(5) 0.252(3) 0.3934(11)
H19 H 0.4943 0.1872 0.3536
C13? C 0.5171(9) 0.266(8) 0.425(3)
H20? H 0.5222 0.3621 0.4668
H21? H 0.5371 0.2788 0.3860
H22? H 0.5257 0.1610 0.4602
O9? O 0.4673(6) 0.259(3) 0.3683(14)
H23? H 0.4513 0.2136 0.3977
loop_
_geom_bond_atom_site_label_1
_geom_bond_atom_site_label_2
_geom_bond_site_symmetry_1
_geom_bond_site_symmetry_2
Rh1 N2 1_555 1_555
Mn1 N1 1_555 1_555
C1 C2 1_555 1_555
C2 H1 1_555 1_555
C3 C4 1_555 1_555
C4 H2 1_555 1_555
C5 C1 1_555 1_555
C6 C3 1_555 1_555
H3 C6 1_555 1_555
H4 C6 1_555 1_555
H5 C6 1_555 1_555
C7 H6 1_555 1_555
H7 C7 1_555 1_555
H8 C7 1_555 1_555
C8 C9 1_555 1_555
C9 H9 1_555 1_555
H10 C9 1_555 1_555
H11 C9 1_555 1_555
C10 C11 1_555 1_555
C11 H12 1_555 1_555
H13 C11 1_555 1_555
H14 C11 1_555 1_555
N1 C1 1_555 1_555
N2 C2 1_555 1_555
O1 Mn1 1_555 1_555
O2 C5 1_555 1_555
O3 Mn1 1_555 1_555
H15 O3 1_555 1_555
O4 Rh1 1_555 1_555
O5 C8 1_555 1_555
O6 Rh1 1_555 1_555
O7 C10 1_555 1_555
C12 H16 1_555 1_555
H17 C12 1_555 1_555
H18 C12 1_555 1_555
O8 C12 1_555 1_555
H19 O8 1_555 1_555
C1F C2F 1_555 1_555
C2F H1F 1_555 1_555
C3F C4F 1_555 1_555
C4F H2F 1_555 1_555
C5F C1F 1_555 1_555
C6F C3F 1_555 1_555
H3F C6F 1_555 1_555
H4F C6F 1_555 1_555
H5F C6F 1_555 1_555
N1F Mn1 1_555 1_555
N2F C2F 1_555 1_555
O1F Mn1 1_555 1_555
O2F C5F 1_555 1_555
C7F H6F 1_555 1_555
H7F C7F 1_555 1_555
H8F C7F 1_555 1_555
O3F Mn1 1_555 1_555
H15F O3F 1_555 1_555
Rh1F N2F 1_555 1_555
C8E C9E 1_555 1_555
C9E H9E 1_555 1_555
H10E C9E 1_555 1_555
H11E C9E 1_555 1_555
O4E C8E 1_555 1_555
O5E Rh1 1_555 1_555
C10E C11E 1_555 1_555
C11E H12E 1_555 1_555
H13E C11E 1_555 1_555
H14E C11E 1_555 1_555
O6E C10E 1_555 1_555
O7E Rh1 1_555 1_555
Rh1E Rh1 1_555 1_555
Rh1C Rh1F 1_555 1_555
O4F Rh1F 1_555 1_555
O5C Rh1F 1_555 1_555
O6F Rh1F 1_555 1_555
O7C Rh1F 1_555 1_555
C3 N2 1_555 1_555
C4 N1 1_555 1_555
C5 O1 1_555 1_555
C7 O3 1_555 1_555
C8 O4 1_555 1_555
C10 O6 1_555 1_555
O5 Rh1E 1_555 1_555
O7 Rh1E 1_555 1_555
C1F N1F 1_555 1_555
C3F N2F 1_555 1_555
C4F N1F 1_555 1_555
C5F O1F 1_555 1_555
C7F O3F 1_555 1_555
C8E O5E 1_555 1_555
O4E Rh1E 1_555 1_555
C10E O7E 1_555 1_555
O6E Rh1E 1_555 1_555

#END
