
#######################################################################
#
#                 Cambridge Crystallographic Data Centre
#                                CCDC 
#
#######################################################################
#
# If this CIF has been generated from an entry in the Cambridge 
# Structural Database, then it will include bibliographic, chemical, 
# crystal, experimental, refinement or atomic coordinate data resulting 
# from the CCDC's data processing and validation procedures.
#
#######################################################################

data_EHIHOS
_symmetry_cell_setting           triclinic
_symmetry_space_group_name_H-M   'P -1'
_symmetry_Int_Tables_number      2
_space_group_name_Hall           '-P 1'
loop_
_symmetry_equiv_pos_site_id
_symmetry_equiv_pos_as_xyz
1 x,y,z
2 -x,-y,-z
_cell_length_a                   10.2128(7)
_cell_length_b                   10.3991(5)
_cell_length_c                   9.4486(6)
_cell_angle_alpha                96.090(3)
_cell_angle_beta                 110.924(1)
_cell_angle_gamma                109.243(2)
_cell_volume                     855.968
loop_
_atom_site_label
_atom_site_type_symbol
_atom_site_fract_x
_atom_site_fract_y
_atom_site_fract_z
O9 O 0.5964(9) 0.2074(12) 0.6187(12)
O10 O 0.5180(16) 0.3886(16) 0.370(2)
Nd1 Nd 0.054407(17) 0.010362(16) 0.260264(18)
O1 O -0.1172(3) -0.2385(3) 0.0819(3)
O2 O -0.2019(3) -0.1545(3) 0.2387(3)
O3 O -0.0120(3) 0.1452(3) 0.4150(3)
O4 O 0.1040(3) -0.1576(3) 0.4083(3)
O5 O -0.1203(3) 0.0426(3) 0.0234(3)
O6 O 0.2623(3) -0.0287(4) 0.2186(3)
O7 O 0.1910(4) 0.2402(3) 0.2217(3)
O8 O 0.2872(3) 0.1508(3) 0.5119(3)
N1 N -0.2456(11) -0.5326(9) -0.0284(14)
N2 N -0.0940(14) 0.3977(9) 0.7267(12)
N3 N -0.5636(9) -0.0950(14) -0.3130(9)
C1 C -0.2199(4) -0.2516(4) 0.1327(4)
C2 C -0.3647(4) -0.3816(4) 0.0635(4)
C3 C -0.4934(5) -0.3740(4) 0.0740(5)
H1 H -0.4882 -0.2893 0.1239
C4 C -0.3692(4) -0.5085(4) -0.0108(5)
C5 C -0.0479(4) 0.2114(3) 0.5039(4)
C6 C -0.0259(4) 0.3600(4) 0.5030(4)
C7 C 0.0211(6) 0.4165(4) 0.3945(5)
H2 H 0.0358 0.3602 0.3234
C8 C -0.0467(6) 0.4442(4) 0.6104(5)
C9 C -0.2461(4) 0.0295(4) -0.0805(4)
C10 C -0.3776(4) 0.0150(4) -0.0401(4)
C11 C -0.3530(4) 0.0598(5) 0.1129(4)
H3 H -0.2534 0.1001 0.1897
C12 C -0.5277(4) -0.0467(6) -0.1564(4)
H4 H 0.158(7) 0.227(7) 0.117(3)
H5 H 0.285(3) 0.296(6) 0.287(6)
H6 H 0.275(7) 0.161(7) 0.602(4)
H7 H 0.387(3) 0.175(7) 0.547(7)
C5A C 0.0479(4) -0.2114(3) 0.4961(4)
C9A C 0.2461(4) -0.0295(4) 0.0805(4)
C4A C -0.6308(4) -0.4915(4) 0.0108(5)
C3A C -0.5066(5) -0.6260(4) -0.0740(5)
O4A O -0.1040(3) 0.1576(3) 0.5917(3)
C8A C 0.0467(6) 0.5558(4) 0.3896(5)
C7A C -0.0211(6) 0.5835(4) 0.6055(5)
O6A O -0.2623(3) 0.0287(4) -0.2186(3)
C12A C -0.4723(4) 0.0467(6) 0.1564(4)
C11A C -0.6470(4) -0.0598(5) -0.1129(4)
loop_
_geom_bond_atom_site_label_1
_geom_bond_atom_site_label_2
_geom_bond_site_symmetry_1
_geom_bond_site_symmetry_2
Nd1 O1 1_555 1_555
O1 C1 1_555 1_555
O2 Nd1 1_555 1_555
O3 Nd1 1_555 1_555
O4 Nd1 1_555 1_555
O5 Nd1 1_555 1_555
O6 Nd1 1_555 1_555
O7 Nd1 1_555 1_555
O8 Nd1 1_555 1_555
N1 C4 1_555 1_555
N2 C8 1_555 1_555
N3 C12 1_555 1_555
C1 O2 1_555 1_555
C2 C1 1_555 1_555
C3 C2 1_555 1_555
H1 C3 1_555 1_555
C4 C2 1_555 1_555
C5 O3 1_555 1_555
C6 C5 1_555 1_555
C7 C6 1_555 1_555
H2 C7 1_555 1_555
C8 C6 1_555 1_555
C9 O5 1_555 1_555
C10 C9 1_555 1_555
C11 C10 1_555 1_555
H3 C11 1_555 1_555
C12 C10 1_555 1_555
H4 O7 1_555 1_555
H5 O7 1_555 1_555
H6 O8 1_555 1_555
H7 O8 1_555 1_555
C5A O4 1_555 1_555
C9A O6 1_555 1_555
C4A C3 1_555 1_555
C3A C4 1_555 1_555
O4A C5 1_555 1_555
C8A C7 1_555 1_555
C7A C8 1_555 1_555
O6A C9 1_555 1_555
C12A C11 1_555 1_555
C11A C12 1_555 1_555

#END
