
#######################################################################
#
#                 Cambridge Crystallographic Data Centre
#                                CCDC 
#
#######################################################################
#
# If this CIF has been generated from an entry in the Cambridge 
# Structural Database, then it will include bibliographic, chemical, 
# crystal, experimental, refinement or atomic coordinate data resulting 
# from the CCDC's data processing and validation procedures.
#
#######################################################################

data_EHIWAU
_symmetry_cell_setting           triclinic
_symmetry_space_group_name_H-M   'P 1'
_symmetry_Int_Tables_number      1
_space_group_name_Hall           'P 1'
loop_
_symmetry_equiv_pos_site_id
_symmetry_equiv_pos_as_xyz
1 x,y,z
_cell_length_a                   8.2557(7)
_cell_length_b                   8.9352(14)
_cell_length_c                   9.8158(8)
_cell_angle_alpha                101.803(2)
_cell_angle_beta                 113.4150(10)
_cell_angle_gamma                98.335(2)
_cell_volume                     629.431
loop_
_atom_site_label
_atom_site_type_symbol
_atom_site_fract_x
_atom_site_fract_y
_atom_site_fract_z
Hg1 Hg 1.20225(5) 1.15016(5) 0.83824(5)
Hg2 Hg -0.23489(3) 0.55348(3) 0.22261(3)
Cl1 Cl -0.2880(5) 0.7946(4) 0.3119(4)
Cl2 Cl -0.2861(5) 0.3080(5) 0.0545(4)
Cl3 Cl 1.2500(8) 1.3505(5) 1.0550(6)
Cl4 Cl 1.2331(6) 1.1850(5) 0.6134(5)
O1 O -0.0779(13) 0.7016(12) 0.0350(12)
N1 N 0.0968(11) 0.6192(11) 0.3802(10)
N2 N 0.7562(13) 0.9167(12) 0.6865(11)
N3 N 0.9399(12) 0.9317(10) 0.7514(11)
N4 N 1.2863(13) 0.9042(12) 0.8584(10)
N5 N 0.8067(11) 0.6793(10) 0.6483(9)
N6 N 0.7763(13) 0.4430(11) 0.4727(11)
N7 N 0.1374(13) 0.9316(13) 0.1660(11)
C1 C 0.3748(14) 0.8179(14) 0.5414(12)
H1 H 0.4325 0.9240 0.5939
C2 C 0.1853(15) 0.7664(14) 0.4614(14)
H2 H 0.1176 0.8404 0.4656
C3 C 0.1923(16) 0.5130(16) 0.3790(15)
H3 H 0.1300 0.4085 0.3231
C4 C 0.3815(16) 0.5500(15) 0.4573(16)
H4 H 0.4434 0.4713 0.4535
C5 C 0.4762(14) 0.7035(13) 0.5401(11)
C6 C 0.6778(13) 0.7657(12) 0.6262(11)
C7 C 0.9700(14) 0.7919(12) 0.7287(11)
C8 C 1.1584(15) 0.7676(15) 0.7883(12)
C9 C 1.1986(15) 0.6208(13) 0.7779(14)
H5 H 1.1063 0.5277 0.7302
C10 C 1.3804(17) 0.6183(15) 0.8409(15)
H6 H 1.4121 0.5223 0.8350
C11 C 1.5135(16) 0.7568(16) 0.9117(13)
H7 H 1.6360 0.7559 0.9547
C12 C 1.4631(15) 0.8988(15) 0.9186(14)
H8 H 1.5536 0.9930 0.9661
C13 C 0.7775(13) 0.5113(12) 0.6084(11)
C14 C 0.7648(15) 0.4317(13) 0.7112(13)
H9 H 0.7665 0.4843 0.8041
C15 C 0.7493(17) 0.2702(15) 0.6717(14)
H10 H 0.7384 0.2117 0.7373
C16 C 0.7503(17) 0.1983(15) 0.5354(14)
H11 H 0.7425 0.0906 0.5079
C17 C 0.7633(17) 0.2878(15) 0.4382(13)
H12 H 0.7628 0.2375 0.3452
C18 C 0.0803(19) 0.7785(19) 0.1042(15)
H13 H 0.1692 0.7228 0.1139
C19 C 0.0073(19) 1.0277(18) 0.1590(19)
H14 H -0.0897 0.9966 0.0556
H15 H 0.0680 1.1370 0.1866
H16 H -0.0422 1.0126 0.2301
C20 C 0.328(2) 1.016(2) 0.251(2)
H17 H 0.4021 0.9423 0.2570
H18 H 0.3514 1.0737 0.3538
H19 H 0.3555 1.0885 0.1987
Hg2_2 Hg 0.76511(3) 0.55348(3) 0.22261(3)
N6_2 N -0.2237(13) 0.4430(11) 0.4727(11)
loop_
_geom_bond_atom_site_label_1
_geom_bond_atom_site_label_2
_geom_bond_site_symmetry_1
_geom_bond_site_symmetry_2
Hg1 Cl3 1_555 1_555
Hg2 Cl1 1_555 1_555
Cl2 Hg2 1_555 1_555
Cl4 Hg1 1_555 1_555
O1 Hg2 1_555 1_555
N1 Hg2 1_555 1_555
N2 N3 1_555 1_555
N3 Hg1 1_555 1_555
N4 Hg1 1_555 1_555
N5 C6 1_555 1_555
N6 C13 1_555 1_555
N7 C18 1_555 1_555
C1 H1 1_555 1_555
C2 N1 1_555 1_555
H2 C2 1_555 1_555
C3 N1 1_555 1_555
H3 C3 1_555 1_555
C4 C3 1_555 1_555
H4 C4 1_555 1_555
C5 C1 1_555 1_555
C6 N2 1_555 1_555
C7 N3 1_555 1_555
C8 N4 1_555 1_555
C9 C8 1_555 1_555
H5 C9 1_555 1_555
C10 C9 1_555 1_555
H6 C10 1_555 1_555
C11 C10 1_555 1_555
H7 C11 1_555 1_555
C12 N4 1_555 1_555
H8 C12 1_555 1_555
C13 N5 1_555 1_555
C14 C13 1_555 1_555
H9 C14 1_555 1_555
C15 C14 1_555 1_555
H10 C15 1_555 1_555
C16 C15 1_555 1_555
H11 C16 1_555 1_555
C17 N6 1_555 1_555
H12 C17 1_555 1_555
C18 O1 1_555 1_555
H13 C18 1_555 1_555
C19 N7 1_555 1_555
H14 C19 1_555 1_555
H15 C19 1_555 1_555
H16 C19 1_555 1_555
C20 N7 1_555 1_555
H17 C20 1_555 1_555
H18 C20 1_555 1_555
H19 C20 1_555 1_555
Hg2_2 N6 1_555 1_555
N6_2 Hg2 1_555 1_555
N5 C7 1_555 1_555
C1 C2 1_555 1_555
C4 C5 1_555 1_555
C5 C6 1_555 1_555
C7 C8 1_555 1_555
C11 C12 1_555 1_555
C16 C17 1_555 1_555

#END
