
#######################################################################
#
#                 Cambridge Crystallographic Data Centre
#                                CCDC 
#
#######################################################################
#
# If this CIF has been generated from an entry in the Cambridge 
# Structural Database, then it will include bibliographic, chemical, 
# crystal, experimental, refinement or atomic coordinate data resulting 
# from the CCDC's data processing and validation procedures.
#
#######################################################################

data_EHIXOJ
_symmetry_cell_setting           monoclinic
_symmetry_space_group_name_H-M   'C 2/c'
_symmetry_Int_Tables_number      15
_space_group_name_Hall           '-C 2yn'
loop_
_symmetry_equiv_pos_site_id
_symmetry_equiv_pos_as_xyz
1 x,y,z
2 -x,y,1/2-z
3 1/2+x,1/2+y,z
4 1/2-x,1/2+y,1/2-z
5 -x,-y,-z
6 x,-y,1/2+z
7 1/2-x,1/2-y,-z
8 1/2+x,1/2-y,1/2+z
_cell_length_a                   30.542(8)
_cell_length_b                   8.695(2)
_cell_length_c                   23.562(6)
_cell_angle_alpha                90
_cell_angle_beta                 94.153(4)
_cell_angle_gamma                90
_cell_volume                     6240.76
loop_
_atom_site_label
_atom_site_type_symbol
_atom_site_fract_x
_atom_site_fract_y
_atom_site_fract_z
O7 O 0.4884(3) 0.6256(11) 0.1995(5)
C33 C 0.5000 0.5217(18) 0.2500
O7A O 0.5116(3) 0.6256(11) 0.3005(5)
Zn1 Zn 0.248386(15) 0.61793(5) 0.19555(2)
S1 S 0.25913(3) 0.46547(12) 0.31351(5)
O1 O 0.39665(11) 0.1017(4) 0.07732(16)
O2 O 0.06287(10) 0.1667(4) 0.11258(17)
O3 O 0.2403(2) 0.3290(7) 0.2817(3)
O4 O 0.2430(3) 0.4784(16) 0.3667(3)
O5 O 0.2418(2) 0.5976(7) 0.2747(2)
O6 O 0.30472(9) 0.4477(4) 0.30766(15)
N1 N 0.30367(11) 0.5189(4) 0.17383(15)
N2 N 0.33111(12) 0.1509(4) 0.11462(16)
H1 H 0.3050 0.1147 0.1161
N3 N 0.34603(12) -0.0902(4) 0.08482(16)
H2 H 0.3200 -0.1082 0.0950
N4 N 0.19636(10) 0.5412(4) 0.14691(14)
N5 N 0.13507(11) 0.1850(4) 0.14482(15)
H3 H 0.1562 0.1342 0.1621
N6 N 0.09969(11) -0.0425(4) 0.15062(16)
H4 H 0.1251 -0.0711 0.1651
C1 C 0.30191(14) 0.3811(5) 0.14948(18)
H5 H 0.2745 0.3374 0.1407
C2 C 0.33860(13) 0.2989(5) 0.13653(17)
C3 C 0.37945(14) 0.3670(5) 0.14811(19)
H6 H 0.4050 0.3163 0.1396
C4 C 0.38136(14) 0.5106(6) 0.17233(19)
H7 H 0.4084 0.5583 0.1801
C5 C 0.34339(14) 0.5846(5) 0.18522(19)
H8 H 0.3452 0.6814 0.2020
C6 C 0.36115(15) 0.0580(5) 0.09113(19)
C7 C 0.36897(16) -0.2163(5) 0.06329(19)
C8 C 0.41432(17) -0.2190(6) 0.0661(2)
H9 H 0.4304 -0.1370 0.0821
C9 C 0.4359(2) -0.3471(8) 0.0445(3)
H10 H 0.4664 -0.3487 0.0464
C10 C 0.4136(3) -0.4662(8) 0.0215(3)
H11 H 0.4288 -0.5489 0.0074
C11 C 0.3422(3) -0.5946(7) -0.0053(2)
H12 H 0.3570 -0.6789 -0.0189
C12 C 0.2983(3) -0.5974(8) -0.0087(3)
H13 H 0.2831 -0.6819 -0.0242
C13 C 0.2757(2) -0.4705(7) 0.0115(2)
H14 H 0.2452 -0.4708 0.0091
C14 C 0.2978(2) -0.3469(6) 0.0346(2)
H15 H 0.2819 -0.2645 0.0477
C15 C 0.34358(19) -0.3407(5) 0.03916(18)
C16 C 0.3676(2) -0.4684(6) 0.0182(2)
C17 C 0.18191(13) 0.4000(5) 0.15742(18)
H16 H 0.1981 0.3403 0.1841
C18 C 0.14417(13) 0.3376(5) 0.13081(17)
C19 C 0.11982(14) 0.4279(5) 0.09178(18)
H17 H 0.0939 0.3913 0.0734
C20 C 0.13498(16) 0.5735(5) 0.08081(18)
H18 H 0.1192 0.6357 0.0545
C21 C 0.17296(15) 0.6274(5) 0.10824(18)
H19 H 0.1828 0.7256 0.1000
C22 C 0.09587(14) 0.1069(5) 0.13393(19)
C23 C 0.06626(14) -0.1565(6) 0.14678(19)
C24 C 0.03002(16) -0.1440(7) 0.1102(3)
H20 H 0.0264 -0.0583 0.0867
C25 C -0.00227(17) -0.2607(8) 0.1077(3)
H21 H -0.0271 -0.2506 0.0827
C26 C 0.00229(18) -0.3854(8) 0.1407(3)
H22 H -0.0195 -0.4603 0.1386
C27 C 0.04647(19) -0.5382(6) 0.2122(3)
H23 H 0.0253 -0.6153 0.2094
C28 C 0.0822(2) -0.5576(6) 0.2481(3)
H24 H 0.0855 -0.6462 0.2700
C29 C 0.11447(17) -0.4434(6) 0.2521(2)
H25 H 0.1395 -0.4574 0.2764
C30 C 0.10977(15) -0.3114(5) 0.22073(18)
H26 H 0.1313 -0.2358 0.2249
C31 C 0.07281(13) -0.2876(5) 0.18212(19)
C32 C 0.03988(16) -0.4048(6) 0.1787(2)
Zn1C Zn 0.251614(15) 0.11793(5) 0.30445(2)
O3C O 0.2597(2) 0.8290(7) 0.2183(3)
O8? O 0.2613(3) 0.8236(8) 0.1608(4)
O9? O 0.2410(3) 1.0806(10) 0.1403(4)
O10? O 0.2687(3) 1.0042(15) 0.2338(4)
loop_
_geom_bond_atom_site_label_1
_geom_bond_atom_site_label_2
_geom_bond_site_symmetry_1
_geom_bond_site_symmetry_2
Zn1 O5 1_555 1_555
S1 O3 1_555 1_555
O1 C6 1_555 1_555
O2 C22 1_555 1_555
O3 Zn1C 1_555 1_555
O4 S1 1_555 1_555
O5 S1 1_555 1_555
O6 S1 1_555 1_555
O7 C33 1_555 1_555
N1 Zn1 1_555 1_555
N2 H1 1_555 1_555
N3 H2 1_555 1_555
N4 Zn1 1_555 1_555
N5 H3 1_555 1_555
N6 H4 1_555 1_555
C1 N1 1_555 1_555
H5 C1 1_555 1_555
C2 N2 1_555 1_555
C3 C2 1_555 1_555
H6 C3 1_555 1_555
C4 C3 1_555 1_555
H7 C4 1_555 1_555
C5 N1 1_555 1_555
H8 C5 1_555 1_555
C6 N2 1_555 1_555
C7 N3 1_555 1_555
C8 C7 1_555 1_555
H9 C8 1_555 1_555
C9 C8 1_555 1_555
H10 C9 1_555 1_555
C10 C9 1_555 1_555
H11 C10 1_555 1_555
C11 H12 1_555 1_555
C12 C11 1_555 1_555
H13 C12 1_555 1_555
C13 C12 1_555 1_555
H14 C13 1_555 1_555
C14 C13 1_555 1_555
H15 C14 1_555 1_555
C15 C7 1_555 1_555
C16 C10 1_555 1_555
C17 N4 1_555 1_555
H16 C17 1_555 1_555
C18 N5 1_555 1_555
C19 C18 1_555 1_555
H17 C19 1_555 1_555
C20 C19 1_555 1_555
H18 C20 1_555 1_555
C21 N4 1_555 1_555
H19 C21 1_555 1_555
C22 N5 1_555 1_555
C23 N6 1_555 1_555
C24 C23 1_555 1_555
H20 C24 1_555 1_555
C25 C24 1_555 1_555
H21 C25 1_555 1_555
C26 C25 1_555 1_555
H22 C26 1_555 1_555
C27 H23 1_555 1_555
C28 C27 1_555 1_555
H24 C28 1_555 1_555
C29 C28 1_555 1_555
H25 C29 1_555 1_555
C30 C29 1_555 1_555
H26 C30 1_555 1_555
C31 C23 1_555 1_555
C32 C26 1_555 1_555
C33 O7A 1_555 1_555
O3C Zn1 1_555 1_555
N3 C6 1_555 1_555
N6 C22 1_555 1_555
C1 C2 1_555 1_555
C4 C5 1_555 1_555
C11 C16 1_555 1_555
C14 C15 1_555 1_555
C15 C16 1_555 1_555
C17 C18 1_555 1_555
C20 C21 1_555 1_555
C27 C32 1_555 1_555
C30 C31 1_555 1_555
C31 C32 1_555 1_555

#END
