
#######################################################################
#
#                 Cambridge Crystallographic Data Centre
#                                CCDC 
#
#######################################################################
#
# If this CIF has been generated from an entry in the Cambridge 
# Structural Database, then it will include bibliographic, chemical, 
# crystal, experimental, refinement or atomic coordinate data resulting 
# from the CCDC's data processing and validation procedures.
#
#######################################################################

data_EHIYUQ
_symmetry_cell_setting           monoclinic
_symmetry_space_group_name_H-M   'P 21/c'
_symmetry_Int_Tables_number      14
_space_group_name_Hall           '-P 2ybc'
loop_
_symmetry_equiv_pos_site_id
_symmetry_equiv_pos_as_xyz
1 x,y,z
2 -x,1/2+y,1/2-z
3 -x,-y,-z
4 x,1/2-y,1/2+z
_cell_length_a                   12.546(3)
_cell_length_b                   7.8038(19)
_cell_length_c                   16.158(4)
_cell_angle_alpha                90
_cell_angle_beta                 108.374(4)
_cell_angle_gamma                90
_cell_volume                     1501.32
loop_
_atom_site_label
_atom_site_type_symbol
_atom_site_fract_x
_atom_site_fract_y
_atom_site_fract_z
Cd1 Cd -0.388670(14) 0.16525(2) 0.016190(11)
V1 V -0.39398(3) -0.10759(6) 0.19302(3)
V2 V -0.47391(3) -0.48217(5) 0.15589(3)
O1 O -0.45554(15) -0.0409(2) 0.08950(12)
O2 O -0.35820(16) -0.3350(2) 0.19905(13)
O3 O -0.48528(18) -0.0713(3) 0.25735(12)
O4 O -0.27755(18) -0.0067(3) 0.23178(14)
O5 O -0.43523(18) -0.6353(3) 0.10211(15)
O6 O -0.42372(16) 0.3675(3) -0.09146(14)
N1 N -0.27400(17) -0.0527(3) -0.00608(15)
N2 N -0.20180(18) 0.2384(3) 0.08677(14)
N3 N 0.11800(19) -0.2690(3) 0.10345(16)
N4 N 0.17834(19) -0.0226(3) 0.17411(16)
H1 H 0.2249 0.0507 0.2056
C1 C -0.3113(2) -0.1915(4) -0.0547(2)
H2 H -0.3868 -0.1969 -0.0877
C2 C -0.2415(2) -0.3295(3) -0.0582(2)
H3 H -0.2701 -0.4242 -0.0931
C3 C -0.1303(2) -0.3224(3) -0.00948(19)
H4 H -0.0829 -0.4137 -0.0100
C4 C -0.0884(2) -0.1769(3) 0.04123(18)
C5 C 0.0274(2) -0.1532(3) 0.09147(19)
C6 C 0.0635(2) -0.0026(4) 0.13484(17)
C7 C -0.0092(2) 0.1394(4) 0.13453(17)
C8 C 0.0249(2) 0.2995(4) 0.17363(19)
H5 H 0.1003 0.3211 0.2031
C9 C -0.0547(2) 0.4236(4) 0.16764(18)
H6 H -0.0334 0.5316 0.1915
C10 C -0.1675(2) 0.3868(4) 0.12551(19)
H7 H -0.2209 0.4701 0.1246
C11 C -0.1244(2) 0.1153(3) 0.08921(16)
C12 C -0.1638(2) -0.0428(3) 0.04132(17)
C13 C 0.2015(3) -0.1851(4) 0.1516(2)
H8 H 0.2736 -0.2308 0.1703
Cd1B Cd -0.611330(14) -0.16525(2) -0.016190(11)
Cd1B_2 Cd -0.611330(14) 0.83475(2) -0.016190(11)
Cd1_2 Cd -0.388670(14) -0.83475(2) 0.016190(11)
V1B V -0.60602(3) 0.10759(6) -0.19302(3)
V2A V -0.52609(3) 0.01783(5) 0.34411(3)
V2B V -0.52609(3) 0.48217(5) -0.15589(3)
V2C V -0.47391(3) -0.01783(5) -0.34411(3)
O1B O -0.54446(15) 0.0409(2) -0.08950(12)
O2B O -0.64180(16) 0.3350(2) -0.19905(13)
O3A O -0.51472(18) -0.5713(3) 0.24265(12)
O3C O -0.48528(18) 0.5713(3) -0.24265(12)
O3B O -0.51472(18) 0.0713(3) -0.25735(12)
O4B O -0.72245(18) 0.0067(3) -0.23178(14)
O5B O -0.56477(18) -0.3647(3) -0.10211(15)
O5_2 O -0.43523(18) 0.3647(3) 0.10211(15)
O5B_2 O -0.56477(18) 0.6353(3) -0.10211(15)
O6B O -0.57628(16) -0.3675(3) 0.09146(14)
N1B N -0.72600(17) 0.0527(3) 0.00608(15)
N2B N -0.79820(18) -0.2384(3) -0.08677(14)
N3B N -1.11800(19) 0.2690(3) -0.10345(16)
N4B N -1.17834(19) 0.0226(3) -0.17411(16)
H1B H -1.2249 -0.0507 -0.2056
C1B C -0.6887(2) 0.1915(4) 0.0547(2)
H2B H -0.6132 0.1969 0.0877
C2B C -0.7585(2) 0.3295(3) 0.0582(2)
H3B H -0.7299 0.4242 0.0931
C3B C -0.8697(2) 0.3224(3) 0.00948(19)
H4B H -0.9171 0.4137 0.0100
C4B C -0.9116(2) 0.1769(3) -0.04123(18)
C5B C -1.0274(2) 0.1532(3) -0.09147(19)
C6B C -1.0635(2) 0.0026(4) -0.13484(17)
C7B C -0.9908(2) -0.1394(4) -0.13453(17)
C8B C -1.0249(2) -0.2995(4) -0.17363(19)
H5B H -1.1003 -0.3211 -0.2031
C9B C -0.9453(2) -0.4236(4) -0.16764(18)
H6B H -0.9666 -0.5316 -0.1915
C10B C -0.8325(2) -0.3868(4) -0.12551(19)
H7B H -0.7791 -0.4701 -0.1246
C11B C -0.8756(2) -0.1153(3) -0.08921(16)
C12B C -0.8362(2) 0.0428(3) -0.04132(17)
C13B C -1.2015(3) 0.1851(4) -0.1516(2)
H8B H -1.2736 0.2308 -0.1703
loop_
_geom_bond_atom_site_label_1
_geom_bond_atom_site_label_2
_geom_bond_site_symmetry_1
_geom_bond_site_symmetry_2
Cd1 O1 1_555 1_555
V1 O1 1_555 1_555
V2 O2 1_555 1_555
O1 Cd1B 1_555 1_555
O2 V1 1_555 1_555
O3 V1 1_555 1_555
O4 V1 1_555 1_555
O5 V2 1_555 1_555
O6 Cd1 1_555 1_555
N1 Cd1 1_555 1_555
N2 Cd1 1_555 1_555
N3 C5 1_555 1_555
N4 H1 1_555 1_555
C1 N1 1_555 1_555
H2 C1 1_555 1_555
C2 C1 1_555 1_555
H3 C2 1_555 1_555
C3 C2 1_555 1_555
H4 C3 1_555 1_555
C4 C3 1_555 1_555
C5 C4 1_555 1_555
C6 N4 1_555 1_555
C7 C6 1_555 1_555
C8 C7 1_555 1_555
H5 C8 1_555 1_555
C9 C8 1_555 1_555
H6 C9 1_555 1_555
C10 N2 1_555 1_555
H7 C10 1_555 1_555
C11 N2 1_555 1_555
C12 N1 1_555 1_555
C13 N3 1_555 1_555
H8 C13 1_555 1_555
Cd1B O1B 1_555 1_555
Cd1B_2 O5B_2 1_555 1_555
Cd1_2 O5 1_555 1_555
V1B O1B 1_555 1_555
V2A O3 1_555 1_555
V2B O6 1_555 1_555
V2C O3B 1_555 1_555
O1B Cd1 1_555 1_555
O2B V1B 1_555 1_555
O3A V2 1_555 1_555
O3C V2B 1_555 1_555
O3B V1B 1_555 1_555
O4B V1B 1_555 1_555
O5B Cd1B 1_555 1_555
O5_2 Cd1 1_555 1_555
O5B_2 V2B 1_555 1_555
O6B V2 1_555 1_555
N1B Cd1B 1_555 1_555
N2B Cd1B 1_555 1_555
N3B C5B 1_555 1_555
N4B H1B 1_555 1_555
C1B N1B 1_555 1_555
H2B C1B 1_555 1_555
C2B C1B 1_555 1_555
H3B C2B 1_555 1_555
C3B C2B 1_555 1_555
H4B C3B 1_555 1_555
C4B C3B 1_555 1_555
C5B C4B 1_555 1_555
C6B N4B 1_555 1_555
C7B C6B 1_555 1_555
C8B C7B 1_555 1_555
H5B C8B 1_555 1_555
C9B C8B 1_555 1_555
H6B C9B 1_555 1_555
C10B N2B 1_555 1_555
H7B C10B 1_555 1_555
C11B N2B 1_555 1_555
C12B N1B 1_555 1_555
C13B N3B 1_555 1_555
H8B C13B 1_555 1_555
N4 C13 1_555 1_555
C4 C12 1_555 1_555
C5 C6 1_555 1_555
C7 C11 1_555 1_555
C9 C10 1_555 1_555
C11 C12 1_555 1_555
Cd1B O6B 1_555 1_555
V2B O2B 1_555 1_555
N4B C13B 1_555 1_555
C4B C12B 1_555 1_555
C5B C6B 1_555 1_555
C7B C11B 1_555 1_555
C9B C10B 1_555 1_555
C11B C12B 1_555 1_555

#END
