
#######################################################################
#
#                 Cambridge Crystallographic Data Centre
#                                CCDC 
#
#######################################################################
#
# If this CIF has been generated from an entry in the Cambridge 
# Structural Database, then it will include bibliographic, chemical, 
# crystal, experimental, refinement or atomic coordinate data resulting 
# from the CCDC's data processing and validation procedures.
#
#######################################################################

data_EHIZOL
_symmetry_cell_setting           triclinic
_symmetry_space_group_name_H-M   'P -1'
_symmetry_Int_Tables_number      2
_space_group_name_Hall           '-P 1'
loop_
_symmetry_equiv_pos_site_id
_symmetry_equiv_pos_as_xyz
1 x,y,z
2 -x,-y,-z
_cell_length_a                   9.0334(7)
_cell_length_b                   11.9886(10)
_cell_length_c                   13.5352(11)
_cell_angle_alpha                76.7510(10)
_cell_angle_beta                 76.6570(10)
_cell_angle_gamma                83.0500(10)
_cell_volume                     1384.71
loop_
_atom_site_label
_atom_site_type_symbol
_atom_site_fract_x
_atom_site_fract_y
_atom_site_fract_z
Gd1 Gd 0.641879(8) 0.618204(6) 0.731913(6)
Co1 Co 0.24734(2) 0.081091(19) 0.712833(17)
O1 O 0.64712(15) -0.16154(10) 0.97254(10)
O2 O 0.84418(14) -0.05917(12) 0.95376(10)
O3 O 0.85423(14) 0.33736(11) 0.72205(11)
O4 O 0.62067(14) 0.42367(10) 0.72137(11)
O5 O 0.82427(15) 0.75621(11) 0.74277(11)
O6 O 0.67298(16) 0.82114(12) 0.63275(11)
O7 O 0.85357(15) 1.33603(12) 0.45380(12)
O8 O 0.64241(16) 1.24379(13) 0.49504(13)
O9 O 0.38628(15) 0.61866(12) 0.75473(11)
O10 O 0.17259(16) 0.72725(12) 0.79572(12)
O11 O -0.29814(15) 0.50764(12) 0.88126(10)
O12 O -0.28660(17) 0.32967(13) 0.97759(12)
O13 O 0.32941(18) -0.08756(12) 0.70685(13)
O14 O 0.11652(18) 0.03241(16) 0.85964(11)
O15 O 0.16020(18) 0.25482(13) 0.71634(12)
O16 O 0.38418(16) 0.12698(13) 0.56625(11)
O17 O 0.88173(18) 0.56524(15) 0.63003(14)
O18 O 0.58275(19) 0.62241(14) 0.56710(12)
O19 O 0.52266(18) 0.72622(13) 0.86304(12)
N1 N 0.44258(16) 0.10464(12) 0.77652(11)
N2 N 1.05079(15) 1.06025(12) 0.64952(11)
N3 N 0.17863(19) 0.33291(14) 0.94078(12)
C1 C 0.51013(19) 0.01759(14) 0.83753(12)
H1 H 0.4648 -0.0520 0.8603
C2 C 0.64419(18) 0.02716(14) 0.86792(12)
C3 C 0.71206(19) 0.13105(14) 0.83420(13)
H2 H 0.8028 0.1394 0.8523
C4 C 0.64281(19) 0.22235(14) 0.77313(13)
C5 C 0.50831(19) 0.20534(14) 0.74746(13)
H3 H 0.4609 0.2670 0.7079
C6 C 0.71738(19) -0.07191(14) 0.93602(12)
C7 C 0.71258(19) 0.33648(14) 0.73562(13)
C8 C 0.98206(18) 0.96070(14) 0.67701(12)
H4 H 1.0229 0.8988 0.7204
C9 C 0.85245(18) 0.94673(14) 0.64315(12)
C10 C 0.78902(19) 1.04017(14) 0.58081(13)
H5 H 0.7022 1.0331 0.5574
C11 C 0.85640(18) 1.14457(14) 0.55357(12)
C12 C 0.98846(19) 1.14913(14) 0.58788(12)
H6 H 1.0367 1.2175 0.5671
C13 C 0.78025(19) 0.83360(14) 0.67531(13)
C14 C 0.77998(19) 1.24992(15) 0.49473(13)
C15 C 0.2512(2) 0.42715(16) 0.89040(14)
H7 H 0.3563 0.4266 0.8825
C16 C 0.1691(2) 0.52579(15) 0.84994(13)
C17 C 0.0127(2) 0.52326(15) 0.86100(13)
H8 H -0.0441 0.5888 0.8348
C18 C -0.0593(2) 0.42317(15) 0.91100(13)
C19 C 0.0281(2) 0.32795(16) 0.95211(14)
H9 H -0.0179 0.2607 0.9875
C20 C 0.2479(2) 0.63416(16) 0.79609(14)
C21 C -0.2292(2) 0.41803(16) 0.92476(13)
H10 H 0.236(3) 0.273(3) 0.970(2)
H11 H 0.407(4) -0.100(3) 0.679(3)
H12 H 0.284(4) -0.151(3) 0.737(3)
H13 H 0.041(4) 0.001(3) 0.876(2)
H14 H 0.138(3) 0.041(2) 0.919(2)
H15 H 0.075(3) 0.264(2) 0.723(2)
H16 H 0.201(3) 0.315(3) 0.690(2)
H17 H 0.358(4) 0.143(3) 0.506(2)
H18 H 0.467(3) 0.158(2) 0.555(2)
H19 H 0.898(3) 0.501(3) 0.642(2)
H20 H 0.961(4) 0.595(3) 0.610(2)
H21 H 0.499(3) 0.655(2) 0.550(2)
H22 H 0.622(4) 0.588(3) 0.521(2)
H23 H 0.450(3) 0.701(2) 0.905(2)
H24 H 0.573(3) 0.760(2) 0.890(2)
Gd1_2 Gd -0.358121(8) 0.618204(6) 0.731913(6)
Co1_2 Co 1.24734(2) 1.081091(19) 0.712833(17)
O11_2 O 0.70186(15) 0.50764(12) 0.88126(10)
N2_2 N 0.05079(15) 0.06025(12) 0.64952(11)
O20 O 0.6965(2) 0.54018(14) 0.38403(13)
H25 H 0.627(4) 0.531(3) 0.367(3)
H26 H 0.742(4) 0.489(3) 0.404(2)
loop_
_geom_bond_atom_site_label_1
_geom_bond_atom_site_label_2
_geom_bond_site_symmetry_1
_geom_bond_site_symmetry_2
Gd1 O4 1_555 1_555
Co1 O13 1_555 1_555
O1 C6 1_555 1_555
O2 C6 1_555 1_555
O3 C7 1_555 1_555
O4 C7 1_555 1_555
O5 Gd1 1_555 1_555
O6 Gd1 1_555 1_555
O7 C14 1_555 1_555
O8 C14 1_555 1_555
O9 Gd1 1_555 1_555
O10 C20 1_555 1_555
O11 C21 1_555 1_555
O12 C21 1_555 1_555
O13 H11 1_555 1_555
O14 Co1 1_555 1_555
O15 Co1 1_555 1_555
O16 Co1 1_555 1_555
O17 Gd1 1_555 1_555
O18 Gd1 1_555 1_555
O19 Gd1 1_555 1_555
O20 H25 1_555 1_555
N1 Co1 1_555 1_555
N2 C8 1_555 1_555
N3 C15 1_555 1_555
C1 N1 1_555 1_555
H1 C1 1_555 1_555
C2 C1 1_555 1_555
C3 C2 1_555 1_555
H2 C3 1_555 1_555
C4 C3 1_555 1_555
C5 N1 1_555 1_555
H3 C5 1_555 1_555
C6 C2 1_555 1_555
C7 C4 1_555 1_555
C8 H4 1_555 1_555
C9 C8 1_555 1_555
C10 C9 1_555 1_555
H5 C10 1_555 1_555
C11 C10 1_555 1_555
C12 N2 1_555 1_555
H6 C12 1_555 1_555
C13 O5 1_555 1_555
C14 C11 1_555 1_555
C15 H7 1_555 1_555
C16 C15 1_555 1_555
C17 C16 1_555 1_555
H8 C17 1_555 1_555
C18 C17 1_555 1_555
C19 N3 1_555 1_555
H9 C19 1_555 1_555
C20 O9 1_555 1_555
C21 C18 1_555 1_555
H10 N3 1_555 1_555
H12 O13 1_555 1_555
H13 O14 1_555 1_555
H14 O14 1_555 1_555
H15 O15 1_555 1_555
H16 O15 1_555 1_555
H17 O16 1_555 1_555
H18 O16 1_555 1_555
H19 O17 1_555 1_555
H20 O17 1_555 1_555
H21 O18 1_555 1_555
H22 O18 1_555 1_555
H23 O19 1_555 1_555
H24 O19 1_555 1_555
H26 O20 1_555 1_555
Gd1_2 O11 1_555 1_555
Co1_2 N2 1_555 1_555
O11_2 Gd1 1_555 1_555
N2_2 Co1 1_555 1_555
O6 C13 1_555 1_555
C4 C5 1_555 1_555
C9 C13 1_555 1_555
C11 C12 1_555 1_555
C16 C20 1_555 1_555
C18 C19 1_555 1_555

#END
