
#######################################################################
#
#                 Cambridge Crystallographic Data Centre
#                                CCDC 
#
#######################################################################
#
# If this CIF has been generated from an entry in the Cambridge 
# Structural Database, then it will include bibliographic, chemical, 
# crystal, experimental, refinement or atomic coordinate data resulting 
# from the CCDC's data processing and validation procedures.
#
#######################################################################

data_EHIZUR
_symmetry_cell_setting           triclinic
_symmetry_space_group_name_H-M   'P -1'
_symmetry_Int_Tables_number      2
_space_group_name_Hall           '-P 1'
loop_
_symmetry_equiv_pos_site_id
_symmetry_equiv_pos_as_xyz
1 x,y,z
2 -x,-y,-z
_cell_length_a                   9.0450(8)
_cell_length_b                   12.0139(11)
_cell_length_c                   13.5476(13)
_cell_angle_alpha                76.6610(10)
_cell_angle_beta                 76.6650(10)
_cell_angle_gamma                83.0890(10)
_cell_volume                     1390.32
loop_
_atom_site_label
_atom_site_type_symbol
_atom_site_fract_x
_atom_site_fract_y
_atom_site_fract_z
La1 La 0.64214(3) 0.618016(18) 0.731769(19)
Co1 Co 1.24729(7) 1.08106(5) 0.71318(5)
O1 O 0.8253(4) 0.7565(3) 0.7423(3)
O2 O 0.6737(5) 0.8219(3) 0.6326(3)
O3 O 0.6436(5) 1.2432(4) 0.4949(4)
O4 O 0.8531(4) 1.3366(3) 0.4547(4)
O5 O 0.6219(4) 0.4230(3) 0.7209(3)
O6 O 0.8543(4) 0.3371(3) 0.7221(3)
O7 O 0.8438(4) -0.0598(3) 0.9536(3)
O8 O 0.6470(4) -0.1618(3) 0.9726(3)
O9 O 0.1719(5) 0.7270(3) 0.7955(4)
O10 O 0.3856(4) 0.6185(4) 0.7544(3)
O11 O -0.2984(4) 0.5071(3) 0.8822(3)
O12 O -0.2846(5) 0.3288(4) 0.9785(4)
O13 O 1.1608(4) 1.2550(3) 0.7167(3)
O14 O 1.1166(5) 1.0328(4) 0.8594(3)
O15 O 1.3295(4) 0.9125(3) 0.7067(3)
O16 O 1.3839(4) 1.1266(4) 0.5669(3)
O17 O 0.5810(5) 0.6223(4) 0.5670(3)
O18 O 0.5232(5) 0.7261(3) 0.8642(3)
O19 O 0.8825(4) 0.5646(3) 0.6297(4)
N1 N 1.0516(4) 1.0606(3) 0.6492(3)
N2 N 0.4427(5) 0.1043(3) 0.7767(3)
N3 N 0.1789(5) 0.3334(4) 0.9400(4)
H1 H 0.2313 0.2735 0.9656
C1 C 0.9831(5) 0.9609(4) 0.6769(4)
H2 H 1.0238 0.8990 0.7202
C2 C 0.8531(5) 0.9475(4) 0.6426(4)
C3 C 0.7888(5) 1.0403(4) 0.5810(4)
H3 H 0.7016 1.0332 0.5582
C4 C 0.8567(5) 1.1447(4) 0.5535(4)
C5 C 0.9885(5) 1.1497(4) 0.5878(4)
H4 H 1.0361 1.2183 0.5674
C6 C 0.7813(5) 0.8341(4) 0.6745(4)
C7 C 0.7796(5) 1.2498(4) 0.4948(4)
C8 C 0.5080(5) 0.2053(4) 0.7475(4)
H5 H 0.4607 0.2670 0.7080
C9 C 0.6431(5) 0.2218(4) 0.7737(4)
C10 C 0.7122(5) 0.1311(4) 0.8335(4)
H6 H 0.8035 0.1393 0.8507
C11 C 0.6443(5) 0.0272(4) 0.8681(4)
C12 C 0.5105(5) 0.0174(4) 0.8378(4)
H7 H 0.4654 -0.0521 0.8606
C13 C 0.7129(5) 0.3363(4) 0.7357(4)
C14 C 0.7179(5) -0.0720(4) 0.9359(4)
C15 C 0.0282(6) 0.3281(4) 0.9520(4)
H8 H -0.0176 0.2609 0.9875
C16 C -0.0587(6) 0.4227(4) 0.9113(4)
C17 C 0.0130(6) 0.5235(4) 0.8607(4)
H9 H -0.0437 0.5888 0.8342
C18 C 0.1687(6) 0.5259(4) 0.8501(4)
C19 C 0.2510(6) 0.4275(4) 0.8903(4)
H10 H 0.3559 0.4271 0.8825
C20 C -0.2292(6) 0.4178(4) 0.9254(4)
C21 C 0.2471(6) 0.6340(4) 0.7956(4)
H11 H 1.0802 1.2538 0.7640
H12 H 1.1608 1.2944 0.6568
H13 H 1.0825 0.9665 0.8743
H14 H 1.1495 1.0501 0.9079
H15 H 1.3020 0.8604 0.7593
H16 H 1.4132 0.9050 0.6641
H17 H 1.4596 1.1649 0.5600
H18 H 1.3384 1.1383 0.5164
H19 H 0.6336 0.5869 0.5195
H20 H 0.5014 0.6592 0.5443
H21 H 0.5616 0.7954 0.8623
H22 H 0.4945 0.6929 0.9307
H23 H 0.9292 0.4965 0.6446
H24 H 0.9520 0.6110 0.5947
La1_2 La -0.35786(3) 0.618016(18) 0.731769(19)
Co1_2 Co 0.24729(7) 0.08106(5) 0.71318(5)
O11_2 O 0.7016(4) 0.5071(3) 0.8822(3)
N2_2 N 1.4427(5) 1.1043(3) 0.7767(3)
O20 O 0.3027(5) 0.4608(3) 0.6161(3)
H25 H 0.3806 0.4986 0.6061
H26 H 0.3187 0.3923 0.6059
loop_
_geom_bond_atom_site_label_1
_geom_bond_atom_site_label_2
_geom_bond_site_symmetry_1
_geom_bond_site_symmetry_2
La1 O1 1_555 1_555
Co1 O13 1_555 1_555
O1 C6 1_555 1_555
O2 La1 1_555 1_555
O3 C7 1_555 1_555
O4 C7 1_555 1_555
O5 La1 1_555 1_555
O6 C13 1_555 1_555
O7 C14 1_555 1_555
O8 C14 1_555 1_555
O9 C21 1_555 1_555
O10 La1 1_555 1_555
O11 C20 1_555 1_555
O12 C20 1_555 1_555
O13 H11 1_555 1_555
O14 Co1 1_555 1_555
O15 Co1 1_555 1_555
O16 Co1 1_555 1_555
O17 La1 1_555 1_555
O18 La1 1_555 1_555
O19 La1 1_555 1_555
O20 H25 1_555 1_555
N1 Co1 1_555 1_555
N2 C8 1_555 1_555
N3 H1 1_555 1_555
C1 N1 1_555 1_555
H2 C1 1_555 1_555
C2 C1 1_555 1_555
C3 C2 1_555 1_555
H3 C3 1_555 1_555
C4 C3 1_555 1_555
C5 N1 1_555 1_555
H4 C5 1_555 1_555
C6 O2 1_555 1_555
C7 C4 1_555 1_555
C8 H5 1_555 1_555
C9 C8 1_555 1_555
C10 C9 1_555 1_555
H6 C10 1_555 1_555
C11 C10 1_555 1_555
C12 N2 1_555 1_555
H7 C12 1_555 1_555
C13 O5 1_555 1_555
C14 C11 1_555 1_555
C15 N3 1_555 1_555
H8 C15 1_555 1_555
C16 C15 1_555 1_555
C17 C16 1_555 1_555
H9 C17 1_555 1_555
C18 C17 1_555 1_555
C19 N3 1_555 1_555
H10 C19 1_555 1_555
C20 C16 1_555 1_555
C21 O10 1_555 1_555
H12 O13 1_555 1_555
H13 O14 1_555 1_555
H14 O14 1_555 1_555
H15 O15 1_555 1_555
H16 O15 1_555 1_555
H17 O16 1_555 1_555
H18 O16 1_555 1_555
H19 O17 1_555 1_555
H20 O17 1_555 1_555
H21 O18 1_555 1_555
H22 O18 1_555 1_555
H23 O19 1_555 1_555
H24 O19 1_555 1_555
H26 O20 1_555 1_555
La1_2 O11 1_555 1_555
Co1_2 N2 1_555 1_555
O11_2 La1 1_555 1_555
N2_2 Co1 1_555 1_555
C2 C6 1_555 1_555
C4 C5 1_555 1_555
C9 C13 1_555 1_555
C11 C12 1_555 1_555
C18 C19 1_555 1_555
C18 C21 1_555 1_555

#END
