
#######################################################################
#
#                 Cambridge Crystallographic Data Centre
#                                CCDC 
#
#######################################################################
#
# If this CIF has been generated from an entry in the Cambridge 
# Structural Database, then it will include bibliographic, chemical, 
# crystal, experimental, refinement or atomic coordinate data resulting 
# from the CCDC's data processing and validation procedures.
#
#######################################################################

data_EHOVIH
_symmetry_cell_setting           triclinic
_symmetry_space_group_name_H-M   'P -1'
_symmetry_Int_Tables_number      2
_space_group_name_Hall           '-P 1'
loop_
_symmetry_equiv_pos_site_id
_symmetry_equiv_pos_as_xyz
1 x,y,z
2 -x,-y,-z
_cell_length_a                   8.936(2)
_cell_length_b                   9.613(2)
_cell_length_c                   10.243(2)
_cell_angle_alpha                96.814(17)
_cell_angle_beta                 114.69(2)
_cell_angle_gamma                105.83(2)
_cell_volume                     741.407
loop_
_atom_site_label
_atom_site_type_symbol
_atom_site_fract_x
_atom_site_fract_y
_atom_site_fract_z
Ni1 Ni 0.5000 0.5000 0.5000
O1 O 0.3175(4) 0.3435(3) 0.5326(4)
O2 O 0.2967(4) 0.5533(3) 0.3417(4)
O3 O 0.4735(4) 0.2147(4) 0.6633(4)
O4 O 0.1759(4) 0.3736(4) 0.7501(4)
O5 O -0.0884(5) 0.3418(4) 0.5680(4)
N1 N 0.4753(5) 0.3350(4) 0.3231(5)
N2 N 0.4605(5) 0.0444(5) -0.0207(5)
C1 C 0.1628(6) 0.1153(5) 0.5536(5)
C2 C 0.1384(6) -0.0309(5) 0.4936(5)
H1 H 0.2318 -0.0524 0.4889
C3 C 0.0332(6) 0.2987(5) 0.6262(6)
C4 C 0.3332(6) 0.2350(5) 0.5894(5)
C5 C 0.4893(6) 0.1017(5) 0.2304(6)
H2 H 0.5039 0.0118 0.2453
C6 C 0.4640(6) 0.1380(5) 0.0991(6)
C7 C 0.0223(6) 0.1457(5) 0.5597(5)
C8 C 0.4369(7) 0.2721(6) 0.0769(6)
H3 H 0.4125 0.2962 -0.0133
C9 C 0.4484(6) 0.3664(6) 0.1961(6)
H4 H 0.4363 0.4581 0.1855
C10 C 0.4924(6) 0.2029(5) 0.3392(6)
H5 H 0.5070 0.1786 0.4279
Ni1_2 Ni -0.5000 -0.5000 0.5000
Ni1_3 Ni 0.5000 -0.5000 -0.5000
O1A O -0.3175(4) -0.3435(3) 0.4674(4)
O1A_2 O 0.6825(4) 0.6565(3) 0.4674(4)
O2A O 0.7033(4) 0.4467(3) 0.6583(4)
O3A O -0.4735(4) -0.2147(4) 0.3367(4)
O4A O -0.1759(4) -0.3736(4) 0.2499(4)
O5A O 0.0884(5) -0.3418(4) 0.4320(4)
N1A N 0.5247(5) -0.3350(4) -0.3231(5)
N1A_2 N 0.5247(5) 0.6650(4) 0.6769(5)
N2A N 0.5395(5) -0.0444(5) 0.0207(5)
C1A C -0.1628(6) -0.1153(5) 0.4464(5)
C2A C -0.1384(6) 0.0309(5) 0.5064(5)
H1A H -0.2318 0.0524 0.5111
C3A C -0.0332(6) -0.2987(5) 0.3738(6)
C4A C -0.3332(6) -0.2350(5) 0.4106(5)
C5A C 0.5107(6) -0.1017(5) -0.2304(6)
H2A H 0.4961 -0.0118 -0.2453
C6A C 0.5360(6) -0.1380(5) -0.0991(6)
C7A C -0.0223(6) -0.1457(5) 0.4403(5)
C8A C 0.5631(7) -0.2721(6) -0.0769(6)
H3A H 0.5875 -0.2962 0.0133
C9A C 0.5516(6) -0.3664(6) -0.1961(6)
H4A H 0.5637 -0.4581 -0.1855
C10A C 0.5076(6) -0.2029(5) -0.3392(6)
H5A H 0.4930 -0.1786 -0.4279
N3 N 0.8584(5) 0.3847(5) 0.1418(5)
N4 N 0.9793(7) 0.0419(5) -0.0380(6)
C11 C 0.9603(7) 0.1820(6) 0.1743(7)
H6 H 1.0012 0.1223 0.2356
C12 C 0.9401(6) 0.1565(6) 0.0330(6)
C13 C 0.8779(8) 0.2461(6) -0.0548(7)
H7 H 0.8645 0.2321 -0.1510
C14 C 0.9191(7) 0.2971(6) 0.2233(7)
H8 H 0.9347 0.3149 0.3202
C15 C 0.8349(8) 0.3594(6) 0.0048(7)
H9 H 0.7884 0.4184 -0.0548
N3A N 1.1416(5) -0.3847(5) -0.1418(5)
N4A N 1.0207(7) -0.0419(5) 0.0380(6)
C11A C 1.0397(7) -0.1820(6) -0.1743(7)
H6A H 0.9988 -0.1223 -0.2356
C12A C 1.0599(6) -0.1565(6) -0.0330(6)
C13A C 1.1221(8) -0.2461(6) 0.0548(7)
H7A H 1.1355 -0.2321 0.1510
C14A C 1.0809(7) -0.2971(6) -0.2233(7)
H8A H 1.0653 -0.3149 -0.3202
C15A C 1.1651(8) -0.3594(6) -0.0048(7)
H9A H 1.2116 -0.4184 0.0548
loop_
_geom_bond_atom_site_label_1
_geom_bond_atom_site_label_2
_geom_bond_site_symmetry_1
_geom_bond_site_symmetry_2
Ni1 O1 1_555 1_555
O1 C4 1_555 1_555
O2 Ni1 1_555 1_555
O3 C4 1_555 1_555
O4 C3 1_555 1_555
O5 C3 1_555 1_555
N1 Ni1 1_555 1_555
N2 C6 1_555 1_555
C1 C2 1_555 1_555
C2 H1 1_555 1_555
C3 C7 1_555 1_555
C4 C1 1_555 1_555
C5 H2 1_555 1_555
C6 C5 1_555 1_555
C7 C1 1_555 1_555
C8 C6 1_555 1_555
H3 C8 1_555 1_555
C9 N1 1_555 1_555
H4 C9 1_555 1_555
C10 N1 1_555 1_555
H5 C10 1_555 1_555
N3 C14 1_555 1_555
N4 C12 1_555 1_555
C11 H6 1_555 1_555
C12 C11 1_555 1_555
C13 C12 1_555 1_555
H7 C13 1_555 1_555
C14 C11 1_555 1_555
H8 C14 1_555 1_555
C15 N3 1_555 1_555
H9 C15 1_555 1_555
Ni1_2 O1A 1_555 1_555
Ni1_3 N1A 1_555 1_555
O1A C4A 1_555 1_555
O1A_2 Ni1 1_555 1_555
O2A Ni1 1_555 1_555
O3A C4A 1_555 1_555
O4A C3A 1_555 1_555
O5A C3A 1_555 1_555
N1A C9A 1_555 1_555
N1A_2 Ni1 1_555 1_555
N2A N2 1_555 1_555
C1A C2A 1_555 1_555
C2A C7 1_555 1_555
H1A C2A 1_555 1_555
C3A C7A 1_555 1_555
C4A C1A 1_555 1_555
C5A H2A 1_555 1_555
C6A N2A 1_555 1_555
C7A C2 1_555 1_555
C8A C6A 1_555 1_555
H3A C8A 1_555 1_555
C9A C8A 1_555 1_555
H4A C9A 1_555 1_555
C10A N1A 1_555 1_555
H5A C10A 1_555 1_555
N3A C14A 1_555 1_555
N4A N4 1_555 1_555
C11A H6A 1_555 1_555
C12A N4A 1_555 1_555
C13A C12A 1_555 1_555
H7A C13A 1_555 1_555
C14A C11A 1_555 1_555
H8A C14A 1_555 1_555
C15A N3A 1_555 1_555
H9A C15A 1_555 1_555
C5 C10 1_555 1_555
C8 C9 1_555 1_555
C13 C15 1_555 1_555
C1A C7A 1_555 1_555
C5A C6A 1_555 1_555
C5A C10A 1_555 1_555
C11A C12A 1_555 1_555
C13A C15A 1_555 1_555

#END
