
#######################################################################
#
#                 Cambridge Crystallographic Data Centre
#                                CCDC 
#
#######################################################################
#
# If this CIF has been generated from an entry in the Cambridge 
# Structural Database, then it will include bibliographic, chemical, 
# crystal, experimental, refinement or atomic coordinate data resulting 
# from the CCDC's data processing and validation procedures.
#
#######################################################################

data_EJAGUS
_symmetry_cell_setting           monoclinic
_symmetry_space_group_name_H-M   'C 2/c'
_symmetry_Int_Tables_number      15
_space_group_name_Hall           '-C 2yn'
loop_
_symmetry_equiv_pos_site_id
_symmetry_equiv_pos_as_xyz
1 x,y,z
2 -x,y,1/2-z
3 1/2+x,1/2+y,z
4 1/2-x,1/2+y,1/2-z
5 -x,-y,-z
6 x,-y,1/2+z
7 1/2-x,1/2-y,-z
8 1/2+x,1/2-y,1/2+z
_cell_length_a                   16.9058(10)
_cell_length_b                   11.2645(6)
_cell_length_c                   27.2707(15)
_cell_angle_alpha                90
_cell_angle_beta                 92.7540(10)
_cell_angle_gamma                90
_cell_volume                     5187.31
loop_
_atom_site_label
_atom_site_type_symbol
_atom_site_fract_x
_atom_site_fract_y
_atom_site_fract_z
Hg1 Hg 0.283276(14) -0.18665(2) 0.266623(8)
I1 I 0.41406(3) -0.27494(4) 0.310129(16)
I2 I 0.14173(3) -0.23486(4) 0.224373(15)
Cu1 Cu 0.29786(4) 0.52953(6) 0.50497(3)
C1 C 0.1501(3) 0.4681(5) 0.46360(19)
C2 C 0.0897(4) 0.4123(5) 0.4366(2)
H1 H 0.0368 0.4405 0.4374
C3 C 0.1074(4) 0.3149(5) 0.4084(2)
H2 H 0.0665 0.2753 0.3896
C4 C 0.1855(3) 0.2746(5) 0.4074(2)
C5 C 0.2427(3) 0.3353(5) 0.4353(2)
H3 H 0.2961 0.3090 0.4350
C6 C 0.1369(4) 0.5743(5) 0.4956(2)
C7 C 0.2903(4) 0.0047(5) 0.3609(2)
H4 H 0.3367 -0.0398 0.3692
C8 C 0.2732(4) 0.1010(5) 0.3896(2)
H5 H 0.3070 0.1212 0.4171
C9 C 0.2063(4) 0.1681(5) 0.3780(2)
C10 C 0.1588(4) 0.1325(5) 0.3377(2)
H6 H 0.1117 0.1748 0.3288
C11 C 0.1805(4) 0.0354(5) 0.3108(2)
H7 H 0.1480 0.0131 0.2830
C12 C 0.4308(3) 0.5486(5) 0.5692(2)
C13 C 0.4832(4) 0.5867(6) 0.6054(2)
H8 H 0.5310 0.5446 0.6128
C14 C 0.4653(4) 0.6878(6) 0.6312(2)
H9 H 0.5009 0.7146 0.6569
C15 C 0.3967(4) 0.7506(5) 0.6203(2)
C16 C 0.3462(3) 0.7058(5) 0.5832(2)
H10 H 0.2984 0.7472 0.5749
C17 C 0.4419(4) 0.4392(5) 0.5384(2)
C18 C 0.2772(4) 0.9901(5) 0.6775(2)
H11 H 0.2231 1.0128 0.6782
C19 C 0.2965(4) 0.8957(5) 0.6487(2)
H12 H 0.2563 0.8559 0.6295
C20 C 0.3752(3) 0.8580(5) 0.64742(19)
C21 C 0.4303(4) 0.9269(5) 0.6739(2)
H13 H 0.4851 0.9089 0.6728
C22 C 0.4066(4) 1.0211(5) 0.7019(2)
H14 H 0.4459 1.0657 0.7199
N1 N 0.2255(3) 0.4302(4) 0.46286(16)
N2 N 0.2452(3) -0.0291(4) 0.32207(17)
N3 N 0.3623(3) 0.6069(4) 0.55867(16)
N4 N 0.3311(3) 1.0522(4) 0.70494(16)
O1 O 0.2011(2) 0.6162(3) 0.51732(14)
O2 O 0.0715(2) 0.6149(4) 0.49974(16)
O3 O 0.3851(2) 0.4175(3) 0.50612(15)
O4 O 0.5008(2) 0.3785(4) 0.54475(16)
O5 O 0.3374(3) 0.6557(4) 0.44759(16)
H15 H 0.335(4) 0.720(3) 0.453(2)
H16 H 0.378(2) 0.649(6) 0.440(2)
Hg1E Hg 0.283276(14) 1.18665(2) 0.766623(8)
N4E N 0.3311(3) -0.0522(4) 0.20494(16)
O6 O 0.4249(3) 0.1979(4) 0.45547(17)
H17 H 0.425(5) 0.257(4) 0.468(3)
H18 H 0.459(3) 0.169(6) 0.468(3)
loop_
_geom_bond_atom_site_label_1
_geom_bond_atom_site_label_2
_geom_bond_site_symmetry_1
_geom_bond_site_symmetry_2
Hg1 I1 1_555 1_555
I2 Hg1 1_555 1_555
Cu1 N1 1_555 1_555
C1 C2 1_555 1_555
C2 H1 1_555 1_555
C3 C2 1_555 1_555
H2 C3 1_555 1_555
C4 C3 1_555 1_555
C5 C4 1_555 1_555
H3 C5 1_555 1_555
C6 C1 1_555 1_555
C7 H4 1_555 1_555
C8 C7 1_555 1_555
H5 C8 1_555 1_555
C9 C4 1_555 1_555
C10 C9 1_555 1_555
H6 C10 1_555 1_555
C11 C10 1_555 1_555
H7 C11 1_555 1_555
C12 C13 1_555 1_555
C13 H8 1_555 1_555
C14 C13 1_555 1_555
H9 C14 1_555 1_555
C15 C14 1_555 1_555
C16 C15 1_555 1_555
H10 C16 1_555 1_555
C17 C12 1_555 1_555
C18 H11 1_555 1_555
C19 C18 1_555 1_555
H12 C19 1_555 1_555
C20 C15 1_555 1_555
C21 C20 1_555 1_555
H13 C21 1_555 1_555
C22 C21 1_555 1_555
H14 C22 1_555 1_555
N1 C1 1_555 1_555
N2 Hg1 1_555 1_555
N3 Cu1 1_555 1_555
N4 C18 1_555 1_555
O1 Cu1 1_555 1_555
O2 C6 1_555 1_555
O3 Cu1 1_555 1_555
O4 C17 1_555 1_555
O5 Cu1 1_555 1_555
H15 O5 1_555 1_555
H16 O5 1_555 1_555
O6 H17 1_555 1_555
H18 O6 1_555 1_555
Hg1E N4 1_555 1_555
N4E Hg1 1_555 1_555
C5 N1 1_555 1_555
C6 O1 1_555 1_555
C7 N2 1_555 1_555
C8 C9 1_555 1_555
C11 N2 1_555 1_555
C12 N3 1_555 1_555
C16 N3 1_555 1_555
C17 O3 1_555 1_555
C19 C20 1_555 1_555
C22 N4 1_555 1_555

#END
