
#######################################################################
#
#                 Cambridge Crystallographic Data Centre
#                                CCDC 
#
#######################################################################
#
# If this CIF has been generated from an entry in the Cambridge 
# Structural Database, then it will include bibliographic, chemical, 
# crystal, experimental, refinement or atomic coordinate data resulting 
# from the CCDC's data processing and validation procedures.
#
#######################################################################

data_EJAMEH
_symmetry_cell_setting           orthorhombic
_symmetry_space_group_name_H-M   'P m c 21'
_symmetry_Int_Tables_number      26
_space_group_name_Hall           'P 2c -2'
loop_
_symmetry_equiv_pos_site_id
_symmetry_equiv_pos_as_xyz
1 x,y,z
2 -x,-y,1/2+z
3 x,-y,1/2+z
4 -x,y,z
_cell_length_a                   43.7216(9)
_cell_length_b                   13.53200(10)
_cell_length_c                   8.5362(2)
_cell_angle_alpha                90
_cell_angle_beta                 90
_cell_angle_gamma                90
_cell_volume                     5050.36
loop_
_atom_site_label
_atom_site_type_symbol
_atom_site_fract_x
_atom_site_fract_y
_atom_site_fract_z
Na3 Na 0.5000 0.7702(7) 0.2201(11)
Na4 Na 0.5000 0.8908(4) 0.6036(8)
C1 C 0.5000 0.5265(13) 0.382(5)
O6 O 0.53638(17) 0.8242(5) 0.4074(12)
O7 O 0.5000 0.7253(8) 0.7215(19)
O8 O 0.5364(2) 0.7111(7) 0.0377(13)
O9 O 0.54377(19) 0.9055(4) 0.7837(10)
O10 O 0.5000 1.0621(7) 0.5351(18)
O11 O 0.5122(4) 0.6066(9) 0.372(2)
O11C O 0.4878(4) 0.6066(9) 0.372(2)
O6C O 0.46362(17) 0.8242(5) 0.4074(12)
O8C O 0.4636(2) 0.7111(7) 0.0377(13)
O9C O 0.45623(19) 0.9055(4) 0.7837(10)
C2 C 0.0000 -0.016(3) 0.115(6)
O12 O -0.0218(7) 0.008(2) 0.027(4)
O12C O 0.0218(7) 0.008(2) 0.027(4)
O13 O 0.3017(3) 0.2489(7) 0.7395(13)
O14 O 0.1957(2) 0.2504(5) -0.2615(15)
Mn1 Mn 0.12778(3) 0.24752(11) 0.0834(3)
Mn2 Mn 0.37037(3) 0.25251(9) 0.4028(2)
Na5 Na 0.24944(9) 0.1344(3) 0.3548(6)
Na6 Na 0.24753(10) 0.3656(3) 0.1324(7)
N1 N 0.13246(17) 0.4048(6) 0.0487(13)
N2 N 0.11573(16) 0.0987(5) 0.1377(12)
N3 N 0.3840(2) 0.4049(7) 0.3569(13)
N4 N 0.36459(19) 0.0967(6) 0.4361(12)
C3 C 0.0907(2) 0.3864(7) -0.1193(17)
C4 C 0.1123(2) 0.4523(8) -0.0395(16)
C5 C 0.1121(3) 0.5526(8) -0.0397(18)
H1 H 0.0965 0.5865 -0.0908
C6 C 0.1360(2) 0.6066(7) 0.0392(18)
H2 H 0.1369 0.6752 0.0375
C7 C 0.1575(2) 0.5503(8) 0.1172(18)
H3 H 0.1739 0.5817 0.1653
C8 C 0.15524(19) 0.4498(7) 0.1256(15)
C9 C 0.1770(3) 0.3852(9) 0.2149(17)
C10 C 0.0780(2) 0.1682(9) 0.2988(19)
C11 C 0.0920(2) 0.0739(8) 0.2311(14)
C12 C 0.0832(2) -0.0175(8) 0.2526(18)
H4 H 0.0660 -0.0323 0.3126
C13 C 0.1008(3) -0.0932(9) 0.181(2)
H5 H 0.0960 -0.1592 0.1989
C14 C 0.1224(3) -0.0717(7) 0.0943(18)
H6 H 0.1337 -0.1217 0.0471
C15 C 0.1299(2) 0.0249(7) 0.0672(14)
C16 C 0.15621(19) 0.0604(6) -0.0402(13)
C17 C 0.3437(3) 0.4417(9) 0.529(2)
C18 C 0.3671(2) 0.4774(5) 0.4224(18)
C19 C 0.3744(3) 0.5766(7) 0.3972(18)
H7 H 0.3634 0.6278 0.4437
C20 C 0.4007(3) 0.5948(7) 0.2908(15)
H8 H 0.4069 0.6594 0.2711
C21 C 0.4157(3) 0.5191(7) 0.2223(14)
H9 H 0.4316 0.5309 0.1522
C22 C 0.4066(3) 0.4201(6) 0.2599(15)
C23 C 0.4214(2) 0.3312(6) 0.1868(12)
C24 C 0.3219(2) 0.1159(6) 0.2758(15)
C25 C 0.3424(3) 0.0469(8) 0.3636(16)
C26 C 0.3400(3) -0.0561(8) 0.3659(18)
H10 H 0.3245 -0.0905 0.3152
C27 C 0.3632(3) -0.1029(8) 0.4516(18)
H11 H 0.3630 -0.1716 0.4534
C28 C 0.3857(2) -0.0571(7) 0.5319(16)
H12 H 0.3999 -0.0915 0.5921
C29 C 0.3862(2) 0.0459(6) 0.5181(14)
C30 C 0.4086(2) 0.1121(7) 0.6045(16)
O15 O 0.07076(15) 0.4227(5) -0.2086(13)
O16 O 0.09329(17) 0.2966(5) -0.0914(14)
O17 O 0.16861(17) 0.2942(5) 0.2178(12)
O18 O 0.19931(17) 0.4173(6) 0.2742(14)
O19 O 0.05545(16) 0.1563(7) 0.3884(15)
O20 O 0.08949(16) 0.2508(5) 0.2595(13)
O21 O 0.15833(14) 0.1495(5) -0.0512(11)
O22 O 0.17131(17) -0.0005(7) -0.1105(14)
O23 O 0.32733(16) 0.5030(7) 0.6001(15)
O24 O 0.3404(2) 0.3452(5) 0.5433(14)
O25 O 0.4087(2) 0.2510(5) 0.2265(11)
O26 O 0.44324(18) 0.3401(5) 0.0991(14)
O27 O 0.29720(16) 0.0803(5) 0.2174(12)
O28 O 0.33036(18) 0.2052(5) 0.2668(12)
O29 O 0.40576(17) 0.2050(5) 0.5782(10)
O30 O 0.4268(2) 0.0744(6) 0.6934(11)
O31 O 0.23381(18) -0.0335(5) 0.3440(14)
O32 O 0.19856(18) 0.1788(6) 0.4399(13)
O33 O 0.2731(2) 0.1018(5) 0.5957(13)
O34 O 0.2655(2) 0.5427(6) 0.1404(17)
O35 O 0.2669(2) 0.3075(6) 0.3852(14)
O36 O 0.2295(2) 0.1891(7) 0.0985(15)
O37 O 0.29914(18) 0.3180(5) 0.0471(13)
O38 O 0.22573(18) 0.4025(6) -0.1126(15)
Na1 Na 0.0000 0.3881(4) 0.3822(10)
Na2 Na 0.0000 0.7260(9) 0.2684(12)
O1 O 0.0000 0.2226(10) 0.261(2)
O2 O 0.0000 0.5682(8) 0.4421(18)
O3 O 0.03709(15) 0.3194(6) 0.5712(14)
O4 O 0.04341(16) 0.4041(6) 0.2009(13)
O5 O -0.03580(15) 0.7988(5) 0.4400(13)
O3C O -0.03709(15) 0.3194(6) 0.5712(14)
O4C O -0.04341(16) 0.4041(6) 0.2009(13)
O5C O 0.03580(15) 0.7988(5) 0.4400(13)
O3A O -0.03709(15) 0.6806(6) 0.0712(14)
O3B O 0.03709(15) 0.6806(6) 0.0712(14)
Na2A Na 0.0000 0.2740(9) 0.7684(12)
loop_
_geom_bond_atom_site_label_1
_geom_bond_atom_site_label_2
_geom_bond_site_symmetry_1
_geom_bond_site_symmetry_2
Na1 O1 1_555 1_555
Na2 O2 1_555 1_555
O2 Na1 1_555 1_555
O3 Na1 1_555 1_555
O4 Na1 1_555 1_555
O5 Na2 1_555 1_555
Na3 O6 1_555 1_555
Na4 O6 1_555 1_555
C1 O11 1_555 1_555
O7 Na4 1_555 1_555
O8 Na3 1_555 1_555
O9 Na4 1_555 1_555
O10 Na4 1_555 1_555
O11 Na3 1_555 1_555
C2 O12 1_555 1_555
Mn1 N1 1_555 1_555
Mn2 N3 1_555 1_555
Na5 O27 1_555 1_555
Na6 O18 1_555 1_555
N1 C4 1_555 1_555
N2 Mn1 1_555 1_555
N3 C18 1_555 1_555
N4 Mn2 1_555 1_555
C3 C4 1_555 1_555
C4 C5 1_555 1_555
C5 H1 1_555 1_555
C6 C5 1_555 1_555
H2 C6 1_555 1_555
C7 C6 1_555 1_555
H3 C7 1_555 1_555
C8 N1 1_555 1_555
C9 C8 1_555 1_555
C10 C11 1_555 1_555
C11 N2 1_555 1_555
C12 C11 1_555 1_555
H4 C12 1_555 1_555
C13 C12 1_555 1_555
H5 C13 1_555 1_555
C14 C13 1_555 1_555
H6 C14 1_555 1_555
C15 N2 1_555 1_555
C16 C15 1_555 1_555
C17 C18 1_555 1_555
C18 C19 1_555 1_555
C19 H7 1_555 1_555
C20 C19 1_555 1_555
H8 C20 1_555 1_555
C21 C20 1_555 1_555
H9 C21 1_555 1_555
C22 N3 1_555 1_555
C23 C22 1_555 1_555
C24 C25 1_555 1_555
C25 N4 1_555 1_555
C26 C25 1_555 1_555
H10 C26 1_555 1_555
C27 C26 1_555 1_555
H11 C27 1_555 1_555
C28 C27 1_555 1_555
H12 C28 1_555 1_555
C29 N4 1_555 1_555
C30 C29 1_555 1_555
O15 C3 1_555 1_555
O16 Mn1 1_555 1_555
O17 Mn1 1_555 1_555
O18 C9 1_555 1_555
O19 C10 1_555 1_555
O20 Mn1 1_555 1_555
O21 Mn1 1_555 1_555
O22 C16 1_555 1_555
O23 C17 1_555 1_555
O24 Mn2 1_555 1_555
O25 Mn2 1_555 1_555
O26 C23 1_555 1_555
O27 C24 1_555 1_555
O28 Mn2 1_555 1_555
O29 Mn2 1_555 1_555
O30 C30 1_555 1_555
O31 Na5 1_555 1_555
O32 Na5 1_555 1_555
O33 Na5 1_555 1_555
O34 Na6 1_555 1_555
O35 Na5 1_555 1_555
O36 Na5 1_555 1_555
O37 Na6 1_555 1_555
O38 Na6 1_555 1_555
O3C Na1 1_555 1_555
O4C Na1 1_555 1_555
O5C Na2 1_555 1_555
O3A Na2 1_555 1_555
O3B Na2 1_555 1_555
Na2A O3 1_555 1_555
O11C Na3 1_555 1_555
O6C Na3 1_555 1_555
O8C Na3 1_555 1_555
O9C Na4 1_555 1_555
O12C C2 1_555 1_555
Na4 O6C 1_555 1_555
C1 O11C 1_555 1_555
O11 O11C 1_555 1_555
Na6 O35 1_555 1_555
Na6 O36 1_555 1_555
C3 O16 1_555 1_555
C7 C8 1_555 1_555
C9 O17 1_555 1_555
C10 O20 1_555 1_555
C14 C15 1_555 1_555
C16 O21 1_555 1_555
C17 O24 1_555 1_555
C21 C22 1_555 1_555
C23 O25 1_555 1_555
C24 O28 1_555 1_555
C28 C29 1_555 1_555
C30 O29 1_555 1_555
O3C Na2A 1_555 1_555

#END
