
#######################################################################
#
#                 Cambridge Crystallographic Data Centre
#                                CCDC 
#
#######################################################################
#
# If this CIF has been generated from an entry in the Cambridge 
# Structural Database, then it will include bibliographic, chemical, 
# crystal, experimental, refinement or atomic coordinate data resulting 
# from the CCDC's data processing and validation procedures.
#
#######################################################################

data_EJAVUG
_symmetry_cell_setting           monoclinic
_symmetry_space_group_name_H-M   'P 21/c'
_symmetry_Int_Tables_number      14
_space_group_name_Hall           '-P 2ybc'
loop_
_symmetry_equiv_pos_site_id
_symmetry_equiv_pos_as_xyz
1 x,y,z
2 x,1/2-y,1/2+z
3 -x,-y,-z
4 -x,1/2+y,1/2-z
_cell_length_a                   9.7081(13)
_cell_length_b                   19.095(3)
_cell_length_c                   18.094(2)
_cell_angle_alpha                90
_cell_angle_beta                 98.035(3)
_cell_angle_gamma                90
_cell_volume                     3321.27
loop_
_atom_site_label
_atom_site_type_symbol
_atom_site_fract_x
_atom_site_fract_y
_atom_site_fract_z
Ni1 Ni 0.73397(6) 0.24481(3) 0.49731(3)
Fe1 Fe 1.0000 0.0000 0.5000
Fe2 Fe 0.5000 0.5000 0.5000
N1 N 0.8407(4) 0.2443(2) 0.6073(2)
N2 N 0.8214(4) 0.1492(2) 0.5007(2)
N3 N 0.6625(4) 0.2083(2) 0.3893(2)
N4 N 0.5465(5) 0.2186(3) 0.5353(2)
N5 N 0.6460(4) 0.3400(2) 0.4978(2)
N6 N 0.8919(4) 0.3076(2) 0.4636(2)
O1 O 0.9695(4) 0.07591(19) 0.5778(2)
O2 O 0.8305(4) 0.04550(19) 0.4342(2)
O3 O 0.4562(4) 0.3992(2) 0.5325(2)
O4 O 0.6896(4) 0.45835(19) 0.4823(2)
C1 C 0.8501(6) 0.2946(3) 0.6582(3)
H1 H 0.7989 0.3366 0.6472
C2 C 0.9321(7) 0.2880(4) 0.7270(3)
H2 H 0.9354 0.3248 0.7626
C3 C 1.0078(7) 0.2286(3) 0.7432(3)
H3 H 1.0675 0.2240 0.7893
C4 C 0.9962(6) 0.1755(3) 0.6917(3)
H4 H 1.0443 0.1326 0.7024
C5 C 0.9135(5) 0.1854(3) 0.6244(3)
C6 C 0.9029(5) 0.1300(3) 0.5650(3)
C7 C 0.7914(5) 0.1071(3) 0.4407(3)
C8 C 0.6984(5) 0.1410(3) 0.3783(3)
C9 C 0.6549(6) 0.1058(3) 0.3123(3)
H5 H 0.6807 0.0584 0.3060
C10 C 0.5733(6) 0.1412(4) 0.2561(3)
H6 H 0.5417 0.1184 0.2102
C11 C 0.5377(6) 0.2098(4) 0.2668(3)
H7 H 0.4822 0.2350 0.2282
C12 C 0.5833(5) 0.2413(3) 0.3333(3)
H8 H 0.5578 0.2886 0.3404
C13 C 0.5014(6) 0.1574(3) 0.5531(3)
H9 H 0.5563 0.1173 0.5464
C14 C 0.3771(8) 0.1482(5) 0.5812(4)
H10 H 0.3481 0.1027 0.5937
C15 C 0.2994(7) 0.2036(5) 0.5903(4)
H11 H 0.2137 0.1978 0.6093
C16 C 0.3414(6) 0.2687(4) 0.5727(3)
H12 H 0.2863 0.3086 0.5795
C17 C 0.4675(6) 0.2756(3) 0.5443(3)
C18 C 0.5228(5) 0.3452(3) 0.5239(3)
C19 C 0.7221(5) 0.3960(3) 0.4808(3)
C20 C 0.8615(5) 0.3761(2) 0.4614(3)
C21 C 0.9537(5) 0.4255(3) 0.4434(3)
H13 H 0.9287 0.4736 0.4416
C22 C 1.0820(6) 0.4052(3) 0.4280(3)
H14 H 1.1473 0.4390 0.4161
C23 C 1.1140(5) 0.3359(3) 0.4301(3)
H15 H 1.2023 0.3206 0.4196
C24 C 1.0174(5) 0.2880(3) 0.4475(3)
H16 H 1.0402 0.2396 0.4482
N7 N 1.1250(6) 0.0719(3) 0.4508(3)
C25 C 1.1839(6) 0.1110(3) 0.4181(3)
S1 S 1.26807(17) 0.16680(8) 0.37265(9)
N8 N 0.5827(6) 0.5275(3) 0.6096(3)
C26 C 0.6141(6) 0.5584(3) 0.6637(3)
S2 S 0.6596(2) 0.60308(12) 0.73860(11)
N1B N 1.1593(4) -0.2443(2) 0.3927(2)
N2B N 1.1786(4) -0.1492(2) 0.4993(2)
N3B N 1.3375(4) -0.2083(2) 0.6107(2)
O1B O 1.0305(4) -0.07591(19) 0.4222(2)
O2B O 1.1695(4) -0.04550(19) 0.5658(2)
C1B C 1.1499(6) -0.2946(3) 0.3418(3)
H1B H 1.2011 -0.3366 0.3528
C2B C 1.0679(7) -0.2880(4) 0.2730(3)
H2B H 1.0646 -0.3248 0.2374
C3B C 0.9922(7) -0.2286(3) 0.2568(3)
H3B H 0.9325 -0.2240 0.2107
C4B C 1.0038(6) -0.1755(3) 0.3083(3)
H4B H 0.9557 -0.1326 0.2976
C5B C 1.0865(5) -0.1854(3) 0.3756(3)
C6B C 1.0971(5) -0.1300(3) 0.4350(3)
C7B C 1.2086(5) -0.1071(3) 0.5593(3)
C8B C 1.3016(5) -0.1410(3) 0.6217(3)
C9B C 1.3451(6) -0.1058(3) 0.6877(3)
H5B H 1.3193 -0.0584 0.6940
C10B C 1.4267(6) -0.1412(4) 0.7439(3)
H6B H 1.4583 -0.1184 0.7898
C11B C 1.4623(6) -0.2098(4) 0.7332(3)
H7B H 1.5178 -0.2350 0.7718
C12B C 1.4167(5) -0.2413(3) 0.6667(3)
H8B H 1.4422 -0.2886 0.6596
N7B N 0.8750(6) -0.0719(3) 0.5492(3)
C25B C 0.8161(6) -0.1110(3) 0.5819(3)
S1B S 0.73193(17) -0.16680(8) 0.62735(9)
Ni1B Ni 1.26603(6) -0.24481(3) 0.50269(3)
N4B N 1.4535(5) -0.2186(3) 0.4647(2)
N5B N 1.3540(4) -0.3400(2) 0.5022(2)
N6B N 1.1081(4) -0.3076(2) 0.5364(2)
O3B O 1.5438(4) -0.3992(2) 0.4675(2)
O4B O 1.3104(4) -0.45835(19) 0.5177(2)
C13B C 1.4986(6) -0.1574(3) 0.4469(3)
H9B H 1.4437 -0.1173 0.4536
C14B C 1.6229(8) -0.1482(5) 0.4188(4)
H10B H 1.6519 -0.1027 0.4063
C15B C 1.7006(7) -0.2036(5) 0.4097(4)
H11B H 1.7863 -0.1978 0.3907
C16B C 1.6586(6) -0.2687(4) 0.4273(3)
H12B H 1.7137 -0.3086 0.4205
C17B C 1.5325(6) -0.2756(3) 0.4557(3)
C18B C 1.4772(5) -0.3452(3) 0.4761(3)
C19B C 1.2779(5) -0.3960(3) 0.5192(3)
C20B C 1.1385(5) -0.3761(2) 0.5386(3)
C21B C 1.0463(5) -0.4255(3) 0.5566(3)
H13B H 1.0713 -0.4736 0.5584
C22B C 0.9180(6) -0.4052(3) 0.5720(3)
H14B H 0.8527 -0.4390 0.5839
C23B C 0.8860(5) -0.3359(3) 0.5699(3)
H15B H 0.7977 -0.3206 0.5804
C24B C 0.9826(5) -0.2880(3) 0.5525(3)
H16B H 0.9598 -0.2396 0.5518
N8B N 0.4173(6) 0.4725(3) 0.3904(3)
C26B C 0.3859(6) 0.4416(3) 0.3363(3)
S2B S 0.3404(2) 0.39692(12) 0.26140(11)
O3B_2 O 0.5438(4) 0.6008(2) 0.4675(2)
O4B_2 O 0.3104(4) 0.54165(19) 0.5177(2)
Fe2_2 Fe 1.5000 -0.5000 0.5000
C27 C 1.1677(17) 0.0379(8) 0.2355(8)
Cl1 Cl 1.2799(5) -0.0445(4) 0.2524(3)
Cl2 Cl 0.9998(4) 0.01290(14) 0.23871(18)
Cl3 Cl 1.1967(7) 0.0781(3) 0.1584(2)
loop_
_geom_bond_atom_site_label_1
_geom_bond_atom_site_label_2
_geom_bond_site_symmetry_1
_geom_bond_site_symmetry_2
Ni1 N1 1_555 1_555
Fe1 O1 1_555 1_555
Fe2 O3 1_555 1_555
N1 C1 1_555 1_555
N2 Ni1 1_555 1_555
N3 Ni1 1_555 1_555
N4 Ni1 1_555 1_555
N5 Ni1 1_555 1_555
N6 Ni1 1_555 1_555
O1 C6 1_555 1_555
O2 Fe1 1_555 1_555
O3 C18 1_555 1_555
O4 Fe2 1_555 1_555
C1 H1 1_555 1_555
C2 C1 1_555 1_555
H2 C2 1_555 1_555
C3 C2 1_555 1_555
H3 C3 1_555 1_555
C4 C3 1_555 1_555
H4 C4 1_555 1_555
C5 N1 1_555 1_555
C6 N2 1_555 1_555
C7 N2 1_555 1_555
C8 N3 1_555 1_555
C9 C8 1_555 1_555
H5 C9 1_555 1_555
C10 C9 1_555 1_555
H6 C10 1_555 1_555
C11 C10 1_555 1_555
H7 C11 1_555 1_555
C12 N3 1_555 1_555
H8 C12 1_555 1_555
C13 N4 1_555 1_555
H9 C13 1_555 1_555
C14 C13 1_555 1_555
H10 C14 1_555 1_555
C15 C14 1_555 1_555
H11 C15 1_555 1_555
C16 C15 1_555 1_555
H12 C16 1_555 1_555
C17 N4 1_555 1_555
C18 N5 1_555 1_555
C19 N5 1_555 1_555
C20 N6 1_555 1_555
C21 C20 1_555 1_555
H13 C21 1_555 1_555
C22 C21 1_555 1_555
H14 C22 1_555 1_555
C23 C22 1_555 1_555
H15 C23 1_555 1_555
C24 N6 1_555 1_555
H16 C24 1_555 1_555
N7 Fe1 1_555 1_555
C25 N7 1_555 1_555
S1 C25 1_555 1_555
N8 Fe2 1_555 1_555
C26 N8 1_555 1_555
S2 C26 1_555 1_555
C27 Cl1 1_555 1_555
Cl2 C27 1_555 1_555
Cl3 C27 1_555 1_555
N1B C1B 1_555 1_555
N2B C6B 1_555 1_555
N3B C8B 1_555 1_555
O1B Fe1 1_555 1_555
O2B Fe1 1_555 1_555
C1B H1B 1_555 1_555
C2B C1B 1_555 1_555
H2B C2B 1_555 1_555
C3B C2B 1_555 1_555
H3B C3B 1_555 1_555
C4B C3B 1_555 1_555
H4B C4B 1_555 1_555
C5B N1B 1_555 1_555
C6B O1B 1_555 1_555
C7B N2B 1_555 1_555
C8B C7B 1_555 1_555
C9B C8B 1_555 1_555
H5B C9B 1_555 1_555
C10B C9B 1_555 1_555
H6B C10B 1_555 1_555
C11B C10B 1_555 1_555
H7B C11B 1_555 1_555
C12B N3B 1_555 1_555
H8B C12B 1_555 1_555
N7B Fe1 1_555 1_555
C25B N7B 1_555 1_555
S1B C25B 1_555 1_555
Ni1B N1B 1_555 1_555
N4B Ni1B 1_555 1_555
N5B Ni1B 1_555 1_555
N6B Ni1B 1_555 1_555
O3B C18B 1_555 1_555
O4B C19B 1_555 1_555
C13B N4B 1_555 1_555
H9B C13B 1_555 1_555
C14B C13B 1_555 1_555
H10B C14B 1_555 1_555
C15B C14B 1_555 1_555
H11B C15B 1_555 1_555
C16B C15B 1_555 1_555
H12B C16B 1_555 1_555
C17B N4B 1_555 1_555
C18B N5B 1_555 1_555
C19B N5B 1_555 1_555
C20B N6B 1_555 1_555
C21B C20B 1_555 1_555
H13B C21B 1_555 1_555
C22B C21B 1_555 1_555
H14B C22B 1_555 1_555
C23B C22B 1_555 1_555
H15B C23B 1_555 1_555
C24B N6B 1_555 1_555
H16B C24B 1_555 1_555
N8B Fe2 1_555 1_555
C26B N8B 1_555 1_555
S2B C26B 1_555 1_555
O3B_2 Fe2 1_555 1_555
O4B_2 Fe2 1_555 1_555
Fe2_2 O3B 1_555 1_555
O2 C7 1_555 1_555
O4 C19 1_555 1_555
C4 C5 1_555 1_555
C5 C6 1_555 1_555
C7 C8 1_555 1_555
C11 C12 1_555 1_555
C16 C17 1_555 1_555
C17 C18 1_555 1_555
C19 C20 1_555 1_555
C23 C24 1_555 1_555
N2B Ni1B 1_555 1_555
N3B Ni1B 1_555 1_555
O2B C7B 1_555 1_555
C4B C5B 1_555 1_555
C5B C6B 1_555 1_555
C11B C12B 1_555 1_555
O4B Fe2_2 1_555 1_555
C16B C17B 1_555 1_555
C17B C18B 1_555 1_555
C19B C20B 1_555 1_555
C23B C24B 1_555 1_555

#END
