
#######################################################################
#
#                 Cambridge Crystallographic Data Centre
#                                CCDC 
#
#######################################################################
#
# If this CIF has been generated from an entry in the Cambridge 
# Structural Database, then it will include bibliographic, chemical, 
# crystal, experimental, refinement or atomic coordinate data resulting 
# from the CCDC's data processing and validation procedures.
#
#######################################################################

data_EJAVOA
_symmetry_cell_setting           monoclinic
_symmetry_space_group_name_H-M   'C 2/c'
_symmetry_Int_Tables_number      15
_space_group_name_Hall           '-C 2yn'
loop_
_symmetry_equiv_pos_site_id
_symmetry_equiv_pos_as_xyz
1 x,y,z
2 1/2+x,1/2+y,z
3 x,-y,1/2+z
4 1/2+x,1/2-y,1/2+z
5 -x,-y,-z
6 1/2-x,1/2-y,-z
7 -x,y,1/2-z
8 1/2-x,1/2+y,1/2-z
_cell_length_a                   10.4799(4)
_cell_length_b                   19.5611(6)
_cell_length_c                   20.0708(7)
_cell_angle_alpha                90
_cell_angle_beta                 103.6690(10)
_cell_angle_gamma                90
_cell_volume                     3997.95
loop_
_atom_site_label
_atom_site_type_symbol
_atom_site_fract_x
_atom_site_fract_y
_atom_site_fract_z
Cl1 Cl 0.26173(4) 0.42494(2) 0.06461(2)
O4 O 0.38770(11) 0.44855(7) 0.05978(7)
O5 O 0.1980(2) 0.47733(11) 0.09186(14)
O7 O 0.1804(3) 0.41731(13) -0.00376(13)
O9 O 0.2620(2) 0.36368(10) 0.09759(13)
O11 O 0.0941(2) 1.05431(11) 0.23761(13)
N4 N 0.0000 1.02453(17) 0.2500
C15 C 0.0000 0.95346(16) 0.2500
O11F O -0.0941(2) 1.05431(11) 0.26239(13)
O12 O 0.47100(15) 0.16631(8) 0.44133(7)
H2 H 0.5390 0.1426 0.4552
C16 C 0.4901(4) 0.23147(13) 0.47154(16)
H14 H 0.4968 0.2275 0.5209
H15 H 0.4157 0.2610 0.4509
H16 H 0.5713 0.2514 0.4639
Ni1 Ni 0.0000 0.279269(11) 0.2500
Fe1 Fe 0.5000 0.230906(13) 0.2500
O1 O 0.40081(8) 0.30386(5) 0.29388(5)
O2 O 0.32177(9) 0.22035(5) 0.17892(5)
O3 O 0.43011(9) 0.15367(5) 0.30714(5)
H1 H 0.4466(19) 0.1640(9) 0.3482(10)
N1 N 0.09241(10) 0.35278(5) 0.32179(6)
N2 N 0.18599(10) 0.27518(5) 0.23852(6)
N3 N -0.01740(10) 0.20607(6) 0.17164(6)
C1 C 0.03785(13) 0.39313(7) 0.36133(7)
H3 H -0.0544 0.3911 0.3566
C2 C 0.11119(14) 0.43780(7) 0.40895(8)
H4 H 0.0697 0.4659 0.4362
C3 C 0.24529(14) 0.44094(7) 0.41627(8)
H5 H 0.2971 0.4718 0.4480
C4 C 0.30324(14) 0.39872(7) 0.37693(8)
H6 H 0.3957 0.3991 0.3820
C5 C 0.22395(12) 0.35579(7) 0.32980(7)
C6 C 0.27956(12) 0.30918(6) 0.28459(7)
C7 C 0.21303(12) 0.23210(6) 0.19139(7)
C8 C 0.09530(12) 0.19372(7) 0.15270(7)
C9 C 0.10514(14) 0.14703(8) 0.10258(8)
H7 H 0.1862 0.1399 0.0902
C10 C -0.00695(15) 0.11073(9) 0.07065(9)
H8 H -0.0038 0.0780 0.0361
C11 C -0.12307(15) 0.12310(8) 0.09015(8)
H9 H -0.2008 0.0990 0.0691
C12 C -0.12439(13) 0.17078(7) 0.14037(8)
H10 H -0.2045 0.1790 0.1534
C13 C 0.4342(2) 0.08097(10) 0.29648(13)
C14 C 0.4590(4) 0.05843(16) 0.2364(2)
C13F C 0.5658(2) 0.08097(10) 0.20352(13)
O3F O 0.56989(9) 0.15367(5) 0.19286(5)
H1F H 0.5534(19) 0.1640(9) 0.1518(10)
C14F C 0.5410(4) 0.05843(16) 0.2636(2)
O1F O -0.40081(8) 0.30386(5) 0.20612(5)
O2F O -0.32177(9) 0.22035(5) 0.32108(5)
N1F N -0.09241(10) 0.35278(5) 0.17821(6)
N2F N -0.18599(10) 0.27518(5) 0.26148(6)
N3F N 0.01740(10) 0.20607(6) 0.32836(6)
C1F C -0.03785(13) 0.39313(7) 0.13867(7)
H3F H 0.0544 0.3911 0.1434
C2F C -0.11119(14) 0.43780(7) 0.09105(8)
H4F H -0.0697 0.4659 0.0638
C3F C -0.24529(14) 0.44094(7) 0.08373(8)
H5F H -0.2971 0.4718 0.0520
C4F C -0.30324(14) 0.39872(7) 0.12307(8)
H6F H -0.3957 0.3991 0.1180
C5F C -0.22395(12) 0.35579(7) 0.17020(7)
C6F C -0.27956(12) 0.30918(6) 0.21541(7)
C7F C -0.21303(12) 0.23210(6) 0.30861(7)
C8F C -0.09530(12) 0.19372(7) 0.34730(7)
C9F C -0.10514(14) 0.14703(8) 0.39742(8)
H7F H -0.1862 0.1399 0.4098
C10F C 0.00695(15) 0.11073(9) 0.42935(9)
H8F H 0.0038 0.0780 0.4639
C11F C 0.12307(15) 0.12310(8) 0.40985(8)
H9F H 0.2008 0.0990 0.4309
C12F C 0.12439(13) 0.17078(7) 0.35963(8)
H10F H 0.2045 0.1790 0.3466
O1F_2 O 0.59919(8) 0.30386(5) 0.20612(5)
O2F_2 O 0.67823(9) 0.22035(5) 0.32108(5)
Fe1_2 Fe -0.5000 0.230906(13) 0.2500
O6? O 0.1796(4) 0.4763(3) 0.0686(4)
O8? O 0.2087(5) 0.3949(3) 0.0016(3)
O10? O 0.2757(5) 0.3893(4) 0.1279(3)
H11? H -0.0393 0.9368 0.2867
H12? H 0.0905 0.9368 0.2577
H13? H -0.0512 0.9368 0.2057
loop_
_geom_bond_atom_site_label_1
_geom_bond_atom_site_label_2
_geom_bond_site_symmetry_1
_geom_bond_site_symmetry_2
Ni1 N1 1_555 1_555
Fe1 O1 1_555 1_555
Cl1 O4 1_555 1_555
O1 C6 1_555 1_555
O2 Fe1 1_555 1_555
O3 Fe1 1_555 1_555
H1 O3 1_555 1_555
O5 Cl1 1_555 1_555
O7 Cl1 1_555 1_555
O9 Cl1 1_555 1_555
O11 N4 1_555 1_555
O12 H2 1_555 1_555
N1 C1 1_555 1_555
N2 Ni1 1_555 1_555
N3 Ni1 1_555 1_555
N4 C15 1_555 1_555
C1 H3 1_555 1_555
C2 C1 1_555 1_555
H4 C2 1_555 1_555
C3 C2 1_555 1_555
H5 C3 1_555 1_555
C4 C3 1_555 1_555
H6 C4 1_555 1_555
C5 N1 1_555 1_555
C6 N2 1_555 1_555
C7 O2 1_555 1_555
C8 N3 1_555 1_555
C9 C8 1_555 1_555
H7 C9 1_555 1_555
C10 C9 1_555 1_555
H8 C10 1_555 1_555
C11 C10 1_555 1_555
H9 C11 1_555 1_555
C12 N3 1_555 1_555
H10 C12 1_555 1_555
C13 O3 1_555 1_555
C14 C13 1_555 1_555
C16 O12 1_555 1_555
H14 C16 1_555 1_555
H15 C16 1_555 1_555
H16 C16 1_555 1_555
C13F C14 1_555 1_555
O3F Fe1 1_555 1_555
H1F O3F 1_555 1_555
C14F C13 1_555 1_555
O11F N4 1_555 1_555
O1F C6F 1_555 1_555
O2F C7F 1_555 1_555
N1F Ni1 1_555 1_555
N2F Ni1 1_555 1_555
N3F Ni1 1_555 1_555
C1F N1F 1_555 1_555
H3F C1F 1_555 1_555
C2F C1F 1_555 1_555
H4F C2F 1_555 1_555
C3F C2F 1_555 1_555
H5F C3F 1_555 1_555
C4F C3F 1_555 1_555
H6F C4F 1_555 1_555
C5F N1F 1_555 1_555
C6F N2F 1_555 1_555
C7F N2F 1_555 1_555
C8F N3F 1_555 1_555
C9F C8F 1_555 1_555
H7F C9F 1_555 1_555
C10F C9F 1_555 1_555
H8F C10F 1_555 1_555
C11F C10F 1_555 1_555
H9F C11F 1_555 1_555
C12F N3F 1_555 1_555
H10F C12F 1_555 1_555
O1F_2 Fe1 1_555 1_555
O2F_2 Fe1 1_555 1_555
Fe1_2 O1F 1_555 1_555
N2 C7 1_555 1_555
C4 C5 1_555 1_555
C5 C6 1_555 1_555
C7 C8 1_555 1_555
C11 C12 1_555 1_555
C14 C14F 1_555 1_555
C13F O3F 1_555 1_555
C13F C14F 1_555 1_555
O2F Fe1_2 1_555 1_555
C4F C5F 1_555 1_555
C5F C6F 1_555 1_555
C7F C8F 1_555 1_555
C11F C12F 1_555 1_555

#END
