
#######################################################################
#
#                 Cambridge Crystallographic Data Centre
#                                CCDC 
#
#######################################################################
#
# If this CIF has been generated from an entry in the Cambridge 
# Structural Database, then it will include bibliographic, chemical, 
# crystal, experimental, refinement or atomic coordinate data resulting 
# from the CCDC's data processing and validation procedures.
#
#######################################################################

data_EJAXOC
_symmetry_cell_setting           monoclinic
_symmetry_space_group_name_H-M   'P 21/c'
_symmetry_Int_Tables_number      14
_space_group_name_Hall           '-P 2ybc'
loop_
_symmetry_equiv_pos_site_id
_symmetry_equiv_pos_as_xyz
1 x,y,z
2 x,1/2-y,1/2+z
3 -x,-y,-z
4 -x,1/2+y,1/2-z
_cell_length_a                   21.485(3)
_cell_length_b                   27.235(4)
_cell_length_c                   26.925(4)
_cell_angle_alpha                90
_cell_angle_beta                 90.240(10)
_cell_angle_gamma                90
_cell_volume                     15754.9
loop_
_atom_site_label
_atom_site_type_symbol
_atom_site_fract_x
_atom_site_fract_y
_atom_site_fract_z
Ni3 Ni 0.22755(11) 0.00783(6) 0.99379(7)
Ni4 Ni 0.24966(12) -0.00571(7) 0.49315(6)
N6 N 0.2245(7) 0.0040(5) 0.9153(5)
N7 N 0.2500(6) -0.0049(5) 0.5714(4)
N8 N 0.2493(7) -0.0076(5) 1.4150(4)
N9 N 0.2305(7) 0.0128(5) 1.0705(5)
N10 N 0.2364(6) -0.4159(5) 0.9953(5)
N11 N 0.2297(6) -0.0700(5) 0.9974(5)
N12 N 0.2666(6) 0.4263(5) 0.9897(4)
N13 N 0.2321(6) 0.0846(5) 0.9875(5)
C6 C 0.2092(14) -0.0056(13) 0.7588(9)
H10 H 0.2010 -0.0400 0.7521
H11 H 0.1723 0.0129 0.7496
C7 C 0.2600(11) 0.0102(10) 0.7290(7)
H12 H 0.2976 -0.0057 0.7409
H13 H 0.2653 0.0453 0.7334
C8 C 0.2313(10) 0.0241(6) 1.2314(6)
H14 H 0.2595 0.0499 1.2417
H15 H 0.1900 0.0328 1.2427
C9 C 0.2498(11) -0.0209(7) 1.2545(6)
H16 H 0.2907 -0.0301 1.2428
H17 H 0.2209 -0.0466 1.2452
C10 C 0.2134(8) -0.2585(5) 1.0056(7)
H18 H 0.1716 -0.2502 0.9946
H19 H 0.2161 -0.2512 1.0408
C11 C 0.2569(11) -0.2276(6) 0.9796(10)
H20 H 0.2534 -0.2341 0.9443
H21 H 0.2988 -0.2362 0.9899
C12 C 0.2901(9) 0.2715(6) 0.9868(7)
H22 H 0.3126 0.2645 0.9565
H23 H 0.3179 0.2639 1.0142
C13 C 0.2394(14) 0.2380(10) 0.9893(14)
H24 H 0.2202 0.2428 1.0215
H25 H 0.2093 0.2487 0.9647
C21 C 0.2813(9) -0.3851(6) 0.9863(6)
H39 H 0.3200 -0.3984 0.9788
C52 C 0.1735(9) 0.0192(6) 0.8927(7)
H66 H 0.1385 0.0296 0.9100
C53 C 0.1755(12) 0.0184(9) 0.8394(9)
H67 H 0.1419 0.0311 0.8218
C54 C 0.2215(13) 0.0010(10) 0.8153(7)
C55 C 0.2735(14) -0.0147(10) 0.8379(10)
H68 H 0.3070 -0.0263 0.8196
C56 C 0.2760(10) -0.0132(7) 0.8910(7)
H69 H 0.3112 -0.0235 0.9083
C57 C 0.2806(8) -0.0396(7) 0.5975(6)
H70 H 0.2994 -0.0656 0.5809
C58 C 0.2841(9) -0.0370(7) 0.6469(7)
H71 H 0.3077 -0.0601 0.6641
C59 C 0.2531(12) -0.0004(9) 0.6739(7)
C60 C 0.2222(9) 0.0330(7) 0.6476(7)
H72 H 0.1998 0.0574 0.6639
C61 C 0.2231(8) 0.0320(6) 0.5946(6)
H73 H 0.2047 0.0572 0.5765
C62 C 0.2958(8) 0.0099(6) 1.3900(6)
H74 H 0.3274 0.0264 1.4068
C63 C 0.2995(10) 0.0049(7) 1.3396(7)
H75 H 0.3349 0.0158 1.3231
C64 C 0.2514(9) -0.0162(6) 1.3126(5)
C65 C 0.1975(9) -0.0302(7) 1.3375(7)
H76 H 0.1623 -0.0415 1.3210
C66 C 0.2002(8) -0.0257(6) 1.3905(6)
H77 H 0.1660 -0.0360 1.4088
C67 C 0.2696(9) 0.0410(7) 1.0951(7)
H78 H 0.2971 0.0593 1.0760
C68 C 0.2746(11) 0.0465(8) 1.1449(8)
H79 H 0.3054 0.0660 1.1591
C69 C 0.2309(10) 0.0212(7) 1.1741(6)
C70 C 0.1899(9) -0.0127(7) 1.1500(7)
H80 H 0.1623 -0.0317 1.1683
C71 C 0.1922(9) -0.0167(7) 1.0984(7)
H81 H 0.1673 -0.0398 1.0825
C72 C 0.2770(9) -0.3341(6) 0.9869(6)
H82 H 0.3116 -0.3150 0.9793
C73 C 0.2230(8) -0.3126(5) 0.9985(6)
C74 C 0.1733(9) -0.3439(6) 1.0072(6)
H83 H 0.1341 -0.3314 1.0145
C75 C 0.1833(10) -0.3953(7) 1.0049(7)
H84 H 0.1494 -0.4157 1.0107
C76 C 0.2775(9) -0.0933(7) 1.0160(7)
H85 H 0.3064 -0.0742 1.0331
C77 C 0.2904(12) -0.1433(9) 1.0134(9)
H86 H 0.3263 -0.1565 1.0274
C78 C 0.2468(9) -0.1729(5) 0.9886(7)
C79 C 0.1944(9) -0.1478(7) 0.9665(7)
H87 H 0.1648 -0.1653 0.9484
C80 C 0.1888(9) -0.0984(6) 0.9724(6)
H88 H 0.1543 -0.0831 0.9582
C81 C 0.2227(10) 0.3482(8) 0.9733(6)
H89 H 0.1892 0.3292 0.9626
C82 C 0.2159(10) 0.3988(7) 0.9743(6)
H90 H 0.1788 0.4138 0.9649
C83 C 0.2787(10) 0.3240(7) 0.9879(6)
C84 C 0.3273(9) 0.3544(7) 1.0018(6)
H91 H 0.3656 0.3413 1.0109
C85 C 0.3183(8) 0.4035(6) 1.0018(5)
H92 H 0.3519 0.4230 1.0113
C86 C 0.2738(9) 0.1082(7) 0.9605(6)
H93 H 0.3009 0.0888 0.9420
C87 C 0.2811(10) 0.1550(8) 0.9569(7)
H94 H 0.3115 0.1671 0.9357
C88 C 0.2458(10) 0.1873(6) 0.9832(8)
C89 C 0.1998(10) 0.1650(8) 1.0135(8)
H95 H 0.1739 0.1841 1.0332
C90 C 0.1944(8) 0.1148(7) 1.0133(6)
H96 H 0.1628 0.1007 1.0320
O7 O 0.3252(5) 0.0085(4) 0.9950(5)
O8 O 0.1279(5) 0.0092(4) 0.9961(4)
O9 O 0.3441(5) -0.0151(4) 0.4960(4)
O10 O 0.1542(5) 0.0039(4) 0.4955(4)
N8_2 N 0.2493(7) -0.0076(5) 0.4150(4)
N10A N 0.2364(6) -0.0841(5) 0.4953(5)
N12A N 0.2666(6) 0.0737(5) 0.4897(4)
Ni4_2 Ni 0.24966(12) -0.00571(7) 1.49315(6)
Ni4A Ni 0.24966(12) -0.49429(7) 0.99315(6)
Ni4A_2 Ni 0.24966(12) 0.50571(7) 0.99315(6)
Ni5 Ni 0.50129(11) 0.85910(6) 0.26212(7)
Ni6 Ni -0.01292(11) 0.74206(7) 0.49346(8)
N14 N 0.0394(6) 0.7677(5) 0.4333(5)
N15 N 0.4102(6) 0.8574(5) 0.2868(5)
N16 N 0.9336(7) 0.7789(5) 0.0567(5)
N17 N 0.5946(7) 0.8591(5) 0.2424(5)
N18 N 0.5041(6) 0.7808(4) 0.2653(5)
N19 N 0.5042(6) 0.4369(4) 0.2433(4)
C14 C 0.1771(7) 0.8170(8) 0.3277(7)
H26 H 0.1877 0.7899 0.3060
H27 H 0.1616 0.8436 0.3071
C15 C 0.2320(6) 0.8331(6) 0.3532(6)
H28 H 0.2429 0.8079 0.3772
H29 H 0.2211 0.8623 0.3718
C16 C 0.8034(11) 0.8061(8) 0.1761(10)
H30 H 0.7675 0.7872 0.1653
H31 H 0.8179 0.7929 0.2076
C17 C 0.7868(13) 0.8567(8) 0.1817(11)
H32 H 0.7859 0.8731 0.1497
H33 H 0.8164 0.8735 0.2031
C18 C 0.4893(10) 0.6236(7) 0.2688(8)
H34 H 0.4949 0.6120 0.3027
H35 H 0.4466 0.6169 0.2592
C19 C 0.5300(10) 0.5962(6) 0.2370(8)
H36 H 0.5725 0.6042 0.2460
H37 H 0.5233 0.6073 0.2032
C91 C 0.0719(8) 0.7355(6) 0.4029(6)
H97 H 0.0651 0.7019 0.4061
C92 C 0.1129(8) 0.7514(6) 0.3690(7)
H98 H 0.1335 0.7288 0.3491
C93 C 0.1250(6) 0.8005(6) 0.3633(7)
C94 C 0.0932(9) 0.8310(7) 0.3916(7)
H99 H 0.0996 0.8645 0.3879
C95 C 0.0516(9) 0.8153(7) 0.4259(7)
H100 H 0.0307 0.8385 0.4450
C96 C 0.3893(8) 0.8833(6) 0.3254(6)
H101 H 0.4154 0.9066 0.3396
C97 C 0.3327(9) 0.8773(7) 0.3444(7)
H102 H 0.3220 0.8961 0.3720
C98 C 0.2875(7) 0.8442(7) 0.3252(7)
C99 C 0.3074(8) 0.8210(6) 0.2821(6)
H103 H 0.2802 0.8008 0.2645
C100 C 0.3653(8) 0.8277(6) 0.2659(6)
H104 H 0.3766 0.8104 0.2375
C101 C 0.9219(9) 0.8251(8) 0.0663(8)
H105 H 0.9388 0.8494 0.0462
C102 C 0.8829(11) 0.8388(9) 0.1079(8)
H106 H 0.8752 0.8715 0.1154
C103 C 0.8587(10) 0.8028(8) 0.1346(8)
C104 C 0.8729(10) 0.7546(9) 0.1239(9)
H107 H 0.8573 0.7292 0.1433
C105 C 0.9097(9) 0.7453(8) 0.0851(7)
H108 H 0.9188 0.7127 0.0779
C106 C 0.6140(9) 0.8865(6) 0.2013(7)
H109 H 0.5850 0.9061 0.1849
C107 C 0.6744(10) 0.8856(8) 0.1840(8)
H110 H 0.6863 0.9047 0.1571
C108 C 0.7155(9) 0.8562(8) 0.2074(8)
C109 C 0.6981(12) 0.8254(9) 0.2481(9)
H111 H 0.7257 0.8034 0.2627
C110 C 0.6373(9) 0.8306(7) 0.2641(7)
H112 H 0.6253 0.8129 0.2921
C111 C 0.5121(9) 0.7553(7) 0.3068(7)
H113 H 0.5174 0.7732 0.3359
C112 C 0.5133(10) 0.7059(7) 0.3108(8)
H114 H 0.5228 0.6905 0.3408
C113 C 0.4997(9) 0.6788(6) 0.2679(7)
C114 C 0.4908(9) 0.7036(7) 0.2243(7)
H115 H 0.4838 0.6862 0.1952
C115 C 0.4922(8) 0.7524(6) 0.2232(7)
H116 H 0.4850 0.7682 0.1931
C116 C 0.4640(9) 0.4658(7) 0.2177(7)
H117 H 0.4306 0.4509 0.2015
C117 C 0.4699(11) 0.5179(9) 0.2141(9)
H118 H 0.4407 0.5368 0.1971
C118 C 0.5230(9) 0.5395(7) 0.2379(7)
C119 C 0.5609(10) 0.5082(7) 0.2655(7)
H119 H 0.5938 0.5215 0.2835
C120 C 0.5517(9) 0.4593(7) 0.2671(7)
H120 H 0.5793 0.4402 0.2855
O11 O 0.5318(5) 0.8629(4) 0.3370(4)
O12 O 0.4725(5) 0.8574(4) 0.1870(4)
O13 O 0.0360(5) 0.7900(4) 0.5398(4)
O14 O -0.0819(6) 0.7923(5) 0.4775(5)
O15 O -0.0593(5) 0.6944(4) 0.4467(4)
O16 O 0.0535(5) 0.6869(4) 0.5095(4)
N19C N 0.4958(6) 0.9369(4) 0.2567(4)
N16A N -0.0664(7) 0.7211(5) 0.5567(5)
Ni6A Ni 0.98708(11) 0.75794(7) -0.00654(8)
Ni5C Ni 0.49871(11) 0.35910(6) 0.23788(7)
O17 O 0.3404(7) 0.7585(5) 0.6861(4)
O18 O 0.2779(7) 0.7097(7) 0.6322(8)
O19 O 0.3872(7) 0.6975(5) 0.6339(6)
O20 O 0.3447(9) 0.7704(6) 0.5980(5)
S1 S 0.3393(3) 0.7349(2) 0.63827(19)
O21 O 0.4259(5) 0.9387(3) 0.4370(4)
O22 O 0.4791(5) 0.8623(3) 0.4278(4)
O23 O 0.5233(5) 0.9267(4) 0.4786(4)
O24 O 0.4327(5) 0.8833(4) 0.5054(3)
S2 S 0.4657(2) 0.90286(15) 0.46245(15)
O25 O 0.9837(6) 0.0915(5) 0.0083(4)
O26 O 1.0584(4) 0.0578(4) 0.0655(5)
O27 O 0.9851(5) 0.1186(4) 0.0925(4)
O28 O 0.9508(5) 0.0376(4) 0.0720(5)
S3 S 0.9955(3) 0.07596(15) 0.05988(14)
O29 O 0.0268(5) 0.1322(3) 0.4234(4)
O30 O -0.0202(5) 0.0714(5) 0.4749(5)
O31 O 0.0727(5) 0.1122(4) 0.5022(4)
O32 O 0.0759(5) 0.0542(4) 0.4345(4)
S4 S 0.0381(3) 0.09197(15) 0.45882(17)
O33 O 0.4932(14) 0.4275(12) 0.3785(8)
O34 O 0.5033(13) 0.4236(12) 0.4664(9)
O35 O 0.4164(11) 0.4649(8) 0.4294(10)
O36 O 0.4237(13) 0.3774(8) 0.4255(13)
S5 S 0.4582(3) 0.42326(19) 0.4258(2)
O37 O 0.8201(9) 0.7342(7) 0.8139(5)
O38 O 0.8710(9) 0.7925(8) 0.8664(9)
O39 O 0.8300(13) 0.7200(8) 0.9020(7)
O40 O 0.7609(9) 0.7819(11) 0.8712(12)
S6 S 0.8199(5) 0.7565(3) 0.8626(3)
Ni1 Ni 0.00145(11) 1.13153(6) 0.25772(7)
Ni2 Ni 0.50592(11) 1.26360(7) 0.49167(7)
N1 N 0.0003(5) 1.2106(5) 0.2572(5)
N2 N 0.0966(6) 1.1334(5) 0.2820(5)
N3 N 0.4555(7) 1.2363(5) 0.4304(5)
N4 N -0.0935(6) 1.1330(5) 0.2327(5)
N5 N -0.4445(7) 1.2143(5) 0.0543(5)
C1 C 0.0139(7) 1.2369(7) 0.2185(7)
H1 H 0.0214 1.2194 0.1895
C2 C 0.2797(10) 1.1479(9) 0.3398(9)
H2 H 0.2721 1.1568 0.3742
H3 H 0.2990 1.1157 0.3401
C3 C 0.3244(8) 1.1817(7) 0.3209(8)
H4 H 0.3023 1.2097 0.3072
H5 H 0.3462 1.1659 0.2937
C4 C -0.2621(11) 1.1490(12) 0.1583(11)
H6 H -0.2739 1.1162 0.1479
H7 H -0.2509 1.1667 0.1284
C5 C -0.3172(9) 1.1716(11) 0.1766(10)
H8 H -0.3059 1.2011 0.1949
H9 H -0.3375 1.1494 0.1995
C20 C 0.0357(8) 1.5261(7) 0.2160(6)
H38 H 0.0637 1.5419 0.1951
N20 N 0.0009(7) 1.5542(5) 0.2450(5)
C22 C 0.0340(9) 1.4774(8) 0.2142(8)
H40 H 0.0560 1.4608 0.1898
C23 C 0.0017(14) 1.4529(9) 0.2468(10)
C24 C -0.0362(17) 1.4787(15) 0.2786(14)
H41 H -0.0632 1.4638 0.3010
C25 C -0.0300(13) 1.5280(11) 0.2739(10)
H42 H -0.0532 1.5458 0.2967
C26 C -0.0193(18) 1.3932(10) 0.2314(12)
H43 H -0.0642 1.3892 0.2315
H44 H -0.0033 1.3840 0.1991
C27 C 0.0091(12) 1.3651(9) 0.2701(12)
H45 H -0.0132 1.3700 0.3009
H46 H 0.0518 1.3759 0.2749
C28 C -0.0109(7) 1.2357(8) 0.2989(8)
H47 H -0.0212 1.2189 0.3278
C29 C -0.0074(8) 1.2871(9) 0.2996(9)
H48 H -0.0150 1.3055 0.3280
C30 C 0.0082(8) 1.3079(10) 0.2554(12)
C31 C 0.0188(8) 1.2886(9) 0.2144(9)
H49 H 0.0285 1.3055 0.1854
C32 C 0.1162(8) 1.1082(6) 0.3192(6)
H50 H 0.0881 1.0870 0.3342
C33 C 0.1726(8) 1.1102(6) 0.3376(6)
H51 H 0.1830 1.0906 0.3647
C34 C 0.2198(7) 1.1428(6) 0.3160(7)
C35 C 0.1987(9) 1.1648(7) 0.2764(7)
H52 H 0.2268 1.1840 0.2587
C36 C 0.1373(8) 1.1622(6) 0.2579(7)
H53 H 0.1254 1.1799 0.2299
C37 C 0.4495(8) 1.1874(6) 0.4241(6)
H54 H 0.4734 1.1657 0.4429
C38 C 0.4057(9) 1.1693(7) 0.3879(7)
H55 H 0.3999 1.1356 0.3850
C39 C 0.3719(7) 1.2004(6) 0.3572(6)
C40 C 0.3847(9) 1.2484(8) 0.3628(8)
H56 H 0.3650 1.2710 0.3422
C41 C 0.4265(9) 1.2653(8) 0.3986(7)
H57 H 0.4345 1.2988 0.4002
C42 C -0.1101(9) 1.1079(6) 0.1919(6)
H58 H -0.0825 1.0847 0.1794
C43 C -0.1627(10) 1.1142(8) 0.1693(8)
H59 H -0.1698 1.0972 0.1398
C44 C -0.2073(8) 1.1439(7) 0.1860(8)
C45 C -0.1954(10) 1.1689(8) 0.2297(8)
H60 H -0.2249 1.1897 0.2437
C46 C -0.1353(8) 1.1614(6) 0.2527(7)
H61 H -0.1262 1.1772 0.2825
C47 C -0.4369(9) 1.1654(7) 0.0658(7)
H62 H -0.4607 1.1420 0.0493
C48 C -0.3943(9) 1.1505(8) 0.1017(7)
H63 H -0.3853 1.1172 0.1051
C49 C -0.3638(9) 1.1855(8) 0.1339(8)
C50 C -0.3743(10) 1.2344(8) 0.1252(8)
H64 H -0.3556 1.2585 0.1447
C51 C -0.4163(8) 1.2474(7) 0.0839(6)
H65 H -0.4238 1.2805 0.0778
O1 O 0.0315(5) 1.1330(4) 0.1840(4)
O2 O -0.0288(5) 1.1323(4) 0.3315(4)
O3 O 0.4335(5) 1.3148(4) 0.5037(5)
O4 O 0.4574(5) 1.2125(4) 0.5369(4)
O5 O 0.5512(6) 1.3152(4) 0.4481(5)
O6 O 0.5797(5) 1.2142(4) 0.4772(4)
N20C N -0.0009(7) 1.0542(5) 0.2550(5)
N5A N 0.5555(7) 1.2857(5) 0.5543(5)
Ni2A Ni -0.49408(11) 1.23640(7) -0.00833(7)
Ni1C Ni -0.00145(11) 1.63153(6) 0.24228(7)
loop_
_geom_bond_atom_site_label_1
_geom_bond_atom_site_label_2
_geom_bond_site_symmetry_1
_geom_bond_site_symmetry_2
Ni1 N1 1_555 1_555
Ni2 N3 1_555 1_555
Ni3 N6 1_555 1_555
Ni4 N7 1_555 1_555
Ni5 N15 1_555 1_555
Ni6 N14 1_555 1_555
N1 C1 1_555 1_555
N2 Ni1 1_555 1_555
N3 C37 1_555 1_555
N4 Ni1 1_555 1_555
N5 C47 1_555 1_555
N6 C52 1_555 1_555
N7 C57 1_555 1_555
N8 C62 1_555 1_555
N9 Ni3 1_555 1_555
N10 C21 1_555 1_555
N11 Ni3 1_555 1_555
N12 C82 1_555 1_555
N13 Ni3 1_555 1_555
N14 C91 1_555 1_555
N15 C96 1_555 1_555
N16 C101 1_555 1_555
N17 Ni5 1_555 1_555
N18 Ni5 1_555 1_555
N19 C116 1_555 1_555
C1 H1 1_555 1_555
C2 H2 1_555 1_555
H3 C2 1_555 1_555
C3 C2 1_555 1_555
H4 C3 1_555 1_555
H5 C3 1_555 1_555
C4 H6 1_555 1_555
H7 C4 1_555 1_555
C5 C4 1_555 1_555
H8 C5 1_555 1_555
H9 C5 1_555 1_555
C6 H10 1_555 1_555
H11 C6 1_555 1_555
C7 C6 1_555 1_555
H12 C7 1_555 1_555
H13 C7 1_555 1_555
C8 H14 1_555 1_555
H15 C8 1_555 1_555
C9 C8 1_555 1_555
H16 C9 1_555 1_555
H17 C9 1_555 1_555
C10 H18 1_555 1_555
H19 C10 1_555 1_555
C11 C10 1_555 1_555
H20 C11 1_555 1_555
H21 C11 1_555 1_555
C12 H22 1_555 1_555
H23 C12 1_555 1_555
C13 C12 1_555 1_555
H24 C13 1_555 1_555
H25 C13 1_555 1_555
C14 H26 1_555 1_555
H27 C14 1_555 1_555
C15 C14 1_555 1_555
H28 C15 1_555 1_555
H29 C15 1_555 1_555
C16 H30 1_555 1_555
H31 C16 1_555 1_555
C17 C16 1_555 1_555
H32 C17 1_555 1_555
H33 C17 1_555 1_555
C18 H34 1_555 1_555
H35 C18 1_555 1_555
C19 C18 1_555 1_555
H36 C19 1_555 1_555
H37 C19 1_555 1_555
C20 H38 1_555 1_555
N20 C20 1_555 1_555
C21 H39 1_555 1_555
C22 C20 1_555 1_555
H40 C22 1_555 1_555
C23 C22 1_555 1_555
C24 C23 1_555 1_555
H41 C24 1_555 1_555
C25 N20 1_555 1_555
H42 C25 1_555 1_555
C26 C23 1_555 1_555
H43 C26 1_555 1_555
H44 C26 1_555 1_555
C27 C26 1_555 1_555
H45 C27 1_555 1_555
H46 C27 1_555 1_555
C28 N1 1_555 1_555
H47 C28 1_555 1_555
C29 C28 1_555 1_555
H48 C29 1_555 1_555
C30 C27 1_555 1_555
C31 C1 1_555 1_555
H49 C31 1_555 1_555
C32 N2 1_555 1_555
H50 C32 1_555 1_555
C33 C32 1_555 1_555
H51 C33 1_555 1_555
C34 C2 1_555 1_555
C35 C34 1_555 1_555
H52 C35 1_555 1_555
C36 N2 1_555 1_555
H53 C36 1_555 1_555
C37 H54 1_555 1_555
C38 C37 1_555 1_555
H55 C38 1_555 1_555
C39 C3 1_555 1_555
C40 C39 1_555 1_555
H56 C40 1_555 1_555
C41 N3 1_555 1_555
H57 C41 1_555 1_555
C42 N4 1_555 1_555
H58 C42 1_555 1_555
C43 C42 1_555 1_555
H59 C43 1_555 1_555
C44 C4 1_555 1_555
C45 C44 1_555 1_555
H60 C45 1_555 1_555
C46 N4 1_555 1_555
H61 C46 1_555 1_555
C47 H62 1_555 1_555
C48 C47 1_555 1_555
H63 C48 1_555 1_555
C49 C5 1_555 1_555
C50 C49 1_555 1_555
H64 C50 1_555 1_555
C51 N5 1_555 1_555
H65 C51 1_555 1_555
C52 H66 1_555 1_555
C53 C52 1_555 1_555
H67 C53 1_555 1_555
C54 C6 1_555 1_555
C55 C54 1_555 1_555
H68 C55 1_555 1_555
C56 N6 1_555 1_555
H69 C56 1_555 1_555
C57 H70 1_555 1_555
C58 C57 1_555 1_555
H71 C58 1_555 1_555
C59 C7 1_555 1_555
C60 C59 1_555 1_555
H72 C60 1_555 1_555
C61 N7 1_555 1_555
H73 C61 1_555 1_555
C62 H74 1_555 1_555
C63 C62 1_555 1_555
H75 C63 1_555 1_555
C64 C9 1_555 1_555
C65 C64 1_555 1_555
H76 C65 1_555 1_555
C66 N8 1_555 1_555
H77 C66 1_555 1_555
C67 N9 1_555 1_555
H78 C67 1_555 1_555
C68 C67 1_555 1_555
H79 C68 1_555 1_555
C69 C8 1_555 1_555
C70 C69 1_555 1_555
H80 C70 1_555 1_555
C71 N9 1_555 1_555
H81 C71 1_555 1_555
C72 C21 1_555 1_555
H82 C72 1_555 1_555
C73 C10 1_555 1_555
C74 C73 1_555 1_555
H83 C74 1_555 1_555
C75 N10 1_555 1_555
H84 C75 1_555 1_555
C76 N11 1_555 1_555
H85 C76 1_555 1_555
C77 C76 1_555 1_555
H86 C77 1_555 1_555
C78 C11 1_555 1_555
C79 C78 1_555 1_555
H87 C79 1_555 1_555
C80 N11 1_555 1_555
H88 C80 1_555 1_555
C81 H89 1_555 1_555
C82 C81 1_555 1_555
H90 C82 1_555 1_555
C83 C12 1_555 1_555
C84 C83 1_555 1_555
H91 C84 1_555 1_555
C85 N12 1_555 1_555
H92 C85 1_555 1_555
C86 N13 1_555 1_555
H93 C86 1_555 1_555
C87 C86 1_555 1_555
H94 C87 1_555 1_555
C88 C13 1_555 1_555
C89 C88 1_555 1_555
H95 C89 1_555 1_555
C90 N13 1_555 1_555
H96 C90 1_555 1_555
C91 H97 1_555 1_555
C92 C91 1_555 1_555
H98 C92 1_555 1_555
C93 C14 1_555 1_555
C94 C93 1_555 1_555
H99 C94 1_555 1_555
C95 N14 1_555 1_555
H100 C95 1_555 1_555
C96 H101 1_555 1_555
C97 C96 1_555 1_555
H102 C97 1_555 1_555
C98 C15 1_555 1_555
C99 C98 1_555 1_555
H103 C99 1_555 1_555
C100 N15 1_555 1_555
H104 C100 1_555 1_555
C101 H105 1_555 1_555
C102 C101 1_555 1_555
H106 C102 1_555 1_555
C103 C16 1_555 1_555
C104 C103 1_555 1_555
H107 C104 1_555 1_555
C105 N16 1_555 1_555
H108 C105 1_555 1_555
C106 N17 1_555 1_555
H109 C106 1_555 1_555
C107 C106 1_555 1_555
H110 C107 1_555 1_555
C108 C17 1_555 1_555
C109 C108 1_555 1_555
H111 C109 1_555 1_555
C110 N17 1_555 1_555
H112 C110 1_555 1_555
C111 N18 1_555 1_555
H113 C111 1_555 1_555
C112 C111 1_555 1_555
H114 C112 1_555 1_555
C113 C18 1_555 1_555
C114 C113 1_555 1_555
H115 C114 1_555 1_555
C115 N18 1_555 1_555
H116 C115 1_555 1_555
C116 H117 1_555 1_555
C117 C116 1_555 1_555
H118 C117 1_555 1_555
C118 C19 1_555 1_555
C119 C118 1_555 1_555
H119 C119 1_555 1_555
C120 N19 1_555 1_555
H120 C120 1_555 1_555
O1 Ni1 1_555 1_555
O2 Ni1 1_555 1_555
O3 Ni2 1_555 1_555
O4 Ni2 1_555 1_555
O5 Ni2 1_555 1_555
O6 Ni2 1_555 1_555
O7 Ni3 1_555 1_555
O8 Ni3 1_555 1_555
O9 Ni4 1_555 1_555
O10 Ni4 1_555 1_555
O11 Ni5 1_555 1_555
O12 Ni5 1_555 1_555
O13 Ni6 1_555 1_555
O14 Ni6 1_555 1_555
O15 Ni6 1_555 1_555
O16 Ni6 1_555 1_555
O17 S1 1_555 1_555
O18 S1 1_555 1_555
O19 S1 1_555 1_555
O20 S1 1_555 1_555
O21 S2 1_555 1_555
O22 S2 1_555 1_555
O23 S2 1_555 1_555
O24 S2 1_555 1_555
O25 S3 1_555 1_555
O26 S3 1_555 1_555
O27 S3 1_555 1_555
O28 S3 1_555 1_555
O29 S4 1_555 1_555
O30 S4 1_555 1_555
O31 S4 1_555 1_555
O32 S4 1_555 1_555
O33 S5 1_555 1_555
O34 S5 1_555 1_555
O35 S5 1_555 1_555
O36 S5 1_555 1_555
O37 S6 1_555 1_555
O38 S6 1_555 1_555
O39 S6 1_555 1_555
O40 S6 1_555 1_555
N20C Ni1 1_555 1_555
N5A Ni2 1_555 1_555
N8_2 Ni4 1_555 1_555
N10A Ni4 1_555 1_555
N12A Ni4 1_555 1_555
N19C Ni5 1_555 1_555
N16A Ni6 1_555 1_555
Ni2A N5 1_555 1_555
Ni4_2 N8 1_555 1_555
Ni4A N10 1_555 1_555
Ni4A_2 N12 1_555 1_555
Ni6A N16 1_555 1_555
Ni5C N19 1_555 1_555
Ni1C N20 1_555 1_555
C24 C25 1_555 1_555
C29 C30 1_555 1_555
C30 C31 1_555 1_555
C33 C34 1_555 1_555
C35 C36 1_555 1_555
C38 C39 1_555 1_555
C40 C41 1_555 1_555
C43 C44 1_555 1_555
C45 C46 1_555 1_555
C48 C49 1_555 1_555
C50 C51 1_555 1_555
C53 C54 1_555 1_555
C55 C56 1_555 1_555
C58 C59 1_555 1_555
C60 C61 1_555 1_555
C63 C64 1_555 1_555
C65 C66 1_555 1_555
C68 C69 1_555 1_555
C70 C71 1_555 1_555
C72 C73 1_555 1_555
C74 C75 1_555 1_555
C77 C78 1_555 1_555
C79 C80 1_555 1_555
C81 C83 1_555 1_555
C84 C85 1_555 1_555
C87 C88 1_555 1_555
C89 C90 1_555 1_555
C92 C93 1_555 1_555
C94 C95 1_555 1_555
C97 C98 1_555 1_555
C99 C100 1_555 1_555
C102 C103 1_555 1_555
C104 C105 1_555 1_555
C107 C108 1_555 1_555
C109 C110 1_555 1_555
C112 C113 1_555 1_555
C114 C115 1_555 1_555
C117 C118 1_555 1_555
C119 C120 1_555 1_555

#END
