
#######################################################################
#
#                 Cambridge Crystallographic Data Centre
#                                CCDC 
#
#######################################################################
#
# If this CIF has been generated from an entry in the Cambridge 
# Structural Database, then it will include bibliographic, chemical, 
# crystal, experimental, refinement or atomic coordinate data resulting 
# from the CCDC's data processing and validation procedures.
#
#######################################################################

data_EJAYUJ01
_symmetry_cell_setting           monoclinic
_symmetry_space_group_name_H-M   'P 21/n'
_symmetry_Int_Tables_number      14
_space_group_name_Hall           '-P 2yn'
loop_
_symmetry_equiv_pos_site_id
_symmetry_equiv_pos_as_xyz
1 x,y,z
2 1/2+x,1/2-y,1/2+z
3 -x,-y,-z
4 1/2-x,1/2+y,1/2-z
_cell_length_a                   10.045(10)
_cell_length_b                   9.285(7)
_cell_length_c                   16.155(10)
_cell_angle_alpha                90
_cell_angle_beta                 96.60
_cell_angle_gamma                90
_cell_volume                     1496.76
loop_
_atom_site_label
_atom_site_type_symbol
_atom_site_fract_x
_atom_site_fract_y
_atom_site_fract_z
Ni1 Ni 0.46852(4) 0.17856(4) 0.24234(3)
N1 N 0.6029(3) 0.1500(3) 0.15495(17)
N2 N 0.6261(3) 0.0663(3) 0.31323(16)
O1 O 0.9243(2) -0.1380(2) 0.21766(14)
O2 O 1.0404(3) -0.0392(4) 0.1208(2)
O3 O 0.9867(3) 0.2582(3) 0.2534(2)
O4 O 1.1053(2) 0.0967(3) 0.3365(2)
C1 C 0.5715(4) 0.1662(4) 0.0715(2)
H1 H 0.4846 0.2027 0.0508
C2 C 0.6604(4) 0.1306(5) 0.0150(2)
H2 H 0.6370 0.1475 -0.0435
C3 C 0.7826(4) 0.0668(4) 0.0458(2)
H3 H 0.8459 0.0438 0.0075
C4 C 0.8148(3) 0.0429(4) 0.1315(2)
C5 C 0.9372(4) -0.0513(4) 0.1589(2)
C6 C 0.7239(3) 0.0925(3) 0.18576(19)
C7 C 0.7431(3) 0.0837(3) 0.27948(18)
C8 C 0.8664(3) 0.0938(3) 0.3309(2)
C9 C 0.9959(3) 0.1520(4) 0.3034(2)
C10 C 0.8670(4) 0.0670(4) 0.4167(2)
H4 H 0.9505 0.0709 0.4522
C11 C 0.7479(4) 0.0361(5) 0.4497(2)
H5 H 0.7504 0.0089 0.5072
C12 C 0.6285(4) 0.0429(4) 0.3962(2)
H6 H 0.5461 0.0322 0.4203
O5 O 0.3568(2) 0.1941(3) 0.34198(18)
H7 H 0.3723 0.1322 0.3807
H8 H 0.2741 0.2136 0.3300
O6 O 0.3583(2) -0.0057(3) 0.19969(17)
H9 H 0.3666 -0.0986 0.2058
H10 H 0.2719 -0.0058 0.2047
O7 O 0.3431(3) 0.3073(3) 0.1636(2)
H11 H 0.3523 0.4015 0.1634
H12 H 0.2599 0.3148 0.1402
O1C O 0.5757(2) 0.3620(2) 0.28234(14)
Ni1C Ni 1.03148(4) -0.32144(4) 0.25766(3)
O8 O 0.0881(3) 0.2608(4) 0.0930(2)
H13 H 0.1742 0.2617 0.1110
H14 H 0.0577 0.2605 0.1420
loop_
_geom_bond_atom_site_label_1
_geom_bond_atom_site_label_2
_geom_bond_site_symmetry_1
_geom_bond_site_symmetry_2
Ni1 N1 1_555 1_555
N1 C1 1_555 1_555
N2 Ni1 1_555 1_555
O1 C5 1_555 1_555
O2 C5 1_555 1_555
O3 C9 1_555 1_555
O4 C9 1_555 1_555
C1 H1 1_555 1_555
C2 C1 1_555 1_555
H2 C2 1_555 1_555
C3 C2 1_555 1_555
H3 C3 1_555 1_555
C4 C3 1_555 1_555
C5 C4 1_555 1_555
C6 N1 1_555 1_555
C7 N2 1_555 1_555
C8 C7 1_555 1_555
C9 C8 1_555 1_555
C10 C8 1_555 1_555
H4 C10 1_555 1_555
C11 C10 1_555 1_555
H5 C11 1_555 1_555
C12 N2 1_555 1_555
H6 C12 1_555 1_555
O5 Ni1 1_555 1_555
H7 O5 1_555 1_555
H8 O5 1_555 1_555
O6 Ni1 1_555 1_555
H9 O6 1_555 1_555
H10 O6 1_555 1_555
O7 Ni1 1_555 1_555
H11 O7 1_555 1_555
H12 O7 1_555 1_555
O8 H13 1_555 1_555
H14 O8 1_555 1_555
O1C Ni1 1_555 1_555
Ni1C O1 1_555 1_555
C4 C6 1_555 1_555
C6 C7 1_555 1_555
C11 C12 1_555 1_555

#END
