
#######################################################################
#
#                 Cambridge Crystallographic Data Centre
#                                CCDC 
#
#######################################################################
#
# If this CIF has been generated from an entry in the Cambridge 
# Structural Database, then it will include bibliographic, chemical, 
# crystal, experimental, refinement or atomic coordinate data resulting 
# from the CCDC's data processing and validation procedures.
#
#######################################################################

data_EJEBEB
_symmetry_cell_setting           monoclinic
_symmetry_space_group_name_H-M   'C 2/c'
_symmetry_Int_Tables_number      15
_space_group_name_Hall           '-C 2yn'
loop_
_symmetry_equiv_pos_site_id
_symmetry_equiv_pos_as_xyz
1 x,y,z
2 -x,y,1/2-z
3 1/2+x,1/2+y,z
4 1/2-x,1/2+y,1/2-z
5 -x,-y,-z
6 x,-y,1/2+z
7 1/2-x,1/2-y,-z
8 1/2+x,1/2-y,1/2+z
_cell_length_a                   16.5509(16)
_cell_length_b                   10.4657(10)
_cell_length_c                   16.1639(15)
_cell_angle_alpha                90
_cell_angle_beta                 104.631(2)
_cell_angle_gamma                90
_cell_volume                     2709.07
loop_
_atom_site_label
_atom_site_type_symbol
_atom_site_fract_x
_atom_site_fract_y
_atom_site_fract_z
O1 O 0.0818(2) 1.2320(3) 0.2175(2)
C1 C 0.0796(3) 1.1303(4) 0.1743(3)
N1 N 0.2169(2) 1.0889(3) 0.2680(2)
Zn1 Zn 0.0000 1.0000 0.0000
Zn2 Zn 0.31300(3) 0.75389(5) 0.18161(3)
O3 O 0.0763(2) 0.8559(3) 0.0526(2)
O4 O 0.01702(19) 1.1000(3) 0.11496(19)
O5 O 0.2025(2) 0.7702(3) 0.0793(2)
O6 O -0.1003(2) 0.8990(3) 0.0290(2)
N2 N 0.2641(2) 0.9159(3) 0.2152(2)
C2 C 0.1846(3) 0.9413(4) 0.1661(3)
C3 C 0.1513(3) 0.8520(4) 0.0941(3)
O7 O 0.3814(2) 0.7629(3) 0.0969(2)
C4 C 0.1552(3) 1.0492(4) 0.1986(3)
C5 C -0.0951(4) 0.7807(6) 0.0357(4)
H1 H -0.0588 0.7388 0.0094
C6 C 0.2805(3) 1.0075(4) 0.2752(3)
N3 N -0.1380(3) 0.7106(5) 0.0779(3)
C7 C 0.3614(3) 1.0164(5) 0.3410(3)
H2 H 0.3968 0.9467 0.3339
H3 H 0.3515 1.0124 0.3970
H4 H 0.3881 1.0959 0.3345
C8 C -0.1266(5) 0.5709(6) 0.0858(5)
H5 H -0.1794 0.5293 0.0642
H6 H -0.1045 0.5487 0.1448
H7 H -0.0883 0.5439 0.0534
C9 C -0.1926(5) 0.7686(6) 0.1250(5)
H8 H -0.1674 0.7622 0.1853
H9 H -0.2453 0.7250 0.1116
H10 H -0.2011 0.8570 0.1093
H11 H 0.349(3) 0.759(4) 0.0470(15)
H12 H 0.4258(19) 0.719(4) 0.108(3)
O1D O -0.0818(2) 0.7680(3) -0.2175(2)
O1C O 0.4182(2) 0.7320(3) 0.2825(2)
O1G O -0.4182(2) 1.2680(3) -0.2825(2)
C1D C -0.0796(3) 0.8697(4) -0.1743(3)
N1D N -0.2169(2) 0.9111(3) -0.2680(2)
N1C N 0.2831(2) 0.5889(3) 0.2320(2)
N1G N -0.2831(2) 1.4111(3) -0.2320(2)
Zn2D Zn -0.31300(3) 1.24611(5) -0.18161(3)
Zn2C Zn 0.18700(3) 1.25389(5) 0.31839(3)
Zn2G Zn -0.18700(3) 0.74611(5) -0.31839(3)
O3D O -0.0763(2) 1.1441(3) -0.0526(2)
O4D O -0.01702(19) 0.9000(3) -0.11496(19)
O5D O -0.2025(2) 1.2298(3) -0.0793(2)
O6D O 0.1003(2) 1.1010(3) -0.0290(2)
N2D N -0.2641(2) 1.0841(3) -0.2152(2)
C2D C -0.1846(3) 1.0587(4) -0.1661(3)
C3D C -0.1513(3) 1.1480(4) -0.0941(3)
O7D O -0.3814(2) 1.2371(3) -0.0969(2)
C4D C -0.1552(3) 0.9508(4) -0.1986(3)
C5D C 0.0951(4) 1.2193(6) -0.0357(4)
H1D H 0.0588 1.2612 -0.0094
C6D C -0.2805(3) 0.9925(4) -0.2752(3)
N3D N 0.1380(3) 1.2894(5) -0.0779(3)
C7D C -0.3614(3) 0.9836(5) -0.3410(3)
H2D H -0.3968 1.0533 -0.3339
H3D H -0.3515 0.9876 -0.3970
H4D H -0.3881 0.9041 -0.3345
C8D C 0.1266(5) 1.4291(6) -0.0858(5)
H5D H 0.1794 1.4707 -0.0642
H6D H 0.1045 1.4513 -0.1448
H7D H 0.0883 1.4561 -0.0534
C9D C 0.1926(5) 1.2314(6) -0.1250(5)
H8D H 0.1674 1.2378 -0.1853
H9D H 0.2453 1.2750 -0.1116
H10D H 0.2011 1.1430 -0.1093
H11D H -0.349(3) 1.241(4) -0.0470(15)
H12D H -0.4258(19) 1.281(4) -0.108(3)
O2 O 0.0000 0.839(2) 0.2500
loop_
_geom_bond_atom_site_label_1
_geom_bond_atom_site_label_2
_geom_bond_site_symmetry_1
_geom_bond_site_symmetry_2
O1 C1 1_555 1_555
C1 O4 1_555 1_555
N1 C4 1_555 1_555
Zn1 O3 1_555 1_555
Zn2 O5 1_555 1_555
O3 C3 1_555 1_555
O4 Zn1 1_555 1_555
O5 C3 1_555 1_555
O6 Zn1 1_555 1_555
N2 Zn2 1_555 1_555
C2 N2 1_555 1_555
C3 C2 1_555 1_555
O7 Zn2 1_555 1_555
C4 C1 1_555 1_555
C5 O6 1_555 1_555
H1 C5 1_555 1_555
C6 N1 1_555 1_555
N3 C5 1_555 1_555
C7 C6 1_555 1_555
H2 C7 1_555 1_555
H3 C7 1_555 1_555
H4 C7 1_555 1_555
C8 N3 1_555 1_555
H5 C8 1_555 1_555
H6 C8 1_555 1_555
H7 C8 1_555 1_555
C9 N3 1_555 1_555
H8 C9 1_555 1_555
H9 C9 1_555 1_555
H10 C9 1_555 1_555
H11 O7 1_555 1_555
H12 O7 1_555 1_555
O1D C1D 1_555 1_555
O1C Zn2 1_555 1_555
O1G Zn2D 1_555 1_555
C1D O4D 1_555 1_555
N1D Zn2G 1_555 1_555
N1C Zn2 1_555 1_555
N1G Zn2D 1_555 1_555
Zn2D O5D 1_555 1_555
Zn2C O1 1_555 1_555
Zn2G O1D 1_555 1_555
O3D Zn1 1_555 1_555
O4D Zn1 1_555 1_555
O5D C3D 1_555 1_555
O6D Zn1 1_555 1_555
N2D Zn2D 1_555 1_555
C2D N2D 1_555 1_555
C3D O3D 1_555 1_555
O7D Zn2D 1_555 1_555
C4D C1D 1_555 1_555
C5D O6D 1_555 1_555
H1D C5D 1_555 1_555
C6D N1D 1_555 1_555
N3D C5D 1_555 1_555
C7D C6D 1_555 1_555
H2D C7D 1_555 1_555
H3D C7D 1_555 1_555
H4D C7D 1_555 1_555
C8D N3D 1_555 1_555
H5D C8D 1_555 1_555
H6D C8D 1_555 1_555
H7D C8D 1_555 1_555
C9D N3D 1_555 1_555
H8D C9D 1_555 1_555
H9D C9D 1_555 1_555
H10D C9D 1_555 1_555
H11D O7D 1_555 1_555
H12D O7D 1_555 1_555
N1 Zn2C 1_555 1_555
N2 C6 1_555 1_555
C2 C4 1_555 1_555
N1D C4D 1_555 1_555
N2D C6D 1_555 1_555
C2D C3D 1_555 1_555
C2D C4D 1_555 1_555

#END
