
#######################################################################
#
#                 Cambridge Crystallographic Data Centre
#                                CCDC 
#
#######################################################################
#
# If this CIF has been generated from an entry in the Cambridge 
# Structural Database, then it will include bibliographic, chemical, 
# crystal, experimental, refinement or atomic coordinate data resulting 
# from the CCDC's data processing and validation procedures.
#
#######################################################################

data_EJEKEK
_symmetry_cell_setting           monoclinic
_symmetry_space_group_name_H-M   'P 21/c'
_symmetry_Int_Tables_number      14
_space_group_name_Hall           '-P 2ybc'
loop_
_symmetry_equiv_pos_site_id
_symmetry_equiv_pos_as_xyz
1 x,y,z
2 -x,1/2+y,1/2-z
3 -x,-y,-z
4 x,1/2-y,1/2+z
_cell_length_a                   17.006(2)
_cell_length_b                   18.712(2)
_cell_length_c                   19.944(3)
_cell_angle_alpha                90
_cell_angle_beta                 102.151(2)
_cell_angle_gamma                90
_cell_volume                     6204.32
loop_
_atom_site_label
_atom_site_type_symbol
_atom_site_fract_x
_atom_site_fract_y
_atom_site_fract_z
O9 O -0.4304(5) 0.3064(4) 0.0624(3)
O10 O -0.3011(4) 0.2717(3) 0.0850(3)
N3 N -0.4569(4) 0.0750(3) 0.4580(3)
C27 C -0.3261(6) 0.1940(5) -0.0347(5)
H35 H -0.2738 0.2126 -0.0174
C28 C -0.3394(7) 0.1416(5) -0.0893(5)
C29 C -0.2724(6) 0.1172(6) -0.1233(5)
H36 H -0.2929 0.0805 -0.1576
H37 H -0.2284 0.0973 -0.0886
H38 H -0.2526 0.1580 -0.1457
C30 C -0.4150(7) 0.1166(5) -0.1091(5)
H39 H -0.4252 0.0816 -0.1444
C31 C -0.4783(6) 0.1390(5) -0.0814(5)
C32 C -0.5615(7) 0.1102(6) -0.1038(6)
H40 H -0.5973 0.1342 -0.0783
H41 H -0.5613 0.0587 -0.0948
H42 H -0.5805 0.1189 -0.1530
C33 C -0.4643(7) 0.1922(5) -0.0314(5)
H43 H -0.5073 0.2112 -0.0134
C34 C -0.3889(6) 0.2161(5) -0.0090(4)
C35 C -0.3759(8) 0.2717(5) 0.0503(5)
C36 C -0.2899(6) 0.3154(5) 0.1499(5)
H44 H -0.2325 0.3284 0.1654
H45 H -0.3216 0.3601 0.1411
C37 C -0.3172(6) 0.2729(4) 0.2045(4)
C38 C -0.3882(6) 0.2910(4) 0.2240(4)
H46 H -0.4178 0.3314 0.2036
C39 C -0.4171(5) 0.2518(4) 0.2724(4)
H47 H -0.4664 0.2646 0.2843
C40 C -0.3736(5) 0.1936(4) 0.3035(4)
C41 C -0.3031(5) 0.1757(5) 0.2849(4)
H48 H -0.2723 0.1366 0.3065
C42 C -0.2758(6) 0.2154(5) 0.2336(4)
H49 H -0.2280 0.2013 0.2196
C43 C -0.4035(5) 0.1520(4) 0.3566(3)
C44 C -0.4823(5) 0.1564(4) 0.3646(4)
H50 H -0.5195 0.1863 0.3352
C45 C -0.5069(5) 0.1176(4) 0.4150(4)
H51 H -0.5613 0.1211 0.4194
C46 C -0.3801(6) 0.0682(4) 0.4501(4)
H52 H -0.3451 0.0362 0.4791
C47 C -0.3518(5) 0.1059(4) 0.4021(4)
H53 H -0.2971 0.1013 0.3990
C48 C -0.4847(5) 0.0367(4) 0.5132(4)
H54 H -0.5284 0.0639 0.5274
H55 H -0.4399 0.0315 0.5535
O9B O -0.5696(5) -0.3064(4) 0.9376(3)
O10B O -0.6989(4) -0.2717(3) 0.9150(3)
N3B N -0.5431(4) -0.0750(3) 0.5420(3)
C27B C -0.6739(6) -0.1940(5) 1.0347(5)
H35B H -0.7262 -0.2126 1.0174
C28B C -0.6606(7) -0.1416(5) 1.0893(5)
C29B C -0.7276(6) -0.1172(6) 1.1233(5)
H36B H -0.7071 -0.0805 1.1576
H37B H -0.7716 -0.0973 1.0886
H38B H -0.7474 -0.1580 1.1457
C30B C -0.5850(7) -0.1166(5) 1.1091(5)
H39B H -0.5748 -0.0816 1.1444
C31B C -0.5217(6) -0.1390(5) 1.0814(5)
C32B C -0.4385(7) -0.1102(6) 1.1038(6)
H40B H -0.4027 -0.1342 1.0783
H41B H -0.4387 -0.0587 1.0948
H42B H -0.4195 -0.1189 1.1530
C33B C -0.5357(7) -0.1922(5) 1.0314(5)
H43B H -0.4927 -0.2112 1.0134
C34B C -0.6111(6) -0.2161(5) 1.0090(4)
C35B C -0.6241(8) -0.2717(5) 0.9497(5)
C36B C -0.7101(6) -0.3154(5) 0.8501(5)
H44B H -0.7675 -0.3284 0.8346
H45B H -0.6784 -0.3601 0.8589
C37B C -0.6828(6) -0.2729(4) 0.7955(4)
C38B C -0.6118(6) -0.2910(4) 0.7760(4)
H46B H -0.5822 -0.3314 0.7964
C39B C -0.5829(5) -0.2518(4) 0.7276(4)
H47B H -0.5336 -0.2646 0.7157
C40B C -0.6264(5) -0.1936(4) 0.6965(4)
C41B C -0.6969(5) -0.1757(5) 0.7151(4)
H48B H -0.7277 -0.1366 0.6935
C42B C -0.7242(6) -0.2154(5) 0.7664(4)
H49B H -0.7720 -0.2013 0.7804
C43B C -0.5965(5) -0.1520(4) 0.6434(3)
C44B C -0.5177(5) -0.1564(4) 0.6354(4)
H50B H -0.4805 -0.1863 0.6648
C45B C -0.4931(5) -0.1176(4) 0.5850(4)
H51B H -0.4387 -0.1211 0.5806
C46B C -0.6199(6) -0.0682(4) 0.5499(4)
H52B H -0.6549 -0.0362 0.5209
C47B C -0.6482(5) -0.1059(4) 0.5979(4)
H53B H -0.7029 -0.1013 0.6010
C48B C -0.5153(5) -0.0367(4) 0.4868(4)
H54B H -0.4716 -0.0639 0.4726
H55B H -0.5601 -0.0315 0.4465
B1 B 0.3045(10) 0.2410(7) -0.2221(7)
F1 F 0.3124(9) 0.2658(5) -0.1594(6)
F2 F 0.2588(5) 0.2871(4) -0.2688(5)
F3 F 0.2785(5) 0.1732(4) -0.2295(6)
F4 F 0.3786(4) 0.2425(3) -0.2363(3)
Cl2 Cl -0.2049(14) -0.0043(11) 0.3473(13)
Cl3 Cl -0.1134(11) 0.4252(10) 0.2460(11)
Cl4 Cl -0.090(3) 0.296(3) 0.311(3)
Cd1 Cd 0.01314(6) 0.06495(6) 0.07245(7)
Cl1 Cl 0.06881(14) -0.06648(15) 0.05348(19)
O1 O -0.0351(10) 0.1831(7) 0.0924(9)
H1 H -0.0755 0.1993 0.0528
H2 H -0.0589 0.1814 0.1330
O2 O 0.0951(6) 0.0585(8) 0.1835(6)
H3 H 0.1510 0.0523 0.1792
H4 H 0.0785 0.0172 0.2074
O3 O -0.3574(3) 0.0559(3) 0.1519(3)
O4 O -0.6023(3) 0.1267(3) 0.0552(3)
O5 O -0.6244(3) 0.0030(3) 0.3204(2)
O6 O -0.6924(4) 0.0552(3) 0.4324(3)
O7 O -0.6445(5) 0.1144(4) 0.5605(4)
O8 O -0.4802(3) -0.0530(3) 0.3296(3)
N1 N -0.0956(5) 0.0195(5) 0.1088(6)
N2 N -0.8807(6) 0.1207(6) 0.0355(6)
C1 C -0.5055(5) -0.0038(4) 0.2793(4)
C2 C -0.4587(5) 0.0190(4) 0.2333(4)
H5 H -0.4066 -0.0008 0.2365
C3 C -0.4861(5) 0.0695(4) 0.1834(4)
C4 C -0.5613(5) 0.0976(4) 0.1773(4)
C5 C -0.6088(5) 0.0743(4) 0.2229(4)
H6 H -0.6613 0.0936 0.2189
C6 C -0.5819(5) 0.0254(4) 0.2722(4)
C7 C -0.4325(5) 0.0921(4) 0.1361(5)
H7 H -0.4595 0.0816 0.0881
H8 H -0.4233 0.1443 0.1402
C8 C -0.3069(5) 0.0753(4) 0.1072(4)
H9 H -0.2936 0.1268 0.1126
H10 H -0.3350 0.0669 0.0591
C9 C -0.2339(5) 0.0333(5) 0.1228(5)
C10 C -0.1669(7) 0.0557(5) 0.0982(7)
H11 H -0.1712 0.0988 0.0726
C11 C -0.0922(6) -0.0395(7) 0.1455(7)
H12 H -0.0425 -0.0645 0.1549
C12 C -0.1534(7) -0.0676(5) 0.1711(7)
H13 H -0.1478 -0.1116 0.1954
C13 C -0.2249(6) -0.0287(5) 0.1598(5)
H14 H -0.2685 -0.0458 0.1783
C14 C -0.5948(5) 0.1529(4) 0.1238(4)
H15 H -0.6483 0.1683 0.1304
H16 H -0.5591 0.1952 0.1302
C15 C -0.6682(5) 0.0791(4) 0.0383(4)
H17 H -0.6676 0.0470 0.0779
H18 H -0.6608 0.0491 -0.0008
C16 C -0.7472(5) 0.1135(5) 0.0203(5)
C17 C -0.8093(7) 0.0917(6) 0.0481(6)
H19 H -0.8001 0.0526 0.0791
C18 C -0.8958(7) 0.1752(6) -0.0086(8)
H20 H -0.9479 0.1961 -0.0184
C19 C -0.8362(6) 0.2020(6) -0.0404(7)
H21 H -0.8467 0.2417 -0.0706
C20 C -0.7606(6) 0.1689(5) -0.0266(5)
H22 H -0.7195 0.1842 -0.0491
C21 C -0.7057(5) 0.0328(6) 0.3139(5)
H23 H -0.7046 0.0852 0.3074
H24 H -0.7426 0.0117 0.2738
C22 C -0.7340(6) 0.0162(5) 0.3769(5)
H25 H -0.7921 0.0271 0.3698
H26 H -0.7267 -0.0355 0.3869
C23 C -0.7328(6) 0.1143(5) 0.4529(5)
H27 H -0.7857 0.0987 0.4609
H28 H -0.7424 0.1503 0.4157
C24 C -0.6860(10) 0.1467(10) 0.5158(7)
H29 H -0.6511 0.1832 0.5009
H30 H -0.7250 0.1731 0.5370
C25 C -0.6047(6) 0.1484(5) 0.6202(4)
H31 H -0.6388 0.1871 0.6326
H32 H -0.5539 0.1698 0.6131
C26 C -0.4123(5) -0.0948(5) 0.3242(4)
H33 H -0.4225 -0.1193 0.2792
H34 H -0.3649 -0.0633 0.3269
Cd1B Cd -0.01314(6) -0.06495(6) -0.07245(7)
Cd1_2 Cd -0.98686(6) 0.06495(6) 0.07245(7)
Cd1B_2 Cd -1.01314(6) -0.06495(6) 0.92755(7)
Cd1B_3 Cd -0.01314(6) -0.06495(6) 0.92755(7)
Cl1B Cl -0.06881(14) 0.06648(15) -0.05348(19)
O1B O 0.0351(10) -0.1831(7) -0.0924(9)
H1B H 0.0755 -0.1993 -0.0528
H2B H 0.0589 -0.1814 -0.1330
O2B O -0.0951(6) -0.0585(8) -0.1835(6)
H3B H -0.1510 -0.0523 -0.1792
H4B H -0.0785 -0.0172 -0.2074
O3B O -0.6426(3) -0.0559(3) 0.8481(3)
O4B O -0.3977(3) -0.1267(3) 0.9448(3)
O5B O -0.3756(3) -0.0030(3) 0.6796(2)
O6B O -0.3076(4) -0.0552(3) 0.5676(3)
O7B O -0.3555(5) -0.1144(4) 0.4395(4)
O8B O -0.5198(3) 0.0530(3) 0.6704(3)
N1B N -0.9044(5) -0.0195(5) 0.8912(6)
N1B_2 N 0.0956(5) -0.0195(5) -0.1088(6)
N2B N -0.1193(6) -0.1207(6) 0.9645(6)
N2_2 N 0.1193(6) 0.1207(6) 0.0355(6)
N2B_2 N -0.1193(6) -0.1207(6) -0.0355(6)
C1B C -0.4945(5) 0.0038(4) 0.7207(4)
C2B C -0.5413(5) -0.0190(4) 0.7667(4)
H5B H -0.5934 0.0008 0.7635
C3B C -0.5139(5) -0.0695(4) 0.8166(4)
C4B C -0.4387(5) -0.0976(4) 0.8227(4)
C5B C -0.3912(5) -0.0743(4) 0.7771(4)
H6B H -0.3387 -0.0936 0.7811
C6B C -0.4181(5) -0.0254(4) 0.7278(4)
C7B C -0.5675(5) -0.0921(4) 0.8639(5)
H7B H -0.5405 -0.0816 0.9119
H8B H -0.5767 -0.1443 0.8598
C8B C -0.6931(5) -0.0753(4) 0.8928(4)
H9B H -0.7064 -0.1268 0.8874
H10B H -0.6650 -0.0669 0.9409
C9B C -0.7661(5) -0.0333(5) 0.8772(5)
C10B C -0.8331(7) -0.0557(5) 0.9018(7)
H11B H -0.8288 -0.0988 0.9274
C11B C -0.9078(6) 0.0395(7) 0.8545(7)
H12B H -0.9575 0.0645 0.8451
C12B C -0.8466(7) 0.0676(5) 0.8289(7)
H13B H -0.8522 0.1116 0.8046
C13B C -0.7751(6) 0.0287(5) 0.8402(5)
H14B H -0.7315 0.0458 0.8217
C14B C -0.4052(5) -0.1529(4) 0.8762(4)
H15B H -0.3517 -0.1683 0.8696
H16B H -0.4409 -0.1952 0.8698
C15B C -0.3318(5) -0.0791(4) 0.9617(4)
H17B H -0.3324 -0.0470 0.9221
H18B H -0.3392 -0.0491 1.0008
C16B C -0.2528(5) -0.1135(5) 0.9797(5)
C17B C -0.1907(7) -0.0917(6) 0.9519(6)
H19B H -0.1999 -0.0526 0.9209
C18B C -0.1042(7) -0.1752(6) 1.0086(8)
H20B H -0.0521 -0.1961 1.0184
C19B C -0.1638(6) -0.2020(6) 1.0404(7)
H21B H -0.1533 -0.2417 1.0706
C20B C -0.2394(6) -0.1689(5) 1.0266(5)
H22B H -0.2805 -0.1842 1.0491
C21B C -0.2943(5) -0.0328(6) 0.6861(5)
H23B H -0.2954 -0.0852 0.6926
H24B H -0.2574 -0.0117 0.7262
C22B C -0.2660(6) -0.0162(5) 0.6231(5)
H25B H -0.2079 -0.0271 0.6302
H26B H -0.2733 0.0355 0.6131
C23B C -0.2672(6) -0.1143(5) 0.5471(5)
H27B H -0.2143 -0.0987 0.5391
H28B H -0.2576 -0.1503 0.5843
C24B C -0.3140(10) -0.1467(10) 0.4842(7)
H29B H -0.3489 -0.1832 0.4991
H30B H -0.2750 -0.1731 0.4630
C25B C -0.3953(6) -0.1484(5) 0.3798(4)
H31B H -0.3612 -0.1871 0.3674
H32B H -0.4461 -0.1698 0.3869
C26B C -0.5877(5) 0.0948(5) 0.6758(4)
H33B H -0.5775 0.1193 0.7208
H34B H -0.6351 0.0633 0.6731
loop_
_geom_bond_atom_site_label_1
_geom_bond_atom_site_label_2
_geom_bond_site_symmetry_1
_geom_bond_site_symmetry_2
Cd1 Cl1 1_555 1_555
Cl1 Cd1B 1_555 1_555
O1 Cd1 1_555 1_555
H1 O1 1_555 1_555
H2 O1 1_555 1_555
O2 Cd1 1_555 1_555
H3 O2 1_555 1_555
H4 O2 1_555 1_555
O3 C7 1_555 1_555
O4 C14 1_555 1_555
O5 C6 1_555 1_555
O6 C22 1_555 1_555
O7 C24 1_555 1_555
O8 C1 1_555 1_555
N1 Cd1 1_555 1_555
N2 C17 1_555 1_555
C1 C2 1_555 1_555
C2 H5 1_555 1_555
C3 C2 1_555 1_555
C4 C3 1_555 1_555
C5 C4 1_555 1_555
H6 C5 1_555 1_555
C6 C1 1_555 1_555
C7 C3 1_555 1_555
H7 C7 1_555 1_555
H8 C7 1_555 1_555
C8 O3 1_555 1_555
H9 C8 1_555 1_555
H10 C8 1_555 1_555
C9 C8 1_555 1_555
C10 N1 1_555 1_555
H11 C10 1_555 1_555
C11 N1 1_555 1_555
H12 C11 1_555 1_555
C12 C11 1_555 1_555
H13 C12 1_555 1_555
C13 C9 1_555 1_555
H14 C13 1_555 1_555
C14 C4 1_555 1_555
H15 C14 1_555 1_555
H16 C14 1_555 1_555
C15 O4 1_555 1_555
H17 C15 1_555 1_555
H18 C15 1_555 1_555
C16 C15 1_555 1_555
C17 C16 1_555 1_555
H19 C17 1_555 1_555
C18 N2 1_555 1_555
H20 C18 1_555 1_555
C19 C18 1_555 1_555
H21 C19 1_555 1_555
C20 C16 1_555 1_555
H22 C20 1_555 1_555
C21 O5 1_555 1_555
H23 C21 1_555 1_555
H24 C21 1_555 1_555
C22 C21 1_555 1_555
H25 C22 1_555 1_555
H26 C22 1_555 1_555
C23 O6 1_555 1_555
H27 C23 1_555 1_555
H28 C23 1_555 1_555
C24 C23 1_555 1_555
H29 C24 1_555 1_555
H30 C24 1_555 1_555
C25 O7 1_555 1_555
H31 C25 1_555 1_555
H32 C25 1_555 1_555
C26 O8 1_555 1_555
H33 C26 1_555 1_555
H34 C26 1_555 1_555
O9 C35 1_555 1_555
O10 C35 1_555 1_555
N3 C45 1_555 1_555
C27 H35 1_555 1_555
C28 C27 1_555 1_555
C29 C28 1_555 1_555
H36 C29 1_555 1_555
H37 C29 1_555 1_555
H38 C29 1_555 1_555
C30 C28 1_555 1_555
H39 C30 1_555 1_555
C31 C30 1_555 1_555
C32 C31 1_555 1_555
H40 C32 1_555 1_555
H41 C32 1_555 1_555
H42 C32 1_555 1_555
C33 C31 1_555 1_555
H43 C33 1_555 1_555
C34 C27 1_555 1_555
C35 C34 1_555 1_555
C36 O10 1_555 1_555
H44 C36 1_555 1_555
H45 C36 1_555 1_555
C37 C36 1_555 1_555
C38 C37 1_555 1_555
H46 C38 1_555 1_555
C39 C38 1_555 1_555
H47 C39 1_555 1_555
C40 C39 1_555 1_555
C41 C40 1_555 1_555
H48 C41 1_555 1_555
C42 C37 1_555 1_555
H49 C42 1_555 1_555
C43 C40 1_555 1_555
C44 C43 1_555 1_555
H50 C44 1_555 1_555
C45 C44 1_555 1_555
H51 C45 1_555 1_555
C46 N3 1_555 1_555
H52 C46 1_555 1_555
C47 C43 1_555 1_555
H53 C47 1_555 1_555
C48 N3 1_555 1_555
H54 C48 1_555 1_555
H55 C48 1_555 1_555
B1 F1 1_555 1_555
F2 B1 1_555 1_555
F3 B1 1_555 1_555
F4 B1 1_555 1_555
Cd1B Cl1B 1_555 1_555
Cd1_2 N2 1_555 1_555
Cd1B_2 N1B 1_555 1_555
Cd1B_3 N2B 1_555 1_555
Cl1B Cd1 1_555 1_555
O1B Cd1B 1_555 1_555
H1B O1B 1_555 1_555
H2B O1B 1_555 1_555
O2B Cd1B 1_555 1_555
H3B O2B 1_555 1_555
H4B O2B 1_555 1_555
O3B C7B 1_555 1_555
O4B C14B 1_555 1_555
O5B C6B 1_555 1_555
O6B C22B 1_555 1_555
O7B C24B 1_555 1_555
O8B C1B 1_555 1_555
N1B C10B 1_555 1_555
N1B_2 Cd1B 1_555 1_555
N2B C17B 1_555 1_555
N2_2 Cd1 1_555 1_555
N2B_2 Cd1B 1_555 1_555
C1B C2B 1_555 1_555
C2B H5B 1_555 1_555
C3B C2B 1_555 1_555
C4B C3B 1_555 1_555
C5B C4B 1_555 1_555
H6B C5B 1_555 1_555
C6B C1B 1_555 1_555
C7B C3B 1_555 1_555
H7B C7B 1_555 1_555
H8B C7B 1_555 1_555
C8B O3B 1_555 1_555
H9B C8B 1_555 1_555
H10B C8B 1_555 1_555
C9B C8B 1_555 1_555
C10B C9B 1_555 1_555
H11B C10B 1_555 1_555
C11B N1B 1_555 1_555
H12B C11B 1_555 1_555
C12B C11B 1_555 1_555
H13B C12B 1_555 1_555
C13B C9B 1_555 1_555
H14B C13B 1_555 1_555
C14B C4B 1_555 1_555
H15B C14B 1_555 1_555
H16B C14B 1_555 1_555
C15B O4B 1_555 1_555
H17B C15B 1_555 1_555
H18B C15B 1_555 1_555
C16B C15B 1_555 1_555
C17B C16B 1_555 1_555
H19B C17B 1_555 1_555
C18B N2B 1_555 1_555
H20B C18B 1_555 1_555
C19B C18B 1_555 1_555
H21B C19B 1_555 1_555
C20B C16B 1_555 1_555
H22B C20B 1_555 1_555
C21B O5B 1_555 1_555
H23B C21B 1_555 1_555
H24B C21B 1_555 1_555
C22B C21B 1_555 1_555
H25B C22B 1_555 1_555
H26B C22B 1_555 1_555
C23B O6B 1_555 1_555
H27B C23B 1_555 1_555
H28B C23B 1_555 1_555
C24B C23B 1_555 1_555
H29B C24B 1_555 1_555
H30B C24B 1_555 1_555
C25B C26 1_555 1_555
H31B C25B 1_555 1_555
H32B C25B 1_555 1_555
C26B C25 1_555 1_555
H33B C26B 1_555 1_555
H34B C26B 1_555 1_555
O9B C35B 1_555 1_555
O10B C35B 1_555 1_555
N3B C45B 1_555 1_555
C27B H35B 1_555 1_555
C28B C27B 1_555 1_555
C29B C28B 1_555 1_555
H36B C29B 1_555 1_555
H37B C29B 1_555 1_555
H38B C29B 1_555 1_555
C30B C28B 1_555 1_555
H39B C30B 1_555 1_555
C31B C30B 1_555 1_555
C32B C31B 1_555 1_555
H40B C32B 1_555 1_555
H41B C32B 1_555 1_555
H42B C32B 1_555 1_555
C33B C31B 1_555 1_555
H43B C33B 1_555 1_555
C34B C27B 1_555 1_555
C35B C34B 1_555 1_555
C36B O10B 1_555 1_555
H44B C36B 1_555 1_555
H45B C36B 1_555 1_555
C37B C36B 1_555 1_555
C38B C37B 1_555 1_555
H46B C38B 1_555 1_555
C39B C38B 1_555 1_555
H47B C39B 1_555 1_555
C40B C39B 1_555 1_555
C41B C40B 1_555 1_555
H48B C41B 1_555 1_555
C42B C37B 1_555 1_555
H49B C42B 1_555 1_555
C43B C40B 1_555 1_555
C44B C43B 1_555 1_555
H50B C44B 1_555 1_555
C45B C44B 1_555 1_555
H51B C45B 1_555 1_555
C46B N3B 1_555 1_555
H52B C46B 1_555 1_555
C47B C43B 1_555 1_555
H53B C47B 1_555 1_555
C48B C48 1_555 1_555
H54B C48B 1_555 1_555
H55B C48B 1_555 1_555
C5 C6 1_555 1_555
C9 C10 1_555 1_555
C12 C13 1_555 1_555
C19 C20 1_555 1_555
C33 C34 1_555 1_555
C41 C42 1_555 1_555
C46 C47 1_555 1_555
O7B C25B 1_555 1_555
O8B C26B 1_555 1_555
C5B C6B 1_555 1_555
C12B C13B 1_555 1_555
C19B C20B 1_555 1_555
N3B C48B 1_555 1_555
C33B C34B 1_555 1_555
C41B C42B 1_555 1_555
C46B C47B 1_555 1_555

#END
