
#######################################################################
#
#                 Cambridge Crystallographic Data Centre
#                                CCDC 
#
#######################################################################
#
# If this CIF has been generated from an entry in the Cambridge 
# Structural Database, then it will include bibliographic, chemical, 
# crystal, experimental, refinement or atomic coordinate data resulting 
# from the CCDC's data processing and validation procedures.
#
#######################################################################

data_EJEMUB
_symmetry_cell_setting           monoclinic
_symmetry_space_group_name_H-M   'C 2/c'
_symmetry_Int_Tables_number      15
_space_group_name_Hall           '-C 2yn'
loop_
_symmetry_equiv_pos_site_id
_symmetry_equiv_pos_as_xyz
1 x,y,z
2 1/2+x,1/2+y,z
3 x,-y,1/2+z
4 1/2+x,1/2-y,1/2+z
5 -x,-y,-z
6 1/2-x,1/2-y,-z
7 -x,y,1/2-z
8 1/2-x,1/2+y,1/2-z
_cell_length_a                   10.3816(3)
_cell_length_b                   18.6749(6)
_cell_length_c                   14.8264(4)
_cell_angle_alpha                90
_cell_angle_beta                 94.517(2)
_cell_angle_gamma                90
_cell_volume                     2865.55
loop_
_atom_site_label
_atom_site_type_symbol
_atom_site_fract_x
_atom_site_fract_y
_atom_site_fract_z
Zn1 Zn 0.19754(3) 0.191761(14) 0.669521(16)
Zn2 Zn 0.0000 0.020299(18) 0.7500
O1 O 0.23244(15) 0.15940(9) 0.79357(9)
O2 O 0.0912(2) 0.08090(10) 0.84212(11)
O3 O 0.54131(15) 0.25649(10) 1.15223(10)
O4 O 0.57208(15) 0.26405(9) 1.00704(10)
O5 O 0.10314(16) 0.02738(9) 1.16640(10)
O6 O 0.19437(19) 0.10394(10) 1.26608(10)
O7 O 0.3411(2) 0.26376(12) 0.66461(15)
N1 N 0.28291(18) 0.11320(10) 0.60416(12)
C1 C 0.2373(2) 0.13687(11) 0.94896(13)
C2 C 0.3446(2) 0.18083(11) 0.96519(13)
H1 H 0.3823 0.2019 0.9169
C3 C 0.39582(19) 0.19355(11) 1.05264(13)
C4 C 0.3377(2) 0.16266(11) 1.12551(13)
H2 H 0.3701 0.1725 1.1845
C5 C 0.2322(2) 0.11755(11) 1.11003(13)
C6 C 0.1818(2) 0.10442(11) 1.02150(13)
H3 H 0.1112 0.0741 1.0108
C7 C 0.1814(2) 0.12423(12) 0.85379(13)
C8 C 0.5114(2) 0.24111(11) 1.06957(14)
C9 C 0.1723(2) 0.08149(12) 1.18810(14)
C10 C 0.3778(3) 0.07875(17) 0.65139(16)
H4 H 0.3869 0.0855 0.7137
C11 C 0.4628(3) 0.03400(16) 0.61357(16)
H5 H 0.5269 0.0109 0.6500
C12 C 0.4533(2) 0.02323(11) 0.52179(14)
C13 C 0.3519(3) 0.05645(14) 0.47256(16)
H6 H 0.3388 0.0491 0.4105
C14 C 0.2700(3) 0.10084(15) 0.51636(16)
H7 H 0.2025 0.1230 0.4821
H8 H 0.324(3) 0.3003(19) 0.688(2)
H9 H 0.371(3) 0.2651(17) 0.620(2)
C12D C 0.5467(2) -0.02323(11) 0.47821(14)
C11D C 0.5372(3) -0.03400(16) 0.38643(16)
C10D C 0.6222(3) -0.07875(17) 0.34861(16)
N1D N 0.71709(18) -0.11320(10) 0.39584(12)
C14D C 0.7300(3) -0.10084(15) 0.48364(16)
C13D C 0.6481(3) -0.05645(14) 0.52744(16)
H6D H 0.6612 -0.0491 0.5895
H7D H 0.7975 -0.1230 0.5179
H4D H 0.6131 -0.0855 0.2863
H5D H 0.4731 -0.0109 0.3500
O1F O -0.23244(15) 0.15940(9) 0.70643(9)
O2F O -0.0912(2) 0.08090(10) 0.65788(11)
O3F O -0.54131(15) 0.25649(10) 0.34777(10)
O4F O -0.57208(15) 0.26405(9) 0.49296(10)
O5F O -0.10314(16) 0.02738(9) 0.33360(10)
O6F O -0.19437(19) 0.10394(10) 0.23392(10)
C1F C -0.2373(2) 0.13687(11) 0.55104(13)
C2F C -0.3446(2) 0.18083(11) 0.53481(13)
H1F H -0.3823 0.2019 0.5831
C3F C -0.39582(19) 0.19355(11) 0.44736(13)
C4F C -0.3377(2) 0.16266(11) 0.37449(13)
H2F H -0.3701 0.1725 0.3155
C5F C -0.2322(2) 0.11755(11) 0.38997(13)
C6F C -0.1818(2) 0.10442(11) 0.47850(13)
H3F H -0.1112 0.0741 0.4892
C7F C -0.1814(2) 0.12423(12) 0.64621(13)
C8F C -0.5114(2) 0.24111(11) 0.43043(14)
C9F C -0.1723(2) 0.08149(12) 0.31190(14)
Zn1F Zn -0.19754(3) 0.191761(14) 0.830479(16)
O7F O -0.3411(2) 0.26376(12) 0.83539(15)
H8F H -0.324(3) 0.3003(19) 0.812(2)
H9F H -0.371(3) 0.2651(17) 0.880(2)
O3C O 0.04131(15) 0.24351(10) 0.65223(10)
O5B O 0.10314(16) -0.02738(9) 0.66640(10)
O5D O -0.10314(16) -0.02738(9) 0.83360(10)
Zn1C Zn 0.69754(3) 0.308239(14) 1.169521(16)
Zn2B Zn 0.0000 -0.020299(18) 1.2500
Zn1D Zn 0.80246(3) -0.191761(14) 0.330479(16)
Zn1E Zn -0.69754(3) 0.308239(14) 0.330479(16)
Zn2B_2 Zn 0.0000 -0.020299(18) 0.2500
O3E O -0.04131(15) 0.24351(10) 0.84777(10)
N1F N -0.28291(18) 0.11320(10) 0.89584(12)
loop_
_geom_bond_atom_site_label_1
_geom_bond_atom_site_label_2
_geom_bond_site_symmetry_1
_geom_bond_site_symmetry_2
Zn1 O1 1_555 1_555
Zn2 O2 1_555 1_555
O1 C7 1_555 1_555
O2 C7 1_555 1_555
O3 C8 1_555 1_555
O4 C8 1_555 1_555
O5 C9 1_555 1_555
O6 C9 1_555 1_555
O7 Zn1 1_555 1_555
N1 Zn1 1_555 1_555
C1 C2 1_555 1_555
C2 H1 1_555 1_555
C3 C2 1_555 1_555
C4 C3 1_555 1_555
H2 C4 1_555 1_555
C5 C4 1_555 1_555
C6 C1 1_555 1_555
H3 C6 1_555 1_555
C7 C1 1_555 1_555
C8 C3 1_555 1_555
C9 C5 1_555 1_555
C10 N1 1_555 1_555
H4 C10 1_555 1_555
C11 C10 1_555 1_555
H5 C11 1_555 1_555
C12 C11 1_555 1_555
C13 C12 1_555 1_555
H6 C13 1_555 1_555
C14 N1 1_555 1_555
H7 C14 1_555 1_555
H8 O7 1_555 1_555
H9 O7 1_555 1_555
C12D C12 1_555 1_555
C11D C12D 1_555 1_555
C10D C11D 1_555 1_555
N1D C10D 1_555 1_555
C14D N1D 1_555 1_555
C13D C12D 1_555 1_555
H6D C13D 1_555 1_555
H7D C14D 1_555 1_555
H4D C10D 1_555 1_555
H5D C11D 1_555 1_555
O1F C7F 1_555 1_555
O2F Zn2 1_555 1_555
O3F C8F 1_555 1_555
O4F C8F 1_555 1_555
O5F C9F 1_555 1_555
O6F C9F 1_555 1_555
C1F C2F 1_555 1_555
C2F H1F 1_555 1_555
C3F C2F 1_555 1_555
C4F C3F 1_555 1_555
H2F C4F 1_555 1_555
C5F C4F 1_555 1_555
C6F C1F 1_555 1_555
H3F C6F 1_555 1_555
C7F O2F 1_555 1_555
C8F C3F 1_555 1_555
C9F C5F 1_555 1_555
Zn1F O1F 1_555 1_555
O7F Zn1F 1_555 1_555
H8F O7F 1_555 1_555
H9F O7F 1_555 1_555
O3C Zn1 1_555 1_555
O5B Zn2 1_555 1_555
O5D Zn2 1_555 1_555
Zn1C O3 1_555 1_555
Zn2B O5 1_555 1_555
Zn1D N1D 1_555 1_555
Zn1E O3F 1_555 1_555
Zn2B_2 O5F 1_555 1_555
O3E Zn1F 1_555 1_555
N1F Zn1F 1_555 1_555
C5 C6 1_555 1_555
C13 C14 1_555 1_555
C14D C13D 1_555 1_555
C1F C7F 1_555 1_555
C5F C6F 1_555 1_555

#END
