
#######################################################################
#
#                 Cambridge Crystallographic Data Centre
#                                CCDC 
#
#######################################################################
#
# If this CIF has been generated from an entry in the Cambridge 
# Structural Database, then it will include bibliographic, chemical, 
# crystal, experimental, refinement or atomic coordinate data resulting 
# from the CCDC's data processing and validation procedures.
#
#######################################################################

data_EJEXUN
_symmetry_cell_setting           monoclinic
_symmetry_space_group_name_H-M   'P 21/c'
_symmetry_Int_Tables_number      14
_space_group_name_Hall           '-P 2ybc'
loop_
_symmetry_equiv_pos_site_id
_symmetry_equiv_pos_as_xyz
1 x,y,z
2 -x,1/2+y,1/2-z
3 -x,-y,-z
4 x,1/2-y,1/2+z
_cell_length_a                   6.8727(2)
_cell_length_b                   10.2230(3)
_cell_length_c                   14.1923(4)
_cell_angle_alpha                90
_cell_angle_beta                 90.010(1)
_cell_angle_gamma                90
_cell_volume                     997.145
loop_
_atom_site_label
_atom_site_type_symbol
_atom_site_fract_x
_atom_site_fract_y
_atom_site_fract_z
Au1 Au 0.5000 1.0000 0.0000
Cu1 Cu 0.5000 0.5000 0.0000
S1 S 0.50000(13) 0.45842(8) 0.25341(5)
N1 N 0.2017(4) 0.4999(2) 0.00004(17)
N2 N 0.4997(4) 0.6939(3) -0.00473(17)
C1 C 0.4999(5) 0.8064(3) -0.0030(2)
O1 O 0.5002(3) 0.5368(2) 0.16215(15)
C2 C 0.6949(6) 0.3426(4) 0.2443(3)
C3 C 0.3048(6) 0.3428(4) 0.2443(3)
C4 C 0.1008(4) 0.5646(3) 0.0661(2)
H1 H 0.1687 0.6112 0.1138
C5 C 0.1012(4) 0.4353(3) -0.0660(2)
H2 H 0.1692 0.3886 -0.1136
Au1_2 Au 0.5000 0.0000 0.0000
Cu1_2 Cu -0.5000 0.5000 0.0000
S1B S 0.50000(13) 0.54158(8) -0.25341(5)
N1B N -0.2017(4) 0.5001(2) -0.00004(17)
N1B_2 N 0.7983(4) 0.5001(2) -0.00004(17)
N2B N 0.5003(4) 0.3061(3) 0.00473(17)
C1B C 0.5001(5) 1.1936(3) 0.0030(2)
C1B_2 C 0.5001(5) 0.1936(3) 0.0030(2)
O1B O 0.4998(3) 0.4632(2) -0.16215(15)
C2B C 0.3051(6) 0.6574(4) -0.2443(3)
C3B C 0.6952(6) 0.6572(4) -0.2443(3)
C4B C -0.1008(4) 0.4354(3) -0.0661(2)
H1B H -0.1687 0.3888 -0.1138
C5B C -0.1012(4) 0.5647(3) 0.0660(2)
H2B H -0.1692 0.6114 0.1136
Au2 Au 0.0000 0.0000 0.0000
N3 N -0.0001(5) 0.1147(4) 0.2048(2)
C6 C -0.0001(6) 0.0752(4) 0.1294(3)
N3B N 0.0001(5) -0.1147(4) -0.2048(2)
C6B C 0.0001(6) -0.0752(4) -0.1294(3)
loop_
_geom_bond_atom_site_label_1
_geom_bond_atom_site_label_2
_geom_bond_site_symmetry_1
_geom_bond_site_symmetry_2
Au1 C1 1_555 1_555
Au2 C6 1_555 1_555
Cu1 N1 1_555 1_555
S1 O1 1_555 1_555
N1 C4 1_555 1_555
N2 Cu1 1_555 1_555
C1 N2 1_555 1_555
O1 Cu1 1_555 1_555
C2 S1 1_555 1_555
C3 S1 1_555 1_555
C4 H1 1_555 1_555
C5 N1 1_555 1_555
H2 C5 1_555 1_555
N3 C6 1_555 1_555
Au1_2 C1B_2 1_555 1_555
Cu1_2 N1B 1_555 1_555
S1B O1B 1_555 1_555
N1B C4B 1_555 1_555
N1B_2 Cu1 1_555 1_555
N2B Cu1 1_555 1_555
C1B Au1 1_555 1_555
C1B_2 N2B 1_555 1_555
O1B Cu1 1_555 1_555
C2B S1B 1_555 1_555
C3B S1B 1_555 1_555
C4B C5 1_555 1_555
H1B C4B 1_555 1_555
C5B C4 1_555 1_555
H2B C5B 1_555 1_555
N3B C6B 1_555 1_555
C6B Au2 1_555 1_555
N1B C5B 1_555 1_555

#END
