
#######################################################################
#
#                 Cambridge Crystallographic Data Centre
#                                CCDC 
#
#######################################################################
#
# If this CIF has been generated from an entry in the Cambridge 
# Structural Database, then it will include bibliographic, chemical, 
# crystal, experimental, refinement or atomic coordinate data resulting 
# from the CCDC's data processing and validation procedures.
#
#######################################################################

data_EJEZOJ
_symmetry_cell_setting           triclinic
_symmetry_space_group_name_H-M   'P -1'
_symmetry_Int_Tables_number      2
_space_group_name_Hall           '-P 1'
loop_
_symmetry_equiv_pos_site_id
_symmetry_equiv_pos_as_xyz
1 x,y,z
2 -x,-y,-z
_cell_length_a                   7.1745(10)
_cell_length_b                   9.0322(12)
_cell_length_c                   10.7183(14)
_cell_angle_alpha                73.765(2)
_cell_angle_beta                 87.008(1)
_cell_angle_gamma                78.299(2)
_cell_volume                     653
loop_
_atom_site_label
_atom_site_type_symbol
_atom_site_fract_x
_atom_site_fract_y
_atom_site_fract_z
C1 C 0.3505(3) 0.3527(2) 0.65479(17)
C2 C 0.3510(3) 0.4518(2) 0.73218(18)
H1 H 0.3966 0.4111 0.8170
C3 C 0.2837(3) 0.6112(2) 0.68350(18)
C4 C 0.2162(3) 0.6757(2) 0.55759(18)
H2 H 0.1704 0.7833 0.5256
C5 C 0.2187(2) 0.5755(2) 0.48062(17)
C6 C 0.2853(3) 0.4160(2) 0.52773(18)
H3 H 0.2865 0.3506 0.4742
C7 C 0.4197(3) 0.1775(2) 0.70790(18)
C8 C 0.4224(3) 0.6927(2) 0.8551(2)
H4 H 0.5422 0.6281 0.8616
C9 C 0.3532(3) 0.7895(2) 0.92834(19)
H5 H 0.4194 0.8038 0.9950
C10 C 0.1314(3) 0.8125(2) 0.79458(18)
H6 H 0.0159 0.8435 0.7501
C11 C 0.1276(3) 0.5484(2) 0.26702(18)
H7 H 0.1468 0.4394 0.2869
C12 C 0.0687(3) 0.6521(2) 0.15308(18)
H8 H 0.0389 0.6254 0.0798
C13 C 0.1100(3) 0.7886(2) 0.27858(18)
H9 H 0.1157 0.8731 0.3108
H10 H -0.312(3) 0.974(3) 0.905(3)
H11 H -0.287(3) 0.885(3) 1.031(3)
N1 N 0.1702(2) 0.86455(17) 0.89079(14)
N2 N 0.2805(2) 0.70821(18) 0.76850(15)
N3 N 0.0585(2) 0.80249(18) 0.15994(15)
N4 N 0.1539(2) 0.63640(18) 0.34851(14)
Ni1 Ni 0.0000 1.0000 1.0000
O1 O 0.4154(3) 0.09362(18) 0.63565(15)
O2 O 0.4787(2) 0.13071(16) 0.82369(13)
O3 O -0.2355(2) 0.91273(18) 0.96241(15)
C1_2 C 0.3505(3) 0.3527(2) 1.65479(17)
C2_2 C 0.3510(3) 0.4518(2) 1.73218(18)
H1_2 H 0.3966 0.4111 1.8170
C3_2 C 0.2837(3) 0.6112(2) 1.68350(18)
C4_2 C 0.2162(3) 0.6757(2) 1.55759(18)
H2_2 H 0.1704 0.7833 1.5256
C5_2 C 0.2187(2) 0.5755(2) 1.48062(17)
C6_2 C 0.2853(3) 0.4160(2) 1.52773(18)
H3_2 H 0.2865 0.3506 1.4742
C7_2 C 0.4197(3) 0.1775(2) 1.70790(18)
C8_2 C 0.4224(3) 0.6927(2) 1.8551(2)
H4_2 H 0.5422 0.6281 1.8616
C9_2 C 0.3532(3) 0.7895(2) 1.92834(19)
H5_2 H 0.4194 0.8038 1.9950
C10_2 C 0.1314(3) 0.8125(2) 1.79458(18)
H6_2 H 0.0159 0.8435 1.7501
C11_2 C 0.1276(3) 0.5484(2) 1.26702(18)
H7_2 H 0.1468 0.4394 1.2869
C12_2 C 0.0687(3) 0.6521(2) 1.15308(18)
H8_2 H 0.0389 0.6254 1.0798
C13_2 C 0.1100(3) 0.7886(2) 1.27858(18)
H9_2 H 0.1157 0.8731 1.3108
H10A H 0.312(3) 1.026(3) 1.095(3)
H11A H 0.287(3) 1.115(3) 0.969(3)
N1_2 N 0.1702(2) 0.86455(17) 1.89079(14)
N1A N -0.1702(2) 1.13545(17) 1.10921(14)
N2_2 N 0.2805(2) 0.70821(18) 1.76850(15)
N3_2 N 0.0585(2) 0.80249(18) 1.15994(15)
N3A N -0.0585(2) 1.19751(18) 0.84006(15)
N4_2 N 0.1539(2) 0.63640(18) 1.34851(14)
Ni1_2 Ni 0.0000 1.0000 0.0000
Ni1_3 Ni 0.0000 1.0000 2.0000
O1_2 O 0.4154(3) 0.09362(18) 1.63565(15)
O2_2 O 0.4787(2) 0.13071(16) 1.82369(13)
O3A O 0.2355(2) 1.08727(18) 1.03759(15)
H12 H 0.743(5) 0.899(4) 0.537(3)
H13 H 0.677(5) 0.952(4) 0.631(4)
O4 O 0.7550(3) 0.8959(3) 0.6026(3)
loop_
_geom_bond_atom_site_label_1
_geom_bond_atom_site_label_2
_geom_bond_site_symmetry_1
_geom_bond_site_symmetry_2
C1 C2 1_555 1_555
C2 H1 1_555 1_555
C3 C2 1_555 1_555
C4 C3 1_555 1_555
H2 C4 1_555 1_555
C5 C4 1_555 1_555
C6 C1 1_555 1_555
H3 C6 1_555 1_555
C7 C1 1_555 1_555
C8 H4 1_555 1_555
C9 C8 1_555 1_555
H5 C9 1_555 1_555
C10 H6 1_555 1_555
C11 H7 1_555 1_555
C12 C11 1_555 1_555
H8 C12 1_555 1_555
C13 H9 1_555 1_555
H10 O3 1_555 1_555
H11 O3 1_555 1_555
N1 C9 1_555 1_555
N2 C3 1_555 1_555
N3 C12 1_555 1_555
N4 C5 1_555 1_555
Ni1 N1 1_555 1_555
O1 C7 1_555 1_555
O2 C7 1_555 1_555
O3 Ni1 1_555 1_555
H12 O4 1_555 1_555
H13 O4 1_555 1_555
C1_2 C2_2 1_555 1_555
C2_2 H1_2 1_555 1_555
C3_2 C2_2 1_555 1_555
C4_2 C3_2 1_555 1_555
H2_2 C4_2 1_555 1_555
C5_2 C4_2 1_555 1_555
C6_2 C1_2 1_555 1_555
H3_2 C6_2 1_555 1_555
C7_2 C1_2 1_555 1_555
C8_2 H4_2 1_555 1_555
C9_2 C8_2 1_555 1_555
H5_2 C9_2 1_555 1_555
C10_2 H6_2 1_555 1_555
C11_2 H7_2 1_555 1_555
C12_2 C11_2 1_555 1_555
H8_2 C12_2 1_555 1_555
C13_2 H9_2 1_555 1_555
H10A O3A 1_555 1_555
H11A O3A 1_555 1_555
N1_2 C9_2 1_555 1_555
N1A Ni1 1_555 1_555
N2_2 C3_2 1_555 1_555
N3_2 Ni1 1_555 1_555
N3A Ni1 1_555 1_555
N4_2 C5_2 1_555 1_555
Ni1_2 N3 1_555 1_555
Ni1_3 N1_2 1_555 1_555
O1_2 C7_2 1_555 1_555
O2_2 C7_2 1_555 1_555
O3A Ni1 1_555 1_555
C5 C6 1_555 1_555
C8 N2 1_555 1_555
C10 N1 1_555 1_555
C10 N2 1_555 1_555
C11 N4 1_555 1_555
C13 N3 1_555 1_555
C13 N4 1_555 1_555
C5_2 C6_2 1_555 1_555
C8_2 N2_2 1_555 1_555
C10_2 N1_2 1_555 1_555
C10_2 N2_2 1_555 1_555
C11_2 N4_2 1_555 1_555
C12_2 N3_2 1_555 1_555
C13_2 N3_2 1_555 1_555
C13_2 N4_2 1_555 1_555

#END
