
#######################################################################
#
#                 Cambridge Crystallographic Data Centre
#                                CCDC 
#
#######################################################################
#
# If this CIF has been generated from an entry in the Cambridge 
# Structural Database, then it will include bibliographic, chemical, 
# crystal, experimental, refinement or atomic coordinate data resulting 
# from the CCDC's data processing and validation procedures.
#
#######################################################################

data_EJIGUA
_symmetry_cell_setting           monoclinic
_symmetry_space_group_name_H-M   'P 21/n'
_symmetry_Int_Tables_number      14
_space_group_name_Hall           '-P 2yn'
loop_
_symmetry_equiv_pos_site_id
_symmetry_equiv_pos_as_xyz
1 x,y,z
2 1/2-x,1/2+y,1/2-z
3 -x,-y,-z
4 1/2+x,1/2-y,1/2+z
_cell_length_a                   13.356(3)
_cell_length_b                   9.4264(17)
_cell_length_c                   13.360(3)
_cell_angle_alpha                90
_cell_angle_beta                 94.057(2)
_cell_angle_gamma                90
_cell_volume                     1677.8
loop_
_atom_site_label
_atom_site_type_symbol
_atom_site_fract_x
_atom_site_fract_y
_atom_site_fract_z
Ag1 Ag 0.62928(2) 0.08552(4) 0.13165(2)
O1 O 0.4142(2) 0.1541(4) 0.4730(2)
O2 O 0.4365(2) 0.1551(3) 0.1340(2)
O3 O 0.2495(3) 0.4903(4) 0.2799(3)
O4 O 0.5797(3) -0.1306(4) 0.0727(3)
H1 H 0.601(4) -0.182(3) 0.109(3)
H2 H 0.602(4) -0.130(2) 0.022(4)
N1 N 0.3305(2) 0.3240(4) 0.3778(3)
N2 N 0.4268(2) 0.1514(4) 0.3032(3)
N3 N 0.3447(3) 0.3268(4) 0.2048(3)
C1 C 0.3928(3) 0.2054(5) 0.3914(3)
C2 C 0.4038(3) 0.2076(4) 0.2093(3)
C3 C 0.3046(3) 0.3872(5) 0.2875(3)
C4 C 0.2883(3) 0.3824(5) 0.4685(3)
H3 H 0.2798 0.4842 0.4614
H4 H 0.3342 0.3647 0.5267
C5 C 0.1890(3) 0.3147(5) 0.4833(3)
H5 H 0.1327 0.3465 0.4448
C6 C 0.1778(4) 0.2099(6) 0.5499(4)
H6 H 0.2331 0.1765 0.5892
H7 H 0.1147 0.1707 0.5567
C7 C 0.4871(3) 0.0200(5) 0.3108(3)
H8 H 0.4641 -0.0437 0.2569
H9 H 0.4763 -0.0266 0.3738
C8 C 0.5969(3) 0.0462(6) 0.3052(3)
H10 H 0.6385 -0.0329 0.305
C9 C 0.6401(3) 0.1720(5) 0.3005(3)
H11 H 0.6013 0.254 0.3005
H12 H 0.7092 0.1786 0.2972
C10 C 0.3296(4) 0.4030(5) 0.1094(4)
H13 H 0.3863 0.3851 0.0697
H14 H 0.3275 0.5041 0.1228
C11 C 0.2355(4) 0.3609(6) 0.0501(4)
H15 H 0.2229 0.4053 -0.0117
C12 C 0.1690(4) 0.2688(6) 0.0752(5)
H16 H 0.1778 0.2213 0.1362
H17 H 0.1126 0.2506 0.0322
Ag1C Ag 0.12928(2) 0.41448(4) 0.63165(2)
C5C C 0.6890(3) 0.1853(5) -0.0167(3)
H5C H 0.6327 0.1535 -0.0552
C6C C 0.6778(4) 0.2901(6) 0.0499(4)
H6C H 0.7331 0.3235 0.0892
H7C H 0.6147 0.3293 0.0567
F1 F 0.5721(7) -0.4245(6) 0.1427(4)
F2 F 0.5083(3) -0.4925(5) 0.2880(4)
F3 F 0.5989(4) -0.2901(4) 0.2780(4)
F4 F 0.6739(3) -0.4981(5) 0.2735(4)
B1 B 0.5832(6) -0.4241(7) 0.2451(6)
loop_
_geom_bond_atom_site_label_1
_geom_bond_atom_site_label_2
_geom_bond_site_symmetry_1
_geom_bond_site_symmetry_2
Ag1 O2 1_555 1_555
F1 B1 1_555 1_555
F2 B1 1_555 1_555
F3 B1 1_555 1_555
F4 B1 1_555 1_555
O1 C1 1_555 1_555
O2 C2 1_555 1_555
O3 C3 1_555 1_555
O4 Ag1 1_555 1_555
H1 O4 1_555 1_555
H2 O4 1_555 1_555
N1 C1 1_555 1_555
N2 C1 1_555 1_555
N3 C2 1_555 1_555
C2 N2 1_555 1_555
C3 N1 1_555 1_555
C4 N1 1_555 1_555
H3 C4 1_555 1_555
H4 C4 1_555 1_555
C5 C4 1_555 1_555
H5 C5 1_555 1_555
C6 C5 1_555 1_555
H6 C6 1_555 1_555
H7 C6 1_555 1_555
C7 N2 1_555 1_555
H8 C7 1_555 1_555
H9 C7 1_555 1_555
C8 Ag1 1_555 1_555
H10 C8 1_555 1_555
C9 Ag1 1_555 1_555
H11 C9 1_555 1_555
H12 C9 1_555 1_555
C10 N3 1_555 1_555
H13 C10 1_555 1_555
H14 C10 1_555 1_555
C11 C10 1_555 1_555
H15 C11 1_555 1_555
C12 C11 1_555 1_555
H16 C12 1_555 1_555
H17 C12 1_555 1_555
Ag1C C5 1_555 1_555
C5C Ag1 1_555 1_555
H5C C5C 1_555 1_555
C6C Ag1 1_555 1_555
H6C C6C 1_555 1_555
H7C C6C 1_555 1_555
N3 C3 1_555 1_555
C6 Ag1C 1_555 1_555
C7 C8 1_555 1_555
C8 C9 1_555 1_555
C5C C6C 1_555 1_555

#END
