
#######################################################################
#
#                 Cambridge Crystallographic Data Centre
#                                CCDC 
#
#######################################################################
#
# If this CIF has been generated from an entry in the Cambridge 
# Structural Database, then it will include bibliographic, chemical, 
# crystal, experimental, refinement or atomic coordinate data resulting 
# from the CCDC's data processing and validation procedures.
#
#######################################################################

data_EJIMUG
_symmetry_cell_setting           monoclinic
_symmetry_space_group_name_H-M   'C 2/c'
_symmetry_Int_Tables_number      15
_space_group_name_Hall           '-C 2yn'
loop_
_symmetry_equiv_pos_site_id
_symmetry_equiv_pos_as_xyz
1 x,y,z
2 -x,y,1/2-z
3 1/2+x,1/2+y,z
4 1/2-x,1/2+y,1/2-z
5 -x,-y,-z
6 x,-y,1/2+z
7 1/2-x,1/2-y,-z
8 1/2+x,1/2-y,1/2+z
_cell_length_a                   39.052(6)
_cell_length_b                   9.8693(13)
_cell_length_c                   26.197(4)
_cell_angle_alpha                90
_cell_angle_beta                 120.120(5)
_cell_angle_gamma                90
_cell_volume                     8733.44
loop_
_atom_site_label
_atom_site_type_symbol
_atom_site_fract_x
_atom_site_fract_y
_atom_site_fract_z
Ag1 Ag 0.01078(2) 0.10004(7) -0.53865(3)
Ag2 Ag 0.14015(2) 0.98072(7) -0.21181(3)
Ag3 Ag 0.31770(3) 1.77625(9) 0.14040(4)
O1 O 0.2125(4) -0.1233(14) -0.2151(6)
O2 O 0.1905(4) 0.0680(15) -0.2717(6)
O3 O 0.0843(2) 0.0680(7) -0.5011(3)
O4 O 0.0657(2) -0.1446(9) -0.5185(4)
N1 N 0.0264(2) 0.2930(7) -0.4891(3)
N2 N 0.1058(2) 0.8341(7) -0.2846(3)
N3 N 0.1732(2) 1.1431(7) -0.1484(3)
N4 N 0.2812(2) 1.6465(8) 0.0660(3)
N5 N -0.0326(2) -0.0361(7) -0.6059(3)
N6 N -0.1522(2) -0.5544(8) -0.8011(4)
C1 C 0.2076(5) -0.0410(16) -0.2506(7)
C2 C 0.2318(3) -0.0841(14) -0.2834(5)
H11 H 0.2412 -0.0033 -0.2936
H12 H 0.2546 -0.1379 -0.2567
C3 C 0.2057(3) -0.1656(12) -0.3392(4)
C4 C 0.2063(3) -0.3086(12) -0.3395(5)
H13 H 0.2227 -0.3558 -0.3050
C5 C 0.1820(3) -0.3791(10) -0.3918(5)
H14 H 0.1824 -0.4734 -0.3916
C6 C 0.1578(3) -0.3117(10) -0.4430(4)
H15 H 0.1421 -0.3602 -0.4775
C7 C 0.1565(2) -0.1707(9) -0.4439(4)
C8 C 0.1807(3) -0.0982(10) -0.3916(4)
H16 H 0.1800 -0.0040 -0.3922
C9 C 0.1305(2) -0.0959(9) -0.4992(4)
H17 H 0.1258 -0.1524 -0.5324
H18 H 0.1444 -0.0154 -0.5003
C10 C 0.0907(3) -0.0535(9) -0.5067(4)
C17 C 0.0086(3) 0.3353(9) -0.4611(4)
H24 H -0.0137 0.2879 -0.4671
C18 C 0.0202(3) 0.4436(8) -0.4236(4)
H25 H 0.0060 0.4684 -0.4053
C19 C 0.0544(2) 0.5178(8) -0.4130(4)
C20 C 0.0730(3) 0.4716(9) -0.4435(4)
H26 H 0.0955 0.5158 -0.4388
C21 C 0.0583(3) 0.3616(9) -0.4804(4)
H27 H 0.0712 0.3335 -0.5003
C22 C 0.0706(2) 0.6326(8) -0.3710(3)
C23 C 0.0565(3) 0.6668(11) -0.3337(4)
H28 H 0.0343 0.6235 -0.3371
C24 C 0.0754(3) 0.7647(10) -0.2917(4)
H29 H 0.0658 0.7829 -0.2664
C25 C 0.1175(3) 0.8105(11) -0.3233(5)
H30 H 0.1378 0.8628 -0.3216
C26 C 0.1007(4) 0.7115(11) -0.3658(5)
H31 H 0.1102 0.6982 -0.3916
C27 C 0.1615(3) 1.1949(12) -0.1133(5)
H32 H 0.1387 1.1596 -0.1156
C28 C 0.1805(3) 1.2960(11) -0.0739(5)
H33 H 0.1703 1.3277 -0.0508
C29 C 0.2147(2) 1.3522(8) -0.0676(3)
C30 C 0.2270(3) 1.2975(14) -0.1031(5)
H34 H 0.2505 1.3276 -0.1003
C31 C 0.2052(3) 1.1975(13) -0.1434(5)
H35 H 0.2139 1.1670 -0.1685
C32 C 0.2363(2) 1.4587(8) -0.0236(4)
C33 C 0.2247(4) 1.5064(14) 0.0141(6)
H36 H 0.2012 1.4755 0.0108
C34 C 0.2471(4) 1.5989(16) 0.0566(6)
H37 H 0.2375 1.6305 0.0805
C35 C 0.2915(3) 1.6041(12) 0.0288(6)
H38 H 0.3147 1.6383 0.0322
C36 C 0.2708(3) 1.5144(12) -0.0144(6)
H39 H 0.2805 1.4892 -0.0390
C37 C -0.0678(3) -0.0676(9) -0.6108(4)
H40 H -0.0750 -0.0245 -0.5861
C38 C -0.0931(3) -0.1595(9) -0.6503(4)
H41 H -0.1171 -0.1772 -0.6524
C39 C -0.0834(3) -0.2270(8) -0.6877(3)
C40 C -0.0477(3) -0.1944(9) -0.6828(4)
H42 H -0.0400 -0.2366 -0.7072
C41 C -0.0232(3) -0.0996(10) -0.6421(4)
H43 H 0.0008 -0.0793 -0.6399
C42 C -0.1082(3) -0.3375(8) -0.7278(4)
C43 C -0.1007(4) -0.3939(11) -0.7689(5)
H44 H -0.0803 -0.3587 -0.7736
C44 C -0.1221(4) -0.5001(12) -0.8031(5)
H45 H -0.1151 -0.5365 -0.8294
C45 C -0.1601(3) -0.5007(12) -0.7623(6)
H46 H -0.1813 -0.5361 -0.7598
C46 C -0.1392(3) -0.3960(12) -0.7252(6)
H47 H -0.1461 -0.3644 -0.6981
Ag3B Ag -0.18230(3) -0.72375(9) -0.85960(4)
N6B N 0.3478(2) 1.9456(8) 0.1989(4)
O5 O 0.11747(19) 0.7733(7) -0.1276(3)
O6 O 0.0909(2) 0.9699(8) -0.1696(3)
C11 C 0.0902(3) 0.8610(10) -0.1470(4)
C12 C 0.0537(3) 0.8245(9) -0.1435(4)
H19 H 0.0611 0.7686 -0.1090
H20 H 0.0413 0.9062 -0.1399
C13 C 0.0249(2) 0.7487(9) -0.1983(4)
C14 C 0.0000 0.8160(12) -0.2500
H21 H 0.0000 0.9102 -0.2500
C15 C 0.0245(3) 0.6074(9) -0.1984(4)
H22 H 0.0407 0.5598 -0.1638
C16 C 0.0000 0.5386(13) -0.2500
H23 H 0.0000 0.4444 -0.2500
O5A O -0.11747(19) 0.7733(7) -0.3724(3)
O6A O -0.0909(2) 0.9699(8) -0.3304(3)
C11A C -0.0902(3) 0.8610(10) -0.3530(4)
C12A C -0.0537(3) 0.8245(9) -0.3565(4)
H19A H -0.0611 0.7686 -0.3910
H20A H -0.0413 0.9062 -0.3601
C13A C -0.0249(2) 0.7487(9) -0.3017(4)
C15A C -0.0245(3) 0.6074(9) -0.3016(4)
H22A H -0.0407 0.5598 -0.3362
O7 O 0.0385(2) 0.8152(7) -0.6956(3)
H1 H 0.0169 0.8152 -0.7261
H2 H 0.0541 0.8789 -0.6828
O8 O 0.0628(2) 0.6485(8) -0.5934(3)
H3 H 0.0560 0.6963 -0.6226
H4 H 0.0637 0.7090 -0.5714
O9 O 0.1211(2) 0.4355(8) -0.5535(3)
H5 H 0.1202 0.3737 -0.5751
H6 H 0.1045 0.4961 -0.5649
O10 O 0.1492(3) 0.7470(9) -0.9579(4)
H7 H 0.1410 0.6936 -0.9856
H8 H 0.1307 0.8007 -0.9701
O11 O 0.1975(5) 0.7565(14) -0.8396(7)
H9 H 0.1831 0.7526 -0.8755
H10 H 0.1955 0.8122 -0.8181
loop_
_geom_bond_atom_site_label_1
_geom_bond_atom_site_label_2
_geom_bond_site_symmetry_1
_geom_bond_site_symmetry_2
Ag1 O3 1_555 1_555
Ag2 N2 1_555 1_555
Ag3 N4 1_555 1_555
O1 C1 1_555 1_555
O2 C1 1_555 1_555
O3 C10 1_555 1_555
O4 C10 1_555 1_555
N1 Ag1 1_555 1_555
N2 C24 1_555 1_555
N3 Ag2 1_555 1_555
N4 C34 1_555 1_555
N5 Ag1 1_555 1_555
N6 C44 1_555 1_555
O5 C11 1_555 1_555
O6 C11 1_555 1_555
O7 H1 1_555 1_555
H2 O7 1_555 1_555
O8 H3 1_555 1_555
H4 O8 1_555 1_555
O9 H5 1_555 1_555
H6 O9 1_555 1_555
O10 H7 1_555 1_555
H8 O10 1_555 1_555
O11 H9 1_555 1_555
H10 O11 1_555 1_555
C1 C2 1_555 1_555
C2 H11 1_555 1_555
H12 C2 1_555 1_555
C3 C2 1_555 1_555
C4 C3 1_555 1_555
H13 C4 1_555 1_555
C5 C4 1_555 1_555
H14 C5 1_555 1_555
C6 C5 1_555 1_555
H15 C6 1_555 1_555
C7 C6 1_555 1_555
C8 C3 1_555 1_555
H16 C8 1_555 1_555
C9 C7 1_555 1_555
H17 C9 1_555 1_555
H18 C9 1_555 1_555
C10 C9 1_555 1_555
C11 C12 1_555 1_555
C12 H19 1_555 1_555
H20 C12 1_555 1_555
C13 C12 1_555 1_555
C14 C13 1_555 1_555
H21 C14 1_555 1_555
C15 C13 1_555 1_555
H22 C15 1_555 1_555
C16 C15 1_555 1_555
H23 C16 1_555 1_555
C17 N1 1_555 1_555
H24 C17 1_555 1_555
C18 C17 1_555 1_555
H25 C18 1_555 1_555
C19 C18 1_555 1_555
C20 C19 1_555 1_555
H26 C20 1_555 1_555
C21 N1 1_555 1_555
H27 C21 1_555 1_555
C22 C19 1_555 1_555
C23 C22 1_555 1_555
H28 C23 1_555 1_555
C24 C23 1_555 1_555
H29 C24 1_555 1_555
C25 N2 1_555 1_555
H30 C25 1_555 1_555
C26 C22 1_555 1_555
H31 C26 1_555 1_555
C27 N3 1_555 1_555
H32 C27 1_555 1_555
C28 C27 1_555 1_555
H33 C28 1_555 1_555
C29 C28 1_555 1_555
C30 C29 1_555 1_555
H34 C30 1_555 1_555
C31 N3 1_555 1_555
H35 C31 1_555 1_555
C32 C29 1_555 1_555
C33 C32 1_555 1_555
H36 C33 1_555 1_555
C34 C33 1_555 1_555
H37 C34 1_555 1_555
C35 N4 1_555 1_555
H38 C35 1_555 1_555
C36 C32 1_555 1_555
H39 C36 1_555 1_555
C37 N5 1_555 1_555
H40 C37 1_555 1_555
C38 C37 1_555 1_555
H41 C38 1_555 1_555
C39 C38 1_555 1_555
C40 C39 1_555 1_555
H42 C40 1_555 1_555
C41 N5 1_555 1_555
H43 C41 1_555 1_555
C42 C39 1_555 1_555
C43 C42 1_555 1_555
H44 C43 1_555 1_555
C44 C43 1_555 1_555
H45 C44 1_555 1_555
C45 N6 1_555 1_555
H46 C45 1_555 1_555
C46 C42 1_555 1_555
H47 C46 1_555 1_555
Ag3B N6 1_555 1_555
N6B Ag3 1_555 1_555
O5A C11A 1_555 1_555
O6A C11A 1_555 1_555
C11A C12A 1_555 1_555
C12A H19A 1_555 1_555
H20A C12A 1_555 1_555
C13A C14 1_555 1_555
C15A C16 1_555 1_555
H22A C15A 1_555 1_555
C7 C8 1_555 1_555
C20 C21 1_555 1_555
C25 C26 1_555 1_555
C30 C31 1_555 1_555
C35 C36 1_555 1_555
C40 C41 1_555 1_555
C45 C46 1_555 1_555
C12A C13A 1_555 1_555
C13A C15A 1_555 1_555

#END
