
#######################################################################
#
#                 Cambridge Crystallographic Data Centre
#                                CCDC 
#
#######################################################################
#
# If this CIF has been generated from an entry in the Cambridge 
# Structural Database, then it will include bibliographic, chemical, 
# crystal, experimental, refinement or atomic coordinate data resulting 
# from the CCDC's data processing and validation procedures.
#
#######################################################################

data_EJINIV
_symmetry_cell_setting           orthorhombic
_symmetry_space_group_name_H-M   'P b c n'
_symmetry_Int_Tables_number      60
_space_group_name_Hall           '-P 2n 2ab'
loop_
_symmetry_equiv_pos_site_id
_symmetry_equiv_pos_as_xyz
1 x,y,z
2 1/2-x,1/2-y,1/2+z
3 1/2+x,1/2-y,-z
4 -x,y,1/2-z
5 -x,-y,-z
6 1/2+x,1/2+y,1/2-z
7 1/2-x,1/2+y,z
8 x,-y,1/2+z
_cell_length_a                   15.745(3)
_cell_length_b                   9.1922(18)
_cell_length_c                   9.4397(19)
_cell_angle_alpha                90
_cell_angle_beta                 90
_cell_angle_gamma                90
_cell_volume                     1366.22
loop_
_atom_site_label
_atom_site_type_symbol
_atom_site_fract_x
_atom_site_fract_y
_atom_site_fract_z
C1 C 0.78017(14) 0.1111(3) 0.1695(2)
C2 C 0.83374(15) 0.1948(3) 0.0852(2)
H1 H 0.8120 0.2425 0.0062
C3 C 0.91930(14) 0.2076(2) 0.1181(2)
C4 C 0.95326(14) 0.1324(3) 0.2345(2)
C5 C 0.89956(15) 0.0467(3) 0.3171(3)
H2 H 0.9217 -0.0051 0.3932
C6 C 0.81304(16) 0.0377(3) 0.2870(3)
H3 H 0.7774 -0.0168 0.3449
C7 C 0.97401(14) 0.3047(2) 0.0298(2)
C8 C 0.68871(14) 0.0952(2) 0.1315(2)
Co1 Co 1.0000 0.45459(5) -0.2500
H4 H 0.6158(10) 0.118(4) -0.023(4)
O1 O 0.96840(11) 0.29820(18) -0.10168(15)
O2 O 0.63619(11) 0.04284(18) 0.2136(2)
O3 O 0.67266(11) 0.1396(2) 0.00351(16)
O4 O 1.02510(10) 0.38969(18) 0.09635(15)
C1C C 1.21983(14) 0.1111(3) 0.3305(2)
C2C C 1.16626(15) 0.1948(3) 0.4148(2)
H1C H 1.1880 0.2425 0.4938
C3C C 1.08070(14) 0.2076(2) 0.3819(2)
C4C C 1.04674(14) 0.1324(3) 0.2655(2)
C5C C 1.10044(15) 0.0467(3) 0.1829(3)
H2C H 1.0783 -0.0051 0.1068
C6C C 1.18696(16) 0.0377(3) 0.2130(3)
H3C H 1.2226 -0.0168 0.1551
C7C C 1.02599(14) 0.3047(2) 0.4702(2)
C8C C 1.31129(14) 0.0952(2) 0.3685(2)
Co1A Co 0.5000 0.04541(5) 0.2500
Co1D Co 1.0000 0.54541(5) 0.2500
Co1A_2 Co 1.5000 0.04541(5) 0.2500
Co1_2 Co 1.0000 0.45459(5) 0.7500
H4C H 1.3842(10) 0.118(4) 0.523(4)
O1C O 1.03160(11) 0.29820(18) 0.60168(15)
O1C_2 O 1.03160(11) 0.29820(18) -0.39832(15)
O2C O 1.36381(11) 0.04284(18) 0.2864(2)
O2A O 0.86381(11) 0.45716(18) -0.2864(2)
O2B O 1.13619(11) 0.45716(18) -0.2136(2)
O3C O 1.32734(11) 0.1396(2) 0.49649(16)
O4C O 0.97490(10) 0.38969(18) 0.40365(15)
O4D O 0.97490(10) 0.61031(18) -0.09635(15)
O4G O 1.02510(10) 0.61031(18) -0.40365(15)
loop_
_geom_bond_atom_site_label_1
_geom_bond_atom_site_label_2
_geom_bond_site_symmetry_1
_geom_bond_site_symmetry_2
C1 C2 1_555 1_555
C2 H1 1_555 1_555
C3 C2 1_555 1_555
C4 C3 1_555 1_555
C5 C4 1_555 1_555
H2 C5 1_555 1_555
C6 C1 1_555 1_555
H3 C6 1_555 1_555
C7 C3 1_555 1_555
C8 C1 1_555 1_555
Co1 O1 1_555 1_555
H4 O3 1_555 1_555
O1 C7 1_555 1_555
O2 C8 1_555 1_555
O3 C8 1_555 1_555
O4 C7 1_555 1_555
C1C C2C 1_555 1_555
C2C H1C 1_555 1_555
C3C C2C 1_555 1_555
C4C C4 1_555 1_555
C5C C4C 1_555 1_555
H2C C5C 1_555 1_555
C6C C1C 1_555 1_555
H3C C6C 1_555 1_555
C7C C3C 1_555 1_555
C8C C1C 1_555 1_555
Co1A O2 1_555 1_555
Co1D O4 1_555 1_555
Co1A_2 O2C 1_555 1_555
Co1_2 O1C 1_555 1_555
H4C O3C 1_555 1_555
O1C C7C 1_555 1_555
O1C_2 Co1 1_555 1_555
O2C C8C 1_555 1_555
O2A Co1 1_555 1_555
O2B Co1 1_555 1_555
O3C C8C 1_555 1_555
O4C C7C 1_555 1_555
O4D Co1 1_555 1_555
O4G Co1 1_555 1_555
C5 C6 1_555 1_555
C3C C4C 1_555 1_555
C5C C6C 1_555 1_555
Co1D O4C 1_555 1_555

#END
