
#######################################################################
#
#                 Cambridge Crystallographic Data Centre
#                                CCDC 
#
#######################################################################
#
# If this CIF has been generated from an entry in the Cambridge 
# Structural Database, then it will include bibliographic, chemical, 
# crystal, experimental, refinement or atomic coordinate data resulting 
# from the CCDC's data processing and validation procedures.
#
#######################################################################

data_EJISOG
_symmetry_cell_setting           monoclinic
_symmetry_space_group_name_H-M   'C 2/c'
_symmetry_Int_Tables_number      15
_space_group_name_Hall           '-C 2yn'
loop_
_symmetry_equiv_pos_site_id
_symmetry_equiv_pos_as_xyz
1 x,y,z
2 -x,y,1/2-z
3 1/2+x,1/2+y,z
4 1/2-x,1/2+y,1/2-z
5 -x,-y,-z
6 x,-y,1/2+z
7 1/2-x,1/2-y,-z
8 1/2+x,1/2-y,1/2+z
_cell_length_a                   31.510(7)
_cell_length_b                   8.534(2)
_cell_length_c                   18.891(4)
_cell_angle_alpha                90
_cell_angle_beta                 122.100(2)
_cell_angle_gamma                90
_cell_volume                     4303.3
loop_
_atom_site_label
_atom_site_type_symbol
_atom_site_fract_x
_atom_site_fract_y
_atom_site_fract_z
Cd1 Cd 0.2500 0.2500 0.5000
Cl1 Cl 0.290529(17) 0.04022(6) 0.45159(3)
O1 O 0.06507(5) 0.6213(2) 0.10623(9)
O2 O 0.08515(5) 0.44819(16) -0.13394(10)
N1 N 0.21700(5) 0.38258(19) 0.37146(9)
N2 N 0.14114(5) 0.5553(2) 0.12626(9)
H1 H 0.1584 0.5575 0.1032
N3 N 0.07575(5) 0.6306(2) -0.00202(9)
H2 H 0.0963 0.6235 -0.0186
N4 N 0.01040(5) 0.43210(19) -0.14413(11)
H3 H -0.0127 0.3719 -0.1481
N5 N 0.05395(6) 0.2078(2) -0.13013(13)
H4 H 0.0266 0.1603 -0.1434
N6 N 0.17722(5) -0.08870(18) -0.05365(10)
C1 C 0.23456(7) 0.3657(3) 0.32105(12)
H5 H 0.2644 0.3113 0.3413
C2 C 0.21086(7) 0.4243(3) 0.24100(12)
H6 H 0.2250 0.4112 0.2089
C3 C 0.16526(6) 0.5039(2) 0.20838(10)
C4 C 0.14748(7) 0.5248(3) 0.26115(11)
H7 H 0.1178 0.5790 0.2430
C5 C 0.17450(7) 0.4639(2) 0.34075(11)
H8 H 0.1623 0.4804 0.3755
C6 C 0.09182(6) 0.6033(2) 0.07823(10)
C7 C 0.02353(7) 0.6722(3) -0.06159(12)
H9 H 0.0205 0.7853 -0.0669
H10 H 0.0030 0.6362 -0.0406
C8 C 0.00439(7) 0.6005(2) -0.14668(11)
H11 H -0.0308 0.6257 -0.1832
H12 H 0.0222 0.6470 -0.1705
C9 C 0.05225(6) 0.3695(2) -0.13558(11)
C10 C 0.09578(6) 0.1155(2) -0.10523(12)
C11 C 0.08900(7) -0.0454(2) -0.11993(15)
H13 H 0.0569 -0.0878 -0.1477
C12 C 0.12987(7) -0.1413(2) -0.09324(14)
H14 H 0.1244 -0.2483 -0.1032
C13 C 0.18327(7) 0.0659(2) -0.04031(13)
H15 H 0.2158 0.1051 -0.0132
C14 C 0.14495(7) 0.1715(2) -0.06367(13)
H16 H 0.1517 0.2777 -0.0520
Cd1C Cd 0.2500 -0.2500 0.0000
Cd1C_2 Cd 0.2500 0.7500 1.0000
Cl1F Cl 0.209471(17) 0.45978(6) 0.54841(3)
O1F O 0.43493(5) -0.1213(2) 0.89377(9)
O2F O 0.41485(5) 0.05181(16) 1.13394(10)
N1F N 0.28300(5) 0.11742(19) 0.62854(9)
N2F N 0.35886(5) -0.0553(2) 0.87374(9)
H1F H 0.3416 -0.0575 0.8968
N3F N 0.42425(5) -0.1306(2) 1.00202(9)
H2F H 0.4037 -0.1235 1.0186
N4F N 0.48960(5) 0.06790(19) 1.14413(11)
H3F H 0.5127 0.1281 1.1481
N5F N 0.44605(6) 0.2922(2) 1.13013(13)
H4F H 0.4734 0.3397 1.1434
N6F N 0.32278(5) 0.58870(18) 1.05365(10)
N6C N 0.32278(5) 0.41130(18) 0.55365(10)
N6E N 0.17722(5) 0.08870(18) 0.44635(10)
C1F C 0.26544(7) 0.1343(3) 0.67895(12)
H5F H 0.2356 0.1887 0.6587
C2F C 0.28914(7) 0.0757(3) 0.75900(12)
H6F H 0.2750 0.0888 0.7911
C3F C 0.33474(6) -0.0039(2) 0.79162(10)
C4F C 0.35252(7) -0.0248(3) 0.73885(11)
H7F H 0.3822 -0.0790 0.7570
C5F C 0.32550(7) 0.0361(2) 0.65925(11)
H8F H 0.3377 0.0196 0.6245
C6F C 0.40818(6) -0.1033(2) 0.92177(10)
C7F C 0.47647(7) -0.1722(3) 1.06159(12)
H9F H 0.4795 -0.2853 1.0669
H10F H 0.4970 -0.1362 1.0406
C8F C 0.49561(7) -0.1005(2) 1.14668(11)
H11F H 0.5308 -0.1257 1.1832
H12F H 0.4778 -0.1470 1.1705
C9F C 0.44775(6) 0.1305(2) 1.13558(11)
C10F C 0.40422(6) 0.3845(2) 1.10523(12)
C11F C 0.41100(7) 0.5454(2) 1.11993(15)
H13F H 0.4431 0.5878 1.1477
C12F C 0.37013(7) 0.6413(2) 1.09324(14)
H14F H 0.3756 0.7483 1.1032
C13F C 0.31673(7) 0.4341(2) 1.04031(13)
H15F H 0.2842 0.3949 1.0132
C14F C 0.35505(7) 0.3285(2) 1.06367(13)
H16F H 0.3483 0.2223 1.0520
O3 O 0.02864(7) -0.0412(3) 0.14494(18)
N7 N 0.10487(8) 0.0023(3) 0.16699(16)
C15 C 0.07179(12) -0.0568(4) 0.1837(3)
H17 H 0.0849 -0.1174 0.2318
C16 C 0.15791(13) -0.0251(6) 0.2289(3)
H18 H 0.1610 -0.0956 0.2710
H19 H 0.1739 0.0726 0.2544
H20 H 0.1737 -0.0702 0.2020
C17 C 0.09038(18) 0.0828(6) 0.0927(3)
H21 H 0.0551 0.0695 0.0539
H22 H 0.1084 0.0418 0.0687
H23 H 0.0978 0.1923 0.1045
loop_
_geom_bond_atom_site_label_1
_geom_bond_atom_site_label_2
_geom_bond_site_symmetry_1
_geom_bond_site_symmetry_2
Cd1 Cl1 1_555 1_555
O1 C6 1_555 1_555
O2 C9 1_555 1_555
O3 C15 1_555 1_555
N1 Cd1 1_555 1_555
N2 H1 1_555 1_555
N3 H2 1_555 1_555
N4 H3 1_555 1_555
N5 H4 1_555 1_555
N6 C12 1_555 1_555
N7 C15 1_555 1_555
C1 N1 1_555 1_555
H5 C1 1_555 1_555
C2 C1 1_555 1_555
H6 C2 1_555 1_555
C3 N2 1_555 1_555
C4 C3 1_555 1_555
H7 C4 1_555 1_555
C5 N1 1_555 1_555
H8 C5 1_555 1_555
C6 N2 1_555 1_555
C7 N3 1_555 1_555
H9 C7 1_555 1_555
H10 C7 1_555 1_555
C8 N4 1_555 1_555
H11 C8 1_555 1_555
H12 C8 1_555 1_555
C9 N4 1_555 1_555
C10 N5 1_555 1_555
C11 C10 1_555 1_555
H13 C11 1_555 1_555
C12 C11 1_555 1_555
H14 C12 1_555 1_555
C13 N6 1_555 1_555
H15 C13 1_555 1_555
C14 C10 1_555 1_555
H16 C14 1_555 1_555
C15 H17 1_555 1_555
C16 N7 1_555 1_555
H18 C16 1_555 1_555
H19 C16 1_555 1_555
H20 C16 1_555 1_555
C17 N7 1_555 1_555
H21 C17 1_555 1_555
H22 C17 1_555 1_555
H23 C17 1_555 1_555
Cd1C N6 1_555 1_555
Cd1C_2 N6F 1_555 1_555
Cl1F Cd1 1_555 1_555
O1F C6F 1_555 1_555
O2F C9F 1_555 1_555
N1F Cd1 1_555 1_555
N2F H1F 1_555 1_555
N3F H2F 1_555 1_555
N4F H3F 1_555 1_555
N5F H4F 1_555 1_555
N6F C12F 1_555 1_555
N6C Cd1 1_555 1_555
N6E Cd1 1_555 1_555
C1F N1F 1_555 1_555
H5F C1F 1_555 1_555
C2F C1F 1_555 1_555
H6F C2F 1_555 1_555
C3F N2F 1_555 1_555
C4F C3F 1_555 1_555
H7F C4F 1_555 1_555
C5F N1F 1_555 1_555
H8F C5F 1_555 1_555
C6F N2F 1_555 1_555
C7F N3F 1_555 1_555
H9F C7F 1_555 1_555
H10F C7F 1_555 1_555
C8F N4F 1_555 1_555
H11F C8F 1_555 1_555
H12F C8F 1_555 1_555
C9F N4F 1_555 1_555
C10F N5F 1_555 1_555
C11F C10F 1_555 1_555
H13F C11F 1_555 1_555
C12F C11F 1_555 1_555
H14F C12F 1_555 1_555
C13F N6F 1_555 1_555
H15F C13F 1_555 1_555
C14F C10F 1_555 1_555
H16F C14F 1_555 1_555
N3 C6 1_555 1_555
N5 C9 1_555 1_555
C2 C3 1_555 1_555
C4 C5 1_555 1_555
C7 C8 1_555 1_555
C13 C14 1_555 1_555
N3F C6F 1_555 1_555
N5F C9F 1_555 1_555
C2F C3F 1_555 1_555
C4F C5F 1_555 1_555
C7F C8F 1_555 1_555
C13F C14F 1_555 1_555

#END
