
#######################################################################
#
#                 Cambridge Crystallographic Data Centre
#                                CCDC 
#
#######################################################################
#
# If this CIF has been generated from an entry in the Cambridge 
# Structural Database, then it will include bibliographic, chemical, 
# crystal, experimental, refinement or atomic coordinate data resulting 
# from the CCDC's data processing and validation procedures.
#
#######################################################################

data_EJISIA
_symmetry_cell_setting           triclinic
_symmetry_space_group_name_H-M   'P -1'
_symmetry_Int_Tables_number      2
_space_group_name_Hall           '-P 1'
loop_
_symmetry_equiv_pos_site_id
_symmetry_equiv_pos_as_xyz
1 x,y,z
2 -x,-y,-z
_cell_length_a                   10.447(2)
_cell_length_b                   10.755(3)
_cell_length_c                   12.474(3)
_cell_angle_alpha                104.330(4)
_cell_angle_beta                 102.140(4)
_cell_angle_gamma                110.924(3)
_cell_volume                     1197.31
loop_
_atom_site_label
_atom_site_type_symbol
_atom_site_fract_x
_atom_site_fract_y
_atom_site_fract_z
Zn1 Zn 0.55567(4) -0.05026(4) 0.71618(3)
O1 O 0.9697(3) 0.7018(2) 0.9579(2)
O2 O -0.1938(2) -0.3815(3) 0.62042(19)
O3 O 0.7517(3) -0.0534(3) 0.7141(3)
O4 O 0.6199(3) -0.0818(3) 0.5458(3)
O5 O 0.5735(2) -0.0534(2) 0.87954(19)
O6 O 0.5300(3) -0.2773(2) 0.7972(2)
N1 N 0.6106(3) 0.1626(3) 0.7557(2)
N2 N 0.7313(3) 0.5980(2) 0.8396(2)
H2 H 0.6605 0.6192 0.8181
N3 N 0.8773(3) 0.8302(3) 0.8769(2)
H3 H 0.8058 0.8268 0.8254
N4 N 0.3397(3) -0.1596(3) 0.6290(2)
N5 N -0.1088(3) -0.3966(3) 0.4648(2)
H4 H -0.1360 -0.4309 0.3895
N6 N -0.3528(3) -0.5076(3) 0.4382(2)
H5 H -0.3664 -0.5300 0.3643
C1 C 0.7497(4) 0.2573(3) 0.8095(3)
H6 H 0.8183 0.2227 0.8268
C2 C 0.7978(3) 0.4016(3) 0.8407(3)
H7 H 0.8959 0.4623 0.8780
C3 C 0.6970(3) 0.4556(3) 0.8154(3)
C4 C 0.5526(3) 0.3581(3) 0.7605(3)
H8 H 0.4814 0.3896 0.7429
C5 C 0.5149(3) 0.2154(3) 0.7323(3)
H9 H 0.4175 0.1522 0.6949
C6 C 0.8686(4) 0.7109(3) 0.8953(3)
C7 C 1.0037(4) 0.9657(3) 0.9409(3)
H10 H 1.0081 1.0284 0.8962
H11 H 1.0911 0.9509 0.9512
C8 C 0.2779(3) -0.2193(3) 0.5119(3)
H12 H 0.3374 -0.2072 0.4657
C9 C 0.1314(3) -0.2971(3) 0.4576(3)
H13 H 0.0940 -0.3368 0.3762
C10 C 0.0378(3) -0.3176(3) 0.5226(3)
C11 C 0.1017(3) -0.2550(3) 0.6446(3)
H14 H 0.0448 -0.2643 0.6929
C12 C 0.2491(3) -0.1802(4) 0.6913(3)
H15 H 0.2896 -0.1404 0.7726
C13 C -0.2186(3) -0.4271(3) 0.5156(3)
C14 C -0.4753(3) -0.5571(3) 0.4794(3)
H16 H -0.4482 -0.5885 0.5435
H17 H -0.5554 -0.6382 0.4165
C15 C 0.7362(4) -0.0656(4) 0.6092(4)
C16 C 0.8567(5) -0.0614(5) 0.5624(5)
H18 H 0.8179 -0.1303 0.4845
H19 H 0.9231 -0.0829 0.6119
H20 H 0.9069 0.0318 0.5606
C17 C 0.5608(3) -0.1729(4) 0.8851(3)
C18 C 0.5844(4) -0.1869(4) 1.0042(3)
H21 H 0.5072 -0.2721 0.9996
H22 H 0.5856 -0.1060 1.0592
H23 H 0.6755 -0.1914 1.0295
Zn1A Zn 1.44433(4) 2.05026(4) 1.28382(3)
Zn1A_2 Zn -1.55567(4) -0.94974(4) 0.28382(3)
O1A O 1.0303(3) 1.2982(2) 1.0421(2)
O2A O -0.8062(2) -0.6185(3) 0.37958(19)
O3A O 1.2483(3) 2.0534(3) 1.2859(3)
O4A O 1.3801(3) 2.0818(3) 1.4542(3)
O5A O 1.4265(2) 2.0534(2) 1.12046(19)
O6A O 1.4700(3) 2.2773(2) 1.2028(2)
N1A N 1.3894(3) 1.8374(3) 1.2443(2)
N2A N 1.2687(3) 1.4020(2) 1.1604(2)
H2A H 1.3395 1.3808 1.1819
N3A N 1.1227(3) 1.1698(3) 1.1231(2)
H3A H 1.1942 1.1732 1.1746
N4A N -1.3397(3) -0.8404(3) 0.3710(2)
N4A_2 N 1.6603(3) 2.1596(3) 1.3710(2)
N5A N -0.8912(3) -0.6034(3) 0.5352(2)
H4A H -0.8640 -0.5691 0.6105
N6A N -0.6472(3) -0.4924(3) 0.5618(2)
H5A H -0.6336 -0.4700 0.6357
C1A C 1.2503(4) 1.7427(3) 1.1905(3)
H6A H 1.1817 1.7773 1.1732
C2A C 1.2022(3) 1.5984(3) 1.1593(3)
H7A H 1.1041 1.5377 1.1220
C3A C 1.3030(3) 1.5444(3) 1.1846(3)
C4A C 1.4474(3) 1.6419(3) 1.2395(3)
H8A H 1.5186 1.6104 1.2571
C5A C 1.4851(3) 1.7846(3) 1.2677(3)
H9A H 1.5825 1.8478 1.3051
C6A C 1.1314(4) 1.2891(3) 1.1047(3)
C7A C 0.9963(4) 1.0343(3) 1.0591(3)
H10A H 0.9919 0.9716 1.1038
H11A H 0.9089 1.0491 1.0488
C8A C -1.2779(3) -0.7807(3) 0.4881(3)
H12A H -1.3374 -0.7928 0.5343
C9A C -1.1314(3) -0.7029(3) 0.5424(3)
H13A H -1.0940 -0.6632 0.6238
C10A C -1.0378(3) -0.6824(3) 0.4774(3)
C11A C -1.1017(3) -0.7450(3) 0.3554(3)
H14A H -1.0448 -0.7357 0.3071
C12A C -1.2491(3) -0.8198(4) 0.3087(3)
H15A H -1.2896 -0.8596 0.2274
C13A C -0.7814(3) -0.5729(3) 0.4844(3)
C14A C -0.5247(3) -0.4429(3) 0.5206(3)
H16A H -0.5518 -0.4115 0.4565
H17A H -0.4446 -0.3618 0.5835
C15A C 1.2638(4) 2.0656(4) 1.3908(4)
C16A C 1.1433(5) 2.0614(5) 1.4376(5)
H18A H 1.1821 2.1303 1.5155
H19A H 1.0769 2.0829 1.3881
H20A H 1.0931 1.9682 1.4394
C17A C 1.4392(3) 2.1729(4) 1.1149(3)
C18A C 1.4156(4) 2.1869(4) 0.9958(3)
H21A H 1.4928 2.2721 1.0004
H22A H 1.4144 2.1060 0.9408
H23A H 1.3245 2.1914 0.9705
O7 O 0.2434(4) 0.7753(4) 0.9354(3)
H27 H 0.298(6) 0.847(6) 0.984(5)
H28 H 0.156(7) 0.739(6) 0.944(5)
O8 O 0.8007(4) 0.4904(3) 0.2159(2)
H1 H 0.7791 0.4103 0.1713
C19 C 0.7870(7) 0.5753(6) 0.1512(5)
H24 H 0.8364 0.6734 0.2017
H25 H 0.6861 0.5509 0.1166
H26 H 0.8290 0.5605 0.0905
loop_
_geom_bond_atom_site_label_1
_geom_bond_atom_site_label_2
_geom_bond_site_symmetry_1
_geom_bond_site_symmetry_2
Zn1 O3 1_555 1_555
O1 C6 1_555 1_555
O2 C13 1_555 1_555
O3 C15 1_555 1_555
O4 Zn1 1_555 1_555
O5 Zn1 1_555 1_555
O6 Zn1 1_555 1_555
O7 H27 1_555 1_555
O8 H1 1_555 1_555
N1 Zn1 1_555 1_555
N2 H2 1_555 1_555
N3 H3 1_555 1_555
N4 Zn1 1_555 1_555
N5 H4 1_555 1_555
N6 H5 1_555 1_555
C1 N1 1_555 1_555
H6 C1 1_555 1_555
C2 C1 1_555 1_555
H7 C2 1_555 1_555
C3 N2 1_555 1_555
C4 C3 1_555 1_555
H8 C4 1_555 1_555
C5 N1 1_555 1_555
H9 C5 1_555 1_555
C6 N2 1_555 1_555
C7 N3 1_555 1_555
H10 C7 1_555 1_555
H11 C7 1_555 1_555
C8 N4 1_555 1_555
H12 C8 1_555 1_555
C9 C8 1_555 1_555
H13 C9 1_555 1_555
C10 N5 1_555 1_555
C11 C10 1_555 1_555
H14 C11 1_555 1_555
C12 N4 1_555 1_555
H15 C12 1_555 1_555
C13 N5 1_555 1_555
C14 N6 1_555 1_555
H16 C14 1_555 1_555
H17 C14 1_555 1_555
C15 O4 1_555 1_555
C16 C15 1_555 1_555
H18 C16 1_555 1_555
H19 C16 1_555 1_555
H20 C16 1_555 1_555
C17 O5 1_555 1_555
C18 C17 1_555 1_555
H21 C18 1_555 1_555
H22 C18 1_555 1_555
H23 C18 1_555 1_555
C19 O8 1_555 1_555
H24 C19 1_555 1_555
H25 C19 1_555 1_555
H26 C19 1_555 1_555
H28 O7 1_555 1_555
Zn1A O3A 1_555 1_555
Zn1A_2 N4A 1_555 1_555
O1A C6A 1_555 1_555
O2A C13A 1_555 1_555
O3A C15A 1_555 1_555
O4A Zn1A 1_555 1_555
O5A Zn1A 1_555 1_555
O6A Zn1A 1_555 1_555
N1A Zn1A 1_555 1_555
N2A H2A 1_555 1_555
N3A H3A 1_555 1_555
N4A C8A 1_555 1_555
N4A_2 Zn1A 1_555 1_555
N5A H4A 1_555 1_555
N6A H5A 1_555 1_555
C1A N1A 1_555 1_555
H6A C1A 1_555 1_555
C2A C1A 1_555 1_555
H7A C2A 1_555 1_555
C3A N2A 1_555 1_555
C4A C3A 1_555 1_555
H8A C4A 1_555 1_555
C5A N1A 1_555 1_555
H9A C5A 1_555 1_555
C6A N2A 1_555 1_555
C7A C7 1_555 1_555
H10A C7A 1_555 1_555
H11A C7A 1_555 1_555
C8A H12A 1_555 1_555
C9A C8A 1_555 1_555
H13A C9A 1_555 1_555
C10A N5A 1_555 1_555
C11A C10A 1_555 1_555
H14A C11A 1_555 1_555
C12A N4A 1_555 1_555
H15A C12A 1_555 1_555
C13A N5A 1_555 1_555
C14A C14 1_555 1_555
H16A C14A 1_555 1_555
H17A C14A 1_555 1_555
C15A O4A 1_555 1_555
C16A C15A 1_555 1_555
H18A C16A 1_555 1_555
H19A C16A 1_555 1_555
H20A C16A 1_555 1_555
C17A O5A 1_555 1_555
C18A C17A 1_555 1_555
H21A C18A 1_555 1_555
H22A C18A 1_555 1_555
H23A C18A 1_555 1_555
O6 C17 1_555 1_555
N3 C6 1_555 1_555
N6 C13 1_555 1_555
C2 C3 1_555 1_555
C4 C5 1_555 1_555
C9 C10 1_555 1_555
C11 C12 1_555 1_555
O6A C17A 1_555 1_555
N3A C6A 1_555 1_555
N3A C7A 1_555 1_555
N6A C13A 1_555 1_555
N6A C14A 1_555 1_555
C2A C3A 1_555 1_555
C4A C5A 1_555 1_555
C9A C10A 1_555 1_555
C11A C12A 1_555 1_555

#END
