
#######################################################################
#
#                 Cambridge Crystallographic Data Centre
#                                CCDC 
#
#######################################################################
#
# If this CIF has been generated from an entry in the Cambridge 
# Structural Database, then it will include bibliographic, chemical, 
# crystal, experimental, refinement or atomic coordinate data resulting 
# from the CCDC's data processing and validation procedures.
#
#######################################################################

data_EJONIB
_symmetry_cell_setting           monoclinic
_symmetry_space_group_name_H-M   'P 21/n'
_symmetry_Int_Tables_number      14
_space_group_name_Hall           '-P 2yn'
loop_
_symmetry_equiv_pos_site_id
_symmetry_equiv_pos_as_xyz
1 x,y,z
2 1/2-x,1/2+y,1/2-z
3 -x,-y,-z
4 1/2+x,1/2-y,1/2+z
_cell_length_a                   12.9037(11)
_cell_length_b                   6.1373(5)
_cell_length_c                   18.3478(16)
_cell_angle_alpha                90
_cell_angle_beta                 98.450(2)
_cell_angle_gamma                90
_cell_volume                     1437.26
loop_
_atom_site_label
_atom_site_type_symbol
_atom_site_fract_x
_atom_site_fract_y
_atom_site_fract_z
U1 U 0.623256(10) 0.42442(2) 0.066482(7)
U2 U 1.5000 0.5000 0.5000
O1 O 0.6445(2) 0.0336(4) 0.07280(15)
O2 O 0.4870(2) 0.2966(4) -0.01749(16)
O3 O 0.5491(2) 0.3904(4) 0.13988(15)
O4 O 0.7072(2) -0.2712(4) 0.12947(15)
O5 O 0.7091(2) 0.4574(5) -0.00071(15)
N1 N 0.8682(2) 0.3741(5) 0.19374(17)
N2 N 0.9304(2) 0.2049(5) 0.22189(16)
C1 C 0.7939(3) 0.0621(6) 0.1602(2)
C2 C 0.8870(3) 0.0098(6) 0.2027(2)
H1 H 0.9139 -0.1280 0.2153
C3 C 0.7106(3) -0.0715(6) 0.1182(2)
C4 C 1.1134(3) 0.1119(6) 0.2658(2)
H2 H 1.1072 -0.0116 0.2361
C5 C 1.0289(3) 0.2537(6) 0.2659(2)
O6 O 1.5344(2) 0.6864(5) 0.43330(15)
O7 O 1.3971(2) 0.2881(5) 0.40031(15)
O8 O 1.3149(2) 0.5448(5) 0.45221(16)
O9 O 1.5904(2) 0.1838(5) 0.45165(16)
C6 C 1.0368(3) 0.4410(6) 0.3085(2)
H3 H 0.9800 0.5350 0.3071
C7 C 1.3136(3) 0.3944(6) 0.4045(2)
C8 C 1.2152(3) 0.3449(7) 0.3543(2)
C9 C 1.1305(3) 0.4863(6) 0.3532(2)
H4 H 1.1368 0.6108 0.3824
C10 C 1.2065(3) 0.1590(7) 0.3106(2)
H5 H 1.2635 0.0657 0.3116
N3 N 0.7851(2) 0.2822(5) 0.15543(17)
H6 H 1.643(3) 0.135(9) 0.474(3)
H7 H 1.555(4) 0.082(7) 0.438(4)
H8 H 0.457(4) 0.182(5) -0.025(3)
U1B U 2.376744(10) 0.57558(2) 0.933518(7)
U1B_2 U 0.376744(10) 0.57558(2) -0.066482(7)
U1_2 U 0.623256(10) -0.57558(2) 0.066482(7)
U1B_3 U 2.376744(10) 1.57558(2) 0.933518(7)
O1B O 2.3555(2) 0.9664(4) 0.92720(15)
O2B O 0.5130(2) 0.7034(4) 0.01749(16)
O2B_2 O 2.5130(2) 0.7034(4) 1.01749(16)
O2_2 O 2.4870(2) 0.2966(4) 0.98251(16)
O3B O 2.4509(2) 0.6096(4) 0.86012(15)
O4B O 2.2928(2) 1.2712(4) 0.87053(15)
O4_2 O 0.7072(2) 0.7288(4) 0.12947(15)
O4B_2 O 2.2928(2) 0.2712(4) 0.87053(15)
O5B O 2.2909(2) 0.5426(5) 1.00071(15)
N1B N 2.1318(2) 0.6259(5) 0.80626(17)
N2B N 2.0696(2) 0.7951(5) 0.77811(16)
C1B C 2.2061(3) 0.9379(6) 0.8398(2)
C2B C 2.1130(3) 0.9902(6) 0.7973(2)
H1B H 2.0861 1.1280 0.7847
C3B C 2.2894(3) 1.0715(6) 0.8818(2)
C4B C 1.8866(3) 0.8881(6) 0.7342(2)
H2B H 1.8928 1.0116 0.7639
C5B C 1.9711(3) 0.7463(6) 0.7341(2)
O6B O 1.4656(2) 0.3136(5) 0.56670(15)
O7B O 1.6029(2) 0.7119(5) 0.59969(15)
O8B O 1.6851(2) 0.4552(5) 0.54779(16)
O9B O 1.4096(2) 0.8162(5) 0.54835(16)
C6B C 1.9632(3) 0.5590(6) 0.6915(2)
H3B H 2.0200 0.4650 0.6929
C7B C 1.6864(3) 0.6056(6) 0.5955(2)
C8B C 1.7848(3) 0.6551(7) 0.6457(2)
C9B C 1.8695(3) 0.5137(6) 0.6468(2)
H4B H 1.8632 0.3892 0.6176
C10B C 1.7935(3) 0.8410(7) 0.6894(2)
H5B H 1.7365 0.9343 0.6884
N3B N 2.2149(2) 0.7178(5) 0.84457(17)
H6B H 1.357(3) 0.865(9) 0.526(3)
H7B H 1.445(4) 0.918(7) 0.562(4)
H8B H 0.543(4) 0.818(5) 0.025(3)
H8B_2 H 2.543(4) 0.818(5) 1.025(3)
H8_2 H 2.457(4) 0.182(5) 0.975(3)
loop_
_geom_bond_atom_site_label_1
_geom_bond_atom_site_label_2
_geom_bond_site_symmetry_1
_geom_bond_site_symmetry_2
U1 O1 1_555 1_555
U2 O6 1_555 1_555
O1 C3 1_555 1_555
O2 U1 1_555 1_555
O3 U1 1_555 1_555
O4 C3 1_555 1_555
O5 U1 1_555 1_555
N1 N2 1_555 1_555
N2 C2 1_555 1_555
C1 C2 1_555 1_555
C2 H1 1_555 1_555
C3 C1 1_555 1_555
C4 H2 1_555 1_555
C5 N2 1_555 1_555
O7 U2 1_555 1_555
O8 U2 1_555 1_555
O9 U2 1_555 1_555
C6 C5 1_555 1_555
H3 C6 1_555 1_555
C7 O7 1_555 1_555
C8 C7 1_555 1_555
C9 C6 1_555 1_555
H4 C9 1_555 1_555
C10 C4 1_555 1_555
H5 C10 1_555 1_555
N3 U1 1_555 1_555
H6 O9 1_555 1_555
H7 O9 1_555 1_555
H8 O2 1_555 1_555
U1B O1B 1_555 1_555
U1B_2 O2 1_555 1_555
U1_2 O4 1_555 1_555
U1B_3 O4B 1_555 1_555
O1B C3B 1_555 1_555
O2B U1 1_555 1_555
O2B_2 U1B 1_555 1_555
O2_2 U1B 1_555 1_555
O3B U1B 1_555 1_555
O4B C3B 1_555 1_555
O4_2 U1 1_555 1_555
O4B_2 U1B 1_555 1_555
O5B U1B 1_555 1_555
N1B N2B 1_555 1_555
N2B C2B 1_555 1_555
C1B C2B 1_555 1_555
C2B H1B 1_555 1_555
C3B C1B 1_555 1_555
C4B H2B 1_555 1_555
C5B N2B 1_555 1_555
O6B U2 1_555 1_555
O7B U2 1_555 1_555
O8B U2 1_555 1_555
O9B U2 1_555 1_555
C6B C5B 1_555 1_555
H3B C6B 1_555 1_555
C7B O7B 1_555 1_555
C8B C7B 1_555 1_555
C9B C6B 1_555 1_555
H4B C9B 1_555 1_555
C10B C4B 1_555 1_555
H5B C10B 1_555 1_555
N3B U1B 1_555 1_555
H6B O9B 1_555 1_555
H7B O9B 1_555 1_555
H8B O2B 1_555 1_555
H8B_2 O2B_2 1_555 1_555
H8_2 O2_2 1_555 1_555
N1 N3 1_555 1_555
C1 N3 1_555 1_555
C4 C5 1_555 1_555
O8 C7 1_555 1_555
C8 C9 1_555 1_555
C8 C10 1_555 1_555
U1B_2 O2B 1_555 1_555
N1B N3B 1_555 1_555
C1B N3B 1_555 1_555
C4B C5B 1_555 1_555
O8B C7B 1_555 1_555
C8B C9B 1_555 1_555
C8B C10B 1_555 1_555

#END
