
#######################################################################
#
#                 Cambridge Crystallographic Data Centre
#                                CCDC 
#
#######################################################################
#
# If this CIF has been generated from an entry in the Cambridge 
# Structural Database, then it will include bibliographic, chemical, 
# crystal, experimental, refinement or atomic coordinate data resulting 
# from the CCDC's data processing and validation procedures.
#
#######################################################################

data_EJONAT
_symmetry_cell_setting           triclinic
_symmetry_space_group_name_H-M   'P -1'
_symmetry_Int_Tables_number      2
_space_group_name_Hall           '-P 1'
loop_
_symmetry_equiv_pos_site_id
_symmetry_equiv_pos_as_xyz
1 x,y,z
2 -x,-y,-z
_cell_length_a                   9.4951(6)
_cell_length_b                   11.3913(7)
_cell_length_c                   12.3599(13)
_cell_angle_alpha                99.2940(10)
_cell_angle_beta                 100.2110(10)
_cell_angle_gamma                113.9990(10)
_cell_volume                     1160.67
loop_
_atom_site_label
_atom_site_type_symbol
_atom_site_fract_x
_atom_site_fract_y
_atom_site_fract_z
Tb1 Tb 0.30969(2) 0.466287(17) 0.095979(14)
Cu1 Cu 0.25839(8) -0.02289(6) 0.59639(5)
S1 S 0.30785(11) 0.23319(9) -0.14678(8)
S2 S 0.21690(12) 0.71298(10) 0.27331(8)
O1 O 0.1838(4) 0.2803(3) 0.1696(2)
O2 O 0.3772(4) 0.4534(3) 0.3007(2)
O3 O 0.2213(4) 0.6045(3) 0.1936(3)
O4 O 0.2400(3) 0.2954(3) -0.0725(2)
O5 O 0.1262(4) 0.7701(3) 0.2135(3)
O6 O 0.3727(4) 0.8091(3) 0.3440(3)
O7 O 0.5220(3) 0.4091(3) 0.1097(2)
O8 O 0.4550(3) 0.3310(3) -0.1638(2)
O9 O 0.1926(4) 0.1480(3) -0.2528(2)
N1 N 0.2473(4) 0.0863(3) 0.4989(3)
N2 N 0.7210(5) 0.1433(4) 0.3216(3)
C1 C -0.1380(5) 0.5573(5) 0.4223(4)
H1 H -0.2399 0.5509 0.4173
C2 C -0.0473(5) 0.6262(4) 0.3578(4)
H2 H -0.0863 0.6685 0.3108
C3 C 0.1040(5) 0.6323(4) 0.3633(3)
C4 C 0.1670(5) 0.5742(4) 0.4343(4)
H3 H 0.2685 0.5807 0.4370
C5 C -0.0774(5) 0.4959(4) 0.4964(3)
C6 C 0.5635(6) 0.2424(5) 0.2427(4)
H4 H 0.4702 0.2526 0.2351
C7 C 0.5905(6) 0.1631(5) 0.3088(4)
H5 H 0.5146 0.1218 0.3461
C8 C 0.8291(6) 0.2060(5) 0.2683(4)
H6 H 0.9211 0.1938 0.2764
C9 C 0.8106(5) 0.2878(4) 0.2021(4)
H7 H 0.8893 0.3302 0.1672
C10 C 0.5016(5) 0.1202(4) -0.0864(3)
H8 H 0.5625 0.1679 -0.1297
C11 C 0.5489(5) 0.0369(4) -0.0324(3)
C12 C 0.6890(5) 0.0240(4) -0.0393(4)
H9 H 0.7541 0.0732 -0.0798
C13 C 0.2686(5) 0.0584(4) -0.0117(4)
H10 H 0.1771 0.0671 -0.0050
C14 C 0.3666(5) 0.1307(4) -0.0750(3)
C15 C 0.3410(5) 0.2179(4) 0.5347(4)
H11 H 0.4003 0.2548 0.6105
C16 C 0.3525(5) 0.3006(4) 0.4634(3)
H12 H 0.4215 0.3911 0.4900
C17 C 0.2601(5) 0.2472(4) 0.3511(3)
C18 C 0.1606(5) 0.1117(4) 0.3149(3)
H13 H 0.0960 0.0731 0.2405
C19 C 0.1585(5) 0.0347(4) 0.3905(4)
H14 H 0.0929 -0.0565 0.3653
C20 C 0.6748(5) 0.3063(4) 0.1878(3)
C21 C 0.6413(5) 0.3876(4) 0.1105(3)
C22 C 0.2742(5) 0.3344(4) 0.2695(4)
O10 O 0.7341(3) 0.4263(3) 0.0480(2)
O11 O 0.0242(3) 0.3745(3) 0.0091(2)
H15 H -0.0192 0.3267 -0.0560
H16 H -0.0401 0.3992 0.0256
Tb1A Tb -0.30969(2) 0.533713(17) 0.904021(14)
Tb1A_2 Tb 0.69031(2) 0.533713(17) -0.095979(14)
Tb1A_3 Tb 0.69031(2) -0.466287(17) -0.095979(14)
Tb1_2 Tb 0.30969(2) -0.533713(17) 0.095979(14)
Cu1A Cu 0.74161(8) 0.02289(6) 0.40361(5)
Cu1_2 Cu 0.25839(8) 0.97711(6) -0.40361(5)
Cu1A_2 Cu -0.25839(8) 1.02289(6) 0.40361(5)
S1A S 0.69215(11) -0.23319(9) 0.14678(8)
S2A S -0.21690(12) 0.28702(10) 0.72669(8)
O1A O -0.1838(4) 0.7197(3) 0.8304(2)
O2A O -0.3772(4) 0.5466(3) 0.6993(2)
O3A O -0.2213(4) 0.3955(3) 0.8064(3)
O4A O 0.7600(3) -0.2954(3) 0.0725(2)
O4A_2 O -0.2400(3) 0.7046(3) 1.0725(2)
O5A O -0.1262(4) 0.2299(3) 0.7865(3)
O6A O -0.3727(4) 0.1909(3) 0.6560(3)
O7A O 0.4780(3) 0.5909(3) -0.1097(2)
O7A_2 O -0.5220(3) 0.5909(3) 0.8903(2)
O8A O 0.5450(3) -0.3310(3) 0.1638(2)
O8A_2 O 0.5450(3) 0.6690(3) 0.1638(2)
O8_2 O -0.5450(3) 0.3310(3) 0.8362(2)
O9A O 0.8074(4) -0.1480(3) 0.2528(2)
N1A N -0.2473(4) 0.9137(3) 0.5011(3)
N1A_2 N 0.7527(4) -0.0863(3) 0.5011(3)
N2A N 0.2790(5) 0.8567(4) -0.3216(3)
N2A_2 N 0.2790(5) -0.1433(4) 0.6784(3)
C1A C 0.1380(5) 0.4427(5) 0.5777(4)
H1A H 0.2399 0.4491 0.5827
C2A C 0.0473(5) 0.3738(4) 0.6422(4)
H2A H 0.0863 0.3315 0.6892
C3A C -0.1040(5) 0.3677(4) 0.6367(3)
C4A C -0.1670(5) 0.4258(4) 0.5657(4)
H3A H -0.2685 0.4193 0.5630
C5A C 0.0774(5) 0.5041(4) 0.5036(3)
C6A C 0.4365(6) 0.7576(5) -0.2427(4)
H4A H 0.5298 0.7474 -0.2351
C7A C 0.4095(6) 0.8369(5) -0.3088(4)
H5A H 0.4854 0.8782 -0.3461
C8A C 0.1709(6) 0.7940(5) -0.2683(4)
H6A H 0.0789 0.8062 -0.2764
C9A C 0.1894(5) 0.7122(4) -0.2021(4)
H7A H 0.1107 0.6698 -0.1672
C10A C 0.4984(5) -0.1202(4) 0.0864(3)
H8A H 0.4375 -0.1679 0.1297
C11A C 0.4511(5) -0.0369(4) 0.0324(3)
C12A C 0.3110(5) -0.0240(4) 0.0393(4)
H9A H 0.2459 -0.0732 0.0798
C13A C 0.7314(5) -0.0584(4) 0.0117(4)
H10A H 0.8229 -0.0671 0.0050
C14A C 0.6334(5) -0.1307(4) 0.0750(3)
C15A C -0.3410(5) 0.7821(4) 0.4653(4)
H11A H -0.4003 0.7452 0.3895
C16A C -0.3525(5) 0.6994(4) 0.5366(3)
H12A H -0.4215 0.6089 0.5100
C17A C -0.2601(5) 0.7528(4) 0.6489(3)
C18A C -0.1606(5) 0.8883(4) 0.6851(3)
H13A H -0.0960 0.9269 0.7595
C19A C -0.1585(5) 0.9653(4) 0.6095(4)
H14A H -0.0929 1.0565 0.6347
C20A C 0.3252(5) 0.6937(4) -0.1878(3)
C21A C 0.3587(5) 0.6124(4) -0.1105(3)
C22A C -0.2742(5) 0.6656(4) 0.7305(4)
O10A O 0.2659(3) 0.5737(3) -0.0480(2)
O10_2 O -0.2659(3) 0.4263(3) 1.0480(2)
O11A O -0.0242(3) 0.6255(3) 0.9909(2)
H15A H 0.0192 0.6733 1.0560
H16A H 0.0401 0.6008 0.9744
loop_
_geom_bond_atom_site_label_1
_geom_bond_atom_site_label_2
_geom_bond_site_symmetry_1
_geom_bond_site_symmetry_2
Tb1 O1 1_555 1_555
Cu1 N1 1_555 1_555
S1 O4 1_555 1_555
S2 O3 1_555 1_555
O1 C22 1_555 1_555
O2 Tb1 1_555 1_555
O3 Tb1 1_555 1_555
O4 Tb1 1_555 1_555
O5 S2 1_555 1_555
O6 S2 1_555 1_555
O7 Tb1 1_555 1_555
O8 S1 1_555 1_555
O9 S1 1_555 1_555
N1 C15 1_555 1_555
N2 C7 1_555 1_555
C1 H1 1_555 1_555
C2 C1 1_555 1_555
H2 C2 1_555 1_555
C3 S2 1_555 1_555
C4 C3 1_555 1_555
H3 C4 1_555 1_555
C5 C1 1_555 1_555
C6 H4 1_555 1_555
C7 C6 1_555 1_555
H5 C7 1_555 1_555
C8 N2 1_555 1_555
H6 C8 1_555 1_555
C9 C8 1_555 1_555
H7 C9 1_555 1_555
C10 H8 1_555 1_555
C11 C10 1_555 1_555
C12 C11 1_555 1_555
H9 C12 1_555 1_555
C13 H10 1_555 1_555
C14 S1 1_555 1_555
C15 H11 1_555 1_555
C16 C15 1_555 1_555
H12 C16 1_555 1_555
C17 C16 1_555 1_555
C18 C17 1_555 1_555
H13 C18 1_555 1_555
C19 N1 1_555 1_555
H14 C19 1_555 1_555
C20 C6 1_555 1_555
C21 O7 1_555 1_555
C22 O2 1_555 1_555
O10 C21 1_555 1_555
O11 Tb1 1_555 1_555
H15 O11 1_555 1_555
H16 O11 1_555 1_555
Tb1A O1A 1_555 1_555
Tb1A_2 O8 1_555 1_555
Tb1A_3 O4A 1_555 1_555
Tb1_2 O8A 1_555 1_555
Cu1A N2 1_555 1_555
Cu1_2 N2A 1_555 1_555
Cu1A_2 N1A 1_555 1_555
S1A O4A 1_555 1_555
S2A O3A 1_555 1_555
O1A C22A 1_555 1_555
O2A Tb1A 1_555 1_555
O3A Tb1A 1_555 1_555
O4A_2 Tb1A 1_555 1_555
O5A S2A 1_555 1_555
O6A S2A 1_555 1_555
O7A Tb1A_2 1_555 1_555
O7A_2 Tb1A 1_555 1_555
O8A S1A 1_555 1_555
O8A_2 Tb1 1_555 1_555
O8_2 Tb1A 1_555 1_555
O9A S1A 1_555 1_555
N1A C15A 1_555 1_555
N1A_2 Cu1A 1_555 1_555
N2A C7A 1_555 1_555
N2A_2 Cu1 1_555 1_555
C1A H1A 1_555 1_555
C2A C1A 1_555 1_555
H2A C2A 1_555 1_555
C3A S2A 1_555 1_555
C4A C5 1_555 1_555
H3A C4A 1_555 1_555
C5A C4 1_555 1_555
C6A H4A 1_555 1_555
C7A C6A 1_555 1_555
H5A C7A 1_555 1_555
C8A N2A 1_555 1_555
H6A C8A 1_555 1_555
C9A C8A 1_555 1_555
H7A C9A 1_555 1_555
C10A H8A 1_555 1_555
C11A C11 1_555 1_555
C12A C13 1_555 1_555
H9A C12A 1_555 1_555
C13A C12 1_555 1_555
H10A C13A 1_555 1_555
C14A S1A 1_555 1_555
C15A H11A 1_555 1_555
C16A C15A 1_555 1_555
H12A C16A 1_555 1_555
C17A C16A 1_555 1_555
C18A C17A 1_555 1_555
H13A C18A 1_555 1_555
C19A N1A 1_555 1_555
H14A C19A 1_555 1_555
C20A C6A 1_555 1_555
C21A O7A 1_555 1_555
C22A O2A 1_555 1_555
O10A Tb1 1_555 1_555
O10_2 Tb1A 1_555 1_555
O11A Tb1A 1_555 1_555
H15A O11A 1_555 1_555
H16A O11A 1_555 1_555
C2 C3 1_555 1_555
C5 C5A 1_555 1_555
C9 C20 1_555 1_555
C10 C14 1_555 1_555
C13 C14 1_555 1_555
C17 C22 1_555 1_555
C18 C19 1_555 1_555
C20 C21 1_555 1_555
O10 Tb1A_2 1_555 1_555
C1A C5A 1_555 1_555
C2A C3A 1_555 1_555
C3A C4A 1_555 1_555
C9A C20A 1_555 1_555
C10A C11A 1_555 1_555
C10A C14A 1_555 1_555
C11A C12A 1_555 1_555
C13A C14A 1_555 1_555
C17A C22A 1_555 1_555
C18A C19A 1_555 1_555
C20A C21A 1_555 1_555
C21A O10A 1_555 1_555

#END
