
#######################################################################
#
#                 Cambridge Crystallographic Data Centre
#                                CCDC 
#
#######################################################################
#
# If this CIF has been generated from an entry in the Cambridge 
# Structural Database, then it will include bibliographic, chemical, 
# crystal, experimental, refinement or atomic coordinate data resulting 
# from the CCDC's data processing and validation procedures.
#
#######################################################################

data_EJOPID
_symmetry_cell_setting           monoclinic
_symmetry_space_group_name_H-M   'P 21/c'
_symmetry_Int_Tables_number      14
_space_group_name_Hall           '-P 2ybc'
loop_
_symmetry_equiv_pos_site_id
_symmetry_equiv_pos_as_xyz
1 x,y,z
2 -x,1/2+y,1/2-z
3 -x,-y,-z
4 x,1/2-y,1/2+z
_cell_length_a                   7.3629(3)
_cell_length_b                   13.9028(6)
_cell_length_c                   11.8372(4)
_cell_angle_alpha                90
_cell_angle_beta                 123.425(2)
_cell_angle_gamma                90
_cell_volume                     1011.31
loop_
_atom_site_label
_atom_site_type_symbol
_atom_site_fract_x
_atom_site_fract_y
_atom_site_fract_z
Cd1 Cd 0.72237(6) 0.04559(3) 0.43314(4)
Cl1 Cl 0.9289(3) -0.00212(14) 0.3225(2)
O1 O 0.4127(6) 0.0853(3) 0.2170(4)
H1 H 0.3509 0.0344 0.1721
H2 H 0.4460 0.1274 0.1793
N1 N 0.5515(7) 0.1216(3) 0.5293(4)
N2 N 0.4349(7) 0.1009(3) 0.5814(4)
N3 N 0.3872(7) 0.1804(3) 0.6198(5)
N4 N 0.4719(7) 0.2555(3) 0.5923(5)
N5 N 0.7833(7) 0.2152(3) 0.4417(4)
N6 N 0.7897(9) 0.4145(3) 0.4320(6)
C1 C 0.5703(8) 0.2169(3) 0.5370(5)
C2 C 0.6841(8) 0.2694(4) 0.4861(5)
C3 C 0.8920(9) 0.2612(4) 0.3972(6)
H3 H 0.9672 0.2259 0.3687
C4 C 0.8940(9) 0.3603(4) 0.3930(6)
H4 H 0.9710 0.3903 0.3616
C5 C 0.6864(10) 0.3686(4) 0.4800(6)
H5 H 0.6141 0.4043 0.5101
Cd1B Cd 1.27763(6) -0.04559(3) 0.56686(4)
Cd1B_2 Cd 0.27763(6) -0.04559(3) 0.56686(4)
Cl1B Cl 1.0711(3) 0.00212(14) 0.6775(2)
N2B N 0.5651(7) -0.1009(3) 0.4186(4)
O2 O 0.1489(9) 0.2615(4) 0.7507(5)
H6 H 0.2371 0.3044 0.7580
H7 H 0.2038 0.2107 0.7974
loop_
_geom_bond_atom_site_label_1
_geom_bond_atom_site_label_2
_geom_bond_site_symmetry_1
_geom_bond_site_symmetry_2
Cd1 Cl1 1_555 1_555
Cl1 Cd1B 1_555 1_555
O1 Cd1 1_555 1_555
H1 O1 1_555 1_555
H2 O1 1_555 1_555
N1 Cd1 1_555 1_555
N2 N1 1_555 1_555
N3 N2 1_555 1_555
N4 N3 1_555 1_555
N5 Cd1 1_555 1_555
N6 C4 1_555 1_555
C1 N1 1_555 1_555
C2 N5 1_555 1_555
C3 N5 1_555 1_555
H3 C3 1_555 1_555
C4 C3 1_555 1_555
H4 C4 1_555 1_555
C5 N6 1_555 1_555
H5 C5 1_555 1_555
O2 H6 1_555 1_555
H7 O2 1_555 1_555
Cd1B Cl1B 1_555 1_555
Cd1B_2 N2 1_555 1_555
Cl1B Cd1 1_555 1_555
N2B Cd1 1_555 1_555
N4 C1 1_555 1_555
C1 C2 1_555 1_555
C2 C5 1_555 1_555

#END
