
#######################################################################
#
#                 Cambridge Crystallographic Data Centre
#                                CCDC 
#
#######################################################################
#
# If this CIF has been generated from an entry in the Cambridge 
# Structural Database, then it will include bibliographic, chemical, 
# crystal, experimental, refinement or atomic coordinate data resulting 
# from the CCDC's data processing and validation procedures.
#
#######################################################################

data_EJOZAE
_symmetry_cell_setting           monoclinic
_symmetry_space_group_name_H-M   'C 2'
_symmetry_Int_Tables_number      5
_space_group_name_Hall           'C 2y'
loop_
_symmetry_equiv_pos_site_id
_symmetry_equiv_pos_as_xyz
1 x,y,z
2 -x,y,-z
3 1/2+x,1/2+y,z
4 1/2-x,1/2+y,-z
_cell_length_a                   16.802(2)
_cell_length_b                   6.8884(4)
_cell_length_c                   7.4787(11)
_cell_angle_alpha                90
_cell_angle_beta                 115.119(10)
_cell_angle_gamma                90
_cell_volume                     783.717
loop_
_atom_site_label
_atom_site_type_symbol
_atom_site_fract_x
_atom_site_fract_y
_atom_site_fract_z
Co1 Co 0.30508(5) 0.12847(16) 0.30216(10)
C1 C 0.1712(5) -0.1284(12) 0.3490(11)
C2 C 0.1181(5) -0.1126(14) 0.1255(11)
H1 H 0.0730 -0.2120 0.0837
H2 H 0.0887 0.0123 0.0962
C3 C 0.1707(5) -0.1330(12) 0.0027(11)
O1 O 0.2449(4) -0.0477(11) 0.4345(8)
O2 O 0.2443(4) -0.0542(12) 0.0582(8)
O3 O 0.1349(4) -0.2237(11) 0.4369(9)
O4 O 0.1342(4) -0.2312(10) -0.1519(9)
C4 C 0.5000 0.030(2) 0.5000
H3 H 0.5000 0.1652 0.5000
C5 C 0.4230(6) -0.2513(14) 0.422(2)
H4 H 0.3700 -0.3188 0.3688
C6 C 0.5000 -0.351(2) 0.5000
H5 H 0.5000 -0.4858 0.5000
N1 N 0.4226(4) -0.0575(10) 0.4199(9)
O5 O 0.1934(3) 0.3159(12) 0.1938(7)
C5A C 0.5770(6) -0.2513(14) 0.578(2)
H4A H 0.6300 -0.3188 0.6312
N1A N 0.5774(4) -0.0575(10) 0.5801(9)
C1C C 0.3288(5) 0.3716(12) 0.6510(11)
C2C C 0.3819(5) 0.3874(14) 0.8745(11)
H1C H 0.4270 0.2880 0.9163
H2C H 0.4113 0.5123 0.9038
C3C C 0.3293(5) 0.3670(12) 0.9973(11)
O1C O 0.2551(4) 0.4523(11) 0.5655(8)
O2C O 0.2557(4) 0.4458(12) 0.9418(8)
O3C O 0.3651(4) 0.2763(11) 0.5631(9)
O4C O 0.3658(4) 0.2688(10) 1.1519(9)
Co1C Co 0.19492(5) 0.62847(16) 0.69784(10)
O5C O 0.3066(3) 0.8159(12) 0.8062(7)
O4C_2 O 0.3658(4) 0.2688(10) 0.1519(9)
Co1C_2 Co 0.19492(5) -0.37153(16) 0.69784(10)
Co1C_3 Co 0.19492(5) -0.37153(16) -0.30216(10)
Co1A Co 0.69492(5) 0.12847(16) 0.69784(10)
Co1_2 Co 0.30508(5) 0.12847(16) 1.30216(10)
O3_2 O 0.1349(4) 0.7763(11) 0.4369(9)
O4_2 O 0.1342(4) 0.7688(10) 0.8481(9)
N1C N 0.0774(4) 0.4425(10) 0.5801(9)
loop_
_geom_bond_atom_site_label_1
_geom_bond_atom_site_label_2
_geom_bond_site_symmetry_1
_geom_bond_site_symmetry_2
Co1 O1 1_555 1_555
C1 C2 1_555 1_555
C2 H1 1_555 1_555
H2 C2 1_555 1_555
C3 C2 1_555 1_555
O1 C1 1_555 1_555
O2 Co1 1_555 1_555
O3 C1 1_555 1_555
O4 C3 1_555 1_555
C4 H3 1_555 1_555
C5 H4 1_555 1_555
C6 C5 1_555 1_555
H5 C6 1_555 1_555
N1 Co1 1_555 1_555
O5 Co1 1_555 1_555
C5A C6 1_555 1_555
H4A C5A 1_555 1_555
N1A C4 1_555 1_555
C1C C2C 1_555 1_555
C2C H1C 1_555 1_555
H2C C2C 1_555 1_555
C3C C2C 1_555 1_555
O1C C1C 1_555 1_555
O2C C3C 1_555 1_555
O3C Co1 1_555 1_555
O4C C3C 1_555 1_555
Co1C O1C 1_555 1_555
O5C Co1C 1_555 1_555
O4C_2 Co1 1_555 1_555
Co1C_2 O3 1_555 1_555
Co1C_3 O4 1_555 1_555
Co1A N1A 1_555 1_555
Co1_2 O4C 1_555 1_555
O3_2 Co1C 1_555 1_555
O4_2 Co1C 1_555 1_555
N1C Co1C 1_555 1_555
C3 O2 1_555 1_555
C4 N1 1_555 1_555
C5 N1 1_555 1_555
C5A N1A 1_555 1_555
C1C O3C 1_555 1_555
O2C Co1C 1_555 1_555

#END
