
#######################################################################
#
#                 Cambridge Crystallographic Data Centre
#                                CCDC 
#
#######################################################################
#
# If this CIF has been generated from an entry in the Cambridge 
# Structural Database, then it will include bibliographic, chemical, 
# crystal, experimental, refinement or atomic coordinate data resulting 
# from the CCDC's data processing and validation procedures.
#
#######################################################################

data_EJULOL
_symmetry_cell_setting           monoclinic
_symmetry_space_group_name_H-M   'P 21/c'
_symmetry_Int_Tables_number      14
_space_group_name_Hall           '-P 2ybc'
loop_
_symmetry_equiv_pos_site_id
_symmetry_equiv_pos_as_xyz
1 x,y,z
2 -x,1/2+y,1/2-z
3 -x,-y,-z
4 x,1/2-y,1/2+z
_cell_length_a                   10.4063(10)
_cell_length_b                   13.1997(13)
_cell_length_c                   20.244(2)
_cell_angle_alpha                90
_cell_angle_beta                 102.695(5)
_cell_angle_gamma                90
_cell_volume                     2712.74
loop_
_atom_site_label
_atom_site_type_symbol
_atom_site_fract_x
_atom_site_fract_y
_atom_site_fract_z
Eu1 Eu 0.44814(2) 0.351010(16) 0.241549(11)
Eu2 Eu 0.31183(2) 0.225661(17) 0.415004(11)
O1 O 0.6762(3) 0.3602(3) 0.24508(17)
O2 O 0.8815(3) 0.3014(3) 0.27867(18)
O3 O 0.4748(3) 0.1676(3) 0.50856(16)
N1 N 0.6049(4) 0.2797(3) 0.35198(19)
N2 N 0.5640(4) 0.2403(3) 0.40470(18)
C1 C 0.7309(4) 0.2694(4) 0.3485(2)
C2 C 0.8218(5) 0.2178(4) 0.3971(3)
H1 H 0.9090 0.2112 0.3934
C3 C 0.7801(5) 0.1772(4) 0.4501(3)
H2 H 0.8375 0.1418 0.4840
C4 C 0.7656(5) 0.3150(4) 0.2852(3)
C5 C 0.6490(5) 0.1904(4) 0.4521(2)
O4 O 0.3999(3) 0.3861(3) 0.12382(16)
O5 O 0.5067(4) 0.5286(2) 0.24427(17)
O6 O 0.2459(3) 0.4368(3) 0.22230(18)
C6 C 0.0500(5) 0.5263(4) 0.2002(3)
C7 C 0.1600(5) 0.4719(4) 0.1762(3)
O7 O 0.1580(4) 0.4703(4) 0.1150(2)
O8 O 0.1088(3) 0.3292(3) 0.37725(19)
O9 O 0.2954(4) 0.3325(3) 0.50546(17)
O10 O 0.1756(4) 0.1294(3) 0.47442(18)
O11 O 0.4815(4) 0.6860(2) 0.27889(18)
O12 O 0.2775(5) 0.4834(3) 0.5521(2)
C8 C 0.3022(5) 0.4276(4) 0.5078(3)
C9 C 0.3453(5) 0.4788(4) 0.4489(3)
C10 C 0.4289(5) 0.5552(3) 0.3445(2)
C11 C 0.4775(5) 0.5930(3) 0.2837(2)
N3 N 0.3774(4) 0.4165(3) 0.40313(18)
N4 N 0.4196(4) 0.4554(3) 0.35063(19)
N5 N -0.0399(4) 0.5737(3) 0.1531(2)
N6 N -0.1311(4) 0.6295(3) 0.1731(2)
C12 C -0.1342(5) 0.6370(4) 0.2382(2)
O13 O 0.3943(3) 0.0628(2) 0.37979(18)
C13 C 0.3924(6) 0.6227(4) 0.3901(3)
H3 H 0.3972 0.6924 0.3842
C14 C 0.3496(6) 0.5828(4) 0.4436(3)
H4 H 0.3240 0.6245 0.4754
C15 C 0.0465(5) 0.5287(4) 0.2687(3)
H5 H 0.1073 0.4921 0.3003
C16 C -0.0483(5) 0.5860(4) 0.2884(3)
H6 H -0.0541 0.5901 0.3335
C17 C -0.2385(5) 0.7075(4) 0.2520(2)
O14 O -0.2490(3) 0.7246(3) 0.31004(17)
O15 O 0.6698(4) 0.1023(3) 0.55497(19)
C18 C 0.5945(5) 0.1485(4) 0.5102(2)
O16 O -0.3133(3) 0.7491(2) 0.20019(15)
Eu1A Eu 0.55186(2) 0.851010(16) 0.258451(11)
Eu1A_2 Eu -0.44814(2) 0.851010(16) 0.258451(11)
Eu2A Eu -0.31183(2) 0.725661(17) 0.084996(11)
O11A O 0.5185(4) 0.1860(2) 0.22111(18)
N6A N 0.1311(4) 0.1295(3) 0.3269(2)
O14A O 0.2490(3) 0.2246(3) 0.18996(17)
O16A O 0.3133(3) 0.2491(2) 0.29981(15)
O17 O 0.0644(5) 0.2575(4) 0.5599(2)
O18 O 0.9744(6) 0.4105(6) 0.4610(4)
O19 O 0.8956(5) 0.3060(5) 0.1410(3)
loop_
_geom_bond_atom_site_label_1
_geom_bond_atom_site_label_2
_geom_bond_site_symmetry_1
_geom_bond_site_symmetry_2
Eu1 O1 1_555 1_555
Eu2 O3 1_555 1_555
O1 C4 1_555 1_555
O2 C4 1_555 1_555
O3 C18 1_555 1_555
N1 Eu1 1_555 1_555
N2 Eu2 1_555 1_555
C1 N1 1_555 1_555
C2 C1 1_555 1_555
H1 C2 1_555 1_555
C3 C2 1_555 1_555
H2 C3 1_555 1_555
C4 C1 1_555 1_555
C5 N2 1_555 1_555
O4 Eu1 1_555 1_555
O5 Eu1 1_555 1_555
O6 Eu1 1_555 1_555
C6 C7 1_555 1_555
C7 O6 1_555 1_555
O7 C7 1_555 1_555
O8 Eu2 1_555 1_555
O9 Eu2 1_555 1_555
O10 Eu2 1_555 1_555
O11 C11 1_555 1_555
O12 C8 1_555 1_555
C8 O9 1_555 1_555
C9 C8 1_555 1_555
C10 C11 1_555 1_555
C11 O5 1_555 1_555
N3 Eu2 1_555 1_555
N4 Eu1 1_555 1_555
N5 C6 1_555 1_555
N6 N5 1_555 1_555
C12 N6 1_555 1_555
O13 Eu2 1_555 1_555
C13 C10 1_555 1_555
H3 C13 1_555 1_555
C14 C9 1_555 1_555
H4 C14 1_555 1_555
C15 C6 1_555 1_555
H5 C15 1_555 1_555
C16 C12 1_555 1_555
H6 C16 1_555 1_555
C17 C12 1_555 1_555
O14 C17 1_555 1_555
O15 C18 1_555 1_555
C18 C5 1_555 1_555
O16 C17 1_555 1_555
Eu1A O11 1_555 1_555
Eu1A_2 O14 1_555 1_555
Eu2A N6 1_555 1_555
O11A Eu1 1_555 1_555
N6A Eu2 1_555 1_555
O14A Eu1 1_555 1_555
O16A Eu1 1_555 1_555
Eu2 O16A 1_555 1_555
N1 N2 1_555 1_555
C3 C5 1_555 1_555
C9 N3 1_555 1_555
C10 N4 1_555 1_555
N3 N4 1_555 1_555
C13 C14 1_555 1_555
C15 C16 1_555 1_555
O16 Eu1A_2 1_555 1_555
O16 Eu2A 1_555 1_555

#END
