
#######################################################################
#
#                 Cambridge Crystallographic Data Centre
#                                CCDC 
#
#######################################################################
#
# If this CIF has been generated from an entry in the Cambridge 
# Structural Database, then it will include bibliographic, chemical, 
# crystal, experimental, refinement or atomic coordinate data resulting 
# from the CCDC's data processing and validation procedures.
#
#######################################################################

data_EJUQAC
_symmetry_cell_setting           monoclinic
_symmetry_space_group_name_H-M   'C c'
_symmetry_Int_Tables_number      9
_space_group_name_Hall           'C -2yc'
loop_
_symmetry_equiv_pos_site_id
_symmetry_equiv_pos_as_xyz
1 x,y,z
2 x,-y,1/2+z
3 1/2+x,1/2+y,z
4 1/2+x,1/2-y,1/2+z
_cell_length_a                   14.0039(5)
_cell_length_b                   28.8677(11)
_cell_length_c                   13.6293(5)
_cell_angle_alpha                90
_cell_angle_beta                 118.5460(10)
_cell_angle_gamma                90
_cell_volume                     4839.98
loop_
_atom_site_label
_atom_site_type_symbol
_atom_site_fract_x
_atom_site_fract_y
_atom_site_fract_z
C1 C 1.3252(3) 0.12627(15) 0.9805(4)
C2 C 1.2278(3) 0.11631(16) 0.8839(4)
C3 C 1.2121(4) 0.1317(2) 0.7816(4)
H1 H 1.1477 0.1248 0.7174
C4 C 1.2924(5) 0.1576(2) 0.7737(5)
H2 H 1.2827 0.1669 0.7042
C5 C 1.3862(4) 0.16930(18) 0.8695(5)
H3 H 1.4381 0.1881 0.8655
C6 C 1.4019(3) 0.15295(16) 0.9706(4)
C7 C 1.3473(3) 0.10818(16) 1.0935(4)
C8 C 1.1322(4) 0.09526(16) 0.8915(4)
C9 C 1.5065(4) 0.20042(15) 1.1310(4)
C10 C 1.6079(4) 0.21097(17) 1.2165(4)
H4 H 1.6689 0.1955 1.2227
C11 C 1.6187(4) 0.24449(17) 1.2928(4)
H5 H 1.6871 0.2514 1.3513
C12 C 1.5276(4) 0.26818(15) 1.2831(4)
C13 C 1.4285(4) 0.25868(15) 1.1952(4)
H6 H 1.3680 0.2748 1.1878
C14 C 1.4158(3) 0.22565(15) 1.1165(4)
H7 H 1.3480 0.2203 1.0551
C15 C 1.5383(4) 0.30100(15) 1.3740(4)
C16 C 1.1248(3) 0.13222(14) 1.3548(4)
C17 C 1.0212(3) 0.13947(14) 1.2636(4)
C18 C 0.9470(4) 0.16595(15) 1.2811(4)
C19 C 0.9747(4) 0.18459(17) 1.3845(4)
H8 H 0.9243 0.2023 1.3943
C20 C 1.0768(5) 0.17707(18) 1.4735(4)
H9 H 1.0954 0.1896 1.5432
C21 C 1.1507(4) 0.15090(18) 1.4583(4)
H10 H 1.2192 0.1456 1.5185
C22 C 1.2103(4) 0.10557(15) 1.3411(4)
C23 C 0.9851(3) 0.11836(15) 1.1497(4)
C24 C 0.8173(4) 0.19851(15) 1.1054(4)
C25 C 0.7132(4) 0.19363(15) 1.0161(4)
H11 H 0.6630 0.1740 1.0212
C26 C 0.6858(4) 0.21843(16) 0.9199(4)
H12 H 0.6163 0.2155 0.8596
C27 C 0.7595(4) 0.24751(16) 0.9112(4)
C28 C 0.8610(4) 0.25316(15) 1.0037(4)
H13 H 0.9103 0.2736 0.9996
C29 C 0.8907(4) 0.22916(17) 1.1018(4)
H14 H 0.9586 0.2336 1.1637
C30 C 1.5393(4) 0.15086(17) 1.4143(5)
H15 H 1.4794 0.1699 1.3746
C31 C 1.6411(5) 0.17150(17) 1.4834(5)
H16 H 1.6471 0.2035 1.4920
C32 C 1.7291(4) 0.14440(18) 1.5366(5)
H17 H 1.7970 0.1578 1.5799
C33 C 1.7193(4) 0.09557(16) 1.5273(4)
C34 C 1.8091(4) 0.06491(18) 1.5836(4)
H18 H 1.8784 0.0771 1.6267
C35 C 1.7956(4) 0.01901(19) 1.5754(4)
H19 H 1.8557 -0.0002 1.6118
C36 C 1.6895(4) -0.00109(16) 1.5112(4)
C37 C 1.6717(4) -0.04901(17) 1.5031(5)
H20 H 1.7299 -0.0694 1.5377
C38 C 1.5683(5) -0.06553(17) 1.4439(5)
H21 H 1.5552 -0.0972 1.4393
C39 C 1.4829(4) -0.03469(17) 1.3909(5)
H22 H 1.4128 -0.0464 1.3506
C40 C 1.5987(3) 0.02797(15) 1.4537(4)
C41 C 1.6140(3) 0.07769(15) 1.4606(4)
C42 C 0.9655(5) -0.01126(17) 0.9253(5)
H23 H 1.0396 -0.0063 0.9700
C43 C 0.9279(5) -0.05675(18) 0.8987(5)
H24 H 0.9763 -0.0814 0.9257
C44 C 0.8203(5) -0.06464(19) 0.8334(5)
H25 H 0.7946 -0.0948 0.8146
C45 C 0.7475(4) -0.02712(17) 0.7942(4)
C46 C 0.6333(5) -0.0322(2) 0.7254(5)
H26 H 0.6035 -0.0617 0.7070
C47 C 0.5675(5) 0.0049(2) 0.6865(5)
H27 H 0.4930 0.0006 0.6428
C48 C 0.6100(4) 0.0505(2) 0.7110(4)
C49 C 0.5450(4) 0.0916(2) 0.6691(5)
H28 H 0.4703 0.0891 0.6236
C50 C 0.5921(5) 0.1338(2) 0.6956(5)
H29 H 0.5505 0.1605 0.6680
C51 C 0.7030(5) 0.13671(19) 0.7644(5)
H30 H 0.7346 0.1660 0.7822
C52 C 0.7222(4) 0.05763(16) 0.7813(4)
C53 C 0.7922(4) 0.01776(16) 0.8231(4)
C54 C 0.7308(4) 0.27280(16) 0.8044(4)
N1 N 1.5258(3) 0.10519(12) 1.4036(3)
N2 N 1.4971(3) 0.01143(12) 1.3952(3)
N3 N 0.8997(3) 0.02507(13) 0.8892(3)
N4 N 0.7671(3) 0.09992(13) 0.8066(3)
O1 O 1.3765(3) 0.06661(11) 1.1178(3)
O2 O 1.3381(2) 0.13481(11) 1.1609(3)
O3 O 1.1352(3) 0.09600(11) 0.9852(3)
O4 O 1.0523(3) 0.08170(14) 0.8052(3)
O5 O 1.5009(3) 0.16299(11) 1.0656(3)
O6 O 1.6245(3) 0.29763(11) 1.4664(3)
O7 O 1.4606(3) 0.32814(11) 1.3510(3)
O8 O 1.2916(3) 0.08951(13) 1.4247(3)
O9 O 1.1983(3) 0.10132(10) 1.2432(3)
O10 O 1.0024(3) 0.14168(11) 1.0812(3)
O11 O 0.9385(3) 0.08034(13) 1.1269(3)
O12 O 0.8402(3) 0.17040(12) 1.1971(3)
O13 O 0.6465(3) 0.26221(14) 0.7172(3)
O14 O 0.7921(3) 0.30462(12) 0.8052(3)
O15 O 1.2612(3) 0.00135(14) 1.2233(4)
H31 H 1.1982 -0.0013 1.2171
H32 H 1.2595 0.0205 1.1741
Cd1 Cd 1.36399(2) 0.067416(11) 1.28883(3)
Cd2 Cd 0.95173(2) 0.101566(11) 0.92261(2)
Cd3 Cd 1.17527(2) 0.168610(10) 1.12831(2)
O6C O 1.1245(3) 0.20237(11) 0.9664(3)
O7C O 0.9606(3) 0.17186(11) 0.8510(3)
O13C O 1.1465(3) 0.23779(14) 1.2172(3)
O14C O 1.2921(3) 0.19538(12) 1.3052(3)
Cd2C Cd 1.45173(2) 0.398434(11) 1.42261(2)
Cd3C Cd 1.67527(2) 0.331390(10) 1.62831(2)
Cd3C_2 Cd 0.67527(2) 0.331390(10) 0.62831(2)
O16 O 1.2464(6) -0.0145(2) 1.0218(7)
H33 H 1.2761 -0.0395 1.0171
H34 H 1.2930 0.0073 1.0440
O17 O 1.0758(5) 0.0035(2) 1.2281(8)
H35 H 1.0712 -0.0183 1.2684
H36 H 1.0782 -0.0087 1.1732
loop_
_geom_bond_atom_site_label_1
_geom_bond_atom_site_label_2
_geom_bond_site_symmetry_1
_geom_bond_site_symmetry_2
C1 C2 1_555 1_555
C2 C3 1_555 1_555
C3 H1 1_555 1_555
C4 C3 1_555 1_555
H2 C4 1_555 1_555
C5 C4 1_555 1_555
H3 C5 1_555 1_555
C6 C1 1_555 1_555
C7 C1 1_555 1_555
C8 C2 1_555 1_555
C9 C10 1_555 1_555
C10 H4 1_555 1_555
C11 C10 1_555 1_555
H5 C11 1_555 1_555
C12 C11 1_555 1_555
C13 C12 1_555 1_555
H6 C13 1_555 1_555
C14 C9 1_555 1_555
H7 C14 1_555 1_555
C15 C12 1_555 1_555
C16 C17 1_555 1_555
C17 C18 1_555 1_555
C18 C19 1_555 1_555
C19 H8 1_555 1_555
C20 C19 1_555 1_555
H9 C20 1_555 1_555
C21 C16 1_555 1_555
H10 C21 1_555 1_555
C22 C16 1_555 1_555
C23 C17 1_555 1_555
C24 C25 1_555 1_555
C25 H11 1_555 1_555
C26 C25 1_555 1_555
H12 C26 1_555 1_555
C27 C26 1_555 1_555
C28 C27 1_555 1_555
H13 C28 1_555 1_555
C29 C24 1_555 1_555
H14 C29 1_555 1_555
C30 H15 1_555 1_555
C31 C30 1_555 1_555
H16 C31 1_555 1_555
C32 C31 1_555 1_555
H17 C32 1_555 1_555
C33 C32 1_555 1_555
C34 C33 1_555 1_555
H18 C34 1_555 1_555
C35 C34 1_555 1_555
H19 C35 1_555 1_555
C36 C35 1_555 1_555
C37 C36 1_555 1_555
H20 C37 1_555 1_555
C38 C37 1_555 1_555
H21 C38 1_555 1_555
C39 C38 1_555 1_555
H22 C39 1_555 1_555
C40 C36 1_555 1_555
C41 C33 1_555 1_555
C42 H23 1_555 1_555
C43 C42 1_555 1_555
H24 C43 1_555 1_555
C44 C43 1_555 1_555
H25 C44 1_555 1_555
C45 C44 1_555 1_555
C46 C45 1_555 1_555
H26 C46 1_555 1_555
C47 C46 1_555 1_555
H27 C47 1_555 1_555
C48 C47 1_555 1_555
C49 C48 1_555 1_555
H28 C49 1_555 1_555
C50 C49 1_555 1_555
H29 C50 1_555 1_555
C51 C50 1_555 1_555
H30 C51 1_555 1_555
C52 C48 1_555 1_555
C53 C45 1_555 1_555
C54 C27 1_555 1_555
N1 C30 1_555 1_555
N2 C39 1_555 1_555
N3 C42 1_555 1_555
N4 C51 1_555 1_555
O1 C7 1_555 1_555
O2 C7 1_555 1_555
O3 C8 1_555 1_555
O4 C8 1_555 1_555
O5 C6 1_555 1_555
O6 C15 1_555 1_555
O7 C15 1_555 1_555
O8 C22 1_555 1_555
O9 C22 1_555 1_555
O10 C23 1_555 1_555
O11 C23 1_555 1_555
O12 C18 1_555 1_555
O13 C54 1_555 1_555
O14 C54 1_555 1_555
O15 H31 1_555 1_555
H32 O15 1_555 1_555
Cd1 N1 1_555 1_555
Cd2 N3 1_555 1_555
Cd3 O2 1_555 1_555
O16 H33 1_555 1_555
H34 O16 1_555 1_555
O17 H35 1_555 1_555
H36 O17 1_555 1_555
O6C Cd3 1_555 1_555
O7C Cd2 1_555 1_555
O13C Cd3 1_555 1_555
O14C Cd3 1_555 1_555
Cd2C O7 1_555 1_555
Cd3C O6 1_555 1_555
Cd3C_2 O13 1_555 1_555
C5 C6 1_555 1_555
C9 O5 1_555 1_555
C13 C14 1_555 1_555
C20 C21 1_555 1_555
C24 O12 1_555 1_555
C28 C29 1_555 1_555
C40 C41 1_555 1_555
C40 N2 1_555 1_555
C41 N1 1_555 1_555
C52 C53 1_555 1_555
C52 N4 1_555 1_555
C53 N3 1_555 1_555
N2 Cd1 1_555 1_555
N4 Cd2 1_555 1_555
O1 Cd1 1_555 1_555
O2 Cd1 1_555 1_555
O3 Cd2 1_555 1_555
O3 Cd3 1_555 1_555
O4 Cd2 1_555 1_555
O8 Cd1 1_555 1_555
O9 Cd1 1_555 1_555
O9 Cd3 1_555 1_555
O10 Cd2 1_555 1_555
O10 Cd3 1_555 1_555
O14 Cd3C_2 1_555 1_555
O15 Cd1 1_555 1_555

#END
