
#######################################################################
#
#                 Cambridge Crystallographic Data Centre
#                                CCDC 
#
#######################################################################
#
# If this CIF has been generated from an entry in the Cambridge 
# Structural Database, then it will include bibliographic, chemical, 
# crystal, experimental, refinement or atomic coordinate data resulting 
# from the CCDC's data processing and validation procedures.
#
#######################################################################

data_EJUQEG
_symmetry_cell_setting           triclinic
_symmetry_space_group_name_H-M   'P -1'
_symmetry_Int_Tables_number      2
_space_group_name_Hall           '-P 1'
loop_
_symmetry_equiv_pos_site_id
_symmetry_equiv_pos_as_xyz
1 x,y,z
2 -x,-y,-z
_cell_length_a                   13.511(3)
_cell_length_b                   14.864(3)
_cell_length_c                   17.527(3)
_cell_angle_alpha                66.948(2)
_cell_angle_beta                 86.831(2)
_cell_angle_gamma                67.297(3)
_cell_volume                     2968.78
loop_
_atom_site_label
_atom_site_type_symbol
_atom_site_fract_x
_atom_site_fract_y
_atom_site_fract_z
C1 C 0.1399(6) 0.3656(6) 0.3728(5)
C2 C 0.0686(6) 0.4419(6) 0.3010(5)
C3 C 0.1066(7) 0.4568(7) 0.2236(5)
H1 H 0.0606 0.5082 0.1756
C4 C 0.2120(7) 0.3963(7) 0.2167(6)
H2 H 0.2359 0.4060 0.1644
C5 C 0.2801(6) 0.3227(7) 0.2870(6)
C6 C 0.2456(7) 0.3060(7) 0.3659(6)
H3 H 0.2929 0.2555 0.4134
C7 C 0.0979(6) 0.3393(7) 0.4566(5)
C8 C -0.0444(7) 0.5127(7) 0.3058(6)
C9 C 0.4760(6) 0.2447(7) 0.3098(5)
C10 C 0.4853(6) 0.3242(7) 0.3281(5)
H4 H 0.4244 0.3841 0.3238
C11 C 0.5863(6) 0.3127(7) 0.3528(5)
H5 H 0.5933 0.3660 0.3644
C12 C 0.6775(6) 0.2230(7) 0.3605(5)
C13 C 0.6652(6) 0.1448(7) 0.3430(5)
H6 H 0.7253 0.0833 0.3493
C14 C 0.5647(7) 0.1568(7) 0.3165(6)
H7 H 0.5578 0.1046 0.3031
C15 C 0.7881(6) 0.2120(7) 0.3839(5)
C16 C 0.3112(6) -0.0372(7) 0.8303(5)
C17 C 0.3549(7) -0.1414(7) 0.8921(5)
H8 H 0.4193 -0.1654 0.9246
C18 C 0.3021(7) -0.2079(7) 0.9042(5)
C19 C 0.2076(7) -0.1753(7) 0.8559(6)
H9 H 0.1732 -0.2214 0.8647
C20 C 0.1652(7) -0.0744(7) 0.7950(6)
H10 H 0.1021 -0.0527 0.7619
C21 C 0.2143(6) -0.0036(6) 0.7815(5)
C22 C 0.1605(6) 0.1084(7) 0.7179(5)
C23 C 0.3740(7) 0.0319(7) 0.8172(6)
C24 C 0.3596(7) -0.3955(6) 0.9502(5)
C25 C 0.3830(7) -0.3958(7) 0.8729(6)
H11 H 0.3881 -0.3364 0.8304
C26 C 0.3990(7) -0.4856(7) 0.8591(6)
H12 H 0.4133 -0.4854 0.8065
C27 C 0.3942(6) -0.5763(7) 0.9222(6)
C28 C 0.3714(7) -0.5750(7) 0.9994(6)
H13 H 0.3672 -0.6347 1.0420
C29 C 0.3547(7) -0.4850(7) 1.0145(6)
H14 H 0.3404 -0.4849 1.0670
C30 C 0.4118(7) -0.6707(8) 0.9028(7)
C31 C -0.0887(8) 0.3452(9) 0.2086(7)
H15 H -0.1540 0.3797 0.2252
C32 C -0.0779(9) 0.3755(10) 0.1230(7)
H16 H -0.1361 0.4274 0.0836
C33 C 0.0174(10) 0.3288(10) 0.0987(7)
H17 H 0.0258 0.3501 0.0421
C34 C 0.1049(8) 0.2480(8) 0.1580(6)
C35 C 0.2112(9) 0.1945(10) 0.1370(7)
H18 H 0.2229 0.2113 0.0812
C36 C 0.2924(9) 0.1215(9) 0.1966(7)
H19 H 0.3596 0.0886 0.1816
C37 C 0.2776(7) 0.0933(8) 0.2829(6)
C38 C 0.3628(8) 0.0230(8) 0.3457(7)
H20 H 0.4313 -0.0087 0.3319
C39 C 0.3461(8) 0.0009(9) 0.4268(8)
H21 H 0.4024 -0.0460 0.4692
C40 C 0.2414(7) 0.0505(9) 0.4451(7)
H22 H 0.2300 0.0355 0.5008
C41 C 0.1753(7) 0.1420(7) 0.3059(6)
C42 C 0.0868(7) 0.2211(7) 0.2419(6)
C43 C 0.0236(9) 0.2543(8) 0.8314(6)
H23 H 0.0983 0.2323 0.8354
C44 C -0.0267(10) 0.2417(9) 0.9041(7)
H24 H 0.0135 0.2138 0.9555
C45 C -0.1354(10) 0.2708(9) 0.8988(7)
H25 H -0.1696 0.2604 0.9472
C46 C -0.1959(8) 0.3157(8) 0.8222(7)
C47 C -0.3100(9) 0.3490(9) 0.8110(9)
H26 H -0.3472 0.3388 0.8578
C48 C -0.3646(9) 0.3936(9) 0.7368(9)
H27 H -0.4390 0.4139 0.7323
C49 C -0.3105(8) 0.4118(8) 0.6615(7)
C50 C -0.3653(9) 0.4616(9) 0.5822(9)
H28 H -0.4399 0.4835 0.5756
C51 C -0.3109(9) 0.4789(9) 0.5138(8)
H29 H -0.3480 0.5143 0.4605
C52 C -0.1973(8) 0.4422(8) 0.5249(7)
C53 C -0.1985(7) 0.3787(7) 0.6689(6)
C54 C -0.1397(7) 0.3282(7) 0.7502(6)
C55 C 0.4959(12) 0.2535(10) 0.6292(8)
H30 H 0.4212 0.2809 0.6183
C56 C 0.5559(19) 0.2644(12) 0.5631(9)
H31 H 0.5223 0.2965 0.5088
C57 C 0.6645(19) 0.2282(12) 0.5775(10)
H32 H 0.7054 0.2378 0.5329
C58 C 0.7161(12) 0.1754(10) 0.6608(9)
C59 C 0.8263(14) 0.1352(13) 0.6823(13)
H33 H 0.8712 0.1413 0.6401
C60 C 0.8704(11) 0.0881(13) 0.7612(14)
H34 H 0.9443 0.0660 0.7728
C61 C 0.8066(9) 0.0715(10) 0.8269(10)
C62 C 0.8478(10) 0.0181(12) 0.9134(13)
H35 H 0.9213 -0.0068 0.9291
C63 C 0.7813(13) 0.0043(13) 0.9712(11)
H36 H 0.8086 -0.0323 1.0273
C64 C 0.6705(11) 0.0441(10) 0.9485(8)
H37 H 0.6249 0.0335 0.9898
C65 C 0.6947(7) 0.1096(7) 0.8096(6)
C66 C 0.6484(9) 0.1645(8) 0.7249(7)
N1 N -0.0087(6) 0.2689(6) 0.2664(5)
N2 N 0.1574(6) 0.1182(6) 0.3868(5)
N3 N -0.1434(6) 0.3921(6) 0.6011(5)
N4 N -0.0303(6) 0.2962(6) 0.7567(5)
N5 N 0.5400(7) 0.2054(6) 0.7086(5)
N6 N 0.6295(6) 0.0960(6) 0.8704(5)
O1 O 0.1405(5) 0.3487(6) 0.5130(4)
O2 O 0.0232(4) 0.3055(5) 0.4688(4)
O3 O -0.0599(5) 0.5383(5) 0.3675(4)
O4 O -0.1159(5) 0.5421(6) 0.2491(4)
O5 O 0.3803(4) 0.2538(6) 0.2771(4)
O6 O 0.7978(4) 0.2876(5) 0.3946(4)
O7 O 0.8690(5) 0.1299(5) 0.3916(4)
O8 O 0.1924(5) 0.1779(5) 0.7149(4)
O9 O 0.0805(5) 0.1329(5) 0.6688(4)
O10 O 0.4257(5) 0.0458(6) 0.7566(4)
O11 O 0.3702(6) 0.0682(6) 0.8710(4)
O12 O 0.3459(5) -0.3095(5) 0.9689(4)
O13 O 0.3987(7) -0.7507(6) 0.9553(6)
O14 O 0.4380(6) -0.6654(6) 0.8318(5)
O15 O 0.0208(5) 0.0858(5) 0.5477(4)
H38 H 0.0475 0.1083 0.5754
H39 H 0.0575 0.0203 0.5603
O16 O 0.2908(6) 0.2995(6) 0.7310(6)
H40 H 0.2286 0.3402 0.7035
H41 H 0.2825 0.2720 0.7827
Cd1 Cd 0.04181(5) 0.32279(5) 0.62212(4)
Cd2 Cd -0.01472(5) 0.20952(5) 0.41115(4)
Cd3 Cd 0.44447(5) 0.18595(6) 0.82518(5)
O3A O 0.0599(5) 0.4617(5) 0.6325(4)
O6_2 O -0.2022(4) 0.2876(5) 0.3946(4)
O7_2 O -0.1310(5) 0.1299(5) 0.3916(4)
O13_2 O 0.3987(7) 0.2493(6) 0.9553(6)
O14_2 O 0.4380(6) 0.3346(6) 0.8318(5)
Cd1A Cd -0.04181(5) 0.67721(5) 0.37788(4)
Cd2_2 Cd 0.98528(5) 0.20952(5) 0.41115(4)
Cd3_2 Cd 0.44447(5) -0.81405(6) 0.82518(5)
O17 O 0.8408(7) 0.6610(10) 0.0745(6)
H42 H 0.8564 0.6066 0.1207
H43 H 0.8739 0.6415 0.0371
O18 O 0.3458(8) 0.1364(10) 0.5775(6)
H44 H 0.3177 0.2336 0.5885
H45 H 0.3778 0.0808 0.6212
O19 O 0.6442(10) 0.5115(10) 0.3318(8)
H46 H 0.6958 0.4504 0.3482
H47 H 0.6701 0.5575 0.3056
loop_
_geom_bond_atom_site_label_1
_geom_bond_atom_site_label_2
_geom_bond_site_symmetry_1
_geom_bond_site_symmetry_2
C1 C2 1_555 1_555
C2 C3 1_555 1_555
C3 H1 1_555 1_555
C4 C3 1_555 1_555
H2 C4 1_555 1_555
C5 C4 1_555 1_555
C6 C1 1_555 1_555
H3 C6 1_555 1_555
C7 C1 1_555 1_555
C8 C2 1_555 1_555
C9 C10 1_555 1_555
C10 H4 1_555 1_555
C11 C10 1_555 1_555
H5 C11 1_555 1_555
C12 C11 1_555 1_555
C13 C12 1_555 1_555
H6 C13 1_555 1_555
C14 C9 1_555 1_555
H7 C14 1_555 1_555
C15 C12 1_555 1_555
C16 C17 1_555 1_555
C17 H8 1_555 1_555
C18 C17 1_555 1_555
C19 C18 1_555 1_555
H9 C19 1_555 1_555
C20 C19 1_555 1_555
H10 C20 1_555 1_555
C21 C16 1_555 1_555
C22 C21 1_555 1_555
C23 C16 1_555 1_555
C24 C25 1_555 1_555
C25 H11 1_555 1_555
C26 C25 1_555 1_555
H12 C26 1_555 1_555
C27 C26 1_555 1_555
C28 C27 1_555 1_555
H13 C28 1_555 1_555
C29 C24 1_555 1_555
H14 C29 1_555 1_555
C30 C27 1_555 1_555
C31 H15 1_555 1_555
C32 C31 1_555 1_555
H16 C32 1_555 1_555
C33 C32 1_555 1_555
H17 C33 1_555 1_555
C34 C33 1_555 1_555
C35 C34 1_555 1_555
H18 C35 1_555 1_555
C36 C35 1_555 1_555
H19 C36 1_555 1_555
C37 C36 1_555 1_555
C38 C37 1_555 1_555
H20 C38 1_555 1_555
C39 C38 1_555 1_555
H21 C39 1_555 1_555
C40 C39 1_555 1_555
H22 C40 1_555 1_555
C41 C37 1_555 1_555
C42 C34 1_555 1_555
C43 H23 1_555 1_555
C44 C43 1_555 1_555
H24 C44 1_555 1_555
C45 C44 1_555 1_555
H25 C45 1_555 1_555
C46 C45 1_555 1_555
C47 C46 1_555 1_555
H26 C47 1_555 1_555
C48 C47 1_555 1_555
H27 C48 1_555 1_555
C49 C48 1_555 1_555
C50 C49 1_555 1_555
H28 C50 1_555 1_555
C51 C50 1_555 1_555
H29 C51 1_555 1_555
C52 C51 1_555 1_555
C53 C49 1_555 1_555
C54 C46 1_555 1_555
C55 H30 1_555 1_555
C56 C55 1_555 1_555
H31 C56 1_555 1_555
C57 C56 1_555 1_555
H32 C57 1_555 1_555
C58 C57 1_555 1_555
C59 C58 1_555 1_555
H33 C59 1_555 1_555
C60 C59 1_555 1_555
H34 C60 1_555 1_555
C61 C60 1_555 1_555
C62 C61 1_555 1_555
H35 C62 1_555 1_555
C63 C62 1_555 1_555
H36 C63 1_555 1_555
C64 C63 1_555 1_555
H37 C64 1_555 1_555
C65 C61 1_555 1_555
C66 C58 1_555 1_555
N1 C31 1_555 1_555
N2 C40 1_555 1_555
N3 C52 1_555 1_555
N4 C43 1_555 1_555
N5 C55 1_555 1_555
N6 C64 1_555 1_555
O1 C7 1_555 1_555
O2 C7 1_555 1_555
O3 C8 1_555 1_555
O4 C8 1_555 1_555
O5 C5 1_555 1_555
O6 C15 1_555 1_555
O7 C15 1_555 1_555
O8 C22 1_555 1_555
O9 C22 1_555 1_555
O10 C23 1_555 1_555
O11 C23 1_555 1_555
O12 C18 1_555 1_555
O13 C30 1_555 1_555
O14 C30 1_555 1_555
O15 H38 1_555 1_555
H39 O15 1_555 1_555
O16 H40 1_555 1_555
H41 O16 1_555 1_555
O17 H42 1_555 1_555
H43 O17 1_555 1_555
O18 H44 1_555 1_555
H45 O18 1_555 1_555
O19 H46 1_555 1_555
H47 O19 1_555 1_555
Cd1 N3 1_555 1_555
Cd2 N1 1_555 1_555
Cd3 N5 1_555 1_555
O3A Cd1 1_555 1_555
O6_2 Cd2 1_555 1_555
O7_2 Cd2 1_555 1_555
O13_2 Cd3 1_555 1_555
O14_2 Cd3 1_555 1_555
Cd1A O3 1_555 1_555
Cd2_2 O6 1_555 1_555
Cd3_2 O13 1_555 1_555
C5 C6 1_555 1_555
C9 O5 1_555 1_555
C13 C14 1_555 1_555
C20 C21 1_555 1_555
C24 O12 1_555 1_555
C28 C29 1_555 1_555
C41 C42 1_555 1_555
C41 N2 1_555 1_555
C42 N1 1_555 1_555
C53 C54 1_555 1_555
C53 N3 1_555 1_555
C54 N4 1_555 1_555
C65 C66 1_555 1_555
C65 N6 1_555 1_555
C66 N5 1_555 1_555
N2 Cd2 1_555 1_555
N4 Cd1 1_555 1_555
N6 Cd3 1_555 1_555
O1 Cd1 1_555 1_555
O2 Cd1 1_555 1_555
O2 Cd2 1_555 1_555
O7 Cd2_2 1_555 1_555
O8 Cd1 1_555 1_555
O9 Cd1 1_555 1_555
O10 Cd3 1_555 1_555
O11 Cd3 1_555 1_555
O14 Cd3_2 1_555 1_555
O15 Cd2 1_555 1_555
O16 Cd3 1_555 1_555

#END
