
#######################################################################
#
#                 Cambridge Crystallographic Data Centre
#                                CCDC 
#
#######################################################################
#
# If this CIF has been generated from an entry in the Cambridge 
# Structural Database, then it will include bibliographic, chemical, 
# crystal, experimental, refinement or atomic coordinate data resulting 
# from the CCDC's data processing and validation procedures.
#
#######################################################################

data_EKAPOW
_symmetry_cell_setting           triclinic
_symmetry_space_group_name_H-M   'P -1'
_symmetry_Int_Tables_number      2
_space_group_name_Hall           '-P 1'
loop_
_symmetry_equiv_pos_site_id
_symmetry_equiv_pos_as_xyz
1 x,y,z
2 -x,-y,-z
_cell_length_a                   7.749(2)
_cell_length_b                   8.316(1)
_cell_length_c                   14.239(3)
_cell_angle_alpha                97.64(2)
_cell_angle_beta                 100.12(2)
_cell_angle_gamma                94.37(2)
_cell_volume                     890.604
loop_
_atom_site_label
_atom_site_type_symbol
_atom_site_fract_x
_atom_site_fract_y
_atom_site_fract_z
La1 La -0.31005(3) 0.20325(3) 0.914150(15)
Ag1 Ag 0.32601(5) 0.07883(5) 0.46615(3)
C1 C 0.0921(6) -0.4479(5) 0.6359(3)
C2 C 0.0950(6) -0.2682(5) 0.6334(3)
C3 C 0.0359(6) -0.1664(5) 0.7025(3)
H1 H -0.0184 -0.2092 0.7484
C4 C 0.0582(6) 0.0012(5) 0.7032(3)
C5 C 0.1427(6) 0.0592(5) 0.6340(3)
H2 H 0.1625 0.1713 0.6356
C6 C 0.1732(6) -0.2012(5) 0.5642(3)
H3 H 0.2096 -0.2705 0.5163
C7 C -0.0051(6) 0.1158(5) 0.7767(3)
C8 C -0.4321(5) 0.1680(5) 1.1364(3)
C9 C -0.4982(5) 0.2529(5) 1.2213(3)
C10 C -0.5141(5) 0.4197(5) 1.2312(3)
H4 H -0.4855 0.4803 1.1847
C11 C -0.5725(6) 0.4944(5) 1.3104(3)
C12 C -0.6148(6) 0.3987(5) 1.3778(3)
H5 H -0.6537 0.4485 1.4316
C13 C -0.5439(6) 0.1667(5) 1.2907(3)
H6 H -0.5344 0.0551 1.2837
C14 C -0.5904(6) 0.6768(5) 1.3232(3)
C15 C 0.0637(5) 0.4387(5) 1.0179(3)
N1 N 0.1971(5) -0.0401(5) 0.5650(3)
N2 N -0.6018(5) 0.2372(4) 1.3683(3)
O1 O 0.0133(6) -0.4864(4) 0.7067(3)
H7 H 0.0481 -0.5748 0.7233
O2 O 0.1539(5) -0.5419(4) 0.5837(3)
O3 O -0.1185(5) 0.0547(4) 0.8190(3)
O4 O 0.0564(6) 0.2628(4) 0.7912(2)
O5 O -0.3737(5) 0.2532(4) 1.0811(2)
O6 O -0.4382(4) 0.0143(4) 1.1277(2)
O7 O -0.5875(5) 0.7435(4) 1.2489(2)
O8 O -0.6060(6) 0.7464(4) 1.4026(2)
O9 O -0.0005(4) 0.2936(4) 1.0095(2)
O10 O 0.2201(4) 0.4944(4) 1.0522(2)
O11 O -0.2150(5) -0.0377(4) 0.9929(3)
H8 H -0.2827 -0.0857 1.0236
H9 H -0.1152 -0.0709 0.9887
O12 O -0.6054(4) 0.3283(4) 0.9162(2)
H10 H -0.6090 0.4155 0.9541
H11 H -0.6990 0.2821 0.8789
La1A La -0.68995(3) -0.20325(3) 1.085850(15)
La1A_2 La -0.68995(3) 0.79675(3) 1.085850(15)
La1A_3 La 0.31005(3) 0.79675(3) 1.085850(15)
La1_2 La -0.31005(3) -0.79675(3) 0.914150(15)
Ag1_2 Ag -0.67399(5) 0.07883(5) 1.46615(3)
Ag1A Ag -0.32601(5) -0.07883(5) 0.53385(3)
Ag1A_2 Ag -1.32601(5) -0.07883(5) 1.53385(3)
C1A C -1.0921(6) 0.4479(5) 1.3641(3)
C2A C -1.0950(6) 0.2682(5) 1.3666(3)
C3A C -1.0359(6) 0.1664(5) 1.2975(3)
H1A H -0.9816 0.2092 1.2516
C4A C -1.0582(6) -0.0012(5) 1.2968(3)
C5A C -1.1427(6) -0.0592(5) 1.3660(3)
H2A H -1.1625 -0.1713 1.3644
C6A C -1.1732(6) 0.2012(5) 1.4358(3)
H3A H -1.2096 0.2705 1.4837
C7A C -0.9949(6) -0.1158(5) 1.2233(3)
C8A C -0.5679(5) -0.1680(5) 0.8636(3)
C9A C -0.5018(5) -0.2529(5) 0.7787(3)
C10A C -0.4859(5) -0.4197(5) 0.7688(3)
H4A H -0.5145 -0.4803 0.8153
C11A C -0.4275(6) -0.4944(5) 0.6896(3)
C12A C -0.3852(6) -0.3987(5) 0.6222(3)
H5A H -0.3463 -0.4485 0.5684
C13A C -0.4561(6) -0.1667(5) 0.7093(3)
H6A H -0.4656 -0.0551 0.7163
C14A C -0.4096(6) -0.6768(5) 0.6768(3)
C15A C -0.0637(5) 0.5613(5) 0.9821(3)
N1A N -1.1971(5) 0.0401(5) 1.4350(3)
N1_2 N -0.8029(5) -0.0401(5) 1.5650(3)
N2A N -0.3982(5) -0.2372(4) 0.6317(3)
N2_2 N 0.3982(5) 0.2372(4) 0.3683(3)
O1A O -1.0133(6) 0.4864(4) 1.2933(3)
H7A H -1.0481 0.5748 1.2767
O2A O -1.1539(5) 0.5419(4) 1.4163(3)
O3A O -0.8815(5) -0.0547(4) 1.1810(3)
O4A O -1.0564(6) -0.2628(4) 1.2088(2)
O5A O -0.6263(5) -0.2532(4) 0.9189(2)
O6A O -0.5618(4) -0.0143(4) 0.8723(2)
O7A O -0.4125(5) -0.7435(4) 0.7511(2)
O7A_2 O -0.4125(5) 0.2565(4) 0.7511(2)
O7_2 O -0.5875(5) -0.2565(4) 1.2489(2)
O8A O -0.3940(6) -0.7464(4) 0.5974(2)
O9A O 0.0005(4) 0.7064(4) 0.9905(2)
O9A_2 O -0.9995(4) -0.2936(4) 0.9905(2)
O10A O -0.2201(4) 0.5056(4) 0.9478(2)
O10_2 O -0.7799(4) -0.5056(4) 1.0522(2)
O11A O -0.7850(5) 0.0377(4) 1.0071(3)
H8A H -0.7173 0.0857 0.9764
H9A H -0.8848 0.0709 1.0113
O12A O -0.3946(4) -0.3283(4) 1.0838(2)
H10A H -0.3910 -0.4155 1.0459
H11A H -0.3010 -0.2821 1.1211
loop_
_geom_bond_atom_site_label_1
_geom_bond_atom_site_label_2
_geom_bond_site_symmetry_1
_geom_bond_site_symmetry_2
La1 O3 1_555 1_555
Ag1 N1 1_555 1_555
C1 C2 1_555 1_555
C2 C3 1_555 1_555
C3 H1 1_555 1_555
C4 C3 1_555 1_555
C5 C4 1_555 1_555
H2 C5 1_555 1_555
C6 C2 1_555 1_555
H3 C6 1_555 1_555
C7 C4 1_555 1_555
C8 C9 1_555 1_555
C9 C10 1_555 1_555
C10 H4 1_555 1_555
C11 C10 1_555 1_555
C12 C11 1_555 1_555
H5 C12 1_555 1_555
C13 C9 1_555 1_555
H6 C13 1_555 1_555
C14 C11 1_555 1_555
C15 O9 1_555 1_555
N1 C5 1_555 1_555
N2 C12 1_555 1_555
O1 C1 1_555 1_555
H7 O1 1_555 1_555
O2 C1 1_555 1_555
O3 C7 1_555 1_555
O4 C7 1_555 1_555
O5 La1 1_555 1_555
O6 C8 1_555 1_555
O7 C14 1_555 1_555
O8 C14 1_555 1_555
O9 La1 1_555 1_555
O10 C15 1_555 1_555
O11 La1 1_555 1_555
H8 O11 1_555 1_555
H9 O11 1_555 1_555
O12 La1 1_555 1_555
H10 O12 1_555 1_555
H11 O12 1_555 1_555
La1A O6 1_555 1_555
La1A_2 O7 1_555 1_555
La1A_3 O10 1_555 1_555
La1_2 O7A 1_555 1_555
Ag1_2 N2 1_555 1_555
Ag1A N2A 1_555 1_555
Ag1A_2 N1A 1_555 1_555
C1A C2A 1_555 1_555
C2A C3A 1_555 1_555
C3A H1A 1_555 1_555
C4A C3A 1_555 1_555
C5A C4A 1_555 1_555
H2A C5A 1_555 1_555
C6A C2A 1_555 1_555
H3A C6A 1_555 1_555
C7A C4A 1_555 1_555
C8A C9A 1_555 1_555
C9A C10A 1_555 1_555
C10A H4A 1_555 1_555
C11A C10A 1_555 1_555
C12A C11A 1_555 1_555
H5A C12A 1_555 1_555
C13A C9A 1_555 1_555
H6A C13A 1_555 1_555
C14A C11A 1_555 1_555
C15A C15 1_555 1_555
N1A C5A 1_555 1_555
N1_2 Ag1_2 1_555 1_555
N2A C12A 1_555 1_555
N2_2 Ag1 1_555 1_555
O1A C1A 1_555 1_555
H7A O1A 1_555 1_555
O2A C1A 1_555 1_555
O3A La1A 1_555 1_555
O4A C7A 1_555 1_555
O5A La1A 1_555 1_555
O6A La1 1_555 1_555
O7A C14A 1_555 1_555
O7A_2 La1 1_555 1_555
O7_2 La1A 1_555 1_555
O8A C14A 1_555 1_555
O9A La1A_3 1_555 1_555
O9A_2 La1A 1_555 1_555
O10A La1 1_555 1_555
O10_2 La1A 1_555 1_555
O11A La1A 1_555 1_555
H8A O11A 1_555 1_555
H9A O11A 1_555 1_555
O12A La1A 1_555 1_555
H10A O12A 1_555 1_555
H11A O12A 1_555 1_555
C6 N1 1_555 1_555
C8 O5 1_555 1_555
C13 N2 1_555 1_555
C6A N1A 1_555 1_555
C7A O3A 1_555 1_555
C8A O5A 1_555 1_555
C8A O6A 1_555 1_555
C13A N2A 1_555 1_555
C15A O9A 1_555 1_555
C15A O10A 1_555 1_555

#END
