
#######################################################################
#
#                 Cambridge Crystallographic Data Centre
#                                CCDC 
#
#######################################################################
#
# If this CIF has been generated from an entry in the Cambridge 
# Structural Database, then it will include bibliographic, chemical, 
# crystal, experimental, refinement or atomic coordinate data resulting 
# from the CCDC's data processing and validation procedures.
#
#######################################################################

data_EKAROY
_symmetry_cell_setting           triclinic
_symmetry_space_group_name_H-M   'P -1'
_symmetry_Int_Tables_number      2
_space_group_name_Hall           '-P 1'
loop_
_symmetry_equiv_pos_site_id
_symmetry_equiv_pos_as_xyz
1 x,y,z
2 -x,-y,-z
_cell_length_a                   7.4854(13)
_cell_length_b                   10.8225(18)
_cell_length_c                   13.166(2)
_cell_angle_alpha                110.057(2)
_cell_angle_beta                 92.554(2)
_cell_angle_gamma                96.682(2)
_cell_volume                     991.009
loop_
_atom_site_label
_atom_site_type_symbol
_atom_site_fract_x
_atom_site_fract_y
_atom_site_fract_z
Cu1 Cu 0.0000 0.5000 0.5000
C1 C 0.0144(4) 0.7587(3) 0.5508(2)
C2 C 0.0145(4) 0.8870(3) 0.5280(2)
C3 C -0.1441(4) 0.9014(3) 0.4776(2)
H1 H -0.2428 0.8351 0.4627
C4 C 0.1602(4) 0.9882(3) 0.5512(2)
C5 C 0.3284(4) 0.9818(3) 0.6139(2)
C6 C 0.3843(4) 0.5978(3) 0.5952(2)
H2 H 0.3835 0.6486 0.5508
C7 C 0.5421(4) 0.6055(3) 0.6564(3)
H3 H 0.6455 0.6595 0.6522
C8 C 0.5455(4) 0.5323(3) 0.7242(3)
H4 H 0.6508 0.5359 0.7659
C9 C 0.3887(4) 0.4537(3) 0.7284(2)
C10 C 0.2357(4) 0.4517(3) 0.6643(2)
H5 H 0.1299 0.3999 0.6683
C11 C 0.3751(4) 0.3713(3) 0.7979(2)
C12 C 0.4916(4) 0.2969(3) 0.9232(2)
C13 C 0.2056(4) 0.2188(3) 0.8470(2)
C14 C 0.0338(4) 0.1308(3) 0.8324(2)
C15 C 0.0102(4) 0.0323(3) 0.8776(3)
H6 H 0.1042 0.0205 0.9205
C16 C -0.1533(5) -0.0479(3) 0.8584(3)
H7 H -0.1709 -0.1145 0.8881
C17 C -0.2899(4) -0.0287(3) 0.7951(3)
H8 H -0.4004 -0.0830 0.7829
C18 C -0.1126(4) 0.1414(3) 0.7685(3)
H9 H -0.0990 0.2062 0.7367
C19 C 0.6423(4) 0.3004(3) 1.0014(2)
C20 C 0.6242(4) 0.2254(3) 1.0680(3)
H10 H 0.5181 0.1685 1.0623
C21 C 0.7656(5) 0.2363(3) 1.1430(3)
H11 H 0.7562 0.1881 1.1894
C22 C 0.9200(5) 0.3198(3) 1.1473(3)
H12 H 1.0141 0.3272 1.1985
C23 C 0.8056(4) 0.3805(3) 1.0121(3)
H13 H 0.8193 0.4301 0.9669
N1 N 0.2313(3) 0.5203(2) 0.59691(19)
N2 N 0.2163(3) 0.2961(2) 0.7876(2)
N3 N 0.3388(3) 0.2153(2) 0.9171(2)
N4 N 0.5170(3) 0.3757(2) 0.8644(2)
N5 N -0.2703(3) 0.0646(3) 0.7505(2)
N6 N 0.9448(4) 0.3912(3) 1.0833(2)
O1 O 0.0835(3) 0.66733(18) 0.48039(16)
O2 O -0.0642(3) 0.7424(2) 0.62613(19)
O3 O 0.4564(3) 1.0812(2) 0.6274(2)
H14 H 0.5439 1.0740 0.6636
O4 O 0.3404(3) 0.8953(2) 0.6512(2)
Cu1_2 Cu 0.0000 1.5000 0.5000
C1A C -0.0144(4) 1.2413(3) 0.4492(2)
C2A C -0.0145(4) 1.1130(3) 0.4720(2)
C3A C 0.1441(4) 1.0986(3) 0.5224(2)
H1A H 0.2428 1.1649 0.5373
C4A C -0.1602(4) 1.0118(3) 0.4488(2)
C5A C -0.3284(4) 1.0182(3) 0.3861(2)
C6A C -0.3843(4) 0.4022(3) 0.4048(2)
H2A H -0.3835 0.3514 0.4492
C7A C -0.5421(4) 0.3945(3) 0.3436(3)
H3A H -0.6455 0.3405 0.3478
C8A C -0.5455(4) 0.4677(3) 0.2758(3)
H4A H -0.6508 0.4641 0.2341
C9A C -0.3887(4) 0.5463(3) 0.2716(2)
C10A C -0.2357(4) 0.5483(3) 0.3357(2)
H5A H -0.1299 0.6001 0.3317
C11A C -0.3751(4) 0.6287(3) 0.2021(2)
C12A C -0.4916(4) 0.7031(3) 0.0768(2)
C13A C -0.2056(4) 0.7812(3) 0.1530(2)
C14A C -0.0338(4) 0.8692(3) 0.1676(2)
C15A C -0.0102(4) 0.9677(3) 0.1224(3)
H6A H -0.1042 0.9795 0.0795
C16A C 0.1533(5) 1.0479(3) 0.1416(3)
H7A H 0.1709 1.1145 0.1119
C17A C 0.2899(4) 1.0287(3) 0.2049(3)
H8A H 0.4004 1.0830 0.2171
C18A C 0.1126(4) 0.8586(3) 0.2315(3)
H9A H 0.0990 0.7938 0.2633
C19A C -0.6423(4) 0.6996(3) -0.0014(2)
C20A C -0.6242(4) 0.7746(3) -0.0680(3)
H10A H -0.5181 0.8315 -0.0623
C21A C -0.7656(5) 0.7637(3) -0.1430(3)
H11A H -0.7562 0.8119 -0.1894
C22A C -0.9200(5) 0.6802(3) -0.1473(3)
H12A H -1.0141 0.6728 -0.1985
C23A C -0.8056(4) 0.6195(3) -0.0121(3)
H13A H -0.8193 0.5699 0.0331
N1A N -0.2313(3) 0.4797(2) 0.40309(19)
N2A N -0.2163(3) 0.7039(2) 0.2124(2)
N3A N -0.3388(3) 0.7847(2) 0.0829(2)
N4A N -0.5170(3) 0.6243(2) 0.1356(2)
N5A N 0.2703(3) 0.9354(3) 0.2495(2)
N6A N -0.9448(4) 0.6088(3) -0.0833(2)
O1A O -0.0835(3) 1.33267(18) 0.51961(16)
O1A_2 O -0.0835(3) 0.33267(18) 0.51961(16)
O2A O 0.0642(3) 1.2576(2) 0.37387(19)
O3A O -0.4564(3) 0.9188(2) 0.3726(2)
H14A H -0.5439 0.9260 0.3364
O4A O -0.3404(3) 1.1047(2) 0.3488(2)
loop_
_geom_bond_atom_site_label_1
_geom_bond_atom_site_label_2
_geom_bond_site_symmetry_1
_geom_bond_site_symmetry_2
Cu1 N1 1_555 1_555
C1 C2 1_555 1_555
C2 C3 1_555 1_555
C3 H1 1_555 1_555
C4 C2 1_555 1_555
C5 C4 1_555 1_555
C6 H2 1_555 1_555
C7 C6 1_555 1_555
H3 C7 1_555 1_555
C8 C7 1_555 1_555
H4 C8 1_555 1_555
C9 C8 1_555 1_555
C10 C9 1_555 1_555
H5 C10 1_555 1_555
C11 C9 1_555 1_555
C12 C19 1_555 1_555
C13 C14 1_555 1_555
C14 C15 1_555 1_555
C15 H6 1_555 1_555
C16 C15 1_555 1_555
H7 C16 1_555 1_555
C17 C16 1_555 1_555
H8 C17 1_555 1_555
C18 C14 1_555 1_555
H9 C18 1_555 1_555
C19 C20 1_555 1_555
C20 H10 1_555 1_555
C21 C20 1_555 1_555
H11 C21 1_555 1_555
C22 C21 1_555 1_555
H12 C22 1_555 1_555
C23 C19 1_555 1_555
H13 C23 1_555 1_555
N1 C6 1_555 1_555
N2 C11 1_555 1_555
N3 C12 1_555 1_555
N4 C11 1_555 1_555
N5 C17 1_555 1_555
N6 C22 1_555 1_555
O1 Cu1 1_555 1_555
O2 C1 1_555 1_555
O3 C5 1_555 1_555
H14 O3 1_555 1_555
O4 C5 1_555 1_555
Cu1_2 O1A 1_555 1_555
C1A C2A 1_555 1_555
C2A C3A 1_555 1_555
C3A C4 1_555 1_555
H1A C3A 1_555 1_555
C4A C3 1_555 1_555
C5A C4A 1_555 1_555
C6A H2A 1_555 1_555
C7A C6A 1_555 1_555
H3A C7A 1_555 1_555
C8A C7A 1_555 1_555
H4A C8A 1_555 1_555
C9A C8A 1_555 1_555
C10A C9A 1_555 1_555
H5A C10A 1_555 1_555
C11A C9A 1_555 1_555
C12A C19A 1_555 1_555
C13A C14A 1_555 1_555
C14A C15A 1_555 1_555
C15A H6A 1_555 1_555
C16A C15A 1_555 1_555
H7A C16A 1_555 1_555
C17A C16A 1_555 1_555
H8A C17A 1_555 1_555
C18A C14A 1_555 1_555
H9A C18A 1_555 1_555
C19A C20A 1_555 1_555
C20A H10A 1_555 1_555
C21A C20A 1_555 1_555
H11A C21A 1_555 1_555
C22A C21A 1_555 1_555
H12A C22A 1_555 1_555
C23A C19A 1_555 1_555
H13A C23A 1_555 1_555
N1A Cu1 1_555 1_555
N2A C11A 1_555 1_555
N3A C12A 1_555 1_555
N4A C11A 1_555 1_555
N5A C17A 1_555 1_555
N6A C22A 1_555 1_555
O1A C1A 1_555 1_555
O1A_2 Cu1 1_555 1_555
O2A C1A 1_555 1_555
O3A C5A 1_555 1_555
H14A O3A 1_555 1_555
O4A C5A 1_555 1_555
C1 O1 1_555 1_555
C10 N1 1_555 1_555
C12 N4 1_555 1_555
C13 N2 1_555 1_555
C13 N3 1_555 1_555
C18 N5 1_555 1_555
C23 N6 1_555 1_555
C2A C4A 1_555 1_555
C6A N1A 1_555 1_555
C10A N1A 1_555 1_555
C12A N4A 1_555 1_555
C13A N2A 1_555 1_555
C13A N3A 1_555 1_555
C18A N5A 1_555 1_555
C23A N6A 1_555 1_555

#END
