
#######################################################################
#
#                 Cambridge Crystallographic Data Centre
#                                CCDC 
#
#######################################################################
#
# If this CIF has been generated from an entry in the Cambridge 
# Structural Database, then it will include bibliographic, chemical, 
# crystal, experimental, refinement or atomic coordinate data resulting 
# from the CCDC's data processing and validation procedures.
#
#######################################################################

data_EKASEP
_symmetry_cell_setting           triclinic
_symmetry_space_group_name_H-M   'P -1'
_symmetry_Int_Tables_number      2
_space_group_name_Hall           '-P 1'
loop_
_symmetry_equiv_pos_site_id
_symmetry_equiv_pos_as_xyz
1 x,y,z
2 -x,-y,-z
_cell_length_a                   7.5425(11)
_cell_length_b                   13.254(2)
_cell_length_c                   15.960(2)
_cell_angle_alpha                79.307(2)
_cell_angle_beta                 82.857(2)
_cell_angle_gamma                87.395(2)
_cell_volume                     1555.21
loop_
_atom_site_label
_atom_site_type_symbol
_atom_site_fract_x
_atom_site_fract_y
_atom_site_fract_z
Cu1 Cu 0.0000 0.0000 0.5000
Cu2 Cu 0.52196(6) 0.75451(4) 0.80874(3)
C1 C 0.0284(6) 0.2126(3) 0.3989(3)
H1 H -0.0059 0.1837 0.3548
C2 C 0.0608(6) 0.3168(3) 0.3838(3)
H2 H 0.0468 0.3570 0.3306
C3 C 0.1138(5) 0.3602(3) 0.4479(3)
H3 H 0.1378 0.4299 0.4384
C4 C 0.1312(5) 0.2988(3) 0.5272(3)
C5 C 0.0944(5) 0.1953(3) 0.5378(3)
H4 H 0.1046 0.1540 0.5910
C6 C 0.1906(5) 0.3371(3) 0.5998(3)
C7 C 0.2300(5) 0.3105(3) 0.7398(2)
C8 C 0.3050(5) 0.4612(3) 0.6547(3)
C9 C 0.3751(5) 0.5666(3) 0.6418(2)
C10 C 0.3857(5) 0.6313(3) 0.5620(3)
H5 H 0.3550 0.6081 0.5143
C11 C 0.4425(5) 0.7302(3) 0.5548(3)
H6 H 0.4512 0.7745 0.5021
C12 C 0.4861(5) 0.7627(3) 0.6266(3)
H7 H 0.5231 0.8298 0.6213
C13 C 0.4240(5) 0.6045(3) 0.7103(2)
H8 H 0.4198 0.5611 0.7634
C14 C 0.2135(5) 0.2407(3) 0.8248(2)
C15 C 0.2245(5) 0.2790(3) 0.8988(3)
H9 H 0.2408 0.3488 0.8957
C16 C 0.1850(5) 0.1161(3) 0.9830(3)
H10 H 0.1734 0.0752 1.0373
C17 C 0.1745(6) 0.0733(3) 0.9119(3)
H11 H 0.1595 0.0030 0.9172
C18 C 0.1867(5) 0.1365(3) 0.8326(3)
H12 H 0.1768 0.1090 0.7839
C19 C 0.2845(6) -0.0495(3) 0.3699(3)
C20 C 0.3110(5) -0.0975(3) 0.2902(2)
C21 C 0.3610(5) -0.0439(3) 0.2070(2)
C22 C 0.3621(5) -0.0946(3) 0.1378(2)
H13 H 0.3967 -0.0591 0.0826
C23 C 0.3134(5) -0.1961(3) 0.1485(2)
C24 C 0.2740(5) -0.2515(3) 0.2321(2)
C25 C 0.2750(5) -0.2010(3) 0.3004(3)
H14 H 0.2503 -0.2382 0.3558
C26 C 0.4146(5) 0.0658(3) 0.1905(3)
C27 C 0.2954(5) -0.2359(3) 0.0676(3)
C28 C 0.2287(6) -0.3621(3) 0.2528(3)
C29 C 0.2001(5) 0.6587(3) 0.8799(2)
C30 C 0.0965(5) 0.5762(3) 0.9414(2)
C31 C 0.1778(5) 0.5117(3) 1.0049(2)
H15 H 0.2984 0.5195 1.0086
C32 C -0.0844(5) 0.5644(3) 0.9366(2)
C33 C -0.1912(5) 0.6268(3) 0.8703(2)
N1 N 0.0448(4) 0.1520(3) 0.4748(2)
N2 N 0.2540(4) 0.4317(2) 0.5860(2)
N3 N 0.2941(4) 0.4040(2) 0.7339(2)
N4 N 0.1776(4) 0.2728(2) 0.6757(2)
N5 N 0.4773(4) 0.7013(2) 0.7036(2)
N6 N 0.2117(4) 0.2162(3) 0.9742(2)
H16 H 0.2210 0.2413 1.0194
O1 O 0.1274(4) -0.0162(2) 0.38667(17)
O2 O 0.4084(4) -0.0537(2) 0.41443(19)
O3 O 0.3799(4) 0.1163(2) 0.25155(18)
O4 O 0.4919(4) 0.1070(2) 0.11985(18)
O5 O 0.4267(4) -0.2995(2) 0.04616(18)
H17 H 0.4184 -0.3110 -0.0019
O6 O 0.1775(4) -0.2077(3) 0.0245(2)
O7 O 0.2393(5) -0.4146(2) 0.3218(2)
O8 O 0.1732(5) -0.3950(2) 0.18778(19)
H18 H 0.1793 -0.4580 0.1961
O9 O 0.3693(3) 0.66097(19) 0.88974(16)
O10 O 0.1288(4) 0.7155(2) 0.82406(18)
O11 O -0.2135(4) 0.5894(2) 0.80630(17)
O12 O -0.2673(3) 0.7088(2) 0.88675(16)
Cu2A Cu -0.52196(6) -0.75451(4) 0.19126(3)
Cu2A_2 Cu 0.47804(6) 0.24549(4) 0.19126(3)
Cu2_2 Cu -0.47804(6) 0.75451(4) 0.80874(3)
Cu2A_3 Cu -0.52196(6) 0.24549(4) 1.19126(3)
Cu2A_4 Cu 0.47804(6) 0.24549(4) 1.19126(3)
Cu2_3 Cu -0.47804(6) -0.24549(4) 0.80874(3)
C1A C -0.0284(6) -0.2126(3) 0.6011(3)
H1A H 0.0059 -0.1837 0.6452
C2A C -0.0608(6) -0.3168(3) 0.6162(3)
H2A H -0.0468 -0.3570 0.6694
C3A C -0.1138(5) -0.3602(3) 0.5521(3)
H3A H -0.1378 -0.4299 0.5616
C4A C -0.1312(5) -0.2988(3) 0.4728(3)
C5A C -0.0944(5) -0.1953(3) 0.4622(3)
H4A H -0.1046 -0.1540 0.4090
C6A C -0.1906(5) -0.3371(3) 0.4002(3)
C7A C -0.2300(5) -0.3105(3) 0.2602(2)
C8A C -0.3050(5) -0.4612(3) 0.3453(3)
C9A C -0.3751(5) -0.5666(3) 0.3582(2)
C10A C -0.3857(5) -0.6313(3) 0.4380(3)
H5A H -0.3550 -0.6081 0.4857
C11A C -0.4425(5) -0.7302(3) 0.4452(3)
H6A H -0.4512 -0.7745 0.4979
C12A C -0.4861(5) -0.7627(3) 0.3734(3)
H7A H -0.5231 -0.8298 0.3787
C13A C -0.4240(5) -0.6045(3) 0.2897(2)
H8A H -0.4198 -0.5611 0.2366
C14A C -0.2135(5) -0.2407(3) 0.1752(2)
C15A C -0.2245(5) -0.2790(3) 0.1012(3)
H9A H -0.2408 -0.3488 0.1043
C16A C -0.1850(5) -0.1161(3) 0.0170(3)
H10A H -0.1734 -0.0752 -0.0373
C17A C -0.1745(6) -0.0733(3) 0.0881(3)
H11A H -0.1595 -0.0030 0.0828
C18A C -0.1867(5) -0.1365(3) 0.1674(3)
H12A H -0.1768 -0.1090 0.2161
C19A C -0.2845(6) 0.0495(3) 0.6301(3)
C20A C -0.3110(5) 0.0975(3) 0.7098(2)
C21A C -0.3610(5) 0.0439(3) 0.7930(2)
C22A C -0.3621(5) 0.0946(3) 0.8622(2)
H13A H -0.3967 0.0591 0.9174
C23A C -0.3134(5) 0.1961(3) 0.8515(2)
C24A C -0.2740(5) 0.2515(3) 0.7679(2)
C25A C -0.2750(5) 0.2010(3) 0.6996(3)
H14A H -0.2503 0.2382 0.6442
C26A C -0.4146(5) -0.0658(3) 0.8095(3)
C27A C -0.2954(5) 0.2359(3) 0.9324(3)
C28A C -0.2287(6) 0.3621(3) 0.7472(3)
C29A C -0.2001(5) 0.3413(3) 1.1201(2)
C30A C -0.0965(5) 0.4238(3) 1.0586(2)
C31A C -0.1778(5) 0.4883(3) 0.9951(2)
H15A H -0.2984 0.4805 0.9914
C32A C 0.0844(5) 0.4356(3) 1.0634(2)
C33A C 0.1912(5) 0.3732(3) 1.1297(2)
N1A N -0.0448(4) -0.1520(3) 0.5252(2)
N2A N -0.2540(4) -0.4317(2) 0.4140(2)
N3A N -0.2941(4) -0.4040(2) 0.2661(2)
N4A N -0.1776(4) -0.2728(2) 0.3243(2)
N5A N -0.4773(4) -0.7013(2) 0.2964(2)
N6A N -0.2117(4) -0.2162(3) 0.0258(2)
H16A H -0.2210 -0.2413 -0.0194
O1A O -0.1274(4) 0.0162(2) 0.61333(17)
O2A O -0.4084(4) 0.0537(2) 0.58557(19)
O3A O -0.3799(4) -0.1163(2) 0.74845(18)
O3A_2 O 0.6201(4) 0.8837(2) 0.74845(18)
O3_2 O -0.6201(4) -0.8837(2) 0.25155(18)
O4A O -0.4919(4) -0.1070(2) 0.88015(18)
O4A_2 O 0.5081(4) 0.8930(2) 0.88015(18)
O4_2 O -0.5081(4) -0.8930(2) 0.11985(18)
O5A O -0.4267(4) 0.2995(2) 0.95384(18)
H17A H -0.4184 0.3110 1.0019
O6A O -0.1775(4) 0.2077(3) 0.9755(2)
O7A O -0.2393(5) 0.4146(2) 0.6782(2)
O8A O -0.1732(5) 0.3950(2) 0.81222(19)
H18A H -0.1793 0.4580 0.8039
O9A O -0.3693(3) 0.33903(19) 1.11026(16)
O9A_2 O -0.3693(3) -0.66097(19) 0.11026(16)
O10A O -0.1288(4) 0.2845(2) 1.17594(18)
O11A O 0.2135(4) 0.4106(2) 1.19370(17)
O12A O 0.2673(3) 0.2912(2) 1.11325(16)
O12_2 O 0.7327(3) 0.7088(2) 0.88675(16)
O12A_2 O -0.7327(3) -0.7088(2) 0.11325(16)
O13 O 0.0500(6) 0.9334(3) 0.7801(3)
H19 H 0.0544 0.8687 0.7970
H20 H 0.1626 0.9280 0.7677
O14 O -0.2549(5) 0.0314(3) 0.4173(3)
H21 H -0.3055 -0.0074 0.3911
H22 H -0.3211 0.0353 0.4638
loop_
_geom_bond_atom_site_label_1
_geom_bond_atom_site_label_2
_geom_bond_site_symmetry_1
_geom_bond_site_symmetry_2
Cu1 N1 1_555 1_555
Cu2 N5 1_555 1_555
C1 H1 1_555 1_555
C2 C1 1_555 1_555
H2 C2 1_555 1_555
C3 C2 1_555 1_555
H3 C3 1_555 1_555
C4 C3 1_555 1_555
C5 C4 1_555 1_555
H4 C5 1_555 1_555
C6 C4 1_555 1_555
C7 C14 1_555 1_555
C8 C9 1_555 1_555
C9 C10 1_555 1_555
C10 H5 1_555 1_555
C11 C10 1_555 1_555
H6 C11 1_555 1_555
C12 C11 1_555 1_555
H7 C12 1_555 1_555
C13 C9 1_555 1_555
H8 C13 1_555 1_555
C14 C15 1_555 1_555
C15 H9 1_555 1_555
C16 H10 1_555 1_555
C17 C16 1_555 1_555
H11 C17 1_555 1_555
C18 C14 1_555 1_555
H12 C18 1_555 1_555
C19 C20 1_555 1_555
C20 C21 1_555 1_555
C21 C22 1_555 1_555
C22 H13 1_555 1_555
C23 C22 1_555 1_555
C24 C23 1_555 1_555
C25 C20 1_555 1_555
H14 C25 1_555 1_555
C26 C21 1_555 1_555
C27 C23 1_555 1_555
C28 C24 1_555 1_555
C29 C30 1_555 1_555
C30 C31 1_555 1_555
C31 H15 1_555 1_555
C32 C30 1_555 1_555
C33 C32 1_555 1_555
N1 C1 1_555 1_555
N2 C6 1_555 1_555
N3 C7 1_555 1_555
N4 C6 1_555 1_555
N5 C12 1_555 1_555
N6 C15 1_555 1_555
H16 N6 1_555 1_555
O1 Cu1 1_555 1_555
O2 C19 1_555 1_555
O3 C26 1_555 1_555
O4 C26 1_555 1_555
O5 C27 1_555 1_555
H17 O5 1_555 1_555
O6 C27 1_555 1_555
O7 C28 1_555 1_555
O8 C28 1_555 1_555
H18 O8 1_555 1_555
O9 Cu2 1_555 1_555
O10 C29 1_555 1_555
O11 C33 1_555 1_555
O12 C33 1_555 1_555
O13 H19 1_555 1_555
H20 O13 1_555 1_555
O14 H21 1_555 1_555
H22 O14 1_555 1_555
Cu2A N5A 1_555 1_555
Cu2A_2 O3 1_555 1_555
Cu2_2 O12 1_555 1_555
Cu2A_3 O9A 1_555 1_555
Cu2A_4 O12A 1_555 1_555
Cu2_3 O3A 1_555 1_555
C1A H1A 1_555 1_555
C2A C1A 1_555 1_555
H2A C2A 1_555 1_555
C3A C2A 1_555 1_555
H3A C3A 1_555 1_555
C4A C3A 1_555 1_555
C5A C4A 1_555 1_555
H4A C5A 1_555 1_555
C6A C4A 1_555 1_555
C7A C14A 1_555 1_555
C8A C9A 1_555 1_555
C9A C10A 1_555 1_555
C10A H5A 1_555 1_555
C11A C10A 1_555 1_555
H6A C11A 1_555 1_555
C12A C11A 1_555 1_555
H7A C12A 1_555 1_555
C13A C9A 1_555 1_555
H8A C13A 1_555 1_555
C14A C15A 1_555 1_555
C15A H9A 1_555 1_555
C16A H10A 1_555 1_555
C17A C16A 1_555 1_555
H11A C17A 1_555 1_555
C18A C14A 1_555 1_555
H12A C18A 1_555 1_555
C19A C20A 1_555 1_555
C20A C21A 1_555 1_555
C21A C22A 1_555 1_555
C22A H13A 1_555 1_555
C23A C22A 1_555 1_555
C24A C23A 1_555 1_555
C25A C20A 1_555 1_555
H14A C25A 1_555 1_555
C26A C21A 1_555 1_555
C27A C23A 1_555 1_555
C28A C24A 1_555 1_555
C29A C30A 1_555 1_555
C30A C31A 1_555 1_555
C31A C32 1_555 1_555
H15A C31A 1_555 1_555
C32A C31 1_555 1_555
C33A C32A 1_555 1_555
N1A Cu1 1_555 1_555
N2A C6A 1_555 1_555
N3A C7A 1_555 1_555
N4A C6A 1_555 1_555
N5A C12A 1_555 1_555
N6A C15A 1_555 1_555
H16A N6A 1_555 1_555
O1A Cu1 1_555 1_555
O2A C19A 1_555 1_555
O3A C26A 1_555 1_555
O3A_2 Cu2 1_555 1_555
O3_2 Cu2A 1_555 1_555
O4A Cu2_3 1_555 1_555
O4A_2 Cu2 1_555 1_555
O4_2 Cu2A 1_555 1_555
O5A C27A 1_555 1_555
H17A O5A 1_555 1_555
O6A C27A 1_555 1_555
O7A C28A 1_555 1_555
O8A C28A 1_555 1_555
H18A O8A 1_555 1_555
O9A C29A 1_555 1_555
O9A_2 Cu2A 1_555 1_555
O10A C29A 1_555 1_555
O11A C33A 1_555 1_555
O12A C33A 1_555 1_555
O12_2 Cu2 1_555 1_555
O12A_2 Cu2A 1_555 1_555
C5 N1 1_555 1_555
C7 N4 1_555 1_555
C8 N2 1_555 1_555
C8 N3 1_555 1_555
C13 N5 1_555 1_555
C16 N6 1_555 1_555
C17 C18 1_555 1_555
C19 O1 1_555 1_555
C24 C25 1_555 1_555
C29 O9 1_555 1_555
O4 Cu2A_2 1_555 1_555
C1A N1A 1_555 1_555
C5A N1A 1_555 1_555
C7A N4A 1_555 1_555
C8A N2A 1_555 1_555
C8A N3A 1_555 1_555
C13A N5A 1_555 1_555
C16A N6A 1_555 1_555
C17A C18A 1_555 1_555
C19A O1A 1_555 1_555
C24A C25A 1_555 1_555
C26A O4A 1_555 1_555
C30A C32A 1_555 1_555

#END
