
#######################################################################
#
#                 Cambridge Crystallographic Data Centre
#                                CCDC 
#
#######################################################################
#
# If this CIF has been generated from an entry in the Cambridge 
# Structural Database, then it will include bibliographic, chemical, 
# crystal, experimental, refinement or atomic coordinate data resulting 
# from the CCDC's data processing and validation procedures.
#
#######################################################################

data_EKAVUI
_symmetry_cell_setting           triclinic
_symmetry_space_group_name_H-M   'P -1'
_symmetry_Int_Tables_number      2
_space_group_name_Hall           '-P 1'
loop_
_symmetry_equiv_pos_site_id
_symmetry_equiv_pos_as_xyz
1 x,y,z
2 -x,-y,-z
_cell_length_a                   10.6014(14)
_cell_length_b                   11.0310(14)
_cell_length_c                   15.2287(15)
_cell_angle_alpha                90.001(2)
_cell_angle_beta                 96.599(3)
_cell_angle_gamma                99.777(3)
_cell_volume                     1743.07
loop_
_atom_site_label
_atom_site_type_symbol
_atom_site_fract_x
_atom_site_fract_y
_atom_site_fract_z
Zn1 Zn -0.27538(6) -0.69556(5) 0.08858(4)
Zn2 Zn -0.28180(6) -0.74942(5) -0.40887(4)
O1 O -0.1248(3) -0.7069(4) -0.3244(2)
O3 O -0.2459(4) -0.7492(4) -0.2151(3)
O5 O -0.1419(4) -0.8336(4) -0.0121(3)
O8 O -0.1894(4) -0.6457(4) -0.0196(2)
O10 O -0.2491(4) -0.6916(4) 0.2763(2)
O12 O -0.1166(3) -0.6728(3) 0.1723(2)
O13 O -0.1619(4) -0.5737(4) 0.4739(3)
O14 O -0.1943(4) -0.7766(3) 0.4863(2)
N1 N -0.3689(4) -0.8674(4) 0.1057(3)
N2 N -0.5313(4) -1.2368(4) 0.1330(3)
H7 H -0.606(3) -1.250(5) 0.155(4)
N3 N -0.3756(4) -1.5562(4) 0.0982(3)
N4 N -0.3782(4) -0.9204(4) -0.3982(3)
N5 N -0.5350(4) -1.2902(4) -0.3665(3)
H8 H -0.613(3) -1.300(5) -0.349(4)
N6 N -0.3759(4) -1.6091(4) -0.3933(3)
C1 C -0.4971(5) -0.9053(5) 0.1017(3)
H9 H -0.5518 -0.8456 0.0923
C2 C -0.5529(5) -1.0262(5) 0.1106(3)
H10 H -0.6440 -1.0483 0.1074
C3 C -0.4742(5) -1.1165(5) 0.1243(3)
C4 C -0.3405(5) -1.0767(5) 0.1325(4)
H11 H -0.2834 -1.1339 0.1447
C5 C -0.2928(5) -0.9536(5) 0.1226(4)
H12 H -0.2020 -0.9281 0.1278
C6 C -0.3327(5) -1.4515(5) 0.0577(3)
H13 H -0.2675 -1.4525 0.0199
C7 C -0.3778(5) -1.3424(5) 0.0679(3)
H14 H -0.3423 -1.2701 0.0394
C8 C -0.4767(5) -1.3406(5) 0.1209(3)
C9 C -0.5254(5) -1.4506(5) 0.1604(3)
H15 H -0.5950 -1.4542 0.1949
C10 C -0.4715(5) -1.5536(5) 0.1487(3)
H16 H -0.5035 -1.6267 0.1777
C11 C -0.4777(5) -0.9550(5) -0.3497(3)
H17 H -0.5116 -0.8926 -0.3218
C12 C -0.5319(5) -1.0753(5) -0.3389(3)
H18 H -0.6033 -1.0948 -0.3060
C13 C -0.4803(5) -1.1698(5) -0.3772(3)
C14 C -0.3799(5) -1.1341(5) -0.4289(4)
H19 H -0.3440 -1.1943 -0.4576
C15 C -0.3340(5) -1.0119(5) -0.4376(4)
H20 H -0.2667 -0.9899 -0.4737
C16 C -0.3004(5) -1.4982(5) -0.3768(4)
H21 H -0.2096 -1.4941 -0.3718
C17 C -0.3469(5) -1.3922(5) -0.3670(4)
H22 H -0.2891 -1.3168 -0.3546
C18 C -0.4799(5) -1.3944(5) -0.3751(3)
C19 C -0.5584(5) -1.5094(5) -0.3870(3)
H23 H -0.6493 -1.5164 -0.3889
C20 C -0.5041(5) -1.6121(5) -0.3959(3)
H24 H -0.5595 -1.6894 -0.4044
C21 C -0.1400(5) -0.7149(5) -0.2417(3)
C22 C -0.0189(5) -0.6830(6) -0.1800(4)
H25 H 0.0596 -0.6576 -0.2045
C23 C -0.0149(5) -0.6883(6) -0.0926(4)
H26 H 0.0673 -0.6641 -0.0597
C24 C -0.1254(5) -0.7280(5) -0.0400(3)
C25 C -0.1392(5) -0.6821(5) 0.2539(3)
C26 C -0.0247(5) -0.6845(5) 0.3187(4)
H27 H 0.0553 -0.6854 0.2965
C27 C -0.0259(5) -0.6854(6) 0.4063(4)
H28 H 0.0533 -0.6924 0.4405
C28 C -0.1363(5) -0.6768(5) 0.4570(3)
Zn1_2 Zn -0.27538(6) -1.69556(5) 0.08858(4)
Zn2_2 Zn -0.28180(6) -0.74942(5) 0.59113(4)
Zn2_3 Zn -0.28180(6) -1.74942(5) -0.40887(4)
O14_2 O -0.1943(4) -0.7766(3) -0.5137(2)
N3_2 N -0.3756(4) -0.5562(4) 0.0982(3)
N6_2 N -0.3759(4) -0.6091(4) -0.3933(3)
O2 O -0.8833(4) -1.6358(4) -0.3790(3)
H1 H -0.868(6) -1.574(4) -0.411(4)
H2 H -0.960(3) -1.655(6) -0.370(5)
O4 O -0.1348(5) -0.4215(4) -0.1254(4)
H3 H -0.147(6) -0.488(4) -0.097(5)
H4 H -0.056(3) -0.402(6) -0.133(5)
O6 O -0.7322(7) 0.2334(7) 0.1284(9)
H5 H -0.736(9) 0.230(8) 0.1821(16)
H6 H -0.787(7) 0.179(7) 0.100(5)
O9 O -0.7547(8) -1.8276(8) -0.3736(8)
O16 O -0.9666(18) -1.9651(18) -0.363(3)
O7? O -0.847(2) 0.1171(19) 0.0975(13)
O11? O -0.8434(14) -1.9466(17) -0.3585(9)
O15? O -0.858(2) 0.068(2) 0.1863(16)
loop_
_geom_bond_atom_site_label_1
_geom_bond_atom_site_label_2
_geom_bond_site_symmetry_1
_geom_bond_site_symmetry_2
Zn1 O8 1_555 1_555
Zn2 O1 1_555 1_555
O1 C21 1_555 1_555
O2 H1 1_555 1_555
H2 O2 1_555 1_555
O3 C21 1_555 1_555
O4 H3 1_555 1_555
H4 O4 1_555 1_555
O5 C24 1_555 1_555
O6 H5 1_555 1_555
H6 O6 1_555 1_555
O8 C24 1_555 1_555
O10 C25 1_555 1_555
O12 Zn1 1_555 1_555
O13 C28 1_555 1_555
O14 C28 1_555 1_555
N1 Zn1 1_555 1_555
N2 H7 1_555 1_555
N3 C6 1_555 1_555
N4 Zn2 1_555 1_555
N5 H8 1_555 1_555
N6 C16 1_555 1_555
C1 N1 1_555 1_555
H9 C1 1_555 1_555
C2 C1 1_555 1_555
H10 C2 1_555 1_555
C3 N2 1_555 1_555
C4 C3 1_555 1_555
H11 C4 1_555 1_555
C5 N1 1_555 1_555
H12 C5 1_555 1_555
C6 H13 1_555 1_555
C7 C6 1_555 1_555
H14 C7 1_555 1_555
C8 N2 1_555 1_555
C9 C8 1_555 1_555
H15 C9 1_555 1_555
C10 N3 1_555 1_555
H16 C10 1_555 1_555
C11 N4 1_555 1_555
H17 C11 1_555 1_555
C12 C11 1_555 1_555
H18 C12 1_555 1_555
C13 N5 1_555 1_555
C14 C13 1_555 1_555
H19 C14 1_555 1_555
C15 N4 1_555 1_555
H20 C15 1_555 1_555
C16 H21 1_555 1_555
C17 C16 1_555 1_555
H22 C17 1_555 1_555
C18 N5 1_555 1_555
C19 C18 1_555 1_555
H23 C19 1_555 1_555
C20 N6 1_555 1_555
H24 C20 1_555 1_555
C21 C22 1_555 1_555
C22 H25 1_555 1_555
C23 C22 1_555 1_555
H26 C23 1_555 1_555
C24 C23 1_555 1_555
C25 O12 1_555 1_555
C26 C25 1_555 1_555
H27 C26 1_555 1_555
C27 C26 1_555 1_555
H28 C27 1_555 1_555
C28 C27 1_555 1_555
Zn1_2 N3 1_555 1_555
Zn2_2 O14 1_555 1_555
Zn2_3 N6 1_555 1_555
O14_2 Zn2 1_555 1_555
N3_2 Zn1 1_555 1_555
N6_2 Zn2 1_555 1_555
C2 C3 1_555 1_555
C4 C5 1_555 1_555
C7 C8 1_555 1_555
C9 C10 1_555 1_555
C12 C13 1_555 1_555
C14 C15 1_555 1_555
C17 C18 1_555 1_555
C19 C20 1_555 1_555

#END
