
#######################################################################
#
#                 Cambridge Crystallographic Data Centre
#                                CCDC 
#
#######################################################################
#
# If this CIF has been generated from an entry in the Cambridge 
# Structural Database, then it will include bibliographic, chemical, 
# crystal, experimental, refinement or atomic coordinate data resulting 
# from the CCDC's data processing and validation procedures.
#
#######################################################################

data_EKAWUJ
_symmetry_cell_setting           triclinic
_symmetry_space_group_name_H-M   'P -1'
_symmetry_Int_Tables_number      2
_space_group_name_Hall           '-P 1'
loop_
_symmetry_equiv_pos_site_id
_symmetry_equiv_pos_as_xyz
1 x,y,z
2 -x,-y,-z
_cell_length_a                   9.4815(6)
_cell_length_b                   10.1256(6)
_cell_length_c                   10.9280(6)
_cell_angle_alpha                116.115(1)
_cell_angle_beta                 95.023(1)
_cell_angle_gamma                100.395(1)
_cell_volume                     909.874
loop_
_atom_site_label
_atom_site_type_symbol
_atom_site_fract_x
_atom_site_fract_y
_atom_site_fract_z
Cu1 Cu 0.5000 0.5000 0.5000
O1 O 0.32042(18) 0.4181(2) 0.28051(18)
O2 O 0.3334(2) 0.4534(3) 0.0947(2)
H1 H 0.4180 0.4477 0.1085
O3 O 0.25791(19) 0.7299(2) 0.3241(3)
O4 O 0.05324(19) 0.80175(19) 0.3149(2)
H2 H 0.1082 0.8867 0.3585
O5 O -0.39988(18) 0.4717(2) 0.1357(2)
O6 O -0.4516(2) 0.2391(2) -0.0294(3)
O7 O -0.3373(2) 0.0353(2) -0.1311(3)
H3 H -0.3741 0.1072 -0.0942
O8 O -0.1218(2) -0.0082(2) -0.1233(2)
N1 N 0.7431(2) 0.2007(2) 0.29203(19)
N2 N 0.8577(2) 0.3156(2) 0.3827(2)
N3 N 0.64659(19) 0.38479(19) 0.41020(19)
N4 N 0.6611(2) -0.1416(2) 0.42871(19)
N5 N 0.7684(2) -0.0999(2) 0.5386(2)
N6 N 0.61237(19) -0.31524(19) 0.49370(19)
C1 C 0.7944(2) 0.4242(3) 0.4508(3)
H4 H 0.8457 0.5194 0.5204
C2 C 0.6198(2) 0.2436(2) 0.3101(2)
H5 H 0.5277 0.1834 0.2598
C3 C 0.7645(3) 0.0493(3) 0.2049(3)
H6 H 0.8512 0.0593 0.1655
H7 H 0.6816 -0.0082 0.1290
C4 C 0.7811(3) -0.0364(3) 0.2880(3)
H8 H 0.7901 -0.1374 0.2266
H9 H 0.8698 0.0157 0.3578
C5 C 0.6525(3) -0.0487(3) 0.3581(3)
H10 H 0.6485 0.0521 0.4251
H11 H 0.5631 -0.0929 0.2891
C6 C 0.7347(3) -0.2083(2) 0.5740(2)
H12 H 0.7898 -0.2111 0.6472
C7 C 0.5697(2) -0.2687(2) 0.4039(2)
H13 H 0.4874 -0.3185 0.3337
C8 C 0.1046(2) 0.4183(2) 0.1500(2)
C9 C 0.0385(2) 0.5398(2) 0.1984(2)
C10 C -0.1113(2) 0.5110(2) 0.1627(2)
H14 H -0.1554 0.5917 0.1980
C11 C -0.1990(2) 0.3662(2) 0.0760(2)
C12 C -0.1310(2) 0.2451(2) 0.0192(2)
C13 C 0.0191(2) 0.2739(2) 0.0605(2)
H15 H 0.0637 0.1935 0.0269
C14 C 0.2655(2) 0.4320(2) 0.1840(2)
C15 C 0.1292(2) 0.6998(3) 0.2865(2)
C16 C -0.3616(3) 0.3576(3) 0.0580(3)
C17 C -0.2006(3) 0.0781(3) -0.0862(3)
Cu1_2 Cu 0.5000 -0.5000 0.5000
Cu1_3 Cu 0.5000 1.5000 0.5000
O1A O 0.67958(18) 0.5819(2) 0.71949(18)
O2A O 0.6666(2) 0.5466(3) 0.9053(2)
H1A H 0.5820 0.5523 0.8915
O3A O 0.74209(19) 0.2701(2) 0.6759(3)
O4A O 0.94676(19) 0.19825(19) 0.6851(2)
H2A H 0.8918 0.1133 0.6415
O5A O 1.39988(18) 0.5283(2) 0.8643(2)
O6A O 1.4516(2) 0.7609(2) 1.0294(3)
O7A O 1.3373(2) 0.9647(2) 1.1311(3)
H3A H 1.3741 0.8928 1.0942
O8A O 1.1218(2) 1.0082(2) 1.1233(2)
N1_2 N 0.7431(2) 1.2007(2) 0.29203(19)
N2_2 N 0.8577(2) 1.3156(2) 0.3827(2)
N3_2 N 0.64659(19) 1.38479(19) 0.41020(19)
N3A N 0.35341(19) 0.61521(19) 0.58980(19)
N4_2 N 0.6611(2) 0.8584(2) 0.42871(19)
N5_2 N 0.7684(2) 0.9001(2) 0.5386(2)
N6_2 N 0.61237(19) 0.68476(19) 0.49370(19)
N6A N 0.38763(19) 0.31524(19) 0.50630(19)
C1_2 C 0.7944(2) 1.4242(3) 0.4508(3)
H4_2 H 0.8457 1.5194 0.5204
C2_2 C 0.6198(2) 1.2436(2) 0.3101(2)
H5_2 H 0.5277 1.1834 0.2598
C3_2 C 0.7645(3) 1.0493(3) 0.2049(3)
H6_2 H 0.8512 1.0593 0.1655
H7_2 H 0.6816 0.9918 0.1290
C4_2 C 0.7811(3) 0.9636(3) 0.2880(3)
H8_2 H 0.7901 0.8626 0.2266
H9_2 H 0.8698 1.0157 0.3578
C5_2 C 0.6525(3) 0.9513(3) 0.3581(3)
H10_2 H 0.6485 1.0521 0.4251
H11_2 H 0.5631 0.9071 0.2891
C6_2 C 0.7347(3) 0.7917(2) 0.5740(2)
H12_2 H 0.7898 0.7889 0.6472
C7_2 C 0.5697(2) 0.7313(2) 0.4039(2)
H13_2 H 0.4874 0.6815 0.3337
C8A C 0.8954(2) 0.5817(2) 0.8500(2)
C9A C 0.9615(2) 0.4602(2) 0.8016(2)
C10A C 1.1113(2) 0.4890(2) 0.8373(2)
H14A H 1.1554 0.4083 0.8020
C11A C 1.1990(2) 0.6338(2) 0.9240(2)
C12A C 1.1310(2) 0.7549(2) 0.9808(2)
C13A C 0.9809(2) 0.7261(2) 0.9395(2)
H15A H 0.9363 0.8065 0.9731
C14A C 0.7345(2) 0.5680(2) 0.8160(2)
C15A C 0.8708(2) 0.3002(3) 0.7135(2)
C16A C 1.3616(3) 0.6424(3) 0.9420(3)
C17A C 1.2006(3) 0.9219(3) 1.0862(3)
loop_
_geom_bond_atom_site_label_1
_geom_bond_atom_site_label_2
_geom_bond_site_symmetry_1
_geom_bond_site_symmetry_2
Cu1 O1 1_555 1_555
O1 C14 1_555 1_555
O2 H1 1_555 1_555
O3 C15 1_555 1_555
O4 H2 1_555 1_555
O5 C16 1_555 1_555
O6 C16 1_555 1_555
O7 H3 1_555 1_555
O8 C17 1_555 1_555
N1 N2 1_555 1_555
N2 C1 1_555 1_555
N3 Cu1 1_555 1_555
N4 N5 1_555 1_555
N5 C6 1_555 1_555
N6 C6 1_555 1_555
C1 N3 1_555 1_555
H4 C1 1_555 1_555
C2 N1 1_555 1_555
H5 C2 1_555 1_555
C3 N1 1_555 1_555
H6 C3 1_555 1_555
H7 C3 1_555 1_555
C4 C3 1_555 1_555
H8 C4 1_555 1_555
H9 C4 1_555 1_555
C5 N4 1_555 1_555
H10 C5 1_555 1_555
H11 C5 1_555 1_555
C6 H12 1_555 1_555
C7 N4 1_555 1_555
H13 C7 1_555 1_555
C8 C9 1_555 1_555
C9 C10 1_555 1_555
C10 H14 1_555 1_555
C11 C10 1_555 1_555
C12 C11 1_555 1_555
C13 C8 1_555 1_555
H15 C13 1_555 1_555
C14 O2 1_555 1_555
C15 O4 1_555 1_555
C16 C11 1_555 1_555
C17 O7 1_555 1_555
Cu1_2 N6 1_555 1_555
Cu1_3 N3_2 1_555 1_555
O1A Cu1 1_555 1_555
O2A H1A 1_555 1_555
O3A C15A 1_555 1_555
O4A H2A 1_555 1_555
O5A C16A 1_555 1_555
O6A C16A 1_555 1_555
O7A H3A 1_555 1_555
O8A C17A 1_555 1_555
N1_2 N2_2 1_555 1_555
N2_2 C1_2 1_555 1_555
N3_2 C1_2 1_555 1_555
N3A Cu1 1_555 1_555
N4_2 N5_2 1_555 1_555
N5_2 C6_2 1_555 1_555
N6_2 Cu1 1_555 1_555
N6A Cu1 1_555 1_555
C1_2 H4_2 1_555 1_555
C2_2 N1_2 1_555 1_555
H5_2 C2_2 1_555 1_555
C3_2 N1_2 1_555 1_555
H6_2 C3_2 1_555 1_555
H7_2 C3_2 1_555 1_555
C4_2 C3_2 1_555 1_555
H8_2 C4_2 1_555 1_555
H9_2 C4_2 1_555 1_555
C5_2 N4_2 1_555 1_555
H10_2 C5_2 1_555 1_555
H11_2 C5_2 1_555 1_555
C6_2 N6_2 1_555 1_555
H12_2 C6_2 1_555 1_555
C7_2 N4_2 1_555 1_555
H13_2 C7_2 1_555 1_555
C8A C9A 1_555 1_555
C9A C10A 1_555 1_555
C10A H14A 1_555 1_555
C11A C10A 1_555 1_555
C12A C11A 1_555 1_555
C13A C8A 1_555 1_555
H15A C13A 1_555 1_555
C14A O1A 1_555 1_555
C15A O4A 1_555 1_555
C16A C11A 1_555 1_555
C17A O7A 1_555 1_555
N3 C2 1_555 1_555
N6 C7 1_555 1_555
C4 C5 1_555 1_555
C8 C14 1_555 1_555
C9 C15 1_555 1_555
C12 C13 1_555 1_555
C12 C17 1_555 1_555
O2A C14A 1_555 1_555
N3_2 C2_2 1_555 1_555
N6_2 C7_2 1_555 1_555
C4_2 C5_2 1_555 1_555
C8A C14A 1_555 1_555
C9A C15A 1_555 1_555
C12A C13A 1_555 1_555
C12A C17A 1_555 1_555

#END
