
#######################################################################
#
#                 Cambridge Crystallographic Data Centre
#                                CCDC 
#
#######################################################################
#
# If this CIF has been generated from an entry in the Cambridge 
# Structural Database, then it will include bibliographic, chemical, 
# crystal, experimental, refinement or atomic coordinate data resulting 
# from the CCDC's data processing and validation procedures.
#
#######################################################################

data_EKAZEW
_symmetry_cell_setting           monoclinic
_symmetry_space_group_name_H-M   'P 21/c'
_symmetry_Int_Tables_number      14
_space_group_name_Hall           '-P 2ybc'
loop_
_symmetry_equiv_pos_site_id
_symmetry_equiv_pos_as_xyz
1 x,y,z
2 -x,1/2+y,1/2-z
3 -x,-y,-z
4 x,1/2-y,1/2+z
_cell_length_a                   20.600(3)
_cell_length_b                   7.1530(11)
_cell_length_c                   25.954(4)
_cell_angle_alpha                90
_cell_angle_beta                 93.326(2)
_cell_angle_gamma                90
_cell_volume                     3817.93
loop_
_atom_site_label
_atom_site_type_symbol
_atom_site_fract_x
_atom_site_fract_y
_atom_site_fract_z
Ag1 Ag -0.00414(3) 1.21430(8) 1.03488(2)
Ag2 Ag 0.00266(3) 0.96079(9) 1.28658(2)
N1 N 0.0236(3) 1.3711(10) 0.9005(2)
H1 H 0.0484 1.3799 0.8751
H2 H 0.0388 1.3282 0.9298
N2 N 0.0594(3) 1.0898(9) 1.0964(2)
N3 N -0.1686(3) 1.5448(9) 0.8767(3)
N4 N -0.0760(3) 1.3646(9) 0.9863(2)
N5 N 0.0742(3) 0.9141(9) 1.2314(2)
N6 N 0.1736(3) 0.8407(9) 1.2073(2)
N7 N -0.1764(3) 1.4668(10) 0.9672(3)
N8 N 0.1650(3) 0.9571(9) 1.1187(2)
C1 C -0.0809(4) 1.4192(10) 0.9347(3)
N9 N -0.0610(3) 1.4912(8) 0.8484(2)
N10 N -0.0246(3) 1.0977(9) 1.1524(2)
H3 H -0.0487 1.1528 1.1288
H4 H -0.0398 1.0734 1.1818
C2 C 0.2974(4) 1.0798(12) 1.1952(3)
H5 H 0.3091 1.0319 1.1620
H6 H 0.2561 1.1446 1.1899
C3 C 0.0359(4) 1.0503(10) 1.1433(3)
C4 C 0.1216(4) 1.0420(11) 1.0869(3)
H7 H 0.1353 1.0722 1.0544
C5 C -0.1437(4) 1.4812(10) 0.9220(3)
C6 C 0.2404(4) 0.7686(12) 1.2111(3)
H8 H 0.2426 0.6615 1.2341
H9 H 0.2522 0.7271 1.1774
C7 C 0.3617(4) 1.3769(13) 1.1783(4)
H10 H 0.3216 1.4453 1.1711
H11 H 0.3747 1.3243 1.1460
C8 C 0.1415(4) 0.9243(10) 1.1652(3)
C9 C 0.3491(4) 1.2189(13) 1.2151(4)
H12 H 0.3895 1.1518 1.2225
H13 H 0.3358 1.2718 1.2472
C10 C 0.0800(4) 0.9681(11) 1.1811(3)
C11 C 0.4134(5) 1.5113(13) 1.1984(4)
H14 H 0.4007 1.5598 1.2312
H15 H 0.4535 1.4419 1.2050
C12 C -0.0377(4) 1.4236(10) 0.8947(3)
C13 C 0.1313(4) 0.8395(11) 1.2453(3)
H16 H 0.1414 0.7908 1.2780
C14 C 0.4274(5) 1.6756(13) 1.1639(4)
H17 H 0.3871 1.7419 1.1556
H18 H 0.4431 1.6284 1.1319
C15 C 0.2891(4) 0.9174(13) 1.2315(3)
H19 H 0.3311 0.8584 1.2385
H20 H 0.2749 0.9654 1.2640
C16 C -0.1338(4) 1.3987(12) 1.0037(3)
H21 H -0.1440 1.3777 1.0377
C17 C -0.2452(4) 1.5204(15) 0.9720(4)
H22 H -0.2520 1.5485 1.0079
H23 H -0.2545 1.6327 0.9520
C18 C -0.1237(4) 1.5431(10) 0.8413(3)
H24 H -0.1373 1.5822 0.8082
C19 C -0.2913(4) 1.3679(12) 0.9537(3)
H25 H -0.2793 1.3262 0.9200
H26 H -0.3348 1.4200 0.9496
C20 C -0.2929(5) 1.2083(14) 0.9873(4)
H27 H -0.2511 1.1454 0.9878
H28 H -0.2996 1.2506 1.0221
C21 C 0.4768(6) 1.8122(15) 1.1873(5)
H29 H 0.4615 1.8588 1.2196
H30 H 0.5174 1.7467 1.1952
C22 C 0.4897(6) 1.9797(16) 1.1519(5)
H31 H 0.4495 2.0429 1.1430
H32 H 0.5193 2.0648 1.1696
H33 H 0.5083 1.9357 1.1211
O1 O -0.0990(4) 0.9033(12) 1.2236(2)
O2 O -0.0804(3) 0.9092(9) 1.0323(2)
N11 N -0.1373(5) 0.7782(11) 1.2077(2)
O3 O -0.1838(3) 0.7379(8) 1.2325(2)
O4 O -0.1286(3) 0.6981(11) 1.1653(3)
O5 O -0.1378(3) 1.0767(9) 1.0815(3)
N12 N -0.1336(4) 0.9359(11) 1.0519(3)
O6 O -0.1802(4) 0.8425(13) 1.0419(4)
C23 C -0.3469(6) 1.0678(17) 0.9706(5)
H34 H -0.3347 1.0016 0.9400
H35 H -0.3869 1.1351 0.9619
C24 C -0.3581(11) 0.929(3) 1.0129(8)
H36 H -0.3705 0.9950 1.0434
H37 H -0.3180 0.8622 1.0218
C26 C -0.4096(6) 0.7923(18) 0.9970(5)
H42 H -0.4516 0.8536 0.9928
H43 H -0.4002 0.7326 0.9648
C27 C -0.4092(13) 0.650(3) 1.0405(9)
H44 H -0.3837 0.7287 1.0645
H45 H -0.3766 0.5717 1.0258
C28 C -0.3992(12) 0.443(4) 1.1329(8)
H46 H -0.4273 0.3474 1.1451
H47 H -0.3563 0.3925 1.1301
H48 H -0.3974 0.5456 1.1567
C29 C -0.4251(13) 0.509(4) 1.0811(9)
H49 H -0.4280 0.3939 1.0614
H50 H -0.4697 0.5405 1.0875
Ag1B Ag 0.00414(3) 0.78570(8) 0.96512(2)
Ag2C Ag 0.00266(3) 1.53921(9) 0.78658(2)
N9C N -0.0610(3) 1.0088(8) 1.3484(2)
O2B O 0.0804(3) 1.0908(9) 0.9677(2)
O7 O 0.2258(5) 0.8747(12) 0.8417(3)
H38 H 0.2028 0.9085 0.8647
C25 C 0.2863(7) 0.977(2) 0.8455(6)
H39 H 0.2781 1.1042 0.8553
H40 H 0.3055 0.9763 0.8126
H41 H 0.3156 0.9201 0.8709
O8 O 0.2228(5) 0.5268(12) 0.8964(3)
C30 C 0.1606(17) 0.613(8) 0.8730(19)
loop_
_geom_bond_atom_site_label_1
_geom_bond_atom_site_label_2
_geom_bond_site_symmetry_1
_geom_bond_site_symmetry_2
Ag1 N2 1_555 1_555
Ag2 N5 1_555 1_555
N1 H1 1_555 1_555
H2 N1 1_555 1_555
N2 C3 1_555 1_555
N3 C5 1_555 1_555
N4 Ag1 1_555 1_555
N5 C10 1_555 1_555
N6 C6 1_555 1_555
N7 C5 1_555 1_555
N8 C4 1_555 1_555
C1 N4 1_555 1_555
N9 C12 1_555 1_555
N10 H3 1_555 1_555
H4 N10 1_555 1_555
C2 H5 1_555 1_555
H6 C2 1_555 1_555
C3 N10 1_555 1_555
C4 N2 1_555 1_555
H7 C4 1_555 1_555
C5 C1 1_555 1_555
C6 H8 1_555 1_555
H9 C6 1_555 1_555
C7 H10 1_555 1_555
H11 C7 1_555 1_555
C8 N6 1_555 1_555
C9 C2 1_555 1_555
H12 C9 1_555 1_555
H13 C9 1_555 1_555
C10 C3 1_555 1_555
C11 C7 1_555 1_555
H14 C11 1_555 1_555
H15 C11 1_555 1_555
C12 N1 1_555 1_555
C13 N5 1_555 1_555
H16 C13 1_555 1_555
C14 C11 1_555 1_555
H17 C14 1_555 1_555
H18 C14 1_555 1_555
C15 C2 1_555 1_555
H19 C15 1_555 1_555
H20 C15 1_555 1_555
C16 N4 1_555 1_555
H21 C16 1_555 1_555
C17 N7 1_555 1_555
H22 C17 1_555 1_555
H23 C17 1_555 1_555
C18 N3 1_555 1_555
H24 C18 1_555 1_555
C19 C17 1_555 1_555
H25 C19 1_555 1_555
H26 C19 1_555 1_555
C20 C19 1_555 1_555
H27 C20 1_555 1_555
H28 C20 1_555 1_555
C21 C14 1_555 1_555
H29 C21 1_555 1_555
H30 C21 1_555 1_555
C22 C21 1_555 1_555
H31 C22 1_555 1_555
H32 C22 1_555 1_555
H33 C22 1_555 1_555
O1 Ag2 1_555 1_555
O2 Ag1 1_555 1_555
N11 O1 1_555 1_555
O3 N11 1_555 1_555
O4 N11 1_555 1_555
O5 N12 1_555 1_555
N12 O2 1_555 1_555
O6 N12 1_555 1_555
C23 C20 1_555 1_555
H34 C23 1_555 1_555
H35 C23 1_555 1_555
C24 C23 1_555 1_555
H36 C24 1_555 1_555
H37 C24 1_555 1_555
O7 H38 1_555 1_555
C25 O7 1_555 1_555
H39 C25 1_555 1_555
H40 C25 1_555 1_555
H41 C25 1_555 1_555
O8 C30 1_555 1_555
C26 C24 1_555 1_555
H42 C26 1_555 1_555
H43 C26 1_555 1_555
C27 C26 1_555 1_555
H44 C27 1_555 1_555
H45 C27 1_555 1_555
C28 H46 1_555 1_555
H47 C28 1_555 1_555
H48 C28 1_555 1_555
C29 C27 1_555 1_555
H49 C29 1_555 1_555
H50 C29 1_555 1_555
Ag1B O2 1_555 1_555
Ag2C N9 1_555 1_555
N9C Ag2 1_555 1_555
O2B Ag1 1_555 1_555
N6 C13 1_555 1_555
N7 C16 1_555 1_555
N8 C8 1_555 1_555
C1 C12 1_555 1_555
N9 C18 1_555 1_555
C6 C15 1_555 1_555
C7 C9 1_555 1_555
C8 C10 1_555 1_555
C28 C29 1_555 1_555
Ag1B O2B 1_555 1_555

#END
