
#######################################################################
#
#                 Cambridge Crystallographic Data Centre
#                                CCDC 
#
#######################################################################
#
# If this CIF has been generated from an entry in the Cambridge 
# Structural Database, then it will include bibliographic, chemical, 
# crystal, experimental, refinement or atomic coordinate data resulting 
# from the CCDC's data processing and validation procedures.
#
#######################################################################

data_EKEGUX
_symmetry_cell_setting           triclinic
_symmetry_space_group_name_H-M   'P -1'
_symmetry_Int_Tables_number      2
_space_group_name_Hall           '-P 1'
loop_
_symmetry_equiv_pos_site_id
_symmetry_equiv_pos_as_xyz
1 x,y,z
2 -x,-y,-z
_cell_length_a                   5.4910(6)
_cell_length_b                   9.5929(11)
_cell_length_c                   11.2825(14)
_cell_angle_alpha                94.834(10)
_cell_angle_beta                 99.573(10)
_cell_angle_gamma                102.687(10)
_cell_volume                     567.192
loop_
_atom_site_label
_atom_site_type_symbol
_atom_site_fract_x
_atom_site_fract_y
_atom_site_fract_z
Cd1 Cd 0.27913(6) 0.27558(3) 0.64634(3)
C1 C 0.1131(8) 0.0000(5) 0.4663(4)
C2 C 0.6317(8) 0.5140(5) 0.5445(4)
O1 O 0.3042(6) 0.1041(3) 0.4975(3)
O2 O 0.0863(6) -0.1007(4) 0.3853(3)
O3 O 0.6407(6) 0.4417(3) 0.6317(3)
O4 O 0.8138(6) 0.6052(3) 0.5218(3)
N1 N 0.7704(7) 0.0936(4) 0.9232(4)
C3 C 0.6387(9) 0.1380(5) 0.8268(4)
H1 H 0.6660 0.1050 0.7514
N2 N 0.4759(7) 0.2223(4) 0.8255(3)
C4 C 0.4414(8) 0.2659(4) 0.9377(4)
C5 C 0.5656(8) 0.2285(5) 1.0411(4)
C6 C 0.7341(8) 0.1402(5) 1.0345(4)
N3 N 0.8661(7) 0.0991(4) 1.1304(4)
H2 H 0.9691 0.0452 1.1201
H3 H 0.8481 0.1264 1.2023
N4 N 0.4801(7) 0.2923(4) 1.1345(3)
H4 H 0.5254 0.2882 1.2106
C7 C 0.3145(10) 0.3614(5) 1.0841(5)
H5 H 0.2283 0.4132 1.1288
N5 N 0.2823(7) 0.3506(4) 0.9656(3)
O5 O 0.1091(6) 0.4364(3) 0.7465(3)
H6 H -0.0459 0.4425 0.7244
H7 H 0.1089 0.3822 0.8094
Cd1A Cd -0.27913(6) -0.27558(3) 0.35366(3)
Cd1A_2 Cd 0.72087(6) 0.72442(3) 0.35366(3)
C1A C -0.1131(8) 0.0000(5) 0.5337(4)
C2A C 0.3683(8) 0.4860(5) 0.4555(4)
O1A O -0.3042(6) -0.1041(3) 0.5025(3)
O2A O -0.0863(6) 0.1007(4) 0.6147(3)
O3A O 0.3593(6) 0.5583(3) 0.3683(3)
O3A_2 O -0.6407(6) -0.4417(3) 0.3683(3)
O4A O 0.1862(6) 0.3948(3) 0.4782(3)
O4_2 O -0.1862(6) -0.3948(3) 0.5218(3)
N1A N -0.7704(7) -0.0936(4) 0.0768(4)
C3A C -0.6387(9) -0.1380(5) 0.1732(4)
H1A H -0.6660 -0.1050 0.2486
N2A N -0.4759(7) -0.2223(4) 0.1745(3)
C4A C -0.4414(8) -0.2659(4) 0.0623(4)
C5A C -0.5656(8) -0.2285(5) -0.0411(4)
C6A C -0.7341(8) -0.1402(5) -0.0345(4)
N3A N -0.8661(7) -0.0991(4) -0.1304(4)
H2A H -0.9691 -0.0452 -0.1201
H3A H -0.8481 -0.1264 -0.2023
N4A N -0.4801(7) -0.2923(4) -0.1345(3)
H4A H -0.5254 -0.2882 -0.2106
C7A C -0.3145(10) -0.3614(5) -0.0841(5)
H5A H -0.2283 -0.4132 -0.1288
N5A N -0.2823(7) -0.3506(4) 0.0344(3)
O5A O -0.1091(6) -0.4364(3) 0.2535(3)
H6A H 0.0459 -0.4425 0.2756
H7A H -0.1089 -0.3822 0.1906
O6 O 0.6900(5) 0.2244(3) 1.3584(3)
H8 H 0.5915 0.2070 1.4135
H9 H 0.8260 0.2830 1.4017
loop_
_geom_bond_atom_site_label_1
_geom_bond_atom_site_label_2
_geom_bond_site_symmetry_1
_geom_bond_site_symmetry_2
Cd1 O1 1_555 1_555
C1 O1 1_555 1_555
C2 O3 1_555 1_555
O2 C1 1_555 1_555
O3 Cd1 1_555 1_555
O4 C2 1_555 1_555
N1 C3 1_555 1_555
C3 H1 1_555 1_555
N2 Cd1 1_555 1_555
C4 N2 1_555 1_555
C5 C4 1_555 1_555
C6 N1 1_555 1_555
N3 C6 1_555 1_555
H2 N3 1_555 1_555
H3 N3 1_555 1_555
N4 C5 1_555 1_555
H4 N4 1_555 1_555
C7 N4 1_555 1_555
H5 C7 1_555 1_555
N5 C4 1_555 1_555
O5 Cd1 1_555 1_555
O6 H8 1_555 1_555
H6 O5 1_555 1_555
H7 O5 1_555 1_555
H9 O6 1_555 1_555
Cd1A O2 1_555 1_555
Cd1A_2 O4 1_555 1_555
C1A C1 1_555 1_555
C2A C2 1_555 1_555
O1A Cd1A 1_555 1_555
O2A Cd1 1_555 1_555
O3A Cd1A_2 1_555 1_555
O3A_2 Cd1A 1_555 1_555
O4A Cd1 1_555 1_555
O4_2 Cd1A 1_555 1_555
N1A C3A 1_555 1_555
C3A H1A 1_555 1_555
N2A Cd1A 1_555 1_555
C4A N2A 1_555 1_555
C5A C4A 1_555 1_555
C6A N1A 1_555 1_555
N3A C6A 1_555 1_555
H2A N3A 1_555 1_555
H3A N3A 1_555 1_555
N4A C5A 1_555 1_555
H4A N4A 1_555 1_555
C7A N4A 1_555 1_555
H5A C7A 1_555 1_555
N5A C4A 1_555 1_555
O5A Cd1A 1_555 1_555
H6A O5A 1_555 1_555
H7A O5A 1_555 1_555
C3 N2 1_555 1_555
C5 C6 1_555 1_555
C7 N5 1_555 1_555
C1A O1A 1_555 1_555
C1A O2A 1_555 1_555
C2A O3A 1_555 1_555
C2A O4A 1_555 1_555
C3A N2A 1_555 1_555
C5A C6A 1_555 1_555
C7A N5A 1_555 1_555

#END
