
#######################################################################
#
#                 Cambridge Crystallographic Data Centre
#                                CCDC 
#
#######################################################################
#
# If this CIF has been generated from an entry in the Cambridge 
# Structural Database, then it will include bibliographic, chemical, 
# crystal, experimental, refinement or atomic coordinate data resulting 
# from the CCDC's data processing and validation procedures.
#
#######################################################################

data_EKEGEH
_symmetry_cell_setting           monoclinic
_symmetry_space_group_name_H-M   'C 2/c'
_symmetry_Int_Tables_number      15
_space_group_name_Hall           '-C 2yn'
loop_
_symmetry_equiv_pos_site_id
_symmetry_equiv_pos_as_xyz
1 x,y,z
2 -x,y,1/2-z
3 1/2+x,1/2+y,z
4 1/2-x,1/2+y,1/2-z
5 -x,-y,-z
6 x,-y,1/2+z
7 1/2-x,1/2-y,-z
8 1/2+x,1/2-y,1/2+z
_cell_length_a                   23.398(2)
_cell_length_b                   11.3008(10)
_cell_length_c                   23.425(2)
_cell_angle_alpha                90
_cell_angle_beta                 108.634(1)
_cell_angle_gamma                90
_cell_volume                     5869.25
loop_
_atom_site_label
_atom_site_type_symbol
_atom_site_fract_x
_atom_site_fract_y
_atom_site_fract_z
Nd1 Nd 0.082822(10) 0.015781(18) 0.320117(9)
F1 F -0.09389(13) 0.4015(2) 0.26755(14)
F2 F -0.09389(14) 0.6358(2) 0.26723(14)
F3 F 0.10594(17) -0.1907(3) 0.51748(14)
F4 F 0.10268(17) -0.1959(3) 0.62920(13)
F5 F 0.04931(16) 0.2057(3) 0.61713(13)
F6 F 0.05143(16) 0.2143(3) 0.50481(13)
O1 O 0.04685(15) 0.2122(3) 0.28345(15)
O2 O 0.04657(16) 0.8239(3) 0.28432(14)
O3 O 0.06688(16) -0.0774(3) 0.41173(13)
O4 O 0.09561(19) 0.1086(3) 0.42160(15)
O5 O 0.12336(17) 0.0074(3) 0.73139(15)
O6 O 0.02575(14) -0.0210(3) 0.69873(13)
C1 C 0.0000 0.2591(5) 0.2500
C2 C 0.0000 0.3935(5) 0.2500
C3 C -0.0473(2) 0.4580(4) 0.2575(2)
C4 C -0.0476(2) 0.5795(4) 0.2575(2)
C5 C 0.0000 0.6438(6) 0.2500
C6 C 0.0000 0.7770(5) 0.2500
C7 C 0.0807(2) 0.0146(4) 0.4421(2)
C8 C 0.0794(2) 0.0123(4) 0.50626(18)
C9 C 0.0916(2) -0.0909(4) 0.5403(2)
C10 C 0.0901(2) -0.0948(4) 0.5983(2)
C11 C 0.07590(19) 0.0048(4) 0.62640(19)
C12 C 0.0632(2) 0.1067(4) 0.5926(2)
C13 C 0.0655(2) 0.1115(4) 0.5341(2)
C14 C 0.0751(2) -0.0024(4) 0.69010(19)
O7 O 0.17478(15) 0.1342(3) 0.34129(16)
N1 N 0.2399(2) 0.2659(4) 0.3235(2)
C15 C 0.1876(2) 0.2110(5) 0.3100(3)
H1 H 0.1575 0.2321 0.2734
C16 C 0.2882(3) 0.2317(7) 0.3779(3)
H2 H 0.2703 0.2057 0.4089
H3 H 0.3139 0.3014 0.3939
C17 C 0.3261(3) 0.1349(9) 0.3666(4)
H4 H 0.3579 0.1149 0.4043
H5 H 0.3446 0.1608 0.3366
H6 H 0.3010 0.0650 0.3516
C18 C 0.2510(3) 0.3584(7) 0.2841(4)
H7 H 0.2198 0.3528 0.2439
H8 H 0.2907 0.3443 0.2787
C19 C 0.2500(4) 0.4809(7) 0.3088(5)
H9 H 0.2639 0.5379 0.2845
H10 H 0.2766 0.4839 0.3506
H11 H 0.2087 0.5008 0.3072
O8 O 0.16712(17) -0.1245(4) 0.36160(17)
H12 H 0.164(2) -0.192(5) 0.359(2)
C20 C 0.2155(4) -0.1091(7) 0.4169(4)
H13 H 0.2014 -0.1335 0.4507
H14 H 0.2257 -0.0239 0.4221
C21 C 0.2699(4) -0.1752(9) 0.4205(6)
H15 H 0.3025 -0.1510 0.4566
H16 H 0.2816 -0.1590 0.3847
H17 H 0.2622 -0.2600 0.4227
Nd1A Nd -0.082822(10) 0.015781(18) 0.179883(9)
Nd1_2 Nd 0.082822(10) 1.015781(18) 0.320117(9)
Nd1E Nd 0.082822(10) -0.015781(18) 0.820117(9)
Nd1D Nd -0.082822(10) -0.015781(18) 0.679883(9)
Nd1A_2 Nd -0.082822(10) 1.015781(18) 0.179883(9)
Nd1E_2 Nd 0.082822(10) -0.015781(18) -0.179883(9)
F1A F 0.09389(13) 0.4015(2) 0.23245(14)
F2A F 0.09389(14) 0.6358(2) 0.23277(14)
F3E F 0.10594(17) 0.1907(3) 0.01748(14)
F4E F 0.10268(17) 0.1959(3) 0.12920(13)
F5E F 0.04931(16) -0.2057(3) 0.11713(13)
F6E F 0.05143(16) -0.2143(3) 0.00481(13)
O1A O -0.04685(15) 0.2122(3) 0.21655(15)
O2A O -0.04657(16) 0.8239(3) 0.21568(14)
O2_2 O 0.04657(16) -0.1761(3) 0.28432(14)
O2A_2 O -0.04657(16) -0.1761(3) 0.21568(14)
O3E O 0.06688(16) 0.0774(3) -0.08827(13)
O3A O -0.06688(16) -0.0774(3) 0.08827(13)
O4E O 0.09561(19) -0.1086(3) -0.07840(15)
O4A O -0.09561(19) 0.1086(3) 0.07840(15)
O5E O 0.12336(17) -0.0074(3) 0.23139(15)
O5D O -0.12336(17) -0.0074(3) 0.26861(15)
O6E O 0.02575(14) 0.0210(3) 0.19873(13)
O6D O -0.02575(14) 0.0210(3) 0.30127(13)
C3A C 0.0473(2) 0.4580(4) 0.2425(2)
C4A C 0.0476(2) 0.5795(4) 0.2425(2)
C7E C 0.0807(2) -0.0146(4) -0.0579(2)
C8E C 0.0794(2) -0.0123(4) 0.00626(18)
C9E C 0.0916(2) 0.0909(4) 0.0403(2)
C10E C 0.0901(2) 0.0948(4) 0.0983(2)
C11E C 0.07590(19) -0.0048(4) 0.12640(19)
C12E C 0.0632(2) -0.1067(4) 0.0926(2)
C13E C 0.0655(2) -0.1115(4) 0.0341(2)
C14E C 0.0751(2) 0.0024(4) 0.19010(19)
O7A O -0.17478(15) 0.1342(3) 0.15871(16)
N1A N -0.2399(2) 0.2659(4) 0.1765(2)
C15A C -0.1876(2) 0.2110(5) 0.1900(3)
H1A H -0.1575 0.2321 0.2266
C16A C -0.2882(3) 0.2317(7) 0.1221(3)
H2A H -0.2703 0.2057 0.0911
H3A H -0.3139 0.3014 0.1061
C17A C -0.3261(3) 0.1349(9) 0.1334(4)
H4A H -0.3579 0.1149 0.0957
H5A H -0.3446 0.1608 0.1634
H6A H -0.3010 0.0650 0.1484
C18A C -0.2510(3) 0.3584(7) 0.2159(4)
H7A H -0.2198 0.3528 0.2561
H8A H -0.2907 0.3443 0.2213
C19A C -0.2500(4) 0.4809(7) 0.1912(5)
H9A H -0.2639 0.5379 0.2155
H10A H -0.2766 0.4839 0.1494
H11A H -0.2087 0.5008 0.1928
O8A O -0.16712(17) -0.1245(4) 0.13840(17)
H12A H -0.164(2) -0.192(5) 0.141(2)
C20A C -0.2155(4) -0.1091(7) 0.0831(4)
H13A H -0.2014 -0.1335 0.0493
H14A H -0.2257 -0.0239 0.0779
C21A C -0.2699(4) -0.1752(9) 0.0795(6)
H15A H -0.3025 -0.1510 0.0434
H16A H -0.2816 -0.1590 0.1153
H17A H -0.2622 -0.2600 0.0773
O9 O 0.1448(2) -0.3558(3) 0.3732(2)
N2 N 0.0924(3) -0.4818(4) 0.4136(2)
C22 C 0.1069(3) -0.3740(5) 0.3983(3)
H18 H 0.0865 -0.3076 0.4075
C23 C 0.0500(4) -0.4943(6) 0.4472(3)
H19 H 0.0410 -0.4151 0.4602
H20 H 0.0690 -0.5420 0.4838
C24 C -0.0082(4) -0.5525(9) 0.4109(3)
H21 H -0.0334 -0.5657 0.4366
H22 H 0.0006 -0.6285 0.3954
H23 H -0.0296 -0.5011 0.3771
C25 C 0.1245(3) -0.5860(5) 0.4039(3)
H24 H 0.1364 -0.5737 0.3674
H25 H 0.0969 -0.6548 0.3964
C26 C 0.1794(4) -0.6132(8) 0.4557(3)
H26 H 0.1976 -0.6868 0.4476
H27 H 0.1682 -0.6225 0.4923
H28 H 0.2084 -0.5483 0.4612
loop_
_geom_bond_atom_site_label_1
_geom_bond_atom_site_label_2
_geom_bond_site_symmetry_1
_geom_bond_site_symmetry_2
Nd1 O1 1_555 1_555
F1 C3 1_555 1_555
F2 C4 1_555 1_555
F3 C9 1_555 1_555
F4 C10 1_555 1_555
F5 C12 1_555 1_555
F6 C13 1_555 1_555
O1 C1 1_555 1_555
O2 C6 1_555 1_555
O3 Nd1 1_555 1_555
O4 Nd1 1_555 1_555
O5 C14 1_555 1_555
O6 C14 1_555 1_555
C1 C2 1_555 1_555
C2 C3 1_555 1_555
C3 C4 1_555 1_555
C4 C5 1_555 1_555
C5 C6 1_555 1_555
C6 O2A 1_555 1_555
C7 O3 1_555 1_555
C8 C7 1_555 1_555
C9 C8 1_555 1_555
C10 C9 1_555 1_555
C11 C10 1_555 1_555
C12 C11 1_555 1_555
C13 C8 1_555 1_555
C14 C11 1_555 1_555
O7 Nd1 1_555 1_555
N1 C15 1_555 1_555
C15 O7 1_555 1_555
H1 C15 1_555 1_555
C16 N1 1_555 1_555
H2 C16 1_555 1_555
H3 C16 1_555 1_555
C17 C16 1_555 1_555
H4 C17 1_555 1_555
H5 C17 1_555 1_555
H6 C17 1_555 1_555
C18 N1 1_555 1_555
H7 C18 1_555 1_555
H8 C18 1_555 1_555
C19 C18 1_555 1_555
H9 C19 1_555 1_555
H10 C19 1_555 1_555
H11 C19 1_555 1_555
O8 Nd1 1_555 1_555
H12 O8 1_555 1_555
C20 O8 1_555 1_555
H13 C20 1_555 1_555
H14 C20 1_555 1_555
C21 C20 1_555 1_555
H15 C21 1_555 1_555
H16 C21 1_555 1_555
H17 C21 1_555 1_555
O9 C22 1_555 1_555
N2 C22 1_555 1_555
C22 H18 1_555 1_555
C23 N2 1_555 1_555
H19 C23 1_555 1_555
H20 C23 1_555 1_555
C24 C23 1_555 1_555
H21 C24 1_555 1_555
H22 C24 1_555 1_555
H23 C24 1_555 1_555
C25 N2 1_555 1_555
H24 C25 1_555 1_555
H25 C25 1_555 1_555
C26 C25 1_555 1_555
H26 C26 1_555 1_555
H27 C26 1_555 1_555
H28 C26 1_555 1_555
Nd1A O1A 1_555 1_555
Nd1_2 O2 1_555 1_555
Nd1E O5 1_555 1_555
Nd1D O6 1_555 1_555
Nd1A_2 O2A 1_555 1_555
Nd1E_2 O3E 1_555 1_555
F1A C3A 1_555 1_555
F2A C4A 1_555 1_555
F3E C9E 1_555 1_555
F4E C10E 1_555 1_555
F5E C12E 1_555 1_555
F6E C13E 1_555 1_555
O1A C1 1_555 1_555
O2_2 Nd1 1_555 1_555
O2A_2 Nd1A 1_555 1_555
O3E C7E 1_555 1_555
O3A Nd1A 1_555 1_555
O4E Nd1E_2 1_555 1_555
O4A Nd1A 1_555 1_555
O5E Nd1 1_555 1_555
O5D Nd1A 1_555 1_555
O6E Nd1 1_555 1_555
O6D Nd1 1_555 1_555
C3A C2 1_555 1_555
C4A C5 1_555 1_555
C7E O4E 1_555 1_555
C8E C7E 1_555 1_555
C9E C8E 1_555 1_555
C10E C9E 1_555 1_555
C11E C10E 1_555 1_555
C12E C11E 1_555 1_555
C13E C8E 1_555 1_555
C14E O5E 1_555 1_555
O7A Nd1A 1_555 1_555
N1A C15A 1_555 1_555
C15A O7A 1_555 1_555
H1A C15A 1_555 1_555
C16A N1A 1_555 1_555
H2A C16A 1_555 1_555
H3A C16A 1_555 1_555
C17A C16A 1_555 1_555
H4A C17A 1_555 1_555
H5A C17A 1_555 1_555
H6A C17A 1_555 1_555
C18A N1A 1_555 1_555
H7A C18A 1_555 1_555
H8A C18A 1_555 1_555
C19A C18A 1_555 1_555
H9A C19A 1_555 1_555
H10A C19A 1_555 1_555
H11A C19A 1_555 1_555
O8A Nd1A 1_555 1_555
H12A O8A 1_555 1_555
C20A O8A 1_555 1_555
H13A C20A 1_555 1_555
H14A C20A 1_555 1_555
C21A C20A 1_555 1_555
H15A C21A 1_555 1_555
H16A C21A 1_555 1_555
H17A C21A 1_555 1_555
O4 C7 1_555 1_555
O6 Nd1E 1_555 1_555
C12 C13 1_555 1_555
Nd1A O6E 1_555 1_555
Nd1A O6D 1_555 1_555
O6E C14E 1_555 1_555
C3A C4A 1_555 1_555
C11E C14E 1_555 1_555
C12E C13E 1_555 1_555

#END
