
#######################################################################
#
#                 Cambridge Crystallographic Data Centre
#                                CCDC 
#
#######################################################################
#
# If this CIF has been generated from an entry in the Cambridge 
# Structural Database, then it will include bibliographic, chemical, 
# crystal, experimental, refinement or atomic coordinate data resulting 
# from the CCDC's data processing and validation procedures.
#
#######################################################################

data_EKEKAH
_symmetry_cell_setting           monoclinic
_symmetry_space_group_name_H-M   'C 2/c'
_symmetry_Int_Tables_number      15
_space_group_name_Hall           '-C 2yn'
loop_
_symmetry_equiv_pos_site_id
_symmetry_equiv_pos_as_xyz
1 x,y,z
2 -x,y,1/2-z
3 1/2+x,1/2+y,z
4 1/2-x,1/2+y,1/2-z
5 -x,-y,-z
6 x,-y,1/2+z
7 1/2-x,1/2-y,-z
8 1/2+x,1/2-y,1/2+z
_cell_length_a                   11.7659(6)
_cell_length_b                   15.5152(8)
_cell_length_c                   21.3771(11)
_cell_angle_alpha                90
_cell_angle_beta                 94.537(2)
_cell_angle_gamma                90
_cell_volume                     3890.17
loop_
_atom_site_label
_atom_site_type_symbol
_atom_site_fract_x
_atom_site_fract_y
_atom_site_fract_z
Ni1 Ni 0.36445(4) 0.17709(3) 0.285016(19)
C1 C 0.4656(3) 0.2883(2) 0.38689(17)
C2 C 0.4928(3) 0.2804(2) 0.45732(16)
C3 C 0.5994(3) 0.3072(2) 0.48239(17)
H1 H 0.6467 0.3384 0.4579
C4 C 0.6352(3) 0.2870(3) 0.54417(17)
H2 H 0.7067 0.3052 0.5607
C5 C 0.5664(3) 0.2403(2) 0.58172(16)
C6 C 0.4575(3) 0.2183(3) 0.55688(17)
H3 H 0.4084 0.1899 0.5819
C7 C 0.4210(3) 0.2382(3) 0.49548(17)
H4 H 0.3477 0.2231 0.4797
C8 C 0.6136(3) 0.2120(2) 0.64475(16)
C9 C 0.6902(3) 0.2646(2) 0.68055(16)
H5 H 0.7061 0.3187 0.6647
C10 C 0.7199(4) 0.1643(3) 0.75782(19)
H6 H 0.7561 0.1472 0.7961
C11 C 0.6455(4) 0.1074(3) 0.7260(2)
H7 H 0.6324 0.0533 0.7427
C12 C 0.5907(4) 0.1320(3) 0.66899(19)
H8 H 0.5393 0.0951 0.6474
C13 C 0.5915(3) 0.0838(2) 0.33273(15)
C14 C 0.6470(3) 0.0466(2) 0.39270(15)
C15 C 0.7471(3) -0.0019(2) 0.39410(16)
H9 H 0.7804 -0.0136 0.3570
C16 C 0.7972(3) -0.0328(2) 0.45097(17)
H10 H 0.8636 -0.0654 0.4514
C17 C 0.7492(3) -0.0156(2) 0.50699(16)
C18 C 0.6508(3) 0.0339(2) 0.50506(17)
H11 H 0.6192 0.0475 0.5423
C19 C 0.5990(3) 0.0633(2) 0.44890(17)
H12 H 0.5315 0.0945 0.4486
C20 C 0.7993(3) -0.0471(2) 0.56890(17)
C21 C 0.9133(4) -0.0436(4) 0.5878(2)
H13 H 0.9652 -0.0229 0.5608
C22 C 0.9504(4) -0.0712(4) 0.6476(2)
H14 H 1.0271 -0.0682 0.6617
C23 C 0.8708(4) -0.1035(3) 0.68617(19)
H15 H 0.8956 -0.1211 0.7265
C24 C 0.7271(3) -0.0816(3) 0.61016(16)
H16 H 0.6500 -0.0852 0.5971
O1 O 0.3730(2) 0.25455(19) 0.36453(12)
O2 O 0.5378(3) 0.3239(2) 0.35596(13)
O3 O 0.4885(2) 0.10341(19) 0.33358(12)
O4 O 0.6531(2) 0.09275(16) 0.28772(11)
O5 O 0.5000 0.2469(2) 0.2500
H17 H 0.518(4) 0.276(3) 0.279(2)
N1 N 0.7420(3) 0.2423(2) 0.73607(13)
N2 N 0.7608(2) -0.1103(2) 0.66777(13)
Ni1G Ni -0.13555(4) 0.32291(3) -0.214984(19)
Ni1A Ni 0.63555(4) 0.17709(3) 0.214984(19)
Ni1G_2 Ni 0.86445(4) 0.32291(3) 0.785016(19)
Ni1D Ni 0.63555(4) -0.17709(3) 0.714984(19)
Ni1E Ni 0.36445(4) -0.17709(3) -0.214984(19)
C1G C -0.0344(3) 0.2117(2) -0.11311(17)
C2G C -0.0072(3) 0.2196(2) -0.04268(16)
C3G C 0.0994(3) 0.1928(2) -0.01761(17)
H1G H 0.1467 0.1616 -0.0421
C4G C 0.1352(3) 0.2130(3) 0.04417(17)
H2G H 0.2067 0.1948 0.0607
C5G C 0.0664(3) 0.2597(2) 0.08172(16)
C6G C -0.0425(3) 0.2817(3) 0.05688(17)
H3G H -0.0916 0.3101 0.0819
C7G C -0.0790(3) 0.2618(3) -0.00452(17)
H4G H -0.1523 0.2769 -0.0203
C8G C 0.1136(3) 0.2880(2) 0.14475(16)
C9G C 0.1902(3) 0.2354(2) 0.18055(16)
H5G H 0.2061 0.1813 0.1647
C10G C 0.2199(4) 0.3357(3) 0.25782(19)
H6G H 0.2561 0.3528 0.2961
C11G C 0.1455(4) 0.3926(3) 0.2260(2)
H7G H 0.1324 0.4467 0.2427
C12G C 0.0907(4) 0.3680(3) 0.16899(19)
H8G H 0.0393 0.4049 0.1474
C13A C 0.4085(3) 0.0838(2) 0.16727(15)
C14A C 0.3530(3) 0.0466(2) 0.10730(15)
C15A C 0.2529(3) -0.0019(2) 0.10590(16)
H9A H 0.2196 -0.0136 0.1430
C16A C 0.2028(3) -0.0328(2) 0.04903(17)
H10A H 0.1364 -0.0654 0.0486
C17A C 0.2508(3) -0.0156(2) -0.00699(16)
C18A C 0.3492(3) 0.0339(2) -0.00506(17)
H11A H 0.3808 0.0475 -0.0423
C19A C 0.4010(3) 0.0633(2) 0.05110(17)
H12A H 0.4685 0.0945 0.0514
C20A C 0.2007(3) -0.0471(2) -0.06890(17)
C21A C 0.0867(4) -0.0436(4) -0.0878(2)
H13A H 0.0348 -0.0229 -0.0608
C22A C 0.0496(4) -0.0712(4) -0.1476(2)
H14A H -0.0271 -0.0682 -0.1617
C23A C 0.1292(4) -0.1035(3) -0.18617(19)
H15A H 0.1044 -0.1211 -0.2265
C24A C 0.2729(3) -0.0816(3) -0.11016(16)
H16A H 0.3500 -0.0852 -0.0971
O1G O -0.1270(2) 0.24545(19) -0.13547(12)
O2G O 0.0378(3) 0.1761(2) -0.14404(13)
O3A O 0.5115(2) 0.10341(19) 0.16642(12)
O3G O -0.0115(2) 0.39659(19) -0.16642(12)
O4A O 0.3469(2) 0.09275(16) 0.21228(11)
O4F O -0.1531(2) 0.40725(16) -0.28772(11)
O5F O 0.0000 0.2531(2) -0.2500
H17A H 0.482(4) 0.276(3) 0.221(2)
H17G H 0.018(4) 0.224(3) -0.221(2)
H17F H -0.018(4) 0.224(3) -0.279(2)
N1G N 0.2420(3) 0.2577(2) 0.23607(13)
N1_2 N -0.2580(3) 0.2423(2) -0.26393(13)
N2A N 0.2392(2) -0.1103(2) -0.16777(13)
N2D N 0.2392(2) 0.1103(2) 0.33223(13)
N2C N -0.2608(2) 0.3897(2) -0.16777(13)
loop_
_geom_bond_atom_site_label_1
_geom_bond_atom_site_label_2
_geom_bond_site_symmetry_1
_geom_bond_site_symmetry_2
Ni1 O1 1_555 1_555
C1 C2 1_555 1_555
C2 C3 1_555 1_555
C3 H1 1_555 1_555
C4 C3 1_555 1_555
H2 C4 1_555 1_555
C5 C4 1_555 1_555
C6 C5 1_555 1_555
H3 C6 1_555 1_555
C7 C2 1_555 1_555
H4 C7 1_555 1_555
C8 C5 1_555 1_555
C9 C8 1_555 1_555
H5 C9 1_555 1_555
C10 H6 1_555 1_555
C11 C10 1_555 1_555
H7 C11 1_555 1_555
C12 C8 1_555 1_555
H8 C12 1_555 1_555
C13 C14 1_555 1_555
C14 C15 1_555 1_555
C15 H9 1_555 1_555
C16 C15 1_555 1_555
H10 C16 1_555 1_555
C17 C16 1_555 1_555
C18 C17 1_555 1_555
H11 C18 1_555 1_555
C19 C14 1_555 1_555
H12 C19 1_555 1_555
C20 C17 1_555 1_555
C21 C20 1_555 1_555
H13 C21 1_555 1_555
C22 C21 1_555 1_555
H14 C22 1_555 1_555
C23 C22 1_555 1_555
H15 C23 1_555 1_555
C24 C20 1_555 1_555
H16 C24 1_555 1_555
O1 C1 1_555 1_555
O2 C1 1_555 1_555
O3 Ni1 1_555 1_555
O4 C13 1_555 1_555
O5 Ni1 1_555 1_555
H17 O5 1_555 1_555
N1 C9 1_555 1_555
N2 C23 1_555 1_555
Ni1G O1G 1_555 1_555
Ni1A O4 1_555 1_555
Ni1G_2 N1 1_555 1_555
Ni1D N2 1_555 1_555
Ni1E N2A 1_555 1_555
C1G C2G 1_555 1_555
C2G C3G 1_555 1_555
C3G H1G 1_555 1_555
C4G C3G 1_555 1_555
H2G C4G 1_555 1_555
C5G C4G 1_555 1_555
C6G C5G 1_555 1_555
H3G C6G 1_555 1_555
C7G C2G 1_555 1_555
H4G C7G 1_555 1_555
C8G C5G 1_555 1_555
C9G C8G 1_555 1_555
H5G C9G 1_555 1_555
C10G H6G 1_555 1_555
C11G C10G 1_555 1_555
H7G C11G 1_555 1_555
C12G C8G 1_555 1_555
H8G C12G 1_555 1_555
C13A C14A 1_555 1_555
C14A C15A 1_555 1_555
C15A H9A 1_555 1_555
C16A C15A 1_555 1_555
H10A C16A 1_555 1_555
C17A C16A 1_555 1_555
C18A C17A 1_555 1_555
H11A C18A 1_555 1_555
C19A C14A 1_555 1_555
H12A C19A 1_555 1_555
C20A C17A 1_555 1_555
C21A C20A 1_555 1_555
H13A C21A 1_555 1_555
C22A C21A 1_555 1_555
H14A C22A 1_555 1_555
C23A C22A 1_555 1_555
H15A C23A 1_555 1_555
C24A C20A 1_555 1_555
H16A C24A 1_555 1_555
O1G C1G 1_555 1_555
O2G C1G 1_555 1_555
O3A Ni1A 1_555 1_555
O3G Ni1G 1_555 1_555
O4A Ni1 1_555 1_555
O4F Ni1G 1_555 1_555
O5F Ni1G 1_555 1_555
H17A O5 1_555 1_555
H17G O5F 1_555 1_555
H17F O5F 1_555 1_555
N1G Ni1 1_555 1_555
N1_2 Ni1G 1_555 1_555
N2A C23A 1_555 1_555
N2D Ni1 1_555 1_555
N2C Ni1G 1_555 1_555
C6 C7 1_555 1_555
C10 N1 1_555 1_555
C11 C12 1_555 1_555
C13 O3 1_555 1_555
C18 C19 1_555 1_555
C24 N2 1_555 1_555
O5 Ni1A 1_555 1_555
C6G C7G 1_555 1_555
C9G N1G 1_555 1_555
C10G N1G 1_555 1_555
C11G C12G 1_555 1_555
C13A O3A 1_555 1_555
C13A O4A 1_555 1_555
C18A C19A 1_555 1_555
C24A N2A 1_555 1_555

#END
