
#######################################################################
#
#                 Cambridge Crystallographic Data Centre
#                                CCDC 
#
#######################################################################
#
# If this CIF has been generated from an entry in the Cambridge 
# Structural Database, then it will include bibliographic, chemical, 
# crystal, experimental, refinement or atomic coordinate data resulting 
# from the CCDC's data processing and validation procedures.
#
#######################################################################

data_EKERAO
_symmetry_cell_setting           monoclinic
_symmetry_space_group_name_H-M   'C 2/c'
_symmetry_Int_Tables_number      15
_space_group_name_Hall           '-C 2yn'
loop_
_symmetry_equiv_pos_site_id
_symmetry_equiv_pos_as_xyz
1 x,y,z
2 1/2+x,1/2+y,z
3 -x,y,1/2-z
4 1/2-x,1/2+y,1/2-z
5 -x,-y,-z
6 1/2-x,1/2-y,-z
7 x,-y,1/2+z
8 1/2+x,1/2-y,1/2+z
_cell_length_a                   19.824(19)
_cell_length_b                   14.211(13)
_cell_length_c                   11.441(11)
_cell_angle_alpha                90
_cell_angle_beta                 124.618(9)
_cell_angle_gamma                90
_cell_volume                     2652.51
loop_
_atom_site_label
_atom_site_type_symbol
_atom_site_fract_x
_atom_site_fract_y
_atom_site_fract_z
Cu1 Cu 0.5000 0.61848(2) 0.7500
Cu2 Cu 0.5000 0.80666(3) 0.7500
O1 O 0.41721(10) 0.78324(11) 0.53557(17)
O2 O 0.43805(10) 0.62581(11) 0.54293(17)
O3 O 0.09055(10) 0.69861(11) 0.22718(19)
O4 O 0.10821(9) 0.85523(11) 0.26881(17)
N1 N 0.5000 0.46459(19) 0.7500
N2 N 0.5000 -0.03972(19) 0.7500
C1 C 0.52809(14) 0.41515(15) 0.8710(2)
H1 H 0.5483 0.4489 0.9565
C2 C 0.52862(14) 0.31674(16) 0.8752(2)
H2 H 0.5481 0.2849 0.9619
C3 C 0.5000 0.2650(2) 0.7500
C4 C 0.47779(14) 0.00944(15) 0.8240(2)
H3 H 0.4611 -0.0245 0.8750
C5 C 0.47816(14) 0.10788(15) 0.8295(2)
H4 H 0.4639 0.1395 0.8858
C6 C 0.5000 0.1596(2) 0.7500
C7 C 0.40386(13) 0.70262(16) 0.4771(2)
C8 C 0.34174(14) 0.69513(17) 0.3160(2)
H5 H 0.3586 0.6433 0.2802
H6 H 0.3432 0.7542 0.2716
C9 C 0.25099(13) 0.67693(17) 0.2678(2)
C10 C 0.21909(13) 0.77023(16) 0.2921(3)
H7 H 0.2580 0.7879 0.3930
H8 H 0.2226 0.8197 0.2348
C11 C 0.13241(13) 0.77464(16) 0.2591(2)
C12 C 0.24929(15) 0.59346(18) 0.3539(3)
H9 H 0.2821 0.6095 0.4552
H10 H 0.2721 0.5372 0.3390
H11 H 0.1926 0.5811 0.3219
C13 C 0.19926(15) 0.6546(2) 0.1060(3)
H12 H 0.1407 0.6534 0.0711
H13 H 0.2064 0.7069 0.0568
C14 C 0.2193(3) 0.5616(4) 0.0624(5)
H14 H 0.1834 0.5546 -0.0411
H15 H 0.2106 0.5087 0.1074
H16 H 0.2766 0.5623 0.0933
Cu1E Cu 0.0000 0.88152(2) 0.2500
Cu1E_2 Cu 1.0000 0.88152(2) 1.2500
Cu2E Cu 0.0000 0.69334(3) 0.2500
Cu2_2 Cu 0.5000 -0.19334(3) 0.7500
Cu2E_2 Cu 1.0000 0.69334(3) 1.2500
O1B O 0.58279(10) 0.78324(11) 0.96443(17)
O2B O 0.56195(10) 0.62581(11) 0.95707(17)
O3B O 0.90945(10) 0.69861(11) 1.27282(19)
O3E O 0.40945(10) 0.80139(11) 0.77282(19)
O3G O 0.59055(10) 0.80139(11) 0.72718(19)
O4B O 0.89179(9) 0.85523(11) 1.23119(17)
O4E O 0.39179(9) 0.64477(11) 0.73119(17)
O4G O 0.60821(9) 0.64477(11) 0.76881(17)
N2_2 N 0.5000 0.96028(19) 0.7500
C1B C 0.47191(14) 0.41515(15) 0.6290(2)
H1B H 0.4517 0.4489 0.5435
C2B C 0.47138(14) 0.31674(16) 0.6248(2)
H2B H 0.4519 0.2849 0.5381
C4B C 0.52221(14) 0.00944(15) 0.6760(2)
H3B H 0.5389 -0.0245 0.6250
C5B C 0.52184(14) 0.10788(15) 0.6705(2)
H4B H 0.5361 0.1395 0.6142
C7B C 0.59614(13) 0.70262(16) 1.0229(2)
C8B C 0.65826(14) 0.69513(17) 1.1840(2)
H5B H 0.6414 0.6433 1.2198
H6B H 0.6568 0.7542 1.2284
C9B C 0.74901(13) 0.67693(17) 1.2322(2)
C10B C 0.78091(13) 0.77023(16) 1.2079(3)
H7B H 0.7420 0.7879 1.1070
H8B H 0.7774 0.8197 1.2652
C11B C 0.86759(13) 0.77464(16) 1.2409(2)
C12B C 0.75071(15) 0.59346(18) 1.1461(3)
H9B H 0.7179 0.6095 1.0448
H10B H 0.7279 0.5372 1.1610
H11B H 0.8074 0.5811 1.1781
C13B C 0.80074(15) 0.6546(2) 1.3940(3)
H12B H 0.8593 0.6534 1.4289
H13B H 0.7936 0.7069 1.4432
C14B C 0.7807(3) 0.5616(4) 1.4376(5)
H14B H 0.8166 0.5546 1.5411
H15B H 0.7894 0.5087 1.3926
H16B H 0.7234 0.5623 1.4067
loop_
_geom_bond_atom_site_label_1
_geom_bond_atom_site_label_2
_geom_bond_site_symmetry_1
_geom_bond_site_symmetry_2
Cu1 O2 1_555 1_555
Cu2 O1 1_555 1_555
O1 C7 1_555 1_555
O2 C7 1_555 1_555
O3 C11 1_555 1_555
O4 C11 1_555 1_555
N1 Cu1 1_555 1_555
N2 C4 1_555 1_555
C1 N1 1_555 1_555
H1 C1 1_555 1_555
C2 C1 1_555 1_555
H2 C2 1_555 1_555
C3 C2 1_555 1_555
C4 H3 1_555 1_555
C5 C4 1_555 1_555
H4 C5 1_555 1_555
C6 C3 1_555 1_555
C7 C8 1_555 1_555
C8 H5 1_555 1_555
H6 C8 1_555 1_555
C9 C8 1_555 1_555
C10 C9 1_555 1_555
H7 C10 1_555 1_555
H8 C10 1_555 1_555
C11 C10 1_555 1_555
C12 C9 1_555 1_555
H9 C12 1_555 1_555
H10 C12 1_555 1_555
H11 C12 1_555 1_555
C13 C9 1_555 1_555
H12 C13 1_555 1_555
H13 C13 1_555 1_555
C14 C13 1_555 1_555
H14 C14 1_555 1_555
H15 C14 1_555 1_555
H16 C14 1_555 1_555
Cu1E O4 1_555 1_555
Cu1E_2 O4B 1_555 1_555
Cu2E O3 1_555 1_555
Cu2_2 N2 1_555 1_555
Cu2E_2 O3B 1_555 1_555
O1B Cu2 1_555 1_555
O2B Cu1 1_555 1_555
O3B C11B 1_555 1_555
O3E Cu2 1_555 1_555
O3G Cu2 1_555 1_555
O4B C11B 1_555 1_555
O4E Cu1 1_555 1_555
O4G Cu1 1_555 1_555
N2_2 Cu2 1_555 1_555
C1B N1 1_555 1_555
H1B C1B 1_555 1_555
C2B C3 1_555 1_555
H2B C2B 1_555 1_555
C4B N2 1_555 1_555
H3B C4B 1_555 1_555
C5B C6 1_555 1_555
H4B C5B 1_555 1_555
C7B O1B 1_555 1_555
C8B C7B 1_555 1_555
H5B C8B 1_555 1_555
H6B C8B 1_555 1_555
C9B C8B 1_555 1_555
C10B C9B 1_555 1_555
H7B C10B 1_555 1_555
H8B C10B 1_555 1_555
C11B C10B 1_555 1_555
C12B C9B 1_555 1_555
H9B C12B 1_555 1_555
H10B C12B 1_555 1_555
H11B C12B 1_555 1_555
C13B C9B 1_555 1_555
H12B C13B 1_555 1_555
H13B C13B 1_555 1_555
C14B C13B 1_555 1_555
H14B C14B 1_555 1_555
H15B C14B 1_555 1_555
H16B C14B 1_555 1_555
C5 C6 1_555 1_555
O2B C7B 1_555 1_555
C1B C2B 1_555 1_555
C4B C5B 1_555 1_555

#END
