
#######################################################################
#
#                 Cambridge Crystallographic Data Centre
#                                CCDC 
#
#######################################################################
#
# If this CIF has been generated from an entry in the Cambridge 
# Structural Database, then it will include bibliographic, chemical, 
# crystal, experimental, refinement or atomic coordinate data resulting 
# from the CCDC's data processing and validation procedures.
#
#######################################################################

data_EKEVAR
_symmetry_cell_setting           monoclinic
_symmetry_space_group_name_H-M   'C 2/c'
_symmetry_Int_Tables_number      15
_space_group_name_Hall           '-C 2yn'
loop_
_symmetry_equiv_pos_site_id
_symmetry_equiv_pos_as_xyz
1 x,y,z
2 1/2+x,1/2+y,z
3 -x,y,1/2-z
4 1/2-x,1/2+y,1/2-z
5 -x,-y,-z
6 1/2-x,1/2-y,-z
7 x,-y,1/2+z
8 1/2+x,1/2-y,1/2+z
_cell_length_a                   17.5517(6)
_cell_length_b                   9.3166(6)
_cell_length_c                   7.1710(4)
_cell_angle_alpha                90
_cell_angle_beta                 110.860(2)
_cell_angle_gamma                90
_cell_volume                     1095.76
loop_
_atom_site_label
_atom_site_type_symbol
_atom_site_fract_x
_atom_site_fract_y
_atom_site_fract_z
Cd1 Cd 0.5000 0.58652(3) 0.7500
Cl1 Cl 0.59307(5) 0.41676(9) 1.01188(13)
C1 C 0.3487(2) 0.7879(5) 0.4744(6)
H1 H 0.3263 0.6989 0.4264
C2 C 0.3018(2) 0.9094(5) 0.4072(6)
H2 H 0.2486 0.9023 0.3172
C3 C 0.3354(3) 1.0404(5) 0.4758(6)
H3 H 0.3051 1.1238 0.4319
C4 C 0.4139(3) 1.0482(4) 0.6096(6)
H4 H 0.4377 1.1366 0.6560
C5 C 0.4574(2) 0.9218(3) 0.6747(5)
N1 N 0.42536(16) 0.7934(3) 0.6064(4)
C5B C 0.5426(2) 0.9218(3) 0.8253(5)
C4B C 0.5861(3) 1.0482(4) 0.8904(6)
C3B C 0.6646(3) 1.0404(5) 1.0242(6)
C2B C 0.6982(2) 0.9094(5) 1.0928(6)
C1B C 0.6513(2) 0.7879(5) 1.0256(6)
H1B H 0.6737 0.6989 1.0736
N1B N 0.57464(16) 0.7934(3) 0.8936(4)
H2B H 0.7514 0.9023 1.1828
H3B H 0.6949 1.1238 1.0681
H4B H 0.5623 1.1366 0.8440
Cl1F Cl 0.59307(5) 0.58324(9) 0.51188(13)
Cl1D Cl 0.40693(5) 0.58324(9) 0.98812(13)
Cl1B Cl 0.40693(5) 0.41676(9) 0.48812(13)
Cd1F Cd 0.5000 0.41348(3) 1.2500
Cd1F_2 Cd 0.5000 0.41348(3) 0.2500
loop_
_geom_bond_atom_site_label_1
_geom_bond_atom_site_label_2
_geom_bond_site_symmetry_1
_geom_bond_site_symmetry_2
Cd1 Cl1 1_555 1_555
Cl1 Cd1F 1_555 1_555
C1 H1 1_555 1_555
C2 C1 1_555 1_555
H2 C2 1_555 1_555
C3 C2 1_555 1_555
H3 C3 1_555 1_555
C4 C3 1_555 1_555
H4 C4 1_555 1_555
C5 C4 1_555 1_555
N1 Cd1 1_555 1_555
C5B C5 1_555 1_555
C4B C5B 1_555 1_555
C3B C4B 1_555 1_555
C2B C3B 1_555 1_555
C1B C2B 1_555 1_555
H1B C1B 1_555 1_555
N1B Cd1 1_555 1_555
H2B C2B 1_555 1_555
H3B C3B 1_555 1_555
H4B C4B 1_555 1_555
Cl1F Cd1 1_555 1_555
Cl1D Cd1 1_555 1_555
Cl1B Cd1 1_555 1_555
Cd1F Cl1D 1_555 1_555
Cd1F_2 Cl1F 1_555 1_555
C1 N1 1_555 1_555
C5 N1 1_555 1_555
C5B N1B 1_555 1_555
C1B N1B 1_555 1_555
Cl1B Cd1F_2 1_555 1_555

#END
