
#######################################################################
#
#                 Cambridge Crystallographic Data Centre
#                                CCDC 
#
#######################################################################
#
# If this CIF has been generated from an entry in the Cambridge 
# Structural Database, then it will include bibliographic, chemical, 
# crystal, experimental, refinement or atomic coordinate data resulting 
# from the CCDC's data processing and validation procedures.
#
#######################################################################

data_EKIFEK
_symmetry_cell_setting           monoclinic
_symmetry_space_group_name_H-M   'P 21/n'
_symmetry_Int_Tables_number      14
_space_group_name_Hall           '-P 2yn'
loop_
_symmetry_equiv_pos_site_id
_symmetry_equiv_pos_as_xyz
1 x,y,z
2 1/2-x,1/2+y,1/2-z
3 -x,-y,-z
4 1/2+x,1/2-y,1/2+z
_cell_length_a                   9.2407(18)
_cell_length_b                   9.4216(19)
_cell_length_c                   18.566(4)
_cell_angle_alpha                90
_cell_angle_beta                 100.97(3)
_cell_angle_gamma                90
_cell_volume                     1586.86
loop_
_atom_site_label
_atom_site_type_symbol
_atom_site_fract_x
_atom_site_fract_y
_atom_site_fract_z
H1 H 0.553(4) 0.160(3) 0.0336(15)
H2 H 0.469(4) 0.167(3) -0.0344(13)
O5 O 0.5126(2) 0.2162(2) 0.00070(14)
H3 H 0.772(4) 0.459(2) 0.005(2)
H4 H 1.279(4) 0.337(5) 0.0832(12)
H5 H 0.689(3) 0.337(3) -0.008(2)
H6 H 1.332(3) 0.275(3) 0.0275(17)
Nd1 Nd 0.993728(14) 0.226561(12) -0.001431(6)
S1 S 0.78677(7) -0.00808(7) 0.11233(3)
C1 C 0.8486(3) -0.0025(3) 0.20824(13)
C2 C 0.7930(4) -0.1029(4) 0.25025(16)
H7 H 0.7262 -0.1709 0.2281
C3 C 0.8385(4) -0.1005(4) 0.32581(18)
H8 H 0.8017 -0.1670 0.3547
C4 C 0.9379(4) -0.0001(4) 0.35811(16)
H9 H 0.9672 0.0016 0.4089
C5 C 0.9947(4) 0.0985(3) 0.31577(16)
H10 H 1.0636 0.1648 0.3379
C6 C 0.9483(3) 0.0979(3) 0.24014(15)
H11 H 0.9845 0.1649 0.2113
C7 C 0.7987(3) 0.0436(3) -0.11103(13)
C8 C 0.7026(3) -0.0427(3) -0.17001(13)
H12 H 0.6146 -0.0715 -0.1525
H13 H 0.7554 -0.1281 -0.1787
C9 C 0.6571(3) 0.0365(3) -0.24215(13)
H14 H 0.5990 0.1188 -0.2345
H15 H 0.7446 0.0696 -0.2588
C10 C 0.5683(3) -0.0569(3) -0.30051(13)
H16 H 0.6248 -0.1423 -0.3048
H17 H 0.4791 -0.0855 -0.2841
C11 C 0.5253(3) 0.0086(3) -0.37556(12)
O1 O 0.7681(2) 0.3769(2) -0.00562(13)
O2 O 0.6261(2) -0.0146(2) 0.10019(11)
O3 O 1.2600(2) 0.3146(2) 0.04005(12)
O4 O 0.8374(2) 0.12220(18) 0.08282(10)
O6 O 0.8500(2) -0.13620(19) 0.08720(10)
O7 O 0.8791(2) -0.02108(18) -0.05751(9)
O8 O 0.7987(2) 0.17549(19) -0.11333(10)
O9 O 0.5425(2) 0.13914(18) -0.38420(9)
O10 O 0.4713(2) -0.07294(18) -0.42743(9)
Nd1B Nd 1.006272(14) -0.226561(12) 0.001431(6)
Nd1C Nd 0.493728(14) 0.273439(12) -0.501431(6)
Nd1A Nd 0.506272(14) -0.273439(12) -0.498569(6)
O6B O 1.1500(2) 0.13620(19) -0.08720(10)
O7B O 1.1209(2) 0.02108(18) 0.05751(9)
O9C O 1.0425(2) 0.36086(18) 0.11580(9)
O10A O 1.0287(2) 0.42706(18) -0.07257(9)
loop_
_geom_bond_atom_site_label_1
_geom_bond_atom_site_label_2
_geom_bond_site_symmetry_1
_geom_bond_site_symmetry_2
H1 O5 1_555 1_555
H2 O5 1_555 1_555
H3 O1 1_555 1_555
H4 O3 1_555 1_555
H5 O1 1_555 1_555
H6 O3 1_555 1_555
Nd1 O1 1_555 1_555
S1 C1 1_555 1_555
C1 C2 1_555 1_555
C2 H7 1_555 1_555
C3 C2 1_555 1_555
H8 C3 1_555 1_555
C4 C3 1_555 1_555
H9 C4 1_555 1_555
C5 C4 1_555 1_555
H10 C5 1_555 1_555
C6 C1 1_555 1_555
H11 C6 1_555 1_555
C7 C8 1_555 1_555
C8 H12 1_555 1_555
H13 C8 1_555 1_555
C9 C8 1_555 1_555
H14 C9 1_555 1_555
H15 C9 1_555 1_555
C10 C9 1_555 1_555
H16 C10 1_555 1_555
H17 C10 1_555 1_555
C11 C10 1_555 1_555
O2 S1 1_555 1_555
O3 Nd1 1_555 1_555
O4 Nd1 1_555 1_555
O6 S1 1_555 1_555
O7 Nd1 1_555 1_555
O8 Nd1 1_555 1_555
O9 C11 1_555 1_555
O10 C11 1_555 1_555
Nd1B O6 1_555 1_555
Nd1C O9 1_555 1_555
Nd1A O10 1_555 1_555
O6B Nd1 1_555 1_555
O7B Nd1 1_555 1_555
O9C Nd1 1_555 1_555
O10A Nd1 1_555 1_555
S1 O4 1_555 1_555
C5 C6 1_555 1_555
C7 O7 1_555 1_555
C7 O8 1_555 1_555
O7 Nd1B 1_555 1_555
Nd1B O7B 1_555 1_555

#END
