
#######################################################################
#
#                 Cambridge Crystallographic Data Centre
#                                CCDC 
#
#######################################################################
#
# If this CIF has been generated from an entry in the Cambridge 
# Structural Database, then it will include bibliographic, chemical, 
# crystal, experimental, refinement or atomic coordinate data resulting 
# from the CCDC's data processing and validation procedures.
#
#######################################################################

data_EKINOB
_symmetry_cell_setting           triclinic
_symmetry_space_group_name_H-M   'P -1'
_symmetry_Int_Tables_number      2
_space_group_name_Hall           '-P 1'
loop_
_symmetry_equiv_pos_site_id
_symmetry_equiv_pos_as_xyz
1 x,y,z
2 -x,-y,-z
_cell_length_a                   3.7512(6)
_cell_length_b                   8.412(1)
_cell_length_c                   8.900(1)
_cell_angle_alpha                90.43(1)
_cell_angle_beta                 94.04(1)
_cell_angle_gamma                92.27(1)
_cell_volume                     279.908
loop_
_atom_site_label
_atom_site_type_symbol
_atom_site_fract_x
_atom_site_fract_y
_atom_site_fract_z
Cu1 Cu 0.9302(1) 0.6515(1) 0.1132(1)
Cl1 Cl 0.4723(2) 0.7778(1) 0.2261(1)
N1 N 0.9228(8) 0.4260(3) 0.1917(3)
N2 N 1.0440(8) 0.3080(4) 0.1075(3)
C1 C 1.0844(11) 0.1657(4) 0.1681(5)
C2 C 1.0101(12) 0.1302(5) 0.3145(5)
C3 C 0.8851(12) 0.2488(5) 0.3989(5)
C4 C 0.8443(10) 0.3949(5) 0.3318(4)
H1 H 1.1672 0.0854 0.1090
H2 H 1.0442 0.0293 0.3537
H3 H 0.8294 0.2319 0.4978
H4 H 0.7566 0.4764 0.3881
Cl1_2 Cl 1.4723(2) 0.7778(1) 0.2261(1)
N2A N 0.9560(8) 0.6920(4) -0.1075(3)
Cu1_2 Cu -0.0698(1) 0.6515(1) 0.1132(1)
Cu1A Cu 1.0698(1) 0.3485(1) -0.1132(1)
loop_
_geom_bond_atom_site_label_1
_geom_bond_atom_site_label_2
_geom_bond_site_symmetry_1
_geom_bond_site_symmetry_2
Cu1 Cl1 1_555 1_555
Cl1 Cu1_2 1_555 1_555
N1 Cu1 1_555 1_555
N2 N1 1_555 1_555
C1 N2 1_555 1_555
C2 C1 1_555 1_555
C3 C2 1_555 1_555
C4 N1 1_555 1_555
H1 C1 1_555 1_555
H2 C2 1_555 1_555
H3 C3 1_555 1_555
H4 C4 1_555 1_555
Cl1_2 Cu1 1_555 1_555
N2A Cu1 1_555 1_555
Cu1A N2 1_555 1_555
C3 C4 1_555 1_555

#END
