
#######################################################################
#
#                 Cambridge Crystallographic Data Centre
#                                CCDC 
#
#######################################################################
#
# If this CIF has been generated from an entry in the Cambridge 
# Structural Database, then it will include bibliographic, chemical, 
# crystal, experimental, refinement or atomic coordinate data resulting 
# from the CCDC's data processing and validation procedures.
#
#######################################################################

data_EKIPAP
_symmetry_cell_setting           triclinic
_symmetry_space_group_name_H-M   'P -1'
_symmetry_Int_Tables_number      2
_space_group_name_Hall           '-P 1'
loop_
_symmetry_equiv_pos_site_id
_symmetry_equiv_pos_as_xyz
1 x,y,z
2 -x,-y,-z
_cell_length_a                   3.9577(9)
_cell_length_b                   8.7868(2)
_cell_length_c                   11.8227(3)
_cell_angle_alpha                105.439(2)
_cell_angle_beta                 94.710(2)
_cell_angle_gamma                96.165(2)
_cell_volume                     391.375
loop_
_atom_site_label
_atom_site_type_symbol
_atom_site_fract_x
_atom_site_fract_y
_atom_site_fract_z
Cu1 Cu 0.6282(2) 0.9126(1) 0.5957(1)
Cu2 Cu 0.1862(2) 0.9048(1) 0.9079(1)
Br1 Br 0.1106(1) 0.8179(1) 0.6915(1)
Br2 Br -0.3172(1) 0.7987(1) 0.9920(1)
N1 N 0.5198(9) 0.7810(4) 0.4270(3)
N2 N 0.3623(9) 0.8507(4) 0.3517(3)
C1 C 0.2500(13) 0.7644(5) 0.2426(4)
C2 C 0.2840(14) 0.6052(5) 0.2005(4)
C3 C 0.4438(13) 0.5350(5) 0.2759(4)
C4 C 0.5624(12) 0.6305(5) 0.3891(4)
H1 H 0.1426 0.8135 0.1917
H2 H 0.2008 0.5478 0.1234
H3 H 0.4722 0.4278 0.2526
H4 H 0.6783 0.5854 0.4409
Br1_2 Br 1.1106(1) 0.8179(1) 0.6915(1)
N2A N 0.6377(9) 1.1493(4) 0.6483(3)
Br2_2 Br 0.6828(1) 0.7987(1) 0.9920(1)
Br2A Br 0.3172(1) 1.2013(1) 1.0080(1)
Cu1_2 Cu -0.3718(2) 0.9126(1) 0.5957(1)
Cu2_2 Cu -0.8138(2) 0.9048(1) 0.9079(1)
Cu2A Cu -0.1862(2) 1.0952(1) 1.0921(1)
Cu1A Cu 0.3718(2) 1.0874(1) 0.4043(1)
loop_
_geom_bond_atom_site_label_1
_geom_bond_atom_site_label_2
_geom_bond_site_symmetry_1
_geom_bond_site_symmetry_2
Cu1 Br1 1_555 1_555
Cu2 Br1 1_555 1_555
Br1 Cu1_2 1_555 1_555
Br2 Cu2 1_555 1_555
N1 Cu1 1_555 1_555
N2 N1 1_555 1_555
C1 N2 1_555 1_555
C2 C1 1_555 1_555
C3 C2 1_555 1_555
C4 N1 1_555 1_555
H1 C1 1_555 1_555
H2 C2 1_555 1_555
H3 C3 1_555 1_555
H4 C4 1_555 1_555
Br1_2 Cu1 1_555 1_555
N2A Cu1 1_555 1_555
Br2_2 Cu2 1_555 1_555
Br2A Cu2 1_555 1_555
Cu2_2 Br2 1_555 1_555
Cu2A Br2 1_555 1_555
Cu1A N2 1_555 1_555
C3 C4 1_555 1_555
Br2A Cu2A 1_555 1_555

#END
