
#######################################################################
#
#                 Cambridge Crystallographic Data Centre
#                                CCDC 
#
#######################################################################
#
# If this CIF has been generated from an entry in the Cambridge 
# Structural Database, then it will include bibliographic, chemical, 
# crystal, experimental, refinement or atomic coordinate data resulting 
# from the CCDC's data processing and validation procedures.
#
#######################################################################

data_EKIQAR
_symmetry_cell_setting           triclinic
_symmetry_space_group_name_H-M   'P -1'
_symmetry_Int_Tables_number      2
_space_group_name_Hall           '-P 1'
loop_
_symmetry_equiv_pos_site_id
_symmetry_equiv_pos_as_xyz
1 x,y,z
2 -x,-y,-z
_cell_length_a                   8.3456(3)
_cell_length_b                   11.9452(11)
_cell_length_c                   16.7931(16)
_cell_angle_alpha                99.133(13)
_cell_angle_beta                 90.982(7)
_cell_angle_gamma                106.999(7)
_cell_volume                     1577.08
loop_
_atom_site_label
_atom_site_type_symbol
_atom_site_fract_x
_atom_site_fract_y
_atom_site_fract_z
La1 La 0.55576(4) 0.71756(3) 0.708042(19)
K1 K -0.1512(4) 0.1166(3) 1.02613(17)
O1 O 0.3078(6) 0.2755(4) 0.9212(3)
O2 O 0.6335(6) 0.6193(4) 0.8253(3)
O3 O 0.3077(6) 0.5638(4) 0.7567(3)
O4 O 0.5949(6) 0.9348(4) 0.6886(3)
O5 O 0.6958(6) 0.7733(4) 0.5776(3)
O6 O 0.7633(8) 1.1191(5) 0.4612(3)
O7 O 0.4844(8) 0.8307(5) 0.8371(3)
H1 H 0.5659 0.824 0.8166
H2 H 0.4236 0.7906 0.8687
O8 O 0.4099(8) 0.5547(5) 0.5878(3)
H3 H 0.3171 0.4739 0.5797
H4 H 0.426 0.5684 0.54
O9 O 0.2738(7) 0.7508(5) 0.6652(3)
H5 H 0.176 0.7028 0.6495
H6 H 0.2882 0.8098 0.6389
O10 O 0.7439(10) 0.5881(7) 0.6652(4)
H7 H 0.7298 0.5356 0.6747
H8 H 0.7988 0.6432 0.6663
O11 O 0.8417(6) 0.8427(5) 0.7753(4)
H9 H 0.9158 0.8066 0.782
H10 H 0.8847 0.8969 0.7464
O12 O 0.1858(9) 0.1310(7) 1.0392(4)
H11 H 0.1139 0.1688 1.0504
H12 H 0.2749 0.1674 1.07
O13 O -0.0736(7) 0.2661(6) 1.1856(4)
H13 H 0.015 0.3196 1.1702
H14 H -0.1117 0.2558 1.2201
C1 C 0.3520(8) 0.3605(5) 0.8858(4)
C2 C 0.5225(7) 0.4451(5) 0.8905(3)
C3 C 0.5171(7) 0.5306(5) 0.8401(3)
C4 C 0.3456(7) 0.5020(5) 0.8042(4)
C5 C 0.2424(8) 0.3984(5) 0.8322(4)
C6 C 0.0716(8) 0.3457(6) 0.8149(4)
C7 C -0.0287(8) 0.3980(6) 0.7719(4)
C8 C -0.0187(9) 0.2379(7) 0.8427(5)
C9 C 0.6576(8) 0.4418(6) 0.9381(4)
C10 C 0.8175(8) 0.5313(7) 0.9443(4)
C11 C 0.6455(8) 0.3515(6) 0.9865(4)
C12 C 0.6500(7) 0.9610(5) 0.6230(4)
C13 C 0.7040(7) 0.8759(5) 0.5640(4)
C14 C 0.7598(7) 0.9299(5) 0.4950(4)
C15 C 0.7355(8) 1.0484(5) 0.5084(4)
C16 C 0.6692(7) 1.0671(5) 0.5893(4)
C17 C 0.6297(8) 1.1675(5) 0.6235(4)
C18 C 0.5669(10) 1.1814(6) 0.7017(4)
C19 C 0.6410(9) 1.2658(6) 0.5812(4)
C20 C 0.8215(8) 0.8820(6) 0.4257(4)
C21 C 0.8377(10) 0.7633(7) 0.4144(5)
C22 C 0.8723(10) 0.9444(7) 0.3595(5)
N1 N -0.1148(9) 0.4382(7) 0.7400(5)
N2 N -0.0989(11) 0.1531(8) 0.8630(7)
N3 N 0.9449(9) 0.6029(8) 0.9503(5)
N4 N 0.6398(8) 0.2827(7) 1.0278(5)
N5 N 0.5152(13) 1.1981(7) 0.7645(5)
N6 N 0.6416(10) 1.3447(6) 0.5515(4)
N7 N 0.8494(12) 0.6707(7) 0.4045(5)
N8 N 0.9200(13) 0.9900(8) 0.3066(5)
La1A La -0.55576(4) -0.71756(3) 1.291958(19)
K1A K 0.1512(4) -0.1166(3) 0.97387(17)
K1_2 K -1.1512(4) -0.8834(3) 1.02613(17)
K1_3 K 0.8488(4) 0.1166(3) 1.02613(17)
K1A_2 K -0.8488(4) -0.1166(3) 0.97387(17)
K1A_3 K 1.1512(4) 0.8834(3) 0.97387(17)
O1A O -0.3078(6) -0.2755(4) 1.0788(3)
O2A O -0.6335(6) -0.6193(4) 1.1747(3)
O3A O -0.3077(6) -0.5638(4) 1.2433(3)
O4A O -0.5949(6) -0.9348(4) 1.3114(3)
O5A O -0.6958(6) -0.7733(4) 1.4224(3)
O6A O -0.7633(8) -1.1191(5) 1.5388(3)
O7A O -0.4844(8) -0.8307(5) 1.1629(3)
H1A H -0.5659 -0.824 1.1834
H2A H -0.4236 -0.7906 1.1313
O8A O -0.4099(8) -0.5547(5) 1.4122(3)
H3A H -0.3171 -0.4739 1.4203
H4A H -0.426 -0.5684 1.46
O9A O -0.2738(7) -0.7508(5) 1.3348(3)
H5A H -0.176 -0.7028 1.3505
H6A H -0.2882 -0.8098 1.3611
O10A O -0.7439(10) -0.5881(7) 1.3348(4)
H7A H -0.7298 -0.5356 1.3253
H8A H -0.7988 -0.6432 1.3337
O11A O -0.8417(6) -0.8427(5) 1.2247(4)
H9A H -0.9158 -0.8066 1.218
H10A H -0.8847 -0.8969 1.2536
O12A O -0.1858(9) -0.1310(7) 0.9608(4)
H11A H -0.1139 -0.1688 0.9496
H12A H -0.2749 -0.1674 0.93
O13A O 0.0736(7) -0.2661(6) 0.8144(4)
H13A H -0.015 -0.3196 0.8298
H14A H 0.1117 -0.2558 0.7799
C1A C -0.3520(8) -0.3605(5) 1.1142(4)
C2A C -0.5225(7) -0.4451(5) 1.1095(3)
C3A C -0.5171(7) -0.5306(5) 1.1599(3)
C4A C -0.3456(7) -0.5020(5) 1.1958(4)
C5A C -0.2424(8) -0.3984(5) 1.1678(4)
C6A C -0.0716(8) -0.3457(6) 1.1851(4)
C7A C 0.0287(8) -0.3980(6) 1.2281(4)
C8A C 0.0187(9) -0.2379(7) 1.1573(5)
C9A C -0.6576(8) -0.4418(6) 1.0619(4)
C10A C -0.8175(8) -0.5313(7) 1.0557(4)
C11A C -0.6455(8) -0.3515(6) 1.0135(4)
C12A C -0.6500(7) -0.9610(5) 1.3770(4)
C13A C -0.7040(7) -0.8759(5) 1.4360(4)
C14A C -0.7598(7) -0.9299(5) 1.5050(4)
C15A C -0.7355(8) -1.0484(5) 1.4916(4)
C16A C -0.6692(7) -1.0671(5) 1.4107(4)
C17A C -0.6297(8) -1.1675(5) 1.3765(4)
C18A C -0.5669(10) -1.1814(6) 1.2983(4)
C19A C -0.6410(9) -1.2658(6) 1.4188(4)
C20A C -0.8215(8) -0.8820(6) 1.5743(4)
C21A C -0.8377(10) -0.7633(7) 1.5856(5)
C22A C -0.8723(10) -0.9444(7) 1.6405(5)
N1A N 0.1148(9) -0.4382(7) 1.2600(5)
N2A N 0.0989(11) -0.1531(8) 1.1370(7)
N3A N -0.9449(9) -0.6029(8) 1.0497(5)
N3_2 N -0.0551(9) -0.3971(8) 0.9503(5)
N3A_2 N 0.0551(9) 0.3971(8) 1.0497(5)
N4A N -0.6398(8) -0.2827(7) 0.9722(5)
N4_2 N -0.3602(8) 0.2827(7) 1.0278(5)
N4A_2 N 0.3602(8) -0.2827(7) 0.9722(5)
N5A N -0.5152(13) -1.1981(7) 1.2355(5)
N6A N -0.6416(10) -1.3447(6) 1.4485(4)
N7A N -0.8494(12) -0.6707(7) 1.5955(5)
N8A N -0.9200(13) -0.9900(8) 1.6934(5)
O14 O 0.0105(10) 0.6054(10) 0.5558(6)
H15 H 0.0305 0.6717 0.5898
H16 H 0.0315 0.5531 0.5812
loop_
_geom_bond_atom_site_label_1
_geom_bond_atom_site_label_2
_geom_bond_site_symmetry_1
_geom_bond_site_symmetry_2
La1 O2 1_555 1_555
K1 O12 1_555 1_555
O1 C1 1_555 1_555
O2 C3 1_555 1_555
O3 La1 1_555 1_555
O4 La1 1_555 1_555
O5 La1 1_555 1_555
O6 C15 1_555 1_555
O7 La1 1_555 1_555
H1 O7 1_555 1_555
H2 O7 1_555 1_555
O8 La1 1_555 1_555
H3 O8 1_555 1_555
H4 O8 1_555 1_555
O9 La1 1_555 1_555
H5 O9 1_555 1_555
H6 O9 1_555 1_555
O10 La1 1_555 1_555
H7 O10 1_555 1_555
H8 O10 1_555 1_555
O11 La1 1_555 1_555
H9 O11 1_555 1_555
H10 O11 1_555 1_555
O12 H11 1_555 1_555
H12 O12 1_555 1_555
O13 K1 1_555 1_555
H13 O13 1_555 1_555
H14 O13 1_555 1_555
O14 H15 1_555 1_555
H16 O14 1_555 1_555
C1 C2 1_555 1_555
C2 C3 1_555 1_555
C3 C4 1_555 1_555
C4 O3 1_555 1_555
C5 C1 1_555 1_555
C6 C5 1_555 1_555
C7 C6 1_555 1_555
C8 C6 1_555 1_555
C9 C2 1_555 1_555
C10 C9 1_555 1_555
C11 C9 1_555 1_555
C12 O4 1_555 1_555
C13 O5 1_555 1_555
C14 C13 1_555 1_555
C15 C14 1_555 1_555
C16 C12 1_555 1_555
C17 C16 1_555 1_555
C18 C17 1_555 1_555
C19 C17 1_555 1_555
C20 C14 1_555 1_555
C21 C20 1_555 1_555
C22 C20 1_555 1_555
N1 C7 1_555 1_555
N2 K1 1_555 1_555
N3 C10 1_555 1_555
N4 C11 1_555 1_555
N5 C18 1_555 1_555
N6 C19 1_555 1_555
N7 C21 1_555 1_555
N8 C22 1_555 1_555
La1A O2A 1_555 1_555
K1A O12 1_555 1_555
K1_2 N3A 1_555 1_555
K1_3 N4 1_555 1_555
K1A_2 N4A 1_555 1_555
K1A_3 N3 1_555 1_555
O1A C1A 1_555 1_555
O2A C3A 1_555 1_555
O3A La1A 1_555 1_555
O4A La1A 1_555 1_555
O5A La1A 1_555 1_555
O6A C15A 1_555 1_555
O7A La1A 1_555 1_555
H1A O7A 1_555 1_555
H2A O7A 1_555 1_555
O8A La1A 1_555 1_555
H3A O8A 1_555 1_555
H4A O8A 1_555 1_555
O9A La1A 1_555 1_555
H5A O9A 1_555 1_555
H6A O9A 1_555 1_555
O10A La1A 1_555 1_555
H7A O10A 1_555 1_555
H8A O10A 1_555 1_555
O11A La1A 1_555 1_555
H9A O11A 1_555 1_555
H10A O11A 1_555 1_555
O12A K1 1_555 1_555
H11A O12A 1_555 1_555
H12A O12A 1_555 1_555
O13A K1A 1_555 1_555
H13A O13A 1_555 1_555
H14A O13A 1_555 1_555
C1A C2A 1_555 1_555
C2A C3A 1_555 1_555
C3A C4A 1_555 1_555
C4A O3A 1_555 1_555
C5A C1A 1_555 1_555
C6A C5A 1_555 1_555
C7A C6A 1_555 1_555
C8A C6A 1_555 1_555
C9A C2A 1_555 1_555
C10A C9A 1_555 1_555
C11A C9A 1_555 1_555
C12A O4A 1_555 1_555
C13A O5A 1_555 1_555
C14A C13A 1_555 1_555
C15A C14A 1_555 1_555
C16A C12A 1_555 1_555
C17A C16A 1_555 1_555
C18A C17A 1_555 1_555
C19A C17A 1_555 1_555
C20A C14A 1_555 1_555
C21A C20A 1_555 1_555
C22A C20A 1_555 1_555
N1A C7A 1_555 1_555
N2A K1A 1_555 1_555
N3A C10A 1_555 1_555
N3_2 K1A 1_555 1_555
N3A_2 K1 1_555 1_555
N4A C11A 1_555 1_555
N4_2 K1 1_555 1_555
N4A_2 K1A 1_555 1_555
N5A C18A 1_555 1_555
N6A C19A 1_555 1_555
N7A C21A 1_555 1_555
N8A C22A 1_555 1_555
C4 C5 1_555 1_555
C8 N2 1_555 1_555
C12 C13 1_555 1_555
C15 C16 1_555 1_555
K1A O12A 1_555 1_555
C4A C5A 1_555 1_555
C8A N2A 1_555 1_555
C12A C13A 1_555 1_555
C15A C16A 1_555 1_555

#END
