
#######################################################################
#
#                 Cambridge Crystallographic Data Centre
#                                CCDC 
#
#######################################################################
#
# If this CIF has been generated from an entry in the Cambridge 
# Structural Database, then it will include bibliographic, chemical, 
# crystal, experimental, refinement or atomic coordinate data resulting 
# from the CCDC's data processing and validation procedures.
#
#######################################################################

data_EKISOH
_symmetry_cell_setting           monoclinic
_symmetry_space_group_name_H-M   'C 2/c'
_symmetry_Int_Tables_number      15
_space_group_name_Hall           '-C 2yn'
loop_
_symmetry_equiv_pos_site_id
_symmetry_equiv_pos_as_xyz
1 x,y,z
2 -x,y,1/2-z
3 1/2+x,1/2+y,z
4 1/2-x,1/2+y,1/2-z
5 -x,-y,-z
6 x,-y,1/2+z
7 1/2-x,1/2-y,-z
8 1/2+x,1/2-y,1/2+z
_cell_length_a                   16.2998(17)
_cell_length_b                   6.2571(7)
_cell_length_c                   26.351(3)
_cell_angle_alpha                90
_cell_angle_beta                 92.5780(10)
_cell_angle_gamma                90
_cell_volume                     2684.8
loop_
_atom_site_label
_atom_site_type_symbol
_atom_site_fract_x
_atom_site_fract_y
_atom_site_fract_z
Cd1 Cd 0.0000 0.37034(4) 0.2500
O1 O 0.04313(11) 0.6535(2) 0.30501(6)
O2 O 0.05492(11) 0.3300(2) 0.33743(6)
O3 O 0.0000 0.0070(4) 0.2500
H1 H 0.0174(18) -0.080(3) 0.2738(7)
N1 N 0.12748(12) 0.3953(3) 0.21041(7)
N2 N 0.25214(11) 0.2118(3) 0.05396(7)
C1 C 0.14213(14) 0.2638(4) 0.17179(8)
H2 H 0.1038 0.1524 0.1645
C2 C 0.20909(14) 0.2790(4) 0.14193(8)
C3 C 0.26457(16) 0.4437(4) 0.15271(9)
H3 H 0.3116 0.4612 0.1331
C4 C 0.25038(17) 0.5815(4) 0.19244(10)
H4 H 0.2876 0.6947 0.2004
C5 C 0.18177(16) 0.5532(4) 0.22035(9)
H5 H 0.1725 0.6486 0.2476
C6 C 0.22005(15) 0.1186(4) 0.09976(8)
H6 H 0.2580 0.0049 0.1124
H7 H 0.1664 0.0510 0.0910
C7 C 0.26947(14) 0.0429(4) 0.01742(8)
H8 H 0.2181 -0.0343 0.0078
H9 H 0.3086 -0.0608 0.0334
C8 C 0.19467(14) 0.3644(4) 0.02949(9)
H10 H 0.1830 0.4808 0.0536
H11 H 0.1423 0.2912 0.0201
C9 C 0.05096(13) 0.5291(4) 0.34280(8)
C10 C 0.05208(15) 0.6263(4) 0.39531(8)
H12 H 0.1076 0.6837 0.4038
H13 H 0.0407 0.5132 0.4203
C11 C -0.01016(16) 0.8036(4) 0.39976(9)
H14 H -0.0002 0.9141 0.3738
H15 H -0.0659 0.7451 0.3928
C12 C -0.00614(14) 0.9055(4) 0.45155(8)
C13 C 0.03406(16) 1.0981(4) 0.45940(9)
H16 H 0.0580 1.1674 0.4316
C14 C -0.03996(15) 0.8085(4) 0.49299(9)
H17 H -0.0677 0.6757 0.4887
Cd1D Cd 0.0000 1.62966(4) 0.7500
Cd1F Cd 0.5000 0.12966(4) -0.2500
O1D O -0.04313(11) 1.3465(2) 0.69499(6)
O1A O -0.04313(11) 0.6535(2) 0.19499(6)
O2D O -0.05492(11) 1.6700(2) 0.66257(6)
O2A O -0.05492(11) 0.3300(2) 0.16257(6)
H1A H -0.0174(18) -0.080(3) 0.2262(7)
N1F N 0.37252(12) 0.1047(3) -0.21041(7)
N1A N -0.12748(12) 0.3953(3) 0.28959(7)
N2F N 0.24786(11) 0.2882(3) -0.05396(7)
C1F C 0.35787(14) 0.2362(4) -0.17179(8)
H2F H 0.3962 0.3476 -0.1645
C2F C 0.29091(14) 0.2210(4) -0.14193(8)
C3F C 0.23543(16) 0.0563(4) -0.15271(9)
H3F H 0.1884 0.0388 -0.1331
C4F C 0.24962(17) -0.0815(4) -0.19244(10)
H4F H 0.2124 -0.1947 -0.2004
C5F C 0.31823(16) -0.0532(4) -0.22035(9)
H5F H 0.3275 -0.1486 -0.2476
C6F C 0.27995(15) 0.3814(4) -0.09976(8)
H6F H 0.2420 0.4951 -0.1124
H7F H 0.3336 0.4490 -0.0910
C7F C 0.23053(14) 0.4571(4) -0.01742(8)
H8F H 0.2819 0.5343 -0.0078
H9F H 0.1914 0.5608 -0.0334
C8F C 0.30533(14) 0.1356(4) -0.02949(9)
H10F H 0.3170 0.0192 -0.0536
H11F H 0.3577 0.2088 -0.0201
C9D C -0.05096(13) 1.4709(4) 0.65720(8)
C10D C -0.05208(15) 1.3737(4) 0.60469(8)
H12D H -0.1076 1.3163 0.5962
H13D H -0.0407 1.4868 0.5797
C11D C 0.01016(16) 1.1964(4) 0.60024(9)
H14D H 0.0002 1.0859 0.6262
H15D H 0.0659 1.2549 0.6072
C12D C 0.00614(14) 1.0945(4) 0.54845(8)
C13D C -0.03406(16) 0.9019(4) 0.54060(9)
H16D H -0.0580 0.8326 0.5684
C14D C 0.03996(15) 1.1915(4) 0.50701(9)
H17D H 0.0677 1.3243 0.5113
loop_
_geom_bond_atom_site_label_1
_geom_bond_atom_site_label_2
_geom_bond_site_symmetry_1
_geom_bond_site_symmetry_2
Cd1 O1 1_555 1_555
O1 C9 1_555 1_555
O2 Cd1 1_555 1_555
O3 Cd1 1_555 1_555
H1 O3 1_555 1_555
N1 Cd1 1_555 1_555
N2 C6 1_555 1_555
C1 N1 1_555 1_555
H2 C1 1_555 1_555
C2 C1 1_555 1_555
C3 C2 1_555 1_555
H3 C3 1_555 1_555
C4 C3 1_555 1_555
H4 C4 1_555 1_555
C5 N1 1_555 1_555
H5 C5 1_555 1_555
C6 C2 1_555 1_555
H6 C6 1_555 1_555
H7 C6 1_555 1_555
C7 N2 1_555 1_555
H8 C7 1_555 1_555
H9 C7 1_555 1_555
C8 N2 1_555 1_555
H10 C8 1_555 1_555
H11 C8 1_555 1_555
C9 O2 1_555 1_555
C10 C9 1_555 1_555
H12 C10 1_555 1_555
H13 C10 1_555 1_555
C11 C10 1_555 1_555
H14 C11 1_555 1_555
H15 C11 1_555 1_555
C12 C11 1_555 1_555
C13 C12 1_555 1_555
H16 C13 1_555 1_555
C14 C12 1_555 1_555
H17 C14 1_555 1_555
Cd1D O1D 1_555 1_555
Cd1F N1F 1_555 1_555
O1D C9D 1_555 1_555
O1A Cd1 1_555 1_555
O2D Cd1D 1_555 1_555
O2A Cd1 1_555 1_555
H1A O3 1_555 1_555
N1F C1F 1_555 1_555
N1A Cd1 1_555 1_555
N2F C6F 1_555 1_555
C1F H2F 1_555 1_555
C2F C1F 1_555 1_555
C3F C2F 1_555 1_555
H3F C3F 1_555 1_555
C4F C3F 1_555 1_555
H4F C4F 1_555 1_555
C5F N1F 1_555 1_555
H5F C5F 1_555 1_555
C6F C2F 1_555 1_555
H6F C6F 1_555 1_555
H7F C6F 1_555 1_555
C7F C8 1_555 1_555
H8F C7F 1_555 1_555
H9F C7F 1_555 1_555
C8F C7 1_555 1_555
H10F C8F 1_555 1_555
H11F C8F 1_555 1_555
C9D O2D 1_555 1_555
C10D C9D 1_555 1_555
H12D C10D 1_555 1_555
H13D C10D 1_555 1_555
C11D C10D 1_555 1_555
H14D C11D 1_555 1_555
H15D C11D 1_555 1_555
C12D C11D 1_555 1_555
C13D C14 1_555 1_555
H16D C13D 1_555 1_555
C14D C13 1_555 1_555
H17D C14D 1_555 1_555
C4 C5 1_555 1_555
N2F C7F 1_555 1_555
N2F C8F 1_555 1_555
C4F C5F 1_555 1_555
C12D C13D 1_555 1_555
C12D C14D 1_555 1_555

#END
