
#######################################################################
#
#                 Cambridge Crystallographic Data Centre
#                                CCDC 
#
#######################################################################
#
# If this CIF has been generated from an entry in the Cambridge 
# Structural Database, then it will include bibliographic, chemical, 
# crystal, experimental, refinement or atomic coordinate data resulting 
# from the CCDC's data processing and validation procedures.
#
#######################################################################

data_EKISIB
_symmetry_cell_setting           triclinic
_symmetry_space_group_name_H-M   'P -1'
_symmetry_Int_Tables_number      2
_space_group_name_Hall           '-P 1'
loop_
_symmetry_equiv_pos_site_id
_symmetry_equiv_pos_as_xyz
1 x,y,z
2 -x,-y,-z
_cell_length_a                   11.1197(19)
_cell_length_b                   14.804(3)
_cell_length_c                   21.356(5)
_cell_angle_alpha                102.460(3)
_cell_angle_beta                 100.433(3)
_cell_angle_gamma                106.730(2)
_cell_volume                     3174.32
loop_
_atom_site_label
_atom_site_type_symbol
_atom_site_fract_x
_atom_site_fract_y
_atom_site_fract_z
Cd1 Cd 0.38660(4) 0.48438(3) 0.05533(2)
Cd2 Cd 0.14916(4) 0.00237(3) 0.56582(2)
O5 O 0.3363(4) -0.0213(3) 0.6352(2)
O7 O 0.2972(4) 0.1161(3) 0.66651(19)
O9 O 1.0394(4) 0.1012(4) 0.5349(2)
O11 O 0.8807(4) 0.1521(3) 0.5009(2)
O13 O 0.2303(4) 0.4450(3) 0.11959(19)
O15 O 0.3986(4) 0.5814(3) 0.16342(19)
O16 O -0.2436(4) 0.6604(3) 0.02630(19)
O17 O -0.4294(4) 0.5956(3) 0.0460(2)
N1 N 0.2994(5) 0.0817(4) 0.5142(2)
N2 N 0.6569(5) 0.2109(4) 0.3970(2)
H1 H 0.640(6) 0.1457(17) 0.381(3)
N3 N 0.7080(5) 0.2698(4) 0.2814(2)
N4 N 0.5040(4) 0.4026(3) 0.1095(2)
N5 N 0.0187(4) 0.9429(3) -0.3674(2)
N6 N -0.1333(4) 0.8317(3) -0.1763(2)
N7 N -0.0521(4) 0.7436(3) -0.0745(2)
H2 H -0.106(5) 0.681(2) -0.092(3)
N8 N 0.2733(4) 0.5817(3) 0.0151(2)
C1 C 0.3620(6) 0.0610(5) 0.6761(3)
C2 C 0.4668(6) 0.0918(5) 0.7404(3)
H3 H 0.4936 0.1639 0.7594
H4 H 0.4292 0.0607 0.7723
C3 C 0.5864(6) 0.0654(5) 0.7337(3)
H5 H 0.6381 0.0737 0.7788
H6 H 0.5577 -0.0052 0.7091
C4 C 0.6748(6) 0.1230(5) 0.6994(3)
C5 C 0.6461(6) 0.1917(4) 0.6696(3)
H7 H 0.5639 0.1999 0.6673
C6 C 0.7345(6) 0.2484(5) 0.6433(3)
H8 H 0.7127 0.2953 0.6238
C7 C 0.8566(6) 0.2370(5) 0.6453(3)
C8 C 0.8824(6) 0.1664(5) 0.6734(3)
H9 H 0.9630 0.1560 0.6742
C9 C 0.7952(6) 0.1113(5) 0.7000(3)
H10 H 0.8170 0.0640 0.7192
C10 C 0.9539(6) 0.3049(5) 0.6201(3)
H11 H 0.9062 0.3224 0.5834
H12 H 1.0028 0.3663 0.6563
C11 C 1.0496(6) 0.2608(5) 0.5955(3)
H13 H 1.1084 0.3087 0.5790
H14 H 1.1033 0.2493 0.6333
C12 C 0.9862(6) 0.1653(5) 0.5410(3)
C13 C 0.3524(6) 0.0325(5) 0.4718(3)
H15 H 0.3135 -0.0369 0.4541
C14 C 0.4619(6) 0.0810(5) 0.4535(3)
H16 H 0.4970 0.0444 0.4241
C15 C 0.5195(6) 0.1816(5) 0.4777(3)
C16 C 0.4611(6) 0.2321(5) 0.5196(3)
H17 H 0.4955 0.3018 0.5363
C17 C 0.3534(6) 0.1793(5) 0.5361(3)
H18 H 0.3157 0.2146 0.5647
C18 C 0.6457(6) 0.2370(5) 0.4672(3)
H19 H 0.7166 0.2255 0.4962
H20 H 0.6591 0.3082 0.4816
C19 C 0.7929(6) 0.2637(5) 0.3938(3)
H21 H 0.8148 0.3356 0.4120
H22 H 0.8560 0.2430 0.4210
C20 C 0.8018(6) 0.2405(5) 0.3230(3)
H23 H 0.8909 0.2758 0.3213
H24 H 0.7840 0.1690 0.3056
C21 C 0.5775(6) 0.2130(5) 0.2821(3)
H25 H 0.5625 0.1419 0.2649
H26 H 0.5126 0.2295 0.2526
C22 C 0.5598(6) 0.2342(5) 0.3507(3)
H27 H 0.4708 0.1945 0.3500
H28 H 0.5699 0.3046 0.3670
C23 C 0.7241(6) 0.2593(5) 0.2149(3)
H29 H 0.6956 0.1886 0.1908
H30 H 0.8173 0.2891 0.2172
C24 C 0.5189(6) 0.3197(4) 0.0783(3)
H31 H 0.4792 0.2924 0.0320
C25 C 0.5893(6) 0.2715(5) 0.1101(3)
H32 H 0.5984 0.2133 0.0856
C26 C 0.6460(6) 0.3085(4) 0.1775(3)
C27 C 0.6294(6) 0.3947(4) 0.2101(3)
H33 H 0.6667 0.4229 0.2566
C28 C 0.5597(5) 0.4386(4) 0.1754(3)
H34 H 0.5500 0.4973 0.1987
C29 C -0.0922(6) 0.8659(5) -0.3919(3)
H35 H -0.1204 0.8366 -0.4386
C30 C -0.1677(6) 0.8266(5) -0.3533(3)
H36 H -0.2456 0.7719 -0.3735
C31 C -0.1298(5) 0.8670(4) -0.2849(3)
C32 C -0.0143(6) 0.9477(4) -0.2587(3)
H37 H 0.0161 0.9782 -0.2122
C33 C 0.0546(6) 0.9826(4) -0.3007(3)
H38 H 0.1323 1.0379 -0.2819
C34 C -0.2103(5) 0.8273(5) -0.2409(3)
H39 H -0.2693 0.8652 -0.2337
H40 H -0.2649 0.7580 -0.2642
C35 C -0.0506(6) 0.7714(5) -0.1847(3)
H41 H 0.0070 0.7946 -0.2125
H42 H -0.1056 0.7022 -0.2078
C36 C 0.0309(5) 0.7771(5) -0.1184(3)
H43 H 0.0855 0.7354 -0.1254
H44 H 0.0894 0.8458 -0.0964
C37 C -0.1432(6) 0.8015(4) -0.0685(3)
H45 H -0.2031 0.7759 -0.0423
H46 H -0.0925 0.8714 -0.0449
C38 C -0.2203(5) 0.7932(4) -0.1364(3)
H47 H -0.2730 0.7234 -0.1594
H48 H -0.2805 0.8307 -0.1320
C39 C 0.0265(5) 0.7541(4) -0.0066(3)
H49 H 0.0798 0.8243 0.0142
H50 H -0.0341 0.7352 0.0208
C40 C 0.1552(6) 0.5418(4) -0.0269(3)
H51 H 0.1260 0.4739 -0.0504
C41 C 0.0735(6) 0.5944(4) -0.0378(3)
H52 H -0.0105 0.5629 -0.0677
C42 C 0.1150(5) 0.6943(4) -0.0046(3)
C43 C 0.2404(5) 0.7362(4) 0.0358(3)
H53 H 0.2747 0.8049 0.0572
C44 C 0.3153(6) 0.6791(4) 0.0450(3)
H54 H 0.4006 0.7094 0.0738
C45 C 0.2968(5) 0.5193(4) 0.1677(3)
C46 C 0.2581(6) 0.5343(5) 0.2317(3)
H55 H 0.3010 0.6044 0.2574
H56 H 0.2918 0.4949 0.2577
C47 C 0.1123(6) 0.5071(5) 0.2251(3)
H57 H 0.0680 0.4410 0.1932
H58 H 0.0968 0.5025 0.2687
C48 C 0.0501(6) 0.5764(4) 0.2029(3)
C49 C 0.1082(6) 0.6495(4) 0.1762(3)
H59 H 0.1914 0.6554 0.1687
C50 C 0.0475(6) 0.7147(4) 0.1601(3)
H60 H 0.0902 0.7646 0.1422
C51 C -0.1353(6) 0.6319(4) 0.1947(3)
H61 H -0.2198 0.6245 0.2008
C52 C -0.0739(6) 0.5676(5) 0.2105(3)
H62 H -0.1175 0.5162 0.2269
C53 C -0.0733(6) 0.7079(4) 0.1697(3)
C54 C -0.1335(6) 0.7836(4) 0.1566(3)
H63 H -0.0928 0.8152 0.1256
H64 H -0.1137 0.8352 0.1988
C55 C -0.2808(6) 0.7414(4) 0.1272(3)
H65 H -0.3228 0.7150 0.1596
H66 H -0.3128 0.7947 0.1189
C56 C -0.3185(5) 0.6611(4) 0.0635(3)
Cd1A Cd -0.38660(4) 0.51562(3) -0.05533(2)
Cd1_2 Cd -0.61340(4) 0.48438(3) 0.05533(2)
Cd2_2 Cd 1.14916(4) 0.00237(3) 0.56582(2)
Cd2A Cd 0.85084(4) -0.00237(3) 0.43418(2)
Cd2_3 Cd 0.14916(4) 1.00237(3) -0.43418(2)
O9_2 O 0.0394(4) 0.1012(4) 0.5349(2)
O9A O -0.0394(4) -0.1012(4) 0.4651(2)
O11A O 0.1193(4) -0.1521(3) 0.4991(2)
O16A O 0.2436(4) 0.3396(3) -0.02630(19)
O17_2 O 0.5706(4) 0.5956(3) 0.0460(2)
O17A O 0.4294(4) 0.4044(3) -0.0460(2)
N5_2 N 0.0187(4) -0.0571(3) 0.6326(2)
Cl1 Cl 0.66989(19) 0.97174(13) 0.07773(11)
O18 O 0.6586(6) 1.0557(4) 0.0585(3)
O19 O 0.7754(8) 0.9972(6) 0.1305(5)
O20 O 0.6732(10) 0.9032(5) 0.0225(4)
O21 O 0.5573(7) 0.9221(6) 0.0950(4)
Cl2 Cl 1.1061(5) 1.4574(4) -0.6026(3)
O1 O 1.2177(17) 1.4464(11) -0.5247(9)
O2 O 0.9900(14) 1.4609(11) -0.6421(8)
O22 O 1.1330(8) 1.3810(6) -0.6551(5)
O23 O 1.2274(9) 1.5394(6) -0.5844(5)
O3 O 1.4946(16) 1.4136(12) -0.5304(9)
O4 O -0.7835(12) 0.4968(11) -0.4134(7)
O6 O 0.3878(5) 1.3183(3) -0.2752(2)
O8 O 0.3730(7) 1.0255(5) 0.0999(4)
O10 O -0.1187(8) 1.0403(4) -0.1109(4)
O12 O -0.4032(8) 0.5977(5) -0.3352(4)
O14 O -0.6122(9) 0.4374(6) -0.3558(4)
Cl3? Cl 1.1889(6) 1.4393(4) -0.5893(3)
O24? O 1.100(2) 1.3756(14) -0.5599(12)
O25? O 1.2986(16) 1.4129(12) -0.5626(10)
O26? O 1.2761(13) 1.3646(10) -0.4883(8)
loop_
_geom_bond_atom_site_label_1
_geom_bond_atom_site_label_2
_geom_bond_site_symmetry_1
_geom_bond_site_symmetry_2
Cd1 O13 1_555 1_555
Cd2 O5 1_555 1_555
Cl1 O18 1_555 1_555
Cl2 O1 1_555 1_555
O2 Cl2 1_555 1_555
O5 C1 1_555 1_555
O7 Cd2 1_555 1_555
O9 C12 1_555 1_555
O11 C12 1_555 1_555
O13 C45 1_555 1_555
O15 Cd1 1_555 1_555
O16 C56 1_555 1_555
O17 C56 1_555 1_555
O19 Cl1 1_555 1_555
O20 Cl1 1_555 1_555
O21 Cl1 1_555 1_555
O22 Cl2 1_555 1_555
O23 Cl2 1_555 1_555
N1 Cd2 1_555 1_555
N2 H1 1_555 1_555
N3 C20 1_555 1_555
N4 Cd1 1_555 1_555
N5 C29 1_555 1_555
N6 C34 1_555 1_555
N7 H2 1_555 1_555
N8 Cd1 1_555 1_555
C1 O7 1_555 1_555
C2 C1 1_555 1_555
H3 C2 1_555 1_555
H4 C2 1_555 1_555
C3 C2 1_555 1_555
H5 C3 1_555 1_555
H6 C3 1_555 1_555
C4 C3 1_555 1_555
C5 C4 1_555 1_555
H7 C5 1_555 1_555
C6 C5 1_555 1_555
H8 C6 1_555 1_555
C7 C6 1_555 1_555
C8 C7 1_555 1_555
H9 C8 1_555 1_555
C9 C4 1_555 1_555
H10 C9 1_555 1_555
C10 C7 1_555 1_555
H11 C10 1_555 1_555
H12 C10 1_555 1_555
C11 C10 1_555 1_555
H13 C11 1_555 1_555
H14 C11 1_555 1_555
C12 C11 1_555 1_555
C13 N1 1_555 1_555
H15 C13 1_555 1_555
C14 C13 1_555 1_555
H16 C14 1_555 1_555
C15 C14 1_555 1_555
C16 C15 1_555 1_555
H17 C16 1_555 1_555
C17 N1 1_555 1_555
H18 C17 1_555 1_555
C18 N2 1_555 1_555
H19 C18 1_555 1_555
H20 C18 1_555 1_555
C19 N2 1_555 1_555
H21 C19 1_555 1_555
H22 C19 1_555 1_555
C20 C19 1_555 1_555
H23 C20 1_555 1_555
H24 C20 1_555 1_555
C21 N3 1_555 1_555
H25 C21 1_555 1_555
H26 C21 1_555 1_555
C22 N2 1_555 1_555
H27 C22 1_555 1_555
H28 C22 1_555 1_555
C23 N3 1_555 1_555
H29 C23 1_555 1_555
H30 C23 1_555 1_555
C24 N4 1_555 1_555
H31 C24 1_555 1_555
C25 C24 1_555 1_555
H32 C25 1_555 1_555
C26 C23 1_555 1_555
C27 C26 1_555 1_555
H33 C27 1_555 1_555
C28 N4 1_555 1_555
H34 C28 1_555 1_555
C29 H35 1_555 1_555
C30 C29 1_555 1_555
H36 C30 1_555 1_555
C31 C30 1_555 1_555
C32 C31 1_555 1_555
H37 C32 1_555 1_555
C33 N5 1_555 1_555
H38 C33 1_555 1_555
C34 C31 1_555 1_555
H39 C34 1_555 1_555
H40 C34 1_555 1_555
C35 N6 1_555 1_555
H41 C35 1_555 1_555
H42 C35 1_555 1_555
C36 N7 1_555 1_555
H43 C36 1_555 1_555
H44 C36 1_555 1_555
C37 N7 1_555 1_555
H45 C37 1_555 1_555
H46 C37 1_555 1_555
C38 N6 1_555 1_555
H47 C38 1_555 1_555
H48 C38 1_555 1_555
C39 N7 1_555 1_555
H49 C39 1_555 1_555
H50 C39 1_555 1_555
C40 N8 1_555 1_555
H51 C40 1_555 1_555
C41 C40 1_555 1_555
H52 C41 1_555 1_555
C42 C39 1_555 1_555
C43 C42 1_555 1_555
H53 C43 1_555 1_555
C44 N8 1_555 1_555
H54 C44 1_555 1_555
C45 O15 1_555 1_555
C46 C45 1_555 1_555
H55 C46 1_555 1_555
H56 C46 1_555 1_555
C47 C46 1_555 1_555
H57 C47 1_555 1_555
H58 C47 1_555 1_555
C48 C47 1_555 1_555
C49 C48 1_555 1_555
H59 C49 1_555 1_555
C50 C49 1_555 1_555
H60 C50 1_555 1_555
C51 H61 1_555 1_555
C52 C48 1_555 1_555
H62 C52 1_555 1_555
C53 C50 1_555 1_555
C54 C53 1_555 1_555
H63 C54 1_555 1_555
H64 C54 1_555 1_555
C55 C54 1_555 1_555
H65 C55 1_555 1_555
H66 C55 1_555 1_555
C56 C55 1_555 1_555
Cd1A O16 1_555 1_555
Cd1_2 O17 1_555 1_555
Cd2_2 O9 1_555 1_555
Cd2A O9 1_555 1_555
Cd2_3 N5 1_555 1_555
O9_2 Cd2 1_555 1_555
O9A Cd2 1_555 1_555
O11A Cd2 1_555 1_555
O16A Cd1 1_555 1_555
O17_2 Cd1 1_555 1_555
O17A Cd1 1_555 1_555
N5_2 Cd2 1_555 1_555
O11 Cd2A 1_555 1_555
O17 Cd1A 1_555 1_555
C8 C9 1_555 1_555
C15 C18 1_555 1_555
C16 C17 1_555 1_555
C21 C22 1_555 1_555
C25 C26 1_555 1_555
C27 C28 1_555 1_555
C32 C33 1_555 1_555
C35 C36 1_555 1_555
C37 C38 1_555 1_555
C41 C42 1_555 1_555
C43 C44 1_555 1_555
C51 C52 1_555 1_555
C51 C53 1_555 1_555

#END
