
#######################################################################
#
#                 Cambridge Crystallographic Data Centre
#                                CCDC 
#
#######################################################################
#
# If this CIF has been generated from an entry in the Cambridge 
# Structural Database, then it will include bibliographic, chemical, 
# crystal, experimental, refinement or atomic coordinate data resulting 
# from the CCDC's data processing and validation procedures.
#
#######################################################################

data_EKOFUG
_symmetry_cell_setting           monoclinic
_symmetry_space_group_name_H-M   'C 2/c'
_symmetry_Int_Tables_number      15
_space_group_name_Hall           '-C 2yn'
loop_
_symmetry_equiv_pos_site_id
_symmetry_equiv_pos_as_xyz
1 x,y,z
2 -x,y,1/2-z
3 1/2+x,1/2+y,z
4 1/2-x,1/2+y,1/2-z
5 -x,-y,-z
6 x,-y,1/2+z
7 1/2-x,1/2-y,-z
8 1/2+x,1/2-y,1/2+z
_cell_length_a                   20.684(6)
_cell_length_b                   16.797(5)
_cell_length_c                   16.731(5)
_cell_angle_alpha                90
_cell_angle_beta                 115.511(5)
_cell_angle_gamma                90
_cell_volume                     5246.1
loop_
_atom_site_label
_atom_site_type_symbol
_atom_site_fract_x
_atom_site_fract_y
_atom_site_fract_z
Zn1 Zn 0.255942(18) 0.51533(2) 0.29854(2)
N1 N 0.15464(13) 0.41720(15) 0.32931(16)
N2 N 0.17232(13) 0.49150(15) 0.32171(16)
N3 N 0.12982(13) 0.54754(15) 0.33495(16)
C1 C 0.08362(16) 0.50311(17) 0.35187(18)
N4 N 0.02827(13) 0.53067(15) 0.37026(17)
C2 C 0.01531(18) 0.61572(19) 0.3736(2)
H1 H -0.0216 0.6329 0.3161
H2 H 0.0596 0.6454 0.3872
H3 H -0.0010 0.6259 0.4197
C3 C -0.01542(16) 0.47673(19) 0.3846(2)
O1 O -0.06570(12) 0.49813(14) 0.39916(16)
N5 N 0.00040(13) 0.39526(15) 0.38193(16)
C4 C -0.04750(17) 0.3374(2) 0.3936(2)
H4 H -0.0737 0.3083 0.3382
H5 H -0.0816 0.3655 0.4099
H6 H -0.0195 0.2999 0.4407
C5 C 0.05594(16) 0.36301(19) 0.36490(19)
O2 O 0.06421(12) 0.29119(13) 0.36490(15)
C6 C 0.09741(15) 0.42397(17) 0.34886(18)
N6 N 0.36826(14) 0.59718(16) 0.43979(16)
N7 N 0.34283(14) 0.52570(15) 0.40978(16)
N8 N 0.37879(14) 0.46414(16) 0.46530(17)
C7 C 0.42904(16) 0.50233(18) 0.53308(19)
N9 N 0.48143(13) 0.46753(15) 0.60848(16)
C8 C 0.48110(17) 0.38183(19) 0.6221(2)
H7 H 0.4900 0.3542 0.5762
H8 H 0.4344 0.3656 0.6185
H9 H 0.5187 0.3680 0.6805
C9 C 0.53011(16) 0.51541(19) 0.6720(2)
O3 O 0.57743(11) 0.48855(13) 0.73925(15)
N10 N 0.52364(13) 0.59843(15) 0.65664(17)
C10 C 0.57754(17) 0.6490(2) 0.7237(2)
H10 H 0.6137 0.6648 0.7036
H11 H 0.6006 0.6192 0.7792
H12 H 0.5546 0.6967 0.7335
C11 C 0.47334(17) 0.6376(2) 0.5815(2)
O4 O 0.47453(13) 0.71009(14) 0.57473(16)
C12 C 0.42467(16) 0.58338(18) 0.52007(19)
N11 N 0.24593(13) 0.61884(14) 0.23417(16)
C13 C 0.30530(15) 0.65398(17) 0.23573(19)
H13 H 0.3505 0.6416 0.2827
C14 C 0.30267(16) 0.70684(17) 0.17196(18)
H14 H 0.3454 0.7306 0.1751
C15 C 0.23699(16) 0.72538(17) 0.10264(19)
C16 C 0.17590(16) 0.69216(19) 0.1035(2)
H15 H 0.1300 0.7059 0.0589
C17 C 0.18204(16) 0.63923(19) 0.1693(2)
H16 H 0.1399 0.6164 0.1688
C18 C 0.23449(17) 0.77447(18) 0.02663(19)
H17 H 0.2628 0.8237 0.0491
H18 H 0.1844 0.7897 -0.0120
N12 N 0.25294(12) 0.43824(15) 0.20333(16)
C19 C 0.23209(15) 0.36199(19) 0.2031(2)
H19 H 0.2246 0.3435 0.2522
C20 C 0.22126(17) 0.31039(19) 0.1353(2)
H20 H 0.2073 0.2570 0.1383
C21 C 0.23076(15) 0.33572(18) 0.06176(19)
C22 C 0.25294(16) 0.41354(19) 0.0631(2)
H21 H 0.2609 0.4334 0.0150
C23 C 0.26356(16) 0.46233(19) 0.13376(19)
H22 H 0.2792 0.5154 0.1331
C24 C 0.21880(16) 0.27965(18) -0.0130(2)
H23 H 0.2145 0.3104 -0.0656
H24 H 0.1735 0.2501 -0.0289
Zn1F Zn 0.244058(18) 0.98467(2) -0.29854(2)
Zn1F_2 Zn 0.244058(18) -0.01533(2) -0.29854(2)
N1F N 0.34536(13) 1.08280(15) -0.32931(16)
N2F N 0.32768(13) 1.00850(15) -0.32171(16)
N3F N 0.37018(13) 0.95246(15) -0.33495(16)
C1F C 0.41638(16) 0.99689(17) -0.35187(18)
N4F N 0.47173(13) 0.96933(15) -0.37026(17)
C2F C 0.48469(18) 0.88428(19) -0.3736(2)
H1F H 0.5216 0.8671 -0.3161
H2F H 0.4404 0.8546 -0.3872
H3F H 0.5010 0.8741 -0.4197
C3F C 0.51542(16) 1.02327(19) -0.3846(2)
O1F O 0.56570(12) 1.00187(14) -0.39916(16)
N5F N 0.49960(13) 1.10474(15) -0.38193(16)
C4F C 0.54750(17) 1.1626(2) -0.3936(2)
H4F H 0.5737 1.1917 -0.3382
H5F H 0.5816 1.1345 -0.4099
H6F H 0.5195 1.2001 -0.4407
C5F C 0.44406(16) 1.13699(19) -0.36490(19)
O2F O 0.43579(12) 1.20881(13) -0.36490(15)
C6F C 0.40259(15) 1.07603(17) -0.34886(18)
N6F N 0.13174(14) 0.90282(16) -0.43979(16)
N7F N 0.15717(14) 0.97430(15) -0.40978(16)
N8F N 0.12121(14) 1.03586(16) -0.46530(17)
C7F C 0.07096(16) 0.99767(18) -0.53308(19)
N9F N 0.01857(13) 1.03247(15) -0.60848(16)
C8F C 0.01890(17) 1.11817(19) -0.6221(2)
H7F H 0.0100 1.1458 -0.5762
H8F H 0.0656 1.1344 -0.6185
H9F H -0.0187 1.1320 -0.6805
C9F C -0.03011(16) 0.98459(19) -0.6720(2)
O3F O -0.07743(11) 1.01145(13) -0.73925(15)
N10F N -0.02364(13) 0.90157(15) -0.65664(17)
C10F C -0.07754(17) 0.8510(2) -0.7237(2)
H10F H -0.1137 0.8352 -0.7036
H11F H -0.1006 0.8808 -0.7792
H12F H -0.0546 0.8033 -0.7335
C11F C 0.02666(17) 0.8624(2) -0.5815(2)
O4F O 0.02547(13) 0.78991(14) -0.57473(16)
C12F C 0.07533(16) 0.91662(18) -0.52007(19)
N11F N 0.25407(13) 0.88116(14) -0.23417(16)
C13F C 0.19470(15) 0.84602(17) -0.23573(19)
H13F H 0.1495 0.8584 -0.2827
C14F C 0.19733(16) 0.79316(17) -0.17196(18)
H14F H 0.1546 0.7694 -0.1751
C15F C 0.26301(16) 0.77462(17) -0.10264(19)
C16F C 0.32410(16) 0.80784(19) -0.1035(2)
H15F H 0.3700 0.7941 -0.0589
C17F C 0.31796(16) 0.86077(19) -0.1693(2)
H16F H 0.3601 0.8836 -0.1688
C18F C 0.26551(17) 0.72553(18) -0.02663(19)
H17F H 0.2372 0.6763 -0.0491
H18F H 0.3156 0.7103 0.0120
N12F N 0.24706(12) 0.06176(15) -0.20333(16)
N12F_2 N 0.24706(12) 1.06176(15) -0.20333(16)
C19F C 0.26791(15) 0.13801(19) -0.2031(2)
H19F H 0.2754 0.1565 -0.2522
C20F C 0.27874(17) 0.18961(19) -0.1353(2)
H20F H 0.2927 0.2430 -0.1383
C21F C 0.26924(15) 0.16428(18) -0.06176(19)
C22F C 0.24706(16) 0.08646(19) -0.0631(2)
H21F H 0.2391 0.0666 -0.0150
C23F C 0.23644(16) 0.03767(19) -0.13376(19)
H22F H 0.2208 -0.0154 -0.1331
C24F C 0.28120(16) 0.22035(18) 0.0130(2)
H23F H 0.2855 0.1896 0.0656
H24F H 0.3265 0.2499 0.0289
loop_
_geom_bond_atom_site_label_1
_geom_bond_atom_site_label_2
_geom_bond_site_symmetry_1
_geom_bond_site_symmetry_2
Zn1 N2 1_555 1_555
N1 N2 1_555 1_555
N2 N3 1_555 1_555
N3 C1 1_555 1_555
C1 N4 1_555 1_555
N4 C2 1_555 1_555
C2 H1 1_555 1_555
H2 C2 1_555 1_555
H3 C2 1_555 1_555
C3 N4 1_555 1_555
O1 C3 1_555 1_555
N5 C3 1_555 1_555
C4 N5 1_555 1_555
H4 C4 1_555 1_555
H5 C4 1_555 1_555
H6 C4 1_555 1_555
C5 N5 1_555 1_555
O2 C5 1_555 1_555
C6 N1 1_555 1_555
N6 N7 1_555 1_555
N7 Zn1 1_555 1_555
N8 N7 1_555 1_555
C7 N8 1_555 1_555
N9 C7 1_555 1_555
C8 N9 1_555 1_555
H7 C8 1_555 1_555
H8 C8 1_555 1_555
H9 C8 1_555 1_555
C9 N9 1_555 1_555
O3 C9 1_555 1_555
N10 C9 1_555 1_555
C10 N10 1_555 1_555
H10 C10 1_555 1_555
H11 C10 1_555 1_555
H12 C10 1_555 1_555
C11 N10 1_555 1_555
O4 C11 1_555 1_555
C12 N6 1_555 1_555
N11 Zn1 1_555 1_555
C13 N11 1_555 1_555
H13 C13 1_555 1_555
C14 C13 1_555 1_555
H14 C14 1_555 1_555
C15 C14 1_555 1_555
C16 C15 1_555 1_555
H15 C16 1_555 1_555
C17 N11 1_555 1_555
H16 C17 1_555 1_555
C18 C15 1_555 1_555
H17 C18 1_555 1_555
H18 C18 1_555 1_555
N12 Zn1 1_555 1_555
C19 N12 1_555 1_555
H19 C19 1_555 1_555
C20 C19 1_555 1_555
H20 C20 1_555 1_555
C21 C20 1_555 1_555
C22 C21 1_555 1_555
H21 C22 1_555 1_555
C23 N12 1_555 1_555
H22 C23 1_555 1_555
C24 C21 1_555 1_555
H23 C24 1_555 1_555
H24 C24 1_555 1_555
Zn1F N2F 1_555 1_555
Zn1F_2 N12F 1_555 1_555
N1F N2F 1_555 1_555
N2F N3F 1_555 1_555
N3F C1F 1_555 1_555
C1F N4F 1_555 1_555
N4F C2F 1_555 1_555
C2F H1F 1_555 1_555
H2F C2F 1_555 1_555
H3F C2F 1_555 1_555
C3F N4F 1_555 1_555
O1F C3F 1_555 1_555
N5F C3F 1_555 1_555
C4F N5F 1_555 1_555
H4F C4F 1_555 1_555
H5F C4F 1_555 1_555
H6F C4F 1_555 1_555
C5F N5F 1_555 1_555
O2F C5F 1_555 1_555
C6F N1F 1_555 1_555
N6F N7F 1_555 1_555
N7F Zn1F 1_555 1_555
N8F N7F 1_555 1_555
C7F N8F 1_555 1_555
N9F C7F 1_555 1_555
C8F N9F 1_555 1_555
H7F C8F 1_555 1_555
H8F C8F 1_555 1_555
H9F C8F 1_555 1_555
C9F N9F 1_555 1_555
O3F C9F 1_555 1_555
N10F C9F 1_555 1_555
C10F N10F 1_555 1_555
H10F C10F 1_555 1_555
H11F C10F 1_555 1_555
H12F C10F 1_555 1_555
C11F N10F 1_555 1_555
O4F C11F 1_555 1_555
C12F N6F 1_555 1_555
N11F Zn1F 1_555 1_555
C13F N11F 1_555 1_555
H13F C13F 1_555 1_555
C14F C13F 1_555 1_555
H14F C14F 1_555 1_555
C15F C14F 1_555 1_555
C16F C15F 1_555 1_555
H15F C16F 1_555 1_555
C17F N11F 1_555 1_555
H16F C17F 1_555 1_555
C18F C18 1_555 1_555
H17F C18F 1_555 1_555
H18F C18F 1_555 1_555
N12F C19F 1_555 1_555
N12F_2 Zn1F 1_555 1_555
C19F H19F 1_555 1_555
C20F C19F 1_555 1_555
H20F C20F 1_555 1_555
C21F C20F 1_555 1_555
C22F C21F 1_555 1_555
H21F C22F 1_555 1_555
C23F N12F 1_555 1_555
H22F C23F 1_555 1_555
C24F C24 1_555 1_555
H23F C24F 1_555 1_555
H24F C24F 1_555 1_555
C1 C6 1_555 1_555
C5 C6 1_555 1_555
C7 C12 1_555 1_555
C11 C12 1_555 1_555
C16 C17 1_555 1_555
C22 C23 1_555 1_555
C1F C6F 1_555 1_555
C5F C6F 1_555 1_555
C7F C12F 1_555 1_555
C11F C12F 1_555 1_555
C15F C18F 1_555 1_555
C16F C17F 1_555 1_555
C21F C24F 1_555 1_555
C22F C23F 1_555 1_555

#END
