
#######################################################################
#
#                 Cambridge Crystallographic Data Centre
#                                CCDC 
#
#######################################################################
#
# If this CIF has been generated from an entry in the Cambridge 
# Structural Database, then it will include bibliographic, chemical, 
# crystal, experimental, refinement or atomic coordinate data resulting 
# from the CCDC's data processing and validation procedures.
#
#######################################################################

data_EKONAU
_symmetry_cell_setting           monoclinic
_symmetry_space_group_name_H-M   'P 21/c'
_symmetry_Int_Tables_number      14
_space_group_name_Hall           '-P 2ybc'
loop_
_symmetry_equiv_pos_site_id
_symmetry_equiv_pos_as_xyz
1 x,y,z
2 -x,1/2+y,1/2-z
3 -x,-y,-z
4 x,1/2-y,1/2+z
_cell_length_a                   11.5721(6)
_cell_length_b                   15.8683(9)
_cell_length_c                   10.6892(6)
_cell_angle_alpha                90
_cell_angle_beta                 103.4760(10)
_cell_angle_gamma                90
_cell_volume                     1908.81
loop_
_atom_site_label
_atom_site_type_symbol
_atom_site_fract_x
_atom_site_fract_y
_atom_site_fract_z
Sn1 Sn 0.022858(9) 0.203469(7) 0.197751(10)
O1 O 0.03329(10) 0.12841(7) 0.01993(11)
O2 O 0.02147(10) 0.24056(7) -0.10823(11)
C1 C 0.03032(14) 0.16277(11) -0.08658(16)
H1 H 0.0352 0.1270 -0.1565
C2 C 0.02630(14) 0.08162(10) 0.28595(16)
H2 H 0.0724 0.0423 0.2445
H3 H 0.0672 0.0861 0.3780
C3 C -0.09637(14) 0.04630(10) 0.27495(16)
C4 C -0.16827(15) 0.02386(11) 0.15529(17)
H4 H -0.1389 0.0301 0.0799
C5 C -0.28228(16) -0.00752(11) 0.14558(18)
H5 H -0.3302 -0.0223 0.0636
C6 C -0.32650(16) -0.01744(12) 0.25444(19)
H6 H -0.4042 -0.0392 0.2474
C7 C -0.25669(16) 0.00455(12) 0.37341(19)
H7 H -0.2866 -0.0021 0.4484
C8 C -0.14290(15) 0.03633(11) 0.38356(17)
H8 H -0.0960 0.0515 0.4657
C9 C 0.19075(14) 0.26360(11) 0.20184(16)
H9 H 0.2091 0.2593 0.1161
H10 H 0.1861 0.3241 0.2229
C10 C 0.28730(14) 0.22201(10) 0.30072(16)
C11 C 0.33325(15) 0.14369(11) 0.27675(17)
H11 H 0.3056 0.1177 0.1952
C12 C 0.41869(15) 0.10329(12) 0.37042(19)
H12 H 0.4486 0.0500 0.3525
C13 C 0.46052(15) 0.14029(13) 0.48988(18)
H13 H 0.5189 0.1126 0.5540
C14 C 0.41642(15) 0.21788(13) 0.51480(17)
H14 H 0.4447 0.2437 0.5964
C15 C 0.33092(14) 0.25822(12) 0.42107(16)
H15 H 0.3016 0.3116 0.4395
C16 C -0.14528(14) 0.25662(11) 0.10030(16)
H16 H -0.1299 0.3027 0.0439
H17 H -0.1912 0.2127 0.0442
C17 C -0.22096(14) 0.29076(10) 0.18511(15)
C18 C -0.21857(15) 0.37623(11) 0.21649(16)
H18 H -0.1699 0.4136 0.1819
C19 C -0.28637(16) 0.40751(12) 0.29763(17)
H19 H -0.2823 0.4656 0.3195
C20 C -0.35977(16) 0.35440(13) 0.34665(17)
H20 H -0.4067 0.3759 0.4014
C21 C -0.36414(15) 0.26946(13) 0.31503(17)
H21 H -0.4147 0.2327 0.3479
C22 C -0.29519(14) 0.23812(11) 0.23587(16)
H22 H -0.2984 0.1797 0.2157
Sn1C Sn 0.022858(9) 0.296531(7) -0.302249(10)
O2C O 0.02147(10) 0.25944(7) 0.39177(11)
loop_
_geom_bond_atom_site_label_1
_geom_bond_atom_site_label_2
_geom_bond_site_symmetry_1
_geom_bond_site_symmetry_2
Sn1 O1 1_555 1_555
O1 C1 1_555 1_555
O2 C1 1_555 1_555
C1 H1 1_555 1_555
C2 Sn1 1_555 1_555
H2 C2 1_555 1_555
H3 C2 1_555 1_555
C3 C2 1_555 1_555
C4 C3 1_555 1_555
H4 C4 1_555 1_555
C5 C4 1_555 1_555
H5 C5 1_555 1_555
C6 C5 1_555 1_555
H6 C6 1_555 1_555
C7 C6 1_555 1_555
H7 C7 1_555 1_555
C8 C3 1_555 1_555
H8 C8 1_555 1_555
C9 Sn1 1_555 1_555
H9 C9 1_555 1_555
H10 C9 1_555 1_555
C10 C9 1_555 1_555
C11 C10 1_555 1_555
H11 C11 1_555 1_555
C12 C11 1_555 1_555
H12 C12 1_555 1_555
C13 C12 1_555 1_555
H13 C13 1_555 1_555
C14 C13 1_555 1_555
H14 C14 1_555 1_555
C15 C10 1_555 1_555
H15 C15 1_555 1_555
C16 Sn1 1_555 1_555
H16 C16 1_555 1_555
H17 C16 1_555 1_555
C17 C16 1_555 1_555
C18 C17 1_555 1_555
H18 C18 1_555 1_555
C19 C18 1_555 1_555
H19 C19 1_555 1_555
C20 C19 1_555 1_555
H20 C20 1_555 1_555
C21 C20 1_555 1_555
H21 C21 1_555 1_555
C22 C17 1_555 1_555
H22 C22 1_555 1_555
Sn1C O2 1_555 1_555
O2C Sn1 1_555 1_555
C7 C8 1_555 1_555
C14 C15 1_555 1_555
C21 C22 1_555 1_555

#END
