
#######################################################################
#
#                 Cambridge Crystallographic Data Centre
#                                CCDC 
#
#######################################################################
#
# If this CIF has been generated from an entry in the Cambridge 
# Structural Database, then it will include bibliographic, chemical, 
# crystal, experimental, refinement or atomic coordinate data resulting 
# from the CCDC's data processing and validation procedures.
#
#######################################################################

data_EKOYEJ
_symmetry_cell_setting           triclinic
_symmetry_space_group_name_H-M   'P -1'
_symmetry_Int_Tables_number      2
_space_group_name_Hall           '-P 1'
loop_
_symmetry_equiv_pos_site_id
_symmetry_equiv_pos_as_xyz
1 x,y,z
2 -x,-y,-z
_cell_length_a                   8.3932(3)
_cell_length_b                   18.6932(8)
_cell_length_c                   19.3692(8)
_cell_angle_alpha                81.359(1)
_cell_angle_beta                 77.775(1)
_cell_angle_gamma                77.525(1)
_cell_volume                     2882.47
loop_
_atom_site_label
_atom_site_type_symbol
_atom_site_fract_x
_atom_site_fract_y
_atom_site_fract_z
C1 C -1.0150(6) -0.0712(3) 1.1713(2)
H1 H -1.0320 -0.1141 1.2005
N1 N -1.1119(4) -0.0076(2) 1.18938(17)
C2 C -1.0810(6) 0.0526(3) 1.1465(2)
H2 H -1.1457 0.0979 1.1577
O1 O -1.3946(3) 0.14314(12) 1.25263(13)
H9 H -1.4973 0.1614 1.2414
H10 H -1.3423 0.1806 1.2581
Ag1 Ag -1.31436(4) 0.00006(2) 1.279500(17)
Ag2 Ag -0.31401(4) -0.02564(2) 0.777939(17)
N4 N -1.5027(4) -0.0041(2) 1.37426(17)
N5 N -0.4970(4) -0.02440(19) 0.87427(17)
N6 N -2.1102(4) -0.01862(19) 1.69050(17)
C12 C -1.6283(5) -0.0716(2) 1.4789(2)
H27 H -1.6316 -0.1169 1.5061
C13 C -0.8616(5) -0.0144(2) 1.0673(2)
C14 C -1.7367(5) -0.0085(2) 1.5016(2)
C16 C -0.7334(5) -0.0182(2) 1.0008(2)
C17 C -1.8623(4) -0.0115(2) 1.56769(19)
C18 C -1.7227(5) 0.0567(2) 1.4577(2)
H28 H -1.7924 0.1005 1.4701
C19 C -0.6976(6) 0.0449(2) 0.9579(2)
H29 H -0.7527 0.0911 0.9708
C21 C -0.6445(6) -0.0842(2) 0.9776(2)
H30 H -0.6624 -0.1284 1.0044
C22 C -1.5158(5) -0.0668(2) 1.4160(2)
H31 H -1.4451 -0.1098 1.4018
C23 C -1.6060(5) 0.0568(2) 1.3957(2)
H32 H -1.5990 0.1013 1.3675
C28 C -2.0999(6) 0.0441(2) 1.6479(2)
H35 H -2.1775 0.0863 1.6595
C29 C -1.9808(6) 0.0494(2) 1.5881(2)
H36 H -1.9792 0.0946 1.5606
C31 C -0.5305(6) -0.0852(3) 0.9157(2)
H37 H -0.4731 -0.1306 0.9017
C32 C -0.8923(6) -0.0767(2) 1.1123(2)
H38 H -0.8292 -0.1226 1.1024
C33 C -0.5816(6) 0.0395(3) 0.8967(2)
H39 H -0.5606 0.0828 0.8691
C39 C -1.9943(6) -0.0776(3) 1.6720(2)
H45 H -1.9973 -0.1220 1.7009
C40 C -0.9586(6) 0.0513(2) 1.0866(2)
H46 H -0.9415 0.0952 1.0591
C47 C -1.8719(6) -0.0759(2) 1.6131(2)
H52 H -1.7940 -0.1185 1.6033
Ag1A Ag -0.68564(4) -0.00006(2) 0.720500(17)
Ag2A Ag -1.68599(4) 0.02564(2) 1.222061(17)
Ag2_2 Ag -2.31401(4) -0.02564(2) 1.777939(17)
N6_2 N -0.1102(4) -0.01862(19) 0.69050(17)
C3 C 0.3208(9) 0.4421(3) 0.0702(3)
H3 H 0.3498 0.3966 0.0959
C4 C 0.2905(8) 0.5643(3) 0.0577(3)
H4 H 0.2967 0.6074 0.0746
N2 N 0.3341(5) 0.5009(2) 0.09572(19)
C5 C -0.2754(5) 0.5093(2) -0.5331(2)
C6 C -0.2177(8) 0.4472(3) -0.4905(3)
H5 H -0.2114 0.4007 -0.5038
C7 C -0.2785(8) 0.5761(3) -0.5092(3)
H6 H -0.3157 0.6202 -0.5353
C8 C -0.1694(8) 0.4538(3) -0.4284(3)
H7 H -0.1331 0.4108 -0.4005
C9 C -0.2258(3) 0.57648(12) -0.44641(13)
H8 H -0.2288 0.6218 -0.4315
N3 N -0.1713(5) 0.5163(2) -0.40631(19)
O10 O -0.2750(2) 0.64759(8) -0.28930(8)
H23 H -0.3651 0.6556 -0.2563
H24 H -0.2940 0.6821 -0.3227
Ag3 Ag -0.09554(5) 0.52089(2) -0.308000(19)
Ag4 Ag 0.43225(5) 0.49580(2) 0.190200(19)
N7 N -0.4619(5) 0.4983(2) -0.71948(19)
N8 N 0.0269(5) 0.5179(2) -0.22119(19)
C11 C 0.2226(5) 0.5087(2) -0.0320(2)
C15 C -0.3347(5) 0.5055(2) -0.5986(2)
C27 C 0.1603(5) 0.5122(2) -0.0990(2)
C36 C -0.4482(7) 0.5623(3) -0.7007(3)
H42 H -0.4811 0.6054 -0.7293
C41 C -0.3438(7) 0.4403(3) -0.6196(3)
H47 H -0.3068 0.3964 -0.5930
C44 C -0.4062(7) 0.4380(3) -0.6791(3)
H49 H -0.4097 0.3923 -0.6916
C45 C 0.1491(7) 0.4498(3) -0.1252(3)
H50 H 0.1871 0.4036 -0.1025
C46 C 0.2366(8) 0.5698(3) -0.0053(3)
H51 H 0.2093 0.6160 -0.0300
C48 C -0.3882(7) 0.5679(3) -0.6414(3)
H53 H -0.3837 0.6140 -0.6302
C50 C 0.1082(7) 0.5776(3) -0.1377(3)
H54 H 0.1174 0.6218 -0.1237
C51 C 0.0424(8) 0.5782(3) -0.1970(3)
H55 H 0.0066 0.6235 -0.2215
C52 C 0.0819(7) 0.4554(3) -0.1849(3)
H56 H 0.0746 0.4119 -0.2008
C53 C 0.2671(9) 0.4431(3) 0.0082(3)
H57 H 0.2606 0.3990 -0.0069
Ag3A Ag 0.09554(5) 0.47911(2) 0.308000(19)
Ag4A Ag -0.43225(5) 0.50420(2) -0.190200(19)
Ag4_2 Ag -0.56775(5) 0.49580(2) -0.809800(19)
N7_2 N 0.5381(5) 0.4983(2) 0.28052(19)
O2 O 0.1608(3) 0.61503(12) 0.25644(13)
H11 H 0.0751 0.6483 0.2674
H12 H 0.2300 0.6347 0.2248
O3 O 0.8370(7) 0.7638(3) 0.6241(2)
O4 O 1.1039(8) 0.7352(3) 0.6296(2)
C10 C 0.9859(2) 0.74987(8) 0.59646(8)
S1 S 0.80263(14) 0.75815(6) 0.35100(6)
O12 O 0.7851(4) 0.8289(2) 0.30855(19)
O14 O 0.6525(4) 0.74899(19) 0.3996(2)
C24 C 1.1179(6) 0.7585(2) 0.3690(3)
H33 H 1.1459 0.7608 0.3198
O18 O 0.8670(5) 0.6967(2) 0.3093(2)
C30 C 0.9543(5) 0.7571(2) 0.4038(2)
C38 C 0.9115(6) 0.7547(2) 0.4758(2)
H44 H 0.8020 0.7543 0.4980
C42 C 1.2364(6) 0.7565(3) 0.4088(3)
H48 H 1.3458 0.7569 0.3863
C49 C 1.0315(7) 0.7529(2) 0.5164(3)
C54 C 1.1952(7) 0.7539(3) 0.4815(3)
H58 H 1.2767 0.7529 0.5078
O5 O 0.5414(2) 0.12468(8) 0.73811(8)
H13 H 0.4400 0.1368 0.7342
H14 H 0.5688 0.1595 0.7536
O6 O 0.2735(2) 0.17727(8) 1.24323(8)
H15 H 0.2204 0.1990 1.2793
H16 H 0.2506 0.2057 1.2061
O7 O 1.1979(2) 0.74895(8) 0.75228(8)
H17 H 1.2005 0.7095 0.7809
H18 H 1.1442 0.7459 0.7210
O8 O 1.4808(2) 0.76386(8) 0.59067(8)
H19 H 1.3811 0.7539 0.6007
H20 H 1.5511 0.7485 0.6182
O9 O 0.5399(2) 0.33672(8) 0.18814(8)
H21 H 0.5407 0.3042 0.1583
H22 H 0.4439 0.3402 0.2166
O11 O 0.6378(2) 0.25885(8) 0.07495(8)
H25 H 0.6240 0.2612 0.0320
H26 H 0.7199 0.2173 0.0860
S2 S 0.57428(15) 0.26920(6) 0.86625(6)
O13 O 0.6671(4) 0.24734(19) 0.92304(19)
O15 O 0.5583(4) 0.34718(18) 0.8440(2)
O16 O -0.0527(5) 0.2365(2) 1.10846(18)
C20 C 0.3691(5) 0.2555(2) 0.9026(2)
C25 C 0.1507(6) 0.2452(2) 1.0038(2)
O17 O 0.6369(5) 0.2247(3) 0.8088(2)
C26 C 0.3142(5) 0.2509(2) 0.9745(2)
H34 H 0.3873 0.2516 1.0043
O19 O 0.1988(6) 0.2459(3) 1.1190(2)
C34 C 0.2617(6) 0.2539(2) 0.8567(2)
H40 H 0.2989 0.2568 0.8078
C35 C 0.0444(6) 0.2434(2) 0.9578(2)
H41 H -0.0651 0.2390 0.9764
C37 C 0.0990(6) 0.2479(2) 0.8857(2)
H43 H 0.0260 0.2470 0.8560
C43 C 0.0943(7) 0.2415(3) 1.0842(2)
loop_
_geom_bond_atom_site_label_1
_geom_bond_atom_site_label_2
_geom_bond_site_symmetry_1
_geom_bond_site_symmetry_2
C1 H1 1_555 1_555
N1 C1 1_555 1_555
C2 N1 1_555 1_555
H2 C2 1_555 1_555
C3 H3 1_555 1_555
C4 H4 1_555 1_555
N2 C3 1_555 1_555
C5 C6 1_555 1_555
C6 H5 1_555 1_555
C7 C5 1_555 1_555
H6 C7 1_555 1_555
C8 C6 1_555 1_555
H7 C8 1_555 1_555
C9 C7 1_555 1_555
H8 C9 1_555 1_555
O1 H9 1_555 1_555
H10 O1 1_555 1_555
O2 H11 1_555 1_555
H12 O2 1_555 1_555
N3 C8 1_555 1_555
O3 C10 1_555 1_555
O4 C10 1_555 1_555
C10 C49 1_555 1_555
O5 H13 1_555 1_555
H14 O5 1_555 1_555
O6 H15 1_555 1_555
H16 O6 1_555 1_555
O7 H17 1_555 1_555
H18 O7 1_555 1_555
O8 H19 1_555 1_555
H20 O8 1_555 1_555
O9 H21 1_555 1_555
H22 O9 1_555 1_555
O10 H23 1_555 1_555
H24 O10 1_555 1_555
O11 H25 1_555 1_555
H26 O11 1_555 1_555
Ag1 N1 1_555 1_555
Ag2 N5 1_555 1_555
Ag3 N3 1_555 1_555
Ag4 N2 1_555 1_555
S1 O12 1_555 1_555
S2 O13 1_555 1_555
N4 Ag1 1_555 1_555
N5 C31 1_555 1_555
N6 C28 1_555 1_555
N7 C36 1_555 1_555
N8 Ag3 1_555 1_555
C11 C27 1_555 1_555
O14 S1 1_555 1_555
O15 S2 1_555 1_555
O16 C43 1_555 1_555
C12 H27 1_555 1_555
C13 C16 1_555 1_555
C14 C12 1_555 1_555
C15 C5 1_555 1_555
C16 C19 1_555 1_555
C17 C14 1_555 1_555
C18 C14 1_555 1_555
H28 C18 1_555 1_555
C19 H29 1_555 1_555
C20 S2 1_555 1_555
C21 C16 1_555 1_555
H30 C21 1_555 1_555
C22 N4 1_555 1_555
H31 C22 1_555 1_555
C23 N4 1_555 1_555
H32 C23 1_555 1_555
C24 H33 1_555 1_555
C25 C26 1_555 1_555
O17 S2 1_555 1_555
O18 S1 1_555 1_555
C26 C20 1_555 1_555
H34 C26 1_555 1_555
O19 C43 1_555 1_555
C27 C45 1_555 1_555
C28 H35 1_555 1_555
C29 C17 1_555 1_555
H36 C29 1_555 1_555
C30 S1 1_555 1_555
C31 C21 1_555 1_555
H37 C31 1_555 1_555
C32 C1 1_555 1_555
H38 C32 1_555 1_555
C33 N5 1_555 1_555
H39 C33 1_555 1_555
C34 C20 1_555 1_555
H40 C34 1_555 1_555
C35 C25 1_555 1_555
H41 C35 1_555 1_555
C36 H42 1_555 1_555
C37 C34 1_555 1_555
H43 C37 1_555 1_555
C38 C30 1_555 1_555
H44 C38 1_555 1_555
C39 N6 1_555 1_555
H45 C39 1_555 1_555
C40 C2 1_555 1_555
H46 C40 1_555 1_555
C41 C15 1_555 1_555
H47 C41 1_555 1_555
C42 C24 1_555 1_555
H48 C42 1_555 1_555
C43 C25 1_555 1_555
C44 N7 1_555 1_555
H49 C44 1_555 1_555
C45 H50 1_555 1_555
C46 C4 1_555 1_555
H51 C46 1_555 1_555
C47 C17 1_555 1_555
H52 C47 1_555 1_555
C48 C15 1_555 1_555
H53 C48 1_555 1_555
C49 C38 1_555 1_555
C50 C27 1_555 1_555
H54 C50 1_555 1_555
C51 N8 1_555 1_555
H55 C51 1_555 1_555
C52 N8 1_555 1_555
H56 C52 1_555 1_555
C53 C3 1_555 1_555
H57 C53 1_555 1_555
C54 C42 1_555 1_555
H58 C54 1_555 1_555
Ag1A Ag2 1_555 1_555
Ag2A Ag1 1_555 1_555
Ag2_2 N6 1_555 1_555
Ag3A Ag4 1_555 1_555
Ag4A Ag3 1_555 1_555
Ag4_2 N7 1_555 1_555
N6_2 Ag2 1_555 1_555
N7_2 Ag4 1_555 1_555
C4 N2 1_555 1_555
C9 N3 1_555 1_555
O1 Ag1 1_555 1_555
O10 Ag3 1_555 1_555
C11 C46 1_555 1_555
C11 C53 1_555 1_555
C12 C22 1_555 1_555
C13 C32 1_555 1_555
C13 C40 1_555 1_555
C18 C23 1_555 1_555
C19 C33 1_555 1_555
C24 C30 1_555 1_555
C28 C29 1_555 1_555
C35 C37 1_555 1_555
C36 C48 1_555 1_555
C39 C47 1_555 1_555
C41 C44 1_555 1_555
C45 C52 1_555 1_555
C49 C54 1_555 1_555
C50 C51 1_555 1_555

#END
