
#######################################################################
#
#                 Cambridge Crystallographic Data Centre
#                                CCDC 
#
#######################################################################
#
# If this CIF has been generated from an entry in the Cambridge 
# Structural Database, then it will include bibliographic, chemical, 
# crystal, experimental, refinement or atomic coordinate data resulting 
# from the CCDC's data processing and validation procedures.
#
#######################################################################

data_EKUBER
_symmetry_cell_setting           orthorhombic
_symmetry_space_group_name_H-M   'P b c a'
_symmetry_Int_Tables_number      61
_space_group_name_Hall           '-P 2ac 2ab'
loop_
_symmetry_equiv_pos_site_id
_symmetry_equiv_pos_as_xyz
1 x,y,z
2 1/2+x,y,1/2-z
3 x,1/2-y,1/2+z
4 1/2-x,1/2+y,z
5 -x,-y,-z
6 1/2-x,-y,1/2+z
7 -x,1/2+y,1/2-z
8 1/2+x,1/2-y,-z
_cell_length_a                   24.6741(13)
_cell_length_b                   15.4148(8)
_cell_length_c                   30.8125(16)
_cell_angle_alpha                90
_cell_angle_beta                 90
_cell_angle_gamma                90
_cell_volume                     11719.4
loop_
_atom_site_label
_atom_site_type_symbol
_atom_site_fract_x
_atom_site_fract_y
_atom_site_fract_z
Mo1 Mo 0.711586(19) 0.54276(3) 0.217674(14)
Mo2 Mo 0.837806(18) 0.46182(3) 0.212325(14)
Mo3 Mo 0.85936(2) 0.42132(3) 0.095429(14)
Mo4 Mo 0.73391(2) 0.40473(3) 0.053040(14)
Mo5 Mo 0.64631(2) 0.48965(3) 0.124365(15)
Ni1 Ni 0.68110(3) 0.76450(4) 0.24370(2)
Ni2 Ni 0.57035(3) 0.59078(4) 0.42025(2)
P1 P 0.77601(6) 0.57412(8) 0.12282(4)
P2 P 0.75713(6) 0.84620(8) 0.15984(4)
O1 O 0.77898(14) 0.5432(2) 0.17104(11)
O2 O 0.83098(15) 0.5596(2) 0.10253(11)
O3 O 0.73068(15) 0.5272(2) 0.09794(11)
O4 O 0.71316(14) 0.8345(2) 0.19429(11)
O5 O 0.72860(14) 0.8709(2) 0.11698(10)
O6 O 0.79821(14) 0.9151(2) 0.17449(11)
O7 O 0.86435(15) 0.3817(2) 0.24651(11)
O8 O 0.77163(15) 0.4825(2) 0.24337(11)
O9 O 0.87521(16) 0.5500(2) 0.22638(12)
O10 O 0.66310(16) 0.5055(2) 0.25219(13)
O11 O 0.72266(15) 0.6490(2) 0.23375(11)
O12 O 0.66943(15) 0.5697(2) 0.16806(12)
O13 O 0.59222(17) 0.4431(3) 0.14963(14)
O14 O 0.61714(17) 0.5603(2) 0.08834(13)
O15 O 0.66824(16) 0.3974(2) 0.08794(12)
O16 O 0.71044(17) 0.4679(3) 0.01145(12)
O17 O 0.73127(18) 0.3022(2) 0.03262(12)
O18 O 0.81065(16) 0.4279(2) 0.04802(11)
O19 O 0.91565(16) 0.4679(3) 0.07404(12)
O20 O 0.87694(16) 0.3136(2) 0.09363(12)
O21 O 0.86695(15) 0.4365(2) 0.15821(11)
N1 N 0.73685(18) 0.7988(3) 0.29104(13)
N2 N 0.64646(17) 0.7149(3) 0.29718(13)
N3 N 0.61175(18) 0.7060(3) 0.21807(13)
N4 N 0.54009(18) 0.5118(3) 0.37103(14)
N5 N 0.60383(17) 0.6431(3) 0.36698(13)
N6 N 0.62064(18) 0.6859(3) 0.44741(13)
N7 N 0.50570(18) 0.6771(3) 0.42632(14)
N8 N 0.53153(17) 0.5432(3) 0.47262(13)
N9 N 0.37697(17) 0.5059(3) 0.56013(14)
C1 C 0.7864(2) 0.8296(3) 0.28394(18)
H1 H 0.7961 0.8471 0.2554
C2 C 0.8243(3) 0.8368(4) 0.3166(2)
H2 H 0.8588 0.8615 0.3107
C3 C 0.8121(2) 0.8081(4) 0.35793(19)
H3 H 0.8383 0.8110 0.3805
C4 C 0.7607(2) 0.7751(4) 0.36573(18)
H4 H 0.7512 0.7544 0.3937
C5 C 0.7235(2) 0.7727(3) 0.33205(17)
C6 C 0.6693(2) 0.7329(3) 0.33526(16)
C7 C 0.6037(2) 0.6634(3) 0.29185(15)
C8 C 0.5801(2) 0.6669(3) 0.24796(16)
C9 C 0.5288(2) 0.6356(4) 0.23789(18)
H5 H 0.5054 0.6139 0.2598
C10 C 0.5128(3) 0.6372(4) 0.1944(2)
H6 H 0.4783 0.6150 0.1863
C11 C 0.5469(2) 0.6711(4) 0.16348(17)
H7 H 0.5373 0.6696 0.1336
C12 C 0.5954(2) 0.7073(3) 0.17648(16)
H8 H 0.6179 0.7340 0.1553
C13 C 0.5149(2) 0.4360(4) 0.37717(18)
H9 H 0.5035 0.4209 0.4057
C14 C 0.5046(3) 0.3784(4) 0.3434(2)
H10 H 0.4852 0.3263 0.3486
C15 C 0.5230(2) 0.3978(4) 0.30228(19)
H11 H 0.5174 0.3585 0.2789
C16 C 0.5499(2) 0.4764(3) 0.29570(17)
H12 H 0.5637 0.4912 0.2679
C17 C 0.5563(2) 0.5324(3) 0.33068(16)
C18 C 0.5871(2) 0.6148(3) 0.32825(15)
C19 C 0.6403(2) 0.7071(3) 0.37256(16)
C20 C 0.6432(2) 0.7403(3) 0.41765(16)
C21 C 0.6623(2) 0.8208(4) 0.42855(17)
H13 H 0.6753 0.8596 0.4070
C22 C 0.6620(2) 0.8444(4) 0.47268(18)
H14 H 0.6747 0.8999 0.4813
C23 C 0.6435(2) 0.7870(4) 0.50316(17)
H15 H 0.6451 0.8004 0.5332
C24 C 0.6222(2) 0.7089(4) 0.48889(17)
H16 H 0.6081 0.6698 0.5099
C25 C 0.5015(2) 0.7531(4) 0.40549(18)
H17 H 0.5227 0.7619 0.3801
C26 C 0.4677(3) 0.8191(4) 0.4192(2)
H18 H 0.4655 0.8722 0.4036
C27 C 0.4372(2) 0.8060(4) 0.45628(19)
H19 H 0.4142 0.8506 0.4668
C28 C 0.4405(2) 0.7270(3) 0.47807(18)
H20 H 0.4203 0.7173 0.5038
C29 C 0.4737(2) 0.6631(3) 0.46145(16)
C30 C 0.4829(2) 0.5769(3) 0.48215(15)
C31 C 0.4488(2) 0.5304(3) 0.51034(15)
C32 C 0.3920(2) 0.5474(3) 0.52284(16)
C33 C 0.3549(2) 0.5922(3) 0.49794(17)
H21 H 0.3654 0.6173 0.4711
C34 C 0.3017(2) 0.6003(4) 0.51268(19)
H22 H 0.2756 0.6315 0.4963
C35 C 0.2879(2) 0.5624(4) 0.55126(19)
H23 H 0.2523 0.5689 0.5625
C36 C 0.3260(2) 0.5144(4) 0.57394(18)
H24 H 0.3155 0.4867 0.6002
C37 C 0.7568(2) 0.6852(3) 0.12305(16)
H25 H 0.7577 0.7068 0.0928
H26 H 0.7189 0.6893 0.1333
C38 C 0.7922(2) 0.7456(3) 0.15132(17)
H27 H 0.7997 0.7175 0.1796
H28 H 0.8272 0.7566 0.1366
C31D C 0.5512(2) 0.4696(3) 0.48966(15)
C30D C 0.5171(2) 0.4231(3) 0.51785(15)
N8D N 0.46847(17) 0.4568(3) 0.52738(13)
C29D C 0.5263(2) 0.3369(3) 0.53855(16)
N7D N 0.49430(18) 0.3229(3) 0.57368(14)
C25D C 0.4985(2) 0.2469(4) 0.59451(18)
H17D H 0.4773 0.2381 0.6199
C26D C 0.5323(3) 0.1809(4) 0.5808(2)
H18D H 0.5345 0.1278 0.5964
C27D C 0.5628(2) 0.1940(4) 0.54372(19)
H19D H 0.5858 0.1494 0.5332
C28D C 0.5595(2) 0.2730(3) 0.52193(18)
H20D H 0.5797 0.2827 0.4962
C32D C 0.6080(2) 0.4526(3) 0.47716(16)
N9D N 0.62303(17) 0.4941(3) 0.43987(14)
C36D C 0.6740(2) 0.4856(4) 0.42606(18)
C35D C 0.7121(2) 0.4376(4) 0.44874(19)
C34D C 0.6983(2) 0.3997(4) 0.48732(19)
C33D C 0.6451(2) 0.4078(3) 0.50206(17)
H21D H 0.6346 0.3827 0.5289
H22D H 0.7244 0.3685 0.5037
H23D H 0.7477 0.4311 0.4375
H24D H 0.6845 0.5133 0.3998
P1C P 0.72399(6) 0.07412(8) 0.12282(4)
P2C P 0.74287(6) 0.34620(8) 0.15984(4)
O1C O 0.72102(14) 0.0432(2) 0.17104(11)
O2C O 0.66902(15) 0.0596(2) 0.10253(11)
O3C O 0.76932(15) 0.0272(2) 0.09794(11)
O4C O 0.78684(14) 0.3345(2) 0.19429(11)
O5C O 0.77140(14) 0.3709(2) 0.11698(10)
O6C O 0.70179(14) 0.4151(2) 0.17449(11)
C37C C 0.7432(2) 0.1852(3) 0.12305(16)
H25C H 0.7423 0.2068 0.0928
H26C H 0.7811 0.1893 0.1333
C38C C 0.7078(2) 0.2456(3) 0.15132(17)
H27C H 0.7003 0.2175 0.1796
H28C H 0.6728 0.2566 0.1366
Mo1C Mo 0.788414(19) 0.04276(3) 0.217674(14)
Mo2C Mo 0.662194(18) -0.03818(3) 0.212325(14)
Mo3C Mo 0.64064(2) -0.07868(3) 0.095429(14)
Mo4C Mo 0.76609(2) -0.09527(3) 0.053040(14)
Mo5C Mo 0.85369(2) -0.01035(3) 0.124365(15)
Ni1C Ni 0.81890(3) 0.26450(4) 0.24370(2)
O7C O 0.63565(15) 0.8817(2) 0.24651(11)
O8C O 0.72837(15) -0.0175(2) 0.24337(11)
O10C O 0.83690(16) 0.0055(2) 0.25219(13)
O11C O 0.77734(15) 0.1490(2) 0.23375(11)
O12C O 0.83057(15) 0.0697(2) 0.16806(12)
O9C O 0.62479(16) 0.0500(2) 0.22638(12)
O21C O 0.63305(15) -0.0635(2) 0.15821(11)
O18C O 0.68935(16) -0.0721(2) 0.04802(11)
O19C O 0.58435(16) -0.0321(3) 0.07404(12)
O20C O 0.62306(16) -0.1864(2) 0.09363(12)
O15C O 0.83176(16) -0.1026(2) 0.08794(12)
O16C O 0.78956(17) -0.0321(3) 0.01145(12)
O17C O 0.76873(18) -0.1978(2) 0.03262(12)
O13C O 0.90778(17) -0.0569(3) 0.14963(14)
O14C O 0.88286(17) 0.0603(2) 0.08834(13)
N1C N 0.76315(18) 0.2988(3) 0.29104(13)
N2C N 0.85354(17) 0.2149(3) 0.29718(13)
N3C N 0.88825(18) 0.2060(3) 0.21807(13)
N4C N 0.95991(18) 0.0118(3) 0.37103(14)
N5C N 0.89617(17) 0.1431(3) 0.36698(13)
N6C N 0.87936(18) 0.1859(3) 0.44741(13)
C1C C 0.7136(2) 0.3296(3) 0.28394(18)
H1C H 0.7039 0.3471 0.2554
C2C C 0.6757(3) 0.3368(4) 0.3166(2)
H2C H 0.6412 0.3615 0.3107
C3C C 0.6879(2) 0.3081(4) 0.35793(19)
H3C H 0.6617 0.3110 0.3805
C4C C 0.7393(2) 0.2751(4) 0.36573(18)
H4C H 0.7488 0.2544 0.3937
C5C C 0.7765(2) 0.2727(3) 0.33205(17)
C6C C 0.8307(2) 0.2329(3) 0.33526(16)
C7C C 0.8963(2) 0.1634(3) 0.29185(15)
C8C C 0.9199(2) 0.1669(3) 0.24796(16)
C9C C 0.9712(2) 0.1356(4) 0.23789(18)
H5C H 0.9946 0.1139 0.2598
C10C C 0.9872(3) 0.1372(4) 0.1944(2)
H6C H 1.0217 0.1150 0.1863
C11C C 0.9531(2) 0.1711(4) 0.16348(17)
H7C H 0.9627 0.1696 0.1336
C12C C 0.9046(2) 0.2073(3) 0.17648(16)
H8C H 0.8821 0.2340 0.1553
C13C C 0.9851(2) -0.0640(4) 0.37717(18)
H9C H 0.9965 -0.0791 0.4057
C14C C 0.9954(3) -0.1216(4) 0.3434(2)
H10C H 1.0148 -0.1737 0.3486
C15C C 0.9770(2) -0.1022(4) 0.30228(19)
H11C H 0.9826 -0.1415 0.2789
C16C C 0.9501(2) -0.0236(3) 0.29570(17)
H12C H 0.9363 -0.0088 0.2679
C17C C 0.9437(2) 0.0324(3) 0.33068(16)
C18C C 0.9129(2) 0.1148(3) 0.32825(15)
C19C C 0.8597(2) 0.2071(3) 0.37256(16)
C20C C 0.8568(2) 0.2403(3) 0.41765(16)
C21C C 0.8377(2) 0.3208(4) 0.42855(17)
H13C H 0.8247 0.3596 0.4070
C22C C 0.8380(2) 0.3444(4) 0.47268(18)
H14C H 0.8253 0.3999 0.4813
C23C C 0.8565(2) 0.2870(4) 0.50316(17)
H15C H 0.8549 0.3004 0.5332
C24C C 0.8778(2) 0.2089(4) 0.48889(17)
H16C H 0.8919 0.1698 0.5099
Ni2C Ni 0.92965(3) 0.09078(4) 0.42025(2)
Mo2C_2 Mo 0.662194(18) 0.96182(3) 0.212325(14)
Mo3C_2 Mo 0.64064(2) 0.92132(3) 0.095429(14)
Mo4C_2 Mo 0.76609(2) 0.90473(3) 0.053040(14)
Mo1C_2 Mo 0.788414(19) 1.04276(3) 0.217674(14)
Mo5C_2 Mo 0.85369(2) 0.98965(3) 0.124365(15)
Ni2D Ni 0.42965(3) 0.40922(4) 0.57975(2)
O6_2 O 0.79821(14) -0.0849(2) 0.17449(11)
O4_2 O 0.71316(14) -0.1655(2) 0.19429(11)
O7C_2 O 0.63565(15) -0.1183(2) 0.24651(11)
O5_2 O 0.72860(14) -0.1291(2) 0.11698(10)
N7C N 0.99430(18) 0.1771(3) 0.42632(14)
N8C N 0.96847(17) 0.0432(3) 0.47262(13)
N9G N 0.87697(17) -0.0059(3) 0.43987(14)
O22 O 0.1111(9) 0.2088(11) 0.2361(6)
O23 O 0.1139(16) 0.144(3) 0.1553(9)
O25 O 0.6864(8) 0.0209(14) 0.3837(10)
O27 O 0.9739(9) 0.4827(14) 0.3682(7)
O28 O 0.97988(19) 0.2669(3) 0.05980(14)
O29 O 0.5359(2) 0.5956(3) 0.02962(16)
O30 O 0.9439(2) 0.3462(3) 0.31300(16)
O31 O 0.9286(2) 0.6404(3) 0.16033(19)
O32 O 0.5515(2) 0.3048(4) 0.19982(17)
O33 O 0.4434(3) 0.5006(4) 0.04565(18)
O35 O 0.0804(7) 0.2099(15) 0.1086(9)
O36 O 0.7821(16) 0.0575(17) 0.3365(7)
O38 O 0.148(2) 0.146(4) 0.0437(8)
O24? O 0.1361(15) 0.1018(18) 0.1740(12)
O26? O 0.712(3) -0.021(3) 0.3428(12)
O34? O 0.0866(4) 0.2569(9) 0.0844(4)
O37? O 0.755(4) 0.051(2) 0.3397(9)
O39? O 0.1390(9) 0.109(2) 0.0519(10)
O40? O 0.9119(5) 0.4718(8) 0.3699(3)
loop_
_geom_bond_atom_site_label_1
_geom_bond_atom_site_label_2
_geom_bond_site_symmetry_1
_geom_bond_site_symmetry_2
Mo1 O1 1_555 1_555
Mo2 O1 1_555 1_555
Mo3 O2 1_555 1_555
Mo4 O3 1_555 1_555
Mo5 O3 1_555 1_555
Ni1 O4 1_555 1_555
Ni2 N4 1_555 1_555
P1 O1 1_555 1_555
P2 O4 1_555 1_555
O2 P1 1_555 1_555
O3 P1 1_555 1_555
O4 Mo2C_2 1_555 1_555
O5 P2 1_555 1_555
O6 P2 1_555 1_555
O7 Mo2 1_555 1_555
O8 Mo1 1_555 1_555
O9 Mo2 1_555 1_555
O10 Mo1 1_555 1_555
O11 Mo1 1_555 1_555
O12 Mo1 1_555 1_555
O13 Mo5 1_555 1_555
O14 Mo5 1_555 1_555
O15 Mo4 1_555 1_555
O16 Mo4 1_555 1_555
O17 Mo4 1_555 1_555
O18 Mo3 1_555 1_555
O19 Mo3 1_555 1_555
O20 Mo3 1_555 1_555
O21 Mo2 1_555 1_555
N1 Ni1 1_555 1_555
N2 Ni1 1_555 1_555
N3 Ni1 1_555 1_555
N4 C13 1_555 1_555
N5 Ni2 1_555 1_555
N6 Ni2 1_555 1_555
N7 Ni2 1_555 1_555
N8 Ni2 1_555 1_555
N9 C32 1_555 1_555
C1 N1 1_555 1_555
H1 C1 1_555 1_555
C2 C1 1_555 1_555
H2 C2 1_555 1_555
C3 C2 1_555 1_555
H3 C3 1_555 1_555
C4 C3 1_555 1_555
H4 C4 1_555 1_555
C5 N1 1_555 1_555
C6 N2 1_555 1_555
C7 N2 1_555 1_555
C8 N3 1_555 1_555
C9 C8 1_555 1_555
H5 C9 1_555 1_555
C10 C9 1_555 1_555
H6 C10 1_555 1_555
C11 C10 1_555 1_555
H7 C11 1_555 1_555
C12 N3 1_555 1_555
H8 C12 1_555 1_555
C13 H9 1_555 1_555
C14 C13 1_555 1_555
H10 C14 1_555 1_555
C15 C14 1_555 1_555
H11 C15 1_555 1_555
C16 C15 1_555 1_555
H12 C16 1_555 1_555
C17 N4 1_555 1_555
C18 N5 1_555 1_555
C19 N5 1_555 1_555
C20 N6 1_555 1_555
C21 C20 1_555 1_555
H13 C21 1_555 1_555
C22 C21 1_555 1_555
H14 C22 1_555 1_555
C23 C22 1_555 1_555
H15 C23 1_555 1_555
C24 N6 1_555 1_555
H16 C24 1_555 1_555
C25 N7 1_555 1_555
H17 C25 1_555 1_555
C26 C25 1_555 1_555
H18 C26 1_555 1_555
C27 C26 1_555 1_555
H19 C27 1_555 1_555
C28 C27 1_555 1_555
H20 C28 1_555 1_555
C29 N7 1_555 1_555
C30 N8 1_555 1_555
C31 C30 1_555 1_555
C32 C31 1_555 1_555
C33 C32 1_555 1_555
H21 C33 1_555 1_555
C34 C33 1_555 1_555
H22 C34 1_555 1_555
C35 C34 1_555 1_555
H23 C35 1_555 1_555
C36 N9 1_555 1_555
H24 C36 1_555 1_555
C37 P1 1_555 1_555
H25 C37 1_555 1_555
H26 C37 1_555 1_555
C38 P2 1_555 1_555
H27 C38 1_555 1_555
H28 C38 1_555 1_555
C31D N8 1_555 1_555
C30D C31D 1_555 1_555
N8D C31 1_555 1_555
C29D C30D 1_555 1_555
N7D C29D 1_555 1_555
C25D N7D 1_555 1_555
H17D C25D 1_555 1_555
C26D C25D 1_555 1_555
H18D C26D 1_555 1_555
C27D C26D 1_555 1_555
H19D C27D 1_555 1_555
C28D C29D 1_555 1_555
H20D C28D 1_555 1_555
C32D C31D 1_555 1_555
N9D Ni2 1_555 1_555
C36D N9D 1_555 1_555
C35D C36D 1_555 1_555
C34D C35D 1_555 1_555
C33D C32D 1_555 1_555
H21D C33D 1_555 1_555
H22D C34D 1_555 1_555
H23D C35D 1_555 1_555
H24D C36D 1_555 1_555
P1C O1C 1_555 1_555
P2C O4C 1_555 1_555
O1C Mo1C 1_555 1_555
O2C P1C 1_555 1_555
O3C P1C 1_555 1_555
O4C Mo2 1_555 1_555
O5C Mo3 1_555 1_555
O6C Mo1 1_555 1_555
C37C P1C 1_555 1_555
H25C C37C 1_555 1_555
H26C C37C 1_555 1_555
C38C P2C 1_555 1_555
H27C C38C 1_555 1_555
H28C C38C 1_555 1_555
Mo1C O8C 1_555 1_555
Mo2C O1C 1_555 1_555
Mo3C O2C 1_555 1_555
Mo4C O3C 1_555 1_555
Mo5C O3C 1_555 1_555
Ni1C O7 1_555 1_555
O7C Ni1 1_555 1_555
O8C Mo2C 1_555 1_555
O10C Mo1C 1_555 1_555
O11C Mo1C 1_555 1_555
O12C Mo1C 1_555 1_555
O9C Mo2C 1_555 1_555
O21C Mo2C 1_555 1_555
O18C Mo3C 1_555 1_555
O19C Mo3C 1_555 1_555
O20C Mo3C 1_555 1_555
O15C Mo4C 1_555 1_555
O16C Mo4C 1_555 1_555
O17C Mo4C 1_555 1_555
O13C Mo5C 1_555 1_555
O14C Mo5C 1_555 1_555
N1C Ni1C 1_555 1_555
N2C Ni1C 1_555 1_555
N3C Ni1C 1_555 1_555
N4C C13C 1_555 1_555
N5C C18C 1_555 1_555
N6C C20C 1_555 1_555
C1C N1C 1_555 1_555
H1C C1C 1_555 1_555
C2C C1C 1_555 1_555
H2C C2C 1_555 1_555
C3C C2C 1_555 1_555
H3C C3C 1_555 1_555
C4C C3C 1_555 1_555
H4C C4C 1_555 1_555
C5C N1C 1_555 1_555
C6C N2C 1_555 1_555
C7C N2C 1_555 1_555
C8C N3C 1_555 1_555
C9C C8C 1_555 1_555
H5C C9C 1_555 1_555
C10C C9C 1_555 1_555
H6C C10C 1_555 1_555
C11C C10C 1_555 1_555
H7C C11C 1_555 1_555
C12C N3C 1_555 1_555
H8C C12C 1_555 1_555
C13C H9C 1_555 1_555
C14C C13C 1_555 1_555
H10C C14C 1_555 1_555
C15C C14C 1_555 1_555
H11C C15C 1_555 1_555
C16C C15C 1_555 1_555
H12C C16C 1_555 1_555
C17C N4C 1_555 1_555
C18C C7C 1_555 1_555
C19C N5C 1_555 1_555
C20C C19C 1_555 1_555
C21C C20C 1_555 1_555
H13C C21C 1_555 1_555
C22C C21C 1_555 1_555
H14C C22C 1_555 1_555
C23C C22C 1_555 1_555
H15C C23C 1_555 1_555
C24C N6C 1_555 1_555
H16C C24C 1_555 1_555
Ni2C N4C 1_555 1_555
Mo2C_2 O7C 1_555 1_555
Mo3C_2 O5 1_555 1_555
Mo4C_2 O5 1_555 1_555
Mo1C_2 O6 1_555 1_555
Mo5C_2 O6 1_555 1_555
Ni2D N9 1_555 1_555
O6_2 Mo1C 1_555 1_555
O4_2 Mo2C 1_555 1_555
O7C_2 Mo2C 1_555 1_555
O5_2 Mo3C 1_555 1_555
N7C Ni2C 1_555 1_555
N8C Ni2C 1_555 1_555
N9G Ni2C 1_555 1_555
Mo2 O8 1_555 1_555
Mo3 O21 1_555 1_555
Mo4 O5C 1_555 1_555
Mo4 O18 1_555 1_555
Mo5 O6C 1_555 1_555
Mo5 O12 1_555 1_555
Mo5 O15 1_555 1_555
Ni1 O11 1_555 1_555
C4 C5 1_555 1_555
C5 C6 1_555 1_555
C6 C19 1_555 1_555
C7 C8 1_555 1_555
C7 C18 1_555 1_555
C11 C12 1_555 1_555
C16 C17 1_555 1_555
C17 C18 1_555 1_555
C19 C20 1_555 1_555
C23 C24 1_555 1_555
C28 C29 1_555 1_555
C29 C30 1_555 1_555
C35 C36 1_555 1_555
C37 C38 1_555 1_555
C30D N8D 1_555 1_555
N8D Ni2D 1_555 1_555
N7D Ni2D 1_555 1_555
C27D C28D 1_555 1_555
C32D N9D 1_555 1_555
C34D C33D 1_555 1_555
P2C O5C 1_555 1_555
P2C O6C 1_555 1_555
O4C Ni1C 1_555 1_555
C37C C38C 1_555 1_555
Mo3C O21C 1_555 1_555
Mo4C O18C 1_555 1_555
Mo4C O5_2 1_555 1_555
Mo5C O15C 1_555 1_555
Mo5C O12C 1_555 1_555
Mo5C O6_2 1_555 1_555
Ni1C O11C 1_555 1_555
N5C Ni2C 1_555 1_555
N6C Ni2C 1_555 1_555
C4C C5C 1_555 1_555
C5C C6C 1_555 1_555
C6C C19C 1_555 1_555
C7C C8C 1_555 1_555
C11C C12C 1_555 1_555
C16C C17C 1_555 1_555
C17C C18C 1_555 1_555
C23C C24C 1_555 1_555

#END
