
#######################################################################
#
#                 Cambridge Crystallographic Data Centre
#                                CCDC 
#
#######################################################################
#
# If this CIF has been generated from an entry in the Cambridge 
# Structural Database, then it will include bibliographic, chemical, 
# crystal, experimental, refinement or atomic coordinate data resulting 
# from the CCDC's data processing and validation procedures.
#
#######################################################################

data_EKUCET
_symmetry_cell_setting           monoclinic
_symmetry_space_group_name_H-M   'P 21'
_symmetry_Int_Tables_number      4
_space_group_name_Hall           'P 2yb'
loop_
_symmetry_equiv_pos_site_id
_symmetry_equiv_pos_as_xyz
1 x,y,z
2 -x,1/2+y,-z
_cell_length_a                   9.796(5)
_cell_length_b                   10.430(5)
_cell_length_c                   15.889(5)
_cell_angle_alpha                90
_cell_angle_beta                 97.604(5)
_cell_angle_gamma                90
_cell_volume                     1609.14
loop_
_atom_site_label
_atom_site_type_symbol
_atom_site_fract_x
_atom_site_fract_y
_atom_site_fract_z
Sn1 Sn 0.94303(6) 1.11554(10) 0.02818(4)
C1 C 0.8465(18) 1.2536(17) 0.0998(11)
H1 H 0.9167 1.3120 0.1259
H2 H 0.7827 1.3032 0.0607
C2 C 0.6275(12) 0.5081(11) 0.3733(7)
C3 C 0.6799(19) 0.3777(15) 0.5028(10)
C4 C 0.5493(10) 0.608(2) 0.3423(6)
H3 H 0.4630 0.6213 0.3591
C5 C 0.2506(17) 0.3459(14) 0.5041(10)
H4 H 0.2163 0.3364 0.5556
C6 C 0.6986(14) 0.2493(13) 0.5193(8)
H5 H 0.6445 0.1900 0.4864
O1 O 0.9901(9) 0.8104(8) 0.0374(5)
C7 C 0.7231(13) 0.6746(11) 0.2553(7)
C8 C 0.5974(13) 0.6910(11) 0.2857(7)
H6 H 0.5434 0.7613 0.2668
O2 O 0.8694(12) 0.9557(10) 0.0970(8)
C9 C 0.4404(13) 0.3902(11) 0.4325(8)
C10 C 0.7715(12) 0.7633(11) 0.1948(7)
H7 H 0.7305 0.8438 0.1905
C11 C 1.1594(13) 1.0799(13) 0.0619(8)
H8 H 1.1823 1.0034 0.0320
H9 H 1.2090 1.1506 0.0405
C12 C 0.3627(15) 0.3711(13) 0.3560(9)
H10 H 0.3996 0.3801 0.3053
C13 C 0.8018(15) 0.5698(11) 0.2876(9)
H11 H 0.8865 0.5543 0.2692
C14 C 0.7554(13) 0.4886(13) 0.3465(8)
H12 H 0.8101 0.4204 0.3683
C15 C 0.1640(19) 0.3279(16) 0.4343(12)
H13 H 0.0710 0.3106 0.4348
C16 C 0.2255(18) 0.3372(16) 0.3572(10)
H14 H 0.1713 0.3199 0.3059
C17 C 0.860(2) 0.4163(19) 0.6119(13)
H15 H 0.9177 0.4743 0.6437
C18 C 1.2093(18) 1.0639(19) 0.1471(12)
H16 H 1.1677 0.9877 0.1677
H17 H 1.1802 1.1365 0.1784
C19 C 0.8674(13) 0.7412(11) 0.1457(7)
H18 H 0.9064 0.6599 0.1463
C20 C 0.7943(16) 0.2073(16) 0.5826(10)
H19 H 0.8041 0.1200 0.5939
N1 N 0.5820(12) 0.4230(10) 0.4342(6)
C21 C 0.9155(13) 0.8398(12) 0.0899(8)
C22 C 0.8402(17) 1.0586(16) -0.0907(10)
H20 H 0.8360 1.1340 -0.1267
H21 H 0.9008 0.9983 -0.1138
C23 C 0.876(2) 0.2935(19) 0.6293(12)
H22 H 0.9421 0.2662 0.6730
C24 C 0.7639(18) 0.4631(18) 0.5497(11)
H23 H 0.7557 0.5508 0.5396
C25 C 0.3833(16) 0.3766(14) 0.5073(10)
H24 H 0.4373 0.3888 0.5594
C26 C 0.7672(14) 1.1996(13) 0.1703(8)
H25 H 0.7018 1.2628 0.1851
H26 H 0.7165 1.1234 0.1498
C27 C 0.8668(16) 1.1670(15) 0.2471(9)
H27 H 0.9199 1.2422 0.2668
H28 H 0.9300 1.1010 0.2332
C28 C 0.7835(15) 1.118(3) 0.3175(9)
H29 H 0.7367 1.1891 0.3396
H30 H 0.8451 1.0797 0.3624
H31 H 0.7171 1.0559 0.2939
C29 C 1.368(3) 1.051(3) 0.1669(17)
H32 H 1.3998 0.9866 0.1303
H33 H 1.4104 1.1322 0.1553
C30 C 0.598(2) 1.063(2) -0.0670(15)
H34 H 0.5764 1.1454 -0.0937
H35 H 0.6257 1.0771 -0.0068
C31 C 0.707(2) 1.003(2) -0.1035(13)
H36 H 0.7153 0.9161 -0.0823
H37 H 0.6791 0.9981 -0.1643
C32 C 0.478(3) 0.979(3) -0.0798(17)
H38 H 0.4553 0.9609 -0.1393
H39 H 0.4012 1.0211 -0.0595
H40 H 0.4978 0.9007 -0.0492
C33 C 1.404(3) 1.019(3) 0.247(2)
H41 H 1.3774 1.0859 0.2836
H42 H 1.5024 1.0080 0.2578
H43 H 1.3598 0.9405 0.2593
Sn1A Sn 1.05697(6) 0.61554(10) -0.02818(4)
O1A O 1.0099(9) 1.3104(8) -0.0374(5)
loop_
_geom_bond_atom_site_label_1
_geom_bond_atom_site_label_2
_geom_bond_site_symmetry_1
_geom_bond_site_symmetry_2
Sn1 C1 1_555 1_555
C1 H1 1_555 1_555
H2 C1 1_555 1_555
C2 C4 1_555 1_555
C3 C6 1_555 1_555
C4 H3 1_555 1_555
C5 H4 1_555 1_555
C6 H5 1_555 1_555
O1 C21 1_555 1_555
C7 C8 1_555 1_555
C8 C4 1_555 1_555
H6 C8 1_555 1_555
O2 Sn1 1_555 1_555
C9 C12 1_555 1_555
C10 C7 1_555 1_555
H7 C10 1_555 1_555
C11 Sn1 1_555 1_555
H8 C11 1_555 1_555
H9 C11 1_555 1_555
C12 H10 1_555 1_555
C13 C7 1_555 1_555
H11 C13 1_555 1_555
C14 C2 1_555 1_555
H12 C14 1_555 1_555
C15 C5 1_555 1_555
H13 C15 1_555 1_555
C16 C12 1_555 1_555
H14 C16 1_555 1_555
C17 H15 1_555 1_555
C18 C11 1_555 1_555
H16 C18 1_555 1_555
H17 C18 1_555 1_555
C19 C10 1_555 1_555
H18 C19 1_555 1_555
C20 C6 1_555 1_555
H19 C20 1_555 1_555
N1 C2 1_555 1_555
C21 O2 1_555 1_555
C22 Sn1 1_555 1_555
H20 C22 1_555 1_555
H21 C22 1_555 1_555
C23 C17 1_555 1_555
H22 C23 1_555 1_555
C24 C3 1_555 1_555
H23 C24 1_555 1_555
C25 C5 1_555 1_555
H24 C25 1_555 1_555
C26 C1 1_555 1_555
H25 C26 1_555 1_555
H26 C26 1_555 1_555
C27 C26 1_555 1_555
H27 C27 1_555 1_555
H28 C27 1_555 1_555
C28 C27 1_555 1_555
H29 C28 1_555 1_555
H30 C28 1_555 1_555
H31 C28 1_555 1_555
C29 C18 1_555 1_555
H32 C29 1_555 1_555
H33 C29 1_555 1_555
C30 H34 1_555 1_555
H35 C30 1_555 1_555
C31 C22 1_555 1_555
H36 C31 1_555 1_555
H37 C31 1_555 1_555
C32 C30 1_555 1_555
H38 C32 1_555 1_555
H39 C32 1_555 1_555
H40 C32 1_555 1_555
C33 C29 1_555 1_555
H41 C33 1_555 1_555
H42 C33 1_555 1_555
H43 C33 1_555 1_555
Sn1A O1 1_555 1_555
O1A Sn1 1_555 1_555
C3 N1 1_555 1_555
C9 N1 1_555 1_555
C9 C25 1_555 1_555
C13 C14 1_555 1_555
C15 C16 1_555 1_555
C17 C24 1_555 1_555
C19 C21 1_555 1_555
C20 C23 1_555 1_555
C30 C31 1_555 1_555

#END
