
#######################################################################
#
#                 Cambridge Crystallographic Data Centre
#                                CCDC 
#
#######################################################################
#
# If this CIF has been generated from an entry in the Cambridge 
# Structural Database, then it will include bibliographic, chemical, 
# crystal, experimental, refinement or atomic coordinate data resulting 
# from the CCDC's data processing and validation procedures.
#
#######################################################################

data_EKUJID
_symmetry_cell_setting           triclinic
_symmetry_space_group_name_H-M   'P -1'
_symmetry_Int_Tables_number      2
_space_group_name_Hall           '-P 1'
loop_
_symmetry_equiv_pos_site_id
_symmetry_equiv_pos_as_xyz
1 x,y,z
2 -x,-y,-z
_cell_length_a                   5.9370(10)
_cell_length_b                   8.566(2)
_cell_length_c                   9.777(2)
_cell_angle_alpha                88.32(3)
_cell_angle_beta                 89.94(3)
_cell_angle_gamma                77.07(3)
_cell_volume                     484.399
loop_
_atom_site_label
_atom_site_type_symbol
_atom_site_fract_x
_atom_site_fract_y
_atom_site_fract_z
Ca1 Ca 0.68369(7) 0.66731(5) 0.98547(4)
O1 O 0.8976(3) 0.8490(2) 0.88508(15)
O2 O 0.9344(3) 0.4296(2) 0.88218(17)
O3 O 0.4037(3) 0.52814(19) 0.85999(15)
O4 O 0.1664(3) 0.5339(2) 0.68009(17)
N1 N 0.6155(3) 0.7314(2) 0.73396(17)
O5 O 0.6762(3) 0.8546(2) 1.17425(17)
O6 O 0.2971(3) 0.8193(2) 1.0234(2)
N2 N 0.5702(4) 0.7909(2) 0.45412(18)
C1 C 0.4650(3) 0.6735(2) 0.66077(19)
O7 O 1.0221(4) 0.9717(2) 0.70562(19)
C2 C 0.4403(4) 0.7065(3) 0.5210(2)
C3 C 0.7412(3) 0.8205(2) 0.6690(2)
C4 C 0.7232(4) 0.8472(3) 0.5282(2)
C5 C 0.9020(4) 0.8879(3) 0.7582(2)
C6 C 0.3324(3) 0.5693(2) 0.7389(2)
H1 H 0.646(6) 0.832(4) 1.254(4)
H2 H 0.820(5) 0.910(3) 0.488(3)
H3 H 0.320(6) 0.671(4) 0.474(3)
H4 H 0.285(5) 0.911(4) 1.058(3)
H5 H 0.195(6) 0.824(4) 0.969(3)
H6 H 0.967(7) 0.440(5) 0.807(4)
H7 H 0.758(7) 0.922(5) 1.199(4)
H8 H 0.870(9) 0.350(6) 0.860(5)
O2A O 1.0656(3) 0.5704(2) 1.11782(17)
O3A O 0.5963(3) 0.47186(19) 1.14001(15)
Ca1A Ca 1.31631(7) 0.33269(5) 1.01453(4)
Ca1A_2 Ca 0.31631(7) 0.33269(5) 1.01453(4)
H6A H 1.033(7) 0.560(5) 1.193(4)
H8A H 1.130(9) 0.650(6) 1.140(5)
loop_
_geom_bond_atom_site_label_1
_geom_bond_atom_site_label_2
_geom_bond_site_symmetry_1
_geom_bond_site_symmetry_2
Ca1 O1 1_555 1_555
O1 C5 1_555 1_555
O2 Ca1 1_555 1_555
O3 Ca1 1_555 1_555
O4 C6 1_555 1_555
N1 Ca1 1_555 1_555
O5 Ca1 1_555 1_555
O6 Ca1 1_555 1_555
N2 C2 1_555 1_555
C1 N1 1_555 1_555
O7 C5 1_555 1_555
C2 C1 1_555 1_555
C3 N1 1_555 1_555
C4 N2 1_555 1_555
C5 C3 1_555 1_555
C6 O3 1_555 1_555
H1 O5 1_555 1_555
H2 C4 1_555 1_555
H3 C2 1_555 1_555
H4 O6 1_555 1_555
H5 O6 1_555 1_555
H6 O2 1_555 1_555
H7 O5 1_555 1_555
H8 O2 1_555 1_555
O2A Ca1 1_555 1_555
O3A Ca1 1_555 1_555
Ca1A O2 1_555 1_555
Ca1A_2 O3 1_555 1_555
H6A O2A 1_555 1_555
H8A O2A 1_555 1_555
C1 C6 1_555 1_555
C3 C4 1_555 1_555
O2A Ca1A 1_555 1_555
O3A Ca1A_2 1_555 1_555

#END
