
#######################################################################
#
#                 Cambridge Crystallographic Data Centre
#                                CCDC 
#
#######################################################################
#
# If this CIF has been generated from an entry in the Cambridge 
# Structural Database, then it will include bibliographic, chemical, 
# crystal, experimental, refinement or atomic coordinate data resulting 
# from the CCDC's data processing and validation procedures.
#
#######################################################################

data_ELAPIQ
_symmetry_cell_setting           orthorhombic
_symmetry_space_group_name_H-M   'P b c n'
_symmetry_Int_Tables_number      60
_space_group_name_Hall           '-P 2n 2ab'
loop_
_symmetry_equiv_pos_site_id
_symmetry_equiv_pos_as_xyz
1 x,y,z
2 1/2+x,1/2+y,1/2-z
3 x,-y,1/2+z
4 1/2-x,1/2+y,z
5 -x,-y,-z
6 1/2-x,1/2-y,1/2+z
7 -x,y,1/2-z
8 1/2+x,1/2-y,-z
_cell_length_a                   12.2228(7)
_cell_length_b                   8.0295(5)
_cell_length_c                   25.6111(14)
_cell_angle_alpha                90
_cell_angle_beta                 90
_cell_angle_gamma                90
_cell_volume                     2513.55
loop_
_atom_site_label
_atom_site_type_symbol
_atom_site_fract_x
_atom_site_fract_y
_atom_site_fract_z
Pr1 Pr 0.194610(13) 0.037926(19) 0.595334(6)
O1 O 0.37950(17) -0.0462(3) 0.59164(9)
O2 O 0.45927(18) -0.2686(2) 0.62572(9)
O3 O 0.77554(18) 0.2213(3) 0.46566(8)
O4 O 0.61950(19) 0.3415(3) 0.48768(8)
O5 O 0.29159(18) 0.2362(3) 0.65066(8)
O6 O 0.36832(19) 0.4591(3) 0.68317(9)
O7 O 0.0205(2) -0.1045(3) 0.57897(10)
N1 N 0.8537(3) -0.0293(4) 0.65161(12)
N2 N 0.5000 -0.2323(5) 0.7500
C1 C 0.7616(3) -0.0001(3) 0.61966(13)
C2 C 0.6607(3) -0.0702(3) 0.63121(13)
H1 H 0.6529 -0.1361 0.6608
C3 C 0.5710(2) -0.0425(3) 0.59868(12)
C4 C 0.5818(3) 0.0618(3) 0.55551(12)
H2 H 0.5212 0.0879 0.5351
C5 C 0.6847(3) 0.1266(3) 0.54326(12)
C6 C 0.7740(3) 0.0932(4) 0.57436(12)
H3 H 0.8426 0.1331 0.5650
C7 C 0.4626(3) -0.1247(4) 0.60650(11)
C8 C 0.6939(3) 0.2357(4) 0.49635(12)
C9 C 0.5000 -0.0606(5) 0.7500
C10 C 0.4246(3) 0.0280(4) 0.71951(12)
H4 H 0.3730 -0.0293 0.6998
C11 C 0.4265(3) 0.2021(3) 0.71847(12)
C12 C 0.5000 0.2875(5) 0.7500
H5 H 0.5000 0.4033 0.7500
C13 C 0.3566(3) 0.3029(4) 0.68251(13)
H6 H 0.845(4) -0.073(6) 0.6772(19)
H7 H 0.898(4) 0.049(6) 0.6586(17)
H8 H 0.545(4) -0.278(6) 0.7684(17)
H9 H -0.007(3) -0.120(5) 0.5341(19)
H10 H -0.034(4) -0.106(6) 0.5977(19)
H8F H 0.455(4) -0.278(6) 0.7316(17)
C10F C 0.5754(3) 0.0280(4) 0.78049(12)
H4F H 0.6270 -0.0293 0.8002
C11F C 0.5735(3) 0.2021(3) 0.78153(12)
C13F C 0.6434(3) 0.3029(4) 0.81749(13)
O5F O 0.70841(18) 0.2362(3) 0.84934(8)
O6F O 0.63168(19) 0.4591(3) 0.81683(9)
O1C O 0.12050(17) 0.4538(3) 0.59164(9)
O2C O 0.04073(18) 0.2314(2) 0.62572(9)
O3C O -0.27554(18) 0.7213(3) 0.46566(8)
O4C O -0.11950(19) 0.8415(3) 0.48768(8)
N1C N -0.3537(3) 0.4707(4) 0.65161(12)
C1C C -0.2616(3) 0.4999(3) 0.61966(13)
C2C C -0.1607(3) 0.4298(3) 0.63121(13)
H1C H -0.1529 0.3639 0.6608
C3C C -0.0710(2) 0.4575(3) 0.59868(12)
C4C C -0.0818(3) 0.5618(3) 0.55551(12)
H2C H -0.0212 0.5879 0.5351
C5C C -0.1847(3) 0.6266(3) 0.54326(12)
C6C C -0.2740(3) 0.5932(4) 0.57436(12)
H3C H -0.3426 0.6331 0.5650
C7C C 0.0374(3) 0.3753(4) 0.60650(11)
C8C C -0.1939(3) 0.7357(4) 0.49635(12)
H6C H -0.345(4) 0.427(6) 0.6772(19)
H7C H -0.398(4) 0.549(6) 0.6586(17)
Pr1C Pr 0.305390(13) 0.537926(19) 0.595334(6)
O7C O 0.4795(2) 0.3955(3) 0.57897(10)
H9C H 0.507(3) 0.380(5) 0.5341(19)
H10C H 0.534(4) 0.394(6) 0.5977(19)
O3D O 0.22446(18) -0.2213(3) 0.53434(8)
O3G O 0.27554(18) 0.2787(3) 0.53434(8)
O4G O 0.11950(19) 0.1585(3) 0.51232(8)
O5C O 0.20841(18) -0.2638(3) 0.65066(8)
O6C O 0.13168(19) -0.0409(3) 0.68317(9)
Pr1C_2 Pr 0.305390(13) -0.462074(19) 0.595334(6)
Pr1D Pr 0.805390(13) -0.037926(19) 0.404666(6)
Pr1G Pr 0.694610(13) 0.462074(19) 0.404666(6)
Pr1A Pr 0.694610(13) 0.537926(19) 0.904666(6)
Pr1F Pr 0.805390(13) 0.037926(19) 0.904666(6)
Pr1D_2 Pr -0.194610(13) 0.962074(19) 0.404666(6)
Pr1G_2 Pr -0.305390(13) 0.462074(19) 0.404666(6)
O2_2 O 0.45927(18) 0.7314(2) 0.62572(9)
O3D_2 O 0.22446(18) 0.7787(3) 0.53434(8)
O4D O 0.38050(19) 0.6585(3) 0.51232(8)
O5C_2 O 0.20841(18) 0.7362(3) 0.65066(8)
loop_
_geom_bond_atom_site_label_1
_geom_bond_atom_site_label_2
_geom_bond_site_symmetry_1
_geom_bond_site_symmetry_2
Pr1 O1 1_555 1_555
O1 C7 1_555 1_555
O2 C7 1_555 1_555
O3 C8 1_555 1_555
O4 C8 1_555 1_555
O5 Pr1 1_555 1_555
O6 C13 1_555 1_555
O7 Pr1 1_555 1_555
N1 C1 1_555 1_555
N2 C9 1_555 1_555
C1 C2 1_555 1_555
C2 H1 1_555 1_555
C3 C2 1_555 1_555
C4 C3 1_555 1_555
H2 C4 1_555 1_555
C5 C4 1_555 1_555
C6 C1 1_555 1_555
H3 C6 1_555 1_555
C7 C3 1_555 1_555
C8 C5 1_555 1_555
C9 C10 1_555 1_555
C10 H4 1_555 1_555
C11 C10 1_555 1_555
C12 C11 1_555 1_555
H5 C12 1_555 1_555
C13 O5 1_555 1_555
H6 N1 1_555 1_555
H7 N1 1_555 1_555
H8 N2 1_555 1_555
H9 O7 1_555 1_555
H10 O7 1_555 1_555
H8F N2 1_555 1_555
C10F C9 1_555 1_555
H4F C10F 1_555 1_555
C11F C12 1_555 1_555
C13F C11F 1_555 1_555
O5F C13F 1_555 1_555
O6F C13F 1_555 1_555
O1C C7C 1_555 1_555
O2C Pr1 1_555 1_555
O3C C8C 1_555 1_555
O4C C8C 1_555 1_555
N1C C1C 1_555 1_555
C1C C2C 1_555 1_555
C2C H1C 1_555 1_555
C3C C2C 1_555 1_555
C4C C3C 1_555 1_555
H2C C4C 1_555 1_555
C5C C4C 1_555 1_555
C6C C1C 1_555 1_555
H3C C6C 1_555 1_555
C7C O2C 1_555 1_555
C8C C5C 1_555 1_555
H6C N1C 1_555 1_555
H7C N1C 1_555 1_555
Pr1C O5 1_555 1_555
O7C Pr1C 1_555 1_555
H9C O7C 1_555 1_555
H10C O7C 1_555 1_555
O3D Pr1 1_555 1_555
O3G Pr1 1_555 1_555
O4G Pr1 1_555 1_555
O5C Pr1 1_555 1_555
O6C Pr1 1_555 1_555
Pr1C_2 O2 1_555 1_555
Pr1D O3 1_555 1_555
Pr1G O3 1_555 1_555
Pr1A O5F 1_555 1_555
Pr1F O5F 1_555 1_555
Pr1D_2 O3C 1_555 1_555
Pr1G_2 O3C 1_555 1_555
O2_2 Pr1C 1_555 1_555
O3D_2 Pr1C 1_555 1_555
O4D Pr1C 1_555 1_555
O5C_2 Pr1C 1_555 1_555
O4 Pr1G 1_555 1_555
O6 Pr1C 1_555 1_555
C5 C6 1_555 1_555
C11 C13 1_555 1_555
C10F C11F 1_555 1_555
O6F Pr1A 1_555 1_555
O1C Pr1C 1_555 1_555
O4C Pr1D_2 1_555 1_555
C3C C7C 1_555 1_555
C5C C6C 1_555 1_555
Pr1C O3G 1_555 1_555
O3D Pr1C_2 1_555 1_555
O5C Pr1C_2 1_555 1_555

#END
