
#######################################################################
#
#                 Cambridge Crystallographic Data Centre
#                                CCDC 
#
#######################################################################
#
# If this CIF has been generated from an entry in the Cambridge 
# Structural Database, then it will include bibliographic, chemical, 
# crystal, experimental, refinement or atomic coordinate data resulting 
# from the CCDC's data processing and validation procedures.
#
#######################################################################

data_ELAVIX
_symmetry_cell_setting           monoclinic
_symmetry_space_group_name_H-M   'P 21/n'
_symmetry_Int_Tables_number      14
_space_group_name_Hall           '-P 2yn'
loop_
_symmetry_equiv_pos_site_id
_symmetry_equiv_pos_as_xyz
1 x,y,z
2 1/2-x,1/2+y,1/2-z
3 -x,-y,-z
4 1/2+x,1/2-y,1/2+z
_cell_length_a                   17.3934(3)
_cell_length_b                   10.0283(2)
_cell_length_c                   18.2381(3)
_cell_angle_alpha                90
_cell_angle_beta                 101.6270(10)
_cell_angle_gamma                90
_cell_volume                     3115.93
loop_
_atom_site_label
_atom_site_type_symbol
_atom_site_fract_x
_atom_site_fract_y
_atom_site_fract_z
N1 N -0.16362(18) 0.4999(3) -0.20508(17)
C1 C -0.1332(2) 0.4808(5) -0.1338(2)
H1 H -0.1617 0.5103 -0.0989
C2 C -0.1208(3) 0.4591(5) -0.2524(2)
H2 H -0.1399 0.4725 -0.3033
C3 C -0.0626(2) 0.4208(4) -0.1073(2)
H3 H -0.0450 0.4102 -0.0560
C4 C -0.0484(3) 0.3971(5) -0.2302(2)
H4 H -0.0208 0.3698 -0.2663
C5 C -0.0172(2) 0.3757(3) -0.1562(2)
Si1 Si 0.08244(6) 0.29928(10) -0.12257(6)
Si2 Si 0.21932(6) 0.69133(10) -0.11339(6)
Ag1 Ag 0.21861(2) 0.88731(4) 0.250776(17)
Si3 Si 0.06775(7) 0.68091(12) 0.55645(6)
C6 C 0.21998(19) 0.7504(3) -0.01505(18)
C7 C 0.1128(2) 0.7395(4) 0.4762(2)
C8 C 0.1447(2) 0.5591(4) -0.1397(2)
H5 H 0.0932 0.5991 -0.1444
H6 H 0.1487 0.5251 -0.1886
C9 C 0.1844(2) 0.6953(5) 0.4628(2)
H7 H 0.2135 0.6332 0.4947
C10 C 0.1619(2) 0.8692(4) 0.0741(2)
H8 H 0.1212 0.9230 0.0831
C11 C 0.1605(2) 0.8290(4) 0.0022(2)
H9 H 0.1190 0.8548 -0.0357
N2 N 0.21809(19) 0.8356(4) 0.13170(17)
N3 N 0.1744(2) 0.8299(4) 0.35380(19)
C12 C 0.2757(2) 0.7602(5) 0.1166(2)
H10 H 0.3161 0.7356 0.1559
C13 C 0.1927(3) 0.8341(5) -0.1795(3)
H11 H 0.2059 0.8125 -0.2268
H12 H 0.2212 0.9121 -0.1592
H13 H 0.1374 0.8510 -0.1866
C14 C 0.2785(2) 0.7167(5) 0.0454(2)
H14 H 0.3203 0.6641 0.0380
C15 C -0.0128(3) 0.5600(5) 0.5174(3)
H15 H -0.0384 0.5325 0.5576
H16 H -0.0517 0.6061 0.4804
C16 C 0.0797(3) 0.1773(5) -0.0472(3)
H17 H 0.0457 0.1046 -0.0667
H18 H 0.0601 0.2199 -0.0074
H19 H 0.1316 0.1441 -0.0282
C17 C 0.2123(2) 0.7429(5) 0.4026(2)
H20 H 0.2608 0.7121 0.3957
C18 C 0.3187(3) 0.6247(6) -0.1154(3)
H21 H 0.3318 0.5559 -0.0784
H22 H 0.3565 0.6953 -0.1049
H23 H 0.3190 0.5885 -0.1641
C19 C 0.0744(2) 0.8315(4) 0.4253(2)
H24 H 0.0263 0.8654 0.4312
C20 C 0.1452(4) 0.6101(8) 0.6305(3)
H25 H 0.1822 0.6786 0.6502
H26 H 0.1718 0.5399 0.6098
H27 H 0.1220 0.5748 0.6699
C21 C 0.1060(3) 0.8741(4) 0.3662(3)
H28 H 0.0783 0.9365 0.3333
C22 C 0.0197(4) 0.8250(6) 0.5920(3)
H29 H -0.0098 0.7947 0.6280
H30 H -0.0149 0.8677 0.5511
H31 H 0.0590 0.8874 0.6153
C23 C 0.1134(3) 0.2183(5) -0.2036(3)
H32 H 0.1650 0.1814 -0.1879
H33 H 0.1139 0.2832 -0.2422
H34 H 0.0771 0.1483 -0.2227
C24 C 0.1502(2) 0.4418(4) -0.0859(2)
H35 H 0.1380 0.4728 -0.0392
H36 H 0.2038 0.4092 -0.0753
N1B N 0.16362(18) 0.5001(3) 1.20508(17)
N1A N -0.33638(18) -0.0001(3) 0.70508(17)
N1C N 0.33638(18) 1.0001(3) 0.29492(17)
C1B C 0.1332(2) 0.5192(5) 1.1338(2)
H1B H 0.1617 0.4897 1.0989
C2B C 0.1208(3) 0.5409(5) 1.2524(2)
H2B H 0.1399 0.5275 1.3033
C3B C 0.0626(2) 0.5792(4) 1.1073(2)
H3B H 0.0450 0.5898 1.0560
C4B C 0.0484(3) 0.6029(5) 1.2302(2)
H4B H 0.0208 0.6302 1.2663
C5B C 0.0172(2) 0.6243(3) 1.1562(2)
Si1B Si -0.08244(6) 0.70072(10) 1.12257(6)
Si2B Si -0.21932(6) 0.30867(10) 1.11339(6)
Ag1B Ag -0.21861(2) 0.11269(4) 0.749224(17)
Ag1A Ag 0.28139(2) 0.38731(4) 1.249224(17)
Ag1C Ag -0.28139(2) 0.61269(4) -0.249224(17)
Si3B Si -0.06775(7) 0.31909(12) 0.44355(6)
C6B C -0.21998(19) 0.2496(3) 1.01505(18)
C7B C -0.1128(2) 0.2605(4) 0.5238(2)
C8B C -0.1447(2) 0.4409(4) 1.1397(2)
H5B H -0.0932 0.4009 1.1444
H6B H -0.1487 0.4749 1.1886
C9B C -0.1844(2) 0.3047(5) 0.5372(2)
H7B H -0.2135 0.3668 0.5053
C10B C -0.1619(2) 0.1308(4) 0.9259(2)
H8B H -0.1212 0.0770 0.9169
C11B C -0.1605(2) 0.1710(4) 0.9978(2)
H9B H -0.1190 0.1452 1.0357
N2B N -0.21809(19) 0.1644(4) 0.86830(17)
N3B N -0.1744(2) 0.1701(4) 0.64620(19)
C12B C -0.2757(2) 0.2398(5) 0.8834(2)
H10B H -0.3161 0.2644 0.8441
C13B C -0.1927(3) 0.1659(5) 1.1795(3)
H11B H -0.2059 0.1875 1.2268
H12B H -0.2212 0.0879 1.1592
H13B H -0.1374 0.1490 1.1866
C14B C -0.2785(2) 0.2833(5) 0.9546(2)
H14B H -0.3203 0.3359 0.9620
C15B C 0.0128(3) 0.4400(5) 0.4826(3)
H15B H 0.0384 0.4675 0.4424
H16B H 0.0517 0.3939 0.5196
C16B C -0.0797(3) 0.8227(5) 1.0472(3)
H17B H -0.0457 0.8954 1.0667
H18B H -0.0601 0.7801 1.0074
H19B H -0.1316 0.8559 1.0282
C17B C -0.2123(2) 0.2571(5) 0.5974(2)
H20B H -0.2608 0.2879 0.6043
C18B C -0.3187(3) 0.3753(6) 1.1154(3)
H21B H -0.3318 0.4441 1.0784
H22B H -0.3565 0.3047 1.1049
H23B H -0.3190 0.4115 1.1641
C19B C -0.0744(2) 0.1685(4) 0.5747(2)
H24B H -0.0263 0.1346 0.5688
C20B C -0.1452(4) 0.3899(8) 0.3695(3)
H25B H -0.1822 0.3214 0.3498
H26B H -0.1718 0.4601 0.3902
H27B H -0.1220 0.4252 0.3301
C21B C -0.1060(3) 0.1259(4) 0.6338(3)
H28B H -0.0783 0.0635 0.6667
C22B C -0.0197(4) 0.1750(6) 0.4080(3)
H29B H 0.0098 0.2053 0.3720
H30B H 0.0149 0.1323 0.4489
H31B H -0.0590 0.1126 0.3847
C23B C -0.1134(3) 0.7817(5) 1.2036(3)
H32B H -0.1650 0.8186 1.1879
H33B H -0.1139 0.7168 1.2422
H34B H -0.0771 0.8517 1.2227
C24B C -0.1502(2) 0.5582(4) 1.0859(2)
H35B H -0.1380 0.5272 1.0392
H36B H -0.2038 0.5908 1.0753
Cl1 Cl 0.43557(6) 0.64446(10) 0.30970(5)
O1 O 0.4522(3) 0.7162(6) 0.2503(3)
O2 O 0.4545(4) 0.5115(5) 0.3054(3)
O3 O 0.3544(2) 0.6525(5) 0.3081(3)
O4 O 0.4768(3) 0.6945(7) 0.3744(3)
loop_
_geom_bond_atom_site_label_1
_geom_bond_atom_site_label_2
_geom_bond_site_symmetry_1
_geom_bond_site_symmetry_2
N1 C1 1_555 1_555
C1 H1 1_555 1_555
C2 N1 1_555 1_555
H2 C2 1_555 1_555
C3 C1 1_555 1_555
H3 C3 1_555 1_555
C4 C2 1_555 1_555
H4 C4 1_555 1_555
C5 C3 1_555 1_555
Si1 C5 1_555 1_555
Cl1 O1 1_555 1_555
Si2 C6 1_555 1_555
Ag1 N2 1_555 1_555
Si3 C7 1_555 1_555
C6 C11 1_555 1_555
C7 C9 1_555 1_555
C8 Si2 1_555 1_555
H5 C8 1_555 1_555
H6 C8 1_555 1_555
C9 H7 1_555 1_555
C10 H8 1_555 1_555
C11 C10 1_555 1_555
H9 C11 1_555 1_555
N2 C10 1_555 1_555
N3 Ag1 1_555 1_555
C12 N2 1_555 1_555
H10 C12 1_555 1_555
C13 Si2 1_555 1_555
H11 C13 1_555 1_555
H12 C13 1_555 1_555
H13 C13 1_555 1_555
C14 C6 1_555 1_555
H14 C14 1_555 1_555
O2 Cl1 1_555 1_555
C15 Si3 1_555 1_555
H15 C15 1_555 1_555
H16 C15 1_555 1_555
C16 Si1 1_555 1_555
H17 C16 1_555 1_555
H18 C16 1_555 1_555
H19 C16 1_555 1_555
C17 C9 1_555 1_555
H20 C17 1_555 1_555
C18 Si2 1_555 1_555
H21 C18 1_555 1_555
H22 C18 1_555 1_555
H23 C18 1_555 1_555
C19 C7 1_555 1_555
H24 C19 1_555 1_555
C20 Si3 1_555 1_555
H25 C20 1_555 1_555
H26 C20 1_555 1_555
H27 C20 1_555 1_555
C21 N3 1_555 1_555
H28 C21 1_555 1_555
O3 Cl1 1_555 1_555
C22 Si3 1_555 1_555
H29 C22 1_555 1_555
H30 C22 1_555 1_555
H31 C22 1_555 1_555
O4 Cl1 1_555 1_555
C23 Si1 1_555 1_555
H32 C23 1_555 1_555
H33 C23 1_555 1_555
H34 C23 1_555 1_555
C24 Si1 1_555 1_555
H35 C24 1_555 1_555
H36 C24 1_555 1_555
N1B C1B 1_555 1_555
N1A Ag1B 1_555 1_555
N1C Ag1 1_555 1_555
C1B H1B 1_555 1_555
C2B N1B 1_555 1_555
H2B C2B 1_555 1_555
C3B C1B 1_555 1_555
H3B C3B 1_555 1_555
C4B C2B 1_555 1_555
H4B C4B 1_555 1_555
C5B C3B 1_555 1_555
Si1B C5B 1_555 1_555
Si2B C6B 1_555 1_555
Ag1B N2B 1_555 1_555
Ag1A N1B 1_555 1_555
Ag1C N1 1_555 1_555
Si3B C7B 1_555 1_555
C6B C11B 1_555 1_555
C7B C9B 1_555 1_555
C8B Si2B 1_555 1_555
H5B C8B 1_555 1_555
H6B C8B 1_555 1_555
C9B H7B 1_555 1_555
C10B H8B 1_555 1_555
C11B C10B 1_555 1_555
H9B C11B 1_555 1_555
N2B C10B 1_555 1_555
N3B Ag1B 1_555 1_555
C12B N2B 1_555 1_555
H10B C12B 1_555 1_555
C13B Si2B 1_555 1_555
H11B C13B 1_555 1_555
H12B C13B 1_555 1_555
H13B C13B 1_555 1_555
C14B C6B 1_555 1_555
H14B C14B 1_555 1_555
C15B C15 1_555 1_555
H15B C15B 1_555 1_555
H16B C15B 1_555 1_555
C16B Si1B 1_555 1_555
H17B C16B 1_555 1_555
H18B C16B 1_555 1_555
H19B C16B 1_555 1_555
C17B C9B 1_555 1_555
H20B C17B 1_555 1_555
C18B Si2B 1_555 1_555
H21B C18B 1_555 1_555
H22B C18B 1_555 1_555
H23B C18B 1_555 1_555
C19B C7B 1_555 1_555
H24B C19B 1_555 1_555
C20B Si3B 1_555 1_555
H25B C20B 1_555 1_555
H26B C20B 1_555 1_555
H27B C20B 1_555 1_555
C21B N3B 1_555 1_555
H28B C21B 1_555 1_555
C22B Si3B 1_555 1_555
H29B C22B 1_555 1_555
H30B C22B 1_555 1_555
H31B C22B 1_555 1_555
C23B Si1B 1_555 1_555
H32B C23B 1_555 1_555
H33B C23B 1_555 1_555
H34B C23B 1_555 1_555
C24B Si1B 1_555 1_555
H35B C24B 1_555 1_555
H36B C24B 1_555 1_555
C4 C5 1_555 1_555
C8 C24 1_555 1_555
N3 C17 1_555 1_555
C12 C14 1_555 1_555
C19 C21 1_555 1_555
C4B C5B 1_555 1_555
Si3B C15B 1_555 1_555
C8B C24B 1_555 1_555
N3B C17B 1_555 1_555
C12B C14B 1_555 1_555
C19B C21B 1_555 1_555

#END
