
#######################################################################
#
#                 Cambridge Crystallographic Data Centre
#                                CCDC 
#
#######################################################################
#
# If this CIF has been generated from an entry in the Cambridge 
# Structural Database, then it will include bibliographic, chemical, 
# crystal, experimental, refinement or atomic coordinate data resulting 
# from the CCDC's data processing and validation procedures.
#
#######################################################################

data_ELAYAS
_symmetry_cell_setting           triclinic
_symmetry_space_group_name_H-M   'P -1'
_symmetry_Int_Tables_number      2
_space_group_name_Hall           '-P 1'
loop_
_symmetry_equiv_pos_site_id
_symmetry_equiv_pos_as_xyz
1 x,y,z
2 -x,-y,-z
_cell_length_a                   7.6380(15)
_cell_length_b                   9.5958(19)
_cell_length_c                   10.284(2)
_cell_angle_alpha                79.24(3)
_cell_angle_beta                 71.78(3)
_cell_angle_gamma                68.96(3)
_cell_volume                     665.859
loop_
_atom_site_label
_atom_site_type_symbol
_atom_site_fract_x
_atom_site_fract_y
_atom_site_fract_z
Co1 Co 0.23992(7) 0.65076(5) 0.70794(5)
O1 O 0.3600(4) 0.8589(3) 0.7257(3)
O2 O 0.4676(4) 0.7057(3) 0.5648(3)
C1 C 0.4606(5) 0.8236(4) 0.6105(4)
C2 C 0.5733(5) 0.9230(4) 0.5149(3)
H1 H 0.6442 0.8764 0.4282
C3 C 0.7195(5) 0.9400(4) 0.5785(4)
H2 H 0.7743 1.0149 0.5215
H3 H 0.6497 0.9780 0.6679
C4 C 0.8852(5) 0.7993(4) 0.5963(4)
O3 O 0.9026(5) 0.6836(3) 0.5487(4)
O4 O 0.9971(4) 0.8089(3) 0.6601(3)
N1 N 0.4113(4) 0.4515(3) 0.8073(3)
N2 N 0.1124(4) 0.6758(3) 0.9185(3)
C5 C 0.5582(6) 0.3394(5) 0.7432(4)
H4 H 0.6034 0.3506 0.6481
C6 C 0.6459(6) 0.2071(5) 0.8129(5)
H5 H 0.7485 0.1313 0.7654
C7 C 0.5778(7) 0.1902(5) 0.9538(5)
H6 H 0.6335 0.1023 1.0029
C8 C 0.4257(6) 0.3054(4) 1.0216(4)
H7 H 0.3785 0.2963 1.1167
C9 C 0.3447(5) 0.4349(4) 0.9452(4)
C10 C 0.1844(5) 0.5639(4) 1.0088(3)
C11 C 0.1122(6) 0.5749(5) 1.1486(4)
H8 H 0.1588 0.4954 1.2093
C12 C -0.0292(6) 0.7042(5) 1.1973(4)
H9 H -0.0781 0.7134 1.2913
C13 C -0.0981(6) 0.8207(5) 1.1052(4)
H10 H -0.1913 0.9102 1.1358
C14 C -0.0249(6) 0.8003(4) 0.9673(4)
H11 H -0.0736 0.8771 0.9052
O5 O 0.2328(4) 0.5079(3) 0.5868(3)
H12 H 0.1275 0.5585 0.5788
H13 H 0.3252 0.4374 0.5438
Co1A Co -0.23992(7) 1.34924(5) 0.29206(5)
Co1_2 Co 1.23992(7) 0.65076(5) 0.70794(5)
Co1A_2 Co 0.76008(7) 1.34924(5) 0.29206(5)
O1A O 0.6400(4) 1.1411(3) 0.2743(3)
O2A O 0.5324(4) 1.2943(3) 0.4352(3)
O2A_2 O -0.4676(4) 1.2943(3) 0.4352(3)
C1A C 0.5394(5) 1.1764(4) 0.3895(4)
C2A C 0.4267(5) 1.0770(4) 0.4851(3)
H1A H 0.3558 1.1236 0.5718
C3A C 0.2805(5) 1.0600(4) 0.4215(4)
H2A H 0.2257 0.9851 0.4785
H3A H 0.3503 1.0220 0.3321
C4A C 0.1148(5) 1.2007(4) 0.4037(4)
O3A O 0.0974(5) 1.3164(3) 0.4513(4)
O4A O 0.0029(4) 1.1911(3) 0.3399(3)
O4_2 O -0.0029(4) 0.8089(3) 0.6601(3)
N1A N -0.4113(4) 1.5485(3) 0.1927(3)
N2A N -0.1124(4) 1.3242(3) 0.0815(3)
C5A C -0.5582(6) 1.6606(5) 0.2568(4)
H4A H -0.6034 1.6494 0.3519
C6A C -0.6459(6) 1.7929(5) 0.1871(5)
H5A H -0.7485 1.8687 0.2346
C7A C -0.5778(7) 1.8098(5) 0.0462(5)
H6A H -0.6335 1.8977 -0.0029
C8A C -0.4257(6) 1.6946(4) -0.0216(4)
H7A H -0.3785 1.7037 -0.1167
C9A C -0.3447(5) 1.5651(4) 0.0548(4)
C10A C -0.1844(5) 1.4361(4) -0.0088(3)
C11A C -0.1122(6) 1.4251(5) -0.1486(4)
H8A H -0.1588 1.5046 -0.2093
C12A C 0.0292(6) 1.2958(5) -0.1973(4)
H9A H 0.0781 1.2866 -0.2913
C13A C 0.0981(6) 1.1793(5) -0.1052(4)
H10A H 0.1913 1.0898 -0.1358
C14A C 0.0249(6) 1.1997(4) 0.0327(4)
H11A H 0.0736 1.1229 0.0948
O5A O -0.2328(4) 1.4921(3) 0.4132(3)
H12A H -0.1275 1.4415 0.4212
H13A H -0.3252 1.5626 0.4562
loop_
_geom_bond_atom_site_label_1
_geom_bond_atom_site_label_2
_geom_bond_site_symmetry_1
_geom_bond_site_symmetry_2
Co1 O2 1_555 1_555
O1 C1 1_555 1_555
O2 C1 1_555 1_555
C1 C2 1_555 1_555
C2 H1 1_555 1_555
C3 C2 1_555 1_555
H2 C3 1_555 1_555
H3 C3 1_555 1_555
C4 C3 1_555 1_555
O3 C4 1_555 1_555
O4 C4 1_555 1_555
N1 Co1 1_555 1_555
N2 Co1 1_555 1_555
C5 N1 1_555 1_555
H4 C5 1_555 1_555
C6 C5 1_555 1_555
H5 C6 1_555 1_555
C7 C6 1_555 1_555
H6 C7 1_555 1_555
C8 C7 1_555 1_555
H7 C8 1_555 1_555
C9 N1 1_555 1_555
C10 N2 1_555 1_555
C11 C10 1_555 1_555
H8 C11 1_555 1_555
C12 C11 1_555 1_555
H9 C12 1_555 1_555
C13 C12 1_555 1_555
H10 C13 1_555 1_555
C14 N2 1_555 1_555
H11 C14 1_555 1_555
O5 Co1 1_555 1_555
H12 O5 1_555 1_555
H13 O5 1_555 1_555
Co1A O2A_2 1_555 1_555
Co1_2 O4 1_555 1_555
Co1A_2 O2A 1_555 1_555
O1A C1A 1_555 1_555
O2A C1A 1_555 1_555
C1A C2A 1_555 1_555
C2A C2 1_555 1_555
H1A C2A 1_555 1_555
C3A C2A 1_555 1_555
H2A C3A 1_555 1_555
H3A C3A 1_555 1_555
C4A C3A 1_555 1_555
O3A C4A 1_555 1_555
O4A Co1A 1_555 1_555
O4_2 Co1 1_555 1_555
N1A Co1A 1_555 1_555
N2A Co1A 1_555 1_555
C5A N1A 1_555 1_555
H4A C5A 1_555 1_555
C6A C5A 1_555 1_555
H5A C6A 1_555 1_555
C7A C6A 1_555 1_555
H6A C7A 1_555 1_555
C8A C7A 1_555 1_555
H7A C8A 1_555 1_555
C9A N1A 1_555 1_555
C10A N2A 1_555 1_555
C11A C10A 1_555 1_555
H8A C11A 1_555 1_555
C12A C11A 1_555 1_555
H9A C12A 1_555 1_555
C13A C12A 1_555 1_555
H10A C13A 1_555 1_555
C14A N2A 1_555 1_555
H11A C14A 1_555 1_555
O5A Co1A 1_555 1_555
H12A O5A 1_555 1_555
H13A O5A 1_555 1_555
C8 C9 1_555 1_555
C9 C10 1_555 1_555
C13 C14 1_555 1_555
C4A O4A 1_555 1_555
C8A C9A 1_555 1_555
C9A C10A 1_555 1_555
C13A C14A 1_555 1_555

#END
