
#######################################################################
#
#                 Cambridge Crystallographic Data Centre
#                                CCDC 
#
#######################################################################
#
# If this CIF has been generated from an entry in the Cambridge 
# Structural Database, then it will include bibliographic, chemical, 
# crystal, experimental, refinement or atomic coordinate data resulting 
# from the CCDC's data processing and validation procedures.
#
#######################################################################

data_ELECUT
_symmetry_cell_setting           monoclinic
_symmetry_space_group_name_H-M   'P 21/c'
_symmetry_Int_Tables_number      14
_space_group_name_Hall           '-P 2ybc'
loop_
_symmetry_equiv_pos_site_id
_symmetry_equiv_pos_as_xyz
1 x,y,z
2 x,1/2-y,1/2+z
3 -x,-y,-z
4 -x,1/2+y,1/2-z
_cell_length_a                   14.3593(6)
_cell_length_b                   15.9365(7)
_cell_length_c                   20.5615(9)
_cell_angle_alpha                90
_cell_angle_beta                 107.4430(10)
_cell_angle_gamma                90
_cell_volume                     4488.86
loop_
_atom_site_label
_atom_site_type_symbol
_atom_site_fract_x
_atom_site_fract_y
_atom_site_fract_z
Sn1 Sn 0.541084(9) 0.767818(8) 0.316571(6)
Sn2 Sn 1.005144(9) 0.735074(8) 0.291244(6)
S1 S 0.77232(3) 0.69267(3) 0.31073(2)
S2 S 0.62102(3) 0.34645(3) 0.10256(2)
O1 O 0.67704(10) 0.73450(8) 0.28252(7)
O2 O 0.84017(10) 0.72813(8) 0.27620(7)
O3 O 0.80940(10) 0.69470(9) 0.38389(7)
O4 O 0.71267(9) 0.31315(8) 0.09618(6)
O5 O 0.59549(9) 0.30132(8) 0.15839(6)
O6 O 0.54215(9) 0.34787(9) 0.03987(7)
O7 O 1.16391(10) 0.73877(9) 0.30011(7)
H1 H 1.1921(19) 0.6885(18) 0.2970(13)
H2 H 1.202(3) 0.7604(19) 0.3365(18)
C1 C 0.75517(13) 0.58580(11) 0.28523(9)
C2 C 0.78919(14) 0.52682(12) 0.33504(9)
H3 H 0.8174(17) 0.5431(15) 0.3825(12)
C3 C 0.77855(14) 0.44117(12) 0.31820(10)
H4 H 0.8006(17) 0.3992(15) 0.3534(12)
C4 C 0.73263(13) 0.41587(12) 0.25294(9)
H5 H 0.7263(15) 0.3587(14) 0.2425(10)
C5 C 0.69530(12) 0.47544(11) 0.19978(9)
C6 C 0.70778(12) 0.56302(11) 0.21534(9)
C7 C 0.67371(13) 0.62297(12) 0.16255(9)
H6 H 0.6811(17) 0.6801(16) 0.1728(12)
C8 C 0.62875(14) 0.59825(12) 0.09691(10)
H7 H 0.6080(16) 0.6381(15) 0.0614(12)
C9 C 0.61377(13) 0.51262(12) 0.08085(9)
H8 H 0.5807(16) 0.4965(14) 0.0366(12)
C10 C 0.64524(13) 0.45257(11) 0.13052(9)
C11 C 0.61207(13) 0.87791(12) 0.36356(9)
C12 C 0.57137(14) 0.95694(13) 0.34359(11)
H9 H 0.5154(18) 0.9602(17) 0.3043(13)
C13 C 0.61148(16) 1.02826(13) 0.38045(12)
H10 H 0.5805(18) 1.0812(17) 0.3690(13)
C14 C 0.69210(17) 1.02100(14) 0.43726(12)
H11 H 0.7178(18) 1.0643(17) 0.4610(13)
C15 C 0.73411(15) 0.94326(15) 0.45733(11)
H12 H 0.7904(16) 0.9376(14) 0.4983(11)
C16 C 0.69452(14) 0.87170(13) 0.42043(10)
H13 H 0.7253(16) 0.8203(16) 0.4336(11)
C17 C 0.45756(14) 0.76183(11) 0.21242(10)
C18 C 0.49781(15) 0.78325(12) 0.16009(10)
H14 H 0.5648(16) 0.8019(14) 0.1708(11)
C19 C 0.44187(17) 0.77728(13) 0.09185(11)
H15 H 0.4753(19) 0.7941(17) 0.0551(14)
C20 C 0.34561(17) 0.75137(14) 0.07479(11)
H16 H 0.310(2) 0.7473(16) 0.0298(15)
C21 C 0.30497(16) 0.72970(13) 0.12607(11)
H17 H 0.2404(17) 0.7103(14) 0.1139(11)
C22 C 0.36076(15) 0.73448(12) 0.19413(10)
H18 H 0.3342(17) 0.7204(14) 0.2285(12)
C23 C 0.55913(13) 0.65538(12) 0.37379(10)
C24 C 0.55779(15) 0.57850(13) 0.34141(11)
H19 H 0.5458(18) 0.5743(16) 0.2940(13)
C25 C 0.57440(17) 0.50402(14) 0.37839(14)
H20 H 0.576(2) 0.4506(18) 0.3551(14)
C26 C 0.5918(2) 0.50621(16) 0.44809(14)
H21 H 0.604(2) 0.458(2) 0.4756(16)
C27 C 0.5909(2) 0.58216(18) 0.48095(14)
H22 H 0.604(2) 0.584(2) 0.5270(17)
C28 C 0.57523(18) 0.65642(14) 0.44375(11)
H23 H 0.5762(19) 0.7098(17) 0.4672(13)
C29 C 1.01509(13) 0.85353(11) 0.34062(9)
C30 C 1.07677(14) 0.91481(12) 0.32747(10)
H24 H 1.1136(16) 0.9047(14) 0.2978(11)
C31 C 1.08450(14) 0.99379(12) 0.35778(10)
H25 H 1.1265(17) 1.0367(15) 0.3465(12)
C32 C 1.03031(15) 1.01239(13) 0.40154(10)
H26 H 1.0336(17) 1.0666(15) 0.4223(12)
C33 C 0.96884(15) 0.95196(14) 0.41518(10)
H27 H 0.9315(18) 0.9647(16) 0.4439(12)
C34 C 0.96120(15) 0.87309(13) 0.38504(10)
H28 H 0.9220(17) 0.8338(15) 0.3943(12)
C35 C 0.97134(14) 0.73862(12) 0.18257(9)
C36 C 0.87571(16) 0.74901(15) 0.14113(11)
H29 H 0.827(2) 0.7490(16) 0.1608(14)
C37 C 0.85464(18) 0.75885(16) 0.07096(11)
H30 H 0.793(2) 0.7664(16) 0.0459(14)
C38 C 0.92802(17) 0.75916(13) 0.04075(10)
H31 H 0.9149(18) 0.7672(14) -0.0066(13)
C39 C 1.02391(17) 0.74938(15) 0.08108(11)
H32 H 1.075(2) 0.7494(16) 0.0612(14)
C40 C 1.04568(16) 0.73935(14) 0.15148(11)
H33 H 1.112(2) 0.7344(17) 0.1779(15)
C41 C 1.03493(13) 0.62821(12) 0.35604(10)
C42 C 1.01824(15) 0.54603(13) 0.33313(11)
H34 H 0.991(2) 0.5355(19) 0.2907(15)
C43 C 1.04562(16) 0.47856(14) 0.37820(12)
H35 H 1.0344(19) 0.4237(18) 0.3611(14)
C44 C 1.0904(2) 0.49334(16) 0.44631(13)
H36 H 1.105(2) 0.449(2) 0.4750(17)
C45 C 1.1093(3) 0.57472(18) 0.46973(13)
H37 H 1.141(3) 0.584(2) 0.5151(19)
C46 C 1.0815(2) 0.64151(16) 0.42490(12)
H38 H 1.087(2) 0.693(2) 0.4401(15)
O5C O 0.40451(9) 0.80132(8) 0.34161(6)
Sn1C Sn 0.458916(9) 0.267818(8) 0.183429(6)
O8 O 0.75076(11) 0.09669(9) 0.21133(8)
C47 C 0.70573(18) 0.04712(16) 0.15132(13)
H39 H 0.7458(19) 0.0455(17) 0.1241(13)
H40 H 0.642(2) 0.0721(17) 0.1269(14)
C48 C 0.6954(3) -0.03984(19) 0.17848(18)
H41 H 0.633(4) -0.045(3) 0.186(2)
H42 H 0.691(3) -0.078(2) 0.1444(19)
C49 C 0.7797(2) -0.04555(16) 0.24256(14)
H43 H 0.762(2) -0.084(2) 0.2740(18)
H44 H 0.844(3) -0.060(2) 0.2291(19)
C50 C 0.7900(3) 0.04132(18) 0.26900(14)
H45 H 0.760(3) 0.052(2) 0.2983(18)
H46 H 0.863(4) 0.063(3) 0.294(2)
loop_
_geom_bond_atom_site_label_1
_geom_bond_atom_site_label_2
_geom_bond_site_symmetry_1
_geom_bond_site_symmetry_2
Sn1 O1 1_555 1_555
Sn2 O2 1_555 1_555
S1 O1 1_555 1_555
S2 O4 1_555 1_555
O2 S1 1_555 1_555
O3 S1 1_555 1_555
O5 S2 1_555 1_555
O6 S2 1_555 1_555
O7 Sn2 1_555 1_555
H1 O7 1_555 1_555
H2 O7 1_555 1_555
O8 C47 1_555 1_555
C1 S1 1_555 1_555
C2 C1 1_555 1_555
H3 C2 1_555 1_555
C3 C2 1_555 1_555
H4 C3 1_555 1_555
C4 C3 1_555 1_555
H5 C4 1_555 1_555
C5 C4 1_555 1_555
C6 C1 1_555 1_555
C7 C6 1_555 1_555
H6 C7 1_555 1_555
C8 C7 1_555 1_555
H7 C8 1_555 1_555
C9 C8 1_555 1_555
H8 C9 1_555 1_555
C10 S2 1_555 1_555
C11 Sn1 1_555 1_555
C12 C11 1_555 1_555
H9 C12 1_555 1_555
C13 C12 1_555 1_555
H10 C13 1_555 1_555
C14 C13 1_555 1_555
H11 C14 1_555 1_555
C15 C14 1_555 1_555
H12 C15 1_555 1_555
C16 C11 1_555 1_555
H13 C16 1_555 1_555
C17 Sn1 1_555 1_555
C18 C17 1_555 1_555
H14 C18 1_555 1_555
C19 C18 1_555 1_555
H15 C19 1_555 1_555
C20 C19 1_555 1_555
H16 C20 1_555 1_555
C21 C20 1_555 1_555
H17 C21 1_555 1_555
C22 C17 1_555 1_555
H18 C22 1_555 1_555
C23 Sn1 1_555 1_555
C24 C23 1_555 1_555
H19 C24 1_555 1_555
C25 C24 1_555 1_555
H20 C25 1_555 1_555
C26 C25 1_555 1_555
H21 C26 1_555 1_555
C27 C26 1_555 1_555
H22 C27 1_555 1_555
C28 C23 1_555 1_555
H23 C28 1_555 1_555
C29 Sn2 1_555 1_555
C30 C29 1_555 1_555
H24 C30 1_555 1_555
C31 C30 1_555 1_555
H25 C31 1_555 1_555
C32 C31 1_555 1_555
H26 C32 1_555 1_555
C33 C32 1_555 1_555
H27 C33 1_555 1_555
C34 C29 1_555 1_555
H28 C34 1_555 1_555
C35 Sn2 1_555 1_555
C36 C35 1_555 1_555
H29 C36 1_555 1_555
C37 C36 1_555 1_555
H30 C37 1_555 1_555
C38 C37 1_555 1_555
H31 C38 1_555 1_555
C39 C38 1_555 1_555
H32 C39 1_555 1_555
C40 C35 1_555 1_555
H33 C40 1_555 1_555
C41 Sn2 1_555 1_555
C42 C41 1_555 1_555
H34 C42 1_555 1_555
C43 C42 1_555 1_555
H35 C43 1_555 1_555
C44 C43 1_555 1_555
H36 C44 1_555 1_555
C45 C44 1_555 1_555
H37 C45 1_555 1_555
C46 C41 1_555 1_555
H38 C46 1_555 1_555
C47 H39 1_555 1_555
H40 C47 1_555 1_555
C48 C47 1_555 1_555
H41 C48 1_555 1_555
H42 C48 1_555 1_555
C49 C48 1_555 1_555
H43 C49 1_555 1_555
H44 C49 1_555 1_555
C50 O8 1_555 1_555
H45 C50 1_555 1_555
H46 C50 1_555 1_555
O5C Sn1 1_555 1_555
Sn1C O5 1_555 1_555
C5 C6 1_555 1_555
C5 C10 1_555 1_555
C9 C10 1_555 1_555
C15 C16 1_555 1_555
C21 C22 1_555 1_555
C27 C28 1_555 1_555
C33 C34 1_555 1_555
C39 C40 1_555 1_555
C45 C46 1_555 1_555
C49 C50 1_555 1_555

#END
