
#######################################################################
#
#                 Cambridge Crystallographic Data Centre
#                                CCDC 
#
#######################################################################
#
# If this CIF has been generated from an entry in the Cambridge 
# Structural Database, then it will include bibliographic, chemical, 
# crystal, experimental, refinement or atomic coordinate data resulting 
# from the CCDC's data processing and validation procedures.
#
#######################################################################

data_ELEMUE
_symmetry_cell_setting           monoclinic
_symmetry_space_group_name_H-M   'P 21'
_symmetry_Int_Tables_number      4
_space_group_name_Hall           'P 2yb'
loop_
_symmetry_equiv_pos_site_id
_symmetry_equiv_pos_as_xyz
1 x,y,z
2 -x,1/2+y,-z
_cell_length_a                   12.1496(7)
_cell_length_b                   13.6424(8)
_cell_length_c                   13.8521(6)
_cell_angle_alpha                90
_cell_angle_beta                 107.011(6)
_cell_angle_gamma                90
_cell_volume                     2195.53
loop_
_atom_site_label
_atom_site_type_symbol
_atom_site_fract_x
_atom_site_fract_y
_atom_site_fract_z
Zn1 Zn 0.76589(16) 0.93619(12) 0.05922(17)
O1 O 0.5992(8) 0.9584(9) -0.0337(8)
O2 O 0.6149(8) 0.9739(9) 0.1281(9)
O3 O 0.1945(10) 1.2304(11) -0.1928(11)
O4 O 0.2454(8) 1.2941(10) -0.0383(9)
O10 O 0.8846(9) 0.9077(10) 0.2031(9)
N1 N 0.8176(11) 1.0888(12) 0.0673(12)
N2 N 0.8421(10) 0.9471(13) -0.0662(11)
C1 C 0.8069(14) 1.1593(15) 0.1305(15)
H2 H 0.7753 1.1392 0.1808
C2 C 0.8332(15) 1.2502(18) 0.1329(18)
H3 H 0.8285 1.2903 0.1858
C3 C 0.8673(12) 1.2853(15) 0.0571(13)
H4 H 0.8789 1.3524 0.0527
C4 C 0.8859(12) 1.2231(13) -0.0159(13)
C5 C 0.8554(10) 1.1258(11) -0.0035(11)
C6 C 0.8723(12) 1.0506(13) -0.0755(13)
C7 C 0.9124(12) 1.0570(14) -0.1636(14)
C8 C 0.9133(10) 0.9816(12) -0.2299(12)
H5 H 0.9334 0.9927 -0.2888
C9 C 0.8836(11) 0.8899(12) -0.2055(12)
H6 H 0.8879 0.8383 -0.2481
C10 C 0.8494(11) 0.8701(13) -0.1263(12)
H7 H 0.8311 0.8067 -0.1119
C11 C 0.9313(14) 1.2267(16) -0.1185(14)
H8 H 0.9547 1.2876 -0.1353
C12 C 0.9377(13) 1.1559(14) -0.1764(14)
H9 H 0.9613 1.1711 -0.2327
C25 C 0.4277(13) 1.0031(13) 0.0101(13)
C26 C 0.4097(11) 1.1189(12) -0.0031(12)
C27 C 0.2726(14) 1.1215(15) -0.0526(16)
H18 H 0.2357 1.1118 0.0008
C28 C 0.2442(14) 1.0337(18) -0.1246(15)
H19 H 0.2258 1.0551 -0.1944
H20 H 0.1795 0.9970 -0.1156
C29 C 0.3592(12) 0.9688(13) -0.0942(11)
H21 H 0.3406 0.8997 -0.0932
H22 H 0.4028 0.9787 -0.1420
C30 C 0.5586(15) 0.9805(17) 0.0337(16)
C31 C 0.2390(13) 1.2210(15) -0.0997(14)
C32 C 0.4399(13) 1.1762(13) 0.1016(11)
H23 H 0.4268 1.2451 0.0890
H24 H 0.5193 1.1655 0.1381
H25 H 0.3919 1.1527 0.1407
C33 C 0.4701(11) 1.1688(11) -0.0665(10)
H26 H 0.4541 1.2378 -0.0678
H27 H 0.4442 1.1431 -0.1339
H28 H 0.5514 1.1583 -0.0393
C34 C 0.3768(9) 0.9664(9) 0.0873(8)
H29 H 0.3873 0.8967 0.0938
H30 H 0.2960 0.9813 0.0676
H31 H 0.4138 0.9972 0.1508
Zn1A Zn 0.23411(16) 1.43619(12) -0.05922(17)
O4A O 0.7546(8) 0.7941(10) 0.0383(9)
Zn2 Zn 0.72373(16) 1.02989(12) -0.56284(16)
O5 O 0.7413(10) 1.1776(12) -0.5346(12)
O6 O 0.6992(10) 1.2372(11) -0.6920(11)
O7 O 1.1077(8) 1.4902(8) -0.5369(9)
O8 O 1.1310(9) 1.4906(9) -0.3755(9)
O11 O 0.6075(9) 1.0595(11) -0.6976(10)
N3 N 0.6721(12) 0.8789(13) -0.5742(13)
N4 N 0.6530(11) 1.0139(13) -0.4457(11)
C13 C 0.6852(13) 0.8134(15) -0.6389(15)
H10 H 0.7091 0.8324 -0.6940
C14 C 0.6616(14) 0.7081(16) -0.6237(16)
H11 H 0.6719 0.6602 -0.6681
C15 C 0.6234(11) 0.6834(14) -0.5404(11)
H12 H 0.6091 0.6181 -0.5290
C16 C 0.6063(11) 0.7566(12) -0.4730(11)
C17 C 0.6319(10) 0.8561(11) -0.4877(11)
C18 C 0.6270(10) 0.9298(13) -0.4197(11)
C19 C 0.5915(12) 0.8884(13) -0.3397(12)
C20 C 0.5832(10) 0.9559(12) -0.2741(11)
H13 H 0.5577 0.9372 -0.2197
C21 C 0.6106(11) 1.0530(14) -0.2823(12)
H14 H 0.6060 1.1009 -0.2359
C22 C 0.6481(11) 1.0727(12) -0.3725(12)
H15 H 0.6719 1.1367 -0.3782
C23 C 0.5741(10) 0.7212(11) -0.4007(10)
H16 H 0.5618 0.6544 -0.3954
C24 C 0.5586(12) 0.7857(13) -0.3323(14)
H17 H 0.5278 0.7657 -0.2814
C35 C 0.7857(12) 1.3445(13) -0.5490(13)
C36 C 0.9179(17) 1.3433(19) -0.5101(18)
C37 C 0.9416(11) 1.4518(13) -0.4859(12)
H32 H 0.9192 1.4663 -0.4250
C38 C 0.8606(13) 1.5112(14) -0.5744(12)
H33 H 0.8997 1.5319 -0.6228
H34 H 0.8282 1.5678 -0.5503
C39 C 0.7643(13) 1.4287(15) -0.6208(14)
H35 H 0.6879 1.4553 -0.6296
H36 H 0.7694 1.4073 -0.6861
C40 C 0.7365(15) 1.2472(16) -0.5907(16)
C41 C 1.0599(16) 1.4834(18) -0.4679(17)
C42 C 0.9667(13) 1.2825(15) -0.4114(13)
H37 H 1.0493 1.2842 -0.3918
H38 H 0.9408 1.2159 -0.4231
H39 H 0.9400 1.3101 -0.3585
C43 C 0.9681(14) 1.3089(15) -0.5910(13)
H40 H 0.9364 1.3467 -0.6512
H41 H 0.9499 1.2409 -0.6051
H42 H 1.0501 1.3170 -0.5686
C44 C 0.7281(9) 1.3651(10) -0.4615(9)
H43 H 0.6459 1.3628 -0.4888
H44 H 0.7510 1.4287 -0.4330
H45 H 0.7528 1.3161 -0.4099
Zn2A Zn 1.27627(16) 1.52989(12) -0.43716(16)
O7A O 0.8923(8) 0.9902(8) -0.4631(9)
O8A O 0.8690(9) 0.9906(9) -0.6245(9)
O9 O 1.0829(7) 0.9864(7) 0.1399(7)
H1 H 1.1249 0.9530 0.1162
C45 C 1.1492(13) 1.0529(14) 0.2088(13)
H46 H 1.2093 1.0135 0.2535
H47 H 1.1873 1.0922 0.1697
C46 C 1.1192(12) 1.1172(12) 0.2698(12)
H48 H 1.1869 1.1491 0.3115
H49 H 1.0814 1.0832 0.3118
H50 H 1.0680 1.1652 0.2299
loop_
_geom_bond_atom_site_label_1
_geom_bond_atom_site_label_2
_geom_bond_site_symmetry_1
_geom_bond_site_symmetry_2
Zn1 O1 1_555 1_555
Zn2 O5 1_555 1_555
O1 C30 1_555 1_555
O2 Zn1 1_555 1_555
O3 C31 1_555 1_555
O4 C31 1_555 1_555
O5 C40 1_555 1_555
O6 C40 1_555 1_555
O7 C41 1_555 1_555
O8 C41 1_555 1_555
O9 H1 1_555 1_555
O10 Zn1 1_555 1_555
O11 Zn2 1_555 1_555
N1 Zn1 1_555 1_555
N2 Zn1 1_555 1_555
N3 Zn2 1_555 1_555
N4 Zn2 1_555 1_555
C1 N1 1_555 1_555
H2 C1 1_555 1_555
C2 C1 1_555 1_555
H3 C2 1_555 1_555
C3 C2 1_555 1_555
H4 C3 1_555 1_555
C4 C3 1_555 1_555
C5 N1 1_555 1_555
C6 N2 1_555 1_555
C7 C6 1_555 1_555
C8 C7 1_555 1_555
H5 C8 1_555 1_555
C9 C8 1_555 1_555
H6 C9 1_555 1_555
C10 N2 1_555 1_555
H7 C10 1_555 1_555
C11 C4 1_555 1_555
H8 C11 1_555 1_555
C12 C7 1_555 1_555
H9 C12 1_555 1_555
C13 N3 1_555 1_555
H10 C13 1_555 1_555
C14 C13 1_555 1_555
H11 C14 1_555 1_555
C15 C14 1_555 1_555
H12 C15 1_555 1_555
C16 C15 1_555 1_555
C17 N3 1_555 1_555
C18 N4 1_555 1_555
C19 C18 1_555 1_555
C20 C19 1_555 1_555
H13 C20 1_555 1_555
C21 C20 1_555 1_555
H14 C21 1_555 1_555
C22 N4 1_555 1_555
H15 C22 1_555 1_555
C23 C16 1_555 1_555
H16 C23 1_555 1_555
C24 C19 1_555 1_555
H17 C24 1_555 1_555
C25 C26 1_555 1_555
C26 C27 1_555 1_555
C27 H18 1_555 1_555
C28 C27 1_555 1_555
H19 C28 1_555 1_555
H20 C28 1_555 1_555
C29 C25 1_555 1_555
H21 C29 1_555 1_555
H22 C29 1_555 1_555
C30 O2 1_555 1_555
C31 C27 1_555 1_555
C32 C26 1_555 1_555
H23 C32 1_555 1_555
H24 C32 1_555 1_555
H25 C32 1_555 1_555
C33 C26 1_555 1_555
H26 C33 1_555 1_555
H27 C33 1_555 1_555
H28 C33 1_555 1_555
C34 C25 1_555 1_555
H29 C34 1_555 1_555
H30 C34 1_555 1_555
H31 C34 1_555 1_555
C35 C36 1_555 1_555
C36 C37 1_555 1_555
C37 H32 1_555 1_555
C38 C37 1_555 1_555
H33 C38 1_555 1_555
H34 C38 1_555 1_555
C39 C35 1_555 1_555
H35 C39 1_555 1_555
H36 C39 1_555 1_555
C40 C35 1_555 1_555
C41 C37 1_555 1_555
C42 C36 1_555 1_555
H37 C42 1_555 1_555
H38 C42 1_555 1_555
H39 C42 1_555 1_555
C43 C36 1_555 1_555
H40 C43 1_555 1_555
H41 C43 1_555 1_555
H42 C43 1_555 1_555
C44 C35 1_555 1_555
H43 C44 1_555 1_555
H44 C44 1_555 1_555
H45 C44 1_555 1_555
C45 O9 1_555 1_555
H46 C45 1_555 1_555
H47 C45 1_555 1_555
C46 C45 1_555 1_555
H48 C46 1_555 1_555
H49 C46 1_555 1_555
H50 C46 1_555 1_555
Zn1A O4 1_555 1_555
Zn2A O7 1_555 1_555
O4A Zn1 1_555 1_555
O7A Zn2 1_555 1_555
O8A Zn2 1_555 1_555
O8 Zn2A 1_555 1_555
C4 C5 1_555 1_555
C5 C6 1_555 1_555
C9 C10 1_555 1_555
C11 C12 1_555 1_555
C16 C17 1_555 1_555
C17 C18 1_555 1_555
C21 C22 1_555 1_555
C23 C24 1_555 1_555
C25 C30 1_555 1_555
C28 C29 1_555 1_555
C38 C39 1_555 1_555

#END
