
#######################################################################
#
#                 Cambridge Crystallographic Data Centre
#                                CCDC 
#
#######################################################################
#
# If this CIF has been generated from an entry in the Cambridge 
# Structural Database, then it will include bibliographic, chemical, 
# crystal, experimental, refinement or atomic coordinate data resulting 
# from the CCDC's data processing and validation procedures.
#
#######################################################################

data_ELENAL
_symmetry_cell_setting           orthorhombic
_symmetry_space_group_name_H-M   'P 21 21 2'
_symmetry_Int_Tables_number      18
_space_group_name_Hall           'P 2 2ab'
loop_
_symmetry_equiv_pos_site_id
_symmetry_equiv_pos_as_xyz
1 x,y,z
2 -x,-y,z
3 1/2-x,1/2+y,-z
4 1/2+x,1/2-y,-z
_cell_length_a                   13.402(3)
_cell_length_b                   18.330(4)
_cell_length_c                   8.248(3)
_cell_angle_alpha                90
_cell_angle_beta                 90
_cell_angle_gamma                90
_cell_volume                     2026.19
loop_
_atom_site_label
_atom_site_type_symbol
_atom_site_fract_x
_atom_site_fract_y
_atom_site_fract_z
Zn1 Zn 0.0000 0.0000 0.19474(8)
Zn2 Zn 0.0000 0.5000 0.21694(8)
O1 O 0.1004(4) 0.0828(2) 0.1299(5)
O2 O -0.0518(5) 0.0884(3) 0.0324(6)
O3 O 0.0989(4) 0.4149(2) 0.1548(6)
O4 O -0.0503(5) 0.4161(2) 0.0511(6)
N1 N -0.0814(4) 0.0421(3) 0.3930(5)
N2 N -0.0812(4) 0.4601(3) 0.4146(6)
C1 C -0.1647(6) 0.0773(4) 0.3830(10)
H1 H -0.1868 0.0917 0.2810
C2 C -0.2245(8) 0.0951(6) 0.5202(14)
H2 H -0.2829 0.1223 0.5122
C3 C -0.1879(9) 0.0681(6) 0.6702(12)
H3 H -0.2258 0.0752 0.7633
C4 C -0.1016(7) 0.0331(4) 0.6826(9)
H4 H -0.0776 0.0179 0.7829
C5 C -0.0472(5) 0.0196(3) 0.5386(6)
C6 C -0.0480(6) 0.4800(4) 0.5616(7)
C7 C -0.0997(9) 0.4640(8) 0.6992(10)
H5 H -0.0737 0.4783 0.7988
C8 C -0.1851(11) 0.4291(7) 0.6953(14)
H6 H -0.2216 0.4203 0.7892
C9 C -0.2189(8) 0.4056(6) 0.543(2)
H7 H -0.2774 0.3785 0.5371
C10 C -0.1671(7) 0.4217(4) 0.4019(13)
H8 H -0.1908 0.4066 0.3014
C11 C 0.0613(6) 0.3174(3) -0.0319(7)
C12 C -0.0268(6) 0.2944(4) -0.1579(10)
H9 H -0.0231 0.3216 -0.2585
H10 H -0.0926 0.2997 -0.1106
C13 C 0.0075(15) 0.1992(6) -0.1850(13)
H11 H -0.0507 0.1680 -0.1952
H12 H 0.0507 0.1923 -0.2780
C14 C 0.0586(7) 0.1873(3) -0.0370(7)
H13 H 0.1302 0.1870 -0.0614
C15 C 0.0389(9) 0.2513(4) 0.0686(12)
C16 C 0.0340(6) 0.1144(3) 0.0446(7)
C17 C 0.0353(7) 0.3874(3) 0.0645(8)
C18 C 0.1665(9) 0.3126(8) -0.0797(19)
H14 H 0.2079 0.3279 0.0089
H15 H 0.1781 0.3436 -0.1716
H16 H 0.1822 0.2631 -0.1077
C19 C -0.0193(9) 0.2488(4) 0.2061(7)
H17 H -0.0885 0.2502 0.1760
H18 H -0.0041 0.2899 0.2739
H19 H -0.0059 0.2045 0.2642
C20 C 0.1502(9) 0.2479(6) 0.1925(12)
H20 H 0.1486 0.2868 0.2704
H21 H 0.2080 0.2531 0.1248
H22 H 0.1531 0.2020 0.2482
Zn2_2 Zn 0.0000 -0.5000 0.21694(8)
O1A O -0.1004(4) -0.0828(2) 0.1299(5)
O2A O 0.0518(5) -0.0884(3) 0.0324(6)
O3A O -0.0989(4) -0.4149(2) 0.1548(6)
O3A_2 O -0.0989(4) 0.5851(2) 0.1548(6)
O4A O 0.0503(5) -0.4161(2) 0.0511(6)
O4A_2 O 0.0503(5) 0.5839(2) 0.0511(6)
N1A N 0.0814(4) -0.0421(3) 0.3930(5)
N2A N 0.0812(4) 0.5399(3) 0.4146(6)
C1A C 0.1647(6) -0.0773(4) 0.3830(10)
H1A H 0.1868 -0.0917 0.2810
C2A C 0.2245(8) -0.0951(6) 0.5202(14)
H2A H 0.2829 -0.1223 0.5122
C3A C 0.1879(9) -0.0681(6) 0.6702(12)
H3A H 0.2258 -0.0752 0.7633
C4A C 0.1016(7) -0.0331(4) 0.6826(9)
H4A H 0.0776 -0.0179 0.7829
C5A C 0.0472(5) -0.0196(3) 0.5386(6)
C6A C 0.0480(6) 0.5200(4) 0.5616(7)
C7A C 0.0997(9) 0.5360(8) 0.6992(10)
H5A H 0.0737 0.5217 0.7988
C8A C 0.1851(11) 0.5709(7) 0.6953(14)
H6A H 0.2216 0.5797 0.7892
C9A C 0.2189(8) 0.5944(6) 0.543(2)
H7A H 0.2774 0.6215 0.5371
C10A C 0.1671(7) 0.5783(4) 0.4019(13)
H8A H 0.1908 0.5934 0.3014
C11A C -0.0613(6) -0.3174(3) -0.0319(7)
C12A C 0.0268(6) -0.2944(4) -0.1579(10)
H9A H 0.0231 -0.3216 -0.2585
H10A H 0.0926 -0.2997 -0.1106
C13A C -0.0075(15) -0.1992(6) -0.1850(13)
H11A H 0.0507 -0.1680 -0.1952
H12A H -0.0507 -0.1923 -0.2780
C14A C -0.0586(7) -0.1873(3) -0.0370(7)
H13A H -0.1302 -0.1870 -0.0614
C15A C -0.0389(9) -0.2513(4) 0.0686(12)
C16A C -0.0340(6) -0.1144(3) 0.0446(7)
C17A C -0.0353(7) -0.3874(3) 0.0645(8)
C18A C -0.1665(9) -0.3126(8) -0.0797(19)
H14A H -0.2079 -0.3279 0.0089
H15A H -0.1781 -0.3436 -0.1716
H16A H -0.1822 -0.2631 -0.1077
C19A C 0.0193(9) -0.2488(4) 0.2061(7)
H17A H 0.0885 -0.2502 0.1760
H18A H 0.0041 -0.2899 0.2739
H19A H 0.0059 -0.2045 0.2642
C20A C -0.1502(9) -0.2479(6) 0.1925(12)
H20A H -0.1486 -0.2868 0.2704
H21A H -0.2080 -0.2531 0.1248
H22A H -0.1531 -0.2020 0.2482
loop_
_geom_bond_atom_site_label_1
_geom_bond_atom_site_label_2
_geom_bond_site_symmetry_1
_geom_bond_site_symmetry_2
Zn1 O1 1_555 1_555
Zn2 O3 1_555 1_555
O1 C16 1_555 1_555
O2 Zn1 1_555 1_555
O3 C17 1_555 1_555
O4 Zn2 1_555 1_555
N1 Zn1 1_555 1_555
N2 Zn2 1_555 1_555
C1 N1 1_555 1_555
H1 C1 1_555 1_555
C2 C1 1_555 1_555
H2 C2 1_555 1_555
C3 C2 1_555 1_555
H3 C3 1_555 1_555
C4 C3 1_555 1_555
H4 C4 1_555 1_555
C5 N1 1_555 1_555
C6 N2 1_555 1_555
C7 C6 1_555 1_555
H5 C7 1_555 1_555
C8 C7 1_555 1_555
H6 C8 1_555 1_555
C9 C8 1_555 1_555
H7 C9 1_555 1_555
C10 N2 1_555 1_555
H8 C10 1_555 1_555
C11 C12 1_555 1_555
C12 H9 1_555 1_555
H10 C12 1_555 1_555
C13 C12 1_555 1_555
H11 C13 1_555 1_555
H12 C13 1_555 1_555
C14 C13 1_555 1_555
H13 C14 1_555 1_555
C15 C11 1_555 1_555
C16 O2 1_555 1_555
C17 O4 1_555 1_555
C18 C11 1_555 1_555
H14 C18 1_555 1_555
H15 C18 1_555 1_555
H16 C18 1_555 1_555
C19 C15 1_555 1_555
H17 C19 1_555 1_555
H18 C19 1_555 1_555
H19 C19 1_555 1_555
C20 C15 1_555 1_555
H20 C20 1_555 1_555
H21 C20 1_555 1_555
H22 C20 1_555 1_555
Zn2_2 O3A 1_555 1_555
O1A Zn1 1_555 1_555
O2A Zn1 1_555 1_555
O3A C17A 1_555 1_555
O3A_2 Zn2 1_555 1_555
O4A Zn2_2 1_555 1_555
O4A_2 Zn2 1_555 1_555
N1A Zn1 1_555 1_555
N2A Zn2 1_555 1_555
C1A N1A 1_555 1_555
H1A C1A 1_555 1_555
C2A C1A 1_555 1_555
H2A C2A 1_555 1_555
C3A C2A 1_555 1_555
H3A C3A 1_555 1_555
C4A C3A 1_555 1_555
H4A C4A 1_555 1_555
C5A C5 1_555 1_555
C6A C6 1_555 1_555
C7A C6A 1_555 1_555
H5A C7A 1_555 1_555
C8A C7A 1_555 1_555
H6A C8A 1_555 1_555
C9A C8A 1_555 1_555
H7A C9A 1_555 1_555
C10A N2A 1_555 1_555
H8A C10A 1_555 1_555
C11A C12A 1_555 1_555
C12A H9A 1_555 1_555
H10A C12A 1_555 1_555
C13A C12A 1_555 1_555
H11A C13A 1_555 1_555
H12A C13A 1_555 1_555
C14A C13A 1_555 1_555
H13A C14A 1_555 1_555
C15A C11A 1_555 1_555
C16A O1A 1_555 1_555
C17A O4A 1_555 1_555
C18A C11A 1_555 1_555
H14A C18A 1_555 1_555
H15A C18A 1_555 1_555
H16A C18A 1_555 1_555
C19A C15A 1_555 1_555
H17A C19A 1_555 1_555
H18A C19A 1_555 1_555
H19A C19A 1_555 1_555
C20A C15A 1_555 1_555
H20A C20A 1_555 1_555
H21A C20A 1_555 1_555
H22A C20A 1_555 1_555
C4 C5 1_555 1_555
C9 C10 1_555 1_555
C11 C17 1_555 1_555
C14 C15 1_555 1_555
C14 C16 1_555 1_555
O2A C16A 1_555 1_555
N1A C5A 1_555 1_555
N2A C6A 1_555 1_555
C4A C5A 1_555 1_555
C9A C10A 1_555 1_555
C11A C17A 1_555 1_555
C14A C15A 1_555 1_555
C14A C16A 1_555 1_555

#END
