
#######################################################################
#
#                 Cambridge Crystallographic Data Centre
#                                CCDC 
#
#######################################################################
#
# If this CIF has been generated from an entry in the Cambridge 
# Structural Database, then it will include bibliographic, chemical, 
# crystal, experimental, refinement or atomic coordinate data resulting 
# from the CCDC's data processing and validation procedures.
#
#######################################################################

data_ELEQOB
_symmetry_cell_setting           monoclinic
_symmetry_space_group_name_H-M   'P 21/c'
_symmetry_Int_Tables_number      14
_space_group_name_Hall           '-P 2ybc'
loop_
_symmetry_equiv_pos_site_id
_symmetry_equiv_pos_as_xyz
1 x,y,z
2 x,1/2-y,1/2+z
3 -x,-y,-z
4 -x,1/2+y,1/2-z
_cell_length_a                   6.8270(5)
_cell_length_b                   14.1190(12)
_cell_length_c                   11.7080(11)
_cell_angle_alpha                90
_cell_angle_beta                 91.758(5)
_cell_angle_gamma                90
_cell_volume                     1128.01
loop_
_atom_site_label
_atom_site_type_symbol
_atom_site_fract_x
_atom_site_fract_y
_atom_site_fract_z
Cu1 Cu 0.50000 0.50000 0.00000
Cl1 Cl 0.34920(9) 0.21500(4) 0.22126(4)
Cl2 Cl 0.37163(8) 0.10063(3) 0.01895(5)
Cl3 Cl 0.05480(7) 0.23440(3) 0.03829(5)
N1 N 0.6895(2) 0.48182(11) 0.13316(13)
O1 O 0.37318(19) 0.37511(9) 0.03534(11)
O2 O 0.5858(2) 0.26737(10) -0.02915(14)
O3 O 1.2613(2) 0.57438(10) 0.11056(12)
C1 C 0.4373(3) 0.29292(13) 0.01854(15)
C2 C 0.3061(3) 0.21376(13) 0.07075(17)
C3 C 0.8672(3) 0.52340(13) 0.13383(15)
C4 C 1.0031(3) 0.51319(13) 0.22386(16)
C5 C 0.9558(3) 0.45468(15) 0.31413(17)
C6 C 0.7742(3) 0.41081(15) 0.31364(17)
C7 C 0.6447(3) 0.42703(13) 0.22309(16)
C8 C 1.1935(3) 0.56735(15) 0.22359(17)
H1 H 0.893(3) 0.5618(17) 0.068(2)
H2 H 1.045(4) 0.4454(19) 0.376(2)
H3 H 0.735(4) 0.371(2) 0.372(2)
H4 H 0.518(4) 0.3975(17) 0.220(2)
H5 H 1.286(4) 0.533(2) 0.272(2)
H6 H 1.178(4) 0.629(2) 0.254(2)
H7 H 1.293(4) 0.625(2) 0.096(2)
N1B N 0.3105(2) 0.51818(11) -0.13316(13)
O3B O -0.2613(2) 0.42562(10) -0.11056(12)
C3B C 0.1328(3) 0.47660(13) -0.13383(15)
C4B C -0.0031(3) 0.48681(13) -0.22386(16)
C5B C 0.0442(3) 0.54532(15) -0.31413(17)
C6B C 0.2258(3) 0.58919(15) -0.31364(17)
C7B C 0.3553(3) 0.57297(13) -0.22309(16)
C8B C -0.1935(3) 0.43265(15) -0.22359(17)
H1B H 0.107(3) 0.4382(17) -0.068(2)
H2B H -0.045(4) 0.5546(19) -0.376(2)
H3B H 0.265(4) 0.629(2) -0.372(2)
H4B H 0.482(4) 0.6025(17) -0.220(2)
H5B H -0.286(4) 0.467(2) -0.272(2)
H6B H -0.178(4) 0.371(2) -0.254(2)
H7B H -0.293(4) 0.375(2) -0.096(2)
Cl1B Cl 0.65080(9) 0.78500(4) -0.22126(4)
Cl2B Cl 0.62837(8) 0.89937(3) -0.01895(5)
Cl3B Cl 0.94520(7) 0.76560(3) -0.03829(5)
O1B O 0.62682(19) 0.62489(9) -0.03534(11)
O2B O 0.4142(2) 0.73263(10) 0.02915(14)
C1B C 0.5627(3) 0.70708(13) -0.01854(15)
C2B C 0.6939(3) 0.78624(13) -0.07075(17)
O3_2 O 0.2613(2) 0.57438(10) 0.11056(12)
O3B_2 O 0.7387(2) 0.42562(10) -0.11056(12)
Cu1_2 Cu 1.50000 0.50000 0.00000
Cu1_3 Cu -0.50000 0.50000 0.00000
H7_2 H 0.293(4) 0.625(2) 0.096(2)
H7B_2 H 0.707(4) 0.375(2) -0.096(2)
loop_
_geom_bond_atom_site_label_1
_geom_bond_atom_site_label_2
_geom_bond_site_symmetry_1
_geom_bond_site_symmetry_2
Cu1 N1 1_555 1_555
Cl1 C2 1_555 1_555
Cl2 C2 1_555 1_555
Cl3 C2 1_555 1_555
N1 C3 1_555 1_555
O1 Cu1 1_555 1_555
O2 C1 1_555 1_555
O3 C8 1_555 1_555
C1 O1 1_555 1_555
C2 C1 1_555 1_555
C3 C4 1_555 1_555
C4 C5 1_555 1_555
C5 C6 1_555 1_555
C6 C7 1_555 1_555
C7 N1 1_555 1_555
C8 C4 1_555 1_555
H1 C3 1_555 1_555
H2 C5 1_555 1_555
H3 C6 1_555 1_555
H4 C7 1_555 1_555
H5 C8 1_555 1_555
H6 C8 1_555 1_555
H7 O3 1_555 1_555
N1B Cu1 1_555 1_555
O3B C8B 1_555 1_555
C3B N1B 1_555 1_555
C4B C3B 1_555 1_555
C5B C4B 1_555 1_555
C6B C5B 1_555 1_555
C7B N1B 1_555 1_555
C8B C4B 1_555 1_555
H1B C3B 1_555 1_555
H2B C5B 1_555 1_555
H3B C6B 1_555 1_555
H4B C7B 1_555 1_555
H5B C8B 1_555 1_555
H6B C8B 1_555 1_555
H7B O3B 1_555 1_555
Cl1B C2B 1_555 1_555
Cl2B C2B 1_555 1_555
Cl3B C2B 1_555 1_555
O1B Cu1 1_555 1_555
O2B C1B 1_555 1_555
C1B O1B 1_555 1_555
C2B C1B 1_555 1_555
O3_2 Cu1 1_555 1_555
O3B_2 Cu1 1_555 1_555
Cu1_2 O3 1_555 1_555
Cu1_3 O3B 1_555 1_555
H7_2 O3_2 1_555 1_555
H7B_2 O3B_2 1_555 1_555
C6B C7B 1_555 1_555

#END
