
#######################################################################
#
#                 Cambridge Crystallographic Data Centre
#                                CCDC 
#
#######################################################################
#
# If this CIF has been generated from an entry in the Cambridge 
# Structural Database, then it will include bibliographic, chemical, 
# crystal, experimental, refinement or atomic coordinate data resulting 
# from the CCDC's data processing and validation procedures.
#
#######################################################################

data_ELEQUH
_symmetry_cell_setting           triclinic
_symmetry_space_group_name_H-M   'P -1'
_symmetry_Int_Tables_number      2
_space_group_name_Hall           '-P 1'
loop_
_symmetry_equiv_pos_site_id
_symmetry_equiv_pos_as_xyz
1 x,y,z
2 -x,-y,-z
_cell_length_a                   9.2032(10)
_cell_length_b                   9.3709(11)
_cell_length_c                   12.0704(14)
_cell_angle_alpha                83.024(2)
_cell_angle_beta                 83.501(2)
_cell_angle_gamma                87.392(2)
_cell_volume                     1026.1
loop_
_atom_site_label
_atom_site_type_symbol
_atom_site_fract_x
_atom_site_fract_y
_atom_site_fract_z
Cu1 Cu 0.50000 0.50000 0.00000
C1 C 0.6601(4) 0.4998(4) -0.2807(3)
Cu2 Cu 0.50000 0.00000 0.50000
O1 O 0.2053(3) 0.7053(3) 0.0612(2)
O2 O 0.3275(2) 0.5845(2) -0.07199(18)
O3 O 0.2904(3) 0.1693(3) 0.6757(2)
C2 C 0.5619(3) 0.7155(3) -0.3917(2)
O4 O 0.5950(3) 0.4191(3) -0.1826(2)
Cl1 Cl 0.15928(17) 0.84174(13) -0.20782(11)
C3 C 0.2221(3) 0.6591(3) -0.0310(3)
N1 N 0.4050(3) 0.3067(3) 0.0221(2)
C4 C 0.5432(3) 0.5749(3) -0.3452(2)
C5 C 0.4206(3) 0.2085(3) 0.1115(2)
O5 O 0.4714(3) 0.0007(3) 0.2965(2)
N2 N 0.4656(3) 0.7910(3) -0.4530(2)
C6 C 0.2309(3) 0.1191(3) 0.6040(3)
O6 O 0.2866(2) 0.0401(2) 0.53089(19)
C7 C 0.0982(4) 0.7012(4) -0.1044(3)
C8 C 0.3212(4) 0.2751(4) -0.0554(3)
C9 C 0.3498(3) 0.0780(3) 0.1286(3)
C10 C 0.3601(5) -0.0281(4) 0.2322(4)
C11 C 0.4164(4) 0.5086(3) -0.3618(3)
Cl2 Cl -0.01974(10) 0.23129(12) 0.71147(10)
C12 C 0.3444(3) 0.7258(3) -0.4697(3)
C13 C 0.0666(3) 0.1509(4) 0.5962(3)
Cl3 Cl 0.04419(12) 0.25882(18) 0.46790(11)
Cl4 Cl 0.04168(13) 0.55633(12) -0.16676(10)
C14 C 0.2497(4) 0.1476(4) -0.0453(3)
C15 C 0.3163(4) 0.5856(4) -0.4249(3)
C16 C 0.2624(4) 0.0485(4) 0.0475(3)
H1 H 0.731(5) 0.578(5) -0.258(4)
H2 H 0.643(4) 0.762(4) -0.381(3)
H3 H 0.714(4) 0.434(4) -0.326(3)
H4 H 0.656(6) 0.371(5) -0.151(4)
H5 H 0.482(4) 0.235(4) 0.165(3)
H6 H 0.543(6) -0.061(6) 0.288(4)
H7 H 0.315(4) 0.343(4) -0.117(3)
H8 H 0.018(6) 0.738(6) -0.061(4)
H9 H 0.377(7) -0.118(7) 0.214(5)
H10 H 0.398(4) 0.424(4) -0.332(3)
H11 H 0.266(7) -0.025(7) 0.282(5)
H12 H 0.279(4) 0.780(4) -0.512(3)
H13 H 0.009(5) 0.065(5) 0.600(4)
H14 H 0.197(5) 0.135(5) -0.098(4)
H15 H 0.214(4) -0.038(4) 0.056(3)
H16 H 0.233(5) 0.541(4) -0.437(3)
O1A O 0.7947(3) 0.2947(3) -0.0612(2)
O2A O 0.6725(2) 0.4155(2) 0.07199(18)
Cl1A Cl 0.84072(17) 0.15826(13) 0.20782(11)
C3A C 0.7779(3) 0.3409(3) 0.0310(3)
C7A C 0.9018(4) 0.2988(4) 0.1044(3)
Cl4A Cl 0.95832(13) 0.44367(12) 0.16676(10)
H8A H 0.982(6) 0.262(6) 0.061(4)
C1A C 0.3399(4) 0.5002(4) 0.2807(3)
C2A C 0.4381(3) 0.2845(3) 0.3917(2)
O4A O 0.4050(3) 0.5809(3) 0.1826(2)
C4A C 0.4568(3) 0.4251(3) 0.3452(2)
N2A N 0.5344(3) 0.2090(3) 0.4530(2)
C11A C 0.5836(4) 0.4914(3) 0.3618(3)
C12A C 0.6556(3) 0.2742(3) 0.4697(3)
C15A C 0.6837(4) 0.4144(4) 0.4249(3)
H1A H 0.269(5) 0.422(5) 0.258(4)
H2A H 0.357(4) 0.238(4) 0.381(3)
H3A H 0.286(4) 0.566(4) 0.326(3)
H4A H 0.344(6) 0.629(5) 0.151(4)
H10A H 0.602(4) 0.576(4) 0.332(3)
H12A H 0.721(4) 0.220(4) 0.512(3)
H16A H 0.767(5) 0.459(4) 0.437(3)
N1A N 0.5950(3) 0.6933(3) -0.0221(2)
C5A C 0.5794(3) 0.7915(3) -0.1115(2)
O5A O 0.5286(3) 0.9993(3) -0.2965(2)
C8A C 0.6788(4) 0.7249(4) 0.0554(3)
C9A C 0.6502(3) 0.9220(3) -0.1286(3)
C10A C 0.6399(5) 1.0281(4) -0.2322(4)
C14A C 0.7503(4) 0.8524(4) 0.0453(3)
C16A C 0.7376(4) 0.9515(4) -0.0475(3)
H5A H 0.518(4) 0.765(4) -0.165(3)
H6A H 0.457(6) 1.061(6) -0.288(4)
H7A H 0.685(4) 0.657(4) 0.117(3)
H9A H 0.623(7) 1.118(7) -0.214(5)
H11A H 0.734(7) 1.025(7) -0.282(5)
H14A H 0.803(5) 0.865(5) 0.098(4)
H15A H 0.786(4) 1.038(4) -0.056(3)
O3A O 0.7096(3) -0.1693(3) 0.3243(2)
C6A C 0.7691(3) -0.1191(3) 0.3960(3)
O6A O 0.7134(2) -0.0401(2) 0.46911(19)
Cl2A Cl 1.01974(10) -0.23129(12) 0.28853(10)
C13A C 0.9334(3) -0.1509(4) 0.4038(3)
Cl3A Cl 0.95581(12) -0.25882(18) 0.53210(11)
H13A H 0.991(5) -0.065(5) 0.400(4)
O5A_2 O 0.5286(3) -0.0007(3) 0.7035(2)
N2_2 N 0.4656(3) -0.2090(3) 0.5470(2)
Cu2_2 Cu 0.50000 1.00000 -0.50000
H6A_2 H 0.457(6) 0.061(6) 0.712(4)
loop_
_geom_bond_atom_site_label_1
_geom_bond_atom_site_label_2
_geom_bond_site_symmetry_1
_geom_bond_site_symmetry_2
Cu1 O2 1_555 1_555
C1 O4 1_555 1_555
Cu2 O5 1_555 1_555
O1 C3 1_555 1_555
O2 C3 1_555 1_555
O3 C6 1_555 1_555
C2 C4 1_555 1_555
O4 Cu1 1_555 1_555
Cl1 C7 1_555 1_555
C3 C7 1_555 1_555
N1 Cu1 1_555 1_555
C4 C1 1_555 1_555
C5 N1 1_555 1_555
O5 C10 1_555 1_555
N2 C2 1_555 1_555
C6 O6 1_555 1_555
O6 Cu2 1_555 1_555
C7 Cl4 1_555 1_555
C8 N1 1_555 1_555
C9 C5 1_555 1_555
C10 C9 1_555 1_555
C11 C4 1_555 1_555
Cl2 C13 1_555 1_555
C12 N2 1_555 1_555
C13 C6 1_555 1_555
Cl3 C13 1_555 1_555
C14 C8 1_555 1_555
C15 C11 1_555 1_555
C16 C9 1_555 1_555
H1 C1 1_555 1_555
H2 C2 1_555 1_555
H3 C1 1_555 1_555
H4 O4 1_555 1_555
H5 C5 1_555 1_555
H6 O5 1_555 1_555
H7 C8 1_555 1_555
H8 C7 1_555 1_555
H9 C10 1_555 1_555
H10 C11 1_555 1_555
H11 C10 1_555 1_555
H12 C12 1_555 1_555
H13 C13 1_555 1_555
H14 C14 1_555 1_555
H15 C16 1_555 1_555
H16 C15 1_555 1_555
O1A C3A 1_555 1_555
O2A Cu1 1_555 1_555
Cl1A C7A 1_555 1_555
C3A O2A 1_555 1_555
C7A C3A 1_555 1_555
Cl4A C7A 1_555 1_555
H8A C7A 1_555 1_555
C1A O4A 1_555 1_555
C2A C4A 1_555 1_555
O4A Cu1 1_555 1_555
C4A C1A 1_555 1_555
N2A Cu2 1_555 1_555
C11A C4A 1_555 1_555
C12A N2A 1_555 1_555
C15A C11A 1_555 1_555
H1A C1A 1_555 1_555
H2A C2A 1_555 1_555
H3A C1A 1_555 1_555
H4A O4A 1_555 1_555
H10A C11A 1_555 1_555
H12A C12A 1_555 1_555
H16A C15A 1_555 1_555
N1A Cu1 1_555 1_555
C5A N1A 1_555 1_555
O5A C10A 1_555 1_555
C8A N1A 1_555 1_555
C9A C5A 1_555 1_555
C10A C9A 1_555 1_555
C14A C8A 1_555 1_555
C16A C9A 1_555 1_555
H5A C5A 1_555 1_555
H6A O5A 1_555 1_555
H7A C8A 1_555 1_555
H9A C10A 1_555 1_555
H11A C10A 1_555 1_555
H14A C14A 1_555 1_555
H15A C16A 1_555 1_555
O3A C6A 1_555 1_555
C6A O6A 1_555 1_555
O6A Cu2 1_555 1_555
Cl2A C13A 1_555 1_555
C13A C6A 1_555 1_555
Cl3A C13A 1_555 1_555
H13A C13A 1_555 1_555
O5A_2 Cu2 1_555 1_555
N2_2 Cu2 1_555 1_555
Cu2_2 N2 1_555 1_555
H6A_2 O5A_2 1_555 1_555
C12 C15 1_555 1_555
C14 C16 1_555 1_555
C2A N2A 1_555 1_555
C12A C15A 1_555 1_555
O5A Cu2_2 1_555 1_555
C14A C16A 1_555 1_555

#END
