
#######################################################################
#
#                 Cambridge Crystallographic Data Centre
#                                CCDC 
#
#######################################################################
#
# If this CIF has been generated from an entry in the Cambridge 
# Structural Database, then it will include bibliographic, chemical, 
# crystal, experimental, refinement or atomic coordinate data resulting 
# from the CCDC's data processing and validation procedures.
#
#######################################################################

data_ELERUI
_symmetry_cell_setting           monoclinic
_symmetry_space_group_name_H-M   'P 21/c'
_symmetry_Int_Tables_number      14
_space_group_name_Hall           '-P 2ybc'
loop_
_symmetry_equiv_pos_site_id
_symmetry_equiv_pos_as_xyz
1 x,y,z
2 x,1/2-y,1/2+z
3 -x,-y,-z
4 -x,1/2+y,1/2-z
_cell_length_a                   15.9450(10)
_cell_length_b                   15.4880(10)
_cell_length_c                   17.3420(10)
_cell_angle_alpha                90.00
_cell_angle_beta                 98.210(10)
_cell_angle_gamma                90.00
_cell_volume                     4238.82
loop_
_atom_site_label
_atom_site_type_symbol
_atom_site_fract_x
_atom_site_fract_y
_atom_site_fract_z
Cu1 Cu 0.16590(5) 0.73669(5) 0.01115(5)
Cu2 Cu 0.27682(5) 0.59324(5) 0.06855(5)
O1 O 0.1681(3) 0.7596(3) -0.1249(3)
H1 H 0.1842 0.7047 -0.1440
O2 O 0.0953(3) 0.7240(3) 0.1280(3)
H2 H 0.1235 0.6804 0.1564
O3 O 0.1760(3) 0.6134(3) -0.0055(3)
O4 O 0.4054(3) 0.5824(3) 0.0097(3)
H3 H 0.4172 0.6348 -0.0139
O5 O 0.1943(3) 0.5940(3) 0.1964(3)
H4 H 0.1480 0.5594 0.2086
O6 O 0.2820(3) 0.7178(3) 0.0614(3)
N1 N 0.0394(4) 0.7195(3) -0.0351(4)
N2 N 0.3691(4) 0.6066(4) 0.1635(3)
N3 N 0.1728(3) 0.8656(3) 0.0259(3)
N4 N 0.2687(3) 1.4644(3) 0.0584(3)
C1 C 0.0212(5) 0.7770(5) -0.1052(4)
H5 H 0.0228 0.8380 -0.0879
H6 H -0.0367 0.7649 -0.1320
C2 C 0.0834(5) 0.7649(5) -0.1620(4)
H7 H 0.0690 0.7115 -0.1923
H8 H 0.0781 0.8139 -0.1990
C3 C -0.0155(4) 0.7445(5) 0.0233(5)
H9 H -0.0747 0.7284 0.0034
H10 H -0.0136 0.8081 0.0295
C4 C 0.0087(5) 0.7039(5) 0.1014(4)
H11 H -0.0277 0.7265 0.1386
H12 H 0.0009 0.6406 0.0975
C5 C 0.0298(5) 0.6263(4) -0.0575(5)
H13 H 0.0351 0.6199 -0.1134
H14 H -0.0273 0.6062 -0.0498
C6 C 0.0966(4) 0.5702(4) -0.0091(4)
H15 H 0.0820 0.5621 0.0440
H16 H 0.0995 0.5128 -0.0336
C7 C 0.4440(4) 0.5555(5) 0.1470(4)
H17 H 0.4909 0.5639 0.1903
H18 H 0.4289 0.4934 0.1455
C8 C 0.4748(4) 0.5788(5) 0.0723(4)
H19 H 0.5034 0.6356 0.0779
H20 H 0.5165 0.5354 0.0602
C9 C 0.3437(5) 0.5726(5) 0.2362(4)
H21 H 0.3898 0.5847 0.2794
H22 H 0.3382 0.5091 0.2314
C10 C 0.2630(5) 0.6077(5) 0.2580(4)
H23 H 0.2503 0.5788 0.3060
H24 H 0.2694 0.6703 0.2689
C11 C 0.3902(5) 0.7013(4) 0.1691(4)
H25 H 0.4388 0.7133 0.1411
H26 H 0.4065 0.7175 0.2245
C12 C 0.3138(4) 0.7546(4) 0.1337(4)
H27 H 0.2698 0.7541 0.1686
H28 H 0.3310 0.8152 0.1266
C13 C 0.2207(5) 0.9106(4) -0.0180(4)
H29 H 0.2454 0.8804 -0.0568
C14 C 0.2359(5) 0.9971(4) -0.0098(4)
H30 H 0.2721 1.0252 -0.0409
C15 C 0.1978(4) 1.0439(4) 0.0446(4)
C16 C 0.1474(5) 0.9978(4) 0.0896(4)
H31 H 0.1205 1.0269 0.1277
C17 C 0.1367(5) 0.9101(4) 0.0789(4)
H32 H 0.1023 0.8799 0.1104
C18 C 0.2080(4) 1.1371(4) 0.0574(4)
H33 H 0.1845 1.1606 0.1001
C19 C 0.2468(4) 1.1921(4) 0.0154(4)
H34 H 0.2709 1.1698 -0.0275
C20 C 0.2547(4) 1.2853(4) 0.0312(4)
C21 C 0.2830(4) 1.3414(4) -0.0227(4)
H35 H 0.2974 1.3197 -0.0703
C22 C 0.2899(5) 1.4286(4) -0.0064(4)
H36 H 0.3109 1.4652 -0.0432
C23 C 0.2396(5) 1.4110(4) 0.1094(4)
H37 H 0.2231 1.4349 0.1554
C24 C 0.2326(4) 1.3233(4) 0.0984(4)
H38 H 0.2126 1.2882 0.1368
N4_2 N 0.2687(3) 0.4644(3) 0.0584(3)
Cu2_2 Cu 0.27682(5) 1.59324(5) 0.06855(5)
N5 N 0.7680(5) 0.3902(4) 0.1773(4)
N6 N 0.4535(4) 0.7723(4) 0.4423(4)
C25 C 0.8011(6) 0.4695(6) 0.1867(5)
H39 H 0.8545 0.4800 0.1703
C26 C 0.7612(5) 0.5372(5) 0.2193(5)
H40 H 0.7860 0.5931 0.2225
C27 C 0.6852(5) 0.5230(5) 0.2471(4)
C28 C 0.6499(5) 0.4402(5) 0.2359(4)
H41 H 0.5968 0.4272 0.2520
C29 C 0.6938(5) 0.3780(5) 0.2011(4)
H42 H 0.6689 0.3224 0.1936
C30 C 0.6442(5) 0.5908(5) 0.2866(4)
H43 H 0.6586 0.6488 0.2762
C31 C 0.5890(5) 0.5788(5) 0.3355(4)
H44 H 0.5766 0.5207 0.3473
C32 C 0.5448(4) 0.6459(5) 0.3735(4)
C33 C 0.5534(5) 0.7336(5) 0.3573(5)
H45 H 0.5903 0.7522 0.3222
C34 C 0.5068(5) 0.7927(5) 0.3936(5)
H46 H 0.5137 0.8521 0.3827
C35 C 0.4459(5) 0.6896(5) 0.4582(5)
H47 H 0.4082 0.6735 0.4935
C36 C 0.4905(5) 0.6245(5) 0.4257(4)
H48 H 0.4834 0.5659 0.4394
Cl1 Cl 0.4065(3) 0.3560(2) 0.3409(2)
O7 O 0.4838(6) 0.3748(5) 0.3156(7)
O8 O 0.3433(6) 0.3494(6) 0.2727(5)
O9 O 0.3832(6) 0.4229(5) 0.3894(5)
O10 O 0.4099(5) 0.2749(5) 0.3787(6)
Cl3 Cl 0.0560(3) 0.4621(3) 0.2875(3)
O15 O 0.0294(10) 0.5077(9) 0.2200(8)
O16 O 0.0405(9) 0.5077(8) 0.3523(8)
O17 O 0.0158(7) 0.3807(6) 0.2857(6)
O18 O 0.1465(7) 0.4550(7) 0.2911(9)
O23 O 0.1864(6) 0.2542(4) 0.2752(5)
H49 H 0.2213 0.2914 0.2545
H50 H 0.133(2) 0.288(5) 0.263(7)
Cl2? Cl 0.4119(15) 0.3564(15) 0.3315(14)
O11? O 0.424(2) 0.377(2) 0.2543(18)
O12? O 0.393(2) 0.267(2) 0.336(2)
O13? O 0.343(2) 0.405(2) 0.352(2)
O14? O 0.487(2) 0.376(2) 0.3827(19)
Cl4? Cl 0.0600(14) 0.4453(13) 0.2919(12)
O19? O 0.0980(19) 0.445(2) 0.2241(16)
O20? O -0.0282(16) 0.4406(19) 0.2722(16)
O21? O 0.0885(18) 0.3743(16) 0.3389(16)
O22? O 0.083(2) 0.5209(17) 0.3344(18)
loop_
_geom_bond_atom_site_label_1
_geom_bond_atom_site_label_2
_geom_bond_site_symmetry_1
_geom_bond_site_symmetry_2
Cu1 O1 1_555 1_555
Cu2 O3 1_555 1_555
O1 H1 1_555 1_555
O2 Cu1 1_555 1_555
H2 O2 1_555 1_555
O3 Cu1 1_555 1_555
O4 Cu2 1_555 1_555
H3 O4 1_555 1_555
O5 Cu2 1_555 1_555
H4 O5 1_555 1_555
O6 Cu1 1_555 1_555
N1 Cu1 1_555 1_555
N2 Cu2 1_555 1_555
N3 Cu1 1_555 1_555
N4 C22 1_555 1_555
C1 N1 1_555 1_555
H5 C1 1_555 1_555
H6 C1 1_555 1_555
C2 O1 1_555 1_555
H7 C2 1_555 1_555
H8 C2 1_555 1_555
C3 N1 1_555 1_555
H9 C3 1_555 1_555
H10 C3 1_555 1_555
C4 O2 1_555 1_555
H11 C4 1_555 1_555
H12 C4 1_555 1_555
C5 N1 1_555 1_555
H13 C5 1_555 1_555
H14 C5 1_555 1_555
C6 O3 1_555 1_555
H15 C6 1_555 1_555
H16 C6 1_555 1_555
C7 N2 1_555 1_555
H17 C7 1_555 1_555
H18 C7 1_555 1_555
C8 O4 1_555 1_555
H19 C8 1_555 1_555
H20 C8 1_555 1_555
C9 N2 1_555 1_555
H21 C9 1_555 1_555
H22 C9 1_555 1_555
C10 O5 1_555 1_555
H23 C10 1_555 1_555
H24 C10 1_555 1_555
C11 N2 1_555 1_555
H25 C11 1_555 1_555
H26 C11 1_555 1_555
C12 O6 1_555 1_555
H27 C12 1_555 1_555
H28 C12 1_555 1_555
C13 N3 1_555 1_555
H29 C13 1_555 1_555
C14 C13 1_555 1_555
H30 C14 1_555 1_555
C15 C14 1_555 1_555
C16 C15 1_555 1_555
H31 C16 1_555 1_555
C17 N3 1_555 1_555
H32 C17 1_555 1_555
C18 C15 1_555 1_555
H33 C18 1_555 1_555
C19 C18 1_555 1_555
H34 C19 1_555 1_555
C20 C19 1_555 1_555
C21 C20 1_555 1_555
H35 C21 1_555 1_555
C22 C21 1_555 1_555
H36 C22 1_555 1_555
C23 N4 1_555 1_555
H37 C23 1_555 1_555
C24 C20 1_555 1_555
H38 C24 1_555 1_555
N5 C25 1_555 1_555
N6 C34 1_555 1_555
C25 H39 1_555 1_555
C26 C25 1_555 1_555
H40 C26 1_555 1_555
C27 C26 1_555 1_555
C28 C27 1_555 1_555
H41 C28 1_555 1_555
C29 N5 1_555 1_555
H42 C29 1_555 1_555
C30 C27 1_555 1_555
H43 C30 1_555 1_555
C31 C30 1_555 1_555
H44 C31 1_555 1_555
C32 C31 1_555 1_555
C33 C32 1_555 1_555
H45 C33 1_555 1_555
C34 C33 1_555 1_555
H46 C34 1_555 1_555
C35 N6 1_555 1_555
H47 C35 1_555 1_555
C36 C32 1_555 1_555
H48 C36 1_555 1_555
Cl1 O7 1_555 1_555
O8 Cl1 1_555 1_555
O9 Cl1 1_555 1_555
O10 Cl1 1_555 1_555
Cl3 O15 1_555 1_555
O16 Cl3 1_555 1_555
O17 Cl3 1_555 1_555
O18 Cl3 1_555 1_555
O23 H49 1_555 1_555
H50 O23 1_555 1_555
N4_2 Cu2 1_555 1_555
Cu2_2 N4 1_555 1_555
Cu2 O6 1_555 1_555
C1 C2 1_555 1_555
C3 C4 1_555 1_555
C5 C6 1_555 1_555
C7 C8 1_555 1_555
C9 C10 1_555 1_555
C11 C12 1_555 1_555
C16 C17 1_555 1_555
C23 C24 1_555 1_555
C28 C29 1_555 1_555
C35 C36 1_555 1_555

#END
