
#######################################################################
#
#                 Cambridge Crystallographic Data Centre
#                                CCDC 
#
#######################################################################
#
# If this CIF has been generated from an entry in the Cambridge 
# Structural Database, then it will include bibliographic, chemical, 
# crystal, experimental, refinement or atomic coordinate data resulting 
# from the CCDC's data processing and validation procedures.
#
#######################################################################

data_ELEVOH
_symmetry_cell_setting           monoclinic
_symmetry_space_group_name_H-M   'P 21/c'
_symmetry_Int_Tables_number      14
_space_group_name_Hall           '-P 2ybc'
loop_
_symmetry_equiv_pos_site_id
_symmetry_equiv_pos_as_xyz
1 x,y,z
2 -x,1/2+y,1/2-z
3 -x,-y,-z
4 x,1/2-y,1/2+z
_cell_length_a                   8.6622(5)
_cell_length_b                   24.6359(13)
_cell_length_c                   10.9851(5)
_cell_angle_alpha                90
_cell_angle_beta                 115.560(3)
_cell_angle_gamma                90
_cell_volume                     2114.81
loop_
_atom_site_label
_atom_site_type_symbol
_atom_site_fract_x
_atom_site_fract_y
_atom_site_fract_z
Zn1 Zn 0.80110(3) 0.867178(8) 0.76956(2)
N1 N 0.95699(19) 0.84204(6) 0.66836(15)
N2 N 0.77467(18) 0.78299(6) 0.75389(14)
N3 N 0.6146(2) 0.84802(6) 0.84695(16)
N4 N 0.7640(3) 0.49666(8) 0.7624(2)
O1 O 0.99583(18) 0.88157(5) 0.94748(14)
O2 O 1.19901(19) 0.92346(6) 1.11725(15)
O3 O 0.70559(17) 0.93638(5) 0.67503(14)
O4 O 0.5240(2) 0.88032(5) 0.52581(15)
C1 C 1.0489(3) 0.87544(8) 0.6290(2)
H1 H 1.0412 0.9126 0.6396
C2 C 1.1543(3) 0.85691(9) 0.5736(2)
H2 H 1.2180 0.8811 0.5485
C3 C 1.1634(3) 0.80215(9) 0.5560(2)
H3 H 1.2320 0.7887 0.5170
C4 C 1.0703(3) 0.76691(8) 0.5964(2)
H4 H 1.0758 0.7296 0.5856
C5 C 0.9686(2) 0.78834(7) 0.65344(17)
C6 C 0.8669(2) 0.75437(7) 0.70414(17)
C7 C 0.8640(2) 0.69826(7) 0.70321(18)
H5 H 0.9271 0.6789 0.6675
C8 C 0.7663(2) 0.67097(7) 0.75603(17)
C9 C 0.6703(2) 0.70155(7) 0.80582(19)
H6 H 0.6026 0.6843 0.8407
C10 C 0.6766(2) 0.75748(7) 0.80290(18)
C11 C 0.5810(2) 0.79513(7) 0.85252(18)
C12 C 0.4640(3) 0.77776(8) 0.8988(2)
H7 H 0.4430 0.7409 0.9032
C13 C 0.3786(3) 0.81632(9) 0.9386(2)
H8 H 0.2992 0.8056 0.9700
C14 C 0.4115(3) 0.87025(8) 0.9316(2)
H9 H 0.3544 0.8966 0.9570
C15 C 0.5306(3) 0.88452(8) 0.8863(2)
H10 H 0.5542 0.9212 0.8827
C16 C 0.6271(3) 0.52566(9) 0.7466(3)
H11 H 0.5286 0.5070 0.7355
C17 C 0.6213(3) 0.58187(8) 0.7454(2)
H12 H 0.5224 0.6000 0.7357
C18 C 0.7650(2) 0.61061(8) 0.75901(18)
C19 C 0.9087(3) 0.58106(8) 0.7746(2)
H13 H 1.0080 0.5987 0.7835
C20 C 0.9021(3) 0.52497(9) 0.7766(3)
H14 H 1.0001 0.5058 0.7887
C21 C 1.0621(2) 0.92406(8) 1.01472(19)
C22 C 0.9696(2) 0.97699(7) 0.96804(19)
H15 H 0.8657 0.9773 0.8914
C23 C 0.5750(2) 0.92685(7) 0.56534(19)
C24 C 0.4782(2) 0.97450(7) 0.48264(19)
H16 H 0.3822 0.9677 0.4024
Zn1B Zn 1.19890(3) 1.132822(8) 1.23044(2)
Zn1B_2 Zn 0.19890(3) 1.132822(8) 0.23044(2)
N1B N 1.04301(19) 1.15796(6) 1.33164(15)
N2B N 1.22533(18) 1.21701(6) 1.24611(14)
N3B N 1.3854(2) 1.15198(6) 1.15305(16)
N4B N 1.2360(3) 1.50334(8) 1.2376(2)
O1B O 1.00417(18) 1.11843(5) 1.05252(14)
O2B O 0.80099(19) 1.07654(6) 0.88275(15)
O3B O 0.29441(17) 1.06362(5) 0.32497(14)
O3B_2 O 1.29441(17) 1.06362(5) 1.32497(14)
O4B O 0.4760(2) 1.11968(5) 0.47419(15)
C1B C 0.9511(3) 1.12456(8) 1.3710(2)
H1B H 0.9588 1.0874 1.3604
C2B C 0.8457(3) 1.14309(9) 1.4264(2)
H2B H 0.7820 1.1189 1.4515
C3B C 0.8366(3) 1.19785(9) 1.4440(2)
H3B H 0.7680 1.2113 1.4830
C4B C 0.9297(3) 1.23309(8) 1.4036(2)
H4B H 0.9242 1.2704 1.4144
C5B C 1.0314(2) 1.21166(7) 1.34656(17)
C6B C 1.1331(2) 1.24563(7) 1.29586(17)
C7B C 1.1360(2) 1.30174(7) 1.29679(18)
H5B H 1.0729 1.3211 1.3325
C8B C 1.2337(2) 1.32903(7) 1.24397(17)
C9B C 1.3297(2) 1.29845(7) 1.19418(19)
H6B H 1.3974 1.3157 1.1593
C10B C 1.3234(2) 1.24252(7) 1.19710(18)
C11B C 1.4190(2) 1.20487(7) 1.14748(18)
C12B C 1.5360(3) 1.22224(8) 1.1012(2)
H7B H 1.5570 1.2591 1.0968
C13B C 1.6214(3) 1.18368(9) 1.0614(2)
H8B H 1.7008 1.1944 1.0300
C14B C 1.5885(3) 1.12975(8) 1.0684(2)
H9B H 1.6456 1.1034 1.0430
C15B C 1.4694(3) 1.11548(8) 1.1137(2)
H10B H 1.4458 1.0788 1.1173
C16B C 1.3729(3) 1.47434(9) 1.2534(3)
H11B H 1.4714 1.4930 1.2645
C17B C 1.3787(3) 1.41813(8) 1.2546(2)
H12B H 1.4776 1.4000 1.2643
C18B C 1.2350(2) 1.38939(8) 1.24099(18)
C19B C 1.0913(3) 1.41894(8) 1.2254(2)
H13B H 0.9920 1.4013 1.2165
C20B C 1.0979(3) 1.47503(9) 1.2234(3)
H14B H 0.9999 1.4942 1.2113
C21B C 0.9379(2) 1.07594(8) 0.98528(19)
C22B C 1.0304(2) 1.02301(7) 1.03196(19)
H15B H 1.1343 1.0227 1.1086
C23B C 0.4250(2) 1.07315(7) 0.43466(19)
C24B C 0.5218(2) 1.02550(7) 0.51736(19)
H16B H 0.6178 1.0323 0.5976
O5 O 0.7289(2) 0.16113(7) 0.7077(2)
H17 H 0.651(3) 0.1472(11) 0.640(2)
H18 H 0.754(4) 0.1402(10) 0.774(2)
loop_
_geom_bond_atom_site_label_1
_geom_bond_atom_site_label_2
_geom_bond_site_symmetry_1
_geom_bond_site_symmetry_2
Zn1 N1 1_555 1_555
N1 C1 1_555 1_555
N2 Zn1 1_555 1_555
N3 Zn1 1_555 1_555
N4 C16 1_555 1_555
O1 Zn1 1_555 1_555
O2 C21 1_555 1_555
O3 Zn1 1_555 1_555
O4 C23 1_555 1_555
O5 H17 1_555 1_555
C1 H1 1_555 1_555
C2 C1 1_555 1_555
H2 C2 1_555 1_555
C3 C2 1_555 1_555
H3 C3 1_555 1_555
C4 C3 1_555 1_555
H4 C4 1_555 1_555
C5 N1 1_555 1_555
C6 N2 1_555 1_555
C7 C6 1_555 1_555
H5 C7 1_555 1_555
C8 C7 1_555 1_555
C9 C8 1_555 1_555
H6 C9 1_555 1_555
C10 N2 1_555 1_555
C11 N3 1_555 1_555
C12 C11 1_555 1_555
H7 C12 1_555 1_555
C13 C12 1_555 1_555
H8 C13 1_555 1_555
C14 C13 1_555 1_555
H9 C14 1_555 1_555
C15 N3 1_555 1_555
H10 C15 1_555 1_555
C16 H11 1_555 1_555
C17 C16 1_555 1_555
H12 C17 1_555 1_555
C18 C8 1_555 1_555
C19 C18 1_555 1_555
H13 C19 1_555 1_555
C20 N4 1_555 1_555
H14 C20 1_555 1_555
C21 O1 1_555 1_555
C22 C21 1_555 1_555
H15 C22 1_555 1_555
C23 O3 1_555 1_555
C24 C23 1_555 1_555
H16 C24 1_555 1_555
H18 O5 1_555 1_555
Zn1B N1B 1_555 1_555
Zn1B_2 O3B 1_555 1_555
N1B C1B 1_555 1_555
N2B Zn1B 1_555 1_555
N3B Zn1B 1_555 1_555
N4B C16B 1_555 1_555
O1B Zn1B 1_555 1_555
O2B C21B 1_555 1_555
O3B C23B 1_555 1_555
O3B_2 Zn1B 1_555 1_555
O4B C23B 1_555 1_555
C1B H1B 1_555 1_555
C2B C1B 1_555 1_555
H2B C2B 1_555 1_555
C3B C2B 1_555 1_555
H3B C3B 1_555 1_555
C4B C3B 1_555 1_555
H4B C4B 1_555 1_555
C5B N1B 1_555 1_555
C6B N2B 1_555 1_555
C7B C6B 1_555 1_555
H5B C7B 1_555 1_555
C8B C7B 1_555 1_555
C9B C8B 1_555 1_555
H6B C9B 1_555 1_555
C10B N2B 1_555 1_555
C11B N3B 1_555 1_555
C12B C11B 1_555 1_555
H7B C12B 1_555 1_555
C13B C12B 1_555 1_555
H8B C13B 1_555 1_555
C14B C13B 1_555 1_555
H9B C14B 1_555 1_555
C15B N3B 1_555 1_555
H10B C15B 1_555 1_555
C16B H11B 1_555 1_555
C17B C16B 1_555 1_555
H12B C17B 1_555 1_555
C18B C8B 1_555 1_555
C19B C18B 1_555 1_555
H13B C19B 1_555 1_555
C20B N4B 1_555 1_555
H14B C20B 1_555 1_555
C21B O1B 1_555 1_555
C22B C22 1_555 1_555
H15B C22B 1_555 1_555
C23B C24B 1_555 1_555
C24B C24 1_555 1_555
H16B C24B 1_555 1_555
C4 C5 1_555 1_555
C5 C6 1_555 1_555
C9 C10 1_555 1_555
C10 C11 1_555 1_555
C14 C15 1_555 1_555
C17 C18 1_555 1_555
C19 C20 1_555 1_555
C4B C5B 1_555 1_555
C5B C6B 1_555 1_555
C9B C10B 1_555 1_555
C10B C11B 1_555 1_555
C14B C15B 1_555 1_555
C17B C18B 1_555 1_555
C19B C20B 1_555 1_555
C21B C22B 1_555 1_555

#END
