
#######################################################################
#
#                 Cambridge Crystallographic Data Centre
#                                CCDC 
#
#######################################################################
#
# If this CIF has been generated from an entry in the Cambridge 
# Structural Database, then it will include bibliographic, chemical, 
# crystal, experimental, refinement or atomic coordinate data resulting 
# from the CCDC's data processing and validation procedures.
#
#######################################################################

data_ELIMAO
_symmetry_cell_setting           monoclinic
_symmetry_space_group_name_H-M   'P 21/c'
_symmetry_Int_Tables_number      14
_space_group_name_Hall           '-P 2ybc'
loop_
_symmetry_equiv_pos_site_id
_symmetry_equiv_pos_as_xyz
1 x,y,z
2 -x,1/2+y,1/2-z
3 -x,-y,-z
4 x,1/2-y,1/2+z
_cell_length_a                   6.7883(4)
_cell_length_b                   10.9147(5)
_cell_length_c                   17.8102(8)
_cell_angle_alpha                90
_cell_angle_beta                 100.142(4)
_cell_angle_gamma                90
_cell_volume                     1298.98
loop_
_atom_site_label
_atom_site_type_symbol
_atom_site_fract_x
_atom_site_fract_y
_atom_site_fract_z
Mn1 Mn 0.33448(7) 0.85823(4) 0.20667(3)
P1 P 0.84602(11) 0.91473(8) 0.22217(5)
F1 F 0.3515(4) 0.71522(19) 0.26202(13)
F2 F 0.3603(4) 0.96141(19) 0.28780(11)
O1 O 0.6476(4) 0.8524(3) 0.20408(17)
O2 O 1.0072(4) 0.8452(2) 0.19292(15)
O3 O 0.8942(5) 0.9352(2) 0.31069(14)
H1 H 0.9713 0.9909 0.3197
O4 O 0.8453(5) 1.0458(2) 0.18591(16)
H2 H 0.7671 1.0908 0.2006
N1 N 0.2952(4) 0.9991(2) 0.13074(15)
N2 N 0.3065(4) 0.7646(2) 0.10608(15)
C1 C 0.2881(6) 1.1170(3) 0.1495(2)
H5 H 0.3011 1.1383 0.2007
C2 C 0.2620(7) 1.2085(3) 0.0950(2)
H6 H 0.2593 1.2903 0.1095
C3 C 0.2401(8) 1.1775(4) 0.0193(2)
H7 H 0.2226 1.2379 -0.0181
C4 C 0.2443(7) 1.0546(4) -0.0006(2)
H8 H 0.2282 1.0317 -0.0517
C5 C 0.2725(5) 0.9669(3) 0.05602(18)
C6 C 0.2791(5) 0.8341(3) 0.04241(19)
C7 C 0.2621(8) 0.7809(4) -0.0290(2)
H9 H 0.2445 0.8296 -0.0725
C8 C 0.2713(8) 0.6552(4) -0.0352(2)
H10 H 0.2590 0.6183 -0.0828
C9 C 0.2990(8) 0.5855(3) 0.0298(3)
H11 H 0.3044 0.5005 0.0266
C10 C 0.3189(6) 0.6428(3) 0.1004(2)
H12 H 0.3412 0.5956 0.1446
Mn1_2 Mn 1.33448(7) 0.85823(4) 0.20667(3)
O2_2 O 0.0072(4) 0.8452(2) 0.19292(15)
O5 O 0.1404(5) 1.1159(3) 0.36341(17)
H3 H 0.2328 1.0951 0.3440
H4 H 0.1045 1.1804 0.3445
loop_
_geom_bond_atom_site_label_1
_geom_bond_atom_site_label_2
_geom_bond_site_symmetry_1
_geom_bond_site_symmetry_2
Mn1 F1 1_555 1_555
P1 O1 1_555 1_555
F2 Mn1 1_555 1_555
O1 Mn1 1_555 1_555
O2 P1 1_555 1_555
O3 P1 1_555 1_555
H1 O3 1_555 1_555
O4 P1 1_555 1_555
H2 O4 1_555 1_555
O5 H3 1_555 1_555
H4 O5 1_555 1_555
N1 Mn1 1_555 1_555
N2 Mn1 1_555 1_555
C1 N1 1_555 1_555
H5 C1 1_555 1_555
C2 C1 1_555 1_555
H6 C2 1_555 1_555
C3 C2 1_555 1_555
H7 C3 1_555 1_555
C4 C3 1_555 1_555
H8 C4 1_555 1_555
C5 N1 1_555 1_555
C6 N2 1_555 1_555
C7 C6 1_555 1_555
H9 C7 1_555 1_555
C8 C7 1_555 1_555
H10 C8 1_555 1_555
C9 C8 1_555 1_555
H11 C9 1_555 1_555
C10 N2 1_555 1_555
H12 C10 1_555 1_555
Mn1_2 O2 1_555 1_555
O2_2 Mn1 1_555 1_555
C4 C5 1_555 1_555
C5 C6 1_555 1_555
C9 C10 1_555 1_555

#END
