
#######################################################################
#
#                 Cambridge Crystallographic Data Centre
#                                CCDC 
#
#######################################################################
#
# If this CIF has been generated from an entry in the Cambridge 
# Structural Database, then it will include bibliographic, chemical, 
# crystal, experimental, refinement or atomic coordinate data resulting 
# from the CCDC's data processing and validation procedures.
#
#######################################################################

data_ELIMOC
_symmetry_cell_setting           triclinic
_symmetry_space_group_name_H-M   'P -1'
_symmetry_Int_Tables_number      2
_space_group_name_Hall           '-P 1'
loop_
_symmetry_equiv_pos_site_id
_symmetry_equiv_pos_as_xyz
1 x,y,z
2 -x,-y,-z
_cell_length_a                   5.6745(19)
_cell_length_b                   8.090(3)
_cell_length_c                   11.221(4)
_cell_angle_alpha                107.876(6)
_cell_angle_beta                 98.695(4)
_cell_angle_gamma                96.049(7)
_cell_volume                     478.268
loop_
_atom_site_label
_atom_site_type_symbol
_atom_site_fract_x
_atom_site_fract_y
_atom_site_fract_z
Mn1 Mn 0.0000 0.0000 0.0000
O1 O 0.2295(3) -0.13455(19) 0.09996(13)
O2 O -0.0446(3) -0.2834(3) 0.1658(2)
C1 C 0.1667(4) -0.2304(3) 0.1644(2)
C2 C 0.3668(4) -0.2753(3) 0.2504(2)
H1 H 0.3119 -0.3864 0.2615
H2 H 0.5068 -0.2885 0.2104
C3 C 0.4370(4) -0.1334(3) 0.3791(2)
C4 C 0.2827(4) -0.1104(4) 0.4665(2)
H3 H 0.1349 -0.1845 0.4448
C5 C 0.6559(4) -0.0195(4) 0.4158(2)
H4 H 0.7632 -0.0311 0.3598
N1 N 0.0152(3) 0.2139(2) 0.19063(16)
C6 C -0.1555(4) 0.3146(3) 0.2112(2)
H5 H -0.2734 0.3083 0.1420
C7 C -0.1667(4) 0.4273(3) 0.3292(2)
H6 H -0.2903 0.4944 0.3380
C8 C 0.0050(4) 0.4415(3) 0.43508(18)
C9 C 0.1863(4) 0.3402(3) 0.4128(2)
H7 H 0.3091 0.3465 0.4799
C10 C 0.1850(4) 0.2305(3) 0.2918(2)
H8 H 0.3090 0.1642 0.2796
O3 O -0.3234(3) -0.1503(2) 0.02409(15)
H9 H -0.4377 -0.0911 0.0420
H10 H -0.2863 -0.2033 0.0777
Mn1_2 Mn 1.0000 0.0000 1.0000
Mn1_3 Mn 0.0000 1.0000 1.0000
O1A O 0.7705(3) 0.13455(19) 0.90004(13)
O1A_2 O -0.2295(3) 0.13455(19) -0.09996(13)
O2A O 1.0446(3) 0.2834(3) 0.8342(2)
C1A C 0.8333(4) 0.2304(3) 0.8356(2)
C2A C 0.6332(4) 0.2753(3) 0.7496(2)
H1A H 0.6881 0.3864 0.7385
H2A H 0.4932 0.2885 0.7896
C3A C 0.5630(4) 0.1334(3) 0.6209(2)
C4A C 0.7173(4) 0.1104(4) 0.5335(2)
H3A H 0.8651 0.1845 0.5552
C5A C 0.3441(4) 0.0195(4) 0.5842(2)
H4A H 0.2368 0.0311 0.6402
N1A N -0.0152(3) 0.7861(2) 0.80937(16)
N1A_2 N -0.0152(3) -0.2139(2) -0.19063(16)
C6A C 0.1555(4) 0.6854(3) 0.7888(2)
H5A H 0.2734 0.6917 0.8580
C7A C 0.1667(4) 0.5727(3) 0.6708(2)
H6A H 0.2903 0.5056 0.6620
C8A C -0.0050(4) 0.5585(3) 0.56492(18)
C9A C -0.1863(4) 0.6598(3) 0.5872(2)
H7A H -0.3091 0.6535 0.5201
C10A C -0.1850(4) 0.7695(3) 0.7082(2)
H8A H -0.3090 0.8358 0.7204
O3A O 0.3234(3) 0.1503(2) -0.02409(15)
H9A H 0.4377 0.0911 -0.0420
H10A H 0.2863 0.2033 -0.0777
loop_
_geom_bond_atom_site_label_1
_geom_bond_atom_site_label_2
_geom_bond_site_symmetry_1
_geom_bond_site_symmetry_2
Mn1 O1 1_555 1_555
O1 C1 1_555 1_555
O2 C1 1_555 1_555
C1 C2 1_555 1_555
C2 H1 1_555 1_555
H2 C2 1_555 1_555
C3 C2 1_555 1_555
C4 C3 1_555 1_555
H3 C4 1_555 1_555
C5 C3 1_555 1_555
H4 C5 1_555 1_555
N1 Mn1 1_555 1_555
C6 N1 1_555 1_555
H5 C6 1_555 1_555
C7 C6 1_555 1_555
H6 C7 1_555 1_555
C8 C7 1_555 1_555
C9 C8 1_555 1_555
H7 C9 1_555 1_555
C10 N1 1_555 1_555
H8 C10 1_555 1_555
O3 Mn1 1_555 1_555
H9 O3 1_555 1_555
H10 O3 1_555 1_555
Mn1_2 O1A 1_555 1_555
Mn1_3 N1A 1_555 1_555
O1A C1A 1_555 1_555
O1A_2 Mn1 1_555 1_555
O2A C1A 1_555 1_555
C1A C2A 1_555 1_555
C2A H1A 1_555 1_555
H2A C2A 1_555 1_555
C3A C2A 1_555 1_555
C4A C5 1_555 1_555
H3A C4A 1_555 1_555
C5A C4 1_555 1_555
H4A C5A 1_555 1_555
N1A C6A 1_555 1_555
N1A_2 Mn1 1_555 1_555
C6A H5A 1_555 1_555
C7A C6A 1_555 1_555
H6A C7A 1_555 1_555
C8A C8 1_555 1_555
C9A C8A 1_555 1_555
H7A C9A 1_555 1_555
C10A N1A 1_555 1_555
H8A C10A 1_555 1_555
O3A Mn1 1_555 1_555
H9A O3A 1_555 1_555
H10A O3A 1_555 1_555
C9 C10 1_555 1_555
C3A C4A 1_555 1_555
C3A C5A 1_555 1_555
C7A C8A 1_555 1_555
C9A C10A 1_555 1_555

#END
