
#######################################################################
#
#                 Cambridge Crystallographic Data Centre
#                                CCDC 
#
#######################################################################
#
# If this CIF has been generated from an entry in the Cambridge 
# Structural Database, then it will include bibliographic, chemical, 
# crystal, experimental, refinement or atomic coordinate data resulting 
# from the CCDC's data processing and validation procedures.
#
#######################################################################

data_ELINAP
_symmetry_cell_setting           triclinic
_symmetry_space_group_name_H-M   'P -1'
_symmetry_Int_Tables_number      2
_space_group_name_Hall           '-P 1'
loop_
_symmetry_equiv_pos_site_id
_symmetry_equiv_pos_as_xyz
1 x,y,z
2 -x,-y,-z
_cell_length_a                   9.751(8)
_cell_length_b                   10.597(6)
_cell_length_c                   10.616(6)
_cell_angle_alpha                116.955(10)
_cell_angle_beta                 96.363(14)
_cell_angle_gamma                103.470(15)
_cell_volume                     920.786
loop_
_atom_site_label
_atom_site_type_symbol
_atom_site_fract_x
_atom_site_fract_y
_atom_site_fract_z
Cu1 Cu 0.38689(9) -0.16706(8) 0.54658(7)
C1 C 0.3045(8) 0.0278(8) 0.3799(6)
C2 C 0.1516(8) 0.0085(8) 0.3090(7)
H1 H 0.1416 0.1053 0.3333
H2 H 0.0812 -0.0393 0.3447
C3 C 0.1232(7) -0.0878(8) 0.1436(7)
C4 C 0.1510(8) -0.0241(8) 0.0598(7)
H3 H 0.1855 0.0794 0.1032
C5 C 0.1289(8) -0.1108(8) -0.0892(7)
H4 H 0.1486 -0.0643 -0.1443
C6 C 0.0784(7) -0.2647(8) -0.1581(7)
C7 C 0.0514(8) -0.3278(8) -0.0729(8)
H5 H 0.0182 -0.4313 -0.1163
C8 C 0.0718(8) -0.2425(9) 0.0762(8)
H6 H 0.0510 -0.2888 0.1313
C9 C 0.0529(9) -0.3540(8) -0.3212(7)
H7 H 0.0253 -0.4596 -0.3516
H8 H -0.0268 -0.3370 -0.3677
C10 C 0.1868(8) -0.3116(7) -0.3697(6)
C11 C 0.3005(7) 0.0914(6) 0.7267(6)
H9 H 0.2379 0.0586 0.6376
C12 C 0.2920(7) 0.2112(6) 0.8469(6)
H10 H 0.2250 0.2584 0.8385
C13 C 0.3836(6) 0.2631(6) 0.9823(6)
C14 C 0.4827(7) 0.1883(6) 0.9866(6)
H11 H 0.5465 0.2188 1.0744
C15 C 0.4851(7) 0.0692(7) 0.8600(6)
H12 H 0.5528 0.0215 0.8644
C16 C 0.3778(7) 0.3940(6) 1.1132(6)
C17 C 0.3461(8) 0.5116(7) 1.1069(7)
H13 H 0.3248 0.5069 1.0170
C18 C 0.3455(8) 0.6341(7) 1.2291(6)
H14 H 0.3259 0.7120 1.2204
C19 C 0.3927(12) 0.5305(10) 1.3675(8)
H15 H 0.4027 0.5339 1.4572
C20 C 0.4004(11) 0.4061(9) 1.2506(7)
H16 H 0.4206 0.3302 1.2628
N1 N 0.3950(5) 0.0182(5) 0.7305(5)
N2 N 0.3718(6) 0.6468(6) 1.3608(5)
O1 O 0.3232(6) -0.0668(5) 0.4107(5)
O2 O 0.4044(5) 0.1373(5) 0.3969(5)
O3 O 0.2993(7) -0.3324(6) -0.3281(5)
O4 O 0.1816(5) -0.2528(5) -0.4500(4)
Cu1_2 Cu 0.38689(9) 0.83294(8) 1.54658(7)
Cu1A Cu 0.61311(9) 0.16706(8) 0.45342(7)
Cu1_3 Cu 0.38689(9) -0.16706(8) -0.45342(7)
N2_2 N 0.3718(6) -0.3532(6) 0.3608(5)
O2A O 0.5956(5) -0.1373(5) 0.6031(5)
O3_2 O 0.2993(7) -0.3324(6) 0.6719(5)
O4_2 O 0.1816(5) -0.2528(5) 0.5500(4)
O5 O 0.9317(12) 0.7199(13) 0.3582(10)
H17 H 1.0234 0.7561 0.3900
H18 H 0.8924 0.7046 0.4189
O6 O 0.717(2) 0.611(2) 0.380(3)
H19 H 0.6992 0.5276 0.3796
H20 H 0.6527 0.6447 0.4223
loop_
_geom_bond_atom_site_label_1
_geom_bond_atom_site_label_2
_geom_bond_site_symmetry_1
_geom_bond_site_symmetry_2
Cu1 N1 1_555 1_555
C1 C2 1_555 1_555
C2 H1 1_555 1_555
H2 C2 1_555 1_555
C3 C2 1_555 1_555
C4 C3 1_555 1_555
H3 C4 1_555 1_555
C5 C4 1_555 1_555
H4 C5 1_555 1_555
C6 C5 1_555 1_555
C7 C6 1_555 1_555
H5 C7 1_555 1_555
C8 C3 1_555 1_555
H6 C8 1_555 1_555
C9 C6 1_555 1_555
H7 C9 1_555 1_555
H8 C9 1_555 1_555
C10 C9 1_555 1_555
C11 H9 1_555 1_555
C12 C11 1_555 1_555
H10 C12 1_555 1_555
C13 C12 1_555 1_555
C14 C13 1_555 1_555
H11 C14 1_555 1_555
C15 C14 1_555 1_555
H12 C15 1_555 1_555
C16 C13 1_555 1_555
C17 C16 1_555 1_555
H13 C17 1_555 1_555
C18 C17 1_555 1_555
H14 C18 1_555 1_555
C19 H15 1_555 1_555
C20 C16 1_555 1_555
H16 C20 1_555 1_555
N1 C11 1_555 1_555
N2 C18 1_555 1_555
O1 Cu1 1_555 1_555
O2 C1 1_555 1_555
O3 C10 1_555 1_555
O4 C10 1_555 1_555
O5 H17 1_555 1_555
H18 O5 1_555 1_555
O6 H19 1_555 1_555
H20 O6 1_555 1_555
Cu1_2 N2 1_555 1_555
Cu1A O2 1_555 1_555
Cu1_3 O3 1_555 1_555
N2_2 Cu1 1_555 1_555
O2A Cu1 1_555 1_555
O3_2 Cu1 1_555 1_555
O4_2 Cu1 1_555 1_555
C1 O1 1_555 1_555
C7 C8 1_555 1_555
C15 N1 1_555 1_555
C19 C20 1_555 1_555
C19 N2 1_555 1_555
O4 Cu1_3 1_555 1_555

#END
