
#######################################################################
#
#                 Cambridge Crystallographic Data Centre
#                                CCDC 
#
#######################################################################
#
# If this CIF has been generated from an entry in the Cambridge 
# Structural Database, then it will include bibliographic, chemical, 
# crystal, experimental, refinement or atomic coordinate data resulting 
# from the CCDC's data processing and validation procedures.
#
#######################################################################

data_ELOLAS
_symmetry_cell_setting           monoclinic
_symmetry_space_group_name_H-M   'P 21/a'
_symmetry_Int_Tables_number      14
_space_group_name_Hall           '-P 2yab'
loop_
_symmetry_equiv_pos_site_id
_symmetry_equiv_pos_as_xyz
1 x,y,z
2 1/2+x,1/2-y,z
3 -x,-y,-z
4 1/2-x,1/2+y,-z
_cell_length_a                   17.8592(9)
_cell_length_b                   12.4360(5)
_cell_length_c                   21.702(1)
_cell_angle_alpha                90
_cell_angle_beta                 103.486(1)
_cell_angle_gamma                90
_cell_volume                     4687.05
loop_
_atom_site_label
_atom_site_type_symbol
_atom_site_fract_x
_atom_site_fract_y
_atom_site_fract_z
Mn1 Mn 0.64611(3) 0.18489(4) 0.47660(3)
F1 F 0.6584(1) 0.5390(2) 0.4028(1)
F2 F 0.6436(1) 0.4951(2) 0.3049(1)
F3 F 0.5449(1) 0.5239(2) 0.3429(1)
F4 F 0.4953(2) 0.1759(2) 0.2268(1)
F5 F 0.5933(2) 0.0751(2) 0.2491(1)
F6 F 0.4941(2) 0.0384(2) 0.2843(1)
F7 F 0.4463(1) 0.3018(2) 0.5731(2)
F8 F 0.4109(1) 0.1456(3) 0.5987(1)
F9 F 0.3823(1) 0.1966(2) 0.5027(1)
F10 F 0.6741(1) -0.0227(2) 0.6792(1)
F11 F 0.5979(1) -0.1430(2) 0.6278(1)
F12 F 0.7089(1) -0.1165(2) 0.6076(1)
O1 O 0.7132(2) 0.2673(2) 0.5579(1)
O2 O 0.7460(1) 0.6332(2) 0.5410(1)
O3 O 0.5383(1) 0.2043(2) 0.5033(1)
O4 O 0.6534(1) 0.0431(2) 0.5344(1)
O5 O 0.6374(1) 0.3396(2) 0.4311(1)
O6 O 0.5926(1) 0.1291(2) 0.3821(1)
N1 N 0.7144(2) 0.3695(2) 0.5702(1)
N2 N 0.7294(2) 0.5413(2) 0.5616(1)
C1 C 0.7377(2) 0.4461(3) 0.5368(2)
C2 C 0.6845(2) 0.5333(3) 0.6119(2)
C3 C 0.6993(2) 0.4126(3) 0.6313(2)
C4 C 0.7143(3) 0.6143(3) 0.6639(2)
C5 C 0.6010(2) 0.5558(3) 0.5790(2)
C6 C 0.7737(2) 0.3925(3) 0.6814(2)
C7 C 0.6333(2) 0.3542(3) 0.6482(2)
C8 C 0.6154(2) 0.4816(3) 0.3567(2)
C9 C 0.6123(2) 0.3618(3) 0.3740(2)
C10 C 0.5804(2) 0.2937(3) 0.3239(2)
C11 C 0.5728(2) 0.1834(3) 0.3324(2)
C12 C 0.5383(2) 0.1179(3) 0.2723(2)
C13 C 0.5132(2) 0.1538(3) 0.5439(2)
C14 C 0.5451(2) 0.0652(3) 0.5796(2)
C15 C 0.6146(2) 0.0196(3) 0.5735(2)
C16 C 0.6488(2) -0.0675(3) 0.6220(2)
C17 C 0.4378(2) 0.1993(3) 0.5553(2)
H1 H 0.784(2) 0.312(3) 0.683(2)
H2 H 0.811(2) 0.423(3) 0.673(2)
H3 H 0.768(2) 0.412(3) 0.725(2)
H4 H 0.612(3) 0.392(4) 0.687(2)
H5 H 0.590(2) 0.361(3) 0.619(2)
H6 H 0.653(3) 0.279(4) 0.665(2)
H10 H 0.765(2) 0.605(3) 0.688(2)
H11 H 0.710(2) 0.683(3) 0.646(2)
H12 H 0.680(2) 0.613(3) 0.699(2)
H19 H 0.600(2) 0.625(3) 0.565(2)
H20 H 0.580(2) 0.505(3) 0.546(2)
H21 H 0.570(2) 0.557(3) 0.614(2)
H27 H 0.759(3) 0.432(3) 0.501(2)
H28 H 0.561(2) 0.326(3) 0.284(2)
H29 H 0.518(3) 0.042(4) 0.613(2)
O2C O 0.7540(1) 0.1332(2) 0.4590(1)
Mn1C Mn 0.85389(3) 0.68489(4) 0.52340(3)
Mn2 Mn 0.65567(4) 0.27103(5) 0.96325(3)
F13 F 0.6866(1) 0.6140(2) 0.8779(1)
F14 F 0.5968(1) 0.6007(2) 0.7935(1)
F15 F 0.7050(2) 0.5228(2) 0.7987(1)
F16 F 0.4351(2) 0.2930(2) 0.7447(1)
F17 F 0.5233(2) 0.1843(2) 0.7340(1)
F18 F 0.4522(2) 0.1477(2) 0.7982(1)
F19 F 0.4937(3) 0.3869(4) 1.1056(3)
F21 F 0.4201(2) 0.3673(5) 1.0177(2)
F23 F 0.4224(2) 0.2518(4) 1.0888(2)
F25 F 0.6575(2) -0.0223(3) 1.1227(2)
F26 F 0.5423(2) -0.0609(3) 1.0744(1)
F27 F 0.6334(2) -0.0848(3) 1.0277(2)
O7 O 0.7315(2) 0.3355(2) 1.0465(1)
O8 O 0.7450(2) 0.7055(2) 1.0625(1)
O9 O 0.5618(2) 0.3196(3) 1.0033(2)
O10 O 0.6434(2) 0.1215(2) 1.0070(1)
O11 O 0.6635(2) 0.4168(2) 0.9118(1)
O12 O 0.5752(2) 0.2252(2) 0.8765(1)
N3 N 0.7323(2) 0.4312(2) 1.0690(1)
N4 N 0.7389(2) 0.6053(2) 1.0771(1)
C18 C 0.7342(2) 0.5227(3) 1.0379(2)
C19 C 0.7242(2) 0.5713(3) 1.1394(2)
C20 C 0.7477(2) 0.4501(3) 1.1390(2)
C21 C 0.7727(3) 0.6386(4) 1.1925(2)
C22 C 0.8328(3) 0.4290(4) 1.1634(2)
C23 C 0.6381(3) 0.5896(4) 1.1341(2)
C24 C 0.6993(3) 0.3739(3) 1.1681(2)
C25 C 0.6255(2) 0.4426(3) 0.8573(2)
C26 C 0.5668(2) 0.3881(3) 0.8176(2)
C27 C 0.5477(2) 0.2819(3) 0.8297(2)
C28 C 0.6527(2) 0.5467(3) 0.8326(2)
C29 C 0.4882(3) 0.2262(3) 0.7771(2)
C30 C 0.5994(2) 0.0970(4) 1.0422(2)
C31 C 0.5453(3) 0.1615(5) 1.0599(2)
C32 C 0.5301(2) 0.2639(5) 1.0389(2)
C33 C 0.6093(3) -0.0206(4) 1.0669(3)
C34 C 0.4653(3) 0.3242(5) 1.0607(2)
H7 H 0.843(3) 0.345(4) 1.149(2)
H8 H 0.867(3) 0.480(3) 1.145(2)
H9 H 0.843(2) 0.438(3) 1.194(2)
H13 H 0.636(3) 0.371(4) 1.146(2)
H14 H 0.715(2) 0.303(3) 1.162(2)
H15 H 0.705(2) 0.387(3) 1.210(2)
H16 H 0.762(3) 0.616(4) 1.224(2)
H17 H 0.826(3) 0.630(4) 1.187(2)
H18 H 0.760(3) 0.712(4) 1.178(2)
H22 H 0.621(3) 0.673(4) 1.117(2)
H23 H 0.603(2) 0.546(3) 1.093(2)
H24 H 0.623(2) 0.566(3) 1.163(2)
H25 H 0.731(2) 0.530(3) 0.996(2)
H26 H 0.547(2) 0.415(3) 0.785(2)
H30 H 0.516(3) 0.138(4) 1.081(2)
O8C O 0.7550(2) 0.2055(2) 0.9375(1)
Mn2C Mn 0.84433(4) 0.77103(5) 1.03675(3)
F20? F 0.4614(7) 0.451(1) 1.0263(6)
F22? F 0.4005(5) 0.308(1) 1.0372(6)
F24? F 0.4869(5) 0.3761(10) 1.1129(4)
loop_
_geom_bond_atom_site_label_1
_geom_bond_atom_site_label_2
_geom_bond_site_symmetry_1
_geom_bond_site_symmetry_2
Mn1 O1 1_555 1_555
Mn2 O7 1_555 1_555
F1 C8 1_555 1_555
F2 C8 1_555 1_555
F3 C8 1_555 1_555
F4 C12 1_555 1_555
F5 C12 1_555 1_555
F6 C12 1_555 1_555
F7 C17 1_555 1_555
F8 C17 1_555 1_555
F9 C17 1_555 1_555
F10 C16 1_555 1_555
F11 C16 1_555 1_555
F12 C16 1_555 1_555
F13 C28 1_555 1_555
F14 C28 1_555 1_555
F15 C28 1_555 1_555
F16 C29 1_555 1_555
F17 C29 1_555 1_555
F18 C29 1_555 1_555
F19 C34 1_555 1_555
F21 C34 1_555 1_555
F23 C34 1_555 1_555
F25 C33 1_555 1_555
F26 C33 1_555 1_555
F27 C33 1_555 1_555
O1 N1 1_555 1_555
O2 N2 1_555 1_555
O3 Mn1 1_555 1_555
O4 Mn1 1_555 1_555
O5 Mn1 1_555 1_555
O6 Mn1 1_555 1_555
O7 N3 1_555 1_555
O8 N4 1_555 1_555
O9 Mn2 1_555 1_555
O10 Mn2 1_555 1_555
O11 Mn2 1_555 1_555
O12 Mn2 1_555 1_555
N1 C1 1_555 1_555
N2 C1 1_555 1_555
N3 C18 1_555 1_555
N4 C18 1_555 1_555
C1 H27 1_555 1_555
C2 N2 1_555 1_555
C3 N1 1_555 1_555
C4 C2 1_555 1_555
C5 C2 1_555 1_555
C6 C3 1_555 1_555
C7 C3 1_555 1_555
C8 C9 1_555 1_555
C9 O5 1_555 1_555
C10 C9 1_555 1_555
C11 O6 1_555 1_555
C12 C11 1_555 1_555
C13 O3 1_555 1_555
C14 C13 1_555 1_555
C15 O4 1_555 1_555
C16 C15 1_555 1_555
C17 C13 1_555 1_555
C18 H25 1_555 1_555
C19 N4 1_555 1_555
C20 N3 1_555 1_555
C21 C19 1_555 1_555
C22 C20 1_555 1_555
C23 C19 1_555 1_555
C24 C20 1_555 1_555
C25 O11 1_555 1_555
C26 C25 1_555 1_555
C27 O12 1_555 1_555
C28 C25 1_555 1_555
C29 C27 1_555 1_555
C30 O10 1_555 1_555
C31 C30 1_555 1_555
C32 O9 1_555 1_555
C33 C30 1_555 1_555
C34 C32 1_555 1_555
H1 C6 1_555 1_555
H2 C6 1_555 1_555
H3 C6 1_555 1_555
H4 C7 1_555 1_555
H5 C7 1_555 1_555
H6 C7 1_555 1_555
H7 C22 1_555 1_555
H8 C22 1_555 1_555
H9 C22 1_555 1_555
H10 C4 1_555 1_555
H11 C4 1_555 1_555
H12 C4 1_555 1_555
H13 C24 1_555 1_555
H14 C24 1_555 1_555
H15 C24 1_555 1_555
H16 C21 1_555 1_555
H17 C21 1_555 1_555
H18 C21 1_555 1_555
H19 C5 1_555 1_555
H20 C5 1_555 1_555
H21 C5 1_555 1_555
H22 C23 1_555 1_555
H23 C23 1_555 1_555
H24 C23 1_555 1_555
H26 C26 1_555 1_555
H28 C10 1_555 1_555
H29 C14 1_555 1_555
H30 C31 1_555 1_555
O2C Mn1 1_555 1_555
O8C Mn2 1_555 1_555
Mn1C O2 1_555 1_555
Mn2C O8 1_555 1_555
C2 C3 1_555 1_555
C10 C11 1_555 1_555
C14 C15 1_555 1_555
C19 C20 1_555 1_555
C26 C27 1_555 1_555
C31 C32 1_555 1_555

#END
