
#######################################################################
#
#                 Cambridge Crystallographic Data Centre
#                                CCDC 
#
#######################################################################
#
# If this CIF has been generated from an entry in the Cambridge 
# Structural Database, then it will include bibliographic, chemical, 
# crystal, experimental, refinement or atomic coordinate data resulting 
# from the CCDC's data processing and validation procedures.
#
#######################################################################

data_ELUBAO
_symmetry_cell_setting           orthorhombic
_symmetry_space_group_name_H-M   'P c a 21'
_symmetry_Int_Tables_number      29
_space_group_name_Hall           'P 2c -2ac'
loop_
_symmetry_equiv_pos_site_id
_symmetry_equiv_pos_as_xyz
1 x,y,z
2 -x,-y,1/2+z
3 1/2+x,-y,z
4 1/2-x,y,1/2+z
_cell_length_a                   16.1160(13)
_cell_length_b                   7.8544(6)
_cell_length_c                   26.839(2)
_cell_angle_alpha                90
_cell_angle_beta                 90
_cell_angle_gamma                90
_cell_volume                     3397.32
loop_
_atom_site_label
_atom_site_type_symbol
_atom_site_fract_x
_atom_site_fract_y
_atom_site_fract_z
N1 N 0.7144(6) 0.2990(11) 0.8574(3)
C1 C 0.8490(7) 0.1040(15) 0.8872(5)
C2 C 0.7191(6) 0.1939(16) 0.8976(5)
C3 C 0.7847(8) 0.3071(16) 0.8319(5)
C4 C 0.7816(9) 0.427(2) 0.7898(5)
H1 H 0.7276 0.4788 0.7883
H2 H 0.7921 0.3672 0.7593
H3 H 0.8228 0.5139 0.7943
C5 C 0.9115(10) -0.0056(18) 0.9026(6)
H4 H 0.8944 -0.0631 0.9325
H5 H 0.9611 0.0584 0.9091
H6 H 0.9221 -0.0879 0.877
S1 S 0.4853(2) 0.3415(4) 0.80897(12)
N2 N 0.5693(7) 0.6341(13) 0.7986(3)
C6 C 0.5130(8) 0.5239(15) 0.7762(5)
S2 S 0.8285(2) 0.8506(4) 1.04890(12)
N3 N 0.4821(6) 0.5395(13) 0.7272(4)
N4 N 0.8474(6) 1.0811(13) 1.1190(4)
N5 N 0.7571(6) 1.1470(13) 1.0539(4)
C7 C 0.5904(8) 0.7705(19) 0.7766(6)
C8 C 0.6399(9) 0.8867(17) 0.7995(5)
H7 H 0.6469 0.8557 0.8339
H8 H 0.6148 0.9972 0.7975
H9 H 0.6931 0.8891 0.7834
C9 C 0.6758(10) 1.4192(15) 1.0447(5)
H10 H 0.6609 1.3655 1.0138
H11 H 0.7009 1.5276 1.038
H12 H 0.627 1.4352 1.0646
C10 C 0.7407(8) 1.3002(15) 1.0742(5)
C11 C 0.8084(7) 1.0376(14) 1.0780(4)
C12 C 0.8287(8) 1.2317(16) 1.1405(4)
C13 C 0.7754(7) 1.3411(16) 1.1198(5)
H13 H 0.7619 1.4427 1.1356
C14 C 0.8522(8) 0.2076(17) 0.8455(6)
H14 H 0.9003 0.2107 0.8263
C15 C 0.5061(8) 0.6731(19) 0.6995(5)
C16 C 0.5655(11) 0.789(3) 0.7197(7)
H15 H 0.5892 0.8728 0.6999
C17 C 0.8740(10) 1.270(2) 1.1843(5)
H16 H 0.9097 1.1766 1.1925
H17 H 0.8362 1.2903 1.2113
H18 H 0.9069 1.3706 1.1789
C18 C 0.4842(10) 0.690(2) 0.6508(5)
H19 H 0.4429 0.6061 0.6427
H20 H 0.5322 0.673 0.6302
H21 H 0.4622 0.8016 0.6453
S3 S 0.68952(19) 0.6817(4) 0.91855(11)
N6 N 0.5377(6) 0.6018(12) 0.9416(3)
C19 C 0.4707(7) 0.6006(13) 0.9724(4)
C20 C 0.6075(7) 0.6946(14) 0.9543(4)
C21 C 0.4701(8) 0.7026(17) 1.0138(5)
H22 H 0.4246 0.705 1.035
N7 N 0.6054(5) 0.7975(11) 0.9938(3)
C22 C 0.5402(9) 0.8032(16) 1.0231(4)
C23 C 0.3914(9) 0.4976(16) 0.9539(6)
H23 H 0.4043 0.4396 0.9233
H24 H 0.3463 0.5751 0.9483
H25 H 0.3757 0.4158 0.9787
C24 C 0.5382(9) 0.929(2) 1.0672(5)
H26 H 0.5896 0.9907 1.0685
H27 H 0.5305 0.8674 1.0977
H28 H 0.4931 1.0077 1.0628
Cd1 Cd 0.58736(5) 0.45145(10) 0.87149(3)
Cd2 Cd 0.72672(5) 0.95374(10) 0.98377(3)
S4 S 0.62217(18) 0.1788(4) 0.93313(12)
N8 N 0.7819(6) 0.0932(11) 0.9122(4)
S4_2 S 0.62217(18) 1.1788(4) 0.93313(12)
N8_2 N 0.7819(6) 1.0932(11) 0.9122(4)
Cd2_2 Cd 0.72672(5) -0.04626(10) 0.98377(3)
loop_
_geom_bond_atom_site_label_1
_geom_bond_atom_site_label_2
_geom_bond_site_symmetry_1
_geom_bond_site_symmetry_2
N1 C2 1_555 1_555
C1 C5 1_555 1_555
C2 S4 1_555 1_555
C3 N1 1_555 1_555
C4 C3 1_555 1_555
H1 C4 1_555 1_555
H2 C4 1_555 1_555
H3 C4 1_555 1_555
C5 H4 1_555 1_555
H5 C5 1_555 1_555
H6 C5 1_555 1_555
S1 C6 1_555 1_555
N2 C6 1_555 1_555
C6 N3 1_555 1_555
S2 C11 1_555 1_555
N3 C15 1_555 1_555
N4 C11 1_555 1_555
N5 C10 1_555 1_555
C7 N2 1_555 1_555
C8 C7 1_555 1_555
H7 C8 1_555 1_555
H8 C8 1_555 1_555
H9 C8 1_555 1_555
C9 H10 1_555 1_555
H11 C9 1_555 1_555
H12 C9 1_555 1_555
C10 C9 1_555 1_555
C11 N5 1_555 1_555
C12 N4 1_555 1_555
C13 C10 1_555 1_555
H13 C13 1_555 1_555
C14 C1 1_555 1_555
H14 C14 1_555 1_555
C15 C16 1_555 1_555
C16 C7 1_555 1_555
H15 C16 1_555 1_555
C17 C12 1_555 1_555
H16 C17 1_555 1_555
H17 C17 1_555 1_555
H18 C17 1_555 1_555
C18 C15 1_555 1_555
H19 C18 1_555 1_555
H20 C18 1_555 1_555
H21 C18 1_555 1_555
S3 C20 1_555 1_555
N6 C19 1_555 1_555
C19 C21 1_555 1_555
C20 N6 1_555 1_555
C21 H22 1_555 1_555
N7 C20 1_555 1_555
C22 C21 1_555 1_555
C23 C19 1_555 1_555
H23 C23 1_555 1_555
H24 C23 1_555 1_555
H25 C23 1_555 1_555
C24 C22 1_555 1_555
H26 C24 1_555 1_555
H27 C24 1_555 1_555
H28 C24 1_555 1_555
Cd1 N1 1_555 1_555
Cd2 S2 1_555 1_555
S4 Cd1 1_555 1_555
N8 C1 1_555 1_555
S4_2 Cd2 1_555 1_555
N8_2 Cd2 1_555 1_555
Cd2_2 S4 1_555 1_555
C2 N8 1_555 1_555
C3 C14 1_555 1_555
S1 Cd1 1_555 1_555
N2 Cd1 1_555 1_555
N5 Cd2 1_555 1_555
C12 C13 1_555 1_555
S3 Cd2 1_555 1_555
S3 Cd1 1_555 1_555
N6 Cd1 1_555 1_555
N7 C22 1_555 1_555
N7 Cd2 1_555 1_555
N8 Cd2_2 1_555 1_555

#END
