
#######################################################################
#
#                 Cambridge Crystallographic Data Centre
#                                CCDC 
#
#######################################################################
#
# If this CIF has been generated from an entry in the Cambridge 
# Structural Database, then it will include bibliographic, chemical, 
# crystal, experimental, refinement or atomic coordinate data resulting 
# from the CCDC's data processing and validation procedures.
#
#######################################################################

data_ELUNEF
_symmetry_cell_setting           tetragonal
_symmetry_space_group_name_H-M   'P 43'
_symmetry_Int_Tables_number      78
_space_group_name_Hall           'P 4cw'
loop_
_symmetry_equiv_pos_site_id
_symmetry_equiv_pos_as_xyz
1 x,y,z
2 -x,-y,1/2+z
3 -y,x,3/4+z
4 y,-x,1/4+z
_cell_length_a                   11.8273(14)
_cell_length_b                   11.8273(14)
_cell_length_c                   41.028(10)
_cell_angle_alpha                90
_cell_angle_beta                 90
_cell_angle_gamma                90
_cell_volume                     5739.2
loop_
_atom_site_label
_atom_site_type_symbol
_atom_site_fract_x
_atom_site_fract_y
_atom_site_fract_z
Mn1 Mn 0.49725(9) 0.25363(9) 0.0000
Mn2 Mn 0.99805(9) 0.75428(9) -0.02522(2)
O1 O 0.8739(4) 0.6590(4) -0.05553(13)
C1 C 0.8106(7) 0.5938(6) -0.0408(2)
C2 C 0.7133(7) 0.5425(7) -0.0559(2)
C3 C 0.6798(9) 0.5693(9) -0.0905(3)
C4 C 0.5634(12) 0.5153(14) -0.0969(4)
H1 H 0.5092 0.5455 -0.0818
H2 H 0.5686 0.4349 -0.0941
H3 H 0.5400 0.5318 -0.1188
C5 C 0.6612(14) 0.6958(11) -0.0938(4)
H4 H 0.6054 0.7199 -0.0783
H5 H 0.6356 0.7127 -0.1154
H6 H 0.7310 0.7348 -0.0897
C6 C 0.7779(11) 0.5215(16) -0.1148(3)
H7 H 0.7834 0.4409 -0.1126
H8 H 0.8490 0.5555 -0.1093
H9 H 0.7588 0.5400 -0.1370
C7 C 0.6656(7) 0.4640(7) -0.0382(2)
H10 H 0.6083 0.4208 -0.0475
C8 C 0.6991(7) 0.4405(8) -0.0036(3)
O2 O 0.6325(4) 0.3707(4) 0.01109(16)
C9 C 0.7909(6) 0.4860(6) 0.0114(2)
C10 C 0.8346(7) 0.4416(8) 0.0440(2)
C11 C 0.7634(17) 0.4949(15) 0.0680(3)
H11 H 0.7674 0.5755 0.0655
H12 H 0.7888 0.4743 0.0894
H13 H 0.6867 0.4703 0.0651
C12 C 0.9549(11) 0.4730(15) 0.0511(4)
H14 H 0.9623 0.5538 0.0512
H15 H 1.0033 0.4416 0.0346
H16 H 0.9762 0.4436 0.0720
C13 C 0.8319(18) 0.3144(10) 0.0461(4)
H17 H 0.8853 0.2831 0.0310
H18 H 0.7574 0.2878 0.0409
H19 H 0.8513 0.2912 0.0678
C14 C 0.8380(7) 0.5762(6) -0.0047(3)
O3 O 0.9083(4) 0.6405(4) 0.00698(15)
O4 O 0.1239(4) -0.1505(4) -0.05444(13)
C15 C 0.1896(7) -0.0865(7) -0.0398(2)
C16 C 0.2864(6) -0.0308(6) -0.0542(2)
C17 C 0.3185(10) -0.0592(10) -0.0882(3)
C18 C 0.3425(13) -0.1834(10) -0.0924(3)
H20 H 0.3993 -0.2065 -0.0771
H21 H 0.3690 -0.1970 -0.1142
H22 H 0.2745 -0.2258 -0.0887
C19 C 0.4287(9) 0.0052(13) -0.0970(3)
H23 H 0.4882 -0.0180 -0.0825
H24 H 0.4164 0.0850 -0.0947
H25 H 0.4496 -0.0117 -0.1190
C20 C 0.2245(12) -0.0168(10) -0.1128(2)
H26 H 0.2466 -0.0354 -0.1347
H27 H 0.2160 0.0636 -0.1109
H28 H 0.1539 -0.0530 -0.1078
C21 C 0.3360(8) 0.0462(8) -0.0356(2)
H29 H 0.3962 0.0864 -0.0444
C22 C 0.3011(7) 0.0730(7) -0.0008(3)
O5 O 0.3648(5) 0.1376(5) 0.01338(14)
C23 C 0.2085(7) 0.0153(8) 0.0143(2)
C24 C 0.1689(7) 0.0533(8) 0.0490(2)
C25 C 0.0557(13) 0.0107(14) 0.0574(4)
H30 H 0.0349 0.0372 0.0787
H31 H 0.0564 -0.0705 0.0573
H32 H 0.0018 0.0375 0.0417
C26 C 0.2568(18) 0.0181(17) 0.0712(4)
H33 H 0.2367 0.0394 0.0930
H34 H 0.3267 0.0541 0.0652
H35 H 0.2657 -0.0625 0.0700
C27 C 0.1542(17) 0.1811(10) 0.0480(5)
H36 H 0.1280 0.2073 0.0688
H37 H 0.0999 0.2005 0.0315
H38 H 0.2254 0.2161 0.0430
C28 C 0.1531(7) -0.0716(8) -0.0027(2)
O6 O 0.0856(4) -0.1387(5) 0.00872(17)
O7 O 0.4027(4) 0.3796(4) 0.03025(13)
C29 C 0.3377(6) 0.4397(7) 0.0144(2)
C30 C 0.2773(7) 0.5320(7) 0.0301(2)
C31 C 0.3027(8) 0.5670(8) 0.0664(3)
C32 C 0.2399(12) 0.6700(14) 0.0758(3)
H39 H 0.2588 0.6903 0.0977
H40 H 0.1601 0.6558 0.0742
H41 H 0.2599 0.7308 0.0614
C33 C 0.2671(11) 0.4681(12) 0.0868(4)
H42 H 0.2832 0.4836 0.1093
H43 H 0.3080 0.4019 0.0801
H44 H 0.1875 0.4554 0.0841
C34 C 0.4326(8) 0.5906(9) 0.0691(3)
H45 H 0.4507 0.6118 0.0911
H46 H 0.4529 0.6509 0.0546
H47 H 0.4738 0.5237 0.0634
C35 C 0.2085(6) 0.5874(7) 0.0105(2)
H48 H 0.1762 0.6529 0.0189
C36 C 0.1781(9) 0.5588(8) -0.0217(3)
O8 O 0.1061(5) 0.6173(6) -0.03577(16)
C37 C 0.2293(6) 0.4615(7) -0.0364(2)
C38 C 0.1905(7) 0.4197(7) -0.0703(2)
C39 C 0.2375(13) 0.3051(12) -0.0788(4)
H49 H 0.3186 0.3076 -0.0780
H50 H 0.2136 0.2846 -0.1004
H51 H 0.2102 0.2502 -0.0635
C40 C 0.0616(8) 0.4161(8) -0.0714(3)
H52 H 0.0342 0.3652 -0.0550
H53 H 0.0375 0.3904 -0.0925
H54 H 0.0321 0.4905 -0.0675
C41 C 0.2271(14) 0.5000(14) -0.0983(3)
H55 H 0.3080 0.5052 -0.0988
H56 H 0.1956 0.5738 -0.0947
H57 H 0.2002 0.4709 -0.1187
C42 C 0.3178(6) 0.4185(7) -0.0193(2)
O9 O 0.3934(4) 0.3447(5) -0.03076(14)
O10 O 0.5926(4) 0.1279(5) 0.02982(13)
C43 C 0.6534(7) 0.0681(7) 0.0134(3)
C44 C 0.7129(7) -0.0278(8) 0.0294(2)
C45 C 0.6873(9) -0.0632(10) 0.0642(3)
C46 C 0.7279(17) 0.0307(15) 0.0870(4)
H58 H 0.6887 0.0996 0.0820
H59 H 0.8077 0.0417 0.0842
H60 H 0.7126 0.0096 0.1092
C47 C 0.7461(16) -0.1732(12) 0.0728(3)
H61 H 0.8265 -0.1630 0.0716
H62 H 0.7233 -0.2312 0.0578
H63 H 0.7256 -0.1951 0.0946
C48 C 0.5582(10) -0.0783(13) 0.0687(4)
H64 H 0.5203 -0.0093 0.0630
H65 H 0.5424 -0.0964 0.0911
H66 H 0.5319 -0.1384 0.0550
C49 C 0.7885(8) -0.0846(7) 0.0091(2)
H67 H 0.8253 -0.1480 0.0173
C50 C 0.8129(6) -0.0499(6) -0.0241(3)
O11 O 0.8906(4) -0.1078(4) -0.03605(14)
C51 C 0.7600(7) 0.0461(7) -0.0390(2)
C52 C 0.8015(7) 0.0857(7) -0.0726(2)
C53 C 0.9305(10) 0.0976(12) -0.0737(3)
H68 H 0.9545 0.1505 -0.0574
H69 H 0.9530 0.1244 -0.0948
H70 H 0.9648 0.0254 -0.0696
C54 C 0.7464(13) 0.1926(11) -0.0841(3)
H71 H 0.7651 0.2533 -0.0695
H72 H 0.6659 0.1826 -0.0846
H73 H 0.7730 0.2105 -0.1056
C55 C 0.7740(18) 0.0008(12) -0.0999(3)
H74 H 0.8033 -0.0722 -0.0942
H75 H 0.8080 0.0257 -0.1199
H76 H 0.6935 -0.0039 -0.1026
C56 C 0.6691(7) 0.0910(6) -0.0213(3)
O12 O 0.5958(4) 0.1641(4) -0.03229(15)
Mn2_2 Mn -0.00195(9) -0.24572(9) -0.02522(2)
Mn2_3 Mn -0.00195(9) 0.75428(9) -0.02522(2)
Mn2_4 Mn 0.99805(9) -0.24572(9) -0.02522(2)
O4_2 O 1.1239(4) 0.8495(4) -0.05444(13)
O6_2 O 1.0856(4) 0.8613(5) 0.00872(17)
O8_2 O 1.1061(5) 0.6173(6) -0.03577(16)
O11_2 O 0.8906(4) 0.8922(4) -0.03605(14)
loop_
_geom_bond_atom_site_label_1
_geom_bond_atom_site_label_2
_geom_bond_site_symmetry_1
_geom_bond_site_symmetry_2
Mn1 O2 1_555 1_555
Mn2 O1 1_555 1_555
O1 C1 1_555 1_555
C1 C2 1_555 1_555
C2 C3 1_555 1_555
C3 C4 1_555 1_555
C4 H1 1_555 1_555
H2 C4 1_555 1_555
H3 C4 1_555 1_555
C5 C3 1_555 1_555
H4 C5 1_555 1_555
H5 C5 1_555 1_555
H6 C5 1_555 1_555
C6 C3 1_555 1_555
H7 C6 1_555 1_555
H8 C6 1_555 1_555
H9 C6 1_555 1_555
C7 C2 1_555 1_555
H10 C7 1_555 1_555
C8 C7 1_555 1_555
O2 C8 1_555 1_555
C9 C8 1_555 1_555
C10 C9 1_555 1_555
C11 C10 1_555 1_555
H11 C11 1_555 1_555
H12 C11 1_555 1_555
H13 C11 1_555 1_555
C12 C10 1_555 1_555
H14 C12 1_555 1_555
H15 C12 1_555 1_555
H16 C12 1_555 1_555
C13 C10 1_555 1_555
H17 C13 1_555 1_555
H18 C13 1_555 1_555
H19 C13 1_555 1_555
C14 C1 1_555 1_555
O3 Mn2 1_555 1_555
O4 C15 1_555 1_555
C15 C16 1_555 1_555
C16 C17 1_555 1_555
C17 C18 1_555 1_555
C18 H20 1_555 1_555
H21 C18 1_555 1_555
H22 C18 1_555 1_555
C19 C17 1_555 1_555
H23 C19 1_555 1_555
H24 C19 1_555 1_555
H25 C19 1_555 1_555
C20 C17 1_555 1_555
H26 C20 1_555 1_555
H27 C20 1_555 1_555
H28 C20 1_555 1_555
C21 C16 1_555 1_555
H29 C21 1_555 1_555
C22 C21 1_555 1_555
O5 Mn1 1_555 1_555
C23 C22 1_555 1_555
C24 C23 1_555 1_555
C25 C24 1_555 1_555
H30 C25 1_555 1_555
H31 C25 1_555 1_555
H32 C25 1_555 1_555
C26 C24 1_555 1_555
H33 C26 1_555 1_555
H34 C26 1_555 1_555
H35 C26 1_555 1_555
C27 C24 1_555 1_555
H36 C27 1_555 1_555
H37 C27 1_555 1_555
H38 C27 1_555 1_555
C28 C15 1_555 1_555
O6 C28 1_555 1_555
O7 Mn1 1_555 1_555
C29 O7 1_555 1_555
C30 C29 1_555 1_555
C31 C30 1_555 1_555
C32 C31 1_555 1_555
H39 C32 1_555 1_555
H40 C32 1_555 1_555
H41 C32 1_555 1_555
C33 C31 1_555 1_555
H42 C33 1_555 1_555
H43 C33 1_555 1_555
H44 C33 1_555 1_555
C34 C31 1_555 1_555
H45 C34 1_555 1_555
H46 C34 1_555 1_555
H47 C34 1_555 1_555
C35 C30 1_555 1_555
H48 C35 1_555 1_555
C36 C35 1_555 1_555
O8 C36 1_555 1_555
C37 C36 1_555 1_555
C38 C37 1_555 1_555
C39 C38 1_555 1_555
H49 C39 1_555 1_555
H50 C39 1_555 1_555
H51 C39 1_555 1_555
C40 C38 1_555 1_555
H52 C40 1_555 1_555
H53 C40 1_555 1_555
H54 C40 1_555 1_555
C41 C38 1_555 1_555
H55 C41 1_555 1_555
H56 C41 1_555 1_555
H57 C41 1_555 1_555
C42 C29 1_555 1_555
O9 Mn1 1_555 1_555
O10 Mn1 1_555 1_555
C43 O10 1_555 1_555
C44 C43 1_555 1_555
C45 C44 1_555 1_555
C46 C45 1_555 1_555
H58 C46 1_555 1_555
H59 C46 1_555 1_555
H60 C46 1_555 1_555
C47 C45 1_555 1_555
H61 C47 1_555 1_555
H62 C47 1_555 1_555
H63 C47 1_555 1_555
C48 C45 1_555 1_555
H64 C48 1_555 1_555
H65 C48 1_555 1_555
H66 C48 1_555 1_555
C49 C44 1_555 1_555
H67 C49 1_555 1_555
C50 C49 1_555 1_555
O11 C50 1_555 1_555
C51 C50 1_555 1_555
C52 C51 1_555 1_555
C53 C52 1_555 1_555
H68 C53 1_555 1_555
H69 C53 1_555 1_555
H70 C53 1_555 1_555
C54 C52 1_555 1_555
H71 C54 1_555 1_555
H72 C54 1_555 1_555
H73 C54 1_555 1_555
C55 C52 1_555 1_555
H74 C55 1_555 1_555
H75 C55 1_555 1_555
H76 C55 1_555 1_555
C56 C43 1_555 1_555
O12 Mn1 1_555 1_555
Mn2_2 O4 1_555 1_555
Mn2_3 O8 1_555 1_555
Mn2_4 O11 1_555 1_555
O4_2 Mn2 1_555 1_555
O6_2 Mn2 1_555 1_555
O8_2 Mn2 1_555 1_555
O11_2 Mn2 1_555 1_555
C9 C14 1_555 1_555
C14 O3 1_555 1_555
C22 O5 1_555 1_555
C23 C28 1_555 1_555
O6 Mn2_2 1_555 1_555
C37 C42 1_555 1_555
C42 O9 1_555 1_555
C51 C56 1_555 1_555
C56 O12 1_555 1_555

#END
