
#######################################################################
#
#                 Cambridge Crystallographic Data Centre
#                                CCDC 
#
#######################################################################
#
# If this CIF has been generated from an entry in the Cambridge 
# Structural Database, then it will include bibliographic, chemical, 
# crystal, experimental, refinement or atomic coordinate data resulting 
# from the CCDC's data processing and validation procedures.
#
#######################################################################

data_ELUNIJ
_symmetry_cell_setting           monoclinic
_symmetry_space_group_name_H-M   'P c'
_symmetry_Int_Tables_number      7
_space_group_name_Hall           'P -2yc'
loop_
_symmetry_equiv_pos_site_id
_symmetry_equiv_pos_as_xyz
1 x,y,z
2 x,-y,1/2+z
_cell_length_a                   23.542(5)
_cell_length_b                   11.480(2)
_cell_length_c                   21.416(4)
_cell_angle_alpha                90
_cell_angle_beta                 90.06(3)
_cell_angle_gamma                90
_cell_volume                     5787.93
loop_
_atom_site_label
_atom_site_type_symbol
_atom_site_fract_x
_atom_site_fract_y
_atom_site_fract_z
Cu1 Cu 0.3918 0.64812(8) 0.7002
Cu2 Cu -0.11384(6) 1.11072(8) 0.39927(5)
Cu3 Cu 0.64339(5) 0.39084(8) 0.92704(6)
Cu4 Cu 0.14493(5) 1.14844(8) 0.67192(6)
O1 O 0.3441(2) 0.7640(4) 0.7362(2)
C1 C 0.2968(3) 0.7821(7) 0.6385(4)
C2 C 0.2575(3) 0.8413(7) 0.5993(3)
C3 C 0.2520(4) 0.8072(8) 0.5294(4)
C4 C 0.2259(5) 0.6881(9) 0.5248(5)
H1 H 0.2509 0.6320 0.5436
H2 H 0.2201 0.6686 0.4817
H3 H 0.1902 0.6875 0.5463
C5 C 0.2116(5) 0.8929(10) 0.4956(5)
H4 H 0.2297 0.9675 0.4920
H5 H 0.1772 0.9008 0.5192
H6 H 0.2029 0.8635 0.4548
C6 C 0.3106(4) 0.8098(10) 0.4973(5)
H7 H 0.3248 0.8881 0.4970
H8 H 0.3070 0.7821 0.4552
H9 H 0.3365 0.7606 0.5198
C7 C 0.2266(3) 0.9219(6) 0.6273(4)
H10 H 0.2013 0.9634 0.6025
C8 C 0.2285(3) 0.9524(6) 0.6944(4)
O2 O 0.1917(2) 1.0239(4) 0.7136(2)
C9 C 0.2712(3) 0.9057(6) 0.7358(4)
C10 C 0.2732(3) 0.9449(7) 0.8020(4)
C11 C 0.2787(4) 1.0786(7) 0.8072(5)
H11 H 0.2466 1.1148 0.7874
H12 H 0.3130 1.1035 0.7870
H13 H 0.2798 1.1006 0.8504
C12 C 0.2221(4) 0.9067(8) 0.8404(4)
H14 H 0.1878 0.9316 0.8201
H15 H 0.2242 0.9410 0.8812
H16 H 0.2220 0.8234 0.8441
C13 C 0.3254(5) 0.9022(10) 0.8368(5)
H17 H 0.3229 0.9249 0.8798
H18 H 0.3588 0.9357 0.8185
H19 H 0.3275 0.8188 0.8340
C14 C 0.3054(3) 0.8182(6) 0.7091(4)
O3 O 0.3264(2) 0.6977(5) 0.6217(3)
O4 O 0.6722(2) 0.2427(4) 0.9551(2)
C15 C 0.7162(3) 0.2188(7) 0.8579(4)
C16 C 0.7567(4) 0.1577(6) 0.8170(4)
C17 C 0.7626(4) 0.1893(8) 0.7480(4)
C18 C 0.7824(4) 0.3169(7) 0.7435(4)
H20 H 0.7887 0.3367 0.7005
H21 H 0.7538 0.3670 0.7606
H22 H 0.8171 0.3264 0.7664
C19 C 0.7055(5) 0.1712(11) 0.7165(4)
H23 H 0.7085 0.1916 0.6731
H24 H 0.6945 0.0910 0.7202
H25 H 0.6775 0.2196 0.7362
C20 C 0.8075(5) 0.1105(8) 0.7154(4)
H26 H 0.8124 0.1356 0.6730
H27 H 0.8430 0.1161 0.7372
H28 H 0.7946 0.0311 0.7158
C21 C 0.7878(3) 0.0751(6) 0.8460(4)
H29 H 0.8122 0.0316 0.8211
C22 C 0.7873(3) 0.0466(6) 0.9132(3)
O5 O 0.8181(2) -0.0299(4) 0.9324(2)
C23 C 0.7469(3) 0.1072(6) 0.9538(4)
C24 C 0.7466(3) 0.0674(7) 1.0248(4)
C25 C 0.7235(5) -0.0587(7) 1.0269(4)
H30 H 0.7225 -0.0852 1.0694
H31 H 0.6858 -0.0605 1.0097
H32 H 0.7478 -0.1087 1.0029
C26 C 0.7053(4) 0.1389(9) 1.0650(4)
H33 H 0.7110 0.2204 1.0571
H34 H 0.6669 0.1181 1.0547
H35 H 0.7122 0.1229 1.1083
C27 C 0.8053(4) 0.0820(10) 1.0515(4)
H36 H 0.8183 0.1600 1.0441
H37 H 0.8043 0.0676 1.0957
H38 H 0.8307 0.0278 1.0320
C28 C 0.7123(3) 0.1897(7) 0.9281(4)
O6 O 0.6865(2) 0.2995(5) 0.8392(2)
O7 O 0.1015(3) 1.2721(5) 0.6205(3)
C29 C 0.0668(4) 1.2274(7) 0.5825(4)
C30 C 0.0325(3) 1.3003(7) 0.5408(4)
C31 C 0.0403(4) 1.4324(8) 0.5400(5)
C32 C 0.0269(6) 1.4799(8) 0.6042(6)
H39 H -0.0111 1.4583 0.6155
H40 H 0.0301 1.5632 0.6037
H41 H 0.0532 1.4483 0.6340
C33 C 0.1026(4) 1.4576(8) 0.5219(7)
H42 H 0.1274 1.4275 0.5536
H43 H 0.1080 1.5402 0.5182
H44 H 0.1110 1.4209 0.4827
C34 C 0.0012(5) 1.4853(9) 0.4920(5)
H45 H -0.0375 1.4723 0.5041
H46 H 0.0080 1.4499 0.4521
H47 H 0.0082 1.5676 0.4893
C35 C -0.0075(4) 1.2393(7) 0.5113(4)
H48 H -0.0322 1.2814 0.4860
C36 C -0.0167(4) 1.1135(7) 0.5141(4)
O8 O -0.0583(3) 1.0736(5) 0.4864(3)
C37 C 0.0207(4) 1.0414(7) 0.5515(4)
C38 C 0.0103(4) 0.9096(8) 0.5551(5)
C39 C 0.0561(7) 0.8433(9) 0.5816(10)
H49 H 0.0857 0.8345 0.5511
H50 H 0.0425 0.7679 0.5938
H51 H 0.0708 0.8832 0.6175
C40 C -0.0081(12) 0.8634(11) 0.5029(10)
H52 H 0.0201 0.8728 0.4710
H53 H -0.0425 0.9016 0.4903
H54 H -0.0154 0.7820 0.5092
C41 C -0.0315(11) 0.8832(16) 0.5993(18)
H55 H -0.0375 0.8005 0.6002
H56 H -0.0663 0.9216 0.5881
H57 H -0.0193 0.9094 0.6397
C42 C 0.0628(4) 1.0973(7) 0.5848(4)
O9 O 0.1006(2) 1.0483(4) 0.6204(3)
O10 O -0.0859(2) 1.0262(4) 0.8602(3)
C43 C -0.0157(3) 0.8941(7) 0.8280(4)
C44 C 0.0350(3) 0.8616(7) 0.7905(4)
C45 C 0.0519(4) 0.7341(8) 0.7842(5)
C46 C 0.1031(4) 0.7228(8) 0.7408(5)
H58 H 0.0928 0.7485 0.6997
H59 H 0.1337 0.7699 0.7564
H60 H 0.1150 0.6429 0.7392
C47 C 0.0043(5) 0.6630(10) 0.7588(6)
H61 H -0.0055 0.6906 0.7179
H62 H 0.0158 0.5829 0.7563
H63 H -0.0280 0.6697 0.7858
C48 C 0.0719(6) 0.6930(10) 0.8496(5)
H64 H 0.0428 0.7087 0.8797
H65 H 0.0795 0.6108 0.8485
H66 H 0.1059 0.7340 0.8610
C49 C 0.0613(4) 0.9524(7) 0.7658(4)
H67 H 0.0940 0.9372 0.7429
C50 C 0.0436(4) 1.0779(8) 0.7712(4)
O11 O 0.0753(2) 1.1495(5) 0.7446(3)
C51 C -0.0047(4) 1.1061(7) 0.8040(4)
C52 C -0.0224(4) 1.2403(8) 0.8056(5)
C53 C 0.0252(5) 1.3102(9) 0.8355(6)
H68 H 0.0131 1.3894 0.8410
H69 H 0.0345 1.2771 0.8753
H70 H 0.0580 1.3084 0.8089
C54 C -0.0333(5) 1.2837(9) 0.7404(5)
H71 H -0.0482 1.3614 0.7422
H72 H 0.0016 1.2836 0.7173
H73 H -0.0603 1.2336 0.7202
C55 C -0.0754(4) 1.2658(8) 0.8465(5)
H74 H -0.0835 1.3477 0.8457
H75 H -0.1074 1.2235 0.8305
H76 H -0.0681 1.2419 0.8887
C56 C -0.0380(3) 1.0204(7) 0.8300(4)
O12 O -0.0430(2) 0.8233(5) 0.8575(3)
O13 O 0.5680(2) 0.3240(5) 0.8959(3)
C57 C 0.5379(3) 0.3959(7) 0.8666(4)
C58 C 0.4888(3) 0.3639(7) 0.8316(4)
C59 C 0.4721(3) 0.2349(7) 0.8273(4)
C60 C 0.5227(5) 0.1602(9) 0.8046(6)
H77 H 0.5528 0.1637 0.8348
H78 H 0.5106 0.0809 0.7997
H79 H 0.5360 0.1896 0.7653
C61 C 0.4521(5) 0.1915(10) 0.8922(6)
H80 H 0.4197 0.2361 0.9054
H81 H 0.4418 0.1107 0.8895
H82 H 0.4823 0.2007 0.9220
C62 C 0.4229(5) 0.2192(9) 0.7809(5)
H83 H 0.3905 0.2627 0.7950
H84 H 0.4343 0.2469 0.7405
H85 H 0.4131 0.1382 0.7782
C63 C 0.4597(3) 0.4557(8) 0.8070(4)
H86 H 0.4267 0.4398 0.7847
C64 C 0.4765(4) 0.5752(7) 0.8132(4)
O14 O 0.4441(2) 0.6481(6) 0.7885(3)
C65 C 0.5401(5) 0.7429(8) 0.8504(5)
C66 C 0.5286(4) 0.6128(8) 0.8477(4)
C67 C 0.5948(5) 0.7687(8) 0.8878(6)
H87 H 0.5882 0.7536 0.9313
H88 H 0.6249 0.7195 0.8731
H89 H 0.6052 0.8488 0.8823
C68 C 0.4909(4) 0.8027(8) 0.8857(5)
H90 H 0.4559 0.7899 0.8636
H91 H 0.4880 0.7706 0.9270
H92 H 0.4981 0.8848 0.8885
C69 C 0.5471(5) 0.7938(8) 0.7851(5)
H93 H 0.5126 0.7830 0.7619
H94 H 0.5554 0.8754 0.7882
H95 H 0.5777 0.7549 0.7641
C70 C 0.5607(4) 0.5228(7) 0.8701(4)
O15 O 0.6092(2) 0.5305(4) 0.8962(3)
O16 O 0.2223(2) 0.2014(5) 0.6094(3)
C71 C 0.2466(3) 0.2856(7) 0.6324(4)
C72 C 0.2934(3) 0.3503(7) 0.6004(4)
C73 C 0.3098(4) 0.3219(8) 0.5327(4)
C74 C 0.2558(4) 0.3282(8) 0.4912(4)
H96 H 0.2659 0.3130 0.4485
H97 H 0.2393 0.4044 0.4943
H98 H 0.2289 0.2710 0.5050
C75 C 0.3341(6) 0.1988(8) 0.5281(5)
H99 H 0.3414 0.1803 0.4852
H100 H 0.3072 0.1442 0.5449
H101 H 0.3688 0.1944 0.5515
C76 C 0.3536(6) 0.4078(10) 0.5057(6)
H102 H 0.3578 0.3941 0.4617
H103 H 0.3895 0.3967 0.5261
H104 H 0.3408 0.4862 0.5124
C77 C 0.3207(4) 0.4213(7) 0.6377(4)
H105 H 0.3525 0.4574 0.6209
C78 C 0.3074(3) 0.4512(6) 0.7032(4)
O17 O 0.3400(2) 0.5196(4) 0.7290(3)
C79 C 0.2585(3) 0.4030(7) 0.7333(4)
C80 C 0.2436(3) 0.4444(7) 0.7996(4)
C81 C 0.2886(4) 0.4084(9) 0.8456(4)
H106 H 0.2955 0.3263 0.8419
H107 H 0.2760 0.4257 0.8872
H108 H 0.3230 0.4503 0.8372
C82 C 0.2376(4) 0.5783(6) 0.7988(5)
H109 H 0.2283 0.6054 0.8399
H110 H 0.2079 0.6000 0.7703
H111 H 0.2727 0.6126 0.7856
C83 C 0.1863(4) 0.3948(8) 0.8232(4)
H112 H 0.1861 0.3117 0.8182
H113 H 0.1558 0.4282 0.7995
H114 H 0.1817 0.4139 0.8666
C84 C 0.2283(3) 0.3217(6) 0.7010(4)
O18 O 0.1847(2) 0.2634(4) 0.7187(3)
O19 O 0.8282(3) 0.7978(4) 0.8255(3)
C85 C 0.8048(3) 0.7218(6) 0.8515(4)
C86 C 0.7564(4) 0.6580(6) 0.8192(4)
C87 C 0.7393(4) 0.6865(8) 0.7521(5)
C88 C 0.7887(4) 0.6708(9) 0.7078(5)
H115 H 0.7956 0.5892 0.7017
H116 H 0.7799 0.7065 0.6685
H117 H 0.8220 0.7067 0.7252
C89 C 0.6901(4) 0.6076(9) 0.7296(4)
H118 H 0.6581 0.6167 0.7570
H119 H 0.6793 0.6294 0.6880
H120 H 0.7022 0.5278 0.7300
C90 C 0.7172(5) 0.8111(9) 0.7503(5)
H121 H 0.6842 0.8175 0.7764
H122 H 0.7461 0.8632 0.7650
H123 H 0.7072 0.8311 0.7081
C91 C 0.7310(3) 0.5742(7) 0.8532(3)
H124 H 0.7025 0.5305 0.8344
C92 C 0.7463(3) 0.5471(7) 0.9209(4)
O20 O 0.7168(2) 0.4662(4) 0.9456(2)
C93 C 0.7896(3) 0.6017(6) 0.9525(4)
C94 C 0.8028(3) 0.5707(8) 1.0204(4)
C95 C 0.8461(4) 0.6478(9) 1.0536(4)
H125 H 0.8502 0.6225 1.0961
H126 H 0.8820 0.6423 1.0327
H127 H 0.8332 0.7272 1.0529
C96 C 0.8242(5) 0.4449(8) 1.0238(5)
H128 H 0.8300 0.4234 1.0666
H129 H 0.7966 0.3939 1.0053
H130 H 0.8594 0.4385 1.0015
C97 C 0.7471(4) 0.5782(10) 1.0598(4)
H131 H 0.7549 0.5557 1.1021
H132 H 0.7330 0.6567 1.0591
H133 H 0.7191 0.5268 1.0424
C98 C 0.8206(3) 0.6882(6) 0.9193(4)
O21 O 0.8632(2) 0.7461(4) 0.9370(3)
O22 O 0.4414(2) 0.7699(4) 0.6572(3)
C99 C 0.4788(3) 0.7295(7) 0.6232(4)
C100 C 0.5149(3) 0.7978(6) 0.5811(3)
C101 C 0.5070(4) 0.9324(7) 0.5771(5)
C102 C 0.5444(5) 0.9880(8) 0.5287(5)
H134 H 0.5399 1.0710 0.5302
H135 H 0.5340 0.9600 0.4880
H136 H 0.5834 0.9684 0.5370
C103 C 0.5217(7) 0.9855(10) 0.6420(5)
H137 H 0.5174 1.0686 0.6404
H138 H 0.5603 0.9666 0.6527
H139 H 0.4966 0.9541 0.6730
C104 C 0.4460(4) 0.9641(9) 0.5613(7)
H140 H 0.4419 1.0473 0.5614
H141 H 0.4210 0.9307 0.5918
H142 H 0.4366 0.9344 0.5206
C105 C 0.5529(3) 0.7413(6) 0.5494(4)
H143 H 0.5747 0.7827 0.5208
C106 C 0.5636(3) 0.6146(7) 0.5559(4)
O23 O 0.6031(2) 0.5741(4) 0.5238(3)
C107 C 0.5270(3) 0.5443(6) 0.5978(4)
C108 C 0.5414(4) 0.4113(7) 0.6030(5)
C109 C 0.4953(6) 0.3390(10) 0.6324(12)
H144 H 0.4913 0.3602 0.6755
H145 H 0.5051 0.2580 0.6294
H146 H 0.4601 0.3527 0.6109
C110 C 0.5837(11) 0.3924(13) 0.6385(14)
H147 H 0.6143 0.4436 0.6273
H148 H 0.5957 0.3130 0.6339
H149 H 0.5729 0.4062 0.6811
C111 C 0.5604(12) 0.3587(16) 0.5565(12)
H150 H 0.5887 0.4058 0.5365
H151 H 0.5300 0.3436 0.5277
H152 H 0.5770 0.2864 0.5696
C112 C 0.4841(3) 0.5946(6) 0.6266(4)
O24 O 0.4451(2) 0.5497(4) 0.6583(3)
Cu2A Cu 0.88616(6) -0.11072(8) 0.89927(5)
Cu2A_2 Cu -0.11384(6) 0.88928(8) 0.89927(5)
Cu2A_3 Cu 0.88616(6) 0.88928(8) 0.89927(5)
Cu3A Cu 0.64339(5) 0.60916(8) 0.42704(6)
Cu4_2 Cu 0.14493(5) 0.14844(8) 0.67192(6)
O5A O -0.1819(2) 1.0299(4) 0.4324(2)
O10A O -0.0859(2) 0.9738(4) 0.3602(3)
O12A O -0.0430(2) 1.1767(5) 0.3575(3)
O16_2 O 0.2223(2) 1.2014(5) 0.6094(3)
O18_2 O 0.1847(2) 1.2634(4) 0.7187(3)
O19A O -0.1718(3) 1.2022(4) 0.3255(3)
O21A O -0.1368(2) 1.2539(4) 0.4370(3)
O23A O 0.6031(2) 0.4259(4) 1.0238(3)
loop_
_geom_bond_atom_site_label_1
_geom_bond_atom_site_label_2
_geom_bond_site_symmetry_1
_geom_bond_site_symmetry_2
Cu1 O1 1_555 1_555
Cu2 O8 1_555 1_555
Cu3 O4 1_555 1_555
Cu4 O2 1_555 1_555
O1 C14 1_555 1_555
C1 C2 1_555 1_555
C2 C3 1_555 1_555
C3 C4 1_555 1_555
C4 H1 1_555 1_555
H2 C4 1_555 1_555
H3 C4 1_555 1_555
C5 C3 1_555 1_555
H4 C5 1_555 1_555
H5 C5 1_555 1_555
H6 C5 1_555 1_555
C6 C3 1_555 1_555
H7 C6 1_555 1_555
H8 C6 1_555 1_555
H9 C6 1_555 1_555
C7 C2 1_555 1_555
H10 C7 1_555 1_555
C8 C7 1_555 1_555
O2 C8 1_555 1_555
C9 C8 1_555 1_555
C10 C9 1_555 1_555
C11 C10 1_555 1_555
H11 C11 1_555 1_555
H12 C11 1_555 1_555
H13 C11 1_555 1_555
C12 C10 1_555 1_555
H14 C12 1_555 1_555
H15 C12 1_555 1_555
H16 C12 1_555 1_555
C13 C10 1_555 1_555
H17 C13 1_555 1_555
H18 C13 1_555 1_555
H19 C13 1_555 1_555
C14 C1 1_555 1_555
O3 Cu1 1_555 1_555
O4 C28 1_555 1_555
C15 C16 1_555 1_555
C16 C17 1_555 1_555
C17 C18 1_555 1_555
C18 H20 1_555 1_555
H21 C18 1_555 1_555
H22 C18 1_555 1_555
C19 C17 1_555 1_555
H23 C19 1_555 1_555
H24 C19 1_555 1_555
H25 C19 1_555 1_555
C20 C17 1_555 1_555
H26 C20 1_555 1_555
H27 C20 1_555 1_555
H28 C20 1_555 1_555
C21 C16 1_555 1_555
H29 C21 1_555 1_555
C22 C21 1_555 1_555
O5 C22 1_555 1_555
C23 C22 1_555 1_555
C24 C23 1_555 1_555
C25 C24 1_555 1_555
H30 C25 1_555 1_555
H31 C25 1_555 1_555
H32 C25 1_555 1_555
C26 C24 1_555 1_555
H33 C26 1_555 1_555
H34 C26 1_555 1_555
H35 C26 1_555 1_555
C27 C24 1_555 1_555
H36 C27 1_555 1_555
H37 C27 1_555 1_555
H38 C27 1_555 1_555
C28 C15 1_555 1_555
O6 Cu3 1_555 1_555
O7 Cu4 1_555 1_555
C29 O7 1_555 1_555
C30 C29 1_555 1_555
C31 C30 1_555 1_555
C32 C31 1_555 1_555
H39 C32 1_555 1_555
H40 C32 1_555 1_555
H41 C32 1_555 1_555
C33 C31 1_555 1_555
H42 C33 1_555 1_555
H43 C33 1_555 1_555
H44 C33 1_555 1_555
C34 C31 1_555 1_555
H45 C34 1_555 1_555
H46 C34 1_555 1_555
H47 C34 1_555 1_555
C35 C30 1_555 1_555
H48 C35 1_555 1_555
C36 C35 1_555 1_555
O8 C36 1_555 1_555
C37 C36 1_555 1_555
C38 C37 1_555 1_555
C39 C38 1_555 1_555
H49 C39 1_555 1_555
H50 C39 1_555 1_555
H51 C39 1_555 1_555
C40 C38 1_555 1_555
H52 C40 1_555 1_555
H53 C40 1_555 1_555
H54 C40 1_555 1_555
C41 C38 1_555 1_555
H55 C41 1_555 1_555
H56 C41 1_555 1_555
H57 C41 1_555 1_555
C42 C29 1_555 1_555
O9 Cu4 1_555 1_555
O10 C56 1_555 1_555
C43 C44 1_555 1_555
C44 C45 1_555 1_555
C45 C46 1_555 1_555
C46 H58 1_555 1_555
H59 C46 1_555 1_555
H60 C46 1_555 1_555
C47 C45 1_555 1_555
H61 C47 1_555 1_555
H62 C47 1_555 1_555
H63 C47 1_555 1_555
C48 C45 1_555 1_555
H64 C48 1_555 1_555
H65 C48 1_555 1_555
H66 C48 1_555 1_555
C49 C44 1_555 1_555
H67 C49 1_555 1_555
C50 C49 1_555 1_555
O11 Cu4 1_555 1_555
C51 C50 1_555 1_555
C52 C51 1_555 1_555
C53 C52 1_555 1_555
H68 C53 1_555 1_555
H69 C53 1_555 1_555
H70 C53 1_555 1_555
C54 C52 1_555 1_555
H71 C54 1_555 1_555
H72 C54 1_555 1_555
H73 C54 1_555 1_555
C55 C52 1_555 1_555
H74 C55 1_555 1_555
H75 C55 1_555 1_555
H76 C55 1_555 1_555
C56 C43 1_555 1_555
O12 C43 1_555 1_555
O13 Cu3 1_555 1_555
C57 O13 1_555 1_555
C58 C57 1_555 1_555
C59 C58 1_555 1_555
C60 C59 1_555 1_555
H77 C60 1_555 1_555
H78 C60 1_555 1_555
H79 C60 1_555 1_555
C61 C59 1_555 1_555
H80 C61 1_555 1_555
H81 C61 1_555 1_555
H82 C61 1_555 1_555
C62 C59 1_555 1_555
H83 C62 1_555 1_555
H84 C62 1_555 1_555
H85 C62 1_555 1_555
C63 C58 1_555 1_555
H86 C63 1_555 1_555
C64 C63 1_555 1_555
O14 Cu1 1_555 1_555
C65 C66 1_555 1_555
C66 C64 1_555 1_555
C67 C65 1_555 1_555
H87 C67 1_555 1_555
H88 C67 1_555 1_555
H89 C67 1_555 1_555
C68 C65 1_555 1_555
H90 C68 1_555 1_555
H91 C68 1_555 1_555
H92 C68 1_555 1_555
C69 C65 1_555 1_555
H93 C69 1_555 1_555
H94 C69 1_555 1_555
H95 C69 1_555 1_555
C70 C57 1_555 1_555
O15 Cu3 1_555 1_555
O16 C71 1_555 1_555
C71 C72 1_555 1_555
C72 C73 1_555 1_555
C73 C74 1_555 1_555
C74 H96 1_555 1_555
H97 C74 1_555 1_555
H98 C74 1_555 1_555
C75 C73 1_555 1_555
H99 C75 1_555 1_555
H100 C75 1_555 1_555
H101 C75 1_555 1_555
C76 C73 1_555 1_555
H102 C76 1_555 1_555
H103 C76 1_555 1_555
H104 C76 1_555 1_555
C77 C72 1_555 1_555
H105 C77 1_555 1_555
C78 C77 1_555 1_555
O17 Cu1 1_555 1_555
C79 C78 1_555 1_555
C80 C79 1_555 1_555
C81 C80 1_555 1_555
H106 C81 1_555 1_555
H107 C81 1_555 1_555
H108 C81 1_555 1_555
C82 C80 1_555 1_555
H109 C82 1_555 1_555
H110 C82 1_555 1_555
H111 C82 1_555 1_555
C83 C80 1_555 1_555
H112 C83 1_555 1_555
H113 C83 1_555 1_555
H114 C83 1_555 1_555
C84 C71 1_555 1_555
O18 C84 1_555 1_555
O19 C85 1_555 1_555
C85 C86 1_555 1_555
C86 C87 1_555 1_555
C87 C88 1_555 1_555
C88 H115 1_555 1_555
H116 C88 1_555 1_555
H117 C88 1_555 1_555
C89 C87 1_555 1_555
H118 C89 1_555 1_555
H119 C89 1_555 1_555
H120 C89 1_555 1_555
C90 C87 1_555 1_555
H121 C90 1_555 1_555
H122 C90 1_555 1_555
H123 C90 1_555 1_555
C91 C86 1_555 1_555
H124 C91 1_555 1_555
C92 C91 1_555 1_555
O20 Cu3 1_555 1_555
C93 C92 1_555 1_555
C94 C93 1_555 1_555
C95 C94 1_555 1_555
H125 C95 1_555 1_555
H126 C95 1_555 1_555
H127 C95 1_555 1_555
C96 C94 1_555 1_555
H128 C96 1_555 1_555
H129 C96 1_555 1_555
H130 C96 1_555 1_555
C97 C94 1_555 1_555
H131 C97 1_555 1_555
H132 C97 1_555 1_555
H133 C97 1_555 1_555
C98 C85 1_555 1_555
O21 C98 1_555 1_555
O22 Cu1 1_555 1_555
C99 O22 1_555 1_555
C100 C99 1_555 1_555
C101 C100 1_555 1_555
C102 C101 1_555 1_555
H134 C102 1_555 1_555
H135 C102 1_555 1_555
H136 C102 1_555 1_555
C103 C101 1_555 1_555
H137 C103 1_555 1_555
H138 C103 1_555 1_555
H139 C103 1_555 1_555
C104 C101 1_555 1_555
H140 C104 1_555 1_555
H141 C104 1_555 1_555
H142 C104 1_555 1_555
C105 C100 1_555 1_555
H143 C105 1_555 1_555
C106 C105 1_555 1_555
O23 C106 1_555 1_555
C107 C106 1_555 1_555
C108 C107 1_555 1_555
C109 C108 1_555 1_555
H144 C109 1_555 1_555
H145 C109 1_555 1_555
H146 C109 1_555 1_555
C110 C108 1_555 1_555
H147 C110 1_555 1_555
H148 C110 1_555 1_555
H149 C110 1_555 1_555
C111 C108 1_555 1_555
H150 C111 1_555 1_555
H151 C111 1_555 1_555
H152 C111 1_555 1_555
C112 C99 1_555 1_555
O24 Cu1 1_555 1_555
Cu2A O5 1_555 1_555
Cu2A_2 O10 1_555 1_555
Cu2A_3 O19 1_555 1_555
Cu3A O23 1_555 1_555
Cu4_2 O16 1_555 1_555
O5A Cu2 1_555 1_555
O10A Cu2 1_555 1_555
O12A Cu2 1_555 1_555
O16_2 Cu4 1_555 1_555
O18_2 Cu4 1_555 1_555
O19A Cu2 1_555 1_555
O21A Cu2 1_555 1_555
O23A Cu3 1_555 1_555
C1 O3 1_555 1_555
C9 C14 1_555 1_555
C15 O6 1_555 1_555
C23 C28 1_555 1_555
C37 C42 1_555 1_555
C42 O9 1_555 1_555
C50 O11 1_555 1_555
C51 C56 1_555 1_555
O12 Cu2A_2 1_555 1_555
C64 O14 1_555 1_555
C66 C70 1_555 1_555
C70 O15 1_555 1_555
C78 O17 1_555 1_555
C79 C84 1_555 1_555
O18 Cu4_2 1_555 1_555
C92 O20 1_555 1_555
C93 C98 1_555 1_555
O21 Cu2A_3 1_555 1_555
C107 C112 1_555 1_555
C112 O24 1_555 1_555

#END
