
#######################################################################
#
#                 Cambridge Crystallographic Data Centre
#                                CCDC 
#
#######################################################################
#
# If this CIF has been generated from an entry in the Cambridge 
# Structural Database, then it will include bibliographic, chemical, 
# crystal, experimental, refinement or atomic coordinate data resulting 
# from the CCDC's data processing and validation procedures.
#
#######################################################################

data_EMAHEG
_symmetry_cell_setting           triclinic
_symmetry_space_group_name_H-M   'P -1'
_symmetry_Int_Tables_number      2
_space_group_name_Hall           '-P 1'
loop_
_symmetry_equiv_pos_site_id
_symmetry_equiv_pos_as_xyz
1 x,y,z
2 -x,-y,-z
_cell_length_a                   7.252(4)
_cell_length_b                   11.319(7)
_cell_length_c                   15.859(9)
_cell_angle_alpha                80.714(7)
_cell_angle_beta                 85.325(7)
_cell_angle_gamma                78.239(7)
_cell_volume                     1256.17
loop_
_atom_site_label
_atom_site_type_symbol
_atom_site_fract_x
_atom_site_fract_y
_atom_site_fract_z
Cl1 Cl 0.1192(18) 0.9995(14) 0.3500(6)
O1 O 0.094(4) 0.8917(18) 0.3062(14)
O2 O 0.278(4) 0.958(3) 0.409(2)
O3 O -0.073(3) 1.027(3) 0.3983(18)
O4 O 0.150(5) 1.105(2) 0.2849(15)
Ag1 Ag 0.5000 0.5000 0.5000
Ag2 Ag 0.59520(9) 0.61984(5) 0.09213(3)
Ag3 Ag 0.45468(9) 0.36127(5) 0.13343(4)
Ag4 Ag 0.13584(8) 1.14588(5) -0.03061(4)
N1 N 0.5287(12) 0.4936(7) 0.3695(4)
N2 N 0.5668(10) 0.5482(6) 0.2312(4)
N3 N 0.5291(10) 0.4298(6) 0.2462(4)
N4 N 0.4540(8) 0.7893(5) 0.0154(4)
N5 N 0.4561(8) 0.8013(5) -0.0727(4)
N6 N 0.2805(8) 0.9680(5) -0.0326(4)
N7 N 0.9667(8) 0.3162(5) -0.0269(4)
N8 N 0.7685(8) 0.4669(5) 0.0237(4)
N9 N 0.7565(8) 0.4837(5) -0.0640(4)
C1 C 0.6029(17) 0.7037(9) 0.3178(6)
H1 H 0.6566 0.7415 0.2656
H2 H 0.6896 0.6918 0.3624
H3 H 0.4870 0.7553 0.3335
C2 C 0.5646(13) 0.5838(7) 0.3052(4)
C3 C 0.5093(14) 0.4021(8) 0.3301(5)
C4 C 0.480(2) 0.2834(10) 0.3733(6)
H4 H 0.5986 0.2348 0.3917
H5 H 0.4283 0.2432 0.3347
H6 H 0.3944 0.2939 0.4222
C5 C 0.3018(13) 0.9123(7) 0.1264(5)
H7 H 0.1733 0.9543 0.1321
H8 H 0.3843 0.9611 0.1414
H9 H 0.3186 0.8356 0.1637
C6 C 0.3461(9) 0.8907(6) 0.0378(5)
C7 C 0.3532(10) 0.9094(6) -0.0993(4)
C8 C 0.3143(14) 0.9560(8) -0.1888(6)
H10 H 0.2127 0.9229 -0.2048
H11 H 0.4250 0.9324 -0.2243
H12 H 0.2795 1.0434 -0.1960
C9 C 0.9532(12) 0.3126(7) 0.1315(5)
H13 H 0.8691 0.3530 0.1726
H14 H 1.0795 0.3223 0.1381
H15 H 0.9483 0.2273 0.1407
C10 C 0.8961(10) 0.3666(6) 0.0446(5)
C11 C 0.8780(10) 0.3920(6) -0.0915(5)
C12 C 0.9157(12) 0.3782(8) -0.1826(5)
H16 H 0.8392 0.4448 -0.2171
H17 H 0.8860 0.3026 -0.1919
H18 H 1.0465 0.3782 -0.1980
Ag2A Ag 0.40480(9) 0.38016(5) 0.90787(3)
Ag2A_2 Ag 0.40480(9) 0.38016(5) -0.09213(3)
Ag3A Ag 0.54532(9) 0.63873(5) 0.86657(4)
Ag3A_2 Ag 0.54532(9) 0.63873(5) -0.13343(4)
Ag4A Ag 0.86416(8) -0.14588(5) 0.03061(4)
Ag4_2 Ag 1.13584(8) 0.14588(5) -0.03061(4)
Ag4A_2 Ag -0.13584(8) 0.85412(5) 0.03061(4)
N1A N 0.4713(12) 0.5064(7) 0.6305(4)
N2A N 0.4332(10) 0.4518(6) 0.7688(4)
N3A N 0.4709(10) 0.5702(6) 0.7538(4)
N4A N 0.5460(8) 0.2107(5) -0.0154(4)
N4A_2 N 0.5460(8) 0.2107(5) 0.9846(4)
N5A N 0.5439(8) 0.1987(5) 0.0727(4)
N5_2 N 0.4561(8) 0.8013(5) 0.9273(4)
N6A N 0.7195(8) 0.0320(5) 0.0326(4)
N7A N 0.0333(8) 0.6838(5) 0.0269(4)
N7_2 N -0.0333(8) 1.3162(5) -0.0269(4)
N7A_2 N 1.0333(8) -0.3162(5) 0.0269(4)
N8A N 0.2315(8) 0.5331(5) -0.0237(4)
N8A_2 N 0.2315(8) 0.5331(5) 0.9763(4)
N9A N 0.2435(8) 0.5163(5) 0.0640(4)
N9_2 N 0.7565(8) 0.4837(5) 0.9360(4)
C1A C 0.3971(17) 0.2963(9) 0.6822(6)
H1A H 0.3434 0.2585 0.7344
H2A H 0.3104 0.3082 0.6376
H3A H 0.5130 0.2447 0.6665
C2A C 0.4354(13) 0.4162(7) 0.6948(4)
C3A C 0.4907(14) 0.5979(8) 0.6699(5)
C4A C 0.520(2) 0.7166(10) 0.6267(6)
H4A H 0.4014 0.7652 0.6083
H5A H 0.5717 0.7568 0.6653
H6A H 0.6056 0.7061 0.5778
C5A C 0.6982(13) 0.0877(7) -0.1264(5)
H7A H 0.8267 0.0457 -0.1321
H8A H 0.6157 0.0389 -0.1414
H9A H 0.6814 0.1644 -0.1637
C6A C 0.6539(9) 0.1093(6) -0.0378(5)
C7A C 0.6468(10) 0.0906(6) 0.0993(4)
C8A C 0.6857(14) 0.0440(8) 0.1888(6)
H10A H 0.7873 0.0771 0.2048
H11A H 0.5750 0.0676 0.2243
H12A H 0.7205 -0.0434 0.1960
C9A C 0.0468(12) 0.6874(7) -0.1315(5)
H13A H 0.1309 0.6470 -0.1726
H14A H -0.0795 0.6777 -0.1381
H15A H 0.0517 0.7727 -0.1407
C10A C 0.1039(10) 0.6334(6) -0.0446(5)
C11A C 0.1220(10) 0.6080(6) 0.0915(5)
C12A C 0.0843(12) 0.6218(8) 0.1826(5)
H16A H 0.1608 0.5552 0.2171
H17A H 0.1140 0.6974 0.1919
H18A H -0.0465 0.6218 0.1980
O5 O 0.975(4) 0.381(4) 0.495(5)
O6? O 1.026(3) 0.502(5) 0.4243(12)
loop_
_geom_bond_atom_site_label_1
_geom_bond_atom_site_label_2
_geom_bond_site_symmetry_1
_geom_bond_site_symmetry_2
Cl1 O1 1_555 1_555
Ag1 N1 1_555 1_555
Ag2 N2 1_555 1_555
Ag3 N3 1_555 1_555
Ag4 N6 1_555 1_555
N1 C2 1_555 1_555
N2 N3 1_555 1_555
N3 C3 1_555 1_555
N4 Ag2 1_555 1_555
N5 N4 1_555 1_555
N6 C6 1_555 1_555
N7 C10 1_555 1_555
N8 Ag2 1_555 1_555
N9 N8 1_555 1_555
C1 H1 1_555 1_555
H2 C1 1_555 1_555
H3 C1 1_555 1_555
C2 N2 1_555 1_555
C3 N1 1_555 1_555
C4 C3 1_555 1_555
H4 C4 1_555 1_555
H5 C4 1_555 1_555
H6 C4 1_555 1_555
C5 H7 1_555 1_555
H8 C5 1_555 1_555
H9 C5 1_555 1_555
C6 N4 1_555 1_555
C7 N5 1_555 1_555
C8 C7 1_555 1_555
H10 C8 1_555 1_555
H11 C8 1_555 1_555
H12 C8 1_555 1_555
C9 H13 1_555 1_555
H14 C9 1_555 1_555
H15 C9 1_555 1_555
C10 N8 1_555 1_555
C11 N7 1_555 1_555
C12 C11 1_555 1_555
H16 C12 1_555 1_555
H17 C12 1_555 1_555
H18 C12 1_555 1_555
O2 Cl1 1_555 1_555
O3 Cl1 1_555 1_555
O4 Cl1 1_555 1_555
Ag2A N2A 1_555 1_555
Ag2A_2 N4A 1_555 1_555
Ag3A N3A 1_555 1_555
Ag3A_2 N5 1_555 1_555
Ag4A N6A 1_555 1_555
Ag4_2 N7 1_555 1_555
Ag4A_2 N7A 1_555 1_555
N1A Ag1 1_555 1_555
N2A N3A 1_555 1_555
N3A C3A 1_555 1_555
N4A N5A 1_555 1_555
N4A_2 Ag2A 1_555 1_555
N5A Ag3 1_555 1_555
N5_2 Ag3A 1_555 1_555
N6A C6A 1_555 1_555
N7A C10A 1_555 1_555
N7_2 Ag4 1_555 1_555
N7A_2 Ag4A 1_555 1_555
N8A Ag2A_2 1_555 1_555
N8A_2 Ag2A 1_555 1_555
N9A Ag3 1_555 1_555
N9_2 Ag3A 1_555 1_555
C1A H1A 1_555 1_555
H2A C1A 1_555 1_555
H3A C1A 1_555 1_555
C2A N1A 1_555 1_555
C3A N1A 1_555 1_555
C4A C3A 1_555 1_555
H4A C4A 1_555 1_555
H5A C4A 1_555 1_555
H6A C4A 1_555 1_555
C5A H7A 1_555 1_555
H8A C5A 1_555 1_555
H9A C5A 1_555 1_555
C6A N4A 1_555 1_555
C7A N5A 1_555 1_555
C8A C7A 1_555 1_555
H10A C8A 1_555 1_555
H11A C8A 1_555 1_555
H12A C8A 1_555 1_555
C9A H13A 1_555 1_555
H14A C9A 1_555 1_555
H15A C9A 1_555 1_555
C10A N8A 1_555 1_555
C11A N7A 1_555 1_555
C12A C11A 1_555 1_555
H16A C12A 1_555 1_555
H17A C12A 1_555 1_555
H18A C12A 1_555 1_555
N6 C7 1_555 1_555
N9 C11 1_555 1_555
N9 Ag3A_2 1_555 1_555
C1 C2 1_555 1_555
C5 C6 1_555 1_555
C9 C10 1_555 1_555
N2A C2A 1_555 1_555
N6A C7A 1_555 1_555
N8A N9A 1_555 1_555
N9A C11A 1_555 1_555
C1A C2A 1_555 1_555
C5A C6A 1_555 1_555
C9A C10A 1_555 1_555

#END
