
#######################################################################
#
#                 Cambridge Crystallographic Data Centre
#                                CCDC 
#
#######################################################################
#
# If this CIF has been generated from an entry in the Cambridge 
# Structural Database, then it will include bibliographic, chemical, 
# crystal, experimental, refinement or atomic coordinate data resulting 
# from the CCDC's data processing and validation procedures.
#
#######################################################################

data_EMAHAC
_symmetry_cell_setting           triclinic
_symmetry_space_group_name_H-M   'P -1'
_symmetry_Int_Tables_number      2
_space_group_name_Hall           '-P 1'
loop_
_symmetry_equiv_pos_site_id
_symmetry_equiv_pos_as_xyz
1 x,y,z
2 -x,-y,-z
_cell_length_a                   7.4290(3)
_cell_length_b                   14.1167(6)
_cell_length_c                   16.1356(7)
_cell_angle_alpha                68.734(1)
_cell_angle_beta                 80.866(1)
_cell_angle_gamma                81.606(1)
_cell_volume                     1549.76
loop_
_atom_site_label
_atom_site_type_symbol
_atom_site_fract_x
_atom_site_fract_y
_atom_site_fract_z
Cu1 Cu 0.17737(6) 0.06101(3) 0.66400(3)
Cu2 Cu 1.27167(5) -0.60195(3) 0.43640(2)
Cu3 Cu -0.45697(6) -0.42155(3) 1.13158(2)
Cu4 Cu -0.30243(6) -0.10012(3) 0.89781(3)
N1 N 0.2057(4) 0.1906(2) 0.57209(18)
N2 N 1.3616(4) -0.5390(2) 0.31362(18)
N3 N -0.4265(4) -0.2881(2) 1.04713(18)
N4 N -0.1029(4) -0.0507(2) 0.8101(2)
N5 N 0.4253(4) -0.02928(18) 0.66494(17)
N6 N 1.2414(3) -0.48403(18) 0.48745(16)
N7 N -1.2995(3) 0.48717(19) 1.06464(16)
N8 N -0.5058(3) 0.02180(18) 0.87335(16)
C1 C 0.2280(4) 0.2699(2) 0.52020(18)
C2 C 1.4322(4) -0.4944(2) 0.24448(19)
C3 C -0.3826(4) -0.2156(2) 0.9911(2)
C4 C 0.0027(4) -0.0104(2) 0.7523(2)
C5 C 0.4536(5) -0.1205(2) 0.7281(2)
H1 H 0.3603 -0.1421 0.7744
C6 C 0.6111(5) -0.1844(2) 0.7289(2)
H2 H 0.6212 -0.2474 0.7747
C7 C 0.7554(4) -0.1561(2) 0.66241(19)
C8 C 0.7268(5) -0.0617(3) 0.5976(2)
H3 H 0.8182 -0.0381 0.5507
C9 C 0.5647(5) -0.0021(2) 0.6015(2)
H4 H 0.5515 0.0615 0.5567
C10 C 0.9280(4) -0.2258(2) 0.6635(2)
H5 H 0.9015 -0.2840 0.6505
H6 H 0.9634 -0.2514 0.7236
C11 C 1.0908(4) -0.1802(2) 0.5989(2)
H7 H 1.1189 -0.1219 0.6112
H8 H 1.0581 -0.1558 0.5383
C12 C 1.1919(5) -0.5014(2) 0.5751(2)
H9 H 1.1528 -0.5647 0.6108
C13 C 1.1958(5) -0.4308(3) 0.6144(2)
H10 H 1.1601 -0.4472 0.6755
C14 C 1.2522(4) -0.3355(2) 0.5645(2)
C15 C 1.2972(5) -0.3163(2) 0.4744(2)
H11 H 1.3323 -0.2526 0.4371
C16 C 1.2910(5) -0.3906(2) 0.4390(2)
H12 H 1.3230 -0.3750 0.3777
C17 C 1.2619(4) -0.2563(3) 0.6051(2)
H13 H 1.3673 -0.2189 0.5752
H14 H 1.2804 -0.2904 0.6676
C18 C -1.2665(5) 0.3863(3) 1.1047(2)
H15 H -1.3025 0.3585 1.1658
C19 C -1.1841(6) 0.3219(3) 1.0620(2)
H16 H -1.1608 0.2527 1.0943
C20 C -1.1356(4) 0.3582(3) 0.9723(2)
C21 C -1.1633(4) 0.4624(3) 0.9291(2)
H17 H -1.1273 0.4912 0.8681
C22 C -1.2449(4) 0.5237(2) 0.9774(2)
H18 H -1.2625 0.5937 0.9474
C23 C -1.0673(5) 0.2817(3) 0.9243(2)
H19 H -0.9682 0.2364 0.9546
H20 H -1.1661 0.2405 0.9313
C24 C -1.0032(6) 0.3238(3) 0.8295(2)
H21 H -0.8909 0.3549 0.8221
H22 H -1.0940 0.3767 0.7996
C25 C -0.6742(5) 0.0080(2) 0.9152(2)
H23 H -0.6913 -0.0510 0.9647
C26 C -0.8242(5) 0.0761(2) 0.8893(2)
H24 H -0.9391 0.0622 0.9208
C27 C -0.8052(4) 0.1652(2) 0.8166(2)
C28 C -0.6313(5) 0.1807(2) 0.7749(2)
H25 H -0.6100 0.2403 0.7266
C29 C -0.4879(5) 0.1089(2) 0.8039(2)
H26 H -0.3717 0.1215 0.7735
C30 C -0.9669(5) 0.2399(3) 0.7846(2)
H27 H -1.0749 0.2034 0.7980
H28 H -0.9455 0.2728 0.7201
Cu2_2 Cu 0.27167(5) 0.39805(3) 0.43640(2)
Cu3_2 Cu -1.45697(6) 0.57845(3) 1.13158(2)
Cu3_3 Cu 1.54303(6) -0.42155(3) 0.13158(2)
N7_2 N -0.2995(3) -0.51283(19) 1.06464(16)
C1_2 C 1.2280(4) -0.7301(2) 0.52020(18)
C2_2 C -0.5678(4) -0.4944(2) 1.24448(19)
loop_
_geom_bond_atom_site_label_1
_geom_bond_atom_site_label_2
_geom_bond_site_symmetry_1
_geom_bond_site_symmetry_2
Cu1 N1 1_555 1_555
Cu2 N2 1_555 1_555
Cu3 N3 1_555 1_555
Cu4 N4 1_555 1_555
N1 C1 1_555 1_555
N2 C2 1_555 1_555
N3 C3 1_555 1_555
N4 C4 1_555 1_555
N5 Cu1 1_555 1_555
N6 Cu2 1_555 1_555
N7 C18 1_555 1_555
N8 Cu4 1_555 1_555
C1 Cu2_2 1_555 1_555
C2 Cu3_3 1_555 1_555
C3 Cu4 1_555 1_555
C4 Cu1 1_555 1_555
C5 N5 1_555 1_555
H1 C5 1_555 1_555
C6 C5 1_555 1_555
H2 C6 1_555 1_555
C7 C6 1_555 1_555
C8 C7 1_555 1_555
H3 C8 1_555 1_555
C9 N5 1_555 1_555
H4 C9 1_555 1_555
C10 C7 1_555 1_555
H5 C10 1_555 1_555
H6 C10 1_555 1_555
C11 C10 1_555 1_555
H7 C11 1_555 1_555
H8 C11 1_555 1_555
C12 N6 1_555 1_555
H9 C12 1_555 1_555
C13 C12 1_555 1_555
H10 C13 1_555 1_555
C14 C13 1_555 1_555
C15 C14 1_555 1_555
H11 C15 1_555 1_555
C16 N6 1_555 1_555
H12 C16 1_555 1_555
C17 C11 1_555 1_555
H13 C17 1_555 1_555
H14 C17 1_555 1_555
C18 H15 1_555 1_555
C19 C18 1_555 1_555
H16 C19 1_555 1_555
C20 C19 1_555 1_555
C21 C20 1_555 1_555
H17 C21 1_555 1_555
C22 N7 1_555 1_555
H18 C22 1_555 1_555
C23 C20 1_555 1_555
H19 C23 1_555 1_555
H20 C23 1_555 1_555
C24 C23 1_555 1_555
H21 C24 1_555 1_555
H22 C24 1_555 1_555
C25 N8 1_555 1_555
H23 C25 1_555 1_555
C26 C25 1_555 1_555
H24 C26 1_555 1_555
C27 C26 1_555 1_555
C28 C27 1_555 1_555
H25 C28 1_555 1_555
C29 N8 1_555 1_555
H26 C29 1_555 1_555
C30 C24 1_555 1_555
H27 C30 1_555 1_555
H28 C30 1_555 1_555
Cu3_2 N7 1_555 1_555
N7_2 Cu3 1_555 1_555
C1_2 Cu2 1_555 1_555
C2_2 Cu3 1_555 1_555
C8 C9 1_555 1_555
C14 C17 1_555 1_555
C15 C16 1_555 1_555
C21 C22 1_555 1_555
C27 C30 1_555 1_555
C28 C29 1_555 1_555

#END
