
#######################################################################
#
#                 Cambridge Crystallographic Data Centre
#                                CCDC 
#
#######################################################################
#
# If this CIF has been generated from an entry in the Cambridge 
# Structural Database, then it will include bibliographic, chemical, 
# crystal, experimental, refinement or atomic coordinate data resulting 
# from the CCDC's data processing and validation procedures.
#
#######################################################################

data_EMAHIK
_symmetry_cell_setting           tetragonal
_symmetry_space_group_name_H-M   'I 4/m c m'
_symmetry_Int_Tables_number      140
_space_group_name_Hall           '-I 4 2c'
loop_
_symmetry_equiv_pos_site_id
_symmetry_equiv_pos_as_xyz
1 x,y,z
2 -y,x,z
3 -x,-y,z
4 y,-x,z
5 x,-y,1/2-z
6 y,x,1/2-z
7 -x,y,1/2-z
8 -y,-x,1/2-z
9 1/2+x,1/2+y,1/2+z
10 1/2-y,1/2+x,1/2+z
11 1/2-x,1/2-y,1/2+z
12 1/2+y,1/2-x,1/2+z
13 1/2+x,1/2-y,-z
14 1/2+y,1/2+x,-z
15 1/2-x,1/2+y,-z
16 1/2-y,1/2-x,-z
17 -x,-y,-z
18 y,-x,-z
19 x,y,-z
20 -y,x,-z
21 -x,y,1/2+z
22 -y,-x,1/2+z
23 x,-y,1/2+z
24 y,x,1/2+z
25 1/2-x,1/2-y,1/2-z
26 1/2+y,1/2-x,1/2-z
27 1/2+x,1/2+y,1/2-z
28 1/2-y,1/2+x,1/2-z
29 1/2-x,1/2+y,z
30 1/2-y,1/2-x,z
31 1/2+x,1/2-y,z
32 1/2+y,1/2+x,z
_cell_length_a                   21.816(9)
_cell_length_b                   21.816(9)
_cell_length_c                   6.881(4)
_cell_angle_alpha                90
_cell_angle_beta                 90
_cell_angle_gamma                90
_cell_volume                     3274.93
loop_
_atom_site_label
_atom_site_type_symbol
_atom_site_fract_x
_atom_site_fract_y
_atom_site_fract_z
Cl1 Cl 0.0000 0.0000 0.2500
O1 O 0.1291(6) 0.6291(6) 0.257(4)
Ag1 Ag 0.21242(3) 0.71242(3) 1.0000
Ag2 Ag -0.01873(3) 0.88612(3) 1.0000
C1 C 0.2340(3) 0.8687(4) 1.0000
H1 H 0.2344 0.9129 1.0000
H2 H 0.2531 0.8543 0.8831
C2 C 0.1696(3) 0.8469(3) 1.0000
C3 C 0.0905(3) 0.7899(3) 1.0000
C4 C 0.0505(4) 0.7355(4) 1.0000
H3 H 0.0071 0.7459 1.0000
H4 H 0.0577 0.7101 1.1145
N1 N 0.1525(3) 0.7875(3) 1.0000
N2 N 0.0713(3) 0.8467(3) 1.0000
N3 N 0.1219(3) 0.8839(2) 1.0000
Ag1B Ag -0.21242(3) 1.28758(3) 1.0000
Ag1C Ag -0.28758(3) 0.78758(3) 1.0000
Ag1A Ag 0.28758(3) 1.21242(3) 1.0000
Ag2A Ag 0.11388(3) 0.98127(3) 1.0000
Ag2C Ag -0.11388(3) 1.01873(3) 1.0000
Ag2B Ag 0.01873(3) 1.11388(3) 1.0000
C1A C 0.1313(4) 1.2340(3) 1.0000
C1C C -0.1313(4) 0.7660(3) 1.0000
C1B C -0.2340(3) 1.1313(4) 1.0000
H1A H 0.0871 1.2344 1.0000
H1C H -0.0871 0.7656 1.0000
H1B H -0.2344 1.0871 1.0000
H2R H 0.2531 0.8543 1.1169
H2A H 0.1457 1.2531 0.8831
H2S H 0.1457 1.2531 1.1169
H2C H -0.1457 0.7469 0.8831
H2Q H -0.1457 0.7469 1.1169
H2B H -0.2531 1.1457 0.8831
H2P H -0.2531 1.1457 1.1169
C2A C 0.1531(3) 1.1696(3) 1.0000
C2C C -0.1531(3) 0.8304(3) 1.0000
C2B C -0.1696(3) 1.1531(3) 1.0000
C3A C 0.2101(3) 1.0905(3) 1.0000
C3C C -0.2101(3) 0.9095(3) 1.0000
C3B C -0.0905(3) 1.2101(3) 1.0000
C4A C 0.2645(4) 1.0505(4) 1.0000
C4C C -0.2645(4) 0.9495(4) 1.0000
C4B C -0.0505(4) 1.2645(4) 1.0000
H3A H 0.2541 1.0071 1.0000
H3C H -0.2541 0.9929 1.0000
H3B H -0.0071 1.2541 1.0000
H4R H 0.0577 0.7101 0.8855
H4A H 0.2899 1.0577 1.1145
H4S H 0.2899 1.0577 0.8855
H4C H -0.2899 0.9423 1.1145
H4Q H -0.2899 0.9423 0.8855
H4B H -0.0577 1.2899 1.1145
H4P H -0.0577 1.2899 0.8855
N1A N 0.2125(3) 1.1525(3) 1.0000
N1C N -0.2125(3) 0.8475(3) 1.0000
N1B N -0.1525(3) 1.2125(3) 1.0000
N1M N 0.2875(3) 0.6525(3) 1.0000
N1O N -0.2875(3) 1.3475(3) 1.0000
N2A N 0.1533(3) 1.0713(3) 1.0000
N2C N -0.1533(3) 0.9287(3) 1.0000
N2B N -0.0713(3) 1.1533(3) 1.0000
N3A N 0.1161(2) 1.1219(3) 1.0000
N3C N -0.1161(2) 0.8781(3) 1.0000
N3B N -0.1219(3) 1.1161(2) 1.0000
loop_
_geom_bond_atom_site_label_1
_geom_bond_atom_site_label_2
_geom_bond_site_symmetry_1
_geom_bond_site_symmetry_2
Ag1 N1 1_555 1_555
Ag2 N2 1_555 1_555
C1 H1 1_555 1_555
H2 C1 1_555 1_555
C2 C1 1_555 1_555
C3 C4 1_555 1_555
C4 H3 1_555 1_555
H4 C4 1_555 1_555
N1 C2 1_555 1_555
N2 C3 1_555 1_555
N3 C2 1_555 1_555
Ag1B N1B 1_555 1_555
Ag1C N1C 1_555 1_555
Ag1A N1A 1_555 1_555
Ag2A N3 1_555 1_555
Ag2C N2C 1_555 1_555
Ag2B N2B 1_555 1_555
C1A H1A 1_555 1_555
C1C H1C 1_555 1_555
C1B H1B 1_555 1_555
H2R C1 1_555 1_555
H2A C1A 1_555 1_555
H2S C1A 1_555 1_555
H2C C1C 1_555 1_555
H2Q C1C 1_555 1_555
H2B C1B 1_555 1_555
H2P C1B 1_555 1_555
C2A C1A 1_555 1_555
C2C C1C 1_555 1_555
C2B C1B 1_555 1_555
C3A C4A 1_555 1_555
C3C C4C 1_555 1_555
C3B C4B 1_555 1_555
C4A H3A 1_555 1_555
C4C H3C 1_555 1_555
C4B H3B 1_555 1_555
H4R C4 1_555 1_555
H4A C4A 1_555 1_555
H4S C4A 1_555 1_555
H4C C4C 1_555 1_555
H4Q C4C 1_555 1_555
H4B C4B 1_555 1_555
H4P C4B 1_555 1_555
N1A C2A 1_555 1_555
N1C C2C 1_555 1_555
N1B C2B 1_555 1_555
N1M Ag1 1_555 1_555
N1O Ag1B 1_555 1_555
N2A Ag2A 1_555 1_555
N2C C3C 1_555 1_555
N2B C3B 1_555 1_555
N3A Ag2B 1_555 1_555
N3C Ag2 1_555 1_555
N3B Ag2C 1_555 1_555
C3 N1 1_555 1_555
N2 N3 1_555 1_555
C2A N3A 1_555 1_555
C2C N3C 1_555 1_555
C2B N3B 1_555 1_555
C3A N1A 1_555 1_555
C3A N2A 1_555 1_555
C3C N1C 1_555 1_555
C3B N1B 1_555 1_555
N2A N3A 1_555 1_555
N2C N3C 1_555 1_555
N2B N3B 1_555 1_555

#END
