
#######################################################################
#
#                 Cambridge Crystallographic Data Centre
#                                CCDC 
#
#######################################################################
#
# If this CIF has been generated from an entry in the Cambridge 
# Structural Database, then it will include bibliographic, chemical, 
# crystal, experimental, refinement or atomic coordinate data resulting 
# from the CCDC's data processing and validation procedures.
#
#######################################################################

data_EMANIQ
_symmetry_cell_setting           monoclinic
_symmetry_space_group_name_H-M   'P 21/c'
_symmetry_Int_Tables_number      14
_space_group_name_Hall           '-P 2ybc'
loop_
_symmetry_equiv_pos_site_id
_symmetry_equiv_pos_as_xyz
1 x,y,z
2 x,1/2-y,1/2+z
3 -x,-y,-z
4 -x,1/2+y,1/2-z
_cell_length_a                   11.760(4)
_cell_length_b                   10.392(3)
_cell_length_c                   13.903(4)
_cell_angle_alpha                90.00
_cell_angle_beta                 95.123(5)
_cell_angle_gamma                90.00
_cell_volume                     1692.3
loop_
_atom_site_label
_atom_site_type_symbol
_atom_site_fract_x
_atom_site_fract_y
_atom_site_fract_z
O1 O 0.81796(17) 0.73440(16) 0.26531(16)
Sn1 Sn 0.948979(16) 0.884297(16) 0.274312(14)
C1 C 0.7068(2) 0.4842(2) 0.3324(2)
C2 C 0.6570(3) 0.3929(3) 0.5119(2)
C3 C 0.6806(3) 0.5685(3) 0.4048(2)
H1 H 0.6797 0.6566 0.3929
C4 C 0.6846(3) 0.3069(3) 0.4428(2)
H2 H 0.6872 0.2191 0.4556
C5 C 0.6559(3) 0.5239(3) 0.4942(2)
H3 H 0.6386 0.5814 0.5420
C6 C 0.7086(3) 0.3540(3) 0.3535(2)
H4 H 0.7264 0.2961 0.3061
O2 O 0.93057(18) 0.57754(18) 0.22062(17)
C7 C 0.8353(3) 0.6185(2) 0.2390(2)
C8 C 0.7310(2) 0.5303(2) 0.2317(2)
H5 H 0.7505 0.4541 0.1950
C9 C 0.9668(3) 0.8821(3) 0.1229(2)
H6 H 0.9056 0.9301 0.0897
H7 H 0.9643 0.7948 0.1001
H8 H 1.0385 0.9202 0.1108
C10 C 1.0642(3) 0.7906(3) 0.3786(2)
H9 H 1.0397 0.8039 0.4419
H10 H 1.1394 0.8255 0.3760
H11 H 1.0654 0.7000 0.3650
C11 C 0.8314(3) 1.0096(3) 0.3340(3)
H12 H 0.7826 1.0480 0.2828
H13 H 0.8724 1.0758 0.3706
H14 H 0.7860 0.9616 0.3754
Cl1 Cl 0.62378(10) 0.33632(11) 0.62464(7)
C12 C 0.6269(3) 0.5940(3) 0.1753(2)
H15 H 0.6100 0.6742 0.2083
C13 C 0.5208(3) 0.5088(3) 0.1713(3)
H16 H 0.4579 0.5527 0.1368
H17 H 0.5024 0.4904 0.2357
H18 H 0.5353 0.4298 0.1388
C14 C 0.6549(4) 0.6277(3) 0.0728(3)
H19 H 0.7211 0.6821 0.0760
H20 H 0.5913 0.6720 0.0397
H21 H 0.6699 0.5502 0.0386
O2C O 1.06943(18) 1.07754(18) 0.27938(17)
Sn1C Sn 1.051021(16) 0.384297(16) 0.225688(14)
loop_
_geom_bond_atom_site_label_1
_geom_bond_atom_site_label_2
_geom_bond_site_symmetry_1
_geom_bond_site_symmetry_2
O1 Sn1 1_555 1_555
Sn1 C9 1_555 1_555
C1 C3 1_555 1_555
C2 C4 1_555 1_555
C3 H1 1_555 1_555
C4 H2 1_555 1_555
C5 C2 1_555 1_555
H3 C5 1_555 1_555
C6 C1 1_555 1_555
H4 C6 1_555 1_555
O2 C7 1_555 1_555
C7 O1 1_555 1_555
C8 C1 1_555 1_555
H5 C8 1_555 1_555
C9 H6 1_555 1_555
H7 C9 1_555 1_555
H8 C9 1_555 1_555
C10 Sn1 1_555 1_555
H9 C10 1_555 1_555
H10 C10 1_555 1_555
H11 C10 1_555 1_555
C11 Sn1 1_555 1_555
H12 C11 1_555 1_555
H13 C11 1_555 1_555
H14 C11 1_555 1_555
Cl1 C2 1_555 1_555
C12 C8 1_555 1_555
H15 C12 1_555 1_555
C13 C12 1_555 1_555
H16 C13 1_555 1_555
H17 C13 1_555 1_555
H18 C13 1_555 1_555
C14 C12 1_555 1_555
H19 C14 1_555 1_555
H20 C14 1_555 1_555
H21 C14 1_555 1_555
O2C Sn1 1_555 1_555
Sn1C O2 1_555 1_555
C3 C5 1_555 1_555
C4 C6 1_555 1_555
C7 C8 1_555 1_555

#END
