
#######################################################################
#
#                 Cambridge Crystallographic Data Centre
#                                CCDC 
#
#######################################################################
#
# If this CIF has been generated from an entry in the Cambridge 
# Structural Database, then it will include bibliographic, chemical, 
# crystal, experimental, refinement or atomic coordinate data resulting 
# from the CCDC's data processing and validation procedures.
#
#######################################################################

data_EMANUB
_symmetry_cell_setting           triclinic
_symmetry_space_group_name_H-M   'P -1'
_symmetry_Int_Tables_number      2
_space_group_name_Hall           '-P 1'
loop_
_symmetry_equiv_pos_site_id
_symmetry_equiv_pos_as_xyz
1 x,y,z
2 -x,-y,-z
_cell_length_a                   11.7737(8)
_cell_length_b                   11.7974(8)
_cell_length_c                   15.3172(10)
_cell_angle_alpha                106.5560(10)
_cell_angle_beta                 106.2750(10)
_cell_angle_gamma                92.9830(10)
_cell_volume                     1937.4
loop_
_atom_site_label
_atom_site_type_symbol
_atom_site_fract_x
_atom_site_fract_y
_atom_site_fract_z
Zn1 Zn 0.91916(4) -0.29559(4) -0.06251(3)
Zn2 Zn 0.26780(4) 0.16181(4) -0.39965(3)
Zn3 Zn 1.02491(4) -0.03365(4) -0.24331(3)
O1 O 0.8283(3) -0.1743(3) -0.0962(2)
O2 O 0.9540(3) -0.1232(3) -0.1665(2)
O3 O 1.0039(2) 0.1198(3) -0.1382(2)
O4 O 0.9245(3) 0.2252(3) -0.0321(2)
O5 O 0.4973(4) 0.2583(4) -0.2294(4)
O6 O 0.3984(3) 0.0928(3) -0.3384(3)
O7 O 0.8660(3) -1.0496(3) -0.3594(2)
O8 O 0.8108(3) -1.0160(3) -0.4992(2)
O9 O 1.0984(3) -0.9281(3) -0.3103(2)
O10 O 1.1554(3) -0.7634(3) -0.3373(2)
O11 O 0.9613(3) -0.4278(3) -0.1525(2)
O12 O 0.7734(3) -0.4370(3) -0.2357(3)
N1 N 1.0337(4) -0.2092(3) -0.3382(3)
N2 N 1.2042(3) -0.0222(3) -0.1508(2)
N3 N 0.8235(3) -0.3803(3) -0.0015(3)
N4 N 0.5375(6) -0.6931(5) 0.2242(5)
N5 N 0.3362(3) 0.2879(4) -0.4449(3)
C1 C 0.7686(4) -0.0440(4) -0.1837(3)
C2 C 0.7949(3) 0.0783(3) -0.1641(3)
C3 C 0.7036(4) 0.1423(4) -0.1906(3)
H1 H 0.7185 0.2252 -0.1720
C4 C 0.5892(4) 0.0833(4) -0.2451(3)
C5 C 0.5664(4) -0.0386(4) -0.2684(3)
H2 H 0.4911 -0.0788 -0.3073
C6 C 0.6541(4) -0.1017(4) -0.2347(3)
H3 H 0.6363 -0.1834 -0.2463
C7 C 0.8586(4) -0.1186(3) -0.1468(3)
C8 C 0.9185(3) 0.1445(3) -0.1085(3)
C9 C 0.4893(4) 0.1536(5) -0.2727(4)
C10 C 0.8597(4) -0.8506(3) -0.3634(3)
C11 C 0.9693(3) -0.7782(3) -0.3138(3)
C12 C 0.9716(4) -0.6578(3) -0.2674(3)
H4 H 1.0445 -0.6096 -0.2326
C13 C 0.8665(4) -0.6091(4) -0.2724(3)
C14 C 0.7582(4) -0.6805(4) -0.3273(3)
H5 H 0.6875 -0.6476 -0.3335
C15 C 0.7554(4) -0.8003(4) -0.3726(3)
H6 H 0.6826 -0.8476 -0.4097
C16 C 0.8480(3) -0.9830(4) -0.4092(3)
C17 C 1.0826(3) -0.8278(3) -0.3191(3)
C18 C 0.8653(4) -0.4818(4) -0.2179(3)
C19 C 1.0067(5) -0.4393(4) -0.4670(3)
C20 C 1.0502(7) -0.3394(5) -0.4824(4)
H7 H 1.0733 -0.3467 -0.5368
C21 C 1.0602(6) -0.2281(5) -0.4179(4)
H8 H 1.0876 -0.1621 -0.4320
C22 C 1.2273(4) -0.0622(5) -0.0763(4)
H9 H 1.1632 -0.0957 -0.0633
C23 C 1.3406(4) -0.0573(5) -0.0169(4)
H10 H 1.3514 -0.0903 0.0327
C24 C 1.4380(4) -0.0037(4) -0.0305(3)
C25 C 1.4133(4) 0.0416(6) -0.1057(4)
H11 H 1.4752 0.0810 -0.1174
C26 C 1.2986(4) 0.0297(5) -0.1637(4)
H12 H 1.2859 0.0596 -0.2151
C27 C 0.7585(4) -0.3244(4) 0.0507(4)
H13 H 0.7542 -0.2440 0.0574
C28 C 0.6966(4) -0.3792(4) 0.0956(4)
H14 H 0.6507 -0.3372 0.1307
C29 C 0.7048(4) -0.4987(4) 0.0872(3)
C30 C 0.7711(5) -0.5559(4) 0.0322(4)
H15 H 0.7772 -0.6362 0.0242
C31 C 0.8280(4) -0.4962(4) -0.0107(3)
H16 H 0.8719 -0.5374 -0.0481
C32 C 0.6453(5) -0.5625(5) 0.1363(4)
C33 C 0.5298(5) -0.5531(7) 0.1358(5)
H17 H 0.4867 -0.5018 0.1079
C34 C 0.4786(6) -0.6235(8) 0.1786(5)
H18 H 0.3985 -0.6212 0.1749
C35 C 0.6466(7) -0.6988(6) 0.2238(6)
H19 H 0.6890 -0.7483 0.2544
C36 C 0.7041(6) -0.6373(6) 0.1817(5)
H20 H 0.7827 -0.6460 0.1837
C37 C 0.4637(5) 0.4557(4) -0.4888(3)
C38 C 0.9828(10) -0.4182(5) -0.3844(6)
H21 H 0.9545 -0.4823 -0.3686
C39 C 0.9987(10) -0.3049(5) -0.3217(5)
H22 H 0.9834 -0.2963 -0.2639
C40 C 0.4510(13) 0.4704(7) -0.4085(7)
H23 H 0.4890 0.5404 -0.3596
C41 C 0.3838(13) 0.3882(7) -0.3886(7)
H24 H 0.3731 0.4094 -0.3284
C42 C 0.3569(14) 0.2681(10) -0.5221(7)
H25 H 0.3298 0.1921 -0.5660
C43 C 0.4167(16) 0.3494(11) -0.5483(7)
H26 H 0.4239 0.3283 -0.6096
C19A C 0.9933(5) -0.5607(4) -0.5330(3)
C20A C 0.9498(7) -0.6606(5) -0.5176(4)
H7A H 0.9267 -0.6533 -0.4632
C21A C 0.9398(6) -0.7719(5) -0.5821(4)
N1A N 0.9663(4) -0.7908(3) -0.6618(3)
C39A C 1.0013(10) -0.6951(5) -0.6783(5)
C38A C 1.0172(10) -0.5818(5) -0.6156(6)
H21A H 1.0455 -0.5177 -0.6314
H22A H 1.0166 -0.7037 -0.7361
H8A H 0.9124 -0.8379 -0.5680
C24A C 1.5620(4) 0.0037(4) 0.0305(3)
C23A C 1.6594(4) 0.0573(5) 0.0169(4)
C22A C 1.7727(4) 0.0622(5) 0.0763(4)
N2A N 1.7958(3) 0.0222(3) 0.1508(2)
C26A C 1.7014(4) -0.0297(5) 0.1637(4)
C25A C 1.5867(4) -0.0416(6) 0.1057(4)
H11A H 1.5248 -0.0810 0.1174
H12A H 1.7141 -0.0596 0.2151
H9A H 1.8368 0.0957 0.0633
H10A H 1.6486 0.0903 -0.0327
C37A C 0.5363(5) 0.5443(4) -0.5112(3)
C40A C 0.5490(13) 0.5296(7) -0.5915(7)
H23A H 0.5110 0.4596 -0.6404
C41A C 0.6162(13) 0.6118(7) -0.6114(7)
N5A N 0.6638(3) 0.7121(4) -0.5551(3)
C42A C 0.6431(14) 0.7319(10) -0.4779(7)
H25A H 0.6702 0.8079 -0.4340
C43A C 0.5833(16) 0.6506(11) -0.4517(7)
H26A H 0.5761 0.6717 -0.3904
H24A H 0.6269 0.5906 -0.6716
O1A O 1.1717(3) 0.1743(3) 0.0962(2)
O2A O 1.0460(3) 0.1232(3) 0.1665(2)
O3A O 0.9961(2) -0.1198(3) 0.1382(2)
O4A O 1.0755(3) -0.2252(3) 0.0321(2)
O5A O 1.5027(4) -0.2583(4) 0.2294(4)
O6A O 1.6016(3) -0.0928(3) 0.3384(3)
C1A C 1.2314(4) 0.0440(4) 0.1837(3)
C2A C 1.2051(3) -0.0783(3) 0.1641(3)
C3A C 1.2964(4) -0.1423(4) 0.1906(3)
H1A H 1.2815 -0.2252 0.1720
C4A C 1.4108(4) -0.0833(4) 0.2451(3)
C5A C 1.4336(4) 0.0386(4) 0.2684(3)
H2A H 1.5089 0.0788 0.3073
C6A C 1.3459(4) 0.1017(4) 0.2347(3)
H3A H 1.3637 0.1834 0.2463
C7A C 1.1414(4) 0.1186(3) 0.1468(3)
C8A C 1.0815(3) -0.1445(3) 0.1085(3)
C9A C 1.5107(4) -0.1536(5) 0.2727(4)
Zn1A Zn 1.08084(4) 0.29559(4) 0.06251(3)
Zn2A Zn 1.73220(4) -0.16181(4) 0.39965(3)
Zn3A Zn 0.97509(4) 0.03365(4) 0.24331(3)
O7A O 0.1340(3) 0.0496(3) -0.6406(2)
O8A O 0.1892(3) 0.0160(3) -0.5008(2)
O9A O -0.0984(3) -0.0719(3) -0.6897(2)
O10A O -0.1554(3) -0.2366(3) -0.6627(2)
O11A O 0.0387(3) -0.5722(3) -0.8475(2)
O12A O 0.2266(3) -0.5630(3) -0.7643(3)
C10A C 0.1403(4) -0.1494(3) -0.6366(3)
C11A C 0.0307(3) -0.2218(3) -0.6862(3)
C12A C 0.0284(4) -0.3422(3) -0.7326(3)
H4A H -0.0445 -0.3904 -0.7674
C13A C 0.1335(4) -0.3909(4) -0.7276(3)
C14A C 0.2418(4) -0.3195(4) -0.6727(3)
H5A H 0.3125 -0.3524 -0.6665
C15A C 0.2446(4) -0.1997(4) -0.6274(3)
H6A H 0.3174 -0.1524 -0.5903
C16A C 0.1520(3) -0.0170(4) -0.5908(3)
C17A C -0.0826(3) -0.1722(3) -0.6809(3)
C18A C 0.1347(4) -0.5182(4) -0.7821(3)
N3A N 1.1765(3) 0.3803(3) 0.0015(3)
N4A N 1.4625(6) 0.6931(5) -0.2242(5)
C27A C 1.2415(4) 0.3244(4) -0.0507(4)
H13A H 1.2458 0.2440 -0.0574
C28A C 1.3034(4) 0.3792(4) -0.0956(4)
H14A H 1.3493 0.3372 -0.1307
C29A C 1.2952(4) 0.4987(4) -0.0872(3)
C30A C 1.2289(5) 0.5559(4) -0.0322(4)
H15A H 1.2228 0.6362 -0.0242
C31A C 1.1720(4) 0.4962(4) 0.0107(3)
H16A H 1.1281 0.5374 0.0481
C32A C 1.3547(5) 0.5625(5) -0.1363(4)
C33A C 1.4702(5) 0.5531(7) -0.1358(5)
H17A H 1.5133 0.5018 -0.1079
C34A C 1.5214(6) 0.6235(8) -0.1786(5)
H18A H 1.6015 0.6212 -0.1749
C35A C 1.3534(7) 0.6988(6) -0.2238(6)
H19A H 1.3110 0.7483 -0.2544
C36A C 1.2959(6) 0.6373(6) -0.1817(5)
H20A H 1.2173 0.6460 -0.1837
O10_2 O 0.1554(3) 0.2366(3) -0.3373(2)
O7_2 O 0.8660(3) -0.0496(3) -0.3594(2)
O9_2 O 1.0984(3) 0.0719(3) -0.3103(2)
Zn3_2 Zn 1.02491(4) -1.03365(4) -0.24331(3)
Zn2A_2 Zn 0.73220(4) -1.16181(4) -0.60035(3)
Zn2_2 Zn 1.26780(4) -0.83819(4) -0.39965(3)
Zn3A_2 Zn 0.97509(4) -0.96635(4) -0.75669(3)
Zn3A_3 Zn 1.97509(4) 0.03365(4) 0.24331(3)
Zn2A_3 Zn 0.73220(4) 0.83819(4) -0.60035(3)
O11A_2 O 1.0387(3) 0.4278(3) 0.1525(2)
O8_2 O 1.8108(3) -0.0160(3) 0.5008(2)
O10A_2 O 1.8446(3) -0.2366(3) 0.3373(2)
N5A_2 N 1.6638(3) -0.2879(4) 0.4449(3)
O7A_2 O 1.1340(3) 0.0496(3) 0.3594(2)
O9A_2 O 0.9016(3) -0.0719(3) 0.3103(2)
N1A_2 N 0.9663(4) 0.2092(3) 0.3382(3)
N2A_2 N 0.7958(3) 0.0222(3) 0.1508(2)
Zn3A_4 Zn -0.02491(4) 0.03365(4) -0.75669(3)
Zn2A_4 Zn -0.26780(4) -0.16181(4) -0.60035(3)
Zn1A_2 Zn 0.08084(4) -0.70441(4) -0.93749(3)
loop_
_geom_bond_atom_site_label_1
_geom_bond_atom_site_label_2
_geom_bond_site_symmetry_1
_geom_bond_site_symmetry_2
Zn1 O1 1_555 1_555
Zn2 O6 1_555 1_555
Zn3 O2 1_555 1_555
O1 C7 1_555 1_555
O2 C7 1_555 1_555
O3 Zn3 1_555 1_555
O4 C8 1_555 1_555
O5 C9 1_555 1_555
O6 C9 1_555 1_555
O7 C16 1_555 1_555
O8 C16 1_555 1_555
O9 C17 1_555 1_555
O10 C17 1_555 1_555
O11 Zn1 1_555 1_555
O12 C18 1_555 1_555
N1 Zn3 1_555 1_555
N2 Zn3 1_555 1_555
N3 Zn1 1_555 1_555
N4 C34 1_555 1_555
N5 Zn2 1_555 1_555
C1 C2 1_555 1_555
C2 C3 1_555 1_555
C3 H1 1_555 1_555
C4 C3 1_555 1_555
C5 C4 1_555 1_555
H2 C5 1_555 1_555
C6 C1 1_555 1_555
H3 C6 1_555 1_555
C7 C1 1_555 1_555
C8 O3 1_555 1_555
C9 C4 1_555 1_555
C10 C11 1_555 1_555
C11 C12 1_555 1_555
C12 H4 1_555 1_555
C13 C12 1_555 1_555
C14 C13 1_555 1_555
H5 C14 1_555 1_555
C15 C10 1_555 1_555
H6 C15 1_555 1_555
C16 C10 1_555 1_555
C17 C11 1_555 1_555
C18 O11 1_555 1_555
C19 C20 1_555 1_555
C20 H7 1_555 1_555
C21 N1 1_555 1_555
H8 C21 1_555 1_555
C22 N2 1_555 1_555
H9 C22 1_555 1_555
C23 C22 1_555 1_555
H10 C23 1_555 1_555
C24 C23 1_555 1_555
C25 C24 1_555 1_555
H11 C25 1_555 1_555
C26 N2 1_555 1_555
H12 C26 1_555 1_555
C27 N3 1_555 1_555
H13 C27 1_555 1_555
C28 C27 1_555 1_555
H14 C28 1_555 1_555
C29 C28 1_555 1_555
C30 C29 1_555 1_555
H15 C30 1_555 1_555
C31 N3 1_555 1_555
H16 C31 1_555 1_555
C32 C29 1_555 1_555
C33 C32 1_555 1_555
H17 C33 1_555 1_555
C34 C33 1_555 1_555
H18 C34 1_555 1_555
C35 N4 1_555 1_555
H19 C35 1_555 1_555
C36 C32 1_555 1_555
H20 C36 1_555 1_555
C37 C40 1_555 1_555
C38 C19 1_555 1_555
H21 C38 1_555 1_555
C39 N1 1_555 1_555
H22 C39 1_555 1_555
C40 H23 1_555 1_555
C41 N5 1_555 1_555
H24 C41 1_555 1_555
C42 N5 1_555 1_555
H25 C42 1_555 1_555
C43 C37 1_555 1_555
H26 C43 1_555 1_555
C19A C19 1_555 1_555
C20A C19A 1_555 1_555
H7A C20A 1_555 1_555
C21A C20A 1_555 1_555
N1A C21A 1_555 1_555
C39A N1A 1_555 1_555
C38A C19A 1_555 1_555
H21A C38A 1_555 1_555
H22A C39A 1_555 1_555
H8A C21A 1_555 1_555
C24A C24 1_555 1_555
C23A C24A 1_555 1_555
C22A C23A 1_555 1_555
N2A C22A 1_555 1_555
C26A N2A 1_555 1_555
C25A C24A 1_555 1_555
H11A C25A 1_555 1_555
H12A C26A 1_555 1_555
H9A C22A 1_555 1_555
H10A C23A 1_555 1_555
C37A C37 1_555 1_555
C40A C37A 1_555 1_555
H23A C40A 1_555 1_555
C41A C40A 1_555 1_555
N5A C41A 1_555 1_555
C42A N5A 1_555 1_555
H25A C42A 1_555 1_555
C43A C37A 1_555 1_555
H26A C43A 1_555 1_555
H24A C41A 1_555 1_555
O1A C7A 1_555 1_555
O2A C7A 1_555 1_555
O3A C8A 1_555 1_555
O4A Zn1 1_555 1_555
O5A C9A 1_555 1_555
O6A C9A 1_555 1_555
C1A C2A 1_555 1_555
C2A C3A 1_555 1_555
C3A H1A 1_555 1_555
C4A C3A 1_555 1_555
C5A C4A 1_555 1_555
H2A C5A 1_555 1_555
C6A C1A 1_555 1_555
H3A C6A 1_555 1_555
C7A C1A 1_555 1_555
C8A O4A 1_555 1_555
C9A C4A 1_555 1_555
Zn1A O4 1_555 1_555
Zn2A O6A 1_555 1_555
Zn3A O2A 1_555 1_555
O7A C16A 1_555 1_555
O8A Zn2 1_555 1_555
O9A C17A 1_555 1_555
O10A C17A 1_555 1_555
O11A C18A 1_555 1_555
O12A C18A 1_555 1_555
C10A C11A 1_555 1_555
C11A C12A 1_555 1_555
C12A H4A 1_555 1_555
C13A C12A 1_555 1_555
C14A C13A 1_555 1_555
H5A C14A 1_555 1_555
C15A C10A 1_555 1_555
H6A C15A 1_555 1_555
C16A O8A 1_555 1_555
C17A C11A 1_555 1_555
C18A C13A 1_555 1_555
N3A Zn1A 1_555 1_555
N4A C34A 1_555 1_555
C27A N3A 1_555 1_555
H13A C27A 1_555 1_555
C28A C27A 1_555 1_555
H14A C28A 1_555 1_555
C29A C28A 1_555 1_555
C30A C29A 1_555 1_555
H15A C30A 1_555 1_555
C31A N3A 1_555 1_555
H16A C31A 1_555 1_555
C32A C29A 1_555 1_555
C33A C32A 1_555 1_555
H17A C33A 1_555 1_555
C34A C33A 1_555 1_555
H18A C34A 1_555 1_555
C35A N4A 1_555 1_555
H19A C35A 1_555 1_555
C36A C32A 1_555 1_555
H20A C36A 1_555 1_555
O10_2 Zn2 1_555 1_555
O7_2 Zn3 1_555 1_555
O9_2 Zn3 1_555 1_555
Zn3_2 O7 1_555 1_555
Zn2A_2 O8 1_555 1_555
Zn2_2 O10 1_555 1_555
Zn3A_2 N1A 1_555 1_555
Zn3A_3 N2A 1_555 1_555
Zn2A_3 N5A 1_555 1_555
O11A_2 Zn1A 1_555 1_555
O8_2 Zn2A 1_555 1_555
O10A_2 Zn2A 1_555 1_555
N5A_2 Zn2A 1_555 1_555
O7A_2 Zn3A 1_555 1_555
O9A_2 Zn3A 1_555 1_555
N1A_2 Zn3A 1_555 1_555
N2A_2 Zn3A 1_555 1_555
Zn3A_4 O7A 1_555 1_555
Zn2A_4 O10A 1_555 1_555
Zn1A_2 O11A 1_555 1_555
O9 Zn3_2 1_555 1_555
C2 C8 1_555 1_555
C5 C6 1_555 1_555
C13 C18 1_555 1_555
C14 C15 1_555 1_555
C20 C21 1_555 1_555
C25 C26 1_555 1_555
C30 C31 1_555 1_555
C35 C36 1_555 1_555
C38 C39 1_555 1_555
C40 C41 1_555 1_555
C42 C43 1_555 1_555
C39A C38A 1_555 1_555
C26A C25A 1_555 1_555
C42A C43A 1_555 1_555
O1A Zn1A 1_555 1_555
O3A Zn3A 1_555 1_555
C2A C8A 1_555 1_555
C5A C6A 1_555 1_555
O9A Zn3A_4 1_555 1_555
C10A C16A 1_555 1_555
C14A C15A 1_555 1_555
C30A C31A 1_555 1_555
C35A C36A 1_555 1_555

#END
