
#######################################################################
#
#                 Cambridge Crystallographic Data Centre
#                                CCDC 
#
#######################################################################
#
# If this CIF has been generated from an entry in the Cambridge 
# Structural Database, then it will include bibliographic, chemical, 
# crystal, experimental, refinement or atomic coordinate data resulting 
# from the CCDC's data processing and validation procedures.
#
#######################################################################

data_EMAPEN
_symmetry_cell_setting           orthorhombic
_symmetry_space_group_name_H-M   'P 21 21 21'
_symmetry_Int_Tables_number      19
_space_group_name_Hall           'P 2ac 2ab'
loop_
_symmetry_equiv_pos_site_id
_symmetry_equiv_pos_as_xyz
1 x,y,z
2 1/2-x,-y,1/2+z
3 -x,1/2+y,1/2-z
4 1/2+x,1/2-y,-z
_cell_length_a                   7.953(3)
_cell_length_b                   13.076(6)
_cell_length_c                   18.633(12)
_cell_angle_alpha                90
_cell_angle_beta                 90
_cell_angle_gamma                90
_cell_volume                     1937.71
loop_
_atom_site_label
_atom_site_type_symbol
_atom_site_fract_x
_atom_site_fract_y
_atom_site_fract_z
Sn1 Sn -0.03413(10) -0.80696(4) -0.76411(4)
N1 N -0.0958(14) -0.9663(7) -0.7782(11)
N2 N -0.0662(11) -1.0410(5) -0.7572(5)
N3 N -0.0389(22) -1.1174(8) -0.7374(10)
C1 C -0.0696(19) -0.7986(15) -0.6505(7)
H1 H -0.1062(19) -0.7302(15) -0.6376(7)
H2 H -0.1570(19) -0.8462(15) -0.6363(7)
C2 C 0.0873(18) -0.8232(13) -0.6116(6)
C3 C 0.2049(23) -0.7508(12) -0.5884(7)
H3 H 0.1859(23) -0.6818(12) -0.5976(7)
C4 C 0.3451(22) -0.7790(13) -0.5530(7)
H4 H 0.4200(22) -0.7286(13) -0.5383(7)
C5 C 0.3813(21) -0.8772(13) -0.5379(6)
H5 H 0.4786(21) -0.8948(13) -0.5131(6)
C6 C 0.2692(22) -0.9509(11) -0.5604(7)
H6 H 0.2926(22) -1.0194(11) -0.5515(7)
C7 C 0.1247(17) -0.9254(11) -0.5954(6)
H7 H 0.0497(17) -0.9766(11) -0.6087(6)
C8 C -0.2323(17) -0.7630(8) -0.8361(7)
H8 H -0.3398(17) -0.7827(8) -0.8158(7)
H9 H -0.2318(17) -0.6893(8) -0.8418(7)
C9 C -0.2116(13) -0.8125(8) -0.9075(6)
C10 C -0.2928(15) -0.9018(8) -0.9233(7)
H10 H -0.3597(15) -0.9313(8) -0.8879(7)
C11 C -0.2815(22) -0.9504(10) -0.9882(8)
H11 H -0.3353(22) -1.0123(10) -0.9967(8)
C12 C -0.1890(22) -0.9043(15) -1.0389(9)
H12 H -0.1837(22) -0.9338(15) -1.0842(9)
C13 C -0.1040(18) -0.8176(14) -1.0271(9)
H13 H -0.0371(18) -0.7902(14) -1.0632(9)
C14 C -0.1152(18) -0.7682(10) -0.9607(9)
H14 H -0.0591(18) -0.7069(10) -0.9525(9)
C15 C 0.2213(14) -0.8121(7) -0.8024(6)
H15 H 0.2239(14) -0.7827(7) -0.8502(6)
H16 H 0.2893(14) -0.7687(7) -0.7717(6)
C16 C 0.3009(12) -0.9140(8) -0.8056(5)
C17 C 0.2778(15) -0.9785(8) -0.8642(6)
H17 H 0.2106(15) -0.9574(8) -0.9023(6)
C18 C 0.3521(14) -1.0716(8) -0.8664(6)
H18 H 0.3368(14) -1.1128(8) -0.9066(6)
C19 C 0.4476(16) -1.1064(9) -0.8118(7)
H19 H 0.4975(16) -1.1706(9) -0.8144(7)
C20 C 0.4702(14) -1.0468(9) -0.7530(6)
H20 H 0.5338(14) -1.0712(9) -0.7148(6)
C21 C 0.3994(14) -0.9494(9) -0.7491(5)
H21 H 0.4179(14) -0.9084(9) -0.7091(5)
N3B N 0.0389(22) -0.6174(8) -0.7626(10)
Sn1B Sn 0.03413(10) -1.30696(4) -0.73589(4)
loop_
_geom_bond_atom_site_label_1
_geom_bond_atom_site_label_2
_geom_bond_site_symmetry_1
_geom_bond_site_symmetry_2
Sn1 N1 1_555 1_555
N1 N2 1_555 1_555
N2 N3 1_555 1_555
N3 Sn1B 1_555 1_555
C1 Sn1 1_555 1_555
H1 C1 1_555 1_555
H2 C1 1_555 1_555
C2 C1 1_555 1_555
C3 C2 1_555 1_555
H3 C3 1_555 1_555
C4 C3 1_555 1_555
H4 C4 1_555 1_555
C5 C4 1_555 1_555
H5 C5 1_555 1_555
C6 C5 1_555 1_555
H6 C6 1_555 1_555
C7 C2 1_555 1_555
H7 C7 1_555 1_555
C8 Sn1 1_555 1_555
H8 C8 1_555 1_555
H9 C8 1_555 1_555
C9 C8 1_555 1_555
C10 C9 1_555 1_555
H10 C10 1_555 1_555
C11 C10 1_555 1_555
H11 C11 1_555 1_555
C12 C11 1_555 1_555
H12 C12 1_555 1_555
C13 C12 1_555 1_555
H13 C13 1_555 1_555
C14 C9 1_555 1_555
H14 C14 1_555 1_555
C15 Sn1 1_555 1_555
H15 C15 1_555 1_555
H16 C15 1_555 1_555
C16 C15 1_555 1_555
C17 C16 1_555 1_555
H17 C17 1_555 1_555
C18 C17 1_555 1_555
H18 C18 1_555 1_555
C19 C18 1_555 1_555
H19 C19 1_555 1_555
C20 C19 1_555 1_555
H20 C20 1_555 1_555
C21 C16 1_555 1_555
H21 C21 1_555 1_555
N3B Sn1 1_555 1_555
C6 C7 1_555 1_555
C13 C14 1_555 1_555
C20 C21 1_555 1_555

#END
