
#######################################################################
#
#                 Cambridge Crystallographic Data Centre
#                                CCDC 
#
#######################################################################
#
# If this CIF has been generated from an entry in the Cambridge 
# Structural Database, then it will include bibliographic, chemical, 
# crystal, experimental, refinement or atomic coordinate data resulting 
# from the CCDC's data processing and validation procedures.
#
#######################################################################

data_EMARIU
_symmetry_cell_setting           monoclinic
_symmetry_space_group_name_H-M   'P 21/n'
_symmetry_Int_Tables_number      14
_space_group_name_Hall           '-P 2yn'
loop_
_symmetry_equiv_pos_site_id
_symmetry_equiv_pos_as_xyz
1 x,y,z
2 1/2-x,1/2+y,1/2-z
3 -x,-y,-z
4 1/2+x,1/2-y,1/2+z
_cell_length_a                   13.915(3)
_cell_length_b                   7.8400(16)
_cell_length_c                   24.160(5)
_cell_angle_alpha                90
_cell_angle_beta                 106.31(3)
_cell_angle_gamma                90
_cell_volume                     2529.63
loop_
_atom_site_label
_atom_site_type_symbol
_atom_site_fract_x
_atom_site_fract_y
_atom_site_fract_z
Cu1 Cu 0.60149(2) 0.55783(3) 0.095599(11)
O1 O 0.73396(14) 0.4112(2) 0.16541(7)
O2 O 0.58595(12) 0.37631(19) 0.03897(6)
H1 H 0.6004 0.3973 0.0082
H2 H 0.5322 0.3208 0.0303
O3 O 0.50304(13) 0.44761(19) 0.12767(7)
O4 O 0.38184(15) 0.5869(2) 0.06396(8)
O5 O 0.69687(13) 0.6696(2) 0.06223(7)
O6 O 0.57718(15) 0.8076(2) -0.00345(8)
O7 O 0.6671(3) 1.1140(3) -0.15682(11)
O8 O 0.04495(19) 0.5788(4) 0.08817(13)
O9 O 0.8205(3) 1.1265(3) -0.15805(11)
O10 O 0.02445(19) 0.4995(3) 0.16900(12)
N1 N 0.89247(15) 0.2519(2) 0.34963(8)
N2 N 0.83927(15) 0.1958(2) 0.16128(8)
N3 N 0.7553(3) 1.0798(3) -0.13690(12)
N4 N 0.0748(2) 0.5137(3) 0.13504(14)
C1 C 0.6653(2) 0.7630(3) 0.01802(11)
C2 C 0.4126(2) 0.4957(3) 0.10632(11)
C3 C 0.86142(18) 0.2221(3) 0.29281(10)
H3 H 0.8439 0.1089 0.2799
C4 C 0.7431(2) 0.8232(3) -0.00994(10)
C5 C 0.33930(18) 0.4362(3) 0.13819(10)
C6 C 0.2418(2) 0.4938(3) 0.12074(11)
H4 H 0.2195 0.5652 0.0879
C7 C 0.85386(17) 0.3489(3) 0.25223(10)
C8 C 0.7148(2) 0.9263(3) -0.05806(10)
H5 H 0.6474 0.9634 -0.0727
C9 C 0.8807(2) 0.5122(3) 0.27232(11)
H6 H 0.8758 0.6034 0.2458
C10 C 0.7865(3) 0.9745(3) -0.08448(11)
C11 C 0.1775(2) 0.4456(3) 0.15204(12)
C12 C 0.9143(2) 0.5426(3) 0.33021(11)
H7 H 0.9340 0.6542 0.3442
C13 C 0.8841(3) 0.9255(4) -0.06437(13)
H8 H 0.9321 0.9618 -0.0832
C14 C 0.2060(2) 0.3415(3) 0.19953(12)
H9 H 0.1606 0.3133 0.2210
C15 C 0.91923(19) 0.4101(3) 0.36797(11)
H10 H 0.9423 0.4315 0.4082
C16 C 0.9120(2) 0.8229(4) -0.01652(13)
H11 H 0.9797 0.7874 -0.0020
C17 C 0.3020(2) 0.2792(3) 0.21498(11)
H12 H 0.3228 0.2025 0.2465
C18 C 0.8416(2) 0.7708(3) 0.01082(11)
H13 H 0.8611 0.6992 0.0438
C19 C 0.3685(2) 0.3273(3) 0.18490(10)
H14 H 0.4352 0.2850 0.1964
C20 C 0.80595(18) 0.3198(3) 0.18903(10)
C21 C 0.9313(2) 0.0989(3) 0.18460(11)
H15 H 0.9682 0.1475 0.2224
H16 H 0.9742 0.1103 0.1583
C22 C 0.7882(2) 0.1682(3) 0.09996(10)
H17 H 0.7163 0.1957 0.0927
H18 H 0.7934 0.0461 0.0907
C23 C 0.9116(3) -0.0892(3) 0.19217(15)
H19 H 0.8794 -0.1027 0.2231
H20 H 0.9752 -0.1516 0.2021
H21 H 0.8676 -0.1345 0.1561
C24 C 0.8306(3) 0.2741(4) 0.06050(12)
H22 H 0.8247 0.3953 0.0689
H23 H 0.7933 0.2509 0.0203
H24 H 0.9013 0.2451 0.0665
Cu1A Cu 0.89851(2) 0.05783(3) 0.404401(11)
N1A N 0.60753(15) 0.7519(2) 0.15037(8)
loop_
_geom_bond_atom_site_label_1
_geom_bond_atom_site_label_2
_geom_bond_site_symmetry_1
_geom_bond_site_symmetry_2
Cu1 O1 1_555 1_555
O1 C20 1_555 1_555
O2 Cu1 1_555 1_555
H1 O2 1_555 1_555
H2 O2 1_555 1_555
O3 Cu1 1_555 1_555
O4 C2 1_555 1_555
O5 Cu1 1_555 1_555
O6 C1 1_555 1_555
O7 N3 1_555 1_555
O8 N4 1_555 1_555
O9 N3 1_555 1_555
O10 N4 1_555 1_555
N1 C3 1_555 1_555
N2 C20 1_555 1_555
N3 C10 1_555 1_555
N4 C11 1_555 1_555
C1 O5 1_555 1_555
C2 O3 1_555 1_555
C3 H3 1_555 1_555
C4 C1 1_555 1_555
C5 C2 1_555 1_555
C6 C5 1_555 1_555
H4 C6 1_555 1_555
C7 C3 1_555 1_555
C8 C4 1_555 1_555
H5 C8 1_555 1_555
C9 C7 1_555 1_555
H6 C9 1_555 1_555
C10 C8 1_555 1_555
C11 C6 1_555 1_555
C12 C9 1_555 1_555
H7 C12 1_555 1_555
C13 C10 1_555 1_555
H8 C13 1_555 1_555
C14 C11 1_555 1_555
H9 C14 1_555 1_555
C15 N1 1_555 1_555
H10 C15 1_555 1_555
C16 C13 1_555 1_555
H11 C16 1_555 1_555
C17 C14 1_555 1_555
H12 C17 1_555 1_555
C18 C4 1_555 1_555
H13 C18 1_555 1_555
C19 C5 1_555 1_555
H14 C19 1_555 1_555
C20 C7 1_555 1_555
C21 N2 1_555 1_555
H15 C21 1_555 1_555
H16 C21 1_555 1_555
C22 N2 1_555 1_555
H17 C22 1_555 1_555
H18 C22 1_555 1_555
C23 C21 1_555 1_555
H19 C23 1_555 1_555
H20 C23 1_555 1_555
H21 C23 1_555 1_555
C24 C22 1_555 1_555
H22 C24 1_555 1_555
H23 C24 1_555 1_555
H24 C24 1_555 1_555
Cu1A N1 1_555 1_555
N1A Cu1 1_555 1_555
C12 C15 1_555 1_555
C16 C18 1_555 1_555
C17 C19 1_555 1_555

#END
