
#######################################################################
#
#                 Cambridge Crystallographic Data Centre
#                                CCDC 
#
#######################################################################
#
# If this CIF has been generated from an entry in the Cambridge 
# Structural Database, then it will include bibliographic, chemical, 
# crystal, experimental, refinement or atomic coordinate data resulting 
# from the CCDC's data processing and validation procedures.
#
#######################################################################

data_EMARUG
_symmetry_cell_setting           monoclinic
_symmetry_space_group_name_H-M   'P 21/n'
_symmetry_Int_Tables_number      14
_space_group_name_Hall           '-P 2yn'
loop_
_symmetry_equiv_pos_site_id
_symmetry_equiv_pos_as_xyz
1 x,y,z
2 1/2-x,1/2+y,1/2-z
3 -x,-y,-z
4 1/2+x,1/2-y,1/2+z
_cell_length_a                   16.122(3)
_cell_length_b                   7.9820(16)
_cell_length_c                   22.601(5)
_cell_angle_alpha                90
_cell_angle_beta                 107.22(3)
_cell_angle_gamma                90
_cell_volume                     2778.06
loop_
_atom_site_label
_atom_site_type_symbol
_atom_site_fract_x
_atom_site_fract_y
_atom_site_fract_z
Cu1 Cu 0.591023(17) 0.56917(3) 0.096299(13)
O1 O 0.86689(11) 0.9447(2) 0.30563(8)
O2 O 0.51461(10) 0.3851(2) 0.05768(7)
H1 H 0.4607 0.4008 0.0471
H2 H 0.5265 0.3249 0.0308
O3 O 0.68845(10) 0.4555(2) 0.07860(8)
O4 O 0.49376(11) 0.6836(2) 0.11258(8)
O5 O 0.65759(11) 0.5669(2) -0.01605(9)
O6 O 0.44046(12) 0.8118(2) 0.02109(9)
O7 O 0.93593(14) 0.0812(3) 0.14951(11)
O8 O 0.3558(3) 0.7568(4) 0.27223(16)
O9 O 1.01122(14) 0.0126(3) 0.08891(11)
O10 O 0.2318(2) 0.8791(5) 0.25238(17)
O11 O 0.98628(18) 0.3993(4) -0.08731(13)
O12 O 0.14315(16) 1.2382(3) 0.06835(19)
O13 O 0.85239(19) 0.4073(4) -0.14433(12)
O14 O 0.18024(19) 1.1546(4) -0.01125(18)
N1 N 0.66522(12) 0.7697(2) 0.12742(9)
N2 N 0.92800(13) 0.7507(3) 0.25838(9)
N3 N 0.95410(14) 0.0931(3) 0.10134(12)
N4 N 0.9083(2) 0.3880(3) -0.09534(14)
N5 N 0.2960(2) 0.8353(5) 0.23910(18)
N6 N 0.18600(18) 1.1503(4) 0.0436(2)
C1 C 0.70209(15) 0.4799(3) 0.02690(12)
C2 C 0.44006(16) 0.7781(3) 0.07437(13)
C3 C 0.73848(15) 0.7494(3) 0.17442(11)
H3 H 0.7561 0.6390 0.1884
C4 C 0.78131(15) 0.3933(3) 0.01800(11)
C5 C 0.37115(15) 0.8554(3) 0.09839(13)
C6 C 0.78913(15) 0.8824(3) 0.20312(11)
C7 C 0.83053(15) 0.2864(3) 0.06276(12)
H4 H 0.8142 0.2640 0.0991
C8 C 0.76254(16) 1.0429(3) 0.18284(12)
H5 H 0.7946 1.1374 0.2028
C9 C 0.90384(16) 0.2119(3) 0.05443(12)
C10 C 0.36547(17) 0.8147(3) 0.15639(14)
H6 H 0.4056 0.7384 0.1821
C11 C 0.3006(2) 0.8863(4) 0.17672(17)
C12 C 0.68890(17) 1.0640(3) 0.13329(13)
H7 H 0.6708 1.1728 0.1178
C13 C 0.93121(17) 0.2448(3) 0.00340(13)
H8 H 0.9830 0.1973 -0.0013
C14 C 0.24122(19) 0.9969(4) 0.1414(2)
H9 H 0.1971 1.0453 0.1560
C15 C 0.64231(16) 0.9256(3) 0.10675(12)
H10 H 0.5919 0.9406 0.0724
C16 C 0.87980(18) 0.3498(3) -0.04038(13)
C17 C 0.24868(17) 1.0342(3) 0.08377(18)
C18 C 0.80444(16) 0.4213(3) -0.03551(12)
H11 H 0.7691 0.4883 -0.0681
C19 C 0.31174(16) 0.9655(3) 0.06081(14)
H12 H 0.3143 0.9929 0.0205
C20 C 0.86611(15) 0.8603(3) 0.25968(11)
C21 C 0.93670(19) 0.6650(4) 0.20341(13)
H13 H 0.9951 0.6876 0.1993
H14 H 0.8933 0.7105 0.1662
C22 C 1.00218(17) 0.7298(4) 0.31439(13)
H15 H 1.0233 0.6128 0.3163
H16 H 0.9824 0.7493 0.3513
C23 C 0.9241(3) 0.4784(4) 0.20623(19)
H17 H 0.9617 0.4350 0.2456
H18 H 0.9391 0.4244 0.1718
H19 H 0.8633 0.4546 0.2031
C24 C 1.0752(2) 0.8452(6) 0.3165(2)
H20 H 1.0972 0.8224 0.2813
H21 H 1.1218 0.8281 0.3552
H22 H 1.0547 0.9613 0.3144
Cu1A Cu 0.908977(17) 1.06917(3) 0.403701(13)
O1A O 0.63311(11) 0.4447(2) 0.19437(8)
loop_
_geom_bond_atom_site_label_1
_geom_bond_atom_site_label_2
_geom_bond_site_symmetry_1
_geom_bond_site_symmetry_2
Cu1 O2 1_555 1_555
O1 C20 1_555 1_555
O2 H1 1_555 1_555
H2 O2 1_555 1_555
O3 Cu1 1_555 1_555
O4 Cu1 1_555 1_555
O5 C1 1_555 1_555
O6 C2 1_555 1_555
O7 N3 1_555 1_555
O8 N5 1_555 1_555
O9 N3 1_555 1_555
O10 N5 1_555 1_555
O11 N4 1_555 1_555
O12 N6 1_555 1_555
O13 N4 1_555 1_555
O14 N6 1_555 1_555
N1 Cu1 1_555 1_555
N2 C20 1_555 1_555
N3 C9 1_555 1_555
N4 C16 1_555 1_555
N5 C11 1_555 1_555
N6 C17 1_555 1_555
C1 O3 1_555 1_555
C2 O4 1_555 1_555
C3 N1 1_555 1_555
H3 C3 1_555 1_555
C4 C1 1_555 1_555
C5 C2 1_555 1_555
C6 C3 1_555 1_555
C7 C4 1_555 1_555
H4 C7 1_555 1_555
C8 C6 1_555 1_555
H5 C8 1_555 1_555
C9 C7 1_555 1_555
C10 C5 1_555 1_555
H6 C10 1_555 1_555
C11 C10 1_555 1_555
C12 C8 1_555 1_555
H7 C12 1_555 1_555
C13 C9 1_555 1_555
H8 C13 1_555 1_555
C14 C11 1_555 1_555
H9 C14 1_555 1_555
C15 N1 1_555 1_555
H10 C15 1_555 1_555
C16 C13 1_555 1_555
C17 C14 1_555 1_555
C18 C4 1_555 1_555
H11 C18 1_555 1_555
C19 C5 1_555 1_555
H12 C19 1_555 1_555
C20 C6 1_555 1_555
C21 N2 1_555 1_555
H13 C21 1_555 1_555
H14 C21 1_555 1_555
C22 N2 1_555 1_555
H15 C22 1_555 1_555
H16 C22 1_555 1_555
C23 C21 1_555 1_555
H17 C23 1_555 1_555
H18 C23 1_555 1_555
H19 C23 1_555 1_555
C24 C22 1_555 1_555
H20 C24 1_555 1_555
H21 C24 1_555 1_555
H22 C24 1_555 1_555
Cu1A O1 1_555 1_555
O1A Cu1 1_555 1_555
C12 C15 1_555 1_555
C16 C18 1_555 1_555
C17 C19 1_555 1_555

#END
