
#######################################################################
#
#                 Cambridge Crystallographic Data Centre
#                                CCDC 
#
#######################################################################
#
# If this CIF has been generated from an entry in the Cambridge 
# Structural Database, then it will include bibliographic, chemical, 
# crystal, experimental, refinement or atomic coordinate data resulting 
# from the CCDC's data processing and validation procedures.
#
#######################################################################

data_EMASUG
_symmetry_cell_setting           monoclinic
_symmetry_space_group_name_H-M   'P 21/a'
_symmetry_Int_Tables_number      14
_space_group_name_Hall           '-P 2yab'
loop_
_symmetry_equiv_pos_site_id
_symmetry_equiv_pos_as_xyz
1 x,y,z
2 1/2+x,1/2-y,z
3 -x,-y,-z
4 1/2-x,1/2+y,-z
_cell_length_a                   6.529(3)
_cell_length_b                   17.811(8)
_cell_length_c                   8.195(4)
_cell_angle_alpha                90
_cell_angle_beta                 105.41(4)
_cell_angle_gamma                90
_cell_volume                     918.72
loop_
_atom_site_label
_atom_site_type_symbol
_atom_site_fract_x
_atom_site_fract_y
_atom_site_fract_z
Cd1 Cd 0.23306(9) 0.78984(4) 0.01855(8)
N1 N -0.1302(10) 0.7970(3) -0.1234(8)
N2 N -0.1953(11) 0.8596(3) -0.1657(9)
N3 N -0.2509(13) 0.9202(4) -0.2016(11)
N4 N 0.0868(12) 0.7074(5) 0.1697(8)
N5 N 0.1564(12) 0.6986(5) 0.3227(7)
N6 N 0.2228(18) 0.6865(6) 0.4641(9)
N7 N 0.2678(12) 0.8843(5) -0.1665(10)
C1 C 0.2557(13) 0.8670(6) -0.3314(11)
H1 H 0.2529(13) 0.8167(6) -0.3628(11)
C2 C 0.2473(14) 0.9214(5) -0.4530(11)
C3 C 0.2594(15) 0.9961(6) -0.4103(12)
H2 H 0.2573(15) 1.0331(6) -0.4909(12)
C4 C 0.2754(15) 1.0152(6) -0.2379(12)
H3 H 0.2856(15) 1.0651(6) -0.2028(12)
C5 C 0.2754(14) 0.9576(6) -0.1249(12)
H4 H 0.2809(14) 0.9702(6) -0.0137(12)
C6 C 0.2300(15) 0.8989(5) -0.6221(12)
N8 N 0.2031(13) 0.8816(5) -0.7614(10)
N1A N 0.3698(10) 0.7030(3) -0.1234(8)
N4A N 0.5868(12) 0.7926(5) 0.1697(8)
N8_2 N 0.2031(13) 0.8816(5) 0.2386(10)
Cd1A Cd -0.26694(9) 0.71016(4) 0.01855(8)
Cd1_2 Cd 0.23306(9) 0.78984(4) -0.98145(8)
loop_
_geom_bond_atom_site_label_1
_geom_bond_atom_site_label_2
_geom_bond_site_symmetry_1
_geom_bond_site_symmetry_2
Cd1 N1 1_555 1_555
N1 N2 1_555 1_555
N2 N3 1_555 1_555
N4 Cd1 1_555 1_555
N5 N4 1_555 1_555
N6 N5 1_555 1_555
N7 Cd1 1_555 1_555
C1 N7 1_555 1_555
H1 C1 1_555 1_555
C2 C1 1_555 1_555
C3 C2 1_555 1_555
H2 C3 1_555 1_555
C4 C3 1_555 1_555
H3 C4 1_555 1_555
C5 N7 1_555 1_555
H4 C5 1_555 1_555
C6 C2 1_555 1_555
N8 C6 1_555 1_555
N1A Cd1 1_555 1_555
N4A Cd1 1_555 1_555
N8_2 Cd1 1_555 1_555
Cd1A N1 1_555 1_555
Cd1_2 N8 1_555 1_555
N4 Cd1A 1_555 1_555
C4 C5 1_555 1_555

#END
