
#######################################################################
#
#                 Cambridge Crystallographic Data Centre
#                                CCDC 
#
#######################################################################
#
# If this CIF has been generated from an entry in the Cambridge 
# Structural Database, then it will include bibliographic, chemical, 
# crystal, experimental, refinement or atomic coordinate data resulting 
# from the CCDC's data processing and validation procedures.
#
#######################################################################

data_EMAVET
_symmetry_cell_setting           monoclinic
_symmetry_space_group_name_H-M   'P 2/c'
_symmetry_Int_Tables_number      13
_space_group_name_Hall           '-P 2yc'
loop_
_symmetry_equiv_pos_site_id
_symmetry_equiv_pos_as_xyz
1 x,y,z
2 x,-y,1/2+z
3 -x,-y,-z
4 -x,y,1/2-z
_cell_length_a                   10.1740(10)
_cell_length_b                   11.817(3)
_cell_length_c                   18.784(4)
_cell_angle_alpha                90
_cell_angle_beta                 102.140(10)
_cell_angle_gamma                90
_cell_volume                     2207.82
loop_
_atom_site_label
_atom_site_type_symbol
_atom_site_fract_x
_atom_site_fract_y
_atom_site_fract_z
Mn1 Mn 0.0000 0.22100(6) 0.2500
Mn2 Mn 0.5000 0.33082(6) 0.2500
P1 P 0.31572(9) 0.25515(8) 0.37180(5)
P2 P -0.19075(9) 0.28668(8) 0.37373(5)
O1 O 0.1873(2) 0.2114(2) 0.32634(12)
O2 O 0.3969(2) 0.34000(19) 0.33971(12)
O3 O -0.3111(2) 0.3387(2) 0.32574(12)
O4 O -0.0995(2) 0.2142(2) 0.34064(12)
N1 N 0.0000 0.4218(3) 0.2500
N2 N 0.0000 1.0243(3) 0.2500
N3 N 0.5000 0.1275(3) 0.2500
N4 N 0.5000 -0.4737(3) 0.2500
C1 C 0.2790(3) 0.3114(3) 0.45533(18)
C2 C 0.3636(4) 0.3897(3) 0.49648(19)
H1 H 0.4388 0.4156 0.4805
C3 C 0.3369(4) 0.4300(3) 0.5618(2)
H2 H 0.3940 0.4825 0.5894
C4 C 0.2257(4) 0.3915(4) 0.5851(2)
H3 H 0.2080 0.4174 0.6289
C5 C 0.1408(4) 0.3151(4) 0.5439(2)
H4 H 0.0644 0.2906 0.5593
C6 C 0.1684(3) 0.2742(3) 0.47928(19)
H5 H 0.1114 0.2212 0.4521
C7 C -0.2439(4) 0.2063(3) 0.44491(19)
C8 C -0.3123(4) 0.2586(4) 0.4911(2)
H6 H -0.3244 0.3365 0.4877
C9 C -0.3640(5) 0.1996(4) 0.5427(2)
H7 H -0.4101 0.2372 0.5734
C10 C -0.3463(5) 0.0871(5) 0.5475(3)
H8 H -0.3809 0.0465 0.5818
C11 C -0.2783(6) 0.0314(4) 0.5027(3)
H9 H -0.2672 -0.0467 0.5062
C12 C -0.2255(5) 0.0921(4) 0.4518(2)
H10 H -0.1772 0.0545 0.4221
C13 C 0.0583(4) 0.4806(3) 0.3079(2)
H11 H 0.0998 0.4409 0.3493
C14 C 0.0615(4) 0.5987(3) 0.3109(2)
H12 H 0.1043 0.6356 0.3531
C15 C 0.0000 0.6603(4) 0.2500
C16 C 0.0000 0.7872(4) 0.2500
C17 C 0.0396(4) 0.8488(3) 0.3136(2)
H13 H 0.0681 0.8118 0.3578
C18 C 0.0366(4) 0.9662(3) 0.31076(19)
H14 H 0.0618 1.0060 0.3542
C19 C 0.6140(4) 0.0677(3) 0.26052(19)
H15 H 0.6949 0.1071 0.2679
C20 C 0.6188(4) -0.0487(3) 0.26104(19)
H16 H 0.7010 -0.0862 0.2687
C21 C 0.5000 -0.1094(4) 0.2500
C22 C 0.5000 -0.2372(4) 0.2500
C23 C 0.6025(3) -0.2980(3) 0.22953(18)
H17 H 0.6732 -0.2606 0.2153
C24 C 0.5983(3) -0.4152(3) 0.23054(19)
H18 H 0.6679 -0.4550 0.2169
H19 H 0.403(3) 0.167(2) 0.3932(14)
H20 H -0.114(3) 0.361(2) 0.4132(14)
C14C C -0.0615(4) 0.5987(3) 0.1891(2)
C13C C -0.0583(4) 0.4806(3) 0.1921(2)
H11C H -0.0998 0.4409 0.1507
H12C H -0.1043 0.6356 0.1469
C18C C -0.0366(4) 0.9662(3) 0.18924(19)
C17C C -0.0396(4) 0.8488(3) 0.1864(2)
H13C H -0.0681 0.8118 0.1422
H14C H -0.0618 1.0060 0.1458
C20C C 0.3812(4) -0.0487(3) 0.23896(19)
C19C C 0.3860(4) 0.0677(3) 0.23948(19)
H15C H 0.3051 0.1071 0.2321
H16C H 0.2990 -0.0862 0.2313
C24C C 0.4017(3) -0.4152(3) 0.26946(19)
C23C C 0.3975(3) -0.2980(3) 0.27047(18)
H17C H 0.3268 -0.2606 0.2847
H18C H 0.3321 -0.4550 0.2831
P1C P -0.31572(9) 0.25515(8) 0.12820(5)
O1C O -0.1873(2) 0.2114(2) 0.17366(12)
O2C O -0.3969(2) 0.34000(19) 0.16029(12)
C1C C -0.2790(3) 0.3114(3) 0.04467(18)
C2C C -0.3636(4) 0.3897(3) 0.00352(19)
H1C H -0.4388 0.4156 0.0195
C3C C -0.3369(4) 0.4300(3) -0.0618(2)
H2C H -0.3940 0.4825 -0.0894
C4C C -0.2257(4) 0.3915(4) -0.0851(2)
H3C H -0.2080 0.4174 -0.1289
C5C C -0.1408(4) 0.3151(4) -0.0439(2)
H4C H -0.0644 0.2906 -0.0593
C6C C -0.1684(3) 0.2742(3) 0.02072(19)
H5C H -0.1114 0.2212 0.0479
H19C H -0.403(3) 0.167(2) 0.1068(14)
P2C P 0.19075(9) 0.28668(8) 0.12627(5)
O3C O 0.3111(2) 0.3387(2) 0.17426(12)
O4C O 0.0995(2) 0.2142(2) 0.15936(12)
C7C C 0.2439(4) 0.2063(3) 0.05509(19)
C8C C 0.3123(4) 0.2586(4) 0.0089(2)
H6C H 0.3244 0.3365 0.0123
C9C C 0.3640(5) 0.1996(4) -0.0427(2)
H7C H 0.4101 0.2372 -0.0734
C10C C 0.3463(5) 0.0871(5) -0.0475(3)
H8C H 0.3809 0.0465 -0.0818
C11C C 0.2783(6) 0.0314(4) -0.0027(3)
H9C H 0.2672 -0.0467 -0.0062
C12C C 0.2255(5) 0.0921(4) 0.0482(2)
H10C H 0.1772 0.0545 0.0779
H20C H 0.114(3) 0.361(2) 0.0868(14)
N2_2 N 0.0000 0.0243(3) 0.2500
O2C_2 O 0.6031(2) 0.34000(19) 0.16029(12)
O3_2 O 0.6889(2) 0.3387(2) 0.32574(12)
N4_2 N 0.5000 0.5263(3) 0.2500
Mn2_2 Mn -0.5000 0.33082(6) 0.2500
Mn1_2 Mn 0.0000 1.22100(6) 0.2500
Mn2_3 Mn 0.5000 -0.66918(6) 0.2500
loop_
_geom_bond_atom_site_label_1
_geom_bond_atom_site_label_2
_geom_bond_site_symmetry_1
_geom_bond_site_symmetry_2
Mn1 O1 1_555 1_555
Mn2 O2 1_555 1_555
P1 O1 1_555 1_555
P2 O3 1_555 1_555
O2 P1 1_555 1_555
O3 Mn2_2 1_555 1_555
O4 Mn1 1_555 1_555
N1 Mn1 1_555 1_555
N2 C18 1_555 1_555
N3 Mn2 1_555 1_555
N4 C24 1_555 1_555
C1 P1 1_555 1_555
C2 C1 1_555 1_555
H1 C2 1_555 1_555
C3 C2 1_555 1_555
H2 C3 1_555 1_555
C4 C3 1_555 1_555
H3 C4 1_555 1_555
C5 C4 1_555 1_555
H4 C5 1_555 1_555
C6 C1 1_555 1_555
H5 C6 1_555 1_555
C7 P2 1_555 1_555
C8 C7 1_555 1_555
H6 C8 1_555 1_555
C9 C8 1_555 1_555
H7 C9 1_555 1_555
C10 C9 1_555 1_555
H8 C10 1_555 1_555
C11 C10 1_555 1_555
H9 C11 1_555 1_555
C12 C7 1_555 1_555
H10 C12 1_555 1_555
C13 N1 1_555 1_555
H11 C13 1_555 1_555
C14 C13 1_555 1_555
H12 C14 1_555 1_555
C15 C14 1_555 1_555
C16 C15 1_555 1_555
C17 C16 1_555 1_555
H13 C17 1_555 1_555
C18 C17 1_555 1_555
H14 C18 1_555 1_555
C19 N3 1_555 1_555
H15 C19 1_555 1_555
C20 C19 1_555 1_555
H16 C20 1_555 1_555
C21 C20 1_555 1_555
C22 C21 1_555 1_555
C23 C22 1_555 1_555
H17 C23 1_555 1_555
C24 C23 1_555 1_555
H18 C24 1_555 1_555
H19 P1 1_555 1_555
H20 P2 1_555 1_555
C14C C15 1_555 1_555
C13C N1 1_555 1_555
H11C C13C 1_555 1_555
H12C C14C 1_555 1_555
C18C N2 1_555 1_555
C17C C16 1_555 1_555
H13C C17C 1_555 1_555
H14C C18C 1_555 1_555
C20C C21 1_555 1_555
C19C N3 1_555 1_555
H15C C19C 1_555 1_555
H16C C20C 1_555 1_555
C24C N4 1_555 1_555
C23C C22 1_555 1_555
H17C C23C 1_555 1_555
H18C C24C 1_555 1_555
P1C O1C 1_555 1_555
O1C Mn1 1_555 1_555
O2C P1C 1_555 1_555
C1C P1C 1_555 1_555
C2C C1C 1_555 1_555
H1C C2C 1_555 1_555
C3C C2C 1_555 1_555
H2C C3C 1_555 1_555
C4C C3C 1_555 1_555
H3C C4C 1_555 1_555
C5C C4C 1_555 1_555
H4C C5C 1_555 1_555
C6C C1C 1_555 1_555
H5C C6C 1_555 1_555
H19C P1C 1_555 1_555
P2C O3C 1_555 1_555
O3C Mn2 1_555 1_555
O4C Mn1 1_555 1_555
C7C P2C 1_555 1_555
C8C C7C 1_555 1_555
H6C C8C 1_555 1_555
C9C C8C 1_555 1_555
H7C C9C 1_555 1_555
C10C C9C 1_555 1_555
H8C C10C 1_555 1_555
C11C C10C 1_555 1_555
H9C C11C 1_555 1_555
C12C C7C 1_555 1_555
H10C C12C 1_555 1_555
H20C P2C 1_555 1_555
N2_2 Mn1 1_555 1_555
O2C_2 Mn2 1_555 1_555
O3_2 Mn2 1_555 1_555
N4_2 Mn2 1_555 1_555
Mn2_2 O2C 1_555 1_555
Mn1_2 N2 1_555 1_555
Mn2_3 N4 1_555 1_555
P2 O4 1_555 1_555
C5 C6 1_555 1_555
C11 C12 1_555 1_555
C14C C13C 1_555 1_555
C18C C17C 1_555 1_555
C20C C19C 1_555 1_555
C24C C23C 1_555 1_555
C5C C6C 1_555 1_555
P2C O4C 1_555 1_555
C11C C12C 1_555 1_555

#END
