
#######################################################################
#
#                 Cambridge Crystallographic Data Centre
#                                CCDC 
#
#######################################################################
#
# If this CIF has been generated from an entry in the Cambridge 
# Structural Database, then it will include bibliographic, chemical, 
# crystal, experimental, refinement or atomic coordinate data resulting 
# from the CCDC's data processing and validation procedures.
#
#######################################################################

data_EMAYUM
_symmetry_cell_setting           monoclinic
_symmetry_space_group_name_H-M   'C 2/c'
_symmetry_Int_Tables_number      15
_space_group_name_Hall           '-C 2yn'
loop_
_symmetry_equiv_pos_site_id
_symmetry_equiv_pos_as_xyz
1 x,y,z
2 1/2+x,1/2+y,z
3 -x,y,1/2-z
4 1/2-x,1/2+y,1/2-z
5 -x,-y,-z
6 1/2-x,1/2-y,-z
7 x,-y,1/2+z
8 1/2+x,1/2-y,1/2+z
_cell_length_a                   11.289(2)
_cell_length_b                   9.072(2)
_cell_length_c                   15.302(3)
_cell_angle_alpha                90
_cell_angle_beta                 102.371(3)
_cell_angle_gamma                90
_cell_volume                     1530.75
loop_
_atom_site_label
_atom_site_type_symbol
_atom_site_fract_x
_atom_site_fract_y
_atom_site_fract_z
Ag1 Ag 0.76886(3) 0.14011(4) 0.63061(3)
N1 N 0.8998(4) 0.3186(5) 0.6006(3)
C1 C 1.0000(4) 0.2752(5) 0.5744(3)
C2 C 1.0993(5) 0.3682(5) 0.5805(3)
H1 H 1.1701 0.3331 0.5631
N2 N 1.0967(4) 0.5061(5) 0.6106(3)
C3 C 0.9950(4) 0.5509(5) 0.6344(3)
H2 H 0.9896 0.6493 0.6546
C4 C 0.8979(5) 0.4568(6) 0.6303(3)
H3 H 0.8278 0.4912 0.6490
C5 C 1.0008(4) 0.1257(5) 0.5356(3)
N3 N 0.9073(4) 0.0381(5) 0.5385(3)
N4 N 1.0945(4) 0.0933(5) 0.4984(3)
N5 N 0.8629(4) -0.0772(5) 0.7793(3)
O1 O 0.8549(4) 0.0592(4) 0.7801(3)
O2 O 0.8548(4) -0.1456(5) 0.7085(3)
O3 O 0.8775(4) -0.1454(4) 0.8523(3)
N4D N 0.9055(4) -0.0933(5) 0.5016(3)
C5D C 0.9992(4) -0.1257(5) 0.4644(3)
C1D C 1.0000(4) -0.2752(5) 0.4256(3)
N1D N 1.1002(4) -0.3186(5) 0.3994(3)
C4D C 1.1021(5) -0.4568(6) 0.3697(3)
C3D C 1.0050(4) -0.5509(5) 0.3656(3)
N2D N 0.9033(4) -0.5061(5) 0.3894(3)
C2D C 0.9007(5) -0.3682(5) 0.4195(3)
H1D H 0.8299 -0.3331 0.4369
H2D H 1.0104 -0.6493 0.3454
H3D H 1.1722 -0.4912 0.3510
N3D N 1.0927(4) -0.0381(5) 0.4615(3)
N5C N 0.6371(4) 0.4228(5) 0.7207(3)
O1C O 0.6451(4) 0.5592(4) 0.7199(3)
O2C O 0.6452(4) 0.3544(5) 0.7915(3)
O3C O 0.6225(4) 0.3546(4) 0.6477(3)
Ag1D Ag 1.23114(3) -0.14011(4) 0.36939(3)
N2A N 0.5967(4) 0.0061(5) 0.6106(3)
Ag1A Ag 1.26886(3) 0.64011(4) 0.63061(3)
Ag1C Ag 0.73114(3) -0.35989(4) 0.86939(3)
Ag1E Ag 0.73114(3) -0.64011(4) 0.36939(3)
Ag1C_2 Ag 0.73114(3) 0.64011(4) 0.86939(3)
N2E N 1.4033(4) -0.0061(5) 0.3894(3)
O1D O 1.1451(4) -0.0592(4) 0.2199(3)
O3G O 1.3775(4) -0.3546(4) 0.3523(3)
loop_
_geom_bond_atom_site_label_1
_geom_bond_atom_site_label_2
_geom_bond_site_symmetry_1
_geom_bond_site_symmetry_2
Ag1 N1 1_555 1_555
N1 C1 1_555 1_555
C1 C2 1_555 1_555
C2 H1 1_555 1_555
N2 C2 1_555 1_555
C3 N2 1_555 1_555
H2 C3 1_555 1_555
C4 N1 1_555 1_555
H3 C4 1_555 1_555
C5 C1 1_555 1_555
N3 Ag1 1_555 1_555
N4 C5 1_555 1_555
N5 O1 1_555 1_555
O1 Ag1 1_555 1_555
O2 N5 1_555 1_555
O3 N5 1_555 1_555
N4D N3 1_555 1_555
C5D N4D 1_555 1_555
C1D C5D 1_555 1_555
N1D C1D 1_555 1_555
C4D N1D 1_555 1_555
C3D C4D 1_555 1_555
N2D C3D 1_555 1_555
C2D C1D 1_555 1_555
H1D C2D 1_555 1_555
H2D C3D 1_555 1_555
H3D C4D 1_555 1_555
N3D N4 1_555 1_555
N5C O1C 1_555 1_555
O1C Ag1C_2 1_555 1_555
O2C N5C 1_555 1_555
O3C Ag1 1_555 1_555
Ag1D N1D 1_555 1_555
N2A Ag1 1_555 1_555
Ag1A N2 1_555 1_555
Ag1C O3 1_555 1_555
Ag1E N2D 1_555 1_555
N2E Ag1D 1_555 1_555
O1D Ag1D 1_555 1_555
O3G Ag1D 1_555 1_555
C3 C4 1_555 1_555
C5 N3 1_555 1_555
C5D N3D 1_555 1_555
N2D C2D 1_555 1_555
N3D Ag1D 1_555 1_555
N5C O3C 1_555 1_555

#END
