
#######################################################################
#
#                 Cambridge Crystallographic Data Centre
#                                CCDC 
#
#######################################################################
#
# If this CIF has been generated from an entry in the Cambridge 
# Structural Database, then it will include bibliographic, chemical, 
# crystal, experimental, refinement or atomic coordinate data resulting 
# from the CCDC's data processing and validation procedures.
#
#######################################################################

data_EMEFIL
_symmetry_cell_setting           monoclinic
_symmetry_space_group_name_H-M   'C 2/c'
_symmetry_Int_Tables_number      15
_space_group_name_Hall           '-C 2yn'
loop_
_symmetry_equiv_pos_site_id
_symmetry_equiv_pos_as_xyz
1 x,y,z
2 1/2+x,1/2+y,z
3 x,-y,1/2+z
4 1/2+x,1/2-y,1/2+z
5 -x,-y,-z
6 1/2-x,1/2-y,-z
7 -x,y,1/2-z
8 1/2-x,1/2+y,1/2-z
_cell_length_a                   16.475(3)
_cell_length_b                   10.371(2)
_cell_length_c                   17.438(4)
_cell_angle_alpha                90
_cell_angle_beta                 94.81(3)
_cell_angle_gamma                90
_cell_volume                     2969
loop_
_atom_site_label
_atom_site_type_symbol
_atom_site_fract_x
_atom_site_fract_y
_atom_site_fract_z
Mo1 Mo -0.09894(3) 0.61285(6) 0.13603(3)
Mo2 Mo -0.44539(3) -0.06809(6) 0.07175(3)
Cu1 Cu -0.2500 0.7500 0.0000
Cu2 Cu -0.5000 0.32436(11) 0.2500
O1 O -0.1677(3) 0.7154(5) 0.0838(3)
O2 O -0.1553(3) 0.4835(5) 0.1562(3)
O3 O -0.3472(3) -0.1144(5) 0.0958(3)
O4 O -0.3952(3) 0.1376(4) 0.0718(3)
O5 O -0.4972(3) 0.2591(5) 0.1108(3)
O6 O -0.4977(3) -0.2078(5) 0.0758(3)
O7 O -0.0818(3) 0.6906(4) 0.2288(2)
O8 O 0.0155(3) 0.5028(4) 0.1696(2)
O9 O -0.0560(3) 0.5441(4) 0.0368(2)
N1 N -0.3050(3) 0.5842(6) 0.0200(3)
N2 N -0.5785(4) 0.4710(6) 0.2306(4)
C1 C -0.3738(10) 0.5855(16) 0.0510(9)
H1 H -0.3973 0.6654 0.0589
C2 C -0.4149(8) 0.4782(10) 0.0730(9)
H2 H -0.4623 0.4876 0.0980
C3 C -0.3878(4) 0.3637(7) 0.0589(4)
C4 C -0.3190(10) 0.3603(17) 0.0247(10)
H3 H -0.2991 0.2804 0.0108
C5 C -0.2751(9) 0.4690(14) 0.0088(8)
H4 H -0.2242 0.4607 -0.0100
C6 C -0.4296(4) 0.2444(7) 0.0822(4)
C7 C -0.6588(6) 0.4580(10) 0.2137(7)
H5 H -0.6818 0.3763 0.2089
C8 C -0.7075(6) 0.5660(10) 0.2033(8)
H6 H -0.7630 0.5573 0.1899
C9 C -0.6734(6) 0.6856(9) 0.2129(7)
H7 H -0.7065 0.7583 0.2077
C10 C -0.5917(5) 0.7000(8) 0.2299(5)
H8 H -0.5682 0.7814 0.2344
C11 C -0.5440(4) 0.5882(7) 0.2406(4)
C11F C -0.4560(4) 0.5882(7) 0.2594(4)
N2F N -0.4215(4) 0.4710(6) 0.2694(4)
C7F C -0.3412(6) 0.4580(10) 0.2863(7)
H5F H -0.3182 0.3763 0.2911
C8F C -0.2925(6) 0.5660(10) 0.2967(8)
H6F H -0.2370 0.5573 0.3101
C9F C -0.3266(6) 0.6856(9) 0.2871(7)
H7F H -0.2935 0.7583 0.2923
C10F C -0.4083(5) 0.7000(8) 0.2701(5)
H8F H -0.4318 0.7814 0.2656
O1E O -0.3323(3) 0.7846(5) -0.0838(3)
O4E O -0.1048(3) 1.3624(4) -0.0718(3)
O5E O -0.0028(3) 1.2409(5) -0.1108(3)
N1E N -0.1950(3) 0.9158(6) -0.0200(3)
C1E C -0.1262(10) 0.9145(16) -0.0510(9)
H1E H -0.1027 0.8346 -0.0589
C2E C -0.0851(8) 1.0218(10) -0.0730(9)
H2E H -0.0377 1.0124 -0.0980
C3E C -0.1122(4) 1.1363(7) -0.0589(4)
C4E C -0.1810(10) 1.1397(17) -0.0247(10)
H3E H -0.2009 1.2196 -0.0108
C5E C -0.2249(9) 1.0310(14) -0.0088(8)
H4E H -0.2758 1.0393 0.0100
C6E C -0.0704(4) 1.2556(7) -0.0822(4)
Mo1E Mo -0.40106(3) 0.88715(6) -0.13603(3)
Mo2E Mo -0.05461(3) 1.56809(6) -0.07175(3)
O8A O -0.4845(3) 0.0028(4) 0.1696(2)
O9E O -0.4440(3) -0.0441(4) -0.0368(2)
O7A O -0.5818(3) 0.1906(4) 0.2288(2)
O2E O -0.3447(3) 1.0165(5) -0.1562(3)
O3E O -0.1528(3) 1.6144(5) -0.0958(3)
O6E O -0.0023(3) 1.7078(5) -0.0758(3)
O5A O 0.0028(3) 0.7591(5) 0.1108(3)
O9A O -0.5560(3) 0.0441(4) 0.0368(2)
O5F O -0.5028(3) 0.2591(5) 0.3892(3)
O7G O -0.4182(3) 0.1906(4) 0.2712(2)
Mo1A Mo -0.59894(3) 0.11285(6) 0.13603(3)
Cu2A Cu 0.0000 0.82436(11) 0.2500
Mo2A Mo 0.05461(3) 0.43191(6) 0.07175(3)
Mo2E_2 Mo -0.05461(3) 0.56809(6) -0.07175(3)
Mo1D Mo 0.09894(3) 1.38715(6) -0.13603(3)
Cu2C Cu 0.0000 1.17564(11) -0.2500
O5D O -0.5028(3) 0.7409(5) -0.1108(3)
O7E O -0.4182(3) 0.8094(4) -0.2288(2)
O8E O -0.5155(3) 0.9972(4) -0.1696(2)
O9E_2 O -0.4440(3) 0.9559(4) -0.0368(2)
O8D O -0.0155(3) 1.4972(4) -0.1696(2)
O9_2 O -0.0560(3) 1.5441(4) 0.0368(2)
O9D O 0.0560(3) 1.4559(4) -0.0368(2)
Mo1E_2 Mo -0.40106(3) -0.11285(6) -0.13603(3)
Mo2D Mo -0.55461(3) 0.06809(6) -0.07175(3)
loop_
_geom_bond_atom_site_label_1
_geom_bond_atom_site_label_2
_geom_bond_site_symmetry_1
_geom_bond_site_symmetry_2
Mo1 O1 1_555 1_555
Mo2 O3 1_555 1_555
Cu1 O1 1_555 1_555
Cu2 O5 1_555 1_555
O2 Mo1 1_555 1_555
O4 Mo2 1_555 1_555
O5 C6 1_555 1_555
O6 Mo2 1_555 1_555
O7 Mo1 1_555 1_555
O8 Mo1 1_555 1_555
O9 Mo1 1_555 1_555
N1 Cu1 1_555 1_555
N2 Cu2 1_555 1_555
C1 N1 1_555 1_555
H1 C1 1_555 1_555
C2 C1 1_555 1_555
H2 C2 1_555 1_555
C3 C2 1_555 1_555
C4 C3 1_555 1_555
H3 C4 1_555 1_555
C5 N1 1_555 1_555
H4 C5 1_555 1_555
C6 O4 1_555 1_555
C7 N2 1_555 1_555
H5 C7 1_555 1_555
C8 C7 1_555 1_555
H6 C8 1_555 1_555
C9 C8 1_555 1_555
H7 C9 1_555 1_555
C10 C9 1_555 1_555
H8 C10 1_555 1_555
C11 N2 1_555 1_555
C11F C11 1_555 1_555
N2F Cu2 1_555 1_555
C7F N2F 1_555 1_555
H5F C7F 1_555 1_555
C8F C7F 1_555 1_555
H6F C8F 1_555 1_555
C9F C8F 1_555 1_555
H7F C9F 1_555 1_555
C10F C11F 1_555 1_555
H8F C10F 1_555 1_555
O1E Cu1 1_555 1_555
O4E C6E 1_555 1_555
O5E C6E 1_555 1_555
N1E Cu1 1_555 1_555
C1E N1E 1_555 1_555
H1E C1E 1_555 1_555
C2E C1E 1_555 1_555
H2E C2E 1_555 1_555
C3E C2E 1_555 1_555
C4E C3E 1_555 1_555
H3E C4E 1_555 1_555
C5E N1E 1_555 1_555
H4E C5E 1_555 1_555
C6E C3E 1_555 1_555
Mo1E O1E 1_555 1_555
Mo2E O4E 1_555 1_555
O8A Mo2 1_555 1_555
O9E Mo2 1_555 1_555
O7A Cu2 1_555 1_555
O2E Mo1E 1_555 1_555
O3E Mo2E 1_555 1_555
O6E Mo2E 1_555 1_555
O5A Mo1 1_555 1_555
O9A Mo2 1_555 1_555
O5F Cu2 1_555 1_555
O7G Cu2 1_555 1_555
Mo1A O5 1_555 1_555
Cu2A O7 1_555 1_555
Mo2A O8 1_555 1_555
Mo2E_2 O9 1_555 1_555
Mo1D O5E 1_555 1_555
Cu2C O5E 1_555 1_555
O5D Mo1E 1_555 1_555
O7E Mo1E 1_555 1_555
O8E Mo1E 1_555 1_555
O9E_2 Mo1E 1_555 1_555
O8D Mo2E 1_555 1_555
O9_2 Mo2E 1_555 1_555
O9D Mo2E 1_555 1_555
Mo1E_2 O9E 1_555 1_555
Mo2D O9E 1_555 1_555
O9 Mo2A 1_555 1_555
C3 C6 1_555 1_555
C4 C5 1_555 1_555
C10 C11 1_555 1_555
C11F N2F 1_555 1_555
C9F C10F 1_555 1_555
C4E C5E 1_555 1_555
O8A Mo1A 1_555 1_555
O7A Mo1A 1_555 1_555
O5A Cu2A 1_555 1_555
O9A Mo1A 1_555 1_555
O9A Mo2D 1_555 1_555
Mo1D O8D 1_555 1_555
Mo1D O9D 1_555 1_555

#END
