
#######################################################################
#
#                 Cambridge Crystallographic Data Centre
#                                CCDC 
#
#######################################################################
#
# If this CIF has been generated from an entry in the Cambridge 
# Structural Database, then it will include bibliographic, chemical, 
# crystal, experimental, refinement or atomic coordinate data resulting 
# from the CCDC's data processing and validation procedures.
#
#######################################################################

data_EMELIR
_symmetry_cell_setting           monoclinic
_symmetry_space_group_name_H-M   'P 21/n'
_symmetry_Int_Tables_number      14
_space_group_name_Hall           '-P 2yn'
loop_
_symmetry_equiv_pos_site_id
_symmetry_equiv_pos_as_xyz
1 x,y,z
2 1/2+x,1/2-y,1/2+z
3 -x,-y,-z
4 1/2-x,1/2+y,1/2-z
_cell_length_a                   11.3882(7)
_cell_length_b                   11.9114(5)
_cell_length_c                   12.4562(7)
_cell_angle_alpha                90
_cell_angle_beta                 90.994(7)
_cell_angle_gamma                90
_cell_volume                     1689.42
loop_
_atom_site_label
_atom_site_type_symbol
_atom_site_fract_x
_atom_site_fract_y
_atom_site_fract_z
Cu1 Cu -0.13010(6) 0.27304(6) 0.35228(5)
Cu2 Cu 0.10894(6) 0.22295(6) 0.34927(5)
I1 I 0.03405(3) 0.43582(3) 0.34149(3)
I2 I -0.05105(3) 0.06112(3) 0.32843(3)
N1 N -0.2039(4) 0.2786(4) 0.5011(4)
C1 C -0.2726(4) 0.3644(4) 0.5338(4)
C2 C -0.3164(5) 0.3642(5) 0.6371(5)
H1 H -0.3624 0.4246 0.6580
N2 N -0.2964(4) 0.2825(4) 0.7080(4)
C3 C -0.2258(6) 0.1986(5) 0.6750(5)
H2 H -0.2078 0.1403 0.7222
C4 C -0.1800(5) 0.1972(5) 0.5739(5)
H3 H -0.1309 0.1383 0.5548
C5 C -0.3006(6) 0.4559(6) 0.4538(5)
H4 H -0.3546 0.4259 0.3999
H5 H -0.2288 0.4760 0.4177
C6 C -0.3536(6) 0.5615(5) 0.4996(6)
H6 H -0.3697 0.6138 0.4426
H7 H -0.2995 0.5946 0.5503
H8 H -0.4254 0.5432 0.5349
N3 N -0.3212(4) 0.2912(4) 0.0022(3)
C7 C -0.2278(5) 0.3545(4) 0.0276(4)
C8 C -0.1835(5) 0.3563(5) 0.1329(4)
H9 H -0.1202 0.4030 0.1490
N4 N -0.2275(4) 0.2941(4) 0.2112(3)
C9 C -0.3210(5) 0.2320(5) 0.1855(5)
H10 H -0.3548 0.1873 0.2378
C10 C -0.3689(5) 0.2327(5) 0.0828(4)
H11 H -0.4366 0.1912 0.0690
C11 C -0.1635(7) 0.4166(6) -0.0577(5)
H12 H -0.2153 0.4277 -0.1194
H13 H -0.1404 0.4898 -0.0307
C12 C -0.0537(8) 0.3519(9) -0.0925(8)
H14 H -0.0151 0.3928 -0.1481
H15 H -0.0010 0.3431 -0.0321
H16 H -0.0764 0.2793 -0.1191
N2A N 0.2036(4) 0.2175(4) 0.2080(4)
N3A N 0.1788(4) 0.2088(4) 0.5022(3)
Cu2A Cu -0.39106(6) 0.27705(6) 0.84927(5)
Cu2A_2 Cu -0.39106(6) 0.27705(6) -0.15073(5)
loop_
_geom_bond_atom_site_label_1
_geom_bond_atom_site_label_2
_geom_bond_site_symmetry_1
_geom_bond_site_symmetry_2
Cu1 I1 1_555 1_555
Cu2 I1 1_555 1_555
I2 Cu1 1_555 1_555
N1 Cu1 1_555 1_555
C1 N1 1_555 1_555
C2 C1 1_555 1_555
H1 C2 1_555 1_555
N2 C2 1_555 1_555
C3 N2 1_555 1_555
H2 C3 1_555 1_555
C4 N1 1_555 1_555
H3 C4 1_555 1_555
C5 C1 1_555 1_555
H4 C5 1_555 1_555
H5 C5 1_555 1_555
C6 C5 1_555 1_555
H6 C6 1_555 1_555
H7 C6 1_555 1_555
H8 C6 1_555 1_555
N3 C7 1_555 1_555
C7 C8 1_555 1_555
C8 H9 1_555 1_555
N4 Cu1 1_555 1_555
C9 N4 1_555 1_555
H10 C9 1_555 1_555
C10 N3 1_555 1_555
H11 C10 1_555 1_555
C11 C7 1_555 1_555
H12 C11 1_555 1_555
H13 C11 1_555 1_555
C12 C11 1_555 1_555
H14 C12 1_555 1_555
H15 C12 1_555 1_555
H16 C12 1_555 1_555
N2A Cu2 1_555 1_555
N3A Cu2 1_555 1_555
Cu2A N2 1_555 1_555
Cu2A_2 N3 1_555 1_555
Cu2 I2 1_555 1_555
C3 C4 1_555 1_555
C8 N4 1_555 1_555
C9 C10 1_555 1_555

#END
