
#######################################################################
#
#                 Cambridge Crystallographic Data Centre
#                                CCDC 
#
#######################################################################
#
# If this CIF has been generated from an entry in the Cambridge 
# Structural Database, then it will include bibliographic, chemical, 
# crystal, experimental, refinement or atomic coordinate data resulting 
# from the CCDC's data processing and validation procedures.
#
#######################################################################

data_EMEMAK01
_symmetry_cell_setting           monoclinic
_symmetry_space_group_name_H-M   'P 21/n'
_symmetry_Int_Tables_number      14
_space_group_name_Hall           '-P 2yn'
loop_
_symmetry_equiv_pos_site_id
_symmetry_equiv_pos_as_xyz
1 x,y,z
2 1/2+x,1/2-y,1/2+z
3 -x,-y,-z
4 1/2-x,1/2+y,1/2-z
_cell_length_a                   4.2664(6)
_cell_length_b                   17.0953(15)
_cell_length_c                   14.4212(15)
_cell_angle_alpha                90
_cell_angle_beta                 92.314(9)
_cell_angle_gamma                90
_cell_volume                     1050.96
loop_
_atom_site_label
_atom_site_type_symbol
_atom_site_fract_x
_atom_site_fract_y
_atom_site_fract_z
Cu1 Cu 0.44764(9) 0.29291(2) 0.75210(3)
Cu2 Cu 1.05460(9) 0.39557(2) 0.83162(3)
I1 I 0.56651(4) 0.349975(10) 0.923931(12)
I2 I -0.05600(4) 0.344980(10) 0.657820(12)
N1 N 0.4356(6) 0.17330(12) 0.73061(15)
C1 C 0.2883(6) 0.12139(15) 0.78435(17)
C2 C 0.2866(7) 0.04276(15) 0.7608(2)
H1 H 0.1820 0.0080 0.7983
N2 N 0.4280(6) 0.01445(12) 0.68680(16)
C3 C 0.5687(7) 0.06657(15) 0.63376(19)
H2 H 0.6684 0.0495 0.5813
C4 C 0.5699(8) 0.14521(15) 0.65489(19)
H3 H 0.6667 0.1799 0.6154
C5 C 0.1370(7) 0.15180(16) 0.8697(2)
H4 H -0.0227 0.1895 0.8504
H5 H 0.2947 0.1795 0.9073
C6 C -0.0124(8) 0.09089(19) 0.9298(2)
H6 H -0.1025 0.1160 0.9820
H7 H 0.1441 0.0541 0.9514
H8 H -0.1737 0.0639 0.8941
I2_2 I 0.94400(4) 0.344980(10) 0.657820(12)
I1_2 I 1.56651(4) 0.349975(10) 0.923931(12)
N2C N 1.0720(6) 0.51445(12) 0.81320(16)
Cu2_2 Cu 0.05460(9) 0.39557(2) 0.83162(3)
Cu1_2 Cu -0.55236(9) 0.29291(2) 0.75210(3)
Cu2C Cu 0.44540(9) -0.10443(2) 0.66838(3)
loop_
_geom_bond_atom_site_label_1
_geom_bond_atom_site_label_2
_geom_bond_site_symmetry_1
_geom_bond_site_symmetry_2
Cu1 I1 1_555 1_555
Cu2 I1 1_555 1_555
I1 Cu2_2 1_555 1_555
I2 Cu1 1_555 1_555
N1 Cu1 1_555 1_555
C1 N1 1_555 1_555
C2 C1 1_555 1_555
H1 C2 1_555 1_555
N2 C2 1_555 1_555
C3 N2 1_555 1_555
H2 C3 1_555 1_555
C4 N1 1_555 1_555
H3 C4 1_555 1_555
C5 C1 1_555 1_555
H4 C5 1_555 1_555
H5 C5 1_555 1_555
C6 C5 1_555 1_555
H6 C6 1_555 1_555
H7 C6 1_555 1_555
H8 C6 1_555 1_555
I2_2 Cu1 1_555 1_555
I1_2 Cu2 1_555 1_555
N2C Cu2 1_555 1_555
Cu2_2 I2 1_555 1_555
Cu1_2 I2 1_555 1_555
Cu2C N2 1_555 1_555
Cu2 I2_2 1_555 1_555
C3 C4 1_555 1_555

#END
