
#######################################################################
#
#                 Cambridge Crystallographic Data Centre
#                                CCDC 
#
#######################################################################
#
# If this CIF has been generated from an entry in the Cambridge 
# Structural Database, then it will include bibliographic, chemical, 
# crystal, experimental, refinement or atomic coordinate data resulting 
# from the CCDC's data processing and validation procedures.
#
#######################################################################

data_EMEPIV
_symmetry_cell_setting           triclinic
_symmetry_space_group_name_H-M   'P -1'
_symmetry_Int_Tables_number      2
_space_group_name_Hall           '-P 1'
loop_
_symmetry_equiv_pos_site_id
_symmetry_equiv_pos_as_xyz
1 x,y,z
2 -x,-y,-z
_cell_length_a                   10.352(5)
_cell_length_b                   10.859(6)
_cell_length_c                   11.602(6)
_cell_angle_alpha                83.250(10)
_cell_angle_beta                 84.710(10)
_cell_angle_gamma                66.190(10)
_cell_volume                     1183.5
loop_
_atom_site_label
_atom_site_type_symbol
_atom_site_fract_x
_atom_site_fract_y
_atom_site_fract_z
Cu1 Cu 0.20054(5) 0.23399(6) 0.30935(5)
Cu2 Cu 0.5000 0.0000 0.5000
O1 O 0.3591(3) 0.2858(3) 0.4131(3)
O2 O 0.5768(3) 0.1238(3) 0.4229(3)
O3 O 0.9868(3) 0.1868(4) 0.2149(3)
O4 O 0.9417(3) 0.3575(4) 0.0758(3)
H1 H 1.0306 0.3197 0.0627
O5 O 0.2052(3) 0.2673(4) 1.0166(3)
O6 O 0.3275(3) 0.2347(3) 1.1760(3)
O7 O 0.6977(3) -0.0382(3) 0.6566(3)
O8 O 0.4686(3) 0.0855(3) 0.6507(3)
N1 N 0.0661(4) 0.4284(4) 0.2887(3)
N2 N 0.0650(4) 0.2337(4) 0.4443(3)
C1 C 0.0708(5) 0.1265(5) 0.5192(4)
H2 H 0.1546 0.0447 0.5166
C2 C -0.0391(6) 0.1295(6) 0.5988(5)
H3 H -0.0309 0.0526 0.6524
C3 C -0.1618(6) 0.2483(7) 0.5979(6)
H4 H -0.2419 0.2523 0.6487
C4 C -0.1675(5) 0.3594(6) 0.5251(5)
H5 H -0.2494 0.4429 0.5262
C5 C -0.0528(4) 0.3501(5) 0.4489(4)
C6 C -0.0470(4) 0.4629(5) 0.3652(4)
C7 C -0.1479(5) 0.5957(5) 0.3645(5)
H6 H -0.2283 0.6181 0.4186
C8 C -0.1307(5) 0.6934(6) 0.2847(5)
H7 H -0.1972 0.7857 0.2840
C9 C -0.0157(5) 0.6564(6) 0.2053(5)
H8 H -0.0028 0.7222 0.1478
C10 C 0.0806(5) 0.5225(5) 0.2092(4)
H9 H 0.1603 0.4965 0.1544
C11 C 0.4887(4) 0.2411(5) 0.3880(4)
C12 C 0.5501(4) 0.3272(4) 0.3098(4)
C13 C 0.4638(5) 0.4528(5) 0.2592(5)
H10 H 0.3639 0.4866 0.2780
C14 C 0.5175(5) 0.5271(6) 0.1801(6)
H11 H 0.4562 0.6152 0.1486
C15 C 0.6619(5) 0.4751(5) 0.1474(5)
H12 H 0.6998 0.5263 0.0920
C16 C 0.7503(4) 0.3496(5) 0.1967(4)
C17 C 0.6949(4) 0.2759(5) 0.2780(4)
H13 H 0.7569 0.1900 0.3128
C18 C 0.9043(4) 0.2884(5) 0.1629(4)
C19 C 0.5813(4) 0.0431(4) 0.7022(4)
C20 C 0.5816(4) 0.0878(4) 0.8186(3)
C21 C 0.7095(4) 0.0650(5) 0.8658(4)
H14 H 0.7968 0.0247 0.8214
C22 C 0.7087(5) 0.1020(6) 0.9769(5)
H15 H 0.7959 0.0895 1.0088
C23 C 0.5832(4) 0.1563(5) 1.0425(4)
H16 H 0.5837 0.1794 1.1198
C24 C 0.4545(4) 0.1794(4) 0.9956(4)
C25 C 0.4548(4) 0.1464(4) 0.8839(4)
H17 H 0.3669 0.1636 0.8507
C26 C 0.3166(4) 0.2324(5) 1.0690(4)
O1A O 0.6409(3) -0.2858(3) 0.5869(3)
O2A O 0.4232(3) -0.1238(3) 0.5771(3)
O3A O 0.0132(3) -0.1868(4) 0.7851(3)
O4A O 0.0583(3) -0.3575(4) 0.9242(3)
H1A H -0.0306 -0.3197 0.9373
C11A C 0.5113(4) -0.2411(5) 0.6120(4)
C12A C 0.4499(4) -0.3272(4) 0.6902(4)
C13A C 0.5362(5) -0.4528(5) 0.7408(5)
H10A H 0.6361 -0.4866 0.7220
C14A C 0.4825(5) -0.5271(6) 0.8199(6)
H11A H 0.5438 -0.6152 0.8514
C15A C 0.3381(5) -0.4751(5) 0.8526(5)
H12A H 0.3002 -0.5263 0.9080
C16A C 0.2497(4) -0.3496(5) 0.8033(4)
C17A C 0.3051(4) -0.2759(5) 0.7220(4)
H13A H 0.2431 -0.1900 0.6872
C18A C 0.0957(4) -0.2884(5) 0.8371(4)
O5A O 0.7948(3) -0.2673(4) -0.0166(3)
O6A O 0.6725(3) -0.2347(3) -0.1760(3)
O7A O 0.3023(3) 0.0382(3) 0.3434(3)
O8A O 0.5314(3) -0.0855(3) 0.3493(3)
C19A C 0.4187(4) -0.0431(4) 0.2978(4)
C20A C 0.4184(4) -0.0878(4) 0.1814(3)
C21A C 0.2905(4) -0.0650(5) 0.1342(4)
H14A H 0.2032 -0.0247 0.1786
C22A C 0.2913(5) -0.1020(6) 0.0231(5)
H15A H 0.2041 -0.0895 -0.0088
C23A C 0.4168(4) -0.1563(5) -0.0425(4)
H16A H 0.4163 -0.1794 -0.1198
C24A C 0.5455(4) -0.1794(4) 0.0044(4)
C25A C 0.5452(4) -0.1464(4) 0.1161(4)
H17A H 0.6331 -0.1636 0.1493
C26A C 0.6834(4) -0.2324(5) -0.0690(4)
Cu1A Cu 0.79946(5) -0.23399(6) 0.69065(5)
N1A N 0.9339(4) -0.4284(4) 0.7113(3)
N2A N 0.9350(4) -0.2337(4) 0.5557(3)
C1A C 0.9292(5) -0.1265(5) 0.4808(4)
H2A H 0.8454 -0.0447 0.4834
C2A C 1.0391(6) -0.1295(6) 0.4012(5)
H3A H 1.0309 -0.0526 0.3476
C3A C 1.1618(6) -0.2483(7) 0.4021(6)
H4A H 1.2419 -0.2523 0.3513
C4A C 1.1675(5) -0.3594(6) 0.4749(5)
H5A H 1.2494 -0.4429 0.4738
C5A C 1.0528(4) -0.3501(5) 0.5511(4)
C6A C 1.0470(4) -0.4629(5) 0.6348(4)
C7A C 1.1479(5) -0.5957(5) 0.6355(5)
H6A H 1.2283 -0.6181 0.5814
C8A C 1.1307(5) -0.6934(6) 0.7153(5)
H7A H 1.1972 -0.7857 0.7160
C9A C 1.0157(5) -0.6564(6) 0.7947(5)
H8A H 1.0028 -0.7222 0.8522
C10A C 0.9194(5) -0.5225(5) 0.7908(4)
H9A H 0.8397 -0.4965 0.8456
O6_2 O 0.3275(3) 0.2347(3) 0.1760(3)
Cu1_2 Cu 0.20054(5) 0.23399(6) 1.30935(5)
Cu1A_2 Cu 0.79946(5) -0.23399(6) -0.30935(5)
O6A_2 O 0.6725(3) -0.2347(3) 0.8240(3)
loop_
_geom_bond_atom_site_label_1
_geom_bond_atom_site_label_2
_geom_bond_site_symmetry_1
_geom_bond_site_symmetry_2
Cu1 O1 1_555 1_555
Cu2 O2 1_555 1_555
O1 C11 1_555 1_555
O2 C11 1_555 1_555
O3 C18 1_555 1_555
O4 H1 1_555 1_555
O5 C26 1_555 1_555
O6 C26 1_555 1_555
O7 C19 1_555 1_555
O8 Cu2 1_555 1_555
N1 Cu1 1_555 1_555
N2 Cu1 1_555 1_555
C1 N2 1_555 1_555
H2 C1 1_555 1_555
C2 C1 1_555 1_555
H3 C2 1_555 1_555
C3 C2 1_555 1_555
H4 C3 1_555 1_555
C4 C3 1_555 1_555
H5 C4 1_555 1_555
C5 N2 1_555 1_555
C6 N1 1_555 1_555
C7 C6 1_555 1_555
H6 C7 1_555 1_555
C8 C7 1_555 1_555
H7 C8 1_555 1_555
C9 C8 1_555 1_555
H8 C9 1_555 1_555
C10 N1 1_555 1_555
H9 C10 1_555 1_555
C11 C12 1_555 1_555
C12 C13 1_555 1_555
C13 H10 1_555 1_555
C14 C13 1_555 1_555
H11 C14 1_555 1_555
C15 C14 1_555 1_555
H12 C15 1_555 1_555
C16 C15 1_555 1_555
C17 C12 1_555 1_555
H13 C17 1_555 1_555
C18 O4 1_555 1_555
C19 O8 1_555 1_555
C20 C19 1_555 1_555
C21 C20 1_555 1_555
H14 C21 1_555 1_555
C22 C21 1_555 1_555
H15 C22 1_555 1_555
C23 C22 1_555 1_555
H16 C23 1_555 1_555
C24 C23 1_555 1_555
C25 C20 1_555 1_555
H17 C25 1_555 1_555
C26 C24 1_555 1_555
O1A C11A 1_555 1_555
O2A Cu2 1_555 1_555
O3A C18A 1_555 1_555
O4A H1A 1_555 1_555
C11A O2A 1_555 1_555
C12A C11A 1_555 1_555
C13A C12A 1_555 1_555
H10A C13A 1_555 1_555
C14A C13A 1_555 1_555
H11A C14A 1_555 1_555
C15A C14A 1_555 1_555
H12A C15A 1_555 1_555
C16A C15A 1_555 1_555
C17A C12A 1_555 1_555
H13A C17A 1_555 1_555
C18A O4A 1_555 1_555
O5A C26A 1_555 1_555
O6A C26A 1_555 1_555
O7A Cu1 1_555 1_555
O8A Cu2 1_555 1_555
C19A O7A 1_555 1_555
C20A C19A 1_555 1_555
C21A C20A 1_555 1_555
H14A C21A 1_555 1_555
C22A C21A 1_555 1_555
H15A C22A 1_555 1_555
C23A C22A 1_555 1_555
H16A C23A 1_555 1_555
C24A C23A 1_555 1_555
C25A C20A 1_555 1_555
H17A C25A 1_555 1_555
C26A C24A 1_555 1_555
Cu1A O7 1_555 1_555
N1A Cu1A 1_555 1_555
N2A Cu1A 1_555 1_555
C1A N2A 1_555 1_555
H2A C1A 1_555 1_555
C2A C1A 1_555 1_555
H3A C2A 1_555 1_555
C3A C2A 1_555 1_555
H4A C3A 1_555 1_555
C4A C3A 1_555 1_555
H5A C4A 1_555 1_555
C5A N2A 1_555 1_555
C6A N1A 1_555 1_555
C7A C6A 1_555 1_555
H6A C7A 1_555 1_555
C8A C7A 1_555 1_555
H7A C8A 1_555 1_555
C9A C8A 1_555 1_555
H8A C9A 1_555 1_555
C10A N1A 1_555 1_555
H9A C10A 1_555 1_555
O6_2 Cu1 1_555 1_555
Cu1_2 O6 1_555 1_555
Cu1A_2 O6A 1_555 1_555
O6A_2 Cu1A 1_555 1_555
C4 C5 1_555 1_555
C5 C6 1_555 1_555
C9 C10 1_555 1_555
C16 C17 1_555 1_555
C16 C18 1_555 1_555
C24 C25 1_555 1_555
O1A Cu1A 1_555 1_555
C16A C17A 1_555 1_555
C16A C18A 1_555 1_555
O8A C19A 1_555 1_555
C24A C25A 1_555 1_555
C4A C5A 1_555 1_555
C5A C6A 1_555 1_555
C9A C10A 1_555 1_555

#END
