
#######################################################################
#
#                 Cambridge Crystallographic Data Centre
#                                CCDC 
#
#######################################################################
#
# If this CIF has been generated from an entry in the Cambridge 
# Structural Database, then it will include bibliographic, chemical, 
# crystal, experimental, refinement or atomic coordinate data resulting 
# from the CCDC's data processing and validation procedures.
#
#######################################################################

data_EMEPER01
_symmetry_cell_setting           monoclinic
_symmetry_space_group_name_H-M   'P 21/c'
_symmetry_Int_Tables_number      14
_space_group_name_Hall           '-P 2ybc'
loop_
_symmetry_equiv_pos_site_id
_symmetry_equiv_pos_as_xyz
1 x,y,z
2 -x,1/2+y,1/2-z
3 -x,-y,-z
4 x,1/2-y,1/2+z
_cell_length_a                   7.241(5)
_cell_length_b                   16.985(5)
_cell_length_c                   12.010(5)
_cell_angle_alpha                90
_cell_angle_beta                 94.077(5)
_cell_angle_gamma                90
_cell_volume                     1473.35
loop_
_atom_site_label
_atom_site_type_symbol
_atom_site_fract_x
_atom_site_fract_y
_atom_site_fract_z
Mn1 Mn 0.0000 0.0000 0.0000
N1 N -0.1604(2) -0.09698(9) 0.05809(13)
C1 C -0.2461(3) -0.15205(10) 0.07260(16)
S1 S -0.36750(10) -0.22986(4) 0.09497(9)
O1 O -0.16747(18) 0.08867(7) 0.07964(11)
H1 H -0.136(3) 0.1358(9) 0.0822(18)
C2 C -0.3373(4) 0.08039(16) 0.1287(3)
H2 H -0.3265 0.0399 0.1845
H3 H -0.4323 0.0663 0.0723
H4 H -0.3690 0.1293 0.1626
N2 N -0.1992(2) 0.00582(7) -0.15901(11)
C3 C -0.2855(3) 0.07214(10) -0.19097(14)
H5 H -0.2748 0.1154 -0.1435
C4 C -0.3905(2) 0.07983(10) -0.29138(13)
H6 H -0.4500 0.1269 -0.3106
C5 C -0.4044(2) 0.01590(9) -0.36209(12)
C6 C -0.3204(2) -0.05437(10) -0.32881(13)
H7 H -0.3311 -0.0989 -0.3739
C7 C -0.2204(2) -0.05623(10) -0.22677(13)
H8 H -0.1646 -0.1034 -0.2039
N3 N -0.50699(19) 0.02761(9) -0.46702(11)
Mn1_2 Mn -1.0000 0.0000 -1.0000
N1B N 0.1604(2) 0.09698(9) -0.05809(13)
C1B C 0.2461(3) 0.15205(10) -0.07260(16)
S1B S 0.36750(10) 0.22986(4) -0.09497(9)
O1B O 0.16747(18) -0.08867(7) -0.07964(11)
H1B H 0.136(3) -0.1358(9) -0.0822(18)
C2B C 0.3373(4) -0.08039(16) -0.1287(3)
H2B H 0.3265 -0.0399 -0.1845
H3B H 0.4323 -0.0663 -0.0723
H4B H 0.3690 -0.1293 -0.1626
N2B N -0.8008(2) -0.00582(7) -0.84099(11)
N2B_2 N 0.1992(2) -0.00582(7) 0.15901(11)
C3B C -0.7145(3) -0.07214(10) -0.80903(14)
H5B H -0.7252 -0.1154 -0.8565
C4B C -0.6095(2) -0.07983(10) -0.70862(13)
H6B H -0.5500 -0.1269 -0.6894
C5B C -0.5956(2) -0.01590(9) -0.63791(12)
C6B C -0.6796(2) 0.05437(10) -0.67119(13)
H7B H -0.6689 0.0989 -0.6261
C7B C -0.7796(2) 0.05623(10) -0.77323(13)
H8B H -0.8354 0.1034 -0.7961
N3B N -0.49301(19) -0.02761(9) -0.53298(11)
N4 N 0.0385(2) 0.48325(10) 0.04088(16)
C8 C -0.0045(3) 0.40085(11) 0.04637(19)
C9 C 0.0659(3) 0.36149(13) 0.1387(2)
H9 H 0.1410 0.3871 0.1934
C10 C 0.0233(4) 0.28298(14) 0.1495(3)
H10 H 0.0718 0.2563 0.2126
N5 N -0.0833(3) 0.24348(11) 0.0744(2)
C11 C -0.1483(4) 0.28238(14) -0.0159(3)
H11 H -0.2215 0.2550 -0.0697
C12 C -0.1137(3) 0.36107(13) -0.0347(2)
H12 H -0.1618 0.3863 -0.0991
N4B N -0.0385(2) 0.51675(10) -0.04088(16)
C8B C 0.0045(3) 0.59915(11) -0.04637(19)
C9B C -0.0659(3) 0.63851(13) -0.1387(2)
H9B H -0.1410 0.6129 -0.1934
C10B C -0.0233(4) 0.71702(14) -0.1495(3)
H10B H -0.0718 0.7437 -0.2126
N5B N 0.0833(3) 0.75652(11) -0.0744(2)
C11B C 0.1483(4) 0.71762(14) 0.0159(3)
H11B H 0.2215 0.7450 0.0697
C12B C 0.1137(3) 0.63893(13) 0.0347(2)
H12B H 0.1618 0.6137 0.0991
loop_
_geom_bond_atom_site_label_1
_geom_bond_atom_site_label_2
_geom_bond_site_symmetry_1
_geom_bond_site_symmetry_2
Mn1 N1 1_555 1_555
N1 C1 1_555 1_555
C1 S1 1_555 1_555
O1 Mn1 1_555 1_555
H1 O1 1_555 1_555
C2 O1 1_555 1_555
H2 C2 1_555 1_555
H3 C2 1_555 1_555
H4 C2 1_555 1_555
N2 Mn1 1_555 1_555
C3 N2 1_555 1_555
H5 C3 1_555 1_555
C4 C3 1_555 1_555
H6 C4 1_555 1_555
C5 C4 1_555 1_555
C6 C5 1_555 1_555
H7 C6 1_555 1_555
C7 N2 1_555 1_555
H8 C7 1_555 1_555
N3 C5 1_555 1_555
N4 C8 1_555 1_555
C8 C9 1_555 1_555
C9 H9 1_555 1_555
C10 C9 1_555 1_555
H10 C10 1_555 1_555
N5 C10 1_555 1_555
C11 N5 1_555 1_555
H11 C11 1_555 1_555
C12 C8 1_555 1_555
H12 C12 1_555 1_555
Mn1_2 N2B 1_555 1_555
N1B Mn1 1_555 1_555
C1B N1B 1_555 1_555
S1B C1B 1_555 1_555
O1B Mn1 1_555 1_555
H1B O1B 1_555 1_555
C2B O1B 1_555 1_555
H2B C2B 1_555 1_555
H3B C2B 1_555 1_555
H4B C2B 1_555 1_555
N2B C3B 1_555 1_555
N2B_2 Mn1 1_555 1_555
C3B H5B 1_555 1_555
C4B C3B 1_555 1_555
H6B C4B 1_555 1_555
C5B C4B 1_555 1_555
C6B C5B 1_555 1_555
H7B C6B 1_555 1_555
C7B N2B 1_555 1_555
H8B C7B 1_555 1_555
N3B N3 1_555 1_555
N4B N4 1_555 1_555
C8B N4B 1_555 1_555
C9B C8B 1_555 1_555
H9B C9B 1_555 1_555
C10B C9B 1_555 1_555
H10B C10B 1_555 1_555
N5B C10B 1_555 1_555
C11B N5B 1_555 1_555
H11B C11B 1_555 1_555
C12B C8B 1_555 1_555
H12B C12B 1_555 1_555
C6 C7 1_555 1_555
C11 C12 1_555 1_555
C5B N3B 1_555 1_555
C6B C7B 1_555 1_555
C11B C12B 1_555 1_555

#END
