
#######################################################################
#
#                 Cambridge Crystallographic Data Centre
#                                CCDC 
#
#######################################################################
#
# If this CIF has been generated from an entry in the Cambridge 
# Structural Database, then it will include bibliographic, chemical, 
# crystal, experimental, refinement or atomic coordinate data resulting 
# from the CCDC's data processing and validation procedures.
#
#######################################################################

data_EMEPIV01
_symmetry_cell_setting           triclinic
_symmetry_space_group_name_H-M   'P -1'
_symmetry_Int_Tables_number      2
_space_group_name_Hall           '-P 1'
loop_
_symmetry_equiv_pos_site_id
_symmetry_equiv_pos_as_xyz
1 x,y,z
2 -x,-y,-z
_cell_length_a                   10.3173(15)
_cell_length_b                   10.8014(16)
_cell_length_c                   11.5780(16)
_cell_angle_alpha                83.150(2)
_cell_angle_beta                 84.599(2)
_cell_angle_gamma                66.1840(10)
_cell_volume                     1170.47
loop_
_atom_site_label
_atom_site_type_symbol
_atom_site_fract_x
_atom_site_fract_y
_atom_site_fract_z
Cu1 Cu 0.20049(3) 0.23382(3) 0.30932(2)
Cu2 Cu 0.5000 0.0000 0.5000
C1 C 0.0715(3) 0.1260(3) 0.5191(2)
H1 H 0.1535 0.0467 0.5179
C2 C -0.0394(3) 0.1299(3) 0.5973(3)
H2 H -0.0327 0.0542 0.6481
C3 C -0.1600(3) 0.2477(4) 0.5988(3)
H3 H -0.2366 0.2518 0.6497
C4 C -0.1671(3) 0.3593(3) 0.5250(3)
H4 H -0.2475 0.4400 0.5262
C5 C -0.1473(3) 0.5959(3) 0.3649(2)
H5 H -0.2249 0.6188 0.4181
C6 C -0.1295(3) 0.6934(3) 0.2837(3)
H6 H -0.1946 0.7832 0.2825
C7 C -0.0161(3) 0.6571(3) 0.2053(2)
H7 H -0.0032 0.7215 0.1499
C8 C 0.0798(3) 0.5226(3) 0.2097(2)
H8 H 0.1564 0.4977 0.1556
C9 C -0.0470(3) 0.4630(3) 0.3653(2)
C10 C -0.0520(3) 0.3498(3) 0.4483(2)
C11 C 0.4887(3) 0.2414(2) 0.3882(2)
C12 C 0.5505(2) 0.3269(2) 0.3095(2)
C13 C 0.4632(3) 0.4527(3) 0.2592(3)
H9 H 0.3665 0.4874 0.2793
C14 C 0.5175(3) 0.5272(3) 0.1796(3)
H10 H 0.4580 0.6123 0.1477
C15 C 0.6610(3) 0.4750(3) 0.1473(3)
H11 H 0.6977 0.5245 0.0928
C16 C 0.7498(3) 0.3492(2) 0.1964(2)
C17 C 0.6945(3) 0.2761(2) 0.2785(2)
H12 H 0.7545 0.1926 0.3129
C18 C 0.9041(3) 0.2884(3) 0.1632(2)
C19 C 0.4185(3) -0.0428(2) 0.29820(19)
C20 C 0.4188(2) -0.0879(2) 0.18100(19)
C21 C 0.2912(3) -0.0654(3) 0.1335(2)
H13 H 0.2059 -0.0258 0.1761
C22 C 0.2913(3) -0.1019(3) 0.0232(2)
H14 H 0.2063 -0.0892 -0.0075
C23 C 0.4179(3) -0.1575(3) -0.0423(2)
H15 H 0.4172 -0.1798 -0.1173
C24 C 0.5454(2) -0.1797(2) 0.00414(19)
C25 C 0.5455(2) -0.1468(2) 0.11607(19)
H16 H 0.6311 -0.1642 0.1482
C26 C 0.6827(3) -0.2318(2) -0.0677(2)
N1 N 0.0641(2) 0.2338(2) 0.44477(17)
N2 N 0.0660(2) 0.4279(2) 0.28864(17)
O1 O 0.35846(18) 0.28637(19) 0.41288(15)
O2 O 0.57698(19) 0.12387(18) 0.42288(15)
O3 O 0.94185(19) 0.3575(2) 0.07536(16)
H17 H 1.0280 0.3217 0.0625
O4 O 0.9868(2) 0.1867(2) 0.21540(18)
O5 O 0.30228(19) 0.03808(18) 0.34344(15)
O6 O 0.53239(19) -0.08633(19) 0.34951(14)
O7 O 0.67193(19) -0.23464(18) -0.17548(14)
O8 O 0.79514(19) -0.2676(2) -0.01742(16)
Cu1A Cu 0.79951(3) -0.23382(3) 0.69068(2)
Cu1A_2 Cu 0.79951(3) -0.23382(3) -0.30932(2)
Cu1_2 Cu 0.20049(3) 0.23382(3) 1.30932(2)
C1A C 0.9285(3) -0.1260(3) 0.4809(2)
H1A H 0.8465 -0.0467 0.4821
C2A C 1.0394(3) -0.1299(3) 0.4027(3)
H2A H 1.0327 -0.0542 0.3519
C3A C 1.1600(3) -0.2477(4) 0.4012(3)
H3A H 1.2366 -0.2518 0.3503
C4A C 1.1671(3) -0.3593(3) 0.4750(3)
H4A H 1.2475 -0.4400 0.4738
C5A C 1.1473(3) -0.5959(3) 0.6351(2)
H5A H 1.2249 -0.6188 0.5819
C6A C 1.1295(3) -0.6934(3) 0.7163(3)
H6A H 1.1946 -0.7832 0.7175
C7A C 1.0161(3) -0.6571(3) 0.7947(2)
H7A H 1.0032 -0.7215 0.8501
C8A C 0.9202(3) -0.5226(3) 0.7903(2)
H8A H 0.8436 -0.4977 0.8444
C9A C 1.0470(3) -0.4630(3) 0.6347(2)
C10A C 1.0520(3) -0.3498(3) 0.5517(2)
C11A C 0.5113(3) -0.2414(2) 0.6118(2)
C12A C 0.4495(2) -0.3269(2) 0.6905(2)
C13A C 0.5368(3) -0.4527(3) 0.7408(3)
H9A H 0.6335 -0.4874 0.7207
C14A C 0.4825(3) -0.5272(3) 0.8204(3)
H10A H 0.5420 -0.6123 0.8523
C15A C 0.3390(3) -0.4750(3) 0.8527(3)
H11A H 0.3023 -0.5245 0.9072
C16A C 0.2502(3) -0.3492(2) 0.8036(2)
C17A C 0.3055(3) -0.2761(2) 0.7215(2)
H12A H 0.2455 -0.1926 0.6871
C18A C 0.0959(3) -0.2884(3) 0.8368(2)
C19A C 0.5815(3) 0.0428(2) 0.70180(19)
C20A C 0.5812(2) 0.0879(2) 0.81900(19)
C21A C 0.7088(3) 0.0654(3) 0.8665(2)
H13A H 0.7941 0.0258 0.8239
C22A C 0.7087(3) 0.1019(3) 0.9768(2)
H14A H 0.7937 0.0892 1.0075
C23A C 0.5821(3) 0.1575(3) 1.0423(2)
H15A H 0.5828 0.1798 1.1173
C24A C 0.4546(2) 0.1797(2) 0.99586(19)
C25A C 0.4545(2) 0.1468(2) 0.88393(19)
H16A H 0.3689 0.1642 0.8518
C26A C 0.3173(3) 0.2318(2) 1.0677(2)
N1A N 0.9359(2) -0.2338(2) 0.55523(17)
N2A N 0.9340(2) -0.4279(2) 0.71136(17)
O1A O 0.64154(18) -0.28637(19) 0.58712(15)
O2A O 0.42302(19) -0.12387(18) 0.57712(15)
O3A O 0.05815(19) -0.3575(2) 0.92464(16)
H17A H -0.0280 -0.3217 0.9375
O4A O 0.0132(2) -0.1867(2) 0.78460(18)
O5A O 0.69772(19) -0.03808(18) 0.65656(15)
O6A O 0.46761(19) 0.08633(19) 0.65049(14)
O7A O 0.32807(19) 0.23464(18) 1.17548(14)
O7A_2 O 0.32807(19) 0.23464(18) 0.17548(14)
O7_2 O 0.67193(19) -0.23464(18) 0.82452(14)
O8A O 0.20486(19) 0.2676(2) 1.01742(16)
loop_
_geom_bond_atom_site_label_1
_geom_bond_atom_site_label_2
_geom_bond_site_symmetry_1
_geom_bond_site_symmetry_2
Cu1 N1 1_555 1_555
Cu2 O2 1_555 1_555
C1 H1 1_555 1_555
C2 C1 1_555 1_555
H2 C2 1_555 1_555
C3 C2 1_555 1_555
H3 C3 1_555 1_555
C4 C3 1_555 1_555
H4 C4 1_555 1_555
C5 H5 1_555 1_555
C6 C5 1_555 1_555
H6 C6 1_555 1_555
C7 C6 1_555 1_555
H7 C7 1_555 1_555
C8 C7 1_555 1_555
H8 C8 1_555 1_555
C9 C5 1_555 1_555
C10 C4 1_555 1_555
C11 C12 1_555 1_555
C12 C13 1_555 1_555
C13 H9 1_555 1_555
C14 C13 1_555 1_555
H10 C14 1_555 1_555
C15 C14 1_555 1_555
H11 C15 1_555 1_555
C16 C15 1_555 1_555
C17 C12 1_555 1_555
H12 C17 1_555 1_555
C18 C16 1_555 1_555
C19 C20 1_555 1_555
C20 C21 1_555 1_555
C21 H13 1_555 1_555
C22 C21 1_555 1_555
H14 C22 1_555 1_555
C23 C22 1_555 1_555
H15 C23 1_555 1_555
C24 C23 1_555 1_555
C25 C20 1_555 1_555
H16 C25 1_555 1_555
C26 C24 1_555 1_555
N1 C1 1_555 1_555
N2 Cu1 1_555 1_555
O1 Cu1 1_555 1_555
O2 C11 1_555 1_555
O3 C18 1_555 1_555
H17 O3 1_555 1_555
O4 C18 1_555 1_555
O5 Cu1 1_555 1_555
O6 Cu2 1_555 1_555
O7 C26 1_555 1_555
O8 C26 1_555 1_555
Cu1A N1A 1_555 1_555
Cu1A_2 O7 1_555 1_555
Cu1_2 O7A 1_555 1_555
C1A H1A 1_555 1_555
C2A C1A 1_555 1_555
H2A C2A 1_555 1_555
C3A C2A 1_555 1_555
H3A C3A 1_555 1_555
C4A C3A 1_555 1_555
H4A C4A 1_555 1_555
C5A H5A 1_555 1_555
C6A C5A 1_555 1_555
H6A C6A 1_555 1_555
C7A C6A 1_555 1_555
H7A C7A 1_555 1_555
C8A C7A 1_555 1_555
H8A C8A 1_555 1_555
C9A C5A 1_555 1_555
C10A C4A 1_555 1_555
C11A C12A 1_555 1_555
C12A C13A 1_555 1_555
C13A H9A 1_555 1_555
C14A C13A 1_555 1_555
H10A C14A 1_555 1_555
C15A C14A 1_555 1_555
H11A C15A 1_555 1_555
C16A C15A 1_555 1_555
C17A C12A 1_555 1_555
H12A C17A 1_555 1_555
C18A C16A 1_555 1_555
C19A C20A 1_555 1_555
C20A C21A 1_555 1_555
C21A H13A 1_555 1_555
C22A C21A 1_555 1_555
H14A C22A 1_555 1_555
C23A C22A 1_555 1_555
H15A C23A 1_555 1_555
C24A C23A 1_555 1_555
C25A C20A 1_555 1_555
H16A C25A 1_555 1_555
C26A C24A 1_555 1_555
N1A C1A 1_555 1_555
N2A Cu1A 1_555 1_555
O1A Cu1A 1_555 1_555
O2A Cu2 1_555 1_555
O3A C18A 1_555 1_555
H17A O3A 1_555 1_555
O4A C18A 1_555 1_555
O5A Cu1A 1_555 1_555
O6A Cu2 1_555 1_555
O7A C26A 1_555 1_555
O7A_2 Cu1 1_555 1_555
O7_2 Cu1A 1_555 1_555
O8A C26A 1_555 1_555
C8 N2 1_555 1_555
C9 C10 1_555 1_555
C9 N2 1_555 1_555
C10 N1 1_555 1_555
C11 O1 1_555 1_555
C16 C17 1_555 1_555
C19 O5 1_555 1_555
C19 O6 1_555 1_555
C24 C25 1_555 1_555
C8A N2A 1_555 1_555
C9A C10A 1_555 1_555
C9A N2A 1_555 1_555
C10A N1A 1_555 1_555
C11A O1A 1_555 1_555
C11A O2A 1_555 1_555
C16A C17A 1_555 1_555
C19A O5A 1_555 1_555
C19A O6A 1_555 1_555
C24A C25A 1_555 1_555

#END
