
#######################################################################
#
#                 Cambridge Crystallographic Data Centre
#                                CCDC 
#
#######################################################################
#
# If this CIF has been generated from an entry in the Cambridge 
# Structural Database, then it will include bibliographic, chemical, 
# crystal, experimental, refinement or atomic coordinate data resulting 
# from the CCDC's data processing and validation procedures.
#
#######################################################################

data_EMEPER
_symmetry_cell_setting           monoclinic
_symmetry_space_group_name_H-M   'P 21/c'
_symmetry_Int_Tables_number      14
_space_group_name_Hall           '-P 2ybc'
loop_
_symmetry_equiv_pos_site_id
_symmetry_equiv_pos_as_xyz
1 x,y,z
2 x,1/2-y,1/2+z
3 -x,-y,-z
4 -x,1/2+y,1/2-z
_cell_length_a                   7.265(2)
_cell_length_b                   17.050(4)
_cell_length_c                   12.040(3)
_cell_angle_alpha                90
_cell_angle_beta                 94.064(5)
_cell_angle_gamma                90
_cell_volume                     1487.62
loop_
_atom_site_label
_atom_site_type_symbol
_atom_site_fract_x
_atom_site_fract_y
_atom_site_fract_z
Mn1 Mn 0.5000 0.5000 0.5000
S1 S 0.13234(17) 0.27023(6) 0.59450(13)
O1 O 0.3332(3) 0.58860(11) 0.57958(17)
H1 H 0.3813 0.6392 0.5806
N1 N 0.3005(3) 0.50586(15) 0.34116(18)
C1 C 0.2141(4) 0.57155(17) 0.3089(2)
H2 H 0.2240 0.6146 0.3565
N2 N -0.0077(3) 0.52766(14) 0.03303(17)
C2 C 0.1097(4) 0.57975(18) 0.2084(2)
H3 H 0.0509 0.6268 0.1892
C3 C 0.0961(4) 0.51584(16) 0.1381(2)
N3 N 0.3394(4) 0.40338(16) 0.5579(2)
C4 C 0.1807(4) 0.44589(17) 0.1712(2)
H4 H 0.1708 0.4016 0.1261
C5 C 0.2802(4) 0.44404(18) 0.2732(2)
H5 H 0.3362 0.3971 0.2959
C6 C 0.2537(5) 0.3481(2) 0.5725(3)
C7 C 0.1643(5) 0.5803(2) 0.6293(4)
H6 H 0.1270 0.6302 0.6570
H7 H 0.1791 0.5436 0.6898
H8 H 0.0717 0.5614 0.5750
N2B N 0.0077(3) 0.47234(14) -0.03303(17)
C3B C -0.0961(4) 0.48416(16) -0.1381(2)
C2B C -0.1097(4) 0.42025(18) -0.2084(2)
C1B C -0.2141(4) 0.42845(17) -0.3089(2)
N1B N -0.3005(3) 0.49414(15) -0.34116(18)
C5B C -0.2802(4) 0.55596(18) -0.2732(2)
C4B C -0.1807(4) 0.55411(17) -0.1712(2)
H4B H -0.1708 0.5984 -0.1261
H5B H -0.3362 0.6029 -0.2959
H2B H -0.2240 0.3854 -0.3565
H3B H -0.0509 0.3732 -0.1892
O1B O 0.6668(3) 0.41140(11) 0.42042(17)
H1B H 0.6187 0.3608 0.4194
C7B C 0.8357(5) 0.4197(2) 0.3707(4)
H6B H 0.8730 0.3698 0.3430
H7B H 0.8209 0.4564 0.3102
H8B H 0.9283 0.4386 0.4250
S1B S 0.86766(17) 0.72977(6) 0.40550(13)
N3B N 0.6606(4) 0.59662(16) 0.4421(2)
C6B C 0.7463(5) 0.6519(2) 0.4275(3)
N1B_2 N 0.6995(3) 0.49414(15) 0.65884(18)
Mn1B Mn -0.5000 0.5000 -0.5000
N4 N 0.4165(5) 0.74328(18) 0.5746(3)
N5 N 0.5386(4) 0.98314(16) 0.5410(2)
C8 C 0.5233(6) 0.7829(2) 0.6484(4)
H9 H 0.5729 0.7564 0.7111
C9 C 0.5649(5) 0.8610(2) 0.6377(3)
H10 H 0.6396 0.8865 0.6923
C10 C 0.4947(5) 0.90086(19) 0.5452(3)
C11 C 0.3870(5) 0.8613(2) 0.4659(3)
H11 H 0.3389 0.8864 0.4017
C12 C 0.3518(6) 0.7824(2) 0.4845(4)
H12 H 0.2787 0.7554 0.4307
N5B N 0.4614(4) 1.01686(16) 0.4590(2)
C10B C 0.5053(5) 1.09914(19) 0.4548(3)
C9B C 0.4351(5) 1.1390(2) 0.3623(3)
C8B C 0.4767(6) 1.2171(2) 0.3516(4)
N4B N 0.5835(5) 1.25672(18) 0.4254(3)
C12B C 0.6482(6) 1.2176(2) 0.5155(4)
C11B C 0.6130(5) 1.1387(2) 0.5341(3)
H11B H 0.6611 1.1136 0.5983
H12B H 0.7213 1.2446 0.5693
H9B H 0.4271 1.2436 0.2889
H10B H 0.3604 1.1135 0.3077
loop_
_geom_bond_atom_site_label_1
_geom_bond_atom_site_label_2
_geom_bond_site_symmetry_1
_geom_bond_site_symmetry_2
Mn1 O1 1_555 1_555
S1 C6 1_555 1_555
O1 H1 1_555 1_555
N1 Mn1 1_555 1_555
C1 N1 1_555 1_555
H2 C1 1_555 1_555
N2 C3 1_555 1_555
C2 C1 1_555 1_555
H3 C2 1_555 1_555
C3 C2 1_555 1_555
N3 Mn1 1_555 1_555
C4 C3 1_555 1_555
H4 C4 1_555 1_555
N4 C8 1_555 1_555
N5 C10 1_555 1_555
C5 N1 1_555 1_555
H5 C5 1_555 1_555
C6 N3 1_555 1_555
C7 O1 1_555 1_555
H6 C7 1_555 1_555
H7 C7 1_555 1_555
H8 C7 1_555 1_555
C8 H9 1_555 1_555
C9 C8 1_555 1_555
H10 C9 1_555 1_555
C10 C9 1_555 1_555
C11 C10 1_555 1_555
H11 C11 1_555 1_555
C12 N4 1_555 1_555
H12 C12 1_555 1_555
N2B N2 1_555 1_555
C3B N2B 1_555 1_555
C2B C3B 1_555 1_555
C1B C2B 1_555 1_555
N1B C1B 1_555 1_555
C5B N1B 1_555 1_555
C4B C3B 1_555 1_555
H4B C4B 1_555 1_555
H5B C5B 1_555 1_555
H2B C1B 1_555 1_555
H3B C2B 1_555 1_555
N5B N5 1_555 1_555
C10B N5B 1_555 1_555
C9B C10B 1_555 1_555
C8B C9B 1_555 1_555
N4B C8B 1_555 1_555
C12B N4B 1_555 1_555
C11B C10B 1_555 1_555
H11B C11B 1_555 1_555
H12B C12B 1_555 1_555
H9B C8B 1_555 1_555
H10B C9B 1_555 1_555
O1B Mn1 1_555 1_555
H1B O1B 1_555 1_555
C7B O1B 1_555 1_555
H6B C7B 1_555 1_555
H7B C7B 1_555 1_555
H8B C7B 1_555 1_555
S1B C6B 1_555 1_555
N3B Mn1 1_555 1_555
C6B N3B 1_555 1_555
N1B_2 Mn1 1_555 1_555
Mn1B N1B 1_555 1_555
C4 C5 1_555 1_555
C11 C12 1_555 1_555
C5B C4B 1_555 1_555
C12B C11B 1_555 1_555

#END
