
#######################################################################
#
#                 Cambridge Crystallographic Data Centre
#                                CCDC 
#
#######################################################################
#
# If this CIF has been generated from an entry in the Cambridge 
# Structural Database, then it will include bibliographic, chemical, 
# crystal, experimental, refinement or atomic coordinate data resulting 
# from the CCDC's data processing and validation procedures.
#
#######################################################################

data_EMEQAP
_symmetry_cell_setting           monoclinic
_symmetry_space_group_name_H-M   'P 21/n'
_symmetry_Int_Tables_number      14
_space_group_name_Hall           '-P 2yn'
loop_
_symmetry_equiv_pos_site_id
_symmetry_equiv_pos_as_xyz
1 x,y,z
2 1/2-x,1/2+y,1/2-z
3 -x,-y,-z
4 1/2+x,1/2-y,1/2+z
_cell_length_a                   10.1304(10)
_cell_length_b                   14.4174(12)
_cell_length_c                   13.3773(16)
_cell_angle_alpha                90
_cell_angle_beta                 102.789(6)
_cell_angle_gamma                90
_cell_volume                     1905.34
loop_
_atom_site_label
_atom_site_type_symbol
_atom_site_fract_x
_atom_site_fract_y
_atom_site_fract_z
Ni1 Ni 0.95215(3) 0.14265(2) 0.97227(2)
O1 O 0.82756(18) 0.03429(12) 0.92321(13)
O2 O 0.85205(17) -0.10261(12) 1.00419(13)
O3 O 0.28785(17) 0.25940(12) 0.47076(13)
O4 O 0.49995(17) 0.21464(11) 0.51366(13)
N1 N 0.9474(2) 0.16653(14) 0.81787(15)
N2 N 0.9453(2) 0.12231(14) 0.12548(15)
C1 C 0.7850(2) -0.04003(16) 0.95081(17)
C2 C 0.6332(3) -0.0584(2) 0.9178(2)
H1 H 0.6192 -0.1263 0.9116
H2 H 0.5900 -0.0366 0.9731
C3 C 0.5608(2) -0.01396(17) 0.8185(2)
C4 C 0.5411(3) -0.06232(18) 0.7269(2)
H3 H 0.5776 -0.1230 0.7264
C5 C 0.5085(3) 0.07548(19) 0.8158(2)
H4 H 0.5218 0.1108 0.8772
C6 C 0.4690(2) -0.02399(17) 0.6358(2)
H5 H 0.4561 -0.0591 0.5742
C7 C 0.4372(3) 0.11390(18) 0.7245(2)
H6 H 0.4026 0.1751 0.7245
C8 C 0.4157(2) 0.06452(17) 0.63329(19)
C9 C 0.3296(3) 0.10475(17) 0.5353(2)
H7 H 0.3293 0.0605 0.4787
H8 H 0.2353 0.1105 0.5437
C10 C 0.3756(2) 0.19841(17) 0.50470(17)
C11 C 1.0569(3) 0.1846(2) 0.7818(2)
H9 H 1.1418 0.1880 0.8291
C12 C 0.8293(3) 0.16246(19) 0.74960(19)
H10 H 0.7497 0.1502 0.7738
C13 C 0.8171(3) 0.1752(2) 0.64551(19)
H11 H 0.7308 0.1716 0.6000
C14 C 1.0537(3) 0.1985(2) 0.6794(2)
H12 H 1.1349 0.2116 0.6577
C15 C 0.9317(3) 0.19324(17) 0.60805(18)
C16 C 0.9243(3) 0.20488(19) 0.49476(19)
H13 H 1.0050 0.2391 0.4846
H14 H 0.8430 0.2416 0.4636
C17 C 0.9177(3) 0.11089(19) 0.44225(19)
H15 H 0.9928 0.0718 0.4800
H16 H 0.8317 0.0802 0.4465
C18 C 0.9265(3) 0.11554(17) 0.33125(19)
C19 C 0.8185(3) 0.0921(2) 0.2523(2)
H17 H 0.7353 0.0728 0.2672
C20 C 1.0441(3) 0.1435(2) 0.30338(19)
H18 H 1.1209 0.1613 0.3545
C21 C 1.0496(3) 0.14548(19) 0.20150(18)
H19 H 1.1317 0.1643 0.1843
C22 C 0.8317(3) 0.0967(2) 0.1523(2)
H20 H 0.7557 0.0808 0.0995
Ni1B Ni 1.04785(3) -0.14265(2) 1.02773(2)
Ni1C Ni 0.45215(3) 0.35735(2) 0.47227(2)
Ni1_2 Ni 0.95215(3) 0.14265(2) -0.02773(2)
O2B O 1.14795(17) 0.10261(12) 0.99581(13)
O3C O 0.78785(17) 0.24060(12) 0.97076(13)
O4C O 0.99995(17) 0.28536(11) 1.01366(13)
N2_2 N 0.9453(2) 0.12231(14) 1.12548(15)
loop_
_geom_bond_atom_site_label_1
_geom_bond_atom_site_label_2
_geom_bond_site_symmetry_1
_geom_bond_site_symmetry_2
Ni1 O1 1_555 1_555
O1 C1 1_555 1_555
O2 C1 1_555 1_555
O3 C10 1_555 1_555
O4 C10 1_555 1_555
N1 Ni1 1_555 1_555
N2 C21 1_555 1_555
C1 C2 1_555 1_555
C2 H1 1_555 1_555
H2 C2 1_555 1_555
C3 C2 1_555 1_555
C4 C3 1_555 1_555
H3 C4 1_555 1_555
C5 C3 1_555 1_555
H4 C5 1_555 1_555
C6 C4 1_555 1_555
H5 C6 1_555 1_555
C7 C5 1_555 1_555
H6 C7 1_555 1_555
C8 C6 1_555 1_555
C9 C8 1_555 1_555
H7 C9 1_555 1_555
H8 C9 1_555 1_555
C10 C9 1_555 1_555
C11 N1 1_555 1_555
H9 C11 1_555 1_555
C12 N1 1_555 1_555
H10 C12 1_555 1_555
C13 C12 1_555 1_555
H11 C13 1_555 1_555
C14 C11 1_555 1_555
H12 C14 1_555 1_555
C15 C13 1_555 1_555
C16 C15 1_555 1_555
H13 C16 1_555 1_555
H14 C16 1_555 1_555
C17 C16 1_555 1_555
H15 C17 1_555 1_555
H16 C17 1_555 1_555
C18 C17 1_555 1_555
C19 C18 1_555 1_555
H17 C19 1_555 1_555
C20 C18 1_555 1_555
H18 C20 1_555 1_555
C21 C20 1_555 1_555
H19 C21 1_555 1_555
C22 N2 1_555 1_555
H20 C22 1_555 1_555
Ni1B O2 1_555 1_555
Ni1C O3 1_555 1_555
Ni1_2 N2 1_555 1_555
O2B Ni1 1_555 1_555
O3C Ni1 1_555 1_555
O4C Ni1 1_555 1_555
N2_2 Ni1 1_555 1_555
O4 Ni1C 1_555 1_555
C7 C8 1_555 1_555
C14 C15 1_555 1_555
C19 C22 1_555 1_555

#END
