
#######################################################################
#
#                 Cambridge Crystallographic Data Centre
#                                CCDC 
#
#######################################################################
#
# If this CIF has been generated from an entry in the Cambridge 
# Structural Database, then it will include bibliographic, chemical, 
# crystal, experimental, refinement or atomic coordinate data resulting 
# from the CCDC's data processing and validation procedures.
#
#######################################################################

data_EMEYUR
_symmetry_cell_setting           monoclinic
_symmetry_space_group_name_H-M   'P 21/n'
_symmetry_Int_Tables_number      14
_space_group_name_Hall           '-P 2yn'
loop_
_symmetry_equiv_pos_site_id
_symmetry_equiv_pos_as_xyz
1 x,y,z
2 1/2-x,1/2+y,1/2-z
3 -x,-y,-z
4 1/2+x,1/2-y,1/2+z
_cell_length_a                   14.0169(11)
_cell_length_b                   8.0918(5)
_cell_length_c                   15.4783(14)
_cell_angle_alpha                90
_cell_angle_beta                 93.599(6)
_cell_angle_gamma                90
_cell_volume                     1752.12
loop_
_atom_site_label
_atom_site_type_symbol
_atom_site_fract_x
_atom_site_fract_y
_atom_site_fract_z
Zn1 Zn 0.71655(2) 0.69373(4) 0.612737(19)
As1 As 0.814018(18) 1.05030(3) 0.690664(17)
S1 S 0.93775(5) 0.68806(8) 0.66774(5)
N1 N 0.68882(15) 0.5966(3) 0.48761(14)
N2 N 0.57005(16) 0.7619(3) 0.58142(15)
C1 C 0.94124(18) 1.0315(3) 0.65029(16)
C2 C 0.98658(17) 0.8812(3) 0.63641(16)
C3 C 1.07327(19) 0.8813(4) 0.59705(19)
H1 H 1.1034 0.7817 0.5861
C4 C 1.1147(2) 1.0281(4) 0.5742(2)
H2 H 1.1721 1.0269 0.5473
C5 C 1.0719(2) 1.1752(4) 0.5909(2)
H3 H 1.1012 1.2739 0.5769
C6 C 0.9850(2) 1.1779(4) 0.62870(18)
H4 H 0.9558 1.2784 0.6396
C7 C 0.7523(2) 0.5134(4) 0.44380(19)
H5 H 0.8120 0.4909 0.4710
C8 C 0.7334(2) 0.4595(4) 0.3601(2)
H6 H 0.7794 0.4027 0.3311
C9 C 0.6442(3) 0.4919(5) 0.3202(2)
H7 H 0.6294 0.4578 0.2636
C10 C 0.5775(2) 0.5755(4) 0.3657(2)
H8 H 0.5168 0.5964 0.3403
C11 C 0.60174(19) 0.6277(4) 0.44914(18)
C12 C 0.53514(19) 0.7212(4) 0.50197(19)
C13 C 0.4440(2) 0.7677(5) 0.4715(2)
H9 H 0.4205 0.7377 0.4162
C14 C 0.3889(2) 0.8589(5) 0.5244(2)
H10 H 0.3276 0.8914 0.5052
C15 C 0.4251(2) 0.9015(5) 0.6059(2)
H11 H 0.3888 0.9631 0.6426
C16 C 0.5168(2) 0.8510(4) 0.6324(2)
H12 H 0.5419 0.8801 0.6873
O1 O 0.73846(13) 0.9282(2) 0.63511(13)
O2 O 0.80952(14) 1.0343(2) 0.79724(12)
O3 O 0.78992(15) 1.2490(2) 0.65611(15)
H13 H 0.7386 1.2790 0.6735
O4 O 0.86411(13) 0.6451(2) 0.59938(12)
O5 O 1.01619(14) 0.5731(3) 0.67277(16)
O6 O 0.89596(14) 0.7220(2) 0.74945(12)
Zn1A Zn 0.78345(2) 1.19373(4) 0.887263(19)
O2A O 0.69048(14) 0.5343(2) 0.70276(12)
loop_
_geom_bond_atom_site_label_1
_geom_bond_atom_site_label_2
_geom_bond_site_symmetry_1
_geom_bond_site_symmetry_2
Zn1 N1 1_555 1_555
As1 C1 1_555 1_555
S1 C2 1_555 1_555
N1 C7 1_555 1_555
N2 Zn1 1_555 1_555
C1 C2 1_555 1_555
C2 C3 1_555 1_555
C3 H1 1_555 1_555
C4 C3 1_555 1_555
H2 C4 1_555 1_555
C5 C4 1_555 1_555
H3 C5 1_555 1_555
C6 C1 1_555 1_555
H4 C6 1_555 1_555
C7 H5 1_555 1_555
C8 C7 1_555 1_555
H6 C8 1_555 1_555
C9 C8 1_555 1_555
H7 C9 1_555 1_555
C10 C9 1_555 1_555
H8 C10 1_555 1_555
C11 N1 1_555 1_555
C12 N2 1_555 1_555
C13 C12 1_555 1_555
H9 C13 1_555 1_555
C14 C13 1_555 1_555
H10 C14 1_555 1_555
C15 C14 1_555 1_555
H11 C15 1_555 1_555
C16 N2 1_555 1_555
H12 C16 1_555 1_555
O1 Zn1 1_555 1_555
O2 As1 1_555 1_555
O3 As1 1_555 1_555
H13 O3 1_555 1_555
O4 Zn1 1_555 1_555
O5 S1 1_555 1_555
O6 S1 1_555 1_555
Zn1A O2 1_555 1_555
O2A Zn1 1_555 1_555
As1 O1 1_555 1_555
S1 O4 1_555 1_555
C5 C6 1_555 1_555
C10 C11 1_555 1_555
C11 C12 1_555 1_555
C15 C16 1_555 1_555

#END
