
#######################################################################
#
#                 Cambridge Crystallographic Data Centre
#                                CCDC 
#
#######################################################################
#
# If this CIF has been generated from an entry in the Cambridge 
# Structural Database, then it will include bibliographic, chemical, 
# crystal, experimental, refinement or atomic coordinate data resulting 
# from the CCDC's data processing and validation procedures.
#
#######################################################################

data_EMEYOK01
_symmetry_cell_setting           monoclinic
_symmetry_space_group_name_H-M   'P 21/c'
_symmetry_Int_Tables_number      14
_space_group_name_Hall           '-P 2ybc'
loop_
_symmetry_equiv_pos_site_id
_symmetry_equiv_pos_as_xyz
1 x,y,z
2 x,1/2-y,1/2+z
3 -x,-y,-z
4 -x,1/2+y,1/2-z
_cell_length_a                   9.776(2)
_cell_length_b                   8.211(2)
_cell_length_c                   10.224(2)
_cell_angle_alpha                90
_cell_angle_beta                 99.75(3)
_cell_angle_gamma                90
_cell_volume                     808.834
loop_
_atom_site_label
_atom_site_type_symbol
_atom_site_fract_x
_atom_site_fract_y
_atom_site_fract_z
Bi1 Bi 0.185412(10) 0.092537(13) 0.927452(10)
C1 C 0.4959(3) -0.0176(4) 1.0739(3)
C2 C 0.0833(3) 0.3989(3) 0.7330(3)
C3 C -0.0251(3) 0.4057(3) 0.8276(3)
O1 O 0.3806(2) -0.0005(4) 1.1079(2)
O2 O 0.6046(2) -0.0629(4) 1.1482(2)
O3 O 0.1858(2) 0.3081(3) 0.7640(2)
O4 O 0.0599(2) 0.4859(3) 0.6305(2)
O5 O -0.1287(3) 0.4958(3) 0.7945(2)
O6 O -0.0003(2) 0.3210(3) 0.9299(2)
O7 O 0.1861(3) -0.2057(4) 0.9273(3)
O8 O 0.3158(3) 0.3531(4) 1.0419(3)
C1B C 0.5041(3) 0.0176(4) 0.9261(3)
O1B O 0.6194(2) 0.0005(4) 0.8921(2)
O2B O 0.3954(2) 0.0629(4) 0.8518(2)
C2A C 0.0833(3) 0.1011(3) 1.2330(3)
C3A C -0.0251(3) 0.0943(3) 1.3276(3)
O3A O 0.1858(2) 0.1919(3) 1.2640(2)
O4A O 0.0599(2) 0.0141(3) 1.1305(2)
O5A O -0.1287(3) 0.0042(3) 1.2945(2)
O6A O -0.0003(2) 0.1790(3) 1.4299(2)
Bi1B Bi 0.814588(10) -0.092537(13) 1.072548(10)
O7B O 0.8139(3) 0.2057(4) 1.0727(3)
O8B O 0.6842(3) -0.3531(4) 0.9581(3)
O4C O -0.0599(2) -0.0141(3) 0.8695(2)
O5C O 0.1287(3) -0.0042(3) 0.7055(2)
Bi1A Bi 0.185412(10) 0.407463(13) 0.427452(10)
Bi1C Bi -0.185412(10) 0.592537(13) 0.572548(10)
Bi1A_2 Bi 0.185412(10) 0.407463(13) 1.427452(10)
Bi1B_2 Bi -0.185412(10) -0.092537(13) 1.072548(10)
O3B O 0.8142(2) -0.3081(3) 1.2360(2)
O4A_2 O 1.0599(2) 0.0141(3) 1.1305(2)
O4C_2 O 0.9401(2) -0.0141(3) 0.8695(2)
O5A_2 O 0.8713(3) 0.0042(3) 1.2945(2)
O6B O 1.0003(2) -0.3210(3) 1.0701(2)
O9 O 0.6091(3) 0.1011(3) 0.6288(3)
loop_
_geom_bond_atom_site_label_1
_geom_bond_atom_site_label_2
_geom_bond_site_symmetry_1
_geom_bond_site_symmetry_2
Bi1 O1 1_555 1_555
C1 O1 1_555 1_555
C2 C3 1_555 1_555
C3 O5 1_555 1_555
O2 C1 1_555 1_555
O3 Bi1 1_555 1_555
O4 C2 1_555 1_555
O5 Bi1C 1_555 1_555
O6 Bi1 1_555 1_555
O7 Bi1 1_555 1_555
O8 Bi1 1_555 1_555
C1B C1 1_555 1_555
O1B C1B 1_555 1_555
O2B Bi1 1_555 1_555
C2A C3A 1_555 1_555
C3A O5A 1_555 1_555
O3A C2A 1_555 1_555
O4A Bi1 1_555 1_555
O5A Bi1B_2 1_555 1_555
O6A C3A 1_555 1_555
Bi1B O2 1_555 1_555
O7B Bi1B 1_555 1_555
O8B Bi1B 1_555 1_555
O4C Bi1 1_555 1_555
O5C Bi1 1_555 1_555
Bi1A O4 1_555 1_555
Bi1C O4 1_555 1_555
Bi1A_2 O3A 1_555 1_555
Bi1B_2 O4A 1_555 1_555
O3B Bi1B 1_555 1_555
O4A_2 Bi1B 1_555 1_555
O4C_2 Bi1B 1_555 1_555
O5A_2 Bi1B 1_555 1_555
O6B Bi1B 1_555 1_555
C2 O3 1_555 1_555
C3 O6 1_555 1_555
C1B O2B 1_555 1_555
O1B Bi1B 1_555 1_555
C2A O4A 1_555 1_555
O6A Bi1A_2 1_555 1_555
O4C Bi1B_2 1_555 1_555

#END
