
#######################################################################
#
#                 Cambridge Crystallographic Data Centre
#                                CCDC 
#
#######################################################################
#
# If this CIF has been generated from an entry in the Cambridge 
# Structural Database, then it will include bibliographic, chemical, 
# crystal, experimental, refinement or atomic coordinate data resulting 
# from the CCDC's data processing and validation procedures.
#
#######################################################################

data_EMEZIF
_symmetry_cell_setting           orthorhombic
_symmetry_space_group_name_H-M   'P b c a'
_symmetry_Int_Tables_number      61
_space_group_name_Hall           '-P 2ac 2ab'
loop_
_symmetry_equiv_pos_site_id
_symmetry_equiv_pos_as_xyz
1 x,y,z
2 1/2+x,y,1/2-z
3 x,1/2-y,1/2+z
4 1/2-x,1/2+y,z
5 -x,-y,-z
6 1/2-x,-y,1/2+z
7 -x,1/2+y,1/2-z
8 1/2+x,1/2-y,-z
_cell_length_a                   12.5103(7)
_cell_length_b                   8.4276(6)
_cell_length_c                   24.401(2)
_cell_angle_alpha                90
_cell_angle_beta                 90
_cell_angle_gamma                90
_cell_volume                     2572.64
loop_
_atom_site_label
_atom_site_type_symbol
_atom_site_fract_x
_atom_site_fract_y
_atom_site_fract_z
Cu1 Cu 0.53960(3) 0.25752(4) 0.565256(14)
K1 K 0.67949(5) 0.64082(7) 0.56987(3)
S1 S 0.42592(6) 0.54527(9) 0.60540(3)
O1 O 0.43047(16) 0.2016(2) 0.51065(9)
O2 O 0.35931(16) 0.0046(2) 0.46337(8)
O3 O 0.65687(16) 0.3159(2) 0.61194(8)
N1 N 0.46025(18) 0.1561(3) 0.62445(10)
N2 N 0.3887(2) 0.6264(3) 0.49602(11)
C1 C 0.3853(2) 0.0644(3) 0.50777(13)
C2 C 0.3644(2) -0.0216(4) 0.56086(12)
H1 H 0.4231 -0.0983 0.5674
H2 H 0.2972 -0.0827 0.5574
C3 C 0.3558(2) 0.0888(4) 0.60999(13)
H3 H 0.3054 0.1759 0.6014
H4 H 0.3270 0.0294 0.6417
C4 C 0.4864(2) 0.1592(4) 0.67532(13)
H5 H 0.4382 0.1112 0.7004
C5 C 0.5818(2) 0.2285(3) 0.69791(13)
C6 C 0.6616(2) 0.3029(3) 0.66566(13)
C7 C 0.7518(3) 0.3644(4) 0.69284(13)
H6 H 0.8064 0.4151 0.6722
C8 C 0.7623(3) 0.3523(4) 0.74892(14)
H7 H 0.8242 0.3944 0.7662
C9 C 0.6844(3) 0.2800(4) 0.78067(14)
H8 H 0.6926 0.2720 0.8193
C10 C 0.5949(3) 0.2200(4) 0.75529(13)
H9 H 0.5407 0.1719 0.7769
C11 C 0.4038(2) 0.5916(3) 0.54133(13)
K1C K 0.82051(5) 0.14082(7) 0.56987(3)
O2D O 0.64069(16) -0.0046(2) 0.53663(8)
N2D N 0.6113(2) 0.3736(3) 0.50398(11)
Cu1C Cu 0.96040(3) 0.75752(4) 0.565256(14)
O1D O 0.56953(16) 0.7984(2) 0.48935(9)
O2D_2 O 0.64069(16) 0.9954(2) 0.53663(8)
O2G O 0.85931(16) 0.4954(2) 0.53663(8)
O3C O 0.84313(16) 0.8159(2) 0.61194(8)
K1D K 0.32051(5) 0.35918(7) 0.43013(3)
Cu1D Cu 0.46040(3) -0.25752(4) 0.434744(14)
K1G K 0.17949(5) -0.14082(7) 0.43013(3)
Cu1D_2 Cu 0.46040(3) 0.74248(4) 0.434744(14)
loop_
_geom_bond_atom_site_label_1
_geom_bond_atom_site_label_2
_geom_bond_site_symmetry_1
_geom_bond_site_symmetry_2
Cu1 S1 1_555 1_555
K1 S1 1_555 1_555
S1 C11 1_555 1_555
O1 Cu1 1_555 1_555
O2 C1 1_555 1_555
O3 Cu1 1_555 1_555
N1 Cu1 1_555 1_555
N2 C11 1_555 1_555
C1 O1 1_555 1_555
C2 C1 1_555 1_555
H1 C2 1_555 1_555
H2 C2 1_555 1_555
C3 N1 1_555 1_555
H3 C3 1_555 1_555
H4 C3 1_555 1_555
C4 N1 1_555 1_555
H5 C4 1_555 1_555
C5 C4 1_555 1_555
C6 O3 1_555 1_555
C7 C6 1_555 1_555
H6 C7 1_555 1_555
C8 C7 1_555 1_555
H7 C8 1_555 1_555
C9 C8 1_555 1_555
H8 C9 1_555 1_555
C10 C5 1_555 1_555
H9 C10 1_555 1_555
K1C O3 1_555 1_555
O2D Cu1 1_555 1_555
N2D Cu1 1_555 1_555
Cu1C O2G 1_555 1_555
O1D K1 1_555 1_555
O2D_2 K1 1_555 1_555
O2G K1 1_555 1_555
O3C K1 1_555 1_555
K1D O1 1_555 1_555
Cu1D O2 1_555 1_555
K1G O2 1_555 1_555
Cu1D_2 N2 1_555 1_555
K1 O3 1_555 1_555
K1 N2D 1_555 1_555
O2 K1D 1_555 1_555
N2 K1D 1_555 1_555
C2 C3 1_555 1_555
C5 C6 1_555 1_555
C9 C10 1_555 1_555
K1C O2D 1_555 1_555
K1C O2G 1_555 1_555
Cu1C O3C 1_555 1_555
O1D Cu1D_2 1_555 1_555

#END
