
#######################################################################
#
#                 Cambridge Crystallographic Data Centre
#                                CCDC 
#
#######################################################################
#
# If this CIF has been generated from an entry in the Cambridge 
# Structural Database, then it will include bibliographic, chemical, 
# crystal, experimental, refinement or atomic coordinate data resulting 
# from the CCDC's data processing and validation procedures.
#
#######################################################################

data_EMEZEB
_symmetry_cell_setting           monoclinic
_symmetry_space_group_name_H-M   'P 21/m'
_symmetry_Int_Tables_number      11
_space_group_name_Hall           '-P 2yb'
loop_
_symmetry_equiv_pos_site_id
_symmetry_equiv_pos_as_xyz
1 x,y,z
2 x,1/2-y,z
3 -x,-y,-z
4 -x,1/2+y,-z
_cell_length_a                   6.6497(4)
_cell_length_b                   19.1205(10)
_cell_length_c                   6.6971(4)
_cell_angle_alpha                90
_cell_angle_beta                 116.865(2)
_cell_angle_gamma                90
_cell_volume                     759.607
loop_
_atom_site_label
_atom_site_type_symbol
_atom_site_fract_x
_atom_site_fract_y
_atom_site_fract_z
Ba1 Ba 0.39996(2) 0.2500 0.57794(2)
C1 C 0.0742(3) 0.45887(8) 0.3694(3)
C2 C 0.1420(3) 0.52953(8) 0.4153(3)
C3 C -0.0655(3) 0.43194(8) 0.4557(3)
H1 H -0.1113 0.3845 0.4246
C4 C 0.1307(3) 0.40684(9) 0.2299(3)
O1 O 0.1064(2) 0.34358(6) 0.2545(2)
O2 O 0.1931(2) 0.42962(6) 0.0868(2)
C5 C 0.2926(3) 0.57098(9) 0.3418(3)
O3 O 0.3315(2) 0.54684(7) 0.1811(2)
H2 H 0.261(4) 0.4939(13) 0.127(4)
O4 O 0.3710(2) 0.62701(7) 0.4316(2)
O5 O 0.4284(2) 0.34852(7) 0.9128(2)
H3 H 0.341(3) 0.3675(11) 0.949(4)
H4 H 0.508(4) 0.3791(10) 0.909(4)
O6 O 0.0078(3) 0.2500 0.5989(3)
H5 H -0.112(4) 0.2500 0.493(4)
H6 H -0.020(6) 0.2500 0.703(4)
O7 O 0.5681(3) 0.2500 0.2590(3)
H7 H 0.537(4) 0.2828(9) 0.175(3)
O8 O 0.8456(3) 0.2500 0.9216(3)
H8 H 0.910(3) 0.2827(9) 1.003(3)
C3B C 0.0655(3) 0.56806(8) 0.5443(3)
C1B C -0.0742(3) 0.54113(8) 0.6306(3)
C2B C -0.1420(3) 0.47047(8) 0.5847(3)
C5B C -0.2926(3) 0.42902(9) 0.6582(3)
O3B O -0.3315(2) 0.45316(7) 0.8189(2)
H2B H -0.261(4) 0.5061(13) 0.873(4)
O4B O -0.3710(2) 0.37299(7) 0.5684(2)
C4B C -0.1307(3) 0.59316(9) 0.7701(3)
O1B O -0.1064(2) 0.65642(6) 0.7455(2)
O2B O -0.1931(2) 0.57038(6) 0.9132(2)
H1B H 0.1113 0.6155 0.5754
H7A H 0.537(4) 0.2172(9) 0.175(3)
H8A H 0.910(3) 0.2173(9) 1.003(3)
O5A O 0.4284(2) 0.15148(7) 0.9128(2)
H3A H 0.341(3) 0.1325(11) 0.949(4)
H4A H 0.508(4) 0.1209(10) 0.909(4)
O1A O 0.1064(2) 0.15642(6) 0.2545(2)
O4B_2 O 0.6290(2) 0.37299(7) 0.5684(2)
O4C O 0.6290(2) 0.12701(7) 0.5684(2)
Ba1B Ba 0.60004(2) 0.7500 0.42206(2)
Ba1_2 Ba -0.60004(2) 0.2500 0.57794(2)
Ba1B_2 Ba -0.39996(2) 0.7500 0.42206(2)
loop_
_geom_bond_atom_site_label_1
_geom_bond_atom_site_label_2
_geom_bond_site_symmetry_1
_geom_bond_site_symmetry_2
Ba1 O1 1_555 1_555
C1 C2 1_555 1_555
C2 C5 1_555 1_555
C3 C1 1_555 1_555
H1 C3 1_555 1_555
C4 C1 1_555 1_555
O1 C4 1_555 1_555
O2 C4 1_555 1_555
C5 O3 1_555 1_555
O3 H2 1_555 1_555
O4 C5 1_555 1_555
O5 Ba1 1_555 1_555
H3 O5 1_555 1_555
H4 O5 1_555 1_555
O6 Ba1 1_555 1_555
H5 O6 1_555 1_555
H6 O6 1_555 1_555
O7 Ba1 1_555 1_555
H7 O7 1_555 1_555
O8 Ba1 1_555 1_555
H8 O8 1_555 1_555
C3B C2 1_555 1_555
C1B C3B 1_555 1_555
C2B C3 1_555 1_555
C5B C2B 1_555 1_555
O3B C5B 1_555 1_555
H2B O3B 1_555 1_555
O4B C5B 1_555 1_555
C4B C1B 1_555 1_555
O1B C4B 1_555 1_555
O2B C4B 1_555 1_555
H1B C3B 1_555 1_555
H7A O7 1_555 1_555
H8A O8 1_555 1_555
O5A Ba1 1_555 1_555
H3A O5A 1_555 1_555
H4A O5A 1_555 1_555
O1A Ba1 1_555 1_555
O4B_2 Ba1 1_555 1_555
O4C Ba1 1_555 1_555
Ba1B O4 1_555 1_555
Ba1_2 O4B 1_555 1_555
Ba1B_2 O1B 1_555 1_555
C1B C2B 1_555 1_555

#END
