
#######################################################################
#
#                 Cambridge Crystallographic Data Centre
#                                CCDC 
#
#######################################################################
#
# If this CIF has been generated from an entry in the Cambridge 
# Structural Database, then it will include bibliographic, chemical, 
# crystal, experimental, refinement or atomic coordinate data resulting 
# from the CCDC's data processing and validation procedures.
#
#######################################################################

data_EMICEI
_symmetry_cell_setting           orthorhombic
_symmetry_space_group_name_H-M   'I 21 21 21'
_symmetry_Int_Tables_number      24
_space_group_name_Hall           'I 2b 2c'
loop_
_symmetry_equiv_pos_site_id
_symmetry_equiv_pos_as_xyz
1 x,y,z
2 1/2+x,1/2-y,-z
3 -x,1/2+y,1/2-z
4 1/2-x,-y,1/2+z
5 1/2+x,1/2+y,1/2+z
6 x,-y,1/2-z
7 1/2-x,y,-z
8 -x,1/2-y,z
_cell_length_a                   6.6915(17)
_cell_length_b                   7.1211(12)
_cell_length_c                   18.551(4)
_cell_angle_alpha                90
_cell_angle_beta                 90
_cell_angle_gamma                90
_cell_volume                     883.971
loop_
_atom_site_label
_atom_site_type_symbol
_atom_site_fract_x
_atom_site_fract_y
_atom_site_fract_z
O1 O 0.0170(5) 0.0000 0.2500
H3 H -0.050(5) 0.053(6) 0.2196(16)
H3E H -0.050(5) -0.053(6) 0.2804(16)
Cu1 Cu 0.2500 0.22931(5) 0.5000
Cl1 Cl -0.0386(2) 0.4948(2) 0.45576(9)
N1 N 0.1010(2) 0.2318(3) 0.59245(8)
C1 C 0.1593(3) 0.2212(3) 0.65945(10)
N2 N 0.0000 0.2500 0.70301(12)
C2 C 0.0000 0.2500 0.77971(14)
N3 N 0.1561(3) 0.3094(3) 0.81631(9)
N4 N 0.0901(4) 0.2840(3) 0.88439(10)
H1 H 0.283(4) 0.195(4) 0.6757(12)
H2 H 0.156(4) 0.320(4) 0.9236(15)
N1G N -0.1010(2) 0.2682(3) 0.59245(8)
C1G C -0.1593(3) 0.2788(3) 0.65945(10)
N4G N -0.0901(4) 0.2160(3) 0.88439(10)
N3G N -0.1561(3) 0.1906(3) 0.81631(9)
H2G H -0.156(4) 0.180(4) 0.9236(15)
H1G H -0.283(4) 0.305(4) 0.6757(12)
Cl1A Cl 0.4614(2) 0.0052(2) 0.54424(9)
Cl1F Cl 0.5386(2) 0.4948(2) 0.54424(9)
Cl1G Cl 0.0386(2) 0.0052(2) 0.45576(9)
N1F N 0.3990(2) 0.2318(3) 0.40755(8)
Cu1A Cu -0.2500 0.27069(5) 0.5000
Cu1A_2 Cu 0.7500 0.27069(5) 0.5000
Cl2? Cl 0.0542(2) 0.4806(2) 0.45447(9)
C3? C 0.0901(4) 0.2840(3) 0.88439(10)
loop_
_geom_bond_atom_site_label_1
_geom_bond_atom_site_label_2
_geom_bond_site_symmetry_1
_geom_bond_site_symmetry_2
Cu1 Cl1 1_555 1_555
Cl1 Cu1A 1_555 1_555
N1 Cu1 1_555 1_555
C1 N1 1_555 1_555
N2 C1 1_555 1_555
C2 N2 1_555 1_555
N3 C2 1_555 1_555
N4 N3 1_555 1_555
O1 H3 1_555 1_555
H1 C1 1_555 1_555
H2 N4 1_555 1_555
N1G N1 1_555 1_555
C1G N2 1_555 1_555
N4G N4 1_555 1_555
N3G C2 1_555 1_555
H2G N4G 1_555 1_555
H1G C1G 1_555 1_555
H3E O1 1_555 1_555
Cl1A Cu1 1_555 1_555
Cl1F Cu1 1_555 1_555
Cl1G Cu1 1_555 1_555
N1F Cu1 1_555 1_555
Cu1A N1G 1_555 1_555
Cu1A_2 Cl1A 1_555 1_555
N1G C1G 1_555 1_555
N4G N3G 1_555 1_555
Cl1F Cu1A_2 1_555 1_555
Cl1G Cu1A 1_555 1_555

#END
