
#######################################################################
#
#                 Cambridge Crystallographic Data Centre
#                                CCDC 
#
#######################################################################
#
# If this CIF has been generated from an entry in the Cambridge 
# Structural Database, then it will include bibliographic, chemical, 
# crystal, experimental, refinement or atomic coordinate data resulting 
# from the CCDC's data processing and validation procedures.
#
#######################################################################

data_EMIDIO
_symmetry_cell_setting           triclinic
_symmetry_space_group_name_H-M   'P -1'
_symmetry_Int_Tables_number      2
_space_group_name_Hall           '-P 1'
loop_
_symmetry_equiv_pos_site_id
_symmetry_equiv_pos_as_xyz
1 x,y,z
2 -x,-y,-z
_cell_length_a                   10.5555(7)
_cell_length_b                   10.755(1)
_cell_length_c                   10.9889(8)
_cell_angle_alpha                70.527(10)
_cell_angle_beta                 81.613(2)
_cell_angle_gamma                85.3430(10)
_cell_volume                     1162.86
loop_
_atom_site_label
_atom_site_type_symbol
_atom_site_fract_x
_atom_site_fract_y
_atom_site_fract_z
C1 C 0.5515(3) 0.4013(3) 0.3818(3)
C2 C 0.6019(3) 0.4922(3) 0.2658(3)
H1 H 0.6901 0.4988 0.2435
C3 C 0.5196(3) 0.5731(3) 0.1834(3)
C4 C 0.3881(3) 0.5662(3) 0.2155(3)
H2 H 0.3332 0.6201 0.1592
C5 C 0.3400(3) 0.4766(3) 0.3339(3)
C6 C 0.4200(3) 0.3967(3) 0.4165(3)
H3 H 0.3862 0.3390 0.4963
C7 C 0.6371(3) 0.2975(3) 0.4635(3)
C8 C 0.6756(4) 0.6225(3) -0.0177(3)
H4 H 0.7246 0.5441 0.0030
C9 C 0.6921(4) 0.7268(4) -0.1279(4)
H5 H 0.7559 0.7321 -0.1972
C10 C 0.5305(3) 0.7777(3) -0.0095(3)
H6 H 0.4612 0.8235 0.0204
C11 C 0.1063(4) 0.5408(4) 0.3226(4)
H7 H 0.1111 0.6309 0.2787
C12 C -0.0001(4) 0.4704(4) 0.3591(4)
H8 H -0.0824 0.5043 0.3443
C13 C 0.1557(3) 0.3335(3) 0.4227(3)
H9 H 0.2029 0.2566 0.4595
C14 C 0.1846(3) 0.0933(3) 0.8112(3)
C15 C 0.0735(3) 0.0611(3) 0.7739(3)
C16 C -0.0471(3) 0.1020(3) 0.8229(3)
C17 C -0.0539(3) 0.1690(3) 0.9133(3)
H10 H -0.1336 0.1930 0.9491
C18 C 0.0547(3) 0.1996(3) 0.9499(3)
H11 H 0.0486 0.2445 1.0098
C19 C 0.1728(3) 0.1640(3) 0.8981(3)
H12 H 0.2463 0.1876 0.9214
C20 C 0.3189(3) 0.0521(3) 0.7651(3)
C21 C 0.0840(3) -0.0204(3) 0.6834(3)
C22 C -0.1712(3) 0.0813(3) 0.7824(3)
Cd1 Cd -0.08875(2) 0.16285(2) 0.47870(2)
Cd2 Cd 0.59620(2) 1.02440(2) -0.27848(2)
N1 N 0.6015(3) 0.8236(3) -0.1229(3)
N2 N 0.5718(3) 0.6558(3) 0.0572(3)
N3 N 0.0315(3) 0.3403(3) 0.4216(3)
N4 N 0.2061(3) 0.4545(3) 0.3624(3)
O1 O 0.7529(2) 0.3178(2) 0.4515(3)
O2 O 0.5836(3) 0.1928(3) 0.5333(3)
O3 O 0.4094(2) 0.0955(3) 0.7994(3)
O4 O 0.3341(2) -0.0218(3) 0.6972(3)
O5 O 0.0989(2) 0.0395(2) 0.5615(2)
O6 O 0.0748(2) -0.1420(2) 0.7300(2)
O7 O -0.1698(2) 0.0422(2) 0.6840(2)
O8 O -0.2747(2) 0.1038(3) 0.8434(2)
O9 O 0.6180(3) 0.9062(3) -0.4259(3)
H13 H 0.653(5) 0.940(5) -0.500(5)
H14 H 0.555(6) 0.890(6) -0.433(5)
Cd1_2 Cd 0.91125(2) 0.16285(2) 0.47870(2)
Cd1A Cd 0.08875(2) -0.16285(2) 0.52130(2)
Cd2_2 Cd 0.59620(2) 0.02440(2) 0.72152(2)
Cd2_3 Cd -0.40380(2) 0.02440(2) 0.72152(2)
O1_2 O -0.2471(2) 0.3178(2) 0.4515(3)
O2_2 O 0.5836(3) 1.1928(3) -0.4667(3)
O3_2 O 0.4094(2) 1.0955(3) -0.2006(3)
O5A O -0.0989(2) -0.0395(2) 0.4385(2)
O6A O -0.0748(2) 0.1420(2) 0.2700(2)
O7_2 O 0.8302(2) 1.0422(2) -0.3160(2)
O8_2 O 0.7253(2) 1.1038(3) -0.1566(2)
O10 O 0.7330(4) 0.2953(4) 0.1096(4)
H15 H 0.762(7) 0.236(7) 0.157(6)
H16 H 0.801(12) 0.320(12) 0.118(11)
loop_
_geom_bond_atom_site_label_1
_geom_bond_atom_site_label_2
_geom_bond_site_symmetry_1
_geom_bond_site_symmetry_2
C1 C2 1_555 1_555
C2 H1 1_555 1_555
C3 C2 1_555 1_555
C4 C3 1_555 1_555
H2 C4 1_555 1_555
C5 C4 1_555 1_555
C6 C1 1_555 1_555
H3 C6 1_555 1_555
C7 C1 1_555 1_555
C8 H4 1_555 1_555
C9 C8 1_555 1_555
H5 C9 1_555 1_555
C10 H6 1_555 1_555
C11 H7 1_555 1_555
C12 C11 1_555 1_555
H8 C12 1_555 1_555
C13 H9 1_555 1_555
C14 C15 1_555 1_555
C15 C16 1_555 1_555
C16 C17 1_555 1_555
C17 H10 1_555 1_555
C18 C17 1_555 1_555
H11 C18 1_555 1_555
C19 C14 1_555 1_555
H12 C19 1_555 1_555
C20 C14 1_555 1_555
C21 C15 1_555 1_555
C22 C16 1_555 1_555
Cd1 N3 1_555 1_555
Cd2 N1 1_555 1_555
N1 C9 1_555 1_555
N2 C3 1_555 1_555
N3 C12 1_555 1_555
N4 C5 1_555 1_555
O1 C7 1_555 1_555
O2 C7 1_555 1_555
O3 C20 1_555 1_555
O4 C20 1_555 1_555
O5 C21 1_555 1_555
O6 C21 1_555 1_555
O7 C22 1_555 1_555
O8 C22 1_555 1_555
O9 Cd2 1_555 1_555
H13 O9 1_555 1_555
H14 O9 1_555 1_555
O10 H15 1_555 1_555
H16 O10 1_555 1_555
Cd1_2 O1 1_555 1_555
Cd1A O5 1_555 1_555
Cd2_2 O2 1_555 1_555
Cd2_3 O7 1_555 1_555
O1_2 Cd1 1_555 1_555
O2_2 Cd2 1_555 1_555
O3_2 Cd2 1_555 1_555
O5A Cd1 1_555 1_555
O6A Cd1 1_555 1_555
O7_2 Cd2 1_555 1_555
O8_2 Cd2 1_555 1_555
C5 C6 1_555 1_555
C8 N2 1_555 1_555
C10 N1 1_555 1_555
C10 N2 1_555 1_555
C11 N4 1_555 1_555
C13 N3 1_555 1_555
C13 N4 1_555 1_555
C18 C19 1_555 1_555
Cd1 O5 1_555 1_555
Cd1 O7 1_555 1_555
O3 Cd2_2 1_555 1_555
O6 Cd1A 1_555 1_555
O8 Cd2_3 1_555 1_555
Cd1A O5A 1_555 1_555

#END
