
#######################################################################
#
#                 Cambridge Crystallographic Data Centre
#                                CCDC 
#
#######################################################################
#
# If this CIF has been generated from an entry in the Cambridge 
# Structural Database, then it will include bibliographic, chemical, 
# crystal, experimental, refinement or atomic coordinate data resulting 
# from the CCDC's data processing and validation procedures.
#
#######################################################################

data_EMIQUM
_symmetry_cell_setting           monoclinic
_symmetry_space_group_name_H-M   'C 2/c'
_symmetry_Int_Tables_number      15
_space_group_name_Hall           '-C 2yn'
loop_
_symmetry_equiv_pos_site_id
_symmetry_equiv_pos_as_xyz
1 x,y,z
2 1/2+x,1/2+y,z
3 x,-y,1/2+z
4 1/2+x,1/2-y,1/2+z
5 -x,-y,-z
6 1/2-x,1/2-y,-z
7 -x,y,1/2-z
8 1/2-x,1/2+y,1/2-z
_cell_length_a                   13.3918(3)
_cell_length_b                   7.4669(2)
_cell_length_c                   28.8211(7)
_cell_angle_alpha                90
_cell_angle_beta                 103.1310(10)
_cell_angle_gamma                90
_cell_volume                     2806.62
loop_
_atom_site_label
_atom_site_type_symbol
_atom_site_fract_x
_atom_site_fract_y
_atom_site_fract_z
Ba1 Ba 0.5000 0.94154(4) 0.2500
N1 N 0.4070(2) 0.4847(4) 0.03921(10)
C1 C 0.4306(3) 0.3348(4) 0.06444(13)
N2 N 0.4676(2) 0.3508(4) 0.11119(10)
C2 C 0.4900(3) 0.5249(5) 0.13395(13)
C3 C 0.3999(3) 0.6297(5) 0.14435(12)
O1 O 0.4174(2) 0.7776(3) 0.16391(9)
N3 N 0.3064(2) 0.5581(4) 0.13169(11)
C4 C 0.2157(3) 0.6481(5) 0.14002(13)
C5 C 0.1691(3) 0.5613(5) 0.17811(12)
O2 O 0.22102(19) 0.4459(3) 0.20536(9)
O3 O 0.08128(19) 0.6143(3) 0.17992(9)
N4 N 0.4162(2) 0.1638(4) 0.04530(10)
C6 C 0.4430(3) 0.0039(5) 0.07562(13)
C7 C 0.3763(3) 0.1388(5) -0.00327(12)
O4 O 0.3665(2) -0.0136(3) -0.01996(9)
C8 C 0.3468(3) 0.2995(4) -0.03134(13)
N5 N 0.2986(2) 0.2705(4) -0.07705(11)
O5 O 0.2718(2) 0.4083(3) -0.10397(9)
C9 C 0.3657(3) 0.4701(4) -0.00733(12)
N6 N 0.3411(2) 0.6188(4) -0.03214(11)
O6 O 0.6459(2) 1.1640(4) 0.30457(10)
O7 O 0.3758(2) 0.6534(4) 0.26438(10)
H1 H 0.4789 0.2535 0.1288
H2 H 0.5231 0.5999 0.1134
H3 H 0.5408 0.5071 0.1644
H4 H 0.2993 0.4525 0.1178
H5 H 0.1631 0.6513 0.1097
H6 H 0.2339 0.7735 0.1495
H7 H 0.4243 0.0237 0.1062
H8 H 0.5169 -0.0182 0.0812
H9 H 0.4055 -0.1000 0.0597
H10 H 0.3520 0.7235 -0.0179
H11 H 0.3137 0.6131 -0.0629
H12 H 0.6843 1.1345 0.3334
H13 H 0.6721 1.2731 0.3014
H14 H 0.3353 0.5715 0.2463
H15 H 0.3359 0.7329 0.2752
N1F N 0.5930(2) 0.4847(4) 0.46079(10)
C1F C 0.5694(3) 0.3348(4) 0.43556(13)
N2F N 0.5324(2) 0.3508(4) 0.38881(10)
C2F C 0.5100(3) 0.5249(5) 0.36605(13)
C3F C 0.6001(3) 0.6297(5) 0.35565(12)
O1F O 0.5826(2) 0.7776(3) 0.33609(9)
N3F N 0.6936(2) 0.5581(4) 0.36831(11)
C4F C 0.7843(3) 0.6481(5) 0.35998(13)
C5F C 0.8309(3) 0.5613(5) 0.32189(12)
O2F O 0.77898(19) 0.4459(3) 0.29464(9)
O3F O 0.91872(19) 0.6143(3) 0.32008(9)
N4F N 0.5838(2) 0.1638(4) 0.45470(10)
C6F C 0.5570(3) 0.0039(5) 0.42438(13)
C7F C 0.6237(3) 0.1388(5) 0.50327(12)
O4F O 0.6335(2) -0.0136(3) 0.51996(9)
C8F C 0.6532(3) 0.2995(4) 0.53134(13)
N5F N 0.7014(2) 0.2705(4) 0.57705(11)
O5F O 0.7282(2) 0.4083(3) 0.60397(9)
C9F C 0.6343(3) 0.4701(4) 0.50733(12)
N6F N 0.6589(2) 0.6188(4) 0.53214(11)
H1F H 0.5211 0.2535 0.3712
H2F H 0.4769 0.5999 0.3866
H3F H 0.4592 0.5071 0.3356
H4F H 0.7007 0.4525 0.3822
H5F H 0.8369 0.6513 0.3903
H6F H 0.7661 0.7735 0.3505
H7F H 0.5757 0.0237 0.3938
H8F H 0.4831 -0.0182 0.4188
H9F H 0.5945 -0.1000 0.4403
H10F H 0.6480 0.7235 0.5179
H11F H 0.6863 0.6131 0.5629
O6F O 0.3541(2) 1.1640(4) 0.19543(10)
H12F H 0.3157 1.1345 0.1666
H13F H 0.3279 1.2731 0.1986
O7F O 0.6242(2) 0.6534(4) 0.23562(10)
H14F H 0.6647 0.5715 0.2537
H15F H 0.6641 0.7329 0.2248
O3A O 0.58128(19) 1.1143(3) 0.17992(9)
O3G O 0.41872(19) 1.1143(3) 0.32008(9)
Ba1A Ba 0.0000 0.44154(4) 0.2500
Ba1A_2 Ba 1.0000 0.44154(4) 0.2500
loop_
_geom_bond_atom_site_label_1
_geom_bond_atom_site_label_2
_geom_bond_site_symmetry_1
_geom_bond_site_symmetry_2
Ba1 O1 1_555 1_555
N1 C1 1_555 1_555
C1 N2 1_555 1_555
N2 C2 1_555 1_555
C2 C3 1_555 1_555
C3 O1 1_555 1_555
N3 C3 1_555 1_555
C4 N3 1_555 1_555
C5 C4 1_555 1_555
O2 C5 1_555 1_555
O3 C5 1_555 1_555
N4 C1 1_555 1_555
C6 N4 1_555 1_555
C7 N4 1_555 1_555
O4 C7 1_555 1_555
C8 C7 1_555 1_555
N5 C8 1_555 1_555
O5 N5 1_555 1_555
C9 N1 1_555 1_555
N6 C9 1_555 1_555
O6 Ba1 1_555 1_555
O7 Ba1 1_555 1_555
H1 N2 1_555 1_555
H2 C2 1_555 1_555
H3 C2 1_555 1_555
H4 N3 1_555 1_555
H5 C4 1_555 1_555
H6 C4 1_555 1_555
H7 C6 1_555 1_555
H8 C6 1_555 1_555
H9 C6 1_555 1_555
H10 N6 1_555 1_555
H11 N6 1_555 1_555
H12 O6 1_555 1_555
H13 O6 1_555 1_555
H14 O7 1_555 1_555
H15 O7 1_555 1_555
N1F C1F 1_555 1_555
C1F N2F 1_555 1_555
N2F C2F 1_555 1_555
C2F C3F 1_555 1_555
C3F O1F 1_555 1_555
O1F Ba1 1_555 1_555
N3F C3F 1_555 1_555
C4F N3F 1_555 1_555
C5F C4F 1_555 1_555
O2F C5F 1_555 1_555
O3F C5F 1_555 1_555
N4F C1F 1_555 1_555
C6F N4F 1_555 1_555
C7F N4F 1_555 1_555
O4F C7F 1_555 1_555
C8F C7F 1_555 1_555
N5F C8F 1_555 1_555
O5F N5F 1_555 1_555
C9F N1F 1_555 1_555
N6F C9F 1_555 1_555
H1F N2F 1_555 1_555
H2F C2F 1_555 1_555
H3F C2F 1_555 1_555
H4F N3F 1_555 1_555
H5F C4F 1_555 1_555
H6F C4F 1_555 1_555
H7F C6F 1_555 1_555
H8F C6F 1_555 1_555
H9F C6F 1_555 1_555
H10F N6F 1_555 1_555
H11F N6F 1_555 1_555
O6F Ba1 1_555 1_555
H12F O6F 1_555 1_555
H13F O6F 1_555 1_555
O7F Ba1 1_555 1_555
H14F O7F 1_555 1_555
H15F O7F 1_555 1_555
O3A Ba1 1_555 1_555
O3G Ba1 1_555 1_555
Ba1A O3 1_555 1_555
Ba1A_2 O3F 1_555 1_555
C8 C9 1_555 1_555
C8F C9F 1_555 1_555

#END
