
#######################################################################
#
#                 Cambridge Crystallographic Data Centre
#                                CCDC 
#
#######################################################################
#
# If this CIF has been generated from an entry in the Cambridge 
# Structural Database, then it will include bibliographic, chemical, 
# crystal, experimental, refinement or atomic coordinate data resulting 
# from the CCDC's data processing and validation procedures.
#
#######################################################################

data_EMIXUU
_symmetry_cell_setting           monoclinic
_symmetry_space_group_name_H-M   'P 21/c'
_symmetry_Int_Tables_number      14
_space_group_name_Hall           '-P 2ybc'
loop_
_symmetry_equiv_pos_site_id
_symmetry_equiv_pos_as_xyz
1 x,y,z
2 -x,1/2+y,1/2-z
3 -x,-y,-z
4 x,1/2-y,1/2+z
_cell_length_a                   7.6630(4)
_cell_length_b                   29.4740(17)
_cell_length_c                   9.7421(6)
_cell_angle_alpha                90
_cell_angle_beta                 101.8230(10)
_cell_angle_gamma                90
_cell_volume                     2153.66
loop_
_atom_site_label
_atom_site_type_symbol
_atom_site_fract_x
_atom_site_fract_y
_atom_site_fract_z
Mo1 Mo 0.27613(3) 0.480966(9) 0.97780(3)
Mo2 Mo 0.47250(4) 0.470500(9) 0.71588(3)
Mo3 Mo 0.65016(4) 0.411230(9) 1.00898(3)
Mo4 Mo 0.54586(4) 0.579790(10) 0.72831(3)
Cu1 Cu 0.97076(6) 0.394580(14) 1.32871(4)
C1 C 2.0414(5) 0.18531(13) 1.6730(4)
H1 H 2.1373 0.1685 1.6559
C2 C 2.0030(6) 0.22617(14) 1.6072(5)
H2 H 2.0731 0.2372 1.5471
C3 C 1.8591(6) 0.25085(14) 1.6310(5)
H3 H 1.8316 0.2786 1.5865
C4 C 1.7559(5) 0.23440(12) 1.7207(4)
C5 C 1.8057(5) 0.19243(12) 1.7842(4)
H4 H 1.7384 0.1805 1.8451
C6 C 1.5964(5) 0.25573(13) 1.7516(4)
C7 C 1.3668(5) 0.29909(12) 1.7499(4)
C8 C 1.2295(5) 0.33432(12) 1.7111(4)
C9 C 1.1678(4) 0.34551(11) 1.5715(4)
H5 H 1.2159 0.3307 1.5035
C10 C 0.9694(5) 0.39731(12) 1.6287(4)
H6 H 0.8820 0.4192 1.6008
C11 C 1.0203(5) 0.38708(13) 1.7697(4)
H7 H 0.9655 0.4012 1.8351
C12 C 1.1539(5) 0.35558(13) 1.8116(4)
H8 H 1.1926 0.3487 1.9061
N1 N 1.9441(4) 0.16902(10) 1.7615(3)
N2 N 1.5062(5) 0.23907(12) 1.8420(4)
N3 N 1.3603(5) 0.26658(12) 1.8414(4)
N4 N 1.5118(4) 0.29378(10) 1.6911(3)
N5 N 1.5788(4) 0.32362(10) 1.6015(3)
H9 H 1.5259 0.3490 1.5776
H10 H 1.6726 0.3165 1.5707
N6 N 1.0413(4) 0.37681(9) 1.5310(3)
O1 O 0.0848(3) 0.48882(8) 0.8579(2)
O2 O 0.3981(3) 0.43786(7) 0.8748(2)
O3 O 0.4419(3) 0.52517(7) 0.8789(2)
O4 O 0.8478(3) 0.40978(8) 1.1349(2)
O5 O 0.4930(3) 0.38555(7) 1.1110(2)
O6 O 0.6673(3) 0.36926(8) 0.8948(3)
O7 O 0.2841(3) 0.53480(7) 1.0922(2)
O8 O 0.5646(3) 0.42641(8) 0.6449(2)
O9 O 0.2656(3) 0.47677(8) 0.6143(3)
O10 O 0.5948(3) 0.52144(8) 0.6616(2)
O11 O 0.3394(3) 0.59110(8) 0.6300(3)
O12 O 0.6898(3) 0.61417(8) 0.6640(3)
O13 O 0.2242(3) 0.44163(8) 1.0966(2)
O14 O 1.0224(3) 0.45733(8) 1.3745(3)
H11 H 1.1138 0.4591 1.4351
H12 H 0.9900 0.4792 1.3052
Mo1B Mo 0.72387(3) 0.519034(9) 1.02220(3)
Mo2B Mo 0.52750(4) 0.529500(9) 1.28412(3)
Mo3B Mo 0.34984(4) 0.588770(9) 0.99102(3)
Mo4B Mo 0.45414(4) 0.420210(10) 1.27169(3)
Cu1C Cu 1.97076(6) 0.105420(14) 1.82871(4)
N1C N 0.9441(4) 0.33098(10) 1.2615(3)
O3B O 0.5581(3) 0.47483(7) 1.1211(2)
O5B O 0.5070(3) 0.61445(7) 0.8890(2)
O7B O 0.7159(3) 0.46520(7) 0.9078(2)
O13B O 0.7758(3) 0.55837(8) 0.9034(2)
loop_
_geom_bond_atom_site_label_1
_geom_bond_atom_site_label_2
_geom_bond_site_symmetry_1
_geom_bond_site_symmetry_2
Mo1 O1 1_555 1_555
Mo2 O2 1_555 1_555
Mo3 O2 1_555 1_555
Mo4 O3 1_555 1_555
Cu1 N6 1_555 1_555
C1 H1 1_555 1_555
C2 C1 1_555 1_555
H2 C2 1_555 1_555
C3 C2 1_555 1_555
H3 C3 1_555 1_555
C4 C3 1_555 1_555
C5 C4 1_555 1_555
H4 C5 1_555 1_555
C6 C4 1_555 1_555
C7 C8 1_555 1_555
C8 C9 1_555 1_555
C9 H5 1_555 1_555
C10 H6 1_555 1_555
C11 C10 1_555 1_555
H7 C11 1_555 1_555
C12 C8 1_555 1_555
H8 C12 1_555 1_555
N1 C1 1_555 1_555
N2 C6 1_555 1_555
N3 C7 1_555 1_555
N4 C6 1_555 1_555
N5 N4 1_555 1_555
H9 N5 1_555 1_555
H10 N5 1_555 1_555
N6 C9 1_555 1_555
O2 Mo1 1_555 1_555
O3 Mo1 1_555 1_555
O4 Mo3 1_555 1_555
O5 Mo3 1_555 1_555
O6 Mo3 1_555 1_555
O7 Mo1 1_555 1_555
O8 Mo2 1_555 1_555
O9 Mo2 1_555 1_555
O10 Mo2 1_555 1_555
O11 Mo4 1_555 1_555
O12 Mo4 1_555 1_555
O13 Mo1 1_555 1_555
O14 Cu1 1_555 1_555
H11 O14 1_555 1_555
H12 O14 1_555 1_555
Mo1B O3 1_555 1_555
Mo2B O7 1_555 1_555
Mo3B O3 1_555 1_555
Mo4B O5 1_555 1_555
Cu1C N1 1_555 1_555
N1C Cu1 1_555 1_555
O3B Mo1 1_555 1_555
O5B Mo4 1_555 1_555
O7B Mo2 1_555 1_555
O13B Mo4 1_555 1_555
Mo2 O3 1_555 1_555
Mo3 O3B 1_555 1_555
Mo3 O7B 1_555 1_555
Mo4 O10 1_555 1_555
Cu1 O4 1_555 1_555
C5 N1 1_555 1_555
C7 N4 1_555 1_555
C10 N6 1_555 1_555
C11 C12 1_555 1_555
N2 N3 1_555 1_555
O7 Mo3B 1_555 1_555
O13 Mo4B 1_555 1_555
Mo1B O3B 1_555 1_555
Mo1B O7B 1_555 1_555
Mo1B O13B 1_555 1_555
Mo2B O3B 1_555 1_555
Mo3B O5B 1_555 1_555
Mo4B O3B 1_555 1_555

#END
