
#######################################################################
#
#                 Cambridge Crystallographic Data Centre
#                                CCDC 
#
#######################################################################
#
# If this CIF has been generated from an entry in the Cambridge 
# Structural Database, then it will include bibliographic, chemical, 
# crystal, experimental, refinement or atomic coordinate data resulting 
# from the CCDC's data processing and validation procedures.
#
#######################################################################

data_EMIXII
_symmetry_cell_setting           triclinic
_symmetry_space_group_name_H-M   'P -1'
_symmetry_Int_Tables_number      2
_space_group_name_Hall           '-P 1'
loop_
_symmetry_equiv_pos_site_id
_symmetry_equiv_pos_as_xyz
1 x,y,z
2 -x,-y,-z
_cell_length_a                   9.6892(16)
_cell_length_b                   9.8474(16)
_cell_length_c                   13.533(2)
_cell_angle_alpha                99.395(2)
_cell_angle_beta                 109.368(2)
_cell_angle_gamma                101.945(2)
_cell_volume                     1153.56
loop_
_atom_site_label
_atom_site_type_symbol
_atom_site_fract_x
_atom_site_fract_y
_atom_site_fract_z
Cu1 Cu 0.59089(7) 0.18133(7) 0.02505(6)
Mo1 Mo 0.45418(5) -0.30702(4) -0.35944(3)
Mo2 Mo 0.40530(5) 0.30006(4) -0.44446(3)
Mo3 Mo 0.67600(4) 0.12113(4) -0.46350(3)
Mo4 Mo 0.48809(5) 0.09143(4) -0.28759(3)
C1 C 0.6546(6) 0.4516(6) -0.0306(4)
H1 H 0.6270 0.3932 -0.0994
C2 C 0.6778(6) 0.5977(5) -0.0187(4)
H2 H 0.6637 0.6360 -0.0786
C3 C 0.7225(5) 0.6864(5) 0.0838(4)
C4 C 0.7441(6) 0.6249(5) 0.1710(4)
H3 H 0.7766 0.6815 0.2411
C5 C 0.7162(6) 0.4776(6) 0.1515(4)
H4 H 0.7303 0.4369 0.2102
C6 C 0.7401(5) 0.8411(5) 0.0963(4)
C7 C 0.8374(5) 1.0713(5) 0.1545(4)
C8 C 0.9431(5) 1.2125(5) 0.2197(4)
C9 C 1.0143(7) 1.3042(6) 0.1717(5)
H5 H 0.9941 1.2784 0.0980
C10 C 1.1143(7) 1.4327(7) 0.2353(6)
H6 H 1.1648 1.4943 0.2052
C11 C 1.0707(7) 1.3857(6) 0.3873(5)
H7 H 1.0897 1.4164 0.4605
C12 C 0.9701(6) 1.2522(6) 0.3278(4)
H8 H 0.9227 1.1918 0.3603
N1 N 0.6699(5) 0.3900(5) 0.0525(4)
N2 N 0.6393(5) 0.8990(4) 0.0437(3)
N3 N 0.7027(5) 1.0473(4) 0.0795(3)
N4 N 0.8660(5) 0.9450(4) 0.1668(3)
N5 N 0.9934(5) 0.9190(5) 0.2392(4)
H9 H 1.0680 0.9897 0.2843
H10 H 0.9971 0.8324 0.2386
N6 N 1.1400(6) 1.4701(5) 0.3401(4)
O1 O 0.5568(5) -0.2678(4) -0.2243(3)
O2 O 0.4706(5) -0.5066(4) -0.4018(3)
O3 O 0.2693(4) -0.3736(4) -0.3748(3)
O4 O 0.6382(4) -0.2705(4) -0.4121(3)
O5 O 0.2310(4) 0.2593(5) -0.4395(3)
O6 O 0.5248(4) 0.2823(4) -0.2972(3)
O7 O 0.4209(4) 0.0813(3) -0.4638(3)
O8 O 0.3626(4) -0.3030(4) -0.5396(3)
O9 O 0.4531(4) -0.1099(4) -0.3678(3)
O10 O 0.8520(4) 0.1503(4) -0.4670(3)
O11 O 0.7036(4) 0.1094(4) -0.3312(3)
O12 O 0.6048(5) 0.1043(4) -0.1565(3)
O13 O 0.3095(4) 0.0613(4) -0.2877(3)
Cu1A Cu 0.40911(7) 0.81867(7) -0.02505(6)
Cu1_2 Cu 0.59089(7) 1.18133(7) 0.02505(6)
Mo2_2 Mo 0.40530(5) -0.69994(4) -0.44446(3)
Mo2A Mo 0.59470(5) -0.30006(4) -0.55554(3)
Mo3A Mo 0.32400(4) -0.12113(4) -0.53650(3)
N2A N 0.3607(5) 0.1010(4) -0.0437(3)
N3_2 N 0.7027(5) 0.0473(4) 0.0795(3)
O2_2 O 0.4706(5) 0.4934(4) -0.4018(3)
O4A O 0.3618(4) 0.2705(4) -0.5879(3)
O7A O 0.5791(4) -0.0813(3) -0.5362(3)
O8A O 0.6374(4) 0.3030(4) -0.4604(3)
O9A O 0.5469(4) 0.1099(4) -0.6322(3)
O14 O 0.1493(7) 0.0492(7) 0.1047(5)
H11 H 0.1199 -0.0420 0.0857
H12 H 0.0676 0.0596 0.1113
O15 O 0.9172(9) 0.3106(9) 0.9057(7)
H13 H 0.8313 0.3234 0.9006
H14 H 0.9289 0.2403 0.8666
loop_
_geom_bond_atom_site_label_1
_geom_bond_atom_site_label_2
_geom_bond_site_symmetry_1
_geom_bond_site_symmetry_2
Cu1 N1 1_555 1_555
Mo1 O1 1_555 1_555
Mo2 O5 1_555 1_555
Mo3 O7 1_555 1_555
Mo4 O6 1_555 1_555
C1 H1 1_555 1_555
C2 C1 1_555 1_555
H2 C2 1_555 1_555
C3 C2 1_555 1_555
C4 C3 1_555 1_555
H3 C4 1_555 1_555
C5 C4 1_555 1_555
H4 C5 1_555 1_555
C6 C3 1_555 1_555
C7 C8 1_555 1_555
C8 C9 1_555 1_555
C9 H5 1_555 1_555
C10 C9 1_555 1_555
H6 C10 1_555 1_555
C11 H7 1_555 1_555
C12 C8 1_555 1_555
H8 C12 1_555 1_555
N1 C1 1_555 1_555
N2 C6 1_555 1_555
N3 C7 1_555 1_555
N4 C6 1_555 1_555
N5 N4 1_555 1_555
H9 N5 1_555 1_555
H10 N5 1_555 1_555
N6 C10 1_555 1_555
O2 Mo1 1_555 1_555
O3 Mo1 1_555 1_555
O4 Mo1 1_555 1_555
O6 Mo2 1_555 1_555
O7 Mo2 1_555 1_555
O8 Mo1 1_555 1_555
O9 Mo1 1_555 1_555
O10 Mo3 1_555 1_555
O11 Mo3 1_555 1_555
O12 Cu1 1_555 1_555
O13 Mo4 1_555 1_555
O14 H11 1_555 1_555
O15 H13 1_555 1_555
H12 O14 1_555 1_555
H14 O15 1_555 1_555
Cu1A N2 1_555 1_555
Cu1_2 N3 1_555 1_555
Mo2_2 O2 1_555 1_555
Mo2A O4 1_555 1_555
Mo3A O7 1_555 1_555
N2A Cu1 1_555 1_555
N3_2 Cu1 1_555 1_555
O2_2 Mo2 1_555 1_555
O4A Mo2 1_555 1_555
O7A Mo3 1_555 1_555
O8A Mo2 1_555 1_555
O9A Mo3 1_555 1_555
Mo3 O8A 1_555 1_555
Mo4 O7 1_555 1_555
Mo4 O9 1_555 1_555
Mo4 O11 1_555 1_555
Mo4 O12 1_555 1_555
C5 N1 1_555 1_555
C7 N4 1_555 1_555
C11 C12 1_555 1_555
C11 N6 1_555 1_555
N2 N3 1_555 1_555
O8 Mo2A 1_555 1_555
O8 Mo3A 1_555 1_555
O9 Mo3A 1_555 1_555
Mo2A O7A 1_555 1_555
Mo3A O7A 1_555 1_555

#END
