
#######################################################################
#
#                 Cambridge Crystallographic Data Centre
#                                CCDC 
#
#######################################################################
#
# If this CIF has been generated from an entry in the Cambridge 
# Structural Database, then it will include bibliographic, chemical, 
# crystal, experimental, refinement or atomic coordinate data resulting 
# from the CCDC's data processing and validation procedures.
#
#######################################################################

data_EMOJEW
_symmetry_cell_setting           orthorhombic
_symmetry_space_group_name_H-M   'C 2 2 21'
_symmetry_Int_Tables_number      20
_space_group_name_Hall           'C 2n 2'
loop_
_symmetry_equiv_pos_site_id
_symmetry_equiv_pos_as_xyz
1 x,y,z
2 -x,-y,1/2+z
3 -x,y,1/2-z
4 x,-y,-z
5 1/2+x,1/2+y,z
6 1/2-x,1/2-y,1/2+z
7 1/2-x,1/2+y,1/2-z
8 1/2+x,1/2-y,-z
_cell_length_a                   13.905(2)
_cell_length_b                   23.540(3)
_cell_length_c                   8.954(1)
_cell_angle_alpha                90
_cell_angle_beta                 90
_cell_angle_gamma                90
_cell_volume                     2930.86
loop_
_atom_site_label
_atom_site_type_symbol
_atom_site_fract_x
_atom_site_fract_y
_atom_site_fract_z
C15 C 0.5047(19) 0.5020(8) 0.4416(19)
H9 H 0.4372 0.4992 0.4759
H10 H 0.5032 0.5092 0.3327
Cl1 Cl 0.55810(19) 0.43830(14) 0.4702(5)
C15C C 0.5047(19) 0.4980(8) 0.5584(19)
H9C H 0.4372 0.5008 0.5241
H10C H 0.5032 0.4908 0.6673
Cl1C Cl 0.55810(19) 0.56170(14) 0.5298(5)
Ni1 Ni 1.0000 0.276086(17) -0.7500
O1 O 0.87493(13) 0.28082(9) -0.8816(2)
N1 N 0.86392(17) 0.25986(11) -1.0136(3)
O2 O 0.86315(18) 0.20786(10) -1.0317(2)
O3 O 0.8558(3) 0.29224(13) -1.1195(3)
C1 C 0.6618(2) 0.62839(12) 0.1223(3)
H1 H 0.6890 0.5979 0.1775
C2 C 0.6116(2) 0.67107(12) 0.1938(3)
H2 H 0.6055 0.6694 0.2994
N2 N 0.57103(16) 0.71484(9) 0.1208(3)
C3 C 0.58202(19) 0.71737(12) -0.0270(3)
H3 H 0.5542 0.7485 -0.0790
C4 C 0.6321(2) 0.67691(12) -0.1088(3)
H4 H 0.6390 0.6805 -0.2139
C5 C 0.6717(2) 0.63101(12) -0.0330(3)
C6 C 0.7214(2) 0.58664(12) -0.1101(3)
C7 C 0.7593(2) 0.54783(13) -0.1741(3)
C8 C 0.80030(18) 0.50406(10) -0.2524(4)
C9 C 0.8329(2) 0.46622(12) -0.3269(3)
C10 C 0.8702(2) 0.42259(11) -0.4232(3)
C11 C 0.8098(2) 0.38256(12) -0.4870(3)
H5 H 0.7428 0.3829 -0.4658
C12 C 0.84794(19) 0.34202(11) -0.5819(3)
H6 H 0.8061 0.3147 -0.6254
N3 N 0.94241(16) 0.33992(9) -0.6147(2)
C13 C 1.0009(3) 0.37896(10) -0.5524(3)
H7 H 1.0676 0.3778 -0.5754
C14 C 0.9679(2) 0.42051(12) -0.4566(3)
H8 H 1.0111 0.4473 -0.4141
Ni1D Ni 0.5000 0.776086(17) 0.2500
Ni1D_2 Ni 1.5000 0.776086(17) -1.7500
O1B O 1.12507(13) 0.28082(9) -0.6184(2)
N1B N 1.13608(17) 0.25986(11) -0.4864(3)
O2B O 1.13685(18) 0.20786(10) -0.4683(2)
O3B O 1.1442(3) 0.29224(13) -0.3805(3)
C1B C 1.3382(2) 0.62839(12) -1.6223(3)
H1B H 1.3110 0.5979 -1.6775
C2B C 1.3884(2) 0.67107(12) -1.6938(3)
H2B H 1.3945 0.6694 -1.7994
N2B N 1.42897(16) 0.71484(9) -1.6208(3)
N2D N 1.07103(16) 0.21484(9) -0.8792(3)
N2F N 0.92897(16) 0.21484(9) -0.6208(3)
C3B C 1.41798(19) 0.71737(12) -1.4730(3)
H3B H 1.4458 0.7485 -1.4210
C4B C 1.3679(2) 0.67691(12) -1.3912(3)
H4B H 1.3610 0.6805 -1.2861
C5B C 1.3283(2) 0.63101(12) -1.4670(3)
C6B C 1.2786(2) 0.58664(12) -1.3899(3)
C7B C 1.2407(2) 0.54783(13) -1.3259(3)
C8B C 1.19970(18) 0.50406(10) -1.2476(4)
C9B C 1.1671(2) 0.46622(12) -1.1731(3)
C10B C 1.1298(2) 0.42259(11) -1.0768(3)
C11B C 1.1902(2) 0.38256(12) -1.0130(3)
H5B H 1.2572 0.3829 -1.0342
C12B C 1.15206(19) 0.34202(11) -0.9181(3)
H6B H 1.1939 0.3147 -0.8746
N3B N 1.05759(16) 0.33992(9) -0.8853(2)
C13B C 0.9991(3) 0.37896(10) -0.9476(3)
H7B H 0.9324 0.3778 -0.9246
C14B C 1.0321(2) 0.42051(12) -1.0434(3)
H8B H 0.9889 0.4473 -1.0859
loop_
_geom_bond_atom_site_label_1
_geom_bond_atom_site_label_2
_geom_bond_site_symmetry_1
_geom_bond_site_symmetry_2
Ni1 O1 1_555 1_555
O1 N1 1_555 1_555
N1 O2 1_555 1_555
O3 N1 1_555 1_555
C1 H1 1_555 1_555
C2 C1 1_555 1_555
H2 C2 1_555 1_555
N2 C2 1_555 1_555
C3 N2 1_555 1_555
H3 C3 1_555 1_555
C4 C3 1_555 1_555
H4 C4 1_555 1_555
C5 C1 1_555 1_555
C6 C5 1_555 1_555
C7 C6 1_555 1_555
C8 C7 1_555 1_555
C9 C8 1_555 1_555
C10 C9 1_555 1_555
C11 C10 1_555 1_555
H5 C11 1_555 1_555
C12 C11 1_555 1_555
H6 C12 1_555 1_555
N3 Ni1 1_555 1_555
C13 N3 1_555 1_555
H7 C13 1_555 1_555
C14 C10 1_555 1_555
H8 C14 1_555 1_555
C15 H9 1_555 1_555
H9 C15C 1_555 1_555
H10 C15 1_555 1_555
Cl1 C15 1_555 1_555
Ni1D N2 1_555 1_555
Ni1D_2 N2B 1_555 1_555
O1B Ni1 1_555 1_555
N1B O1B 1_555 1_555
O2B N1B 1_555 1_555
O3B N1B 1_555 1_555
C1B H1B 1_555 1_555
C2B C1B 1_555 1_555
H2B C2B 1_555 1_555
N2B C2B 1_555 1_555
N2D Ni1 1_555 1_555
N2F Ni1 1_555 1_555
C3B N2B 1_555 1_555
H3B C3B 1_555 1_555
C4B C3B 1_555 1_555
H4B C4B 1_555 1_555
C5B C1B 1_555 1_555
C6B C5B 1_555 1_555
C7B C6B 1_555 1_555
C8B C7B 1_555 1_555
C9B C8B 1_555 1_555
C10B C9B 1_555 1_555
C11B C10B 1_555 1_555
H5B C11B 1_555 1_555
C12B C11B 1_555 1_555
H6B C12B 1_555 1_555
N3B Ni1 1_555 1_555
C13B N3B 1_555 1_555
H7B C13B 1_555 1_555
C14B C10B 1_555 1_555
H8B C14B 1_555 1_555
C15C C15 1_555 1_555
H9C C15 1_555 1_555
H10C C15C 1_555 1_555
Cl1C C15 1_555 1_555
C4 C5 1_555 1_555
C12 N3 1_555 1_555
C13 C14 1_555 1_555
Cl1 C15C 1_555 1_555
C4B C5B 1_555 1_555
C12B N3B 1_555 1_555
C13B C14B 1_555 1_555
C15C H9C 1_555 1_555
C15C Cl1C 1_555 1_555

#END
