
#######################################################################
#
#                 Cambridge Crystallographic Data Centre
#                                CCDC 
#
#######################################################################
#
# If this CIF has been generated from an entry in the Cambridge 
# Structural Database, then it will include bibliographic, chemical, 
# crystal, experimental, refinement or atomic coordinate data resulting 
# from the CCDC's data processing and validation procedures.
#
#######################################################################

data_EMOVEI
_symmetry_cell_setting           monoclinic
_symmetry_space_group_name_H-M   'C c'
_symmetry_Int_Tables_number      9
_space_group_name_Hall           'C -2yc'
loop_
_symmetry_equiv_pos_site_id
_symmetry_equiv_pos_as_xyz
1 x,y,z
2 x,-y,1/2+z
3 1/2+x,1/2+y,z
4 1/2+x,1/2-y,1/2+z
_cell_length_a                   33.834(7)
_cell_length_b                   6.0198(12)
_cell_length_c                   14.566(3)
_cell_angle_alpha                90
_cell_angle_beta                 109.49(3)
_cell_angle_gamma                90
_cell_volume                     2796.72
loop_
_atom_site_label
_atom_site_type_symbol
_atom_site_fract_x
_atom_site_fract_y
_atom_site_fract_z
Ag1 Ag -0.088500(8) 0.78145(5) -0.392302(19)
Ag2 Ag -0.053800(9) 1.31088(5) -0.67600(2)
Ag3 Ag -0.019670(8) 0.74097(5) -0.562900(19)
Ag4 Ag -0.054270(11) 1.35654(4) -0.46496(2)
C1 C -0.17518(11) 0.5770(5) -0.4283(3)
H1 H -0.1625 0.4554 -0.4494
C2 C -0.21676(11) 0.5590(6) -0.4341(3)
H2 H -0.2325 0.4291 -0.4598
C3 C -0.23468(11) 0.7353(6) -0.4016(3)
C4 C -0.21120(11) 0.9263(6) -0.3652(3)
H3 H -0.2231 1.0493 -0.3430
C5 C -0.16997(11) 0.9299(6) -0.3629(3)
H4 H -0.1536 1.0585 -0.3381
C6 C -0.27751(14) 0.7207(7) -0.4030(4)
C7 C 0.02104(10) 1.1165(5) -0.3965(3)
C8 C 0.05639(10) 0.9551(5) -0.3519(2)
C9 C 0.09688(10) 0.9991(6) -0.3533(3)
H5 H 0.1023 1.1323 -0.3820
C10 C 0.12911(11) 0.8489(6) -0.3128(3)
H6 H 0.1565 0.8810 -0.3133
C11 C 0.12173(11) 0.6527(6) -0.2715(3)
H7 H 0.1438 0.5488 -0.2458
C12 C 0.08191(11) 0.6078(6) -0.2678(3)
H8 H 0.0770 0.4749 -0.2381
C13 C 0.04922(11) 0.7587(5) -0.3077(3)
C14 C 0.00646(11) 0.7124(5) -0.3022(3)
C15 C 0.06009(11) 0.8955(6) -0.6014(3)
H9 H 0.0425 1.0191 -0.6277
C16 C 0.10155(11) 0.9023(6) -0.5988(3)
H10 H 0.1122 1.0264 -0.6235
C17 C 0.12685(12) 0.7211(6) -0.5589(3)
C18 C 0.11036(11) 0.5407(6) -0.5255(3)
H11 H 0.1273 0.4155 -0.4983
C19 C 0.06830(11) 0.5463(6) -0.5324(3)
H12 H 0.0566 0.4214 -0.5109
C20 C 0.17058(13) 0.7179(6) -0.5548(3)
C21 C -0.12741(10) 1.1138(5) -0.5834(3)
C22 C -0.16398(10) 0.9521(5) -0.6168(3)
C23 C -0.20369(11) 1.0060(6) -0.6153(3)
H13 H -0.2082 1.1458 -0.5901
C24 C -0.23692(11) 0.8582(6) -0.6501(3)
H14 H -0.2640 0.8968 -0.6489
C25 C -0.23031(11) 0.6537(6) -0.6866(3)
H15 H -0.2529 0.5523 -0.7106
C26 C -0.19062(11) 0.5965(6) -0.6882(3)
H16 H -0.1863 0.4560 -0.7129
C27 C -0.15743(11) 0.7441(5) -0.6538(3)
C28 C -0.11439(10) 0.6802(5) -0.6524(3)
N1 N -0.15205(10) 0.7599(5) -0.3940(3)
N2 N -0.31092(13) 0.7030(7) -0.4030(4)
N3 N 0.04393(11) 0.7225(5) -0.5684(3)
N4 N 0.20444(12) 0.7134(6) -0.5532(4)
O1 O -0.10900(8) 1.1477(4) -0.6429(2)
O2 O -0.05214(8) 1.0858(4) -0.2529(2)
H17 H -0.0681 1.1845 -0.2423
H18 H -0.0282 1.1345 -0.2505
O3 O -0.11896(9) 1.1962(4) -0.4996(2)
O4 O -0.10992(8) 0.6119(4) -0.73003(19)
O5 O -0.08530(8) 0.6964(4) -0.5707(2)
O6 O 0.00506(8) 1.2095(4) -0.3398(2)
O7 O 0.00937(9) 1.1496(4) -0.4865(2)
O8 O 0.00381(8) 0.6659(4) -0.22096(18)
O9 O -0.02363(8) 0.7303(4) -0.3823(2)
Ag1A Ag -0.088500(8) 1.21855(5) -0.892302(19)
Ag1_2 Ag -0.088500(8) 1.78145(5) -0.392302(19)
Ag2A Ag -0.053800(9) 0.68912(5) -0.17600(2)
Ag2_2 Ag -0.053800(9) 0.31088(5) -0.67600(2)
Ag3_2 Ag -0.019670(8) 1.74097(5) -0.562900(19)
Ag4_2 Ag -0.054270(11) 0.35654(4) -0.46496(2)
O2A O -0.05214(8) 0.9142(4) -0.7529(2)
H17A H -0.0681 0.8155 -0.7423
H18A H -0.0282 0.8655 -0.7505
O4_2 O -0.10992(8) 1.6119(4) -0.73003(19)
O5_2 O -0.08530(8) 1.6964(4) -0.5707(2)
O8A O 0.00381(8) 1.3341(4) -0.72096(18)
O9_2 O -0.02363(8) 1.7303(4) -0.3823(2)
loop_
_geom_bond_atom_site_label_1
_geom_bond_atom_site_label_2
_geom_bond_site_symmetry_1
_geom_bond_site_symmetry_2
Ag1 N1 1_555 1_555
Ag2 O1 1_555 1_555
Ag3 N3 1_555 1_555
Ag4 O3 1_555 1_555
C1 H1 1_555 1_555
C2 C1 1_555 1_555
H2 C2 1_555 1_555
C3 C2 1_555 1_555
C4 C3 1_555 1_555
H3 C4 1_555 1_555
C5 C4 1_555 1_555
H4 C5 1_555 1_555
C6 C3 1_555 1_555
C7 C8 1_555 1_555
C8 C9 1_555 1_555
C9 H5 1_555 1_555
C10 C9 1_555 1_555
H6 C10 1_555 1_555
C11 C10 1_555 1_555
H7 C11 1_555 1_555
C12 C11 1_555 1_555
H8 C12 1_555 1_555
C13 C8 1_555 1_555
C14 C13 1_555 1_555
C15 H9 1_555 1_555
C16 C15 1_555 1_555
H10 C16 1_555 1_555
C17 C16 1_555 1_555
C18 C17 1_555 1_555
H11 C18 1_555 1_555
C19 C18 1_555 1_555
H12 C19 1_555 1_555
C20 C17 1_555 1_555
C21 C22 1_555 1_555
C22 C23 1_555 1_555
C23 H13 1_555 1_555
C24 C23 1_555 1_555
H14 C24 1_555 1_555
C25 C24 1_555 1_555
H15 C25 1_555 1_555
C26 C25 1_555 1_555
H16 C26 1_555 1_555
C27 C22 1_555 1_555
C28 C27 1_555 1_555
N1 C1 1_555 1_555
N2 C6 1_555 1_555
N3 C15 1_555 1_555
N4 C20 1_555 1_555
O1 C21 1_555 1_555
O2 Ag1 1_555 1_555
H17 O2 1_555 1_555
H18 O2 1_555 1_555
O3 C21 1_555 1_555
O4 C28 1_555 1_555
O5 Ag1 1_555 1_555
O6 Ag4 1_555 1_555
O7 Ag4 1_555 1_555
O8 C14 1_555 1_555
O9 Ag1 1_555 1_555
Ag1A O2A 1_555 1_555
Ag1_2 O5_2 1_555 1_555
Ag2A O2 1_555 1_555
Ag2_2 O4 1_555 1_555
Ag3_2 O5_2 1_555 1_555
Ag4_2 O5 1_555 1_555
O2A Ag2 1_555 1_555
H17A O2A 1_555 1_555
H18A O2A 1_555 1_555
O4_2 Ag2 1_555 1_555
O5_2 Ag4 1_555 1_555
O8A Ag2 1_555 1_555
O9_2 Ag4 1_555 1_555
Ag3 O5 1_555 1_555
Ag3 O9 1_555 1_555
C5 N1 1_555 1_555
C7 O6 1_555 1_555
C7 O7 1_555 1_555
C12 C13 1_555 1_555
C14 O9 1_555 1_555
C19 N3 1_555 1_555
C26 C27 1_555 1_555
C28 O5 1_555 1_555
O8 Ag2A 1_555 1_555
O9 Ag4_2 1_555 1_555
Ag1_2 O9_2 1_555 1_555
Ag3_2 O9_2 1_555 1_555

#END
