
#######################################################################
#
#                 Cambridge Crystallographic Data Centre
#                                CCDC 
#
#######################################################################
#
# If this CIF has been generated from an entry in the Cambridge 
# Structural Database, then it will include bibliographic, chemical, 
# crystal, experimental, refinement or atomic coordinate data resulting 
# from the CCDC's data processing and validation procedures.
#
#######################################################################

data_EMOWEJ
_symmetry_cell_setting           monoclinic
_symmetry_space_group_name_H-M   'P 21/c'
_symmetry_Int_Tables_number      14
_space_group_name_Hall           '-P 2ybc'
loop_
_symmetry_equiv_pos_site_id
_symmetry_equiv_pos_as_xyz
1 x,y,z
2 -x,1/2+y,1/2-z
3 -x,-y,-z
4 x,1/2-y,1/2+z
_cell_length_a                   9.9448(11)
_cell_length_b                   23.481(3)
_cell_length_c                   9.1979(12)
_cell_angle_alpha                90
_cell_angle_beta                 112.1790(10)
_cell_angle_gamma                90
_cell_volume                     1988.92
loop_
_atom_site_label
_atom_site_type_symbol
_atom_site_fract_x
_atom_site_fract_y
_atom_site_fract_z
Cd1 Cd 0.70571(4) 0.146882(17) 0.31503(5)
I1 I 0.55738(5) 0.231809(18) 0.13048(5)
I2 I 0.77845(5) 0.052104(19) 0.19104(6)
N1 N 0.6113(5) 0.10784(18) 0.4819(5)
N2 N 0.4845(5) 0.12258(19) 0.4803(5)
N3 N 0.4533(5) 0.08880(19) 0.5811(5)
N4 N 0.1142(4) 0.17094(18) 0.6989(5)
N5 N 0.0004(5) 0.14373(19) 0.5965(6)
N6 N -0.0865(5) 0.18171(19) 0.5023(6)
C1 C 0.5625(6) 0.0511(2) 0.6509(6)
C2 C 0.6658(6) 0.0637(2) 0.5874(6)
C3 C 0.7956(6) 0.0329(2) 0.6328(7)
H1 H 0.8656 0.0408 0.5913
C4 C 0.8149(7) -0.0094(3) 0.7406(8)
H2 H 0.9004 -0.0304 0.7746
C5 C 0.7080(7) -0.0216(3) 0.8011(8)
H3 H 0.7244 -0.0514 0.8723
C6 C 0.5816(7) 0.0080(2) 0.7610(7)
H4 H 0.5127 0.0000 0.8040
C7 C -0.0285(5) 0.2353(2) 0.5454(6)
C8 C 0.1024(6) 0.2283(2) 0.6715(6)
C9 C 0.1905(6) 0.2748(3) 0.7441(7)
H5 H 0.2779 0.2703 0.8291
C10 C 0.1409(7) 0.3265(3) 0.6829(8)
H6 H 0.1971 0.3584 0.7262
C11 C 0.0075(7) 0.3341(3) 0.5562(8)
H7 H -0.0232 0.3707 0.5209
C12 C -0.0780(6) 0.2886(2) 0.4836(7)
H8 H -0.1646 0.2933 0.3976
C13 C 0.3231(6) 0.0986(3) 0.6155(6)
H9 H 0.2795 0.0624 0.6231
H10 H 0.2530 0.1202 0.5306
C14 C 0.3607(6) 0.1310(2) 0.7678(6)
H11 H 0.3989 0.1681 0.7570
H12 H 0.4363 0.1106 0.8505
C15 C 0.2314(6) 0.1389(2) 0.8149(6)
H13 H 0.1951 0.1018 0.8291
H14 H 0.2626 0.1587 0.9148
Cd1_2 Cd -0.29429(4) 0.146882(17) 0.31503(5)
N6_2 N 0.9135(5) 0.18171(19) 0.5023(6)
loop_
_geom_bond_atom_site_label_1
_geom_bond_atom_site_label_2
_geom_bond_site_symmetry_1
_geom_bond_site_symmetry_2
Cd1 I1 1_555 1_555
I2 Cd1 1_555 1_555
N1 Cd1 1_555 1_555
N2 N1 1_555 1_555
N3 N2 1_555 1_555
N4 N5 1_555 1_555
N5 N6 1_555 1_555
N6 C7 1_555 1_555
C1 N3 1_555 1_555
C2 N1 1_555 1_555
C3 C2 1_555 1_555
H1 C3 1_555 1_555
C4 C3 1_555 1_555
H2 C4 1_555 1_555
C5 C4 1_555 1_555
H3 C5 1_555 1_555
C6 C1 1_555 1_555
H4 C6 1_555 1_555
C7 C8 1_555 1_555
C8 N4 1_555 1_555
C9 C8 1_555 1_555
H5 C9 1_555 1_555
C10 C9 1_555 1_555
H6 C10 1_555 1_555
C11 C10 1_555 1_555
H7 C11 1_555 1_555
C12 C7 1_555 1_555
H8 C12 1_555 1_555
C13 N3 1_555 1_555
H9 C13 1_555 1_555
H10 C13 1_555 1_555
C14 C13 1_555 1_555
H11 C14 1_555 1_555
H12 C14 1_555 1_555
C15 N4 1_555 1_555
H13 C15 1_555 1_555
H14 C15 1_555 1_555
Cd1_2 N6 1_555 1_555
N6_2 Cd1 1_555 1_555
C1 C2 1_555 1_555
C5 C6 1_555 1_555
C11 C12 1_555 1_555
C14 C15 1_555 1_555

#END
