
#######################################################################
#
#                 Cambridge Crystallographic Data Centre
#                                CCDC 
#
#######################################################################
#
# If this CIF has been generated from an entry in the Cambridge 
# Structural Database, then it will include bibliographic, chemical, 
# crystal, experimental, refinement or atomic coordinate data resulting 
# from the CCDC's data processing and validation procedures.
#
#######################################################################

data_ENEDUX
_symmetry_cell_setting           monoclinic
_symmetry_space_group_name_H-M   'C 2/c'
_symmetry_Int_Tables_number      15
_space_group_name_Hall           '-C 2yn'
loop_
_symmetry_equiv_pos_site_id
_symmetry_equiv_pos_as_xyz
1 x,y,z
2 -x,y,1/2-z
3 1/2+x,1/2+y,z
4 1/2-x,1/2+y,1/2-z
5 -x,-y,-z
6 x,-y,1/2+z
7 1/2-x,1/2-y,-z
8 1/2+x,1/2-y,1/2+z
_cell_length_a                   22.320(10)
_cell_length_b                   7.131(3)
_cell_length_c                   14.065(7)
_cell_angle_alpha                90
_cell_angle_beta                 110.119(8)
_cell_angle_gamma                90
_cell_volume                     2102.04
loop_
_atom_site_label
_atom_site_type_symbol
_atom_site_fract_x
_atom_site_fract_y
_atom_site_fract_z
Tb1 Tb 0.382022(11) 0.11863(3) 0.810917(16)
O1 O 0.49732(16) 0.1313(5) 0.8942(3)
O2 O 0.28615(17) -0.0032(5) 0.8188(3)
N1 N 0.3031(2) 0.0265(6) 0.6430(3)
N2 N 0.2383(2) -0.0024(6) 0.4865(3)
H1 H 0.2242 0.0022 0.4215
C1 C 0.2380(2) -0.0576(7) 0.7452(4)
C2 C 0.5227(2) 0.0578(7) 0.9801(4)
C3 C 0.2970(3) 0.0415(8) 0.5468(4)
H2 H 0.3297 0.0781 0.5239
C4 C 0.2444(2) -0.0367(7) 0.6434(4)
O3 O 0.18833(17) -0.1204(5) 0.7552(3)
O4 O 0.1122(2) -0.0965(5) 0.4060(3)
O5 O 0.57991(17) 0.0689(5) 1.0350(3)
C5 C 0.1375(3) -0.1167(7) 0.5001(4)
C6 C 0.2040(3) -0.0564(7) 0.5466(4)
O6 O 0.10849(19) -0.1849(6) 0.5544(3)
O7 O 0.4151(3) -0.1648(6) 0.7615(3)
H3 H 0.4310 -0.2520 0.8051
H4 H 0.4057 -0.2128 0.7022
O8 O 0.42118(17) 0.2649(5) 0.6960(3)
H5 H 0.4494 0.2309 0.6702
H6 H 0.4101 0.3780 0.6759
Tb1D Tb 0.617978(11) -0.11863(3) 1.189083(16)
Tb1C Tb 0.117978(11) -0.38137(3) 0.689083(16)
Tb1C_2 Tb 0.117978(11) 0.61863(3) 0.689083(16)
O1D O 0.50268(16) -0.1313(5) 1.1058(3)
O2C O 0.21385(17) 0.4968(5) 0.6812(3)
O2D O 0.71385(17) 0.0032(5) 1.1812(3)
N1C N 0.1969(2) 0.5265(6) 0.8570(3)
N1D N 0.6969(2) -0.0265(6) 1.3570(3)
N2C N 0.2617(2) 0.4976(6) 1.0135(3)
H1C H 0.2758 0.5022 1.0785
C1C C 0.2620(2) 0.4424(7) 0.7548(4)
C2D C 0.4773(2) -0.0578(7) 1.0199(4)
C3C C 0.2030(3) 0.5415(8) 0.9532(4)
H2C H 0.1703 0.5781 0.9761
C4C C 0.2556(2) 0.4633(7) 0.8566(4)
O3C O 0.31167(17) 0.3796(5) 0.7448(3)
O3G O 0.68833(17) -0.3796(5) 1.2552(3)
O4C O 0.3878(2) 0.4035(5) 1.0940(3)
O5D O 0.42009(17) -0.0689(5) 0.9650(3)
C5C C 0.3625(3) 0.3833(7) 0.9999(4)
C6C C 0.2960(3) 0.4436(7) 0.9534(4)
O6C O 0.39151(19) 0.3151(6) 0.9456(3)
O6G O 0.60849(19) -0.3151(6) 1.0544(3)
O7D O 0.5849(3) 0.1648(6) 1.2385(3)
H3D H 0.5690 0.2520 1.1949
H4D H 0.5943 0.2128 1.2978
O8D O 0.57882(17) -0.2649(5) 1.3040(3)
H5D H 0.5506 -0.2309 1.3298
H6D H 0.5899 -0.3780 1.3241
O9 O 0.4814(3) 0.5783(8) 0.8866(5)
H7 H 0.4666 0.5081 0.9231
H8 H 0.5209 0.5476 0.8998
loop_
_geom_bond_atom_site_label_1
_geom_bond_atom_site_label_2
_geom_bond_site_symmetry_1
_geom_bond_site_symmetry_2
Tb1 O1 1_555 1_555
O1 C2 1_555 1_555
O2 Tb1 1_555 1_555
N1 Tb1 1_555 1_555
N2 H1 1_555 1_555
C1 O2 1_555 1_555
C2 O5 1_555 1_555
C3 N1 1_555 1_555
H2 C3 1_555 1_555
C4 N1 1_555 1_555
O3 C1 1_555 1_555
O4 C5 1_555 1_555
O5 Tb1D 1_555 1_555
C5 C6 1_555 1_555
C6 N2 1_555 1_555
O6 C5 1_555 1_555
O7 Tb1 1_555 1_555
H3 O7 1_555 1_555
H4 O7 1_555 1_555
O8 Tb1 1_555 1_555
H5 O8 1_555 1_555
H6 O8 1_555 1_555
O9 H7 1_555 1_555
H8 O9 1_555 1_555
Tb1D O1D 1_555 1_555
Tb1C O3 1_555 1_555
Tb1C_2 O2C 1_555 1_555
O1D C2D 1_555 1_555
O2C C1C 1_555 1_555
O2D Tb1D 1_555 1_555
N1C Tb1C_2 1_555 1_555
N1D Tb1D 1_555 1_555
N2C H1C 1_555 1_555
C1C C4C 1_555 1_555
C2D C2 1_555 1_555
C3C N1C 1_555 1_555
H2C C3C 1_555 1_555
C4C N1C 1_555 1_555
O3C Tb1 1_555 1_555
O3G Tb1D 1_555 1_555
O4C C5C 1_555 1_555
O5D Tb1 1_555 1_555
C5C C6C 1_555 1_555
C6C N2C 1_555 1_555
O6C Tb1 1_555 1_555
O6G Tb1D 1_555 1_555
O7D Tb1D 1_555 1_555
H3D O7D 1_555 1_555
H4D O7D 1_555 1_555
O8D Tb1D 1_555 1_555
H5D O8D 1_555 1_555
H6D O8D 1_555 1_555
N2 C3 1_555 1_555
C1 C4 1_555 1_555
C4 C6 1_555 1_555
O6 Tb1C 1_555 1_555
N2C C3C 1_555 1_555
C1C O3C 1_555 1_555
C2D O5D 1_555 1_555
C4C C6C 1_555 1_555
C5C O6C 1_555 1_555

#END
