
#######################################################################
#
#                 Cambridge Crystallographic Data Centre
#                                CCDC 
#
#######################################################################
#
# If this CIF has been generated from an entry in the Cambridge 
# Structural Database, then it will include bibliographic, chemical, 
# crystal, experimental, refinement or atomic coordinate data resulting 
# from the CCDC's data processing and validation procedures.
#
#######################################################################

data_ENESOG
_symmetry_cell_setting           monoclinic
_symmetry_space_group_name_H-M   'C 2/m'
_symmetry_Int_Tables_number      12
_space_group_name_Hall           '-C 2y'
loop_
_symmetry_equiv_pos_site_id
_symmetry_equiv_pos_as_xyz
1 x,y,z
2 -x,y,-z
3 1/2+x,1/2+y,z
4 1/2-x,1/2+y,-z
5 -x,-y,-z
6 x,-y,z
7 1/2-x,1/2-y,-z
8 1/2+x,1/2-y,z
_cell_length_a                   7.091(4)
_cell_length_b                   12.198(6)
_cell_length_c                   7.592(4)
_cell_angle_alpha                90
_cell_angle_beta                 118.367(4)
_cell_angle_gamma                90
_cell_volume                     577.825
loop_
_atom_site_label
_atom_site_type_symbol
_atom_site_fract_x
_atom_site_fract_y
_atom_site_fract_z
Mn1 Mn 0.00000 0.00000 0.50000
Cu1 Cu 0.25000 0.25000 0.00000
C1 C 0.1885(3) 0.14439 0.2732(5)
C2 C 0.2327(3) 0.05645 0.1605(5)
N1 N 0.2871(3) 0.09108 0.0185(5)
N2 N 0.3002(3) 0.00000 -0.0800(5)
O1 O 0.1896(8) 0.24294(2) 0.2323(6)
O2 O 0.1618(7) 0.10981(4) 0.4206(7)
Cu1C Cu 0.25000 -0.25000 0.00000
Cu1A Cu -0.25000 0.25000 1.00000
Cu1B Cu -0.25000 -0.25000 1.00000
C1E C 0.1885(3) -0.14439 0.2732(5)
C1A C -0.1885(3) 0.14439 0.7268(5)
C1D C -0.1885(3) -0.14439 0.7268(5)
C2E C 0.2327(3) -0.05645 0.1605(5)
C2A C -0.2327(3) 0.05645 0.8395(5)
C2D C -0.2327(3) -0.05645 0.8395(5)
N1E N 0.2871(3) -0.09108 0.0185(5)
N1A N -0.2871(3) 0.09108 0.9815(5)
N1D N -0.2871(3) -0.09108 0.9815(5)
N1F N 0.2129(3) 0.40892 -0.0185(5)
N1C N 0.2129(3) -0.40892 -0.0185(5)
N2A N -0.3002(3) 0.00000 1.0800(5)
O1E O 0.1896(8) -0.24294(2) 0.2323(6)
O1A O -0.1896(8) 0.24294(2) 0.7677(6)
O1D O -0.1896(8) -0.24294(2) 0.7677(6)
O1F O 0.3104(8) 0.25706(2) -0.2323(6)
O1C O 0.3104(8) -0.25706(2) -0.2323(6)
O2E O 0.1618(7) -0.10981(4) 0.4206(7)
O2A O -0.1618(7) 0.10981(4) 0.5794(7)
O2D O -0.1618(7) -0.10981(4) 0.5794(7)
loop_
_geom_bond_atom_site_label_1
_geom_bond_atom_site_label_2
_geom_bond_site_symmetry_1
_geom_bond_site_symmetry_2
Mn1 O2 1_555 1_555
Cu1 N1 1_555 1_555
C1 C2 1_555 1_555
C2 N1 1_555 1_555
N1 N2 1_555 1_555
N2 N1E 1_555 1_555
O1 Cu1 1_555 1_555
O2 C1 1_555 1_555
Cu1C N1E 1_555 1_555
Cu1A N1A 1_555 1_555
Cu1B N1D 1_555 1_555
C1E C2E 1_555 1_555
C1A C2A 1_555 1_555
C1D C2D 1_555 1_555
C2E C2 1_555 1_555
C2A C2D 1_555 1_555
C2D N1D 1_555 1_555
N1E C2E 1_555 1_555
N1A C2A 1_555 1_555
N1D N2A 1_555 1_555
N1F Cu1 1_555 1_555
N1C Cu1C 1_555 1_555
N2A N1A 1_555 1_555
O1E Cu1C 1_555 1_555
O1A Cu1A 1_555 1_555
O1D Cu1B 1_555 1_555
O1F Cu1 1_555 1_555
O1C Cu1C 1_555 1_555
O2E Mn1 1_555 1_555
O2A Mn1 1_555 1_555
O2D Mn1 1_555 1_555
C1 O1 1_555 1_555
C1E O1E 1_555 1_555
C1E O2E 1_555 1_555
C1A O1A 1_555 1_555
C1A O2A 1_555 1_555
C1D O1D 1_555 1_555
C1D O2D 1_555 1_555

#END
