
#######################################################################
#
#                 Cambridge Crystallographic Data Centre
#                                CCDC 
#
#######################################################################
#
# If this CIF has been generated from an entry in the Cambridge 
# Structural Database, then it will include bibliographic, chemical, 
# crystal, experimental, refinement or atomic coordinate data resulting 
# from the CCDC's data processing and validation procedures.
#
#######################################################################

data_ENETOH
_symmetry_cell_setting           triclinic
_symmetry_space_group_name_H-M   'P -1'
_symmetry_Int_Tables_number      2
_space_group_name_Hall           '-P 1'
loop_
_symmetry_equiv_pos_site_id
_symmetry_equiv_pos_as_xyz
1 x,y,z
2 -x,-y,-z
_cell_length_a                   8.0881(14)
_cell_length_b                   11.0197(14)
_cell_length_c                   11.4332(17)
_cell_angle_alpha                103.268(2)
_cell_angle_beta                 102.458(2)
_cell_angle_gamma                105.2120(10)
_cell_volume                     914.83
loop_
_atom_site_label
_atom_site_type_symbol
_atom_site_fract_x
_atom_site_fract_y
_atom_site_fract_z
Co1 Co 0.0000 0.0000 0.0000
N1 N 0.2771(2) 0.09690(18) 0.04654(18)
C1 C 0.3935(3) 0.1673(3) 0.1643(2)
H1 H 0.3622 0.1790 0.2388
N2 N 0.5466(3) 0.1775(2) 0.0318(2)
H2 H 0.6329 0.1958 -0.0008
C2 C 0.5591(4) 0.2166(3) 0.1555(3)
H3 H 0.6620 0.2674 0.2213
C3 C 0.3768(3) 0.1057(3) -0.0301(2)
H4 H 0.3338 0.0666 -0.1167
O1 O 0.0505(2) -0.08119(15) 0.15348(14)
O2 O 0.0527(3) 0.07632(18) 0.31565(17)
C4 C 0.0683(3) -0.0327(2) 0.2686(2)
C5 C 0.1191(3) -0.1094(2) 0.3577(2)
H5 H 0.0476 -0.1078 0.4158
H6 H 0.0922 -0.2007 0.3097
C6 C 0.3166(3) -0.0521(2) 0.4317(2)
C7 C 0.4484(3) -0.0303(2) 0.3713(2)
H7 H 0.4149 -0.0506 0.2842
C8 C 0.3712(3) -0.0211(2) 0.5616(2)
H8 H 0.2857 -0.0351 0.6043
O3 O 0.0340(2) -0.16640(16) -0.12061(15)
H9 H 0.0173 -0.1663 -0.1966
H10 H -0.0333 -0.2413 -0.1221
Co1_2 Co 1.0000 0.0000 1.0000
N1A N -0.2771(2) -0.09690(18) -0.04654(18)
C1A C -0.3935(3) -0.1673(3) -0.1643(2)
H1A H -0.3622 -0.1790 -0.2388
N2A N -0.5466(3) -0.1775(2) -0.0318(2)
H2A H -0.6329 -0.1958 0.0008
C2A C -0.5591(4) -0.2166(3) -0.1555(3)
H3A H -0.6620 -0.2674 -0.2213
C3A C -0.3768(3) -0.1057(3) 0.0301(2)
H4A H -0.3338 -0.0666 0.1167
O1A O 0.9495(2) 0.08119(15) 0.84652(14)
O1A_2 O -0.0505(2) 0.08119(15) -0.15348(14)
O2A O 0.9473(3) -0.07632(18) 0.68435(17)
C4A C 0.9317(3) 0.0327(2) 0.7314(2)
C5A C 0.8809(3) 0.1094(2) 0.6423(2)
H5A H 0.9524 0.1078 0.5842
H6A H 0.9078 0.2007 0.6903
C6A C 0.6834(3) 0.0521(2) 0.5683(2)
C7A C 0.5516(3) 0.0303(2) 0.6287(2)
H7A H 0.5851 0.0506 0.7158
C8A C 0.6288(3) 0.0211(2) 0.4384(2)
H8A H 0.7143 0.0351 0.3957
O3A O -0.0340(2) 0.16640(16) 0.12061(15)
H9A H -0.0173 0.1663 0.1966
H10A H 0.0333 0.2413 0.1221
Co2 Co 0.0000 0.5000 0.0000
N3 N 0.1776(3) 0.44758(19) -0.09436(18)
C9 C 0.1835(3) 0.4532(3) -0.2076(2)
H11 H 0.1185 0.4936 -0.2539
N4 N 0.2929(3) 0.3945(2) -0.2472(2)
H12 H 0.3164 0.3879 -0.3178
C10 C 0.3610(5) 0.3468(4) -0.1564(3)
H13 H 0.4416 0.3003 -0.1580
C11 C 0.2897(4) 0.3795(3) -0.0632(3)
H14 H 0.3134 0.3588 0.0117
O4 O 0.1187(2) 0.44149(15) 0.15440(14)
O5 O 0.3087(2) 0.63886(16) 0.27623(15)
C12 C 0.2302(3) 0.5191(2) 0.2573(2)
C13 C 0.2631(3) 0.4640(2) 0.3674(2)
H15 H 0.2492 0.3711 0.3368
H16 H 0.3843 0.5102 0.4224
C14 C 0.1299(3) 0.4814(2) 0.4391(2)
C15 C -0.0091(3) 0.3752(2) 0.4363(2)
H17 H -0.0169 0.2902 0.3937
C16 C 0.1372(3) 0.6070(2) 0.5042(2)
H18 H 0.2295 0.6802 0.5078
O6 O 0.1795(2) 0.70789(15) 0.08011(14)
H19 H 0.2552 0.7211 0.1503
H20 H 0.1219 0.7620 0.0926
Co2_2 Co 0.0000 0.5000 1.0000
N3A N -0.1776(3) 0.55242(19) 0.09436(18)
C9A C -0.1835(3) 0.5468(3) 0.2076(2)
H11A H -0.1185 0.5064 0.2539
N4A N -0.2929(3) 0.6055(2) 0.2472(2)
H12A H -0.3164 0.6121 0.3178
C10A C -0.3610(5) 0.6532(4) 0.1564(3)
H13A H -0.4416 0.6997 0.1580
C11A C -0.2897(4) 0.6205(3) 0.0632(3)
H14A H -0.3134 0.6412 -0.0117
O4A O -0.1187(2) 0.55851(15) 0.84560(14)
O4A_2 O -0.1187(2) 0.55851(15) -0.15440(14)
O5A O -0.3087(2) 0.36114(16) 0.72377(15)
C12A C -0.2302(3) 0.4809(2) 0.7427(2)
C13A C -0.2631(3) 0.5360(2) 0.6326(2)
H15A H -0.2492 0.6289 0.6632
H16A H -0.3843 0.4898 0.5776
C14A C -0.1299(3) 0.5186(2) 0.5609(2)
C15A C 0.0091(3) 0.6248(2) 0.5637(2)
H17A H 0.0169 0.7098 0.6063
C16A C -0.1372(3) 0.3930(2) 0.4958(2)
H18A H -0.2295 0.3198 0.4922
O6A O -0.1795(2) 0.29211(15) -0.08011(14)
H19A H -0.2552 0.2789 -0.1503
H20A H -0.1219 0.2380 -0.0926
O7 O 0.3566(3) 0.2751(2) 0.52537(19)
H21 H 0.2727 0.2025 0.4822
H22 H 0.4463 0.2584 0.5644
loop_
_geom_bond_atom_site_label_1
_geom_bond_atom_site_label_2
_geom_bond_site_symmetry_1
_geom_bond_site_symmetry_2
Co1 N1 1_555 1_555
N1 C1 1_555 1_555
C1 H1 1_555 1_555
N2 H2 1_555 1_555
C2 C1 1_555 1_555
H3 C2 1_555 1_555
C3 N1 1_555 1_555
H4 C3 1_555 1_555
O1 Co1 1_555 1_555
O2 C4 1_555 1_555
C4 O1 1_555 1_555
C5 C4 1_555 1_555
H5 C5 1_555 1_555
H6 C5 1_555 1_555
C6 C5 1_555 1_555
C7 C6 1_555 1_555
H7 C7 1_555 1_555
C8 C6 1_555 1_555
H8 C8 1_555 1_555
O3 Co1 1_555 1_555
H9 O3 1_555 1_555
H10 O3 1_555 1_555
Co2 N3 1_555 1_555
N3 C9 1_555 1_555
C9 H11 1_555 1_555
N4 C9 1_555 1_555
H12 N4 1_555 1_555
C10 N4 1_555 1_555
H13 C10 1_555 1_555
C11 N3 1_555 1_555
H14 C11 1_555 1_555
O4 Co2 1_555 1_555
O5 C12 1_555 1_555
C12 O4 1_555 1_555
C13 C12 1_555 1_555
H15 C13 1_555 1_555
H16 C13 1_555 1_555
C14 C13 1_555 1_555
C15 C14 1_555 1_555
H17 C15 1_555 1_555
C16 C14 1_555 1_555
H18 C16 1_555 1_555
O6 Co2 1_555 1_555
H19 O6 1_555 1_555
H20 O6 1_555 1_555
O7 H21 1_555 1_555
H22 O7 1_555 1_555
Co1_2 O1A 1_555 1_555
N1A Co1 1_555 1_555
C1A N1A 1_555 1_555
H1A C1A 1_555 1_555
N2A H2A 1_555 1_555
C2A C1A 1_555 1_555
H3A C2A 1_555 1_555
C3A N1A 1_555 1_555
H4A C3A 1_555 1_555
O1A C4A 1_555 1_555
O1A_2 Co1 1_555 1_555
O2A C4A 1_555 1_555
C4A C5A 1_555 1_555
C5A H5A 1_555 1_555
H6A C5A 1_555 1_555
C6A C5A 1_555 1_555
C7A C8 1_555 1_555
H7A C7A 1_555 1_555
C8A C7 1_555 1_555
H8A C8A 1_555 1_555
O3A Co1 1_555 1_555
H9A O3A 1_555 1_555
H10A O3A 1_555 1_555
Co2_2 O4A 1_555 1_555
N3A Co2 1_555 1_555
C9A N3A 1_555 1_555
H11A C9A 1_555 1_555
N4A C9A 1_555 1_555
H12A N4A 1_555 1_555
C10A N4A 1_555 1_555
H13A C10A 1_555 1_555
C11A N3A 1_555 1_555
H14A C11A 1_555 1_555
O4A C12A 1_555 1_555
O4A_2 Co2 1_555 1_555
O5A C12A 1_555 1_555
C12A C13A 1_555 1_555
C13A H15A 1_555 1_555
H16A C13A 1_555 1_555
C14A C13A 1_555 1_555
C15A C16 1_555 1_555
H17A C15A 1_555 1_555
C16A C15 1_555 1_555
H18A C16A 1_555 1_555
O6A Co2 1_555 1_555
H19A O6A 1_555 1_555
H20A O6A 1_555 1_555
N2 C2 1_555 1_555
N2 C3 1_555 1_555
C10 C11 1_555 1_555
N2A C2A 1_555 1_555
N2A C3A 1_555 1_555
C6A C7A 1_555 1_555
C6A C8A 1_555 1_555
C10A C11A 1_555 1_555
C14A C15A 1_555 1_555
C14A C16A 1_555 1_555

#END
