
#######################################################################
#
#                 Cambridge Crystallographic Data Centre
#                                CCDC 
#
#######################################################################
#
# If this CIF has been generated from an entry in the Cambridge 
# Structural Database, then it will include bibliographic, chemical, 
# crystal, experimental, refinement or atomic coordinate data resulting 
# from the CCDC's data processing and validation procedures.
#
#######################################################################

data_ENEYUS
_symmetry_cell_setting           monoclinic
_symmetry_space_group_name_H-M   'P 21/n'
_symmetry_Int_Tables_number      14
_space_group_name_Hall           '-P 2yn'
loop_
_symmetry_equiv_pos_site_id
_symmetry_equiv_pos_as_xyz
1 x,y,z
2 1/2-x,1/2+y,1/2-z
3 -x,-y,-z
4 1/2+x,1/2-y,1/2+z
_cell_length_a                   11.4601(2)
_cell_length_b                   25.0292(6)
_cell_length_c                   13.8946(3)
_cell_angle_alpha                90
_cell_angle_beta                 109.0160(10)
_cell_angle_gamma                90
_cell_volume                     3767.99
loop_
_atom_site_label
_atom_site_type_symbol
_atom_site_fract_x
_atom_site_fract_y
_atom_site_fract_z
C1 C 0.5321(4) 0.10350(18) 0.3285(3)
H1 H 0.4738 0.1255 0.3419
C2 C 0.5035(4) 0.0597(2) 0.2613(4)
H2 H 0.4251 0.0478 0.2235
C3 C 0.6127(4) 0.03821(19) 0.2626(4)
H3 H 0.6231 0.0088 0.2253
C4 C 0.7084(4) 0.06883(17) 0.3313(3)
C5 C 0.8356(4) 0.06349(17) 0.3538(3)
C6 C 0.9246(4) 0.09696(17) 0.4195(3)
C7 C 1.0543(4) 0.09488(19) 0.4426(3)
H4 H 1.0984 0.0698 0.4189
C8 C 1.1024(4) 0.1367(2) 0.5063(4)
H5 H 1.1854 0.1457 0.5341
C9 C 1.0031(4) 0.16350(19) 0.5217(3)
H6 H 1.0104 0.1939 0.5618
C10 C 0.8820(4) 0.02068(17) 0.3018(3)
C11 C 0.8686(4) -0.03331(18) 0.3189(4)
H7 H 0.8240 -0.0443 0.3605
C12 C 0.9224(4) -0.07047(19) 0.2731(4)
H8 H 0.9159 -0.1068 0.2847
C13 C 0.9856(4) -0.05323(18) 0.2101(3)
H9 H 1.0228 -0.0785 0.1805
C14 C 0.9446(4) 0.03474(17) 0.2356(3)
H10 H 0.9517 0.0708 0.2220
C15 C 0.8569(4) 0.20258(19) 0.6765(3)
H11 H 0.8622 0.1687 0.7051
C16 C 0.8994(4) 0.24914(19) 0.7324(3)
H12 H 0.9379 0.2517 0.8024
C17 C 0.8732(4) 0.29015(19) 0.6638(3)
H13 H 0.8896 0.3262 0.6786
C18 C 0.8161(4) 0.26775(17) 0.5657(3)
C19 C 0.7841(4) 0.29326(17) 0.4713(3)
C20 C 0.7510(4) 0.26756(17) 0.3779(3)
C21 C 0.7376(4) 0.28985(19) 0.2800(3)
H14 H 0.7417 0.3259 0.2649
C22 C 0.7174(5) 0.2482(2) 0.2130(4)
H15 H 0.7070 0.2504 0.1439
C23 C 0.7154(4) 0.20143(19) 0.2682(3)
H16 H 0.7023 0.1673 0.2403
C24 C 0.7913(4) 0.35262(17) 0.4740(3)
C25 C 0.8709(4) 0.3813(2) 0.4376(4)
H17 H 0.9225 0.3639 0.4081
C26 C 0.8728(5) 0.4364(2) 0.4458(4)
H18 H 0.9258 0.4565 0.4218
C27 C 0.7962(4) 0.46103(19) 0.4891(4)
H19 H 0.7994 0.4981 0.4950
C28 C 0.7153(4) 0.38105(17) 0.5159(3)
H20 H 0.6607 0.3620 0.5399
C29 C 0.4102(4) 0.2098(2) 0.5185(4)
H21 H 0.4228 0.2454 0.4983
H22 H 0.3968 0.2109 0.5832
H23 H 0.3395 0.1944 0.4686
C30 C 0.5218(4) 0.17657(18) 0.5272(3)
C31 C 0.5519(4) 0.13214(18) 0.5930(3)
C32 C 0.6574(4) 0.09933(18) 0.6084(3)
C33 C 0.6759(5) 0.0507(2) 0.6750(5)
H24 H 0.7360 0.0278 0.6618
H25 H 0.5991 0.0319 0.6607
H26 H 0.7044 0.0614 0.7452
C34 C 0.4678(5) 0.1187(2) 0.6468(4)
N1 N 0.6542(3) 0.10932(14) 0.3704(3)
N2 N 0.8962(3) 0.13980(14) 0.4715(3)
N3 N 0.9958(3) -0.00154(15) 0.1898(3)
N4 N 0.8078(3) 0.21269(14) 0.5770(3)
N5 N 0.7349(3) 0.21245(14) 0.3661(3)
N6 N 0.7168(3) 0.43438(14) 0.5235(3)
N7 N 0.4008(4) 0.1073(2) 0.6894(4)
O1 O 0.5818(3) 0.19075(12) 0.4694(2)
O2 O 0.7400(3) 0.10836(12) 0.5686(2)
Co1 Co 0.73631(5) 0.16223(2) 0.47026(4)
Ag1 Ag 1.09928(3) 0.028225(14) 0.09657(3)
N6C N 1.2168(3) 0.06562(14) 0.0235(3)
Ag1C Ag 0.59928(3) 0.471775(14) 0.59657(3)
C35 C 1.2878(6) -0.1422(4) 0.0253(6)
O3 O 1.1402(5) -0.06827(16) 0.0331(4)
O4 O 1.1225(5) -0.1524(2) 0.1078(4)
O5 O 1.0608(4) -0.1429(2) -0.0734(3)
F1 F 1.3048(5) -0.1941(2) 0.0217(4)
F2 F 1.3122(5) -0.1178(3) -0.0540(4)
F3 F 1.3701(4) -0.1235(4) 0.1103(5)
S1 S 1.13584(12) -0.12416(5) 0.02285(11)
C36 C 0.1636(6) 0.1539(3) 0.2675(5)
C37 C 0.0989(8) 0.2043(3) 0.2666(6)
H27 H 0.0631 0.2041 0.3202
H28 H 0.0349 0.2085 0.2022
H29 H 0.1561 0.2335 0.2769
N8 N 0.2146(6) 0.1146(3) 0.2696(5)
loop_
_geom_bond_atom_site_label_1
_geom_bond_atom_site_label_2
_geom_bond_site_symmetry_1
_geom_bond_site_symmetry_2
C1 H1 1_555 1_555
C2 C1 1_555 1_555
H2 C2 1_555 1_555
C3 C2 1_555 1_555
H3 C3 1_555 1_555
C4 C3 1_555 1_555
C5 C4 1_555 1_555
C6 C5 1_555 1_555
C7 C6 1_555 1_555
H4 C7 1_555 1_555
C8 C7 1_555 1_555
H5 C8 1_555 1_555
C9 C8 1_555 1_555
H6 C9 1_555 1_555
C10 C5 1_555 1_555
C11 C10 1_555 1_555
H7 C11 1_555 1_555
C12 C11 1_555 1_555
H8 C12 1_555 1_555
C13 C12 1_555 1_555
H9 C13 1_555 1_555
C14 C10 1_555 1_555
H10 C14 1_555 1_555
C15 H11 1_555 1_555
C16 C15 1_555 1_555
H12 C16 1_555 1_555
C17 C16 1_555 1_555
H13 C17 1_555 1_555
C18 C17 1_555 1_555
C19 C18 1_555 1_555
C20 C19 1_555 1_555
C21 C20 1_555 1_555
H14 C21 1_555 1_555
C22 C21 1_555 1_555
H15 C22 1_555 1_555
C23 C22 1_555 1_555
H16 C23 1_555 1_555
C24 C19 1_555 1_555
C25 C24 1_555 1_555
H17 C25 1_555 1_555
C26 C25 1_555 1_555
H18 C26 1_555 1_555
C27 C26 1_555 1_555
H19 C27 1_555 1_555
C28 C24 1_555 1_555
H20 C28 1_555 1_555
C29 H21 1_555 1_555
H22 C29 1_555 1_555
H23 C29 1_555 1_555
C30 C29 1_555 1_555
C31 C30 1_555 1_555
C32 C31 1_555 1_555
C33 C32 1_555 1_555
H24 C33 1_555 1_555
H25 C33 1_555 1_555
H26 C33 1_555 1_555
C34 C31 1_555 1_555
N1 C1 1_555 1_555
N2 C6 1_555 1_555
N3 C13 1_555 1_555
N4 C15 1_555 1_555
N5 C20 1_555 1_555
N6 C27 1_555 1_555
N7 C34 1_555 1_555
O1 C30 1_555 1_555
O2 C32 1_555 1_555
Co1 N1 1_555 1_555
Ag1 N3 1_555 1_555
C35 F1 1_555 1_555
O3 S1 1_555 1_555
O4 S1 1_555 1_555
O5 S1 1_555 1_555
F2 C35 1_555 1_555
F3 C35 1_555 1_555
S1 C35 1_555 1_555
C36 C37 1_555 1_555
C37 H27 1_555 1_555
H28 C37 1_555 1_555
H29 C37 1_555 1_555
N8 C36 1_555 1_555
N6C Ag1 1_555 1_555
Ag1C N6 1_555 1_555
C4 N1 1_555 1_555
C9 N2 1_555 1_555
C14 N3 1_555 1_555
C18 N4 1_555 1_555
C23 N5 1_555 1_555
C28 N6 1_555 1_555
N2 Co1 1_555 1_555
N4 Co1 1_555 1_555
N5 Co1 1_555 1_555
O1 Co1 1_555 1_555
O2 Co1 1_555 1_555

#END
