
#######################################################################
#
#                 Cambridge Crystallographic Data Centre
#                                CCDC 
#
#######################################################################
#
# If this CIF has been generated from an entry in the Cambridge 
# Structural Database, then it will include bibliographic, chemical, 
# crystal, experimental, refinement or atomic coordinate data resulting 
# from the CCDC's data processing and validation procedures.
#
#######################################################################

data_ENIBEI
_symmetry_cell_setting           orthorhombic
_symmetry_space_group_name_H-M   'P c a 21'
_symmetry_Int_Tables_number      29
_space_group_name_Hall           'P 2c -2ac'
loop_
_symmetry_equiv_pos_site_id
_symmetry_equiv_pos_as_xyz
1 x,y,z
2 -x,-y,1/2+z
3 1/2+x,-y,z
4 1/2-x,y,1/2+z
_cell_length_a                   14.4868(10)
_cell_length_b                   10.5419(7)
_cell_length_c                   18.0394(12)
_cell_angle_alpha                90
_cell_angle_beta                 90
_cell_angle_gamma                90
_cell_volume                     2754.95
loop_
_atom_site_label
_atom_site_type_symbol
_atom_site_fract_x
_atom_site_fract_y
_atom_site_fract_z
Sn1 Sn 0.277463(17) 0.03369(2) 0.698898(12)
Sn2 Sn 0.026099(17) 0.519923(19) 0.621377(12)
Cu1 Cu 0.16284(3) 0.34404(4) 0.87880(3)
Cu2 Cu 0.42440(3) 0.13656(4) 0.44015(3)
N1 N 0.3703(2) 0.0203(3) 0.5897(2)
N2 N 0.94010(19) 0.1831(3) 0.92500(16)
N3 N 0.29979(19) 0.3088(3) 0.89514(16)
C1 C 0.6566(2) 0.2778(3) 0.8924(2)
H1 H 0.6435 0.3356 0.8534
C2 C 0.4212(3) 0.1977(3) 0.9574(2)
H2 H 0.4386 0.1346 0.9923
N4 N 0.1050(3) 0.4625(3) 0.73063(19)
N5 N 0.0582(2) 0.4188(3) 1.01883(19)
C3 C 0.7528(2) 0.2427(3) 0.90431(19)
C4 C 0.4885(2) 0.2663(3) 0.9204(2)
C5 C 0.0970(2) 0.3779(3) 0.9695(2)
N6 N 0.1826(2) 0.0672(3) 0.80021(18)
C6 C 0.8205(2) 0.2851(3) 0.8558(2)
H3 H 0.8038 0.3366 0.8147
C7 C 0.1303(2) 0.4172(3) 0.7851(2)
C8 C 0.9113(2) 0.2533(3) 0.8667(2)
H4 H 0.9558 0.2818 0.8318
C9 C 0.7826(2) 0.1694(3) 0.9641(2)
H5 H 0.7394 0.1377 0.9991
C10 C 0.3962(2) 0.0622(3) 0.5351(2)
C11 C 0.8749(2) 0.1438(3) 0.9715(2)
H6 H 0.8936 0.0944 1.0129
C12 C 0.1510(3) 0.5192(4) 0.5616(3)
H7 H 0.1381 0.5319 0.5088
H8 H 0.1822 0.4375 0.5686
H9 H 0.1908 0.5877 0.5796
C13 C 0.4575(2) 0.3594(3) 0.8716(2)
H10 H 0.5007 0.4112 0.8460
C14 C 0.3295(2) 0.2209(3) 0.9438(2)
H11 H 0.2847 0.1726 0.9700
C15 C 0.3957(3) 0.0362(4) 0.7672(3)
H12 H 0.3860 -0.0203 0.8096
H13 H 0.4065 0.1228 0.7850
H14 H 0.4493 0.0073 0.7387
C16 C 0.1429(2) 0.1039(3) 0.8503(2)
C17 C 0.5857(2) 0.2349(3) 0.9321(2)
H15 H 0.5996 0.1787 0.9717
C18 C -0.0548(3) 0.3545(4) 0.6332(3)
H16 H -0.0836 0.3537 0.6824
H17 H -0.0155 0.2794 0.6277
H18 H -0.1030 0.3534 0.5951
C19 C 0.3654(2) 0.3763(3) 0.8607(2)
H19 H 0.3465 0.4398 0.8266
C20 C -0.0180(3) 0.6878(4) 0.6738(2)
H20 H 0.0222 0.7059 0.7162
H21 H -0.0817 0.6773 0.6911
H22 H -0.0151 0.7584 0.6386
C21 C 0.2195(3) 0.1968(4) 0.6494(3)
H23 H 0.2629 0.2317 0.6131
H24 H 0.2069 0.2604 0.6878
H25 H 0.1618 0.1739 0.6245
C22 C 0.2155(3) -0.1435(4) 0.6777(2)
H26 H 0.2591 -0.1980 0.6511
H27 H 0.1600 -0.1313 0.6474
H28 H 0.1984 -0.1837 0.7248
N5A N -0.0582(2) 0.5812(3) 0.51883(19)
Cu2C Cu 0.07560(3) 0.13656(4) 0.94015(3)
Cu1C Cu 0.33716(3) 0.34404(4) 0.37880(3)
N2C N 0.55990(19) 0.1831(3) 0.42500(16)
C5C C 0.4030(2) 0.3779(3) 0.4695(2)
C16C C 0.3571(2) 0.1039(3) 0.3503(2)
Cu2C_2 Cu 1.07560(3) 0.13656(4) 0.94015(3)
Sn2A Sn -0.026099(17) 0.480077(19) 1.121377(12)
loop_
_geom_bond_atom_site_label_1
_geom_bond_atom_site_label_2
_geom_bond_site_symmetry_1
_geom_bond_site_symmetry_2
Sn1 N1 1_555 1_555
Sn2 N4 1_555 1_555
Cu1 N3 1_555 1_555
Cu2 C10 1_555 1_555
N1 C10 1_555 1_555
N2 C8 1_555 1_555
N3 C14 1_555 1_555
C1 H1 1_555 1_555
C2 H2 1_555 1_555
N4 C7 1_555 1_555
N5 C5 1_555 1_555
C3 C1 1_555 1_555
C4 C2 1_555 1_555
C5 Cu1 1_555 1_555
N6 Sn1 1_555 1_555
C6 C3 1_555 1_555
H3 C6 1_555 1_555
C7 Cu1 1_555 1_555
C8 C6 1_555 1_555
H4 C8 1_555 1_555
C9 C3 1_555 1_555
H5 C9 1_555 1_555
C11 N2 1_555 1_555
H6 C11 1_555 1_555
C12 Sn2 1_555 1_555
H7 C12 1_555 1_555
H8 C12 1_555 1_555
H9 C12 1_555 1_555
C13 C4 1_555 1_555
H10 C13 1_555 1_555
C14 C2 1_555 1_555
H11 C14 1_555 1_555
C15 Sn1 1_555 1_555
H12 C15 1_555 1_555
H13 C15 1_555 1_555
H14 C15 1_555 1_555
C16 Cu1 1_555 1_555
C17 C1 1_555 1_555
H15 C17 1_555 1_555
C18 Sn2 1_555 1_555
H16 C18 1_555 1_555
H17 C18 1_555 1_555
H18 C18 1_555 1_555
C19 N3 1_555 1_555
H19 C19 1_555 1_555
C20 Sn2 1_555 1_555
H20 C20 1_555 1_555
H21 C20 1_555 1_555
H22 C20 1_555 1_555
C21 Sn1 1_555 1_555
H23 C21 1_555 1_555
H24 C21 1_555 1_555
H25 C21 1_555 1_555
C22 Sn1 1_555 1_555
H26 C22 1_555 1_555
H27 C22 1_555 1_555
H28 C22 1_555 1_555
N5A Sn2 1_555 1_555
Cu2C C5 1_555 1_555
Cu1C C5C 1_555 1_555
N2C Cu2 1_555 1_555
C5C Cu2 1_555 1_555
C16C Cu2 1_555 1_555
Cu2C_2 N2 1_555 1_555
Sn2A N5 1_555 1_555
C4 C17 1_555 1_555
N6 C16 1_555 1_555
C9 C11 1_555 1_555
C13 C19 1_555 1_555
C16 Cu2C 1_555 1_555
Cu1C C16C 1_555 1_555

#END
