
#######################################################################
#
#                 Cambridge Crystallographic Data Centre
#                                CCDC 
#
#######################################################################
#
# If this CIF has been generated from an entry in the Cambridge 
# Structural Database, then it will include bibliographic, chemical, 
# crystal, experimental, refinement or atomic coordinate data resulting 
# from the CCDC's data processing and validation procedures.
#
#######################################################################

data_ENIDOV
_symmetry_cell_setting           triclinic
_symmetry_space_group_name_H-M   'P -1'
_symmetry_Int_Tables_number      2
_space_group_name_Hall           '-P 1'
loop_
_symmetry_equiv_pos_site_id
_symmetry_equiv_pos_as_xyz
1 x,y,z
2 -x,-y,-z
_cell_length_a                   15.827(3)
_cell_length_b                   17.156(4)
_cell_length_c                   18.372(4)
_cell_angle_alpha                83.778(4)
_cell_angle_beta                 67.354(3)
_cell_angle_gamma                64.708(3)
_cell_volume                     4153.16
loop_
_atom_site_label
_atom_site_type_symbol
_atom_site_fract_x
_atom_site_fract_y
_atom_site_fract_z
O1 O 1.71674(15) -0.10654(14) 1.11798(13)
O2 O 0.98992(18) 0.03068(19) 1.36294(18)
C1 C 1.94351(17) -0.49326(17) 1.01616(17)
H1 H 1.9282 -0.5070 0.9742
H2 H 1.9320 -0.5313 1.0582
C2 C 1.87608(17) -0.39999(17) 1.04718(16)
H3 H 1.8932 -0.3861 1.0879
H4 H 1.8870 -0.3623 1.0046
C3 C 1.70039(16) -0.29232(17) 1.11127(17)
H5 H 1.7123 -0.2807 1.1561
H6 H 1.7178 -0.2548 1.0704
C4 C 1.59076(18) -0.27169(18) 1.13607(15)
C5 C 1.54756(19) -0.3200(2) 1.18885(17)
H7 H 1.5858 -0.3660 1.2109
C6 C 1.44554(18) -0.29903(19) 1.20877(16)
H8 H 1.4172 -0.3331 1.2430
C7 C 1.53078(17) -0.20290(17) 1.10585(16)
H9 H 1.5583 -0.1695 1.0699
C8 C 1.42985(18) -0.18409(17) 1.12934(16)
H10 H 1.3902 -0.1369 1.1092
C9 C 0.55565(17) -0.00951(19) 1.48679(15)
H11 H 0.5615 0.0426 1.4949
H12 H 0.5854 -0.0529 1.5188
C10 C 0.61149(16) -0.04086(18) 1.40220(15)
H13 H 0.5820 0.0029 1.3703
H14 H 0.6045 -0.0924 1.3941
C11 C 0.77749(18) -0.09701(19) 1.29170(16)
H15 H 0.7536 -0.0540 1.2569
H16 H 0.7669 -0.1470 1.2849
C12 C 0.89082(18) -0.12326(17) 1.27047(16)
C13 C 0.94023(18) -0.08071(19) 1.21802(17)
H17 H 0.9056 -0.0339 1.1944
C14 C 1.04151(18) -0.10650(19) 1.19957(16)
H18 H 1.0745 -0.0778 1.1617
C15 C 0.94321(18) -0.19121(19) 1.30551(16)
H19 H 0.9112 -0.2223 1.3408
C16 C 1.04509(18) -0.21320(18) 1.28766(16)
H20 H 1.0794 -0.2576 1.3134
N1 N 1.76762(14) -0.38492(13) 1.08050(13)
H21 H 1.7465 -0.4239 1.0819
N2 N 1.38621(15) -0.23080(15) 1.18002(13)
N3 N 0.72047(14) -0.06096(15) 1.37553(12)
H22 H 0.7475 -0.0528 1.4049
N4 N 1.09550(14) -0.17205(14) 1.23428(13)
O3 O 1.22247(13) -0.22323(15) 1.32554(14)
O4 O 1.28329(16) -0.35501(19) 1.19442(18)
Cu1 Cu 1.24170(2) -0.20523(3) 1.20661(2)
Cl1 Cl 1.26674(6) -0.19562(6) 1.07204(5)
Cl2 Cl 1.19181(13) -0.05299(14) 1.23792(12)
C1A C 2.05649(17) -0.50674(17) 0.98384(17)
H1A H 2.0718 -0.4930 1.0258
H2A H 2.0680 -0.4687 0.9418
C2A C 2.12392(17) -0.60001(17) 0.95282(16)
H3A H 2.1068 -0.6139 0.9121
H4A H 2.1130 -0.6377 0.9954
C3A C 2.29961(16) -0.70768(17) 0.88873(17)
H5A H 2.2877 -0.7193 0.8439
H6A H 2.2822 -0.7452 0.9296
C4A C 2.40924(18) -0.72831(18) 0.86393(15)
C5A C 2.45244(19) -0.6800(2) 0.81115(17)
H7A H 2.4142 -0.6340 0.7891
C6A C 2.55446(18) -0.70097(19) 0.79123(16)
H8A H 2.5828 -0.6669 0.7570
C7A C 2.46922(17) -0.79710(17) 0.89415(16)
H9A H 2.4417 -0.8305 0.9301
C8A C 2.57015(18) -0.81591(17) 0.87066(16)
H10A H 2.6098 -0.8631 0.8908
C9A C 0.44435(17) 0.00951(19) 1.51321(15)
H11A H 0.4385 -0.0426 1.5051
H12A H 0.4146 0.0529 1.4812
C10A C 0.38851(16) 0.04086(18) 1.59780(15)
H13A H 0.4180 -0.0029 1.6297
H14A H 0.3955 0.0924 1.6059
C11A C 0.22251(18) 0.09701(19) 1.70830(16)
H15A H 0.2464 0.0540 1.7431
H16A H 0.2331 0.1470 1.7151
C12A C 0.10918(18) 0.12326(17) 1.72953(16)
C13A C 0.05977(18) 0.08071(19) 1.78198(17)
H17A H 0.0944 0.0339 1.8056
C14A C -0.04151(18) 0.10650(19) 1.80043(16)
H18A H -0.0745 0.0778 1.8383
C15A C 0.05679(18) 0.19121(19) 1.69449(16)
H19A H 0.0888 0.2223 1.6592
C16A C -0.04509(18) 0.21320(18) 1.71234(16)
H20A H -0.0794 0.2576 1.6866
N1A N 2.23238(14) -0.61508(13) 0.91950(13)
H21A H 2.2535 -0.5761 0.9181
N2A N 2.61379(15) -0.76920(15) 0.81998(13)
N2A_2 N -0.38621(15) 0.23080(15) 1.81998(13)
N3A N 0.27953(14) 0.06096(15) 1.62447(12)
H22A H 0.2525 0.0528 1.5951
N4A N -0.09550(14) 0.17205(14) 1.76572(13)
O3A O -0.22247(13) 0.22323(15) 1.67446(14)
O4A O -0.28329(16) 0.35501(19) 1.80558(18)
Cu1A Cu -0.24170(2) 0.20523(3) 1.79339(2)
Cu1A_2 Cu 2.75830(2) -0.79477(3) 0.79339(2)
Cl1A Cl -0.26674(6) 0.19562(6) 1.92796(5)
Cl2A Cl -0.19181(13) 0.05299(14) 1.76208(12)
C17 C 0.41162(19) -0.18804(18) 0.62793(17)
C18 C 0.52304(19) -0.29669(18) 0.52513(16)
H23 H 0.5224 -0.3530 0.5214
C19 C 0.58008(19) -0.29704(18) 0.57805(16)
H24 H 0.5995 -0.3514 0.6038
C20 C 0.66690(18) -0.27104(18) 0.44992(16)
C21 C 0.5135(2) -0.21323(19) 0.70973(17)
H25 H 0.4462 -0.1823 0.7486
H26 H 0.5430 -0.2696 0.7286
C22 C 0.75034(19) -0.29489(19) 0.54457(17)
H27 H 0.7660 -0.3455 0.5748
H28 H 0.8089 -0.3053 0.4962
C23 C 0.5305(2) -0.0851(2) 0.73402(16)
C24 C 0.68411(19) -0.20482(18) 0.67594(16)
C25 C 0.70485(19) -0.1260(2) 0.68972(15)
C26 C 0.77165(17) -0.16372(18) 0.55258(15)
C27 C 0.5811(2) 0.02467(18) 0.75652(15)
H29 H 0.6323 0.0189 0.7760
H30 H 0.5173 0.0430 0.8013
C28 C 0.79794(18) -0.04492(18) 0.58757(16)
H31 H 0.8226 -0.0398 0.6268
H32 H 0.8547 -0.0634 0.5374
C29 C 0.48522(18) 0.15066(18) 0.69494(15)
C30 C 0.66063(18) 0.10470(18) 0.64592(16)
H33 H 0.6996 0.1123 0.6729
C31 C 0.61485(18) 0.18744(17) 0.60489(15)
H34 H 0.6248 0.2359 0.6182
C32 C 0.73305(18) 0.07389(18) 0.50970(16)
C33 C 0.42996(19) 0.28133(17) 0.62398(15)
H35 H 0.4465 0.3297 0.6235
H36 H 0.3664 0.2927 0.6678
C34 C 0.66065(19) 0.21557(19) 0.45808(16)
H37 H 0.7224 0.1902 0.4120
H38 H 0.6553 0.2705 0.4730
C35 C 0.7246(2) -0.2859(2) 0.71706(18)
H39 H 0.7967 -0.3082 0.6982
H40 H 0.7061 -0.3285 0.7060
H41 H 0.6965 -0.2724 0.7731
C36 C 0.76824(19) -0.1448(2) 0.74084(16)
H42 H 0.8336 -0.1907 0.7150
H43 H 0.7349 -0.1617 0.7915
H44 H 0.7757 -0.0938 0.7478
N5 N 0.42428(16) -0.23126(15) 0.56317(14)
N6 N 0.50584(16) -0.22468(14) 0.63504(13)
N7 N 0.58251(16) -0.27566(15) 0.44983(13)
N8 N 0.66660(15) -0.28459(15) 0.52451(13)
N9 N 0.57327(16) -0.16692(15) 0.70377(14)
N10 N 0.60502(14) -0.05836(14) 0.72610(12)
N11 N 0.73252(16) -0.22219(15) 0.58920(13)
N12 N 0.76056(15) -0.11028(14) 0.60899(13)
N13 N 0.57377(14) 0.09157(15) 0.70199(13)
N14 N 0.50805(14) 0.20342(14) 0.63660(12)
N15 N 0.72525(14) 0.03833(14) 0.58100(12)
N16 N 0.66795(15) 0.15952(15) 0.52196(13)
O5 O 0.33766(14) -0.13027(13) 0.66891(12)
O6 O 0.43928(13) -0.03806(13) 0.76377(12)
O7 O 0.40034(12) 0.15611(12) 0.73646(10)
O8 O 0.73055(13) -0.25727(12) 0.39371(11)
O9 O 0.81181(13) -0.15996(13) 0.48155(11)
O10 O 0.78892(13) 0.03441(13) 0.44398(11)
C17A C 0.58838(19) 0.18804(18) 0.37207(17)
C18A C 0.47696(19) 0.29669(18) 0.47487(16)
H23A H 0.4776 0.3530 0.4786
C19A C 0.41992(19) 0.29704(18) 0.42195(16)
H24A H 0.4005 0.3514 0.3962
C20A C 0.33310(18) 0.27104(18) 0.55008(16)
C21A C 0.4865(2) 0.21323(19) 0.29027(17)
H25A H 0.5538 0.1823 0.2514
H26A H 0.4570 0.2696 0.2714
C22A C 0.24966(19) 0.29489(19) 0.45543(17)
H27A H 0.2340 0.3455 0.4252
H28A H 0.1911 0.3053 0.5038
C23A C 0.4695(2) 0.0851(2) 0.26598(16)
C24A C 0.31589(19) 0.20482(18) 0.32406(16)
C25A C 0.29515(19) 0.1260(2) 0.31028(15)
C26A C 0.22835(17) 0.16372(18) 0.44742(15)
C27A C 0.4189(2) -0.02467(18) 0.24348(15)
H29A H 0.3677 -0.0189 0.2240
H30A H 0.4827 -0.0430 0.1987
C28A C 0.20206(18) 0.04492(18) 0.41243(16)
H31A H 0.1774 0.0398 0.3732
H32A H 0.1453 0.0634 0.4626
C29A C 0.51478(18) -0.15066(18) 0.30506(15)
C30A C 0.33937(18) -0.10470(18) 0.35408(16)
H33A H 0.3004 -0.1123 0.3271
C31A C 0.38515(18) -0.18744(17) 0.39511(15)
H34A H 0.3752 -0.2359 0.3818
C32A C 0.26695(18) -0.07389(18) 0.49030(16)
C33A C 0.57004(19) -0.28133(17) 0.37602(15)
H35A H 0.5535 -0.3297 0.3765
H36A H 0.6336 -0.2927 0.3322
C34A C 0.33935(19) -0.21557(19) 0.54192(16)
H37A H 0.2776 -0.1902 0.5880
H38A H 0.3447 -0.2705 0.5270
C35A C 0.2754(2) 0.2859(2) 0.28294(18)
H39A H 0.2033 0.3082 0.3018
H40A H 0.2939 0.3285 0.2940
H41A H 0.3035 0.2724 0.2269
C36A C 0.23176(19) 0.1448(2) 0.25916(16)
H42A H 0.1664 0.1907 0.2850
H43A H 0.2651 0.1617 0.2085
H44A H 0.2243 0.0938 0.2522
N5A N 0.57572(16) 0.23126(15) 0.43683(14)
N6A N 0.49416(16) 0.22468(14) 0.36496(13)
N7A N 0.41749(16) 0.27566(15) 0.55017(13)
N8A N 0.33340(15) 0.28459(15) 0.47549(13)
N9A N 0.42673(16) 0.16692(15) 0.29623(14)
N10A N 0.39498(14) 0.05836(14) 0.27390(12)
N11A N 0.26748(16) 0.22219(15) 0.41080(13)
N12A N 0.23944(15) 0.11028(14) 0.39101(13)
N13A N 0.42623(14) -0.09157(15) 0.29801(13)
N14A N 0.49195(14) -0.20342(14) 0.36340(12)
N15A N 0.27475(14) -0.03833(14) 0.41900(12)
N16A N 0.33205(15) -0.15952(15) 0.47804(13)
O5A O 0.66234(14) 0.13027(13) 0.33109(12)
O6A O 0.56072(13) 0.03806(13) 0.23623(12)
O7A O 0.59966(12) -0.15611(12) 0.26354(10)
O8A O 0.26945(13) 0.25727(12) 0.60629(11)
O9A O 0.18819(13) 0.15996(13) 0.51845(11)
O10A O 0.21108(13) -0.03441(13) 0.55602(11)
C37 C 0.85492(19) -0.47636(18) 1.24485(15)
C38 C 0.9655(2) -0.61322(17) 1.26331(16)
H45 H 0.9543 -0.6415 1.3133
C39 C 1.00947(19) -0.54683(17) 1.26158(15)
H46 H 1.0154 -0.5417 1.3119
C40 C 1.12458(18) -0.65576(17) 1.15931(16)
C41 C 0.93474(18) -0.38379(17) 1.25627(16)
H47 H 0.9557 -0.3850 1.2997
H48 H 0.8655 -0.3408 1.2712
C42 C 1.18294(19) -0.55106(19) 1.18026(17)
H49 H 1.2481 -0.5968 1.1510
H50 H 1.1844 -0.5378 1.2296
C43 C 0.9632(2) -0.29001(17) 1.14520(16)
C44 C 1.10664(18) -0.38877(17) 1.16992(16)
H51 H 1.1189 -0.3793 1.2159
C45 C 1.13815(18) -0.33186(16) 1.10061(14)
H52 H 1.1688 -0.2989 1.1134
C46 C 1.22908(18) -0.47822(19) 1.05791(16)
C47 C 1.03447(19) -0.20465(17) 1.04052(15)
H53 H 0.9665 -0.1594 1.0622
H54 H 1.0806 -0.1808 1.0394
C48 C 1.27050(19) -0.3758(2) 0.96114(16)
H55 H 1.3336 -0.4262 0.9384
H56 H 1.2862 -0.3300 0.9708
C49 C 0.98022(19) -0.22641(17) 0.93838(15)
C50 C 1.15484(19) -0.26010(17) 0.89605(16)
C51 C 1.1292(2) -0.27183(18) 0.82394(16)
C52 C 1.2408(2) -0.40569(18) 0.84750(17)
C53 C 0.9580(2) -0.24574(18) 0.81749(16)
H57 H 0.8894 -0.2056 0.8477
H58 H 0.9808 -0.2217 0.7673
C54 C 1.20540(19) -0.40812(19) 0.73137(17)
H59 H 1.2707 -0.4573 0.7144
H60 H 1.2047 -0.3704 0.6881
C55 C 1.2086(2) -0.20141(18) 0.88423(18)
H61 H 1.1650 -0.1435 0.8785
H62 H 1.2691 -0.2217 0.8375
H63 H 1.2255 -0.2020 0.9292
C56 C 1.1511(2) -0.2135(2) 0.75536(18)
H64 H 1.1077 -0.1541 0.7735
H65 H 1.1388 -0.2280 0.7125
H66 H 1.2202 -0.2223 0.7376
N17 N 0.87355(16) -0.56070(15) 1.25275(14)
N18 N 0.93793(15) -0.46716(14) 1.24548(12)
N19 N 1.04188(16) -0.67369(14) 1.19687(13)
N20 N 1.10708(15) -0.58238(14) 1.19762(13)
N21 N 0.99765(14) -0.35717(13) 1.18713(12)
N22 N 1.04341(14) -0.27569(13) 1.09281(12)
N23 N 1.16853(15) -0.47523(14) 1.13524(13)
N24 N 1.21014(15) -0.39599(14) 1.03512(13)
N25 N 1.05573(15) -0.22934(15) 0.96022(13)
N26 N 1.02280(15) -0.25369(15) 0.86066(13)
N27 N 1.22107(16) -0.34871(14) 0.90458(13)
N28 N 1.19444(16) -0.36256(15) 0.79736(13)
O11 O 0.78025(13) -0.41669(12) 1.23796(11)
O12 O 0.87403(12) -0.24708(11) 1.15509(10)
O13 O 0.89343(13) -0.20745(13) 0.98209(11)
O14 O 1.20135(14) -0.69783(13) 1.10303(12)
O15 O 1.29202(13) -0.54512(12) 1.01582(11)
O16 O 1.29476(14) -0.48297(12) 0.84230(12)
C37A C 1.14508(19) -0.52364(18) 0.75515(15)
C38A C 1.0345(2) -0.38678(17) 0.73669(16)
H45A H 1.0457 -0.3585 0.6867
C39A C 0.99053(19) -0.45317(17) 0.73842(15)
H46A H 0.9846 -0.4583 0.6881
C40A C 0.87542(18) -0.34424(17) 0.84069(16)
C41A C 1.06526(18) -0.61621(17) 0.74373(16)
H47A H 1.0443 -0.6150 0.7003
H48A H 1.1345 -0.6592 0.7288
C42A C 0.81706(19) -0.44894(19) 0.81974(17)
H49A H 0.7519 -0.4032 0.8490
H50A H 0.8156 -0.4622 0.7704
C43A C 1.0368(2) -0.70999(17) 0.85480(16)
C44A C 0.89336(18) -0.61123(17) 0.83008(16)
H51A H 0.8811 -0.6207 0.7841
C45A C 0.86185(18) -0.66814(16) 0.89939(14)
H52A H 0.8312 -0.7011 0.8866
C46A C 0.77092(18) -0.52178(19) 0.94209(16)
C47A C 0.96553(19) -0.79535(17) 0.95948(15)
H53A H 1.0335 -0.8406 0.9378
H54A H 0.9194 -0.8192 0.9606
C48A C 0.72950(19) -0.6242(2) 1.03886(16)
H55A H 0.6664 -0.5738 1.0616
H56A H 0.7138 -0.6700 1.0292
C49A C 1.01978(19) -0.77359(17) 1.06162(15)
C50A C 0.84516(19) -0.73990(17) 1.10395(16)
C51A C 0.8708(2) -0.72817(18) 1.17606(16)
C52A C 0.7592(2) -0.59431(18) 1.15250(17)
C53A C 1.0420(2) -0.75426(18) 1.18251(16)
H57A H 1.1106 -0.7944 1.1523
H58A H 1.0192 -0.7783 1.2327
C54A C 0.79460(19) -0.59188(19) 1.26863(17)
H59A H 0.7293 -0.5427 1.2856
H60A H 0.7953 -0.6296 1.3119
C55A C 0.7914(2) -0.79859(18) 1.11577(18)
H61A H 0.8350 -0.8565 1.1215
H62A H 0.7309 -0.7783 1.1625
H63A H 0.7745 -0.7980 1.0708
C56A C 0.8489(2) -0.7865(2) 1.24464(18)
H64A H 0.8923 -0.8459 1.2265
H65A H 0.8612 -0.7720 1.2875
H66A H 0.7798 -0.7777 1.2624
N17A N 1.12645(16) -0.43930(15) 0.74725(14)
N18A N 1.06207(15) -0.53284(14) 0.75452(12)
N19A N 0.95812(16) -0.32631(14) 0.80313(13)
N20A N 0.89292(15) -0.41762(14) 0.80238(13)
N21A N 1.00235(14) -0.64283(13) 0.81287(12)
N22A N 0.95659(14) -0.72431(13) 0.90719(12)
N23A N 0.83147(15) -0.52477(14) 0.86476(13)
N24A N 0.78986(15) -0.60401(14) 0.96488(13)
N25A N 0.94427(15) -0.77066(15) 1.03978(13)
N26A N 0.97720(15) -0.74631(15) 1.13934(13)
N27A N 0.77893(16) -0.65129(14) 1.09542(13)
N28A N 0.80556(16) -0.63744(15) 1.20264(13)
O11A O 1.21975(13) -0.58331(12) 0.76204(11)
O12A O 1.12597(12) -0.75292(11) 0.84491(10)
O13A O 1.10657(13) -0.79255(13) 1.01791(11)
O14A O 0.79865(14) -0.30217(13) 0.89697(12)
O15A O 0.70798(13) -0.45488(12) 0.98418(11)
O16A O 0.70524(14) -0.51703(12) 1.15770(12)
loop_
_geom_bond_atom_site_label_1
_geom_bond_atom_site_label_2
_geom_bond_site_symmetry_1
_geom_bond_site_symmetry_2
C1 H1 1_555 1_555
H2 C1 1_555 1_555
C2 C1 1_555 1_555
H3 C2 1_555 1_555
H4 C2 1_555 1_555
C3 H5 1_555 1_555
H6 C3 1_555 1_555
C4 C3 1_555 1_555
C5 C4 1_555 1_555
H7 C5 1_555 1_555
C6 C5 1_555 1_555
H8 C6 1_555 1_555
C7 C4 1_555 1_555
H9 C7 1_555 1_555
C8 C7 1_555 1_555
H10 C8 1_555 1_555
C9 H11 1_555 1_555
H12 C9 1_555 1_555
C10 C9 1_555 1_555
H13 C10 1_555 1_555
H14 C10 1_555 1_555
C11 H15 1_555 1_555
H16 C11 1_555 1_555
C12 C11 1_555 1_555
C13 C12 1_555 1_555
H17 C13 1_555 1_555
C14 C13 1_555 1_555
H18 C14 1_555 1_555
C15 C12 1_555 1_555
H19 C15 1_555 1_555
C16 C15 1_555 1_555
H20 C16 1_555 1_555
N1 C2 1_555 1_555
H21 N1 1_555 1_555
N2 C6 1_555 1_555
N3 C10 1_555 1_555
H22 N3 1_555 1_555
N4 C14 1_555 1_555
O3 Cu1 1_555 1_555
O4 Cu1 1_555 1_555
Cu1 N2 1_555 1_555
Cl1 Cu1 1_555 1_555
Cl2 Cu1 1_555 1_555
C17 N5 1_555 1_555
C18 H23 1_555 1_555
C19 C18 1_555 1_555
H24 C19 1_555 1_555
C20 N7 1_555 1_555
C21 H25 1_555 1_555
H26 C21 1_555 1_555
C22 H27 1_555 1_555
H28 C22 1_555 1_555
C23 N9 1_555 1_555
C24 C25 1_555 1_555
C25 C36 1_555 1_555
C26 N11 1_555 1_555
C27 H29 1_555 1_555
H30 C27 1_555 1_555
C28 H31 1_555 1_555
H32 C28 1_555 1_555
C29 N13 1_555 1_555
C30 H33 1_555 1_555
C31 C30 1_555 1_555
H34 C31 1_555 1_555
C32 N15 1_555 1_555
C33 H35 1_555 1_555
H36 C33 1_555 1_555
C34 H37 1_555 1_555
H38 C34 1_555 1_555
C35 C24 1_555 1_555
H39 C35 1_555 1_555
H40 C35 1_555 1_555
H41 C35 1_555 1_555
C36 H42 1_555 1_555
H43 C36 1_555 1_555
H44 C36 1_555 1_555
C37 N17 1_555 1_555
C38 H45 1_555 1_555
C39 C38 1_555 1_555
H46 C39 1_555 1_555
C40 N19 1_555 1_555
C41 H47 1_555 1_555
H48 C41 1_555 1_555
C42 H49 1_555 1_555
H50 C42 1_555 1_555
C43 N21 1_555 1_555
C44 H51 1_555 1_555
C45 C44 1_555 1_555
H52 C45 1_555 1_555
C46 N23 1_555 1_555
C47 H53 1_555 1_555
H54 C47 1_555 1_555
C48 H55 1_555 1_555
H56 C48 1_555 1_555
C49 N25 1_555 1_555
C50 C51 1_555 1_555
C51 C56 1_555 1_555
C52 N27 1_555 1_555
C53 H57 1_555 1_555
H58 C53 1_555 1_555
C54 H59 1_555 1_555
H60 C54 1_555 1_555
C55 C50 1_555 1_555
H61 C55 1_555 1_555
H62 C55 1_555 1_555
H63 C55 1_555 1_555
C56 H64 1_555 1_555
H65 C56 1_555 1_555
H66 C56 1_555 1_555
N5 C18 1_555 1_555
N6 C17 1_555 1_555
N7 C18 1_555 1_555
N8 C19 1_555 1_555
N9 C21 1_555 1_555
N10 C23 1_555 1_555
N11 C22 1_555 1_555
N12 C25 1_555 1_555
N13 C27 1_555 1_555
N14 C29 1_555 1_555
N15 C28 1_555 1_555
N16 C31 1_555 1_555
N17 C38 1_555 1_555
N18 C37 1_555 1_555
N19 C38 1_555 1_555
N20 C39 1_555 1_555
N21 C41 1_555 1_555
N22 C43 1_555 1_555
N23 C42 1_555 1_555
N24 C45 1_555 1_555
N25 C47 1_555 1_555
N26 C49 1_555 1_555
N27 C48 1_555 1_555
N28 C51 1_555 1_555
O5 C17 1_555 1_555
O6 C23 1_555 1_555
O7 C29 1_555 1_555
O8 C20 1_555 1_555
O9 C26 1_555 1_555
O10 C32 1_555 1_555
O11 C37 1_555 1_555
O12 C43 1_555 1_555
O13 C49 1_555 1_555
O14 C40 1_555 1_555
O15 C46 1_555 1_555
O16 C52 1_555 1_555
C1A C1 1_555 1_555
H1A C1A 1_555 1_555
H2A C1A 1_555 1_555
C2A C1A 1_555 1_555
H3A C2A 1_555 1_555
H4A C2A 1_555 1_555
C3A H5A 1_555 1_555
H6A C3A 1_555 1_555
C4A C3A 1_555 1_555
C5A C4A 1_555 1_555
H7A C5A 1_555 1_555
C6A C5A 1_555 1_555
H8A C6A 1_555 1_555
C7A C4A 1_555 1_555
H9A C7A 1_555 1_555
C8A C7A 1_555 1_555
H10A C8A 1_555 1_555
C9A C9 1_555 1_555
H11A C9A 1_555 1_555
H12A C9A 1_555 1_555
C10A C9A 1_555 1_555
H13A C10A 1_555 1_555
H14A C10A 1_555 1_555
C11A H15A 1_555 1_555
H16A C11A 1_555 1_555
C12A C11A 1_555 1_555
C13A C12A 1_555 1_555
H17A C13A 1_555 1_555
C14A C13A 1_555 1_555
H18A C14A 1_555 1_555
C15A C12A 1_555 1_555
H19A C15A 1_555 1_555
C16A C15A 1_555 1_555
H20A C16A 1_555 1_555
N1A C2A 1_555 1_555
H21A N1A 1_555 1_555
N2A C6A 1_555 1_555
N2A_2 Cu1A 1_555 1_555
N3A C10A 1_555 1_555
H22A N3A 1_555 1_555
N4A C14A 1_555 1_555
O3A Cu1A 1_555 1_555
O4A Cu1A 1_555 1_555
Cu1A N4A 1_555 1_555
Cu1A_2 N2A 1_555 1_555
Cl1A Cu1A 1_555 1_555
Cl2A Cu1A 1_555 1_555
C17A N5A 1_555 1_555
C18A H23A 1_555 1_555
C19A C18A 1_555 1_555
H24A C19A 1_555 1_555
C20A N7A 1_555 1_555
C21A H25A 1_555 1_555
H26A C21A 1_555 1_555
C22A H27A 1_555 1_555
H28A C22A 1_555 1_555
C23A N9A 1_555 1_555
C24A C25A 1_555 1_555
C25A C36A 1_555 1_555
C26A N11A 1_555 1_555
C27A H29A 1_555 1_555
H30A C27A 1_555 1_555
C28A H31A 1_555 1_555
H32A C28A 1_555 1_555
C29A N13A 1_555 1_555
C30A H33A 1_555 1_555
C31A C30A 1_555 1_555
H34A C31A 1_555 1_555
C32A N15A 1_555 1_555
C33A N7 1_555 1_555
H35A C33A 1_555 1_555
H36A C33A 1_555 1_555
C34A N5 1_555 1_555
H37A C34A 1_555 1_555
H38A C34A 1_555 1_555
C35A C24A 1_555 1_555
H39A C35A 1_555 1_555
H40A C35A 1_555 1_555
H41A C35A 1_555 1_555
C36A H42A 1_555 1_555
H43A C36A 1_555 1_555
H44A C36A 1_555 1_555
C37A N17A 1_555 1_555
C38A H45A 1_555 1_555
C39A C38A 1_555 1_555
H46A C39A 1_555 1_555
C40A N19A 1_555 1_555
C41A H47A 1_555 1_555
H48A C41A 1_555 1_555
C42A H49A 1_555 1_555
H50A C42A 1_555 1_555
C43A N21A 1_555 1_555
C44A H51A 1_555 1_555
C45A C44A 1_555 1_555
H52A C45A 1_555 1_555
C46A N23A 1_555 1_555
C47A H53A 1_555 1_555
H54A C47A 1_555 1_555
C48A H55A 1_555 1_555
H56A C48A 1_555 1_555
C49A N25A 1_555 1_555
C50A C51A 1_555 1_555
C51A C56A 1_555 1_555
C52A N27A 1_555 1_555
C53A N19 1_555 1_555
H57A C53A 1_555 1_555
H58A C53A 1_555 1_555
C54A N17 1_555 1_555
H59A C54A 1_555 1_555
H60A C54A 1_555 1_555
C55A C50A 1_555 1_555
H61A C55A 1_555 1_555
H62A C55A 1_555 1_555
H63A C55A 1_555 1_555
C56A H64A 1_555 1_555
H65A C56A 1_555 1_555
H66A C56A 1_555 1_555
N5A C34 1_555 1_555
N6A C17A 1_555 1_555
N7A C33 1_555 1_555
N8A C19A 1_555 1_555
N9A C21A 1_555 1_555
N10A C23A 1_555 1_555
N11A C22A 1_555 1_555
N12A C25A 1_555 1_555
N13A C27A 1_555 1_555
N14A C29A 1_555 1_555
N15A C28A 1_555 1_555
N16A C31A 1_555 1_555
N17A C54 1_555 1_555
N18A C37A 1_555 1_555
N19A C53 1_555 1_555
N20A C39A 1_555 1_555
N21A C41A 1_555 1_555
N22A C43A 1_555 1_555
N23A C42A 1_555 1_555
N24A C45A 1_555 1_555
N25A C47A 1_555 1_555
N26A C49A 1_555 1_555
N27A C48A 1_555 1_555
N28A C51A 1_555 1_555
O5A C17A 1_555 1_555
O6A C23A 1_555 1_555
O7A C29A 1_555 1_555
O8A C20A 1_555 1_555
O9A C26A 1_555 1_555
O10A C32A 1_555 1_555
O11A C37A 1_555 1_555
O12A C43A 1_555 1_555
O13A C49A 1_555 1_555
O14A C40A 1_555 1_555
O15A C46A 1_555 1_555
O16A C52A 1_555 1_555
C3 N1 1_555 1_555
C8 N2 1_555 1_555
C11 N3 1_555 1_555
C16 N4 1_555 1_555
N4 Cu1 1_555 1_555
C19 N6 1_555 1_555
C20 N8 1_555 1_555
C21 N6 1_555 1_555
C22 N8 1_555 1_555
C24 N9 1_555 1_555
C24 N11 1_555 1_555
C25 N10 1_555 1_555
C26 N12 1_555 1_555
C27 N10 1_555 1_555
C28 N12 1_555 1_555
C30 N13 1_555 1_555
C30 N15 1_555 1_555
C31 N14 1_555 1_555
C32 N16 1_555 1_555
C33 N14 1_555 1_555
C34 N16 1_555 1_555
C39 N18 1_555 1_555
C40 N20 1_555 1_555
C41 N18 1_555 1_555
C42 N20 1_555 1_555
C44 N21 1_555 1_555
C44 N23 1_555 1_555
C45 N22 1_555 1_555
C46 N24 1_555 1_555
C47 N22 1_555 1_555
C48 N24 1_555 1_555
C50 N25 1_555 1_555
C50 N27 1_555 1_555
C51 N26 1_555 1_555
C52 N28 1_555 1_555
C53 N26 1_555 1_555
C54 N28 1_555 1_555
C3A N1A 1_555 1_555
C8A N2A 1_555 1_555
C11A N3A 1_555 1_555
C16A N4A 1_555 1_555
C18A N5A 1_555 1_555
C18A N7A 1_555 1_555
C19A N6A 1_555 1_555
C20A N8A 1_555 1_555
C21A N6A 1_555 1_555
C22A N8A 1_555 1_555
C24A N9A 1_555 1_555
C24A N11A 1_555 1_555
C25A N10A 1_555 1_555
C26A N12A 1_555 1_555
C27A N10A 1_555 1_555
C28A N12A 1_555 1_555
C30A N13A 1_555 1_555
C30A N15A 1_555 1_555
C31A N14A 1_555 1_555
C32A N16A 1_555 1_555
C33A N14A 1_555 1_555
C34A N16A 1_555 1_555
C38A N17A 1_555 1_555
C38A N19A 1_555 1_555
C39A N18A 1_555 1_555
C40A N20A 1_555 1_555
C41A N18A 1_555 1_555
C42A N20A 1_555 1_555
C44A N21A 1_555 1_555
C44A N23A 1_555 1_555
C45A N22A 1_555 1_555
C46A N24A 1_555 1_555
C47A N22A 1_555 1_555
C48A N24A 1_555 1_555
C50A N25A 1_555 1_555
C50A N27A 1_555 1_555
C51A N26A 1_555 1_555
C52A N28A 1_555 1_555
C53A N26A 1_555 1_555
C54A N28A 1_555 1_555

#END
