
#######################################################################
#
#                 Cambridge Crystallographic Data Centre
#                                CCDC 
#
#######################################################################
#
# If this CIF has been generated from an entry in the Cambridge 
# Structural Database, then it will include bibliographic, chemical, 
# crystal, experimental, refinement or atomic coordinate data resulting 
# from the CCDC's data processing and validation procedures.
#
#######################################################################

data_ENISIE
_symmetry_cell_setting           monoclinic
_symmetry_space_group_name_H-M   'I 2/a'
_symmetry_Int_Tables_number      15
_space_group_name_Hall           '-I 2ya'
loop_
_symmetry_equiv_pos_site_id
_symmetry_equiv_pos_as_xyz
1 x,y,z
2 1/2-x,y,-z
3 1/2+x,1/2+y,1/2+z
4 -x,1/2+y,1/2-z
5 -x,-y,-z
6 1/2+x,-y,z
7 1/2-x,1/2-y,1/2-z
8 x,1/2-y,1/2+z
_cell_length_a                   7.9723(12)
_cell_length_b                   12.255(5)
_cell_length_c                   17.116(3)
_cell_angle_alpha                90
_cell_angle_beta                 93.523(13)
_cell_angle_gamma                90
_cell_volume                     1669.08
loop_
_atom_site_label
_atom_site_type_symbol
_atom_site_fract_x
_atom_site_fract_y
_atom_site_fract_z
Pb1 Pb 0.7500 0.39340(4) 0.0000
I1 I 0.40759(8) 0.37944(5) -0.10096(4)
C1 C 0.5717(17) 0.1194(14) 0.1769(8)
H1 H 0.5248 0.1214 0.2253
N1 N 0.6772(8) 0.2175(6) 0.0711(4)
C2 C 0.6050(18) 0.0236(14) 0.1442(10)
H2 H 0.5794 -0.0411 0.1693
C3 C 0.6072(11) 0.2174(9) 0.1384(6)
C4 C 0.7129(12) 0.1202(7) 0.0370(6)
C5 C 0.716(2) -0.0779(10) 0.0346(8)
H3 H 0.6932 -0.1442 0.0581
C6 C 0.6773(15) 0.0203(9) 0.0733(9)
C7 C 0.5723(13) 0.3236(10) 0.1759(6)
H4 H 0.6030 0.3820 0.1422
H5 H 0.6365 0.3290 0.2250
H6 H 0.4547 0.3284 0.1845
Pb1D Pb 0.2500 0.60660(4) 0.0000
I1D I 0.59241(8) 0.62056(5) 0.10096(4)
I1A I 1.09241(8) 0.37944(5) 0.10096(4)
I1E I 0.90759(8) 0.62056(5) -0.10096(4)
C1A C 0.9283(17) 0.1194(14) -0.1769(8)
H1A H 0.9752 0.1214 -0.2253
N1A N 0.8228(8) 0.2175(6) -0.0711(4)
C2A C 0.8950(18) 0.0236(14) -0.1442(10)
H2A H 0.9206 -0.0411 -0.1693
C3A C 0.8928(11) 0.2174(9) -0.1384(6)
C4A C 0.7871(12) 0.1202(7) -0.0370(6)
C5A C 0.784(2) -0.0779(10) -0.0346(8)
H3A H 0.8068 -0.1442 -0.0581
C6A C 0.8227(15) 0.0203(9) -0.0733(9)
C7A C 0.9277(13) 0.3236(10) -0.1759(6)
H4A H 0.8970 0.3820 -0.1422
H5A H 0.8635 0.3290 -0.2250
H6A H 1.0453 0.3284 -0.1845
loop_
_geom_bond_atom_site_label_1
_geom_bond_atom_site_label_2
_geom_bond_site_symmetry_1
_geom_bond_site_symmetry_2
Pb1 I1 1_555 1_555
I1 Pb1D 1_555 1_555
C1 H1 1_555 1_555
N1 Pb1 1_555 1_555
C2 C1 1_555 1_555
H2 C2 1_555 1_555
C3 C1 1_555 1_555
C4 N1 1_555 1_555
C5 H3 1_555 1_555
C6 C2 1_555 1_555
C7 C3 1_555 1_555
H4 C7 1_555 1_555
H5 C7 1_555 1_555
H6 C7 1_555 1_555
Pb1D I1D 1_555 1_555
I1D Pb1 1_555 1_555
I1A Pb1 1_555 1_555
I1E Pb1 1_555 1_555
C1A H1A 1_555 1_555
N1A Pb1 1_555 1_555
C2A C1A 1_555 1_555
H2A C2A 1_555 1_555
C3A C1A 1_555 1_555
C4A C4 1_555 1_555
C5A C5 1_555 1_555
H3A C5A 1_555 1_555
C6A C2A 1_555 1_555
C7A C3A 1_555 1_555
H4A C7A 1_555 1_555
H5A C7A 1_555 1_555
H6A C7A 1_555 1_555
N1 C3 1_555 1_555
C4 C6 1_555 1_555
C5 C6 1_555 1_555
N1A C3A 1_555 1_555
N1A C4A 1_555 1_555
C4A C6A 1_555 1_555
C5A C6A 1_555 1_555

#END
