
#######################################################################
#
#                 Cambridge Crystallographic Data Centre
#                                CCDC 
#
#######################################################################
#
# If this CIF has been generated from an entry in the Cambridge 
# Structural Database, then it will include bibliographic, chemical, 
# crystal, experimental, refinement or atomic coordinate data resulting 
# from the CCDC's data processing and validation procedures.
#
#######################################################################

data_ENIWAA
_symmetry_cell_setting           triclinic
_symmetry_space_group_name_H-M   'P -1'
_symmetry_Int_Tables_number      2
_space_group_name_Hall           '-P 1'
loop_
_symmetry_equiv_pos_site_id
_symmetry_equiv_pos_as_xyz
1 x,y,z
2 -x,-y,-z
_cell_length_a                   11.886(2)
_cell_length_b                   12.224(2)
_cell_length_c                   13.111(3)
_cell_angle_alpha                66.65(3)
_cell_angle_beta                 68.48(3)
_cell_angle_gamma                85.32(3)
_cell_volume                     1622.48
loop_
_atom_site_label
_atom_site_type_symbol
_atom_site_fract_x
_atom_site_fract_y
_atom_site_fract_z
Br1 Br 0.5000 0.0000 0.5000
Cl2 Cl -1.0645(3) -0.4998(3) 0.3525(4)
Cu1 Cu 0.0000 0.0000 0.0000
Cu2 Cu -0.5000 -0.5000 1.0000
Cl1 Cl -0.7046(3) -0.5191(2) 1.0460(3)
O1 O -0.8073(8) -0.1180(7) 0.3318(9)
O2 O -0.9643(6) -0.0257(6) 0.2938(6)
O3 O -0.5632(7) -0.3134(5) 1.1061(5)
O4 O -0.5052(6) -0.3288(4) 0.9301(5)
O5 O 0.0520(5) 0.2140(6) 0.0153(6)
O6 O -0.1021(5) 0.0749(4) 0.1027(5)
O7 O 0.0801(5) -0.0815(5) 0.1110(5)
N1 N -0.8166(6) 0.2275(6) 0.4400(7)
N2 N -0.5873(6) 0.0952(5) 0.8296(5)
N3 N -0.2780(6) 0.3674(5) 0.2775(6)
C1 C -0.6855(7) 0.3199(6) 0.5047(7)
C2 C -0.5762(8) 0.3711(6) 0.4130(6)
C3 C -0.4736(7) 0.3774(5) 0.4381(7)
C4 C -0.4788(6) 0.3274(6) 0.5550(7)
C5 C -0.5890(7) 0.2755(5) 0.6465(6)
C6 C -0.6912(6) 0.2693(5) 0.6223(6)
C7 C -0.8020(10) 0.3241(9) 0.4797(12)
H1 H -0.8709 0.3161 0.5515
H2 H -0.8023 0.4015 0.4182
C8 C -0.5699(15) 0.4172(9) 0.2843(8)
H3 H -0.4891 0.4503 0.2308
H4 H -0.6259 0.4778 0.2720
H5 H -0.5907 0.3524 0.2691
C9 C -0.3572(9) 0.4429(7) 0.3366(10)
H6 H -0.3781 0.5096 0.2770
H7 H -0.3115 0.4754 0.3675
C10 C -0.3648(9) 0.3255(9) 0.5836(13)
H8 H -0.2971 0.3640 0.5109
H9 H -0.3490 0.2442 0.6228
H10 H -0.3769 0.3670 0.6350
C11 C -0.6001(11) 0.2286(6) 0.7752(7)
H11 H -0.6785 0.2461 0.8217
H12 H -0.5384 0.2707 0.7808
C12 C -0.8072(8) 0.2072(9) 0.7238(10)
H13 H -0.7941 0.1783 0.7979
H14 H -0.8321 0.1412 0.7127
H15 H -0.8693 0.2625 0.7255
C13 C -0.8778(8) -0.0403(8) 0.3304(9)
C14 C -0.8585(7) 0.0554(8) 0.3705(8)
C15 C -0.9171(8) 0.1592(8) 0.3499(9)
H16 H -0.9721 0.1716 0.3117
C16 C -0.8954(8) 0.2449(8) 0.3850(9)
H17 H -0.9355 0.3148 0.3705
C17 C -0.7610(9) 0.1279(8) 0.4630(10)
H18 H -0.7086 0.1164 0.5038
C18 C -0.7785(8) 0.0406(8) 0.4280(9)
H19 H -0.7365 -0.0281 0.4431
C19 C -0.5431(7) -0.2736(6) 0.9993(7)
C20 C -0.5605(6) -0.1421(5) 0.9371(6)
C21 C -0.5186(9) -0.0859(6) 0.8145(7)
H20 H -0.4823 -0.1286 0.7672
C22 C -0.5314(10) 0.0339(6) 0.7633(7)
H21 H -0.5004 0.0731 0.6806
C23 C -0.6328(7) 0.0420(6) 0.9486(6)
H22 H -0.6729 0.0857 0.9939
C24 C -0.6202(6) -0.0781(6) 1.0041(6)
H23 H -0.6520 -0.1157 1.0870
C25 C -0.0511(7) 0.1726(7) 0.0853(7)
C26 C -0.1298(7) 0.2397(6) 0.1560(7)
C27 C -0.0960(9) 0.3558(7) 0.1301(8)
H24 H -0.0213 0.3917 0.0719
C28 C -0.1736(8) 0.4185(7) 0.1910(8)
H25 H -0.1522 0.4979 0.1709
C29 C -0.3069(8) 0.2524(7) 0.3082(9)
H26 H -0.3774 0.2149 0.3730
C30 C -0.2368(8) 0.1893(7) 0.2478(9)
H27 H -0.2615 0.1105 0.2689
Cu1_2 Cu -1.0000 -1.0000 2.0000
Cl1A Cl -0.2954(3) -0.4809(2) 0.9540(3)
O1A O -0.1927(8) -0.8820(7) 1.6682(9)
O2A O -0.0357(6) -0.9743(6) 1.7062(6)
O3A O -0.4368(7) -0.6866(5) 0.8939(5)
O4A O -0.4948(6) -0.6712(4) 1.0699(5)
O5A O -1.0520(5) -1.2140(6) 1.9847(6)
O6A O -0.8979(5) -1.0749(4) 1.8973(5)
O6A_2 O 0.1021(5) -0.0749(4) -0.1027(5)
O7A O -0.0801(5) 0.0815(5) -0.1110(5)
N1A N -0.1834(6) -1.2275(6) 1.5600(7)
N2A N -0.4127(6) -1.0952(5) 1.1704(5)
N3A N -0.7220(6) -1.3674(5) 1.7225(6)
C1A C -0.3145(7) -1.3199(6) 1.4953(7)
C2A C -0.4238(8) -1.3711(6) 1.5870(6)
C3A C -0.5264(7) -1.3774(5) 1.5619(7)
C4A C -0.5212(6) -1.3274(6) 1.4450(7)
C5A C -0.4110(7) -1.2755(5) 1.3535(6)
C6A C -0.3088(6) -1.2693(5) 1.3777(6)
C7A C -0.1980(10) -1.3241(9) 1.5203(12)
H1A H -0.1291 -1.3161 1.4485
H2A H -0.1977 -1.4015 1.5818
C8A C -0.4301(15) -1.4172(9) 1.7157(8)
H3A H -0.5109 -1.4503 1.7692
H4A H -0.3741 -1.4778 1.7280
H5A H -0.4093 -1.3524 1.7309
C9A C -0.6428(9) -1.4429(7) 1.6634(10)
H6A H -0.6219 -1.5096 1.7230
H7A H -0.6885 -1.4754 1.6325
C10A C -0.6352(9) -1.3255(9) 1.4164(13)
H8A H -0.7029 -1.3640 1.4891
H9A H -0.6510 -1.2442 1.3772
H10A H -0.6231 -1.3670 1.3650
C11A C -0.3999(11) -1.2286(6) 1.2248(7)
H11A H -0.3215 -1.2461 1.1783
H12A H -0.4616 -1.2707 1.2192
C12A C -0.1928(8) -1.2072(9) 1.2762(10)
H13A H -0.2059 -1.1783 1.2021
H14A H -0.1679 -1.1412 1.2873
H15A H -0.1307 -1.2625 1.2745
C13A C -0.1222(8) -0.9597(8) 1.6696(9)
C14A C -0.1415(7) -1.0554(8) 1.6295(8)
C15A C -0.0829(8) -1.1592(8) 1.6501(9)
H16A H -0.0279 -1.1716 1.6883
C16A C -0.1046(8) -1.2449(8) 1.6150(9)
H17A H -0.0645 -1.3148 1.6295
C17A C -0.2390(9) -1.1279(8) 1.5370(10)
H18A H -0.2914 -1.1164 1.4962
C18A C -0.2215(8) -1.0406(8) 1.5720(9)
H19A H -0.2635 -0.9719 1.5569
C19A C -0.4569(7) -0.7264(6) 1.0007(7)
C20A C -0.4395(6) -0.8579(5) 1.0629(6)
C21A C -0.4814(9) -0.9141(6) 1.1855(7)
H20A H -0.5177 -0.8714 1.2328
C22A C -0.4686(10) -1.0339(6) 1.2367(7)
H21A H -0.4996 -1.0731 1.3194
C23A C -0.3672(7) -1.0420(6) 1.0514(6)
H22A H -0.3271 -1.0857 1.0061
C24A C -0.3798(6) -0.9219(6) 0.9959(6)
H23A H -0.3480 -0.8843 0.9130
C25A C -0.9489(7) -1.1726(7) 1.9147(7)
C26A C -0.8702(7) -1.2397(6) 1.8440(7)
C27A C -0.9040(9) -1.3558(7) 1.8699(8)
H24A H -0.9787 -1.3917 1.9281
C28A C -0.8264(8) -1.4185(7) 1.8090(8)
H25A H -0.8478 -1.4979 1.8291
C29A C -0.6931(8) -1.2524(7) 1.6918(9)
H26A H -0.6226 -1.2149 1.6270
C30A C -0.7632(8) -1.1893(7) 1.7522(9)
H27A H -0.7385 -1.1105 1.7311
loop_
_geom_bond_atom_site_label_1
_geom_bond_atom_site_label_2
_geom_bond_site_symmetry_1
_geom_bond_site_symmetry_2
Cu1 O6 1_555 1_555
Cu2 Cl1 1_555 1_555
O1 C13 1_555 1_555
O2 C13 1_555 1_555
O3 C19 1_555 1_555
O4 Cu2 1_555 1_555
O5 C25 1_555 1_555
O6 C25 1_555 1_555
O7 Cu1 1_555 1_555
N1 C7 1_555 1_555
N2 C11 1_555 1_555
N3 C9 1_555 1_555
C1 C2 1_555 1_555
C2 C3 1_555 1_555
C3 C4 1_555 1_555
C4 C5 1_555 1_555
C5 C6 1_555 1_555
C6 C1 1_555 1_555
C7 C1 1_555 1_555
H1 C7 1_555 1_555
H2 C7 1_555 1_555
C8 C2 1_555 1_555
H3 C8 1_555 1_555
H4 C8 1_555 1_555
H5 C8 1_555 1_555
C9 C3 1_555 1_555
H6 C9 1_555 1_555
H7 C9 1_555 1_555
C10 C4 1_555 1_555
H8 C10 1_555 1_555
H9 C10 1_555 1_555
H10 C10 1_555 1_555
C11 C5 1_555 1_555
H11 C11 1_555 1_555
H12 C11 1_555 1_555
C12 C6 1_555 1_555
H13 C12 1_555 1_555
H14 C12 1_555 1_555
H15 C12 1_555 1_555
C13 C14 1_555 1_555
C14 C15 1_555 1_555
C15 H16 1_555 1_555
C16 N1 1_555 1_555
H17 C16 1_555 1_555
C17 N1 1_555 1_555
H18 C17 1_555 1_555
C18 C14 1_555 1_555
H19 C18 1_555 1_555
C19 O4 1_555 1_555
C20 C19 1_555 1_555
C21 C20 1_555 1_555
H20 C21 1_555 1_555
C22 N2 1_555 1_555
H21 C22 1_555 1_555
C23 N2 1_555 1_555
H22 C23 1_555 1_555
C24 C20 1_555 1_555
H23 C24 1_555 1_555
C25 C26 1_555 1_555
C26 C27 1_555 1_555
C27 H24 1_555 1_555
C28 N3 1_555 1_555
H25 C28 1_555 1_555
C29 N3 1_555 1_555
H26 C29 1_555 1_555
C30 C26 1_555 1_555
H27 C30 1_555 1_555
Cu1_2 O6A 1_555 1_555
Cl1A Cu2 1_555 1_555
O1A C13A 1_555 1_555
O2A C13A 1_555 1_555
O3A C19A 1_555 1_555
O4A Cu2 1_555 1_555
O5A C25A 1_555 1_555
O6A C25A 1_555 1_555
O6A_2 Cu1 1_555 1_555
O7A Cu1 1_555 1_555
N1A C7A 1_555 1_555
N2A C11A 1_555 1_555
N3A C9A 1_555 1_555
C1A C2A 1_555 1_555
C2A C3A 1_555 1_555
C3A C4A 1_555 1_555
C4A C5A 1_555 1_555
C5A C6A 1_555 1_555
C6A C1A 1_555 1_555
C7A C1A 1_555 1_555
H1A C7A 1_555 1_555
H2A C7A 1_555 1_555
C8A C2A 1_555 1_555
H3A C8A 1_555 1_555
H4A C8A 1_555 1_555
H5A C8A 1_555 1_555
C9A C3A 1_555 1_555
H6A C9A 1_555 1_555
H7A C9A 1_555 1_555
C10A C4A 1_555 1_555
H8A C10A 1_555 1_555
H9A C10A 1_555 1_555
H10A C10A 1_555 1_555
C11A C5A 1_555 1_555
H11A C11A 1_555 1_555
H12A C11A 1_555 1_555
C12A C6A 1_555 1_555
H13A C12A 1_555 1_555
H14A C12A 1_555 1_555
H15A C12A 1_555 1_555
C13A C14A 1_555 1_555
C14A C15A 1_555 1_555
C15A H16A 1_555 1_555
C16A N1A 1_555 1_555
H17A C16A 1_555 1_555
C17A N1A 1_555 1_555
H18A C17A 1_555 1_555
C18A C14A 1_555 1_555
H19A C18A 1_555 1_555
C19A O4A 1_555 1_555
C20A C19A 1_555 1_555
C21A C20A 1_555 1_555
H20A C21A 1_555 1_555
C22A N2A 1_555 1_555
H21A C22A 1_555 1_555
C23A N2A 1_555 1_555
H22A C23A 1_555 1_555
C24A C20A 1_555 1_555
H23A C24A 1_555 1_555
C25A C26A 1_555 1_555
C26A C27A 1_555 1_555
C27A H24A 1_555 1_555
C28A N3A 1_555 1_555
H25A C28A 1_555 1_555
C29A N3A 1_555 1_555
H26A C29A 1_555 1_555
C30A C26A 1_555 1_555
H27A C30A 1_555 1_555
C15 C16 1_555 1_555
C17 C18 1_555 1_555
C21 C22 1_555 1_555
C23 C24 1_555 1_555
C27 C28 1_555 1_555
C29 C30 1_555 1_555
C15A C16A 1_555 1_555
C17A C18A 1_555 1_555
C21A C22A 1_555 1_555
C23A C24A 1_555 1_555
C27A C28A 1_555 1_555
C29A C30A 1_555 1_555

#END
