
#######################################################################
#
#                 Cambridge Crystallographic Data Centre
#                                CCDC 
#
#######################################################################
#
# If this CIF has been generated from an entry in the Cambridge 
# Structural Database, then it will include bibliographic, chemical, 
# crystal, experimental, refinement or atomic coordinate data resulting 
# from the CCDC's data processing and validation procedures.
#
#######################################################################

data_ENIXEF
_symmetry_cell_setting           monoclinic
_symmetry_space_group_name_H-M   'P 21/n'
_symmetry_Int_Tables_number      14
_space_group_name_Hall           '-P 2yn'
loop_
_symmetry_equiv_pos_site_id
_symmetry_equiv_pos_as_xyz
1 x,y,z
2 1/2-x,1/2+y,1/2-z
3 -x,-y,-z
4 1/2+x,1/2-y,1/2+z
_cell_length_a                   13.0346(2)
_cell_length_b                   16.5760(3)
_cell_length_c                   14.3933(2)
_cell_angle_alpha                90
_cell_angle_beta                 108.6867(11)
_cell_angle_gamma                90
_cell_volume                     2945.9
loop_
_atom_site_label
_atom_site_type_symbol
_atom_site_fract_x
_atom_site_fract_y
_atom_site_fract_z
Cu1 Cu 0.46017(3) 0.14892(2) 0.91284(2)
C1 C 0.2674(2) 0.25021(16) 0.91902(19)
C2 C 0.1507(2) 0.24965(18) 0.88693(19)
H1 H 0.1049 0.2927 0.8924
C3 C 0.1187(2) 0.17579(17) 0.84732(19)
H2 H 0.0462 0.1578 0.8185
C4 C 0.2149(2) 0.13002(17) 0.85714(18)
C5 C 0.2164(2) 0.04789(17) 0.83536(18)
C6 C 0.3112(2) 0.00421(17) 0.84434(19)
C7 C 0.3146(2) -0.08162(16) 0.82849(19)
H3 H 0.2558 -0.1183 0.8163
C8 C 0.4178(2) -0.09964(16) 0.83439(18)
H4 H 0.4452 -0.1514 0.8266
C9 C 0.4784(2) -0.02506(16) 0.85478(18)
C10 C 0.5876(2) -0.01799(16) 0.86214(18)
C11 C 0.6511(2) 0.05018(16) 0.89858(18)
C12 C 0.7654(2) 0.05598(17) 0.91385(19)
H5 H 0.8084 0.0184 0.8929
C13 C 0.7999(2) 0.12525(17) 0.96382(19)
H6 H 0.8723 0.1446 0.9872
C14 C 0.7054(2) 0.16406(16) 0.97460(18)
C15 C 0.7080(2) 0.23676(16) 1.02658(18)
C16 C 0.6152(2) 0.27684(16) 1.03035(19)
C17 C 0.6163(2) 0.35485(16) 1.07575(19)
H7 H 0.6786 0.3851 1.1107
C18 C 0.5122(2) 0.37651(17) 1.0591(2)
H8 H 0.4874 0.4252 1.0796
C19 C 0.4454(2) 0.31192(17) 1.00440(19)
C20 C 0.3320(2) 0.31310(17) 0.97163(18)
N1 N 0.30567(19) 0.17729(13) 0.89763(15)
N2 N 0.41307(19) 0.03706(14) 0.86486(16)
N3 N 0.61467(19) 0.11888(13) 0.93311(15)
N4 N 0.50958(18) 0.25155(13) 0.98740(15)
C21 C 0.1120(2) 0.00202(16) 0.80317(19)
C22 C 0.0448(2) -0.00189(17) 0.8619(2)
H9 H 0.0656 0.0282 0.9212
N5 N -0.0466(2) -0.04505(15) 0.84027(17)
C23 C -0.0744(3) -0.08686(18) 0.7562(2)
H10 H -0.1391 -0.1179 0.7392
C24 C -0.0139(3) -0.08715(18) 0.6928(2)
H11 H -0.0367 -0.1180 0.6342
C25 C 0.0800(2) -0.04206(16) 0.7159(2)
H12 H 0.1222 -0.0410 0.6730
C26 C 0.6364(2) -0.08941(17) 0.82824(19)
C27 C 0.5902(2) -0.11641(17) 0.7328(2)
H13 H 0.5315 -0.0862 0.6911
N6 N 0.6221(2) -0.18200(15) 0.69504(17)
C28 C 0.7054(3) -0.22291(18) 0.7551(2)
H14 H 0.7292 -0.2701 0.7307
C29 C 0.7589(3) -0.20024(17) 0.8510(2)
H15 H 0.8185 -0.2308 0.8907
C30 C 0.7241(2) -0.13237(17) 0.8879(2)
H16 H 0.7598 -0.1153 0.9533
C31 C 0.8157(2) 0.27087(16) 1.08378(19)
C32 C 0.8439(2) 0.27839(16) 1.18523(19)
H17 H 0.7923 0.2618 1.2153
N7 N 0.93883(19) 0.30739(14) 1.24355(16)
C33 C 1.0111(2) 0.32970(17) 1.2000(2)
H18 H 1.0791 0.3499 1.2398
C34 C 0.9914(2) 0.32477(17) 1.0995(2)
H19 H 1.0448 0.3414 1.0715
C35 C 0.8925(2) 0.29524(16) 1.0408(2)
H20 H 0.8771 0.2916 0.9718
C36 C 0.2762(2) 0.38340(17) 0.9992(2)
C37 C 0.2067(3) 0.43263(17) 0.9288(2)
H21 H 0.1985 0.4228 0.8618
N8 N 0.1496(2) 0.49410(17) 0.9508(2)
C38 C 0.1633(3) 0.50671(19) 1.0472(2)
H22 H 0.1234 0.5491 1.0640
C39 C 0.2307(2) 0.46219(17) 1.1211(2)
H23 H 0.2382 0.4735 1.1877
C40 C 0.2875(3) 0.40080(17) 1.0970(2)
H24 H 0.3354 0.3693 1.1476
Cu1C Cu 0.96017(3) 0.35108(2) 1.41284(2)
N7C N 0.43883(19) 0.19261(14) 0.74355(16)
loop_
_geom_bond_atom_site_label_1
_geom_bond_atom_site_label_2
_geom_bond_site_symmetry_1
_geom_bond_site_symmetry_2
Cu1 N1 1_555 1_555
C1 C2 1_555 1_555
C2 H1 1_555 1_555
C3 C2 1_555 1_555
H2 C3 1_555 1_555
C4 C3 1_555 1_555
C5 C4 1_555 1_555
C6 C5 1_555 1_555
C7 C6 1_555 1_555
H3 C7 1_555 1_555
C8 C7 1_555 1_555
H4 C8 1_555 1_555
C9 C8 1_555 1_555
C10 C9 1_555 1_555
C11 C10 1_555 1_555
C12 C11 1_555 1_555
H5 C12 1_555 1_555
C13 C12 1_555 1_555
H6 C13 1_555 1_555
C14 C13 1_555 1_555
C15 C14 1_555 1_555
C16 C15 1_555 1_555
C17 C16 1_555 1_555
H7 C17 1_555 1_555
C18 C17 1_555 1_555
H8 C18 1_555 1_555
C19 C18 1_555 1_555
C20 C1 1_555 1_555
N1 C1 1_555 1_555
N2 Cu1 1_555 1_555
N3 Cu1 1_555 1_555
N4 Cu1 1_555 1_555
C21 C5 1_555 1_555
C22 C21 1_555 1_555
H9 C22 1_555 1_555
N5 C22 1_555 1_555
C23 N5 1_555 1_555
H10 C23 1_555 1_555
C24 C23 1_555 1_555
H11 C24 1_555 1_555
C25 C21 1_555 1_555
H12 C25 1_555 1_555
C26 C10 1_555 1_555
C27 C26 1_555 1_555
H13 C27 1_555 1_555
N6 C27 1_555 1_555
C28 N6 1_555 1_555
H14 C28 1_555 1_555
C29 C28 1_555 1_555
H15 C29 1_555 1_555
C30 C26 1_555 1_555
H16 C30 1_555 1_555
C31 C15 1_555 1_555
C32 C31 1_555 1_555
H17 C32 1_555 1_555
N7 C32 1_555 1_555
C33 N7 1_555 1_555
H18 C33 1_555 1_555
C34 C33 1_555 1_555
H19 C34 1_555 1_555
C35 C31 1_555 1_555
H20 C35 1_555 1_555
C36 C20 1_555 1_555
C37 C36 1_555 1_555
H21 C37 1_555 1_555
N8 C37 1_555 1_555
C38 N8 1_555 1_555
H22 C38 1_555 1_555
C39 C38 1_555 1_555
H23 C39 1_555 1_555
C40 C36 1_555 1_555
H24 C40 1_555 1_555
Cu1C N7 1_555 1_555
N7C Cu1 1_555 1_555
C4 N1 1_555 1_555
C6 N2 1_555 1_555
C9 N2 1_555 1_555
C11 N3 1_555 1_555
C14 N3 1_555 1_555
C16 N4 1_555 1_555
C19 C20 1_555 1_555
C19 N4 1_555 1_555
C24 C25 1_555 1_555
C29 C30 1_555 1_555
C34 C35 1_555 1_555
C39 C40 1_555 1_555

#END
