
#######################################################################
#
#                 Cambridge Crystallographic Data Centre
#                                CCDC 
#
#######################################################################
#
# If this CIF has been generated from an entry in the Cambridge 
# Structural Database, then it will include bibliographic, chemical, 
# crystal, experimental, refinement or atomic coordinate data resulting 
# from the CCDC's data processing and validation procedures.
#
#######################################################################

data_ENOBUE
_symmetry_cell_setting           monoclinic
_symmetry_space_group_name_H-M   'C 2/c'
_symmetry_Int_Tables_number      15
_space_group_name_Hall           '-C 2yn'
loop_
_symmetry_equiv_pos_site_id
_symmetry_equiv_pos_as_xyz
1 x,y,z
2 1/2+x,1/2+y,z
3 x,-y,1/2+z
4 1/2+x,1/2-y,1/2+z
5 -x,-y,-z
6 1/2-x,1/2-y,-z
7 -x,y,1/2-z
8 1/2-x,1/2+y,1/2-z
_cell_length_a                   33.588(3)
_cell_length_b                   5.0127(4)
_cell_length_c                   14.2398(12)
_cell_angle_alpha                90
_cell_angle_beta                 100.9730(10)
_cell_angle_gamma                90
_cell_volume                     2353.67
loop_
_atom_site_label
_atom_site_type_symbol
_atom_site_fract_x
_atom_site_fract_y
_atom_site_fract_z
Na1 Na 0.01661(3) 0.0897(2) 0.12711(8)
O1 O 0.07947(6) -0.0449(4) 0.21462(15)
O2 O 0.06827(6) 0.2458(4) 0.04567(13)
O3 O -0.03071(7) 0.2511(5) -0.00580(15)
O4 O 0.0000 0.3593(6) 0.2500
O5 O -0.03749(7) -0.2165(4) 0.14582(16)
C1 C 0.14327(10) -0.2381(6) 0.2728(2)
H1 H 0.1275 -0.3408 0.3115
H2 H 0.1645 -0.1377 0.3151
H3 H 0.1558 -0.3601 0.2331
C2 C 0.11563(9) -0.0466(6) 0.2093(2)
C3 C 0.13266(9) 0.1299(6) 0.14460(19)
C4 C 0.17477(9) 0.1680(6) 0.1597(2)
H4 H 0.1912 0.0666 0.2086
C5 C 0.19379(9) 0.3439(6) 0.1079(2)
C6 C 0.16911(9) 0.4913(6) 0.0346(2)
C7 C 0.12770(9) 0.4551(6) 0.0175(2)
H5 H 0.1117 0.5565 -0.0322
C8 C 0.10745(9) 0.2754(6) 0.06955(19)
C9 C 0.23921(9) 0.3804(7) 0.1304(2)
H6 H 0.2510 0.2607 0.1828
H7 H 0.2456 0.5656 0.1495
H8 H 0.2505 0.3384 0.0736
C10 C 0.18767(10) 0.6891(7) -0.0246(2)
H9 H 0.1662 0.7733 -0.0714
H10 H 0.2065 0.5961 -0.0582
H11 H 0.2024 0.8261 0.0174
H12 H -0.0500(13) 0.155(9) -0.016(3)
H13 H -0.0415(14) 0.399(11) -0.022(3)
H14 H 0.0156(12) 0.461(8) 0.289(3)
H15 H -0.0486(12) -0.232(8) 0.087(3)
H16 H -0.0556(11) -0.166(7) 0.175(3)
H14F H -0.0156(12) 0.461(8) 0.211(3)
O3D O 0.03071(7) -0.2511(5) 0.00580(15)
H12D H 0.0500(13) -0.155(9) 0.016(3)
H13D H 0.0415(14) -0.399(11) 0.022(3)
Na1D Na -0.01661(3) -0.0897(2) -0.12711(8)
O1D O -0.07947(6) 0.0449(4) -0.21462(15)
O2D O -0.06827(6) -0.2458(4) -0.04567(13)
C1D C -0.14327(10) 0.2381(6) -0.2728(2)
H1D H -0.1275 0.3408 -0.3115
H2D H -0.1645 0.1377 -0.3151
H3D H -0.1558 0.3601 -0.2331
C2D C -0.11563(9) 0.0466(6) -0.2093(2)
C3D C -0.13266(9) -0.1299(6) -0.14460(19)
C4D C -0.17477(9) -0.1680(6) -0.1597(2)
H4D H -0.1912 -0.0666 -0.2086
C5D C -0.19379(9) -0.3439(6) -0.1079(2)
C6D C -0.16911(9) -0.4913(6) -0.0346(2)
C7D C -0.12770(9) -0.4551(6) -0.0175(2)
H5D H -0.1117 -0.5565 0.0322
C8D C -0.10745(9) -0.2754(6) -0.06955(19)
C9D C -0.23921(9) -0.3804(7) -0.1304(2)
H6D H -0.2510 -0.2607 -0.1828
H7D H -0.2456 -0.5656 -0.1495
H8D H -0.2505 -0.3384 -0.0736
C10D C -0.18767(10) -0.6891(7) 0.0246(2)
H9D H -0.1662 -0.7733 0.0714
H10D H -0.2065 -0.5961 0.0582
H11D H -0.2024 -0.8261 -0.0174
O5D O 0.03749(7) 0.2165(4) -0.14582(16)
H15D H 0.0486(12) 0.232(8) -0.087(3)
H16D H 0.0556(11) 0.166(7) -0.175(3)
Na1F Na -0.01661(3) 0.0897(2) 0.37289(8)
O4B O 0.0000 -0.3593(6) -0.2500
H14B H 0.0156(12) -0.461(8) -0.211(3)
H14D H -0.0156(12) -0.461(8) -0.289(3)
loop_
_geom_bond_atom_site_label_1
_geom_bond_atom_site_label_2
_geom_bond_site_symmetry_1
_geom_bond_site_symmetry_2
Na1 O1 1_555 1_555
O1 C2 1_555 1_555
O2 Na1 1_555 1_555
O3 Na1 1_555 1_555
O4 Na1 1_555 1_555
O5 Na1 1_555 1_555
C1 H1 1_555 1_555
H2 C1 1_555 1_555
H3 C1 1_555 1_555
C2 C1 1_555 1_555
C3 C2 1_555 1_555
C4 C3 1_555 1_555
H4 C4 1_555 1_555
C5 C4 1_555 1_555
C6 C5 1_555 1_555
C7 C6 1_555 1_555
H5 C7 1_555 1_555
C8 O2 1_555 1_555
C9 C5 1_555 1_555
H6 C9 1_555 1_555
H7 C9 1_555 1_555
H8 C9 1_555 1_555
C10 C6 1_555 1_555
H9 C10 1_555 1_555
H10 C10 1_555 1_555
H11 C10 1_555 1_555
H12 O3 1_555 1_555
H13 O3 1_555 1_555
H14 O4 1_555 1_555
H15 O5 1_555 1_555
H16 O5 1_555 1_555
H14F O4 1_555 1_555
O3D Na1 1_555 1_555
H12D O3D 1_555 1_555
H13D O3D 1_555 1_555
Na1D O3 1_555 1_555
O1D Na1D 1_555 1_555
O2D Na1D 1_555 1_555
C1D H1D 1_555 1_555
H2D C1D 1_555 1_555
H3D C1D 1_555 1_555
C2D O1D 1_555 1_555
C3D C2D 1_555 1_555
C4D C3D 1_555 1_555
H4D C4D 1_555 1_555
C5D C4D 1_555 1_555
C6D C5D 1_555 1_555
C7D C6D 1_555 1_555
H5D C7D 1_555 1_555
C8D O2D 1_555 1_555
C9D C5D 1_555 1_555
H6D C9D 1_555 1_555
H7D C9D 1_555 1_555
H8D C9D 1_555 1_555
C10D C6D 1_555 1_555
H9D C10D 1_555 1_555
H10D C10D 1_555 1_555
H11D C10D 1_555 1_555
O5D Na1D 1_555 1_555
H15D O5D 1_555 1_555
H16D O5D 1_555 1_555
Na1F O4 1_555 1_555
O4B Na1D 1_555 1_555
H14B O4B 1_555 1_555
H14D O4B 1_555 1_555
C3 C8 1_555 1_555
C7 C8 1_555 1_555
O3D Na1D 1_555 1_555
C1D C2D 1_555 1_555
C3D C8D 1_555 1_555
C7D C8D 1_555 1_555

#END
