
#######################################################################
#
#                 Cambridge Crystallographic Data Centre
#                                CCDC 
#
#######################################################################
#
# If this CIF has been generated from an entry in the Cambridge 
# Structural Database, then it will include bibliographic, chemical, 
# crystal, experimental, refinement or atomic coordinate data resulting 
# from the CCDC's data processing and validation procedures.
#
#######################################################################

data_ENOZEN
_symmetry_cell_setting           trigonal
_symmetry_space_group_name_H-M   'P -3'
_symmetry_Int_Tables_number      147
_space_group_name_Hall           '-P 3'
loop_
_symmetry_equiv_pos_site_id
_symmetry_equiv_pos_as_xyz
1 x,y,z
2 -y,x-y,z
3 -x+y,-x,z
4 -x,-y,-z
5 y,-x+y,-z
6 x-y,x,-z
_cell_length_a                   13.2465(4)
_cell_length_b                   13.2465(4)
_cell_length_c                   9.1812(3)
_cell_angle_alpha                90
_cell_angle_beta                 90
_cell_angle_gamma                120
_cell_volume                     1395.19
loop_
_atom_site_label
_atom_site_type_symbol
_atom_site_fract_x
_atom_site_fract_y
_atom_site_fract_z
Fe1 Fe 0.6667 0.3333 0.63584(4)
N1 N 0.6667 0.3333 0.2685(2)
N2 N 0.68251(12) 0.46973(11) 0.52978(13)
N3 N 0.78811(11) 0.45640(11) 0.75462(13)
N4 N 0.88978(13) 0.64259(13) 0.80557(15)
H1 H 0.9176 0.7167 0.8001
C1 C 0.66153(18) 0.43845(17) 0.26343(17)
H2 H 0.6122 0.4334 0.1824
H3 H 0.7392 0.5028 0.2438
C2 C 0.61554(16) 0.46661(16) 0.40146(16)
H4 H 0.6201 0.5416 0.3901
H5 H 0.5343 0.4081 0.4153
C3 C 0.75193(15) 0.56931(15) 0.58789(16)
H6 H 0.7620 0.6393 0.5517
C4 C 0.81238(14) 0.56222(13) 0.71388(17)
C5 C 0.85344(15) 0.47096(15) 0.87608(17)
H7 H 0.8547 0.4115 0.9284
C6 C 0.91616(17) 0.58607(16) 0.90815(19)
H8 H 0.9675 0.6198 0.9857
N2A N 0.53027(11) 0.21278(16) 0.52978(13)
N2B N 0.78722(16) 0.31749(12) 0.52978(13)
N3A N 0.54360(11) 0.33171(16) 0.75462(13)
N3B N 0.66829(16) 0.21189(11) 0.75462(13)
N4A N 0.35741(13) 0.24719(18) 0.80557(15)
N4B N 0.75281(18) 0.11022(13) 0.80557(15)
H1A H 0.2833 0.2009 0.8001
H1B H 0.7991 0.0824 0.8001
C1A C 0.56155(17) 0.22308(25) 0.26343(17)
C1B C 0.77692(25) 0.33847(18) 0.26343(17)
H2A H 0.5666 0.1788 0.1824
H2B H 0.8212 0.3878 0.1824
H3A H 0.4972 0.2364 0.2438
H3B H 0.7636 0.2608 0.2438
C2A C 0.53339(16) 0.14893(23) 0.40146(16)
C2B C 0.85107(23) 0.38446(16) 0.40146(16)
H4A H 0.4584 0.0785 0.3901
H4B H 0.9215 0.3799 0.3901
H5A H 0.5919 0.1262 0.4153
H5B H 0.8738 0.4657 0.4153
C3A C 0.43069(15) 0.18262(21) 0.58789(16)
C3B C 0.81738(21) 0.24807(15) 0.58789(16)
H6A H 0.3607 0.1227 0.5517
H6B H 0.8773 0.2380 0.5517
C4A C 0.43778(13) 0.25016(19) 0.71388(17)
C4B C 0.74984(19) 0.18762(14) 0.71388(17)
C5A C 0.52904(15) 0.38248(21) 0.87608(17)
C5B C 0.61752(21) 0.14656(15) 0.87608(17)
H7A H 0.5885 0.4432 0.9284
H7B H 0.5568 0.1453 0.9284
C6A C 0.41393(16) 0.33009(23) 0.90815(19)
C6B C 0.66991(23) 0.08384(17) 0.90815(19)
H8A H 0.3802 0.3477 0.9857
H8B H 0.6523 0.0325 0.9857
K1 K 1.0000 1.0000 1.0000
K2 K 1.0000 1.0000 0.5000
F1 F 0.76774(9) 0.89910(9) 0.88312(11)
F2 F 0.76912(10) 0.91005(10) 0.63813(11)
F3 F 0.88130(9) 0.85192(9) 0.75142(12)
F4 F 0.68471(9) 0.73255(9) 0.74956(13)
B1 B 0.77325(18) 0.84672(18) 0.7553(2)
K2_2 K 1.0000 1.0000 1.5000
F1A F 1.10090(9) 0.86864(13) 0.88312(11)
F1B F 1.13136(13) 1.23226(9) 0.88312(11)
F1C F 1.23226(9) 1.10090(9) 1.11688(11)
F1D F 0.89910(9) 1.13136(13) 1.11688(11)
F1E F 0.86864(13) 0.76774(9) 1.11688(11)
F2A F 1.08995(10) 0.85907(14) 0.63813(11)
F2B F 1.14093(14) 1.23088(10) 0.63813(11)
F2C F 1.23088(10) 1.08995(10) 1.36187(11)
F2D F 0.91005(10) 1.14093(14) 1.36187(11)
F2E F 0.85907(14) 0.76912(10) 1.36187(11)
F2C_2 F 1.23088(10) 1.08995(10) 0.36187(11)
F2D_2 F 0.91005(10) 1.14093(14) 0.36187(11)
F2E_2 F 0.85907(14) 0.76912(10) 0.36187(11)
F3A F 1.14808(9) 1.02938(13) 0.75142(12)
F3B F 0.97062(13) 1.11870(9) 0.75142(12)
F3C F 1.11870(9) 1.14808(9) 1.24858(12)
F3D F 0.85192(9) 0.97062(13) 1.24858(12)
F3E F 1.02938(13) 0.88130(9) 1.24858(12)
F3C_2 F 1.11870(9) 1.14808(9) 0.24858(12)
F3D_2 F 0.85192(9) 0.97062(13) 0.24858(12)
F3E_2 F 1.02938(13) 0.88130(9) 0.24858(12)
F4A F 1.26745(9) 0.95216(13) 0.74956(13)
F4B F 1.04784(13) 1.31529(9) 0.74956(13)
F4C F 1.31529(9) 1.26745(9) 1.25044(13)
F4D F 0.73255(9) 1.04784(13) 1.25044(13)
F4E F 0.95216(13) 0.68471(9) 1.25044(13)
B1A B 1.15328(18) 0.92653(25) 0.7553(2)
B1B B 1.07347(25) 1.22675(18) 0.7553(2)
B1C B 1.22675(18) 1.15328(18) 1.2447(2)
B1D B 0.84672(18) 1.07347(25) 1.2447(2)
B1E B 0.92653(25) 0.77325(18) 1.2447(2)
loop_
_geom_bond_atom_site_label_1
_geom_bond_atom_site_label_2
_geom_bond_site_symmetry_1
_geom_bond_site_symmetry_2
Fe1 N2 1_555 1_555
N1 C1 1_555 1_555
N2 C2 1_555 1_555
N3 Fe1 1_555 1_555
N4 H1 1_555 1_555
C1 H2 1_555 1_555
H3 C1 1_555 1_555
C2 C1 1_555 1_555
H4 C2 1_555 1_555
H5 C2 1_555 1_555
C3 N2 1_555 1_555
H6 C3 1_555 1_555
C4 N3 1_555 1_555
C5 N3 1_555 1_555
H7 C5 1_555 1_555
C6 N4 1_555 1_555
H8 C6 1_555 1_555
K1 F1 1_555 1_555
K2 F2 1_555 1_555
F1 B1 1_555 1_555
F2 B1 1_555 1_555
F3 K1 1_555 1_555
F4 B1 1_555 1_555
B1 F3 1_555 1_555
N2A Fe1 1_555 1_555
N2B Fe1 1_555 1_555
N3A Fe1 1_555 1_555
N3B Fe1 1_555 1_555
N4A H1A 1_555 1_555
N4B H1B 1_555 1_555
C1A N1 1_555 1_555
C1B N1 1_555 1_555
H2A C1A 1_555 1_555
H2B C1B 1_555 1_555
H3A C1A 1_555 1_555
H3B C1B 1_555 1_555
C2A N2A 1_555 1_555
C2B N2B 1_555 1_555
H4A C2A 1_555 1_555
H4B C2B 1_555 1_555
H5A C2A 1_555 1_555
H5B C2B 1_555 1_555
C3A N2A 1_555 1_555
C3B N2B 1_555 1_555
H6A C3A 1_555 1_555
H6B C3B 1_555 1_555
C4A N3A 1_555 1_555
C4B N3B 1_555 1_555
C5A N3A 1_555 1_555
C5B N3B 1_555 1_555
H7A C5A 1_555 1_555
H7B C5B 1_555 1_555
C6A N4A 1_555 1_555
C6B N4B 1_555 1_555
H8A C6A 1_555 1_555
H8B C6B 1_555 1_555
K2_2 F2C 1_555 1_555
F1A K1 1_555 1_555
F1B K1 1_555 1_555
F1C K1 1_555 1_555
F1D K1 1_555 1_555
F1E K1 1_555 1_555
F2A K2 1_555 1_555
F2B K2 1_555 1_555
F2C B1C 1_555 1_555
F2D K2_2 1_555 1_555
F2E K2_2 1_555 1_555
F2C_2 K2 1_555 1_555
F2D_2 K2 1_555 1_555
F2E_2 K2 1_555 1_555
F3A K1 1_555 1_555
F3B K1 1_555 1_555
F3C K1 1_555 1_555
F3D K1 1_555 1_555
F3E K1 1_555 1_555
F3C_2 K2 1_555 1_555
F3D_2 K2 1_555 1_555
F3E_2 K2 1_555 1_555
F4A B1A 1_555 1_555
F4B B1B 1_555 1_555
F4C B1C 1_555 1_555
F4D B1D 1_555 1_555
F4E B1E 1_555 1_555
B1A F1A 1_555 1_555
B1B F1B 1_555 1_555
B1C F1C 1_555 1_555
B1D F1D 1_555 1_555
B1E F1E 1_555 1_555
N4 C4 1_555 1_555
C3 C4 1_555 1_555
C5 C6 1_555 1_555
K2 F3 1_555 1_555
K2 F3A 1_555 1_555
K2 F3B 1_555 1_555
N4A C4A 1_555 1_555
N4B C4B 1_555 1_555
C1A C2A 1_555 1_555
C1B C2B 1_555 1_555
C3A C4A 1_555 1_555
C3B C4B 1_555 1_555
C5A C6A 1_555 1_555
C5B C6B 1_555 1_555
K2_2 F3C 1_555 1_555
K2_2 F3D 1_555 1_555
K2_2 F3E 1_555 1_555
F2A B1A 1_555 1_555
F2B B1B 1_555 1_555
F2D B1D 1_555 1_555
F2E B1E 1_555 1_555
F3A B1A 1_555 1_555
F3B B1B 1_555 1_555
F3C B1C 1_555 1_555
F3D B1D 1_555 1_555
F3E B1E 1_555 1_555

#END
