
#######################################################################
#
#                 Cambridge Crystallographic Data Centre
#                                CCDC 
#
#######################################################################
#
# If this CIF has been generated from an entry in the Cambridge 
# Structural Database, then it will include bibliographic, chemical, 
# crystal, experimental, refinement or atomic coordinate data resulting 
# from the CCDC's data processing and validation procedures.
#
#######################################################################

data_ENUKII
_symmetry_cell_setting           monoclinic
_symmetry_space_group_name_H-M   'C 2/c'
_symmetry_Int_Tables_number      15
_space_group_name_Hall           '-C 2yn'
loop_
_symmetry_equiv_pos_site_id
_symmetry_equiv_pos_as_xyz
1 x,y,z
2 -x,y,1/2-z
3 1/2+x,1/2+y,z
4 1/2-x,1/2+y,1/2-z
5 -x,-y,-z
6 x,-y,1/2+z
7 1/2-x,1/2-y,-z
8 1/2+x,1/2-y,1/2+z
_cell_length_a                   11.9754(17)
_cell_length_b                   17.585(3)
_cell_length_c                   19.587(3)
_cell_angle_alpha                90
_cell_angle_beta                 106.981(2)
_cell_angle_gamma                90
_cell_volume                     3944.94
loop_
_atom_site_label
_atom_site_type_symbol
_atom_site_fract_x
_atom_site_fract_y
_atom_site_fract_z
C1 C 0.3442(6) 0.1756(4) 0.7680(3)
H1 H 0.3560 0.1999 0.8117
C2 C 0.2956(6) 0.1036(4) 0.7599(3)
H2 H 0.2774 0.0798 0.7977
C3 C 0.2748(5) 0.0677(3) 0.6953(3)
H3 H 0.2423 0.0193 0.6886
C4 C 0.3031(5) 0.1051(3) 0.6394(3)
C5 C 0.3556(5) 0.1770(3) 0.6528(3)
C6 C 0.3899(5) 0.2180(3) 0.5967(3)
C7 C 0.4817(6) 0.3209(3) 0.5647(3)
H4 H 0.5255 0.3651 0.5774
C8 C 0.4520(5) 0.2968(4) 0.4935(3)
H5 H 0.4714 0.3266 0.4594
C9 C 0.3953(5) 0.2304(4) 0.4746(3)
H6 H 0.3768 0.2133 0.4277
C10 C 0.3642(5) 0.1868(3) 0.5273(3)
C11 C 0.3083(5) 0.1140(3) 0.5152(3)
C12 C 0.2812(5) 0.0739(3) 0.5691(3)
C13 C 0.2287(5) 0.0045(4) 0.4765(3)
C14 C 0.7620(5) 0.3790(3) 0.7595(3)
C15 C 0.8852(5) 0.3871(3) 0.7550(3)
C16 C 0.9063(5) 0.3890(3) 0.6887(3)
H7 H 0.8438 0.3891 0.6472
C17 C 0.9811(5) 0.3907(4) 0.8161(3)
H8 H 0.9687 0.3942 0.8607
N1 N 0.3746(4) 0.2117(3) 0.7173(2)
N2 N 0.4501(4) 0.2834(3) 0.6146(2)
N3 N 0.2741(4) 0.0689(3) 0.4563(2)
H9 H 0.2798 0.0790 0.4145
N4 N 0.2316(4) 0.0054(3) 0.5442(3)
O1 O 0.6848(4) 0.3636(3) 0.7039(2)
O2 O 0.7437(4) 0.3860(3) 0.8191(2)
Pb1 Pb 0.5000 0.334505(17) 0.7500
F1 F 0.0081(2) 0.00681(17) 0.35975(16)
Cl1 Cl 0.3660(3) -0.1359(2) 0.49711(17)
C18 C 0.0776(4) -0.0591(3) 0.3756(3)
C19 C 0.1844(4) -0.0617(3) 0.4283(2)
C20 C 0.2474(5) -0.1292(3) 0.4418(3)
C21 C 0.2037(7) -0.1941(3) 0.4025(4)
H10 H 0.2459 -0.2392 0.4115
C22 C 0.0969(7) -0.1915(3) 0.3498(4)
H11 H 0.0676 -0.2349 0.3235
C23 C 0.0339(5) -0.1240(4) 0.3364(3)
H12 H -0.0376 -0.1222 0.3011
C1A C 0.6558(6) 0.1756(4) 0.7320(3)
H1A H 0.6440 0.1999 0.6883
C2A C 0.7044(6) 0.1036(4) 0.7401(3)
H2A H 0.7226 0.0798 0.7023
C3A C 0.7252(5) 0.0677(3) 0.8047(3)
H3A H 0.7577 0.0193 0.8114
C4A C 0.6969(5) 0.1051(3) 0.8606(3)
C5A C 0.6444(5) 0.1770(3) 0.8472(3)
C6A C 0.6101(5) 0.2180(3) 0.9033(3)
C7A C 0.5183(6) 0.3209(3) 0.9353(3)
H4A H 0.4745 0.3651 0.9226
C8A C 0.5480(5) 0.2968(4) 1.0065(3)
H5A H 0.5286 0.3266 1.0406
C9A C 0.6047(5) 0.2304(4) 1.0254(3)
H6A H 0.6232 0.2133 1.0723
C10A C 0.6358(5) 0.1868(3) 0.9727(3)
C11A C 0.6917(5) 0.1140(3) 0.9848(3)
C12A C 0.7188(5) 0.0739(3) 0.9309(3)
C13A C 0.7713(5) 0.0045(4) 1.0235(3)
C14A C 1.2380(5) 0.3790(3) 0.7405(3)
C15A C 1.1148(5) 0.3871(3) 0.7450(3)
C16A C 1.0937(5) 0.3890(3) 0.8113(3)
H7A H 1.1562 0.3891 0.8528
C17A C 1.0189(5) 0.3907(4) 0.6839(3)
H8A H 1.0313 0.3942 0.6393
N1A N 0.6254(4) 0.2117(3) 0.7827(2)
N2A N 0.5499(4) 0.2834(3) 0.8854(2)
N3A N 0.7259(4) 0.0689(3) 1.0437(2)
H9A H 0.7202 0.0790 1.0855
N4A N 0.7684(4) 0.0054(3) 0.9558(3)
O1A O 1.3152(4) 0.3636(3) 0.7961(2)
O1A_2 O 0.3152(4) 0.3636(3) 0.7961(2)
O2A O 1.2563(4) 0.3860(3) 0.6809(2)
Pb1_2 Pb 1.5000 0.334505(17) 0.7500
F1A F 0.9919(2) 0.00681(17) 1.14025(16)
Cl1A Cl 0.6340(3) -0.1359(2) 1.00289(17)
C18A C 0.9224(4) -0.0591(3) 1.1244(3)
C19A C 0.8156(4) -0.0617(3) 1.0717(2)
C20A C 0.7526(5) -0.1292(3) 1.0582(3)
C21A C 0.7963(7) -0.1941(3) 1.0975(4)
H10A H 0.7541 -0.2392 1.0885
C22A C 0.9031(7) -0.1915(3) 1.1502(4)
H11A H 0.9324 -0.2349 1.1765
C23A C 0.9661(5) -0.1240(4) 1.1636(3)
H12A H 1.0376 -0.1222 1.1989
loop_
_geom_bond_atom_site_label_1
_geom_bond_atom_site_label_2
_geom_bond_site_symmetry_1
_geom_bond_site_symmetry_2
C1 H1 1_555 1_555
C2 C1 1_555 1_555
H2 C2 1_555 1_555
C3 C2 1_555 1_555
H3 C3 1_555 1_555
C4 C3 1_555 1_555
C5 C4 1_555 1_555
C6 C5 1_555 1_555
C7 H4 1_555 1_555
C8 C7 1_555 1_555
H5 C8 1_555 1_555
C9 C8 1_555 1_555
H6 C9 1_555 1_555
C10 C6 1_555 1_555
C11 C10 1_555 1_555
C12 C4 1_555 1_555
C13 N3 1_555 1_555
C14 C15 1_555 1_555
C15 C16 1_555 1_555
C16 H7 1_555 1_555
C17 C15 1_555 1_555
H8 C17 1_555 1_555
N1 C1 1_555 1_555
N2 C6 1_555 1_555
N3 C11 1_555 1_555
H9 N3 1_555 1_555
N4 C12 1_555 1_555
O1 C14 1_555 1_555
O2 C14 1_555 1_555
Pb1 N1 1_555 1_555
F1 C18 1_555 1_555
Cl1 C20 1_555 1_555
C18 C19 1_555 1_555
C19 C13 1_555 1_555
C20 C19 1_555 1_555
C21 C20 1_555 1_555
H10 C21 1_555 1_555
C22 C21 1_555 1_555
H11 C22 1_555 1_555
C23 C18 1_555 1_555
H12 C23 1_555 1_555
C1A H1A 1_555 1_555
C2A C1A 1_555 1_555
H2A C2A 1_555 1_555
C3A C2A 1_555 1_555
H3A C3A 1_555 1_555
C4A C3A 1_555 1_555
C5A C4A 1_555 1_555
C6A C5A 1_555 1_555
C7A H4A 1_555 1_555
C8A C7A 1_555 1_555
H5A C8A 1_555 1_555
C9A C8A 1_555 1_555
H6A C9A 1_555 1_555
C10A C6A 1_555 1_555
C11A C10A 1_555 1_555
C12A C4A 1_555 1_555
C13A N3A 1_555 1_555
C14A C15A 1_555 1_555
C15A C16A 1_555 1_555
C16A C17 1_555 1_555
H7A C16A 1_555 1_555
C17A C16 1_555 1_555
H8A C17A 1_555 1_555
N1A Pb1 1_555 1_555
N2A Pb1 1_555 1_555
N3A C11A 1_555 1_555
H9A N3A 1_555 1_555
N4A C12A 1_555 1_555
O1A C14A 1_555 1_555
O1A_2 Pb1 1_555 1_555
O2A C14A 1_555 1_555
Pb1_2 O1A 1_555 1_555
F1A C18A 1_555 1_555
Cl1A C20A 1_555 1_555
C18A C19A 1_555 1_555
C19A C13A 1_555 1_555
C20A C19A 1_555 1_555
C21A C20A 1_555 1_555
H10A C21A 1_555 1_555
C22A C21A 1_555 1_555
H11A C22A 1_555 1_555
C23A C18A 1_555 1_555
H12A C23A 1_555 1_555
C5 N1 1_555 1_555
C7 N2 1_555 1_555
C9 C10 1_555 1_555
C11 C12 1_555 1_555
C13 N4 1_555 1_555
N2 Pb1 1_555 1_555
O1 Pb1 1_555 1_555
C22 C23 1_555 1_555
C1A N1A 1_555 1_555
C5A N1A 1_555 1_555
C6A N2A 1_555 1_555
C7A N2A 1_555 1_555
C9A C10A 1_555 1_555
C11A C12A 1_555 1_555
C13A N4A 1_555 1_555
C15A C17A 1_555 1_555
C22A C23A 1_555 1_555

#END
