
#######################################################################
#
#                 Cambridge Crystallographic Data Centre
#                                CCDC 
#
#######################################################################
#
# If this CIF has been generated from an entry in the Cambridge 
# Structural Database, then it will include bibliographic, chemical, 
# crystal, experimental, refinement or atomic coordinate data resulting 
# from the CCDC's data processing and validation procedures.
#
#######################################################################

data_ENULOP
_symmetry_cell_setting           triclinic
_symmetry_space_group_name_H-M   'P -1'
_symmetry_Int_Tables_number      2
_space_group_name_Hall           '-P 1'
loop_
_symmetry_equiv_pos_site_id
_symmetry_equiv_pos_as_xyz
1 x,y,z
2 -x,-y,-z
_cell_length_a                   10.9651(10)
_cell_length_b                   13.0430(10)
_cell_length_c                   20.4281(10)
_cell_angle_alpha                94.668(10)
_cell_angle_beta                 104.916(10)
_cell_angle_gamma                102.253(10)
_cell_volume                     2730.06
loop_
_atom_site_label
_atom_site_type_symbol
_atom_site_fract_x
_atom_site_fract_y
_atom_site_fract_z
La1 La 0.85748(4) 1.01359(3) 0.76626(2)
La2 La 0.87988(4) 0.68390(3) 0.71523(2)
La3 La 0.54634(4) 1.35310(3) 0.70262(2)
La4 La 1.20183(4) 0.34781(3) 0.78362(2)
O1 O 0.7498(5) 0.9042(4) 0.8408(3)
O2 O 0.7017(7) 0.8751(5) 0.9374(3)
O3 O 1.0247(5) 1.1990(3) 0.8127(2)
O4 O 1.1774(6) 1.2972(4) 0.8991(3)
O5 O 0.7070(5) 1.1303(4) 0.7842(3)
O6 O 0.5234(5) 1.1849(3) 0.7529(3)
O7 O 0.6022(5) 0.6887(4) 0.6402(3)
O8 O 0.7601(5) 0.8329(3) 0.6868(2)
O9 O 1.1268(6) 1.0081(4) 0.8375(3)
O10 O 0.9728(4) 0.8611(3) 0.7923(2)
O11 O 1.2286(5) 0.5191(4) 0.7252(3)
O12 O 1.0381(5) 0.5670(3) 0.6998(3)
O13 O 0.7115(5) 0.5046(4) 0.6710(3)
O14 O 0.5455(5) 0.4157(4) 0.5861(3)
O15 O 0.9872(5) 0.7883(3) 0.6398(2)
O16 O 1.0386(6) 0.8120(5) 0.5428(3)
O17 O 0.1157(5) 1.1891(4) 0.6661(3)
O18 O 0.2971(5) 1.3142(4) 0.6832(3)
O19 O 0.6364(5) 1.2375(4) 0.6315(3)
O20 O 0.6228(6) 1.1775(6) 0.5248(3)
O21 O 0.1115(6) 1.4772(4) 0.8445(3)
O22 O 0.1187(8) 1.5609(8) 0.9453(4)
O23 O 0.6425(6) 1.4949(4) 0.8302(3)
O24 O 0.4517(5) 1.3838(4) 0.8039(3)
N1 N 0.9155(7) 1.0847(5) 0.8976(3)
N2 N 0.5976(6) 0.9466(4) 0.7051(3)
N3 N 1.1411(6) 0.7532(5) 0.7770(3)
N4 N 0.8172(5) 0.6112(4) 0.5852(3)
N5 N 0.3809(6) 1.2025(4) 0.6014(3)
N6 N 0.3676(6) 1.4999(4) 0.8817(3)
C1 C 0.8535(8) 1.0358(6) 0.9370(4)
C2 C 0.8683(10) 1.0754(7) 1.0034(5)
H1 H 0.8178 1.0408 1.0290
C3 C 0.9639(10) 1.1714(7) 1.0317(5)
H2 H 0.9822 1.1988 1.0776
C4 C 1.0288(10) 1.2229(7) 0.9902(4)
H3 H 1.0881 1.2879 1.0072
C5 C 1.0065(8) 1.1789(6) 0.9237(4)
C6 C 0.7601(8) 0.9316(6) 0.9030(4)
C7 C 1.0734(8) 1.2292(5) 0.8765(4)
C8 C 0.5182(7) 1.0099(5) 0.7114(4)
C9 C 0.3848(7) 0.9773(6) 0.6842(4)
H4 H 0.3315 1.0211 0.6917
C10 C 0.3327(9) 0.8791(7) 0.6459(5)
H5 H 0.2438 0.8555 0.6250
C11 C 0.4181(9) 0.8152(7) 0.6393(5)
H6 H 0.3859 0.7469 0.6153
C12 C 0.5465(8) 0.8531(5) 0.6677(4)
C13 C 0.5889(7) 1.1133(5) 0.7548(4)
C14 C 0.6427(8) 0.7848(5) 0.6637(4)
C15 C 1.1899(7) 0.8507(5) 0.8107(4)
C16 C 1.3207(9) 0.8916(6) 0.8391(5)
H7 H 1.3519 0.9607 0.8618
C17 C 1.4095(10) 0.8266(7) 0.8333(6)
H8 H 1.4987 0.8501 0.8533
C18 C 1.3542(7) 0.7295(6) 0.7971(4)
H9 H 1.4074 0.6843 0.7920
C19 C 1.2239(6) 0.6947(5) 0.7676(4)
C20 C 1.0945(7) 0.9112(5) 0.8140(3)
C21 C 1.1584(8) 0.5854(5) 0.7276(4)
C22 C 0.8841(8) 0.6588(6) 0.5423(4)
C23 C 0.8630(9) 0.6124(7) 0.4777(4)
H10 H 0.9136 0.6422 0.4507
C24 C 0.7670(11) 0.5215(9) 0.4518(5)
H11 H 0.7521 0.4912 0.4067
C25 C 0.6929(10) 0.4742(7) 0.4902(4)
H12 H 0.6271 0.4129 0.4725
C26 C 0.7207(8) 0.5224(5) 0.5569(4)
C27 C 0.9813(7) 0.7599(5) 0.5765(4)
C28 C 0.6528(7) 0.4769(5) 0.6081(4)
C29 C 0.2567(7) 1.1714(5) 0.5965(4)
C30 C 0.1758(8) 1.0921(6) 0.5486(4)
H13 H 0.0900 1.0672 0.5490
C31 C 0.2217(9) 1.0484(7) 0.4989(5)
H14 H 0.1658 0.9975 0.4633
C32 C 0.3546(9) 1.0818(7) 0.5029(4)
H15 H 0.3911 1.0522 0.4720
C33 C 0.4250(9) 1.1593(6) 0.5543(4)
C34 C 0.2142(6) 1.2278(5) 0.6511(3)
C35 C 0.5735(8) 1.1951(6) 0.5694(4)
C36 C 0.3173(7) 1.5558(6) 0.9225(4)
C37 C 0.3953(10) 1.6292(7) 0.9763(5)
H16 H 0.3593 1.6639 1.0053
C38 C 0.5248(12) 1.6509(8) 0.9870(5)
H17 H 0.5781 1.6997 1.0245
C39 C 0.5824(9) 1.6012(6) 0.9426(5)
H18 H 0.6716 1.6180 0.9483
C40 C 0.4981(8) 1.5276(6) 0.8915(4)
C41 C 0.1727(8) 1.5267(6) 0.9042(4)
C42 C 0.5368(8) 1.4615(6) 0.8389(4)
O25 O 0.9837(6) 0.3534(4) 0.6988(3)
O26 O 0.7754(6) 1.3466(4) 0.7719(4)
O27 O 0.9140(6) 0.5798(5) 0.8133(3)
O28 O 0.8122(6) 1.1178(4) 0.6674(3)
O29 O 0.9992(5) 0.9958(4) 0.6852(3)
O30 O 0.7281(5) 0.7021(4) 0.7934(3)
O31 O 1.2918(6) 0.1834(4) 0.8059(3)
O32 O 0.4671(5) 1.5281(4) 0.6987(3)
H25 H 1.0463 0.9511 0.6934
H26 H 1.0427 1.0471 0.6709
H27 H 1.3634 0.1669 0.8235
H28 H 1.2373 0.1535 0.8261
La3_2 La 0.54634(4) 0.35310(3) 0.70262(2)
La4_2 La 1.20183(4) 1.34781(3) 0.78362(2)
La4_3 La 0.20183(4) 1.34781(3) 0.78362(2)
O3_2 O 1.0247(5) 0.1990(3) 0.8127(2)
O4_2 O 1.1774(6) 0.2972(4) 0.8991(3)
O13_2 O 0.7115(5) 1.5046(4) 0.6710(3)
O14_2 O 0.5455(5) 1.4157(4) 0.5861(3)
O17_2 O 1.1157(5) 0.1891(4) 0.6661(3)
O18_2 O 1.2971(5) 0.3142(4) 0.6832(3)
O21_2 O 1.1115(6) 0.4772(4) 0.8445(3)
O24_2 O 1.4517(5) 0.3838(4) 0.8039(3)
N6_2 N 1.3676(6) 0.4999(4) 0.8817(3)
O33 O 0.8814(7) 1.2398(6) 0.5693(3)
H19 H 0.8074 1.2040 0.5724
H20 H 0.9379 1.2323 0.6059
O34 O 0.5556(16) 0.9203(11) 0.0216(8)
H21 H 0.5677 0.8831 -0.0114
H22 H 0.4869 0.8864 0.0297
O35 O 0.862(2) 0.3905(17) 0.9158(11)
H23 H 0.8994 0.3394 0.9170
H24 H 0.8834 0.4218 0.9576
loop_
_geom_bond_atom_site_label_1
_geom_bond_atom_site_label_2
_geom_bond_site_symmetry_1
_geom_bond_site_symmetry_2
La1 O1 1_555 1_555
La2 O8 1_555 1_555
La3 O6 1_555 1_555
La4 O11 1_555 1_555
O1 C6 1_555 1_555
O2 C6 1_555 1_555
O3 La1 1_555 1_555
O4 C7 1_555 1_555
O5 La1 1_555 1_555
O6 C13 1_555 1_555
O7 C14 1_555 1_555
O8 La1 1_555 1_555
O9 La1 1_555 1_555
O10 La1 1_555 1_555
O11 C21 1_555 1_555
O12 La2 1_555 1_555
O13 La2 1_555 1_555
O14 C28 1_555 1_555
O15 La2 1_555 1_555
O16 C27 1_555 1_555
O17 C34 1_555 1_555
O18 La3 1_555 1_555
O19 La3 1_555 1_555
O20 C35 1_555 1_555
O21 C41 1_555 1_555
O22 C41 1_555 1_555
O23 La3 1_555 1_555
O24 La3 1_555 1_555
N1 La1 1_555 1_555
N2 La1 1_555 1_555
N3 La2 1_555 1_555
N4 La2 1_555 1_555
N5 La3 1_555 1_555
N6 C36 1_555 1_555
C1 N1 1_555 1_555
C2 C1 1_555 1_555
H1 C2 1_555 1_555
C3 C2 1_555 1_555
H2 C3 1_555 1_555
C4 C3 1_555 1_555
H3 C4 1_555 1_555
C5 N1 1_555 1_555
C6 C1 1_555 1_555
C7 O3 1_555 1_555
C8 N2 1_555 1_555
C9 C8 1_555 1_555
H4 C9 1_555 1_555
C10 C9 1_555 1_555
H5 C10 1_555 1_555
C11 C10 1_555 1_555
H6 C11 1_555 1_555
C12 N2 1_555 1_555
C13 O5 1_555 1_555
C14 O8 1_555 1_555
C15 N3 1_555 1_555
C16 C15 1_555 1_555
H7 C16 1_555 1_555
C17 C16 1_555 1_555
H8 C17 1_555 1_555
C18 C17 1_555 1_555
H9 C18 1_555 1_555
C19 N3 1_555 1_555
C20 O9 1_555 1_555
C21 O12 1_555 1_555
C22 N4 1_555 1_555
C23 C22 1_555 1_555
H10 C23 1_555 1_555
C24 C23 1_555 1_555
H11 C24 1_555 1_555
C25 C24 1_555 1_555
H12 C25 1_555 1_555
C26 N4 1_555 1_555
C27 O15 1_555 1_555
C28 O13 1_555 1_555
C29 N5 1_555 1_555
C30 C29 1_555 1_555
H13 C30 1_555 1_555
C31 C30 1_555 1_555
H14 C31 1_555 1_555
C32 C31 1_555 1_555
H15 C32 1_555 1_555
C33 N5 1_555 1_555
C34 O18 1_555 1_555
C35 O19 1_555 1_555
C36 C37 1_555 1_555
C37 H16 1_555 1_555
C38 C37 1_555 1_555
H17 C38 1_555 1_555
C39 C38 1_555 1_555
H18 C39 1_555 1_555
C40 N6 1_555 1_555
C41 C36 1_555 1_555
C42 O23 1_555 1_555
O25 La4 1_555 1_555
O26 La3 1_555 1_555
O27 La2 1_555 1_555
O28 La1 1_555 1_555
O29 La1 1_555 1_555
O30 La2 1_555 1_555
O31 La4 1_555 1_555
O32 La3 1_555 1_555
O33 H19 1_555 1_555
O34 H21 1_555 1_555
O35 H23 1_555 1_555
H20 O33 1_555 1_555
H22 O34 1_555 1_555
H24 O35 1_555 1_555
H25 O29 1_555 1_555
H26 O29 1_555 1_555
H27 O31 1_555 1_555
H28 O31 1_555 1_555
La3_2 O13 1_555 1_555
La4_2 O3 1_555 1_555
La4_3 O17 1_555 1_555
O3_2 La4 1_555 1_555
O4_2 La4 1_555 1_555
O13_2 La3 1_555 1_555
O14_2 La3 1_555 1_555
O17_2 La4 1_555 1_555
O18_2 La4 1_555 1_555
O21_2 La4 1_555 1_555
O24_2 La4 1_555 1_555
N6_2 La4 1_555 1_555
La2 O10 1_555 1_555
O4 La4_2 1_555 1_555
O10 C20 1_555 1_555
O14 La3_2 1_555 1_555
O18 La4_3 1_555 1_555
O21 La4_3 1_555 1_555
O24 C42 1_555 1_555
O24 La4_3 1_555 1_555
N6 La4_3 1_555 1_555
C4 C5 1_555 1_555
C5 C7 1_555 1_555
C8 C13 1_555 1_555
C11 C12 1_555 1_555
C12 C14 1_555 1_555
C15 C20 1_555 1_555
C18 C19 1_555 1_555
C19 C21 1_555 1_555
C22 C27 1_555 1_555
C25 C26 1_555 1_555
C26 C28 1_555 1_555
C29 C34 1_555 1_555
C32 C33 1_555 1_555
C33 C35 1_555 1_555
C39 C40 1_555 1_555
C40 C42 1_555 1_555

#END
