
#######################################################################
#
#                 Cambridge Crystallographic Data Centre
#                                CCDC 
#
#######################################################################
#
# If this CIF has been generated from an entry in the Cambridge 
# Structural Database, then it will include bibliographic, chemical, 
# crystal, experimental, refinement or atomic coordinate data resulting 
# from the CCDC's data processing and validation procedures.
#
#######################################################################

data_ENULUV
_symmetry_cell_setting           triclinic
_symmetry_space_group_name_H-M   'P -1'
_symmetry_Int_Tables_number      2
_space_group_name_Hall           '-P 1'
loop_
_symmetry_equiv_pos_site_id
_symmetry_equiv_pos_as_xyz
1 x,y,z
2 -x,-y,-z
_cell_length_a                   11.155(2)
_cell_length_b                   11.621(2)
_cell_length_c                   12.690(3)
_cell_angle_alpha                102.76(3)
_cell_angle_beta                 107.11(3)
_cell_angle_gamma                113.51(3)
_cell_volume                     1330.03
loop_
_atom_site_label
_atom_site_type_symbol
_atom_site_fract_x
_atom_site_fract_y
_atom_site_fract_z
La1 La 1.17981(4) 0.13041(3) 1.17890(3)
La2 La 1.17145(4) 0.44006(3) 1.51968(3)
N1 N 1.3638(6) 0.1505(5) 1.0730(5)
N2 N 1.1694(6) 0.4430(6) 1.7312(5)
N3 N 1.2000(6) 0.0128(5) 1.3324(5)
C1 C 1.5041(6) 0.1993(6) 1.1371(6)
C2 C 1.5991(8) 0.2071(8) 1.0843(7)
H1 H 1.6964 0.2404 1.1311
C3 C 1.5463(8) 0.1646(9) 0.9611(7)
H2 H 1.6075 0.1702 0.9236
C4 C 1.4028(8) 0.1145(8) 0.8964(7)
H3 H 1.3649 0.0846 0.8136
C5 C 1.3123(7) 0.1074(6) 0.9527(6)
C6 C 1.5513(7) 0.2453(6) 1.2692(6)
C7 C 1.1521(7) 0.0486(7) 0.8876(6)
C8 C 1.0754(7) 0.4628(7) 1.7673(6)
C9 C 1.0772(9) 0.4682(9) 1.8782(7)
H4 H 1.0136 0.4870 1.9021
C10 C 1.1750(10) 0.4450(10) 1.9514(8)
H5 H 1.1766 0.4455 2.0252
C11 C 1.2728(9) 0.4205(10) 1.9152(7)
H6 H 1.3387 0.4024 1.9627
C12 C 1.2670(8) 0.4243(7) 1.8057(6)
C13 C 0.9724(7) 0.4825(7) 1.6793(6)
C14 C 1.3743(8) 0.4128(8) 1.7590(7)
C15 C 1.2000(8) 0.0636(7) 1.4386(6)
C16 C 1.2249(10) 0.0138(9) 1.5262(8)
H7 H 1.2181 0.0477 1.5965
C17 C 1.2606(12) -0.0885(10) 1.5078(9)
H8 H 1.2844 -0.1204 1.5674
C18 C 1.2598(11) -0.1415(9) 1.3986(8)
H9 H 1.2820 -0.2107 1.3835
C19 C 1.2255(7) -0.0907(7) 1.3111(7)
C20 C 1.1703(7) 0.1811(7) 1.4523(6)
C21 C 1.2131(7) -0.1469(7) 1.1859(6)
O1 O 1.6844(5) 0.3062(5) 1.3358(4)
O2 O 1.4535(5) 0.2208(5) 1.3054(4)
O3 O 1.0917(5) -0.0144(6) 0.7789(4)
O4 O 1.0867(5) 0.0630(5) 0.9526(4)
O5 O 0.9646(5) 0.4485(5) 1.5740(4)
O6 O 0.9009(6) 0.5327(5) 1.7071(5)
O7 O 1.4427(7) 0.3622(8) 1.8056(6)
O8 O 1.3861(5) 0.4601(5) 1.6795(5)
O9 O 1.1274(6) 0.2083(5) 1.5293(4)
O10 O 1.1950(5) 0.2474(5) 1.3866(4)
O11 O 1.1868(5) -0.0867(5) 1.1197(4)
O12 O 1.2259(7) -0.2496(5) 1.1582(5)
O13 O 1.3846(6) 0.5676(6) 1.4782(5)
O14 O 1.3220(5) 0.3785(5) 1.2239(5)
O15 O 1.0150(6) 0.2305(5) 1.1137(5)
O16 O 0.9180(5) 0.2514(5) 1.3537(5)
H10 H 0.8912 0.1590 1.3238
H11 H 0.9271 0.1869 1.0431
H12 H 1.2908 0.4421 1.2156
H13 H 1.4301 0.6536 1.5405
H14 H 1.4232 0.4368 1.2599
H15 H 1.0237 0.3182 1.1405
H16 H 0.8269 0.2455 1.3347
H17 H 1.3696 0.5919 1.4111
La1A La 0.82019(4) -0.13041(3) 0.82110(3)
La2A La 1.82855(4) 0.55994(3) 1.48032(3)
La2A_2 La 0.82855(4) 0.55994(3) 1.48032(3)
O1A O 1.3156(5) 0.6938(5) 1.6642(4)
O4A O 0.9133(5) -0.0630(5) 1.0474(4)
O5A O 1.0354(5) 0.5515(5) 1.4260(4)
O6A O 1.0991(6) 0.4673(5) 1.2929(5)
O17 O 0.6317(9) 0.3578(8) 0.7197(7)
H18 H 0.5667 0.3525 0.7518
H19 H 0.6427 0.2941 0.7386
loop_
_geom_bond_atom_site_label_1
_geom_bond_atom_site_label_2
_geom_bond_site_symmetry_1
_geom_bond_site_symmetry_2
La1 N1 1_555 1_555
La2 N2 1_555 1_555
N1 C1 1_555 1_555
N2 C8 1_555 1_555
N3 La1 1_555 1_555
C1 C2 1_555 1_555
C2 H1 1_555 1_555
C3 C2 1_555 1_555
H2 C3 1_555 1_555
C4 C3 1_555 1_555
H3 C4 1_555 1_555
C5 N1 1_555 1_555
C6 C1 1_555 1_555
C7 C5 1_555 1_555
C8 C9 1_555 1_555
C9 H4 1_555 1_555
C10 C9 1_555 1_555
H5 C10 1_555 1_555
C11 C10 1_555 1_555
H6 C11 1_555 1_555
C12 N2 1_555 1_555
C13 C8 1_555 1_555
C14 C12 1_555 1_555
C15 N3 1_555 1_555
C16 C15 1_555 1_555
H7 C16 1_555 1_555
C17 C16 1_555 1_555
H8 C17 1_555 1_555
C18 C17 1_555 1_555
H9 C18 1_555 1_555
C19 N3 1_555 1_555
C20 C15 1_555 1_555
C21 C19 1_555 1_555
O1 C6 1_555 1_555
O2 La1 1_555 1_555
O3 C7 1_555 1_555
O4 La1 1_555 1_555
O5 La2 1_555 1_555
O6 C13 1_555 1_555
O7 C14 1_555 1_555
O8 La2 1_555 1_555
O9 La2 1_555 1_555
O10 La1 1_555 1_555
O11 La1 1_555 1_555
O12 C21 1_555 1_555
O13 La2 1_555 1_555
O14 La1 1_555 1_555
O15 La1 1_555 1_555
O16 La2 1_555 1_555
O17 H18 1_555 1_555
H10 O16 1_555 1_555
H11 O15 1_555 1_555
H12 O14 1_555 1_555
H13 O13 1_555 1_555
H14 O14 1_555 1_555
H15 O15 1_555 1_555
H16 O16 1_555 1_555
H17 O13 1_555 1_555
H19 O17 1_555 1_555
La1A O4 1_555 1_555
La2A O1 1_555 1_555
La2A_2 O5 1_555 1_555
O1A La2 1_555 1_555
O4A La1 1_555 1_555
O5A La2 1_555 1_555
O6A La2 1_555 1_555
La2 O10 1_555 1_555
C4 C5 1_555 1_555
C6 O2 1_555 1_555
C7 O4 1_555 1_555
C11 C12 1_555 1_555
C13 O5 1_555 1_555
C14 O8 1_555 1_555
C18 C19 1_555 1_555
C20 O9 1_555 1_555
C20 O10 1_555 1_555
C21 O11 1_555 1_555
O6 La2A_2 1_555 1_555
La1A O4A 1_555 1_555
La2A_2 O5A 1_555 1_555

#END
