
#######################################################################
#
#                 Cambridge Crystallographic Data Centre
#                                CCDC 
#
#######################################################################
#
# If this CIF has been generated from an entry in the Cambridge 
# Structural Database, then it will include bibliographic, chemical, 
# crystal, experimental, refinement or atomic coordinate data resulting 
# from the CCDC's data processing and validation procedures.
#
#######################################################################

data_ENUMAC01
_symmetry_cell_setting           orthorhombic
_symmetry_space_group_name_H-M   'P n a 21'
_symmetry_Int_Tables_number      33
_space_group_name_Hall           'P 2c -2n'
loop_
_symmetry_equiv_pos_site_id
_symmetry_equiv_pos_as_xyz
1 x,y,z
2 -x,-y,1/2+z
3 1/2+x,1/2-y,z
4 1/2-x,1/2+y,1/2+z
_cell_length_a                   18.8558(15)
_cell_length_b                   6.5831(5)
_cell_length_c                   18.7543(15)
_cell_angle_alpha                90
_cell_angle_beta                 90
_cell_angle_gamma                90
_cell_volume                     2327.96
loop_
_atom_site_label
_atom_site_type_symbol
_atom_site_fract_x
_atom_site_fract_y
_atom_site_fract_z
La1 La 0.477755(13) 0.86338(4) 0.500015(16)
La2 La 0.244194(12) 0.86250(3) 0.540205(13)
S1 S 0.24074(6) 0.36424(15) 0.53937(9)
O1 O 0.37250(18) 0.7863(6) 0.59088(18)
O2 O 0.4391(2) 0.6813(7) 0.6830(2)
O3 O 0.14481(19) 0.9580(6) 0.6179(2)
O4 O 0.0886(2) 0.9915(7) 0.7222(2)
O5 O 0.62538(18) 0.7313(6) 0.48207(17)
O6 O 0.54802(19) 0.7281(6) 0.39377(19)
O7 O 0.84921(17) 0.5559(6) 0.46362(19)
O8 O 0.91335(18) 0.5264(6) 0.3655(2)
O9 O 0.27936(18) 0.5002(5) 0.48982(19)
O10 O 0.20392(17) 0.5000(5) 0.59006(19)
O11 O 0.29006(17) 0.2249(5) 0.57706(19)
O12 O 0.19116(16) 0.2311(5) 0.5004(2)
O13 O 0.5541(2) 0.9758(6) 0.6009(2)
H1 H 0.534(2) 1.059(7) 0.629(3)
H2 H 0.5976(10) 1.005(8) 0.596(3)
O14 O 0.5550(2) 1.1461(6) 0.4512(2)
H3 H 0.546(3) 1.222(8) 0.415(2)
H4 H 0.5960(16) 1.176(9) 0.468(3)
O15 O 0.43468(19) 1.1912(6) 0.5494(3)
H5 H 0.3924(12) 1.228(8) 0.560(3)
H6 H 0.462(2) 1.293(6) 0.555(4)
O16 O 0.50953(18) 0.5468(6) 0.57110(19)
H7 H 0.5519(10) 0.519(9) 0.583(2)
H8 H 0.486(2) 0.577(9) 0.6081(16)
O17 O 0.4163(2) 0.5633(6) 0.4419(2)
H9 H 0.441(3) 0.488(8) 0.414(3)
H10 H 0.381(3) 0.499(11) 0.459(3)
N1 N 0.2643(2) 0.8625(6) 0.6804(2)
N2 N 0.7315(2) 0.6273(6) 0.3969(2)
C1 C 0.3850(3) 0.7571(8) 0.6577(3)
C2 C 0.3279(3) 0.8205(8) 0.7092(3)
C3 C 0.3395(3) 0.8260(8) 0.7824(3)
H15 H 0.3844 0.8007 0.8009
C4 C 0.2831(3) 0.8696(8) 0.8274(3)
H16 H 0.2895 0.8743 0.8765
C5 C 0.2169(3) 0.9062(8) 0.7977(3)
H17 H 0.1777 0.9313 0.8265
C6 C 0.2106(3) 0.9045(8) 0.7238(3)
C7 C 0.1423(3) 0.9556(8) 0.6857(3)
C8 C 0.6099(3) 0.7101(8) 0.4167(3)
C9 C 0.6688(3) 0.6650(7) 0.3653(3)
C10 C 0.6604(3) 0.6673(8) 0.2920(3)
H18 H 0.6161 0.6912 0.2718
C11 C 0.7190(3) 0.6335(8) 0.2492(3)
H19 H 0.7148 0.6363 0.1998
C12 C 0.7840(3) 0.5954(8) 0.2808(3)
H20 H 0.8242 0.5735 0.2531
C13 C 0.7882(3) 0.5904(7) 0.3549(3)
C14 C 0.8555(3) 0.5535(8) 0.3957(3)
La1B La 0.977755(13) 0.63662(4) 0.500015(16)
La2B La 0.744194(12) 0.63750(3) 0.540205(13)
La2_2 La 0.244194(12) -0.13750(3) 0.540205(13)
O5B O 0.12538(18) 0.7687(6) 0.48207(17)
O7B O 0.34921(17) 0.9441(6) 0.46362(19)
O8B O 0.41335(18) 0.9736(6) 0.3655(2)
O11_2 O 0.29006(17) 1.2249(5) 0.57706(19)
O12_2 O 0.19116(16) 1.2311(5) 0.5004(2)
N2B N 0.2315(2) 0.8727(6) 0.3969(2)
O18 O 0.5110(3) 1.1523(8) 0.7265(3)
H11 H 0.519(5) 1.109(11) 0.768(2)
H12 H 0.528(4) 1.271(6) 0.722(4)
O19 O 0.4915(3) 1.3472(7) 0.3385(3)
H13 H 0.464(4) 1.246(8) 0.332(3)
H14 H 0.504(4) 1.354(10) 0.3818(14)
loop_
_geom_bond_atom_site_label_1
_geom_bond_atom_site_label_2
_geom_bond_site_symmetry_1
_geom_bond_site_symmetry_2
La1 O1 1_555 1_555
La2 O1 1_555 1_555
S1 O9 1_555 1_555
O1 C1 1_555 1_555
O2 C1 1_555 1_555
O3 La2 1_555 1_555
O4 C7 1_555 1_555
O5 La1 1_555 1_555
O6 La1 1_555 1_555
O7 C14 1_555 1_555
O8 C14 1_555 1_555
O9 La2 1_555 1_555
O10 La2 1_555 1_555
O11 S1 1_555 1_555
O12 S1 1_555 1_555
O13 La1 1_555 1_555
H1 O13 1_555 1_555
H2 O13 1_555 1_555
O14 La1 1_555 1_555
H3 O14 1_555 1_555
H4 O14 1_555 1_555
O15 La1 1_555 1_555
H5 O15 1_555 1_555
H6 O15 1_555 1_555
O16 La1 1_555 1_555
H7 O16 1_555 1_555
H8 O16 1_555 1_555
O17 La1 1_555 1_555
H9 O17 1_555 1_555
H10 O17 1_555 1_555
O18 H11 1_555 1_555
H12 O18 1_555 1_555
O19 H13 1_555 1_555
H14 O19 1_555 1_555
N1 La2 1_555 1_555
N2 C9 1_555 1_555
C1 C2 1_555 1_555
C2 N1 1_555 1_555
C3 C2 1_555 1_555
H15 C3 1_555 1_555
C4 C3 1_555 1_555
H16 C4 1_555 1_555
C5 C4 1_555 1_555
H17 C5 1_555 1_555
C6 N1 1_555 1_555
C7 O3 1_555 1_555
C8 O5 1_555 1_555
C9 C8 1_555 1_555
C10 C9 1_555 1_555
H18 C10 1_555 1_555
C11 C10 1_555 1_555
H19 C11 1_555 1_555
C12 C11 1_555 1_555
H20 C12 1_555 1_555
C13 N2 1_555 1_555
C14 C13 1_555 1_555
La1B O7 1_555 1_555
La2B O5 1_555 1_555
La2_2 O11 1_555 1_555
O5B La2 1_555 1_555
O7B La1 1_555 1_555
O8B La1 1_555 1_555
O11_2 La2 1_555 1_555
O12_2 La2 1_555 1_555
N2B La2 1_555 1_555
La2 O7B 1_555 1_555
S1 O10 1_555 1_555
O6 C8 1_555 1_555
O7 La2B 1_555 1_555
O8 La1B 1_555 1_555
O12 La2_2 1_555 1_555
N2 La2B 1_555 1_555
C5 C6 1_555 1_555
C6 C7 1_555 1_555
C12 C13 1_555 1_555

#END
