
#######################################################################
#
#                 Cambridge Crystallographic Data Centre
#                                CCDC 
#
#######################################################################
#
# If this CIF has been generated from an entry in the Cambridge 
# Structural Database, then it will include bibliographic, chemical, 
# crystal, experimental, refinement or atomic coordinate data resulting 
# from the CCDC's data processing and validation procedures.
#
#######################################################################

data_ENUQIO
_symmetry_cell_setting           monoclinic
_symmetry_space_group_name_H-M   'C 2/c'
_symmetry_Int_Tables_number      15
_space_group_name_Hall           '-C 2yn'
loop_
_symmetry_equiv_pos_site_id
_symmetry_equiv_pos_as_xyz
1 x,y,z
2 -x,y,1/2-z
3 1/2+x,1/2+y,z
4 1/2-x,1/2+y,1/2-z
5 -x,-y,-z
6 x,-y,1/2+z
7 1/2-x,1/2-y,-z
8 1/2+x,1/2-y,1/2+z
_cell_length_a                   13.158(3)
_cell_length_b                   18.057(4)
_cell_length_c                   19.163(4)
_cell_angle_alpha                90
_cell_angle_beta                 106.764(3)
_cell_angle_gamma                90
_cell_volume                     4359.51
loop_
_atom_site_label
_atom_site_type_symbol
_atom_site_fract_x
_atom_site_fract_y
_atom_site_fract_z
Zn1 Zn 0.5000 0.03157(7) 0.7500
Zn2 Zn 0.23864(7) 0.00706(6) 0.66986(5)
C1 C 0.5731(5) 0.0619(4) 0.6360(3)
C2 C 0.6193(5) 0.1043(3) 0.5852(3)
C3 C 0.5649(6) 0.0987(4) 0.5131(3)
H1 H 0.5101 0.0645 0.4986
C4 C 0.5893(6) 0.1429(4) 0.4610(3)
H2 H 0.5508 0.1373 0.4122
C5 C 0.6687(5) 0.1944(3) 0.4796(3)
C6 C 0.7285(5) 0.2017(3) 0.5550(3)
C7 C 0.7061(5) 0.1542(3) 0.6087(3)
C8 C 0.6914(5) 0.2431(3) 0.4240(3)
C9 C 0.6370(6) 0.2365(4) 0.3514(3)
H3 H 0.5866 0.1992 0.3366
C10 C 0.7716(5) 0.1595(4) 0.6826(3)
C11 C 0.8445(6) 0.2155(4) 0.7006(3)
H4 H 0.8831 0.2218 0.7492
C12 C 0.7714(5) 0.1040(5) 0.7405(4)
C13 C 0.1038(6) -0.1346(5) 0.6670(3)
H5 H 0.1248 -0.1348 0.7177
C14 C 0.0388(7) -0.1907(4) 0.6289(5)
H6 H 0.0164 -0.2285 0.6540
C15 C 0.0073(6) -0.1905(4) 0.5531(5)
H7 H -0.0362 -0.2280 0.5276
C16 C 0.0408(6) -0.1341(5) 0.5155(3)
C17 C 0.1058(5) -0.0780(4) 0.5537(3)
N1 N 0.1373(5) -0.0783(3) 0.6294(3)
C18 C 0.0105(10) -0.1289(8) 0.4353(7)
H8 H -0.0361 -0.1633 0.4069
C19 C 0.0507(11) -0.0739(9) 0.4032(8)
H9 H 0.0307 -0.0716 0.3526
C20 C 0.1196(6) -0.0212(5) 0.4420(4)
C21 C 0.1628(7) 0.0349(6) 0.4098(3)
H10 H 0.1470 0.0374 0.3593
C22 C 0.2295(7) 0.0872(5) 0.4530(5)
H11 H 0.2584 0.1248 0.4314
C23 C 0.2531(6) 0.0835(4) 0.5284(5)
H12 H 0.2978 0.1185 0.5574
N2 N 0.2100(6) 0.0274(4) 0.5607(3)
C24 C 0.1432(6) -0.0250(4) 0.5174(4)
O1 O 0.3819(4) -0.0294(3) 0.6944(3)
H13 H 0.3993 -0.0432 0.6570
O2 O 0.5570(4) 0.0977(3) 0.6884(2)
O3 O 0.5475(5) -0.0042(3) 0.6226(3)
O5 O 0.7766(4) 0.0363(3) 0.7272(3)
O6 O 0.7718(5) 0.1252(3) 0.8025(3)
Zn1F Zn 1.0000 0.46843(7) 0.2500
Zn2A Zn 0.76136(7) 0.00706(6) 0.83014(5)
Zn2G Zn 0.73864(7) 0.49294(6) 0.16986(5)
C1F C 0.9269(5) 0.4381(4) 0.3640(3)
C2F C 0.8807(5) 0.3957(3) 0.4148(3)
C3F C 0.9351(6) 0.4013(4) 0.4869(3)
H1F H 0.9899 0.4355 0.5014
C4F C 0.9107(6) 0.3571(4) 0.5390(3)
H2F H 0.9492 0.3627 0.5878
C5F C 0.8313(5) 0.3056(3) 0.5204(3)
C6F C 0.7715(5) 0.2983(3) 0.4450(3)
C7F C 0.7939(5) 0.3458(3) 0.3913(3)
C8F C 0.8086(5) 0.2569(3) 0.5760(3)
C9F C 0.8630(6) 0.2635(4) 0.6486(3)
H3F H 0.9134 0.3008 0.6634
C10F C 0.7284(5) 0.3405(4) 0.3174(3)
C11F C 0.6555(6) 0.2845(4) 0.2994(3)
H4F H 0.6169 0.2782 0.2508
C12F C 0.7286(5) 0.3960(5) 0.2595(4)
C13A C 0.8962(6) -0.1346(5) 0.8330(3)
H5A H 0.8752 -0.1348 0.7823
C14A C 0.9612(7) -0.1907(4) 0.8711(5)
H6A H 0.9836 -0.2285 0.8460
C15A C 0.9927(6) -0.1905(4) 0.9469(5)
H7A H 1.0362 -0.2280 0.9724
C16A C 0.9592(6) -0.1341(5) 0.9845(3)
C17A C 0.8942(5) -0.0780(4) 0.9463(3)
N1A N 0.8627(5) -0.0783(3) 0.8706(3)
C18A C 0.9895(10) -0.1289(8) 1.0647(7)
H8A H 1.0361 -0.1633 1.0931
C19A C 0.9493(11) -0.0739(9) 1.0968(8)
H9A H 0.9693 -0.0716 1.1474
C20A C 0.8804(6) -0.0212(5) 1.0580(4)
C21A C 0.8372(7) 0.0349(6) 1.0902(3)
H10A H 0.8530 0.0374 1.1407
C22A C 0.7705(7) 0.0872(5) 1.0470(5)
H11A H 0.7416 0.1248 1.0686
C23A C 0.7469(6) 0.0835(4) 0.9716(5)
H12A H 0.7022 0.1185 0.9426
N2A N 0.7900(6) 0.0274(4) 0.9393(3)
C24A C 0.8568(6) -0.0250(4) 0.9826(4)
O1A O 0.6181(4) -0.0294(3) 0.8056(3)
H13A H 0.6007 -0.0432 0.8430
O2F O 0.9430(4) 0.4023(3) 0.3116(2)
O2A O 0.4430(4) 0.0977(3) 0.8116(2)
O3F O 0.9525(5) 0.5042(3) 0.3774(3)
O5F O 0.7234(4) 0.4637(3) 0.2728(3)
O5A O 0.2234(4) 0.0363(3) 0.7728(3)
O6F O 0.7282(5) 0.3748(3) 0.1975(3)
O6A O 0.2282(5) 0.1252(3) 0.6975(3)
O4 O 0.6370(7) -0.1303(4) 0.6948(4)
H14 H 0.7014 -0.1177 0.7134
H15 H 0.6207 -0.0922 0.6679
O7 O 0.2438(15) 0.2347(10) 0.3544(9)
H16 H 0.2553 0.2804 0.3487
H17 H 0.2898 0.2087 0.3423
loop_
_geom_bond_atom_site_label_1
_geom_bond_atom_site_label_2
_geom_bond_site_symmetry_1
_geom_bond_site_symmetry_2
Zn1 O1 1_555 1_555
Zn2 N1 1_555 1_555
C1 C2 1_555 1_555
C2 C3 1_555 1_555
C3 H1 1_555 1_555
C4 C3 1_555 1_555
H2 C4 1_555 1_555
C5 C4 1_555 1_555
C6 C5 1_555 1_555
C7 C2 1_555 1_555
C8 C5 1_555 1_555
C9 C8 1_555 1_555
H3 C9 1_555 1_555
C10 C7 1_555 1_555
C11 C10 1_555 1_555
H4 C11 1_555 1_555
C12 C10 1_555 1_555
C13 H5 1_555 1_555
C14 C13 1_555 1_555
H6 C14 1_555 1_555
C15 C14 1_555 1_555
H7 C15 1_555 1_555
C16 C15 1_555 1_555
C17 C16 1_555 1_555
N1 C13 1_555 1_555
C18 C16 1_555 1_555
H8 C18 1_555 1_555
C19 C18 1_555 1_555
H9 C19 1_555 1_555
C20 C19 1_555 1_555
C21 C20 1_555 1_555
H10 C21 1_555 1_555
C22 C21 1_555 1_555
H11 C22 1_555 1_555
C23 C22 1_555 1_555
H12 C23 1_555 1_555
N2 Zn2 1_555 1_555
C24 C17 1_555 1_555
O1 Zn2 1_555 1_555
H13 O1 1_555 1_555
O2 Zn1 1_555 1_555
O3 C1 1_555 1_555
O4 H14 1_555 1_555
H15 O4 1_555 1_555
O5 C12 1_555 1_555
O6 C12 1_555 1_555
O7 H16 1_555 1_555
H17 O7 1_555 1_555
Zn1F O2F 1_555 1_555
Zn2A O5 1_555 1_555
Zn2G O5F 1_555 1_555
C1F C2F 1_555 1_555
C2F C3F 1_555 1_555
C3F H1F 1_555 1_555
C4F C3F 1_555 1_555
H2F C4F 1_555 1_555
C5F C4F 1_555 1_555
C6F C8 1_555 1_555
C7F C2F 1_555 1_555
C8F C6 1_555 1_555
C9F C11 1_555 1_555
H3F C9F 1_555 1_555
C10F C7F 1_555 1_555
C11F C9 1_555 1_555
H4F C11F 1_555 1_555
C12F C10F 1_555 1_555
C13A H5A 1_555 1_555
C14A C13A 1_555 1_555
H6A C14A 1_555 1_555
C15A C14A 1_555 1_555
H7A C15A 1_555 1_555
C16A C15A 1_555 1_555
C17A C16A 1_555 1_555
N1A Zn2A 1_555 1_555
C18A C16A 1_555 1_555
H8A C18A 1_555 1_555
C19A C18A 1_555 1_555
H9A C19A 1_555 1_555
C20A C19A 1_555 1_555
C21A C20A 1_555 1_555
H10A C21A 1_555 1_555
C22A C21A 1_555 1_555
H11A C22A 1_555 1_555
C23A C22A 1_555 1_555
H12A C23A 1_555 1_555
N2A Zn2A 1_555 1_555
C24A C17A 1_555 1_555
O1A Zn1 1_555 1_555
H13A O1A 1_555 1_555
O2F C1F 1_555 1_555
O2A Zn1 1_555 1_555
O3F C1F 1_555 1_555
O5F C12F 1_555 1_555
O5A Zn2 1_555 1_555
O6F Zn2G 1_555 1_555
O6A Zn2 1_555 1_555
C1 O2 1_555 1_555
C6 C7 1_555 1_555
C17 N1 1_555 1_555
C20 C24 1_555 1_555
C23 N2 1_555 1_555
N2 C24 1_555 1_555
O6 Zn2A 1_555 1_555
Zn2A O1A 1_555 1_555
C5F C6F 1_555 1_555
C5F C8F 1_555 1_555
C6F C7F 1_555 1_555
C8F C9F 1_555 1_555
C10F C11F 1_555 1_555
C12F O6F 1_555 1_555
C13A N1A 1_555 1_555
C17A N1A 1_555 1_555
C20A C24A 1_555 1_555
C23A N2A 1_555 1_555
N2A C24A 1_555 1_555

#END
