
#######################################################################
#
#                 Cambridge Crystallographic Data Centre
#                                CCDC 
#
#######################################################################
#
# If this CIF has been generated from an entry in the Cambridge 
# Structural Database, then it will include bibliographic, chemical, 
# crystal, experimental, refinement or atomic coordinate data resulting 
# from the CCDC's data processing and validation procedures.
#
#######################################################################

data_ENUQOU
_symmetry_cell_setting           monoclinic
_symmetry_space_group_name_H-M   'P 21/n'
_symmetry_Int_Tables_number      14
_space_group_name_Hall           '-P 2yn'
loop_
_symmetry_equiv_pos_site_id
_symmetry_equiv_pos_as_xyz
1 x,y,z
2 1/2-x,1/2+y,1/2-z
3 -x,-y,-z
4 1/2+x,1/2-y,1/2+z
_cell_length_a                   10.304(4)
_cell_length_b                   10.325(4)
_cell_length_c                   20.890(8)
_cell_angle_alpha                90
_cell_angle_beta                 94.700(5)
_cell_angle_gamma                90
_cell_volume                     2214.99
loop_
_atom_site_label
_atom_site_type_symbol
_atom_site_fract_x
_atom_site_fract_y
_atom_site_fract_z
Mn1 Mn 0.73840(7) 0.10553(7) 0.83065(3)
C1 C 0.9071(5) -0.0538(5) 0.7409(2)
C2 C 0.9578(4) -0.0625(5) 0.6750(2)
C3 C 1.0892(5) -0.0737(5) 0.6732(2)
H1 H 1.1403 -0.0917 0.7109
C4 C 1.1491(5) -0.0587(5) 0.6160(2)
H2 H 1.2389 -0.0683 0.6161
C5 C 1.0764(4) -0.0296(4) 0.5590(2)
C6 C 0.9381(4) -0.0202(4) 0.5595(2)
C7 C 1.1388(4) -0.0102(4) 0.4989(2)
C8 C 1.2719(5) -0.0187(5) 0.4969(2)
H3 H 1.3228 -0.0437 0.5336
C9 C 1.3322(4) 0.0092(5) 0.4411(2)
H4 H 1.4225 0.0047 0.4421
C10 C 1.2628(4) 0.0429(4) 0.3851(2)
C11 C 0.8774(4) -0.0422(4) 0.61685(19)
C12 C 1.3372(5) 0.1011(5) 0.3331(2)
C13 C 0.5305(5) 0.1459(5) 0.9398(2)
H5 H 0.4670 0.1322 0.9062
C14 C 0.4911(5) 0.1710(5) 1.0011(3)
H6 H 0.4030 0.1707 1.0079
C15 C 0.5808(5) 0.1955(5) 1.0503(2)
H7 H 0.5551 0.2137 1.0910
C16 C 0.7130(5) 0.1933(5) 1.0396(2)
C17 C 0.8142(6) 0.2198(6) 1.0889(2)
H8 H 0.7924 0.2392 1.1301
C18 C 0.9415(6) 0.2172(5) 1.0766(2)
H9 H 1.0055 0.2378 1.1090
C19 C 0.9777(5) 0.1830(5) 1.0139(2)
C20 C 1.1080(5) 0.1711(5) 0.9996(3)
H10 H 1.1753 0.1858 1.0312
C21 C 1.1350(5) 0.1378(6) 0.9390(3)
H11 H 1.2207 0.1328 0.9284
C22 C 1.0334(5) 0.1116(5) 0.8934(2)
H12 H 1.0534 0.0867 0.8526
C23 C 0.8816(5) 0.1557(5) 0.9650(2)
C24 C 0.7462(5) 0.1634(5) 0.9775(2)
N1 N 0.6553(4) 0.1410(4) 0.92763(18)
N2 N 0.9090(4) 0.1201(4) 0.90496(18)
O1 O 0.5541(3) 0.1247(3) 0.77236(15)
H13 H 0.4845 0.1407 0.7901
H14 H 0.5518 0.1163 0.7318
O2 O 0.8423(3) 0.0473(3) 0.75091(14)
O3 O 0.7129(4) -0.1078(3) 0.84810(17)
H15 H 0.6816 -0.1338 0.8822
H16 H 0.7343 -0.1624 0.8204
O4 O 0.9379(3) -0.1404(3) 0.78197(14)
O5 O 1.2884(3) 0.2010(3) 0.30547(14)
O7 O 1.4456(3) 0.0546(3) 0.32249(15)
Mn1B Mn 1.26160(7) -0.10553(7) 0.16935(3)
Mn1C Mn 1.23840(7) 0.39447(7) 0.33065(3)
Mn1A Mn 0.76160(7) -0.39447(7) 0.66935(3)
C1B C 1.0929(5) 0.0538(5) 0.2591(2)
C2B C 1.0422(4) 0.0625(5) 0.3250(2)
C3B C 0.9108(5) 0.0737(5) 0.3268(2)
H1B H 0.8597 0.0917 0.2891
C4B C 0.8509(5) 0.0587(5) 0.3840(2)
H2B H 0.7611 0.0683 0.3839
C5B C 0.9236(4) 0.0296(4) 0.4410(2)
C6B C 1.0619(4) 0.0202(4) 0.4405(2)
C7B C 0.8612(4) 0.0102(4) 0.5011(2)
C8B C 0.7281(5) 0.0187(5) 0.5031(2)
H3B H 0.6772 0.0437 0.4664
C9B C 0.6678(4) -0.0092(5) 0.5589(2)
H4B H 0.5775 -0.0047 0.5579
C10B C 0.7372(4) -0.0429(4) 0.6149(2)
C11B C 1.1226(4) 0.0422(4) 0.38315(19)
C12B C 0.6628(5) -0.1011(5) 0.6669(2)
C13B C 1.4695(5) -0.1459(5) 0.0602(2)
H5B H 1.5330 -0.1322 0.0938
C14B C 1.5089(5) -0.1710(5) -0.0011(3)
H6B H 1.5970 -0.1707 -0.0079
C15B C 1.4192(5) -0.1955(5) -0.0503(2)
H7B H 1.4449 -0.2137 -0.0910
C16B C 1.2870(5) -0.1933(5) -0.0396(2)
C17B C 1.1858(6) -0.2198(6) -0.0889(2)
H8B H 1.2076 -0.2392 -0.1301
C18B C 1.0585(6) -0.2172(5) -0.0766(2)
H9B H 0.9945 -0.2378 -0.1090
C19B C 1.0223(5) -0.1830(5) -0.0139(2)
C20B C 0.8920(5) -0.1711(5) 0.0004(3)
H10B H 0.8247 -0.1858 -0.0312
C21B C 0.8650(5) -0.1378(6) 0.0610(3)
H11B H 0.7793 -0.1328 0.0716
C22B C 0.9666(5) -0.1116(5) 0.1066(2)
H12B H 0.9466 -0.0867 0.1474
C23B C 1.1184(5) -0.1557(5) 0.0350(2)
C24B C 1.2538(5) -0.1634(5) 0.0225(2)
N1B N 1.3447(4) -0.1410(4) 0.07237(18)
N2B N 1.0910(4) -0.1201(4) 0.09504(18)
O1B O 1.4459(3) -0.1247(3) 0.22764(15)
H13B H 1.5155 -0.1407 0.2099
H14B H 1.4482 -0.1163 0.2682
O2B O 1.1577(3) -0.0473(3) 0.24909(14)
O3B O 1.2871(4) 0.1078(3) 0.15190(17)
H15B H 1.3184 0.1338 0.1178
H16B H 1.2657 0.1624 0.1796
O4B O 1.0621(3) 0.1404(3) 0.21803(14)
O5B O 0.7116(3) -0.2010(3) 0.69453(14)
O5C O 0.7884(3) 0.2990(3) 0.80547(14)
O5A O 1.2116(3) -0.2990(3) 0.19453(14)
O7B O 0.5544(3) -0.0546(3) 0.67751(15)
O6 O 0.4929(5) -0.2269(5) 0.7823(2)
H17 H 0.5032 -0.1839 0.7484
H18 H 0.4896 -0.3047 0.7689
O8 O 0.2753(10) 0.1014(13) 0.8001(5)
H19 H 0.3063 0.0272 0.8102
H20 H 0.2629 0.0995 0.7594
loop_
_geom_bond_atom_site_label_1
_geom_bond_atom_site_label_2
_geom_bond_site_symmetry_1
_geom_bond_site_symmetry_2
Mn1 N1 1_555 1_555
C1 C2 1_555 1_555
C2 C3 1_555 1_555
C3 H1 1_555 1_555
C4 C3 1_555 1_555
H2 C4 1_555 1_555
C5 C4 1_555 1_555
C6 C5 1_555 1_555
C7 C5 1_555 1_555
C8 C7 1_555 1_555
H3 C8 1_555 1_555
C9 C8 1_555 1_555
H4 C9 1_555 1_555
C10 C9 1_555 1_555
C11 C2 1_555 1_555
C12 C10 1_555 1_555
C13 H5 1_555 1_555
C14 C13 1_555 1_555
H6 C14 1_555 1_555
C15 C14 1_555 1_555
H7 C15 1_555 1_555
C16 C15 1_555 1_555
C17 C16 1_555 1_555
H8 C17 1_555 1_555
C18 C17 1_555 1_555
H9 C18 1_555 1_555
C19 C18 1_555 1_555
C20 C19 1_555 1_555
H10 C20 1_555 1_555
C21 C20 1_555 1_555
H11 C21 1_555 1_555
C22 C21 1_555 1_555
H12 C22 1_555 1_555
C23 C19 1_555 1_555
C24 C16 1_555 1_555
N1 C13 1_555 1_555
N2 Mn1 1_555 1_555
O1 Mn1 1_555 1_555
H13 O1 1_555 1_555
H14 O1 1_555 1_555
O2 Mn1 1_555 1_555
O3 Mn1 1_555 1_555
H15 O3 1_555 1_555
H16 O3 1_555 1_555
O4 C1 1_555 1_555
O5 C12 1_555 1_555
O6 H17 1_555 1_555
H18 O6 1_555 1_555
O7 C12 1_555 1_555
O8 H19 1_555 1_555
H20 O8 1_555 1_555
Mn1B N1B 1_555 1_555
Mn1C O5 1_555 1_555
Mn1A O5B 1_555 1_555
C1B C2B 1_555 1_555
C2B C3B 1_555 1_555
C3B H1B 1_555 1_555
C4B C3B 1_555 1_555
H2B C4B 1_555 1_555
C5B C4B 1_555 1_555
C6B C7 1_555 1_555
C7B C6 1_555 1_555
C8B C7B 1_555 1_555
H3B C8B 1_555 1_555
C9B C8B 1_555 1_555
H4B C9B 1_555 1_555
C10B C11 1_555 1_555
C11B C10 1_555 1_555
C12B C10B 1_555 1_555
C13B H5B 1_555 1_555
C14B C13B 1_555 1_555
H6B C14B 1_555 1_555
C15B C14B 1_555 1_555
H7B C15B 1_555 1_555
C16B C15B 1_555 1_555
C17B C16B 1_555 1_555
H8B C17B 1_555 1_555
C18B C17B 1_555 1_555
H9B C18B 1_555 1_555
C19B C18B 1_555 1_555
C20B C19B 1_555 1_555
H10B C20B 1_555 1_555
C21B C20B 1_555 1_555
H11B C21B 1_555 1_555
C22B C21B 1_555 1_555
H12B C22B 1_555 1_555
C23B C19B 1_555 1_555
C24B C16B 1_555 1_555
N1B C13B 1_555 1_555
N2B Mn1B 1_555 1_555
O1B Mn1B 1_555 1_555
H13B O1B 1_555 1_555
H14B O1B 1_555 1_555
O2B Mn1B 1_555 1_555
O3B Mn1B 1_555 1_555
H15B O3B 1_555 1_555
H16B O3B 1_555 1_555
O4B C1B 1_555 1_555
O5B C12B 1_555 1_555
O5C Mn1 1_555 1_555
O5A Mn1B 1_555 1_555
O7B C12B 1_555 1_555
C1 O2 1_555 1_555
C6 C11 1_555 1_555
C22 N2 1_555 1_555
C23 C24 1_555 1_555
C23 N2 1_555 1_555
C24 N1 1_555 1_555
C1B O2B 1_555 1_555
C2B C11B 1_555 1_555
C5B C6B 1_555 1_555
C5B C7B 1_555 1_555
C6B C11B 1_555 1_555
C9B C10B 1_555 1_555
C22B N2B 1_555 1_555
C23B C24B 1_555 1_555
C23B N2B 1_555 1_555
C24B N1B 1_555 1_555

#END
