
#######################################################################
#
#                 Cambridge Crystallographic Data Centre
#                                CCDC 
#
#######################################################################
#
# If this CIF has been generated from an entry in the Cambridge 
# Structural Database, then it will include bibliographic, chemical, 
# crystal, experimental, refinement or atomic coordinate data resulting 
# from the CCDC's data processing and validation procedures.
#
#######################################################################

data_EPEYII
_symmetry_cell_setting           triclinic
_symmetry_space_group_name_H-M   'P -1'
_symmetry_Int_Tables_number      2
_space_group_name_Hall           '-P 1'
loop_
_symmetry_equiv_pos_site_id
_symmetry_equiv_pos_as_xyz
1 x,y,z
2 -x,-y,-z
_cell_length_a                   10.3877(11)
_cell_length_b                   10.6229(12)
_cell_length_c                   23.554(3)
_cell_angle_alpha                96.562(2)
_cell_angle_beta                 98.759(2)
_cell_angle_gamma                113.605(2)
_cell_volume                     2309.38
loop_
_atom_site_label
_atom_site_type_symbol
_atom_site_fract_x
_atom_site_fract_y
_atom_site_fract_z
Zn1 Zn -0.24285(11) 0.09477(10) 0.17777(4)
Zn2 Zn -0.12133(12) 0.68298(10) 0.32154(4)
O1 O -0.2104(7) 0.2375(6) 0.1262(2)
O2 O -0.3237(7) 0.2907(5) 0.1916(2)
O3 O -0.1256(7) 0.6052(5) 0.2381(2)
O4 O -0.3223(8) 0.6219(7) 0.2475(2)
O5 O -0.2249(8) 0.0762(7) 0.2633(2)
O6 O -0.0240(8) 0.2225(6) 0.2460(2)
O7 O -0.1463(7) -0.1681(6) 0.3725(2)
O8 O -0.0217(7) -0.0658(6) 0.3094(2)
N1 N -0.1590(7) -0.0209(6) 0.1324(2)
N2 N 0.5445(7) -0.0495(7) 0.1456(3)
N3 N 0.0797(8) 0.7124(7) 0.3697(3)
N4 N 0.2422(8) 0.4892(7) 0.6442(3)
C1 C -0.2633(10) 0.3162(8) 0.1503(4)
C2 C -0.2430(9) 0.4464(8) 0.1227(3)
H1 H -0.1373 0.5063 0.1293
C3 C -0.3103(9) 0.5330(8) 0.1506(3)
H2 H -0.2822 0.6181 0.1325
C4 C -0.4731(9) 0.4637(8) 0.1350(3)
H3 H -0.5084 0.3788 0.1524
H4 H -0.5104 0.5287 0.1517
C5 C -0.5281(10) 0.4243(9) 0.0703(3)
H5 H -0.4999 0.5101 0.0535
H6 H -0.6345 0.3761 0.0615
C6 C -0.4689(11) 0.3280(9) 0.0419(3)
H7 H -0.5050 0.3053 -0.0011
H8 H -0.5007 0.2395 0.0569
C7 C -0.3039(10) 0.4043(9) 0.0569(3)
H9 H -0.2640 0.3424 0.0395
H10 H -0.2734 0.4892 0.0393
C8 C -0.2527(11) 0.5883(8) 0.2162(4)
C9 C -0.0931(13) 0.1623(9) 0.2813(4)
C10 C -0.0259(10) 0.1963(8) 0.3454(3)
H11 H -0.0489 0.2729 0.3630
C11 C -0.0944(9) 0.0732(8) 0.3757(3)
H12 H -0.1988 0.0518 0.3708
C12 C -0.0268(10) 0.1161(9) 0.4421(3)
H13 H -0.0514 0.1905 0.4597
H14 H -0.0677 0.0344 0.4609
C13 C 0.1304(10) 0.1673(8) 0.4533(3)
H15 H 0.1552 0.0913 0.4378
H16 H 0.1706 0.1949 0.4960
C14 C 0.1978(11) 0.2944(9) 0.4239(4)
H17 H 0.1770 0.3721 0.4408
H18 H 0.3036 0.3271 0.4317
C15 C 0.1371(10) 0.2546(9) 0.3582(3)
H19 H 0.1766 0.3382 0.3403
H20 H 0.1661 0.1836 0.3407
C16 C -0.0845(11) -0.0616(9) 0.3500(4)
C17 C -0.0827(8) -0.0848(8) 0.1554(3)
H21 H -0.0637 -0.0774 0.1967
C18 C -0.0294(9) -0.1616(8) 0.1226(3)
H22 H 0.0271 -0.2033 0.1409
C19 C -0.0607(8) -0.1759(7) 0.0626(3)
C20 C -0.1389(9) -0.1097(8) 0.0381(3)
H23 H -0.1606 -0.1162 -0.0031
C21 C -0.1844(9) -0.0348(8) 0.0743(3)
H24 H -0.2379 0.0108 0.0570
C22 C 0.2626(9) -0.2386(8) 0.0931(3)
C23 C 0.3089(9) -0.1043(9) 0.0897(4)
H25 H 0.2472 -0.0713 0.0686
C24 C 0.4456(11) -0.0154(10) 0.1168(4)
H26 H 0.4742 0.0808 0.1152
C25 C 0.4950(11) -0.1818(10) 0.1493(4)
H27 H 0.5593 -0.2116 0.1707
C26 C 0.3582(11) -0.2810(10) 0.1249(4)
H28 H 0.3290 -0.3755 0.1294
C27 C 0.1261(10) 0.7921(8) 0.4237(3)
H29 H 0.0692 0.8356 0.4370
C28 C 0.2506(10) 0.8133(9) 0.4601(3)
H30 H 0.2777 0.8674 0.4986
C29 C 0.3376(10) 0.7553(9) 0.4406(4)
C30 C 0.2955(12) 0.6767(10) 0.3863(4)
H31 H 0.3533 0.6357 0.3720
C31 C 0.1676(12) 0.6573(10) 0.3523(4)
H32 H 0.1386 0.6017 0.3142
C32 C 0.4057(10) 0.7104(8) 0.5948(3)
C33 C 0.3579(12) 0.5746(10) 0.5668(4)
H33 H 0.3798 0.5540 0.5301
C34 C 0.2771(13) 0.4675(10) 0.5927(4)
H34 H 0.2448 0.3736 0.5729
C35 C 0.2910(10) 0.6199(9) 0.6705(3)
H35 H 0.2686 0.6388 0.7073
C36 C 0.3738(11) 0.7322(9) 0.6475(4)
H36 H 0.4082 0.8250 0.6689
S1 S 0.5078(3) 0.7810(3) 0.48366(10)
S2 S 0.5081(3) 0.8579(3) 0.56708(10)
S3 S -0.0055(3) -0.2707(2) 0.01270(9)
S4 S 0.0863(3) -0.3691(2) 0.06291(10)
Zn1_2 Zn 0.75715(11) 0.09477(10) 0.17777(4)
Zn2_2 Zn -0.12133(12) -0.31702(10) 0.32154(4)
Zn2A Zn 0.12133(12) 0.31702(10) 0.67846(4)
O7_2 O -0.1463(7) 0.8319(6) 0.3725(2)
N2_2 N -0.4555(7) -0.0495(7) 0.1456(3)
N4A N -0.2422(8) 0.5108(7) 0.3558(3)
O9 O 0.8025(8) 0.8380(7) 0.8885(3)
O10 O 0.5140(11) 0.9081(10) 0.3038(4)
O11 O 0.4354(16) 0.6101(15) 0.2800(6)
O12 O 0.2648(16) 0.9448(14) 0.2734(6)
O13 O 0.1291(17) 0.6910(15) 0.2110(6)
O14 O 0.1614(17) 0.4755(15) 0.2230(6)
O15 O 0.6721(17) 0.8064(15) 0.7779(6)
O16 O 0.1026(18) 0.3773(16) 0.1239(7)
loop_
_geom_bond_atom_site_label_1
_geom_bond_atom_site_label_2
_geom_bond_site_symmetry_1
_geom_bond_site_symmetry_2
Zn1 O1 1_555 1_555
Zn2 O3 1_555 1_555
O1 C1 1_555 1_555
O2 C1 1_555 1_555
O3 C8 1_555 1_555
O4 Zn2 1_555 1_555
O5 Zn1 1_555 1_555
O6 Zn1 1_555 1_555
O7 C16 1_555 1_555
O8 C16 1_555 1_555
N1 Zn1 1_555 1_555
N2 C24 1_555 1_555
N3 Zn2 1_555 1_555
N4 C34 1_555 1_555
C1 C2 1_555 1_555
C2 H1 1_555 1_555
C3 C2 1_555 1_555
H2 C3 1_555 1_555
C4 C3 1_555 1_555
H3 C4 1_555 1_555
H4 C4 1_555 1_555
C5 C4 1_555 1_555
H5 C5 1_555 1_555
H6 C5 1_555 1_555
C6 C5 1_555 1_555
H7 C6 1_555 1_555
H8 C6 1_555 1_555
C7 C2 1_555 1_555
H9 C7 1_555 1_555
H10 C7 1_555 1_555
C8 O4 1_555 1_555
C9 O5 1_555 1_555
C10 C9 1_555 1_555
H11 C10 1_555 1_555
C11 C10 1_555 1_555
H12 C11 1_555 1_555
C12 C11 1_555 1_555
H13 C12 1_555 1_555
H14 C12 1_555 1_555
C13 C12 1_555 1_555
H15 C13 1_555 1_555
H16 C13 1_555 1_555
C14 C13 1_555 1_555
H17 C14 1_555 1_555
H18 C14 1_555 1_555
C15 C10 1_555 1_555
H19 C15 1_555 1_555
H20 C15 1_555 1_555
C16 C11 1_555 1_555
C17 N1 1_555 1_555
H21 C17 1_555 1_555
C18 C17 1_555 1_555
H22 C18 1_555 1_555
C19 C18 1_555 1_555
C20 C19 1_555 1_555
H23 C20 1_555 1_555
C21 N1 1_555 1_555
H24 C21 1_555 1_555
C22 C23 1_555 1_555
C23 H25 1_555 1_555
C24 C23 1_555 1_555
H26 C24 1_555 1_555
C25 N2 1_555 1_555
H27 C25 1_555 1_555
C26 C22 1_555 1_555
H28 C26 1_555 1_555
C27 N3 1_555 1_555
H29 C27 1_555 1_555
C28 C27 1_555 1_555
H30 C28 1_555 1_555
C29 C28 1_555 1_555
C30 C29 1_555 1_555
H31 C30 1_555 1_555
C31 N3 1_555 1_555
H32 C31 1_555 1_555
C32 C33 1_555 1_555
C33 H33 1_555 1_555
C34 C33 1_555 1_555
H34 C34 1_555 1_555
C35 N4 1_555 1_555
H35 C35 1_555 1_555
C36 C32 1_555 1_555
H36 C36 1_555 1_555
S1 C29 1_555 1_555
S2 C32 1_555 1_555
S3 C19 1_555 1_555
S4 C22 1_555 1_555
Zn1_2 N2 1_555 1_555
Zn2_2 O7 1_555 1_555
Zn2A N4 1_555 1_555
O7_2 Zn2 1_555 1_555
N2_2 Zn1 1_555 1_555
N4A Zn2 1_555 1_555
O6 C9 1_555 1_555
C3 C8 1_555 1_555
C6 C7 1_555 1_555
C14 C15 1_555 1_555
C20 C21 1_555 1_555
C25 C26 1_555 1_555
C30 C31 1_555 1_555
C35 C36 1_555 1_555
S1 S2 1_555 1_555
S3 S4 1_555 1_555

#END
