
#######################################################################
#
#                 Cambridge Crystallographic Data Centre
#                                CCDC 
#
#######################################################################
#
# If this CIF has been generated from an entry in the Cambridge 
# Structural Database, then it will include bibliographic, chemical, 
# crystal, experimental, refinement or atomic coordinate data resulting 
# from the CCDC's data processing and validation procedures.
#
#######################################################################

data_EPICEM
_symmetry_cell_setting           triclinic
_symmetry_space_group_name_H-M   'P -1'
_symmetry_Int_Tables_number      2
_space_group_name_Hall           '-P 1'
loop_
_symmetry_equiv_pos_site_id
_symmetry_equiv_pos_as_xyz
1 x,y,z
2 -x,-y,-z
_cell_length_a                   7.5260(4)
_cell_length_b                   10.2052(5)
_cell_length_c                   21.5181(12)
_cell_angle_alpha                94.565(4)
_cell_angle_beta                 92.406(4)
_cell_angle_gamma                93.624(4)
_cell_volume                     1642.31
loop_
_atom_site_label
_atom_site_type_symbol
_atom_site_fract_x
_atom_site_fract_y
_atom_site_fract_z
Ag1 Ag 0.24418(8) 0.63845(6) 0.13175(3)
Ag2 Ag -0.31562(8) 0.86739(6) 0.35067(3)
C1 C -0.3250(11) 0.6676(7) 0.4645(4)
C2 C -0.0613(11) 0.7928(7) 0.4651(3)
C3 C -0.0021(11) 0.7289(8) 0.5152(4)
H1 H 0.1140 0.7502 0.5337
C4 C -0.1133(11) 0.6336(8) 0.5380(3)
C5 C 0.0515(12) 0.8960(8) 0.4357(4)
H2 H -0.0167 0.9281 0.4009
H3 H 0.1589 0.8576 0.4203
H4 H 0.0856 0.9696 0.4669
C6 C -0.0540(13) 0.5612(9) 0.5929(4)
H5 H -0.1495 0.4971 0.6023
H6 H -0.0268 0.6244 0.6293
H7 H 0.0527 0.5152 0.5827
C7 C -0.2071(10) 1.1530(7) 0.3017(3)
C8 C -0.3536(10) 1.3434(7) 0.3093(4)
C9 C -0.4652(11) 1.2864(8) 0.3505(4)
H8 H -0.5542 1.3352 0.3698
C10 C -0.4454(11) 1.1587(8) 0.3630(4)
C11 C -0.3710(12) 1.4782(8) 0.2902(4)
H9 H -0.2783 1.4991 0.2612
H10 H -0.3577 1.5414 0.3271
H11 H -0.4887 1.4835 0.2696
C12 C -0.5647(14) 1.0898(9) 0.4065(4)
H12 H -0.5293 0.9996 0.4095
H13 H -0.6887 1.0872 0.3903
H14 H -0.5537 1.1376 0.4480
C13 C 0.3156(9) 0.8365(7) 0.0257(3)
C14 C 0.0333(9) 0.7329(7) 0.0163(3)
C15 C -0.0077(10) 0.8057(8) -0.0324(3)
H15 H -0.1213 0.7932 -0.0538
C16 C 0.1187(10) 0.8974(7) -0.0499(3)
C17 C 0.0858(11) 0.9811(8) -0.1031(3)
H16 H 0.1921 1.0393 -0.1079
H17 H -0.0156 1.0343 -0.0944
H18 H 0.0594 0.9242 -0.1417
C18 C -0.1014(11) 0.6350(8) 0.0392(4)
H19 H -0.0479 0.5924 0.0740
H20 H -0.1391 0.5681 0.0052
H21 H -0.2051 0.6805 0.0533
C19 C 0.1626(10) 0.3493(7) 0.1768(3)
C20 C 0.3403(10) 0.1754(7) 0.1814(4)
C21 C 0.4625(10) 0.2391(8) 0.1460(3)
H22 H 0.5674 0.1986 0.1340
C22 C 0.4295(10) 0.3617(8) 0.1286(3)
C23 C 0.3710(12) 0.0431(7) 0.2042(4)
H23 H 0.2697 0.0142 0.2281
H24 H 0.4803 0.0495 0.2310
H25 H 0.3830 -0.0209 0.1685
C24 C 0.5558(11) 0.4375(9) 0.0920(4)
H26 H 0.5078 0.5220 0.0841
H27 H 0.5726 0.3874 0.0522
H28 H 0.6705 0.4533 0.1155
C25 C -0.0117(9) 0.7207(7) 0.2510(3)
C26 C 0.1262(10) 0.6612(7) 0.2911(3)
H29 H 0.1292 0.5663 0.2778
H30 H 0.0917 0.6692 0.3351
C27 C 0.3120(11) 0.7287(7) 0.2869(3)
N1 N -0.4969(9) 0.6411(7) 0.4430(3)
H31 H -0.5414 0.6862 0.4135
H32 H -0.5636 0.5789 0.4584
N2 N -0.2270(8) 0.7634(6) 0.4398(3)
N3 N -0.2758(8) 0.6016(6) 0.5135(3)
N4 N -0.0693(9) 1.0894(7) 0.2787(3)
H33 H 0.0049 1.1290 0.2545
H34 H -0.0534 1.0083 0.2879
N5 N -0.2207(8) 1.2761(6) 0.2852(3)
N6 N -0.3161(8) 1.0890(6) 0.3391(3)
N7 N 0.4756(9) 0.8562(7) 0.0532(3)
H35 H 0.5521 0.9165 0.0409
H36 H 0.5061 0.8089 0.0840
N8 N 0.1930(8) 0.7478(6) 0.0467(3)
N9 N 0.2818(8) 0.9140(6) -0.0210(3)
N10 N 0.0046(8) 0.3965(6) 0.1887(3)
H37 H -0.0216 0.4731 0.1760
H38 H -0.0731 0.3509 0.2093
N11 N 0.2806(8) 0.4198(5) 0.1452(3)
N12 N 0.1920(8) 0.2297(6) 0.1979(3)
O1 O -0.0958(7) 0.8116(5) 0.2760(3)
O3 O -0.0354(7) 0.6780(5) 0.1947(2)
O4 O 0.3664(7) 0.7383(6) 0.2331(2)
O5 O 0.3954(7) 0.7671(5) 0.3361(2)
Ag2_2 Ag 0.68438(8) 0.86739(6) 0.35067(3)
O5_2 O -0.6046(7) 0.7671(5) 0.3361(2)
O2 O -0.3648(9) 0.7587(7) 0.1582(3)
H39 H -0.249(14) 0.740(9) 0.171(4)
H40 H -0.440(13) 0.765(10) 0.184(5)
loop_
_geom_bond_atom_site_label_1
_geom_bond_atom_site_label_2
_geom_bond_site_symmetry_1
_geom_bond_site_symmetry_2
Ag1 N8 1_555 1_555
Ag2 N2 1_555 1_555
C1 N1 1_555 1_555
C2 C3 1_555 1_555
C3 H1 1_555 1_555
C4 C3 1_555 1_555
C5 C2 1_555 1_555
H2 C5 1_555 1_555
H3 C5 1_555 1_555
H4 C5 1_555 1_555
C6 C4 1_555 1_555
H5 C6 1_555 1_555
H6 C6 1_555 1_555
H7 C6 1_555 1_555
C7 N4 1_555 1_555
C8 C9 1_555 1_555
C9 H8 1_555 1_555
C10 C9 1_555 1_555
C11 C8 1_555 1_555
H9 C11 1_555 1_555
H10 C11 1_555 1_555
H11 C11 1_555 1_555
C12 C10 1_555 1_555
H12 C12 1_555 1_555
H13 C12 1_555 1_555
H14 C12 1_555 1_555
C13 N7 1_555 1_555
C14 C15 1_555 1_555
C15 H15 1_555 1_555
C16 C15 1_555 1_555
C17 C16 1_555 1_555
H16 C17 1_555 1_555
H17 C17 1_555 1_555
H18 C17 1_555 1_555
C18 C14 1_555 1_555
H19 C18 1_555 1_555
H20 C18 1_555 1_555
H21 C18 1_555 1_555
C19 N10 1_555 1_555
C20 C21 1_555 1_555
C21 H22 1_555 1_555
C22 C21 1_555 1_555
C23 C20 1_555 1_555
H23 C23 1_555 1_555
H24 C23 1_555 1_555
H25 C23 1_555 1_555
C24 C22 1_555 1_555
H26 C24 1_555 1_555
H27 C24 1_555 1_555
H28 C24 1_555 1_555
C25 C26 1_555 1_555
C26 H29 1_555 1_555
H30 C26 1_555 1_555
C27 C26 1_555 1_555
N1 H31 1_555 1_555
H32 N1 1_555 1_555
N2 C1 1_555 1_555
N3 C1 1_555 1_555
N4 H33 1_555 1_555
H34 N4 1_555 1_555
N5 C7 1_555 1_555
N6 Ag2 1_555 1_555
N7 H35 1_555 1_555
H36 N7 1_555 1_555
N8 C13 1_555 1_555
N9 C13 1_555 1_555
N10 H37 1_555 1_555
H38 N10 1_555 1_555
N11 Ag1 1_555 1_555
N12 C19 1_555 1_555
O1 Ag2 1_555 1_555
O2 H39 1_555 1_555
H40 O2 1_555 1_555
O3 Ag1 1_555 1_555
O4 Ag1 1_555 1_555
O5 C27 1_555 1_555
Ag2_2 O5 1_555 1_555
O5_2 Ag2 1_555 1_555
C2 N2 1_555 1_555
C4 N3 1_555 1_555
C7 N6 1_555 1_555
C8 N5 1_555 1_555
C10 N6 1_555 1_555
C14 N8 1_555 1_555
C16 N9 1_555 1_555
C19 N11 1_555 1_555
C20 N12 1_555 1_555
C22 N11 1_555 1_555
C25 O1 1_555 1_555
C25 O3 1_555 1_555
C27 O4 1_555 1_555

#END
