
#######################################################################
#
#                 Cambridge Crystallographic Data Centre
#                                CCDC 
#
#######################################################################
#
# If this CIF has been generated from an entry in the Cambridge 
# Structural Database, then it will include bibliographic, chemical, 
# crystal, experimental, refinement or atomic coordinate data resulting 
# from the CCDC's data processing and validation procedures.
#
#######################################################################

data_EPIXUX
_symmetry_cell_setting           monoclinic
_symmetry_space_group_name_H-M   'P 21/c'
_symmetry_Int_Tables_number      14
_space_group_name_Hall           '-P 2ybc'
loop_
_symmetry_equiv_pos_site_id
_symmetry_equiv_pos_as_xyz
1 x,y,z
2 -x,1/2+y,1/2-z
3 -x,-y,-z
4 x,1/2-y,1/2+z
_cell_length_a                   7.4920(8)
_cell_length_b                   10.6557(12)
_cell_length_c                   12.1671(14)
_cell_angle_alpha                90
_cell_angle_beta                 100.4420(10)
_cell_angle_gamma                90
_cell_volume                     955.244
loop_
_atom_site_label
_atom_site_type_symbol
_atom_site_fract_x
_atom_site_fract_y
_atom_site_fract_z
Cu1 Cu 0.5000 0.5000 0.5000
O1 O 0.60419(17) 0.67742(13) 0.38443(10)
O2 O 0.34562(15) 0.57154(10) 0.36392(9)
N1 N 0.23806(18) 0.81306(13) 0.07142(11)
H1 H 0.1564 0.8287 0.0137
N2 N 0.39723(19) 0.87667(12) 0.09760(11)
C1 C 0.4493(2) 0.65405(14) 0.33112(13)
C2 C 0.3836(2) 0.72637(15) 0.22680(13)
C3 C 0.2231(2) 0.72211(14) 0.14691(12)
C4 C 0.4844(2) 0.82428(15) 0.19120(13)
H2 H 0.5983 0.8495 0.2285
C5 C 0.0589(2) 0.64195(15) 0.13333(13)
C6 C -0.1135(2) 0.69302(17) 0.09926(14)
H3 H -0.1267 0.7789 0.0865
C7 C -0.2659(3) 0.6160(2) 0.08425(16)
H4 H -0.3803 0.6503 0.0597
C8 C -0.2483(3) 0.48864(19) 0.10565(18)
H5 H -0.3510 0.4380 0.0978
C9 C -0.0775(3) 0.43654(18) 0.13886(15)
H6 H -0.0655 0.3509 0.1528
C10 C 0.0759(3) 0.51226(15) 0.15133(15)
H7 H 0.1905 0.4767 0.1717
Cu1A Cu 0.5000 1.0000 0.0000
Cu1A_2 Cu 0.5000 0.0000 1.0000
O1B O 0.39581(17) 0.32258(13) 0.61557(10)
O2B O 0.65438(15) 0.42846(10) 0.63608(9)
N1B N 0.76194(18) 0.18694(13) 0.92858(11)
H1B H 0.8436 0.1713 0.9863
N2B N 0.60277(19) 0.12333(12) 0.90240(11)
N2A N 0.60277(19) 0.37667(12) 0.40240(11)
N2C N 0.39723(19) 0.62333(12) 0.59760(11)
C1B C 0.5507(2) 0.34595(14) 0.66888(13)
C2B C 0.6164(2) 0.27363(15) 0.77320(13)
C3B C 0.7769(2) 0.27789(14) 0.85309(12)
C4B C 0.5156(2) 0.17572(15) 0.80880(13)
H2B H 0.4017 0.1505 0.7715
C5B C 0.9411(2) 0.35805(15) 0.86667(13)
C6B C 1.1135(2) 0.30698(17) 0.90074(14)
H3B H 1.1267 0.2211 0.9135
C7B C 1.2659(3) 0.3840(2) 0.91575(16)
H4B H 1.3803 0.3497 0.9403
C8B C 1.2483(3) 0.51136(19) 0.89435(18)
H5B H 1.3510 0.5620 0.9022
C9B C 1.0775(3) 0.56346(18) 0.86114(15)
H6B H 1.0655 0.6491 0.8472
C10B C 0.9241(3) 0.48774(15) 0.84867(15)
H7B H 0.8095 0.5233 0.8283
O3 O 0.9674(2) 0.61389(19) 0.39732(13)
H8 H 0.8598(17) 0.633(2) 0.385(2)
H9 H 0.999(3) 0.578(2) 0.3439(16)
loop_
_geom_bond_atom_site_label_1
_geom_bond_atom_site_label_2
_geom_bond_site_symmetry_1
_geom_bond_site_symmetry_2
Cu1 O2 1_555 1_555
O1 C1 1_555 1_555
O2 C1 1_555 1_555
O3 H8 1_555 1_555
N1 H1 1_555 1_555
N2 N1 1_555 1_555
C1 C2 1_555 1_555
C2 C3 1_555 1_555
C3 N1 1_555 1_555
C4 N2 1_555 1_555
H2 C4 1_555 1_555
C5 C3 1_555 1_555
C6 C5 1_555 1_555
H3 C6 1_555 1_555
C7 C6 1_555 1_555
H4 C7 1_555 1_555
C8 C7 1_555 1_555
H5 C8 1_555 1_555
C9 C8 1_555 1_555
H6 C9 1_555 1_555
C10 C5 1_555 1_555
H7 C10 1_555 1_555
H9 O3 1_555 1_555
Cu1A N2 1_555 1_555
Cu1A_2 N2B 1_555 1_555
O1B C1B 1_555 1_555
O2B Cu1 1_555 1_555
N1B H1B 1_555 1_555
N2B N1B 1_555 1_555
N2A Cu1 1_555 1_555
N2C Cu1 1_555 1_555
C1B O2B 1_555 1_555
C2B C1B 1_555 1_555
C3B N1B 1_555 1_555
C4B N2B 1_555 1_555
H2B C4B 1_555 1_555
C5B C3B 1_555 1_555
C6B C5B 1_555 1_555
H3B C6B 1_555 1_555
C7B C6B 1_555 1_555
H4B C7B 1_555 1_555
C8B C7B 1_555 1_555
H5B C8B 1_555 1_555
C9B C8B 1_555 1_555
H6B C9B 1_555 1_555
C10B C5B 1_555 1_555
H7B C10B 1_555 1_555
C2 C4 1_555 1_555
C9 C10 1_555 1_555
C2B C3B 1_555 1_555
C2B C4B 1_555 1_555
C9B C10B 1_555 1_555

#END
