
#######################################################################
#
#                 Cambridge Crystallographic Data Centre
#                                CCDC 
#
#######################################################################
#
# If this CIF has been generated from an entry in the Cambridge 
# Structural Database, then it will include bibliographic, chemical, 
# crystal, experimental, refinement or atomic coordinate data resulting 
# from the CCDC's data processing and validation procedures.
#
#######################################################################

data_EPIYAE
_symmetry_cell_setting           orthorhombic
_symmetry_space_group_name_H-M   'F d d d'
_symmetry_Int_Tables_number      70
_space_group_name_Hall           '-F 2uv 2vw'
loop_
_symmetry_equiv_pos_site_id
_symmetry_equiv_pos_as_xyz
1 x,y,z
2 3/4-x,3/4-y,z
3 3/4-x,y,3/4-z
4 x,3/4-y,3/4-z
5 x,1/2+y,1/2+z
6 3/4-x,1/4-y,1/2+z
7 3/4-x,1/2+y,1/4-z
8 x,1/4-y,1/4-z
9 1/2+x,y,1/2+z
10 1/4-x,3/4-y,1/2+z
11 1/4-x,y,1/4-z
12 1/2+x,3/4-y,1/4-z
13 1/2+x,1/2+y,z
14 1/4-x,1/4-y,z
15 1/4-x,1/2+y,3/4-z
16 1/2+x,1/4-y,3/4-z
17 -x,-y,-z
18 1/4+x,1/4+y,-z
19 1/4+x,-y,1/4+z
20 -x,1/4+y,1/4+z
21 -x,1/2-y,1/2-z
22 1/4+x,3/4+y,1/2-z
23 1/4+x,1/2-y,3/4+z
24 -x,3/4+y,3/4+z
25 1/2-x,-y,1/2-z
26 3/4+x,1/4+y,1/2-z
27 3/4+x,-y,3/4+z
28 1/2-x,1/4+y,3/4+z
29 1/2-x,1/2-y,-z
30 3/4+x,3/4+y,-z
31 3/4+x,1/2-y,1/4+z
32 1/2-x,3/4+y,1/4+z
_cell_length_a                   16.5749(19)
_cell_length_b                   18.395(2)
_cell_length_c                   22.912(3)
_cell_angle_alpha                90
_cell_angle_beta                 90
_cell_angle_gamma                90
_cell_volume                     6985.76
loop_
_atom_site_label
_atom_site_type_symbol
_atom_site_fract_x
_atom_site_fract_y
_atom_site_fract_z
Zn1 Zn 0.6250 1.1250 0.275596(14)
O1 O 0.43028(13) 1.03722(9) 0.07621(8)
O2 O 0.45376(11) 0.91801(9) 0.07745(8)
N1 N 0.57312(12) 1.04898(10) 0.22462(8)
N2 N 0.58681(12) 0.97626(10) 0.22926(8)
H1 H 0.6167 0.9568 0.2557
C1 C 0.52446(15) 1.05707(12) 0.17895(10)
H2 H 0.5045 1.1015 0.1660
C2 C 0.50729(13) 0.98990(12) 0.15299(9)
C3 C 0.54783(13) 0.93854(12) 0.18741(10)
C4 C 0.45973(13) 0.98185(12) 0.09817(9)
C5 C 0.55222(15) 0.85809(13) 0.18673(11)
C6 C 0.48489(17) 0.81617(14) 0.17329(13)
H3 H 0.4362 0.8387 0.1643
C7 C 0.4899(2) 0.74107(16) 0.17323(15)
H4 H 0.4450 0.7134 0.1634
C8 C 0.5610(2) 0.70746(16) 0.18767(17)
H5 H 0.5639 0.6570 0.1880
C9 C 0.6283(2) 0.74812(16) 0.20175(16)
H6 H 0.6762 0.7250 0.2117
C10 C 0.62441(17) 0.82349(14) 0.20111(13)
H7 H 0.6699 0.8509 0.2102
Zn1V Zn 0.8750 1.3750 0.025596(14)
Zn1W Zn 0.3750 0.8750 0.025596(14)
O1M O 0.81972(13) 1.21278(9) 0.07621(8)
O2M O 0.79624(11) 1.33199(9) 0.07745(8)
O2R O 0.70376(11) 1.08199(9) 0.32745(8)
O2S O 0.54624(11) 1.16801(9) 0.32745(8)
N1M N 0.67688(12) 1.20102(10) 0.22462(8)
N2M N 0.66319(12) 1.27374(10) 0.22926(8)
H1M H 0.6333 1.2932 0.2557
C1M C 0.72554(15) 1.19293(12) 0.17895(10)
H2M H 0.7455 1.1485 0.1660
C2M C 0.74271(13) 1.26010(12) 0.15299(9)
C3M C 0.70217(13) 1.31146(12) 0.18741(10)
C4M C 0.79027(13) 1.26815(12) 0.09817(9)
C5M C 0.69778(15) 1.39191(13) 0.18673(11)
C6M C 0.76511(17) 1.43383(14) 0.17329(13)
H3M H 0.8138 1.4113 0.1643
C7M C 0.7601(2) 1.50893(16) 0.17323(15)
H4M H 0.8050 1.5366 0.1634
C8M C 0.6890(2) 1.54254(16) 0.18767(17)
H5M H 0.6861 1.5930 0.1880
C9M C 0.6217(2) 1.50188(16) 0.20175(16)
H6M H 0.5738 1.5250 0.2117
C10M C 0.62559(17) 1.42651(14) 0.20111(13)
H7M H 0.5801 1.3991 0.2102
loop_
_geom_bond_atom_site_label_1
_geom_bond_atom_site_label_2
_geom_bond_site_symmetry_1
_geom_bond_site_symmetry_2
Zn1 N1 1_555 1_555
O1 C4 1_555 1_555
O2 C4 1_555 1_555
N1 N2 1_555 1_555
N2 H1 1_555 1_555
C1 N1 1_555 1_555
H2 C1 1_555 1_555
C2 C1 1_555 1_555
C3 N2 1_555 1_555
C4 C2 1_555 1_555
C5 C3 1_555 1_555
C6 C5 1_555 1_555
H3 C6 1_555 1_555
C7 C6 1_555 1_555
H4 C7 1_555 1_555
C8 C7 1_555 1_555
H5 C8 1_555 1_555
C9 C8 1_555 1_555
H6 C9 1_555 1_555
C10 C5 1_555 1_555
H7 C10 1_555 1_555
Zn1V O2M 1_555 1_555
Zn1W O2 1_555 1_555
O1M C4M 1_555 1_555
O2M C4M 1_555 1_555
O2R Zn1 1_555 1_555
O2S Zn1 1_555 1_555
N1M Zn1 1_555 1_555
N2M N1M 1_555 1_555
H1M N2M 1_555 1_555
C1M N1M 1_555 1_555
H2M C1M 1_555 1_555
C2M C1M 1_555 1_555
C3M N2M 1_555 1_555
C4M C2M 1_555 1_555
C5M C3M 1_555 1_555
C6M C5M 1_555 1_555
H3M C6M 1_555 1_555
C7M C6M 1_555 1_555
H4M C7M 1_555 1_555
C8M C7M 1_555 1_555
H5M C8M 1_555 1_555
C9M C8M 1_555 1_555
H6M C9M 1_555 1_555
C10M C5M 1_555 1_555
H7M C10M 1_555 1_555
C2 C3 1_555 1_555
C9 C10 1_555 1_555
C2M C3M 1_555 1_555
C9M C10M 1_555 1_555

#END
