
#######################################################################
#
#                 Cambridge Crystallographic Data Centre
#                                CCDC 
#
#######################################################################
#
# If this CIF has been generated from an entry in the Cambridge 
# Structural Database, then it will include bibliographic, chemical, 
# crystal, experimental, refinement or atomic coordinate data resulting 
# from the CCDC's data processing and validation procedures.
#
#######################################################################

data_EPIZUZ
_symmetry_cell_setting           monoclinic
_symmetry_space_group_name_H-M   'P 21/n'
_symmetry_Int_Tables_number      14
_space_group_name_Hall           '-P 2yn'
loop_
_symmetry_equiv_pos_site_id
_symmetry_equiv_pos_as_xyz
1 x,y,z
2 1/2-x,1/2+y,1/2-z
3 -x,-y,-z
4 1/2+x,1/2-y,1/2+z
_cell_length_a                   6.8863(5)
_cell_length_b                   30.987(2)
_cell_length_c                   8.0216(6)
_cell_angle_alpha                90
_cell_angle_beta                 93.210(4)
_cell_angle_gamma                90
_cell_volume                     1709.01
loop_
_atom_site_label
_atom_site_type_symbol
_atom_site_fract_x
_atom_site_fract_y
_atom_site_fract_z
Mn1 Mn 0.95459(7) 0.248788(19) 0.74275(6)
O1 O 0.7277(3) 0.20401(8) 0.6727(3)
O2 O 0.6382(3) 0.17095(8) 0.9024(3)
O3 O 0.8332(3) 0.07727(8) 0.8186(3)
O4 O 0.8510(3) 0.42757(8) 0.8119(3)
O5 O 0.7819(3) 0.30309(8) 0.6526(3)
O6 O 0.6635(3) 0.33253(8) 0.8801(3)
N1 N 0.5303(4) 0.09649(10) 0.7225(4)
N2 N 0.5518(4) 0.40676(10) 0.7102(4)
C1 C 0.6589(5) 0.17166(11) 0.7503(4)
C2 C 0.5976(5) 0.13460(12) 0.6356(4)
H1 H 0.492 0.1447 0.5562
H2 H 0.7092 0.1263 0.5699
C3 C 0.6547(5) 0.07120(12) 0.8123(4)
C4 C 0.5696(5) 0.03445(12) 0.9073(4)
C5 C 0.6971(5) 0.00817(12) 1.0008(4)
H3 H 0.8328 0.0138 1.0023
C6 C 0.3697(5) 0.02617(12) 0.9078(5)
H4 H 0.2801 0.0441 0.8456
C7 C 0.3779(5) 0.46947(12) 0.9233(5)
H5 H 0.2933 0.4487 0.8711
C8 C 0.6976(5) 0.49797(12) 0.9806(4)
H6 H 0.8338 0.4967 0.9676
C9 C 0.5764(5) 0.46718(11) 0.9033(4)
C10 C 0.6706(5) 0.43237(11) 0.8053(4)
C11 C 0.6270(5) 0.37105(11) 0.6189(4)
H7 H 0.7378 0.3813 0.5561
H8 H 0.5247 0.3608 0.5366
C12 C 0.6948(5) 0.33306(11) 0.7289(4)
O7 O 0.9302(4) 0.25159(10) 1.0099(3)
O8 O 1.2099(4) 0.29260(9) 0.7691(3)
O9 O 1.0128(4) 0.24387(8) 0.4759(3)
O10 O 1.1771(4) 0.19964(8) 0.8021(3)
H9 H 0.415(6) 0.0904(14) 0.711(5)
H10 H 0.428(6) 0.4116(14) 0.712(5)
H11 H 1.023(7) 0.2621(13) 1.073(6)
H12 H 0.869(7) 0.2387(14) 1.061(6)
H13 H 1.197(6) 0.3202(15) 0.756(5)
H14 H 1.277(6) 0.2876(16) 0.833(6)
H15 H 1.063(6) 0.2665(14) 0.447(5)
H16 H 1.099(6) 0.2241(14) 0.461(5)
H17 H 1.230(6) 0.1966(14) 0.901(5)
H18 H 1.161(6) 0.1747(14) 0.779(6)
Mn1B Mn 0.04541(7) -0.248788(19) 1.25725(6)
Mn1B_2 Mn 0.04541(7) 0.751212(19) 1.25725(6)
O1B O 0.2723(3) -0.20401(8) 1.3273(3)
O2B O 0.3618(3) -0.17095(8) 1.0976(3)
O3B O 0.1668(3) -0.07727(8) 1.1814(3)
O4B O 0.1490(3) 0.57243(8) 1.1881(3)
O5B O 0.2181(3) 0.69691(8) 1.3474(3)
O5B_2 O 0.2181(3) -0.30309(8) 1.3474(3)
O6B O 0.3365(3) 0.66747(8) 1.1199(3)
N1B N 0.4697(4) -0.09649(10) 1.2775(4)
N2B N 0.4482(4) 0.59324(10) 1.2898(4)
C1B C 0.3411(5) -0.17166(11) 1.2497(4)
C2B C 0.4024(5) -0.13460(12) 1.3644(4)
H1B H 0.508 -0.1447 1.4438
H2B H 0.2908 -0.1263 1.4301
C3B C 0.3453(5) -0.07120(12) 1.1877(4)
C4B C 0.4304(5) -0.03445(12) 1.0927(4)
C5B C 0.3029(5) -0.00817(12) 0.9992(4)
H3B H 0.1672 -0.0138 0.9977
C6B C 0.6303(5) -0.02617(12) 1.0922(5)
H4B H 0.7199 -0.0441 1.1544
C7B C 0.6221(5) 0.53053(12) 1.0767(5)
H5B H 0.7067 0.5513 1.1289
C8B C 0.3024(5) 0.50203(12) 1.0194(4)
H6B H 0.1662 0.5033 1.0324
C9B C 0.4236(5) 0.53282(11) 1.0967(4)
C10B C 0.3294(5) 0.56763(11) 1.1947(4)
C11B C 0.3730(5) 0.62895(11) 1.3811(4)
H7B H 0.2622 0.6187 1.4439
H8B H 0.4753 0.6392 1.4634
C12B C 0.3052(5) 0.66694(11) 1.2711(4)
O7B O 0.0698(4) -0.25159(10) 0.9901(3)
O8B O -0.2099(4) -0.29260(9) 1.2309(3)
O9B O -0.0128(4) -0.24387(8) 1.5241(3)
O10B O -0.1771(4) -0.19964(8) 1.1979(3)
H9B H 0.585(6) -0.0904(14) 1.289(5)
H10B H 0.572(6) 0.5884(14) 1.288(5)
H11B H -0.023(7) -0.2621(13) 0.927(6)
H12B H 0.131(7) -0.2387(14) 0.939(6)
H13B H -0.197(6) -0.3202(15) 1.244(5)
H14B H -0.277(6) -0.2876(16) 1.167(6)
H15B H -0.063(6) -0.2665(14) 1.553(5)
H16B H -0.099(6) -0.2241(14) 1.539(5)
H17B H -0.230(6) -0.1966(14) 1.099(5)
H18B H -0.161(6) -0.1747(14) 1.221(6)
O11 O 0.1270(4) 0.11906(9) 0.6691(3)
H19 H 0.122(6) 0.1251(14) 0.561(5)
H20 H 0.038(6) 0.1043(15) 0.694(6)
O12 O 0.1467(4) 0.37839(9) 0.6923(4)
H21 H 0.069(6) 0.3925(15) 0.722(6)
H22 H 0.136(6) 0.3737(16) 0.603(6)
loop_
_geom_bond_atom_site_label_1
_geom_bond_atom_site_label_2
_geom_bond_site_symmetry_1
_geom_bond_site_symmetry_2
Mn1 O1 1_555 1_555
O1 C1 1_555 1_555
O2 C1 1_555 1_555
O3 C3 1_555 1_555
O4 C10 1_555 1_555
O5 Mn1 1_555 1_555
O6 C12 1_555 1_555
N1 C2 1_555 1_555
N2 C10 1_555 1_555
C1 C2 1_555 1_555
C2 H1 1_555 1_555
H2 C2 1_555 1_555
C3 N1 1_555 1_555
C4 C3 1_555 1_555
C5 C4 1_555 1_555
H3 C5 1_555 1_555
C6 C4 1_555 1_555
H4 C6 1_555 1_555
C7 H5 1_555 1_555
C8 H6 1_555 1_555
C9 C7 1_555 1_555
C10 C9 1_555 1_555
C11 N2 1_555 1_555
H7 C11 1_555 1_555
H8 C11 1_555 1_555
C12 O5 1_555 1_555
O7 Mn1 1_555 1_555
O8 Mn1 1_555 1_555
O9 Mn1 1_555 1_555
O10 Mn1 1_555 1_555
H9 N1 1_555 1_555
H10 N2 1_555 1_555
H11 O7 1_555 1_555
H12 O7 1_555 1_555
H13 O8 1_555 1_555
H14 O8 1_555 1_555
H15 O9 1_555 1_555
H16 O9 1_555 1_555
H17 O10 1_555 1_555
H18 O10 1_555 1_555
O11 H19 1_555 1_555
H20 O11 1_555 1_555
O12 H21 1_555 1_555
H22 O12 1_555 1_555
Mn1B O1B 1_555 1_555
Mn1B_2 O5B 1_555 1_555
O1B C1B 1_555 1_555
O2B C1B 1_555 1_555
O3B C3B 1_555 1_555
O4B C10B 1_555 1_555
O5B C12B 1_555 1_555
O5B_2 Mn1B 1_555 1_555
O6B C12B 1_555 1_555
N1B C2B 1_555 1_555
N2B C10B 1_555 1_555
C1B C2B 1_555 1_555
C2B H1B 1_555 1_555
H2B C2B 1_555 1_555
C3B N1B 1_555 1_555
C4B C3B 1_555 1_555
C5B C6 1_555 1_555
H3B C5B 1_555 1_555
C6B C5 1_555 1_555
H4B C6B 1_555 1_555
C7B C8 1_555 1_555
H5B C7B 1_555 1_555
C8B C7 1_555 1_555
H6B C8B 1_555 1_555
C9B C7B 1_555 1_555
C10B C9B 1_555 1_555
C11B N2B 1_555 1_555
H7B C11B 1_555 1_555
H8B C11B 1_555 1_555
C12B C11B 1_555 1_555
O7B Mn1B 1_555 1_555
O8B Mn1B 1_555 1_555
O9B Mn1B 1_555 1_555
O10B Mn1B 1_555 1_555
H9B N1B 1_555 1_555
H10B N2B 1_555 1_555
H11B O7B 1_555 1_555
H12B O7B 1_555 1_555
H13B O8B 1_555 1_555
H14B O8B 1_555 1_555
H15B O9B 1_555 1_555
H16B O9B 1_555 1_555
H17B O10B 1_555 1_555
H18B O10B 1_555 1_555
C8 C9 1_555 1_555
C11 C12 1_555 1_555
C4B C5B 1_555 1_555
C4B C6B 1_555 1_555
C8B C9B 1_555 1_555

#END
