
#######################################################################
#
#                 Cambridge Crystallographic Data Centre
#                                CCDC 
#
#######################################################################
#
# If this CIF has been generated from an entry in the Cambridge 
# Structural Database, then it will include bibliographic, chemical, 
# crystal, experimental, refinement or atomic coordinate data resulting 
# from the CCDC's data processing and validation procedures.
#
#######################################################################

data_EPUJIJ
_symmetry_cell_setting           orthorhombic
_symmetry_space_group_name_H-M   'P n a b'
_symmetry_Int_Tables_number      60
_space_group_name_Hall           '-P 2bc 2n'
loop_
_symmetry_equiv_pos_site_id
_symmetry_equiv_pos_as_xyz
1 x,y,z
2 -x,1/2-y,1/2+z
3 1/2+x,1/2-y,1/2-z
4 1/2-x,y,-z
5 -x,-y,-z
6 x,1/2+y,1/2-z
7 1/2-x,1/2+y,1/2+z
8 1/2+x,-y,z
_cell_length_a                   14.725(10)
_cell_length_b                   12.645(9)
_cell_length_c                   11.288(8)
_cell_angle_alpha                90
_cell_angle_beta                 90
_cell_angle_gamma                90
_cell_volume                     2101.8
loop_
_atom_site_label
_atom_site_type_symbol
_atom_site_fract_x
_atom_site_fract_y
_atom_site_fract_z
Pr1 Pr 0.007140(12) -0.385440(12) -0.149360(14)
O1 O 0.0629(2) -0.38271(14) -0.35451(16)
O2 O 0.07378(15) -0.71181(14) -0.31722(19)
O3 O 0.03154(15) -0.56770(15) -0.22100(16)
O4 O 0.09166(13) -0.50865(14) 0.01478(15)
O5 O 0.17451(14) -0.41311(16) -0.1041(2)
O6 O 0.01892(15) -0.2959(2) 0.0509(2)
O7 O -0.12588(16) -0.4348(2) -0.2806(2)
O8 O -0.12119(18) -0.25782(18) -0.1359(2)
C1 C 0.09585(19) -0.4476(2) -0.4271(2)
O9 O 0.09781(18) -0.43123(16) -0.53591(17)
C2 C 0.1369(2) -0.5490(2) -0.3805(3)
C3 C 0.0755(2) -0.61461(18) -0.3017(2)
C4 C 0.16799(18) -0.4865(2) -0.0300(2)
C5 C 0.2500 -0.5518(3) 0.0000
H1 H 0.238(5) -0.597(6) 0.055(6)
H2 H 0.006(2) -0.331(4) 0.106(5)
H3 H -0.006(2) -0.236(4) 0.067(4)
H4 H -0.119(3) -0.470(3) -0.331(3)
H5 H -0.160(3) -0.391(3) -0.302(4)
H6 H -0.151(3) -0.245(3) -0.193(4)
H7 H -0.111(4) -0.195(5) -0.099(5)
H8 H 0.152(2) -0.587(3) -0.437(3)
H9 H 0.191(3) -0.526(3) -0.331(3)
Pr1D Pr -0.007140(12) -0.614560(12) 0.149360(14)
Pr1G Pr 0.507140(12) -0.614560(12) -0.149360(14)
Pr1C Pr 0.492860(12) -0.385440(12) 0.149360(14)
Pr1E Pr 0.007140(12) -0.885440(12) -0.350640(14)
Pr1F Pr 0.492860(12) -0.885440(12) 0.350640(14)
O1C O 0.4371(2) -0.38271(14) 0.35451(16)
O2E O 0.07378(15) -0.21181(14) -0.18278(19)
O2F O 0.42622(15) -0.21181(14) 0.18278(19)
O2C O 0.42622(15) -0.71181(14) 0.31722(19)
O3C O 0.46846(15) -0.56770(15) 0.22100(16)
O4C O 0.40834(13) -0.50865(14) -0.01478(15)
O4D O -0.09166(13) -0.49135(14) -0.01478(15)
O4G O 0.59166(13) -0.49135(14) 0.01478(15)
O5C O 0.32549(14) -0.41311(16) 0.1041(2)
O6C O 0.48108(15) -0.2959(2) -0.0509(2)
O7C O 0.62588(16) -0.4348(2) 0.2806(2)
O8C O 0.62119(18) -0.25782(18) 0.1359(2)
C1C C 0.40415(19) -0.4476(2) 0.4271(2)
O9C O 0.40219(18) -0.43123(16) 0.53591(17)
C2C C 0.3631(2) -0.5490(2) 0.3805(3)
C3C C 0.4245(2) -0.61461(18) 0.3017(2)
C4C C 0.33201(18) -0.4865(2) 0.0300(2)
H1C H 0.262(5) -0.597(6) -0.055(6)
H2C H 0.494(2) -0.331(4) -0.106(5)
H3C H 0.506(2) -0.236(4) -0.067(4)
H4C H 0.619(3) -0.470(3) 0.331(3)
H5C H 0.660(3) -0.391(3) 0.302(4)
H6C H 0.651(3) -0.245(3) 0.193(4)
H7C H 0.611(4) -0.195(5) 0.099(5)
H8C H 0.348(2) -0.587(3) 0.437(3)
H9C H 0.309(3) -0.526(3) 0.331(3)
O10 O 0.1971(2) -0.2546(2) 0.1415(2)
H10 H 0.243(5) -0.279(5) 0.143(5)
H11 H 0.154(4) -0.278(4) 0.092(5)
loop_
_geom_bond_atom_site_label_1
_geom_bond_atom_site_label_2
_geom_bond_site_symmetry_1
_geom_bond_site_symmetry_2
Pr1 O1 1_555 1_555
O1 C1 1_555 1_555
O2 C3 1_555 1_555
O3 Pr1 1_555 1_555
O4 Pr1 1_555 1_555
O5 Pr1 1_555 1_555
O6 Pr1 1_555 1_555
O7 Pr1 1_555 1_555
O8 Pr1 1_555 1_555
C1 O9 1_555 1_555
C2 C1 1_555 1_555
C3 O3 1_555 1_555
C4 O4 1_555 1_555
C5 C4 1_555 1_555
H1 C5 1_555 1_555
H2 O6 1_555 1_555
H3 O6 1_555 1_555
H4 O7 1_555 1_555
H5 O7 1_555 1_555
H6 O8 1_555 1_555
H7 O8 1_555 1_555
H8 C2 1_555 1_555
H9 C2 1_555 1_555
O10 H10 1_555 1_555
H11 O10 1_555 1_555
Pr1D O4 1_555 1_555
Pr1G O4C 1_555 1_555
Pr1C O1C 1_555 1_555
Pr1E O2 1_555 1_555
Pr1F O2C 1_555 1_555
O1C C1C 1_555 1_555
O2E Pr1 1_555 1_555
O2F Pr1C 1_555 1_555
O2C C3C 1_555 1_555
O3C Pr1C 1_555 1_555
O4C Pr1C 1_555 1_555
O4D Pr1 1_555 1_555
O4G Pr1G 1_555 1_555
O5C Pr1C 1_555 1_555
O6C Pr1C 1_555 1_555
O7C Pr1C 1_555 1_555
O8C Pr1C 1_555 1_555
C1C O9C 1_555 1_555
C2C C1C 1_555 1_555
C3C O3C 1_555 1_555
C4C C5 1_555 1_555
H1C C5 1_555 1_555
H2C O6C 1_555 1_555
H3C O6C 1_555 1_555
H4C O7C 1_555 1_555
H5C O7C 1_555 1_555
H6C O8C 1_555 1_555
H7C O8C 1_555 1_555
H8C C2C 1_555 1_555
H9C C2C 1_555 1_555
O5 C4 1_555 1_555
C2 C3 1_555 1_555
Pr1D O4D 1_555 1_555
Pr1C O4G 1_555 1_555
O4C C4C 1_555 1_555
O5C C4C 1_555 1_555
C2C C3C 1_555 1_555

#END
