
#######################################################################
#
#                 Cambridge Crystallographic Data Centre
#                                CCDC 
#
#######################################################################
#
# If this CIF has been generated from an entry in the Cambridge 
# Structural Database, then it will include bibliographic, chemical, 
# crystal, experimental, refinement or atomic coordinate data resulting 
# from the CCDC's data processing and validation procedures.
#
#######################################################################

data_EPUTIT
_symmetry_cell_setting           triclinic
_symmetry_space_group_name_H-M   'P -1'
_symmetry_Int_Tables_number      2
_space_group_name_Hall           '-P 1'
loop_
_symmetry_equiv_pos_site_id
_symmetry_equiv_pos_as_xyz
1 x,y,z
2 -x,-y,-z
_cell_length_a                   12.1005(8)
_cell_length_b                   18.0915(12)
_cell_length_c                   24.1686(16)
_cell_angle_alpha                108.5320(10)
_cell_angle_beta                 96.5300(10)
_cell_angle_gamma                104.6880(10)
_cell_volume                     4742.45
loop_
_atom_site_label
_atom_site_type_symbol
_atom_site_fract_x
_atom_site_fract_y
_atom_site_fract_z
Ag1 Ag -0.86952(7) -0.00323(4) 0.09038(4)
Ag2 Ag -0.59576(5) -0.24069(4) 0.11974(3)
Ag3 Ag -0.14538(5) -0.34307(4) 0.15346(3)
Ag4 Ag -0.61796(5) -0.29331(4) 0.23229(3)
Ag5 Ag -0.15010(6) -0.05869(4) 0.40031(3)
Ag6 Ag 0.32710(5) 0.20883(4) 0.52964(3)
Ag7 Ag 0.86864(5) 0.33510(4) 0.56857(3)
Ag8 Ag -1.64653(6) 0.37309(4) 0.49687(3)
Ag9 Ag -1.30437(6) 0.42903(4) 0.33107(3)
Ag10 Ag -0.99814(5) 0.41762(4) 0.14111(3)
Ag11 Ag -1.55033(5) 0.37018(4) 0.04974(3)
Ag12 Ag -1.12213(5) 0.24004(4) 0.04453(3)
N1 N -0.8202(6) -0.0966(4) 0.1083(3)
N2 N -0.7202(6) -0.1798(4) 0.1177(3)
N3 N -0.4774(5) -0.3075(4) 0.1203(3)
N4 N -0.3152(5) -0.3408(4) 0.1339(3)
N5 N 0.0193(5) -0.3581(4) 0.1620(3)
N6 N 0.2074(5) -0.3416(4) 0.1880(3)
N7 N -0.4452(5) -0.2459(4) 0.2795(3)
N8 N -0.2811(5) -0.1638(4) 0.3431(3)
N9 N -0.0233(6) 0.0509(4) 0.4538(3)
N10 N 0.1504(5) 0.1422(4) 0.4995(3)
N11 N 0.5035(5) 0.2717(4) 0.5643(3)
N12 N 0.6969(5) 0.3139(4) 0.5794(3)
N13 N -1.9541(5) 0.3607(4) 0.5676(3)
N14 N -1.7848(6) 0.3629(4) 0.5410(3)
N15 N -1.4998(6) 0.3908(4) 0.4594(3)
N16 N -1.3757(6) 0.4122(4) 0.4019(3)
N17 N -1.2362(5) 0.4418(4) 0.2589(3)
N18 N -1.1214(5) 0.4403(4) 0.1927(3)
N19 N -0.8759(5) 0.3960(3) 0.0878(3)
N20 N -0.7105(5) 0.3888(3) 0.0585(3)
N21 N -1.3905(5) 0.3529(4) 0.0384(3)
N22 N -1.2368(5) 0.3074(4) 0.0363(3)
N23 N -1.0042(5) 0.1754(4) 0.0545(3)
N24 N -0.9125(6) 0.0899(4) 0.0695(4)
C1 C -0.8963(7) -0.1713(5) 0.0953(4)
H1 H -0.9772 -0.1852 0.0848
C2 C -0.8359(7) -0.2220(5) 0.1001(4)
H2 H -0.8680 -0.2776 0.0925
C3 C -0.7147(8) -0.1041(5) 0.1219(4)
C4 C -0.5991(12) -0.0343(8) 0.1451(7)
H3 H -0.5362 -0.0575 0.1520
C5 C -0.5766(15) 0.0026(11) 0.1004(8)
H4 H -0.5734 -0.0383 0.0643
H5 H -0.5034 0.0457 0.1151
H6 H -0.6383 0.0247 0.0924
C6 C -0.6015(15) 0.0276(11) 0.2043(8)
H7 H -0.5289 0.0713 0.2186
H8 H -0.6125 0.0012 0.2329
H9 H -0.6647 0.0494 0.1988
C7 C -0.5082(6) -0.3879(5) 0.1108(3)
H10 H -0.5843 -0.4231 0.1003
C8 C -0.4091(6) -0.4090(5) 0.1190(3)
H11 H -0.4059 -0.4612 0.1151
C9 C -0.3602(7) -0.2805(5) 0.1349(3)
C10 C -0.2914(8) -0.1945(6) 0.1459(5)
H12 H -0.3522 -0.1676 0.1514
C11 C -0.2601(13) -0.1815(7) 0.0935(5)
H13 H -0.2161 -0.1251 0.1037
H14 H -0.3297 -0.1951 0.0641
H15 H -0.2135 -0.2156 0.0776
C12 C -0.2125(13) -0.1505(8) 0.1997(6)
H16 H -0.1743 -0.0965 0.2008
H17 H -0.1552 -0.1778 0.2037
H18 H -0.2530 -0.1468 0.2319
C13 C 0.0487(6) -0.4140(4) 0.1176(3)
H19 H -0.0020 -0.4519 0.0824
C14 C 0.1636(6) -0.4047(4) 0.1333(4)
H20 H 0.2056 -0.4353 0.1113
C15 C 0.1172(6) -0.3162(5) 0.2033(3)
C16 C 0.1276(9) -0.2490(7) 0.2606(4)
H21 H 0.2089 -0.2383 0.2797
C17 C 0.0691(14) -0.2757(10) 0.3008(6)
H22 H 0.0799 -0.2298 0.3367
H23 H 0.1001 -0.3152 0.3101
H24 H -0.0127 -0.3004 0.2831
C18 C 0.1336(14) -0.1728(9) 0.2557(6)
H25 H 0.1415 -0.1331 0.2945
H26 H 0.0635 -0.1778 0.2299
H27 H 0.1999 -0.1556 0.2393
C19 C -0.3680(7) -0.2884(5) 0.2791(3)
H28 H -0.3824 -0.3433 0.2563
C20 C -0.2682(7) -0.2391(5) 0.3167(3)
H29 H -0.2009 -0.2535 0.3239
C21 C -0.3889(7) -0.1712(5) 0.3186(4)
C22 C -0.4425(10) -0.1024(7) 0.3347(6)
H30 H -0.5135 -0.1316 0.3033
C23 C -0.4987(15) -0.0998(10) 0.3810(8)
H31 H -0.5311 -0.0552 0.3890
H32 H -0.4441 -0.0921 0.4159
H33 H -0.5604 -0.1504 0.3705
C24 C -0.4034(16) -0.0399(10) 0.3132(8)
H34 H -0.4433 0.0001 0.3259
H35 H -0.4191 -0.0623 0.2703
H36 H -0.3208 -0.0145 0.3284
C25 C -0.0347(7) 0.1083(5) 0.5033(4)
H37 H -0.1045 0.1093 0.5157
C26 C 0.0693(7) 0.1625(5) 0.5312(4)
H38 H 0.0845 0.2071 0.5665
C27 C 0.0890(7) 0.0739(5) 0.4529(4)
C28 C 0.1400(10) 0.0282(7) 0.4034(5)
H39 H 0.0834 -0.0268 0.3854
C29 C 0.2507(10) 0.0151(8) 0.4232(7)
H40 H 0.2760 -0.0145 0.3890
H41 H 0.2393 -0.0160 0.4488
H42 H 0.3091 0.0670 0.4445
C30 C 0.1416(15) 0.0616(10) 0.3548(7)
H43 H 0.0665 0.0675 0.3436
H44 H 0.1591 0.0249 0.3209
H45 H 0.2002 0.1142 0.3684
C31 C 0.5462(7) 0.3357(6) 0.6164(4)
H46 H 0.5011 0.3578 0.6417
C32 C 0.6628(7) 0.3627(6) 0.6264(4)
H47 H 0.7120 0.4065 0.6593
C33 C 0.5985(7) 0.2617(5) 0.5435(4)
C34 C 0.5892(9) 0.1910(7) 0.4872(5)
H48 H 0.5075 0.1569 0.4780
C35 C 0.6546(14) 0.1366(8) 0.4936(6)
H49 H 0.6429 0.0938 0.4557
H50 H 0.6283 0.1129 0.5220
H51 H 0.7363 0.1668 0.5075
C36 C 0.5996(14) 0.2132(9) 0.4370(6)
H52 H 0.5919 0.1654 0.4029
H53 H 0.6748 0.2526 0.4442
H54 H 0.5394 0.2366 0.4294
C37 C -1.8724(7) 0.3786(5) 0.6168(4)
H55 H -1.8852 0.3882 0.6554
C38 C -1.7684(7) 0.3804(5) 0.6005(4)
H56 H -1.6977 0.3916 0.6260
C39 C -1.8981(7) 0.3514(5) 0.5226(4)
C40 C -1.9566(12) 0.3315(8) 0.4587(5)
H57 H -1.8846 0.3545 0.4469
C41 C -2.0120(13) 0.3849(9) 0.4474(7)
H58 H -2.0455 0.3657 0.4055
H59 H -1.9563 0.4384 0.4592
H60 H -2.0727 0.3879 0.4696
C42 C -1.9759(14) 0.2556(10) 0.4213(7)
H61 H -2.0132 0.2499 0.3823
H62 H -2.0256 0.2179 0.4351
H63 H -1.9029 0.2442 0.4195
C43 C -1.3914(8) 0.4244(5) 0.4935(4)
H64 H -1.3725 0.4362 0.5344
C44 C -1.3141(8) 0.4384(5) 0.4589(4)
H65 H -1.2335 0.4617 0.4718
C45 C -1.4865(7) 0.3849(5) 0.4051(4)
C46 C -1.5841(9) 0.3510(8) 0.3510(5)
H66 H -1.5420 0.3588 0.3200
C47 C -1.6357(14) 0.2654(10) 0.3290(7)
H67 H -1.6966 0.2496 0.2945
H68 H -1.6684 0.2492 0.3593
H69 H -1.5775 0.2392 0.3183
C48 C -1.6613(14) 0.4003(11) 0.3507(6)
H70 H -1.7210 0.3741 0.3148
H71 H -1.6173 0.4534 0.3523
H72 H -1.6969 0.4059 0.3847
C49 C -1.2783(6) 0.4714(5) 0.2186(4)
H73 H -1.3440 0.4892 0.2187
C50 C -1.2082(6) 0.4708(5) 0.1783(3)
H74 H -1.2180 0.4883 0.1463
C51 C -1.1412(6) 0.4245(5) 0.2419(3)
C52 C -1.0613(9) 0.3978(7) 0.2772(5)
H75 H -1.0996 0.3996 0.3110
C53 C -1.0749(15) 0.3170(11) 0.2546(8)
H76 H -1.0213 0.3039 0.2796
H77 H -1.0597 0.3027 0.2150
H78 H -1.1536 0.2867 0.2530
C54 C -0.9480(12) 0.4594(9) 0.3089(6)
H79 H -0.9024 0.4368 0.3302
H80 H -0.9603 0.5065 0.3367
H81 H -0.9072 0.4753 0.2807
C55 C -0.8882(6) 0.3919(4) 0.0299(3)
H82 H -0.9549 0.3917 0.0065
C56 C -0.7874(6) 0.3882(4) 0.0126(3)
H83 H -0.7726 0.3856 -0.0247
C57 C -0.7662(6) 0.3940(4) 0.1034(3)
C58 C -0.7148(9) 0.3985(6) 0.1639(4)
H84 H -0.7874 0.3992 0.1781
C59 C -0.6517(12) 0.4804(7) 0.2055(5)
H85 H -0.6225 0.4780 0.2433
H86 H -0.7032 0.5135 0.2106
H87 H -0.5874 0.5041 0.1903
C60 C -0.7140(14) 0.3297(9) 0.1732(7)
H88 H -0.6801 0.3427 0.2143
H89 H -0.6687 0.3030 0.1482
H90 H -0.7927 0.2939 0.1637
C61 C -1.3076(6) 0.4016(5) 0.0196(3)
H91 H -1.3144 0.4459 0.0094
C62 C -1.2156(6) 0.3735(4) 0.0188(3)
H92 H -1.1471 0.3957 0.0079
C63 C -1.3434(6) 0.2975(4) 0.0478(3)
C64 C -1.4027(8) 0.2313(6) 0.0687(5)
H93 H -1.3480 0.1994 0.0612
C65 C -1.3865(12) 0.2501(8) 0.1304(6)
H94 H -1.4286 0.2032 0.1383
H95 H -1.4151 0.2952 0.1479
H96 H -1.3048 0.2647 0.1473
C66 C -1.5015(15) 0.1716(10) 0.0294(7)
H97 H -1.5326 0.1322 0.0469
H98 H -1.4809 0.1447 -0.0073
H99 H -1.5594 0.1968 0.0213
C67 C -0.9063(6) 0.1846(5) 0.0312(4)
H100 H -0.8819 0.2209 0.0119
C68 C -0.8511(7) 0.1332(5) 0.0407(4)
H101 H -0.7817 0.1281 0.0293
C69 C -1.0059(8) 0.1174(6) 0.0769(5)
C70 C -1.1040(13) 0.0850(10) 0.1072(7)
H102 H -1.1197 0.1378 0.1187
C71 C -1.2199(13) 0.0447(8) 0.0675(8)
H103 H -1.2755 0.0263 0.0893
H104 H -1.2171 -0.0014 0.0348
H105 H -1.2429 0.0828 0.0523
C72 C -1.0549(16) 0.1014(10) 0.1701(7)
H106 H -1.1161 0.0814 0.1886
H107 H -1.0196 0.1593 0.1908
H108 H -0.9968 0.0741 0.1720
Ag4_2 Ag 0.38204(5) -0.29331(4) 0.23229(3)
Ag6_2 Ag -1.67290(5) 0.20883(4) 0.52964(3)
Ag7_2 Ag -2.13136(5) 0.33510(4) 0.56857(3)
Ag8_2 Ag 0.35347(6) 0.37309(4) 0.49687(3)
Ag11_2 Ag -0.55033(5) 0.37018(4) 0.04974(3)
N6_2 N -0.7926(5) -0.3416(4) 0.1880(3)
N13_2 N 1.0459(5) 0.3607(4) 0.5676(3)
N20_2 N -1.7105(5) 0.3888(3) 0.0585(3)
loop_
_geom_bond_atom_site_label_1
_geom_bond_atom_site_label_2
_geom_bond_site_symmetry_1
_geom_bond_site_symmetry_2
Ag1 N1 1_555 1_555
Ag2 Ag4 1_555 1_555
Ag3 N4 1_555 1_555
Ag4 N7 1_555 1_555
Ag5 N8 1_555 1_555
Ag6 N10 1_555 1_555
Ag7 N12 1_555 1_555
Ag8 N14 1_555 1_555
Ag9 N16 1_555 1_555
Ag10 Ag12 1_555 1_555
Ag11 N21 1_555 1_555
Ag12 N22 1_555 1_555
N1 C1 1_555 1_555
N2 Ag2 1_555 1_555
N3 Ag2 1_555 1_555
N4 C8 1_555 1_555
N5 Ag3 1_555 1_555
N6 C14 1_555 1_555
N7 C19 1_555 1_555
N8 C20 1_555 1_555
N9 Ag5 1_555 1_555
N10 C26 1_555 1_555
N11 Ag6 1_555 1_555
N12 C32 1_555 1_555
N13 C37 1_555 1_555
N14 C38 1_555 1_555
N15 Ag8 1_555 1_555
N16 C44 1_555 1_555
N17 Ag9 1_555 1_555
N18 Ag10 1_555 1_555
N19 Ag10 1_555 1_555
N20 C56 1_555 1_555
N21 C61 1_555 1_555
N22 C62 1_555 1_555
N23 Ag12 1_555 1_555
N24 Ag1 1_555 1_555
C1 H1 1_555 1_555
C2 N2 1_555 1_555
H2 C2 1_555 1_555
C3 N1 1_555 1_555
C4 C3 1_555 1_555
H3 C4 1_555 1_555
C5 C4 1_555 1_555
H4 C5 1_555 1_555
H5 C5 1_555 1_555
H6 C5 1_555 1_555
C6 C4 1_555 1_555
H7 C6 1_555 1_555
H8 C6 1_555 1_555
H9 C6 1_555 1_555
C7 N3 1_555 1_555
H10 C7 1_555 1_555
C8 C7 1_555 1_555
H11 C8 1_555 1_555
C9 N3 1_555 1_555
C10 C9 1_555 1_555
H12 C10 1_555 1_555
C11 C10 1_555 1_555
H13 C11 1_555 1_555
H14 C11 1_555 1_555
H15 C11 1_555 1_555
C12 C10 1_555 1_555
H16 C12 1_555 1_555
H17 C12 1_555 1_555
H18 C12 1_555 1_555
C13 N5 1_555 1_555
H19 C13 1_555 1_555
C14 C13 1_555 1_555
H20 C14 1_555 1_555
C15 N5 1_555 1_555
C16 C15 1_555 1_555
H21 C16 1_555 1_555
C17 C16 1_555 1_555
H22 C17 1_555 1_555
H23 C17 1_555 1_555
H24 C17 1_555 1_555
C18 C16 1_555 1_555
H25 C18 1_555 1_555
H26 C18 1_555 1_555
H27 C18 1_555 1_555
C19 H28 1_555 1_555
C20 C19 1_555 1_555
H29 C20 1_555 1_555
C21 N7 1_555 1_555
C22 C21 1_555 1_555
H30 C22 1_555 1_555
C23 C22 1_555 1_555
H31 C23 1_555 1_555
H32 C23 1_555 1_555
H33 C23 1_555 1_555
C24 C22 1_555 1_555
H34 C24 1_555 1_555
H35 C24 1_555 1_555
H36 C24 1_555 1_555
C25 N9 1_555 1_555
H37 C25 1_555 1_555
C26 C25 1_555 1_555
H38 C26 1_555 1_555
C27 N9 1_555 1_555
C28 C27 1_555 1_555
H39 C28 1_555 1_555
C29 C28 1_555 1_555
H40 C29 1_555 1_555
H41 C29 1_555 1_555
H42 C29 1_555 1_555
C30 C28 1_555 1_555
H43 C30 1_555 1_555
H44 C30 1_555 1_555
H45 C30 1_555 1_555
C31 N11 1_555 1_555
H46 C31 1_555 1_555
C32 C31 1_555 1_555
H47 C32 1_555 1_555
C33 N11 1_555 1_555
C34 C33 1_555 1_555
H48 C34 1_555 1_555
C35 C34 1_555 1_555
H49 C35 1_555 1_555
H50 C35 1_555 1_555
H51 C35 1_555 1_555
C36 C34 1_555 1_555
H52 C36 1_555 1_555
H53 C36 1_555 1_555
H54 C36 1_555 1_555
C37 H55 1_555 1_555
C38 C37 1_555 1_555
H56 C38 1_555 1_555
C39 N13 1_555 1_555
C40 C39 1_555 1_555
H57 C40 1_555 1_555
C41 C40 1_555 1_555
H58 C41 1_555 1_555
H59 C41 1_555 1_555
H60 C41 1_555 1_555
C42 C40 1_555 1_555
H61 C42 1_555 1_555
H62 C42 1_555 1_555
H63 C42 1_555 1_555
C43 N15 1_555 1_555
H64 C43 1_555 1_555
C44 C43 1_555 1_555
H65 C44 1_555 1_555
C45 N15 1_555 1_555
C46 C45 1_555 1_555
H66 C46 1_555 1_555
C47 C46 1_555 1_555
H67 C47 1_555 1_555
H68 C47 1_555 1_555
H69 C47 1_555 1_555
C48 C46 1_555 1_555
H70 C48 1_555 1_555
H71 C48 1_555 1_555
H72 C48 1_555 1_555
C49 N17 1_555 1_555
H73 C49 1_555 1_555
C50 N18 1_555 1_555
H74 C50 1_555 1_555
C51 N17 1_555 1_555
C52 C51 1_555 1_555
H75 C52 1_555 1_555
C53 C52 1_555 1_555
H76 C53 1_555 1_555
H77 C53 1_555 1_555
H78 C53 1_555 1_555
C54 C52 1_555 1_555
H79 C54 1_555 1_555
H80 C54 1_555 1_555
H81 C54 1_555 1_555
C55 N19 1_555 1_555
H82 C55 1_555 1_555
C56 C55 1_555 1_555
H83 C56 1_555 1_555
C57 N19 1_555 1_555
C58 C57 1_555 1_555
H84 C58 1_555 1_555
C59 C58 1_555 1_555
H85 C59 1_555 1_555
H86 C59 1_555 1_555
H87 C59 1_555 1_555
C60 C58 1_555 1_555
H88 C60 1_555 1_555
H89 C60 1_555 1_555
H90 C60 1_555 1_555
C61 H91 1_555 1_555
C62 C61 1_555 1_555
H92 C62 1_555 1_555
C63 N21 1_555 1_555
C64 C63 1_555 1_555
H93 C64 1_555 1_555
C65 C64 1_555 1_555
H94 C65 1_555 1_555
H95 C65 1_555 1_555
H96 C65 1_555 1_555
C66 C64 1_555 1_555
H97 C66 1_555 1_555
H98 C66 1_555 1_555
H99 C66 1_555 1_555
C67 N23 1_555 1_555
H100 C67 1_555 1_555
C68 N24 1_555 1_555
H101 C68 1_555 1_555
C69 N23 1_555 1_555
C70 C69 1_555 1_555
H102 C70 1_555 1_555
C71 C70 1_555 1_555
H103 C71 1_555 1_555
H104 C71 1_555 1_555
H105 C71 1_555 1_555
C72 C70 1_555 1_555
H106 C72 1_555 1_555
H107 C72 1_555 1_555
H108 C72 1_555 1_555
Ag4_2 N6 1_555 1_555
Ag6_2 Ag8 1_555 1_555
Ag7_2 N13 1_555 1_555
Ag8_2 Ag6 1_555 1_555
Ag11_2 N20 1_555 1_555
N6_2 Ag4 1_555 1_555
N13_2 Ag7 1_555 1_555
N20_2 Ag11 1_555 1_555
N2 C3 1_555 1_555
N4 C9 1_555 1_555
N6 C15 1_555 1_555
N8 C21 1_555 1_555
N10 C27 1_555 1_555
N12 C33 1_555 1_555
N14 C39 1_555 1_555
N16 C45 1_555 1_555
N18 C51 1_555 1_555
N20 C57 1_555 1_555
N22 C63 1_555 1_555
N24 C69 1_555 1_555
C1 C2 1_555 1_555
C49 C50 1_555 1_555
C67 C68 1_555 1_555

#END
