
#######################################################################
#
#                 Cambridge Crystallographic Data Centre
#                                CCDC 
#
#######################################################################
#
# If this CIF has been generated from an entry in the Cambridge 
# Structural Database, then it will include bibliographic, chemical, 
# crystal, experimental, refinement or atomic coordinate data resulting 
# from the CCDC's data processing and validation procedures.
#
#######################################################################

data_EPUTOZ
_symmetry_cell_setting           orthorhombic
_symmetry_space_group_name_H-M   'P n a 21'
_symmetry_Int_Tables_number      33
_space_group_name_Hall           'P 2c -2n'
loop_
_symmetry_equiv_pos_site_id
_symmetry_equiv_pos_as_xyz
1 x,y,z
2 -x,-y,1/2+z
3 1/2+x,1/2-y,z
4 1/2-x,1/2+y,1/2+z
_cell_length_a                   20.760(3)
_cell_length_b                   36.095(6)
_cell_length_c                   13.531(2)
_cell_angle_alpha                90
_cell_angle_beta                 90
_cell_angle_gamma                90
_cell_volume                     10139.2
loop_
_atom_site_label
_atom_site_type_symbol
_atom_site_fract_x
_atom_site_fract_y
_atom_site_fract_z
Ag1 Ag -0.69683(7) 0.41139(4) -0.12494(15)
Ag2 Ag -0.50843(7) 0.53504(5) -0.00672(13)
Ag3 Ag -0.23836(7) 0.53218(5) 0.16229(14)
Ag4 Ag -0.04749(7) 0.41250(4) 0.31199(12)
Ag5 Ag 0.10570(7) 0.27124(4) 0.43554(12)
Ag6 Ag 0.37256(8) 0.21429(4) 0.57810(16)
Ag7 Ag 0.63956(7) 0.26989(3) 0.72143(12)
Ag8 Ag 0.80023(7) 0.40988(4) 0.83737(13)
Ag9 Ag 0.99210(7) 0.52925(4) 0.98706(13)
Ag10 Ag 1.26094(6) 0.53372(4) 1.16714(12)
Ag11 Ag 1.44664(7) 0.40849(4) 1.28952(14)
Ag12 Ag 1.60442(7) 0.26646(4) 1.22978(13)
Ag13 Ag 1.87827(8) 0.22400(4) 1.07802(17)
Ag14 Ag 2.15181(7) 0.26707(3) 0.92681(12)
N1 N -0.6590(7) 0.4632(4) -0.0969(12)
N2 N -0.5933(7) 0.5096(4) -0.0575(13)
N3 N -0.4226(7) 0.5562(4) 0.0449(11)
N4 N -0.3244(9) 0.5554(5) 0.1101(14)
N5 N -0.1554(7) 0.5047(5) 0.2032(11)
N6 N -0.0837(7) 0.4626(5) 0.2571(12)
N7 N -0.0193(7) 0.3590(4) 0.3561(12)
N8 N 0.0324(7) 0.3068(3) 0.3916(12)
N9 N 0.1821(8) 0.2369(4) 0.4783(12)
N10 N 0.2769(9) 0.2150(5) 0.5187(13)
N11 N 0.4635(8) 0.2168(4) 0.6352(12)
N12 N 0.5641(8) 0.2361(4) 0.6806(12)
N13 N 0.7142(7) 0.3051(3) 0.7618(10)
N14 N 0.7694(6) 0.3562(3) 0.7974(12)
N15 N 0.8404(7) 0.4596(4) 0.8872(13)
N16 N 0.9068(7) 0.5049(4) 0.9320(13)
N17 N 1.0780(6) 0.5523(4) 1.0395(10)
N18 N 1.1770(8) 0.5552(4) 1.1011(12)
N19 N 1.3417(7) 0.5052(4) 1.2171(13)
N20 N 1.4099(7) 0.4611(5) 1.2657(12)
N21 N 1.4764(7) 0.3541(4) 1.2903(14)
N22 N 1.5285(7) 0.3005(4) 1.2707(11)
N23 N 1.6843(9) 0.2372(4) 1.1818(13)
N24 N 1.7843(7) 0.2220(4) 1.1337(12)
N25 N 1.9743(9) 0.2228(4) 1.0224(14)
N26 N 2.0725(8) 0.2365(4) 0.9721(12)
N27 N 2.2261(7) 0.3017(4) 0.8835(12)
N28 N 2.2773(7) 0.3555(4) 0.8634(14)
C1 C -0.6948(8) 0.4957(5) -0.0828(17)
H1 H -0.7392 0.4984 -0.0890
C2 C -0.6507(10) 0.5232(5) -0.0576(15)
H2 H -0.6611 0.5477 -0.0431
C3 C -0.5979(8) 0.4718(5) -0.0849(16)
C4 C -0.5419(7) 0.4459(4) -0.0866(11)
H3 H -0.5021 0.4605 -0.0870
C5 C -0.5457(10) 0.4238(6) -0.1825(14)
H4 H -0.5464 0.4405 -0.2376
H5 H -0.5843 0.4091 -0.1826
H6 H -0.5089 0.4078 -0.1876
C6 C -0.5435(11) 0.4226(6) 0.0071(14)
H7 H -0.5416 0.4385 0.0638
H8 H -0.5073 0.4060 0.0076
H9 H -0.5827 0.4085 0.0089
C7 C -0.4027(9) 0.5918(5) 0.0584(17)
H10 H -0.4264 0.6127 0.0413
C8 C -0.3448(11) 0.5925(5) 0.0994(19)
H11 H -0.3218 0.6135 0.1177
C9 C -0.3771(12) 0.5355(3) 0.0828(17)
C10 C -0.371(2) 0.4944(3) 0.0785(16)
H12 H -0.3246 0.4956 0.0873
C11 C -0.3646(12) 0.4736(6) -0.0169(18)
H13 H -0.3572 0.4907 -0.0699
H14 H -0.4034 0.4599 -0.0296
H15 H -0.3289 0.4568 -0.0123
C12 C -0.3809(11) 0.4804(6) 0.1818(19)
H16 H -0.3854 0.5011 0.2261
H17 H -0.3443 0.4659 0.2011
H18 H -0.4190 0.4654 0.1845
C13 C -0.0899(9) 0.5197(6) 0.2044(15)
H19 H -0.0780 0.5432 0.1829
C14 C -0.0517(8) 0.4952(6) 0.2398(18)
H20 H -0.0081 0.4990 0.2521
C15 C -0.1465(7) 0.4711(4) 0.2328(13)
C16 C -0.1997(8) 0.4434(4) 0.2378(12)
H21 H -0.2393 0.4581 0.2352
C17 C -0.2070(11) 0.4193(7) 0.3290(14)
H22 H -0.2049 0.4345 0.3871
H23 H -0.1730 0.4013 0.3308
H24 H -0.2479 0.4068 0.3269
C18 C -0.2046(12) 0.4170(8) 0.1510(19)
H25 H -0.2016 0.4307 0.0904
H26 H -0.2453 0.4043 0.1534
H27 H -0.1703 0.3992 0.1543
C19 C -0.0656(9) 0.3312(5) 0.3693(17)
H28 H -0.1101 0.3338 0.3657
C20 C -0.0318(10) 0.2998(5) 0.3884(14)
H29 H -0.0501 0.2766 0.3980
C21 C 0.0379(6) 0.3435(4) 0.3727(13)
C22 C 0.1009(7) 0.3630(4) 0.3763(11)
H30 H 0.1346 0.3444 0.3653
C23 C 0.1088(10) 0.3926(5) 0.2971(17)
H31 H 0.1005 0.3820 0.2333
H32 H 0.1519 0.4021 0.2989
H33 H 0.0788 0.4124 0.3091
C24 C 0.1129(9) 0.3800(5) 0.4770(14)
H34 H 0.1073 0.3615 0.5272
H35 H 0.0830 0.3999 0.4879
H36 H 0.1561 0.3894 0.4799
C25 C 0.1798(9) 0.1992(4) 0.4740(16)
H37 H 0.1442 0.1849 0.4574
C26 C 0.2410(10) 0.1860(5) 0.4994(15)
H38 H 0.2538 0.1613 0.5021
C27 C 0.2408(11) 0.2466(4) 0.5038(19)
C28 C 0.2635(12) 0.2858(5) 0.5144(16)
H39 H 0.3069 0.2777 0.5331
C29 C 0.2879(14) 0.3035(8) 0.4215(19)
H40 H 0.3026 0.2847 0.3767
H41 H 0.3229 0.3199 0.4371
H42 H 0.2538 0.3174 0.3910
C30 C 0.2527(18) 0.3035(8) 0.6136(19)
H43 H 0.2443 0.2847 0.6619
H44 H 0.2166 0.3200 0.6098
H45 H 0.2905 0.3172 0.6324
C31 C 0.5036(8) 0.1856(5) 0.6578(16)
H46 H 0.4903 0.1610 0.6572
C32 C 0.5652(8) 0.1978(4) 0.6807(13)
H47 H 0.6008 0.1829 0.6937
C33 C 0.5013(9) 0.2447(4) 0.6536(19)
C34 C 0.4722(12) 0.2822(5) 0.6409(14)
H48 H 0.4273 0.2770 0.6232
C35 C 0.4670(17) 0.3035(7) 0.7363(17)
H49 H 0.4545 0.2869 0.7884
H50 H 0.4353 0.3226 0.7295
H51 H 0.5080 0.3143 0.7518
C36 C 0.4987(16) 0.3013(7) 0.551(2)
H52 H 0.5066 0.2834 0.5002
H53 H 0.5384 0.3135 0.5679
H54 H 0.4682 0.3193 0.5278
C37 C 0.7788(9) 0.2966(5) 0.7688(14)
H55 H 0.7964 0.2731 0.7615
C38 C 0.8113(8) 0.3266(5) 0.7874(14)
H56 H 0.8559 0.3280 0.7930
C39 C 0.7116(6) 0.3417(4) 0.7817(12)
C40 C 0.6503(6) 0.3631(4) 0.7785(11)
H57 H 0.6167 0.3446 0.7911
C41 C 0.6349(11) 0.3781(5) 0.6767(12)
H58 H 0.6391 0.3586 0.6289
H59 H 0.6642 0.3977 0.6609
H60 H 0.5916 0.3874 0.6759
C42 C 0.6427(9) 0.3910(5) 0.8614(16)
H61 H 0.6522 0.3793 0.9234
H62 H 0.5993 0.4001 0.8622
H63 H 0.6719 0.4112 0.8511
C43 C 0.8051(8) 0.4920(4) 0.9018(13)
H64 H 0.7609 0.4949 0.8946
C44 C 0.8501(9) 0.5197(5) 0.9299(14)
H65 H 0.8404 0.5442 0.9444
C45 C 0.9014(7) 0.4674(5) 0.9032(13)
C46 C 0.9567(8) 0.4411(4) 0.9071(11)
H66 H 0.9965 0.4557 0.9092
C47 C 0.9571(10) 0.4184(6) 0.8127(15)
H67 H 0.9572 0.4348 0.7567
H68 H 0.9193 0.4031 0.8105
H69 H 0.9948 0.4031 0.8111
C48 C 0.9515(11) 0.4194(6) 1.0036(15)
H70 H 0.9499 0.4364 1.0582
H71 H 0.9883 0.4035 1.0105
H72 H 0.9130 0.4047 1.0028
C49 C 1.0924(8) 0.5896(5) 1.0554(13)
H73 H 1.0656 0.6096 1.0413
C50 C 1.1514(8) 0.5914(5) 1.0944(14)
H74 H 1.1723 0.6130 1.1140
C51 C 1.1262(11) 0.5331(3) 1.0731(17)
C52 C 1.1442(7) 0.4931(3) 1.0618(9)
H75 H 1.1909 0.4912 1.0713
C53 C 1.1287(8) 0.4758(4) 0.9623(11)
H76 H 1.1485 0.4901 0.9107
H77 H 1.0828 0.4755 0.9529
H78 H 1.1448 0.4509 0.9605
C54 C 1.1124(10) 0.4713(5) 1.1439(12)
H79 H 1.1210 0.4830 1.2062
H80 H 1.1293 0.4465 1.1447
H81 H 1.0668 0.4704 1.1329
C55 C 1.4062(8) 0.5187(6) 1.2228(19)
H82 H 1.4186 0.5429 1.2083
C56 C 1.4442(9) 0.4931(7) 1.2506(16)
H83 H 1.4884 0.4957 1.2593
C57 C 1.3480(7) 0.4709(4) 1.2411(14)
C58 C 1.2937(8) 0.4439(4) 1.2487(12)
H84 H 1.2542 0.4587 1.2473
C59 C 1.2885(11) 0.4172(6) 1.1627(17)
H85 H 1.2895 0.4308 1.1018
H86 H 1.2487 0.4038 1.1674
H87 H 1.3239 0.4001 1.1646
C60 C 1.2903(10) 0.4212(6) 1.3424(14)
H88 H 1.2933 0.4374 1.3986
H89 H 1.3252 0.4038 1.3436
H90 H 1.2501 0.4081 1.3444
C61 C 1.4315(8) 0.3247(5) 1.2869(16)
H91 H 1.3869 0.3268 1.2908
C62 C 1.4655(8) 0.2929(4) 1.2770(15)
H92 H 1.4476 0.2693 1.2748
C63 C 1.5319(6) 0.3379(4) 1.2829(13)
C64 C 1.5946(7) 0.3585(4) 1.2788(11)
H93 H 1.6288 0.3403 1.2910
C65 C 1.6006(10) 0.3879(5) 1.3583(18)
H94 H 1.5937 0.3769 1.4220
H95 H 1.5690 0.4069 1.3473
H96 H 1.6429 0.3986 1.3560
C66 C 1.6074(10) 0.3750(5) 1.1782(14)
H97 H 1.6034 0.3561 1.1287
H98 H 1.6502 0.3851 1.1765
H99 H 1.5767 0.3943 1.1653
C67 C 1.6888(8) 0.1983(4) 1.1772(15)
H100 H 1.6559 0.1817 1.1919
C68 C 1.7503(9) 0.1888(5) 1.1472(17)
H101 H 1.7662 0.1649 1.1377
C69 C 1.7459(11) 0.2480(4) 1.160(2)
C70 C 1.7668(13) 0.2873(5) 1.1447(16)
H102 H 1.8097 0.2798 1.1223
C71 C 1.7925(16) 0.3037(7) 1.2383(18)
H103 H 1.7855 0.2868 1.2919
H104 H 1.7708 0.3266 1.2518
H105 H 1.8379 0.3083 1.2312
C72 C 1.7515(14) 0.3057(7) 1.0480(18)
H106 H 1.7231 0.2902 1.0103
H107 H 1.7906 0.3096 1.0116
H108 H 1.7310 0.3291 1.0602
C73 C 2.0073(10) 0.1917(5) 1.0076(16)
H109 H 1.9914 0.1679 1.0176
C74 C 2.0653(9) 0.1996(5) 0.9769(16)
H110 H 2.0968 0.1823 0.9609
C75 C 2.0155(9) 0.2495(3) 1.0029(16)
C76 C 2.0025(8) 0.2906(4) 1.0055(13)
H111 H 2.0431 0.3023 0.9858
C77 C 1.9546(12) 0.3019(6) 0.9276(18)
H112 H 1.9664 0.2910 0.8655
H113 H 1.9545 0.3284 0.9214
H114 H 1.9124 0.2935 0.9463
C78 C 1.9903(14) 0.3039(7) 1.1094(15)
H115 H 2.0246 0.2956 1.1516
H116 H 1.9501 0.2940 1.1326
H117 H 1.9884 0.3304 1.1101
C79 C 2.2928(10) 0.2953(5) 0.8850(17)
H118 H 2.3121 0.2722 0.8906
C80 C 2.3244(10) 0.3276(6) 0.8772(18)
H119 H 2.3688 0.3310 0.8803
C81 C 2.2205(6) 0.3389(4) 0.8763(15)
C82 C 2.1574(7) 0.3586(4) 0.8756(11)
H120 H 2.1248 0.3395 0.8635
C83 C 2.1432(9) 0.3737(5) 0.9772(13)
H121 H 2.1464 0.3541 1.0249
H122 H 2.1005 0.3839 0.9783
H123 H 2.1738 0.3928 0.9930
C84 C 2.1521(10) 0.3856(5) 0.7899(15)
H124 H 2.1619 0.3730 0.7292
H125 H 2.1820 0.4056 0.7993
H126 H 2.1091 0.3953 0.7869
Ag1_2 Ag 2.30317(7) 0.41139(4) 0.87506(15)
Ag5B Ag 1.60570(7) 0.22876(4) 1.43554(12)
Ag7B Ag 2.13956(7) 0.23011(3) 0.72143(12)
Ag12B Ag 0.10442(7) 0.23354(4) 0.22978(13)
Ag14B Ag 0.65181(7) 0.23293(3) 0.92681(12)
N28_2 N -0.7227(7) 0.3555(4) -0.1366(14)
loop_
_geom_bond_atom_site_label_1
_geom_bond_atom_site_label_2
_geom_bond_site_symmetry_1
_geom_bond_site_symmetry_2
Ag1 N1 1_555 1_555
Ag2 N2 1_555 1_555
Ag3 N4 1_555 1_555
Ag4 N6 1_555 1_555
Ag5 N8 1_555 1_555
Ag6 N10 1_555 1_555
Ag7 N12 1_555 1_555
Ag8 N14 1_555 1_555
Ag9 N16 1_555 1_555
Ag10 N18 1_555 1_555
Ag11 N20 1_555 1_555
Ag12 N22 1_555 1_555
Ag13 N24 1_555 1_555
Ag14 N26 1_555 1_555
N1 C1 1_555 1_555
N2 C2 1_555 1_555
N3 Ag2 1_555 1_555
N4 C8 1_555 1_555
N5 Ag3 1_555 1_555
N6 C14 1_555 1_555
N7 Ag4 1_555 1_555
N8 C20 1_555 1_555
N9 Ag5 1_555 1_555
N10 C26 1_555 1_555
N11 Ag6 1_555 1_555
N12 C32 1_555 1_555
N13 Ag7 1_555 1_555
N14 C38 1_555 1_555
N15 Ag8 1_555 1_555
N16 C44 1_555 1_555
N17 Ag9 1_555 1_555
N18 C50 1_555 1_555
N19 Ag10 1_555 1_555
N20 C56 1_555 1_555
N21 Ag11 1_555 1_555
N22 C62 1_555 1_555
N23 Ag12 1_555 1_555
N24 C68 1_555 1_555
N25 Ag13 1_555 1_555
N26 C74 1_555 1_555
N27 Ag14 1_555 1_555
N28 C80 1_555 1_555
C1 H1 1_555 1_555
C2 C1 1_555 1_555
H2 C2 1_555 1_555
C3 N1 1_555 1_555
C4 C3 1_555 1_555
H3 C4 1_555 1_555
C5 C4 1_555 1_555
H4 C5 1_555 1_555
H5 C5 1_555 1_555
H6 C5 1_555 1_555
C6 C4 1_555 1_555
H7 C6 1_555 1_555
H8 C6 1_555 1_555
H9 C6 1_555 1_555
C7 N3 1_555 1_555
H10 C7 1_555 1_555
C8 C7 1_555 1_555
H11 C8 1_555 1_555
C9 N3 1_555 1_555
C10 C9 1_555 1_555
H12 C10 1_555 1_555
C11 C10 1_555 1_555
H13 C11 1_555 1_555
H14 C11 1_555 1_555
H15 C11 1_555 1_555
C12 C10 1_555 1_555
H16 C12 1_555 1_555
H17 C12 1_555 1_555
H18 C12 1_555 1_555
C13 N5 1_555 1_555
H19 C13 1_555 1_555
C14 C13 1_555 1_555
H20 C14 1_555 1_555
C15 N5 1_555 1_555
C16 C15 1_555 1_555
H21 C16 1_555 1_555
C17 C16 1_555 1_555
H22 C17 1_555 1_555
H23 C17 1_555 1_555
H24 C17 1_555 1_555
C18 C16 1_555 1_555
H25 C18 1_555 1_555
H26 C18 1_555 1_555
H27 C18 1_555 1_555
C19 N7 1_555 1_555
H28 C19 1_555 1_555
C20 C19 1_555 1_555
H29 C20 1_555 1_555
C21 N7 1_555 1_555
C22 C21 1_555 1_555
H30 C22 1_555 1_555
C23 C22 1_555 1_555
H31 C23 1_555 1_555
H32 C23 1_555 1_555
H33 C23 1_555 1_555
C24 C22 1_555 1_555
H34 C24 1_555 1_555
H35 C24 1_555 1_555
H36 C24 1_555 1_555
C25 N9 1_555 1_555
H37 C25 1_555 1_555
C26 C25 1_555 1_555
H38 C26 1_555 1_555
C27 N9 1_555 1_555
C28 C27 1_555 1_555
H39 C28 1_555 1_555
C29 C28 1_555 1_555
H40 C29 1_555 1_555
H41 C29 1_555 1_555
H42 C29 1_555 1_555
C30 C28 1_555 1_555
H43 C30 1_555 1_555
H44 C30 1_555 1_555
H45 C30 1_555 1_555
C31 N11 1_555 1_555
H46 C31 1_555 1_555
C32 C31 1_555 1_555
H47 C32 1_555 1_555
C33 N11 1_555 1_555
C34 C33 1_555 1_555
H48 C34 1_555 1_555
C35 C34 1_555 1_555
H49 C35 1_555 1_555
H50 C35 1_555 1_555
H51 C35 1_555 1_555
C36 C34 1_555 1_555
H52 C36 1_555 1_555
H53 C36 1_555 1_555
H54 C36 1_555 1_555
C37 N13 1_555 1_555
H55 C37 1_555 1_555
C38 C37 1_555 1_555
H56 C38 1_555 1_555
C39 N13 1_555 1_555
C40 C39 1_555 1_555
H57 C40 1_555 1_555
C41 C40 1_555 1_555
H58 C41 1_555 1_555
H59 C41 1_555 1_555
H60 C41 1_555 1_555
C42 C40 1_555 1_555
H61 C42 1_555 1_555
H62 C42 1_555 1_555
H63 C42 1_555 1_555
C43 N15 1_555 1_555
H64 C43 1_555 1_555
C44 C43 1_555 1_555
H65 C44 1_555 1_555
C45 N15 1_555 1_555
C46 C45 1_555 1_555
H66 C46 1_555 1_555
C47 C46 1_555 1_555
H67 C47 1_555 1_555
H68 C47 1_555 1_555
H69 C47 1_555 1_555
C48 C46 1_555 1_555
H70 C48 1_555 1_555
H71 C48 1_555 1_555
H72 C48 1_555 1_555
C49 N17 1_555 1_555
H73 C49 1_555 1_555
C50 C49 1_555 1_555
H74 C50 1_555 1_555
C51 N17 1_555 1_555
C52 C51 1_555 1_555
H75 C52 1_555 1_555
C53 C52 1_555 1_555
H76 C53 1_555 1_555
H77 C53 1_555 1_555
H78 C53 1_555 1_555
C54 C52 1_555 1_555
H79 C54 1_555 1_555
H80 C54 1_555 1_555
H81 C54 1_555 1_555
C55 N19 1_555 1_555
H82 C55 1_555 1_555
C56 C55 1_555 1_555
H83 C56 1_555 1_555
C57 N19 1_555 1_555
C58 C57 1_555 1_555
H84 C58 1_555 1_555
C59 C58 1_555 1_555
H85 C59 1_555 1_555
H86 C59 1_555 1_555
H87 C59 1_555 1_555
C60 C58 1_555 1_555
H88 C60 1_555 1_555
H89 C60 1_555 1_555
H90 C60 1_555 1_555
C61 N21 1_555 1_555
H91 C61 1_555 1_555
C62 C61 1_555 1_555
H92 C62 1_555 1_555
C63 N21 1_555 1_555
C64 C63 1_555 1_555
H93 C64 1_555 1_555
C65 C64 1_555 1_555
H94 C65 1_555 1_555
H95 C65 1_555 1_555
H96 C65 1_555 1_555
C66 C64 1_555 1_555
H97 C66 1_555 1_555
H98 C66 1_555 1_555
H99 C66 1_555 1_555
C67 N23 1_555 1_555
H100 C67 1_555 1_555
C68 C67 1_555 1_555
H101 C68 1_555 1_555
C69 N23 1_555 1_555
C70 C69 1_555 1_555
H102 C70 1_555 1_555
C71 C70 1_555 1_555
H103 C71 1_555 1_555
H104 C71 1_555 1_555
H105 C71 1_555 1_555
C72 C70 1_555 1_555
H106 C72 1_555 1_555
H107 C72 1_555 1_555
H108 C72 1_555 1_555
C73 N25 1_555 1_555
H109 C73 1_555 1_555
C74 C73 1_555 1_555
H110 C74 1_555 1_555
C75 N25 1_555 1_555
C76 C75 1_555 1_555
H111 C76 1_555 1_555
C77 C76 1_555 1_555
H112 C77 1_555 1_555
H113 C77 1_555 1_555
H114 C77 1_555 1_555
C78 C76 1_555 1_555
H115 C78 1_555 1_555
H116 C78 1_555 1_555
H117 C78 1_555 1_555
C79 N27 1_555 1_555
H118 C79 1_555 1_555
C80 C79 1_555 1_555
H119 C80 1_555 1_555
C81 N27 1_555 1_555
C82 C81 1_555 1_555
H120 C82 1_555 1_555
C83 C82 1_555 1_555
H121 C83 1_555 1_555
H122 C83 1_555 1_555
H123 C83 1_555 1_555
C84 C82 1_555 1_555
H124 C84 1_555 1_555
H125 C84 1_555 1_555
H126 C84 1_555 1_555
Ag1_2 N28 1_555 1_555
Ag5B Ag12 1_555 1_555
Ag7B Ag14 1_555 1_555
Ag12B Ag5 1_555 1_555
Ag14B Ag7 1_555 1_555
N28_2 Ag1 1_555 1_555
N2 C3 1_555 1_555
N4 C9 1_555 1_555
N6 C15 1_555 1_555
N8 C21 1_555 1_555
N10 C27 1_555 1_555
N12 C33 1_555 1_555
N14 C39 1_555 1_555
N16 C45 1_555 1_555
N18 C51 1_555 1_555
N20 C57 1_555 1_555
N22 C63 1_555 1_555
N24 C69 1_555 1_555
N26 C75 1_555 1_555
N28 C81 1_555 1_555

#END
