
#######################################################################
#
#                 Cambridge Crystallographic Data Centre
#                                CCDC 
#
#######################################################################
#
# If this CIF has been generated from an entry in the Cambridge 
# Structural Database, then it will include bibliographic, chemical, 
# crystal, experimental, refinement or atomic coordinate data resulting 
# from the CCDC's data processing and validation procedures.
#
#######################################################################

data_EPUVUH
_symmetry_cell_setting           monoclinic
_symmetry_space_group_name_H-M   'C 2/c'
_symmetry_Int_Tables_number      15
_space_group_name_Hall           '-C 2yn'
loop_
_symmetry_equiv_pos_site_id
_symmetry_equiv_pos_as_xyz
1 x,y,z
2 -x,y,1/2-z
3 1/2+x,1/2+y,z
4 1/2-x,1/2+y,1/2-z
5 -x,-y,-z
6 x,-y,1/2+z
7 1/2-x,1/2-y,-z
8 1/2+x,1/2-y,1/2+z
_cell_length_a                   20.844(5)
_cell_length_b                   20.201(5)
_cell_length_c                   11.540(3)
_cell_angle_alpha                90
_cell_angle_beta                 114.492(5)
_cell_angle_gamma                90
_cell_volume                     4421.91
loop_
_atom_site_label
_atom_site_type_symbol
_atom_site_fract_x
_atom_site_fract_y
_atom_site_fract_z
Zn1 Zn 0.29669(3) 0.19302(3) 0.50975(6)
Zn2 Zn 0.5000 0.10477(4) 0.7500
O1 O 0.37224(18) 0.12753(16) 0.5570(3)
O2 O 0.44393(19) 0.04387(18) 0.6139(4)
O3 O 0.24067(19) -0.15936(17) 0.1058(3)
O4 O 0.16787(19) -0.24339(17) 0.0885(4)
O5 O 0.35615(17) 0.24682(17) 0.6723(3)
O6 O 0.28451(18) 0.33154(18) 0.6564(3)
O7 O 0.45547(19) 0.16260(19) 0.8306(4)
C1 C 0.3866(3) 0.0689(2) 0.5374(5)
C2 C 0.3398(3) 0.0312(2) 0.4247(5)
H1 H 0.3658 0.0208 0.3739
H2 H 0.3007 0.0594 0.3736
C3 C 0.3098(2) -0.0337(2) 0.4517(5)
C4 C 0.2564(3) -0.0614(2) 0.3253(5)
H3 H 0.2798 -0.0694 0.2694
H4 H 0.2197 -0.0287 0.2848
C5 C 0.2226(3) -0.1259(2) 0.3426(5)
C6 C 0.1864(4) -0.1114(3) 0.4306(6)
H5 H 0.1663 -0.1520 0.4461
H6 H 0.1483 -0.0803 0.3896
C7 C 0.2385(4) -0.0825(4) 0.5582(7)
H7 H 0.2139 -0.0735 0.6127
C8 C 0.2714(3) -0.0203(3) 0.5385(6)
H8 H 0.3048 -0.0035 0.6200
H9 H 0.2353 0.0131 0.4998
C9 C 0.2960(5) -0.1349(3) 0.6213(6)
H10 H 0.3299 -0.1188 0.7030
H11 H 0.2750 -0.1752 0.6356
C10 C 0.3327(4) -0.1491(3) 0.5352(6)
H12 H 0.3696 -0.1823 0.5754
C11 C 0.3663(3) -0.0855(3) 0.5148(5)
H13 H 0.4002 -0.0690 0.5961
H14 H 0.3910 -0.0946 0.4615
C12 C 0.2803(3) -0.1751(3) 0.4072(5)
H15 H 0.3046 -0.1842 0.3533
H16 H 0.2600 -0.2162 0.4198
C13 C 0.1667(3) -0.1515(3) 0.2158(6)
H17 H 0.1359 -0.1817 0.2338
H18 H 0.1383 -0.1143 0.1692
C14 C 0.1950(3) -0.1864(3) 0.1308(5)
C15 C 0.3419(3) 0.3014(3) 0.7078(5)
C16 C 0.3996(3) 0.3367(3) 0.8211(5)
H19 H 0.3775 0.3655 0.8611
H20 H 0.4268 0.3038 0.8834
C17 C 0.4489(3) 0.3771(2) 0.7834(5)
C18 C 0.4072(3) 0.4225(3) 0.6697(6)
H21 H 0.3783 0.3958 0.5968
H22 H 0.3762 0.4510 0.6911
C19 C 0.4574(3) 0.4644(3) 0.6363(6)
H23 H 0.4299 0.4922 0.5628
C20 C 0.5000 0.5093(4) 0.7500
H24 H 0.4685 0.5373 0.7708
C21 C 0.4932(3) 0.4222(3) 0.8964(6)
H25 H 0.4621 0.4503 0.9181
H26 H 0.5201 0.3951 0.9700
C22 C 0.5000 0.3346(3) 0.7500
H27 H 0.5268 0.3063 0.8218
H28 H 0.4843 0.1735 0.9013
H29 H 0.4330 0.1950 0.7872
Zn1A Zn 0.70331(3) 0.19302(3) 0.99025(6)
Zn1E Zn 0.29669(3) -0.19302(3) 0.00975(6)
Zn1C Zn 0.20331(3) -0.30698(3) -0.00975(6)
Zn1F Zn 0.20331(3) 0.30698(3) 0.49025(6)
Zn1G Zn 0.79669(3) 0.30698(3) 1.00975(6)
Zn1D Zn 0.70331(3) -0.19302(3) 1.49025(6)
Zn1B Zn 0.79669(3) -0.30698(3) 1.50975(6)
O1A O 0.62776(18) 0.12753(16) 0.9430(3)
O2A O 0.55607(19) 0.04387(18) 0.8861(4)
O3A O 0.75933(19) -0.15936(17) 1.3942(3)
O3E O 0.24067(19) 0.15936(17) 0.6058(3)
O3D O 0.75933(19) 0.15936(17) 0.8942(3)
O4A O 0.83213(19) -0.24339(17) 1.4115(4)
O4C O 0.33213(19) 0.25661(17) 0.4115(4)
O4B O 0.66787(19) 0.25661(17) 1.0885(4)
O5A O 0.64385(17) 0.24682(17) 0.8277(3)
O6A O 0.71549(18) 0.33154(18) 0.8436(3)
O6F O 0.21549(18) 0.16846(18) 0.3436(3)
O6G O 0.78451(18) 0.16846(18) 1.1564(3)
O7A O 0.54453(19) 0.16260(19) 0.6694(4)
C1A C 0.6134(3) 0.0689(2) 0.9626(5)
C2A C 0.6602(3) 0.0312(2) 1.0753(5)
H1A H 0.6342 0.0208 1.1261
H2A H 0.6993 0.0594 1.1264
C3A C 0.6902(2) -0.0337(2) 1.0483(5)
C4A C 0.7436(3) -0.0614(2) 1.1747(5)
H3A H 0.7202 -0.0694 1.2306
H4A H 0.7803 -0.0287 1.2152
C5A C 0.7774(3) -0.1259(2) 1.1574(5)
C6A C 0.8136(4) -0.1114(3) 1.0694(6)
H5A H 0.8337 -0.1520 1.0539
H6A H 0.8517 -0.0803 1.1104
C7A C 0.7615(4) -0.0825(4) 0.9418(7)
H7A H 0.7861 -0.0735 0.8873
C8A C 0.7286(3) -0.0203(3) 0.9615(6)
H8A H 0.6952 -0.0035 0.8800
H9A H 0.7647 0.0131 1.0002
C9A C 0.7040(5) -0.1349(3) 0.8787(6)
H10A H 0.6701 -0.1188 0.7970
H11A H 0.7250 -0.1752 0.8644
C10A C 0.6673(4) -0.1491(3) 0.9648(6)
H12A H 0.6304 -0.1823 0.9246
C11A C 0.6337(3) -0.0855(3) 0.9852(5)
H13A H 0.5998 -0.0690 0.9039
H14A H 0.6090 -0.0946 1.0385
C12A C 0.7197(3) -0.1751(3) 1.0928(5)
H15A H 0.6954 -0.1842 1.1467
H16A H 0.7400 -0.2162 1.0802
C13A C 0.8333(3) -0.1515(3) 1.2842(6)
H17A H 0.8641 -0.1817 1.2662
H18A H 0.8617 -0.1143 1.3308
C14A C 0.8050(3) -0.1864(3) 1.3692(5)
C15A C 0.6581(3) 0.3014(3) 0.7922(5)
C16A C 0.6004(3) 0.3367(3) 0.6789(5)
H19A H 0.6225 0.3655 0.6389
H20A H 0.5732 0.3038 0.6166
C17A C 0.5511(3) 0.3771(2) 0.7166(5)
C18A C 0.5928(3) 0.4225(3) 0.8303(6)
H21A H 0.6217 0.3958 0.9032
H22A H 0.6238 0.4510 0.8089
C19A C 0.5426(3) 0.4644(3) 0.8637(6)
H23A H 0.5701 0.4922 0.9372
H24A H 0.5315 0.5373 0.7292
C21A C 0.5068(3) 0.4222(3) 0.6036(6)
H25A H 0.5379 0.4503 0.5819
H26A H 0.4799 0.3951 0.5300
H27A H 0.4732 0.3063 0.6782
H28A H 0.5157 0.1735 0.5987
H29A H 0.5670 0.1950 0.7128
O8 O 0.5000 0.274(2) 0.2500
O9 O 0.5351(2) 0.2164(3) 0.0621(5)
O10 O 0.545(2) 0.935(2) 0.660(3)
loop_
_geom_bond_atom_site_label_1
_geom_bond_atom_site_label_2
_geom_bond_site_symmetry_1
_geom_bond_site_symmetry_2
Zn1 O1 1_555 1_555
Zn2 O2 1_555 1_555
O1 C1 1_555 1_555
O2 C1 1_555 1_555
O3 C14 1_555 1_555
O4 C14 1_555 1_555
O5 Zn1 1_555 1_555
O6 C15 1_555 1_555
O7 Zn2 1_555 1_555
C1 C2 1_555 1_555
C2 H1 1_555 1_555
H2 C2 1_555 1_555
C3 C2 1_555 1_555
C4 C3 1_555 1_555
H3 C4 1_555 1_555
H4 C4 1_555 1_555
C5 C4 1_555 1_555
C6 C5 1_555 1_555
H5 C6 1_555 1_555
H6 C6 1_555 1_555
C7 C6 1_555 1_555
H7 C7 1_555 1_555
C8 C3 1_555 1_555
H8 C8 1_555 1_555
H9 C8 1_555 1_555
C9 C7 1_555 1_555
H10 C9 1_555 1_555
H11 C9 1_555 1_555
C10 C9 1_555 1_555
H12 C10 1_555 1_555
C11 C3 1_555 1_555
H13 C11 1_555 1_555
H14 C11 1_555 1_555
C12 C5 1_555 1_555
H15 C12 1_555 1_555
H16 C12 1_555 1_555
C13 C5 1_555 1_555
H17 C13 1_555 1_555
H18 C13 1_555 1_555
C14 C13 1_555 1_555
C15 O5 1_555 1_555
C16 C15 1_555 1_555
H19 C16 1_555 1_555
H20 C16 1_555 1_555
C17 C16 1_555 1_555
C18 C17 1_555 1_555
H21 C18 1_555 1_555
H22 C18 1_555 1_555
C19 C18 1_555 1_555
H23 C19 1_555 1_555
C20 C19 1_555 1_555
H24 C20 1_555 1_555
C21 C17 1_555 1_555
H25 C21 1_555 1_555
H26 C21 1_555 1_555
C22 C17 1_555 1_555
H27 C22 1_555 1_555
H28 O7 1_555 1_555
H29 O7 1_555 1_555
Zn1A O1A 1_555 1_555
Zn1E O3 1_555 1_555
Zn1C O4 1_555 1_555
Zn1F O6 1_555 1_555
Zn1G O6A 1_555 1_555
Zn1D O3A 1_555 1_555
Zn1B O4A 1_555 1_555
O1A C1A 1_555 1_555
O2A Zn2 1_555 1_555
O3A C14A 1_555 1_555
O3E Zn1 1_555 1_555
O3D Zn1A 1_555 1_555
O4A C14A 1_555 1_555
O4C Zn1 1_555 1_555
O4B Zn1A 1_555 1_555
O5A Zn1A 1_555 1_555
O6A C15A 1_555 1_555
O6F Zn1 1_555 1_555
O6G Zn1A 1_555 1_555
O7A Zn2 1_555 1_555
C1A O2A 1_555 1_555
C2A C1A 1_555 1_555
H1A C2A 1_555 1_555
H2A C2A 1_555 1_555
C3A C2A 1_555 1_555
C4A C3A 1_555 1_555
H3A C4A 1_555 1_555
H4A C4A 1_555 1_555
C5A C4A 1_555 1_555
C6A C5A 1_555 1_555
H5A C6A 1_555 1_555
H6A C6A 1_555 1_555
C7A C6A 1_555 1_555
H7A C7A 1_555 1_555
C8A C3A 1_555 1_555
H8A C8A 1_555 1_555
H9A C8A 1_555 1_555
C9A C7A 1_555 1_555
H10A C9A 1_555 1_555
H11A C9A 1_555 1_555
C10A C9A 1_555 1_555
H12A C10A 1_555 1_555
C11A C3A 1_555 1_555
H13A C11A 1_555 1_555
H14A C11A 1_555 1_555
C12A C5A 1_555 1_555
H15A C12A 1_555 1_555
H16A C12A 1_555 1_555
C13A C5A 1_555 1_555
H17A C13A 1_555 1_555
H18A C13A 1_555 1_555
C14A C13A 1_555 1_555
C15A O5A 1_555 1_555
C16A C15A 1_555 1_555
H19A C16A 1_555 1_555
H20A C16A 1_555 1_555
C17A C22 1_555 1_555
C18A C17A 1_555 1_555
H21A C18A 1_555 1_555
H22A C18A 1_555 1_555
C19A C20 1_555 1_555
H23A C19A 1_555 1_555
H24A C20 1_555 1_555
C21A C19 1_555 1_555
H25A C21A 1_555 1_555
H26A C21A 1_555 1_555
H27A C22 1_555 1_555
H28A O7A 1_555 1_555
H29A O7A 1_555 1_555
C7 C8 1_555 1_555
C10 C11 1_555 1_555
C10 C12 1_555 1_555
C21 C19A 1_555 1_555
C7A C8A 1_555 1_555
C10A C11A 1_555 1_555
C10A C12A 1_555 1_555
C16A C17A 1_555 1_555
C17A C21A 1_555 1_555
C18A C19A 1_555 1_555

#END
