
#######################################################################
#
#                 Cambridge Crystallographic Data Centre
#                                CCDC 
#
#######################################################################
#
# If this CIF has been generated from an entry in the Cambridge 
# Structural Database, then it will include bibliographic, chemical, 
# crystal, experimental, refinement or atomic coordinate data resulting 
# from the CCDC's data processing and validation procedures.
#
#######################################################################

data_EPUWES
_symmetry_cell_setting           monoclinic
_symmetry_space_group_name_H-M   'P c'
_symmetry_Int_Tables_number      7
_space_group_name_Hall           'P -2yc'
loop_
_symmetry_equiv_pos_site_id
_symmetry_equiv_pos_as_xyz
1 x,y,z
2 x,-y,1/2+z
_cell_length_a                   11.617(4)
_cell_length_b                   10.670(4)
_cell_length_c                   15.830(6)
_cell_angle_alpha                90
_cell_angle_beta                 108.996(6)
_cell_angle_gamma                90
_cell_volume                     1855.32
loop_
_atom_site_label
_atom_site_type_symbol
_atom_site_fract_x
_atom_site_fract_y
_atom_site_fract_z
Zn1 Zn 1.04237(8) 0.37888(10) 0.22676(6)
Zn2 Zn 1.85755(9) 0.46213(10) 1.03921(7)
N1 N 1.1596(7) 0.3808(7) 0.3531(5)
N2 N 1.7450(8) 0.4008(8) 0.9119(5)
O1 O 0.9163(6) 0.2600(7) 0.2267(4)
O2 O 0.7896(6) 0.3257(6) 0.0980(4)
O3 O 0.7245(6) 0.3909(6) 0.5364(4)
O4 O 0.8801(6) 0.3566(6) 0.4925(4)
O5 O 0.9608(7) 0.5405(6) 0.1884(4)
O6 O 1.1478(7) 0.5970(7) 0.2003(4)
O7 O 1.0088(6) 0.6151(6) 0.5268(4)
O8 O 1.1275(7) 0.6944(7) 0.6554(4)
C1 C 0.8206(8) 0.2480(9) 0.1607(5)
C2 C 0.7381(9) 0.1374(8) 0.1601(6)
H1 H 0.6822 0.1271 0.0998
H2 H 0.7879 0.0624 0.1748
C3 C 0.6662(8) 0.1464(8) 0.2218(6)
C4 C 0.5956(10) 0.0195(9) 0.2163(6)
H3 H 0.5453 0.0045 0.1549
H4 H 0.6536 -0.0487 0.2345
C5 C 0.5167(8) 0.0215(9) 0.2749(6)
H5 H 0.4739 -0.0586 0.2704
C6 C 0.5985(9) 0.0429(8) 0.3712(6)
H6 H 0.5502 0.0385 0.4108
H7 H 0.6598 -0.0224 0.3884
C7 C 0.6590(8) 0.1676(8) 0.3802(6)
C8 C 0.7419(9) 0.1695(8) 0.3203(6)
H8 H 0.7824 0.2501 0.3259
H9 H 0.8039 0.1053 0.3402
C9 C 0.5648(8) 0.2712(9) 0.3503(6)
H10 H 0.6053 0.3518 0.3561
H11 H 0.5133 0.2718 0.3878
C10 C 0.4867(9) 0.2495(9) 0.2524(6)
H12 H 0.4256 0.3160 0.2332
C11 C 0.4254(10) 0.1268(10) 0.2445(7)
H13 H 0.3760 0.1129 0.1828
H14 H 0.3719 0.1269 0.2805
C12 C 0.5702(8) 0.2515(9) 0.1936(6)
H15 H 0.5213 0.2405 0.1315
H16 H 0.6107 0.3321 0.1995
C13 C 0.7400(9) 0.1872(9) 0.4796(6)
H17 H 0.6931 0.1631 0.5177
H18 H 0.8091 0.1308 0.4924
C14 C 0.7871(9) 0.3177(9) 0.5043(5)
C15 C 1.0409(12) 0.6250(10) 0.1952(5)
C16 C 1.0019(9) 0.7564(10) 0.2029(6)
H19 H 0.9171 0.7562 0.1996
H20 H 1.0083 0.8044 0.1526
C17 C 1.0780(8) 0.8216(8) 0.2904(6)
C18 C 1.0056(10) 0.9368(9) 0.3092(7)
H21 H 0.9874 0.9951 0.2596
H22 H 0.9291 0.9084 0.3149
C19 C 1.0807(11) 1.0026(9) 0.3951(8)
H23 H 1.0370 1.0766 0.4053
C20 C 1.2058(10) 1.0423(9) 0.3869(8)
H24 H 1.1929 1.1008 0.3378
H25 H 1.2542 1.0839 0.4414
C21 C 1.2707(10) 0.9317(9) 0.3714(7)
H26 H 1.3492 0.9591 0.3671
C22 C 1.2008(9) 0.8672(9) 0.2853(6)
H27 H 1.2473 0.7966 0.2753
H28 H 1.1875 0.9251 0.2358
C23 C 1.1005(8) 0.7322(8) 0.3702(5)
H29 H 1.0229 0.7035 0.3735
H30 H 1.1450 0.6594 0.3608
C24 C 1.1720(8) 0.7941(8) 0.4581(6)
C25 C 1.2954(9) 0.8406(9) 0.4498(6)
H31 H 1.3426 0.8822 0.5047
H32 H 1.3420 0.7697 0.4405
C26 C 1.0999(11) 0.9085(9) 0.4727(7)
H33 H 1.1441 0.9487 0.5289
H34 H 1.0216 0.8815 0.4758
C27 C 1.2043(8) 0.7016(9) 0.5350(6)
H35 H 1.2320 0.6249 0.5151
H36 H 1.2724 0.7356 0.5828
C28 C 1.1049(9) 0.6680(8) 0.5737(6)
C29 C 1.1177(9) 0.3536(9) 0.4221(6)
H37 H 1.0367 0.3309 0.4105
C30 C 1.1954(10) 0.3598(9) 0.5092(6)
H38 H 1.1669 0.3409 0.5563
C31 C 1.3184(9) 0.3949(10) 0.5266(6)
C32 C 1.3564(10) 0.4200(11) 0.4543(7)
H39 H 1.4368 0.4429 0.4632
C33 C 1.2746(9) 0.4110(10) 0.3685(6)
H40 H 1.3016 0.4267 0.3203
C34 C 1.4033(12) 0.4127(14) 0.6201(8)
H41 H 1.4408 0.4948 0.6246
H42 H 1.3563 0.4111 0.6608
C35 C 1.4992(12) 0.3178(12) 0.6483(7)
H43 H 1.5440 0.3158 0.6062
H44 H 1.4626 0.2360 0.6480
C36 C 1.5872(12) 0.3456(11) 0.7420(7)
C37 C 1.5543(10) 0.3286(11) 0.8171(7)
H45 H 1.4773 0.2979 0.8117
C38 C 1.6347(10) 0.3566(10) 0.9002(6)
H46 H 1.6104 0.3440 0.9501
C39 C 1.7781(10) 0.4200(10) 0.8389(6)
H47 H 1.8548 0.4531 0.8461
C40 C 1.7022(10) 0.3922(10) 0.7536(6)
H48 H 1.7284 0.4048 0.7046
Zn1A Zn 1.04237(8) 0.62112(10) 0.72676(6)
Zn2_2 Zn 0.85755(9) 0.46213(10) 0.03921(7)
Zn2A Zn 0.85755(9) 0.53787(10) 0.53921(7)
O2_2 O 1.7896(6) 0.3257(6) 1.0980(4)
O3A O 1.7245(6) 0.6091(6) 1.0364(4)
O4A O 1.8801(6) 0.6434(6) 0.9925(4)
O5_2 O 1.9608(7) 0.5405(6) 1.1884(4)
O7A O 2.0088(6) 0.3849(6) 1.0268(4)
O8A O 1.1275(7) 0.3056(7) 0.1554(4)
loop_
_geom_bond_atom_site_label_1
_geom_bond_atom_site_label_2
_geom_bond_site_symmetry_1
_geom_bond_site_symmetry_2
Zn1 N1 1_555 1_555
Zn2 N2 1_555 1_555
N1 C29 1_555 1_555
N2 C38 1_555 1_555
O1 Zn1 1_555 1_555
O2 C1 1_555 1_555
O3 C14 1_555 1_555
O4 C14 1_555 1_555
O5 Zn1 1_555 1_555
O6 C15 1_555 1_555
O7 C28 1_555 1_555
O8 C28 1_555 1_555
C1 O1 1_555 1_555
C2 C1 1_555 1_555
H1 C2 1_555 1_555
H2 C2 1_555 1_555
C3 C2 1_555 1_555
C4 C3 1_555 1_555
H3 C4 1_555 1_555
H4 C4 1_555 1_555
C5 C4 1_555 1_555
H5 C5 1_555 1_555
C6 C5 1_555 1_555
H6 C6 1_555 1_555
H7 C6 1_555 1_555
C7 C6 1_555 1_555
C8 C3 1_555 1_555
H8 C8 1_555 1_555
H9 C8 1_555 1_555
C9 C7 1_555 1_555
H10 C9 1_555 1_555
H11 C9 1_555 1_555
C10 C9 1_555 1_555
H12 C10 1_555 1_555
C11 C5 1_555 1_555
H13 C11 1_555 1_555
H14 C11 1_555 1_555
C12 C3 1_555 1_555
H15 C12 1_555 1_555
H16 C12 1_555 1_555
C13 C7 1_555 1_555
H17 C13 1_555 1_555
H18 C13 1_555 1_555
C14 C13 1_555 1_555
C15 O5 1_555 1_555
C16 C15 1_555 1_555
H19 C16 1_555 1_555
H20 C16 1_555 1_555
C17 C16 1_555 1_555
C18 C17 1_555 1_555
H21 C18 1_555 1_555
H22 C18 1_555 1_555
C19 C18 1_555 1_555
H23 C19 1_555 1_555
C20 C19 1_555 1_555
H24 C20 1_555 1_555
H25 C20 1_555 1_555
C21 C20 1_555 1_555
H26 C21 1_555 1_555
C22 C17 1_555 1_555
H27 C22 1_555 1_555
H28 C22 1_555 1_555
C23 C17 1_555 1_555
H29 C23 1_555 1_555
H30 C23 1_555 1_555
C24 C23 1_555 1_555
C25 C21 1_555 1_555
H31 C25 1_555 1_555
H32 C25 1_555 1_555
C26 C19 1_555 1_555
H33 C26 1_555 1_555
H34 C26 1_555 1_555
C27 C24 1_555 1_555
H35 C27 1_555 1_555
H36 C27 1_555 1_555
C28 C27 1_555 1_555
C29 H37 1_555 1_555
C30 C29 1_555 1_555
H38 C30 1_555 1_555
C31 C30 1_555 1_555
C32 C31 1_555 1_555
H39 C32 1_555 1_555
C33 N1 1_555 1_555
H40 C33 1_555 1_555
C34 C31 1_555 1_555
H41 C34 1_555 1_555
H42 C34 1_555 1_555
C35 C34 1_555 1_555
H43 C35 1_555 1_555
H44 C35 1_555 1_555
C36 C35 1_555 1_555
C37 C36 1_555 1_555
H45 C37 1_555 1_555
C38 C37 1_555 1_555
H46 C38 1_555 1_555
C39 N2 1_555 1_555
H47 C39 1_555 1_555
C40 C36 1_555 1_555
H48 C40 1_555 1_555
Zn1A O8 1_555 1_555
Zn2_2 O2 1_555 1_555
Zn2A O3 1_555 1_555
O2_2 Zn2 1_555 1_555
O3A Zn2 1_555 1_555
O4A Zn2 1_555 1_555
O5_2 Zn2 1_555 1_555
O7A Zn2 1_555 1_555
O8A Zn1 1_555 1_555
O4 Zn2A 1_555 1_555
O5 Zn2_2 1_555 1_555
O7 Zn2A 1_555 1_555
C7 C8 1_555 1_555
C10 C11 1_555 1_555
C10 C12 1_555 1_555
C21 C22 1_555 1_555
C24 C25 1_555 1_555
C24 C26 1_555 1_555
C32 C33 1_555 1_555
C39 C40 1_555 1_555

#END
