
#######################################################################
#
#                 Cambridge Crystallographic Data Centre
#                                CCDC 
#
#######################################################################
#
# If this CIF has been generated from an entry in the Cambridge 
# Structural Database, then it will include bibliographic, chemical, 
# crystal, experimental, refinement or atomic coordinate data resulting 
# from the CCDC's data processing and validation procedures.
#
#######################################################################

data_EPUZAR
_symmetry_cell_setting           triclinic
_symmetry_space_group_name_H-M   'P -1'
_symmetry_Int_Tables_number      2
_space_group_name_Hall           '-P 1'
loop_
_symmetry_equiv_pos_site_id
_symmetry_equiv_pos_as_xyz
1 x,y,z
2 -x,-y,-z
_cell_length_a                   13.7465(17)
_cell_length_b                   14.0550(17)
_cell_length_c                   14.399(3)
_cell_angle_alpha                106.556(4)
_cell_angle_beta                 115.672(4)
_cell_angle_gamma                104.826(3)
_cell_volume                     2159.35
loop_
_atom_site_label
_atom_site_type_symbol
_atom_site_fract_x
_atom_site_fract_y
_atom_site_fract_z
Cu1 Cu 0.41644(9) 0.73953(9) 0.31078(9)
Cu2 Cu 0.52669(9) 0.84835(9) 0.18680(9)
Cu3 Cu 0.30874(9) 0.73829(9) -0.07974(9)
Cu4 Cu 0.30396(9) 0.84936(9) 0.14725(9)
S1 S 0.6560(2) 0.62889(19) 0.4628(2)
S2 S -0.0351(2) 0.62618(19) -0.3372(2)
S3 S 0.4396(2) 0.68084(19) -0.25884(19)
S4 S 0.2292(2) 0.68643(19) 0.43524(19)
O1 O 0.4503(5) 0.8650(5) 0.2758(5)
O2 O 0.3951(5) 0.8646(5) 0.0725(5)
O3 O 0.2334(6) 0.5933(5) -0.2073(5)
O4 O 0.3524(5) 0.5929(5) 0.2971(5)
C1 C 0.0925(8) 0.6297(7) -0.3468(8)
H1 H 0.0694 0.6099 -0.4260
H2 H 0.1563 0.7046 -0.2987
N1 N 0.7558(7) 0.7497(6) 0.3834(6)
N2 N 0.6337(7) 0.7485(6) -0.0391(6)
N3 N 0.1028(7) 0.7562(6) 0.2803(6)
N4 N 0.2657(7) 0.7590(6) 0.2908(6)
N5 N 0.6234(6) 0.7991(6) 0.2899(6)
N6 N 0.1495(7) 0.7381(6) -0.1055(6)
N7 N -0.0187(6) 0.7497(6) -0.1438(6)
N8 N 0.8640(7) 0.7388(6) 0.4312(7)
H3 H 0.9186 0.7681 0.4203
H4 H 0.8752 0.7028 0.4712
N9 N 0.5653(7) 0.7917(6) 0.0697(6)
C2 C 0.5265(8) 0.6266(8) 0.4698(8)
H5 H 0.5285 0.6043 0.5282
H6 H 0.5328 0.7010 0.4943
N10 N 0.2122(7) 0.7950(6) 0.2112(6)
N11 N 0.5772(7) 0.7381(6) 0.3342(6)
N12 N 0.7134(7) 0.7272(7) -0.0689(7)
H7 H 0.7827 0.7380 -0.0163
H8 H 0.6929 0.7034 -0.1397
N13 N 0.0014(7) 0.7346(7) 0.2897(7)
H9 H -0.0584 0.7436 0.2459
H10 H -0.0001 0.7124 0.3391
N14 N -0.1339(7) 0.7424(7) -0.2017(7)
H11 H -0.1592 0.7751 -0.1635
H12 H -0.1797 0.7053 -0.2758
N15 N 0.4743(7) 0.7551(6) -0.0450(6)
C3 C 0.6611(8) 0.7861(7) 0.0711(8)
C4 C 0.5183(8) 0.7304(7) -0.1086(7)
N16 N 0.1604(7) 0.8001(6) -0.0028(6)
O5 O 0.3653(6) 0.4489(6) 0.3263(6)
C5 C 0.7793(9) 0.8118(8) 0.1688(8)
H13 H 0.8407 0.8578 0.1635
H14 H 0.7861 0.7431 0.1587
C6 C 0.1997(8) 0.7373(7) 0.3323(7)
C7 C 0.6573(8) 0.7087(7) 0.3899(7)
C8 C 0.2296(9) 0.7859(8) 0.5480(8)
H15 H 0.1500 0.7832 0.5150
H16 H 0.2427 0.7617 0.6073
C9 C 0.0420(9) 0.8727(8) 0.0598(8)
H17 H -0.0253 0.8877 0.0198
H18 H 0.1128 0.9431 0.1120
C10 C 0.4058(8) 0.5494(8) 0.3556(8)
C11 C 0.0599(8) 0.8062(8) -0.0273(8)
C12 C 0.8085(8) 0.8701(8) 0.2921(8)
H19 H 0.8910 0.8874 0.3468
H20 H 0.8028 0.9394 0.3036
C13 C 0.0375(8) 0.7071(7) -0.1898(8)
C14 C 0.0187(8) 0.8196(8) 0.1322(8)
H21 H 0.0057 0.8694 0.1830
H22 H -0.0559 0.7524 0.0798
C15 C 0.1109(8) 0.7912(7) 0.2044(7)
C16 C 0.7293(8) 0.8051(7) 0.3188(7)
C17 C 0.1403(9) 0.5521(8) -0.3090(8)
O6 O 0.3409(5) 0.8774(4) -0.1451(4)
H23 H 0.3922 0.9085 -0.1569
H24 H 0.2871 0.8995 -0.1642
O7 O 0.5116(5) 0.8603(4) 0.5012(4)
H25 H 0.4734 0.8932 0.5184
H26 H 0.5325 0.8858 0.4624
C18 C 0.5879(8) 0.9013(8) -0.1977(8)
C19 C 0.3209(9) 0.9070(8) 0.6075(8)
C20 C 0.5407(8) 0.7791(8) -0.2747(8)
H27 H 0.6090 0.7630 -0.2595
H28 H 0.4987 0.7660 -0.3546
O8 O 0.3371(6) 0.9678(5) 0.7017(5)
O9 O 0.5673(6) 0.9301(5) -0.1193(5)
O10 O 0.6464(6) 0.9658(5) -0.2198(6)
O11 O 0.3718(6) 0.9384(5) 0.5602(6)
O12 O 0.0897(7) 0.4523(6) -0.3790(6)
Cl1 Cl 0.3130(2) 0.63788(18) 0.06538(19)
Cu2A Cu 0.47331(9) 1.15165(9) 0.81320(9)
Cu4A Cu 0.69604(9) 1.15064(9) -0.14725(9)
O8A O 0.6629(6) 1.0322(5) 0.2983(5)
O10A O 0.3536(6) 1.0342(5) 0.2198(6)
Cl2 Cl 0.9688(3) 0.9067(2) 0.7012(2)
O13 O 0.3296(7) 0.4439(6) -0.1484(7)
H29 H 0.2923 0.4792 -0.1751
H30 H 0.2955 0.3786 -0.2022
O14 O 0.1125(7) 0.4405(6) 0.0940(7)
H31 H 0.1809 0.4737 0.1573
H32 H 0.0741 0.3797 0.0897
O15 O 0.1381(8) 0.9756(6) 0.4540(7)
H33 H 0.1284 1.0336 0.4747
H34 H 0.2102 0.9906 0.5023
O16 O 0.8262(8) 0.9767(7) 0.0363(7)
H35 H 0.8424 1.0433 0.0485
H36 H 0.7511 0.9427 0.0062
O17 O 0.5654(8) 0.5221(7) -0.0897(8)
H37 H 0.5999 0.5733 -0.1007
H38 H 0.5948 0.4761 -0.0961
O18 O -0.0399(7) 0.5290(7) 0.1150(7)
H39 H -0.0399 0.5889 0.1503
H40 H -0.1112 0.4784 0.0759
O19 O 0.7447(10) 0.9422(11) 0.6508(9)
H41 H 0.7330 0.9954 0.6822
H42 H 0.7331 0.8964 0.6771
loop_
_geom_bond_atom_site_label_1
_geom_bond_atom_site_label_2
_geom_bond_site_symmetry_1
_geom_bond_site_symmetry_2
Cu1 O1 1_555 1_555
Cu2 O1 1_555 1_555
Cu3 O2 1_555 1_555
Cu4 O1 1_555 1_555
S1 C2 1_555 1_555
S2 C1 1_555 1_555
S3 C4 1_555 1_555
S4 C6 1_555 1_555
O2 Cu2 1_555 1_555
O3 Cu3 1_555 1_555
O4 Cu1 1_555 1_555
C1 H1 1_555 1_555
H2 C1 1_555 1_555
N1 N8 1_555 1_555
N2 N12 1_555 1_555
N3 N13 1_555 1_555
N4 Cu1 1_555 1_555
N5 Cu2 1_555 1_555
N6 Cu3 1_555 1_555
N7 N14 1_555 1_555
N8 H3 1_555 1_555
H4 N8 1_555 1_555
N9 Cu2 1_555 1_555
C2 H5 1_555 1_555
H6 C2 1_555 1_555
N10 Cu4 1_555 1_555
N11 Cu1 1_555 1_555
N12 H7 1_555 1_555
H8 N12 1_555 1_555
N13 H9 1_555 1_555
H10 N13 1_555 1_555
N14 H11 1_555 1_555
H12 N14 1_555 1_555
N15 Cu3 1_555 1_555
C3 N2 1_555 1_555
C4 N2 1_555 1_555
N16 Cu4 1_555 1_555
O5 C10 1_555 1_555
C5 C3 1_555 1_555
H13 C5 1_555 1_555
H14 C5 1_555 1_555
C6 N3 1_555 1_555
C7 S1 1_555 1_555
C8 S4 1_555 1_555
H15 C8 1_555 1_555
H16 C8 1_555 1_555
C9 H17 1_555 1_555
H18 C9 1_555 1_555
C10 O4 1_555 1_555
C11 N7 1_555 1_555
C12 C5 1_555 1_555
H19 C12 1_555 1_555
H20 C12 1_555 1_555
C13 S2 1_555 1_555
C14 C9 1_555 1_555
H21 C14 1_555 1_555
H22 C14 1_555 1_555
C15 N3 1_555 1_555
C16 N1 1_555 1_555
C17 O3 1_555 1_555
O6 Cu3 1_555 1_555
H23 O6 1_555 1_555
H24 O6 1_555 1_555
O7 Cu1 1_555 1_555
H25 O7 1_555 1_555
H26 O7 1_555 1_555
C18 C20 1_555 1_555
C19 C8 1_555 1_555
C20 S3 1_555 1_555
H27 C20 1_555 1_555
H28 C20 1_555 1_555
O8 C19 1_555 1_555
O9 C18 1_555 1_555
O10 C18 1_555 1_555
O11 C19 1_555 1_555
O12 C17 1_555 1_555
Cl1 Cu1 1_555 1_555
O13 H29 1_555 1_555
H30 O13 1_555 1_555
O14 H31 1_555 1_555
H32 O14 1_555 1_555
O15 H33 1_555 1_555
H34 O15 1_555 1_555
O16 H35 1_555 1_555
H36 O16 1_555 1_555
O17 H37 1_555 1_555
H38 O17 1_555 1_555
O18 H39 1_555 1_555
H40 O18 1_555 1_555
O19 H41 1_555 1_555
H42 O19 1_555 1_555
Cu2A O8 1_555 1_555
Cu4A O10 1_555 1_555
O8A Cu2 1_555 1_555
O10A Cu4 1_555 1_555
Cu2 Cl1 1_555 1_555
Cu3 Cl1 1_555 1_555
Cu4 O2 1_555 1_555
Cu4 Cl1 1_555 1_555
C1 C17 1_555 1_555
N1 C7 1_555 1_555
N4 N10 1_555 1_555
N4 C6 1_555 1_555
N5 N11 1_555 1_555
N5 C16 1_555 1_555
N6 N16 1_555 1_555
N6 C13 1_555 1_555
N7 C13 1_555 1_555
N9 N15 1_555 1_555
N9 C3 1_555 1_555
C2 C10 1_555 1_555
N10 C15 1_555 1_555
N11 C7 1_555 1_555
N15 C4 1_555 1_555
N16 C11 1_555 1_555
C9 C11 1_555 1_555
C12 C16 1_555 1_555
C14 C15 1_555 1_555

#END
