
#######################################################################
#
#                 Cambridge Crystallographic Data Centre
#                                CCDC 
#
#######################################################################
#
# If this CIF has been generated from an entry in the Cambridge 
# Structural Database, then it will include bibliographic, chemical, 
# crystal, experimental, refinement or atomic coordinate data resulting 
# from the CCDC's data processing and validation procedures.
#
#######################################################################

data_EQIMUN
_symmetry_cell_setting           monoclinic
_symmetry_space_group_name_H-M   'C 2/c'
_symmetry_Int_Tables_number      15
_space_group_name_Hall           '-C 2yn'
loop_
_symmetry_equiv_pos_site_id
_symmetry_equiv_pos_as_xyz
1 x,y,z
2 -x,y,1/2-z
3 1/2+x,1/2+y,z
4 1/2-x,1/2+y,1/2-z
5 -x,-y,-z
6 x,-y,1/2+z
7 1/2-x,1/2-y,-z
8 1/2+x,1/2-y,1/2+z
_cell_length_a                   12.4458(18)
_cell_length_b                   11.0713(18)
_cell_length_c                   9.4655(13)
_cell_angle_alpha                90
_cell_angle_beta                 109.333(4)
_cell_angle_gamma                90
_cell_volume                     1230.72
loop_
_atom_site_label
_atom_site_type_symbol
_atom_site_fract_x
_atom_site_fract_y
_atom_site_fract_z
Mn1 Mn 0.5000 0.30476(9) 0.2500
O1 O 0.3872(3) 0.4658(3) 0.2535(4)
O2 O 0.2566(3) 0.5427(3) 0.3395(5)
O3 O 0.3389(3) 0.2454(3) 0.2897(4)
H1 H 0.297(4) 0.185(3) 0.258(6)
O4 O 0.3833(3) 0.3301(3) 0.5878(4)
H2 H 0.392(5) 0.392(3) 0.640(5)
O5 O 0.4770(8) 0.0918(7) 0.2090(8)
H3 H 0.408(3) 0.070(10) 0.177(12)
H4 H 0.502(8) 0.055(10) 0.148(11)
O6 O 0.5688(3) 0.3001(4) 0.4959(4)
H5 H 0.516(3) 0.315(5) 0.530(7)
H6 H 0.618(4) 0.352(4) 0.541(6)
C1 C 0.3055(4) 0.4561(4) 0.3035(5)
C2 C 0.2679(4) 0.3299(4) 0.3269(5)
H9 H 0.1897 0.3180 0.2595
C3 C 0.2700(4) 0.3131(4) 0.4879(5)
H10 H 0.2200 0.3732 0.5099
Mn1F Mn 0.0000 0.19524(9) 0.7500
O1F O 0.1128(3) 0.0342(3) 0.7465(4)
O1A O 0.6128(3) 0.4658(3) 0.2465(4)
O2F O 0.2434(3) -0.0427(3) 0.6605(5)
O3F O 0.1611(3) 0.2546(3) 0.7103(4)
O3A O 0.6611(3) 0.2454(3) 0.2103(4)
H1F H 0.203(4) 0.315(3) 0.742(6)
H1A H 0.703(4) 0.185(3) 0.242(6)
O4F O 0.1167(3) 0.1699(3) 0.4122(4)
H2F H 0.108(5) 0.108(3) 0.360(5)
O5A O 0.5230(8) 0.0918(7) 0.2910(8)
H3A H 0.592(3) 0.070(10) 0.323(12)
H4A H 0.498(8) 0.055(10) 0.352(11)
O6A O 0.4312(3) 0.3001(4) 0.0041(4)
H5A H 0.484(3) 0.315(5) -0.030(7)
H6A H 0.382(4) 0.352(4) -0.041(6)
C1F C 0.1945(4) 0.0439(4) 0.6965(5)
C2F C 0.2321(4) 0.1701(4) 0.6731(5)
H9F H 0.3103 0.1820 0.7405
C3F C 0.2300(4) 0.1869(4) 0.5121(5)
H10F H 0.2800 0.1268 0.4901
O7 O 0.4373(12) 0.0278(10) -0.0195(13)
H7 H 0.428(16) 0.102(4) -0.003(17)
H8 H 0.456(16) 0.001(13) 0.070(7)
O7D O 0.5627(12) -0.0278(10) 0.0195(13)
H7D H 0.572(16) -0.102(4) 0.003(17)
H8D H 0.544(16) -0.001(13) -0.070(7)
loop_
_geom_bond_atom_site_label_1
_geom_bond_atom_site_label_2
_geom_bond_site_symmetry_1
_geom_bond_site_symmetry_2
Mn1 O1 1_555 1_555
O1 C1 1_555 1_555
O2 C1 1_555 1_555
O3 Mn1 1_555 1_555
H1 O3 1_555 1_555
O4 H2 1_555 1_555
O5 Mn1 1_555 1_555
H3 O5 1_555 1_555
H4 O5 1_555 1_555
O6 Mn1 1_555 1_555
H5 O6 1_555 1_555
H6 O6 1_555 1_555
O7 H7 1_555 1_555
H8 O7 1_555 1_555
C1 C2 1_555 1_555
C2 O3 1_555 1_555
H9 C2 1_555 1_555
C3 O4 1_555 1_555
H10 C3 1_555 1_555
Mn1F O1F 1_555 1_555
O1F C1F 1_555 1_555
O1A Mn1 1_555 1_555
O2F C1F 1_555 1_555
O3F Mn1F 1_555 1_555
O3A Mn1 1_555 1_555
H1F O3F 1_555 1_555
H1A O3A 1_555 1_555
O4F H2F 1_555 1_555
O5A Mn1 1_555 1_555
H3A O5A 1_555 1_555
H4A O5A 1_555 1_555
O6A Mn1 1_555 1_555
H5A O6A 1_555 1_555
H6A O6A 1_555 1_555
O7D O7 1_555 1_555
H7D O7D 1_555 1_555
H8D O7D 1_555 1_555
C1F C2F 1_555 1_555
C2F O3F 1_555 1_555
H9F C2F 1_555 1_555
C3F C3 1_555 1_555
H10F C3F 1_555 1_555
O5 O5A 1_555 1_555
C2 C3 1_555 1_555
O4F C3F 1_555 1_555
C2F C3F 1_555 1_555

#END
