
#######################################################################
#
#                 Cambridge Crystallographic Data Centre
#                                CCDC 
#
#######################################################################
#
# If this CIF has been generated from an entry in the Cambridge 
# Structural Database, then it will include bibliographic, chemical, 
# crystal, experimental, refinement or atomic coordinate data resulting 
# from the CCDC's data processing and validation procedures.
#
#######################################################################

data_EQIMEX
_symmetry_cell_setting           triclinic
_symmetry_space_group_name_H-M   'P -1'
_symmetry_Int_Tables_number      2
_space_group_name_Hall           '-P 1'
loop_
_symmetry_equiv_pos_site_id
_symmetry_equiv_pos_as_xyz
1 x,y,z
2 -x,-y,-z
_cell_length_a                   6.0203(4)
_cell_length_b                   10.8278(8)
_cell_length_c                   12.9446(9)
_cell_angle_alpha                67.9080(10)
_cell_angle_beta                 82.1090(10)
_cell_angle_gamma                83.8870(10)
_cell_volume                     773.075
loop_
_atom_site_label
_atom_site_type_symbol
_atom_site_fract_x
_atom_site_fract_y
_atom_site_fract_z
Tb1 Tb 0.56822(5) -0.09505(3) 0.16831(2)
Tb2 Tb 1.08254(5) -0.67903(3) 0.35692(2)
O1 O 0.4289(8) -0.2898(5) 0.1507(4)
O2 O 0.7790(8) -0.2517(5) 0.0857(4)
O3 O 0.8090(8) -0.6012(5) 0.2284(4)
O4 O 0.4729(8) -0.6389(6) 0.3203(4)
O5 O 0.5384(9) -0.1228(5) -0.1359(4)
O6 O 0.7691(10) -0.2366(6) -0.2219(5)
O7 O 0.6550(8) -0.0457(4) 0.3294(4)
O8 O 0.7774(8) -0.1297(5) 0.4988(4)
O9 O 0.6902(8) -0.2890(5) 0.3202(4)
O10 O 0.7972(8) -0.3749(4) 0.4927(4)
O11 O 0.9564(7) -0.0565(5) 0.1459(4)
O12 O 1.2763(7) -0.0241(4) 0.0326(4)
O13 O 0.2393(9) -0.1400(7) 0.3036(5)
H1 H 0.234(10) -0.070(5) 0.321(6)
H2 H 0.139(8) -0.126(7) 0.259(5)
O14 O 0.8173(12) -0.8515(6) 0.4172(7)
H3 H 0.843(12) -0.928(4) 0.465(6)
H4 H 0.723(13) -0.854(6) 0.375(5)
O15 O 0.7625(8) -0.6165(5) 0.4674(4)
H5 H 0.777(7) -0.550(5) 0.484(6)
H6 H 0.637(5) -0.609(7) 0.442(5)
O16 O 1.0903(8) -0.4420(5) 0.2785(4)
H7 H 0.971(5) -0.394(4) 0.260(6)
H8 H 1.202(6) -0.405(4) 0.235(6)
C1 C 0.6154(11) -0.4150(6) 0.0404(5)
H9 H 0.7723 -0.4409 0.0219
C2 C 0.4986(11) -0.5392(6) 0.1201(5)
H10 H 0.3412 -0.5117 0.1359
C3 C 0.4993(12) -0.3542(6) -0.0696(5)
H11 H 0.3423 -0.3292 -0.0501
C4 C 0.6105(11) -0.3129(6) 0.0966(5)
C5 C 0.6002(11) -0.5974(6) 0.2310(5)
C6 C 0.6099(12) -0.2289(7) -0.1493(6)
C7 C 0.7183(11) -0.1382(6) 0.4121(5)
C8 C 0.7353(10) -0.2800(6) 0.4086(5)
C9 C 1.0678(10) -0.0227(6) 0.0508(5)
Tb1A Tb 0.43178(5) -0.90495(3) -0.16831(2)
Tb1A_2 Tb 0.43178(5) 0.09505(3) -0.16831(2)
Tb1_2 Tb 1.56822(5) -0.09505(3) 0.16831(2)
Tb1A_3 Tb 1.43178(5) 0.09505(3) -0.16831(2)
Tb1_3 Tb 0.56822(5) -1.09505(3) 0.16831(2)
Tb1A_4 Tb 1.43178(5) -0.90495(3) 0.83169(2)
Tb2A Tb -0.08254(5) -0.32097(3) -0.35692(2)
Tb2_2 Tb 0.08254(5) -0.67903(3) 0.35692(2)
Tb2A_2 Tb 0.91746(5) -0.32097(3) -0.35692(2)
Tb2A_3 Tb 0.91746(5) -0.32097(3) 0.64308(2)
O1A O 0.5711(8) -0.7102(5) -0.1507(4)
O2A O 0.2210(8) -0.7483(5) -0.0857(4)
O3A O 0.1910(8) -0.3988(5) -0.2284(4)
O4A O 0.5271(8) -0.3611(6) -0.3203(4)
O4_2 O 1.4729(8) -0.6389(6) 0.3203(4)
O4A_2 O -0.4729(8) -0.3611(6) -0.3203(4)
O5A O 0.4616(9) -0.8772(5) 0.1359(4)
O5A_2 O 0.4616(9) 0.1228(5) 0.1359(4)
O5_2 O 0.5384(9) -1.1228(5) -0.1359(4)
O6A O 0.2309(10) -0.7634(6) 0.2219(5)
O6A_2 O 1.2309(10) -0.7634(6) 0.2219(5)
O6_2 O -0.2309(10) -0.2366(6) -0.2219(5)
O7A O 1.3450(8) -0.9543(4) 0.6706(4)
O7A_2 O 0.3450(8) -0.9543(4) -0.3294(4)
O8A O 1.2226(8) -0.8703(5) 0.5012(4)
O8_2 O -0.2226(8) -0.1297(5) -0.5012(4)
O9A O 1.3098(8) -0.7110(5) 0.6798(4)
O9A_2 O 0.3098(8) -0.7110(5) -0.3202(4)
O10A O 1.2028(8) -0.6251(4) 0.5073(4)
O10_2 O -0.2028(8) -0.3749(4) -0.5073(4)
O11A O 1.0436(7) 0.0565(5) -0.1459(4)
O11A_2 O 0.0436(7) -0.9435(5) -0.1459(4)
O12A O 0.7237(7) 0.0241(4) -0.0326(4)
O12_2 O 0.2763(7) -0.0241(4) 0.0326(4)
O12A_2 O 0.7237(7) -0.9759(4) -0.0326(4)
O12_3 O 0.2763(7) -1.0241(4) 0.0326(4)
O13A O 0.7607(9) -0.8600(7) -0.3036(5)
H1A H 0.766(10) -0.930(5) -0.321(6)
H2A H 0.861(8) -0.874(7) -0.259(5)
O14A O 0.1827(12) -0.1485(6) -0.4172(7)
H3A H 0.157(12) -0.072(4) -0.465(6)
H4A H 0.277(13) -0.146(6) -0.375(5)
O15A O 0.2375(8) -0.3835(5) -0.4674(4)
H5A H 0.223(7) -0.450(5) -0.484(6)
H6A H 0.363(5) -0.391(7) -0.442(5)
O16A O -0.0903(8) -0.5580(5) -0.2785(4)
H7A H 0.029(5) -0.606(4) -0.260(6)
H8A H -0.202(6) -0.595(4) -0.235(6)
C1A C 0.3846(11) -0.5850(6) -0.0404(5)
H9A H 0.2277 -0.5591 -0.0219
C2A C 0.5014(11) -0.4608(6) -0.1201(5)
H10A H 0.6588 -0.4883 -0.1359
C3A C 0.5007(12) -0.6458(6) 0.0696(5)
H11A H 0.6577 -0.6708 0.0501
C4A C 0.3895(11) -0.6871(6) -0.0966(5)
C5A C 0.3998(11) -0.4026(6) -0.2310(5)
C6A C 0.3901(12) -0.7711(7) 0.1493(6)
C7A C 1.2817(11) -0.8618(6) 0.5879(5)
C8A C 1.2647(10) -0.7200(6) 0.5914(5)
C9A C 0.9322(10) 0.0227(6) -0.0508(5)
loop_
_geom_bond_atom_site_label_1
_geom_bond_atom_site_label_2
_geom_bond_site_symmetry_1
_geom_bond_site_symmetry_2
Tb1 O1 1_555 1_555
Tb2 O3 1_555 1_555
O1 C4 1_555 1_555
O2 Tb1 1_555 1_555
O3 C5 1_555 1_555
O4 C5 1_555 1_555
O5 C6 1_555 1_555
O6 C6 1_555 1_555
O7 Tb1 1_555 1_555
O8 C7 1_555 1_555
O9 Tb1 1_555 1_555
O10 C8 1_555 1_555
O11 Tb1 1_555 1_555
O12 C9 1_555 1_555
O13 Tb1 1_555 1_555
H1 O13 1_555 1_555
H2 O13 1_555 1_555
O14 Tb2 1_555 1_555
H3 O14 1_555 1_555
H4 O14 1_555 1_555
O15 Tb2 1_555 1_555
H5 O15 1_555 1_555
H6 O15 1_555 1_555
O16 Tb2 1_555 1_555
H7 O16 1_555 1_555
H8 O16 1_555 1_555
C1 H9 1_555 1_555
C2 C1 1_555 1_555
H10 C2 1_555 1_555
C3 C1 1_555 1_555
H11 C3 1_555 1_555
C4 O2 1_555 1_555
C5 C2 1_555 1_555
C6 C3 1_555 1_555
C7 O7 1_555 1_555
C8 O9 1_555 1_555
C9 O11 1_555 1_555
Tb1A O1A 1_555 1_555
Tb1A_2 O5 1_555 1_555
Tb1_2 O12 1_555 1_555
Tb1A_3 O12 1_555 1_555
Tb1_3 O5A 1_555 1_555
Tb1A_4 O7A 1_555 1_555
Tb2A O3A 1_555 1_555
Tb2_2 O4 1_555 1_555
Tb2A_2 O6 1_555 1_555
Tb2A_3 O8 1_555 1_555
O1A C4A 1_555 1_555
O2A Tb1A 1_555 1_555
O3A C5A 1_555 1_555
O4A Tb2A_2 1_555 1_555
O4_2 Tb2 1_555 1_555
O4A_2 Tb2A 1_555 1_555
O5A C6A 1_555 1_555
O5A_2 Tb1 1_555 1_555
O5_2 Tb1A 1_555 1_555
O6A Tb2_2 1_555 1_555
O6A_2 Tb2 1_555 1_555
O6_2 Tb2A 1_555 1_555
O7A C7A 1_555 1_555
O7A_2 Tb1A 1_555 1_555
O8A Tb2 1_555 1_555
O8_2 Tb2A 1_555 1_555
O9A Tb1A_4 1_555 1_555
O9A_2 Tb1A 1_555 1_555
O10A Tb2 1_555 1_555
O10_2 Tb2A 1_555 1_555
O11A Tb1A_3 1_555 1_555
O11A_2 Tb1A 1_555 1_555
O12A Tb1 1_555 1_555
O12_2 Tb1 1_555 1_555
O12A_2 Tb1A 1_555 1_555
O12_3 Tb1A 1_555 1_555
O13A Tb1A 1_555 1_555
H1A O13A 1_555 1_555
H2A O13A 1_555 1_555
O14A Tb2A 1_555 1_555
H3A O14A 1_555 1_555
H4A O14A 1_555 1_555
O15A Tb2A 1_555 1_555
H5A O15A 1_555 1_555
H6A O15A 1_555 1_555
O16A Tb2A 1_555 1_555
H7A O16A 1_555 1_555
H8A O16A 1_555 1_555
C1A H9A 1_555 1_555
C2A C3 1_555 1_555
H10A C2A 1_555 1_555
C3A C2 1_555 1_555
H11A C3A 1_555 1_555
C4A O2A 1_555 1_555
C5A O4A 1_555 1_555
C6A O6A 1_555 1_555
C7A O8A 1_555 1_555
C8A O9A 1_555 1_555
C9A C9 1_555 1_555
O10 Tb2A_3 1_555 1_555
C1 C4 1_555 1_555
C7 C8 1_555 1_555
Tb1A_2 O12A 1_555 1_555
Tb1A_2 O12_2 1_555 1_555
Tb1_3 O12A_2 1_555 1_555
Tb1_3 O12_3 1_555 1_555
O10A C8A 1_555 1_555
O11A C9A 1_555 1_555
O12A C9A 1_555 1_555
C1A C2A 1_555 1_555
C1A C3A 1_555 1_555
C1A C4A 1_555 1_555
C2A C5A 1_555 1_555
C3A C6A 1_555 1_555
C7A C8A 1_555 1_555

#END
