
#######################################################################
#
#                 Cambridge Crystallographic Data Centre
#                                CCDC 
#
#######################################################################
#
# If this CIF has been generated from an entry in the Cambridge 
# Structural Database, then it will include bibliographic, chemical, 
# crystal, experimental, refinement or atomic coordinate data resulting 
# from the CCDC's data processing and validation procedures.
#
#######################################################################

data_EQIRIG
_symmetry_cell_setting           monoclinic
_symmetry_space_group_name_H-M   'C 2/m'
_symmetry_Int_Tables_number      12
_space_group_name_Hall           '-C 2y'
loop_
_symmetry_equiv_pos_site_id
_symmetry_equiv_pos_as_xyz
1 x,y,z
2 -x,y,-z
3 1/2+x,1/2+y,z
4 1/2-x,1/2+y,-z
5 -x,-y,-z
6 x,-y,z
7 1/2-x,1/2-y,-z
8 1/2+x,1/2-y,z
_cell_length_a                   15.5420(7)
_cell_length_b                   22.4344(11)
_cell_length_c                   8.3455(5)
_cell_angle_alpha                90
_cell_angle_beta                 101.538(3)
_cell_angle_gamma                90
_cell_volume                     2851.07
loop_
_atom_site_label
_atom_site_type_symbol
_atom_site_fract_x
_atom_site_fract_y
_atom_site_fract_z
C1 C 0.2094(2) 0.62809(13) 0.6259(4)
H1 H 0.1963 0.6493 0.7138
C2 C 0.2054(2) 0.56570(15) 0.6266(5)
H2 H 0.1881 0.5459 0.7129
C3 C 0.2277(2) 0.53303(15) 0.4971(4)
C4 C 0.2532(2) 0.56746(16) 0.3729(5)
H3 H 0.2705 0.5475 0.2869
C5 C 0.2540(2) 0.62678(16) 0.3713(5)
H4 H 0.2695 0.6470 0.2839
C6 C 0.35839(19) 0.71781(13) 0.8269(4)
C7 C 0.3696(2) 0.71504(13) 1.0114(4)
H5 H 0.3121 0.7174 1.0398
H6 H 0.4031 0.7495 1.0584
C8 C 0.3700(2) 0.60788(15) 1.0629(4)
C9 C 0.4177(2) 0.55315(16) 1.1306(4)
C10 C 0.4950(2) 0.55314(14) 1.2516(4)
H7 H 0.5204 0.5887 1.2948
C11 C 0.5316(3) 0.5000 1.3035(7)
H8 H 0.5829 0.5000 1.3830
C12 C 0.3792(3) 0.5000 1.0731(6)
H9 H 0.3277 0.5000 0.9941
N1 N 0.2320(2) 0.65838(16) 0.4990(4)
N2 N 0.41349(17) 0.66134(12) 1.0843(3)
H10 H 0.4689 0.6631 1.1421
Ni1 Ni 0.2500 0.7500 0.5000
O1 O 0.29434(14) 0.74764(9) 0.7526(3)
O2 O 0.41466(15) 0.69148(11) 0.7611(3)
O3 O 0.29161(14) 0.60664(11) 0.9894(3)
O4 O 0.12230(14) 0.76535(10) 0.5411(3)
H11 H 0.0983 0.7492 0.6132
H12 H 0.0996 0.7931 0.4770
C1E C 0.2094(2) 0.37191(13) 0.6259(4)
H1E H 0.1963 0.3507 0.7138
C2E C 0.2054(2) 0.43430(15) 0.6266(5)
H2E H 0.1881 0.4541 0.7129
C3E C 0.2277(2) 0.46697(15) 0.4971(4)
C4E C 0.2532(2) 0.43254(16) 0.3729(5)
H3E H 0.2705 0.4525 0.2869
C5E C 0.2540(2) 0.37322(16) 0.3713(5)
H4E H 0.2695 0.3530 0.2839
C6E C 0.35839(19) 0.28219(13) 0.8269(4)
C7E C 0.3696(2) 0.28496(13) 1.0114(4)
H5E H 0.3121 0.2826 1.0398
H6E H 0.4031 0.2505 1.0584
C8E C 0.3700(2) 0.39212(15) 1.0629(4)
C9E C 0.4177(2) 0.44685(16) 1.1306(4)
C10E C 0.4950(2) 0.44686(14) 1.2516(4)
H7E H 0.5204 0.4113 1.2948
N1E N 0.2320(2) 0.34162(16) 0.4990(4)
N1F N 0.2680(2) 0.84162(16) 0.5010(4)
N2E N 0.41349(17) 0.33866(12) 1.0843(3)
H10E H 0.4689 0.3369 1.1421
Ni1C Ni 0.2500 0.2500 0.5000
O1E O 0.29434(14) 0.25236(9) 0.7526(3)
O1F O 0.20566(14) 0.75236(9) 0.2474(3)
O2E O 0.41466(15) 0.30852(11) 0.7611(3)
O3E O 0.29161(14) 0.39336(11) 0.9894(3)
O4F O 0.37770(14) 0.73465(10) 0.4589(3)
H11F H 0.4017 0.7508 0.3868
H12F H 0.4004 0.7069 0.5230
O5 O 0.0000 0.32999(14) 0.5000
H13 H 0.0203 0.3580 0.5652
H13A H -0.0203 0.3580 0.4348
O6 O 0.98439(15) 0.40655(12) 0.7611(3)
H14 H 1.0333 0.4232 0.7996
H15 H 0.9688 0.3855 0.8350
O7 O 0.12385(15) 0.42945(12) -0.0031(3)
H16 H 0.1066 0.4518 0.0664
H17 H 0.1758 0.4182 -0.0053
H18? H -0.0078 0.3426 0.4021
loop_
_geom_bond_atom_site_label_1
_geom_bond_atom_site_label_2
_geom_bond_site_symmetry_1
_geom_bond_site_symmetry_2
C1 H1 1_555 1_555
C2 C1 1_555 1_555
H2 C2 1_555 1_555
C3 C2 1_555 1_555
C4 C3 1_555 1_555
H3 C4 1_555 1_555
C5 C4 1_555 1_555
H4 C5 1_555 1_555
C6 C7 1_555 1_555
C7 H5 1_555 1_555
H6 C7 1_555 1_555
C8 C9 1_555 1_555
C9 C10 1_555 1_555
C10 H7 1_555 1_555
C11 C10 1_555 1_555
H8 C11 1_555 1_555
C12 C9 1_555 1_555
H9 C12 1_555 1_555
N1 C1 1_555 1_555
N2 C7 1_555 1_555
H10 N2 1_555 1_555
Ni1 N1 1_555 1_555
O1 C6 1_555 1_555
O2 C6 1_555 1_555
O3 C8 1_555 1_555
O4 Ni1 1_555 1_555
H11 O4 1_555 1_555
H12 O4 1_555 1_555
O5 H13 1_555 1_555
O6 H14 1_555 1_555
H15 O6 1_555 1_555
O7 H16 1_555 1_555
H17 O7 1_555 1_555
C1E H1E 1_555 1_555
C2E C1E 1_555 1_555
H2E C2E 1_555 1_555
C3E C3 1_555 1_555
C4E C3E 1_555 1_555
H3E C4E 1_555 1_555
C5E C4E 1_555 1_555
H4E C5E 1_555 1_555
C6E C7E 1_555 1_555
C7E H5E 1_555 1_555
H6E C7E 1_555 1_555
C8E C9E 1_555 1_555
C9E C12 1_555 1_555
C10E C11 1_555 1_555
H7E C10E 1_555 1_555
N1E C1E 1_555 1_555
N1F Ni1 1_555 1_555
N2E C7E 1_555 1_555
H10E N2E 1_555 1_555
Ni1C N1E 1_555 1_555
O1E C6E 1_555 1_555
O1F Ni1 1_555 1_555
O2E C6E 1_555 1_555
O3E C8E 1_555 1_555
O4F Ni1 1_555 1_555
H11F O4F 1_555 1_555
H12F O4F 1_555 1_555
H13A O5 1_555 1_555
C5 N1 1_555 1_555
C8 N2 1_555 1_555
Ni1 O1 1_555 1_555
C2E C3E 1_555 1_555
C5E N1E 1_555 1_555
C8E N2E 1_555 1_555
C9E C10E 1_555 1_555
Ni1C O1E 1_555 1_555

#END
