
#######################################################################
#
#                 Cambridge Crystallographic Data Centre
#                                CCDC 
#
#######################################################################
#
# If this CIF has been generated from an entry in the Cambridge 
# Structural Database, then it will include bibliographic, chemical, 
# crystal, experimental, refinement or atomic coordinate data resulting 
# from the CCDC's data processing and validation procedures.
#
#######################################################################

data_EQITUT
_symmetry_cell_setting           monoclinic
_symmetry_space_group_name_H-M   'P 21/c'
_symmetry_Int_Tables_number      14
_space_group_name_Hall           '-P 2ybc'
loop_
_symmetry_equiv_pos_site_id
_symmetry_equiv_pos_as_xyz
1 x,y,z
2 x,1/2-y,1/2+z
3 -x,-y,-z
4 -x,1/2+y,1/2-z
_cell_length_a                   9.891(2)
_cell_length_b                   11.031(2)
_cell_length_c                   15.067(3)
_cell_angle_alpha                90
_cell_angle_beta                 93.61(3)
_cell_angle_gamma                90
_cell_volume                     1640.66
loop_
_atom_site_label
_atom_site_type_symbol
_atom_site_fract_x
_atom_site_fract_y
_atom_site_fract_z
Mn1 Mn 0.50017(11) 0.50511(11) 0.37378(7)
Cl1 Cl 0.34650(19) 0.42607(17) 0.48807(12)
Cl2 Cl 0.3374(3) 0.4549(3) 0.25341(19)
O1 O 0.4332(5) 0.6885(4) 0.3553(3)
H1 H 0.3437 0.7132 0.3424
H2 H 0.4813 0.7552 0.3801
N1 N 0.6363(6) 0.3378(5) 0.3689(4)
C1 C 0.6310(9) 0.2481(7) 0.4272(5)
H3 H 0.5505 0.2352 0.4545
C2 C 0.7385(9) 0.1738(7) 0.4489(5)
H4 H 0.7295 0.1105 0.4888
C3 C 0.8560(10) 0.1920(8) 0.4130(6)
H5 H 0.9304 0.1432 0.4287
C4 C 0.8662(8) 0.2858(8) 0.3510(5)
H6 H 0.9479 0.3026 0.3263
C5 C 0.7519(7) 0.3523(6) 0.3278(4)
C6 C 0.7498(7) 0.4504(6) 0.2594(4)
N2 N 0.6631(6) 0.5412(5) 0.2745(4)
C7 C 0.6632(8) 0.6369(7) 0.2206(5)
H7 H 0.6044 0.7011 0.2291
C8 C 0.7510(8) 0.6419(8) 0.1514(5)
H8 H 0.7525 0.7116 0.1167
N3 N 0.8320(7) 0.5506(6) 0.1336(4)
C9 C 0.8277(7) 0.4528(6) 0.1846(5)
C10 C 0.9083(8) 0.3462(7) 0.1571(5)
N4 N 0.8453(6) 0.2383(6) 0.1527(4)
C11 C 0.9130(8) 0.1436(8) 0.1230(5)
H9 H 0.8692 0.0691 0.1187
C12 C 1.0461(8) 0.1506(8) 0.0979(5)
H10 H 1.0890 0.0825 0.0767
C13 C 1.1126(8) 0.2597(8) 0.1050(6)
H11 H 1.2026 0.2671 0.0913
C14 C 1.0393(8) 0.3593(8) 0.1339(5)
H12 H 1.0801 0.4353 0.1374
Cl1B Cl 0.65350(19) 0.57393(17) 0.51193(12)
Mn1B Mn 0.49983(11) 0.49489(11) 0.62622(7)
O2 O 0.4524(5) 0.4183(4) 0.0772(3)
H13 H 0.5439 0.4325 0.0827
H14 H 0.4155 0.4295 0.1309
loop_
_geom_bond_atom_site_label_1
_geom_bond_atom_site_label_2
_geom_bond_site_symmetry_1
_geom_bond_site_symmetry_2
Mn1 Cl1 1_555 1_555
Cl1 Mn1B 1_555 1_555
Cl2 Mn1 1_555 1_555
O1 Mn1 1_555 1_555
H1 O1 1_555 1_555
H2 O1 1_555 1_555
N1 Mn1 1_555 1_555
C1 N1 1_555 1_555
H3 C1 1_555 1_555
C2 C1 1_555 1_555
H4 C2 1_555 1_555
C3 C2 1_555 1_555
H5 C3 1_555 1_555
C4 C3 1_555 1_555
H6 C4 1_555 1_555
C5 N1 1_555 1_555
C6 C5 1_555 1_555
N2 Mn1 1_555 1_555
C7 N2 1_555 1_555
H7 C7 1_555 1_555
C8 C7 1_555 1_555
H8 C8 1_555 1_555
N3 C8 1_555 1_555
C9 C6 1_555 1_555
C10 C9 1_555 1_555
N4 C10 1_555 1_555
C11 N4 1_555 1_555
H9 C11 1_555 1_555
C12 C11 1_555 1_555
H10 C12 1_555 1_555
C13 C12 1_555 1_555
H11 C13 1_555 1_555
C14 C10 1_555 1_555
H12 C14 1_555 1_555
O2 H13 1_555 1_555
H14 O2 1_555 1_555
Cl1B Mn1 1_555 1_555
Mn1B Cl1B 1_555 1_555
C4 C5 1_555 1_555
C6 N2 1_555 1_555
N3 C9 1_555 1_555
C13 C14 1_555 1_555

#END
