
#######################################################################
#
#                 Cambridge Crystallographic Data Centre
#                                CCDC 
#
#######################################################################
#
# If this CIF has been generated from an entry in the Cambridge 
# Structural Database, then it will include bibliographic, chemical, 
# crystal, experimental, refinement or atomic coordinate data resulting 
# from the CCDC's data processing and validation procedures.
#
#######################################################################

data_EQIVAB
_symmetry_cell_setting           orthorhombic
_symmetry_space_group_name_H-M   'P b c a'
_symmetry_Int_Tables_number      61
_space_group_name_Hall           '-P 2ac 2ab'
loop_
_symmetry_equiv_pos_site_id
_symmetry_equiv_pos_as_xyz
1 x,y,z
2 1/2+x,y,1/2-z
3 x,1/2-y,1/2+z
4 1/2-x,1/2+y,z
5 -x,-y,-z
6 1/2-x,-y,1/2+z
7 -x,1/2+y,1/2-z
8 1/2+x,1/2-y,-z
_cell_length_a                   20.257(4)
_cell_length_b                   10.050(2)
_cell_length_c                   21.792(4)
_cell_angle_alpha                90
_cell_angle_beta                 90
_cell_angle_gamma                90
_cell_volume                     4436.48
loop_
_atom_site_label
_atom_site_type_symbol
_atom_site_fract_x
_atom_site_fract_y
_atom_site_fract_z
Mn1 Mn 0.09502(6) 0.09759(13) 0.33292(6)
O1 O 0.1293(4) -0.0429(6) 0.3989(3)
H1 H 0.162(3) -0.028(6) 0.430(3)
H2 H 0.130(4) -0.1384(12) 0.398(3)
O2 O 0.1720(3) 0.2314(7) 0.3599(3)
H3 H 0.206(3) 0.204(6) 0.387(3)
H4 H 0.165(3) 0.322(3) 0.373(3)
N1 N 0.1511(3) 0.0145(6) 0.2543(3)
N2 N 0.0316(3) -0.0691(6) 0.2903(3)
N3 N -0.0467(3) -0.2378(7) 0.2229(3)
N4 N -0.0165(3) -0.3138(6) 0.1095(3)
C1 C 0.2164(4) 0.0408(9) 0.2471(4)
H5 H 0.2349 0.1142 0.2666
C2 C 0.2555(6) -0.0396(9) 0.2114(4)
H6 H 0.3003 -0.0213 0.2069
C3 C 0.2283(4) -0.1460(9) 0.1830(4)
H7 H 0.2549 -0.2019 0.1596
C4 C 0.1616(4) -0.1728(9) 0.1879(4)
H8 H 0.1429 -0.2457 0.1683
C5 C 0.1241(4) -0.0886(9) 0.2228(3)
C6 C 0.0521(4) -0.1125(8) 0.2351(3)
C7 C -0.0266(4) -0.1090(8) 0.3113(4)
H9 H -0.0430 -0.0731 0.3476
C8 C -0.0634(4) -0.2033(8) 0.2800(4)
H10 H -0.0997 -0.2426 0.2987
C9 C 0.0093(4) -0.1874(8) 0.1984(4)
C10 C 0.0165(4) -0.2045(8) 0.1306(4)
C11 C -0.0158(5) -0.3372(9) 0.0497(4)
H11 H -0.0386 -0.4110 0.0350
C12 C 0.0177(4) -0.2558(10) 0.0069(5)
H12 H 0.0189 -0.2760 -0.0347
C13 C 0.0484(5) -0.1448(9) 0.0306(4)
H13 H 0.0702 -0.0875 0.0039
C14 C 0.0478(4) -0.1154(9) 0.0930(4)
H14 H 0.0678 -0.0391 0.1084
N3F N 0.0467(3) 0.2622(7) 0.2771(3)
N4F N 0.0165(3) 0.1862(6) 0.3905(3)
Mn1F Mn -0.09502(6) -0.40241(13) 0.16708(6)
Cl1 Cl 0.10894(14) -0.3947(3) 0.33757(13)
O3 O 0.1532(4) -0.2908(7) 0.3367(5)
O4 O 0.0909(6) -0.4209(8) 0.2784(4)
O5 O 0.1343(5) -0.5047(8) 0.3661(5)
O6 O 0.0549(6) -0.3542(11) 0.3691(5)
Cl3 Cl 0.1739(2) 0.1752(5) 0.0509(2)
O7 O 0.1511(6) 0.1521(12) 0.1019(6)
O8 O 0.1491(6) 0.1391(11) 0.0023(6)
O9 O 0.2344(5) 0.2141(10) 0.0483(4)
O11 O 0.1963(9) 0.0652(19) 0.0548(8)
O12 O 0.3638(8) 0.032(2) 0.0856(9)
O13 O 0.2486(5) 0.0889(9) 0.4442(4)
Cl2? Cl 0.1468(6) 0.2566(13) 0.0572(6)
O10? O 0.1606(19) 0.532(4) 0.0270(17)
loop_
_geom_bond_atom_site_label_1
_geom_bond_atom_site_label_2
_geom_bond_site_symmetry_1
_geom_bond_site_symmetry_2
Mn1 O1 1_555 1_555
O1 H1 1_555 1_555
H2 O1 1_555 1_555
O2 Mn1 1_555 1_555
H3 O2 1_555 1_555
H4 O2 1_555 1_555
N1 Mn1 1_555 1_555
N2 Mn1 1_555 1_555
N3 C8 1_555 1_555
N4 C10 1_555 1_555
C1 N1 1_555 1_555
H5 C1 1_555 1_555
C2 C1 1_555 1_555
H6 C2 1_555 1_555
C3 C2 1_555 1_555
H7 C3 1_555 1_555
C4 C3 1_555 1_555
H8 C4 1_555 1_555
C5 N1 1_555 1_555
C6 N2 1_555 1_555
C7 N2 1_555 1_555
H9 C7 1_555 1_555
C8 C7 1_555 1_555
H10 C8 1_555 1_555
C9 N3 1_555 1_555
C10 C9 1_555 1_555
C11 N4 1_555 1_555
H11 C11 1_555 1_555
C12 C11 1_555 1_555
H12 C12 1_555 1_555
C13 C12 1_555 1_555
H13 C13 1_555 1_555
C14 C10 1_555 1_555
H14 C14 1_555 1_555
Cl1 O3 1_555 1_555
O4 Cl1 1_555 1_555
O5 Cl1 1_555 1_555
O6 Cl1 1_555 1_555
Cl3 O7 1_555 1_555
O8 Cl3 1_555 1_555
O9 Cl3 1_555 1_555
O11 Cl3 1_555 1_555
N3F Mn1 1_555 1_555
N4F Mn1 1_555 1_555
Mn1F N3 1_555 1_555
N4 Mn1F 1_555 1_555
C4 C5 1_555 1_555
C5 C6 1_555 1_555
C6 C9 1_555 1_555
C13 C14 1_555 1_555

#END
