
#######################################################################
#
#                 Cambridge Crystallographic Data Centre
#                                CCDC 
#
#######################################################################
#
# If this CIF has been generated from an entry in the Cambridge 
# Structural Database, then it will include bibliographic, chemical, 
# crystal, experimental, refinement or atomic coordinate data resulting 
# from the CCDC's data processing and validation procedures.
#
#######################################################################

data_EQIWUX
_symmetry_cell_setting           monoclinic
_symmetry_space_group_name_H-M   'P 21/c'
_symmetry_Int_Tables_number      14
_space_group_name_Hall           '-P 2ybc'
loop_
_symmetry_equiv_pos_site_id
_symmetry_equiv_pos_as_xyz
1 x,y,z
2 -x,1/2+y,1/2-z
3 -x,-y,-z
4 x,1/2-y,1/2+z
_cell_length_a                   10.1043(11)
_cell_length_b                   14.3162(15)
_cell_length_c                   17.6061(18)
_cell_angle_alpha                90
_cell_angle_beta                 95.3990(10)
_cell_angle_gamma                90
_cell_volume                     2535.51
loop_
_atom_site_label
_atom_site_type_symbol
_atom_site_fract_x
_atom_site_fract_y
_atom_site_fract_z
C1 C 0.5969(3) 0.6335(2) 0.28726(18)
H1 H 0.6843 0.6438 0.2770
C2 C 0.5508(3) 0.6775(2) 0.35085(18)
H2 H 0.6062 0.7169 0.3815
C3 C 0.4239(3) 0.6615(2) 0.36703(17)
H3 H 0.3913 0.6897 0.4091
C4 C 0.3428(3) 0.60227(19) 0.31985(16)
C5 C 0.3949(3) 0.56207(19) 0.25577(15)
C6 C 0.3140(3) 0.50227(17) 0.20326(16)
C7 C 0.2921(3) 0.4153(2) 0.09188(16)
H4 H 0.3289 0.3933 0.0488
C8 C 0.1639(3) 0.3887(2) 0.10285(17)
H5 H 0.1165 0.3493 0.0681
C9 C 0.1075(3) 0.4209(2) 0.16537(17)
H6 H 0.0204 0.4052 0.1730
C10 C 0.1829(3) 0.47820(19) 0.21793(16)
C11 C 0.1362(3) 0.5182(2) 0.28483(17)
C12 C 0.2089(3) 0.5795(2) 0.33209(16)
C13 C 0.0217(3) 0.5648(2) 0.37777(17)
C14 C -0.0861(3) 0.5709(2) 0.42763(16)
C15 C -0.0816(4) 0.6390(2) 0.48416(19)
H7 H -0.0112 0.6811 0.4897
C16 C -0.1829(4) 0.6437(3) 0.5323(2)
H8 H -0.1812 0.6892 0.5700
C17 C -0.2838(3) 0.5816(3) 0.52369(19)
C18 C -0.2918(4) 0.5136(2) 0.4694(2)
H9 H -0.3627 0.4718 0.4647
C19 C -0.1908(4) 0.5086(2) 0.4214(2)
H10 H -0.1937 0.4623 0.3843
C20 C 0.5840(3) 0.2591(2) -0.09555(16)
H11 H 0.5056 0.2624 -0.0719
C21 C 0.8156(3) 0.24925(19) -0.16977(15)
C22 C 0.8114(3) 0.30705(19) -0.10356(15)
C23 C 0.9248(3) 0.3616(2) -0.07994(19)
H12 H 0.9245 0.3987 -0.0366
C24 C 1.0338(3) 0.3609(3) -0.1193(2)
H13 H 1.1069 0.3975 -0.1028
C25 C 1.0374(3) 0.3056(3) -0.1844(2)
H14 H 1.1128 0.3057 -0.2109
C26 C 0.9313(3) 0.2515(2) -0.20941(18)
H15 H 0.9347 0.2155 -0.2532
C27 C 0.6738(3) 0.3715(2) 0.00215(17)
C28 C 0.6912(3) 0.31042(19) -0.06685(15)
C29 C 0.5888(3) 0.2013(2) -0.15967(17)
H16 H 0.5141 0.1670 -0.1776
C30 C 0.7025(3) 0.19515(19) -0.19604(15)
C31 C 0.7007(3) 0.1273(2) -0.26159(16)
N1 N 0.5221(2) 0.57826(17) 0.24121(14)
N2 N 0.3660(2) 0.47062(17) 0.13934(13)
N3 N 0.1373(2) 0.60922(17) 0.39042(13)
N4 N 0.0159(3) 0.50948(15) 0.31448(15)
H17 H -0.0503 0.4757 0.2966
O1 O 0.5550(2) 0.39743(15) 0.01042(11)
O2 O 0.7698(2) 0.39410(18) 0.04659(13)
O3 O 0.5977(2) 0.12705(14) -0.30753(11)
O4 O 0.7946(2) 0.07105(15) -0.26658(11)
F1 F -0.3815(2) 0.58698(16) 0.57201(13)
Pb1 Pb 0.605388(11) 0.503929(7) 0.117655(6)
O3C O 0.5977(2) 0.37295(14) 0.19247(11)
O4C O 0.7946(2) 0.42895(15) 0.23342(11)
Pb1C Pb 0.605388(11) -0.003929(7) -0.382345(6)
loop_
_geom_bond_atom_site_label_1
_geom_bond_atom_site_label_2
_geom_bond_site_symmetry_1
_geom_bond_site_symmetry_2
C1 H1 1_555 1_555
C2 C1 1_555 1_555
H2 C2 1_555 1_555
C3 C2 1_555 1_555
H3 C3 1_555 1_555
C4 C3 1_555 1_555
C5 C4 1_555 1_555
C6 C5 1_555 1_555
C7 H4 1_555 1_555
C8 C7 1_555 1_555
H5 C8 1_555 1_555
C9 C8 1_555 1_555
H6 C9 1_555 1_555
C10 C6 1_555 1_555
C11 C10 1_555 1_555
C12 C4 1_555 1_555
C13 C14 1_555 1_555
C14 C15 1_555 1_555
C15 H7 1_555 1_555
C16 C15 1_555 1_555
H8 C16 1_555 1_555
C17 C16 1_555 1_555
C18 C17 1_555 1_555
H9 C18 1_555 1_555
C19 C14 1_555 1_555
H10 C19 1_555 1_555
C20 H11 1_555 1_555
C21 C22 1_555 1_555
C22 C23 1_555 1_555
C23 H12 1_555 1_555
C24 C23 1_555 1_555
H13 C24 1_555 1_555
C25 C24 1_555 1_555
H14 C25 1_555 1_555
C26 C21 1_555 1_555
H15 C26 1_555 1_555
C27 C28 1_555 1_555
C28 C20 1_555 1_555
C29 C20 1_555 1_555
H16 C29 1_555 1_555
C30 C21 1_555 1_555
C31 C30 1_555 1_555
N1 C1 1_555 1_555
N2 C6 1_555 1_555
N3 C12 1_555 1_555
N4 C11 1_555 1_555
H17 N4 1_555 1_555
O1 C27 1_555 1_555
O2 C27 1_555 1_555
O3 C31 1_555 1_555
O4 C31 1_555 1_555
F1 C17 1_555 1_555
Pb1 N1 1_555 1_555
O3C Pb1 1_555 1_555
O4C Pb1 1_555 1_555
Pb1C O3 1_555 1_555
C5 N1 1_555 1_555
C7 N2 1_555 1_555
C9 C10 1_555 1_555
C11 C12 1_555 1_555
C13 N3 1_555 1_555
C13 N4 1_555 1_555
C18 C19 1_555 1_555
C22 C28 1_555 1_555
C25 C26 1_555 1_555
C29 C30 1_555 1_555
N2 Pb1 1_555 1_555
O1 Pb1 1_555 1_555
O2 Pb1 1_555 1_555
O4 Pb1C 1_555 1_555

#END
