
#######################################################################
#
#                 Cambridge Crystallographic Data Centre
#                                CCDC 
#
#######################################################################
#
# If this CIF has been generated from an entry in the Cambridge 
# Structural Database, then it will include bibliographic, chemical, 
# crystal, experimental, refinement or atomic coordinate data resulting 
# from the CCDC's data processing and validation procedures.
#
#######################################################################

data_EQIXAE
_symmetry_cell_setting           triclinic
_symmetry_space_group_name_H-M   'P -1'
_symmetry_Int_Tables_number      2
_space_group_name_Hall           '-P 1'
loop_
_symmetry_equiv_pos_site_id
_symmetry_equiv_pos_as_xyz
1 x,y,z
2 -x,-y,-z
_cell_length_a                   10.6447(12)
_cell_length_b                   11.0191(12)
_cell_length_c                   16.1253(18)
_cell_angle_alpha                79.538(2)
_cell_angle_beta                 88.0720(10)
_cell_angle_gamma                61.6650(10)
_cell_volume                     1634.11
loop_
_atom_site_label
_atom_site_type_symbol
_atom_site_fract_x
_atom_site_fract_y
_atom_site_fract_z
C1 C 0.9759(5) -0.0335(6) -0.1940(3)
H1 H 1.0012 -0.0978 -0.2298
Cu1 Cu 0.63295(4) 0.16535(5) -0.04116(3)
Cu2 Cu -0.10932(4) 0.29162(5) -0.54079(3)
O1 O 0.5521(3) 0.0889(3) -0.11178(15)
O2 O 0.5295(3) -0.2202(3) -0.02989(16)
O3 O 0.0322(3) 0.2645(3) -0.45760(17)
O4 O 0.9655(3) -0.1799(3) -0.37959(17)
N1 N -0.2772(3) 0.3419(3) -0.61763(19)
N2 N 0.7156(3) 0.2747(3) 0.0008(2)
N3 N 0.8173(3) 0.0904(3) -0.0961(2)
N4 N -0.2525(3) 0.4813(3) -0.51123(19)
O5 O -0.1570(3) 0.1257(3) -0.4594(2)
H2 H -0.0864 0.0690 -0.4283
C2 C 0.4489(3) 0.0538(4) -0.2687(2)
C3 C 0.4044(4) 0.1791(4) -0.2391(2)
C4 C 0.4878(4) -0.1465(4) -0.1045(2)
C5 C 0.5873(3) -0.0772(3) -0.2403(2)
C6 C 0.2347(4) 0.1653(4) -0.3622(2)
C7 C 0.6038(4) -0.1744(4) -0.1664(2)
C8 C 0.8273(4) -0.2357(4) -0.2746(2)
C9 C 0.9453(4) -0.2752(4) -0.3347(2)
C10 C 0.2748(4) 0.2954(4) -0.2730(2)
H3 H 0.2449 0.3795 -0.2543
C11 C 0.1910(4) 0.2891(4) -0.3327(2)
H4 H 0.1049 0.3677 -0.3536
C12 C 0.3645(4) 0.0507(4) -0.3311(2)
H5 H 0.3961 -0.0310 -0.3527
C13 C 0.7009(3) -0.1079(4) -0.2920(2)
H6 H 0.6930 -0.0418 -0.3394
C14 C -0.3786(4) 0.5471(4) -0.5566(2)
C15 C 0.7300(4) -0.3003(4) -0.1489(2)
H7 H 0.7410 -0.3639 -0.0995
C16 C 0.8966(4) 0.1541(4) -0.0885(2)
C17 C 0.8426(4) 0.2527(4) -0.0285(2)
C18 C 0.7213(5) 0.4346(5) 0.0799(3)
H8 H 0.6777 0.4972 0.1164
O6 O 1.0148(3) -0.4000(3) -0.3400(2)
C19 C -0.3935(4) 0.4664(4) -0.6163(2)
C20 C 0.8396(4) -0.3330(4) -0.2032(2)
H9 H 0.9213 -0.4200 -0.1920
C21 C -0.4817(4) 0.6802(4) -0.5487(3)
H10 H -0.5686 0.7235 -0.5802
C22 C 0.8510(5) 0.4103(5) 0.0504(3)
H11 H 0.8976 0.4553 0.0679
C23 C -0.2263(4) 0.5487(4) -0.4588(3)
H12 H -0.1389 0.5041 -0.4279
C24 C -0.5153(4) 0.5119(5) -0.6671(3)
H13 H -0.5952 0.5978 -0.6651
C25 C -0.3985(5) 0.3013(5) -0.7212(3)
H14 H -0.3978 0.2429 -0.7565
C26 C 0.6569(4) 0.3650(4) 0.0546(3)
H15 H 0.5689 0.3804 0.0752
C27 C -0.3245(5) 0.6819(5) -0.4492(3)
H16 H -0.3029 0.7269 -0.4129
C28 C -0.2815(4) 0.2616(5) -0.6694(3)
H17 H -0.2015 0.1752 -0.6701
C29 C -0.5170(5) 0.4282(5) -0.7208(3)
H18 H -0.5974 0.4577 -0.7561
C30 C 0.9136(4) 0.3199(5) -0.0049(3)
H19 H 1.0013 0.3042 -0.0260
C31 C 1.0174(4) 0.1254(5) -0.1330(3)
H20 H 1.0719 0.1692 -0.1270
C32 C -0.4549(5) 0.7482(4) -0.4939(3)
H21 H -0.5236 0.8374 -0.4871
C33 C 0.8569(4) -0.0024(5) -0.1477(3)
H22 H 0.8026 -0.0469 -0.1525
C34 C 1.0560(5) 0.0305(6) -0.1868(3)
H23 H 1.1364 0.0106 -0.2179
O7 O 0.1780(5) 0.0366(3) -0.4407(3)
C35 C 0.1427(4) 0.1532(4) -0.4262(3)
C36 C 0.4865(4) 0.1941(4) -0.1715(2)
O9 O 0.3621(3) -0.0605(3) -0.12519(18)
H25 H -0.177(6) 0.082(7) -0.481(4)
O10 O 0.4860(3) 0.3074(3) -0.17396(17)
Cu1A Cu 0.36705(4) -0.16535(5) 0.04116(3)
Cu2A Cu 1.10932(4) -0.29162(5) -0.45921(3)
O2A O 0.4705(3) 0.2202(3) 0.02989(16)
O4A O 0.0345(3) 0.1799(3) -0.62041(17)
O8 O 0.2443(4) 0.1919(7) 0.9557(3)
H24 H 0.292(6) 0.126(7) 0.934(4)
H26 H 0.292(7) 0.202(7) 0.975(4)
loop_
_geom_bond_atom_site_label_1
_geom_bond_atom_site_label_2
_geom_bond_site_symmetry_1
_geom_bond_site_symmetry_2
C1 H1 1_555 1_555
Cu1 O1 1_555 1_555
Cu2 O3 1_555 1_555
O1 C36 1_555 1_555
O2 C4 1_555 1_555
O3 C35 1_555 1_555
O4 C9 1_555 1_555
N1 Cu2 1_555 1_555
N2 Cu1 1_555 1_555
N3 Cu1 1_555 1_555
N4 Cu2 1_555 1_555
O5 Cu2 1_555 1_555
H2 O5 1_555 1_555
C2 C3 1_555 1_555
C3 C10 1_555 1_555
C4 C7 1_555 1_555
C5 C2 1_555 1_555
C6 C11 1_555 1_555
C7 C5 1_555 1_555
C8 C9 1_555 1_555
C9 O6 1_555 1_555
C10 H3 1_555 1_555
C11 C10 1_555 1_555
H4 C11 1_555 1_555
C12 C2 1_555 1_555
H5 C12 1_555 1_555
C13 C5 1_555 1_555
H6 C13 1_555 1_555
C14 N4 1_555 1_555
C15 C7 1_555 1_555
H7 C15 1_555 1_555
C16 N3 1_555 1_555
C17 N2 1_555 1_555
C18 H8 1_555 1_555
C19 N1 1_555 1_555
C20 C8 1_555 1_555
H9 C20 1_555 1_555
C21 C14 1_555 1_555
H10 C21 1_555 1_555
C22 C18 1_555 1_555
H11 C22 1_555 1_555
C23 N4 1_555 1_555
H12 C23 1_555 1_555
C24 C19 1_555 1_555
H13 C24 1_555 1_555
C25 H14 1_555 1_555
C26 N2 1_555 1_555
H15 C26 1_555 1_555
C27 C23 1_555 1_555
H16 C27 1_555 1_555
C28 N1 1_555 1_555
H17 C28 1_555 1_555
C29 C24 1_555 1_555
H18 C29 1_555 1_555
C30 C17 1_555 1_555
H19 C30 1_555 1_555
C31 C16 1_555 1_555
H20 C31 1_555 1_555
C32 C21 1_555 1_555
H21 C32 1_555 1_555
C33 C1 1_555 1_555
H22 C33 1_555 1_555
C34 C1 1_555 1_555
H23 C34 1_555 1_555
O7 C35 1_555 1_555
O8 H24 1_555 1_555
C35 C6 1_555 1_555
C36 C3 1_555 1_555
O9 C4 1_555 1_555
H25 O5 1_555 1_555
O10 C36 1_555 1_555
H26 O8 1_555 1_555
Cu1A O2 1_555 1_555
Cu2A O4 1_555 1_555
O2A Cu1 1_555 1_555
O4A Cu2 1_555 1_555
N3 C33 1_555 1_555
C6 C12 1_555 1_555
C8 C13 1_555 1_555
C14 C19 1_555 1_555
C15 C20 1_555 1_555
C16 C17 1_555 1_555
C18 C26 1_555 1_555
C22 C30 1_555 1_555
C25 C28 1_555 1_555
C25 C29 1_555 1_555
C27 C32 1_555 1_555
C31 C34 1_555 1_555

#END
