
#######################################################################
#
#                 Cambridge Crystallographic Data Centre
#                                CCDC 
#
#######################################################################
#
# If this CIF has been generated from an entry in the Cambridge 
# Structural Database, then it will include bibliographic, chemical, 
# crystal, experimental, refinement or atomic coordinate data resulting 
# from the CCDC's data processing and validation procedures.
#
#######################################################################

data_EQIXOR
_symmetry_cell_setting           monoclinic
_symmetry_space_group_name_H-M   'P 21/c'
_symmetry_Int_Tables_number      14
_space_group_name_Hall           '-P 2ybc'
loop_
_symmetry_equiv_pos_site_id
_symmetry_equiv_pos_as_xyz
1 x,y,z
2 x,1/2-y,1/2+z
3 -x,-y,-z
4 -x,1/2+y,1/2-z
_cell_length_a                   11.9851(8)
_cell_length_b                   10.4696(4)
_cell_length_c                   10.0066(6)
_cell_angle_alpha                90
_cell_angle_beta                 98.039(3)
_cell_angle_gamma                90
_cell_volume                     1243.28
loop_
_atom_site_label
_atom_site_type_symbol
_atom_site_fract_x
_atom_site_fract_y
_atom_site_fract_z
Pb1 Pb 0.47791(8) 0.17677(9) 0.00132(9)
Pb2 Pb 0.63872(8) 0.47390(8) -0.12855(8)
Cl1 Cl 0.7063(5) 0.4591(6) -0.3814(5)
Cl2 Cl 0.8543(6) 0.4196(7) -0.0349(6)
P1 P 0.6158(5) 0.3714(5) 0.2502(5)
N1 N 0.8238(16) 0.5065(16) 0.2555(18)
H1 H 0.8088 0.5194 0.1648
C1 C 0.952(2) 0.504(2) 0.293(2)
H2 H 0.9734 0.4621 0.3791
H3 H 0.9874 0.4607 0.2244
C2 C 0.982(3) 0.645(2) 0.300(3)
H4 H 1.0527 0.6580 0.3587
H5 H 0.9888 0.6778 0.2114
C3 C 0.890(2) 0.709(3) 0.356(3)
H6 H 0.8757 0.7924 0.3153
H7 H 0.9084 0.7193 0.4528
C4 C 0.785(2) 0.624(2) 0.323(2)
H8 H 0.7578 0.5995 0.4075
C5 C 0.7701(18) 0.382(2) 0.286(2)
H9 H 0.7923 0.3636 0.3805
H10 H 0.8015 0.3160 0.2346
C6 C 0.6922(19) 0.693(2) 0.232(2)
O1 O 0.5837(13) 0.3565(13) 0.0991(14)
O2 O 0.5924(13) 0.2487(12) 0.3281(13)
O3 O 0.5591(13) 0.4840(13) 0.3098(13)
O4 O 0.6723(16) 0.6652(15) 0.1075(16)
O5 O 0.6365(15) 0.7755(15) 0.2896(17)
O2A O 0.5924(13) 0.2513(12) -0.1719(13)
O3A O 0.5591(13) 0.0160(13) -0.1902(13)
O3C O 0.4409(13) -0.0160(13) 0.1902(13)
O4B O 0.3277(16) 0.3348(15) -0.1075(16)
O5C O 0.3635(15) 0.2755(15) 0.2104(17)
O3B O 0.4409(13) 0.5160(13) -0.3098(13)
O5A O 0.6365(15) 0.7245(15) -0.2104(17)
Pb1A Pb 0.47791(8) 0.32323(9) 0.50132(9)
Pb2A Pb 0.63872(8) 0.02610(8) 0.37145(8)
Pb1C Pb 0.52209(8) 0.67677(9) 0.49868(9)
Pb2B Pb 0.36128(8) 0.52610(8) 0.12855(8)
Pb1B Pb 0.52209(8) 0.82323(9) -0.00132(9)
Pb2A_2 Pb 0.63872(8) 1.02610(8) 0.37145(8)
loop_
_geom_bond_atom_site_label_1
_geom_bond_atom_site_label_2
_geom_bond_site_symmetry_1
_geom_bond_site_symmetry_2
Pb1 O1 1_555 1_555
Pb2 Cl1 1_555 1_555
Cl2 Pb2 1_555 1_555
P1 C5 1_555 1_555
N1 H1 1_555 1_555
C1 N1 1_555 1_555
H2 C1 1_555 1_555
H3 C1 1_555 1_555
C2 C1 1_555 1_555
H4 C2 1_555 1_555
H5 C2 1_555 1_555
C3 C2 1_555 1_555
H6 C3 1_555 1_555
H7 C3 1_555 1_555
C4 N1 1_555 1_555
H8 C4 1_555 1_555
C5 N1 1_555 1_555
H9 C5 1_555 1_555
H10 C5 1_555 1_555
C6 C4 1_555 1_555
O1 Pb2 1_555 1_555
O2 P1 1_555 1_555
O3 P1 1_555 1_555
O4 C6 1_555 1_555
O5 C6 1_555 1_555
O2A Pb1 1_555 1_555
O3A Pb1 1_555 1_555
O3C Pb1 1_555 1_555
O4B Pb1 1_555 1_555
O5C Pb1 1_555 1_555
O3B Pb2 1_555 1_555
O5A Pb2 1_555 1_555
Pb1A O2 1_555 1_555
Pb2A O2 1_555 1_555
Pb1C O3 1_555 1_555
Pb2B O3 1_555 1_555
Pb1B O4 1_555 1_555
Pb2A_2 O5 1_555 1_555
Pb2 O2A 1_555 1_555
P1 O1 1_555 1_555
C3 C4 1_555 1_555
O3 Pb1A 1_555 1_555
O5 Pb1C 1_555 1_555
O3C Pb2A 1_555 1_555
O5C Pb2B 1_555 1_555
O5A Pb1B 1_555 1_555

#END
