
#######################################################################
#
#                 Cambridge Crystallographic Data Centre
#                                CCDC 
#
#######################################################################
#
# If this CIF has been generated from an entry in the Cambridge 
# Structural Database, then it will include bibliographic, chemical, 
# crystal, experimental, refinement or atomic coordinate data resulting 
# from the CCDC's data processing and validation procedures.
#
#######################################################################

data_EQOGUN
_symmetry_cell_setting           triclinic
_symmetry_space_group_name_H-M   'P -1'
_symmetry_Int_Tables_number      2
_space_group_name_Hall           '-P 1'
loop_
_symmetry_equiv_pos_site_id
_symmetry_equiv_pos_as_xyz
1 x,y,z
2 -x,-y,-z
_cell_length_a                   8.6581(7)
_cell_length_b                   10.5948(9)
_cell_length_c                   11.1721(9)
_cell_angle_alpha                75.9640(10)
_cell_angle_beta                 83.8260(10)
_cell_angle_gamma                89.2430(10)
_cell_volume                     988.374
loop_
_atom_site_label
_atom_site_type_symbol
_atom_site_fract_x
_atom_site_fract_y
_atom_site_fract_z
Co1 Co 0.0000 0.0000 0.0000
O1 O 0.0309(4) 0.1967(3) 0.0033(3)
H1 H 0.007(3) 0.257(2) -0.059(2)
H2 H -0.0113 0.1335 0.0537
O3 O 0.1181(4) 0.0530(3) -0.1804(3)
H5 H 0.079(6) 0.118(3) -0.228(4)
H6 H 0.155(6) -0.002(4) -0.220(4)
N1 N 0.2134(4) -0.0516(3) 0.0798(3)
N2 N 0.5336(4) -0.3783(3) 0.0301(3)
H11 H 0.551(5) -0.408(4) 0.111(2)
C1 C 0.3186(5) -0.1164(4) 0.0216(4)
H12 H 0.2982 -0.1309 -0.0559
C2 C 0.4558(5) -0.1633(4) 0.0684(4)
C3 C 0.4856(5) -0.1417(4) 0.1813(4)
H13 H 0.5780 -0.1729 0.2165
C4 C 0.3788(6) -0.0742(4) 0.2418(5)
H14 H 0.3974 -0.0570 0.3186
C5 C 0.2441(5) -0.0320(4) 0.1887(4)
H15 H 0.1702 0.0130 0.2316
C6 C 0.5659(5) -0.2349(4) -0.0040(4)
H16 H 0.5575 -0.2005 -0.0937
H17 H 0.6736 -0.2190 0.0113
C7 C 0.6503(5) -0.4443(4) -0.0402(4)
H18 H 0.7557 -0.4244 -0.0226
H19 H 0.6438 -0.4105 -0.1302
C8 C 0.3751(5) -0.4108(4) 0.0062(4)
H20 H 0.3621 -0.3757 -0.0826
H21 H 0.2968 -0.3701 0.0558
Co1_2 Co 1.0000 -1.0000 0.0000
O1A O -0.0309(4) -0.1967(3) -0.0033(3)
H1A H -0.007(3) -0.257(2) 0.059(2)
H2A H 0.0113 -0.1335 -0.0537
O3A O -0.1181(4) -0.0530(3) 0.1804(3)
H5A H -0.079(6) -0.118(3) 0.228(4)
H6A H -0.155(6) 0.002(4) 0.220(4)
N1A N 0.7866(4) -0.9484(3) -0.0798(3)
N1A_2 N -0.2134(4) 0.0516(3) -0.0798(3)
N2A N 0.4664(4) -0.6217(3) -0.0301(3)
H11A H 0.449(5) -0.592(4) -0.111(2)
C1A C 0.6814(5) -0.8836(4) -0.0216(4)
H12A H 0.7018 -0.8691 0.0559
C2A C 0.5442(5) -0.8367(4) -0.0684(4)
C3A C 0.5144(5) -0.8583(4) -0.1813(4)
H13A H 0.4220 -0.8271 -0.2165
C4A C 0.6212(6) -0.9258(4) -0.2418(5)
H14A H 0.6026 -0.9430 -0.3186
C5A C 0.7559(5) -0.9680(4) -0.1887(4)
H15A H 0.8298 -1.0130 -0.2316
C6A C 0.4341(5) -0.7651(4) 0.0040(4)
H16A H 0.4425 -0.7995 0.0937
H17A H 0.3264 -0.7810 -0.0113
C7A C 0.3497(5) -0.5557(4) 0.0402(4)
H18A H 0.2443 -0.5756 0.0226
H19A H 0.3562 -0.5895 0.1302
C8A C 0.6249(5) -0.5892(4) -0.0062(4)
H20A H 0.6379 -0.6243 0.0826
H21A H 0.7032 -0.6299 -0.0558
O2 O -0.0014(8) 0.1316(6) -0.5308(6)
H3 H -0.013(10) 0.170(8) -0.470(6)
H4 H -0.072(8) 0.073(6) -0.521(8)
O4 O -0.0401(8) 0.3522(13) -0.8374(9)
H7 H -0.069(13) 0.408(8) -0.797(6)
H8 H -0.0294 0.3154 -0.8989
O5 O -0.3197(5) 0.3655(4) -0.7027(4)
O7 O -0.4314(4) 0.5601(3) -0.7396(3)
O8 O -0.0465(4) 0.3719(3) -0.1936(3)
O9 O -0.0128(4) 0.2491(3) -0.3310(3)
O10 O -0.3084(5) 0.7882(4) -0.3045(3)
O11 O -0.3885(5) 0.8542(3) -0.4850(4)
N3 N -0.3291(5) 0.7717(4) -0.4068(4)
C9 C -0.2982(5) 0.5009(4) -0.5631(4)
C10 C -0.3353(5) 0.6196(4) -0.5380(4)
H22 H -0.3954 0.6804 -0.5905
C11 C -0.2833(5) 0.6479(4) -0.4349(4)
C12 C -0.1958(5) 0.5617(4) -0.3561(4)
H23 H -0.1619 0.5836 -0.2855
C13 C -0.1588(5) 0.4435(4) -0.3822(4)
C14 C -0.2098(5) 0.4136(4) -0.4853(4)
H24 H -0.1841 0.3322 -0.5032
C15 C -0.3526(5) 0.4715(5) -0.6769(4)
C16 C -0.0648(5) 0.3468(4) -0.2961(4)
O6 O -0.2796(8) 0.0980(5) -0.6756(7)
H9 H -0.3105 0.0287 -0.6224
H10 H -0.2918 0.1794 -0.6848
loop_
_geom_bond_atom_site_label_1
_geom_bond_atom_site_label_2
_geom_bond_site_symmetry_1
_geom_bond_site_symmetry_2
Co1 O1 1_555 1_555
O1 H1 1_555 1_555
H2 O1 1_555 1_555
O2 H3 1_555 1_555
H4 O2 1_555 1_555
O3 Co1 1_555 1_555
H5 O3 1_555 1_555
H6 O3 1_555 1_555
O4 H7 1_555 1_555
H8 O4 1_555 1_555
O5 C15 1_555 1_555
O6 H9 1_555 1_555
H10 O6 1_555 1_555
O7 C15 1_555 1_555
O8 C16 1_555 1_555
O9 C16 1_555 1_555
O10 N3 1_555 1_555
O11 N3 1_555 1_555
N1 Co1 1_555 1_555
N2 H11 1_555 1_555
N3 C11 1_555 1_555
C1 N1 1_555 1_555
H12 C1 1_555 1_555
C2 C1 1_555 1_555
C3 C2 1_555 1_555
H13 C3 1_555 1_555
C4 C3 1_555 1_555
H14 C4 1_555 1_555
C5 N1 1_555 1_555
H15 C5 1_555 1_555
C6 N2 1_555 1_555
H16 C6 1_555 1_555
H17 C6 1_555 1_555
C7 N2 1_555 1_555
H18 C7 1_555 1_555
H19 C7 1_555 1_555
C8 N2 1_555 1_555
H20 C8 1_555 1_555
H21 C8 1_555 1_555
C9 C10 1_555 1_555
C10 H22 1_555 1_555
C11 C10 1_555 1_555
C12 C11 1_555 1_555
H23 C12 1_555 1_555
C13 C12 1_555 1_555
C14 C9 1_555 1_555
H24 C14 1_555 1_555
C15 C9 1_555 1_555
C16 C13 1_555 1_555
Co1_2 N1A 1_555 1_555
O1A Co1 1_555 1_555
H1A O1A 1_555 1_555
H2A O1A 1_555 1_555
O3A Co1 1_555 1_555
H5A O3A 1_555 1_555
H6A O3A 1_555 1_555
N1A C1A 1_555 1_555
N1A_2 Co1 1_555 1_555
N2A H11A 1_555 1_555
C1A H12A 1_555 1_555
C2A C1A 1_555 1_555
C3A C2A 1_555 1_555
H13A C3A 1_555 1_555
C4A C3A 1_555 1_555
H14A C4A 1_555 1_555
C5A N1A 1_555 1_555
H15A C5A 1_555 1_555
C6A N2A 1_555 1_555
H16A C6A 1_555 1_555
H17A C6A 1_555 1_555
C7A C8 1_555 1_555
H18A C7A 1_555 1_555
H19A C7A 1_555 1_555
C8A C7 1_555 1_555
H20A C8A 1_555 1_555
H21A C8A 1_555 1_555
C2 C6 1_555 1_555
C4 C5 1_555 1_555
C13 C14 1_555 1_555
N2A C7A 1_555 1_555
N2A C8A 1_555 1_555
C2A C6A 1_555 1_555
C4A C5A 1_555 1_555

#END
