
#######################################################################
#
#                 Cambridge Crystallographic Data Centre
#                                CCDC 
#
#######################################################################
#
# If this CIF has been generated from an entry in the Cambridge 
# Structural Database, then it will include bibliographic, chemical, 
# crystal, experimental, refinement or atomic coordinate data resulting 
# from the CCDC's data processing and validation procedures.
#
#######################################################################

data_EQOJAW
_symmetry_cell_setting           monoclinic
_symmetry_space_group_name_H-M   'P 21/c'
_symmetry_Int_Tables_number      14
_space_group_name_Hall           '-P 2ybc'
loop_
_symmetry_equiv_pos_site_id
_symmetry_equiv_pos_as_xyz
1 x,y,z
2 -x,1/2+y,1/2-z
3 -x,-y,-z
4 x,1/2-y,1/2+z
_cell_length_a                   14.94214(34)
_cell_length_b                   7.71568(18)
_cell_length_c                   9.39079(20)
_cell_angle_alpha                90
_cell_angle_beta                 90.7765(17)
_cell_angle_gamma                90
_cell_volume                     1082.55
loop_
_atom_site_label
_atom_site_type_symbol
_atom_site_fract_x
_atom_site_fract_y
_atom_site_fract_z
Zn1 Zn 0.25204(16) 0.55102(31) 0.52811(26)
O1 O 0.36203(69) 0.3897(15) 0.6158(12)
C1 C 0.282570 0.817810 0.743820
C2 C 0.204880 0.723870 0.793240
O2 O 0.177100 0.594310 0.726060
O3 O 0.165700 0.772460 0.903020
N1 N 0.316780 0.783710 0.608630
C3 C 0.391780 0.874400 0.560920
O4 O 0.424770 0.841520 0.430550
N2 N 0.43257 0.9992 0.6484
H1 H 0.486140 1.063980 0.614320
C4 C 0.398360 1.033300 0.783590
O5 O 0.43769 1.153640 0.867950
N3 N 0.323350 0.942610 0.831310
N4 N 0.161080 0.338200 0.507590
C5 C 0.078580 0.354650 0.430730
H2 H 0.066640 0.465070 0.378050
C6 C 0.015050 0.221270 0.427740
H3 H -0.041120 0.238800 0.372970
C7 C 0.034030 0.071450 0.501600
C8 C 0.111990 0.045480 0.578250
H4 H 0.125060 -0.062560 0.630980
C9 C 0.175520 0.178850 0.581240
H5 H 0.232820 0.163700 0.636060
Zn1C Zn 0.25204(16) 0.94898(31) 0.02811(26)
Zn1B Zn -0.25204(16) -0.55102(31) 0.47189(26)
Zn1C_2 Zn 0.25204(16) 0.94898(31) 1.02811(26)
Zn1A Zn -0.25204(16) 2.05102(31) -0.02811(26)
Zn1_2 Zn 0.25204(16) 0.55102(31) -0.47189(26)
O1C O 0.36203(69) 1.1103(15) 0.1158(12)
O1B O -0.36203(69) -0.3897(15) 0.3842(12)
C1C C 0.282570 0.682190 0.243820
C1_2 C 0.282570 0.817810 -0.256180
C2C C 0.204880 0.776130 0.293240
C2_2 C 0.204880 0.723870 -0.206760
O2C O 0.177100 0.905690 0.226060
O2_2 O 0.177100 0.594310 -0.273940
O2B O -0.177100 -0.594310 0.273940
O3C O 0.165700 0.727540 0.403020
O3_2 O 0.165700 0.772460 -0.096980
O3A O -0.165700 -0.727540 0.596980
N1C N 0.316780 0.716290 0.108630
N1_2 N 0.316780 0.783710 -0.391370
N1B N -0.316780 -0.783710 0.391370
C3C C 0.391780 0.625600 0.060920
C3_2 C 0.391780 0.874400 -0.439080
O4C O 0.424770 0.658480 -0.069450
O4_2 O 0.424770 0.841520 -0.569450
N2C N 0.43257 0.5008 0.1484
N2_2 N 0.43257 0.9992 -0.3516
H1C H 0.486140 0.436020 0.114320
H1_2 H 0.486140 1.063980 -0.385680
C4C C 0.398360 0.466700 0.283590
C4_2 C 0.398360 1.033300 -0.216410
O5C O 0.43769 0.346360 0.367950
O5_2 O 0.43769 1.153640 -0.132050
N3C N 0.323350 0.557390 0.331310
N3_2 N 0.323350 0.942610 -0.168690
N3A N -0.323350 -0.557390 0.668690
N4B N -0.161080 -0.338200 0.492410
N4C N 0.161080 1.161800 0.007590
N4A N -0.161080 1.838200 -0.007590
C5B C -0.078580 -0.354650 0.569270
C5C C 0.078580 1.145350 -0.069270
C5A C -0.078580 1.854650 0.069270
H2B H -0.066640 -0.465070 0.621950
H2C H 0.066640 1.034930 -0.121950
H2A H -0.066640 1.965070 0.121950
C6B C -0.015050 -0.221270 0.572260
C6C C 0.015050 1.278730 -0.072260
C6A C -0.015050 1.721270 0.072260
H3B H 0.041120 -0.238800 0.627030
H3C H -0.041120 1.261200 -0.127030
H3A H 0.041120 1.738800 0.127030
C7B C -0.034030 -0.071450 0.498400
C7C C 0.034030 1.428550 0.001600
C7A C -0.034030 1.571450 -0.001600
C8B C -0.111990 -0.045480 0.421750
C8C C 0.111990 1.454520 0.078250
C8A C -0.111990 1.545480 -0.078250
H4B H -0.125060 0.062560 0.369020
H4C H 0.125060 1.562560 0.130980
H4A H -0.125060 1.437440 -0.130980
C9B C -0.175520 -0.178850 0.418760
C9C C 0.175520 1.321150 0.081240
C9A C -0.175520 1.678850 -0.081240
H5B H -0.232820 -0.163700 0.363940
H5C H 0.232820 1.336300 0.136060
H5A H -0.232820 1.663700 -0.136060
loop_
_geom_bond_atom_site_label_1
_geom_bond_atom_site_label_2
_geom_bond_site_symmetry_1
_geom_bond_site_symmetry_2
Zn1 O1 1_555 1_555
C1 C2 1_555 1_555
C2 O2 1_555 1_555
O2 Zn1 1_555 1_555
O3 C2 1_555 1_555
N1 Zn1 1_555 1_555
C3 N1 1_555 1_555
O4 C3 1_555 1_555
N2 C3 1_555 1_555
H1 N2 1_555 1_555
C4 N2 1_555 1_555
O5 C4 1_555 1_555
N3 C1 1_555 1_555
N4 Zn1 1_555 1_555
C5 N4 1_555 1_555
H2 C5 1_555 1_555
C6 C5 1_555 1_555
H3 C6 1_555 1_555
C7 C6 1_555 1_555
C8 C7 1_555 1_555
H4 C8 1_555 1_555
C9 N4 1_555 1_555
H5 C9 1_555 1_555
Zn1C O1C 1_555 1_555
Zn1B O1B 1_555 1_555
Zn1C_2 O3 1_555 1_555
Zn1A N4A 1_555 1_555
Zn1_2 O2_2 1_555 1_555
C1C C2C 1_555 1_555
C1_2 C2_2 1_555 1_555
C2C O2C 1_555 1_555
C2_2 O2_2 1_555 1_555
O2C Zn1C 1_555 1_555
O2B Zn1B 1_555 1_555
O3C Zn1 1_555 1_555
O3_2 Zn1C 1_555 1_555
O3A Zn1B 1_555 1_555
N1C Zn1C 1_555 1_555
N1_2 Zn1_2 1_555 1_555
N1B Zn1B 1_555 1_555
C3C N1C 1_555 1_555
C3_2 N1_2 1_555 1_555
O4C C3C 1_555 1_555
O4_2 C3_2 1_555 1_555
N2C C3C 1_555 1_555
N2_2 C3_2 1_555 1_555
H1C N2C 1_555 1_555
H1_2 N2_2 1_555 1_555
C4C N2C 1_555 1_555
C4_2 N2_2 1_555 1_555
O5C C4C 1_555 1_555
O5_2 C4_2 1_555 1_555
N3C Zn1 1_555 1_555
N3_2 Zn1C 1_555 1_555
N3A Zn1B 1_555 1_555
N4B Zn1B 1_555 1_555
N4C Zn1C 1_555 1_555
N4A C5A 1_555 1_555
C5B N4B 1_555 1_555
C5C N4C 1_555 1_555
C5A H2A 1_555 1_555
H2B C5B 1_555 1_555
H2C C5C 1_555 1_555
C6B C5B 1_555 1_555
C6C C5C 1_555 1_555
C6A C5A 1_555 1_555
H3B C6B 1_555 1_555
H3C C6C 1_555 1_555
H3A C6A 1_555 1_555
C7B C7 1_555 1_555
C7C C6C 1_555 1_555
C7A C6A 1_555 1_555
C8B C7B 1_555 1_555
C8C C7C 1_555 1_555
C8A C7A 1_555 1_555
H4B C8B 1_555 1_555
H4C C8C 1_555 1_555
H4A C8A 1_555 1_555
C9B N4B 1_555 1_555
C9C N4C 1_555 1_555
C9A N4A 1_555 1_555
H5B C9B 1_555 1_555
H5C C9C 1_555 1_555
H5A C9A 1_555 1_555
C1 N1 1_555 1_555
C4 N3 1_555 1_555
N3 Zn1C_2 1_555 1_555
C8 C9 1_555 1_555
C1C N1C 1_555 1_555
C1C N3C 1_555 1_555
C1_2 N1_2 1_555 1_555
C1_2 N3_2 1_555 1_555
C2C O3C 1_555 1_555
C2_2 O3_2 1_555 1_555
C4C N3C 1_555 1_555
C4_2 N3_2 1_555 1_555
C6B C7B 1_555 1_555
C7C C7A 1_555 1_555
C8B C9B 1_555 1_555
C8C C9C 1_555 1_555
C8A C9A 1_555 1_555

#END
