
#######################################################################
#
#                 Cambridge Crystallographic Data Centre
#                                CCDC 
#
#######################################################################
#
# If this CIF has been generated from an entry in the Cambridge 
# Structural Database, then it will include bibliographic, chemical, 
# crystal, experimental, refinement or atomic coordinate data resulting 
# from the CCDC's data processing and validation procedures.
#
#######################################################################

data_EQOJUP
_symmetry_cell_setting           triclinic
_symmetry_space_group_name_H-M   'P -1'
_symmetry_Int_Tables_number      2
_space_group_name_Hall           '-P 1'
loop_
_symmetry_equiv_pos_site_id
_symmetry_equiv_pos_as_xyz
1 x,y,z
2 -x,-y,-z
_cell_length_a                   6.346(3)
_cell_length_b                   7.022(3)
_cell_length_c                   23.044(11)
_cell_angle_alpha                82.638(7)
_cell_angle_beta                 83.169(6)
_cell_angle_gamma                67.880(6)
_cell_volume                     940.658
loop_
_atom_site_label
_atom_site_type_symbol
_atom_site_fract_x
_atom_site_fract_y
_atom_site_fract_z
Ag1 Ag 0.15091(4) 0.96519(5) 0.263720(13)
N1 N -0.1950(5) 1.1451(5) 0.24784(17)
N2 N -0.5056(5) 0.7780(5) 0.28042(17)
C1 C -0.3395(6) 1.0318(6) 0.23734(17)
C2 C -0.3556(6) 0.8855(6) 0.29069(16)
H1 H -0.261(7) 1.223(6) 0.2750(19)
H2 H -0.199(7) 1.223(6) 0.2174(19)
H3 H -0.517(7) 0.708(6) 0.3097(19)
H4 H -0.426(8) 0.695(7) 0.251(2)
H5 H -0.497(6) 1.140(6) 0.2275(16)
H6 H -0.270(6) 0.954(6) 0.2043(17)
H7 H -0.398(6) 0.971(6) 0.3254(17)
H8 H -0.203(6) 0.791(5) 0.2993(15)
N2_2 N 0.4944(5) 0.7780(5) 0.28042(17)
Ag1_2 Ag -0.84909(4) 0.96519(5) 0.263720(13)
H3_2 H 0.483(7) 0.708(6) 0.3097(19)
H4_2 H 0.574(8) 0.695(7) 0.251(2)
Ag2 Ag 0.21981(5) 0.52819(5) 0.214269(13)
N3 N -0.1364(7) 0.2093(5) 0.56917(15)
N4 N 0.8848(6) 0.8368(5) -0.10155(15)
O1 O 0.0781(4) 0.4177(4) 0.29459(11)
O2 O 0.4030(5) 0.3928(4) 0.32894(12)
O3 O -0.3409(6) 0.2478(5) 0.57812(14)
O4 O -0.0027(6) 0.1416(6) 0.60706(14)
O5 O 0.3623(5) 0.6256(5) 0.13493(12)
O6 O 0.6924(5) 0.5761(4) 0.17150(12)
O7 O 0.7730(6) 0.8445(6) -0.14233(14)
O8 O 1.0633(6) 0.8678(6) -0.10889(14)
C3 C 0.2113(6) 0.3836(5) 0.33546(16)
C4 C 0.1185(6) 0.3291(5) 0.39590(15)
C5 C 0.2640(7) 0.2493(6) 0.44051(18)
C6 C 0.1826(7) 0.2095(6) 0.49726(18)
C7 C -0.0457(6) 0.2511(5) 0.50844(16)
C8 C -0.1953(7) 0.3261(6) 0.46555(17)
C9 C -0.1119(6) 0.3655(6) 0.40877(17)
C10 C 0.5663(7) 0.6237(6) 0.13094(17)
C11 C 0.6492(6) 0.6852(5) 0.07048(15)
C12 C 0.5272(6) 0.7032(6) 0.02292(17)
C13 C 0.5988(7) 0.7537(6) -0.03312(18)
C14 C 0.8006(6) 0.7879(5) -0.04193(15)
C15 C 0.9264(6) 0.7747(6) 0.00424(17)
C16 C 0.8526(7) 0.7219(6) 0.06032(18)
H9 H 0.397(7) 0.238(6) 0.4298(19)
H10 H 0.281(7) 0.166(6) 0.528(2)
H11 H -0.365(7) 0.367(6) 0.4742(18)
H12 H -0.210(6) 0.417(5) 0.3775(17)
H13 H 0.400(6) 0.673(6) 0.0305(16)
H14 H 0.525(7) 0.753(6) -0.0629(18)
H15 H 1.054(6) 0.794(6) -0.0040(17)
H16 H 0.928(7) 0.716(6) 0.092(2)
loop_
_geom_bond_atom_site_label_1
_geom_bond_atom_site_label_2
_geom_bond_site_symmetry_1
_geom_bond_site_symmetry_2
Ag1 N1 1_555 1_555
N1 C1 1_555 1_555
N2 C2 1_555 1_555
C1 C2 1_555 1_555
C2 H7 1_555 1_555
H1 N1 1_555 1_555
H2 N1 1_555 1_555
H3 N2 1_555 1_555
H4 N2 1_555 1_555
H5 C1 1_555 1_555
H6 C1 1_555 1_555
H8 C2 1_555 1_555
Ag2 O1 1_555 1_555
N3 O3 1_555 1_555
N4 O7 1_555 1_555
O1 C3 1_555 1_555
O2 C3 1_555 1_555
O4 N3 1_555 1_555
O5 Ag2 1_555 1_555
O6 C10 1_555 1_555
O8 N4 1_555 1_555
C3 C4 1_555 1_555
C4 C5 1_555 1_555
C5 C6 1_555 1_555
C6 C7 1_555 1_555
C7 N3 1_555 1_555
C8 C7 1_555 1_555
C9 C4 1_555 1_555
C10 O5 1_555 1_555
C11 C10 1_555 1_555
C12 C11 1_555 1_555
C13 C12 1_555 1_555
C14 N4 1_555 1_555
C15 C14 1_555 1_555
C16 C11 1_555 1_555
H9 C5 1_555 1_555
H10 C6 1_555 1_555
H11 C8 1_555 1_555
H12 C9 1_555 1_555
H13 C12 1_555 1_555
H14 C13 1_555 1_555
H15 C15 1_555 1_555
H16 C16 1_555 1_555
N2_2 Ag1 1_555 1_555
Ag1_2 N2 1_555 1_555
H3_2 N2_2 1_555 1_555
H4_2 N2_2 1_555 1_555
C8 C9 1_555 1_555
C13 C14 1_555 1_555
C15 C16 1_555 1_555

#END
