
#######################################################################
#
#                 Cambridge Crystallographic Data Centre
#                                CCDC 
#
#######################################################################
#
# If this CIF has been generated from an entry in the Cambridge 
# Structural Database, then it will include bibliographic, chemical, 
# crystal, experimental, refinement or atomic coordinate data resulting 
# from the CCDC's data processing and validation procedures.
#
#######################################################################

data_EQOQEG
_symmetry_cell_setting           triclinic
_symmetry_space_group_name_H-M   'P -1'
_symmetry_Int_Tables_number      2
_space_group_name_Hall           '-P 1'
loop_
_symmetry_equiv_pos_site_id
_symmetry_equiv_pos_as_xyz
1 x,y,z
2 -x,-y,-z
_cell_length_a                   9.486(5)
_cell_length_b                   11.381(5)
_cell_length_c                   23.904(5)
_cell_angle_alpha                94.779(5)
_cell_angle_beta                 101.094(5)
_cell_angle_gamma                91.342(5)
_cell_volume                     2521.6
loop_
_atom_site_label
_atom_site_type_symbol
_atom_site_fract_x
_atom_site_fract_y
_atom_site_fract_z
Ag1 Ag -0.74449(3) -0.18141(3) 0.206230(12)
Ag2 Ag -0.68353(4) -0.54182(3) 0.396790(15)
Ag3 Ag -0.77219(4) 0.00552(3) 0.090430(14)
Cr1 Cr -0.32287(6) -0.30253(5) 0.06800(2)
Cr2 Cr -1.11362(6) -0.80135(5) 0.24453(2)
Cr3 Cr -0.74550(6) -0.23619(5) 0.44260(2)
C1 C -1.0421(4) -0.2164(3) 0.10657(15)
C2 C -1.0810(4) -0.2864(3) 0.15520(15)
C3 C -0.5544(4) -0.3103(3) 0.12121(15)
C4 C -0.5049(4) -0.1777(3) 0.12601(14)
C5 C -0.5034(4) -0.1795(3) -0.02402(17)
H1 H -0.5495 -0.1554 0.0057
C6 C -0.5392(4) -0.1282(4) -0.07440(18)
H2 H -0.6080 -0.0711 -0.0788
C7 C -0.4700(5) -0.1638(3) -0.11867(17)
H3 H -0.4902 -0.1290 -0.1530
C8 C -0.3706(5) -0.2511(3) -0.11149(16)
H4 H -0.3243 -0.2764 -0.1410
C9 C -0.3412(4) -0.3008(3) -0.05882(14)
C10 C -0.2211(4) -0.4742(3) -0.01666(14)
C11 C -0.1501(4) -0.5752(3) -0.03150(16)
H5 H -0.1144 -0.5821 -0.0652
C12 C -0.1342(4) -0.6636(3) 0.00446(18)
H6 H -0.0852 -0.7305 -0.0042
C13 C -0.1910(4) -0.6530(3) 0.05348(17)
H7 H -0.1851 -0.7140 0.0773
C14 C -0.2562(4) -0.5511(3) 0.06643(16)
H8 H -0.2947 -0.5442 0.0995
C15 C -0.9652(4) -0.6786(3) 0.34210(14)
C16 C -0.9167(4) -0.6231(3) 0.29154(15)
C17 C -1.0167(4) 0.1276(3) 0.14669(15)
C18 C -0.8965(4) 0.0997(3) 0.19795(15)
C19 C -1.1799(5) -1.0563(3) 0.24719(18)
H9 H -1.0973 -1.0611 0.2316
C20 C -1.2406(5) -1.1582(4) 0.25958(18)
H10 H -1.2007 -1.2306 0.2526
C21 C -1.3633(5) -1.1511(4) 0.28287(19)
H11 H -1.4073 -1.2190 0.2919
C22 C -1.4191(5) -1.0432(4) 0.2924(2)
H12 H -1.5011 -1.0374 0.3083
C23 C -1.3530(4) -0.9413(3) 0.27837(15)
C24 C -1.4040(4) -0.7303(3) 0.26481(15)
C25 C -1.5096(5) -0.6480(4) 0.27017(19)
H13 H -1.5819 -0.6642 0.2901
C26 C -1.5053(5) -0.5446(4) 0.2460(2)
H14 H -1.5741 -0.4890 0.2494
C27 C -1.3967(5) -0.5225(4) 0.21599(19)
H15 H -1.3935 -0.4531 0.1983
C28 C -1.2960(4) -0.6039(3) 0.21312(16)
H16 H -1.2233 -0.5883 0.1934
C29 C -0.7518(4) -0.1472(3) 0.33882(15)
C30 C -0.6914(4) -0.2721(3) 0.33277(15)
C31 C -0.4192(4) -0.6358(4) 0.47755(16)
C32 C -0.5179(4) -0.7400(4) 0.48647(16)
C33 C -0.7401(5) -0.0192(4) 0.51823(17)
H17 H -0.6682 0.0016 0.4990
C34 C -0.7718(5) 0.0594(4) 0.56029(19)
H18 H -0.7223 0.1321 0.5695
C35 C -0.8788(6) 0.0283(4) 0.58865(19)
H19 H -0.9012 0.0796 0.6178
C36 C -0.9522(5) -0.0787(4) 0.57377(17)
H20 H -1.0252 -0.1001 0.5924
C37 C -0.9162(4) -0.1545(3) 0.53056(15)
C38 C -1.0317(4) -0.3182(3) 0.46124(16)
C39 C -1.1552(5) -0.3936(4) 0.4499(2)
H21 H -1.2011 -0.4109 0.4794
C40 C -1.2070(5) -0.4410(5) 0.3957(2)
H22 H -1.2892 -0.4904 0.3876
C41 C -1.1351(5) -0.4147(4) 0.3521(2)
H23 H -1.1709 -0.4433 0.3143
C42 C -1.0118(4) -0.3465(4) 0.36617(17)
H24 H -0.9629 -0.3311 0.3372
O1 O -1.1422(3) -0.2194(2) 0.06126(10)
O2 O -1.2094(3) -0.3330(2) 0.14305(10)
O3 O -0.9255(3) -0.1648(3) 0.11297(13)
O4 O -0.9937(3) -0.2913(3) 0.19947(12)
O5 O -0.4952(3) -0.3763(2) 0.08672(11)
O6 O -0.3967(3) -0.1582(2) 0.10255(11)
O7 O -0.6418(3) -0.3427(3) 0.14862(12)
O8 O -0.5692(3) -0.1033(2) 0.14951(12)
O9 O -1.0673(3) -0.7570(2) 0.32730(10)
O10 O -0.9940(3) -0.6577(2) 0.24221(10)
O11 O -0.9074(3) -0.6462(3) 0.39135(11)
O12 O -0.8149(3) -0.5531(3) 0.29961(12)
O13 O -1.1327(3) 0.1630(2) 0.16156(10)
O14 O -0.9345(3) 0.1136(2) 0.24644(10)
O15 O -0.9952(3) 0.1158(3) 0.09759(12)
O16 O -0.7792(3) 0.0662(3) 0.19006(13)
O17 O -0.7754(3) -0.1150(2) 0.38857(10)
O18 O -0.6862(3) -0.3276(2) 0.37822(11)
O19 O -0.7702(3) -0.0877(2) 0.29793(11)
O20 O -0.6521(3) -0.3080(3) 0.28918(12)
O21 O -0.2916(3) -0.6327(2) 0.50893(11)
O22 O -0.4575(3) -0.8071(2) 0.52409(11)
O23 O -0.4589(3) -0.5634(3) 0.44370(15)
O24 O -0.6402(3) -0.7525(3) 0.45891(14)
N1 N -0.4040(3) -0.2639(3) -0.01504(12)
N2 N -0.2671(3) -0.4597(2) 0.03296(12)
N3 N -0.2412(3) -0.3874(3) -0.05373(13)
H25 H -0.1829 -0.3869 -0.0772
N4 N -1.2334(3) -0.9472(3) 0.25630(13)
N5 N -1.2963(3) -0.7080(3) 0.23794(12)
N6 N -1.4155(3) -0.8361(3) 0.28813(15)
H26 H -1.4707 -0.8361 0.3128
N7 N -0.8095(3) -0.1262(3) 0.50364(13)
N8 N -0.9566(3) -0.2998(3) 0.41997(13)
N9 N -0.9910(4) -0.2606(3) 0.51509(14)
H27 H -1.0154 -0.2955 0.5425
O25 O -0.8047(4) 0.0008(3) -0.00792(13)
O13_2 O -1.1327(3) -0.8370(2) 0.16156(10)
O14_2 O -0.9345(3) -0.8864(2) 0.24644(10)
Cr3A Cr -0.25450(6) -0.76381(5) 0.55740(2)
O22A O -0.5425(3) -0.1929(2) 0.47591(11)
O21A O -0.7084(3) -0.3673(2) 0.49107(11)
O1_2 O -0.1422(3) -0.2194(2) 0.06126(10)
O2_2 O -0.2094(3) -0.3330(2) 0.14305(10)
Cr1_2 Cr -1.32287(6) -0.30253(5) 0.06800(2)
Cr2_2 Cr -1.11362(6) 0.19865(5) 0.24453(2)
O26 O 0.3355(4) 0.1596(3) 0.33924(14)
O27 O 0.1441(4) 0.4587(3) 0.15770(14)
loop_
_geom_bond_atom_site_label_1
_geom_bond_atom_site_label_2
_geom_bond_site_symmetry_1
_geom_bond_site_symmetry_2
Ag1 O3 1_555 1_555
Ag2 O11 1_555 1_555
Ag3 O3 1_555 1_555
Cr1 O5 1_555 1_555
Cr2 O9 1_555 1_555
Cr3 O17 1_555 1_555
C1 C2 1_555 1_555
C2 O2 1_555 1_555
C3 C4 1_555 1_555
C4 O6 1_555 1_555
C5 H1 1_555 1_555
C6 C5 1_555 1_555
H2 C6 1_555 1_555
C7 C6 1_555 1_555
H3 C7 1_555 1_555
C8 C7 1_555 1_555
H4 C8 1_555 1_555
C9 C8 1_555 1_555
C10 C11 1_555 1_555
C11 H5 1_555 1_555
C12 C11 1_555 1_555
H6 C12 1_555 1_555
C13 C12 1_555 1_555
H7 C13 1_555 1_555
C14 C13 1_555 1_555
H8 C14 1_555 1_555
C15 C16 1_555 1_555
C16 O10 1_555 1_555
C17 C18 1_555 1_555
C18 O14 1_555 1_555
C19 H9 1_555 1_555
C20 C19 1_555 1_555
H10 C20 1_555 1_555
C21 C20 1_555 1_555
H11 C21 1_555 1_555
C22 C21 1_555 1_555
H12 C22 1_555 1_555
C23 C22 1_555 1_555
C24 C25 1_555 1_555
C25 H13 1_555 1_555
C26 C25 1_555 1_555
H14 C26 1_555 1_555
C27 C26 1_555 1_555
H15 C27 1_555 1_555
C28 C27 1_555 1_555
H16 C28 1_555 1_555
C29 C30 1_555 1_555
C30 O18 1_555 1_555
C31 C32 1_555 1_555
C32 O22 1_555 1_555
C33 H17 1_555 1_555
C34 C33 1_555 1_555
H18 C34 1_555 1_555
C35 C34 1_555 1_555
H19 C35 1_555 1_555
C36 C35 1_555 1_555
H20 C36 1_555 1_555
C37 C36 1_555 1_555
C38 C39 1_555 1_555
C39 H21 1_555 1_555
C40 C39 1_555 1_555
H22 C40 1_555 1_555
C41 C40 1_555 1_555
H23 C41 1_555 1_555
C42 C41 1_555 1_555
H24 C42 1_555 1_555
O1 C1 1_555 1_555
O2 Cr1_2 1_555 1_555
O3 C1 1_555 1_555
O4 Ag1 1_555 1_555
O5 C3 1_555 1_555
O6 Cr1 1_555 1_555
O7 Ag1 1_555 1_555
O8 Ag1 1_555 1_555
O9 C15 1_555 1_555
O10 Cr2 1_555 1_555
O11 C15 1_555 1_555
O12 Ag2 1_555 1_555
O13 C17 1_555 1_555
O14 Cr2_2 1_555 1_555
O15 Ag3 1_555 1_555
O16 Ag3 1_555 1_555
O17 C29 1_555 1_555
O18 Ag2 1_555 1_555
O19 Ag1 1_555 1_555
O20 Ag1 1_555 1_555
O21 C31 1_555 1_555
O22 Cr3A 1_555 1_555
O23 Ag2 1_555 1_555
O24 C32 1_555 1_555
N1 Cr1 1_555 1_555
N2 Cr1 1_555 1_555
N3 C9 1_555 1_555
H25 N3 1_555 1_555
N4 Cr2 1_555 1_555
N5 Cr2 1_555 1_555
N6 C23 1_555 1_555
H26 N6 1_555 1_555
N7 Cr3 1_555 1_555
N8 Cr3 1_555 1_555
N9 C37 1_555 1_555
H27 N9 1_555 1_555
O25 Ag3 1_555 1_555
O13_2 Cr2 1_555 1_555
O14_2 Cr2 1_555 1_555
Cr3A O21 1_555 1_555
O22A Cr3 1_555 1_555
O21A Cr3 1_555 1_555
O1_2 Cr1 1_555 1_555
O2_2 Cr1 1_555 1_555
Cr1_2 O1 1_555 1_555
Cr2_2 O13 1_555 1_555
Ag3 O8 1_555 1_555
Cr3 O18 1_555 1_555
C2 O4 1_555 1_555
C3 O7 1_555 1_555
C4 O8 1_555 1_555
C5 N1 1_555 1_555
C9 N1 1_555 1_555
C10 N3 1_555 1_555
C10 N2 1_555 1_555
C14 N2 1_555 1_555
C16 O12 1_555 1_555
C17 O15 1_555 1_555
C18 O16 1_555 1_555
C19 N4 1_555 1_555
C23 N4 1_555 1_555
C24 N6 1_555 1_555
C24 N5 1_555 1_555
C28 N5 1_555 1_555
C29 O19 1_555 1_555
C30 O20 1_555 1_555
C31 O23 1_555 1_555
C33 N7 1_555 1_555
C37 N7 1_555 1_555
C38 N9 1_555 1_555
C38 N8 1_555 1_555
C42 N8 1_555 1_555

#END
