
#######################################################################
#
#                 Cambridge Crystallographic Data Centre
#                                CCDC 
#
#######################################################################
#
# If this CIF has been generated from an entry in the Cambridge 
# Structural Database, then it will include bibliographic, chemical, 
# crystal, experimental, refinement or atomic coordinate data resulting 
# from the CCDC's data processing and validation procedures.
#
#######################################################################

data_EQOXEN
_symmetry_cell_setting           monoclinic
_symmetry_space_group_name_H-M   'C 2/m'
_symmetry_Int_Tables_number      12
_space_group_name_Hall           '-C 2y'
loop_
_symmetry_equiv_pos_site_id
_symmetry_equiv_pos_as_xyz
1 x,y,z
2 x,-y,z
3 1/2+x,1/2+y,z
4 1/2+x,1/2-y,z
5 -x,-y,-z
6 -x,y,-z
7 1/2-x,1/2-y,-z
8 1/2-x,1/2+y,-z
_cell_length_a                   20.702(3)
_cell_length_b                   31.164(4)
_cell_length_c                   15.5365(14)
_cell_angle_alpha                90
_cell_angle_beta                 125.538(6)
_cell_angle_gamma                90
_cell_volume                     8156.41
loop_
_atom_site_label
_atom_site_type_symbol
_atom_site_fract_x
_atom_site_fract_y
_atom_site_fract_z
Co1 Co 0.7500 0.2500 0.5000
Co2 Co 0.0000 0.0000 -0.5000
S1 S 0.6721(2) 0.34508(11) 0.6596(3)
S2 S -0.2184 0.0000 -0.4859
N1 N 0.6197(5) 0.2368(2) 0.4023(6)
N2 N 0.7205(4) 0.3086(2) 0.4028(5)
N3 N 0.7413(4) 0.2848(2) 0.6056(5)
N4 N 0.1992(5) 0.2056(3) 0.0352(6)
N5 N 0.0390(8) 0.0504(3) -0.3777(10)
N6 N -0.1165 0.0000 -0.5306
N7 N 0.6122 0.5000 0.0941
C1 C 0.5856(7) 0.2055(3) 0.3313(8)
H1 H 0.6187 0.1872 0.3262
C2 C 0.5054(7) 0.1979(4) 0.2649(8)
H2 H 0.4860 0.1749 0.2181
C3 C 0.4542(6) 0.2243(3) 0.2680(7)
C4 C 0.4877(6) 0.2568(3) 0.3411(8)
H3 H 0.4557 0.2755 0.3475
C5 C 0.5694(6) 0.2616(3) 0.4052(8)
H4 H 0.5903 0.2839 0.4541
C6 C 0.3676(7) 0.2190(3) 0.1906(8)
H5 H 0.3502 0.1955 0.1454
C7 C 0.3131(6) 0.2446(3) 0.1801(7)
H6 H 0.3303 0.2678 0.2261
C8 C 0.2275(6) 0.2396(4) 0.1021(7)
C9 C 0.1777(6) 0.2707(4) 0.0968(8)
H7 H 0.1983 0.2944 0.1414
C10 C 0.0984(8) 0.2660(5) 0.0254(10)
H8 H 0.0653 0.2863 0.0248
C11 C 0.0662(9) 0.2349(5) -0.0419(11)
H9 H 0.0115 0.2324 -0.0901
C12 C 0.1177(10) 0.2057(5) -0.0378(8)
C13 C 0.0761(11) 0.1687(6) -0.1326(18)
H10 H 0.0219 0.1648 -0.1833
C14 C 0.1244(7) 0.1493(5) -0.1245(9)
H11 H 0.1778 0.1534 -0.0707
C15 C 0.0918(13) 0.1121(6) -0.2185(14)
C16 C 0.0126(12) 0.1118(4) -0.3050(15)
H12 H -0.0228 0.1319 -0.3105
C17 C -0.0150(9) 0.0784(4) -0.3898(12)
H13 H -0.0676 0.0773 -0.4485
C18 C 0.1142(10) 0.0549(4) -0.2903(12)
H14 H 0.1522 0.0362 -0.2826
C19 C 0.1384(11) 0.0838(4) -0.2148(12)
H15 H 0.1913 0.0835 -0.1566
C20 C 0.7282(6) 0.3479(3) 0.4387(7)
H16 H 0.7497 0.3513 0.5101
C21 C 0.7067(6) 0.3840(3) 0.3775(7)
H17 H 0.7159 0.4108 0.4089
C22 C 0.6717(6) 0.3814(2) 0.2705(7)
C23 C 0.6605(7) 0.3401(3) 0.2316(7)
H18 H 0.6357 0.3356 0.1597
C24 C 0.6863(6) 0.3053(3) 0.3002(7)
H19 H 0.6791 0.2779 0.2719
C25 C 0.6489(6) 0.4207(3) 0.2047(7)
H20 H 0.6560 0.4466 0.2391
C26 C 0.6201(6) 0.4234(3) 0.1047(7)
H21 H 0.6120 0.3980 0.0684
C27 C 0.6002(6) 0.4629(3) 0.0468(7)
C28 C 0.5637(7) 0.4608(3) -0.0618(7)
H22 H 0.5574 0.4363 -0.1002
C29 C 0.5399 0.5000 -0.1002
H23 H 0.4963 0.5000 -0.1706
C30 C 0.7138(6) 0.3092(3) 0.6294(7)
C31 C -0.1616(10) 0.0000 -0.5164(15)
N5A N 0.0390(8) -0.0504(3) -0.3777(10)
C17A C -0.0150(9) -0.0784(4) -0.3898(12)
C16A C 0.0126(12) -0.1118(4) -0.3050(15)
C15A C 0.0918(13) -0.1121(6) -0.2185(14)
C14A C 0.1244(7) -0.1493(5) -0.1245(9)
C13A C 0.0761(11) -0.1687(6) -0.1326(18)
C12A C 0.1177(10) -0.2057(5) -0.0378(8)
N4A N 0.1992(5) -0.2056(3) 0.0352(6)
C8A C 0.2275(6) -0.2396(4) 0.1021(7)
C7A C 0.3131(6) -0.2446(3) 0.1801(7)
C6A C 0.3676(7) -0.2190(3) 0.1906(8)
C3A C 0.4542(6) -0.2243(3) 0.2680(7)
C2A C 0.5054(7) -0.1979(4) 0.2649(8)
C1A C 0.5856(7) -0.2055(3) 0.3313(8)
N1A N 0.6197(5) -0.2368(2) 0.4023(6)
Co1A Co 0.7500 -0.2500 0.5000
N1G N 0.8803(5) -0.2632(2) 0.5977(6)
N2A N 0.7205(4) -0.3086(2) 0.4028(5)
N2G N 0.7795(4) -0.1914(2) 0.5972(5)
N3A N 0.7413(4) -0.2848(2) 0.6056(5)
N3G N 0.7587(4) -0.2152(2) 0.3944(5)
C5A C 0.5694(6) -0.2616(3) 0.4052(8)
C4A C 0.4877(6) -0.2568(3) 0.3411(8)
H3A H 0.4557 -0.2755 0.3475
H4A H 0.5903 -0.2839 0.4541
H1A H 0.6187 -0.1872 0.3262
H2A H 0.4860 -0.1749 0.2181
H5A H 0.3502 -0.1955 0.1454
H6A H 0.3303 -0.2678 0.2261
C9A C 0.1777(6) -0.2707(4) 0.0968(8)
H7A H 0.1983 -0.2944 0.1414
C10A C 0.0984(8) -0.2660(5) 0.0254(10)
H8A H 0.0653 -0.2863 0.0248
C11A C 0.0662(9) -0.2349(5) -0.0419(11)
H9A H 0.0115 -0.2324 -0.0901
H10A H 0.0219 -0.1648 -0.1833
H11A H 0.1778 -0.1534 -0.0707
C19A C 0.1384(11) -0.0838(4) -0.2148(12)
C18A C 0.1142(10) -0.0549(4) -0.2903(12)
H14A H 0.1522 -0.0362 -0.2826
H15A H 0.1913 -0.0835 -0.1566
H12A H -0.0228 -0.1319 -0.3105
H13A H -0.0676 -0.0773 -0.4485
N5D N -0.0390(8) -0.0504(3) -0.6223(10)
N5E N -0.0390(8) 0.0504(3) -0.6223(10)
N6D N 0.1165 0.0000 -0.4694
N1F N 0.8803(5) 0.2632(2) 0.5977(6)
N2F N 0.7795(4) 0.1914(2) 0.5972(5)
N3F N 0.7587(4) 0.2152(2) 0.3944(5)
C27A C 0.6002(6) 0.5371(3) 0.0468(7)
C28A C 0.5637(7) 0.5392(3) -0.0618(7)
H22A H 0.5574 0.5637 -0.1002
C26A C 0.6201(6) 0.5766(3) 0.1047(7)
C20G C 0.7718(6) -0.1521(3) 0.5613(7)
C24G C 0.8137(6) -0.1947(3) 0.6998(7)
C30A C 0.7138(6) -0.3092(3) 0.6294(7)
C30G C 0.7862(6) -0.1908(3) 0.3706(7)
C17D C 0.0150(9) -0.0784(4) -0.6102(12)
C18D C -0.1142(10) -0.0549(4) -0.7097(12)
C31D C 0.1616(10) 0.0000 -0.4836(15)
C1F C 0.9144(7) 0.2945(3) 0.6687(8)
C5F C 0.9306(6) 0.2384(3) 0.5948(8)
C20F C 0.7718(6) 0.1521(3) 0.5613(7)
C24F C 0.8137(6) 0.1947(3) 0.6998(7)
C30F C 0.7862(6) 0.1908(3) 0.3706(7)
C25A C 0.6489(6) 0.5793(3) 0.2047(7)
H21A H 0.6120 0.6020 0.0684
H16G H 0.7503 -0.1487 0.4899
C21G C 0.7933(6) -0.1160(3) 0.6225(7)
C23G C 0.8395(7) -0.1599(3) 0.7684(7)
H19G H 0.8209 -0.2221 0.7281
S1A S 0.6721(2) -0.34508(11) 0.6596(3)
S1G S 0.8279(2) -0.15492(11) 0.3404(3)
C16D C -0.0126(12) -0.1118(4) -0.6950(15)
H13D H 0.0676 -0.0773 -0.5515
H14D H -0.1522 -0.0362 -0.7174
C19D C -0.1384(11) -0.0838(4) -0.7852(12)
S2D S 0.2184 0.0000 -0.5141
H1F H 0.8813 0.3128 0.6738
C2F C 0.9946(7) 0.3021(4) 0.7351(8)
C4F C 1.0123(6) 0.2432(3) 0.6589(8)
H4F H 0.9097 0.2161 0.5459
H16F H 0.7503 0.1487 0.4899
C21F C 0.7933(6) 0.1160(3) 0.6225(7)
C23F C 0.8395(7) 0.1599(3) 0.7684(7)
H19F H 0.8209 0.2221 0.7281
S1F S 0.8279(2) 0.15492(11) 0.3404(3)
C22A C 0.6717(6) 0.6186(2) 0.2705(7)
H20A H 0.6560 0.5534 0.2391
H17G H 0.7841 -0.0892 0.5911
C22G C 0.8283(6) -0.1186(2) 0.7295(7)
H18G H 0.8643 -0.1644 0.8403
C15D C -0.0918(13) -0.1121(6) -0.7815(14)
H12D H 0.0228 -0.1319 -0.6895
H15D H -0.1913 -0.0835 -0.8434
H2F H 1.0140 0.3251 0.7819
C3F C 1.0458(6) 0.2757(3) 0.7320(7)
H3F H 1.0443 0.2245 0.6525
H17F H 0.7841 0.0892 0.5911
C22F C 0.8283(6) 0.1186(2) 0.7295(7)
H18F H 0.8643 0.1644 0.8403
C21A C 0.7067(6) 0.6160(3) 0.3775(7)
C23A C 0.6605(7) 0.6599(3) 0.2316(7)
C25G C 0.8511(6) -0.0793(3) 0.7953(7)
C14D C -0.1244(7) -0.1493(5) -0.8755(9)
C6F C 1.1324(7) 0.2810(3) 0.8094(8)
C25F C 0.8511(6) 0.0793(3) 0.7953(7)
C20A C 0.7282(6) 0.6521(3) 0.4387(7)
H17A H 0.7159 0.5892 0.4089
H18A H 0.6357 0.6644 0.1597
C24A C 0.6863(6) 0.6947(3) 0.3002(7)
H20G H 0.8440 -0.0534 0.7609
C26G C 0.8799(6) -0.0766(3) 0.8953(7)
C13D C -0.0761(11) -0.1687(6) -0.8674(18)
H11D H -0.1778 -0.1534 -0.9293
H5F H 1.1498 0.3045 0.8546
C7F C 1.1869(6) 0.2554(3) 0.8199(7)
H20F H 0.8440 0.0534 0.7609
C26F C 0.8799(6) 0.0766(3) 0.8953(7)
N2A_2 N 0.7205(4) 0.6914(2) 0.4028(5)
H16A H 0.7497 0.6487 0.5101
H19A H 0.6791 0.7221 0.2719
H21G H 0.8880 -0.1020 0.9316
C27G C 0.8998(6) -0.0371(3) 0.9532(7)
C12D C -0.1177(10) -0.2057(5) -0.9622(8)
H10D H -0.0219 -0.1648 -0.8167
H6F H 1.1697 0.2322 0.7739
C8F C 1.2725(6) 0.2604(4) 0.8979(7)
H21F H 0.8880 0.1020 0.9316
C27F C 0.8998(6) 0.0371(3) 0.9532(7)
Co1A_2 Co 0.7500 0.7500 0.5000
N7F N 0.8878 0.0000 0.9059
C28G C 0.9363(7) -0.0392(3) 1.0618(7)
N4D N -0.1992(5) -0.2056(3) -1.0352(6)
C11D C -0.0662(9) -0.2349(5) -0.9581(11)
N4F N 1.3008(5) 0.2944(3) 0.9648(6)
C9F C 1.3223(6) 0.2293(4) 0.9032(8)
C28F C 0.9363(7) 0.0392(3) 1.0618(7)
H22G H 0.9426 -0.0637 1.1002
C29F C 0.9601 0.0000 1.1002
C8D C -0.2275(6) -0.2396(4) -1.1021(7)
C10D C -0.0984(8) -0.2660(5) -1.0254(10)
H9D H -0.0115 -0.2324 -0.9099
C12F C 1.3823(10) 0.2943(5) 1.0378(8)
H7F H 1.3017 0.2056 0.8586
C10F C 1.4016(8) 0.2340(5) 0.9746(10)
H22F H 0.9426 0.0637 1.1002
H23F H 1.0037 0.0000 1.1706
C7D C -0.3131(6) -0.2446(3) -1.1801(7)
C9D C -0.1777(6) -0.2707(4) -1.0968(8)
H8D H -0.0653 -0.2863 -1.0248
C11F C 1.4338(9) 0.2651(5) 1.0419(11)
C13F C 1.4239(11) 0.3313(6) 1.1326(18)
H8F H 1.4347 0.2137 0.9752
C6D C -0.3676(7) -0.2190(3) -1.1906(8)
H6D H -0.3303 -0.2678 -1.2261
H7D H -0.1983 -0.2944 -1.1414
H9F H 1.4885 0.2676 1.0901
H10F H 1.4781 0.3352 1.1833
C14F C 1.3756(7) 0.3507(5) 1.1245(9)
C3D C -0.4542(6) -0.2243(3) -1.2680(7)
H5D H -0.3502 -0.1955 -1.1454
H11F H 1.3222 0.3466 1.0707
C15F C 1.4082(13) 0.3879(6) 1.2185(14)
C2D C -0.5054(7) -0.1979(4) -1.2649(8)
C4D C -0.4877(6) -0.2568(3) -1.3411(8)
C16F C 1.4874(12) 0.3882(4) 1.3050(15)
C19F C 1.3616(11) 0.4162(4) 1.2148(12)
C1D C -0.5856(7) -0.2055(3) -1.3313(8)
H2D H -0.4860 -0.1749 -1.2181
H3D H -0.4557 -0.2755 -1.3475
C5D C -0.5694(6) -0.2616(3) -1.4052(8)
H12F H 1.5228 0.3681 1.3105
C17F C 1.5150(9) 0.4216(4) 1.3898(12)
C18F C 1.3858(10) 0.4451(4) 1.2903(12)
H15F H 1.3087 0.4165 1.1566
N1D N -0.6197(5) -0.2368(2) -1.4023(6)
H1D H -0.6187 -0.1872 -1.3262
H4D H -0.5903 -0.2839 -1.4541
N5F N 1.4610(8) 0.4496(3) 1.3777(10)
H13F H 1.5676 0.4227 1.4485
H14F H 1.3478 0.4638 1.2826
Co1B Co -0.7500 -0.2500 -1.5000
Co2B Co 1.5000 0.5000 1.5000
loop_
_geom_bond_atom_site_label_1
_geom_bond_atom_site_label_2
_geom_bond_site_symmetry_1
_geom_bond_site_symmetry_2
Co1 N1 1_555 1_555
Co2 N5 1_555 1_555
S1 C30 1_555 1_555
S2 C31 1_555 1_555
N1 C1 1_555 1_555
N2 Co1 1_555 1_555
N3 Co1 1_555 1_555
N4 C8 1_555 1_555
N5 C17 1_555 1_555
N6 Co2 1_555 1_555
N7 C27 1_555 1_555
C1 H1 1_555 1_555
C2 C1 1_555 1_555
H2 C2 1_555 1_555
C3 C2 1_555 1_555
C4 C3 1_555 1_555
H3 C4 1_555 1_555
C5 N1 1_555 1_555
H4 C5 1_555 1_555
C6 C3 1_555 1_555
H5 C6 1_555 1_555
C7 C6 1_555 1_555
H6 C7 1_555 1_555
C8 C7 1_555 1_555
C9 C8 1_555 1_555
H7 C9 1_555 1_555
C10 C9 1_555 1_555
H8 C10 1_555 1_555
C11 C10 1_555 1_555
H9 C11 1_555 1_555
C12 N4 1_555 1_555
C13 C12 1_555 1_555
H10 C13 1_555 1_555
C14 C13 1_555 1_555
H11 C14 1_555 1_555
C15 C14 1_555 1_555
C16 C15 1_555 1_555
H12 C16 1_555 1_555
C17 C16 1_555 1_555
H13 C17 1_555 1_555
C18 N5 1_555 1_555
H14 C18 1_555 1_555
C19 C15 1_555 1_555
H15 C19 1_555 1_555
C20 N2 1_555 1_555
H16 C20 1_555 1_555
C21 C20 1_555 1_555
H17 C21 1_555 1_555
C22 C21 1_555 1_555
C23 C22 1_555 1_555
H18 C23 1_555 1_555
C24 N2 1_555 1_555
H19 C24 1_555 1_555
C25 C22 1_555 1_555
H20 C25 1_555 1_555
C26 C25 1_555 1_555
H21 C26 1_555 1_555
C27 C26 1_555 1_555
C28 C27 1_555 1_555
H22 C28 1_555 1_555
C29 C28 1_555 1_555
H23 C29 1_555 1_555
C30 N3 1_555 1_555
C31 N6 1_555 1_555
N5A Co2 1_555 1_555
C17A N5A 1_555 1_555
C16A C17A 1_555 1_555
C15A C16A 1_555 1_555
C14A C15A 1_555 1_555
C13A C14A 1_555 1_555
C12A C13A 1_555 1_555
N4A C12A 1_555 1_555
C8A N4A 1_555 1_555
C7A C8A 1_555 1_555
C6A C7A 1_555 1_555
C3A C6A 1_555 1_555
C2A C3A 1_555 1_555
C1A C2A 1_555 1_555
N1A C1A 1_555 1_555
Co1A N1A 1_555 1_555
N1G Co1A 1_555 1_555
N2A Co1A 1_555 1_555
N2G Co1A 1_555 1_555
N3A Co1A 1_555 1_555
N3G Co1A 1_555 1_555
C5A N1A 1_555 1_555
C4A C3A 1_555 1_555
H3A C4A 1_555 1_555
H4A C5A 1_555 1_555
H1A C1A 1_555 1_555
H2A C2A 1_555 1_555
H5A C6A 1_555 1_555
H6A C7A 1_555 1_555
C9A C8A 1_555 1_555
H7A C9A 1_555 1_555
C10A C9A 1_555 1_555
H8A C10A 1_555 1_555
C11A C12A 1_555 1_555
H9A C11A 1_555 1_555
H10A C13A 1_555 1_555
H11A C14A 1_555 1_555
C19A C15A 1_555 1_555
C18A N5A 1_555 1_555
H14A C18A 1_555 1_555
H15A C19A 1_555 1_555
H12A C16A 1_555 1_555
H13A C17A 1_555 1_555
N5D Co2 1_555 1_555
N5E Co2 1_555 1_555
N6D Co2 1_555 1_555
N1F Co1 1_555 1_555
N2F Co1 1_555 1_555
N3F Co1 1_555 1_555
C27A N7 1_555 1_555
C28A C29 1_555 1_555
H22A C28A 1_555 1_555
C26A C27A 1_555 1_555
C20G N2G 1_555 1_555
C24G N2G 1_555 1_555
C30A N3A 1_555 1_555
C30G N3G 1_555 1_555
C17D N5D 1_555 1_555
C18D N5D 1_555 1_555
C31D N6D 1_555 1_555
C1F N1F 1_555 1_555
C5F N1F 1_555 1_555
C20F N2F 1_555 1_555
C24F N2F 1_555 1_555
C30F N3F 1_555 1_555
C25A C26A 1_555 1_555
H21A C26A 1_555 1_555
H16G C20G 1_555 1_555
C21G C20G 1_555 1_555
C23G C24G 1_555 1_555
H19G C24G 1_555 1_555
S1A C30A 1_555 1_555
S1G C30G 1_555 1_555
C16D C17D 1_555 1_555
H13D C17D 1_555 1_555
H14D C18D 1_555 1_555
C19D C18D 1_555 1_555
S2D C31D 1_555 1_555
H1F C1F 1_555 1_555
C2F C1F 1_555 1_555
C4F C5F 1_555 1_555
H4F C5F 1_555 1_555
H16F C20F 1_555 1_555
C21F C20F 1_555 1_555
C23F C24F 1_555 1_555
H19F C24F 1_555 1_555
S1F C30F 1_555 1_555
C22A C25A 1_555 1_555
H20A C25A 1_555 1_555
H17G C21G 1_555 1_555
C22G C21G 1_555 1_555
H18G C23G 1_555 1_555
C15D C16D 1_555 1_555
H12D C16D 1_555 1_555
H15D C19D 1_555 1_555
H2F C2F 1_555 1_555
C3F C2F 1_555 1_555
H3F C4F 1_555 1_555
H17F C21F 1_555 1_555
C22F C21F 1_555 1_555
H18F C23F 1_555 1_555
C21A C22A 1_555 1_555
C23A C22A 1_555 1_555
C25G C22G 1_555 1_555
C14D C15D 1_555 1_555
C6F C3F 1_555 1_555
C25F C22F 1_555 1_555
C20A C21A 1_555 1_555
H17A C21A 1_555 1_555
H18A C23A 1_555 1_555
C24A C23A 1_555 1_555
H20G C25G 1_555 1_555
C26G C25G 1_555 1_555
C13D C14D 1_555 1_555
H11D C14D 1_555 1_555
H5F C6F 1_555 1_555
C7F C6F 1_555 1_555
H20F C25F 1_555 1_555
C26F C25F 1_555 1_555
N2A_2 C20A 1_555 1_555
H16A C20A 1_555 1_555
H19A C24A 1_555 1_555
H21G C26G 1_555 1_555
C27G C26G 1_555 1_555
C12D C13D 1_555 1_555
H10D C13D 1_555 1_555
H6F C7F 1_555 1_555
C8F C7F 1_555 1_555
H21F C26F 1_555 1_555
C27F C26F 1_555 1_555
Co1A_2 N2A_2 1_555 1_555
N7F C27G 1_555 1_555
C28G C27G 1_555 1_555
N4D C12D 1_555 1_555
C11D C12D 1_555 1_555
N4F C8F 1_555 1_555
C9F C8F 1_555 1_555
C28F C27F 1_555 1_555
H22G C28G 1_555 1_555
C29F C28G 1_555 1_555
C8D N4D 1_555 1_555
C10D C11D 1_555 1_555
H9D C11D 1_555 1_555
C12F N4F 1_555 1_555
H7F C9F 1_555 1_555
C10F C9F 1_555 1_555
H22F C28F 1_555 1_555
H23F C29F 1_555 1_555
C7D C8D 1_555 1_555
C9D C8D 1_555 1_555
H8D C10D 1_555 1_555
C11F C12F 1_555 1_555
C13F C12F 1_555 1_555
H8F C10F 1_555 1_555
C6D C7D 1_555 1_555
H6D C7D 1_555 1_555
H7D C9D 1_555 1_555
H9F C11F 1_555 1_555
H10F C13F 1_555 1_555
C14F C13F 1_555 1_555
C3D C6D 1_555 1_555
H5D C6D 1_555 1_555
H11F C14F 1_555 1_555
C15F C14F 1_555 1_555
C2D C3D 1_555 1_555
C4D C3D 1_555 1_555
C16F C15F 1_555 1_555
C19F C15F 1_555 1_555
C1D C2D 1_555 1_555
H2D C2D 1_555 1_555
H3D C4D 1_555 1_555
C5D C4D 1_555 1_555
H12F C16F 1_555 1_555
C17F C16F 1_555 1_555
C18F C19F 1_555 1_555
H15F C19F 1_555 1_555
N1D C1D 1_555 1_555
H1D C1D 1_555 1_555
H4D C5D 1_555 1_555
N5F C17F 1_555 1_555
H13F C17F 1_555 1_555
H14F C18F 1_555 1_555
Co1B N1D 1_555 1_555
Co2B N5F 1_555 1_555
C4 C5 1_555 1_555
C11 C12 1_555 1_555
C18 C19 1_555 1_555
C23 C24 1_555 1_555
C5A C4A 1_555 1_555
C10A C11A 1_555 1_555
C19A C18A 1_555 1_555
C27A C28A 1_555 1_555
C23G C22G 1_555 1_555
C19D C15D 1_555 1_555
C4F C3F 1_555 1_555
C23F C22F 1_555 1_555
C24A N2A_2 1_555 1_555
C27F N7F 1_555 1_555
C28F C29F 1_555 1_555
C10D C9D 1_555 1_555
C10F C11F 1_555 1_555
C5D N1D 1_555 1_555
C18F N5F 1_555 1_555

#END
