
#######################################################################
#
#                 Cambridge Crystallographic Data Centre
#                                CCDC 
#
#######################################################################
#
# If this CIF has been generated from an entry in the Cambridge 
# Structural Database, then it will include bibliographic, chemical, 
# crystal, experimental, refinement or atomic coordinate data resulting 
# from the CCDC's data processing and validation procedures.
#
#######################################################################

data_EQOXOX
_symmetry_cell_setting           monoclinic
_symmetry_space_group_name_H-M   'P 21/c'
_symmetry_Int_Tables_number      14
_space_group_name_Hall           '-P 2ybc'
loop_
_symmetry_equiv_pos_site_id
_symmetry_equiv_pos_as_xyz
1 x,y,z
2 -x,1/2+y,1/2-z
3 -x,-y,-z
4 x,1/2-y,1/2+z
_cell_length_a                   9.54000(10)
_cell_length_b                   23.5649(5)
_cell_length_c                   16.6758(3)
_cell_angle_alpha                90
_cell_angle_beta                 104.4352(12)
_cell_angle_gamma                90
_cell_volume                     3630.52
loop_
_atom_site_label
_atom_site_type_symbol
_atom_site_fract_x
_atom_site_fract_y
_atom_site_fract_z
Co1 Co -0.18406(7) 0.27188(3) 0.10512(5)
S1 S -0.64813(18) 0.26025(12) 0.14880(13)
S2 S -0.2638(3) 0.43783(9) -0.05620(17)
N1 N -0.1011(4) 0.20453(18) 0.0556(3)
N2 N 1.0296(4) -0.20736(18) 0.2908(3)
N3 N -0.3725(5) 0.2567(2) 0.1252(3)
N4 N -0.2059(5) 0.3404(2) 0.0368(3)
C1 C 0.0154(5) 0.1788(2) 0.1017(3)
H1 H 0.0553 0.1927 0.1546
C2 C 0.0810(5) 0.1323(2) 0.0750(4)
H2 H 0.1630 0.1164 0.1101
C3 C 0.0268(5) 0.1093(2) -0.0022(3)
C4 C -0.0984(5) 0.1367(2) -0.0545(3)
C5 C -0.1586(5) 0.1844(2) -0.0225(3)
C6 C -0.2814(5) 0.2113(2) -0.0731(4)
H3 H -0.3233 0.2418 -0.0524
C7 C -0.3389(6) 0.1930(3) -0.1518(4)
H4 H -0.4181 0.2118 -0.1850
C8 C -0.2797(6) 0.1459(3) -0.1834(4)
H5 H -0.3207 0.1334 -0.2369
C9 C -0.1628(6) 0.1188(2) -0.1358(3)
H6 H -0.1245 0.0878 -0.1575
C10 C 0.0945(5) 0.0600(2) -0.0304(3)
H7 H 0.0586 0.0486 -0.0851
C11 C 0.2031(6) 0.0304(2) 0.0159(4)
H8 H 0.2349 0.0419 0.0708
C12 C 0.2789(5) -0.0179(2) -0.0081(3)
C13 C 0.2443(7) -0.0390(3) -0.0893(4)
H9 H 0.1697 -0.0226 -0.1294
C14 C 0.3211(7) -0.0842(3) -0.1099(4)
H10 H 0.2957 -0.0987 -0.1634
C15 C 0.4357(7) -0.1083(2) -0.0515(4)
H11 H 0.4884 -0.1378 -0.0667
C16 C 0.4722(5) -0.0883(2) 0.0300(4)
C17 C 0.3909(5) -0.0423(2) 0.0485(3)
H12 H 0.4150 -0.0278 0.1021
C18 C 0.5908(5) -0.1108(2) 0.0939(3)
H13 H 0.6072 -0.0926 0.1449
C19 C 0.9515(6) -0.1613(2) 0.2934(4)
H14 H 0.9743 -0.1399 0.3418
C20 C 0.8395(6) -0.1427(2) 0.2301(4)
H15 H 0.7904 -0.1096 0.2369
C21 C 0.7987(5) -0.1722(2) 0.1566(3)
C22 C 0.8814(5) -0.2221(2) 0.1496(3)
C23 C 0.9967(5) -0.2377(2) 0.2176(3)
C24 C 1.0808(6) -0.2862(2) 0.2114(4)
H16 H 1.1566 -0.2966 0.2558
C25 C 1.0517(7) -0.3175(3) 0.1414(4)
H17 H 1.1086 -0.3490 0.1377
C26 C 0.9367(6) -0.3030(3) 0.0742(4)
H18 H 0.9164 -0.3254 0.0268
C27 C 0.8555(6) -0.2569(2) 0.0779(4)
H19 H 0.7805 -0.2476 0.0324
C28 C 0.6794(5) -0.1534(2) 0.0904(4)
H20 H 0.6633 -0.1731 0.0406
C29 C -0.4874(7) 0.2580(3) 0.1338(3)
C30 C -0.2309(7) 0.3807(3) 0.0001(4)
N2A N -0.0296(4) 0.29264(18) 0.2092(3)
Co1A Co 1.18406(7) -0.22812(3) 0.39488(5)
N5 N 0.3447(14) 0.4239(4) 0.1178(9)
O1 O 0.2159(10) 0.4172(3) 0.0854(6)
O2 O 0.3843(15) 0.4409(5) 0.1903(7)
C31 C 0.4495(8) 0.4141(6) 0.0707(5)
H21 H 0.4036 0.4174 0.0128
H22 H 0.4893 0.3767 0.0822
H23 H 0.5256 0.4417 0.0858
N6 N 0.0958(7) 0.4950(3) 0.7971(5)
O3 O 0.0593(7) 0.4748(3) 0.8739(5)
O4 O 0.0175(8) 0.5110(3) 0.7473(5)
C32 C 0.1795(8) 0.5372(3) 0.8171(6)
N7 N 0.4833(7) 0.3579(3) 0.7790(5)
O5 O 0.4104(7) 0.3356(3) 0.8302(5)
O6 O 0.4080(7) 0.3937(3) 0.7376(5)
C33 C 0.5677(7) 0.3380(3) 0.7800(5)
loop_
_geom_bond_atom_site_label_1
_geom_bond_atom_site_label_2
_geom_bond_site_symmetry_1
_geom_bond_site_symmetry_2
Co1 N1 1_555 1_555
S1 C29 1_555 1_555
S2 C30 1_555 1_555
N1 C1 1_555 1_555
N2 C19 1_555 1_555
N3 Co1 1_555 1_555
N4 Co1 1_555 1_555
C1 H1 1_555 1_555
C2 C1 1_555 1_555
H2 C2 1_555 1_555
C3 C2 1_555 1_555
C4 C3 1_555 1_555
C5 N1 1_555 1_555
C6 C5 1_555 1_555
H3 C6 1_555 1_555
C7 C6 1_555 1_555
H4 C7 1_555 1_555
C8 C7 1_555 1_555
H5 C8 1_555 1_555
C9 C4 1_555 1_555
H6 C9 1_555 1_555
C10 C3 1_555 1_555
H7 C10 1_555 1_555
C11 C10 1_555 1_555
H8 C11 1_555 1_555
C12 C11 1_555 1_555
C13 C12 1_555 1_555
H9 C13 1_555 1_555
C14 C13 1_555 1_555
H10 C14 1_555 1_555
C15 C14 1_555 1_555
H11 C15 1_555 1_555
C16 C15 1_555 1_555
C17 C12 1_555 1_555
H12 C17 1_555 1_555
C18 C16 1_555 1_555
H13 C18 1_555 1_555
C19 H14 1_555 1_555
C20 C19 1_555 1_555
H15 C20 1_555 1_555
C21 C20 1_555 1_555
C22 C21 1_555 1_555
C23 N2 1_555 1_555
C24 C23 1_555 1_555
H16 C24 1_555 1_555
C25 C24 1_555 1_555
H17 C25 1_555 1_555
C26 C25 1_555 1_555
H18 C26 1_555 1_555
C27 C22 1_555 1_555
H19 C27 1_555 1_555
C28 C18 1_555 1_555
H20 C28 1_555 1_555
C29 N3 1_555 1_555
C30 N4 1_555 1_555
N5 O1 1_555 1_555
O2 N5 1_555 1_555
C31 N5 1_555 1_555
H21 C31 1_555 1_555
H22 C31 1_555 1_555
H23 C31 1_555 1_555
N6 O3 1_555 1_555
O4 N6 1_555 1_555
C32 N6 1_555 1_555
N7 O5 1_555 1_555
O6 N7 1_555 1_555
C33 N7 1_555 1_555
N2A Co1 1_555 1_555
Co1A N2 1_555 1_555
C4 C5 1_555 1_555
C8 C9 1_555 1_555
C16 C17 1_555 1_555
C21 C28 1_555 1_555
C22 C23 1_555 1_555
C26 C27 1_555 1_555

#END
