
#######################################################################
#
#                 Cambridge Crystallographic Data Centre
#                                CCDC 
#
#######################################################################
#
# If this CIF has been generated from an entry in the Cambridge 
# Structural Database, then it will include bibliographic, chemical, 
# crystal, experimental, refinement or atomic coordinate data resulting 
# from the CCDC's data processing and validation procedures.
#
#######################################################################

data_EQOYAK
_symmetry_cell_setting           monoclinic
_symmetry_space_group_name_H-M   'P 21/n'
_symmetry_Int_Tables_number      14
_space_group_name_Hall           '-P 2yn'
loop_
_symmetry_equiv_pos_site_id
_symmetry_equiv_pos_as_xyz
1 x,y,z
2 1/2+x,1/2-y,1/2+z
3 -x,-y,-z
4 1/2-x,1/2+y,1/2-z
_cell_length_a                   11.3690(10)
_cell_length_b                   20.6240(10)
_cell_length_c                   14.2440(10)
_cell_angle_alpha                90
_cell_angle_beta                 90.928(3)
_cell_angle_gamma                90
_cell_volume                     3339.41
loop_
_atom_site_label
_atom_site_type_symbol
_atom_site_fract_x
_atom_site_fract_y
_atom_site_fract_z
Mn1 Mn -0.37743(7) 0.21960(5) 0.16889(6)
N1 N -0.2457(4) 0.2791(3) 0.0931(3)
N2 N 0.7302(4) 0.6718(3) 0.2518(4)
N3 N 0.2544(5) 0.5085(3) -0.0032(4)
O1 O -0.3867(4) 0.2858(2) 0.2884(3)
O2 O -0.5413(4) 0.2720(2) 0.1336(3)
O3 O -0.5074(4) 0.1439(2) 0.2102(3)
O4 O -0.3891(4) 0.1638(3) 0.0416(3)
C1 C -0.1672(5) 0.3131(3) 0.1421(4)
H1 H -0.1707 0.3123 0.2073
C2 C -0.0795(5) 0.3500(3) 0.1003(5)
H2 H -0.0262 0.3735 0.1371
C3 C -0.0730(5) 0.3512(3) 0.0038(4)
C4 C -0.1518(6) 0.3149(4) -0.0459(4)
H3 H -0.1479 0.3130 -0.1110
C5 C -0.2364(6) 0.2811(3) 0.0000(4)
H4 H -0.2912 0.2581 -0.0359
C6 C 0.0154(5) 0.3906(3) -0.0458(4)
H5 H 0.0218 0.3839 -0.1101
C7 C 0.0845(5) 0.4335(3) -0.0081(4)
H6 H 0.0804 0.4390 0.0565
C8 C 0.1707(5) 0.4751(3) -0.0592(4)
C9 C 0.1732(5) 0.4834(3) -0.1555(5)
H7 H 0.1175 0.4622 -0.1930
C10 C 0.2546(5) 0.5215(3) -0.1970(5)
H8 H 0.2543 0.5264 -0.2619
C11 C 0.3384(5) 0.5532(3) -0.1417(4)
H9 H 0.3945 0.5789 -0.1703
C12 C 0.3402(5) 0.5473(3) -0.0463(4)
C13 C 0.4288(5) 0.5818(3) 0.0098(5)
H10 H 0.4790 0.6086 -0.0235
C14 C 0.6516(6) 0.6348(4) 0.2947(5)
H11 H 0.6598 0.6284 0.3592
C15 C 0.5588(6) 0.6054(4) 0.2484(5)
H12 H 0.5072 0.5796 0.2820
C16 C 0.5407(5) 0.6134(3) 0.1531(4)
C17 C 0.6216(6) 0.6539(4) 0.1106(5)
H13 H 0.6141 0.6624 0.0466
C18 C 0.7108(5) 0.6812(4) 0.1599(5)
H14 H 0.7620 0.7083 0.1281
C19 C 0.4471(5) 0.5798(3) 0.1012(5)
H15 H 0.3956 0.5548 0.1360
C20 C -0.6089(6) 0.2987(4) 0.1902(5)
C21 C -0.4732(7) 0.3152(4) 0.3192(5)
C22 C -0.5827(6) 0.3217(4) 0.2790(5)
H16 H -0.6413 0.3422 0.3127
C23 C -0.4493(10) 0.3478(7) 0.4124(7)
C24 C -0.7352(8) 0.3021(8) 0.1533(8)
C25 C -0.5734(6) 0.1125(4) 0.1556(5)
C26 C -0.5640(6) 0.1038(4) 0.0620(5)
H17 H -0.6202 0.0788 0.0307
C27 C -0.4740(8) 0.1308(4) 0.0111(5)
C28 C -0.6756(9) 0.0804(7) 0.2024(7)
C29 C -0.4667(15) 0.1129(10) -0.0947(8)
F1 F -0.5382(7) 0.3662(5) 0.4571(5)
F2 F -0.4059(10) 0.3100(5) 0.4737(5)
F3 F -0.3812(11) 0.3927(5) 0.4074(5)
F4 F -0.7579(4) 0.2864(5) 0.0749(4)
F5 F -0.8094(5) 0.2846(6) 0.2094(5)
F6 F -0.7622(10) 0.3667(5) 0.1544(10)
F7 F -0.7488(5) 0.0506(4) 0.1490(4)
F8 F -0.7436(6) 0.1265(4) 0.2426(6)
F9 F -0.6466(6) 0.0444(4) 0.2715(5)
F10 F -0.3670(8) 0.1020(6) -0.1222(6)
F11 F -0.5419(9) 0.0770(6) -0.1244(4)
F12 F -0.4850(11) 0.1701(6) -0.1396(5)
N2C N -0.2302(4) 0.1718(3) 0.2482(4)
Mn1C Mn 0.87743(7) 0.71960(5) 0.33111(6)
loop_
_geom_bond_atom_site_label_1
_geom_bond_atom_site_label_2
_geom_bond_site_symmetry_1
_geom_bond_site_symmetry_2
Mn1 N1 1_555 1_555
N1 C1 1_555 1_555
N2 C14 1_555 1_555
N3 C8 1_555 1_555
O1 Mn1 1_555 1_555
O2 Mn1 1_555 1_555
O3 Mn1 1_555 1_555
O4 Mn1 1_555 1_555
C1 H1 1_555 1_555
C2 C1 1_555 1_555
H2 C2 1_555 1_555
C3 C2 1_555 1_555
C4 C3 1_555 1_555
H3 C4 1_555 1_555
C5 N1 1_555 1_555
H4 C5 1_555 1_555
C6 C3 1_555 1_555
H5 C6 1_555 1_555
C7 C6 1_555 1_555
H6 C7 1_555 1_555
C8 C7 1_555 1_555
C9 C8 1_555 1_555
H7 C9 1_555 1_555
C10 C9 1_555 1_555
H8 C10 1_555 1_555
C11 C10 1_555 1_555
H9 C11 1_555 1_555
C12 N3 1_555 1_555
C13 C12 1_555 1_555
H10 C13 1_555 1_555
C14 H11 1_555 1_555
C15 C14 1_555 1_555
H12 C15 1_555 1_555
C16 C15 1_555 1_555
C17 C16 1_555 1_555
H13 C17 1_555 1_555
C18 N2 1_555 1_555
H14 C18 1_555 1_555
C19 C13 1_555 1_555
H15 C19 1_555 1_555
C20 O2 1_555 1_555
C21 O1 1_555 1_555
C22 C20 1_555 1_555
H16 C22 1_555 1_555
C23 C21 1_555 1_555
C24 C20 1_555 1_555
C25 O3 1_555 1_555
C26 C25 1_555 1_555
H17 C26 1_555 1_555
C27 O4 1_555 1_555
C28 C25 1_555 1_555
C29 C27 1_555 1_555
F1 C23 1_555 1_555
F2 C23 1_555 1_555
F3 C23 1_555 1_555
F4 C24 1_555 1_555
F5 C24 1_555 1_555
F6 C24 1_555 1_555
F7 C28 1_555 1_555
F8 C28 1_555 1_555
F9 C28 1_555 1_555
F10 C29 1_555 1_555
F11 C29 1_555 1_555
F12 C29 1_555 1_555
N2C Mn1 1_555 1_555
Mn1C N2 1_555 1_555
C4 C5 1_555 1_555
C11 C12 1_555 1_555
C16 C19 1_555 1_555
C17 C18 1_555 1_555
C21 C22 1_555 1_555
C26 C27 1_555 1_555

#END
