
#######################################################################
#
#                 Cambridge Crystallographic Data Centre
#                                CCDC 
#
#######################################################################
#
# If this CIF has been generated from an entry in the Cambridge 
# Structural Database, then it will include bibliographic, chemical, 
# crystal, experimental, refinement or atomic coordinate data resulting 
# from the CCDC's data processing and validation procedures.
#
#######################################################################

data_EQOZUG
_symmetry_cell_setting           monoclinic
_symmetry_space_group_name_H-M   'P 21/n'
_symmetry_Int_Tables_number      14
_space_group_name_Hall           '-P 2yn'
loop_
_symmetry_equiv_pos_site_id
_symmetry_equiv_pos_as_xyz
1 x,y,z
2 1/2-x,1/2+y,1/2-z
3 -x,-y,-z
4 1/2+x,1/2-y,1/2+z
_cell_length_a                   10.744(5)
_cell_length_b                   35.592(5)
_cell_length_c                   19.347(5)
_cell_angle_alpha                90
_cell_angle_beta                 101.159(5)
_cell_angle_gamma                90
_cell_volume                     7258.43
loop_
_atom_site_label
_atom_site_type_symbol
_atom_site_fract_x
_atom_site_fract_y
_atom_site_fract_z
Tb1 Tb -0.45775(4) 0.226150(11) -0.45269(2)
Ni1 Ni -0.41849(10) 0.35837(3) -0.14214(5)
Ni2 Ni -0.51133(9) 0.16447(3) -0.14902(5)
O1 O -0.4878(6) 0.28387(16) -0.5111(3)
C1 C -0.6359(10) 0.4045(3) -0.0007(5)
H1 H -0.7104 0.3964 0.0123
C2 C -0.5758(10) 0.4368(3) 0.0279(5)
H2 H -0.6077 0.4504 0.0618
O2 O -0.3014(5) 0.26287(16) -0.3775(3)
O3 O -0.7445(6) 0.33760(17) -0.0624(3)
O4 O -0.3714(6) 0.22414(17) -0.5571(3)
N1 N -0.3809(6) 0.32523(18) -0.2242(3)
O5 O -0.4368(6) 0.31841(17) -0.3453(3)
C3 C -0.7134(8) 0.3080(2) -0.2419(4)
H3 H -0.7216 0.3316 -0.2627
N2 N -0.3854(6) 0.18864(18) -0.0646(3)
N3 N -0.5934(6) 0.33609(18) -0.1348(3)
O6 O -0.6094(6) 0.26239(16) -0.4059(3)
O7 O -0.1904(5) 0.17904(16) 0.0092(3)
O8 O -0.4682(5) 0.19633(16) -0.3509(3)
C4 C -0.2257(7) 0.2166(2) -0.2021(4)
H4 H -0.1926 0.1925 -0.1962
N4 N -0.3129(6) 0.32421(18) -0.0623(3)
O9 O -0.2989(7) 0.1793(2) -0.4396(3)
N5 N -0.6103(6) 0.13612(18) -0.2419(3)
C5 C -0.1957(8) 0.2839(2) -0.1996(4)
H5 H -0.1421 0.3046 -0.1923
C6 C -0.6408(8) 0.2687(2) -0.1418(4)
H6 H -0.6031 0.2662 -0.0945
C7 C -0.3555(7) 0.2220(2) -0.2218(4)
O10 O -0.8507(6) 0.20674(17) -0.1071(3)
C8 C -0.4932(7) 0.1823(2) -0.2946(4)
C9 C -0.3965(7) 0.2247(2) -0.0329(4)
N6 N -0.4412(6) 0.19114(17) -0.2296(3)
N7 N -0.2385(7) 0.38266(19) -0.1300(3)
C10 C -0.6848(8) 0.2373(2) -0.1802(4)
C11 C -0.3372(8) 0.2559(2) -0.0556(4)
H7 H -0.2828 0.2530 -0.0872
C12 C -0.7628(7) 0.2765(2) -0.2803(4)
H8 H -0.8059 0.2793 -0.3266
N8 N -0.6149(7) 0.13504(18) -0.0840(3)
N9 N -0.3650(6) 0.12425(18) -0.1306(3)
N10 N -0.6642(6) 0.20067(18) -0.1485(3)
C13 C -0.2815(7) 0.1698(2) -0.0411(4)
N11 N -0.5033(6) 0.39031(18) -0.2304(3)
C14 C -0.2608(9) 0.0661(3) -0.1434(5)
H9 H -0.2588 0.0436 -0.1675
C15 C -0.3251(7) 0.2890(2) -0.2185(4)
N12 N -0.4770(7) 0.39529(18) -0.0696(3)
C16 C -0.6516(7) 0.3038(2) -0.1720(4)
C17 C -0.5805(9) 0.3837(2) -0.3545(5)
H10 H -0.5824 0.3699 -0.3955
C18 C -0.6462(8) 0.3497(2) -0.0839(4)
C19 C -0.2714(8) 0.1326(2) -0.0766(4)
C20 C -0.4727(8) 0.2289(2) 0.0172(4)
H11 H -0.5121 0.2081 0.0326
C21 C -0.4343(8) 0.2957(2) 0.0196(4)
H12 H -0.4474 0.3195 0.0370
C22 C -0.7485(7) 0.2409(2) -0.2502(4)
H13 H -0.7805 0.2199 -0.2762
C23 C -0.0232(9) 0.3727(3) -0.0787(5)
H14 H 0.0384 0.3586 -0.0494
C24 C -0.5913(8) 0.1518(2) -0.3009(4)
C25 C -0.4373(8) 0.3358(2) -0.2878(4)
C26 C -0.4055(7) 0.2580(2) -0.2305(4)
H15 H -0.4926 0.2614 -0.2444
C27 C -0.7240(8) 0.1520(2) -0.0781(4)
C28 C -0.2064(9) 0.4125(2) -0.1633(5)
H16 H -0.2696 0.4263 -0.1922
C29 C -0.1482(8) 0.3628(2) -0.0869(4)
C30 C -0.5828(8) 0.3843(2) -0.0491(4)
C31 C -0.6952(9) 0.1080(2) -0.2459(5)
H17 H -0.7077 0.0968 -0.2044
C32 C -0.5084(7) 0.3717(2) -0.2914(4)
C33 C -0.3598(8) 0.2912(2) -0.0308(4)
C34 C -0.5672(8) 0.4221(2) -0.2323(5)
H18 H -0.5621 0.4356 -0.1907
C35 C -0.1935(8) 0.3301(2) -0.0499(4)
C36 C -0.3597(9) 0.0912(2) -0.1630(4)
H19 H -0.4252 0.0849 -0.2001
C37 C -0.5869(8) 0.1018(2) -0.0527(4)
H20 H -0.5109 0.0901 -0.0562
C38 C -0.4210(9) 0.4269(2) -0.0431(4)
H21 H -0.3477 0.4350 -0.0575
C39 C -0.4894(8) 0.2640(2) 0.0438(4)
H22 H -0.5381 0.2667 0.0784
C40 C -0.1651(9) 0.0753(2) -0.0874(5)
H23 H -0.0985 0.0587 -0.0727
C41 C -0.7504(8) 0.1893(2) -0.1138(4)
C42 C -0.8074(10) 0.1358(3) -0.0411(5)
H24 H -0.8822 0.1482 -0.0375
C43 C -0.6497(9) 0.4164(3) -0.3558(5)
H25 H -0.7004 0.4249 -0.3974
C44 C -0.6418(9) 0.4363(2) -0.2936(5)
H26 H -0.6856 0.4588 -0.2928
C45 C -0.4704(10) 0.4484(3) 0.0062(5)
H27 H -0.4305 0.4706 0.0238
C46 C -0.6673(9) 0.0843(2) -0.0156(5)
H28 H -0.6461 0.0611 0.0055
C47 C -0.7641(10) 0.0953(3) -0.3085(5)
H29 H -0.8195 0.0751 -0.3098
C48 C 0.0114(10) 0.4035(3) -0.1136(6)
H30 H 0.0963 0.4103 -0.1084
C49 C -0.1682(8) 0.1088(2) -0.0538(4)
H31 H -0.1036 0.1157 -0.0166
C50 C -0.6623(10) 0.1415(3) -0.3665(5)
H32 H -0.6505 0.1537 -0.4072
C51 C -0.7802(10) 0.1016(3) -0.0099(5)
H33 H -0.8362 0.0902 0.0147
C52 C -0.0813(9) 0.4239(3) -0.1563(6)
H34 H -0.0604 0.4450 -0.1801
C53 C -0.7491(11) 0.1133(3) -0.3700(5)
H35 H -0.7976 0.1061 -0.4132
O14 O -0.1063(5) 0.31079(16) -0.0098(3)
C62 C -0.1448(7) 0.2477(2) -0.1912(4)
H52 H -0.0576 0.2443 -0.1785
Tb1C Tb 0.04225(4) 0.273850(11) 0.04731(2)
O14C O -0.6063(5) 0.18921(16) -0.5098(3)
O11 O -0.1923(11) -0.0038(3) -0.3660(6)
O12 O -0.1204(13) 0.0017(3) -0.2539(5)
O13 O 0.0055(11) 0.0144(3) -0.3264(7)
N13 N -0.1023(13) 0.0039(3) -0.3162(6)
O15 O -0.9233(6) 0.03587(19) -0.9412(4)
O16 O -0.8727(6) 0.46607(19) -0.4793(4)
O17 O -0.6442(6) 0.5038(2) -0.4424(4)
O18 O -0.5363(7) 0.0033(2) -0.8949(4)
O19 O -0.0982(7) 0.4001(2) -0.3233(5)
C54 C 0.0361(11) 0.3595(3) -0.3713(6)
H36 H 0.1222 0.3498 -0.3626
H37 H 0.0040 0.3608 -0.4216
C55 C 0.0281(10) 0.3971(3) -0.3361(7)
H38 H 0.0893 0.3984 -0.2922
H39 H 0.0455 0.4173 -0.3666
C56 C -0.1527(10) 0.3633(3) -0.3242(7)
H40 H -0.2251 0.3611 -0.3626
H41 H -0.1805 0.3584 -0.2803
C57 C -0.0503(11) 0.3359(3) -0.3339(7)
H42 H -0.0856 0.3147 -0.3627
H43 H -0.0046 0.3267 -0.2889
O20 O -0.2766(7) 0.9657(2) -0.1729(4)
O21 O -0.8576(9) 0.0379(2) -0.1879(5)
O22 O -0.8659(10) 0.5157(3) -0.2801(6)
O23 O -0.9477(12) 0.5171(4) -0.1571(6)
C58 C -1.0428(16) 0.5463(5) -0.1590(9)
H44 H -1.1244 0.5384 -0.1858
H45 H -1.0173 0.5694 -0.1790
C59 C -0.9118(17) 0.5438(5) -0.0395(9)
H46 H -0.9079 0.5351 0.0084
H47 H -0.8598 0.5661 -0.0388
C60 C -1.0471(19) 0.5513(6) -0.0759(9)
H48 H -1.0730 0.5766 -0.0661
H49 H -1.1049 0.5334 -0.0612
C61 C -0.8679(19) 0.5115(6) -0.0875(9)
H50 H -0.7788 0.5143 -0.0896
H51 H -0.8814 0.4868 -0.0692
loop_
_geom_bond_atom_site_label_1
_geom_bond_atom_site_label_2
_geom_bond_site_symmetry_1
_geom_bond_site_symmetry_2
Tb1 O1 1_555 1_555
Ni1 N1 1_555 1_555
Ni2 N2 1_555 1_555
C1 H1 1_555 1_555
C2 C1 1_555 1_555
H2 C2 1_555 1_555
O2 Tb1 1_555 1_555
O3 C18 1_555 1_555
O4 Tb1 1_555 1_555
N1 C15 1_555 1_555
O5 C25 1_555 1_555
C3 H3 1_555 1_555
N2 C9 1_555 1_555
N3 Ni1 1_555 1_555
O6 Tb1 1_555 1_555
O7 C13 1_555 1_555
O8 Tb1 1_555 1_555
C4 H4 1_555 1_555
N4 Ni1 1_555 1_555
O9 Tb1 1_555 1_555
N5 Ni2 1_555 1_555
C5 H5 1_555 1_555
C6 H6 1_555 1_555
C7 C4 1_555 1_555
O10 C41 1_555 1_555
C8 O8 1_555 1_555
C9 C11 1_555 1_555
N6 Ni2 1_555 1_555
N7 Ni1 1_555 1_555
C10 C6 1_555 1_555
C11 H7 1_555 1_555
C12 C3 1_555 1_555
H8 C12 1_555 1_555
N8 Ni2 1_555 1_555
N9 Ni2 1_555 1_555
N10 Ni2 1_555 1_555
C13 N2 1_555 1_555
N11 Ni1 1_555 1_555
C14 H9 1_555 1_555
C15 C5 1_555 1_555
N12 Ni1 1_555 1_555
C16 C3 1_555 1_555
C17 H10 1_555 1_555
C18 N3 1_555 1_555
C19 N9 1_555 1_555
C20 C9 1_555 1_555
H11 C20 1_555 1_555
C21 H12 1_555 1_555
C22 C10 1_555 1_555
H13 C22 1_555 1_555
C23 H14 1_555 1_555
C24 N5 1_555 1_555
C25 N1 1_555 1_555
C26 C7 1_555 1_555
H15 C26 1_555 1_555
C27 N8 1_555 1_555
C28 N7 1_555 1_555
H16 C28 1_555 1_555
C29 N7 1_555 1_555
C30 C1 1_555 1_555
C31 N5 1_555 1_555
H17 C31 1_555 1_555
C32 N11 1_555 1_555
C33 N4 1_555 1_555
C34 N11 1_555 1_555
H18 C34 1_555 1_555
C35 N4 1_555 1_555
C36 N9 1_555 1_555
H19 C36 1_555 1_555
C37 N8 1_555 1_555
H20 C37 1_555 1_555
C38 N12 1_555 1_555
H21 C38 1_555 1_555
C39 C20 1_555 1_555
H22 C39 1_555 1_555
C40 C14 1_555 1_555
H23 C40 1_555 1_555
C41 N10 1_555 1_555
C42 C27 1_555 1_555
H24 C42 1_555 1_555
C43 C17 1_555 1_555
H25 C43 1_555 1_555
C44 C34 1_555 1_555
H26 C44 1_555 1_555
C45 C2 1_555 1_555
H27 C45 1_555 1_555
C46 C37 1_555 1_555
H28 C46 1_555 1_555
C47 C31 1_555 1_555
H29 C47 1_555 1_555
C48 C23 1_555 1_555
H30 C48 1_555 1_555
C49 C19 1_555 1_555
H31 C49 1_555 1_555
C50 C24 1_555 1_555
H32 C50 1_555 1_555
C51 C42 1_555 1_555
H33 C51 1_555 1_555
C52 C28 1_555 1_555
H34 C52 1_555 1_555
C53 C47 1_555 1_555
H35 C53 1_555 1_555
O11 N13 1_555 1_555
O12 N13 1_555 1_555
O13 N13 1_555 1_555
O14 C35 1_555 1_555
O19 C55 1_555 1_555
C54 H36 1_555 1_555
H37 C54 1_555 1_555
C55 C54 1_555 1_555
H38 C55 1_555 1_555
H39 C55 1_555 1_555
C56 O19 1_555 1_555
H40 C56 1_555 1_555
H41 C56 1_555 1_555
C57 C54 1_555 1_555
H42 C57 1_555 1_555
H43 C57 1_555 1_555
O23 C58 1_555 1_555
C58 H44 1_555 1_555
H45 C58 1_555 1_555
C59 H46 1_555 1_555
H47 C59 1_555 1_555
C60 C58 1_555 1_555
H48 C60 1_555 1_555
H49 C60 1_555 1_555
C61 O23 1_555 1_555
H50 C61 1_555 1_555
H51 C61 1_555 1_555
C62 C4 1_555 1_555
H52 C62 1_555 1_555
Tb1C O14 1_555 1_555
O14C Tb1 1_555 1_555
N3 C16 1_555 1_555
C5 C62 1_555 1_555
C6 C16 1_555 1_555
C7 N6 1_555 1_555
C8 N6 1_555 1_555
C8 C24 1_555 1_555
C10 N10 1_555 1_555
C11 C33 1_555 1_555
C12 C22 1_555 1_555
C13 C19 1_555 1_555
C14 C36 1_555 1_555
C15 C26 1_555 1_555
N12 C30 1_555 1_555
C17 C32 1_555 1_555
C18 C30 1_555 1_555
C21 C33 1_555 1_555
C21 C39 1_555 1_555
C23 C29 1_555 1_555
C25 C32 1_555 1_555
C27 C41 1_555 1_555
C29 C35 1_555 1_555
C38 C45 1_555 1_555
C40 C49 1_555 1_555
C43 C44 1_555 1_555
C46 C51 1_555 1_555
C48 C52 1_555 1_555
C50 C53 1_555 1_555
C56 C57 1_555 1_555
C59 C60 1_555 1_555
C59 C61 1_555 1_555

#END
