
#######################################################################
#
#                 Cambridge Crystallographic Data Centre
#                                CCDC 
#
#######################################################################
#
# If this CIF has been generated from an entry in the Cambridge 
# Structural Database, then it will include bibliographic, chemical, 
# crystal, experimental, refinement or atomic coordinate data resulting 
# from the CCDC's data processing and validation procedures.
#
#######################################################################

data_EQUCUO07
_symmetry_cell_setting           trigonal
_symmetry_space_group_name_H-M   'P -3'
_symmetry_Int_Tables_number      147
_space_group_name_Hall           '-P 3'
loop_
_symmetry_equiv_pos_site_id
_symmetry_equiv_pos_as_xyz
1 x,y,z
2 -y,x-y,z
3 -x+y,-x,z
4 -x,-y,-z
5 y,-x+y,-z
6 x-y,x,-z
_cell_length_a                   11.259(7)
_cell_length_b                   11.259(7)
_cell_length_c                   8.887(6)
_cell_angle_alpha                90
_cell_angle_beta                 90
_cell_angle_gamma                120
_cell_volume                     975.631
loop_
_atom_site_label
_atom_site_type_symbol
_atom_site_fract_x
_atom_site_fract_y
_atom_site_fract_z
P1 P 0.3333 0.6667 0.10516(14)
F1 F 0.2887(2) 0.5365(2) 0.2110(3)
F2 F 0.1995(3) 0.5752(3) 0.0103(3)
F1A F 0.4635(2) 0.7522(3) 0.2110(3)
F1B F 0.2478(3) 0.7113(2) 0.2110(3)
F2A F 0.4248(3) 0.6243(4) 0.0103(3)
F2B F 0.3757(4) 0.8005(3) 0.0103(3)
O1 O 0.0000 0.0000 0.5000
Fe1 Fe 0.0000 0.0000 0.0000
N1 N 0.36238(16) 0.07907(16) 0.24518(17)
N2 N 0.3583(2) 0.19446(19) 0.2725(2)
N3 N 0.25027(19) 0.18142(18) 0.2072(2)
N4 N 0.18207(15) 0.05791(15) 0.13677(17)
C1 C 0.2543(2) -0.0029(2) 0.1618(2)
H1 H 0.2326 -0.0910 0.1260
C2 C 0.4730(2) 0.0602(2) 0.3071(2)
H2 H 0.5602 0.1487 0.3049
H3 H 0.4843 -0.0059 0.2438
C3 C 0.4416(2) 0.0076(2) 0.4671(2)
H4 H 0.3559 -0.0823 0.4688
H5 H 0.4274 0.0722 0.5296
C3C C 0.5584(2) -0.0076(2) 0.5329(2)
C2C C 0.5270(2) -0.0602(2) 0.6929(2)
N1C N 0.63762(16) -0.07907(16) 0.75482(17)
N2C N 0.6417(2) -0.19446(19) 0.7275(2)
N3C N 0.74973(19) -0.18142(18) 0.7928(2)
N4C N 0.81793(15) -0.05791(15) 0.86323(17)
C1C C 0.7457(2) 0.0029(2) 0.8382(2)
H1C H 0.7674 0.0910 0.8740
H2C H 0.4398 -0.1487 0.6951
H3C H 0.5157 0.0059 0.7562
H4C H 0.6441 0.0823 0.5312
H5C H 0.5726 -0.0722 0.4704
N1A N -0.07907(16) 0.28331(23) 0.24518(17)
N2A N -0.19446(19) 0.16384(28) 0.2725(2)
N3A N -0.18142(18) 0.06885(26) 0.2072(2)
N4A N -0.05791(15) 0.12416(21) 0.13677(17)
C1A C 0.0029(2) 0.2572(3) 0.1618(2)
H1A H 0.0910 0.3236 0.1260
C2A C -0.0602(2) 0.4128(3) 0.3071(2)
H2A H -0.1487 0.4115 0.3049
H3A H 0.0059 0.4902 0.2438
C3A C -0.0076(2) 0.4340(3) 0.4671(2)
H4A H 0.0823 0.4382 0.4688
H5A H -0.0722 0.3552 0.5296
C3D C 0.0076(2) 0.5660(3) 0.5329(2)
C2D C 0.0602(2) 0.5872(3) 0.6929(2)
N1D N 0.07907(16) 0.71669(23) 0.75482(17)
N2D N 0.19446(19) 0.83616(28) 0.7275(2)
N3D N 0.18142(18) 0.93115(26) 0.7928(2)
N4D N 0.05791(15) 0.87584(21) 0.86323(17)
C1D C -0.0029(2) 0.7428(3) 0.8382(2)
H1D H -0.0910 0.6764 0.8740
H2D H 0.1487 0.5885 0.6951
H3D H -0.0059 0.5098 0.7562
H4D H -0.0823 0.5618 0.5312
H5D H 0.0722 0.6448 0.4704
N1B N -0.28331(23) -0.36238(16) 0.24518(17)
N2B N -0.16384(28) -0.3583(2) 0.2725(2)
N3B N -0.06885(26) -0.25027(19) 0.2072(2)
N4B N -0.12416(21) -0.18207(15) 0.13677(17)
C1B C -0.2572(3) -0.2543(2) 0.1618(2)
H1B H -0.3236 -0.2326 0.1260
C2B C -0.4128(3) -0.4730(2) 0.3071(2)
H2B H -0.4115 -0.5602 0.3049
H3B H -0.4902 -0.4843 0.2438
C3B C -0.4340(3) -0.4416(2) 0.4671(2)
H4B H -0.4382 -0.3559 0.4688
H5B H -0.3552 -0.4274 0.5296
C3E C -0.5660(3) -0.5584(2) 0.5329(2)
C2E C -0.5872(3) -0.5270(2) 0.6929(2)
N1E N -0.71669(23) -0.63762(16) 0.75482(17)
N2E N -0.83616(28) -0.6417(2) 0.7275(2)
N3E N -0.93115(26) -0.74973(19) 0.7928(2)
N4E N -0.87584(21) -0.81793(15) 0.86323(17)
C1E C -0.7428(3) -0.7457(2) 0.8382(2)
H1E H -0.6764 -0.7674 0.8740
H2E H -0.5885 -0.4398 0.6951
H3E H -0.5098 -0.5157 0.7562
H4E H -0.5618 -0.6441 0.5312
H5E H -0.6448 -0.5726 0.4704
N4C_2 N -0.18207(15) -0.05791(15) -0.13677(17)
N4D_2 N 0.05791(15) -0.12416(21) -0.13677(17)
N4E_2 N 0.12416(21) 0.18207(15) -0.13677(17)
Fe1_2 Fe 1.0000 0.0000 1.0000
Fe1_3 Fe 0.0000 1.0000 1.0000
Fe1_4 Fe -1.0000 -1.0000 1.0000
O2? O 0.151(3) 0.087(4) 0.516(3)
O3? O 0.0000 0.0000 0.659(17)
loop_
_geom_bond_atom_site_label_1
_geom_bond_atom_site_label_2
_geom_bond_site_symmetry_1
_geom_bond_site_symmetry_2
Fe1 N4 1_555 1_555
N1 N2 1_555 1_555
N2 N3 1_555 1_555
N3 N4 1_555 1_555
N4 C1 1_555 1_555
C1 N1 1_555 1_555
H1 C1 1_555 1_555
C2 N1 1_555 1_555
H2 C2 1_555 1_555
H3 C2 1_555 1_555
C3 C2 1_555 1_555
H4 C3 1_555 1_555
H5 C3 1_555 1_555
P1 F1 1_555 1_555
F2 P1 1_555 1_555
C3C C3 1_555 1_555
C2C C3C 1_555 1_555
N1C C2C 1_555 1_555
N2C N1C 1_555 1_555
N3C N2C 1_555 1_555
N4C N3C 1_555 1_555
C1C N1C 1_555 1_555
H1C C1C 1_555 1_555
H2C C2C 1_555 1_555
H3C C2C 1_555 1_555
H4C C3C 1_555 1_555
H5C C3C 1_555 1_555
F1A P1 1_555 1_555
F1B P1 1_555 1_555
F2A P1 1_555 1_555
F2B P1 1_555 1_555
N1A N2A 1_555 1_555
N2A N3A 1_555 1_555
N3A N4A 1_555 1_555
N4A Fe1 1_555 1_555
C1A N1A 1_555 1_555
H1A C1A 1_555 1_555
C2A N1A 1_555 1_555
H2A C2A 1_555 1_555
H3A C2A 1_555 1_555
C3A C2A 1_555 1_555
H4A C3A 1_555 1_555
H5A C3A 1_555 1_555
C3D C3A 1_555 1_555
C2D C3D 1_555 1_555
N1D C2D 1_555 1_555
N2D N1D 1_555 1_555
N3D N2D 1_555 1_555
N4D N3D 1_555 1_555
C1D N1D 1_555 1_555
H1D C1D 1_555 1_555
H2D C2D 1_555 1_555
H3D C2D 1_555 1_555
H4D C3D 1_555 1_555
H5D C3D 1_555 1_555
N1B N2B 1_555 1_555
N2B N3B 1_555 1_555
N3B N4B 1_555 1_555
N4B Fe1 1_555 1_555
C1B N1B 1_555 1_555
H1B C1B 1_555 1_555
C2B N1B 1_555 1_555
H2B C2B 1_555 1_555
H3B C2B 1_555 1_555
C3B C2B 1_555 1_555
H4B C3B 1_555 1_555
H5B C3B 1_555 1_555
C3E C3B 1_555 1_555
C2E C3E 1_555 1_555
N1E C2E 1_555 1_555
N2E N1E 1_555 1_555
N3E N2E 1_555 1_555
N4E N3E 1_555 1_555
C1E N1E 1_555 1_555
H1E C1E 1_555 1_555
H2E C2E 1_555 1_555
H3E C2E 1_555 1_555
H4E C3E 1_555 1_555
H5E C3E 1_555 1_555
N4C_2 Fe1 1_555 1_555
N4D_2 Fe1 1_555 1_555
N4E_2 Fe1 1_555 1_555
Fe1_2 N4C 1_555 1_555
Fe1_3 N4D 1_555 1_555
Fe1_4 N4E 1_555 1_555
N4C C1C 1_555 1_555
N4A C1A 1_555 1_555
N4D C1D 1_555 1_555
N4B C1B 1_555 1_555
N4E C1E 1_555 1_555

#END
