
#######################################################################
#
#                 Cambridge Crystallographic Data Centre
#                                CCDC 
#
#######################################################################
#
# If this CIF has been generated from an entry in the Cambridge 
# Structural Database, then it will include bibliographic, chemical, 
# crystal, experimental, refinement or atomic coordinate data resulting 
# from the CCDC's data processing and validation procedures.
#
#######################################################################

data_EQUCUO04
_symmetry_cell_setting           trigonal
_symmetry_space_group_name_H-M   'P -3'
_symmetry_Int_Tables_number      147
_space_group_name_Hall           '-P 3'
loop_
_symmetry_equiv_pos_site_id
_symmetry_equiv_pos_as_xyz
1 x,y,z
2 -y,x-y,z
3 -x+y,-x,z
4 -x,-y,-z
5 y,-x+y,-z
6 x-y,x,-z
_cell_length_a                   11.126(3)
_cell_length_b                   11.126(3)
_cell_length_c                   8.795(3)
_cell_angle_alpha                90
_cell_angle_beta                 90
_cell_angle_gamma                120
_cell_volume                     942.854
loop_
_atom_site_label
_atom_site_type_symbol
_atom_site_fract_x
_atom_site_fract_y
_atom_site_fract_z
P1 P 0.3333 0.6667 0.11066(11)
F1 F 0.28966(16) 0.53447(15) 0.21635(18)
F2 F 0.19960(19) 0.5748(2) 0.0100(2)
F1A F 0.46553(15) 0.75519(22) 0.21635(18)
F1B F 0.24481(22) 0.71034(16) 0.21635(18)
F2A F 0.4252(2) 0.62480(28) 0.0100(2)
F2B F 0.37520(28) 0.80040(19) 0.0100(2)
O1 O 0.0000 0.0000 0.5000
Fe1 Fe 0.0000 0.0000 0.0000
N1 N 0.35909(16) 0.07937(16) 0.24262(16)
N2 N 0.35452(19) 0.19618(18) 0.2695(2)
N3 N 0.24491(18) 0.18238(17) 0.2032(2)
N4 N 0.17589(15) 0.05689(15) 0.13285(16)
C1 C 0.2497(2) -0.00434(19) 0.1590(2)
H1 H 0.2278 -0.0937 0.1236
C2 C 0.4718(2) 0.0616(2) 0.3050(2)
H2 H 0.5594 0.1519 0.3040
H3 H 0.4850 -0.0037 0.2401
C3 C 0.4398(2) 0.0062(2) 0.4665(2)
H4 H 0.3546 -0.0862 0.4669
H5 H 0.4226 0.0693 0.5305
C3C C 0.5602(2) -0.0062(2) 0.5335(2)
C2C C 0.5282(2) -0.0616(2) 0.6950(2)
N1C N 0.64091(16) -0.07937(16) 0.75738(16)
N2C N 0.64548(19) -0.19618(18) 0.7305(2)
N3C N 0.75509(18) -0.18238(17) 0.7968(2)
N4C N 0.82411(15) -0.05689(15) 0.86715(16)
C1C C 0.7503(2) 0.00434(19) 0.8410(2)
H1C H 0.7722 0.0937 0.8764
H2C H 0.4406 -0.1519 0.6960
H3C H 0.5150 0.0037 0.7599
H4C H 0.6454 0.0862 0.5331
H5C H 0.5774 -0.0693 0.4695
N1A N -0.07937(16) 0.27972(23) 0.24262(16)
N2A N -0.19618(18) 0.15834(26) 0.2695(2)
N3A N -0.18238(17) 0.06253(25) 0.2032(2)
N4A N -0.05689(15) 0.11900(21) 0.13285(16)
C1A C 0.00434(19) 0.25404(28) 0.1590(2)
H1A H 0.0937 0.3215 0.1236
C2A C -0.0616(2) 0.4102(3) 0.3050(2)
H2A H -0.1519 0.4075 0.3040
H3A H 0.0037 0.4887 0.2401
C3A C -0.0062(2) 0.4336(3) 0.4665(2)
H4A H 0.0862 0.4408 0.4669
H5A H -0.0693 0.3533 0.5305
C3D C 0.0062(2) 0.5664(3) 0.5335(2)
C2D C 0.0616(2) 0.5898(3) 0.6950(2)
N1D N 0.07937(16) 0.72028(23) 0.75738(16)
N2D N 0.19618(18) 0.84166(26) 0.7305(2)
N3D N 0.18238(17) 0.93747(25) 0.7968(2)
N4D N 0.05689(15) 0.88100(21) 0.86715(16)
C1D C -0.00434(19) 0.74596(28) 0.8410(2)
H1D H -0.0937 0.6785 0.8764
H2D H 0.1519 0.5925 0.6960
H3D H -0.0037 0.5113 0.7599
H4D H -0.0862 0.5592 0.5331
H5D H 0.0693 0.6467 0.4695
N1B N -0.27972(23) -0.35909(16) 0.24262(16)
N2B N -0.15834(26) -0.35452(19) 0.2695(2)
N3B N -0.06253(25) -0.24491(18) 0.2032(2)
N4B N -0.11900(21) -0.17589(15) 0.13285(16)
C1B C -0.25404(28) -0.2497(2) 0.1590(2)
H1B H -0.3215 -0.2278 0.1236
C2B C -0.4102(3) -0.4718(2) 0.3050(2)
H2B H -0.4075 -0.5594 0.3040
H3B H -0.4887 -0.4850 0.2401
C3B C -0.4336(3) -0.4398(2) 0.4665(2)
H4B H -0.4408 -0.3546 0.4669
H5B H -0.3533 -0.4226 0.5305
C3E C -0.5664(3) -0.5602(2) 0.5335(2)
C2E C -0.5898(3) -0.5282(2) 0.6950(2)
N1E N -0.72028(23) -0.64091(16) 0.75738(16)
N2E N -0.84166(26) -0.64548(19) 0.7305(2)
N3E N -0.93747(25) -0.75509(18) 0.7968(2)
N4E N -0.88100(21) -0.82411(15) 0.86715(16)
C1E C -0.74596(28) -0.7503(2) 0.8410(2)
H1E H -0.6785 -0.7722 0.8764
H2E H -0.5925 -0.4406 0.6960
H3E H -0.5113 -0.5150 0.7599
H4E H -0.5592 -0.6454 0.5331
H5E H -0.6467 -0.5774 0.4695
N4C_2 N -0.17589(15) -0.05689(15) -0.13285(16)
N4D_2 N 0.05689(15) -0.11900(21) -0.13285(16)
N4E_2 N 0.11900(21) 0.17589(15) -0.13285(16)
Fe1_2 Fe 1.0000 0.0000 1.0000
Fe1_3 Fe 0.0000 1.0000 1.0000
Fe1_4 Fe -1.0000 -1.0000 1.0000
O2? O 0.149(3) 0.084(3) 0.515(2)
O3? O 0.0000 0.0000 0.59(2)
loop_
_geom_bond_atom_site_label_1
_geom_bond_atom_site_label_2
_geom_bond_site_symmetry_1
_geom_bond_site_symmetry_2
Fe1 N4 1_555 1_555
N1 N2 1_555 1_555
N2 N3 1_555 1_555
N3 N4 1_555 1_555
N4 C1 1_555 1_555
C1 N1 1_555 1_555
H1 C1 1_555 1_555
C2 N1 1_555 1_555
H2 C2 1_555 1_555
H3 C2 1_555 1_555
C3 C2 1_555 1_555
H4 C3 1_555 1_555
H5 C3 1_555 1_555
P1 F1 1_555 1_555
F2 P1 1_555 1_555
C3C C3 1_555 1_555
C2C C3C 1_555 1_555
N1C C2C 1_555 1_555
N2C N1C 1_555 1_555
N3C N2C 1_555 1_555
N4C N3C 1_555 1_555
C1C N1C 1_555 1_555
H1C C1C 1_555 1_555
H2C C2C 1_555 1_555
H3C C2C 1_555 1_555
H4C C3C 1_555 1_555
H5C C3C 1_555 1_555
F1A P1 1_555 1_555
F1B P1 1_555 1_555
F2A P1 1_555 1_555
F2B P1 1_555 1_555
N1A N2A 1_555 1_555
N2A N3A 1_555 1_555
N3A N4A 1_555 1_555
N4A Fe1 1_555 1_555
C1A N1A 1_555 1_555
H1A C1A 1_555 1_555
C2A N1A 1_555 1_555
H2A C2A 1_555 1_555
H3A C2A 1_555 1_555
C3A C2A 1_555 1_555
H4A C3A 1_555 1_555
H5A C3A 1_555 1_555
C3D C3A 1_555 1_555
C2D C3D 1_555 1_555
N1D C2D 1_555 1_555
N2D N1D 1_555 1_555
N3D N2D 1_555 1_555
N4D N3D 1_555 1_555
C1D N1D 1_555 1_555
H1D C1D 1_555 1_555
H2D C2D 1_555 1_555
H3D C2D 1_555 1_555
H4D C3D 1_555 1_555
H5D C3D 1_555 1_555
N1B N2B 1_555 1_555
N2B N3B 1_555 1_555
N3B N4B 1_555 1_555
N4B Fe1 1_555 1_555
C1B N1B 1_555 1_555
H1B C1B 1_555 1_555
C2B N1B 1_555 1_555
H2B C2B 1_555 1_555
H3B C2B 1_555 1_555
C3B C2B 1_555 1_555
H4B C3B 1_555 1_555
H5B C3B 1_555 1_555
C3E C3B 1_555 1_555
C2E C3E 1_555 1_555
N1E C2E 1_555 1_555
N2E N1E 1_555 1_555
N3E N2E 1_555 1_555
N4E N3E 1_555 1_555
C1E N1E 1_555 1_555
H1E C1E 1_555 1_555
H2E C2E 1_555 1_555
H3E C2E 1_555 1_555
H4E C3E 1_555 1_555
H5E C3E 1_555 1_555
N4C_2 Fe1 1_555 1_555
N4D_2 Fe1 1_555 1_555
N4E_2 Fe1 1_555 1_555
Fe1_2 N4C 1_555 1_555
Fe1_3 N4D 1_555 1_555
Fe1_4 N4E 1_555 1_555
N4C C1C 1_555 1_555
N4A C1A 1_555 1_555
N4D C1D 1_555 1_555
N4B C1B 1_555 1_555
N4E C1E 1_555 1_555

#END
