
#######################################################################
#
#                 Cambridge Crystallographic Data Centre
#                                CCDC 
#
#######################################################################
#
# If this CIF has been generated from an entry in the Cambridge 
# Structural Database, then it will include bibliographic, chemical, 
# crystal, experimental, refinement or atomic coordinate data resulting 
# from the CCDC's data processing and validation procedures.
#
#######################################################################

data_EQUCUO09
_symmetry_cell_setting           trigonal
_symmetry_space_group_name_H-M   'P -3'
_symmetry_Int_Tables_number      147
_space_group_name_Hall           '-P 3'
loop_
_symmetry_equiv_pos_site_id
_symmetry_equiv_pos_as_xyz
1 x,y,z
2 -y,x-y,z
3 -x+y,-x,z
4 -x,-y,-z
5 y,-x+y,-z
6 x-y,x,-z
_cell_length_a                   10.9686(3)
_cell_length_b                   10.9686(3)
_cell_length_c                   8.6941(5)
_cell_angle_alpha                90
_cell_angle_beta                 90
_cell_angle_gamma                120
_cell_volume                     905.853
loop_
_atom_site_label
_atom_site_type_symbol
_atom_site_fract_x
_atom_site_fract_y
_atom_site_fract_z
P1 P 0.3333 0.6667 0.11627(5)
F1 F 0.29004(8) 0.53184(8) 0.22350(9)
F2 F 0.19809(9) 0.57365(10) 0.01125(11)
F1A F 0.46816(8) 0.75820(11) 0.22350(9)
F1B F 0.24180(11) 0.70996(8) 0.22350(9)
F2A F 0.42635(10) 0.62444(13) 0.01125(11)
F2B F 0.37556(13) 0.80191(9) 0.01125(11)
C4 C 0.0000 0.0000 0.5000
O1 O 0.1488(9) 0.0814(12) 0.5129(11)
O1D O 0.0814(12) -0.0674(15) 0.4871(11)
O1A O -0.0814(12) 0.0674(15) 0.5129(11)
O1E O 0.0674(15) 0.1488(9) 0.4871(11)
O1B O -0.0674(15) -0.1488(9) 0.5129(11)
O1C O -0.1488(9) -0.0814(12) 0.4871(11)
Fe1 Fe 0.0000 0.0000 0.0000
N1 N 0.35615(9) 0.07989(9) 0.23976(9)
N2 N 0.35256(10) 0.19905(10) 0.26534(11)
N3 N 0.24097(10) 0.18460(10) 0.19827(11)
N4 N 0.17017(9) 0.05617(9) 0.12853(9)
C1 C 0.24398(10) -0.00726(12) 0.15636(10)
H1 H 0.2209 -0.0987 0.1227
C2 C 0.47102(10) 0.06267(11) 0.30273(12)
H2 H 0.5592 0.1549 0.3030
H3 H 0.4856 -0.0022 0.2363
C3 C 0.43791(10) 0.00449(13) 0.46572(11)
H4 H 0.3532 -0.0904 0.4646
H5 H 0.4175 0.0662 0.5308
Fe1_2 Fe 1.0000 0.0000 1.0000
Fe1_3 Fe 0.0000 1.0000 1.0000
Fe1_4 Fe -1.0000 -1.0000 1.0000
N1C N 0.64385(9) -0.07989(9) 0.76024(9)
N1A N -0.07989(9) 0.27626(13) 0.23976(9)
N1D N 0.07989(9) 0.72374(13) 0.76024(9)
N1B N -0.27626(13) -0.35615(9) 0.23976(9)
N1E N -0.72374(13) -0.64385(9) 0.76024(9)
N2C N 0.64744(10) -0.19905(10) 0.73466(11)
N2A N -0.19905(10) 0.15351(14) 0.26534(11)
N2D N 0.19905(10) 0.84649(14) 0.73466(11)
N2B N -0.15351(14) -0.35256(10) 0.26534(11)
N2E N -0.84649(14) -0.64744(10) 0.73466(11)
N3C N 0.75903(10) -0.18460(10) 0.80173(11)
N3A N -0.18460(10) 0.05637(14) 0.19827(11)
N3D N 0.18460(10) 0.94363(14) 0.80173(11)
N3B N -0.05637(14) -0.24097(10) 0.19827(11)
N3E N -0.94363(14) -0.75903(10) 0.80173(11)
N4C N 0.82983(9) -0.05617(9) 0.87147(9)
N4A N -0.05617(9) 0.11400(13) 0.12853(9)
N4D N 0.05617(9) 0.88600(13) 0.87147(9)
N4B N -0.11400(13) -0.17017(9) 0.12853(9)
N4E N -0.88600(13) -0.82983(9) 0.87147(9)
N4C_2 N -0.17017(9) -0.05617(9) -0.12853(9)
N4D_2 N 0.05617(9) -0.11400(13) -0.12853(9)
N4E_2 N 0.11400(13) 0.17017(9) -0.12853(9)
C1C C 0.75602(10) 0.00726(12) 0.84364(10)
C1A C 0.00726(12) 0.25124(16) 0.15636(10)
C1D C -0.00726(12) 0.74876(16) 0.84364(10)
C1B C -0.25124(16) -0.24398(10) 0.15636(10)
C1E C -0.74876(16) -0.75602(10) 0.84364(10)
H1C H 0.7791 0.0987 0.8773
H1A H 0.0987 0.3196 0.1227
H1D H -0.0987 0.6804 0.8773
H1B H -0.3196 -0.2209 0.1227
H1E H -0.6804 -0.7791 0.8773
C2C C 0.52898(10) -0.06267(11) 0.69727(12)
C2A C -0.06267(11) 0.40835(15) 0.30273(12)
C2D C 0.06267(11) 0.59165(15) 0.69727(12)
C2B C -0.40835(15) -0.47102(10) 0.30273(12)
C2E C -0.59165(15) -0.52898(10) 0.69727(12)
H2C H 0.4408 -0.1549 0.6970
H2A H -0.1549 0.4043 0.3030
H2D H 0.1549 0.5957 0.6970
H2B H -0.4043 -0.5592 0.3030
H2E H -0.5957 -0.4408 0.6970
H3C H 0.5144 0.0022 0.7637
H3A H 0.0022 0.4878 0.2363
H3D H -0.0022 0.5122 0.7637
H3B H -0.4878 -0.4856 0.2363
H3E H -0.5122 -0.5144 0.7637
C3C C 0.56209(10) -0.00449(13) 0.53428(11)
C3A C -0.00449(13) 0.43342(16) 0.46572(11)
C3D C 0.00449(13) 0.56658(16) 0.53428(11)
C3B C -0.43342(16) -0.43791(10) 0.46572(11)
C3E C -0.56658(16) -0.56209(10) 0.53428(11)
H4C H 0.6468 0.0904 0.5354
H4A H 0.0904 0.4436 0.4646
H4D H -0.0904 0.5564 0.5354
H4B H -0.4436 -0.3532 0.4646
H4E H -0.5564 -0.6468 0.5354
H5C H 0.5825 -0.0662 0.4692
H5A H -0.0662 0.3513 0.5308
H5D H 0.0662 0.6487 0.4692
H5B H -0.3513 -0.4175 0.5308
H5E H -0.6487 -0.5825 0.4692
loop_
_geom_bond_atom_site_label_1
_geom_bond_atom_site_label_2
_geom_bond_site_symmetry_1
_geom_bond_site_symmetry_2
Fe1 N4 1_555 1_555
N1 N2 1_555 1_555
N2 N3 1_555 1_555
N3 N4 1_555 1_555
N4 C1 1_555 1_555
C1 N1 1_555 1_555
H1 C1 1_555 1_555
C2 N1 1_555 1_555
H2 C2 1_555 1_555
H3 C2 1_555 1_555
C3 C2 1_555 1_555
H4 C3 1_555 1_555
H5 C3 1_555 1_555
P1 F1 1_555 1_555
F2 P1 1_555 1_555
C4 O1 1_555 1_555
O1 O1D 1_555 1_555
Fe1_2 N4C 1_555 1_555
Fe1_3 N4D 1_555 1_555
Fe1_4 N4E 1_555 1_555
N1C N2C 1_555 1_555
N1A N2A 1_555 1_555
N1D N2D 1_555 1_555
N1B N2B 1_555 1_555
N1E N2E 1_555 1_555
N2C N3C 1_555 1_555
N2A N3A 1_555 1_555
N2D N3D 1_555 1_555
N2B N3B 1_555 1_555
N2E N3E 1_555 1_555
N3C N4C 1_555 1_555
N3A N4A 1_555 1_555
N3D N4D 1_555 1_555
N3B N4B 1_555 1_555
N3E N4E 1_555 1_555
N4C C1C 1_555 1_555
N4A Fe1 1_555 1_555
N4D C1D 1_555 1_555
N4B Fe1 1_555 1_555
N4E C1E 1_555 1_555
N4C_2 Fe1 1_555 1_555
N4D_2 Fe1 1_555 1_555
N4E_2 Fe1 1_555 1_555
C1C N1C 1_555 1_555
C1A N1A 1_555 1_555
C1D N1D 1_555 1_555
C1B N1B 1_555 1_555
C1E N1E 1_555 1_555
H1C C1C 1_555 1_555
H1A C1A 1_555 1_555
H1D C1D 1_555 1_555
H1B C1B 1_555 1_555
H1E C1E 1_555 1_555
C2C N1C 1_555 1_555
C2A N1A 1_555 1_555
C2D N1D 1_555 1_555
C2B N1B 1_555 1_555
C2E N1E 1_555 1_555
H2C C2C 1_555 1_555
H2A C2A 1_555 1_555
H2D C2D 1_555 1_555
H2B C2B 1_555 1_555
H2E C2E 1_555 1_555
H3C C2C 1_555 1_555
H3A C2A 1_555 1_555
H3D C2D 1_555 1_555
H3B C2B 1_555 1_555
H3E C2E 1_555 1_555
C3C C3 1_555 1_555
C3A C2A 1_555 1_555
C3D C2D 1_555 1_555
C3B C2B 1_555 1_555
C3E C2E 1_555 1_555
H4C C3C 1_555 1_555
H4A C3A 1_555 1_555
H4D C3D 1_555 1_555
H4B C3B 1_555 1_555
H4E C3E 1_555 1_555
H5C C3C 1_555 1_555
H5A C3A 1_555 1_555
H5D C3D 1_555 1_555
H5B C3B 1_555 1_555
H5E C3E 1_555 1_555
F1A P1 1_555 1_555
F1B P1 1_555 1_555
F2A P1 1_555 1_555
F2B P1 1_555 1_555
O1D C4 1_555 1_555
O1A C4 1_555 1_555
O1E C4 1_555 1_555
O1B C4 1_555 1_555
O1C C4 1_555 1_555
O1 O1E 1_555 1_555
N4A C1A 1_555 1_555
N4B C1B 1_555 1_555
C2C C3C 1_555 1_555
C3A C3D 1_555 1_555
C3B C3E 1_555 1_555
O1D O1B 1_555 1_555
O1A O1E 1_555 1_555
O1A O1C 1_555 1_555
O1B O1C 1_555 1_555

#END
