
#######################################################################
#
#                 Cambridge Crystallographic Data Centre
#                                CCDC 
#
#######################################################################
#
# If this CIF has been generated from an entry in the Cambridge 
# Structural Database, then it will include bibliographic, chemical, 
# crystal, experimental, refinement or atomic coordinate data resulting 
# from the CCDC's data processing and validation procedures.
#
#######################################################################

data_EQUCUO10
_symmetry_cell_setting           trigonal
_symmetry_space_group_name_H-M   'P -3'
_symmetry_Int_Tables_number      147
_space_group_name_Hall           '-P 3'
loop_
_symmetry_equiv_pos_site_id
_symmetry_equiv_pos_as_xyz
1 x,y,z
2 -y,x-y,z
3 -x+y,-x,z
4 -x,-y,-z
5 y,-x+y,-z
6 x-y,x,-z
_cell_length_a                   10.963(2)
_cell_length_b                   10.963(2)
_cell_length_c                   8.6978(16)
_cell_angle_alpha                90
_cell_angle_beta                 90
_cell_angle_gamma                120
_cell_volume                     905.313
loop_
_atom_site_label
_atom_site_type_symbol
_atom_site_fract_x
_atom_site_fract_y
_atom_site_fract_z
P1 P 0.3333 0.6667 0.11599(6)
F1 F 0.29019(9) 0.53189(8) 0.22298(10)
F2 F 0.19808(10) 0.57361(11) 0.01120(11)
F1A F 0.46811(8) 0.75830(12) 0.22298(10)
F1B F 0.24170(12) 0.70981(9) 0.22298(10)
F2A F 0.42639(11) 0.62447(15) 0.01120(11)
F2B F 0.37553(15) 0.80192(10) 0.01120(11)
C4 C 0.0000 0.0000 0.5000
O1 O 0.1473(12) 0.0799(13) 0.5118(12)
O1D O 0.0799(13) -0.0674(18) 0.4882(12)
O1A O -0.0799(13) 0.0674(18) 0.5118(12)
O1E O 0.0674(18) 0.1473(12) 0.4882(12)
O1B O -0.0674(18) -0.1473(12) 0.5118(12)
O1C O -0.1473(12) -0.0799(13) 0.4882(12)
Fe1 Fe 0.0000 0.0000 0.0000
N1 N 0.35619(10) 0.07981(10) 0.23989(11)
N2 N 0.35248(11) 0.19887(11) 0.26571(13)
N3 N 0.24079(11) 0.18454(11) 0.19842(12)
N4 N 0.17046(9) 0.05636(10) 0.12868(10)
C1 C 0.24418(12) -0.00691(12) 0.15630(13)
H1 H 0.2212 -0.0983 0.1224
C2 C 0.47108(12) 0.06264(13) 0.30278(13)
H2 H 0.5593 0.1549 0.3030
H3 H 0.4857 -0.0023 0.2364
C3 C 0.43810(12) 0.00449(13) 0.46590(13)
H4 H 0.3533 -0.0904 0.4649
H5 H 0.4178 0.0663 0.5309
Fe1_2 Fe 1.0000 0.0000 1.0000
Fe1_3 Fe 0.0000 1.0000 1.0000
Fe1_4 Fe -1.0000 -1.0000 1.0000
N1C N 0.64381(10) -0.07981(10) 0.76011(11)
N1A N -0.07981(10) 0.27638(14) 0.23989(11)
N1D N 0.07981(10) 0.72362(14) 0.76011(11)
N1B N -0.27638(14) -0.35619(10) 0.23989(11)
N1E N -0.72362(14) -0.64381(10) 0.76011(11)
N2C N 0.64752(11) -0.19887(11) 0.73429(13)
N2A N -0.19887(11) 0.15361(16) 0.26571(13)
N2D N 0.19887(11) 0.84639(16) 0.73429(13)
N2B N -0.15361(16) -0.35248(11) 0.26571(13)
N2E N -0.84639(16) -0.64752(11) 0.73429(13)
N3C N 0.75921(11) -0.18454(11) 0.80158(12)
N3A N -0.18454(11) 0.05625(16) 0.19842(12)
N3D N 0.18454(11) 0.94375(16) 0.80158(12)
N3B N -0.05625(16) -0.24079(11) 0.19842(12)
N3E N -0.94375(16) -0.75921(11) 0.80158(12)
N4C N 0.82954(9) -0.05636(10) 0.87132(10)
N4A N -0.05636(10) 0.11410(13) 0.12868(10)
N4D N 0.05636(10) 0.88590(13) 0.87132(10)
N4B N -0.11410(13) -0.17046(9) 0.12868(10)
N4E N -0.88590(13) -0.82954(9) 0.87132(10)
N4C_2 N -0.17046(9) -0.05636(10) -0.12868(10)
N4D_2 N 0.05636(10) -0.11410(13) -0.12868(10)
N4E_2 N 0.11410(13) 0.17046(9) -0.12868(10)
C1C C 0.75582(12) 0.00691(12) 0.84370(13)
C1A C 0.00691(12) 0.25109(17) 0.15630(13)
C1D C -0.00691(12) 0.74891(17) 0.84370(13)
C1B C -0.25109(17) -0.24418(12) 0.15630(13)
C1E C -0.74891(17) -0.75582(12) 0.84370(13)
H1C H 0.7788 0.0983 0.8776
H1A H 0.0983 0.3195 0.1224
H1D H -0.0983 0.6805 0.8776
H1B H -0.3195 -0.2212 0.1224
H1E H -0.6805 -0.7788 0.8776
C2C C 0.52892(12) -0.06264(13) 0.69722(13)
C2A C -0.06264(13) 0.40844(18) 0.30278(13)
C2D C 0.06264(13) 0.59156(18) 0.69722(13)
C2B C -0.40844(18) -0.47108(12) 0.30278(13)
C2E C -0.59156(18) -0.52892(12) 0.69722(13)
H2C H 0.4407 -0.1549 0.6970
H2A H -0.1549 0.4044 0.3030
H2D H 0.1549 0.5956 0.6970
H2B H -0.4044 -0.5593 0.3030
H2E H -0.5956 -0.4407 0.6970
H3C H 0.5143 0.0023 0.7636
H3A H 0.0023 0.4880 0.2364
H3D H -0.0023 0.5120 0.7636
H3B H -0.4880 -0.4857 0.2364
H3E H -0.5120 -0.5143 0.7636
C3C C 0.56190(12) -0.00449(13) 0.53410(13)
C3A C -0.00449(13) 0.43361(18) 0.46590(13)
C3D C 0.00449(13) 0.56639(18) 0.53410(13)
C3B C -0.43361(18) -0.43810(12) 0.46590(13)
C3E C -0.56639(18) -0.56190(12) 0.53410(13)
H4C H 0.6467 0.0904 0.5351
H4A H 0.0904 0.4437 0.4649
H4D H -0.0904 0.5563 0.5351
H4B H -0.4437 -0.3533 0.4649
H4E H -0.5563 -0.6467 0.5351
H5C H 0.5822 -0.0663 0.4691
H5A H -0.0663 0.3515 0.5309
H5D H 0.0663 0.6485 0.4691
H5B H -0.3515 -0.4178 0.5309
H5E H -0.6485 -0.5822 0.4691
loop_
_geom_bond_atom_site_label_1
_geom_bond_atom_site_label_2
_geom_bond_site_symmetry_1
_geom_bond_site_symmetry_2
Fe1 N4 1_555 1_555
N1 N2 1_555 1_555
N2 N3 1_555 1_555
N3 N4 1_555 1_555
N4 C1 1_555 1_555
C1 N1 1_555 1_555
H1 C1 1_555 1_555
C2 N1 1_555 1_555
H2 C2 1_555 1_555
H3 C2 1_555 1_555
C3 C2 1_555 1_555
H4 C3 1_555 1_555
H5 C3 1_555 1_555
P1 F1 1_555 1_555
F2 P1 1_555 1_555
C4 O1 1_555 1_555
O1 O1D 1_555 1_555
Fe1_2 N4C 1_555 1_555
Fe1_3 N4D 1_555 1_555
Fe1_4 N4E 1_555 1_555
N1C N2C 1_555 1_555
N1A N2A 1_555 1_555
N1D N2D 1_555 1_555
N1B N2B 1_555 1_555
N1E N2E 1_555 1_555
N2C N3C 1_555 1_555
N2A N3A 1_555 1_555
N2D N3D 1_555 1_555
N2B N3B 1_555 1_555
N2E N3E 1_555 1_555
N3C N4C 1_555 1_555
N3A N4A 1_555 1_555
N3D N4D 1_555 1_555
N3B N4B 1_555 1_555
N3E N4E 1_555 1_555
N4C C1C 1_555 1_555
N4A Fe1 1_555 1_555
N4D C1D 1_555 1_555
N4B Fe1 1_555 1_555
N4E C1E 1_555 1_555
N4C_2 Fe1 1_555 1_555
N4D_2 Fe1 1_555 1_555
N4E_2 Fe1 1_555 1_555
C1C N1C 1_555 1_555
C1A N1A 1_555 1_555
C1D N1D 1_555 1_555
C1B N1B 1_555 1_555
C1E N1E 1_555 1_555
H1C C1C 1_555 1_555
H1A C1A 1_555 1_555
H1D C1D 1_555 1_555
H1B C1B 1_555 1_555
H1E C1E 1_555 1_555
C2C N1C 1_555 1_555
C2A N1A 1_555 1_555
C2D N1D 1_555 1_555
C2B N1B 1_555 1_555
C2E N1E 1_555 1_555
H2C C2C 1_555 1_555
H2A C2A 1_555 1_555
H2D C2D 1_555 1_555
H2B C2B 1_555 1_555
H2E C2E 1_555 1_555
H3C C2C 1_555 1_555
H3A C2A 1_555 1_555
H3D C2D 1_555 1_555
H3B C2B 1_555 1_555
H3E C2E 1_555 1_555
C3C C3 1_555 1_555
C3A C2A 1_555 1_555
C3D C2D 1_555 1_555
C3B C2B 1_555 1_555
C3E C2E 1_555 1_555
H4C C3C 1_555 1_555
H4A C3A 1_555 1_555
H4D C3D 1_555 1_555
H4B C3B 1_555 1_555
H4E C3E 1_555 1_555
H5C C3C 1_555 1_555
H5A C3A 1_555 1_555
H5D C3D 1_555 1_555
H5B C3B 1_555 1_555
H5E C3E 1_555 1_555
F1A P1 1_555 1_555
F1B P1 1_555 1_555
F2A P1 1_555 1_555
F2B P1 1_555 1_555
O1D C4 1_555 1_555
O1A C4 1_555 1_555
O1E C4 1_555 1_555
O1B C4 1_555 1_555
O1C C4 1_555 1_555
O1 O1E 1_555 1_555
N4A C1A 1_555 1_555
N4B C1B 1_555 1_555
C2C C3C 1_555 1_555
C3A C3D 1_555 1_555
C3B C3E 1_555 1_555
O1D O1B 1_555 1_555
O1A O1E 1_555 1_555
O1A O1C 1_555 1_555
O1B O1C 1_555 1_555

#END
