
#######################################################################
#
#                 Cambridge Crystallographic Data Centre
#                                CCDC 
#
#######################################################################
#
# If this CIF has been generated from an entry in the Cambridge 
# Structural Database, then it will include bibliographic, chemical, 
# crystal, experimental, refinement or atomic coordinate data resulting 
# from the CCDC's data processing and validation procedures.
#
#######################################################################

data_EQUCUO
_symmetry_cell_setting           trigonal
_symmetry_space_group_name_H-M   'P -3'
_symmetry_Int_Tables_number      147
_space_group_name_Hall           '-P 3'
loop_
_symmetry_equiv_pos_site_id
_symmetry_equiv_pos_as_xyz
1 x,y,z
2 -y,x-y,z
3 -x+y,-x,z
4 -x,-y,-z
5 y,-x+y,-z
6 x-y,x,-z
_cell_length_a                   10.989(3)
_cell_length_b                   10.989(3)
_cell_length_c                   8.702(2)
_cell_angle_alpha                90
_cell_angle_beta                 90
_cell_angle_gamma                120
_cell_volume                     910.052
loop_
_atom_site_label
_atom_site_type_symbol
_atom_site_fract_x
_atom_site_fract_y
_atom_site_fract_z
P1 P 0.3333 0.6667 0.11586(7)
F1 F 0.29058(10) 0.53202(9) 0.22292(11)
F2 F 0.19825(11) 0.57333(12) 0.01073(12)
F1A F 0.46798(9) 0.75856(13) 0.22292(11)
F1B F 0.24144(13) 0.70942(10) 0.22292(11)
F2A F 0.42667(12) 0.62492(16) 0.01073(12)
F2B F 0.37508(16) 0.80175(11) 0.01073(12)
O1 O 0.0000 0.0000 0.5000
Fe1 Fe 0.0000 0.0000 0.0000
N1 N 0.35612(11) 0.07990(11) 0.23995(12)
N2 N 0.35160(13) 0.19843(13) 0.26656(14)
N3 N 0.23987(12) 0.18410(12) 0.19941(14)
N4 N 0.17001(11) 0.05615(11) 0.12868(12)
C1 C 0.24453(13) -0.00642(13) 0.15582(15)
H1 H 0.2221 -0.0973 0.1212
C2 C 0.47092(13) 0.06285(14) 0.30255(15)
H2 H 0.5588 0.1550 0.3030
H3 H 0.4856 -0.0017 0.2359
C3 C 0.43796(14) 0.00429(15) 0.46577(15)
H4 H 0.3536 -0.0906 0.4645
H5 H 0.4172 0.0656 0.5310
C3C C 0.56204(14) -0.00429(15) 0.53423(15)
C2C C 0.52908(13) -0.06285(14) 0.69745(15)
N1C N 0.64388(11) -0.07990(11) 0.76005(12)
N2C N 0.64840(13) -0.19843(13) 0.73344(14)
N3C N 0.76013(12) -0.18410(12) 0.80059(14)
N4C N 0.82999(11) -0.05615(11) 0.87132(12)
C1C C 0.75547(13) 0.00642(13) 0.84418(15)
H1C H 0.7779 0.0973 0.8788
H2C H 0.4412 -0.1550 0.6970
H3C H 0.5144 0.0017 0.7641
H4C H 0.6464 0.0906 0.5355
H5C H 0.5828 -0.0656 0.4690
N1A N -0.07990(11) 0.27622(16) 0.23995(12)
N2A N -0.19843(13) 0.15317(18) 0.26656(14)
N3A N -0.18410(12) 0.05577(17) 0.19941(14)
N4A N -0.05615(11) 0.11386(16) 0.12868(12)
C1A C 0.00642(13) 0.25095(18) 0.15582(15)
H1A H 0.0973 0.3194 0.1212
C2A C -0.06285(14) 0.40807(19) 0.30255(15)
H2A H -0.1550 0.4038 0.3030
H3A H 0.0017 0.4873 0.2359
C3A C -0.00429(15) 0.43367(21) 0.46577(15)
H4A H 0.0906 0.4442 0.4645
H5A H -0.0656 0.3516 0.5310
C3D C 0.00429(15) 0.56633(21) 0.53423(15)
C2D C 0.06285(14) 0.59193(19) 0.69745(15)
N1D N 0.07990(11) 0.72378(16) 0.76005(12)
N2D N 0.19843(13) 0.84683(18) 0.73344(14)
N3D N 0.18410(12) 0.94423(17) 0.80059(14)
N4D N 0.05615(11) 0.88614(16) 0.87132(12)
C1D C -0.00642(13) 0.74905(18) 0.84418(15)
H1D H -0.0973 0.6806 0.8788
H2D H 0.1550 0.5962 0.6970
H3D H -0.0017 0.5127 0.7641
H4D H -0.0906 0.5558 0.5355
H5D H 0.0656 0.6484 0.4690
N1B N -0.27622(16) -0.35612(11) 0.23995(12)
N2B N -0.15317(18) -0.35160(13) 0.26656(14)
N3B N -0.05577(17) -0.23987(12) 0.19941(14)
N4B N -0.11386(16) -0.17001(11) 0.12868(12)
C1B C -0.25095(18) -0.24453(13) 0.15582(15)
H1B H -0.3194 -0.2221 0.1212
C2B C -0.40807(19) -0.47092(13) 0.30255(15)
H2B H -0.4038 -0.5588 0.3030
H3B H -0.4873 -0.4856 0.2359
C3B C -0.43367(21) -0.43796(14) 0.46577(15)
H4B H -0.4442 -0.3536 0.4645
H5B H -0.3516 -0.4172 0.5310
C3E C -0.56633(21) -0.56204(14) 0.53423(15)
C2E C -0.59193(19) -0.52908(13) 0.69745(15)
N1E N -0.72378(16) -0.64388(11) 0.76005(12)
N2E N -0.84683(18) -0.64840(13) 0.73344(14)
N3E N -0.94423(17) -0.76013(12) 0.80059(14)
N4E N -0.88614(16) -0.82999(11) 0.87132(12)
C1E C -0.74905(18) -0.75547(13) 0.84418(15)
H1E H -0.6806 -0.7779 0.8788
H2E H -0.5962 -0.4412 0.6970
H3E H -0.5127 -0.5144 0.7641
H4E H -0.5558 -0.6464 0.5355
H5E H -0.6484 -0.5828 0.4690
N4C_2 N -0.17001(11) -0.05615(11) -0.12868(12)
N4D_2 N 0.05615(11) -0.11386(16) -0.12868(12)
N4E_2 N 0.11386(16) 0.17001(11) -0.12868(12)
Fe1_2 Fe 1.0000 0.0000 1.0000
Fe1_3 Fe 0.0000 1.0000 1.0000
Fe1_4 Fe -1.0000 -1.0000 1.0000
O2? O 0.148(2) 0.0829(19) 0.5095(18)
O3? O 0.0000 0.0000 0.57(2)
loop_
_geom_bond_atom_site_label_1
_geom_bond_atom_site_label_2
_geom_bond_site_symmetry_1
_geom_bond_site_symmetry_2
Fe1 N4 1_555 1_555
N1 N2 1_555 1_555
N2 N3 1_555 1_555
N3 N4 1_555 1_555
N4 C1 1_555 1_555
C1 N1 1_555 1_555
H1 C1 1_555 1_555
C2 N1 1_555 1_555
H2 C2 1_555 1_555
H3 C2 1_555 1_555
C3 C2 1_555 1_555
H4 C3 1_555 1_555
H5 C3 1_555 1_555
P1 F1 1_555 1_555
F2 P1 1_555 1_555
C3C C3 1_555 1_555
C2C C3C 1_555 1_555
N1C C2C 1_555 1_555
N2C N1C 1_555 1_555
N3C N2C 1_555 1_555
N4C N3C 1_555 1_555
C1C N1C 1_555 1_555
H1C C1C 1_555 1_555
H2C C2C 1_555 1_555
H3C C2C 1_555 1_555
H4C C3C 1_555 1_555
H5C C3C 1_555 1_555
F1A P1 1_555 1_555
F1B P1 1_555 1_555
F2A P1 1_555 1_555
F2B P1 1_555 1_555
N1A N2A 1_555 1_555
N2A N3A 1_555 1_555
N3A N4A 1_555 1_555
N4A Fe1 1_555 1_555
C1A N1A 1_555 1_555
H1A C1A 1_555 1_555
C2A N1A 1_555 1_555
H2A C2A 1_555 1_555
H3A C2A 1_555 1_555
C3A C2A 1_555 1_555
H4A C3A 1_555 1_555
H5A C3A 1_555 1_555
C3D C3A 1_555 1_555
C2D C3D 1_555 1_555
N1D C2D 1_555 1_555
N2D N1D 1_555 1_555
N3D N2D 1_555 1_555
N4D N3D 1_555 1_555
C1D N1D 1_555 1_555
H1D C1D 1_555 1_555
H2D C2D 1_555 1_555
H3D C2D 1_555 1_555
H4D C3D 1_555 1_555
H5D C3D 1_555 1_555
N1B N2B 1_555 1_555
N2B N3B 1_555 1_555
N3B N4B 1_555 1_555
N4B Fe1 1_555 1_555
C1B N1B 1_555 1_555
H1B C1B 1_555 1_555
C2B N1B 1_555 1_555
H2B C2B 1_555 1_555
H3B C2B 1_555 1_555
C3B C2B 1_555 1_555
H4B C3B 1_555 1_555
H5B C3B 1_555 1_555
C3E C3B 1_555 1_555
C2E C3E 1_555 1_555
N1E C2E 1_555 1_555
N2E N1E 1_555 1_555
N3E N2E 1_555 1_555
N4E N3E 1_555 1_555
C1E N1E 1_555 1_555
H1E C1E 1_555 1_555
H2E C2E 1_555 1_555
H3E C2E 1_555 1_555
H4E C3E 1_555 1_555
H5E C3E 1_555 1_555
N4C_2 Fe1 1_555 1_555
N4D_2 Fe1 1_555 1_555
N4E_2 Fe1 1_555 1_555
Fe1_2 N4C 1_555 1_555
Fe1_3 N4D 1_555 1_555
Fe1_4 N4E 1_555 1_555
N4C C1C 1_555 1_555
N4A C1A 1_555 1_555
N4D C1D 1_555 1_555
N4B C1B 1_555 1_555
N4E C1E 1_555 1_555

#END
