
#######################################################################
#
#                 Cambridge Crystallographic Data Centre
#                                CCDC 
#
#######################################################################
#
# If this CIF has been generated from an entry in the Cambridge 
# Structural Database, then it will include bibliographic, chemical, 
# crystal, experimental, refinement or atomic coordinate data resulting 
# from the CCDC's data processing and validation procedures.
#
#######################################################################

data_EQUFAY
_symmetry_cell_setting           triclinic
_symmetry_space_group_name_H-M   'P -1'
_symmetry_Int_Tables_number      2
_space_group_name_Hall           '-P 1'
loop_
_symmetry_equiv_pos_site_id
_symmetry_equiv_pos_as_xyz
1 x,y,z
2 -x,-y,-z
_cell_length_a                   9.1700(8)
_cell_length_b                   12.5805(11)
_cell_length_c                   19.3814(17)
_cell_angle_alpha                76.431(2)
_cell_angle_beta                 81.763(2)
_cell_angle_gamma                75.643(2)
_cell_volume                     2097
loop_
_atom_site_label
_atom_site_type_symbol
_atom_site_fract_x
_atom_site_fract_y
_atom_site_fract_z
Mn1 Mn 0.38045(17) -0.33494(12) 0.27835(8)
O1 O 0.1424(8) -0.2613(5) 0.2808(4)
O2 O -0.0884(8) -0.2900(6) 0.3154(4)
N1 N 0.5571(10) -0.4594(7) 0.3514(5)
N2 N 0.2611(9) -0.4811(7) 0.3288(4)
N3 N 0.4080(12) -0.2501(8) 0.3639(5)
N4 N 0.4203(10) -0.4442(7) 0.1981(4)
C1 C 0.6321(14) -0.3946(10) 0.3822(6)
H1 H 0.7204 -0.3778 0.3493
H2 H 0.6703 -0.4410 0.4275
C2 C 0.5341(15) -0.2885(11) 0.3963(6)
C3 C 0.5789(18) -0.2299(12) 0.4378(7)
H3 H 0.6691 -0.2588 0.4612
C4 C 0.4869(19) -0.1275(13) 0.4441(7)
H4 H 0.5183 -0.0835 0.4704
C5 C 0.3540(19) -0.0864(12) 0.4145(8)
H5 H 0.2886 -0.0181 0.4226
C6 C 0.3169(17) -0.1502(11) 0.3709(7)
H6 H 0.2278 -0.1226 0.3466
C7 C 0.6699(14) -0.5402(10) 0.3168(7)
H7 H 0.7385 -0.5888 0.3515
H8 H 0.7278 -0.4998 0.2774
H9 H 0.6187 -0.5861 0.2983
C8 C 0.4640(12) -0.5207(9) 0.4091(6)
H10 H 0.4039 -0.4688 0.4392
H11 H 0.5313 -0.5821 0.4396
C9 C 0.3603(12) -0.5686(9) 0.3785(6)
H12 H 0.4211 -0.6263 0.3526
H13 H 0.2965 -0.6056 0.4177
C10 C 0.2250(12) -0.5258(9) 0.2708(5)
H14 H 0.1304 -0.4779 0.2517
H15 H 0.2081 -0.6023 0.2901
C11 C 0.3503(12) -0.5294(9) 0.2116(6)
C12 C 0.3836(13) -0.6097(9) 0.1710(6)
H16 H 0.3343 -0.6706 0.1825
C13 C 0.4910(14) -0.6005(10) 0.1126(6)
H17 H 0.5165 -0.6557 0.0842
C14 C 0.5588(15) -0.5127(10) 0.0966(6)
H18 H 0.6303 -0.5042 0.0562
C15 C 0.5220(13) -0.4358(10) 0.1401(6)
H19 H 0.5700 -0.3743 0.1290
C16 C 0.1185(12) -0.4282(8) 0.3656(6)
H20 H 0.1389 -0.4142 0.4111
H21 H 0.0473 -0.4788 0.3764
C17 C 0.0496(13) -0.3182(8) 0.3177(5)
Mn2 Mn -0.16030(18) -0.15841(13) 0.22812(8)
O3 O -0.3524(8) -0.2295(5) 0.2294(4)
O4 O -0.5802(8) -0.2013(5) 0.1937(4)
N5 N -0.0171(11) -0.0488(9) 0.1486(5)
N6 N -0.3446(10) -0.0123(7) 0.1750(4)
N7 N -0.0396(11) -0.2604(9) 0.1475(5)
N8 N -0.2348(11) -0.0363(7) 0.3028(5)
C18 C 0.1119(14) -0.1243(12) 0.1180(7)
H22 H 0.1951 -0.1441 0.1493
H23 H 0.1481 -0.0835 0.0710
C19 C 0.0788(15) -0.2283(12) 0.1087(7)
C20 C 0.1737(17) -0.2928(14) 0.0628(7)
H24 H 0.2576 -0.2690 0.0342
C21 C 0.1387(19) -0.3919(15) 0.0614(8)
H25 H 0.2034 -0.4398 0.0330
C22 C 0.0156(17) -0.4242(13) 0.0990(7)
H26 H -0.0110 -0.4911 0.0956
C23 C -0.0695(15) -0.3550(12) 0.1425(7)
H27 H -0.1550 -0.3771 0.1706
C24 C 0.0343(17) 0.0285(13) 0.1791(7)
H28 H 0.0936 0.0722 0.1422
H29 H 0.0975 -0.0137 0.2177
H30 H -0.0531 0.0794 0.1981
C25 C -0.1204(12) 0.0130(9) 0.0930(6)
H31 H -0.1338 -0.0401 0.0652
H32 H -0.0729 0.0703 0.0599
C26 C -0.2716(13) 0.0691(9) 0.1219(6)
H33 H -0.2605 0.1290 0.1447
H34 H -0.3367 0.1044 0.0824
C27 C -0.4418(13) 0.0394(9) 0.2308(6)
H35 H -0.5171 -0.0058 0.2531
H36 H -0.4970 0.1155 0.2094
C28 C -0.3484(14) 0.0466(9) 0.2871(6)
C29 C -0.3882(16) 0.1332(10) 0.3223(6)
H37 H -0.4725 0.1929 0.3097
C30 C -0.3050(17) 0.1335(11) 0.3764(7)
H38 H -0.3293 0.1942 0.4003
C31 C -0.1877(16) 0.0452(10) 0.3945(6)
H39 H -0.1294 0.0423 0.4320
C32 C -0.1549(15) -0.0412(10) 0.3569(6)
H40 H -0.0749 -0.1044 0.3697
C33 C -0.4318(12) -0.0671(8) 0.1405(5)
H41 H -0.3747 -0.0858 0.0960
H42 H -0.5298 -0.0157 0.1285
C34 C -0.4587(13) -0.1736(9) 0.1922(6)
Mn1_2 Mn -0.61955(17) -0.33494(12) 0.27835(8)
O4_2 O 0.4198(8) -0.2013(5) 0.1937(4)
Cl1 Cl -0.0157(5) -0.7307(3) 0.46816(18)
O5 O -0.0014(19) -0.8444(7) 0.4867(7)
O6 O 0.0636(11) -0.6876(10) 0.5069(6)
O7 O -0.1758(10) -0.6846(14) 0.4865(7)
O8 O 0.0074(13) -0.6889(9) 0.3954(4)
Cl2 Cl 0.7089(4) -0.2299(2) -0.03204(16)
O9 O 0.7900(10) -0.1648(7) -0.0098(5)
O10 O 0.6772(10) -0.1864(7) -0.1035(4)
O11 O 0.7840(13) -0.3430(6) -0.0230(7)
O12 O 0.5659(10) -0.2230(9) 0.0093(5)
O13 O 0.254(4) -0.812(3) 0.3183(17)
O14 O 0.085(4) -0.771(3) 0.2657(17)
O16 O -0.100(3) -0.675(2) 0.1583(16)
O15? O 0.177(4) -0.838(3) 0.2891(19)
loop_
_geom_bond_atom_site_label_1
_geom_bond_atom_site_label_2
_geom_bond_site_symmetry_1
_geom_bond_site_symmetry_2
Mn1 O1 1_555 1_555
O1 C17 1_555 1_555
O2 C17 1_555 1_555
N1 Mn1 1_555 1_555
N2 Mn1 1_555 1_555
N3 Mn1 1_555 1_555
N4 Mn1 1_555 1_555
C1 N1 1_555 1_555
H1 C1 1_555 1_555
H2 C1 1_555 1_555
C2 N3 1_555 1_555
C3 C2 1_555 1_555
H3 C3 1_555 1_555
C4 C3 1_555 1_555
H4 C4 1_555 1_555
C5 C4 1_555 1_555
H5 C5 1_555 1_555
C6 N3 1_555 1_555
H6 C6 1_555 1_555
C7 N1 1_555 1_555
H7 C7 1_555 1_555
H8 C7 1_555 1_555
H9 C7 1_555 1_555
C8 N1 1_555 1_555
H10 C8 1_555 1_555
H11 C8 1_555 1_555
C9 N2 1_555 1_555
H12 C9 1_555 1_555
H13 C9 1_555 1_555
C10 N2 1_555 1_555
H14 C10 1_555 1_555
H15 C10 1_555 1_555
C11 N4 1_555 1_555
C12 C11 1_555 1_555
H16 C12 1_555 1_555
C13 C12 1_555 1_555
H17 C13 1_555 1_555
C14 C13 1_555 1_555
H18 C14 1_555 1_555
C15 N4 1_555 1_555
H19 C15 1_555 1_555
C16 N2 1_555 1_555
H20 C16 1_555 1_555
H21 C16 1_555 1_555
C17 C16 1_555 1_555
Mn2 O2 1_555 1_555
O3 Mn2 1_555 1_555
O4 C34 1_555 1_555
N5 Mn2 1_555 1_555
N6 Mn2 1_555 1_555
N7 Mn2 1_555 1_555
N8 Mn2 1_555 1_555
C18 N5 1_555 1_555
H22 C18 1_555 1_555
H23 C18 1_555 1_555
C19 N7 1_555 1_555
C20 C19 1_555 1_555
H24 C20 1_555 1_555
C21 C20 1_555 1_555
H25 C21 1_555 1_555
C22 C21 1_555 1_555
H26 C22 1_555 1_555
C23 N7 1_555 1_555
H27 C23 1_555 1_555
C24 N5 1_555 1_555
H28 C24 1_555 1_555
H29 C24 1_555 1_555
H30 C24 1_555 1_555
C25 N5 1_555 1_555
H31 C25 1_555 1_555
H32 C25 1_555 1_555
C26 N6 1_555 1_555
H33 C26 1_555 1_555
H34 C26 1_555 1_555
C27 N6 1_555 1_555
H35 C27 1_555 1_555
H36 C27 1_555 1_555
C28 N8 1_555 1_555
C29 C28 1_555 1_555
H37 C29 1_555 1_555
C30 C29 1_555 1_555
H38 C30 1_555 1_555
C31 C30 1_555 1_555
H39 C31 1_555 1_555
C32 N8 1_555 1_555
H40 C32 1_555 1_555
C33 N6 1_555 1_555
H41 C33 1_555 1_555
H42 C33 1_555 1_555
C34 O3 1_555 1_555
Cl1 O5 1_555 1_555
O6 Cl1 1_555 1_555
O7 Cl1 1_555 1_555
O8 Cl1 1_555 1_555
Cl2 O9 1_555 1_555
O10 Cl2 1_555 1_555
O11 Cl2 1_555 1_555
O12 Cl2 1_555 1_555
Mn1_2 O4 1_555 1_555
O4_2 Mn1 1_555 1_555
C1 C2 1_555 1_555
C5 C6 1_555 1_555
C8 C9 1_555 1_555
C10 C11 1_555 1_555
C14 C15 1_555 1_555
C18 C19 1_555 1_555
C22 C23 1_555 1_555
C25 C26 1_555 1_555
C27 C28 1_555 1_555
C31 C32 1_555 1_555
C33 C34 1_555 1_555

#END
