
#######################################################################
#
#                 Cambridge Crystallographic Data Centre
#                                CCDC 
#
#######################################################################
#
# If this CIF has been generated from an entry in the Cambridge 
# Structural Database, then it will include bibliographic, chemical, 
# crystal, experimental, refinement or atomic coordinate data resulting 
# from the CCDC's data processing and validation procedures.
#
#######################################################################

data_EQUGUS
_symmetry_cell_setting           monoclinic
_symmetry_space_group_name_H-M   'P 21/n'
_symmetry_Int_Tables_number      14
_space_group_name_Hall           '-P 2yn'
loop_
_symmetry_equiv_pos_site_id
_symmetry_equiv_pos_as_xyz
1 x,y,z
2 1/2+x,1/2-y,1/2+z
3 -x,-y,-z
4 1/2-x,1/2+y,1/2-z
_cell_length_a                   9.726(4)
_cell_length_b                   15.656(6)
_cell_length_c                   9.988(4)
_cell_angle_alpha                90
_cell_angle_beta                 110.665(6)
_cell_angle_gamma                90
_cell_volume                     1423.02
loop_
_atom_site_label
_atom_site_type_symbol
_atom_site_fract_x
_atom_site_fract_y
_atom_site_fract_z
Cd1 Cd 0.93016(3) 0.040595(16) 0.31541(3)
Cd2 Cd 1.0000 0.0000 0.0000
Cl1 Cl 0.76880(11) -0.02852(6) 0.07341(9)
Cl2 Cl 1.16814(11) -0.01798(6) 0.27328(10)
Cl3 Cl 1.09416(11) 0.10261(6) 0.55902(9)
O1 O 0.7442(3) 0.09722(16) 0.3837(3)
H1 H 0.6561 0.0832 0.3384
H2 H 0.7767 0.0804 0.4698
N1 N 0.9420(4) 0.36740(18) 0.0451(3)
H3 H 0.9517 0.3847 -0.0328
H4 H 0.9281 0.4038 0.1036
N2 N 0.9488(3) 0.27980(17) 0.0769(3)
N3 N 0.9471(3) 0.15864(17) 0.1810(3)
N4 N 0.9701(3) 0.14324(17) 0.0529(3)
C1 C 0.9347(4) 0.2413(2) 0.1943(4)
C2 C 0.9703(4) 0.2172(2) -0.0083(4)
C3 C 0.9166(4) 0.2873(2) 0.3183(4)
H5 H 0.8734 0.2487 0.3684
H6 H 0.8494 0.3347 0.2828
C4 C 1.0607(5) 0.3208(3) 0.4223(4)
H7 H 1.0435 0.3495 0.5000
H8 H 1.1028 0.3603 0.3739
H9 H 1.1273 0.2741 0.4590
C5 C 0.9881(4) 0.2327(2) -0.1481(4)
H10 H 1.0291 0.1821 -0.1755
H11 H 1.0572 0.2792 -0.1375
C6 C 0.8437(5) 0.2550(3) -0.2669(4)
H12 H 0.8611 0.2640 -0.3547
H13 H 0.8040 0.3062 -0.2418
H14 H 0.7752 0.2090 -0.2789
Cl1B Cl 1.23120(11) 0.02852(6) -0.07341(9)
Cl2B Cl 0.83186(11) 0.01798(6) -0.27328(10)
N1B N 1.0580(4) -0.36740(18) -0.0451(3)
H3B H 1.0483 -0.3847 0.0328
H4B H 1.0719 -0.4038 -0.1036
N2B N 1.0512(3) -0.27980(17) -0.0769(3)
N3B N 1.0529(3) -0.15864(17) -0.1810(3)
N4B N 1.0299(3) -0.14324(17) -0.0529(3)
C1B C 1.0653(4) -0.2413(2) -0.1943(4)
C2B C 1.0297(4) -0.2172(2) 0.0083(4)
C3B C 1.0834(4) -0.2873(2) -0.3183(4)
H5B H 1.1266 -0.2487 -0.3684
H6B H 1.1506 -0.3347 -0.2828
C4B C 0.9393(5) -0.3208(3) -0.4223(4)
H7B H 0.9565 -0.3495 -0.5000
H8B H 0.8972 -0.3603 -0.3739
H9B H 0.8727 -0.2741 -0.4590
C5B C 1.0119(4) -0.2327(2) 0.1481(4)
H10B H 0.9709 -0.1821 0.1755
H11B H 0.9428 -0.2792 0.1375
C6B C 1.1563(5) -0.2550(3) 0.2669(4)
H12B H 1.1389 -0.2640 0.3547
H13B H 1.1960 -0.3062 0.2418
H14B H 1.2248 -0.2090 0.2789
Cd1B Cd 1.06984(3) -0.040595(16) -0.31541(3)
Cl3B Cl 0.90584(11) -0.10261(6) 0.44098(9)
O1B O 1.2558(3) -0.09722(16) -0.3837(3)
H1B H 1.3439 -0.0832 -0.3384
H2B H 1.2233 -0.0804 -0.4698
Cd1B_2 Cd 1.06984(3) -0.040595(16) 0.68459(3)
Cl3_2 Cl 1.09416(11) 0.10261(6) -0.44098(9)
Cl3B_2 Cl 0.90584(11) -0.10261(6) -0.55902(9)
O2 O 0.4811(4) 0.0251(2) 0.2503(4)
H15 H 0.3895 0.0343 0.2051
H16 H 0.5355 0.0399 0.2013
loop_
_geom_bond_atom_site_label_1
_geom_bond_atom_site_label_2
_geom_bond_site_symmetry_1
_geom_bond_site_symmetry_2
Cd1 Cl1 1_555 1_555
Cd2 Cl1 1_555 1_555
Cl2 Cd1 1_555 1_555
Cl3 Cd1 1_555 1_555
O1 Cd1 1_555 1_555
H1 O1 1_555 1_555
H2 O1 1_555 1_555
N1 H3 1_555 1_555
H4 N1 1_555 1_555
N2 N1 1_555 1_555
N3 Cd1 1_555 1_555
N4 Cd2 1_555 1_555
C1 N2 1_555 1_555
C2 N2 1_555 1_555
C3 C1 1_555 1_555
H5 C3 1_555 1_555
H6 C3 1_555 1_555
C4 C3 1_555 1_555
H7 C4 1_555 1_555
H8 C4 1_555 1_555
H9 C4 1_555 1_555
C5 C2 1_555 1_555
H10 C5 1_555 1_555
H11 C5 1_555 1_555
C6 C5 1_555 1_555
H12 C6 1_555 1_555
H13 C6 1_555 1_555
H14 C6 1_555 1_555
O2 H15 1_555 1_555
H16 O2 1_555 1_555
Cl1B Cd2 1_555 1_555
Cl2B Cd2 1_555 1_555
N1B H3B 1_555 1_555
H4B N1B 1_555 1_555
N2B N1B 1_555 1_555
N3B N4B 1_555 1_555
N4B Cd2 1_555 1_555
C1B N2B 1_555 1_555
C2B N2B 1_555 1_555
C3B C1B 1_555 1_555
H5B C3B 1_555 1_555
H6B C3B 1_555 1_555
C4B C3B 1_555 1_555
H7B C4B 1_555 1_555
H8B C4B 1_555 1_555
H9B C4B 1_555 1_555
C5B C2B 1_555 1_555
H10B C5B 1_555 1_555
H11B C5B 1_555 1_555
C6B C5B 1_555 1_555
H12B C6B 1_555 1_555
H13B C6B 1_555 1_555
H14B C6B 1_555 1_555
Cd1B Cl1B 1_555 1_555
Cl3B Cd1 1_555 1_555
O1B Cd1B 1_555 1_555
H1B O1B 1_555 1_555
H2B O1B 1_555 1_555
Cd1B_2 Cl3 1_555 1_555
Cl3_2 Cd1B 1_555 1_555
Cl3B_2 Cd1B 1_555 1_555
Cd2 Cl2 1_555 1_555
N3 C1 1_555 1_555
N3 N4 1_555 1_555
N4 C2 1_555 1_555
Cl2B Cd1B 1_555 1_555
N3B Cd1B 1_555 1_555
N3B C1B 1_555 1_555
N4B C2B 1_555 1_555
Cl3B Cd1B_2 1_555 1_555

#END
