
#######################################################################
#
#                 Cambridge Crystallographic Data Centre
#                                CCDC 
#
#######################################################################
#
# If this CIF has been generated from an entry in the Cambridge 
# Structural Database, then it will include bibliographic, chemical, 
# crystal, experimental, refinement or atomic coordinate data resulting 
# from the CCDC's data processing and validation procedures.
#
#######################################################################

data_EQUHED
_symmetry_cell_setting           monoclinic
_symmetry_space_group_name_H-M   'P 21/c'
_symmetry_Int_Tables_number      14
_space_group_name_Hall           '-P 2ybc'
loop_
_symmetry_equiv_pos_site_id
_symmetry_equiv_pos_as_xyz
1 x,y,z
2 x,1/2-y,1/2+z
3 -x,-y,-z
4 -x,1/2+y,1/2-z
_cell_length_a                   13.210(7)
_cell_length_b                   11.465(6)
_cell_length_c                   14.506(8)
_cell_angle_alpha                90
_cell_angle_beta                 92.743(8)
_cell_angle_gamma                90
_cell_volume                     2194.45
loop_
_atom_site_label
_atom_site_type_symbol
_atom_site_fract_x
_atom_site_fract_y
_atom_site_fract_z
Cd1 Cd 0.66120(2) 0.10426(2) 0.11688(2)
Cd2 Cd 0.81601(2) 0.36507(3) 0.02184(2)
N1 N 0.8185(3) 0.0634(3) -0.1331(3)
N2 N 0.4824(3) 0.0866(3) 0.0976(3)
N3 N 0.6559(3) 0.0388(3) 0.2657(3)
N4 N 0.9320(3) 0.4865(3) 0.0930(2)
N5 N 0.6396(2) 0.2975(3) 0.1656(2)
N6 N 0.7052(3) 0.3874(3) 0.1429(2)
N7 N 0.5963(2) 0.4541(3) 0.2364(2)
H1 H 0.5644 0.5009 0.2711
N8 N 0.8385(3) 0.1061(3) 0.1264(2)
N9 N 0.8951(3) 0.1981(3) 0.0924(2)
N10 N 0.9972(3) 0.0586(3) 0.1359(2)
H2 H 1.0519 0.0194 0.1471
S1 S 0.67620(8) 0.21094(9) -0.05137(7)
S2 S 0.32881(9) 0.11328(9) -0.04041(8)
S3 S 0.70909(12) -0.04901(11) 0.44026(9)
S4 S 1.07543(9) 0.66116(10) 0.13154(8)
C1 C 0.7614(3) 0.1227(3) -0.0984(3)
C2 C 0.4194(3) 0.0977(3) 0.0399(3)
C3 C 0.6782(3) 0.0051(3) 0.3382(3)
C4 C 0.9918(3) 0.5573(4) 0.1077(3)
C5 C 0.6775(3) 0.4812(3) 0.1871(3)
C6 C 0.7244(4) 0.5981(3) 0.1848(3)
H3 H 0.6887 0.6503 0.2236
H4 H 0.7209 0.6270 0.1226
H5 H 0.7940 0.5931 0.2066
C7 C 0.5741(3) 0.3403(3) 0.2214(3)
C8 C 0.4888(3) 0.2791(4) 0.2626(3)
H6 H 0.4537 0.3321 0.3011
H7 H 0.5144 0.2147 0.2990
H8 H 0.4430 0.2507 0.2144
C9 C 0.9904(3) 0.1675(4) 0.0989(3)
C10 C 1.0790(3) 0.2358(4) 0.0722(4)
H9 H 1.1397 0.1912 0.0846
H10 H 1.0827 0.3070 0.1070
H11 H 1.0724 0.2537 0.0075
C11 C 0.9027(3) 0.0235(4) 0.1518(3)
C12 C 0.8807(4) -0.0899(4) 0.1961(3)
H12 H 0.9426 -0.1326 0.2069
H13 H 0.8351 -0.1342 0.1562
H14 H 0.8500 -0.0762 0.2538
S2B S 0.67119(9) -0.11328(9) 0.04041(8)
S3A S 0.70909(12) 0.54901(11) -0.05974(9)
S4B S 0.92457(9) 0.33884(10) -0.13154(8)
Cd1B Cd 0.33880(2) -0.10426(2) -0.11688(2)
Cd2A Cd 0.81601(2) 0.13493(3) 0.52184(2)
Cd2B Cd 1.18399(2) 0.63493(3) -0.02184(2)
loop_
_geom_bond_atom_site_label_1
_geom_bond_atom_site_label_2
_geom_bond_site_symmetry_1
_geom_bond_site_symmetry_2
Cd1 N2 1_555 1_555
Cd2 N4 1_555 1_555
N1 C1 1_555 1_555
N2 C2 1_555 1_555
N3 Cd1 1_555 1_555
N4 C4 1_555 1_555
N5 Cd1 1_555 1_555
N6 Cd2 1_555 1_555
N7 H1 1_555 1_555
N8 Cd1 1_555 1_555
N9 Cd2 1_555 1_555
N10 H2 1_555 1_555
S1 Cd1 1_555 1_555
S2 C2 1_555 1_555
S3 C3 1_555 1_555
S4 C4 1_555 1_555
C1 S1 1_555 1_555
C3 N3 1_555 1_555
C5 N6 1_555 1_555
C6 C5 1_555 1_555
H3 C6 1_555 1_555
H4 C6 1_555 1_555
H5 C6 1_555 1_555
C7 N5 1_555 1_555
C8 C7 1_555 1_555
H6 C8 1_555 1_555
H7 C8 1_555 1_555
H8 C8 1_555 1_555
C9 N9 1_555 1_555
C10 C9 1_555 1_555
H9 C10 1_555 1_555
H10 C10 1_555 1_555
H11 C10 1_555 1_555
C11 N8 1_555 1_555
C12 C11 1_555 1_555
H12 C12 1_555 1_555
H13 C12 1_555 1_555
H14 C12 1_555 1_555
S2B Cd1 1_555 1_555
S3A Cd2 1_555 1_555
S4B Cd2 1_555 1_555
Cd1B S2 1_555 1_555
Cd2A S3 1_555 1_555
Cd2B S4 1_555 1_555
Cd2 S1 1_555 1_555
N5 N6 1_555 1_555
N7 C5 1_555 1_555
N7 C7 1_555 1_555
N8 N9 1_555 1_555
N10 C9 1_555 1_555
N10 C11 1_555 1_555

#END
