
#######################################################################
#
#                 Cambridge Crystallographic Data Centre
#                                CCDC 
#
#######################################################################
#
# If this CIF has been generated from an entry in the Cambridge 
# Structural Database, then it will include bibliographic, chemical, 
# crystal, experimental, refinement or atomic coordinate data resulting 
# from the CCDC's data processing and validation procedures.
#
#######################################################################

data_EQUWOD
_symmetry_cell_setting           monoclinic
_symmetry_space_group_name_H-M   'P 21/c'
_symmetry_Int_Tables_number      14
_space_group_name_Hall           '-P 2ybc'
loop_
_symmetry_equiv_pos_site_id
_symmetry_equiv_pos_as_xyz
1 x,y,z
2 -x,1/2+y,1/2-z
3 -x,-y,-z
4 x,1/2-y,1/2+z
_cell_length_a                   13.9008(14)
_cell_length_b                   13.6615(14)
_cell_length_c                   10.6017(11)
_cell_angle_alpha                90
_cell_angle_beta                 90.593(2)
_cell_angle_gamma                90
_cell_volume                     2013.22
loop_
_atom_site_label
_atom_site_type_symbol
_atom_site_fract_x
_atom_site_fract_y
_atom_site_fract_z
Cd1 Cd 0.0000 0.5000 0.0000
Br1 Br -0.12480(5) 0.64336(6) 0.05249(7)
Fe1 Fe 0.58358(6) 0.69092(6) 0.27697(8)
N1 N 0.0854(4) 0.5289(4) 0.1964(5)
C1 C 0.5860(4) 0.8074(4) 0.1575(6)
H1 H 0.5823 0.8045 0.0652
O1 O 0.3790(3) 0.8183(4) 0.0900(5)
C2 C 0.1823(5) 0.5283(5) 0.2013(6)
H2 H 0.2161 0.5070 0.1312
N2 N 0.3411(4) 0.8224(4) 0.2972(5)
H3 H 0.3648 0.8227 0.3725
N3 N 0.0921(4) 0.8828(4) 0.3755(6)
C3 C 0.5383(5) 0.5748(4) 0.3803(6)
H4 H 0.5011 0.5781 0.4581
C4 C 0.6638(5) 0.5685(5) 0.2431(7)
H5 H 0.7291 0.5676 0.2092
C5 C 0.6704(4) 0.8053(5) 0.2308(7)
H6 H 0.7356 0.7992 0.1974
C6 C 0.5073(4) 0.8155(4) 0.2403(6)
C7 C 0.5449(5) 0.8173(4) 0.3653(6)
H7 H 0.5072 0.8221 0.4427
C8 C 0.1889(5) 0.7754(5) 0.1920(6)
H8 H 0.2208 0.7404 0.1299
C9 C 0.2394(4) 0.8265(4) 0.2851(6)
C10 C 0.1821(5) 0.5841(6) 0.4138(7)
H9 H 0.2142 0.6019 0.4877
C11 C 0.2333(4) 0.5585(5) 0.3074(6)
C12 C 0.0900(5) 0.7786(5) 0.1950(7)
H10 H 0.0537 0.7451 0.1348
N4 N 0.3335(4) 0.5635(4) 0.3130(5)
H11 H 0.3585 0.5645 0.3875
C13 C 0.4999(5) 0.5695(4) 0.2559(6)
C14 C 0.4042(5) 0.8183(4) 0.2006(6)
C15 C 0.6477(5) 0.8111(4) 0.3589(7)
H12 H 0.6931 0.8111 0.4302
C16 C 0.5780(5) 0.5657(4) 0.1713(7)
H13 H 0.5732 0.5621 0.0791
C17 C 0.0379(5) 0.5567(6) 0.2984(7)
H14 H -0.0290 0.5585 0.2944
C18 C 0.1893(4) 0.8787(5) 0.3729(6)
H15 H 0.2239 0.9131 0.4340
C19 C 0.6398(5) 0.5740(5) 0.3722(7)
H16 H 0.6853 0.5769 0.4433
C20 C 0.0825(5) 0.5829(6) 0.4088(7)
H17 H 0.0466 0.5995 0.4792
O2 O 0.3718(4) 0.5684(4) 0.1053(5)
C21 C 0.3973(5) 0.5671(4) 0.2153(6)
C22 C 0.0452(5) 0.8317(5) 0.2879(7)
H18 H -0.0217 0.8318 0.2894
Cd1A Cd 0.0000 1.0000 0.5000
Cd1A_2 Cd 0.0000 0.0000 -0.5000
Br1B Br 0.12480(5) 0.35664(6) -0.05249(7)
Fe1B Fe -0.58358(6) 0.30908(6) -0.27697(8)
N1B N -0.0854(4) 0.4711(4) -0.1964(5)
C1B C -0.5860(4) 0.1926(4) -0.1575(6)
H1B H -0.5823 0.1955 -0.0652
O1B O -0.3790(3) 0.1817(4) -0.0900(5)
C2B C -0.1823(5) 0.4717(5) -0.2013(6)
H2B H -0.2161 0.4930 -0.1312
N2B N -0.3411(4) 0.1776(4) -0.2972(5)
H3B H -0.3648 0.1773 -0.3725
N3B N -0.0921(4) 0.1172(4) -0.3755(6)
N3A N -0.0921(4) 0.3828(4) 0.1245(6)
N3C N 0.0921(4) 0.6172(4) -0.1245(6)
C3B C -0.5383(5) 0.4252(4) -0.3803(6)
H4B H -0.5011 0.4219 -0.4581
C4B C -0.6638(5) 0.4315(5) -0.2431(7)
H5B H -0.7291 0.4324 -0.2092
C5B C -0.6704(4) 0.1947(5) -0.2308(7)
H6B H -0.7356 0.2008 -0.1974
C6B C -0.5073(4) 0.1845(4) -0.2403(6)
C7B C -0.5449(5) 0.1827(4) -0.3653(6)
H7B H -0.5072 0.1779 -0.4427
C8B C -0.1889(5) 0.2246(5) -0.1920(6)
H8B H -0.2208 0.2596 -0.1299
C9B C -0.2394(4) 0.1735(4) -0.2851(6)
C10B C -0.1821(5) 0.4159(6) -0.4138(7)
H9B H -0.2142 0.3981 -0.4877
C11B C -0.2333(4) 0.4415(5) -0.3074(6)
C12B C -0.0900(5) 0.2214(5) -0.1950(7)
H10B H -0.0537 0.2549 -0.1348
N4B N -0.3335(4) 0.4365(4) -0.3130(5)
H11B H -0.3585 0.4355 -0.3875
C13B C -0.4999(5) 0.4305(4) -0.2559(6)
C14B C -0.4042(5) 0.1817(4) -0.2006(6)
C15B C -0.6477(5) 0.1889(4) -0.3589(7)
H12B H -0.6931 0.1889 -0.4302
C16B C -0.5780(5) 0.4343(4) -0.1713(7)
H13B H -0.5732 0.4379 -0.0791
C17B C -0.0379(5) 0.4433(6) -0.2984(7)
H14B H 0.0290 0.4415 -0.2944
C18B C -0.1893(4) 0.1213(5) -0.3729(6)
H15B H -0.2239 0.0869 -0.4340
C19B C -0.6398(5) 0.4260(5) -0.3722(7)
H16B H -0.6853 0.4231 -0.4433
C20B C -0.0825(5) 0.4171(6) -0.4088(7)
H17B H -0.0466 0.4005 -0.4792
O2B O -0.3718(4) 0.4316(4) -0.1053(5)
C21B C -0.3973(5) 0.4329(4) -0.2153(6)
C22B C -0.0452(5) 0.1683(5) -0.2879(7)
H18B H 0.0217 0.1682 -0.2894
loop_
_geom_bond_atom_site_label_1
_geom_bond_atom_site_label_2
_geom_bond_site_symmetry_1
_geom_bond_site_symmetry_2
Cd1 Br1 1_555 1_555
Fe1 C1 1_555 1_555
N1 Cd1 1_555 1_555
C1 H1 1_555 1_555
O1 C14 1_555 1_555
C2 N1 1_555 1_555
H2 C2 1_555 1_555
N2 H3 1_555 1_555
N3 C18 1_555 1_555
C3 Fe1 1_555 1_555
H4 C3 1_555 1_555
C4 Fe1 1_555 1_555
H5 C4 1_555 1_555
C5 Fe1 1_555 1_555
H6 C5 1_555 1_555
C6 Fe1 1_555 1_555
C7 Fe1 1_555 1_555
H7 C7 1_555 1_555
C8 H8 1_555 1_555
C9 N2 1_555 1_555
C10 H9 1_555 1_555
C11 C2 1_555 1_555
C12 C8 1_555 1_555
H10 C12 1_555 1_555
N4 C11 1_555 1_555
H11 N4 1_555 1_555
C13 Fe1 1_555 1_555
C14 N2 1_555 1_555
C15 Fe1 1_555 1_555
H12 C15 1_555 1_555
C16 Fe1 1_555 1_555
H13 C16 1_555 1_555
C17 N1 1_555 1_555
H14 C17 1_555 1_555
C18 C9 1_555 1_555
H15 C18 1_555 1_555
C19 Fe1 1_555 1_555
H16 C19 1_555 1_555
C20 C10 1_555 1_555
H17 C20 1_555 1_555
O2 C21 1_555 1_555
C21 N4 1_555 1_555
C22 N3 1_555 1_555
H18 C22 1_555 1_555
Cd1A N3 1_555 1_555
Cd1A_2 N3B 1_555 1_555
Br1B Cd1 1_555 1_555
Fe1B C1B 1_555 1_555
N1B Cd1 1_555 1_555
C1B H1B 1_555 1_555
O1B C14B 1_555 1_555
C2B N1B 1_555 1_555
H2B C2B 1_555 1_555
N2B H3B 1_555 1_555
N3B C18B 1_555 1_555
N3A Cd1 1_555 1_555
N3C Cd1 1_555 1_555
C3B Fe1B 1_555 1_555
H4B C3B 1_555 1_555
C4B Fe1B 1_555 1_555
H5B C4B 1_555 1_555
C5B Fe1B 1_555 1_555
H6B C5B 1_555 1_555
C6B Fe1B 1_555 1_555
C7B Fe1B 1_555 1_555
H7B C7B 1_555 1_555
C8B H8B 1_555 1_555
C9B N2B 1_555 1_555
C10B H9B 1_555 1_555
C11B C2B 1_555 1_555
C12B C8B 1_555 1_555
H10B C12B 1_555 1_555
N4B C11B 1_555 1_555
H11B N4B 1_555 1_555
C13B Fe1B 1_555 1_555
C14B N2B 1_555 1_555
C15B Fe1B 1_555 1_555
H12B C15B 1_555 1_555
C16B Fe1B 1_555 1_555
H13B C16B 1_555 1_555
C17B N1B 1_555 1_555
H14B C17B 1_555 1_555
C18B C9B 1_555 1_555
H15B C18B 1_555 1_555
C19B Fe1B 1_555 1_555
H16B C19B 1_555 1_555
C20B C10B 1_555 1_555
H17B C20B 1_555 1_555
O2B C21B 1_555 1_555
C21B N4B 1_555 1_555
C22B N3B 1_555 1_555
H18B C22B 1_555 1_555
C1 C5 1_555 1_555
C1 C6 1_555 1_555
C3 C13 1_555 1_555
C3 C19 1_555 1_555
C4 C16 1_555 1_555
C4 C19 1_555 1_555
C5 C15 1_555 1_555
C6 C7 1_555 1_555
C6 C14 1_555 1_555
C7 C15 1_555 1_555
C8 C9 1_555 1_555
C10 C11 1_555 1_555
C12 C22 1_555 1_555
C13 C16 1_555 1_555
C13 C21 1_555 1_555
C17 C20 1_555 1_555
C1B C5B 1_555 1_555
C1B C6B 1_555 1_555
C3B C13B 1_555 1_555
C3B C19B 1_555 1_555
C4B C16B 1_555 1_555
C4B C19B 1_555 1_555
C5B C15B 1_555 1_555
C6B C7B 1_555 1_555
C6B C14B 1_555 1_555
C7B C15B 1_555 1_555
C8B C9B 1_555 1_555
C10B C11B 1_555 1_555
C12B C22B 1_555 1_555
C13B C16B 1_555 1_555
C13B C21B 1_555 1_555
C17B C20B 1_555 1_555

#END
