
#######################################################################
#
#                 Cambridge Crystallographic Data Centre
#                                CCDC 
#
#######################################################################
#
# If this CIF has been generated from an entry in the Cambridge 
# Structural Database, then it will include bibliographic, chemical, 
# crystal, experimental, refinement or atomic coordinate data resulting 
# from the CCDC's data processing and validation procedures.
#
#######################################################################

data_ERALAL
_symmetry_cell_setting           triclinic
_symmetry_space_group_name_H-M   'P -1'
_symmetry_Int_Tables_number      2
_space_group_name_Hall           '-P 1'
loop_
_symmetry_equiv_pos_site_id
_symmetry_equiv_pos_as_xyz
1 x,y,z
2 -x,-y,-z
_cell_length_a                   9.829(5)
_cell_length_b                   17.180(5)
_cell_length_c                   17.816(5)
_cell_angle_alpha                84.971(5)
_cell_angle_beta                 82.794(5)
_cell_angle_gamma                87.271(5)
_cell_volume                     2971.16
loop_
_atom_site_label
_atom_site_type_symbol
_atom_site_fract_x
_atom_site_fract_y
_atom_site_fract_z
O2 O 0.9932(4) 0.0922(2) 0.2471(2)
C1 C 0.4252(3) 0.0669(2) 0.17223(19)
C2 C 0.4993(3) 0.0998(2) 0.22914(19)
C3 C 0.4705(4) 0.1754(2) 0.2496(2)
H1 H 0.4025 0.2056 0.2277
C4 C 0.5407(4) 0.2073(2) 0.3021(2)
H2 H 0.5203 0.2585 0.3140
C5 C 0.6418(4) 0.1627(2) 0.3371(2)
C6 C 0.6696(4) 0.0863(2) 0.3165(2)
H3 H 0.7357 0.0552 0.3392
C7 C 0.6007(3) 0.0562(2) 0.26315(19)
H4 H 0.6230 0.0056 0.2498
C8 C 0.6758(4) 0.2698(3) 0.4170(2)
H5 H 0.6876 0.2684 0.4704
H6 H 0.5798 0.2824 0.4125
C9 C 0.7618(5) 0.3350(3) 0.3737(2)
C10 C 0.8656(5) 0.3202(3) 0.3158(3)
H7 H 0.8797 0.2696 0.3008
C11 C 0.9492(6) 0.3787(4) 0.2794(3)
H8 H 1.0161 0.3675 0.2397
C12 C 0.9328(7) 0.4517(4) 0.3022(3)
H9 H 0.9915 0.4904 0.2798
C13 C 0.8293(8) 0.4691(3) 0.3585(3)
H10 H 0.8156 0.5199 0.3727
C14 C 0.7448(7) 0.4101(3) 0.3941(3)
H11 H 0.6757 0.4221 0.4324
C15 C 0.8288(4) 0.1524(3) 0.4199(2)
H12 H 0.8898 0.1913 0.4313
H13 H 0.8774 0.1235 0.3797
C16 C 0.7998(4) 0.0967(3) 0.4893(2)
C17 C 0.9046(4) 0.0732(3) 0.5329(2)
H14 H 0.9911 0.0934 0.5193
C18 C 0.8834(5) 0.0208(3) 0.5957(2)
H15 H 0.9554 0.0054 0.6235
C19 C 0.7551(6) -0.0089(3) 0.6174(3)
H16 H 0.7403 -0.0443 0.6599
C20 C 0.6485(5) 0.0143(3) 0.5754(3)
H17 H 0.5615 -0.0050 0.5901
C21 C 0.6713(4) 0.0660(3) 0.5117(2)
H18 H 0.5996 0.0805 0.4833
C22 C 0.0611(3) -0.0713(2) 0.1407(2)
C23 C -0.0499(3) -0.1121(2) 0.19056(19)
C24 C -0.0561(4) -0.1136(2) 0.2687(2)
H19 H 0.0145 -0.0922 0.2894
C25 C -0.1632(4) -0.1455(2) 0.3167(2)
H20 H -0.1633 -0.1456 0.3689
C26 C -0.2723(4) -0.1779(2) 0.2880(2)
C27 C -0.2620(4) -0.1800(2) 0.2092(2)
H21 H -0.3299 -0.2035 0.1882
C28 C -0.1539(4) -0.1480(2) 0.1621(2)
H22 H -0.1504 -0.1504 0.1100
C29 C -0.3979(4) -0.1904(3) 0.4151(2)
H23 H -0.4928 -0.1963 0.4367
H24 H -0.3769 -0.1360 0.4166
C30 C -0.3082(4) -0.2398(3) 0.4647(2)
C31 C -0.2642(5) -0.3152(3) 0.4495(3)
H25 H -0.2860 -0.3352 0.4058
C32 C -0.1884(6) -0.3617(4) 0.4980(3)
H26 H -0.1596 -0.4123 0.4873
C33 C -0.1562(5) -0.3310(4) 0.5633(3)
H27 H -0.1056 -0.3614 0.5964
C34 C -0.1979(5) -0.2572(4) 0.5788(3)
H28 H -0.1756 -0.2373 0.6224
C35 C -0.2742(5) -0.2109(3) 0.5296(2)
H29 H -0.3023 -0.1603 0.5406
C36 C -0.5183(4) -0.2031(3) 0.3055(2)
H30 H -0.5032 -0.2100 0.2516
H31 H -0.5601 -0.1514 0.3116
C37 C -0.6164(4) -0.2638(3) 0.3444(2)
C38 C -0.7510(4) -0.2414(3) 0.3675(2)
H32 H -0.7796 -0.1892 0.3601
C39 C -0.8440(5) -0.2960(4) 0.4019(3)
H33 H -0.9341 -0.2802 0.4178
C40 C -0.8036(6) -0.3724(4) 0.4122(3)
H34 H -0.8665 -0.4089 0.4346
C41 C -0.6707(6) -0.3963(4) 0.3899(3)
H35 H -0.6432 -0.4486 0.3975
C42 C -0.5775(5) -0.3417(3) 0.3557(3)
H36 H -0.4876 -0.3580 0.3402
C43 C 0.4751(3) -0.1395(2) 0.04466(18)
C44 C 0.5416(3) -0.2177(2) 0.0574(2)
C45 C 0.4780(4) -0.2732(2) 0.1090(2)
H37 H 0.3899 -0.2620 0.1321
C46 C 0.5410(4) -0.3447(2) 0.1274(2)
H38 H 0.4954 -0.3806 0.1628
C47 C 0.6731(4) -0.3633(2) 0.0931(2)
C48 C 0.7365(4) -0.3078(2) 0.0388(2)
H39 H 0.8233 -0.3191 0.0141
C49 C 0.6717(4) -0.2369(2) 0.0220(2)
H40 H 0.7158 -0.2010 -0.0139
C50 C 0.6814(4) -0.4827(2) 0.1798(3)
H41 H 0.6487 -0.4484 0.2192
H42 H 0.7554 -0.5158 0.1976
C51 C 0.5659(4) -0.5337(2) 0.1684(3)
C52 C 0.4848(5) -0.5664(3) 0.2297(3)
H43 H 0.5001 -0.5559 0.2782
C53 C 0.3796(5) -0.6154(3) 0.2213(3)
H44 H 0.3255 -0.6375 0.2637
C54 C 0.3572(6) -0.6304(3) 0.1503(4)
H45 H 0.2870 -0.6628 0.1440
C55 C 0.4373(6) -0.5981(3) 0.0880(4)
H46 H 0.4224 -0.6091 0.0395
C56 C 0.5404(5) -0.5491(3) 0.0974(3)
H47 H 0.5932 -0.5263 0.0549
C57 C 0.8781(4) -0.4529(2) 0.0821(3)
H48 H 0.8950 -0.4306 0.0300
H49 H 0.8914 -0.5092 0.0819
C58 C 0.9822(4) -0.4226(2) 0.1275(2)
C59 C 0.9519(4) -0.3622(2) 0.1740(2)
H50 H 0.8643 -0.3388 0.1783
C60 C 1.0496(4) -0.3363(3) 0.2142(3)
H51 H 1.0277 -0.2953 0.2450
C61 C 1.1775(4) -0.3703(3) 0.2090(3)
H52 H 1.2430 -0.3532 0.2365
C62 C 1.2098(4) -0.4299(3) 0.1631(3)
H53 H 1.2977 -0.4530 0.1593
C63 C 1.1132(4) -0.4560(3) 0.1224(3)
H54 H 1.1365 -0.4964 0.0912
N1 N 0.7096(3) 0.1928(2) 0.39137(18)
N2 N -0.3850(3) -0.2080(2) 0.33566(16)
N3 N 0.7364(3) -0.4347(2) 0.1117(2)
O3 O 0.3223(2) 0.10415(15) 0.14734(13)
O4 O 0.4649(2) 0.00112(14) 0.14805(12)
O5 O 0.1444(2) -0.03211(16) 0.17133(13)
O6 O 0.0740(2) -0.07212(14) 0.06947(13)
O7 O 0.3520(2) -0.12970(15) 0.07239(14)
O8 O 0.2763(2) -0.01238(15) -0.06855(13)
O9 O 0.5415(2) -0.08348(14) 0.00849(13)
O10 O 0.1075(2) 0.09473(14) 0.03413(13)
Tb1 Tb 0.294208(16) 0.003674(10) 0.061001(9)
O9A O 0.4585(2) 0.08348(14) -0.00849(13)
Tb1A Tb 0.705792(16) -0.003674(10) -0.061001(9)
O1 O 0.1282(4) 0.2259(2) 0.1797(3)
loop_
_geom_bond_atom_site_label_1
_geom_bond_atom_site_label_2
_geom_bond_site_symmetry_1
_geom_bond_site_symmetry_2
C1 C2 1_555 1_555
C2 C3 1_555 1_555
C3 H1 1_555 1_555
C4 C3 1_555 1_555
H2 C4 1_555 1_555
C5 C4 1_555 1_555
C6 C5 1_555 1_555
H3 C6 1_555 1_555
C7 C2 1_555 1_555
H4 C7 1_555 1_555
C8 H5 1_555 1_555
H6 C8 1_555 1_555
C9 C8 1_555 1_555
C10 C9 1_555 1_555
H7 C10 1_555 1_555
C11 C10 1_555 1_555
H8 C11 1_555 1_555
C12 C11 1_555 1_555
H9 C12 1_555 1_555
C13 C12 1_555 1_555
H10 C13 1_555 1_555
C14 C9 1_555 1_555
H11 C14 1_555 1_555
C15 H12 1_555 1_555
H13 C15 1_555 1_555
C16 C15 1_555 1_555
C17 C16 1_555 1_555
H14 C17 1_555 1_555
C18 C17 1_555 1_555
H15 C18 1_555 1_555
C19 C18 1_555 1_555
H16 C19 1_555 1_555
C20 C19 1_555 1_555
H17 C20 1_555 1_555
C21 C16 1_555 1_555
H18 C21 1_555 1_555
C22 C23 1_555 1_555
C23 C24 1_555 1_555
C24 H19 1_555 1_555
C25 C24 1_555 1_555
H20 C25 1_555 1_555
C26 C25 1_555 1_555
C27 C26 1_555 1_555
H21 C27 1_555 1_555
C28 C23 1_555 1_555
H22 C28 1_555 1_555
C29 H23 1_555 1_555
H24 C29 1_555 1_555
C30 C29 1_555 1_555
C31 C30 1_555 1_555
H25 C31 1_555 1_555
C32 C31 1_555 1_555
H26 C32 1_555 1_555
C33 C32 1_555 1_555
H27 C33 1_555 1_555
C34 C33 1_555 1_555
H28 C34 1_555 1_555
C35 C30 1_555 1_555
H29 C35 1_555 1_555
C36 H30 1_555 1_555
H31 C36 1_555 1_555
C37 C36 1_555 1_555
C38 C37 1_555 1_555
H32 C38 1_555 1_555
C39 C38 1_555 1_555
H33 C39 1_555 1_555
C40 C39 1_555 1_555
H34 C40 1_555 1_555
C41 C40 1_555 1_555
H35 C41 1_555 1_555
C42 C37 1_555 1_555
H36 C42 1_555 1_555
C43 C44 1_555 1_555
C44 C45 1_555 1_555
C45 H37 1_555 1_555
C46 C45 1_555 1_555
H38 C46 1_555 1_555
C47 C46 1_555 1_555
C48 C47 1_555 1_555
H39 C48 1_555 1_555
C49 C44 1_555 1_555
H40 C49 1_555 1_555
C50 H41 1_555 1_555
H42 C50 1_555 1_555
C51 C50 1_555 1_555
C52 C51 1_555 1_555
H43 C52 1_555 1_555
C53 C52 1_555 1_555
H44 C53 1_555 1_555
C54 C53 1_555 1_555
H45 C54 1_555 1_555
C55 C54 1_555 1_555
H46 C55 1_555 1_555
C56 C51 1_555 1_555
H47 C56 1_555 1_555
C57 H48 1_555 1_555
H49 C57 1_555 1_555
C58 C57 1_555 1_555
C59 C58 1_555 1_555
H50 C59 1_555 1_555
C60 C59 1_555 1_555
H51 C60 1_555 1_555
C61 C60 1_555 1_555
H52 C61 1_555 1_555
C62 C61 1_555 1_555
H53 C62 1_555 1_555
C63 C58 1_555 1_555
H54 C63 1_555 1_555
N1 C5 1_555 1_555
N2 C26 1_555 1_555
N3 C47 1_555 1_555
O3 C1 1_555 1_555
O4 C1 1_555 1_555
O5 C22 1_555 1_555
O6 C22 1_555 1_555
O7 C43 1_555 1_555
O8 Tb1 1_555 1_555
O9 C43 1_555 1_555
O10 Tb1 1_555 1_555
Tb1 O3 1_555 1_555
O9A Tb1 1_555 1_555
Tb1A O9 1_555 1_555
C6 C7 1_555 1_555
C8 N1 1_555 1_555
C13 C14 1_555 1_555
C15 N1 1_555 1_555
C20 C21 1_555 1_555
C27 C28 1_555 1_555
C29 N2 1_555 1_555
C34 C35 1_555 1_555
C36 N2 1_555 1_555
C41 C42 1_555 1_555
C48 C49 1_555 1_555
C50 N3 1_555 1_555
C55 C56 1_555 1_555
C57 N3 1_555 1_555
C62 C63 1_555 1_555
O4 Tb1 1_555 1_555
O5 Tb1 1_555 1_555
O6 Tb1 1_555 1_555
O7 Tb1 1_555 1_555
O9 Tb1 1_555 1_555
O9A Tb1A 1_555 1_555

#END
