
#######################################################################
#
#                 Cambridge Crystallographic Data Centre
#                                CCDC 
#
#######################################################################
#
# If this CIF has been generated from an entry in the Cambridge 
# Structural Database, then it will include bibliographic, chemical, 
# crystal, experimental, refinement or atomic coordinate data resulting 
# from the CCDC's data processing and validation procedures.
#
#######################################################################

data_ERALEP
_symmetry_cell_setting           triclinic
_symmetry_space_group_name_H-M   'P -1'
_symmetry_Int_Tables_number      2
_space_group_name_Hall           '-P 1'
loop_
_symmetry_equiv_pos_site_id
_symmetry_equiv_pos_as_xyz
1 x,y,z
2 -x,-y,-z
_cell_length_a                   9.879(5)
_cell_length_b                   17.259(5)
_cell_length_c                   17.896(5)
_cell_angle_alpha                85.264(5)
_cell_angle_beta                 83.206(5)
_cell_angle_gamma                88.609(5)
_cell_volume                     3019.2
loop_
_atom_site_label
_atom_site_type_symbol
_atom_site_fract_x
_atom_site_fract_y
_atom_site_fract_z
C1 C 0.0636(4) 0.9270(2) 0.6427(2)
C2 C -0.0470(4) 0.8863(2) 0.6924(2)
C3 C -0.1525(4) 0.8511(2) 0.6650(2)
H1 H -0.1511 0.8492 0.6132
C4 C -0.2592(4) 0.8189(3) 0.7120(2)
H2 H -0.3284 0.7954 0.6914
C5 C -0.2662(4) 0.8206(3) 0.7899(2)
C6 C -0.1561(5) 0.8530(3) 0.8181(3)
H3 H -0.1552 0.8530 0.8700
C7 C -0.0498(5) 0.8847(3) 0.7703(3)
H4 H 0.0224 0.9056 0.7905
C8 C -0.3906(5) 0.8087(3) 0.9178(3)
H5 H -0.4848 0.8025 0.9395
H6 H -0.3680 0.8630 0.9191
C9 C -0.3006(5) 0.7594(3) 0.9667(3)
C10 C -0.2572(6) 0.6849(4) 0.9524(3)
H7 H -0.2786 0.6639 0.9091
C11 C -0.1828(7) 0.6414(4) 1.0013(4)
H8 H -0.1544 0.5913 0.9906
C12 C -0.1496(6) 0.6706(5) 1.0658(3)
H9 H -0.0995 0.6408 1.0988
C13 C -0.1912(6) 0.7437(5) 1.0805(3)
H10 H -0.1694 0.7642 1.1239
C14 C -0.2660(6) 0.7881(4) 1.0314(3)
H11 H -0.2934 0.8382 1.0424
C15 C -0.5137(5) 0.7948(4) 0.8078(3)
H12 H -0.5001 0.7880 0.7541
H13 H -0.5534 0.8461 0.8142
C16 C -0.6119(5) 0.7341(4) 0.8470(3)
C17 C -0.5745(6) 0.6564(4) 0.8569(3)
H14 H -0.4856 0.6405 0.8418
C18 C -0.6707(7) 0.6018(4) 0.8897(4)
H15 H -0.6466 0.5495 0.8963
C19 C -0.8012(7) 0.6265(5) 0.9121(4)
H16 H -0.8652 0.5904 0.9342
C20 C -0.8391(6) 0.7031(5) 0.9026(3)
H17 H -0.9280 0.7188 0.9182
C21 C -0.7444(5) 0.7572(4) 0.8695(3)
H18 H -0.7700 0.8092 0.8624
C22 C 0.4234(4) 1.0703(3) 0.6715(2)
C23 C 0.4951(4) 1.1032(3) 0.7281(2)
C24 C 0.4645(5) 1.1787(3) 0.7482(3)
H19 H 0.3966 1.2074 0.7261
C25 C 0.5337(5) 1.2118(3) 0.8008(3)
H20 H 0.5133 1.2628 0.8118
C26 C 0.6329(5) 1.1703(3) 0.8375(3)
C27 C 0.6616(5) 1.0939(3) 0.8170(3)
H21 H 0.7270 1.0642 0.8402
C28 C 0.5947(4) 1.0622(3) 0.7634(2)
H22 H 0.6173 1.0119 0.7507
C29 C 0.6679(6) 1.2778(4) 0.9144(3)
H23 H 0.6769 1.2778 0.9678
H24 H 0.5736 1.2903 0.9078
C30 C 0.7581(6) 1.3413(4) 0.8714(3)
C31 C 0.7512(8) 1.4169(4) 0.8946(4)
H25 H 0.6873 1.4298 0.9343
C32 C 0.8417(9) 1.4734(4) 0.8574(4)
H26 H 0.8376 1.5235 0.8731
C33 C 0.9344(8) 1.4557(4) 0.7994(4)
H27 H 0.9968 1.4926 0.7770
C34 C 0.9358(7) 1.3851(4) 0.7744(4)
H28 H 0.9958 1.3736 0.7325
C35 C 0.8482(7) 1.3287(4) 0.8105(4)
H29 H 0.8516 1.2798 0.7921
C36 C 0.8183(5) 1.1643(4) 0.9186(3)
H30 H 0.8751 1.2046 0.9324
H31 H 0.8697 1.1389 0.8777
C37 C 0.7912(5) 1.1049(3) 0.9860(3)
C38 C 0.6627(6) 1.0744(3) 1.0093(3)
H32 H 0.5894 1.0908 0.9835
C39 C 0.6430(6) 1.0198(4) 1.0709(3)
H33 H 0.5573 0.9986 1.0855
C40 C 0.7499(7) 0.9973(4) 1.1098(3)
H34 H 0.7354 0.9628 1.1526
C41 C 0.8775(6) 1.0247(4) 1.0870(3)
H35 H 0.9506 1.0067 1.1123
C42 C 0.8975(5) 1.0795(3) 1.0258(3)
H36 H 0.9840 1.0995 1.0113
C43 C 0.5269(4) 1.1400(2) 0.4523(2)
C44 C 0.4600(4) 1.2164(3) 0.4396(2)
C45 C 0.5229(4) 1.2732(3) 0.3882(3)
H37 H 0.6099 1.2634 0.3645
C46 C 0.4602(4) 1.3436(3) 0.3713(3)
H38 H 0.5053 1.3800 0.3365
C47 C 0.3304(5) 1.3613(3) 0.4056(3)
C48 C 0.2679(4) 1.3047(3) 0.4591(3)
H39 H 0.1822 1.3151 0.4840
C49 C 0.3315(4) 1.2345(3) 0.4752(2)
H40 H 0.2876 1.1983 0.5106
C50 C 0.1287(5) 1.4490(3) 0.4179(3)
H41 H 0.1120 1.4257 0.4693
H42 H 0.1168 1.5048 0.4195
C51 C 0.0231(4) 1.4192(3) 0.3717(3)
C52 C 0.0519(5) 1.3616(3) 0.3235(3)
H43 H 0.1392 1.3398 0.3180
C53 C -0.0456(5) 1.3354(3) 0.2830(3)
H44 H -0.0251 1.2952 0.2518
C54 C -0.1724(5) 1.3688(3) 0.2893(3)
H45 H -0.2381 1.3526 0.2611
C55 C -0.2024(5) 1.4257(3) 0.3367(4)
H46 H -0.2897 1.4474 0.3415
C56 C -0.1066(5) 1.4518(3) 0.3778(3)
H47 H -0.1288 1.4912 0.4097
C57 C 0.3233(5) 1.4803(3) 0.3211(3)
H48 H 0.3524 1.4467 0.2812
H49 H 0.2503 1.5137 0.3045
C58 C 0.4413(5) 1.5305(3) 0.3317(3)
C59 C 0.5190(6) 1.5637(3) 0.2700(4)
H50 H 0.4985 1.5552 0.2219
C60 C 0.6293(7) 1.6103(4) 0.2783(5)
H51 H 0.6827 1.6323 0.2359
C61 C 0.6583(8) 1.6235(4) 0.3490(5)
H52 H 0.7301 1.6553 0.3552
C62 C 0.5824(7) 1.5900(4) 0.4086(5)
H53 H 0.6039 1.5975 0.4567
C63 C 0.4720(6) 1.5443(3) 0.4011(4)
H54 H 0.4189 1.5229 0.4439
N1 N -0.3785(4) 0.7898(3) 0.8380(2)
N2 N 0.6994(5) 1.2006(3) 0.8912(2)
N3 N 0.2694(4) 1.4322(2) 0.3883(2)
O1 O 0.0726(3) 0.92540(17) 0.57130(15)
O2 O 0.1496(3) 0.9652(2) 0.67136(16)
O3 O 0.3218(3) 1.10457(18) 0.64467(16)
O4 O 0.4648(3) 1.00457(18) 0.64742(16)
O5 O 0.6502(3) 1.13256(17) 0.42409(19)
O6 O 0.2778(3) 0.98231(18) 0.42839(16)
O7 O 0.1104(3) 1.09216(17) 0.53119(16)
O8 O 0.4639(3) 1.08309(16) 0.48886(16)
Eu1 Eu 0.29660(2) 1.001385(13) 0.558659(12)
O5A O 0.3498(3) 0.86744(17) 0.57591(19)
O8A O 0.5361(3) 0.91691(16) 0.51114(16)
Eu1A Eu 0.70340(2) 0.998615(13) 0.441341(12)
loop_
_geom_bond_atom_site_label_1
_geom_bond_atom_site_label_2
_geom_bond_site_symmetry_1
_geom_bond_site_symmetry_2
C1 C2 1_555 1_555
C2 C3 1_555 1_555
C3 H1 1_555 1_555
C4 C3 1_555 1_555
H2 C4 1_555 1_555
C5 C4 1_555 1_555
C6 C5 1_555 1_555
H3 C6 1_555 1_555
C7 C2 1_555 1_555
H4 C7 1_555 1_555
C8 H5 1_555 1_555
H6 C8 1_555 1_555
C9 C8 1_555 1_555
C10 C9 1_555 1_555
H7 C10 1_555 1_555
C11 C10 1_555 1_555
H8 C11 1_555 1_555
C12 C11 1_555 1_555
H9 C12 1_555 1_555
C13 C12 1_555 1_555
H10 C13 1_555 1_555
C14 C9 1_555 1_555
H11 C14 1_555 1_555
C15 H12 1_555 1_555
H13 C15 1_555 1_555
C16 C15 1_555 1_555
C17 C16 1_555 1_555
H14 C17 1_555 1_555
C18 C17 1_555 1_555
H15 C18 1_555 1_555
C19 C18 1_555 1_555
H16 C19 1_555 1_555
C20 C19 1_555 1_555
H17 C20 1_555 1_555
C21 C16 1_555 1_555
H18 C21 1_555 1_555
C22 C23 1_555 1_555
C23 C24 1_555 1_555
C24 H19 1_555 1_555
C25 C24 1_555 1_555
H20 C25 1_555 1_555
C26 C25 1_555 1_555
C27 C26 1_555 1_555
H21 C27 1_555 1_555
C28 C23 1_555 1_555
H22 C28 1_555 1_555
C29 H23 1_555 1_555
H24 C29 1_555 1_555
C30 C29 1_555 1_555
C31 C30 1_555 1_555
H25 C31 1_555 1_555
C32 C31 1_555 1_555
H26 C32 1_555 1_555
C33 C32 1_555 1_555
H27 C33 1_555 1_555
C34 C33 1_555 1_555
H28 C34 1_555 1_555
C35 C30 1_555 1_555
H29 C35 1_555 1_555
C36 H30 1_555 1_555
H31 C36 1_555 1_555
C37 C36 1_555 1_555
C38 C37 1_555 1_555
H32 C38 1_555 1_555
C39 C38 1_555 1_555
H33 C39 1_555 1_555
C40 C39 1_555 1_555
H34 C40 1_555 1_555
C41 C40 1_555 1_555
H35 C41 1_555 1_555
C42 C37 1_555 1_555
H36 C42 1_555 1_555
C43 C44 1_555 1_555
C44 C45 1_555 1_555
C45 H37 1_555 1_555
C46 C45 1_555 1_555
H38 C46 1_555 1_555
C47 C46 1_555 1_555
C48 C47 1_555 1_555
H39 C48 1_555 1_555
C49 C44 1_555 1_555
H40 C49 1_555 1_555
C50 H41 1_555 1_555
H42 C50 1_555 1_555
C51 C50 1_555 1_555
C52 C51 1_555 1_555
H43 C52 1_555 1_555
C53 C52 1_555 1_555
H44 C53 1_555 1_555
C54 C53 1_555 1_555
H45 C54 1_555 1_555
C55 C54 1_555 1_555
H46 C55 1_555 1_555
C56 C51 1_555 1_555
H47 C56 1_555 1_555
C57 H48 1_555 1_555
H49 C57 1_555 1_555
C58 C57 1_555 1_555
C59 C58 1_555 1_555
H50 C59 1_555 1_555
C60 C59 1_555 1_555
H51 C60 1_555 1_555
C61 C60 1_555 1_555
H52 C61 1_555 1_555
C62 C61 1_555 1_555
H53 C62 1_555 1_555
C63 C58 1_555 1_555
H54 C63 1_555 1_555
N1 C5 1_555 1_555
N2 C26 1_555 1_555
N3 C47 1_555 1_555
O1 C1 1_555 1_555
O2 C1 1_555 1_555
O3 C22 1_555 1_555
O4 C22 1_555 1_555
O5 C43 1_555 1_555
O6 Eu1 1_555 1_555
O7 Eu1 1_555 1_555
O8 C43 1_555 1_555
Eu1 O1 1_555 1_555
O5A Eu1 1_555 1_555
O8A Eu1 1_555 1_555
Eu1A O5 1_555 1_555
C6 C7 1_555 1_555
C8 N1 1_555 1_555
C13 C14 1_555 1_555
C15 N1 1_555 1_555
C20 C21 1_555 1_555
C27 C28 1_555 1_555
C29 N2 1_555 1_555
C34 C35 1_555 1_555
C36 N2 1_555 1_555
C41 C42 1_555 1_555
C48 C49 1_555 1_555
C50 N3 1_555 1_555
C55 C56 1_555 1_555
C57 N3 1_555 1_555
C62 C63 1_555 1_555
O2 Eu1 1_555 1_555
O3 Eu1 1_555 1_555
O4 Eu1 1_555 1_555
O8 Eu1 1_555 1_555
O8 Eu1A 1_555 1_555
O8A Eu1A 1_555 1_555

#END
