
#######################################################################
#
#                 Cambridge Crystallographic Data Centre
#                                CCDC 
#
#######################################################################
#
# If this CIF has been generated from an entry in the Cambridge 
# Structural Database, then it will include bibliographic, chemical, 
# crystal, experimental, refinement or atomic coordinate data resulting 
# from the CCDC's data processing and validation procedures.
#
#######################################################################

data_ERAQET
_symmetry_cell_setting           triclinic
_symmetry_space_group_name_H-M   'P -1'
_symmetry_Int_Tables_number      2
_space_group_name_Hall           '-P 1'
loop_
_symmetry_equiv_pos_site_id
_symmetry_equiv_pos_as_xyz
1 x,y,z
2 -x,-y,-z
_cell_length_a                   9.168(9)
_cell_length_b                   10.344(10)
_cell_length_c                   13.087(5)
_cell_angle_alpha                91.34(6)
_cell_angle_beta                 96.76(6)
_cell_angle_gamma                111.68(6)
_cell_volume                     1142.27
loop_
_atom_site_label
_atom_site_type_symbol
_atom_site_fract_x
_atom_site_fract_y
_atom_site_fract_z
Cu1 Cu 0.0000 0.0000 0.0000
Cu2 Cu -0.27987(12) -0.25772(11) -0.20694(7)
Cl1 Cl -0.2966(3) 0.3077(3) -0.05524(18)
Cl2 Cl -0.0147(3) 0.0311(2) -0.37759(15)
Cl3 Cl -0.2525(3) -0.2825(2) 0.16951(16)
O1 O -0.1270(6) 0.1110(6) -0.0171(4)
O2 O -0.0294(6) -0.0161(5) -0.1515(4)
O3 O -0.3094(8) 0.3354(7) -0.2814(5)
O4 O -0.1737(8) 0.2303(7) -0.4153(4)
O5 O -0.2689(6) -0.2694(5) -0.0590(4)
O6 O -0.5147(6) -0.5415(5) 0.1988(4)
N1 N -0.4407(7) -0.1628(7) -0.2268(5)
N2 N -0.3104(8) -0.2582(7) -0.3542(5)
N3 N -0.1124(7) -0.3327(7) -0.2372(5)
C1 C -0.1470(9) 0.1423(8) -0.1101(6)
C2 C -0.0873(9) 0.0709(8) -0.1888(6)
C3 C -0.0977(9) 0.1011(8) -0.2895(6)
C4 C -0.1701(10) 0.1946(9) -0.3276(6)
C5 C -0.2401(9) 0.2619(9) -0.2478(6)
C6 C -0.2220(9) 0.2293(9) -0.1434(6)
C7 C -0.5033(9) -0.5181(8) 0.1089(6)
C8 C -0.3711(8) -0.3759(8) -0.0268(6)
C9 C -0.3829(8) -0.4013(8) 0.0764(5)
C10 C -0.5005(10) -0.1128(9) -0.1542(7)
C11 C -0.6125(12) -0.0550(11) -0.1764(8)
C12 C -0.6675(12) -0.0525(11) -0.2781(9)
C13 C -0.6087(11) -0.1047(11) -0.3535(7)
C14 C -0.4947(10) -0.1612(9) -0.3267(6)
C15 C -0.4256(10) -0.2213(9) -0.4017(6)
C16 C -0.4650(11) -0.2454(11) -0.5052(6)
C17 C -0.3874(13) -0.3069(12) -0.5619(7)
C18 C -0.2609(13) -0.3374(12) -0.5139(7)
C19 C -0.2284(10) -0.3158(9) -0.4071(6)
C20 C -0.1086(10) -0.3501(9) -0.3397(6)
C21 C 0.0032(12) -0.3933(10) -0.3746(7)
C22 C 0.1019(12) -0.4303(11) -0.3039(8)
C23 C 0.0926(12) -0.4153(11) -0.2002(8)
C24 C -0.0143(11) -0.3657(10) -0.1697(7)
H1 H -0.4640 -0.1176 -0.0839
H2 H -0.6504 -0.0176 -0.1229
H3 H -0.7465 -0.0150 -0.2962
H4 H -0.6457 -0.1022 -0.4240
H5 H -0.5468 -0.2197 -0.5391
H6 H -0.4202 -0.3286 -0.6339
H7 H -0.1994 -0.3714 -0.5526
H8 H 0.0123 -0.3972 -0.4461
H9 H 0.1755 -0.4660 -0.3264
H10 H 0.1605 -0.4396 -0.1505
H11 H -0.0190 -0.3542 -0.0981
C8A C -0.6289(8) -0.6241(8) 0.0268(6)
O5A O -0.7311(6) -0.7306(5) 0.0590(4)
C9A C -0.6171(8) -0.5987(8) -0.0764(5)
Cl3A Cl -0.7475(3) -0.7175(2) -0.16951(16)
C7A C -0.4967(9) -0.4819(8) -0.1089(6)
O6A O -0.4853(6) -0.4585(5) -0.1988(4)
Cl1A Cl 0.2966(3) -0.3077(3) 0.05524(18)
Cl2A Cl 0.0147(3) -0.0311(2) 0.37759(15)
O1A O 0.1270(6) -0.1110(6) 0.0171(4)
O2A O 0.0294(6) 0.0161(5) 0.1515(4)
O3A O 0.3094(8) -0.3354(7) 0.2814(5)
O4A O 0.1737(8) -0.2303(7) 0.4153(4)
C1A C 0.1470(9) -0.1423(8) 0.1101(6)
C2A C 0.0873(9) -0.0709(8) 0.1888(6)
C3A C 0.0977(9) -0.1011(8) 0.2895(6)
C4A C 0.1701(10) -0.1946(9) 0.3276(6)
C5A C 0.2401(9) -0.2619(9) 0.2478(6)
C6A C 0.2220(9) -0.2293(9) 0.1434(6)
Cu2A Cu 0.27987(12) 0.25772(11) 0.20694(7)
N1A N 0.4407(7) 0.1628(7) 0.2268(5)
N2A N 0.3104(8) 0.2582(7) 0.3542(5)
N3A N 0.1124(7) 0.3327(7) 0.2372(5)
C10A C 0.5005(10) 0.1128(9) 0.1542(7)
C11A C 0.6125(12) 0.0550(11) 0.1764(8)
C12A C 0.6675(12) 0.0525(11) 0.2781(9)
C13A C 0.6087(11) 0.1047(11) 0.3535(7)
C14A C 0.4947(10) 0.1612(9) 0.3267(6)
C15A C 0.4256(10) 0.2213(9) 0.4017(6)
C16A C 0.4650(11) 0.2454(11) 0.5052(6)
C17A C 0.3874(13) 0.3069(12) 0.5619(7)
C18A C 0.2609(13) 0.3374(12) 0.5139(7)
C19A C 0.2284(10) 0.3158(9) 0.4071(6)
C20A C 0.1086(10) 0.3501(9) 0.3397(6)
C21A C -0.0032(12) 0.3933(10) 0.3746(7)
C22A C -0.1019(12) 0.4303(11) 0.3039(8)
C23A C -0.0926(12) 0.4153(11) 0.2002(8)
C24A C 0.0143(11) 0.3657(10) 0.1697(7)
H1A H 0.4640 0.1176 0.0839
H2A H 0.6504 0.0176 0.1229
H3A H 0.7465 0.0150 0.2962
H4A H 0.6457 0.1022 0.4240
H5A H 0.5468 0.2197 0.5391
H6A H 0.4202 0.3286 0.6339
H7A H 0.1994 0.3714 0.5526
H8A H -0.0123 0.3972 0.4461
H9A H -0.1755 0.4660 0.3264
H10A H -0.1605 0.4396 0.1505
H11A H 0.0190 0.3542 0.0981
Cu2A_2 Cu -0.72013(12) -0.74228(11) 0.20694(7)
O5A_2 O 0.2689(6) 0.2694(5) 0.0590(4)
O6_2 O 0.4853(6) 0.4585(5) 0.1988(4)
loop_
_geom_bond_atom_site_label_1
_geom_bond_atom_site_label_2
_geom_bond_site_symmetry_1
_geom_bond_site_symmetry_2
Cu1 O1 1_555 1_555
Cu2 O2 1_555 1_555
Cl1 C6 1_555 1_555
Cl2 C3 1_555 1_555
Cl3 C9 1_555 1_555
O1 C1 1_555 1_555
O2 Cu1 1_555 1_555
O3 C5 1_555 1_555
O4 C4 1_555 1_555
O5 Cu2 1_555 1_555
O6 C7 1_555 1_555
N1 Cu2 1_555 1_555
N2 Cu2 1_555 1_555
N3 Cu2 1_555 1_555
C1 C2 1_555 1_555
C2 O2 1_555 1_555
C3 C2 1_555 1_555
C4 C3 1_555 1_555
C5 C4 1_555 1_555
C6 C1 1_555 1_555
C7 C9 1_555 1_555
C8 O5 1_555 1_555
C9 C8 1_555 1_555
C10 N1 1_555 1_555
C11 C10 1_555 1_555
C12 C11 1_555 1_555
C13 C12 1_555 1_555
C14 N1 1_555 1_555
C15 N2 1_555 1_555
C16 C15 1_555 1_555
C17 C16 1_555 1_555
C18 C17 1_555 1_555
C19 N2 1_555 1_555
C20 N3 1_555 1_555
C21 C20 1_555 1_555
C22 C21 1_555 1_555
C23 C22 1_555 1_555
C24 N3 1_555 1_555
H1 C10 1_555 1_555
H2 C11 1_555 1_555
H3 C12 1_555 1_555
H4 C13 1_555 1_555
H5 C16 1_555 1_555
H6 C17 1_555 1_555
H7 C18 1_555 1_555
H8 C21 1_555 1_555
H9 C22 1_555 1_555
H10 C23 1_555 1_555
H11 C24 1_555 1_555
C8A C7 1_555 1_555
O5A C8A 1_555 1_555
C9A C8A 1_555 1_555
Cl3A C9A 1_555 1_555
C7A C8 1_555 1_555
O6A Cu2 1_555 1_555
Cl1A C6A 1_555 1_555
Cl2A C3A 1_555 1_555
O1A Cu1 1_555 1_555
O2A Cu1 1_555 1_555
O3A C5A 1_555 1_555
O4A C4A 1_555 1_555
C1A O1A 1_555 1_555
C2A O2A 1_555 1_555
C3A C2A 1_555 1_555
C4A C3A 1_555 1_555
C5A C4A 1_555 1_555
C6A C1A 1_555 1_555
Cu2A O2A 1_555 1_555
N1A Cu2A 1_555 1_555
N2A Cu2A 1_555 1_555
N3A Cu2A 1_555 1_555
C10A N1A 1_555 1_555
C11A C10A 1_555 1_555
C12A C11A 1_555 1_555
C13A C12A 1_555 1_555
C14A N1A 1_555 1_555
C15A N2A 1_555 1_555
C16A C15A 1_555 1_555
C17A C16A 1_555 1_555
C18A C17A 1_555 1_555
C19A N2A 1_555 1_555
C20A N3A 1_555 1_555
C21A C20A 1_555 1_555
C22A C21A 1_555 1_555
C23A C22A 1_555 1_555
C24A N3A 1_555 1_555
H1A C10A 1_555 1_555
H2A C11A 1_555 1_555
H3A C12A 1_555 1_555
H4A C13A 1_555 1_555
H5A C16A 1_555 1_555
H6A C17A 1_555 1_555
H7A C18A 1_555 1_555
H8A C21A 1_555 1_555
H9A C22A 1_555 1_555
H10A C23A 1_555 1_555
H11A C24A 1_555 1_555
Cu2A_2 O6 1_555 1_555
O5A_2 Cu2A 1_555 1_555
O6_2 Cu2A 1_555 1_555
C5 C6 1_555 1_555
C13 C14 1_555 1_555
C14 C15 1_555 1_555
C18 C19 1_555 1_555
C19 C20 1_555 1_555
C23 C24 1_555 1_555
O5A Cu2A_2 1_555 1_555
C9A C7A 1_555 1_555
C7A O6A 1_555 1_555
C1A C2A 1_555 1_555
C5A C6A 1_555 1_555
C13A C14A 1_555 1_555
C14A C15A 1_555 1_555
C18A C19A 1_555 1_555
C19A C20A 1_555 1_555
C23A C24A 1_555 1_555

#END
