
#######################################################################
#
#                 Cambridge Crystallographic Data Centre
#                                CCDC 
#
#######################################################################
#
# If this CIF has been generated from an entry in the Cambridge 
# Structural Database, then it will include bibliographic, chemical, 
# crystal, experimental, refinement or atomic coordinate data resulting 
# from the CCDC's data processing and validation procedures.
#
#######################################################################

data_ERARAQ
_symmetry_cell_setting           monoclinic
_symmetry_space_group_name_H-M   'C 2'
_symmetry_Int_Tables_number      5
_space_group_name_Hall           'C 2y'
loop_
_symmetry_equiv_pos_site_id
_symmetry_equiv_pos_as_xyz
1 x,y,z
2 -x,y,-z
3 1/2+x,1/2+y,z
4 1/2-x,1/2+y,-z
_cell_length_a                   27.356(6)
_cell_length_b                   6.5352(15)
_cell_length_c                   3.7201(9)
_cell_angle_alpha                90
_cell_angle_beta                 92.481(4)
_cell_angle_gamma                90
_cell_volume                     664.445
loop_
_atom_site_label
_atom_site_type_symbol
_atom_site_fract_x
_atom_site_fract_y
_atom_site_fract_z
Ag1 Ag 0.5000 -0.19169(9) 0.5000
C1 C 0.3905(4) -0.2671(16) 0.663(2)
H1 H 0.4022 -0.3969 0.7218
C2 C 0.3407(3) -0.2249(19) 0.6973(18)
C3 C 0.3222(4) -0.0360(18) 0.610(2)
H2 H 0.2893 -0.0053 0.6321
C4 C 0.3551(4) 0.1096(16) 0.484(2)
H3 H 0.3443 0.2396 0.4176
C5 C 0.4027(4) 0.0581(15) 0.461(2)
H4 H 0.4239 0.1575 0.3797
C6 C 0.3099(3) -0.3831(18) 0.834(2)
N1 N 0.4218(3) -0.1260(12) 0.5472(18)
N2 N 0.2862(4) -0.5138(17) 0.947(2)
N3 N 0.5000 -0.622(2) 1.0000
O1 O 0.5000 -0.810(3) 1.0000
O2 O 0.5338(3) -0.5291(14) 0.868(2)
O2A O 0.4662(3) -0.5291(14) 1.132(2)
C1A C 0.6095(4) -0.2671(16) 0.337(2)
H1A H 0.5978 -0.3969 0.2782
C2A C 0.6593(3) -0.2249(19) 0.3027(18)
C3A C 0.6778(4) -0.0360(18) 0.390(2)
H2A H 0.7107 -0.0053 0.3679
C4A C 0.6449(4) 0.1096(16) 0.516(2)
H3A H 0.6557 0.2396 0.5824
C5A C 0.5973(4) 0.0581(15) 0.539(2)
H4A H 0.5761 0.1575 0.6203
C6A C 0.6901(3) -0.3831(18) 0.166(2)
N1A N 0.5782(3) -0.1260(12) 0.4528(18)
N2A N 0.7138(4) -0.5138(17) 0.053(2)
O2A_2 O 0.4662(3) -0.5291(14) 0.132(2)
Ag1_2 Ag 0.5000 -0.19169(9) 1.5000
loop_
_geom_bond_atom_site_label_1
_geom_bond_atom_site_label_2
_geom_bond_site_symmetry_1
_geom_bond_site_symmetry_2
Ag1 N1 1_555 1_555
C1 H1 1_555 1_555
C2 C1 1_555 1_555
C3 C2 1_555 1_555
H2 C3 1_555 1_555
C4 C3 1_555 1_555
H3 C4 1_555 1_555
C5 C4 1_555 1_555
H4 C5 1_555 1_555
C6 C2 1_555 1_555
N1 C1 1_555 1_555
N2 C6 1_555 1_555
N3 O1 1_555 1_555
O2 Ag1 1_555 1_555
O2A N3 1_555 1_555
C1A H1A 1_555 1_555
C2A C1A 1_555 1_555
C3A C2A 1_555 1_555
H2A C3A 1_555 1_555
C4A C3A 1_555 1_555
H3A C4A 1_555 1_555
C5A C4A 1_555 1_555
H4A C5A 1_555 1_555
C6A C2A 1_555 1_555
N1A Ag1 1_555 1_555
N2A C6A 1_555 1_555
O2A_2 Ag1 1_555 1_555
Ag1_2 O2A 1_555 1_555
C5 N1 1_555 1_555
N3 O2 1_555 1_555
C1A N1A 1_555 1_555
C5A N1A 1_555 1_555

#END
