
#######################################################################
#
#                 Cambridge Crystallographic Data Centre
#                                CCDC 
#
#######################################################################
#
# If this CIF has been generated from an entry in the Cambridge 
# Structural Database, then it will include bibliographic, chemical, 
# crystal, experimental, refinement or atomic coordinate data resulting 
# from the CCDC's data processing and validation procedures.
#
#######################################################################

data_ERATEW
_symmetry_cell_setting           monoclinic
_symmetry_space_group_name_H-M   'P 21/c'
_symmetry_Int_Tables_number      14
_space_group_name_Hall           '-P 2ybc'
loop_
_symmetry_equiv_pos_site_id
_symmetry_equiv_pos_as_xyz
1 x,y,z
2 -x,1/2+y,1/2-z
3 -x,-y,-z
4 x,1/2-y,1/2+z
_cell_length_a                   11.661(4)
_cell_length_b                   14.011(3)
_cell_length_c                   9.013(4)
_cell_angle_alpha                90
_cell_angle_beta                 110.87(3)
_cell_angle_gamma                90
_cell_volume                     1375.95
loop_
_atom_site_label
_atom_site_type_symbol
_atom_site_fract_x
_atom_site_fract_y
_atom_site_fract_z
Eu1 Eu 0.13025(4) 0.10858(3) 0.05706(6)
O1 O 0.1809(8) 0.2744(6) 0.0767(9)
O2 O 0.3470(7) 0.0959(8) 0.0988(11)
O3 O -0.0350(7) 0.1579(6) -0.1775(10)
O4 O 0.2105(7) -0.0227(5) 0.2490(10)
O5 O 0.9831(7) 0.1855(5) 0.1659(11)
O6 O 0.2332(7) 0.1375(6) -0.1411(10)
O7 O 0.2378(8) 0.1224(6) 0.3511(9)
O8 O 0.9358(6) 0.0393(5) 0.0845(9)
C1 C 0.9111(9) 0.1166(8) 0.1435(14)
C2 C 0.7953(11) 0.1229(9) 0.1821(15)
H1 H 0.8066(11) 0.1697(9) 0.2655(15)
H2 H 0.7795(11) 0.0616(9) 0.2211(15)
C3 C 0.6849(10) 0.1512(10) 0.0364(16)
H3 H 0.6951(10) 0.2162(10) 0.0061(16)
H4 H 0.6796(10) 0.1096(10) -0.0517(16)
C4 C 0.5684(11) 0.1438(11) 0.0723(16)
H5 H 0.5662(11) 0.0813(11) 0.1176(16)
H6 H 0.5718(11) 0.1909(11) 0.1527(16)
C5 C 0.4524(10) 0.1576(10) -0.0641(15)
H7 H 0.4564(10) 0.1211(10) -0.1536(15)
H8 H 0.4451(10) 0.2244(10) -0.0941(15)
C6 C 0.3389(10) 0.1281(8) -0.0316(13)
C7 C 0.2560(9) 0.0330(8) 0.3683(13)
C8 C 0.3412(10) -0.0059(10) 0.5235(14)
H9 H 0.3327(10) 0.0309(10) 0.6101(14)
H10 H 0.3191(10) -0.0715(10) 0.5351(14)
C9 C 0.4708(15) -0.0022(28) 0.5324(25)
H11 H 0.5010(15) 0.0508(28) 0.6052(25)
H12 H 0.5036(15) -0.0583(28) 0.5963(25)
C9B C 0.5292(15) 0.0022(28) 0.4676(25)
C8B C 0.6588(10) 0.0059(10) 0.4765(14)
C7B C 0.7440(9) -0.0330(8) 0.6317(13)
O4B O 0.7895(7) 0.0227(5) 0.7510(10)
O7B O 0.7622(8) -0.1224(6) 0.6489(9)
H9B H 0.6673(10) -0.0309(10) 0.3899(14)
H10B H 0.6809(10) 0.0715(10) 0.4649(14)
H11B H 0.4990(15) -0.0508(28) 0.3948(25)
H12B H 0.4964(15) 0.0583(28) 0.4037(25)
O2_2 O -0.6530(7) 0.0959(8) 0.0988(11)
O5_2 O -0.0169(7) 0.1855(5) 0.1659(11)
O6_2 O -0.7668(7) 0.1375(6) -0.1411(10)
O8_2 O -0.0642(6) 0.0393(5) 0.0845(9)
C1_2 C -0.0889(9) 0.1166(8) 0.1435(14)
C2_2 C -0.2047(11) 0.1229(9) 0.1821(15)
H1_2 H -0.1934(11) 0.1697(9) 0.2655(15)
H2_2 H -0.2205(11) 0.0616(9) 0.2211(15)
C3_2 C -0.3151(10) 0.1512(10) 0.0364(16)
H3_2 H -0.3049(10) 0.2162(10) 0.0061(16)
H4_2 H -0.3204(10) 0.1096(10) -0.0517(16)
C4_2 C -0.4316(11) 0.1438(11) 0.0723(16)
H5_2 H -0.4338(11) 0.0813(11) 0.1176(16)
H6_2 H -0.4282(11) 0.1909(11) 0.1527(16)
C5_2 C -0.5476(10) 0.1576(10) -0.0641(15)
H7_2 H -0.5436(10) 0.1211(10) -0.1536(15)
H8_2 H -0.5549(10) 0.2244(10) -0.0941(15)
C6_2 C -0.6611(10) 0.1281(8) -0.0316(13)
Eu1_2 Eu -0.86975(4) 0.10858(3) 0.05706(6)
O1_2 O -0.8191(8) 0.2744(6) 0.0767(9)
O3_2 O -1.0350(7) 0.1579(6) -0.1775(10)
O8B O 0.0642(6) -0.0393(5) -0.0845(9)
Eu1_3 Eu 1.13025(4) 0.10858(3) 0.05706(6)
Eu1B Eu 0.86975(4) -0.10858(3) -0.05706(6)
Eu1B_2 Eu 0.86975(4) -0.10858(3) 0.94294(6)
Eu1B_3 Eu -0.13025(4) -0.10858(3) -0.05706(6)
O4_2 O -0.7895(7) -0.0227(5) 0.2490(10)
O5_3 O -1.0169(7) 0.1855(5) 0.1659(11)
O7_2 O -0.7622(8) 0.1224(6) 0.3511(9)
O8_3 O -1.0642(6) 0.0393(5) 0.0845(9)
O8B_2 O -0.9358(6) -0.0393(5) -0.0845(9)
loop_
_geom_bond_atom_site_label_1
_geom_bond_atom_site_label_2
_geom_bond_site_symmetry_1
_geom_bond_site_symmetry_2
Eu1 O1 1_555 1_555
O2 Eu1 1_555 1_555
O3 Eu1 1_555 1_555
O4 Eu1 1_555 1_555
O5 C1 1_555 1_555
O6 Eu1 1_555 1_555
O7 Eu1 1_555 1_555
O8 C1 1_555 1_555
C1 C2 1_555 1_555
C2 H1 1_555 1_555
H2 C2 1_555 1_555
C3 C2 1_555 1_555
H3 C3 1_555 1_555
H4 C3 1_555 1_555
C4 C3 1_555 1_555
H5 C4 1_555 1_555
H6 C4 1_555 1_555
C5 C4 1_555 1_555
H7 C5 1_555 1_555
H8 C5 1_555 1_555
C6 O2 1_555 1_555
C7 O4 1_555 1_555
C8 C7 1_555 1_555
H9 C8 1_555 1_555
H10 C8 1_555 1_555
C9 C8 1_555 1_555
H11 C9 1_555 1_555
H12 C9 1_555 1_555
C9B C9 1_555 1_555
C8B C9B 1_555 1_555
C7B C8B 1_555 1_555
O4B C7B 1_555 1_555
O7B C7B 1_555 1_555
H9B C8B 1_555 1_555
H10B C8B 1_555 1_555
H11B C9B 1_555 1_555
H12B C9B 1_555 1_555
O2_2 C6_2 1_555 1_555
O5_2 Eu1 1_555 1_555
O6_2 C6_2 1_555 1_555
O8_2 Eu1 1_555 1_555
C1_2 O5_2 1_555 1_555
C2_2 C1_2 1_555 1_555
H1_2 C2_2 1_555 1_555
H2_2 C2_2 1_555 1_555
C3_2 C2_2 1_555 1_555
H3_2 C3_2 1_555 1_555
H4_2 C3_2 1_555 1_555
C4_2 C3_2 1_555 1_555
H5_2 C4_2 1_555 1_555
H6_2 C4_2 1_555 1_555
C5_2 C4_2 1_555 1_555
H7_2 C5_2 1_555 1_555
H8_2 C5_2 1_555 1_555
C6_2 C5_2 1_555 1_555
Eu1_2 O2_2 1_555 1_555
O1_2 Eu1_2 1_555 1_555
O3_2 Eu1_2 1_555 1_555
O8B Eu1 1_555 1_555
Eu1_3 O5 1_555 1_555
Eu1B O8 1_555 1_555
Eu1B_2 O4B 1_555 1_555
Eu1B_3 O8_2 1_555 1_555
O4_2 Eu1_2 1_555 1_555
O5_3 Eu1_2 1_555 1_555
O7_2 Eu1_2 1_555 1_555
O8_3 Eu1_2 1_555 1_555
O8B_2 Eu1_2 1_555 1_555
O6 C6 1_555 1_555
O7 C7 1_555 1_555
O8 Eu1_3 1_555 1_555
C5 C6 1_555 1_555
O7B Eu1B_2 1_555 1_555
O6_2 Eu1_2 1_555 1_555
O8_2 C1_2 1_555 1_555
O8B Eu1B_3 1_555 1_555

#END
