
#######################################################################
#
#                 Cambridge Crystallographic Data Centre
#                                CCDC 
#
#######################################################################
#
# If this CIF has been generated from an entry in the Cambridge 
# Structural Database, then it will include bibliographic, chemical, 
# crystal, experimental, refinement or atomic coordinate data resulting 
# from the CCDC's data processing and validation procedures.
#
#######################################################################

data_EREGEN
_symmetry_cell_setting           triclinic
_symmetry_space_group_name_H-M   'P -1'
_symmetry_Int_Tables_number      2
_space_group_name_Hall           '-P 1'
loop_
_symmetry_equiv_pos_site_id
_symmetry_equiv_pos_as_xyz
1 x,y,z
2 -x,-y,-z
_cell_length_a                   8.262(13)
_cell_length_b                   8.821(13)
_cell_length_c                   11.317(14)
_cell_angle_alpha                92.83(1)
_cell_angle_beta                 109.98(1)
_cell_angle_gamma                94.56(1)
_cell_volume                     770.095
loop_
_atom_site_label
_atom_site_type_symbol
_atom_site_fract_x
_atom_site_fract_y
_atom_site_fract_z
Ni1 Ni 0.52128(5) 0.64893(5) 0.75761(4)
N1 N 0.3611(4) 0.7449(3) 0.8384(3)
C1 C 0.1912(5) 0.7497(5) 0.7766(4)
H1 H 0.1449 0.7111 0.6926
C2 C 0.0829(5) 0.8085(5) 0.8309(4)
H2 H -0.0332 0.8122 0.7831
C3 C 0.1458(5) 0.8629(4) 0.9576(4)
C4 C 0.3210(5) 0.8587(5) 1.0207(4)
H3 H 0.3699 0.8948 1.1052
C5 C 0.4236(5) 0.8012(5) 0.9591(4)
H4 H 0.5415 0.8016 1.0034
C6 C 0.0278(5) 0.9216(5) 1.0217(4)
H5 H -0.0743 0.8493 1.0025
H6 H 0.0870 0.9306 1.1123
N2 N 0.3624(4) 0.4500(4) 0.6932(3)
C7 C 0.3084(5) 0.4015(5) 0.5705(4)
H7 H 0.3496 0.4571 0.5171
C8 C 0.1943(6) 0.2726(5) 0.5200(4)
H8 H 0.1634 0.2413 0.4348
C9 C 0.1252(6) 0.1890(5) 0.5963(4)
C10 C 0.1841(8) 0.2392(6) 0.7225(4)
H9 H 0.1450 0.1858 0.7781
C11 C 0.2999(7) 0.3672(6) 0.7671(4)
H10 H 0.3367 0.3979 0.8527
C12 C -0.0190(7) 0.0578(6) 0.5428(5)
H11 H -0.0370 0.0074 0.6122
H12 H -0.1256 0.0995 0.4966
O1 O 0.6954(3) 0.5855(3) 0.9252(2)
C13 C 0.7917(5) 0.5408(4) 0.8668(4)
O2 O 0.7452(3) 0.5452(3) 0.7481(3)
C14 C 0.9645(5) 0.4921(5) 0.9378(4)
H13 H 1.0259 0.4483 0.8921
O3 O 0.4291(4) 0.7546(3) 0.5904(2)
O4 O 0.6462(3) 0.8733(3) 0.7476(2)
C15 C 0.5419(5) 1.0027(5) 0.5610(4)
H14 H 0.6062 1.0933 0.6022
C16 C 0.5379(5) 0.8688(4) 0.6367(3)
C6A C -0.0278(5) 1.0784(5) 0.9783(4)
C3A C -0.1458(5) 1.1371(4) 1.0424(4)
C2A C -0.0829(5) 1.1915(5) 1.1691(4)
C1A C -0.1912(5) 1.2503(5) 1.2234(4)
N1A N -0.3611(4) 1.2551(3) 1.1616(3)
C5A C -0.4236(5) 1.1988(5) 1.0409(4)
C4A C -0.3210(5) 1.1413(5) 0.9793(4)
H3A H -0.3699 1.1052 0.8948
H4A H -0.5415 1.1984 0.9966
H1A H -0.1449 1.2889 1.3074
H2A H 0.0332 1.1878 1.2169
H5A H 0.0743 1.1507 0.9975
H6A H -0.0870 1.0694 0.8877
C12A C 0.0190(7) -0.0578(6) 0.4572(5)
C9A C -0.1252(6) -0.1890(5) 0.4037(4)
C8A C -0.1943(6) -0.2726(5) 0.4800(4)
C7A C -0.3084(5) -0.4015(5) 0.4295(4)
N2A N -0.3624(4) -0.4500(4) 0.3068(3)
C11A C -0.2999(7) -0.3672(6) 0.2329(4)
C10A C -0.1841(8) -0.2392(6) 0.2775(4)
H9A H -0.1450 -0.1858 0.2219
H10A H -0.3367 -0.3979 0.1473
H7A H -0.3496 -0.4571 0.4829
H8A H -0.1634 -0.2413 0.5652
H11A H 0.0370 -0.0074 0.3878
H12A H 0.1256 -0.0995 0.5034
C14A C 1.0355(5) 0.5079(5) 1.0622(4)
C13A C 1.2083(5) 0.4592(4) 1.1332(4)
O1A O 1.3046(3) 0.4145(3) 1.0748(2)
O2A O 1.2548(3) 0.4548(3) 1.2519(3)
H13A H 0.9741 0.5517 1.1079
C15A C 0.4581(5) 0.9973(5) 0.4390(4)
H14A H 0.3938 0.9067 0.3978
C16A C 0.4621(5) 1.1312(4) 0.3633(3)
O3A O 0.5709(4) 1.2454(3) 0.4096(2)
O4A O 0.3538(3) 1.1267(3) 0.2524(2)
Ni1A Ni -0.52128(5) 1.35107(5) 1.24239(4)
Ni1A_2 Ni -0.52128(5) -0.64893(5) 0.24239(4)
Ni1A_3 Ni 1.47872(5) 0.35107(5) 1.24239(4)
Ni1A_4 Ni 0.47872(5) 1.35107(5) 0.24239(4)
N2A_2 N -0.3624(4) 1.5500(4) 1.3068(3)
O1A_2 O -0.6954(3) 1.4145(3) 1.0748(2)
O2A_2 O -0.7452(3) 1.4548(3) 1.2519(3)
O3A_2 O -0.4291(4) 1.2454(3) 1.4096(2)
O4A_2 O -0.6462(3) 1.1267(3) 1.2524(2)
loop_
_geom_bond_atom_site_label_1
_geom_bond_atom_site_label_2
_geom_bond_site_symmetry_1
_geom_bond_site_symmetry_2
Ni1 N1 1_555 1_555
N1 C1 1_555 1_555
C1 H1 1_555 1_555
C2 C1 1_555 1_555
H2 C2 1_555 1_555
C3 C2 1_555 1_555
C4 C3 1_555 1_555
H3 C4 1_555 1_555
C5 N1 1_555 1_555
H4 C5 1_555 1_555
C6 C3 1_555 1_555
H5 C6 1_555 1_555
H6 C6 1_555 1_555
N2 Ni1 1_555 1_555
C7 N2 1_555 1_555
H7 C7 1_555 1_555
C8 C7 1_555 1_555
H8 C8 1_555 1_555
C9 C8 1_555 1_555
C10 C9 1_555 1_555
H9 C10 1_555 1_555
C11 N2 1_555 1_555
H10 C11 1_555 1_555
C12 C9 1_555 1_555
H11 C12 1_555 1_555
H12 C12 1_555 1_555
O1 Ni1 1_555 1_555
C13 O1 1_555 1_555
O2 Ni1 1_555 1_555
C14 C13 1_555 1_555
H13 C14 1_555 1_555
O3 Ni1 1_555 1_555
O4 Ni1 1_555 1_555
C15 H14 1_555 1_555
C16 O3 1_555 1_555
C6A C6 1_555 1_555
C3A C6A 1_555 1_555
C2A C3A 1_555 1_555
C1A C2A 1_555 1_555
N1A C1A 1_555 1_555
C5A N1A 1_555 1_555
C4A C3A 1_555 1_555
H3A C4A 1_555 1_555
H4A C5A 1_555 1_555
H1A C1A 1_555 1_555
H2A C2A 1_555 1_555
H5A C6A 1_555 1_555
H6A C6A 1_555 1_555
C12A C12 1_555 1_555
C9A C12A 1_555 1_555
C8A C9A 1_555 1_555
C7A C8A 1_555 1_555
N2A C7A 1_555 1_555
C11A N2A 1_555 1_555
C10A C9A 1_555 1_555
H9A C10A 1_555 1_555
H10A C11A 1_555 1_555
H7A C7A 1_555 1_555
H8A C8A 1_555 1_555
H11A C12A 1_555 1_555
H12A C12A 1_555 1_555
C14A C14 1_555 1_555
C13A C14A 1_555 1_555
O1A C13A 1_555 1_555
O2A C13A 1_555 1_555
H13A C14A 1_555 1_555
C15A C15 1_555 1_555
H14A C15A 1_555 1_555
C16A C15A 1_555 1_555
O3A C16A 1_555 1_555
O4A C16A 1_555 1_555
Ni1A N1A 1_555 1_555
Ni1A_2 N2A 1_555 1_555
Ni1A_3 O1A 1_555 1_555
Ni1A_4 O3A 1_555 1_555
N2A_2 Ni1A 1_555 1_555
O1A_2 Ni1A 1_555 1_555
O2A_2 Ni1A 1_555 1_555
O3A_2 Ni1A 1_555 1_555
O4A_2 Ni1A 1_555 1_555
C4 C5 1_555 1_555
C10 C11 1_555 1_555
C13 O2 1_555 1_555
O4 C16 1_555 1_555
C15 C16 1_555 1_555
C5A C4A 1_555 1_555
C11A C10A 1_555 1_555
O2A Ni1A_3 1_555 1_555
O4A Ni1A_4 1_555 1_555

#END
