
#######################################################################
#
#                 Cambridge Crystallographic Data Centre
#                                CCDC 
#
#######################################################################
#
# If this CIF has been generated from an entry in the Cambridge 
# Structural Database, then it will include bibliographic, chemical, 
# crystal, experimental, refinement or atomic coordinate data resulting 
# from the CCDC's data processing and validation procedures.
#
#######################################################################

data_EREROJ
_symmetry_cell_setting           monoclinic
_symmetry_space_group_name_H-M   'P 21/c'
_symmetry_Int_Tables_number      14
_space_group_name_Hall           '-P 2ybc'
loop_
_symmetry_equiv_pos_site_id
_symmetry_equiv_pos_as_xyz
1 x,y,z
2 -x,1/2+y,1/2-z
3 -x,-y,-z
4 x,1/2-y,1/2+z
_cell_length_a                   8.3367(4)
_cell_length_b                   9.3131(5)
_cell_length_c                   8.4838(5)
_cell_angle_alpha                90
_cell_angle_beta                 92.352(3)
_cell_angle_gamma                90
_cell_volume                     658.132
loop_
_atom_site_label
_atom_site_type_symbol
_atom_site_fract_x
_atom_site_fract_y
_atom_site_fract_z
Cu1 Cu -0.87721(3) 0.23821(2) -0.10302(3)
O1 O -0.80090(16) 0.04677(14) -0.02324(17)
O2 O -0.90639(16) -0.15701(14) 0.06412(17)
O3 O -0.97708(18) 0.41685(14) -0.18398(16)
O4 O -1.08811(18) 0.62718(15) -0.12789(17)
N1 N -0.6552(2) 0.30160(19) -0.1281(2)
N2 N -0.3925(2) 0.2996(3) -0.1154(3)
H1 H -0.2956 0.2704 -0.0975
C1 C -0.9154(2) -0.03131(19) 0.0114(2)
C2 C -1.0193(2) 0.51365(19) -0.0895(2)
C3 C -0.5993(3) 0.4276(3) -0.1902(3)
H2 H -0.6631 0.5019 -0.2305
C4 C -0.4374(3) 0.4264(3) -0.1836(3)
H3 H -0.3699 0.4981 -0.2186
C5 C -0.5252(3) 0.2292(2) -0.0814(3)
H4 H -0.5266 0.1404 -0.0313
Cu1B Cu -1.12279(3) -0.23821(2) 0.10302(3)
Cu1A Cu -1.12279(3) 0.73821(2) -0.39698(3)
Cu1B_2 Cu -1.12279(3) 0.76179(2) 0.10302(3)
Cu1C Cu -0.87721(3) 0.26179(2) 0.39698(3)
O1B O -1.19910(16) -0.04677(14) 0.02324(17)
O2B O -1.09361(16) 0.15701(14) -0.06412(17)
O3B O -1.02292(18) 0.58315(14) 0.18398(16)
O3B_2 O -1.02292(18) -0.41685(14) 0.18398(16)
O4B O -0.91189(18) 0.37282(15) 0.12789(17)
O4A O -0.91189(18) 0.12718(15) -0.37211(17)
O4C O -1.08811(18) -0.12718(15) 0.37211(17)
O4_2 O -1.08811(18) -0.37282(15) -0.12789(17)
N1B N -1.3448(2) -0.30160(19) 0.1281(2)
N2B N -1.6075(2) -0.2996(3) 0.1154(3)
H1B H -1.7044 -0.2704 0.0975
C1B C -1.0846(2) 0.03131(19) -0.0114(2)
C2B C -0.9807(2) 0.48635(19) 0.0895(2)
C3B C -1.4007(3) -0.4276(3) 0.1902(3)
H2B H -1.3369 -0.5019 0.2305
C4B C -1.5626(3) -0.4264(3) 0.1836(3)
H3B H -1.6301 -0.4981 0.2186
C5B C -1.4748(3) -0.2292(2) 0.0814(3)
H4B H -1.4734 -0.1404 0.0313
loop_
_geom_bond_atom_site_label_1
_geom_bond_atom_site_label_2
_geom_bond_site_symmetry_1
_geom_bond_site_symmetry_2
Cu1 O1 1_555 1_555
O1 C1 1_555 1_555
O2 C1 1_555 1_555
O3 Cu1 1_555 1_555
O4 C2 1_555 1_555
N1 Cu1 1_555 1_555
N2 H1 1_555 1_555
C1 C1B 1_555 1_555
C2 O3 1_555 1_555
C3 N1 1_555 1_555
H2 C3 1_555 1_555
C4 N2 1_555 1_555
H3 C4 1_555 1_555
C5 N1 1_555 1_555
H4 C5 1_555 1_555
Cu1B O2 1_555 1_555
Cu1A O4 1_555 1_555
Cu1B_2 O4 1_555 1_555
Cu1C O4B 1_555 1_555
O1B Cu1B 1_555 1_555
O2B Cu1 1_555 1_555
O3B Cu1B_2 1_555 1_555
O3B_2 Cu1B 1_555 1_555
O4B Cu1 1_555 1_555
O4A Cu1 1_555 1_555
O4C Cu1B 1_555 1_555
O4_2 Cu1B 1_555 1_555
N1B Cu1B 1_555 1_555
N2B H1B 1_555 1_555
C1B O1B 1_555 1_555
C2B C2 1_555 1_555
C3B N1B 1_555 1_555
H2B C3B 1_555 1_555
C4B N2B 1_555 1_555
H3B C4B 1_555 1_555
C5B N1B 1_555 1_555
H4B C5B 1_555 1_555
N2 C5 1_555 1_555
C3 C4 1_555 1_555
O2B C1B 1_555 1_555
O3B C2B 1_555 1_555
O4B C2B 1_555 1_555
N2B C5B 1_555 1_555
C3B C4B 1_555 1_555

#END
