
#######################################################################
#
#                 Cambridge Crystallographic Data Centre
#                                CCDC 
#
#######################################################################
#
# If this CIF has been generated from an entry in the Cambridge 
# Structural Database, then it will include bibliographic, chemical, 
# crystal, experimental, refinement or atomic coordinate data resulting 
# from the CCDC's data processing and validation procedures.
#
#######################################################################

data_EREWII
_symmetry_cell_setting           monoclinic
_symmetry_space_group_name_H-M   'P 21/n'
_symmetry_Int_Tables_number      14
_space_group_name_Hall           '-P 2yn'
loop_
_symmetry_equiv_pos_site_id
_symmetry_equiv_pos_as_xyz
1 x,y,z
2 1/2-x,1/2+y,1/2-z
3 -x,-y,-z
4 1/2+x,1/2-y,1/2+z
_cell_length_a                   12.12410(10)
_cell_length_b                   16.5829(2)
_cell_length_c                   13.3893(2)
_cell_angle_alpha                90
_cell_angle_beta                 106.3701(6)
_cell_angle_gamma                90
_cell_volume                     2582.83
loop_
_atom_site_label
_atom_site_type_symbol
_atom_site_fract_x
_atom_site_fract_y
_atom_site_fract_z
Sn1 Sn 0.368458(10) 0.189545(7) 0.722727(9)
O1 O 0.27411(11) 0.13103(7) 0.81338(10)
O2 O 0.28459(11) 0.27891(8) 0.88378(11)
O3 O -0.01389(12) 0.27479(8) 1.10347(11)
O4 O 0.04948(13) -0.03179(8) 0.87527(11)
O5 O 0.15153(15) -0.00208(10) 0.77303(13)
N1 N 0.10833(14) 0.01628(9) 0.84212(12)
C1 C 0.38886(16) 0.07215(11) 0.66076(14)
H1 H 0.4702 0.0645 0.6619
H2 H 0.3691 0.0300 0.7052
C2 C 0.31382(16) 0.06304(11) 0.55183(14)
C3 C 0.3568(2) 0.07057(14) 0.46631(17)
H3 H 0.4368 0.0790 0.4768
C4 C 0.2842(2) 0.06586(17) 0.36588(18)
H4 H 0.3150 0.0714 0.3084
C5 C 0.1676(2) 0.05316(15) 0.34835(18)
H5 H 0.1183 0.0501 0.2793
C6 C 0.12380(18) 0.04503(12) 0.43205(18)
H6 H 0.0438 0.0361 0.4208
C7 C 0.19544(17) 0.04974(11) 0.53232(16)
H7 H 0.1639 0.0439 0.5893
C8 C 0.23785(17) 0.26471(12) 0.62210(16)
H8 H 0.2716 0.3188 0.6193
H9 H 0.2191 0.2419 0.5510
C9 C 0.12731(16) 0.27558(12) 0.65014(14)
C10 C 0.05093(18) 0.21194(12) 0.64538(16)
H10 H 0.0688 0.1603 0.6236
C11 C -0.05074(17) 0.22273(14) 0.67194(17)
H11 H -0.1013 0.1785 0.6689
C12 C -0.07859(19) 0.29776(14) 0.70286(18)
H12 H -0.1483 0.3053 0.7209
C13 C -0.00443(18) 0.36165(13) 0.70734(18)
H13 H -0.0233 0.4133 0.7285
C14 C 0.09776(17) 0.35095(12) 0.68101(15)
H14 H 0.1479 0.3955 0.6841
C15 C 0.51642(16) 0.22724(12) 0.84500(15)
H15 H 0.5502 0.2766 0.8240
H16 H 0.4943 0.2391 0.9092
C16 C 0.60161(16) 0.15935(12) 0.86363(14)
C17 C 0.59103(17) 0.09386(12) 0.92531(15)
H17 H 0.5317 0.0937 0.9589
C18 C 0.66561(18) 0.02880(13) 0.93860(16)
H18 H 0.6574 -0.0152 0.9814
C19 C 0.75189(19) 0.02786(15) 0.88964(17)
H19 H 0.8027 -0.0169 0.8981
C20 C 0.76353(18) 0.09220(15) 0.82865(17)
H20 H 0.8227 0.0917 0.7949
C21 C 0.69000(17) 0.15770(14) 0.81585(17)
H21 H 0.6999 0.2019 0.7741
C22 C 0.20411(15) 0.15092(11) 0.86575(13)
C23 C 0.20697(15) 0.23057(11) 0.91021(14)
C24 C 0.13811(15) 0.25138(11) 0.97130(14)
H22 H 0.1428 0.3039 1.0007
C25 C 0.05980(16) 0.19419(11) 0.99044(14)
C26 C 0.05257(16) 0.11815(11) 0.94786(14)
H23 H -0.0005 0.0802 0.9607
C27 C 0.12282(15) 0.09688(10) 0.88604(14)
C28 C -0.01506(17) 0.21211(12) 1.05483(16)
H24 H -0.0694 0.1721 1.0597
C29 C 0.28924(18) 0.36164(11) 0.91567(16)
H25 H 0.3482 0.3900 0.8920
H26 H 0.3083 0.3645 0.9917
H27 H 0.2143 0.3871 0.8851
Sn1C Sn -0.131542(10) 0.310455(7) 1.222727(9)
O3C O 0.48611(12) 0.22521(8) 0.60347(11)
loop_
_geom_bond_atom_site_label_1
_geom_bond_atom_site_label_2
_geom_bond_site_symmetry_1
_geom_bond_site_symmetry_2
Sn1 O1 1_555 1_555
O1 C22 1_555 1_555
O2 C23 1_555 1_555
O3 C28 1_555 1_555
O4 N1 1_555 1_555
O5 N1 1_555 1_555
N1 C27 1_555 1_555
C1 Sn1 1_555 1_555
H1 C1 1_555 1_555
H2 C1 1_555 1_555
C2 C1 1_555 1_555
C3 C2 1_555 1_555
H3 C3 1_555 1_555
C4 C3 1_555 1_555
H4 C4 1_555 1_555
C5 C4 1_555 1_555
H5 C5 1_555 1_555
C6 C5 1_555 1_555
H6 C6 1_555 1_555
C7 C2 1_555 1_555
H7 C7 1_555 1_555
C8 Sn1 1_555 1_555
H8 C8 1_555 1_555
H9 C8 1_555 1_555
C9 C8 1_555 1_555
C10 C9 1_555 1_555
H10 C10 1_555 1_555
C11 C10 1_555 1_555
H11 C11 1_555 1_555
C12 C11 1_555 1_555
H12 C12 1_555 1_555
C13 C12 1_555 1_555
H13 C13 1_555 1_555
C14 C9 1_555 1_555
H14 C14 1_555 1_555
C15 Sn1 1_555 1_555
H15 C15 1_555 1_555
H16 C15 1_555 1_555
C16 C15 1_555 1_555
C17 C16 1_555 1_555
H17 C17 1_555 1_555
C18 C17 1_555 1_555
H18 C18 1_555 1_555
C19 C18 1_555 1_555
H19 C19 1_555 1_555
C20 C19 1_555 1_555
H20 C20 1_555 1_555
C21 C16 1_555 1_555
H21 C21 1_555 1_555
C22 C23 1_555 1_555
C23 C24 1_555 1_555
C24 H22 1_555 1_555
C25 C24 1_555 1_555
C26 C25 1_555 1_555
H23 C26 1_555 1_555
C27 C22 1_555 1_555
C28 C25 1_555 1_555
H24 C28 1_555 1_555
C29 O2 1_555 1_555
H25 C29 1_555 1_555
H26 C29 1_555 1_555
H27 C29 1_555 1_555
Sn1C O3 1_555 1_555
O3C Sn1 1_555 1_555
C6 C7 1_555 1_555
C13 C14 1_555 1_555
C20 C21 1_555 1_555
C26 C27 1_555 1_555

#END
