
#######################################################################
#
#                 Cambridge Crystallographic Data Centre
#                                CCDC 
#
#######################################################################
#
# If this CIF has been generated from an entry in the Cambridge 
# Structural Database, then it will include bibliographic, chemical, 
# crystal, experimental, refinement or atomic coordinate data resulting 
# from the CCDC's data processing and validation procedures.
#
#######################################################################

data_EREXAB
_symmetry_cell_setting           monoclinic
_symmetry_space_group_name_H-M   'C c'
_symmetry_Int_Tables_number      9
_space_group_name_Hall           'C -2yc'
loop_
_symmetry_equiv_pos_site_id
_symmetry_equiv_pos_as_xyz
1 x,y,z
2 x,-y,1/2+z
3 1/2+x,1/2+y,z
4 1/2+x,1/2-y,1/2+z
_cell_length_a                   17.8778(2)
_cell_length_b                   16.6364(2)
_cell_length_c                   13.26550(10)
_cell_angle_alpha                90
_cell_angle_beta                 92.6420(10)
_cell_angle_gamma                90
_cell_volume                     3941.26
loop_
_atom_site_label
_atom_site_type_symbol
_atom_site_fract_x
_atom_site_fract_y
_atom_site_fract_z
Zn1 Zn 0.40049(2) 0.236430(19) 0.71677(3)
N1 N 0.49072(19) 0.23781(19) 0.6124(3)
O1 O 0.33507(14) 0.17132(17) 0.6136(2)
O2 O 0.34888(16) 0.35868(16) 0.6198(2)
C1 C 0.6136(2) 0.2535(2) 0.4895(3)
C2 C 0.4819(2) 0.2425(3) 0.5126(3)
H1 H 0.4336 0.2408 0.4836
C3 C 0.6799(2) 0.2591(2) 0.4261(3)
C4 C 0.3480(2) 0.6166(2) 0.7172(3)
C5 C 0.7489(2) 0.2815(2) 0.4668(3)
H2 H 0.7546 0.2954 0.5346
C6 C 0.5609(3) 0.2407(3) 0.6506(3)
H3 H 0.5689 0.2376 0.7203
C7 C 0.54545(18) 0.0765(2) 0.9012(2)
C8 C 0.3374(2) 0.5255(2) 0.7198(3)
H4 H 0.2933 0.5109 0.6784
H5 H 0.3296 0.5084 0.7884
C9 C 0.6481(2) 0.1194(3) 1.0717(3)
H6 H 0.6369 0.1762 1.0771
H7 H 0.6859 0.1058 1.1236
O3 O 0.74338(14) 0.14821(19) 0.9501(2)
H8 H 0.7727 0.1453 0.9993
O4 O 0.42651(15) 0.35127(16) 0.7520(2)
C10 C 0.6213(3) 0.2479(3) 0.5933(4)
H9 H 0.6689 0.2490 0.6245
O5 O 0.38659(15) 0.05103(16) 0.6003(2)
H10 H 0.4219 0.0611 0.6435
C11 C 0.3919(2) 0.3914(2) 0.6833(3)
C12 C 0.61765(18) 0.1252(2) 0.8871(3)
H11 H 0.6361 0.1148 0.8207
H12 H 0.6069 0.1822 0.8920
C13 C 0.3097(2) 0.1414(2) 0.3941(3)
H13 H 0.3058 0.1972 0.4147
H14 H 0.3611 0.1312 0.3776
C14 C 0.2442(3) -0.0157(2) 0.3534(4)
H15 H 0.2491 -0.0718 0.3320
O6 O 0.46501(15) 0.17339(19) 0.8196(2)
C15 C 0.6747(3) 0.2418(3) 0.3243(4)
H16 H 0.6290 0.2272 0.2933
C16 C 0.5637(2) -0.0133(2) 0.8930(3)
H17 H 0.5188 -0.0448 0.9022
H18 H 0.5813 -0.0250 0.8265
C17 C 0.5409(2) 0.2496(3) 0.4499(3)
H19 H 0.5316 0.2518 0.3804
C18 C 0.28800(19) 0.0859(2) 0.4816(3)
C19 C 0.2579(2) 0.1262(2) 0.3016(3)
C20 C 0.5172(2) 0.0942(3) 1.0063(3)
H20 H 0.5059 0.1510 1.0121
H21 H 0.4716 0.0642 1.0163
C21 C 0.6940(2) 0.0121(2) 0.9582(3)
H22 H 0.7120 0.0012 0.8917
H23 H 0.7328 -0.0034 1.0079
C22 C 0.1781(2) 0.1421(2) 0.3269(3)
H24 H 0.1453 0.1331 0.2677
H25 H 0.1727 0.1977 0.3474
C23 C 0.1637(3) -0.0001(3) 0.3796(4)
H26 H 0.1305 -0.0107 0.3213
H27 H 0.1501 -0.0357 0.4337
C24 C 0.4178(2) 0.5102(3) 0.5727(3)
H28 H 0.3749 0.4949 0.5295
H29 H 0.4618 0.4842 0.5474
C25 C 0.3601(2) 0.6431(2) 0.6105(3)
H30 H 0.3673 0.7008 0.6089
H31 H 0.3160 0.6303 0.5680
C26 C 0.2954(3) -0.0014(2) 0.4472(3)
H32 H 0.3470 -0.0124 0.4319
H33 H 0.2817 -0.0373 0.5009
C27 C 0.5774(2) 0.0703(3) 1.0867(3)
H34 H 0.5591 0.0811 1.1540
C28 C 0.2070(2) 0.1033(3) 0.5065(3)
H35 H 0.2021 0.1590 0.5269
H36 H 0.1927 0.0694 0.5619
C29 C 0.5954(3) -0.0193(3) 1.0770(3)
H37 H 0.6330 -0.0346 1.1285
H38 H 0.5507 -0.0508 1.0869
C30 C 0.2659(3) 0.0384(2) 0.2694(3)
H39 H 0.2339 0.0281 0.2097
H40 H 0.3172 0.0278 0.2529
C31 C 0.34004(18) 0.1055(2) 0.5728(2)
C32 C 0.40623(18) 0.4824(2) 0.6804(3)
O7 O 0.28053(17) 0.17504(18) 0.21918(19)
H41 H 0.2791 0.2226 0.2353
C33 C 0.4852(2) 0.5973(2) 0.7440(4)
H42 H 0.5291 0.6120 0.7871
C34 C 0.67741(19) 0.1016(2) 0.9682(3)
C35 C 0.4164(2) 0.6388(2) 0.7831(3)
H43 H 0.4092 0.6224 0.8521
H44 H 0.4235 0.6966 0.7822
C36 C 0.4746(2) 0.5069(3) 0.7476(4)
H45 H 0.4675 0.4901 0.8166
H46 H 0.5190 0.4804 0.7245
C37 C 0.4279(3) 0.6016(3) 0.5697(4)
H47 H 0.4347 0.6191 0.5002
C38 C 0.6240(2) -0.0364(2) 0.9738(3)
H48 H 0.6355 -0.0938 0.9681
C39 C 0.4973(3) 0.6246(3) 0.6368(5)
H49 H 0.5415 0.5990 0.6119
H50 H 0.5047 0.6824 0.6353
C40 C 0.1556(2) 0.0865(3) 0.4123(4)
H51 H 0.1035 0.0969 0.4279
N2 N 0.80564(18) 0.26537(18) 0.3092(2)
C41 C 0.7389(3) 0.2465(3) 0.2685(4)
H52 H 0.7347 0.2358 0.1996
O8 O 0.28231(15) 0.65761(16) 0.7492(2)
H53 H 0.2777 0.6498 0.8096
C42 C 0.48627(19) 0.1019(2) 0.8201(3)
O9 O 0.46364(17) 0.04954(18) 0.7576(2)
C43 C 0.8096(2) 0.2832(2) 0.4060(3)
H54 H 0.8560 0.2977 0.4351
Zn1C Zn 0.90049(2) 0.263570(19) 0.21677(3)
N2C N 0.30564(18) 0.23463(18) 0.8092(2)
O10 O 0.4470(4) 0.1457(5) 0.2261(7)
H55 H 0.4019 0.1602 0.2137
H56 H 0.4517 0.0953 0.2344
loop_
_geom_bond_atom_site_label_1
_geom_bond_atom_site_label_2
_geom_bond_site_symmetry_1
_geom_bond_site_symmetry_2
Zn1 N1 1_555 1_555
N1 C2 1_555 1_555
O1 Zn1 1_555 1_555
O2 C11 1_555 1_555
C1 C3 1_555 1_555
C2 H1 1_555 1_555
C3 C5 1_555 1_555
C4 C8 1_555 1_555
C5 H2 1_555 1_555
C6 N1 1_555 1_555
H3 C6 1_555 1_555
C7 C12 1_555 1_555
C8 H4 1_555 1_555
H5 C8 1_555 1_555
C9 H6 1_555 1_555
H7 C9 1_555 1_555
O3 H8 1_555 1_555
O4 Zn1 1_555 1_555
C10 C1 1_555 1_555
H9 C10 1_555 1_555
O5 H10 1_555 1_555
C11 O4 1_555 1_555
C12 H11 1_555 1_555
H12 C12 1_555 1_555
C13 H13 1_555 1_555
H14 C13 1_555 1_555
C14 H15 1_555 1_555
O6 Zn1 1_555 1_555
C15 C3 1_555 1_555
H16 C15 1_555 1_555
C16 C7 1_555 1_555
H17 C16 1_555 1_555
H18 C16 1_555 1_555
C17 C1 1_555 1_555
H19 C17 1_555 1_555
C18 C13 1_555 1_555
C19 C13 1_555 1_555
C20 C7 1_555 1_555
H20 C20 1_555 1_555
H21 C20 1_555 1_555
C21 H22 1_555 1_555
H23 C21 1_555 1_555
C22 C19 1_555 1_555
H24 C22 1_555 1_555
H25 C22 1_555 1_555
C23 C14 1_555 1_555
H26 C23 1_555 1_555
H27 C23 1_555 1_555
C24 H28 1_555 1_555
H29 C24 1_555 1_555
C25 C4 1_555 1_555
H30 C25 1_555 1_555
H31 C25 1_555 1_555
C26 C14 1_555 1_555
H32 C26 1_555 1_555
H33 C26 1_555 1_555
C27 C9 1_555 1_555
H34 C27 1_555 1_555
C28 C18 1_555 1_555
H35 C28 1_555 1_555
H36 C28 1_555 1_555
C29 C27 1_555 1_555
H37 C29 1_555 1_555
H38 C29 1_555 1_555
C30 C14 1_555 1_555
H39 C30 1_555 1_555
H40 C30 1_555 1_555
C31 O1 1_555 1_555
C32 C8 1_555 1_555
O7 C19 1_555 1_555
H41 O7 1_555 1_555
C33 H42 1_555 1_555
C34 C9 1_555 1_555
C35 C4 1_555 1_555
H43 C35 1_555 1_555
H44 C35 1_555 1_555
C36 C32 1_555 1_555
H45 C36 1_555 1_555
H46 C36 1_555 1_555
C37 C24 1_555 1_555
H47 C37 1_555 1_555
C38 C16 1_555 1_555
H48 C38 1_555 1_555
C39 C33 1_555 1_555
H49 C39 1_555 1_555
H50 C39 1_555 1_555
C40 C22 1_555 1_555
H51 C40 1_555 1_555
N2 C41 1_555 1_555
C41 C15 1_555 1_555
H52 C41 1_555 1_555
O8 C4 1_555 1_555
H53 O8 1_555 1_555
C42 C7 1_555 1_555
O9 C42 1_555 1_555
C43 C5 1_555 1_555
H54 C43 1_555 1_555
O10 H55 1_555 1_555
H56 O10 1_555 1_555
Zn1C N2 1_555 1_555
N2C Zn1 1_555 1_555
C2 C17 1_555 1_555
C6 C10 1_555 1_555
O3 C34 1_555 1_555
O5 C31 1_555 1_555
C11 C32 1_555 1_555
C12 C34 1_555 1_555
O6 C42 1_555 1_555
C18 C26 1_555 1_555
C18 C31 1_555 1_555
C19 C30 1_555 1_555
C20 C27 1_555 1_555
C21 C34 1_555 1_555
C21 C38 1_555 1_555
C23 C40 1_555 1_555
C24 C32 1_555 1_555
C25 C37 1_555 1_555
C28 C40 1_555 1_555
C29 C38 1_555 1_555
C33 C35 1_555 1_555
C33 C36 1_555 1_555
C37 C39 1_555 1_555
N2 C43 1_555 1_555

#END
