
#######################################################################
#
#                 Cambridge Crystallographic Data Centre
#                                CCDC 
#
#######################################################################
#
# If this CIF has been generated from an entry in the Cambridge 
# Structural Database, then it will include bibliographic, chemical, 
# crystal, experimental, refinement or atomic coordinate data resulting 
# from the CCDC's data processing and validation procedures.
#
#######################################################################

data_EREYOQ
_symmetry_cell_setting           triclinic
_symmetry_space_group_name_H-M   'P -1'
_symmetry_Int_Tables_number      2
_space_group_name_Hall           '-P 1'
loop_
_symmetry_equiv_pos_site_id
_symmetry_equiv_pos_as_xyz
1 x,y,z
2 -x,-y,-z
_cell_length_a                   7.6529(5)
_cell_length_b                   9.3969(6)
_cell_length_c                   14.0198(9)
_cell_angle_alpha                74.4100(10)
_cell_angle_beta                 87.060(2)
_cell_angle_gamma                71.5810(10)
_cell_volume                     920.748
loop_
_atom_site_label
_atom_site_type_symbol
_atom_site_fract_x
_atom_site_fract_y
_atom_site_fract_z
Cd1 Cd 0.47375(5) 1.16457(5) 0.24196(3)
C1 C 0.7499(8) 0.9542(7) 0.3709(4)
C2 C 1.1656(8) 0.6169(7) 0.4914(4)
H1 H 1.2521 0.5317 0.4764
C3 C 1.0287(8) 0.7160(7) 0.4228(4)
H2 H 1.0244 0.6995 0.3606
C4 C 0.8966(8) 0.8412(7) 0.4467(4)
C5 C 0.9054(8) 0.8616(7) 0.5403(4)
H3 H 0.8164 0.9424 0.5585
C6 C 1.0467(8) 0.7616(6) 0.6065(4)
H4 H 1.0537 0.7760 0.6691
C7 C 1.3272(8) 0.5417(7) 0.6535(4)
H5 H 1.3690 0.6045 0.6861
H6 H 1.4298 0.4894 0.6187
C8 C 1.2649(8) 0.4214(7) 0.7305(4)
H7 H 1.2521 0.3430 0.7008
H8 H 1.1457 0.4711 0.7539
C9 C 1.4043(8) 0.3444(7) 0.8174(4)
H9 H 1.5276 0.3192 0.7923
H10 H 1.3945 0.4173 0.8565
C10 C 1.3755(8) 0.1972(7) 0.8834(4)
H11 H 1.3859 0.1243 0.8442
H12 H 1.4723 0.1495 0.9349
C11 C 1.1690(8) 0.2881(7) 1.0082(4)
H13 H 1.2593 0.3246 1.0254
C12 C 1.0140(8) 0.2988(7) 1.0617(4)
H14 H 0.9988 0.3416 1.1153
C13 C 0.8779(8) 0.2448(6) 1.0353(4)
C14 C 0.9010(8) 0.1903(7) 0.9516(4)
H15 H 0.8086 0.1604 0.9299
C15 C 1.0608(8) 0.1803(7) 0.9003(4)
H16 H 1.0771 0.1422 0.8446
C16 C 0.7200(8) 0.2339(7) 1.1034(4)
N1 N 1.1736(7) 0.6442(6) 0.5809(3)
N2 N 1.1936(6) 0.2255(5) 0.9307(3)
O1 O 0.7496(6) 0.9313(5) 0.2877(3)
O2 O 0.6345(6) 1.0670(5) 0.3958(3)
O3 O 0.6036(6) 0.1791(5) 1.0807(3)
O4 O 0.7215(6) 0.2727(5) 1.1822(3)
Br1 Br 0.24542(9) 1.43346(8) 0.24021(6)
Br2 Br 0.26563(10) 0.98804(8) 0.25061(5)
Cd1_2 Cd 0.47375(5) 0.16457(5) 1.24196(3)
O3_2 O 0.6036(6) 1.1791(5) 0.0807(3)
O4_2 O 0.7215(6) 1.2727(5) 0.1822(3)
O5 O 0.4919(7) 0.2586(5) 0.5341(3)
H17 H 0.529(11) 0.199(8) 0.497(5)
H18 H 0.539(11) 0.207(9) 0.590(3)
loop_
_geom_bond_atom_site_label_1
_geom_bond_atom_site_label_2
_geom_bond_site_symmetry_1
_geom_bond_site_symmetry_2
Cd1 O1 1_555 1_555
C1 C4 1_555 1_555
C2 H1 1_555 1_555
C3 C2 1_555 1_555
H2 C3 1_555 1_555
C4 C3 1_555 1_555
C5 C4 1_555 1_555
H3 C5 1_555 1_555
C6 C5 1_555 1_555
H4 C6 1_555 1_555
C7 H5 1_555 1_555
H6 C7 1_555 1_555
C8 C7 1_555 1_555
H7 C8 1_555 1_555
H8 C8 1_555 1_555
C9 C8 1_555 1_555
H9 C9 1_555 1_555
H10 C9 1_555 1_555
C10 C9 1_555 1_555
H11 C10 1_555 1_555
H12 C10 1_555 1_555
C11 H13 1_555 1_555
C12 C11 1_555 1_555
H14 C12 1_555 1_555
C13 C12 1_555 1_555
C14 C13 1_555 1_555
H15 C14 1_555 1_555
C15 C14 1_555 1_555
H16 C15 1_555 1_555
C16 C13 1_555 1_555
N1 C2 1_555 1_555
N2 C10 1_555 1_555
O1 C1 1_555 1_555
O2 Cd1 1_555 1_555
O3 C16 1_555 1_555
O4 C16 1_555 1_555
Br1 Cd1 1_555 1_555
Br2 Cd1 1_555 1_555
O5 H17 1_555 1_555
H18 O5 1_555 1_555
Cd1_2 O3 1_555 1_555
O3_2 Cd1 1_555 1_555
O4_2 Cd1 1_555 1_555
C1 O2 1_555 1_555
C6 N1 1_555 1_555
C7 N1 1_555 1_555
C11 N2 1_555 1_555
C15 N2 1_555 1_555
O4 Cd1_2 1_555 1_555

#END
