
#######################################################################
#
#                 Cambridge Crystallographic Data Centre
#                                CCDC 
#
#######################################################################
#
# If this CIF has been generated from an entry in the Cambridge 
# Structural Database, then it will include bibliographic, chemical, 
# crystal, experimental, refinement or atomic coordinate data resulting 
# from the CCDC's data processing and validation procedures.
#
#######################################################################

data_ERICUE
_symmetry_cell_setting           monoclinic
_symmetry_space_group_name_H-M   'P 2/c'
_symmetry_Int_Tables_number      13
_space_group_name_Hall           '-P 2yc'
loop_
_symmetry_equiv_pos_site_id
_symmetry_equiv_pos_as_xyz
1 x,y,z
2 -x,y,1/2-z
3 -x,-y,-z
4 x,-y,1/2+z
_cell_length_a                   12.5052(6)
_cell_length_b                   10.9917(5)
_cell_length_c                   13.1837(6)
_cell_angle_alpha                90
_cell_angle_beta                 91.6800(10)
_cell_angle_gamma                90
_cell_volume                     1811.37
loop_
_atom_site_label
_atom_site_type_symbol
_atom_site_fract_x
_atom_site_fract_y
_atom_site_fract_z
Ru1 Ru 0.710023(8) 0.198037(9) 0.478554(8)
Cl1 Cl 0.85124(3) 0.11358(3) 0.38991(3)
Cl2 Cl 0.58872(3) 0.05284(3) 0.41162(2)
Cl3 Cl 0.56492(3) 0.28961(3) 0.56229(3)
Cl4 Cl 0.81971(3) 0.35246(3) 0.54845(3)
S1 S 0.75569(3) 0.07509(3) 0.61274(2)
S2 S 0.15245(3) 0.26924(4) 0.56476(3)
Na1 Na 0.39260(5) 0.17477(5) 0.47975(4)
O1 O 0.72781(9) -0.05555(9) 0.60442(8)
O2 O 0.27052(9) 0.29182(10) 0.56554(9)
N1 N 0.67216(9) 0.30751(10) 0.35040(9)
N2 N 0.63506(11) 0.31171(11) 0.17229(9)
C1 C 0.65932(11) 0.42887(13) 0.35492(11)
H1 H 0.6663 0.4691 0.4185
C2 C 0.63608(12) 0.49591(13) 0.26817(12)
H2 H 0.6289 0.5819 0.2706
C3 C 0.62363(12) 0.43273(13) 0.17765(11)
H3 H 0.6064 0.4767 0.1173
C4 C 0.66019(11) 0.25468(13) 0.25867(10)
H4 H 0.6706 0.1692 0.2554
C5 C 0.70393(15) 0.12935(16) 0.72786(12)
H5 H 0.7338 0.0815 0.7846
H6 H 0.6258 0.1216 0.7256
H7 H 0.7235 0.2150 0.7371
C6 C 0.89514(13) 0.07824(16) 0.64379(13)
H8 H 0.9099 0.0267 0.7032
H9 H 0.9172 0.1620 0.6591
H10 H 0.9351 0.0478 0.5862
C7 C 0.10238(14) 0.30545(16) 0.44103(14)
H11 H 0.1303 0.2470 0.3923
H12 H 0.1252 0.3877 0.4229
H13 H 0.0241 0.3016 0.4396
C8 C 0.09779(13) 0.39468(17) 0.63121(13)
H14 H 0.1257 0.3946 0.7015
H15 H 0.0196 0.3877 0.6307
H16 H 0.1179 0.4707 0.5980
Cl2B Cl 0.41128(3) -0.05284(3) 0.58838(2)
Na1B Na 0.60740(5) -0.17477(5) 0.52025(4)
Na1A Na 0.60740(5) 0.17477(5) 0.02025(4)
O1B O 0.27219(9) 0.05555(9) 0.39558(8)
N2A N 0.36494(11) 0.31171(11) 0.32771(9)
loop_
_geom_bond_atom_site_label_1
_geom_bond_atom_site_label_2
_geom_bond_site_symmetry_1
_geom_bond_site_symmetry_2
Ru1 Cl1 1_555 1_555
Cl2 Ru1 1_555 1_555
Cl3 Ru1 1_555 1_555
Cl4 Ru1 1_555 1_555
S1 Ru1 1_555 1_555
S2 O2 1_555 1_555
Na1 Cl2 1_555 1_555
O1 S1 1_555 1_555
O2 Na1 1_555 1_555
N1 Ru1 1_555 1_555
N2 C3 1_555 1_555
C1 N1 1_555 1_555
H1 C1 1_555 1_555
C2 C1 1_555 1_555
H2 C2 1_555 1_555
C3 C2 1_555 1_555
H3 C3 1_555 1_555
C4 N1 1_555 1_555
H4 C4 1_555 1_555
C5 S1 1_555 1_555
H5 C5 1_555 1_555
H6 C5 1_555 1_555
H7 C5 1_555 1_555
C6 S1 1_555 1_555
H8 C6 1_555 1_555
H9 C6 1_555 1_555
H10 C6 1_555 1_555
C7 S2 1_555 1_555
H11 C7 1_555 1_555
H12 C7 1_555 1_555
H13 C7 1_555 1_555
C8 S2 1_555 1_555
H14 C8 1_555 1_555
H15 C8 1_555 1_555
H16 C8 1_555 1_555
Cl2B Na1 1_555 1_555
Na1B Cl2 1_555 1_555
Na1A N2 1_555 1_555
O1B Na1 1_555 1_555
N2A Na1 1_555 1_555
Cl3 Na1 1_555 1_555
O1 Na1B 1_555 1_555
N2 C4 1_555 1_555
Cl2B Na1B 1_555 1_555

#END
