
#######################################################################
#
#                 Cambridge Crystallographic Data Centre
#                                CCDC 
#
#######################################################################
#
# If this CIF has been generated from an entry in the Cambridge 
# Structural Database, then it will include bibliographic, chemical, 
# crystal, experimental, refinement or atomic coordinate data resulting 
# from the CCDC's data processing and validation procedures.
#
#######################################################################

data_ERICOY
_symmetry_cell_setting           monoclinic
_symmetry_space_group_name_H-M   'P 21/c'
_symmetry_Int_Tables_number      14
_space_group_name_Hall           '-P 2ybc'
loop_
_symmetry_equiv_pos_site_id
_symmetry_equiv_pos_as_xyz
1 x,y,z
2 -x,1/2+y,1/2-z
3 -x,-y,-z
4 x,1/2-y,1/2+z
_cell_length_a                   13.127(2)
_cell_length_b                   9.5571(14)
_cell_length_c                   6.7557(10)
_cell_angle_alpha                90
_cell_angle_beta                 99.587(2)
_cell_angle_gamma                90
_cell_volume                     835.707
loop_
_atom_site_label
_atom_site_type_symbol
_atom_site_fract_x
_atom_site_fract_y
_atom_site_fract_z
C1 C 0.7560(4) 0.3072(4) 0.2539(9)
C2 C 0.6729(3) 0.2152(5) 0.2241(10)
H1 H 0.6058 0.2496 0.1959
C3 C 0.6901(4) 0.0717(4) 0.2362(9)
C4 C 0.7904(4) 0.0203(4) 0.2783(9)
C5 C 0.8736(3) 0.1123(6) 0.3081(9)
H2 H 0.9407 0.0779 0.3363
C6 C 0.8564(4) 0.2558(5) 0.2959(9)
Pb1 Pb 0.62381(3) 0.62780(3) 0.17812(5)
N1 N 0.7597(7) 0.4523(8) 0.2560(13)
C7 C 0.8566(8) 0.4844(11) 0.2927(15)
H3 H 0.8810 0.5759 0.3003
N2 N 0.9199(8) 0.3693(7) 0.3195(14)
H4 H 0.9863 0.3690 0.3459
C8 C 0.8123(9) -0.1314(8) 0.3226(17)
O1 O 0.8944(6) -0.1832(8) 0.2949(13)
C9 C 0.6000(7) -0.0282(8) 0.1935(12)
O2 O 0.5921(6) -0.1031(6) 0.0387(11)
O3 O 0.5389(5) -0.0325(6) 0.3196(9)
O4 O 0.7406(4) -0.2011(6) 0.3876(9)
Pb1_2 Pb 0.62381(3) -0.37220(3) 0.17812(5)
Pb1C Pb 0.62381(3) -0.12780(3) -0.32188(5)
Pb1A Pb 0.37619(3) 0.12780(3) 0.32188(5)
Pb1C_2 Pb 0.62381(3) -0.12780(3) 0.67812(5)
O2_2 O 0.5921(6) 0.8969(6) 0.0387(11)
O2C O 0.5921(6) 0.6031(6) 0.5387(11)
O3A O 0.4611(5) 0.4675(6) 0.1804(9)
O3C O 0.5389(5) 0.5325(6) -0.1804(9)
O4_2 O 0.7406(4) 0.7989(6) 0.3876(9)
O4C O 0.7406(4) 0.7011(6) -0.1124(9)
loop_
_geom_bond_atom_site_label_1
_geom_bond_atom_site_label_2
_geom_bond_site_symmetry_1
_geom_bond_site_symmetry_2
C1 C2 1_555 1_555
C2 H1 1_555 1_555
C3 C2 1_555 1_555
C4 C3 1_555 1_555
C5 C4 1_555 1_555
H2 C5 1_555 1_555
C6 C1 1_555 1_555
Pb1 N1 1_555 1_555
N1 C1 1_555 1_555
C7 N1 1_555 1_555
H3 C7 1_555 1_555
N2 C6 1_555 1_555
H4 N2 1_555 1_555
C8 C4 1_555 1_555
O1 C8 1_555 1_555
C9 C3 1_555 1_555
O2 C9 1_555 1_555
O3 C9 1_555 1_555
O4 C8 1_555 1_555
Pb1_2 O2 1_555 1_555
Pb1C O2 1_555 1_555
Pb1A O3 1_555 1_555
Pb1C_2 O3 1_555 1_555
O2_2 Pb1 1_555 1_555
O2C Pb1 1_555 1_555
O3A Pb1 1_555 1_555
O3C Pb1 1_555 1_555
O4_2 Pb1 1_555 1_555
O4C Pb1 1_555 1_555
C5 C6 1_555 1_555
C7 N2 1_555 1_555
O4 Pb1_2 1_555 1_555
O4 Pb1C_2 1_555 1_555

#END
