
#######################################################################
#
#                 Cambridge Crystallographic Data Centre
#                                CCDC 
#
#######################################################################
#
# If this CIF has been generated from an entry in the Cambridge 
# Structural Database, then it will include bibliographic, chemical, 
# crystal, experimental, refinement or atomic coordinate data resulting 
# from the CCDC's data processing and validation procedures.
#
#######################################################################

data_ERIGER
_symmetry_cell_setting           rhombohedral
_symmetry_space_group_name_H-M   'R -3'
_symmetry_Int_Tables_number      148
_space_group_name_Hall           '-R 3'
loop_
_symmetry_equiv_pos_site_id
_symmetry_equiv_pos_as_xyz
1 x,y,z
2 -y,x-y,z
3 -x+y,-x,z
4 2/3+x,1/3+y,1/3+z
5 2/3-y,1/3+x-y,1/3+z
6 2/3-x+y,1/3-x,1/3+z
7 1/3+x,2/3+y,2/3+z
8 2/3+y,1/3-x+y,1/3-z
9 2/3+x-y,1/3+x,1/3-z
10 -x,-y,-z
11 y,-x+y,-z
12 x-y,x,-z
13 1/3-x,2/3-y,2/3-z
14 1/3+y,2/3-x+y,2/3-z
15 1/3+x-y,2/3+x,2/3-z
16 2/3-x,1/3-y,1/3-z
17 1/3-y,2/3+x-y,2/3+z
18 1/3-x+y,2/3-x,2/3+z
_cell_length_a                   29.9011(10)
_cell_length_b                   29.9011(10)
_cell_length_c                   11.7415(6)
_cell_angle_alpha                90
_cell_angle_beta                 90
_cell_angle_gamma                120.00
_cell_volume                     9091.35
loop_
_atom_site_label
_atom_site_type_symbol
_atom_site_fract_x
_atom_site_fract_y
_atom_site_fract_z
Ag1 Ag 0.074854(10) 0.722462(10) 0.57835(2)
C1 C 0.10099(11) 0.64835(11) 0.3886(2)
C2 C 0.11554(12) 0.61963(12) 0.3005(2)
H1 H 0.1449 0.6449 0.2537
H2 H 0.1264 0.5974 0.3403
C3 C 0.08392(13) 0.55629(13) 0.1596(3)
H3 H 0.0881 0.5315 0.2080
H4 H 0.1165 0.5775 0.1174
C4 C 0.04025(12) 0.52746(12) 0.0771(3)
C5 C 0.05042(12) 0.52685(11) -0.0382(3)
H5 H 0.0850 0.5453 -0.0652
C6 C -0.01050(13) 0.50052(12) 0.1138(2)
H6 H -0.0180 0.5009 0.1923
C7 C 0.19030(13) 0.67619(15) 0.4664(3)
H7 H 0.2013 0.6598 0.4131
C8 C 0.21726(14) 0.70428(15) 0.5575(3)
H8 H 0.2507 0.7118 0.5810
C9 C 0.18571(12) 0.71978(13) 0.6093(3)
H9 H 0.1947 0.7403 0.6763
C10 C 0.08730(12) 0.69278(12) 0.2203(2)
H10 H 0.1018 0.6822 0.1615
C11 C 0.06349(12) 0.72081(12) 0.2074(3)
H11 H 0.0579 0.7338 0.1383
C12 C 0.04883(12) 0.72671(12) 0.3162(3)
H12 H 0.0315 0.7452 0.3330
C13 C 0.05768(14) 0.59087(13) 0.5601(3)
H13 H 0.0874 0.5990 0.6043
C14 C 0.00793(15) 0.55653(14) 0.5877(3)
H14 H -0.0042 0.5359 0.6544
C15 C -0.02156(14) 0.55800(13) 0.4978(3)
H15 H -0.0581 0.5380 0.4939
N1 N 0.14170(10) 0.70266(10) 0.5545(2)
N2 N 0.14484(9) 0.67555(10) 0.4648(2)
N3 N 0.06208(10) 0.70331(10) 0.3931(2)
N4 N 0.08660(9) 0.68256(9) 0.3338(2)
N5 N 0.00803(10) 0.59096(10) 0.4185(2)
N6 N 0.05683(9) 0.61128(9) 0.45782(19)
O4 O 0.07277(8) 0.58898(8) 0.22956(17)
C6I C 0.01050(13) 0.49948(12) -0.1138(2)
C4I C -0.04025(12) 0.47254(12) -0.0771(3)
C3I C -0.08392(13) 0.44371(13) -0.1596(3)
H3I H -0.0881 0.4685 -0.2080
H4I H -0.1165 0.4225 -0.1174
O4I O -0.07277(8) 0.41102(8) -0.22956(17)
C2I C -0.11554(12) 0.38037(12) -0.3005(2)
C1I C -0.10099(11) 0.35165(11) -0.3886(2)
N2I N -0.14484(9) 0.32445(10) -0.4648(2)
C7I C -0.19030(13) 0.32381(15) -0.4664(3)
H7I H -0.2013 0.3402 -0.4131
C8I C -0.21726(14) 0.29572(15) -0.5575(3)
H8I H -0.2507 0.2882 -0.5810
C9I C -0.18571(12) 0.28022(13) -0.6093(3)
H9I H -0.1947 0.2597 -0.6763
N1I N -0.14170(10) 0.29734(10) -0.5545(2)
N4I N -0.08660(9) 0.31744(9) -0.3338(2)
C10I C -0.08730(12) 0.30722(12) -0.2203(2)
H10I H -0.1018 0.3178 -0.1615
C11I C -0.06349(12) 0.27919(12) -0.2074(3)
H11I H -0.0579 0.2662 -0.1383
C12I C -0.04883(12) 0.27329(12) -0.3162(3)
H12I H -0.0315 0.2548 -0.3330
N3I N -0.06208(10) 0.29669(10) -0.3931(2)
N6I N -0.05683(9) 0.38872(9) -0.45782(19)
C13I C -0.05768(14) 0.40913(13) -0.5601(3)
H13I H -0.0874 0.4010 -0.6043
C14I C -0.00793(15) 0.44347(14) -0.5877(3)
H14I H 0.0042 0.4641 -0.6544
C15I C 0.02156(14) 0.44200(13) -0.4978(3)
H15I H 0.0581 0.4620 -0.4939
N5I N -0.00803(10) 0.40904(10) -0.4185(2)
H1I H -0.1449 0.3551 -0.2537
H2I H -0.1264 0.4026 -0.3403
C5I C -0.05042(12) 0.47315(11) 0.0382(3)
H5I H -0.0850 0.4547 0.0652
H6I H 0.0180 0.4991 -0.1923
Ag1I Ag -0.074854(10) 0.277538(10) -0.57835(2)
N5D N 0.07571(10) 0.75040(14) 0.7518(2)
Ag1Q Ag -0.019059(14) 0.591813(10) 0.24502(2)
Ag1H Ag 0.019059(14) 0.408187(10) -0.24502(2)
N5M N -0.07571(10) 0.24960(14) -0.7518(2)
S1 S 0.17941(4) 0.68267(4) 0.93192(7)
C16 C 0.23256(18) 0.67305(17) 0.9734(4)
F1 F 0.26106(11) 0.67598(12) 0.8850(3)
F2 F 0.26316(11) 0.70858(11) 1.0470(3)
F3 F 0.21559(11) 0.62678(10) 1.0199(2)
O1 O 0.15312(13) 0.67641(13) 1.0373(2)
O2 O 0.15134(11) 0.64366(10) 0.8495(2)
O3 O 0.20570(10) 0.73458(9) 0.8890(2)
loop_
_geom_bond_atom_site_label_1
_geom_bond_atom_site_label_2
_geom_bond_site_symmetry_1
_geom_bond_site_symmetry_2
Ag1 N1 1_555 1_555
S1 C16 1_555 1_555
C1 C2 1_555 1_555
C2 H1 1_555 1_555
H2 C2 1_555 1_555
C3 H3 1_555 1_555
H4 C3 1_555 1_555
C4 C3 1_555 1_555
C5 C4 1_555 1_555
H5 C5 1_555 1_555
C6 C4 1_555 1_555
H6 C6 1_555 1_555
C7 H7 1_555 1_555
C8 C7 1_555 1_555
H8 C8 1_555 1_555
C9 C8 1_555 1_555
H9 C9 1_555 1_555
C10 H10 1_555 1_555
C11 C10 1_555 1_555
H11 C11 1_555 1_555
C12 C11 1_555 1_555
H12 C12 1_555 1_555
C13 H13 1_555 1_555
C14 C13 1_555 1_555
H14 C14 1_555 1_555
C15 C14 1_555 1_555
H15 C15 1_555 1_555
C16 F1 1_555 1_555
F2 C16 1_555 1_555
F3 C16 1_555 1_555
N1 C9 1_555 1_555
N2 C1 1_555 1_555
N3 Ag1 1_555 1_555
N4 C1 1_555 1_555
N5 C15 1_555 1_555
N6 C1 1_555 1_555
O1 S1 1_555 1_555
O2 S1 1_555 1_555
O3 S1 1_555 1_555
O4 C2 1_555 1_555
C6I C5 1_555 1_555
C4I C6I 1_555 1_555
C3I C4I 1_555 1_555
H3I C3I 1_555 1_555
H4I C3I 1_555 1_555
O4I C3I 1_555 1_555
C2I O4I 1_555 1_555
C1I C2I 1_555 1_555
N2I C1I 1_555 1_555
C7I N2I 1_555 1_555
H7I C7I 1_555 1_555
C8I C7I 1_555 1_555
H8I C8I 1_555 1_555
C9I C8I 1_555 1_555
H9I C9I 1_555 1_555
N1I N2I 1_555 1_555
N4I C1I 1_555 1_555
C10I N4I 1_555 1_555
H10I C10I 1_555 1_555
C11I C10I 1_555 1_555
H11I C11I 1_555 1_555
C12I C11I 1_555 1_555
H12I C12I 1_555 1_555
N3I N4I 1_555 1_555
N6I C1I 1_555 1_555
C13I N6I 1_555 1_555
H13I C13I 1_555 1_555
C14I C13I 1_555 1_555
H14I C14I 1_555 1_555
C15I C14I 1_555 1_555
H15I C15I 1_555 1_555
N5I N6I 1_555 1_555
H1I C2I 1_555 1_555
H2I C2I 1_555 1_555
C5I C6 1_555 1_555
H5I C5I 1_555 1_555
H6I C6I 1_555 1_555
Ag1I N1I 1_555 1_555
N5D Ag1 1_555 1_555
Ag1Q N5 1_555 1_555
Ag1H N5I 1_555 1_555
N5M Ag1I 1_555 1_555
C3 O4 1_555 1_555
C7 N2 1_555 1_555
C10 N4 1_555 1_555
C12 N3 1_555 1_555
C13 N6 1_555 1_555
N1 N2 1_555 1_555
N3 N4 1_555 1_555
N5 N6 1_555 1_555
C4I C5I 1_555 1_555
C9I N1I 1_555 1_555
C12I N3I 1_555 1_555
N3I Ag1I 1_555 1_555
C15I N5I 1_555 1_555

#END
