
#######################################################################
#
#                 Cambridge Crystallographic Data Centre
#                                CCDC 
#
#######################################################################
#
# If this CIF has been generated from an entry in the Cambridge 
# Structural Database, then it will include bibliographic, chemical, 
# crystal, experimental, refinement or atomic coordinate data resulting 
# from the CCDC's data processing and validation procedures.
#
#######################################################################

data_ERIKAS
_symmetry_cell_setting           monoclinic
_symmetry_space_group_name_H-M   'P 21/c'
_symmetry_Int_Tables_number      14
_space_group_name_Hall           '-P 2ybc'
loop_
_symmetry_equiv_pos_site_id
_symmetry_equiv_pos_as_xyz
1 x,y,z
2 -x,1/2+y,1/2-z
3 -x,-y,-z
4 x,1/2-y,1/2+z
_cell_length_a                   19.1731(2)
_cell_length_b                   14.6913(2)
_cell_length_c                   13.2277(2)
_cell_angle_alpha                90
_cell_angle_beta                 106.4902(6)
_cell_angle_gamma                90
_cell_volume                     3572.69
loop_
_atom_site_label
_atom_site_type_symbol
_atom_site_fract_x
_atom_site_fract_y
_atom_site_fract_z
V1 V 0.117273(15) 0.64283(2) 0.60824(2)
V2 V 0.614620(15) 0.85452(2) 1.12130(2)
O1 O 0.24513(7) 0.43456(10) 0.81471(11)
O2 O 0.15035(7) 0.53002(9) 0.67556(10)
O3 O 0.04859(7) 0.70200(9) 0.48708(10)
O4 O 0.18565(7) 0.65269(9) 0.55605(11)
O5 O 0.12649(7) 0.71610(9) 0.70224(11)
O6 O 0.73260(7) 1.07022(10) 1.32913(11)
O7 O 0.64467(7) 0.97021(9) 1.18348(10)
O8 O 0.55027(7) 0.78505(9) 1.00434(10)
O9 O -0.31480(7) 0.84343(9) 0.07435(11)
O10 O 0.62257(7) 0.78683(9) 1.22073(11)
O11 O 0.19031(7) 0.42958(9) 0.47312(11)
H1 H 0.1954 0.3728 0.4722
H2 H 0.1460 0.4416 0.4623
Na1 Na 0.26390(4) 0.49475(5) 0.64647(6)
Na2 Na -0.23922(4) 1.00365(5) 0.16199(6)
O12 O 0.30731(7) 0.57278(9) 0.50975(11)
H3 H 0.3523 0.5650 0.5209
H4 H 0.2990 0.6289 0.5098
O13 O 0.32561(8) 0.35904(10) 0.64240(12)
H5 H 0.3100 0.3187 0.6754
H6 H 0.3189 0.3426 0.5795
O14 O -0.16471(8) 1.13013(10) 0.16572(12)
H7 H -0.1705 1.1492 0.1040
H8 H -0.1758 1.1714 0.2022
N1 N 0.01291(8) 0.58117(10) 0.59125(12)
N2 N -0.04650(8) 0.62497(11) 0.52086(12)
N3 N -0.16486(9) 0.88260(12) 0.27671(13)
N4 N 0.50881(8) 0.91490(11) 1.08986(12)
N5 N 0.45196(8) 0.86662(11) 1.02016(12)
N6 N 0.34383(9) 0.60161(12) 0.77956(13)
C1 C 0.31672(12) 0.41932(18) 0.99966(17)
H9 H 0.3547 0.3823 1.0472
H10 H 0.2725 0.4172 1.0227
H11 H 0.3335 0.4824 1.0010
C2 C 0.30060(11) 0.38249(14) 0.88914(16)
H12 H 0.3457 0.3833 0.8669
H13 H 0.2844 0.3185 0.8884
C3 C 0.17389(10) 0.41942(13) 0.81015(15)
C4 C 0.14874(11) 0.35585(13) 0.86843(16)
H14 H 0.1824 0.3210 0.9207
C5 C 0.07381(12) 0.34254(14) 0.85081(16)
H15 H 0.0570 0.2979 0.8902
C6 C 0.02461(11) 0.39376(14) 0.77681(16)
H16 H -0.0261 0.3842 0.7650
C7 C 0.04927(10) 0.46034(13) 0.71855(14)
C8 C 0.12410(10) 0.47349(12) 0.73408(14)
C9 C -0.00366(10) 0.51195(13) 0.64041(14)
H17 H -0.0533 0.4942 0.6242
C10 C -0.02060(9) 0.68851(12) 0.47280(14)
C11 C -0.07164(10) 0.75199(13) 0.40071(14)
C12 C -0.04406(11) 0.82798(14) 0.36272(16)
H18 H 0.0069 0.8367 0.3772
C13 C -0.09251(11) 0.89082(15) 0.30320(17)
H19 H -0.0729 0.9434 0.2796
C14 C -0.19078(10) 0.80815(14) 0.31169(15)
H20 H -0.2420 0.8001 0.2932
C15 C -0.14690(10) 0.74169(13) 0.37369(15)
H21 H -0.1680 0.6902 0.3971
C16 C 0.85453(12) 1.07897(18) 1.4392(2)
H22 H 0.8878 1.1113 1.4983
H23 H 0.8720 1.0845 1.3766
H24 H 0.8526 1.0146 1.4574
C17 C 0.78020(12) 1.11956(16) 1.41659(18)
H25 H 0.7622 1.1147 1.4795
H26 H 0.7816 1.1847 1.3983
C18 C 0.65990(10) 1.08845(13) 1.30826(15)
C19 C 0.63040(12) 1.15790(14) 1.35421(17)
H27 H 0.6613 1.1959 1.4060
C20 C 0.55497(12) 1.17204(14) 1.32427(17)
H28 H 0.5352 1.2208 1.3546
C21 C 0.50951(11) 1.11638(14) 1.25186(16)
H29 H 0.4584 1.1261 1.2326
C22 C 0.53876(10) 1.04448(13) 1.20582(15)
C23 C 0.61418(10) 1.03105(12) 1.23154(14)
C24 C 0.48902(10) 0.98724(13) 1.13038(15)
H30 H 0.4390 1.0034 1.1092
C25 C 0.48061(9) 0.79891(13) 0.98185(14)
C26 C 0.43206(10) 0.73195(13) 0.91132(14)
C27 C 0.46122(11) 0.65123(14) 0.88669(16)
H31 H 0.5118 0.6390 0.9137
C28 C 0.41535(11) 0.58880(15) 0.82199(17)
H32 H 0.4359 0.5334 0.8068
C29 C 0.31611(11) 0.67940(14) 0.80499(16)
H33 H 0.2654 0.6897 0.7769
C30 C 0.35753(10) 0.74577(14) 0.87024(15)
H34 H 0.3353 0.7995 0.8864
V2_2 V -0.385380(15) 0.85452(2) 0.12130(2)
O6_2 O -0.26740(7) 1.07022(10) 0.32913(11)
O7_2 O -0.35533(7) 0.97021(9) 0.18348(10)
O9_2 O 0.68520(7) 0.84343(9) 1.07435(11)
O11A O -0.19031(7) 0.92958(9) 0.02688(11)
H1A H -0.1954 0.8728 0.0278
H2A H -0.1460 0.9416 0.0377
Na2_2 Na 0.76078(4) 1.00365(5) 1.16199(6)
Na2A Na 0.23922(4) 0.50365(5) 0.33801(6)
O12A O -0.30731(7) 1.07278(9) -0.00975(11)
H3A H -0.3523 1.0650 -0.0209
H4A H -0.2990 1.1289 -0.0098
loop_
_geom_bond_atom_site_label_1
_geom_bond_atom_site_label_2
_geom_bond_site_symmetry_1
_geom_bond_site_symmetry_2
V1 O2 1_555 1_555
V2 O7 1_555 1_555
O1 Na1 1_555 1_555
O2 Na1 1_555 1_555
O3 V1 1_555 1_555
O4 V1 1_555 1_555
O5 V1 1_555 1_555
O6 C17 1_555 1_555
O7 C23 1_555 1_555
O8 V2 1_555 1_555
O9 Na2 1_555 1_555
O10 V2 1_555 1_555
O11 H1 1_555 1_555
H2 O11 1_555 1_555
Na1 O4 1_555 1_555
Na2 O14 1_555 1_555
O12 Na1 1_555 1_555
H3 O12 1_555 1_555
H4 O12 1_555 1_555
O13 Na1 1_555 1_555
H5 O13 1_555 1_555
H6 O13 1_555 1_555
O14 H7 1_555 1_555
H8 O14 1_555 1_555
N1 V1 1_555 1_555
N2 N1 1_555 1_555
N3 Na2 1_555 1_555
N4 V2 1_555 1_555
N5 N4 1_555 1_555
N6 Na1 1_555 1_555
C1 H9 1_555 1_555
H10 C1 1_555 1_555
H11 C1 1_555 1_555
C2 O1 1_555 1_555
H12 C2 1_555 1_555
H13 C2 1_555 1_555
C3 O1 1_555 1_555
C4 C3 1_555 1_555
H14 C4 1_555 1_555
C5 C4 1_555 1_555
H15 C5 1_555 1_555
C6 C5 1_555 1_555
H16 C6 1_555 1_555
C7 C6 1_555 1_555
C8 O2 1_555 1_555
C9 N1 1_555 1_555
H17 C9 1_555 1_555
C10 O3 1_555 1_555
C11 C10 1_555 1_555
C12 C11 1_555 1_555
H18 C12 1_555 1_555
C13 N3 1_555 1_555
H19 C13 1_555 1_555
C14 N3 1_555 1_555
H20 C14 1_555 1_555
C15 C11 1_555 1_555
H21 C15 1_555 1_555
C16 H22 1_555 1_555
H23 C16 1_555 1_555
H24 C16 1_555 1_555
C17 C16 1_555 1_555
H25 C17 1_555 1_555
H26 C17 1_555 1_555
C18 O6 1_555 1_555
C19 C18 1_555 1_555
H27 C19 1_555 1_555
C20 C19 1_555 1_555
H28 C20 1_555 1_555
C21 C20 1_555 1_555
H29 C21 1_555 1_555
C22 C21 1_555 1_555
C23 C18 1_555 1_555
C24 N4 1_555 1_555
H30 C24 1_555 1_555
C25 O8 1_555 1_555
C26 C25 1_555 1_555
C27 C26 1_555 1_555
H31 C27 1_555 1_555
C28 N6 1_555 1_555
H32 C28 1_555 1_555
C29 N6 1_555 1_555
H33 C29 1_555 1_555
C30 C26 1_555 1_555
H34 C30 1_555 1_555
V2_2 O9 1_555 1_555
O6_2 Na2 1_555 1_555
O7_2 Na2 1_555 1_555
O9_2 V2 1_555 1_555
O11A Na2 1_555 1_555
H1A O11A 1_555 1_555
H2A O11A 1_555 1_555
Na2_2 O6 1_555 1_555
Na2A O11 1_555 1_555
O12A Na2 1_555 1_555
H3A O12A 1_555 1_555
H4A O12A 1_555 1_555
O7 Na2_2 1_555 1_555
O11 Na1 1_555 1_555
O12 Na2A 1_555 1_555
N2 C10 1_555 1_555
N5 C25 1_555 1_555
C1 C2 1_555 1_555
C3 C8 1_555 1_555
C7 C8 1_555 1_555
C7 C9 1_555 1_555
C12 C13 1_555 1_555
C14 C15 1_555 1_555
C22 C23 1_555 1_555
C22 C24 1_555 1_555
C27 C28 1_555 1_555
C29 C30 1_555 1_555
V2_2 O7_2 1_555 1_555
O9_2 Na2_2 1_555 1_555

#END
