
#######################################################################
#
#                 Cambridge Crystallographic Data Centre
#                                CCDC 
#
#######################################################################
#
# If this CIF has been generated from an entry in the Cambridge 
# Structural Database, then it will include bibliographic, chemical, 
# crystal, experimental, refinement or atomic coordinate data resulting 
# from the CCDC's data processing and validation procedures.
#
#######################################################################

data_ERIMUO
_symmetry_cell_setting           orthorhombic
_symmetry_space_group_name_H-M   'P b c n'
_symmetry_Int_Tables_number      60
_space_group_name_Hall           '-P 2n 2ab'
loop_
_symmetry_equiv_pos_site_id
_symmetry_equiv_pos_as_xyz
1 x,y,z
2 1/2-x,1/2-y,1/2+z
3 1/2+x,1/2-y,-z
4 -x,y,1/2-z
5 -x,-y,-z
6 1/2+x,1/2+y,1/2-z
7 1/2-x,1/2+y,z
8 x,-y,1/2+z
_cell_length_a                   18.9722(6)
_cell_length_b                   18.2247(4)
_cell_length_c                   16.5585(4)
_cell_angle_alpha                90
_cell_angle_beta                 90
_cell_angle_gamma                90
_cell_volume                     5725.31
loop_
_atom_site_label
_atom_site_type_symbol
_atom_site_fract_x
_atom_site_fract_y
_atom_site_fract_z
Zn1 Zn 0.45797(2) 0.21003(2) 0.06434(3)
Zn2 Zn 0.86974(2) -0.02837(2) 0.16875(2)
O1 O 0.82544(13) 0.04108(16) -0.22416(15)
O2 O 0.75851(19) 0.1297(2) -0.27156(19)
O3 O 0.54340(16) 0.20240(19) -0.1090(2)
O4 O 0.53500(14) 0.15579(16) 0.01530(17)
O5 O 0.73489(17) 0.0422(2) 0.14383(17)
O6 O 0.81368(14) -0.01665(16) 0.06956(16)
C1 C 0.73604(17) 0.0869(2) -0.1391(2)
C2 C 0.67256(19) 0.1251(2) -0.1327(2)
H1 H 0.6548 0.1500 -0.1773
C3 C 0.63563(18) 0.1261(2) -0.0602(2)
C4 C 0.66398(18) 0.0910(2) 0.0066(2)
H2 H 0.6397 0.0921 0.0554
C5 C 0.72805(18) 0.0544(2) 0.0019(2)
C6 C 0.76310(18) 0.0509(2) -0.0720(2)
H3 H 0.8048 0.0243 -0.0763
C7 C 0.77524(18) 0.0865(2) -0.2179(2)
C8 C 0.56601(18) 0.1652(2) -0.0522(2)
C9 C 0.76020(19) 0.0245(2) 0.0779(2)
C10 C 0.9480(2) 0.1157(3) 0.1420(3)
C11 C 0.9061(3) 0.1880(3) 0.2364(3)
H4 H 0.8966 0.2290 0.2680
C12 C 0.8810(2) 0.1201(3) 0.2469(3)
H5 H 0.8505 0.1058 0.2879
C13 C 0.9881(3) 0.0916(3) 0.0703(3)
H6 H 1.0137 0.1325 0.0484
H7 H 0.9561 0.0730 0.0304
H8 H 1.0206 0.0537 0.0856
N1 N 0.90718(18) 0.07433(19) 0.1879(2)
N2 N 0.9484(2) 0.1849(2) 0.1696(3)
H9 H 0.9713 0.2210 0.1489
C14 C 0.3558(2) 0.1785(2) -0.0669(3)
C15 C 0.3373(2) 0.2885(3) -0.0222(3)
H10 H 0.3412 0.3314 0.0079
C16 C 0.2905(2) 0.2767(3) -0.0822(3)
H11 H 0.2565 0.3093 -0.1010
C17 C 0.3840(3) 0.1032(3) -0.0801(4)
H12 H 0.3585 0.0800 -0.1232
H13 H 0.3787 0.0749 -0.0315
H14 H 0.4330 0.1060 -0.0941
N3 N 0.37830(16) 0.22648(19) -0.0125(2)
N4 N 0.30319(19) 0.2075(2) -0.1096(3)
H15 H 0.2809 0.1861 -0.1482
C18 C 0.3665(3) 0.1373(3) 0.1915(4)
C19 C 0.4502(3) 0.0661(3) 0.1528(4)
H16 H 0.4899 0.0485 0.1260
C20 C 0.4119(4) 0.0282(4) 0.2072(4)
H17 H 0.4194 -0.0198 0.2241
C21 C 0.3175(5) 0.2000(5) 0.1996(7)
H18 H 0.2818 0.1883 0.2386
H19 H 0.2958 0.2098 0.1484
H20 H 0.3431 0.2426 0.2172
N5 N 0.4217(2) 0.1347(2) 0.1431(2)
N6 N 0.3604(3) 0.0740(3) 0.2321(3)
H21 H 0.3290 0.0643 0.2680
C22 C 0.94630(18) -0.1645(2) 0.1130(2)
C23 C 1.01834(19) -0.0828(2) 0.1579(2)
H22 H 1.0369 -0.0393 0.1782
C24 C 1.05531(18) -0.1437(2) 0.1393(3)
H23 H 1.1038 -0.1493 0.1452
C25 C 0.8800(2) -0.2001(3) 0.0853(4)
H24 H 0.8900 -0.2490 0.0671
H25 H 0.8601 -0.1721 0.0418
H26 H 0.8470 -0.2020 0.1293
N7 N 0.94875(15) -0.09609(18) 0.14179(19)
N8 N 1.01007(16) -0.19593(18) 0.1103(2)
Zn1F Zn 1.04203(2) -0.28997(2) 0.06434(3)
Zn2G Zn 0.86974(2) 0.02837(2) -0.33125(2)
O1G O 0.82544(13) -0.04108(16) 0.27584(15)
N8F N 0.48993(16) 0.30407(18) 0.1103(2)
loop_
_geom_bond_atom_site_label_1
_geom_bond_atom_site_label_2
_geom_bond_site_symmetry_1
_geom_bond_site_symmetry_2
Zn1 O4 1_555 1_555
Zn2 O6 1_555 1_555
O1 C7 1_555 1_555
O2 C7 1_555 1_555
O3 C8 1_555 1_555
O4 C8 1_555 1_555
O5 C9 1_555 1_555
O6 C9 1_555 1_555
C1 C2 1_555 1_555
C2 H1 1_555 1_555
C3 C2 1_555 1_555
C4 C3 1_555 1_555
H2 C4 1_555 1_555
C5 C4 1_555 1_555
C6 C1 1_555 1_555
H3 C6 1_555 1_555
C7 C1 1_555 1_555
C8 C3 1_555 1_555
C9 C5 1_555 1_555
C10 C13 1_555 1_555
C11 H4 1_555 1_555
C12 C11 1_555 1_555
H5 C12 1_555 1_555
C13 H6 1_555 1_555
H7 C13 1_555 1_555
H8 C13 1_555 1_555
N1 Zn2 1_555 1_555
N2 C10 1_555 1_555
H9 N2 1_555 1_555
C14 C17 1_555 1_555
C15 H10 1_555 1_555
C16 C15 1_555 1_555
H11 C16 1_555 1_555
C17 H12 1_555 1_555
H13 C17 1_555 1_555
H14 C17 1_555 1_555
N3 Zn1 1_555 1_555
N4 C14 1_555 1_555
H15 N4 1_555 1_555
C18 C21 1_555 1_555
C19 H16 1_555 1_555
C20 C19 1_555 1_555
H17 C20 1_555 1_555
C21 H18 1_555 1_555
H19 C21 1_555 1_555
H20 C21 1_555 1_555
N5 Zn1 1_555 1_555
N6 C18 1_555 1_555
H21 N6 1_555 1_555
C22 C25 1_555 1_555
C23 H22 1_555 1_555
C24 C23 1_555 1_555
H23 C24 1_555 1_555
C25 H24 1_555 1_555
H25 C25 1_555 1_555
H26 C25 1_555 1_555
N7 Zn2 1_555 1_555
N8 C22 1_555 1_555
Zn1F N8 1_555 1_555
Zn2G O1 1_555 1_555
O1G Zn2 1_555 1_555
N8F Zn1 1_555 1_555
C5 C6 1_555 1_555
C10 N1 1_555 1_555
C11 N2 1_555 1_555
C12 N1 1_555 1_555
C14 N3 1_555 1_555
C15 N3 1_555 1_555
C16 N4 1_555 1_555
C18 N5 1_555 1_555
C19 N5 1_555 1_555
C20 N6 1_555 1_555
C22 N7 1_555 1_555
C23 N7 1_555 1_555
C24 N8 1_555 1_555

#END
