
#######################################################################
#
#                 Cambridge Crystallographic Data Centre
#                                CCDC 
#
#######################################################################
#
# If this CIF has been generated from an entry in the Cambridge 
# Structural Database, then it will include bibliographic, chemical, 
# crystal, experimental, refinement or atomic coordinate data resulting 
# from the CCDC's data processing and validation procedures.
#
#######################################################################

data_ERINOJ
_symmetry_cell_setting           orthorhombic
_symmetry_space_group_name_H-M   'P b c n'
_symmetry_Int_Tables_number      60
_space_group_name_Hall           '-P 2n 2ab'
loop_
_symmetry_equiv_pos_site_id
_symmetry_equiv_pos_as_xyz
1 x,y,z
2 1/2-x,1/2-y,1/2+z
3 -x,y,1/2-z
4 1/2+x,1/2-y,-z
5 -x,-y,-z
6 1/2+x,1/2+y,1/2-z
7 x,-y,1/2+z
8 1/2-x,1/2+y,z
_cell_length_a                   26.193(3)
_cell_length_b                   9.8005(11)
_cell_length_c                   16.2950(18)
_cell_angle_alpha                90
_cell_angle_beta                 90
_cell_angle_gamma                90
_cell_volume                     4183
loop_
_atom_site_label
_atom_site_type_symbol
_atom_site_fract_x
_atom_site_fract_y
_atom_site_fract_z
Co1 Co 0.380905(14) -0.17895(4) 0.06119(2)
C1 C 0.41284(12) 0.0886(4) 0.1400(2)
H1 H 0.4429 0.0692 0.1121
C2 C 0.41134(12) 0.2035(4) 0.1879(2)
H2 H 0.4402 0.2581 0.1932
C3 C 0.36691(11) 0.2379(3) 0.22819(18)
C4 C 0.32551(12) 0.1533(4) 0.2173(2)
H3 H 0.2944 0.1735 0.2421
C5 C 0.33059(12) 0.0391(4) 0.1696(2)
H4 H 0.3023 -0.0172 0.1634
C6 C 0.36517(10) 0.3595(3) 0.28256(18)
C7 C 0.40612(10) 0.5367(3) 0.34072(18)
C8 C 0.45454(11) 0.6099(3) 0.35741(19)
C9 C 0.49982(12) 0.5414(4) 0.3548(3)
H5 H 0.5005 0.4493 0.3409
C10 C 0.54451(12) 0.6091(4) 0.3727(3)
H6 H 0.5748 0.5598 0.3712
C11 C 0.50274(14) 0.8051(4) 0.3941(3)
H7 H 0.5031 0.8974 0.4072
C12 C 0.45627(12) 0.7447(4) 0.3782(3)
H8 H 0.4263 0.7954 0.3816
C13 C 0.32363(10) 0.4965(3) 0.36998(18)
C14 C 0.27651(11) 0.5375(3) 0.41360(19)
C15 C 0.27784(12) 0.6350(4) 0.4739(2)
H9 H 0.3086 0.6758 0.4881
C16 C 0.23372(12) 0.6722(4) 0.5132(2)
H10 H 0.2356 0.7391 0.5535
C17 C 0.18746(12) 0.5219(4) 0.4389(2)
H11 H 0.1563 0.4813 0.4265
C18 C 0.22980(11) 0.4795(4) 0.3962(2)
H12 H 0.2270 0.4125 0.3561
N1 N 0.43623(10) -0.1599(3) -0.07207(18)
N2 N 0.32636(13) -0.3756(5) 0.1387(3)
N3 N 0.37372(9) 0.0033(3) 0.13120(16)
N4 N 0.54694(9) 0.7393(3) 0.39189(17)
N5 N 0.18823(9) 0.6176(3) 0.49676(16)
N6 N 0.36465(9) 0.5756(3) 0.38169(16)
N7 N 0.40796(9) 0.4331(3) 0.28751(15)
N8 N 0.32213(9) 0.3851(3) 0.32351(15)
O1 O 0.42965(8) -0.0587(2) -0.02471(14)
O2 O 0.41055(9) -0.2649(3) -0.05510(15)
O3 O 0.46583(11) -0.1558(3) -0.12993(18)
O4 O 0.33747(13) -0.2722(4) 0.1748(3)
O5 O 0.34510(11) -0.3810(4) 0.0677(3)
O6 O 0.29912(12) -0.4647(4) 0.1665(2)
Co1B Co 0.619095(14) 0.82105(4) 0.43881(2)
Co1A Co 0.119095(14) 0.67895(4) 0.56119(2)
N4B N 0.45306(9) -0.2607(3) 0.10811(17)
N5A N 0.31177(9) -0.1176(3) -0.00324(16)
loop_
_geom_bond_atom_site_label_1
_geom_bond_atom_site_label_2
_geom_bond_site_symmetry_1
_geom_bond_site_symmetry_2
Co1 N3 1_555 1_555
C1 H1 1_555 1_555
C2 C1 1_555 1_555
H2 C2 1_555 1_555
C3 C2 1_555 1_555
C4 C3 1_555 1_555
H3 C4 1_555 1_555
C5 C4 1_555 1_555
H4 C5 1_555 1_555
C6 C3 1_555 1_555
C7 C8 1_555 1_555
C8 C9 1_555 1_555
C9 H5 1_555 1_555
C10 C9 1_555 1_555
H6 C10 1_555 1_555
C11 H7 1_555 1_555
C12 C8 1_555 1_555
H8 C12 1_555 1_555
C13 C14 1_555 1_555
C14 C15 1_555 1_555
C15 H9 1_555 1_555
C16 C15 1_555 1_555
H10 C16 1_555 1_555
C17 H11 1_555 1_555
C18 C14 1_555 1_555
H12 C18 1_555 1_555
N1 O1 1_555 1_555
N2 O4 1_555 1_555
N3 C1 1_555 1_555
N4 C10 1_555 1_555
N5 C16 1_555 1_555
N6 C7 1_555 1_555
N7 C6 1_555 1_555
N8 C6 1_555 1_555
O1 Co1 1_555 1_555
O2 Co1 1_555 1_555
O3 N1 1_555 1_555
O4 Co1 1_555 1_555
O5 Co1 1_555 1_555
O6 N2 1_555 1_555
Co1B N4 1_555 1_555
Co1A N5 1_555 1_555
N4B Co1 1_555 1_555
N5A Co1 1_555 1_555
C5 N3 1_555 1_555
C7 N7 1_555 1_555
C11 C12 1_555 1_555
C11 N4 1_555 1_555
C13 N6 1_555 1_555
C13 N8 1_555 1_555
C17 C18 1_555 1_555
C17 N5 1_555 1_555
N1 O2 1_555 1_555
N2 O5 1_555 1_555

#END
