
#######################################################################
#
#                 Cambridge Crystallographic Data Centre
#                                CCDC 
#
#######################################################################
#
# If this CIF has been generated from an entry in the Cambridge 
# Structural Database, then it will include bibliographic, chemical, 
# crystal, experimental, refinement or atomic coordinate data resulting 
# from the CCDC's data processing and validation procedures.
#
#######################################################################

data_ERIQAY
_symmetry_cell_setting           monoclinic
_symmetry_space_group_name_H-M   'P 21/c'
_symmetry_Int_Tables_number      14
_space_group_name_Hall           '-P 2ybc'
loop_
_symmetry_equiv_pos_site_id
_symmetry_equiv_pos_as_xyz
1 x,y,z
2 -x,1/2+y,1/2-z
3 -x,-y,-z
4 x,1/2-y,1/2+z
_cell_length_a                   12.302(3)
_cell_length_b                   15.386(3)
_cell_length_c                   12.255(3)
_cell_angle_alpha                90
_cell_angle_beta                 111.06(3)
_cell_angle_gamma                90
_cell_volume                     2164.67
loop_
_atom_site_label
_atom_site_type_symbol
_atom_site_fract_x
_atom_site_fract_y
_atom_site_fract_z
Mn1 Mn 0.49352(4) 0.02781(3) 0.15966(4)
S1 S 1.01353(7) 0.35180(5) 0.61927(7)
O1 O 0.6349(2) 0.11853(15) 0.18823(19)
O2 O 0.5179(2) 0.15851(15) 0.2796(2)
O3 O 1.45788(19) 0.08393(14) 0.91298(19)
O4 O 1.3476(2) 0.07830(16) 1.0213(2)
O5 O 1.0677(2) 0.40116(14) 0.5534(2)
O6 O 0.9747(2) 0.39560(15) 0.7020(2)
N1 N 0.3794(2) -0.03320(16) 0.2443(2)
N2 N 0.6113(2) -0.03030(17) 0.3370(2)
C1 C 0.2629(3) -0.0305(2) 0.1955(3)
H1 H 0.2291 -0.0036 0.1232
C2 C 0.1911(3) -0.0662(2) 0.2481(4)
H2 H 0.1105 -0.0629 0.2127
C3 C 0.2424(4) -0.1066(3) 0.3542(4)
H3 H 0.1965 -0.1319 0.3915
C4 C 0.3608(4) -0.1097(2) 0.4049(3)
H4 H 0.3958 -0.1364 0.4772
C5 C 0.4288(3) -0.0729(2) 0.3485(3)
C6 C 0.5580(3) -0.0731(2) 0.3980(3)
C7 C 0.6211(4) -0.1156(3) 0.5023(3)
H5 H 0.5834 -0.1453 0.5445
C8 C 0.7400(4) -0.1125(3) 0.5405(4)
H6 H 0.7837 -0.1406 0.6095
C9 C 0.7959(4) -0.0685(3) 0.4788(3)
H7 H 0.8768 -0.0656 0.5048
C10 C 0.7275(3) -0.0287(2) 0.3766(3)
H8 H 0.7641 0.0008 0.3331
C11 C 0.7107(3) 0.21431(19) 0.3492(3)
C12 C 0.6908(3) 0.2744(2) 0.4254(3)
H9 H 0.6148 0.2872 0.4187
C13 C 0.7820(3) 0.3151(2) 0.5103(3)
H10 H 0.7683 0.3549 0.5609
C14 C 0.8948(3) 0.2955(2) 0.5190(2)
C15 C 0.9163(3) 0.2374(2) 0.4434(3)
H11 H 0.9924 0.2255 0.4495
C16 C 0.8244(3) 0.1971(2) 0.3591(3)
H12 H 0.8387 0.1578 0.3081
C17 C 1.1132(3) 0.26961(19) 0.6961(2)
C18 C 1.2271(3) 0.2711(2) 0.6983(3)
H13 H 1.2484 0.3092 0.6506
C19 C 1.3081(3) 0.2150(2) 0.7727(3)
H14 H 1.3840 0.2146 0.7738
C20 C 1.2769(3) 0.15883(19) 0.8460(3)
C21 C 1.1625(3) 0.1570(2) 0.8407(3)
H15 H 1.1410 0.1189 0.8883
C22 C 1.0801(3) 0.2115(2) 0.7651(3)
H16 H 1.0030 0.2093 0.7606
C23 C 0.6138(3) 0.1627(2) 0.2652(3)
C24 C 1.3668(3) 0.10263(19) 0.9323(3)
Mn1B Mn 1.50648(4) -0.02781(3) 0.84034(4)
Mn1_2 Mn 1.49352(4) 0.02781(3) 1.15966(4)
O3B O 0.54212(19) -0.08393(14) 0.08702(19)
O4_2 O 0.3476(2) 0.07830(16) 0.0213(2)
loop_
_geom_bond_atom_site_label_1
_geom_bond_atom_site_label_2
_geom_bond_site_symmetry_1
_geom_bond_site_symmetry_2
Mn1 O1 1_555 1_555
S1 O5 1_555 1_555
O1 C23 1_555 1_555
O2 Mn1 1_555 1_555
O3 C24 1_555 1_555
O4 C24 1_555 1_555
O6 S1 1_555 1_555
N1 Mn1 1_555 1_555
N2 Mn1 1_555 1_555
C1 N1 1_555 1_555
H1 C1 1_555 1_555
C2 C1 1_555 1_555
H2 C2 1_555 1_555
C3 C2 1_555 1_555
H3 C3 1_555 1_555
C4 C3 1_555 1_555
H4 C4 1_555 1_555
C5 N1 1_555 1_555
C6 N2 1_555 1_555
C7 C6 1_555 1_555
H5 C7 1_555 1_555
C8 C7 1_555 1_555
H6 C8 1_555 1_555
C9 C8 1_555 1_555
H7 C9 1_555 1_555
C10 N2 1_555 1_555
H8 C10 1_555 1_555
C11 C12 1_555 1_555
C12 H9 1_555 1_555
C13 C12 1_555 1_555
H10 C13 1_555 1_555
C14 S1 1_555 1_555
C15 C14 1_555 1_555
H11 C15 1_555 1_555
C16 C11 1_555 1_555
H12 C16 1_555 1_555
C17 S1 1_555 1_555
C18 C17 1_555 1_555
H13 C18 1_555 1_555
C19 C18 1_555 1_555
H14 C19 1_555 1_555
C20 C19 1_555 1_555
C21 C20 1_555 1_555
H15 C21 1_555 1_555
C22 C17 1_555 1_555
H16 C22 1_555 1_555
C23 O2 1_555 1_555
C24 C20 1_555 1_555
Mn1B O3 1_555 1_555
Mn1_2 O4 1_555 1_555
O3B Mn1 1_555 1_555
O4_2 Mn1 1_555 1_555
C4 C5 1_555 1_555
C5 C6 1_555 1_555
C9 C10 1_555 1_555
C11 C23 1_555 1_555
C13 C14 1_555 1_555
C15 C16 1_555 1_555
C21 C22 1_555 1_555

#END
