
#######################################################################
#
#                 Cambridge Crystallographic Data Centre
#                                CCDC 
#
#######################################################################
#
# If this CIF has been generated from an entry in the Cambridge 
# Structural Database, then it will include bibliographic, chemical, 
# crystal, experimental, refinement or atomic coordinate data resulting 
# from the CCDC's data processing and validation procedures.
#
#######################################################################

data_ERIQOM
_symmetry_cell_setting           monoclinic
_symmetry_space_group_name_H-M   'P 21/n'
_symmetry_Int_Tables_number      14
_space_group_name_Hall           '-P 2yn'
loop_
_symmetry_equiv_pos_site_id
_symmetry_equiv_pos_as_xyz
1 x,y,z
2 1/2-x,1/2+y,1/2-z
3 -x,-y,-z
4 1/2+x,1/2-y,1/2+z
_cell_length_a                   9.879(5)
_cell_length_b                   7.557(4)
_cell_length_c                   15.386(8)
_cell_angle_alpha                90
_cell_angle_beta                 105.386(5)
_cell_angle_gamma                90
_cell_volume                     1107.48
loop_
_atom_site_label
_atom_site_type_symbol
_atom_site_fract_x
_atom_site_fract_y
_atom_site_fract_z
Ho1 Ho 0.501337(17) 0.82185(2) 0.747304(11)
C1 C 0.7829(4) 0.5891(5) 0.8379(3)
C2 C 0.7250(4) 0.6133(5) 0.9175(3)
C3 C 0.7940(4) 0.5582(5) 1.0018(3)
H1 H 0.8780 0.4963 1.0112
C4 C 0.7379(4) 0.5951(5) 1.0743(2)
C5 C 0.6087(4) 0.6828(5) 1.0537(3)
H2 H 0.5652 0.7073 1.0991
C6 C 0.5460(4) 0.7328(5) 0.9665(3)
C7 C 0.4083(4) 0.8304(5) 0.9374(3)
H3 H 0.613(6) 1.087(8) 0.8854(11)
H4 H 0.661(5) 1.128(7) 0.806(3)
H5 H 0.332(5) 0.547(8) 0.7874(18)
H6 H 0.313(4) 0.523(6) 0.6913(15)
H7 H 0.484(6) 0.5513(17) 0.606(4)
H8 H 0.524(8) 0.714(7) 0.569(3)
N1 N 0.6032(3) 0.7004(4) 0.8981(2)
O1 O 0.7200(3) 0.6723(4) 0.76661(19)
O2 O 0.8899(3) 0.4962(4) 0.84514(18)
O3 O 0.3689(3) 0.8732(4) 0.85503(18)
O4 O 0.3418(3) 0.8625(4) 0.99379(18)
O5 O 0.8051(3) 0.5493(4) 1.15748(17)
O6 O 0.6030(3) 1.0722(4) 0.8286(2)
O7 O 0.3636(3) 0.5656(4) 0.7411(2)
O8 O 0.4963(4) 0.6642(4) 0.6113(2)
Ho1A Ho 0.998663(17) 0.32185(2) 0.752696(11)
Ho1C Ho 1.001337(17) 0.67815(2) 1.247304(11)
O2A O 0.6101(3) 0.9962(4) 0.65486(18)
O5C O 0.3051(3) 0.9507(4) 0.65748(17)
H9 H 0.1510(15) 0.841(6) 0.945(3)
H10 H 0.032(5) 0.745(8) 0.888(4)
O9 O 0.0620(4) 0.8221(4) 0.9302(3)
loop_
_geom_bond_atom_site_label_1
_geom_bond_atom_site_label_2
_geom_bond_site_symmetry_1
_geom_bond_site_symmetry_2
Ho1 N1 1_555 1_555
C1 C2 1_555 1_555
C2 C3 1_555 1_555
C3 H1 1_555 1_555
C4 C3 1_555 1_555
C5 C4 1_555 1_555
H2 C5 1_555 1_555
C6 C5 1_555 1_555
C7 C6 1_555 1_555
H3 O6 1_555 1_555
H4 O6 1_555 1_555
H5 O7 1_555 1_555
H6 O7 1_555 1_555
H7 O8 1_555 1_555
H8 O8 1_555 1_555
H9 O9 1_555 1_555
H10 O9 1_555 1_555
N1 C2 1_555 1_555
O1 Ho1 1_555 1_555
O2 C1 1_555 1_555
O3 Ho1 1_555 1_555
O4 C7 1_555 1_555
O5 C4 1_555 1_555
O6 Ho1 1_555 1_555
O7 Ho1 1_555 1_555
O8 Ho1 1_555 1_555
Ho1A O2 1_555 1_555
Ho1C O5 1_555 1_555
O2A Ho1 1_555 1_555
O5C Ho1 1_555 1_555
C1 O1 1_555 1_555
C6 N1 1_555 1_555
C7 O3 1_555 1_555

#END
