
#######################################################################
#
#                 Cambridge Crystallographic Data Centre
#                                CCDC 
#
#######################################################################
#
# If this CIF has been generated from an entry in the Cambridge 
# Structural Database, then it will include bibliographic, chemical, 
# crystal, experimental, refinement or atomic coordinate data resulting 
# from the CCDC's data processing and validation procedures.
#
#######################################################################

data_EROBES
_symmetry_cell_setting           monoclinic
_symmetry_space_group_name_H-M   'P 21/c'
_symmetry_Int_Tables_number      14
_space_group_name_Hall           '-P 2ybc'
loop_
_symmetry_equiv_pos_site_id
_symmetry_equiv_pos_as_xyz
1 x,y,z
2 -x,1/2+y,1/2-z
3 -x,-y,-z
4 x,1/2-y,1/2+z
_cell_length_a                   11.235(1)
_cell_length_b                   6.689(1)
_cell_length_c                   11.998(2)
_cell_angle_alpha                90
_cell_angle_beta                 98.85
_cell_angle_gamma                90
_cell_volume                     890.926
loop_
_atom_site_label
_atom_site_type_symbol
_atom_site_fract_x
_atom_site_fract_y
_atom_site_fract_z
K1 K 0.5577(1) 0.6194(1) 0.6939(1)
O1 O 0.3845(1) 0.6853(2) 0.5639(1)
O2 O 0.3296(1) 0.4153(2) 0.4589(1)
O3 O 0.4153(1) 0.7255(2) 0.3083(1)
O4 O 0.3881(1) 1.0487(2) 0.2855(1)
O5 O 0.6763(1) 0.5886(2) 0.8762(1)
C1 C 0.3171(1) 0.5940(2) 0.4880(1)
C2 C 0.2129(1) 0.7144(2) 0.4282(1)
C3 C 0.0990(2) 0.6948(3) 0.4596(1)
C4 C 0.0048(2) 0.8146(3) 0.4106(2)
C5 C 0.0232(2) 0.9565(3) 0.3321(2)
C6 C 0.1365(2) 0.9815(3) 0.3023(2)
C7 C 0.2314(1) 0.8597(2) 0.3495(1)
C8 C 0.3523(1) 0.8804(2) 0.3131(1)
O2B O 0.6704(1) 0.5847(2) 0.5411(1)
O3B O 0.5847(1) 0.2745(2) 0.6917(1)
O3C O 0.4153(1) 0.7745(2) 0.8083(1)
O4B O 0.6119(1) 0.9513(2) 0.7145(1)
O4C O 0.3881(1) 0.4513(2) 0.7855(1)
K1B K 0.4423(1) 0.3806(1) 0.3061(1)
K1C K 0.5577(1) 0.8806(1) 0.1939(1)
K1B_2 K 0.4423(1) 1.3806(1) 0.3061(1)
loop_
_geom_bond_atom_site_label_1
_geom_bond_atom_site_label_2
_geom_bond_site_symmetry_1
_geom_bond_site_symmetry_2
K1 O1 1_555 1_555
O1 C1 1_555 1_555
O2 C1 1_555 1_555
O3 C8 1_555 1_555
O4 C8 1_555 1_555
O5 K1 1_555 1_555
C1 C2 1_555 1_555
C2 C3 1_555 1_555
C3 C4 1_555 1_555
C4 C5 1_555 1_555
C5 C6 1_555 1_555
C6 C7 1_555 1_555
C7 C2 1_555 1_555
C8 C7 1_555 1_555
O2B K1 1_555 1_555
O3B K1 1_555 1_555
O3C K1 1_555 1_555
O4B K1 1_555 1_555
O4C K1 1_555 1_555
K1B O2 1_555 1_555
K1C O3 1_555 1_555
K1B_2 O4 1_555 1_555
O3 K1B 1_555 1_555
O4 K1C 1_555 1_555

#END
