
#######################################################################
#
#                 Cambridge Crystallographic Data Centre
#                                CCDC 
#
#######################################################################
#
# If this CIF has been generated from an entry in the Cambridge 
# Structural Database, then it will include bibliographic, chemical, 
# crystal, experimental, refinement or atomic coordinate data resulting 
# from the CCDC's data processing and validation procedures.
#
#######################################################################

data_ERUBUO
_symmetry_cell_setting           orthorhombic
_symmetry_space_group_name_H-M   'P c a b'
_symmetry_Int_Tables_number      61
_space_group_name_Hall           '-P 2bc 2ac'
loop_
_symmetry_equiv_pos_site_id
_symmetry_equiv_pos_as_xyz
1 x,y,z
2 1/2-x,y,1/2+z
3 x,1/2+y,1/2-z
4 1/2+x,1/2-y,z
5 -x,-y,-z
6 1/2+x,-y,1/2-z
7 -x,1/2-y,1/2+z
8 1/2-x,1/2+y,-z
_cell_length_a                   17.720(6)
_cell_length_b                   21.869(7)
_cell_length_c                   9.612(3)
_cell_angle_alpha                90
_cell_angle_beta                 90
_cell_angle_gamma                90
_cell_volume                     3724.83
loop_
_atom_site_label
_atom_site_type_symbol
_atom_site_fract_x
_atom_site_fract_y
_atom_site_fract_z
Mn1 Mn 0.04751(3) 0.18392(2) 0.17736(5)
O1 O 0.00358(14) 0.23769(10) 0.0060(2)
O2 O -0.04938(14) 0.23617(12) -0.2030(3)
O3 O -0.05652(14) 0.14940(13) 0.2485(3)
N1 N 0.04315(14) 0.12103(12) -0.0144(3)
N2 N 0.1730(2) 0.20052(13) 0.1180(3)
N3 N 0.1243(2) 0.11598(15) 0.2964(3)
O4 O 0.1032(2) 0.0717(2) 0.3892(4)
O5 O -0.03587(15) 0.08196(14) 0.4160(3)
C1 C 0.0671(2) 0.0629(2) -0.0256(4)
C2 C 0.0621(3) 0.0310(2) -0.1483(5)
C3 C 0.0306(3) 0.0577(2) -0.2624(5)
C4 C 0.0053(2) 0.1176(2) -0.2519(4)
C5 C 0.0125(2) 0.14717(14) -0.1262(3)
C6 C -0.0125(2) 0.21257(15) -0.1063(3)
C7 C 0.1991(3) 0.2425(2) 0.0299(5)
C8 C 0.2751(3) 0.2492(3) 0.0008(6)
C9 C 0.3260(3) 0.2120(3) 0.0637(6)
C10 C 0.3007(2) 0.1686(3) 0.1530(6)
C11 C 0.2238(2) 0.1635(2) 0.1789(4)
C12 C 0.1945(2) 0.1176(2) 0.2741(5)
C13 C -0.1866(2) 0.0509(2) 0.4272(6)
C14 C -0.2622(3) 0.0372(3) 0.4325(8)
C15 C -0.3130(3) 0.0681(3) 0.3551(7)
C16 C -0.2881(3) 0.1132(3) 0.2695(7)
C17 C -0.2119(2) 0.1270(2) 0.2622(6)
C18 C -0.1607(2) 0.0965(2) 0.3425(4)
C19 C -0.0781(2) 0.1108(2) 0.3354(4)
H1 H 0.0448(32) 0.0754(25) 0.4048(56)
H2 H 0.0885(22) 0.0470(18) 0.0616(44)
H3 H 0.0806(30) -0.0123(26) -0.1484(55)
H4 H 0.0290(24) 0.0361(20) -0.3399(48)
H5 H -0.0166(27) 0.1383(21) -0.3219(46)
H6 H 0.1636(24) 0.2641(18) -0.0108(42)
H7 H 0.2838(32) 0.2763(24) -0.0579(57)
H8 H 0.3773(36) 0.2150(25) 0.0534(57)
H9 H 0.3320(34) 0.1418(28) 0.1990(57)
H10 H 0.2303(26) 0.0924(20) 0.3227(44)
H11 H -0.1495(29) 0.0323(22) 0.4805(55)
H12 H -0.2766(31) 0.0104(27) 0.4845(64)
H13 H -0.3675(31) 0.0571(23) 0.3706(52)
H14 H -0.3203(31) 0.1308(24) 0.2101(54)
H15 H -0.1937(23) 0.1507(19) 0.2025(42)
O2F O 0.04938(14) 0.26383(12) 0.2970(3)
Mn1F Mn -0.04751(3) 0.31608(2) -0.32264(5)
loop_
_geom_bond_atom_site_label_1
_geom_bond_atom_site_label_2
_geom_bond_site_symmetry_1
_geom_bond_site_symmetry_2
Mn1 O1 1_555 1_555
O1 C6 1_555 1_555
O2 C6 1_555 1_555
O3 Mn1 1_555 1_555
N1 Mn1 1_555 1_555
N2 Mn1 1_555 1_555
N3 Mn1 1_555 1_555
O4 N3 1_555 1_555
O5 C19 1_555 1_555
C1 N1 1_555 1_555
C2 C1 1_555 1_555
C3 C2 1_555 1_555
C4 C3 1_555 1_555
C5 N1 1_555 1_555
C6 C5 1_555 1_555
C7 N2 1_555 1_555
C8 C7 1_555 1_555
C9 C8 1_555 1_555
C10 C9 1_555 1_555
C11 N2 1_555 1_555
C12 N3 1_555 1_555
C13 C14 1_555 1_555
C14 C15 1_555 1_555
C15 C16 1_555 1_555
C16 C17 1_555 1_555
C17 C18 1_555 1_555
C18 C13 1_555 1_555
C19 O3 1_555 1_555
H1 O4 1_555 1_555
H2 C1 1_555 1_555
H3 C2 1_555 1_555
H4 C3 1_555 1_555
H5 C4 1_555 1_555
H6 C7 1_555 1_555
H7 C8 1_555 1_555
H8 C9 1_555 1_555
H9 C10 1_555 1_555
H10 C12 1_555 1_555
H11 C13 1_555 1_555
H12 C14 1_555 1_555
H13 C15 1_555 1_555
H14 C16 1_555 1_555
H15 C17 1_555 1_555
O2F Mn1 1_555 1_555
Mn1F O2 1_555 1_555
C4 C5 1_555 1_555
C10 C11 1_555 1_555
C11 C12 1_555 1_555
C18 C19 1_555 1_555

#END
