
#######################################################################
#
#                 Cambridge Crystallographic Data Centre
#                                CCDC 
#
#######################################################################
#
# If this CIF has been generated from an entry in the Cambridge 
# Structural Database, then it will include bibliographic, chemical, 
# crystal, experimental, refinement or atomic coordinate data resulting 
# from the CCDC's data processing and validation procedures.
#
#######################################################################

data_ESATAU
_symmetry_cell_setting           triclinic
_symmetry_space_group_name_H-M   'P -1'
_symmetry_Int_Tables_number      2
_space_group_name_Hall           '-P 1'
loop_
_symmetry_equiv_pos_site_id
_symmetry_equiv_pos_as_xyz
1 x,y,z
2 -x,-y,-z
_cell_length_a                   7.2752(7)
_cell_length_b                   13.8489(15)
_cell_length_c                   15.5737(14)
_cell_angle_alpha                84.229(8)
_cell_angle_beta                 88.532(7)
_cell_angle_gamma                84.578(8)
_cell_volume                     1553.96
loop_
_atom_site_label
_atom_site_type_symbol
_atom_site_fract_x
_atom_site_fract_y
_atom_site_fract_z
Zn1 Zn -0.5000 1.0000 0.0000
Zn2 Zn -1.16672(9) 0.97394(5) -0.13429(4)
Zn3 Zn -1.13841(9) 0.83008(5) 0.06659(4)
C1 C -0.8722(8) 0.8176(5) -0.0892(4)
C2 C -0.7464(8) 0.7462(4) -0.1362(3)
C3 C -0.8202(8) 0.6672(4) -0.1617(3)
H1 H -0.9451 0.6606 -0.1514
C4 C -0.7111(9) 0.5944(4) -0.2038(3)
C5 C -0.7847(10) 0.5093(5) -0.2267(4)
H2 H -0.9090 0.5012 -0.2162
C6 C -0.6767(13) 0.4404(6) -0.2634(5)
H3 H -0.7257 0.3844 -0.2771
C7 C -0.4874(12) 0.4530(6) -0.2813(4)
H4 H -0.4135 0.4053 -0.3072
C8 C -0.4137(10) 0.5334(5) -0.2611(4)
H5 H -0.2901 0.5412 -0.2738
C9 C -0.5221(8) 0.6050(4) -0.2211(3)
C10 C -0.4508(8) 0.6903(5) -0.1956(3)
H6 H -0.3279 0.6998 -0.2085
C11 C -0.5553(7) 0.7586(4) -0.1532(3)
C12 C -0.4670(8) 0.8407(4) -0.1199(3)
C13 C -0.8847(7) 0.8108(5) 0.1835(3)
C14 C -0.7640(7) 0.8065(4) 0.2619(3)
C15 C -0.8397(8) 0.7693(5) 0.3393(4)
H7 H -0.9574 0.7483 0.3391
C16 C -0.7474(9) 0.7618(5) 0.4180(3)
C17 C -0.8321(11) 0.7329(6) 0.4969(4)
H8 H -0.9537 0.7172 0.4979
C18 C -0.7406(14) 0.7275(7) 0.5711(5)
H9 H -0.7985 0.7078 0.6230
C19 C -0.5548(15) 0.7518(7) 0.5703(5)
H10 H -0.4920 0.7483 0.6220
C20 C -0.4686(11) 0.7800(6) 0.4949(4)
H11 H -0.3471 0.7955 0.4954
C21 C -0.5606(9) 0.7859(5) 0.4166(3)
C22 C -0.4822(8) 0.8186(4) 0.3374(3)
H12 H -0.3589 0.8314 0.3357
C23 C -0.5797(7) 0.8327(4) 0.2615(3)
C24 C -0.4795(8) 0.8736(4) 0.1825(3)
C25 C -0.9368(9) 0.9922(5) -0.3052(4)
H13 H -0.8457 0.9974 -0.2656
C26 C -0.8913(9) 1.0030(5) -0.3918(4)
H14 H -0.7725 1.0168 -0.4091
C27 C -1.0203(8) 0.9936(4) -0.4530(3)
C28 C -1.1942(8) 0.9737(5) -0.4211(4)
H15 H -1.2878 0.9675 -0.4592
C29 C -1.2286(9) 0.9632(5) -0.3335(3)
H16 H -1.3450 0.9474 -0.3141
C30 C -1.4607(8) 0.7011(4) 0.0602(3)
H17 H -1.5295 0.7529 0.0830
C31 C -1.5501(8) 0.6211(4) 0.0438(3)
H18 H -1.6760 0.6204 0.0554
C32 C -1.4532(8) 0.5421(4) 0.0101(3)
C33 C -1.2668(8) 0.5485(5) -0.0034(4)
H19 H -1.1942 0.4973 -0.0252
C34 C -1.1871(8) 0.6298(4) 0.0151(4)
H20 H -1.0604 0.6309 0.0062
O1 O -0.9067(5) 0.9033(3) -0.1235(2)
O2 O -0.9384(5) 0.7810(3) -0.0201(2)
O3 O -0.5471(5) 0.8780(3) -0.0579(2)
O4 O -0.3162(5) 0.8622(3) -0.1545(2)
O5 O -0.9358(5) 0.8915(3) 0.1408(2)
O6 O -0.9444(5) 0.7325(3) 0.1675(2)
O7 O -0.5700(5) 0.9322(3) 0.1288(2)
O8 O -0.3118(5) 0.8491(3) 0.1760(2)
O9 O -0.2228(4) 0.9608(3) 0.00002(18)
H21 H -0.1441 1.0026 -0.0017
N1 N -1.1049(7) 0.9745(3) -0.2754(3)
N2 N -1.2814(6) 0.7076(3) 0.0452(3)
Zn2A Zn 0.16672(9) 1.02606(5) 0.13429(4)
Zn2_2 Zn -0.16672(9) 0.97394(5) -0.13429(4)
Zn2A_2 Zn -0.83328(9) 1.02606(5) 0.13429(4)
Zn2A_3 Zn -0.83328(9) 1.02606(5) -0.86571(4)
Zn3A Zn 0.13841(9) 1.16992(5) -0.06659(4)
Zn3_2 Zn -0.13841(9) 0.83008(5) 0.06659(4)
Zn3A_2 Zn -1.86159(9) 0.16992(5) -0.06659(4)
Zn3A_3 Zn -0.86159(9) 1.16992(5) -0.06659(4)
C1A C -0.1278(8) 1.1824(5) 0.0892(4)
C2A C -0.2536(8) 1.2538(4) 0.1362(3)
C3A C -0.1798(8) 1.3328(4) 0.1617(3)
H1A H -0.0549 1.3394 0.1514
C4A C -0.2889(9) 1.4056(4) 0.2038(3)
C5A C -0.2153(10) 1.4907(5) 0.2267(4)
H2A H -0.0910 1.4988 0.2162
C6A C -0.3233(13) 1.5596(6) 0.2634(5)
H3A H -0.2743 1.6156 0.2771
C7A C -0.5126(12) 1.5470(6) 0.2813(4)
H4A H -0.5865 1.5947 0.3072
C8A C -0.5863(10) 1.4666(5) 0.2611(4)
H5A H -0.7099 1.4588 0.2738
C9A C -0.4779(8) 1.3950(4) 0.2211(3)
C10A C -0.5492(8) 1.3097(5) 0.1956(3)
H6A H -0.6721 1.3002 0.2085
C11A C -0.4447(7) 1.2414(4) 0.1532(3)
C12A C -0.5330(8) 1.1593(4) 0.1199(3)
C13A C -0.1153(7) 1.1892(5) -0.1835(3)
C14A C -0.2360(7) 1.1935(4) -0.2619(3)
C15A C -0.1603(8) 1.2307(5) -0.3393(4)
H7A H -0.0426 1.2517 -0.3391
C16A C -0.2526(9) 1.2382(5) -0.4180(3)
C17A C -0.1679(11) 1.2671(6) -0.4969(4)
H8A H -0.0463 1.2828 -0.4979
C18A C -0.2594(14) 1.2725(7) -0.5711(5)
H9A H -0.2015 1.2922 -0.6230
C19A C -0.4452(15) 1.2482(7) -0.5703(5)
H10A H -0.5080 1.2517 -0.6220
C20A C -0.5314(11) 1.2200(6) -0.4949(4)
H11A H -0.6529 1.2045 -0.4954
C21A C -0.4394(9) 1.2141(5) -0.4166(3)
C22A C -0.5178(8) 1.1814(4) -0.3374(3)
H12A H -0.6411 1.1686 -0.3357
C23A C -0.4203(7) 1.1673(4) -0.2615(3)
C24A C -0.5205(8) 1.1264(4) -0.1825(3)
C25A C -1.0632(9) 1.0078(5) -0.6948(4)
H13A H -1.1543 1.0026 -0.7344
C26A C -1.1087(9) 0.9970(5) -0.6082(4)
H14A H -1.2275 0.9832 -0.5909
C27A C -0.9797(8) 1.0064(4) -0.5470(3)
C28A C -0.8058(8) 1.0263(5) -0.5789(4)
H15A H -0.7122 1.0325 -0.5408
C29A C -0.7714(9) 1.0368(5) -0.6665(3)
H16A H -0.6550 1.0526 -0.6859
C30A C -1.5393(8) 0.2989(4) -0.0602(3)
H17A H -1.4705 0.2471 -0.0830
C31A C -1.4499(8) 0.3789(4) -0.0438(3)
H18A H -1.3240 0.3796 -0.0554
C32A C -1.5468(8) 0.4579(4) -0.0101(3)
C33A C -1.7332(8) 0.4515(5) 0.0034(4)
H19A H -1.8058 0.5027 0.0252
C34A C -1.8129(8) 0.3702(4) -0.0151(4)
H20A H -1.9396 0.3691 -0.0062
O1A O -0.0933(5) 1.0967(3) 0.1235(2)
O2A O -0.0616(5) 1.2190(3) 0.0201(2)
O3A O -0.4529(5) 1.1220(3) 0.0579(2)
O4A O -0.6838(5) 1.1378(3) 0.1545(2)
O4_2 O -1.3162(5) 0.8622(3) -0.1545(2)
O4A_2 O 0.3162(5) 1.1378(3) 0.1545(2)
O5A O -0.0642(5) 1.1085(3) -0.1408(2)
O5A_2 O -1.0642(5) 1.1085(3) -0.1408(2)
O5_2 O 0.0642(5) 0.8915(3) 0.1408(2)
O6A O -0.0556(5) 1.2675(3) -0.1675(2)
O7A O -0.4300(5) 1.0678(3) -0.1288(2)
O7A_2 O -1.4300(5) 1.0678(3) -0.1288(2)
O7_2 O 0.4300(5) 0.9322(3) 0.1288(2)
O8A O -0.6882(5) 1.1509(3) -0.1760(2)
O8_2 O -1.3118(5) 0.8491(3) 0.1760(2)
O8A_2 O 0.3118(5) 1.1509(3) -0.1760(2)
O9A O -0.7772(4) 1.0392(3) -0.00002(18)
O9_2 O -1.2228(4) 0.9608(3) 0.00002(18)
O9A_2 O 0.2228(4) 1.0392(3) -0.00002(18)
H21A H -0.8559 0.9974 0.0017
H21_2 H -1.1441 1.0026 -0.0017
H21A_2 H 0.1441 0.9974 0.0017
N1A N -0.8951(7) 1.0255(3) -0.7246(3)
N1A_2 N 0.1049(7) 1.0255(3) 0.2754(3)
N2A N -1.7186(6) 0.2924(3) -0.0452(3)
N2A_2 N 0.2814(6) 1.2924(3) -0.0452(3)
loop_
_geom_bond_atom_site_label_1
_geom_bond_atom_site_label_2
_geom_bond_site_symmetry_1
_geom_bond_site_symmetry_2
Zn1 O3 1_555 1_555
Zn2 O1 1_555 1_555
Zn3 O2 1_555 1_555
C1 C2 1_555 1_555
C2 C3 1_555 1_555
C3 H1 1_555 1_555
C4 C3 1_555 1_555
C5 C4 1_555 1_555
H2 C5 1_555 1_555
C6 C5 1_555 1_555
H3 C6 1_555 1_555
C7 C6 1_555 1_555
H4 C7 1_555 1_555
C8 C7 1_555 1_555
H5 C8 1_555 1_555
C9 C4 1_555 1_555
C10 C9 1_555 1_555
H6 C10 1_555 1_555
C11 C2 1_555 1_555
C12 C11 1_555 1_555
C13 C14 1_555 1_555
C14 C15 1_555 1_555
C15 H7 1_555 1_555
C16 C15 1_555 1_555
C17 C16 1_555 1_555
H8 C17 1_555 1_555
C18 C17 1_555 1_555
H9 C18 1_555 1_555
C19 C18 1_555 1_555
H10 C19 1_555 1_555
C20 C19 1_555 1_555
H11 C20 1_555 1_555
C21 C16 1_555 1_555
C22 C21 1_555 1_555
H12 C22 1_555 1_555
C23 C14 1_555 1_555
C24 C23 1_555 1_555
C25 H13 1_555 1_555
C26 C25 1_555 1_555
H14 C26 1_555 1_555
C27 C26 1_555 1_555
C28 C27 1_555 1_555
H15 C28 1_555 1_555
C29 C28 1_555 1_555
H16 C29 1_555 1_555
C30 H17 1_555 1_555
C31 C30 1_555 1_555
H18 C31 1_555 1_555
C32 C31 1_555 1_555
C33 C32 1_555 1_555
H19 C33 1_555 1_555
C34 C33 1_555 1_555
H20 C34 1_555 1_555
O1 C1 1_555 1_555
O2 C1 1_555 1_555
O3 C12 1_555 1_555
O4 C12 1_555 1_555
O5 Zn3 1_555 1_555
O6 Zn3 1_555 1_555
O7 Zn1 1_555 1_555
O8 C24 1_555 1_555
O9 Zn1 1_555 1_555
H21 O9 1_555 1_555
N1 Zn2 1_555 1_555
N2 Zn3 1_555 1_555
Zn2A O1A 1_555 1_555
Zn2_2 O4 1_555 1_555
Zn2A_2 O5 1_555 1_555
Zn2A_3 N1A 1_555 1_555
Zn3A O2A 1_555 1_555
Zn3_2 O8 1_555 1_555
Zn3A_2 N2A 1_555 1_555
Zn3A_3 O5A_2 1_555 1_555
C1A C2A 1_555 1_555
C2A C3A 1_555 1_555
C3A H1A 1_555 1_555
C4A C3A 1_555 1_555
C5A C4A 1_555 1_555
H2A C5A 1_555 1_555
C6A C5A 1_555 1_555
H3A C6A 1_555 1_555
C7A C6A 1_555 1_555
H4A C7A 1_555 1_555
C8A C7A 1_555 1_555
H5A C8A 1_555 1_555
C9A C4A 1_555 1_555
C10A C9A 1_555 1_555
H6A C10A 1_555 1_555
C11A C2A 1_555 1_555
C12A C11A 1_555 1_555
C13A C14A 1_555 1_555
C14A C15A 1_555 1_555
C15A H7A 1_555 1_555
C16A C15A 1_555 1_555
C17A C16A 1_555 1_555
H8A C17A 1_555 1_555
C18A C17A 1_555 1_555
H9A C18A 1_555 1_555
C19A C18A 1_555 1_555
H10A C19A 1_555 1_555
C20A C19A 1_555 1_555
H11A C20A 1_555 1_555
C21A C16A 1_555 1_555
C22A C21A 1_555 1_555
H12A C22A 1_555 1_555
C23A C14A 1_555 1_555
C24A C23A 1_555 1_555
C25A H13A 1_555 1_555
C26A C25A 1_555 1_555
H14A C26A 1_555 1_555
C27A C27 1_555 1_555
C28A C27A 1_555 1_555
H15A C28A 1_555 1_555
C29A C28A 1_555 1_555
H16A C29A 1_555 1_555
C30A H17A 1_555 1_555
C31A C30A 1_555 1_555
H18A C31A 1_555 1_555
C32A C32 1_555 1_555
C33A C32A 1_555 1_555
H19A C33A 1_555 1_555
C34A C33A 1_555 1_555
H20A C34A 1_555 1_555
O1A C1A 1_555 1_555
O2A C1A 1_555 1_555
O3A Zn1 1_555 1_555
O4A Zn2A_2 1_555 1_555
O4_2 Zn2 1_555 1_555
O4A_2 Zn2A 1_555 1_555
O5A Zn2_2 1_555 1_555
O5A_2 Zn2 1_555 1_555
O5_2 Zn2A 1_555 1_555
O6A Zn3A 1_555 1_555
O7A Zn1 1_555 1_555
O7A_2 Zn2 1_555 1_555
O7_2 Zn2A 1_555 1_555
O8A Zn3A_3 1_555 1_555
O8_2 Zn3 1_555 1_555
O8A_2 Zn3A 1_555 1_555
O9A Zn1 1_555 1_555
O9_2 Zn2 1_555 1_555
O9A_2 Zn2A 1_555 1_555
H21A O9A 1_555 1_555
H21_2 O9_2 1_555 1_555
H21A_2 O9A_2 1_555 1_555
N1A C25A 1_555 1_555
N1A_2 Zn2A 1_555 1_555
N2A C30A 1_555 1_555
N2A_2 Zn3A 1_555 1_555
Zn3 O9_2 1_555 1_555
C8 C9 1_555 1_555
C10 C11 1_555 1_555
C13 O5 1_555 1_555
C13 O6 1_555 1_555
C20 C21 1_555 1_555
C22 C23 1_555 1_555
C24 O7 1_555 1_555
C25 N1 1_555 1_555
C29 N1 1_555 1_555
C30 N2 1_555 1_555
C34 N2 1_555 1_555
O7 Zn2A_2 1_555 1_555
O9 Zn2_2 1_555 1_555
O9 Zn3_2 1_555 1_555
Zn2_2 O7A 1_555 1_555
Zn2A_2 O9A 1_555 1_555
Zn3A O5A 1_555 1_555
Zn3A O9A_2 1_555 1_555
Zn3_2 O5_2 1_555 1_555
Zn3A_3 O9A 1_555 1_555
C8A C9A 1_555 1_555
C10A C11A 1_555 1_555
C12A O3A 1_555 1_555
C12A O4A 1_555 1_555
C13A O5A 1_555 1_555
C13A O6A 1_555 1_555
C20A C21A 1_555 1_555
C22A C23A 1_555 1_555
C24A O7A 1_555 1_555
C24A O8A 1_555 1_555
C26A C27A 1_555 1_555
C29A N1A 1_555 1_555
C31A C32A 1_555 1_555
C34A N2A 1_555 1_555

#END
