
#######################################################################
#
#                 Cambridge Crystallographic Data Centre
#                                CCDC 
#
#######################################################################
#
# If this CIF has been generated from an entry in the Cambridge 
# Structural Database, then it will include bibliographic, chemical, 
# crystal, experimental, refinement or atomic coordinate data resulting 
# from the CCDC's data processing and validation procedures.
#
#######################################################################

data_ESEQUO
_symmetry_cell_setting           triclinic
_symmetry_space_group_name_H-M   'P -1'
_symmetry_Int_Tables_number      2
_space_group_name_Hall           '-P 1'
loop_
_symmetry_equiv_pos_site_id
_symmetry_equiv_pos_as_xyz
1 x,y,z
2 -x,-y,-z
_cell_length_a                   9.978(2)
_cell_length_b                   11.223(2)
_cell_length_c                   11.283(2)
_cell_angle_alpha                102.26(3)
_cell_angle_beta                 113.52(3)
_cell_angle_gamma                92.73(3)
_cell_volume                     1119.69
loop_
_atom_site_label
_atom_site_type_symbol
_atom_site_fract_x
_atom_site_fract_y
_atom_site_fract_z
Co1 Co 0.5000 0.5000 0.5000
Co2 Co 0.83551(5) 0.68336(4) 0.75638(4)
O1 O 0.5178(3) 0.3222(2) 0.4992(3)
O2 O 0.4913(3) 0.4753(2) 0.3112(2)
O3 O 0.7434(2) 0.5425(2) 0.5685(2)
O4 O 1.0010(3) 0.5640(3) 0.7974(2)
O5 O 0.8204(3) 0.6948(2) 0.4656(2)
O6 O 0.9517(3) 0.7809(2) 0.6833(2)
O7 O 0.9228(3) 0.8194(2) 0.9404(2)
O8 O 0.2609(3) 0.4122(2) 0.1529(2)
O9 O 0.3308(3) 0.2170(2) 0.3077(2)
O10 O 0.9940(3) 0.6231(3) 1.0800(3)
C1 C 0.6002(6) 0.1031(4) 0.5627(6)
H1 H 0.6736 0.1777 0.6090
C2 C 0.3699(6) 0.0036(4) 0.3971(5)
H2 H 0.2757 0.0047 0.3230
C3 C 0.4705(4) 0.1074(3) 0.4596(3)
C4 C 0.4369(4) 0.2252(3) 0.4191(3)
C5 C 0.8315(4) 0.4437(3) 0.5791(4)
H3 H 0.8241 0.4030 0.4913
H4 H 0.7943 0.3834 0.6129
C6 C 0.9910(4) 0.4930(4) 0.6715(4)
H5 H 1.0472 0.4251 0.6851
H6 H 1.0325 0.5444 0.6317
C7 C 0.9063(4) 0.7812(3) 0.5615(3)
C8 C 0.9570(4) 0.8944(3) 0.5301(3)
C9 C 0.9027(5) 0.9039(4) 0.3982(4)
H7 H 0.8335 0.8358 0.3260
C10 C 1.0542(5) 0.9918(4) 0.6309(4)
H8 H 1.0927 0.9862 0.7239
C11 C 1.0557(5) 0.8287(4) 1.0584(4)
H9 H 1.0818 0.9128 1.1131
H10 H 1.1357 0.8093 1.0328
C12 C 1.0389(9) 0.7454(8) 1.1366(7)
H11 H 1.1336 0.7544 1.2122
H12 H 0.9697 0.7753 1.1724
C13 C 0.3962(4) 0.4538(3) 0.1940(3)
C14 C 0.4478(4) 0.4788(3) 0.0923(3)
C15 C 0.5847(4) 0.5495(4) 0.1356(3)
H13 H 0.6452 0.5840 0.2313
C16 C 0.3647(4) 0.4292(4) -0.0432(3)
H14 H 0.2688 0.3783 -0.0741
C2A C 0.6301(6) -0.0036(4) 0.6029(5)
H2A H 0.7243 -0.0047 0.6770
C3A C 0.5295(4) -0.1074(3) 0.5404(3)
C1A C 0.3998(6) -0.1031(4) 0.4373(6)
H1A H 0.3264 -0.1777 0.3910
C4A C 0.5631(4) -0.2252(3) 0.5809(3)
O1A O 0.4822(3) -0.3222(2) 0.5008(3)
O9A O 0.6692(3) -0.2170(2) 0.6923(2)
C16A C 0.6353(4) 0.5708(4) 0.0432(3)
C14A C 0.5522(4) 0.5212(3) -0.0923(3)
C13A C 0.6038(4) 0.5462(3) -0.1940(3)
O2A O 0.5087(3) 0.5247(2) -0.3112(2)
O8A O 0.7391(3) 0.5878(2) -0.1529(2)
C15A C 0.4153(4) 0.4505(4) -0.1356(3)
H13A H 0.3548 0.4160 -0.2313
H14A H 0.7312 0.6217 0.0741
C10A C 0.9458(5) 1.0082(4) 0.3691(4)
C8A C 1.0430(4) 1.1056(3) 0.4699(3)
C7A C 1.0937(4) 1.2188(3) 0.4385(3)
O5A O 1.1796(3) 1.3052(2) 0.5344(2)
O6A O 1.0483(3) 1.2191(2) 0.3167(2)
C9A C 1.0973(5) 1.0961(4) 0.6018(4)
H7A H 1.1665 1.1642 0.6740
H8A H 0.9073 1.0138 0.2761
O3A O 0.2566(2) 0.4575(2) 0.4315(2)
O4A O -0.0010(3) 0.4360(3) 0.2026(2)
C5A C 0.1685(4) 0.5563(3) 0.4209(4)
H3A H 0.1759 0.5970 0.5087
H4A H 0.2057 0.6166 0.3871
C6A C 0.0090(4) 0.5070(4) 0.3285(4)
H5A H -0.0472 0.5749 0.3149
H6A H -0.0325 0.4556 0.3683
Co2A Co 0.16449(5) 0.31664(4) 0.24362(4)
O7A O 0.0772(3) 0.1806(2) 0.0596(2)
O10A O 0.0060(3) 0.3769(3) -0.0800(3)
C11A C -0.0557(5) 0.1713(4) -0.0584(4)
H9A H -0.0818 0.0872 -0.1131
H10A H -0.1357 0.1907 -0.0328
C12A C -0.0389(9) 0.2546(8) -0.1366(7)
H11A H -0.1336 0.2456 -0.2122
H12A H 0.0303 0.2247 -0.1724
O1A_2 O 0.4822(3) 0.6778(2) 0.5008(3)
O2A_2 O 0.5087(3) 0.5247(2) 0.6888(2)
O8A_2 O 0.7391(3) 0.5878(2) 0.8471(2)
O9A_2 O 0.6692(3) 0.7830(2) 0.6923(2)
Co1_2 Co 0.5000 -0.5000 0.5000
Co2_2 Co 0.83551(5) -0.31664(4) 0.75638(4)
Co1_3 Co 0.5000 0.5000 -0.5000
Co2_3 Co 0.83551(5) 0.68336(4) -0.24362(4)
Co2A_2 Co 1.16449(5) 1.31664(4) 0.24362(4)
O6A_2 O 0.0483(3) 0.2191(2) 0.3167(2)
O11 O 0.7169(4) 0.8847(4) 1.0291(4)
C17 C 0.3275(7) 0.7828(8) 0.8697(8)
H15 H 0.2578 0.7827 0.9087
H16 H 0.3283 0.6999 0.8255
H17 H 0.2997 0.8321 0.8061
C18 C 0.5893(6) 0.8455(5) 0.9468(5)
H18 H 0.5732 0.8220 0.8575
C19 C 0.4901(8) 0.8644(7) 1.1098(7)
H19 H 0.3952 0.8508 1.1113
H20 H 0.5324 0.9495 1.1509
H21 H 0.5540 0.8133 1.1581
N1 N 0.4734(5) 0.8338(4) 0.9735(5)
loop_
_geom_bond_atom_site_label_1
_geom_bond_atom_site_label_2
_geom_bond_site_symmetry_1
_geom_bond_site_symmetry_2
Co1 O1 1_555 1_555
Co2 O3 1_555 1_555
O1 C4 1_555 1_555
O2 Co1 1_555 1_555
O3 Co1 1_555 1_555
O4 Co2 1_555 1_555
O5 C7 1_555 1_555
O6 Co2 1_555 1_555
O7 Co2 1_555 1_555
O8 C13 1_555 1_555
O9 C4 1_555 1_555
O10 C12 1_555 1_555
O11 C18 1_555 1_555
C1 H1 1_555 1_555
C2 H2 1_555 1_555
C3 C1 1_555 1_555
C4 C3 1_555 1_555
C5 O3 1_555 1_555
H3 C5 1_555 1_555
H4 C5 1_555 1_555
C6 O4 1_555 1_555
H5 C6 1_555 1_555
H6 C6 1_555 1_555
C7 O6 1_555 1_555
C8 C7 1_555 1_555
C9 C8 1_555 1_555
H7 C9 1_555 1_555
C10 C8 1_555 1_555
H8 C10 1_555 1_555
C11 O7 1_555 1_555
H9 C11 1_555 1_555
H10 C11 1_555 1_555
C12 C11 1_555 1_555
H11 C12 1_555 1_555
H12 C12 1_555 1_555
C13 O2 1_555 1_555
C14 C13 1_555 1_555
C15 C14 1_555 1_555
H13 C15 1_555 1_555
C16 C14 1_555 1_555
H14 C16 1_555 1_555
C17 H15 1_555 1_555
H16 C17 1_555 1_555
H17 C17 1_555 1_555
C18 H18 1_555 1_555
C19 H19 1_555 1_555
H20 C19 1_555 1_555
H21 C19 1_555 1_555
N1 C17 1_555 1_555
C2A C1 1_555 1_555
H2A C2A 1_555 1_555
C3A C2A 1_555 1_555
C1A C2 1_555 1_555
H1A C1A 1_555 1_555
C4A C3A 1_555 1_555
O1A C4A 1_555 1_555
O9A C4A 1_555 1_555
C16A C15 1_555 1_555
C14A C16A 1_555 1_555
C13A C14A 1_555 1_555
O2A C13A 1_555 1_555
O8A C13A 1_555 1_555
C15A C16 1_555 1_555
H13A C15A 1_555 1_555
H14A C16A 1_555 1_555
C10A C9 1_555 1_555
C8A C10A 1_555 1_555
C7A C8A 1_555 1_555
O5A C7A 1_555 1_555
O6A C7A 1_555 1_555
C9A C10 1_555 1_555
H7A C9A 1_555 1_555
H8A C10A 1_555 1_555
O3A Co1 1_555 1_555
O4A C6A 1_555 1_555
C5A O3A 1_555 1_555
H3A C5A 1_555 1_555
H4A C5A 1_555 1_555
C6A C5A 1_555 1_555
H5A C6A 1_555 1_555
H6A C6A 1_555 1_555
Co2A O8 1_555 1_555
O7A Co2A 1_555 1_555
O10A C12A 1_555 1_555
C11A O7A 1_555 1_555
H9A C11A 1_555 1_555
H10A C11A 1_555 1_555
C12A C11A 1_555 1_555
H11A C12A 1_555 1_555
H12A C12A 1_555 1_555
O1A_2 Co1 1_555 1_555
O2A_2 Co1 1_555 1_555
O8A_2 Co2 1_555 1_555
O9A_2 Co2 1_555 1_555
Co1_2 O1A 1_555 1_555
Co2_2 O9A 1_555 1_555
Co1_3 O2A 1_555 1_555
Co2_3 O8A 1_555 1_555
Co2A_2 O6A 1_555 1_555
O6A_2 Co2A 1_555 1_555
O9 Co2A 1_555 1_555
C2 C3 1_555 1_555
C5 C6 1_555 1_555
C18 N1 1_555 1_555
C19 N1 1_555 1_555
C3A C1A 1_555 1_555
C14A C15A 1_555 1_555
C8A C9A 1_555 1_555
O3A Co2A 1_555 1_555
O4A Co2A 1_555 1_555

#END
