
#######################################################################
#
#                 Cambridge Crystallographic Data Centre
#                                CCDC 
#
#######################################################################
#
# If this CIF has been generated from an entry in the Cambridge 
# Structural Database, then it will include bibliographic, chemical, 
# crystal, experimental, refinement or atomic coordinate data resulting 
# from the CCDC's data processing and validation procedures.
#
#######################################################################

data_ESEVON
_symmetry_cell_setting           monoclinic
_symmetry_space_group_name_H-M   'P 21/n'
_symmetry_Int_Tables_number      14
_space_group_name_Hall           '-P 2yn'
loop_
_symmetry_equiv_pos_site_id
_symmetry_equiv_pos_as_xyz
1 x,y,z
2 1/2+x,1/2-y,1/2+z
3 -x,-y,-z
4 1/2-x,1/2+y,1/2-z
_cell_length_a                   8.3595(2)
_cell_length_b                   11.3634(3)
_cell_length_c                   16.3161(5)
_cell_angle_alpha                90
_cell_angle_beta                 102.265(2)
_cell_angle_gamma                90
_cell_volume                     1514.53
loop_
_atom_site_label
_atom_site_type_symbol
_atom_site_fract_x
_atom_site_fract_y
_atom_site_fract_z
Zn1 Zn -0.02410(4) 0.34904(3) 0.84413(2)
Zn2 Zn 0.21569(4) 0.58263(3) 0.82789(2)
O1 O 0.1384(3) 0.4632(2) 0.89161(13)
O2 O 0.0356(3) 0.17636(18) 0.85460(12)
O3 O 0.0493(3) 0.25988(19) 0.97809(13)
O4 O 0.4595(3) 0.11605(18) 1.22080(12)
O5 O 0.5600(3) -0.06698(18) 1.21768(13)
O6 O 0.3355(3) -0.33117(17) 0.98376(12)
O7 O 0.2073(3) -0.25381(18) 0.86231(12)
N1 N -0.2527(3) 0.4062(2) 0.85300(14)
H1 H -0.2699 0.3815 0.9035
N2 N -0.5633(3) 0.5345(2) 0.80388(14)
H2 H -0.5573 0.5625 0.7524
C1 C 0.1791(3) 0.0743(2) 0.97702(17)
C2 C 0.2721(4) 0.0908(3) 1.05793(17)
H3 H 0.2675 0.1624 1.0850
C3 C 0.3718(3) 0.0008(2) 1.09864(17)
C4 C 0.3745(3) -0.1067(3) 1.05838(17)
H4 H 0.4421 -0.1666 1.0848
C5 C 0.2779(3) -0.1258(3) 0.97928(16)
C6 C 0.1827(3) -0.0336(3) 0.93789(17)
H5 H 0.1214 -0.0448 0.8838
C7 C 0.0804(4) 0.1764(3) 0.93504(19)
C8 C 0.4722(3) 0.0194(3) 1.18571(17)
C9 C 0.2742(3) -0.2461(3) 0.94031(18)
C10 C -0.3900(4) 0.3602(3) 0.78765(18)
H6 H -0.3884 0.2749 0.7888
H7 H -0.3762 0.3855 0.7328
C11 C -0.5537(4) 0.4036(3) 0.80175(18)
H8 H -0.6403 0.3741 0.7572
H9 H -0.5715 0.3722 0.8544
C12 C -0.4223(4) 0.5828(3) 0.86638(19)
H10 H -0.4345 0.5616 0.9223
H11 H -0.4235 0.6679 0.8625
C13 C -0.2591(4) 0.5373(3) 0.85316(19)
H12 H -0.2405 0.5667 0.8001
H13 H -0.1722 0.5672 0.8974
H14 H 0.177(5) 0.460(4) 0.9428(13)
O4A O -0.0405(3) 0.38395(18) 0.72080(12)
O5A O 0.0600(3) 0.56698(18) 0.71768(13)
O7_2 O 0.2073(3) 0.74619(18) 0.86231(12)
N2_2 N 0.4367(3) 0.5345(2) 0.80388(14)
Zn1A Zn 0.47590(4) 0.15096(3) 1.34413(2)
Zn2A Zn 0.71569(4) -0.08263(3) 1.32789(2)
Zn2_2 Zn 0.21569(4) -0.41737(3) 0.82789(2)
Zn2_3 Zn -0.78431(4) 0.58263(3) 0.82789(2)
H2_2 H 0.4427 0.5625 0.7524
loop_
_geom_bond_atom_site_label_1
_geom_bond_atom_site_label_2
_geom_bond_site_symmetry_1
_geom_bond_site_symmetry_2
Zn1 O1 1_555 1_555
Zn2 O1 1_555 1_555
O1 H14 1_555 1_555
O2 Zn1 1_555 1_555
O3 Zn1 1_555 1_555
O4 C8 1_555 1_555
O5 C8 1_555 1_555
O6 C9 1_555 1_555
O7 C9 1_555 1_555
N1 Zn1 1_555 1_555
H1 N1 1_555 1_555
N2 H2 1_555 1_555
C1 C2 1_555 1_555
C2 H3 1_555 1_555
C3 C2 1_555 1_555
C4 C3 1_555 1_555
H4 C4 1_555 1_555
C5 C4 1_555 1_555
C6 C1 1_555 1_555
H5 C6 1_555 1_555
C7 O2 1_555 1_555
C8 C3 1_555 1_555
C9 C5 1_555 1_555
C10 N1 1_555 1_555
H6 C10 1_555 1_555
H7 C10 1_555 1_555
C11 N2 1_555 1_555
H8 C11 1_555 1_555
H9 C11 1_555 1_555
C12 N2 1_555 1_555
H10 C12 1_555 1_555
H11 C12 1_555 1_555
C13 N1 1_555 1_555
H12 C13 1_555 1_555
H13 C13 1_555 1_555
O4A Zn1 1_555 1_555
O5A Zn2 1_555 1_555
O7_2 Zn2 1_555 1_555
N2_2 Zn2 1_555 1_555
Zn1A O4 1_555 1_555
Zn2A O5 1_555 1_555
Zn2_2 O7 1_555 1_555
Zn2_3 N2 1_555 1_555
H2_2 N2_2 1_555 1_555
O3 C7 1_555 1_555
C1 C7 1_555 1_555
C5 C6 1_555 1_555
C10 C11 1_555 1_555
C12 C13 1_555 1_555

#END
