
#######################################################################
#
#                 Cambridge Crystallographic Data Centre
#                                CCDC 
#
#######################################################################
#
# If this CIF has been generated from an entry in the Cambridge 
# Structural Database, then it will include bibliographic, chemical, 
# crystal, experimental, refinement or atomic coordinate data resulting 
# from the CCDC's data processing and validation procedures.
#
#######################################################################

data_ESOYUH02
_symmetry_cell_setting           monoclinic
_symmetry_space_group_name_H-M   'P 21/c'
_symmetry_Int_Tables_number      14
_space_group_name_Hall           '-P 2ybc'
loop_
_symmetry_equiv_pos_site_id
_symmetry_equiv_pos_as_xyz
1 x,y,z
2 -x,1/2+y,1/2-z
3 -x,-y,-z
4 x,1/2-y,1/2+z
_cell_length_a                   17.6580(5)
_cell_length_b                   14.2275(5)
_cell_length_c                   16.3555(5)
_cell_angle_alpha                90
_cell_angle_beta                 99.313(2)
_cell_angle_gamma                90
_cell_volume                     4054.82
loop_
_atom_site_label
_atom_site_type_symbol
_atom_site_fract_x
_atom_site_fract_y
_atom_site_fract_z
Fe1 Fe 0.5000 0.5000 0.0000
Fe2 Fe 0.0000 0.5000 0.0000
S1 S 0.18742(18) 0.3783(3) 0.2248(2)
S2 S 0.68157(16) 0.7237(2) 0.1476(2)
O1 O 0.2431(4) -0.1264(4) 0.1530(6)
N1 N 0.0826(4) 0.4451(6) 0.0927(5)
N2 N 0.0013(4) 0.3724(5) -0.0755(5)
N3 N 0.1338(4) 0.3954(5) -0.0710(5)
N4 N 0.0864(4) 0.5499(5) -0.0714(5)
N5 N 0.1902(4) 0.2686(5) 0.0018(5)
N6 N 0.3131(4) 0.2882(5) 0.0853(5)
N7 N 0.2492(3) 0.4188(5) 0.0122(4)
N8 N 0.2506(4) 0.1437(5) 0.0770(5)
N9 N 0.4070(4) 0.5785(4) 0.0428(5)
N10 N 0.3659(4) 0.4370(4) 0.0958(4)
N11 N 0.4987(4) 0.4206(5) 0.1153(5)
N12 N 0.5783(4) 0.5930(5) 0.0666(5)
C1 C -0.0628(5) 0.3246(7) -0.1043(6)
H1 H -0.1098 0.3472 -0.0923
C2 C -0.0630(6) 0.2435(8) -0.1510(7)
H2 H -0.1084 0.2088 -0.1661
C3 C 0.0040(6) 0.2148(7) -0.1746(7)
H3 H 0.0046 0.1623 -0.2093
C4 C 0.0695(5) 0.2628(7) -0.1477(7)
H4 H 0.1163 0.2434 -0.1627
C5 C 0.0668(5) 0.3408(6) -0.0978(6)
C6 C 0.1366(5) 0.4922(6) -0.0952(6)
C7 C 0.1907(6) 0.5182(7) -0.1417(7)
H5 H 0.2253 0.4746 -0.1580
C8 C 0.1921(6) 0.6154(8) -0.1643(8)
H6 H 0.2284 0.6381 -0.1956
C9 C 0.1397(6) 0.6738(7) -0.1395(7)
H7 H 0.1396 0.7379 -0.1536
C10 C 0.0871(6) 0.6406(7) -0.0942(6)
H8 H 0.0505 0.6821 -0.0785
C11 C 0.1941(4) 0.3586(5) -0.0166(6)
C12 C 0.2515(4) 0.2404(5) 0.0523(5)
C13 C 0.3065(4) 0.3784(5) 0.0646(6)
C14 C 0.2026(6) 0.0806(7) 0.0310(8)
H9 H 0.1704 0.1015 -0.0169
C15 C 0.2007(7) -0.0107(7) 0.0529(9)
H10 H 0.1694 -0.0528 0.0182
C16 C 0.2462(6) -0.0452(6) 0.1294(7)
C17 C 0.2931(6) 0.0255(7) 0.1735(8)
H11 H 0.3238 0.0090 0.2239
C18 C 0.2957(6) 0.1143(6) 0.1470(7)
H12 H 0.3296 0.1571 0.1778
C19 C 0.3566(5) 0.5374(6) 0.0824(5)
C20 C 0.3000(5) 0.5844(7) 0.1137(7)
H13 H 0.2664 0.5523 0.1431
C21 C 0.2934(5) 0.6791(7) 0.1012(7)
H14 H 0.2536 0.7125 0.1199
C22 C 0.3442(6) 0.7245(7) 0.0621(7)
H15 H 0.3415 0.7900 0.0543
C23 C 0.4008(5) 0.6717(6) 0.0336(6)
H16 H 0.4365 0.7031 0.0065
C24 C 0.4337(4) 0.4024(6) 0.1455(6)
C25 C 0.4295(5) 0.3577(6) 0.2187(6)
H17 H 0.3819 0.3473 0.2359
C26 C 0.4972(6) 0.3279(8) 0.2667(7)
H18 H 0.4970 0.2983 0.3180
C27 C 0.5656(6) 0.3431(8) 0.2366(7)
H19 H 0.6122 0.3209 0.2663
C28 C 0.5646(5) 0.3912(7) 0.1628(6)
H20 H 0.6115 0.4039 0.1449
C29 C 0.6199(5) 0.6471(6) 0.1000(6)
C30 C 0.1247(6) 0.4179(7) 0.1467(7)
Fe2_2 Fe 1.0000 0.5000 0.0000
S1B S -0.18742(18) 0.6217(3) -0.2248(2)
S2B S 0.31843(16) 0.2763(2) -0.1476(2)
O1B O 0.7569(4) 1.1264(4) -0.1530(6)
N1B N -0.0826(4) 0.5549(6) -0.0927(5)
N2B N 0.9987(4) 0.6276(5) 0.0755(5)
N2B_2 N -0.0013(4) 0.6276(5) 0.0755(5)
N3B N 0.8662(4) 0.6046(5) 0.0710(5)
N4B N 0.9136(4) 0.4501(5) 0.0714(5)
N4B_2 N -0.0864(4) 0.4501(5) 0.0714(5)
N5B N 0.8098(4) 0.7314(5) -0.0018(5)
N6B N 0.6869(4) 0.7118(5) -0.0853(5)
N7B N 0.7508(3) 0.5812(5) -0.0122(4)
N8B N 0.7494(4) 0.8563(5) -0.0770(5)
N9B N 0.5930(4) 0.4215(4) -0.0428(5)
N10B N 0.6341(4) 0.5630(4) -0.0958(4)
N11B N 0.5013(4) 0.5794(5) -0.1153(5)
N12B N 0.4217(4) 0.4070(5) -0.0666(5)
C1B C 1.0628(5) 0.6754(7) 0.1043(6)
H1B H 1.1098 0.6528 0.0923
C2B C 1.0630(6) 0.7565(8) 0.1510(7)
H2B H 1.1084 0.7912 0.1661
C3B C 0.9960(6) 0.7852(7) 0.1746(7)
H3B H 0.9954 0.8377 0.2093
C4B C 0.9305(5) 0.7372(7) 0.1477(7)
H4B H 0.8837 0.7566 0.1627
C5B C 0.9332(5) 0.6592(6) 0.0978(6)
C6B C 0.8634(5) 0.5078(6) 0.0952(6)
C7B C 0.8093(6) 0.4818(7) 0.1417(7)
H5B H 0.7747 0.5254 0.1580
C8B C 0.8079(6) 0.3846(8) 0.1643(8)
H6B H 0.7716 0.3619 0.1956
C9B C 0.8603(6) 0.3262(7) 0.1395(7)
H7B H 0.8604 0.2621 0.1536
C10B C 0.9129(6) 0.3594(7) 0.0942(6)
H8B H 0.9495 0.3179 0.0785
C11B C 0.8059(4) 0.6414(5) 0.0166(6)
C12B C 0.7485(4) 0.7596(5) -0.0523(5)
C13B C 0.6935(4) 0.6216(5) -0.0646(6)
C14B C 0.7974(6) 0.9194(7) -0.0310(8)
H9B H 0.8296 0.8985 0.0169
C15B C 0.7993(7) 1.0107(7) -0.0529(9)
H10B H 0.8306 1.0528 -0.0182
C16B C 0.7538(6) 1.0452(6) -0.1294(7)
C17B C 0.7069(6) 0.9745(7) -0.1735(8)
H11B H 0.6762 0.9910 -0.2239
C18B C 0.7043(6) 0.8857(6) -0.1470(7)
H12B H 0.6704 0.8429 -0.1778
C19B C 0.6434(5) 0.4626(6) -0.0824(5)
C20B C 0.7000(5) 0.4156(7) -0.1137(7)
H13B H 0.7336 0.4477 -0.1431
C21B C 0.7066(5) 0.3209(7) -0.1012(7)
H14B H 0.7464 0.2875 -0.1199
C22B C 0.6558(6) 0.2755(7) -0.0621(7)
H15B H 0.6585 0.2100 -0.0543
C23B C 0.5992(5) 0.3283(6) -0.0336(6)
H16B H 0.5635 0.2969 -0.0065
C24B C 0.5663(4) 0.5976(6) -0.1455(6)
C25B C 0.5705(5) 0.6423(6) -0.2187(6)
H17B H 0.6181 0.6527 -0.2359
C26B C 0.5028(6) 0.6721(8) -0.2667(7)
H18B H 0.5030 0.7017 -0.3180
C27B C 0.4344(6) 0.6569(8) -0.2366(7)
H19B H 0.3878 0.6791 -0.2663
C28B C 0.4354(5) 0.6088(7) -0.1628(6)
H20B H 0.3885 0.5961 -0.1449
C29B C 0.3801(5) 0.3529(6) -0.1000(6)
C30B C -0.1247(6) 0.5821(7) -0.1467(7)
Cl1 Cl -0.0040(4) 0.8686(4) -0.0485(4)
Cl2 Cl 0.0209(5) 0.9516(6) -0.2045(6)
C31 C -0.0423(9) 0.911(2) -0.1443(10)
H21 H -0.0726 0.8605 -0.1747
H22 H -0.0777 0.9619 -0.1368
Cl3 Cl 0.5043(6) 0.0958(6) 0.2264(7)
C32 C 0.494(3) 0.0563(12) 0.1270(9)
Cl4 Cl 0.493(3) 0.138(2) 0.0514(10)
Cl5? Cl 0.4662(17) 0.1389(14) 0.0521(8)
loop_
_geom_bond_atom_site_label_1
_geom_bond_atom_site_label_2
_geom_bond_site_symmetry_1
_geom_bond_site_symmetry_2
Fe1 N9 1_555 1_555
Fe2 N1 1_555 1_555
S1 C30 1_555 1_555
S2 C29 1_555 1_555
O1 C16 1_555 1_555
N1 C30 1_555 1_555
N2 Fe2 1_555 1_555
N3 C5 1_555 1_555
N4 Fe2 1_555 1_555
N5 C11 1_555 1_555
N6 C12 1_555 1_555
N7 C11 1_555 1_555
N8 C12 1_555 1_555
N9 C19 1_555 1_555
N10 C13 1_555 1_555
N11 Fe1 1_555 1_555
N12 Fe1 1_555 1_555
C1 N2 1_555 1_555
H1 C1 1_555 1_555
C2 C1 1_555 1_555
H2 C2 1_555 1_555
C3 C2 1_555 1_555
H3 C3 1_555 1_555
C4 C3 1_555 1_555
H4 C4 1_555 1_555
C5 N2 1_555 1_555
C6 N3 1_555 1_555
C7 C6 1_555 1_555
H5 C7 1_555 1_555
C8 C7 1_555 1_555
H6 C8 1_555 1_555
C9 C8 1_555 1_555
H7 C9 1_555 1_555
C10 N4 1_555 1_555
H8 C10 1_555 1_555
C11 N3 1_555 1_555
C12 N5 1_555 1_555
C13 N6 1_555 1_555
C14 N8 1_555 1_555
H9 C14 1_555 1_555
C15 C14 1_555 1_555
H10 C15 1_555 1_555
C16 C15 1_555 1_555
C17 C16 1_555 1_555
H11 C17 1_555 1_555
C18 N8 1_555 1_555
H12 C18 1_555 1_555
C19 N10 1_555 1_555
C20 C19 1_555 1_555
H13 C20 1_555 1_555
C21 C20 1_555 1_555
H14 C21 1_555 1_555
C22 C21 1_555 1_555
H15 C22 1_555 1_555
C23 N9 1_555 1_555
H16 C23 1_555 1_555
C24 N10 1_555 1_555
C25 C24 1_555 1_555
H17 C25 1_555 1_555
C26 C25 1_555 1_555
H18 C26 1_555 1_555
C27 C26 1_555 1_555
H19 C27 1_555 1_555
C28 N11 1_555 1_555
H20 C28 1_555 1_555
C29 N12 1_555 1_555
Cl1 C31 1_555 1_555
Cl2 C31 1_555 1_555
C31 H21 1_555 1_555
H22 C31 1_555 1_555
Cl3 C32 1_555 1_555
C32 Cl4 1_555 1_555
Fe2_2 N2B 1_555 1_555
S1B C30B 1_555 1_555
S2B C29B 1_555 1_555
O1B C16B 1_555 1_555
N1B Fe2 1_555 1_555
N2B C1B 1_555 1_555
N2B_2 Fe2 1_555 1_555
N3B C5B 1_555 1_555
N4B Fe2_2 1_555 1_555
N4B_2 Fe2 1_555 1_555
N5B C11B 1_555 1_555
N6B C12B 1_555 1_555
N7B C11B 1_555 1_555
N8B C12B 1_555 1_555
N9B Fe1 1_555 1_555
N10B C13B 1_555 1_555
N11B Fe1 1_555 1_555
N12B Fe1 1_555 1_555
C1B H1B 1_555 1_555
C2B C1B 1_555 1_555
H2B C2B 1_555 1_555
C3B C2B 1_555 1_555
H3B C3B 1_555 1_555
C4B C3B 1_555 1_555
H4B C4B 1_555 1_555
C5B N2B 1_555 1_555
C6B N3B 1_555 1_555
C7B C6B 1_555 1_555
H5B C7B 1_555 1_555
C8B C7B 1_555 1_555
H6B C8B 1_555 1_555
C9B C8B 1_555 1_555
H7B C9B 1_555 1_555
C10B N4B 1_555 1_555
H8B C10B 1_555 1_555
C11B N3B 1_555 1_555
C12B N5B 1_555 1_555
C13B N6B 1_555 1_555
C14B N8B 1_555 1_555
H9B C14B 1_555 1_555
C15B C14B 1_555 1_555
H10B C15B 1_555 1_555
C16B C15B 1_555 1_555
C17B C16B 1_555 1_555
H11B C17B 1_555 1_555
C18B N8B 1_555 1_555
H12B C18B 1_555 1_555
C19B N9B 1_555 1_555
C20B C19B 1_555 1_555
H13B C20B 1_555 1_555
C21B C20B 1_555 1_555
H14B C21B 1_555 1_555
C22B C21B 1_555 1_555
H15B C22B 1_555 1_555
C23B N9B 1_555 1_555
H16B C23B 1_555 1_555
C24B N10B 1_555 1_555
C25B C24B 1_555 1_555
H17B C25B 1_555 1_555
C26B C25B 1_555 1_555
H18B C26B 1_555 1_555
C27B C26B 1_555 1_555
H19B C27B 1_555 1_555
C28B N11B 1_555 1_555
H20B C28B 1_555 1_555
C29B N12B 1_555 1_555
C30B N1B 1_555 1_555
N4 C6 1_555 1_555
N7 C13 1_555 1_555
N11 C24 1_555 1_555
C4 C5 1_555 1_555
C9 C10 1_555 1_555
C17 C18 1_555 1_555
C22 C23 1_555 1_555
C27 C28 1_555 1_555
N4B C6B 1_555 1_555
N7B C13B 1_555 1_555
N10B C19B 1_555 1_555
N11B C24B 1_555 1_555
C4B C5B 1_555 1_555
C9B C10B 1_555 1_555
C17B C18B 1_555 1_555
C22B C23B 1_555 1_555
C27B C28B 1_555 1_555

#END
