
#######################################################################
#
#                 Cambridge Crystallographic Data Centre
#                                CCDC 
#
#######################################################################
#
# If this CIF has been generated from an entry in the Cambridge 
# Structural Database, then it will include bibliographic, chemical, 
# crystal, experimental, refinement or atomic coordinate data resulting 
# from the CCDC's data processing and validation procedures.
#
#######################################################################

data_ESOYUG01
_symmetry_cell_setting           monoclinic
_symmetry_space_group_name_H-M   'P 21/c'
_symmetry_Int_Tables_number      14
_space_group_name_Hall           '-P 2ybc'
loop_
_symmetry_equiv_pos_site_id
_symmetry_equiv_pos_as_xyz
1 x,y,z
2 -x,1/2+y,1/2-z
3 -x,-y,-z
4 x,1/2-y,1/2+z
_cell_length_a                   5.386
_cell_length_b                   22.685
_cell_length_c                   7.678
_cell_angle_alpha                90
_cell_angle_beta                 92.261
_cell_angle_gamma                90
_cell_volume                     937.379
loop_
_atom_site_label
_atom_site_type_symbol
_atom_site_fract_x
_atom_site_fract_y
_atom_site_fract_z
Zn1 Zn 0.3959 0.6069 0.3452
O1 O 0.1124 0.6412 0.5533
O2 O 0.3459 0.6071 0.9479
N1 N 0.5234 0.6886 0.3243
C1 C 0.1226 0.5898 0.6093
C2 C -0.0614 0.5693 0.9021
C3 C 0.4025 0.7371 0.3701
O3 O 0.2775 0.5534 0.5505
O4 O 0.1214 0.5870 1.1779
O5 O 0.6863 0.5544 0.3083
N2 N 0.5250 0.7850 0.3254
C4 C -0.0690 0.5693 0.7290
C5 C 0.1533 0.5894 1.0122
C6 C 0.7380 0.7676 0.2483
O4_2 O 0.1214 0.5870 0.1779
Zn1_2 Zn 0.3959 0.6069 1.3452
loop_
_geom_bond_atom_site_label_1
_geom_bond_atom_site_label_2
_geom_bond_site_symmetry_1
_geom_bond_site_symmetry_2
Zn1 O1 1_555 1_555
O1 C1 1_555 1_555
O2 C5 1_555 1_555
N1 Zn1 1_555 1_555
C1 O3 1_555 1_555
C2 C4 1_555 1_555
C3 N1 1_555 1_555
O3 Zn1 1_555 1_555
O4 C5 1_555 1_555
O5 Zn1 1_555 1_555
N2 C3 1_555 1_555
C4 C1 1_555 1_555
C5 C2 1_555 1_555
C6 N2 1_555 1_555
O4_2 Zn1 1_555 1_555
Zn1_2 O4 1_555 1_555

#END
