
#######################################################################
#
#                 Cambridge Crystallographic Data Centre
#                                CCDC 
#
#######################################################################
#
# If this CIF has been generated from an entry in the Cambridge 
# Structural Database, then it will include bibliographic, chemical, 
# crystal, experimental, refinement or atomic coordinate data resulting 
# from the CCDC's data processing and validation procedures.
#
#######################################################################

data_ESOZUI
_symmetry_cell_setting           monoclinic
_symmetry_space_group_name_H-M   'P 21/c'
_symmetry_Int_Tables_number      14
_space_group_name_Hall           '-P 2ybc'
loop_
_symmetry_equiv_pos_site_id
_symmetry_equiv_pos_as_xyz
1 x,y,z
2 -x,1/2+y,1/2-z
3 -x,-y,-z
4 x,1/2-y,1/2+z
_cell_length_a                   17.5612(12)
_cell_length_b                   14.3279(9)
_cell_length_c                   16.3272(14)
_cell_angle_alpha                90
_cell_angle_beta                 98.768(3)
_cell_angle_gamma                90
_cell_volume                     4060.16
loop_
_atom_site_label
_atom_site_type_symbol
_atom_site_fract_x
_atom_site_fract_y
_atom_site_fract_z
Fe1 Fe 0.0000 0.5000 0.5000
Fe2 Fe 0.5000 0.5000 0.5000
S1 S 0.31093(17) 0.3952(2) 0.2704(2)
S2 S -0.18070(16) 0.7198(2) 0.3488(2)
N1 N 0.1867(4) 0.2888(5) 0.4163(5)
N2 N 0.0929(4) 0.5770(5) 0.4592(5)
N3 N 0.5003(4) 0.3715(5) 0.5760(5)
N4 N 0.0014(4) 0.4209(5) 0.3850(5)
N5 N 0.4147(4) 0.5479(5) 0.5733(5)
N6 N 0.3674(4) 0.3933(5) 0.5724(5)
N7 N 0.2516(4) 0.4169(5) 0.4892(5)
N8 N 0.2453(4) 0.1426(5) 0.4282(5)
N9 N 0.4153(4) 0.4471(6) 0.4076(6)
N10 N 0.3092(4) 0.2667(5) 0.4997(5)
N11 N 0.1361(4) 0.4385(4) 0.4052(5)
N12 N -0.0765(5) 0.5930(6) 0.4324(5)
C1 C 0.4313(6) 0.2635(7) 0.6445(7)
H1 H 0.3846 0.2452 0.6611
C2 C 0.1942(5) 0.3802(6) 0.4371(6)
C3 C 0.2480(5) 0.2399(6) 0.4495(6)
C4 C 0.3098(6) 0.5158(7) 0.6471(7)
H2 H 0.2757 0.4716 0.6637
C5 C -0.1186(5) 0.6466(7) 0.3982(6)
O1 O 0.2539(4) -0.1256(5) 0.3499(6)
C6 C 0.5002(7) 0.2110(7) 0.6680(8)
H3 H 0.4996 0.1548 0.6977
C7 C 0.3068(5) 0.3579(6) 0.5182(6)
C8 C 0.2021(6) 0.0266(6) 0.3321(7)
H4 H 0.1700 0.0099 0.2828
C9 C 0.3592(7) 0.6673(8) 0.6455(8)
H5 H 0.3586 0.7307 0.6602
C10 C 0.5673(6) 0.2447(8) 0.6461(7)
H6 H 0.6141 0.2127 0.6611
C11 C 0.4123(6) 0.6360(7) 0.5987(7)
H7 H 0.4486 0.6785 0.5838
C12 C 0.4357(5) 0.3393(6) 0.5983(6)
C13 C 0.2010(5) 0.1130(6) 0.3576(7)
H8 H 0.1684 0.1560 0.3261
C14 C 0.2897(6) 0.0816(6) 0.4750(8)
H9 H 0.3199 0.1015 0.5245
C15 C 0.5646(6) 0.3264(7) 0.6016(7)
H10 H 0.6109 0.3512 0.5890
C16 C 0.3727(6) 0.4253(7) 0.3494(7)
C17 C -0.0634(5) 0.3937(6) 0.3368(7)
H11 H -0.1107 0.4071 0.3544
C18 C 0.1447(5) 0.5362(6) 0.4190(6)
C19 C 0.3634(5) 0.4887(6) 0.5979(6)
C20 C 0.0683(5) 0.4037(6) 0.3561(6)
C21 C 0.0711(6) 0.3581(7) 0.2820(7)
H12 H 0.1189 0.3468 0.2646
C22 C 0.3063(7) 0.6070(7) 0.6716(7)
H13 H 0.2699 0.6274 0.7044
C23 C 0.1556(6) 0.7232(7) 0.4416(8)
H14 H 0.1586 0.7879 0.4510
C24 C 0.0989(6) 0.6720(6) 0.4680(7)
H15 H 0.0619 0.7034 0.4937
C25 C 0.2498(6) -0.0432(7) 0.3754(8)
C26 C 0.2915(6) -0.0084(7) 0.4517(8)
H16 H 0.3215 -0.0505 0.4872
C27 C -0.0642(6) 0.3464(7) 0.2620(8)
H17 H -0.1111 0.3266 0.2313
C28 C 0.2034(6) 0.5843(7) 0.3884(7)
H18 H 0.2387 0.5533 0.3599
C29 C 0.2075(6) 0.6802(7) 0.4019(8)
H19 H 0.2468 0.7152 0.3832
C30 C 0.0045(7) 0.3291(7) 0.2337(8)
H20 H 0.0057 0.2985 0.1830
Fe2_2 Fe -0.5000 0.5000 0.5000
S1B S 0.68907(17) 0.6048(2) 0.7296(2)
S2B S 0.18070(16) 0.2802(2) 0.6512(2)
N1B N -0.1867(4) 0.7112(5) 0.5837(5)
N2B N -0.0929(4) 0.4230(5) 0.5408(5)
N3B N -0.5003(4) 0.6285(5) 0.4240(5)
N3B_2 N 0.4997(4) 0.6285(5) 0.4240(5)
N4B N -0.0014(4) 0.5791(5) 0.6150(5)
N5B N -0.4147(4) 0.4521(5) 0.4267(5)
N5B_2 N 0.5853(4) 0.4521(5) 0.4267(5)
N6B N -0.3674(4) 0.6067(5) 0.4276(5)
N7B N -0.2516(4) 0.5831(5) 0.5108(5)
N8B N -0.2453(4) 0.8574(5) 0.5718(5)
N9B N 0.5847(4) 0.5529(6) 0.5924(6)
N10B N -0.3092(4) 0.7333(5) 0.5003(5)
N11B N -0.1361(4) 0.5615(4) 0.5948(5)
N12B N 0.0765(5) 0.4070(6) 0.5676(5)
C1B C -0.4313(6) 0.7365(7) 0.3555(7)
H1B H -0.3846 0.7548 0.3389
C2B C -0.1942(5) 0.6198(6) 0.5629(6)
C3B C -0.2480(5) 0.7601(6) 0.5505(6)
C4B C -0.3098(6) 0.4842(7) 0.3529(7)
H2B H -0.2757 0.5284 0.3363
C5B C 0.1186(5) 0.3534(7) 0.6018(6)
O1B O -0.2539(4) 1.1256(5) 0.6501(6)
C6B C -0.5002(7) 0.7890(7) 0.3320(8)
H3B H -0.4996 0.8452 0.3023
C7B C -0.3068(5) 0.6421(6) 0.4818(6)
C8B C -0.2021(6) 0.9734(6) 0.6679(7)
H4B H -0.1700 0.9901 0.7172
C9B C -0.3592(7) 0.3327(8) 0.3545(8)
H5B H -0.3586 0.2693 0.3398
C10B C -0.5673(6) 0.7553(8) 0.3539(7)
H6B H -0.6141 0.7873 0.3389
C11B C -0.4123(6) 0.3640(7) 0.4013(7)
H7B H -0.4486 0.3215 0.4162
C12B C -0.4357(5) 0.6607(6) 0.4017(6)
C13B C -0.2010(5) 0.8870(6) 0.6424(7)
H8B H -0.1684 0.8440 0.6739
C14B C -0.2897(6) 0.9184(6) 0.5250(8)
H9B H -0.3199 0.8985 0.4755
C15B C -0.5646(6) 0.6736(7) 0.3984(7)
H10B H -0.6109 0.6488 0.4110
C16B C 0.6273(6) 0.5747(7) 0.6506(7)
C17B C 0.0634(5) 0.6063(6) 0.6632(7)
H11B H 0.1107 0.5929 0.6456
C18B C -0.1447(5) 0.4638(6) 0.5810(6)
C19B C -0.3634(5) 0.5113(6) 0.4021(6)
C20B C -0.0683(5) 0.5963(6) 0.6439(6)
C21B C -0.0711(6) 0.6419(7) 0.7180(7)
H12B H -0.1189 0.6532 0.7354
C22B C -0.3063(7) 0.3930(7) 0.3284(7)
H13B H -0.2699 0.3726 0.2956
C23B C -0.1556(6) 0.2768(7) 0.5584(8)
H14B H -0.1586 0.2121 0.5490
C24B C -0.0989(6) 0.3280(6) 0.5320(7)
H15B H -0.0619 0.2966 0.5063
C25B C -0.2498(6) 1.0432(7) 0.6246(8)
C26B C -0.2915(6) 1.0084(7) 0.5483(8)
H16B H -0.3215 1.0505 0.5128
C27B C 0.0642(6) 0.6536(7) 0.7380(8)
H17B H 0.1111 0.6734 0.7687
C28B C -0.2034(6) 0.4157(7) 0.6116(7)
H18B H -0.2387 0.4467 0.6401
C29B C -0.2075(6) 0.3198(7) 0.5981(8)
H19B H -0.2468 0.2848 0.6168
C30B C -0.0045(7) 0.6709(7) 0.7663(8)
H20B H -0.0057 0.7015 0.8170
Cl1 Cl 0.5054(3) 0.3739(3) 0.9662(4)
Cl2 Cl 0.4013(3) 0.3317(5) 0.8294(4)
Cl3 Cl 0.5360(4) 0.4462(4) 0.8112(5)
C31 C 0.4657(6) 0.4161(9) 0.8695(6)
H21 H 0.4361 0.4732 0.8781
Cl4 Cl 0.1341(10) 0.4973(10) 0.0844(11)
Cl5 Cl 0.0689(9) 0.5967(8) 0.1991(12)
Cl6 Cl 0.2085(9) 0.6562(9) 0.1590(11)
C32 C 0.1541(9) 0.5600(11) 0.1734(11)
H22 H 0.1816 0.5204 0.2181
C33? C 0.0331(9) 0.5791(15) 0.1327(8)
Cl7? Cl 0.1280(8) 0.6115(15) 0.1429(12)
Cl8? Cl -0.0206(6) 0.6452(7) 0.0589(7)
Cl9? Cl 0.0111(6) 0.5959(6) 0.2305(6)
H23? H 0.0277 0.5122 0.1176
loop_
_geom_bond_atom_site_label_1
_geom_bond_atom_site_label_2
_geom_bond_site_symmetry_1
_geom_bond_site_symmetry_2
Fe1 N2 1_555 1_555
Fe2 N3 1_555 1_555
S1 C16 1_555 1_555
S2 C5 1_555 1_555
N1 C2 1_555 1_555
N2 C18 1_555 1_555
N3 C12 1_555 1_555
N4 Fe1 1_555 1_555
N5 Fe2 1_555 1_555
N6 C7 1_555 1_555
N7 C2 1_555 1_555
N8 C3 1_555 1_555
N9 Fe2 1_555 1_555
N10 C3 1_555 1_555
N11 C2 1_555 1_555
N12 Fe1 1_555 1_555
C1 H1 1_555 1_555
C3 N1 1_555 1_555
C4 H2 1_555 1_555
C5 N12 1_555 1_555
O1 C25 1_555 1_555
C6 C1 1_555 1_555
H3 C6 1_555 1_555
C7 N7 1_555 1_555
C8 H4 1_555 1_555
C9 H5 1_555 1_555
C10 C6 1_555 1_555
H6 C10 1_555 1_555
C11 N5 1_555 1_555
H7 C11 1_555 1_555
C12 N6 1_555 1_555
C13 N8 1_555 1_555
H8 C13 1_555 1_555
C14 N8 1_555 1_555
H9 C14 1_555 1_555
C15 N3 1_555 1_555
H10 C15 1_555 1_555
C16 N9 1_555 1_555
C17 N4 1_555 1_555
H11 C17 1_555 1_555
C18 N11 1_555 1_555
C19 N5 1_555 1_555
C20 N4 1_555 1_555
C21 C20 1_555 1_555
H12 C21 1_555 1_555
C22 C4 1_555 1_555
H13 C22 1_555 1_555
C23 H14 1_555 1_555
C24 N2 1_555 1_555
H15 C24 1_555 1_555
C25 C8 1_555 1_555
C26 C14 1_555 1_555
H16 C26 1_555 1_555
C27 C17 1_555 1_555
H17 C27 1_555 1_555
C28 C18 1_555 1_555
H18 C28 1_555 1_555
C29 C23 1_555 1_555
H19 C29 1_555 1_555
C30 C21 1_555 1_555
H20 C30 1_555 1_555
Cl1 C31 1_555 1_555
Cl2 C31 1_555 1_555
Cl3 C31 1_555 1_555
C31 H21 1_555 1_555
Cl4 C32 1_555 1_555
Cl5 C32 1_555 1_555
Cl6 C32 1_555 1_555
C32 H22 1_555 1_555
Fe2_2 N3B 1_555 1_555
S1B C16B 1_555 1_555
S2B C5B 1_555 1_555
N1B C2B 1_555 1_555
N2B Fe1 1_555 1_555
N3B C12B 1_555 1_555
N3B_2 Fe2 1_555 1_555
N4B Fe1 1_555 1_555
N5B Fe2_2 1_555 1_555
N5B_2 Fe2 1_555 1_555
N6B C7B 1_555 1_555
N7B C2B 1_555 1_555
N8B C3B 1_555 1_555
N9B Fe2 1_555 1_555
N10B C3B 1_555 1_555
N11B C2B 1_555 1_555
N12B Fe1 1_555 1_555
C1B H1B 1_555 1_555
C3B N1B 1_555 1_555
C4B H2B 1_555 1_555
C5B N12B 1_555 1_555
O1B C25B 1_555 1_555
C6B C1B 1_555 1_555
H3B C6B 1_555 1_555
C7B N7B 1_555 1_555
C8B H4B 1_555 1_555
C9B H5B 1_555 1_555
C10B C6B 1_555 1_555
H6B C10B 1_555 1_555
C11B N5B 1_555 1_555
H7B C11B 1_555 1_555
C12B N6B 1_555 1_555
C13B N8B 1_555 1_555
H8B C13B 1_555 1_555
C14B N8B 1_555 1_555
H9B C14B 1_555 1_555
C15B N3B 1_555 1_555
H10B C15B 1_555 1_555
C16B N9B 1_555 1_555
C17B N4B 1_555 1_555
H11B C17B 1_555 1_555
C18B N2B 1_555 1_555
C19B N5B 1_555 1_555
C20B N4B 1_555 1_555
C21B C20B 1_555 1_555
H12B C21B 1_555 1_555
C22B C4B 1_555 1_555
H13B C22B 1_555 1_555
C23B H14B 1_555 1_555
C24B N2B 1_555 1_555
H15B C24B 1_555 1_555
C25B C8B 1_555 1_555
C26B C14B 1_555 1_555
H16B C26B 1_555 1_555
C27B C17B 1_555 1_555
H17B C27B 1_555 1_555
C28B C18B 1_555 1_555
H18B C28B 1_555 1_555
C29B C23B 1_555 1_555
H19B C29B 1_555 1_555
C30B C21B 1_555 1_555
H20B C30B 1_555 1_555
N6 C19 1_555 1_555
N10 C7 1_555 1_555
N11 C20 1_555 1_555
C1 C12 1_555 1_555
C4 C19 1_555 1_555
C8 C13 1_555 1_555
C9 C11 1_555 1_555
C9 C22 1_555 1_555
C10 C15 1_555 1_555
C23 C24 1_555 1_555
C25 C26 1_555 1_555
C27 C30 1_555 1_555
C28 C29 1_555 1_555
N6B C19B 1_555 1_555
N10B C7B 1_555 1_555
N11B C18B 1_555 1_555
N11B C20B 1_555 1_555
C1B C12B 1_555 1_555
C4B C19B 1_555 1_555
C8B C13B 1_555 1_555
C9B C11B 1_555 1_555
C9B C22B 1_555 1_555
C10B C15B 1_555 1_555
C23B C24B 1_555 1_555
C25B C26B 1_555 1_555
C27B C30B 1_555 1_555
C28B C29B 1_555 1_555

#END
