
#######################################################################
#
#                 Cambridge Crystallographic Data Centre
#                                CCDC 
#
#######################################################################
#
# If this CIF has been generated from an entry in the Cambridge 
# Structural Database, then it will include bibliographic, chemical, 
# crystal, experimental, refinement or atomic coordinate data resulting 
# from the CCDC's data processing and validation procedures.
#
#######################################################################

data_ESOZUI01
_symmetry_cell_setting           monoclinic
_symmetry_space_group_name_H-M   'P 21/c'
_symmetry_Int_Tables_number      14
_space_group_name_Hall           '-P 2ybc'
loop_
_symmetry_equiv_pos_site_id
_symmetry_equiv_pos_as_xyz
1 x,y,z
2 -x,1/2+y,1/2-z
3 -x,-y,-z
4 x,1/2-y,1/2+z
_cell_length_a                   17.607(4)
_cell_length_b                   14.400(10)
_cell_length_c                   16.316(4)
_cell_angle_alpha                90
_cell_angle_beta                 98.782(7)
_cell_angle_gamma                90
_cell_volume                     4088.27
loop_
_atom_site_label
_atom_site_type_symbol
_atom_site_fract_x
_atom_site_fract_y
_atom_site_fract_z
Fe1 Fe 0.0000 0.5000 0.5000
Fe2 Fe 0.5000 0.5000 0.5000
S1 S 0.31053(13) 0.39556(19) 0.26907(16)
S2 S -0.18071(12) 0.72016(16) 0.34916(16)
N1 N 0.1866(3) 0.2887(3) 0.4168(4)
N2 N 0.0932(3) 0.5777(4) 0.4590(4)
N3 N 0.5002(3) 0.3724(4) 0.5764(4)
N4 N 0.0018(3) 0.4210(4) 0.3838(4)
N5 N 0.4140(3) 0.5480(4) 0.5729(4)
N6 N 0.3673(3) 0.3936(4) 0.5726(4)
N7 N 0.2517(3) 0.4175(4) 0.4889(4)
N8 N 0.2453(3) 0.1433(4) 0.4296(4)
N9 N 0.4164(3) 0.4466(4) 0.4070(4)
N10 N 0.3088(3) 0.2668(3) 0.5004(4)
N11 N 0.1358(3) 0.4383(3) 0.4046(4)
N12 N -0.0765(3) 0.5931(4) 0.4327(4)
C1 C 0.4325(4) 0.2612(5) 0.6453(5)
H1 H 0.3863 0.2415 0.6605
C2 C 0.1941(3) 0.3792(4) 0.4373(4)
C3 C 0.2474(4) 0.2399(4) 0.4512(4)
C4 C 0.3095(5) 0.5151(5) 0.6467(5)
H2 H 0.2753 0.4720 0.6628
C5 C -0.1190(4) 0.6468(5) 0.3979(5)
O1 O 0.2545(4) -0.1251(3) 0.3530(4)
C6 C 0.4994(5) 0.2113(6) 0.6697(6)
H3 H 0.4986 0.1564 0.6997
C7 C 0.3059(4) 0.3579(4) 0.5191(4)
C8 C 0.2017(5) 0.0254(5) 0.3339(6)
H4 H 0.1696 0.0077 0.2857
C9 C 0.3584(5) 0.6685(6) 0.6447(6)
H5 H 0.3569 0.7312 0.6581
C10 C 0.5677(5) 0.2449(6) 0.6485(6)
H6 H 0.6138 0.2138 0.6648
C11 C 0.4113(5) 0.6364(5) 0.5988(6)
H7 H 0.4475 0.6779 0.5845
C12 C 0.4351(4) 0.3393(5) 0.5990(5)
C13 C 0.2004(4) 0.1133(5) 0.3582(6)
H8 H 0.1686 0.1555 0.3263
C14 C 0.2901(5) 0.0812(5) 0.4775(6)
H9 H 0.3194 0.1006 0.5268
C15 C 0.5652(4) 0.3259(5) 0.6024(5)
H10 H 0.6110 0.3490 0.5888
C16 C 0.3733(4) 0.4253(5) 0.3483(5)
C17 C -0.0641(4) 0.3936(5) 0.3356(6)
H11 H -0.1105 0.4071 0.3535
C18 C 0.1449(4) 0.5369(4) 0.4188(5)
C19 C 0.3634(4) 0.4890(5) 0.5986(5)
C20 C 0.0676(4) 0.4039(4) 0.3546(5)
C21 C 0.0717(4) 0.3591(5) 0.2816(5)
H12 H 0.1189 0.3482 0.2642
C22 C 0.3074(5) 0.6074(6) 0.6710(6)
H13 H 0.2721 0.6273 0.7043
C23 C 0.1553(5) 0.7224(5) 0.4400(6)
H14 H 0.1577 0.7863 0.4483
C24 C 0.0989(5) 0.6710(5) 0.4679(5)
H15 H 0.0628 0.7017 0.4941
C25 C 0.2495(4) -0.0426(5) 0.3780(6)
C26 C 0.2925(5) -0.0097(5) 0.4536(6)
H16 H 0.3230 -0.0513 0.4877
C27 C -0.0660(5) 0.3469(6) 0.2616(6)
H17 H -0.1123 0.3273 0.2315
C28 C 0.2029(4) 0.5840(5) 0.3879(6)
H18 H 0.2374 0.5528 0.3599
C29 C 0.2079(4) 0.6792(5) 0.4000(6)
H19 H 0.2467 0.7132 0.3811
C30 C 0.0029(5) 0.3301(6) 0.2336(6)
H20 H 0.0036 0.2998 0.1834
Fe2_2 Fe -0.5000 0.5000 0.5000
S1B S 0.68947(13) 0.60444(19) 0.73093(16)
S2B S 0.18071(12) 0.27984(16) 0.65084(16)
N1B N -0.1866(3) 0.7113(3) 0.5832(4)
N2B N -0.0932(3) 0.4223(4) 0.5410(4)
N3B N -0.5002(3) 0.6276(4) 0.4236(4)
N3B_2 N 0.4998(3) 0.6276(4) 0.4236(4)
N4B N -0.0018(3) 0.5790(4) 0.6162(4)
N5B N -0.4140(3) 0.4520(4) 0.4271(4)
N5B_2 N 0.5860(3) 0.4520(4) 0.4271(4)
N6B N -0.3673(3) 0.6064(4) 0.4274(4)
N7B N -0.2517(3) 0.5825(4) 0.5111(4)
N8B N -0.2453(3) 0.8567(4) 0.5704(4)
N9B N 0.5836(3) 0.5534(4) 0.5930(4)
N10B N -0.3088(3) 0.7332(3) 0.4996(4)
N11B N -0.1358(3) 0.5617(3) 0.5954(4)
N12B N 0.0765(3) 0.4069(4) 0.5673(4)
C1B C -0.4325(4) 0.7388(5) 0.3547(5)
H1B H -0.3863 0.7585 0.3395
C2B C -0.1941(3) 0.6208(4) 0.5627(4)
C3B C -0.2474(4) 0.7601(4) 0.5488(4)
C4B C -0.3095(5) 0.4849(5) 0.3533(5)
H2B H -0.2753 0.5280 0.3372
C5B C 0.1190(4) 0.3532(5) 0.6021(5)
O1B O -0.2545(4) 1.1251(3) 0.6470(4)
C6B C -0.4994(5) 0.7887(6) 0.3303(6)
H3B H -0.4986 0.8436 0.3003
C7B C -0.3059(4) 0.6421(4) 0.4809(4)
C8B C -0.2017(5) 0.9746(5) 0.6661(6)
H4B H -0.1696 0.9923 0.7143
C9B C -0.3584(5) 0.3315(6) 0.3553(6)
H5B H -0.3569 0.2688 0.3419
C10B C -0.5677(5) 0.7551(6) 0.3515(6)
H6B H -0.6138 0.7862 0.3352
C11B C -0.4113(5) 0.3636(5) 0.4012(6)
H7B H -0.4475 0.3221 0.4155
C12B C -0.4351(4) 0.6607(5) 0.4010(5)
C13B C -0.2004(4) 0.8867(5) 0.6418(6)
H8B H -0.1686 0.8445 0.6737
C14B C -0.2901(5) 0.9188(5) 0.5225(6)
H9B H -0.3194 0.8994 0.4732
C15B C -0.5652(4) 0.6741(5) 0.3976(5)
H10B H -0.6110 0.6510 0.4112
C16B C 0.6267(4) 0.5747(5) 0.6517(5)
C17B C 0.0641(4) 0.6064(5) 0.6644(6)
H11B H 0.1105 0.5929 0.6465
C18B C -0.1449(4) 0.4631(4) 0.5812(5)
C19B C -0.3634(4) 0.5110(5) 0.4014(5)
C20B C -0.0676(4) 0.5961(4) 0.6454(5)
C21B C -0.0717(4) 0.6409(5) 0.7184(5)
H12B H -0.1189 0.6518 0.7358
C22B C -0.3074(5) 0.3926(6) 0.3290(6)
H13B H -0.2721 0.3727 0.2957
C23B C -0.1553(5) 0.2776(5) 0.5600(6)
H14B H -0.1577 0.2137 0.5517
C24B C -0.0989(5) 0.3290(5) 0.5321(5)
H15B H -0.0628 0.2983 0.5059
C25B C -0.2495(4) 1.0426(5) 0.6220(6)
C26B C -0.2925(5) 1.0097(5) 0.5464(6)
H16B H -0.3230 1.0513 0.5123
C27B C 0.0660(5) 0.6531(6) 0.7384(6)
H17B H 0.1123 0.6727 0.7685
C28B C -0.2029(4) 0.4160(5) 0.6121(6)
H18B H -0.2374 0.4472 0.6401
C29B C -0.2079(4) 0.3208(5) 0.6000(6)
H19B H -0.2467 0.2868 0.6189
C30B C -0.0029(5) 0.6699(6) 0.7664(6)
H20B H -0.0036 0.7002 0.8166
Cl1 Cl 0.5060(2) 0.3733(3) 0.9680(3)
Cl2 Cl 0.4006(3) 0.3335(4) 0.8285(3)
Cl3 Cl 0.5354(4) 0.4468(3) 0.8119(4)
C31 C 0.4667(6) 0.4152(8) 0.8714(5)
H21 H 0.4379 0.4715 0.8807
Cl4 Cl 0.1274(10) 0.5001(11) 0.0788(12)
Cl5 Cl 0.0642(9) 0.5963(8) 0.1980(11)
Cl6 Cl 0.2029(9) 0.6548(10) 0.1551(10)
C32 C 0.1479(9) 0.5600(12) 0.1690(12)
H22 H 0.1755 0.5197 0.2120
C33? C 0.0310(9) 0.5788(15) 0.1333(8)
Cl7? Cl 0.1264(8) 0.6036(16) 0.1381(12)
Cl8? Cl -0.0198(5) 0.6486(6) 0.0609(6)
Cl9? Cl 0.0101(5) 0.5965(5) 0.2312(5)
H23? H 0.0218 0.5136 0.1176
loop_
_geom_bond_atom_site_label_1
_geom_bond_atom_site_label_2
_geom_bond_site_symmetry_1
_geom_bond_site_symmetry_2
Fe1 N2 1_555 1_555
Fe2 N3 1_555 1_555
S1 C16 1_555 1_555
S2 C5 1_555 1_555
N1 C2 1_555 1_555
N2 C18 1_555 1_555
N3 C12 1_555 1_555
N4 Fe1 1_555 1_555
N5 Fe2 1_555 1_555
N6 C7 1_555 1_555
N7 C2 1_555 1_555
N8 C3 1_555 1_555
N9 Fe2 1_555 1_555
N10 C3 1_555 1_555
N11 C2 1_555 1_555
N12 Fe1 1_555 1_555
C1 H1 1_555 1_555
C3 N1 1_555 1_555
C4 H2 1_555 1_555
C5 N12 1_555 1_555
O1 C25 1_555 1_555
C6 C1 1_555 1_555
H3 C6 1_555 1_555
C7 N7 1_555 1_555
C8 H4 1_555 1_555
C9 H5 1_555 1_555
C10 C6 1_555 1_555
H6 C10 1_555 1_555
C11 N5 1_555 1_555
H7 C11 1_555 1_555
C12 N6 1_555 1_555
C13 N8 1_555 1_555
H8 C13 1_555 1_555
C14 N8 1_555 1_555
H9 C14 1_555 1_555
C15 N3 1_555 1_555
H10 C15 1_555 1_555
C16 N9 1_555 1_555
C17 N4 1_555 1_555
H11 C17 1_555 1_555
C18 N11 1_555 1_555
C19 N5 1_555 1_555
C20 N4 1_555 1_555
C21 C20 1_555 1_555
H12 C21 1_555 1_555
C22 C4 1_555 1_555
H13 C22 1_555 1_555
C23 H14 1_555 1_555
C24 N2 1_555 1_555
H15 C24 1_555 1_555
C25 C8 1_555 1_555
C26 C14 1_555 1_555
H16 C26 1_555 1_555
C27 C17 1_555 1_555
H17 C27 1_555 1_555
C28 C18 1_555 1_555
H18 C28 1_555 1_555
C29 C23 1_555 1_555
H19 C29 1_555 1_555
C30 C21 1_555 1_555
H20 C30 1_555 1_555
Cl1 C31 1_555 1_555
Cl2 C31 1_555 1_555
Cl3 C31 1_555 1_555
C31 H21 1_555 1_555
Cl4 C32 1_555 1_555
Cl5 C32 1_555 1_555
Cl6 C32 1_555 1_555
C32 H22 1_555 1_555
Fe2_2 N3B 1_555 1_555
S1B C16B 1_555 1_555
S2B C5B 1_555 1_555
N1B C2B 1_555 1_555
N2B Fe1 1_555 1_555
N3B C12B 1_555 1_555
N3B_2 Fe2 1_555 1_555
N4B Fe1 1_555 1_555
N5B Fe2_2 1_555 1_555
N5B_2 Fe2 1_555 1_555
N6B C7B 1_555 1_555
N7B C2B 1_555 1_555
N8B C3B 1_555 1_555
N9B Fe2 1_555 1_555
N10B C3B 1_555 1_555
N11B C2B 1_555 1_555
N12B Fe1 1_555 1_555
C1B H1B 1_555 1_555
C3B N1B 1_555 1_555
C4B H2B 1_555 1_555
C5B N12B 1_555 1_555
O1B C25B 1_555 1_555
C6B C1B 1_555 1_555
H3B C6B 1_555 1_555
C7B N7B 1_555 1_555
C8B H4B 1_555 1_555
C9B H5B 1_555 1_555
C10B C6B 1_555 1_555
H6B C10B 1_555 1_555
C11B N5B 1_555 1_555
H7B C11B 1_555 1_555
C12B N6B 1_555 1_555
C13B N8B 1_555 1_555
H8B C13B 1_555 1_555
C14B N8B 1_555 1_555
H9B C14B 1_555 1_555
C15B N3B 1_555 1_555
H10B C15B 1_555 1_555
C16B N9B 1_555 1_555
C17B N4B 1_555 1_555
H11B C17B 1_555 1_555
C18B N2B 1_555 1_555
C19B N5B 1_555 1_555
C20B N4B 1_555 1_555
C21B C20B 1_555 1_555
H12B C21B 1_555 1_555
C22B C4B 1_555 1_555
H13B C22B 1_555 1_555
C23B H14B 1_555 1_555
C24B N2B 1_555 1_555
H15B C24B 1_555 1_555
C25B C8B 1_555 1_555
C26B C14B 1_555 1_555
H16B C26B 1_555 1_555
C27B C17B 1_555 1_555
H17B C27B 1_555 1_555
C28B C18B 1_555 1_555
H18B C28B 1_555 1_555
C29B C23B 1_555 1_555
H19B C29B 1_555 1_555
C30B C21B 1_555 1_555
H20B C30B 1_555 1_555
N6 C19 1_555 1_555
N10 C7 1_555 1_555
N11 C20 1_555 1_555
C1 C12 1_555 1_555
C4 C19 1_555 1_555
C8 C13 1_555 1_555
C9 C11 1_555 1_555
C9 C22 1_555 1_555
C10 C15 1_555 1_555
C23 C24 1_555 1_555
C25 C26 1_555 1_555
C27 C30 1_555 1_555
C28 C29 1_555 1_555
N6B C19B 1_555 1_555
N10B C7B 1_555 1_555
N11B C18B 1_555 1_555
N11B C20B 1_555 1_555
C1B C12B 1_555 1_555
C4B C19B 1_555 1_555
C8B C13B 1_555 1_555
C9B C11B 1_555 1_555
C9B C22B 1_555 1_555
C10B C15B 1_555 1_555
C23B C24B 1_555 1_555
C25B C26B 1_555 1_555
C27B C30B 1_555 1_555
C28B C29B 1_555 1_555

#END
