
#######################################################################
#
#                 Cambridge Crystallographic Data Centre
#                                CCDC 
#
#######################################################################
#
# If this CIF has been generated from an entry in the Cambridge 
# Structural Database, then it will include bibliographic, chemical, 
# crystal, experimental, refinement or atomic coordinate data resulting 
# from the CCDC's data processing and validation procedures.
#
#######################################################################

data_ESOZUH
_symmetry_cell_setting           triclinic
_symmetry_space_group_name_H-M   'P -1'
_symmetry_Int_Tables_number      2
_space_group_name_Hall           '-P 1'
loop_
_symmetry_equiv_pos_site_id
_symmetry_equiv_pos_as_xyz
1 x,y,z
2 -x,-y,-z
_cell_length_a                   9.199(2)
_cell_length_b                   12.870(2)
_cell_length_c                   21.620(5)
_cell_angle_alpha                76.92(1)
_cell_angle_beta                 81.14(1)
_cell_angle_gamma                82.90(1)
_cell_volume                     2452.96
loop_
_atom_site_label
_atom_site_type_symbol
_atom_site_fract_x
_atom_site_fract_y
_atom_site_fract_z
Ho1 Ho -0.27905(3) 0.49466(2) -0.009000(12)
O1 O -0.2980(5) 0.4941(4) -0.12058(19)
O2 O -0.5156(5) 0.5098(3) -0.06709(19)
O3 O -0.3558(4) 0.3222(3) -0.0027(2)
O4 O -0.4001(5) 0.6683(3) -0.0255(2)
O5 O -0.1697(5) 0.5747(4) 0.0541(2)
O6 O 0.0649(5) 0.6054(3) 0.0410(2)
O7 O -0.1161(5) 0.6254(4) -0.0842(2)
O8 O -0.1964(5) 0.3580(4) 0.0871(2)
N1 N -0.2841(7) 0.5358(5) -0.2553(3)
H1 H -0.3238 0.6018 -0.2700
H2 H -0.2250 0.5125 -0.2870
H3 H -0.2320 0.5365 -0.2240
N2 N -0.7203(7) 0.1447(5) 0.0883(3)
H4 H -0.6816 0.1149 0.1241
H5 H -0.8067 0.1193 0.0897
H6 H -0.7339 0.2154 0.0845
N3 N 0.1255(7) 0.7867(5) 0.0854(3)
H7 H 0.1675 0.7470 0.0576
H8 H 0.1952 0.8078 0.1029
H9 H 0.0736 0.8439 0.0652
C1 C -0.4360(7) 0.5004(5) -0.1181(3)
C2 C -0.5066(7) 0.4989(6) -0.1756(3)
H19 H -0.5525 0.5701 -0.1911
H20 H -0.5844 0.4509 -0.1625
C3 C -0.4024(8) 0.4641(6) -0.2305(3)
H21 H -0.3585 0.3918 -0.2159
H22 H -0.4584 0.4632 -0.2649
C4 C -0.4759(6) 0.2811(5) 0.0158(3)
C5 C -0.4720(7) 0.1601(5) 0.0296(3)
H23 H -0.4043 0.1336 -0.0036
H24 H -0.4334 0.1312 0.0700
C6 C -0.6196(8) 0.1193(6) 0.0332(4)
H25 H -0.6621 0.1515 -0.0059
H26 H -0.6068 0.0423 0.0367
C7 C -0.0665(6) 0.6179(5) 0.0653(3)
C8 C -0.1030(7) 0.6939(6) 0.1105(3)
H27 H -0.1531 0.7595 0.0885
H28 H -0.1719 0.6622 0.1465
C9 C 0.0260(9) 0.7226(6) 0.1362(3)
H29 H -0.0102 0.7630 0.1692
H30 H 0.0813 0.6574 0.1558
O2A O -0.4844(5) 0.4902(3) 0.06709(19)
Ho1A Ho -0.72095(3) 0.50534(2) 0.009000(12)
C4A C -0.5241(6) 0.7189(5) -0.0158(3)
O4A O -0.5999(5) 0.3317(3) 0.0255(2)
O6A O -0.0649(5) 0.3946(3) -0.0410(2)
C1A C -0.5640(7) 0.4996(5) 0.1181(3)
O1A O -0.7020(5) 0.5059(4) 0.12058(19)
O3A O -0.6442(4) 0.6778(3) 0.0027(2)
O5A O -0.8303(5) 0.4253(4) -0.0541(2)
O6_2 O -0.9351(5) 0.6054(3) 0.0410(2)
O7A O -0.8839(5) 0.3746(4) 0.0842(2)
O8A O -0.8036(5) 0.6420(4) -0.0871(2)
C5A C -0.5280(7) 0.8399(5) -0.0296(3)
Ho1A_2 Ho 0.27905(3) 0.50534(2) 0.009000(12)
C2A C -0.4934(7) 0.5011(6) 0.1756(3)
C7A C -0.9335(6) 0.3821(5) -0.0653(3)
H23A H -0.5957 0.8664 0.0036
H24A H -0.5666 0.8688 -0.0700
C6A C -0.3804(8) 0.8807(6) -0.0332(4)
H19A H -0.4475 0.4299 0.1911
H20A H -0.4156 0.5491 0.1625
C3A C -0.5976(8) 0.5359(6) 0.2305(3)
O6A_2 O -1.0649(5) 0.3946(3) -0.0410(2)
C8A C -0.8970(7) 0.3061(6) -0.1105(3)
N2A N -0.2797(7) 0.8553(5) -0.0883(3)
H25A H -0.3379 0.8485 0.0059
H26A H -0.3932 0.9577 -0.0367
N1A N -0.7159(7) 0.4642(5) 0.2553(3)
H21A H -0.6415 0.6082 0.2159
H22A H -0.5416 0.5368 0.2649
Ho1_2 Ho -1.27905(3) 0.49466(2) -0.009000(12)
H27A H -0.8469 0.2405 -0.0885
H28A H -0.8281 0.3378 -0.1465
C9A C -1.0260(9) 0.2774(6) -0.1362(3)
H4A H -0.3184 0.8851 -0.1241
H5A H -0.1933 0.8807 -0.0897
H6A H -0.2661 0.7846 -0.0845
H1A H -0.6762 0.3982 0.2700
H2A H -0.7750 0.4875 0.2870
H3A H -0.7680 0.4635 0.2240
N3A N -1.1255(7) 0.2133(5) -0.0854(3)
H29A H -0.9898 0.2370 -0.1692
H30A H -1.0813 0.3426 -0.1558
H7A H -1.1675 0.2530 -0.0576
H8A H -1.1952 0.1922 -0.1029
H9A H -1.0736 0.1561 -0.0652
Ho2 Ho -0.21963(3) 0.01278(2) 0.501960(12)
O9 O -0.1939(5) 0.2047(3) 0.4819(2)
O10 O 0.0192(5) 0.1109(3) 0.4866(2)
O11 O -0.1542(5) 0.0280(4) 0.6018(2)
O12 O -0.0879(5) 0.0206(4) 0.3989(2)
O13 O -0.3328(5) -0.1057(4) 0.4649(2)
O14 O -0.5621(5) -0.0731(4) 0.4423(2)
O15 O -0.3713(5) 0.1193(4) 0.4183(2)
O16 O -0.3091(6) -0.1359(4) 0.5899(2)
N4 N -0.1919(7) 0.4274(4) 0.4261(3)
H10 H -0.1488 0.4374 0.3857
H11 H -0.2469 0.4869 0.4325
H12 H -0.2490 0.3737 0.4340
N5 N 0.1930(6) -0.1010(5) 0.7171(3)
H13 H 0.2149 -0.1006 0.6755
H14 H 0.2360 -0.1603 0.7396
H15 H 0.2256 -0.0440 0.7254
N6 N -0.6148(8) -0.1568(6) 0.3365(3)
H16 H -0.6785 -0.1168 0.3587
H17 H -0.6631 -0.1851 0.3126
H18 H -0.5482 -0.1163 0.3112
C10 C -0.0577(7) 0.2003(5) 0.4781(3)
C11 C 0.0208(8) 0.3002(5) 0.4616(4)
H31 H 0.0665 0.3098 0.4174
H32 H 0.0993 0.2907 0.4882
C12 C -0.0766(8) 0.4011(5) 0.4700(4)
H33 H -0.1240 0.3918 0.5139
H34 H -0.0158 0.4604 0.4618
C13 C -0.0380(7) 0.0030(5) 0.6278(3)
C14 C -0.0498(8) 0.0001(6) 0.6997(3)
H35 H -0.0093 0.0628 0.7056
H36 H -0.1532 0.0034 0.7177
C15 C 0.0296(9) -0.0979(7) 0.7353(4)
H37 H -0.0052 -0.1607 0.7266
H38 H 0.0066 -0.1004 0.7809
C16 C -0.4377(6) -0.1229(5) 0.4393(3)
C17 C -0.4055(8) -0.2090(6) 0.4000(3)
H39 H -0.3394 -0.1829 0.3616
H40 H -0.3543 -0.2714 0.4246
C18 C -0.5398(10) -0.2429(6) 0.3806(4)
H41 H -0.5103 -0.3036 0.3604
H42 H -0.6086 -0.2660 0.4187
H43 H -0.297(15) -0.134(11) 0.626(2)
H44 H -0.291(15) -0.197(4) 0.583(6)
O10A O -0.0192(5) -0.1109(3) 0.5134(2)
Ho2A Ho 0.21963(3) -0.01278(2) 0.498040(12)
C13A C 0.0380(7) -0.0030(5) 0.3722(3)
O12A O 0.0879(5) -0.0206(4) 0.6011(2)
O14A O -0.4379(5) 0.0731(4) 0.5577(2)
C10A C 0.0577(7) -0.2003(5) 0.5219(3)
O9A O 0.1939(5) -0.2047(3) 0.5181(2)
O11A O 0.1542(5) -0.0280(4) 0.3982(2)
O13A O 0.3328(5) 0.1057(4) 0.5351(2)
O14_2 O 0.4379(5) -0.0731(4) 0.4423(2)
O15A O 0.3713(5) -0.1193(4) 0.5817(2)
O16A O 0.3091(6) 0.1359(4) 0.4101(2)
C14A C 0.0498(8) -0.0001(6) 0.3003(3)
Ho2A_2 Ho -0.78037(3) -0.01278(2) 0.498040(12)
C11A C -0.0208(8) -0.3002(5) 0.5384(4)
C16A C 0.4377(6) 0.1229(5) 0.5607(3)
H43A H 0.297(15) 0.134(11) 0.374(2)
H44A H 0.291(15) 0.197(4) 0.417(6)
H35A H 0.0093 -0.0628 0.2944
H36A H 0.1532 -0.0034 0.2823
C15A C -0.0296(9) 0.0979(7) 0.2647(4)
H31A H -0.0665 -0.3098 0.5826
H32A H -0.0993 -0.2907 0.5118
C12A C 0.0766(8) -0.4011(5) 0.5300(4)
O14A_2 O 0.5621(5) 0.0731(4) 0.5577(2)
C17A C 0.4055(8) 0.2090(6) 0.6000(3)
N5A N -0.1930(6) 0.1010(5) 0.2829(3)
H37A H 0.0052 0.1607 0.2734
H38A H -0.0066 0.1004 0.2191
N4A N 0.1919(7) -0.4274(4) 0.5739(3)
H33A H 0.1240 -0.3918 0.4861
H34A H 0.0158 -0.4604 0.5382
Ho2_2 Ho 0.78037(3) 0.01278(2) 0.501960(12)
H39A H 0.3394 0.1829 0.6384
H40A H 0.3543 0.2714 0.5754
C18A C 0.5398(10) 0.2429(6) 0.6194(4)
H13A H -0.2149 0.1006 0.3245
H14A H -0.2360 0.1603 0.2604
H15A H -0.2256 0.0440 0.2746
H10A H 0.1488 -0.4374 0.6143
H11A H 0.2469 -0.4869 0.5675
H12A H 0.2490 -0.3737 0.5660
N6A N 0.6148(8) 0.1568(6) 0.6635(3)
H41A H 0.5103 0.3036 0.6396
H42A H 0.6086 0.2660 0.5813
H16A H 0.6785 0.1168 0.6413
H17A H 0.6631 0.1851 0.6874
H18A H 0.5482 0.1163 0.6888
Cl1 Cl -0.58288(19) 0.41010(13) 0.42747(8)
O18 O -0.4742(6) 0.3269(4) 0.4527(3)
O19 O -0.6856(8) 0.4346(6) 0.4795(3)
O20 O -0.6597(7) 0.3690(5) 0.3866(3)
O21 O -0.5106(8) 0.4995(5) 0.3917(4)
Cl2 Cl -0.9134(2) 0.93553(15) -0.08619(9)
O22 O -0.9792(8) 0.8457(5) -0.0432(3)
O23 O -1.0299(7) 0.9966(5) -0.1194(3)
O24 O -0.8007(7) 0.8944(6) -0.1298(3)
O25 O -0.8549(8) 0.9966(6) -0.0504(4)
Cl3 Cl -0.1162(2) 0.40764(16) 0.24981(8)
O26 O 0.0002(7) 0.4525(6) 0.2025(3)
O27 O -0.1874(7) 0.3382(5) 0.2235(3)
O28 O -0.2181(8) 0.4919(6) 0.2651(4)
O29 O -0.0568(10) 0.3518(6) 0.3056(3)
Cl4 Cl -0.5441(2) 0.83958(17) 0.16024(10)
O30 O -0.5574(14) 0.7687(9) 0.1196(4)
O31 O -0.4374(11) 0.9110(7) 0.1296(4)
O32 O -0.4949(11) 0.7771(6) 0.2170(3)
O33 O -0.6735(14) 0.9004(12) 0.1712(8)
Cl5 Cl -0.9702(3) 0.67665(17) 0.33562(10)
O34 O -1.0655(10) 0.7348(7) 0.2905(4)
O35 O -0.9519(12) 0.5659(3) 0.3329(5)
O36 O -1.0345(15) 0.6882(9) 0.3982(2)
O37 O -0.8297(7) 0.7189(8) 0.3206(8)
Cl6 Cl -0.5835(2) 0.17911(19) 0.23951(10)
O38 O -0.4905(13) 0.2453(7) 0.2582(7)
O39 O -0.5713(14) 0.0750(5) 0.2804(6)
O40 O -0.5344(19) 0.1708(13) 0.1749(3)
O41 O -0.7316(6) 0.2252(9) 0.2459(8)
O17 O 0.2871(11) 0.0799(7) 0.7514(4)
loop_
_geom_bond_atom_site_label_1
_geom_bond_atom_site_label_2
_geom_bond_site_symmetry_1
_geom_bond_site_symmetry_2
Ho1 O1 1_555 1_555
Ho2 O9 1_555 1_555
Cl1 O18 1_555 1_555
Cl2 O22 1_555 1_555
Cl3 O26 1_555 1_555
Cl4 O30 1_555 1_555
Cl5 O34 1_555 1_555
Cl6 O38 1_555 1_555
O1 C1 1_555 1_555
O2 Ho1 1_555 1_555
O3 Ho1 1_555 1_555
O4 Ho1 1_555 1_555
O5 Ho1 1_555 1_555
O6 C7 1_555 1_555
O7 Ho1 1_555 1_555
O8 Ho1 1_555 1_555
O9 C10 1_555 1_555
O10 Ho2 1_555 1_555
O11 Ho2 1_555 1_555
O12 Ho2 1_555 1_555
O13 Ho2 1_555 1_555
O14 C16 1_555 1_555
O15 Ho2 1_555 1_555
O16 Ho2 1_555 1_555
N1 H1 1_555 1_555
H2 N1 1_555 1_555
H3 N1 1_555 1_555
N2 H4 1_555 1_555
H5 N2 1_555 1_555
H6 N2 1_555 1_555
N3 H7 1_555 1_555
H8 N3 1_555 1_555
H9 N3 1_555 1_555
N4 H10 1_555 1_555
H11 N4 1_555 1_555
H12 N4 1_555 1_555
N5 H13 1_555 1_555
H14 N5 1_555 1_555
H15 N5 1_555 1_555
N6 H16 1_555 1_555
H17 N6 1_555 1_555
H18 N6 1_555 1_555
C1 O2 1_555 1_555
C2 C1 1_555 1_555
H19 C2 1_555 1_555
H20 C2 1_555 1_555
C3 N1 1_555 1_555
H21 C3 1_555 1_555
H22 C3 1_555 1_555
C4 O3 1_555 1_555
C5 C4 1_555 1_555
H23 C5 1_555 1_555
H24 C5 1_555 1_555
C6 N2 1_555 1_555
H25 C6 1_555 1_555
H26 C6 1_555 1_555
C7 O5 1_555 1_555
C8 C7 1_555 1_555
H27 C8 1_555 1_555
H28 C8 1_555 1_555
C9 N3 1_555 1_555
H29 C9 1_555 1_555
H30 C9 1_555 1_555
C10 O10 1_555 1_555
C11 C10 1_555 1_555
H31 C11 1_555 1_555
H32 C11 1_555 1_555
C12 N4 1_555 1_555
H33 C12 1_555 1_555
H34 C12 1_555 1_555
C13 O11 1_555 1_555
C14 C13 1_555 1_555
H35 C14 1_555 1_555
H36 C14 1_555 1_555
C15 N5 1_555 1_555
H37 C15 1_555 1_555
H38 C15 1_555 1_555
C16 O13 1_555 1_555
C17 C16 1_555 1_555
H39 C17 1_555 1_555
H40 C17 1_555 1_555
C18 N6 1_555 1_555
H41 C18 1_555 1_555
H42 C18 1_555 1_555
O19 Cl1 1_555 1_555
O20 Cl1 1_555 1_555
O21 Cl1 1_555 1_555
O23 Cl2 1_555 1_555
O24 Cl2 1_555 1_555
O25 Cl2 1_555 1_555
O27 Cl3 1_555 1_555
O28 Cl3 1_555 1_555
O29 Cl3 1_555 1_555
O31 Cl4 1_555 1_555
O32 Cl4 1_555 1_555
O33 Cl4 1_555 1_555
O35 Cl5 1_555 1_555
O36 Cl5 1_555 1_555
O37 Cl5 1_555 1_555
O39 Cl6 1_555 1_555
O40 Cl6 1_555 1_555
O41 Cl6 1_555 1_555
H43 O16 1_555 1_555
H44 O16 1_555 1_555
O2A Ho1 1_555 1_555
O10A Ho2 1_555 1_555
Ho1A O2 1_555 1_555
C4A O4 1_555 1_555
Ho2A O10 1_555 1_555
C13A O12 1_555 1_555
O4A C4 1_555 1_555
O6A Ho1 1_555 1_555
O12A C13 1_555 1_555
O14A Ho2 1_555 1_555
C1A O2A 1_555 1_555
C10A O10A 1_555 1_555
O1A Ho1A 1_555 1_555
O3A Ho1A 1_555 1_555
O5A Ho1A 1_555 1_555
O6_2 Ho1A 1_555 1_555
O7A Ho1A 1_555 1_555
O8A Ho1A 1_555 1_555
C5A C4A 1_555 1_555
O9A Ho2A 1_555 1_555
O11A Ho2A 1_555 1_555
O13A Ho2A 1_555 1_555
O14_2 Ho2A 1_555 1_555
O15A Ho2A 1_555 1_555
O16A Ho2A 1_555 1_555
C14A C13A 1_555 1_555
Ho1A_2 O6 1_555 1_555
Ho2A_2 O14 1_555 1_555
C2A C1A 1_555 1_555
C11A C10A 1_555 1_555
C7A O5A 1_555 1_555
H23A C5A 1_555 1_555
H24A C5A 1_555 1_555
C6A C5A 1_555 1_555
C16A O13A 1_555 1_555
H43A O16A 1_555 1_555
H44A O16A 1_555 1_555
H35A C14A 1_555 1_555
H36A C14A 1_555 1_555
C15A C14A 1_555 1_555
H19A C2A 1_555 1_555
H20A C2A 1_555 1_555
C3A C2A 1_555 1_555
H31A C11A 1_555 1_555
H32A C11A 1_555 1_555
C12A C11A 1_555 1_555
O6A_2 C7A 1_555 1_555
C8A C7A 1_555 1_555
N2A C6A 1_555 1_555
H25A C6A 1_555 1_555
H26A C6A 1_555 1_555
O14A_2 C16A 1_555 1_555
C17A C16A 1_555 1_555
N5A C15A 1_555 1_555
H37A C15A 1_555 1_555
H38A C15A 1_555 1_555
N1A C3A 1_555 1_555
H21A C3A 1_555 1_555
H22A C3A 1_555 1_555
N4A C12A 1_555 1_555
H33A C12A 1_555 1_555
H34A C12A 1_555 1_555
Ho1_2 O6A_2 1_555 1_555
H27A C8A 1_555 1_555
H28A C8A 1_555 1_555
C9A C8A 1_555 1_555
H4A N2A 1_555 1_555
H5A N2A 1_555 1_555
H6A N2A 1_555 1_555
Ho2_2 O14A_2 1_555 1_555
H39A C17A 1_555 1_555
H40A C17A 1_555 1_555
C18A C17A 1_555 1_555
H13A N5A 1_555 1_555
H14A N5A 1_555 1_555
H15A N5A 1_555 1_555
H1A N1A 1_555 1_555
H2A N1A 1_555 1_555
H3A N1A 1_555 1_555
H10A N4A 1_555 1_555
H11A N4A 1_555 1_555
H12A N4A 1_555 1_555
N3A C9A 1_555 1_555
H29A C9A 1_555 1_555
H30A C9A 1_555 1_555
N6A C18A 1_555 1_555
H41A C18A 1_555 1_555
H42A C18A 1_555 1_555
H7A N3A 1_555 1_555
H8A N3A 1_555 1_555
H9A N3A 1_555 1_555
H16A N6A 1_555 1_555
H17A N6A 1_555 1_555
H18A N6A 1_555 1_555
C2 C3 1_555 1_555
C5 C6 1_555 1_555
C8 C9 1_555 1_555
C11 C12 1_555 1_555
C14 C15 1_555 1_555
C17 C18 1_555 1_555
O2A Ho1A 1_555 1_555
O10A Ho2A 1_555 1_555
Ho1A O4A 1_555 1_555
C4A O3A 1_555 1_555
Ho2A O12A 1_555 1_555
C13A O11A 1_555 1_555
C1A O1A 1_555 1_555
C10A O9A 1_555 1_555

#END
