
#######################################################################
#
#                 Cambridge Crystallographic Data Centre
#                                CCDC 
#
#######################################################################
#
# If this CIF has been generated from an entry in the Cambridge 
# Structural Database, then it will include bibliographic, chemical, 
# crystal, experimental, refinement or atomic coordinate data resulting 
# from the CCDC's data processing and validation procedures.
#
#######################################################################

data_ESUCIF01
_symmetry_cell_setting           triclinic
_symmetry_space_group_name_H-M   'P -1'
_symmetry_Int_Tables_number      2
_space_group_name_Hall           '-P 1'
loop_
_symmetry_equiv_pos_site_id
_symmetry_equiv_pos_as_xyz
1 x,y,z
2 -x,-y,-z
_cell_length_a                   12.156(5)
_cell_length_b                   12.718(4)
_cell_length_c                   12.894(3)
_cell_angle_alpha                84.555(5)
_cell_angle_beta                 68.771(11)
_cell_angle_gamma                87.536(6)
_cell_volume                     1849.68
loop_
_atom_site_label
_atom_site_type_symbol
_atom_site_fract_x
_atom_site_fract_y
_atom_site_fract_z
Fe1 Fe 0.0000 0.0000 1.0000
Fe2 Fe 0.5000 0.5000 0.5000
S1 S 0.48116(10) 0.12489(8) 0.51878(11)
S2 S -0.08822(11) 0.32920(10) 0.82605(13)
O1 O 0.1191(3) 0.1840(2) 0.4556(2)
N1 N 0.1588(3) 0.1196(2) 0.6116(3)
N2 N 0.1735(3) 0.3021(2) 0.5458(3)
N3 N 0.2192(3) 0.2436(2) 0.7076(2)
N4 N 0.0836(3) -0.0823(2) 0.8543(3)
N5 N 0.3224(3) 0.5456(2) 0.4898(3)
N6 N 0.2007(3) 0.0676(2) 0.7703(2)
N7 N 0.3924(3) 0.4782(2) 0.6832(3)
N8 N 0.2350(3) 0.4186(2) 0.6400(3)
C1 C 0.1526(3) 0.2016(3) 0.5425(3)
N9 N 0.1709(3) 0.0638(2) 0.9612(3)
N10 N -0.0430(3) 0.1288(3) 0.9118(3)
C2 C 0.1936(3) 0.1468(3) 0.6922(3)
C3 C 0.1708(3) -0.0396(3) 0.7636(3)
C4 C 0.2069(3) 0.3174(3) 0.6315(3)
C5 C 0.2232(4) 0.5026(3) 0.5621(3)
N11 N 0.4784(3) 0.3443(3) 0.4825(3)
C6 C 0.2426(3) 0.0891(3) 0.8567(3)
C7 C 0.0598(4) -0.1847(3) 0.8516(4)
H1 H 0.0003 -0.2183 0.9148
C8 C 0.2819(4) 0.4426(3) 0.7218(3)
C9 C -0.0629(3) 0.2123(3) 0.8775(3)
C10 C 0.2122(4) 0.0793(4) 1.0432(4)
H2 H 0.1645 0.0582 1.1182
C11 C 0.3534(4) 0.1328(3) 0.8286(4)
H3 H 0.4019 0.1492 0.7528
C12 C 0.1629(4) 0.0927(3) 0.4001(3)
C13 C 0.2323(4) -0.0914(3) 0.6717(4)
H4 H 0.2926 -0.0569 0.6100
C14 C 0.0864(4) 0.0364(3) 0.3705(3)
H5 H 0.0054 0.0562 0.3918
C15 C 0.3911(4) 0.1519(4) 0.9138(4)
H6 H 0.4653 0.1838 0.8978
C16 C 0.1294(5) -0.0496(3) 0.3091(3)
H7 H 0.0769 -0.0905 0.2901
C17 C 0.2119(4) 0.4308(4) 0.8334(4)
H8 H 0.1336 0.4054 0.8570
C18 C 0.3192(5) 0.1239(4) 1.0230(4)
H9 H 0.3438 0.1354 1.0830
C19 C 0.4355(4) 0.5056(4) 0.7596(4)
H10 H 0.5127 0.5339 0.7341
C20 C 0.1113(4) 0.5354(3) 0.5697(4)
H11 H 0.0435 0.5031 0.6248
C21 C 0.2472(5) -0.0768(3) 0.2752(4)
H12 H 0.2768 -0.1346 0.2310
C22 C 0.4800(3) 0.2527(3) 0.4973(3)
C23 C 0.2045(5) -0.1959(3) 0.6708(4)
H13 H 0.2451 -0.2343 0.6080
C24 C 0.3089(4) 0.6265(3) 0.4186(4)
H14 H 0.3776 0.6600 0.3663
C25 C 0.2800(4) 0.0664(4) 0.3692(4)
H15 H 0.3318 0.1059 0.3905
C26 C 0.1167(5) -0.2429(3) 0.7628(4)
H16 H 0.0960 -0.3144 0.7645
C27 C 0.2599(5) 0.4576(4) 0.9102(4)
H17 H 0.2148 0.4503 0.9880
C28 C 0.2005(5) 0.6622(3) 0.4186(4)
H18 H 0.1953 0.7178 0.3659
C29 C 0.3733(5) 0.4945(4) 0.8721(4)
H19 H 0.4082 0.5122 0.9231
C30 C 0.1005(4) 0.6171(3) 0.4948(4)
H20 H 0.0249 0.6412 0.4964
C31 C 0.3215(5) -0.0192(4) 0.3063(4)
H21 H 0.4027 -0.0383 0.2843
Fe2_2 Fe -0.5000 -0.5000 1.5000
S1A S 0.51884(10) 0.87511(8) 0.48122(11)
S2A S 0.08822(11) -0.32920(10) 1.17395(13)
O1A O -0.1191(3) -0.1840(2) 1.5444(2)
N1A N -0.1588(3) -0.1196(2) 1.3884(3)
N2A N -0.1735(3) -0.3021(2) 1.4542(3)
N3A N -0.2192(3) -0.2436(2) 1.2924(2)
N4A N -0.0836(3) 0.0823(2) 1.1457(3)
N5A N -0.3224(3) -0.5456(2) 1.5102(3)
N5A_2 N 0.6776(3) 0.4544(2) 0.5102(3)
N6A N -0.2007(3) -0.0676(2) 1.2297(2)
N7A N -0.3924(3) -0.4782(2) 1.3168(3)
N7A_2 N 0.6076(3) 0.5218(2) 0.3168(3)
N8A N -0.2350(3) -0.4186(2) 1.3600(3)
C1A C -0.1526(3) -0.2016(3) 1.4575(3)
N9A N -0.1709(3) -0.0638(2) 1.0388(3)
N10A N 0.0430(3) -0.1288(3) 1.0882(3)
C2A C -0.1936(3) -0.1468(3) 1.3078(3)
C3A C -0.1708(3) 0.0396(3) 1.2364(3)
C4A C -0.2069(3) -0.3174(3) 1.3685(3)
C5A C -0.2232(4) -0.5026(3) 1.4379(3)
N11A N 0.5216(3) 0.6557(3) 0.5175(3)
C6A C -0.2426(3) -0.0891(3) 1.1433(3)
C7A C -0.0598(4) 0.1847(3) 1.1484(4)
H1A H -0.0003 0.2183 1.0852
C8A C -0.2819(4) -0.4426(3) 1.2782(3)
C9A C 0.0629(3) -0.2123(3) 1.1225(3)
C10A C -0.2122(4) -0.0793(4) 0.9568(4)
H2A H -0.1645 -0.0582 0.8818
C11A C -0.3534(4) -0.1328(3) 1.1714(4)
H3A H -0.4019 -0.1492 1.2472
C12A C -0.1629(4) -0.0927(3) 1.5999(3)
C13A C -0.2323(4) 0.0914(3) 1.3283(4)
H4A H -0.2926 0.0569 1.3900
C14A C -0.0864(4) -0.0364(3) 1.6295(3)
H5A H -0.0054 -0.0562 1.6082
C15A C -0.3911(4) -0.1519(4) 1.0862(4)
H6A H -0.4653 -0.1838 1.1022
C16A C -0.1294(5) 0.0496(3) 1.6909(3)
H7A H -0.0769 0.0905 1.7099
C17A C -0.2119(4) -0.4308(4) 1.1666(4)
H8A H -0.1336 -0.4054 1.1430
C18A C -0.3192(5) -0.1239(4) 0.9770(4)
H9A H -0.3438 -0.1354 0.9170
C19A C -0.4355(4) -0.5056(4) 1.2404(4)
H10A H -0.5127 -0.5339 1.2659
C20A C -0.1113(4) -0.5354(3) 1.4303(4)
H11A H -0.0435 -0.5031 1.3752
C21A C -0.2472(5) 0.0768(3) 1.7248(4)
H12A H -0.2768 0.1346 1.7690
C22A C 0.5200(3) 0.7473(3) 0.5027(3)
C23A C -0.2045(5) 0.1959(3) 1.3292(4)
H13A H -0.2451 0.2343 1.3920
C24A C -0.3089(4) -0.6265(3) 1.5814(4)
H14A H -0.3776 -0.6600 1.6337
C25A C -0.2800(4) -0.0664(4) 1.6308(4)
H15A H -0.3318 -0.1059 1.6095
C26A C -0.1167(5) 0.2429(3) 1.2372(4)
H16A H -0.0960 0.3144 1.2355
C27A C -0.2599(5) -0.4576(4) 1.0898(4)
H17A H -0.2148 -0.4503 1.0120
C28A C -0.2005(5) -0.6622(3) 1.5814(4)
H18A H -0.1953 -0.7178 1.6341
C29A C -0.3733(5) -0.4945(4) 1.1279(4)
H19A H -0.4082 -0.5122 1.0769
C30A C -0.1005(4) -0.6171(3) 1.5052(4)
H20A H -0.0249 -0.6412 1.5036
C31A C -0.3215(5) 0.0192(4) 1.6937(4)
H21A H -0.4027 0.0383 1.7157
O2 O 0.3692(4) 0.6510(4) 0.1200(4)
H22 H 0.299(2) 0.670(5) 0.124(5)
H23 H 0.374(6) 0.5829(10) 0.130(6)
O3 O 0.3414(4) 0.4281(4) 0.1627(4)
H24 H 0.3928 0.3800 0.1457
C32 C 0.2422(7) 0.3899(7) 0.2520(7)
H25 H 0.2669 0.3556 0.3115
H26 H 0.2018 0.3386 0.2265
H27 H 0.1884 0.4488 0.2807
O4 O 0.5061(4) 0.2684(4) 0.0938(4)
H28 H 0.5448 0.2860 0.0262
C33 C 0.5813(8) 0.2117(7) 0.1435(8)
H29 H 0.6393 0.2601 0.1488
H30 H 0.6224 0.1550 0.0973
H31 H 0.5337 0.1813 0.2184
loop_
_geom_bond_atom_site_label_1
_geom_bond_atom_site_label_2
_geom_bond_site_symmetry_1
_geom_bond_site_symmetry_2
Fe1 N4 1_555 1_555
Fe2 N5 1_555 1_555
S1 C22 1_555 1_555
S2 C9 1_555 1_555
O1 C1 1_555 1_555
N1 C1 1_555 1_555
N2 C1 1_555 1_555
N3 C2 1_555 1_555
N4 C3 1_555 1_555
N5 C5 1_555 1_555
N6 C2 1_555 1_555
N7 Fe2 1_555 1_555
N8 C4 1_555 1_555
N9 Fe1 1_555 1_555
N10 Fe1 1_555 1_555
C2 N1 1_555 1_555
C3 N6 1_555 1_555
C4 N2 1_555 1_555
C5 N8 1_555 1_555
N11 Fe2 1_555 1_555
C6 N6 1_555 1_555
C7 N4 1_555 1_555
H1 C7 1_555 1_555
C8 N7 1_555 1_555
C9 N10 1_555 1_555
C10 N9 1_555 1_555
H2 C10 1_555 1_555
C11 C6 1_555 1_555
H3 C11 1_555 1_555
C12 O1 1_555 1_555
C13 C3 1_555 1_555
H4 C13 1_555 1_555
C14 C12 1_555 1_555
H5 C14 1_555 1_555
C15 C11 1_555 1_555
H6 C15 1_555 1_555
C16 C14 1_555 1_555
H7 C16 1_555 1_555
C17 C8 1_555 1_555
H8 C17 1_555 1_555
C18 C10 1_555 1_555
H9 C18 1_555 1_555
C19 N7 1_555 1_555
H10 C19 1_555 1_555
C20 C5 1_555 1_555
H11 C20 1_555 1_555
C21 C16 1_555 1_555
H12 C21 1_555 1_555
C22 N11 1_555 1_555
C23 C13 1_555 1_555
H13 C23 1_555 1_555
C24 N5 1_555 1_555
H14 C24 1_555 1_555
C25 C12 1_555 1_555
H15 C25 1_555 1_555
C26 C7 1_555 1_555
H16 C26 1_555 1_555
C27 C17 1_555 1_555
H17 C27 1_555 1_555
C28 C24 1_555 1_555
H18 C28 1_555 1_555
C29 C19 1_555 1_555
H19 C29 1_555 1_555
C30 C20 1_555 1_555
H20 C30 1_555 1_555
C31 C21 1_555 1_555
H21 C31 1_555 1_555
O2 H22 1_555 1_555
H23 O2 1_555 1_555
O3 H24 1_555 1_555
C32 O3 1_555 1_555
H25 C32 1_555 1_555
H26 C32 1_555 1_555
H27 C32 1_555 1_555
O4 H28 1_555 1_555
C33 O4 1_555 1_555
H29 C33 1_555 1_555
H30 C33 1_555 1_555
H31 C33 1_555 1_555
Fe2_2 N5A 1_555 1_555
S1A C22A 1_555 1_555
S2A C9A 1_555 1_555
O1A C1A 1_555 1_555
N1A C1A 1_555 1_555
N2A C1A 1_555 1_555
N3A C2A 1_555 1_555
N4A Fe1 1_555 1_555
N5A C5A 1_555 1_555
N5A_2 Fe2 1_555 1_555
N6A C2A 1_555 1_555
N7A Fe2_2 1_555 1_555
N7A_2 Fe2 1_555 1_555
N8A C4A 1_555 1_555
N9A Fe1 1_555 1_555
N10A Fe1 1_555 1_555
C2A N1A 1_555 1_555
C3A N4A 1_555 1_555
C4A N2A 1_555 1_555
C5A N8A 1_555 1_555
N11A Fe2 1_555 1_555
C6A N6A 1_555 1_555
C7A N4A 1_555 1_555
H1A C7A 1_555 1_555
C8A N7A 1_555 1_555
C9A N10A 1_555 1_555
C10A N9A 1_555 1_555
H2A C10A 1_555 1_555
C11A C6A 1_555 1_555
H3A C11A 1_555 1_555
C12A O1A 1_555 1_555
C13A C3A 1_555 1_555
H4A C13A 1_555 1_555
C14A C12A 1_555 1_555
H5A C14A 1_555 1_555
C15A C11A 1_555 1_555
H6A C15A 1_555 1_555
C16A C14A 1_555 1_555
H7A C16A 1_555 1_555
C17A C8A 1_555 1_555
H8A C17A 1_555 1_555
C18A C10A 1_555 1_555
H9A C18A 1_555 1_555
C19A N7A 1_555 1_555
H10A C19A 1_555 1_555
C20A C5A 1_555 1_555
H11A C20A 1_555 1_555
C21A C16A 1_555 1_555
H12A C21A 1_555 1_555
C22A N11A 1_555 1_555
C23A C13A 1_555 1_555
H13A C23A 1_555 1_555
C24A N5A 1_555 1_555
H14A C24A 1_555 1_555
C25A C12A 1_555 1_555
H15A C25A 1_555 1_555
C26A C7A 1_555 1_555
H16A C26A 1_555 1_555
C27A C17A 1_555 1_555
H17A C27A 1_555 1_555
C28A C24A 1_555 1_555
H18A C28A 1_555 1_555
C29A C19A 1_555 1_555
H19A C29A 1_555 1_555
C30A C20A 1_555 1_555
H20A C30A 1_555 1_555
C31A C21A 1_555 1_555
H21A C31A 1_555 1_555
N3 C4 1_555 1_555
N8 C8 1_555 1_555
N9 C6 1_555 1_555
C15 C18 1_555 1_555
C23 C26 1_555 1_555
C25 C31 1_555 1_555
C27 C29 1_555 1_555
C28 C30 1_555 1_555
N3A C4A 1_555 1_555
N6A C3A 1_555 1_555
N8A C8A 1_555 1_555
N9A C6A 1_555 1_555
C15A C18A 1_555 1_555
C23A C26A 1_555 1_555
C25A C31A 1_555 1_555
C27A C29A 1_555 1_555
C28A C30A 1_555 1_555

#END
