
#######################################################################
#
#                 Cambridge Crystallographic Data Centre
#                                CCDC 
#
#######################################################################
#
# If this CIF has been generated from an entry in the Cambridge 
# Structural Database, then it will include bibliographic, chemical, 
# crystal, experimental, refinement or atomic coordinate data resulting 
# from the CCDC's data processing and validation procedures.
#
#######################################################################

data_ESUCUR
_symmetry_cell_setting           triclinic
_symmetry_space_group_name_H-M   'P -1'
_symmetry_Int_Tables_number      2
_space_group_name_Hall           '-P 1'
loop_
_symmetry_equiv_pos_site_id
_symmetry_equiv_pos_as_xyz
1 x,y,z
2 -x,-y,-z
_cell_length_a                   12.196(2)
_cell_length_b                   12.817(1)
_cell_length_c                   13.092(2)
_cell_angle_alpha                84.43(1)
_cell_angle_beta                 65.791(6)
_cell_angle_gamma                86.60(1)
_cell_volume                     1857.27
loop_
_atom_site_label
_atom_site_type_symbol
_atom_site_fract_x
_atom_site_fract_y
_atom_site_fract_z
Fe1 Fe 0.0000 0.0000 1.0000
Fe2 Fe 0.5000 0.5000 0.5000
S1 S -0.10874(12) 0.30392(10) 0.82210(12)
S2 S 0.51863(11) 0.87349(9) 0.48976(11)
O1 O 0.1185(3) 0.1852(3) 0.4604(3)
O2 O 0.3019(3) -0.1568(3) 0.2087(3)
H1 H 0.2484 -0.1875 0.1991
N1 N 0.1948(3) 0.0667(3) 0.7692(3)
N2 N -0.0405(3) 0.1189(3) 0.9164(3)
N3 N 0.0779(3) -0.0806(3) 0.8640(3)
N4 N 0.2318(4) 0.4154(3) 0.6407(3)
N5 N 0.1720(3) 0.3006(3) 0.5490(3)
N6 N 0.2146(3) 0.2415(3) 0.7077(3)
N7 N 0.1610(3) 0.0569(3) 0.9610(3)
N8 N 0.1538(3) 0.1201(3) 0.6140(3)
C1 C 0.1882(4) 0.1457(4) 0.6941(4)
C2 C -0.0678(4) 0.1956(4) 0.8777(4)
N9 N 0.5175(4) 0.6548(3) 0.5198(4)
N10 N 0.3199(4) 0.5457(3) 0.4942(3)
C3 C 0.1611(4) -0.0381(4) 0.7673(4)
C4 C 0.1497(4) 0.2010(4) 0.5456(4)
C5 C 0.2034(4) 0.3153(4) 0.6339(4)
C6 C 0.2189(5) 0.5002(4) 0.5669(4)
N11 N 0.3830(4) 0.4762(3) 0.6854(4)
C7 C 0.0542(4) -0.1831(4) 0.8671(4)
H2 H -0.0027 -0.2155 0.9351
C8 C 0.1632(5) 0.0933(4) 0.4038(4)
C9 C 0.2356(4) 0.0853(4) 0.8537(4)
C10 C 0.2033(5) 0.0664(4) 1.0407(4)
H3 H 0.1539 0.0445 1.1165
C11 C 0.0863(5) 0.0395(4) 0.3749(4)
H4 H 0.0041 0.0604 0.3990
C12 C 0.3075(5) 0.6290(4) 0.4282(5)
H5 H 0.3777 0.6638 0.3764
C13 C 0.3881(4) 0.1364(4) 0.9066(4)
H6 H 0.4650 0.1640 0.8883
C14 C 0.2185(4) -0.0921(4) 0.6722(4)
H7 H 0.2757 -0.0585 0.6051
C15 C 0.1911(5) -0.1958(4) 0.6768(4)
H8 H 0.2282 -0.2346 0.6125
C16 C 0.3141(5) 0.1062(4) 1.0170(4)
H9 H 0.3396 0.1130 1.0755
C17 C 0.2504(5) -0.0754(4) 0.2760(4)
C18 C 0.0950(6) 0.6168(4) 0.5064(5)
H10 H 0.0185 0.6404 0.5093
C19 C 0.3487(4) 0.1258(4) 0.8236(4)
H11 H 0.3980 0.1458 0.7472
C20 C 0.2723(5) 0.4385(4) 0.7239(4)
C21 C 0.1312(5) -0.0454(4) 0.3103(4)
H12 H 0.0795 -0.0829 0.2897
C22 C 0.1088(5) -0.2427(4) 0.7763(4)
H13 H 0.0901 -0.3145 0.7821
C23 C 0.4220(5) 0.5042(4) 0.7612(5)
H14 H 0.4993 0.5339 0.7349
C24 C 0.3267(5) -0.0210(4) 0.3066(5)
H15 H 0.4088 -0.0420 0.2834
C25 C 0.1049(5) 0.5323(4) 0.5765(5)
H16 H 0.0356 0.4973 0.6297
C26 C 0.2408(6) 0.4521(5) 0.9138(5)
H17 H 0.1926 0.4430 0.9922
C27 C 0.1968(5) 0.4254(4) 0.8375(5)
H18 H 0.1181 0.3992 0.8621
C28 C 0.5176(4) 0.7467(4) 0.5081(4)
C29 C 0.1974(6) 0.6657(4) 0.4328(5)
H19 H 0.1925 0.7249 0.3851
C30 C 0.2819(5) 0.0638(4) 0.3708(5)
H20 H 0.3331 0.1013 0.3920
C31 C 0.3541(6) 0.4916(5) 0.8756(5)
H21 H 0.3852 0.5100 0.9269
Fe2_2 Fe -0.5000 -0.5000 1.5000
S1A S 0.10874(12) -0.30392(10) 1.17790(12)
S2A S 0.48137(11) 0.12651(9) 0.51024(11)
O1A O -0.1185(3) -0.1852(3) 1.5396(3)
O2A O -0.3019(3) 0.1568(3) 1.7913(3)
H1A H -0.2484 0.1875 1.8009
N1A N -0.1948(3) -0.0667(3) 1.2308(3)
N2A N 0.0405(3) -0.1189(3) 1.0836(3)
N3A N -0.0779(3) 0.0806(3) 1.1360(3)
N4A N -0.2318(4) -0.4154(3) 1.3593(3)
N5A N -0.1720(3) -0.3006(3) 1.4510(3)
N6A N -0.2146(3) -0.2415(3) 1.2923(3)
N7A N -0.1610(3) -0.0569(3) 1.0390(3)
N8A N -0.1538(3) -0.1201(3) 1.3860(3)
C1A C -0.1882(4) -0.1457(4) 1.3059(4)
C2A C 0.0678(4) -0.1956(4) 1.1223(4)
N9A N 0.4825(4) 0.3452(3) 0.4802(4)
N10A N -0.3199(4) -0.5457(3) 1.5058(3)
N10A_2 N 0.6801(4) 0.4543(3) 0.5058(3)
C3A C -0.1611(4) 0.0381(4) 1.2327(4)
C4A C -0.1497(4) -0.2010(4) 1.4544(4)
C5A C -0.2034(4) -0.3153(4) 1.3661(4)
C6A C -0.2189(5) -0.5002(4) 1.4331(4)
N11A N -0.3830(4) -0.4762(3) 1.3146(4)
N11A_2 N 0.6170(4) 0.5238(3) 0.3146(4)
C7A C -0.0542(4) 0.1831(4) 1.1329(4)
H2A H 0.0027 0.2155 1.0649
C8A C -0.1632(5) -0.0933(4) 1.5962(4)
C9A C -0.2356(4) -0.0853(4) 1.1463(4)
C10A C -0.2033(5) -0.0664(4) 0.9593(4)
H3A H -0.1539 -0.0445 0.8835
C11A C -0.0863(5) -0.0395(4) 1.6251(4)
H4A H -0.0041 -0.0604 1.6010
C12A C -0.3075(5) -0.6290(4) 1.5718(5)
H5A H -0.3777 -0.6638 1.6236
C13A C -0.3881(4) -0.1364(4) 1.0934(4)
H6A H -0.4650 -0.1640 1.1117
C14A C -0.2185(4) 0.0921(4) 1.3278(4)
H7A H -0.2757 0.0585 1.3949
C15A C -0.1911(5) 0.1958(4) 1.3232(4)
H8A H -0.2282 0.2346 1.3875
C16A C -0.3141(5) -0.1062(4) 0.9830(4)
H9A H -0.3396 -0.1130 0.9245
C17A C -0.2504(5) 0.0754(4) 1.7240(4)
C18A C -0.0950(6) -0.6168(4) 1.4936(5)
H10A H -0.0185 -0.6404 1.4907
C19A C -0.3487(4) -0.1258(4) 1.1764(4)
H11A H -0.3980 -0.1458 1.2528
C20A C -0.2723(5) -0.4385(4) 1.2761(4)
C21A C -0.1312(5) 0.0454(4) 1.6897(4)
H12A H -0.0795 0.0829 1.7103
C22A C -0.1088(5) 0.2427(4) 1.2237(4)
H13A H -0.0901 0.3145 1.2179
C23A C -0.4220(5) -0.5042(4) 1.2388(5)
H14A H -0.4993 -0.5339 1.2651
C24A C -0.3267(5) 0.0210(4) 1.6934(5)
H15A H -0.4088 0.0420 1.7166
C25A C -0.1049(5) -0.5323(4) 1.4235(5)
H16A H -0.0356 -0.4973 1.3703
C26A C -0.2408(6) -0.4521(5) 1.0862(5)
H17A H -0.1926 -0.4430 1.0078
C27A C -0.1968(5) -0.4254(4) 1.1625(5)
H18A H -0.1181 -0.3992 1.1379
C28A C 0.4824(4) 0.2533(4) 0.4919(4)
C29A C -0.1974(6) -0.6657(4) 1.5672(5)
H19A H -0.1925 -0.7249 1.6149
C30A C -0.2819(5) -0.0638(4) 1.6292(5)
H20A H -0.3331 -0.1013 1.6080
C31A C -0.3541(6) -0.4916(5) 1.1244(5)
H21A H -0.3852 -0.5100 1.0731
Cl1 Cl 0.30013(16) 0.48838(12) 0.19682(15)
Cl2 Cl 0.16005(18) 0.30710(14) 0.21426(15)
C32 C 0.2604(6) 0.3616(5) 0.2597(6)
H22 H 0.2222 0.3638 0.3424
H23 H 0.3338 0.3165 0.2407
Cl3 Cl 0.52877(16) 0.29796(14) 0.02357(15)
Cl4 Cl 0.57880(18) 0.18247(17) 0.20470(16)
C33 C 0.6250(8) 0.2089(8) 0.0631(8)
H24 H 0.6308 0.1422 0.0286
H25 H 0.7066 0.2383 0.0321
loop_
_geom_bond_atom_site_label_1
_geom_bond_atom_site_label_2
_geom_bond_site_symmetry_1
_geom_bond_site_symmetry_2
Fe1 N2 1_555 1_555
Fe2 N9 1_555 1_555
S1 C2 1_555 1_555
S2 C28 1_555 1_555
O1 C4 1_555 1_555
O2 H1 1_555 1_555
N1 C1 1_555 1_555
N2 C2 1_555 1_555
N3 Fe1 1_555 1_555
N4 C5 1_555 1_555
N5 C4 1_555 1_555
N6 C1 1_555 1_555
N7 Fe1 1_555 1_555
N8 C1 1_555 1_555
N9 C28 1_555 1_555
N10 Fe2 1_555 1_555
C3 N1 1_555 1_555
C4 N8 1_555 1_555
C5 N5 1_555 1_555
C6 N4 1_555 1_555
N11 Fe2 1_555 1_555
C7 N3 1_555 1_555
H2 C7 1_555 1_555
C8 O1 1_555 1_555
C9 N1 1_555 1_555
C10 N7 1_555 1_555
H3 C10 1_555 1_555
C11 C8 1_555 1_555
H4 C11 1_555 1_555
C12 N10 1_555 1_555
H5 C12 1_555 1_555
C13 H6 1_555 1_555
C14 C3 1_555 1_555
H7 C14 1_555 1_555
C15 C14 1_555 1_555
H8 C15 1_555 1_555
C16 C10 1_555 1_555
H9 C16 1_555 1_555
C17 O2 1_555 1_555
C18 H10 1_555 1_555
C19 C9 1_555 1_555
H11 C19 1_555 1_555
C20 N4 1_555 1_555
C21 C11 1_555 1_555
H12 C21 1_555 1_555
C22 C7 1_555 1_555
H13 C22 1_555 1_555
C23 N11 1_555 1_555
H14 C23 1_555 1_555
C24 C17 1_555 1_555
H15 C24 1_555 1_555
C25 C6 1_555 1_555
H16 C25 1_555 1_555
C26 H17 1_555 1_555
C27 C20 1_555 1_555
H18 C27 1_555 1_555
C29 C12 1_555 1_555
H19 C29 1_555 1_555
C30 C8 1_555 1_555
H20 C30 1_555 1_555
C31 C23 1_555 1_555
H21 C31 1_555 1_555
Cl1 C32 1_555 1_555
Cl2 C32 1_555 1_555
C32 H22 1_555 1_555
H23 C32 1_555 1_555
Cl3 C33 1_555 1_555
Cl4 C33 1_555 1_555
C33 H24 1_555 1_555
H25 C33 1_555 1_555
Fe2_2 N10A 1_555 1_555
S1A C2A 1_555 1_555
S2A C28A 1_555 1_555
O1A C4A 1_555 1_555
O2A H1A 1_555 1_555
N1A C1A 1_555 1_555
N2A Fe1 1_555 1_555
N3A Fe1 1_555 1_555
N4A C5A 1_555 1_555
N5A C4A 1_555 1_555
N6A C1A 1_555 1_555
N7A Fe1 1_555 1_555
N8A C1A 1_555 1_555
C2A N2A 1_555 1_555
N9A Fe2 1_555 1_555
N10A C6A 1_555 1_555
N10A_2 Fe2 1_555 1_555
C3A N1A 1_555 1_555
C4A N8A 1_555 1_555
C5A N5A 1_555 1_555
C6A N4A 1_555 1_555
N11A Fe2_2 1_555 1_555
N11A_2 Fe2 1_555 1_555
C7A N3A 1_555 1_555
H2A C7A 1_555 1_555
C8A O1A 1_555 1_555
C9A N1A 1_555 1_555
C10A N7A 1_555 1_555
H3A C10A 1_555 1_555
C11A C8A 1_555 1_555
H4A C11A 1_555 1_555
C12A N10A 1_555 1_555
H5A C12A 1_555 1_555
C13A H6A 1_555 1_555
C14A C3A 1_555 1_555
H7A C14A 1_555 1_555
C15A C14A 1_555 1_555
H8A C15A 1_555 1_555
C16A C10A 1_555 1_555
H9A C16A 1_555 1_555
C17A O2A 1_555 1_555
C18A H10A 1_555 1_555
C19A C9A 1_555 1_555
H11A C19A 1_555 1_555
C20A N4A 1_555 1_555
C21A C11A 1_555 1_555
H12A C21A 1_555 1_555
C22A C7A 1_555 1_555
H13A C22A 1_555 1_555
C23A N11A 1_555 1_555
H14A C23A 1_555 1_555
C24A C17A 1_555 1_555
H15A C24A 1_555 1_555
C25A C6A 1_555 1_555
H16A C25A 1_555 1_555
C26A H17A 1_555 1_555
C27A C20A 1_555 1_555
H18A C27A 1_555 1_555
C28A N9A 1_555 1_555
C29A C12A 1_555 1_555
H19A C29A 1_555 1_555
C30A C8A 1_555 1_555
H20A C30A 1_555 1_555
C31A C23A 1_555 1_555
H21A C31A 1_555 1_555
N3 C3 1_555 1_555
N6 C5 1_555 1_555
N7 C9 1_555 1_555
N10 C6 1_555 1_555
N11 C20 1_555 1_555
C13 C16 1_555 1_555
C13 C19 1_555 1_555
C15 C22 1_555 1_555
C17 C21 1_555 1_555
C18 C25 1_555 1_555
C18 C29 1_555 1_555
C24 C30 1_555 1_555
C26 C27 1_555 1_555
C26 C31 1_555 1_555
N3A C3A 1_555 1_555
N6A C5A 1_555 1_555
N7A C9A 1_555 1_555
N11A C20A 1_555 1_555
C13A C16A 1_555 1_555
C13A C19A 1_555 1_555
C15A C22A 1_555 1_555
C17A C21A 1_555 1_555
C18A C25A 1_555 1_555
C18A C29A 1_555 1_555
C24A C30A 1_555 1_555
C26A C27A 1_555 1_555
C26A C31A 1_555 1_555

#END
