
#######################################################################
#
#                 Cambridge Crystallographic Data Centre
#                                CCDC 
#
#######################################################################
#
# If this CIF has been generated from an entry in the Cambridge 
# Structural Database, then it will include bibliographic, chemical, 
# crystal, experimental, refinement or atomic coordinate data resulting 
# from the CCDC's data processing and validation procedures.
#
#######################################################################

data_ESUWIZ
_symmetry_cell_setting           orthorhombic
_symmetry_space_group_name_H-M   'P 21 21 21'
_symmetry_Int_Tables_number      19
_space_group_name_Hall           'P 2ac 2ab'
loop_
_symmetry_equiv_pos_site_id
_symmetry_equiv_pos_as_xyz
1 x,y,z
2 1/2-x,-y,1/2+z
3 -x,1/2+y,1/2-z
4 1/2+x,1/2-y,-z
_cell_length_a                   10.3143(17)
_cell_length_b                   10.4469(17)
_cell_length_c                   25.949(4)
_cell_angle_alpha                90
_cell_angle_beta                 90
_cell_angle_gamma                90
_cell_volume                     2796.07
loop_
_atom_site_label
_atom_site_type_symbol
_atom_site_fract_x
_atom_site_fract_y
_atom_site_fract_z
Cu1 Cu 0.68070(4) 0.95495(5) 0.771745(16)
Cu2 Cu 1.05235(4) 0.55529(4) 0.703590(15)
S1 S 0.59424(13) 0.64711(17) 0.52468(5)
S2 S 0.39066(11) 0.77603(12) 0.64072(5)
O1 O 0.9283(2) 0.6720(2) 0.73284(9)
O2 O 0.7431(2) 0.7724(2) 0.71663(10)
O3 O 1.1984(2) 0.4687(3) 0.67175(9)
O4 O 0.8191(2) 1.0561(2) 0.73960(8)
O5 O 0.9460(3) 0.3761(2) 0.71996(12)
H1 H 0.9766 0.3046 0.7298
H2 H 0.8694 0.3753 0.7078
O6 O 0.5303(2) 0.8896(3) 0.80801(10)
O7 O 0.3157(3) 0.8952(3) 0.80795(10)
N1 N 0.9582(3) 0.5850(3) 0.63733(10)
N2 N 0.5557(3) 0.9788(3) 0.71469(10)
C1 C 1.1961(3) 0.4178(4) 0.62385(14)
C2 C 1.2574(4) 0.3043(4) 0.61219(17)
H3 H 1.3027 0.2611 0.6378
C3 C 1.2530(5) 0.2541(5) 0.56364(18)
H4 H 1.2970 0.1786 0.5564
C4 C 1.1836(5) 0.3146(5) 0.52541(18)
H5 H 1.1793 0.2794 0.4925
C5 C 1.1209(4) 0.4273(5) 0.53628(15)
H6 H 1.0740 0.4680 0.5104
C6 C 1.1257(3) 0.4817(4) 0.58491(14)
C7 C 1.0579(4) 0.6051(4) 0.59618(14)
H7 H 1.0165 0.6367 0.5651
H8 H 1.1205 0.6685 0.6075
C8 C 0.8653(3) 0.6936(3) 0.64418(14)
H9 H 0.9067 0.7710 0.6306
C9 C 0.8402(3) 0.7149(3) 0.70220(15)
C10 C 0.7374(4) 0.6755(4) 0.61559(14)
H10 H 0.6831 0.7496 0.6220
H11 H 0.6934 0.6014 0.6299
C11 C 0.7498(4) 0.6572(5) 0.55712(16)
H12 H 0.7984 0.5795 0.5504
H13 H 0.7984 0.7283 0.5429
C12 C 0.5247(6) 0.5071(6) 0.5538(2)
H14 H 0.5231 0.5174 0.5905
H15 H 0.5760 0.4335 0.5451
H16 H 0.4379 0.4955 0.5413
C13 C 0.8353(3) 1.0521(4) 0.68791(13)
C14 C 0.9581(4) 1.0420(4) 0.66545(14)
H17 H 1.0315 1.0414 0.6862
C15 C 0.9708(4) 1.0331(4) 0.61273(15)
H18 H 1.0530 1.0269 0.5982
C16 C 0.8644(4) 1.0334(5) 0.58152(16)
H19 H 0.8737 1.0257 0.5460
C17 C 0.7424(4) 1.0451(5) 0.60330(15)
H20 H 0.6700 1.0452 0.5820
C18 C 0.7255(3) 1.0568(4) 0.65581(13)
C19 C 0.5946(3) 1.0814(3) 0.67823(15)
H21 H 0.5954 1.1629 0.6961
H22 H 0.5314 1.0868 0.6506
C20 C 0.4275(3) 1.0009(3) 0.73902(14)
H23 H 0.4260 1.0909 0.7496
C21 C 0.4217(4) 0.9217(3) 0.78849(14)
C22 C 0.3095(3) 0.9812(3) 0.70384(15)
H24 H 0.2336 1.0137 0.7216
H25 H 0.3216 1.0332 0.6732
C23 C 0.2810(4) 0.8461(4) 0.68681(15)
H26 H 0.1945 0.8445 0.6722
H27 H 0.2798 0.7919 0.7172
C24 C 0.3544(6) 0.8736(7) 0.5857(2)
H28 H 0.3602 0.9623 0.5951
H29 H 0.2683 0.8551 0.5739
H30 H 0.4154 0.8556 0.5587
Cu1B Cu 1.31930(4) 0.45495(5) 0.728255(16)
Cu2B Cu 0.94765(4) 1.05529(4) 0.796410(15)
O3B O 0.8016(2) 0.9687(3) 0.82825(9)
O4B O 1.1809(2) 0.5561(2) 0.76040(8)
O8 O 0.1835(4) 0.8563(3) 0.90169(13)
H31 H 0.2547 0.9089 0.9020
H32 H 0.1988 0.7773 0.9059
loop_
_geom_bond_atom_site_label_1
_geom_bond_atom_site_label_2
_geom_bond_site_symmetry_1
_geom_bond_site_symmetry_2
Cu1 O2 1_555 1_555
Cu2 O1 1_555 1_555
S1 C11 1_555 1_555
S2 C23 1_555 1_555
O1 C9 1_555 1_555
O2 C9 1_555 1_555
O3 Cu2 1_555 1_555
O4 Cu1 1_555 1_555
O5 Cu2 1_555 1_555
H1 O5 1_555 1_555
H2 O5 1_555 1_555
O6 Cu1 1_555 1_555
O7 C21 1_555 1_555
N1 Cu2 1_555 1_555
N2 Cu1 1_555 1_555
C1 O3 1_555 1_555
C2 C1 1_555 1_555
H3 C2 1_555 1_555
C3 C2 1_555 1_555
H4 C3 1_555 1_555
C4 C3 1_555 1_555
H5 C4 1_555 1_555
C5 C4 1_555 1_555
H6 C5 1_555 1_555
C6 C1 1_555 1_555
C7 N1 1_555 1_555
H7 C7 1_555 1_555
H8 C7 1_555 1_555
C8 N1 1_555 1_555
H9 C8 1_555 1_555
C9 C8 1_555 1_555
C10 C8 1_555 1_555
H10 C10 1_555 1_555
H11 C10 1_555 1_555
C11 C10 1_555 1_555
H12 C11 1_555 1_555
H13 C11 1_555 1_555
C12 S1 1_555 1_555
H14 C12 1_555 1_555
H15 C12 1_555 1_555
H16 C12 1_555 1_555
C13 O4 1_555 1_555
C14 C13 1_555 1_555
H17 C14 1_555 1_555
C15 C14 1_555 1_555
H18 C15 1_555 1_555
C16 C15 1_555 1_555
H19 C16 1_555 1_555
C17 C16 1_555 1_555
H20 C17 1_555 1_555
C18 C13 1_555 1_555
C19 N2 1_555 1_555
H21 C19 1_555 1_555
H22 C19 1_555 1_555
C20 N2 1_555 1_555
H23 C20 1_555 1_555
C21 O6 1_555 1_555
C22 C20 1_555 1_555
H24 C22 1_555 1_555
H25 C22 1_555 1_555
C23 C22 1_555 1_555
H26 C23 1_555 1_555
H27 C23 1_555 1_555
C24 S2 1_555 1_555
H28 C24 1_555 1_555
H29 C24 1_555 1_555
H30 C24 1_555 1_555
O8 H31 1_555 1_555
H32 O8 1_555 1_555
Cu1B O3 1_555 1_555
Cu2B O4 1_555 1_555
O3B Cu1 1_555 1_555
O4B Cu2 1_555 1_555
C5 C6 1_555 1_555
C6 C7 1_555 1_555
C17 C18 1_555 1_555
C18 C19 1_555 1_555
C20 C21 1_555 1_555
Cu1B O4B 1_555 1_555
Cu2B O3B 1_555 1_555

#END
