
#######################################################################
#
#                 Cambridge Crystallographic Data Centre
#                                CCDC 
#
#######################################################################
#
# If this CIF has been generated from an entry in the Cambridge 
# Structural Database, then it will include bibliographic, chemical, 
# crystal, experimental, refinement or atomic coordinate data resulting 
# from the CCDC's data processing and validation procedures.
#
#######################################################################

data_ESUWEV
_symmetry_cell_setting           triclinic
_symmetry_space_group_name_H-M   'P -1'
_symmetry_Int_Tables_number      2
_space_group_name_Hall           '-P 1'
loop_
_symmetry_equiv_pos_site_id
_symmetry_equiv_pos_as_xyz
1 x,y,z
2 -x,-y,-z
_cell_length_a                   9.5140(19)
_cell_length_b                   11.414(2)
_cell_length_c                   13.807(3)
_cell_angle_alpha                68.07(3)
_cell_angle_beta                 70.49(3)
_cell_angle_gamma                81.25(3)
_cell_volume                     1310.35
loop_
_atom_site_label
_atom_site_type_symbol
_atom_site_fract_x
_atom_site_fract_y
_atom_site_fract_z
Cu1 Cu 0.0000 0.0000 0.5000
Cu2 Cu -0.65468(4) -0.70994(3) 0.12847(3)
C1 C 0.0837(3) 0.1830(3) 0.1534(2)
H1 H 0.0492 0.1142 0.1429
H2 H 0.0060 0.2489 0.1520
C2 C 0.1126(3) 0.1358(3) 0.2639(2)
C3 C 0.1896(3) 0.3458(3) -0.0266(2)
H3 H 0.0898 0.3408 -0.0286
H4 H 0.2593 0.3449 -0.0961
C4 C 0.2019(3) 0.4688(3) -0.0124(2)
C5 C 0.3140(3) 0.1381(3) 0.0198(2)
H5 H 0.2772 0.1285 -0.0343
H6 H 0.3078 0.0572 0.0787
C6 C 0.4759(4) 0.1780(3) -0.0324(3)
C7 C -0.4656(4) -0.7402(3) 0.2635(3)
H7 H -0.4546 -0.8233 0.2652
C8 C -0.3996(4) -0.7075(3) 0.3241(3)
H8 H -0.3438 -0.7671 0.3649
C9 C -0.5599(3) -0.5385(3) 0.2001(2)
H9 H -0.6130 -0.4801 0.1564
C10 C -0.4996(3) -0.4990(3) 0.2600(2)
H10 H -0.5140 -0.4158 0.2579
C11 C -0.4172(3) -0.5842(3) 0.3236(2)
C12 C -0.3552(3) -0.5499(3) 0.3932(2)
C13 C -0.2696(3) -0.4436(3) 0.4622(2)
C14 C -0.2166(3) -0.3401(3) 0.4789(2)
C15 C -0.2644(4) -0.2152(3) 0.4385(3)
H11 H -0.3387 -0.1946 0.4043
C16 C -0.2006(4) -0.1225(3) 0.4495(2)
H12 H -0.2323 -0.0391 0.4206
C17 C -0.1125(3) -0.3654(3) 0.5350(2)
H13 H -0.0812 -0.4482 0.5665
C18 C -0.0560(3) -0.2669(3) 0.5437(2)
H14 H 0.0130 -0.2853 0.5822
N1 N 0.2213(3) 0.2336(2) 0.06316(18)
N2 N -0.5450(3) -0.6576(2) 0.2022(2)
N3 N -0.3163(3) -0.3261(2) 0.2811(2)
N4 N -0.3215(3) -0.4315(2) 0.37775(18)
N5 N -0.3287(3) -0.6303(2) 0.4830(2)
N6 N -0.2737(3) -0.5625(2) 0.5265(2)
N7 N -0.0961(3) -0.1454(2) 0.49913(19)
O1 O 0.5555(3) 0.1459(2) -0.10986(19)
O2 O 0.5181(2) 0.2416(2) 0.00995(19)
O3 O 0.2591(3) 0.4628(2) 0.0597(2)
O4 O 0.1584(3) 0.5674(2) -0.07311(19)
O5 O 0.0059(2) 0.0824(2) 0.34453(16)
O6 O 0.2368(2) 0.1550(2) 0.26704(16)
H29 H -0.3826 -0.2734 0.3012
H30 H -0.2344 -0.2980 0.2536
Cu2A Cu 0.65468(4) 0.70994(3) 0.87153(3)
Cu2_2 Cu 0.34532(4) 0.29006(3) 0.12847(3)
Cu2A_2 Cu -0.34532(4) -0.29006(3) 0.87153(3)
C1A C -0.0837(3) -0.1830(3) 0.8466(2)
H1A H -0.0492 -0.1142 0.8571
H2A H -0.0060 -0.2489 0.8480
C2A C -0.1126(3) -0.1358(3) 0.7361(2)
C3A C -0.1896(3) -0.3458(3) 1.0266(2)
H3A H -0.0898 -0.3408 1.0286
H4A H -0.2593 -0.3449 1.0961
C4A C -0.2019(3) -0.4688(3) 1.0124(2)
C5A C -0.3140(3) -0.1381(3) 0.9802(2)
H5A H -0.2772 -0.1285 1.0343
H6A H -0.3078 -0.0572 0.9213
C6A C -0.4759(4) -0.1780(3) 1.0324(3)
C7A C 0.4656(4) 0.7402(3) 0.7365(3)
H7A H 0.4546 0.8233 0.7348
C8A C 0.3996(4) 0.7075(3) 0.6759(3)
H8A H 0.3438 0.7671 0.6351
C9A C 0.5599(3) 0.5385(3) 0.7999(2)
H9A H 0.6130 0.4801 0.8436
C10A C 0.4996(3) 0.4990(3) 0.7400(2)
H10A H 0.5140 0.4158 0.7421
C11A C 0.4172(3) 0.5842(3) 0.6764(2)
C12A C 0.3552(3) 0.5499(3) 0.6068(2)
C13A C 0.2696(3) 0.4436(3) 0.5378(2)
C14A C 0.2166(3) 0.3401(3) 0.5211(2)
C15A C 0.2644(4) 0.2152(3) 0.5615(3)
H11A H 0.3387 0.1946 0.5957
C16A C 0.2006(4) 0.1225(3) 0.5505(2)
H12A H 0.2323 0.0391 0.5794
C17A C 0.1125(3) 0.3654(3) 0.4650(2)
H13A H 0.0812 0.4482 0.4335
C18A C 0.0560(3) 0.2669(3) 0.4563(2)
H14A H -0.0130 0.2853 0.4178
N1A N -0.2213(3) -0.2336(2) 0.93684(18)
N1_2 N -0.7787(3) -0.7664(2) 0.06316(18)
N1A_2 N 0.7787(3) 0.7664(2) 0.93684(18)
N2A N 0.5450(3) 0.6576(2) 0.7978(2)
N3A N 0.3163(3) 0.3261(2) 0.7189(2)
N4A N 0.3215(3) 0.4315(2) 0.62225(18)
N5A N 0.3287(3) 0.6303(2) 0.5170(2)
N6A N 0.2737(3) 0.5625(2) 0.4735(2)
N7A N 0.0961(3) 0.1454(2) 0.50087(19)
O1A O -0.5555(3) -0.1459(2) 1.10986(19)
O2A O -0.5181(2) -0.2416(2) 0.99005(19)
O2_2 O -0.4819(2) -0.7584(2) 0.00995(19)
O2A_2 O 0.4819(2) 0.7584(2) 0.99005(19)
O3A O -0.2591(3) -0.4628(2) 0.9403(2)
O3_2 O -0.7409(3) -0.5372(2) 0.0597(2)
O3A_2 O 0.7409(3) 0.5372(2) 0.9403(2)
O4A O -0.1584(3) -0.5674(2) 1.07311(19)
O5A O -0.0059(2) -0.0824(2) 0.65547(16)
O6A O -0.2368(2) -0.1550(2) 0.73296(16)
O6_2 O -0.7632(2) -0.8450(2) 0.26704(16)
O6A_2 O 0.7632(2) 0.8450(2) 0.73296(16)
H29A H 0.3826 0.2734 0.6988
H30A H 0.2344 0.2980 0.7464
O7 O 0.2493(3) -0.0971(2) 0.45415(19)
H15 H 0.2706 -0.1720 0.4607
H26 H 0.3095 -0.0552 0.3989
O8 O 0.0415(4) 0.5427(5) 0.7624(3)
H27 H 0.0689 0.5651 0.8033
H28 H -0.0434 0.5145 0.7961
O9 O -0.0255(4) 0.8058(4) 0.1748(3)
H16 H 0.0367 0.7774 0.1286
H17 H 0.0145 0.8686 0.1712
O10 O 0.7788(4) 0.0139(3) 0.1833(3)
H18 H 0.8339 -0.0445 0.1644
H19 H 0.7928 0.0763 0.1239
O11 O 0.8124(3) 0.2360(2) 0.0082(2)
H20 H 0.8239 0.2930 0.0272
H21 H 0.7304 0.2428 0.0007
O12 O 0.1886(4) 0.7285(4) 0.2776(3)
H22 H 0.2661 0.7191 0.2316
H23 H 0.1850 0.8089 0.2682
H24 H 0.5873 0.9607 0.2341
H25 H 0.4831 0.9156 0.2133
O13 O 0.5065(3) 0.9206(3) 0.2651(2)
H31? H -0.0874 0.4527 0.8038
H32? H 0.0476 0.3969 0.7624
O14? O -0.0152(15) 0.4575(16) 0.7487(10)
loop_
_geom_bond_atom_site_label_1
_geom_bond_atom_site_label_2
_geom_bond_site_symmetry_1
_geom_bond_site_symmetry_2
Cu1 N7 1_555 1_555
Cu2 N2 1_555 1_555
C1 H1 1_555 1_555
H2 C1 1_555 1_555
C2 C1 1_555 1_555
C3 H3 1_555 1_555
H4 C3 1_555 1_555
C4 C3 1_555 1_555
C5 H5 1_555 1_555
H6 C5 1_555 1_555
C6 C5 1_555 1_555
C7 H7 1_555 1_555
C8 C7 1_555 1_555
H8 C8 1_555 1_555
C9 H9 1_555 1_555
C10 C9 1_555 1_555
H10 C10 1_555 1_555
C11 C8 1_555 1_555
C12 C11 1_555 1_555
C13 C14 1_555 1_555
C14 C15 1_555 1_555
C15 H11 1_555 1_555
C16 C15 1_555 1_555
H12 C16 1_555 1_555
C17 C14 1_555 1_555
H13 C17 1_555 1_555
C18 C17 1_555 1_555
H14 C18 1_555 1_555
N1 C1 1_555 1_555
N2 C7 1_555 1_555
N3 N4 1_555 1_555
N4 C12 1_555 1_555
N5 C12 1_555 1_555
N6 C13 1_555 1_555
N7 C16 1_555 1_555
O1 C6 1_555 1_555
O2 C6 1_555 1_555
O3 C4 1_555 1_555
O4 C4 1_555 1_555
O5 Cu1 1_555 1_555
O6 C2 1_555 1_555
O7 H15 1_555 1_555
O8 H27 1_555 1_555
O9 H16 1_555 1_555
O10 H18 1_555 1_555
O11 H20 1_555 1_555
O12 H22 1_555 1_555
H17 O9 1_555 1_555
H19 O10 1_555 1_555
H21 O11 1_555 1_555
H23 O12 1_555 1_555
H24 O13 1_555 1_555
H25 O13 1_555 1_555
H26 O7 1_555 1_555
H28 O8 1_555 1_555
H29 N3 1_555 1_555
H30 N3 1_555 1_555
Cu2A N1A_2 1_555 1_555
Cu2_2 N1 1_555 1_555
Cu2A_2 N1A 1_555 1_555
C1A H1A 1_555 1_555
H2A C1A 1_555 1_555
C2A C1A 1_555 1_555
C3A H3A 1_555 1_555
H4A C3A 1_555 1_555
C4A C3A 1_555 1_555
C5A H5A 1_555 1_555
H6A C5A 1_555 1_555
C6A C5A 1_555 1_555
C7A H7A 1_555 1_555
C8A C7A 1_555 1_555
H8A C8A 1_555 1_555
C9A H9A 1_555 1_555
C10A C9A 1_555 1_555
H10A C10A 1_555 1_555
C11A C8A 1_555 1_555
C12A C11A 1_555 1_555
C13A C14A 1_555 1_555
C14A C15A 1_555 1_555
C15A H11A 1_555 1_555
C16A C15A 1_555 1_555
H12A C16A 1_555 1_555
C17A C14A 1_555 1_555
H13A C17A 1_555 1_555
C18A C17A 1_555 1_555
H14A C18A 1_555 1_555
N1A C1A 1_555 1_555
N1_2 Cu2 1_555 1_555
N2A Cu2A 1_555 1_555
N3A N4A 1_555 1_555
N4A C12A 1_555 1_555
N5A C12A 1_555 1_555
N6A C13A 1_555 1_555
N7A Cu1 1_555 1_555
O1A C6A 1_555 1_555
O2A Cu2A_2 1_555 1_555
O2_2 Cu2 1_555 1_555
O2A_2 Cu2A 1_555 1_555
O3A Cu2A_2 1_555 1_555
O3_2 Cu2 1_555 1_555
O3A_2 Cu2A 1_555 1_555
O4A C4A 1_555 1_555
O5A Cu1 1_555 1_555
O6A Cu2A_2 1_555 1_555
O6_2 Cu2 1_555 1_555
O6A_2 Cu2A 1_555 1_555
H29A N3A 1_555 1_555
H30A N3A 1_555 1_555
C2 O5 1_555 1_555
C3 N1 1_555 1_555
C5 N1 1_555 1_555
C9 N2 1_555 1_555
C10 C11 1_555 1_555
C13 N4 1_555 1_555
C18 N7 1_555 1_555
N5 N6 1_555 1_555
O2 Cu2_2 1_555 1_555
O3 Cu2_2 1_555 1_555
O6 Cu2_2 1_555 1_555
C2A O5A 1_555 1_555
C2A O6A 1_555 1_555
C3A N1A 1_555 1_555
C4A O3A 1_555 1_555
C5A N1A 1_555 1_555
C6A O2A 1_555 1_555
C7A N2A 1_555 1_555
C9A N2A 1_555 1_555
C10A C11A 1_555 1_555
C13A N4A 1_555 1_555
C16A N7A 1_555 1_555
C18A N7A 1_555 1_555
N5A N6A 1_555 1_555

#END
