
#######################################################################
#
#                 Cambridge Crystallographic Data Centre
#                                CCDC 
#
#######################################################################
#
# If this CIF has been generated from an entry in the Cambridge 
# Structural Database, then it will include bibliographic, chemical, 
# crystal, experimental, refinement or atomic coordinate data resulting 
# from the CCDC's data processing and validation procedures.
#
#######################################################################

data_ESUZEY
_symmetry_cell_setting           monoclinic
_symmetry_space_group_name_H-M   'P 21'
_symmetry_Int_Tables_number      4
_space_group_name_Hall           'P 2yb'
loop_
_symmetry_equiv_pos_site_id
_symmetry_equiv_pos_as_xyz
1 x,y,z
2 -x,1/2+y,-z
_cell_length_a                   10.938(2)
_cell_length_b                   10.727(2)
_cell_length_c                   13.658(3)
_cell_angle_alpha                90
_cell_angle_beta                 94.44(3)
_cell_angle_gamma                90
_cell_volume                     1597.71
loop_
_atom_site_label
_atom_site_type_symbol
_atom_site_fract_x
_atom_site_fract_y
_atom_site_fract_z
Zn1 Zn 0.75690(3) 0.59687(3) 0.11574(2)
Zn2 Zn 0.30100(3) 0.32312(3) 0.47830(2)
O1 O 0.72700(16) 0.57758(18) 0.27507(13)
O2 O 0.62981(17) 0.45814(19) 0.37916(14)
O3 O 0.50900(18) 0.1762(2) 0.34623(15)
O4 O 0.37811(16) 0.33841(19) 0.33741(14)
O5 O 0.3704(2) 0.2393(2) -0.09369(17)
O6 O 0.55478(19) 0.1453(2) -0.07944(16)
O7 O 0.5891(2) 0.4282(2) -0.13420(16)
O8 O 0.71626(18) 0.5475(2) -0.03797(15)
O9 O 0.46554(17) 0.4072(2) 0.52584(15)
H1 H 0.5115 0.4322 0.4825
H2 H 0.5026 0.3780 0.5784
O10 O 0.3553(2) 0.1391(2) 0.48456(17)
H3 H 0.3712 0.0847 0.5288
H4 H 0.4027 0.1401 0.4375
O11 O 0.25151(16) 0.3127(2) 0.62728(13)
H5 H 0.2537 0.2395 0.6503
H6 H 0.2892 0.3682 0.6634
N1 N 0.6368(2) 0.4501(2) 0.12188(17)
N2 N 0.9199(2) 0.4778(2) 0.11651(18)
N3 N 0.9001(2) 0.7219(2) 0.13332(18)
N4 N 0.2090(2) 0.4960(2) 0.45283(18)
N5 N 0.1253(2) 0.2671(2) 0.41236(18)
C1 C 0.6560(2) 0.4891(3) 0.29581(19)
C2 C 0.5999(2) 0.4136(3) 0.20887(19)
C3 C 0.5161(2) 0.3177(3) 0.21455(18)
C4 C 0.4745(2) 0.2589(3) 0.1271(2)
H7 H 0.4196 0.1929 0.1289
C5 C 0.5135(2) 0.2970(3) 0.0375(2)
C6 C 0.5944(2) 0.3976(3) 0.0383(2)
C7 C 0.6379(2) 0.4607(3) -0.0531(2)
C8 C 0.4656(2) 0.2741(3) 0.3088(2)
C9 C 0.4765(3) 0.2227(3) -0.0539(2)
C10 C 0.9223(3) 0.3537(3) 0.1011(2)
H8 H 0.8484 0.3109 0.0909
C11 C 1.0311(3) 0.2877(3) 0.0998(2)
H9 H 1.0301 0.2020 0.0896
C12 C 1.1407(3) 0.3506(3) 0.1139(3)
H10 H 1.2146 0.3078 0.1134
C13 C 1.1396(3) 0.4782(3) 0.1287(3)
H11 H 1.2126 0.5226 0.1382
C14 C 1.0268(3) 0.5390(3) 0.1292(2)
C15 C 1.0162(3) 0.6764(3) 0.1409(2)
C16 C 1.1171(3) 0.7553(3) 0.1569(2)
H12 H 1.1962 0.7229 0.1634
C17 C 1.0977(3) 0.8829(3) 0.1628(2)
H13 H 1.1637 0.9371 0.1738
C18 C 0.9785(3) 0.9288(3) 0.1523(2)
H14 H 0.9635 1.0141 0.1545
C19 C 0.8827(3) 0.8449(3) 0.1383(2)
H15 H 0.8028 0.8754 0.1320
C20 C 0.2572(2) 0.6083(3) 0.4728(2)
H16 H 0.3362 0.6126 0.5032
C21 C 0.1957(3) 0.7181(3) 0.4507(2)
H17 H 0.2321 0.7948 0.4659
C22 C 0.0781(3) 0.7111(3) 0.4050(2)
H18 H 0.0343 0.7835 0.3887
C23 C 0.0268(3) 0.5962(4) 0.3840(2)
H19 H -0.0521 0.5900 0.3538
C24 C 0.0945(3) 0.4891(3) 0.4086(2)
C25 C 0.0475(2) 0.3615(3) 0.3875(2)
C26 C -0.0695(3) 0.3383(4) 0.3444(2)
H20 H -0.1221 0.4040 0.3267
C27 C -0.1071(3) 0.2158(4) 0.3280(2)
H21 H -0.1855 0.1988 0.2999
C28 C -0.0276(3) 0.1201(4) 0.3538(2)
H22 H -0.0511 0.0375 0.3440
C29 C 0.0883(3) 0.1498(3) 0.3947(2)
H23 H 0.1431 0.0853 0.4106
Zn1A Zn 0.24310(3) 0.09687(3) -0.11574(2)
O5A O 0.6296(2) 0.7393(2) 0.09369(17)
O12 O 0.37965(19) 0.5989(2) 0.26603(15)
H24 H 0.3766 0.5226 0.2846
H25 H 0.4273 0.6139 0.2210
O13 O 0.63621(19) -0.0065(2) 0.24718(16)
H26 H 0.6265 0.0649 0.2741
H27 H 0.5742 -0.0341 0.2120
O14 O 0.6160(2) 0.3454(3) 0.67755(17)
H28 H 0.6021 0.2665 0.6832
H29 H 0.6169 0.3849 0.7324
O15 O 0.7465(2) 0.1130(3) 0.07905(19)
H30 H 0.6890 0.0912 0.0335
H31 H 0.7355 0.0436 0.1135
loop_
_geom_bond_atom_site_label_1
_geom_bond_atom_site_label_2
_geom_bond_site_symmetry_1
_geom_bond_site_symmetry_2
Zn1 O1 1_555 1_555
Zn2 O4 1_555 1_555
O1 C1 1_555 1_555
O2 C1 1_555 1_555
O3 C8 1_555 1_555
O4 C8 1_555 1_555
O5 C9 1_555 1_555
O6 C9 1_555 1_555
O7 C7 1_555 1_555
O8 Zn1 1_555 1_555
O9 Zn2 1_555 1_555
H1 O9 1_555 1_555
H2 O9 1_555 1_555
O10 Zn2 1_555 1_555
H3 O10 1_555 1_555
H4 O10 1_555 1_555
O11 Zn2 1_555 1_555
H5 O11 1_555 1_555
H6 O11 1_555 1_555
N1 Zn1 1_555 1_555
N2 Zn1 1_555 1_555
N3 Zn1 1_555 1_555
N4 Zn2 1_555 1_555
N5 Zn2 1_555 1_555
C1 C2 1_555 1_555
C2 N1 1_555 1_555
C3 C2 1_555 1_555
C4 C3 1_555 1_555
H7 C4 1_555 1_555
C5 C4 1_555 1_555
C6 N1 1_555 1_555
C7 O8 1_555 1_555
C8 C3 1_555 1_555
C9 C5 1_555 1_555
C10 N2 1_555 1_555
H8 C10 1_555 1_555
C11 C10 1_555 1_555
H9 C11 1_555 1_555
C12 C11 1_555 1_555
H10 C12 1_555 1_555
C13 C12 1_555 1_555
H11 C13 1_555 1_555
C14 N2 1_555 1_555
C15 N3 1_555 1_555
C16 C15 1_555 1_555
H12 C16 1_555 1_555
C17 C16 1_555 1_555
H13 C17 1_555 1_555
C18 C17 1_555 1_555
H14 C18 1_555 1_555
C19 N3 1_555 1_555
H15 C19 1_555 1_555
C20 N4 1_555 1_555
H16 C20 1_555 1_555
C21 C20 1_555 1_555
H17 C21 1_555 1_555
C22 C21 1_555 1_555
H18 C22 1_555 1_555
C23 C22 1_555 1_555
H19 C23 1_555 1_555
C24 N4 1_555 1_555
C25 N5 1_555 1_555
C26 C25 1_555 1_555
H20 C26 1_555 1_555
C27 C26 1_555 1_555
H21 C27 1_555 1_555
C28 C27 1_555 1_555
H22 C28 1_555 1_555
C29 N5 1_555 1_555
H23 C29 1_555 1_555
O12 H24 1_555 1_555
H25 O12 1_555 1_555
O13 H26 1_555 1_555
H27 O13 1_555 1_555
O14 H28 1_555 1_555
H29 O14 1_555 1_555
O15 H30 1_555 1_555
H31 O15 1_555 1_555
Zn1A O5 1_555 1_555
O5A Zn1 1_555 1_555
C5 C6 1_555 1_555
C6 C7 1_555 1_555
C13 C14 1_555 1_555
C14 C15 1_555 1_555
C18 C19 1_555 1_555
C23 C24 1_555 1_555
C24 C25 1_555 1_555
C28 C29 1_555 1_555

#END
