
#######################################################################
#
#                 Cambridge Crystallographic Data Centre
#                                CCDC 
#
#######################################################################
#
# If this CIF has been generated from an entry in the Cambridge 
# Structural Database, then it will include bibliographic, chemical, 
# crystal, experimental, refinement or atomic coordinate data resulting 
# from the CCDC's data processing and validation procedures.
#
#######################################################################

data_ETAKAM
_symmetry_cell_setting           triclinic
_symmetry_space_group_name_H-M   'P -1'
_symmetry_Int_Tables_number      2
_space_group_name_Hall           '-P 1'
loop_
_symmetry_equiv_pos_site_id
_symmetry_equiv_pos_as_xyz
1 x,y,z
2 -x,-y,-z
_cell_length_a                   5.5677(3)
_cell_length_b                   8.9869(5)
_cell_length_c                   10.6725(6)
_cell_angle_alpha                73.9920(10)
_cell_angle_beta                 84.7960(10)
_cell_angle_gamma                80.7700(10)
_cell_volume                     506.052
loop_
_atom_site_label
_atom_site_type_symbol
_atom_site_fract_x
_atom_site_fract_y
_atom_site_fract_z
Cd1 Cd 1.0000 0.5000 0.0000
O1 O 0.7374(2) 0.44573(17) 0.18030(12)
O2 O 1.0103(2) 0.31750(17) 0.32835(13)
O3 O 0.6775(2) 0.65278(16) -0.12232(13)
H1 H 0.7246 0.6821 -0.1990
N1 N 0.9942(3) 0.88637(17) 0.18382(14)
N2 N 1.0554(3) 0.71558(17) 0.07019(14)
N3 N 1.2184(3) 0.9006(2) 0.12399(17)
C1 C 0.4180(3) 0.5356(2) 0.37484(15)
H2 H 0.3623 0.5599 0.2910
C2 C 0.7291(3) 0.4158(2) 0.52736(16)
H3 H 0.8828 0.3594 0.5460
C3 C 0.8126(3) 0.39931(18) 0.29632(15)
C4 C 0.6474(3) 0.45109(17) 0.40152(14)
C5 C 0.5924(4) 1.0323(2) 0.4480(2)
H4 H 0.7276 1.0521 0.4895
H5 H 0.5186 1.1317 0.3939
C6 C 0.6907(4) 0.9258(2) 0.36109(19)
H6 H 0.7484 0.8225 0.4152
H7 H 0.5600 0.9161 0.3109
C7 C 0.9002(3) 0.7768(2) 0.15072(18)
H8 H 0.7479 0.7471 0.1797
C8 C 0.8941(5) 0.9859(3) 0.2699(2)
H9 H 0.8357 1.0895 0.2165
H10 H 1.0238 0.9958 0.3206
C9 C 1.2459(3) 0.7959(2) 0.05703(18)
H11 H 1.3850 0.7784 0.0049
H12 H 0.5447 0.6149 -0.1409
Cd1_2 Cd 0.0000 0.5000 1.0000
Cd1_3 Cd 0.0000 1.5000 1.0000
O1A O 0.2626(2) 0.55427(17) 0.81970(12)
O1A_2 O 1.2626(2) 0.55427(17) -0.18030(12)
O2A O -0.0103(2) 0.68250(17) 0.67165(13)
O3A O 1.3225(2) 0.34722(16) 0.12232(13)
H1A H 1.2754 0.3179 0.1990
N1A N 0.0058(3) 1.11363(17) 0.81618(14)
N2A N -0.0554(3) 1.28442(17) 0.92981(14)
N2A_2 N 0.9446(3) 0.28442(17) -0.07019(14)
N3A N -0.2184(3) 1.0994(2) 0.87601(17)
C1A C 0.5820(3) 0.4644(2) 0.62516(15)
H2A H 0.6377 0.4401 0.7090
C2A C 0.2709(3) 0.5842(2) 0.47264(16)
H3A H 0.1172 0.6406 0.4540
C3A C 0.1874(3) 0.60069(18) 0.70368(15)
C4A C 0.3526(3) 0.54891(17) 0.59848(14)
C5A C 0.4076(4) 0.9677(2) 0.5520(2)
H4A H 0.2724 0.9479 0.5105
H5A H 0.4814 0.8683 0.6061
C6A C 0.3093(4) 1.0742(2) 0.63891(19)
H6A H 0.2516 1.1775 0.5848
H7A H 0.4400 1.0839 0.6891
C7A C 0.0998(3) 1.2232(2) 0.84928(18)
H8A H 0.2521 1.2529 0.8203
C8A C 0.1059(5) 1.0141(3) 0.7301(2)
H9A H 0.1643 0.9105 0.7835
H10A H -0.0238 1.0042 0.6794
C9A C -0.2459(3) 1.2041(2) 0.94297(18)
H11A H -0.3850 1.2216 0.9951
H12A H 1.4553 0.3851 0.1409
loop_
_geom_bond_atom_site_label_1
_geom_bond_atom_site_label_2
_geom_bond_site_symmetry_1
_geom_bond_site_symmetry_2
Cd1 O1 1_555 1_555
O1 C3 1_555 1_555
O2 C3 1_555 1_555
O3 Cd1 1_555 1_555
H1 O3 1_555 1_555
N1 N3 1_555 1_555
N2 Cd1 1_555 1_555
N3 C9 1_555 1_555
C1 H2 1_555 1_555
C2 H3 1_555 1_555
C3 C4 1_555 1_555
C4 C1 1_555 1_555
C5 H4 1_555 1_555
H5 C5 1_555 1_555
C6 C5 1_555 1_555
H6 C6 1_555 1_555
H7 C6 1_555 1_555
C7 N1 1_555 1_555
H8 C7 1_555 1_555
C8 N1 1_555 1_555
H9 C8 1_555 1_555
H10 C8 1_555 1_555
C9 N2 1_555 1_555
H11 C9 1_555 1_555
H12 O3 1_555 1_555
Cd1_2 O1A 1_555 1_555
Cd1_3 N2A 1_555 1_555
O1A C3A 1_555 1_555
O1A_2 Cd1 1_555 1_555
O2A C3A 1_555 1_555
O3A Cd1 1_555 1_555
H1A O3A 1_555 1_555
N1A N3A 1_555 1_555
N2A C7A 1_555 1_555
N2A_2 Cd1 1_555 1_555
N3A C9A 1_555 1_555
C1A C2 1_555 1_555
H2A C1A 1_555 1_555
C2A C1 1_555 1_555
H3A C2A 1_555 1_555
C3A C4A 1_555 1_555
C4A C1A 1_555 1_555
C5A C5 1_555 1_555
H4A C5A 1_555 1_555
H5A C5A 1_555 1_555
C6A C5A 1_555 1_555
H6A C6A 1_555 1_555
H7A C6A 1_555 1_555
C7A N1A 1_555 1_555
H8A C7A 1_555 1_555
C8A N1A 1_555 1_555
H9A C8A 1_555 1_555
H10A C8A 1_555 1_555
C9A N2A 1_555 1_555
H11A C9A 1_555 1_555
H12A O3A 1_555 1_555
N2 C7 1_555 1_555
C2 C4 1_555 1_555
C6 C8 1_555 1_555
C2A C4A 1_555 1_555
C6A C8A 1_555 1_555

#END
