
#######################################################################
#
#                 Cambridge Crystallographic Data Centre
#                                CCDC 
#
#######################################################################
#
# If this CIF has been generated from an entry in the Cambridge 
# Structural Database, then it will include bibliographic, chemical, 
# crystal, experimental, refinement or atomic coordinate data resulting 
# from the CCDC's data processing and validation procedures.
#
#######################################################################

data_ETANOD
_symmetry_cell_setting           triclinic
_symmetry_space_group_name_H-M   'P -1'
_symmetry_Int_Tables_number      2
_space_group_name_Hall           '-P 1'
loop_
_symmetry_equiv_pos_site_id
_symmetry_equiv_pos_as_xyz
1 x,y,z
2 -x,-y,-z
_cell_length_a                   9.0060(2)
_cell_length_b                   10.5937(3)
_cell_length_c                   11.4443(3)
_cell_angle_alpha                99.182(2)
_cell_angle_beta                 109.1820(10)
_cell_angle_gamma                112.3500(10)
_cell_volume                     901.767
loop_
_atom_site_label
_atom_site_type_symbol
_atom_site_fract_x
_atom_site_fract_y
_atom_site_fract_z
Zn1 Zn 0.53009(4) 0.84701(4) -0.07136(3)
C1 C 0.6730(4) 0.9082(4) 0.2289(3)
H1 H 0.7784 0.9627 0.2240
C2 C 0.6766(4) 0.9129(4) 0.3512(3)
H2 H 0.7819 0.9708 0.4260
C3 C 0.5225(4) 0.8309(3) 0.3620(3)
C4 C 0.3714(4) 0.7440(4) 0.2450(3)
H3 H 0.2657 0.6840 0.2465
C5 C 0.3795(4) 0.7474(4) 0.1271(3)
H4 H 0.2769 0.6891 0.0505
C6 C 0.5196(4) 0.8372(3) 0.4916(3)
C7 C 0.6731(4) 0.9223(4) 0.6071(3)
H5 H 0.7799 0.9759 0.6038
C8 C 0.6667(4) 0.9269(4) 0.7260(3)
H6 H 0.7708 0.9856 0.8015
C9 C 0.3716(4) 0.7693(3) 0.6284(3)
H7 H 0.2673 0.7154 0.6348
C10 C 0.3662(4) 0.7603(4) 0.5061(3)
H8 H 0.2595 0.7024 0.4324
C11 C 0.7077(4) 0.6741(3) -0.1523(3)
C12 C 0.8897(4) 0.7623(3) -0.0942(3)
H9 H 0.9454 0.8237 -0.0084
C13 C 0.9891(4) 0.7589(3) -0.1644(3)
C14 C 0.9054(4) 0.6701(4) -0.2936(3)
H10 H 0.9715 0.6667 -0.3406
C15 C 0.7232(4) 0.5868(4) -0.3520(3)
H11 H 0.6664 0.5305 -0.4398
C16 C 0.6245(4) 0.5862(3) -0.2816(3)
H12 H 0.5024 0.5269 -0.3209
C17 C 1.1857(4) 0.8516(3) -0.1003(3)
N1 N 0.5261(4) 0.8295(3) 0.1169(2)
N2 N 0.5195(3) 0.8519(3) 0.7392(2)
N3 N 0.6052(3) 0.6798(3) -0.0798(2)
H13 H 0.6677 0.6872 0.0028
H14 H 0.5055 0.5949 -0.1145
O1 O 1.2775(3) 0.8080(2) -0.14076(19)
O2 O 1.2458(3) 0.9679(2) -0.0111(2)
Zn1_2 Zn 0.53009(4) 0.84701(4) 0.92864(3)
Zn1_3 Zn 1.53009(4) 0.84701(4) -0.07136(3)
Zn1A Zn 1.46991(4) 1.15299(4) 0.07136(3)
N2_2 N 0.5195(3) 0.8519(3) -0.2608(2)
O1_2 O 0.2775(3) 0.8080(2) -0.14076(19)
O2A O 0.7542(3) 1.0321(2) 0.0111(2)
Cl1 Cl 0.12516(13) 0.34558(13) 0.73391(12)
O3 O 0.3072(12) 0.3851(14) 0.7989(11)
O4 O 0.0673(13) 0.2537(12) 0.6022(6)
O5 O 0.0341(11) 0.2330(10) 0.7823(9)
O6 O 0.0750(16) 0.4466(10) 0.7371(13)
Cl2? Cl 0.12516(13) 0.34558(13) 0.73391(12)
O7? O 0.2969(16) 0.393(2) 0.8379(13)
O8? O 0.1460(16) 0.4193(16) 0.6412(11)
O9? O 0.0186(13) 0.2078(9) 0.6885(16)
O10? O 0.0503(19) 0.4182(16) 0.8012(15)
loop_
_geom_bond_atom_site_label_1
_geom_bond_atom_site_label_2
_geom_bond_site_symmetry_1
_geom_bond_site_symmetry_2
Zn1 N1 1_555 1_555
C1 H1 1_555 1_555
C2 C1 1_555 1_555
H2 C2 1_555 1_555
C3 C2 1_555 1_555
C4 C3 1_555 1_555
H3 C4 1_555 1_555
C5 C4 1_555 1_555
H4 C5 1_555 1_555
C6 C3 1_555 1_555
C7 C6 1_555 1_555
H5 C7 1_555 1_555
C8 C7 1_555 1_555
H6 C8 1_555 1_555
C9 H7 1_555 1_555
C10 C6 1_555 1_555
H8 C10 1_555 1_555
C11 C12 1_555 1_555
C12 H9 1_555 1_555
C13 C12 1_555 1_555
C14 C13 1_555 1_555
H10 C14 1_555 1_555
C15 C14 1_555 1_555
H11 C15 1_555 1_555
C16 C11 1_555 1_555
H12 C16 1_555 1_555
C17 C13 1_555 1_555
N1 C1 1_555 1_555
N2 C8 1_555 1_555
N3 Zn1 1_555 1_555
H13 N3 1_555 1_555
H14 N3 1_555 1_555
O1 C17 1_555 1_555
O2 C17 1_555 1_555
Cl1 O3 1_555 1_555
O4 Cl1 1_555 1_555
O5 Cl1 1_555 1_555
O6 Cl1 1_555 1_555
Zn1_2 N2 1_555 1_555
Zn1_3 O1 1_555 1_555
Zn1A O2 1_555 1_555
N2_2 Zn1 1_555 1_555
O1_2 Zn1 1_555 1_555
O2A Zn1 1_555 1_555
C5 N1 1_555 1_555
C9 C10 1_555 1_555
C9 N2 1_555 1_555
C11 N3 1_555 1_555
C15 C16 1_555 1_555

#END
