
#######################################################################
#
#                 Cambridge Crystallographic Data Centre
#                                CCDC 
#
#######################################################################
#
# If this CIF has been generated from an entry in the Cambridge 
# Structural Database, then it will include bibliographic, chemical, 
# crystal, experimental, refinement or atomic coordinate data resulting 
# from the CCDC's data processing and validation procedures.
#
#######################################################################

data_ETAXAZ
_symmetry_cell_setting           triclinic
_symmetry_space_group_name_H-M   'P -1'
_symmetry_Int_Tables_number      2
_space_group_name_Hall           '-P 1'
loop_
_symmetry_equiv_pos_site_id
_symmetry_equiv_pos_as_xyz
1 x,y,z
2 -x,-y,-z
_cell_length_a                   11.2647(13)
_cell_length_b                   13.3120(17)
_cell_length_c                   13.6154(17)
_cell_angle_alpha                61.920(4)
_cell_angle_beta                 71.986(4)
_cell_angle_gamma                75.482(4)
_cell_volume                     1699.58
loop_
_atom_site_label
_atom_site_type_symbol
_atom_site_fract_x
_atom_site_fract_y
_atom_site_fract_z
C1 C 0.5122(3) 0.5319(3) 0.2050(2)
H1 H 0.5853 0.4770 0.2121
C2 C 0.3549(3) 0.6506(3) 0.1412(3)
H2 H 0.2967 0.6952 0.0939
C3 C 0.3510(4) 0.6513(3) 0.2418(3)
H3 H 0.2905 0.6952 0.2773
C4 C 0.4777(4) 0.5370(3) 0.3929(3)
C5 C 0.5835(4) 0.5677(3) 0.3991(3)
C6 C 0.6685(4) 0.6373(3) 0.3022(3)
H4 H 0.6549 0.6637 0.2280
C7 C 0.7679(5) 0.6664(4) 0.3141(3)
H5 H 0.8243 0.7115 0.2479
C8 C 0.7901(4) 0.6306(4) 0.4246(3)
H6 H 0.8598 0.6529 0.4315
C9 C 0.7112(4) 0.5648(3) 0.5193(3)
H7 H 0.7260 0.5417 0.5924
C10 C 0.6064(4) 0.5294(3) 0.5109(3)
C11 C 0.5045(3) 0.2614(2) 0.2112(2)
H8 H 0.5925 0.2419 0.1886
C12 C 0.3138(3) 0.3468(3) 0.2115(3)
H9 H 0.2434 0.4003 0.1872
C13 C 0.3096(3) 0.2556(3) 0.3143(3)
H10 H 0.2373 0.2333 0.3745
C14 C 0.4696(3) 0.0991(3) 0.4072(2)
C15 C 0.4425(3) -0.0053(3) 0.4231(2)
C16 C 0.3864(3) -0.0159(3) 0.3478(3)
H11 H 0.3671 0.0505 0.2826
C17 C 0.3606(4) -0.1181(3) 0.3677(3)
H12 H 0.3232 -0.1231 0.3167
C18 C 0.3888(3) -0.2177(3) 0.4639(3)
H13 H 0.3672 -0.2887 0.4783
C19 C 0.4463(3) -0.2146(3) 0.5364(3)
H14 H 0.4675 -0.2835 0.5988
C20 C 0.4750(3) -0.1087(3) 0.5195(3)
C21 C 0.7831(3) 0.3909(3) 0.0411(2)
C22 C 0.8960(3) 0.4471(3) 0.0205(2)
C23 C 0.8818(3) 0.5627(3) -0.0025(2)
H15 H 0.8009 0.6062 -0.0041
C24 C 1.0155(3) 0.3852(3) 0.0230(3)
H16 H 1.0267 0.3063 0.0389
Co1 Co 0.5000 0.5000 0.0000
N1 N 0.4559(2) 0.5755(2) 0.1187(2)
N2 N 0.4517(3) 0.5760(2) 0.2821(2)
N3 N 0.4360(2) 0.3508(2) 0.14687(19)
N4 N 0.4308(2) 0.2014(2) 0.3146(2)
O1 O 0.68075(19) 0.45712(18) 0.02854(17)
O2 O 0.79648(19) 0.28522(18) 0.06982(18)
C1A C 0.4878(3) 0.4681(3) 0.7950(2)
H1A H 0.4147 0.5230 0.7879
C2A C 0.6451(3) 0.3494(3) 0.8588(3)
H2A H 0.7033 0.3048 0.9061
C3A C 0.6490(4) 0.3487(3) 0.7582(3)
H3A H 0.7095 0.3048 0.7227
C4A C 0.5223(4) 0.4630(3) 0.6071(3)
C5A C 0.4165(4) 0.4323(3) 0.6009(3)
C6A C 0.3315(4) 0.3627(3) 0.6978(3)
H4A H 0.3451 0.3363 0.7720
C7A C 0.2321(5) 0.3336(4) 0.6859(3)
H5A H 0.1757 0.2885 0.7521
C8A C 0.2099(4) 0.3694(4) 0.5754(3)
H6A H 0.1402 0.3471 0.5685
C9A C 0.2888(4) 0.4352(3) 0.4807(3)
H7A H 0.2740 0.4583 0.4076
C10A C 0.3936(4) 0.4706(3) 0.4891(3)
C11A C 0.4955(3) -0.2614(2) 0.7888(2)
H8A H 0.4075 -0.2419 0.8114
C12A C 0.6862(3) -0.3468(3) 0.7885(3)
H9A H 0.7566 -0.4003 0.8128
C13A C 0.6904(3) -0.2556(3) 0.6857(3)
H10A H 0.7627 -0.2333 0.6255
C14A C 0.5304(3) -0.0991(3) 0.5928(2)
C15A C 0.5575(3) 0.0053(3) 0.5769(2)
C16A C 0.6136(3) 0.0159(3) 0.6522(3)
H11A H 0.6329 -0.0505 0.7174
C17A C 0.6394(4) 0.1181(3) 0.6323(3)
H12A H 0.6768 0.1231 0.6833
C18A C 0.6112(3) 0.2177(3) 0.5361(3)
H13A H 0.6328 0.2887 0.5217
C19A C 0.5537(3) 0.2146(3) 0.4636(3)
H14A H 0.5325 0.2835 0.4012
C20A C 0.5250(3) 0.1087(3) 0.4805(3)
C21A C 1.2169(3) 0.6091(3) -0.0411(2)
C22A C 1.1040(3) 0.5529(3) -0.0205(2)
C23A C 1.1182(3) 0.4373(3) 0.0025(2)
H15A H 1.1991 0.3938 0.0041
C24A C 0.9845(3) 0.6148(3) -0.0230(3)
H16A H 0.9733 0.6937 -0.0389
Co1_2 Co 0.5000 -0.5000 1.0000
Co1_3 Co 0.5000 0.5000 1.0000
Co1_4 Co 1.5000 0.5000 0.0000
N1A N 0.5441(2) 0.4245(2) 0.8813(2)
N1A_2 N 0.5441(2) 0.4245(2) -0.1187(2)
N2A N 0.5483(3) 0.4240(2) 0.7179(2)
N3A N 0.5640(2) -0.3508(2) 0.85313(19)
N3A_2 N 0.5640(2) 0.6492(2) -0.14687(19)
N4A N 0.5692(2) -0.2014(2) 0.6854(2)
O1A O 1.31925(19) 0.54288(18) -0.02854(17)
O1A_2 O 0.31925(19) 0.54288(18) -0.02854(17)
O2A O 1.20352(19) 0.71478(18) -0.06982(18)
C25 C 0.9905(3) -0.0060(3) 0.2283(3)
H17 H 1.0768 0.0050 0.2024
C26 C 0.8068(3) -0.0306(3) 0.2365(3)
H18 H 0.7382 -0.0404 0.2165
C27 C 0.8018(3) -0.0289(3) 0.3365(3)
H19 H 0.7306 -0.0370 0.3983
C28 C 0.9616(3) -0.0060(3) 0.4167(3)
C29 C 0.9524(3) 0.1019(3) 0.4129(3)
C30 C 0.9068(4) 0.2066(3) 0.3271(3)
H20 H 0.8806 0.2042 0.2683
C31 C 0.9005(4) 0.3092(4) 0.3283(3)
H21 H 0.8725 0.3780 0.2692
C32 C 0.9353(4) 0.3145(3) 0.4173(3)
H22 H 0.9284 0.3867 0.4181
C33 C 0.9784(3) 0.2179(3) 0.5010(3)
H23 H 1.0002 0.2233 0.5603
C34 C 0.9913(3) 0.1083(3) 0.5015(3)
C35 C 0.7612(3) -0.0727(3) 0.0096(3)
C36 C 0.6261(3) -0.0359(3) 0.0050(3)
C37 C 0.5583(3) -0.1047(3) -0.0030(3)
H24 H 0.5973 -0.1762 -0.0045
C38 C 0.5677(3) 0.0674(3) 0.0090(3)
H25 H 0.6141 0.1135 0.0158
Co2 Co 1.0000 0.0000 0.0000
N5 N 0.9258(2) -0.0163(2) 0.1683(2)
N6 N 0.9196(3) -0.0129(2) 0.3306(2)
O3 O 0.8227(2) 0.0057(2) -0.01114(18)
O4 O 0.8053(2) -0.1757(2) 0.0333(2)
O5 O 1.0301(2) -0.18428(19) 0.06113(18)
H26 H 1.0729 -0.2009 0.0118
H27 H 0.9671 -0.2070 0.0614
C25A C 1.0095(3) 0.0060(3) 0.7717(3)
H17A H 0.9232 -0.0050 0.7976
C26A C 1.1932(3) 0.0306(3) 0.7635(3)
H18A H 1.2618 0.0404 0.7835
C27A C 1.1982(3) 0.0289(3) 0.6635(3)
H19A H 1.2694 0.0370 0.6017
C28A C 1.0384(3) 0.0060(3) 0.5833(3)
C29A C 1.0476(3) -0.1019(3) 0.5871(3)
C30A C 1.0932(4) -0.2066(3) 0.6729(3)
H20A H 1.1194 -0.2042 0.7317
C31A C 1.0995(4) -0.3092(4) 0.6717(3)
H21A H 1.1275 -0.3780 0.7308
C32A C 1.0647(4) -0.3145(3) 0.5827(3)
H22A H 1.0716 -0.3867 0.5819
C33A C 1.0216(3) -0.2179(3) 0.4990(3)
H23A H 0.9998 -0.2233 0.4397
C34A C 1.0087(3) -0.1083(3) 0.4985(3)
C35A C 0.2388(3) 0.0727(3) -0.0096(3)
C36A C 0.3739(3) 0.0359(3) -0.0050(3)
C37A C 0.4417(3) 0.1047(3) 0.0030(3)
H24A H 0.4027 0.1762 0.0045
C38A C 0.4323(3) -0.0674(3) -0.0090(3)
H25A H 0.3859 -0.1135 -0.0158
Co2_2 Co 0.0000 0.0000 0.0000
Co2_3 Co 1.0000 0.0000 1.0000
N5A N 1.0742(2) 0.0163(2) 0.8317(2)
N5A_2 N 1.0742(2) 0.0163(2) -0.1683(2)
N6A N 1.0804(3) 0.0129(2) 0.6694(2)
O3A O 0.1773(2) -0.0057(2) 0.01114(18)
O3A_2 O 1.1773(2) -0.0057(2) 0.01114(18)
O4A O 0.1947(2) 0.1757(2) -0.0333(2)
O5A O 0.9699(2) 0.18428(19) -0.06113(18)
H26A H 0.9271 0.2009 -0.0118
H27A H 1.0329 0.2070 -0.0614
O6 O 1.0601(5) 0.7085(5) 0.2870(4)
H28 H 1.0670 0.6597 0.2860
H29 H 1.0728 0.7575 0.2243
loop_
_geom_bond_atom_site_label_1
_geom_bond_atom_site_label_2
_geom_bond_site_symmetry_1
_geom_bond_site_symmetry_2
C1 H1 1_555 1_555
C2 H2 1_555 1_555
C3 C2 1_555 1_555
H3 C3 1_555 1_555
C4 C5 1_555 1_555
C5 C6 1_555 1_555
C6 H4 1_555 1_555
C7 C6 1_555 1_555
H5 C7 1_555 1_555
C8 C7 1_555 1_555
H6 C8 1_555 1_555
C9 C8 1_555 1_555
H7 C9 1_555 1_555
C10 C5 1_555 1_555
C11 H8 1_555 1_555
C12 H9 1_555 1_555
C13 C12 1_555 1_555
H10 C13 1_555 1_555
C14 C15 1_555 1_555
C15 C16 1_555 1_555
C16 H11 1_555 1_555
C17 C16 1_555 1_555
H12 C17 1_555 1_555
C18 C17 1_555 1_555
H13 C18 1_555 1_555
C19 C18 1_555 1_555
H14 C19 1_555 1_555
C20 C15 1_555 1_555
C21 C22 1_555 1_555
C22 C23 1_555 1_555
C23 H15 1_555 1_555
C24 C22 1_555 1_555
H16 C24 1_555 1_555
C25 H17 1_555 1_555
C26 H18 1_555 1_555
C27 C26 1_555 1_555
H19 C27 1_555 1_555
C28 C29 1_555 1_555
C29 C30 1_555 1_555
C30 H20 1_555 1_555
C31 C30 1_555 1_555
H21 C31 1_555 1_555
C32 C31 1_555 1_555
H22 C32 1_555 1_555
C33 C32 1_555 1_555
H23 C33 1_555 1_555
C34 C29 1_555 1_555
C35 C36 1_555 1_555
C36 C37 1_555 1_555
C37 H24 1_555 1_555
C38 C36 1_555 1_555
H25 C38 1_555 1_555
Co1 N1 1_555 1_555
Co2 N5 1_555 1_555
N1 C1 1_555 1_555
N2 C1 1_555 1_555
N3 C11 1_555 1_555
N4 C11 1_555 1_555
N5 C25 1_555 1_555
N6 C25 1_555 1_555
O1 C21 1_555 1_555
O2 C21 1_555 1_555
O3 C35 1_555 1_555
O4 C35 1_555 1_555
O5 Co2 1_555 1_555
H26 O5 1_555 1_555
H27 O5 1_555 1_555
O6 H28 1_555 1_555
H29 O6 1_555 1_555
C1A H1A 1_555 1_555
C2A H2A 1_555 1_555
C3A C2A 1_555 1_555
H3A C3A 1_555 1_555
C4A C10 1_555 1_555
C5A C4A 1_555 1_555
C6A C5A 1_555 1_555
H4A C6A 1_555 1_555
C7A C6A 1_555 1_555
H5A C7A 1_555 1_555
C8A C7A 1_555 1_555
H6A C8A 1_555 1_555
C9A C8A 1_555 1_555
H7A C9A 1_555 1_555
C10A C4 1_555 1_555
C11A H8A 1_555 1_555
C12A H9A 1_555 1_555
C13A C12A 1_555 1_555
H10A C13A 1_555 1_555
C14A C20 1_555 1_555
C15A C14A 1_555 1_555
C16A C15A 1_555 1_555
H11A C16A 1_555 1_555
C17A C16A 1_555 1_555
H12A C17A 1_555 1_555
C18A C17A 1_555 1_555
H13A C18A 1_555 1_555
C19A C18A 1_555 1_555
H14A C19A 1_555 1_555
C20A C14 1_555 1_555
C21A C22A 1_555 1_555
C22A C23A 1_555 1_555
C23A C24 1_555 1_555
H15A C23A 1_555 1_555
C24A C23 1_555 1_555
H16A C24A 1_555 1_555
C25A H17A 1_555 1_555
C26A H18A 1_555 1_555
C27A C26A 1_555 1_555
H19A C27A 1_555 1_555
C28A C34 1_555 1_555
C29A C28A 1_555 1_555
C30A C29A 1_555 1_555
H20A C30A 1_555 1_555
C31A C30A 1_555 1_555
H21A C31A 1_555 1_555
C32A C31A 1_555 1_555
H22A C32A 1_555 1_555
C33A C32A 1_555 1_555
H23A C33A 1_555 1_555
C34A C28 1_555 1_555
C35A C36A 1_555 1_555
C36A C37A 1_555 1_555
C37A C38 1_555 1_555
H24A C37A 1_555 1_555
C38A C37 1_555 1_555
H25A C38A 1_555 1_555
Co1_2 N3A 1_555 1_555
Co1_3 N1A 1_555 1_555
Co1_4 O1A 1_555 1_555
Co2_2 O3A 1_555 1_555
Co2_3 N5A 1_555 1_555
N1A C1A 1_555 1_555
N1A_2 Co1 1_555 1_555
N2A C1A 1_555 1_555
N3A C11A 1_555 1_555
N3A_2 Co1 1_555 1_555
N4A C11A 1_555 1_555
N5A C25A 1_555 1_555
N5A_2 Co2 1_555 1_555
N6A C25A 1_555 1_555
O1A C21A 1_555 1_555
O1A_2 Co1 1_555 1_555
O2A C21A 1_555 1_555
O3A C35A 1_555 1_555
O3A_2 Co2 1_555 1_555
O4A C35A 1_555 1_555
O5A Co2 1_555 1_555
H26A O5A 1_555 1_555
H27A O5A 1_555 1_555
C2 N1 1_555 1_555
C3 N2 1_555 1_555
C4 N2 1_555 1_555
C9 C10 1_555 1_555
C12 N3 1_555 1_555
C13 N4 1_555 1_555
C14 N4 1_555 1_555
C19 C20 1_555 1_555
C26 N5 1_555 1_555
C27 N6 1_555 1_555
C28 N6 1_555 1_555
C33 C34 1_555 1_555
Co1 N3 1_555 1_555
Co1 O1 1_555 1_555
Co2 O3 1_555 1_555
C2A N1A 1_555 1_555
C3A N2A 1_555 1_555
C4A N2A 1_555 1_555
C5A C10A 1_555 1_555
C9A C10A 1_555 1_555
C12A N3A 1_555 1_555
C13A N4A 1_555 1_555
C14A N4A 1_555 1_555
C15A C20A 1_555 1_555
C19A C20A 1_555 1_555
C22A C24A 1_555 1_555
C26A N5A 1_555 1_555
C27A N6A 1_555 1_555
C28A N6A 1_555 1_555
C29A C34A 1_555 1_555
C33A C34A 1_555 1_555
C36A C38A 1_555 1_555

#END
