
#######################################################################
#
#                 Cambridge Crystallographic Data Centre
#                                CCDC 
#
#######################################################################
#
# If this CIF has been generated from an entry in the Cambridge 
# Structural Database, then it will include bibliographic, chemical, 
# crystal, experimental, refinement or atomic coordinate data resulting 
# from the CCDC's data processing and validation procedures.
#
#######################################################################

data_ETCDTH
_symmetry_cell_setting           monoclinic
_symmetry_space_group_name_H-M   'C 2/c'
_symmetry_Int_Tables_number      15
_space_group_name_Hall           '-C 2yn'
loop_
_symmetry_equiv_pos_site_id
_symmetry_equiv_pos_as_xyz
1 x,y,z
2 1/2+x,1/2+y,z
3 -x,y,1/2-z
4 1/2-x,1/2+y,1/2-z
5 -x,-y,-z
6 1/2-x,1/2-y,-z
7 x,-y,1/2+z
8 1/2+x,1/2-y,1/2+z
_cell_length_a                   15.600
_cell_length_b                   8.170
_cell_length_c                   11.510
_cell_angle_alpha                90
_cell_angle_beta                 95.68
_cell_angle_gamma                90
_cell_volume                     1459.77
loop_
_atom_site_label
_atom_site_type_symbol
_atom_site_fract_x
_atom_site_fract_y
_atom_site_fract_z
Cd1 Cd 0.00000 0.06050 0.25000
C1 C 0.23300 0.07000 0.26700
C2 C 0.30100 0.04000 0.09600
C3 C 0.36900 0.09100 0.19900
C4 C 0.00900 -0.24100 0.03200
N1 N 0.22200 0.03300 0.15500
N2 N 0.31400 0.10300 0.29600
N3 N 0.03300 -0.17900 0.12300
S1 S 0.03900 0.28600 0.08800
S2 S 0.15300 0.07300 0.36200
N3B N -0.03300 -0.17900 0.37700
S1B S -0.03900 0.28600 0.41200
S2B S -0.15300 0.07300 0.13800
S1D S -0.03900 -0.28600 -0.08800
C4D C -0.00900 0.24100 -0.03200
C1B C -0.23300 0.07000 0.23300
Cd1D Cd 0.00000 -0.06050 -0.25000
N3D N -0.03300 0.17900 -0.12300
N1B N -0.22200 0.03300 0.34500
N2B N -0.31400 0.10300 0.20400
C2B C -0.30100 0.04000 0.40400
C3B C -0.36900 0.09100 0.30100
loop_
_geom_bond_atom_site_label_1
_geom_bond_atom_site_label_2
_geom_bond_site_symmetry_1
_geom_bond_site_symmetry_2
Cd1 N3 1_555 1_555
C1 N1 1_555 1_555
C2 C3 1_555 1_555
C3 N2 1_555 1_555
C4 N3 1_555 1_555
N1 C2 1_555 1_555
N2 C1 1_555 1_555
S1 Cd1 1_555 1_555
S2 Cd1 1_555 1_555
N3B Cd1 1_555 1_555
S1B Cd1 1_555 1_555
S2B Cd1 1_555 1_555
S1D C4 1_555 1_555
C4D S1 1_555 1_555
C1B S2B 1_555 1_555
Cd1D S1D 1_555 1_555
N3D C4D 1_555 1_555
N1B C1B 1_555 1_555
N2B C1B 1_555 1_555
C2B N1B 1_555 1_555
C3B N2B 1_555 1_555
C1 S2 1_555 1_555
Cd1D N3D 1_555 1_555
C2B C3B 1_555 1_555

#END
