
#######################################################################
#
#                 Cambridge Crystallographic Data Centre
#                                CCDC 
#
#######################################################################
#
# If this CIF has been generated from an entry in the Cambridge 
# Structural Database, then it will include bibliographic, chemical, 
# crystal, experimental, refinement or atomic coordinate data resulting 
# from the CCDC's data processing and validation procedures.
#
#######################################################################

data_ETCRBI
_symmetry_cell_setting           monoclinic
_symmetry_space_group_name_H-M   'P 21/c'
_symmetry_Int_Tables_number      14
_space_group_name_Hall           '-P 2ybc'
loop_
_symmetry_equiv_pos_site_id
_symmetry_equiv_pos_as_xyz
1 x,y,z
2 -x,1/2+y,1/2-z
3 -x,-y,-z
4 x,1/2-y,1/2+z
_cell_length_a                   10.673(3)
_cell_length_b                   15.001(3)
_cell_length_c                   8.149(2)
_cell_angle_alpha                90
_cell_angle_beta                 90.86(2)
_cell_angle_gamma                90
_cell_volume                     1304.55
loop_
_atom_site_label
_atom_site_type_symbol
_atom_site_fract_x
_atom_site_fract_y
_atom_site_fract_z
Bi1 Bi 0.22018 0.20649 0.77148
I1 I 0.42851 0.20681 1.06104
I2 I 0.03284 0.15247 1.02923
S1 S 0.13400 0.11370 0.51090
S2 S 0.32220 0.04860 0.75510
C1 C 0.23820 0.03030 0.57400
N1 N 0.25060 -0.04370 0.48910
C2 C 0.19000 -0.05700 0.33100
C3 C 0.28400 -0.04300 0.19000
C4 C 0.33200 -0.11700 0.55200
C5 C 0.26100 -0.18300 0.65400
H1 H 0.31600 0.01700 0.19500
H2 H 0.35300 -0.08300 0.20200
H3 H 0.24600 -0.05100 0.08600
H4 H 0.22800 -0.15200 0.74400
H5 H 0.19200 -0.20800 0.58800
H6 H 0.31500 -0.23000 0.69400
H7 H 0.15400 -0.12000 0.31200
H8 H 0.12100 -0.01900 0.30500
H9 H 0.35800 -0.15300 0.46000
H10 H 0.39000 -0.10100 0.62000
I1C I 0.42851 0.29319 0.56104
Bi1C Bi 0.22018 0.29351 1.27148
Bi1C_2 Bi 0.22018 0.29351 0.27148
I1C_2 I 0.42851 0.29319 1.56104
I2C I 0.03284 0.34753 1.52923
S1C S 0.13400 0.38630 1.01090
S2C S 0.32220 0.45140 1.25510
C1C C 0.23820 0.46970 1.07400
N1C N 0.25060 0.54370 0.98910
C2C C 0.19000 0.55700 0.83100
C4C C 0.33200 0.61700 1.05200
C3C C 0.28400 0.54300 0.69000
H7C H 0.15400 0.62000 0.81200
H8C H 0.12100 0.51900 0.80500
C5C C 0.26100 0.68300 1.15400
H9C H 0.35800 0.65300 0.96000
H10C H 0.39000 0.60100 1.12000
H1C H 0.31600 0.48300 0.69500
H2C H 0.35300 0.58300 0.70200
H3C H 0.24600 0.55100 0.58600
H4C H 0.22800 0.65200 1.24400
H5C H 0.19200 0.70800 1.08800
H6C H 0.31500 0.73000 1.19400
loop_
_geom_bond_atom_site_label_1
_geom_bond_atom_site_label_2
_geom_bond_site_symmetry_1
_geom_bond_site_symmetry_2
Bi1 I1 1_555 1_555
I1 Bi1C 1_555 1_555
I2 Bi1 1_555 1_555
S1 Bi1 1_555 1_555
S2 Bi1 1_555 1_555
C1 S1 1_555 1_555
N1 C1 1_555 1_555
C2 N1 1_555 1_555
C3 C2 1_555 1_555
C4 N1 1_555 1_555
C5 C4 1_555 1_555
H1 C3 1_555 1_555
H2 C3 1_555 1_555
H3 C3 1_555 1_555
H4 C5 1_555 1_555
H5 C5 1_555 1_555
H6 C5 1_555 1_555
H7 C2 1_555 1_555
H8 C2 1_555 1_555
H9 C4 1_555 1_555
H10 C4 1_555 1_555
I1C Bi1 1_555 1_555
Bi1C I1C_2 1_555 1_555
Bi1C_2 I1C 1_555 1_555
I2C Bi1C 1_555 1_555
S1C Bi1C 1_555 1_555
S2C Bi1C 1_555 1_555
C1C S1C 1_555 1_555
N1C C1C 1_555 1_555
C2C N1C 1_555 1_555
C4C N1C 1_555 1_555
C3C C2C 1_555 1_555
H7C C2C 1_555 1_555
H8C C2C 1_555 1_555
C5C C4C 1_555 1_555
H9C C4C 1_555 1_555
H10C C4C 1_555 1_555
H1C C3C 1_555 1_555
H2C C3C 1_555 1_555
H3C C3C 1_555 1_555
H4C C5C 1_555 1_555
H5C C5C 1_555 1_555
H6C C5C 1_555 1_555
S2 C1 1_555 1_555
S2C C1C 1_555 1_555

#END
