
#######################################################################
#
#                 Cambridge Crystallographic Data Centre
#                                CCDC 
#
#######################################################################
#
# If this CIF has been generated from an entry in the Cambridge 
# Structural Database, then it will include bibliographic, chemical, 
# crystal, experimental, refinement or atomic coordinate data resulting 
# from the CCDC's data processing and validation procedures.
#
#######################################################################

data_ETDSCU
_symmetry_cell_setting           triclinic
_symmetry_space_group_name_H-M   'P -1'
_symmetry_Int_Tables_number      2
_space_group_name_Hall           '-P 1'
loop_
_symmetry_equiv_pos_site_id
_symmetry_equiv_pos_as_xyz
1 x,y,z
2 -x,-y,-z
_cell_length_a                   5.974(1)
_cell_length_b                   8.657(1)
_cell_length_c                   10.760(1)
_cell_angle_alpha                95.07(1)
_cell_angle_beta                 88.30(1)
_cell_angle_gamma                109.65(1)
_cell_volume                     522.017
loop_
_atom_site_label
_atom_site_type_symbol
_atom_site_fract_x
_atom_site_fract_y
_atom_site_fract_z
Cu1 Cu 0.00000 0.00000 0.00000
S1 S 0.49763 0.33628 0.14219
O1 O 0.37150 0.18610 0.06770
O2 O 0.75450 0.36660 0.14350
O3 O 0.40700 0.34660 0.26880
C1 C 0.45680 0.50030 0.06720
O4 O -0.11050 0.17840 -0.03870
O5 O -0.12020 0.01220 0.17180
H1 H 0.28200 0.48600 0.07300
H2 H 0.54200 0.60200 0.12500
H3 H -0.13900 0.22000 0.02100
H4 H -0.20400 0.15300 -0.08700
H5 H -0.21800 -0.03100 0.17300
H6 H -0.05600 -0.02100 0.22700
O1A O -0.37150 -0.18610 -0.06770
O4A O 0.11050 -0.17840 0.03870
O5A O 0.12020 -0.01220 -0.17180
C1A C 0.54320 0.49970 -0.06720
H3A H 0.13900 -0.22000 -0.02100
H4A H 0.20400 -0.15300 0.08700
H5A H 0.21800 0.03100 -0.17300
H6A H 0.05600 0.02100 -0.22700
S1A S 0.50237 0.66372 -0.14219
H1A H 0.71800 0.51400 -0.07300
H2A H 0.45800 0.39800 -0.12500
O1A_2 O 0.62850 0.81390 -0.06770
O2A O 0.24550 0.63340 -0.14350
O3A O 0.59300 0.65340 -0.26880
Cu1_2 Cu 1.00000 1.00000 0.00000
Cu2 Cu 0.00000 0.50000 0.50000
S2 S -0.26760 0.15049 0.64730
O6 O -0.28110 0.30510 0.61170
O7 O -0.02100 0.15430 0.66190
O8 O -0.40890 0.09410 0.75740
C2 C -0.37910 0.00090 0.52000
O9 O 0.25990 0.43090 0.56060
O10 O 0.03140 0.66480 0.64130
H7 H -0.26400 0.02600 0.44900
H8 H -0.39100 -0.11500 0.56000
H9 H 0.37000 0.49200 0.59900
H10 H 0.18300 0.33100 0.58900
H11 H -0.08300 0.65900 0.66400
H12 H 0.10400 0.66900 0.70200
O6A O 0.28110 0.69490 0.38830
O9A O -0.25990 0.56910 0.43940
O10A O -0.03140 0.33520 0.35870
C2A C -0.62090 -0.00090 0.48000
H9A H -0.37000 0.50800 0.40100
H10A H -0.18300 0.66900 0.41100
H11A H 0.08300 0.34100 0.33600
H12A H -0.10400 0.33100 0.29800
S2A S -0.73240 -0.15049 0.35270
H7A H -0.73600 -0.02600 0.55100
H8A H -0.60900 0.11500 0.44000
O6A_2 O -0.71890 -0.30510 0.38830
O7A O -0.97900 -0.15430 0.33810
O8A O -0.59110 -0.09410 0.24260
Cu2_2 Cu -1.00000 -0.50000 0.50000
loop_
_geom_bond_atom_site_label_1
_geom_bond_atom_site_label_2
_geom_bond_site_symmetry_1
_geom_bond_site_symmetry_2
Cu1 O1 1_555 1_555
S1 O1 1_555 1_555
O2 S1 1_555 1_555
O3 S1 1_555 1_555
C1 S1 1_555 1_555
O4 Cu1 1_555 1_555
O5 Cu1 1_555 1_555
H1 C1 1_555 1_555
H2 C1 1_555 1_555
H3 O4 1_555 1_555
H4 O4 1_555 1_555
H5 O5 1_555 1_555
H6 O5 1_555 1_555
Cu2 O6 1_555 1_555
S2 O6 1_555 1_555
O7 S2 1_555 1_555
O8 S2 1_555 1_555
C2 S2 1_555 1_555
O9 Cu2 1_555 1_555
O10 Cu2 1_555 1_555
H7 C2 1_555 1_555
H8 C2 1_555 1_555
H9 O9 1_555 1_555
H10 O9 1_555 1_555
H11 O10 1_555 1_555
H12 O10 1_555 1_555
O1A Cu1 1_555 1_555
O4A Cu1 1_555 1_555
O5A Cu1 1_555 1_555
C1A C1 1_555 1_555
H3A O4A 1_555 1_555
H4A O4A 1_555 1_555
H5A O5A 1_555 1_555
H6A O5A 1_555 1_555
S1A C1A 1_555 1_555
H1A C1A 1_555 1_555
H2A C1A 1_555 1_555
O1A_2 S1A 1_555 1_555
O2A S1A 1_555 1_555
O3A S1A 1_555 1_555
Cu1_2 O1A_2 1_555 1_555
O6A Cu2 1_555 1_555
O9A Cu2 1_555 1_555
O10A Cu2 1_555 1_555
C2A C2 1_555 1_555
H9A O9A 1_555 1_555
H10A O9A 1_555 1_555
H11A O10A 1_555 1_555
H12A O10A 1_555 1_555
S2A C2A 1_555 1_555
H7A C2A 1_555 1_555
H8A C2A 1_555 1_555
O6A_2 S2A 1_555 1_555
O7A S2A 1_555 1_555
O8A S2A 1_555 1_555
Cu2_2 O6A_2 1_555 1_555

#END
