
#######################################################################
#
#                 Cambridge Crystallographic Data Centre
#                                CCDC 
#
#######################################################################
#
# If this CIF has been generated from an entry in the Cambridge 
# Structural Database, then it will include bibliographic, chemical, 
# crystal, experimental, refinement or atomic coordinate data resulting 
# from the CCDC's data processing and validation procedures.
#
#######################################################################

data_ETEBIP
_symmetry_cell_setting           monoclinic
_symmetry_space_group_name_H-M   'P 21/c'
_symmetry_Int_Tables_number      14
_space_group_name_Hall           '-P 2ybc'
loop_
_symmetry_equiv_pos_site_id
_symmetry_equiv_pos_as_xyz
1 x,y,z
2 -x,1/2+y,1/2-z
3 -x,-y,-z
4 x,1/2-y,1/2+z
_cell_length_a                   20.0411(3)
_cell_length_b                   8.38050(10)
_cell_length_c                   13.2718(2)
_cell_angle_alpha                90
_cell_angle_beta                 93.9050(10)
_cell_angle_gamma                90
_cell_volume                     2223.88
loop_
_atom_site_label
_atom_site_type_symbol
_atom_site_fract_x
_atom_site_fract_y
_atom_site_fract_z
Pb1 Pb 0.09890(3) 1.10153(6) 0.04574(4)
Pb2 Pb 0.24862(3) 0.68457(6) 0.10607(4)
Pb3 Pb -0.02882(3) 1.01267(6) 0.32507(4)
O1 O 0.1689(5) 0.8971(10) 0.1464(7)
O2 O 0.0768(5) 0.9490(11) 0.2165(7)
O3 O 0.0077(5) 0.7465(11) 0.3491(7)
O4 O 0.0396(4) 0.6298(11) 0.4914(7)
O5 O 0.1277(6) 1.1727(11) -0.2865(7)
O6 O 0.0708(6) 1.1760(12) -0.1480(7)
O7 O 0.0650(5) 1.4410(12) -0.0046(7)
O8 O 0.1445(4) 1.5823(10) 0.0756(7)
N1 N 0.2131(6) 0.6895(13) 0.2881(8)
N2 N 0.1688(6) 0.5898(12) 0.4264(8)
N3 N 0.2356(6) 1.5009(12) -0.0527(8)
N4 N 0.2320(6) 1.3392(13) -0.1896(8)
C1 C 0.2235(8) 0.5985(15) 0.3715(10)
C2 C 0.1497(7) 0.7469(15) 0.2899(9)
C3 C 0.1223(7) 0.6829(14) 0.3737(9)
C4 C 0.1290(8) 0.8715(15) 0.2138(9)
C5 C 0.0544(7) 0.6929(14) 0.4072(10)
C6 C 0.2874(8) 0.5243(17) 0.4008(10)
C7 C 0.2951(9) 0.4105(18) 0.4784(12)
H1 H 0.2574 0.3778 0.5099
C8 C 0.3545(9) 0.346(2) 0.5094(13)
H2 H 0.3576 0.2786 0.5649
C9 C 0.4141(10) 0.382(2) 0.4568(15)
H3 H 0.4545 0.3306 0.4727
C10 C 0.4077(9) 0.499(2) 0.3812(14)
H4 H 0.4451 0.5294 0.3483
C11 C 0.3476(9) 0.567(2) 0.3551(13)
H5 H 0.3454 0.6454 0.3053
C12 C 0.2695(7) 1.4452(17) -0.1316(10)
C13 C 0.1724(7) 1.3289(15) -0.1498(9)
C14 C 0.1746(7) 1.4296(15) -0.0639(10)
C15 C 0.1191(7) 1.2194(15) -0.1981(10)
C16 C 0.1245(7) 1.4852(14) 0.0039(9)
C17 C 0.3378(9) 1.4928(19) -0.1515(13)
C18 C 0.3847(9) 1.542(2) -0.0735(15)
H6 H 0.3724 1.5385 -0.0072
C19 C 0.4450(10) 1.594(2) -0.0904(17)
H7 H 0.4756 1.6238 -0.0381
C20 C 0.4606(10) 1.600(3) -0.1936(18)
H8 H 0.5020 1.6417 -0.2073
C21 C 0.4223(10) 1.554(3) -0.2683(17)
H9 H 0.4368 1.5555 -0.3334
C22 C 0.3560(10) 1.500(2) -0.2500(14)
H10 H 0.3262 1.4695 -0.3033
O9 O 0.2620(8) 0.3932(13) 0.1616(9)
H11 H 0.3017 0.4146 0.1530
H12 H 0.2590 0.3340 0.2112
Pb1C Pb 0.09890(3) 0.39847(6) 0.54574(4)
Pb2_2 Pb 0.24862(3) 1.68457(6) 0.10607(4)
Pb3B Pb 0.02882(3) 0.98733(6) -0.32507(4)
Pb3A Pb 0.02882(3) 1.51267(6) 0.17493(4)
O4C O 0.0396(4) 0.8702(11) -0.0086(7)
O5B O -0.1277(6) 0.8273(11) 0.2865(7)
O7A O -0.0650(5) 0.9410(12) 0.5046(7)
O8_2 O 0.1445(4) 0.5823(10) 0.0756(7)
N2C N 0.1688(6) 0.9102(12) -0.0736(8)
N3_2 N 0.2356(6) 0.5009(12) -0.0527(8)
loop_
_geom_bond_atom_site_label_1
_geom_bond_atom_site_label_2
_geom_bond_site_symmetry_1
_geom_bond_site_symmetry_2
Pb1 O1 1_555 1_555
Pb2 O1 1_555 1_555
Pb3 O2 1_555 1_555
O1 C4 1_555 1_555
O2 Pb1 1_555 1_555
O3 Pb3 1_555 1_555
O4 C5 1_555 1_555
O5 C15 1_555 1_555
O6 Pb1 1_555 1_555
O7 C16 1_555 1_555
O8 C16 1_555 1_555
N1 Pb2 1_555 1_555
N2 C1 1_555 1_555
N3 C12 1_555 1_555
N4 C12 1_555 1_555
C1 N1 1_555 1_555
C2 N1 1_555 1_555
C3 N2 1_555 1_555
C4 O2 1_555 1_555
C5 O3 1_555 1_555
C6 C1 1_555 1_555
C7 C6 1_555 1_555
H1 C7 1_555 1_555
C8 C7 1_555 1_555
H2 C8 1_555 1_555
C9 C8 1_555 1_555
H3 C9 1_555 1_555
C10 C9 1_555 1_555
H4 C10 1_555 1_555
C11 C6 1_555 1_555
H5 C11 1_555 1_555
C12 C17 1_555 1_555
C13 N4 1_555 1_555
C14 N3 1_555 1_555
C15 O6 1_555 1_555
C16 C14 1_555 1_555
C17 C18 1_555 1_555
C18 H6 1_555 1_555
C19 C18 1_555 1_555
H7 C19 1_555 1_555
C20 C19 1_555 1_555
H8 C20 1_555 1_555
C21 C20 1_555 1_555
H9 C21 1_555 1_555
C22 C17 1_555 1_555
H10 C22 1_555 1_555
O9 Pb2 1_555 1_555
H11 O9 1_555 1_555
H12 O9 1_555 1_555
Pb1C O4 1_555 1_555
Pb2_2 O8 1_555 1_555
Pb3B O5 1_555 1_555
Pb3A O7 1_555 1_555
O4C Pb1 1_555 1_555
O5B Pb3 1_555 1_555
O7A Pb3 1_555 1_555
O8_2 Pb2 1_555 1_555
N2C Pb1 1_555 1_555
N3_2 Pb2 1_555 1_555
N2 Pb1C 1_555 1_555
N3 Pb2_2 1_555 1_555
C2 C3 1_555 1_555
C2 C4 1_555 1_555
C3 C5 1_555 1_555
C10 C11 1_555 1_555
C13 C14 1_555 1_555
C13 C15 1_555 1_555
C21 C22 1_555 1_555

#END
