
#######################################################################
#
#                 Cambridge Crystallographic Data Centre
#                                CCDC 
#
#######################################################################
#
# If this CIF has been generated from an entry in the Cambridge 
# Structural Database, then it will include bibliographic, chemical, 
# crystal, experimental, refinement or atomic coordinate data resulting 
# from the CCDC's data processing and validation procedures.
#
#######################################################################

data_ETECIQ
_symmetry_cell_setting           monoclinic
_symmetry_space_group_name_H-M   'P 21/n'
_symmetry_Int_Tables_number      14
_space_group_name_Hall           '-P 2yn'
loop_
_symmetry_equiv_pos_site_id
_symmetry_equiv_pos_as_xyz
1 x,y,z
2 1/2-x,1/2+y,1/2-z
3 -x,-y,-z
4 1/2+x,1/2-y,1/2+z
_cell_length_a                   8.6506(3)
_cell_length_b                   9.2253(3)
_cell_length_c                   14.1506(4)
_cell_angle_alpha                90
_cell_angle_beta                 94.430(2)
_cell_angle_gamma                90
_cell_volume                     1125.91
loop_
_atom_site_label
_atom_site_type_symbol
_atom_site_fract_x
_atom_site_fract_y
_atom_site_fract_z
Fe1 Fe 0.0000 0.5000 0.5000
S1 S 0.20872(12) 0.57321(11) 0.81739(5)
N1 N 0.13053(19) 0.5600(2) 0.62384(11)
N2 N 0.28782(18) 0.89889(18) 0.05492(11)
C1 C 0.1366(2) 0.8415(2) 0.18653(13)
N3 N 0.06230(18) 0.71215(18) 0.43040(11)
C2 C 0.1653(2) 0.5672(2) 0.70421(14)
C3 C 0.0661(2) 0.7241(2) 0.33603(13)
H1 H 0.0223 0.6478 0.2976
C4 C 0.1301(2) 0.8411(2) 0.29107(13)
C5 C 0.1186(2) 0.8238(2) 0.48322(13)
H2 H 0.1148 0.8188 0.5501
C6 C 0.0169(2) 0.7915(2) 0.12376(14)
H3 H -0.0758 0.7549 0.1466
C7 C 0.1706(2) 0.8518(2) -0.00407(14)
H4 H 0.1804 0.8568 -0.0704
C8 C 0.1897(3) 0.9537(2) 0.34770(15)
H5 H 0.2354 1.0355 0.3201
C9 C 0.1819(3) 0.9455(3) 0.44465(15)
H6 H 0.2196 1.0228 0.4843
C10 C 0.0348(2) 0.7958(3) 0.02763(15)
H7 H -0.0450 0.7607 -0.0164
C11 C 0.2701(2) 0.8917(2) 0.14806(13)
H8 H 0.3539 0.9229 0.1906
Fe1A Fe -0.5000 0.0000 1.0000
Fe1A_2 Fe 0.5000 1.0000 0.0000
S1B S -0.20872(12) 0.42679(11) 0.18261(5)
N1B N -0.13053(19) 0.4400(2) 0.37616(11)
N2B N -0.28782(18) 0.10111(18) 0.94508(11)
N2A N 0.21218(18) 0.39889(18) 0.44508(11)
N2C N -0.21218(18) 0.60111(18) 0.55492(11)
C1B C -0.1366(2) 0.1585(2) 0.81347(13)
N3B N -0.06230(18) 0.28785(18) 0.56960(11)
C2B C -0.1653(2) 0.4328(2) 0.29579(14)
C3B C -0.0661(2) 0.2759(2) 0.66397(13)
H1B H -0.0223 0.3522 0.7024
C4B C -0.1301(2) 0.1589(2) 0.70893(13)
C5B C -0.1186(2) 0.1762(2) 0.51678(13)
H2B H -0.1148 0.1812 0.4499
C6B C -0.0169(2) 0.2085(2) 0.87624(14)
H3B H 0.0758 0.2451 0.8534
C7B C -0.1706(2) 0.1482(2) 1.00407(14)
H4B H -0.1804 0.1432 1.0704
C8B C -0.1897(3) 0.0463(2) 0.65230(15)
H5B H -0.2354 -0.0355 0.6799
C9B C -0.1819(3) 0.0545(3) 0.55535(15)
H6B H -0.2196 -0.0228 0.5157
C10B C -0.0348(2) 0.2042(3) 0.97237(15)
H7B H 0.0450 0.2393 1.0164
C11B C -0.2701(2) 0.1083(2) 0.85194(13)
H8B H -0.3539 0.0771 0.8094
loop_
_geom_bond_atom_site_label_1
_geom_bond_atom_site_label_2
_geom_bond_site_symmetry_1
_geom_bond_site_symmetry_2
Fe1 N1 1_555 1_555
S1 C2 1_555 1_555
N1 C2 1_555 1_555
N2 C7 1_555 1_555
C1 C4 1_555 1_555
N3 Fe1 1_555 1_555
C3 N3 1_555 1_555
H1 C3 1_555 1_555
C4 C3 1_555 1_555
C5 N3 1_555 1_555
H2 C5 1_555 1_555
C6 C1 1_555 1_555
H3 C6 1_555 1_555
C7 H4 1_555 1_555
C8 C4 1_555 1_555
H5 C8 1_555 1_555
C9 C5 1_555 1_555
H6 C9 1_555 1_555
C10 C6 1_555 1_555
H7 C10 1_555 1_555
C11 N2 1_555 1_555
H8 C11 1_555 1_555
Fe1A N2B 1_555 1_555
Fe1A_2 N2 1_555 1_555
S1B C2B 1_555 1_555
N1B Fe1 1_555 1_555
N2B C7B 1_555 1_555
N2A Fe1 1_555 1_555
N2C Fe1 1_555 1_555
C1B C4B 1_555 1_555
N3B Fe1 1_555 1_555
C2B N1B 1_555 1_555
C3B N3B 1_555 1_555
H1B C3B 1_555 1_555
C4B C3B 1_555 1_555
C5B N3B 1_555 1_555
H2B C5B 1_555 1_555
C6B C1B 1_555 1_555
H3B C6B 1_555 1_555
C7B H4B 1_555 1_555
C8B C4B 1_555 1_555
H5B C8B 1_555 1_555
C9B C5B 1_555 1_555
H6B C9B 1_555 1_555
C10B C6B 1_555 1_555
H7B C10B 1_555 1_555
C11B N2B 1_555 1_555
H8B C11B 1_555 1_555
C1 C11 1_555 1_555
C7 C10 1_555 1_555
C8 C9 1_555 1_555
C1B C11B 1_555 1_555
C7B C10B 1_555 1_555
C8B C9B 1_555 1_555

#END
