
#######################################################################
#
#                 Cambridge Crystallographic Data Centre
#                                CCDC 
#
#######################################################################
#
# If this CIF has been generated from an entry in the Cambridge 
# Structural Database, then it will include bibliographic, chemical, 
# crystal, experimental, refinement or atomic coordinate data resulting 
# from the CCDC's data processing and validation procedures.
#
#######################################################################

data_ETEGOA
_symmetry_cell_setting           triclinic
_symmetry_space_group_name_H-M   'P -1'
_symmetry_Int_Tables_number      2
_space_group_name_Hall           '-P 1'
loop_
_symmetry_equiv_pos_site_id
_symmetry_equiv_pos_as_xyz
1 x,y,z
2 -x,-y,-z
_cell_length_a                   9.835(2)
_cell_length_b                   13.839(3)
_cell_length_c                   21.881(5)
_cell_angle_alpha                96.492(4)
_cell_angle_beta                 100.320(5)
_cell_angle_gamma                104.967(4)
_cell_volume                     2790.51
loop_
_atom_site_label
_atom_site_type_symbol
_atom_site_fract_x
_atom_site_fract_y
_atom_site_fract_z
In1 In 0.15001(10) 0.22663(7) 0.06088(5)
In2 In 0.42124(10) 0.59408(7) 0.38465(5)
O1 O 0.2644(10) 0.1468(7) 0.1411(5)
O2 O 0.0470(11) 0.0776(7) 0.0828(6)
O3 O -0.2924(11) -0.1505(9) -0.0131(6)
O4 O -0.1005(12) -0.1681(7) 0.0447(5)
O5 O 0.3469(10) 0.3545(7) 0.1049(5)
O6 O 0.2024(12) 0.3974(8) 0.0362(6)
O7 O 0.3714(10) 0.5489(7) 0.2752(5)
O8 O 0.2394(10) 0.6239(8) 0.3223(5)
O9 O 0.2223(12) 0.4913(8) 0.4227(6)
O10 O 0.3837(11) 0.4319(7) 0.3899(5)
O11 O 0.6590(12) 0.2703(8) 0.5360(5)
O12 O 0.4927(10) 0.3527(8) 0.5176(5)
N1 N 0.0765(13) 0.2839(8) 0.1501(6)
N2 N -0.0836(12) 0.2365(9) 0.0308(7)
N3 N 0.5505(13) 0.7496(9) 0.3680(6)
N4 N 0.6531(12) 0.5869(9) 0.3823(6)
C1 C 0.1474(18) 0.0765(11) 0.1264(8)
C2 C 0.1327(16) -0.0135(10) 0.1614(7)
C3 C 0.2624(16) -0.0348(12) 0.1851(8)
H1 H 0.3505 0.0036 0.1795
C4 C 0.2519(18) -0.1164(12) 0.2175(7)
H2 H 0.3350 -0.1346 0.2322
C5 C 0.123(2) -0.1711(13) 0.2287(9)
H3 H 0.1205 -0.2234 0.2521
C6 C 0.002(2) -0.1479(11) 0.2051(8)
H4 H -0.0851 -0.1858 0.2124
C7 C -0.0001(16) -0.0693(11) 0.1701(7)
C8 C -0.1366(16) -0.0427(11) 0.1506(9)
C9 C -0.2280(17) -0.0671(11) 0.0922(10)
C10 C -0.3502(17) -0.0291(13) 0.0834(10)
H5 H -0.4118 -0.0436 0.0439
C11 C -0.380(2) 0.0300(13) 0.1333(12)
H6 H -0.4612 0.0529 0.1273
C12 C -0.291(2) 0.0523(14) 0.1880(11)
H7 H -0.3084 0.0923 0.2210
C13 C -0.169(2) 0.0171(13) 0.1982(9)
H8 H -0.1073 0.0342 0.2378
C14 C -0.2049(18) -0.1357(12) 0.0378(8)
C15 C 0.3076(16) 0.4207(11) 0.0789(8)
C16 C 0.3983(14) 0.5299(10) 0.1041(6)
C17 C 0.5346(17) 0.5616(12) 0.0916(8)
H9 H 0.5678 0.5173 0.0669
C18 C 0.6213(16) 0.6594(13) 0.1160(8)
H10 H 0.7073 0.6837 0.1032
C19 C 0.5798(17) 0.7219(11) 0.1599(7)
H11 H 0.6419 0.7844 0.1805
C20 C 0.4473(17) 0.6882(11) 0.1710(7)
H12 H 0.4184 0.7308 0.1988
C21 C 0.3481(15) 0.5925(11) 0.1435(7)
C22 C 0.2000(14) 0.5714(10) 0.1526(8)
C23 C 0.0882(16) 0.5581(10) 0.0985(7)
H13 H 0.1095 0.5568 0.0588
C24 C -0.0498(17) 0.5474(11) 0.1049(9)
H14 H -0.1208 0.5374 0.0685
C25 C -0.0913(16) 0.5504(12) 0.1627(9)
H15 H -0.1859 0.5452 0.1659
C26 C 0.0187(16) 0.5617(10) 0.2151(8)
H16 H -0.0037 0.5622 0.2547
C27 C 0.1623(14) 0.5725(10) 0.2105(8)
C28 C 0.2637(15) 0.5800(11) 0.2727(7)
C29 C 0.1568(19) 0.3068(11) 0.2086(8)
H17 H 0.2537 0.3092 0.2147
C30 C 0.101(2) 0.3269(11) 0.2602(8)
H18 H 0.1589 0.3392 0.3003
C31 C -0.040(2) 0.3294(12) 0.2536(9)
H19 H -0.0769 0.3455 0.2885
C32 C -0.1253(19) 0.3068(11) 0.1929(9)
C33 C -0.0612(18) 0.2847(10) 0.1426(8)
C34 C -0.270(2) 0.3066(13) 0.1811(12)
H20 H -0.3127 0.3180 0.2147
C35 C -0.351(2) 0.2895(14) 0.1197(12)
H21 H -0.4447 0.2944 0.1124
C36 C -0.2875(17) 0.2642(11) 0.0674(9)
C37 C -0.1455(16) 0.2623(10) 0.0788(8)
C38 C -0.3671(19) 0.2408(13) 0.0041(12)
H22 H -0.4629 0.2413 -0.0053
C39 C -0.2997(19) 0.2176(14) -0.0425(10)
H23 H -0.3496 0.2028 -0.0843
C40 C -0.1571(17) 0.2158(12) -0.0279(8)
H24 H -0.1128 0.1997 -0.0602
C41 C 0.2730(18) 0.4194(14) 0.4138(8)
C42 C 0.2111(16) 0.3147(12) 0.4282(8)
C43 C 0.0862(17) 0.3051(14) 0.4526(7)
H25 H 0.0488 0.3601 0.4577
C44 C 0.0194(18) 0.2149(16) 0.4690(9)
H26 H -0.0618 0.2085 0.4861
C45 C 0.074(2) 0.1349(15) 0.4598(10)
H27 H 0.0291 0.0739 0.4714
C46 C 0.1917(19) 0.1412(12) 0.4343(8)
H28 H 0.2231 0.0839 0.4271
C47 C 0.2682(16) 0.2349(11) 0.4184(6)
C48 C 0.3980(16) 0.2358(11) 0.3939(9)
C49 C 0.379(2) 0.2025(12) 0.3313(10)
H29 H 0.2865 0.1864 0.3059
C50 C 0.496(2) 0.1914(13) 0.3030(9)
H30 H 0.4812 0.1707 0.2598
C51 C 0.628(2) 0.2116(12) 0.3404(10)
H31 H 0.7056 0.2053 0.3230
C52 C 0.6477(18) 0.2412(11) 0.4035(9)
H32 H 0.7376 0.2517 0.4297
C53 C 0.5317(16) 0.2559(10) 0.4293(7)
C54 C 0.5642(17) 0.2947(12) 0.4997(8)
C55 C 0.5007(18) 0.8285(12) 0.3640(8)
H33 H 0.4054 0.8216 0.3666
C56 C 0.585(3) 0.9227(14) 0.3559(9)
H34 H 0.5459 0.9765 0.3515
C57 C 0.731(2) 0.9335(15) 0.3547(10)
H35 H 0.7892 0.9957 0.3501
C58 C 0.789(2) 0.8516(15) 0.3604(9)
C59 C 0.6930(18) 0.7601(12) 0.3673(8)
C60 C 0.939(2) 0.8567(17) 0.3618(10)
H36 H 1.0026 0.9160 0.3560
C61 C 0.985(2) 0.7781(18) 0.3712(10)
H37 H 1.0832 0.7853 0.3748
C62 C 0.8948(17) 0.6818(14) 0.3764(7)
C63 C 0.7459(16) 0.6734(13) 0.3746(7)
C64 C 0.9363(18) 0.5934(15) 0.3848(8)
H38 H 1.0308 0.5937 0.3844
C65 C 0.844(2) 0.5090(15) 0.3933(8)
H39 H 0.8740 0.4519 0.3999
C66 C 0.7036(18) 0.5085(13) 0.3919(8)
H40 H 0.6401 0.4496 0.3982
In1A In -0.15001(10) -0.22663(7) -0.06088(5)
In2A In 0.57876(10) 0.40592(7) 0.61535(5)
O3A O 0.2924(11) 0.1505(9) 0.0131(6)
O4A O 0.1005(12) 0.1681(7) -0.0447(5)
O12A O 0.5073(10) 0.6473(8) 0.4824(5)
O13 O 0.335(2) 0.9332(13) 0.4775(12)
O14 O 0.564(3) 0.449(2) 0.2334(12)
loop_
_geom_bond_atom_site_label_1
_geom_bond_atom_site_label_2
_geom_bond_site_symmetry_1
_geom_bond_site_symmetry_2
In1 O1 1_555 1_555
In2 O7 1_555 1_555
O1 C1 1_555 1_555
O2 In1 1_555 1_555
O3 C14 1_555 1_555
O4 C14 1_555 1_555
O5 In1 1_555 1_555
O6 In1 1_555 1_555
O7 C28 1_555 1_555
O8 In2 1_555 1_555
O9 In2 1_555 1_555
O10 In2 1_555 1_555
O11 C54 1_555 1_555
O12 C54 1_555 1_555
N1 In1 1_555 1_555
N2 In1 1_555 1_555
N3 In2 1_555 1_555
N4 In2 1_555 1_555
C1 O2 1_555 1_555
C2 C1 1_555 1_555
C3 C2 1_555 1_555
H1 C3 1_555 1_555
C4 C3 1_555 1_555
H2 C4 1_555 1_555
C5 C4 1_555 1_555
H3 C5 1_555 1_555
C6 C5 1_555 1_555
H4 C6 1_555 1_555
C7 C2 1_555 1_555
C8 C7 1_555 1_555
C9 C8 1_555 1_555
C10 C9 1_555 1_555
H5 C10 1_555 1_555
C11 C10 1_555 1_555
H6 C11 1_555 1_555
C12 C11 1_555 1_555
H7 C12 1_555 1_555
C13 C8 1_555 1_555
H8 C13 1_555 1_555
C14 C9 1_555 1_555
C15 O5 1_555 1_555
C16 C15 1_555 1_555
C17 C16 1_555 1_555
H9 C17 1_555 1_555
C18 C17 1_555 1_555
H10 C18 1_555 1_555
C19 C18 1_555 1_555
H11 C19 1_555 1_555
C20 C19 1_555 1_555
H12 C20 1_555 1_555
C21 C16 1_555 1_555
C22 C21 1_555 1_555
C23 C22 1_555 1_555
H13 C23 1_555 1_555
C24 C23 1_555 1_555
H14 C24 1_555 1_555
C25 C24 1_555 1_555
H15 C25 1_555 1_555
C26 C25 1_555 1_555
H16 C26 1_555 1_555
C27 C22 1_555 1_555
C28 O8 1_555 1_555
C29 N1 1_555 1_555
H17 C29 1_555 1_555
C30 C29 1_555 1_555
H18 C30 1_555 1_555
C31 C30 1_555 1_555
H19 C31 1_555 1_555
C32 C31 1_555 1_555
C33 N1 1_555 1_555
C34 C32 1_555 1_555
H20 C34 1_555 1_555
C35 C34 1_555 1_555
H21 C35 1_555 1_555
C36 C35 1_555 1_555
C37 N2 1_555 1_555
C38 C36 1_555 1_555
H22 C38 1_555 1_555
C39 C38 1_555 1_555
H23 C39 1_555 1_555
C40 N2 1_555 1_555
H24 C40 1_555 1_555
C41 O9 1_555 1_555
C42 C41 1_555 1_555
C43 C42 1_555 1_555
H25 C43 1_555 1_555
C44 C43 1_555 1_555
H26 C44 1_555 1_555
C45 C44 1_555 1_555
H27 C45 1_555 1_555
C46 C45 1_555 1_555
H28 C46 1_555 1_555
C47 C42 1_555 1_555
C48 C47 1_555 1_555
C49 C48 1_555 1_555
H29 C49 1_555 1_555
C50 C49 1_555 1_555
H30 C50 1_555 1_555
C51 C50 1_555 1_555
H31 C51 1_555 1_555
C52 C51 1_555 1_555
H32 C52 1_555 1_555
C53 C48 1_555 1_555
C54 C53 1_555 1_555
C55 N3 1_555 1_555
H33 C55 1_555 1_555
C56 C55 1_555 1_555
H34 C56 1_555 1_555
C57 C56 1_555 1_555
H35 C57 1_555 1_555
C58 C57 1_555 1_555
C59 N3 1_555 1_555
C60 C58 1_555 1_555
H36 C60 1_555 1_555
C61 C60 1_555 1_555
H37 C61 1_555 1_555
C62 C61 1_555 1_555
C63 N4 1_555 1_555
C64 C62 1_555 1_555
H38 C64 1_555 1_555
C65 C64 1_555 1_555
H39 C65 1_555 1_555
C66 N4 1_555 1_555
H40 C66 1_555 1_555
In1A O3 1_555 1_555
In2A O12 1_555 1_555
O3A In1 1_555 1_555
O4A In1 1_555 1_555
O12A In2 1_555 1_555
O4 In1A 1_555 1_555
O6 C15 1_555 1_555
O10 C41 1_555 1_555
C6 C7 1_555 1_555
C12 C13 1_555 1_555
C20 C21 1_555 1_555
C26 C27 1_555 1_555
C27 C28 1_555 1_555
C32 C33 1_555 1_555
C33 C37 1_555 1_555
C36 C37 1_555 1_555
C39 C40 1_555 1_555
C46 C47 1_555 1_555
C52 C53 1_555 1_555
C58 C59 1_555 1_555
C59 C63 1_555 1_555
C62 C63 1_555 1_555
C65 C66 1_555 1_555

#END
