
#######################################################################
#
#                 Cambridge Crystallographic Data Centre
#                                CCDC 
#
#######################################################################
#
# If this CIF has been generated from an entry in the Cambridge 
# Structural Database, then it will include bibliographic, chemical, 
# crystal, experimental, refinement or atomic coordinate data resulting 
# from the CCDC's data processing and validation procedures.
#
#######################################################################

data_ETEHUH01
_symmetry_cell_setting           triclinic
_symmetry_space_group_name_H-M   'P -1'
_symmetry_Int_Tables_number      2
_space_group_name_Hall           '-P 1'
loop_
_symmetry_equiv_pos_site_id
_symmetry_equiv_pos_as_xyz
1 x,y,z
2 -x,-y,-z
_cell_length_a                   8.9484(6)
_cell_length_b                   10.1378(6)
_cell_length_c                   11.8315(6)
_cell_angle_alpha                68.413(5)
_cell_angle_beta                 84.359(5)
_cell_angle_gamma                78.184(5)
_cell_volume                     976.578
loop_
_atom_site_label
_atom_site_type_symbol
_atom_site_fract_x
_atom_site_fract_y
_atom_site_fract_z
Co1 Co 0.64479(4) 0.15416(3) 0.44408(3)
O1 O 0.8392(2) 0.27094(18) 0.38170(18)
O2 O 0.6305(2) 0.35925(19) 0.46001(18)
O3 O 0.7494(2) 0.97901(18) 0.40329(16)
O4 O 0.5770(2) 0.84473(19) 0.49724(18)
N1 N 0.4395(3) -0.2462(2) 0.7399(2)
C1 C 0.8236(3) 0.5039(2) 0.3938(2)
N2 N 0.7229(2) 0.0454(2) 0.62738(19)
C2 C 1.0262(3) 0.6433(3) 0.3187(2)
C3 C 0.7614(3) 0.3698(2) 0.4131(2)
C4 C 0.9678(3) 0.5181(3) 0.3413(2)
C5 C 0.7915(3) 0.7410(2) 0.40486(19)
C6 C 0.7349(3) 0.6153(2) 0.4259(2)
C7 C 0.9359(3) 0.7535(2) 0.3513(2)
C8 C 0.6980(3) 0.8633(2) 0.4375(2)
C9 C 0.8511(3) -0.0541(3) 0.6566(3)
C10 C 1.1820(3) 0.6598(3) 0.2616(3)
H1 H 1.1853 0.7604 0.2205
H2 H 1.2031 0.6113 0.2042
H3 H 1.2572 0.6183 0.3236
C11 C 0.6374(3) 0.0690(3) 0.7199(2)
C12 C 0.6745(4) -0.0055(3) 0.8405(3)
C13 C 0.8949(3) -0.1316(3) 0.7745(3)
C14 C 0.3650(4) -0.2118(3) 0.8322(3)
C15 C 0.8054(3) -0.1106(3) 0.8704(3)
C16 C 0.4278(4) -0.2530(4) 0.9447(3)
C17 C 0.8480(4) -0.1965(4) 1.0015(3)
H4 H 0.8995 -0.1395 1.0298
H5 H 0.9207 -0.2827 1.0038
C18 C 0.6533(5) -0.3681(4) 1.0834(3)
H6 H 0.7367 -0.4489 1.0926
H7 H 0.5814 -0.3979 1.1508
C19 C 0.6468(4) -0.3737(3) 0.8734(3)
C20 C 0.5745(4) -0.3332(3) 0.9662(3)
C21 C 0.5779(4) -0.3285(3) 0.7627(3)
C22 C 0.7162(5) -0.2420(4) 1.0906(3)
H8 H 0.6336 -0.1595 1.0761
H9 H 0.7505 -0.2681 1.1726
H10 H 0.975(3) 0.842(3) 0.336(2)
H11 H 0.647(3) 0.607(3) 0.457(2)
H12 H 0.913(3) -0.072(3) 0.590(2)
H13 H 0.541(3) 0.141(3) 0.698(3)
H14 H 1.022(3) 0.445(3) 0.323(2)
H15 H 0.270(4) -0.154(3) 0.813(3)
H16 H 0.626(4) -0.354(3) 0.703(3)
H17 H 0.983(3) -0.197(3) 0.787(3)
H18 H 0.604(4) 0.015(4) 0.903(3)
H19 H 0.737(4) -0.426(4) 0.879(3)
H20 H 0.369(4) -0.223(4) 1.003(3)
Co1_2 Co 0.64479(4) 1.15416(3) 0.44408(3)
Co1A Co 0.35521(4) -0.15416(3) 0.55592(3)
Co1A_2 Co 0.35521(4) 0.84584(3) 0.55592(3)
O3_2 O 0.7494(2) -0.02099(18) 0.40329(16)
O4A O 0.4230(2) 0.15527(19) 0.50276(18)
N1A N 0.5605(3) 0.2462(2) 0.2601(2)
loop_
_geom_bond_atom_site_label_1
_geom_bond_atom_site_label_2
_geom_bond_site_symmetry_1
_geom_bond_site_symmetry_2
Co1 O1 1_555 1_555
O1 C3 1_555 1_555
O2 Co1 1_555 1_555
O3 C8 1_555 1_555
O4 C8 1_555 1_555
N1 C14 1_555 1_555
C1 C3 1_555 1_555
N2 Co1 1_555 1_555
C2 C4 1_555 1_555
C3 O2 1_555 1_555
C4 C1 1_555 1_555
C5 C6 1_555 1_555
C6 C1 1_555 1_555
C7 C2 1_555 1_555
C8 C5 1_555 1_555
C9 N2 1_555 1_555
C10 C2 1_555 1_555
H1 C10 1_555 1_555
H2 C10 1_555 1_555
H3 C10 1_555 1_555
C11 N2 1_555 1_555
C12 C11 1_555 1_555
C13 C9 1_555 1_555
C14 C16 1_555 1_555
C15 C12 1_555 1_555
C16 C20 1_555 1_555
C17 C15 1_555 1_555
H4 C17 1_555 1_555
H5 C17 1_555 1_555
C18 H6 1_555 1_555
H7 C18 1_555 1_555
C19 C20 1_555 1_555
C20 C18 1_555 1_555
C21 N1 1_555 1_555
C22 C17 1_555 1_555
H8 C22 1_555 1_555
H9 C22 1_555 1_555
H10 C7 1_555 1_555
H11 C6 1_555 1_555
H12 C9 1_555 1_555
H13 C11 1_555 1_555
H14 C4 1_555 1_555
H15 C14 1_555 1_555
H16 C21 1_555 1_555
H17 C13 1_555 1_555
H18 C12 1_555 1_555
H19 C19 1_555 1_555
H20 C16 1_555 1_555
Co1_2 O3 1_555 1_555
Co1A N1 1_555 1_555
Co1A_2 O4 1_555 1_555
O3_2 Co1 1_555 1_555
O4A Co1 1_555 1_555
N1A Co1 1_555 1_555
C5 C7 1_555 1_555
C13 C15 1_555 1_555
C18 C22 1_555 1_555
C19 C21 1_555 1_555

#END
