
#######################################################################
#
#                 Cambridge Crystallographic Data Centre
#                                CCDC 
#
#######################################################################
#
# If this CIF has been generated from an entry in the Cambridge 
# Structural Database, then it will include bibliographic, chemical, 
# crystal, experimental, refinement or atomic coordinate data resulting 
# from the CCDC's data processing and validation procedures.
#
#######################################################################

data_ETEJAP
_symmetry_cell_setting           triclinic
_symmetry_space_group_name_H-M   'P -1'
_symmetry_Int_Tables_number      2
_space_group_name_Hall           '-P 1'
loop_
_symmetry_equiv_pos_site_id
_symmetry_equiv_pos_as_xyz
1 x,y,z
2 -x,-y,-z
_cell_length_a                   9.7609(10)
_cell_length_b                   10.1202(11)
_cell_length_c                   10.9656(12)
_cell_angle_alpha                76.4430(10)
_cell_angle_beta                 81.0920(10)
_cell_angle_gamma                68.7420(10)
_cell_volume                     978.453
loop_
_atom_site_label
_atom_site_type_symbol
_atom_site_fract_x
_atom_site_fract_y
_atom_site_fract_z
Ni1 Ni 0.54524(2) 0.63951(2) 0.62026(2)
O1 O 0.65441(15) 0.68740(13) 0.75577(12)
O2 O 0.49915(15) 0.85775(13) 0.62816(12)
O3 O 0.59395(15) 1.33245(14) 0.51201(12)
O4 O 0.62117(14) 1.42073(13) 0.67166(12)
N1 N 0.72023(18) 0.64776(17) 0.48159(14)
N2 N 1.36855(17) 0.63866(16) -0.24058(14)
C1 C 0.5897(2) 0.81983(19) 0.71154(16)
C2 C 0.6204(2) 0.93554(19) 0.75569(17)
C3 C 0.6610(2) 0.9141(2) 0.87649(18)
H1 H 0.6749 0.8246 0.9296
C4 C 0.6813(2) 1.0245(2) 0.91987(17)
C5 C 0.6624(2) 1.15639(19) 0.83701(17)
H2 H 0.6740 1.2315 0.8647
C6 C 0.6266(2) 1.17880(18) 0.71374(17)
C7 C 0.6040(2) 1.06759(19) 0.67317(17)
H3 H 0.5783 1.0815 0.5918
C8 C 0.7219(3) 1.0045(2) 1.0524(2)
H4 H 0.8261 0.9837 1.0516
H5 H 0.6958 0.9257 1.1052
H6 H 0.6696 1.0913 1.0845
C9 C 0.61060(19) 1.32177(18) 0.62483(16)
C10 C 0.8023(3) 0.5327(3) 0.4323(2)
H7 H 0.7832 0.4468 0.4629
C11 C 0.9142(3) 0.5338(3) 0.3382(3)
H8 H 0.9687 0.4496 0.3083
C12 C 0.9455(2) 0.6591(2) 0.28853(18)
C13 C 0.8618(3) 0.7774(2) 0.3400(2)
H9 H 0.8794 0.8642 0.3113
C14 C 0.7515(3) 0.7690(2) 0.4340(2)
H10 H 0.6963 0.8517 0.4659
C15 C 1.0624(2) 0.6666(3) 0.18178(19)
H11 H 1.1567 0.5972 0.2077
H12 H 1.0704 0.7622 0.1637
C16 C 1.0284(3) 0.6356(3) 0.0632(2)
H13 H 1.0178 0.5411 0.0823
H14 H 0.9349 0.7064 0.0367
C17 C 1.1454(2) 0.6392(2) -0.04422(19)
C18 C 1.1201(2) 0.7415(3) -0.1552(2)
H15 H 1.0279 0.8126 -0.1660
C19 C 1.2334(2) 0.7371(2) -0.24984(19)
H16 H 1.2141 0.8063 -0.3235
C20 C 1.3922(2) 0.5403(2) -0.13351(19)
H17 H 1.4854 0.4706 -0.1249
C21 C 1.2855(3) 0.5367(2) -0.0350(2)
H18 H 1.3076 0.4656 0.0372
Ni1A Ni 0.45476(2) 1.36049(2) 0.37974(2)
Ni1_2 Ni 0.54524(2) 1.63951(2) 0.62026(2)
Ni1_3 Ni 1.54524(2) 0.63951(2) -0.37974(2)
O3A O 0.40605(15) 0.66755(14) 0.48799(12)
O4_2 O 0.62117(14) 0.42073(13) 0.67166(12)
N2_2 N 0.36855(17) 0.63866(16) 0.75942(14)
loop_
_geom_bond_atom_site_label_1
_geom_bond_atom_site_label_2
_geom_bond_site_symmetry_1
_geom_bond_site_symmetry_2
Ni1 O1 1_555 1_555
O1 C1 1_555 1_555
O2 Ni1 1_555 1_555
O3 C9 1_555 1_555
O4 C9 1_555 1_555
N1 Ni1 1_555 1_555
N2 C19 1_555 1_555
C1 O2 1_555 1_555
C2 C1 1_555 1_555
C3 C2 1_555 1_555
H1 C3 1_555 1_555
C4 C3 1_555 1_555
C5 C4 1_555 1_555
H2 C5 1_555 1_555
C6 C5 1_555 1_555
C7 C2 1_555 1_555
H3 C7 1_555 1_555
C8 C4 1_555 1_555
H4 C8 1_555 1_555
H5 C8 1_555 1_555
H6 C8 1_555 1_555
C9 C6 1_555 1_555
C10 N1 1_555 1_555
H7 C10 1_555 1_555
C11 C10 1_555 1_555
H8 C11 1_555 1_555
C12 C11 1_555 1_555
C13 C12 1_555 1_555
H9 C13 1_555 1_555
C14 N1 1_555 1_555
H10 C14 1_555 1_555
C15 C12 1_555 1_555
H11 C15 1_555 1_555
H12 C15 1_555 1_555
C16 C15 1_555 1_555
H13 C16 1_555 1_555
H14 C16 1_555 1_555
C17 C16 1_555 1_555
C18 C17 1_555 1_555
H15 C18 1_555 1_555
C19 C18 1_555 1_555
H16 C19 1_555 1_555
C20 N2 1_555 1_555
H17 C20 1_555 1_555
C21 C17 1_555 1_555
H18 C21 1_555 1_555
Ni1A O3 1_555 1_555
Ni1_2 O4 1_555 1_555
Ni1_3 N2 1_555 1_555
O3A Ni1 1_555 1_555
O4_2 Ni1 1_555 1_555
N2_2 Ni1 1_555 1_555
C6 C7 1_555 1_555
C13 C14 1_555 1_555
C20 C21 1_555 1_555

#END
