
#######################################################################
#
#                 Cambridge Crystallographic Data Centre
#                                CCDC 
#
#######################################################################
#
# If this CIF has been generated from an entry in the Cambridge 
# Structural Database, then it will include bibliographic, chemical, 
# crystal, experimental, refinement or atomic coordinate data resulting 
# from the CCDC's data processing and validation procedures.
#
#######################################################################

data_ETEKAQ
_symmetry_cell_setting           triclinic
_symmetry_space_group_name_H-M   'P -1'
_symmetry_Int_Tables_number      2
_space_group_name_Hall           '-P 1'
loop_
_symmetry_equiv_pos_site_id
_symmetry_equiv_pos_as_xyz
1 x,y,z
2 -x,-y,-z
_cell_length_a                   10.5226(9)
_cell_length_b                   11.0545(9)
_cell_length_c                   12.7711(11)
_cell_angle_alpha                103.8260(10)
_cell_angle_beta                 110.0240(10)
_cell_angle_gamma                96.6020(10)
_cell_volume                     1323.41
loop_
_atom_site_label
_atom_site_type_symbol
_atom_site_fract_x
_atom_site_fract_y
_atom_site_fract_z
Gd1 Gd 0.103040(18) 0.547825(17) 0.681682(17)
O1 O -0.0166(3) 0.3337(3) 0.5876(3)
O2 O -0.0731(3) 0.2745(3) 0.3943(3)
O3 O -0.0450(6) 0.0528(4) 0.2917(3)
H1 H -0.0569 0.1257 0.2968
O4 O 0.1590(3) 0.4937(3) 0.5176(3)
O5 O 0.1256(3) 0.4300(3) 0.3317(3)
O6 O 0.3298(4) 0.3985(5) 0.2670(3)
H2 H 0.2483 0.3954 0.2578
O7 O 0.1755(3) 0.7544(3) 0.8484(3)
O8 O 0.3293(3) 0.6899(4) 0.7807(3)
O9 O 0.2351(4) 0.9852(4) 0.9964(4)
H3 H 0.1840 0.9165 0.9533
O10 O 0.2730(4) 0.4227(5) 0.7426(4)
O11 O 0.0708(4) 0.4786(4) 0.8374(3)
C1 C -0.0235(5) 0.0299(4) 0.3948(4)
C2 C -0.0218(4) 0.1212(4) 0.4934(4)
C3 C 0.0013(6) 0.0884(4) 0.5958(4)
H4 H 0.0018 0.1487 0.6607
C4 C -0.0386(4) 0.2536(4) 0.4928(4)
C5 C 0.4110(4) 0.4492(5) 0.3825(4)
C6 C 0.3573(4) 0.4846(4) 0.4693(4)
C7 C 0.4475(5) 0.5352(5) 0.5851(4)
H5 H 0.4118 0.5593 0.6424
C8 C 0.2063(4) 0.4687(4) 0.4389(4)
C9 C 0.3641(4) 0.9884(5) 0.9951(4)
C10 C 0.4001(4) 0.8909(4) 0.9264(4)
C11 C 0.5355(5) 0.9028(5) 0.9319(4)
H6 H 0.5590 0.8372 0.8862
C12 C 0.2953(5) 0.7716(4) 0.8467(4)
C13 C 0.3635(15) 0.4033(15) 0.7860(10)
H7 H 0.4290 0.4771 0.8043
C14 C 0.5801(12) 0.3665(13) 0.8965(12)
H8 H 0.6105 0.4551 0.9056
H9 H 0.6282 0.3164 0.8571
H10 H 0.5993 0.3543 0.9719
C15 C 0.3730(14) 0.1994(13) 0.8044(12)
H11 H 0.2763 0.1835 0.7567
H12 H 0.3838 0.1806 0.8762
H13 H 0.4175 0.1461 0.7636
C16 C -0.0178(7) 0.3859(6) 0.8260(5)
H14 H -0.1028 0.3671 0.7638
C17 C -0.1084(11) 0.2089(9) 0.8763(9)
H15 H -0.1898 0.2055 0.8108
H16 H -0.1296 0.2209 0.9449
H17 H -0.0776 0.1305 0.8613
C18 C 0.1265(12) 0.3314(11) 0.9897(9)
H18 H 0.1903 0.4045 0.9956
H19 H 0.1650 0.2571 0.9774
H20 H 0.1101 0.3446 1.0607
N1 N 0.4334(7) 0.3271(7) 0.8287(6)
N2 N -0.0009(6) 0.3135(5) 0.8940(5)
Gd1A Gd -0.103040(18) -0.547825(17) 0.318318(17)
Gd1A_2 Gd -0.103040(18) 0.452175(17) 0.318318(17)
Gd1_2 Gd 0.103040(18) -0.452175(17) 0.681682(17)
Gd1A_3 Gd 0.896960(18) 0.452175(17) 0.318318(17)
Gd1_3 Gd 1.103040(18) 0.547825(17) 0.681682(17)
Gd1A_4 Gd 0.896960(18) 1.452175(17) 1.318318(17)
O1A O 0.0166(3) -0.3337(3) 0.4124(3)
O2A O 0.0731(3) -0.2745(3) 0.6057(3)
O2A_2 O 0.0731(3) 0.7255(3) 0.6057(3)
O2_2 O -0.0731(3) -0.7255(3) 0.3943(3)
O3A O 0.0450(6) -0.0528(4) 0.7083(3)
H1A H 0.0569 -0.1257 0.7032
O4A O 0.8410(3) 0.5063(3) 0.4824(3)
O4A_2 O -0.1590(3) 0.5063(3) 0.4824(3)
O4A_3 O -0.1590(3) -0.4937(3) 0.4824(3)
O4_2 O 0.1590(3) -0.5063(3) 0.5176(3)
O5A O 0.8744(3) 0.5700(3) 0.6683(3)
O5A_2 O -0.1256(3) 0.5700(3) 0.6683(3)
O5_2 O 0.1256(3) -0.5700(3) 0.3317(3)
O6A O 0.6702(4) 0.6015(5) 0.7330(3)
H2A H 0.7517 0.6046 0.7422
O7A O 0.8245(3) 1.2456(3) 1.1516(3)
O7A_2 O -0.1755(3) -0.7544(3) 0.1516(3)
O8A O 0.6707(3) 1.3101(4) 1.2193(3)
O8A_2 O -0.3293(3) -0.6899(4) 0.2193(3)
O9A O 0.7649(4) 1.0148(4) 1.0036(4)
H3A H 0.8160 1.0835 1.0467
O10A O -0.2730(4) -0.4227(5) 0.2574(4)
O11A O -0.0708(4) -0.4786(4) 0.1626(3)
C1A C 0.0235(5) -0.0299(4) 0.6052(4)
C2A C 0.0218(4) -0.1212(4) 0.5066(4)
C3A C -0.0013(6) -0.0884(4) 0.4042(4)
H4A H -0.0018 -0.1487 0.3393
C4A C 0.0386(4) -0.2536(4) 0.5072(4)
C5A C 0.5890(4) 0.5508(5) 0.6175(4)
C6A C 0.6427(4) 0.5154(4) 0.5307(4)
C7A C 0.5525(5) 0.4648(5) 0.4149(4)
H5A H 0.5882 0.4407 0.3576
C8A C 0.7937(4) 0.5313(4) 0.5611(4)
C9A C 0.6359(4) 1.0116(5) 1.0049(4)
C10A C 0.5999(4) 1.1091(4) 1.0736(4)
C11A C 0.4645(5) 1.0972(5) 1.0681(4)
H6A H 0.4410 1.1628 1.1138
C12A C 0.7047(5) 1.2284(4) 1.1533(4)
C13A C -0.3635(15) -0.4033(15) 0.2140(10)
H7A H -0.4290 -0.4771 0.1957
C14A C -0.5801(12) -0.3665(13) 0.1035(12)
H8A H -0.6105 -0.4551 0.0944
H9A H -0.6282 -0.3164 0.1429
H10A H -0.5993 -0.3543 0.0281
C15A C -0.3730(14) -0.1994(13) 0.1956(12)
H11A H -0.2763 -0.1835 0.2433
H12A H -0.3838 -0.1806 0.1238
H13A H -0.4175 -0.1461 0.2364
C16A C 0.0178(7) -0.3859(6) 0.1740(5)
H14A H 0.1028 -0.3671 0.2362
C17A C 0.1084(11) -0.2089(9) 0.1237(9)
H15A H 0.1898 -0.2055 0.1892
H16A H 0.1296 -0.2209 0.0551
H17A H 0.0776 -0.1305 0.1387
C18A C -0.1265(12) -0.3314(11) 0.0103(9)
H18A H -0.1903 -0.4045 0.0044
H19A H -0.1650 -0.2571 0.0226
H20A H -0.1101 -0.3446 -0.0607
N1A N -0.4334(7) -0.3271(7) 0.1713(6)
N2A N 0.0009(6) -0.3135(5) 0.1060(5)
O12 O 0.3843(12) 0.7714(10) 0.3604(9)
C19 C 0.453(3) 0.8051(17) 0.4514(16)
H21 H 0.5047 0.7432 0.4422
C20 C 0.483(4) 0.8772(19) 0.631(2)
H22 H 0.3834 0.8598 0.6035
H23 H 0.5191 0.9664 0.6717
H24 H 0.5180 0.8283 0.6832
C21 C 0.653(2) 0.8712(18) 0.586(3)
H25 H 0.6825 0.8481 0.5223
H26 H 0.6865 0.8227 0.6389
H27 H 0.6883 0.9605 0.6265
N3 N 0.5186(10) 0.8472(7) 0.5462(8)
loop_
_geom_bond_atom_site_label_1
_geom_bond_atom_site_label_2
_geom_bond_site_symmetry_1
_geom_bond_site_symmetry_2
Gd1 O1 1_555 1_555
O1 C4 1_555 1_555
O2 C4 1_555 1_555
O3 H1 1_555 1_555
O4 Gd1 1_555 1_555
O5 C8 1_555 1_555
O6 H2 1_555 1_555
O7 Gd1 1_555 1_555
O8 Gd1 1_555 1_555
O9 H3 1_555 1_555
O10 Gd1 1_555 1_555
O11 Gd1 1_555 1_555
O12 C19 1_555 1_555
C1 O3 1_555 1_555
C2 C1 1_555 1_555
C3 C2 1_555 1_555
H4 C3 1_555 1_555
C4 C2 1_555 1_555
C5 O6 1_555 1_555
C6 C5 1_555 1_555
C7 C6 1_555 1_555
H5 C7 1_555 1_555
C8 O4 1_555 1_555
C9 O9 1_555 1_555
C10 C9 1_555 1_555
C11 C10 1_555 1_555
H6 C11 1_555 1_555
C12 O7 1_555 1_555
C13 O10 1_555 1_555
H7 C13 1_555 1_555
C14 H8 1_555 1_555
H9 C14 1_555 1_555
H10 C14 1_555 1_555
C15 H11 1_555 1_555
H12 C15 1_555 1_555
H13 C15 1_555 1_555
C16 O11 1_555 1_555
H14 C16 1_555 1_555
C17 H15 1_555 1_555
H16 C17 1_555 1_555
H17 C17 1_555 1_555
C18 H18 1_555 1_555
H19 C18 1_555 1_555
H20 C18 1_555 1_555
C19 H21 1_555 1_555
C20 H22 1_555 1_555
H23 C20 1_555 1_555
H24 C20 1_555 1_555
C21 H25 1_555 1_555
H26 C21 1_555 1_555
H27 C21 1_555 1_555
N1 C13 1_555 1_555
N2 C16 1_555 1_555
N3 C19 1_555 1_555
Gd1A O1A 1_555 1_555
Gd1A_2 O2 1_555 1_555
Gd1_2 O2A 1_555 1_555
Gd1A_3 O4A 1_555 1_555
Gd1_3 O4A 1_555 1_555
Gd1A_4 O7A 1_555 1_555
O1A C4A 1_555 1_555
O2A C4A 1_555 1_555
O2A_2 Gd1 1_555 1_555
O2_2 Gd1A 1_555 1_555
O3A H1A 1_555 1_555
O4A C8A 1_555 1_555
O4A_2 Gd1 1_555 1_555
O4A_3 Gd1A 1_555 1_555
O4_2 Gd1A 1_555 1_555
O5A Gd1_3 1_555 1_555
O5A_2 Gd1 1_555 1_555
O5_2 Gd1A 1_555 1_555
O6A H2A 1_555 1_555
O7A C12A 1_555 1_555
O7A_2 Gd1A 1_555 1_555
O8A Gd1A_4 1_555 1_555
O8A_2 Gd1A 1_555 1_555
O9A H3A 1_555 1_555
O10A Gd1A 1_555 1_555
O11A Gd1A 1_555 1_555
C1A C3 1_555 1_555
C2A C1A 1_555 1_555
C3A C1 1_555 1_555
H4A C3A 1_555 1_555
C4A C2A 1_555 1_555
C5A C7 1_555 1_555
C6A C5A 1_555 1_555
C7A C5 1_555 1_555
H5A C7A 1_555 1_555
C8A O5A 1_555 1_555
C9A C11 1_555 1_555
C10A C9A 1_555 1_555
C11A C9 1_555 1_555
H6A C11A 1_555 1_555
C12A O8A 1_555 1_555
C13A O10A 1_555 1_555
H7A C13A 1_555 1_555
C14A H8A 1_555 1_555
H9A C14A 1_555 1_555
H10A C14A 1_555 1_555
C15A H11A 1_555 1_555
H12A C15A 1_555 1_555
H13A C15A 1_555 1_555
C16A O11A 1_555 1_555
H14A C16A 1_555 1_555
C17A H15A 1_555 1_555
H16A C17A 1_555 1_555
H17A C17A 1_555 1_555
C18A H18A 1_555 1_555
H19A C18A 1_555 1_555
H20A C18A 1_555 1_555
N1A C13A 1_555 1_555
N2A C16A 1_555 1_555
O4 Gd1A_2 1_555 1_555
O5 Gd1A_2 1_555 1_555
O8 C12 1_555 1_555
C6 C8 1_555 1_555
C10 C12 1_555 1_555
C14 N1 1_555 1_555
C15 N1 1_555 1_555
C17 N2 1_555 1_555
C18 N2 1_555 1_555
C20 N3 1_555 1_555
C21 N3 1_555 1_555
Gd1A_2 O4A_2 1_555 1_555
Gd1_2 O4A_3 1_555 1_555
Gd1_2 O4_2 1_555 1_555
O3A C1A 1_555 1_555
O6A C5A 1_555 1_555
O9A C9A 1_555 1_555
C2A C3A 1_555 1_555
C6A C7A 1_555 1_555
C6A C8A 1_555 1_555
C10A C11A 1_555 1_555
C10A C12A 1_555 1_555
C14A N1A 1_555 1_555
C15A N1A 1_555 1_555
C17A N2A 1_555 1_555
C18A N2A 1_555 1_555

#END
