
#######################################################################
#
#                 Cambridge Crystallographic Data Centre
#                                CCDC 
#
#######################################################################
#
# If this CIF has been generated from an entry in the Cambridge 
# Structural Database, then it will include bibliographic, chemical, 
# crystal, experimental, refinement or atomic coordinate data resulting 
# from the CCDC's data processing and validation procedures.
#
#######################################################################

data_ETEQOK
_symmetry_cell_setting           tetragonal
_symmetry_space_group_name_H-M   'I 41/a'
_symmetry_Int_Tables_number      88
_space_group_name_Hall           '-I 4ad'
loop_
_symmetry_equiv_pos_site_id
_symmetry_equiv_pos_as_xyz
1 x,y,z
2 1/2-x,-y,1/2+z
3 3/4-y,1/4+x,1/4+z
4 3/4+y,3/4-x,3/4+z
5 1/2+x,1/2+y,1/2+z
6 -x,1/2-y,z
7 1/4-y,3/4+x,3/4+z
8 1/4+y,1/4-x,1/4+z
9 -x,-y,-z
10 1/2+x,y,1/2-z
11 1/4+y,3/4-x,3/4-z
12 1/4-y,1/4+x,1/4-z
13 1/2-x,1/2-y,1/2-z
14 x,1/2+y,-z
15 3/4+y,1/4-x,1/4-z
16 3/4-y,3/4+x,3/4-z
_cell_length_a                   22.382(3)
_cell_length_b                   22.382(3)
_cell_length_c                   11.243(2)
_cell_angle_alpha                90
_cell_angle_beta                 90
_cell_angle_gamma                90
_cell_volume                     5632.22
loop_
_atom_site_label
_atom_site_type_symbol
_atom_site_fract_x
_atom_site_fract_y
_atom_site_fract_z
Zn1 Zn 0.771687(15) 0.753144(16) 0.12496(3)
N1 N 0.80317(11) 0.75461(11) -0.0430(2)
N2 N 0.83927(11) 0.72327(11) -0.2164(2)
O1 O 0.73980(12) 0.66775(11) 0.1278(2)
O2 O 0.70927(12) 0.66239(11) 0.31506(19)
O3 O 0.68619(10) 0.78266(12) 0.09591(19)
O4 O 0.65591(10) 0.77844(12) 0.28294(19)
C1 C 0.82666(13) 0.70964(14) -0.1019(2)
H1 H 0.8339 0.6719 -0.0681
C2 C 0.80022(12) 0.80161(13) -0.1238(2)
C3 C 0.78081(15) 0.86001(15) -0.1095(3)
H2 H 0.7667 0.8740 -0.0359
C4 C 0.78309(17) 0.89658(16) -0.2081(3)
H3 H 0.7705 0.9365 -0.2009
C5 C 0.80344(17) 0.87632(17) -0.3177(3)
H4 H 0.8036 0.9026 -0.3830
C6 C 0.82312(15) 0.81916(16) -0.3327(3)
H5 H 0.8367 0.8054 -0.4069
C7 C 0.82222(12) 0.78219(14) -0.2333(2)
C8 C 0.87081(14) 0.68519(15) -0.3028(3)
H6 H 0.8595 0.6974 -0.3835
H7 H 0.8581 0.6437 -0.2918
C9 C 0.93829(14) 0.68864(14) -0.2906(3)
H8 H 0.9562 0.6630 -0.3517
H9 H 0.9494 0.6720 -0.2130
C10 C 0.96587(13) 0.75057(14) -0.3011(3)
H10 H 0.9520 0.7752 -0.2345
H11 H 0.9519 0.7693 -0.3749
C11 C 0.70283(17) 0.57571(15) 0.1968(3)
H12 H 0.6607 0.5723 0.1779
H13 H 0.7113 0.5536 0.2691
H14 H 0.7263 0.5595 0.1319
C12 C 0.71865(14) 0.64032(14) 0.2146(3)
C13 C 0.58904(14) 0.81741(16) 0.1412(3)
H15 H 0.5570 0.7947 0.1777
H16 H 0.5847 0.8162 0.0554
H17 H 0.5872 0.8585 0.1681
C14 C 0.64849(14) 0.79061(14) 0.1760(3)
Zn1E Zn 1.228313(15) 0.746856(16) 0.12496(3)
Zn1I Zn 1.271687(15) 0.753144(16) 0.37504(3)
Zn1L Zn 0.728313(15) 0.746856(16) 0.37504(3)
N1E N 1.19683(11) 0.74539(11) -0.0430(2)
N2E N 1.16073(11) 0.77673(11) -0.2164(2)
O1E O 1.26020(12) 0.83225(11) 0.1278(2)
O2E O 1.29073(12) 0.83761(11) 0.31506(19)
O2I O 1.20927(12) 0.66239(11) 0.18494(19)
O2L O 0.79073(12) 0.83761(11) 0.18494(19)
O3E O 1.31381(10) 0.71734(12) 0.09591(19)
O4E O 1.34409(10) 0.72156(12) 0.28294(19)
O4I O 1.15591(10) 0.77844(12) 0.21706(19)
O4L O 0.84409(10) 0.72156(12) 0.21706(19)
C1E C 1.17334(13) 0.79036(14) -0.1019(2)
H1E H 1.1661 0.8281 -0.0681
C2E C 1.19978(12) 0.69839(13) -0.1238(2)
C3E C 1.21919(15) 0.63999(15) -0.1095(3)
H2E H 1.2333 0.6260 -0.0359
C4E C 1.21691(17) 0.60342(16) -0.2081(3)
H3E H 1.2295 0.5635 -0.2009
C5E C 1.19656(17) 0.62368(17) -0.3177(3)
H4E H 1.1964 0.5974 -0.3830
C6E C 1.17688(15) 0.68084(16) -0.3327(3)
H5E H 1.1633 0.6946 -0.4069
C7E C 1.17778(12) 0.71781(14) -0.2333(2)
C8E C 1.12919(14) 0.81481(15) -0.3028(3)
H6E H 1.1405 0.8026 -0.3835
H7E H 1.1419 0.8563 -0.2918
C9E C 1.06171(14) 0.81136(14) -0.2906(3)
H8E H 1.0438 0.8370 -0.3517
H9E H 1.0506 0.8280 -0.2130
C10E C 1.03413(13) 0.74943(14) -0.3011(3)
H10E H 1.0480 0.7248 -0.2345
H11E H 1.0481 0.7307 -0.3749
C11E C 1.29717(17) 0.92429(15) 0.1968(3)
H12E H 1.3393 0.9277 0.1779
H13E H 1.2887 0.9464 0.2691
H14E H 1.2737 0.9405 0.1319
C12E C 1.28135(14) 0.85968(14) 0.2146(3)
C13E C 1.41096(14) 0.68259(16) 0.1412(3)
H15E H 1.4430 0.7053 0.1777
H16E H 1.4153 0.6838 0.0554
H17E H 1.4128 0.6415 0.1681
C14E C 1.35151(14) 0.70939(14) 0.1760(3)
loop_
_geom_bond_atom_site_label_1
_geom_bond_atom_site_label_2
_geom_bond_site_symmetry_1
_geom_bond_site_symmetry_2
Zn1 N1 1_555 1_555
N1 C1 1_555 1_555
N2 C1 1_555 1_555
O1 Zn1 1_555 1_555
O2 C12 1_555 1_555
O3 Zn1 1_555 1_555
O4 C14 1_555 1_555
C1 H1 1_555 1_555
C2 N1 1_555 1_555
C3 C2 1_555 1_555
H2 C3 1_555 1_555
C4 C3 1_555 1_555
H3 C4 1_555 1_555
C5 C4 1_555 1_555
H4 C5 1_555 1_555
C6 C5 1_555 1_555
H5 C6 1_555 1_555
C7 N2 1_555 1_555
C8 N2 1_555 1_555
H6 C8 1_555 1_555
H7 C8 1_555 1_555
C9 C8 1_555 1_555
H8 C9 1_555 1_555
H9 C9 1_555 1_555
C10 C9 1_555 1_555
H10 C10 1_555 1_555
H11 C10 1_555 1_555
C11 H12 1_555 1_555
H13 C11 1_555 1_555
H14 C11 1_555 1_555
C12 O1 1_555 1_555
C13 H15 1_555 1_555
H16 C13 1_555 1_555
H17 C13 1_555 1_555
C14 O3 1_555 1_555
Zn1E N1E 1_555 1_555
Zn1I O2E 1_555 1_555
Zn1L O2 1_555 1_555
N1E C1E 1_555 1_555
N2E C1E 1_555 1_555
O1E Zn1E 1_555 1_555
O2E C12E 1_555 1_555
O2I Zn1E 1_555 1_555
O2L Zn1 1_555 1_555
O3E Zn1E 1_555 1_555
O4E Zn1I 1_555 1_555
O4I Zn1E 1_555 1_555
O4L Zn1 1_555 1_555
C1E H1E 1_555 1_555
C2E N1E 1_555 1_555
C3E C2E 1_555 1_555
H2E C3E 1_555 1_555
C4E C3E 1_555 1_555
H3E C4E 1_555 1_555
C5E C4E 1_555 1_555
H4E C5E 1_555 1_555
C6E C5E 1_555 1_555
H5E C6E 1_555 1_555
C7E N2E 1_555 1_555
C8E N2E 1_555 1_555
H6E C8E 1_555 1_555
H7E C8E 1_555 1_555
C9E C8E 1_555 1_555
H8E C9E 1_555 1_555
H9E C9E 1_555 1_555
C10E C10 1_555 1_555
H10E C10E 1_555 1_555
H11E C10E 1_555 1_555
C11E H12E 1_555 1_555
H13E C11E 1_555 1_555
H14E C11E 1_555 1_555
C12E O1E 1_555 1_555
C13E H15E 1_555 1_555
H16E C13E 1_555 1_555
H17E C13E 1_555 1_555
C14E O3E 1_555 1_555
O4 Zn1L 1_555 1_555
C2 C7 1_555 1_555
C6 C7 1_555 1_555
C11 C12 1_555 1_555
C13 C14 1_555 1_555
O4E C14E 1_555 1_555
C2E C7E 1_555 1_555
C6E C7E 1_555 1_555
C9E C10E 1_555 1_555
C11E C12E 1_555 1_555
C13E C14E 1_555 1_555

#END
