
#######################################################################
#
#                 Cambridge Crystallographic Data Centre
#                                CCDC 
#
#######################################################################
#
# If this CIF has been generated from an entry in the Cambridge 
# Structural Database, then it will include bibliographic, chemical, 
# crystal, experimental, refinement or atomic coordinate data resulting 
# from the CCDC's data processing and validation procedures.
#
#######################################################################

data_ETESEC
_symmetry_cell_setting           monoclinic
_symmetry_space_group_name_H-M   'P 21/n'
_symmetry_Int_Tables_number      14
_space_group_name_Hall           '-P 2yn'
loop_
_symmetry_equiv_pos_site_id
_symmetry_equiv_pos_as_xyz
1 x,y,z
2 1/2-x,1/2+y,1/2-z
3 -x,-y,-z
4 1/2+x,1/2-y,1/2+z
_cell_length_a                   8.4874(12)
_cell_length_b                   17.602(2)
_cell_length_c                   21.025(3)
_cell_angle_alpha                90
_cell_angle_beta                 100.048(2)
_cell_angle_gamma                90
_cell_volume                     3092.86
loop_
_atom_site_label
_atom_site_type_symbol
_atom_site_fract_x
_atom_site_fract_y
_atom_site_fract_z
C1 C 0.0785(4) 0.27736(18) 0.73133(13)
C2 C 0.0177(3) 0.30766(16) 0.66413(12)
C3 C -0.0491(3) 0.25785(16) 0.61537(13)
H1 H -0.0485 0.2061 0.6243
C4 C -0.1167(3) 0.28257(15) 0.55391(12)
C5 C -0.1195(3) 0.36084(16) 0.54155(12)
C6 C -0.0467(3) 0.41061(16) 0.58881(13)
H2 H -0.0441 0.4622 0.5796
C7 C 0.0224(3) 0.38476(16) 0.64976(13)
C8 C -0.1803(3) 0.22644(17) 0.50160(13)
C9 C -0.2073(4) 0.39560(16) 0.47924(13)
C10 C -0.3848(4) 0.39769(16) 0.47046(13)
C11 C -0.4734(4) 0.4187(2) 0.41184(15)
H3 H -0.4217 0.4306 0.3776
C12 C -0.6392(5) 0.4225(2) 0.40341(19)
H4 H -0.6974 0.4368 0.3636
C13 C -0.7173(5) 0.4055(2) 0.45274(19)
H5 H -0.8285 0.4073 0.4466
C14 C -0.6315(5) 0.3857(2) 0.51125(18)
H6 H -0.6842 0.3747 0.5454
C15 C -0.4667(4) 0.3819(2) 0.52027(15)
H7 H -0.4097 0.3686 0.5606
C16 C 0.0981(4) 0.44477(17) 0.69677(14)
C17 C 0.2744(4) 0.45200(17) 0.71033(13)
C18 C 0.3728(4) 0.4030(2) 0.68402(15)
H8 H 0.3282 0.3632 0.6578
C19 C 0.5367(4) 0.4125(2) 0.69633(18)
H9 H 0.6023 0.3796 0.6782
C20 C 0.6024(5) 0.4712(3) 0.73568(19)
H10 H 0.7128 0.4775 0.7445
C21 C 0.5070(5) 0.5199(2) 0.76170(18)
H11 H 0.5522 0.5596 0.7879
C22 C 0.3440(4) 0.51060(19) 0.74938(15)
H12 H 0.2795 0.5441 0.7675
C23 C 0.5268(4) 0.3087(2) 0.82341(17)
H13 H 0.5286 0.3599 0.8343
C24 C 0.4533(4) 0.1962(2) 0.81205(17)
H14 H 0.3980 0.1507 0.8127
C25 C 0.6714(5) 0.1515(2) 0.75325(19)
H15 H 0.6416 0.0999 0.7622
H16 H 0.7858 0.1567 0.7676
C26 C 0.6320(5) 0.1659(2) 0.68204(18)
H17 H 0.7061 0.1376 0.6608
H18 H 0.6472 0.2194 0.6741
C27 C 0.4634(5) 0.1439(3) 0.65250(19)
H19 H 0.4504 0.0897 0.6583
H20 H 0.3898 0.1698 0.6756
C28 C 0.4206(5) 0.1616(3) 0.5843(2)
H21 H 0.5039 0.1422 0.5625
H22 H 0.4189 0.2164 0.5795
C29 C 0.4397(4) 0.1036(2) 0.37622(17)
H23 H 0.4707 0.0686 0.3476
C30 C 0.4303(4) 0.2034(2) 0.42949(15)
H24 H 0.4500 0.2516 0.4473
C31 C 0.2042(5) 0.1676(3) 0.48634(18)
H25 H 0.1896 0.2215 0.4928
H26 H 0.1014 0.1463 0.4673
C32 C 0.2613(5) 0.1305(3) 0.55038(19)
H27 H 0.1819 0.1379 0.5778
H28 H 0.2717 0.0762 0.5439
Cu1 Cu 0.20973(4) 0.29481(2) 0.861135(15)
N1 N 0.4094(3) 0.26111(15) 0.83381(11)
N2 N 0.6379(4) 0.27671(18) 0.79670(16)
N3 N 0.5869(3) 0.20473(16) 0.78911(13)
N4 N 0.5108(3) 0.17175(15) 0.38822(11)
N5 N 0.3179(3) 0.15683(17) 0.44169(13)
N6 N 0.3235(4) 0.09090(17) 0.40821(15)
O1 O 0.1252(2) 0.32867(11) 0.77352(8)
O2 O 0.0812(3) 0.20913(13) 0.74192(11)
O3 O -0.1854(3) 0.15811(12) 0.51513(10)
O4 O -0.2207(2) 0.25525(11) 0.44587(8)
O5 O -0.1342(3) 0.42573(13) 0.44131(10)
O6 O 0.0121(3) 0.49030(14) 0.71755(12)
O7 O 0.3111(4) 0.42015(19) 0.89922(15)
H29 H 0.366(5) 0.452(2) 0.9001(19)
H31 H 0.318(6) 0.412(3) 0.935(2)
Cu1C Cu -0.29027(4) 0.20519(2) 0.361135(15)
Cu1C_2 Cu 0.70973(4) 0.20519(2) 0.361135(15)
N4C N 0.0108(3) 0.32825(15) 0.88822(11)
O4C O 0.2793(2) 0.24475(11) 0.94587(8)
O8 O 0.5759(4) 0.5235(2) 0.91876(19)
H30 H 0.655(6) 0.502(3) 0.916(2)
H32 H 0.614(9) 0.558(4) 0.945(3)
loop_
_geom_bond_atom_site_label_1
_geom_bond_atom_site_label_2
_geom_bond_site_symmetry_1
_geom_bond_site_symmetry_2
C1 C2 1_555 1_555
C2 C3 1_555 1_555
C3 H1 1_555 1_555
C4 C3 1_555 1_555
C5 C4 1_555 1_555
C6 C5 1_555 1_555
H2 C6 1_555 1_555
C7 C2 1_555 1_555
C8 C4 1_555 1_555
C9 C5 1_555 1_555
C10 C9 1_555 1_555
C11 C10 1_555 1_555
H3 C11 1_555 1_555
C12 C11 1_555 1_555
H4 C12 1_555 1_555
C13 C12 1_555 1_555
H5 C13 1_555 1_555
C14 C13 1_555 1_555
H6 C14 1_555 1_555
C15 C10 1_555 1_555
H7 C15 1_555 1_555
C16 C7 1_555 1_555
C17 C16 1_555 1_555
C18 C17 1_555 1_555
H8 C18 1_555 1_555
C19 C18 1_555 1_555
H9 C19 1_555 1_555
C20 C19 1_555 1_555
H10 C20 1_555 1_555
C21 C20 1_555 1_555
H11 C21 1_555 1_555
C22 C17 1_555 1_555
H12 C22 1_555 1_555
C23 H13 1_555 1_555
C24 H14 1_555 1_555
C25 H15 1_555 1_555
H16 C25 1_555 1_555
C26 C25 1_555 1_555
H17 C26 1_555 1_555
H18 C26 1_555 1_555
C27 C26 1_555 1_555
H19 C27 1_555 1_555
H20 C27 1_555 1_555
C28 C27 1_555 1_555
H21 C28 1_555 1_555
H22 C28 1_555 1_555
C29 H23 1_555 1_555
C30 H24 1_555 1_555
C31 H25 1_555 1_555
H26 C31 1_555 1_555
C32 C28 1_555 1_555
H27 C32 1_555 1_555
H28 C32 1_555 1_555
Cu1 N1 1_555 1_555
N1 C23 1_555 1_555
N2 C23 1_555 1_555
N3 C24 1_555 1_555
N4 C29 1_555 1_555
N5 C30 1_555 1_555
N6 C29 1_555 1_555
O1 C1 1_555 1_555
O2 C1 1_555 1_555
O3 C8 1_555 1_555
O4 C8 1_555 1_555
O5 C9 1_555 1_555
O6 C16 1_555 1_555
O7 Cu1 1_555 1_555
O8 H30 1_555 1_555
H29 O7 1_555 1_555
H31 O7 1_555 1_555
H32 O8 1_555 1_555
Cu1C O4 1_555 1_555
Cu1C_2 N4 1_555 1_555
N4C Cu1 1_555 1_555
O4C Cu1 1_555 1_555
C6 C7 1_555 1_555
C14 C15 1_555 1_555
C21 C22 1_555 1_555
C24 N1 1_555 1_555
C25 N3 1_555 1_555
C30 N4 1_555 1_555
C31 C32 1_555 1_555
C31 N5 1_555 1_555
Cu1 O1 1_555 1_555
N2 N3 1_555 1_555
N5 N6 1_555 1_555

#END
