
#######################################################################
#
#                 Cambridge Crystallographic Data Centre
#                                CCDC 
#
#######################################################################
#
# If this CIF has been generated from an entry in the Cambridge 
# Structural Database, then it will include bibliographic, chemical, 
# crystal, experimental, refinement or atomic coordinate data resulting 
# from the CCDC's data processing and validation procedures.
#
#######################################################################

data_ETETON
_symmetry_cell_setting           triclinic
_symmetry_space_group_name_H-M   'P -1'
_symmetry_Int_Tables_number      2
_space_group_name_Hall           '-P 1'
loop_
_symmetry_equiv_pos_site_id
_symmetry_equiv_pos_as_xyz
1 x,y,z
2 -x,-y,-z
_cell_length_a                   7.5940(2)
_cell_length_b                   10.6229(4)
_cell_length_c                   16.9280(5)
_cell_angle_alpha                91.426(3)
_cell_angle_beta                 91.085(3)
_cell_angle_gamma                100.728(3)
_cell_volume                     1340.92
loop_
_atom_site_label
_atom_site_type_symbol
_atom_site_fract_x
_atom_site_fract_y
_atom_site_fract_z
C1 C 1.3241(16) 0.5862(12) -0.0719(8)
C2 C 1.2333(16) 0.5834(13) 0.5714(7)
C3 C 1.2046(16) 0.4629(13) -0.0585(7)
C4 C 1.2832(15) 0.4581(12) 0.5597(7)
C5 C 1.1895(17) 0.4115(11) 0.0138(7)
C6 C 1.2664(16) 0.3922(12) 0.4874(7)
C7 C 1.2882(16) 0.4689(12) 0.0835(7)
C8 C 1.1966(16) 0.4465(13) 0.4167(8)
C9 C 1.3917(16) 0.5963(12) 0.0690(8)
C10 C 1.1616(17) 0.5778(14) 0.4296(7)
C11 C 1.4082(16) 0.6490(12) -0.0017(8)
C12 C 1.1798(16) 0.6374(12) 0.5008(8)
C13 C 1.1030(19) 0.0295(13) 0.1696(9)
C14 C 0.647(2) 0.0227(13) 0.3125(8)
C15 C 1.241(2) -0.0491(15) 0.1516(10)
C16 C 0.806(2) -0.0350(14) 0.3316(11)
C17 C 0.9193(18) -0.0155(13) 0.1329(8)
C18 C 0.477(2) -0.0338(15) 0.3533(9)
Br1 Br 1.06562(17) 0.39026(13) -0.14703(8)
Br2 Br 1.38604(18) 0.39384(13) 0.64893(8)
Br3 Br 1.02160(17) 0.26007(12) 0.03145(8)
Br4 Br 1.34115(18) 0.23588(13) 0.47124(8)
Br5 Br 1.48751(18) 0.68800(13) 0.16391(8)
Br6 Br 1.10930(18) 0.65422(14) 0.33544(8)
Br7 Br 1.52320(18) 0.82181(13) -0.01554(8)
Br8 Br 1.15297(18) 0.81081(13) 0.51220(8)
O1 O 1.3370(12) 0.6339(9) -0.1403(5)
O2 O 1.2500(12) 0.6392(9) 0.6380(5)
O3 O 1.2723(13) 0.4203(9) 0.1510(5)
O4 O 1.1813(12) 0.3871(10) 0.3523(6)
O5 O 1.1363(13) 0.1263(9) 0.2128(6)
O6 O 0.6535(13) 0.1120(10) 0.2696(6)
K1 K 0.9444(3) 0.3239(2) 0.23472(15)
K2 K 1.5564(3) 0.6914(3) 0.73915(15)
H1 H 1.2017 -0.1347 0.1694
H2 H 1.2586 -0.0516 0.0956
H3 H 1.352 -0.0118 0.1782
H4 H 0.907 0.0068 0.3027
H5 H 0.7807 -0.1247 0.3172
H6 H 0.8333 -0.0246 0.3873
H7 H 0.9274 -0.0168 0.0764
H8 H 0.8716 -0.1002 0.1501
H9 H 0.8418 0.0418 0.1489
H10 H 0.4452 -0.1235 0.3395
H11 H 0.496 -0.023 0.4095
H12 H 0.3827 0.0089 0.3368
Br1A Br 0.93438(17) 0.60974(13) 0.14703(8)
O1A O 0.6630(12) 0.3661(9) 0.1403(5)
O1_2 O 1.3370(12) 0.6339(9) 0.8597(5)
O2A O 0.7500(12) 0.3608(9) 0.3620(5)
O3A O 1.7277(13) 0.5797(9) 0.8490(5)
O4A O 1.8187(12) 0.6129(10) 0.6477(6)
O5A O 1.8637(13) 0.8737(9) 0.7872(6)
O6A O 1.3465(13) 0.8880(10) 0.7304(6)
K1A K 1.0556(3) 0.6761(2) -0.23472(15)
K1A_2 K 1.0556(3) 0.6761(2) 0.76528(15)
K2_2 K 1.5564(3) 0.6914(3) -0.26085(15)
K2A K 1.4436(3) 0.3086(3) 0.26085(15)
K2A_2 K 0.4436(3) 0.3086(3) 0.26085(15)
loop_
_geom_bond_atom_site_label_1
_geom_bond_atom_site_label_2
_geom_bond_site_symmetry_1
_geom_bond_site_symmetry_2
C1 C3 1_555 1_555
C2 C4 1_555 1_555
C3 C5 1_555 1_555
C4 C6 1_555 1_555
C5 C7 1_555 1_555
C6 C8 1_555 1_555
C7 C9 1_555 1_555
C8 C10 1_555 1_555
C9 C11 1_555 1_555
C10 C12 1_555 1_555
C11 C1 1_555 1_555
C12 C2 1_555 1_555
C13 C15 1_555 1_555
C14 C16 1_555 1_555
C15 H1 1_555 1_555
C16 H4 1_555 1_555
C17 C13 1_555 1_555
C18 C14 1_555 1_555
Br1 C3 1_555 1_555
Br2 C4 1_555 1_555
Br3 C5 1_555 1_555
Br4 C6 1_555 1_555
Br5 C9 1_555 1_555
Br6 C10 1_555 1_555
Br7 C11 1_555 1_555
Br8 C12 1_555 1_555
O1 C1 1_555 1_555
O2 C2 1_555 1_555
O3 C7 1_555 1_555
O4 C8 1_555 1_555
O5 C13 1_555 1_555
O6 C14 1_555 1_555
K1 Br3 1_555 1_555
K2 Br2 1_555 1_555
H2 C15 1_555 1_555
H3 C15 1_555 1_555
H5 C16 1_555 1_555
H6 C16 1_555 1_555
H7 C17 1_555 1_555
H8 C17 1_555 1_555
H9 C17 1_555 1_555
H10 C18 1_555 1_555
H11 C18 1_555 1_555
H12 C18 1_555 1_555
Br1A K1 1_555 1_555
O1A K1 1_555 1_555
O1_2 K2 1_555 1_555
O2A K1 1_555 1_555
O3A K2 1_555 1_555
O4A K2 1_555 1_555
O5A K2 1_555 1_555
O6A K2 1_555 1_555
K1A Br1 1_555 1_555
K1A_2 O2 1_555 1_555
K2_2 O1 1_555 1_555
K2A O3 1_555 1_555
K2A_2 O6 1_555 1_555
O1 K1A 1_555 1_555
O2 K2 1_555 1_555
O3 K1 1_555 1_555
O4 K1 1_555 1_555
O4 K2A 1_555 1_555
O5 K1 1_555 1_555
O5 K2A 1_555 1_555
O6 K1 1_555 1_555
O1A K2A_2 1_555 1_555
O1_2 K1A_2 1_555 1_555
O2A K2A_2 1_555 1_555
O6A K1A_2 1_555 1_555

#END
