
#######################################################################
#
#                 Cambridge Crystallographic Data Centre
#                                CCDC 
#
#######################################################################
#
# If this CIF has been generated from an entry in the Cambridge 
# Structural Database, then it will include bibliographic, chemical, 
# crystal, experimental, refinement or atomic coordinate data resulting 
# from the CCDC's data processing and validation procedures.
#
#######################################################################

data_ETEWOQ
_symmetry_cell_setting           triclinic
_symmetry_space_group_name_H-M   'P -1'
_symmetry_Int_Tables_number      2
_space_group_name_Hall           '-P 1'
loop_
_symmetry_equiv_pos_site_id
_symmetry_equiv_pos_as_xyz
1 x,y,z
2 -x,-y,-z
_cell_length_a                   9.1247(19)
_cell_length_b                   12.1808(19)
_cell_length_c                   13.519(4)
_cell_angle_alpha                82.922(3)
_cell_angle_beta                 88.411(2)
_cell_angle_gamma                84.781(2)
_cell_volume                     1484.74
loop_
_atom_site_label
_atom_site_type_symbol
_atom_site_fract_x
_atom_site_fract_y
_atom_site_fract_z
Co1 Co 0.66690(4) -0.05788(2) 0.90982(2)
C1 C 0.4481(3) -0.0129(2) 0.72561(19)
H1 H 0.3850 -0.0634 0.7558
C2 C 0.6226(3) 0.0857(2) 0.70338(19)
H2 H 0.7073 0.1205 0.7118
C3 C 0.5721(3) 0.1690(2) 0.5270(2)
H3 H 0.5791 0.1204 0.4751
H4 H 0.6668 0.1986 0.5302
C4 C 0.4576(3) 0.2641(2) 0.49809(18)
C5 C 0.4258(4) 0.3468(2) 0.5586(2)
H5 H 0.4655 0.3394 0.6219
C6 C 0.3351(4) 0.4409(2) 0.52563(19)
H6 H 0.3147 0.4960 0.5672
C7 C 0.2738(3) 0.4544(2) 0.43093(17)
C8 C 0.3021(3) 0.3688(2) 0.37264(18)
H7 H 0.2600 0.3749 0.3101
C9 C 0.3916(3) 0.2746(2) 0.40581(19)
H8 H 0.4078 0.2176 0.3658
C10 C 0.1851(3) 0.5597(2) 0.39393(17)
C11 C 0.0902(3) 0.6157(2) 0.45683(18)
H9 H 0.0809 0.5864 0.5233
C12 C 0.0089(3) 0.7143(2) 0.42268(18)
H10 H -0.0542 0.7498 0.4663
C13 C 0.0211(3) 0.7600(2) 0.32431(18)
C14 C 0.1149(3) 0.7052(2) 0.26163(19)
H11 H 0.1239 0.7350 0.1953
C15 C 0.1962(3) 0.6067(2) 0.29497(19)
H12 H 0.2588 0.5716 0.2509
C16 C -0.0659(3) 0.8677(2) 0.28672(19)
H13 H -0.1326 0.8905 0.3390
H14 H 0.0009 0.9250 0.2700
C17 C -0.1521(3) 0.9142(2) 0.10855(18)
H15 H -0.0950 0.9728 0.0888
C18 C -0.3028(4) 0.7927(2) 0.1126(2)
H16 H -0.3744 0.7505 0.0929
C19 C 0.3854(3) -0.16108(19) 1.00815(17)
C20 C 0.3571(3) -0.28330(19) 1.01938(18)
H17 H 0.2904 -0.2972 1.0757
H18 H 0.4494 -0.3271 1.0354
C21 C 0.2923(3) -0.32545(18) 0.92857(17)
C22 C 0.1703(3) -0.24161(18) 0.88095(17)
H19 H 0.0945 -0.2274 0.9307
H20 H 0.2112 -0.1720 0.8581
C23 C 0.1015(3) -0.28514(18) 0.79278(17)
C24 C 0.2247(3) -0.3102(2) 0.71663(18)
H21 H 0.1831 -0.3376 0.6602
H22 H 0.2689 -0.2422 0.6925
C25 C 0.3430(3) -0.3962(2) 0.76288(19)
H23 H 0.4195 -0.4113 0.7128
C26 C 0.4105(3) -0.3508(2) 0.84996(18)
H24 H 0.4563 -0.2836 0.8257
H25 H 0.4861 -0.4050 0.8799
C27 C 0.2214(3) -0.43413(19) 0.96528(19)
H26 H 0.2954 -0.4887 0.9965
H27 H 0.1453 -0.4197 1.0148
C28 C 0.0342(3) -0.3944(2) 0.8307(2)
H28 H -0.0428 -0.3806 0.8797
H29 H -0.0093 -0.4232 0.7757
C29 C 0.2731(3) -0.5031(2) 0.8007(2)
H30 H 0.2307 -0.5321 0.7453
H31 H 0.3478 -0.5583 0.8299
C30 C 0.1541(3) -0.4803(2) 0.8780(2)
H32 H 0.1105 -0.5494 0.9024
C31 C -0.0125(3) -0.1978(2) 0.74011(18)
H33 H 0.0390 -0.1368 0.7072
H34 H -0.0589 -0.2311 0.6888
C32 C -0.1318(3) -0.1510(2) 0.80708(18)
N1 N 0.5673(2) 0.01268(16) 0.77081(15)
N2 N 0.4277(3) 0.03909(19) 0.63504(16)
N3 N 0.5426(2) 0.10302(16) 0.62262(15)
N4 N -0.2460(3) 0.87691(16) 0.05180(15)
N5 N -0.2460(3) 0.7776(2) 0.2014(2)
N6 N -0.1504(2) 0.85577(16) 0.19865(15)
O1 O 0.4757(2) -0.12662(16) 0.94323(13)
O2 O 0.3139(2) -0.10287(14) 1.06591(13)
O3 O -0.2428(2) -0.20163(15) 0.83128(15)
O4 O -0.1187(2) -0.05883(14) 0.83790(14)
Co1_2 Co -0.33310(4) 0.94212(2) -0.09018(2)
Co1A Co 0.33310(4) 0.05788(2) 1.09018(2)
Co1_3 Co -0.33310(4) -0.05788(2) 0.90982(2)
N4_2 N 0.7540(3) -0.12309(16) 1.05180(15)
O2A O 0.6861(2) 0.10287(14) 0.93409(13)
O3_2 O 0.7572(2) -0.20163(15) 0.83128(15)
O4_2 O 0.8813(2) -0.05883(14) 0.83790(14)
O5 O 0.1702(16) 0.0266(12) 0.4765(10)
H35 H 0.1099 -0.0231 0.4830
H36 H 0.1231 0.0903 0.4740
loop_
_geom_bond_atom_site_label_1
_geom_bond_atom_site_label_2
_geom_bond_site_symmetry_1
_geom_bond_site_symmetry_2
Co1 N1 1_555 1_555
C1 H1 1_555 1_555
C2 H2 1_555 1_555
C3 H3 1_555 1_555
H4 C3 1_555 1_555
C4 C3 1_555 1_555
C5 C4 1_555 1_555
H5 C5 1_555 1_555
C6 C5 1_555 1_555
H6 C6 1_555 1_555
C7 C6 1_555 1_555
C8 C7 1_555 1_555
H7 C8 1_555 1_555
C9 C4 1_555 1_555
H8 C9 1_555 1_555
C10 C7 1_555 1_555
C11 C10 1_555 1_555
H9 C11 1_555 1_555
C12 C11 1_555 1_555
H10 C12 1_555 1_555
C13 C12 1_555 1_555
C14 C13 1_555 1_555
H11 C14 1_555 1_555
C15 C10 1_555 1_555
H12 C15 1_555 1_555
C16 C13 1_555 1_555
H13 C16 1_555 1_555
H14 C16 1_555 1_555
C17 H15 1_555 1_555
C18 H16 1_555 1_555
C19 C20 1_555 1_555
C20 H17 1_555 1_555
H18 C20 1_555 1_555
C21 C20 1_555 1_555
C22 C21 1_555 1_555
H19 C22 1_555 1_555
H20 C22 1_555 1_555
C23 C22 1_555 1_555
C24 C23 1_555 1_555
H21 C24 1_555 1_555
H22 C24 1_555 1_555
C25 C24 1_555 1_555
H23 C25 1_555 1_555
C26 C21 1_555 1_555
H24 C26 1_555 1_555
H25 C26 1_555 1_555
C27 C21 1_555 1_555
H26 C27 1_555 1_555
H27 C27 1_555 1_555
C28 C23 1_555 1_555
H28 C28 1_555 1_555
H29 C28 1_555 1_555
C29 C25 1_555 1_555
H30 C29 1_555 1_555
H31 C29 1_555 1_555
C30 C27 1_555 1_555
H32 C30 1_555 1_555
C31 C23 1_555 1_555
H33 C31 1_555 1_555
H34 C31 1_555 1_555
C32 C31 1_555 1_555
N1 C1 1_555 1_555
N2 C1 1_555 1_555
N3 C2 1_555 1_555
N4 C17 1_555 1_555
N5 C18 1_555 1_555
N6 C16 1_555 1_555
O1 Co1 1_555 1_555
O2 C19 1_555 1_555
O3 C32 1_555 1_555
O4 C32 1_555 1_555
O5 H35 1_555 1_555
H36 O5 1_555 1_555
Co1_2 N4 1_555 1_555
Co1A O2 1_555 1_555
Co1_3 O3 1_555 1_555
N4_2 Co1 1_555 1_555
O2A Co1 1_555 1_555
O3_2 Co1 1_555 1_555
O4_2 Co1 1_555 1_555
C2 N1 1_555 1_555
C3 N3 1_555 1_555
C8 C9 1_555 1_555
C14 C15 1_555 1_555
C17 N6 1_555 1_555
C18 N4 1_555 1_555
C19 O1 1_555 1_555
C25 C26 1_555 1_555
C28 C30 1_555 1_555
C29 C30 1_555 1_555
N2 N3 1_555 1_555
N5 N6 1_555 1_555
O4 Co1_3 1_555 1_555

#END
