
#######################################################################
#
#                 Cambridge Crystallographic Data Centre
#                                CCDC 
#
#######################################################################
#
# If this CIF has been generated from an entry in the Cambridge 
# Structural Database, then it will include bibliographic, chemical, 
# crystal, experimental, refinement or atomic coordinate data resulting 
# from the CCDC's data processing and validation procedures.
#
#######################################################################

data_ETEWIK
_symmetry_cell_setting           monoclinic
_symmetry_space_group_name_H-M   'C 2/c'
_symmetry_Int_Tables_number      15
_space_group_name_Hall           '-C 2yn'
loop_
_symmetry_equiv_pos_site_id
_symmetry_equiv_pos_as_xyz
1 x,y,z
2 -x,y,1/2-z
3 1/2+x,1/2+y,z
4 1/2-x,1/2+y,1/2-z
5 -x,-y,-z
6 x,-y,1/2+z
7 1/2-x,1/2-y,-z
8 1/2+x,1/2-y,1/2+z
_cell_length_a                   34.981(5)
_cell_length_b                   8.4913(13)
_cell_length_c                   18.479(3)
_cell_angle_alpha                90
_cell_angle_beta                 121.777(2)
_cell_angle_gamma                90
_cell_volume                     4666.13
loop_
_atom_site_label
_atom_site_type_symbol
_atom_site_fract_x
_atom_site_fract_y
_atom_site_fract_z
Zn1 Zn 0.226257(15) -0.30499(6) 0.20523(3)
C1 C 0.27235(15) -0.1270(6) 0.1262(3)
H1 H 0.2614 -0.0312 0.1322
C2 C 0.28569(15) -0.3706(6) 0.1324(3)
H2 H 0.2869 -0.4784 0.1422
C3 C 0.33093(17) -0.3670(9) 0.0622(3)
H3 H 0.3230 -0.3116 0.0102
H4 H 0.3221 -0.4762 0.0474
C4 C 0.38097(17) -0.3597(8) 0.1217(3)
C5 C 0.40425(17) -0.2232(8) 0.1282(3)
H5 H 0.3887 -0.1330 0.0991
C6 C 0.45122(17) -0.2212(7) 0.1788(4)
H6 H 0.4666 -0.1298 0.1819
C7 C 0.47508(15) -0.3522(7) 0.2240(3)
C8 C 0.45157(16) -0.4845(7) 0.2188(3)
H7 H 0.4670 -0.5733 0.2500
C9 C 0.40479(18) -0.4886(8) 0.1675(3)
H8 H 0.3896 -0.5806 0.1644
C10 C 0.14194(16) -0.1948(5) 0.1421(4)
C11 C 0.09633(14) -0.1348(6) 0.0738(3)
H9 H 0.0738 -0.1773 0.0839
H10 H 0.0898 -0.1738 0.0191
C12 C 0.09252(13) 0.0455(5) 0.0697(3)
C13 C 0.08937(15) 0.1102(6) 0.1442(3)
H11 H 0.0633 0.0653 0.1423
H12 H 0.1160 0.0797 0.1977
C14 C 0.08538(17) 0.2903(6) 0.1396(3)
H13 H 0.0837 0.3290 0.1878
C15 C 0.12663(17) 0.3602(6) 0.1438(3)
H14 H 0.1535 0.3301 0.1969
H15 H 0.1246 0.4742 0.1420
C16 C 0.12980(14) 0.3008(5) 0.0687(3)
C17 C 0.13336(14) 0.1204(5) 0.0738(3)
H16 H 0.1358 0.0811 0.0270
H17 H 0.1604 0.0900 0.1266
C18 C 0.04996(14) 0.0981(6) -0.0146(3)
H18 H 0.0518 0.0610 -0.0623
H19 H 0.0236 0.0513 -0.0188
C19 C 0.04267(19) 0.3387(7) 0.0562(4)
H20 H 0.0400 0.4525 0.0529
H21 H 0.0164 0.2957 0.0542
C20 C 0.04538(16) 0.2755(7) -0.0187(3)
H22 H 0.0182 0.3059 -0.0724
C21 C 0.08701(15) 0.3479(7) -0.0143(3)
H23 H 0.0887 0.3115 -0.0623
H24 H 0.0843 0.4617 -0.0175
C22 C 0.17135(15) 0.3760(6) 0.0699(3)
H25 H 0.1741 0.3295 0.0249
H26 H 0.1663 0.4881 0.0588
C23 C 0.21430(15) 0.3509(5) 0.1537(3)
N1 N 0.26453(12) -0.2676(5) 0.1521(2)
N2 N 0.30488(13) -0.2985(5) 0.0970(2)
N3 N 0.29663(15) -0.1408(6) 0.0922(3)
O1 O 0.16840(11) -0.2296(4) 0.1162(2)
O2 O 0.15299(15) -0.2070(5) 0.2165(3)
O3 O 0.23088(10) 0.4602(4) 0.20922(18)
O4 O 0.23292(10) 0.2181(3) 0.17104(19)
Zn1A Zn 0.773743(15) -0.30499(6) 0.29477(3)
Zn1_2 Zn 0.226257(15) 0.69501(6) 0.20523(3)
Zn1A_2 Zn 0.773743(15) 0.69501(6) 0.29477(3)
Zn1B Zn 0.726257(15) 0.19501(6) 0.20523(3)
Zn1C Zn 0.273743(15) 0.19501(6) 0.29477(3)
C1A C 0.72765(15) -0.1270(6) 0.3738(3)
H1A H 0.7386 -0.0312 0.3678
C2A C 0.71431(15) -0.3706(6) 0.3676(3)
H2A H 0.7131 -0.4784 0.3578
C3A C 0.66907(17) -0.3670(9) 0.4378(3)
H3A H 0.6770 -0.3116 0.4898
H4A H 0.6779 -0.4762 0.4526
C4A C 0.61903(17) -0.3597(8) 0.3783(3)
C5A C 0.59575(17) -0.2232(8) 0.3718(3)
H5A H 0.6113 -0.1330 0.4009
C6A C 0.54878(17) -0.2212(7) 0.3212(4)
H6A H 0.5334 -0.1298 0.3181
C7A C 0.52492(15) -0.3522(7) 0.2760(3)
C8A C 0.54843(16) -0.4845(7) 0.2812(3)
H7A H 0.5330 -0.5733 0.2500
C9A C 0.59521(18) -0.4886(8) 0.3325(3)
H8A H 0.6104 -0.5806 0.3356
C10A C 0.85806(16) -0.1948(5) 0.3579(4)
C11A C 0.90367(14) -0.1348(6) 0.4262(3)
H9A H 0.9262 -0.1773 0.4161
H10A H 0.9102 -0.1738 0.4809
C12A C 0.90748(13) 0.0455(5) 0.4303(3)
C13A C 0.91063(15) 0.1102(6) 0.3558(3)
H11A H 0.9367 0.0653 0.3577
H12A H 0.8840 0.0797 0.3023
C14A C 0.91462(17) 0.2903(6) 0.3604(3)
H13A H 0.9163 0.3290 0.3122
C15A C 0.87337(17) 0.3602(6) 0.3562(3)
H14A H 0.8465 0.3301 0.3031
H15A H 0.8754 0.4742 0.3580
C16A C 0.87020(14) 0.3008(5) 0.4313(3)
C17A C 0.86664(14) 0.1204(5) 0.4262(3)
H16A H 0.8642 0.0811 0.4730
H17A H 0.8396 0.0900 0.3734
C18A C 0.95004(14) 0.0981(6) 0.5146(3)
H18A H 0.9482 0.0610 0.5623
H19A H 0.9764 0.0513 0.5188
C19A C 0.95733(19) 0.3387(7) 0.4438(4)
H20A H 0.9600 0.4525 0.4471
H21A H 0.9836 0.2957 0.4458
C20A C 0.95462(16) 0.2755(7) 0.5187(3)
H22A H 0.9818 0.3059 0.5724
C21A C 0.91299(15) 0.3479(7) 0.5143(3)
H23A H 0.9113 0.3115 0.5623
H24A H 0.9157 0.4617 0.5175
C22A C 0.82865(15) 0.3760(6) 0.4301(3)
H25A H 0.8259 0.3295 0.4751
H26A H 0.8337 0.4881 0.4412
C23A C 0.78570(15) 0.3509(5) 0.3463(3)
N1A N 0.73547(12) -0.2676(5) 0.3479(2)
N2A N 0.69512(13) -0.2985(5) 0.4030(2)
N3A N 0.70337(15) -0.1408(6) 0.4078(3)
O1A O 0.83160(11) -0.2296(4) 0.3838(2)
O2A O 0.84701(15) -0.2070(5) 0.2835(3)
O3A O 0.76912(10) 0.4602(4) 0.29078(18)
O3_2 O 0.23088(10) -0.5398(4) 0.20922(18)
O3A_2 O 0.76912(10) -0.5398(4) 0.29078(18)
O4A O 0.76708(10) 0.2181(3) 0.32896(19)
O4B O 0.73292(10) -0.2819(3) 0.17104(19)
O4C O 0.26708(10) -0.2819(3) 0.32896(19)
O5 O 0.1758(4) 0.7162(11) 0.3794(6)
loop_
_geom_bond_atom_site_label_1
_geom_bond_atom_site_label_2
_geom_bond_site_symmetry_1
_geom_bond_site_symmetry_2
Zn1 N1 1_555 1_555
C1 H1 1_555 1_555
C2 H2 1_555 1_555
C3 H3 1_555 1_555
H4 C3 1_555 1_555
C4 C3 1_555 1_555
C5 C4 1_555 1_555
H5 C5 1_555 1_555
C6 C5 1_555 1_555
H6 C6 1_555 1_555
C7 C6 1_555 1_555
C8 C7 1_555 1_555
H7 C8 1_555 1_555
C9 C4 1_555 1_555
H8 C9 1_555 1_555
C10 C11 1_555 1_555
C11 H9 1_555 1_555
H10 C11 1_555 1_555
C12 C11 1_555 1_555
C13 C12 1_555 1_555
H11 C13 1_555 1_555
H12 C13 1_555 1_555
C14 C13 1_555 1_555
H13 C14 1_555 1_555
C15 C14 1_555 1_555
H14 C15 1_555 1_555
H15 C15 1_555 1_555
C16 C15 1_555 1_555
C17 C12 1_555 1_555
H16 C17 1_555 1_555
H17 C17 1_555 1_555
C18 C12 1_555 1_555
H18 C18 1_555 1_555
H19 C18 1_555 1_555
C19 C14 1_555 1_555
H20 C19 1_555 1_555
H21 C19 1_555 1_555
C20 C18 1_555 1_555
H22 C20 1_555 1_555
C21 C16 1_555 1_555
H23 C21 1_555 1_555
H24 C21 1_555 1_555
C22 C16 1_555 1_555
H25 C22 1_555 1_555
H26 C22 1_555 1_555
C23 C22 1_555 1_555
N1 C1 1_555 1_555
N2 C2 1_555 1_555
N3 C1 1_555 1_555
O1 Zn1 1_555 1_555
O2 C10 1_555 1_555
O3 C23 1_555 1_555
O4 C23 1_555 1_555
Zn1A N1A 1_555 1_555
Zn1_2 O3 1_555 1_555
Zn1A_2 O3A 1_555 1_555
Zn1B O4A 1_555 1_555
Zn1C O4 1_555 1_555
C1A H1A 1_555 1_555
C2A H2A 1_555 1_555
C3A H3A 1_555 1_555
H4A C3A 1_555 1_555
C4A C3A 1_555 1_555
C5A C4A 1_555 1_555
H5A C5A 1_555 1_555
C6A C5A 1_555 1_555
H6A C6A 1_555 1_555
C7A C7 1_555 1_555
C8A C7A 1_555 1_555
H7A C8A 1_555 1_555
C9A C4A 1_555 1_555
H8A C9A 1_555 1_555
C10A C11A 1_555 1_555
C11A H9A 1_555 1_555
H10A C11A 1_555 1_555
C12A C11A 1_555 1_555
C13A C12A 1_555 1_555
H11A C13A 1_555 1_555
H12A C13A 1_555 1_555
C14A C13A 1_555 1_555
H13A C14A 1_555 1_555
C15A C14A 1_555 1_555
H14A C15A 1_555 1_555
H15A C15A 1_555 1_555
C16A C15A 1_555 1_555
C17A C12A 1_555 1_555
H16A C17A 1_555 1_555
H17A C17A 1_555 1_555
C18A C12A 1_555 1_555
H18A C18A 1_555 1_555
H19A C18A 1_555 1_555
C19A C14A 1_555 1_555
H20A C19A 1_555 1_555
H21A C19A 1_555 1_555
C20A C18A 1_555 1_555
H22A C20A 1_555 1_555
C21A C16A 1_555 1_555
H23A C21A 1_555 1_555
H24A C21A 1_555 1_555
C22A C16A 1_555 1_555
H25A C22A 1_555 1_555
H26A C22A 1_555 1_555
C23A C22A 1_555 1_555
N1A C1A 1_555 1_555
N2A C2A 1_555 1_555
N3A C1A 1_555 1_555
O1A Zn1A 1_555 1_555
O2A C10A 1_555 1_555
O3A C23A 1_555 1_555
O3_2 Zn1 1_555 1_555
O3A_2 Zn1A 1_555 1_555
O4A C23A 1_555 1_555
O4B Zn1A 1_555 1_555
O4C Zn1 1_555 1_555
C2 N1 1_555 1_555
C3 N2 1_555 1_555
C8 C9 1_555 1_555
C10 O1 1_555 1_555
C16 C17 1_555 1_555
C19 C20 1_555 1_555
C20 C21 1_555 1_555
N2 N3 1_555 1_555
C2A N1A 1_555 1_555
C3A N2A 1_555 1_555
C6A C7A 1_555 1_555
C8A C9A 1_555 1_555
C10A O1A 1_555 1_555
C16A C17A 1_555 1_555
C19A C20A 1_555 1_555
C20A C21A 1_555 1_555
N2A N3A 1_555 1_555

#END
