
#######################################################################
#
#                 Cambridge Crystallographic Data Centre
#                                CCDC 
#
#######################################################################
#
# If this CIF has been generated from an entry in the Cambridge 
# Structural Database, then it will include bibliographic, chemical, 
# crystal, experimental, refinement or atomic coordinate data resulting 
# from the CCDC's data processing and validation procedures.
#
#######################################################################

data_ETODAS
_symmetry_cell_setting           orthorhombic
_symmetry_space_group_name_H-M   'P 21 21 21'
_symmetry_Int_Tables_number      19
_space_group_name_Hall           'P 2ac 2ab'
loop_
_symmetry_equiv_pos_site_id
_symmetry_equiv_pos_as_xyz
1 x,y,z
2 1/2-x,-y,1/2+z
3 -x,1/2+y,1/2-z
4 1/2+x,1/2-y,-z
_cell_length_a                   18.9555(14)
_cell_length_b                   8.0426(4)
_cell_length_c                   17.1475(10)
_cell_angle_alpha                90
_cell_angle_beta                 90
_cell_angle_gamma                90
_cell_volume                     2614.16
loop_
_atom_site_label
_atom_site_type_symbol
_atom_site_fract_x
_atom_site_fract_y
_atom_site_fract_z
Eu1 Eu 0.011940(10) 0.40310(2) 0.285830(10)
O1 O 0.0782(2) 0.0713(6) 0.27178(19)
O2 O 0.0619(2) 0.2178(4) 0.3776(2)
O3 O 0.1354(3) 0.1169(6) 0.5053(2)
O4 O 0.2473(3) -0.0423(6) 0.5598(2)
O5 O -0.0969(2) 0.3125(5) 0.3565(2)
O6 O -0.0654(2) 0.1594(4) 0.25658(19)
O7 O -0.1539(2) -0.0733(4) 0.20444(19)
O8 O -0.2813(2) -0.2100(5) 0.2143(3)
O9 O 0.0317(2) 0.3494(4) 0.15500(18)
O10 O 0.0015(2) 0.0942(4) 0.11301(13)
O11 O -0.0279(2) 0.0764(5) -0.0421(2)
O12 O 0.0161(3) 0.1671(5) -0.18185(18)
C1 C 0.0951(3) 0.1042(7) 0.3419(3)
C2 C 0.1577(3) 0.0210(6) 0.3758(3)
C3 C 0.1749(3) 0.0254(7) 0.4548(3)
C4 C 0.2351(3) -0.0580(7) 0.4821(3)
C5 C 0.2786(4) -0.1429(7) 0.4313(4)
H1 H 0.3187 -0.1972 0.4494
C6 C 0.2612(4) -0.1459(7) 0.3518(3)
H2 H 0.2902 -0.2022 0.3169
C7 C 0.2017(4) -0.0665(6) 0.3249(3)
H3 H 0.1905 -0.0711 0.2721
C8 C 0.1042(5) 0.0288(10) 0.5697(4)
H4 H 0.0565 0.0659 0.5769
H5 H 0.1308 0.0502 0.6162
H6 H 0.1044 -0.0883 0.5589
C9 C 0.3065(4) -0.1269(9) 0.5918(4)
H7 H 0.3067 -0.1139 0.6474
H8 H 0.3491 -0.0810 0.5705
H9 H 0.3037 -0.2429 0.5790
C10 C -0.1098(3) 0.1952(6) 0.3095(3)
C11 C -0.1783(3) 0.1038(7) 0.3165(2)
C12 C -0.1984(3) -0.0174(7) 0.2632(3)
C13 C -0.2651(3) -0.0917(8) 0.2698(3)
C14 C -0.3098(4) -0.0464(8) 0.3303(4)
H10 H -0.3536 -0.0973 0.3356
C15 C -0.2891(4) 0.0742(9) 0.3825(3)
H11 H -0.3193 0.1054 0.4227
C16 C -0.2240(4) 0.1490(7) 0.3755(3)
H12 H -0.2106 0.2308 0.4109
C17 C -0.1752(4) -0.0157(8) 0.1264(3)
H13 H -0.2234 -0.0464 0.1170
H14 H -0.1455 -0.0662 0.0878
H15 H -0.1706 0.1030 0.1236
C18 C -0.3433(4) -0.3042(8) 0.2262(5)
H16 H -0.3498 -0.3794 0.1834
H17 H -0.3832 -0.2308 0.2296
H18 H -0.3392 -0.3663 0.2738
C19 C 0.0210(3) 0.2425(5) 0.1022(2)
C20 C 0.0361(3) 0.2994(6) 0.0193(2)
C21 C 0.0169(4) 0.2092(6) -0.0469(3)
C22 C 0.0389(4) 0.2645(7) -0.1205(3)
C23 C 0.0793(3) 0.4041(7) -0.1287(2)
H19 H 0.0946 0.4362 -0.1780
C24 C 0.0976(4) 0.4985(6) -0.0639(3)
H20 H 0.1235 0.5960 -0.0691
C25 C 0.0758(4) 0.4423(6) 0.0094(3)
H21 H 0.0886 0.5033 0.0533
C26 C 0.0062(5) -0.0834(6) -0.0407(3)
H22 H -0.0275 -0.1672 -0.0263
H23 H 0.0439 -0.0817 -0.0034
H24 H 0.0248 -0.1079 -0.0915
C27 C 0.0394(4) 0.2127(11) -0.2567(3)
H25 H 0.0207 0.1365 -0.2945
H26 H 0.0900 0.2096 -0.2582
H27 H 0.0234 0.3232 -0.2684
O1B O -0.0782(2) 0.5713(6) 0.22822(19)
O6B O 0.0654(2) 0.6594(4) 0.24342(19)
O7B O 0.1539(2) 0.4267(4) 0.29556(19)
O10B O -0.0015(2) 0.5942(4) 0.38699(13)
Eu1B Eu -0.011940(10) -0.09690(2) 0.214170(10)
loop_
_geom_bond_atom_site_label_1
_geom_bond_atom_site_label_2
_geom_bond_site_symmetry_1
_geom_bond_site_symmetry_2
Eu1 O1 1_555 1_555
O1 C1 1_555 1_555
O2 Eu1 1_555 1_555
O3 C3 1_555 1_555
O4 C4 1_555 1_555
O5 Eu1 1_555 1_555
O6 Eu1 1_555 1_555
O7 C12 1_555 1_555
O8 C13 1_555 1_555
O9 Eu1 1_555 1_555
O10 C19 1_555 1_555
O11 C21 1_555 1_555
O12 C22 1_555 1_555
C1 O2 1_555 1_555
C2 C1 1_555 1_555
C3 C2 1_555 1_555
C4 C3 1_555 1_555
C5 C4 1_555 1_555
H1 C5 1_555 1_555
C6 C5 1_555 1_555
H2 C6 1_555 1_555
C7 C2 1_555 1_555
H3 C7 1_555 1_555
C8 O3 1_555 1_555
H4 C8 1_555 1_555
H5 C8 1_555 1_555
H6 C8 1_555 1_555
C9 O4 1_555 1_555
H7 C9 1_555 1_555
H8 C9 1_555 1_555
H9 C9 1_555 1_555
C10 O5 1_555 1_555
C11 C10 1_555 1_555
C12 C11 1_555 1_555
C13 C12 1_555 1_555
C14 C13 1_555 1_555
H10 C14 1_555 1_555
C15 C14 1_555 1_555
H11 C15 1_555 1_555
C16 C11 1_555 1_555
H12 C16 1_555 1_555
C17 O7 1_555 1_555
H13 C17 1_555 1_555
H14 C17 1_555 1_555
H15 C17 1_555 1_555
C18 O8 1_555 1_555
H16 C18 1_555 1_555
H17 C18 1_555 1_555
H18 C18 1_555 1_555
C19 O9 1_555 1_555
C20 C19 1_555 1_555
C21 C20 1_555 1_555
C22 C21 1_555 1_555
C23 C22 1_555 1_555
H19 C23 1_555 1_555
C24 C23 1_555 1_555
H20 C24 1_555 1_555
C25 C20 1_555 1_555
H21 C25 1_555 1_555
C26 O11 1_555 1_555
H22 C26 1_555 1_555
H23 C26 1_555 1_555
H24 C26 1_555 1_555
C27 O12 1_555 1_555
H25 C27 1_555 1_555
H26 C27 1_555 1_555
H27 C27 1_555 1_555
O1B Eu1 1_555 1_555
O6B Eu1 1_555 1_555
O7B Eu1 1_555 1_555
O10B Eu1 1_555 1_555
Eu1B O1 1_555 1_555
O6 C10 1_555 1_555
O6 Eu1B 1_555 1_555
O7 Eu1B 1_555 1_555
O10 Eu1B 1_555 1_555
C6 C7 1_555 1_555
C15 C16 1_555 1_555
C24 C25 1_555 1_555

#END
