
#######################################################################
#
#                 Cambridge Crystallographic Data Centre
#                                CCDC 
#
#######################################################################
#
# If this CIF has been generated from an entry in the Cambridge 
# Structural Database, then it will include bibliographic, chemical, 
# crystal, experimental, refinement or atomic coordinate data resulting 
# from the CCDC's data processing and validation procedures.
#
#######################################################################

data_ETOFID
_symmetry_cell_setting           monoclinic
_symmetry_space_group_name_H-M   'P 21/c'
_symmetry_Int_Tables_number      14
_space_group_name_Hall           '-P 2ybc'
loop_
_symmetry_equiv_pos_site_id
_symmetry_equiv_pos_as_xyz
1 x,y,z
2 -x,1/2+y,1/2-z
3 -x,-y,-z
4 x,1/2-y,1/2+z
_cell_length_a                   8.14400(10)
_cell_length_b                   15.1775(2)
_cell_length_c                   10.8767(2)
_cell_angle_alpha                90
_cell_angle_beta                 105.8560(10)
_cell_angle_gamma                90
_cell_volume                     1293.27
loop_
_atom_site_label
_atom_site_type_symbol
_atom_site_fract_x
_atom_site_fract_y
_atom_site_fract_z
Cd1 Cd 0.57608(2) 0.863552(9) 0.839339(13)
N1 N 1.2488(2) 0.46462(12) 0.73164(17)
N2 N 0.9776(2) 0.65590(11) 0.87543(16)
N3 N 0.7919(2) 0.75674(11) 0.88736(16)
N4 N 0.8836(2) 0.73551(12) 1.01141(16)
C1 C 1.1713(3) 0.53211(14) 0.6592(2)
H1 H 1.1779 0.5352 0.5734
C2 C 1.0824(3) 0.59758(15) 0.7021(2)
H2 H 1.0297 0.6445 0.6476
C3 C 1.0727(3) 0.59249(14) 0.82696(19)
C4 C 1.1540(3) 0.52420(14) 0.9037(2)
H3 H 1.1500 0.5200 0.9900
C5 C 1.2406(3) 0.46253(15) 0.8533(2)
H4 H 1.2975 0.4162 0.9070
C6 C 0.8506(3) 0.70927(14) 0.8087(2)
H5 H 0.8104 0.7117 0.7182
C7 C 0.9932(3) 0.67536(14) 1.0011(2)
H6 H 1.0732 0.6486 1.0714
S1 S 0.33327(8) 0.98952(4) 0.73467(5)
C8 C 0.3303(3) 1.03878(14) 0.8690(2)
N5 N 0.3258(2) 1.07506(12) 0.96166(17)
S2 S 0.32176(8) 0.79098(4) 0.91377(6)
C9 C 0.4251(3) 0.73708(14) 1.0446(2)
N6 N 0.4943(3) 0.69943(13) 1.13673(18)
Cd1B Cd 0.42392(2) 1.136448(9) 1.160661(13)
Cd1A Cd 1.42392(2) 0.363552(9) 0.660661(13)
Cd1C Cd 0.57608(2) 0.636448(9) 1.339339(13)
N1A N 0.7512(2) 0.96462(12) 0.76836(17)
N5B N 0.6742(2) 0.92494(12) 1.03834(17)
N6C N 0.4943(3) 0.80057(13) 0.63673(18)
loop_
_geom_bond_atom_site_label_1
_geom_bond_atom_site_label_2
_geom_bond_site_symmetry_1
_geom_bond_site_symmetry_2
Cd1 N3 1_555 1_555
N1 C1 1_555 1_555
N2 C3 1_555 1_555
N3 N4 1_555 1_555
N4 C7 1_555 1_555
C1 H1 1_555 1_555
C2 C1 1_555 1_555
H2 C2 1_555 1_555
C3 C2 1_555 1_555
C4 C3 1_555 1_555
H3 C4 1_555 1_555
C5 N1 1_555 1_555
H4 C5 1_555 1_555
C6 N2 1_555 1_555
H5 C6 1_555 1_555
C7 N2 1_555 1_555
H6 C7 1_555 1_555
S1 Cd1 1_555 1_555
C8 S1 1_555 1_555
N5 C8 1_555 1_555
S2 Cd1 1_555 1_555
C9 S2 1_555 1_555
N6 C9 1_555 1_555
Cd1B N5 1_555 1_555
Cd1A N1 1_555 1_555
Cd1C N6 1_555 1_555
N1A Cd1 1_555 1_555
N5B Cd1 1_555 1_555
N6C Cd1 1_555 1_555
N3 C6 1_555 1_555
C4 C5 1_555 1_555

#END
