
#######################################################################
#
#                 Cambridge Crystallographic Data Centre
#                                CCDC 
#
#######################################################################
#
# If this CIF has been generated from an entry in the Cambridge 
# Structural Database, then it will include bibliographic, chemical, 
# crystal, experimental, refinement or atomic coordinate data resulting 
# from the CCDC's data processing and validation procedures.
#
#######################################################################

data_ETOQEK
_symmetry_cell_setting           monoclinic
_symmetry_space_group_name_H-M   'P 21/n'
_symmetry_Int_Tables_number      14
_space_group_name_Hall           '-P 2yn'
loop_
_symmetry_equiv_pos_site_id
_symmetry_equiv_pos_as_xyz
1 x,y,z
2 1/2-x,1/2+y,1/2-z
3 -x,-y,-z
4 1/2+x,1/2-y,1/2+z
_cell_length_a                   10.8665(6)
_cell_length_b                   6.9642(4)
_cell_length_c                   12.5714(7)
_cell_angle_alpha                90
_cell_angle_beta                 96.8440(10)
_cell_angle_gamma                90
_cell_volume                     944.58
loop_
_atom_site_label
_atom_site_type_symbol
_atom_site_fract_x
_atom_site_fract_y
_atom_site_fract_z
Cu1 Cu 0.38655(3) 0.00411(5) 0.37712(3)
Cl1 Cl 0.35844(7) -0.13947(10) 0.53317(6)
O1 O 0.31379(18) 0.2480(3) 0.41486(16)
H1 H 0.2886 0.3023 0.3587
H2 H 0.2489 0.2500 0.4435
N1 N 0.4258(2) 0.1118(3) 0.23501(18)
C1 C 0.3875(2) 0.2790(4) 0.1850(2)
O2 O 0.30748(17) 0.3831(3) 0.21672(15)
N2 N 0.4441(2) 0.3294(3) 0.09701(19)
H3 H 0.4212 0.4385 0.0608
C2 C 0.5409(2) 0.2300(4) 0.0625(2)
O3 O 0.59361(18) 0.2983(3) -0.01099(16)
N3 N 0.5743(2) 0.0598(3) 0.11017(19)
C3 C 0.5142(3) 0.0148(4) 0.1898(2)
N4 N 0.5433(2) -0.1610(3) 0.24096(19)
C4 C 0.6235(3) -0.3012(4) 0.2179(2)
H4 H 0.6741 -0.3006 0.1612
C5 C 0.6169(3) -0.4419(4) 0.2919(2)
H5 H 0.6620 -0.5591 0.2978
C6 C 0.5294(3) -0.3781(4) 0.3582(2)
H6 H 0.5055 -0.4479 0.4173
N5 N 0.4854(2) -0.2089(3) 0.32714(19)
Cu1A Cu 0.11345(3) 0.50411(5) 0.12288(3)
O2A O 0.19252(17) -0.1169(3) 0.28328(15)
loop_
_geom_bond_atom_site_label_1
_geom_bond_atom_site_label_2
_geom_bond_site_symmetry_1
_geom_bond_site_symmetry_2
Cu1 Cl1 1_555 1_555
O1 Cu1 1_555 1_555
H1 O1 1_555 1_555
H2 O1 1_555 1_555
N1 Cu1 1_555 1_555
C1 N1 1_555 1_555
O2 C1 1_555 1_555
N2 C1 1_555 1_555
H3 N2 1_555 1_555
C2 N2 1_555 1_555
O3 C2 1_555 1_555
N3 C2 1_555 1_555
C3 N1 1_555 1_555
N4 C3 1_555 1_555
C4 N4 1_555 1_555
H4 C4 1_555 1_555
C5 C4 1_555 1_555
H5 C5 1_555 1_555
C6 C5 1_555 1_555
H6 C6 1_555 1_555
N5 Cu1 1_555 1_555
Cu1A O2 1_555 1_555
O2A Cu1 1_555 1_555
N3 C3 1_555 1_555
N4 N5 1_555 1_555
C6 N5 1_555 1_555

#END
