
#######################################################################
#
#                 Cambridge Crystallographic Data Centre
#                                CCDC 
#
#######################################################################
#
# If this CIF has been generated from an entry in the Cambridge 
# Structural Database, then it will include bibliographic, chemical, 
# crystal, experimental, refinement or atomic coordinate data resulting 
# from the CCDC's data processing and validation procedures.
#
#######################################################################

data_ETOVOY
_symmetry_cell_setting           tetragonal
_symmetry_space_group_name_H-M   'P 4/n c c'
_symmetry_Int_Tables_number      130
_space_group_name_Hall           '-P 4a 2ac'
loop_
_symmetry_equiv_pos_site_id
_symmetry_equiv_pos_as_xyz
1 x,y,z
2 1/2-y,x,z
3 y,1/2-x,z
4 1/2+y,1/2+x,1/2-z
5 1/2+x,1/2+y,-z
6 x,1/2-y,1/2+z
7 1/2-x,y,1/2+z
8 y,x,1/2+z
9 -x,-y,-z
10 1/2+y,-x,-z
11 -y,1/2+x,-z
12 1/2-y,1/2-x,1/2+z
13 1/2-x,1/2-y,z
14 -x,1/2+y,1/2-z
15 1/2+x,-y,1/2-z
16 -y,-x,1/2-z
_cell_length_a                   14.250(2)
_cell_length_b                   14.250(2)
_cell_length_c                   18.322(4)
_cell_angle_alpha                90
_cell_angle_beta                 90
_cell_angle_gamma                90
_cell_volume                     3720.51
loop_
_atom_site_label
_atom_site_type_symbol
_atom_site_fract_x
_atom_site_fract_y
_atom_site_fract_z
Ni1 Ni 0.2500 0.2500 0.27022(9)
Fe1 Fe 0.04575(6) 0.54575(6) 0.2500
O1 O 0.0885(3) 0.6145(3) 0.3308(4)
N1 N -0.0469(5) 0.4757(5) 0.3214(5)
N2 N 0.1454(4) 0.4322(4) 0.2682(4)
C1 C 0.0488(6) 0.6307(5) 0.3928(7)
C2 C 0.0868(8) 0.6990(6) 0.4435(8)
H1 H 0.1428 0.7288 0.4318
C3 C 0.0440(10) 0.7212(7) 0.5075(7)
H2 H 0.0690 0.7682 0.5369
C4 C -0.0332(10) 0.6765(8) 0.5285(8)
H3 H -0.0611 0.6918 0.5728
C5 C -0.0719(9) 0.6087(8) 0.4860(8)
H4 H -0.1253 0.5773 0.5019
C6 C -0.0317(7) 0.5856(6) 0.4181(7)
C7 C -0.0746(7) 0.5057(6) 0.3795(9)
H5 H -0.1260 0.4764 0.4009
C8 C -0.0842(10) 0.3817(11) 0.2880(7)
C9 C -0.1623(18) 0.3364(12) 0.3068(15)
C10 C 0.1854(4) 0.3640(4) 0.2699(4)
C8C C -0.1183(11) 0.4158(10) 0.2120(7)
N1C N -0.0243(5) 0.4531(5) 0.1786(5)
C7C C 0.0057(6) 0.4254(7) 0.1205(9)
C6C C 0.0856(6) 0.4683(7) 0.0819(7)
C1C C 0.1307(5) 0.5488(6) 0.1072(7)
O1C O 0.1145(3) 0.5885(3) 0.1692(4)
C2C C 0.1990(6) 0.5868(8) 0.0565(8)
H1C H 0.2288 0.6428 0.0682
C3C C 0.2212(7) 0.5440(10) -0.0075(7)
H2C H 0.2682 0.5690 -0.0369
C4C C 0.1765(8) 0.4668(10) -0.0285(8)
H3C H 0.1918 0.4389 -0.0728
C5C C 0.1087(8) 0.4281(9) 0.0140(8)
H4C H 0.0773 0.3747 -0.0019
H5C H -0.0236 0.3740 0.0991
C9C C -0.1636(12) 0.3377(18) 0.1932(15)
N2A N 0.0678(4) 0.1454(4) 0.2682(4)
C10A C 0.1360(4) 0.1854(4) 0.2699(4)
N2B N 0.4322(4) 0.3546(4) 0.2682(4)
C10B C 0.3640(4) 0.3146(4) 0.2699(4)
N2L N 0.3546(4) 0.0678(4) 0.2682(4)
C10L C 0.3146(4) 0.1360(4) 0.2699(4)
Fe1A Fe -0.04575(6) 0.04575(6) 0.2500
O1A O -0.1145(3) 0.0885(3) 0.3308(4)
N1A N 0.0243(5) -0.0469(5) 0.3214(5)
C1A C -0.1307(5) 0.0488(6) 0.3928(7)
C2A C -0.1990(6) 0.0868(8) 0.4435(8)
H1A H -0.2288 0.1428 0.4318
C3A C -0.2212(7) 0.0440(10) 0.5075(7)
H2A H -0.2682 0.0690 0.5369
C4A C -0.1765(8) -0.0332(10) 0.5285(8)
H3A H -0.1918 -0.0611 0.5728
C5A C -0.1087(8) -0.0719(9) 0.4860(8)
H4A H -0.0773 -0.1253 0.5019
C6A C -0.0856(6) -0.0317(7) 0.4181(7)
C7A C -0.0057(6) -0.0746(7) 0.3795(9)
H5A H 0.0236 -0.1260 0.4009
C8A C 0.1183(11) -0.0842(10) 0.2880(7)
C9A C 0.1636(12) -0.1623(18) 0.3068(15)
C8M C 0.0842(10) -0.1183(11) 0.2120(7)
N1M N 0.0469(5) -0.0243(5) 0.1786(5)
C7M C 0.0746(7) 0.0057(6) 0.1205(9)
C6M C 0.0317(7) 0.0856(6) 0.0819(7)
C1M C -0.0488(6) 0.1307(5) 0.1072(7)
O1M O -0.0885(3) 0.1145(3) 0.1692(4)
C2M C -0.0868(8) 0.1990(6) 0.0565(8)
H1M H -0.1428 0.2288 0.0682
C3M C -0.0440(10) 0.2212(7) -0.0075(7)
H2M H -0.0690 0.2682 -0.0369
C4M C 0.0332(10) 0.1765(8) -0.0285(8)
H3M H 0.0611 0.1918 -0.0728
C5M C 0.0719(9) 0.1087(8) 0.0140(8)
H4M H 0.1253 0.0773 -0.0019
H5M H 0.1260 -0.0236 0.0991
C9M C 0.1623(18) -0.1636(12) 0.1932(15)
N2C N -0.0678(4) 0.6454(4) 0.2318(4)
Fe1B Fe 0.54575(6) 0.45425(6) 0.2500
Fe1L Fe 0.45425(6) -0.04575(6) 0.2500
N2M N -0.1454(4) -0.0678(4) 0.2318(4)
loop_
_geom_bond_atom_site_label_1
_geom_bond_atom_site_label_2
_geom_bond_site_symmetry_1
_geom_bond_site_symmetry_2
Ni1 C10 1_555 1_555
Fe1 O1 1_555 1_555
O1 C1 1_555 1_555
N1 Fe1 1_555 1_555
N2 Fe1 1_555 1_555
C1 C2 1_555 1_555
C2 H1 1_555 1_555
C3 C2 1_555 1_555
H2 C3 1_555 1_555
C4 C3 1_555 1_555
H3 C4 1_555 1_555
C5 C4 1_555 1_555
H4 C5 1_555 1_555
C6 C1 1_555 1_555
C7 N1 1_555 1_555
H5 C7 1_555 1_555
C8 N1 1_555 1_555
C9 C8 1_555 1_555
C10 N2 1_555 1_555
C8C C8 1_555 1_555
N1C Fe1 1_555 1_555
C7C N1C 1_555 1_555
C6C C7C 1_555 1_555
C1C C6C 1_555 1_555
O1C Fe1 1_555 1_555
C2C C1C 1_555 1_555
H1C C2C 1_555 1_555
C3C C2C 1_555 1_555
H2C C3C 1_555 1_555
C4C C3C 1_555 1_555
H3C C4C 1_555 1_555
C5C C6C 1_555 1_555
H4C C5C 1_555 1_555
H5C C7C 1_555 1_555
C9C C8C 1_555 1_555
N2A C10A 1_555 1_555
C10A Ni1 1_555 1_555
N2B C10B 1_555 1_555
C10B Ni1 1_555 1_555
N2L C10L 1_555 1_555
C10L Ni1 1_555 1_555
Fe1A N2A 1_555 1_555
O1A Fe1A 1_555 1_555
N1A Fe1A 1_555 1_555
C1A O1A 1_555 1_555
C2A C1A 1_555 1_555
H1A C2A 1_555 1_555
C3A C2A 1_555 1_555
H2A C3A 1_555 1_555
C4A C3A 1_555 1_555
H3A C4A 1_555 1_555
C5A C4A 1_555 1_555
H4A C5A 1_555 1_555
C6A C1A 1_555 1_555
C7A N1A 1_555 1_555
H5A C7A 1_555 1_555
C8A N1A 1_555 1_555
C9A C8A 1_555 1_555
C8M C8A 1_555 1_555
N1M Fe1A 1_555 1_555
C7M N1M 1_555 1_555
C6M C7M 1_555 1_555
C1M C6M 1_555 1_555
O1M Fe1A 1_555 1_555
C2M C1M 1_555 1_555
H1M C2M 1_555 1_555
C3M C2M 1_555 1_555
H2M C3M 1_555 1_555
C4M C3M 1_555 1_555
H3M C4M 1_555 1_555
C5M C6M 1_555 1_555
H4M C5M 1_555 1_555
H5M C7M 1_555 1_555
C9M C8M 1_555 1_555
N2C Fe1 1_555 1_555
Fe1B N2B 1_555 1_555
Fe1L N2L 1_555 1_555
N2M Fe1A 1_555 1_555
C5 C6 1_555 1_555
C6 C7 1_555 1_555
C8C N1C 1_555 1_555
C1C O1C 1_555 1_555
C4C C5C 1_555 1_555
C5A C6A 1_555 1_555
C6A C7A 1_555 1_555
C8M N1M 1_555 1_555
C1M O1M 1_555 1_555
C4M C5M 1_555 1_555

#END
