
#######################################################################
#
#                 Cambridge Crystallographic Data Centre
#                                CCDC 
#
#######################################################################
#
# If this CIF has been generated from an entry in the Cambridge 
# Structural Database, then it will include bibliographic, chemical, 
# crystal, experimental, refinement or atomic coordinate data resulting 
# from the CCDC's data processing and validation procedures.
#
#######################################################################

data_ETOZOD
_symmetry_cell_setting           monoclinic
_symmetry_space_group_name_H-M   'P 21/c'
_symmetry_Int_Tables_number      14
_space_group_name_Hall           '-P 2ybc'
loop_
_symmetry_equiv_pos_site_id
_symmetry_equiv_pos_as_xyz
1 x,y,z
2 -x,1/2+y,1/2-z
3 -x,-y,-z
4 x,1/2-y,1/2+z
_cell_length_a                   10.0512(8)
_cell_length_b                   12.0809(10)
_cell_length_c                   17.4872(14)
_cell_angle_alpha                90
_cell_angle_beta                 105.631(1)
_cell_angle_gamma                90
_cell_volume                     2044.9
loop_
_atom_site_label
_atom_site_type_symbol
_atom_site_fract_x
_atom_site_fract_y
_atom_site_fract_z
Zn1 Zn 0.54736(4) 0.79354(4) 0.82510(2)
C1 C 0.4220(4) 0.8775(3) 0.3717(2)
C2 C 0.3496(3) 0.9459(3) 0.42062(18)
C3 C 0.2852(4) 1.0444(3) 0.3909(2)
H1 H 0.2882 1.0691 0.3410
C4 C 0.2170(4) 1.1057(3) 0.4347(2)
H2 H 0.1750 1.1721 0.4146
C5 C 0.2105(4) 1.0692(3) 0.5087(2)
H3 H 0.1635 1.1107 0.5379
C6 C 0.2743(3) 0.9705(3) 0.53928(18)
C7 C 0.3441(3) 0.9098(3) 0.49507(18)
H4 H 0.3879 0.8442 0.5155
C8 C 0.2645(4) 0.9303(3) 0.61789(18)
C9 C 0.3784(4) 0.8889(3) 0.67361(18)
H5 H 0.4620 0.8858 0.6604
C10 C 0.2537(4) 0.8538(3) 0.7631(2)
H6 H 0.2495 0.8268 0.8123
C11 C 0.1359(4) 0.8924(3) 0.7119(2)
H7 H 0.0529 0.8920 0.7259
C12 C 0.1416(4) 0.9321(3) 0.6389(2)
H8 H 0.0624 0.9603 0.6037
C13 C 0.7782(4) 0.7753(3) 1.2844(2)
C14 C 0.8517(4) 0.8345(3) 1.23188(19)
C15 C 0.7794(4) 0.8722(3) 1.15703(19)
H9 H 0.6856 0.8570 1.1380
C16 C 0.8458(4) 0.9325(3) 1.1104(2)
C17 C 0.9861(4) 0.9554(3) 1.1400(2)
H10 H 1.0310 0.9979 1.1102
C18 C 1.0589(4) 0.9155(3) 1.2132(2)
H11 H 1.1535 0.9281 1.2317
C19 C 0.9909(4) 0.8568(3) 1.2588(2)
H12 H 1.0400 0.8317 1.3087
C20 C 0.7694(4) 0.9706(3) 1.02977(19)
C21 C 0.6937(4) 0.8968(3) 0.97544(19)
H13 H 0.6875 0.8242 0.9918
C22 C 0.6343(4) 1.0277(4) 0.8773(2)
H14 H 0.5881 1.0476 0.8256
C23 C 0.7069(5) 1.1068(4) 0.9277(3)
H15 H 0.7096 1.1793 0.9102
C24 C 0.7762(5) 1.0782(4) 1.0045(2)
H16 H 0.8270 1.1309 1.0390
N1 N 0.3752(3) 0.8529(2) 0.74571(15)
N2 N 0.6278(3) 0.9234(3) 0.89999(16)
O1 O 0.4801(2) 0.7885(2) 0.40317(13)
O2 O 0.4192(3) 0.9077(2) 0.30425(14)
O3 O 0.6515(3) 0.7533(2) 1.25352(14)
O4 O 0.8408(3) 0.7519(3) 1.35317(16)
Zn1C Zn 0.54736(4) 0.70646(4) 0.32510(2)
Zn1C_2 Zn 0.54736(4) 0.70646(4) 1.32510(2)
O1C O 0.4801(2) 0.7115(2) 0.90317(13)
O3C O 0.6515(3) 0.7467(2) 0.75352(14)
loop_
_geom_bond_atom_site_label_1
_geom_bond_atom_site_label_2
_geom_bond_site_symmetry_1
_geom_bond_site_symmetry_2
Zn1 N1 1_555 1_555
C1 C2 1_555 1_555
C2 C3 1_555 1_555
C3 H1 1_555 1_555
C4 C3 1_555 1_555
H2 C4 1_555 1_555
C5 C4 1_555 1_555
H3 C5 1_555 1_555
C6 C5 1_555 1_555
C7 C2 1_555 1_555
H4 C7 1_555 1_555
C8 C6 1_555 1_555
C9 C8 1_555 1_555
H5 C9 1_555 1_555
C10 H6 1_555 1_555
C11 C10 1_555 1_555
H7 C11 1_555 1_555
C12 C8 1_555 1_555
H8 C12 1_555 1_555
C13 C14 1_555 1_555
C14 C15 1_555 1_555
C15 H9 1_555 1_555
C16 C15 1_555 1_555
C17 C16 1_555 1_555
H10 C17 1_555 1_555
C18 C17 1_555 1_555
H11 C18 1_555 1_555
C19 C14 1_555 1_555
H12 C19 1_555 1_555
C20 C16 1_555 1_555
C21 C20 1_555 1_555
H13 C21 1_555 1_555
C22 H14 1_555 1_555
C23 C22 1_555 1_555
H15 C23 1_555 1_555
C24 C20 1_555 1_555
H16 C24 1_555 1_555
N1 C9 1_555 1_555
N2 Zn1 1_555 1_555
O1 C1 1_555 1_555
O2 C1 1_555 1_555
O3 C13 1_555 1_555
O4 C13 1_555 1_555
Zn1C O1 1_555 1_555
Zn1C_2 O3 1_555 1_555
O1C Zn1 1_555 1_555
O3C Zn1 1_555 1_555
C6 C7 1_555 1_555
C10 N1 1_555 1_555
C11 C12 1_555 1_555
C18 C19 1_555 1_555
C21 N2 1_555 1_555
C22 N2 1_555 1_555
C23 C24 1_555 1_555

#END
