
#######################################################################
#
#                 Cambridge Crystallographic Data Centre
#                                CCDC 
#
#######################################################################
#
# If this CIF has been generated from an entry in the Cambridge 
# Structural Database, then it will include bibliographic, chemical, 
# crystal, experimental, refinement or atomic coordinate data resulting 
# from the CCDC's data processing and validation procedures.
#
#######################################################################

data_ETUCIF
_symmetry_cell_setting           monoclinic
_symmetry_space_group_name_H-M   'C c'
_symmetry_Int_Tables_number      9
_space_group_name_Hall           'C -2yc'
loop_
_symmetry_equiv_pos_site_id
_symmetry_equiv_pos_as_xyz
1 x,y,z
2 x,-y,1/2+z
3 1/2+x,1/2+y,z
4 1/2+x,1/2-y,1/2+z
_cell_length_a                   16.013(3)
_cell_length_b                   13.289(3)
_cell_length_c                   20.568(4)
_cell_angle_alpha                90
_cell_angle_beta                 111.046(4)
_cell_angle_gamma                90
_cell_volume                     4084.84
loop_
_atom_site_label
_atom_site_type_symbol
_atom_site_fract_x
_atom_site_fract_y
_atom_site_fract_z
Cr1 Cr 0.066222(18) 0.06882(2) 0.005752(15)
K1 K -0.10962(4) -0.31715(4) -0.01990(3)
N1 N -0.02887(11) -0.14053(13) -0.02734(9)
P1 P 0.06815(3) -0.10013(4) -0.03018(3)
P2 P -0.06362(3) -0.03052(4) -0.00663(2)
O1 O -0.02280(15) 0.13332(16) -0.14491(9)
O2 O 0.17949(15) 0.00997(19) 0.15282(10)
O3 O 0.02738(15) 0.26192(14) 0.06618(11)
O4 O 0.23770(16) 0.1463(2) -0.00152(13)
O5 O -0.22845(17) -0.3554(3) -0.14675(13)
O6 O -0.0309(2) -0.4766(2) -0.05160(18)
O7 O -0.0306(2) -0.3856(2) 0.11181(18)
C1 C 0.00839(16) 0.10830(16) -0.08814(11)
C2 C 0.13355(16) 0.02916(18) 0.09739(11)
C3 C 0.03976(16) 0.18798(16) 0.04124(11)
C4 C 0.17078(17) 0.1160(2) 0.00111(13)
C5 C -0.10913(15) -0.05591(15) 0.06190(11)
C6 C -0.05711(17) -0.03540(19) 0.13120(12)
H1 H 0.0004 -0.0059 0.1423
C7 C -0.0894(2) -0.0582(2) 0.18473(15)
H2 H -0.0541 -0.0431 0.2318
C8 C -0.1718(2) -0.1021(2) 0.16910(17)
H3 H -0.1930 -0.1183 0.2054
C9 C -0.2245(2) -0.1232(2) 0.10032(18)
H4 H -0.2817 -0.1532 0.0897
C10 C -0.19307(18) -0.1002(2) 0.04694(15)
H5 H -0.2291 -0.1147 0.0000
C11 C -0.16515(14) 0.00667(16) -0.07878(11)
C12 C -0.19065(17) -0.04367(19) -0.14219(13)
H6 H -0.1596 -0.1027 -0.1466
C13 C -0.2615(2) -0.0078(3) -0.19912(14)
H7 H -0.2782 -0.0421 -0.2425
C14 C -0.3081(2) 0.0775(2) -0.19319(16)
H8 H -0.3573 0.1008 -0.2319
C15 C -0.2822(2) 0.1284(2) -0.13048(16)
H9 H -0.3127 0.1880 -0.1264
C16 C -0.21174(18) 0.0926(2) -0.07343(14)
H10 H -0.1952 0.1272 -0.0302
C17 C 0.06947(14) -0.12836(15) -0.11715(11)
C18 C 0.12959(18) -0.08174(19) -0.14222(13)
H11 H 0.1707 -0.0337 -0.1140
C19 C 0.1306(2) -0.1042(2) -0.20801(14)
H12 H 0.1732 -0.0731 -0.2239
C20 C 0.06940(19) -0.1720(2) -0.25024(12)
H13 H 0.0695 -0.1872 -0.2953
C21 C 0.00834(18) -0.2173(2) -0.22668(13)
H14 H -0.0339 -0.2635 -0.2558
C22 C 0.00797(16) -0.19601(18) -0.16012(12)
H15 H -0.0344 -0.2278 -0.1443
C23 C 0.15618(15) -0.18641(17) 0.02215(11)
C24 C 0.1355(2) -0.2708(2) 0.05335(18)
H16 H 0.0753 -0.2841 0.0485
C25 C 0.2043(3) -0.3367(3) 0.0922(2)
H17 H 0.1896 -0.3956 0.1119
C26 C 0.2908(2) -0.3177(3) 0.10193(16)
H18 H 0.3365 -0.3625 0.1285
C27 C 0.3116(2) -0.2341(3) 0.07346(18)
H19 H 0.3726 -0.2205 0.0808
C28 C 0.24543(18) -0.1668(3) 0.03331(17)
H20 H 0.2617 -0.1084 0.0140
C29 C -0.0610(6) -0.3306(6) 0.1559(5)
H21 H -0.0094 -0.2999 0.1932
H22 H -0.1004 -0.2757 0.1295
C30 C -0.1046(8) -0.3876(9) 0.1834(7)
H23 H -0.1695 -0.3826 0.1562
H24 H -0.0941 -0.3649 0.2316
C31 C -0.0751(5) -0.4929(5) 0.1844(4)
H25 H -0.1267 -0.5391 0.1654
H26 H -0.0379 -0.5146 0.2321
C32 C -0.0173(5) -0.4880(6) 0.1345(4)
H27 H 0.0467 -0.5025 0.1606
H28 H -0.0405 -0.5353 0.0949
C33 C -0.0894(4) -0.5609(4) -0.0656(3)
H29 H -0.0833 -0.5961 -0.0217
H30 H -0.1523 -0.5388 -0.0880
C34 C -0.0656(5) -0.6260(6) -0.1104(4)
H31 H -0.0981 -0.6082 -0.1598
H32 H -0.0787 -0.6969 -0.1028
C35 C 0.0358(4) -0.6088(4) -0.0898(3)
H33 H 0.0708 -0.6566 -0.0533
H34 H 0.0546 -0.6146 -0.1305
C36 C 0.0452(5) -0.5012(6) -0.0623(4)
H35 H 0.0972 -0.4960 -0.0182
H36 H 0.0548 -0.4546 -0.0966
C37 C -0.3123(3) -0.3060(3) -0.1752(2)
H37 H -0.3099 -0.2392 -0.1532
H38 H -0.3599 -0.3464 -0.1676
C38 C -0.3304(3) -0.2947(4) -0.2532(2)
H39 H -0.3707 -0.3484 -0.2805
H40 H -0.3568 -0.2282 -0.2707
C39 C -0.2368(2) -0.3049(3) -0.25589(19)
H41 H -0.2393 -0.3294 -0.3020
H42 H -0.2043 -0.2401 -0.2456
C40 C -0.1940(2) -0.3809(3) -0.20022(18)
H43 H -0.2113 -0.4502 -0.2175
H44 H -0.1280 -0.3751 -0.1829
O4B O -0.26230(16) -0.3537(2) -0.00152(13)
K1B K 0.39038(4) 0.18285(4) -0.01990(3)
loop_
_geom_bond_atom_site_label_1
_geom_bond_atom_site_label_2
_geom_bond_site_symmetry_1
_geom_bond_site_symmetry_2
Cr1 P1 1_555 1_555
K1 N1 1_555 1_555
N1 P1 1_555 1_555
P1 C17 1_555 1_555
P2 Cr1 1_555 1_555
O1 C1 1_555 1_555
O2 C2 1_555 1_555
O3 C3 1_555 1_555
O4 C4 1_555 1_555
O5 K1 1_555 1_555
O6 K1 1_555 1_555
O7 K1 1_555 1_555
C1 Cr1 1_555 1_555
C2 Cr1 1_555 1_555
C3 Cr1 1_555 1_555
C4 Cr1 1_555 1_555
C5 P2 1_555 1_555
C6 C5 1_555 1_555
H1 C6 1_555 1_555
C7 C6 1_555 1_555
H2 C7 1_555 1_555
C8 C7 1_555 1_555
H3 C8 1_555 1_555
C9 C8 1_555 1_555
H4 C9 1_555 1_555
C10 C5 1_555 1_555
H5 C10 1_555 1_555
C11 P2 1_555 1_555
C12 C11 1_555 1_555
H6 C12 1_555 1_555
C13 C12 1_555 1_555
H7 C13 1_555 1_555
C14 C13 1_555 1_555
H8 C14 1_555 1_555
C15 C14 1_555 1_555
H9 C15 1_555 1_555
C16 C11 1_555 1_555
H10 C16 1_555 1_555
C17 C18 1_555 1_555
C18 H11 1_555 1_555
C19 C18 1_555 1_555
H12 C19 1_555 1_555
C20 C19 1_555 1_555
H13 C20 1_555 1_555
C21 C20 1_555 1_555
H14 C21 1_555 1_555
C22 C17 1_555 1_555
H15 C22 1_555 1_555
C23 P1 1_555 1_555
C24 C23 1_555 1_555
H16 C24 1_555 1_555
C25 C24 1_555 1_555
H17 C25 1_555 1_555
C26 C25 1_555 1_555
H18 C26 1_555 1_555
C27 C26 1_555 1_555
H19 C27 1_555 1_555
C28 C23 1_555 1_555
H20 C28 1_555 1_555
C29 O7 1_555 1_555
H21 C29 1_555 1_555
H22 C29 1_555 1_555
C30 C29 1_555 1_555
H23 C30 1_555 1_555
H24 C30 1_555 1_555
C31 C30 1_555 1_555
H25 C31 1_555 1_555
H26 C31 1_555 1_555
C32 O7 1_555 1_555
H27 C32 1_555 1_555
H28 C32 1_555 1_555
C33 O6 1_555 1_555
H29 C33 1_555 1_555
H30 C33 1_555 1_555
C34 C33 1_555 1_555
H31 C34 1_555 1_555
H32 C34 1_555 1_555
C35 C34 1_555 1_555
H33 C35 1_555 1_555
H34 C35 1_555 1_555
C36 O6 1_555 1_555
H35 C36 1_555 1_555
H36 C36 1_555 1_555
C37 O5 1_555 1_555
H37 C37 1_555 1_555
H38 C37 1_555 1_555
C38 C37 1_555 1_555
H39 C38 1_555 1_555
H40 C38 1_555 1_555
C39 C38 1_555 1_555
H41 C39 1_555 1_555
H42 C39 1_555 1_555
C40 O5 1_555 1_555
H43 C40 1_555 1_555
H44 C40 1_555 1_555
O4B K1 1_555 1_555
K1B O4 1_555 1_555
N1 P2 1_555 1_555
C9 C10 1_555 1_555
C15 C16 1_555 1_555
C21 C22 1_555 1_555
C27 C28 1_555 1_555
C31 C32 1_555 1_555
C35 C36 1_555 1_555
C39 C40 1_555 1_555

#END
