
#######################################################################
#
#                 Cambridge Crystallographic Data Centre
#                                CCDC 
#
#######################################################################
#
# If this CIF has been generated from an entry in the Cambridge 
# Structural Database, then it will include bibliographic, chemical, 
# crystal, experimental, refinement or atomic coordinate data resulting 
# from the CCDC's data processing and validation procedures.
#
#######################################################################

data_ETUCOL
_symmetry_cell_setting           triclinic
_symmetry_space_group_name_H-M   'P -1'
_symmetry_Int_Tables_number      2
_space_group_name_Hall           '-P 1'
loop_
_symmetry_equiv_pos_site_id
_symmetry_equiv_pos_as_xyz
1 x,y,z
2 -x,-y,-z
_cell_length_a                   9.6905(16)
_cell_length_b                   11.1348(18)
_cell_length_c                   18.041(3)
_cell_angle_alpha                94.348(3)
_cell_angle_beta                 97.122(3)
_cell_angle_gamma                108.075(3)
_cell_volume                     1822.79
loop_
_atom_site_label
_atom_site_type_symbol
_atom_site_fract_x
_atom_site_fract_y
_atom_site_fract_z
W1 W 0.948909(12) 0.750478(11) 0.733830(7)
K1 K 1.55791(11) 1.03920(11) 0.73893(8)
P1 P 1.18332(8) 0.93448(7) 0.77183(4)
P2 P 1.19493(9) 0.71280(7) 0.73593(4)
N1 N 1.3071(3) 0.8610(2) 0.76459(16)
O1 O 0.9017(5) 0.8015(4) 0.56379(19)
O2 O 0.9470(5) 0.6942(4) 0.90294(19)
O3 O 0.7155(5) 0.4806(3) 0.6812(2)
O4 O 0.7200(3) 0.8849(3) 0.7680(2)
O5 O 1.7072(6) 1.2170(5) 0.8475(3)
O6 O 1.7197(8) 1.0968(6) 0.6373(4)
C1 C 0.9245(4) 0.7837(4) 0.6251(2)
C2 C 0.9512(4) 0.7145(3) 0.8420(2)
C3 C 0.8015(5) 0.5778(4) 0.7000(2)
C4 C 0.8014(4) 0.8313(4) 0.7526(2)
C5 C 1.2413(3) 1.0701(3) 0.71733(19)
C6 C 1.2850(5) 1.1964(3) 0.7482(3)
H1 H 1.2803 1.2167 0.7986
C7 C 1.3366(6) 1.2941(4) 0.7036(3)
H2 H 1.3634 1.3787 0.7241
C8 C 1.3474(5) 1.2644(5) 0.6293(3)
H3 H 1.3838 1.3290 0.6001
C9 C 1.3047(6) 1.1400(5) 0.5987(3)
H4 H 1.3121 1.1203 0.5487
C10 C 1.2499(5) 1.0422(4) 0.6421(2)
H5 H 1.2191 0.9579 0.6205
C11 C 1.2177(3) 1.0165(3) 0.86754(18)
C12 C 1.1100(4) 1.0545(4) 0.8955(2)
H6 H 1.0195 1.0380 0.8654
C13 C 1.1340(5) 1.1171(4) 0.9680(2)
H7 H 1.0606 1.1433 0.9859
C14 C 1.2676(5) 1.1403(4) 1.0133(2)
H8 H 1.2844 1.1814 1.0620
C15 C 1.3750(5) 1.1025(5) 0.9862(2)
H9 H 1.4649 1.1182 1.0168
C16 C 1.3522(4) 1.0413(4) 0.9138(2)
H10 H 1.4267 1.0168 0.8961
C17 C 1.2549(4) 0.6542(3) 0.65210(18)
C18 C 1.3990(5) 0.6990(5) 0.6408(3)
H11 H 1.4675 0.7607 0.6761
C19 C 1.4433(6) 0.6530(6) 0.5771(3)
H12 H 1.5407 0.6856 0.5698
C20 C 1.3450(6) 0.5600(5) 0.5250(2)
H13 H 1.3745 0.5299 0.4822
C21 C 1.2009(6) 0.5119(5) 0.5375(2)
H14 H 1.1334 0.4469 0.5037
C22 C 1.1569(5) 0.5602(4) 0.6002(2)
H15 H 1.0593 0.5284 0.6073
C23 C 1.2442(4) 0.6093(3) 0.80122(19)
C24 C 1.3854(5) 0.6414(4) 0.8402(3)
H16 H 1.4556 0.7173 0.8341
C25 C 1.4234(7) 0.5612(5) 0.8884(3)
H17 H 1.5187 0.5834 0.9143
C26 C 1.3202(7) 0.4492(5) 0.8978(3)
H18 H 1.3466 0.3956 0.9299
C27 C 1.1749(7) 0.4140(5) 0.8597(3)
H19 H 1.1046 0.3381 0.8656
C28 C 1.1415(5) 0.4975(4) 0.8129(2)
H20 H 1.0456 0.4774 0.7882
C29 C 1.6991(9) 1.3418(7) 0.8501(4)
H21 H 1.6071 1.3399 0.8210
H22 H 1.7788 1.3948 0.8276
C30 C 1.7085(11) 1.3948(10) 0.9253(5)
H23 H 1.6126 1.3751 0.9412
H24 H 1.7566 1.4862 0.9325
C31 C 1.8004(13) 1.3267(11) 0.9647(6)
H25 H 1.9034 1.3775 0.9706
H26 H 1.7743 1.3128 1.0142
C32 C 1.7774(10) 1.2120(8) 0.9228(5)
H27 H 1.7149 1.1434 0.9456
H28 H 1.8702 1.1969 0.9206
C33 C 1.6965(11) 1.1529(9) 0.5703(6)
H29 H 1.6364 1.0879 0.5302
H30 H 1.6464 1.2145 0.5790
C34 C 1.8367(13) 1.2138(12) 0.5500(7)
H31 H 1.8472 1.1728 0.5027
H32 H 1.8507 1.3029 0.5455
C35 C 1.9355(16) 1.2008(14) 0.6080(8)
H33 H 1.9997 1.1606 0.5867
H34 H 1.9959 1.2852 0.6313
C36 C 1.8774(12) 1.1320(10) 0.6635(6)
H35 H 1.9050 1.1836 0.7121
H36 H 1.9083 1.0574 0.6668
O4_2 O 1.7200(3) 0.8849(3) 0.7680(2)
K1_2 K 0.55791(11) 1.03920(11) 0.73893(8)
loop_
_geom_bond_atom_site_label_1
_geom_bond_atom_site_label_2
_geom_bond_site_symmetry_1
_geom_bond_site_symmetry_2
W1 P1 1_555 1_555
K1 N1 1_555 1_555
P1 N1 1_555 1_555
P2 W1 1_555 1_555
N1 P2 1_555 1_555
O1 C1 1_555 1_555
O2 C2 1_555 1_555
O3 C3 1_555 1_555
O4 C4 1_555 1_555
O5 K1 1_555 1_555
O6 K1 1_555 1_555
C1 W1 1_555 1_555
C2 W1 1_555 1_555
C3 W1 1_555 1_555
C4 W1 1_555 1_555
C5 K1 1_555 1_555
C6 C5 1_555 1_555
H1 C6 1_555 1_555
C7 C6 1_555 1_555
H2 C7 1_555 1_555
C8 C7 1_555 1_555
H3 C8 1_555 1_555
C9 C8 1_555 1_555
H4 C9 1_555 1_555
C10 K1 1_555 1_555
H5 C10 1_555 1_555
C11 P1 1_555 1_555
C12 C11 1_555 1_555
H6 C12 1_555 1_555
C13 C12 1_555 1_555
H7 C13 1_555 1_555
C14 C13 1_555 1_555
H8 C14 1_555 1_555
C15 C14 1_555 1_555
H9 C15 1_555 1_555
C16 C11 1_555 1_555
H10 C16 1_555 1_555
C17 P2 1_555 1_555
C18 C17 1_555 1_555
H11 C18 1_555 1_555
C19 C18 1_555 1_555
H12 C19 1_555 1_555
C20 C19 1_555 1_555
H13 C20 1_555 1_555
C21 C20 1_555 1_555
H14 C21 1_555 1_555
C22 C17 1_555 1_555
H15 C22 1_555 1_555
C23 P2 1_555 1_555
C24 C23 1_555 1_555
H16 C24 1_555 1_555
C25 C24 1_555 1_555
H17 C25 1_555 1_555
C26 C25 1_555 1_555
H18 C26 1_555 1_555
C27 C26 1_555 1_555
H19 C27 1_555 1_555
C28 C23 1_555 1_555
H20 C28 1_555 1_555
C29 O5 1_555 1_555
H21 C29 1_555 1_555
H22 C29 1_555 1_555
C30 C29 1_555 1_555
H23 C30 1_555 1_555
H24 C30 1_555 1_555
C31 C30 1_555 1_555
H25 C31 1_555 1_555
H26 C31 1_555 1_555
C32 O5 1_555 1_555
H27 C32 1_555 1_555
H28 C32 1_555 1_555
C33 O6 1_555 1_555
H29 C33 1_555 1_555
H30 C33 1_555 1_555
C34 C33 1_555 1_555
H31 C34 1_555 1_555
H32 C34 1_555 1_555
C35 C34 1_555 1_555
H33 C35 1_555 1_555
H34 C35 1_555 1_555
C36 O6 1_555 1_555
H35 C36 1_555 1_555
H36 C36 1_555 1_555
O4_2 K1 1_555 1_555
K1_2 O4 1_555 1_555
P1 C5 1_555 1_555
C5 C10 1_555 1_555
C9 C10 1_555 1_555
C15 C16 1_555 1_555
C21 C22 1_555 1_555
C27 C28 1_555 1_555
C31 C32 1_555 1_555
C35 C36 1_555 1_555

#END
