
#######################################################################
#
#                 Cambridge Crystallographic Data Centre
#                                CCDC 
#
#######################################################################
#
# If this CIF has been generated from an entry in the Cambridge 
# Structural Database, then it will include bibliographic, chemical, 
# crystal, experimental, refinement or atomic coordinate data resulting 
# from the CCDC's data processing and validation procedures.
#
#######################################################################

data_ETUDIH
_symmetry_cell_setting           monoclinic
_symmetry_space_group_name_H-M   'C 2/c'
_symmetry_Int_Tables_number      15
_space_group_name_Hall           '-C 2yn'
loop_
_symmetry_equiv_pos_site_id
_symmetry_equiv_pos_as_xyz
1 x,y,z
2 -x,y,1/2-z
3 1/2+x,1/2+y,z
4 1/2-x,1/2+y,1/2-z
5 -x,-y,-z
6 x,-y,1/2+z
7 1/2-x,1/2-y,-z
8 1/2+x,1/2-y,1/2+z
_cell_length_a                   24.412(5)
_cell_length_b                   11.073(2)
_cell_length_c                   7.4117(15)
_cell_angle_alpha                90
_cell_angle_beta                 91.28(3)
_cell_angle_gamma                90
_cell_volume                     2002.99
loop_
_atom_site_label
_atom_site_type_symbol
_atom_site_fract_x
_atom_site_fract_y
_atom_site_fract_z
Co1 Co 0.2500 1.2500 0.0000
O1 O 0.30131(10) 1.13065(19) 0.1536(3)
H1 H 0.2998(17) 1.132(3) 0.2643(14)
H2 H 0.3056(16) 1.0629(15) 0.110(4)
O2 O 0.22769(10) 1.35749(18) 0.2125(3)
O3 O 0.18853(10) 1.3927(2) 0.4744(3)
N1 N 0.17914(11) 1.1358(2) 0.0338(3)
N2 N 0.0000 0.9831(3) 0.2500
N3 N 0.0000 0.3497(4) 0.2500
C1 C 0.13056(14) 1.1840(3) 0.0711(4)
H3 H 0.1269 1.2675 0.0632
C2 C 0.08571(14) 1.1183(3) 0.1202(4)
H4 H 0.0528 1.1564 0.1458
C3 C 0.09050(13) 0.9933(3) 0.1310(4)
C4 C 0.13993(14) 0.9416(3) 0.0889(4)
H5 H 0.1444 0.8583 0.0929
C5 C 0.18262(14) 1.0151(3) 0.0409(4)
H6 H 0.2157 0.9791 0.0117
C6 C 0.04323(13) 0.9200(3) 0.1906(4)
C7 C 0.04429(12) 0.7978(2) 0.1879(4)
H7 H 0.0744 0.7564 0.1447
C8 C 0.0000 0.7374(4) 0.2500
C9 C 0.0000 0.6031(4) 0.2500
C10 C -0.04717(16) 0.5383(3) 0.2075(5)
H8 H -0.0800 0.5778 0.1805
C11 C -0.04431(18) 0.4138(3) 0.2061(5)
H9 H -0.0758 0.3716 0.1719
C12 C 0.20695(14) 1.3244(3) 0.3573(4)
H10 H 0.2052 1.2418 0.3790
Co1A Co -0.2500 1.2500 0.5000
O1F O 0.19869(10) 1.36935(19) -0.1536(3)
H1F H 0.2002(17) 1.368(3) -0.2643(14)
H2F H 0.1944(16) 1.4371(15) -0.110(4)
O2F O 0.27231(10) 1.14251(18) -0.2125(3)
O3F O 0.31147(10) 1.1073(2) -0.4744(3)
N1A N -0.17914(11) 1.1358(2) 0.4662(3)
N1F N 0.32086(11) 1.3642(2) -0.0338(3)
C1A C -0.13056(14) 1.1840(3) 0.4289(4)
H3A H -0.1269 1.2675 0.4368
C2A C -0.08571(14) 1.1183(3) 0.3798(4)
H4A H -0.0528 1.1564 0.3542
C3A C -0.09050(13) 0.9933(3) 0.3690(4)
C4A C -0.13993(14) 0.9416(3) 0.4111(4)
H5A H -0.1444 0.8583 0.4071
C5A C -0.18262(14) 1.0151(3) 0.4591(4)
H6A H -0.2157 0.9791 0.4883
C6A C -0.04323(13) 0.9200(3) 0.3094(4)
C7A C -0.04429(12) 0.7978(2) 0.3121(4)
H7A H -0.0744 0.7564 0.3553
C10A C 0.04717(16) 0.5383(3) 0.2925(5)
H8A H 0.0800 0.5778 0.3195
C11A C 0.04431(18) 0.4138(3) 0.2939(5)
H9A H 0.0758 0.3716 0.3281
C12F C 0.29305(14) 1.1756(3) -0.3573(4)
H10F H 0.2948 1.2582 -0.3790
loop_
_geom_bond_atom_site_label_1
_geom_bond_atom_site_label_2
_geom_bond_site_symmetry_1
_geom_bond_site_symmetry_2
Co1 O1 1_555 1_555
O1 H1 1_555 1_555
H2 O1 1_555 1_555
O2 Co1 1_555 1_555
O3 C12 1_555 1_555
N1 Co1 1_555 1_555
N2 C6 1_555 1_555
N3 C11 1_555 1_555
C1 N1 1_555 1_555
H3 C1 1_555 1_555
C2 C1 1_555 1_555
H4 C2 1_555 1_555
C3 C2 1_555 1_555
C4 C3 1_555 1_555
H5 C4 1_555 1_555
C5 N1 1_555 1_555
H6 C5 1_555 1_555
C6 C3 1_555 1_555
C7 C6 1_555 1_555
H7 C7 1_555 1_555
C8 C7 1_555 1_555
C9 C8 1_555 1_555
C10 C9 1_555 1_555
H8 C10 1_555 1_555
C11 C10 1_555 1_555
H9 C11 1_555 1_555
C12 O2 1_555 1_555
H10 C12 1_555 1_555
Co1A N1A 1_555 1_555
O1F Co1 1_555 1_555
H1F O1F 1_555 1_555
H2F O1F 1_555 1_555
O2F Co1 1_555 1_555
O3F C12F 1_555 1_555
N1A C1A 1_555 1_555
N1F Co1 1_555 1_555
C1A H3A 1_555 1_555
C2A C1A 1_555 1_555
H4A C2A 1_555 1_555
C3A C2A 1_555 1_555
C4A C3A 1_555 1_555
H5A C4A 1_555 1_555
C5A N1A 1_555 1_555
H6A C5A 1_555 1_555
C6A N2 1_555 1_555
C7A C8 1_555 1_555
H7A C7A 1_555 1_555
C10A C9 1_555 1_555
H8A C10A 1_555 1_555
C11A N3 1_555 1_555
H9A C11A 1_555 1_555
C12F O2F 1_555 1_555
H10F C12F 1_555 1_555
C4 C5 1_555 1_555
C3A C6A 1_555 1_555
C4A C5A 1_555 1_555
C6A C7A 1_555 1_555
C10A C11A 1_555 1_555

#END
