
#######################################################################
#
#                 Cambridge Crystallographic Data Centre
#                                CCDC 
#
#######################################################################
#
# If this CIF has been generated from an entry in the Cambridge 
# Structural Database, then it will include bibliographic, chemical, 
# crystal, experimental, refinement or atomic coordinate data resulting 
# from the CCDC's data processing and validation procedures.
#
#######################################################################

data_ETUSES
_symmetry_cell_setting           monoclinic
_symmetry_space_group_name_H-M   'C 2/c'
_symmetry_Int_Tables_number      15
_space_group_name_Hall           '-C 2yn'
loop_
_symmetry_equiv_pos_site_id
_symmetry_equiv_pos_as_xyz
1 x,y,z
2 -x,y,1/2-z
3 1/2+x,1/2+y,z
4 1/2-x,1/2+y,1/2-z
5 -x,-y,-z
6 x,-y,1/2+z
7 1/2-x,1/2-y,-z
8 1/2+x,1/2-y,1/2+z
_cell_length_a                   16.057(3)
_cell_length_b                   6.3709(10)
_cell_length_c                   15.630(3)
_cell_angle_alpha                90
_cell_angle_beta                 95.393(4)
_cell_angle_gamma                90
_cell_volume                     1591.83
loop_
_atom_site_label
_atom_site_type_symbol
_atom_site_fract_x
_atom_site_fract_y
_atom_site_fract_z
Zn1 Zn 0.5000 0.96825(6) 0.2500
S1 S 0.12091(5) 0.98792(11) 0.03086(5)
N1 N 0.37305(12) 0.9762(3) 0.19086(13)
O1 O 0.03140(13) 0.7681(4) 0.16602(14)
O2 O 0.05159(15) 0.4525(4) 0.12413(14)
O3 O 0.5000 0.6356(4) 0.2500
H1 H 0.4845 0.5927 0.2954
C1 C 0.21478(15) 0.9755(4) 0.09745(16)
C2 C 0.24687(15) 0.7966(4) 0.13868(17)
H2 H 0.2162 0.6726 0.1360
C3 C 0.32493(15) 0.8043(4) 0.18384(17)
H3 H 0.3454 0.6825 0.2111
C4 C 0.34017(16) 1.1504(4) 0.15408(17)
H4 H 0.3713 1.2735 0.1597
C5 C 0.26277(16) 1.1574(4) 0.10832(18)
H5 H 0.2425 1.2835 0.0846
C6 C 0.08449(15) 0.7230(4) 0.02936(15)
H6 H 0.0389 0.7099 -0.0156
H7 H 0.1294 0.6325 0.0142
C7 C 0.05446(15) 0.6435(5) 0.11276(16)
Zn1B Zn 0.0000 0.46825(6) 0.2500
Zn1B_2 Zn 1.0000 0.46825(6) 0.2500
S1A S 0.87909(5) 0.98792(11) 0.46914(5)
N1A N 0.62695(12) 0.9762(3) 0.30914(13)
O1A O 0.96860(13) 0.7681(4) 0.33398(14)
O1B O 0.53140(13) 1.2681(4) 0.16602(14)
O1C O 0.46860(13) 1.2681(4) 0.33398(14)
O2A O 0.94841(15) 0.4525(4) 0.37587(14)
O2B O 0.55159(15) 0.9525(4) 0.12413(14)
O2C O 0.44841(15) 0.9525(4) 0.37587(14)
H1A H 0.5155 0.5927 0.2046
C1A C 0.78522(15) 0.9755(4) 0.40255(16)
C2A C 0.75313(15) 0.7966(4) 0.36132(17)
H2A H 0.7838 0.6726 0.3640
C3A C 0.67507(15) 0.8043(4) 0.31616(17)
H3A H 0.6546 0.6825 0.2889
C4A C 0.65983(16) 1.1504(4) 0.34592(17)
H4A H 0.6287 1.2735 0.3403
C5A C 0.73723(16) 1.1574(4) 0.39168(18)
H5A H 0.7575 1.2835 0.4154
C6A C 0.91551(15) 0.7230(4) 0.47064(15)
H6A H 0.9611 0.7099 0.5156
H7A H 0.8706 0.6325 0.4858
C7A C 0.94554(15) 0.6435(5) 0.38724(16)
loop_
_geom_bond_atom_site_label_1
_geom_bond_atom_site_label_2
_geom_bond_site_symmetry_1
_geom_bond_site_symmetry_2
Zn1 N1 1_555 1_555
S1 C1 1_555 1_555
N1 C3 1_555 1_555
O1 C7 1_555 1_555
O2 C7 1_555 1_555
O3 Zn1 1_555 1_555
H1 O3 1_555 1_555
C1 C2 1_555 1_555
C2 H2 1_555 1_555
C3 C2 1_555 1_555
H3 C3 1_555 1_555
C4 N1 1_555 1_555
H4 C4 1_555 1_555
C5 C1 1_555 1_555
H5 C5 1_555 1_555
C6 S1 1_555 1_555
H6 C6 1_555 1_555
H7 C6 1_555 1_555
C7 C6 1_555 1_555
Zn1B O1 1_555 1_555
Zn1B_2 O1A 1_555 1_555
S1A C1A 1_555 1_555
N1A Zn1 1_555 1_555
O1A C7A 1_555 1_555
O1B Zn1 1_555 1_555
O1C Zn1 1_555 1_555
O2A Zn1B_2 1_555 1_555
O2B Zn1 1_555 1_555
O2C Zn1 1_555 1_555
H1A O3 1_555 1_555
C1A C2A 1_555 1_555
C2A H2A 1_555 1_555
C3A N1A 1_555 1_555
H3A C3A 1_555 1_555
C4A N1A 1_555 1_555
H4A C4A 1_555 1_555
C5A C1A 1_555 1_555
H5A C5A 1_555 1_555
C6A S1A 1_555 1_555
H6A C6A 1_555 1_555
H7A C6A 1_555 1_555
C7A O2A 1_555 1_555
O2 Zn1B 1_555 1_555
C4 C5 1_555 1_555
C2A C3A 1_555 1_555
C4A C5A 1_555 1_555
C6A C7A 1_555 1_555

#END
