
#######################################################################
#
#                 Cambridge Crystallographic Data Centre
#                                CCDC 
#
#######################################################################
#
# If this CIF has been generated from an entry in the Cambridge 
# Structural Database, then it will include bibliographic, chemical, 
# crystal, experimental, refinement or atomic coordinate data resulting 
# from the CCDC's data processing and validation procedures.
#
#######################################################################

data_ETUSUI
_symmetry_cell_setting           monoclinic
_symmetry_space_group_name_H-M   'C 2/c'
_symmetry_Int_Tables_number      15
_space_group_name_Hall           '-C 2yn'
loop_
_symmetry_equiv_pos_site_id
_symmetry_equiv_pos_as_xyz
1 x,y,z
2 -x,y,1/2-z
3 1/2+x,1/2+y,z
4 1/2-x,1/2+y,1/2-z
5 -x,-y,-z
6 x,-y,1/2+z
7 1/2-x,1/2-y,-z
8 1/2+x,1/2-y,1/2+z
_cell_length_a                   19.981(4)
_cell_length_b                   7.7616(16)
_cell_length_c                   13.868(3)
_cell_angle_alpha                90
_cell_angle_beta                 121.49(3)
_cell_angle_gamma                90
_cell_volume                     1833.98
loop_
_atom_site_label
_atom_site_type_symbol
_atom_site_fract_x
_atom_site_fract_y
_atom_site_fract_z
Dy1 Dy 0.268767(7) 0.716662(17) 0.229964(11)
O1 O 0.18695(12) 0.9822(3) 0.13564(17)
O2 O 0.16984(14) 0.7651(3) 0.02657(18)
O3 O 0.19605(15) 1.2559(3) -0.1745(2)
O4 O 0.18010(14) 0.9767(3) -0.1583(2)
C1 C 0.15245(16) 0.9157(4) 0.0371(2)
C2 C 0.09015(17) 1.0166(4) -0.0632(2)
H1 H 0.0506 1.0544 -0.0473
H2 H 0.0648 0.9413 -0.1286
C3 C 0.12259(19) 1.1741(4) -0.0920(3)
H3 H 0.0791 1.2478 -0.1429
H4 H 0.1556 1.2388 -0.0231
C4 C 0.16978(17) 1.1315(4) -0.1461(2)
O5 O 0.32431(11) 0.9822(3) 0.34063(17)
O6 O 0.40702(13) 0.7716(3) 0.3808(2)
C5 C 0.39496(16) 0.9239(4) 0.3932(2)
C6 C 0.46055(17) 1.0439(4) 0.4690(3)
H5 H 0.4498 1.0936 0.5237
H6 H 0.4624 1.1373 0.4239
O7 O 0.33328(14) 0.8880(3) 0.15135(19)
H7 H 0.3304 0.9973 0.1475
H8 H 0.3319 0.8471 0.0935
Dy1E Dy 0.268767(7) 1.283338(17) 0.729964(11)
Dy1C Dy 0.231233(7) 1.216662(17) 0.270036(11)
Dy1E_2 Dy 0.268767(7) 1.283338(17) -0.270036(11)
Dy1F Dy 0.231233(7) 0.783338(17) -0.229964(11)
Dy1D Dy 0.731233(7) 1.283338(17) 0.770036(11)
Dy1G Dy 0.768767(7) 0.783338(17) 0.729964(11)
Dy1F_2 Dy 0.231233(7) 0.783338(17) 0.770036(11)
O1E O 0.18695(12) 1.0178(3) 0.63564(17)
O1C O 0.31305(12) 0.4822(3) 0.36436(17)
O1F O 0.31305(12) 1.5178(3) 0.86436(17)
O2E O 0.16984(14) 1.2349(3) 0.52657(18)
O3E O 0.19605(15) 0.7441(3) 0.3255(2)
O3_2 O 0.19605(15) 1.2559(3) 0.8255(2)
O4E O 0.18010(14) 1.0233(3) 0.3417(2)
O4F O 0.31990(14) 0.5233(3) 0.1583(2)
O4C O 0.31990(14) 1.4767(3) 0.6583(2)
C1E C 0.15245(16) 1.0843(4) 0.5371(2)
C2E C 0.09015(17) 0.9834(4) 0.4368(2)
H1E H 0.0506 0.9456 0.4527
H2E H 0.0648 1.0587 0.3714
C3E C 0.12259(19) 0.8259(4) 0.4080(3)
H3E H 0.0791 0.7522 0.3571
H4E H 0.1556 0.7612 0.4769
C4E C 0.16978(17) 0.8685(4) 0.3539(2)
O5D O 0.67569(11) 1.0178(3) 0.65937(17)
O5C O 0.17569(11) 0.4822(3) 0.15937(17)
O5E O 0.32431(11) 1.0178(3) 0.84063(17)
O5F O 0.17569(11) 1.5178(3) 0.65937(17)
O6D O 0.59298(13) 1.2284(3) 0.6192(2)
O6E O 0.40702(13) 1.2284(3) 0.8808(2)
C5D C 0.60504(16) 1.0761(4) 0.6068(2)
C6D C 0.53945(17) 0.9561(4) 0.5310(3)
H5D H 0.5502 0.9064 0.4763
H6D H 0.5376 0.8627 0.5761
O7E O 0.33328(14) 1.1120(3) 0.65135(19)
H7E H 0.3304 1.0027 0.6475
H8E H 0.3319 1.1529 0.5935
O8 O 0.5000 0.9782(13) 0.2500
H9 H 0.4592 0.9198 0.2324
H9A H 0.5408 0.9198 0.2676
loop_
_geom_bond_atom_site_label_1
_geom_bond_atom_site_label_2
_geom_bond_site_symmetry_1
_geom_bond_site_symmetry_2
Dy1 O1 1_555 1_555
O1 C1 1_555 1_555
O2 Dy1 1_555 1_555
O3 C4 1_555 1_555
O4 C4 1_555 1_555
C1 O2 1_555 1_555
C2 C1 1_555 1_555
H1 C2 1_555 1_555
H2 C2 1_555 1_555
C3 C2 1_555 1_555
H3 C3 1_555 1_555
H4 C3 1_555 1_555
C4 C3 1_555 1_555
O5 Dy1 1_555 1_555
O6 Dy1 1_555 1_555
C5 O5 1_555 1_555
C6 C5 1_555 1_555
H5 C6 1_555 1_555
H6 C6 1_555 1_555
O7 Dy1 1_555 1_555
H7 O7 1_555 1_555
H8 O7 1_555 1_555
O8 H9 1_555 1_555
Dy1E O1E 1_555 1_555
Dy1C O1 1_555 1_555
Dy1E_2 O3 1_555 1_555
Dy1F O4 1_555 1_555
Dy1D O5D 1_555 1_555
Dy1G O5D 1_555 1_555
Dy1F_2 O1E 1_555 1_555
O1E C1E 1_555 1_555
O1C Dy1 1_555 1_555
O1F Dy1E 1_555 1_555
O2E Dy1E 1_555 1_555
O3E Dy1 1_555 1_555
O3_2 Dy1E 1_555 1_555
O4E Dy1C 1_555 1_555
O4F Dy1 1_555 1_555
O4C Dy1E 1_555 1_555
C1E O2E 1_555 1_555
C2E C1E 1_555 1_555
H1E C2E 1_555 1_555
H2E C2E 1_555 1_555
C3E C2E 1_555 1_555
H3E C3E 1_555 1_555
H4E C3E 1_555 1_555
C4E O3E 1_555 1_555
O5D C5D 1_555 1_555
O5C Dy1 1_555 1_555
O5E Dy1E 1_555 1_555
O5F Dy1E 1_555 1_555
O6D Dy1D 1_555 1_555
O6E Dy1E 1_555 1_555
C5D O6D 1_555 1_555
C6D C6 1_555 1_555
H5D C6D 1_555 1_555
H6D C6D 1_555 1_555
O7E Dy1E 1_555 1_555
H7E O7E 1_555 1_555
H8E O7E 1_555 1_555
H9A O8 1_555 1_555
O5 Dy1C 1_555 1_555
O6 C5 1_555 1_555
Dy1F_2 O5E 1_555 1_555
O4E C4E 1_555 1_555
C3E C4E 1_555 1_555
C5D C6D 1_555 1_555

#END
