
#######################################################################
#
#                 Cambridge Crystallographic Data Centre
#                                CCDC 
#
#######################################################################
#
# If this CIF has been generated from an entry in the Cambridge 
# Structural Database, then it will include bibliographic, chemical, 
# crystal, experimental, refinement or atomic coordinate data resulting 
# from the CCDC's data processing and validation procedures.
#
#######################################################################

data_ETUTOD
_symmetry_cell_setting           monoclinic
_symmetry_space_group_name_H-M   'P 21/c'
_symmetry_Int_Tables_number      14
_space_group_name_Hall           '-P 2ybc'
loop_
_symmetry_equiv_pos_site_id
_symmetry_equiv_pos_as_xyz
1 x,y,z
2 -x,1/2+y,1/2-z
3 -x,-y,-z
4 x,1/2-y,1/2+z
_cell_length_a                   14.5065(6)
_cell_length_b                   6.6107(3)
_cell_length_c                   7.3708(3)
_cell_angle_alpha                90
_cell_angle_beta                 98.179(2)
_cell_angle_gamma                90
_cell_volume                     699.656
loop_
_atom_site_label
_atom_site_type_symbol
_atom_site_fract_x
_atom_site_fract_y
_atom_site_fract_z
Mn1 Mn 0.5000 1.0000 0.5000
O1 O 0.60238(12) 0.5833(3) 0.2277(2)
O2 O 0.58287(12) 0.9092(3) 0.2904(2)
O3 O 0.57162(13) 1.2939(3) 0.5150(3)
H1 H 0.575(3) 1.370(6) 0.604(6)
H2 H 0.566(3) 1.361(6) 0.425(6)
F1 F 0.99509(11) 0.7768(3) 0.6699(2)
C1 C 0.63126(16) 0.7488(4) 0.2983(3)
C2 C 0.72835(17) 0.7562(4) 0.3993(3)
C3 C 0.76860(18) 0.9415(4) 0.4534(4)
H3 H 0.7340 1.0629 0.4285
C4 C 0.85953(19) 0.9492(4) 0.5439(4)
H4 H 0.8885 1.0748 0.5792
C5 C 0.90623(17) 0.7696(5) 0.5807(4)
C6 C 0.86858(19) 0.5840(4) 0.5321(4)
H5 H 0.9030 0.4633 0.5614
C7 C 0.77816(18) 0.5780(4) 0.4383(4)
H6 H 0.7505 0.4517 0.4008
Mn1A Mn 0.5000 0.5000 0.0000
Mn1A_2 Mn 0.5000 1.5000 1.0000
O1B O 0.39762(12) 1.4167(3) 0.7723(2)
O1A O 0.39762(12) 1.0833(3) 0.2723(2)
O1C O 0.60238(12) 0.9167(3) 0.7277(2)
O2B O 0.41713(12) 1.0908(3) 0.7096(2)
O3B O 0.42838(13) 0.7061(3) 0.4850(3)
H1B H 0.425(3) 0.630(6) 0.396(6)
H2B H 0.434(3) 0.639(6) 0.575(6)
F1B F 0.00491(11) 1.2232(3) 0.3301(2)
C1B C 0.36874(16) 1.2512(4) 0.7017(3)
C2B C 0.27165(17) 1.2438(4) 0.6007(3)
C3B C 0.23140(18) 1.0585(4) 0.5466(4)
H3B H 0.2660 0.9371 0.5715
C4B C 0.14047(19) 1.0508(4) 0.4561(4)
H4B H 0.1115 0.9252 0.4208
C5B C 0.09377(17) 1.2304(5) 0.4193(4)
C6B C 0.13142(19) 1.4160(4) 0.4679(4)
H5B H 0.0970 1.5367 0.4386
C7B C 0.22184(18) 1.4220(4) 0.5617(4)
H6B H 0.2495 1.5483 0.5992
loop_
_geom_bond_atom_site_label_1
_geom_bond_atom_site_label_2
_geom_bond_site_symmetry_1
_geom_bond_site_symmetry_2
Mn1 O2 1_555 1_555
O1 C1 1_555 1_555
O2 C1 1_555 1_555
O3 Mn1 1_555 1_555
H1 O3 1_555 1_555
H2 O3 1_555 1_555
F1 C5 1_555 1_555
C1 C2 1_555 1_555
C2 C3 1_555 1_555
C3 H3 1_555 1_555
C4 C3 1_555 1_555
H4 C4 1_555 1_555
C5 C4 1_555 1_555
C6 C5 1_555 1_555
H5 C6 1_555 1_555
C7 C2 1_555 1_555
H6 C7 1_555 1_555
Mn1A O1 1_555 1_555
Mn1A_2 O1B 1_555 1_555
O1B C1B 1_555 1_555
O1A Mn1 1_555 1_555
O1C Mn1 1_555 1_555
O2B Mn1 1_555 1_555
O3B Mn1 1_555 1_555
H1B O3B 1_555 1_555
H2B O3B 1_555 1_555
F1B C5B 1_555 1_555
C1B O2B 1_555 1_555
C2B C1B 1_555 1_555
C3B C2B 1_555 1_555
H3B C3B 1_555 1_555
C4B C3B 1_555 1_555
H4B C4B 1_555 1_555
C5B C4B 1_555 1_555
C6B C5B 1_555 1_555
H5B C6B 1_555 1_555
C7B C2B 1_555 1_555
H6B C7B 1_555 1_555
C6 C7 1_555 1_555
C6B C7B 1_555 1_555

#END
