
#######################################################################
#
#                 Cambridge Crystallographic Data Centre
#                                CCDC 
#
#######################################################################
#
# If this CIF has been generated from an entry in the Cambridge 
# Structural Database, then it will include bibliographic, chemical, 
# crystal, experimental, refinement or atomic coordinate data resulting 
# from the CCDC's data processing and validation procedures.
#
#######################################################################

data_ETUXUN
_symmetry_cell_setting           monoclinic
_symmetry_space_group_name_H-M   'P 21/n'
_symmetry_Int_Tables_number      14
_space_group_name_Hall           '-P 2yn'
loop_
_symmetry_equiv_pos_site_id
_symmetry_equiv_pos_as_xyz
1 x,y,z
2 1/2-x,1/2+y,1/2-z
3 -x,-y,-z
4 1/2+x,1/2-y,1/2+z
_cell_length_a                   9.5058(14)
_cell_length_b                   10.4647(15)
_cell_length_c                   12.1615(17)
_cell_angle_alpha                90
_cell_angle_beta                 99.766(2)
_cell_angle_gamma                90
_cell_volume                     1192.24
loop_
_atom_site_label
_atom_site_type_symbol
_atom_site_fract_x
_atom_site_fract_y
_atom_site_fract_z
Ag1 Ag 0.20025(7) 0.15378(7) 0.49084(6)
C1 C 0.3824(8) -0.0492(8) 0.3745(6)
H1 H 0.3348 -0.1065 0.4136
C2 C 0.4710(9) -0.0969(8) 0.3058(7)
H2 H 0.4815 -0.1846 0.2981
C3 C 0.5436(8) -0.0134(7) 0.2488(6)
H3 H 0.6034 -0.0437 0.2015
C4 C 0.5264(7) 0.1159(6) 0.2628(6)
C5 C 0.6048(7) 0.2087(6) 0.2031(6)
C6 C 0.5831(7) 0.3489(6) 0.2189(5)
C7 C 0.4826(7) 0.3887(7) 0.2938(5)
C8 C 0.4591(7) 0.5165(7) 0.3107(6)
H4 H 0.5058 0.5787 0.2758
C9 C 0.3654(8) 0.5503(8) 0.3800(6)
H5 H 0.3460 0.6358 0.3918
C10 C 0.3008(8) 0.4552(8) 0.4318(6)
H6 H 0.2393 0.4790 0.4801
C11 C 0.4114(7) 0.2975(6) 0.3479(5)
C12 C 0.4337(7) 0.1596(7) 0.3331(5)
N1 N 0.3214(6) 0.3316(6) 0.4165(5)
N2 N 0.3618(6) 0.0775(6) 0.3874(5)
N3 N -0.1319(8) 0.2293(8) 0.4504(7)
O1 O 0.6449(5) 0.4259(5) 0.1699(4)
O2 O 0.6867(6) 0.1721(5) 0.1428(5)
O3 O -0.0348(6) 0.2265(7) 0.3995(6)
O4 O -0.1158(8) 0.1860(9) 0.5450(7)
O5 O -0.2488(6) 0.2729(7) 0.4152(5)
Ag1C Ag 0.70025(7) 0.34622(7) -0.00916(6)
O1C O 0.1449(5) 0.0741(5) 0.6699(4)
O2C O 0.1867(6) 0.3279(5) 0.6428(5)
loop_
_geom_bond_atom_site_label_1
_geom_bond_atom_site_label_2
_geom_bond_site_symmetry_1
_geom_bond_site_symmetry_2
Ag1 N1 1_555 1_555
C1 H1 1_555 1_555
C2 C1 1_555 1_555
H2 C2 1_555 1_555
C3 C2 1_555 1_555
H3 C3 1_555 1_555
C4 C3 1_555 1_555
C5 C4 1_555 1_555
C6 C5 1_555 1_555
C7 C6 1_555 1_555
C8 C7 1_555 1_555
H4 C8 1_555 1_555
C9 C8 1_555 1_555
H5 C9 1_555 1_555
C10 C9 1_555 1_555
H6 C10 1_555 1_555
C11 C7 1_555 1_555
C12 C4 1_555 1_555
N1 C10 1_555 1_555
N2 Ag1 1_555 1_555
N3 O3 1_555 1_555
O1 C6 1_555 1_555
O2 C5 1_555 1_555
O3 Ag1 1_555 1_555
O4 N3 1_555 1_555
O5 N3 1_555 1_555
Ag1C O1 1_555 1_555
O1C Ag1 1_555 1_555
O2C Ag1 1_555 1_555
C1 N2 1_555 1_555
C11 C12 1_555 1_555
C11 N1 1_555 1_555
C12 N2 1_555 1_555
O2 Ag1C 1_555 1_555

#END
