
#######################################################################
#
#                 Cambridge Crystallographic Data Centre
#                                CCDC 
#
#######################################################################
#
# If this CIF has been generated from an entry in the Cambridge 
# Structural Database, then it will include bibliographic, chemical, 
# crystal, experimental, refinement or atomic coordinate data resulting 
# from the CCDC's data processing and validation procedures.
#
#######################################################################

data_ETUZNT
_symmetry_cell_setting           orthorhombic
_symmetry_space_group_name_H-M   'P b 21 a'
_symmetry_Int_Tables_number      29
_space_group_name_Hall           'P -2a -2ab'
loop_
_symmetry_equiv_pos_site_id
_symmetry_equiv_pos_as_xyz
1 x,y,z
2 1/2-x,1/2+y,z
3 1/2+x,y,-z
4 -x,1/2+y,-z
_cell_length_a                   10.82(2)
_cell_length_b                   28.86(2)
_cell_length_c                   8.64(2)
_cell_angle_alpha                90
_cell_angle_beta                 90
_cell_angle_gamma                90
_cell_volume                     2697.97
loop_
_atom_site_label
_atom_site_type_symbol
_atom_site_fract_x
_atom_site_fract_y
_atom_site_fract_z
C1 C -0.66900 -0.70090 0.37080
C5 C -0.76800 -0.77310 0.35030
C6 C -0.85430 -0.73560 0.43100
C10 C -0.63030 -0.52060 0.08450
C11 C -0.46840 -0.46610 0.05680
C12 C -0.53540 -0.47380 -0.09790
H1 H -0.74700 -0.80300 0.42100
H9 H -0.57900 -0.75700 0.25200
H10 H -0.81700 -0.66100 0.44400
H11 H -0.53100 -0.49100 0.28400
H12 H -0.81300 -0.78600 0.24300
H13 H -0.69000 -0.51900 -0.14100
H18 H -0.94100 -0.73500 0.38000
H19 H -0.86200 -0.74700 0.55400
H20 H -0.45800 -0.43300 0.08600
H21 H -0.37700 -0.48400 0.04300
H22 H -0.47700 -0.48400 -0.18400
H23 H -0.57900 -0.44000 -0.12300
N1 N -0.65490 -0.74500 0.31380
N2 N -0.78090 -0.69450 0.41770
N5 N -0.54450 -0.49220 0.16430
N6 N -0.62570 -0.50660 -0.05960
O1 O -0.26500 -0.60100 0.47320
O2 O -0.37180 -0.58620 0.23000
O3 O -0.24850 -0.52620 0.35500
S1 S -0.55300 -0.66500 0.33690
S2 S -0.73190 -0.55620 0.17220
S3 S -0.47910 -0.54450 0.49870
S4 S -0.33180 -0.56660 0.37470
Zn1 Zn -0.62600 -0.59020 0.37830
O1B O -0.76500 -0.60100 0.52680
Zn1B Zn -0.12600 -0.59020 0.62170
C2 C -0.34080 -0.37810 0.41990
C3 C -0.18070 -0.42600 0.47460
C4 C -0.26640 -0.42130 0.60890
C7 C -0.38620 -0.19320 0.14260
C8 C -0.57110 -0.15790 0.05820
C9 C -0.49080 -0.12150 0.12840
H2 H -0.16900 -0.46100 0.44000
H3 H -0.21100 -0.41200 0.71500
H4 H -0.30900 -0.45400 0.63700
H5 H -0.66000 -0.16100 0.11500
H6 H -0.58600 -0.15100 -0.06300
H7 H -0.52600 -0.11300 0.24600
H8 H -0.48300 -0.09200 0.06300
H14 H -0.41300 -0.37100 0.66000
H15 H -0.23300 -0.39600 0.24800
H16 H -0.52800 -0.23400 0.04800
H17 H -0.28600 -0.12400 0.15200
H24 H -0.09100 -0.43900 0.49600
N3 N -0.49770 -0.20090 0.08020
N4 N -0.37040 -0.14840 0.14410
N7 N -0.25450 -0.39890 0.35810
N8 N -0.35460 -0.38690 0.58250
O4 O 0.03790 -0.36910 0.13630
O5 O -0.07880 -0.30790 0.26230
O6 O 0.01310 -0.29580 0.01350
S5 S -0.44370 -0.33920 0.34490
S6 S -0.26690 -0.23300 0.16590
S7 S -0.19950 -0.35490 0.00930
S8 S -0.04310 -0.33160 0.11380
Zn2 Zn -0.34060 -0.30680 0.13130
O6B O -0.48690 -0.29580 -0.01350
Zn2B Zn 0.15940 -0.30680 -0.13130
loop_
_geom_bond_atom_site_label_1
_geom_bond_atom_site_label_2
_geom_bond_site_symmetry_1
_geom_bond_site_symmetry_2
C1 N1 1_555 1_555
C2 N7 1_555 1_555
C3 C4 1_555 1_555
C4 H3 1_555 1_555
C5 C6 1_555 1_555
C6 H18 1_555 1_555
C7 N3 1_555 1_555
C8 C9 1_555 1_555
C9 H7 1_555 1_555
C10 N5 1_555 1_555
C11 C12 1_555 1_555
C12 H22 1_555 1_555
H1 C5 1_555 1_555
H2 C3 1_555 1_555
H4 C4 1_555 1_555
H5 C8 1_555 1_555
H6 C8 1_555 1_555
H8 C9 1_555 1_555
H9 N1 1_555 1_555
H10 N2 1_555 1_555
H11 N5 1_555 1_555
H12 C5 1_555 1_555
H13 N6 1_555 1_555
H14 N8 1_555 1_555
H15 N7 1_555 1_555
H16 N3 1_555 1_555
H17 N4 1_555 1_555
H19 C6 1_555 1_555
H20 C11 1_555 1_555
H21 C11 1_555 1_555
H23 C12 1_555 1_555
H24 C3 1_555 1_555
N1 C5 1_555 1_555
N2 C1 1_555 1_555
N3 C8 1_555 1_555
N4 C7 1_555 1_555
N5 C11 1_555 1_555
N6 C10 1_555 1_555
N7 C3 1_555 1_555
N8 C2 1_555 1_555
O1 S4 1_555 1_555
O2 S4 1_555 1_555
O3 S4 1_555 1_555
O4 S8 1_555 1_555
O5 S8 1_555 1_555
O6 S8 1_555 1_555
S1 C1 1_555 1_555
S2 C10 1_555 1_555
S3 S4 1_555 1_555
S5 C2 1_555 1_555
S6 C7 1_555 1_555
S7 S8 1_555 1_555
Zn1 S1 1_555 1_555
Zn2 S5 1_555 1_555
O1B Zn1 1_555 1_555
Zn1B O1 1_555 1_555
O6B Zn2 1_555 1_555
Zn2B O6 1_555 1_555
C4 N8 1_555 1_555
C6 N2 1_555 1_555
C9 N4 1_555 1_555
C12 N6 1_555 1_555
S2 Zn1 1_555 1_555
S3 Zn1 1_555 1_555
S6 Zn2 1_555 1_555
S7 Zn2 1_555 1_555

#END
