
#######################################################################
#
#                 Cambridge Crystallographic Data Centre
#                                CCDC 
#
#######################################################################
#
# If this CIF has been generated from an entry in the Cambridge 
# Structural Database, then it will include bibliographic, chemical, 
# crystal, experimental, refinement or atomic coordinate data resulting 
# from the CCDC's data processing and validation procedures.
#
#######################################################################

data_EVAXOO
_symmetry_cell_setting           monoclinic
_symmetry_space_group_name_H-M   'P c'
_symmetry_Int_Tables_number      7
_space_group_name_Hall           'P -2yc'
loop_
_symmetry_equiv_pos_site_id
_symmetry_equiv_pos_as_xyz
1 x,y,z
2 x,-y,1/2+z
_cell_length_a                   11.6912(15)
_cell_length_b                   11.3331(15)
_cell_length_c                   10.2314(12)
_cell_angle_alpha                90
_cell_angle_beta                 97.238(3)
_cell_angle_gamma                90
_cell_volume                     1344.83
loop_
_atom_site_label
_atom_site_type_symbol
_atom_site_fract_x
_atom_site_fract_y
_atom_site_fract_z
Cu1 Cu 1.00757(7) 0.89067(7) 0.74074(7)
O1 O 1.0923(5) 0.9928(4) 0.9235(5)
O2 O 1.0387(5) 1.2585(4) 1.3297(5)
O3 O 0.8602(7) 1.1101(6) 1.3099(8)
N1 N 1.1523(6) 1.1281(6) 1.1642(7)
N2 N 0.9673(5) 0.9568(5) 1.1533(5)
N3 N 1.0692(6) 1.3513(5) 1.2638(6)
N4 N 0.7639(6) 1.0758(6) 1.2390(7)
C1 C 1.1453(7) 0.9407(6) 1.0427(7)
H1 H 1.1968 0.8790 1.0172
C2 C 1.2199(7) 1.0265(7) 1.1275(8)
H2 H 1.2815 1.0541 1.0799
H3 H 1.2547 0.9867 1.2066
C3 C 1.1922(7) 1.2309(7) 1.1397(8)
C4 C 1.0559(7) 0.8784(6) 1.1168(8)
H4 H 1.0954 0.8424 1.1960
H5 H 1.0196 0.8158 1.0618
C5 C 0.8645(8) 0.9210(6) 1.1279(8)
H6 H 0.8544 0.8479 1.0868
C6 C 1.1448(7) 1.3444(7) 1.1731(8)
C7 C 1.1791(8) 1.4457(8) 1.1146(9)
H7 H 1.2299 1.4406 1.0518
C8 C 1.1390(11) 1.5539(8) 1.1481(12)
H8 H 1.1654 1.6226 1.1122
C9 C 1.0593(10) 1.5585(7) 1.2356(11)
H9 H 1.0270 1.6305 1.2548
C10 C 1.0267(9) 1.4566(8) 1.2951(10)
H10 H 0.9752 1.4608 1.3572
C11 C 0.7615(7) 0.9803(7) 1.1551(8)
C12 C 0.6544(9) 0.9421(11) 1.0956(11)
H11 H 0.6489 0.8745 1.0436
C13 C 0.5565(11) 1.0046(14) 1.1138(14)
H12 H 0.4854 0.9817 1.0701
C14 C 0.5637(11) 1.0986(13) 1.1944(15)
H13 H 0.4971 1.1389 1.2084
C15 C 0.6681(8) 1.1356(9) 1.2563(10)
H14 H 0.6726 1.2020 1.3101
O2A O 1.0387(5) 0.7415(4) 0.8297(5)
O3A O 0.8602(7) 0.8899(6) 0.8099(8)
N1A N 1.1523(6) 0.8719(6) 0.6642(7)
N2A N 0.9673(5) 1.0432(5) 0.6533(5)
Cu1A Cu 1.00757(7) 1.10933(7) 1.24074(7)
Cl1 Cl 0.8621(2) 0.75316(18) 0.4419(2)
O4 O 0.8782(10) 0.7515(9) 0.5754(9)
O5 O 0.9734(8) 0.7935(8) 0.4043(10)
O6 O 0.7767(14) 0.8367(18) 0.404(2)
O7 O 0.8407(14) 0.6428(11) 0.3937(19)
Cl2 Cl 0.4093(3) 0.6826(3) 0.9223(4)
O8 O 0.5047(14) 0.711(2) 0.987(2)
O9 O 0.4333(13) 0.6596(12) 0.7938(14)
O10 O 0.338(3) 0.615(3) 0.952(3)
O11 O 0.358(3) 0.793(3) 0.903(3)
C16 C 0.4990(16) 0.6664(19) 0.330(2)
H15 H 0.5691 0.7111 0.3456
H16 H 0.4902 0.6367 0.2411
H17 H 0.5020 0.6015 0.3903
C17 C 0.3994(18) 0.7435(15) 0.3481(17)
N5 N 0.320(2) 0.7916(16) 0.360(2)
C18 C 0.6963(14) 0.5171(12) 0.6563(16)
C19 C 0.7536(13) 0.4271(13) 0.5723(15)
N6 N 0.7917(18) 0.3577(12) 0.5109(17)
loop_
_geom_bond_atom_site_label_1
_geom_bond_atom_site_label_2
_geom_bond_site_symmetry_1
_geom_bond_site_symmetry_2
Cu1 O1 1_555 1_555
O1 C1 1_555 1_555
O2 N3 1_555 1_555
O3 N4 1_555 1_555
N1 C2 1_555 1_555
N2 C4 1_555 1_555
N3 C6 1_555 1_555
N4 C11 1_555 1_555
C1 H1 1_555 1_555
C2 C1 1_555 1_555
H2 C2 1_555 1_555
H3 C2 1_555 1_555
C3 N1 1_555 1_555
C4 C1 1_555 1_555
H4 C4 1_555 1_555
H5 C4 1_555 1_555
C5 N2 1_555 1_555
H6 C5 1_555 1_555
C6 C3 1_555 1_555
C7 C6 1_555 1_555
H7 C7 1_555 1_555
C8 C7 1_555 1_555
H8 C8 1_555 1_555
C9 C8 1_555 1_555
H9 C9 1_555 1_555
C10 N3 1_555 1_555
H10 C10 1_555 1_555
C11 C5 1_555 1_555
C12 C11 1_555 1_555
H11 C12 1_555 1_555
C13 C12 1_555 1_555
H12 C13 1_555 1_555
C14 C13 1_555 1_555
H13 C14 1_555 1_555
C15 N4 1_555 1_555
H14 C15 1_555 1_555
Cl1 O4 1_555 1_555
O5 Cl1 1_555 1_555
O6 Cl1 1_555 1_555
O7 Cl1 1_555 1_555
Cl2 O8 1_555 1_555
O9 Cl2 1_555 1_555
O10 Cl2 1_555 1_555
O11 Cl2 1_555 1_555
C16 H15 1_555 1_555
H16 C16 1_555 1_555
H17 C16 1_555 1_555
C17 C16 1_555 1_555
N5 C17 1_555 1_555
C18 C19 1_555 1_555
C19 N6 1_555 1_555
O2A Cu1 1_555 1_555
O3A Cu1 1_555 1_555
N1A Cu1 1_555 1_555
N2A Cu1 1_555 1_555
Cu1A O2 1_555 1_555
O3 Cu1A 1_555 1_555
N1 Cu1A 1_555 1_555
N2 Cu1A 1_555 1_555
C9 C10 1_555 1_555
C14 C15 1_555 1_555

#END
