
#######################################################################
#
#                 Cambridge Crystallographic Data Centre
#                                CCDC 
#
#######################################################################
#
# If this CIF has been generated from an entry in the Cambridge 
# Structural Database, then it will include bibliographic, chemical, 
# crystal, experimental, refinement or atomic coordinate data resulting 
# from the CCDC's data processing and validation procedures.
#
#######################################################################

data_EVEPOK
_symmetry_cell_setting           orthorhombic
_symmetry_space_group_name_H-M   'P n m a'
_symmetry_Int_Tables_number      62
_space_group_name_Hall           '-P 2ac 2n'
loop_
_symmetry_equiv_pos_site_id
_symmetry_equiv_pos_as_xyz
1 x,y,z
2 1/2+x,y,1/2-z
3 x,1/2-y,z
4 1/2-x,1/2+y,1/2+z
5 -x,-y,-z
6 1/2-x,-y,1/2+z
7 -x,1/2+y,-z
8 1/2+x,1/2-y,1/2-z
_cell_length_a                   18.0011(14)
_cell_length_b                   7.6001(6)
_cell_length_c                   7.4731(6)
_cell_angle_alpha                90
_cell_angle_beta                 90
_cell_angle_gamma                90
_cell_volume                     1022.4
loop_
_atom_site_label
_atom_site_type_symbol
_atom_site_fract_x
_atom_site_fract_y
_atom_site_fract_z
Co1 Co 0.28653(2) 0.7500 0.73945(5)
O1 O 0.20028(14) 0.7500 0.9384(3)
N1 N 0.38003(15) 0.7500 0.5607(4)
O2 O 0.23762(9) 0.5559(2) 0.5789(2)
C1 C 0.3732(2) 0.7500 0.3821(5)
H1 H 0.3257 0.7500 0.3331
C2 C 0.44891(19) 0.7500 0.6266(5)
H2 H 0.4549 0.7500 0.7502
C3 C 0.5034(2) 0.7500 0.3383(5)
H3 H 0.5449 0.7500 0.2641
C4 C 0.5113(2) 0.7500 0.5216(5)
H4 H 0.5583 0.7500 0.5734
C5 C 0.4331(2) 0.7500 0.2675(5)
H5 H 0.4261 0.7500 0.1443
C6 C 0.17389(12) 0.5466(3) 0.5083(3)
C7 C 0.11205(12) 0.6632(3) 0.5683(3)
H6 H 0.0693 0.6081 0.6098
O3 O 0.15609(9) 0.4399(2) 0.3881(2)
H7 H 0.2112(17) 0.658(5) 1.001(5)
H7B H 0.2112(17) 0.842(5) 1.001(5)
C7B C 0.11205(12) 0.8368(3) 0.5683(3)
C6B C 0.17389(12) 0.9534(3) 0.5083(3)
O2B O 0.23762(9) 0.9441(2) 0.5789(2)
O3B O 0.15609(9) 1.0601(2) 0.3881(2)
H6B H 0.0693 0.8919 0.6098
O3C O 0.34391(9) 0.9399(2) 0.8881(2)
O3E O 0.34391(9) 0.5601(2) 0.8881(2)
Co1C Co 0.21347(2) 0.2500 0.23945(5)
Co1C_2 Co 0.21347(2) 1.2500 0.23945(5)
loop_
_geom_bond_atom_site_label_1
_geom_bond_atom_site_label_2
_geom_bond_site_symmetry_1
_geom_bond_site_symmetry_2
Co1 O1 1_555 1_555
O1 H7 1_555 1_555
N1 Co1 1_555 1_555
O2 Co1 1_555 1_555
C1 N1 1_555 1_555
H1 C1 1_555 1_555
C2 N1 1_555 1_555
H2 C2 1_555 1_555
C3 H3 1_555 1_555
C4 C2 1_555 1_555
H4 C4 1_555 1_555
C5 C1 1_555 1_555
H5 C5 1_555 1_555
C6 O2 1_555 1_555
C7 C6 1_555 1_555
H6 C7 1_555 1_555
O3 C6 1_555 1_555
H7B O1 1_555 1_555
C7B C7 1_555 1_555
C6B C7B 1_555 1_555
O2B Co1 1_555 1_555
O3B C6B 1_555 1_555
H6B C7B 1_555 1_555
O3C Co1 1_555 1_555
O3E Co1 1_555 1_555
Co1C O3 1_555 1_555
Co1C_2 O3B 1_555 1_555
C3 C5 1_555 1_555
C3 C4 1_555 1_555
C6B O2B 1_555 1_555

#END
