
#######################################################################
#
#                 Cambridge Crystallographic Data Centre
#                                CCDC 
#
#######################################################################
#
# If this CIF has been generated from an entry in the Cambridge 
# Structural Database, then it will include bibliographic, chemical, 
# crystal, experimental, refinement or atomic coordinate data resulting 
# from the CCDC's data processing and validation procedures.
#
#######################################################################

data_EVOKUV
_symmetry_cell_setting           monoclinic
_symmetry_space_group_name_H-M   'P 21/c'
_symmetry_Int_Tables_number      14
_space_group_name_Hall           '-P 2ybc'
loop_
_symmetry_equiv_pos_site_id
_symmetry_equiv_pos_as_xyz
1 x,y,z
2 -x,1/2+y,1/2-z
3 -x,-y,-z
4 x,1/2-y,1/2+z
_cell_length_a                   9.522(3)
_cell_length_b                   12.707(4)
_cell_length_c                   10.757(3)
_cell_angle_alpha                90
_cell_angle_beta                 99.418(6)
_cell_angle_gamma                90
_cell_volume                     1284.01
loop_
_atom_site_label
_atom_site_type_symbol
_atom_site_fract_x
_atom_site_fract_y
_atom_site_fract_z
Cu1 Cu 0.34356(6) 0.29937(5) 0.24114(5)
S1 S 0.60937(13) 0.29015(11) 0.13538(11)
S2 S 0.25003(16) -0.03217(11) 0.05239(13)
N1 N 0.2285(4) 0.3738(3) 0.0991(3)
N2 N 0.2954(4) 0.1596(3) 0.1765(4)
N3 N 0.4389(5) 0.2491(3) -0.0958(4)
C1 C 0.1150(5) 0.4422(4) -0.0856(4)
N4 N 0.2109(4) 0.5146(3) -0.0226(4)
H1 H 0.2269 0.5769 -0.0482
N5 N 0.4007(4) 0.4486(3) 0.2917(3)
H2 H 0.3455 0.4726 0.3460
H3 H 0.4917 0.4493 0.3311
C2 C 0.5113(5) 0.2659(4) -0.0005(5)
C3 C 0.2756(5) 0.0804(4) 0.1242(4)
C4 C -0.0487(5) 0.2705(4) -0.1558(5)
H4 H -0.1055 0.2125 -0.1817
C5 C 0.3859(5) 0.5180(4) 0.1814(4)
H5 H 0.4753 0.5228 0.1496
H6 H 0.3577 0.5881 0.2032
C6 C 0.0216(5) 0.4463(4) -0.1994(4)
H7 H 0.0147 0.5057 -0.2505
C7 C 0.0428(5) 0.2656(4) -0.0431(5)
H8 H 0.0481 0.2062 0.0080
C8 C 0.2740(5) 0.4698(4) 0.0853(4)
C9 C 0.1272(5) 0.3536(4) -0.0089(4)
C10 C -0.0593(5) 0.3591(4) -0.2323(5)
H9 H -0.1230 0.3589 -0.3077
N3C N 0.4389(5) 0.2509(3) 0.4042(4)
Cu1C Cu 0.34356(6) 0.20063(5) -0.25886(5)
loop_
_geom_bond_atom_site_label_1
_geom_bond_atom_site_label_2
_geom_bond_site_symmetry_1
_geom_bond_site_symmetry_2
Cu1 S1 1_555 1_555
S1 C2 1_555 1_555
S2 C3 1_555 1_555
N1 Cu1 1_555 1_555
N2 Cu1 1_555 1_555
N3 C2 1_555 1_555
C1 N4 1_555 1_555
N4 H1 1_555 1_555
N5 Cu1 1_555 1_555
H2 N5 1_555 1_555
H3 N5 1_555 1_555
C3 N2 1_555 1_555
C4 H4 1_555 1_555
C5 N5 1_555 1_555
H5 C5 1_555 1_555
H6 C5 1_555 1_555
C6 C1 1_555 1_555
H7 C6 1_555 1_555
C7 C4 1_555 1_555
H8 C7 1_555 1_555
C8 N1 1_555 1_555
C9 N1 1_555 1_555
C10 C4 1_555 1_555
H9 C10 1_555 1_555
N3C Cu1 1_555 1_555
Cu1C N3 1_555 1_555
C1 C9 1_555 1_555
N4 C8 1_555 1_555
C5 C8 1_555 1_555
C6 C10 1_555 1_555
C7 C9 1_555 1_555

#END
