
#######################################################################
#
#                 Cambridge Crystallographic Data Centre
#                                CCDC 
#
#######################################################################
#
# If this CIF has been generated from an entry in the Cambridge 
# Structural Database, then it will include bibliographic, chemical, 
# crystal, experimental, refinement or atomic coordinate data resulting 
# from the CCDC's data processing and validation procedures.
#
#######################################################################

data_EVOLAC
_symmetry_cell_setting           monoclinic
_symmetry_space_group_name_H-M   'P 21/n'
_symmetry_Int_Tables_number      14
_space_group_name_Hall           '-P 2yn'
loop_
_symmetry_equiv_pos_site_id
_symmetry_equiv_pos_as_xyz
1 x,y,z
2 1/2+x,1/2-y,1/2+z
3 -x,-y,-z
4 1/2-x,1/2+y,1/2-z
_cell_length_a                   11.1738(9)
_cell_length_b                   8.2212(7)
_cell_length_c                   12.1466(10)
_cell_angle_alpha                90
_cell_angle_beta                 116.224(2)
_cell_angle_gamma                90
_cell_volume                     1000.96
loop_
_atom_site_label
_atom_site_type_symbol
_atom_site_fract_x
_atom_site_fract_y
_atom_site_fract_z
Ag1 Ag -0.31321(6) 0.87153(7) -0.25664(6)
Ag2 Ag -0.06264(7) 0.84271(9) -0.01379(7)
S1 S -0.12295(18) 1.0801(2) -0.20167(16)
C1 C -0.0113(8) 0.8638(9) -0.3011(7)
H1 H -0.0611 0.7850 -0.2849
O1 O -0.2605(6) 0.8403(7) 0.0188(6)
N1 N 0.1432(6) 0.9345(8) -0.3746(6)
H2 H 0.1983 0.9056 -0.4029
N2 N -0.3270(6) 0.9722(8) -0.0064(6)
C2 C 0.0493(8) 1.1433(9) -0.3057(7)
H3 H 0.0416 1.2533 -0.2920
O2 O -0.3484(7) 1.0406(8) 0.0732(6)
C3 C 0.1310(8) 1.0937(11) -0.3561(7)
H4 H 0.1782 1.1702 -0.3776
C4 C -0.0227(7) 1.0278(9) -0.2748(6)
O3 O -0.3722(7) 1.0278(8) -0.1115(6)
C5 C 0.0733(8) 0.8192(10) -0.3509(7)
H5 H 0.0817 0.7106 -0.3677
O4 O -0.4551(5) 1.1019(7) -0.3893(5)
O5 O -0.6633(6) 1.1756(8) -0.4827(6)
O6 O -0.6087(6) 0.9447(7) -0.3870(6)
N3 N -0.5782(6) 1.0747(8) -0.4204(6)
S1C S -0.37705(18) 0.5801(2) -0.29833(16)
Ag2B Ag 0.06264(7) 1.15729(9) 0.01379(7)
S1B S 0.12295(18) 0.9199(2) 0.20167(16)
O4C O -0.0449(5) 0.6019(7) -0.1107(5)
Ag1C Ag -0.18679(6) 1.37153(7) -0.24336(6)
Ag2C Ag -0.43736(7) 1.34271(9) -0.48621(7)
loop_
_geom_bond_atom_site_label_1
_geom_bond_atom_site_label_2
_geom_bond_site_symmetry_1
_geom_bond_site_symmetry_2
Ag1 S1 1_555 1_555
Ag2 S1 1_555 1_555
S1 C4 1_555 1_555
C1 H1 1_555 1_555
O1 Ag2 1_555 1_555
N1 H2 1_555 1_555
N2 O1 1_555 1_555
C2 H3 1_555 1_555
O2 N2 1_555 1_555
C3 N1 1_555 1_555
H4 C3 1_555 1_555
C4 C1 1_555 1_555
O3 Ag1 1_555 1_555
C5 C1 1_555 1_555
H5 C5 1_555 1_555
O4 Ag1 1_555 1_555
O5 N3 1_555 1_555
O6 N3 1_555 1_555
N3 O4 1_555 1_555
S1C Ag1 1_555 1_555
Ag2B S1 1_555 1_555
S1B Ag2 1_555 1_555
O4C Ag2 1_555 1_555
Ag1C S1 1_555 1_555
Ag2C O4 1_555 1_555
N1 C5 1_555 1_555
N2 O3 1_555 1_555
C2 C3 1_555 1_555
C2 C4 1_555 1_555
Ag2B S1B 1_555 1_555

#END
