
#######################################################################
#
#                 Cambridge Crystallographic Data Centre
#                                CCDC 
#
#######################################################################
#
# If this CIF has been generated from an entry in the Cambridge 
# Structural Database, then it will include bibliographic, chemical, 
# crystal, experimental, refinement or atomic coordinate data resulting 
# from the CCDC's data processing and validation procedures.
#
#######################################################################

data_EVOMEH
_symmetry_cell_setting           triclinic
_symmetry_space_group_name_H-M   'P -1'
_symmetry_Int_Tables_number      2
_space_group_name_Hall           '-P 1'
loop_
_symmetry_equiv_pos_site_id
_symmetry_equiv_pos_as_xyz
1 x,y,z
2 -x,-y,-z
_cell_length_a                   10.2545(7)
_cell_length_b                   10.8207(8)
_cell_length_c                   13.7264(10)
_cell_angle_alpha                91.3050(10)
_cell_angle_beta                 90.461(2)
_cell_angle_gamma                112.655(2)
_cell_volume                     1404.97
loop_
_atom_site_label
_atom_site_type_symbol
_atom_site_fract_x
_atom_site_fract_y
_atom_site_fract_z
Cu1 Cu 0.85137(7) 0.44331(7) 0.50733(5)
Cu2 Cu 0.88223(8) 1.12335(7) 0.19502(5)
Cu3 Cu 1.19740(8) 1.24913(7) 0.15456(5)
O1 O 0.9421(4) 0.4765(4) 0.3818(3)
O3 O 0.7331(5) 0.4742(4) 0.3371(3)
O4 O 1.4004(5) 1.2611(5) 0.1941(3)
H3 H 1.390(8) 1.251(7) 0.255(5)
H4 H 1.437(8) 1.211(7) 0.177(5)
O5 O 0.9062(4) 0.9559(4) 0.1982(3)
O6 O 1.1232(4) 1.0313(4) 0.1349(3)
O7 O 1.0722(5) 0.8573(4) -0.0563(3)
O8 O 1.2825(5) 0.8663(4) -0.0051(3)
O9 O 1.1304(4) 0.3977(4) 0.1492(3)
O10 O 0.9049(4) 0.3103(4) 0.2000(3)
O11 O 0.8853(4) 0.6372(4) 0.5197(3)
O12 O 1.1173(4) 0.7244(4) 0.4845(3)
O13 O 0.8798(4) 0.7907(4) 0.7148(3)
O14 O 0.6912(5) 0.7815(4) 0.6271(3)
N1 N 0.7105(5) 0.3978(5) 0.6105(3)
N2 N 0.2702(5) 0.2803(5) 1.0193(3)
N3 N 0.7430(5) 1.0756(5) 0.3046(3)
C1 C 0.6215(7) 0.4603(6) 0.6188(4)
H5 H 0.6220 0.5203 0.5712
C2 C 0.5282(7) 0.4399(6) 0.6951(4)
H6 H 0.4680 0.4858 0.6984
C3 C 0.5259(6) 0.3509(6) 0.7659(4)
C4 C 0.6180(6) 0.2843(6) 0.7565(4)
H7 H 0.6190 0.2231 0.8027
C5 C 0.7065(7) 0.3095(6) 0.6792(4)
H8 H 0.7665 0.2637 0.6736
C6 C 0.4324(6) 0.3265(6) 0.8515(4)
C7 C 0.3892(7) 0.4246(6) 0.8910(4)
H9 H 0.4134 0.5065 0.8610
C8 C 0.3109(7) 0.3994(6) 0.9743(4)
H10 H 0.2849 0.4663 1.0008
C9 C 0.3079(7) 0.1866(6) 0.9788(4)
H11 H 0.2784 0.1039 1.0081
C10 C 0.3876(7) 0.2042(6) 0.8966(4)
H12 H 0.4111 0.1351 0.8716
C11 C 0.9319(6) 0.5839(5) 0.2369(4)
C12 C 0.9316(6) 0.7111(6) 0.2302(4)
H13 H 0.8790 0.7386 0.2742
C13 C 1.0074(6) 0.7988(5) 0.1599(4)
C14 C 1.0800(6) 0.7546(6) 0.0906(4)
C15 C 1.0817(6) 0.6285(6) 0.0973(4)
H14 H 1.1320 0.6002 0.0520
C16 C 1.0096(6) 0.5413(6) 0.1711(4)
C17 C 0.8576(7) 0.5019(5) 0.3224(4)
C18 C 1.0127(6) 0.9408(6) 0.1624(4)
C19 C 1.1537(7) 0.8365(6) 0.0038(4)
C20 C 1.0159(6) 0.4060(6) 0.1737(4)
C21 C 0.6705(7) 1.1526(6) 0.3265(4)
H15 H 0.6849 1.2274 0.2893
C22 C 0.5753(7) 1.1260(6) 0.4018(4)
H16 H 0.5290 1.1833 0.4146
C23 C 0.5483(6) 1.0136(6) 0.4587(4)
C24 C 0.6209(7) 0.9329(6) 0.4333(4)
H17 H 0.6060 0.8560 0.4681
C25 C 0.7145(7) 0.9644(6) 0.3576(4)
H18 H 0.7599 0.9070 0.3422
C26 C 1.0002(6) 0.7313(5) 0.5032(4)
C27 C 0.9987(6) 0.8695(5) 0.5033(4)
C28 C 1.0841(6) 0.9638(6) 0.4377(4)
H19 H 1.1421 0.9396 0.3962
C29 C 0.9161(6) 0.9101(6) 0.5668(4)
C30 C 0.8201(7) 0.8164(6) 0.6410(4)
C29A C 1.0839(6) 1.0899(6) 0.4332(4)
C27A C 1.0013(6) 1.1305(5) 0.4967(4)
C26A C 0.9998(6) 1.2687(5) 0.4968(4)
O11A O 1.1147(4) 1.3628(4) 0.4803(3)
O12A O 0.8827(4) 1.2756(4) 0.5155(3)
C28A C 0.9159(6) 1.0362(6) 0.5623(4)
H19A H 0.8579 1.0604 0.6038
C30A C 1.1799(7) 1.1836(6) 0.3590(4)
O13A O 1.1202(4) 1.2093(4) 0.2852(3)
O14A O 1.3088(5) 1.2185(4) 0.3729(3)
C23A C 0.4517(6) 0.9864(6) 0.5413(4)
C22A C 0.4247(7) 0.8740(6) 0.5982(4)
C21A C 0.3295(7) 0.8474(6) 0.6735(4)
N3A N 0.2570(5) 0.9244(5) 0.6954(3)
C25A C 0.2855(7) 1.0356(6) 0.6424(4)
C24A C 0.3791(7) 1.0671(6) 0.5667(4)
H17A H 0.3940 1.1440 0.5319
H18A H 0.2401 1.0930 0.6578
H15A H 0.3151 0.7726 0.7107
H16A H 0.4710 0.8167 0.5854
Cu1A Cu 1.14863(7) 1.55669(7) 0.49267(5)
Cu2A Cu 1.11777(8) 0.87665(7) -0.19502(5)
Cu3_2 Cu 1.19740(8) 0.24913(7) 0.15456(5)
O1A O 1.0579(4) 1.5235(4) -0.3818(3)
O3A O 1.2669(5) 1.5258(4) -0.3371(3)
O5A O 1.0938(4) 1.0441(4) -0.1982(3)
O6A O 0.8768(4) 0.9687(4) -0.1349(3)
O7A O 0.9278(5) 1.1427(4) 0.0563(3)
O8A O 0.7175(5) 1.1337(4) 0.0051(3)
O9A O 0.8696(4) 1.6023(4) -0.1492(3)
O10A O 1.0951(4) 1.6897(4) -0.2000(3)
C11A C 1.0681(6) 1.4161(5) -0.2369(4)
C12A C 1.0684(6) 1.2889(6) -0.2302(4)
H13A H 1.1210 1.2614 -0.2742
C13A C 0.9926(6) 1.2012(5) -0.1599(4)
C14A C 0.9200(6) 1.2454(6) -0.0906(4)
C15A C 0.9183(6) 1.3715(6) -0.0973(4)
H14A H 0.8680 1.3998 -0.0520
C16A C 0.9904(6) 1.4587(6) -0.1711(4)
C17A C 1.1424(7) 1.4981(5) -0.3224(4)
C18A C 0.9873(6) 1.0592(6) -0.1624(4)
C19A C 0.8463(7) 1.1635(6) -0.0038(4)
C20A C 0.9841(6) 1.5940(6) -0.1737(4)
N1_2 N 1.7105(5) 1.3978(5) -0.3895(3)
N2_2 N 1.2702(5) 1.2803(5) 0.0193(3)
C1_2 C 1.6215(7) 1.4603(6) -0.3812(4)
H5_2 H 1.6220 1.5203 -0.4288
C2_2 C 1.5282(7) 1.4399(6) -0.3049(4)
H6_2 H 1.4680 1.4858 -0.3016
C3_2 C 1.5259(6) 1.3509(6) -0.2341(4)
C4_2 C 1.6180(6) 1.2843(6) -0.2435(4)
H7_2 H 1.6190 1.2231 -0.1973
C5_2 C 1.7065(7) 1.3095(6) -0.3208(4)
H8_2 H 1.7665 1.2637 -0.3264
C6_2 C 1.4324(6) 1.3265(6) -0.1485(4)
C7_2 C 1.3892(7) 1.4246(6) -0.1090(4)
H9_2 H 1.4134 1.5065 -0.1390
C8_2 C 1.3109(7) 1.3994(6) -0.0257(4)
H10_2 H 1.2849 1.4663 0.0008
C9_2 C 1.3079(7) 1.1866(6) -0.0212(4)
H11_2 H 1.2784 1.1039 0.0081
C10_2 C 1.3876(7) 1.2042(6) -0.1034(4)
H12_2 H 1.4111 1.1351 -0.1284
O4_2 O 1.4004(5) 0.2611(5) 0.1941(3)
H3_2 H 1.390(8) 0.251(7) 0.255(5)
H4_2 H 1.437(8) 0.211(7) 0.177(5)
Cu1A_2 Cu 1.14863(7) 0.55669(7) 0.49267(5)
O12A_2 O 0.8827(4) 0.2756(4) 0.5155(3)
O10_2 O 0.9049(4) 1.3103(4) 0.2000(3)
O9_2 O 1.1304(4) 1.3977(4) 0.1492(3)
Cu2_2 Cu 0.88223(8) 0.12335(7) 0.19502(5)
Cu3A Cu 0.80260(8) 0.75087(7) 0.84544(5)
Cu3_3 Cu 0.19740(8) 0.24913(7) 1.15456(5)
Cu1_2 Cu 0.85137(7) 1.44331(7) 0.50733(5)
Cu2A_2 Cu 0.11777(8) 0.87665(7) 0.80498(5)
O1A_2 O 1.0579(4) 1.5235(4) 0.6182(3)
O12_2 O 1.1173(4) 1.7244(4) 0.4845(3)
N1A N 1.2895(5) 1.6022(5) 0.3895(3)
Cu3A_2 Cu 0.80260(8) 0.75087(7) -0.15456(5)
O10A_2 O 1.0951(4) 0.6897(4) -0.2000(3)
N3A_2 N 1.2570(5) 0.9244(5) -0.3046(3)
O6_2 O 1.1232(4) 0.0313(4) 0.1349(3)
O13A_2 O 1.1202(4) 0.2093(4) 0.2852(3)
N2_3 N 1.2702(5) 0.2803(5) 0.0193(3)
Cu1A_3 Cu 1.14863(7) 1.55669(7) -0.50733(5)
Cu3A_3 Cu 0.80260(8) 1.75087(7) -0.15456(5)
Cu2A_3 Cu 1.11777(8) 1.87665(7) -0.19502(5)
Cu1_3 Cu 1.85137(7) 1.44331(7) -0.49267(5)
O2 O 1.4814(6) 0.0578(6) 0.1287(4)
H1 H 1.430(9) -0.015(8) 0.097(6)
H2 H 1.547(10) 0.082(9) 0.097(6)
loop_
_geom_bond_atom_site_label_1
_geom_bond_atom_site_label_2
_geom_bond_site_symmetry_1
_geom_bond_site_symmetry_2
Cu1 O1 1_555 1_555
Cu2 O5 1_555 1_555
Cu3 O4 1_555 1_555
O1 C17 1_555 1_555
O2 H1 1_555 1_555
H2 O2 1_555 1_555
O3 C17 1_555 1_555
O4 H3 1_555 1_555
H4 O4 1_555 1_555
O5 C18 1_555 1_555
O6 Cu3 1_555 1_555
O7 C19 1_555 1_555
O8 C19 1_555 1_555
O9 C20 1_555 1_555
O10 C20 1_555 1_555
O11 Cu1 1_555 1_555
O12 C26 1_555 1_555
O13 C30 1_555 1_555
O14 C30 1_555 1_555
N1 Cu1 1_555 1_555
N2 C8 1_555 1_555
N3 Cu2 1_555 1_555
C1 N1 1_555 1_555
H5 C1 1_555 1_555
C2 C1 1_555 1_555
H6 C2 1_555 1_555
C3 C2 1_555 1_555
C4 C3 1_555 1_555
H7 C4 1_555 1_555
C5 N1 1_555 1_555
H8 C5 1_555 1_555
C6 C3 1_555 1_555
C7 C6 1_555 1_555
H9 C7 1_555 1_555
C8 C7 1_555 1_555
H10 C8 1_555 1_555
C9 N2 1_555 1_555
H11 C9 1_555 1_555
C10 C6 1_555 1_555
H12 C10 1_555 1_555
C11 C12 1_555 1_555
C12 H13 1_555 1_555
C13 C12 1_555 1_555
C14 C13 1_555 1_555
C15 C14 1_555 1_555
H14 C15 1_555 1_555
C16 C11 1_555 1_555
C17 C11 1_555 1_555
C18 O6 1_555 1_555
C19 C14 1_555 1_555
C20 C16 1_555 1_555
C21 N3 1_555 1_555
H15 C21 1_555 1_555
C22 C21 1_555 1_555
H16 C22 1_555 1_555
C23 C22 1_555 1_555
C24 C23 1_555 1_555
H17 C24 1_555 1_555
C25 N3 1_555 1_555
H18 C25 1_555 1_555
C26 O11 1_555 1_555
C27 C26 1_555 1_555
C28 C27 1_555 1_555
H19 C28 1_555 1_555
C29 C27 1_555 1_555
C30 C29 1_555 1_555
C29A C28 1_555 1_555
C27A C29A 1_555 1_555
C26A C27A 1_555 1_555
O11A C26A 1_555 1_555
O12A C26A 1_555 1_555
C28A C29 1_555 1_555
H19A C28A 1_555 1_555
C30A C29A 1_555 1_555
O13A Cu3 1_555 1_555
O14A C30A 1_555 1_555
C23A C23 1_555 1_555
C22A C23A 1_555 1_555
C21A C22A 1_555 1_555
N3A C21A 1_555 1_555
C25A N3A 1_555 1_555
C24A C23A 1_555 1_555
H17A C24A 1_555 1_555
H18A C25A 1_555 1_555
H15A C21A 1_555 1_555
H16A C22A 1_555 1_555
Cu1A O11A 1_555 1_555
Cu2A O7 1_555 1_555
Cu3_2 O9 1_555 1_555
O1A C17A 1_555 1_555
O3A C17A 1_555 1_555
O5A Cu2A 1_555 1_555
O6A C18A 1_555 1_555
O7A Cu2 1_555 1_555
O8A C19A 1_555 1_555
O9A C20A 1_555 1_555
O10A C20A 1_555 1_555
C11A C12A 1_555 1_555
C12A H13A 1_555 1_555
C13A C12A 1_555 1_555
C14A C13A 1_555 1_555
C15A C14A 1_555 1_555
H14A C15A 1_555 1_555
C16A C11A 1_555 1_555
C17A C11A 1_555 1_555
C18A O5A 1_555 1_555
C19A O7A 1_555 1_555
C20A C16A 1_555 1_555
N1_2 C1_2 1_555 1_555
N2_2 Cu3 1_555 1_555
C1_2 H5_2 1_555 1_555
C2_2 C1_2 1_555 1_555
H6_2 C2_2 1_555 1_555
C3_2 C2_2 1_555 1_555
C4_2 C3_2 1_555 1_555
H7_2 C4_2 1_555 1_555
C5_2 N1_2 1_555 1_555
H8_2 C5_2 1_555 1_555
C6_2 C3_2 1_555 1_555
C7_2 C6_2 1_555 1_555
H9_2 C7_2 1_555 1_555
C8_2 N2_2 1_555 1_555
H10_2 C8_2 1_555 1_555
C9_2 N2_2 1_555 1_555
H11_2 C9_2 1_555 1_555
C10_2 C6_2 1_555 1_555
H12_2 C10_2 1_555 1_555
O4_2 Cu3_2 1_555 1_555
H3_2 O4_2 1_555 1_555
H4_2 O4_2 1_555 1_555
Cu1A_2 O12 1_555 1_555
O12A_2 Cu1 1_555 1_555
O10_2 Cu2 1_555 1_555
O9_2 Cu3 1_555 1_555
Cu2_2 O10 1_555 1_555
Cu3A O13 1_555 1_555
Cu3_3 N2 1_555 1_555
Cu1_2 O12A 1_555 1_555
Cu2A_2 N3A 1_555 1_555
O1A_2 Cu1A 1_555 1_555
O12_2 Cu1A 1_555 1_555
N1A Cu1A 1_555 1_555
Cu3A_2 O6A 1_555 1_555
O10A_2 Cu2A 1_555 1_555
N3A_2 Cu2A 1_555 1_555
O6_2 Cu3_2 1_555 1_555
O13A_2 Cu3_2 1_555 1_555
N2_3 Cu3_2 1_555 1_555
Cu1A_3 O1A 1_555 1_555
Cu3A_3 O9A 1_555 1_555
Cu2A_3 O10A 1_555 1_555
Cu1_3 N1_2 1_555 1_555
C4 C5 1_555 1_555
C9 C10 1_555 1_555
C13 C18 1_555 1_555
C15 C16 1_555 1_555
C24 C25 1_555 1_555
C27A C28A 1_555 1_555
C30A O13A 1_555 1_555
C25A C24A 1_555 1_555
C13A C18A 1_555 1_555
C14A C19A 1_555 1_555
C15A C16A 1_555 1_555
C4_2 C5_2 1_555 1_555
C7_2 C8_2 1_555 1_555
C9_2 C10_2 1_555 1_555

#END
