
#######################################################################
#
#                 Cambridge Crystallographic Data Centre
#                                CCDC 
#
#######################################################################
#
# If this CIF has been generated from an entry in the Cambridge 
# Structural Database, then it will include bibliographic, chemical, 
# crystal, experimental, refinement or atomic coordinate data resulting 
# from the CCDC's data processing and validation procedures.
#
#######################################################################

data_EVUGUX
_symmetry_cell_setting           triclinic
_symmetry_space_group_name_H-M   'P -1'
_symmetry_Int_Tables_number      2
_space_group_name_Hall           '-P 1'
loop_
_symmetry_equiv_pos_site_id
_symmetry_equiv_pos_as_xyz
1 x,y,z
2 -x,-y,-z
_cell_length_a                   14.332(5)
_cell_length_b                   15.179(5)
_cell_length_c                   16.165(5)
_cell_angle_alpha                79.406(5)
_cell_angle_beta                 69.285(6)
_cell_angle_gamma                74.921(6)
_cell_volume                     3159.56
loop_
_atom_site_label
_atom_site_type_symbol
_atom_site_fract_x
_atom_site_fract_y
_atom_site_fract_z
C1 C 0.7192(3) -0.0191(2) 0.7407(2)
H1 H 0.7586 -0.0794 0.7463
C2 C 0.7119(3) 0.0418(2) 0.7976(2)
H2 H 0.7461 0.0230 0.8406
C3 C 0.6543(3) 0.1310(2) 0.79212(19)
C4 C 0.6034(3) 0.1518(2) 0.7294(2)
H3 H 0.5606 0.2105 0.7243
C5 C 0.6153(3) 0.0871(2) 0.6748(2)
H4 H 0.5800 0.1034 0.6324
C6 C 0.6491(3) 0.2004(2) 0.8482(2)
C7 C 0.6754(3) 0.1737(2) 0.9259(2)
H5 H 0.6945 0.1103 0.9440
C8 C 0.6741(3) 0.2384(2) 0.9768(2)
H6 H 0.6923 0.2188 1.0294
C9 C 0.6465(3) 0.3322(2) 0.9519(2)
C10 C 0.6199(3) 0.3590(2) 0.8744(2)
H7 H 0.6011 0.4224 0.8561
C11 C 0.6209(3) 0.2941(2) 0.8239(2)
H8 H 0.6019 0.3137 0.7717
C12 C 0.6477(3) 0.4000(2) 1.0069(2)
C13 C 0.5954(3) 0.3914(2) 1.0982(2)
H9 H 0.5558 0.3458 1.1228
C14 C 0.6004(3) 0.4490(2) 1.1536(2)
C15 C 0.6596(3) 0.5156(2) 1.1189(2)
C16 C 0.7090(3) 0.5263(2) 1.0270(2)
H10 H 0.7470 0.5730 1.0024
C17 C 0.7033(3) 0.4697(2) 0.9714(2)
C18 C 0.6756(3) 0.5716(2) 1.1773(2)
C19 C 0.7685(3) 0.7526(2) 1.4707(2)
H11 H 0.8114 0.7290 1.5065
C20 C 0.7730(3) 0.6992(2) 1.4080(2)
H12 H 0.8178 0.6406 1.4018
C21 C 0.7111(3) 0.7320(2) 1.3538(2)
C22 C 0.6498(3) 0.8185(2) 1.3664(2)
H13 H 0.6079 0.8449 1.3302
C23 C 0.6490(3) 0.8666(2) 1.4311(2)
H14 H 0.6046 0.9252 1.4388
C24 C 0.7058(3) 0.6764(2) 1.28964(19)
C25 C 0.7203(3) 0.5806(2) 1.3059(2)
H15 H 0.7414 0.5503 1.3552
C26 C 0.7044(3) 0.5295(2) 1.2516(2)
H16 H 0.7131 0.4649 1.2649
C27 C 0.6655(3) 0.6665(2) 1.1584(2)
H17 H 0.6482 0.6963 1.1071
C28 C 0.6805(3) 0.7181(2) 1.2137(2)
H18 H 0.6733 0.7825 1.1995
C29 C 0.8268(3) 0.0458(2) 0.4642(2)
H19 H 0.8714 0.0106 0.4956
C30 C 0.8601(3) 0.1141(2) 0.4003(2)
H20 H 0.9254 0.1261 0.3896
C31 C 0.7978(3) 0.1659(2) 0.3512(2)
C32 C 0.7023(3) 0.1461(2) 0.3731(2)
H21 H 0.6566 0.1796 0.3422
C33 C 0.6735(3) 0.0778(2) 0.4399(2)
H22 H 0.6068 0.0670 0.4549
C34 C 0.8324(3) 0.2385(2) 0.2797(2)
C35 C 0.8975(3) 0.2885(2) 0.2863(2)
H23 H 0.9172 0.2784 0.3381
C36 C 0.9342(3) 0.3534(2) 0.2173(2)
H24 H 0.9779 0.3878 0.2231
C37 C 0.9077(3) 0.3689(2) 0.1394(2)
C38 C 0.8403(3) 0.3195(2) 0.1345(2)
H25 H 0.8196 0.3299 0.0832
C39 C 0.8033(3) 0.2555(2) 0.2037(2)
H26 H 0.7573 0.2228 0.1992
C40 C 0.9522(3) 0.4364(2) 0.0667(2)
C41 C 0.9597(3) 0.5194(2) 0.0873(2)
H27 H 0.9316 0.5333 0.1473
C42 C 0.9927(3) 0.4178(2) -0.0223(2)
C43 C 1.0160(3) 0.3189(3) -0.1311(2)
H28 H 0.9937 0.3749 -0.1676
H29 H 1.0914 0.3015 -0.1536
C44 C 0.9715(4) 0.2426(3) -0.1382(3)
H30 H 0.9939 0.1868 -0.1016
H31 H 0.8960 0.2600 -0.1152
C45 C 1.0056(4) 0.2219(4) -0.2355(3)
H32 H 1.0772 0.1871 -0.2505
H33 H 1.0060 0.2813 -0.2730
C46 C 0.9472(5) 0.1707(5) -0.2633(4)
H34 H 0.9467 0.1104 -0.2273
H35 H 0.8756 0.2052 -0.2505
C47 C 0.9908(5) 0.1554(5) -0.3609(4)
H36 H 0.9908 0.2156 -0.3971
H37 H 1.0626 0.1212 -0.3740
C48 C 0.9303(5) 0.1016(6) -0.3887(5)
H38 H 0.9771 0.0483 -0.4179
H39 H 0.8781 0.0808 -0.3358
H40 H 0.8974 0.1415 -0.4300
C52 C 0.8105(3) 0.5429(3) 0.8400(2)
H48 H 0.8645 0.5381 0.8665
H49 H 0.7648 0.6042 0.8480
C53 C 0.8579(3) 0.5289(3) 0.7416(2)
H50 H 0.9026 0.5731 0.7117
H51 H 0.9010 0.4664 0.7352
C54 C 0.7794(3) 0.5414(3) 0.6962(3)
H52 H 0.7368 0.6042 0.7025
H53 H 0.7342 0.4978 0.7269
C55 C 0.8243(3) 0.5270(3) 0.5972(3)
H54 H 0.7680 0.5445 0.5715
H55 H 0.8715 0.5691 0.5672
C56 C 0.8804(4) 0.4321(3) 0.5766(3)
H56 H 0.8378 0.3881 0.6132
H57 H 0.9440 0.4177 0.5922
C57 C 0.9071(4) 0.4209(4) 0.4777(3)
H58 H 0.9416 0.3573 0.4669
H59 H 0.9524 0.4620 0.4414
H60 H 0.8444 0.4363 0.4618
C58 C 0.5092(3) 0.3640(2) 1.2824(2)
H61 H 0.5634 0.3088 1.2647
H62 H 0.4519 0.3630 1.2622
C59 C 0.4728(3) 0.3646(3) 1.3825(2)
H63 H 0.4508 0.3065 1.4104
H64 H 0.4124 0.4153 1.3995
C60 C 0.5524(3) 0.3757(2) 1.4200(2)
H65 H 0.6172 0.3323 1.3943
H66 H 0.5649 0.4386 1.4012
C61 C 0.5213(4) 0.3591(3) 1.5204(2)
H67 H 0.4545 0.4004 1.5456
H68 H 0.5116 0.2953 1.5385
C62 C 0.5955(4) 0.3735(3) 1.5611(3)
H69 H 0.6085 0.4362 1.5408
H70 H 0.5639 0.3692 1.6266
C63 C 0.6955(4) 0.3054(3) 1.5378(3)
H71 H 0.7409 0.3194 1.5645
H72 H 0.7271 0.3089 1.4731
H73 H 0.6837 0.2435 1.5607
N1 N 0.6736(2) 0.00228(18) 0.67786(17)
N2 N 0.7349(2) 0.02591(18) 0.48474(17)
N3 N 0.7074(2) 0.83547(18) 1.48386(17)
Ni1 Ni 0.69634(4) -0.08221(3) 0.57997(3)
O1 O 0.54802(18) 0.44434(15) 1.24308(14)
O2 O 0.9826(2) 0.33640(16) -0.04052(15)
O3 O 0.7540(2) 0.47258(17) 0.88170(15)
N4 N 0.5148(8) -0.1082(7) 0.6728(8)
O4 O 0.5257(4) -0.0401(3) 0.6083(3)
O5 O 0.4288(5) -0.1159(5) 0.7209(3)
O6 O 0.5949(5) -0.1605(3) 0.6808(3)
N5 N 0.8642(9) -0.2026(11) 0.6235(10)
O7 O 0.8335(4) -0.1300(4) 0.5747(4)
O8 O 0.9482(7) -0.2241(7) 0.6175(8)
O9 O 0.7994(7) -0.2384(5) 0.6806(6)
C42A C 1.0073(3) 0.5822(2) 0.0223(2)
C40A C 1.0478(3) 0.5636(2) -0.0667(2)
C37A C 1.0923(3) 0.6311(2) -0.1394(2)
C36A C 1.0658(3) 0.6466(2) -0.2173(2)
C35A C 1.1025(3) 0.7115(2) -0.2863(2)
C34A C 1.1676(3) 0.7615(2) -0.2797(2)
C31A C 1.2022(3) 0.8341(2) -0.3512(2)
C30A C 1.1399(3) 0.8859(2) -0.4003(2)
C29A C 1.1732(3) 0.9542(2) -0.4642(2)
H19A H 1.1286 0.9894 -0.4956
N2A N 1.2651(2) 0.97409(18) -0.48474(17)
C33A C 1.3265(3) 0.9222(2) -0.4399(2)
C32A C 1.2977(3) 0.8539(2) -0.3731(2)
H21A H 1.3434 0.8204 -0.3422
H22A H 1.3932 0.9330 -0.4549
Ni1A Ni 1.30366(4) 1.08221(3) -0.57997(3)
N1A N 1.3264(2) 0.99772(18) -0.67786(17)
N3A N 1.2926(2) 1.16453(18) -0.48386(17)
O4A O 1.4743(4) 1.0401(3) -0.6083(3)
O6A O 1.4051(5) 1.1605(3) -0.6808(3)
O7A O 1.1665(4) 1.1300(4) -0.5747(4)
N5A N 1.1358(9) 1.2026(11) -0.6235(10)
O8A O 1.0518(7) 1.2241(7) -0.6175(8)
O9A O 1.2006(7) 1.2384(5) -0.6806(6)
H20A H 1.0746 0.8739 -0.3896
C39A C 1.1967(3) 0.7445(2) -0.2037(2)
C38A C 1.1597(3) 0.6805(2) -0.1345(2)
H25A H 1.1804 0.6701 -0.0832
H26A H 1.2427 0.7772 -0.1992
H23A H 1.0828 0.7216 -0.3381
H24A H 1.0221 0.6122 -0.2231
C41A C 1.0403(3) 0.4806(2) -0.0873(2)
H27A H 1.0684 0.4667 -0.1473
O2A O 1.0174(2) 0.66360(16) 0.04052(15)
C43A C 0.9840(3) 0.6811(3) 0.1311(2)
H28A H 1.0063 0.6251 0.1676
H29A H 0.9086 0.6985 0.1536
C44A C 1.0285(4) 0.7574(3) 0.1382(3)
H30A H 1.0061 0.8132 0.1016
H31A H 1.1040 0.7400 0.1152
C45A C 0.9944(4) 0.7781(4) 0.2355(3)
H32A H 0.9228 0.8129 0.2505
H33A H 0.9940 0.7187 0.2730
C46A C 1.0528(5) 0.8293(5) 0.2633(4)
H34A H 1.0533 0.8896 0.2273
H35A H 1.1244 0.7948 0.2505
C47A C 1.0092(5) 0.8446(5) 0.3609(4)
H36A H 1.0092 0.7844 0.3971
H37A H 0.9374 0.8788 0.3740
C48A C 1.0697(5) 0.8984(6) 0.3887(5)
H38A H 1.0229 0.9517 0.4179
H39A H 1.1219 0.9192 0.3358
H40A H 1.1026 0.8585 0.4300
N3_2 N 0.7074(2) -0.16453(18) 0.48386(17)
C19_2 C 0.7685(3) -0.2474(2) 0.4707(2)
H11_2 H 0.8114 -0.2710 0.5065
C20_2 C 0.7730(3) -0.3008(2) 0.4080(2)
H12_2 H 0.8178 -0.3594 0.4018
C21_2 C 0.7111(3) -0.2680(2) 0.3538(2)
C22_2 C 0.6498(3) -0.1815(2) 0.3664(2)
H13_2 H 0.6079 -0.1551 0.3302
C23_2 C 0.6490(3) -0.1334(2) 0.4311(2)
H14_2 H 0.6046 -0.0748 0.4388
C24_2 C 0.7058(3) -0.3236(2) 0.28964(19)
C25_2 C 0.7203(3) -0.4194(2) 0.3059(2)
H15_2 H 0.7414 -0.4497 0.3552
C26_2 C 0.7044(3) -0.4705(2) 0.2516(2)
C18_2 C 0.6756(3) -0.4284(2) 0.1773(2)
C15_2 C 0.6596(3) -0.4844(2) 0.1189(2)
C14_2 C 0.6004(3) -0.5510(2) 0.1536(2)
C13_2 C 0.5954(3) -0.6086(2) 0.0982(2)
C12_2 C 0.6477(3) -0.6000(2) 0.0069(2)
C9_2 C 0.6465(3) -0.6678(2) -0.0481(2)
C8_2 C 0.6741(3) -0.7616(2) -0.0232(2)
C7_2 C 0.6754(3) -0.8263(2) -0.0741(2)
C6_2 C 0.6491(3) -0.7996(2) -0.1518(2)
C3_2 C 0.6543(3) -0.8690(2) -0.20788(19)
C2_2 C 0.7119(3) -0.9582(2) -0.2024(2)
C4_2 C 0.6034(3) -0.8482(2) -0.2706(2)
C11_2 C 0.6209(3) -0.7059(2) -0.1761(2)
C10_2 C 0.6199(3) -0.6410(2) -0.1256(2)
H7_2 H 0.6011 -0.5776 -0.1439
H8_2 H 0.6019 -0.6863 -0.2283
H5_2 H 0.6945 -0.8897 -0.0560
H6_2 H 0.6923 -0.7812 0.0294
C17_2 C 0.7033(3) -0.5303(2) -0.0286(2)
C16_2 C 0.7090(3) -0.4737(2) 0.0270(2)
H10_2 H 0.7470 -0.4270 0.0024
O3_2 O 0.7540(2) -0.52742(17) -0.11830(15)
C52_2 C 0.8105(3) -0.4571(3) -0.1600(2)
H48_2 H 0.8645 -0.4619 -0.1335
H49_2 H 0.7648 -0.3958 -0.1520
C53_2 C 0.8579(3) -0.4711(3) -0.2584(2)
H50_2 H 0.9026 -0.4269 -0.2883
H51_2 H 0.9010 -0.5336 -0.2648
C54_2 C 0.7794(3) -0.4586(3) -0.3038(3)
H52_2 H 0.7368 -0.3958 -0.2975
H53_2 H 0.7342 -0.5022 -0.2731
C55_2 C 0.8243(3) -0.4730(3) -0.4028(3)
H54_2 H 0.7680 -0.4555 -0.4285
H55_2 H 0.8715 -0.4309 -0.4328
C56_2 C 0.8804(4) -0.5679(3) -0.4234(3)
H56_2 H 0.8378 -0.6119 -0.3868
H57_2 H 0.9440 -0.5823 -0.4078
C57_2 C 0.9071(4) -0.5791(4) -0.5223(3)
H58_2 H 0.9416 -0.6427 -0.5331
H59_2 H 0.9524 -0.5380 -0.5586
H60_2 H 0.8444 -0.5637 -0.5382
H9_2 H 0.5558 -0.6542 0.1228
O1_2 O 0.54802(18) -0.55566(15) 0.24308(14)
C58_2 C 0.5092(3) -0.6360(2) 0.2824(2)
H61_2 H 0.5634 -0.6912 0.2647
H62_2 H 0.4519 -0.6370 0.2622
C59_2 C 0.4728(3) -0.6354(3) 0.3825(2)
H63_2 H 0.4508 -0.6935 0.4104
H64_2 H 0.4124 -0.5847 0.3995
C60_2 C 0.5524(3) -0.6243(2) 0.4200(2)
H65_2 H 0.6172 -0.6677 0.3943
H66_2 H 0.5649 -0.5614 0.4012
C61_2 C 0.5213(4) -0.6409(3) 0.5204(2)
H67_2 H 0.4545 -0.5996 0.5456
H68_2 H 0.5116 -0.7047 0.5385
C62_2 C 0.5955(4) -0.6265(3) 0.5611(3)
H69_2 H 0.6085 -0.5638 0.5408
H70_2 H 0.5639 -0.6308 0.6266
C63_2 C 0.6955(4) -0.6946(3) 0.5378(3)
H71_2 H 0.7409 -0.6806 0.5645
H72_2 H 0.7271 -0.6911 0.4731
H73_2 H 0.6837 -0.7565 0.5607
C27_2 C 0.6655(3) -0.3335(2) 0.1584(2)
H17_2 H 0.6482 -0.3037 0.1071
C28_2 C 0.6805(3) -0.2819(2) 0.2137(2)
H18_2 H 0.6733 -0.2175 0.1995
H16_2 H 0.7131 -0.5351 0.2649
Ni1_2 Ni 0.69634(4) 0.91779(3) 1.57997(3)
N4A N 1.4852(8) 1.1082(7) -0.6728(8)
C1_2 C 0.7192(3) -1.0191(2) -0.2593(2)
H2_2 H 0.7461 -0.9770 -0.1594
H3_2 H 0.5606 -0.7895 -0.2757
C5_2 C 0.6153(3) -0.9129(2) -0.3252(2)
O5A O 1.5712(5) 1.1159(5) -0.7209(3)
H1_2 H 0.7586 -1.0794 -0.2537
N1_2 N 0.6736(2) -0.99772(18) -0.32214(17)
H4_2 H 0.5800 -0.8966 -0.3676
Ni1_3 Ni 0.69634(4) -1.08221(3) -0.42003(3)
C64 C 0.7491(4) 0.9159(3) 1.0101(3)
H74 H 0.7808 0.9479 1.0339
C65 C 0.6444(4) 0.9255(3) 1.0435(3)
C66 C 0.6553(4) 0.8208(3) 0.9419(3)
C67 C 0.8089(4) 0.8610(3) 0.9430(3)
C68 C 0.6042(4) 0.7691(3) 0.9051(3)
H75 H 0.5304 0.7822 0.9362
H76 H 0.6317 0.7031 0.9137
H77 H 0.6172 0.7884 0.8415
C69 C 0.5796(5) 0.9875(3) 1.1159(3)
H78 H 0.5079 0.9843 1.1320
H79 H 0.5871 1.0508 1.0943
H80 H 0.6022 0.9675 1.1683
C70 C 0.5985(4) 0.8779(3) 1.0088(3)
H81 H 0.5265 0.8844 1.0313
C71 C 0.7613(4) 0.8140(3) 0.9097(3)
H82 H 0.8018 0.7759 0.8636
C72 C 0.9215(4) 0.8559(4) 0.9052(4)
H83 H 0.9511 0.8159 0.8571
H84 H 0.9527 0.8309 0.9520
H85 H 0.9343 0.9175 0.8819
O16 O 0.7471(6) 0.0789(5) 0.1422(5)
C73 C 0.8417(10) 0.0147(9) 0.1603(9)
C49? C 1.0328(16) 0.8703(11) 0.2226(13)
H41? H 1.1068 0.8599 0.1893
H42? H 0.9969 0.9182 0.1873
C50? C 1.0132(17) 0.9035(15) 0.3118(13)
H43? H 0.9387 0.9170 0.3430
H44? H 1.0369 0.9616 0.3008
C51? C 1.0661(19) 0.8348(16) 0.3739(16)
H45? H 1.0236 0.8412 0.4360
H46? H 1.1329 0.8478 0.3643
H47? H 1.0752 0.7721 0.3606
N6? N 0.4887(8) -0.0749(7) 0.6739(9)
O10? O 0.5566(5) -0.0477(4) 0.6000(4)
O11? O 0.4039(4) -0.0252(4) 0.7050(3)
O12? O 0.5147(6) -0.1517(5) 0.7097(5)
N7? N 0.8281(8) -0.2036(9) 0.6401(9)
O13? O 0.8600(5) -0.1440(5) 0.5755(4)
O14? O 0.8881(5) -0.2612(4) 0.6714(4)
O15? O 0.7337(4) -0.2066(4) 0.6671(3)
loop_
_geom_bond_atom_site_label_1
_geom_bond_atom_site_label_2
_geom_bond_site_symmetry_1
_geom_bond_site_symmetry_2
C1 H1 1_555 1_555
C2 C1 1_555 1_555
H2 C2 1_555 1_555
C3 C2 1_555 1_555
C4 C3 1_555 1_555
H3 C4 1_555 1_555
C5 C4 1_555 1_555
H4 C5 1_555 1_555
C6 C3 1_555 1_555
C7 C6 1_555 1_555
H5 C7 1_555 1_555
C8 C7 1_555 1_555
H6 C8 1_555 1_555
C9 C8 1_555 1_555
C10 C9 1_555 1_555
H7 C10 1_555 1_555
C11 C6 1_555 1_555
H8 C11 1_555 1_555
C12 C9 1_555 1_555
C13 C12 1_555 1_555
H9 C13 1_555 1_555
C14 C13 1_555 1_555
C15 C14 1_555 1_555
C16 C15 1_555 1_555
H10 C16 1_555 1_555
C17 C12 1_555 1_555
C18 C15 1_555 1_555
C19 H11 1_555 1_555
C20 C19 1_555 1_555
H12 C20 1_555 1_555
C21 C20 1_555 1_555
C22 C21 1_555 1_555
H13 C22 1_555 1_555
C23 C22 1_555 1_555
H14 C23 1_555 1_555
C24 C21 1_555 1_555
C25 C24 1_555 1_555
H15 C25 1_555 1_555
C26 C18 1_555 1_555
H16 C26 1_555 1_555
C27 C18 1_555 1_555
H17 C27 1_555 1_555
C28 C24 1_555 1_555
H18 C28 1_555 1_555
C29 H19 1_555 1_555
C30 C29 1_555 1_555
H20 C30 1_555 1_555
C31 C30 1_555 1_555
C32 C31 1_555 1_555
H21 C32 1_555 1_555
C33 C32 1_555 1_555
H22 C33 1_555 1_555
C34 C31 1_555 1_555
C35 C34 1_555 1_555
H23 C35 1_555 1_555
C36 C35 1_555 1_555
H24 C36 1_555 1_555
C37 C36 1_555 1_555
C38 C37 1_555 1_555
H25 C38 1_555 1_555
C39 C34 1_555 1_555
H26 C39 1_555 1_555
C40 C37 1_555 1_555
C41 C40 1_555 1_555
H27 C41 1_555 1_555
C42 C40 1_555 1_555
C43 H28 1_555 1_555
H29 C43 1_555 1_555
C44 C43 1_555 1_555
H30 C44 1_555 1_555
H31 C44 1_555 1_555
C45 C44 1_555 1_555
H32 C45 1_555 1_555
H33 C45 1_555 1_555
C46 C45 1_555 1_555
H34 C46 1_555 1_555
H35 C46 1_555 1_555
C47 C46 1_555 1_555
H36 C47 1_555 1_555
H37 C47 1_555 1_555
C48 C47 1_555 1_555
H38 C48 1_555 1_555
H39 C48 1_555 1_555
H40 C48 1_555 1_555
C52 H48 1_555 1_555
H49 C52 1_555 1_555
C53 C52 1_555 1_555
H50 C53 1_555 1_555
H51 C53 1_555 1_555
C54 C53 1_555 1_555
H52 C54 1_555 1_555
H53 C54 1_555 1_555
C55 C54 1_555 1_555
H54 C55 1_555 1_555
H55 C55 1_555 1_555
C56 C55 1_555 1_555
H56 C56 1_555 1_555
H57 C56 1_555 1_555
C57 C56 1_555 1_555
H58 C57 1_555 1_555
H59 C57 1_555 1_555
H60 C57 1_555 1_555
C58 H61 1_555 1_555
H62 C58 1_555 1_555
C59 C58 1_555 1_555
H63 C59 1_555 1_555
H64 C59 1_555 1_555
C60 C59 1_555 1_555
H65 C60 1_555 1_555
H66 C60 1_555 1_555
C61 C60 1_555 1_555
H67 C61 1_555 1_555
H68 C61 1_555 1_555
C62 C61 1_555 1_555
H69 C62 1_555 1_555
H70 C62 1_555 1_555
C63 C62 1_555 1_555
H71 C63 1_555 1_555
H72 C63 1_555 1_555
H73 C63 1_555 1_555
C64 H74 1_555 1_555
C65 C64 1_555 1_555
C66 C68 1_555 1_555
C67 C64 1_555 1_555
C68 H75 1_555 1_555
H76 C68 1_555 1_555
H77 C68 1_555 1_555
C69 C65 1_555 1_555
H78 C69 1_555 1_555
H79 C69 1_555 1_555
H80 C69 1_555 1_555
C70 C65 1_555 1_555
H81 C70 1_555 1_555
C71 C66 1_555 1_555
H82 C71 1_555 1_555
C72 C67 1_555 1_555
H83 C72 1_555 1_555
H84 C72 1_555 1_555
H85 C72 1_555 1_555
N1 C1 1_555 1_555
N2 C29 1_555 1_555
N3 C19 1_555 1_555
Ni1 N1 1_555 1_555
O1 C14 1_555 1_555
O2 C42 1_555 1_555
O3 C17 1_555 1_555
N4 O4 1_555 1_555
O4 Ni1 1_555 1_555
O5 N4 1_555 1_555
O6 Ni1 1_555 1_555
N5 O7 1_555 1_555
O7 Ni1 1_555 1_555
O8 N5 1_555 1_555
O9 N5 1_555 1_555
O16 C73 1_555 1_555
C42A C41 1_555 1_555
C40A C42A 1_555 1_555
C37A C40A 1_555 1_555
C36A C37A 1_555 1_555
C35A C36A 1_555 1_555
C34A C35A 1_555 1_555
C31A C34A 1_555 1_555
C30A C31A 1_555 1_555
C29A C30A 1_555 1_555
H19A C29A 1_555 1_555
N2A C29A 1_555 1_555
C33A N2A 1_555 1_555
C32A C31A 1_555 1_555
H21A C32A 1_555 1_555
H22A C33A 1_555 1_555
Ni1A N2A 1_555 1_555
N1A Ni1A 1_555 1_555
N3A Ni1A 1_555 1_555
O4A Ni1A 1_555 1_555
O6A Ni1A 1_555 1_555
O7A Ni1A 1_555 1_555
N5A O7A 1_555 1_555
O8A N5A 1_555 1_555
O9A N5A 1_555 1_555
H20A C30A 1_555 1_555
C39A C34A 1_555 1_555
C38A C37A 1_555 1_555
H25A C38A 1_555 1_555
H26A C39A 1_555 1_555
H23A C35A 1_555 1_555
H24A C36A 1_555 1_555
C41A C42 1_555 1_555
H27A C41A 1_555 1_555
O2A C42A 1_555 1_555
C43A O2A 1_555 1_555
H28A C43A 1_555 1_555
H29A C43A 1_555 1_555
C44A C43A 1_555 1_555
H30A C44A 1_555 1_555
H31A C44A 1_555 1_555
C45A C44A 1_555 1_555
H32A C45A 1_555 1_555
H33A C45A 1_555 1_555
C46A C45A 1_555 1_555
H34A C46A 1_555 1_555
H35A C46A 1_555 1_555
C47A C46A 1_555 1_555
H36A C47A 1_555 1_555
H37A C47A 1_555 1_555
C48A C47A 1_555 1_555
H38A C48A 1_555 1_555
H39A C48A 1_555 1_555
H40A C48A 1_555 1_555
N3_2 Ni1 1_555 1_555
C19_2 N3_2 1_555 1_555
H11_2 C19_2 1_555 1_555
C20_2 C19_2 1_555 1_555
H12_2 C20_2 1_555 1_555
C21_2 C20_2 1_555 1_555
C22_2 C21_2 1_555 1_555
H13_2 C22_2 1_555 1_555
C23_2 N3_2 1_555 1_555
H14_2 C23_2 1_555 1_555
C24_2 C21_2 1_555 1_555
C25_2 C24_2 1_555 1_555
H15_2 C25_2 1_555 1_555
C26_2 C25_2 1_555 1_555
C18_2 C26_2 1_555 1_555
C15_2 C18_2 1_555 1_555
C14_2 C15_2 1_555 1_555
C13_2 C14_2 1_555 1_555
C12_2 C13_2 1_555 1_555
C9_2 C12_2 1_555 1_555
C8_2 C9_2 1_555 1_555
C7_2 C8_2 1_555 1_555
C6_2 C7_2 1_555 1_555
C3_2 C6_2 1_555 1_555
C2_2 C3_2 1_555 1_555
C4_2 C3_2 1_555 1_555
C11_2 C6_2 1_555 1_555
C10_2 C9_2 1_555 1_555
H7_2 C10_2 1_555 1_555
H8_2 C11_2 1_555 1_555
H5_2 C7_2 1_555 1_555
H6_2 C8_2 1_555 1_555
C17_2 C12_2 1_555 1_555
C16_2 C15_2 1_555 1_555
H10_2 C16_2 1_555 1_555
O3_2 C17_2 1_555 1_555
C52_2 O3_2 1_555 1_555
H48_2 C52_2 1_555 1_555
H49_2 C52_2 1_555 1_555
C53_2 C52_2 1_555 1_555
H50_2 C53_2 1_555 1_555
H51_2 C53_2 1_555 1_555
C54_2 C53_2 1_555 1_555
H52_2 C54_2 1_555 1_555
H53_2 C54_2 1_555 1_555
C55_2 C54_2 1_555 1_555
H54_2 C55_2 1_555 1_555
H55_2 C55_2 1_555 1_555
C56_2 C55_2 1_555 1_555
H56_2 C56_2 1_555 1_555
H57_2 C56_2 1_555 1_555
C57_2 C56_2 1_555 1_555
H58_2 C57_2 1_555 1_555
H59_2 C57_2 1_555 1_555
H60_2 C57_2 1_555 1_555
H9_2 C13_2 1_555 1_555
O1_2 C14_2 1_555 1_555
C58_2 O1_2 1_555 1_555
H61_2 C58_2 1_555 1_555
H62_2 C58_2 1_555 1_555
C59_2 C58_2 1_555 1_555
H63_2 C59_2 1_555 1_555
H64_2 C59_2 1_555 1_555
C60_2 C59_2 1_555 1_555
H65_2 C60_2 1_555 1_555
H66_2 C60_2 1_555 1_555
C61_2 C60_2 1_555 1_555
H67_2 C61_2 1_555 1_555
H68_2 C61_2 1_555 1_555
C62_2 C61_2 1_555 1_555
H69_2 C62_2 1_555 1_555
H70_2 C62_2 1_555 1_555
C63_2 C62_2 1_555 1_555
H71_2 C63_2 1_555 1_555
H72_2 C63_2 1_555 1_555
H73_2 C63_2 1_555 1_555
C27_2 C18_2 1_555 1_555
H17_2 C27_2 1_555 1_555
C28_2 C24_2 1_555 1_555
H18_2 C28_2 1_555 1_555
H16_2 C26_2 1_555 1_555
Ni1_2 N3 1_555 1_555
N4A O4A 1_555 1_555
C1_2 C2_2 1_555 1_555
H2_2 C2_2 1_555 1_555
H3_2 C4_2 1_555 1_555
C5_2 C4_2 1_555 1_555
O5A N4A 1_555 1_555
H1_2 C1_2 1_555 1_555
N1_2 C1_2 1_555 1_555
H4_2 C5_2 1_555 1_555
Ni1_3 N1_2 1_555 1_555
C5 N1 1_555 1_555
C10 C11 1_555 1_555
C16 C17 1_555 1_555
C23 N3 1_555 1_555
C25 C26 1_555 1_555
C27 C28 1_555 1_555
C33 N2 1_555 1_555
C38 C39 1_555 1_555
C43 O2 1_555 1_555
C52 O3 1_555 1_555
C58 O1 1_555 1_555
C66 C70 1_555 1_555
C67 C71 1_555 1_555
N2 Ni1 1_555 1_555
N4 O6 1_555 1_555
C40A C41A 1_555 1_555
C33A C32A 1_555 1_555
O6A N4A 1_555 1_555
C39A C38A 1_555 1_555
C22_2 C23_2 1_555 1_555
C11_2 C10_2 1_555 1_555
C17_2 C16_2 1_555 1_555
C27_2 C28_2 1_555 1_555
C5_2 N1_2 1_555 1_555

#END
