
#######################################################################
#
#                 Cambridge Crystallographic Data Centre
#                                CCDC 
#
#######################################################################
#
# If this CIF has been generated from an entry in the Cambridge 
# Structural Database, then it will include bibliographic, chemical, 
# crystal, experimental, refinement or atomic coordinate data resulting 
# from the CCDC's data processing and validation procedures.
#
#######################################################################

data_EVUMAK
_symmetry_cell_setting           monoclinic
_symmetry_space_group_name_H-M   'P 21/c'
_symmetry_Int_Tables_number      14
_space_group_name_Hall           '-P 2ybc'
loop_
_symmetry_equiv_pos_site_id
_symmetry_equiv_pos_as_xyz
1 x,y,z
2 -x,1/2+y,1/2-z
3 -x,-y,-z
4 x,1/2-y,1/2+z
_cell_length_a                   10.6312(6)
_cell_length_b                   14.3635(7)
_cell_length_c                   11.5860(6)
_cell_angle_alpha                90
_cell_angle_beta                 91.399(5)
_cell_angle_gamma                90
_cell_volume                     1768.67
loop_
_atom_site_label
_atom_site_type_symbol
_atom_site_fract_x
_atom_site_fract_y
_atom_site_fract_z
Cd1 Cd 0.649053(15) 0.845053(10) 0.320292(14)
O1 O 0.39365(18) 0.84628(11) 0.01992(16)
O2 O 0.53964(16) 0.80292(11) 0.14969(15)
O3 O 0.61394(19) 1.06234(13) 0.39571(17)
O4 O 0.32331(16) 1.18444(11) 0.14470(15)
O5 O 0.47950(19) 0.82451(13) 0.43596(18)
N1 N 0.54510(17) 0.96908(12) 0.24973(16)
N2 N 0.47365(18) 1.12242(12) 0.26470(17)
H1 H 0.4809 1.1768 0.2991
N3 N 0.8380(2) 0.85569(14) 0.21849(19)
N4 N 0.81244(19) 0.86792(14) 0.45305(18)
C1 C 0.4645(2) 0.86155(15) 0.10431(19)
C2 C 0.4635(2) 0.95859(14) 0.15884(18)
C3 C 0.3848(2) 1.02652(14) 0.11919(19)
H2 H 0.3275 1.0149 0.0566
C4 C 0.3897(2) 1.11571(15) 0.17343(19)
C5 C 0.5477(2) 1.05055(15) 0.3069(2)
C6 C 0.8504(3) 0.85404(19) 0.1049(2)
H3 H 0.7766 0.8491 0.0573
C7 C 0.9674(4) 0.8593(2) 0.0517(3)
H4 H 0.9722 0.8605 -0.0301
C8 C 1.0735(3) 0.8627(3) 0.1192(3)
H5 H 1.1537 0.8641 0.0848
C9 C 1.0646(3) 0.8641(2) 0.2403(3)
C10 C 1.1721(3) 0.8676(3) 0.3167(3)
H6 H 1.2540 0.8661 0.2858
C11 C 1.1589(3) 0.8728(3) 0.4319(3)
H7 H 1.2319 0.8748 0.4809
C12 C 1.0376(3) 0.8755(2) 0.4817(3)
C13 C 1.0206(3) 0.8833(2) 0.6012(3)
H8 H 1.0914 0.8883 0.6524
C14 C 0.9030(3) 0.8837(3) 0.6432(3)
H9 H 0.8904 0.8894 0.7237
C15 C 0.8006(3) 0.8754(2) 0.5663(2)
H10 H 0.7183 0.8752 0.5966
C16 C 0.9296(2) 0.86819(16) 0.4096(2)
C17 C 0.9436(2) 0.86239(17) 0.2863(2)
H11 H 0.454(3) 0.7700(17) 0.462(3)
H12 H 0.4582(16) 0.8560(10) 0.4982(14)
Cd1A Cd 0.350947(15) 1.345053(10) 0.179708(14)
O4A O 0.67669(16) 0.68444(11) 0.35530(15)
O6 O 0.2020(4) 0.8985(4) -0.1496(4)
H13 H 0.2179 0.8300 -0.1477
H14 H 0.2772 0.9184 -0.1102
loop_
_geom_bond_atom_site_label_1
_geom_bond_atom_site_label_2
_geom_bond_site_symmetry_1
_geom_bond_site_symmetry_2
Cd1 O2 1_555 1_555
O1 C1 1_555 1_555
O2 C1 1_555 1_555
O3 C5 1_555 1_555
O4 C4 1_555 1_555
O5 Cd1 1_555 1_555
N1 Cd1 1_555 1_555
N2 H1 1_555 1_555
N3 Cd1 1_555 1_555
N4 Cd1 1_555 1_555
C1 C2 1_555 1_555
C2 N1 1_555 1_555
C3 C2 1_555 1_555
H2 C3 1_555 1_555
C4 N2 1_555 1_555
C5 N1 1_555 1_555
C6 N3 1_555 1_555
H3 C6 1_555 1_555
C7 C6 1_555 1_555
H4 C7 1_555 1_555
C8 C7 1_555 1_555
H5 C8 1_555 1_555
C9 C8 1_555 1_555
C10 C9 1_555 1_555
H6 C10 1_555 1_555
C11 C10 1_555 1_555
H7 C11 1_555 1_555
C12 C11 1_555 1_555
C13 C12 1_555 1_555
H8 C13 1_555 1_555
C14 C13 1_555 1_555
H9 C14 1_555 1_555
C15 N4 1_555 1_555
H10 C15 1_555 1_555
C16 N4 1_555 1_555
C17 N3 1_555 1_555
H11 O5 1_555 1_555
H12 O5 1_555 1_555
O6 H13 1_555 1_555
H14 O6 1_555 1_555
Cd1A O4 1_555 1_555
O4A Cd1 1_555 1_555
N2 C5 1_555 1_555
C3 C4 1_555 1_555
C9 C17 1_555 1_555
C12 C16 1_555 1_555
C14 C15 1_555 1_555
C16 C17 1_555 1_555

#END
