
#######################################################################
#
#                 Cambridge Crystallographic Data Centre
#                                CCDC 
#
#######################################################################
#
# If this CIF has been generated from an entry in the Cambridge 
# Structural Database, then it will include bibliographic, chemical, 
# crystal, experimental, refinement or atomic coordinate data resulting 
# from the CCDC's data processing and validation procedures.
#
#######################################################################

data_EVUNOY
_symmetry_cell_setting           orthorhombic
_symmetry_space_group_name_H-M   'P b c n'
_symmetry_Int_Tables_number      60
_space_group_name_Hall           '-P 2n 2ab'
loop_
_symmetry_equiv_pos_site_id
_symmetry_equiv_pos_as_xyz
1 x,y,z
2 1/2+x,1/2+y,1/2-z
3 x,-y,1/2+z
4 1/2-x,1/2+y,z
5 -x,-y,-z
6 1/2-x,1/2-y,1/2+z
7 -x,y,1/2-z
8 1/2+x,1/2-y,-z
_cell_length_a                   13.237(3)
_cell_length_b                   14.870(3)
_cell_length_c                   14.698(3)
_cell_angle_alpha                90
_cell_angle_beta                 90
_cell_angle_gamma                90
_cell_volume                     2893.07
loop_
_atom_site_label
_atom_site_type_symbol
_atom_site_fract_x
_atom_site_fract_y
_atom_site_fract_z
Cd1 Cd 0.0000 0.35115(6) 0.2500
Cd2 Cd -0.23831(5) 0.38990(5) -0.06321(5)
C1 C -0.1504(8) 0.3529(6) 0.0593(7)
N1 N -0.1029(7) 0.3449(6) 0.1213(6)
C2 C -0.1622(7) 0.2001(6) 0.3582(6)
N2 N -0.1053(7) 0.2428(6) 0.3196(6)
C3 C -0.1456(8) 0.5176(6) 0.3493(7)
N3 N -0.1015(7) 0.4645(6) 0.3126(6)
N4 N -0.4225(10) 0.6192(8) 0.0134(10)
H1 H -0.4560 0.6667 -0.0009
C4 C -0.3830(9) 0.5613(8) -0.0464(9)
N5 N -0.3396(7) 0.4968(6) -0.0002(6)
C5 C -0.3514(9) 0.5157(9) 0.0904(8)
H2 H -0.3280 0.4809 0.1386
C6 C -0.4028(11) 0.5933(11) 0.0972(11)
H3 H -0.4208 0.6228 0.1506
C7 C -0.3870(12) 0.5728(11) -0.1470(9)
H4 H -0.3535 0.5231 -0.1759
H5 H -0.3539 0.6278 -0.1636
H6 H -0.4562 0.5748 -0.1665
C1F C 0.1504(8) 0.3529(6) 0.4407(7)
N1F N 0.1029(7) 0.3449(6) 0.3787(6)
C2F C 0.1622(7) 0.2001(6) 0.1418(6)
N2F N 0.1053(7) 0.2428(6) 0.1804(6)
C3F C 0.1456(8) 0.5176(6) 0.1507(7)
N3F N 0.1015(7) 0.4645(6) 0.1874(6)
Cd2F Cd 0.23831(5) 0.38990(5) 0.56321(5)
N4F N 0.4225(10) 0.6192(8) 0.4866(10)
H1F H 0.4560 0.6667 0.5009
C4F C 0.3830(9) 0.5613(8) 0.5464(9)
N5F N 0.3396(7) 0.4968(6) 0.5002(6)
C5F C 0.3514(9) 0.5157(9) 0.4096(8)
H2F H 0.3280 0.4809 0.3614
C6F C 0.4028(11) 0.5933(11) 0.4028(11)
H3F H 0.4208 0.6228 0.3494
C7F C 0.3870(12) 0.5728(11) 0.6470(9)
H4F H 0.3535 0.5231 0.6759
H5F H 0.3539 0.6278 0.6636
H6F H 0.4562 0.5748 0.6665
C2E C -0.3378(7) 0.2999(6) -0.1418(6)
C3B C -0.1456(8) 0.4824(6) -0.1507(7)
Cd2E Cd -0.26169(5) 0.11010(5) 0.43679(5)
Cd2B Cd -0.23831(5) 0.61010(5) 0.43679(5)
Cd2G Cd 0.26169(5) 0.11010(5) 0.06321(5)
Cd2D Cd 0.23831(5) 0.61010(5) 0.06321(5)
C2G C 0.3378(7) 0.2999(6) 0.6418(6)
C3D C 0.1456(8) 0.4824(6) 0.6507(7)
O1 O 0.508(3) 0.250(2) 0.0922(17)
S1 S 0.5773(8) 0.2042(6) 0.1054(7)
C8 C 0.5994(14) 0.1093(12) 0.0513(13)
H7 H 0.5548 0.1045 0.0001
H8 H 0.5881 0.0596 0.0918
H9 H 0.6682 0.1084 0.0306
C9 C 0.6565(16) 0.2099(13) 0.1897(13)
H10 H 0.6464 0.2652 0.2221
H11 H 0.7243 0.2078 0.1667
H12 H 0.6455 0.1601 0.2301
loop_
_geom_bond_atom_site_label_1
_geom_bond_atom_site_label_2
_geom_bond_site_symmetry_1
_geom_bond_site_symmetry_2
Cd1 N1 1_555 1_555
Cd2 C1 1_555 1_555
C1 N1 1_555 1_555
C2 N2 1_555 1_555
N2 Cd1 1_555 1_555
C3 N3 1_555 1_555
N3 Cd1 1_555 1_555
N4 H1 1_555 1_555
C4 N4 1_555 1_555
N5 Cd2 1_555 1_555
C5 N5 1_555 1_555
H2 C5 1_555 1_555
C6 N4 1_555 1_555
H3 C6 1_555 1_555
C7 C4 1_555 1_555
H4 C7 1_555 1_555
H5 C7 1_555 1_555
H6 C7 1_555 1_555
O1 S1 1_555 1_555
S1 C8 1_555 1_555
C8 H7 1_555 1_555
H8 C8 1_555 1_555
H9 C8 1_555 1_555
C9 S1 1_555 1_555
H10 C9 1_555 1_555
H11 C9 1_555 1_555
H12 C9 1_555 1_555
C1F N1F 1_555 1_555
N1F Cd1 1_555 1_555
C2F N2F 1_555 1_555
N2F Cd1 1_555 1_555
C3F N3F 1_555 1_555
N3F Cd1 1_555 1_555
Cd2F C1F 1_555 1_555
N4F H1F 1_555 1_555
C4F N4F 1_555 1_555
N5F Cd2F 1_555 1_555
C5F N5F 1_555 1_555
H2F C5F 1_555 1_555
C6F N4F 1_555 1_555
H3F C6F 1_555 1_555
C7F C4F 1_555 1_555
H4F C7F 1_555 1_555
H5F C7F 1_555 1_555
H6F C7F 1_555 1_555
C2E Cd2 1_555 1_555
C3B Cd2 1_555 1_555
Cd2E C2 1_555 1_555
Cd2B C3 1_555 1_555
Cd2G C2F 1_555 1_555
Cd2D C3F 1_555 1_555
C2G Cd2F 1_555 1_555
C3D Cd2F 1_555 1_555
C4 N5 1_555 1_555
C5 C6 1_555 1_555
C4F N5F 1_555 1_555
C5F C6F 1_555 1_555

#END
