
#######################################################################
#
#                 Cambridge Crystallographic Data Centre
#                                CCDC 
#
#######################################################################
#
# If this CIF has been generated from an entry in the Cambridge 
# Structural Database, then it will include bibliographic, chemical, 
# crystal, experimental, refinement or atomic coordinate data resulting 
# from the CCDC's data processing and validation procedures.
#
#######################################################################

data_EVUNAL
_symmetry_cell_setting           monoclinic
_symmetry_space_group_name_H-M   'C 2/c'
_symmetry_Int_Tables_number      15
_space_group_name_Hall           '-C 2yn'
loop_
_symmetry_equiv_pos_site_id
_symmetry_equiv_pos_as_xyz
1 x,y,z
2 -x,y,1/2-z
3 1/2+x,1/2+y,z
4 1/2-x,1/2+y,1/2-z
5 -x,-y,-z
6 x,-y,1/2+z
7 1/2-x,1/2-y,-z
8 1/2+x,1/2-y,1/2+z
_cell_length_a                   24.5039(13)
_cell_length_b                   9.8214(5)
_cell_length_c                   19.6019(17)
_cell_angle_alpha                90
_cell_angle_beta                 126.0280(10)
_cell_angle_gamma                90
_cell_volume                     3815.14
loop_
_atom_site_label
_atom_site_type_symbol
_atom_site_fract_x
_atom_site_fract_y
_atom_site_fract_z
Nd1 Nd 1.021250(11) 0.60719(2) 0.426498(14)
Zn1 Zn 1.28685(3) 0.96325(5) 0.68331(3)
Zn2 Zn 1.14754(3) 1.03326(5) 0.45548(3)
O1 O 1.08634(15) 0.8106(3) 0.50608(18)
O2 O 1.18085(16) 0.9277(3) 0.5594(2)
O3 O 1.05342(14) 0.5804(3) 0.57120(18)
O4 O 1.11422(15) 0.4666(3) 0.69005(19)
O5 O 1.17027(18) 0.6502(3) 0.3692(2)
O6 O 1.12509(18) 0.6330(3) 0.4387(2)
O7 O 1.08687(17) 0.4034(3) 0.4918(2)
O8 O 1.11185(19) 0.1853(3) 0.5022(2)
O9 O 1.00208(17) 0.4720(3) 0.30824(19)
O10 O 0.99647(12) 0.7455(2) 0.30450(14)
O11 O 0.94662(12) 0.7902(2) 0.41386(14)
H1 H 0.933(2) 0.792(4) 0.445(2)
H2 H 0.92507(15) 0.8420(3) 0.37114(18)
O12 O 1.05240(15) 0.9987(3) 0.35353(18)
H3 H 1.0446 0.9368 0.3155
H4 H 1.0186 1.0448 0.3475
O13 O 1.19227(15) 0.9140(3) 0.41318(18)
H5 H 1.1791 0.8271 0.3972
H6 H 1.2261 0.9481 0.4112
N1 N 1.22641(18) 0.6129(4) 0.7515(2)
N2 N 1.24961(18) 0.7929(4) 0.7032(2)
N3 N 1.17129(19) 0.2089(4) 0.4252(2)
N4 N 1.19627(19) 0.3876(4) 0.3779(2)
C1 C 1.1465(2) 0.8334(4) 0.5630(3)
C2 C 1.1845(2) 0.7537(4) 0.6420(3)
C3 C 1.1698(2) 0.6422(4) 0.6723(3)
C4 C 1.1093(2) 0.5588(4) 0.6421(3)
C5 C 1.2716(2) 0.7060(5) 0.7661(3)
H7 H 1.3149 0.7099 0.8162
C6 C 1.1522(2) 0.5818(4) 0.4071(3)
C7 C 1.1638(2) 0.4343(4) 0.4111(3)
C8 C 1.1482(2) 0.3240(4) 0.4402(3)
C9 C 1.1135(2) 0.3060(5) 0.4808(3)
C10 C 1.1992(2) 0.2522(5) 0.3873(3)
H8 H 1.2186 0.1944 0.3695
C11 C 1.0000 0.5301(6) 0.2500
C12 C 1.0000 0.6877(6) 0.2500
Nd1D Nd 0.978750(11) 0.39281(2) 0.573502(14)
Nd1A Nd 0.978750(11) 0.60719(2) 0.073502(14)
Nd1F Nd 1.478750(11) 0.89281(2) 0.573502(14)
Zn1D Zn 0.71315(3) 0.03675(5) 0.31669(3)
Zn1C Zn 1.21315(3) 0.46325(5) 0.81669(3)
Zn1F Zn 1.21315(3) 0.53675(5) 0.31669(3)
Zn1G Zn 0.78685(3) 0.53675(5) 0.18331(3)
Zn2D Zn 0.85246(3) -0.03326(5) 0.54452(3)
Zn2_2 Zn 1.14754(3) 0.03326(5) 0.45548(3)
Zn2F Zn 1.35246(3) 1.46674(5) 0.54452(3)
O1D O 0.91366(15) 0.1894(3) 0.49392(18)
O2D O 0.81915(16) 0.0723(3) 0.4406(2)
O3D O 0.94658(14) 0.4196(3) 0.42880(18)
O4D O 0.88578(15) 0.5334(3) 0.30995(19)
O4C O 1.38578(15) 0.9666(3) 0.80995(19)
O4G O 0.61422(15) 0.0334(3) 0.19005(19)
O5F O 1.32973(18) 0.8498(3) 0.6308(2)
O5B O 0.67027(18) 0.1502(3) 0.3692(2)
O6F O 1.37491(18) 0.8670(3) 0.5613(2)
O6D O 0.87491(18) 0.3670(3) 0.5613(2)
O7F O 1.41313(17) 1.0966(3) 0.5082(2)
O7D O 0.91313(17) 0.5966(3) 0.5082(2)
O8F O 1.38815(19) 1.3147(3) 0.4978(2)
O8_2 O 1.11185(19) 1.1853(3) 0.5022(2)
O8D O 0.88815(19) -0.1853(3) 0.4978(2)
O9A O 0.99792(17) 0.4720(3) 0.19176(19)
O9D O 0.99792(17) 0.5280(3) 0.69176(19)
O10A O 1.00353(12) 0.7455(2) 0.19550(14)
O10D O 1.00353(12) 0.2545(2) 0.69550(14)
O11D O 1.05338(12) 0.2098(2) 0.58614(14)
H1D H 1.067(2) 0.208(4) 0.555(2)
H2D H 1.07493(15) 0.1580(3) 0.62886(18)
O12D O 0.94760(15) 0.0013(3) 0.64647(18)
H3D H 0.9554 0.0632 0.6845
H4D H 0.9814 -0.0448 0.6525
O13D O 0.80773(15) 0.0860(3) 0.58682(18)
H5D H 0.8209 0.1729 0.6028
H6D H 0.7739 0.0519 0.5888
N1D N 0.77359(18) 0.3871(4) 0.2485(2)
N1C N 1.27359(18) 1.1129(4) 0.7485(2)
N1G N 0.72641(18) -0.1129(4) 0.2515(2)
N2D N 0.75039(18) 0.2071(4) 0.2968(2)
N3F N 1.32871(19) 1.2911(4) 0.5748(2)
N3_2 N 1.17129(19) 1.2089(4) 0.4252(2)
N3D N 0.82871(19) -0.2089(4) 0.5748(2)
N4F N 1.30373(19) 1.1124(4) 0.6221(2)
N4B N 0.69627(19) -0.1124(4) 0.3779(2)
C1D C 0.8535(2) 0.1666(4) 0.4370(3)
C2D C 0.8155(2) 0.2463(4) 0.3580(3)
C3D C 0.8302(2) 0.3578(4) 0.3277(3)
C4D C 0.8907(2) 0.4412(4) 0.3579(3)
C5D C 0.7284(2) 0.2940(5) 0.2339(3)
H7D H 0.6851 0.2901 0.1838
C6F C 1.3478(2) 0.9182(4) 0.5929(3)
C7F C 1.3362(2) 1.0657(4) 0.5889(3)
C8F C 1.3518(2) 1.1760(4) 0.5598(3)
C9F C 1.3865(2) 1.1940(5) 0.5192(3)
C10F C 1.3008(2) 1.2478(5) 0.6127(3)
H8F H 1.2814 1.3056 0.6305
O14 O 0.96528(15) 0.0618(3) 0.41116(18)
O15 O 0.6323(5) 0.5041(9) 0.7399(6)
O16 O 0.4652(4) 0.2957(6) 0.8013(8)
loop_
_geom_bond_atom_site_label_1
_geom_bond_atom_site_label_2
_geom_bond_site_symmetry_1
_geom_bond_site_symmetry_2
Nd1 O1 1_555 1_555
Zn1 O2 1_555 1_555
Zn2 O2 1_555 1_555
O1 C1 1_555 1_555
O2 C1 1_555 1_555
O3 Nd1 1_555 1_555
O4 C4 1_555 1_555
O5 C6 1_555 1_555
O6 Nd1 1_555 1_555
O7 Nd1 1_555 1_555
O8 C9 1_555 1_555
O9 Nd1 1_555 1_555
O10 Nd1 1_555 1_555
O11 Nd1 1_555 1_555
H1 O11 1_555 1_555
H2 O11 1_555 1_555
O12 Zn2 1_555 1_555
H3 O12 1_555 1_555
H4 O12 1_555 1_555
O13 Zn2 1_555 1_555
H5 O13 1_555 1_555
H6 O13 1_555 1_555
N1 C3 1_555 1_555
N2 Zn1 1_555 1_555
N3 C8 1_555 1_555
N4 C7 1_555 1_555
C1 C2 1_555 1_555
C2 N2 1_555 1_555
C3 C2 1_555 1_555
C4 O3 1_555 1_555
C5 N1 1_555 1_555
H7 C5 1_555 1_555
C6 O6 1_555 1_555
C7 C6 1_555 1_555
C8 C7 1_555 1_555
C9 O7 1_555 1_555
C10 N3 1_555 1_555
H8 C10 1_555 1_555
C11 O9 1_555 1_555
C12 O10 1_555 1_555
Nd1D O3 1_555 1_555
Nd1A O9A 1_555 1_555
Nd1F O6F 1_555 1_555
Zn1D O2D 1_555 1_555
Zn1C O4 1_555 1_555
Zn1F O5 1_555 1_555
Zn1G O4D 1_555 1_555
Zn2D O2D 1_555 1_555
Zn2_2 O8 1_555 1_555
Zn2F O8F 1_555 1_555
O1D Nd1D 1_555 1_555
O2D C1D 1_555 1_555
O3D Nd1 1_555 1_555
O4D Nd1 1_555 1_555
O4C Zn1 1_555 1_555
O4G Zn1D 1_555 1_555
O5F Zn1 1_555 1_555
O5B Zn1D 1_555 1_555
O6F C6F 1_555 1_555
O6D Nd1D 1_555 1_555
O7F Nd1F 1_555 1_555
O7D Nd1D 1_555 1_555
O8F C9F 1_555 1_555
O8_2 Zn2 1_555 1_555
O8D Zn2D 1_555 1_555
O9A C11 1_555 1_555
O9D Nd1D 1_555 1_555
O10A C12 1_555 1_555
O10D Nd1D 1_555 1_555
O11D Nd1D 1_555 1_555
H1D O11D 1_555 1_555
H2D O11D 1_555 1_555
O12D Zn2D 1_555 1_555
H3D O12D 1_555 1_555
H4D O12D 1_555 1_555
O13D Zn2D 1_555 1_555
H5D O13D 1_555 1_555
H6D O13D 1_555 1_555
N1D Zn1G 1_555 1_555
N1C Zn1 1_555 1_555
N1G Zn1D 1_555 1_555
N2D Zn1D 1_555 1_555
N3F Zn2F 1_555 1_555
N3_2 Zn2 1_555 1_555
N3D Zn2D 1_555 1_555
N4F Zn1 1_555 1_555
N4B Zn1D 1_555 1_555
C1D O1D 1_555 1_555
C2D N2D 1_555 1_555
C3D N1D 1_555 1_555
C4D O3D 1_555 1_555
C5D N1D 1_555 1_555
H7D C5D 1_555 1_555
C6F O5F 1_555 1_555
C7F N4F 1_555 1_555
C8F N3F 1_555 1_555
C9F O7F 1_555 1_555
C10F N3F 1_555 1_555
H8F C10F 1_555 1_555
O4 Nd1D 1_555 1_555
N1 Zn1C 1_555 1_555
N2 C5 1_555 1_555
N3 Zn2_2 1_555 1_555
N4 C10 1_555 1_555
N4 Zn1F 1_555 1_555
C3 C4 1_555 1_555
C8 C9 1_555 1_555
C11 C12 1_555 1_555
Nd1D O3D 1_555 1_555
Nd1A O10A 1_555 1_555
O4D C4D 1_555 1_555
N2D C5D 1_555 1_555
N4F C10F 1_555 1_555
C1D C2D 1_555 1_555
C2D C3D 1_555 1_555
C3D C4D 1_555 1_555
C6F C7F 1_555 1_555
C7F C8F 1_555 1_555
C8F C9F 1_555 1_555

#END
