
#######################################################################
#
#                 Cambridge Crystallographic Data Centre
#                                CCDC 
#
#######################################################################
#
# If this CIF has been generated from an entry in the Cambridge 
# Structural Database, then it will include bibliographic, chemical, 
# crystal, experimental, refinement or atomic coordinate data resulting 
# from the CCDC's data processing and validation procedures.
#
#######################################################################

data_EVUPAN
_symmetry_cell_setting           monoclinic
_symmetry_space_group_name_H-M   'P 21/c'
_symmetry_Int_Tables_number      14
_space_group_name_Hall           '-P 2ybc'
loop_
_symmetry_equiv_pos_site_id
_symmetry_equiv_pos_as_xyz
1 x,y,z
2 -x,1/2+y,1/2-z
3 -x,-y,-z
4 x,1/2-y,1/2+z
_cell_length_a                   10.3993(7)
_cell_length_b                   10.2250(7)
_cell_length_c                   19.7676(13)
_cell_angle_alpha                90
_cell_angle_beta                 103.8140(10)
_cell_angle_gamma                90
_cell_volume                     2041.15
loop_
_atom_site_label
_atom_site_type_symbol
_atom_site_fract_x
_atom_site_fract_y
_atom_site_fract_z
Dy1 Dy 0.920637(9) 0.565940(9) 0.142177(5)
Zn1 Zn 0.58575(2) 0.74226(2) 0.341535(12)
Zn2 Zn 0.73633(2) 0.13952(2) 0.086557(12)
O1 O 0.89152(13) 0.58348(14) 0.26180(7)
O2 O 0.77539(13) 0.71821(14) 0.31519(7)
O3 O 0.80743(14) 0.37783(15) 0.16103(8)
O4 O 0.64543(14) 0.23362(14) 0.15231(8)
O5 O 0.77687(15) 0.96843(15) 0.15778(7)
O6 O 0.8032(2) 0.75186(17) 0.15352(8)
O7 O 0.73720(16) 0.55903(15) 0.04537(8)
O8 O 0.6603(2) 0.58203(17) -0.06926(9)
O9 O 0.99663(16) 0.65156(15) 0.04204(8)
O10 O 1.01794(14) 0.60512(15) -0.06705(7)
O11 O 1.0818(2) 0.7308(2) 0.18904(11)
O12 O 1.09556(17) 0.44293(17) 0.20685(8)
H1 H 1.1229(11) 0.3732(6) 0.1923(4)
H2 H 1.1312(18) 0.4633(8) 0.2483(3)
O13 O 0.93644(15) 0.14753(15) 0.10361(8)
H3 H 0.9769(16) 0.1238(7) 0.1439(3)
H4 H 0.9592(13) 0.2200(5) 0.0902(4)
O14 O 0.69652(19) 0.28733(16) 0.01295(8)
H5 H 0.704(2) 0.3667(5) 0.0250(4)
H6 H 0.6580(16) 0.2730(9) -0.0288(3)
N1 N 0.55466(17) 0.57676(17) 0.27916(9)
N2 N 0.50042(16) 0.39504(17) 0.21515(9)
N3 N 0.67682(18) 0.98900(18) 0.02120(9)
N4 N 0.62915(17) 0.84143(18) -0.06461(9)
C1 C 0.78512(19) 0.6187(2) 0.27799(10)
C2 C 0.66296(19) 0.5384(2) 0.25450(10)
C3 C 0.62895(19) 0.4262(2) 0.21460(10)
C4 C 0.70030(19) 0.3420(2) 0.17410(10)
C5 C 0.46123(19) 0.4883(2) 0.25437(11)
H8 H 0.3773 0.4904 0.2632
C6 C 0.7669(2) 0.8609(2) 0.12492(11)
C7 C 0.7085(2) 0.8668(2) 0.04934(11)
C8 C 0.6794(2) 0.7744(2) -0.00411(10)
C9 C 0.6932(2) 0.6288(2) -0.00947(11)
C10 C 0.6293(2) 0.9691(2) -0.04663(11)
H9 H 0.5994 1.0359 -0.0784
C11 C 1.0043(2) 0.5748(2) -0.00718(11)
H10 H 1.0890(9) 0.7804(7) 0.2230(3)
H11 H 1.1474(5) 0.7153(12) 0.1732(4)
Dy1B Dy 1.079363(9) 0.434060(9) -0.142177(5)
Dy1A Dy 0.079363(9) 1.065940(9) 0.357823(5)
Dy1C Dy 0.920637(9) 0.934060(9) 0.642177(5)
Zn1A Zn 0.41425(2) 0.24226(2) 0.158465(12)
Zn1C Zn 0.58575(2) 0.75774(2) -0.158465(12)
Zn1A_2 Zn 0.41425(2) 1.24226(2) 0.158465(12)
Zn2_2 Zn 0.73633(2) 1.13952(2) 0.086557(12)
Zn2A Zn 0.26367(2) 0.63952(2) 0.413443(12)
Zn2C Zn 0.73633(2) 0.36048(2) 0.586557(12)
O1A O 0.10848(13) 1.08348(14) 0.23820(7)
O1B O 1.10848(13) 0.41652(14) -0.26180(7)
O2A O 0.22461(13) 1.21821(14) 0.18481(7)
O2A_2 O 0.22461(13) 0.21821(14) 0.18481(7)
O3A O 0.19257(14) 0.87783(15) 0.33897(8)
O3B O 1.19257(14) 0.62217(15) -0.16103(8)
O4A O 0.35457(14) 0.73362(14) 0.34769(8)
O4_2 O 0.64543(14) 1.23362(14) 0.15231(8)
O5C O 0.77687(15) 0.53157(15) 0.65778(7)
O5_2 O 0.77687(15) -0.03157(15) 0.15778(7)
O6C O 0.8032(2) 0.74814(17) 0.65352(8)
O6B O 1.1968(2) 0.24814(17) -0.15352(8)
O7C O 0.73720(16) 0.94097(15) 0.54537(8)
O7B O 1.26280(16) 0.44097(15) -0.04537(8)
O8C O 0.6603(2) 0.91797(17) 0.43074(9)
O8B O 0.3397(2) 0.41797(17) 0.06926(9)
O9B O 1.00337(16) 0.34844(15) -0.04204(8)
O10B O 0.98206(14) 0.39488(15) 0.06705(7)
O11B O 0.9182(2) 0.2692(2) -0.18904(11)
O12B O 0.90444(17) 0.55707(17) -0.20685(8)
H1B H 0.8771(11) 0.6268(6) -0.1923(4)
H2B H 0.8688(18) 0.5367(8) -0.2483(3)
O13_2 O 0.93644(15) 1.14753(15) 0.10361(8)
H3_2 H 0.9769(16) 1.1238(7) 0.1439(3)
H4_2 H 0.9592(13) 1.2200(5) 0.0902(4)
O14_2 O 0.69652(19) 1.28733(16) 0.01295(8)
H5_2 H 0.704(2) 1.3667(5) 0.0250(4)
H6_2 H 0.6580(16) 1.2730(9) -0.0288(3)
N1A N 0.44534(17) 1.07676(17) 0.22084(9)
N1A_2 N 0.44534(17) 0.07676(17) 0.22084(9)
N2A N 0.49958(16) 0.89504(17) 0.28485(9)
N3C N 0.67682(18) 0.51100(18) 0.52120(9)
N3_2 N 0.67682(18) -0.01100(18) 0.02120(9)
N4C N 0.62915(17) 0.65857(18) 0.43539(9)
N4B N 0.37085(17) 0.15857(18) 0.06461(9)
C1A C 0.21488(19) 1.1187(2) 0.22201(10)
C2A C 0.33704(19) 1.0384(2) 0.24550(10)
C3A C 0.37105(19) 0.9262(2) 0.28540(10)
C4A C 0.29970(19) 0.8420(2) 0.32590(10)
C5A C 0.53877(19) 0.9883(2) 0.24563(11)
H8A H 0.6227 0.9904 0.2368
C6C C 0.7669(2) 0.6391(2) 0.62492(11)
C7C C 0.7085(2) 0.6332(2) 0.54934(11)
C8C C 0.6794(2) 0.7256(2) 0.49589(10)
C9C C 0.6932(2) 0.8712(2) 0.49053(11)
C10C C 0.6293(2) 0.5309(2) 0.45337(11)
H9C H 0.5994 0.4641 0.4216
C11B C 0.9957(2) 0.4252(2) 0.00718(11)
H10B H 0.9110(9) 0.2196(7) -0.2230(3)
H11B H 0.8526(5) 0.2847(12) -0.1732(4)
O15 O 0.0912(4) 0.9129(3) 0.08096(18)
O16 O 0.6588(4) 0.3262(5) 0.8708(2)
H7 H 0.6828 0.2497 0.8713
C12 C 0.5269(4) 0.3334(6) 0.8922(3)
H12 H 0.5314 0.2801 0.9326
H13 H 0.4571 0.3023 0.8546
H14 H 0.5094 0.4224 0.9026
loop_
_geom_bond_atom_site_label_1
_geom_bond_atom_site_label_2
_geom_bond_site_symmetry_1
_geom_bond_site_symmetry_2
Dy1 O1 1_555 1_555
Zn1 O2 1_555 1_555
Zn2 O4 1_555 1_555
O1 C1 1_555 1_555
O2 C1 1_555 1_555
O3 Dy1 1_555 1_555
O4 C4 1_555 1_555
O5 C6 1_555 1_555
O6 Dy1 1_555 1_555
O7 Dy1 1_555 1_555
O8 C9 1_555 1_555
O9 Dy1 1_555 1_555
O10 C11 1_555 1_555
O11 Dy1 1_555 1_555
O12 Dy1 1_555 1_555
H1 O12 1_555 1_555
H2 O12 1_555 1_555
O13 Zn2 1_555 1_555
H3 O13 1_555 1_555
H4 O13 1_555 1_555
O14 Zn2 1_555 1_555
H5 O14 1_555 1_555
H6 O14 1_555 1_555
O16 H7 1_555 1_555
N1 Zn1 1_555 1_555
N2 C3 1_555 1_555
N3 C7 1_555 1_555
N4 C8 1_555 1_555
C1 C2 1_555 1_555
C2 N1 1_555 1_555
C3 C2 1_555 1_555
C4 O3 1_555 1_555
C5 N1 1_555 1_555
H8 C5 1_555 1_555
C6 O6 1_555 1_555
C7 C6 1_555 1_555
C8 C7 1_555 1_555
C9 O7 1_555 1_555
C10 N3 1_555 1_555
H9 C10 1_555 1_555
C11 O9 1_555 1_555
H10 O11 1_555 1_555
H11 O11 1_555 1_555
C12 O16 1_555 1_555
H12 C12 1_555 1_555
H13 C12 1_555 1_555
H14 C12 1_555 1_555
Dy1B O10 1_555 1_555
Dy1A O1A 1_555 1_555
Dy1C O6C 1_555 1_555
Zn1A O4 1_555 1_555
Zn1C O8 1_555 1_555
Zn1A_2 O2A 1_555 1_555
Zn2_2 O5 1_555 1_555
Zn2A O4A 1_555 1_555
Zn2C O5C 1_555 1_555
O1A C1A 1_555 1_555
O1B Dy1B 1_555 1_555
O2A C1A 1_555 1_555
O2A_2 Zn1A 1_555 1_555
O3A Dy1A 1_555 1_555
O3B Dy1B 1_555 1_555
O4A Zn1 1_555 1_555
O4_2 Zn1A_2 1_555 1_555
O5C C6C 1_555 1_555
O5_2 Zn2 1_555 1_555
O6C C6C 1_555 1_555
O6B Dy1B 1_555 1_555
O7C Dy1C 1_555 1_555
O7B Dy1B 1_555 1_555
O8C Zn1 1_555 1_555
O8B Zn1A 1_555 1_555
O9B Dy1B 1_555 1_555
O10B Dy1 1_555 1_555
O11B Dy1B 1_555 1_555
O12B Dy1B 1_555 1_555
H1B O12B 1_555 1_555
H2B O12B 1_555 1_555
O13_2 Zn2_2 1_555 1_555
H3_2 O13_2 1_555 1_555
H4_2 O13_2 1_555 1_555
O14_2 Zn2_2 1_555 1_555
H5_2 O14_2 1_555 1_555
H6_2 O14_2 1_555 1_555
N1A Zn1A_2 1_555 1_555
N1A_2 Zn1A 1_555 1_555
N2A Zn1 1_555 1_555
N3C Zn2C 1_555 1_555
N3_2 Zn2 1_555 1_555
N4C Zn1 1_555 1_555
N4B Zn1A 1_555 1_555
C1A C2A 1_555 1_555
C2A N1A 1_555 1_555
C3A N2A 1_555 1_555
C4A O3A 1_555 1_555
C5A N1A 1_555 1_555
H8A C5A 1_555 1_555
C6C C7C 1_555 1_555
C7C N3C 1_555 1_555
C8C N4C 1_555 1_555
C9C O7C 1_555 1_555
C10C N3C 1_555 1_555
H9C C10C 1_555 1_555
C11B C11 1_555 1_555
H10B O11B 1_555 1_555
H11B O11B 1_555 1_555
N2 C5 1_555 1_555
N2 Zn1A 1_555 1_555
N3 Zn2_2 1_555 1_555
N4 C10 1_555 1_555
N4 Zn1C 1_555 1_555
C3 C4 1_555 1_555
C8 C9 1_555 1_555
Zn2_2 O4_2 1_555 1_555
O4A C4A 1_555 1_555
O8C C9C 1_555 1_555
O9B C11B 1_555 1_555
O10B C11B 1_555 1_555
N2A C5A 1_555 1_555
N4C C10C 1_555 1_555
C2A C3A 1_555 1_555
C3A C4A 1_555 1_555
C7C C8C 1_555 1_555
C8C C9C 1_555 1_555

#END
