
#######################################################################
#
#                 Cambridge Crystallographic Data Centre
#                                CCDC 
#
#######################################################################
#
# If this CIF has been generated from an entry in the Cambridge 
# Structural Database, then it will include bibliographic, chemical, 
# crystal, experimental, refinement or atomic coordinate data resulting 
# from the CCDC's data processing and validation procedures.
#
#######################################################################

data_EVURUJ
_symmetry_cell_setting           triclinic
_symmetry_space_group_name_H-M   'P -1'
_symmetry_Int_Tables_number      2
_space_group_name_Hall           '-P 1'
loop_
_symmetry_equiv_pos_site_id
_symmetry_equiv_pos_as_xyz
1 x,y,z
2 -x,-y,-z
_cell_length_a                   9.7118(2)
_cell_length_b                   10.7141(2)
_cell_length_c                   12.0639(3)
_cell_angle_alpha                87.8804(6)
_cell_angle_beta                 84.6264(6)
_cell_angle_gamma                69.6892(7)
_cell_volume                     1172.05
loop_
_atom_site_label
_atom_site_type_symbol
_atom_site_fract_x
_atom_site_fract_y
_atom_site_fract_z
Zn1 Zn 0.33232(2) 0.803443(19) -0.035248(18)
O1 O 1.20536(15) 0.70905(13) 0.03406(12)
O2 O 1.02190(15) 0.84117(13) -0.05939(12)
C1 C 1.0733(2) 0.74861(18) 0.00752(16)
C2 C 0.97865(19) 0.67460(17) 0.06297(15)
C3 C 0.8301(2) 0.71119(17) 0.04466(16)
H1 H 0.7871 0.7832 -0.0040
C4 C 0.7448(2) 0.64173(17) 0.09797(16)
C5 C 0.5853(2) 0.67810(17) 0.07758(16)
O3 O 0.51019(15) 0.61572(13) 0.12822(13)
O4 O 0.53380(15) 0.77215(13) 0.00943(12)
C6 C 0.8074(2) 0.53564(18) 0.16911(16)
H2 H 0.7493 0.4888 0.2061
C7 C 0.9549(2) 0.49977(17) 0.18494(16)
C8 C 1.0413(2) 0.56789(18) 0.13294(16)
H3 H 1.1427 0.5418 0.1451
O5 O 1.02637(14) 0.38691(13) 0.24689(11)
C9 C 0.9614(2) 0.36694(18) 0.34965(16)
C10 C 0.8831(2) 0.46917(18) 0.42181(17)
H4 H 0.8655 0.5590 0.3996
C11 C 0.8299(2) 0.44042(19) 0.52723(17)
H5 H 0.7760 0.5104 0.5773
C12 C 0.8561(2) 0.30864(18) 0.55863(16)
C13 C 0.7968(2) 0.27487(19) 0.66905(17)
O6 O 0.70432(16) 0.37966(13) 0.72332(12)
H6 H 0.6551 0.3534 0.7876
O7 O 0.82690(18) 0.16068(14) 0.70462(13)
C14 C 0.9352(2) 0.20612(18) 0.48500(17)
H7 H 0.9522 0.1164 0.5072
C15 C 0.9897(2) 0.23308(18) 0.37938(17)
N1 N 1.0755(2) 0.13528(16) 0.30581(15)
H8 H 1.0723 0.0533 0.3212
H9 H 1.0727 0.1577 0.2270
N2 N 0.32613(18) 0.95207(15) -0.15110(14)
C16 C 0.2235(2) 0.9955(2) -0.22405(18)
H10 H 0.1384 0.9705 -0.2133
C17 C 0.2365(2) 1.0753(2) -0.31435(18)
H11 H 0.1606 1.1055 -0.3636
C18 C 0.3618(2) 1.11134(18) -0.33271(17)
C19 C 0.4632(2) 1.07196(18) -0.25276(17)
H12 H 0.5472 1.0988 -0.2593
C20 C 0.4418(2) 0.99407(18) -0.16408(16)
H13 H 0.5116 0.9691 -0.1099
C21 C 0.3916(2) 1.18042(18) -0.43592(17)
C22 C 0.3343(2) 1.16631(19) -0.53458(18)
H14 H 0.2688 1.1179 -0.5351
C23 C 0.3736(2) 1.22353(19) -0.63227(18)
H15 H 0.3318 1.2147 -0.6984
N3 N 0.4672(2) 1.29015(18) -0.63751(16)
C24 C 0.5195(3) 1.3071(2) -0.5420(2)
H16 H 0.5848 1.3559 -0.5442
C25 C 0.4828(2) 1.2569(2) -0.44042(19)
H17 H 0.5193 1.2743 -0.3745
O8 O 0.23642(15) 0.95711(13) 0.09122(11)
H18 H 0.1485 1.0348 0.0785
H19 H 0.2078 0.9224 0.1524
O9 O 0.40440(17) 0.65924(13) -0.16175(12)
H20 H 0.4266 0.5784 -0.1530
H21 H 0.4568 0.6631 -0.2286
Zn1_2 Zn 1.33232(2) 0.803443(19) -0.035248(18)
O1_2 O 0.20536(15) 0.70905(13) 0.03406(12)
loop_
_geom_bond_atom_site_label_1
_geom_bond_atom_site_label_2
_geom_bond_site_symmetry_1
_geom_bond_site_symmetry_2
Zn1 O4 1_555 1_555
O1 C1 1_555 1_555
O2 C1 1_555 1_555
C1 C2 1_555 1_555
C2 C3 1_555 1_555
C3 H1 1_555 1_555
C4 C3 1_555 1_555
C5 C4 1_555 1_555
O3 C5 1_555 1_555
O4 C5 1_555 1_555
C6 C4 1_555 1_555
H2 C6 1_555 1_555
C7 C6 1_555 1_555
C8 C2 1_555 1_555
H3 C8 1_555 1_555
O5 C7 1_555 1_555
C9 O5 1_555 1_555
C10 C9 1_555 1_555
H4 C10 1_555 1_555
C11 C10 1_555 1_555
H5 C11 1_555 1_555
C12 C11 1_555 1_555
C13 C12 1_555 1_555
O6 C13 1_555 1_555
H6 O6 1_555 1_555
O7 C13 1_555 1_555
C14 C12 1_555 1_555
H7 C14 1_555 1_555
C15 C9 1_555 1_555
N1 C15 1_555 1_555
H8 N1 1_555 1_555
H9 N1 1_555 1_555
N2 Zn1 1_555 1_555
C16 N2 1_555 1_555
H10 C16 1_555 1_555
C17 C16 1_555 1_555
H11 C17 1_555 1_555
C18 C17 1_555 1_555
C19 C18 1_555 1_555
H12 C19 1_555 1_555
C20 N2 1_555 1_555
H13 C20 1_555 1_555
C21 C18 1_555 1_555
C22 C21 1_555 1_555
H14 C22 1_555 1_555
C23 C22 1_555 1_555
H15 C23 1_555 1_555
N3 C23 1_555 1_555
C24 N3 1_555 1_555
H16 C24 1_555 1_555
C25 C21 1_555 1_555
H17 C25 1_555 1_555
O8 Zn1 1_555 1_555
H18 O8 1_555 1_555
H19 O8 1_555 1_555
O9 Zn1 1_555 1_555
H20 O9 1_555 1_555
H21 O9 1_555 1_555
Zn1_2 O1 1_555 1_555
O1_2 Zn1 1_555 1_555
C7 C8 1_555 1_555
C14 C15 1_555 1_555
C19 C20 1_555 1_555
C24 C25 1_555 1_555

#END
