
#######################################################################
#
#                 Cambridge Crystallographic Data Centre
#                                CCDC 
#
#######################################################################
#
# If this CIF has been generated from an entry in the Cambridge 
# Structural Database, then it will include bibliographic, chemical, 
# crystal, experimental, refinement or atomic coordinate data resulting 
# from the CCDC's data processing and validation procedures.
#
#######################################################################

data_EVURET
_symmetry_cell_setting           triclinic
_symmetry_space_group_name_H-M   'P -1'
_symmetry_Int_Tables_number      2
_space_group_name_Hall           '-P 1'
loop_
_symmetry_equiv_pos_site_id
_symmetry_equiv_pos_as_xyz
1 x,y,z
2 -x,-y,-z
_cell_length_a                   9.9873(3)
_cell_length_b                   12.3715(4)
_cell_length_c                   15.2890(7)
_cell_angle_alpha                98.1485(16)
_cell_angle_beta                 108.8361(17)
_cell_angle_gamma                105.377(3)
_cell_volume                     1669.55
loop_
_atom_site_label
_atom_site_type_symbol
_atom_site_fract_x
_atom_site_fract_y
_atom_site_fract_z
Ni1 Ni 0.74427(4) 0.24137(3) 0.74316(2)
O1 O 0.5377(2) 0.11274(17) 0.68842(14)
C1 C 0.4236(4) 0.1077(3) 0.7079(2)
O2 O 0.4229(3) 0.1689(3) 0.78080(18)
C2 C 0.2750(3) 0.0204(3) 0.6390(2)
C3 C 0.2623(3) -0.0414(3) 0.5518(2)
H1 H 0.3476 -0.0281 0.5347
C4 C 0.1264(3) -0.1222(3) 0.4892(2)
C5 C 0.1117(4) -0.1895(3) 0.3949(2)
O3 O 0.2156(2) -0.15496(17) 0.36563(13)
O4 O -0.0049(3) -0.2770(2) 0.35057(18)
C6 C 0.0008(3) -0.1422(3) 0.5138(2)
H2 H -0.0921 -0.1987 0.4722
C7 C 0.0136(4) -0.0788(3) 0.5997(2)
C8 C 0.1495(3) 0.0024(3) 0.6625(2)
H3 H 0.1561 0.0453 0.7213
O5 O -0.1154(2) -0.0935(2) 0.62097(16)
C9 C -0.1263(3) -0.1472(3) 0.6923(2)
C10 C -0.0276(4) -0.2003(3) 0.7368(2)
H4 H 0.0557 -0.1993 0.7194
C11 C -0.0484(4) -0.2546(3) 0.8059(3)
H5 H 0.0203 -0.2907 0.8363
C12 C -0.1716(4) -0.2563(3) 0.8314(2)
C13 C -0.1893(5) -0.3151(4) 0.9064(3)
O6 O -0.1042(4) -0.3614(3) 0.9465(3)
O7 O -0.3105(4) -0.3143(3) 0.9239(2)
H6 H -0.3025 -0.3453 0.9764
C14 C -0.2709(4) -0.2008(3) 0.7850(2)
H7 H -0.3552 -0.2024 0.8015
C15 C -0.2491(3) -0.1446(3) 0.7165(2)
N1 N -0.3490(3) -0.0943(2) 0.6675(2)
H8 H -0.4281 -0.0969 0.6820
H9 H -0.3111 -0.0244 0.6587
N2 N 0.6537(3) 0.3362(2) 0.65258(17)
C16 C 0.5537(4) 0.2856(3) 0.5641(2)
H10 H 0.5239 0.2039 0.5421
C17 C 0.4914(4) 0.3470(3) 0.5030(2)
H11 H 0.4199 0.3071 0.4407
C18 C 0.5326(4) 0.4655(3) 0.5321(2)
C19 C 0.6387(5) 0.5177(3) 0.6228(3)
H12 H 0.6738 0.5996 0.6453
C20 C 0.6944(5) 0.4509(3) 0.6813(2)
H13 H 0.7644 0.4885 0.7445
N3 N 0.8360(3) 0.1499(2) 0.83614(16)
C21 C 0.9688(3) 0.1353(3) 0.8447(2)
H14 H 1.0186 0.1660 0.8057
C22 C 1.0354(3) 0.0774(3) 0.9080(2)
H15 H 1.1292 0.0698 0.9119
C23 C 0.9659(3) 0.0308(2) 0.96539(18)
C24 C 0.8282(3) 0.0455(3) 0.9556(2)
H16 H 0.7751 0.0148 0.9929
C25 C 0.7703(4) 0.1043(3) 0.8918(2)
H17 H 0.6768 0.1133 0.8870
O8 O 0.9494(3) 0.3737(2) 0.78869(16)
H18 H 0.9853 0.3698 0.8494
H19 H 0.9696 0.3393 0.7392
O9 O 0.6909(2) 0.33008(18) 0.84510(14)
H20 H 0.5988 0.2749 0.8232
H21 H 0.6897 0.4030 0.8617
Ni1A Ni 0.25573(4) -0.24137(3) 0.25684(2)
Ni1A_2 Ni 0.25573(4) 0.75863(3) 0.25684(2)
Ni1A_3 Ni 1.25573(4) -0.24137(3) 1.25684(2)
O1A O 0.4623(2) -0.11274(17) 0.31158(14)
C1A C 0.5764(4) -0.1077(3) 0.2921(2)
O2A O 0.5771(3) -0.1689(3) 0.21920(18)
C2A C 0.7250(3) -0.0204(3) 0.3610(2)
C3A C 0.7377(3) 0.0414(3) 0.4482(2)
H1A H 0.6524 0.0281 0.4653
C4A C 0.8736(3) 0.1222(3) 0.5108(2)
C5A C 0.8883(4) 0.1895(3) 0.6051(2)
O3A O 0.7844(2) 0.15496(17) 0.63437(13)
O4A O 1.0049(3) 0.2770(2) 0.64943(18)
C6A C 0.9992(3) 0.1422(3) 0.4862(2)
H2A H 1.0921 0.1987 0.5278
C7A C 0.9864(4) 0.0788(3) 0.4003(2)
C8A C 0.8505(3) -0.0024(3) 0.3375(2)
H3A H 0.8439 -0.0453 0.2787
O5A O 1.1154(2) 0.0935(2) 0.37903(16)
C9A C 1.1263(3) 0.1472(3) 0.3077(2)
C10A C 1.0276(4) 0.2003(3) 0.2632(2)
H4A H 0.9443 0.1993 0.2806
C11A C 1.0484(4) 0.2546(3) 0.1941(3)
H5A H 0.9797 0.2907 0.1637
C12A C 1.1716(4) 0.2563(3) 0.1686(2)
C13A C 1.1893(5) 0.3151(4) 0.0936(3)
O6A O 1.1042(4) 0.3614(3) 0.0535(3)
O7A O 1.3105(4) 0.3143(3) 0.0761(2)
H6A H 1.3025 0.3453 0.0236
C14A C 1.2709(4) 0.2008(3) 0.2150(2)
H7A H 1.3552 0.2024 0.1985
C15A C 1.2491(3) 0.1446(3) 0.2835(2)
N1A N 1.3490(3) 0.0943(2) 0.3325(2)
H8A H 1.4281 0.0969 0.3180
H9A H 1.3111 0.0244 0.3413
N2A N 0.3463(3) 0.6638(2) 0.34742(17)
N2A_2 N 0.3463(3) -0.3362(2) 0.34742(17)
C16A C 0.4463(4) 0.7144(3) 0.4359(2)
H10A H 0.4761 0.7961 0.4579
C17A C 0.5086(4) 0.6530(3) 0.4970(2)
H11A H 0.5801 0.6929 0.5593
C18A C 0.4674(4) 0.5345(3) 0.4679(2)
C19A C 0.3613(5) 0.4823(3) 0.3772(3)
H12A H 0.3262 0.4004 0.3547
C20A C 0.3056(5) 0.5491(3) 0.3187(2)
H13A H 0.2356 0.5115 0.2555
N3A N 1.1640(3) -0.1499(2) 1.16386(16)
N3A_2 N 0.1640(3) -0.1499(2) 0.16386(16)
C21A C 1.0312(3) -0.1353(3) 1.1553(2)
H14A H 0.9814 -0.1660 1.1943
C22A C 0.9646(3) -0.0774(3) 1.0920(2)
H15A H 0.8708 -0.0698 1.0881
C23A C 1.0341(3) -0.0308(2) 1.03461(18)
C24A C 1.1718(3) -0.0455(3) 1.0444(2)
H16A H 1.2249 -0.0148 1.0071
C25A C 1.2297(4) -0.1043(3) 1.1082(2)
H17A H 1.3232 -0.1133 1.1130
O8A O 0.0506(3) -0.3737(2) 0.21131(16)
H18A H 0.0147 -0.3698 0.1506
H19A H 0.0304 -0.3393 0.2608
O9A O 0.3091(2) -0.33008(18) 0.15490(14)
H20A H 0.4012 -0.2749 0.1768
H21A H 0.3103 -0.4030 0.1383
loop_
_geom_bond_atom_site_label_1
_geom_bond_atom_site_label_2
_geom_bond_site_symmetry_1
_geom_bond_site_symmetry_2
Ni1 O1 1_555 1_555
O1 C1 1_555 1_555
C1 O2 1_555 1_555
C2 C1 1_555 1_555
C3 C2 1_555 1_555
H1 C3 1_555 1_555
C4 C3 1_555 1_555
C5 C4 1_555 1_555
O3 C5 1_555 1_555
O4 C5 1_555 1_555
C6 C4 1_555 1_555
H2 C6 1_555 1_555
C7 C6 1_555 1_555
C8 C2 1_555 1_555
H3 C8 1_555 1_555
O5 C7 1_555 1_555
C9 O5 1_555 1_555
C10 C9 1_555 1_555
H4 C10 1_555 1_555
C11 C10 1_555 1_555
H5 C11 1_555 1_555
C12 C11 1_555 1_555
C13 C12 1_555 1_555
O6 C13 1_555 1_555
O7 C13 1_555 1_555
H6 O7 1_555 1_555
C14 C12 1_555 1_555
H7 C14 1_555 1_555
C15 C9 1_555 1_555
N1 C15 1_555 1_555
H8 N1 1_555 1_555
H9 N1 1_555 1_555
N2 Ni1 1_555 1_555
C16 N2 1_555 1_555
H10 C16 1_555 1_555
C17 C16 1_555 1_555
H11 C17 1_555 1_555
C18 C17 1_555 1_555
C19 C18 1_555 1_555
H12 C19 1_555 1_555
C20 N2 1_555 1_555
H13 C20 1_555 1_555
N3 Ni1 1_555 1_555
C21 N3 1_555 1_555
H14 C21 1_555 1_555
C22 C21 1_555 1_555
H15 C22 1_555 1_555
C23 C22 1_555 1_555
C24 C23 1_555 1_555
H16 C24 1_555 1_555
C25 N3 1_555 1_555
H17 C25 1_555 1_555
O8 Ni1 1_555 1_555
H18 O8 1_555 1_555
H19 O8 1_555 1_555
O9 Ni1 1_555 1_555
H20 O9 1_555 1_555
H21 O9 1_555 1_555
Ni1A O3 1_555 1_555
Ni1A_2 N2A 1_555 1_555
Ni1A_3 N3A 1_555 1_555
O1A Ni1A 1_555 1_555
C1A O1A 1_555 1_555
O2A C1A 1_555 1_555
C2A C1A 1_555 1_555
C3A C2A 1_555 1_555
H1A C3A 1_555 1_555
C4A C3A 1_555 1_555
C5A C4A 1_555 1_555
O3A Ni1 1_555 1_555
O4A C5A 1_555 1_555
C6A C4A 1_555 1_555
H2A C6A 1_555 1_555
C7A C6A 1_555 1_555
C8A C2A 1_555 1_555
H3A C8A 1_555 1_555
O5A C7A 1_555 1_555
C9A O5A 1_555 1_555
C10A C9A 1_555 1_555
H4A C10A 1_555 1_555
C11A C10A 1_555 1_555
H5A C11A 1_555 1_555
C12A C11A 1_555 1_555
C13A C12A 1_555 1_555
O6A C13A 1_555 1_555
O7A C13A 1_555 1_555
H6A O7A 1_555 1_555
C14A C12A 1_555 1_555
H7A C14A 1_555 1_555
C15A C9A 1_555 1_555
N1A C15A 1_555 1_555
H8A N1A 1_555 1_555
H9A N1A 1_555 1_555
N2A C16A 1_555 1_555
N2A_2 Ni1A 1_555 1_555
C16A H10A 1_555 1_555
C17A C16A 1_555 1_555
H11A C17A 1_555 1_555
C18A C18 1_555 1_555
C19A C18A 1_555 1_555
H12A C19A 1_555 1_555
C20A N2A 1_555 1_555
H13A C20A 1_555 1_555
N3A C21A 1_555 1_555
N3A_2 Ni1A 1_555 1_555
C21A H14A 1_555 1_555
C22A C21A 1_555 1_555
H15A C22A 1_555 1_555
C23A C23 1_555 1_555
C24A C23A 1_555 1_555
H16A C24A 1_555 1_555
C25A N3A 1_555 1_555
H17A C25A 1_555 1_555
O8A Ni1A 1_555 1_555
H18A O8A 1_555 1_555
H19A O8A 1_555 1_555
O9A Ni1A 1_555 1_555
H20A O9A 1_555 1_555
H21A O9A 1_555 1_555
C7 C8 1_555 1_555
C14 C15 1_555 1_555
C19 C20 1_555 1_555
C24 C25 1_555 1_555
C5A O3A 1_555 1_555
C7A C8A 1_555 1_555
C14A C15A 1_555 1_555
C17A C18A 1_555 1_555
C19A C20A 1_555 1_555
C22A C23A 1_555 1_555
C24A C25A 1_555 1_555

#END
