
#######################################################################
#
#                 Cambridge Crystallographic Data Centre
#                                CCDC 
#
#######################################################################
#
# If this CIF has been generated from an entry in the Cambridge 
# Structural Database, then it will include bibliographic, chemical, 
# crystal, experimental, refinement or atomic coordinate data resulting 
# from the CCDC's data processing and validation procedures.
#
#######################################################################

data_EVUSEU
_symmetry_cell_setting           triclinic
_symmetry_space_group_name_H-M   'P -1'
_symmetry_Int_Tables_number      2
_space_group_name_Hall           '-P 1'
loop_
_symmetry_equiv_pos_site_id
_symmetry_equiv_pos_as_xyz
1 x,y,z
2 -x,-y,-z
_cell_length_a                   8.6344(4)
_cell_length_b                   13.7688(6)
_cell_length_c                   15.5455(9)
_cell_angle_alpha                89.0045(17)
_cell_angle_beta                 89.3352(19)
_cell_angle_gamma                77.349(2)
_cell_volume                     1802.93
loop_
_atom_site_label
_atom_site_type_symbol
_atom_site_fract_x
_atom_site_fract_y
_atom_site_fract_z
Zn1 Zn 0.19869(5) 0.28204(3) 0.67711(3)
O1 O 0.2821(3) 0.39179(17) 0.72166(16)
C1 C 0.4254(5) 0.3905(2) 0.7427(2)
O2 O 0.5279(3) 0.31378(17) 0.75878(17)
C2 C 0.4681(4) 0.4901(2) 0.7483(2)
C3 C 0.6169(4) 0.4958(2) 0.7767(2)
H1 H 0.6896 0.4365 0.7938
C4 C 0.6626(4) 0.5860(2) 0.7809(2)
N1 N 0.8147(4) 0.5939(2) 0.80779(19)
H2 H 0.855(5) 0.635(3) 0.783(3)
C5 C 0.9046(5) 0.5336(3) 0.8658(2)
C6 C 1.0654(5) 0.5542(3) 0.8818(3)
H3 H 1.0801 0.5599 0.9438
H4 H 1.0736 0.6166 0.8527
H5 H 1.1475 0.4995 0.8593
O3 O 0.8604(3) 0.46537(19) 0.90459(18)
C7 C 0.5536(4) 0.6723(2) 0.7559(2)
C8 C 0.4052(4) 0.6677(2) 0.7272(2)
H6 H 0.3325 0.7271 0.7104
C9 C 0.3609(4) 0.5770(2) 0.7228(2)
H7 H 0.2586 0.5740 0.7027
O4 O 0.5952(3) 0.76346(15) 0.76649(14)
C10 C 0.6033(4) 0.8229(2) 0.6949(2)
C11 C 0.5948(4) 0.9234(2) 0.7105(2)
H8 H 0.5710 0.9493 0.7665
C12 C 0.6215(4) 0.9848(2) 0.6430(2)
C13 C 0.6177(4) 1.0936(2) 0.6568(2)
O5 O 0.6612(3) 1.14566(16) 0.60263(17)
O6 O 0.5627(3) 1.12461(16) 0.73378(16)
H9 H 0.5593 1.1842 0.7374
C14 C 0.6552(4) 0.9472(2) 0.5611(2)
H10 H 0.6769 0.9894 0.5157
C15 C 0.6573(4) 0.8481(2) 0.5456(2)
C16 C 0.6999(4) 0.8052(2) 0.4587(2)
O7 O 0.7431(3) 0.85565(17) 0.39935(15)
O8 O 0.6975(3) 0.71477(17) 0.44687(16)
C17 C 0.6304(4) 0.7859(2) 0.6132(2)
H11 H 0.6309 0.7180 0.6029
N2 N -0.0224(3) 0.36086(19) 0.64028(18)
C18 C -0.1446(4) 0.3172(2) 0.6269(2)
H12 H -0.1363 0.2508 0.6472
C19 C -0.2811(4) 0.3638(2) 0.5854(2)
H13 H -0.3644 0.3299 0.5775
C20 C -0.2964(4) 0.4620(2) 0.5547(2)
C21 C -0.4348(4) 0.5164(2) 0.5080(2)
H14 H -0.4314 0.5812 0.4870
C22 C -0.1696(4) 0.5075(2) 0.5707(2)
H15 H -0.1749 0.5742 0.5520
C23 C -0.0381(4) 0.4562(2) 0.6134(2)
H16 H 0.0453 0.4891 0.6245
N3 N 0.1401(4) 0.2048(2) 0.78155(18)
C24 C 0.2077(4) 0.1083(2) 0.7974(2)
H17 H 0.2916 0.0760 0.7610
C25 C 0.1597(4) 0.0547(3) 0.8646(2)
H18 H 0.2117 -0.0128 0.8745
C26 C 0.0347(4) 0.0998(3) 0.9180(2)
C27 C -0.0271(4) 0.0473(3) 0.9887(2)
H19 H -0.1134 0.0842 1.0212
C28 C -0.0325(5) 0.1992(3) 0.9019(3)
H20 H -0.1168 0.2333 0.9373
C29 C 0.0234(5) 0.2488(3) 0.8342(2)
H21 H -0.0234 0.3172 0.8247
Zn1A Zn 0.80131(5) 0.71796(3) 0.32289(3)
Zn1A_2 Zn -1.19869(5) 0.71796(3) 0.32289(3)
Zn1A_3 Zn -0.19869(5) -0.28204(3) 1.32289(3)
O1A O 0.7179(3) 0.60821(17) 0.27834(16)
C1A C 0.5746(5) 0.6095(2) 0.2573(2)
O2A O 0.4721(3) 0.68622(17) 0.24122(17)
C2A C 0.5319(4) 0.5099(2) 0.2517(2)
C3A C 0.3831(4) 0.5042(2) 0.2233(2)
H1A H 0.3104 0.5635 0.2062
C4A C 0.3374(4) 0.4140(2) 0.2191(2)
N1A N 0.1853(4) 0.4061(2) 0.19221(19)
H2A H 0.145(5) 0.365(3) 0.217(3)
C5A C 0.0954(5) 0.4664(3) 0.1342(2)
C6A C -0.0654(5) 0.4458(3) 0.1182(3)
H3A H -0.0801 0.4401 0.0562
H4A H -0.0736 0.3834 0.1473
H5A H -0.1475 0.5005 0.1407
O3A O 0.1396(3) 0.53463(19) 0.09541(18)
C7A C 0.4464(4) 0.3277(2) 0.2441(2)
C8A C 0.5948(4) 0.3323(2) 0.2728(2)
H6A H 0.6675 0.2729 0.2896
C9A C 0.6391(4) 0.4230(2) 0.2772(2)
H7A H 0.7414 0.4260 0.2973
O4A O 0.4048(3) 0.23654(15) 0.23351(14)
C10A C 0.3967(4) 0.1771(2) 0.3051(2)
C11A C 0.4052(4) 0.0766(2) 0.2895(2)
H8A H 0.4290 0.0507 0.2335
C12A C 0.3785(4) 0.0152(2) 0.3570(2)
C13A C 0.3823(4) -0.0936(2) 0.3432(2)
O5A O 0.3388(3) -0.14566(16) 0.39737(17)
O6A O 0.4373(3) -0.12461(16) 0.26622(16)
H9A H 0.4407 -0.1842 0.2626
C14A C 0.3448(4) 0.0528(2) 0.4389(2)
H10A H 0.3231 0.0106 0.4843
C15A C 0.3427(4) 0.1519(2) 0.4544(2)
C16A C 0.3001(4) 0.1948(2) 0.5413(2)
O7A O 0.2569(3) 0.14435(17) 0.60065(15)
O8A O 0.3025(3) 0.28523(17) 0.55313(16)
C17A C 0.3696(4) 0.2141(2) 0.3868(2)
H11A H 0.3691 0.2820 0.3971
N2A N -0.9776(3) 0.63914(19) 0.35972(18)
N2A_2 N 1.0224(3) 0.63914(19) 0.35972(18)
C18A C -0.8554(4) 0.6828(2) 0.3731(2)
H12A H -0.8637 0.7492 0.3528
C19A C -0.7189(4) 0.6362(2) 0.4146(2)
H13A H -0.6356 0.6701 0.4225
C20A C -0.7036(4) 0.5380(2) 0.4453(2)
C21A C -0.5652(4) 0.4836(2) 0.4920(2)
H14A H -0.5686 0.4188 0.5130
C22A C -0.8304(4) 0.4925(2) 0.4293(2)
H15A H -0.8251 0.4258 0.4480
C23A C -0.9619(4) 0.5438(2) 0.3866(2)
H16A H -1.0453 0.5109 0.3755
N3A N -0.1401(4) -0.2048(2) 1.21845(18)
N3A_2 N 0.8599(4) 0.7952(2) 0.21845(18)
C24A C -0.2077(4) -0.1083(2) 1.2026(2)
H17A H -0.2916 -0.0760 1.2390
C25A C -0.1597(4) -0.0547(3) 1.1354(2)
H18A H -0.2117 0.0128 1.1255
C26A C -0.0347(4) -0.0998(3) 1.0820(2)
C27A C 0.0271(4) -0.0473(3) 1.0113(2)
H19A H 0.1134 -0.0842 0.9788
C28A C 0.0325(5) -0.1992(3) 1.0981(3)
H20A H 0.1168 -0.2333 1.0627
C29A C -0.0234(5) -0.2488(3) 1.1658(2)
H21A H 0.0234 -0.3172 1.1753
C30 C 0.0795(6) 0.9458(3) 0.6496(3)
H22 H 0.0166 0.9884 0.6057
H23 H 0.1926 0.9429 0.6391
H24 H 0.0496 0.9733 0.7067
N4 N 0.0498(4) 0.8469(2) 0.6458(2)
C31 C 0.0847(5) 0.7962(3) 0.5626(3)
H25 H 0.0561 0.7311 0.5661
H26 H 0.1981 0.7869 0.5493
H27 H 0.0229 0.8368 0.5171
C32 C -0.0008(4) 0.7973(3) 0.7110(3)
C33 C -0.0270(5) 0.8474(3) 0.7972(3)
H28 H -0.0917 0.8132 0.8340
H29 H -0.0820 0.9171 0.7890
H30 H 0.0757 0.8444 0.8245
O9 O -0.0208(3) 0.71078(18) 0.70296(17)
loop_
_geom_bond_atom_site_label_1
_geom_bond_atom_site_label_2
_geom_bond_site_symmetry_1
_geom_bond_site_symmetry_2
Zn1 O1 1_555 1_555
O1 C1 1_555 1_555
C1 O2 1_555 1_555
C2 C1 1_555 1_555
C3 C2 1_555 1_555
H1 C3 1_555 1_555
C4 C3 1_555 1_555
N1 C4 1_555 1_555
H2 N1 1_555 1_555
C5 N1 1_555 1_555
C6 C5 1_555 1_555
H3 C6 1_555 1_555
H4 C6 1_555 1_555
H5 C6 1_555 1_555
O3 C5 1_555 1_555
C7 C4 1_555 1_555
C8 C7 1_555 1_555
H6 C8 1_555 1_555
C9 C2 1_555 1_555
H7 C9 1_555 1_555
O4 C7 1_555 1_555
C10 O4 1_555 1_555
C11 C10 1_555 1_555
H8 C11 1_555 1_555
C12 C11 1_555 1_555
C13 C12 1_555 1_555
O5 C13 1_555 1_555
O6 C13 1_555 1_555
H9 O6 1_555 1_555
C14 C12 1_555 1_555
H10 C14 1_555 1_555
C15 C14 1_555 1_555
C16 C15 1_555 1_555
O7 C16 1_555 1_555
O8 C16 1_555 1_555
C17 C10 1_555 1_555
H11 C17 1_555 1_555
N2 Zn1 1_555 1_555
C18 N2 1_555 1_555
H12 C18 1_555 1_555
C19 C18 1_555 1_555
H13 C19 1_555 1_555
C20 C19 1_555 1_555
C21 C20 1_555 1_555
H14 C21 1_555 1_555
C22 C20 1_555 1_555
H15 C22 1_555 1_555
C23 N2 1_555 1_555
H16 C23 1_555 1_555
N3 Zn1 1_555 1_555
C24 N3 1_555 1_555
H17 C24 1_555 1_555
C25 C24 1_555 1_555
H18 C25 1_555 1_555
C26 C25 1_555 1_555
C27 C26 1_555 1_555
H19 C27 1_555 1_555
C28 C26 1_555 1_555
H20 C28 1_555 1_555
C29 N3 1_555 1_555
H21 C29 1_555 1_555
C30 H22 1_555 1_555
H23 C30 1_555 1_555
H24 C30 1_555 1_555
N4 C30 1_555 1_555
C31 N4 1_555 1_555
H25 C31 1_555 1_555
H26 C31 1_555 1_555
H27 C31 1_555 1_555
C32 N4 1_555 1_555
C33 C32 1_555 1_555
H28 C33 1_555 1_555
H29 C33 1_555 1_555
H30 C33 1_555 1_555
O9 C32 1_555 1_555
Zn1A O7 1_555 1_555
Zn1A_2 N2A 1_555 1_555
Zn1A_3 N3A 1_555 1_555
O1A Zn1A 1_555 1_555
C1A O1A 1_555 1_555
O2A C1A 1_555 1_555
C2A C1A 1_555 1_555
C3A C2A 1_555 1_555
H1A C3A 1_555 1_555
C4A C3A 1_555 1_555
N1A C4A 1_555 1_555
H2A N1A 1_555 1_555
C5A N1A 1_555 1_555
C6A C5A 1_555 1_555
H3A C6A 1_555 1_555
H4A C6A 1_555 1_555
H5A C6A 1_555 1_555
O3A C5A 1_555 1_555
C7A C4A 1_555 1_555
C8A C7A 1_555 1_555
H6A C8A 1_555 1_555
C9A C2A 1_555 1_555
H7A C9A 1_555 1_555
O4A C7A 1_555 1_555
C10A O4A 1_555 1_555
C11A C10A 1_555 1_555
H8A C11A 1_555 1_555
C12A C11A 1_555 1_555
C13A C12A 1_555 1_555
O5A C13A 1_555 1_555
O6A C13A 1_555 1_555
H9A O6A 1_555 1_555
C14A C12A 1_555 1_555
H10A C14A 1_555 1_555
C15A C14A 1_555 1_555
C16A C15A 1_555 1_555
O7A Zn1 1_555 1_555
O8A Zn1 1_555 1_555
C17A C10A 1_555 1_555
H11A C17A 1_555 1_555
N2A C18A 1_555 1_555
N2A_2 Zn1A 1_555 1_555
C18A H12A 1_555 1_555
C19A C18A 1_555 1_555
H13A C19A 1_555 1_555
C20A C19A 1_555 1_555
C21A C21 1_555 1_555
H14A C21A 1_555 1_555
C22A C20A 1_555 1_555
H15A C22A 1_555 1_555
C23A N2A 1_555 1_555
H16A C23A 1_555 1_555
N3A C24A 1_555 1_555
N3A_2 Zn1A 1_555 1_555
C24A H17A 1_555 1_555
C25A C24A 1_555 1_555
H18A C25A 1_555 1_555
C26A C25A 1_555 1_555
C27A C27 1_555 1_555
H19A C27A 1_555 1_555
C28A C26A 1_555 1_555
H20A C28A 1_555 1_555
C29A N3A 1_555 1_555
H21A C29A 1_555 1_555
C8 C9 1_555 1_555
C15 C17 1_555 1_555
O8 Zn1A 1_555 1_555
C22 C23 1_555 1_555
C28 C29 1_555 1_555
C8A C9A 1_555 1_555
C15A C17A 1_555 1_555
C16A O7A 1_555 1_555
C16A O8A 1_555 1_555
C20A C21A 1_555 1_555
C22A C23A 1_555 1_555
C26A C27A 1_555 1_555
C28A C29A 1_555 1_555

#END
