
#######################################################################
#
#                 Cambridge Crystallographic Data Centre
#                                CCDC 
#
#######################################################################
#
# If this CIF has been generated from an entry in the Cambridge 
# Structural Database, then it will include bibliographic, chemical, 
# crystal, experimental, refinement or atomic coordinate data resulting 
# from the CCDC's data processing and validation procedures.
#
#######################################################################

data_EVUSIY
_symmetry_cell_setting           triclinic
_symmetry_space_group_name_H-M   'P -1'
_symmetry_Int_Tables_number      2
_space_group_name_Hall           '-P 1'
loop_
_symmetry_equiv_pos_site_id
_symmetry_equiv_pos_as_xyz
1 x,y,z
2 -x,-y,-z
_cell_length_a                   13.3976(2)
_cell_length_b                   14.4423(3)
_cell_length_c                   14.5635(4)
_cell_angle_alpha                70.3962(7)
_cell_angle_beta                 65.2936(7)
_cell_angle_gamma                68.9087(13)
_cell_volume                     2330.82
loop_
_atom_site_label
_atom_site_type_symbol
_atom_site_fract_x
_atom_site_fract_y
_atom_site_fract_z
Ag1 Ag 0.51357(3) 0.54434(3) 0.88038(3)
Ag2 Ag 1.18106(3) 0.86592(3) 0.55435(3)
Ag3 Ag -0.25679(3) 1.13879(3) 1.26308(3)
O1 O 0.6405(3) 0.6580(3) 0.8343(3)
O2 O 0.5925(3) 0.5949(3) 1.0047(3)
C1 C 0.6563(4) 0.6332(4) 0.9194(4)
C2 C 0.7628(4) 0.6489(4) 0.9191(4)
C3 C 0.8359(4) 0.6934(3) 0.8285(4)
H1 H 0.8193 0.7145 0.7661
C4 C 0.9329(4) 0.7074(4) 0.8280(4)
C5 C 1.0124(4) 0.7556(3) 0.7284(4)
O3 O 1.0868(3) 0.7836(3) 0.7368(3)
O4 O 0.9996(3) 0.7655(3) 0.6442(3)
C6 C 0.9572(4) 0.6763(3) 0.9195(4)
H2 H 1.0233 0.6864 0.9200
C7 C 0.8853(4) 0.6309(4) 1.0093(4)
C8 C 0.7872(4) 0.6170(4) 1.0097(4)
H3 H 0.7377 0.5859 1.0719
O5 O 0.9153(3) 0.5937(3) 1.0981(3)
C9 C 0.8529(4) 0.6426(4) 1.1807(4)
C10 C 0.7594(4) 0.7268(4) 1.1818(4)
H4 H 0.7318 0.7529 1.1253
C11 C 0.7071(4) 0.7720(4) 1.2667(4)
H5 H 0.6431 0.8292 1.2684
C12 C 0.7475(4) 0.7344(4) 1.3486(4)
C13 C 0.6973(4) 0.7882(4) 1.4375(4)
O6 O 0.7346(3) 0.7480(3) 1.5118(3)
H6 H 0.6824 0.7808 1.5549
O7 O 0.6213(3) 0.8719(3) 1.4302(3)
C14 C 0.8396(4) 0.6491(3) 1.3479(4)
H7 H 0.8654 0.6225 1.4056
C15 C 0.8949(4) 0.6017(4) 1.2631(4)
N1 N 0.9901(4) 0.5219(3) 1.2562(4)
H8 H 1.0140 0.4727 1.3058
H9 H 1.0157 0.4908 1.2028
N2 N 1.0643(3) 0.0139(3) 0.5845(3)
C16 C 1.0951(4) 0.0927(4) 0.5841(4)
H10 H 1.1736 0.0908 0.5568
C17 C 1.0177(4) 0.1763(3) 0.6214(4)
H11 H 1.0438 0.2297 0.6206
C18 C 0.9025(4) 0.1833(4) 0.6599(4)
C19 C 0.8695(4) 0.1019(4) 0.6574(4)
H12 H 0.7914 0.1034 0.6812
C20 C 0.9521(4) 0.0207(4) 0.6202(4)
H13 H 0.9287 -0.0338 0.6195
C21 C 0.8172(4) 0.2678(4) 0.7065(4)
C22 C 0.7108(4) 0.2562(4) 0.7787(4)
H14 H 0.6929 0.1930 0.7975
C23 C 0.6328(4) 0.3351(4) 0.8222(4)
H15 H 0.5619 0.3242 0.8712
N3 N 0.6506(3) 0.4270(3) 0.7997(3)
C24 C 0.7535(4) 0.4393(4) 0.7313(4)
H16 H 0.7691 0.5032 0.7149
C25 C 0.8368(4) 0.3632(4) 0.6844(4)
H17 H 0.9077 0.3755 0.6368
N4 N 1.2973(3) 0.7360(3) 0.4844(3)
C26 C 1.2560(4) 0.6553(4) 0.5094(4)
H18 H 1.1798 0.6585 0.5546
C27 C 1.3191(4) 0.5680(4) 0.4726(4)
H19 H 1.2861 0.5128 0.4934
C28 C 1.4314(4) 0.5600(3) 0.4046(4)
C29 C 1.4726(4) 0.6442(4) 0.3808(5)
H20 H 1.5488 0.6431 0.3364
C30 C 1.4050(4) 0.7287(4) 0.4204(5)
H21 H 1.4361 0.7848 0.4015
C31 C 1.5005(4) 0.4679(4) 0.3662(4)
C32 C 1.4566(4) 0.3862(4) 0.3857(5)
H22 H 1.3777 0.3919 0.4219
C33 C 1.5250(4) 0.2983(4) 0.3537(5)
H23 H 1.4921 0.2439 0.3703
N5 N 1.6368(3) 0.2855(3) 0.2999(3)
C34 C 1.6796(4) 0.3648(4) 0.2760(4)
H24 H 1.7576 0.3590 0.2354
C35 C 1.6152(4) 0.4539(4) 0.3078(4)
H25 H 1.6501 0.5074 0.2893
N6 N -0.1155(3) 1.0249(3) 1.1872(3)
C36 C -0.0069(4) 1.0310(4) 1.1547(4)
H26 H 0.0065 1.0854 1.1669
C37 C 0.0843(4) 0.9621(4) 1.1049(4)
H27 H 0.1587 0.9701 1.0832
C38 C 0.0699(4) 0.8810(3) 1.0858(4)
C39 C -0.0433(4) 0.8757(4) 1.1202(4)
H28 H -0.0590 0.8220 1.1090
C40 C -0.1310(4) 0.9467(4) 1.1696(4)
H29 H -0.2063 0.9402 1.1925
C41 C 0.1662(4) 0.8048(4) 1.0344(4)
C42 C 0.2699(4) 0.8286(4) 0.9665(4)
H30 H 0.2780 0.8954 0.9513
C43 C 0.3585(4) 0.7546(4) 0.9229(4)
H31 H 0.4280 0.7718 0.8785
N7 N 0.3531(3) 0.6583(3) 0.9393(3)
C44 C 0.2532(4) 0.6367(4) 1.0012(4)
H32 H 0.2466 0.5702 1.0124
C45 C 0.1604(4) 0.7061(4) 1.0489(4)
H33 H 0.0917 0.6868 1.0921
Ag1A Ag 0.48643(3) 0.45566(3) 1.11962(3)
Ag2A Ag -0.18106(3) 1.13408(3) 1.44565(3)
Ag2_2 Ag 1.18106(3) -0.13408(3) 0.55435(3)
Ag3A Ag 1.25679(3) 0.86121(3) 0.73692(3)
Ag3_2 Ag 1.74321(3) 0.13879(3) 0.26308(3)
O2A O 0.4075(3) 0.4051(3) 0.9953(3)
N2_2 N 1.0643(3) 1.0139(3) 0.5845(3)
N5_2 N -0.3632(3) 1.2855(3) 1.2999(3)
O8 O 0.6185(4) 0.0539(3) 0.4782(4)
H34 H 0.6193 0.0027 0.4631
H35 H 0.6388 0.0563 0.5353
O9 O 0.5947(3) 0.0459(3) 0.2665(4)
H36 H 0.5235 0.0857 0.2830
H37 H 0.6031 0.0012 0.3191
O10 O 0.3723(3) 0.1711(3) 0.3159(3)
H38 H 0.3547 0.1126 0.3259
H39 H 0.3680 0.2279 0.2655
O11 O 0.0662(3) 0.3607(3) 0.4230(3)
H40 H 0.1289 0.3311 0.4427
H41 H 0.0458 0.3203 0.4013
O12 O 0.6799(5) 0.0050(5) 0.6550(5)
H42 H 0.7456 -0.0337 0.6511
H43 H 0.6812 0.0551 0.6569
loop_
_geom_bond_atom_site_label_1
_geom_bond_atom_site_label_2
_geom_bond_site_symmetry_1
_geom_bond_site_symmetry_2
Ag1 O1 1_555 1_555
Ag2 O3 1_555 1_555
Ag3 N6 1_555 1_555
O1 C1 1_555 1_555
O2 C1 1_555 1_555
C1 C2 1_555 1_555
C2 C3 1_555 1_555
C3 H1 1_555 1_555
C4 C3 1_555 1_555
C5 C4 1_555 1_555
O3 C5 1_555 1_555
O4 C5 1_555 1_555
C6 C4 1_555 1_555
H2 C6 1_555 1_555
C7 C6 1_555 1_555
C8 C2 1_555 1_555
H3 C8 1_555 1_555
O5 C7 1_555 1_555
C9 O5 1_555 1_555
C10 C9 1_555 1_555
H4 C10 1_555 1_555
C11 C10 1_555 1_555
H5 C11 1_555 1_555
C12 C11 1_555 1_555
C13 C12 1_555 1_555
O6 C13 1_555 1_555
H6 O6 1_555 1_555
O7 C13 1_555 1_555
C14 C12 1_555 1_555
H7 C14 1_555 1_555
C15 C9 1_555 1_555
N1 C15 1_555 1_555
H8 N1 1_555 1_555
H9 N1 1_555 1_555
N2 C16 1_555 1_555
C16 H10 1_555 1_555
C17 C16 1_555 1_555
H11 C17 1_555 1_555
C18 C17 1_555 1_555
C19 C18 1_555 1_555
H12 C19 1_555 1_555
C20 N2 1_555 1_555
H13 C20 1_555 1_555
C21 C18 1_555 1_555
C22 C21 1_555 1_555
H14 C22 1_555 1_555
C23 C22 1_555 1_555
H15 C23 1_555 1_555
N3 Ag1 1_555 1_555
C24 N3 1_555 1_555
H16 C24 1_555 1_555
C25 C21 1_555 1_555
H17 C25 1_555 1_555
N4 Ag2 1_555 1_555
C26 N4 1_555 1_555
H18 C26 1_555 1_555
C27 C26 1_555 1_555
H19 C27 1_555 1_555
C28 C27 1_555 1_555
C29 C28 1_555 1_555
H20 C29 1_555 1_555
C30 N4 1_555 1_555
H21 C30 1_555 1_555
C31 C28 1_555 1_555
C32 C31 1_555 1_555
H22 C32 1_555 1_555
C33 C32 1_555 1_555
H23 C33 1_555 1_555
N5 C33 1_555 1_555
C34 N5 1_555 1_555
H24 C34 1_555 1_555
C35 C31 1_555 1_555
H25 C35 1_555 1_555
N6 C36 1_555 1_555
C36 H26 1_555 1_555
C37 C36 1_555 1_555
H27 C37 1_555 1_555
C38 C37 1_555 1_555
C39 C38 1_555 1_555
H28 C39 1_555 1_555
C40 N6 1_555 1_555
H29 C40 1_555 1_555
C41 C38 1_555 1_555
C42 C41 1_555 1_555
H30 C42 1_555 1_555
C43 C42 1_555 1_555
H31 C43 1_555 1_555
N7 Ag1 1_555 1_555
C44 N7 1_555 1_555
H32 C44 1_555 1_555
C45 C41 1_555 1_555
H33 C45 1_555 1_555
O8 H34 1_555 1_555
H35 O8 1_555 1_555
O9 H36 1_555 1_555
H37 O9 1_555 1_555
O10 H38 1_555 1_555
H39 O10 1_555 1_555
O11 H40 1_555 1_555
H41 O11 1_555 1_555
O12 H42 1_555 1_555
H43 O12 1_555 1_555
Ag1A Ag1 1_555 1_555
Ag2A Ag3 1_555 1_555
Ag2_2 N2 1_555 1_555
Ag3A Ag2 1_555 1_555
Ag3_2 N5 1_555 1_555
O2A Ag1 1_555 1_555
N2_2 Ag2 1_555 1_555
N5_2 Ag3 1_555 1_555
O2 Ag1A 1_555 1_555
C7 C8 1_555 1_555
C14 C15 1_555 1_555
C19 C20 1_555 1_555
C23 N3 1_555 1_555
C24 C25 1_555 1_555
C29 C30 1_555 1_555
C34 C35 1_555 1_555
C39 C40 1_555 1_555
C43 N7 1_555 1_555
C44 C45 1_555 1_555

#END
