
#######################################################################
#
#                 Cambridge Crystallographic Data Centre
#                                CCDC 
#
#######################################################################
#
# If this CIF has been generated from an entry in the Cambridge 
# Structural Database, then it will include bibliographic, chemical, 
# crystal, experimental, refinement or atomic coordinate data resulting 
# from the CCDC's data processing and validation procedures.
#
#######################################################################

data_EWAFAJ
_symmetry_cell_setting           monoclinic
_symmetry_space_group_name_H-M   'C 2/c'
_symmetry_Int_Tables_number      15
_space_group_name_Hall           '-C 2yn'
loop_
_symmetry_equiv_pos_site_id
_symmetry_equiv_pos_as_xyz
1 x,y,z
2 x,-y,1/2+z
3 1/2+x,1/2+y,z
4 1/2+x,1/2-y,1/2+z
5 -x,-y,-z
6 -x,y,1/2-z
7 1/2-x,1/2-y,-z
8 1/2-x,1/2+y,1/2-z
_cell_length_a                   20.032(8)
_cell_length_b                   16.918(7)
_cell_length_c                   24.265(10)
_cell_angle_alpha                90
_cell_angle_beta                 100.266(6)
_cell_angle_gamma                90
_cell_volume                     8091.79
loop_
_atom_site_label
_atom_site_type_symbol
_atom_site_fract_x
_atom_site_fract_y
_atom_site_fract_z
Ag1 Ag 0.66300(3) 0.20217(3) 0.17158(2)
Ag2 Ag 0.68361(3) 0.61077(3) 0.34677(2)
S1 S 0.56227(8) 0.16627(9) 0.21779(6)
S2 S 0.64509(7) 0.33473(9) 0.21400(6)
S3 S 0.65913(7) 0.47560(9) 0.29817(6)
S4 S 0.56727(8) 0.63760(9) 0.29347(7)
F1 F 0.6287(6) 0.202(1) -0.0245(3)
F2 F 0.6638(6) 0.0828(7) -0.0285(3)
F3 F 0.7261(4) 0.1780(4) -0.0390(2)
F4 F 0.6933(3) 0.0841(4) 0.3215(3)
F5 F 0.6985(3) 0.2087(3) 0.3112(2)
F6 F 0.7720(3) 0.1510(4) 0.3738(2)
O1 O 0.6650(4) 0.1804(5) 0.0813(3)
O2 O 0.7616(3) 0.1263(4) 0.0671(2)
O3 O 0.7573(3) 0.1462(4) 0.2284(2)
O4 O 0.8398(3) 0.0997(3) 0.2967(2)
C1 C 0.5313(3) 0.2579(3) 0.2393(2)
C2 C 0.5666(3) 0.3284(4) 0.2387(2)
C3 C 0.5364(3) 0.4021(3) 0.2525(2)
C4 C 0.5708(3) 0.4752(4) 0.2700(2)
C5 C 0.5340(3) 0.5455(4) 0.2659(2)
C6 C 0.4951(4) 0.1272(4) 0.1620(3)
C7 C 0.5302(5) 0.0605(6) 0.1347(4)
C8 C 0.4778(6) 0.0210(6) 0.0874(5)
C9 C 0.4456(5) 0.0800(5) 0.0454(3)
C10 C 0.4122(5) 0.1467(5) 0.0730(3)
C11 C 0.4647(5) 0.1866(4) 0.1191(3)
C12 C 0.6245(3) 0.4047(4) 0.1553(2)
C13 C 0.6888(3) 0.4154(4) 0.1310(3)
C14 C 0.6755(5) 0.4699(5) 0.0797(3)
C15 C 0.6177(5) 0.4379(6) 0.0356(3)
C16 C 0.5541(5) 0.4278(8) 0.0604(4)
C17 C 0.5661(4) 0.3736(5) 0.1112(3)
C18 C 0.6698(3) 0.4031(4) 0.3553(3)
C19 C 0.7468(4) 0.3984(6) 0.3764(3)
C20 C 0.7632(6) 0.3437(7) 0.4275(4)
C21 C 0.7261(5) 0.3682(6) 0.4738(3)
C22 C 0.6497(5) 0.3710(5) 0.4521(3)
C23 C 0.6328(4) 0.4273(4) 0.4021(3)
C24 C 0.5054(4) 0.6672(4) 0.3373(3)
C25 C 0.5145(8) 0.626(1) 0.3916(6)
C26 C 0.4592(9) 0.653(1) 0.4233(6)
C27 C 0.4668(6) 0.738(1) 0.4348(5)
C28 C 0.458(1) 0.7829(7) 0.3806(9)
C29 C 0.5108(10) 0.7544(6) 0.3448(7)
C30 C 0.7052(4) 0.1548(4) 0.0540(3)
C31 C 0.6786(5) 0.1559(7) -0.0100(4)
C32 C 0.7844(4) 0.1292(4) 0.2785(3)
C33 C 0.7380(4) 0.1450(5) 0.3214(3)
H1 H 0.4600 0.1050 0.1787
H2 H 0.5666 0.0818 0.1192
H3 H 0.5472 0.0221 0.1622
H4 H 0.5004 -0.0176 0.0691
H5 H 0.4435 -0.0038 0.1038
H6 H 0.4794 0.1018 0.0270
H7 H 0.4121 0.0543 0.0188
H8 H 0.3947 0.1848 0.0454
H9 H 0.3763 0.1257 0.0893
H10 H 0.4429 0.2267 0.1367
H11 H 0.4997 0.2095 0.1025
H12 H 0.6118 0.4541 0.1691
H13 H 0.7231 0.4379 0.1586
H14 H 0.7036 0.3652 0.1201
H15 H 0.6636 0.5209 0.0911
H16 H 0.7155 0.4734 0.0639
H17 H 0.6089 0.4739 0.0051
H18 H 0.6305 0.3882 0.0226
H19 H 0.5400 0.4781 0.0714
H20 H 0.5195 0.4057 0.0329
H21 H 0.5771 0.3222 0.0999
H22 H 0.5260 0.3711 0.1270
H23 H 0.6536 0.3530 0.3410
H24 H 0.7681 0.3787 0.3473
H25 H 0.7635 0.4499 0.3866
H26 H 0.7502 0.2912 0.4162
H27 H 0.8107 0.3453 0.4412
H28 H 0.7354 0.3311 0.5036
H29 H 0.7414 0.4190 0.4871
H30 H 0.6342 0.3194 0.4408
H31 H 0.6275 0.3888 0.4813
H32 H 0.6462 0.4794 0.4139
H33 H 0.5853 0.4262 0.3886
H34 H 0.4613 0.6554 0.3176
H35 H 0.5119 0.5707 0.3858
H36 H 0.5581 0.6391 0.4129
H37 H 0.4160 0.6427 0.4012
H38 H 0.4633 0.6246 0.4577
H39 H 0.4335 0.7542 0.4557
H40 H 0.5107 0.7477 0.4558
H41 H 0.4134 0.7743 0.3602
H42 H 0.4642 0.8377 0.3883
H43 H 0.5553 0.7675 0.3638
H44 H 0.5024 0.7795 0.3094
C1E C 0.4687(3) 0.2579(3) 0.2607(2)
S1E S 0.43773(8) 0.16627(9) 0.28221(6)
C6E C 0.5049(4) 0.1272(4) 0.3380(3)
C7E C 0.4698(5) 0.0605(6) 0.3653(4)
C8E C 0.5222(6) 0.0210(6) 0.4126(5)
C9E C 0.5544(5) 0.0800(5) 0.4546(3)
C10E C 0.5878(5) 0.1467(5) 0.4270(3)
C11E C 0.5353(5) 0.1866(4) 0.3809(3)
H1E H 0.5400 0.1050 0.3213
H10E H 0.5571 0.2267 0.3633
H11E H 0.5003 0.2095 0.3975
H8E H 0.6053 0.1848 0.4546
H9E H 0.6237 0.1257 0.4107
H6E H 0.5206 0.1018 0.4730
H7E H 0.5879 0.0543 0.4812
H4E H 0.4996 -0.0176 0.4309
H5E H 0.5565 -0.0038 0.3962
H2E H 0.4334 0.0818 0.3808
H3E H 0.4528 0.0221 0.3378
C2E C 0.4334(3) 0.3284(4) 0.2613(2)
S2E S 0.35491(7) 0.33473(9) 0.28600(6)
C12E C 0.3755(3) 0.4047(4) 0.3447(2)
C13E C 0.3112(3) 0.4154(4) 0.3690(3)
C14E C 0.3245(5) 0.4699(5) 0.4203(3)
C15E C 0.3823(5) 0.4379(6) 0.4644(3)
C16E C 0.4459(5) 0.4278(8) 0.4396(4)
C17E C 0.4339(4) 0.3736(5) 0.3888(3)
H12E H 0.3882 0.4541 0.3309
H21E H 0.4229 0.3222 0.4001
H22E H 0.4740 0.3711 0.3730
H19E H 0.4600 0.4781 0.4286
H20E H 0.4805 0.4057 0.4671
H17E H 0.3911 0.4739 0.4949
H18E H 0.3695 0.3882 0.4774
H15E H 0.3364 0.5209 0.4089
H16E H 0.2845 0.4734 0.4361
H13E H 0.2769 0.4379 0.3414
H14E H 0.2964 0.3652 0.3799
C3E C 0.4636(3) 0.4021(3) 0.2475(2)
C5E C 0.4660(3) 0.5455(4) 0.2341(2)
S4E S 0.43273(8) 0.63760(9) 0.20653(7)
C24E C 0.4946(4) 0.6672(4) 0.1627(3)
C25E C 0.4855(8) 0.626(1) 0.1084(6)
C26E C 0.5408(9) 0.653(1) 0.0767(6)
C27E C 0.5332(6) 0.738(1) 0.0652(5)
C28E C 0.542(1) 0.7829(7) 0.1194(9)
C29E C 0.4892(10) 0.7544(6) 0.1552(7)
H34E H 0.5387 0.6554 0.1824
H43E H 0.4447 0.7675 0.1362
H44E H 0.4976 0.7795 0.1906
H41E H 0.5866 0.7743 0.1398
H42E H 0.5358 0.8377 0.1117
H39E H 0.5665 0.7542 0.0443
H40E H 0.4893 0.7477 0.0442
H37E H 0.5840 0.6427 0.0988
H38E H 0.5367 0.6246 0.0423
H35E H 0.4881 0.5707 0.1142
H36E H 0.4419 0.6391 0.0871
C4E C 0.4292(3) 0.4752(4) 0.2300(2)
S3E S 0.34087(7) 0.47560(9) 0.20183(6)
C18E C 0.3302(3) 0.4031(4) 0.1447(3)
C19E C 0.2532(4) 0.3984(6) 0.1236(3)
C20E C 0.2368(6) 0.3437(7) 0.0725(4)
C21E C 0.2739(5) 0.3682(6) 0.0262(3)
C22E C 0.3503(5) 0.3710(5) 0.0479(3)
C23E C 0.3672(4) 0.4273(4) 0.0979(3)
H23E H 0.3464 0.3530 0.1590
H32E H 0.3538 0.4794 0.0861
H33E H 0.4147 0.4262 0.1114
H30E H 0.3658 0.3194 0.0592
H31E H 0.3725 0.3888 0.0187
H28E H 0.2646 0.3311 -0.0036
H29E H 0.2586 0.4190 0.0129
H26E H 0.2498 0.2912 0.0838
H27E H 0.1893 0.3453 0.0588
H24E H 0.2319 0.3787 0.1527
H25E H 0.2365 0.4499 0.1134
Ag1E Ag 0.33700(3) 0.20217(3) 0.32842(2)
Ag2E Ag 0.31639(3) 0.61077(3) 0.15323(2)
F1G F 0.8713(6) 0.702(1) 0.5245(3)
F2G F 0.8362(6) 0.5828(7) 0.5285(3)
F3G F 0.7739(4) 0.6780(4) 0.5390(2)
O1G O 0.8350(4) 0.6804(5) 0.4187(3)
O2G O 0.7384(3) 0.6263(4) 0.4329(2)
C30G C 0.7948(4) 0.6548(4) 0.4460(3)
C31G C 0.8214(5) 0.6559(7) 0.5100(4)
F4G F 0.8067(3) 0.5841(4) 0.1785(3)
F5G F 0.8015(3) 0.7087(3) 0.1888(2)
F6G F 0.7280(3) 0.6510(4) 0.1262(2)
O3G O 0.7427(3) 0.6462(4) 0.2716(2)
O4G O 0.6602(3) 0.5997(3) 0.2033(2)
C32G C 0.7156(4) 0.6292(4) 0.2215(3)
C33G C 0.7620(4) 0.6450(5) 0.1786(3)
Ag2G Ag 0.81639(3) 0.11077(3) 0.15323(2)
O1E O 0.3350(4) 0.1804(5) 0.4187(3)
O3E O 0.2427(3) 0.1462(4) 0.2716(2)
O2B O 0.2616(3) 0.6263(4) 0.0671(2)
O3B O 0.2573(3) 0.6462(4) 0.2284(2)
Ag1G Ag 0.83700(3) 0.70217(3) 0.32842(2)
Cl1 Cl 0.8343(2) 0.3165(2) 0.2311(3)
Cl2 Cl 0.9458(4) 0.4334(4) 0.2352(3)
C34 C 0.8659(8) 0.4148(8) 0.2589(7)
H45 H 0.8342 0.4544 0.2450
H46 H 0.8733 0.4140 0.2986
loop_
_geom_bond_atom_site_label_1
_geom_bond_atom_site_label_2
_geom_bond_site_symmetry_1
_geom_bond_site_symmetry_2
Ag1 S1 1_555 1_555
Ag2 S3 1_555 1_555
Cl1 C34 1_555 1_555
Cl2 C34 1_555 1_555
S1 C1 1_555 1_555
S2 Ag1 1_555 1_555
S3 C4 1_555 1_555
S4 Ag2 1_555 1_555
F1 C31 1_555 1_555
F2 C31 1_555 1_555
F3 C31 1_555 1_555
F4 C33 1_555 1_555
F5 C33 1_555 1_555
F6 C33 1_555 1_555
O1 Ag1 1_555 1_555
O2 C30 1_555 1_555
O3 Ag1 1_555 1_555
O4 C32 1_555 1_555
C1 C2 1_555 1_555
C2 S2 1_555 1_555
C3 C2 1_555 1_555
C4 C3 1_555 1_555
C5 S4 1_555 1_555
C6 S1 1_555 1_555
C7 C6 1_555 1_555
C8 C7 1_555 1_555
C9 C8 1_555 1_555
C10 C9 1_555 1_555
C11 C6 1_555 1_555
C12 S2 1_555 1_555
C13 C12 1_555 1_555
C14 C13 1_555 1_555
C15 C14 1_555 1_555
C16 C15 1_555 1_555
C17 C12 1_555 1_555
C18 S3 1_555 1_555
C19 C18 1_555 1_555
C20 C19 1_555 1_555
C21 C20 1_555 1_555
C22 C21 1_555 1_555
C23 C18 1_555 1_555
C24 S4 1_555 1_555
C25 C24 1_555 1_555
C26 C25 1_555 1_555
C27 C26 1_555 1_555
C28 C27 1_555 1_555
C29 C24 1_555 1_555
C30 O1 1_555 1_555
C31 C30 1_555 1_555
C32 O3 1_555 1_555
C33 C32 1_555 1_555
C34 H45 1_555 1_555
H1 C6 1_555 1_555
H2 C7 1_555 1_555
H3 C7 1_555 1_555
H4 C8 1_555 1_555
H5 C8 1_555 1_555
H6 C9 1_555 1_555
H7 C9 1_555 1_555
H8 C10 1_555 1_555
H9 C10 1_555 1_555
H10 C11 1_555 1_555
H11 C11 1_555 1_555
H12 C12 1_555 1_555
H13 C13 1_555 1_555
H14 C13 1_555 1_555
H15 C14 1_555 1_555
H16 C14 1_555 1_555
H17 C15 1_555 1_555
H18 C15 1_555 1_555
H19 C16 1_555 1_555
H20 C16 1_555 1_555
H21 C17 1_555 1_555
H22 C17 1_555 1_555
H23 C18 1_555 1_555
H24 C19 1_555 1_555
H25 C19 1_555 1_555
H26 C20 1_555 1_555
H27 C20 1_555 1_555
H28 C21 1_555 1_555
H29 C21 1_555 1_555
H30 C22 1_555 1_555
H31 C22 1_555 1_555
H32 C23 1_555 1_555
H33 C23 1_555 1_555
H34 C24 1_555 1_555
H35 C25 1_555 1_555
H36 C25 1_555 1_555
H37 C26 1_555 1_555
H38 C26 1_555 1_555
H39 C27 1_555 1_555
H40 C27 1_555 1_555
H41 C28 1_555 1_555
H42 C28 1_555 1_555
H43 C29 1_555 1_555
H44 C29 1_555 1_555
H46 C34 1_555 1_555
C1E C1 1_555 1_555
S1E C1E 1_555 1_555
C6E S1E 1_555 1_555
C7E C6E 1_555 1_555
C8E C7E 1_555 1_555
C9E C8E 1_555 1_555
C10E C9E 1_555 1_555
C11E C6E 1_555 1_555
H1E C6E 1_555 1_555
H10E C11E 1_555 1_555
H11E C11E 1_555 1_555
H8E C10E 1_555 1_555
H9E C10E 1_555 1_555
H6E C9E 1_555 1_555
H7E C9E 1_555 1_555
H4E C8E 1_555 1_555
H5E C8E 1_555 1_555
H2E C7E 1_555 1_555
H3E C7E 1_555 1_555
C2E C1E 1_555 1_555
S2E C2E 1_555 1_555
C12E S2E 1_555 1_555
C13E C12E 1_555 1_555
C14E C13E 1_555 1_555
C15E C14E 1_555 1_555
C16E C15E 1_555 1_555
C17E C12E 1_555 1_555
H12E C12E 1_555 1_555
H21E C17E 1_555 1_555
H22E C17E 1_555 1_555
H19E C16E 1_555 1_555
H20E C16E 1_555 1_555
H17E C15E 1_555 1_555
H18E C15E 1_555 1_555
H15E C14E 1_555 1_555
H16E C14E 1_555 1_555
H13E C13E 1_555 1_555
H14E C13E 1_555 1_555
C3E C3 1_555 1_555
C5E C5 1_555 1_555
S4E C5E 1_555 1_555
C24E S4E 1_555 1_555
C25E C24E 1_555 1_555
C26E C25E 1_555 1_555
C27E C26E 1_555 1_555
C28E C27E 1_555 1_555
C29E C24E 1_555 1_555
H34E C24E 1_555 1_555
H43E C29E 1_555 1_555
H44E C29E 1_555 1_555
H41E C28E 1_555 1_555
H42E C28E 1_555 1_555
H39E C27E 1_555 1_555
H40E C27E 1_555 1_555
H37E C26E 1_555 1_555
H38E C26E 1_555 1_555
H35E C25E 1_555 1_555
H36E C25E 1_555 1_555
C4E C3E 1_555 1_555
S3E C4E 1_555 1_555
C18E S3E 1_555 1_555
C19E C18E 1_555 1_555
C20E C19E 1_555 1_555
C21E C20E 1_555 1_555
C22E C21E 1_555 1_555
C23E C18E 1_555 1_555
H23E C18E 1_555 1_555
H32E C23E 1_555 1_555
H33E C23E 1_555 1_555
H30E C22E 1_555 1_555
H31E C22E 1_555 1_555
H28E C21E 1_555 1_555
H29E C21E 1_555 1_555
H26E C20E 1_555 1_555
H27E C20E 1_555 1_555
H24E C19E 1_555 1_555
H25E C19E 1_555 1_555
Ag1E S1E 1_555 1_555
Ag2E S4E 1_555 1_555
F1G C31G 1_555 1_555
F2G C31G 1_555 1_555
F3G C31G 1_555 1_555
O1G C30G 1_555 1_555
O2G Ag2 1_555 1_555
C30G O2G 1_555 1_555
C31G C30G 1_555 1_555
F4G C33G 1_555 1_555
F5G C33G 1_555 1_555
F6G C33G 1_555 1_555
O3G Ag2 1_555 1_555
O4G C32G 1_555 1_555
C32G O3G 1_555 1_555
C33G C32G 1_555 1_555
Ag2G O2 1_555 1_555
O1E Ag1E 1_555 1_555
O3E Ag1E 1_555 1_555
O2B Ag2E 1_555 1_555
O3B Ag2E 1_555 1_555
Ag1G O1G 1_555 1_555
O3 Ag2G 1_555 1_555
C4 C5 1_555 1_555
C10 C11 1_555 1_555
C16 C17 1_555 1_555
C22 C23 1_555 1_555
C28 C29 1_555 1_555
C10E C11E 1_555 1_555
C2E C3E 1_555 1_555
S2E Ag1E 1_555 1_555
C16E C17E 1_555 1_555
C5E C4E 1_555 1_555
C28E C29E 1_555 1_555
S3E Ag2E 1_555 1_555
C22E C23E 1_555 1_555
O3G Ag1G 1_555 1_555

#END
