
#######################################################################
#
#                 Cambridge Crystallographic Data Centre
#                                CCDC 
#
#######################################################################
#
# If this CIF has been generated from an entry in the Cambridge 
# Structural Database, then it will include bibliographic, chemical, 
# crystal, experimental, refinement or atomic coordinate data resulting 
# from the CCDC's data processing and validation procedures.
#
#######################################################################

data_EWAXUV
_symmetry_cell_setting           monoclinic
_symmetry_space_group_name_H-M   'C 2/c'
_symmetry_Int_Tables_number      15
_space_group_name_Hall           '-C 2yn'
loop_
_symmetry_equiv_pos_site_id
_symmetry_equiv_pos_as_xyz
1 x,y,z
2 1/2+x,1/2+y,z
3 x,-y,1/2+z
4 1/2+x,1/2-y,1/2+z
5 -x,-y,-z
6 1/2-x,1/2-y,-z
7 -x,y,1/2-z
8 1/2-x,1/2+y,1/2-z
_cell_length_a                   23.548(11)
_cell_length_b                   18.524(8)
_cell_length_c                   16.469(8)
_cell_angle_alpha                90
_cell_angle_beta                 102.008(17)
_cell_angle_gamma                90
_cell_volume                     7026.64
loop_
_atom_site_label
_atom_site_type_symbol
_atom_site_fract_x
_atom_site_fract_y
_atom_site_fract_z
Cu1 Cu 0.0000 0.23705(9) 0.2500
N1 N 0.0486(3) 0.3148(4) 0.2167(6)
N2 N 0.0989(4) 0.4157(5) 0.2201(6)
N3 N 0.4493(3) 0.6584(4) 0.2802(6)
N4 N 0.3989(4) 0.5579(5) 0.2640(6)
C1 C 0.0737(4) 0.3684(6) 0.2626(7)
H1 H 0.0740 0.3729 0.3190
C2 C 0.0894(6) 0.3910(7) 0.1404(8)
H2 H 0.1016 0.4122 0.0958
C3 C 0.0592(5) 0.3293(7) 0.1404(8)
H3 H 0.0469 0.3002 0.0941
C4 C 0.4224(4) 0.6109(6) 0.2258(8)
H4 H 0.4203 0.6135 0.1688
C5 C 0.4124(5) 0.5718(7) 0.3472(8)
H5 H 0.4023 0.5443 0.3893
C6 C 0.4428(5) 0.6337(6) 0.3551(7)
H6 H 0.4578 0.6564 0.4053
C7 C 0.1285(5) 0.4832(6) 0.2509(9)
H7 H 0.1269 0.4890 0.3089
H8 H 0.1081 0.5237 0.2206
C8 C 0.3684(5) 0.4943(7) 0.2249(10)
H9 H 0.3699 0.4938 0.1665
H10 H 0.3880 0.4513 0.2503
C9 C 0.1904(5) 0.4848(6) 0.2428(6)
C10 C 0.2116(5) 0.5433(6) 0.2049(7)
H11 H 0.1868 0.5810 0.1837
C11 C 0.2285(5) 0.4300(6) 0.2760(7)
H12 H 0.2152 0.3902 0.3012
C12 C 0.3059(5) 0.4925(6) 0.2325(7)
C13 C 0.2674(5) 0.5461(6) 0.1990(7)
H13 H 0.2807 0.5846 0.1719
C14 C 0.2844(5) 0.4344(6) 0.2710(8)
H14 H 0.3096 0.3976 0.2938
Cu2 Cu 0.2500 0.2500 0.5000
N5 N 0.2351(4) 0.3570(4) 0.4928(5)
N6 N 0.2445(4) 0.4733(4) 0.4735(5)
N7 N 0.2347(3) 0.7548(4) 0.8775(4)
N8 N 0.2457(4) 0.7685(4) 0.7492(5)
C15 C 0.2719(6) 0.4085(5) 0.4844(6)
H15 H 0.3110 0.4013 0.4851
C16 C 0.1890(6) 0.4620(6) 0.4777(8)
H16 H 0.1599 0.4967 0.4730
C17 C 0.1830(5) 0.3904(6) 0.4893(7)
H17 H 0.1490 0.3672 0.4948
C18 C 0.2734(4) 0.7614(5) 0.8303(6)
H18 H 0.3134 0.7609 0.8493
C19 C 0.1818(5) 0.7585(5) 0.8280(6)
H19 H 0.1468 0.7547 0.8453
C20 C 0.1872(5) 0.7688(5) 0.7469(6)
H20 H 0.1575 0.7746 0.7003
C21 C 0.2710(7) 0.5417(6) 0.4519(8)
H21 H 0.3111 0.5322 0.4493
H22 H 0.2509 0.5571 0.3971
C22 C 0.2734(6) 0.7828(6) 0.6776(7)
H23 H 0.3136 0.7967 0.6980
H24 H 0.2537 0.8228 0.6455
C23 C 0.2713(6) 0.6022(5) 0.5126(7)
C24 C 0.2196(6) 0.6381(6) 0.5169(7)
H25 H 0.1845 0.6231 0.4841
C25 C 0.2210(6) 0.6967(6) 0.5726(7)
H26 H 0.1868 0.7211 0.5740
C26 C 0.2715(5) 0.7178(6) 0.6223(6)
C27 C 0.3215(6) 0.6836(6) 0.6166(7)
H27 H 0.3567 0.6991 0.6488
C28 C 0.3210(6) 0.6254(6) 0.5617(8)
H28 H 0.3555 0.6019 0.5592
O1 O 0.1454(3) 0.2271(4) 0.5040(5)
O2 O 0.0627(4) 0.1563(5) 0.5129(6)
O3 O 0.0598(3) 0.2386(5) 0.4011(4)
O4 O 0.0627(4) 0.2816(5) 0.5376(6)
S1 S 0.08307(13) 0.22479(16) 0.48808(18)
N1F N -0.0486(3) 0.3148(4) 0.2833(6)
N2F N -0.0989(4) 0.4157(5) 0.2799(6)
N3F N -0.4493(3) 0.6584(4) 0.2198(6)
N4F N -0.3989(4) 0.5579(5) 0.2360(6)
C1F C -0.0737(4) 0.3684(6) 0.2374(7)
H1F H -0.0740 0.3729 0.1810
C2F C -0.0894(6) 0.3910(7) 0.3596(8)
H2F H -0.1016 0.4122 0.4042
C3F C -0.0592(5) 0.3293(7) 0.3596(8)
H3F H -0.0469 0.3002 0.4059
C4F C -0.4224(4) 0.6109(6) 0.2742(8)
H4F H -0.4203 0.6135 0.3312
C5F C -0.4124(5) 0.5718(7) 0.1528(8)
H5F H -0.4023 0.5443 0.1107
C6F C -0.4428(5) 0.6337(6) 0.1449(7)
H6F H -0.4578 0.6564 0.0947
C7F C -0.1285(5) 0.4832(6) 0.2491(9)
H7F H -0.1269 0.4890 0.1911
H8F H -0.1081 0.5237 0.2794
C8F C -0.3684(5) 0.4943(7) 0.2751(10)
H9F H -0.3699 0.4938 0.3335
H10F H -0.3880 0.4513 0.2497
C9F C -0.1904(5) 0.4848(6) 0.2572(6)
C10F C -0.2116(5) 0.5433(6) 0.2951(7)
H11F H -0.1868 0.5810 0.3163
C11F C -0.2285(5) 0.4300(6) 0.2240(7)
H12F H -0.2152 0.3902 0.1988
C12F C -0.3059(5) 0.4925(6) 0.2675(7)
C13F C -0.2674(5) 0.5461(6) 0.3010(7)
H13F H -0.2807 0.5846 0.3281
C14F C -0.2844(5) 0.4344(6) 0.2290(8)
H14F H -0.3096 0.3976 0.2062
O1F O -0.1454(3) 0.2271(4) -0.0040(5)
O2F O -0.0627(4) 0.1563(5) -0.0129(6)
O3F O -0.0598(3) 0.2386(5) 0.0989(4)
O4F O -0.0627(4) 0.2816(5) -0.0376(6)
S1F S -0.08307(13) 0.22479(16) 0.01192(18)
N5E N 0.2649(4) 0.1430(4) 0.5072(5)
N6E N 0.2555(4) 0.0267(4) 0.5265(5)
N7E N 0.2653(3) -0.2548(4) 0.1225(4)
N8E N 0.2543(4) -0.2685(4) 0.2508(5)
C15E C 0.2281(6) 0.0915(5) 0.5156(6)
H15E H 0.1890 0.0987 0.5149
C16E C 0.3110(6) 0.0380(6) 0.5223(8)
H16E H 0.3401 0.0033 0.5270
C17E C 0.3170(5) 0.1096(6) 0.5107(7)
H17E H 0.3510 0.1328 0.5052
C18E C 0.2266(4) -0.2614(5) 0.1697(6)
H18E H 0.1866 -0.2609 0.1507
C19E C 0.3182(5) -0.2585(5) 0.1720(6)
H19E H 0.3532 -0.2547 0.1547
C20E C 0.3128(5) -0.2688(5) 0.2531(6)
H20E H 0.3425 -0.2746 0.2997
C21E C 0.2290(7) -0.0417(6) 0.5481(8)
H21E H 0.1889 -0.0322 0.5507
H22E H 0.2491 -0.0571 0.6029
C22E C 0.2266(6) -0.2828(6) 0.3224(7)
H23E H 0.1864 -0.2967 0.3020
H24E H 0.2463 -0.3228 0.3545
C23E C 0.2287(6) -0.1022(5) 0.4874(7)
C24E C 0.2804(6) -0.1381(6) 0.4831(7)
H25E H 0.3155 -0.1231 0.5159
C25E C 0.2790(6) -0.1967(6) 0.4274(7)
H26E H 0.3132 -0.2211 0.4260
C26E C 0.2285(5) -0.2178(6) 0.3777(6)
C27E C 0.1785(6) -0.1836(6) 0.3834(7)
H27E H 0.1433 -0.1991 0.3512
C28E C 0.1790(6) -0.1254(6) 0.4383(8)
H28E H 0.1445 -0.1019 0.4408
N3A N -0.0507(3) 0.1584(4) 0.2802(6)
N3G N 0.0507(3) 0.1584(4) 0.2198(6)
Cu1A Cu 0.5000 0.73705(9) 0.2500
N7B N 0.2347(3) 0.2452(4) 0.3775(4)
N7G N 0.2653(3) 0.2548(4) 0.6225(4)
O1E O 0.3546(3) 0.2729(4) 0.4960(5)
Cu2B Cu 0.2500 0.7500 1.0000
Cu1A_2 Cu -0.5000 0.73705(9) 0.2500
Cu2C Cu -0.2500 0.2500 0.0000
Cu2B_2 Cu 0.2500 -0.2500 0.0000
O5 O 0.0511(7) 0.5722(9) 0.0280(11)
O6 O 0.0867(5) 0.9790(7) 0.9691(8)
O7 O 0.0547(6) 0.7411(7) 0.4442(9)
O8 O 0.0177(6) 0.8999(8) 0.4105(9)
O9 O 0.0761(10) 0.7236(12) 0.2063(14)
O10 O 0.0903(11) 0.6366(13) 0.3547(14)
O11 O 0.0000 0.8391(16) 0.2500
O12 O 0.4706(11) 0.0280(14) 0.1190(15)
loop_
_geom_bond_atom_site_label_1
_geom_bond_atom_site_label_2
_geom_bond_site_symmetry_1
_geom_bond_site_symmetry_2
Cu1 N1 1_555 1_555
N1 C1 1_555 1_555
N2 C1 1_555 1_555
N3 C4 1_555 1_555
N4 C4 1_555 1_555
C1 H1 1_555 1_555
C2 N2 1_555 1_555
H2 C2 1_555 1_555
C3 N1 1_555 1_555
H3 C3 1_555 1_555
C4 H4 1_555 1_555
C5 N4 1_555 1_555
H5 C5 1_555 1_555
C6 N3 1_555 1_555
H6 C6 1_555 1_555
C7 N2 1_555 1_555
H7 C7 1_555 1_555
H8 C7 1_555 1_555
C8 N4 1_555 1_555
H9 C8 1_555 1_555
H10 C8 1_555 1_555
C9 C7 1_555 1_555
C10 C9 1_555 1_555
H11 C10 1_555 1_555
C11 C9 1_555 1_555
H12 C11 1_555 1_555
C12 C8 1_555 1_555
C13 C10 1_555 1_555
H13 C13 1_555 1_555
C14 C11 1_555 1_555
H14 C14 1_555 1_555
Cu2 N5 1_555 1_555
N5 C15 1_555 1_555
N6 C15 1_555 1_555
N7 C18 1_555 1_555
N8 C18 1_555 1_555
C15 H15 1_555 1_555
C16 N6 1_555 1_555
H16 C16 1_555 1_555
C17 N5 1_555 1_555
H17 C17 1_555 1_555
C18 H18 1_555 1_555
C19 N7 1_555 1_555
H19 C19 1_555 1_555
C20 N8 1_555 1_555
H20 C20 1_555 1_555
C21 N6 1_555 1_555
H21 C21 1_555 1_555
H22 C21 1_555 1_555
C22 N8 1_555 1_555
H23 C22 1_555 1_555
H24 C22 1_555 1_555
C23 C21 1_555 1_555
C24 C23 1_555 1_555
H25 C24 1_555 1_555
C25 C24 1_555 1_555
H26 C25 1_555 1_555
C26 C22 1_555 1_555
C27 C26 1_555 1_555
H27 C27 1_555 1_555
C28 C23 1_555 1_555
H28 C28 1_555 1_555
O1 Cu2 1_555 1_555
O2 S1 1_555 1_555
O3 Cu1 1_555 1_555
O4 S1 1_555 1_555
S1 O1 1_555 1_555
N1F Cu1 1_555 1_555
N2F C1F 1_555 1_555
N3F C4F 1_555 1_555
N4F C4F 1_555 1_555
C1F N1F 1_555 1_555
H1F C1F 1_555 1_555
C2F N2F 1_555 1_555
H2F C2F 1_555 1_555
C3F N1F 1_555 1_555
H3F C3F 1_555 1_555
C4F H4F 1_555 1_555
C5F N4F 1_555 1_555
H5F C5F 1_555 1_555
C6F N3F 1_555 1_555
H6F C6F 1_555 1_555
C7F N2F 1_555 1_555
H7F C7F 1_555 1_555
H8F C7F 1_555 1_555
C8F N4F 1_555 1_555
H9F C8F 1_555 1_555
H10F C8F 1_555 1_555
C9F C7F 1_555 1_555
C10F C9F 1_555 1_555
H11F C10F 1_555 1_555
C11F C9F 1_555 1_555
H12F C11F 1_555 1_555
C12F C8F 1_555 1_555
C13F C10F 1_555 1_555
H13F C13F 1_555 1_555
C14F C11F 1_555 1_555
H14F C14F 1_555 1_555
O1F S1F 1_555 1_555
O2F S1F 1_555 1_555
O3F Cu1 1_555 1_555
O4F S1F 1_555 1_555
S1F O3F 1_555 1_555
N5E Cu2 1_555 1_555
N6E C15E 1_555 1_555
N7E C18E 1_555 1_555
N8E C18E 1_555 1_555
C15E N5E 1_555 1_555
H15E C15E 1_555 1_555
C16E N6E 1_555 1_555
H16E C16E 1_555 1_555
C17E N5E 1_555 1_555
H17E C17E 1_555 1_555
C18E H18E 1_555 1_555
C19E N7E 1_555 1_555
H19E C19E 1_555 1_555
C20E N8E 1_555 1_555
H20E C20E 1_555 1_555
C21E N6E 1_555 1_555
H21E C21E 1_555 1_555
H22E C21E 1_555 1_555
C22E N8E 1_555 1_555
H23E C22E 1_555 1_555
H24E C22E 1_555 1_555
C23E C21E 1_555 1_555
C24E C23E 1_555 1_555
H25E C24E 1_555 1_555
C25E C24E 1_555 1_555
H26E C25E 1_555 1_555
C26E C22E 1_555 1_555
C27E C26E 1_555 1_555
H27E C27E 1_555 1_555
C28E C23E 1_555 1_555
H28E C28E 1_555 1_555
N3A Cu1 1_555 1_555
N3G Cu1 1_555 1_555
Cu1A N3 1_555 1_555
N7B Cu2 1_555 1_555
N7G Cu2 1_555 1_555
O1E Cu2 1_555 1_555
Cu2B N7 1_555 1_555
Cu1A_2 N3F 1_555 1_555
Cu2C O1F 1_555 1_555
Cu2B_2 N7E 1_555 1_555
C2 C3 1_555 1_555
C5 C6 1_555 1_555
C12 C13 1_555 1_555
C12 C14 1_555 1_555
C16 C17 1_555 1_555
C19 C20 1_555 1_555
C25 C26 1_555 1_555
C27 C28 1_555 1_555
O3 S1 1_555 1_555
C2F C3F 1_555 1_555
C5F C6F 1_555 1_555
C12F C13F 1_555 1_555
C12F C14F 1_555 1_555
C16E C17E 1_555 1_555
C19E C20E 1_555 1_555
C25E C26E 1_555 1_555
C27E C28E 1_555 1_555

#END
