
#######################################################################
#
#                 Cambridge Crystallographic Data Centre
#                                CCDC 
#
#######################################################################
#
# If this CIF has been generated from an entry in the Cambridge 
# Structural Database, then it will include bibliographic, chemical, 
# crystal, experimental, refinement or atomic coordinate data resulting 
# from the CCDC's data processing and validation procedures.
#
#######################################################################

data_EWAZUX01
_symmetry_cell_setting           monoclinic
_symmetry_space_group_name_H-M   'P 21/c'
_symmetry_Int_Tables_number      14
_space_group_name_Hall           '-P 2ybc'
loop_
_symmetry_equiv_pos_site_id
_symmetry_equiv_pos_as_xyz
1 x,y,z
2 x,1/2-y,1/2+z
3 -x,-y,-z
4 -x,1/2+y,1/2-z
_cell_length_a                   20.560(4)
_cell_length_b                   8.5138(17)
_cell_length_c                   10.387(2)
_cell_angle_alpha                90
_cell_angle_beta                 97.46(3)
_cell_angle_gamma                90
_cell_volume                     1802.79
loop_
_atom_site_label
_atom_site_type_symbol
_atom_site_fract_x
_atom_site_fract_y
_atom_site_fract_z
Zn1 Zn 0.060200(11) 0.41855(3) 0.34836(2)
P1 P -0.02186(3) 0.70972(6) 0.39118(5)
O3 O 0.15645(8) 0.4049(2) 0.3655(2)
O4 O 0.19065(9) 0.3779(3) 0.5782(2)
O5 O 0.04142(7) 0.63901(19) 0.35893(17)
O7 O -0.07813(8) 0.59388(19) 0.33297(18)
H1 H -0.1141 0.6178 0.3603
N2 N 0.39507(9) 0.3894(2) 0.3794(2)
H4 H 0.4349 0.3894 0.3623
C7 C 0.26933(10) 0.3911(3) 0.4331(2)
C8 C 0.32127(11) 0.4059(3) 0.5320(3)
H9 H 0.3135 0.4175 0.6177
C9 C 0.38429(11) 0.4029(3) 0.5018(3)
H10 H 0.4195 0.4105 0.5675
C10 C 0.34640(11) 0.3756(3) 0.2816(3)
H11 H 0.3559 0.3668 0.1967
C11 C 0.28256(11) 0.3745(3) 0.3062(3)
H12 H 0.2485 0.3627 0.2386
C12 C 0.19919(11) 0.3916(3) 0.4632(3)
O9 O -0.03256(8) 0.87138(18) 0.33143(16)
O10 O -0.02299(7) 0.72513(18) 0.53739(15)
O9C O 0.03256(8) 0.37138(18) 0.16857(16)
O10B O 0.02299(7) 0.27487(18) 0.46261(15)
Zn1C Zn -0.060200(11) 0.91855(3) 0.15164(2)
Zn1B Zn -0.060200(11) 0.58145(3) 0.65164(2)
Zn2 Zn 0.435373(11) 0.69146(3) 0.07294(2)
P2 P 0.52407(2) 0.40639(6) 0.18276(5)
O1 O 0.34028(7) 0.7064(2) 0.07722(19)
O2 O 0.31375(10) 0.5333(3) -0.0817(3)
O6 O 0.45938(7) 0.48255(19) 0.13070(16)
O8 O 0.57966(7) 0.53603(19) 0.18968(17)
H2 H 0.6107 0.5067 0.1487
N1 N 0.10409(9) 0.6353(3) 0.0813(2)
H3 H 0.0642 0.6365 0.0978
C1 C 0.22999(10) 0.6299(3) 0.0309(2)
C2 C 0.18270(11) 0.5379(3) -0.0416(3)
H5 H 0.1940 0.4737 -0.1077
C3 C 0.11913(11) 0.5430(3) -0.0141(3)
H6 H 0.0869 0.4824 -0.0617
C4 C 0.14772(12) 0.7257(4) 0.1523(3)
H7 H 0.1349 0.7891 0.2174
C5 C 0.21197(11) 0.7246(3) 0.1286(3)
H8 H 0.2430 0.7869 0.1778
C6 C 0.30083(11) 0.6217(3) 0.0039(3)
O11 O 0.51956(7) 0.35507(18) 0.32299(15)
O12 O 0.54235(8) 0.27031(18) 0.10061(15)
O11C O 0.48044(7) 0.85507(18) 0.17701(15)
O12B O 0.45765(8) 0.72969(18) -0.10061(15)
Zn2C Zn 0.564627(11) 0.19146(3) 0.42706(2)
Zn2B Zn 0.564627(11) 0.30854(3) -0.07294(2)
loop_
_geom_bond_atom_site_label_1
_geom_bond_atom_site_label_2
_geom_bond_site_symmetry_1
_geom_bond_site_symmetry_2
Zn1 O3 1_555 1_555
Zn2 O1 1_555 1_555
P1 O5 1_555 1_555
P2 O6 1_555 1_555
O1 C6 1_555 1_555
O2 C6 1_555 1_555
O3 C12 1_555 1_555
O4 C12 1_555 1_555
O5 Zn1 1_555 1_555
O6 Zn2 1_555 1_555
O7 P1 1_555 1_555
H1 O7 1_555 1_555
O8 P2 1_555 1_555
H2 O8 1_555 1_555
N1 H3 1_555 1_555
N2 H4 1_555 1_555
C1 C2 1_555 1_555
C2 H5 1_555 1_555
C3 N1 1_555 1_555
H6 C3 1_555 1_555
C4 N1 1_555 1_555
H7 C4 1_555 1_555
C5 C1 1_555 1_555
H8 C5 1_555 1_555
C6 C1 1_555 1_555
C7 C8 1_555 1_555
C8 H9 1_555 1_555
C9 N2 1_555 1_555
H10 C9 1_555 1_555
C10 N2 1_555 1_555
H11 C10 1_555 1_555
C11 C7 1_555 1_555
H12 C11 1_555 1_555
C12 C7 1_555 1_555
O9 P1 1_555 1_555
O10 P1 1_555 1_555
O11 P2 1_555 1_555
O12 P2 1_555 1_555
O9C Zn1 1_555 1_555
O10B Zn1 1_555 1_555
O11C Zn2 1_555 1_555
O12B Zn2 1_555 1_555
Zn1C O9 1_555 1_555
Zn1B O10 1_555 1_555
Zn2C O11 1_555 1_555
Zn2B O12 1_555 1_555
C2 C3 1_555 1_555
C4 C5 1_555 1_555
C8 C9 1_555 1_555
C10 C11 1_555 1_555

#END
