
#######################################################################
#
#                 Cambridge Crystallographic Data Centre
#                                CCDC 
#
#######################################################################
#
# If this CIF has been generated from an entry in the Cambridge 
# Structural Database, then it will include bibliographic, chemical, 
# crystal, experimental, refinement or atomic coordinate data resulting 
# from the CCDC's data processing and validation procedures.
#
#######################################################################

data_EWAZUX
_symmetry_cell_setting           monoclinic
_symmetry_space_group_name_H-M   'P 21/c'
_symmetry_Int_Tables_number      14
_space_group_name_Hall           '-P 2ybc'
loop_
_symmetry_equiv_pos_site_id
_symmetry_equiv_pos_as_xyz
1 x,y,z
2 x,1/2-y,1/2+z
3 -x,-y,-z
4 -x,1/2+y,1/2-z
_cell_length_a                   20.5643(8)
_cell_length_b                   8.5169(4)
_cell_length_c                   10.3928(4)
_cell_angle_alpha                90.00
_cell_angle_beta                 97.4660(10)
_cell_angle_gamma                90.00
_cell_volume                     1804.81
loop_
_atom_site_label
_atom_site_type_symbol
_atom_site_fract_x
_atom_site_fract_y
_atom_site_fract_z
Zn1 Zn -0.439799(10) 0.08150(2) 0.348361(19)
P1 P -0.52187(2) -0.20962(5) 0.39102(4)
O1 O -0.57829(7) -0.09393(17) 0.33301(13)
O2 O -0.45852(6) -0.13918(16) 0.35881(13)
O3 O -0.53265(7) -0.37111(16) 0.33115(12)
O4 O -0.52315(6) -0.22503(15) 0.53733(11)
O9 O -0.34343(7) 0.0950(2) 0.36543(15)
O10 O -0.30949(8) 0.1220(2) 0.57795(16)
N1 N -0.10476(8) 0.1105(2) 0.37941(17)
C1 C -0.30065(10) 0.1081(2) 0.4636(2)
C2 C -0.23053(9) 0.1093(2) 0.43323(19)
C3 C -0.21726(10) 0.1256(3) 0.3060(2)
H1 H -0.2513 0.1375 0.2385
C4 C -0.15354(10) 0.1238(3) 0.2813(2)
H2 H -0.1441 0.1319 0.1964
C5 C -0.11572(10) 0.0971(3) 0.5021(2)
H3 H -0.0806 0.0899 0.5680
C6 C -0.17847(10) 0.0940(3) 0.5316(2)
H4 H -0.1863 0.0816 0.6171
H9 H -0.6181(16) -0.108(4) 0.365(3)
H11 H -0.0614(16) 0.112(3) 0.356(3)
O3C O -0.46735(7) 0.12889(16) 0.16885(12)
O4B O -0.47685(6) 0.22503(15) 0.46267(11)
Zn1C Zn -0.560201(10) -0.41850(2) 0.151639(19)
Zn1B Zn -0.560201(10) -0.08150(2) 0.651639(19)
Zn2 Zn 0.064623(10) 0.19138(2) -0.072970(19)
P2 P 0.02406(2) 0.09350(5) 0.18275(4)
O5 O 0.07952(7) -0.03544(17) 0.18966(14)
O6 O 0.04219(7) 0.22941(15) 0.10042(11)
O7 O 0.01955(6) 0.14506(16) 0.32274(11)
O8 O -0.04053(6) 0.01774(16) 0.13085(12)
O11 O 0.15946(7) 0.20575(18) -0.07716(15)
O12 O 0.18622(9) 0.0327(3) 0.0817(2)
N2 N 0.39563(9) 0.1352(2) -0.08117(19)
C7 C 0.19914(10) 0.1215(3) -0.0044(2)
C8 C 0.26985(9) 0.1296(2) -0.03077(19)
C9 C 0.28794(10) 0.2254(3) -0.1287(2)
H5 H 0.2570 0.2881 -0.1775
C10 C 0.35209(11) 0.2261(3) -0.1523(2)
H6 H 0.3650 0.2894 -0.2174
C11 C 0.38066(10) 0.0429(3) 0.0138(2)
H7 H 0.4128 -0.0179 0.0613
C12 C 0.31715(10) 0.0387(3) 0.0408(2)
H8 H 0.3059 -0.0251 0.1070
H10 H 0.1070(13) -0.019(3) 0.152(2)
H12 H 0.4342(13) 0.135(3) -0.094(3)
O7A O 0.01955(6) 0.35494(16) -0.17726(11)
O8B O 0.04053(6) -0.01774(16) -0.13085(12)
Zn2A Zn 0.064623(10) 0.30862(2) 0.427030(19)
Zn2B Zn -0.064623(10) -0.19138(2) 0.072970(19)
loop_
_geom_bond_atom_site_label_1
_geom_bond_atom_site_label_2
_geom_bond_site_symmetry_1
_geom_bond_site_symmetry_2
Zn1 O2 1_555 1_555
Zn2 O6 1_555 1_555
P1 O1 1_555 1_555
P2 O5 1_555 1_555
O1 H9 1_555 1_555
O2 P1 1_555 1_555
O3 P1 1_555 1_555
O4 P1 1_555 1_555
O5 H10 1_555 1_555
O6 P2 1_555 1_555
O7 P2 1_555 1_555
O8 P2 1_555 1_555
O9 Zn1 1_555 1_555
O10 C1 1_555 1_555
O11 Zn2 1_555 1_555
O12 C7 1_555 1_555
N1 C4 1_555 1_555
N2 C10 1_555 1_555
C1 O9 1_555 1_555
C2 C1 1_555 1_555
C3 C2 1_555 1_555
H1 C3 1_555 1_555
C4 C3 1_555 1_555
H2 C4 1_555 1_555
C5 N1 1_555 1_555
H3 C5 1_555 1_555
C6 C2 1_555 1_555
H4 C6 1_555 1_555
C7 O11 1_555 1_555
C8 C7 1_555 1_555
C9 C8 1_555 1_555
H5 C9 1_555 1_555
C10 C9 1_555 1_555
H6 C10 1_555 1_555
C11 N2 1_555 1_555
H7 C11 1_555 1_555
C12 C8 1_555 1_555
H8 C12 1_555 1_555
H11 N1 1_555 1_555
H12 N2 1_555 1_555
O3C Zn1 1_555 1_555
O4B Zn1 1_555 1_555
O7A Zn2 1_555 1_555
O8B Zn2 1_555 1_555
Zn1C O3 1_555 1_555
Zn1B O4 1_555 1_555
Zn2A O7 1_555 1_555
Zn2B O8 1_555 1_555
C5 C6 1_555 1_555
C11 C12 1_555 1_555

#END
