
#######################################################################
#
#                 Cambridge Crystallographic Data Centre
#                                CCDC 
#
#######################################################################
#
# If this CIF has been generated from an entry in the Cambridge 
# Structural Database, then it will include bibliographic, chemical, 
# crystal, experimental, refinement or atomic coordinate data resulting 
# from the CCDC's data processing and validation procedures.
#
#######################################################################

data_EWAZEH
_symmetry_cell_setting           monoclinic
_symmetry_space_group_name_H-M   'P 2/c'
_symmetry_Int_Tables_number      13
_space_group_name_Hall           '-P 2yc'
loop_
_symmetry_equiv_pos_site_id
_symmetry_equiv_pos_as_xyz
1 x,y,z
2 x,-y,1/2+z
3 -x,-y,-z
4 -x,y,1/2-z
_cell_length_a                   18.7022(6)
_cell_length_b                   5.3044(2)
_cell_length_c                   16.3434(6)
_cell_angle_alpha                90
_cell_angle_beta                 114.985(2)
_cell_angle_gamma                90
_cell_volume                     1469.6
loop_
_atom_site_label
_atom_site_type_symbol
_atom_site_fract_x
_atom_site_fract_y
_atom_site_fract_z
Pb1 Pb 0.5000 0.77241(12) 0.2500
S1 S 0.4213(2) 0.7763(6) 0.6007(2)
N1 N 0.3796(7) 0.558(2) 0.2765(8)
H1 H 0.4126 0.4364 0.2983
H2 H 0.3589 0.5870 0.2193
C1 C 0.2967(8) 1.086(3) 0.3570(9)
H5 H 0.2643 1.2256 0.3337
C2 C 0.3114(7) 0.924(3) 0.2990(9)
H6 H 0.2895 0.9561 0.2373
C3 C 0.3596(8) 0.712(2) 0.3346(8)
C4 C 0.3923(7) 0.669(2) 0.4262(8)
H7 H 0.4251 0.5309 0.4506
C5 C 0.3757(7) 0.834(2) 0.4820(8)
C6 C 0.3297(7) 1.042(2) 0.4494(8)
H8 H 0.3205 1.1520 0.4882
O1 O 0.3759(6) 0.915(2) 0.6394(6)
O2 O 0.4199(6) 0.5039(18) 0.6118(6)
O3 O 0.5028(6) 0.870(2) 0.6356(7)
S1C S 0.5787(2) 0.7763(6) -0.1007(2)
N1C N 0.6204(7) 0.558(2) 0.2235(8)
H1C H 0.5874 0.4364 0.2017
H2C H 0.6411 0.5870 0.2807
C1C C 0.7033(8) 1.086(3) 0.1430(9)
H5C H 0.7357 1.2256 0.1663
C2C C 0.6886(7) 0.924(3) 0.2010(9)
H6C H 0.7105 0.9561 0.2627
C3C C 0.6404(8) 0.712(2) 0.1654(8)
C4C C 0.6077(7) 0.669(2) 0.0738(8)
H7C H 0.5749 0.5309 0.0494
C5C C 0.6243(7) 0.834(2) 0.0180(8)
C6C C 0.6703(7) 1.042(2) 0.0506(8)
H8C H 0.6795 1.1520 0.0118
O1C O 0.6241(6) 0.915(2) -0.1394(6)
O2C O 0.5801(6) 0.5039(18) -0.1118(6)
O3C O 0.4972(6) 0.870(2) -0.1356(7)
O1A O 0.3759(6) 1.085(2) 0.1394(6)
O1B O 0.6241(6) 1.085(2) 0.3606(6)
O2A O 0.4199(6) 0.4961(18) 0.1118(6)
O2B O 0.5801(6) 0.4961(18) 0.3882(6)
O3A O 0.5028(6) 1.130(2) 0.1356(7)
O3B O 0.4972(6) 1.130(2) 0.3644(7)
Pb1A Pb 0.5000 1.22759(12) 0.7500
Pb1A_2 Pb 0.5000 0.22759(12) 0.7500
Pb1A_3 Pb 0.5000 1.22759(12) -0.2500
Pb1A_4 Pb 0.5000 0.22759(12) -0.2500
Pb2 Pb 0.0000 0.28545(12) 0.7500
S2 S 0.0756(2) 0.2623(6) 1.1735(2)
N2 N 0.1234(7) 0.074(2) 0.8917(8)
H3 H 0.1421 0.1142 0.8537
H4 H 0.0928 -0.0548 0.8816
C7 C 0.1713(8) 0.533(2) 1.1177(9)
H9 H 0.1796 0.6385 1.1664
C8 C 0.2078(8) 0.582(3) 1.0607(9)
H10 H 0.2420 0.7183 1.0717
C9 C 0.1922(8) 0.426(3) 0.9875(8)
H11 H 0.2154 0.4611 0.9484
C10 C 0.1428(8) 0.218(2) 0.9708(9)
C11 C 0.1077(8) 0.165(3) 1.0290(8)
H12 H 0.0751 0.0253 1.0192
C12 C 0.1220(7) 0.322(2) 1.1010(8)
O4 O 0.1190(5) 0.394(2) 1.2583(6)
O5 O -0.0050(5) 0.362(2) 1.1281(6)
O6 O 0.0755(6) -0.0114(17) 1.1836(7)
S2C S -0.0756(2) 0.2623(6) 0.3265(2)
N2C N -0.1234(7) 0.074(2) 0.6083(8)
H3C H -0.1421 0.1142 0.6463
H4C H -0.0928 -0.0548 0.6184
C7C C -0.1713(8) 0.533(2) 0.3823(9)
H9C H -0.1796 0.6385 0.3336
C8C C -0.2078(8) 0.582(3) 0.4393(9)
H10C H -0.2420 0.7183 0.4283
C9C C -0.1922(8) 0.426(3) 0.5125(8)
H11C H -0.2154 0.4611 0.5516
C10C C -0.1428(8) 0.218(2) 0.5292(9)
C11C C -0.1077(8) 0.165(3) 0.4710(8)
H12C H -0.0751 0.0253 0.4808
C12C C -0.1220(7) 0.322(2) 0.3990(8)
O4C O -0.1190(5) 0.394(2) 0.2417(6)
O5C O 0.0050(5) 0.362(2) 0.3719(6)
O6C O -0.0755(6) -0.0114(17) 0.3164(7)
O4A O 0.1190(5) 0.606(2) 0.7583(6)
O4B O -0.1190(5) 0.606(2) 0.7417(6)
O5A O -0.0050(5) 0.638(2) 0.6281(6)
O5B O 0.0050(5) 0.638(2) 0.8719(6)
O6A O 0.0755(6) 0.0114(17) 0.6836(7)
O6B O -0.0755(6) 0.0114(17) 0.8164(7)
Pb2A Pb 0.0000 0.71455(12) 1.2500
Pb2A_2 Pb 0.0000 -0.28545(12) 1.2500
Pb2A_3 Pb 0.0000 0.71455(12) 0.2500
Pb2A_4 Pb 0.0000 -0.28545(12) 0.2500
loop_
_geom_bond_atom_site_label_1
_geom_bond_atom_site_label_2
_geom_bond_site_symmetry_1
_geom_bond_site_symmetry_2
Pb1 N1 1_555 1_555
Pb2 N2 1_555 1_555
S1 C5 1_555 1_555
S2 C12 1_555 1_555
N1 H1 1_555 1_555
H2 N1 1_555 1_555
N2 H3 1_555 1_555
H4 N2 1_555 1_555
C1 H5 1_555 1_555
C2 C1 1_555 1_555
H6 C2 1_555 1_555
C3 N1 1_555 1_555
C4 C3 1_555 1_555
H7 C4 1_555 1_555
C5 C4 1_555 1_555
C6 C1 1_555 1_555
H8 C6 1_555 1_555
C7 H9 1_555 1_555
C8 C7 1_555 1_555
H10 C8 1_555 1_555
C9 C8 1_555 1_555
H11 C9 1_555 1_555
C10 N2 1_555 1_555
C11 C10 1_555 1_555
H12 C11 1_555 1_555
C12 C7 1_555 1_555
O1 S1 1_555 1_555
O2 S1 1_555 1_555
O3 S1 1_555 1_555
O4 S2 1_555 1_555
O5 S2 1_555 1_555
O6 S2 1_555 1_555
S1C C5C 1_555 1_555
N1C Pb1 1_555 1_555
H1C N1C 1_555 1_555
H2C N1C 1_555 1_555
C1C H5C 1_555 1_555
C2C C1C 1_555 1_555
H6C C2C 1_555 1_555
C3C N1C 1_555 1_555
C4C C3C 1_555 1_555
H7C C4C 1_555 1_555
C5C C4C 1_555 1_555
C6C C1C 1_555 1_555
H8C C6C 1_555 1_555
O1C S1C 1_555 1_555
O2C S1C 1_555 1_555
O3C S1C 1_555 1_555
S2C C12C 1_555 1_555
N2C Pb2 1_555 1_555
H3C N2C 1_555 1_555
H4C N2C 1_555 1_555
C7C H9C 1_555 1_555
C8C C7C 1_555 1_555
H10C C8C 1_555 1_555
C9C C8C 1_555 1_555
H11C C9C 1_555 1_555
C10C N2C 1_555 1_555
C11C C10C 1_555 1_555
H12C C11C 1_555 1_555
C12C C7C 1_555 1_555
O4C S2C 1_555 1_555
O5C S2C 1_555 1_555
O6C S2C 1_555 1_555
O1A Pb1 1_555 1_555
O1B Pb1 1_555 1_555
O2A Pb1 1_555 1_555
O2B Pb1 1_555 1_555
O3A Pb1 1_555 1_555
O3B Pb1 1_555 1_555
O4A Pb2 1_555 1_555
O4B Pb2 1_555 1_555
O5A Pb2 1_555 1_555
O5B Pb2 1_555 1_555
O6A Pb2 1_555 1_555
O6B Pb2 1_555 1_555
Pb1A O1 1_555 1_555
Pb1A_2 O2 1_555 1_555
Pb2A O4 1_555 1_555
Pb2A_2 O6 1_555 1_555
Pb1A_3 O1C 1_555 1_555
Pb1A_4 O2C 1_555 1_555
Pb2A_3 O4C 1_555 1_555
Pb2A_4 O6C 1_555 1_555
C2 C3 1_555 1_555
C5 C6 1_555 1_555
C9 C10 1_555 1_555
C11 C12 1_555 1_555
O3 Pb1A 1_555 1_555
O5 Pb2A 1_555 1_555
C2C C3C 1_555 1_555
C5C C6C 1_555 1_555
O3C Pb1A_3 1_555 1_555
C9C C10C 1_555 1_555
C11C C12C 1_555 1_555
O5C Pb2A_3 1_555 1_555

#END
