
#######################################################################
#
#                 Cambridge Crystallographic Data Centre
#                                CCDC 
#
#######################################################################
#
# If this CIF has been generated from an entry in the Cambridge 
# Structural Database, then it will include bibliographic, chemical, 
# crystal, experimental, refinement or atomic coordinate data resulting 
# from the CCDC's data processing and validation procedures.
#
#######################################################################

data_EWEBEN
_symmetry_cell_setting           monoclinic
_symmetry_space_group_name_H-M   'P 21/c'
_symmetry_Int_Tables_number      14
_space_group_name_Hall           '-P 2ybc'
loop_
_symmetry_equiv_pos_site_id
_symmetry_equiv_pos_as_xyz
1 x,y,z
2 x,1/2-y,1/2+z
3 -x,-y,-z
4 -x,1/2+y,1/2-z
_cell_length_a                   6.6180(13)
_cell_length_b                   8.1720(16)
_cell_length_c                   15.578(3)
_cell_angle_alpha                90
_cell_angle_beta                 96.30(3)
_cell_angle_gamma                90
_cell_volume                     837.406
loop_
_atom_site_label
_atom_site_type_symbol
_atom_site_fract_x
_atom_site_fract_y
_atom_site_fract_z
Co1 Co 0.51578(7) 0.81829(6) 0.02371(2)
Co2 Co 1.0000 1.0000 0.0000
O1 O 0.6794(3) 0.8661(3) 0.14459(13)
O2 O 1.0027(4) 0.8623(3) 0.11519(13)
O3 O 1.0397(4) 0.7219(3) 0.43297(13)
O4 O 1.3624(3) 0.7595(3) 0.40734(13)
O5 O 0.6877(3) 0.9850(3) -0.03610(15)
H1 H 0.689(6) 0.964(5) -0.075(2)
O6 O 0.7255(5) 0.6249(4) 0.00882(17)
O7 O 0.3406(4) 0.6601(4) 0.09595(16)
C1 C 0.8685(5) 0.8459(4) 0.16504(19)
C2 C 0.9321(5) 0.7959(5) 0.25634(19)
H2 H 0.8398 0.7375 0.2853
H3 H 1.1993 0.8942 0.2710
H4 H 0.825(9) 0.655(7) -0.014(3)
H5 H 0.696(8) 0.549(6) -0.020(3)
H6 H 0.253(8) 0.708(7) 0.108(3)
H7 H 0.387(8) 0.637(7) 0.147(3)
C3 C 1.1093(5) 0.8293(5) 0.29776(19)
C4 C 1.1729(5) 0.7668(4) 0.38712(19)
O1B O 1.3206(3) 1.1339(3) -0.14459(13)
O2B O 0.9973(4) 1.1377(3) -0.11519(13)
O3B O 0.9603(4) 1.2781(3) -0.43297(13)
O4B O 0.6376(3) 1.2405(3) -0.40734(13)
C1B C 1.1315(5) 1.1541(4) -0.16504(19)
C2B C 1.0679(5) 1.2041(5) -0.25634(19)
H2B H 1.1602 1.2625 -0.2853
H3B H 0.8007 1.1058 -0.2710
C3B C 0.8907(5) 1.1707(5) -0.29776(19)
C4B C 0.8271(5) 1.2332(4) -0.38712(19)
O5B O 1.3123(3) 1.0150(3) 0.03610(15)
H1B H 1.311(6) 1.036(5) 0.075(2)
Co1B Co 1.48422(7) 1.18171(6) -0.02371(2)
O6B O 1.2745(5) 1.3751(4) -0.00882(17)
H4B H 1.175(9) 1.345(7) 0.014(3)
H5B H 1.304(8) 1.451(6) 0.020(3)
O7B O 1.6594(4) 1.3399(4) -0.09595(16)
H6B H 1.747(8) 1.292(7) -0.108(3)
H7B H 1.613(8) 1.363(7) -0.147(3)
O4A O 0.3624(3) 0.7405(3) -0.09266(13)
O5B_2 O 0.3123(3) 1.0150(3) 0.03610(15)
O3A O 1.0397(4) 0.7781(3) -0.06703(13)
O3C O 0.9603(4) 1.2219(3) 0.06703(13)
Co2A Co 1.0000 0.5000 0.5000
Co1A Co 1.51578(7) 0.68171(6) 0.52371(2)
Co1B_2 Co 0.48422(7) 1.18171(6) -0.02371(2)
Co2A_2 Co 1.0000 1.5000 -0.5000
Co1C Co 0.48422(7) 1.31829(6) -0.52371(2)
Co1_2 Co 1.51578(7) 0.81829(6) 0.02371(2)
O4C O 1.6376(3) 1.2595(3) 0.09266(13)
O5_2 O 1.6877(3) 0.9850(3) -0.03610(15)
H1B_2 H 0.311(6) 1.036(5) 0.075(2)
H1_2 H 1.689(6) 0.964(5) -0.075(2)
O8 O 0.4925(5) 0.0902(5) 0.23702(19)
H8 H 0.529(9) 0.166(8) 0.204(3)
H9 H 0.539(8) -0.002(6) 0.223(3)
loop_
_geom_bond_atom_site_label_1
_geom_bond_atom_site_label_2
_geom_bond_site_symmetry_1
_geom_bond_site_symmetry_2
Co1 O1 1_555 1_555
Co2 O2 1_555 1_555
O1 C1 1_555 1_555
O2 C1 1_555 1_555
O3 C4 1_555 1_555
O4 C4 1_555 1_555
O5 Co1 1_555 1_555
H1 O5 1_555 1_555
O6 Co1 1_555 1_555
O7 Co1 1_555 1_555
O8 H8 1_555 1_555
C1 C2 1_555 1_555
C2 H2 1_555 1_555
H3 C3 1_555 1_555
H4 O6 1_555 1_555
H5 O6 1_555 1_555
H6 O7 1_555 1_555
H7 O7 1_555 1_555
H9 O8 1_555 1_555
C3 C2 1_555 1_555
C4 C3 1_555 1_555
O1B C1B 1_555 1_555
O2B Co2 1_555 1_555
O3B C4B 1_555 1_555
O4B C4B 1_555 1_555
C1B O2B 1_555 1_555
C2B C1B 1_555 1_555
H2B C2B 1_555 1_555
H3B C3B 1_555 1_555
C3B C2B 1_555 1_555
C4B C3B 1_555 1_555
O5B Co2 1_555 1_555
H1B O5B 1_555 1_555
Co1B O1B 1_555 1_555
O6B Co1B 1_555 1_555
H4B O6B 1_555 1_555
H5B O6B 1_555 1_555
O7B Co1B 1_555 1_555
H6B O7B 1_555 1_555
H7B O7B 1_555 1_555
O4A Co1 1_555 1_555
O5B_2 Co1 1_555 1_555
O3A Co2 1_555 1_555
O3C Co2 1_555 1_555
Co2A O3 1_555 1_555
Co1A O4 1_555 1_555
Co1B_2 O5 1_555 1_555
Co2A_2 O3B 1_555 1_555
Co1C O4B 1_555 1_555
Co1_2 O5B 1_555 1_555
O4C Co1B 1_555 1_555
O5_2 Co1B 1_555 1_555
H1B_2 O5B_2 1_555 1_555
H1_2 O5_2 1_555 1_555
Co2 O5 1_555 1_555
O5B Co1B 1_555 1_555
O5B_2 Co1B_2 1_555 1_555
Co1_2 O5_2 1_555 1_555

#END
