
#######################################################################
#
#                 Cambridge Crystallographic Data Centre
#                                CCDC 
#
#######################################################################
#
# If this CIF has been generated from an entry in the Cambridge 
# Structural Database, then it will include bibliographic, chemical, 
# crystal, experimental, refinement or atomic coordinate data resulting 
# from the CCDC's data processing and validation procedures.
#
#######################################################################

data_EWESIJ
_symmetry_cell_setting           orthorhombic
_symmetry_space_group_name_H-M   'C c c a'
_symmetry_Int_Tables_number      68
_space_group_name_Hall           '-C 2b 2bc'
loop_
_symmetry_equiv_pos_site_id
_symmetry_equiv_pos_as_xyz
1 x,y,z
2 1/2-x,-y,z
3 -x,y,1/2-z
4 1/2+x,-y,1/2-z
5 1/2+x,1/2+y,z
6 -x,1/2-y,z
7 1/2-x,1/2+y,1/2-z
8 x,1/2-y,1/2-z
9 -x,-y,-z
10 1/2+x,y,-z
11 x,-y,1/2+z
12 1/2-x,y,1/2+z
13 1/2-x,1/2-y,-z
14 x,1/2+y,-z
15 1/2+x,1/2-y,1/2+z
16 -x,1/2+y,1/2+z
_cell_length_a                   26.860(6)
_cell_length_b                   31.492(7)
_cell_length_c                   13.905(5)
_cell_angle_alpha                90
_cell_angle_beta                 90
_cell_angle_gamma                90
_cell_volume                     11761.9
loop_
_atom_site_label
_atom_site_type_symbol
_atom_site_fract_x
_atom_site_fract_y
_atom_site_fract_z
C1 C 0.1532(5) 0.3555(3) 0.2703(6)
H1 H 0.1377 0.3536 0.3299
C2 C 0.1532(5) 0.3194(3) 0.2122(7)
H2 H 0.1372 0.2947 0.2315
C3 C 0.1780(5) 0.3217(3) 0.1239(7)
C4 C 0.1982(4) 0.3605(3) 0.0981(6)
H3 H 0.2131 0.3636 0.0381
C5 C 0.1967(4) 0.3948(3) 0.1605(6)
H4 H 0.2118 0.4202 0.1423
C6 C 0.1804(5) 0.2843(3) 0.0602(7)
C7 C 0.1834(6) 0.2203(4) -0.0527(7)
C8 C 0.1821(5) 0.1837(3) -0.1205(7)
C9 C 0.1647(4) 0.1447(3) -0.0941(7)
H5 H 0.1525 0.1405 -0.0322
C10 C 0.1650(4) 0.1117(4) -0.1581(7)
H6 H 0.1524 0.0855 -0.1391
C11 C 0.2005(5) 0.1530(3) -0.2733(6)
H7 H 0.2126 0.1560 -0.3356
C12 C 0.2023(6) 0.1885(3) -0.2132(7)
H8 H 0.2161 0.2140 -0.2335
C13 C 0.3952(4) 0.3914(3) 0.4615(7)
H9 H 0.3914 0.3685 0.4199
C14 C 0.4287(4) 0.3875(3) 0.5365(7)
H10 H 0.4467 0.3626 0.5454
C15 C 0.4346(4) 0.4213(3) 0.5974(6)
C16 C 0.4067(4) 0.4586(4) 0.5817(6)
H11 H 0.4098 0.4823 0.6211
C17 C 0.3749(4) 0.4579(3) 0.5058(7)
H12 H 0.3562 0.4823 0.4950
C18 C 0.4692(3) 0.4203(3) 0.6794(7)
Cu1 Cu 0.17220(5) 0.44425(4) 0.34159(8)
Cu2 Cu 0.31435(4) 0.43401(4) 0.34234(8)
I1 I 0.09203(3) 0.43123(3) 0.43711(5)
N1 N 0.1741(3) 0.3926(2) 0.2466(5)
N2 N 0.1637(6) 0.2478(3) 0.0929(7)
N3 N 0.1643(5) 0.2147(3) 0.0353(7)
N4 N 0.2051(6) 0.2566(3) -0.0834(6)
N5 N 0.2033(5) 0.2896(3) -0.0243(6)
N6 N 0.1832(3) 0.1160(2) -0.2484(5)
N7 N 0.3681(3) 0.4260(2) 0.4457(5)
N8 N 0.4844(3) 0.3827(3) 0.7132(6)
N9 N 0.4836(3) 0.4580(3) 0.7125(6)
S1 S 0.24330(9) 0.44219(8) 0.43478(16)
S2 S 0.18188(9) 0.50521(7) 0.25135(17)
W1 W 0.2500 0.5000 0.34262(3)
C1L C 0.3468(5) 0.1445(3) -0.2703(6)
H1L H 0.3623 0.1464 -0.3299
C2L C 0.3468(5) 0.1806(3) -0.2122(7)
H2L H 0.3628 0.2053 -0.2315
C3L C 0.3220(5) 0.1783(3) -0.1239(7)
C4L C 0.3018(4) 0.1395(3) -0.0981(6)
H3L H 0.2869 0.1364 -0.0381
C5L C 0.3033(4) 0.1052(3) -0.1605(6)
H4L H 0.2882 0.0798 -0.1423
C6L C 0.3196(5) 0.2157(3) -0.0602(7)
C7L C 0.3166(6) 0.2797(4) 0.0527(7)
C8L C 0.3179(5) 0.3163(3) 0.1205(7)
C9L C 0.3353(4) 0.3553(3) 0.0941(7)
H5L H 0.3475 0.3595 0.0322
C10L C 0.3350(4) 0.3883(4) 0.1581(7)
H6L H 0.3476 0.4145 0.1391
C11L C 0.2995(5) 0.3470(3) 0.2733(6)
H7L H 0.2874 0.3440 0.3356
C12L C 0.2977(6) 0.3115(3) 0.2132(7)
H8L H 0.2839 0.2860 0.2335
C13B C 0.6048(4) 0.3914(3) 1.0385(7)
H9B H 0.6086 0.3685 1.0801
C14B C 0.5713(4) 0.3875(3) 0.9635(7)
H10B H 0.5533 0.3626 0.9546
C15B C 0.5654(4) 0.4213(3) 0.9026(6)
C16B C 0.5933(4) 0.4586(4) 0.9183(6)
H11B H 0.5902 0.4823 0.8789
C17B C 0.6251(4) 0.4579(3) 0.9942(7)
H12B H 0.6438 0.4823 1.0050
C18B C 0.5308(3) 0.4203(3) 0.8206(7)
Cu1A Cu 0.32780(5) 0.55575(4) 0.34159(8)
Cu1L Cu 0.32780(5) 0.05575(4) -0.34159(8)
Cu2A Cu 0.18565(4) 0.56599(4) 0.34234(8)
Cu2L Cu 0.18565(4) 0.06599(4) -0.34234(8)
Cu2B Cu 0.68565(4) 0.43401(4) 1.15766(8)
I1A I 0.40797(3) 0.56877(3) 0.43711(5)
N1L N 0.3259(3) 0.1074(2) -0.2466(5)
N1A N 0.3259(3) 0.6074(2) 0.2466(5)
N2L N 0.3363(6) 0.2522(3) -0.0929(7)
N3L N 0.3357(5) 0.2853(3) -0.0353(7)
N4L N 0.2949(6) 0.2434(3) 0.0834(6)
N5L N 0.2967(5) 0.2104(3) 0.0243(6)
N6L N 0.3168(3) 0.3840(2) 0.2484(5)
N6M N 0.1832(3) 0.6160(2) 0.2484(5)
N7B N 0.6319(3) 0.4260(2) 1.0543(5)
N7A N 0.1319(3) 0.5740(2) 0.4457(5)
N8B N 0.5156(3) 0.3827(3) 0.7868(6)
N9B N 0.5164(3) 0.4580(3) 0.7875(6)
S1A S 0.25670(9) 0.55781(8) 0.43478(16)
S2A S 0.31812(9) 0.49479(7) 0.25135(17)
loop_
_geom_bond_atom_site_label_1
_geom_bond_atom_site_label_2
_geom_bond_site_symmetry_1
_geom_bond_site_symmetry_2
C1 H1 1_555 1_555
C2 C1 1_555 1_555
H2 C2 1_555 1_555
C3 C2 1_555 1_555
C4 C3 1_555 1_555
H3 C4 1_555 1_555
C5 C4 1_555 1_555
H4 C5 1_555 1_555
C6 C3 1_555 1_555
C7 C8 1_555 1_555
C8 C9 1_555 1_555
C9 H5 1_555 1_555
C10 C9 1_555 1_555
H6 C10 1_555 1_555
C11 H7 1_555 1_555
C12 C8 1_555 1_555
H8 C12 1_555 1_555
C13 H9 1_555 1_555
C14 C13 1_555 1_555
H10 C14 1_555 1_555
C15 C14 1_555 1_555
C16 C15 1_555 1_555
H11 C16 1_555 1_555
C17 C16 1_555 1_555
H12 C17 1_555 1_555
C18 C15 1_555 1_555
Cu1 I1 1_555 1_555
Cu2 N7 1_555 1_555
N1 C1 1_555 1_555
N2 C6 1_555 1_555
N3 C7 1_555 1_555
N4 C7 1_555 1_555
N5 C6 1_555 1_555
N6 C10 1_555 1_555
N7 C13 1_555 1_555
N8 C18 1_555 1_555
N9 C18 1_555 1_555
S1 Cu1 1_555 1_555
S2 Cu1 1_555 1_555
W1 S1 1_555 1_555
C1L H1L 1_555 1_555
C2L C1L 1_555 1_555
H2L C2L 1_555 1_555
C3L C2L 1_555 1_555
C4L C3L 1_555 1_555
H3L C4L 1_555 1_555
C5L C4L 1_555 1_555
H4L C5L 1_555 1_555
C6L C3L 1_555 1_555
C7L C8L 1_555 1_555
C8L C9L 1_555 1_555
C9L H5L 1_555 1_555
C10L C9L 1_555 1_555
H6L C10L 1_555 1_555
C11L H7L 1_555 1_555
C12L C8L 1_555 1_555
H8L C12L 1_555 1_555
C13B H9B 1_555 1_555
C14B C13B 1_555 1_555
H10B C14B 1_555 1_555
C15B C14B 1_555 1_555
C16B C15B 1_555 1_555
H11B C16B 1_555 1_555
C17B C16B 1_555 1_555
H12B C17B 1_555 1_555
C18B C15B 1_555 1_555
Cu1A I1A 1_555 1_555
Cu1L N1L 1_555 1_555
Cu2A S2 1_555 1_555
Cu2L N6 1_555 1_555
Cu2B N7B 1_555 1_555
N1L C1L 1_555 1_555
N1A Cu1A 1_555 1_555
N2L C6L 1_555 1_555
N3L C7L 1_555 1_555
N4L C7L 1_555 1_555
N5L C6L 1_555 1_555
N6L Cu2 1_555 1_555
N6M Cu2A 1_555 1_555
N7B C13B 1_555 1_555
N7A Cu2A 1_555 1_555
N8B N8 1_555 1_555
N9B N9 1_555 1_555
S1A W1 1_555 1_555
S2A Cu2 1_555 1_555
C5 N1 1_555 1_555
C11 C12 1_555 1_555
C11 N6 1_555 1_555
C17 N7 1_555 1_555
Cu1 N1 1_555 1_555
Cu2 S1 1_555 1_555
N2 N3 1_555 1_555
N4 N5 1_555 1_555
S2 W1 1_555 1_555
W1 S2A 1_555 1_555
C5L N1L 1_555 1_555
C10L N6L 1_555 1_555
C11L C12L 1_555 1_555
C11L N6L 1_555 1_555
C17B N7B 1_555 1_555
C18B N8B 1_555 1_555
C18B N9B 1_555 1_555
Cu1A S1A 1_555 1_555
Cu1A S2A 1_555 1_555
Cu2A S1A 1_555 1_555
N2L N3L 1_555 1_555
N4L N5L 1_555 1_555

#END
