
#######################################################################
#
#                 Cambridge Crystallographic Data Centre
#                                CCDC 
#
#######################################################################
#
# If this CIF has been generated from an entry in the Cambridge 
# Structural Database, then it will include bibliographic, chemical, 
# crystal, experimental, refinement or atomic coordinate data resulting 
# from the CCDC's data processing and validation procedures.
#
#######################################################################

data_EWEWUZ
_symmetry_cell_setting           monoclinic
_symmetry_space_group_name_H-M   'C c'
_symmetry_Int_Tables_number      9
_space_group_name_Hall           'C -2yc'
loop_
_symmetry_equiv_pos_site_id
_symmetry_equiv_pos_as_xyz
1 x,y,z
2 x,-y,1/2+z
3 1/2+x,1/2+y,z
4 1/2+x,1/2-y,1/2+z
_cell_length_a                   36.781(3)
_cell_length_b                   8.0506(6)
_cell_length_c                   18.6868(13)
_cell_angle_alpha                90
_cell_angle_beta                 119.938(5)
_cell_angle_gamma                90
_cell_volume                     4795
loop_
_atom_site_label
_atom_site_type_symbol
_atom_site_fract_x
_atom_site_fract_y
_atom_site_fract_z
N1 N 0.8432(4) 0.1397(17) 0.7405(10)
C1 C 0.8197(5) 0.0262(17) 0.6883(11)
C2 C 0.7761(5) 0.0224(18) 0.6559(11)
H1 H 0.7607 -0.0637 0.6181
N2 N 0.7552(5) 0.130(2) 0.6745(12)
C3 C 0.7789(6) 0.251(3) 0.7254(15)
H2 H 0.7657 0.3394 0.7376
C4 C 0.8216(6) 0.252(2) 0.7601(13)
H3 H 0.8371 0.3354 0.8000
C5 C 0.8432(6) -0.102(2) 0.6693(15)
N3 N 1.0509(5) 0.614(2) 0.6122(12)
C6 C 1.0832(6) 0.516(2) 0.6617(13)
C7 C 1.1228(6) 0.532(3) 0.6688(14)
H4 H 1.1445 0.4593 0.7050
N4 N 1.1314(7) 0.646(3) 0.6271(14)
C8 C 1.0983(7) 0.743(3) 0.5775(14)
H5 H 1.1022 0.8259 0.5460
C9 C 1.0599(6) 0.728(2) 0.5700(13)
H6 H 1.0383 0.8016 0.5337
C10 C 1.0745(9) 0.386(4) 0.7092(18)
N5 N 1.13101(19) -0.162(2) 0.8886(6)
C11 C 1.1559(3) -0.126(2) 0.9689(7)
C12 C 1.1754(3) -0.248(3) 1.0284(9)
H7 H 1.1927 -0.2148 1.0843
N6 N 1.1709(6) -0.408(2) 1.0103(13)
C13 C 1.1460(7) -0.444(2) 0.9298(14)
H8 H 1.1417 -0.5572 0.9135
C14 C 1.1266(6) -0.326(2) 0.8708(12)
H9 H 1.1094 -0.3597 0.8150
C15 C 1.1652(8) 0.057(2) 0.9855(15)
N7 N 1.0507(5) 0.111(2) 0.8156(12)
C16 C 1.0187(6) 0.010(2) 0.7708(12)
C17 C 0.9808(6) 0.026(2) 0.7698(12)
H10 H 0.9587 -0.0487 0.7370
N8 N 0.9746(5) 0.142(2) 0.8130(12)
C18 C 1.0074(6) 0.244(2) 0.8581(13)
H11 H 1.0043 0.3285 0.8899
C19 C 1.0447(6) 0.230(2) 0.8601(13)
H12 H 1.0669 0.3050 0.8929
C20 C 1.0257(8) -0.109(3) 0.7161(17)
N9 N 0.97093(19) 0.348(2) 0.5405(6)
C21 C 0.9439(2) 0.3790(19) 0.4609(6)
C22 C 0.9245(3) 0.250(2) 0.4043(8)
H13 H 0.9054 0.2760 0.3481
N10 N 0.9322(5) 0.090(2) 0.4275(12)
C23 C 0.9594(6) 0.059(2) 0.5074(12)
H14 H 0.9656 -0.0527 0.5259
C24 C 0.9782(5) 0.184(2) 0.5622(11)
H15 H 0.9972 0.1573 0.6182
C25 C 0.9386(7) 0.560(2) 0.4384(13)
C26 C 0.9456(14) 0.559(5) 0.731(2)
H16 H 0.9718 0.6048 0.7763
H17 H 0.9349 0.4733 0.7535
H18 H 0.9248 0.6477 0.7062
C27 C 1.1541(10) 0.064(4) 0.7109(16)
H19 H 1.1263 0.1058 0.6702
H20 H 1.1624 -0.0245 0.6860
H21 H 1.1746 0.1548 0.7285
O1 O 0.8129(7) -0.167(2) 0.5967(13)
O2 O 0.8806(5) -0.104(2) 0.7054(12)
O3 O 1.0382(8) 0.396(3) 0.7075(16)
O4 O 1.1069(7) 0.298(3) 0.7620(14)
O5 O 1.1809(7) 0.093(3) 1.0634(14)
O6 O 1.1438(8) 0.149(3) 0.9250(15)
O7 O 1.0603(6) -0.099(2) 0.7230(13)
O8 O 0.9997(6) -0.217(2) 0.6826(13)
O9 O 0.9561(6) 0.661(2) 0.4985(13)
O10 O 0.9128(7) 0.599(3) 0.3675(13)
O11 O 0.9536(7) 0.485(3) 0.6689(15)
H31 H 0.9304 0.4430 0.6331
O20 O 1.1527(7) -0.002(3) 0.7825(13)
Fe1 Fe 1.1066(3) 0.0587(6) 0.8118(7)
Fe2 Fe 0.9942(4) 0.5599(6) 0.6207(7)
Ag1 Ag 0.9157(3) 0.1199(3) 0.8306(7)
Ag2 Ag 1.1848(3) 0.6220(4) 0.6055(7)
N2B N 1.2552(5) 0.630(2) 0.6745(12)
N6A N 1.1709(6) 0.408(2) 0.5103(13)
N10A N 0.9322(5) -0.090(2) 0.9275(12)
O5A O 1.1809(7) 0.907(3) 0.5634(14)
O8_2 O 0.9997(6) 0.783(2) 0.6826(13)
O10A O 0.9128(7) 0.401(3) 0.8675(13)
Fe2_2 Fe 0.9942(4) -0.4401(6) 0.6207(7)
Ag1A Ag 0.9157(3) -0.1199(3) 0.3306(7)
Ag1A_2 Ag 0.9157(3) 0.8801(3) 0.3306(7)
Ag2B Ag 0.6848(3) 0.1220(4) 0.6055(7)
Ag2A Ag 1.1848(3) -0.6220(4) 1.1055(7)
Ag2A_2 Ag 1.1848(3) 0.3780(4) 1.1055(7)
C28 C 0.7475(9) -0.704(5) 0.9105(18)
H22 H 0.7465 -0.5920 0.9294
H23 H 0.7704 -0.7120 0.8983
H24 H 0.7522 -0.7846 0.9538
O21 O 0.7083(6) -0.741(2) 0.8370(13)
H32 H 0.6901 -0.6642 0.8178
C29 C 0.7244(10) -1.160(4) 0.8950(18)
H25 H 0.7273 -1.2755 0.8866
H26 H 0.6997 -1.1434 0.8991
H27 H 0.7486 -1.1233 0.9451
O22 O 0.7204(7) -1.062(2) 0.8256(13)
H33 H 0.7161 -0.9588 0.8290
C30 C 0.3689(14) -0.317(4) 0.565(3)
H28 H 0.3905 -0.3489 0.6192
H29 H 0.3688 -0.3927 0.5251
H30 H 0.3422 -0.3217 0.5625
O23 O 0.3758(9) -0.148(3) 0.5505(19)
H34 H 0.3584 -0.1291 0.4999
O12 O 0.5468(6) -0.2076(19) 0.3738(11)
O13 O 0.5312(6) -0.390(2) 0.4542(12)
O14 O 0.5273(5) -0.1105(18) 0.4698(11)
O15 O 0.5912(6) -0.233(2) 0.5142(12)
Cl1 Cl 0.5523(5) -0.251(2) 0.4661(12)
O16 O 0.3227(6) -0.183(2) 0.2618(13)
O17 O 0.2602(7) -0.177(3) 0.2666(16)
O18 O 0.3140(9) -0.087(4) 0.3720(18)
O19 O 0.3141(10) -0.377(4) 0.3498(19)
Cl2 Cl 0.3000(4) -0.2057(8) 0.3107(8)
loop_
_geom_bond_atom_site_label_1
_geom_bond_atom_site_label_2
_geom_bond_site_symmetry_1
_geom_bond_site_symmetry_2
N1 C1 1_555 1_555
C1 C2 1_555 1_555
C2 H1 1_555 1_555
N2 C2 1_555 1_555
C3 N2 1_555 1_555
H2 C3 1_555 1_555
C4 N1 1_555 1_555
H3 C4 1_555 1_555
C5 C1 1_555 1_555
N3 C6 1_555 1_555
C6 C7 1_555 1_555
C7 H4 1_555 1_555
N4 C7 1_555 1_555
C8 N4 1_555 1_555
H5 C8 1_555 1_555
C9 N3 1_555 1_555
H6 C9 1_555 1_555
C10 C6 1_555 1_555
N5 C11 1_555 1_555
C11 C12 1_555 1_555
C12 H7 1_555 1_555
N6 C12 1_555 1_555
C13 N6 1_555 1_555
H8 C13 1_555 1_555
C14 N5 1_555 1_555
H9 C14 1_555 1_555
C15 C11 1_555 1_555
N7 C16 1_555 1_555
C16 C17 1_555 1_555
C17 H10 1_555 1_555
N8 C17 1_555 1_555
C18 N8 1_555 1_555
H11 C18 1_555 1_555
C19 N7 1_555 1_555
H12 C19 1_555 1_555
C20 C16 1_555 1_555
N9 C21 1_555 1_555
C21 C22 1_555 1_555
C22 H13 1_555 1_555
N10 C22 1_555 1_555
C23 N10 1_555 1_555
H14 C23 1_555 1_555
C24 N9 1_555 1_555
H15 C24 1_555 1_555
C25 C21 1_555 1_555
C26 H16 1_555 1_555
H17 C26 1_555 1_555
H18 C26 1_555 1_555
C27 H19 1_555 1_555
H20 C27 1_555 1_555
H21 C27 1_555 1_555
C28 H22 1_555 1_555
H23 C28 1_555 1_555
H24 C28 1_555 1_555
C29 H25 1_555 1_555
H26 C29 1_555 1_555
H27 C29 1_555 1_555
C30 H28 1_555 1_555
H29 C30 1_555 1_555
H30 C30 1_555 1_555
O1 C5 1_555 1_555
O2 C5 1_555 1_555
O3 C10 1_555 1_555
O4 C10 1_555 1_555
O5 C15 1_555 1_555
O6 C15 1_555 1_555
O7 C20 1_555 1_555
O8 C20 1_555 1_555
O9 C25 1_555 1_555
O10 C25 1_555 1_555
O11 C26 1_555 1_555
H31 O11 1_555 1_555
O12 Cl1 1_555 1_555
O13 Cl1 1_555 1_555
O14 Cl1 1_555 1_555
O15 Cl1 1_555 1_555
O16 Cl2 1_555 1_555
O17 Cl2 1_555 1_555
O18 Cl2 1_555 1_555
O19 Cl2 1_555 1_555
O20 C27 1_555 1_555
O21 C28 1_555 1_555
H32 O21 1_555 1_555
O22 C29 1_555 1_555
H33 O22 1_555 1_555
O23 C30 1_555 1_555
H34 O23 1_555 1_555
Fe1 N5 1_555 1_555
Fe2 N3 1_555 1_555
Ag1 N1 1_555 1_555
Ag2 N4 1_555 1_555
N2B Ag2 1_555 1_555
N6A Ag2 1_555 1_555
N10A Ag1 1_555 1_555
O5A Ag2 1_555 1_555
O8_2 Fe2 1_555 1_555
O10A Ag1 1_555 1_555
Fe2_2 O8 1_555 1_555
Ag1A N10 1_555 1_555
Ag1A_2 O10 1_555 1_555
Ag2B N2 1_555 1_555
Ag2A N6 1_555 1_555
Ag2A_2 O5 1_555 1_555
C3 C4 1_555 1_555
C8 C9 1_555 1_555
C13 C14 1_555 1_555
N7 Fe1 1_555 1_555
N8 Ag1 1_555 1_555
C18 C19 1_555 1_555
N9 Fe2 1_555 1_555
C23 C24 1_555 1_555
O3 Fe2 1_555 1_555
O4 Fe1 1_555 1_555
O6 Fe1 1_555 1_555
O7 Fe1 1_555 1_555
O9 Fe2 1_555 1_555
O11 Fe2 1_555 1_555
O20 Fe1 1_555 1_555

#END
