
#######################################################################
#
#                 Cambridge Crystallographic Data Centre
#                                CCDC 
#
#######################################################################
#
# If this CIF has been generated from an entry in the Cambridge 
# Structural Database, then it will include bibliographic, chemical, 
# crystal, experimental, refinement or atomic coordinate data resulting 
# from the CCDC's data processing and validation procedures.
#
#######################################################################

data_EWEXAG
_symmetry_cell_setting           orthorhombic
_symmetry_space_group_name_H-M   'I b a m'
_symmetry_Int_Tables_number      72
_space_group_name_Hall           '-I 2 2c'
loop_
_symmetry_equiv_pos_site_id
_symmetry_equiv_pos_as_xyz
1 x,y,z
2 -x,-y,z
3 1/2-x,1/2+y,-z
4 1/2+x,1/2-y,-z
5 1/2+x,1/2+y,1/2+z
6 1/2-x,1/2-y,1/2+z
7 -x,y,1/2-z
8 x,-y,1/2-z
9 -x,-y,-z
10 x,y,-z
11 1/2+x,1/2-y,z
12 1/2-x,1/2+y,z
13 1/2-x,1/2-y,1/2-z
14 1/2+x,1/2+y,1/2-z
15 x,-y,1/2+z
16 -x,y,1/2+z
_cell_length_a                   20.3908(16)
_cell_length_b                   13.4702(11)
_cell_length_c                   17.9107(15)
_cell_angle_alpha                90
_cell_angle_beta                 90
_cell_angle_gamma                90
_cell_volume                     4919.5
loop_
_atom_site_label
_atom_site_type_symbol
_atom_site_fract_x
_atom_site_fract_y
_atom_site_fract_z
Mn1 Mn 0.0000 0.0000 0.40517(4)
Mn2 Mn 0.0000 -0.17759(6) 0.2500
N1 N 0.05479(14) -0.0807(2) 0.32620(18)
N2 N 0.11417(16) -0.0742(3) 0.3262(2)
N3 N 0.17017(17) -0.0691(3) 0.3264(3)
N4 N -0.0507(2) 0.0643(4) 0.5000
N5 N -0.0829(3) 0.1387(4) 0.5000
N6 N -0.1148(4) 0.2092(5) 0.5000
N7 N -0.08142(15) -0.2900(2) 0.23075(19)
N8 N -0.07127(15) -0.1598(2) 0.34475(18)
O1 O -0.06532(13) -0.1014(2) 0.40618(15)
C1 C -0.0879(2) -0.3508(3) 0.1712(3)
C2 C -0.1461(2) -0.4024(3) 0.1584(3)
H1 H -0.1501 -0.4440 0.1158
C3 C -0.1977(2) -0.3929(3) 0.2075(3)
H2 H -0.2374 -0.4281 0.1992
C4 C -0.1909(2) -0.3315(3) 0.2693(3)
H3 H -0.2255 -0.3247 0.3045
C5 C -0.13236(18) -0.2803(3) 0.2784(2)
C6 C -0.12409(19) -0.2123(3) 0.3412(2)
H4 H -0.1569 -0.2069 0.3787
C7 C -0.0305(2) -0.3599(4) 0.1202(3)
H5 H -0.0192 -0.2943 0.1003
H6 H -0.0415 -0.4046 0.0789
H7 H 0.0070 -0.3867 0.1478
Mn1H Mn 0.0000 0.0000 0.59483(4)
Mn2A Mn 0.0000 0.17759(6) 0.2500
N1A N -0.05479(14) 0.0807(2) 0.32620(18)
N1F N -0.05479(14) -0.0807(2) 0.17380(18)
N2A N -0.11417(16) 0.0742(3) 0.3262(2)
N3A N -0.17017(17) 0.0691(3) 0.3264(3)
N4A N 0.0507(2) -0.0643(4) 0.5000
N7A N 0.08142(15) 0.2900(2) 0.23075(19)
N7F N 0.08142(15) -0.2900(2) 0.26925(19)
N8A N 0.07127(15) 0.1598(2) 0.34475(18)
N8F N 0.07127(15) -0.1598(2) 0.15525(18)
O1A O 0.06532(13) 0.1014(2) 0.40618(15)
C1A C 0.0879(2) 0.3508(3) 0.1712(3)
C2A C 0.1461(2) 0.4024(3) 0.1584(3)
H1A H 0.1501 0.4440 0.1158
C3A C 0.1977(2) 0.3929(3) 0.2075(3)
H2A H 0.2374 0.4281 0.1992
C4A C 0.1909(2) 0.3315(3) 0.2693(3)
H3A H 0.2255 0.3247 0.3045
C5A C 0.13236(18) 0.2803(3) 0.2784(2)
C6A C 0.12409(19) 0.2123(3) 0.3412(2)
H4A H 0.1569 0.2069 0.3787
C7A C 0.0305(2) 0.3599(4) 0.1202(3)
H5A H 0.0192 0.2943 0.1003
H6A H 0.0415 0.4046 0.0789
H7A H -0.0070 0.3867 0.1478
O2 O 0.1961(4) 0.5188(7) 1.0000
C8 C 0.1154(6) 0.6268(12) 1.0000
C9 C 0.1852(6) 0.6189(7) 1.0000
H11 H 0.2042 0.6504 1.0450
C10 C 0.2653(5) 0.4944(16) 1.0000
H12 H 0.2870 0.5219 0.9551
C11 C 0.2693(8) 0.3751(11) 1.0000
H11I H 0.2042 0.6504 0.9550
H12I H 0.2870 0.5219 1.0449
H8? H 0.0970 0.5810 0.9629
H9? H 0.1027 0.6950 0.9875
H10? H 0.0985 0.6098 1.0496
H13? H 0.2399 0.3486 0.9616
H14? H 0.2560 0.3498 1.0490
H15? H 0.3144 0.3543 0.9894
loop_
_geom_bond_atom_site_label_1
_geom_bond_atom_site_label_2
_geom_bond_site_symmetry_1
_geom_bond_site_symmetry_2
Mn1 N1 1_555 1_555
Mn2 N1 1_555 1_555
N1 N2 1_555 1_555
N2 N3 1_555 1_555
N4 Mn1 1_555 1_555
N5 N4 1_555 1_555
N6 N5 1_555 1_555
N7 Mn2 1_555 1_555
N8 Mn2 1_555 1_555
O1 Mn1 1_555 1_555
O2 C9 1_555 1_555
C1 N7 1_555 1_555
C2 C1 1_555 1_555
H1 C2 1_555 1_555
C3 C2 1_555 1_555
H2 C3 1_555 1_555
C4 C3 1_555 1_555
H3 C4 1_555 1_555
C5 N7 1_555 1_555
C6 N8 1_555 1_555
H4 C6 1_555 1_555
C7 C1 1_555 1_555
H5 C7 1_555 1_555
H6 C7 1_555 1_555
H7 C7 1_555 1_555
C8 C9 1_555 1_555
C9 H11 1_555 1_555
C10 O2 1_555 1_555
H12 C10 1_555 1_555
C11 C10 1_555 1_555
Mn1H N4 1_555 1_555
Mn2A N1A 1_555 1_555
N1A Mn1 1_555 1_555
N1F Mn2 1_555 1_555
N2A N1A 1_555 1_555
N3A N2A 1_555 1_555
N4A Mn1 1_555 1_555
N7A Mn2A 1_555 1_555
N7F Mn2 1_555 1_555
N8A Mn2A 1_555 1_555
N8F Mn2 1_555 1_555
O1A Mn1 1_555 1_555
C1A N7A 1_555 1_555
C2A C1A 1_555 1_555
H1A C2A 1_555 1_555
C3A C2A 1_555 1_555
H2A C3A 1_555 1_555
C4A C3A 1_555 1_555
H3A C4A 1_555 1_555
C5A N7A 1_555 1_555
C6A N8A 1_555 1_555
H4A C6A 1_555 1_555
C7A C1A 1_555 1_555
H5A C7A 1_555 1_555
H6A C7A 1_555 1_555
H7A C7A 1_555 1_555
H11I C9 1_555 1_555
H12I C10 1_555 1_555
N8 O1 1_555 1_555
C4 C5 1_555 1_555
C5 C6 1_555 1_555
Mn1H N4A 1_555 1_555
N8A O1A 1_555 1_555
C4A C5A 1_555 1_555
C5A C6A 1_555 1_555

#END
