
#######################################################################
#
#                 Cambridge Crystallographic Data Centre
#                                CCDC 
#
#######################################################################
#
# If this CIF has been generated from an entry in the Cambridge 
# Structural Database, then it will include bibliographic, chemical, 
# crystal, experimental, refinement or atomic coordinate data resulting 
# from the CCDC's data processing and validation procedures.
#
#######################################################################

data_EWEYIP
_symmetry_cell_setting           monoclinic
_symmetry_space_group_name_H-M   'P 21/c'
_symmetry_Int_Tables_number      14
_space_group_name_Hall           '-P 2ybc'
loop_
_symmetry_equiv_pos_site_id
_symmetry_equiv_pos_as_xyz
1 x,y,z
2 -x,1/2+y,1/2-z
3 -x,-y,-z
4 x,1/2-y,1/2+z
_cell_length_a                   17.6731(15)
_cell_length_b                   22.610(2)
_cell_length_c                   11.5115(9)
_cell_angle_alpha                90
_cell_angle_beta                 107.230(6)
_cell_angle_gamma                90
_cell_volume                     4393.44
loop_
_atom_site_label
_atom_site_type_symbol
_atom_site_fract_x
_atom_site_fract_y
_atom_site_fract_z
Mn1 Mn 0.27208(3) 0.19878(2) -0.03264(4)
N1 N 0.37348(14) 0.24160(11) -0.0189(2)
N2 N 0.33137(14) 0.12431(11) 0.0330(2)
N3 N 0.17060(14) 0.15538(11) -0.0535(2)
N4 N 0.21173(15) 0.27193(10) -0.1071(2)
N5 N 0.26123(15) 0.17403(11) -0.2382(2)
N6 N 0.27651(15) 0.26485(11) -0.3495(2)
N7 N 0.0161(2) 0.02823(15) -0.7433(3)
N8 N 0.1127(2) -0.10007(15) -0.4634(3)
C1 C 0.38295(19) 0.30256(14) -0.0209(3)
C2 C 0.4654(2) 0.31615(15) 0.0246(3)
H1 H 0.4882 0.3546 0.0365
C3 C 0.5050(2) 0.26470(15) 0.0476(3)
H2 H 0.5610 0.2601 0.0749
C4 C 0.44772(18) 0.21810(15) 0.0234(3)
C5 C 0.46598(19) 0.15816(15) 0.0466(3)
C6 C 0.41050(18) 0.11468(14) 0.0491(3)
C7 C 0.4280(2) 0.05391(14) 0.0756(3)
H3 H 0.4782 0.0355 0.0883
C8 C 0.36070(19) 0.02702(14) 0.0794(3)
H4 H 0.3548 -0.0136 0.0959
C9 C 0.29958(18) 0.07114(13) 0.0542(2)
C10 C 0.22036(18) 0.06024(14) 0.0427(2)
C11 C 0.15998(18) 0.10090(13) -0.0058(2)
C12 C 0.07746(19) 0.08939(14) -0.0290(3)
H5 H 0.0543 0.0559 -0.0032
C13 C 0.03851(19) 0.13574(14) -0.0952(3)
H6 H -0.0173 0.1401 -0.1261
C14 C 0.09604(17) 0.17671(14) -0.1100(2)
C15 C 0.07720(18) 0.23047(14) -0.1724(2)
C16 C 0.13294(18) 0.27405(13) -0.1731(2)
C17 C 0.11579(19) 0.33114(14) -0.2300(3)
H7 H 0.0665 0.3437 -0.2837
C18 C 0.18226(19) 0.36323(14) -0.1932(3)
H8 H 0.1880 0.4033 -0.2138
C19 C 0.24324(18) 0.32668(13) -0.1174(2)
C20 C 0.32176(18) 0.34266(14) -0.0672(2)
C21 C 0.5510(2) 0.14061(15) 0.0767(4)
C22 C 0.5895(2) 0.14076(17) -0.0119(4)
H9 H 0.5612 0.1514 -0.0929
C23 C 0.6685(3) 0.12564(19) 0.0160(5)
H10 H 0.6941 0.1254 -0.0459
C24 C 0.7099(3) 0.11099(19) 0.1325(6)
H11 H 0.7641 0.1001 0.1519
C25 C 0.6727(3) 0.1121(3) 0.2210(6)
H12 H 0.7017 0.1033 0.3028
C26 C 0.5934(2) 0.1261(2) 0.1923(5)
H13 H 0.5679 0.1255 0.2543
C27 C 0.19864(18) -0.00054(14) 0.0752(3)
C28 C 0.22842(19) -0.02190(14) 0.1938(3)
H14 H 0.2604 0.0029 0.2557
C29 C 0.21153(19) -0.07903(15) 0.2215(3)
H15 H 0.2321 -0.0934 0.3023
C30 C 0.16506(19) -0.11512(15) 0.1324(3)
H16 H 0.1544 -0.1546 0.1514
C31 C 0.1340(2) -0.09404(15) 0.0156(3)
H17 H 0.1015 -0.1188 -0.0458
C32 C 0.14998(19) -0.03698(15) -0.0122(3)
H18 H 0.1273 -0.0225 -0.0924
C33 C -0.00750(18) 0.24244(13) -0.2365(3)
C34 C -0.0453(2) 0.2168(2) -0.3459(4)
H19 H -0.0165 0.1915 -0.3833
C35 C -0.1248(3) 0.2270(2) -0.4032(4)
H20 H -0.1496 0.2087 -0.4794
C36 C -0.1676(2) 0.26227(15) -0.3528(3)
H21 H -0.2219 0.2698 -0.3935
C37 C -0.1320(2) 0.28705(19) -0.2429(4)
H22 H -0.1616 0.3114 -0.2051
C38 C -0.0525(2) 0.27693(19) -0.1861(3)
H23 H -0.0284 0.2947 -0.1092
C39 C 0.34267(19) 0.40686(13) -0.0636(3)
C40 C 0.3103(2) 0.44526(15) 0.0027(3)
H24 H 0.2732 0.4307 0.0410
C41 C 0.3314(3) 0.50479(16) 0.0141(3)
H25 H 0.3089 0.5306 0.0601
C42 C 0.3848(2) 0.52613(16) -0.0415(3)
H26 H 0.4002 0.5665 -0.0326
C43 C 0.4162(2) 0.48860(15) -0.1105(3)
H27 H 0.4524 0.5035 -0.1500
C44 C 0.39479(18) 0.42949(14) -0.1221(3)
H28 H 0.4160 0.4041 -0.1705
C45 C 0.26856(18) 0.22192(14) -0.2991(2)
C46 C 0.20395(18) 0.13389(13) -0.3032(2)
C47 C 0.14359(18) 0.14932(14) -0.4081(3)
H29 H 0.1382 0.1893 -0.4347
C48 C 0.0920(2) 0.10741(15) -0.4730(3)
H30 H 0.0519 0.1185 -0.5448
C49 C 0.0980(2) 0.04847(15) -0.4342(3)
C50 C 0.1553(2) 0.03311(15) -0.3275(3)
H31 H 0.1588 -0.0065 -0.2990
C51 C 0.20747(19) 0.07519(14) -0.2623(3)
H32 H 0.2462 0.0643 -0.1888
C52 C 0.0262(2) 0.01483(15) -0.6448(3)
C53 C 0.0423(2) 0.00151(16) -0.5131(3)
C54 C 0.0795(2) -0.05746(16) -0.4905(3)
Mn1B Mn -0.27208(3) -0.19878(2) -0.96736(4)
Mn1C Mn 0.27208(3) 0.30122(2) -0.53264(4)
Mn1A Mn -0.27208(3) -0.30122(2) -0.46736(4)
N1B N -0.37348(14) -0.24160(11) -0.9811(2)
N2B N -0.33137(14) -0.12431(11) -1.0330(2)
N3B N -0.17060(14) -0.15538(11) -0.9465(2)
N4B N -0.21173(15) -0.27193(10) -0.8929(2)
N5B N -0.26123(15) -0.17403(11) -0.7618(2)
N6B N -0.27651(15) -0.26485(11) -0.6505(2)
N6C N 0.27651(15) 0.23515(11) 0.1505(2)
N6A N -0.27651(15) -0.23515(11) -1.1505(2)
N7B N -0.0161(2) -0.02823(15) -0.2567(3)
N8B N -0.1127(2) 0.10007(15) -0.5366(3)
C1B C -0.38295(19) -0.30256(14) -0.9791(3)
C2B C -0.4654(2) -0.31615(15) -1.0246(3)
H1B H -0.4882 -0.3546 -1.0365
C3B C -0.5050(2) -0.26470(15) -1.0476(3)
H2B H -0.5610 -0.2601 -1.0749
C4B C -0.44772(18) -0.21810(15) -1.0234(3)
C5B C -0.46598(19) -0.15816(15) -1.0466(3)
C6B C -0.41050(18) -0.11468(14) -1.0491(3)
C7B C -0.4280(2) -0.05391(14) -1.0756(3)
H3B H -0.4782 -0.0355 -1.0883
C8B C -0.36070(19) -0.02702(14) -1.0794(3)
H4B H -0.3548 0.0136 -1.0959
C9B C -0.29958(18) -0.07114(13) -1.0542(2)
C10B C -0.22036(18) -0.06024(14) -1.0427(2)
C11B C -0.15998(18) -0.10090(13) -0.9942(2)
C12B C -0.07746(19) -0.08939(14) -0.9710(3)
H5B H -0.0543 -0.0559 -0.9968
C13B C -0.03851(19) -0.13574(14) -0.9048(3)
H6B H 0.0173 -0.1401 -0.8739
C14B C -0.09604(17) -0.17671(14) -0.8900(2)
C15B C -0.07720(18) -0.23047(14) -0.8276(2)
C16B C -0.13294(18) -0.27405(13) -0.8269(2)
C17B C -0.11579(19) -0.33114(14) -0.7700(3)
H7B H -0.0665 -0.3437 -0.7163
C18B C -0.18226(19) -0.36323(14) -0.8068(3)
H8B H -0.1880 -0.4033 -0.7862
C19B C -0.24324(18) -0.32668(13) -0.8826(2)
C20B C -0.32176(18) -0.34266(14) -0.9328(2)
C21B C -0.5510(2) -0.14061(15) -1.0767(4)
C22B C -0.5895(2) -0.14076(17) -0.9881(4)
H9B H -0.5612 -0.1514 -0.9071
C23B C -0.6685(3) -0.12564(19) -1.0160(5)
H10B H -0.6941 -0.1254 -0.9541
C24B C -0.7099(3) -0.11099(19) -1.1325(6)
H11B H -0.7641 -0.1001 -1.1519
C25B C -0.6727(3) -0.1121(3) -1.2210(6)
H12B H -0.7017 -0.1033 -1.3028
C26B C -0.5934(2) -0.1261(2) -1.1923(5)
H13B H -0.5679 -0.1255 -1.2543
C27B C -0.19864(18) 0.00054(14) -1.0752(3)
C28B C -0.22842(19) 0.02190(14) -1.1938(3)
H14B H -0.2604 -0.0029 -1.2557
C29B C -0.21153(19) 0.07903(15) -1.2215(3)
H15B H -0.2321 0.0934 -1.3023
C30B C -0.16506(19) 0.11512(15) -1.1324(3)
H16B H -0.1544 0.1546 -1.1514
C31B C -0.1340(2) 0.09404(15) -1.0156(3)
H17B H -0.1015 0.1188 -0.9542
C32B C -0.14998(19) 0.03698(15) -0.9878(3)
H18B H -0.1273 0.0225 -0.9076
C33B C 0.00750(18) -0.24244(13) -0.7635(3)
C34B C 0.0453(2) -0.2168(2) -0.6541(4)
H19B H 0.0165 -0.1915 -0.6167
C35B C 0.1248(3) -0.2270(2) -0.5968(4)
H20B H 0.1496 -0.2087 -0.5206
C36B C 0.1676(2) -0.26227(15) -0.6472(3)
H21B H 0.2219 -0.2698 -0.6065
C37B C 0.1320(2) -0.28705(19) -0.7571(4)
H22B H 0.1616 -0.3114 -0.7949
C38B C 0.0525(2) -0.27693(19) -0.8139(3)
H23B H 0.0284 -0.2947 -0.8908
C39B C -0.34267(19) -0.40686(13) -0.9364(3)
C40B C -0.3103(2) -0.44526(15) -1.0027(3)
H24B H -0.2732 -0.4307 -1.0410
C41B C -0.3314(3) -0.50479(16) -1.0141(3)
H25B H -0.3089 -0.5306 -1.0601
C42B C -0.3848(2) -0.52613(16) -0.9585(3)
H26B H -0.4002 -0.5665 -0.9674
C43B C -0.4162(2) -0.48860(15) -0.8895(3)
H27B H -0.4524 -0.5035 -0.8500
C44B C -0.39479(18) -0.42949(14) -0.8779(3)
H28B H -0.4160 -0.4041 -0.8295
C45B C -0.26856(18) -0.22192(14) -0.7009(2)
C46B C -0.20395(18) -0.13389(13) -0.6968(2)
C47B C -0.14359(18) -0.14932(14) -0.5919(3)
H29B H -0.1382 -0.1893 -0.5653
C48B C -0.0920(2) -0.10741(15) -0.5270(3)
H30B H -0.0519 -0.1185 -0.4552
C49B C -0.0980(2) -0.04847(15) -0.5658(3)
C50B C -0.1553(2) -0.03311(15) -0.6725(3)
H31B H -0.1588 0.0065 -0.7010
C51B C -0.20747(19) -0.07519(14) -0.7377(3)
H32B H -0.2462 -0.0643 -0.8112
C52B C -0.0262(2) -0.01483(15) -0.3552(3)
C53B C -0.0423(2) -0.00151(16) -0.4869(3)
C54B C -0.0795(2) 0.05746(16) -0.5095(3)
loop_
_geom_bond_atom_site_label_1
_geom_bond_atom_site_label_2
_geom_bond_site_symmetry_1
_geom_bond_site_symmetry_2
Mn1 N1 1_555 1_555
N1 C1 1_555 1_555
N2 Mn1 1_555 1_555
N3 Mn1 1_555 1_555
N4 Mn1 1_555 1_555
N5 Mn1 1_555 1_555
N6 C45 1_555 1_555
N7 C52 1_555 1_555
N8 C54 1_555 1_555
C1 C2 1_555 1_555
C2 H1 1_555 1_555
C3 C2 1_555 1_555
H2 C3 1_555 1_555
C4 N1 1_555 1_555
C5 C4 1_555 1_555
C6 N2 1_555 1_555
C7 C6 1_555 1_555
H3 C7 1_555 1_555
C8 C7 1_555 1_555
H4 C8 1_555 1_555
C9 N2 1_555 1_555
C10 C9 1_555 1_555
C11 N3 1_555 1_555
C12 C11 1_555 1_555
H5 C12 1_555 1_555
C13 C12 1_555 1_555
H6 C13 1_555 1_555
C14 N3 1_555 1_555
C15 C14 1_555 1_555
C16 N4 1_555 1_555
C17 C16 1_555 1_555
H7 C17 1_555 1_555
C18 C17 1_555 1_555
H8 C18 1_555 1_555
C19 N4 1_555 1_555
C20 C1 1_555 1_555
C21 C5 1_555 1_555
C22 C21 1_555 1_555
H9 C22 1_555 1_555
C23 C22 1_555 1_555
H10 C23 1_555 1_555
C24 C23 1_555 1_555
H11 C24 1_555 1_555
C25 C24 1_555 1_555
H12 C25 1_555 1_555
C26 C21 1_555 1_555
H13 C26 1_555 1_555
C27 C10 1_555 1_555
C28 C27 1_555 1_555
H14 C28 1_555 1_555
C29 C28 1_555 1_555
H15 C29 1_555 1_555
C30 C29 1_555 1_555
H16 C30 1_555 1_555
C31 C30 1_555 1_555
H17 C31 1_555 1_555
C32 C27 1_555 1_555
H18 C32 1_555 1_555
C33 C15 1_555 1_555
C34 C33 1_555 1_555
H19 C34 1_555 1_555
C35 C34 1_555 1_555
H20 C35 1_555 1_555
C36 C35 1_555 1_555
H21 C36 1_555 1_555
C37 C36 1_555 1_555
H22 C37 1_555 1_555
C38 C33 1_555 1_555
H23 C38 1_555 1_555
C39 C20 1_555 1_555
C40 C39 1_555 1_555
H24 C40 1_555 1_555
C41 C40 1_555 1_555
H25 C41 1_555 1_555
C42 C41 1_555 1_555
H26 C42 1_555 1_555
C43 C42 1_555 1_555
H27 C43 1_555 1_555
C44 C39 1_555 1_555
H28 C44 1_555 1_555
C45 N5 1_555 1_555
C46 N5 1_555 1_555
C47 C46 1_555 1_555
H29 C47 1_555 1_555
C48 C47 1_555 1_555
H30 C48 1_555 1_555
C49 C48 1_555 1_555
C50 C49 1_555 1_555
H31 C50 1_555 1_555
C51 C46 1_555 1_555
H32 C51 1_555 1_555
C52 C53 1_555 1_555
C53 C49 1_555 1_555
C54 C53 1_555 1_555
Mn1B N1B 1_555 1_555
Mn1C N6 1_555 1_555
Mn1A N6B 1_555 1_555
N1B C1B 1_555 1_555
N2B Mn1B 1_555 1_555
N3B Mn1B 1_555 1_555
N4B Mn1B 1_555 1_555
N5B Mn1B 1_555 1_555
N6B C45B 1_555 1_555
N6C Mn1 1_555 1_555
N6A Mn1B 1_555 1_555
N7B C52B 1_555 1_555
N8B C54B 1_555 1_555
C1B C2B 1_555 1_555
C2B H1B 1_555 1_555
C3B C2B 1_555 1_555
H2B C3B 1_555 1_555
C4B N1B 1_555 1_555
C5B C4B 1_555 1_555
C6B N2B 1_555 1_555
C7B C6B 1_555 1_555
H3B C7B 1_555 1_555
C8B C7B 1_555 1_555
H4B C8B 1_555 1_555
C9B N2B 1_555 1_555
C10B C9B 1_555 1_555
C11B N3B 1_555 1_555
C12B C11B 1_555 1_555
H5B C12B 1_555 1_555
C13B C12B 1_555 1_555
H6B C13B 1_555 1_555
C14B N3B 1_555 1_555
C15B C14B 1_555 1_555
C16B N4B 1_555 1_555
C17B C16B 1_555 1_555
H7B C17B 1_555 1_555
C18B C17B 1_555 1_555
H8B C18B 1_555 1_555
C19B N4B 1_555 1_555
C20B C1B 1_555 1_555
C21B C5B 1_555 1_555
C22B C21B 1_555 1_555
H9B C22B 1_555 1_555
C23B C22B 1_555 1_555
H10B C23B 1_555 1_555
C24B C23B 1_555 1_555
H11B C24B 1_555 1_555
C25B C24B 1_555 1_555
H12B C25B 1_555 1_555
C26B C21B 1_555 1_555
H13B C26B 1_555 1_555
C27B C10B 1_555 1_555
C28B C27B 1_555 1_555
H14B C28B 1_555 1_555
C29B C28B 1_555 1_555
H15B C29B 1_555 1_555
C30B C29B 1_555 1_555
H16B C30B 1_555 1_555
C31B C30B 1_555 1_555
H17B C31B 1_555 1_555
C32B C27B 1_555 1_555
H18B C32B 1_555 1_555
C33B C15B 1_555 1_555
C34B C33B 1_555 1_555
H19B C34B 1_555 1_555
C35B C34B 1_555 1_555
H20B C35B 1_555 1_555
C36B C35B 1_555 1_555
H21B C36B 1_555 1_555
C37B C36B 1_555 1_555
H22B C37B 1_555 1_555
C38B C33B 1_555 1_555
H23B C38B 1_555 1_555
C39B C20B 1_555 1_555
C40B C39B 1_555 1_555
H24B C40B 1_555 1_555
C41B C40B 1_555 1_555
H25B C41B 1_555 1_555
C42B C41B 1_555 1_555
H26B C42B 1_555 1_555
C43B C42B 1_555 1_555
H27B C43B 1_555 1_555
C44B C39B 1_555 1_555
H28B C44B 1_555 1_555
C45B N5B 1_555 1_555
C46B N5B 1_555 1_555
C47B C46B 1_555 1_555
H29B C47B 1_555 1_555
C48B C47B 1_555 1_555
H30B C48B 1_555 1_555
C49B C48B 1_555 1_555
C50B C49B 1_555 1_555
H31B C50B 1_555 1_555
C51B C46B 1_555 1_555
H32B C51B 1_555 1_555
C52B C53B 1_555 1_555
C53B C53 1_555 1_555
C54B C53B 1_555 1_555
C3 C4 1_555 1_555
C5 C6 1_555 1_555
C8 C9 1_555 1_555
C10 C11 1_555 1_555
C13 C14 1_555 1_555
C15 C16 1_555 1_555
C18 C19 1_555 1_555
C19 C20 1_555 1_555
C25 C26 1_555 1_555
C31 C32 1_555 1_555
C37 C38 1_555 1_555
C43 C44 1_555 1_555
C50 C51 1_555 1_555
C3B C4B 1_555 1_555
C5B C6B 1_555 1_555
C8B C9B 1_555 1_555
C10B C11B 1_555 1_555
C13B C14B 1_555 1_555
C15B C16B 1_555 1_555
C18B C19B 1_555 1_555
C19B C20B 1_555 1_555
C25B C26B 1_555 1_555
C31B C32B 1_555 1_555
C37B C38B 1_555 1_555
C43B C44B 1_555 1_555
C49B C53B 1_555 1_555
C50B C51B 1_555 1_555

#END
