
#######################################################################
#
#                 Cambridge Crystallographic Data Centre
#                                CCDC 
#
#######################################################################
#
# If this CIF has been generated from an entry in the Cambridge 
# Structural Database, then it will include bibliographic, chemical, 
# crystal, experimental, refinement or atomic coordinate data resulting 
# from the CCDC's data processing and validation procedures.
#
#######################################################################

data_EWIHIC
_symmetry_cell_setting           monoclinic
_symmetry_space_group_name_H-M   'P 21/n'
_symmetry_Int_Tables_number      14
_space_group_name_Hall           '-P 2yn'
loop_
_symmetry_equiv_pos_site_id
_symmetry_equiv_pos_as_xyz
1 x,y,z
2 1/2-x,1/2+y,1/2-z
3 -x,-y,-z
4 1/2+x,1/2-y,1/2+z
_cell_length_a                   12.909(2)
_cell_length_b                   12.0710(19)
_cell_length_c                   12.950(2)
_cell_angle_alpha                90
_cell_angle_beta                 115.858(2)
_cell_angle_gamma                90
_cell_volume                     1815.89
loop_
_atom_site_label
_atom_site_type_symbol
_atom_site_fract_x
_atom_site_fract_y
_atom_site_fract_z
Cd1 Cd -0.81810(2) 0.24022(2) -0.39347(2)
C1 C -0.3993(3) 0.0583(3) -0.0558(3)
O1 O -0.9596(2) 0.1047(2) -0.3510(3)
O2 O -0.9129(3) 0.2689(2) -0.2797(3)
C2 C -0.5631(3) 0.3058(3) -0.1464(3)
N1 N -0.5550(3) -0.0066(3) -0.3429(3)
N2 N -0.3131(2) 0.0868(3) 0.0405(3)
N3 N -0.4737(3) 0.2469(2) -0.0719(3)
N4 N -0.6279(3) 0.2510(2) -0.2445(3)
N5 N -0.7316(3) 0.0827(3) -0.4015(3)
C3 C -0.6230(3) 0.0718(3) -0.3301(3)
C4 C -0.4808(3) 0.1458(3) -0.1246(3)
N6 N -0.9700(3) 0.1788(3) -0.2906(3)
N7 N -0.4170(3) -0.0483(3) -0.0881(3)
C5 C -0.5747(3) 0.1494(3) -0.2321(3)
O3 O -1.0331(3) 0.1693(3) -0.2419(4)
C6 C -0.2441(3) -0.0080(4) 0.1054(4)
H1 H -0.1679 0.0195 0.1613
H2 H -0.2824 -0.0415 0.1495
C7 C -0.6057(5) -0.0789(4) -0.4419(4)
H3 H -0.5648 -0.1508 -0.4230
H4 H -0.5942 -0.0457 -0.5061
C8 C -0.7760(4) 0.0051(4) -0.4985(4)
H5 H -0.7681 0.0398 -0.5640
H6 H -0.8592 -0.0062 -0.5218
C9 C -0.7228(5) -0.0978(5) -0.4780(5)
H7 H -0.7358 -0.1378 -0.4180
H8 H -0.7542 -0.1430 -0.5489
C10 C -0.3314(5) -0.1273(5) -0.0238(6)
H9 H -0.3573 -0.1656 0.0284
H10 H -0.3282 -0.1835 -0.0780
H11 H -0.583(3) 0.376(3) -0.141(3)
H12 H -0.482(3) 0.000(3) -0.304(3)
C11 C -0.2270(7) -0.0915(6) 0.0375(6)
H13 H -0.1931 -0.0606 -0.0117
H14 H -0.1766 -0.1513 0.0858
H15 H -0.465(5) -0.073(6) -0.151(5)
Cd1C Cd -0.31810(2) 0.25978(2) 0.10653(2)
N2C N -0.8131(2) 0.4132(3) -0.4595(3)
N3C N -0.9737(3) 0.2531(2) -0.5719(3)
O4 O -0.3137(3) 1.0080(3) 0.7230(3)
C12 C -0.2131(5) 0.9839(4) 0.7855(5)
N8 N -0.1660(4) 0.8840(3) 0.7967(4)
C13 C -0.0449(6) 0.8675(7) 0.8750(7)
H16 H -0.0094 0.9392 0.9063
H17 H -0.0052 0.8337 0.8334
H18 H -0.0388 0.8187 0.9378
C14 C -0.2269(8) 0.7901(6) 0.7333(8)
H19 H -0.3098 0.8043 0.7013
H20 H -0.2077 0.7255 0.7841
H21 H -0.2053 0.7758 0.6708
H22 H -0.147(6) 1.042(6) 0.835(6)
loop_
_geom_bond_atom_site_label_1
_geom_bond_atom_site_label_2
_geom_bond_site_symmetry_1
_geom_bond_site_symmetry_2
Cd1 O1 1_555 1_555
C1 N2 1_555 1_555
O1 N6 1_555 1_555
O2 Cd1 1_555 1_555
C2 N3 1_555 1_555
N1 C3 1_555 1_555
N2 C6 1_555 1_555
N3 C4 1_555 1_555
N4 Cd1 1_555 1_555
N5 Cd1 1_555 1_555
C3 N5 1_555 1_555
C4 C1 1_555 1_555
N6 O2 1_555 1_555
N7 C1 1_555 1_555
C5 N4 1_555 1_555
O3 N6 1_555 1_555
C6 H1 1_555 1_555
H2 C6 1_555 1_555
C7 N1 1_555 1_555
H3 C7 1_555 1_555
H4 C7 1_555 1_555
C8 N5 1_555 1_555
H5 C8 1_555 1_555
H6 C8 1_555 1_555
C9 C7 1_555 1_555
H7 C9 1_555 1_555
H8 C9 1_555 1_555
C10 N7 1_555 1_555
H9 C10 1_555 1_555
H10 C10 1_555 1_555
H11 C2 1_555 1_555
H12 N1 1_555 1_555
C11 C6 1_555 1_555
H13 C11 1_555 1_555
H14 C11 1_555 1_555
H15 N7 1_555 1_555
O4 C12 1_555 1_555
C12 N8 1_555 1_555
N8 C13 1_555 1_555
C13 H16 1_555 1_555
H17 C13 1_555 1_555
H18 C13 1_555 1_555
C14 N8 1_555 1_555
H19 C14 1_555 1_555
H20 C14 1_555 1_555
H21 C14 1_555 1_555
H22 C12 1_555 1_555
Cd1C N2 1_555 1_555
N2C Cd1 1_555 1_555
N3C Cd1 1_555 1_555
C2 N4 1_555 1_555
N3 Cd1C 1_555 1_555
C3 C5 1_555 1_555
C4 C5 1_555 1_555
C8 C9 1_555 1_555
C10 C11 1_555 1_555

#END
