
#######################################################################
#
#                 Cambridge Crystallographic Data Centre
#                                CCDC 
#
#######################################################################
#
# If this CIF has been generated from an entry in the Cambridge 
# Structural Database, then it will include bibliographic, chemical, 
# crystal, experimental, refinement or atomic coordinate data resulting 
# from the CCDC's data processing and validation procedures.
#
#######################################################################

data_EWIKAX04
_symmetry_cell_setting           orthorhombic
_symmetry_space_group_name_H-M   'P c c n'
_symmetry_Int_Tables_number      56
_space_group_name_Hall           '-P 2ab 2ac'
loop_
_symmetry_equiv_pos_site_id
_symmetry_equiv_pos_as_xyz
1 x,y,z
2 1/2-x,1/2-y,z
3 -x,1/2+y,1/2-z
4 1/2+x,-y,1/2-z
5 -x,-y,-z
6 1/2+x,1/2+y,-z
7 x,1/2-y,1/2+z
8 1/2-x,y,1/2+z
_cell_length_a                   11.8331(2)
_cell_length_b                   12.0266(2)
_cell_length_c                   14.2175(2)
_cell_angle_alpha                90
_cell_angle_beta                 90
_cell_angle_gamma                90
_cell_volume                     2023.32
loop_
_atom_site_label
_atom_site_type_symbol
_atom_site_fract_x
_atom_site_fract_y
_atom_site_fract_z
Fe1 Fe 0.7500 0.7500 0.03693(3)
N1 N 0.91587(18) 0.67692(16) 0.04011(14)
N2 N 0.67584(17) 0.58523(17) 0.04379(13)
N3 N 0.7500 0.7500 0.18902(18)
N4 N 0.7500 0.7500 0.38449(17)
C1 C 1.0046(2) 0.6473(2) 0.05617(18)
C2 C 1.1189(2) 0.6102(3) 0.0758(2)
H1 H 1.1554 0.5873 0.0170
H2 H 1.1166 0.5472 0.1194
H3 H 1.1619 0.6712 0.1042
C3 C 0.64193(19) 0.4999(2) 0.06224(17)
C4 C 0.5992(3) 0.3903(2) 0.0857(2)
H4 H 0.5623 0.3578 0.0304
H5 H 0.5445 0.3964 0.1372
H6 H 0.6621 0.3425 0.1053
C5 C 0.78090(19) 0.66068(19) 0.23824(16)
H7 H 0.8041 0.5956 0.2057
C6 C 0.78007(19) 0.66046(19) 0.33473(17)
H8 H 0.8015 0.5947 0.3672
Fe1F Fe 0.7500 0.7500 0.53693(3)
N1A N 0.58413(18) 0.82308(16) 0.04011(14)
N2A N 0.82416(17) 0.91477(17) 0.04379(13)
N4F N 0.7500 0.7500 -0.11551(17)
C1A C 0.4954(2) 0.8527(2) 0.05617(18)
C2A C 0.3811(2) 0.8898(3) 0.0758(2)
H1A H 0.3446 0.9127 0.0170
H2A H 0.3834 0.9528 0.1194
H3A H 0.3381 0.8288 0.1042
C3A C 0.85807(19) 1.0001(2) 0.06224(17)
C4A C 0.9008(3) 1.1097(2) 0.0857(2)
H4A H 0.9377 1.1422 0.0304
H5A H 0.9555 1.1036 0.1372
H6A H 0.8379 1.1575 0.1053
C5A C 0.71910(19) 0.83932(19) 0.23824(16)
H7A H 0.6959 0.9044 0.2057
C6A C 0.71993(19) 0.83954(19) 0.33473(17)
H8A H 0.6985 0.9053 0.3672
Cl1 Cl 0.56940(6) 0.12196(5) 0.24926(5)
O1 O 0.6455(2) 0.1095(2) 0.1738(2)
O2 O 0.5173(2) 0.22687(17) 0.24761(18)
O3 O 0.4853(2) 0.0389(2) 0.2394(2)
O4 O 0.6204(2) 0.1010(2) 0.3378(2)
loop_
_geom_bond_atom_site_label_1
_geom_bond_atom_site_label_2
_geom_bond_site_symmetry_1
_geom_bond_site_symmetry_2
Fe1 N1 1_555 1_555
N1 C1 1_555 1_555
N2 Fe1 1_555 1_555
N3 Fe1 1_555 1_555
N4 C6 1_555 1_555
C1 C2 1_555 1_555
C2 H1 1_555 1_555
H2 C2 1_555 1_555
H3 C2 1_555 1_555
C3 N2 1_555 1_555
C4 C3 1_555 1_555
H4 C4 1_555 1_555
H5 C4 1_555 1_555
H6 C4 1_555 1_555
C5 N3 1_555 1_555
H7 C5 1_555 1_555
C6 C5 1_555 1_555
H8 C6 1_555 1_555
Cl1 O1 1_555 1_555
O2 Cl1 1_555 1_555
O3 Cl1 1_555 1_555
O4 Cl1 1_555 1_555
Fe1F N4 1_555 1_555
N1A Fe1 1_555 1_555
N2A Fe1 1_555 1_555
N4F Fe1 1_555 1_555
C1A N1A 1_555 1_555
C2A C1A 1_555 1_555
H1A C2A 1_555 1_555
H2A C2A 1_555 1_555
H3A C2A 1_555 1_555
C3A N2A 1_555 1_555
C4A C3A 1_555 1_555
H4A C4A 1_555 1_555
H5A C4A 1_555 1_555
H6A C4A 1_555 1_555
C5A N3 1_555 1_555
H7A C5A 1_555 1_555
C6A N4 1_555 1_555
H8A C6A 1_555 1_555
C5A C6A 1_555 1_555

#END
