
#######################################################################
#
#                 Cambridge Crystallographic Data Centre
#                                CCDC 
#
#######################################################################
#
# If this CIF has been generated from an entry in the Cambridge 
# Structural Database, then it will include bibliographic, chemical, 
# crystal, experimental, refinement or atomic coordinate data resulting 
# from the CCDC's data processing and validation procedures.
#
#######################################################################

data_EWIPIK
_symmetry_cell_setting           monoclinic
_symmetry_space_group_name_H-M   'P 21/c'
_symmetry_Int_Tables_number      14
_space_group_name_Hall           '-P 2ybc'
loop_
_symmetry_equiv_pos_site_id
_symmetry_equiv_pos_as_xyz
1 x,y,z
2 -x,1/2+y,1/2-z
3 -x,-y,-z
4 x,1/2-y,1/2+z
_cell_length_a                   11.0005(7)
_cell_length_b                   8.8159(7)
_cell_length_c                   15.8694(12)
_cell_angle_alpha                90
_cell_angle_beta                 101.002(6)
_cell_angle_gamma                90
_cell_volume                     1510.72
loop_
_atom_site_label
_atom_site_type_symbol
_atom_site_fract_x
_atom_site_fract_y
_atom_site_fract_z
C1 C 0.4236(11) 0.233(2) -0.1390(8)
H1 H 0.4920 0.2749 -0.1029
C2 C 0.4349(13) 0.195(2) -0.2183(10)
H2 H 0.5089 0.2156 -0.2362
C3 C 0.2391(10) 0.1047(14) -0.2455(7)
H3 H 0.1734 0.0581 -0.2818
C4 C 0.2249(9) 0.1491(12) -0.1620(6)
C5 C 0.0015(9) 0.0985(12) -0.1904(6)
H4 H 0.0104 0.0045 -0.2204
H5 H -0.0195 0.1785 -0.2326
C6 C -0.1001(9) 0.0825(10) -0.1382(6)
C7 C -0.1581(9) -0.0542(11) -0.1293(8)
H6 H -0.1309 -0.1403 -0.1540
C8 C -0.2884(10) 0.0546(13) -0.0493(8)
H7 H -0.3522 0.0447 -0.0188
C9 C -0.2365(11) 0.1939(12) -0.0540(9)
H8 H -0.2640 0.2772 -0.0269
C10 C -0.1423(10) 0.2089(11) -0.0999(8)
H9 H -0.1072 0.3036 -0.1052
N1 N 0.3195(8) 0.2157(14) -0.1085(6)
N2 N 0.3437(9) 0.1282(17) -0.2726(7)
N3 N 0.1160(8) 0.1346(11) -0.1327(6)
H10 H 0.1159 0.1473 -0.0789
N4 N -0.2514(8) -0.0688(10) -0.0868(7)
Hg1 Hg -0.33761(3) -0.32015(4) -0.05890(2)
Cl1 Cl -0.1364(3) -0.4177(3) -0.02186(19)
Cl2 Cl -0.5521(3) -0.3016(6) -0.0829(2)
N2A N -0.3437(9) -0.3718(17) -0.2274(7)
Hg1A Hg 0.33761(3) 0.17985(4) -0.44110(2)
loop_
_geom_bond_atom_site_label_1
_geom_bond_atom_site_label_2
_geom_bond_site_symmetry_1
_geom_bond_site_symmetry_2
C1 H1 1_555 1_555
C2 C1 1_555 1_555
H2 C2 1_555 1_555
C3 H3 1_555 1_555
C4 C3 1_555 1_555
C5 H4 1_555 1_555
H5 C5 1_555 1_555
C6 C5 1_555 1_555
C7 C6 1_555 1_555
H6 C7 1_555 1_555
C8 H7 1_555 1_555
C9 C8 1_555 1_555
H8 C9 1_555 1_555
C10 C6 1_555 1_555
H9 C10 1_555 1_555
N1 C1 1_555 1_555
N2 C2 1_555 1_555
N3 C4 1_555 1_555
H10 N3 1_555 1_555
N4 C7 1_555 1_555
Hg1 N4 1_555 1_555
Cl1 Hg1 1_555 1_555
Cl2 Hg1 1_555 1_555
N2A Hg1 1_555 1_555
Hg1A N2 1_555 1_555
C3 N2 1_555 1_555
C4 N1 1_555 1_555
C5 N3 1_555 1_555
C8 N4 1_555 1_555
C9 C10 1_555 1_555

#END
