
#######################################################################
#
#                 Cambridge Crystallographic Data Centre
#                                CCDC 
#
#######################################################################
#
# If this CIF has been generated from an entry in the Cambridge 
# Structural Database, then it will include bibliographic, chemical, 
# crystal, experimental, refinement or atomic coordinate data resulting 
# from the CCDC's data processing and validation procedures.
#
#######################################################################

data_EWISEI
_symmetry_cell_setting           orthorhombic
_symmetry_space_group_name_H-M   'P b c a'
_symmetry_Int_Tables_number      61
_space_group_name_Hall           '-P 2ac 2ab'
loop_
_symmetry_equiv_pos_site_id
_symmetry_equiv_pos_as_xyz
1 x,y,z
2 1/2+x,y,1/2-z
3 x,1/2-y,1/2+z
4 1/2-x,1/2+y,z
5 -x,-y,-z
6 1/2-x,-y,1/2+z
7 -x,1/2+y,1/2-z
8 1/2+x,1/2-y,-z
_cell_length_a                   10.0830(16)
_cell_length_b                   9.4517(15)
_cell_length_c                   13.218(2)
_cell_angle_alpha                90
_cell_angle_beta                 90
_cell_angle_gamma                90
_cell_volume                     1259.7
loop_
_atom_site_label
_atom_site_type_symbol
_atom_site_fract_x
_atom_site_fract_y
_atom_site_fract_z
Cu1 Cu 0.92773(5) 0.14438(5) 0.71916(4)
P1 P 0.82033(11) 0.46679(12) 0.69079(8)
O1 O 0.8101(2) 0.3070(3) 0.6964(2)
O2 O 0.7269(2) 0.5389(3) 0.7654(2)
O3 O 0.9633(2) 0.5141(3) 0.70211(19)
O4 O 1.0817(3) 0.2597(3) 0.6796(2)
H1 H 1.1589 0.2294 0.7033
H2 H 1.0623 0.3515 0.6753
N1 N 0.6188(3) 0.5327(4) 0.5598(2)
C1 C 0.7649(4) 0.5254(5) 0.5676(3)
H3 H 0.8018 0.6182 0.5539
H4 H 0.7982 0.4608 0.5165
C2 C 0.5830(4) 0.6108(4) 0.4683(3)
H5 H 0.6265 0.5678 0.4105
H6 H 0.6146 0.7074 0.4740
C3 C 0.5647(4) 0.3878(4) 0.5495(3)
H7 H 0.5838 0.3345 0.6105
H8 H 0.6080 0.3406 0.4933
C3D C 0.4353(4) 0.6122(4) 0.4505(3)
N1D N 0.3812(3) 0.4673(4) 0.4402(2)
C1D C 0.2351(4) 0.4746(5) 0.4324(3)
P1D P 0.17967(11) 0.53321(12) 0.30921(8)
O1D O 0.1899(2) 0.6930(3) 0.3036(2)
O2D O 0.2731(2) 0.4611(3) 0.2346(2)
O3D O 0.0367(2) 0.4859(3) 0.29789(19)
H3D H 0.1982 0.3818 0.4461
H4D H 0.2018 0.5392 0.4835
C2D C 0.4170(4) 0.3892(4) 0.5317(3)
H5D H 0.3735 0.4322 0.5895
H6D H 0.3854 0.2926 0.5260
H7D H 0.4162 0.6655 0.3895
H8D H 0.3920 0.6594 0.5067
Cu1D Cu 0.07227(5) 0.85562(5) 0.28084(4)
O4D O -0.0817(3) 0.7403(3) 0.3204(2)
H1D H -0.1589 0.7706 0.2967
H2D H -0.0623 0.6485 0.3247
O2C O 0.7731(2) 0.0389(3) 0.7654(2)
O3F O 1.0367(2) 0.0141(3) 0.79789(19)
N1C N 0.8812(3) 0.0327(4) 0.5598(2)
Cu1C Cu 0.57227(5) 0.64438(5) 0.71916(4)
Cu1F Cu 1.07227(5) 0.64438(5) 0.78084(4)
Cu1G Cu 0.42773(5) 0.35562(5) 0.28084(4)
Cu1B Cu -0.07227(5) 0.35562(5) 0.21916(4)
O2G O 0.2269(2) 0.9611(3) 0.2346(2)
O3B O -0.0367(2) 0.9859(3) 0.20211(19)
N1G N 0.1188(3) 0.9673(4) 0.4402(2)
loop_
_geom_bond_atom_site_label_1
_geom_bond_atom_site_label_2
_geom_bond_site_symmetry_1
_geom_bond_site_symmetry_2
Cu1 O1 1_555 1_555
P1 O1 1_555 1_555
O2 P1 1_555 1_555
O3 P1 1_555 1_555
O4 Cu1 1_555 1_555
H1 O4 1_555 1_555
H2 O4 1_555 1_555
N1 C1 1_555 1_555
C1 P1 1_555 1_555
H3 C1 1_555 1_555
H4 C1 1_555 1_555
C2 N1 1_555 1_555
H5 C2 1_555 1_555
H6 C2 1_555 1_555
C3 N1 1_555 1_555
H7 C3 1_555 1_555
H8 C3 1_555 1_555
C3D C2 1_555 1_555
N1D C3D 1_555 1_555
C1D N1D 1_555 1_555
P1D C1D 1_555 1_555
O1D P1D 1_555 1_555
O2D P1D 1_555 1_555
O3D P1D 1_555 1_555
H3D C1D 1_555 1_555
H4D C1D 1_555 1_555
C2D C3 1_555 1_555
H5D C2D 1_555 1_555
H6D C2D 1_555 1_555
H7D C3D 1_555 1_555
H8D C3D 1_555 1_555
Cu1D O1D 1_555 1_555
O4D Cu1D 1_555 1_555
H1D O4D 1_555 1_555
H2D O4D 1_555 1_555
O2C Cu1 1_555 1_555
O3F Cu1 1_555 1_555
N1C Cu1 1_555 1_555
Cu1C O2 1_555 1_555
Cu1F O3 1_555 1_555
Cu1G N1D 1_555 1_555
Cu1B O3D 1_555 1_555
O2G Cu1D 1_555 1_555
O3B Cu1D 1_555 1_555
N1G Cu1D 1_555 1_555
N1 Cu1C 1_555 1_555
N1D C2D 1_555 1_555
O2D Cu1G 1_555 1_555

#END
