
#######################################################################
#
#                 Cambridge Crystallographic Data Centre
#                                CCDC 
#
#######################################################################
#
# If this CIF has been generated from an entry in the Cambridge 
# Structural Database, then it will include bibliographic, chemical, 
# crystal, experimental, refinement or atomic coordinate data resulting 
# from the CCDC's data processing and validation procedures.
#
#######################################################################

data_EWONEJ
_symmetry_cell_setting           monoclinic
_symmetry_space_group_name_H-M   'P 21/c'
_symmetry_Int_Tables_number      14
_space_group_name_Hall           '-P 2ybc'
loop_
_symmetry_equiv_pos_site_id
_symmetry_equiv_pos_as_xyz
1 x,y,z
2 x,1/2-y,1/2+z
3 -x,-y,-z
4 -x,1/2+y,1/2-z
_cell_length_a                   10.0974(3)
_cell_length_b                   8.8974(4)
_cell_length_c                   20.2619(10)
_cell_angle_alpha                90
_cell_angle_beta                 99.997(2)
_cell_angle_gamma                90
_cell_volume                     1792.7
loop_
_atom_site_label
_atom_site_type_symbol
_atom_site_fract_x
_atom_site_fract_y
_atom_site_fract_z
Zn1 Zn 0.69599(6) 0.93424(8) 0.60845(3)
O1 O 0.6291(4) 0.9303(5) 0.69822(18)
O2 O 0.4213(4) 0.8458(6) 0.6638(2)
O3 O 0.2422(4) 0.6662(5) 0.87236(19)
O4 O 0.4300(4) 0.6237(4) 0.9408(2)
O5 O 0.5504(4) 0.7828(5) 0.5661(3)
H1 H 0.495(7) 0.805(8) 0.595(4)
H2 H 0.521(9) 0.799(11) 0.529(5)
N1 N 0.7967(4) 0.9002(5) 0.5228(2)
N2 N 0.8722(4) 0.8123(5) 0.6501(2)
C1 C 0.5096(6) 0.9030(6) 0.7072(3)
C2 C 0.4789(5) 0.9439(7) 0.7754(3)
H3 H 0.505(5) 1.055(7) 0.783(3)
C3 C 0.5648(6) 0.8540(8) 0.8310(3)
H4 H 0.660(6) 0.863(6) 0.827(3)
H5 H 0.544(5) 0.759(6) 0.824(3)
C4 C 0.3309(6) 0.9282(9) 0.7803(3)
H6 H 0.304(5) 0.824(7) 0.769(3)
H7 H 0.280(6) 0.988(8) 0.748(3)
C5 C 0.5367(6) 0.8987(7) 0.8997(3)
H8 H 0.586(4) 0.841(5) 0.932(2)
H9 H 0.560(6) 1.005(7) 0.907(3)
C6 C 0.3007(6) 0.9672(7) 0.8491(3)
H10 H 0.203(5) 0.948(5) 0.847(2)
H11 H 0.327(6) 1.075(7) 0.857(3)
C7 C 0.3878(5) 0.8791(6) 0.9044(3)
H12 H 0.375(5) 0.913(5) 0.949(3)
C8 C 0.3501(5) 0.7131(6) 0.9054(3)
C9 C 0.9091(6) 0.7708(7) 0.7138(3)
H13 H 0.848(7) 0.800(9) 0.740(4)
C10 C 1.0249(7) 0.6881(8) 0.7355(3)
H14 H 1.041(5) 0.669(6) 0.781(3)
C11 C 1.1029(7) 0.6447(8) 0.6916(4)
H15 H 1.180(7) 0.576(8) 0.701(4)
C12 C 1.0661(5) 0.6816(7) 0.6237(3)
C13 C 1.1411(7) 0.6381(9) 0.5726(4)
H16 H 1.215(7) 0.592(7) 0.587(3)
C14 C 1.1021(7) 0.6809(9) 0.5090(4)
H17 H 1.152(7) 0.648(8) 0.475(4)
C15 C 0.9844(6) 0.7719(7) 0.4888(3)
C16 C 0.9419(7) 0.8231(9) 0.4235(3)
H18 H 0.996(5) 0.799(6) 0.391(3)
C17 C 0.8298(6) 0.9089(8) 0.4094(3)
H19 H 0.800(6) 0.949(8) 0.367(3)
C18 C 0.7588(6) 0.9448(8) 0.4600(3)
H20 H 0.683(5) 0.991(6) 0.451(3)
C19 C 0.9093(5) 0.8137(6) 0.5374(3)
C20 C 0.9499(5) 0.7676(6) 0.6056(3)
O3C O 0.7578(4) 1.1662(5) 0.62764(19)
O4C O 0.5700(4) 1.1237(4) 0.5592(2)
Zn1C Zn 0.30401(6) 0.43424(8) 0.89155(3)
loop_
_geom_bond_atom_site_label_1
_geom_bond_atom_site_label_2
_geom_bond_site_symmetry_1
_geom_bond_site_symmetry_2
Zn1 O1 1_555 1_555
O1 C1 1_555 1_555
O2 C1 1_555 1_555
O3 C8 1_555 1_555
O4 C8 1_555 1_555
O5 Zn1 1_555 1_555
H1 O5 1_555 1_555
H2 O5 1_555 1_555
N1 Zn1 1_555 1_555
N2 Zn1 1_555 1_555
C1 C2 1_555 1_555
C2 H3 1_555 1_555
C3 C2 1_555 1_555
H4 C3 1_555 1_555
H5 C3 1_555 1_555
C4 C2 1_555 1_555
H6 C4 1_555 1_555
H7 C4 1_555 1_555
C5 C3 1_555 1_555
H8 C5 1_555 1_555
H9 C5 1_555 1_555
C6 C4 1_555 1_555
H10 C6 1_555 1_555
H11 C6 1_555 1_555
C7 C5 1_555 1_555
H12 C7 1_555 1_555
C8 C7 1_555 1_555
C9 N2 1_555 1_555
H13 C9 1_555 1_555
C10 C9 1_555 1_555
H14 C10 1_555 1_555
C11 C10 1_555 1_555
H15 C11 1_555 1_555
C12 C11 1_555 1_555
C13 C12 1_555 1_555
H16 C13 1_555 1_555
C14 C13 1_555 1_555
H17 C14 1_555 1_555
C15 C14 1_555 1_555
C16 C15 1_555 1_555
H18 C16 1_555 1_555
C17 C16 1_555 1_555
H19 C17 1_555 1_555
C18 N1 1_555 1_555
H20 C18 1_555 1_555
C19 N1 1_555 1_555
C20 N2 1_555 1_555
O3C Zn1 1_555 1_555
O4C Zn1 1_555 1_555
Zn1C O3 1_555 1_555
O4 Zn1C 1_555 1_555
C6 C7 1_555 1_555
C12 C20 1_555 1_555
C15 C19 1_555 1_555
C17 C18 1_555 1_555
C19 C20 1_555 1_555

#END
