
#######################################################################
#
#                 Cambridge Crystallographic Data Centre
#                                CCDC 
#
#######################################################################
#
# If this CIF has been generated from an entry in the Cambridge 
# Structural Database, then it will include bibliographic, chemical, 
# crystal, experimental, refinement or atomic coordinate data resulting 
# from the CCDC's data processing and validation procedures.
#
#######################################################################

data_EWORAJ
_symmetry_cell_setting           orthorhombic
_symmetry_space_group_name_H-M   'P n m a'
_symmetry_Int_Tables_number      62
_space_group_name_Hall           '-P 2ac 2n'
loop_
_symmetry_equiv_pos_site_id
_symmetry_equiv_pos_as_xyz
1 x,y,z
2 1/2+x,y,1/2-z
3 1/2-x,1/2+y,1/2+z
4 x,1/2-y,z
5 -x,-y,-z
6 1/2-x,-y,1/2+z
7 1/2+x,1/2-y,1/2-z
8 -x,1/2+y,-z
_cell_length_a                   11.5603(10)
_cell_length_b                   8.3073(19)
_cell_length_c                   12.9906(16)
_cell_angle_alpha                90
_cell_angle_beta                 90
_cell_angle_gamma                90
_cell_volume                     1247.55
loop_
_atom_site_label
_atom_site_type_symbol
_atom_site_fract_x
_atom_site_fract_y
_atom_site_fract_z
Hg1 Hg 0.30513(3) 0.7500 -0.01735(2)
Br1 Br 0.31147(8) 0.7500 -0.20761(6)
Br2 Br 0.34415(7) 0.7500 0.16952(6)
N1 N 0.1097(4) 0.5684(6) -0.0083(4)
N2 N 0.3657(3) 1.0818(5) -0.0193(4)
C1 C 0.0458(6) 0.5347(11) -0.0886(5)
H1 H 0.0754 0.5551 -0.1539
C2 C 0.0631(6) 0.5294(10) 0.0802(5)
H2 H 0.1058 0.5459 0.1399
C3 C 0.3404(5) 1.1680(8) -0.1021(4)
H3 H 0.3219 1.1144 -0.1627
C4 C 0.3930(5) 1.1677(8) 0.0641(5)
H4 H 0.4127 1.1136 0.1243
C2D C -0.0631(6) 0.4706(10) -0.0802(5)
N1D N -0.1097(4) 0.4316(6) 0.0083(4)
C1D C -0.0458(6) 0.4653(11) 0.0886(5)
H1D H -0.0754 0.4449 0.1539
H2D H -0.1058 0.4541 -0.1399
C3C C 0.3404(5) 1.3320(8) -0.1021(4)
N2C N 0.3657(3) 1.4182(5) -0.0193(4)
C4C C 0.3930(5) 1.3323(8) 0.0641(5)
H4C H 0.4127 1.3864 0.1243
H3C H 0.3219 1.3856 -0.1627
N1C N 0.1097(4) 0.9316(6) -0.0083(4)
N2C_2 N 0.3657(3) 0.4182(5) -0.0193(4)
Hg1D Hg -0.30513(3) 0.2500 0.01735(2)
Hg1_2 Hg 0.30513(3) 1.7500 -0.01735(2)
loop_
_geom_bond_atom_site_label_1
_geom_bond_atom_site_label_2
_geom_bond_site_symmetry_1
_geom_bond_site_symmetry_2
Hg1 Br1 1_555 1_555
Br2 Hg1 1_555 1_555
N1 Hg1 1_555 1_555
N2 Hg1 1_555 1_555
C1 N1 1_555 1_555
H1 C1 1_555 1_555
C2 N1 1_555 1_555
H2 C2 1_555 1_555
C3 N2 1_555 1_555
H3 C3 1_555 1_555
C4 N2 1_555 1_555
H4 C4 1_555 1_555
C2D C1 1_555 1_555
N1D C2D 1_555 1_555
C1D C2 1_555 1_555
H1D C1D 1_555 1_555
H2D C2D 1_555 1_555
C3C C3 1_555 1_555
N2C C3C 1_555 1_555
C4C C4 1_555 1_555
H4C C4C 1_555 1_555
H3C C3C 1_555 1_555
N1C Hg1 1_555 1_555
N2C_2 Hg1 1_555 1_555
Hg1D N1D 1_555 1_555
Hg1_2 N2C 1_555 1_555
N1D C1D 1_555 1_555
N2C C4C 1_555 1_555

#END
