
#######################################################################
#
#                 Cambridge Crystallographic Data Centre
#                                CCDC 
#
#######################################################################
#
# If this CIF has been generated from an entry in the Cambridge 
# Structural Database, then it will include bibliographic, chemical, 
# crystal, experimental, refinement or atomic coordinate data resulting 
# from the CCDC's data processing and validation procedures.
#
#######################################################################

data_EWOYUL
_symmetry_cell_setting           orthorhombic
_symmetry_space_group_name_H-M   'P 2 2 2'
_symmetry_Int_Tables_number      16
_space_group_name_Hall           'P 2 2'
loop_
_symmetry_equiv_pos_site_id
_symmetry_equiv_pos_as_xyz
1 x,y,z
2 -x,-y,z
3 x,-y,-z
4 -x,y,-z
_cell_length_a                   7.7423(5)
_cell_length_b                   8.9342(8)
_cell_length_c                   14.2772(13)
_cell_angle_alpha                90
_cell_angle_beta                 90
_cell_angle_gamma                90
_cell_volume                     987.572
loop_
_atom_site_label
_atom_site_type_symbol
_atom_site_fract_x
_atom_site_fract_y
_atom_site_fract_z
C1 C -0.2673(12) -0.2526(7) -0.3498(5)
C2 C -0.3095(11) -0.2193(7) -0.2479(6)
H1 H -0.4258 -0.1764 -0.2441
C3 C -0.1801(16) -0.1090(10) -0.2049(7)
H2 H -0.0679 -0.1172 -0.2348
H3 H -0.2208 -0.0067 -0.2104
C4 C -0.1718(17) -0.1576(10) -0.1033(7)
H4 H -0.2719 -0.1234 -0.0686
H5 H -0.0678 -0.1213 -0.0731
C5 C -0.1701(16) -0.3280(10) -0.1129(7)
H6 H -0.0572 -0.3638 -0.1320
H7 H -0.2023 -0.3760 -0.0545
O1 O -0.2521(10) -0.3932(5) -0.3742(4)
O2 O -0.2540(10) -0.1507(6) -0.4060(4)
N1 N -0.3006(10) -0.3560(6) -0.1865(5)
H8 H -0.4045 -0.3640 -0.1572
Cl1 Cl -0.2460(4) -0.7373(2) -0.37261(14)
Cl2 Cl -0.2960(3) -0.6977(2) -0.13986(15)
Pt1 Pt -0.27239(4) -0.54213(3) -0.26711(2)
K1 K -0.5000 -0.5000 -0.5000
K2 K 0.0000 -0.5000 -0.5000
K3 K 0.0000 0.0000 -0.5000
K4 K -0.5000 0.0000 -0.5000
C1A C -0.7327(12) -0.7474(7) -0.3498(5)
C1B C -0.2673(12) -0.7474(7) -0.6502(5)
C1C C -0.7327(12) -0.2526(7) -0.6502(5)
C2A C -0.6905(11) -0.7807(7) -0.2479(6)
C2B C -0.3095(11) -0.7807(7) -0.7521(6)
C2C C -0.6905(11) -0.2193(7) -0.7521(6)
H1A H -0.5742 -0.8236 -0.2441
H1B H -0.4258 -0.8236 -0.7559
H1C H -0.5742 -0.1764 -0.7559
C3A C -0.8199(16) -0.8910(10) -0.2049(7)
C3B C -0.1801(16) -0.8910(10) -0.7951(7)
C3C C -0.8199(16) -0.1090(10) -0.7951(7)
H2A H -0.9321 -0.8828 -0.2348
H2B H -0.0679 -0.8828 -0.7652
H2C H -0.9321 -0.1172 -0.7652
H3A H -0.7792 -0.9933 -0.2104
H3B H -0.2208 -0.9933 -0.7896
H3C H -0.7792 -0.0067 -0.7896
C4A C -0.8282(17) -0.8424(10) -0.1033(7)
C4B C -0.1718(17) -0.8424(10) -0.8967(7)
C4C C -0.8282(17) -0.1576(10) -0.8967(7)
H4A H -0.7281 -0.8766 -0.0686
H4B H -0.2719 -0.8766 -0.9314
H4C H -0.7281 -0.1234 -0.9314
H5A H -0.9322 -0.8787 -0.0731
H5B H -0.0678 -0.8787 -0.9269
H5C H -0.9322 -0.1213 -0.9269
C5A C -0.8299(16) -0.6720(10) -0.1129(7)
C5B C -0.1701(16) -0.6720(10) -0.8871(7)
C5C C -0.8299(16) -0.3280(10) -0.8871(7)
H6A H -0.9428 -0.6362 -0.1320
H6B H -0.0572 -0.6362 -0.8680
H6C H -0.9428 -0.3638 -0.8680
H7A H -0.7977 -0.6240 -0.0545
H7B H -0.2023 -0.6240 -0.9455
H7C H -0.7977 -0.3760 -0.9455
O1A O -0.7479(10) -0.6068(5) -0.3742(4)
O1B O -0.2521(10) -0.6068(5) -0.6258(4)
O1C O -0.7479(10) -0.3932(5) -0.6258(4)
O1A_2 O 0.2521(10) -0.6068(5) -0.3742(4)
O1C_2 O 0.2521(10) -0.3932(5) -0.6258(4)
O2A O -0.7460(10) -0.8493(6) -0.4060(4)
O2B O -0.2540(10) -0.8493(6) -0.5940(4)
O2C O -0.7460(10) -0.1507(6) -0.5940(4)
O2A_2 O 0.2540(10) 0.1507(6) -0.4060(4)
O2B_2 O -0.2540(10) 0.1507(6) -0.5940(4)
O2C_2 O 0.2540(10) -0.1507(6) -0.5940(4)
O2A_3 O -0.7460(10) 0.1507(6) -0.4060(4)
N1A N -0.6994(10) -0.6440(6) -0.1865(5)
N1B N -0.3006(10) -0.6440(6) -0.8135(5)
N1C N -0.6994(10) -0.3560(6) -0.8135(5)
H8A H -0.5955 -0.6360 -0.1572
H8B H -0.4045 -0.6360 -0.8428
H8C H -0.5955 -0.3640 -0.8428
Cl1A Cl -0.7540(4) -0.2627(2) -0.37261(14)
Cl1B Cl -0.2460(4) -0.2627(2) -0.62739(14)
Cl1C Cl -0.7540(4) -0.7373(2) -0.62739(14)
Cl2A Cl -0.7040(3) -0.3023(2) -0.13986(15)
Cl2B Cl -0.2960(3) -0.3023(2) -0.86014(15)
Cl2C Cl -0.7040(3) -0.6977(2) -0.86014(15)
Pt1A Pt -0.72761(4) -0.45787(3) -0.26711(2)
Pt1B Pt -0.27239(4) -0.45787(3) -0.73289(2)
Pt1C Pt -0.72761(4) -0.54213(3) -0.73289(2)
K2_2 K -1.0000 -0.5000 -0.5000
K3_2 K -1.0000 -1.0000 -0.5000
K3_3 K 0.0000 -1.0000 -0.5000
K3_4 K -1.0000 0.0000 -0.5000
K4_2 K -0.5000 -1.0000 -0.5000
loop_
_geom_bond_atom_site_label_1
_geom_bond_atom_site_label_2
_geom_bond_site_symmetry_1
_geom_bond_site_symmetry_2
C1 C2 1_555 1_555
C2 H1 1_555 1_555
C3 C2 1_555 1_555
H2 C3 1_555 1_555
H3 C3 1_555 1_555
C4 C3 1_555 1_555
H4 C4 1_555 1_555
H5 C4 1_555 1_555
C5 C4 1_555 1_555
H6 C5 1_555 1_555
H7 C5 1_555 1_555
O1 C1 1_555 1_555
O2 C1 1_555 1_555
N1 C2 1_555 1_555
H8 N1 1_555 1_555
Cl1 Pt1 1_555 1_555
Cl2 Pt1 1_555 1_555
Pt1 O1 1_555 1_555
K1 O1 1_555 1_555
K2 O1 1_555 1_555
K3 O2 1_555 1_555
K4 O2 1_555 1_555
C1A C2A 1_555 1_555
C1B C2B 1_555 1_555
C1C C2C 1_555 1_555
C2A H1A 1_555 1_555
C2B H1B 1_555 1_555
C2C H1C 1_555 1_555
C3A C2A 1_555 1_555
C3B C2B 1_555 1_555
C3C C2C 1_555 1_555
H2A C3A 1_555 1_555
H2B C3B 1_555 1_555
H2C C3C 1_555 1_555
H3A C3A 1_555 1_555
H3B C3B 1_555 1_555
H3C C3C 1_555 1_555
C4A C3A 1_555 1_555
C4B C3B 1_555 1_555
C4C C3C 1_555 1_555
H4A C4A 1_555 1_555
H4B C4B 1_555 1_555
H4C C4C 1_555 1_555
H5A C4A 1_555 1_555
H5B C4B 1_555 1_555
H5C C4C 1_555 1_555
C5A C4A 1_555 1_555
C5B C4B 1_555 1_555
C5C C4C 1_555 1_555
H6A C5A 1_555 1_555
H6B C5B 1_555 1_555
H6C C5C 1_555 1_555
H7A C5A 1_555 1_555
H7B C5B 1_555 1_555
H7C C5C 1_555 1_555
O1A K1 1_555 1_555
O1B K1 1_555 1_555
O1C K1 1_555 1_555
O1A_2 K2 1_555 1_555
O1C_2 K2 1_555 1_555
O2A C1A 1_555 1_555
O2B C1B 1_555 1_555
O2C K4 1_555 1_555
O2A_2 K3 1_555 1_555
O2B_2 K3 1_555 1_555
O2C_2 K3 1_555 1_555
O2A_3 K4 1_555 1_555
N1A C2A 1_555 1_555
N1B C2B 1_555 1_555
N1C C2C 1_555 1_555
H8A N1A 1_555 1_555
H8B N1B 1_555 1_555
H8C N1C 1_555 1_555
Cl1A Pt1A 1_555 1_555
Cl1B Pt1B 1_555 1_555
Cl1C Pt1C 1_555 1_555
Cl2A Pt1A 1_555 1_555
Cl2B Pt1B 1_555 1_555
Cl2C Pt1C 1_555 1_555
Pt1A O1A 1_555 1_555
Pt1B O1B 1_555 1_555
Pt1C O1C 1_555 1_555
K2_2 O1A 1_555 1_555
K3_2 O2A 1_555 1_555
K3_3 O2B 1_555 1_555
K3_4 O2C 1_555 1_555
K4_2 O2A 1_555 1_555
C5 N1 1_555 1_555
N1 Pt1 1_555 1_555
K2 O1B 1_555 1_555
K4 O2B_2 1_555 1_555
C1A O1A 1_555 1_555
C1B O1B 1_555 1_555
C1C O1C 1_555 1_555
C1C O2C 1_555 1_555
C5A N1A 1_555 1_555
C5B N1B 1_555 1_555
C5C N1C 1_555 1_555
O1C K2_2 1_555 1_555
O2B K4_2 1_555 1_555
O2A_3 K3_4 1_555 1_555
N1A Pt1A 1_555 1_555
N1B Pt1B 1_555 1_555
N1C Pt1C 1_555 1_555

#END
