
#######################################################################
#
#                 Cambridge Crystallographic Data Centre
#                                CCDC 
#
#######################################################################
#
# If this CIF has been generated from an entry in the Cambridge 
# Structural Database, then it will include bibliographic, chemical, 
# crystal, experimental, refinement or atomic coordinate data resulting 
# from the CCDC's data processing and validation procedures.
#
#######################################################################

data_EWUGEJ
_symmetry_cell_setting           triclinic
_symmetry_space_group_name_H-M   'P -1'
_symmetry_Int_Tables_number      2
_space_group_name_Hall           '-P 1'
loop_
_symmetry_equiv_pos_site_id
_symmetry_equiv_pos_as_xyz
1 x,y,z
2 -x,-y,-z
_cell_length_a                   11.5763(3)
_cell_length_b                   15.0440(7)
_cell_length_c                   16.6926(8)
_cell_angle_alpha                76.9090(10)
_cell_angle_beta                 87.142(3)
_cell_angle_gamma                80.036(2)
_cell_volume                     2788.65
loop_
_atom_site_label
_atom_site_type_symbol
_atom_site_fract_x
_atom_site_fract_y
_atom_site_fract_z
C1 C 0.2022(5) 0.0691(4) 0.8983(4)
C2 C 0.1647(5) 0.0999(4) 0.8294(4)
C3 C 0.1189(6) 0.1371(5) 0.7480(4)
C4 C 0.1878(6) 0.1664(5) 0.6751(4)
H1 H 0.2702 0.1655 0.6729
C5 C 0.1098(7) 0.1971(6) 0.6072(4)
H2 H 0.1306 0.2214 0.5518
C6 C -0.0048(7) 0.1850(6) 0.6372(4)
H3 H -0.0734 0.1992 0.6047
C7 C -0.0002(6) 0.1483(5) 0.7231(4)
H4 H -0.0648 0.1337 0.7581
C8 C 0.1609(8) -0.0714(5) 0.7228(5)
H5 H 0.187 -0.0909 0.7781
C9 C 0.2330(7) -0.0492(6) 0.6528(5)
H6 H 0.3156 -0.0515 0.6528
C10 C 0.1594(6) -0.0225(6) 0.5818(5)
H7 H 0.1838 -0.0034 0.5263
C11 C 0.0431(7) -0.0301(6) 0.6103(4)
H8 H -0.0241 -0.0173 0.5766
C12 C 0.0437(8) -0.0599(6) 0.6971(5)
H9 H -0.0226 -0.0702 0.7317
C13 C 0.2946(5) -0.0320(4) 1.1348(4)
C14 C 0.3269(6) -0.0474(4) 1.2050(4)
C15 C 0.3693(5) -0.0628(4) 1.2871(4)
C16 C 0.4862(6) -0.0575(5) 1.3085(4)
H10 H 0.5488 -0.0452 1.2709
C17 C 0.4921(6) -0.0739(5) 1.3960(4)
H11 H 0.5591 -0.0744 1.4268
C18 C 0.3807(6) -0.0892(5) 1.4283(4)
H12 H 0.3599 -0.1026 1.4851
C19 C 0.3056(6) -0.0813(5) 1.3625(4)
H13 H 0.225 -0.0874 1.3676
C20 C 0.3005(11) 0.1578(6) 1.2739(6)
H14 H 0.2738 0.1615 1.2202
C21 C 0.4172(9) 0.1631(6) 1.2970(6)
H15 H 0.4821 0.1724 1.2609
C22 C 0.4169(8) 0.1523(6) 1.3805(5)
H16 H 0.4832 0.151 1.4124
C23 C 0.3084(7) 0.1437(6) 1.4107(5)
H17 H 0.2871 0.1371 1.4672
C24 C 0.2328(8) 0.1457(6) 1.3496(7)
H18 H 0.1522 0.1402 1.3557
C25 C 0.2155(5) 0.1459(4) 1.0419(4)
C26 C 0.2921(5) 0.2084(5) 1.0257(4)
C27 C 0.2729(6) 0.2939(5) 1.0464(4)
C28 C 0.1709(6) 0.3223(5) 1.0853(4)
C29 C 0.0893(6) 0.2631(5) 1.1026(4)
C30 C 0.1132(5) 0.1778(5) 1.0810(4)
C31 C 0.2761(5) -0.1191(4) 0.9937(4)
C32 C 0.2244(5) -0.1903(4) 1.0406(4)
C33 C 0.2360(6) -0.2775(5) 1.0262(4)
C34 C 0.3029(7) -0.2983(5) 0.9615(5)
C35 C 0.3588(6) -0.2326(5) 0.9135(4)
C36 C 0.3444(5) -0.1453(5) 0.9295(4)
F1 F 0.3965(3) 0.1882(3) 0.9867(3)
F2 F 0.3539(4) 0.3503(3) 1.0272(3)
F3 F 0.1485(4) 0.4055(3) 1.1039(3)
F4 F -0.0128(4) 0.2886(3) 1.1397(3)
F5 F 0.0284(3) 0.1243(3) 1.1031(3)
F6 F 0.1520(3) -0.1750(3) 1.1054(2)
F7 F 0.1808(4) -0.3429(3) 1.0752(3)
F8 F 0.3163(5) -0.3849(3) 0.9475(3)
F9 F 0.4265(5) -0.2541(3) 0.8503(3)
F10 F 0.4035(3) -0.0846(3) 0.8783(2)
Fe1 Fe 0.10660(8) 0.06130(7) 0.66236(5)
Fe2 Fe 0.37002(8) 0.03921(7) 1.35117(5)
Pt1 Pt 0.248695(18) 0.014946(17) 1.016174(14)
Tl1 Tl 0.00000 0.00000 1.00000
Tl2 Tl 0.50000 0.00000 1.00000
C1A C -0.2022(5) -0.0691(4) 1.1017(4)
C2A C -0.1647(5) -0.0999(4) 1.1706(4)
C3A C -0.1189(6) -0.1371(5) 1.2520(4)
C4A C -0.1878(6) -0.1664(5) 1.3249(4)
H1A H -0.2702 -0.1655 1.3271
C5A C -0.1098(7) -0.1971(6) 1.3928(4)
H2A H -0.1306 -0.2214 1.4482
C6A C 0.0048(7) -0.1850(6) 1.3628(4)
H3A H 0.0734 -0.1992 1.3953
C7A C 0.0002(6) -0.1483(5) 1.2769(4)
H4A H 0.0648 -0.1337 1.2419
C8A C -0.1609(8) 0.0714(5) 1.2772(5)
H5A H -0.187 0.0909 1.2219
C9A C -0.2330(7) 0.0492(6) 1.3472(5)
H6A H -0.3156 0.0515 1.3472
C10A C -0.1594(6) 0.0225(6) 1.4182(5)
H7A H -0.1838 0.0034 1.4737
C11A C -0.0431(7) 0.0301(6) 1.3897(4)
H8A H 0.0241 0.0173 1.4234
C12A C -0.0437(8) 0.0599(6) 1.3029(5)
H9A H 0.0226 0.0702 1.2683
C13A C -0.2946(5) 0.0320(4) 0.8652(4)
C14A C -0.3269(6) 0.0474(4) 0.7950(4)
C15A C -0.3693(5) 0.0628(4) 0.7129(4)
C16A C -0.4862(6) 0.0575(5) 0.6915(4)
H10A H -0.5488 0.0452 0.7291
C17A C -0.4921(6) 0.0739(5) 0.6040(4)
H11A H -0.5591 0.0744 0.5732
C18A C -0.3807(6) 0.0892(5) 0.5717(4)
H12A H -0.3599 0.1026 0.5149
C19A C -0.3056(6) 0.0813(5) 0.6375(4)
H13A H -0.225 0.0874 0.6324
C20A C -0.3005(11) -0.1578(6) 0.7261(6)
H14A H -0.2738 -0.1615 0.7798
C21A C -0.4172(9) -0.1631(6) 0.7030(6)
H15A H -0.4821 -0.1724 0.7391
C22A C -0.4169(8) -0.1523(6) 0.6195(5)
H16A H -0.4832 -0.151 0.5876
C23A C -0.3084(7) -0.1437(6) 0.5893(5)
H17A H -0.2871 -0.1371 0.5328
C24A C -0.2328(8) -0.1457(6) 0.6504(7)
H18A H -0.1522 -0.1402 0.6443
C25A C -0.2155(5) -0.1459(4) 0.9581(4)
C26A C -0.2921(5) -0.2084(5) 0.9743(4)
C27A C -0.2729(6) -0.2939(5) 0.9536(4)
C28A C -0.1709(6) -0.3223(5) 0.9147(4)
C29A C -0.0893(6) -0.2631(5) 0.8974(4)
C30A C -0.1132(5) -0.1778(5) 0.9190(4)
C31A C -0.2761(5) 0.1191(4) 1.0063(4)
C32A C -0.2244(5) 0.1903(4) 0.9594(4)
C33A C -0.2360(6) 0.2775(5) 0.9738(4)
C34A C -0.3029(7) 0.2983(5) 1.0385(5)
C35A C -0.3588(6) 0.2326(5) 1.0865(4)
C36A C -0.3444(5) 0.1453(5) 1.0705(4)
F1A F -0.3965(3) -0.1882(3) 1.0133(3)
F1A_2 F 0.6035(3) -0.1882(3) 1.0133(3)
F2A F -0.3539(4) -0.3503(3) 0.9728(3)
F3A F -0.1485(4) -0.4055(3) 0.8961(3)
F4A F 0.0128(4) -0.2886(3) 0.8603(3)
F5A F -0.0284(3) -0.1243(3) 0.8969(3)
F6A F -0.1520(3) 0.1750(3) 0.8946(2)
F7A F -0.1808(4) 0.3429(3) 0.9248(3)
F8A F -0.3163(5) 0.3849(3) 1.0525(3)
F9A F -0.4265(5) 0.2541(3) 1.1497(3)
F10A F -0.4035(3) 0.0846(3) 1.1217(2)
Fe1A Fe -0.10660(8) -0.06130(7) 1.33764(5)
Fe2A Fe -0.37002(8) -0.03921(7) 0.64883(5)
Pt1A Pt -0.248695(18) -0.014946(17) 0.983826(14)
Pt1A_2 Pt 0.751305(18) -0.014946(17) 0.983826(14)
Tl2_2 Tl -0.50000 0.00000 1.00000
C37 C 0.5103(7) 0.7502(5) 0.1927(4)
H19 H 0.4391 0.7611 0.2257
H20 H 0.4888 0.7531 0.136
H21 H 0.5584 0.7977 0.193
C38 C 0.6283(7) 0.6308(5) 0.3390(4)
C39 C 0.5580(7) 0.6834(6) 0.3877(5)
H22 H 0.4895 0.7242 0.3656
C40 C 0.5888(9) 0.6758(7) 0.4687(5)
H23 H 0.5403 0.7112 0.5017
C41 C 0.6871(9) 0.6185(8) 0.5015(6)
H24 H 0.7072 0.6151 0.5567
C42 C 0.7588(9) 0.5643(8) 0.4546(6)
H25 H 0.826 0.5228 0.4782
C43 C 0.7304(8) 0.5721(6) 0.3719(5)
H26 H 0.7802 0.5378 0.3387
C44 C 0.5077(6) 0.5514(5) 0.2295(4)
C45 C 0.4552(6) 0.5546(6) 0.1546(5)
H27 H 0.4606 0.6048 0.1091
C46 C 0.3960(7) 0.4855(6) 0.1467(6)
H28 H 0.3605 0.488 0.096
C47 C 0.3879(7) 0.4119(6) 0.2130(5)
H29 H 0.3465 0.3643 0.2076
C48 C 0.4400(7) 0.4079(6) 0.2865(5)
H30 H 0.4359 0.357 0.3315
C49 C 0.4982(7) 0.4782(6) 0.2945(5)
H31 H 0.5321 0.476 0.3457
C50 C 0.7256(6) 0.6185(5) 0.1782(4)
C51 C 0.7590(6) 0.5360(5) 0.1518(5)
H32 H 0.7081 0.4914 0.1602
C52 C 0.8672(6) 0.5195(5) 0.1134(5)
H33 H 0.8908 0.4635 0.0953
C53 C 0.9399(6) 0.5845(5) 0.1016(5)
H34 H 1.0135 0.5731 0.0748
C54 C 0.9081(6) 0.6666(5) 0.1282(4)
H35 H 0.9596 0.7107 0.1203
C55 C 0.8018(6) 0.6827(5) 0.1657(4)
H36 H 0.7791 0.7389 0.1837
P1 P 0.59219(16) 0.63811(12) 0.23523(11)
C56 C 0.8548(17) 0.3871(10) 0.7079(10)
H37 H 0.8202 0.3928 0.7624
H38 H 0.9212 0.335 0.7175
Cl1 Cl 0.7539(5) 0.3595(5) 0.6541(4)
Cl2 Cl 0.9073(8) 0.4820(7) 0.6676(5)
C57 C 0.172(3) 0.7326(18) 0.6317(13)
H39 H 0.1633 0.8003 0.6263
H40 H 0.0932 0.7164 0.6287
Cl3 Cl 0.2630(6) 0.6986(4) 0.5538(4)
Cl4 Cl 0.2323(9) 0.6788(6) 0.7173(5)
loop_
_geom_bond_atom_site_label_1
_geom_bond_atom_site_label_2
_geom_bond_site_symmetry_1
_geom_bond_site_symmetry_2
C1 C2 1_555 1_555
C2 C3 1_555 1_555
C3 C4 1_555 1_555
C4 H1 1_555 1_555
C5 C4 1_555 1_555
H2 C5 1_555 1_555
C6 C5 1_555 1_555
H3 C6 1_555 1_555
C7 C3 1_555 1_555
H4 C7 1_555 1_555
C8 H5 1_555 1_555
C9 C8 1_555 1_555
H6 C9 1_555 1_555
C10 C9 1_555 1_555
H7 C10 1_555 1_555
C11 C10 1_555 1_555
H8 C11 1_555 1_555
C12 C8 1_555 1_555
H9 C12 1_555 1_555
C13 C14 1_555 1_555
C14 C15 1_555 1_555
C15 C16 1_555 1_555
C16 H10 1_555 1_555
C17 C16 1_555 1_555
H11 C17 1_555 1_555
C18 C17 1_555 1_555
H12 C18 1_555 1_555
C19 C15 1_555 1_555
H13 C19 1_555 1_555
C20 H14 1_555 1_555
C21 C20 1_555 1_555
H15 C21 1_555 1_555
C22 C21 1_555 1_555
H16 C22 1_555 1_555
C23 C22 1_555 1_555
H17 C23 1_555 1_555
C24 C20 1_555 1_555
H18 C24 1_555 1_555
C25 C26 1_555 1_555
C26 C27 1_555 1_555
C27 C28 1_555 1_555
C28 C29 1_555 1_555
C29 C30 1_555 1_555
C30 C25 1_555 1_555
C31 C32 1_555 1_555
C32 C33 1_555 1_555
C33 C34 1_555 1_555
C34 C35 1_555 1_555
C35 C36 1_555 1_555
C36 C31 1_555 1_555
C37 H19 1_555 1_555
H20 C37 1_555 1_555
H21 C37 1_555 1_555
C38 C39 1_555 1_555
C39 H22 1_555 1_555
C40 C39 1_555 1_555
H23 C40 1_555 1_555
C41 C40 1_555 1_555
H24 C41 1_555 1_555
C42 C41 1_555 1_555
H25 C42 1_555 1_555
C43 C38 1_555 1_555
H26 C43 1_555 1_555
C44 C45 1_555 1_555
C45 H27 1_555 1_555
C46 C45 1_555 1_555
H28 C46 1_555 1_555
C47 C46 1_555 1_555
H29 C47 1_555 1_555
C48 C47 1_555 1_555
H30 C48 1_555 1_555
C49 C44 1_555 1_555
H31 C49 1_555 1_555
C50 C51 1_555 1_555
C51 H32 1_555 1_555
C52 C51 1_555 1_555
H33 C52 1_555 1_555
C53 C52 1_555 1_555
H34 C53 1_555 1_555
C54 C53 1_555 1_555
H35 C54 1_555 1_555
C55 C50 1_555 1_555
H36 C55 1_555 1_555
C56 H37 1_555 1_555
H38 C56 1_555 1_555
C57 H39 1_555 1_555
H40 C57 1_555 1_555
F1 C26 1_555 1_555
F2 C27 1_555 1_555
F3 C28 1_555 1_555
F4 C29 1_555 1_555
F5 C30 1_555 1_555
F6 C32 1_555 1_555
F7 C33 1_555 1_555
F8 C34 1_555 1_555
F9 C35 1_555 1_555
F10 C36 1_555 1_555
Fe1 C3 1_555 1_555
Fe2 C15 1_555 1_555
P1 C37 1_555 1_555
Pt1 C1 1_555 1_555
Tl1 F5 1_555 1_555
Tl2 F1 1_555 1_555
Cl1 C56 1_555 1_555
Cl2 C56 1_555 1_555
Cl3 C57 1_555 1_555
Cl4 C57 1_555 1_555
C1A C2A 1_555 1_555
C2A C3A 1_555 1_555
C3A C4A 1_555 1_555
C4A H1A 1_555 1_555
C5A C4A 1_555 1_555
H2A C5A 1_555 1_555
C6A C5A 1_555 1_555
H3A C6A 1_555 1_555
C7A C3A 1_555 1_555
H4A C7A 1_555 1_555
C8A H5A 1_555 1_555
C9A C8A 1_555 1_555
H6A C9A 1_555 1_555
C10A C9A 1_555 1_555
H7A C10A 1_555 1_555
C11A C10A 1_555 1_555
H8A C11A 1_555 1_555
C12A C8A 1_555 1_555
H9A C12A 1_555 1_555
C13A C14A 1_555 1_555
C14A C15A 1_555 1_555
C15A C16A 1_555 1_555
C16A H10A 1_555 1_555
C17A C16A 1_555 1_555
H11A C17A 1_555 1_555
C18A C17A 1_555 1_555
H12A C18A 1_555 1_555
C19A C15A 1_555 1_555
H13A C19A 1_555 1_555
C20A H14A 1_555 1_555
C21A C20A 1_555 1_555
H15A C21A 1_555 1_555
C22A C21A 1_555 1_555
H16A C22A 1_555 1_555
C23A C22A 1_555 1_555
H17A C23A 1_555 1_555
C24A C20A 1_555 1_555
H18A C24A 1_555 1_555
C25A C26A 1_555 1_555
C26A C27A 1_555 1_555
C27A C28A 1_555 1_555
C28A C29A 1_555 1_555
C29A C30A 1_555 1_555
C30A C25A 1_555 1_555
C31A C32A 1_555 1_555
C32A C33A 1_555 1_555
C33A C34A 1_555 1_555
C34A C35A 1_555 1_555
C35A C36A 1_555 1_555
C36A C31A 1_555 1_555
F1A C26A 1_555 1_555
F1A_2 Tl2 1_555 1_555
F2A C27A 1_555 1_555
F3A C28A 1_555 1_555
F4A C29A 1_555 1_555
F5A Tl1 1_555 1_555
F6A C32A 1_555 1_555
F7A C33A 1_555 1_555
F8A C34A 1_555 1_555
F9A C35A 1_555 1_555
F10A C36A 1_555 1_555
Fe1A C3A 1_555 1_555
Fe2A C15A 1_555 1_555
Pt1A Tl1 1_555 1_555
Pt1A_2 Tl2 1_555 1_555
Tl2_2 F1A 1_555 1_555
C4 Fe1 1_555 1_555
C5 Fe1 1_555 1_555
C6 C7 1_555 1_555
C6 Fe1 1_555 1_555
C7 Fe1 1_555 1_555
C8 Fe1 1_555 1_555
C9 Fe1 1_555 1_555
C10 Fe1 1_555 1_555
C11 C12 1_555 1_555
C11 Fe1 1_555 1_555
C12 Fe1 1_555 1_555
C13 Pt1 1_555 1_555
C16 Fe2 1_555 1_555
C17 Fe2 1_555 1_555
C18 C19 1_555 1_555
C18 Fe2 1_555 1_555
C19 Fe2 1_555 1_555
C20 Fe2 1_555 1_555
C21 Fe2 1_555 1_555
C22 Fe2 1_555 1_555
C23 C24 1_555 1_555
C23 Fe2 1_555 1_555
C24 Fe2 1_555 1_555
C25 Pt1 1_555 1_555
C31 Pt1 1_555 1_555
C38 P1 1_555 1_555
C42 C43 1_555 1_555
C44 P1 1_555 1_555
C48 C49 1_555 1_555
C50 P1 1_555 1_555
C54 C55 1_555 1_555
Pt1 Tl1 1_555 1_555
Pt1 Tl2 1_555 1_555
C1A Pt1A 1_555 1_555
C4A Fe1A 1_555 1_555
C5A Fe1A 1_555 1_555
C6A C7A 1_555 1_555
C6A Fe1A 1_555 1_555
C7A Fe1A 1_555 1_555
C8A Fe1A 1_555 1_555
C9A Fe1A 1_555 1_555
C10A Fe1A 1_555 1_555
C11A C12A 1_555 1_555
C11A Fe1A 1_555 1_555
C12A Fe1A 1_555 1_555
C13A Pt1A 1_555 1_555
C16A Fe2A 1_555 1_555
C17A Fe2A 1_555 1_555
C18A C19A 1_555 1_555
C18A Fe2A 1_555 1_555
C19A Fe2A 1_555 1_555
C20A Fe2A 1_555 1_555
C21A Fe2A 1_555 1_555
C22A Fe2A 1_555 1_555
C23A C24A 1_555 1_555
C23A Fe2A 1_555 1_555
C24A Fe2A 1_555 1_555
C25A Pt1A 1_555 1_555
C30A F5A 1_555 1_555
C31A Pt1A 1_555 1_555
Pt1A Tl2_2 1_555 1_555

#END
