
#######################################################################
#
#                 Cambridge Crystallographic Data Centre
#                                CCDC 
#
#######################################################################
#
# If this CIF has been generated from an entry in the Cambridge 
# Structural Database, then it will include bibliographic, chemical, 
# crystal, experimental, refinement or atomic coordinate data resulting 
# from the CCDC's data processing and validation procedures.
#
#######################################################################

data_EWUSUL
_symmetry_cell_setting           orthorhombic
_symmetry_space_group_name_H-M   'F d d d'
_symmetry_Int_Tables_number      70
_space_group_name_Hall           '-F 2uv 2vw'
loop_
_symmetry_equiv_pos_site_id
_symmetry_equiv_pos_as_xyz
1 x,y,z
2 3/4-x,3/4-y,z
3 3/4-x,y,3/4-z
4 x,3/4-y,3/4-z
5 x,1/2+y,1/2+z
6 3/4-x,1/4-y,1/2+z
7 3/4-x,1/2+y,1/4-z
8 x,1/4-y,1/4-z
9 1/2+x,y,1/2+z
10 1/4-x,3/4-y,1/2+z
11 1/4-x,y,1/4-z
12 1/2+x,3/4-y,1/4-z
13 1/2+x,1/2+y,z
14 1/4-x,1/4-y,z
15 1/4-x,1/2+y,3/4-z
16 1/2+x,1/4-y,3/4-z
17 -x,-y,-z
18 1/4+x,1/4+y,-z
19 1/4+x,-y,1/4+z
20 -x,1/4+y,1/4+z
21 -x,1/2-y,1/2-z
22 1/4+x,3/4+y,1/2-z
23 1/4+x,1/2-y,3/4+z
24 -x,3/4+y,3/4+z
25 1/2-x,-y,1/2-z
26 3/4+x,1/4+y,1/2-z
27 3/4+x,-y,3/4+z
28 1/2-x,1/4+y,3/4+z
29 1/2-x,1/2-y,-z
30 3/4+x,3/4+y,-z
31 3/4+x,1/2-y,1/4+z
32 1/2-x,3/4+y,1/4+z
_cell_length_a                   25.569(4)
_cell_length_b                   29.638(4)
_cell_length_c                   58.594(9)
_cell_angle_alpha                90
_cell_angle_beta                 90
_cell_angle_gamma                90
_cell_volume                     44403.4
loop_
_atom_site_label
_atom_site_type_symbol
_atom_site_fract_x
_atom_site_fract_y
_atom_site_fract_z
W1 W 1.03549(2) 0.240000(18) 0.984440(12)
Cu1 Cu 0.95446(7) 0.18483(5) 0.99246(4)
Cu2 Cu 1.00437(10) 0.29226(7) 1.01875(4)
Cu3 Cu 0.96774(7) 0.28729(5) 0.95897(3)
N1 N 0.6094(4) 0.2011(4) 1.0313(2)
N2 N 0.8778(4) 0.1907(4) 1.0001(2)
N3 N 0.9663(5) 0.3173(4) 0.9281(2)
N4 N 0.9679(4) 0.1153(3) 0.9940(3)
O1 O 1.0990(4) 0.2241(4) 0.9790(2)
S1 S 1.00937(19) 0.21598(14) 1.01884(8)
S2 S 0.98148(14) 0.21096(11) 0.95796(7)
S3 S 1.02868(15) 0.31582(12) 0.98371(7)
Cl1 Cl 0.9543(3) 0.3336(2) 1.04385(10)
C1 C 0.6482(7) 0.2164(6) 1.0438(3)
H1 H 0.6388 0.2303 1.0574
C2 C 0.7003(6) 0.2146(7) 1.0393(3)
H2 H 0.7245 0.2258 1.0497
C3 C 0.7169(5) 0.1950(4) 1.0183(3)
C4 C 0.6760(6) 0.1803(7) 1.0045(4)
H3 H 0.6837 0.1685 0.9902
C5 C 0.6249(6) 0.1826(6) 1.0114(3)
H4 H 0.5995 0.1708 1.0017
C6 C 0.7711(5) 0.1934(4) 1.0119(3)
C7 C 0.8095(9) 0.2053(8) 1.0274(4)
H5 H 0.8012 0.2132 1.0423
C8 C 0.8636(10) 0.2050(8) 1.0193(4)
H6 H 0.8892 0.2162 1.0290
C9 C 0.8399(7) 0.1771(6) 0.9867(3)
H7 H 0.8494 0.1659 0.9724
C10 C 0.7879(7) 0.1778(6) 0.9917(3)
H8 H 0.7639 0.1674 0.9810
C11 C 0.9605(8) 0.3602(9) 0.9273(4)
H9 H 0.9568 0.3761 0.9409
C12 C 0.9596(8) 0.3855(9) 0.9053(4)
H10 H 0.9561 0.4168 0.9055
C13 C 0.9635(8) 0.3649(9) 0.8857(4)
C14 C 0.9674(8) 0.3199(8) 0.8885(4)
H11 H 0.9667 0.3026 0.8752
C15 C 0.9724(9) 0.2959(9) 0.9091(4)
H12 H 0.9799 0.2653 0.9091
C16 C 1.0127(8) 0.0998(5) 0.9871(6)
H13 H 1.0364 0.1194 0.9803
C17 C 1.0264(7) 0.0547(6) 0.9897(5)
H14 H 1.0596 0.0455 0.9852
C18 C 0.9930(5) 0.0237(4) 0.9984(3)
C19 C 0.9458(5) 0.0416(4) 1.0049(3)
H15 H 0.9204 0.0222 1.0107
C20 C 0.9345(6) 0.0858(5) 1.0032(3)
H16 H 0.9025 0.0961 1.0086
W1BA W 0.46451(2) 0.260000(18) 1.015560(12)
Cu1BA Cu 0.54554(7) 0.31517(5) 1.00754(4)
Cu1P Cu 1.04554(7) -0.18483(5) 1.00754(4)
Cu2BA Cu 0.49563(10) 0.20774(7) 0.98125(4)
Cu3BA Cu 0.53226(7) 0.21271(5) 1.04103(3)
Cu3C Cu 0.96774(7) 0.46271(5) 0.79103(3)
N1BA N 0.8906(4) 0.2989(4) 0.9687(2)
N2BA N 0.6222(4) 0.3093(4) 0.9999(2)
N3C N 0.9663(5) 0.4327(4) 0.8219(2)
N3BA N 0.5337(5) 0.1827(4) 1.0719(2)
N4P N 1.0321(4) -0.1153(3) 1.0060(3)
N4BA N 0.5321(4) 0.3847(3) 1.0060(3)
O1BA O 0.4010(4) 0.2759(4) 1.0210(2)
S1BA S 0.49063(19) 0.28402(14) 0.98116(8)
S2BA S 0.51852(14) 0.28904(11) 1.04204(7)
S3BA S 0.47132(15) 0.18418(12) 1.01629(7)
Cl1BA Cl 0.5457(3) 0.1664(2) 0.95615(10)
C1BA C 0.8518(7) 0.2836(6) 0.9562(3)
H1BA H 0.8612 0.2697 0.9426
C2BA C 0.7997(6) 0.2854(7) 0.9607(3)
H2BA H 0.7755 0.2742 0.9503
C3BA C 0.7831(5) 0.3050(4) 0.9817(3)
C4BA C 0.8240(6) 0.3197(7) 0.9955(4)
H3BA H 0.8163 0.3315 1.0098
C5BA C 0.8751(6) 0.3174(6) 0.9886(3)
H4BA H 0.9005 0.3292 0.9983
C6BA C 0.7289(5) 0.3066(4) 0.9881(3)
C7BA C 0.6905(9) 0.2947(8) 0.9726(4)
H5BA H 0.6988 0.2868 0.9577
C8BA C 0.6364(10) 0.2950(8) 0.9807(4)
H6BA H 0.6108 0.2838 0.9710
C9BA C 0.6601(7) 0.3229(6) 1.0133(3)
H7BA H 0.6506 0.3341 1.0276
C10BA C 0.7121(7) 0.3222(6) 1.0083(3)
H8BA H 0.7361 0.3326 1.0190
C11C C 0.9605(8) 0.3898(9) 0.8227(4)
H9C H 0.9568 0.3739 0.8091
C12C C 0.9596(8) 0.3645(9) 0.8447(4)
H10C H 0.9561 0.3332 0.8445
C13C C 0.9635(8) 0.3851(9) 0.8643(4)
C14C C 0.9674(8) 0.4301(8) 0.8615(4)
H11C H 0.9667 0.4474 0.8748
C15C C 0.9724(9) 0.4541(9) 0.8409(4)
H12C H 0.9799 0.4847 0.8409
C16P C 0.9873(8) -0.0998(5) 1.0129(6)
H13P H 0.9636 -0.1194 1.0197
C17P C 0.9736(7) -0.0547(6) 1.0103(5)
H14P H 0.9404 -0.0455 1.0148
C18P C 1.0070(5) -0.0237(4) 1.0016(3)
C19P C 1.0542(5) -0.0416(4) 0.9951(3)
H15P H 1.0796 -0.0222 0.9893
C20P C 1.0655(6) -0.0858(5) 0.9968(3)
H16P H 1.0975 -0.0961 0.9914
loop_
_geom_bond_atom_site_label_1
_geom_bond_atom_site_label_2
_geom_bond_site_symmetry_1
_geom_bond_site_symmetry_2
W1 Cu1 1_555 1_555
Cu1 N2 1_555 1_555
Cu2 W1 1_555 1_555
Cu3 W1 1_555 1_555
N1 C1 1_555 1_555
N2 C8 1_555 1_555
N3 Cu3 1_555 1_555
N4 Cu1 1_555 1_555
O1 W1 1_555 1_555
S1 W1 1_555 1_555
S2 W1 1_555 1_555
S3 W1 1_555 1_555
Cl1 Cu2 1_555 1_555
C1 H1 1_555 1_555
C2 C1 1_555 1_555
H2 C2 1_555 1_555
C3 C2 1_555 1_555
C4 C3 1_555 1_555
H3 C4 1_555 1_555
C5 N1 1_555 1_555
H4 C5 1_555 1_555
C6 C3 1_555 1_555
C7 C6 1_555 1_555
H5 C7 1_555 1_555
C8 C7 1_555 1_555
H6 C8 1_555 1_555
C9 N2 1_555 1_555
H7 C9 1_555 1_555
C10 C6 1_555 1_555
H8 C10 1_555 1_555
C11 N3 1_555 1_555
H9 C11 1_555 1_555
C12 C11 1_555 1_555
H10 C12 1_555 1_555
C13 C12 1_555 1_555
C14 C13 1_555 1_555
H11 C14 1_555 1_555
C15 N3 1_555 1_555
H12 C15 1_555 1_555
C16 N4 1_555 1_555
H13 C16 1_555 1_555
C17 C16 1_555 1_555
H14 C17 1_555 1_555
C18 C17 1_555 1_555
C19 C18 1_555 1_555
H15 C19 1_555 1_555
C20 N4 1_555 1_555
H16 C20 1_555 1_555
W1BA Cu1BA 1_555 1_555
Cu1BA N2BA 1_555 1_555
Cu1P N4P 1_555 1_555
Cu2BA W1BA 1_555 1_555
Cu3BA N1 1_555 1_555
Cu3C N3C 1_555 1_555
N1BA Cu3 1_555 1_555
N2BA C8BA 1_555 1_555
N3C C11C 1_555 1_555
N3BA Cu3BA 1_555 1_555
N4P C16P 1_555 1_555
N4BA Cu1BA 1_555 1_555
O1BA W1BA 1_555 1_555
S1BA W1BA 1_555 1_555
S2BA W1BA 1_555 1_555
S3BA W1BA 1_555 1_555
Cl1BA Cu2BA 1_555 1_555
C1BA N1BA 1_555 1_555
H1BA C1BA 1_555 1_555
C2BA C1BA 1_555 1_555
H2BA C2BA 1_555 1_555
C3BA C2BA 1_555 1_555
C4BA C3BA 1_555 1_555
H3BA C4BA 1_555 1_555
C5BA N1BA 1_555 1_555
H4BA C5BA 1_555 1_555
C6BA C3BA 1_555 1_555
C7BA C6BA 1_555 1_555
H5BA C7BA 1_555 1_555
C8BA C7BA 1_555 1_555
H6BA C8BA 1_555 1_555
C9BA N2BA 1_555 1_555
H7BA C9BA 1_555 1_555
C10BA C6BA 1_555 1_555
H8BA C10BA 1_555 1_555
C11C H9C 1_555 1_555
C12C C11C 1_555 1_555
H10C C12C 1_555 1_555
C13C C13 1_555 1_555
C14C C13C 1_555 1_555
H11C C14C 1_555 1_555
C15C N3C 1_555 1_555
H12C C15C 1_555 1_555
C16P H13P 1_555 1_555
C17P C16P 1_555 1_555
H14P C17P 1_555 1_555
C18P C18 1_555 1_555
C19P C18P 1_555 1_555
H15P C19P 1_555 1_555
C20P N4P 1_555 1_555
H16P C20P 1_555 1_555
Cu1 S1 1_555 1_555
Cu1 S2 1_555 1_555
Cu2 S1 1_555 1_555
Cu2 S3 1_555 1_555
Cu3 S2 1_555 1_555
Cu3 S3 1_555 1_555
C4 C5 1_555 1_555
C9 C10 1_555 1_555
C14 C15 1_555 1_555
C19 C20 1_555 1_555
W1BA Cu3BA 1_555 1_555
Cu1BA S1BA 1_555 1_555
Cu1BA S2BA 1_555 1_555
Cu2BA S1BA 1_555 1_555
Cu2BA S3BA 1_555 1_555
Cu3BA S2BA 1_555 1_555
Cu3BA S3BA 1_555 1_555
C4BA C5BA 1_555 1_555
C9BA C10BA 1_555 1_555
C12C C13C 1_555 1_555
C14C C15C 1_555 1_555
C17P C18P 1_555 1_555
C19P C20P 1_555 1_555

#END
