
#######################################################################
#
#                 Cambridge Crystallographic Data Centre
#                                CCDC 
#
#######################################################################
#
# If this CIF has been generated from an entry in the Cambridge 
# Structural Database, then it will include bibliographic, chemical, 
# crystal, experimental, refinement or atomic coordinate data resulting 
# from the CCDC's data processing and validation procedures.
#
#######################################################################

data_EXABAH
_symmetry_cell_setting           orthorhombic
_symmetry_space_group_name_H-M   'P b c a'
_symmetry_Int_Tables_number      61
_space_group_name_Hall           '-P 2ac 2ab'
loop_
_symmetry_equiv_pos_site_id
_symmetry_equiv_pos_as_xyz
1 x,y,z
2 1/2-x,-y,1/2+z
3 1/2+x,1/2-y,-z
4 -x,1/2+y,1/2-z
5 -x,-y,-z
6 1/2+x,y,1/2-z
7 1/2-x,1/2+y,z
8 x,1/2-y,1/2+z
_cell_length_a                   15.8860(8)
_cell_length_b                   11.7800(6)
_cell_length_c                   16.2770(12)
_cell_angle_alpha                90
_cell_angle_beta                 90
_cell_angle_gamma                90
_cell_volume                     3046.03
loop_
_atom_site_label
_atom_site_type_symbol
_atom_site_fract_x
_atom_site_fract_y
_atom_site_fract_z
N1 N 0.26808(9) 0.11083(13) 0.36143(11)
N2 N 0.20003(10) 0.17844(13) 0.21883(11)
N3 N 0.23740(9) 0.36566(13) 0.23658(10)
O1 O 0.08551(8) -0.01967(12) 0.27748(10)
F1 F 0.18968(8) 0.54397(10) 0.11168(8)
F2 F 0.10067(8) 0.47339(11) -0.02065(8)
F3 F 0.06093(9) 0.25337(12) -0.04169(8)
F4 F 0.10653(9) 0.09459(11) 0.07134(8)
C1 C 0.23758(11) 0.25758(16) 0.26568(12)
C2 C 0.17182(12) 0.23916(16) 0.15274(13)
C3 C 0.19415(11) 0.35394(16) 0.16304(12)
C4 C 0.16992(12) 0.43275(17) 0.10442(13)
C5 C 0.12517(13) 0.39773(18) 0.03752(13)
C6 C 0.10406(13) 0.2845(2) 0.02645(13)
C7 C 0.12719(13) 0.20478(18) 0.08315(14)
C8 C 0.27554(11) 0.22249(16) 0.34441(13)
C9 C 0.31718(12) 0.29648(18) 0.39634(13)
H1 H 0.3192 0.3761 0.3839
C10 C 0.35353(14) 0.2558(2) 0.46769(14)
H2 H 0.3847 0.3061 0.5027
C11 C 0.34715(14) 0.14200(19) 0.48483(15)
H3 H 0.3701 0.1127 0.5351
C12 C 0.30412(13) 0.07335(18) 0.43063(14)
H4 H 0.3014 -0.0059 0.4440
C13 C 0.04055(15) -0.1122(2) 0.2418(2)
H5 H 0.0780 -0.1568 0.2087
H6 H 0.0181 -0.1583 0.2852
C14 C -0.02848(14) -0.0612(2) 0.19112(17)
H7 H -0.0115 -0.0595 0.1345
H8 H -0.0788 -0.1057 0.1965
C15 C -0.04027(14) 0.0570(2) 0.22652(16)
H9 H -0.0960 0.0689 0.2475
H10 H -0.0273 0.1147 0.1869
C16 C 0.02287(13) 0.0635(2) 0.29642(16)
H11 H -0.0029 0.0448 0.3480
H12 H 0.0486 0.1370 0.3001
Li1 Li 0.20504(19) 0.0192(3) 0.2661(2)
N3F N 0.26260(9) -0.13434(13) 0.23658(10)
Li1F Li 0.29496(19) 0.5192(3) 0.2661(2)
loop_
_geom_bond_atom_site_label_1
_geom_bond_atom_site_label_2
_geom_bond_site_symmetry_1
_geom_bond_site_symmetry_2
N1 C8 1_555 1_555
N2 C1 1_555 1_555
N3 C1 1_555 1_555
O1 C13 1_555 1_555
F1 C4 1_555 1_555
F2 C5 1_555 1_555
F3 C6 1_555 1_555
F4 C7 1_555 1_555
C1 C8 1_555 1_555
C2 N2 1_555 1_555
C3 N3 1_555 1_555
C4 C3 1_555 1_555
C5 C4 1_555 1_555
C6 C5 1_555 1_555
C7 C2 1_555 1_555
C8 C9 1_555 1_555
C9 H1 1_555 1_555
C10 C9 1_555 1_555
H2 C10 1_555 1_555
C11 C10 1_555 1_555
H3 C11 1_555 1_555
C12 N1 1_555 1_555
H4 C12 1_555 1_555
C13 H5 1_555 1_555
H6 C13 1_555 1_555
C14 C13 1_555 1_555
H7 C14 1_555 1_555
H8 C14 1_555 1_555
C15 C14 1_555 1_555
H9 C15 1_555 1_555
H10 C15 1_555 1_555
C16 O1 1_555 1_555
H11 C16 1_555 1_555
H12 C16 1_555 1_555
Li1 N1 1_555 1_555
N3F Li1 1_555 1_555
Li1F N3 1_555 1_555
N2 Li1 1_555 1_555
O1 Li1 1_555 1_555
C2 C3 1_555 1_555
C6 C7 1_555 1_555
C11 C12 1_555 1_555
C15 C16 1_555 1_555

#END
