
#######################################################################
#
#                 Cambridge Crystallographic Data Centre
#                                CCDC 
#
#######################################################################
#
# If this CIF has been generated from an entry in the Cambridge 
# Structural Database, then it will include bibliographic, chemical, 
# crystal, experimental, refinement or atomic coordinate data resulting 
# from the CCDC's data processing and validation procedures.
#
#######################################################################

data_EXACAI
_symmetry_cell_setting           orthorhombic
_symmetry_space_group_name_H-M   'P 21 21 21'
_symmetry_Int_Tables_number      19
_space_group_name_Hall           'P 2ac 2ab'
loop_
_symmetry_equiv_pos_site_id
_symmetry_equiv_pos_as_xyz
1 x,y,z
2 1/2-x,-y,1/2+z
3 -x,1/2+y,1/2-z
4 1/2+x,1/2-y,-z
_cell_length_a                   12.957(4)
_cell_length_b                   14.192(4)
_cell_length_c                   19.006(5)
_cell_angle_alpha                90
_cell_angle_beta                 90
_cell_angle_gamma                90
_cell_volume                     3494.93
loop_
_atom_site_label
_atom_site_type_symbol
_atom_site_fract_x
_atom_site_fract_y
_atom_site_fract_z
Eu1 Eu 0.711517(19) -0.000341(17) 0.884282(12)
Eu2 Eu 0.77232(2) 0.020475(16) 0.671904(12)
C1 C 1.0130(4) 0.0953(3) 0.8278(3)
H1 H 1.0000 0.0684 0.8745
C2 C 1.1225(5) 0.0702(4) 0.8074(3)
H2 H 1.1245 0.0472 0.7593
H3 H 1.1490 0.0212 0.8381
C3 C 1.1880(5) 0.1595(4) 0.8144(3)
H4 H 1.2006 0.1875 0.7686
H5 H 1.2538 0.1455 0.8363
C4 C 1.1237(5) 0.2262(4) 0.8609(3)
C5 C 1.0104(4) 0.2062(4) 0.8353(3)
C6 C 0.9319(4) 0.0565(4) 0.7784(3)
C7 C 1.1536(4) 0.3303(4) 0.8510(3)
C8 C 1.1387(6) 0.1995(5) 0.9381(3)
H6 H 1.2086 0.2124 0.9518
H7 H 1.1245 0.1337 0.9442
H8 H 1.0924 0.2358 0.9668
C9 C 0.9903(7) 0.2533(5) 0.7633(4)
H9 H 0.9893 0.3205 0.7689
H10 H 0.9250 0.2325 0.7451
H11 H 1.0441 0.2361 0.7310
C10 C 0.9284(5) 0.2382(5) 0.8866(4)
H12 H 0.9292 0.3057 0.8898
H13 H 0.9420 0.2116 0.9321
H14 H 0.8619 0.2176 0.8704
C11 C 0.4472(5) -0.0667(4) 0.7365(3)
C12 C 0.3568(5) -0.0663(6) 0.7885(4)
H15 H 0.3821 -0.0761 0.8359
H16 H 0.3219 -0.0059 0.7869
C13 C 0.2855(7) -0.1406(5) 0.7698(5)
H17 H 0.2209 -0.1137 0.7536
H18 H 0.2713 -0.1796 0.8106
C14 C 0.3329(5) -0.1993(4) 0.7125(4)
H19 H 0.3004 -0.1797 0.6683
C15 C 0.4491(5) -0.1714(4) 0.7072(3)
C16 C 0.5476(4) -0.0431(4) 0.7738(3)
C17 C 0.3143(4) -0.3043(4) 0.7197(3)
C18 C 0.4290(5) 0.0057(5) 0.6781(4)
H20 H 0.4280 0.0679 0.6981
H21 H 0.3641 -0.0068 0.6557
H22 H 0.4836 0.0015 0.6441
C19 C 0.5138(7) -0.2357(5) 0.7539(5)
H23 H 0.5140 -0.2982 0.7347
H24 H 0.4849 -0.2370 0.8004
H25 H 0.5833 -0.2123 0.7561
C20 C 0.4925(7) -0.1807(5) 0.6337(4)
H26 H 0.4912 -0.2457 0.6197
H27 H 0.5624 -0.1582 0.6330
H28 H 0.4515 -0.1442 0.6016
C21 C 0.5622(4) -0.2267(4) 1.0174(3)
C22 C 0.5178(5) -0.2436(5) 0.9522(3)
H29 H 0.5304 -0.2021 0.9153
C23 C 0.4560(6) -0.3198(4) 0.9411(3)
H30 H 0.4265 -0.3289 0.8970
C24 C 0.4362(4) -0.3845(4) 0.9948(3)
C25 C 0.4806(5) -0.3673(4) 1.0612(3)
H31 H 0.4684 -0.4086 1.0983
C26 C 0.5420(5) -0.2894(4) 1.0712(3)
H32 H 0.5707 -0.2787 1.1153
C27 C 0.6301(5) -0.1429(4) 1.0292(3)
C28 C 0.3716(4) -0.4681(4) 0.9823(3)
O1 O 0.8431(3) 0.0326(3) 0.80171(19)
O2 O 0.9482(3) 0.0474(3) 0.7138(2)
O3 O 1.1319(3) 0.3905(3) 0.8968(2)
O4 O 1.1996(4) 0.3568(3) 0.7960(2)
O5 O 0.6297(3) -0.0279(3) 0.7396(2)
O6 O 0.5474(3) -0.0397(3) 0.8395(2)
O7 O 0.3301(4) -0.3531(3) 0.6654(2)
O8 O 0.2868(4) -0.3367(3) 0.77840(19)
O9 O 0.6540(4) -0.1228(3) 1.0910(2)
O10 O 0.6608(4) -0.0987(3) 0.9757(2)
O11 O 0.3463(3) -0.5184(3) 1.03578(18)
O12 O 0.3432(3) -0.4887(3) 0.92104(18)
O14 O 0.7611(4) -0.1517(2) 0.8432(2)
H40 H 0.7628 -0.1988 0.8708
H41 H 0.8056 -0.1569 0.8106
O15 O 0.6172(4) 0.1003(3) 0.9632(2)
H42 H 0.638(6) 0.107(4) 1.0052(15)
H43 H 0.601(5) 0.153(2) 0.9458(16)
Eu1B Eu 0.288483(19) -0.500341(17) 0.615718(12)
Eu1C Eu 0.211517(19) -0.499659(17) 1.115718(12)
Eu2B Eu 1.22768(2) 0.520475(16) 0.828096(12)
Eu2B_2 Eu 0.22768(2) -0.479525(16) 0.828096(12)
Eu2A Eu 0.72768(2) -0.020475(16) 1.171904(12)
O3B O 0.8681(3) -0.1095(3) 0.6032(2)
O4B O 0.8004(4) -0.1432(3) 0.7040(2)
O7B O 0.6699(4) 0.1469(3) 0.8346(2)
O8B O 0.7132(4) 0.1633(3) 0.72160(19)
O9A O 0.8460(4) 0.1228(3) 0.5910(2)
O11C O 0.8463(3) 0.0184(3) 0.96422(18)
O12B O 0.6568(3) 0.0113(3) 0.57896(18)
N1 N 1.1665(5) 0.0636(4) 0.5393(3)
O13 O 1.2172(6) 0.1742(4) 0.6162(4)
C29 C 1.1567(6) 0.1121(5) 0.5971(4)
H33 H 1.1005 0.0990 0.6259
C30 C 1.2536(7) 0.0833(9) 0.4932(6)
H34 H 1.2956 0.1317 0.5137
H35 H 1.2286 0.1040 0.4482
H36 H 1.2939 0.0271 0.4873
C31 C 1.0943(7) -0.0089(6) 0.5174(6)
H37 H 1.0391 -0.0131 0.5510
H38 H 1.1294 -0.0684 0.5148
H39 H 1.0666 0.0067 0.4721
loop_
_geom_bond_atom_site_label_1
_geom_bond_atom_site_label_2
_geom_bond_site_symmetry_1
_geom_bond_site_symmetry_2
Eu1 O1 1_555 1_555
Eu2 O1 1_555 1_555
C1 H1 1_555 1_555
C2 C1 1_555 1_555
H2 C2 1_555 1_555
H3 C2 1_555 1_555
C3 C2 1_555 1_555
H4 C3 1_555 1_555
H5 C3 1_555 1_555
C4 C3 1_555 1_555
C5 C1 1_555 1_555
C6 C1 1_555 1_555
C7 C4 1_555 1_555
C8 C4 1_555 1_555
H6 C8 1_555 1_555
H7 C8 1_555 1_555
H8 C8 1_555 1_555
C9 C5 1_555 1_555
H9 C9 1_555 1_555
H10 C9 1_555 1_555
H11 C9 1_555 1_555
C10 C5 1_555 1_555
H12 C10 1_555 1_555
H13 C10 1_555 1_555
H14 C10 1_555 1_555
C11 C12 1_555 1_555
C12 H15 1_555 1_555
H16 C12 1_555 1_555
C13 C12 1_555 1_555
H17 C13 1_555 1_555
H18 C13 1_555 1_555
C14 C13 1_555 1_555
H19 C14 1_555 1_555
C15 C11 1_555 1_555
C16 C11 1_555 1_555
C17 C14 1_555 1_555
C18 C11 1_555 1_555
H20 C18 1_555 1_555
H21 C18 1_555 1_555
H22 C18 1_555 1_555
C19 C15 1_555 1_555
H23 C19 1_555 1_555
H24 C19 1_555 1_555
H25 C19 1_555 1_555
C20 C15 1_555 1_555
H26 C20 1_555 1_555
H27 C20 1_555 1_555
H28 C20 1_555 1_555
C21 C22 1_555 1_555
C22 H29 1_555 1_555
C23 C22 1_555 1_555
H30 C23 1_555 1_555
C24 C23 1_555 1_555
C25 C24 1_555 1_555
H31 C25 1_555 1_555
C26 C21 1_555 1_555
H32 C26 1_555 1_555
C27 C21 1_555 1_555
C28 C24 1_555 1_555
O1 C6 1_555 1_555
O2 Eu2 1_555 1_555
O3 C7 1_555 1_555
O4 C7 1_555 1_555
O5 Eu2 1_555 1_555
O6 Eu1 1_555 1_555
O7 C17 1_555 1_555
O8 C17 1_555 1_555
O9 C27 1_555 1_555
O10 Eu1 1_555 1_555
O11 C28 1_555 1_555
O12 C28 1_555 1_555
N1 C29 1_555 1_555
O13 C29 1_555 1_555
C29 H33 1_555 1_555
C30 N1 1_555 1_555
H34 C30 1_555 1_555
H35 C30 1_555 1_555
H36 C30 1_555 1_555
C31 N1 1_555 1_555
H37 C31 1_555 1_555
H38 C31 1_555 1_555
H39 C31 1_555 1_555
O14 Eu1 1_555 1_555
H40 O14 1_555 1_555
H41 O14 1_555 1_555
O15 Eu1 1_555 1_555
H42 O15 1_555 1_555
H43 O15 1_555 1_555
Eu1B O7 1_555 1_555
Eu1C O11 1_555 1_555
Eu2B O3 1_555 1_555
Eu2B_2 O8 1_555 1_555
Eu2A O9 1_555 1_555
O3B Eu2 1_555 1_555
O4B Eu2 1_555 1_555
O7B Eu1 1_555 1_555
O8B Eu2 1_555 1_555
O9A Eu2 1_555 1_555
O11C Eu1 1_555 1_555
O12B Eu2 1_555 1_555
C4 C5 1_555 1_555
C6 O2 1_555 1_555
C14 C15 1_555 1_555
C16 O5 1_555 1_555
C16 O6 1_555 1_555
C25 C26 1_555 1_555
C27 O10 1_555 1_555
O4 Eu2B 1_555 1_555
O12 Eu2B_2 1_555 1_555

#END
