
#######################################################################
#
#                 Cambridge Crystallographic Data Centre
#                                CCDC 
#
#######################################################################
#
# If this CIF has been generated from an entry in the Cambridge 
# Structural Database, then it will include bibliographic, chemical, 
# crystal, experimental, refinement or atomic coordinate data resulting 
# from the CCDC's data processing and validation procedures.
#
#######################################################################

data_EXACEM
_symmetry_cell_setting           orthorhombic
_symmetry_space_group_name_H-M   'P 21 21 21'
_symmetry_Int_Tables_number      19
_space_group_name_Hall           'P 2ac 2ab'
loop_
_symmetry_equiv_pos_site_id
_symmetry_equiv_pos_as_xyz
1 x,y,z
2 1/2-x,-y,1/2+z
3 -x,1/2+y,1/2-z
4 1/2+x,1/2-y,-z
_cell_length_a                   12.927(5)
_cell_length_b                   14.084(6)
_cell_length_c                   18.882(8)
_cell_angle_alpha                90
_cell_angle_beta                 90
_cell_angle_gamma                90
_cell_volume                     3437.73
loop_
_atom_site_label
_atom_site_type_symbol
_atom_site_fract_x
_atom_site_fract_y
_atom_site_fract_z
Gd1 Gd 0.71309(3) 0.00073(3) 0.885359(18)
Gd2 Gd 0.77226(3) 0.02040(2) 0.671149(18)
C1 C 1.0108(7) 0.0963(6) 0.8282(5)
H1 H 0.9988 0.0687 0.8751
C2 C 1.1212(7) 0.0693(7) 0.8047(5)
H2 H 1.1213 0.0485 0.7557
H3 H 1.1481 0.0184 0.8340
C3 C 1.1880(8) 0.1608(6) 0.8135(5)
H4 H 1.2533 0.1461 0.8363
H5 H 1.2019 0.1896 0.7678
C4 C 1.1226(7) 0.2279(7) 0.8603(5)
C5 C 1.0077(7) 0.2085(6) 0.8356(5)
C6 C 0.9294(7) 0.0565(7) 0.7776(4)
C7 C 1.1520(7) 0.3326(6) 0.8509(4)
C8 C 1.1389(9) 0.1982(8) 0.9383(5)
H6 H 1.2090 0.2112 0.9520
H7 H 1.1252 0.1316 0.9434
H8 H 1.0925 0.2335 0.9681
C9 C 0.9877(11) 0.2550(8) 0.7635(6)
H9 H 0.9866 0.3228 0.7688
H10 H 0.9223 0.2339 0.7453
H11 H 1.0417 0.2375 0.7311
C10 C 0.9275(8) 0.2391(8) 0.8879(7)
H12 H 0.9276 0.3070 0.8915
H13 H 0.9427 0.2119 0.9333
H14 H 0.8607 0.2178 0.8723
C11 C 0.4481(7) -0.0677(7) 0.7371(5)
C12 C 0.3616(8) -0.0701(9) 0.7930(6)
H15 H 0.3906 -0.0862 0.8389
H16 H 0.3296 -0.0080 0.7966
C13 C 0.2838(10) -0.1409(8) 0.7729(7)
H17 H 0.2213 -0.1100 0.7563
H18 H 0.2664 -0.1807 0.8131
C14 C 0.3324(8) -0.2005(7) 0.7136(6)
H19 H 0.2991 -0.1805 0.6694
C15 C 0.4490(8) -0.1725(7) 0.7069(6)
C16 C 0.5525(7) -0.0419(6) 0.7706(4)
C17 C 0.3127(7) -0.3064(7) 0.7208(5)
C18 C 0.4235(9) 0.0052(9) 0.6782(6)
H20 H 0.4224 0.0680 0.6981
H21 H 0.3572 -0.0089 0.6580
H22 H 0.4756 0.0018 0.6421
C19 C 0.5152(10) -0.2383(7) 0.7535(7)
H23 H 0.5151 -0.3011 0.7338
H24 H 0.4871 -0.2400 0.8005
H25 H 0.5849 -0.2147 0.7551
C20 C 0.4880(10) -0.1807(9) 0.6312(5)
H26 H 0.4869 -0.2461 0.6168
H27 H 0.5575 -0.1570 0.6286
H28 H 0.4443 -0.1442 0.6004
C21 C 0.5627(7) -0.2254(6) 1.0165(5)
C22 C 0.5170(9) -0.2420(7) 0.9511(5)
H29 H 0.5280 -0.1989 0.9146
C23 C 0.4558(10) -0.3202(8) 0.9388(5)
H30 H 0.4280 -0.3310 0.8940
C24 C 0.4358(7) -0.3836(7) 0.9944(5)
C25 C 0.4805(8) -0.3682(7) 1.0609(5)
H31 H 0.4683 -0.4106 1.0977
C26 C 0.5429(8) -0.2899(7) 1.0717(5)
H32 H 0.5722 -0.2797 1.1160
C27 C 0.6307(7) -0.1411(7) 1.0287(5)
C28 C 0.3690(7) -0.4687(7) 0.9830(5)
O1 O 0.8407(5) 0.0313(5) 0.8035(3)
O2 O 0.9443(5) 0.0490(5) 0.7135(3)
O3 O 1.1340(6) 0.3933(4) 0.8979(3)
O4 O 1.1978(6) 0.3595(5) 0.7945(3)
O5 O 0.6300(5) -0.0281(5) 0.7320(4)
O6 O 0.5567(5) -0.0382(6) 0.8361(3)
O7 O 0.3279(6) -0.3545(4) 0.6649(3)
O8 O 0.2852(6) -0.3394(4) 0.7796(3)
O9 O 0.6558(6) -0.1207(5) 1.0914(3)
O10 O 0.6608(6) -0.0973(5) 0.9743(3)
O11 O 0.3449(5) -0.5194(4) 1.0362(3)
O12 O 0.3411(4) -0.4889(5) 0.9203(3)
O14 O 0.7614(6) -0.1482(4) 0.8453(3)
H40 H 0.7631 -0.1953 0.8729
H41 H 0.8059 -0.1534 0.8127
O15 O 0.6178(6) 0.0986(5) 0.9618(3)
H42 H 0.6436 0.1024 1.0032
H43 H 0.6013 0.1540 0.9475
Gd1B Gd 0.28691(3) -0.49927(3) 0.614641(18)
Gd1C Gd 0.21309(3) -0.50073(3) 1.114641(18)
Gd2B Gd 1.22774(3) 0.52040(2) 0.828851(18)
Gd2B_2 Gd 0.22774(3) -0.47960(2) 0.828851(18)
Gd2A Gd 0.72774(3) -0.02040(2) 1.171149(18)
O3B O 0.8660(6) -0.1067(4) 0.6021(3)
O4B O 0.8022(6) -0.1405(5) 0.7055(3)
O7B O 0.6721(6) 0.1455(4) 0.8351(3)
O8B O 0.7148(6) 0.1606(4) 0.7204(3)
O9A O 0.8442(6) 0.1207(5) 0.5914(3)
O11C O 0.8449(5) 0.0194(4) 0.9638(3)
O12B O 0.6589(4) 0.0111(5) 0.5797(3)
N1 N 1.1655(8) 0.0630(6) 0.5387(4)
O13 O 1.2189(10) 0.1755(7) 0.6145(6)
C29 C 1.1560(8) 0.1139(7) 0.5962(5)
H33 H 1.0988 0.1032 0.6251
C30 C 1.2552(10) 0.0798(12) 0.4931(9)
H34 H 1.2977 0.1285 0.5136
H35 H 1.2321 0.0996 0.4471
H36 H 1.2945 0.0223 0.4888
C31 C 1.0928(10) -0.0101(9) 0.5153(8)
H37 H 1.0371 -0.0149 0.5487
H38 H 1.1279 -0.0701 0.5123
H39 H 1.0657 0.0065 0.4697
loop_
_geom_bond_atom_site_label_1
_geom_bond_atom_site_label_2
_geom_bond_site_symmetry_1
_geom_bond_site_symmetry_2
Gd1 O1 1_555 1_555
Gd2 O1 1_555 1_555
C1 H1 1_555 1_555
C2 C1 1_555 1_555
H2 C2 1_555 1_555
H3 C2 1_555 1_555
C3 C2 1_555 1_555
H4 C3 1_555 1_555
H5 C3 1_555 1_555
C4 C3 1_555 1_555
C5 C1 1_555 1_555
C6 C1 1_555 1_555
C7 C4 1_555 1_555
C8 C4 1_555 1_555
H6 C8 1_555 1_555
H7 C8 1_555 1_555
H8 C8 1_555 1_555
C9 C5 1_555 1_555
H9 C9 1_555 1_555
H10 C9 1_555 1_555
H11 C9 1_555 1_555
C10 C5 1_555 1_555
H12 C10 1_555 1_555
H13 C10 1_555 1_555
H14 C10 1_555 1_555
C11 C12 1_555 1_555
C12 H15 1_555 1_555
H16 C12 1_555 1_555
C13 C12 1_555 1_555
H17 C13 1_555 1_555
H18 C13 1_555 1_555
C14 C13 1_555 1_555
H19 C14 1_555 1_555
C15 C11 1_555 1_555
C16 C11 1_555 1_555
C17 C14 1_555 1_555
C18 C11 1_555 1_555
H20 C18 1_555 1_555
H21 C18 1_555 1_555
H22 C18 1_555 1_555
C19 C15 1_555 1_555
H23 C19 1_555 1_555
H24 C19 1_555 1_555
H25 C19 1_555 1_555
C20 C15 1_555 1_555
H26 C20 1_555 1_555
H27 C20 1_555 1_555
H28 C20 1_555 1_555
C21 C22 1_555 1_555
C22 H29 1_555 1_555
C23 C22 1_555 1_555
H30 C23 1_555 1_555
C24 C23 1_555 1_555
C25 C24 1_555 1_555
H31 C25 1_555 1_555
C26 C21 1_555 1_555
H32 C26 1_555 1_555
C27 C21 1_555 1_555
C28 C24 1_555 1_555
O1 C6 1_555 1_555
O2 Gd2 1_555 1_555
O3 C7 1_555 1_555
O4 C7 1_555 1_555
O5 Gd2 1_555 1_555
O6 Gd1 1_555 1_555
O7 C17 1_555 1_555
O8 C17 1_555 1_555
O9 C27 1_555 1_555
O10 Gd1 1_555 1_555
O11 C28 1_555 1_555
O12 C28 1_555 1_555
N1 C29 1_555 1_555
O13 C29 1_555 1_555
C29 H33 1_555 1_555
C30 N1 1_555 1_555
H34 C30 1_555 1_555
H35 C30 1_555 1_555
H36 C30 1_555 1_555
C31 N1 1_555 1_555
H37 C31 1_555 1_555
H38 C31 1_555 1_555
H39 C31 1_555 1_555
O14 Gd1 1_555 1_555
H40 O14 1_555 1_555
H41 O14 1_555 1_555
O15 Gd1 1_555 1_555
H42 O15 1_555 1_555
H43 O15 1_555 1_555
Gd1B O7 1_555 1_555
Gd1C O11 1_555 1_555
Gd2B O3 1_555 1_555
Gd2B_2 O8 1_555 1_555
Gd2A O9 1_555 1_555
O3B Gd2 1_555 1_555
O4B Gd2 1_555 1_555
O7B Gd1 1_555 1_555
O8B Gd2 1_555 1_555
O9A Gd2 1_555 1_555
O11C Gd1 1_555 1_555
O12B Gd2 1_555 1_555
C4 C5 1_555 1_555
C6 O2 1_555 1_555
C14 C15 1_555 1_555
C16 O5 1_555 1_555
C16 O6 1_555 1_555
C25 C26 1_555 1_555
C27 O10 1_555 1_555
O4 Gd2B 1_555 1_555
O12 Gd2B_2 1_555 1_555

#END
