
#######################################################################
#
#                 Cambridge Crystallographic Data Centre
#                                CCDC 
#
#######################################################################
#
# If this CIF has been generated from an entry in the Cambridge 
# Structural Database, then it will include bibliographic, chemical, 
# crystal, experimental, refinement or atomic coordinate data resulting 
# from the CCDC's data processing and validation procedures.
#
#######################################################################

data_EXARIF
_symmetry_cell_setting           orthorhombic
_symmetry_space_group_name_H-M   'P b c a'
_symmetry_Int_Tables_number      61
_space_group_name_Hall           '-P 2ac 2ab'
loop_
_symmetry_equiv_pos_site_id
_symmetry_equiv_pos_as_xyz
1 x,y,z
2 1/2-x,-y,1/2+z
3 1/2+x,1/2-y,-z
4 -x,1/2+y,1/2-z
5 -x,-y,-z
6 1/2+x,y,1/2-z
7 1/2-x,1/2+y,z
8 x,1/2-y,1/2+z
_cell_length_a                   7.1291(7)
_cell_length_b                   14.4806(12)
_cell_length_c                   18.974(3)
_cell_angle_alpha                90
_cell_angle_beta                 90
_cell_angle_gamma                90
_cell_volume                     1958.76
loop_
_atom_site_label
_atom_site_type_symbol
_atom_site_fract_x
_atom_site_fract_y
_atom_site_fract_z
C1 C 0.5286(7) 0.5660(3) 0.3211(3)
C2 C 0.4763(7) 0.5053(3) 0.2671(2)
C3 C 0.5552(7) 0.6119(2) 0.1835(2)
C4 C 0.6150(6) 0.6716(2) 0.2363(2)
C5 C 0.7151(6) 0.7632(3) 0.2231(2)
C6 C 0.5501(7) 0.6355(3) 0.1059(2)
N1 N 0.5974(5) 0.6492(2) 0.30446(19)
N2 N 0.4870(6) 0.5278(2) 0.1995(2)
N3 N 0.7085(8) 0.8841(3) 0.4111(2)
N4 N 0.5255(8) 0.7101(3) 0.4525(2)
O1 O 0.7468(5) 0.81032(18) 0.27846(16)
O2 O 0.7609(5) 0.78346(18) 0.16283(16)
O3 O 0.4262(5) 0.6902(2) 0.08607(18)
O4 O 0.6683(6) 0.59645(19) 0.06701(17)
Cu1 Cu 0.65974(8) 0.75937(3) 0.36943(2)
H1 H 0.515(6) 0.548(2) 0.369(2)
H2 H 0.430(9) 0.447(4) 0.278(3)
H3 H 0.651(10) 0.925(4) 0.382(3)
H4 H 0.823(10) 0.893(3) 0.408(3)
H5 H 0.682(8) 0.888(3) 0.456(3)
H6 H 0.495(9) 0.750(4) 0.475(3)
H7 H 0.590(11) 0.673(4) 0.472(4)
H8 H 0.424(9) 0.682(3) 0.439(3)
O3E O 0.9262(5) 0.6902(2) 0.41393(18)
Cu1E Cu 0.15974(8) 0.75937(3) 0.13057(2)
O5 O 0.6556(8) 0.9205(2) 0.0670(2)
H9 H 0.710(9) 0.890(4) 0.098(3)
H10 H 0.740(7) 0.952(5) 0.050(4)
loop_
_geom_bond_atom_site_label_1
_geom_bond_atom_site_label_2
_geom_bond_site_symmetry_1
_geom_bond_site_symmetry_2
C1 C2 1_555 1_555
C2 N2 1_555 1_555
C3 C4 1_555 1_555
C4 C5 1_555 1_555
C5 O1 1_555 1_555
C6 C3 1_555 1_555
N1 C1 1_555 1_555
N2 C3 1_555 1_555
N3 Cu1 1_555 1_555
N4 Cu1 1_555 1_555
O1 Cu1 1_555 1_555
O2 C5 1_555 1_555
O3 C6 1_555 1_555
O4 C6 1_555 1_555
O5 H9 1_555 1_555
Cu1 N1 1_555 1_555
H1 C1 1_555 1_555
H2 C2 1_555 1_555
H3 N3 1_555 1_555
H4 N3 1_555 1_555
H5 N3 1_555 1_555
H6 N4 1_555 1_555
H7 N4 1_555 1_555
H8 N4 1_555 1_555
H10 O5 1_555 1_555
O3E Cu1 1_555 1_555
Cu1E O3 1_555 1_555
C4 N1 1_555 1_555

#END
