
#######################################################################
#
#                 Cambridge Crystallographic Data Centre
#                                CCDC 
#
#######################################################################
#
# If this CIF has been generated from an entry in the Cambridge 
# Structural Database, then it will include bibliographic, chemical, 
# crystal, experimental, refinement or atomic coordinate data resulting 
# from the CCDC's data processing and validation procedures.
#
#######################################################################

data_EXAROL
_symmetry_cell_setting           monoclinic
_symmetry_space_group_name_H-M   'P 21'
_symmetry_Int_Tables_number      4
_space_group_name_Hall           'P 2yb'
loop_
_symmetry_equiv_pos_site_id
_symmetry_equiv_pos_as_xyz
1 x,y,z
2 -x,1/2+y,-z
_cell_length_a                   10.7993(3)
_cell_length_b                   14.5563(5)
_cell_length_c                   12.0617(4)
_cell_angle_alpha                90
_cell_angle_beta                 90.159(3)
_cell_angle_gamma                90
_cell_volume                     1896.07
loop_
_atom_site_label
_atom_site_type_symbol
_atom_site_fract_x
_atom_site_fract_y
_atom_site_fract_z
Cu1 Cu 0.08272(5) 0.92868(4) 0.79408(4)
Cu2 Cu -0.03133(6) 1.42004(4) 0.65810(4)
O1 O -0.0259(4) 1.0056(2) 0.6981(3)
O2 O -0.1163(3) 1.1446(3) 0.6886(3)
O3 O 0.0489(3) 1.3113(2) 0.7279(3)
O4 O -0.1014(4) 1.3277(3) 0.8550(3)
O5 O 0.0586(3) 0.5005(2) 0.7633(3)
O6 O 0.0977(4) 0.6471(3) 0.8048(3)
O7 O 0.0657(3) 0.8298(2) 0.6791(3)
O8 O -0.1129(4) 0.8026(3) 0.7679(3)
N1 N 0.0801(4) 1.0435(3) 0.8906(3)
N2 N 0.0987(4) 1.2221(3) 0.9725(3)
N3 N -0.0762(4) 0.5437(3) 0.5865(3)
N4 N -0.1274(4) 0.7240(3) 0.5277(3)
C1 C 0.0275(5) 1.1145(3) 0.8355(4)
C2 C 0.0399(5) 1.2033(3) 0.8755(4)
C3 C 0.1446(4) 1.1502(4) 1.0291(4)
H1 H 0.1828 1.1607 1.0990
C4 C 0.1379(5) 1.0608(3) 0.9886(4)
H2 H 0.1739 1.0118 1.0296
C5 C -0.0446(5) 1.0882(3) 0.7319(4)
C6 C -0.0100(5) 1.2878(3) 0.8145(4)
C7 C -0.0336(4) 0.6135(3) 0.6493(4)
C8 C -0.0611(5) 0.7045(3) 0.6213(4)
C9 C -0.1644(5) 0.6540(4) 0.4657(4)
H3 H -0.2078 0.6664 0.3987
C10 C -0.1419(5) 0.5624(4) 0.4953(4)
H4 H -0.1732 0.5138 0.4507
C11 C 0.0471(5) 0.5860(3) 0.7475(4)
C12 C -0.0348(5) 0.7853(3) 0.6974(4)
N9 N 0.1522(4) 0.8393(3) 0.9030(3)
H9 H 0.1256 0.8533 0.9707
H10 H 0.2345 0.8421 0.9015
H11 H 0.1277 0.7828 0.8854
N10 N -0.1417(4) 1.3380(3) 0.5693(4)
H12 H -0.1330 1.2803 0.5924
H13 H -0.1214 1.3417 0.4979
H14 H -0.2201 1.3555 0.5779
O17 O 0.2781(4) 0.9737(2) 0.7450(3)
H21 H 0.317(6) 0.957(4) 0.683(4)
H22 H 0.300(6) 1.0324(19) 0.753(5)
O19 O 0.1326(3) 1.4181(3) 0.5055(3)
H25 H 0.110(6) 1.428(4) 0.435(2)
H26 H 0.162(6) 1.361(2) 0.507(5)
Cu2_2 Cu -0.03133(6) 0.42004(4) 0.65810(4)
O5_2 O 0.0586(3) 1.5005(2) 0.7633(3)
N3_2 N -0.0762(4) 1.5437(3) 0.5865(3)
Cu3 Cu 0.47459(6) 0.63748(4) 0.59252(4)
O9 O 0.5692(4) 0.5590(2) 0.4906(3)
O10 O 0.6171(3) 0.4133(2) 0.4502(3)
O11 O 0.4432(3) 0.2460(2) 0.4728(3)
O12 O 0.5941(4) 0.2323(2) 0.6032(3)
N5 N 0.4237(4) 0.5125(3) 0.6544(3)
N6 N 0.3694(4) 0.3310(3) 0.7063(3)
C13 C 0.4730(4) 0.4432(3) 0.5968(4)
C14 C 0.4459(4) 0.3522(3) 0.6222(4)
C15 C 0.3207(5) 0.4007(3) 0.7634(4)
H5 H 0.2668 0.3874 0.8234
C16 C 0.3459(5) 0.4915(3) 0.7381(4)
H6 H 0.3083 0.5393 0.7799
C17 C 0.5609(5) 0.4718(3) 0.5047(4)
C18 C 0.5012(4) 0.2698(3) 0.5608(4)
N11 N 0.3564(4) 0.7190(3) 0.6754(3)
H15 H 0.3695 0.7785 0.6558
H16 H 0.3690 0.7124 0.7496
H17 H 0.2772 0.7029 0.6584
O20 O 0.6241(3) 0.6487(3) 0.7488(3)
H27 H 0.597(6) 0.636(4) 0.818(3)
H28 H 0.631(6) 0.7096(14) 0.750(4)
Cu3A Cu 0.52541(6) 0.13748(4) 0.40748(4)
O11A O 0.5568(3) 0.7460(2) 0.5272(3)
Cu4 Cu 0.40644(5) 0.64371(4) 1.04552(4)
O13 O 0.5093(4) 0.5679(2) 0.9451(3)
O14 O 0.5934(3) 0.4269(3) 0.9291(3)
O15 O 0.5836(3) 0.2433(2) 1.0699(3)
O16 O 0.4013(4) 0.2669(2) 0.9811(3)
N7 N 0.4206(4) 0.5297(3) 1.1450(3)
N8 N 0.4070(4) 0.3505(3) 1.2250(3)
C19 C 0.4661(5) 0.4590(3) 1.0851(4)
C20 C 0.3695(4) 0.4226(4) 1.2853(4)
H7 H 0.3394 0.4120 1.3581
C21 C 0.4551(4) 0.3694(3) 1.1234(4)
C22 C 0.3728(5) 0.5120(3) 1.2457(4)
H8 H 0.3413 0.5608 1.2896
C23 C 0.5289(5) 0.4842(3) 0.9774(4)
C24 C 0.4823(5) 0.2866(3) 1.0509(4)
N12 N 0.3472(4) 0.7325(3) 1.1572(3)
H18 H 0.3848 0.7217 1.2216
H19 H 0.2658 0.7264 1.1654
H20 H 0.3644 0.7894 1.1349
O22 O 0.2181(4) 0.5908(3) 0.9959(3)
H31 H 0.187(6) 0.535(2) 1.007(5)
H32 H 0.192(6) 0.605(4) 0.928(3)
Cu4A Cu 0.59356(5) 0.14371(4) 0.95448(4)
O15A O 0.4164(3) 0.7433(2) 0.9301(3)
O18 O -0.2670(4) 0.4711(3) 0.7282(3)
H23 H -0.302(7) 0.451(4) 0.791(4)
H24 H -0.276(8) 0.5321(14) 0.734(6)
O21 O 0.2230(5) 0.5984(3) 0.5225(3)
H29 H 0.216(8) 0.615(5) 0.451(2)
H30 H 0.192(8) 0.542(3) 0.524(6)
O23 O 0.6690(4) 0.6528(3) 1.1968(3)
O24 O -0.1632(4) 0.9128(3) 0.9480(3)
loop_
_geom_bond_atom_site_label_1
_geom_bond_atom_site_label_2
_geom_bond_site_symmetry_1
_geom_bond_site_symmetry_2
Cu1 O1 1_555 1_555
Cu2 O3 1_555 1_555
O1 C5 1_555 1_555
O2 C5 1_555 1_555
O3 C6 1_555 1_555
O4 C6 1_555 1_555
O5 C11 1_555 1_555
O6 C11 1_555 1_555
O7 Cu1 1_555 1_555
O8 C12 1_555 1_555
N1 Cu1 1_555 1_555
N2 C2 1_555 1_555
N3 C7 1_555 1_555
N4 C8 1_555 1_555
C1 N1 1_555 1_555
C2 C1 1_555 1_555
C3 N2 1_555 1_555
H1 C3 1_555 1_555
C4 N1 1_555 1_555
H2 C4 1_555 1_555
C5 C1 1_555 1_555
C6 C2 1_555 1_555
C7 C8 1_555 1_555
C8 C12 1_555 1_555
C9 N4 1_555 1_555
H3 C9 1_555 1_555
C10 N3 1_555 1_555
H4 C10 1_555 1_555
C11 C7 1_555 1_555
C12 O7 1_555 1_555
Cu3 O9 1_555 1_555
O9 C17 1_555 1_555
O10 C17 1_555 1_555
O11 C18 1_555 1_555
O12 C18 1_555 1_555
N5 Cu3 1_555 1_555
N6 C14 1_555 1_555
C13 N5 1_555 1_555
C14 C13 1_555 1_555
C15 N6 1_555 1_555
H5 C15 1_555 1_555
C16 N5 1_555 1_555
H6 C16 1_555 1_555
C17 C13 1_555 1_555
C18 C14 1_555 1_555
Cu4 O13 1_555 1_555
O13 C23 1_555 1_555
O14 C23 1_555 1_555
O15 C24 1_555 1_555
O16 C24 1_555 1_555
N7 Cu4 1_555 1_555
N8 C20 1_555 1_555
C19 N7 1_555 1_555
C20 H7 1_555 1_555
C21 N8 1_555 1_555
C22 N7 1_555 1_555
H8 C22 1_555 1_555
C23 C19 1_555 1_555
C24 C21 1_555 1_555
N9 Cu1 1_555 1_555
H9 N9 1_555 1_555
H10 N9 1_555 1_555
H11 N9 1_555 1_555
N10 Cu2 1_555 1_555
H12 N10 1_555 1_555
H13 N10 1_555 1_555
H14 N10 1_555 1_555
N11 Cu3 1_555 1_555
H15 N11 1_555 1_555
H16 N11 1_555 1_555
H17 N11 1_555 1_555
N12 Cu4 1_555 1_555
H18 N12 1_555 1_555
H19 N12 1_555 1_555
H20 N12 1_555 1_555
O17 Cu1 1_555 1_555
H21 O17 1_555 1_555
H22 O17 1_555 1_555
O18 H23 1_555 1_555
H24 O18 1_555 1_555
O19 Cu2 1_555 1_555
H25 O19 1_555 1_555
H26 O19 1_555 1_555
O20 Cu3 1_555 1_555
H27 O20 1_555 1_555
H28 O20 1_555 1_555
O21 H29 1_555 1_555
H30 O21 1_555 1_555
O22 Cu4 1_555 1_555
H31 O22 1_555 1_555
H32 O22 1_555 1_555
Cu2_2 O5 1_555 1_555
O5_2 Cu2 1_555 1_555
N3_2 Cu2 1_555 1_555
Cu3A O11 1_555 1_555
O11A Cu3 1_555 1_555
Cu4A O15 1_555 1_555
O15A Cu4 1_555 1_555
N3 Cu2_2 1_555 1_555
C3 C4 1_555 1_555
C9 C10 1_555 1_555
C15 C16 1_555 1_555
C19 C21 1_555 1_555
C20 C22 1_555 1_555

#END
