
#######################################################################
#
#                 Cambridge Crystallographic Data Centre
#                                CCDC 
#
#######################################################################
#
# If this CIF has been generated from an entry in the Cambridge 
# Structural Database, then it will include bibliographic, chemical, 
# crystal, experimental, refinement or atomic coordinate data resulting 
# from the CCDC's data processing and validation procedures.
#
#######################################################################

data_EXATUT
_symmetry_cell_setting           triclinic
_symmetry_space_group_name_H-M   'P -1'
_symmetry_Int_Tables_number      2
_space_group_name_Hall           '-P 1'
loop_
_symmetry_equiv_pos_site_id
_symmetry_equiv_pos_as_xyz
1 x,y,z
2 -x,-y,-z
_cell_length_a                   9.462(2)
_cell_length_b                   12.040(3)
_cell_length_c                   14.117(4)
_cell_angle_alpha                114.609(4)
_cell_angle_beta                 102.385(4)
_cell_angle_gamma                97.378(4)
_cell_volume                     1384.55
loop_
_atom_site_label
_atom_site_type_symbol
_atom_site_fract_x
_atom_site_fract_y
_atom_site_fract_z
La1 La 0.72860(2) 1.037753(18) 0.509022(15)
O1 O 0.6473(3) 1.1884(3) 0.4369(2)
O2 O 0.4380(3) 1.1071(3) 0.4560(2)
O3 O 0.6825(3) 1.5190(3) 0.3317(3)
O4 O 0.5089(4) 1.6193(3) 0.3311(3)
O5 O 0.0469(4) 1.4706(3) 0.3822(3)
O6 O 0.0154(3) 1.3049(3) 0.4075(3)
O7 O 0.5487(3) 0.8915(3) 0.3319(2)
O8 O 0.3095(3) 0.8193(3) 0.3148(2)
O9 O 0.7577(3) 0.6694(3) 0.0463(3)
O10 O 0.6223(4) 0.6003(4) -0.1195(3)
O11 O 0.0925(4) 0.4490(4) -0.1924(3)
O12 O -0.0153(3) 0.5480(3) -0.0742(3)
O13 O 0.9282(3) 1.0390(3) 0.6525(2)
O14 O 1.1064(3) 0.9491(3) 0.5977(2)
O15 O 1.4049(4) 0.8103(3) 0.8403(3)
O16 O 1.4133(4) 0.8908(3) 1.0104(3)
O17 O 1.1297(4) 1.1946(3) 1.1496(2)
O18 O 0.9483(4) 1.2060(3) 1.0334(3)
O19 O 0.7990(3) 0.8229(3) 0.4271(2)
O20 O 0.9300(3) 1.2581(3) 0.5981(2)
N1 N 0.5586(4) 1.5330(3) 0.3381(3)
N2 N 0.0895(4) 1.3832(3) 0.3914(3)
N3 N 0.6378(4) 0.6395(3) -0.0227(3)
N4 N 0.0957(4) 0.5277(3) -0.1016(3)
N5 N 1.3684(4) 0.8796(4) 0.9176(3)
N6 N 1.0615(4) 1.1721(3) 1.0572(3)
C1 C 0.5129(4) 1.1822(3) 0.4328(3)
C2 C 0.4405(4) 1.2718(4) 0.4021(3)
C3 C 0.2966(4) 1.2801(4) 0.4050(3)
H1 H 0.2370 1.2241 0.4207
C4 C 0.2415(4) 1.3715(4) 0.3848(3)
C5 C 0.3220(4) 1.4548(4) 0.3606(3)
H2 H 0.2822 1.5171 0.3470
C6 C 0.4645(4) 1.4421(4) 0.3574(3)
C7 C 0.5257(4) 1.3535(4) 0.3768(3)
H3 H 0.6238 1.3478 0.3731
C8 C 0.4194(4) 0.8231(3) 0.2787(3)
C9 C 0.3971(4) 0.7374(4) 0.1598(3)
C10 C 0.2551(4) 0.6726(4) 0.0861(3)
H4 H 0.1685 0.6789 0.1100
C11 C 0.2434(4) 0.5991(4) -0.0225(3)
C12 C 0.3652(5) 0.5872(4) -0.0613(3)
H5 H 0.3543 0.5381 -0.1365
C13 C 0.5038(4) 0.6501(4) 0.0143(3)
C14 C 0.5227(4) 0.7247(4) 0.1236(3)
H6 H 0.6199 0.7669 0.1733
C15 C 1.0409(4) 0.9979(3) 0.6671(3)
C16 C 1.1027(4) 1.0072(4) 0.7785(3)
C17 C 1.2098(4) 0.9418(4) 0.7960(3)
H7 H 1.2440 0.8900 0.7380
C18 C 1.2640(5) 0.9549(4) 0.8996(3)
C19 C 1.2211(5) 1.0315(4) 0.9876(3)
H8 H 1.2626 1.0410 1.0589
C20 C 1.1151(4) 1.0932(4) 0.9666(3)
C21 C 1.0518(4) 1.0813(4) 0.8638(3)
H9 H 0.9758 1.1225 0.8517
H10 H 0.740(5) 0.758(4) 0.389(4)
H11 H 0.945(6) 1.316(4) 0.654(3)
H12 H 0.867(4) 0.790(4) 0.423(4)
H13 H 0.925(5) 1.295(4) 0.564(3)
La1A La 0.27140(2) 0.962247(18) 0.490978(15)
La1A_2 La 1.27140(2) 0.962247(18) 0.490978(15)
O2A O 0.5620(3) 0.8929(3) 0.5440(2)
O8A O 0.6905(3) 1.1807(3) 0.6852(2)
O14A O 0.8936(3) 1.0509(3) 0.4023(2)
loop_
_geom_bond_atom_site_label_1
_geom_bond_atom_site_label_2
_geom_bond_site_symmetry_1
_geom_bond_site_symmetry_2
La1 O1 1_555 1_555
O1 C1 1_555 1_555
O2 C1 1_555 1_555
O3 N1 1_555 1_555
O4 N1 1_555 1_555
O5 N2 1_555 1_555
O6 N2 1_555 1_555
O7 La1 1_555 1_555
O8 C8 1_555 1_555
O9 N3 1_555 1_555
O10 N3 1_555 1_555
O11 N4 1_555 1_555
O12 N4 1_555 1_555
O13 La1 1_555 1_555
O14 C15 1_555 1_555
O15 N5 1_555 1_555
O16 N5 1_555 1_555
O17 N6 1_555 1_555
O18 N6 1_555 1_555
O19 La1 1_555 1_555
O20 La1 1_555 1_555
N1 C6 1_555 1_555
N2 C4 1_555 1_555
N3 C13 1_555 1_555
N4 C11 1_555 1_555
N5 C18 1_555 1_555
N6 C20 1_555 1_555
C1 C2 1_555 1_555
C2 C3 1_555 1_555
C3 H1 1_555 1_555
C4 C3 1_555 1_555
C5 C4 1_555 1_555
H2 C5 1_555 1_555
C6 C5 1_555 1_555
C7 C2 1_555 1_555
H3 C7 1_555 1_555
C8 O7 1_555 1_555
C9 C8 1_555 1_555
C10 C9 1_555 1_555
H4 C10 1_555 1_555
C11 C10 1_555 1_555
C12 C11 1_555 1_555
H5 C12 1_555 1_555
C13 C12 1_555 1_555
C14 C9 1_555 1_555
H6 C14 1_555 1_555
C15 O13 1_555 1_555
C16 C15 1_555 1_555
C17 C16 1_555 1_555
H7 C17 1_555 1_555
C18 C17 1_555 1_555
C19 C18 1_555 1_555
H8 C19 1_555 1_555
C20 C19 1_555 1_555
C21 C16 1_555 1_555
H9 C21 1_555 1_555
H10 O19 1_555 1_555
H11 O20 1_555 1_555
H12 O19 1_555 1_555
H13 O20 1_555 1_555
La1A O2 1_555 1_555
La1A_2 O14 1_555 1_555
O2A La1 1_555 1_555
O8A La1 1_555 1_555
O14A La1 1_555 1_555
O8 La1A 1_555 1_555
C6 C7 1_555 1_555
C13 C14 1_555 1_555
C20 C21 1_555 1_555

#END
