
#######################################################################
#
#                 Cambridge Crystallographic Data Centre
#                                CCDC 
#
#######################################################################
#
# If this CIF has been generated from an entry in the Cambridge 
# Structural Database, then it will include bibliographic, chemical, 
# crystal, experimental, refinement or atomic coordinate data resulting 
# from the CCDC's data processing and validation procedures.
#
#######################################################################

data_EXAWUW
_symmetry_cell_setting           triclinic
_symmetry_space_group_name_H-M   'P -1'
_symmetry_Int_Tables_number      2
_space_group_name_Hall           '-P 1'
loop_
_symmetry_equiv_pos_site_id
_symmetry_equiv_pos_as_xyz
1 x,y,z
2 -x,-y,-z
_cell_length_a                   9.6810(16)
_cell_length_b                   15.0332(18)
_cell_length_c                   16.120(2)
_cell_angle_alpha                66.3830(10)
_cell_angle_beta                 75.8240(10)
_cell_angle_gamma                82.612(2)
_cell_volume                     2082.87
loop_
_atom_site_label
_atom_site_type_symbol
_atom_site_fract_x
_atom_site_fract_y
_atom_site_fract_z
Ag1 Ag 0.41621(8) 0.51179(5) 0.60900(5)
Ag2 Ag 0.42144(8) 0.99535(5) 0.40677(5)
P1 P 0.5200(2) 0.44741(14) 0.74192(14)
P2 P 0.5190(2) 1.05339(15) 0.24517(14)
N1 N 0.3095(7) 0.6689(4) 0.5505(4)
N2 N 0.3098(7) 0.8429(5) 0.4995(5)
N3 N 0.5204(7) 0.7505(5) 0.4975(5)
H1 H 0.5667 0.8029 0.4763
H2 H 0.5657 0.6954 0.5071
O1 O 0.3474(7) 0.4303(5) 0.5258(5)
O2 O 0.1611(8) 0.4451(5) 0.6299(5)
O3 O 0.3582(7) 1.0683(5) 0.5180(5)
O4 O 0.1675(7) 1.0740(5) 0.4635(5)
C1 C 0.3772(8) 0.7546(6) 0.5156(5)
C2 C 0.1667(9) 0.8457(6) 0.5190(6)
H3 H 0.1178 0.9053 0.5089
C3 C 0.0902(9) 0.7621(6) 0.5537(6)
H4 H -0.0089 0.7643 0.5676
C4 C 0.1670(8) 0.6746(6) 0.5671(6)
H5 H 0.1175 0.6179 0.5883
C5 C 0.2180(10) 0.4229(6) 0.5614(7)
C6 C 0.1240(13) 0.3818(10) 0.5235(10)
H6 H 0.1584 0.3174 0.5283
H7 H 0.1263 0.4226 0.4597
H8 H 0.0279 0.3792 0.5586
C7 C 0.2256(10) 1.0758(6) 0.5257(6)
C8 C 0.1322(12) 1.0858(9) 0.6098(8)
H9 H 0.1449 1.1479 0.6101
H10 H 0.1568 1.0353 0.6641
H11 H 0.0345 1.0805 0.6097
C9 C 0.6472(9) 0.5251(6) 0.7461(6)
C10 C 0.7836(10) 0.4933(7) 0.7658(7)
H12 H 0.8124 0.4284 0.7795
C11 C 0.8749(11) 0.5573(8) 0.7648(7)
H13 H 0.9643 0.5355 0.7782
C12 C 0.8329(12) 0.6534(8) 0.7440(8)
H14 H 0.8934 0.6961 0.7451
C13 C 0.7015(13) 0.6873(8) 0.7215(8)
H15 H 0.6749 0.7528 0.7054
C14 C 0.6112(10) 0.6227(7) 0.7233(7)
H16 H 0.5228 0.6456 0.7086
C15 C 0.6152(9) 0.3312(6) 0.7595(6)
C16 C 0.6913(10) 0.3147(7) 0.6802(6)
H17 H 0.6883 0.3611 0.6214
C17 C 0.7716(11) 0.2279(7) 0.6903(7)
H18 H 0.8230 0.2182 0.6376
C18 C 0.7766(11) 0.1581(7) 0.7743(7)
H19 H 0.8280 0.1002 0.7789
C19 C 0.7054(13) 0.1726(7) 0.8534(8)
H20 H 0.7123 0.1262 0.9115
C20 C 0.6228(11) 0.2578(7) 0.8452(6)
H21 H 0.5713 0.2658 0.8987
C21 C 0.3873(9) 0.4259(5) 0.8492(6)
C22 C 0.4205(11) 0.4245(7) 0.9295(6)
H22 H 0.5132 0.4363 0.9281
C23 C 0.3177(12) 0.4059(7) 1.0114(7)
H23 H 0.3413 0.4040 1.0647
C24 C 0.1794(12) 0.3902(8) 1.0119(8)
H24 H 0.1096 0.3790 1.0658
C25 C 0.1431(10) 0.3909(7) 0.9338(7)
H25 H 0.0503 0.3787 0.9359
C26 C 0.2461(10) 0.4101(6) 0.8519(7)
H26 H 0.2211 0.4125 0.7988
C27 C 0.3861(9) 1.0812(5) 0.1744(6)
C28 C 0.2442(9) 1.1018(6) 0.2130(7)
H27 H 0.2213 1.1001 0.2731
C29 C 0.1376(11) 1.1246(7) 0.1618(8)
H28 H 0.0443 1.1379 0.1875
C30 C 0.1741(13) 1.1272(8) 0.0700(9)
H29 H 0.1049 1.1443 0.0347
C31 C 0.3119(12) 1.1045(7) 0.0328(7)
H30 H 0.3344 1.1031 -0.0262
C32 C 0.4161(11) 1.0838(7) 0.0840(6)
H31 H 0.5092 1.0712 0.0574
C33 C 0.6190(9) 1.1650(5) 0.2008(6)
C34 C 0.6842(9) 1.1806(6) 0.2620(6)
H32 H 0.6747 1.1360 0.3229
C35 C 0.7639(11) 1.2637(8) 0.2315(8)
H33 H 0.8096 1.2727 0.2719
C36 C 0.7752(11) 1.3303(7) 0.1451(8)
H34 H 0.8270 1.3854 0.1268
C37 C 0.7102(12) 1.3182(7) 0.0812(8)
H35 H 0.7186 1.3642 0.0210
C38 C 0.6320(11) 1.2340(7) 0.1119(6)
H36 H 0.5878 1.2247 0.0710
C39 C 0.6458(9) 0.9677(5) 0.2093(6)
C40 C 0.6150(10) 0.8705(7) 0.2494(7)
H37 H 0.5264 0.8513 0.2880
C41 C 0.7137(13) 0.8013(7) 0.2330(8)
H38 H 0.6903 0.7363 0.2602
C42 C 0.8472(12) 0.8274(8) 0.1766(8)
H39 H 0.9124 0.7800 0.1658
C43 C 0.8824(11) 0.9219(8) 0.1372(8)
H40 H 0.9728 0.9391 0.1004
C44 C 0.7833(10) 0.9945(7) 0.1516(7)
H41 H 0.8075 1.0594 0.1236
Ag1A Ag 0.58379(8) 0.48821(5) 0.39100(5)
Ag2A Ag 0.57856(8) 1.00465(5) 0.59323(5)
O1A O 0.6526(7) 0.5697(5) 0.4742(5)
O3A O 0.6418(7) 0.9317(5) 0.4820(5)
loop_
_geom_bond_atom_site_label_1
_geom_bond_atom_site_label_2
_geom_bond_site_symmetry_1
_geom_bond_site_symmetry_2
Ag1 P1 1_555 1_555
Ag2 P2 1_555 1_555
P1 C9 1_555 1_555
P2 C27 1_555 1_555
N1 Ag1 1_555 1_555
N2 Ag2 1_555 1_555
N3 H1 1_555 1_555
H2 N3 1_555 1_555
O1 Ag1 1_555 1_555
O2 Ag1 1_555 1_555
O3 Ag2 1_555 1_555
O4 Ag2 1_555 1_555
C1 N1 1_555 1_555
C2 N2 1_555 1_555
H3 C2 1_555 1_555
C3 C2 1_555 1_555
H4 C3 1_555 1_555
C4 N1 1_555 1_555
H5 C4 1_555 1_555
C5 O1 1_555 1_555
C6 C5 1_555 1_555
H6 C6 1_555 1_555
H7 C6 1_555 1_555
H8 C6 1_555 1_555
C7 O3 1_555 1_555
C8 C7 1_555 1_555
H9 C8 1_555 1_555
H10 C8 1_555 1_555
H11 C8 1_555 1_555
C9 C10 1_555 1_555
C10 H12 1_555 1_555
C11 C10 1_555 1_555
H13 C11 1_555 1_555
C12 C11 1_555 1_555
H14 C12 1_555 1_555
C13 C12 1_555 1_555
H15 C13 1_555 1_555
C14 C9 1_555 1_555
H16 C14 1_555 1_555
C15 P1 1_555 1_555
C16 C15 1_555 1_555
H17 C16 1_555 1_555
C17 C16 1_555 1_555
H18 C17 1_555 1_555
C18 C17 1_555 1_555
H19 C18 1_555 1_555
C19 C18 1_555 1_555
H20 C19 1_555 1_555
C20 C15 1_555 1_555
H21 C20 1_555 1_555
C21 P1 1_555 1_555
C22 C21 1_555 1_555
H22 C22 1_555 1_555
C23 C22 1_555 1_555
H23 C23 1_555 1_555
C24 C23 1_555 1_555
H24 C24 1_555 1_555
C25 C24 1_555 1_555
H25 C25 1_555 1_555
C26 C21 1_555 1_555
H26 C26 1_555 1_555
C27 C28 1_555 1_555
C28 H27 1_555 1_555
C29 C28 1_555 1_555
H28 C29 1_555 1_555
C30 C29 1_555 1_555
H29 C30 1_555 1_555
C31 C30 1_555 1_555
H30 C31 1_555 1_555
C32 C27 1_555 1_555
H31 C32 1_555 1_555
C33 P2 1_555 1_555
C34 C33 1_555 1_555
H32 C34 1_555 1_555
C35 C34 1_555 1_555
H33 C35 1_555 1_555
C36 C35 1_555 1_555
H34 C36 1_555 1_555
C37 C36 1_555 1_555
H35 C37 1_555 1_555
C38 C33 1_555 1_555
H36 C38 1_555 1_555
C39 P2 1_555 1_555
C40 C39 1_555 1_555
H37 C40 1_555 1_555
C41 C40 1_555 1_555
H38 C41 1_555 1_555
C42 C41 1_555 1_555
H39 C42 1_555 1_555
C43 C42 1_555 1_555
H40 C43 1_555 1_555
C44 C39 1_555 1_555
H41 C44 1_555 1_555
Ag1A O1 1_555 1_555
Ag2A O3 1_555 1_555
O1A Ag1 1_555 1_555
O3A Ag2 1_555 1_555
N2 C1 1_555 1_555
N3 C1 1_555 1_555
O2 C5 1_555 1_555
O4 C7 1_555 1_555
C3 C4 1_555 1_555
C13 C14 1_555 1_555
C19 C20 1_555 1_555
C25 C26 1_555 1_555
C31 C32 1_555 1_555
C37 C38 1_555 1_555
C43 C44 1_555 1_555
Ag1A O1A 1_555 1_555
Ag2A O3A 1_555 1_555

#END
