
#######################################################################
#
#                 Cambridge Crystallographic Data Centre
#                                CCDC 
#
#######################################################################
#
# If this CIF has been generated from an entry in the Cambridge 
# Structural Database, then it will include bibliographic, chemical, 
# crystal, experimental, refinement or atomic coordinate data resulting 
# from the CCDC's data processing and validation procedures.
#
#######################################################################

data_EXECOA
_symmetry_cell_setting           triclinic
_symmetry_space_group_name_H-M   'P -1'
_symmetry_Int_Tables_number      2
_space_group_name_Hall           '-P 1'
loop_
_symmetry_equiv_pos_site_id
_symmetry_equiv_pos_as_xyz
1 x,y,z
2 -x,-y,-z
_cell_length_a                   7.9819(5)
_cell_length_b                   8.3498(5)
_cell_length_c                   12.1983(7)
_cell_angle_alpha                80.1430(10)
_cell_angle_beta                 83.0680(10)
_cell_angle_gamma                85.7890(10)
_cell_volume                     793.969
loop_
_atom_site_label
_atom_site_type_symbol
_atom_site_fract_x
_atom_site_fract_y
_atom_site_fract_z
U1 U 1.21666(4) 0.77267(4) 0.90252(3)
U2 U 1.63693(4) 0.78718(4) 0.35636(3)
P1 P 1.5151(3) 0.8054(3) 0.6540(2)
P2 P 1.1046(3) 0.3644(3) 0.8715(2)
O1 O 1.5272(9) 0.7435(9) 0.5427(6)
O2 O 1.3452(9) 0.7726(8) 0.7238(6)
O3 O 1.5505(9) 0.9870(8) 0.6400(6)
O4 O 1.9070(10) 0.5664(10) 0.6340(7)
O5 O 1.9149(9) 0.8326(9) 0.6420(6)
H1 H 1.9977 0.8289 0.5928
O6 O 1.1018(9) 0.5453(9) 0.8715(6)
O7 O 1.1461(9) 0.3222(9) 0.7538(6)
O8 O 0.9388(9) 0.2909(8) 0.9257(6)
O9 O 1.2713(9) -0.0204(9) 1.0180(6)
O10 O 1.3494(9) 0.0533(8) 0.8381(6)
O11 O 1.3965(10) 0.6606(9) 0.9525(7)
O12 O 1.0363(9) 0.8897(9) 0.8550(6)
O13 O 1.4741(9) 0.6831(8) 0.3155(6)
O14 O 1.7603(10) 0.5214(9) 0.4487(7)
C1 C 1.6758(13) 0.6953(12) 0.7341(8)
H2 H 1.6832 0.7461 0.8009
H3 H 1.6440 0.5816 0.7602
O16 O 1.8000(9) 0.8925(9) 0.3952(6)
C2 C 1.8482(14) 0.6958(13) 0.6640(9)
C3 C 1.2789(13) 0.2649(13) 0.9482(8)
H4 H 1.3842 0.3209 0.9191
H5 H 1.2535 0.2739 1.0284
C4 C 1.3039(13) 0.0920(12) 0.9362(9)
U1A U 0.78334(4) 0.22733(4) 1.09748(3)
U1_2 U 1.21666(4) -0.22733(4) 0.90252(3)
U2A U 1.36307(4) 1.21282(4) 0.64364(3)
U2A_2 U 1.36307(4) 0.21282(4) 0.64364(3)
O3A O 1.4495(9) 1.0130(8) 0.3600(6)
O7A O 1.8539(9) 0.6778(9) 0.2462(6)
O8A O 1.0612(9) 0.7091(8) 1.0743(6)
O9_2 O 1.2713(9) 0.9796(9) 1.0180(6)
O10A O 1.6506(9) 0.9467(8) 0.1619(6)
K1 K 1.8489(3) 0.1410(3) 0.7462(2)
O15 O 1.8265(9) 0.1746(8) 0.5115(7)
loop_
_geom_bond_atom_site_label_1
_geom_bond_atom_site_label_2
_geom_bond_site_symmetry_1
_geom_bond_site_symmetry_2
U1 O2 1_555 1_555
U2 O1 1_555 1_555
P1 O1 1_555 1_555
P2 O6 1_555 1_555
O2 P1 1_555 1_555
O3 P1 1_555 1_555
O4 C2 1_555 1_555
O5 H1 1_555 1_555
O6 U1 1_555 1_555
O7 P2 1_555 1_555
O8 P2 1_555 1_555
O9 C4 1_555 1_555
O10 C4 1_555 1_555
O11 U1 1_555 1_555
O12 U1 1_555 1_555
O13 U2 1_555 1_555
O14 U2 1_555 1_555
C1 P1 1_555 1_555
H2 C1 1_555 1_555
H3 C1 1_555 1_555
O16 U2 1_555 1_555
C2 O5 1_555 1_555
C3 P2 1_555 1_555
H4 C3 1_555 1_555
H5 C3 1_555 1_555
C4 C3 1_555 1_555
U1A O8 1_555 1_555
U1_2 O9 1_555 1_555
U2A O3 1_555 1_555
U2A_2 O7 1_555 1_555
O3A U2 1_555 1_555
O7A U2 1_555 1_555
O8A U1 1_555 1_555
O9_2 U1 1_555 1_555
O10A U2 1_555 1_555
O10 U2A_2 1_555 1_555
C1 C2 1_555 1_555

#END
