
#######################################################################
#
#                 Cambridge Crystallographic Data Centre
#                                CCDC 
#
#######################################################################
#
# If this CIF has been generated from an entry in the Cambridge 
# Structural Database, then it will include bibliographic, chemical, 
# crystal, experimental, refinement or atomic coordinate data resulting 
# from the CCDC's data processing and validation procedures.
#
#######################################################################

data_EXEDAN
_symmetry_cell_setting           triclinic
_symmetry_space_group_name_H-M   'P -1'
_symmetry_Int_Tables_number      2
_space_group_name_Hall           '-P 1'
loop_
_symmetry_equiv_pos_site_id
_symmetry_equiv_pos_as_xyz
1 x,y,z
2 -x,-y,-z
_cell_length_a                   8.4688(4)
_cell_length_b                   9.0850(5)
_cell_length_c                   11.4791(6)
_cell_angle_alpha                83.5870(10)
_cell_angle_beta                 77.4380(10)
_cell_angle_gamma                84.6840(10)
_cell_volume                     854.524
loop_
_atom_site_label
_atom_site_type_symbol
_atom_site_fract_x
_atom_site_fract_y
_atom_site_fract_z
U1 U -0.708550(19) -0.367700(18) -0.144400(14)
U2 U -0.263060(19) -0.197870(18) -0.418090(14)
P1 P -0.29712(14) -0.47838(13) -0.16456(10)
P2 P 0.13614(14) -0.11683(14) -0.36781(11)
O1 O -0.4695(4) -0.5192(4) -0.1543(3)
O2 O -0.2703(4) -0.3232(4) -0.2282(3)
O3 O -0.2462(4) -0.4904(4) -0.0439(3)
O4 O -0.0361(5) -0.8084(4) -0.1551(4)
H1 H -0.0367 -0.7611 -0.0982
O5 O -0.2589(5) -0.8375(4) -0.2183(4)
O6 O -0.0398(4) -0.1169(4) -0.3745(3)
O7 O 0.1653(4) -0.1670(4) -0.2430(3)
O8 O 0.2004(4) 0.0347(4) -0.4120(3)
O9 O 0.5336(4) -0.2270(4) -0.5362(3)
O10 O 0.4592(4) -0.3183(4) -0.3496(3)
O11 O -0.6282(4) -0.2305(4) -0.0803(3)
O12 O -0.7932(4) -0.5063(4) -0.2047(3)
O13 O -0.3820(4) -0.0511(4) -0.3451(3)
O14 O -0.1502(5) -0.3497(4) -0.4884(3)
O15 O -0.9942(4) -0.3214(4) -0.0347(3)
C1 C -0.1588(6) -0.6009(6) -0.2580(5)
H2 H -0.1934 -0.5995 -0.3333
H3 H -0.0521 -0.5626 -0.2757
C2 C -0.1449(7) -0.7573(6) -0.2054(5)
C3 C 0.2497(6) -0.2536(6) -0.4635(4)
H4 H 0.2443 -0.2229 -0.5463
H5 H 0.2025 -0.3486 -0.4410
C4 C 0.4223(6) -0.2691(5) -0.4511(4)
U1A U -0.291450(19) -0.632300(18) 0.144400(14)
U1_2 U 0.291450(19) -0.367700(18) -0.144400(14)
U2A U 0.263060(19) 0.197870(18) -0.581910(14)
U2_2 U 0.736940(19) -0.197870(18) -0.418090(14)
O3A O -0.7538(4) -0.5096(4) 0.0439(3)
O7_2 O -0.8347(4) -0.1670(4) -0.2430(3)
O8A O -0.2004(4) -0.0347(4) -0.5880(3)
O9_2 O -0.4664(4) -0.2270(4) -0.5362(3)
O10_2 O -0.5408(4) -0.3183(4) -0.3496(3)
Cs1 Cs -0.65037(5) -0.86207(4) -0.19324(3)
O16 O -0.7672(6) -0.9055(5) 0.0978(4)
loop_
_geom_bond_atom_site_label_1
_geom_bond_atom_site_label_2
_geom_bond_site_symmetry_1
_geom_bond_site_symmetry_2
U1 O1 1_555 1_555
U2 O2 1_555 1_555
P1 O1 1_555 1_555
P2 O6 1_555 1_555
O2 P1 1_555 1_555
O3 P1 1_555 1_555
O4 H1 1_555 1_555
O5 C2 1_555 1_555
O6 U2 1_555 1_555
O7 P2 1_555 1_555
O8 P2 1_555 1_555
O9 C4 1_555 1_555
O10 C4 1_555 1_555
O11 U1 1_555 1_555
O12 U1 1_555 1_555
O13 U2 1_555 1_555
O14 U2 1_555 1_555
O15 U1 1_555 1_555
C1 P1 1_555 1_555
H2 C1 1_555 1_555
H3 C1 1_555 1_555
C2 O4 1_555 1_555
C3 P2 1_555 1_555
H4 C3 1_555 1_555
H5 C3 1_555 1_555
C4 C3 1_555 1_555
U1A O3 1_555 1_555
U1_2 O7 1_555 1_555
U2A O8 1_555 1_555
U2_2 O9 1_555 1_555
O3A U1 1_555 1_555
O7_2 U1 1_555 1_555
O8A U2 1_555 1_555
O9_2 U2 1_555 1_555
O10_2 U1 1_555 1_555
O10 U1_2 1_555 1_555
C1 C2 1_555 1_555

#END
