
#######################################################################
#
#                 Cambridge Crystallographic Data Centre
#                                CCDC 
#
#######################################################################
#
# If this CIF has been generated from an entry in the Cambridge 
# Structural Database, then it will include bibliographic, chemical, 
# crystal, experimental, refinement or atomic coordinate data resulting 
# from the CCDC's data processing and validation procedures.
#
#######################################################################

data_EXELID
_symmetry_cell_setting           monoclinic
_symmetry_space_group_name_H-M   'C c'
_symmetry_Int_Tables_number      9
_space_group_name_Hall           'C -2yc'
loop_
_symmetry_equiv_pos_site_id
_symmetry_equiv_pos_as_xyz
1 x,y,z
2 x,-y,1/2+z
3 1/2+x,1/2+y,z
4 1/2+x,1/2-y,1/2+z
_cell_length_a                   13.3870(14)
_cell_length_b                   32.4616(16)
_cell_length_c                   10.381(2)
_cell_angle_alpha                90
_cell_angle_beta                 118.940(2)
_cell_angle_gamma                90
_cell_volume                     3947.88
loop_
_atom_site_label
_atom_site_type_symbol
_atom_site_fract_x
_atom_site_fract_y
_atom_site_fract_z
Ag1 Ag 0.82593(2) 0.121256(7) 0.33882(2)
Ag2 Ag 0.76026(2) -0.038030(8) -0.06960(3)
C1 C 0.7802(3) 0.32232(9) 0.2840(4)
C2 C 0.8300(3) 0.34564(10) 0.4113(4)
H1 H 0.8761 0.3326 0.5033
C3 C 0.8135(3) 0.38774(11) 0.4062(4)
H2 H 0.8467 0.4034 0.4944
C4 C 0.7486(3) 0.40696(11) 0.2723(5)
H3 H 0.7363 0.4359 0.2689
C5 C 0.7017(3) 0.38459(11) 0.1438(5)
H4 H 0.6590 0.3981 0.0519
C6 C 0.7169(3) 0.34213(11) 0.1488(4)
H5 H 0.6842 0.3266 0.0601
C7 C 0.7881(3) 0.27657(10) 0.2935(4)
C8 C 0.7091(3) 0.21420(10) 0.2114(4)
C9 C 0.8817(3) 0.21978(10) 0.4178(3)
C10 C 0.8892(3) 0.15878(10) 0.0853(4)
C11 C 0.8255(4) 0.18802(11) -0.0196(5)
H6 H 0.7595 0.1802 -0.1080
C12 C 0.8596(4) 0.22911(12) 0.0064(5)
H7 H 0.8175 0.2494 -0.0654
C13 C 0.9536(4) 0.24030(12) 0.1352(5)
H8 H 0.9753 0.2685 0.1522
C14 C 1.0170(4) 0.21166(12) 0.2399(5)
H9 H 1.0829 0.2199 0.3279
C15 C 0.9841(3) 0.17015(12) 0.2166(4)
H10 H 1.0261 0.1501 0.2895
C16 C 0.8575(3) 0.11447(10) 0.0563(4)
C17 C 0.7785(3) 0.06216(10) -0.1045(4)
C18 C 0.8673(3) 0.04944(10) 0.1400(4)
C19 C 0.9530(3) 0.09155(10) 0.6748(4)
C20 C 1.0262(3) 0.10188(11) 0.8368(4)
C21 C 1.0566(3) 0.07180(11) 0.9421(4)
H11 H 1.0329 0.0441 0.9144
C22 C 1.1219(3) 0.08208(12) 1.0885(4)
C23 C 1.1603(3) 0.12161(11) 1.1346(4)
H12 H 1.2054 0.1282 1.2360
C24 C 1.1303(3) 0.15083(11) 1.0273(4)
C25 C 1.0615(3) 0.14234(11) 0.8779(4)
H13 H 1.0393 0.1636 0.8064
C26 C 0.6142(3) 0.06630(11) 0.1082(4)
C27 C 0.5471(3) 0.06125(10) -0.0570(3)
C28 C 0.5316(3) 0.09516(10) -0.1474(4)
H14 H 0.5638 0.1211 -0.1060
C29 C 0.4691(3) 0.09032(10) -0.2971(4)
C30 C 0.4198(3) 0.05336(11) -0.3633(4)
H15 H 0.3762 0.0507 -0.4672
C31 C 0.4373(3) 0.02077(10) -0.2708(4)
C32 C 0.5007(3) 0.02340(11) -0.1186(4)
H16 H 0.5118 -0.0001 -0.0584
C33 C 0.7005(4) -0.17329(15) 0.0765(5)
H17 H 0.7376 -0.1502 0.1436
H18 H 0.6757 -0.1937 0.1248
H19 H 0.7545 -0.1861 0.0503
C34 C 0.5162(4) -0.18858(13) -0.1449(5)
H20 H 0.4522 -0.1745 -0.2269
H21 H 0.5494 -0.2088 -0.1835
H22 H 0.4887 -0.2027 -0.0846
C35 C 0.5888(3) -0.11882(11) -0.0878(4)
H23 H 0.5238 -0.1108 -0.1770
N1 N 1.1723(3) 0.19324(10) 1.0686(4)
N2 N 1.1484(3) 0.04964(12) 1.2008(4)
N3 N 0.4516(3) 0.12636(10) -0.3911(4)
N4 N 0.3843(3) -0.01906(9) -0.3361(4)
N5 N 0.7973(2) 0.19478(8) 0.3220(3)
N6 N 0.6995(2) 0.25543(8) 0.1934(3)
N7 N 0.8819(2) 0.26104(8) 0.4057(3)
N8 N 0.9703(2) 0.20310(9) 0.5324(3)
H24 H 1.0257 0.2189 0.5961
H25 H 0.9739 0.1762 0.5450
N9 N 0.6232(2) 0.19155(9) 0.1116(3)
H26 H 0.6254 0.1645 0.1193
H27 H 0.5645 0.2036 0.0380
N10 N 0.9048(3) 0.02354(9) 0.2527(3)
H28 H 0.8923 -0.0031 0.2367
H29 H 0.9421 0.0330 0.3434
N11 N 0.7187(3) 0.04983(9) -0.2443(3)
H30 H 0.7010 0.0237 -0.2647
H31 H 0.6969 0.0679 -0.3162
N12 N 0.8888(2) 0.09018(8) 0.1730(3)
N13 N 0.8108(2) 0.03407(8) 0.0033(3)
N14 N 0.8026(2) 0.10294(8) -0.0833(3)
N15 N 0.6027(2) -0.15844(10) -0.0550(3)
O1 O 0.3907(3) -0.04704(8) -0.2553(3)
O2 O 0.3350(3) -0.02121(9) -0.4705(3)
O3 O 0.5023(3) 0.15775(9) -0.3318(3)
O4 O 0.3876(3) 0.12270(9) -0.5237(3)
O5 O 1.1366(3) 0.01409(10) 1.1598(4)
O6 O 1.1791(3) 0.06088(11) 1.3262(3)
O7 O 1.2395(3) 0.19987(10) 1.1994(3)
O8 O 1.1402(3) 0.21919(9) 0.9729(4)
O9 O 0.9159(2) 0.05560(8) 0.6451(3)
O10 O 0.9360(2) 0.11961(7) 0.5852(3)
O11 O 0.6454(2) 0.10206(7) 0.1557(3)
O12 O 0.6342(3) 0.03433(7) 0.1844(3)
O13 O 0.6545(3) -0.09144(9) -0.0106(3)
Ag2A Ag 0.76026(2) 0.038030(8) 0.43040(3)
O9A O 0.9159(2) -0.05560(8) 0.1451(3)
O12A O 0.6342(3) -0.03433(7) -0.3156(3)
loop_
_geom_bond_atom_site_label_1
_geom_bond_atom_site_label_2
_geom_bond_site_symmetry_1
_geom_bond_site_symmetry_2
Ag1 N5 1_555 1_555
Ag2 N13 1_555 1_555
C1 C2 1_555 1_555
C2 H1 1_555 1_555
C3 C2 1_555 1_555
H2 C3 1_555 1_555
C4 C3 1_555 1_555
H3 C4 1_555 1_555
C5 C4 1_555 1_555
H4 C5 1_555 1_555
C6 C1 1_555 1_555
H5 C6 1_555 1_555
C7 C1 1_555 1_555
C8 N5 1_555 1_555
C9 N5 1_555 1_555
C10 C11 1_555 1_555
C11 H6 1_555 1_555
C12 C11 1_555 1_555
H7 C12 1_555 1_555
C13 C12 1_555 1_555
H8 C13 1_555 1_555
C14 C13 1_555 1_555
H9 C14 1_555 1_555
C15 C10 1_555 1_555
H10 C15 1_555 1_555
C16 C10 1_555 1_555
C17 N11 1_555 1_555
C18 N10 1_555 1_555
C19 C20 1_555 1_555
C20 C21 1_555 1_555
C21 H11 1_555 1_555
C22 C21 1_555 1_555
C23 C22 1_555 1_555
H12 C23 1_555 1_555
C24 C23 1_555 1_555
C25 C20 1_555 1_555
H13 C25 1_555 1_555
C26 C27 1_555 1_555
C27 C28 1_555 1_555
C28 H14 1_555 1_555
C29 C28 1_555 1_555
C30 C29 1_555 1_555
H15 C30 1_555 1_555
C31 C30 1_555 1_555
C32 C27 1_555 1_555
H16 C32 1_555 1_555
C33 H17 1_555 1_555
H18 C33 1_555 1_555
H19 C33 1_555 1_555
C34 H20 1_555 1_555
H21 C34 1_555 1_555
H22 C34 1_555 1_555
C35 H23 1_555 1_555
N1 C24 1_555 1_555
N2 C22 1_555 1_555
N3 C29 1_555 1_555
N4 C31 1_555 1_555
N6 C7 1_555 1_555
N7 C7 1_555 1_555
N8 C9 1_555 1_555
H24 N8 1_555 1_555
H25 N8 1_555 1_555
N9 C8 1_555 1_555
H26 N9 1_555 1_555
H27 N9 1_555 1_555
N10 H28 1_555 1_555
H29 N10 1_555 1_555
N11 H30 1_555 1_555
H31 N11 1_555 1_555
N12 Ag1 1_555 1_555
N13 C17 1_555 1_555
N14 C16 1_555 1_555
N15 C33 1_555 1_555
O1 N4 1_555 1_555
O2 N4 1_555 1_555
O3 N3 1_555 1_555
O4 N3 1_555 1_555
O5 N2 1_555 1_555
O6 N2 1_555 1_555
O7 N1 1_555 1_555
O8 N1 1_555 1_555
O9 C19 1_555 1_555
O10 Ag1 1_555 1_555
O11 Ag1 1_555 1_555
O12 C26 1_555 1_555
O13 Ag2 1_555 1_555
Ag2A O9 1_555 1_555
O9A Ag2 1_555 1_555
O12A Ag2 1_555 1_555
C5 C6 1_555 1_555
C8 N6 1_555 1_555
C9 N7 1_555 1_555
C14 C15 1_555 1_555
C16 N12 1_555 1_555
C17 N14 1_555 1_555
C18 N12 1_555 1_555
C18 N13 1_555 1_555
C19 O10 1_555 1_555
C24 C25 1_555 1_555
C26 O11 1_555 1_555
C31 C32 1_555 1_555
C34 N15 1_555 1_555
C35 N15 1_555 1_555
C35 O13 1_555 1_555
O12 Ag2A 1_555 1_555

#END
