
#######################################################################
#
#                 Cambridge Crystallographic Data Centre
#                                CCDC 
#
#######################################################################
#
# If this CIF has been generated from an entry in the Cambridge 
# Structural Database, then it will include bibliographic, chemical, 
# crystal, experimental, refinement or atomic coordinate data resulting 
# from the CCDC's data processing and validation procedures.
#
#######################################################################

data_EXELOJ
_symmetry_cell_setting           triclinic
_symmetry_space_group_name_H-M   'P -1'
_symmetry_Int_Tables_number      2
_space_group_name_Hall           '-P 1'
loop_
_symmetry_equiv_pos_site_id
_symmetry_equiv_pos_as_xyz
1 x,y,z
2 -x,-y,-z
_cell_length_a                   9.6559(7)
_cell_length_b                   11.2106(9)
_cell_length_c                   12.0882(10)
_cell_angle_alpha                81.934(2)
_cell_angle_beta                 81.997(2)
_cell_angle_gamma                77.0190(19)
_cell_volume                     1254.58
loop_
_atom_site_label
_atom_site_type_symbol
_atom_site_fract_x
_atom_site_fract_y
_atom_site_fract_z
Ag1 Ag 0.34602(6) 1.02251(5) 0.05399(5)
Ag2 Ag -0.14917(6) 0.72908(5) 0.26868(5)
C1 C -0.3319(7) 1.0266(6) 0.2281(6)
C2 C -0.4100(8) 1.1290(7) 0.2792(7)
H1 H -0.3658 1.1957 0.2828
C3 C -0.5509(9) 1.1347(8) 0.3246(8)
H2 H -0.6014 1.2029 0.3626
C4 C -0.6174(9) 1.0401(8) 0.3141(8)
H3 H -0.7152 1.0454 0.3423
C5 C -0.5432(8) 0.9383(7) 0.2632(7)
H4 H -0.5888 0.8727 0.2587
C6 C -0.4020(8) 0.9320(7) 0.2186(6)
H5 H -0.3521 0.8632 0.1813
C7 C -0.1786(7) 1.0226(6) 0.1854(6)
C8 C 0.0460(7) 0.9152(6) 0.1402(6)
C9 C -0.0004(7) 1.1249(7) 0.1240(7)
C10 C -0.0174(7) 0.7024(7) 0.5235(6)
C11 C 0.1009(9) 0.6482(8) 0.5818(8)
H6 H 0.0989 0.5759 0.6330
C12 C 0.2216(9) 0.7001(9) 0.5650(9)
H7 H 0.3036 0.6609 0.6017
C13 C 0.2221(10) 0.8063(10) 0.4966(8)
H8 H 0.3048 0.8410 0.4850
C14 C 0.1032(12) 0.8649(11) 0.4432(9)
H9 H 0.1043 0.9403 0.3965
C15 C -0.0177(10) 0.8143(9) 0.4573(7)
H10 H -0.1000 0.8558 0.4219
C16 C -0.1435(7) 0.6448(7) 0.5418(6)
C17 C -0.3419(7) 0.6109(7) 0.4776(7)
C18 C -0.2940(9) 0.5403(7) 0.6546(7)
C19 C 0.7288(7) 0.5482(6) 0.1092(6)
C20 C 0.6136(6) 0.5241(6) 0.0488(6)
C21 C 0.5989(7) 0.4028(6) 0.0463(6)
H11 H 0.6664 0.3361 0.0780
C22 C 0.5133(7) 0.6208(6) 0.0018(6)
C23 C 0.5258(7) 0.7528(6) -0.0043(6)
N1 N -0.0916(6) 0.9117(5) 0.1797(5)
N2 N 0.0977(6) 1.0185(5) 0.1122(5)
N3 N -0.1406(6) 1.1307(5) 0.1581(6)
N4 N 0.0416(7) 1.2307(6) 0.1002(7)
H12 H -0.0209 1.3004 0.1069
H13 H 0.1321 1.2315 0.0776
N5 N 0.1359(6) 0.8074(5) 0.1280(6)
H14 H 0.2261 0.8053 0.1022
H15 H 0.1049 0.7383 0.1457
N6 N -0.2225(6) 0.6608(6) 0.4535(6)
N7 N -0.3814(6) 0.5539(6) 0.5760(6)
N8 N -0.1705(7) 0.5819(6) 0.6397(6)
N9 N -0.3263(8) 0.4796(7) 0.7538(6)
H16 H -0.4043 0.4494 0.7665
H17 H -0.2696 0.4696 0.8069
N10 N -0.4240(7) 0.6213(7) 0.3956(6)
H18 H -0.5017 0.5905 0.4080
H19 H -0.4006 0.6588 0.3290
O1 O 0.8496(5) 0.4783(5) 0.0987(6)
O2 O 0.0400(6) 0.5714(6) 0.1780(7)
H20 H 0.0544 0.5063 0.2223
H21 H 0.0006 0.5280 0.1448
O3 O 0.6946(5) 0.6351(5) 0.1698(5)
O4 O 0.4135(5) 0.8250(4) 0.0314(5)
O5 O 0.6402(5) 0.7822(4) -0.0443(4)
Ag1A Ag 0.65398(6) -0.02251(5) -0.05399(5)
Ag1A_2 Ag 0.65398(6) 0.97749(5) -0.05399(5)
Ag1_2 Ag 0.34602(6) 0.02251(5) 0.05399(5)
Ag2_2 Ag 0.85083(6) 0.72908(5) 0.26868(5)
Ag2A Ag 0.14917(6) 0.27092(5) -0.26868(5)
Ag2A_2 Ag 1.14917(6) 0.27092(5) -0.26868(5)
C1A C 1.3319(7) -0.0266(6) -0.2281(6)
C2A C 1.4100(8) -0.1290(7) -0.2792(7)
H1A H 1.3658 -0.1957 -0.2828
C3A C 1.5509(9) -0.1347(8) -0.3246(8)
H2A H 1.6014 -0.2029 -0.3626
C4A C 1.6174(9) -0.0401(8) -0.3141(8)
H3A H 1.7152 -0.0454 -0.3423
C5A C 1.5432(8) 0.0617(7) -0.2632(7)
H4A H 1.5888 0.1273 -0.2587
C6A C 1.4020(8) 0.0680(7) -0.2186(6)
H5A H 1.3521 0.1368 -0.1813
C7A C 1.1786(7) -0.0226(6) -0.1854(6)
C8A C 0.9540(7) 0.0848(6) -0.1402(6)
C9A C 1.0004(7) -0.1249(7) -0.1240(7)
C10_2 C 0.9826(7) 0.7024(7) 0.5235(6)
C11_2 C 1.1009(9) 0.6482(8) 0.5818(8)
H6_2 H 1.0989 0.5759 0.6330
C12_2 C 1.2216(9) 0.7001(9) 0.5650(9)
H7_2 H 1.3036 0.6609 0.6017
C13_2 C 1.2221(10) 0.8063(10) 0.4966(8)
H8_2 H 1.3048 0.8410 0.4850
C14_2 C 1.1032(12) 0.8649(11) 0.4432(9)
H9_2 H 1.1043 0.9403 0.3965
C15_2 C 0.9823(10) 0.8143(9) 0.4573(7)
H10_2 H 0.9000 0.8558 0.4219
C16_2 C 0.8565(7) 0.6448(7) 0.5418(6)
C17_2 C 0.6581(7) 0.6109(7) 0.4776(7)
C18_2 C 0.7060(9) 0.5403(7) 0.6546(7)
C19A C 0.2712(7) 0.4518(6) -0.1092(6)
C20A C 0.3864(6) 0.4759(6) -0.0488(6)
C21A C 0.4011(7) 0.5972(6) -0.0463(6)
H11A H 0.3336 0.6639 -0.0780
C22A C 0.4867(7) 0.3792(6) -0.0018(6)
C23A C 0.4742(7) 0.2472(6) 0.0043(6)
N1A N 1.0916(6) 0.0883(5) -0.1797(5)
N1_2 N 0.9084(6) 0.9117(5) 0.1797(5)
N2A N 0.9023(6) -0.0185(5) -0.1122(5)
N3A N 1.1406(6) -0.1307(5) -0.1581(6)
N4A N 0.9584(7) -0.2307(6) -0.1002(7)
H12A H 1.0209 -0.3004 -0.1069
H13A H 0.8679 -0.2315 -0.0776
N5A N 0.8641(6) 0.1926(5) -0.1280(6)
H14A H 0.7739 0.1947 -0.1022
H15A H 0.8951 0.2617 -0.1457
N6_2 N 0.7775(6) 0.6608(6) 0.4535(6)
N7_2 N 0.6186(6) 0.5539(6) 0.5760(6)
N8_2 N 0.8295(7) 0.5819(6) 0.6397(6)
N9_2 N 0.6737(8) 0.4796(7) 0.7538(6)
H16_2 H 0.5957 0.4494 0.7665
H17_2 H 0.7304 0.4696 0.8069
N10_2 N 0.5760(7) 0.6213(7) 0.3956(6)
H18_2 H 0.4983 0.5905 0.4080
H19_2 H 0.5994 0.6588 0.3290
O1A O 0.1504(5) 0.5217(5) -0.0987(6)
O2_2 O 1.0400(6) 0.5714(6) 0.1780(7)
H20_2 H 1.0544 0.5063 0.2223
H21_2 H 1.0006 0.5280 0.1448
O3A O 0.3054(5) 0.3649(5) -0.1698(5)
O3_2 O -0.3054(5) 0.6351(5) 0.1698(5)
O4A O 0.5865(5) 0.1750(4) -0.0314(5)
O5A O 0.3598(5) 0.2178(4) 0.0443(4)
O5A_2 O 0.3598(5) 1.2178(4) 0.0443(4)
O5_2 O 0.6402(5) -0.2178(4) -0.0443(4)
loop_
_geom_bond_atom_site_label_1
_geom_bond_atom_site_label_2
_geom_bond_site_symmetry_1
_geom_bond_site_symmetry_2
Ag1 N2 1_555 1_555
Ag2 N1 1_555 1_555
C1 C2 1_555 1_555
C2 H1 1_555 1_555
C3 C2 1_555 1_555
H2 C3 1_555 1_555
C4 C3 1_555 1_555
H3 C4 1_555 1_555
C5 C4 1_555 1_555
H4 C5 1_555 1_555
C6 C1 1_555 1_555
H5 C6 1_555 1_555
C7 C1 1_555 1_555
C8 N1 1_555 1_555
C9 N2 1_555 1_555
C10 C11 1_555 1_555
C11 H6 1_555 1_555
C12 C11 1_555 1_555
H7 C12 1_555 1_555
C13 C12 1_555 1_555
H8 C13 1_555 1_555
C14 C13 1_555 1_555
H9 C14 1_555 1_555
C15 C10 1_555 1_555
H10 C15 1_555 1_555
C16 C10 1_555 1_555
C17 N6 1_555 1_555
C18 N7 1_555 1_555
C19 C20 1_555 1_555
C20 C21 1_555 1_555
C21 H11 1_555 1_555
C22 C20 1_555 1_555
C23 C22 1_555 1_555
N1 C7 1_555 1_555
N2 C8 1_555 1_555
N3 C7 1_555 1_555
N4 C9 1_555 1_555
H12 N4 1_555 1_555
H13 N4 1_555 1_555
N5 C8 1_555 1_555
H14 N5 1_555 1_555
H15 N5 1_555 1_555
N6 Ag2 1_555 1_555
N7 C17 1_555 1_555
N8 C16 1_555 1_555
N9 C18 1_555 1_555
H16 N9 1_555 1_555
H17 N9 1_555 1_555
N10 C17 1_555 1_555
H18 N10 1_555 1_555
H19 N10 1_555 1_555
O1 C19 1_555 1_555
O2 Ag2 1_555 1_555
H20 O2 1_555 1_555
H21 O2 1_555 1_555
O3 C19 1_555 1_555
O4 Ag1 1_555 1_555
O5 C23 1_555 1_555
Ag1A N2A 1_555 1_555
Ag1A_2 O5 1_555 1_555
Ag1_2 O5A 1_555 1_555
Ag2_2 O3 1_555 1_555
Ag2A O3A 1_555 1_555
Ag2A_2 N1A 1_555 1_555
C1A C2A 1_555 1_555
C2A H1A 1_555 1_555
C3A C2A 1_555 1_555
H2A C3A 1_555 1_555
C4A C3A 1_555 1_555
H3A C4A 1_555 1_555
C5A C4A 1_555 1_555
H4A C5A 1_555 1_555
C6A C1A 1_555 1_555
H5A C6A 1_555 1_555
C7A C1A 1_555 1_555
C8A N1A 1_555 1_555
C9A N2A 1_555 1_555
C10_2 C11_2 1_555 1_555
C11_2 H6_2 1_555 1_555
C12_2 C11_2 1_555 1_555
H7_2 C12_2 1_555 1_555
C13_2 C12_2 1_555 1_555
H8_2 C13_2 1_555 1_555
C14_2 C13_2 1_555 1_555
H9_2 C14_2 1_555 1_555
C15_2 C10_2 1_555 1_555
H10_2 C15_2 1_555 1_555
C16_2 C10_2 1_555 1_555
C17_2 N6_2 1_555 1_555
C18_2 N7_2 1_555 1_555
C19A C20A 1_555 1_555
C20A C21A 1_555 1_555
C21A C22 1_555 1_555
H11A C21A 1_555 1_555
C22A C21 1_555 1_555
C23A C22A 1_555 1_555
N1A C7A 1_555 1_555
N1_2 Ag2_2 1_555 1_555
N2A C8A 1_555 1_555
N3A C7A 1_555 1_555
N4A C9A 1_555 1_555
H12A N4A 1_555 1_555
H13A N4A 1_555 1_555
N5A C8A 1_555 1_555
H14A N5A 1_555 1_555
H15A N5A 1_555 1_555
N6_2 Ag2_2 1_555 1_555
N7_2 C17_2 1_555 1_555
N8_2 C16_2 1_555 1_555
N9_2 C18_2 1_555 1_555
H16_2 N9_2 1_555 1_555
H17_2 N9_2 1_555 1_555
N10_2 C17_2 1_555 1_555
H18_2 N10_2 1_555 1_555
H19_2 N10_2 1_555 1_555
O1A C19A 1_555 1_555
O2_2 Ag2_2 1_555 1_555
H20_2 O2_2 1_555 1_555
H21_2 O2_2 1_555 1_555
O3A C19A 1_555 1_555
O3_2 Ag2 1_555 1_555
O4A Ag1A 1_555 1_555
O5A C23A 1_555 1_555
O5A_2 Ag1 1_555 1_555
O5_2 Ag1A 1_555 1_555
C5 C6 1_555 1_555
C9 N3 1_555 1_555
C14 C15 1_555 1_555
C16 N6 1_555 1_555
C18 N8 1_555 1_555
C23 O4 1_555 1_555
C5A C6A 1_555 1_555
C9A N3A 1_555 1_555
C14_2 C15_2 1_555 1_555
C16_2 N6_2 1_555 1_555
C18_2 N8_2 1_555 1_555
C20A C22A 1_555 1_555
C23A O4A 1_555 1_555

#END
