
#######################################################################
#
#                 Cambridge Crystallographic Data Centre
#                                CCDC 
#
#######################################################################
#
# If this CIF has been generated from an entry in the Cambridge 
# Structural Database, then it will include bibliographic, chemical, 
# crystal, experimental, refinement or atomic coordinate data resulting 
# from the CCDC's data processing and validation procedures.
#
#######################################################################

data_EXEMEA
_symmetry_cell_setting           monoclinic
_symmetry_space_group_name_H-M   'P 21/c'
_symmetry_Int_Tables_number      14
_space_group_name_Hall           '-P 2ybc'
loop_
_symmetry_equiv_pos_site_id
_symmetry_equiv_pos_as_xyz
1 x,y,z
2 -x,1/2+y,1/2-z
3 -x,-y,-z
4 x,1/2-y,1/2+z
_cell_length_a                   11.0820(13)
_cell_length_b                   5.1509(4)
_cell_length_c                   17.908(2)
_cell_angle_alpha                90
_cell_angle_beta                 109.810(9)
_cell_angle_gamma                90
_cell_volume                     961.735
loop_
_atom_site_label
_atom_site_type_symbol
_atom_site_fract_x
_atom_site_fract_y
_atom_site_fract_z
Co1 Co 0.0000 -1.0000 -0.5000
O1 O 0.11074(9) -0.75773(17) -0.40695(5)
O2 O 0.29903(9) -0.96571(17) -0.36835(6)
O3 O 0.24428(9) -0.38904(19) -0.13719(5)
O4 O 0.01328(10) -0.72604(19) -0.58369(6)
H1 H -0.0221(19) -0.588(4) -0.5842(12)
H2 H -0.0095(19) -0.778(4) -0.6298(12)
O5 O 0.16011(9) -1.19236(19) -0.50566(6)
H3 H 0.1879(18) -1.158(4) -0.5427(11)
H4 H 0.2139(18) -1.139(4) -0.4660(11)
N1 N 0.42453(12) -0.4844(2) -0.16351(7)
H5 H 0.5016(18) -0.461(3) -0.1553(11)
C1 C 0.22691(12) -0.7827(2) -0.36356(7)
C2 C 0.28498(14) -0.5724(3) -0.30225(8)
H6 H 0.3410 -0.4602 -0.3213
H7 H 0.2153 -0.4629 -0.2964
C3 C 0.36246(13) -0.6838(3) -0.22211(8)
H8 H 0.3052 -0.7887 -0.2019
H9 H 0.4290 -0.8010 -0.2286
C4 C 0.36146(12) -0.3570(2) -0.12390(7)
C5 C 0.43537(12) -0.1716(2) -0.06060(7)
C6 C 0.56625(12) -0.2035(2) -0.01867(8)
H10 H 0.6114 -0.3437 -0.0315
C7 C 0.36942(13) 0.0332(2) -0.04124(8)
H11 H 0.2804 0.0558 -0.0692
Co1_2 Co 1.0000 1.0000 0.5000
O1B O 0.88926(9) 0.75773(17) 0.40695(5)
O1B_2 O -0.11074(9) -1.24227(17) -0.59305(5)
O2B O 0.70097(9) 0.96571(17) 0.36835(6)
O3B O 0.75572(9) 0.38904(19) 0.13719(5)
O4B O -0.01328(10) -1.27396(19) -0.41631(6)
H1B H 0.0221(19) -1.412(4) -0.4158(12)
H2B H 0.0095(19) -1.222(4) -0.3702(12)
O5B O -0.16011(9) -0.80764(19) -0.49434(6)
H3B H -0.1879(18) -0.842(4) -0.4573(11)
H4B H -0.2139(18) -0.861(4) -0.5340(11)
N1B N 0.57547(12) 0.4844(2) 0.16351(7)
H5B H 0.4984(18) 0.461(3) 0.1553(11)
C1B C 0.77309(12) 0.7827(2) 0.36356(7)
C2B C 0.71502(14) 0.5724(3) 0.30225(8)
H6B H 0.6590 0.4602 0.3213
H7B H 0.7847 0.4629 0.2964
C3B C 0.63754(13) 0.6838(3) 0.22211(8)
H8B H 0.6948 0.7887 0.2019
H9B H 0.5710 0.8010 0.2286
C4B C 0.63854(12) 0.3570(2) 0.12390(7)
C5B C 0.56463(12) 0.1716(2) 0.06060(7)
C6B C 0.43375(12) 0.2035(2) 0.01867(8)
H10B H 0.3886 0.3437 0.0315
C7B C 0.63058(13) -0.0332(2) 0.04124(8)
H11B H 0.7196 -0.0558 0.0692
O6 O 0.05152(12) -0.1457(2) -0.25638(7)
H12 H 0.117(2) -0.196(4) -0.2198(13)
H13 H 0.035(2) 0.010(4) -0.2504(16)
loop_
_geom_bond_atom_site_label_1
_geom_bond_atom_site_label_2
_geom_bond_site_symmetry_1
_geom_bond_site_symmetry_2
Co1 O1 1_555 1_555
O1 C1 1_555 1_555
O2 C1 1_555 1_555
O3 C4 1_555 1_555
O4 Co1 1_555 1_555
H1 O4 1_555 1_555
H2 O4 1_555 1_555
O5 Co1 1_555 1_555
H3 O5 1_555 1_555
H4 O5 1_555 1_555
N1 H5 1_555 1_555
C1 C2 1_555 1_555
C2 H6 1_555 1_555
H7 C2 1_555 1_555
C3 N1 1_555 1_555
H8 C3 1_555 1_555
H9 C3 1_555 1_555
C4 N1 1_555 1_555
C5 C4 1_555 1_555
C6 C5 1_555 1_555
H10 C6 1_555 1_555
C7 C5 1_555 1_555
H11 C7 1_555 1_555
O6 H12 1_555 1_555
H13 O6 1_555 1_555
Co1_2 O1B 1_555 1_555
O1B C1B 1_555 1_555
O1B_2 Co1 1_555 1_555
O2B C1B 1_555 1_555
O3B C4B 1_555 1_555
O4B Co1 1_555 1_555
H1B O4B 1_555 1_555
H2B O4B 1_555 1_555
O5B Co1 1_555 1_555
H3B O5B 1_555 1_555
H4B O5B 1_555 1_555
N1B H5B 1_555 1_555
C1B C2B 1_555 1_555
C2B H6B 1_555 1_555
H7B C2B 1_555 1_555
C3B N1B 1_555 1_555
H8B C3B 1_555 1_555
H9B C3B 1_555 1_555
C4B N1B 1_555 1_555
C5B C4B 1_555 1_555
C6B C7 1_555 1_555
H10B C6B 1_555 1_555
C7B C6 1_555 1_555
H11B C7B 1_555 1_555
C2 C3 1_555 1_555
C2B C3B 1_555 1_555
C5B C6B 1_555 1_555
C5B C7B 1_555 1_555

#END
