
#######################################################################
#
#                 Cambridge Crystallographic Data Centre
#                                CCDC 
#
#######################################################################
#
# If this CIF has been generated from an entry in the Cambridge 
# Structural Database, then it will include bibliographic, chemical, 
# crystal, experimental, refinement or atomic coordinate data resulting 
# from the CCDC's data processing and validation procedures.
#
#######################################################################

data_EXIBUI
_symmetry_cell_setting           triclinic
_symmetry_space_group_name_H-M   'P -1'
_symmetry_Int_Tables_number      2
_space_group_name_Hall           '-P 1'
loop_
_symmetry_equiv_pos_site_id
_symmetry_equiv_pos_as_xyz
1 x,y,z
2 -x,-y,-z
_cell_length_a                   7.219(4)
_cell_length_b                   10.795(5)
_cell_length_c                   11.662(6)
_cell_angle_alpha                113.686(7)
_cell_angle_beta                 102.814(7)
_cell_angle_gamma                95.069(8)
_cell_volume                     795.339
loop_
_atom_site_label
_atom_site_type_symbol
_atom_site_fract_x
_atom_site_fract_y
_atom_site_fract_z
Ba1 Ba 0.45215(3) 0.772951(19) 0.384219(18)
V1 V 0.13016(9) 0.25020(6) -0.17464(6)
O1 O 0.3577(5) 0.4987(3) 0.2132(3)
O2 O 0.2284(4) 0.4122(3) -0.0031(3)
O3 O 0.0746(4) 0.0423(3) -0.2806(2)
O4 O 0.0850(6) -0.1666(3) -0.2872(3)
O5 O 0.4326(6) 0.0910(4) 0.3526(3)
O6 O 0.4398(5) -0.1081(3) 0.1978(3)
O7 O 0.2596(5) 0.2898(3) -0.2560(3)
O8 O -0.0868(4) 0.2728(3) -0.2187(3)
O9 O 0.6948(8) 0.6295(5) 0.4867(4)
O10 O 0.1933(7) 0.6442(5) 0.4635(4)
O11 O 0.7579(4) 1.0103(3) 0.5013(2)
N1 N 0.2118(4) 0.1684(3) -0.0398(3)
C1 C 0.2937(6) 0.4022(4) 0.1059(4)
C2 C 0.2867(5) 0.2548(3) 0.0856(3)
C3 C 0.3479(6) 0.2073(4) 0.1784(3)
C4 C 0.3354(5) 0.0654(4) 0.1370(3)
C5 C 0.4093(5) 0.0112(4) 0.2383(3)
C6 C 0.2583(5) -0.0239(3) 0.0049(3)
C7 C 0.1968(5) 0.0322(3) -0.0817(3)
C8 C 0.1121(6) -0.0419(4) -0.2276(3)
H1 H 0.404(6) 0.270(3) 0.2685(15)
H2 H 0.240(5) -0.1215(12) -0.024(3)
H3 H 0.143(8) 0.7077(16) 0.522(5)
H4 H 0.095(6) 0.581(5) 0.3932(15)
H5 H 0.850(4) 1.023(3) 0.5754(13)
H6 H 0.813(6) 1.047(3) 0.455(4)
H11 H 0.613(3) 0.573(5) 0.506(6)
H12 H 0.737(7) 0.571(5) 0.418(2)
O5A O 0.5674(6) 0.9090(4) 0.6474(3)
O6_2 O 0.4398(5) 0.8919(3) 0.1978(3)
O11A O 0.2421(4) 0.9897(3) 0.4987(2)
O7A O 0.7404(5) 0.7102(3) 0.2560(3)
O8A O 0.0868(4) 0.7272(3) 0.2187(3)
Ba1A Ba 0.54785(3) 0.227049(19) 0.615781(18)
Ba1_2 Ba 0.45215(3) -0.227049(19) 0.384219(18)
Ba1A_2 Ba 0.54785(3) 1.227049(19) 0.615781(18)
H5A H 0.150(4) 0.977(3) 0.4246(13)
H6A H 0.187(6) 0.953(3) 0.545(4)
Ba1A_3 Ba -0.45215(3) 0.227049(19) -0.384219(18)
Ba1A_4 Ba 0.54785(3) 0.227049(19) -0.384219(18)
O12 O 0.6828(8) 0.3444(4) 0.0323(4)
H7 H 0.8143(19) 0.347(3) 0.037(3)
H8 H 0.641(6) 0.398(8) -0.010(8)
O13 O 0.8553(7) 0.4375(4) 0.3015(4)
H9 H 0.780(10) 0.367(5) 0.308(8)
H10 H 0.925(9) 0.395(6) 0.243(6)
loop_
_geom_bond_atom_site_label_1
_geom_bond_atom_site_label_2
_geom_bond_site_symmetry_1
_geom_bond_site_symmetry_2
Ba1 O1 1_555 1_555
V1 O2 1_555 1_555
O1 C1 1_555 1_555
O2 C1 1_555 1_555
O3 V1 1_555 1_555
O4 C8 1_555 1_555
O5 C5 1_555 1_555
O6 C5 1_555 1_555
O7 V1 1_555 1_555
O8 V1 1_555 1_555
O9 Ba1 1_555 1_555
O10 Ba1 1_555 1_555
O11 Ba1 1_555 1_555
N1 V1 1_555 1_555
C1 C2 1_555 1_555
C2 N1 1_555 1_555
C3 C2 1_555 1_555
C4 C3 1_555 1_555
C5 C4 1_555 1_555
C6 C4 1_555 1_555
C7 N1 1_555 1_555
C8 O3 1_555 1_555
O12 H7 1_555 1_555
O13 H9 1_555 1_555
H1 C3 1_555 1_555
H2 C6 1_555 1_555
H3 O10 1_555 1_555
H4 O10 1_555 1_555
H5 O11 1_555 1_555
H6 O11 1_555 1_555
H8 O12 1_555 1_555
H10 O13 1_555 1_555
H11 O9 1_555 1_555
H12 O9 1_555 1_555
O5A Ba1 1_555 1_555
O6_2 Ba1 1_555 1_555
O11A Ba1 1_555 1_555
O7A Ba1 1_555 1_555
O8A Ba1 1_555 1_555
Ba1A O5 1_555 1_555
Ba1_2 O6 1_555 1_555
Ba1A_2 O11 1_555 1_555
H5A O11A 1_555 1_555
H6A O11A 1_555 1_555
Ba1A_3 O8 1_555 1_555
Ba1A_4 O7 1_555 1_555
C6 C7 1_555 1_555
C7 C8 1_555 1_555
O11A Ba1A_2 1_555 1_555

#END
