
#######################################################################
#
#                 Cambridge Crystallographic Data Centre
#                                CCDC 
#
#######################################################################
#
# If this CIF has been generated from an entry in the Cambridge 
# Structural Database, then it will include bibliographic, chemical, 
# crystal, experimental, refinement or atomic coordinate data resulting 
# from the CCDC's data processing and validation procedures.
#
#######################################################################

data_EXOGON
_symmetry_cell_setting           monoclinic
_symmetry_space_group_name_H-M   'P 21/c'
_symmetry_Int_Tables_number      14
_space_group_name_Hall           '-P 2ybc'
loop_
_symmetry_equiv_pos_site_id
_symmetry_equiv_pos_as_xyz
1 x,y,z
2 x,1/2-y,1/2+z
3 -x,-y,-z
4 -x,1/2+y,1/2-z
_cell_length_a                   14.3088(19)
_cell_length_b                   7.6512(11)
_cell_length_c                   18.597(3)
_cell_angle_alpha                90
_cell_angle_beta                 108.076(3)
_cell_angle_gamma                90
_cell_volume                     1935.51
loop_
_atom_site_label
_atom_site_type_symbol
_atom_site_fract_x
_atom_site_fract_y
_atom_site_fract_z
Zn1 Zn 0.220982(15) 0.92893(3) 0.296967(11)
S1 S 0.14873(3) 0.52536(5) 0.33803(2)
O1 O 0.09324(10) 1.04849(16) 0.29540(9)
H1 H 0.0997 1.1546 0.2958
H2 H 0.0386 1.0059 0.2711
O2 O 0.29496(10) 1.16849(18) 0.28520(7)
H3 H 0.2900 1.1842 0.2407
H4 H 0.2760 1.2607 0.3006
O3 O 0.14463(10) 0.68125(16) 0.29222(7)
O4 O 0.07439(10) 0.40019(16) 0.29596(7)
O5 O 0.24553(10) 0.44739(18) 0.36637(8)
O6 O 0.03737(11) 0.79540(19) 0.59607(8)
H5 H 0.0733 0.7592 0.6368
O7 O 0.24344(12) 0.3950(2) 0.63579(8)
O8 O 0.17914(12) 0.6137(2) 0.68326(7)
N1 N 0.35893(11) 0.7981(2) 0.32492(9)
N2 N 0.27024(12) 0.94267(19) 0.41808(9)
C1 C 0.40275(17) 0.7322(3) 0.27784(14)
H6 H 0.3710 0.7399 0.2261
C2 C 0.4947(2) 0.6519(4) 0.30305(17)
H7 H 0.5236 0.6072 0.2685
C3 C 0.54200(17) 0.6393(3) 0.37872(17)
H8 H 0.6031 0.5851 0.3961
C4 C 0.49834(15) 0.7082(3) 0.43023(14)
C5 C 0.54329(16) 0.7056(3) 0.51003(15)
H9 H 0.6044 0.6529 0.5302
C6 C 0.49885(18) 0.7779(3) 0.55674(14)
H10 H 0.5301 0.7742 0.6087
C7 C 0.40479(16) 0.8605(3) 0.52861(11)
C8 C 0.3566(2) 0.9435(3) 0.57391(13)
H11 H 0.3850 0.9453 0.6262
C9 C 0.26672(19) 1.0231(3) 0.54114(13)
H12 H 0.2342 1.0786 0.5709
C10 C 0.22593(16) 1.0188(3) 0.46332(12)
H13 H 0.1650 1.0712 0.4416
C11 C 0.35794(14) 0.8645(2) 0.44994(10)
C12 C 0.40574(13) 0.7881(2) 0.40001(11)
C13 C 0.13848(13) 0.5958(2) 0.55125(10)
C14 C 0.06398(13) 0.7223(2) 0.53933(10)
C15 C 0.01313(14) 0.7770(2) 0.46614(11)
H14 H -0.0383 0.8564 0.4584
C16 C 0.03843(13) 0.7147(2) 0.40546(10)
H15 H 0.0046 0.7526 0.3568
C17 C 0.11473(13) 0.5949(2) 0.41681(10)
C18 C 0.16302(13) 0.5340(2) 0.48865(10)
H16 H 0.2124 0.4508 0.4955
C19 C 0.19171(14) 0.5267(2) 0.62807(10)
O8A O 0.17914(12) 0.8863(2) 0.18326(7)
Zn1A Zn 0.220982(15) 0.57107(3) 0.796967(11)
loop_
_geom_bond_atom_site_label_1
_geom_bond_atom_site_label_2
_geom_bond_site_symmetry_1
_geom_bond_site_symmetry_2
Zn1 O1 1_555 1_555
S1 O3 1_555 1_555
O1 H1 1_555 1_555
H2 O1 1_555 1_555
O2 Zn1 1_555 1_555
H3 O2 1_555 1_555
H4 O2 1_555 1_555
O3 Zn1 1_555 1_555
O4 S1 1_555 1_555
O5 S1 1_555 1_555
O6 H5 1_555 1_555
O7 C19 1_555 1_555
O8 C19 1_555 1_555
N1 Zn1 1_555 1_555
N2 Zn1 1_555 1_555
C1 N1 1_555 1_555
H6 C1 1_555 1_555
C2 C1 1_555 1_555
H7 C2 1_555 1_555
C3 C2 1_555 1_555
H8 C3 1_555 1_555
C4 C3 1_555 1_555
C5 C4 1_555 1_555
H9 C5 1_555 1_555
C6 C5 1_555 1_555
H10 C6 1_555 1_555
C7 C6 1_555 1_555
C8 C7 1_555 1_555
H11 C8 1_555 1_555
C9 C8 1_555 1_555
H12 C9 1_555 1_555
C10 N2 1_555 1_555
H13 C10 1_555 1_555
C11 N2 1_555 1_555
C12 N1 1_555 1_555
C13 C14 1_555 1_555
C14 O6 1_555 1_555
C15 C14 1_555 1_555
H14 C15 1_555 1_555
C16 C15 1_555 1_555
H15 C16 1_555 1_555
C17 S1 1_555 1_555
C18 C13 1_555 1_555
H16 C18 1_555 1_555
C19 C13 1_555 1_555
O8A Zn1 1_555 1_555
Zn1A O8 1_555 1_555
C4 C12 1_555 1_555
C7 C11 1_555 1_555
C9 C10 1_555 1_555
C11 C12 1_555 1_555
C16 C17 1_555 1_555
C17 C18 1_555 1_555

#END
