
#######################################################################
#
#                 Cambridge Crystallographic Data Centre
#                                CCDC 
#
#######################################################################
#
# If this CIF has been generated from an entry in the Cambridge 
# Structural Database, then it will include bibliographic, chemical, 
# crystal, experimental, refinement or atomic coordinate data resulting 
# from the CCDC's data processing and validation procedures.
#
#######################################################################

data_EXOHAA
_symmetry_cell_setting           monoclinic
_symmetry_space_group_name_H-M   'C c'
_symmetry_Int_Tables_number      9
_space_group_name_Hall           'C -2yc'
loop_
_symmetry_equiv_pos_site_id
_symmetry_equiv_pos_as_xyz
1 x,y,z
2 x,-y,1/2+z
3 1/2+x,1/2+y,z
4 1/2+x,1/2-y,1/2+z
_cell_length_a                   27.71(4)
_cell_length_b                   9.432(11)
_cell_length_c                   25.01(3)
_cell_angle_alpha                90
_cell_angle_beta                 120.17(5)
_cell_angle_gamma                90
_cell_volume                     5651.17
loop_
_atom_site_label
_atom_site_type_symbol
_atom_site_fract_x
_atom_site_fract_y
_atom_site_fract_z
Cu1 Cu 0.22263(5) -0.10787(14) 1.02972(6)
Cu2 Cu -0.03125(6) 0.32360(14) 0.55328(6)
N1 N 0.2408(4) -0.2841(10) 0.9995(4)
N2 N 0.2759(4) -0.5009(11) 1.0212(5)
H1 H 0.2913 -0.5766 1.0421
N3 N 0.2705(6) -0.2060(10) 1.1124(5)
H2 H 0.3051 -0.1740 1.1226
N4 N 0.2177(4) 0.0388(10) 1.0841(4)
N5 N 0.2360(6) 0.0966(12) 1.1787(6)
H3 H 0.2481 0.0897 1.2177
N6 N 0.1748(4) -0.0193(9) 0.9475(4)
N7 N 0.0118(4) 0.2552(9) 0.6419(4)
N8 N -0.0661(4) 0.3993(10) 0.4640(4)
H4 H -0.1009 0.4309 0.4528
N9 N -0.0013(4) 0.5231(10) 0.5738(5)
N10 N 0.0222(5) 0.7115(10) 0.5408(6)
H5 H 0.0255 0.7702 0.5164
N11 N -0.0641(4) 0.1430(11) 0.5084(5)
N12 N -0.1063(5) 0.0369(13) 0.4171(6)
H6 H -0.1204 0.0243 0.3780
C1 C 0.2353(5) -0.3429(13) 0.9447(7)
C2 C 0.2167(6) -0.2932(14) 0.8865(6)
H7 H 0.2020 -0.2021 0.8764
C3 C 0.2191(6) -0.3718(17) 0.8440(7)
H8 H 0.2059 -0.3347 0.8046
C4 C 0.2410(7) -0.5093(17) 0.8570(9)
H9 H 0.2409 -0.5629 0.8258
C5 C 0.2625(7) -0.5663(16) 0.9147(9)
H10 H 0.2784 -0.6562 0.9244
C6 C 0.2589(5) -0.4776(14) 0.9600(7)
C7 C 0.2636(5) -0.3807(13) 1.0423(6)
C8 C 0.2766(6) -0.3548(12) 1.1060(6)
H11 H 0.2513 -0.4082 1.1146
H12 H 0.3145 -0.3846 1.1348
C9 C 0.2645(7) -0.1462(12) 1.1604(6)
H13 H 0.3006 -0.1406 1.1979
H14 H 0.2403 -0.2056 1.1686
C10 C 0.2404(6) -0.0048(15) 1.1423(6)
C11 C 0.2092(6) 0.2098(13) 1.1427(6)
C12 C 0.1900(8) 0.3354(16) 1.1550(8)
H15 H 0.1952 0.3558 1.1940
C13 C 0.1631(8) 0.4266(16) 1.1062(10)
H16 H 0.1547 0.5166 1.1144
C14 C 0.1478(6) 0.3956(14) 1.0465(7)
H17 H 0.1256 0.4575 1.0145
C15 C 0.1662(5) 0.2680(13) 1.0349(7)
H18 H 0.1596 0.2480 0.9954
C16 C 0.1937(5) 0.1739(12) 1.0809(6)
C17 C 0.1939(5) 0.0866(13) 0.9248(6)
H19 H 0.2302 0.1191 0.9501
C18 C 0.1638(5) 0.1459(13) 0.8688(6)
H20 H 0.1795 0.2182 0.8571
C19 C 0.1097(4) 0.1013(12) 0.8279(5)
C20 C 0.0896(5) -0.0097(13) 0.8487(5)
H21 H 0.0543 -0.0471 0.8230
C21 C 0.1223(5) -0.0626(12) 0.9072(6)
H22 H 0.1072 -0.1338 0.9201
C22 C 0.0745(5) 0.1600(10) 0.7638(5)
C23 C 0.0998(5) 0.2057(11) 0.7292(5)
H23 H 0.1384 0.2017 0.7468
C24 C 0.0677(5) 0.2550(12) 0.6706(5)
H24 H 0.0851 0.2899 0.6498
C25 C -0.0115(5) 0.2156(13) 0.6748(6)
H25 H -0.0502 0.2219 0.6556
C26 C 0.0166(5) 0.1659(13) 0.7352(5)
H26 H -0.0022 0.1380 0.7554
C27 C 0.0295(5) 0.6153(12) 0.6237(6)
C28 C 0.0420(6) 0.6010(14) 0.6859(6)
H27 H 0.0302 0.5232 0.6992
C29 C 0.0723(8) 0.7076(17) 0.7249(7)
H28 H 0.0803 0.7037 0.7657
C30 C 0.0922(8) 0.8252(19) 0.7058(8)
H29 H 0.1162 0.8915 0.7343
C31 C 0.0748(6) 0.8385(14) 0.6425(8)
H30 H 0.0837 0.9190 0.6278
C32 C 0.0440(5) 0.7300(14) 0.6023(6)
C33 C -0.0055(6) 0.5864(13) 0.5234(7)
C34 C -0.0350(5) 0.5197(13) 0.4617(6)
H31 H -0.0602 0.5875 0.4313
H32 H -0.0083 0.4891 0.4499
C35 C -0.0731(5) 0.2792(14) 0.4213(6)
H33 H -0.1052 0.2956 0.3806
H34 H -0.0402 0.2703 0.4172
C36 C -0.0810(5) 0.1519(14) 0.4484(7)
C37 C -0.1064(5) -0.0635(15) 0.4601(8)
C38 C -0.1313(6) -0.1958(16) 0.4467(9)
H35 H -0.1505 -0.2358 0.4074
C39 C -0.1238(7) -0.257(2) 0.4976(11)
H36 H -0.1370 -0.3490 0.4935
C40 C -0.0984(8) -0.200(2) 0.5571(11)
H37 H -0.0973 -0.2527 0.5890
C41 C -0.0743(7) -0.0622(15) 0.5699(8)
H38 H -0.0349 -0.0693 0.6003
C42 C -0.0809(5) 0.0049(17) 0.5149(6)
Cl1 Cl 0.34751(14) 0.1081(4) 1.07852(16)
O1 O 0.3096(4) 0.0020(10) 1.0434(6)
O2 O 0.3865(6) 0.1239(17) 1.0633(8)
O3 O 0.3750(9) 0.059(2) 1.1356(7)
O4 O 0.3249(8) 0.2286(15) 1.0848(13)
Cl3 Cl 0.09631(15) -0.1930(4) 1.03806(18)
O9 O 0.1376(4) -0.2467(9) 1.0238(4)
O10 O 0.1219(8) -0.1308(18) 1.0960(9)
O11 O 0.0601(4) -0.3026(10) 1.0358(4)
O12 O 0.0710(7) -0.0840(17) 1.0053(12)
O2C O -0.1135(6) 0.3761(17) 0.5633(8)
O11A O 0.0601(4) 0.3026(10) 0.5358(4)
Cu2C Cu 0.46875(6) 0.17640(14) 1.05328(6)
Cu2A Cu -0.03125(6) -0.32360(14) 1.05328(6)
Cl2 Cl 0.28040(14) 0.0560(4) 0.83018(15)
O5 O 0.3031(4) 0.0704(13) 0.8949(4)
O6 O 0.3183(5) -0.0097(15) 0.8172(5)
O7 O 0.2719(8) 0.1903(13) 0.8057(8)
O8 O 0.2296(6) -0.0186(18) 0.8041(6)
Cl4 Cl 0.9260(4) 0.1638(12) 0.2610(4)
O13 O 0.8783(10) 0.194(3) 0.2669(16)
O14 O 0.9169(10) 0.044(2) 0.2205(10)
O15 O 0.9656(9) 0.103(3) 0.3197(8)
O16 O 0.9127(13) 0.281(2) 0.2205(12)
O17 O 0.0141(7) 0.8273(13) 0.4285(7)
H39? H -0.0918 -0.0042 0.5874
loop_
_geom_bond_atom_site_label_1
_geom_bond_atom_site_label_2
_geom_bond_site_symmetry_1
_geom_bond_site_symmetry_2
Cu1 N1 1_555 1_555
Cu2 N7 1_555 1_555
N1 C1 1_555 1_555
N2 H1 1_555 1_555
N3 Cu1 1_555 1_555
H2 N3 1_555 1_555
N4 Cu1 1_555 1_555
N5 H3 1_555 1_555
N6 Cu1 1_555 1_555
N7 C24 1_555 1_555
N8 Cu2 1_555 1_555
H4 N8 1_555 1_555
N9 Cu2 1_555 1_555
N10 H5 1_555 1_555
N11 Cu2 1_555 1_555
N12 H6 1_555 1_555
C1 C2 1_555 1_555
C2 H7 1_555 1_555
C3 C2 1_555 1_555
H8 C3 1_555 1_555
C4 C3 1_555 1_555
H9 C4 1_555 1_555
C5 C4 1_555 1_555
H10 C5 1_555 1_555
C6 N2 1_555 1_555
C7 N1 1_555 1_555
C8 N3 1_555 1_555
H11 C8 1_555 1_555
H12 C8 1_555 1_555
C9 N3 1_555 1_555
H13 C9 1_555 1_555
H14 C9 1_555 1_555
C10 N4 1_555 1_555
C11 N5 1_555 1_555
C12 C11 1_555 1_555
H15 C12 1_555 1_555
C13 C12 1_555 1_555
H16 C13 1_555 1_555
C14 C13 1_555 1_555
H17 C14 1_555 1_555
C15 C14 1_555 1_555
H18 C15 1_555 1_555
C16 N4 1_555 1_555
C17 N6 1_555 1_555
H19 C17 1_555 1_555
C18 C17 1_555 1_555
H20 C18 1_555 1_555
C19 C18 1_555 1_555
C20 C19 1_555 1_555
H21 C20 1_555 1_555
C21 N6 1_555 1_555
H22 C21 1_555 1_555
C22 C19 1_555 1_555
C23 C22 1_555 1_555
H23 C23 1_555 1_555
C24 C23 1_555 1_555
H24 C24 1_555 1_555
C25 N7 1_555 1_555
H25 C25 1_555 1_555
C26 C22 1_555 1_555
H26 C26 1_555 1_555
C27 N9 1_555 1_555
C28 C27 1_555 1_555
H27 C28 1_555 1_555
C29 C28 1_555 1_555
H28 C29 1_555 1_555
C30 C29 1_555 1_555
H29 C30 1_555 1_555
C31 C30 1_555 1_555
H30 C31 1_555 1_555
C32 N10 1_555 1_555
C33 N9 1_555 1_555
C34 N8 1_555 1_555
H31 C34 1_555 1_555
H32 C34 1_555 1_555
C35 N8 1_555 1_555
H33 C35 1_555 1_555
H34 C35 1_555 1_555
C36 N11 1_555 1_555
C37 N12 1_555 1_555
C38 C37 1_555 1_555
H35 C38 1_555 1_555
C39 C38 1_555 1_555
H36 C39 1_555 1_555
C40 C39 1_555 1_555
H37 C40 1_555 1_555
C41 C40 1_555 1_555
H38 C41 1_555 1_555
C42 N11 1_555 1_555
Cl1 O1 1_555 1_555
O1 Cu1 1_555 1_555
O2 Cl1 1_555 1_555
O3 Cl1 1_555 1_555
O4 Cl1 1_555 1_555
Cl2 O5 1_555 1_555
O6 Cl2 1_555 1_555
O7 Cl2 1_555 1_555
O8 Cl2 1_555 1_555
Cl3 O9 1_555 1_555
O9 Cu1 1_555 1_555
O10 Cl3 1_555 1_555
O11 Cl3 1_555 1_555
O12 Cl3 1_555 1_555
Cl4 O13 1_555 1_555
O14 Cl4 1_555 1_555
O15 Cl4 1_555 1_555
O16 Cl4 1_555 1_555
O2C Cu2 1_555 1_555
O11A Cu2 1_555 1_555
Cu2C O2 1_555 1_555
Cu2A O11 1_555 1_555
N2 C7 1_555 1_555
N5 C10 1_555 1_555
N10 C33 1_555 1_555
N12 C36 1_555 1_555
C1 C6 1_555 1_555
C5 C6 1_555 1_555
C7 C8 1_555 1_555
C9 C10 1_555 1_555
C11 C16 1_555 1_555
C15 C16 1_555 1_555
C20 C21 1_555 1_555
C25 C26 1_555 1_555
C27 C32 1_555 1_555
C31 C32 1_555 1_555
C33 C34 1_555 1_555
C35 C36 1_555 1_555
C37 C42 1_555 1_555
C41 C42 1_555 1_555

#END
