
#######################################################################
#
#                 Cambridge Crystallographic Data Centre
#                                CCDC 
#
#######################################################################
#
# If this CIF has been generated from an entry in the Cambridge 
# Structural Database, then it will include bibliographic, chemical, 
# crystal, experimental, refinement or atomic coordinate data resulting 
# from the CCDC's data processing and validation procedures.
#
#######################################################################

data_EXOKIM
_symmetry_cell_setting           triclinic
_symmetry_space_group_name_H-M   'P -1'
_symmetry_Int_Tables_number      2
_space_group_name_Hall           '-P 1'
loop_
_symmetry_equiv_pos_site_id
_symmetry_equiv_pos_as_xyz
1 x,y,z
2 -x,-y,-z
_cell_length_a                   8.7558(15)
_cell_length_b                   9.0435(16)
_cell_length_c                   14.117(2)
_cell_angle_alpha                92.266(3)
_cell_angle_beta                 91.932(3)
_cell_angle_gamma                116.719(3)
_cell_volume                     996.026
loop_
_atom_site_label
_atom_site_type_symbol
_atom_site_fract_x
_atom_site_fract_y
_atom_site_fract_z
Fe1 Fe 0.59148(15) 0.27812(15) 0.23374(8)
Al1 Al 1.1403(3) 0.4318(3) 0.40330(15)
Al2 Al 0.8083(3) 0.7892(3) 0.24825(15)
Al3 Al 0.8709(3) 0.5328(3) -0.12679(15)
P1 P 0.9003(2) 0.5937(2) 0.37918(13)
P2 P 0.8992(2) 0.1694(2) 0.24986(13)
P3 P 0.8334(2) 0.5530(2) 0.09221(13)
P4 P 0.4311(2) 0.5467(2) 0.26634(13)
O1 O 0.7200(6) 0.1485(7) 0.2407(4)
O2 O 0.4610(7) 0.4061(7) 0.2269(4)
O3 O 0.7057(7) 0.3812(6) 0.1161(4)
O4 O 0.9874(7) 0.2461(7) 0.3479(4)
O5 O 1.0688(6) 0.5825(7) 0.3900(4)
O6 O 0.8357(7) 0.5978(7) 0.4780(4)
O7 O 0.9365(6) 0.7570(6) 0.3353(4)
O8 O 0.8043(7) 0.6908(6) 0.1403(3)
O9 O 0.8208(7) 0.5700(7) -0.0147(3)
O10 O 1.0164(7) 0.5827(7) 0.1210(4)
O11 O 0.5981(6) 0.7075(6) 0.2857(4)
O12 O 0.3434(6) 0.5062(7) 0.3605(4)
O13 O 0.3153(7) 0.5824(7) 0.1966(4)
O14 O 0.7690(7) 0.4510(7) 0.3174(4)
O15 O 0.8945(7) -0.0005(6) 0.2360(4)
O16 O 1.0103(7) 0.2775(7) 0.1740(4)
N1 N 0.4108(8) 0.0925(8) 0.1417(5)
N2 N 0.3072(10) -0.1154(10) 0.0340(5)
H1 H 0.2908 -0.2047 0.0020
N3 N 0.4603(9) 0.1671(9) 0.3531(5)
N4 N 0.3771(14) 0.1367(14) 0.4988(6)
H2 H 0.3697 0.1591 0.5578
C1 C 0.2949(12) 0.1077(14) 0.0811(7)
H3 H 0.2658 0.1947 0.0851
C2 C 0.2287(13) -0.0178(14) 0.0155(7)
H4 H 0.1463 -0.0354 -0.0327
C3 C 0.4128(11) -0.0481(11) 0.1098(6)
H5 H 0.4797 -0.0926 0.1373
C4 C 0.4776(15) 0.2391(15) 0.4381(7)
H6 H 0.5523 0.3500 0.4538
C5 C 0.2917(13) -0.0055(13) 0.4511(7)
H7 H 0.2086 -0.1014 0.4747
C6 C 0.3424(13) 0.0092(13) 0.3639(7)
H8 H 0.3031 -0.0762 0.3167
Al1A Al 0.8597(3) 0.5682(3) 0.59670(15)
Al1_2 Al 0.1403(3) 0.4318(3) 0.40330(15)
Al2_2 Al 0.8083(3) -0.2108(3) 0.24825(15)
Al3A Al 1.1291(3) 0.4672(3) 0.12679(15)
Al3A_2 Al 0.1291(3) 0.4672(3) 0.12679(15)
O6A O 1.1643(7) 0.4022(7) 0.5220(4)
O10A O 0.9836(7) 0.4173(7) -0.1210(4)
O12_2 O 1.3434(6) 0.5062(7) 0.3605(4)
O13A O 0.6847(7) 0.4176(7) -0.1966(4)
O15_2 O 0.8945(7) 0.9995(6) 0.2360(4)
O16A O 0.9897(7) 0.7225(7) -0.1740(4)
loop_
_geom_bond_atom_site_label_1
_geom_bond_atom_site_label_2
_geom_bond_site_symmetry_1
_geom_bond_site_symmetry_2
Fe1 O1 1_555 1_555
Al1 O4 1_555 1_555
Al2 O7 1_555 1_555
Al3 O9 1_555 1_555
P1 O5 1_555 1_555
P2 O1 1_555 1_555
P3 O3 1_555 1_555
P4 O2 1_555 1_555
O2 Fe1 1_555 1_555
O3 Fe1 1_555 1_555
O4 P2 1_555 1_555
O5 Al1 1_555 1_555
O6 P1 1_555 1_555
O7 P1 1_555 1_555
O8 Al2 1_555 1_555
O9 P3 1_555 1_555
O10 P3 1_555 1_555
O11 Al2 1_555 1_555
O12 P4 1_555 1_555
O13 P4 1_555 1_555
O14 Fe1 1_555 1_555
O15 P2 1_555 1_555
O16 P2 1_555 1_555
N1 Fe1 1_555 1_555
N2 H1 1_555 1_555
N3 Fe1 1_555 1_555
N4 H2 1_555 1_555
C1 N1 1_555 1_555
H3 C1 1_555 1_555
C2 N2 1_555 1_555
H4 C2 1_555 1_555
C3 N1 1_555 1_555
H5 C3 1_555 1_555
C4 N3 1_555 1_555
H6 C4 1_555 1_555
C5 N4 1_555 1_555
H7 C5 1_555 1_555
C6 N3 1_555 1_555
H8 C6 1_555 1_555
Al1A O6 1_555 1_555
Al1_2 O12 1_555 1_555
Al2_2 O15 1_555 1_555
Al3A O10 1_555 1_555
Al3A_2 O13 1_555 1_555
O6A Al1 1_555 1_555
O10A Al3 1_555 1_555
O12_2 Al1 1_555 1_555
O13A Al3 1_555 1_555
O15_2 Al2 1_555 1_555
O16A Al3 1_555 1_555
P1 O14 1_555 1_555
P3 O8 1_555 1_555
P4 O11 1_555 1_555
O16 Al3A 1_555 1_555
N2 C3 1_555 1_555
N4 C4 1_555 1_555
C1 C2 1_555 1_555
C5 C6 1_555 1_555

#END
