
#######################################################################
#
#                 Cambridge Crystallographic Data Centre
#                                CCDC 
#
#######################################################################
#
# If this CIF has been generated from an entry in the Cambridge 
# Structural Database, then it will include bibliographic, chemical, 
# crystal, experimental, refinement or atomic coordinate data resulting 
# from the CCDC's data processing and validation procedures.
#
#######################################################################

data_EXOKOS
_symmetry_cell_setting           monoclinic
_symmetry_space_group_name_H-M   'C 2'
_symmetry_Int_Tables_number      5
_space_group_name_Hall           'C 2y'
loop_
_symmetry_equiv_pos_site_id
_symmetry_equiv_pos_as_xyz
1 x,y,z
2 -x,y,-z
3 1/2+x,1/2+y,z
4 1/2-x,1/2+y,-z
_cell_length_a                   22.8510(3)
_cell_length_b                   8.5199(1)
_cell_length_c                   5.1848(1)
_cell_angle_alpha                90
_cell_angle_beta                 99.495(1)
_cell_angle_gamma                90
_cell_volume                     995.591
loop_
_atom_site_label
_atom_site_type_symbol
_atom_site_fract_x
_atom_site_fract_y
_atom_site_fract_z
Pb1 Pb 0.0000 0.3350 0.0000
P1 P -0.08914(11) 0.5244(3) 0.3902(5)
C1 C -0.1688(3) 0.5092(8) 0.3041(12)
C2 C -0.2008(4) 0.4262(10) 0.4651(15)
H1 H -0.1811 0.3728 0.6103
C3 C -0.2621(4) 0.4237(13) 0.4081(18)
H2 H -0.2833 0.3664 0.5146
C4 C -0.2929(4) 0.5050(13) 0.1945(16)
H3 H -0.3342 0.5037 0.1597
C5 C -0.2606(4) 0.5882(15) 0.0345(19)
H4 H -0.2803 0.6433 -0.1088
C6 C -0.1993(3) 0.5892(10) 0.0880(13)
H5 H -0.1780 0.6439 -0.0214
C7 C -0.0755(4) 0.7085(10) 0.5570(16)
H6 H -0.1014 0.7175 0.6869
H7 H -0.0349 0.7105 0.6479
C8 C -0.0859(3) 0.8514(14) 0.3688(11)
H8 H -0.0604 0.8414 0.2378
H9 H -0.1267 0.8494 0.2791
C9 C -0.0742(4) 1.0063(11) 0.5037(17)
O1 O -0.0603(2) 0.5245(6) 0.1459(8)
O2 O -0.0691(2) 0.3923(5) 0.5813(9)
O3 O -0.0504(3) 1.0218(6) 0.7266(10)
O4 O -0.0934(5) 1.1236(10) 0.3486(17)
H10 H -0.0853 1.2067 0.4258
Pb1_2 Pb 0.0000 0.3350 1.0000
Pb1_3 Pb 0.0000 0.3350 -1.0000
P1A P 0.08914(11) 0.5244(3) -0.3902(5)
C1A C 0.1688(3) 0.5092(8) -0.3041(12)
C2A C 0.2008(4) 0.4262(10) -0.4651(15)
H1A H 0.1811 0.3728 -0.6103
C3A C 0.2621(4) 0.4237(13) -0.4081(18)
H2A H 0.2833 0.3664 -0.5146
C4A C 0.2929(4) 0.5050(13) -0.1945(16)
H3A H 0.3342 0.5037 -0.1597
C5A C 0.2606(4) 0.5882(15) -0.0345(19)
H4A H 0.2803 0.6433 0.1088
C6A C 0.1993(3) 0.5892(10) -0.0880(13)
H5A H 0.1780 0.6439 0.0214
C7A C 0.0755(4) 0.7085(10) -0.5570(16)
H6A H 0.1014 0.7175 -0.6869
H7A H 0.0349 0.7105 -0.6479
C8A C 0.0859(3) 0.8514(14) -0.3688(11)
H8A H 0.0604 0.8414 -0.2378
H9A H 0.1267 0.8494 -0.2791
C9A C 0.0742(4) 1.0063(11) -0.5037(17)
O1A O 0.0603(2) 0.5245(6) -0.1459(8)
O2A O 0.0691(2) 0.3923(5) -0.5813(9)
O2_2 O -0.0691(2) 0.3923(5) -0.4187(9)
O2A_2 O 0.0691(2) 0.3923(5) 0.4187(9)
O3A O 0.0504(3) 1.0218(6) -0.7266(10)
O4A O 0.0934(5) 1.1236(10) -0.3486(17)
H10A H 0.0853 1.2067 -0.4258
loop_
_geom_bond_atom_site_label_1
_geom_bond_atom_site_label_2
_geom_bond_site_symmetry_1
_geom_bond_site_symmetry_2
Pb1 O1 1_555 1_555
P1 C1 1_555 1_555
C1 C2 1_555 1_555
C2 H1 1_555 1_555
C3 C2 1_555 1_555
H2 C3 1_555 1_555
C4 C3 1_555 1_555
H3 C4 1_555 1_555
C5 C4 1_555 1_555
H4 C5 1_555 1_555
C6 C1 1_555 1_555
H5 C6 1_555 1_555
C7 P1 1_555 1_555
H6 C7 1_555 1_555
H7 C7 1_555 1_555
C8 C7 1_555 1_555
H8 C8 1_555 1_555
H9 C8 1_555 1_555
C9 C8 1_555 1_555
O1 P1 1_555 1_555
O2 P1 1_555 1_555
O3 C9 1_555 1_555
O4 C9 1_555 1_555
H10 O4 1_555 1_555
Pb1_2 O2 1_555 1_555
Pb1_3 O2A 1_555 1_555
P1A C1A 1_555 1_555
C1A C2A 1_555 1_555
C2A H1A 1_555 1_555
C3A C2A 1_555 1_555
H2A C3A 1_555 1_555
C4A C3A 1_555 1_555
H3A C4A 1_555 1_555
C5A C4A 1_555 1_555
H4A C5A 1_555 1_555
C6A C1A 1_555 1_555
H5A C6A 1_555 1_555
C7A P1A 1_555 1_555
H6A C7A 1_555 1_555
H7A C7A 1_555 1_555
C8A C7A 1_555 1_555
H8A C8A 1_555 1_555
H9A C8A 1_555 1_555
C9A C8A 1_555 1_555
O1A Pb1 1_555 1_555
O2A P1A 1_555 1_555
O2_2 Pb1 1_555 1_555
O2A_2 Pb1 1_555 1_555
O3A C9A 1_555 1_555
O4A C9A 1_555 1_555
H10A O4A 1_555 1_555
C5 C6 1_555 1_555
P1A O1A 1_555 1_555
C5A C6A 1_555 1_555

#END
