
#######################################################################
#
#                 Cambridge Crystallographic Data Centre
#                                CCDC 
#
#######################################################################
#
# If this CIF has been generated from an entry in the Cambridge 
# Structural Database, then it will include bibliographic, chemical, 
# crystal, experimental, refinement or atomic coordinate data resulting 
# from the CCDC's data processing and validation procedures.
#
#######################################################################

data_EXOKEH
_symmetry_cell_setting           monoclinic
_symmetry_space_group_name_H-M   'P 21/n'
_symmetry_Int_Tables_number      14
_space_group_name_Hall           '-P 2yn'
loop_
_symmetry_equiv_pos_site_id
_symmetry_equiv_pos_as_xyz
1 x,y,z
2 1/2+x,1/2-y,1/2+z
3 -x,-y,-z
4 1/2-x,1/2+y,1/2-z
_cell_length_a                   8.7045(2)
_cell_length_b                   15.9663(3)
_cell_length_c                   14.0241(3)
_cell_angle_alpha                90
_cell_angle_beta                 90.973(1)
_cell_angle_gamma                90
_cell_volume                     1948.77
loop_
_atom_site_label
_atom_site_type_symbol
_atom_site_fract_x
_atom_site_fract_y
_atom_site_fract_z
Fe1 Fe 0.67108(4) 0.21775(2) 0.55795(3)
O1 O 0.6805(2) 0.10706(11) 0.51211(14)
C1 C 0.7575(3) 0.04042(17) 0.5429(2)
C2 C 0.7120(3) -0.03925(18) 0.5113(2)
H1 H 0.626(4) -0.0442(18) 0.472(2)
C3 C 0.7920(4) -0.10973(19) 0.5392(2)
H2 H 0.761(3) -0.1536(19) 0.518(2)
C4 C 0.9206(4) -0.1039(2) 0.5986(2)
H3 H 0.967(4) -0.150(2) 0.617(2)
C5 C 0.9683(4) -0.02676(19) 0.6305(2)
H4 H 1.057(4) -0.0178(19) 0.667(2)
C6 C 0.8880(3) 0.04666(17) 0.6049(2)
C7 C 0.9485(3) 0.12559(18) 0.6401(2)
H5 H 1.055(3) 0.1224(18) 0.673(2)
N1 N 0.8844(3) 0.19795(15) 0.62756(17)
C8 C 0.9593(3) 0.27637(18) 0.6595(2)
H6 H 0.990(4) 0.307(2) 0.596(2)
C9 C 1.0969(4) 0.2675(2) 0.7264(2)
H7 H 1.072(4) 0.237(2) 0.783(3)
H8 H 1.183(4) 0.229(2) 0.698(3)
C10 C 1.1611(4) 0.3533(2) 0.7532(3)
H9 H 1.241(4) 0.3467(18) 0.799(2)
H10 H 1.200(4) 0.379(2) 0.693(3)
C11 C 1.0389(4) 0.4096(2) 0.7939(3)
H11 H 0.991(5) 0.389(3) 0.860(3)
H12 H 1.079(4) 0.464(2) 0.804(2)
C12 C 0.8980(4) 0.4178(2) 0.7280(2)
H13 H 0.822(4) 0.446(2) 0.762(2)
H14 H 0.916(4) 0.438(2) 0.672(3)
C13 C 0.8348(3) 0.33129(19) 0.7029(2)
H15 H 0.803(4) 0.3036(19) 0.766(2)
N2 N 0.6997(3) 0.33034(15) 0.63608(16)
C14 C 0.6056(3) 0.39206(18) 0.6324(2)
H16 H 0.618(3) 0.4395(19) 0.669(2)
C15 C 0.4660(3) 0.39685(17) 0.5751(2)
C16 C 0.3785(3) 0.47100(19) 0.5819(2)
H17 H 0.413(4) 0.513(2) 0.626(2)
C17 C 0.2454(4) 0.48267(19) 0.5288(2)
H18 H 0.187(4) 0.533(2) 0.538(2)
C18 C 0.1968(4) 0.42030(19) 0.4664(2)
H19 H 0.104(4) 0.425(2) 0.430(3)
C19 C 0.2784(3) 0.34641(19) 0.4578(2)
H20 H 0.241(4) 0.301(2) 0.414(2)
C20 C 0.4141(3) 0.33212(17) 0.5123(2)
O2 O 0.4866(2) 0.26039(12) 0.50200(15)
N3 N 0.5547(3) 0.17423(16) 0.68286(19)
C21 C 0.4749(3) 0.15993(17) 0.7459(2)
N4 N 0.3842(3) 0.13557(15) 0.81343(18)
C22 C 0.3428(3) 0.18564(18) 0.8814(2)
N5 N 0.2974(3) 0.22376(15) 0.94576(17)
N5A N 0.7974(3) 0.27624(15) 0.44576(17)
Fe1A Fe 0.17108(4) 0.28225(2) 1.05795(3)
loop_
_geom_bond_atom_site_label_1
_geom_bond_atom_site_label_2
_geom_bond_site_symmetry_1
_geom_bond_site_symmetry_2
Fe1 O1 1_555 1_555
O1 C1 1_555 1_555
C1 C2 1_555 1_555
C2 H1 1_555 1_555
C3 C2 1_555 1_555
H2 C3 1_555 1_555
C4 C3 1_555 1_555
H3 C4 1_555 1_555
C5 C4 1_555 1_555
H4 C5 1_555 1_555
C6 C1 1_555 1_555
C7 C6 1_555 1_555
H5 C7 1_555 1_555
N1 Fe1 1_555 1_555
C8 N1 1_555 1_555
H6 C8 1_555 1_555
C9 C8 1_555 1_555
H7 C9 1_555 1_555
H8 C9 1_555 1_555
C10 C9 1_555 1_555
H9 C10 1_555 1_555
H10 C10 1_555 1_555
C11 C10 1_555 1_555
H11 C11 1_555 1_555
H12 C11 1_555 1_555
C12 C11 1_555 1_555
H13 C12 1_555 1_555
H14 C12 1_555 1_555
C13 C8 1_555 1_555
H15 C13 1_555 1_555
N2 Fe1 1_555 1_555
C14 N2 1_555 1_555
H16 C14 1_555 1_555
C15 C14 1_555 1_555
C16 C15 1_555 1_555
H17 C16 1_555 1_555
C17 C16 1_555 1_555
H18 C17 1_555 1_555
C18 C17 1_555 1_555
H19 C18 1_555 1_555
C19 C18 1_555 1_555
H20 C19 1_555 1_555
C20 C15 1_555 1_555
O2 Fe1 1_555 1_555
N3 Fe1 1_555 1_555
C21 N3 1_555 1_555
N4 C21 1_555 1_555
C22 N4 1_555 1_555
N5 C22 1_555 1_555
N5A Fe1 1_555 1_555
Fe1A N5 1_555 1_555
C5 C6 1_555 1_555
C7 N1 1_555 1_555
C12 C13 1_555 1_555
C13 N2 1_555 1_555
C19 C20 1_555 1_555
C20 O2 1_555 1_555

#END
