
#######################################################################
#
#                 Cambridge Crystallographic Data Centre
#                                CCDC 
#
#######################################################################
#
# If this CIF has been generated from an entry in the Cambridge 
# Structural Database, then it will include bibliographic, chemical, 
# crystal, experimental, refinement or atomic coordinate data resulting 
# from the CCDC's data processing and validation procedures.
#
#######################################################################

data_EXOLOS
_symmetry_cell_setting           monoclinic
_symmetry_space_group_name_H-M   'P 21/c'
_symmetry_Int_Tables_number      14
_space_group_name_Hall           '-P 2ybc'
loop_
_symmetry_equiv_pos_site_id
_symmetry_equiv_pos_as_xyz
1 x,y,z
2 x,1/2-y,1/2+z
3 -x,-y,-z
4 -x,1/2+y,1/2-z
_cell_length_a                   19.628(6)
_cell_length_b                   10.439(3)
_cell_length_c                   7.357(2)
_cell_angle_alpha                90
_cell_angle_beta                 91.608(6)
_cell_angle_gamma                90
_cell_volume                     1506.83
loop_
_atom_site_label
_atom_site_type_symbol
_atom_site_fract_x
_atom_site_fract_y
_atom_site_fract_z
Mo1 Mo 0.30417(4) 0.84875(8) 0.98660(11)
Mo2 Mo 0.16464(5) 0.75028(8) 1.22506(11)
Cu1 Cu 0.26396(7) 0.94385(12) 1.47081(18)
O1 O 0.1133(4) 0.6247(7) 1.2777(11)
O2 O 0.1097(4) 0.8693(7) 1.1684(10)
O3 O 0.1906(4) 0.6950(7) 0.9771(9)
O4 O 0.2518(4) 0.8788(7) 1.1799(10)
O5 O 0.3354(4) 0.6891(7) 0.9851(10)
O6 O 0.3725(4) 0.9469(7) 1.0026(10)
O7 O 0.2551(4) 0.8867(7) 0.7844(9)
N1 N 0.1995(5) 1.0918(9) 1.4677(12)
N2 N 0.3299(5) 1.0809(8) 1.4095(12)
C1 C 0.2284(6) 1.2060(12) 1.4331(18)
C2 C 0.3013(6) 1.1981(10) 1.3891(16)
C3 C 0.1324(6) 1.0883(10) 1.4941(17)
H1 H 0.1116 1.0087 1.5044
C4 C 0.0919(6) 1.1975(11) 1.5071(19)
C5 C 0.1238(6) 1.3132(11) 1.4786(16)
H2 H 0.0992 1.3890 1.4870
C6 C 0.1917(6) 1.3175(11) 1.4380(18)
H3 H 0.2125 1.3954 1.4140
C7 C 0.3390(7) 1.3014(11) 1.3284(17)
H4 H 0.3186 1.3810 1.3099
C8 C 0.4076(7) 1.2837(13) 1.2959(19)
H5 H 0.4345 1.3531 1.2644
C9 C 0.4361(7) 1.1622(12) 1.3102(18)
C10 C 0.3949(7) 1.0661(11) 1.3689(18)
H6 H 0.4137 0.9847 1.3813
C11 C 0.0171(6) 1.1856(12) 1.5449(19)
H7 H 0.0056 1.0970 1.5601
H8 H 0.0072 1.2318 1.6539
H9 H -0.0092 1.2206 1.4448
C12 C 0.5087(8) 1.1364(14) 1.259(2)
H10 H 0.5295 1.2149 1.2215
H11 H 0.5336 1.1023 1.3624
H12 H 0.5091 1.0757 1.1612
O3A O 0.1906(4) 0.8050(7) 1.4771(9)
O7A O 0.2551(4) 0.6133(7) 1.2844(9)
O5A O 0.3354(4) 0.8109(7) 1.4851(10)
O7_2 O 0.2551(4) 0.8867(7) 1.7844(9)
Mo2A Mo 0.16464(5) 0.74972(8) 0.72506(11)
Cu1A Cu 0.26396(7) 0.55615(12) 0.97081(18)
Cu1_2 Cu 0.26396(7) 0.94385(12) 0.47081(18)
loop_
_geom_bond_atom_site_label_1
_geom_bond_atom_site_label_2
_geom_bond_site_symmetry_1
_geom_bond_site_symmetry_2
Mo1 O4 1_555 1_555
Mo2 O1 1_555 1_555
Cu1 O4 1_555 1_555
O2 Mo2 1_555 1_555
O3 Mo2 1_555 1_555
O4 Mo2 1_555 1_555
O5 Mo1 1_555 1_555
O6 Mo1 1_555 1_555
O7 Mo1 1_555 1_555
N1 Cu1 1_555 1_555
N2 Cu1 1_555 1_555
C1 N1 1_555 1_555
C2 N2 1_555 1_555
C3 N1 1_555 1_555
H1 C3 1_555 1_555
C4 C3 1_555 1_555
C5 C4 1_555 1_555
H2 C5 1_555 1_555
C6 C1 1_555 1_555
H3 C6 1_555 1_555
C7 C2 1_555 1_555
H4 C7 1_555 1_555
C8 C7 1_555 1_555
H5 C8 1_555 1_555
C9 C8 1_555 1_555
C10 N2 1_555 1_555
H6 C10 1_555 1_555
C11 C4 1_555 1_555
H7 C11 1_555 1_555
H8 C11 1_555 1_555
H9 C11 1_555 1_555
C12 C9 1_555 1_555
H10 C12 1_555 1_555
H11 C12 1_555 1_555
H12 C12 1_555 1_555
O3A Mo2 1_555 1_555
O7A Mo2 1_555 1_555
O5A Cu1 1_555 1_555
O7_2 Cu1 1_555 1_555
Mo2A O3 1_555 1_555
Cu1A O3 1_555 1_555
Cu1_2 O7 1_555 1_555
Cu1 O3A 1_555 1_555
O5 Cu1A 1_555 1_555
O7 Mo2A 1_555 1_555
C1 C2 1_555 1_555
C5 C6 1_555 1_555
C9 C10 1_555 1_555
O7A Cu1A 1_555 1_555

#END
