
#######################################################################
#
#                 Cambridge Crystallographic Data Centre
#                                CCDC 
#
#######################################################################
#
# If this CIF has been generated from an entry in the Cambridge 
# Structural Database, then it will include bibliographic, chemical, 
# crystal, experimental, refinement or atomic coordinate data resulting 
# from the CCDC's data processing and validation procedures.
#
#######################################################################

data_EXOLIM
_symmetry_cell_setting           triclinic
_symmetry_space_group_name_H-M   'P -1'
_symmetry_Int_Tables_number      2
_space_group_name_Hall           '-P 1'
loop_
_symmetry_equiv_pos_site_id
_symmetry_equiv_pos_as_xyz
1 x,y,z
2 -x,-y,-z
_cell_length_a                   7.6233(9)
_cell_length_b                   10.8112(13)
_cell_length_c                   11.8552(14)
_cell_angle_alpha                79.124(2)
_cell_angle_beta                 77.337(2)
_cell_angle_gamma                70.551(2)
_cell_volume                     891.771
loop_
_atom_site_label
_atom_site_type_symbol
_atom_site_fract_x
_atom_site_fract_y
_atom_site_fract_z
Cu1 Cu 0.04077(13) 0.34291(9) 0.33519(8)
Mo1 Mo 0.16809(9) 0.37324(6) 0.57067(5)
Mo2 Mo 0.49895(9) 0.45029(6) 0.37449(5)
O1 O -0.0257(7) 0.3708(5) 0.5056(4)
O2 O 0.2585(8) 0.2152(5) 0.6347(5)
O3 O -0.0552(7) 0.5361(5) 0.3099(4)
O4 O 0.3958(7) 0.4417(5) 0.5526(4)
O5 O 0.3173(7) 0.3624(5) 0.4007(4)
O6 O -0.2889(8) 0.3383(6) 0.3255(5)
O7 O 0.4316(8) 0.5688(5) 0.2613(5)
C1 C 0.2123(11) 0.4382(8) 0.1041(7)
H1 H 0.2355 0.4958 0.1465
C2 C 0.2636(11) 0.4509(8) -0.0142(7)
H2 H 0.3206 0.5165 -0.0537
C3 C 0.2301(11) 0.3646(8) -0.0762(7)
H3 H 0.2632 0.3726 -0.1588
C4 C 0.1493(11) 0.2682(8) -0.0177(6)
H4 H 0.1284 0.2082 -0.0586
C5 C 0.0989(10) 0.2615(7) 0.1045(7)
C6 C 0.1057(11) 0.0834(8) 0.2667(6)
C7 C 0.1665(12) -0.0545(8) 0.2705(7)
H5 H 0.1509 -0.0949 0.2103
C8 C 0.2505(12) -0.1315(8) 0.3648(7)
H6 H 0.2899 -0.2253 0.3706
C9 C 0.2759(12) -0.0688(8) 0.4502(7)
H7 H 0.3364 -0.1188 0.5136
C10 C 0.2104(11) 0.0689(8) 0.4400(7)
H8 H 0.2257 0.1116 0.4987
C11 C -0.1378(11) 0.1401(7) 0.1423(7)
C12 C -0.2289(12) 0.0536(8) 0.2148(7)
H9 H -0.1879 0.0084 0.2858
C13 C -0.3780(12) 0.0360(9) 0.1810(8)
H10 H -0.4427 -0.0215 0.2292
C14 C -0.4356(12) 0.1016(8) 0.0767(8)
H11 H -0.5361 0.0877 0.0507
C15 C -0.3405(12) 0.1884(9) 0.0115(7)
H12 H -0.3832 0.2376 -0.0579
N1 N 0.1280(9) 0.3448(6) 0.1644(5)
N2 N 0.1256(9) 0.1448(6) 0.3500(5)
N3 N -0.1914(10) 0.2062(7) 0.0418(6)
N4 N 0.0200(9) 0.1612(6) 0.1712(5)
Mo1A Mo -0.16809(9) 0.62676(6) 0.42933(5)
Cu1A Cu -0.04077(13) 0.65709(9) 0.66481(8)
O1A O 0.0257(7) 0.6292(5) 0.4944(4)
O3A O 0.0552(7) 0.4639(5) 0.6901(4)
Mo2A Mo 0.50105(9) 0.54971(6) 0.62551(5)
O4A O 0.6042(7) 0.5583(5) 0.4474(4)
O6_2 O 0.7111(8) 0.3383(6) 0.3255(5)
Mo2_2 Mo -0.50105(9) 0.45029(6) 0.37449(5)
loop_
_geom_bond_atom_site_label_1
_geom_bond_atom_site_label_2
_geom_bond_site_symmetry_1
_geom_bond_site_symmetry_2
Cu1 O1 1_555 1_555
Mo1 O1 1_555 1_555
Mo2 O4 1_555 1_555
O1 Mo1A 1_555 1_555
O2 Mo1 1_555 1_555
O3 Cu1 1_555 1_555
O4 Mo1 1_555 1_555
O5 Cu1 1_555 1_555
O6 Cu1 1_555 1_555
O7 Mo2 1_555 1_555
C1 H1 1_555 1_555
C2 C1 1_555 1_555
H2 C2 1_555 1_555
C3 C2 1_555 1_555
H3 C3 1_555 1_555
C4 C3 1_555 1_555
H4 C4 1_555 1_555
C5 C4 1_555 1_555
C6 C7 1_555 1_555
C7 H5 1_555 1_555
C8 C7 1_555 1_555
H6 C8 1_555 1_555
C9 C8 1_555 1_555
H7 C9 1_555 1_555
C10 C9 1_555 1_555
H8 C10 1_555 1_555
C11 C12 1_555 1_555
C12 H9 1_555 1_555
C13 C12 1_555 1_555
H10 C13 1_555 1_555
C14 C13 1_555 1_555
H11 C14 1_555 1_555
C15 C14 1_555 1_555
H12 C15 1_555 1_555
N1 Cu1 1_555 1_555
N2 Cu1 1_555 1_555
N3 C11 1_555 1_555
N4 C5 1_555 1_555
Mo1A O3 1_555 1_555
Cu1A O1A 1_555 1_555
O1A Mo1 1_555 1_555
O3A Mo1 1_555 1_555
Mo2A O4 1_555 1_555
O4A Mo2 1_555 1_555
O6_2 Mo2 1_555 1_555
Mo2_2 O6 1_555 1_555
Mo1 O5 1_555 1_555
Mo2 O5 1_555 1_555
C1 N1 1_555 1_555
C5 N1 1_555 1_555
C6 N4 1_555 1_555
C6 N2 1_555 1_555
C10 N2 1_555 1_555
C11 N4 1_555 1_555
C15 N3 1_555 1_555
Mo1A O1A 1_555 1_555
Cu1A O3A 1_555 1_555
Mo2A O4A 1_555 1_555

#END
