
#######################################################################
#
#                 Cambridge Crystallographic Data Centre
#                                CCDC 
#
#######################################################################
#
# If this CIF has been generated from an entry in the Cambridge 
# Structural Database, then it will include bibliographic, chemical, 
# crystal, experimental, refinement or atomic coordinate data resulting 
# from the CCDC's data processing and validation procedures.
#
#######################################################################

data_EXOTER
_symmetry_cell_setting           monoclinic
_symmetry_space_group_name_H-M   'P 21/n'
_symmetry_Int_Tables_number      14
_space_group_name_Hall           '-P 2yn'
loop_
_symmetry_equiv_pos_site_id
_symmetry_equiv_pos_as_xyz
1 x,y,z
2 1/2-x,1/2+y,1/2-z
3 -x,-y,-z
4 1/2+x,1/2-y,1/2+z
_cell_length_a                   9.868(5)
_cell_length_b                   24.034(5)
_cell_length_c                   28.163(5)
_cell_angle_alpha                90
_cell_angle_beta                 97.521(5)
_cell_angle_gamma                90
_cell_volume                     6621.89
loop_
_atom_site_label
_atom_site_type_symbol
_atom_site_fract_x
_atom_site_fract_y
_atom_site_fract_z
Zn1 Zn 0.23861(4) 0.027399(16) -0.132835(14)
Zn2 Zn -0.27676(4) -0.129310(16) -0.442730(14)
Zn3 Zn -0.25712(4) 0.243180(16) -0.342220(14)
O1 O -0.2840(3) 0.13856(10) -0.37033(9)
O2 O 0.2254(2) 0.15869(10) 0.07644(9)
N1 N -0.3583(3) -0.10073(11) -0.50806(10)
O3 O -0.2138(2) -0.06002(9) -0.40954(8)
O4 O -0.1638(3) -0.11363(10) -0.34616(9)
O5 O 0.1476(2) 0.05435(9) -0.19546(8)
O6 O -0.1364(2) 0.18021(9) -0.31669(8)
C1 C -0.1683(3) -0.06745(14) -0.36605(12)
N2 N -0.4926(3) -0.09364(12) -0.57798(10)
O7 O 0.2830(3) 0.24657(10) 0.09273(9)
C2 C -0.1854(4) 0.13699(14) -0.33838(12)
O8 O 0.1204(3) -0.03614(10) -0.20662(9)
O9 O 0.6541(3) 0.30791(10) -0.05376(9)
C3 C -0.1238(3) 0.08167(13) -0.32378(11)
N3 N 0.1003(3) -0.01047(12) -0.09739(10)
C4 C 0.3261(3) 0.21109(13) 0.01825(12)
N4 N -0.4296(3) -0.16364(13) -0.41134(10)
C5 C -0.1190(3) -0.01709(13) -0.33746(11)
C6 C 0.4576(3) 0.26411(14) -0.03216(13)
N5 N -0.0334(3) -0.07364(14) -0.06945(11)
N6 N -0.4511(3) 0.22854(12) -0.33281(10)
O10 O 0.4116(3) 0.13495(13) -0.13197(10)
N7 N 0.4067(3) -0.01838(12) -0.13501(11)
C7 C -0.2883(3) -0.07136(14) -0.54041(13)
C8 C 0.1908(6) 0.3660(2) -0.2505(2)
H1 H 0.2752 0.3822 -0.2404
C9 C 0.1003(3) 0.01175(15) -0.21998(12)
C10 C 0.3744(3) 0.17304(15) -0.05692(12)
C11 C 0.0141(3) 0.02258(13) -0.26723(11)
C12 C -0.1641(3) 0.03528(13) -0.35126(11)
H2 H -0.2229 0.0397 -0.3796
O11 O 0.2836(3) 0.08776(11) -0.08652(9)
C13 C 0.2730(3) 0.20433(15) 0.06577(12)
C14 C 0.4490(4) 0.22038(15) -0.06463(13)
H3 H 0.4934 0.2228 -0.0917
C15 C 0.3922(3) 0.25989(14) 0.00852(12)
H4 H 0.3927 0.2900 0.0293
N8 N -0.1703(3) 0.35553(13) -0.22820(11)
C16 C -0.4793(3) -0.11287(14) -0.53255(13)
C17 C -0.0296(3) -0.02300(13) -0.29545(11)
H5 H 0.0017 -0.0583 -0.2860
C18 C 0.1626(4) -0.10971(15) -0.10868(15)
H6 H 0.1917 -0.0986 -0.1389
H7 H 0.1059 -0.1426 -0.1147
N9 N -0.1916(3) 0.30128(12) -0.29285(11)
C19 C 0.4992(4) -0.01155(17) -0.16806(15)
C20 C -0.0052(4) 0.01702(16) -0.07837(13)
C21 C 0.5395(4) 0.31552(16) -0.04025(13)
N10 N -0.6168(3) 0.18962(14) -0.29800(12)
C22 C 0.0776(4) -0.06411(15) -0.09196(13)
C23 C -0.5651(4) 0.22145(15) -0.36704(13)
O12 O 0.4951(3) 0.36129(12) -0.03176(13)
C24 C -0.5963(4) -0.14163(16) -0.51457(14)
H8 H -0.6581 -0.1555 -0.5416
H9 H -0.5622 -0.1733 -0.4953
C25 C -0.1583(4) -0.04856(16) -0.53469(14)
H10 H -0.1025 -0.0502 -0.5054
C26 C 0.3157(3) 0.16821(14) -0.01493(12)
H11 H 0.2689 0.1359 -0.0090
C27 C -0.3275(4) -0.04264(17) -0.62369(15)
H12 H -0.3834 -0.0408 -0.6529
C28 C -0.3701(4) -0.06741(15) -0.58409(13)
C29 C -0.4024(4) 0.31936(17) -0.25329(14)
H13 H -0.4316 0.3533 -0.2389
H14 H -0.4551 0.3156 -0.2847
N11 N 0.5772(3) -0.07888(14) -0.11713(13)
N12 N -0.6307(3) -0.17076(15) -0.38415(13)
C30 C -0.2554(4) 0.32459(15) -0.25909(13)
C31 C -0.0336(3) 0.07509(14) -0.28173(12)
H15 H -0.0052 0.1061 -0.2633
C32 C 0.4568(4) -0.05798(16) -0.10563(14)
C33 C -0.6689(4) 0.19739(16) -0.34537(15)
C34 C -0.7958(4) 0.18461(19) -0.37088(19)
H16 H -0.8651 0.1679 -0.3565
C35 C -0.4878(4) 0.20879(16) -0.29201(14)
C36 C -0.0893(4) -0.02199(17) -0.06095(13)
C37 C -0.4319(4) -0.21416(17) -0.38627(13)
C38 C 0.3936(4) -0.07744(17) -0.06363(14)
H17 H 0.3481 -0.0462 -0.0508
H18 H 0.4657 -0.0897 -0.0391
C39 C 0.6057(4) -0.04921(18) -0.15661(17)
C40 C -0.5499(4) -0.13992(16) -0.40922(14)
C41 C -0.0556(4) 0.31813(15) -0.28289(14)
C42 C -0.4061(4) 0.21393(17) -0.24439(13)
H19 H -0.4302 0.1844 -0.2236
H20 H -0.3096 0.2105 -0.2474
C43 C -0.0415(4) 0.35288(16) -0.24310(14)
C44 C -0.0359(4) 0.07317(18) -0.07730(16)
H21 H 0.0209 0.0998 -0.0884
C45 C 0.2892(4) -0.12527(16) -0.07395(15)
H22 H 0.3342 -0.1565 -0.0871
H23 H 0.2604 -0.1373 -0.0440
C46 C -0.5840(4) 0.23605(16) -0.41521(14)
H24 H -0.5152 0.2530 -0.4297
C47 C -0.5573(4) -0.2177(2) -0.36897(15)
C48 C -0.4335(4) 0.2703(2) -0.22266(14)
H25 H -0.3785 0.2734 -0.1916
H26 H -0.5288 0.2720 -0.2176
C49 C -0.5970(4) -0.08908(17) -0.43534(16)
H27 H -0.6564 -0.0683 -0.4169
H28 H -0.5190 -0.0658 -0.4393
C50 C 0.7174(5) -0.0503(2) -0.1821(2)
H29 H 0.7901 -0.0747 -0.1742
C51 C -0.3362(4) -0.25605(18) -0.37807(15)
H30 H -0.2526 -0.2539 -0.3899
C52 C -0.5904(6) -0.2633(2) -0.34205(18)
H31 H -0.6734 -0.2656 -0.3299
C53 C -0.1983(5) -0.02083(19) -0.61760(16)
H32 H -0.1652 -0.0039 -0.6435
C54 C 0.0546(4) 0.30543(18) -0.30662(16)
H33 H 0.0463 0.2817 -0.3329
C55 C 0.3566(4) 0.12864(16) -0.09543(14)
C56 C -0.6747(4) -0.10349(18) -0.48474(17)
H34 H -0.6962 -0.0692 -0.5024
H35 H -0.7604 -0.1212 -0.4803
C57 C 0.4972(5) 0.0253(2) -0.20591(17)
H36 H 0.4256 0.0501 -0.2136
C58 C -0.8118(5) 0.1983(2) -0.4186(2)
H37 H -0.8942 0.1899 -0.4373
C59 C -0.1540(5) 0.0882(2) -0.05921(17)
H38 H -0.1779 0.1256 -0.0585
C60 C -0.3692(5) -0.3014(2) -0.35169(17)
H39 H -0.3065 -0.3302 -0.3454
C61 C -0.4938(6) -0.3046(2) -0.33455(19)
H40 H -0.5130 -0.3359 -0.3172
C62 C -0.2061(4) -0.0067(2) -0.04190(15)
H41 H -0.2607 -0.0332 -0.0295
C63 C -0.1151(4) -0.02335(18) -0.57380(16)
H42 H -0.0283 -0.0076 -0.5709
C64 C 0.0820(5) 0.37812(19) -0.22676(18)
H43 H 0.0907 0.4023 -0.2008
C65 C 0.6057(6) 0.0232(2) -0.2314(2)
H44 H 0.6075 0.0470 -0.2574
C66 C -0.7094(5) 0.2242(2) -0.44023(17)
H45 H -0.7265 0.2337 -0.4725
C67 C -0.2386(5) 0.0483(2) -0.04187(17)
H46 H -0.3181 0.0596 -0.0302
C68 C 0.1780(5) 0.3300(2) -0.2891(2)
H47 H 0.2548 0.3220 -0.3038
C69 C 0.7143(6) -0.0138(3) -0.2193(2)
H48 H 0.7869 -0.0135 -0.2372
H51 H -0.6529 0.1776 -0.2744
Zn2A Zn 0.77676(4) 0.370690(16) -0.057270(14)
Zn3C Zn 0.24288(4) 0.256820(16) 0.157780(14)
O7C O -0.2170(3) 0.25343(10) -0.40727(9)
O9A O -0.1541(3) -0.19209(10) -0.44624(9)
O13 O 0.2783(3) 0.14927(12) -0.22102(10)
H49 H 0.3257 0.1482 -0.1965
H50 H 0.2370 0.1156 -0.2216
O14 O -0.3815(3) 0.62637(16) 0.12874(14)
H52 H -0.4410 0.6337 0.1455
H53 H -0.3363 0.6526 0.1209
loop_
_geom_bond_atom_site_label_1
_geom_bond_atom_site_label_2
_geom_bond_site_symmetry_1
_geom_bond_site_symmetry_2
Zn1 O5 1_555 1_555
Zn2 N1 1_555 1_555
Zn3 O6 1_555 1_555
O1 C2 1_555 1_555
O2 C13 1_555 1_555
N1 C7 1_555 1_555
O3 Zn2 1_555 1_555
O4 C1 1_555 1_555
O5 C9 1_555 1_555
O6 C2 1_555 1_555
C1 O3 1_555 1_555
N2 C16 1_555 1_555
O7 C13 1_555 1_555
C2 C3 1_555 1_555
O8 C9 1_555 1_555
O9 C21 1_555 1_555
C3 C12 1_555 1_555
N3 Zn1 1_555 1_555
C4 C13 1_555 1_555
N4 Zn2 1_555 1_555
C5 C1 1_555 1_555
C6 C14 1_555 1_555
N5 C22 1_555 1_555
N6 Zn3 1_555 1_555
O10 C55 1_555 1_555
N7 Zn1 1_555 1_555
C7 C25 1_555 1_555
C8 H1 1_555 1_555
C9 C11 1_555 1_555
C10 C14 1_555 1_555
C11 C17 1_555 1_555
C12 C5 1_555 1_555
H2 C12 1_555 1_555
O11 Zn1 1_555 1_555
C14 H3 1_555 1_555
C15 C4 1_555 1_555
H4 C15 1_555 1_555
N8 C30 1_555 1_555
C16 N1 1_555 1_555
C17 C5 1_555 1_555
H5 C17 1_555 1_555
C18 H6 1_555 1_555
H7 C18 1_555 1_555
N9 Zn3 1_555 1_555
C19 N7 1_555 1_555
C20 N3 1_555 1_555
C21 C6 1_555 1_555
N10 C33 1_555 1_555
C22 N3 1_555 1_555
C23 N6 1_555 1_555
O12 C21 1_555 1_555
C24 C16 1_555 1_555
H8 C24 1_555 1_555
H9 C24 1_555 1_555
C25 H10 1_555 1_555
C26 C4 1_555 1_555
H11 C26 1_555 1_555
C27 H12 1_555 1_555
C28 N2 1_555 1_555
C29 H13 1_555 1_555
H14 C29 1_555 1_555
N11 C32 1_555 1_555
N12 C40 1_555 1_555
C30 N9 1_555 1_555
C31 C3 1_555 1_555
H15 C31 1_555 1_555
C32 N7 1_555 1_555
C33 C23 1_555 1_555
C34 C33 1_555 1_555
H16 C34 1_555 1_555
C35 N6 1_555 1_555
C36 N5 1_555 1_555
C37 N4 1_555 1_555
C38 C32 1_555 1_555
H17 C38 1_555 1_555
H18 C38 1_555 1_555
C39 C19 1_555 1_555
C40 N4 1_555 1_555
C41 N9 1_555 1_555
C42 C35 1_555 1_555
H19 C42 1_555 1_555
H20 C42 1_555 1_555
C43 N8 1_555 1_555
C44 C20 1_555 1_555
H21 C44 1_555 1_555
C45 C18 1_555 1_555
H22 C45 1_555 1_555
H23 C45 1_555 1_555
C46 C23 1_555 1_555
H24 C46 1_555 1_555
C47 N12 1_555 1_555
C48 C29 1_555 1_555
H25 C48 1_555 1_555
H26 C48 1_555 1_555
C49 C40 1_555 1_555
H27 C49 1_555 1_555
H28 C49 1_555 1_555
C50 C39 1_555 1_555
H29 C50 1_555 1_555
C51 C37 1_555 1_555
H30 C51 1_555 1_555
C52 C47 1_555 1_555
H31 C52 1_555 1_555
C53 C27 1_555 1_555
H32 C53 1_555 1_555
C54 C41 1_555 1_555
H33 C54 1_555 1_555
C55 C10 1_555 1_555
C56 C24 1_555 1_555
H34 C56 1_555 1_555
H35 C56 1_555 1_555
C57 C19 1_555 1_555
H36 C57 1_555 1_555
C58 C34 1_555 1_555
H37 C58 1_555 1_555
C59 C44 1_555 1_555
H38 C59 1_555 1_555
C60 C51 1_555 1_555
H39 C60 1_555 1_555
C61 C52 1_555 1_555
H40 C61 1_555 1_555
C62 C36 1_555 1_555
H41 C62 1_555 1_555
C63 C25 1_555 1_555
H42 C63 1_555 1_555
C64 C8 1_555 1_555
H43 C64 1_555 1_555
C65 C57 1_555 1_555
H44 C65 1_555 1_555
C66 C46 1_555 1_555
H45 C66 1_555 1_555
C67 C59 1_555 1_555
H46 C67 1_555 1_555
C68 C8 1_555 1_555
H47 C68 1_555 1_555
C69 C50 1_555 1_555
H48 C69 1_555 1_555
O13 H49 1_555 1_555
O14 H52 1_555 1_555
H50 O13 1_555 1_555
H51 N10 1_555 1_555
H53 O14 1_555 1_555
Zn2A O9 1_555 1_555
Zn3C O7 1_555 1_555
O7C Zn3 1_555 1_555
O9A Zn2 1_555 1_555
C6 C15 1_555 1_555
C7 C28 1_555 1_555
C10 C26 1_555 1_555
C11 C31 1_555 1_555
O11 C55 1_555 1_555
C18 C22 1_555 1_555
C20 C36 1_555 1_555
N10 C35 1_555 1_555
C27 C28 1_555 1_555
C29 C30 1_555 1_555
N11 C39 1_555 1_555
C37 C47 1_555 1_555
C38 C45 1_555 1_555
C41 C43 1_555 1_555
C42 C48 1_555 1_555
C43 C64 1_555 1_555
C49 C56 1_555 1_555
C53 C63 1_555 1_555
C54 C68 1_555 1_555
C58 C66 1_555 1_555
C60 C61 1_555 1_555
C62 C67 1_555 1_555
C65 C69 1_555 1_555

#END
