
#######################################################################
#
#                 Cambridge Crystallographic Data Centre
#                                CCDC 
#
#######################################################################
#
# If this CIF has been generated from an entry in the Cambridge 
# Structural Database, then it will include bibliographic, chemical, 
# crystal, experimental, refinement or atomic coordinate data resulting 
# from the CCDC's data processing and validation procedures.
#
#######################################################################

data_EXOTUH
_symmetry_cell_setting           trigonal
_symmetry_space_group_name_H-M   'P 32 2 1'
_symmetry_Int_Tables_number      154
_space_group_name_Hall           'P 32 2"'
loop_
_symmetry_equiv_pos_site_id
_symmetry_equiv_pos_as_xyz
1 x,y,z
2 -y,x-y,2/3+z
3 -x+y,-x,1/3+z
4 y,x,-z
5 -x,-x+y,2/3-z
6 x-y,-y,1/3-z
_cell_length_a                   15.214(2)
_cell_length_b                   15.214(2)
_cell_length_c                   19.686(4)
_cell_angle_alpha                90
_cell_angle_beta                 90
_cell_angle_gamma                120
_cell_volume                     3946.16
loop_
_atom_site_label
_atom_site_type_symbol
_atom_site_fract_x
_atom_site_fract_y
_atom_site_fract_z
C1 C -0.2451(15) -0.4004(14) 0.2585(10)
H1 H -0.3093 -0.4276 0.2392
C2 C -0.2266(16) -0.4546(11) 0.3078(10)
H2 H -0.2784 -0.5180 0.3215
C3 C -0.1305(13) -0.4139(13) 0.3365(8)
C4 C -0.0531(12) -0.3192(13) 0.3160(8)
C5 C -0.0716(12) -0.2650(10) 0.2667(8)
C6 C -0.1676(12) -0.3056(13) 0.2380(8)
H3 H -0.1800 -0.2694 0.2050
C7 C -0.127(3) -0.487(3) 0.378(2)
C8 C 0.0060(11) -0.1707(12) 0.2338(8)
C9 C 0.3292(11) -0.0365(14) 0.2190(8)
H4 H 0.2854 -0.0614 0.2560
C10 C 0.4187(10) -0.0384(9) 0.2198(6)
H5 H 0.4346 -0.0659 0.2568
C11 C 0.9348(11) 0.0904(10) -0.0080(7)
H6 H 0.9989 0.0968 -0.0072
C12 C 0.8821(11) 0.0715(10) 0.0519(5)
H7 H 0.9130 0.0731 0.0930
C13 C 0.7802(8) 0.0497(8) 0.0502(5)
C14 C 0.7492(13) 0.0618(11) -0.0094(6)
H8 H 0.6840 0.0522 -0.0126
C15 C 0.8070(11) 0.0876(10) -0.0675(6)
H9 H 0.7811 0.0965 -0.1081
C16 C 0.7210(9) 0.0227(9) 0.1120(5)
C17 C 0.5805(8) 0.0000(8) 0.1667
C18 C 0.4834(8) 0.0000(8) 0.1667
Cd1 Cd 0.14365(6) 0.0000 0.1667
N1 N 0.3055(10) 0.0000 0.1667
N2 N 0.8989(8) 0.0998(9) -0.0658(4)
N3 N 0.7567(7) 0.0000(7) 0.1667
N4 N 0.6356(8) 0.0262(7) 0.1093(4)
O1 O 0.0920(8) -0.1535(8) 0.2315(5)
O2 O -0.092(2) -0.448(2) 0.4300(14)
O3 O -0.149(4) -0.582(4) 0.387(3)
O4 O -0.0177(9) -0.1131(9) 0.2130(8)
C1D C 0.2451(15) -0.1553(21) 0.4082(10)
H1D H 0.3093 -0.1183 0.4275
C2D C 0.2266(16) -0.2280(19) 0.3589(10)
H2D H 0.2784 -0.2396 0.3452
C3D C 0.1305(13) -0.2834(18) 0.3302(8)
C4D C 0.0531(12) -0.2661(18) 0.3507(8)
C5D C 0.0716(12) -0.1934(16) 0.4000(8)
C6D C 0.1676(12) -0.1380(18) 0.4287(8)
H3D H 0.1800 -0.0894 0.4617
C7D C 0.127(3) -0.360(4) 0.289(2)
C8D C -0.0060(11) -0.1767(16) 0.4329(8)
C9E C 0.3657(18) 0.0365(14) 0.1143(8)
H4E H 0.3468 0.0614 0.0773
C10E C 0.4571(13) 0.0384(9) 0.1135(6)
H5E H 0.5005 0.0659 0.0765
C11E C 0.8444(15) -0.0904(10) 0.3413(7)
H6E H 0.9021 -0.0968 0.3405
C12E C 0.8106(15) -0.0715(10) 0.2814(5)
H7E H 0.8399 -0.0731 0.2403
C13E C 0.7305(11) -0.0497(8) 0.2831(5)
C14E C 0.6874(17) -0.0618(11) 0.3427(6)
H8E H 0.6318 -0.0522 0.3459
C15E C 0.7194(15) -0.0876(10) 0.4008(6)
H9E H 0.6846 -0.0965 0.4414
C16E C 0.6983(13) -0.0227(9) 0.2213(5)
Cd1C Cd 1.0000 0.14365(6) -0.1667
Cd1D Cd -0.14365(6) -0.14365(6) 0.5000
Cd1B Cd 0.85635(6) -0.14365(6) 0.5000
N2E N 0.7991(12) -0.0998(9) 0.3991(4)
N2C N 0.0998(9) -0.1011(8) 0.0658(4)
N2B N 0.2009(12) 0.1011(8) 0.2675(4)
N4E N 0.6094(11) -0.0262(7) 0.2240(4)
O1D O -0.0920(8) -0.2455(11) 0.4352(5)
O1E O 0.2455(11) 0.1535(8) 0.1018(5)
O2D O 0.092(2) -0.356(3) 0.2367(14)
O3D O 0.149(4) -0.433(6) 0.280(3)
O4D O 0.0177(9) -0.0954(13) 0.4537(8)
O4E O 0.0954(13) 0.1131(9) 0.1203(8)
loop_
_geom_bond_atom_site_label_1
_geom_bond_atom_site_label_2
_geom_bond_site_symmetry_1
_geom_bond_site_symmetry_2
C1 H1 1_555 1_555
C2 C1 1_555 1_555
H2 C2 1_555 1_555
C3 C2 1_555 1_555
C4 C3 1_555 1_555
C5 C4 1_555 1_555
C6 C1 1_555 1_555
H3 C6 1_555 1_555
C7 C3 1_555 1_555
C8 C5 1_555 1_555
C9 H4 1_555 1_555
C10 C9 1_555 1_555
H5 C10 1_555 1_555
C11 H6 1_555 1_555
C12 C11 1_555 1_555
H7 C12 1_555 1_555
C13 C12 1_555 1_555
C14 C13 1_555 1_555
H8 C14 1_555 1_555
C15 C14 1_555 1_555
H9 C15 1_555 1_555
C16 C13 1_555 1_555
C17 C18 1_555 1_555
C18 C10 1_555 1_555
Cd1 N1 1_555 1_555
N1 C9 1_555 1_555
N2 C11 1_555 1_555
N3 C16 1_555 1_555
N4 C16 1_555 1_555
O1 C8 1_555 1_555
O2 C7 1_555 1_555
O3 C7 1_555 1_555
O4 C8 1_555 1_555
C1D H1D 1_555 1_555
C2D C1D 1_555 1_555
H2D C2D 1_555 1_555
C3D C2D 1_555 1_555
C4D C4 1_555 1_555
C5D C4D 1_555 1_555
C6D C1D 1_555 1_555
H3D C6D 1_555 1_555
C7D C3D 1_555 1_555
C8D C5D 1_555 1_555
C9E N1 1_555 1_555
H4E C9E 1_555 1_555
C10E C18 1_555 1_555
H5E C10E 1_555 1_555
C11E H6E 1_555 1_555
C12E C11E 1_555 1_555
H7E C12E 1_555 1_555
C13E C12E 1_555 1_555
C14E C13E 1_555 1_555
H8E C14E 1_555 1_555
C15E C14E 1_555 1_555
H9E C15E 1_555 1_555
C16E N3 1_555 1_555
Cd1C N2 1_555 1_555
Cd1D O1D 1_555 1_555
Cd1B N2E 1_555 1_555
N2E C11E 1_555 1_555
N2C Cd1 1_555 1_555
N2B Cd1 1_555 1_555
N4E C17 1_555 1_555
O1D C8D 1_555 1_555
O1E Cd1 1_555 1_555
O2D C7D 1_555 1_555
O3D C7D 1_555 1_555
O4D C8D 1_555 1_555
O4E Cd1 1_555 1_555
C5 C6 1_555 1_555
C15 N2 1_555 1_555
C17 N4 1_555 1_555
Cd1 O1 1_555 1_555
Cd1 O4 1_555 1_555
C3D C4D 1_555 1_555
C5D C6D 1_555 1_555
C9E C10E 1_555 1_555
C13E C16E 1_555 1_555
C15E N2E 1_555 1_555
C16E N4E 1_555 1_555
Cd1D O4D 1_555 1_555

#END
