
#######################################################################
#
#                 Cambridge Crystallographic Data Centre
#                                CCDC 
#
#######################################################################
#
# If this CIF has been generated from an entry in the Cambridge 
# Structural Database, then it will include bibliographic, chemical, 
# crystal, experimental, refinement or atomic coordinate data resulting 
# from the CCDC's data processing and validation procedures.
#
#######################################################################

data_EXOVAP
_symmetry_cell_setting           monoclinic
_symmetry_space_group_name_H-M   'C 2/c'
_symmetry_Int_Tables_number      15
_space_group_name_Hall           '-C 2yn'
loop_
_symmetry_equiv_pos_site_id
_symmetry_equiv_pos_as_xyz
1 x,y,z
2 -x,y,1/2-z
3 1/2+x,1/2+y,z
4 1/2-x,1/2+y,1/2-z
5 -x,-y,-z
6 x,-y,1/2+z
7 1/2-x,1/2-y,-z
8 1/2+x,1/2-y,1/2+z
_cell_length_a                   34.996(7)
_cell_length_b                   10.856(2)
_cell_length_c                   14.849(3)
_cell_angle_alpha                90
_cell_angle_beta                 98.00(3)
_cell_angle_gamma                90
_cell_volume                     5586.48
loop_
_atom_site_label
_atom_site_type_symbol
_atom_site_fract_x
_atom_site_fract_y
_atom_site_fract_z
C1 C -0.3923(4) -0.0852(11) 0.7815(9)
H1 H -0.3734 -0.1378 0.8099
C2 C -0.4261(4) -0.1366(12) 0.7364(12)
H2 H -0.4295 -0.2215 0.7335
C3 C -0.4539(4) -0.0594(11) 0.6969(9)
H3 H -0.4772 -0.0918 0.6690
C4 C -0.4484(3) 0.0669(10) 0.6972(7)
C5 C -0.4770(3) 0.1529(10) 0.6533(7)
C6 C -0.4692(3) 0.2796(11) 0.6586(8)
C7 C -0.4331(4) 0.3264(11) 0.7069(9)
C8 C -0.4228(4) 0.4511(11) 0.7078(9)
H4 H -0.4395 0.5088 0.6775
C9 C -0.3879(4) 0.4879(11) 0.7536(10)
H5 H -0.3807 0.5704 0.7550
C10 C -0.3640(4) 0.4006(11) 0.7970(9)
H6 H -0.3408 0.4266 0.8297
C11 C -0.4056(3) 0.2424(10) 0.7495(7)
C12 C -0.4130(3) 0.1103(10) 0.7449(7)
C13 C -0.5361(4) 0.1892(12) 0.5722(8)
C14 C -0.5724(4) 0.1469(12) 0.5296(8)
H7 H -0.5780 0.0632 0.5308
C15 C -0.5991(4) 0.2241(12) 0.4877(7)
C16 C -0.5916(4) 0.3517(13) 0.4847(10)
H8 H -0.6095 0.4050 0.4533
C17 C -0.5569(4) 0.3960(13) 0.5294(11)
H9 H -0.5526 0.4805 0.5313
C18 C -0.5280(4) 0.3163(13) 0.5720(9)
C19 C -0.6378(3) 0.1791(12) 0.4452(7)
C20 C -0.2892(3) 0.5217(8) 1.0233(6)
C21 C -0.2918(3) 0.5853(9) 1.1020(6)
H10 H -0.2901 0.5432 1.1569
C22 C -0.2972(3) 0.7142(8) 1.1002(6)
C23 C -0.3000(3) 0.7765(8) 1.0174(6)
H11 H -0.3043 0.8610 1.0154
C24 C -0.2964(3) 0.7134(7) 0.9386(6)
C25 C -0.2917(3) 0.5829(8) 0.9410(6)
H12 H -0.2902 0.5393 0.8876
C26 C -0.2852(3) 0.3845(8) 1.0266(6)
C27 C -0.2962(3) 0.7759(9) 0.8483(6)
C28 C -0.2999(3) 0.7786(9) 1.1866(6)
N1 N -0.3858(3) 0.0349(9) 0.7860(6)
N2 N -0.3720(3) 0.2787(8) 0.7955(6)
N3 N -0.5103(3) 0.1069(10) 0.6135(7)
N4 N -0.4944(3) 0.3636(9) 0.6177(8)
O1 O -0.6536(2) 0.2352(7) 0.3740(4)
O2 O -0.6527(2) 0.0905(9) 0.4794(5)
O3 O -0.2677(2) 0.3404(6) 1.1007(5)
O4 O -0.2985(3) 0.3229(6) 0.9600(5)
O5 O -0.2899(2) 0.7102(6) 0.7817(4)
O6 O -0.3019(2) 0.8894(6) 0.8419(5)
O7 O -0.2887(2) 0.7208(6) 1.2611(4)
O8 O -0.3141(3) 0.8847(6) 1.1880(5)
Pb1 Pb -0.317216(12) 0.12695(3) 0.85961(2)
Pb2 Pb -0.716587(12) 0.15400(3) 0.33577(2)
O2A O -0.3473(2) 0.0905(9) 1.0206(5)
O3A O -0.7323(2) 0.3404(6) 0.3993(5)
O5D O -0.7101(2) 0.2898(6) 0.2183(4)
O6_2 O -0.3019(2) -0.1106(6) 0.8419(5)
O6D O -0.6981(2) 0.1106(6) 0.1581(5)
O7E O -0.2887(2) 0.2792(6) 0.7611(4)
O7B O -0.7887(2) 0.2208(6) 0.2611(4)
O8E O -0.3141(3) 0.1153(6) 0.6880(5)
Pb1A Pb -0.682784(12) 0.12695(3) 0.64039(2)
Pb1_2 Pb -0.317216(12) 1.12695(3) 0.85961(2)
Pb1E Pb -0.317216(12) 0.87305(3) 1.35961(2)
Pb2A Pb -0.283413(12) 0.15400(3) 1.16423(2)
Pb2D Pb -0.283413(12) 0.84600(3) 0.66423(2)
Pb2B Pb -0.216587(12) 0.65400(3) 1.33577(2)
O9 O -0.6042(9) -0.179(5) 0.478(3)
O10 O -0.5078(6) 0.6434(15) 0.6594(14)
loop_
_geom_bond_atom_site_label_1
_geom_bond_atom_site_label_2
_geom_bond_site_symmetry_1
_geom_bond_site_symmetry_2
C1 H1 1_555 1_555
C2 C1 1_555 1_555
H2 C2 1_555 1_555
C3 C2 1_555 1_555
H3 C3 1_555 1_555
C4 C3 1_555 1_555
C5 C4 1_555 1_555
C6 C5 1_555 1_555
C7 C6 1_555 1_555
C8 C7 1_555 1_555
H4 C8 1_555 1_555
C9 C8 1_555 1_555
H5 C9 1_555 1_555
C10 C9 1_555 1_555
H6 C10 1_555 1_555
C11 C7 1_555 1_555
C12 C4 1_555 1_555
C13 C14 1_555 1_555
C14 H7 1_555 1_555
C15 C14 1_555 1_555
C16 C15 1_555 1_555
H8 C16 1_555 1_555
C17 C16 1_555 1_555
H9 C17 1_555 1_555
C18 C13 1_555 1_555
C19 C15 1_555 1_555
C20 C21 1_555 1_555
C21 H10 1_555 1_555
C22 C21 1_555 1_555
C23 C22 1_555 1_555
H11 C23 1_555 1_555
C24 C23 1_555 1_555
C25 C20 1_555 1_555
H12 C25 1_555 1_555
C26 C20 1_555 1_555
C27 C24 1_555 1_555
C28 C22 1_555 1_555
N1 C1 1_555 1_555
N2 C10 1_555 1_555
N3 C5 1_555 1_555
N4 C6 1_555 1_555
O1 C19 1_555 1_555
O2 C19 1_555 1_555
O3 C26 1_555 1_555
O4 C26 1_555 1_555
O5 C27 1_555 1_555
O6 C27 1_555 1_555
O7 C28 1_555 1_555
O8 C28 1_555 1_555
Pb1 N1 1_555 1_555
Pb2 O1 1_555 1_555
O2A Pb1 1_555 1_555
O3A Pb2 1_555 1_555
O5D Pb2 1_555 1_555
O6_2 Pb1 1_555 1_555
O6D Pb2 1_555 1_555
O7E Pb1 1_555 1_555
O7B Pb2 1_555 1_555
O8E Pb1 1_555 1_555
Pb1A O2 1_555 1_555
Pb1_2 O6 1_555 1_555
Pb1E O7 1_555 1_555
Pb2A O3 1_555 1_555
Pb2D O5 1_555 1_555
Pb2B O7 1_555 1_555
C11 C12 1_555 1_555
C11 N2 1_555 1_555
C12 N1 1_555 1_555
C13 N3 1_555 1_555
C17 C18 1_555 1_555
C18 N4 1_555 1_555
C24 C25 1_555 1_555
N2 Pb1 1_555 1_555
O4 Pb1 1_555 1_555
O6 Pb2D 1_555 1_555
O8 Pb1E 1_555 1_555

#END
