
#######################################################################
#
#                 Cambridge Crystallographic Data Centre
#                                CCDC 
#
#######################################################################
#
# If this CIF has been generated from an entry in the Cambridge 
# Structural Database, then it will include bibliographic, chemical, 
# crystal, experimental, refinement or atomic coordinate data resulting 
# from the CCDC's data processing and validation procedures.
#
#######################################################################

data_EXOXOE02
_symmetry_cell_setting           orthorhombic
_symmetry_space_group_name_H-M   'P b c a'
_symmetry_Int_Tables_number      61
_space_group_name_Hall           '-P 2ac 2ab'
loop_
_symmetry_equiv_pos_site_id
_symmetry_equiv_pos_as_xyz
1 x,y,z
2 1/2-x,-y,1/2+z
3 -x,1/2+y,1/2-z
4 1/2+x,1/2-y,-z
5 -x,-y,-z
6 1/2+x,y,1/2-z
7 x,1/2-y,1/2+z
8 1/2-x,1/2+y,z
_cell_length_a                   6.9153(4)
_cell_length_b                   13.1212(7)
_cell_length_c                   18.9869(10)
_cell_angle_alpha                90
_cell_angle_beta                 90
_cell_angle_gamma                90
_cell_volume                     1722.81
loop_
_atom_site_label
_atom_site_type_symbol
_atom_site_fract_x
_atom_site_fract_y
_atom_site_fract_z
N1 N 0.3489(2) 0.67091(13) 0.65224(8)
O1 O 0.4044(2) 0.63786(11) 0.59531(6)
O2 O 0.2643(2) 0.75271(10) 0.65925(6)
K1 K 0.64671(5) 0.64643(3) 0.470380(19)
C1 C 0.3558(2) 0.65243(13) 0.78084(9)
H1 H 0.3107 0.7205 0.7851
C2 C 0.3951(3) 0.59443(13) 0.84007(8)
H2 H 0.3804 0.6228 0.8858
C3 C 0.4561(2) 0.49459(13) 0.83182(8)
C4 C 0.4813(3) 0.45103(13) 0.76566(8)
H3 H 0.5209 0.3820 0.7613
C5 C 0.4481(2) 0.50946(13) 0.70651(8)
H4 H 0.4690 0.4822 0.6608
C6 C 0.3837(3) 0.60869(13) 0.71507(9)
S1 S 0.34005(6) 0.38801(3) 0.93998(2)
O3 O 0.21887(19) 0.47095(9) 0.96227(6)
O4 O 0.45766(18) 0.34235(9) 0.99410(6)
O5 O 0.2371(2) 0.31618(9) 0.89649(7)
O6 O 0.50916(17) 0.43739(9) 0.89067(6)
K1C K 0.14671(5) 0.85357(3) 0.529620(19)
O2C O 0.7643(2) 0.74729(10) 0.34075(6)
O3A O 0.28113(19) 0.52905(9) 0.46227(6)
O3E O 0.71887(19) 0.47095(9) 0.53773(6)
O4A O 1.04234(18) 0.65765(9) 0.49410(6)
O4B O 0.54234(18) 0.84235(9) 0.50590(6)
K1A K -0.14671(5) 0.35357(3) 0.970380(19)
K1E K 0.14671(5) 0.64643(3) 1.029620(19)
K1A_2 K 0.85329(5) 0.35357(3) 0.970380(19)
K1B K 0.35329(5) 0.14643(3) 1.029620(19)
loop_
_geom_bond_atom_site_label_1
_geom_bond_atom_site_label_2
_geom_bond_site_symmetry_1
_geom_bond_site_symmetry_2
N1 O1 1_555 1_555
O1 K1 1_555 1_555
O2 N1 1_555 1_555
K1 O2C 1_555 1_555
C1 H1 1_555 1_555
C2 C1 1_555 1_555
H2 C2 1_555 1_555
C3 C2 1_555 1_555
C4 C3 1_555 1_555
H3 C4 1_555 1_555
C5 C4 1_555 1_555
H4 C5 1_555 1_555
C6 N1 1_555 1_555
S1 O3 1_555 1_555
O3 K1A 1_555 1_555
O4 S1 1_555 1_555
O5 S1 1_555 1_555
O6 C3 1_555 1_555
K1C O2 1_555 1_555
O3A K1 1_555 1_555
O3E K1 1_555 1_555
O4A K1 1_555 1_555
O4B K1 1_555 1_555
K1E O3 1_555 1_555
K1A_2 O4 1_555 1_555
K1B O4 1_555 1_555
C1 C6 1_555 1_555
C5 C6 1_555 1_555
S1 O6 1_555 1_555
K1C O4B 1_555 1_555

#END
