
#######################################################################
#
#                 Cambridge Crystallographic Data Centre
#                                CCDC 
#
#######################################################################
#
# If this CIF has been generated from an entry in the Cambridge 
# Structural Database, then it will include bibliographic, chemical, 
# crystal, experimental, refinement or atomic coordinate data resulting 
# from the CCDC's data processing and validation procedures.
#
#######################################################################

data_EXOXUL
_symmetry_cell_setting           monoclinic
_symmetry_space_group_name_H-M   'P 21/c'
_symmetry_Int_Tables_number      14
_space_group_name_Hall           '-P 2ybc'
loop_
_symmetry_equiv_pos_site_id
_symmetry_equiv_pos_as_xyz
1 x,y,z
2 -x,1/2+y,1/2-z
3 -x,-y,-z
4 x,1/2-y,1/2+z
_cell_length_a                   10.898(2)
_cell_length_b                   15.359(3)
_cell_length_c                   17.344(4)
_cell_angle_alpha                90
_cell_angle_beta                 107.17(3)
_cell_angle_gamma                90
_cell_volume                     2773.7
loop_
_atom_site_label
_atom_site_type_symbol
_atom_site_fract_x
_atom_site_fract_y
_atom_site_fract_z
C1 C 1.1691(6) 0.9366(4) 0.2450(3)
C2 C 1.2403(5) 0.8597(3) 0.2897(3)
C3 C 1.3708(6) 0.8638(4) 0.3324(4)
H1 H 1.4148 0.9160 0.3344
C4 C 1.4362(6) 0.7909(4) 0.3723(4)
C5 C 1.3693(6) 0.7129(4) 0.3667(4)
H2 H 1.4119 0.6632 0.3916
C6 C 1.2384(5) 0.7082(3) 0.3241(3)
C7 C 1.1725(6) 0.7820(4) 0.2872(4)
H3 H 1.0847 0.7797 0.2613
C8 C 1.1705(6) 0.6221(4) 0.3106(4)
C9 C 1.1598(6) 1.2059(4) 0.3730(4)
C10 C 1.1556(6) 1.1438(4) 0.4382(3)
C11 C 1.1857(7) 1.0565(4) 0.4323(4)
H4 H 1.2049 1.0366 0.3866
C12 C 1.1872(8) 0.9992(4) 0.4943(4)
C13 C 1.1583(7) 1.0298(4) 0.5617(4)
H5 H 1.1579 0.9921 0.6035
C14 C 1.1298(6) 1.1179(4) 0.5667(3)
C15 C 1.1286(5) 1.1749(4) 0.5051(3)
H6 H 1.1098 1.2335 0.5091
C16 C 1.1053(5) 1.1515(4) 0.6407(4)
C17 C 0.4299(6) 1.1294(4) -0.1123(4)
C18 C 0.5712(6) 1.1471(4) -0.0913(4)
C19 C 0.6138(6) 1.2170(4) -0.1250(4)
H7 H 0.5556 1.2537 -0.1602
C20 C 0.7462(6) 1.2327(4) -0.1060(4)
C21 C 0.8354(6) 1.1773(4) -0.0540(4)
H8 H 0.9229 1.1883 -0.0425
C22 C 0.7933(6) 1.1071(4) -0.0203(3)
C23 C 0.6606(6) 1.0924(4) -0.0376(3)
H9 H 0.6314 1.0459 -0.0134
C24 C 0.8899(5) 1.0509(4) 0.0365(3)
N1 N 1.5706(5) 0.7925(4) 0.4121(4)
H10 H 1.5932 0.7443 0.4412
H11 H 1.5895 0.8388 0.4444
H12 H 1.6132 0.7956 0.3755
N2 N 1.2220(8) 0.9131(4) 0.4902(4)
H13 H 1.3068 0.9096 0.5001
H14 H 1.1835 0.8922 0.4411
H15 H 1.1983 0.8821 0.5267
N3 N 0.7900(5) 1.3099(3) -0.1337(3)
H16 H 0.8706 1.3223 -0.1187
H17 H 0.7362 1.3444 -0.1656
O1 O 1.0489(4) 0.9304(3) 0.2079(3)
O2 O 1.2312(4) 1.0062(3) 0.2455(3)
O3 O 1.0491(4) 0.6209(3) 0.2890(3)
O4 O 1.2384(4) 0.5542(3) 0.3196(3)
O5 O 1.1298(4) 1.2845(3) 0.3789(3)
O6 O 1.1923(5) 1.1759(3) 0.3155(3)
O7 O 1.0772(4) 1.2312(3) 0.6415(3)
O8 O 1.1171(4) 1.1001(3) 0.6985(2)
O9 O 0.3537(4) 1.1493(3) -0.1823(3)
O10 O 0.3838(4) 1.0918(3) -0.0653(3)
O11 O 0.8539(4) 0.9756(3) 0.0519(2)
O12 O 1.0024(4) 1.0791(3) 0.0693(2)
O13 O 1.2636(4) 1.1043(3) 0.0991(3)
H18 H 1.3260 1.0747 0.1256
H19 H 1.2350 1.0782 0.0551
O14 O 1.3372(4) 1.2130(3) 0.2204(3)
H20 H 1.3550 1.2460 0.2602
H21 H 1.3717 1.2297 0.1867
Zn1 Zn 1.14182(5) 1.13478(4) 0.18540(3)
Zn2 Zn 0.83387(5) 0.91559(4) 0.16631(3)
O3A O 0.9509(4) 1.1209(3) 0.2110(3)
O4A O 0.7616(4) 1.0542(3) 0.1804(3)
O5A O 0.8702(4) 0.7845(3) 0.1211(3)
O7C O 1.0772(4) 1.2688(3) 0.1415(3)
O8B O 0.8829(4) 0.8999(3) 0.3015(2)
O9B O 0.6463(4) 0.8507(3) 0.1823(3)
Zn1A Zn 0.85818(5) 0.63478(4) 0.31460(3)
Zn1C Zn 1.14182(5) 1.36522(4) 0.68540(3)
Zn2A Zn 1.16613(5) 0.41559(4) 0.33369(3)
Zn2A_2 Zn 1.16613(5) 1.41559(4) 0.33369(3)
Zn2B Zn 1.16613(5) 1.08441(4) 0.83369(3)
Zn2B_2 Zn 0.16613(5) 1.08441(4) -0.16631(3)
O15 O 0.5040(5) 0.0454(4) 0.2043(4)
H22 H 0.5716 0.0241 0.2381
H23 H 0.5057 0.0996 0.2140
O16 O 0.5050(9) 0.0675(6) 0.3828(9)
H24 H 0.5508 0.0343 0.4203
H25 H 0.5532 0.1116 0.3840
loop_
_geom_bond_atom_site_label_1
_geom_bond_atom_site_label_2
_geom_bond_site_symmetry_1
_geom_bond_site_symmetry_2
C1 C2 1_555 1_555
C2 C3 1_555 1_555
C3 H1 1_555 1_555
C4 C3 1_555 1_555
C5 C4 1_555 1_555
H2 C5 1_555 1_555
C6 C5 1_555 1_555
C7 C2 1_555 1_555
H3 C7 1_555 1_555
C8 C6 1_555 1_555
C9 C10 1_555 1_555
C10 C11 1_555 1_555
C11 H4 1_555 1_555
C12 C11 1_555 1_555
C13 C12 1_555 1_555
H5 C13 1_555 1_555
C14 C13 1_555 1_555
C15 C10 1_555 1_555
H6 C15 1_555 1_555
C16 C14 1_555 1_555
C17 C18 1_555 1_555
C18 C19 1_555 1_555
C19 H7 1_555 1_555
C20 C19 1_555 1_555
C21 C20 1_555 1_555
H8 C21 1_555 1_555
C22 C21 1_555 1_555
C23 C18 1_555 1_555
H9 C23 1_555 1_555
C24 C22 1_555 1_555
N1 C4 1_555 1_555
H10 N1 1_555 1_555
H11 N1 1_555 1_555
H12 N1 1_555 1_555
N2 C12 1_555 1_555
H13 N2 1_555 1_555
H14 N2 1_555 1_555
H15 N2 1_555 1_555
N3 C20 1_555 1_555
H16 N3 1_555 1_555
H17 N3 1_555 1_555
O1 C1 1_555 1_555
O2 C1 1_555 1_555
O3 C8 1_555 1_555
O4 C8 1_555 1_555
O5 C9 1_555 1_555
O6 C9 1_555 1_555
O7 C16 1_555 1_555
O8 C16 1_555 1_555
O9 C17 1_555 1_555
O10 C17 1_555 1_555
O11 C24 1_555 1_555
O12 C24 1_555 1_555
O13 H18 1_555 1_555
H19 O13 1_555 1_555
O14 H20 1_555 1_555
H21 O14 1_555 1_555
O15 H22 1_555 1_555
H23 O15 1_555 1_555
O16 H24 1_555 1_555
H25 O16 1_555 1_555
Zn1 O2 1_555 1_555
Zn2 O1 1_555 1_555
O3A Zn1 1_555 1_555
O4A Zn2 1_555 1_555
O5A Zn2 1_555 1_555
O7C Zn1 1_555 1_555
O8B Zn2 1_555 1_555
O9B Zn2 1_555 1_555
Zn1A O3 1_555 1_555
Zn1C O7 1_555 1_555
Zn2A O4 1_555 1_555
Zn2A_2 O5 1_555 1_555
Zn2B O8 1_555 1_555
Zn2B_2 O9 1_555 1_555
C6 C7 1_555 1_555
C14 C15 1_555 1_555
C22 C23 1_555 1_555
O6 Zn1 1_555 1_555
O11 Zn2 1_555 1_555
O12 Zn1 1_555 1_555
O13 Zn1 1_555 1_555
O14 Zn1 1_555 1_555

#END
