
#######################################################################
#
#                 Cambridge Crystallographic Data Centre
#                                CCDC 
#
#######################################################################
#
# If this CIF has been generated from an entry in the Cambridge 
# Structural Database, then it will include bibliographic, chemical, 
# crystal, experimental, refinement or atomic coordinate data resulting 
# from the CCDC's data processing and validation procedures.
#
#######################################################################

data_EXOYIA
_symmetry_cell_setting           monoclinic
_symmetry_space_group_name_H-M   'C 2/c'
_symmetry_Int_Tables_number      15
_space_group_name_Hall           '-C 2yn'
loop_
_symmetry_equiv_pos_site_id
_symmetry_equiv_pos_as_xyz
1 x,y,z
2 -x,y,1/2-z
3 1/2+x,1/2+y,z
4 1/2-x,1/2+y,1/2-z
5 -x,-y,-z
6 x,-y,1/2+z
7 1/2-x,1/2-y,-z
8 1/2+x,1/2-y,1/2+z
_cell_length_a                   24.000(6)
_cell_length_b                   16.020(6)
_cell_length_c                   11.832(4)
_cell_angle_alpha                90
_cell_angle_beta                 90.008(15)
_cell_angle_gamma                90
_cell_volume                     4549.17
loop_
_atom_site_label
_atom_site_type_symbol
_atom_site_fract_x
_atom_site_fract_y
_atom_site_fract_z
Eu1 Eu 0.168549(5) 0.217301(7) 0.512067(10)
O1 O 0.22357(8) 0.16235(12) 0.66045(17)
O2 O 0.30735(9) 0.22386(11) 0.66403(17)
O3 O 0.19860(9) -0.09867(12) 0.90625(18)
O4 O 0.27753(9) -0.16539(12) 0.94101(18)
O5 O 0.10052(9) 0.32783(12) 0.47323(18)
O6 O 0.07851(9) 0.20487(12) 0.40482(19)
N1 N 0.11019(11) 0.24780(18) 0.6901(2)
N2 N 0.12130(10) 0.08882(16) 0.6117(2)
C1 C 0.29292(11) 0.10721(16) 0.7821(2)
C2 C 0.34410(13) 0.11992(19) 0.8349(3)
H1 H 0.3648 0.1675 0.8183
C3 C 0.36449(14) 0.0625(2) 0.9116(3)
H2 H 0.3985 0.0719 0.9469
C4 C 0.33434(14) -0.00905(19) 0.9361(3)
H3 H 0.3482 -0.0478 0.9875
C5 C 0.28312(12) -0.02278(16) 0.8834(2)
C6 C 0.26200(11) 0.03616(16) 0.8080(2)
H4 H 0.2273 0.0280 0.7750
C7 C 0.27275(12) 0.16954(16) 0.6957(2)
C8 C 0.25089(12) -0.10064(16) 0.9105(2)
C9 C 0.0000 0.2829(2) 0.2500
H5 H 0.0000 0.2249 0.2500
C10 C 0.03314(11) 0.32593(17) 0.3268(2)
C11 C 0.03233(17) 0.4126(2) 0.3265(4)
H6 H 0.0538 0.4418 0.3786
C12 C 0.0000 0.4556(3) 0.2500
H7 H 0.0000 0.5136 0.2500
C13 C 0.07261(12) 0.28337(15) 0.4072(2)
C14 C 0.10322(17) 0.3254(2) 0.7263(3)
H8 H 0.1191 0.3685 0.6847
C15 C 0.0732(2) 0.3458(3) 0.8234(3)
H9 H 0.0696 0.4011 0.8457
C16 C 0.0495(2) 0.2842(3) 0.8846(4)
H10 H 0.0291 0.2971 0.9491
C17 C 0.05564(16) 0.2011(3) 0.8508(3)
C18 C 0.03366(19) 0.1318(4) 0.9127(4)
H11 H 0.0124 0.1416 0.9771
C19 C 0.04305(19) 0.0537(4) 0.8796(4)
H12 H 0.0290 0.0100 0.9227
C20 C 0.07432(16) 0.0350(3) 0.7792(3)
C21 C 0.08484(19) -0.0459(3) 0.7421(4)
H13 H 0.0731 -0.0912 0.7853
C22 C 0.11207(19) -0.0590(2) 0.6436(4)
H14 H 0.1192 -0.1130 0.6188
C23 C 0.12954(16) 0.0104(2) 0.5789(3)
H15 H 0.1475 0.0008 0.5105
C24 C 0.09484(13) 0.1018(2) 0.7124(3)
C25 C 0.08692(13) 0.1852(2) 0.7510(3)
Eu1F Eu 0.331451(5) 0.282699(7) 0.487933(10)
Eu1E Eu 0.168549(5) -0.217301(7) 1.012067(10)
Eu1C Eu 0.331451(5) -0.282699(7) 0.987933(10)
Eu1A Eu -0.168549(5) 0.217301(7) -0.012067(10)
Eu1C_2 Eu 0.331451(5) 0.717301(7) -0.012067(10)
Eu1E_2 Eu 0.168549(5) 0.782699(7) 0.012067(10)
O1F O 0.27643(8) 0.33765(12) 0.33955(17)
O2F O 0.19265(9) 0.27614(11) 0.33597(17)
O3F O 0.30140(9) 0.59867(12) 0.09375(18)
O3E O 0.19860(9) 0.09867(12) 0.40625(18)
O3C O 0.30140(9) 0.40133(12) 0.59375(18)
O4F O 0.22247(9) 0.66539(12) 0.05899(18)
O4E O 0.27753(9) 0.16539(12) 0.44101(18)
O4C O 0.22247(9) 0.33461(12) 0.55899(18)
O5A O -0.10052(9) 0.32783(12) 0.02677(18)
O5F O 0.39948(9) 0.17217(12) 0.52677(18)
O6A O -0.07851(9) 0.20487(12) 0.09518(19)
O6F O 0.42149(9) 0.29513(12) 0.59518(19)
N1F N 0.38981(11) 0.25220(18) 0.3099(2)
N2F N 0.37870(10) 0.41118(16) 0.3883(2)
C1F C 0.20708(11) 0.39279(16) 0.2179(2)
C2F C 0.15590(13) 0.38008(19) 0.1651(3)
H1F H 0.1352 0.3325 0.1817
C3F C 0.13551(14) 0.4375(2) 0.0884(3)
H2F H 0.1015 0.4281 0.0531
C4F C 0.16566(14) 0.50905(19) 0.0639(3)
H3F H 0.1518 0.5478 0.0125
C5F C 0.21688(12) 0.52278(16) 0.1166(2)
C6F C 0.23800(11) 0.46384(16) 0.1920(2)
H4F H 0.2727 0.4720 0.2250
C7F C 0.22725(12) 0.33046(16) 0.3043(2)
C8F C 0.24911(12) 0.60064(16) 0.0895(2)
C10A C -0.03314(11) 0.32593(17) 0.1732(2)
C11A C -0.03233(17) 0.4126(2) 0.1735(4)
H6A H -0.0538 0.4418 0.1214
C13A C -0.07261(12) 0.28337(15) 0.0928(2)
C14F C 0.39678(17) 0.1746(2) 0.2737(3)
H8F H 0.3809 0.1315 0.3153
C15F C 0.4268(2) 0.1542(3) 0.1766(3)
H9F H 0.4304 0.0989 0.1543
C16F C 0.4505(2) 0.2158(3) 0.1154(4)
H10F H 0.4709 0.2029 0.0509
C17F C 0.44436(16) 0.2989(3) 0.1492(3)
C18F C 0.46634(19) 0.3682(4) 0.0873(4)
H11F H 0.4876 0.3584 0.0229
C19F C 0.45695(19) 0.4463(4) 0.1204(4)
H12F H 0.4710 0.4900 0.0773
C20F C 0.42568(16) 0.4650(3) 0.2208(3)
C21F C 0.41516(19) 0.5459(3) 0.2579(4)
H13F H 0.4269 0.5912 0.2147
C22F C 0.38793(19) 0.5590(2) 0.3564(4)
H14F H 0.3808 0.6130 0.3812
C23F C 0.37046(16) 0.4896(2) 0.4211(3)
H15F H 0.3525 0.4992 0.4895
C24F C 0.40516(13) 0.3982(2) 0.2876(3)
C25F C 0.41308(13) 0.3148(2) 0.2490(3)
N3 N 0.2500 0.2500 0.0000
C27 C 0.3146(5) 0.2972(8) 0.0404(8)
C27F C 0.1854(5) 0.2028(8) -0.0404(8)
C26? C 0.2601(8) 0.1868(14) 0.0869(14)
loop_
_geom_bond_atom_site_label_1
_geom_bond_atom_site_label_2
_geom_bond_site_symmetry_1
_geom_bond_site_symmetry_2
Eu1 O1 1_555 1_555
O1 C7 1_555 1_555
O2 C7 1_555 1_555
O3 C8 1_555 1_555
O4 C8 1_555 1_555
O5 Eu1 1_555 1_555
O6 Eu1 1_555 1_555
N1 Eu1 1_555 1_555
N2 Eu1 1_555 1_555
N3 C27 1_555 1_555
C1 C2 1_555 1_555
C2 H1 1_555 1_555
C3 C2 1_555 1_555
H2 C3 1_555 1_555
C4 C3 1_555 1_555
H3 C4 1_555 1_555
C5 C4 1_555 1_555
C6 C1 1_555 1_555
H4 C6 1_555 1_555
C7 C1 1_555 1_555
C8 C5 1_555 1_555
C9 H5 1_555 1_555
C10 C9 1_555 1_555
C11 C10 1_555 1_555
H6 C11 1_555 1_555
C12 C11 1_555 1_555
H7 C12 1_555 1_555
C13 O5 1_555 1_555
C14 N1 1_555 1_555
H8 C14 1_555 1_555
C15 C14 1_555 1_555
H9 C15 1_555 1_555
C16 C15 1_555 1_555
H10 C16 1_555 1_555
C17 C16 1_555 1_555
C18 C17 1_555 1_555
H11 C18 1_555 1_555
C19 C18 1_555 1_555
H12 C19 1_555 1_555
C20 C19 1_555 1_555
C21 C20 1_555 1_555
H13 C21 1_555 1_555
C22 C21 1_555 1_555
H14 C22 1_555 1_555
C23 N2 1_555 1_555
H15 C23 1_555 1_555
C24 N2 1_555 1_555
C25 N1 1_555 1_555
Eu1F O2 1_555 1_555
Eu1E O3 1_555 1_555
Eu1C O4 1_555 1_555
Eu1A O5A 1_555 1_555
Eu1C_2 O3F 1_555 1_555
Eu1E_2 O4F 1_555 1_555
O1F Eu1F 1_555 1_555
O2F Eu1 1_555 1_555
O3F C8F 1_555 1_555
O3E Eu1 1_555 1_555
O3C Eu1F 1_555 1_555
O4F Eu1C_2 1_555 1_555
O4E Eu1 1_555 1_555
O4C Eu1 1_555 1_555
O5A C13A 1_555 1_555
O5F Eu1F 1_555 1_555
O6A Eu1A 1_555 1_555
O6F Eu1F 1_555 1_555
N1F Eu1F 1_555 1_555
N2F Eu1F 1_555 1_555
C1F C2F 1_555 1_555
C2F H1F 1_555 1_555
C3F C2F 1_555 1_555
H2F C3F 1_555 1_555
C4F C3F 1_555 1_555
H3F C4F 1_555 1_555
C5F C4F 1_555 1_555
C6F C1F 1_555 1_555
H4F C6F 1_555 1_555
C7F O1F 1_555 1_555
C8F O4F 1_555 1_555
C10A C9 1_555 1_555
C11A C12 1_555 1_555
H6A C11A 1_555 1_555
C13A O6A 1_555 1_555
C14F N1F 1_555 1_555
H8F C14F 1_555 1_555
C15F C14F 1_555 1_555
H9F C15F 1_555 1_555
C16F C15F 1_555 1_555
H10F C16F 1_555 1_555
C17F C16F 1_555 1_555
C18F C17F 1_555 1_555
H11F C18F 1_555 1_555
C19F C18F 1_555 1_555
H12F C19F 1_555 1_555
C20F C19F 1_555 1_555
C21F C20F 1_555 1_555
H13F C21F 1_555 1_555
C22F C21F 1_555 1_555
H14F C22F 1_555 1_555
C23F N2F 1_555 1_555
H15F C23F 1_555 1_555
C24F N2F 1_555 1_555
C25F N1F 1_555 1_555
C27F N3 1_555 1_555
O4 Eu1E 1_555 1_555
O6 C13 1_555 1_555
C5 C6 1_555 1_555
C10 C13 1_555 1_555
C17 C25 1_555 1_555
C20 C24 1_555 1_555
C22 C23 1_555 1_555
C24 C25 1_555 1_555
Eu1F O4E 1_555 1_555
Eu1F O4C 1_555 1_555
O2F C7F 1_555 1_555
C1F C7F 1_555 1_555
C5F C6F 1_555 1_555
C5F C8F 1_555 1_555
C10A C11A 1_555 1_555
C10A C13A 1_555 1_555
C17F C25F 1_555 1_555
C20F C24F 1_555 1_555
C22F C23F 1_555 1_555
C24F C25F 1_555 1_555

#END
