
#######################################################################
#
#                 Cambridge Crystallographic Data Centre
#                                CCDC 
#
#######################################################################
#
# If this CIF has been generated from an entry in the Cambridge 
# Structural Database, then it will include bibliographic, chemical, 
# crystal, experimental, refinement or atomic coordinate data resulting 
# from the CCDC's data processing and validation procedures.
#
#######################################################################

data_EXOZUM
_symmetry_cell_setting           monoclinic
_symmetry_space_group_name_H-M   'P 2/n'
_symmetry_Int_Tables_number      13
_space_group_name_Hall           '-P 2yac'
loop_
_symmetry_equiv_pos_site_id
_symmetry_equiv_pos_as_xyz
1 x,y,z
2 1/2-x,y,1/2-z
3 -x,-y,-z
4 1/2+x,-y,1/2+z
_cell_length_a                   8.7640(4)
_cell_length_b                   12.1090(6)
_cell_length_c                   17.0440(8)
_cell_angle_alpha                90
_cell_angle_beta                 101.8460(10)
_cell_angle_gamma                90
_cell_volume                     1770.24
loop_
_atom_site_label
_atom_site_type_symbol
_atom_site_fract_x
_atom_site_fract_y
_atom_site_fract_z
Zn1 Zn 0.94511(7) 0.29467(5) 0.83478(3)
O1 O 1.2134(5) 0.2598(4) 0.9027(3)
O2 O 1.0572(5) 0.3841(3) 0.9352(2)
O3 O 1.2757(4) 0.6462(3) 1.1616(2)
O4 O 1.4778(5) 0.5877(3) 1.2533(2)
O5 O 1.7035(5) 0.2765(3) 1.1123(3)
H1 H 1.7802 0.3172 1.1219
N1 N 0.9890(5) 0.1561(4) 0.7646(2)
N2 N 0.8726(5) 0.1572(4) 0.8977(3)
C1 C 1.0513(8) 0.1581(5) 0.7002(3)
H2 H 1.0715 0.2262 0.6787
C2 C 1.0879(9) 0.0611(5) 0.6634(4)
H3 H 1.1329 0.0651 0.6185
C3 C 1.0576(8) -0.0394(6) 0.6933(4)
H4 H 1.0817 -0.1044 0.6689
C4 C 0.9904(7) -0.0441(5) 0.7606(3)
C5 C 0.9522(8) -0.1470(5) 0.7977(4)
H5 H 0.9730 -0.2147 0.7758
C6 C 0.8879(8) -0.1455(5) 0.8625(4)
H6 H 0.8631 -0.2123 0.8842
C7 C 0.8565(7) -0.0438(5) 0.8992(4)
C8 C 0.7925(8) -0.0364(5) 0.9685(4)
H7 H 0.7657 -0.1004 0.9931
C9 C 0.7700(8) 0.0659(5) 0.9995(4)
H8 H 0.7276 0.0716 1.0452
C10 C 0.8106(7) 0.1612(5) 0.9624(3)
H9 H 0.7938 0.2300 0.9839
C11 C 0.8933(6) 0.0570(4) 0.8658(3)
C12 C 0.9588(6) 0.0563(4) 0.7946(3)
C13 C 1.5492(7) 0.4270(5) 1.1465(3)
H10 H 1.6275 0.4453 1.1904
C14 C 1.4110(6) 0.4878(4) 1.1309(3)
C15 C 1.2921(6) 0.4596(4) 1.0653(3)
H11 H 1.1998 0.5003 1.0543
C16 C 1.3844(6) 0.5802(4) 1.1852(3)
C17 C 1.3130(6) 0.3705(4) 1.0169(3)
C18 C 1.4532(7) 0.3112(4) 1.0330(3)
H12 H 1.4675 0.2521 1.0000
C19 C 1.5710(6) 0.3393(4) 1.0972(3)
C20 C 1.1875(7) 0.3362(5) 0.9472(3)
O3B O 0.7243(4) 0.3538(3) 0.8384(2)
O4C O 0.9778(5) 0.4123(3) 0.7533(2)
Zn1B Zn 1.05489(7) 0.70533(5) 1.16522(3)
Zn1C Zn 1.44511(7) 0.70533(5) 1.33478(3)
O6 O 1.0449(6) 0.5967(4) 0.8564(3)
H13 H 1.044(11) 0.574(7) 0.902(2)
H14 H 1.034(11) 0.547(5) 0.823(4)
loop_
_geom_bond_atom_site_label_1
_geom_bond_atom_site_label_2
_geom_bond_site_symmetry_1
_geom_bond_site_symmetry_2
Zn1 O1 1_555 1_555
O1 C20 1_555 1_555
O2 Zn1 1_555 1_555
O3 C16 1_555 1_555
O4 C16 1_555 1_555
O5 H1 1_555 1_555
N1 Zn1 1_555 1_555
N2 Zn1 1_555 1_555
C1 N1 1_555 1_555
H2 C1 1_555 1_555
C2 C1 1_555 1_555
H3 C2 1_555 1_555
C3 C2 1_555 1_555
H4 C3 1_555 1_555
C4 C3 1_555 1_555
C5 C4 1_555 1_555
H5 C5 1_555 1_555
C6 C5 1_555 1_555
H6 C6 1_555 1_555
C7 C6 1_555 1_555
C8 C7 1_555 1_555
H7 C8 1_555 1_555
C9 C8 1_555 1_555
H8 C9 1_555 1_555
C10 N2 1_555 1_555
H9 C10 1_555 1_555
C11 N2 1_555 1_555
C12 N1 1_555 1_555
C13 H10 1_555 1_555
C14 C13 1_555 1_555
C15 C14 1_555 1_555
H11 C15 1_555 1_555
C16 C14 1_555 1_555
C17 C15 1_555 1_555
C18 C17 1_555 1_555
H12 C18 1_555 1_555
C19 O5 1_555 1_555
C20 O2 1_555 1_555
O6 H13 1_555 1_555
H14 O6 1_555 1_555
O3B Zn1 1_555 1_555
O4C Zn1 1_555 1_555
Zn1B O3 1_555 1_555
Zn1C O4 1_555 1_555
C4 C12 1_555 1_555
C7 C11 1_555 1_555
C9 C10 1_555 1_555
C11 C12 1_555 1_555
C13 C19 1_555 1_555
C17 C20 1_555 1_555
C18 C19 1_555 1_555

#END
