
#######################################################################
#
#                 Cambridge Crystallographic Data Centre
#                                CCDC 
#
#######################################################################
#
# If this CIF has been generated from an entry in the Cambridge 
# Structural Database, then it will include bibliographic, chemical, 
# crystal, experimental, refinement or atomic coordinate data resulting 
# from the CCDC's data processing and validation procedures.
#
#######################################################################

data_EXUNUG
_symmetry_cell_setting           monoclinic
_symmetry_space_group_name_H-M   'P 21/n'
_symmetry_Int_Tables_number      14
_space_group_name_Hall           '-P 2yn'
loop_
_symmetry_equiv_pos_site_id
_symmetry_equiv_pos_as_xyz
1 x,y,z
2 1/2+x,1/2-y,1/2+z
3 -x,-y,-z
4 1/2-x,1/2+y,1/2-z
_cell_length_a                   8.4581(5)
_cell_length_b                   8.3703(4)
_cell_length_c                   26.9075(19)
_cell_angle_alpha                90
_cell_angle_beta                 98.620(10)
_cell_angle_gamma                90
_cell_volume                     1883.45
loop_
_atom_site_label
_atom_site_type_symbol
_atom_site_fract_x
_atom_site_fract_y
_atom_site_fract_z
O1 O 0.1919(5) 0.5453(7) 0.06350(19)
O2 O -0.1232(6) 0.6581(7) 0.0459(2)
O3 O 0.2285(5) 0.6363(7) -0.0113(2)
O4 O -0.0810(6) 0.7508(7) -0.0284(2)
C1 C 0.2754(7) 0.6087(9) 0.0335(3)
C2 C -0.1291(7) 0.7655(9) 0.0131(3)
C3 C -0.1804(8) 0.9616(10) 0.0808(3)
H1 H -0.2237 1.0672 0.0851
H2 H -0.2431 0.8853 0.0967
C4 C -0.1965(8) 0.9244(10) 0.0256(3)
H3 H -0.1432 1.0077 0.0093
H4 H -0.309 0.9273 0.0115
C5 C -0.0109(9) 0.9560(12) 0.1062(3)
H5 H 0.0288 0.8477 0.1046
H6 H 0.0535 1.0242 0.088
N1 N 0.0097(9) 1.0069(10) 0.1590(3)
H7 H 0.1126 1.0009 0.1721
H8 H -0.047 0.9434 0.1761
H9 H -0.024 1.1071 0.1608
C6 C 0.4440(8) 0.6582(11) 0.0548(3)
H10 H 0.4396 0.7624 0.0703
H11 H 0.5047 0.6695 0.0272
C7 C 0.5339(10) 0.546(2) 0.0931(5)
H12 H 0.5221 0.4406 0.078
H13 H 0.6459 0.574 0.0948
C8 C 0.5109(10) 0.526(2) 0.1411(4)
H14 H 0.511 0.6309 0.1562
H15 H 0.6036 0.4695 0.1583
N2 N 0.3690(7) 0.4418(10) 0.1527(3)
H16 H 0.3705 0.4397 0.1858
H17 H 0.3687 0.3422 0.1411
H18 H 0.2815 0.4924 0.1382
Pb1 Pb -0.00882(3) 0.49567(4) 0.252250(10)
Br1 Br 0.26416(8) 0.72011(10) 0.23712(3)
Br2 Br 0.07458(10) 0.54325(12) 0.35862(3)
Br3 Br -0.20682(9) 0.79233(12) 0.23597(4)
Cu1 Cu -0.02255(8) 0.44786(11) 0.04489(3)
Br4 Br -0.04860(8) 0.39437(10) 0.14014(3)
Cu1B Cu 0.02255(8) 0.55214(11) -0.04489(3)
Br1C Br 0.23584(8) 0.22011(10) 0.26288(3)
Br3C Br -0.29318(9) 0.29233(12) 0.26403(4)
Pb1C Pb 0.50882(3) 0.99567(4) 0.247750(10)
Pb1C_2 Pb -0.49118(3) 0.99567(4) 0.247750(10)
O3B O -0.2285(5) 0.3637(7) 0.0113(2)
O4B O 0.0810(6) 0.2492(7) 0.0284(2)
loop_
_geom_bond_atom_site_label_1
_geom_bond_atom_site_label_2
_geom_bond_site_symmetry_1
_geom_bond_site_symmetry_2
O1 C1 1_555 1_555
O2 C2 1_555 1_555
O3 C1 1_555 1_555
O4 C2 1_555 1_555
C1 C6 1_555 1_555
C2 C4 1_555 1_555
C3 H1 1_555 1_555
H2 C3 1_555 1_555
C4 C3 1_555 1_555
H3 C4 1_555 1_555
H4 C4 1_555 1_555
C5 C3 1_555 1_555
H5 C5 1_555 1_555
H6 C5 1_555 1_555
N1 C5 1_555 1_555
H7 N1 1_555 1_555
H8 N1 1_555 1_555
H9 N1 1_555 1_555
C6 H10 1_555 1_555
H11 C6 1_555 1_555
C7 C6 1_555 1_555
H12 C7 1_555 1_555
H13 C7 1_555 1_555
C8 C7 1_555 1_555
H14 C8 1_555 1_555
H15 C8 1_555 1_555
N2 C8 1_555 1_555
H16 N2 1_555 1_555
H17 N2 1_555 1_555
H18 N2 1_555 1_555
Pb1 Br1 1_555 1_555
Br1 Pb1C 1_555 1_555
Br2 Pb1 1_555 1_555
Br3 Pb1 1_555 1_555
Cu1 O1 1_555 1_555
Br4 Pb1 1_555 1_555
Cu1B O3 1_555 1_555
Br1C Pb1 1_555 1_555
Br3C Pb1 1_555 1_555
Pb1C_2 Br3 1_555 1_555
O3B Cu1 1_555 1_555
O4B Cu1 1_555 1_555
O2 Cu1 1_555 1_555
O4 Cu1B 1_555 1_555
Cu1 Br4 1_555 1_555
Cu1 Cu1B 1_555 1_555

#END
