
#######################################################################
#
#                 Cambridge Crystallographic Data Centre
#                                CCDC 
#
#######################################################################
#
# If this CIF has been generated from an entry in the Cambridge 
# Structural Database, then it will include bibliographic, chemical, 
# crystal, experimental, refinement or atomic coordinate data resulting 
# from the CCDC's data processing and validation procedures.
#
#######################################################################

data_EXUWIE
_symmetry_cell_setting           monoclinic
_symmetry_space_group_name_H-M   'P 21/c'
_symmetry_Int_Tables_number      14
_space_group_name_Hall           '-P 2ybc'
loop_
_symmetry_equiv_pos_site_id
_symmetry_equiv_pos_as_xyz
1 x,y,z
2 -x,1/2+y,1/2-z
3 -x,-y,-z
4 x,1/2-y,1/2+z
_cell_length_a                   12.4992(10)
_cell_length_b                   11.0546(9)
_cell_length_c                   19.0210(15)
_cell_angle_alpha                90
_cell_angle_beta                 105.0770(10)
_cell_angle_gamma                90
_cell_volume                     2537.73
loop_
_atom_site_label
_atom_site_type_symbol
_atom_site_fract_x
_atom_site_fract_y
_atom_site_fract_z
Cd1 Cd -1.04205(3) -0.14159(4) 0.12753(2)
O1 O -0.4903(4) -0.7420(4) -0.0464(3)
O3 O -0.5615(5) -0.5059(6) 0.2727(3)
O5 O -1.0905(4) -0.2077(4) 0.2406(3)
O7 O -1.1762(3) -0.2917(4) 0.1362(2)
O9 O -1.0769(3) -0.4825(4) 0.4059(2)
O11 O -1.0783(3) -0.5030(4) 0.2900(2)
O12 O -1.0807(4) -0.1968(5) 0.0052(3)
H1 H -1.088(8) -0.149(5) 0.041(3)
H2 H -1.073(8) -0.140(5) -0.027(3)
N1 N -0.8935(4) -0.2737(5) 0.1522(3)
N2 N -0.1881(4) -1.0057(5) 0.0918(3)
N3 N -0.4944(8) -0.6966(11) 0.0654(4)
N4 N -0.5867(7) -0.5860(8) 0.1630(4)
C1 C -0.4548(5) -0.7537(7) 0.0178(4)
C2 C -0.3602(5) -0.8422(6) 0.0466(4)
C3 C -0.3778(7) -0.9539(9) 0.0733(5)
H3 H -0.4492 -0.9755 0.0779
C4 C -0.2901(6) -1.0348(8) 0.0935(5)
H4 H -0.3038 -1.1137 0.1090
C5 C -0.2563(5) -0.8139(6) 0.0404(5)
H5 H -0.2418 -0.7381 0.0213
C6 C -0.1732(5) -0.8984(7) 0.0629(5)
H6 H -0.1016 -0.8795 0.0576
C7 C -0.7987(5) -0.2466(6) 0.1344(5)
H7 H -0.7941 -0.1721 0.1105
C8 C -0.7078(5) -0.3232(7) 0.1495(4)
H8 H -0.6428 -0.3019 0.1352
C9 C -0.8085(6) -0.4601(7) 0.2047(5)
H9 H -0.8141 -0.5337 0.2294
C10 C -0.7126(5) -0.4305(6) 0.1854(4)
C11 C -0.5941(11) -0.6179(16) 0.0418(5)
H10 H -0.5720 -0.5433 0.0204
H11 H -0.6487 -0.6604 0.0025
C12 C -0.6370(12) -0.5904(17) 0.0846(7)
H12 H -0.7021 -0.6445 0.0778
H13 H -0.6669 -0.5083 0.0707
C13 C -0.4884(9) -0.6635(12) 0.1860(5)
H14 H -0.4351 -0.6218 0.2263
H15 H -0.5113 -0.7387 0.2064
C14 C -0.6131(5) -0.5121(7) 0.2112(5)
C15 C -1.2031(6) -0.3606(7) 0.3200(4)
H16 H -1.2666 -0.3879 0.3380
H17 H -1.1747 -0.2849 0.3460
C16 C -1.1133(5) -0.4553(6) 0.3394(3)
C17 C -1.2443(5) -0.3330(6) 0.2402(3)
C18 C -1.3480(6) -0.3483(7) 0.2039(4)
H18 H -1.4004 -0.3779 0.2280
H19 H -1.3708 -0.3298 0.1534
C19 C -1.1647(4) -0.2752(5) 0.2028(4)
C20 C -0.8963(6) -0.3795(6) 0.1871(5)
H20 H -0.9623 -0.3999 0.2003
C21 C -0.4421(16) -0.691(2) 0.1442(6)
H21 H -0.4106 -0.7720 0.1587
H22 H -0.3785 -0.6348 0.1508
Cd1A Cd -0.95795(3) -0.64159(4) 0.37247(2)
Cd1_2 Cd -0.04205(3) -1.14159(4) 0.12753(2)
O9A O -0.9231(3) 0.0175(4) 0.0941(2)
O11A O -0.9217(3) -0.0030(4) 0.2100(2)
N2_2 N -1.1881(4) -0.0057(5) 0.0918(3)
O2 O -0.8078(8) -0.0207(9) 0.4198(9)
O4 O -0.8570(12) -0.1624(9) 0.3179(6)
O8 O -0.4061(14) -0.9345(14) -0.1175(8)
O10 O -0.313(3) -0.127(3) -0.040(2)
O6? O -1.011(3) -0.0677(13) 0.4936(10)
O13? O -1.0034(11) -0.1483(10) 0.4038(8)
loop_
_geom_bond_atom_site_label_1
_geom_bond_atom_site_label_2
_geom_bond_site_symmetry_1
_geom_bond_site_symmetry_2
Cd1 O5 1_555 1_555
O1 C1 1_555 1_555
O3 C14 1_555 1_555
O5 C19 1_555 1_555
O7 Cd1 1_555 1_555
O9 C16 1_555 1_555
O11 C16 1_555 1_555
O12 Cd1 1_555 1_555
H1 O12 1_555 1_555
H2 O12 1_555 1_555
N1 Cd1 1_555 1_555
N2 C4 1_555 1_555
N3 C1 1_555 1_555
N4 C12 1_555 1_555
C1 C2 1_555 1_555
C2 C3 1_555 1_555
C3 H3 1_555 1_555
C4 C3 1_555 1_555
H4 C4 1_555 1_555
C5 C2 1_555 1_555
H5 C5 1_555 1_555
C6 N2 1_555 1_555
H6 C6 1_555 1_555
C7 N1 1_555 1_555
H7 C7 1_555 1_555
C8 C7 1_555 1_555
H8 C8 1_555 1_555
C9 H9 1_555 1_555
C10 C8 1_555 1_555
C11 N3 1_555 1_555
H10 C11 1_555 1_555
H11 C11 1_555 1_555
C12 C11 1_555 1_555
H12 C12 1_555 1_555
H13 C12 1_555 1_555
C13 N4 1_555 1_555
H14 C13 1_555 1_555
H15 C13 1_555 1_555
C14 N4 1_555 1_555
C15 H16 1_555 1_555
H17 C15 1_555 1_555
C16 C15 1_555 1_555
C17 C15 1_555 1_555
C18 C17 1_555 1_555
H18 C18 1_555 1_555
H19 C18 1_555 1_555
C19 O7 1_555 1_555
C20 N1 1_555 1_555
H20 C20 1_555 1_555
C21 N3 1_555 1_555
H21 C21 1_555 1_555
H22 C21 1_555 1_555
Cd1A O9 1_555 1_555
Cd1_2 N2 1_555 1_555
O9A Cd1 1_555 1_555
O11A Cd1 1_555 1_555
N2_2 Cd1 1_555 1_555
O11 Cd1A 1_555 1_555
C5 C6 1_555 1_555
C9 C10 1_555 1_555
C9 C20 1_555 1_555
C10 C14 1_555 1_555
C13 C21 1_555 1_555
C17 C19 1_555 1_555

#END
