
#######################################################################
#
#                 Cambridge Crystallographic Data Centre
#                                CCDC 
#
#######################################################################
#
# If this CIF has been generated from an entry in the Cambridge 
# Structural Database, then it will include bibliographic, chemical, 
# crystal, experimental, refinement or atomic coordinate data resulting 
# from the CCDC's data processing and validation procedures.
#
#######################################################################

data_EXUXEB
_symmetry_cell_setting           triclinic
_symmetry_space_group_name_H-M   'P -1'
_symmetry_Int_Tables_number      2
_space_group_name_Hall           '-P 1'
loop_
_symmetry_equiv_pos_site_id
_symmetry_equiv_pos_as_xyz
1 x,y,z
2 -x,-y,-z
_cell_length_a                   8.443(3)
_cell_length_b                   18.534(6)
_cell_length_c                   18.600(7)
_cell_angle_alpha                61.227(8)
_cell_angle_beta                 85.828(15)
_cell_angle_gamma                77.912(13)
_cell_volume                     2493.31
loop_
_atom_site_label
_atom_site_type_symbol
_atom_site_fract_x
_atom_site_fract_y
_atom_site_fract_z
Zn1 Zn 1.22608(7) 0.52973(3) 0.40839(3)
Zn2 Zn 1.16788(7) -0.51424(3) 0.74056(3)
C1 C 1.0088(5) 0.0501(3) 0.6814(3)
C2 C 1.1368(6) -0.0444(3) 0.6459(3)
C3 C 0.8731(6) -0.0346(3) 0.6679(3)
C4 C 1.1797(6) 0.1667(3) 0.6696(3)
C5 C 1.1686(5) 0.2498(3) 0.6099(3)
H1 H 1.0682 0.2824 0.5858
C6 C 1.3070(6) 0.2847(3) 0.5857(3)
C7 C 1.4578(6) 0.2348(3) 0.6194(3)
H2 H 1.5509 0.2574 0.6036
C8 C 1.4679(6) 0.1507(3) 0.6770(3)
H3 H 1.5691 0.1167 0.6977
C9 C 1.3317(6) 0.1170(3) 0.7039(3)
H4 H 1.3402 0.0615 0.7446
C10 C 1.2929(6) 0.3753(3) 0.5246(3)
C11 C 1.2873(5) -0.1705(3) 0.6073(3)
C12 C 1.3454(6) -0.2538(3) 0.6626(3)
H5 H 1.3952 -0.2673 0.7117
C13 C 1.3307(6) -0.3177(3) 0.6462(3)
C14 C 1.2564(7) -0.2980(3) 0.5739(4)
H6 H 1.2456 -0.3405 0.5627
C15 C 1.1972(8) -0.2141(4) 0.5174(4)
H7 H 1.1474 -0.2009 0.4684
C16 C 1.2123(7) -0.1507(3) 0.5338(3)
H8 H 1.1726 -0.0950 0.4960
C17 C 1.3920(6) -0.4068(3) 0.7100(4)
C18 C 0.7393(5) -0.1406(3) 0.6385(3)
C19 C 0.8254(6) -0.2204(3) 0.6919(3)
H9 H 0.8610 -0.2320 0.7432
C20 C 0.8578(5) -0.2820(3) 0.6684(3)
C21 C 0.8017(7) -0.2646(3) 0.5914(3)
H10 H 0.8206 -0.3063 0.5757
C22 C 0.7178(7) -0.1845(3) 0.5390(3)
H11 H 0.6809 -0.1725 0.4877
C23 C 0.6883(6) -0.1226(3) 0.5616(3)
H12 H 0.6344 -0.0688 0.5253
C24 C 0.9551(6) -0.3652(3) 0.7233(3)
C25 C 0.3467(5) 0.9428(3) 0.1181(3)
C26 C 0.1303(6) 1.0443(3) 0.0980(3)
C27 C 0.3780(5) 1.0633(3) 0.1067(3)
C28 C 0.6265(6) 0.8157(3) 0.1490(3)
C29 C 0.6893(6) 0.7361(3) 0.2117(3)
H13 H 0.6216 0.6987 0.2416
C30 C 0.8559(5) 0.7131(3) 0.2290(3)
C31 C 0.9562(6) 0.7698(3) 0.1836(3)
H14 H 1.0665 0.7553 0.1969
C32 C 0.8928(6) 0.8471(3) 0.1193(3)
H15 H 0.9606 0.8838 0.0877
C33 C 0.7264(6) 0.8702(3) 0.1015(3)
H16 H 0.6830 0.9222 0.0578
C34 C 0.9275(6) 0.6308(3) 0.3009(3)
C35 C -0.1197(5) 1.1795(3) 0.0691(3)
C36 C -0.1846(6) 1.2426(3) -0.0065(3)
H17 H -0.1965 1.2307 -0.0487
C37 C -0.2322(7) 1.3246(3) -0.0186(3)
C38 C -0.2135(8) 1.3421(3) 0.0439(4)
H18 H -0.2468 1.3967 0.0357
C39 C -0.1452(8) 1.2788(4) 0.1186(4)
H19 H -0.1300 1.2909 0.1603
C40 C -0.0992(7) 1.1969(4) 0.1313(3)
H20 H -0.0546 1.1540 0.1819
C41 C -0.3059(8) 1.3910(3) -0.0997(4)
C42 C 0.4148(6) 1.2205(3) 0.0867(3)
C43 C 0.3341(6) 1.2784(3) 0.0112(3)
H21 H 0.3232 1.2631 -0.0287
C44 C 0.2705(7) 1.3600(3) -0.0019(3)
C45 C 0.2867(7) 1.3821(3) 0.0575(3)
H22 H 0.2410 1.4362 0.0482
C46 C 0.3699(8) 1.3252(4) 0.1309(4)
H23 H 0.3840 1.3412 0.1700
C47 C 0.4317(7) 1.2439(3) 0.1452(3)
H24 H 0.4853 1.2046 0.1949
C48 C 0.1936(7) 1.4251(3) -0.0825(3)
N1 N 1.1493(4) 0.0185(2) 0.6596(3)
N2 N 1.0054(5) -0.0732(2) 0.6460(3)
N3 N 0.8684(5) 0.0252(2) 0.6894(2)
N4 N 0.1862(5) 0.9675(2) 0.1068(3)
N5 N 0.2197(5) 1.0960(2) 0.0970(2)
N6 N 0.4499(5) 0.9869(2) 0.1175(3)
O1 O 1.1605(4) 0.4148(2) 0.4815(2)
O2 O 1.1645(5) 0.5644(2) 0.5015(2)
O3 O 1.4306(5) 0.5795(3) 0.3693(3)
H25 H 1.349(5) 0.626(3) 0.371(3)
H26 H 1.514(6) 0.574(5) 0.407(4)
O4 O 1.4065(5) 0.4119(2) 0.5143(2)
O5 O 1.2719(4) 0.4924(2) 0.3181(2)
O6 O 1.4713(7) -0.4201(3) 0.7690(3)
O7 O 1.3529(5) -0.4651(2) 0.6980(3)
O8 O 0.9729(4) -0.4243(2) 0.7036(2)
O9 O 1.0191(6) -0.3753(2) 0.7862(3)
O10 O 0.8582(4) 0.5689(2) 0.3233(2)
O11 O 1.0520(4) 0.6269(2) 0.3358(2)
O12 O -0.2970(7) 1.3819(3) -0.1607(3)
O13 O -0.3821(7) 1.4600(3) -0.0992(3)
H27 H -0.4239 1.4935 -0.1447
O14 O 0.1943(5) 1.4098(2) -0.1410(2)
O15 O 0.1326(7) 1.4969(3) -0.0876(3)
S1 S 0.99472(16) 0.13266(7) 0.70449(8)
S2 S 1.32697(15) -0.09108(8) 0.62582(9)
S3 S 0.68733(15) -0.06177(8) 0.66958(9)
S4 S 0.41226(15) 0.83963(8) 0.13039(9)
S5 S -0.08032(14) 1.07348(7) 0.08685(9)
S6 S 0.52226(14) 1.11996(8) 0.10382(9)
Zn2A Zn 0.83212(7) 0.51424(3) 0.25944(3)
Zn2_2 Zn 0.16788(7) 1.48576(3) -0.25944(3)
O10A O 1.1418(4) -0.5689(2) 0.6767(2)
O14_2 O 1.1943(5) -0.5902(2) 0.8590(2)
loop_
_geom_bond_atom_site_label_1
_geom_bond_atom_site_label_2
_geom_bond_site_symmetry_1
_geom_bond_site_symmetry_2
Zn1 O1 1_555 1_555
Zn2 O7 1_555 1_555
C1 N1 1_555 1_555
C2 N1 1_555 1_555
C3 N2 1_555 1_555
C4 C5 1_555 1_555
C5 H1 1_555 1_555
C6 C5 1_555 1_555
C7 C6 1_555 1_555
H2 C7 1_555 1_555
C8 C7 1_555 1_555
H3 C8 1_555 1_555
C9 C4 1_555 1_555
H4 C9 1_555 1_555
C10 C6 1_555 1_555
C11 C12 1_555 1_555
C12 H5 1_555 1_555
C13 C12 1_555 1_555
C14 C13 1_555 1_555
H6 C14 1_555 1_555
C15 C14 1_555 1_555
H7 C15 1_555 1_555
C16 C11 1_555 1_555
H8 C16 1_555 1_555
C17 C13 1_555 1_555
C18 C19 1_555 1_555
C19 H9 1_555 1_555
C20 C19 1_555 1_555
C21 C20 1_555 1_555
H10 C21 1_555 1_555
C22 C21 1_555 1_555
H11 C22 1_555 1_555
C23 C18 1_555 1_555
H12 C23 1_555 1_555
C24 C20 1_555 1_555
C25 N4 1_555 1_555
C26 N4 1_555 1_555
C27 N5 1_555 1_555
C28 C29 1_555 1_555
C29 H13 1_555 1_555
C30 C29 1_555 1_555
C31 C30 1_555 1_555
H14 C31 1_555 1_555
C32 C31 1_555 1_555
H15 C32 1_555 1_555
C33 C28 1_555 1_555
H16 C33 1_555 1_555
C34 C30 1_555 1_555
C35 C36 1_555 1_555
C36 H17 1_555 1_555
C37 C36 1_555 1_555
C38 C37 1_555 1_555
H18 C38 1_555 1_555
C39 C38 1_555 1_555
H19 C39 1_555 1_555
C40 C35 1_555 1_555
H20 C40 1_555 1_555
C41 C37 1_555 1_555
C42 C43 1_555 1_555
C43 H21 1_555 1_555
C44 C43 1_555 1_555
C45 C44 1_555 1_555
H22 C45 1_555 1_555
C46 C45 1_555 1_555
H23 C46 1_555 1_555
C47 C42 1_555 1_555
H24 C47 1_555 1_555
C48 C44 1_555 1_555
N2 C2 1_555 1_555
N3 C1 1_555 1_555
N5 C26 1_555 1_555
N6 C25 1_555 1_555
O1 C10 1_555 1_555
O2 Zn1 1_555 1_555
O3 Zn1 1_555 1_555
H25 O3 1_555 1_555
H26 O3 1_555 1_555
O4 Zn1 1_555 1_555
O5 Zn1 1_555 1_555
O6 C17 1_555 1_555
O7 C17 1_555 1_555
O8 Zn2 1_555 1_555
O9 C24 1_555 1_555
O10 C34 1_555 1_555
O11 Zn1 1_555 1_555
O12 C41 1_555 1_555
O13 C41 1_555 1_555
H27 O13 1_555 1_555
O14 C48 1_555 1_555
O15 C48 1_555 1_555
S1 C1 1_555 1_555
S2 C2 1_555 1_555
S3 C3 1_555 1_555
S4 C25 1_555 1_555
S5 C26 1_555 1_555
S6 C27 1_555 1_555
Zn2A O10 1_555 1_555
Zn2_2 O14 1_555 1_555
O10A Zn2 1_555 1_555
O14_2 Zn2 1_555 1_555
C3 N3 1_555 1_555
C4 S1 1_555 1_555
C8 C9 1_555 1_555
C10 O4 1_555 1_555
C11 S2 1_555 1_555
C15 C16 1_555 1_555
C18 S3 1_555 1_555
C22 C23 1_555 1_555
C24 O8 1_555 1_555
C27 N6 1_555 1_555
C28 S4 1_555 1_555
C32 C33 1_555 1_555
C34 O11 1_555 1_555
C35 S5 1_555 1_555
C39 C40 1_555 1_555
C42 S6 1_555 1_555
C46 C47 1_555 1_555

#END
