
#######################################################################
#
#                 Cambridge Crystallographic Data Centre
#                                CCDC 
#
#######################################################################
#
# If this CIF has been generated from an entry in the Cambridge 
# Structural Database, then it will include bibliographic, chemical, 
# crystal, experimental, refinement or atomic coordinate data resulting 
# from the CCDC's data processing and validation procedures.
#
#######################################################################

data_EYAJOE
_symmetry_cell_setting           triclinic
_symmetry_space_group_name_H-M   'P -1'
_symmetry_Int_Tables_number      2
_space_group_name_Hall           '-P 1'
loop_
_symmetry_equiv_pos_site_id
_symmetry_equiv_pos_as_xyz
1 x,y,z
2 -x,-y,-z
_cell_length_a                   14.0110(12)
_cell_length_b                   18.3229(12)
_cell_length_c                   19.6363(12)
_cell_angle_alpha                113.803(3)
_cell_angle_beta                 90.833(3)
_cell_angle_gamma                110.290(3)
_cell_volume                     4255.4
loop_
_atom_site_label
_atom_site_type_symbol
_atom_site_fract_x
_atom_site_fract_y
_atom_site_fract_z
C1 C 0.7786(3) 0.4545(3) 0.4296(3)
H1 H 0.7113 0.4145 0.4200
C2 C 0.8566(3) 0.4464(3) 0.4669(3)
H2 H 0.8409 0.4021 0.4819
C3 C 0.9573(3) 0.5041(2) 0.4817(2)
C4 C 0.9728(3) 0.5686(3) 0.4595(3)
H3 H 1.0391 0.6099 0.4688
C5 C 0.8905(3) 0.5728(3) 0.4232(3)
H4 H 0.9035 0.6180 0.4097
C6 C 0.4560(3) 0.4407(3) 0.2453(3)
H5 H 0.4458 0.3988 0.2628
C7 C 0.3745(3) 0.4331(3) 0.2001(2)
H6 H 0.3114 0.3870 0.1878
C8 C 0.3852(3) 0.4938(2) 0.1725(2)
C9 C 0.4832(3) 0.5596(3) 0.1925(2)
H7 H 0.4957 0.6021 0.1756
C10 C 0.5619(3) 0.5614(3) 0.2374(2)
H8 H 0.6270 0.6048 0.2483
C11 C 0.2984(3) 0.4909(2) 0.1273(2)
C12 C 0.2000(3) 0.4286(3) 0.1114(3)
H9 H 0.1879 0.3854 0.1275
C13 C 0.1194(3) 0.4307(3) 0.0717(3)
H10 H 0.0537 0.3887 0.0626
C14 C 0.2258(3) 0.5482(3) 0.0595(2)
H11 H 0.2359 0.5894 0.0412
C15 C 0.3095(3) 0.5512(3) 0.0994(2)
H12 H 0.3743 0.5941 0.1077
Co1 Co 0.67359(4) 0.51268(3) 0.33717(3)
Co2 Co 0.0000 0.5000 0.0000
N1 N 0.7947(2) 0.5160(2) 0.40701(18)
N2 N 0.5499(2) 0.5048(2) 0.26581(18)
N3 N 0.1304(2) 0.4889(2) 0.04578(18)
O1 O 0.5648(2) 0.48870(18) 0.40889(16)
O2 O 0.6401(2) 0.38281(18) 0.27199(17)
O3 O 0.7822(2) 0.5407(2) 0.26773(17)
O4 O 0.7115(2) 0.64481(17) 0.39799(17)
O5 O -0.0827(2) 0.4822(2) 0.08486(17)
O6 O -0.0583(2) 0.36504(18) -0.06571(18)
C1A C 1.2214(3) 0.5455(3) 0.5704(3)
H1A H 1.2887 0.5855 0.5800
C2A C 1.1434(3) 0.5536(3) 0.5331(3)
H2A H 1.1591 0.5979 0.5181
C3A C 1.0427(3) 0.4959(2) 0.5183(2)
C4A C 1.0272(3) 0.4314(3) 0.5405(3)
H3A H 0.9609 0.3901 0.5312
C5A C 1.1095(3) 0.4272(3) 0.5768(3)
H4A H 1.0965 0.3820 0.5903
C6A C -0.4560(3) 0.5593(3) -0.2453(3)
H5A H -0.4458 0.6012 -0.2628
C7A C -0.3745(3) 0.5669(3) -0.2001(2)
H6A H -0.3114 0.6130 -0.1878
C8A C -0.3852(3) 0.5062(2) -0.1725(2)
C9A C -0.4832(3) 0.4404(3) -0.1925(2)
H7A H -0.4957 0.3979 -0.1756
C10A C -0.5619(3) 0.4386(3) -0.2374(2)
H8A H -0.6270 0.3952 -0.2483
C11A C -0.2984(3) 0.5091(2) -0.1273(2)
C12A C -0.2000(3) 0.5714(3) -0.1114(3)
H9A H -0.1879 0.6146 -0.1275
C13A C -0.1194(3) 0.5693(3) -0.0717(3)
H10A H -0.0537 0.6113 -0.0626
C14A C -0.2258(3) 0.4518(3) -0.0595(2)
H11A H -0.2359 0.4106 -0.0412
C15A C -0.3095(3) 0.4488(3) -0.0994(2)
H12A H -0.3743 0.4059 -0.1077
Co1A Co -0.67359(4) 0.48732(3) -0.33717(3)
Co1A_2 Co 1.32641(4) 0.48732(3) 0.66283(3)
N1A N 1.2053(2) 0.4840(2) 0.59299(18)
N1A_2 N -0.7947(2) 0.4840(2) -0.40701(18)
N2A N -0.5499(2) 0.4952(2) -0.26581(18)
N3A N -0.1304(2) 0.5111(2) -0.04578(18)
O1A O -0.5648(2) 0.51130(18) -0.40889(16)
O2A O -0.6401(2) 0.61719(18) -0.27199(17)
O3A O -0.7822(2) 0.4593(2) -0.26773(17)
O4A O -0.7115(2) 0.35519(17) -0.39799(17)
O5A O 0.0827(2) 0.5178(2) -0.08486(17)
O6A O 0.0583(2) 0.63496(18) 0.06571(18)
C16 C -0.2748(3) 0.0605(2) 0.5755(2)
H13 H -0.2085 0.1005 0.5821
C17 C -0.3558(3) 0.0603(2) 0.5340(2)
H14 H -0.3429 0.1003 0.5141
C18 C -0.4560(2) 0.0011(2) 0.52184(18)
C19 C -0.4686(3) -0.0565(2) 0.5538(2)
H15 H -0.5339 -0.0976 0.5475
C20 C -0.3848(3) -0.0526(2) 0.5945(2)
H16 H -0.3958 -0.0921 0.6148
C21 C -0.0509(3) -0.0664(3) 0.7439(2)
H17 H -0.1171 -0.1080 0.7340
C22 C 0.0285(3) -0.0707(3) 0.7827(2)
H18 H 0.0149 -0.1143 0.7985
C23 C 0.1281(3) -0.0106(2) 0.79803(19)
C24 C 0.1422(3) 0.0512(3) 0.7715(2)
H19 H 0.2080 0.0923 0.7790
C25 C 0.0589(3) 0.0521(3) 0.7342(2)
H20 H 0.0705 0.0952 0.7181
C26 C 0.2147(3) -0.0111(2) 0.84105(19)
C27 C 0.2053(3) -0.0782(3) 0.8595(2)
H21 H 0.1437 -0.1266 0.8425
C28 C 0.2872(3) -0.0736(3) 0.9029(2)
H22 H 0.2790 -0.1201 0.9138
C29 C 0.3871(3) 0.0575(3) 0.9116(2)
H23 H 0.4500 0.1047 0.9287
C30 C 0.3092(3) 0.0578(3) 0.8682(2)
H24 H 0.3203 0.1046 0.8572
Co3 Co -0.16249(3) 0.00088(3) 0.66416(3)
Co4 Co 0.5000 0.0000 1.0000
N4 N -0.2883(2) 0.00490(19) 0.60661(16)
N5 N -0.0373(2) -0.0057(2) 0.71983(17)
N6 N 0.3775(2) -0.0060(2) 0.93018(17)
O7 O -0.2089(2) -0.13393(17) 0.59663(16)
O8 O -0.2584(2) -0.02082(19) 0.74218(16)
O9 O -0.1143(2) 0.13635(18) 0.73324(17)
O10 O -0.0653(2) 0.0248(2) 0.58807(16)
O11 O 0.5279(2) 0.12962(19) 1.06898(17)
O12 O 0.6130(2) 0.0356(2) 0.93637(17)
C16A C -0.7252(3) -0.0605(2) 0.4245(2)
H13A H -0.7915 -0.1005 0.4179
C17A C -0.6442(3) -0.0603(2) 0.4660(2)
H14A H -0.6571 -0.1003 0.4859
C18A C -0.5440(2) -0.0011(2) 0.47816(18)
C19A C -0.5314(3) 0.0565(2) 0.4462(2)
H15A H -0.4661 0.0976 0.4525
C20A C -0.6152(3) 0.0526(2) 0.4055(2)
H16A H -0.6042 0.0921 0.3852
C21A C 1.0509(3) 0.0664(3) 1.2561(2)
H17A H 1.1171 0.1080 1.2660
C22A C 0.9715(3) 0.0707(3) 1.2173(2)
H18A H 0.9851 0.1143 1.2015
C23A C 0.8719(3) 0.0106(2) 1.20197(19)
C24A C 0.8578(3) -0.0512(3) 1.2285(2)
H19A H 0.7920 -0.0923 1.2210
C25A C 0.9411(3) -0.0521(3) 1.2658(2)
H20A H 0.9295 -0.0952 1.2819
C26A C 0.7853(3) 0.0111(2) 1.15895(19)
C27A C 0.7947(3) 0.0782(3) 1.1405(2)
H21A H 0.8563 0.1266 1.1575
C28A C 0.7128(3) 0.0736(3) 1.0971(2)
H22A H 0.7210 0.1201 1.0862
C29A C 0.6129(3) -0.0575(3) 1.0884(2)
H23A H 0.5500 -0.1047 1.0713
C30A C 0.6908(3) -0.0578(3) 1.1318(2)
H24A H 0.6797 -0.1046 1.1428
Co3A Co 1.16249(3) -0.00088(3) 1.33584(3)
Co3A_2 Co -0.83751(3) -0.00088(3) 0.33584(3)
N4A N -0.7117(2) -0.00490(19) 0.39339(16)
N4A_2 N 1.2883(2) -0.00490(19) 1.39339(16)
N5A N 1.0373(2) 0.0057(2) 1.28017(17)
N6A N 0.6225(2) 0.0060(2) 1.06982(17)
O7A O 1.2089(2) 0.13393(17) 1.40337(16)
O8A O 1.2584(2) 0.02082(19) 1.25782(16)
O9A O 1.1143(2) -0.13635(18) 1.26676(17)
O10A O 1.0653(2) -0.0248(2) 1.41193(16)
O11A O 0.4721(2) -0.12962(19) 0.93102(17)
O12A O 0.3870(2) -0.0356(2) 1.06363(17)
C31 C 0.5808(4) 0.1113(4) 0.2653(3)
H25 H 0.5533 0.1523 0.2964
H26 H 0.5281 0.0541 0.2454
H27 H 0.6038 0.1246 0.2243
C32 C 0.6701(3) 0.1160(3) 0.3117(2)
C33 C 0.6655(3) 0.0487(3) 0.3276(2)
H28 H 0.6057 -0.0014 0.3084
C34 C 0.7477(3) 0.0533(3) 0.3713(2)
H29 H 0.7427 0.0066 0.3810
C35 C 0.8364(3) 0.1267(3) 0.4002(2)
C36 C 0.8441(3) 0.1954(3) 0.3849(2)
H30 H 0.9040 0.2453 0.4042
C37 C 0.7607(3) 0.1889(3) 0.3402(2)
H31 H 0.7662 0.2348 0.3291
O13 O 0.9387(2) 0.1962(2) 0.53640(16)
O14 O 0.9225(2) 0.0515(2) 0.45382(18)
O15 O 1.0347(2) 0.1726(2) 0.43356(17)
S1 S 0.94198(8) 0.13742(8) 0.46025(6)
C38 C -0.0776(4) 0.1719(3) -0.0198(3)
H32 H -0.0466 0.2136 -0.0391
H33 H -0.1191 0.1922 0.0161
H34 H -0.1205 0.1178 -0.0608
C39 C 0.0050(3) 0.1601(3) 0.0180(3)
C40 C 0.0405(4) 0.0961(3) -0.0214(2)
H35 H 0.0114 0.0594 -0.0721
C41 C 0.1176(4) 0.0854(3) 0.0122(3)
H36 H 0.1403 0.0420 -0.0157
C42 C 0.1621(3) 0.1389(3) 0.0878(2)
C43 C 0.1279(3) 0.2024(3) 0.1275(2)
H37 H 0.1571 0.2392 0.1781
C44 C 0.0504(3) 0.2120(3) 0.0930(3)
H38 H 0.0275 0.2553 0.1213
O16 O 0.2432(3) 0.0359(3) 0.0982(4)
O17 O 0.2700(3) 0.1637(4) 0.2082(3)
O18 O 0.3580(2) 0.1714(3) 0.1083(2)
S2 S 0.26515(10) 0.12677(10) 0.12867(9)
C45 C 0.2643(4) 0.3704(4) 0.3947(3)
H39 H 0.2794 0.3219 0.3619
H40 H 0.2447 0.3634 0.4390
H41 H 0.3246 0.4226 0.4093
C46 C 0.1772(3) 0.3755(3) 0.3539(2)
C47 C 0.0780(4) 0.3115(3) 0.3315(2)
H42 H 0.0648 0.2649 0.3431
C48 C -0.0008(3) 0.3156(3) 0.2926(2)
H43 H -0.0660 0.2713 0.2774
C49 C 0.0156(3) 0.3840(3) 0.2761(2)
C50 C 0.1121(3) 0.4489(3) 0.2989(3)
H44 H 0.1240 0.4965 0.2889
C51 C 0.1919(4) 0.4436(3) 0.3370(3)
H45 H 0.2573 0.4876 0.3513
O19 O -0.0666(3) 0.4774(3) 0.2486(3)
O20 O -0.0869(4) 0.3449(4) 0.1483(2)
O21 O -0.1807(2) 0.3481(2) 0.2480(2)
S3 S -0.08710(9) 0.38819(8) 0.22592(6)
C52 C 0.1613(4) 0.6767(3) 0.3041(3)
H46 H 0.0995 0.6686 0.3254
H47 H 0.1485 0.6290 0.2554
H48 H 0.1818 0.7295 0.2985
C53 C 0.2462(4) 0.6817(3) 0.3555(3)
C54 C 0.2497(3) 0.7134(3) 0.4325(3)
H49 H 0.1984 0.7322 0.4532
C55 C 0.3274(3) 0.7179(3) 0.4794(3)
H50 H 0.3276 0.7395 0.5312
C56 C 0.4052(3) 0.6910(2) 0.4511(2)
C57 C 0.4028(3) 0.6586(3) 0.3732(2)
H51 H 0.4538 0.6395 0.3526
C58 C 0.3253(4) 0.6550(3) 0.3269(3)
H52 H 0.3254 0.6343 0.2752
O22 O 0.4799(2) 0.60435(19) 0.49577(19)
O23 O 0.4962(3) 0.7474(2) 0.58723(17)
O24 O 0.6013(2) 0.73183(19) 0.48949(17)
S4 S 0.50311(9) 0.69365(7) 0.51068(7)
C59 C 0.5051(4) 0.6713(3) -0.0500(3)
H53 H 0.4571 0.6878 -0.0188
H54 H 0.4701 0.6140 -0.0897
H55 H 0.5326 0.7110 -0.0718
C60 C 0.5919(3) 0.6730(3) -0.0027(2)
C61 C 0.5734(3) 0.6131(3) 0.0262(2)
H56 H 0.5071 0.5713 0.0151
C62 C 0.6499(3) 0.6134(3) 0.0708(2)
H57 H 0.6354 0.5708 0.0878
C63 C 0.7488(3) 0.6768(2) 0.0907(2)
C64 C 0.7687(3) 0.7365(3) 0.0614(2)
H58 H 0.8349 0.7787 0.0730
C65 C 0.6913(3) 0.7343(3) 0.0152(2)
H59 H 0.7065 0.7749 -0.0042
O28 O 0.8191(3) 0.5966(2) 0.14681(18)
O29 O 0.8232(3) 0.7363(2) 0.22999(17)
O30 O 0.9416(2) 0.7252(2) 0.14213(19)
S5 S 0.84103(9) 0.68426(7) 0.15737(6)
C66 C 0.6712(4) 0.8175(3) 0.3522(3)
H60 H 0.6481 0.7669 0.3611
H61 H 0.6899 0.8682 0.3995
H62 H 0.7302 0.8197 0.3276
C67 C 0.5862(3) 0.8141(2) 0.3028(2)
C68 C 0.5831(3) 0.7879(2) 0.2255(2)
H63 H 0.6351 0.7713 0.2037
C69 C 0.5051(3) 0.7860(2) 0.1804(2)
H64 H 0.5049 0.7679 0.1288
C70 C 0.4263(3) 0.8111(2) 0.2117(2)
C71 C 0.4294(3) 0.8371(3) 0.2888(2)
H65 H 0.3782 0.8545 0.3112
C72 C 0.5065(3) 0.8373(3) 0.3320(2)
H66 H 0.5054 0.8538 0.3833
O25 O 0.3351(3) 0.7675(3) 0.07989(19)
O26 O 0.3525(3) 0.9032(2) 0.1764(2)
O27 O 0.2327(2) 0.7734(2) 0.1766(2)
S6 S 0.32893(8) 0.81330(7) 0.15704(6)
O31 O 0.6994(2) 0.2546(2) 0.0683(2)
O32 O 0.1256(3) 0.2480(3) 0.6263(2)
O33 O 0.4673(3) 0.2800(3) 0.2903(2)
loop_
_geom_bond_atom_site_label_1
_geom_bond_atom_site_label_2
_geom_bond_site_symmetry_1
_geom_bond_site_symmetry_2
C1 H1 1_555 1_555
C2 C1 1_555 1_555
H2 C2 1_555 1_555
C3 C2 1_555 1_555
C4 C3 1_555 1_555
H3 C4 1_555 1_555
C5 C4 1_555 1_555
H4 C5 1_555 1_555
C6 H5 1_555 1_555
C7 C6 1_555 1_555
H6 C7 1_555 1_555
C8 C7 1_555 1_555
C9 C8 1_555 1_555
H7 C9 1_555 1_555
C10 C9 1_555 1_555
H8 C10 1_555 1_555
C11 C8 1_555 1_555
C12 C11 1_555 1_555
H9 C12 1_555 1_555
C13 C12 1_555 1_555
H10 C13 1_555 1_555
C14 H11 1_555 1_555
C15 C11 1_555 1_555
H12 C15 1_555 1_555
C16 H13 1_555 1_555
C17 C16 1_555 1_555
H14 C17 1_555 1_555
C18 C17 1_555 1_555
C19 C18 1_555 1_555
H15 C19 1_555 1_555
C20 C19 1_555 1_555
H16 C20 1_555 1_555
C21 H17 1_555 1_555
C22 C21 1_555 1_555
H18 C22 1_555 1_555
C23 C22 1_555 1_555
C24 C23 1_555 1_555
H19 C24 1_555 1_555
C25 C24 1_555 1_555
H20 C25 1_555 1_555
C26 C23 1_555 1_555
C27 C26 1_555 1_555
H21 C27 1_555 1_555
C28 C27 1_555 1_555
H22 C28 1_555 1_555
C29 H23 1_555 1_555
C30 C26 1_555 1_555
H24 C30 1_555 1_555
C31 H25 1_555 1_555
H26 C31 1_555 1_555
H27 C31 1_555 1_555
C32 C31 1_555 1_555
C33 C32 1_555 1_555
H28 C33 1_555 1_555
C34 C33 1_555 1_555
H29 C34 1_555 1_555
C35 C34 1_555 1_555
C36 C35 1_555 1_555
H30 C36 1_555 1_555
C37 C32 1_555 1_555
H31 C37 1_555 1_555
C38 H32 1_555 1_555
H33 C38 1_555 1_555
H34 C38 1_555 1_555
C39 C38 1_555 1_555
C40 C39 1_555 1_555
H35 C40 1_555 1_555
C41 C40 1_555 1_555
H36 C41 1_555 1_555
C42 C41 1_555 1_555
C43 C42 1_555 1_555
H37 C43 1_555 1_555
C44 C39 1_555 1_555
H38 C44 1_555 1_555
C45 H39 1_555 1_555
H40 C45 1_555 1_555
H41 C45 1_555 1_555
C46 C45 1_555 1_555
C47 C46 1_555 1_555
H42 C47 1_555 1_555
C48 C47 1_555 1_555
H43 C48 1_555 1_555
C49 C48 1_555 1_555
C50 C49 1_555 1_555
H44 C50 1_555 1_555
C51 C46 1_555 1_555
H45 C51 1_555 1_555
C52 H46 1_555 1_555
H47 C52 1_555 1_555
H48 C52 1_555 1_555
C53 C52 1_555 1_555
C54 C53 1_555 1_555
H49 C54 1_555 1_555
C55 C54 1_555 1_555
H50 C55 1_555 1_555
C56 C55 1_555 1_555
C57 C56 1_555 1_555
H51 C57 1_555 1_555
C58 C53 1_555 1_555
H52 C58 1_555 1_555
C59 H53 1_555 1_555
H54 C59 1_555 1_555
H55 C59 1_555 1_555
C60 C59 1_555 1_555
C61 C60 1_555 1_555
H56 C61 1_555 1_555
C62 C61 1_555 1_555
H57 C62 1_555 1_555
C63 C62 1_555 1_555
C64 C63 1_555 1_555
H58 C64 1_555 1_555
C65 C60 1_555 1_555
H59 C65 1_555 1_555
C66 H60 1_555 1_555
H61 C66 1_555 1_555
H62 C66 1_555 1_555
C67 C66 1_555 1_555
C68 C67 1_555 1_555
H63 C68 1_555 1_555
C69 C68 1_555 1_555
H64 C69 1_555 1_555
C70 C69 1_555 1_555
C71 C70 1_555 1_555
H65 C71 1_555 1_555
C72 C67 1_555 1_555
H66 C72 1_555 1_555
Co1 N1 1_555 1_555
Co2 N3 1_555 1_555
Co3 N4 1_555 1_555
Co4 N6 1_555 1_555
N1 C1 1_555 1_555
N2 C6 1_555 1_555
N3 C13 1_555 1_555
N4 C16 1_555 1_555
N5 C21 1_555 1_555
N6 C28 1_555 1_555
O1 Co1 1_555 1_555
O2 Co1 1_555 1_555
O3 Co1 1_555 1_555
O4 Co1 1_555 1_555
O5 Co2 1_555 1_555
O6 Co2 1_555 1_555
O7 Co3 1_555 1_555
O8 Co3 1_555 1_555
O9 Co3 1_555 1_555
O10 Co3 1_555 1_555
O11 Co4 1_555 1_555
O12 Co4 1_555 1_555
O13 S1 1_555 1_555
O14 S1 1_555 1_555
O15 S1 1_555 1_555
O16 S2 1_555 1_555
O17 S2 1_555 1_555
O18 S2 1_555 1_555
O19 S3 1_555 1_555
O20 S3 1_555 1_555
O21 S3 1_555 1_555
O22 S4 1_555 1_555
O23 S4 1_555 1_555
O24 S4 1_555 1_555
O25 S6 1_555 1_555
O26 S6 1_555 1_555
O27 S6 1_555 1_555
O28 S5 1_555 1_555
O29 S5 1_555 1_555
O30 S5 1_555 1_555
S1 C35 1_555 1_555
S2 C42 1_555 1_555
S3 C49 1_555 1_555
S4 C56 1_555 1_555
S5 C63 1_555 1_555
S6 C70 1_555 1_555
C1A H1A 1_555 1_555
C2A C1A 1_555 1_555
H2A C2A 1_555 1_555
C3A C3 1_555 1_555
C4A C3A 1_555 1_555
H3A C4A 1_555 1_555
C5A C4A 1_555 1_555
H4A C5A 1_555 1_555
C6A H5A 1_555 1_555
C7A C6A 1_555 1_555
H6A C7A 1_555 1_555
C8A C7A 1_555 1_555
C9A C8A 1_555 1_555
H7A C9A 1_555 1_555
C10A C9A 1_555 1_555
H8A C10A 1_555 1_555
C11A C8A 1_555 1_555
C12A C11A 1_555 1_555
H9A C12A 1_555 1_555
C13A C12A 1_555 1_555
H10A C13A 1_555 1_555
C14A H11A 1_555 1_555
C15A C11A 1_555 1_555
H12A C15A 1_555 1_555
C16A H13A 1_555 1_555
C17A C16A 1_555 1_555
H14A C17A 1_555 1_555
C18A C18 1_555 1_555
C19A C18A 1_555 1_555
H15A C19A 1_555 1_555
C20A C19A 1_555 1_555
H16A C20A 1_555 1_555
C21A H17A 1_555 1_555
C22A C21A 1_555 1_555
H18A C22A 1_555 1_555
C23A C22A 1_555 1_555
C24A C23A 1_555 1_555
H19A C24A 1_555 1_555
C25A C24A 1_555 1_555
H20A C25A 1_555 1_555
C26A C23A 1_555 1_555
C27A C26A 1_555 1_555
H21A C27A 1_555 1_555
C28A C27A 1_555 1_555
H22A C28A 1_555 1_555
C29A H23A 1_555 1_555
C30A C26A 1_555 1_555
H24A C30A 1_555 1_555
Co1A N1A_2 1_555 1_555
Co1A_2 N1A 1_555 1_555
Co3A N4A_2 1_555 1_555
Co3A_2 N4A 1_555 1_555
N1A C1A 1_555 1_555
N2A C6A 1_555 1_555
N3A Co2 1_555 1_555
N4A C16A 1_555 1_555
N5A C21A 1_555 1_555
N6A Co4 1_555 1_555
O1A Co1A 1_555 1_555
O2A Co1A 1_555 1_555
O3A Co1A 1_555 1_555
O4A Co1A 1_555 1_555
O5A Co2 1_555 1_555
O6A Co2 1_555 1_555
O7A Co3A 1_555 1_555
O8A Co3A 1_555 1_555
O9A Co3A 1_555 1_555
O10A Co3A 1_555 1_555
O11A Co4 1_555 1_555
O12A Co4 1_555 1_555
C5 N1 1_555 1_555
C10 N2 1_555 1_555
C14 C15 1_555 1_555
C14 N3 1_555 1_555
C20 N4 1_555 1_555
C25 N5 1_555 1_555
C29 C30 1_555 1_555
C29 N6 1_555 1_555
C36 C37 1_555 1_555
C43 C44 1_555 1_555
C50 C51 1_555 1_555
C57 C58 1_555 1_555
C64 C65 1_555 1_555
C71 C72 1_555 1_555
Co1 N2 1_555 1_555
Co3 N5 1_555 1_555
C2A C3A 1_555 1_555
C5A N1A 1_555 1_555
C10A N2A 1_555 1_555
C13A N3A 1_555 1_555
C14A C15A 1_555 1_555
C14A N3A 1_555 1_555
C17A C18A 1_555 1_555
C20A N4A 1_555 1_555
C25A N5A 1_555 1_555
C28A N6A 1_555 1_555
C29A C30A 1_555 1_555
C29A N6A 1_555 1_555
Co1A N2A 1_555 1_555
Co3A N5A 1_555 1_555

#END
