
#######################################################################
#
#                 Cambridge Crystallographic Data Centre
#                                CCDC 
#
#######################################################################
#
# If this CIF has been generated from an entry in the Cambridge 
# Structural Database, then it will include bibliographic, chemical, 
# crystal, experimental, refinement or atomic coordinate data resulting 
# from the CCDC's data processing and validation procedures.
#
#######################################################################

data_EYAPOK
_symmetry_cell_setting           monoclinic
_symmetry_space_group_name_H-M   'P 21/c'
_symmetry_Int_Tables_number      14
_space_group_name_Hall           '-P 2ybc'
loop_
_symmetry_equiv_pos_site_id
_symmetry_equiv_pos_as_xyz
1 x,y,z
2 -x,1/2+y,1/2-z
3 -x,-y,-z
4 x,1/2-y,1/2+z
_cell_length_a                   19.277(4)
_cell_length_b                   8.3120(18)
_cell_length_c                   18.617(4)
_cell_angle_alpha                90
_cell_angle_beta                 105.493(4)
_cell_angle_gamma                90
_cell_volume                     2874.62
loop_
_atom_site_label
_atom_site_type_symbol
_atom_site_fract_x
_atom_site_fract_y
_atom_site_fract_z
Eu1 Eu 0.53288(3) 0.58566(7) 0.28624(3)
Eu2 Eu 0.01100(3) 0.00214(7) 0.22196(3)
O1 O 0.5295(4) 0.2738(9) 0.3116(4)
O2 O 0.5297(5) 0.4530(10) 0.3995(4)
O3 O 0.5029(4) 0.2250(10) 0.6408(4)
O4 O 0.5653(4) 0.0067(10) 0.6826(4)
O5 O 0.4107(4) 0.5138(9) 0.2567(4)
O6 O 0.3761(4) 0.2697(10) 0.2181(4)
O7 O 0.1243(4) 0.1224(9) 0.2209(4)
O8 O 0.0666(4) 0.2711(9) 0.2829(4)
O9 O 0.0592(4) -0.4194(10) 0.2011(4)
O10 O 0.0503(4) -0.1806(10) 0.1465(4)
O11 O 0.0492(4) -0.1572(10) -0.1217(4)
O12 O 0.0773(4) -0.3759(10) -0.1749(4)
O13 O 0.6570(5) 0.4721(15) 0.3410(7)
H1 H 0.6811 0.5094 0.3882
Br1 Br 0.69206(8) -0.2109(2) 0.48139(8)
Br2 Br 0.25840(7) 0.6881(2) 0.45011(9)
Br3 Br 0.13429(8) -0.85544(15) 0.02551(8)
C1 C 0.5379(6) 0.3117(14) 0.3803(6)
C2 C 0.5627(5) 0.1908(13) 0.4401(5)
C3 C 0.6056(5) 0.0606(14) 0.4329(6)
H2 H 0.6174 0.0438 0.3882
C4 C 0.6303(5) -0.0417(13) 0.4906(6)
C5 C 0.6127(5) -0.0243(13) 0.5575(6)
H3 H 0.6304 -0.0956 0.5966
C6 C 0.5685(5) 0.1010(13) 0.5648(5)
C7 C 0.5448(6) 0.2118(14) 0.5081(6)
H4 H 0.5172 0.2995 0.5148
C8 C 0.5441(5) 0.1119(14) 0.6352(6)
C9 C 0.3694(5) 0.3983(13) 0.2508(6)
C10 C 0.3066(5) 0.4173(13) 0.2853(6)
C11 C 0.3098(6) 0.5280(14) 0.3414(6)
H5 H 0.3502 0.5925 0.3586
C12 C 0.2529(6) 0.5408(14) 0.3706(6)
C13 C 0.1951(6) 0.4504(14) 0.3476(6)
H6 H 0.1570 0.4633 0.3688
C14 C 0.1904(5) 0.3376(14) 0.2927(6)
C15 C 0.2465(5) 0.3167(13) 0.2592(6)
H7 H 0.2443 0.2409 0.2220
C16 C 0.1247(5) 0.2383(13) 0.2649(6)
C17 C 0.0630(5) -0.3260(14) 0.1485(6)
C18 C 0.0805(5) -0.4014(13) 0.0827(6)
C19 C 0.1007(5) -0.5624(13) 0.0852(6)
H8 H 0.1055 -0.6212 0.1288
C20 C 0.1136(6) -0.6355(13) 0.0231(6)
C21 C 0.1071(6) -0.5463(14) -0.0420(6)
H9 H 0.1163 -0.5945 -0.0835
C22 C 0.0871(5) -0.3861(13) -0.0445(6)
C23 C 0.0733(5) -0.3123(13) 0.0173(5)
H10 H 0.0595 -0.2049 0.0152
C24 C 0.0703(5) -0.3010(14) -0.1183(6)
C25 C 0.6938(7) 0.361(2) 0.3096(10)
H11 H 0.6831 0.3932 0.2577
H12 H 0.6677 0.2615 0.3098
C26 C 0.7664(7) 0.313(2) 0.3271(10)
H13 H 0.7952 0.3891 0.3613
H14 H 0.7821 0.3100 0.2824
H15 H 0.7712 0.2086 0.3496
Eu1A Eu 0.46712(3) 0.08566(7) 0.21376(3)
Eu1B Eu 0.46712(3) 0.41434(7) 0.71376(3)
Eu1C Eu 0.53288(3) -0.08566(7) 0.78624(3)
Eu2B Eu -0.01100(3) -0.00214(7) -0.22196(3)
Eu2A Eu -0.01100(3) -0.49786(7) 0.27804(3)
Eu2A_2 Eu -0.01100(3) 0.50214(7) 0.27804(3)
Eu2C Eu 0.01100(3) -0.50214(7) -0.27804(3)
O1A O 0.4705(4) 0.7738(9) 0.1884(4)
O3B O 0.4971(4) 0.7750(10) 0.3592(4)
O4C O 0.5653(4) 0.4933(10) 0.1826(4)
O6A O 0.6239(4) 0.7697(10) 0.2819(4)
O8A O -0.0666(4) -0.2289(9) 0.2171(4)
O9A O -0.0592(4) 0.0806(10) 0.2989(4)
O11B O -0.0492(4) 0.1572(10) 0.1217(4)
O12C O 0.0773(4) -0.1241(10) 0.3251(4)
loop_
_geom_bond_atom_site_label_1
_geom_bond_atom_site_label_2
_geom_bond_site_symmetry_1
_geom_bond_site_symmetry_2
Eu1 O1 1_555 1_555
Eu2 O7 1_555 1_555
O1 C1 1_555 1_555
O2 Eu1 1_555 1_555
O3 C8 1_555 1_555
O4 C8 1_555 1_555
O5 Eu1 1_555 1_555
O6 C9 1_555 1_555
O7 C16 1_555 1_555
O8 Eu2 1_555 1_555
O9 C17 1_555 1_555
O10 Eu2 1_555 1_555
O11 C24 1_555 1_555
O12 C24 1_555 1_555
O13 Eu1 1_555 1_555
H1 O13 1_555 1_555
Br1 C4 1_555 1_555
Br2 C12 1_555 1_555
Br3 C20 1_555 1_555
C1 O2 1_555 1_555
C2 C1 1_555 1_555
C3 C2 1_555 1_555
H2 C3 1_555 1_555
C4 C3 1_555 1_555
C5 C4 1_555 1_555
H3 C5 1_555 1_555
C6 C5 1_555 1_555
C7 C2 1_555 1_555
H4 C7 1_555 1_555
C8 C6 1_555 1_555
C9 O5 1_555 1_555
C10 C9 1_555 1_555
C11 C10 1_555 1_555
H5 C11 1_555 1_555
C12 C11 1_555 1_555
C13 C12 1_555 1_555
H6 C13 1_555 1_555
C14 C13 1_555 1_555
C15 C10 1_555 1_555
H7 C15 1_555 1_555
C16 O8 1_555 1_555
C17 O10 1_555 1_555
C18 C17 1_555 1_555
C19 C18 1_555 1_555
H8 C19 1_555 1_555
C20 C19 1_555 1_555
C21 C20 1_555 1_555
H9 C21 1_555 1_555
C22 C21 1_555 1_555
C23 C18 1_555 1_555
H10 C23 1_555 1_555
C24 C22 1_555 1_555
C25 O13 1_555 1_555
H11 C25 1_555 1_555
H12 C25 1_555 1_555
C26 C25 1_555 1_555
H13 C26 1_555 1_555
H14 C26 1_555 1_555
H15 C26 1_555 1_555
Eu1A O1 1_555 1_555
Eu1B O3 1_555 1_555
Eu1C O4 1_555 1_555
Eu2B O11 1_555 1_555
Eu2A O9 1_555 1_555
Eu2A_2 O8 1_555 1_555
Eu2C O12 1_555 1_555
O1A Eu1 1_555 1_555
O3B Eu1 1_555 1_555
O4C Eu1 1_555 1_555
O6A Eu1 1_555 1_555
O8A Eu2 1_555 1_555
O9A Eu2 1_555 1_555
O11B Eu2 1_555 1_555
O12C Eu2 1_555 1_555
O6 Eu1A 1_555 1_555
C6 C7 1_555 1_555
C14 C15 1_555 1_555
C14 C16 1_555 1_555
C22 C23 1_555 1_555
Eu2A O8A 1_555 1_555

#END
