
#######################################################################
#
#                 Cambridge Crystallographic Data Centre
#                                CCDC 
#
#######################################################################
#
# If this CIF has been generated from an entry in the Cambridge 
# Structural Database, then it will include bibliographic, chemical, 
# crystal, experimental, refinement or atomic coordinate data resulting 
# from the CCDC's data processing and validation procedures.
#
#######################################################################

data_EYEGUK
_symmetry_cell_setting           monoclinic
_symmetry_space_group_name_H-M   'P 21/n'
_symmetry_Int_Tables_number      14
_space_group_name_Hall           '-P 2yn'
loop_
_symmetry_equiv_pos_site_id
_symmetry_equiv_pos_as_xyz
1 x,y,z
2 1/2+x,1/2-y,1/2+z
3 -x,-y,-z
4 1/2-x,1/2+y,1/2-z
_cell_length_a                   14.2356(10)
_cell_length_b                   9.5229(12)
_cell_length_c                   14.5542(16)
_cell_angle_alpha                90
_cell_angle_beta                 109.870(7)
_cell_angle_gamma                90
_cell_volume                     1855.57
loop_
_atom_site_label
_atom_site_type_symbol
_atom_site_fract_x
_atom_site_fract_y
_atom_site_fract_z
Cu1 Cu 0.68989(5) 0.42201(7) 0.80033(4)
O1 O 0.8043(3) 0.4771(4) 0.7646(3)
O2 O 0.7517(3) 0.6861(4) 0.6984(3)
N1 N 0.7498(4) 0.9764(5) 0.5604(3)
N2 N 0.9227(3) 0.8537(5) 0.6558(3)
N3 N 0.9048(3) 0.8791(5) 0.8318(3)
C1 C 0.6532(5) 1.0117(6) 0.5128(4)
H1 H 0.6088 1.0145 0.5471
C2 C 0.6199(6) 1.0433(7) 0.4152(5)
H2 H 0.5541 1.0721 0.3848
C3 C 0.6822(7) 1.0328(8) 0.3619(5)
H3 H 0.6591 1.0504 0.2951
C4 C 0.7818(7) 0.9948(8) 0.4106(5)
H4 H 0.8264 0.9872 0.3766
C5 C 0.8130(5) 0.9687(6) 0.5101(4)
C6 C 0.9191(5) 0.9411(6) 0.5707(4)
H5 H 0.9526 0.8928 0.5318
H6 H 0.9534 1.0293 0.5929
C7 C 1.0180(4) 0.8733(7) 0.7398(5)
H7 H 1.0445 0.9665 0.7370
H8 H 1.0671 0.8051 0.7358
C8 C 0.9988(4) 0.8552(6) 0.8350(4)
C9 C 1.0736(4) 0.8222(6) 0.9213(5)
H9 H 1.1387 0.8075 0.9229
C10 C 1.0494(5) 0.8115(6) 1.0050(5)
H10 H 1.0984 0.7881 1.0639
C11 C 0.9537(5) 0.8353(6) 1.0014(4)
H11 H 0.9369 0.8289 1.0577
C12 C 0.8836(4) 0.8684(6) 0.9148(4)
H12 H 0.8184 0.8843 0.9126
C13 C 0.8125(4) 0.5885(6) 0.7211(3)
C14 C 0.9075(4) 0.5954(6) 0.6960(4)
H13 H 0.9630 0.6140 0.7555
H14 H 0.9187 0.5039 0.6722
C15 C 0.9088(4) 0.7039(6) 0.6211(4)
H15 H 0.9620 0.6804 0.5963
H16 H 0.8463 0.6975 0.5668
O2C O 0.7483(3) 0.1861(4) 0.8016(3)
N1C N 0.7502(4) 0.4764(5) 0.9396(3)
N2C N 0.5773(3) 0.3537(5) 0.8442(3)
N3C N 0.5952(3) 0.3791(5) 0.6682(3)
Cu1C Cu 0.81011(5) 0.92201(7) 0.69967(4)
Cl1 Cl 0.70841(15) -0.0693(3) 1.10682(15)
O3 O 0.8001(7) -0.1138(11) 1.1731(8)
O4 O 0.6407(8) -0.1387(15) 1.1283(10)
O5 O 0.7067(7) 0.0788(9) 1.1283(7)
O6 O 0.7098(8) -0.0923(12) 1.0151(6)
O7 O 0.5842(4) 0.6724(6) 0.7629(4)
H17 H 0.5868 0.7204 0.8217
H18 H 0.6273 0.7039 0.7293
O8 O 0.5089(5) 0.2171(7) 0.1039(5)
loop_
_geom_bond_atom_site_label_1
_geom_bond_atom_site_label_2
_geom_bond_site_symmetry_1
_geom_bond_site_symmetry_2
Cu1 O1 1_555 1_555
Cl1 O3 1_555 1_555
O1 C13 1_555 1_555
O2 C13 1_555 1_555
O4 Cl1 1_555 1_555
O5 Cl1 1_555 1_555
O6 Cl1 1_555 1_555
N1 C1 1_555 1_555
N2 C6 1_555 1_555
N3 C8 1_555 1_555
C1 H1 1_555 1_555
C2 C1 1_555 1_555
H2 C2 1_555 1_555
C3 C2 1_555 1_555
H3 C3 1_555 1_555
C4 C3 1_555 1_555
H4 C4 1_555 1_555
C5 N1 1_555 1_555
C6 C5 1_555 1_555
H5 C6 1_555 1_555
H6 C6 1_555 1_555
C7 N2 1_555 1_555
H7 C7 1_555 1_555
H8 C7 1_555 1_555
C8 C7 1_555 1_555
C9 C8 1_555 1_555
H9 C9 1_555 1_555
C10 C9 1_555 1_555
H10 C10 1_555 1_555
C11 C10 1_555 1_555
H11 C11 1_555 1_555
C12 N3 1_555 1_555
H12 C12 1_555 1_555
C13 C14 1_555 1_555
C14 H13 1_555 1_555
H14 C14 1_555 1_555
C15 N2 1_555 1_555
H15 C15 1_555 1_555
H16 C15 1_555 1_555
O7 H17 1_555 1_555
H18 O7 1_555 1_555
O2C Cu1 1_555 1_555
N1C Cu1 1_555 1_555
N2C Cu1 1_555 1_555
N3C Cu1 1_555 1_555
Cu1C O2 1_555 1_555
N1 Cu1C 1_555 1_555
N2 Cu1C 1_555 1_555
N3 Cu1C 1_555 1_555
C4 C5 1_555 1_555
C11 C12 1_555 1_555
C14 C15 1_555 1_555

#END
