
#######################################################################
#
#                 Cambridge Crystallographic Data Centre
#                                CCDC 
#
#######################################################################
#
# If this CIF has been generated from an entry in the Cambridge 
# Structural Database, then it will include bibliographic, chemical, 
# crystal, experimental, refinement or atomic coordinate data resulting 
# from the CCDC's data processing and validation procedures.
#
#######################################################################

data_EYEKUO
_symmetry_cell_setting           monoclinic
_symmetry_space_group_name_H-M   'P 21/c'
_symmetry_Int_Tables_number      14
_space_group_name_Hall           '-P 2ybc'
loop_
_symmetry_equiv_pos_site_id
_symmetry_equiv_pos_as_xyz
1 x,y,z
2 -x,1/2+y,1/2-z
3 -x,-y,-z
4 x,1/2-y,1/2+z
_cell_length_a                   8.0194(2)
_cell_length_b                   8.6486(1)
_cell_length_c                   23.3306(4)
_cell_angle_alpha                90
_cell_angle_beta                 92.059(1)
_cell_angle_gamma                90
_cell_volume                     1617.09
loop_
_atom_site_label
_atom_site_type_symbol
_atom_site_fract_x
_atom_site_fract_y
_atom_site_fract_z
Mn1 Mn 0.45079(3) 0.08448(3) 0.16806(1)
N1 N 0.3938(2) 0.1324(2) 0.07448(7)
N2 N 0.3391(2) -0.1324(2) 0.12931(7)
O1 O 0.73131(2) 0.0389(2) 0.14470(7)
O2 O 0.62935(2) -0.05236(2) 0.22353(7)
O3 O 0.7058(2) -0.3943(2) 0.24846(9)
O4 O 0.8064(2) -0.2849(2) 0.32586(8)
O5 O 0.5464(2) 0.30589(2) 0.19329(8)
C1 C 0.7483(2) -0.0380(2) 0.18985(9)
C2 C 0.9128(3) -0.1121(3) 0.20375(2)
H1 H 1.0050 -0.0733 0.1855
C3 C 0.9384(2) -0.2273(3) 0.23957(2)
H2 H 1.0475 -0.2627 0.2446
C4 C 0.8073(2) -0.3069(2) 0.27304(1)
C5 C 0.4262(3) 0.2660(3) 0.04889(1)
H3 H 0.4905 0.3388 0.0690
C6 C 0.3692(4) 0.3018(3) -0.00593(2)
H4 H 0.3932 0.3969 -0.0223
C7 C 0.2765(3) 0.1936(3) -0.03560(1)
H5 H 0.2376 0.2137 -0.0729
C8 C 0.2413(3) 0.0548(3) -0.00984(1)
H6 H 0.1769 -0.0192 -0.0292
C9 C 0.3032(2) 0.0270(2) 0.04536(8)
C10 C 0.2742(2) -0.1224(2) 0.07570(9)
C11 C 0.1873(3) -0.2446(3) 0.04999(1)
H7 H 0.1412 -0.2351 0.0130
C12 C 0.1709(3) -0.3803(3) 0.08045(2)
H8 H 0.1122 -0.4630 0.0642
C13 C 0.2414(4) -0.3927(3) 0.13480(2)
H9 H 0.2339 -0.4841 0.1555
C14 C 0.3233(3) -0.2665(3) 0.15763(1)
H10 H 0.3702 -0.2741 0.1946
H11 H 0.617(3) 0.371(4) 0.1737(2)
H12 H 0.484(4) 0.340(4) 0.2080(2)
O3A O 0.2942(2) 0.1057(2) 0.25154(9)
O4A O 0.1936(2) 0.2151(2) 0.17414(8)
Mn1A Mn 0.54921(3) -0.41552(3) 0.33194(1)
O6 O 0.0685(3) -0.2690(3) -0.09714(1)
H13 H 0.138(3) -0.209(4) -0.1089(2)
H14 H -0.024(3) -0.261(3) -0.1176(2)
O7 O 0.7246(3) 0.5112(3) 0.13128(1)
H15 H 0.815(4) 0.436(3) 0.1250(2)
H16 H 0.751(4) 0.542(3) 0.1633(2)
loop_
_geom_bond_atom_site_label_1
_geom_bond_atom_site_label_2
_geom_bond_site_symmetry_1
_geom_bond_site_symmetry_2
Mn1 N1 1_555 1_555
N1 C5 1_555 1_555
N2 Mn1 1_555 1_555
O1 Mn1 1_555 1_555
O2 Mn1 1_555 1_555
O3 C4 1_555 1_555
O4 C4 1_555 1_555
O5 Mn1 1_555 1_555
C1 O1 1_555 1_555
C2 C1 1_555 1_555
H1 C2 1_555 1_555
C3 C2 1_555 1_555
H2 C3 1_555 1_555
C4 C3 1_555 1_555
C5 H3 1_555 1_555
C6 C5 1_555 1_555
H4 C6 1_555 1_555
C7 C6 1_555 1_555
H5 C7 1_555 1_555
C8 C7 1_555 1_555
H6 C8 1_555 1_555
C9 N1 1_555 1_555
C10 N2 1_555 1_555
C11 C10 1_555 1_555
H7 C11 1_555 1_555
C12 C11 1_555 1_555
H8 C12 1_555 1_555
C13 C12 1_555 1_555
H9 C13 1_555 1_555
C14 N2 1_555 1_555
H10 C14 1_555 1_555
H11 O5 1_555 1_555
H12 O5 1_555 1_555
O6 H13 1_555 1_555
H14 O6 1_555 1_555
O7 H15 1_555 1_555
H16 O7 1_555 1_555
O3A Mn1 1_555 1_555
O4A Mn1 1_555 1_555
Mn1A O3 1_555 1_555
O2 C1 1_555 1_555
O4 Mn1A 1_555 1_555
C8 C9 1_555 1_555
C9 C10 1_555 1_555
C13 C14 1_555 1_555

#END
