
#######################################################################
#
#                 Cambridge Crystallographic Data Centre
#                                CCDC 
#
#######################################################################
#
# If this CIF has been generated from an entry in the Cambridge 
# Structural Database, then it will include bibliographic, chemical, 
# crystal, experimental, refinement or atomic coordinate data resulting 
# from the CCDC's data processing and validation procedures.
#
#######################################################################

data_EYEZIS
_symmetry_cell_setting           triclinic
_symmetry_space_group_name_H-M   'P -1'
_symmetry_Int_Tables_number      2
_space_group_name_Hall           '-P 1'
loop_
_symmetry_equiv_pos_site_id
_symmetry_equiv_pos_as_xyz
1 x,y,z
2 -x,-y,-z
_cell_length_a                   7.5643(15)
_cell_length_b                   10.894(2)
_cell_length_c                   13.438(3)
_cell_angle_alpha                73.83(3)
_cell_angle_beta                 85.32(3)
_cell_angle_gamma                78.26(3)
_cell_volume                     1040.94
loop_
_atom_site_label
_atom_site_type_symbol
_atom_site_fract_x
_atom_site_fract_y
_atom_site_fract_z
Cd1 Cd 1.02199(4) 1.08043(3) 0.856000(19)
Cd2 Cd 0.65012(4) 1.09679(3) 0.63342(2)
O1 O 0.5830(3) 0.9428(2) 0.7751(2)
O2 O 0.8270(4) 0.8672(2) 0.69374(19)
O3 O 0.8978(4) 0.9028(3) 0.9060(2)
O4 O 0.8114(5) 0.8272(3) 1.0693(2)
O5 O 0.6263(3) 0.8976(2) 0.4405(2)
O6 O 0.5430(3) 0.7134(2) 0.44841(19)
O7 O 0.8704(4) 0.7817(3) 0.29049(19)
O8 O 1.1194(3) 0.8406(3) 0.31108(19)
O9 O 0.5058(3) 0.7337(3) 0.66229(19)
O10 O 0.5841(4) 0.4937(3) 0.7066(2)
O11 O 0.8047(4) 1.0655(3) 0.4839(2)
H1 H 0.7378 1.1276 0.4422
H2 H 0.7617 1.0109 0.4632
O12 O 1.2629(4) 0.9107(3) 0.8661(2)
H3 H 1.3710 0.9206 0.8493
H4 H 1.2332 0.8546 0.8410
O13 O 0.7654(4) 1.1843(3) 0.9193(2)
H5 H 0.6710 1.1894 0.8869
H6 H 0.7285 1.1602 0.9819
C1 C 0.6985(4) 0.6129(3) 0.8248(2)
C2 C 0.7076(5) 0.4957(4) 0.9001(3)
H11 H 0.6880 0.4225 0.8832
C3 C 0.7459(5) 0.4882(4) 1.0005(3)
H12 H 0.7511 0.4101 1.0518
C4 C 0.7762(5) 0.5966(4) 1.0244(3)
H13 H 0.8006 0.5912 1.0924
C5 C 0.7712(5) 0.7140(3) 0.9493(3)
C6 C 0.7283(4) 0.7242(3) 0.8480(3)
C7 C 0.8343(4) 0.6244(3) 0.6191(2)
C8 C 0.8275(4) 0.7001(3) 0.5165(3)
C9 C 0.9902(4) 0.7025(3) 0.4592(2)
C10 C 1.1514(5) 0.6294(3) 0.5034(3)
H14 H 1.2590 0.6330 0.4648
C11 C 1.1533(5) 0.5517(4) 0.6038(3)
H15 H 1.2609 0.5003 0.6319
C12 C 0.9947(5) 0.5505(3) 0.6625(3)
H16 H 0.9957 0.5002 0.7310
C13 C 0.8295(5) 0.8254(4) 0.9767(3)
C14 C 0.7135(5) 0.8532(3) 0.7661(3)
C15 C 0.6534(5) 0.7754(3) 0.4658(2)
C16 C 0.9919(5) 0.7799(3) 0.3474(3)
S1 S 0.63497(12) 0.61649(9) 0.69869(6)
Cd1A Cd 0.97801(4) 0.91957(3) 1.144000(19)
Cd1A_2 Cd 0.97801(4) 0.91957(3) 0.144000(19)
Cd2A Cd 0.34988(4) 0.90321(3) 0.36658(2)
Cd2A_2 Cd 1.34988(4) 0.90321(3) 0.36658(2)
O4A O 1.1886(5) 1.1728(3) 0.9307(2)
O5A O 0.3737(3) 1.1024(2) 0.5595(2)
O6A O 0.4570(3) 1.2866(2) 0.55159(19)
O7A O 1.1296(4) 1.2183(3) 0.70951(19)
O8A O 0.8806(3) 1.1594(3) 0.68892(19)
O14 O 0.5026(4) 1.2263(3) 0.7804(2)
H7 H 0.4008 1.2314 0.8124
H8 H 0.4923 1.3002 0.7362
O15 O 0.1699(4) 0.7508(3) 0.7705(2)
H9 H 0.0614 0.7800 0.7515
H10 H 0.2520 0.7441 0.7241
loop_
_geom_bond_atom_site_label_1
_geom_bond_atom_site_label_2
_geom_bond_site_symmetry_1
_geom_bond_site_symmetry_2
Cd1 O3 1_555 1_555
Cd2 O1 1_555 1_555
O1 C14 1_555 1_555
O2 Cd2 1_555 1_555
O3 C13 1_555 1_555
O4 C13 1_555 1_555
O5 C15 1_555 1_555
O6 C15 1_555 1_555
O7 C16 1_555 1_555
O8 C16 1_555 1_555
O9 S1 1_555 1_555
O10 S1 1_555 1_555
O11 Cd2 1_555 1_555
H1 O11 1_555 1_555
H2 O11 1_555 1_555
O12 Cd1 1_555 1_555
H3 O12 1_555 1_555
H4 O12 1_555 1_555
O13 Cd1 1_555 1_555
H5 O13 1_555 1_555
H6 O13 1_555 1_555
O14 H7 1_555 1_555
H8 O14 1_555 1_555
O15 H9 1_555 1_555
H10 O15 1_555 1_555
C1 C2 1_555 1_555
C2 H11 1_555 1_555
C3 C2 1_555 1_555
H12 C3 1_555 1_555
C4 C3 1_555 1_555
H13 C4 1_555 1_555
C5 C4 1_555 1_555
C6 C1 1_555 1_555
C7 C8 1_555 1_555
C8 C9 1_555 1_555
C9 C10 1_555 1_555
C10 H14 1_555 1_555
C11 C10 1_555 1_555
H15 C11 1_555 1_555
C12 C7 1_555 1_555
H16 C12 1_555 1_555
C13 C5 1_555 1_555
C14 O2 1_555 1_555
C15 C8 1_555 1_555
C16 C9 1_555 1_555
S1 C1 1_555 1_555
Cd1A O4 1_555 1_555
Cd1A_2 O7 1_555 1_555
Cd2A O5 1_555 1_555
Cd2A_2 O8 1_555 1_555
O4A Cd1 1_555 1_555
O5A Cd2 1_555 1_555
O6A Cd2 1_555 1_555
O7A Cd1 1_555 1_555
O8A Cd1 1_555 1_555
Cd2 O8A 1_555 1_555
O6 Cd2A 1_555 1_555
O8 Cd1A_2 1_555 1_555
C5 C6 1_555 1_555
C6 C14 1_555 1_555
C7 S1 1_555 1_555
C11 C12 1_555 1_555

#END
