
#######################################################################
#
#                 Cambridge Crystallographic Data Centre
#                                CCDC 
#
#######################################################################
#
# If this CIF has been generated from an entry in the Cambridge 
# Structural Database, then it will include bibliographic, chemical, 
# crystal, experimental, refinement or atomic coordinate data resulting 
# from the CCDC's data processing and validation procedures.
#
#######################################################################

data_EYIMII
_symmetry_cell_setting           monoclinic
_symmetry_space_group_name_H-M   'P 21/c'
_symmetry_Int_Tables_number      14
_space_group_name_Hall           '-P 2ybc'
loop_
_symmetry_equiv_pos_site_id
_symmetry_equiv_pos_as_xyz
1 x,y,z
2 x,1/2-y,1/2+z
3 -x,-y,-z
4 -x,1/2+y,1/2-z
_cell_length_a                   6.9636(16)
_cell_length_b                   14.819(3)
_cell_length_c                   10.256(2)
_cell_angle_alpha                90
_cell_angle_beta                 96.702(5)
_cell_angle_gamma                90
_cell_volume                     1051.12
loop_
_atom_site_label
_atom_site_type_symbol
_atom_site_fract_x
_atom_site_fract_y
_atom_site_fract_z
Mn1 Mn 0.0000 0.0000 0.0000
N1 N 0.1244(2) 0.14032(10) -0.01270(16)
N2 N 0.3487(2) 0.24076(10) -0.04455(15)
N3 N 0.8648(2) 0.45944(10) -0.32108(14)
N4 N 0.6546(2) 0.40931(10) -0.19334(15)
N5 N -0.2775(2) 0.04100(13) -0.11625(16)
N6 N -0.3219(2) 0.07325(11) -0.21954(16)
N7 N -0.3730(3) 0.10376(17) -0.3224(2)
C1 C 0.1044(3) 0.21480(13) 0.0651(2)
H1 H 0.0104 0.2214 0.1218
C2 C 0.2414(3) 0.27703(13) 0.0471(2)
H2 H 0.2593 0.3328 0.0882
C3 C 0.2731(3) 0.15922(12) -0.07735(19)
H3 H 0.3197 0.1208 -0.1381
C4 C 0.9450(3) 0.46356(16) -0.19227(19)
H4 H 1.0688 0.4845 -0.1639
C5 C 0.8175(3) 0.43264(17) -0.1126(2)
H5 H 0.8367 0.4282 -0.0215
C6 C 0.6900(3) 0.42610(12) -0.31707(17)
H6 H 0.6019 0.4155 -0.3909
C7 C 0.5205(3) 0.27938(13) -0.0924(2)
H7 H 0.5642 0.2398 -0.1582
H8 H 0.6233 0.2841 -0.0203
C8 C 0.4780(3) 0.37185(13) -0.15148(19)
H9 H 0.3793 0.3672 -0.2261
H10 H 0.4303 0.4113 -0.0870
N1B N -0.1244(2) -0.14032(10) 0.01270(16)
N2B N -0.3487(2) -0.24076(10) 0.04455(15)
N3B N -0.8648(2) -0.45944(10) 0.32108(14)
N4B N -0.6546(2) -0.40931(10) 0.19334(15)
C1B C -0.1044(3) -0.21480(13) -0.0651(2)
H1B H -0.0104 -0.2214 -0.1218
C2B C -0.2414(3) -0.27703(13) -0.0471(2)
H2B H -0.2593 -0.3328 -0.0882
C3B C -0.2731(3) -0.15922(12) 0.07735(19)
H3B H -0.3197 -0.1208 0.1381
C4B C -0.9450(3) -0.46356(16) 0.19227(19)
H4B H -1.0688 -0.4845 0.1639
C5B C -0.8175(3) -0.43264(17) 0.1126(2)
H5B H -0.8367 -0.4282 0.0215
C6B C -0.6900(3) -0.42610(12) 0.31707(17)
H6B H -0.6019 -0.4155 0.3909
C7B C -0.5205(3) -0.27938(13) 0.0924(2)
H7B H -0.5642 -0.2398 0.1582
H8B H -0.6233 -0.2841 0.0203
C8B C -0.4780(3) -0.37185(13) 0.15148(19)
H9B H -0.3793 -0.3672 0.2261
H10B H -0.4303 -0.4113 0.0870
N5B N 0.2775(2) -0.04100(13) 0.11625(16)
N6B N 0.3219(2) -0.07325(11) 0.21954(16)
N7B N 0.3730(3) -0.10376(17) 0.3224(2)
N3A N -0.1352(2) 0.04056(10) 0.17892(14)
N3C N 0.1352(2) -0.04056(10) -0.17892(14)
Mn1A Mn 1.0000 0.5000 -0.5000
Mn1A_2 Mn -1.0000 -0.5000 0.5000
loop_
_geom_bond_atom_site_label_1
_geom_bond_atom_site_label_2
_geom_bond_site_symmetry_1
_geom_bond_site_symmetry_2
Mn1 N1 1_555 1_555
N1 C1 1_555 1_555
N2 C2 1_555 1_555
N3 C4 1_555 1_555
N4 C5 1_555 1_555
N5 Mn1 1_555 1_555
N6 N5 1_555 1_555
N7 N6 1_555 1_555
C1 H1 1_555 1_555
C2 C1 1_555 1_555
H2 C2 1_555 1_555
C3 N1 1_555 1_555
H3 C3 1_555 1_555
C4 H4 1_555 1_555
C5 C4 1_555 1_555
H5 C5 1_555 1_555
C6 N3 1_555 1_555
H6 C6 1_555 1_555
C7 N2 1_555 1_555
H7 C7 1_555 1_555
H8 C7 1_555 1_555
C8 N4 1_555 1_555
H9 C8 1_555 1_555
H10 C8 1_555 1_555
N1B Mn1 1_555 1_555
N2B C2B 1_555 1_555
N3B C4B 1_555 1_555
N4B C5B 1_555 1_555
C1B N1B 1_555 1_555
H1B C1B 1_555 1_555
C2B C1B 1_555 1_555
H2B C2B 1_555 1_555
C3B N1B 1_555 1_555
H3B C3B 1_555 1_555
C4B H4B 1_555 1_555
C5B C4B 1_555 1_555
H5B C5B 1_555 1_555
C6B N3B 1_555 1_555
H6B C6B 1_555 1_555
C7B N2B 1_555 1_555
H7B C7B 1_555 1_555
H8B C7B 1_555 1_555
C8B N4B 1_555 1_555
H9B C8B 1_555 1_555
H10B C8B 1_555 1_555
N5B Mn1 1_555 1_555
N6B N5B 1_555 1_555
N7B N6B 1_555 1_555
N3A Mn1 1_555 1_555
N3C Mn1 1_555 1_555
Mn1A N3 1_555 1_555
Mn1A_2 N3B 1_555 1_555
N2 C3 1_555 1_555
N4 C6 1_555 1_555
C7 C8 1_555 1_555
N2B C3B 1_555 1_555
N4B C6B 1_555 1_555
C7B C8B 1_555 1_555

#END
