
#######################################################################
#
#                 Cambridge Crystallographic Data Centre
#                                CCDC 
#
#######################################################################
#
# If this CIF has been generated from an entry in the Cambridge 
# Structural Database, then it will include bibliographic, chemical, 
# crystal, experimental, refinement or atomic coordinate data resulting 
# from the CCDC's data processing and validation procedures.
#
#######################################################################

data_EYIPIM
_symmetry_cell_setting           monoclinic
_symmetry_space_group_name_H-M   'P 21/n'
_symmetry_Int_Tables_number      14
_space_group_name_Hall           '-P 2yn'
loop_
_symmetry_equiv_pos_site_id
_symmetry_equiv_pos_as_xyz
1 x,y,z
2 1/2-x,1/2+y,1/2-z
3 -x,-y,-z
4 1/2+x,1/2-y,1/2+z
_cell_length_a                   13.344(5)
_cell_length_b                   27.333(5)
_cell_length_c                   15.719(5)
_cell_angle_alpha                90
_cell_angle_beta                 97.785(5)
_cell_angle_gamma                90
_cell_volume                     5680.37
loop_
_atom_site_label
_atom_site_type_symbol
_atom_site_fract_x
_atom_site_fract_y
_atom_site_fract_z
O5 O 0.4505(11) 0.1498(6) 0.3063(10)
O6 O 0.4100(13) 0.1329(7) 0.4689(11)
O7 O 0.6225(12) 0.1029(8) 0.2554(12)
Er1 Er 0.34287(3) 0.679298(19) -0.08240(3)
Er2 Er -0.36877(3) 0.690861(19) -0.34847(3)
Er3 Er 0.98734(3) 0.820486(19) -0.21126(3)
O8 O 0.5044(5) 0.7128(3) -0.1017(5)
O9 O 0.3571(6) 0.6693(3) -0.2275(5)
O10 O 0.8276(5) 0.7884(3) -0.1734(4)
O11 O 0.9341(6) 0.7578(3) -0.3106(5)
O12 O 0.1653(5) 0.6780(3) -0.1452(5)
O13 O -0.5300(5) 0.7226(3) -0.3258(5)
C9 C 0.6878(7) 0.8331(4) 0.0824(6)
O14 O -0.9309(5) 0.8495(3) -0.3274(5)
O15 O -0.3300(6) 0.7677(3) -0.2926(5)
O16 O -0.1964(6) 0.6839(3) -0.2819(5)
O17 O 0.8458(6) 0.8558(3) -0.3085(5)
O18 O 1.0353(5) 0.7524(3) -0.1205(5)
O19 O 0.2958(6) 0.7582(3) -0.1266(5)
O20 O -0.4723(6) 0.6352(3) -0.4310(5)
O21 O -0.2756(6) 0.6992(3) -0.4617(5)
C10 C 0.0622(8) 0.5552(4) -0.1834(7)
H6 H 0.1194 0.5377 -0.1609
O22 O 0.2462(6) 0.6931(3) 0.0307(5)
O23 O -0.3891(6) 0.6663(4) -0.2095(5)
O24 O 1.1326(6) 0.8505(4) -0.1185(6)
C11 C -0.0166(7) 0.6336(4) -0.2181(6)
H7 H -0.0141 0.6676 -0.2174
C12 C -0.7833(7) 0.8152(4) -0.3779(6)
C13 C -0.1107(8) 0.5570(4) -0.2537(7)
H8 H -0.1693 0.5408 -0.2772
C14 C -0.1066(7) 0.6079(4) -0.2553(6)
N2 N 0.6976(6) 0.8636(4) 0.1553(5)
H9 H 0.6535 0.8622 0.1904
H10 H 0.7476 0.8836 0.1647
C15 C -0.0252(8) 0.5297(4) -0.2162(7)
C16 C 0.6741(7) 0.7744(4) -0.0663(6)
H11 H 0.6688 0.7558 -0.1162
C17 C 0.7566(7) 0.8069(4) -0.0445(6)
C18 C 0.5142(7) 0.7367(4) -0.0337(6)
C19 C -0.8604(8) 0.8172(4) -0.3189(7)
O25 O 0.9810(7) 0.9096(4) -0.1904(7)
C20 C 0.7616(8) 0.8367(4) 0.0275(6)
H12 H 0.8142 0.8591 0.0393
C21 C 0.6111(7) 0.8003(4) 0.0622(6)
H13 H 0.5627 0.7971 0.0992
C22 C 0.0665(7) 0.6056(4) -0.1832(6)
C23 C -0.5418(7) 0.7475(4) -0.3948(7)
C24 C 0.1612(8) 0.6314(4) -0.1461(6)
C25 C 0.6022(7) 0.7713(4) -0.0113(7)
C26 C -0.7011(7) 0.7837(4) -0.3607(6)
H14 H -0.6948 0.7640 -0.3120
N3 N -0.0301(9) 0.4798(5) -0.2155(8)
H15 H -0.0845 0.4652 -0.2376
H16 H 0.0213 0.4630 -0.1930
C27 C -0.6300(7) 0.7817(4) -0.4150(6)
C28 C -0.7914(8) 0.8453(5) -0.4494(7)
H17 H -0.8467 0.8661 -0.4610
C29 C 0.8365(7) 0.8110(4) -0.1020(6)
C30 C -0.6385(8) 0.8120(4) -0.4863(7)
H18 H -0.5898 0.8101 -0.5233
O26 O -0.8593(5) 0.7852(3) -0.2591(5)
N4 N -0.7289(8) 0.8749(5) -0.5780(7)
H19 H -0.6860 0.8730 -0.6140
H20 H -0.7789 0.8949 -0.5869
C31 C -0.7173(9) 0.8449(5) -0.5041(8)
C32 C -0.1975(8) 0.6375(4) -0.2912(7)
O27 O -0.2753(5) 0.6159(3) -0.3276(5)
O28 O 0.2387(5) 0.6065(3) -0.1207(5)
O29 O 0.9138(5) 0.8364(3) -0.0796(5)
O30 O 0.4480(5) 0.7325(3) 0.0176(4)
O31 O -0.4749(5) 0.7448(3) -0.4458(5)
O32 O 0.3788(8) 0.6234(4) 0.0366(7)
O33 O 0.4511(9) 0.6054(5) -0.0682(8)
C33 C 0.445(3) 0.5357(16) 0.038(2)
C34 C 0.5000 0.5000 0.0000
C35 C 0.4336(16) 0.5884(9) 0.0053(14)
N5 N 0.629(3) 0.5334(17) -0.223(3)
H21 H 0.6171 0.5604 -0.2502
H22 H 0.6656 0.5112 -0.2416
C36 C 0.532(3) 0.5544(17) -0.112(3)
H23 H 0.5173 0.5842 -0.1392
C37 C 0.494(3) 0.5424(15) -0.034(2)
C38 C 0.395(3) 0.5272(19) 0.106(3)
H24 H 0.3536 0.5499 0.1283
C39 C 0.584(3) 0.5248(18) -0.141(3)
Er1B Er 0.65713(3) 0.320702(19) 0.08240(3)
Er2_2 Er 1.63123(3) 0.690861(19) -0.34847(3)
Er2B Er 1.36877(3) 0.309139(19) 0.34847(3)
Er3B Er 0.01266(3) 0.179514(19) 0.21126(3)
Er3_2 Er -1.01266(3) 0.820486(19) -0.21126(3)
O8B O 0.4956(5) 0.2872(3) 0.1017(5)
O9B O 0.6429(6) 0.3307(3) 0.2275(5)
O10B O 0.1724(5) 0.2116(3) 0.1734(4)
O11B O 0.0659(6) 0.2422(3) 0.3106(5)
O12B O 0.8347(5) 0.3220(3) 0.1452(5)
O13_2 O 1.4700(5) 0.7226(3) -0.3258(5)
C9B C 0.3122(7) 0.1669(4) -0.0824(6)
O14_2 O 1.0691(5) 0.8495(3) -0.3274(5)
O14B O -0.0691(5) 0.1505(3) 0.3274(5)
O15_2 O 1.6700(6) 0.7677(3) -0.2926(5)
O16B O 1.1964(6) 0.3161(3) 0.2819(5)
O16_2 O 1.8036(6) 0.6839(3) -0.2819(5)
O17B O 0.1542(6) 0.1442(3) 0.3085(5)
O18B O -0.0353(5) 0.2476(3) 0.1205(5)
O19B O 0.7042(6) 0.2418(3) 0.1266(5)
O20_2 O 1.5277(6) 0.6352(3) -0.4310(5)
O21_2 O 1.7244(6) 0.6992(3) -0.4617(5)
C10B C 0.9378(8) 0.4448(4) 0.1834(7)
H6B H 0.8806 0.4623 0.1609
O22B O 0.7538(6) 0.3069(3) -0.0307(5)
O23_2 O 1.6109(6) 0.6663(4) -0.2095(5)
O24B O -0.1326(6) 0.1495(4) 0.1185(6)
C11B C 1.0166(7) 0.3664(4) 0.2181(6)
H7B H 1.0141 0.3324 0.2174
C12_2 C 1.2167(7) 0.8152(4) -0.3779(6)
C13B C 1.1107(8) 0.4430(4) 0.2537(7)
H8B H 1.1693 0.4592 0.2772
C14B C 1.1066(7) 0.3921(4) 0.2553(6)
N2B N 0.3024(6) 0.1364(4) -0.1553(5)
H9B H 0.3465 0.1378 -0.1904
H10B H 0.2524 0.1164 -0.1647
C15B C 1.0252(8) 0.4703(4) 0.2162(7)
C16B C 0.3259(7) 0.2256(4) 0.0663(6)
H11B H 0.3312 0.2442 0.1162
C17B C 0.2434(7) 0.1931(4) 0.0445(6)
C18B C 0.4858(7) 0.2633(4) 0.0337(6)
C19_2 C 1.1396(8) 0.8172(4) -0.3189(7)
O25B O 0.0190(7) 0.0904(4) 0.1904(7)
C20B C 0.2384(8) 0.1633(4) -0.0275(6)
H12B H 0.1858 0.1409 -0.0393
C21B C 0.3889(7) 0.1997(4) -0.0622(6)
H13B H 0.4373 0.2029 -0.0992
C22B C 0.9335(7) 0.3944(4) 0.1832(6)
C23_2 C 1.4582(7) 0.7475(4) -0.3948(7)
C24B C 0.8388(8) 0.3686(4) 0.1461(6)
C25B C 0.3978(7) 0.2287(4) 0.0113(7)
C26_2 C 1.2989(7) 0.7837(4) -0.3607(6)
H14_2 H 1.3052 0.7640 -0.3120
N3B N 1.0301(9) 0.5202(5) 0.2155(8)
H15B H 1.0845 0.5348 0.2376
H16B H 0.9787 0.5370 0.1930
C27_2 C 1.3700(7) 0.7817(4) -0.4150(6)
C28_2 C 1.2086(8) 0.8453(5) -0.4494(7)
H17_2 H 1.1533 0.8661 -0.4610
C29B C 0.1635(7) 0.1890(4) 0.1020(6)
C30_2 C 1.3615(8) 0.8120(4) -0.4863(7)
H18_2 H 1.4102 0.8101 -0.5233
O26_2 O 1.1407(5) 0.7852(3) -0.2591(5)
O26B O -0.1407(5) 0.2148(3) 0.2591(5)
N4_2 N 1.2711(8) 0.8749(5) -0.5780(7)
H19_2 H 1.3140 0.8730 -0.6140
H20_2 H 1.2211 0.8949 -0.5869
C31_2 C 1.2827(9) 0.8449(5) -0.5041(8)
C32B C 1.1975(8) 0.3625(4) 0.2912(7)
O27B O 1.2753(5) 0.3841(3) 0.3276(5)
O27_2 O 1.7247(5) 0.6159(3) -0.3276(5)
O28B O 0.7613(5) 0.3935(3) 0.1207(5)
O29B O 0.0862(5) 0.1636(3) 0.0796(5)
O30B O 0.5520(5) 0.2675(3) -0.0176(4)
O31_2 O 1.5251(5) 0.7448(3) -0.4458(5)
O32B O 0.6212(8) 0.3766(4) -0.0366(7)
O33B O 0.5489(9) 0.3946(5) 0.0682(8)
C33B C 0.555(3) 0.4643(16) -0.038(2)
C35B C 0.5664(16) 0.4116(9) -0.0053(14)
N5B N 0.371(3) 0.4666(17) 0.223(3)
H21B H 0.3829 0.4396 0.2502
H22B H 0.3344 0.4888 0.2416
C36B C 0.468(3) 0.4456(17) 0.112(3)
H23B H 0.4827 0.4158 0.1392
C37B C 0.506(3) 0.4576(15) 0.034(2)
C38B C 0.605(3) 0.4728(19) -0.106(3)
H24B H 0.6464 0.4501 -0.1283
C39B C 0.416(3) 0.4752(18) 0.141(3)
O1 O 0.2962(6) 0.1022(4) 0.2162(6)
C1 C 0.2755(9) 0.0755(5) 0.1527(8)
O2 O 0.6073(7) 0.1574(4) 0.1053(6)
C2 C 0.3485(8) 0.0718(4) 0.0874(7)
C3 C 0.5812(9) 0.1354(5) 0.0349(8)
C4 C 0.4305(8) 0.1027(4) 0.0938(7)
H1 H 0.4430 0.1248 0.1390
C5 C 0.4953(8) 0.1000(4) 0.0302(7)
C6 C 0.3940(8) 0.0360(4) -0.0421(7)
N1 N 0.3727(9) 0.0047(5) -0.1121(8)
H2 H 0.3205 -0.0140 -0.1161
H3 H 0.4118 0.0041 -0.1514
O3 O 0.6212(7) 0.1419(4) -0.0332(6)
C7 C 0.4774(9) 0.0678(5) -0.0353(7)
H4 H 0.5211 0.0667 -0.0766
C8 C 0.3335(9) 0.0376(5) 0.0201(8)
H5 H 0.2805 0.0153 0.0185
O4 O 0.1945(8) 0.0493(4) 0.1419(8)
loop_
_geom_bond_atom_site_label_1
_geom_bond_atom_site_label_2
_geom_bond_site_symmetry_1
_geom_bond_site_symmetry_2
O1 C1 1_555 1_555
C1 C2 1_555 1_555
O2 C3 1_555 1_555
C2 C4 1_555 1_555
C3 C5 1_555 1_555
C4 H1 1_555 1_555
C5 C4 1_555 1_555
C6 N1 1_555 1_555
N1 H2 1_555 1_555
H3 N1 1_555 1_555
O3 C3 1_555 1_555
C7 C5 1_555 1_555
H4 C7 1_555 1_555
C8 C2 1_555 1_555
H5 C8 1_555 1_555
O4 C1 1_555 1_555
Er1 O8 1_555 1_555
Er2 O13 1_555 1_555
Er3 O10 1_555 1_555
O8 C18 1_555 1_555
O9 Er1 1_555 1_555
O10 C29 1_555 1_555
O11 Er3 1_555 1_555
O12 Er1 1_555 1_555
O13 C23 1_555 1_555
C9 N2 1_555 1_555
O14 C19 1_555 1_555
O15 Er2 1_555 1_555
O16 Er2 1_555 1_555
O17 Er3 1_555 1_555
O18 Er3 1_555 1_555
O19 Er1 1_555 1_555
O20 Er2 1_555 1_555
O21 Er2 1_555 1_555
C10 H6 1_555 1_555
O22 Er1 1_555 1_555
O23 Er2 1_555 1_555
O24 Er3 1_555 1_555
C11 H7 1_555 1_555
C12 C19 1_555 1_555
C13 H8 1_555 1_555
C14 C11 1_555 1_555
N2 H9 1_555 1_555
H10 N2 1_555 1_555
C15 C10 1_555 1_555
C16 H11 1_555 1_555
C17 C16 1_555 1_555
C18 C25 1_555 1_555
C19 O26 1_555 1_555
O25 Er3 1_555 1_555
C20 C9 1_555 1_555
H12 C20 1_555 1_555
C21 C9 1_555 1_555
H13 C21 1_555 1_555
C22 C10 1_555 1_555
C23 C27 1_555 1_555
C24 O12 1_555 1_555
C25 C16 1_555 1_555
C26 C12 1_555 1_555
H14 C26 1_555 1_555
N3 C15 1_555 1_555
H15 N3 1_555 1_555
H16 N3 1_555 1_555
C27 C26 1_555 1_555
C28 C12 1_555 1_555
H17 C28 1_555 1_555
C29 C17 1_555 1_555
C30 C27 1_555 1_555
H18 C30 1_555 1_555
O26 Er3_2 1_555 1_555
N4 H19 1_555 1_555
H20 N4 1_555 1_555
C31 C28 1_555 1_555
C32 O16 1_555 1_555
O27 Er2 1_555 1_555
O28 Er1 1_555 1_555
O29 Er3 1_555 1_555
O30 Er1 1_555 1_555
O31 Er2 1_555 1_555
O32 Er1 1_555 1_555
O33 Er1 1_555 1_555
C33 C34 1_555 1_555
C34 C37 1_555 1_555
C35 O32 1_555 1_555
N5 H21 1_555 1_555
H22 N5 1_555 1_555
C36 H23 1_555 1_555
C37 C33 1_555 1_555
C38 C33 1_555 1_555
H24 C38 1_555 1_555
C39 N5 1_555 1_555
Er1B O8B 1_555 1_555
Er2_2 O13_2 1_555 1_555
Er2B O16B 1_555 1_555
Er3B O10B 1_555 1_555
Er3_2 O14 1_555 1_555
O8B C18B 1_555 1_555
O9B Er1B 1_555 1_555
O10B C29B 1_555 1_555
O11B Er3B 1_555 1_555
O12B Er1B 1_555 1_555
O13_2 C23_2 1_555 1_555
C9B N2B 1_555 1_555
O14_2 Er3 1_555 1_555
O14B Er3B 1_555 1_555
O15_2 Er2_2 1_555 1_555
O16B C32B 1_555 1_555
O16_2 Er2_2 1_555 1_555
O17B Er3B 1_555 1_555
O18B Er3B 1_555 1_555
O19B Er1B 1_555 1_555
O20_2 Er2_2 1_555 1_555
O21_2 Er2_2 1_555 1_555
C10B H6B 1_555 1_555
O22B Er1B 1_555 1_555
O23_2 Er2_2 1_555 1_555
O24B Er3B 1_555 1_555
C11B H7B 1_555 1_555
C12_2 C19_2 1_555 1_555
C13B H8B 1_555 1_555
C14B C11B 1_555 1_555
N2B H9B 1_555 1_555
H10B N2B 1_555 1_555
C15B C10B 1_555 1_555
C16B H11B 1_555 1_555
C17B C16B 1_555 1_555
C18B C25B 1_555 1_555
C19_2 O14_2 1_555 1_555
O25B Er3B 1_555 1_555
C20B C9B 1_555 1_555
H12B C20B 1_555 1_555
C21B C9B 1_555 1_555
H13B C21B 1_555 1_555
C22B C10B 1_555 1_555
C23_2 C27_2 1_555 1_555
C24B O12B 1_555 1_555
C25B C16B 1_555 1_555
C26_2 C12_2 1_555 1_555
H14_2 C26_2 1_555 1_555
N3B C15B 1_555 1_555
H15B N3B 1_555 1_555
H16B N3B 1_555 1_555
C27_2 C26_2 1_555 1_555
C28_2 C12_2 1_555 1_555
H17_2 C28_2 1_555 1_555
C29B C17B 1_555 1_555
C30_2 C27_2 1_555 1_555
H18_2 C30_2 1_555 1_555
O26_2 Er3 1_555 1_555
O26B Er3B 1_555 1_555
N4_2 H19_2 1_555 1_555
H20_2 N4_2 1_555 1_555
C31_2 C28_2 1_555 1_555
C32B C14B 1_555 1_555
O27B Er2B 1_555 1_555
O27_2 Er2_2 1_555 1_555
O28B Er1B 1_555 1_555
O29B Er3B 1_555 1_555
O30B Er1B 1_555 1_555
O31_2 Er2_2 1_555 1_555
O32B Er1B 1_555 1_555
O33B Er1B 1_555 1_555
C33B C34 1_555 1_555
C35B O32B 1_555 1_555
N5B H21B 1_555 1_555
H22B N5B 1_555 1_555
C36B H23B 1_555 1_555
C37B C34 1_555 1_555
C38B C39 1_555 1_555
H24B C38B 1_555 1_555
C39B C38 1_555 1_555
C6 C7 1_555 1_555
C6 C8 1_555 1_555
C11 C22 1_555 1_555
C13 C14 1_555 1_555
C13 C15 1_555 1_555
C14 C32 1_555 1_555
C17 C20 1_555 1_555
C18 O30 1_555 1_555
C21 C25 1_555 1_555
C22 C24 1_555 1_555
C23 O31 1_555 1_555
C24 O28 1_555 1_555
C29 O29 1_555 1_555
C30 C31 1_555 1_555
N4 C31 1_555 1_555
C32 O27 1_555 1_555
O33 C35 1_555 1_555
C33 C35 1_555 1_555
C35 C37 1_555 1_555
C36 C37 1_555 1_555
C36 C39 1_555 1_555
C11B C22B 1_555 1_555
C13B C14B 1_555 1_555
C13B C15B 1_555 1_555
C17B C20B 1_555 1_555
C18B O30B 1_555 1_555
C19_2 O26_2 1_555 1_555
C21B C25B 1_555 1_555
C22B C24B 1_555 1_555
C23_2 O31_2 1_555 1_555
C24B O28B 1_555 1_555
C29B O29B 1_555 1_555
C30_2 C31_2 1_555 1_555
N4_2 C31_2 1_555 1_555
C32B O27B 1_555 1_555
O33B C35B 1_555 1_555
C33B C35B 1_555 1_555
C33B C37B 1_555 1_555
C33B C38B 1_555 1_555
C35B C37B 1_555 1_555
N5B C39B 1_555 1_555
C36B C37B 1_555 1_555
C36B C39B 1_555 1_555

#END
