
#######################################################################
#
#                 Cambridge Crystallographic Data Centre
#                                CCDC 
#
#######################################################################
#
# If this CIF has been generated from an entry in the Cambridge 
# Structural Database, then it will include bibliographic, chemical, 
# crystal, experimental, refinement or atomic coordinate data resulting 
# from the CCDC's data processing and validation procedures.
#
#######################################################################

data_EYONEM
_symmetry_cell_setting           monoclinic
_symmetry_space_group_name_H-M   'P 21/n'
_symmetry_Int_Tables_number      14
_space_group_name_Hall           '-P 2yn'
loop_
_symmetry_equiv_pos_site_id
_symmetry_equiv_pos_as_xyz
1 x,y,z
2 1/2-x,1/2+y,1/2-z
3 -x,-y,-z
4 1/2+x,1/2-y,1/2+z
_cell_length_a                   10.0108(2)
_cell_length_b                   18.5140(4)
_cell_length_c                   18.8711(4)
_cell_angle_alpha                90
_cell_angle_beta                 96.628(2)
_cell_angle_gamma                90
_cell_volume                     3474.19
loop_
_atom_site_label
_atom_site_type_symbol
_atom_site_fract_x
_atom_site_fract_y
_atom_site_fract_z
Cd1 Cd 0.69963(5) 0.09506(3) 0.39921(3)
C1 C 1.2938(8) 0.1291(5) 0.3091(5)
C2 C 1.1749(8) 0.1108(5) 0.3342(5)
H1 H 1.1751 0.0868 0.3775
C3 C 1.0540(8) 0.1287(6) 0.2939(5)
C4 C 1.0534(9) 0.1650(6) 0.2305(6)
H2 H 0.9722 0.1763 0.2037
C5 C 1.1744(9) 0.1850(6) 0.2061(5)
C6 C 1.2939(9) 0.1660(5) 0.2452(5)
H3 H 1.3750 0.1780 0.2287
C7 C 0.9230(9) 0.1080(6) 0.3221(6)
C8 C 1.4261(8) 0.1089(5) 0.3488(5)
C9 C 0.7131(13) 0.4730(6) 0.5614(6)
H4 H 0.6803 0.4769 0.6054
C10 C 0.6930(15) 0.4098(6) 0.5242(7)
H5 H 0.6447 0.3725 0.5422
C11 C 0.7449(12) 0.4015(6) 0.4595(6)
C12 C 0.8184(14) 0.4576(6) 0.4353(7)
H6 H 0.8567 0.4526 0.3929
C13 C 0.8356(14) 0.5219(6) 0.4741(6)
H7 H 0.8857 0.5592 0.4573
C14 C 0.7224(12) 0.2690(6) 0.4451(6)
H8 H 0.7351 0.2577 0.4934
C15 C 0.6885(15) 0.2608(7) 0.3328(7)
H9 H 0.6735 0.2411 0.2872
C16 C 0.6994(16) 0.3305(7) 0.3473(7)
H10 H 0.6923 0.3680 0.3143
C17 C 0.7820(12) 0.5994(6) 0.6475(5)
C18 C 0.6859(14) 0.6402(7) 0.6717(6)
H11 H 0.6329 0.6698 0.6400
C19 C 0.6640(13) 0.6392(7) 0.7433(5)
H12 H 0.5962 0.6672 0.7591
C20 C 0.7429(11) 0.5967(6) 0.7902(5)
C21 C 0.8475(11) 0.5571(7) 0.7678(6)
H13 H 0.9037 0.5302 0.8004
C22 C 0.8678(12) 0.5580(7) 0.6962(6)
H14 H 0.9376 0.5314 0.6805
C23 C 0.5899(11) 0.5773(6) 0.8835(6)
H15 H 0.5101 0.5699 0.8540
C24 C 0.6054(10) 0.5762(6) 0.9558(5)
H16 H 0.5382 0.5673 0.9848
C25 C 0.8010(10) 0.5992(6) 0.9224(5)
H17 H 0.8922 0.6093 0.9232
C26 C 0.7803(11) 0.6628(5) 0.5346(5)
C27 C 0.6820(13) 0.6682(6) 0.4782(7)
H18 H 0.6271 0.6288 0.4652
C28 C 0.8594(11) 0.7224(6) 0.5535(5)
H19 H 0.9265 0.7192 0.5919
C29 C 0.8407(11) 0.7864(6) 0.5165(5)
H20 H 0.8942 0.8263 0.5299
C30 C 0.7403(11) 0.7906(6) 0.4585(5)
C31 C 0.6640(13) 0.7324(6) 0.4404(7)
H21 H 0.5976 0.7352 0.4017
C32 C 0.7154(14) 0.8609(7) 0.3447(6)
H22 H 0.7174 0.8234 0.3120
C33 C 0.7113(10) 0.9220(6) 0.4423(5)
H23 H 0.7117 0.9332 0.4904
C34 C 0.7038(12) 0.9325(6) 0.3300(6)
H24 H 0.7000 0.9526 0.2846
C35 C 0.7794(13) 0.5310(6) 0.5367(5)
N1 N 0.7989(11) 0.5974(5) 0.5738(5)
N2 N 0.7227(10) 0.3369(5) 0.4193(5)
N3 N 0.7026(9) 0.2217(4) 0.3951(5)
N4 N 0.7136(8) 0.5913(5) 0.8620(4)
N5 N 0.7394(7) 0.5908(5) 0.9791(4)
N6 N 0.7236(8) 0.8550(4) 0.4175(4)
N7 N 0.6987(7) 0.9705(4) 0.3909(4)
O1 O 1.1699(7) 0.2243(5) 0.1440(4)
O2 O 0.8198(6) 0.1055(5) 0.2804(5)
O3 O 0.9268(7) 0.0983(5) 0.3878(4)
O4 O 1.4356(6) 0.0958(4) 0.4141(4)
O5 O 1.5258(5) 0.1046(4) 0.3137(3)
H25 H 1.245(9) 0.234(11) 0.129(9)
Cd1A Cd 0.80037(5) 0.59506(3) 1.10079(3)
Cd1_2 Cd 0.69963(5) 1.09506(3) 0.39921(3)
Cd1_3 Cd 1.69963(5) 0.09506(3) 0.39921(3)
N5A N 0.7606(7) 0.0908(5) 0.5209(4)
N7_2 N 0.6987(7) -0.0295(4) 0.3909(4)
O4_2 O 0.4356(6) 0.0958(4) 0.4141(4)
O5_2 O 0.5258(5) 0.1046(4) 0.3137(3)
O6 O 0.5934(10) 0.1173(9) 0.1776(5)
H26 H 0.667(11) 0.139(10) 0.191(9)
H27 H 0.559(17) 0.109(11) 0.216(5)
O7 O 0.4356(10) 0.2305(8) 0.1092(6)
H28 H 0.493(16) 0.197(8) 0.121(9)
H29 H 0.457(18) 0.247(9) 0.070(6)
loop_
_geom_bond_atom_site_label_1
_geom_bond_atom_site_label_2
_geom_bond_site_symmetry_1
_geom_bond_site_symmetry_2
Cd1 N3 1_555 1_555
C1 C2 1_555 1_555
C2 H1 1_555 1_555
C3 C2 1_555 1_555
C4 C3 1_555 1_555
H2 C4 1_555 1_555
C5 C4 1_555 1_555
C6 C1 1_555 1_555
H3 C6 1_555 1_555
C7 C3 1_555 1_555
C8 C1 1_555 1_555
C9 H4 1_555 1_555
C10 C9 1_555 1_555
H5 C10 1_555 1_555
C11 C10 1_555 1_555
C12 C11 1_555 1_555
H6 C12 1_555 1_555
C13 C12 1_555 1_555
H7 C13 1_555 1_555
C14 H8 1_555 1_555
C15 H9 1_555 1_555
C16 C15 1_555 1_555
H10 C16 1_555 1_555
C17 C18 1_555 1_555
C18 H11 1_555 1_555
C19 C18 1_555 1_555
H12 C19 1_555 1_555
C20 C19 1_555 1_555
C21 C20 1_555 1_555
H13 C21 1_555 1_555
C22 C17 1_555 1_555
H14 C22 1_555 1_555
C23 H15 1_555 1_555
C24 C23 1_555 1_555
H16 C24 1_555 1_555
C25 H17 1_555 1_555
C26 C27 1_555 1_555
C27 H18 1_555 1_555
C28 C26 1_555 1_555
H19 C28 1_555 1_555
C29 C28 1_555 1_555
H20 C29 1_555 1_555
C30 C29 1_555 1_555
C31 C27 1_555 1_555
H21 C31 1_555 1_555
C32 H22 1_555 1_555
C33 H23 1_555 1_555
C34 C32 1_555 1_555
H24 C34 1_555 1_555
C35 C9 1_555 1_555
N1 C17 1_555 1_555
N2 C11 1_555 1_555
N3 C14 1_555 1_555
N4 C20 1_555 1_555
N5 C24 1_555 1_555
N6 C30 1_555 1_555
N7 C33 1_555 1_555
O1 C5 1_555 1_555
O2 Cd1 1_555 1_555
O3 Cd1 1_555 1_555
O4 C8 1_555 1_555
O5 C8 1_555 1_555
O6 H26 1_555 1_555
O7 H28 1_555 1_555
H25 O1 1_555 1_555
H27 O6 1_555 1_555
H29 O7 1_555 1_555
Cd1A N5 1_555 1_555
Cd1_2 N7 1_555 1_555
Cd1_3 O4 1_555 1_555
N5A Cd1 1_555 1_555
N7_2 Cd1 1_555 1_555
O4_2 Cd1 1_555 1_555
O5_2 Cd1 1_555 1_555
C5 C6 1_555 1_555
C7 O2 1_555 1_555
C7 O3 1_555 1_555
C13 C35 1_555 1_555
C14 N2 1_555 1_555
C15 N3 1_555 1_555
C16 N2 1_555 1_555
C21 C22 1_555 1_555
C23 N4 1_555 1_555
C25 N4 1_555 1_555
C25 N5 1_555 1_555
C26 N1 1_555 1_555
C30 C31 1_555 1_555
C32 N6 1_555 1_555
C33 N6 1_555 1_555
C34 N7 1_555 1_555
C35 N1 1_555 1_555
O5 Cd1_3 1_555 1_555

#END
