
#######################################################################
#
#                 Cambridge Crystallographic Data Centre
#                                CCDC 
#
#######################################################################
#
# If this CIF has been generated from an entry in the Cambridge 
# Structural Database, then it will include bibliographic, chemical, 
# crystal, experimental, refinement or atomic coordinate data resulting 
# from the CCDC's data processing and validation procedures.
#
#######################################################################

data_EYOYUN
_symmetry_cell_setting           monoclinic
_symmetry_space_group_name_H-M   'C 2/c'
_symmetry_Int_Tables_number      15
_space_group_name_Hall           '-C 2yn'
loop_
_symmetry_equiv_pos_site_id
_symmetry_equiv_pos_as_xyz
1 x,y,z
2 -x,y,1/2-z
3 1/2+x,1/2+y,z
4 1/2-x,1/2+y,1/2-z
5 -x,-y,-z
6 x,-y,1/2+z
7 1/2-x,1/2-y,-z
8 1/2+x,1/2-y,1/2+z
_cell_length_a                   13.851(3)
_cell_length_b                   23.881(4)
_cell_length_c                   10.344(2)
_cell_angle_alpha                90
_cell_angle_beta                 118.984(3)
_cell_angle_gamma                90
_cell_volume                     2993.01
loop_
_atom_site_label
_atom_site_type_symbol
_atom_site_fract_x
_atom_site_fract_y
_atom_site_fract_z
Cu1 Cu 0.20836(7) 0.23423(3) 0.82087(10)
Br1 Br 0.40378(10) 0.46549(4) 0.52836(14)
O1 O 0.1838(4) 0.3119(2) 0.7664(7)
N1 N 0.3106(5) 0.2264(2) 0.7421(7)
N2 N 0.2513(6) 0.1537(3) 0.8874(8)
N3 N 0.1219(5) 0.2449(3) 0.9251(7)
N4 N 0.0423(5) 0.2238(2) 0.9190(6)
N5 N -0.0331(6) 0.2046(3) 0.9191(9)
C1 C 0.3095(5) 0.3229(3) 0.6697(7)
C2 C 0.2326(6) 0.3438(3) 0.7131(9)
C3 C 0.2128(8) 0.4014(3) 0.6994(11)
H1 H 0.1637 0.4163 0.7274
C4 C 0.2635(9) 0.4368(4) 0.6459(12)
H2 H 0.2484 0.4749 0.6383
C5 C 0.3364(7) 0.4158(3) 0.6038(9)
C6 C 0.3598(6) 0.3603(3) 0.6151(8)
H3 H 0.4096 0.3469 0.5865
C7 C 0.3405(6) 0.2656(3) 0.6842(8)
H4 H 0.3876 0.2554 0.6478
C8 C 0.3572(9) 0.1705(4) 0.7634(12)
H5 H 0.3587 0.1589 0.6745
H6 H 0.4327 0.1712 0.8437
C9 C 0.2965(12) 0.1317(4) 0.7957(17)
H7 H 0.3436 0.1000 0.8460
H8 H 0.2361 0.1181 0.7035
C10 C 0.1712(8) 0.1140(4) 0.8846(13)
H9 H 0.1122 0.1099 0.7851
H10 H 0.1421 0.1273 0.9464
H11 H 0.2062 0.0784 0.9205
H14 H 0.301(5) 0.158(4) 0.983(3)
Cu1F Cu 0.29164(7) 0.26577(3) 1.17913(10)
Cu1A Cu -0.20836(7) 0.23423(3) 0.67913(10)
Cu1G Cu 0.70836(7) 0.26577(3) 1.32087(10)
Br1F Br 0.09622(10) 0.03451(4) 1.47164(14)
O1F O 0.3162(4) 0.1881(2) 1.2336(7)
N1F N 0.1894(5) 0.2736(2) 1.2579(7)
N2F N 0.2487(6) 0.3463(3) 1.1126(8)
N3F N 0.3781(5) 0.2551(3) 1.0749(7)
N4F N 0.4577(5) 0.2762(2) 1.0810(6)
N5F N 0.5331(6) 0.2954(3) 1.0809(9)
N5A N 0.0331(6) 0.2046(3) 0.5809(9)
N5G N 0.4669(6) 0.2954(3) 1.4191(9)
C1F C 0.1905(5) 0.1771(3) 1.3303(7)
C2F C 0.2674(6) 0.1562(3) 1.2869(9)
C3F C 0.2872(8) 0.0986(3) 1.3006(11)
H1F H 0.3363 0.0837 1.2726
C4F C 0.2365(9) 0.0632(4) 1.3541(12)
H2F H 0.2516 0.0251 1.3617
C5F C 0.1636(7) 0.0842(3) 1.3962(9)
C6F C 0.1402(6) 0.1397(3) 1.3849(8)
H3F H 0.0904 0.1531 1.4135
C7F C 0.1595(6) 0.2344(3) 1.3158(8)
H4F H 0.1124 0.2446 1.3522
C8F C 0.1428(9) 0.3295(4) 1.2366(12)
H5F H 0.1413 0.3411 1.3255
H6F H 0.0673 0.3288 1.1563
C9F C 0.2035(12) 0.3683(4) 1.2043(17)
H7F H 0.1564 0.4000 1.1540
H8F H 0.2639 0.3819 1.2965
C10F C 0.3288(8) 0.3860(4) 1.1154(13)
H9F H 0.3878 0.3901 1.2149
H10F H 0.3579 0.3727 1.0536
H11F H 0.2938 0.4216 1.0795
H14F H 0.199(5) 0.342(4) 1.017(3)
O2 O 0.5000 0.1343(5) 0.2500
H13 H 0.468(10) 0.143(4) 0.158(3)
H13A H 0.532(10) 0.143(4) 0.342(3)
H12? H 0.466(6) 0.152(3) 0.288(8)
loop_
_geom_bond_atom_site_label_1
_geom_bond_atom_site_label_2
_geom_bond_site_symmetry_1
_geom_bond_site_symmetry_2
Cu1 O1 1_555 1_555
Br1 C5 1_555 1_555
O1 C2 1_555 1_555
O2 H13 1_555 1_555
N1 Cu1 1_555 1_555
N2 Cu1 1_555 1_555
N3 Cu1 1_555 1_555
N4 N3 1_555 1_555
N5 N4 1_555 1_555
C1 C2 1_555 1_555
C2 C3 1_555 1_555
C3 H1 1_555 1_555
C4 C3 1_555 1_555
H2 C4 1_555 1_555
C5 C4 1_555 1_555
C6 C1 1_555 1_555
H3 C6 1_555 1_555
C7 N1 1_555 1_555
H4 C7 1_555 1_555
C8 N1 1_555 1_555
H5 C8 1_555 1_555
H6 C8 1_555 1_555
C9 N2 1_555 1_555
H7 C9 1_555 1_555
H8 C9 1_555 1_555
C10 N2 1_555 1_555
H9 C10 1_555 1_555
H10 C10 1_555 1_555
H11 C10 1_555 1_555
H14 N2 1_555 1_555
Cu1F N3 1_555 1_555
Cu1A N5 1_555 1_555
Cu1G N5F 1_555 1_555
Br1F C5F 1_555 1_555
O1F Cu1F 1_555 1_555
N1F Cu1F 1_555 1_555
N2F Cu1F 1_555 1_555
N3F Cu1 1_555 1_555
N4F N3F 1_555 1_555
N5F N4F 1_555 1_555
N5A Cu1 1_555 1_555
N5G Cu1F 1_555 1_555
C1F C2F 1_555 1_555
C2F O1F 1_555 1_555
C3F C2F 1_555 1_555
H1F C3F 1_555 1_555
C4F C3F 1_555 1_555
H2F C4F 1_555 1_555
C5F C4F 1_555 1_555
C6F C1F 1_555 1_555
H3F C6F 1_555 1_555
C7F N1F 1_555 1_555
H4F C7F 1_555 1_555
C8F N1F 1_555 1_555
H5F C8F 1_555 1_555
H6F C8F 1_555 1_555
C9F N2F 1_555 1_555
H7F C9F 1_555 1_555
H8F C9F 1_555 1_555
C10F N2F 1_555 1_555
H9F C10F 1_555 1_555
H10F C10F 1_555 1_555
H11F C10F 1_555 1_555
H13A O2 1_555 1_555
H14F N2F 1_555 1_555
C1 C7 1_555 1_555
C5 C6 1_555 1_555
C8 C9 1_555 1_555
Cu1F N3F 1_555 1_555
C1F C7F 1_555 1_555
C5F C6F 1_555 1_555
C8F C9F 1_555 1_555

#END
