
#######################################################################
#
#                 Cambridge Crystallographic Data Centre
#                                CCDC 
#
#######################################################################
#
# If this CIF has been generated from an entry in the Cambridge 
# Structural Database, then it will include bibliographic, chemical, 
# crystal, experimental, refinement or atomic coordinate data resulting 
# from the CCDC's data processing and validation procedures.
#
#######################################################################

data_EYOYAS
_symmetry_cell_setting           monoclinic
_symmetry_space_group_name_H-M   'P 21/c'
_symmetry_Int_Tables_number      14
_space_group_name_Hall           '-P 2ybc'
loop_
_symmetry_equiv_pos_site_id
_symmetry_equiv_pos_as_xyz
1 x,y,z
2 x,1/2-y,1/2+z
3 -x,-y,-z
4 -x,1/2+y,1/2-z
_cell_length_a                   9.4505(2)
_cell_length_b                   28.9468(8)
_cell_length_c                   13.7255(2)
_cell_angle_alpha                90
_cell_angle_beta                 94.6080(10)
_cell_angle_gamma                90
_cell_volume                     3742.63
loop_
_atom_site_label
_atom_site_type_symbol
_atom_site_fract_x
_atom_site_fract_y
_atom_site_fract_z
Tb1 Tb -0.302410(13) 0.159010(4) -0.276930(9)
O1 O -0.0544(4) -0.10054(11) -0.0484(2)
O2 O -0.4519(3) 0.11099(9) 0.16334(17)
O3 O -0.9570(3) 0.21713(10) -0.47615(19)
O4 O -0.6844(4) -0.04567(10) -0.4676(2)
O5 O -0.4135(2) 0.27520(7) -0.07749(14)
O6 O -1.0472(2) 0.16811(8) -0.25651(17)
O7 O -0.1939(3) 0.03872(9) -0.22281(16)
O8 O -0.2575(2) 0.10287(7) -0.15230(14)
O9 O -0.4832(2) 0.15209(7) -0.41149(16)
O10 O -0.4897(2) 0.09516(8) -0.30639(16)
O11 O -0.4359(2) 0.23261(7) -0.28376(15)
O12 O -0.5272(2) 0.17744(7) -0.19761(15)
O13 O -0.2332(2) 0.20463(8) -0.13682(16)
O14 O -0.2068(2) 0.09787(8) -0.37189(16)
O15 O -0.2246(2) 0.20438(8) -0.40700(15)
N1 N -0.1387(3) -0.03386(10) -0.1206(2)
H1 H -0.1384 -0.0187 -0.1745
N2 N -0.3735(3) 0.09800(9) 0.01306(19)
H2 H -0.3626 0.1116 -0.0415
N3 N -0.7418(3) 0.18051(11) -0.4726(2)
H3 H -0.6521 0.1860 -0.4702
N4 N -0.6168(3) 0.02169(10) -0.3930(2)
H4 H -0.5562 0.0330 -0.3493
N5 N -0.5135(3) 0.31883(9) -0.20282(18)
H5 H -0.4999 0.3418 -0.2408
N6 N -0.8096(3) 0.18020(9) -0.22760(18)
H6 H -0.7301 0.1658 -0.2177
C1 C -0.2360(3) 0.05964(11) -0.1507(2)
C2 C -0.5434(3) 0.11638(11) -0.3803(2)
C3 C -0.5327(3) 0.21788(10) -0.2342(2)
C4 C -0.2643(3) 0.03196(10) -0.0604(2)
C5 C -0.2243(4) -0.01516(11) -0.0517(2)
C6 C -0.2674(4) -0.04250(12) 0.0237(3)
H7 H -0.2439 -0.0737 0.0271
C7 C -0.3451(4) -0.02285(13) 0.0931(2)
H8 H -0.3752 -0.0412 0.1430
C8 C -0.3795(4) 0.02310(12) 0.0909(2)
H9 H -0.4304 0.0358 0.1396
C9 C -0.3380(4) 0.05070(11) 0.0155(2)
C10 C -0.0562(4) -0.07234(13) -0.1149(3)
C11 C 0.0384(4) -0.07708(14) -0.1956(3)
H10 H 0.0170 -0.1053 -0.2303
H11 H 0.1355 -0.0775 -0.1691
H12 H 0.0238 -0.0514 -0.2396
C12 C -0.4220(4) 0.12526(12) 0.0829(2)
C13 C -0.4316(6) 0.17461(15) 0.0567(3)
H13 H -0.3690 0.1921 0.1013
H14 H -0.5273 0.1851 0.0605
H15 H -0.4046 0.1788 -0.0087
C14 C -0.6814(3) 0.10079(11) -0.4313(2)
C15 C -0.7797(3) 0.13338(13) -0.4730(2)
C16 C -0.9102(4) 0.11916(15) -0.5159(3)
H16 H -0.9758 0.1408 -0.5415
C17 C -0.9421(4) 0.07275(15) -0.5205(3)
H17 H -1.0296 0.0634 -0.5496
C18 C -0.8466(4) 0.03953(14) -0.4826(3)
H18 H -0.8688 0.0083 -0.4884
C19 C -0.7166(4) 0.05359(12) -0.4358(2)
C20 C -0.8261(4) 0.21837(13) -0.4754(2)
C21 C -0.7478(4) 0.26323(13) -0.4770(3)
H19 H -0.6477 0.2573 -0.4761
H20 H -0.7667 0.2812 -0.4207
H21 H -0.7786 0.2800 -0.5352
C22 C -0.6024(4) -0.02400(13) -0.4105(2)
C23 C -0.4772(5) -0.04612(13) -0.3546(3)
H22 H -0.4741 -0.0783 -0.3708
H23 H -0.4859 -0.0428 -0.2858
H24 H -0.3915 -0.0314 -0.3715
C24 C -0.6604(3) 0.24815(10) -0.22285(19)
C25 C -0.6474(3) 0.29606(11) -0.2156(2)
C26 C -0.7666(3) 0.32472(11) -0.2219(2)
H25 H -0.7567 0.3567 -0.2189
C27 C -0.9002(3) 0.30464(12) -0.2329(2)
H26 H -0.9800 0.3235 -0.2395
C28 C -0.9174(3) 0.25766(11) -0.2342(2)
H27 H -1.0082 0.2450 -0.2389
C29 C -0.7995(3) 0.22886(10) -0.2285(2)
C30 C -0.4070(3) 0.30754(10) -0.1367(2)
C31 C -0.2756(4) 0.33711(13) -0.1379(3)
H28 H -0.1958 0.3180 -0.1499
H29 H -0.2580 0.3523 -0.0759
H30 H -0.2893 0.3599 -0.1887
C32 C -0.9257(3) 0.15270(10) -0.2400(2)
C33 C -0.8969(3) 0.10240(11) -0.2304(3)
H31 H -0.9461 0.0901 -0.1776
H32 H -0.7967 0.0975 -0.2173
H33 H -0.9293 0.0871 -0.2901
H34 H -0.2953 0.2210 -0.1162
H35 H -0.1746 0.1951 -0.0831
H36 H -0.2512 0.0854 -0.4294
H37 H -0.1962 0.0718 -0.3327
H38 H -0.2772 0.2111 -0.4605
H39 H -0.1340 0.2080 -0.4220
O6_2 O -0.0472(2) 0.16811(8) -0.25651(17)
Tb1_2 Tb -1.302410(13) 0.159010(4) -0.276930(9)
O16 O 0.0777(3) -0.18387(10) -0.0262(2)
H40 H 0.0184 -0.1597 -0.0424
H41 H 0.0297 -0.2083 -0.0489
loop_
_geom_bond_atom_site_label_1
_geom_bond_atom_site_label_2
_geom_bond_site_symmetry_1
_geom_bond_site_symmetry_2
Tb1 O8 1_555 1_555
O1 C10 1_555 1_555
O2 C12 1_555 1_555
O3 C20 1_555 1_555
O4 C22 1_555 1_555
O5 C30 1_555 1_555
O6 C32 1_555 1_555
O7 C1 1_555 1_555
O8 C1 1_555 1_555
O9 Tb1 1_555 1_555
O10 Tb1 1_555 1_555
O11 Tb1 1_555 1_555
O12 Tb1 1_555 1_555
O13 Tb1 1_555 1_555
O14 Tb1 1_555 1_555
O15 Tb1 1_555 1_555
O16 H40 1_555 1_555
N1 H1 1_555 1_555
N2 H2 1_555 1_555
N3 H3 1_555 1_555
N4 H4 1_555 1_555
N5 H5 1_555 1_555
N6 H6 1_555 1_555
C1 C4 1_555 1_555
C2 O9 1_555 1_555
C3 O11 1_555 1_555
C4 C5 1_555 1_555
C5 N1 1_555 1_555
C6 C5 1_555 1_555
H7 C6 1_555 1_555
C7 C6 1_555 1_555
H8 C7 1_555 1_555
C8 C7 1_555 1_555
H9 C8 1_555 1_555
C9 N2 1_555 1_555
C10 N1 1_555 1_555
C11 C10 1_555 1_555
H10 C11 1_555 1_555
H11 C11 1_555 1_555
H12 C11 1_555 1_555
C12 N2 1_555 1_555
C13 C12 1_555 1_555
H13 C13 1_555 1_555
H14 C13 1_555 1_555
H15 C13 1_555 1_555
C14 C2 1_555 1_555
C15 N3 1_555 1_555
C16 C15 1_555 1_555
H16 C16 1_555 1_555
C17 C16 1_555 1_555
H17 C17 1_555 1_555
C18 C17 1_555 1_555
H18 C18 1_555 1_555
C19 N4 1_555 1_555
C20 N3 1_555 1_555
C21 C20 1_555 1_555
H19 C21 1_555 1_555
H20 C21 1_555 1_555
H21 C21 1_555 1_555
C22 N4 1_555 1_555
C23 C22 1_555 1_555
H22 C23 1_555 1_555
H23 C23 1_555 1_555
H24 C23 1_555 1_555
C24 C3 1_555 1_555
C25 N5 1_555 1_555
C26 C25 1_555 1_555
H25 C26 1_555 1_555
C27 C26 1_555 1_555
H26 C27 1_555 1_555
C28 C27 1_555 1_555
H27 C28 1_555 1_555
C29 N6 1_555 1_555
C30 N5 1_555 1_555
C31 C30 1_555 1_555
H28 C31 1_555 1_555
H29 C31 1_555 1_555
H30 C31 1_555 1_555
C32 N6 1_555 1_555
C33 C32 1_555 1_555
H31 C33 1_555 1_555
H32 C33 1_555 1_555
H33 C33 1_555 1_555
H34 O13 1_555 1_555
H35 O13 1_555 1_555
H36 O14 1_555 1_555
H37 O14 1_555 1_555
H38 O15 1_555 1_555
H39 O15 1_555 1_555
H41 O16 1_555 1_555
O6_2 Tb1 1_555 1_555
Tb1_2 O6 1_555 1_555
O10 C2 1_555 1_555
O12 C3 1_555 1_555
C4 C9 1_555 1_555
C8 C9 1_555 1_555
C14 C15 1_555 1_555
C14 C19 1_555 1_555
C18 C19 1_555 1_555
C24 C25 1_555 1_555
C24 C29 1_555 1_555
C28 C29 1_555 1_555

#END
