
#######################################################################
#
#                 Cambridge Crystallographic Data Centre
#                                CCDC 
#
#######################################################################
#
# If this CIF has been generated from an entry in the Cambridge 
# Structural Database, then it will include bibliographic, chemical, 
# crystal, experimental, refinement or atomic coordinate data resulting 
# from the CCDC's data processing and validation procedures.
#
#######################################################################

data_EYOYEX
_symmetry_cell_setting           monoclinic
_symmetry_space_group_name_H-M   'P 21/n'
_symmetry_Int_Tables_number      14
_space_group_name_Hall           '-P 2yn'
loop_
_symmetry_equiv_pos_site_id
_symmetry_equiv_pos_as_xyz
1 x,y,z
2 1/2-x,1/2+y,1/2-z
3 -x,-y,-z
4 1/2+x,1/2-y,1/2+z
_cell_length_a                   17.422(3)
_cell_length_b                   15.8850(16)
_cell_length_c                   23.046(2)
_cell_angle_alpha                90
_cell_angle_beta                 95.576(11)
_cell_angle_gamma                90
_cell_volume                     6347.77
loop_
_atom_site_label
_atom_site_type_symbol
_atom_site_fract_x
_atom_site_fract_y
_atom_site_fract_z
Zn1 Zn -0.21718(3) 0.22648(3) -0.25853(2)
Zn2 Zn -0.66672(3) 0.27391(3) 0.10808(2)
C1 C -0.3371(3) 0.2141(3) -0.3541(2)
C2 C -0.4207(3) 0.1945(3) -0.3801(2)
H1 H -0.4276 0.1340 -0.3743
C3 C -0.4347(3) 0.2086(3) -0.4456(2)
C4 C -0.4003(3) 0.1593(3) -0.4843(3)
H2 H -0.3690 0.1147 -0.4706
C5 C -0.4114(3) 0.1751(4) -0.5435(3)
H3 H -0.3886 0.1405 -0.5695
C6 C -0.4568(3) 0.2425(4) -0.5641(3)
H4 H -0.4628 0.2544 -0.6038
C7 C -0.4922(3) 0.2910(3) -0.5265(3)
H5 H -0.5240 0.3353 -0.5399
C8 C -0.4799(3) 0.2730(3) -0.4672(2)
C9 C -0.5258(3) 0.2995(3) -0.3757(3)
C10 C -0.5815(3) 0.3424(4) -0.3469(3)
H6 H -0.6106 0.3854 -0.3655
C11 C -0.5921(4) 0.3196(5) -0.2910(3)
H7 H -0.6281 0.3482 -0.2711
C12 C -0.5498(4) 0.2543(4) -0.2636(3)
H8 H -0.5586 0.2377 -0.2261
C13 C -0.4952(3) 0.2151(4) -0.2924(2)
H9 H -0.4662 0.1723 -0.2735
C14 C -0.4813(3) 0.2364(3) -0.3488(2)
C15 C -0.1871(3) 0.0689(3) -0.3234(3)
C16 C -0.1921(3) -0.0278(2) -0.3337(2)
H10 H -0.1938 -0.0568 -0.2964
C17 C -0.1234(3) -0.0563(3) -0.3621(3)
C18 C -0.0530(4) -0.0728(3) -0.3309(3)
H11 H -0.0489 -0.0720 -0.2904
C19 C 0.0115(4) -0.0903(4) -0.3595(4)
H12 H 0.0584 -0.1017 -0.3382
C20 C 0.0064(4) -0.0910(4) -0.4193(4)
H13 H 0.0504 -0.1006 -0.4382
C21 C -0.0631(4) -0.0776(3) -0.4514(3)
H14 H -0.0674 -0.0802 -0.4919
C22 C -0.1269(3) -0.0599(3) -0.4215(3)
C23 C -0.2643(3) -0.0515(3) -0.4320(3)
C24 C -0.3302(4) -0.0631(3) -0.4695(3)
H15 H -0.3275 -0.0670 -0.5095
C25 C -0.3998(4) -0.0687(3) -0.4464(4)
H16 H -0.4448 -0.0773 -0.4709
C26 C -0.4032(4) -0.0618(3) -0.3886(3)
H17 H -0.4508 -0.0650 -0.3735
C27 C -0.3375(3) -0.0503(3) -0.3512(3)
H18 H -0.3411 -0.0465 -0.3113
C28 C -0.2664(3) -0.0443(3) -0.3723(2)
C29 C -0.1978(3) 0.3843(3) -0.3269(3)
C30 C -0.2066(3) 0.4794(3) -0.3384(2)
H19 H -0.2197 0.5079 -0.3030
C31 C -0.2691(3) 0.4908(3) -0.3851(3)
C32 C -0.3457(4) 0.4888(3) -0.3751(3)
H20 H -0.3581 0.4845 -0.3369
C33 C -0.4052(6) 0.4929(6) -0.4197(5)
H21 H -0.4565 0.4923 -0.4117
C34 C -0.3861(6) 0.4979(6) -0.4752(6)
H22 H -0.4256 0.4977 -0.5054
C35 C -0.3117(5) 0.5032(4) -0.4889(3)
H23 H -0.2995 0.5094 -0.5270
C36 C -0.2548(4) 0.4987(3) -0.4413(3)
C37 C -0.1212(3) 0.5193(3) -0.4133(3)
C38 C -0.0508(4) 0.5436(3) -0.4316(3)
H24 H -0.0445 0.5480 -0.4711
C39 C 0.0095(4) 0.5610(4) -0.3900(5)
H25 H 0.0567 0.5783 -0.4015
C40 C 0.0002(4) 0.5531(4) -0.3317(4)
H26 H 0.0412 0.5634 -0.3038
C41 C -0.0698(4) 0.5300(3) -0.3155(3)
H27 H -0.0758 0.5250 -0.2759
C42 C -0.1329(3) 0.5135(3) -0.3560(3)
C43 C -0.5047(3) 0.1933(3) 0.1097(2)
H28 H -0.5339 0.1442 0.1090
C44 C -0.4976(3) 0.3361(3) 0.1124(2)
H29 H -0.5212 0.3885 0.1135
C45 C -0.4268(3) 0.1860(3) 0.1091(2)
H30 H -0.4046 0.1328 0.1080
C46 C -0.4180(3) 0.3331(3) 0.1122(2)
H31 H -0.3897 0.3828 0.1134
C47 C -0.3804(3) 0.2567(3) 0.11017(19)
C48 C -0.2958(3) 0.2514(3) 0.1079(2)
H32 H -0.2780 0.1961 0.1210
H33 H -0.2707 0.2928 0.1342
C49 C -0.2727(3) 0.2668(4) 0.0457(2)
H34 H -0.2846 0.3247 0.0350
H35 H -0.2174 0.2597 0.0462
C50 C -0.3099(3) 0.2125(4) 0.0015(2)
H36 H -0.3651 0.2218 0.0001
H37 H -0.3002 0.1547 0.0137
C51 C -0.2864(3) 0.2220(3) -0.0600(2)
C52 C -0.2105(3) 0.2182(3) -0.0715(2)
H38 H -0.1719 0.2130 -0.0409
C53 C -0.3405(3) 0.2300(3) -0.1073(2)
H39 H -0.3925 0.2338 -0.1016
C54 C -0.1914(3) 0.2219(3) -0.1276(2)
H40 H -0.1395 0.2201 -0.1339
C55 C -0.3183(3) 0.2324(3) -0.1633(2)
H41 H -0.3561 0.2373 -0.1944
C56 C -0.0532(3) 0.3023(3) -0.2447(2)
H42 H -0.0813 0.3522 -0.2466
C57 C -0.0485(3) 0.1608(3) -0.2382(2)
H43 H -0.0733 0.1092 -0.2360
C58 C 0.0303(3) 0.1604(3) -0.2357(2)
H44 H 0.0575 0.1100 -0.2312
C59 C 0.0250(3) 0.3072(3) -0.2431(2)
H45 H 0.0486 0.3596 -0.2442
C60 C 0.0691(3) 0.2358(4) -0.2399(2)
C61 C 0.1560(3) 0.2409(4) -0.2377(2)
H46 H 0.1709 0.2860 -0.2627
H47 H 0.1766 0.1885 -0.2512
C62 C 0.1865(3) 0.2571(4) -0.1774(2)
H48 H 0.1597 0.3054 -0.1635
H49 H 0.1742 0.2091 -0.1540
C63 C 0.2748(3) 0.2736(3) -0.1665(2)
H50 H 0.2876 0.3270 -0.1835
H51 H 0.3031 0.2294 -0.1842
C64 C 0.2958(2) 0.2751(4) -0.1023(2)
C65 C 0.3094(3) 0.2019(3) -0.0708(3)
H52 H 0.3104 0.1505 -0.0900
C66 C 0.2944(3) 0.3484(3) -0.0702(2)
H53 H 0.2853 0.3995 -0.0893
C67 C 0.3063(3) 0.3466(3) -0.0107(2)
H54 H 0.3054 0.3972 0.0095
C68 C 0.3215(3) 0.2050(3) -0.0107(3)
H55 H 0.3318 0.1550 0.0096
N1 N -0.5420(2) 0.2674(2) 0.11128(15)
N2 N -0.0921(2) 0.2293(3) -0.24359(15)
N3 N -0.2442(2) 0.2280(2) -0.17439(15)
N4 N 0.3190(2) 0.2763(3) 0.01935(16)
O1 O -0.28709(18) 0.2208(2) -0.38902(15)
O2 O -0.32498(18) 0.2189(2) -0.29999(15)
O3 O -0.16048(18) 0.11048(18) -0.36238(15)
O4 O -0.20970(18) 0.09748(17) -0.27711(15)
O5 O -0.16816(18) 0.34376(17) -0.36553(15)
O6 O -0.21969(18) 0.35418(18) -0.28090(16)
O7 O -0.5195(2) 0.3260(2) -0.43222(17)
O8 O -0.1953(2) -0.04684(19) -0.45752(16)
O9 O -0.1789(3) 0.5037(2) -0.45761(17)
Zn2_2 Zn 0.33328(3) 0.27391(3) 0.10808(2)
Zn2C Zn -0.16672(3) 0.22609(3) -0.39192(2)
N4_2 N -0.6810(2) 0.2763(3) 0.01935(16)
O1C O -0.78709(18) 0.2792(2) 0.11098(15)
O3C O -0.66048(18) 0.38952(18) 0.13762(15)
O5C O -0.66816(18) 0.15624(17) 0.13447(15)
C69 C -1.1960(8) 0.4741(8) 0.1444(6)
H56 H -1.2058 0.5295 0.1586
H57 H -1.2196 0.4331 0.1676
H58 H -1.2172 0.4694 0.1045
O14 O -1.1252(8) 0.4616(9) 0.1477(6)
H59 H -1.1157 0.4258 0.1238
Cl1 Cl -1.25927(15) 0.99682(14) 0.20143(19)
O10 O -1.3012(3) 0.9289(3) 0.2091(3)
O11 O -1.2846(5) 1.0655(4) 0.2079(5)
O12 O -1.1964(8) 0.9740(6) 0.1757(6)
O13 O -1.2004(8) 0.9975(7) 0.2559(6)
loop_
_geom_bond_atom_site_label_1
_geom_bond_atom_site_label_2
_geom_bond_site_symmetry_1
_geom_bond_site_symmetry_2
Zn1 N2 1_555 1_555
Zn2 N1 1_555 1_555
C1 C2 1_555 1_555
C2 H1 1_555 1_555
C3 C2 1_555 1_555
C4 C3 1_555 1_555
H2 C4 1_555 1_555
C5 C4 1_555 1_555
H3 C5 1_555 1_555
C6 C5 1_555 1_555
H4 C6 1_555 1_555
C7 C6 1_555 1_555
H5 C7 1_555 1_555
C8 C3 1_555 1_555
C9 C10 1_555 1_555
C10 H6 1_555 1_555
C11 C10 1_555 1_555
H7 C11 1_555 1_555
C12 C11 1_555 1_555
H8 C12 1_555 1_555
C13 C12 1_555 1_555
H9 C13 1_555 1_555
C14 C2 1_555 1_555
C15 C16 1_555 1_555
C16 H10 1_555 1_555
C17 C16 1_555 1_555
C18 C17 1_555 1_555
H11 C18 1_555 1_555
C19 C18 1_555 1_555
H12 C19 1_555 1_555
C20 C19 1_555 1_555
H13 C20 1_555 1_555
C21 C20 1_555 1_555
H14 C21 1_555 1_555
C22 C17 1_555 1_555
C23 C24 1_555 1_555
C24 H15 1_555 1_555
C25 C24 1_555 1_555
H16 C25 1_555 1_555
C26 C25 1_555 1_555
H17 C26 1_555 1_555
C27 C26 1_555 1_555
H18 C27 1_555 1_555
C28 C16 1_555 1_555
C29 C30 1_555 1_555
C30 H19 1_555 1_555
C31 C30 1_555 1_555
C32 C31 1_555 1_555
H20 C32 1_555 1_555
C33 C32 1_555 1_555
H21 C33 1_555 1_555
C34 C33 1_555 1_555
H22 C34 1_555 1_555
C35 C34 1_555 1_555
H23 C35 1_555 1_555
C36 C31 1_555 1_555
C37 C38 1_555 1_555
C38 H24 1_555 1_555
C39 C38 1_555 1_555
H25 C39 1_555 1_555
C40 C39 1_555 1_555
H26 C40 1_555 1_555
C41 C40 1_555 1_555
H27 C41 1_555 1_555
C42 C30 1_555 1_555
C43 H28 1_555 1_555
C44 H29 1_555 1_555
C45 C43 1_555 1_555
H30 C45 1_555 1_555
C46 C44 1_555 1_555
H31 C46 1_555 1_555
C47 C45 1_555 1_555
C48 C47 1_555 1_555
H32 C48 1_555 1_555
H33 C48 1_555 1_555
C49 C48 1_555 1_555
H34 C49 1_555 1_555
H35 C49 1_555 1_555
C50 C49 1_555 1_555
H36 C50 1_555 1_555
H37 C50 1_555 1_555
C51 C50 1_555 1_555
C52 C51 1_555 1_555
H38 C52 1_555 1_555
C53 C51 1_555 1_555
H39 C53 1_555 1_555
C54 C52 1_555 1_555
H40 C54 1_555 1_555
C55 C53 1_555 1_555
H41 C55 1_555 1_555
C56 H42 1_555 1_555
C57 H43 1_555 1_555
C58 C57 1_555 1_555
H44 C58 1_555 1_555
C59 C56 1_555 1_555
H45 C59 1_555 1_555
C60 C58 1_555 1_555
C61 C60 1_555 1_555
H46 C61 1_555 1_555
H47 C61 1_555 1_555
C62 C61 1_555 1_555
H48 C62 1_555 1_555
H49 C62 1_555 1_555
C63 C62 1_555 1_555
H50 C63 1_555 1_555
H51 C63 1_555 1_555
C64 C63 1_555 1_555
C65 C64 1_555 1_555
H52 C65 1_555 1_555
C66 C64 1_555 1_555
H53 C66 1_555 1_555
C67 C66 1_555 1_555
H54 C67 1_555 1_555
C68 C65 1_555 1_555
H55 C68 1_555 1_555
C69 H56 1_555 1_555
H57 C69 1_555 1_555
H58 C69 1_555 1_555
N1 C43 1_555 1_555
N2 C56 1_555 1_555
N3 Zn1 1_555 1_555
N4 C67 1_555 1_555
Cl1 O10 1_555 1_555
O1 C1 1_555 1_555
O2 Zn1 1_555 1_555
O3 C15 1_555 1_555
O4 Zn1 1_555 1_555
O5 C29 1_555 1_555
O6 Zn1 1_555 1_555
O7 C8 1_555 1_555
O8 C22 1_555 1_555
O9 C36 1_555 1_555
O11 Cl1 1_555 1_555
O12 Cl1 1_555 1_555
O13 Cl1 1_555 1_555
O14 C69 1_555 1_555
H59 O14 1_555 1_555
Zn2_2 N4 1_555 1_555
Zn2C O1 1_555 1_555
N4_2 Zn2 1_555 1_555
O1C Zn2 1_555 1_555
O3C Zn2 1_555 1_555
O5C Zn2 1_555 1_555
C1 O2 1_555 1_555
C7 C8 1_555 1_555
C9 C14 1_555 1_555
C9 O7 1_555 1_555
C13 C14 1_555 1_555
C15 O4 1_555 1_555
C21 C22 1_555 1_555
C23 C28 1_555 1_555
C23 O8 1_555 1_555
C27 C28 1_555 1_555
C29 O6 1_555 1_555
C35 C36 1_555 1_555
C37 C42 1_555 1_555
C37 O9 1_555 1_555
C41 C42 1_555 1_555
C44 N1 1_555 1_555
C46 C47 1_555 1_555
C54 N3 1_555 1_555
C55 N3 1_555 1_555
C57 N2 1_555 1_555
C59 C60 1_555 1_555
C68 N4 1_555 1_555
O3 Zn2C 1_555 1_555
O5 Zn2C 1_555 1_555

#END
