
#######################################################################
#
#                 Cambridge Crystallographic Data Centre
#                                CCDC 
#
#######################################################################
#
# If this CIF has been generated from an entry in the Cambridge 
# Structural Database, then it will include bibliographic, chemical, 
# crystal, experimental, refinement or atomic coordinate data resulting 
# from the CCDC's data processing and validation procedures.
#
#######################################################################

data_EYUBAC
_symmetry_cell_setting           monoclinic
_symmetry_space_group_name_H-M   'P 21/c'
_symmetry_Int_Tables_number      14
_space_group_name_Hall           '-P 2ybc'
loop_
_symmetry_equiv_pos_site_id
_symmetry_equiv_pos_as_xyz
1 x,y,z
2 -x,1/2+y,1/2-z
3 -x,-y,-z
4 x,1/2-y,1/2+z
_cell_length_a                   13.3278(17)
_cell_length_b                   8.2658(10)
_cell_length_c                   10.1631(13)
_cell_angle_alpha                90
_cell_angle_beta                 97.450(2)
_cell_angle_gamma                90
_cell_volume                     1110.17
loop_
_atom_site_label
_atom_site_type_symbol
_atom_site_fract_x
_atom_site_fract_y
_atom_site_fract_z
Mn1 Mn 0.5000 0.5000 0.0000
P1 P 0.45038(13) 0.31026(19) -0.29420(16)
N1 N 0.2478(5) 0.2435(9) -0.5237(6)
H1 H 0.2998 0.1999 -0.5671
O1 O 0.4244(4) 0.3365(6) -0.1562(4)
O2 O 0.4459(3) 0.1387(5) -0.3429(4)
O3 O 0.5609(4) 0.3729(6) -0.3049(5)
O4 O 0.3600(4) 0.6373(7) -0.0153(6)
H2 H 0.3441 0.6732 -0.0840
H3 H 0.3201 0.6432 0.0340
C1 C 0.3702(6) 0.4318(9) -0.4139(7)
H4 H 0.3684 0.5428 -0.3804
H5 H 0.4000 0.4350 -0.4971
C2 C 0.2649(6) 0.3694(10) -0.4414(7)
C3 C 0.1834(8) 0.4325(13) -0.3867(9)
H6 H 0.1925 0.5211 -0.3284
C4 C 0.0892(8) 0.3646(18) -0.4183(11)
H7 H 0.0335 0.4090 -0.3828
C5 C 0.0755(8) 0.2344(19) -0.5001(11)
H8 H 0.0111 0.1870 -0.5198
C6 C 0.1572(7) 0.1726(14) -0.5537(9)
H9 H 0.1495 0.0824 -0.6104
Mn1A Mn 0.5000 0.0000 -0.5000
Mn1A_2 Mn 0.5000 1.0000 0.5000
P1B P 0.54962(13) 0.68974(19) 0.29420(16)
N1B N 0.7522(5) 0.7565(9) 0.5237(6)
H1B H 0.7002 0.8001 0.5671
O1B O 0.5756(4) 0.6635(6) 0.1562(4)
O2B O 0.5541(3) 0.8613(5) 0.3429(4)
O2A O 0.5541(3) 0.6387(5) -0.1571(4)
O2C O 0.4459(3) 0.3613(5) 0.1571(4)
O3B O 0.4391(4) 0.6271(6) 0.3049(5)
O4B O 0.6400(4) 0.3627(7) 0.0153(6)
H2B H 0.6559 0.3268 0.0840
H3B H 0.6799 0.3568 -0.0340
C1B C 0.6298(6) 0.5682(9) 0.4139(7)
H4B H 0.6316 0.4572 0.3804
H5B H 0.6000 0.5650 0.4971
C2B C 0.7351(6) 0.6306(10) 0.4414(7)
C3B C 0.8166(8) 0.5675(13) 0.3867(9)
H6B H 0.8075 0.4789 0.3284
C4B C 0.9108(8) 0.6354(18) 0.4183(11)
H7B H 0.9665 0.5910 0.3828
C5B C 0.9245(8) 0.7656(19) 0.5001(11)
H8B H 0.9889 0.8130 0.5198
C6B C 0.8428(7) 0.8274(14) 0.5537(9)
H9B H 0.8505 0.9176 0.6104
Cl1 Cl 0.17368(14) -0.0878(3) -0.26714(19)
O5 O 0.0753(5) -0.0213(11) -0.2688(8)
O6 O 0.1829(6) -0.1614(10) -0.3925(7)
O7 O 0.2455(6) 0.0452(9) -0.2508(8)
O8 O 0.1942(7) -0.1977(14) -0.1636(9)
loop_
_geom_bond_atom_site_label_1
_geom_bond_atom_site_label_2
_geom_bond_site_symmetry_1
_geom_bond_site_symmetry_2
Mn1 O1 1_555 1_555
Cl1 O5 1_555 1_555
P1 O1 1_555 1_555
N1 H1 1_555 1_555
O2 P1 1_555 1_555
O3 P1 1_555 1_555
O4 Mn1 1_555 1_555
H2 O4 1_555 1_555
H3 O4 1_555 1_555
O6 Cl1 1_555 1_555
O7 Cl1 1_555 1_555
O8 Cl1 1_555 1_555
C1 P1 1_555 1_555
H4 C1 1_555 1_555
H5 C1 1_555 1_555
C2 N1 1_555 1_555
C3 C2 1_555 1_555
H6 C3 1_555 1_555
C4 C3 1_555 1_555
H7 C4 1_555 1_555
C5 C4 1_555 1_555
H8 C5 1_555 1_555
C6 N1 1_555 1_555
H9 C6 1_555 1_555
Mn1A O2 1_555 1_555
Mn1A_2 O2B 1_555 1_555
P1B O1B 1_555 1_555
N1B H1B 1_555 1_555
O1B Mn1 1_555 1_555
O2B P1B 1_555 1_555
O2A Mn1 1_555 1_555
O2C Mn1 1_555 1_555
O3B P1B 1_555 1_555
O4B Mn1 1_555 1_555
H2B O4B 1_555 1_555
H3B O4B 1_555 1_555
C1B P1B 1_555 1_555
H4B C1B 1_555 1_555
H5B C1B 1_555 1_555
C2B N1B 1_555 1_555
C3B C2B 1_555 1_555
H6B C3B 1_555 1_555
C4B C3B 1_555 1_555
H7B C4B 1_555 1_555
C5B C4B 1_555 1_555
H8B C5B 1_555 1_555
C6B N1B 1_555 1_555
H9B C6B 1_555 1_555
C1 C2 1_555 1_555
C5 C6 1_555 1_555
C1B C2B 1_555 1_555
C5B C6B 1_555 1_555

#END
