
#######################################################################
#
#                 Cambridge Crystallographic Data Centre
#                                CCDC 
#
#######################################################################
#
# If this CIF has been generated from an entry in the Cambridge 
# Structural Database, then it will include bibliographic, chemical, 
# crystal, experimental, refinement or atomic coordinate data resulting 
# from the CCDC's data processing and validation procedures.
#
#######################################################################

data_EYUHAI
_symmetry_cell_setting           triclinic
_symmetry_space_group_name_H-M   'P -1'
_symmetry_Int_Tables_number      2
_space_group_name_Hall           '-P 1'
loop_
_symmetry_equiv_pos_site_id
_symmetry_equiv_pos_as_xyz
1 x,y,z
2 -x,-y,-z
_cell_length_a                   5.0585(3)
_cell_length_b                   12.4647(7)
_cell_length_c                   20.8241(9)
_cell_angle_alpha                90.848(4)
_cell_angle_beta                 90.047(4)
_cell_angle_gamma                90.770(5)
_cell_volume                     1312.75
loop_
_atom_site_label
_atom_site_type_symbol
_atom_site_fract_x
_atom_site_fract_y
_atom_site_fract_z
Mn1 Mn -0.3286(2) 0.33762(9) 0.35246(5)
Mn2 Mn 0.1190(2) 0.17896(9) 0.31082(5)
Mn3 Mn -0.8394(2) 1.17161(9) 0.15472(5)
Mn4 Mn -0.3817(2) 0.33754(8) 0.19430(5)
O1 O -0.4226(11) 0.5003(4) 0.3444(3)
O2 O 0.4019(10) 0.2019(4) 0.2365(2)
O3 O -0.6071(11) 0.4592(4) 0.2511(3)
O4 O -0.0950(9) 0.3159(4) 0.2691(2)
O5 O -1.1264(11) 1.0730(5) 0.2503(3)
O6 O -0.9508(11) 1.0036(4) 0.1613(3)
O7 O -0.0752(10) 0.3729(4) 0.4297(2)
O8 O 0.2768(10) 0.3016(4) 0.3822(2)
O9 O 0.6236(10) -0.0729(4) 0.6397(2)
O10 O 0.2469(10) -0.1682(4) 0.6324(2)
O11 O -0.5854(10) 1.1313(4) 0.0789(2)
O12 O -0.2288(10) 1.2064(4) 0.1230(2)
O13 O 0.1206(10) 1.5631(4) -0.1404(2)
O14 O -0.2538(10) 1.6576(4) -0.1377(2)
C1 C -0.5755(15) 0.5208(6) 0.2989(3)
C2 C -0.7279(18) 0.6244(7) 0.3047(4)
H1 H -0.8471 0.6183 0.3410
H2 H -0.6030 0.6820 0.3147
C3 C -0.8863(17) 0.6565(6) 0.2476(4)
H3 H -1.0211 0.6022 0.2387
H4 H -0.7714 0.6606 0.2104
C4 C -1.0193(17) 0.7661(6) 0.2587(4)
H5 H -1.1308 0.7624 0.2965
H6 H -0.8840 0.8206 0.2667
C5 C -1.1868(17) 0.7986(6) 0.2011(4)
H7 H -1.0764 0.7998 0.1630
H8 H -1.3255 0.7452 0.1940
C6 C -1.3100(17) 0.9069(6) 0.2105(4)
H9 H -1.3976 0.9090 0.2519
H10 H -1.4437 0.9162 0.1777
C7 C -1.1131(15) 0.9995(6) 0.2074(3)
C8 C 0.1608(14) 0.3492(5) 0.4300(3)
C9 C 0.3249(15) 0.3766(6) 0.4886(3)
H11 H 0.2117 0.4088 0.5209
H12 H 0.4578 0.4297 0.4770
C10 C 0.4640(15) 0.2795(6) 0.5180(3)
H13 H 0.5787 0.2478 0.4858
H14 H 0.5744 0.3046 0.5534
C11 C 0.2741(15) 0.1933(6) 0.5424(3)
H15 H 0.1535 0.2250 0.5732
H16 H 0.1704 0.1644 0.5067
C12 C 0.4242(15) 0.1027(6) 0.5740(3)
H17 H 0.5174 0.1311 0.6114
H18 H 0.5547 0.0753 0.5441
C13 C 0.2444(14) 0.0119(6) 0.5942(3)
H19 H 0.1161 0.0397 0.6245
H20 H 0.1482 -0.0147 0.5568
C14 C 0.3879(14) -0.0819(5) 0.6249(3)
C15 C -0.3486(14) 1.1544(5) 0.0772(3)
C16 C -0.1866(14) 1.1226(5) 0.0192(3)
H21 H -0.3013 1.0874 -0.0122
H22 H -0.0547 1.0714 0.0321
C17 C -0.0470(15) 1.2188(6) -0.0123(3)
H23 H 0.0701 1.2528 0.0190
H24 H 0.0613 1.1924 -0.0474
C18 C -0.2316(15) 1.3024(6) -0.0379(4)
H25 H -0.3394 1.3299 -0.0030
H26 H -0.3488 1.2692 -0.0695
C19 C -0.0817(14) 1.3949(6) -0.0685(3)
H27 H 0.0431 1.4248 -0.0375
H28 H 0.0186 1.3674 -0.1047
C20 C -0.2605(14) 1.4841(5) -0.0916(3)
H29 H -0.3523 1.5145 -0.0549
H30 H -0.3927 1.4531 -0.1204
C21 C -0.1158(14) 1.5734(5) -0.1259(3)
H31 H 0.046(11) 0.350(6) 0.261(4)
H32 H 0.509(14) 0.151(5) 0.238(4)
Mn1_2 Mn 0.6714(2) 0.33762(9) 0.35246(5)
Mn1A Mn 0.3286(2) -0.33762(9) 0.64754(5)
Mn2_2 Mn -0.8810(2) 1.17896(9) 0.31082(5)
Mn2A Mn 0.8810(2) -0.17896(9) 0.68918(5)
Mn2A_2 Mn -0.1190(2) -0.17896(9) 0.68918(5)
Mn3_2 Mn 0.1606(2) 0.17161(9) 0.15472(5)
Mn3_3 Mn 0.1606(2) 1.17161(9) 0.15472(5)
Mn3A Mn -0.1606(2) 1.82839(9) -0.15472(5)
Mn4_2 Mn 0.6183(2) 0.33754(8) 0.19430(5)
Mn4_3 Mn -0.3817(2) 1.33754(8) 0.19430(5)
Mn4A Mn 0.3817(2) 1.66246(8) -0.19430(5)
Mn4A_2 Mn -0.6183(2) 1.66246(8) -0.19430(5)
O2_2 O -0.5981(10) 1.2019(4) 0.2365(2)
O2_3 O -0.5981(10) 0.2019(4) 0.2365(2)
O5_2 O -0.1264(11) 0.0730(5) 0.2503(3)
O8_2 O -0.7232(10) 0.3016(4) 0.3822(2)
O9A O 0.3764(10) 0.0729(4) 0.3603(2)
O10A O -0.2469(10) 0.1682(4) 0.3676(2)
O12_2 O -1.2288(10) 1.2064(4) 0.1230(2)
O12_3 O -0.2288(10) 0.2064(4) 0.1230(2)
O13A O -0.1206(10) 0.4369(4) 0.1404(2)
O14A O -0.7462(10) 1.3424(4) 0.1377(2)
O14A_2 O -0.7462(10) 0.3424(4) 0.1377(2)
H32_2 H -0.491(14) 1.151(5) 0.238(4)
H32_3 H -0.491(14) 0.151(5) 0.238(4)
loop_
_geom_bond_atom_site_label_1
_geom_bond_atom_site_label_2
_geom_bond_site_symmetry_1
_geom_bond_site_symmetry_2
Mn1 O1 1_555 1_555
Mn2 O2 1_555 1_555
Mn3 O6 1_555 1_555
Mn4 O3 1_555 1_555
O1 C1 1_555 1_555
O2 H32 1_555 1_555
O3 C1 1_555 1_555
O4 Mn1 1_555 1_555
O5 C7 1_555 1_555
O6 C7 1_555 1_555
O7 Mn1 1_555 1_555
O8 Mn2 1_555 1_555
O9 C14 1_555 1_555
O10 C14 1_555 1_555
O11 Mn3 1_555 1_555
O12 C15 1_555 1_555
O13 C21 1_555 1_555
O14 C21 1_555 1_555
C1 C2 1_555 1_555
C2 H1 1_555 1_555
H2 C2 1_555 1_555
C3 C2 1_555 1_555
H3 C3 1_555 1_555
H4 C3 1_555 1_555
C4 C3 1_555 1_555
H5 C4 1_555 1_555
H6 C4 1_555 1_555
C5 C4 1_555 1_555
H7 C5 1_555 1_555
H8 C5 1_555 1_555
C6 C5 1_555 1_555
H9 C6 1_555 1_555
H10 C6 1_555 1_555
C7 C6 1_555 1_555
C8 O7 1_555 1_555
C9 C8 1_555 1_555
H11 C9 1_555 1_555
H12 C9 1_555 1_555
C10 C9 1_555 1_555
H13 C10 1_555 1_555
H14 C10 1_555 1_555
C11 C10 1_555 1_555
H15 C11 1_555 1_555
H16 C11 1_555 1_555
C12 C11 1_555 1_555
H17 C12 1_555 1_555
H18 C12 1_555 1_555
C13 C12 1_555 1_555
H19 C13 1_555 1_555
H20 C13 1_555 1_555
C14 C13 1_555 1_555
C15 O11 1_555 1_555
C16 C15 1_555 1_555
H21 C16 1_555 1_555
H22 C16 1_555 1_555
C17 C16 1_555 1_555
H23 C17 1_555 1_555
H24 C17 1_555 1_555
C18 C17 1_555 1_555
H25 C18 1_555 1_555
H26 C18 1_555 1_555
C19 C18 1_555 1_555
H27 C19 1_555 1_555
H28 C19 1_555 1_555
C20 C19 1_555 1_555
H29 C20 1_555 1_555
H30 C20 1_555 1_555
C21 C20 1_555 1_555
H31 O4 1_555 1_555
Mn1_2 O8 1_555 1_555
Mn1A O10 1_555 1_555
Mn2_2 O5 1_555 1_555
Mn2A O9 1_555 1_555
Mn2A_2 O10 1_555 1_555
Mn3_2 O2 1_555 1_555
Mn3_3 O12 1_555 1_555
Mn3A O14 1_555 1_555
Mn4_2 O2 1_555 1_555
Mn4_3 O12 1_555 1_555
Mn4A O13 1_555 1_555
Mn4A_2 O14 1_555 1_555
O2_2 Mn3 1_555 1_555
O2_3 Mn4 1_555 1_555
O5_2 Mn2 1_555 1_555
O8_2 Mn1 1_555 1_555
O9A Mn2 1_555 1_555
O10A Mn1 1_555 1_555
O12_2 Mn3 1_555 1_555
O12_3 Mn4 1_555 1_555
O13A Mn4 1_555 1_555
O14A Mn3 1_555 1_555
O14A_2 Mn4 1_555 1_555
H32_2 O2_2 1_555 1_555
H32_3 O2_3 1_555 1_555
Mn2 O4 1_555 1_555
Mn2 O10A 1_555 1_555
Mn4 O4 1_555 1_555
O8 C8 1_555 1_555
Mn2_2 O2_2 1_555 1_555
Mn3_2 O12_3 1_555 1_555
Mn4_3 O2_2 1_555 1_555
Mn4_3 O14A 1_555 1_555

#END
