
#######################################################################
#
#                 Cambridge Crystallographic Data Centre
#                                CCDC 
#
#######################################################################
#
# If this CIF has been generated from an entry in the Cambridge 
# Structural Database, then it will include bibliographic, chemical, 
# crystal, experimental, refinement or atomic coordinate data resulting 
# from the CCDC's data processing and validation procedures.
#
#######################################################################

data_EYUKOZ
_symmetry_cell_setting           tetragonal
_symmetry_space_group_name_H-M   'P 42'
_symmetry_Int_Tables_number      77
_space_group_name_Hall           'P 4c'
loop_
_symmetry_equiv_pos_site_id
_symmetry_equiv_pos_as_xyz
1 x,y,z
2 -x,-y,z
3 -y,x,1/2+z
4 y,-x,1/2+z
_cell_length_a                   14.791(4)
_cell_length_b                   14.791(4)
_cell_length_c                   5.696(3)
_cell_angle_alpha                90
_cell_angle_beta                 90
_cell_angle_gamma                90
_cell_volume                     1246.13
loop_
_atom_site_label
_atom_site_type_symbol
_atom_site_fract_x
_atom_site_fract_y
_atom_site_fract_z
Mn1 Mn 0.70780(5) 0.66095(5) 1.00601(14)
Mn2 Mn 0.81854(5) 0.80331(5) 0.36939(14)
P1 P 0.79489(8) 0.58029(8) 0.5023(2)
P2 P 0.72660(8) 0.87524(8) 0.8677(2)
O1 O 0.8754(2) 0.5234(2) 0.4153(7)
H1 H 0.8694 0.4710 0.4598
O2 O 0.8042(2) 0.6088(2) 0.7573(6)
O3 O 0.7824(2) 0.6598(2) 0.3358(6)
O4 O 0.7014(3) 0.4338(2) 0.6469(6)
H2 H 0.6945 0.4530 0.7809
O5 O 0.6766(2) 0.3832(2) 0.2175(6)
O6 O 0.6755(3) 0.5207(2) 0.0676(6)
O7 O 0.7561(2) 0.7980(2) 1.0291(6)
O8 O 0.7214(2) 0.8498(2) 0.6127(6)
O9 O 0.6401(2) 0.9202(2) 0.9558(6)
H3 H 0.5963 0.8898 0.9165
O10 O 0.7966(2) 1.0347(2) 0.7265(6)
H4 H 0.8061 1.0159 0.5934
O11 O 0.8332(2) 0.9535(2) 1.3071(6)
O12 O 0.7984(3) 1.0870(2) 1.1558(7)
C1 C 0.6939(3) 0.5075(3) 0.4826(10)
H7 H 0.6404 0.5435 0.5219
C2 C 0.6817(3) 0.4678(3) 0.2396(9)
C3 C 0.8137(3) 0.9638(3) 0.8933(9)
H8 H 0.8730 0.9371 0.8605
C4 C 0.8152(3) 1.0055(3) 1.1355(9)
Mn1_2 Mn 0.70780(5) 0.66095(5) 2.00601(14)
Mn1_3 Mn 0.70780(5) 0.66095(5) 0.00601(14)
Mn1C Mn 0.66095(5) 0.29220(5) 0.50601(14)
Mn1C_2 Mn 0.66095(5) 0.29220(5) 1.50601(14)
Mn2_2 Mn 0.81854(5) 0.80331(5) 1.36939(14)
Mn2C Mn 0.80331(5) 1.18146(5) 0.86939(14)
Mn2_3 Mn 0.81854(5) 0.80331(5) -0.63061(14)
Mn2C_2 Mn 0.80331(5) 1.18146(5) -0.13061(14)
P1_2 P 0.79489(8) 0.58029(8) 1.5023(2)
P2_2 P 0.72660(8) 0.87524(8) -0.1323(2)
O1_2 O 0.8754(2) 0.5234(2) 1.4153(7)
H1_2 H 0.8694 0.4710 1.4598
O2_2 O 0.8042(2) 0.6088(2) 1.7573(6)
O3_2 O 0.7824(2) 0.6598(2) 1.3358(6)
O3_3 O 0.7824(2) 0.6598(2) 2.3358(6)
O4_2 O 0.7014(3) 0.4338(2) 1.6469(6)
O4B O 0.5662(2) 0.7014(3) 1.1469(6)
O4B_2 O 0.5662(2) 0.7014(3) 2.1469(6)
H2_2 H 0.6945 0.4530 1.7809
H2B H 0.5470 0.6945 1.2809
H2B_2 H 0.5470 0.6945 2.2809
O5_2 O 0.6766(2) 0.3832(2) 1.2175(6)
O5B O 0.6168(2) 0.6766(2) 0.7175(6)
O5B_2 O 0.6168(2) 0.6766(2) 1.7175(6)
O6_2 O 0.6755(3) 0.5207(2) 1.0676(6)
O6_3 O 0.6755(3) 0.5207(2) 2.0676(6)
O7_2 O 0.7561(2) 0.7980(2) 0.0291(6)
O7_3 O 0.7561(2) 0.7980(2) 2.0291(6)
O8_2 O 0.7214(2) 0.8498(2) -0.3873(6)
O8_3 O 0.7214(2) 0.8498(2) 1.6127(6)
O9_2 O 0.6401(2) 0.9202(2) -0.0442(6)
H3_2 H 0.5963 0.8898 -0.0835
O10_2 O 0.7966(2) 1.0347(2) -0.2735(6)
O10B O 0.9653(2) 0.7966(2) 0.2265(6)
O10B_2 O 0.9653(2) 0.7966(2) 1.2265(6)
H4_2 H 0.8061 1.0159 -0.4066
H4B H 0.9841 0.8061 0.0934
H4B_2 H 0.9841 0.8061 1.0934
O11_2 O 0.8332(2) 0.9535(2) 0.3071(6)
O12_2 O 0.7984(3) 1.0870(2) 0.1558(7)
O12B O 0.9130(2) 0.7984(3) 0.6558(7)
O12B_2 O 0.9130(2) 0.7984(3) 1.6558(7)
C1_2 C 0.6939(3) 0.5075(3) 1.4826(10)
H7_2 H 0.6404 0.5435 1.5219
C2_2 C 0.6817(3) 0.4678(3) 1.2396(9)
C3_2 C 0.8137(3) 0.9638(3) -0.1067(9)
H8_2 H 0.8730 0.9371 -0.1395
C4_2 C 0.8152(3) 1.0055(3) 0.1355(9)
N1 N 0.3781(4) -0.0192(5) 0.4395(15)
H5 H 0.3346 0.0233 0.4410
H6 H 0.3733 -0.0525 0.3078
C5 C 0.4580(4) 0.0200(4) 0.4402(19)
H9 H 0.4577 0.0594 0.5765
H10 H 0.4578 0.0597 0.3046
N1A N 0.6219(4) 0.0192(5) 0.4395(15)
H5A H 0.6654 -0.0233 0.4410
H6A H 0.6267 0.0525 0.3078
C5A C 0.5420(4) -0.0200(4) 0.4402(19)
H9A H 0.5423 -0.0594 0.5765
H10A H 0.5422 -0.0597 0.3046
loop_
_geom_bond_atom_site_label_1
_geom_bond_atom_site_label_2
_geom_bond_site_symmetry_1
_geom_bond_site_symmetry_2
Mn1 O2 1_555 1_555
Mn2 O3 1_555 1_555
P1 O1 1_555 1_555
P2 O7 1_555 1_555
O1 H1 1_555 1_555
O2 P1 1_555 1_555
O3 P1 1_555 1_555
O4 H2 1_555 1_555
O5 C2 1_555 1_555
O6 C2 1_555 1_555
O7 Mn1 1_555 1_555
O8 Mn2 1_555 1_555
O9 P2 1_555 1_555
H3 O9 1_555 1_555
O10 H4 1_555 1_555
O11 C4 1_555 1_555
O12 C4 1_555 1_555
N1 H5 1_555 1_555
H6 N1 1_555 1_555
C1 P1 1_555 1_555
H7 C1 1_555 1_555
C2 C1 1_555 1_555
C3 P2 1_555 1_555
H8 C3 1_555 1_555
C4 C3 1_555 1_555
C5 N1 1_555 1_555
H9 C5 1_555 1_555
H10 C5 1_555 1_555
Mn1_2 O2_2 1_555 1_555
Mn1_3 O3 1_555 1_555
Mn1C O4 1_555 1_555
Mn1C_2 O4_2 1_555 1_555
Mn2_2 O7 1_555 1_555
Mn2C O10 1_555 1_555
Mn2_3 O8_2 1_555 1_555
Mn2C_2 O10_2 1_555 1_555
P1_2 O1_2 1_555 1_555
P2_2 O7_2 1_555 1_555
O1_2 H1_2 1_555 1_555
O2_2 P1_2 1_555 1_555
O3_2 Mn1 1_555 1_555
O3_3 Mn1_2 1_555 1_555
O4_2 H2_2 1_555 1_555
O4B Mn1 1_555 1_555
O4B_2 Mn1_2 1_555 1_555
H2B O4B 1_555 1_555
H2B_2 O4B_2 1_555 1_555
O5_2 Mn1C_2 1_555 1_555
O5B Mn1 1_555 1_555
O5B_2 Mn1_2 1_555 1_555
O6_2 Mn1 1_555 1_555
O6_3 Mn1_2 1_555 1_555
O7_2 Mn2 1_555 1_555
O7_3 Mn1_2 1_555 1_555
O8_2 P2_2 1_555 1_555
O8_3 Mn2_2 1_555 1_555
O9_2 P2_2 1_555 1_555
H3_2 O9_2 1_555 1_555
O10_2 H4_2 1_555 1_555
O10B Mn2 1_555 1_555
O10B_2 Mn2_2 1_555 1_555
H4B O10B 1_555 1_555
H4B_2 O10B_2 1_555 1_555
O11_2 Mn2 1_555 1_555
O12_2 Mn2C_2 1_555 1_555
O12B Mn2 1_555 1_555
O12B_2 Mn2_2 1_555 1_555
N1A H5A 1_555 1_555
H6A N1A 1_555 1_555
C1_2 P1_2 1_555 1_555
H7_2 C1_2 1_555 1_555
C2_2 O5_2 1_555 1_555
C3_2 P2_2 1_555 1_555
H8_2 C3_2 1_555 1_555
C4_2 O11_2 1_555 1_555
C5A C5 1_555 1_555
H9A C5A 1_555 1_555
H10A C5A 1_555 1_555
P2 O8 1_555 1_555
O4 C1 1_555 1_555
O5 Mn1C 1_555 1_555
O6 Mn1_3 1_555 1_555
O10 C3 1_555 1_555
O11 Mn2_2 1_555 1_555
O12 Mn2C 1_555 1_555
Mn1_3 O7_2 1_555 1_555
Mn2_2 O3_2 1_555 1_555
P1_2 O3_2 1_555 1_555
O4_2 C1_2 1_555 1_555
O6_2 C2_2 1_555 1_555
O10_2 C3_2 1_555 1_555
O12_2 C4_2 1_555 1_555
N1A C5A 1_555 1_555
C1_2 C2_2 1_555 1_555
C3_2 C4_2 1_555 1_555

#END
