
#######################################################################
#
#                 Cambridge Crystallographic Data Centre
#                                CCDC 
#
#######################################################################
#
# If this CIF has been generated from an entry in the Cambridge 
# Structural Database, then it will include bibliographic, chemical, 
# crystal, experimental, refinement or atomic coordinate data resulting 
# from the CCDC's data processing and validation procedures.
#
#######################################################################

data_EYUMAN
_symmetry_cell_setting           triclinic
_symmetry_space_group_name_H-M   'P -1'
_symmetry_Int_Tables_number      2
_space_group_name_Hall           '-P 1'
loop_
_symmetry_equiv_pos_site_id
_symmetry_equiv_pos_as_xyz
1 x,y,z
2 -x,-y,-z
_cell_length_a                   10.283(3)
_cell_length_b                   10.282(3)
_cell_length_c                   17.380(5)
_cell_angle_alpha                93.327(4)
_cell_angle_beta                 98.686(5)
_cell_angle_gamma                111.005(7)
_cell_volume                     1683.23
loop_
_atom_site_label
_atom_site_type_symbol
_atom_site_fract_x
_atom_site_fract_y
_atom_site_fract_z
Zn1 Zn 0.51969(5) 0.11066(5) 0.19810(3)
O1 O 0.5221(4) 0.2844(3) 0.15742(17)
O2 O 0.5223(4) 0.1644(3) 0.04727(19)
O3 O 0.5646(4) 0.1185(4) 0.31172(19)
O4 O 0.3730(4) 0.1539(4) 0.3338(2)
N1 N 0.1081(4) -0.1850(4) 0.1435(2)
N2 N 0.1538(5) -0.2155(5) 0.0780(3)
N3 N 0.3269(4) -0.0422(4) 0.1580(2)
N4 N -0.1922(4) -0.0430(4) 0.1241(2)
N5 N -0.1207(4) 0.0082(5) 0.1992(3)
N6 N -0.3231(4) 0.0460(4) 0.1775(2)
C1 C -0.0374(5) -0.2601(6) 0.1543(3)
H1 H -0.0526 -0.2183 0.2019
H2 H -0.0510 -0.3571 0.1602
C2 C -0.1446(6) -0.2557(6) 0.0858(3)
H3 H -0.2387 -0.3068 0.0959
H4 H -0.1333 -0.3047 0.0394
C3 C -0.1356(6) -0.1106(7) 0.0684(3)
H5 H -0.0372 -0.0523 0.0694
H6 H -0.1877 -0.1174 0.0159
C4 C 0.2109(5) -0.0818(5) 0.1903(3)
H7 H 0.2037 -0.0428 0.2383
C5 C 0.2846(6) -0.1276(6) 0.0894(3)
H8 H 0.3439 -0.1238 0.0535
C6 C -0.2048(5) 0.0592(5) 0.2281(3)
H9 H -0.1848 0.1012 0.2796
C7 C -0.3106(5) -0.0201(5) 0.1126(3)
H10 H -0.3763 -0.0463 0.0659
C8 C 0.5098(5) 0.3903(4) 0.0405(2)
C9 C 0.5502(5) 0.4056(5) -0.0322(3)
H11 H 0.5839 0.3421 -0.0541
C10 C 0.4600(5) 0.4842(5) 0.0722(3)
H12 H 0.4327 0.4742 0.1209
C11 C 0.5194(5) 0.2699(5) 0.0832(3)
C12 C 0.4893(5) 0.0594(5) 0.4304(2)
C13 C 0.6028(5) 0.0195(5) 0.4544(3)
H13 H 0.6719 0.0321 0.4236
C14 C 0.3856(5) 0.0390(5) 0.4763(3)
H14 H 0.3085 0.0646 0.4605
C15 C 0.4721(5) 0.1169(5) 0.3533(3)
Zn1A Zn 0.48031(5) 0.88934(5) -0.19810(3)
Zn1_2 Zn -0.48031(5) 0.11066(5) 0.19810(3)
Zn1A_2 Zn 0.48031(5) -0.11066(5) 0.80190(3)
Zn1A_3 Zn 1.48031(5) -0.11066(5) 0.80190(3)
O1A O 0.4779(4) 0.7156(3) -0.15742(17)
O1A_2 O 0.4779(4) -0.2844(3) 0.84258(17)
O2A O 0.4777(4) 0.8356(3) -0.04727(19)
O3A O 0.4354(4) -0.1185(4) 0.68828(19)
O4A O 0.6270(4) -0.1539(4) 0.6662(2)
N1A N 0.8919(4) 0.1850(4) 0.8565(2)
N2A N 0.8462(5) 0.2155(5) 0.9220(3)
N3A N 0.6731(4) 0.0422(4) 0.8420(2)
N4A N 1.1922(4) 0.0430(4) 0.8759(2)
N5A N 1.1207(4) -0.0082(5) 0.8008(3)
N6_2 N 0.6769(4) 0.0460(4) 0.1775(2)
N6A N 0.3231(4) -0.0460(4) 0.8225(2)
N6A_2 N 1.3231(4) -0.0460(4) 0.8225(2)
C1A C 1.0374(5) 0.2601(6) 0.8457(3)
H1A H 1.0526 0.2183 0.7981
H2A H 1.0510 0.3571 0.8398
C2A C 1.1446(6) 0.2557(6) 0.9142(3)
H3A H 1.2387 0.3068 0.9041
H4A H 1.1333 0.3047 0.9606
C3A C 1.1356(6) 0.1106(7) 0.9316(3)
H5A H 1.0372 0.0523 0.9306
H6A H 1.1877 0.1174 0.9841
C4A C 0.7891(5) 0.0818(5) 0.8097(3)
H7A H 0.7963 0.0428 0.7617
C5A C 0.7154(6) 0.1276(6) 0.9106(3)
H8A H 0.6561 0.1238 0.9465
C6A C 1.2048(5) -0.0592(5) 0.7719(3)
H9A H 1.1848 -0.1012 0.7204
C7A C 1.3106(5) 0.0201(5) 0.8874(3)
H10A H 1.3763 0.0463 0.9341
C8A C 0.4902(5) 0.6097(4) -0.0405(2)
C9A C 0.4498(5) 0.5944(5) 0.0322(3)
H11A H 0.4161 0.6579 0.0541
C10A C 0.5400(5) 0.5158(5) -0.0722(3)
H12A H 0.5673 0.5258 -0.1209
C11A C 0.4806(5) 0.7301(5) -0.0832(3)
C12A C 0.5107(5) -0.0594(5) 0.5696(2)
C13A C 0.3972(5) -0.0195(5) 0.5456(3)
H13A H 0.3281 -0.0321 0.5764
C14A C 0.6144(5) -0.0390(5) 0.5237(3)
H14A H 0.6915 -0.0646 0.5395
C15A C 0.5279(5) -0.1169(5) 0.6467(3)
Zn2 Zn 0.88008(6) 0.43526(6) 0.62337(3)
Cl1 Cl 1.06318(19) 0.59940(18) 0.70044(12)
O5 O 0.9234(4) 0.3082(4) 0.5538(2)
O6 O 0.9360(4) 0.2041(4) 0.6605(2)
N7 N 0.6793(4) 0.5150(4) 0.4152(3)
N8 N 0.6491(5) 0.6070(5) 0.4632(3)
N9 N 0.7807(5) 0.5076(5) 0.5336(3)
N10 N 0.4979(5) 0.7037(5) 0.2975(3)
N11 N 0.4146(6) 0.6691(6) 0.2256(3)
N12 N 0.2827(5) 0.6376(5) 0.3191(2)
C16 C 0.6254(6) 0.4892(6) 0.3313(3)
H15 H 0.5233 0.4620 0.3226
H16 H 0.6455 0.4109 0.3095
C17 C 0.6870(6) 0.6134(6) 0.2878(3)
H17 H 0.7893 0.6421 0.2982
H18 H 0.6546 0.5830 0.2320
C18 C 0.6511(6) 0.7388(6) 0.3075(4)
H19 H 0.6945 0.7782 0.3614
H20 H 0.6903 0.8095 0.2740
C19 C 0.7117(6) 0.5981(6) 0.5331(3)
H21 H 0.7091 0.6493 0.5784
C20 C 0.7575(6) 0.4575(6) 0.4574(3)
H22 H 0.7914 0.3925 0.4375
C21 C 0.2867(6) 0.6290(7) 0.2420(3)
H23 H 0.2053 0.5973 0.2034
C22 C 0.4186(6) 0.6860(6) 0.3524(3)
H24 H 0.4531 0.7046 0.4061
C23 C 0.9737(5) 0.1023(5) 0.5432(3)
C24 C 0.9927(5) -0.0087(5) 0.5782(3)
H25 H 0.9877 -0.0146 0.6309
C25 C 0.9810(5) 0.1107(5) 0.4649(3)
H26 H 0.9682 0.1851 0.4412
C26 C 0.9427(5) 0.2115(5) 0.5906(3)
Zn2A Zn 1.11992(6) -0.43526(6) 0.37663(3)
Zn2A_2 Zn 0.11992(6) 0.56474(6) 0.37663(3)
Cl1A Cl -0.06318(19) 0.40060(18) 0.29956(12)
O5A O 1.0766(4) -0.3082(4) 0.4462(2)
O5A_2 O 0.0766(4) 0.6918(4) 0.4462(2)
O6A O 1.0640(4) -0.2041(4) 0.3395(2)
N7A N 0.3207(4) 0.4850(4) 0.5848(3)
N8A N 0.3509(5) 0.3930(5) 0.5368(3)
N9A N 0.2193(5) 0.4924(5) 0.4664(3)
N10A N 0.5021(5) 0.2963(5) 0.7025(3)
N11A N 0.5854(6) 0.3309(6) 0.7744(3)
N12A N 0.7173(5) 0.3624(5) 0.6809(2)
C16A C 0.3746(6) 0.5108(6) 0.6687(3)
H15A H 0.4767 0.5380 0.6774
H16A H 0.3545 0.5891 0.6905
C17A C 0.3130(6) 0.3866(6) 0.7122(3)
H17A H 0.2107 0.3579 0.7018
H18A H 0.3454 0.4170 0.7680
C18A C 0.3489(6) 0.2612(6) 0.6925(4)
H19A H 0.3055 0.2218 0.6386
H20A H 0.3097 0.1905 0.7260
C19A C 0.2883(6) 0.4019(6) 0.4669(3)
H21A H 0.2909 0.3507 0.4216
C20A C 0.2425(6) 0.5425(6) 0.5426(3)
H22A H 0.2086 0.6075 0.5625
C21A C 0.7133(6) 0.3710(7) 0.7580(3)
H23A H 0.7947 0.4027 0.7966
C22A C 0.5814(6) 0.3140(6) 0.6476(3)
H24A H 0.5469 0.2954 0.5939
C23A C 1.0263(5) -0.1023(5) 0.4568(3)
C24A C 1.0073(5) 0.0087(5) 0.4218(3)
H25A H 1.0123 0.0146 0.3691
C25A C 1.0190(5) -0.1107(5) 0.5351(3)
H26A H 1.0318 -0.1851 0.5588
C26A C 1.0573(5) -0.2115(5) 0.4094(3)
O7 O 0.2331(12) 0.3103(11) 0.2670(7)
H27 H 0.266(12) 0.302(13) 0.226(4)
H28 H 0.168(9) 0.247(9) 0.281(7)
O8 O 0.141(2) 0.2113(15) 0.1050(8)
H29 H 0.187(11) 0.218(12) 0.151(3)
H30 H 0.087(12) 0.257(13) 0.110(9)
loop_
_geom_bond_atom_site_label_1
_geom_bond_atom_site_label_2
_geom_bond_site_symmetry_1
_geom_bond_site_symmetry_2
Zn1 O1 1_555 1_555
Zn2 Cl1 1_555 1_555
O1 C11 1_555 1_555
O2 C11 1_555 1_555
O3 Zn1 1_555 1_555
O4 C15 1_555 1_555
O5 Zn2 1_555 1_555
O6 C26 1_555 1_555
O7 H27 1_555 1_555
O8 H29 1_555 1_555
N1 N2 1_555 1_555
N2 C5 1_555 1_555
N3 Zn1 1_555 1_555
N4 N5 1_555 1_555
N5 C6 1_555 1_555
N6 C6 1_555 1_555
N7 N8 1_555 1_555
N8 C19 1_555 1_555
N9 Zn2 1_555 1_555
N10 N11 1_555 1_555
N11 C21 1_555 1_555
N12 C21 1_555 1_555
C1 N1 1_555 1_555
H1 C1 1_555 1_555
H2 C1 1_555 1_555
C2 C1 1_555 1_555
H3 C2 1_555 1_555
H4 C2 1_555 1_555
C3 N4 1_555 1_555
H5 C3 1_555 1_555
H6 C3 1_555 1_555
C4 N1 1_555 1_555
H7 C4 1_555 1_555
C5 N3 1_555 1_555
H8 C5 1_555 1_555
C6 H9 1_555 1_555
C7 N4 1_555 1_555
H10 C7 1_555 1_555
C8 C9 1_555 1_555
C9 H11 1_555 1_555
C10 C8 1_555 1_555
H12 C10 1_555 1_555
C11 C8 1_555 1_555
C12 C13 1_555 1_555
C13 H13 1_555 1_555
C14 C12 1_555 1_555
H14 C14 1_555 1_555
C15 O3 1_555 1_555
C16 N7 1_555 1_555
H15 C16 1_555 1_555
H16 C16 1_555 1_555
C17 C16 1_555 1_555
H17 C17 1_555 1_555
H18 C17 1_555 1_555
C18 N10 1_555 1_555
H19 C18 1_555 1_555
H20 C18 1_555 1_555
C19 N9 1_555 1_555
H21 C19 1_555 1_555
C20 N7 1_555 1_555
H22 C20 1_555 1_555
C21 H23 1_555 1_555
C22 N10 1_555 1_555
H24 C22 1_555 1_555
C23 C24 1_555 1_555
C24 H25 1_555 1_555
C25 C23 1_555 1_555
H26 C25 1_555 1_555
C26 O5 1_555 1_555
H28 O7 1_555 1_555
H30 O8 1_555 1_555
Zn1A O1A 1_555 1_555
Zn1_2 N6 1_555 1_555
Zn1A_2 O1A_2 1_555 1_555
Zn1A_3 N6A_2 1_555 1_555
Zn2A O5A 1_555 1_555
Zn2A_2 N12 1_555 1_555
Cl1A Zn2A_2 1_555 1_555
O1A C11A 1_555 1_555
O2A C11A 1_555 1_555
O3A Zn1A_2 1_555 1_555
O4A C15A 1_555 1_555
O5A C26A 1_555 1_555
O5A_2 Zn2A_2 1_555 1_555
O6A C26A 1_555 1_555
N1A N2A 1_555 1_555
N2A C5A 1_555 1_555
N3A Zn1A_2 1_555 1_555
N4A N5A 1_555 1_555
N5A C6A 1_555 1_555
N6_2 Zn1 1_555 1_555
N6A Zn1A_2 1_555 1_555
N6A_2 C6A 1_555 1_555
N7A N8A 1_555 1_555
N8A C19A 1_555 1_555
N9A Zn2A_2 1_555 1_555
N10A N11A 1_555 1_555
N11A C21A 1_555 1_555
N12A Zn2 1_555 1_555
C1A N1A 1_555 1_555
H1A C1A 1_555 1_555
H2A C1A 1_555 1_555
C2A C1A 1_555 1_555
H3A C2A 1_555 1_555
H4A C2A 1_555 1_555
C3A N4A 1_555 1_555
H5A C3A 1_555 1_555
H6A C3A 1_555 1_555
C4A N1A 1_555 1_555
H7A C4A 1_555 1_555
C5A N3A 1_555 1_555
H8A C5A 1_555 1_555
C6A H9A 1_555 1_555
C7A N4A 1_555 1_555
H10A C7A 1_555 1_555
C8A C9A 1_555 1_555
C9A C10 1_555 1_555
H11A C9A 1_555 1_555
C10A C9 1_555 1_555
H12A C10A 1_555 1_555
C11A C8A 1_555 1_555
C12A C13A 1_555 1_555
C13A C14 1_555 1_555
H13A C13A 1_555 1_555
C14A C13 1_555 1_555
H14A C14A 1_555 1_555
C15A O3A 1_555 1_555
C16A N7A 1_555 1_555
H15A C16A 1_555 1_555
H16A C16A 1_555 1_555
C17A C16A 1_555 1_555
H17A C17A 1_555 1_555
H18A C17A 1_555 1_555
C18A N10A 1_555 1_555
H19A C18A 1_555 1_555
H20A C18A 1_555 1_555
C19A N9A 1_555 1_555
H21A C19A 1_555 1_555
C20A N7A 1_555 1_555
H22A C20A 1_555 1_555
C21A N12A 1_555 1_555
H23A C21A 1_555 1_555
C22A N10A 1_555 1_555
H24A C22A 1_555 1_555
C23A C24A 1_555 1_555
C24A C25 1_555 1_555
H25A C24A 1_555 1_555
C25A C24 1_555 1_555
H26A C25A 1_555 1_555
C26A C23A 1_555 1_555
N3 C4 1_555 1_555
N6 C7 1_555 1_555
N9 C20 1_555 1_555
N12 C22 1_555 1_555
C2 C3 1_555 1_555
C12 C15 1_555 1_555
C17 C18 1_555 1_555
C23 C26 1_555 1_555
N3A C4A 1_555 1_555
N6A_2 C7A 1_555 1_555
N9A C20A 1_555 1_555
N12A C22A 1_555 1_555
C2A C3A 1_555 1_555
C8A C10A 1_555 1_555
C12A C14A 1_555 1_555
C12A C15A 1_555 1_555
C17A C18A 1_555 1_555
C23A C25A 1_555 1_555

#END
