
#######################################################################
#
#                 Cambridge Crystallographic Data Centre
#                                CCDC 
#
#######################################################################
#
# If this CIF has been generated from an entry in the Cambridge 
# Structural Database, then it will include bibliographic, chemical, 
# crystal, experimental, refinement or atomic coordinate data resulting 
# from the CCDC's data processing and validation procedures.
#
#######################################################################

data_EYUMER
_symmetry_cell_setting           triclinic
_symmetry_space_group_name_H-M   'P -1'
_symmetry_Int_Tables_number      2
_space_group_name_Hall           '-P 1'
loop_
_symmetry_equiv_pos_site_id
_symmetry_equiv_pos_as_xyz
1 x,y,z
2 -x,-y,-z
_cell_length_a                   10.3742(3)
_cell_length_b                   10.9261(5)
_cell_length_c                   11.5914(11)
_cell_angle_alpha                68.78(3)
_cell_angle_beta                 65.22(2)
_cell_angle_gamma                62.77(2)
_cell_volume                     1036.87
loop_
_atom_site_label
_atom_site_type_symbol
_atom_site_fract_x
_atom_site_fract_y
_atom_site_fract_z
Zn1 Zn -0.05877(11) 0.21877(10) -0.14935(10)
O1 O 0.1132(7) 0.1047(6) -0.2708(6)
O2 O 0.2097(7) 0.2619(7) -0.3026(7)
O3 O -0.2046(7) 0.1244(6) -0.0451(6)
O4 O -0.2413(8) 0.1826(8) -0.2340(7)
N1 N 0.0199(9) 0.2287(8) 0.1699(8)
N2 N 0.0784(9) 0.3249(8) 0.0803(8)
N3 N -0.0004(8) 0.2314(7) -0.0103(7)
N4 N 0.2168(8) 0.3469(8) 0.2716(7)
N5 N 0.1711(10) 0.3808(9) 0.3885(8)
N6 N 0.1480(8) 0.5765(8) 0.2276(7)
C1 C 0.0036(12) 0.2102(11) 0.3054(9)
H2 H -0.0635 0.1580 0.3592
H3 H -0.0449 0.3022 0.3271
C2 C 0.1516(12) 0.1342(10) 0.3386(11)
H4 H 0.1290 0.1276 0.4303
H5 H 0.1950 0.0390 0.3248
C3 C 0.2689(11) 0.2018(9) 0.2622(10)
H6 H 0.3575 0.1471 0.2925
H7 H 0.3005 0.1986 0.1715
C4 C 0.0687(10) 0.3221(9) -0.0252(8)
H8 H 0.1047 0.3762 -0.1053
C5 C -0.0314(10) 0.1789(9) 0.1193(8)
H9 H -0.0823 0.1160 0.1655
C6 C 0.1346(13) 0.5206(11) 0.3522(10)
H10 H 0.1016 0.5755 0.4116
C7 C 0.2006(10) 0.4644(9) 0.1769(9)
H11 H 0.2226 0.4670 0.0897
C8 C 0.3652(10) 0.0771(10) -0.4188(8)
C9 C 0.4815(10) 0.1256(9) -0.4800(8)
H12 H 0.4719 0.2088 -0.4668
C10 C 0.3828(11) -0.0493(10) -0.4363(10)
H13 H 0.3041 -0.0840 -0.3924
C11 C 0.2191(10) 0.1536(9) -0.3245(9)
C12 C -0.3931(10) 0.0653(9) -0.0522(9)
C13 C -0.4000(10) -0.0288(9) 0.0649(9)
H14 H -0.3315 -0.0502 0.1077
C14 C -0.4925(10) 0.0928(10) -0.1208(9)
H15 H -0.4856 0.1529 -0.2023
C15 C -0.2741(10) 0.1334(9) -0.1158(10)
Zn1A Zn 1.05877(11) -0.21877(10) -0.85065(10)
Zn1A_2 Zn 0.05877(11) 0.78123(10) 0.14935(10)
Zn1A_3 Zn -0.94123(11) -0.21877(10) 0.14935(10)
Zn1_2 Zn 0.94123(11) -0.78123(10) -1.14935(10)
O1A O 0.8868(7) -0.1047(6) -0.7292(6)
O2A O 0.7903(7) -0.2619(7) -0.6974(7)
O3A O 1.2046(7) -0.1244(6) -0.9549(6)
O3A_2 O -0.7954(7) -0.1244(6) 0.0451(6)
O4A O -0.7587(8) -0.1826(8) 0.2340(7)
N1A N 0.9801(9) -0.2287(8) -1.1699(8)
N2A N 0.9216(9) -0.3249(8) -1.0803(8)
N3A N 1.0004(8) -0.2314(7) -0.9897(7)
N4A N 0.7832(8) -0.3469(8) -1.2716(7)
N5A N 0.8289(10) -0.3808(9) -1.3885(8)
N6_2 N 1.1480(8) -0.4235(8) -0.7724(7)
N6A N -0.1480(8) 0.4235(8) -0.2276(7)
N6A_2 N 0.8520(8) -0.5765(8) -1.2276(7)
C1A C 0.9964(12) -0.2102(11) -1.3054(9)
H2A H 1.0635 -0.1580 -1.3592
H3A H 1.0449 -0.3022 -1.3271
C2A C 0.8484(12) -0.1342(10) -1.3386(11)
H4A H 0.8710 -0.1276 -1.4303
H5A H 0.8050 -0.0390 -1.3248
C3A C 0.7311(11) -0.2018(9) -1.2622(10)
H6A H 0.6425 -0.1471 -1.2925
H7A H 0.6995 -0.1986 -1.1715
C4A C 0.9313(10) -0.3221(9) -0.9748(8)
H8A H 0.8953 -0.3762 -0.8947
C5A C 1.0314(10) -0.1789(9) -1.1193(8)
H9A H 1.0823 -0.1160 -1.1655
C6A C 0.8654(13) -0.5206(11) -1.3522(10)
H10A H 0.8984 -0.5755 -1.4116
C7A C 0.7994(10) -0.4644(9) -1.1769(9)
H11A H 0.7774 -0.4670 -1.0897
C8A C 0.6348(10) -0.0771(10) -0.5812(8)
C9A C 0.5185(10) -0.1256(9) -0.5200(8)
H12A H 0.5281 -0.2088 -0.5332
C10A C 0.6172(11) 0.0493(10) -0.5637(10)
H13A H 0.6959 0.0840 -0.6076
C11A C 0.7809(10) -0.1536(9) -0.6755(9)
C12A C -0.6069(10) -0.0653(9) 0.0522(9)
C13A C -0.6000(10) 0.0288(9) -0.0649(9)
H14A H -0.6685 0.0502 -0.1077
C14A C -0.5075(10) -0.0928(10) 0.1208(9)
H15A H -0.5144 -0.1529 0.2023
C15A C -0.7259(10) -0.1334(9) 0.1158(10)
O5 O 0.3140(13) 0.5231(14) -0.1381(11)
H1 H 0.3383 0.4708 -0.1855
C16 C 0.4338(17) 0.568(2) -0.169(2)
H16 H 0.3933 0.6669 -0.1697
H17 H 0.5024 0.5526 -0.2540
H18 H 0.4874 0.5162 -0.1062
O6 O -0.3431(10) 0.3233(9) -0.4486(8)
O7 O 0.3317(10) 0.4515(8) -0.3508(7)
loop_
_geom_bond_atom_site_label_1
_geom_bond_atom_site_label_2
_geom_bond_site_symmetry_1
_geom_bond_site_symmetry_2
Zn1 O1 1_555 1_555
O1 C11 1_555 1_555
O2 C11 1_555 1_555
O3 Zn1 1_555 1_555
O4 C15 1_555 1_555
O5 H1 1_555 1_555
N1 N2 1_555 1_555
N2 C4 1_555 1_555
N3 Zn1 1_555 1_555
N4 N5 1_555 1_555
N5 C6 1_555 1_555
N6 C6 1_555 1_555
C1 N1 1_555 1_555
H2 C1 1_555 1_555
H3 C1 1_555 1_555
C2 C1 1_555 1_555
H4 C2 1_555 1_555
H5 C2 1_555 1_555
C3 N4 1_555 1_555
H6 C3 1_555 1_555
H7 C3 1_555 1_555
C4 N3 1_555 1_555
H8 C4 1_555 1_555
C5 N1 1_555 1_555
H9 C5 1_555 1_555
C6 H10 1_555 1_555
C7 N4 1_555 1_555
H11 C7 1_555 1_555
C8 C9 1_555 1_555
C9 H12 1_555 1_555
C10 C8 1_555 1_555
H13 C10 1_555 1_555
C11 C8 1_555 1_555
C12 C13 1_555 1_555
C13 H14 1_555 1_555
C14 C12 1_555 1_555
H15 C14 1_555 1_555
C15 O3 1_555 1_555
C16 O5 1_555 1_555
H16 C16 1_555 1_555
H17 C16 1_555 1_555
H18 C16 1_555 1_555
Zn1A O1A 1_555 1_555
Zn1A_2 N6 1_555 1_555
Zn1A_3 O3A_2 1_555 1_555
Zn1_2 N6A_2 1_555 1_555
O1A C11A 1_555 1_555
O2A C11A 1_555 1_555
O3A Zn1A 1_555 1_555
O3A_2 C15A 1_555 1_555
O4A C15A 1_555 1_555
N1A N2A 1_555 1_555
N2A C4A 1_555 1_555
N3A Zn1A 1_555 1_555
N4A N5A 1_555 1_555
N5A C6A 1_555 1_555
N6_2 Zn1A 1_555 1_555
N6A Zn1 1_555 1_555
N6A_2 C6A 1_555 1_555
C1A N1A 1_555 1_555
H2A C1A 1_555 1_555
H3A C1A 1_555 1_555
C2A C1A 1_555 1_555
H4A C2A 1_555 1_555
H5A C2A 1_555 1_555
C3A N4A 1_555 1_555
H6A C3A 1_555 1_555
H7A C3A 1_555 1_555
C4A N3A 1_555 1_555
H8A C4A 1_555 1_555
C5A N1A 1_555 1_555
H9A C5A 1_555 1_555
C6A H10A 1_555 1_555
C7A N4A 1_555 1_555
H11A C7A 1_555 1_555
C8A C9A 1_555 1_555
C9A C10 1_555 1_555
H12A C9A 1_555 1_555
C10A C9 1_555 1_555
H13A C10A 1_555 1_555
C11A C8A 1_555 1_555
C12A C13A 1_555 1_555
C13A C14 1_555 1_555
H14A C13A 1_555 1_555
C14A C13 1_555 1_555
H15A C14A 1_555 1_555
C15A C12A 1_555 1_555
N3 C5 1_555 1_555
N6 C7 1_555 1_555
C2 C3 1_555 1_555
C12 C15 1_555 1_555
N3A C5A 1_555 1_555
N6A_2 C7A 1_555 1_555
C2A C3A 1_555 1_555
C8A C10A 1_555 1_555
C12A C14A 1_555 1_555

#END
