
#######################################################################
#
#                 Cambridge Crystallographic Data Centre
#                                CCDC 
#
#######################################################################
#
# If this CIF has been generated from an entry in the Cambridge 
# Structural Database, then it will include bibliographic, chemical, 
# crystal, experimental, refinement or atomic coordinate data resulting 
# from the CCDC's data processing and validation procedures.
#
#######################################################################

data_EYUQIZ
_symmetry_cell_setting           triclinic
_symmetry_space_group_name_H-M   'P -1'
_symmetry_Int_Tables_number      2
_space_group_name_Hall           '-P 1'
loop_
_symmetry_equiv_pos_site_id
_symmetry_equiv_pos_as_xyz
1 x,y,z
2 -x,-y,-z
_cell_length_a                   9.9614(8)
_cell_length_b                   13.0003(11)
_cell_length_c                   17.5849(15)
_cell_angle_alpha                69.8620(10)
_cell_angle_beta                 86.3710(10)
_cell_angle_gamma                73.5370(10)
_cell_volume                     2048.91
loop_
_atom_site_label
_atom_site_type_symbol
_atom_site_fract_x
_atom_site_fract_y
_atom_site_fract_z
Ag1 Ag 0.61214(3) 0.32241(3) 0.218700(18)
C1 C 0.3507(4) 0.4463(3) 0.3875(2)
C2 C 0.3097(4) 0.3484(3) 0.4054(2)
C3 C 0.3838(3) 0.2927(3) 0.3530(2)
C4 C 0.1954(4) 0.3119(4) 0.4606(3)
H1 H 0.2391 0.2529 0.5104
H2 H 0.1448 0.2788 0.4345
C5 C 0.0909(4) 0.4082(4) 0.4819(2)
C6 C 0.0084(4) 0.5012(4) 0.4209(2)
C7 C 0.0115(5) 0.5013(5) 0.3345(3)
H3 H -0.0826 0.5213 0.3136
H4 H 0.0612 0.4267 0.3338
H5 H 0.0579 0.5558 0.3015
C8 C 0.0808(4) 0.4058(4) 0.5623(2)
C9 C 0.1632(6) 0.3056(5) 0.6310(3)
H6 H 0.2362 0.2582 0.6096
H7 H 0.1020 0.2621 0.6614
H8 H 0.2039 0.3325 0.6659
C10 C 0.3196(4) 0.5308(4) 0.4978(3)
H9 H 0.3481 0.4577 0.5359
C11 C 0.2834(5) 0.6248(5) 0.5228(3)
H10 H 0.2864 0.6150 0.5776
C12 C 0.2435(7) 0.7316(6) 0.4667(4)
H11 H 0.2187 0.7946 0.4836
C13 C 0.2393(7) 0.7473(5) 0.3864(4)
H12 H 0.2121 0.8207 0.3485
C14 C 0.2763(6) 0.6522(4) 0.3608(3)
H13 H 0.2753 0.6626 0.3058
C15 C 0.3134(4) 0.5454(3) 0.4159(2)
C16 C 0.3857(4) 0.1849(3) 0.3434(2)
C17 C 0.3934(4) 0.1750(4) 0.2666(3)
H14 H 0.3881 0.2392 0.2208
C18 C 0.3878(5) 0.0888(4) 0.4101(3)
H15 H 0.3778 0.0941 0.4616
C19 C 0.4049(6) -0.0166(4) 0.4001(4)
H16 H 0.4079 -0.0812 0.4452
C20 C 0.4171(6) -0.0245(5) 0.3248(4)
H17 H 0.4312 -0.0950 0.3186
C21 C 0.4086(5) 0.0710(5) 0.2579(3)
H18 H 0.4133 0.0655 0.2064
C22 C 0.8336(3) 0.2395(3) 0.0980(2)
C23 C 0.9644(3) 0.2537(3) 0.0685(2)
C24 C 0.9869(3) 0.3360(3) 0.09614(19)
C25 C 0.7521(4) 0.1624(3) 0.0932(2)
C26 C 0.7886(4) 0.0481(3) 0.1403(2)
H19 H 0.8658 0.0184 0.1763
C27 C 0.7119(5) -0.0223(4) 0.1347(3)
H20 H 0.7380 -0.0991 0.1667
C28 C 0.5988(5) 0.0195(4) 0.0829(3)
H21 H 0.5485 -0.0287 0.0789
C29 C 0.5589(5) 0.1318(5) 0.0370(3)
H22 H 0.4804 0.1607 0.0022
C30 C 0.6353(4) 0.2036(4) 0.0421(3)
H23 H 0.6073 0.2805 0.0106
C31 C 1.1042(3) 0.3860(3) 0.09057(19)
C32 C 1.1984(4) 0.3886(3) 0.0297(2)
H24 H 1.1884 0.3586 -0.0100
C33 C 1.3083(4) 0.4356(3) 0.0271(3)
H25 H 1.3713 0.4371 -0.0144
C34 C 1.3249(4) 0.4797(3) 0.0853(3)
H26 H 1.3992 0.5105 0.0836
C35 C 1.2314(4) 0.4783(3) 0.1458(3)
H27 H 1.2419 0.5088 0.1851
C36 C 1.1219(4) 0.4321(3) 0.1491(2)
H28 H 1.0592 0.4314 0.1907
C37 C 1.0625(4) 0.1958(3) 0.0170(2)
H29 H 1.1568 0.1713 0.0404
H30 H 1.0617 0.2516 -0.0365
C38 C 1.1830(5) -0.0301(5) 0.1332(3)
H31 H 1.1623 -0.0855 0.1815
H32 H 1.1670 0.0414 0.1418
H33 H 1.2792 -0.0560 0.1208
C39 C 1.0891(4) -0.0147(3) 0.0634(2)
C40 C 1.0298(4) 0.0938(3) 0.0078(2)
C41 C 0.9395(4) 0.1092(3) -0.0553(2)
C42 C 0.8734(6) 0.2266(4) -0.1147(3)
H34 H 0.9207 0.2364 -0.1649
H35 H 0.8810 0.2831 -0.0929
H36 H 0.7763 0.2350 -0.1241
N1 N 0.7781(3) 0.3111(2) 0.13870(17)
N2 N 0.4661(3) 0.3533(3) 0.30675(18)
N3 N 0.8730(3) 0.3676(2) 0.13733(17)
H45 H 0.8622 0.4181 0.1601
N4 N 0.4442(3) 0.4465(3) 0.32805(19)
H46 H 0.4846 0.4996 0.3066
Ag1A Ag 1.38786(3) -0.32241(3) -0.218700(18)
Ag1A_2 Ag -0.61214(3) 0.67759(3) 0.781300(18)
C1A C -0.3507(4) 0.5537(3) 0.6125(2)
C2A C -0.3097(4) 0.6516(3) 0.5946(2)
C3A C -0.3838(3) 0.7073(3) 0.6470(2)
C4A C -0.1954(4) 0.6881(4) 0.5394(3)
H1A H -0.2391 0.7471 0.4896
H2A H -0.1448 0.7212 0.5655
C5A C -0.0909(4) 0.5918(4) 0.5181(2)
C6A C -0.0084(4) 0.4988(4) 0.5791(2)
C7A C -0.0115(5) 0.4987(5) 0.6655(3)
H3A H 0.0826 0.4787 0.6864
H4A H -0.0612 0.5733 0.6662
H5A H -0.0579 0.4442 0.6985
C8A C -0.0808(4) 0.5942(4) 0.4377(2)
C9A C -0.1632(6) 0.6944(5) 0.3690(3)
H6A H -0.2362 0.7418 0.3904
H7A H -0.1020 0.7379 0.3386
H8A H -0.2039 0.6675 0.3341
C10A C -0.3196(4) 0.4692(4) 0.5022(3)
H9A H -0.3481 0.5423 0.4641
C11A C -0.2834(5) 0.3752(5) 0.4772(3)
H10A H -0.2864 0.3850 0.4224
C12A C -0.2435(7) 0.2684(6) 0.5333(4)
H11A H -0.2187 0.2054 0.5164
C13A C -0.2393(7) 0.2527(5) 0.6136(4)
H12A H -0.2121 0.1793 0.6515
C14A C -0.2763(6) 0.3478(4) 0.6392(3)
H13A H -0.2753 0.3374 0.6942
C15A C -0.3134(4) 0.4546(3) 0.5841(2)
C16A C -0.3857(4) 0.8151(3) 0.6566(2)
C17A C -0.3934(4) 0.8250(4) 0.7334(3)
H14A H -0.3881 0.7608 0.7792
C18A C -0.3878(5) 0.9112(4) 0.5899(3)
H15A H -0.3778 0.9059 0.5384
C19A C -0.4049(6) 1.0166(4) 0.5999(4)
H16A H -0.4079 1.0812 0.5548
C20A C -0.4171(6) 1.0245(5) 0.6752(4)
H17A H -0.4312 1.0950 0.6814
C21A C -0.4086(5) 0.9290(5) 0.7421(3)
H18A H -0.4133 0.9345 0.7936
C22A C 1.1664(3) -0.2395(3) -0.0980(2)
C23A C 1.0356(3) -0.2537(3) -0.0685(2)
C24A C 1.0131(3) -0.3360(3) -0.09614(19)
C25A C 1.2479(4) -0.1624(3) -0.0932(2)
C26A C 1.2114(4) -0.0481(3) -0.1403(2)
H19A H 1.1342 -0.0184 -0.1763
C27A C 1.2881(5) 0.0223(4) -0.1347(3)
H20A H 1.2620 0.0991 -0.1667
C28A C 1.4012(5) -0.0195(4) -0.0829(3)
H21A H 1.4515 0.0287 -0.0789
C29A C 1.4411(5) -0.1318(5) -0.0370(3)
H22A H 1.5196 -0.1607 -0.0022
C30A C 1.3647(4) -0.2036(4) -0.0421(3)
H23A H 1.3927 -0.2805 -0.0106
C31A C 0.8958(3) -0.3860(3) -0.09057(19)
C32A C 0.8016(4) -0.3886(3) -0.0297(2)
H24A H 0.8116 -0.3586 0.0100
C33A C 0.6917(4) -0.4356(3) -0.0271(3)
H25A H 0.6287 -0.4371 0.0144
C34A C 0.6751(4) -0.4797(3) -0.0853(3)
H26A H 0.6008 -0.5105 -0.0836
C35A C 0.7686(4) -0.4783(3) -0.1458(3)
H27A H 0.7581 -0.5088 -0.1851
C36A C 0.8781(4) -0.4321(3) -0.1491(2)
H28A H 0.9408 -0.4314 -0.1907
C37A C 0.9375(4) -0.1958(3) -0.0170(2)
H29A H 0.8432 -0.1713 -0.0404
H30A H 0.9383 -0.2516 0.0365
C38A C 0.8170(5) 0.0301(5) -0.1332(3)
H31A H 0.8377 0.0855 -0.1815
H32A H 0.8330 -0.0414 -0.1418
H33A H 0.7208 0.0560 -0.1208
C39A C 0.9109(4) 0.0147(3) -0.0634(2)
C40A C 0.9702(4) -0.0938(3) -0.0078(2)
C41A C 1.0605(4) -0.1092(3) 0.0553(2)
C42A C 1.1266(6) -0.2266(4) 0.1147(3)
H34A H 1.0793 -0.2364 0.1649
H35A H 1.1190 -0.2831 0.0929
H36A H 1.2237 -0.2350 0.1241
N1A N 1.2219(3) -0.3111(2) -0.13870(17)
N2A N -0.4661(3) 0.6467(3) 0.69325(18)
N2A_2 N 1.5339(3) -0.3533(3) -0.30675(18)
N3A N 1.1270(3) -0.3676(2) -0.13733(17)
H45A H 1.1378 -0.4181 -0.1601
N4A N -0.4442(3) 0.5535(3) 0.67195(19)
H46A H -0.4846 0.5004 0.6934
C43 C 0.9389(12) 0.1695(9) 0.3514(7)
H37 H 0.9462 0.2370 0.3071
H38 H 0.9767 0.1707 0.4005
C44 C 1.0100(11) 0.0764(14) 0.3360(11)
H39 H 1.1025 0.0463 0.3625
H40 H 1.0202 0.0928 0.2782
C45 C 0.9264(16) -0.0052(10) 0.3688(10)
H41 H 0.9266 -0.0474 0.3328
H42 H 0.9644 -0.0590 0.4216
C46 C 0.7972(12) 0.0564(10) 0.3748(7)
H43 H 0.7638 0.0247 0.4285
H44 H 0.7347 0.0549 0.3353
O1 O 0.7987(8) 0.1686(8) 0.3609(5)
B1 B 0.6403(6) 0.6209(4) 0.1907(3)
F1 F 0.6041(5) 0.6052(4) 0.2680(2)
F2 F 0.5453(4) 0.5929(3) 0.1546(2)
F3 F 0.7646(4) 0.5529(5) 0.1880(4)
F4 F 0.6453(8) 0.7226(4) 0.1570(4)
loop_
_geom_bond_atom_site_label_1
_geom_bond_atom_site_label_2
_geom_bond_site_symmetry_1
_geom_bond_site_symmetry_2
Ag1 N1 1_555 1_555
C1 C2 1_555 1_555
C2 C3 1_555 1_555
C3 C16 1_555 1_555
C4 C2 1_555 1_555
H1 C4 1_555 1_555
H2 C4 1_555 1_555
C5 C4 1_555 1_555
C6 C5 1_555 1_555
C7 C6 1_555 1_555
H3 C7 1_555 1_555
H4 C7 1_555 1_555
H5 C7 1_555 1_555
C8 C5 1_555 1_555
C9 C8 1_555 1_555
H6 C9 1_555 1_555
H7 C9 1_555 1_555
H8 C9 1_555 1_555
C10 H9 1_555 1_555
C11 C10 1_555 1_555
H10 C11 1_555 1_555
C12 C11 1_555 1_555
H11 C12 1_555 1_555
C13 C12 1_555 1_555
H12 C13 1_555 1_555
C14 C13 1_555 1_555
H13 C14 1_555 1_555
C15 C1 1_555 1_555
C16 C17 1_555 1_555
C17 H14 1_555 1_555
C18 C16 1_555 1_555
H15 C18 1_555 1_555
C19 C18 1_555 1_555
H16 C19 1_555 1_555
C20 C19 1_555 1_555
H17 C20 1_555 1_555
C21 C17 1_555 1_555
H18 C21 1_555 1_555
C22 C23 1_555 1_555
C23 C24 1_555 1_555
C24 C31 1_555 1_555
C25 C22 1_555 1_555
C26 C25 1_555 1_555
H19 C26 1_555 1_555
C27 C26 1_555 1_555
H20 C27 1_555 1_555
C28 C27 1_555 1_555
H21 C28 1_555 1_555
C29 C28 1_555 1_555
H22 C29 1_555 1_555
C30 C25 1_555 1_555
H23 C30 1_555 1_555
C31 C32 1_555 1_555
C32 H24 1_555 1_555
C33 C32 1_555 1_555
H25 C33 1_555 1_555
C34 C33 1_555 1_555
H26 C34 1_555 1_555
C35 C34 1_555 1_555
H27 C35 1_555 1_555
C36 C31 1_555 1_555
H28 C36 1_555 1_555
C37 C23 1_555 1_555
H29 C37 1_555 1_555
H30 C37 1_555 1_555
C38 H31 1_555 1_555
H32 C38 1_555 1_555
H33 C38 1_555 1_555
C39 C38 1_555 1_555
C40 C37 1_555 1_555
C41 C40 1_555 1_555
C42 C41 1_555 1_555
H34 C42 1_555 1_555
H35 C42 1_555 1_555
H36 C42 1_555 1_555
C43 H37 1_555 1_555
H38 C43 1_555 1_555
C44 C43 1_555 1_555
H39 C44 1_555 1_555
H40 C44 1_555 1_555
C45 C44 1_555 1_555
H41 C45 1_555 1_555
H42 C45 1_555 1_555
C46 C45 1_555 1_555
H43 C46 1_555 1_555
H44 C46 1_555 1_555
B1 F1 1_555 1_555
F2 B1 1_555 1_555
F3 B1 1_555 1_555
F4 B1 1_555 1_555
N1 C22 1_555 1_555
N2 Ag1 1_555 1_555
N3 C24 1_555 1_555
H45 N3 1_555 1_555
N4 C1 1_555 1_555
H46 N4 1_555 1_555
O1 C43 1_555 1_555
Ag1A N1A 1_555 1_555
Ag1A_2 N2A 1_555 1_555
C1A C2A 1_555 1_555
C2A C3A 1_555 1_555
C3A C16A 1_555 1_555
C4A C2A 1_555 1_555
H1A C4A 1_555 1_555
H2A C4A 1_555 1_555
C5A C4A 1_555 1_555
C6A C8 1_555 1_555
C7A C6A 1_555 1_555
H3A C7A 1_555 1_555
H4A C7A 1_555 1_555
H5A C7A 1_555 1_555
C8A C6 1_555 1_555
C9A C8A 1_555 1_555
H6A C9A 1_555 1_555
H7A C9A 1_555 1_555
H8A C9A 1_555 1_555
C10A H9A 1_555 1_555
C11A C10A 1_555 1_555
H10A C11A 1_555 1_555
C12A C11A 1_555 1_555
H11A C12A 1_555 1_555
C13A C12A 1_555 1_555
H12A C13A 1_555 1_555
C14A C13A 1_555 1_555
H13A C14A 1_555 1_555
C15A C1A 1_555 1_555
C16A C17A 1_555 1_555
C17A H14A 1_555 1_555
C18A C16A 1_555 1_555
H15A C18A 1_555 1_555
C19A C18A 1_555 1_555
H16A C19A 1_555 1_555
C20A C19A 1_555 1_555
H17A C20A 1_555 1_555
C21A C17A 1_555 1_555
H18A C21A 1_555 1_555
C22A C23A 1_555 1_555
C23A C24A 1_555 1_555
C24A C31A 1_555 1_555
C25A C22A 1_555 1_555
C26A C25A 1_555 1_555
H19A C26A 1_555 1_555
C27A C26A 1_555 1_555
H20A C27A 1_555 1_555
C28A C27A 1_555 1_555
H21A C28A 1_555 1_555
C29A C28A 1_555 1_555
H22A C29A 1_555 1_555
C30A C25A 1_555 1_555
H23A C30A 1_555 1_555
C31A C32A 1_555 1_555
C32A H24A 1_555 1_555
C33A C32A 1_555 1_555
H25A C33A 1_555 1_555
C34A C33A 1_555 1_555
H26A C34A 1_555 1_555
C35A C34A 1_555 1_555
H27A C35A 1_555 1_555
C36A C31A 1_555 1_555
H28A C36A 1_555 1_555
C37A C23A 1_555 1_555
H29A C37A 1_555 1_555
H30A C37A 1_555 1_555
C38A H31A 1_555 1_555
H32A C38A 1_555 1_555
H33A C38A 1_555 1_555
C39A C41 1_555 1_555
C40A C37A 1_555 1_555
C41A C39 1_555 1_555
C42A C41A 1_555 1_555
H34A C42A 1_555 1_555
H35A C42A 1_555 1_555
H36A C42A 1_555 1_555
N1A C22A 1_555 1_555
N2A C3A 1_555 1_555
N2A_2 Ag1A 1_555 1_555
N3A C24A 1_555 1_555
H45A N3A 1_555 1_555
N4A C1A 1_555 1_555
H46A N4A 1_555 1_555
C3 N2 1_555 1_555
C10 C15 1_555 1_555
C14 C15 1_555 1_555
C20 C21 1_555 1_555
C29 C30 1_555 1_555
C35 C36 1_555 1_555
C39 C40 1_555 1_555
C46 O1 1_555 1_555
N1 N3 1_555 1_555
N2 N4 1_555 1_555
C5A C6A 1_555 1_555
C5A C8A 1_555 1_555
C10A C15A 1_555 1_555
C14A C15A 1_555 1_555
C20A C21A 1_555 1_555
C29A C30A 1_555 1_555
C35A C36A 1_555 1_555
C38A C39A 1_555 1_555
C39A C40A 1_555 1_555
C40A C41A 1_555 1_555
N1A N3A 1_555 1_555
N2A N4A 1_555 1_555

#END
