
#######################################################################
#
#                 Cambridge Crystallographic Data Centre
#                                CCDC 
#
#######################################################################
#
# If this CIF has been generated from an entry in the Cambridge 
# Structural Database, then it will include bibliographic, chemical, 
# crystal, experimental, refinement or atomic coordinate data resulting 
# from the CCDC's data processing and validation procedures.
#
#######################################################################

data_EYUQEV
_symmetry_cell_setting           tetragonal
_symmetry_space_group_name_H-M   'I -4 2 d'
_symmetry_Int_Tables_number      122
_space_group_name_Hall           'I -4 2bw'
loop_
_symmetry_equiv_pos_site_id
_symmetry_equiv_pos_as_xyz
1 x,y,z
2 -x,-y,z
3 y,-x,-z
4 -y,x,-z
5 1/2-x,y,3/4-z
6 1/2+x,-y,3/4-z
7 1/2-y,-x,3/4+z
8 1/2+y,x,3/4+z
9 1/2+x,1/2+y,1/2+z
10 1/2-x,1/2-y,1/2+z
11 1/2+y,1/2-x,1/2-z
12 1/2-y,1/2+x,1/2-z
13 -x,1/2+y,1/4-z
14 x,1/2-y,1/4-z
15 -y,1/2-x,1/4+z
16 y,1/2+x,1/4+z
_cell_length_a                   17.523(3)
_cell_length_b                   17.523(3)
_cell_length_c                   16.220(5)
_cell_angle_alpha                90
_cell_angle_beta                 90
_cell_angle_gamma                90
_cell_volume                     4980.44
loop_
_atom_site_label
_atom_site_type_symbol
_atom_site_fract_x
_atom_site_fract_y
_atom_site_fract_z
Ag1 Ag 0.72423(5) 0.2500 0.1250
N1 N 0.7171(3) 0.1286(3) 0.1201(4)
N2 N 0.7246(4) 0.0875(3) 0.1884(4)
H1 H 0.7316 0.1067 0.2366
C1 C 0.7069(5) 0.0797(4) 0.0595(4)
C2 C 0.7201(6) 0.0123(4) 0.1731(4)
C3 C 0.7083(5) 0.0039(4) 0.0897(4)
C4 C 0.7001(5) -0.0711(4) 0.0467(4)
H2 H 0.6468 -0.0858 0.0486
H3 H 0.7285 -0.1090 0.0777
C5 C 0.6939(7) 0.1053(5) -0.0245(5)
H4 H 0.6401 0.1113 -0.0337
H5 H 0.7139 0.0683 -0.0624
H6 H 0.7191 0.1533 -0.0330
C6 C 0.8029(5) -0.0767(4) -0.0600(4)
C7 C 0.7264(5) -0.0746(4) -0.0429(4)
C8 C 0.6718(4) -0.0738(4) -0.1078(4)
C9 C 0.8583(6) -0.0828(6) 0.0097(6)
H7 H 0.8310 -0.0867 0.0608
H8 H 0.8902 -0.0383 0.0108
H9 H 0.8894 -0.1274 0.0024
C10 C 0.5905(5) -0.0683(7) -0.0912(8)
H10 H 0.5810 -0.0260 -0.0550
H11 H 0.5732 -0.1146 -0.0657
H12 H 0.5635 -0.0607 -0.1421
C11 C 0.7314(8) -0.0440(5) 0.2406(5)
H13 H 0.7670 -0.0239 0.2800
H14 H 0.7511 -0.0907 0.2180
H15 H 0.6835 -0.0538 0.2672
Ag1D Ag 0.77577(5) 0.2500 -0.3750
N1D N 0.7829(3) 0.1286(3) -0.3701(4)
N1M N 0.7171(3) 0.3714(3) 0.1299(4)
N2D N 0.7754(4) 0.0875(3) -0.4384(4)
H1D H 0.7684 0.1067 -0.4866
C1D C 0.7931(5) 0.0797(4) -0.3095(4)
C2D C 0.7799(6) 0.0123(4) -0.4231(4)
C3D C 0.7917(5) 0.0039(4) -0.3397(4)
C4D C 0.7999(5) -0.0711(4) -0.2967(4)
H2D H 0.8532 -0.0858 -0.2986
H3D H 0.7715 -0.1090 -0.3277
C5D C 0.8061(7) 0.1053(5) -0.2255(5)
H4D H 0.8599 0.1113 -0.2163
H5D H 0.7861 0.0683 -0.1876
H6D H 0.7809 0.1533 -0.2170
C6D C 0.6971(5) -0.0767(4) -0.1900(4)
C7D C 0.7736(5) -0.0746(4) -0.2071(4)
C8D C 0.8282(4) -0.0738(4) -0.1422(4)
C9D C 0.6417(6) -0.0828(6) -0.2597(6)
H7D H 0.6690 -0.0867 -0.3108
H8D H 0.6098 -0.0383 -0.2608
H9D H 0.6106 -0.1274 -0.2524
C10D C 0.9095(5) -0.0683(7) -0.1588(8)
H10D H 0.9190 -0.0260 -0.1950
H11D H 0.9268 -0.1146 -0.1843
H12D H 0.9365 -0.0607 -0.1079
C11D C 0.7686(8) -0.0440(5) -0.4906(5)
H13D H 0.7330 -0.0239 -0.5300
H14D H 0.7489 -0.0907 -0.4680
H15D H 0.8165 -0.0538 -0.5172
O1 O 0.7384(4) 0.2084(3) 0.3096(3)
N3 N 0.7500 0.1748(4) 0.3750
O2 O 0.7500 0.1040(5) 0.3750
O1D O 0.7616(4) 0.2084(3) 0.4404(3)
loop_
_geom_bond_atom_site_label_1
_geom_bond_atom_site_label_2
_geom_bond_site_symmetry_1
_geom_bond_site_symmetry_2
Ag1 N1 1_555 1_555
N1 N2 1_555 1_555
N2 H1 1_555 1_555
C1 N1 1_555 1_555
C2 N2 1_555 1_555
C3 C1 1_555 1_555
C4 C3 1_555 1_555
H2 C4 1_555 1_555
H3 C4 1_555 1_555
C5 C1 1_555 1_555
H4 C5 1_555 1_555
H5 C5 1_555 1_555
H6 C5 1_555 1_555
C6 C7 1_555 1_555
C7 C4 1_555 1_555
C8 C7 1_555 1_555
C9 C6 1_555 1_555
H7 C9 1_555 1_555
H8 C9 1_555 1_555
H9 C9 1_555 1_555
C10 C8 1_555 1_555
H10 C10 1_555 1_555
H11 C10 1_555 1_555
H12 C10 1_555 1_555
C11 C2 1_555 1_555
H13 C11 1_555 1_555
H14 C11 1_555 1_555
H15 C11 1_555 1_555
O1 N3 1_555 1_555
N3 O2 1_555 1_555
Ag1D N1D 1_555 1_555
N1D N2D 1_555 1_555
N1M Ag1 1_555 1_555
N2D H1D 1_555 1_555
C1D N1D 1_555 1_555
C2D N2D 1_555 1_555
C3D C1D 1_555 1_555
C4D C3D 1_555 1_555
H2D C4D 1_555 1_555
H3D C4D 1_555 1_555
C5D C1D 1_555 1_555
H4D C5D 1_555 1_555
H5D C5D 1_555 1_555
H6D C5D 1_555 1_555
C6D C8 1_555 1_555
C7D C4D 1_555 1_555
C8D C6 1_555 1_555
C9D C6D 1_555 1_555
H7D C9D 1_555 1_555
H8D C9D 1_555 1_555
H9D C9D 1_555 1_555
C10D C8D 1_555 1_555
H10D C10D 1_555 1_555
H11D C10D 1_555 1_555
H12D C10D 1_555 1_555
C11D C2D 1_555 1_555
H13D C11D 1_555 1_555
H14D C11D 1_555 1_555
H15D C11D 1_555 1_555
O1D N3 1_555 1_555
C2 C3 1_555 1_555
C2D C3D 1_555 1_555
C6D C7D 1_555 1_555
C7D C8D 1_555 1_555

#END
