
#######################################################################
#
#                 Cambridge Crystallographic Data Centre
#                                CCDC 
#
#######################################################################
#
# If this CIF has been generated from an entry in the Cambridge 
# Structural Database, then it will include bibliographic, chemical, 
# crystal, experimental, refinement or atomic coordinate data resulting 
# from the CCDC's data processing and validation procedures.
#
#######################################################################

data_EYUTOI
_symmetry_cell_setting           monoclinic
_symmetry_space_group_name_H-M   'P 21/c'
_symmetry_Int_Tables_number      14
_space_group_name_Hall           '-P 2ybc'
loop_
_symmetry_equiv_pos_site_id
_symmetry_equiv_pos_as_xyz
1 x,y,z
2 -x,1/2+y,1/2-z
3 -x,-y,-z
4 x,1/2-y,1/2+z
_cell_length_a                   19.099(5)
_cell_length_b                   10.859(5)
_cell_length_c                   19.356(5)
_cell_angle_alpha                90
_cell_angle_beta                 116.182(5)
_cell_angle_gamma                90
_cell_volume                     3602.47
loop_
_atom_site_label
_atom_site_type_symbol
_atom_site_fract_x
_atom_site_fract_y
_atom_site_fract_z
C1 C 0.1926(3) -0.5490(5) 0.8034(3)
H1 H 0.1495 -0.4975 0.7890
C2 C 0.1913(3) -0.6397(6) 0.7528(3)
H2 H 0.1476 -0.6494 0.7058
C3 C 0.2538(3) -0.7145(5) 0.7714(3)
H3 H 0.2533 -0.7754 0.7374
C4 C 0.3193(3) -0.6991(4) 0.8426(3)
C5 C 0.3153(3) -0.6058(4) 0.8916(3)
C6 C 0.3794(3) -0.5894(4) 0.9683(2)
C7 C 0.4237(3) -0.4915(5) 1.0852(3)
H4 H 0.4162 -0.4340 1.1169
C8 C 0.4918(3) -0.5585(5) 1.1145(3)
H5 H 0.5291 -0.5466 1.1650
C9 C 0.5039(3) -0.6422(5) 1.0688(3)
H6 H 0.5499 -0.6877 1.0876
C10 C 0.4470(3) -0.6596(4) 0.9933(2)
C11 C 0.4507(3) -0.7494(4) 0.9408(2)
C12 C 0.3890(3) -0.7707(4) 0.8702(2)
C13 C 0.4773(3) -0.9066(4) 0.8882(2)
C14 C 0.5157(3) -1.0119(4) 0.8710(2)
C15 C 0.4794(3) -1.0630(4) 0.7977(3)
C16 C 0.5175(3) -1.1546(4) 0.7747(3)
H7 H 0.4918 -1.1898 0.7260
C17 C 0.5896(3) -1.1913(5) 0.8217(3)
H8 H 0.6147 -1.2478 0.8041
C18 C 0.6285(3) -1.1462(4) 0.8973(3)
C19 C 0.7049(3) -1.1847(5) 0.9473(4)
H9 H 0.7310 -1.2382 0.9290
C20 C 0.7410(4) -1.1455(6) 1.0212(4)
H10 H 0.7923 -1.1683 1.0525
C21 C 0.7010(3) -1.0712(5) 1.0496(3)
H11 H 0.7247 -1.0453 1.1007
C22 C 0.6296(3) -1.0377(4) 1.0044(3)
H12 H 0.6027 -0.9949 1.0269
C23 C 0.5890(3) -1.0606(4) 0.9237(3)
C24 C 0.3197(3) -0.3040(5) 0.6029(3)
H13 H 0.3440 -0.3417 0.5760
C25 C 0.3286(4) -0.3574(5) 0.6713(3)
H14 H 0.3583 -0.4283 0.6897
C26 C 0.2929(3) -0.3039(5) 0.7109(3)
H15 H 0.2978 -0.3379 0.7569
C27 C 0.2489(2) -0.1978(4) 0.6818(2)
C28 C 0.2427(3) -0.1494(4) 0.6120(2)
C29 C 0.1961(3) -0.0417(4) 0.5777(2)
C30 C 0.1457(3) 0.0921(5) 0.4754(3)
H16 H 0.1413 0.1176 0.4278
C31 C 0.1041(4) 0.1560(6) 0.5077(3)
H17 H 0.0739 0.2239 0.4827
C32 C 0.1084(4) 0.1176(5) 0.5761(3)
H18 H 0.0803 0.1585 0.5980
C33 C 0.1547(3) 0.0173(4) 0.6134(3)
C34 C 0.1609(3) -0.0331(4) 0.6833(2)
C35 C 0.2062(2) -0.1349(4) 0.7154(2)
C36 C 0.1412(3) -0.0802(4) 0.7804(2)
C37 C 0.1091(3) -0.0950(4) 0.8357(2)
C38 C 0.1230(3) -0.2051(4) 0.8777(2)
C39 C 0.0815(3) -0.2273(5) 0.9220(3)
H19 H 0.0897 -0.3007 0.9492
C40 C 0.0305(3) -0.1447(5) 0.9256(3)
H20 H 0.0032 -0.1637 0.9538
C41 C 0.0178(3) -0.0311(5) 0.8878(3)
C42 C -0.0335(3) 0.0560(6) 0.8938(3)
H21 H -0.0609 0.0365 0.9218
C43 C -0.0438(3) 0.1672(7) 0.8600(3)
H22 H -0.0783 0.2235 0.8644
C44 C -0.0024(4) 0.1976(6) 0.8183(3)
H23 H -0.0082 0.2754 0.7964
C45 C 0.0468(3) 0.1142(5) 0.8092(3)
H24 H 0.0730 0.1358 0.7803
C46 C 0.0582(2) -0.0035(5) 0.8428(2)
N1 N 0.2521(2) -0.5324(4) 0.8711(2)
N2 N 0.3684(3) -0.5049(4) 1.0140(2)
N3 N 0.5057(2) -0.8291(3) 0.9501(2)
H25 H 0.5514 -0.8320 0.9883
N4 N 0.4049(2) -0.8714(3) 0.8370(2)
N5 N 0.1911(2) -0.0029(3) 0.5091(2)
N6 N 0.2791(2) -0.2034(4) 0.5736(2)
N7 N 0.1939(2) -0.1636(4) 0.7778(2)
H26 H 0.2152 -0.2231 0.8095
N8 N 0.1210(2) 0.0016(4) 0.7242(2)
O1 O 0.4084(2) -1.0300(4) 0.7444(2)
O2 O 0.1707(2) -0.2913(3) 0.87616(19)
Mn1 Mn 0.26076(4) -0.38834(6) 0.96074(4)
Cl1 Cl 0.33894(12) -0.2483(2) 0.93395(17)
H27 H 0.393(4) -0.982(5) 0.768(4)
N5C N 0.1911(2) -0.4971(3) 1.0091(2)
N6C N 0.2791(2) -0.2966(4) 1.0736(2)
Mn1C Mn 0.26076(4) -0.11166(6) 0.46074(4)
loop_
_geom_bond_atom_site_label_1
_geom_bond_atom_site_label_2
_geom_bond_site_symmetry_1
_geom_bond_site_symmetry_2
C1 H1 1_555 1_555
C2 C1 1_555 1_555
H2 C2 1_555 1_555
C3 C2 1_555 1_555
H3 C3 1_555 1_555
C4 C3 1_555 1_555
C5 C4 1_555 1_555
C6 C5 1_555 1_555
C7 H4 1_555 1_555
C8 C7 1_555 1_555
H5 C8 1_555 1_555
C9 C8 1_555 1_555
H6 C9 1_555 1_555
C10 C6 1_555 1_555
C11 C10 1_555 1_555
C12 C4 1_555 1_555
C13 C14 1_555 1_555
C14 C15 1_555 1_555
C15 C16 1_555 1_555
C16 H7 1_555 1_555
C17 C16 1_555 1_555
H8 C17 1_555 1_555
C18 C17 1_555 1_555
C19 C18 1_555 1_555
H9 C19 1_555 1_555
C20 C19 1_555 1_555
H10 C20 1_555 1_555
C21 C20 1_555 1_555
H11 C21 1_555 1_555
C22 C21 1_555 1_555
H12 C22 1_555 1_555
C23 C14 1_555 1_555
C24 H13 1_555 1_555
C25 C24 1_555 1_555
H14 C25 1_555 1_555
C26 C25 1_555 1_555
H15 C26 1_555 1_555
C27 C26 1_555 1_555
C28 C27 1_555 1_555
C29 C28 1_555 1_555
C30 H16 1_555 1_555
C31 C30 1_555 1_555
H17 C31 1_555 1_555
C32 C31 1_555 1_555
H18 C32 1_555 1_555
C33 C29 1_555 1_555
C34 C33 1_555 1_555
C35 C27 1_555 1_555
C36 C37 1_555 1_555
C37 C38 1_555 1_555
C38 C39 1_555 1_555
C39 H19 1_555 1_555
C40 C39 1_555 1_555
H20 C40 1_555 1_555
C41 C40 1_555 1_555
C42 C41 1_555 1_555
H21 C42 1_555 1_555
C43 C42 1_555 1_555
H22 C43 1_555 1_555
C44 C43 1_555 1_555
H23 C44 1_555 1_555
C45 C44 1_555 1_555
H24 C45 1_555 1_555
C46 C37 1_555 1_555
N1 C1 1_555 1_555
N2 C6 1_555 1_555
N3 C11 1_555 1_555
H25 N3 1_555 1_555
N4 C12 1_555 1_555
N5 C29 1_555 1_555
N6 C24 1_555 1_555
N7 C35 1_555 1_555
H26 N7 1_555 1_555
N8 C34 1_555 1_555
O1 C15 1_555 1_555
O2 C38 1_555 1_555
Mn1 N1 1_555 1_555
Cl1 Mn1 1_555 1_555
H27 O1 1_555 1_555
N5C Mn1 1_555 1_555
N6C Mn1 1_555 1_555
Mn1C N5 1_555 1_555
C5 N1 1_555 1_555
C7 N2 1_555 1_555
C9 C10 1_555 1_555
C11 C12 1_555 1_555
C13 N3 1_555 1_555
C13 N4 1_555 1_555
C18 C23 1_555 1_555
C22 C23 1_555 1_555
C28 N6 1_555 1_555
C30 N5 1_555 1_555
C32 C33 1_555 1_555
C34 C35 1_555 1_555
C36 N7 1_555 1_555
C36 N8 1_555 1_555
C41 C46 1_555 1_555
C45 C46 1_555 1_555
N2 Mn1 1_555 1_555
N6 Mn1C 1_555 1_555
O2 Mn1 1_555 1_555

#END
