
#######################################################################
#
#                 Cambridge Crystallographic Data Centre
#                                CCDC 
#
#######################################################################
#
# If this CIF has been generated from an entry in the Cambridge 
# Structural Database, then it will include bibliographic, chemical, 
# crystal, experimental, refinement or atomic coordinate data resulting 
# from the CCDC's data processing and validation procedures.
#
#######################################################################

data_EYUXOM
_symmetry_cell_setting           monoclinic
_symmetry_space_group_name_H-M   'P 21/c'
_symmetry_Int_Tables_number      14
_space_group_name_Hall           '-P 2ybc'
loop_
_symmetry_equiv_pos_site_id
_symmetry_equiv_pos_as_xyz
1 x,y,z
2 -x,1/2+y,1/2-z
3 -x,-y,-z
4 x,1/2-y,1/2+z
_cell_length_a                   14.217(3)
_cell_length_b                   13.665(2)
_cell_length_c                   25.382(5)
_cell_angle_alpha                90
_cell_angle_beta                 93.176(8)
_cell_angle_gamma                90
_cell_volume                     4923.52
loop_
_atom_site_label
_atom_site_type_symbol
_atom_site_fract_x
_atom_site_fract_y
_atom_site_fract_z
Zn1 Zn 0.83072(3) 0.65261(3) -0.016021(17)
Y1 Y 1.36215(2) 0.64176(2) 0.321515(12)
Y2 Y 1.34864(2) 0.87689(2) 0.207671(12)
C1 C 1.1140(3) 0.6456(2) 0.20111(13)
C2 C 1.0864(3) 0.5546(3) 0.21925(15)
H1 H 1.1136 0.5295 0.2506
C3 C 1.0184(3) 0.5015(3) 0.19051(17)
H2 H 1.0002 0.4404 0.2025
C4 C 0.9773(3) 0.5390(3) 0.14407(16)
H3 H 0.9328 0.5023 0.1245
C5 C 1.0021(3) 0.6310(3) 0.12663(14)
C6 C 1.0711(3) 0.6833(3) 0.15537(13)
H4 H 1.0888 0.7448 0.1436
C7 C 1.1922(3) 0.7016(3) 0.23000(13)
C8 C 0.9535(3) 0.6758(3) 0.07756(15)
C9 C 1.4308(2) 0.9403(2) 0.35949(13)
C10 C 1.4168(3) 0.9725(3) 0.41026(14)
H5 H 1.3834 0.9339 0.4329
C11 C 1.4525(3) 1.0619(3) 0.42713(16)
H6 H 1.4437 1.0830 0.4613
C12 C 1.5015(3) 1.1202(3) 0.39329(15)
H7 H 1.5238 1.1811 0.4044
C13 C 1.5171(2) 1.0876(2) 0.34307(12)
C14 C 1.4819(2) 0.9971(2) 0.32626(12)
H8 H 1.4928 0.9748 0.2925
C15 C 1.5705(3) 1.1507(2) 0.30618(13)
C16 C 1.3921(3) 0.8429(2) 0.34193(13)
C17 C 1.2415(3) 0.5263(2) 0.55658(13)
C18 C 1.1549(3) 0.4786(3) 0.55029(14)
H9 H 1.1234 0.4603 0.5799
C19 C 1.1154(3) 0.4584(3) 0.50051(15)
H10 H 1.0595 0.4232 0.4966
C20 C 1.1599(3) 0.4911(3) 0.45626(14)
H11 H 1.1318 0.4812 0.4227
C21 C 1.2459(3) 0.5384(2) 0.46201(13)
C22 C 1.2876(3) 0.5539(2) 0.51202(13)
H12 H 1.3467 0.5830 0.5158
C23 C 1.2815(3) 0.5531(2) 0.61029(14)
C24 C 1.2925(3) 0.5747(2) 0.41438(13)
C25 C 1.2812(3) 0.1587(2) 0.26863(13)
C26 C 1.1927(3) 0.1786(3) 0.28531(16)
H13 H 1.1478 0.1290 0.2854
C27 C 1.1699(3) 0.2716(3) 0.30192(18)
H14 H 1.1088 0.2859 0.3108
C28 C 1.2390(3) 0.3435(2) 0.30529(16)
H15 H 1.2247 0.4053 0.3179
C29 C 1.3291(3) 0.3237(2) 0.29000(13)
C30 C 1.3488(3) 0.2319(2) 0.27036(13)
H16 H 1.4081 0.2192 0.2582
C31 C 1.3046(3) 0.0580(2) 0.25008(13)
C32 C 1.4053(3) 0.4001(2) 0.29740(13)
C33 C 0.7099(3) 0.7800(3) 0.04956(16)
H17 H 0.7620 0.7789 0.0734
C34 C 0.6327(3) 0.8327(3) 0.06201(19)
H18 H 0.6323 0.8665 0.0938
C35 C 0.5561(4) 0.8349(3) 0.0270(2)
H19 H 0.5032 0.8713 0.0345
C36 C 0.5576(3) 0.7824(4) -0.0197(2)
H20 H 0.5058 0.7824 -0.0437
C37 C 0.6377(3) 0.7302(3) -0.02965(16)
C38 C 0.6430(3) 0.6671(3) -0.07879(16)
H21 H 0.6167 0.6030 -0.0722
H22 H 0.6058 0.6969 -0.1077
C39 C 0.7936(3) 0.4379(3) 0.0091(2)
H23 H 0.8142 0.4555 0.0432
C40 C 0.7655(4) 0.3428(3) -0.0004(3)
H24 H 0.7643 0.2976 0.0270
C41 C 0.7391(4) 0.3166(4) -0.0515(3)
H25 H 0.7218 0.2523 -0.0593
C42 C 0.7384(4) 0.3852(4) -0.0909(2)
H26 H 0.7217 0.3678 -0.1256
C43 C 0.7627(3) 0.4807(3) -0.07828(18)
C44 C 0.7587(4) 0.5616(4) -0.11857(16)
H27 H 0.8180 0.5645 -0.1357
H28 H 0.7092 0.5479 -0.1454
C45 C 1.0092(3) 0.7343(4) -0.05770(19)
H29 H 1.0362 0.7130 -0.0255
C46 C 1.0656(4) 0.7789(4) -0.0922(2)
H30 H 1.1295 0.7875 -0.0836
C47 C 1.0269(4) 0.8110(4) -0.1398(2)
H31 H 1.0637 0.8423 -0.1639
C48 C 0.9329(4) 0.7958(4) -0.15099(19)
H32 H 0.9054 0.8157 -0.1833
C49 C 0.8790(3) 0.7514(3) -0.11472(17)
C50 C 0.7737(3) 0.7390(4) -0.12344(18)
H33 H 0.7423 0.7981 -0.1125
H34 H 0.7579 0.7291 -0.1607
N1 N 0.7139(2) 0.7298(2) 0.00431(13)
N2 N 0.7924(2) 0.5064(2) -0.02899(14)
N3 N 0.9168(2) 0.7196(2) -0.06798(13)
N4 N 0.7407(2) 0.6561(3) -0.09371(13)
O1 O 1.2294(2) 0.6624(2) 0.27079(10)
O2 O 1.21621(19) 0.78188(18) 0.21202(10)
O3 O 0.9038(2) 0.6174(2) 0.04862(11)
O4 O 0.9628(3) 0.7634(2) 0.06870(13)
O5 O 1.39147(17) 0.81747(15) 0.29359(8)
O6 O 1.3634(2) 0.78470(17) 0.37561(9)
O7 O 1.5752(2) 1.12259(18) 0.25958(10)
O8 O 1.60609(19) 1.22826(16) 0.32456(10)
O9 O 1.37999(19) 0.58925(18) 0.41552(9)
O10 O 1.24080(18) 0.59145(19) 0.37303(9)
O11 O 1.3651(2) 0.5835(2) 0.61641(10)
O12 O 1.2308(2) 0.5466(2) 0.64894(10)
O13 O 1.37273(18) 0.04777(16) 0.21973(10)
O14 O 1.25960(19) -0.01516(16) 0.26360(9)
O15 O 1.48771(18) 0.37843(16) 0.28716(10)
O16 O 1.3815(2) 0.48055(17) 0.31565(11)
O17 O 1.52677(18) 0.64096(18) 0.34710(10)
Y1A Y 1.63785(2) 1.14176(2) 0.178485(12)
Y2A Y 1.65136(2) 1.37689(2) 0.292329(12)
Y2C Y 1.34864(2) 0.62311(2) 0.707671(12)
Y2_2 Y 1.34864(2) -0.12311(2) 0.207671(12)
Y2A_2 Y 1.65136(2) 0.37689(2) 0.292329(12)
O7A O 1.4248(2) 0.62259(18) 0.24042(10)
O8A O 1.39391(19) 0.72826(16) 0.17544(10)
O11C O 1.3651(2) 0.9165(2) 0.11641(10)
O12C O 1.2308(2) 0.9534(2) 0.14894(10)
O13_2 O 1.37273(18) 1.04777(16) 0.21973(10)
O14_2 O 1.25960(19) 0.98484(16) 0.26360(9)
O15A O 1.51229(18) 0.87843(16) 0.21284(10)
O18 O 0.8239(16) 0.3795(16) 0.1542(11)
O19 O 0.9878(4) 0.4292(4) 0.3501(2)
loop_
_geom_bond_atom_site_label_1
_geom_bond_atom_site_label_2
_geom_bond_site_symmetry_1
_geom_bond_site_symmetry_2
Zn1 N1 1_555 1_555
Y1 O1 1_555 1_555
Y2 O2 1_555 1_555
C1 C2 1_555 1_555
C2 H1 1_555 1_555
C3 C2 1_555 1_555
H2 C3 1_555 1_555
C4 C3 1_555 1_555
H3 C4 1_555 1_555
C5 C4 1_555 1_555
C6 C1 1_555 1_555
H4 C6 1_555 1_555
C7 C1 1_555 1_555
C8 C5 1_555 1_555
C9 C10 1_555 1_555
C10 H5 1_555 1_555
C11 C10 1_555 1_555
H6 C11 1_555 1_555
C12 C11 1_555 1_555
H7 C12 1_555 1_555
C13 C12 1_555 1_555
C14 C9 1_555 1_555
H8 C14 1_555 1_555
C15 C13 1_555 1_555
C16 C9 1_555 1_555
C17 C18 1_555 1_555
C18 H9 1_555 1_555
C19 C18 1_555 1_555
H10 C19 1_555 1_555
C20 C19 1_555 1_555
H11 C20 1_555 1_555
C21 C20 1_555 1_555
C22 C17 1_555 1_555
H12 C22 1_555 1_555
C23 C17 1_555 1_555
C24 C21 1_555 1_555
C25 C26 1_555 1_555
C26 H13 1_555 1_555
C27 C26 1_555 1_555
H14 C27 1_555 1_555
C28 C27 1_555 1_555
H15 C28 1_555 1_555
C29 C28 1_555 1_555
C30 C25 1_555 1_555
H16 C30 1_555 1_555
C31 C25 1_555 1_555
C32 C29 1_555 1_555
C33 H17 1_555 1_555
C34 C33 1_555 1_555
H18 C34 1_555 1_555
C35 C34 1_555 1_555
H19 C35 1_555 1_555
C36 C35 1_555 1_555
H20 C36 1_555 1_555
C37 C36 1_555 1_555
C38 C37 1_555 1_555
H21 C38 1_555 1_555
H22 C38 1_555 1_555
C39 H23 1_555 1_555
C40 C39 1_555 1_555
H24 C40 1_555 1_555
C41 C40 1_555 1_555
H25 C41 1_555 1_555
C42 C41 1_555 1_555
H26 C42 1_555 1_555
C43 C42 1_555 1_555
C44 C43 1_555 1_555
H27 C44 1_555 1_555
H28 C44 1_555 1_555
C45 H29 1_555 1_555
C46 C45 1_555 1_555
H30 C46 1_555 1_555
C47 C46 1_555 1_555
H31 C47 1_555 1_555
C48 C47 1_555 1_555
H32 C48 1_555 1_555
C49 C48 1_555 1_555
C50 C49 1_555 1_555
H33 C50 1_555 1_555
H34 C50 1_555 1_555
N1 C33 1_555 1_555
N2 Zn1 1_555 1_555
N3 Zn1 1_555 1_555
N4 Zn1 1_555 1_555
O1 C7 1_555 1_555
O2 C7 1_555 1_555
O3 Zn1 1_555 1_555
O4 C8 1_555 1_555
O5 Y1 1_555 1_555
O6 Y1 1_555 1_555
O7 C15 1_555 1_555
O8 C15 1_555 1_555
O9 Y1 1_555 1_555
O10 Y1 1_555 1_555
O11 C23 1_555 1_555
O12 C23 1_555 1_555
O13 C31 1_555 1_555
O14 C31 1_555 1_555
O15 C32 1_555 1_555
O16 Y1 1_555 1_555
O17 Y1 1_555 1_555
Y1A O7 1_555 1_555
Y2A O8 1_555 1_555
Y2C O11 1_555 1_555
Y2_2 O13 1_555 1_555
Y2A_2 O15 1_555 1_555
O7A Y1 1_555 1_555
O8A Y2 1_555 1_555
O11C Y2 1_555 1_555
O12C Y2 1_555 1_555
O13_2 Y2 1_555 1_555
O14_2 Y2 1_555 1_555
O15A Y2 1_555 1_555
Y2 O5 1_555 1_555
C5 C6 1_555 1_555
C8 O3 1_555 1_555
C13 C14 1_555 1_555
C16 O5 1_555 1_555
C16 O6 1_555 1_555
C21 C22 1_555 1_555
C24 O9 1_555 1_555
C24 O10 1_555 1_555
C29 C30 1_555 1_555
C32 O16 1_555 1_555
C37 N1 1_555 1_555
C38 N4 1_555 1_555
C39 N2 1_555 1_555
C43 N2 1_555 1_555
C44 N4 1_555 1_555
C45 N3 1_555 1_555
C49 N3 1_555 1_555
C50 N4 1_555 1_555
O12 Y2C 1_555 1_555
O14 Y2_2 1_555 1_555

#END
