
#######################################################################
#
#                 Cambridge Crystallographic Data Centre
#                                CCDC 
#
#######################################################################
#
# If this CIF has been generated from an entry in the Cambridge 
# Structural Database, then it will include bibliographic, chemical, 
# crystal, experimental, refinement or atomic coordinate data resulting 
# from the CCDC's data processing and validation procedures.
#
#######################################################################

data_EZABEN
_symmetry_cell_setting           orthorhombic
_symmetry_space_group_name_H-M   'C m c 21'
_symmetry_Int_Tables_number      36
_space_group_name_Hall           'C 2n -2'
loop_
_symmetry_equiv_pos_site_id
_symmetry_equiv_pos_as_xyz
1 x,y,z
2 -x,-y,1/2+z
3 -x,y,z
4 x,-y,1/2+z
5 1/2+x,1/2+y,z
6 1/2-x,1/2-y,1/2+z
7 1/2-x,1/2+y,z
8 1/2+x,1/2-y,1/2+z
_cell_length_a                   11.856(8)
_cell_length_b                   12.019(8)
_cell_length_c                   16.688(12)
_cell_angle_alpha                90
_cell_angle_beta                 90
_cell_angle_gamma                90
_cell_volume                     2377.99
loop_
_atom_site_label
_atom_site_type_symbol
_atom_site_fract_x
_atom_site_fract_y
_atom_site_fract_z
Cd1 Cd -1.0000 0.06145(6) -0.32061(5)
Cd2 Cd -1.0000 -0.30719(6) -0.17980(5)
Cd3 Cd -1.0000 0.37937(6) -0.28458(5)
Cl1 Cl -1.0000 -0.0761(2) -0.2006(2)
Cl2 Cl -1.0000 0.5688(3) -0.3437(2)
Cl3 Cl -1.0000 -0.5200(2) -0.1428(2)
N1 N -0.8498(5) 0.1616(5) -0.2692(5)
N2 N -0.8523(6) 0.2737(5) -0.2473(5)
N3 N -0.6824(6) 0.2060(5) -0.2177(5)
N4 N -1.0000 0.2982(8) -0.4133(6)
N5 N -1.0000 0.1872(7) -0.4284(7)
N6 N -1.0000 0.2720(8) -0.5455(6)
N7 N -1.1702(8) -0.1779(8) -0.4782(6)
O1 O -1.1338(9) -0.0416(6) -0.3905(7)
C1 C -0.7473(7) 0.1258(8) -0.2500(6)
H1 H -0.7229 0.0531 -0.2581
C2 C -0.7503(8) 0.2957(6) -0.2181(5)
H2 H -0.7283 0.3655 -0.1999
C3 C -1.0000 0.3474(10) -0.4825(7)
H3 H -1.0000 0.4242 -0.4891
C4 C -1.0000 0.1744(10) -0.5044(9)
H4 H -1.0000 0.1051 -0.5291
C5 C -1.1438(11) -0.1400(9) -0.4068(7)
C6 C -1.191(2) -0.1003(13) -0.5414(10)
H5 H -1.2557 -0.1242 -0.5717
H6 H -1.1266 -0.0966 -0.5759
H7 H -1.2057 -0.0281 -0.5190
C7 C -1.1865(13) -0.2962(10) -0.4929(11)
H8 H -1.1269 -0.3234 -0.5266
H9 H -1.2577 -0.3077 -0.5189
H10 H -1.1855 -0.3356 -0.4429
H11 H -1.148(9) -0.214(8) -0.361(6)
Cd2D Cd -0.5000 0.19281(6) -0.17980(5)
Cd2A Cd -1.0000 0.30719(6) -0.67980(5)
Cd2D_2 Cd -1.5000 0.19281(6) -0.17980(5)
Cd3_2 Cd -1.0000 -0.62063(6) -0.28458(5)
Cl3_2 Cl -1.0000 0.4800(2) -0.1428(2)
N1B N -1.1502(5) 0.1616(5) -0.2692(5)
N2B N -1.1477(6) 0.2737(5) -0.2473(5)
N3B N -1.3176(6) 0.2060(5) -0.2177(5)
N3D N -1.1824(6) -0.2940(5) -0.2177(5)
N3F N -0.8176(6) -0.2940(5) -0.2177(5)
N6A N -1.0000 -0.2720(8) -0.0455(6)
N7B N -0.8298(8) -0.1779(8) -0.4782(6)
O1B O -0.8662(9) -0.0416(6) -0.3905(7)
C1B C -1.2527(7) 0.1258(8) -0.2500(6)
H1B H -1.2771 0.0531 -0.2581
C2B C -1.2497(8) 0.2957(6) -0.2181(5)
H2B H -1.2717 0.3655 -0.1999
C5B C -0.8562(11) -0.1400(9) -0.4068(7)
C6B C -0.809(2) -0.1003(13) -0.5414(10)
H5B H -0.7443 -0.1242 -0.5717
H6B H -0.8734 -0.0966 -0.5759
H7B H -0.7943 -0.0281 -0.5190
C7B C -0.8135(13) -0.2962(10) -0.4929(11)
H8B H -0.8731 -0.3234 -0.5266
H9B H -0.7423 -0.3077 -0.5189
H10B H -0.8145 -0.3356 -0.4429
H11B H -0.852(9) -0.214(8) -0.361(6)
loop_
_geom_bond_atom_site_label_1
_geom_bond_atom_site_label_2
_geom_bond_site_symmetry_1
_geom_bond_site_symmetry_2
Cd1 Cl1 1_555 1_555
Cd2 Cl1 1_555 1_555
Cd3 Cl2 1_555 1_555
Cl3 Cd2 1_555 1_555
N1 Cd1 1_555 1_555
N2 Cd3 1_555 1_555
N3 C1 1_555 1_555
N4 Cd3 1_555 1_555
N5 Cd1 1_555 1_555
N6 C3 1_555 1_555
N7 C5 1_555 1_555
O1 Cd1 1_555 1_555
C1 N1 1_555 1_555
H1 C1 1_555 1_555
C2 N2 1_555 1_555
H2 C2 1_555 1_555
C3 N4 1_555 1_555
H3 C3 1_555 1_555
C4 N5 1_555 1_555
H4 C4 1_555 1_555
C5 O1 1_555 1_555
C6 N7 1_555 1_555
H5 C6 1_555 1_555
H6 C6 1_555 1_555
H7 C6 1_555 1_555
C7 N7 1_555 1_555
H8 C7 1_555 1_555
H9 C7 1_555 1_555
H10 C7 1_555 1_555
H11 C5 1_555 1_555
Cd2D N3 1_555 1_555
Cd2A N6 1_555 1_555
Cd2D_2 N3B 1_555 1_555
Cd3_2 Cl3 1_555 1_555
Cl3_2 Cd3 1_555 1_555
N1B Cd1 1_555 1_555
N2B Cd3 1_555 1_555
N3B C1B 1_555 1_555
N3D Cd2 1_555 1_555
N3F Cd2 1_555 1_555
N6A Cd2 1_555 1_555
N7B C5B 1_555 1_555
O1B Cd1 1_555 1_555
C1B N1B 1_555 1_555
H1B C1B 1_555 1_555
C2B N2B 1_555 1_555
H2B C2B 1_555 1_555
C5B O1B 1_555 1_555
C6B N7B 1_555 1_555
H5B C6B 1_555 1_555
H6B C6B 1_555 1_555
H7B C6B 1_555 1_555
C7B N7B 1_555 1_555
H8B C7B 1_555 1_555
H9B C7B 1_555 1_555
H10B C7B 1_555 1_555
H11B C5B 1_555 1_555
N1 N2 1_555 1_555
N3 C2 1_555 1_555
N4 N5 1_555 1_555
N6 C4 1_555 1_555
N1B N2B 1_555 1_555
N3B C2B 1_555 1_555

#END
