
#######################################################################
#
#                 Cambridge Crystallographic Data Centre
#                                CCDC 
#
#######################################################################
#
# If this CIF has been generated from an entry in the Cambridge 
# Structural Database, then it will include bibliographic, chemical, 
# crystal, experimental, refinement or atomic coordinate data resulting 
# from the CCDC's data processing and validation procedures.
#
#######################################################################

data_EZENUS
_symmetry_cell_setting           monoclinic
_symmetry_space_group_name_H-M   'P 21/c'
_symmetry_Int_Tables_number      14
_space_group_name_Hall           '-P 2ybc'
loop_
_symmetry_equiv_pos_site_id
_symmetry_equiv_pos_as_xyz
1 x,y,z
2 x,1/2-y,1/2+z
3 -x,-y,-z
4 -x,1/2+y,1/2-z
_cell_length_a                   9.5403(7)
_cell_length_b                   11.6170(8)
_cell_length_c                   19.7351(15)
_cell_angle_alpha                90.00
_cell_angle_beta                 97.918(2)
_cell_angle_gamma                90.00
_cell_volume                     2166.38
loop_
_atom_site_label
_atom_site_type_symbol
_atom_site_fract_x
_atom_site_fract_y
_atom_site_fract_z
Pb1 Pb 0.20059(8) 0.44626(8) 0.47066(4)
Pb2 Pb 0.50575(9) -0.06356(8) 0.85250(4)
P1 P -0.4434(6) 0.3462(5) 0.4809(3)
S1 S -0.2765(6) 0.1552(6) 0.7283(3)
N1 N -0.3631(19) 0.1991(16) 0.3821(9)
H1 H -0.3379 0.2676 0.3650
N2 N 0.094(2) 0.2478(19) 0.4292(9)
C1 C 0.174(3) 0.151(3) 0.4420(16)
H2 H 0.2690 0.1587 0.4604
C2 C 0.119(3) 0.043(2) 0.4282(15)
H3 H 0.1785 -0.0208 0.4347
C3 C -0.026(3) 0.028(3) 0.4044(14)
H4 H -0.0642 -0.0455 0.3957
C4 C -0.109(2) 0.1251(19) 0.3946(12)
C5 C -0.043(3) 0.231(2) 0.4078(13)
H5 H -0.1002 0.2957 0.4011
C6 C -0.259(3) 0.110(3) 0.3674(15)
H6 H -0.2886 0.0450 0.3415
C7 C -0.363(3) 0.212(2) 0.4590(11)
H7 H -0.2658 0.2086 0.4818
H8 H -0.4138 0.1477 0.4756
C8 C -0.509(2) 0.168(2) 0.3477(15)
H9 H -0.5082 0.1628 0.2992
H10 H -0.5749 0.2256 0.3574
H11 H -0.5358 0.0947 0.3647
C9 C -0.096(2) 0.179(2) 0.7175(12)
C10 C -0.067(2) 0.254(2) 0.6667(12)
H12 H -0.1389 0.2945 0.6409
C11 C 0.074(3) 0.266(2) 0.6551(12)
C12 C 0.182(2) 0.2124(18) 0.6971(10)
H13 H 0.2758 0.2245 0.6910
C13 C 0.148(2) 0.139(2) 0.7493(11)
C14 C 0.008(2) 0.1217(19) 0.7582(11)
H14 H -0.0147 0.0716 0.7918
C15 C 0.107(2) 0.341(2) 0.5975(11)
C16 C 0.271(3) 0.077(2) 0.7929(12)
O1 O 0.018(2) 0.394(2) 0.5648(12)
O2 O 0.2324(17) 0.3369(16) 0.5830(8)
O3 O 0.3939(18) 0.0905(18) 0.7749(10)
O4 O 0.247(2) 0.0165(17) 0.8403(8)
O5 O -0.3914(17) 0.3685(14) 0.5557(7)
O6 O -0.6010(16) 0.3341(14) 0.4635(8)
O7 O -0.3825(16) 0.4351(14) 0.4354(7)
O8 O -0.3451(19) 0.2653(18) 0.7183(9)
O9 O -0.330(2) 0.0758(19) 0.6775(10)
O10 O -0.2782(17) 0.1145(16) 0.7979(8)
O4A O 0.247(2) 0.4835(17) 0.3403(8)
O6_2 O 0.3990(16) 0.3341(14) 0.4635(8)
O7B O 0.3825(16) 0.5649(14) 0.5646(7)
O5C O 0.3914(17) -0.1315(14) 0.9443(7)
O7A O 0.6175(16) 0.0649(14) 0.9354(7)
O8C O 0.3451(19) -0.2347(18) 0.7817(9)
Pb1A Pb 0.20059(8) 0.05374(8) 0.97066(4)
Pb2C Pb -0.50575(9) 0.43644(8) 0.64750(4)
Pb1_2 Pb -0.79941(8) 0.44626(8) 0.47066(4)
Pb1B Pb -0.20059(8) 0.55374(8) 0.52934(4)
Pb2A Pb -0.49425(9) 0.56356(8) 0.35250(4)
O11 O -0.579(2) 0.1169(18) 0.5769(10)
loop_
_geom_bond_atom_site_label_1
_geom_bond_atom_site_label_2
_geom_bond_site_symmetry_1
_geom_bond_site_symmetry_2
Pb1 N2 1_555 1_555
Pb2 O3 1_555 1_555
P1 C7 1_555 1_555
S1 C9 1_555 1_555
N1 H1 1_555 1_555
N2 C1 1_555 1_555
C1 H2 1_555 1_555
C2 C1 1_555 1_555
H3 C2 1_555 1_555
C3 C2 1_555 1_555
H4 C3 1_555 1_555
C4 C3 1_555 1_555
C5 N2 1_555 1_555
H5 C5 1_555 1_555
C6 N1 1_555 1_555
H6 C6 1_555 1_555
C7 N1 1_555 1_555
H7 C7 1_555 1_555
H8 C7 1_555 1_555
C8 N1 1_555 1_555
H9 C8 1_555 1_555
H10 C8 1_555 1_555
H11 C8 1_555 1_555
C9 C10 1_555 1_555
C10 H12 1_555 1_555
C11 C10 1_555 1_555
C12 C11 1_555 1_555
H13 C12 1_555 1_555
C13 C12 1_555 1_555
C14 C9 1_555 1_555
H14 C14 1_555 1_555
C15 C11 1_555 1_555
C16 C13 1_555 1_555
O1 Pb1 1_555 1_555
O2 Pb1 1_555 1_555
O3 C16 1_555 1_555
O4 Pb2 1_555 1_555
O5 P1 1_555 1_555
O6 P1 1_555 1_555
O7 P1 1_555 1_555
O8 S1 1_555 1_555
O9 S1 1_555 1_555
O10 S1 1_555 1_555
O4A Pb1 1_555 1_555
O6_2 Pb1 1_555 1_555
O7B Pb1 1_555 1_555
O5C Pb2 1_555 1_555
O7A Pb2 1_555 1_555
O8C Pb2 1_555 1_555
Pb1A O4 1_555 1_555
Pb2C O5 1_555 1_555
Pb1_2 O6 1_555 1_555
Pb1B O7 1_555 1_555
Pb2A O7 1_555 1_555
C4 C6 1_555 1_555
C4 C5 1_555 1_555
C13 C14 1_555 1_555
C15 O1 1_555 1_555
C15 O2 1_555 1_555
C16 O4 1_555 1_555
O8 Pb2C 1_555 1_555

#END
