
#######################################################################
#
#                 Cambridge Crystallographic Data Centre
#                                CCDC 
#
#######################################################################
#
# If this CIF has been generated from an entry in the Cambridge 
# Structural Database, then it will include bibliographic, chemical, 
# crystal, experimental, refinement or atomic coordinate data resulting 
# from the CCDC's data processing and validation procedures.
#
#######################################################################

data_EZENOM
_symmetry_cell_setting           triclinic
_symmetry_space_group_name_H-M   'P -1'
_symmetry_Int_Tables_number      2
_space_group_name_Hall           '-P 1'
loop_
_symmetry_equiv_pos_site_id
_symmetry_equiv_pos_as_xyz
1 x,y,z
2 -x,-y,-z
_cell_length_a                   9.9148(4)
_cell_length_b                   10.4382(4)
_cell_length_c                   10.6926(2)
_cell_angle_alpha                96.495(2)
_cell_angle_beta                 110.599(2)
_cell_angle_gamma                98.433(2)
_cell_volume                     1008.31
loop_
_atom_site_label
_atom_site_type_symbol
_atom_site_fract_x
_atom_site_fract_y
_atom_site_fract_z
Pb1 Pb 0.80745(5) 1.08204(4) 0.98180(4)
Pb2 Pb 0.74093(4) 0.72534(4) 0.73765(4)
Pb3 Pb 0.63660(4) 1.24871(4) 0.61616(4)
P1 P 0.5002(3) 1.0485(3) 0.3003(3)
S1 S 0.6251(3) 0.5372(3) 1.3792(3)
N1 N 0.7803(10) 1.1403(9) 0.4809(9)
C1 C 0.9224(13) 1.2328(12) 0.5117(12)
H1 H 0.9766 1.1952 0.4633
H2 H 0.9790 1.2480 0.6075
H3 H 0.9030 1.3148 0.4840
C2 C 0.6909(11) 1.1225(10) 0.3342(10)
H4 H 0.7305 1.0664 0.2832
H5 H 0.6952 1.2072 0.3049
C3 C 0.8100(12) 1.0156(11) 0.5291(12)
H6 H 0.8917 0.9926 0.5076
H7 H 0.7246 0.9464 0.4790
C4 C 0.8452(13) 1.0188(12) 0.6765(14)
C5 C 0.7344(12) 0.5698(11) 1.2802(11)
C6 C 0.8278(12) 0.4885(10) 1.2710(11)
H8 H 0.8309 0.4153 1.3133
C7 C 0.9188(12) 0.5143(10) 1.1983(11)
C8 C 0.9125(11) 0.6235(11) 1.1368(10)
H9 H 0.9742 0.6421 1.0901
C9 C 0.8173(12) 0.7061(11) 1.1425(11)
C10 C 0.7250(11) 0.6789(11) 1.2165(11)
H10 H 0.6599 0.7330 1.2221
C11 C 0.8155(12) 0.8279(11) 1.0838(11)
C12 C 1.0303(12) 0.4295(11) 1.2011(11)
O1 O 0.8922(10) 0.9254(9) 0.7294(9)
O2 O 0.8214(9) 1.1178(8) 0.7459(8)
O3 O 0.7589(10) 0.9151(8) 1.1213(8)
O4 O 0.8730(9) 0.8384(8) 0.9939(8)
O5 O 1.0120(10) 0.3165(9) 1.2307(11)
O6 O 1.1402(10) 0.4727(9) 1.1760(10)
O7 O 0.6467(13) 0.6604(11) 1.4677(10)
O8 O 0.4745(12) 0.5016(13) 1.2842(13)
O9 O 0.6777(16) 0.4365(12) 1.4505(15)
O10 O 0.4047(9) 1.0783(8) 0.1616(8)
O11 O 0.4613(8) 1.1181(8) 0.4127(8)
O12 O 0.4887(9) 0.9008(8) 0.2924(8)
O13 O 0.5755(10) 1.1669(10) 1.0130(10)
O10A O 0.5953(9) 0.9217(8) 0.8384(8)
O5A O 0.9880(10) 0.6835(9) 0.7693(11)
O6A O 0.8598(10) 0.5273(9) 0.8240(10)
O7_2 O 0.6467(13) 0.6604(11) 0.4677(10)
O12A O 0.5113(9) 1.0992(8) 0.7076(8)
Pb2A Pb 1.25907(4) 0.27466(4) 1.26235(4)
Pb2_2 Pb 0.74093(4) 0.72534(4) 1.73765(4)
Pb1A Pb 0.19255(5) 0.91796(4) 0.01820(4)
Pb3A Pb 0.36340(4) 0.75129(4) 0.38384(4)
O14 O 0.7503(13) 1.3262(10) 0.9187(10)
loop_
_geom_bond_atom_site_label_1
_geom_bond_atom_site_label_2
_geom_bond_site_symmetry_1
_geom_bond_site_symmetry_2
Pb1 O2 1_555 1_555
Pb2 O1 1_555 1_555
Pb3 N1 1_555 1_555
P1 C2 1_555 1_555
S1 C5 1_555 1_555
N1 C1 1_555 1_555
C1 H1 1_555 1_555
H2 C1 1_555 1_555
H3 C1 1_555 1_555
C2 N1 1_555 1_555
H4 C2 1_555 1_555
H5 C2 1_555 1_555
C3 N1 1_555 1_555
H6 C3 1_555 1_555
H7 C3 1_555 1_555
C4 C3 1_555 1_555
C5 C6 1_555 1_555
C6 H8 1_555 1_555
C7 C6 1_555 1_555
C8 C7 1_555 1_555
H9 C8 1_555 1_555
C9 C8 1_555 1_555
C10 C5 1_555 1_555
H10 C10 1_555 1_555
C11 C9 1_555 1_555
C12 C7 1_555 1_555
O1 C4 1_555 1_555
O2 Pb3 1_555 1_555
O3 Pb1 1_555 1_555
O4 Pb1 1_555 1_555
O5 C12 1_555 1_555
O6 C12 1_555 1_555
O7 S1 1_555 1_555
O8 S1 1_555 1_555
O9 S1 1_555 1_555
O10 P1 1_555 1_555
O11 Pb3 1_555 1_555
O12 P1 1_555 1_555
O13 Pb1 1_555 1_555
O10A Pb1 1_555 1_555
O5A Pb2 1_555 1_555
O6A Pb2 1_555 1_555
O7_2 Pb2 1_555 1_555
O12A Pb3 1_555 1_555
Pb2A O5 1_555 1_555
Pb2_2 O7 1_555 1_555
Pb1A O10 1_555 1_555
Pb3A O12 1_555 1_555
Pb2 O4 1_555 1_555
P1 O11 1_555 1_555
C4 O2 1_555 1_555
C9 C10 1_555 1_555
C11 O3 1_555 1_555
C11 O4 1_555 1_555
O6 Pb2A 1_555 1_555

#END
