
#######################################################################
#
#                 Cambridge Crystallographic Data Centre
#                                CCDC 
#
#######################################################################
#
# If this CIF has been generated from an entry in the Cambridge 
# Structural Database, then it will include bibliographic, chemical, 
# crystal, experimental, refinement or atomic coordinate data resulting 
# from the CCDC's data processing and validation procedures.
#
#######################################################################

data_EZIMAC
_symmetry_cell_setting           rhombohedral
_symmetry_space_group_name_H-M   'R -3 c'
_symmetry_Int_Tables_number      167
_space_group_name_Hall           '-R 3 2"c'
loop_
_symmetry_equiv_pos_site_id
_symmetry_equiv_pos_as_xyz
1 x,y,z
2 -y,x-y,z
3 -x+y,-x,z
4 y,x,1/2-z
5 x-y,-y,1/2-z
6 -x,-x+y,1/2-z
7 2/3+x,1/3+y,1/3+z
8 2/3-y,1/3+x-y,1/3+z
9 2/3-x+y,1/3-x,1/3+z
10 2/3+y,1/3+x,5/6-z
11 2/3+x-y,1/3-y,5/6-z
12 2/3-x,1/3-x+y,5/6-z
13 1/3+x,2/3+y,2/3+z
14 1/3-y,2/3+x-y,2/3+z
15 1/3-x+y,2/3-x,2/3+z
16 1/3+y,2/3+x,1/6-z
17 1/3+x-y,2/3-y,1/6-z
18 1/3-x,2/3-x+y,1/6-z
19 -x,-y,-z
20 y,-x+y,-z
21 x-y,x,-z
22 -y,-x,1/2+z
23 -x+y,y,1/2+z
24 x,x-y,1/2+z
25 1/3-x,2/3-y,2/3-z
26 1/3+y,2/3-x+y,2/3-z
27 1/3+x-y,2/3+x,2/3-z
28 1/3-y,2/3-x,1/6+z
29 1/3-x+y,2/3+y,1/6+z
30 1/3+x,2/3+x-y,1/6+z
31 2/3-x,1/3-y,1/3-z
32 2/3+y,1/3-x+y,1/3-z
33 2/3+x-y,1/3+x,1/3-z
34 2/3-y,1/3-x,5/6+z
35 2/3-x+y,1/3+y,5/6+z
36 2/3+x,1/3+x-y,5/6+z
_cell_length_a                   18.218(3)
_cell_length_b                   18.218(3)
_cell_length_c                   72.761(15)
_cell_angle_alpha                90
_cell_angle_beta                 90
_cell_angle_gamma                120
_cell_volume                     20913.7
loop_
_atom_site_label
_atom_site_type_symbol
_atom_site_fract_x
_atom_site_fract_y
_atom_site_fract_z
Cu1 Cu 0.786118(13) 1.171247(14) 0.931043(3)
O1 O 0.68182(9) 1.13062(9) 0.917561(17)
O2 O 0.72091(9) 1.08286(9) 0.893107(18)
O3 O 0.43824(9) 1.16274(10) 0.915886(19)
O4 O 0.35247(9) 1.12239(10) 0.891213(18)
N1 N 0.39984(10) 0.87006(10) 0.78883(2)
C1 C 0.43052(12) 0.90731(12) 0.80503(2)
H1 H 0.4813 0.9607 0.8052
C2 C 0.32821(13) 0.79490(12) 0.78864(2)
H2 H 0.3058 0.7685 0.7771
C3 C 0.28529(15) 0.75397(14) 0.80454(3)
H3 H 0.2349 0.7004 0.8039
C4 C 0.31728(15) 0.79267(15) 0.82135(3)
H4 H 0.2891 0.7659 0.8324
C5 C 0.39127(13) 0.87126(13) 0.82177(2)
C6 C 0.42597(14) 0.91733(14) 0.83857(3)
C7 C 0.45452(13) 0.95909(14) 0.85214(3)
C8 C 0.48513(13) 1.01071(13) 0.86848(2)
C9 C 0.56150(13) 1.02828(13) 0.87668(2)
H5 H 0.5951 1.0073 0.8714
C10 C 0.58811(12) 1.07691(12) 0.89266(2)
C11 C 0.53940(12) 1.10803(12) 0.90030(2)
H6 H 0.5574 1.1402 0.9113
C12 C 0.46441(12) 1.09244(13) 0.89190(2)
C13 C 0.43687(13) 1.04368(13) 0.87602(2)
H7 H 0.3855 1.0327 0.8703
C14 C 0.67022(12) 1.09784(12) 0.90168(2)
C15 C 0.41455(12) 1.12865(12) 0.90033(2)
Cu1I Cu 0.837914(14) 1.119451(13) 0.902290(3)
Cu1B Cu 0.385129(19) 1.213882(13) 0.931043(3)
Cu1J Cu 0.281538(19) 1.162086(14) 0.902290(3)
Cu1IA Cu 0.452785(13) 0.948204(19) 0.764376(3)
O2I O 0.74953(9) 1.05424(9) 0.940226(18)
O3A O 0.83726(10) 1.27550(13) 0.915886(19)
O4J O 0.89675(13) 1.21094(10) 0.942120(18)
N1CA N 0.73317(10) 1.19645(14) 0.95550(2)
loop_
_geom_bond_atom_site_label_1
_geom_bond_atom_site_label_2
_geom_bond_site_symmetry_1
_geom_bond_site_symmetry_2
Cu1 O1 1_555 1_555
O1 C14 1_555 1_555
O2 C14 1_555 1_555
O3 C15 1_555 1_555
O4 C15 1_555 1_555
N1 C1 1_555 1_555
C1 H1 1_555 1_555
C2 N1 1_555 1_555
H2 C2 1_555 1_555
C3 C2 1_555 1_555
H3 C3 1_555 1_555
C4 C3 1_555 1_555
H4 C4 1_555 1_555
C5 C1 1_555 1_555
C6 C5 1_555 1_555
C7 C6 1_555 1_555
C8 C7 1_555 1_555
C9 C8 1_555 1_555
H5 C9 1_555 1_555
C10 C9 1_555 1_555
C11 C10 1_555 1_555
H6 C11 1_555 1_555
C12 C11 1_555 1_555
C13 C8 1_555 1_555
H7 C13 1_555 1_555
C14 C10 1_555 1_555
C15 C12 1_555 1_555
Cu1I O2 1_555 1_555
Cu1B O3 1_555 1_555
Cu1J O4 1_555 1_555
Cu1IA N1 1_555 1_555
O2I Cu1 1_555 1_555
O3A Cu1 1_555 1_555
O4J Cu1 1_555 1_555
N1CA Cu1 1_555 1_555
C4 C5 1_555 1_555
C12 C13 1_555 1_555

#END
