
#######################################################################
#
#                 Cambridge Crystallographic Data Centre
#                                CCDC 
#
#######################################################################
#
# If this CIF has been generated from an entry in the Cambridge 
# Structural Database, then it will include bibliographic, chemical, 
# crystal, experimental, refinement or atomic coordinate data resulting 
# from the CCDC's data processing and validation procedures.
#
#######################################################################

data_EZIZUI
_symmetry_cell_setting           monoclinic
_symmetry_space_group_name_H-M   'C 2/c'
_symmetry_Int_Tables_number      15
_space_group_name_Hall           '-C 2yn'
loop_
_symmetry_equiv_pos_site_id
_symmetry_equiv_pos_as_xyz
1 x,y,z
2 1/2+x,1/2+y,z
3 x,-y,1/2+z
4 1/2+x,1/2-y,1/2+z
5 -x,-y,-z
6 1/2-x,1/2-y,-z
7 -x,y,1/2-z
8 1/2-x,1/2+y,1/2-z
_cell_length_a                   11.604(4)
_cell_length_b                   18.511(3)
_cell_length_c                   12.6809(18)
_cell_angle_alpha                90
_cell_angle_beta                 92.482(18)
_cell_angle_gamma                90
_cell_volume                     2721.32
loop_
_atom_site_label
_atom_site_type_symbol
_atom_site_fract_x
_atom_site_fract_y
_atom_site_fract_z
Cu1 Cu 0.0000 0.0000 0.5000
O1 O -0.0204(3) 0.0699(2) 0.6119(3)
O2 O 0.1703(4) 0.0697(2) 0.5016(3)
O3 O 0.1425(5) 0.2526(3) 0.8239(4)
O4 O -0.0826(5) 0.0671(3) 0.3987(4)
C1 C 0.0583(5) 0.1174(3) 0.6369(4)
C2 C 0.1629(5) 0.1139(3) 0.5722(5)
C3 C 0.2566(5) 0.1677(3) 0.5939(5)
C4 C 0.3512(6) 0.1698(4) 0.5303(5)
C5 C 0.4335(6) 0.2231(5) 0.5484(6)
C6 C 0.4238(6) 0.2723(4) 0.6280(6)
C7 C 0.3301(6) 0.2699(4) 0.6918(6)
C8 C 0.2450(5) 0.2172(3) 0.6765(5)
C9 C 0.1430(5) 0.2138(3) 0.7453(5)
C10 C 0.0505(4) 0.1645(3) 0.7178(4)
H1 H 0.3612 0.1356 0.4775
H2 H 0.4970 0.2271 0.5053
H3 H 0.4803 0.3091 0.6381
H4 H 0.3257 0.3043 0.7446
H5 H -0.108(7) 0.049(5) 0.350(7)
H6 H -0.158(5) 0.083(5) 0.431(7)
C10F C -0.0505(4) 0.1645(3) 0.7822(4)
C1F C -0.0583(5) 0.1174(3) 0.8631(4)
O1F O 0.0204(3) 0.0699(2) 0.8881(3)
C2F C -0.1629(5) 0.1139(3) 0.9278(5)
O2F O -0.1703(4) 0.0697(2) 0.9984(3)
C3F C -0.2566(5) 0.1677(3) 0.9061(5)
C4F C -0.3512(6) 0.1698(4) 0.9697(5)
C5F C -0.4335(6) 0.2231(5) 0.9516(6)
C6F C -0.4238(6) 0.2723(4) 0.8720(6)
C7F C -0.3301(6) 0.2699(4) 0.8082(6)
C8F C -0.2450(5) 0.2172(3) 0.8235(5)
C9F C -0.1430(5) 0.2138(3) 0.7547(5)
O3F O -0.1425(5) 0.2526(3) 0.6761(4)
H4F H -0.3257 0.3043 0.7554
H3F H -0.4803 0.3091 0.8619
H2F H -0.4970 0.2271 0.9947
H1F H -0.3612 0.1356 1.0225
O4D O 0.0826(5) -0.0671(3) 0.6013(4)
H5D H 0.108(7) -0.049(5) 0.650(7)
H6D H 0.158(5) -0.083(5) 0.569(7)
O1D O 0.0204(3) -0.0699(2) 0.3881(3)
O2D O -0.1703(4) -0.0697(2) 0.4984(3)
Cu1B Cu 0.0000 0.0000 1.0000
O5 O -0.1878(5) -0.0013(4) 0.7330(4)
H7 H -0.126(6) 0.021(4) 0.689(6)
H8 H -0.265(6) -0.019(7) 0.706(10)
O6 O 0.2685(10) 0.3400(5) 0.9741(8)
H9 H 0.229(8) 0.369(5) 1.031(7)
H10 H 0.268(6) 0.309(3) 0.956(6)
O7 O -0.4309(9) -0.0214(8) 0.6718(9)
C11 C -0.501(3) -0.0708(9) 0.695(2)
C12 C -0.496(3) 0.0400(9) 0.695(2)
H11 H -0.5814 -0.0613 0.6700
H12 H -0.4815 -0.1168 0.6666
H13 H -0.4752 0.0843 0.6729
H14 H -0.5812 0.0333 0.6753
C11F C -0.499(3) -0.0708(9) 0.805(2)
O7F O -0.5691(9) -0.0214(8) 0.8282(9)
C12F C -0.504(3) 0.0400(9) 0.805(2)
H13F H -0.5248 0.0843 0.8271
H14F H -0.4188 0.0333 0.8247
H11F H -0.4186 -0.0613 0.8300
H12F H -0.5185 -0.1168 0.8334
loop_
_geom_bond_atom_site_label_1
_geom_bond_atom_site_label_2
_geom_bond_site_symmetry_1
_geom_bond_site_symmetry_2
Cu1 O1 1_555 1_555
O1 C1 1_555 1_555
O2 Cu1 1_555 1_555
O3 C9 1_555 1_555
O4 Cu1 1_555 1_555
O5 H7 1_555 1_555
O6 H9 1_555 1_555
O7 C11 1_555 1_555
C1 C2 1_555 1_555
C2 O2 1_555 1_555
C3 C2 1_555 1_555
C4 C3 1_555 1_555
C5 C4 1_555 1_555
C6 C5 1_555 1_555
C7 C6 1_555 1_555
C8 C3 1_555 1_555
C9 C8 1_555 1_555
C10 C1 1_555 1_555
C11 H11 1_555 1_555
C12 O7 1_555 1_555
H1 C4 1_555 1_555
H2 C5 1_555 1_555
H3 C6 1_555 1_555
H4 C7 1_555 1_555
H5 O4 1_555 1_555
H6 O4 1_555 1_555
H8 O5 1_555 1_555
H10 O6 1_555 1_555
H12 C11 1_555 1_555
H13 C12 1_555 1_555
H14 C12 1_555 1_555
C10F C10 1_555 1_555
C1F C10F 1_555 1_555
O1F C1F 1_555 1_555
C2F C1F 1_555 1_555
O2F C2F 1_555 1_555
C3F C2F 1_555 1_555
C4F C3F 1_555 1_555
C5F C4F 1_555 1_555
C6F C5F 1_555 1_555
C7F C6F 1_555 1_555
C8F C3F 1_555 1_555
C9F C10F 1_555 1_555
O3F C9F 1_555 1_555
H4F C7F 1_555 1_555
H3F C6F 1_555 1_555
H2F C5F 1_555 1_555
H1F C4F 1_555 1_555
C11F C11 1_555 1_555
O7F C11F 1_555 1_555
C12F C12 1_555 1_555
H13F C12F 1_555 1_555
H14F C12F 1_555 1_555
H11F C11F 1_555 1_555
H12F C11F 1_555 1_555
O4D Cu1 1_555 1_555
H5D O4D 1_555 1_555
H6D O4D 1_555 1_555
O1D Cu1 1_555 1_555
O2D Cu1 1_555 1_555
Cu1B O1F 1_555 1_555
C7 C8 1_555 1_555
C9 C10 1_555 1_555
O2F Cu1B 1_555 1_555
C7F C8F 1_555 1_555
C8F C9F 1_555 1_555
O7F C12F 1_555 1_555

#END
