
#######################################################################
#
#                 Cambridge Crystallographic Data Centre
#                                CCDC 
#
#######################################################################
#
# If this CIF has been generated from an entry in the Cambridge 
# Structural Database, then it will include bibliographic, chemical, 
# crystal, experimental, refinement or atomic coordinate data resulting 
# from the CCDC's data processing and validation procedures.
#
#######################################################################

data_EZOBIF04
_symmetry_cell_setting           monoclinic
_symmetry_space_group_name_H-M   'P 21/c'
_symmetry_Int_Tables_number      14
_space_group_name_Hall           '-P 2ybc'
loop_
_symmetry_equiv_pos_site_id
_symmetry_equiv_pos_as_xyz
1 x,y,z
2 -x,1/2+y,1/2-z
3 -x,-y,-z
4 x,1/2-y,1/2+z
_cell_length_a                   16.545(3)
_cell_length_b                   22.703(3)
_cell_length_c                   19.720(3)
_cell_angle_alpha                90
_cell_angle_beta                 94.231(2)
_cell_angle_gamma                90
_cell_volume                     7387.06
loop_
_atom_site_label
_atom_site_type_symbol
_atom_site_fract_x
_atom_site_fract_y
_atom_site_fract_z
Cu1 Cu 0.35983(3) 0.23313(2) 0.88858(2)
Cu2 Cu 0.5000 0.5000 0.5000
F1 F 0.1533(2) 0.3151(2) 1.0581(2)
F2 F 0.1812(2) 0.37039(15) 0.9771(2)
F3 F 0.2719(2) 0.34918(16) 1.05463(16)
F4 F 0.1539(2) 0.09000(14) 0.96872(18)
F5 F 0.1257(2) 0.10431(17) 0.86285(16)
F6 F 0.05890(19) 0.14967(16) 0.93603(18)
F7 F 0.26696(18) 0.30591(12) 0.68341(14)
F8 F 0.2305(2) 0.37630(15) 0.74462(16)
F9 F 0.33504(19) 0.38551(14) 0.68643(16)
F10 F 0.5524(3) 0.4204(2) 0.8349(2)
F11 F 0.5169(4) 0.4215(2) 0.9328(3)
F12 F 0.6000(3) 0.3611(2) 0.9073(3)
F13 F 0.7356(2) 0.40531(15) 0.58063(16)
F14 F 0.75541(19) 0.49590(16) 0.60633(16)
F15 F 0.81191(19) 0.45846(16) 0.52261(18)
F16 F 0.5916(2) 0.41599(12) 0.30072(14)
F17 F 0.68685(18) 0.48034(14) 0.30110(14)
F18 F 0.56205(19) 0.50652(13) 0.28262(13)
O1 O 0.3006(2) 0.28542(13) 0.94783(15)
O2 O 0.25226(19) 0.17258(13) 0.88826(15)
O3 O 0.32075(18) 0.27600(12) 0.80735(14)
O4 O 0.46354(19) 0.29973(13) 0.90277(15)
O5 O 0.60817(19) 0.48142(13) 0.54195(14)
O6 O 0.53147(18) 0.48268(12) 0.40914(13)
O7 O 0.41934(17) 0.17562(11) 0.83638(12)
N1 N 0.4102(2) 0.31082(14) 0.47131(15)
N2 N 0.4603(2) 0.40001(14) 0.51872(16)
N3 N 0.4151(2) 0.17399(14) 0.77061(15)
C1 C 0.2092(3) 0.3273(3) 1.0175(3)
C2 C 0.2354(3) 0.2755(2) 0.9749(2)
C3 C 0.1844(3) 0.2276(2) 0.9690(2)
H1 H 0.1392 0.2265 0.9960
C4 C 0.1960(3) 0.1798(2) 0.9245(2)
C5 C 0.1324(3) 0.1312(2) 0.9229(3)
C6 C 0.2958(3) 0.3487(2) 0.7250(3)
C7 C 0.3470(3) 0.32477(19) 0.7865(2)
C8 C 0.4116(3) 0.35788(19) 0.8091(2)
H2 H 0.4217 0.3931 0.7852
C9 C 0.4653(3) 0.3433(2) 0.8664(2)
C10 C 0.5355(5) 0.3865(3) 0.8835(4)
C11 C 0.7446(3) 0.4591(3) 0.5550(3)
C12 C 0.6686(3) 0.47483(18) 0.5093(2)
C13 C 0.6730(3) 0.47703(19) 0.4391(2)
H3 H 0.7247 0.4774 0.4212
C14 C 0.6046(3) 0.47870(17) 0.3948(2)
C15 C 0.6124(3) 0.4709(2) 0.3187(2)
C16 C 0.4325(3) 0.28273(17) 0.52900(19)
H4 H 0.4226 0.2416 0.5321
C17 C 0.4252(3) 0.36833(18) 0.46914(19)
H5 H 0.4091 0.3883 0.4280
C18 C 0.4822(3) 0.37142(18) 0.57617(19)
H6 H 0.5077 0.3931 0.6130
C19 C 0.4698(3) 0.31183(17) 0.58465(18)
C20 C 0.4941(3) 0.28158(17) 0.65039(19)
C21 C 0.4437(2) 0.24025(16) 0.67642(18)
H7 H 0.3944 0.2295 0.6518
C22 C 0.4658(2) 0.21424(17) 0.73934(19)
C23 C 0.5377(3) 0.22993(19) 0.7746(2)
H8 H 0.5521 0.2129 0.8178
C24 C 0.5888(3) 0.2701(2) 0.7475(2)
H9 H 0.6389 0.2800 0.7713
C25 C 0.5664(3) 0.2960(2) 0.6853(2)
H10 H 0.6013 0.3240 0.6666
C26 C 0.3615(3) 0.12719(17) 0.73641(19)
C27 C 0.3543(3) 0.07695(18) 0.7867(2)
H11 H 0.3262 0.0437 0.7638
H12 H 0.4086 0.0645 0.8044
H13 H 0.3235 0.0903 0.8245
C28 C 0.4031(3) 0.10382(19) 0.6748(2)
H14 H 0.4042 0.1348 0.6403
H15 H 0.4588 0.0920 0.6891
H16 H 0.3731 0.0697 0.6556
C29 C 0.2787(3) 0.15338(19) 0.7170(2)
H17 H 0.2842 0.1858 0.6849
H18 H 0.2432 0.1230 0.6958
H19 H 0.2553 0.1683 0.7579
Cu1B Cu 0.64017(3) 0.76687(2) 0.11142(2)
Cu1C Cu 0.35983(3) 0.26687(2) 0.38858(2)
Cu1A Cu 0.64017(3) 0.73313(2) 0.61142(2)
F1B F 0.8467(2) 0.6849(2) -0.0581(2)
F2B F 0.8188(2) 0.62961(15) 0.0229(2)
F3B F 0.7281(2) 0.65082(16) -0.05463(16)
F4B F 0.8461(2) 0.91000(14) 0.03128(18)
F5B F 0.8743(2) 0.89569(17) 0.13715(16)
F6B F 0.94110(19) 0.85033(16) 0.06397(18)
F7B F 0.73304(18) 0.69409(12) 0.31659(14)
F8B F 0.7695(2) 0.62370(15) 0.25538(16)
F9B F 0.66496(19) 0.61449(14) 0.31357(16)
F10B F 0.4476(3) 0.5796(2) 0.1651(2)
F11B F 0.4831(4) 0.5785(2) 0.0672(3)
F12B F 0.4000(3) 0.6389(2) 0.0927(3)
F13B F 0.2644(2) 0.59469(15) 0.41937(16)
F14B F 0.24459(19) 0.50410(16) 0.39367(16)
F15B F 0.18809(19) 0.54154(16) 0.47739(18)
F16B F 0.4084(2) 0.58401(12) 0.69928(14)
F17B F 0.31315(18) 0.51966(14) 0.69890(14)
F18B F 0.43795(19) 0.49348(13) 0.71738(13)
O1B O 0.6994(2) 0.71458(13) 0.05217(15)
O2B O 0.74774(19) 0.82742(13) 0.11174(15)
O3B O 0.67925(18) 0.72400(12) 0.19265(14)
O4B O 0.53646(19) 0.70027(13) 0.09723(15)
O5B O 0.39183(19) 0.51858(13) 0.45805(14)
O6B O 0.46853(18) 0.51732(12) 0.59086(13)
O7B O 0.58066(17) 0.82438(11) 0.16362(12)
N1B N 0.5898(2) 0.68918(14) 0.52869(15)
N1C N 0.4102(2) 0.18918(14) 0.97131(15)
N1A N 0.5898(2) 0.81082(14) 0.02869(15)
N2B N 0.5397(2) 0.59999(14) 0.48128(16)
N3B N 0.5849(2) 0.82601(14) 0.22939(15)
C1B C 0.7908(3) 0.6727(3) -0.0175(3)
C2B C 0.7646(3) 0.7245(2) 0.0251(2)
C3B C 0.8156(3) 0.7724(2) 0.0310(2)
H1B H 0.8608 0.7735 0.0040
C4B C 0.8040(3) 0.8202(2) 0.0755(2)
C5B C 0.8676(3) 0.8688(2) 0.0771(3)
C6B C 0.7042(3) 0.6513(2) 0.2750(3)
C7B C 0.6530(3) 0.67523(19) 0.2135(2)
C8B C 0.5884(3) 0.64212(19) 0.1909(2)
H2B H 0.5783 0.6069 0.2148
C9B C 0.5347(3) 0.6567(2) 0.1336(2)
C10B C 0.4645(5) 0.6135(3) 0.1165(4)
C11B C 0.2554(3) 0.5409(3) 0.4450(3)
C12B C 0.3314(3) 0.52517(18) 0.4907(2)
C13B C 0.3270(3) 0.52297(19) 0.5609(2)
H3B H 0.2753 0.5226 0.5788
C14B C 0.3954(3) 0.52130(17) 0.6052(2)
C15B C 0.3876(3) 0.5291(2) 0.6813(2)
C16B C 0.5675(3) 0.71727(17) 0.47100(19)
H4B H 0.5774 0.7584 0.4679
C17B C 0.5748(3) 0.63167(18) 0.53086(19)
H5B H 0.5909 0.6117 0.5720
C18B C 0.5178(3) 0.62858(18) 0.42383(19)
H6B H 0.4923 0.6069 0.3870
C19B C 0.5302(3) 0.68817(17) 0.41535(18)
C20B C 0.5059(3) 0.71842(17) 0.34961(19)
C21B C 0.5563(2) 0.75975(16) 0.32358(18)
H7B H 0.6056 0.7705 0.3482
C22B C 0.5342(2) 0.78576(17) 0.26066(19)
C23B C 0.4623(3) 0.77007(19) 0.2254(2)
H8B H 0.4479 0.7871 0.1822
C24B C 0.4112(3) 0.7299(2) 0.2525(2)
H9B H 0.3611 0.7200 0.2287
C25B C 0.4336(3) 0.7040(2) 0.3147(2)
H10B H 0.3987 0.6760 0.3334
C26B C 0.6385(3) 0.87281(17) 0.26359(19)
C27B C 0.6457(3) 0.92305(18) 0.2133(2)
H11B H 0.6738 0.9563 0.2362
H12B H 0.5914 0.9355 0.1956
H13B H 0.6765 0.9097 0.1755
C28B C 0.5969(3) 0.89618(19) 0.3252(2)
H14B H 0.5958 0.8652 0.3597
H15B H 0.5412 0.9080 0.3109
H16B H 0.6269 0.9303 0.3444
C29B C 0.7213(3) 0.84662(19) 0.2830(2)
H17B H 0.7158 0.8142 0.3151
H18B H 0.7568 0.8770 0.3042
H19B H 0.7447 0.8317 0.2421
Cu3 Cu 0.14541(4) 0.77198(2) 1.39667(2)
Cu4 Cu 0.0000 0.5000 1.0000
F19 F 0.3188(2) 0.72402(14) 1.60603(14)
F20 F 0.3777(2) 0.66628(16) 1.53984(19)
F21 F 0.25474(18) 0.65088(12) 1.56058(14)
F22 F 0.45698(19) 0.84266(16) 1.43005(17)
F23 F 0.3710(2) 0.91088(14) 1.4127(2)
F24 F 0.39235(19) 0.85092(15) 1.33450(15)
F25 F 0.21959(19) 0.68894(14) 1.19198(18)
F26 F 0.2652(2) 0.62186(17) 1.2603(2)
F27 F 0.15377(19) 0.60900(13) 1.19868(16)
F28 F -0.0576(3) 0.59093(19) 1.3298(2)
F29 F -0.0948(2) 0.6562(2) 1.3967(2)
F30 F -0.0113(3) 0.5920(2) 1.4326(3)
F31 F -0.2621(2) 0.42998(17) 0.9941(2)
F32 F -0.2640(2) 0.50761(18) 1.05408(19)
F33 F -0.3148(2) 0.5085(2) 0.9529(2)
F34 F -0.03818(17) 0.49355(12) 0.76771(13)
F35 F -0.06933(19) 0.58367(11) 0.78448(14)
F36 F -0.16300(17) 0.52027(13) 0.76171(13)
O8 O 0.20715(18) 0.72571(12) 1.46871(14)
O9 O 0.24849(19) 0.82673(13) 1.39252(15)
O10 O 0.1846(2) 0.72229(14) 1.31670(19)
O11 O 0.0482(3) 0.70942(16) 1.40019(18)
O12 O -0.11596(18) 0.50500(12) 1.01576(14)
O13 O -0.02218(18) 0.51722(12) 0.90152(14)
O14 O 0.08222(18) 0.82748(12) 1.33659(13)
N4 N 0.0853(2) 0.68458(15) 0.97812(16)
N5 N 0.0256(2) 0.59855(15) 1.01927(16)
N6 N 0.0839(2) 0.82869(15) 1.27081(16)
C30 C 0.3078(3) 0.6924(2) 1.5487(2)
C31 C 0.2791(3) 0.73277(19) 1.4891(2)
C32 C 0.3353(3) 0.7722(2) 1.4687(2)
H20 H 0.3896 0.7691 1.4877
C33 C 0.3162(3) 0.81616(19) 1.4218(2)
C34 C 0.3831(3) 0.8565(2) 1.4009(3)
C35 C 0.1982(3) 0.6483(2) 1.2361(3)
C36 C 0.1535(3) 0.6754(2) 1.2938(3)
C37 C 0.0856(3) 0.6458(2) 1.3119(2)
H21 H 0.0694 0.6111 1.2877
C38 C 0.0398(3) 0.6646(2) 1.3642(3)
C39 C -0.0323(4) 0.6260(3) 1.3803(3)
C40 C -0.2554(3) 0.4894(3) 0.9929(3)
C41 C -0.1713(3) 0.50432(19) 0.9693(2)
C42 C -0.1656(3) 0.51038(19) 0.8991(2)
H22 H -0.2137 0.5095 0.8697
C43 C -0.0927(3) 0.51753(16) 0.8721(2)
C44 C -0.0913(3) 0.52858(19) 0.7954(2)
C45 C 0.0628(3) 0.71447(19) 1.03251(19)
H23 H 0.0752 0.7552 1.0363
C46 C 0.0646(3) 0.62793(19) 0.9744(2)
H24 H 0.0794 0.6067 0.9357
C47 C 0.0045(3) 0.62896(18) 1.0737(2)
H25 H -0.0237 0.6091 1.1071
C48 C 0.0223(3) 0.68793(18) 1.08282(19)
C49 C -0.0012(3) 0.72013(18) 1.1442(2)
C50 C 0.0505(3) 0.76126(17) 1.17564(19)
H26 H 0.1001 0.7708 1.1568
C51 C 0.0298(3) 0.78871(17) 1.2351(2)
C52 C -0.0430(3) 0.77659(19) 1.2617(2)
H27 H -0.0567 0.7955 1.3023
C53 C -0.0952(3) 0.7374(2) 1.2296(2)
H28 H -0.1457 0.7296 1.2477
C54 C -0.0755(3) 0.7087(2) 1.1709(2)
H29 H -0.1123 0.6814 1.1490
C55 C 0.1377(3) 0.87334(19) 1.2400(2)
C56 C 0.1527(3) 0.9237(2) 1.2916(2)
H30 H 0.1834 0.9088 1.3324
H31 H 0.1836 0.9551 1.2713
H32 H 0.1006 0.9394 1.3040
C57 C 0.0946(3) 0.8977(2) 1.1748(2)
H33 H 0.0391 0.9091 1.1834
H34 H 0.1240 0.9323 1.1598
H35 H 0.0930 0.8674 1.1393
C58 C 0.2186(3) 0.8437(2) 1.2268(2)
H36 H 0.2091 0.8129 1.1923
H37 H 0.2558 0.8732 1.2105
H38 H 0.2424 0.8262 1.2690
Cu3B Cu -0.14541(4) 0.22802(2) 0.60333(2)
Cu3C Cu 0.14541(4) 0.72802(2) 0.89667(2)
Cu3A Cu -0.14541(4) 0.27198(2) 1.10333(2)
F19B F -0.3188(2) 0.27598(14) 0.39397(14)
F20B F -0.3777(2) 0.33372(16) 0.46016(19)
F21B F -0.25474(18) 0.34912(12) 0.43942(14)
F22B F -0.45698(19) 0.15734(16) 0.56995(17)
F23B F -0.3710(2) 0.08912(14) 0.5873(2)
F24B F -0.39235(19) 0.14908(15) 0.66550(15)
F25B F -0.21959(19) 0.31106(14) 0.80802(18)
F26B F -0.2652(2) 0.37814(17) 0.7397(2)
F27B F -0.15377(19) 0.39100(13) 0.80132(16)
F28B F 0.0576(3) 0.40907(19) 0.6702(2)
F29B F 0.0948(2) 0.3438(2) 0.6033(2)
F30B F 0.0113(3) 0.4080(2) 0.5674(3)
F31B F 0.2621(2) 0.57002(17) 1.0059(2)
F32B F 0.2640(2) 0.49239(18) 0.94592(19)
F33B F 0.3148(2) 0.4915(2) 1.0471(2)
F34B F 0.03818(17) 0.50645(12) 1.23229(13)
F35B F 0.06933(19) 0.41633(11) 1.21552(14)
F36B F 0.16300(17) 0.47973(13) 1.23829(13)
O8B O -0.20715(18) 0.27429(12) 0.53129(14)
O9B O -0.24849(19) 0.17327(13) 0.60748(15)
O10B O -0.1846(2) 0.27771(14) 0.68330(19)
O11B O -0.0482(3) 0.29058(16) 0.59981(18)
O12B O 0.11596(18) 0.49500(12) 0.98424(14)
O13B O 0.02218(18) 0.48278(12) 1.09848(14)
O14B O -0.08222(18) 0.17252(12) 0.66341(13)
N4B N -0.0853(2) 0.31542(15) 1.02188(16)
N4C N 0.0853(2) 0.81542(15) 1.47812(16)
N4A N -0.0853(2) 0.18458(15) 0.52188(16)
N5B N -0.0256(2) 0.40145(15) 0.98073(16)
N6B N -0.0839(2) 0.17131(15) 0.72919(16)
C30B C -0.3078(3) 0.3076(2) 0.4513(2)
C31B C -0.2791(3) 0.26723(19) 0.5109(2)
C32B C -0.3353(3) 0.2278(2) 0.5313(2)
H20B H -0.3896 0.2309 0.5123
C33B C -0.3162(3) 0.18384(19) 0.5782(2)
C34B C -0.3831(3) 0.1435(2) 0.5991(3)
C35B C -0.1982(3) 0.3517(2) 0.7639(3)
C36B C -0.1535(3) 0.3246(2) 0.7062(3)
C37B C -0.0856(3) 0.3542(2) 0.6881(2)
H21B H -0.0694 0.3889 0.7123
C38B C -0.0398(3) 0.3354(2) 0.6358(3)
C39B C 0.0323(4) 0.3740(3) 0.6197(3)
C40B C 0.2554(3) 0.5106(3) 1.0071(3)
C41B C 0.1713(3) 0.49568(19) 1.0307(2)
C42B C 0.1656(3) 0.48962(19) 1.1009(2)
H22B H 0.2137 0.4905 1.1303
C43B C 0.0927(3) 0.48247(16) 1.1279(2)
C44B C 0.0913(3) 0.47142(19) 1.2046(2)
C45B C -0.0628(3) 0.28553(19) 0.96749(19)
H23B H -0.0752 0.2448 0.9637
C46B C -0.0646(3) 0.37207(19) 1.0256(2)
H24B H -0.0794 0.3933 1.0643
C47B C -0.0045(3) 0.37104(18) 0.9263(2)
H25B H 0.0237 0.3909 0.8929
C48B C -0.0223(3) 0.31207(18) 0.91718(19)
C49B C 0.0012(3) 0.27987(18) 0.8558(2)
C50B C -0.0505(3) 0.23874(17) 0.82436(19)
H26B H -0.1001 0.2292 0.8432
C51B C -0.0298(3) 0.21129(17) 0.7649(2)
C52B C 0.0430(3) 0.22341(19) 0.7383(2)
H27B H 0.0567 0.2045 0.6977
C53B C 0.0952(3) 0.2626(2) 0.7704(2)
H28B H 0.1457 0.2704 0.7523
C54B C 0.0755(3) 0.2913(2) 0.8291(2)
H29B H 0.1123 0.3186 0.8510
C55B C -0.1377(3) 0.12666(19) 0.7600(2)
C56B C -0.1527(3) 0.0763(2) 0.7084(2)
H30B H -0.1834 0.0912 0.6676
H31B H -0.1836 0.0449 0.7287
H32B H -0.1006 0.0606 0.6960
C57B C -0.0946(3) 0.1023(2) 0.8252(2)
H33B H -0.0391 0.0909 0.8166
H34B H -0.1240 0.0677 0.8402
H35B H -0.0930 0.1326 0.8607
C58B C -0.2186(3) 0.1563(2) 0.7732(2)
H36B H -0.2091 0.1871 0.8077
H37B H -0.2558 0.1268 0.7895
H38B H -0.2424 0.1738 0.7310
loop_
_geom_bond_atom_site_label_1
_geom_bond_atom_site_label_2
_geom_bond_site_symmetry_1
_geom_bond_site_symmetry_2
Cu1 O1 1_555 1_555
Cu2 O5 1_555 1_555
F1 C1 1_555 1_555
F2 C1 1_555 1_555
F3 C1 1_555 1_555
F4 C5 1_555 1_555
F5 C5 1_555 1_555
F6 C5 1_555 1_555
F7 C6 1_555 1_555
F8 C6 1_555 1_555
F9 C6 1_555 1_555
F10 C10 1_555 1_555
F11 C10 1_555 1_555
F12 C10 1_555 1_555
F13 C11 1_555 1_555
F14 C11 1_555 1_555
F15 C11 1_555 1_555
F16 C15 1_555 1_555
F17 C15 1_555 1_555
F18 C15 1_555 1_555
O1 C2 1_555 1_555
O2 Cu1 1_555 1_555
O3 Cu1 1_555 1_555
O4 Cu1 1_555 1_555
O5 C12 1_555 1_555
O6 Cu2 1_555 1_555
O7 Cu1 1_555 1_555
N1 C16 1_555 1_555
N2 Cu2 1_555 1_555
N3 O7 1_555 1_555
C1 C2 1_555 1_555
C2 C3 1_555 1_555
C3 H1 1_555 1_555
C4 O2 1_555 1_555
C5 C4 1_555 1_555
C6 C7 1_555 1_555
C7 O3 1_555 1_555
C8 C7 1_555 1_555
H2 C8 1_555 1_555
C9 O4 1_555 1_555
C10 C9 1_555 1_555
C11 C12 1_555 1_555
C12 C13 1_555 1_555
C13 H3 1_555 1_555
C14 O6 1_555 1_555
C15 C14 1_555 1_555
C16 H4 1_555 1_555
C17 N1 1_555 1_555
H5 C17 1_555 1_555
C18 N2 1_555 1_555
H6 C18 1_555 1_555
C19 C16 1_555 1_555
C20 C19 1_555 1_555
C21 C20 1_555 1_555
H7 C21 1_555 1_555
C22 N3 1_555 1_555
C23 C22 1_555 1_555
H8 C23 1_555 1_555
C24 C23 1_555 1_555
H9 C24 1_555 1_555
C25 C20 1_555 1_555
H10 C25 1_555 1_555
C26 N3 1_555 1_555
C27 C26 1_555 1_555
H11 C27 1_555 1_555
H12 C27 1_555 1_555
H13 C27 1_555 1_555
C28 C26 1_555 1_555
H14 C28 1_555 1_555
H15 C28 1_555 1_555
H16 C28 1_555 1_555
C29 C26 1_555 1_555
H17 C29 1_555 1_555
H18 C29 1_555 1_555
H19 C29 1_555 1_555
Cu3 O8 1_555 1_555
Cu4 O12 1_555 1_555
F19 C30 1_555 1_555
F20 C30 1_555 1_555
F21 C30 1_555 1_555
F22 C34 1_555 1_555
F23 C34 1_555 1_555
F24 C34 1_555 1_555
F25 C35 1_555 1_555
F26 C35 1_555 1_555
F27 C35 1_555 1_555
F28 C39 1_555 1_555
F29 C39 1_555 1_555
F30 C39 1_555 1_555
F31 C40 1_555 1_555
F32 C40 1_555 1_555
F33 C40 1_555 1_555
F34 C44 1_555 1_555
F35 C44 1_555 1_555
F36 C44 1_555 1_555
O8 C31 1_555 1_555
O9 Cu3 1_555 1_555
O10 Cu3 1_555 1_555
O11 Cu3 1_555 1_555
O12 C41 1_555 1_555
O13 Cu4 1_555 1_555
O14 Cu3 1_555 1_555
N4 C45 1_555 1_555
N5 Cu4 1_555 1_555
N6 O14 1_555 1_555
C30 C31 1_555 1_555
C31 C32 1_555 1_555
C32 H20 1_555 1_555
C33 O9 1_555 1_555
C34 C33 1_555 1_555
C35 C36 1_555 1_555
C36 O10 1_555 1_555
C37 C36 1_555 1_555
H21 C37 1_555 1_555
C38 O11 1_555 1_555
C39 C38 1_555 1_555
C40 C41 1_555 1_555
C41 C42 1_555 1_555
C42 H22 1_555 1_555
C43 O13 1_555 1_555
C44 C43 1_555 1_555
C45 H23 1_555 1_555
C46 N4 1_555 1_555
H24 C46 1_555 1_555
C47 N5 1_555 1_555
H25 C47 1_555 1_555
C48 C45 1_555 1_555
C49 C48 1_555 1_555
C50 C49 1_555 1_555
H26 C50 1_555 1_555
C51 N6 1_555 1_555
C52 C51 1_555 1_555
H27 C52 1_555 1_555
C53 C52 1_555 1_555
H28 C53 1_555 1_555
C54 C49 1_555 1_555
H29 C54 1_555 1_555
C55 N6 1_555 1_555
C56 C55 1_555 1_555
H30 C56 1_555 1_555
H31 C56 1_555 1_555
H32 C56 1_555 1_555
C57 C55 1_555 1_555
H33 C57 1_555 1_555
H34 C57 1_555 1_555
H35 C57 1_555 1_555
C58 C55 1_555 1_555
H36 C58 1_555 1_555
H37 C58 1_555 1_555
H38 C58 1_555 1_555
Cu1B O1B 1_555 1_555
Cu1C N1 1_555 1_555
Cu1A N1B 1_555 1_555
F1B C1B 1_555 1_555
F2B C1B 1_555 1_555
F3B C1B 1_555 1_555
F4B C5B 1_555 1_555
F5B C5B 1_555 1_555
F6B C5B 1_555 1_555
F7B C6B 1_555 1_555
F8B C6B 1_555 1_555
F9B C6B 1_555 1_555
F10B C10B 1_555 1_555
F11B C10B 1_555 1_555
F12B C10B 1_555 1_555
F13B C11B 1_555 1_555
F14B C11B 1_555 1_555
F15B C11B 1_555 1_555
F16B C15B 1_555 1_555
F17B C15B 1_555 1_555
F18B C15B 1_555 1_555
O1B C2B 1_555 1_555
O2B Cu1B 1_555 1_555
O3B Cu1B 1_555 1_555
O4B Cu1B 1_555 1_555
O5B Cu2 1_555 1_555
O6B Cu2 1_555 1_555
O7B Cu1B 1_555 1_555
N1B C16B 1_555 1_555
N1C Cu1 1_555 1_555
N1A Cu1B 1_555 1_555
N2B Cu2 1_555 1_555
N3B O7B 1_555 1_555
C1B C2B 1_555 1_555
C2B C3B 1_555 1_555
C3B H1B 1_555 1_555
C4B O2B 1_555 1_555
C5B C4B 1_555 1_555
C6B C7B 1_555 1_555
C7B O3B 1_555 1_555
C8B C7B 1_555 1_555
H2B C8B 1_555 1_555
C9B O4B 1_555 1_555
C10B C9B 1_555 1_555
C11B C12B 1_555 1_555
C12B O5B 1_555 1_555
C13B C12B 1_555 1_555
H3B C13B 1_555 1_555
C14B O6B 1_555 1_555
C15B C14B 1_555 1_555
C16B H4B 1_555 1_555
C17B N1B 1_555 1_555
H5B C17B 1_555 1_555
C18B N2B 1_555 1_555
H6B C18B 1_555 1_555
C19B C16B 1_555 1_555
C20B C19B 1_555 1_555
C21B C20B 1_555 1_555
H7B C21B 1_555 1_555
C22B N3B 1_555 1_555
C23B C22B 1_555 1_555
H8B C23B 1_555 1_555
C24B C23B 1_555 1_555
H9B C24B 1_555 1_555
C25B C20B 1_555 1_555
H10B C25B 1_555 1_555
C26B N3B 1_555 1_555
C27B C26B 1_555 1_555
H11B C27B 1_555 1_555
H12B C27B 1_555 1_555
H13B C27B 1_555 1_555
C28B C26B 1_555 1_555
H14B C28B 1_555 1_555
H15B C28B 1_555 1_555
H16B C28B 1_555 1_555
C29B C26B 1_555 1_555
H17B C29B 1_555 1_555
H18B C29B 1_555 1_555
H19B C29B 1_555 1_555
Cu3B O8B 1_555 1_555
Cu3C N4 1_555 1_555
Cu3A N4B 1_555 1_555
F19B C30B 1_555 1_555
F20B C30B 1_555 1_555
F21B C30B 1_555 1_555
F22B C34B 1_555 1_555
F23B C34B 1_555 1_555
F24B C34B 1_555 1_555
F25B C35B 1_555 1_555
F26B C35B 1_555 1_555
F27B C35B 1_555 1_555
F28B C39B 1_555 1_555
F29B C39B 1_555 1_555
F30B C39B 1_555 1_555
F31B C40B 1_555 1_555
F32B C40B 1_555 1_555
F33B C40B 1_555 1_555
F34B C44B 1_555 1_555
F35B C44B 1_555 1_555
F36B C44B 1_555 1_555
O8B C31B 1_555 1_555
O9B Cu3B 1_555 1_555
O10B Cu3B 1_555 1_555
O11B Cu3B 1_555 1_555
O12B Cu4 1_555 1_555
O13B Cu4 1_555 1_555
O14B Cu3B 1_555 1_555
N4B C45B 1_555 1_555
N4C Cu3 1_555 1_555
N4A Cu3B 1_555 1_555
N5B Cu4 1_555 1_555
N6B O14B 1_555 1_555
C30B C31B 1_555 1_555
C31B C32B 1_555 1_555
C32B H20B 1_555 1_555
C33B O9B 1_555 1_555
C34B C33B 1_555 1_555
C35B C36B 1_555 1_555
C36B O10B 1_555 1_555
C37B C36B 1_555 1_555
H21B C37B 1_555 1_555
C38B O11B 1_555 1_555
C39B C38B 1_555 1_555
C40B C41B 1_555 1_555
C41B O12B 1_555 1_555
C42B C41B 1_555 1_555
H22B C42B 1_555 1_555
C43B O13B 1_555 1_555
C44B C43B 1_555 1_555
C45B H23B 1_555 1_555
C46B N4B 1_555 1_555
H24B C46B 1_555 1_555
C47B N5B 1_555 1_555
H25B C47B 1_555 1_555
C48B C45B 1_555 1_555
C49B C48B 1_555 1_555
C50B C49B 1_555 1_555
H26B C50B 1_555 1_555
C51B N6B 1_555 1_555
C52B C51B 1_555 1_555
H27B C52B 1_555 1_555
C53B C52B 1_555 1_555
H28B C53B 1_555 1_555
C54B C49B 1_555 1_555
H29B C54B 1_555 1_555
C55B N6B 1_555 1_555
C56B C55B 1_555 1_555
H30B C56B 1_555 1_555
H31B C56B 1_555 1_555
H32B C56B 1_555 1_555
C57B C55B 1_555 1_555
H33B C57B 1_555 1_555
H34B C57B 1_555 1_555
H35B C57B 1_555 1_555
C58B C55B 1_555 1_555
H36B C58B 1_555 1_555
H37B C58B 1_555 1_555
H38B C58B 1_555 1_555
N2 C17 1_555 1_555
C3 C4 1_555 1_555
C8 C9 1_555 1_555
C13 C14 1_555 1_555
C18 C19 1_555 1_555
C21 C22 1_555 1_555
C24 C25 1_555 1_555
N5 C46 1_555 1_555
C32 C33 1_555 1_555
C37 C38 1_555 1_555
C42 C43 1_555 1_555
C47 C48 1_555 1_555
C50 C51 1_555 1_555
C53 C54 1_555 1_555
N2B C17B 1_555 1_555
C3B C4B 1_555 1_555
C8B C9B 1_555 1_555
C13B C14B 1_555 1_555
C18B C19B 1_555 1_555
C21B C22B 1_555 1_555
C24B C25B 1_555 1_555
N5B C46B 1_555 1_555
C32B C33B 1_555 1_555
C37B C38B 1_555 1_555
C42B C43B 1_555 1_555
C47B C48B 1_555 1_555
C50B C51B 1_555 1_555
C53B C54B 1_555 1_555

#END
