
#######################################################################
#
#                 Cambridge Crystallographic Data Centre
#                                CCDC 
#
#######################################################################
#
# If this CIF has been generated from an entry in the Cambridge 
# Structural Database, then it will include bibliographic, chemical, 
# crystal, experimental, refinement or atomic coordinate data resulting 
# from the CCDC's data processing and validation procedures.
#
#######################################################################

data_EZOBIF05
_symmetry_cell_setting           monoclinic
_symmetry_space_group_name_H-M   'P 21/c'
_symmetry_Int_Tables_number      14
_space_group_name_Hall           '-P 2ybc'
loop_
_symmetry_equiv_pos_site_id
_symmetry_equiv_pos_as_xyz
1 x,y,z
2 -x,1/2+y,1/2-z
3 -x,-y,-z
4 x,1/2-y,1/2+z
_cell_length_a                   16.402(2)
_cell_length_b                   22.618(3)
_cell_length_c                   19.711(2)
_cell_angle_alpha                90
_cell_angle_beta                 94.438(2)
_cell_angle_gamma                90
_cell_volume                     7290.47
loop_
_atom_site_label
_atom_site_type_symbol
_atom_site_fract_x
_atom_site_fract_y
_atom_site_fract_z
Cu1 Cu 0.36033(3) 0.233430(18) 0.88816(2)
Cu2 Cu 0.5000 0.5000 0.5000
F1 F 0.15299(18) 0.31660(13) 1.05923(14)
F2 F 0.18256(17) 0.37259(11) 0.97750(14)
F3 F 0.27497(16) 0.34993(12) 1.05588(12)
F4 F 0.15698(17) 0.08861(11) 0.97098(13)
F5 F 0.12230(16) 0.10395(12) 0.86532(12)
F6 F 0.05865(15) 0.14854(12) 0.94174(13)
F7 F 0.27011(14) 0.30555(10) 0.68116(11)
F8 F 0.23330(16) 0.37775(11) 0.74193(12)
F9 F 0.33926(15) 0.38576(10) 0.68461(12)
F10 F 0.5573(2) 0.42115(14) 0.83461(15)
F11 F 0.5224(3) 0.41991(15) 0.93538(19)
F12 F 0.6073(2) 0.35811(14) 0.9053(2)
F13 F 0.73811(15) 0.40435(11) 0.58046(12)
F14 F 0.75890(15) 0.49554(12) 0.60720(12)
F15 F 0.81571(15) 0.45845(12) 0.52252(13)
F16 F 0.59317(16) 0.41540(10) 0.30048(11)
F17 F 0.68840(15) 0.48121(10) 0.30035(11)
F18 F 0.56147(15) 0.50646(10) 0.28183(11)
O1 O 0.30037(16) 0.28683(11) 0.94645(13)
O2 O 0.25030(16) 0.17299(11) 0.88773(13)
O3 O 0.32207(16) 0.27625(10) 0.80606(12)
O4 O 0.46610(16) 0.29950(11) 0.90324(13)
O5 O 0.60926(16) 0.48116(11) 0.54220(13)
O6 O 0.53172(16) 0.48273(10) 0.40900(12)
O7 O 0.42015(15) 0.17537(10) 0.83716(11)
N1 N 0.41017(19) 0.31041(12) 0.47119(14)
N2 N 0.46081(19) 0.40040(12) 0.51899(14)
N3 N 0.41619(18) 0.17324(12) 0.77113(14)
C1 C 0.2107(3) 0.32873(19) 1.0177(2)
C2 C 0.2359(2) 0.27637(16) 0.97504(17)
C3 C 0.1845(2) 0.22755(17) 0.97129(18)
H1 H 0.1405 0.2261 0.9999
C4 C 0.1954(2) 0.17989(17) 0.92629(18)
C5 C 0.1320(3) 0.13031(19) 0.9256(2)
C6 C 0.2985(3) 0.34899(16) 0.7225(2)
C7 C 0.3500(2) 0.32443(15) 0.78495(18)
C8 C 0.4159(3) 0.35815(16) 0.80818(19)
H2 H 0.4267 0.3935 0.7844
C9 C 0.4694(2) 0.34283(17) 0.8664(2)
C10 C 0.5403(3) 0.3858(2) 0.8848(2)
C11 C 0.7476(3) 0.45871(19) 0.5551(2)
C12 C 0.6712(2) 0.47514(16) 0.5092(2)
C13 C 0.6753(2) 0.47779(16) 0.43867(19)
H3 H 0.7274 0.4785 0.4206
C14 C 0.6054(2) 0.47938(15) 0.39454(18)
C15 C 0.6135(3) 0.47114(17) 0.3183(2)
C16 C 0.4335(2) 0.28209(15) 0.52899(17)
H4 H 0.4240 0.2408 0.5319
C17 C 0.4246(2) 0.36875(16) 0.46898(17)
H5 H 0.4074 0.3890 0.4281
C18 C 0.4836(2) 0.37161(16) 0.57699(17)
H6 H 0.5091 0.3933 0.6140
C19 C 0.4713(2) 0.31131(15) 0.58487(17)
C20 C 0.4961(2) 0.28115(15) 0.65044(17)
C21 C 0.4450(2) 0.23941(15) 0.67630(16)
H7 H 0.3953 0.2284 0.6515
C22 C 0.4676(2) 0.21360(15) 0.73971(17)
C23 C 0.5398(2) 0.22980(16) 0.77579(18)
H8 H 0.5543 0.2128 0.8191
C24 C 0.5911(2) 0.27077(18) 0.74877(18)
H9 H 0.6411 0.2815 0.7732
C25 C 0.5690(2) 0.29601(16) 0.68608(18)
H10 H 0.6044 0.3238 0.6674
C26 C 0.3626(2) 0.12613(15) 0.73631(17)
C27 C 0.3553(2) 0.07561(15) 0.78732(19)
H11 H 0.3264 0.0423 0.7646
H12 H 0.4100 0.0629 0.8049
H13 H 0.3247 0.0893 0.8251
C28 C 0.4051(2) 0.10252(16) 0.67513(18)
H14 H 0.4066 0.1336 0.6406
H15 H 0.4611 0.0905 0.6900
H16 H 0.3748 0.0684 0.6557
C29 C 0.2784(2) 0.15258(16) 0.71710(18)
H17 H 0.2839 0.1865 0.6868
H18 H 0.2433 0.1226 0.6938
H19 H 0.2539 0.1656 0.7584
Cu1B Cu 0.63967(3) 0.766570(18) 0.11184(2)
Cu1C Cu 0.36033(3) 0.266570(18) 0.38816(2)
Cu1A Cu 0.63967(3) 0.733430(18) 0.61184(2)
F1B F 0.84701(18) 0.68340(13) -0.05923(14)
F2B F 0.81744(17) 0.62741(11) 0.02250(14)
F3B F 0.72503(16) 0.65007(12) -0.05588(12)
F4B F 0.84302(17) 0.91139(11) 0.02902(13)
F5B F 0.87770(16) 0.89605(12) 0.13468(12)
F6B F 0.94135(15) 0.85146(12) 0.05826(13)
F7B F 0.72989(14) 0.69445(10) 0.31884(11)
F8B F 0.76670(16) 0.62225(11) 0.25807(12)
F9B F 0.66074(15) 0.61424(10) 0.31539(12)
F10B F 0.4427(2) 0.57885(14) 0.16539(15)
F11B F 0.4776(3) 0.58009(15) 0.06462(19)
F12B F 0.3927(2) 0.64189(14) 0.0947(2)
F13B F 0.26189(15) 0.59565(11) 0.41954(12)
F14B F 0.24110(15) 0.50446(12) 0.39280(12)
F15B F 0.18429(15) 0.54155(12) 0.47748(13)
F16B F 0.40683(16) 0.58460(10) 0.69952(11)
F17B F 0.31160(15) 0.51879(10) 0.69965(11)
F18B F 0.43853(15) 0.49354(10) 0.71817(11)
O1B O 0.69963(16) 0.71317(11) 0.05355(13)
O2B O 0.74970(16) 0.82701(11) 0.11227(13)
O3B O 0.67793(16) 0.72375(10) 0.19394(12)
O4B O 0.53390(16) 0.70050(11) 0.09676(13)
O5B O 0.39074(16) 0.51884(11) 0.45780(13)
O6B O 0.46828(16) 0.51727(10) 0.59100(12)
O7B O 0.57985(15) 0.82463(10) 0.16284(11)
N1B N 0.58983(19) 0.68959(12) 0.52881(14)
N1C N 0.41017(19) 0.18959(12) 0.97119(14)
N1A N 0.58983(19) 0.81041(12) 0.02881(14)
N2B N 0.53919(19) 0.59960(12) 0.48101(14)
N3B N 0.58381(18) 0.82676(12) 0.22887(14)
C1B C 0.7893(3) 0.67127(19) -0.0177(2)
C2B C 0.7641(2) 0.72363(16) 0.02496(17)
C3B C 0.8155(2) 0.77245(17) 0.02871(18)
H1B H 0.8595 0.7739 0.0001
C4B C 0.8046(2) 0.82011(17) 0.07371(18)
C5B C 0.8680(3) 0.86969(19) 0.0744(2)
C6B C 0.7015(3) 0.65101(16) 0.2775(2)
C7B C 0.6500(2) 0.67557(15) 0.21505(18)
C8B C 0.5841(3) 0.64185(16) 0.19182(19)
H2B H 0.5733 0.6065 0.2156
C9B C 0.5306(2) 0.65717(17) 0.1336(2)
C10B C 0.4597(3) 0.6142(2) 0.1152(2)
C11B C 0.2524(3) 0.54129(19) 0.4449(2)
C12B C 0.3288(2) 0.52486(16) 0.4908(2)
C13B C 0.3247(2) 0.52221(16) 0.56133(19)
H3B H 0.2726 0.5215 0.5794
C14B C 0.3946(2) 0.52062(15) 0.60546(18)
C15B C 0.3865(3) 0.52886(17) 0.6817(2)
C16B C 0.5665(2) 0.71791(15) 0.47101(17)
H4B H 0.5760 0.7592 0.4681
C17B C 0.5754(2) 0.63125(16) 0.53102(17)
H5B H 0.5926 0.6110 0.5719
C18B C 0.5164(2) 0.62839(16) 0.42301(17)
H6B H 0.4909 0.6067 0.3860
C19B C 0.5287(2) 0.68869(15) 0.41513(17)
C20B C 0.5039(2) 0.71885(15) 0.34956(17)
C21B C 0.5550(2) 0.76059(15) 0.32370(16)
H7B H 0.6047 0.7716 0.3485
C22B C 0.5324(2) 0.78640(15) 0.26029(17)
C23B C 0.4602(2) 0.77020(16) 0.22421(18)
H8B H 0.4457 0.7872 0.1809
C24B C 0.4089(2) 0.72923(18) 0.25123(18)
H9B H 0.3589 0.7185 0.2268
C25B C 0.4310(2) 0.70399(16) 0.31392(18)
H10B H 0.3956 0.6762 0.3326
C26B C 0.6374(2) 0.87387(15) 0.26369(17)
C27B C 0.6447(2) 0.92439(15) 0.21268(19)
H11B H 0.6736 0.9577 0.2354
H12B H 0.5900 0.9371 0.1951
H13B H 0.6753 0.9107 0.1749
C28B C 0.5949(2) 0.89748(16) 0.32487(18)
H14B H 0.5934 0.8664 0.3594
H15B H 0.5389 0.9095 0.3100
H16B H 0.6252 0.9316 0.3443
C29B C 0.7216(2) 0.84742(16) 0.28290(18)
H17B H 0.7161 0.8135 0.3132
H18B H 0.7567 0.8774 0.3062
H19B H 0.7461 0.8344 0.2416
Cu3 Cu 0.14010(3) 0.77176(2) 1.39749(2)
Cu4 Cu 0.0000 0.5000 1.0000
F19 F 0.31500(16) 0.72247(11) 1.60728(11)
F20 F 0.37530(15) 0.66439(12) 1.54177(14)
F21 F 0.25027(14) 0.64894(10) 1.56062(11)
F22 F 0.45811(15) 0.84129(12) 1.43305(13)
F23 F 0.37196(17) 0.91106(11) 1.41330(15)
F24 F 0.39343(14) 0.84917(11) 1.33525(11)
F25 F 0.21473(15) 0.69174(11) 1.19455(14)
F26 F 0.26197(16) 0.62368(12) 1.26258(15)
F27 F 0.15027(15) 0.60971(10) 1.19946(12)
F28 F -0.06597(18) 0.58823(13) 1.32610(15)
F29 F -0.10570(19) 0.65114(15) 1.39661(15)
F30 F -0.0187(2) 0.58481(16) 1.43003(17)
F31 F -0.26329(18) 0.42851(12) 0.99208(14)
F32 F -0.26560(15) 0.50649(12) 1.05410(14)
F33 F -0.31802(16) 0.50754(16) 0.95145(15)
F34 F -0.03794(14) 0.49365(10) 0.76558(11)
F35 F -0.07180(15) 0.58419(9) 0.78253(11)
F36 F -0.16458(14) 0.51853(10) 0.75974(11)
O8 O 0.20259(16) 0.72507(11) 1.46920(12)
O9 O 0.24716(17) 0.82715(11) 1.39420(13)
O10 O 0.17759(19) 0.72313(12) 1.31974(16)
O11 O 0.0382(2) 0.70682(14) 1.40203(15)
O12 O -0.11650(15) 0.50397(10) 1.01474(12)
O13 O -0.02231(16) 0.51703(11) 0.90023(13)
O14 O 0.07753(16) 0.82808(11) 1.33728(12)
N4 N 0.08186(18) 0.68538(13) 0.97694(14)
N5 N 0.02300(19) 0.59872(13) 1.01898(15)
N6 N 0.08013(19) 0.82916(13) 1.27149(15)
C30 C 0.3044(2) 0.69061(19) 1.5499(2)
C31 C 0.2760(2) 0.73126(16) 1.48956(18)
C32 C 0.3345(2) 0.77024(17) 1.46955(18)
H20 H 0.3893 0.7663 1.4884
C33 C 0.3155(2) 0.81527(16) 1.42248(18)
C34 C 0.3851(2) 0.85498(18) 1.4020(2)
C35 C 0.1935(3) 0.65009(18) 1.2380(3)
C36 C 0.1465(3) 0.67616(17) 1.2954(2)
C37 C 0.0792(2) 0.64517(16) 1.3120(2)
H21 H 0.0646 0.6104 1.2870
C38 C 0.0305(3) 0.66251(19) 1.3645(2)
C39 C -0.0402(3) 0.6220(2) 1.3794(2)
C40 C -0.2569(3) 0.48711(19) 0.9917(2)
C41 C -0.1725(2) 0.50285(15) 0.96849(19)
C42 C -0.1668(2) 0.50946(16) 0.89806(19)
H22 H -0.2156 0.5088 0.8687
C43 C -0.0929(2) 0.51679(14) 0.87032(18)
C44 C -0.0928(2) 0.52774(17) 0.7933(2)
C45 C 0.0589(2) 0.71565(17) 1.03094(17)
H23 H 0.0708 0.7567 1.0343
C46 C 0.0626(2) 0.62849(17) 0.97351(17)
H24 H 0.0784 0.6071 0.9352
C47 C 0.0015(2) 0.62903(17) 1.07331(18)
H25 H -0.0262 0.6089 1.1070
C48 C 0.0184(2) 0.68884(16) 1.08201(17)
C49 C -0.0060(2) 0.72082(16) 1.14325(17)
C50 C 0.0470(2) 0.76233(15) 1.17478(17)
H26 H 0.0969 0.7720 1.1560
C51 C 0.0255(2) 0.78968(15) 1.23477(18)
C52 C -0.0482(2) 0.77685(16) 1.26139(18)
H27 H -0.0622 0.7957 1.3020
C53 C -0.1010(2) 0.73698(16) 1.22912(18)
H28 H -0.1518 0.7286 1.2470
C54 C -0.0801(2) 0.70887(16) 1.17038(18)
H29 H -0.1168 0.6811 1.1484
C55 C 0.1359(2) 0.87402(17) 1.24145(18)
C56 C 0.1507(3) 0.92431(16) 1.2933(2)
H30 H 0.1802 0.9089 1.3347
H31 H 0.1834 0.9554 1.2738
H32 H 0.0981 0.9407 1.3045
C57 C 0.0933(3) 0.89908(17) 1.17593(19)
H33 H 0.0380 0.9119 1.1845
H34 H 0.1245 0.9329 1.1607
H35 H 0.0902 0.8685 1.1406
C58 C 0.2168(2) 0.84363(17) 1.2289(2)
H36 H 0.2072 0.8136 1.1934
H37 H 0.2556 0.8731 1.2144
H38 H 0.2393 0.8248 1.2711
Cu3B Cu -0.14010(3) 0.22824(2) 0.60251(2)
Cu3C Cu 0.14010(3) 0.72824(2) 0.89749(2)
Cu3A Cu -0.14010(3) 0.27176(2) 1.10251(2)
F19B F -0.31500(16) 0.27753(11) 0.39272(11)
F20B F -0.37530(15) 0.33561(12) 0.45823(14)
F21B F -0.25027(14) 0.35106(10) 0.43938(11)
F22B F -0.45811(15) 0.15871(12) 0.56695(13)
F23B F -0.37196(17) 0.08894(11) 0.58670(15)
F24B F -0.39343(14) 0.15083(11) 0.66475(11)
F25B F -0.21473(15) 0.30826(11) 0.80545(14)
F26B F -0.26197(16) 0.37632(12) 0.73742(15)
F27B F -0.15027(15) 0.39029(10) 0.80054(12)
F28B F 0.06597(18) 0.41177(13) 0.67390(15)
F29B F 0.10570(19) 0.34886(15) 0.60339(15)
F30B F 0.0187(2) 0.41519(16) 0.56997(17)
F31B F 0.26329(18) 0.57149(12) 1.00792(14)
F32B F 0.26560(15) 0.49351(12) 0.94590(14)
F33B F 0.31802(16) 0.49246(16) 1.04855(15)
F34B F 0.03794(14) 0.50635(10) 1.23442(11)
F35B F 0.07180(15) 0.41581(9) 1.21747(11)
F36B F 0.16458(14) 0.48147(10) 1.24026(11)
O8B O -0.20259(16) 0.27493(11) 0.53080(12)
O9B O -0.24716(17) 0.17285(11) 0.60580(13)
O10B O -0.17759(19) 0.27687(12) 0.68026(16)
O11B O -0.0382(2) 0.29318(14) 0.59797(15)
O12B O 0.11650(15) 0.49603(10) 0.98526(12)
O13B O 0.02231(16) 0.48297(11) 1.09977(13)
O14B O -0.07753(16) 0.17192(11) 0.66272(12)
N4B N -0.08186(18) 0.31462(13) 1.02306(14)
N4C N 0.08186(18) 0.81462(13) 1.47694(14)
N4A N -0.08186(18) 0.18538(13) 0.52306(14)
N5B N -0.02300(19) 0.40128(13) 0.98102(15)
N6B N -0.08013(19) 0.17084(13) 0.72851(15)
C30B C -0.3044(2) 0.30939(19) 0.4501(2)
C31B C -0.2760(2) 0.26874(16) 0.51044(18)
C32B C -0.3345(2) 0.22976(17) 0.53045(18)
H20B H -0.3893 0.2337 0.5116
C33B C -0.3155(2) 0.18473(16) 0.57752(18)
C34B C -0.3851(2) 0.14502(18) 0.5980(2)
C35B C -0.1935(3) 0.34991(18) 0.7620(3)
C36B C -0.1465(3) 0.32384(17) 0.7046(2)
C37B C -0.0792(2) 0.35483(16) 0.6880(2)
H21B H -0.0646 0.3896 0.7130
C38B C -0.0305(3) 0.33749(19) 0.6355(2)
C39B C 0.0402(3) 0.3780(2) 0.6206(2)
C40B C 0.2569(3) 0.51289(19) 1.0083(2)
C41B C 0.1725(2) 0.49715(15) 1.03151(19)
C42B C 0.1668(2) 0.49054(16) 1.10194(19)
H22B H 0.2156 0.4912 1.1313
C43B C 0.0929(2) 0.48321(14) 1.12968(18)
C44B C 0.0928(2) 0.47226(17) 1.2067(2)
C45B C -0.0589(2) 0.28435(17) 0.96906(17)
H23B H -0.0708 0.2433 0.9657
C46B C -0.0626(2) 0.37151(17) 1.02649(17)
H24B H -0.0784 0.3929 1.0648
C47B C -0.0015(2) 0.37097(17) 0.92669(18)
H25B H 0.0262 0.3911 0.8930
C48B C -0.0184(2) 0.31116(16) 0.91799(17)
C49B C 0.0060(2) 0.27918(16) 0.85675(17)
C50B C -0.0470(2) 0.23767(15) 0.82522(17)
H26B H -0.0969 0.2280 0.8440
C51B C -0.0255(2) 0.21032(15) 0.76523(18)
C52B C 0.0482(2) 0.22315(16) 0.73861(18)
H27B H 0.0622 0.2043 0.6980
C53B C 0.1010(2) 0.26302(16) 0.77088(18)
H28B H 0.1518 0.2714 0.7530
C54B C 0.0801(2) 0.29113(16) 0.82962(18)
H29B H 0.1168 0.3189 0.8516
C55B C -0.1359(2) 0.12598(17) 0.75855(18)
C56B C -0.1507(3) 0.07569(16) 0.7067(2)
H30B H -0.1802 0.0911 0.6653
H31B H -0.1834 0.0446 0.7262
H32B H -0.0981 0.0593 0.6955
C57B C -0.0933(3) 0.10092(17) 0.82407(19)
H33B H -0.0380 0.0881 0.8155
H34B H -0.1245 0.0671 0.8393
H35B H -0.0902 0.1315 0.8594
C58B C -0.2168(2) 0.15637(17) 0.7711(2)
H36B H -0.2072 0.1864 0.8066
H37B H -0.2556 0.1269 0.7856
H38B H -0.2393 0.1752 0.7289
loop_
_geom_bond_atom_site_label_1
_geom_bond_atom_site_label_2
_geom_bond_site_symmetry_1
_geom_bond_site_symmetry_2
Cu1 O1 1_555 1_555
Cu2 O5 1_555 1_555
F1 C1 1_555 1_555
F2 C1 1_555 1_555
F3 C1 1_555 1_555
F4 C5 1_555 1_555
F5 C5 1_555 1_555
F6 C5 1_555 1_555
F7 C6 1_555 1_555
F8 C6 1_555 1_555
F9 C6 1_555 1_555
F10 C10 1_555 1_555
F11 C10 1_555 1_555
F12 C10 1_555 1_555
F13 C11 1_555 1_555
F14 C11 1_555 1_555
F15 C11 1_555 1_555
F16 C15 1_555 1_555
F17 C15 1_555 1_555
F18 C15 1_555 1_555
O1 C2 1_555 1_555
O2 Cu1 1_555 1_555
O3 Cu1 1_555 1_555
O4 Cu1 1_555 1_555
O5 C12 1_555 1_555
O6 Cu2 1_555 1_555
O7 Cu1 1_555 1_555
N1 C16 1_555 1_555
N2 Cu2 1_555 1_555
N3 O7 1_555 1_555
C1 C2 1_555 1_555
C2 C3 1_555 1_555
C3 H1 1_555 1_555
C4 O2 1_555 1_555
C5 C4 1_555 1_555
C6 C7 1_555 1_555
C7 O3 1_555 1_555
C8 C7 1_555 1_555
H2 C8 1_555 1_555
C9 O4 1_555 1_555
C10 C9 1_555 1_555
C11 C12 1_555 1_555
C12 C13 1_555 1_555
C13 H3 1_555 1_555
C14 O6 1_555 1_555
C15 C14 1_555 1_555
C16 H4 1_555 1_555
C17 N1 1_555 1_555
H5 C17 1_555 1_555
C18 N2 1_555 1_555
H6 C18 1_555 1_555
C19 C16 1_555 1_555
C20 C19 1_555 1_555
C21 C20 1_555 1_555
H7 C21 1_555 1_555
C22 N3 1_555 1_555
C23 C22 1_555 1_555
H8 C23 1_555 1_555
C24 C23 1_555 1_555
H9 C24 1_555 1_555
C25 C20 1_555 1_555
H10 C25 1_555 1_555
C26 N3 1_555 1_555
C27 C26 1_555 1_555
H11 C27 1_555 1_555
H12 C27 1_555 1_555
H13 C27 1_555 1_555
C28 C26 1_555 1_555
H14 C28 1_555 1_555
H15 C28 1_555 1_555
H16 C28 1_555 1_555
C29 C26 1_555 1_555
H17 C29 1_555 1_555
H18 C29 1_555 1_555
H19 C29 1_555 1_555
Cu3 O8 1_555 1_555
Cu4 O12 1_555 1_555
F19 C30 1_555 1_555
F20 C30 1_555 1_555
F21 C30 1_555 1_555
F22 C34 1_555 1_555
F23 C34 1_555 1_555
F24 C34 1_555 1_555
F25 C35 1_555 1_555
F26 C35 1_555 1_555
F27 C35 1_555 1_555
F28 C39 1_555 1_555
F29 C39 1_555 1_555
F30 C39 1_555 1_555
F31 C40 1_555 1_555
F32 C40 1_555 1_555
F33 C40 1_555 1_555
F34 C44 1_555 1_555
F35 C44 1_555 1_555
F36 C44 1_555 1_555
O8 C31 1_555 1_555
O9 Cu3 1_555 1_555
O10 Cu3 1_555 1_555
O11 Cu3 1_555 1_555
O12 C41 1_555 1_555
O13 Cu4 1_555 1_555
O14 Cu3 1_555 1_555
N4 C45 1_555 1_555
N5 Cu4 1_555 1_555
N6 O14 1_555 1_555
C30 C31 1_555 1_555
C31 C32 1_555 1_555
C32 H20 1_555 1_555
C33 O9 1_555 1_555
C34 C33 1_555 1_555
C35 C36 1_555 1_555
C36 O10 1_555 1_555
C37 C36 1_555 1_555
H21 C37 1_555 1_555
C38 O11 1_555 1_555
C39 C38 1_555 1_555
C40 C41 1_555 1_555
C41 C42 1_555 1_555
C42 H22 1_555 1_555
C43 O13 1_555 1_555
C44 C43 1_555 1_555
C45 H23 1_555 1_555
C46 N4 1_555 1_555
H24 C46 1_555 1_555
C47 N5 1_555 1_555
H25 C47 1_555 1_555
C48 C45 1_555 1_555
C49 C48 1_555 1_555
C50 C49 1_555 1_555
H26 C50 1_555 1_555
C51 N6 1_555 1_555
C52 C51 1_555 1_555
H27 C52 1_555 1_555
C53 C52 1_555 1_555
H28 C53 1_555 1_555
C54 C49 1_555 1_555
H29 C54 1_555 1_555
C55 N6 1_555 1_555
C56 C55 1_555 1_555
H30 C56 1_555 1_555
H31 C56 1_555 1_555
H32 C56 1_555 1_555
C57 C55 1_555 1_555
H33 C57 1_555 1_555
H34 C57 1_555 1_555
H35 C57 1_555 1_555
C58 C55 1_555 1_555
H36 C58 1_555 1_555
H37 C58 1_555 1_555
H38 C58 1_555 1_555
Cu1B O1B 1_555 1_555
Cu1C N1 1_555 1_555
Cu1A N1B 1_555 1_555
F1B C1B 1_555 1_555
F2B C1B 1_555 1_555
F3B C1B 1_555 1_555
F4B C5B 1_555 1_555
F5B C5B 1_555 1_555
F6B C5B 1_555 1_555
F7B C6B 1_555 1_555
F8B C6B 1_555 1_555
F9B C6B 1_555 1_555
F10B C10B 1_555 1_555
F11B C10B 1_555 1_555
F12B C10B 1_555 1_555
F13B C11B 1_555 1_555
F14B C11B 1_555 1_555
F15B C11B 1_555 1_555
F16B C15B 1_555 1_555
F17B C15B 1_555 1_555
F18B C15B 1_555 1_555
O1B C2B 1_555 1_555
O2B Cu1B 1_555 1_555
O3B Cu1B 1_555 1_555
O4B Cu1B 1_555 1_555
O5B Cu2 1_555 1_555
O6B Cu2 1_555 1_555
O7B Cu1B 1_555 1_555
N1B C16B 1_555 1_555
N1C Cu1 1_555 1_555
N1A Cu1B 1_555 1_555
N2B Cu2 1_555 1_555
N3B O7B 1_555 1_555
C1B C2B 1_555 1_555
C2B C3B 1_555 1_555
C3B H1B 1_555 1_555
C4B O2B 1_555 1_555
C5B C4B 1_555 1_555
C6B C7B 1_555 1_555
C7B O3B 1_555 1_555
C8B C7B 1_555 1_555
H2B C8B 1_555 1_555
C9B O4B 1_555 1_555
C10B C9B 1_555 1_555
C11B C12B 1_555 1_555
C12B O5B 1_555 1_555
C13B C12B 1_555 1_555
H3B C13B 1_555 1_555
C14B O6B 1_555 1_555
C15B C14B 1_555 1_555
C16B H4B 1_555 1_555
C17B N1B 1_555 1_555
H5B C17B 1_555 1_555
C18B N2B 1_555 1_555
H6B C18B 1_555 1_555
C19B C16B 1_555 1_555
C20B C19B 1_555 1_555
C21B C20B 1_555 1_555
H7B C21B 1_555 1_555
C22B N3B 1_555 1_555
C23B C22B 1_555 1_555
H8B C23B 1_555 1_555
C24B C23B 1_555 1_555
H9B C24B 1_555 1_555
C25B C20B 1_555 1_555
H10B C25B 1_555 1_555
C26B N3B 1_555 1_555
C27B C26B 1_555 1_555
H11B C27B 1_555 1_555
H12B C27B 1_555 1_555
H13B C27B 1_555 1_555
C28B C26B 1_555 1_555
H14B C28B 1_555 1_555
H15B C28B 1_555 1_555
H16B C28B 1_555 1_555
C29B C26B 1_555 1_555
H17B C29B 1_555 1_555
H18B C29B 1_555 1_555
H19B C29B 1_555 1_555
Cu3B O8B 1_555 1_555
Cu3C N4 1_555 1_555
Cu3A N4B 1_555 1_555
F19B C30B 1_555 1_555
F20B C30B 1_555 1_555
F21B C30B 1_555 1_555
F22B C34B 1_555 1_555
F23B C34B 1_555 1_555
F24B C34B 1_555 1_555
F25B C35B 1_555 1_555
F26B C35B 1_555 1_555
F27B C35B 1_555 1_555
F28B C39B 1_555 1_555
F29B C39B 1_555 1_555
F30B C39B 1_555 1_555
F31B C40B 1_555 1_555
F32B C40B 1_555 1_555
F33B C40B 1_555 1_555
F34B C44B 1_555 1_555
F35B C44B 1_555 1_555
F36B C44B 1_555 1_555
O8B C31B 1_555 1_555
O9B Cu3B 1_555 1_555
O10B Cu3B 1_555 1_555
O11B Cu3B 1_555 1_555
O12B Cu4 1_555 1_555
O13B Cu4 1_555 1_555
O14B Cu3B 1_555 1_555
N4B C45B 1_555 1_555
N4C Cu3 1_555 1_555
N4A Cu3B 1_555 1_555
N5B Cu4 1_555 1_555
N6B O14B 1_555 1_555
C30B C31B 1_555 1_555
C31B C32B 1_555 1_555
C32B H20B 1_555 1_555
C33B O9B 1_555 1_555
C34B C33B 1_555 1_555
C35B C36B 1_555 1_555
C36B O10B 1_555 1_555
C37B C36B 1_555 1_555
H21B C37B 1_555 1_555
C38B O11B 1_555 1_555
C39B C38B 1_555 1_555
C40B C41B 1_555 1_555
C41B O12B 1_555 1_555
C42B C41B 1_555 1_555
H22B C42B 1_555 1_555
C43B O13B 1_555 1_555
C44B C43B 1_555 1_555
C45B H23B 1_555 1_555
C46B N4B 1_555 1_555
H24B C46B 1_555 1_555
C47B N5B 1_555 1_555
H25B C47B 1_555 1_555
C48B C45B 1_555 1_555
C49B C48B 1_555 1_555
C50B C49B 1_555 1_555
H26B C50B 1_555 1_555
C51B N6B 1_555 1_555
C52B C51B 1_555 1_555
H27B C52B 1_555 1_555
C53B C52B 1_555 1_555
H28B C53B 1_555 1_555
C54B C49B 1_555 1_555
H29B C54B 1_555 1_555
C55B N6B 1_555 1_555
C56B C55B 1_555 1_555
H30B C56B 1_555 1_555
H31B C56B 1_555 1_555
H32B C56B 1_555 1_555
C57B C55B 1_555 1_555
H33B C57B 1_555 1_555
H34B C57B 1_555 1_555
H35B C57B 1_555 1_555
C58B C55B 1_555 1_555
H36B C58B 1_555 1_555
H37B C58B 1_555 1_555
H38B C58B 1_555 1_555
N2 C17 1_555 1_555
C3 C4 1_555 1_555
C8 C9 1_555 1_555
C13 C14 1_555 1_555
C18 C19 1_555 1_555
C21 C22 1_555 1_555
C24 C25 1_555 1_555
N5 C46 1_555 1_555
C32 C33 1_555 1_555
C37 C38 1_555 1_555
C42 C43 1_555 1_555
C47 C48 1_555 1_555
C50 C51 1_555 1_555
C53 C54 1_555 1_555
N2B C17B 1_555 1_555
C3B C4B 1_555 1_555
C8B C9B 1_555 1_555
C13B C14B 1_555 1_555
C18B C19B 1_555 1_555
C21B C22B 1_555 1_555
C24B C25B 1_555 1_555
N5B C46B 1_555 1_555
C32B C33B 1_555 1_555
C37B C38B 1_555 1_555
C42B C43B 1_555 1_555
C47B C48B 1_555 1_555
C50B C51B 1_555 1_555
C53B C54B 1_555 1_555

#END
