
#######################################################################
#
#                 Cambridge Crystallographic Data Centre
#                                CCDC 
#
#######################################################################
#
# If this CIF has been generated from an entry in the Cambridge 
# Structural Database, then it will include bibliographic, chemical, 
# crystal, experimental, refinement or atomic coordinate data resulting 
# from the CCDC's data processing and validation procedures.
#
#######################################################################

data_EZOBIF02
_symmetry_cell_setting           monoclinic
_symmetry_space_group_name_H-M   'P 21/n'
_symmetry_Int_Tables_number      14
_space_group_name_Hall           '-P 2yn'
loop_
_symmetry_equiv_pos_site_id
_symmetry_equiv_pos_as_xyz
1 x,y,z
2 1/2-x,1/2+y,1/2-z
3 -x,-y,-z
4 1/2+x,1/2-y,1/2+z
_cell_length_a                   14.9104(2)
_cell_length_b                   11.6878(1)
_cell_length_c                   20.5148(2)
_cell_angle_alpha                90
_cell_angle_beta                 92.6405(5)
_cell_angle_gamma                90
_cell_volume                     3571.31
loop_
_atom_site_label
_atom_site_type_symbol
_atom_site_fract_x
_atom_site_fract_y
_atom_site_fract_z
Cu1 Cu 0.10944(3) -0.51280(5) 0.29088(2)
Cu2 Cu 0.5000 0.0000 0.5000
O1 O 0.2425(2) -0.4090(3) 0.29274(14)
O2 O 0.1013(2) -0.4653(3) 0.38165(14)
O3 O 0.1883(2) -0.6407(3) 0.32239(15)
O4 O -0.0039(2) -0.6394(3) 0.29706(16)
O5 O 0.5384(2) 0.1311(3) 0.44889(14)
O6 O 0.4120(2) 0.0903(3) 0.54509(15)
O7 O 0.03939(19) -0.3819(3) 0.25720(14)
N1 N 0.3597(2) -0.0496(3) 0.30124(17)
N2 N -0.0169(2) -0.3294(3) 0.29338(17)
N3 N 0.3919(2) -0.0577(3) 0.41504(18)
C1 C 0.3901(3) -0.4063(4) 0.3371(2)
C2 C 0.2880(3) -0.4140(4) 0.3445(2)
C3 C 0.2568(3) -0.4249(4) 0.4083(2)
H1 H 0.2985 -0.4149 0.4443
C4 C 0.1685(3) -0.4495(4) 0.4208(2)
C5 C 0.1447(3) -0.4652(5) 0.4917(2)
C6 C 0.2449(3) -0.7754(4) 0.3959(2)
C7 C 0.1650(3) -0.7241(4) 0.3566(2)
C8 C 0.0809(3) -0.7720(4) 0.3634(2)
H2 H 0.0756 -0.8376 0.3903
C9 C 0.0036(3) -0.7268(4) 0.3317(2)
C10 C -0.0843(4) -0.7939(5) 0.3385(3)
C11 C 0.5707(3) 0.3206(4) 0.4239(2)
C12 C 0.5213(3) 0.2331(4) 0.4642(2)
C13 C 0.4638(3) 0.2728(4) 0.5110(2)
H3 H 0.4598 0.3527 0.5189
C14 C 0.4124(3) 0.1977(4) 0.5463(2)
C15 C 0.3477(3) 0.2475(4) 0.5942(2)
C16 C 0.2755(3) -0.0859(4) 0.3104(2)
H4 H 0.2354 -0.0958 0.2735
C17 C 0.4142(3) -0.0362(4) 0.3538(2)
H5 H 0.4733 -0.0094 0.3474
C18 C 0.3090(3) -0.0950(4) 0.4235(2)
H6 H 0.2921 -0.1127 0.4665
C19 C 0.2456(3) -0.1093(4) 0.3718(2)
C20 C 0.1514(3) -0.1468(4) 0.3803(2)
C21 C 0.1088(3) -0.2154(4) 0.3333(2)
H7 H 0.1401 -0.2386 0.2963
C22 C 0.0200(3) -0.2509(4) 0.3400(2)
C23 C -0.0262(3) -0.2155(4) 0.3941(2)
H8 H -0.0866 -0.2383 0.3989
C24 C 0.0171(3) -0.1465(4) 0.4409(2)
H9 H -0.0143 -0.1224 0.4778
C25 C 0.1050(3) -0.1126(4) 0.4348(2)
H10 H 0.1339 -0.0661 0.4675
C26 C -0.1165(3) -0.3517(4) 0.2794(2)
C27 C -0.1260(3) -0.4193(5) 0.2151(2)
H11 H -0.0965 -0.4938 0.2207
H12 H -0.0977 -0.3765 0.1805
H13 H -0.1898 -0.4307 0.2032
C28 C -0.1637(3) -0.2360(4) 0.2706(2)
H14 H -0.1375 -0.1939 0.2348
H15 H -0.1561 -0.1916 0.3110
H16 H -0.2279 -0.2484 0.2604
C29 C -0.1527(3) -0.4245(4) 0.3340(2)
H17 H -0.1201 -0.4972 0.3366
H18 H -0.2167 -0.4394 0.3248
H19 H -0.1446 -0.3836 0.3755
F1 F 0.4149(2) -0.4708(3) 0.28809(16)
F2 F 0.4382(2) -0.4402(3) 0.38940(15)
F3 F 0.4148(2) -0.2994(3) 0.3244(2)
F4 F 0.2134(2) -0.4471(3) 0.53456(13)
F5 F 0.0788(2) -0.3955(3) 0.50794(15)
F6 F 0.1163(2) -0.5720(3) 0.50178(14)
F7 F 0.3084(2) -0.8107(3) 0.35764(16)
F8 F 0.2230(2) -0.8650(3) 0.43312(16)
F9 F 0.2806(2) -0.6974(3) 0.43661(16)
F10 F -0.1042(3) -0.8551(4) 0.28619(19)
F11 F -0.0824(3) -0.8641(4) 0.3894(2)
F12 F -0.1542(2) -0.7246(3) 0.3457(2)
F13 F 0.5294(2) 0.3328(3) 0.36501(13)
F14 F 0.65437(19) 0.2877(3) 0.41465(16)
F15 F 0.5752(2) 0.4239(2) 0.45210(14)
F16 F 0.3711(2) 0.2154(3) 0.65491(14)
F17 F 0.26472(19) 0.2085(3) 0.58125(16)
F18 F 0.3438(3) 0.3602(3) 0.5935(2)
Cu1B Cu 0.89056(3) 0.51280(5) 0.70912(2)
Cu1A Cu 0.39056(3) -0.01280(5) 0.20912(2)
Cu1C Cu 0.60944(3) 0.01280(5) 0.79088(2)
O1B O 0.7575(2) 0.4090(3) 0.70726(14)
O2B O 0.8987(2) 0.4653(3) 0.61835(14)
O3B O 0.8117(2) 0.6407(3) 0.67761(15)
O4B O 1.0039(2) 0.6394(3) 0.70294(16)
O5B O 0.4616(2) -0.1311(3) 0.55111(14)
O6B O 0.5880(2) -0.0903(3) 0.45491(15)
O7B O 0.96061(19) 0.3819(3) 0.74280(14)
N1B N 0.6403(2) 0.0496(3) 0.69876(17)
N1A N 0.1403(2) -0.5496(3) 0.19876(17)
N1C N 0.8597(2) 0.5496(3) 0.80124(17)
N2B N 1.0169(2) 0.3294(3) 0.70662(17)
N3B N 0.6081(2) 0.0577(3) 0.58496(18)
C1B C 0.6099(3) 0.4063(4) 0.6629(2)
C2B C 0.7120(3) 0.4140(4) 0.6555(2)
C3B C 0.7432(3) 0.4249(4) 0.5917(2)
H1B H 0.7015 0.4149 0.5557
C4B C 0.8315(3) 0.4495(4) 0.5792(2)
C5B C 0.8553(3) 0.4652(5) 0.5083(2)
C6B C 0.7551(3) 0.7754(4) 0.6041(2)
C7B C 0.8350(3) 0.7241(4) 0.6434(2)
C8B C 0.9191(3) 0.7720(4) 0.6366(2)
H2B H 0.9244 0.8376 0.6097
C9B C 0.9964(3) 0.7268(4) 0.6683(2)
C10B C 1.0843(4) 0.7939(5) 0.6615(3)
C11B C 0.4293(3) -0.3206(4) 0.5761(2)
C12B C 0.4787(3) -0.2331(4) 0.5358(2)
C13B C 0.5362(3) -0.2728(4) 0.4890(2)
H3B H 0.5402 -0.3527 0.4811
C14B C 0.5876(3) -0.1977(4) 0.4537(2)
C15B C 0.6523(3) -0.2475(4) 0.4058(2)
C16B C 0.7245(3) 0.0859(4) 0.6896(2)
H4B H 0.7646 0.0958 0.7265
C17B C 0.5858(3) 0.0362(4) 0.6462(2)
H5B H 0.5267 0.0094 0.6526
C18B C 0.6910(3) 0.0950(4) 0.5765(2)
H6B H 0.7079 0.1127 0.5335
C19B C 0.7544(3) 0.1093(4) 0.6282(2)
C20B C 0.8486(3) 0.1468(4) 0.6197(2)
C21B C 0.8912(3) 0.2154(4) 0.6667(2)
H7B H 0.8599 0.2386 0.7037
C22B C 0.9800(3) 0.2509(4) 0.6600(2)
C23B C 1.0262(3) 0.2155(4) 0.6059(2)
H8B H 1.0866 0.2383 0.6011
C24B C 0.9829(3) 0.1465(4) 0.5591(2)
H9B H 1.0143 0.1224 0.5222
C25B C 0.8950(3) 0.1126(4) 0.5652(2)
H10B H 0.8661 0.0661 0.5325
C26B C 1.1165(3) 0.3517(4) 0.7206(2)
C27B C 1.1260(3) 0.4193(5) 0.7849(2)
H11B H 1.0965 0.4938 0.7793
H12B H 1.0977 0.3765 0.8195
H13B H 1.1898 0.4307 0.7968
C28B C 1.1637(3) 0.2360(4) 0.7294(2)
H14B H 1.1375 0.1939 0.7652
H15B H 1.1561 0.1916 0.6890
H16B H 1.2279 0.2484 0.7396
C29B C 1.1527(3) 0.4245(4) 0.6660(2)
H17B H 1.1201 0.4972 0.6634
H18B H 1.2167 0.4394 0.6752
H19B H 1.1446 0.3836 0.6245
F1B F 0.5851(2) 0.4708(3) 0.71191(16)
F2B F 0.5618(2) 0.4402(3) 0.61060(15)
F3B F 0.5852(2) 0.2994(3) 0.6756(2)
F4B F 0.7866(2) 0.4471(3) 0.46544(13)
F5B F 0.9212(2) 0.3955(3) 0.49206(15)
F6B F 0.8837(2) 0.5720(3) 0.49822(14)
F7B F 0.6916(2) 0.8107(3) 0.64236(16)
F8B F 0.7770(2) 0.8650(3) 0.56688(16)
F9B F 0.7194(2) 0.6974(3) 0.56339(16)
F10B F 1.1042(3) 0.8551(4) 0.71381(19)
F11B F 1.0824(3) 0.8641(4) 0.6106(2)
F12B F 1.1542(2) 0.7246(3) 0.6543(2)
F13B F 0.4706(2) -0.3328(3) 0.63499(13)
F14B F 0.34563(19) -0.2877(3) 0.58535(16)
F15B F 0.4248(2) -0.4239(2) 0.54790(14)
F16B F 0.6289(2) -0.2154(3) 0.34509(14)
F17B F 0.73528(19) -0.2085(3) 0.41875(16)
F18B F 0.6562(3) -0.3602(3) 0.4065(2)
loop_
_geom_bond_atom_site_label_1
_geom_bond_atom_site_label_2
_geom_bond_site_symmetry_1
_geom_bond_site_symmetry_2
Cu1 O1 1_555 1_555
Cu2 O5 1_555 1_555
O1 C2 1_555 1_555
O2 Cu1 1_555 1_555
O3 Cu1 1_555 1_555
O4 Cu1 1_555 1_555
O5 C12 1_555 1_555
O6 Cu2 1_555 1_555
O7 Cu1 1_555 1_555
N1 C16 1_555 1_555
N2 O7 1_555 1_555
N3 Cu2 1_555 1_555
C1 C2 1_555 1_555
C2 C3 1_555 1_555
C3 H1 1_555 1_555
C4 O2 1_555 1_555
C5 C4 1_555 1_555
C6 C7 1_555 1_555
C7 O3 1_555 1_555
C8 C7 1_555 1_555
H2 C8 1_555 1_555
C9 O4 1_555 1_555
C10 C9 1_555 1_555
C11 C12 1_555 1_555
C12 C13 1_555 1_555
C13 H3 1_555 1_555
C14 O6 1_555 1_555
C15 C14 1_555 1_555
C16 H4 1_555 1_555
C17 N1 1_555 1_555
H5 C17 1_555 1_555
C18 N3 1_555 1_555
H6 C18 1_555 1_555
C19 C16 1_555 1_555
C20 C19 1_555 1_555
C21 C20 1_555 1_555
H7 C21 1_555 1_555
C22 N2 1_555 1_555
C23 C22 1_555 1_555
H8 C23 1_555 1_555
C24 C23 1_555 1_555
H9 C24 1_555 1_555
C25 C20 1_555 1_555
H10 C25 1_555 1_555
C26 N2 1_555 1_555
C27 C26 1_555 1_555
H11 C27 1_555 1_555
H12 C27 1_555 1_555
H13 C27 1_555 1_555
C28 C26 1_555 1_555
H14 C28 1_555 1_555
H15 C28 1_555 1_555
H16 C28 1_555 1_555
C29 C26 1_555 1_555
H17 C29 1_555 1_555
H18 C29 1_555 1_555
H19 C29 1_555 1_555
F1 C1 1_555 1_555
F2 C1 1_555 1_555
F3 C1 1_555 1_555
F4 C5 1_555 1_555
F5 C5 1_555 1_555
F6 C5 1_555 1_555
F7 C6 1_555 1_555
F8 C6 1_555 1_555
F9 C6 1_555 1_555
F10 C10 1_555 1_555
F11 C10 1_555 1_555
F12 C10 1_555 1_555
F13 C11 1_555 1_555
F14 C11 1_555 1_555
F15 C11 1_555 1_555
F16 C15 1_555 1_555
F17 C15 1_555 1_555
F18 C15 1_555 1_555
Cu1B O1B 1_555 1_555
Cu1A N1 1_555 1_555
Cu1C N1B 1_555 1_555
O1B C2B 1_555 1_555
O2B Cu1B 1_555 1_555
O3B Cu1B 1_555 1_555
O4B Cu1B 1_555 1_555
O5B Cu2 1_555 1_555
O6B Cu2 1_555 1_555
O7B Cu1B 1_555 1_555
N1B C16B 1_555 1_555
N1A Cu1 1_555 1_555
N1C Cu1B 1_555 1_555
N2B O7B 1_555 1_555
N3B Cu2 1_555 1_555
C1B C2B 1_555 1_555
C2B C3B 1_555 1_555
C3B H1B 1_555 1_555
C4B O2B 1_555 1_555
C5B C4B 1_555 1_555
C6B C7B 1_555 1_555
C7B O3B 1_555 1_555
C8B C7B 1_555 1_555
H2B C8B 1_555 1_555
C9B O4B 1_555 1_555
C10B C9B 1_555 1_555
C11B C12B 1_555 1_555
C12B O5B 1_555 1_555
C13B C12B 1_555 1_555
H3B C13B 1_555 1_555
C14B O6B 1_555 1_555
C15B C14B 1_555 1_555
C16B H4B 1_555 1_555
C17B N1B 1_555 1_555
H5B C17B 1_555 1_555
C18B N3B 1_555 1_555
H6B C18B 1_555 1_555
C19B C16B 1_555 1_555
C20B C19B 1_555 1_555
C21B C20B 1_555 1_555
H7B C21B 1_555 1_555
C22B N2B 1_555 1_555
C23B C22B 1_555 1_555
H8B C23B 1_555 1_555
C24B C23B 1_555 1_555
H9B C24B 1_555 1_555
C25B C20B 1_555 1_555
H10B C25B 1_555 1_555
C26B N2B 1_555 1_555
C27B C26B 1_555 1_555
H11B C27B 1_555 1_555
H12B C27B 1_555 1_555
H13B C27B 1_555 1_555
C28B C26B 1_555 1_555
H14B C28B 1_555 1_555
H15B C28B 1_555 1_555
H16B C28B 1_555 1_555
C29B C26B 1_555 1_555
H17B C29B 1_555 1_555
H18B C29B 1_555 1_555
H19B C29B 1_555 1_555
F1B C1B 1_555 1_555
F2B C1B 1_555 1_555
F3B C1B 1_555 1_555
F4B C5B 1_555 1_555
F5B C5B 1_555 1_555
F6B C5B 1_555 1_555
F7B C6B 1_555 1_555
F8B C6B 1_555 1_555
F9B C6B 1_555 1_555
F10B C10B 1_555 1_555
F11B C10B 1_555 1_555
F12B C10B 1_555 1_555
F13B C11B 1_555 1_555
F14B C11B 1_555 1_555
F15B C11B 1_555 1_555
F16B C15B 1_555 1_555
F17B C15B 1_555 1_555
F18B C15B 1_555 1_555
N3 C17 1_555 1_555
C3 C4 1_555 1_555
C8 C9 1_555 1_555
C13 C14 1_555 1_555
C18 C19 1_555 1_555
C21 C22 1_555 1_555
C24 C25 1_555 1_555
N3B C17B 1_555 1_555
C3B C4B 1_555 1_555
C8B C9B 1_555 1_555
C13B C14B 1_555 1_555
C18B C19B 1_555 1_555
C21B C22B 1_555 1_555
C24B C25B 1_555 1_555

#END
