
#######################################################################
#
#                 Cambridge Crystallographic Data Centre
#                                CCDC 
#
#######################################################################
#
# If this CIF has been generated from an entry in the Cambridge 
# Structural Database, then it will include bibliographic, chemical, 
# crystal, experimental, refinement or atomic coordinate data resulting 
# from the CCDC's data processing and validation procedures.
#
#######################################################################

data_EZOTAP
_symmetry_cell_setting           triclinic
_symmetry_space_group_name_H-M   'P 1'
_symmetry_Int_Tables_number      1
_space_group_name_Hall           'P 1'
loop_
_symmetry_equiv_pos_site_id
_symmetry_equiv_pos_as_xyz
1 x,y,z
_cell_length_a                   6.4888(5)
_cell_length_b                   7.9795(6)
_cell_length_c                   17.3829(13)
_cell_angle_alpha                99.761(2)
_cell_angle_beta                 94.209(2)
_cell_angle_gamma                96.713(2)
_cell_volume                     876.926
loop_
_atom_site_label
_atom_site_type_symbol
_atom_site_fract_x
_atom_site_fract_y
_atom_site_fract_z
Cu1 Cu 0.08863(5) -0.31613(4) 0.04024(2)
O1 O 0.2710(3) -0.2578(2) 0.13733(10)
O2 O -0.0904(3) -0.3832(2) -0.05819(10)
O3 O -0.7304(3) -0.5598(2) 0.00718(12)
H1 H -0.833(3) -0.592(3) -0.0266(14)
O4 O 0.9037(3) -0.0618(2) 0.07632(12)
H2 H 0.998(3) -0.007(3) 0.1089(13)
N1 N -0.1228(3) -0.4481(3) 0.09900(13)
N2 N 0.2955(3) -0.1710(3) -0.01542(13)
C1 C 0.3133(4) -0.1167(3) 0.18666(16)
C2 C -0.1253(4) -0.5269(3) -0.10510(15)
C3 C -0.0694(4) -0.4890(3) 0.16952(15)
H3 H 0.0676 -0.4494 0.1938
C4 C 0.4919(4) -0.1179(3) 0.01602(15)
H4 H 0.5367 -0.1569 0.0624
O5 O 0.2460(3) 0.0211(2) 0.17922(11)
O6 O -0.0497(3) -0.6593(2) -0.09789(12)
C5 C 0.4515(4) -0.1317(3) 0.25979(14)
H5 H 0.5508 -0.2150 0.2437
C6 C -0.2743(4) -0.5295(3) -0.17808(15)
H6 H -0.3153 -0.6517 -0.2042
C7 C -0.2028(4) -0.5842(3) 0.20739(16)
H7 H -0.1575 -0.6112 0.2565
C8 C 0.6328(4) -0.0108(3) -0.01435(15)
C9 C -0.4051(4) -0.6416(3) 0.17384(16)
H8 H -0.5000 -0.7078 0.1996
C10 C 0.5676(4) 0.0436(3) -0.08375(16)
H9 H 0.6603 0.1171 -0.1070
O7 O -0.2128(3) -0.6655(2) 0.52191(13)
O8 O 0.3327(3) 0.0433(3) -0.44210(12)
C11 C 0.5791(3) 0.0403(2) 0.29816(11)
H10 H 0.4850 0.1268 0.3101
H11 H 0.6770 0.0773 0.2621
H12 H 0.6568 0.0268 0.3467
C12 C -0.4728(3) -0.4535(3) -0.15646(12)
H13 H -0.5584 -0.4470 -0.2044
H14 H -0.4353 -0.3381 -0.1252
H15 H -0.5517 -0.5267 -0.1259
C13 C 0.3099(4) -0.2064(3) 0.31350(15)
C14 C -0.1506(4) -0.4370(3) -0.23395(16)
C15 C -0.4652(4) -0.6006(3) 0.10245(15)
C16 C 0.3656(4) -0.0117(3) -0.11792(16)
H16 H 0.3178 0.0227 -0.1651
C17 C 0.1447(4) -0.1192(4) 0.34302(17)
H17 H 0.1276 -0.0106 0.3298
C18 C 0.0039(4) -0.5246(4) -0.27055(17)
H18 H 0.0205 -0.6363 -0.2611
C19 C -0.3214(4) -0.5019(3) 0.06660(15)
H19 H -0.3642 -0.4716 0.0179
C20 C 0.2333(4) -0.1196(3) -0.08140(15)
H20 H 0.0947 -0.1571 -0.1045
C21 C 0.0113(4) -0.1872(4) 0.38948(17)
H21 H -0.0955 -0.1241 0.4087
C22 C 0.1303(4) -0.4519(4) -0.31931(17)
H22 H 0.2314 -0.5140 -0.3438
C23 C -0.6797(4) -0.6635(3) 0.06153(16)
H23 H -0.6846 -0.7835 0.0341
H24 H -0.7832 -0.6613 0.1007
C24 C 0.8488(4) 0.0522(3) 0.02532(16)
H25 H 0.9498 0.0565 -0.0145
H26 H 0.8528 0.1693 0.0559
C25 C 0.3299(4) -0.3636(3) 0.33361(16)
H27 H 0.4400 -0.4232 0.3149
C26 C -0.1740(5) -0.2767(4) -0.24771(16)
H28 H -0.2781 -0.2173 -0.2238
C27 C 0.0268(4) -0.3492(3) 0.41015(16)
C28 C 0.1101(4) -0.2847(4) -0.33306(17)
C29 C 0.1916(4) -0.4398(3) 0.38131(17)
C30 C -0.0432(5) -0.1969(4) -0.29780(17)
C31 C -0.1132(4) -0.4247(3) 0.45752(16)
H29 H -0.2232 -0.3656 0.4766
C32 C 0.2429(4) -0.2077(4) -0.38347(17)
H30 H 0.3468 -0.2674 -0.4073
C33 C 0.2067(5) -0.6029(3) 0.40103(18)
H31 H 0.3130 -0.6660 0.3815
C34 C -0.0669(5) -0.0319(4) -0.31486(19)
H32 H -0.1728 0.0281 -0.2928
C35 C 0.0720(5) -0.6713(3) 0.44740(18)
H33 H 0.0872 -0.7801 0.4608
C36 C 0.0586(5) 0.0408(4) -0.3618(2)
H34 H 0.0412 0.1519 -0.3719
C37 C -0.0906(4) -0.5815(4) 0.47574(17)
C38 C 0.2171(5) -0.0468(4) -0.39658(16)
C39 C 0.4941(5) -0.0383(4) -0.47984(18)
H35 H 0.5969 -0.0609 -0.4400
H36 H 0.5625 0.0372 -0.5120
H37 H 0.4328 -0.1467 -0.5133
C40 C -0.3637(5) -0.5732(4) 0.55883(18)
H38 H -0.2936 -0.4691 0.5934
H39 H -0.4431 -0.6451 0.5898
H40 H -0.4587 -0.5415 0.5188
Cu1_2 Cu 1.08863(5) -0.31613(4) 0.04024(2)
Cu1_3 Cu -0.91137(5) -0.31613(4) 0.04024(2)
O3_2 O 0.2696(3) -0.5598(2) 0.00718(12)
H1_2 H 0.167(3) -0.592(3) -0.0266(14)
O4_2 O -0.0963(3) -0.0618(2) 0.07632(12)
H2_2 H -0.002(3) -0.007(3) 0.1089(13)
loop_
_geom_bond_atom_site_label_1
_geom_bond_atom_site_label_2
_geom_bond_site_symmetry_1
_geom_bond_site_symmetry_2
Cu1 O1 1_555 1_555
O1 C1 1_555 1_555
O2 Cu1 1_555 1_555
O3 H1 1_555 1_555
O4 H2 1_555 1_555
N1 Cu1 1_555 1_555
N2 Cu1 1_555 1_555
C1 O5 1_555 1_555
C2 O2 1_555 1_555
C3 N1 1_555 1_555
H3 C3 1_555 1_555
C4 N2 1_555 1_555
H4 C4 1_555 1_555
O6 C2 1_555 1_555
C5 C1 1_555 1_555
H5 C5 1_555 1_555
C6 C2 1_555 1_555
H6 C6 1_555 1_555
C7 C3 1_555 1_555
H7 C7 1_555 1_555
C8 C4 1_555 1_555
C9 C7 1_555 1_555
H8 C9 1_555 1_555
C10 C8 1_555 1_555
H9 C10 1_555 1_555
O7 C37 1_555 1_555
O8 C38 1_555 1_555
C11 C5 1_555 1_555
H10 C11 1_555 1_555
H11 C11 1_555 1_555
H12 C11 1_555 1_555
C12 C6 1_555 1_555
H13 C12 1_555 1_555
H14 C12 1_555 1_555
H15 C12 1_555 1_555
C13 C5 1_555 1_555
C14 C6 1_555 1_555
C15 C9 1_555 1_555
C16 C10 1_555 1_555
H16 C16 1_555 1_555
C17 C13 1_555 1_555
H17 C17 1_555 1_555
C18 C14 1_555 1_555
H18 C18 1_555 1_555
C19 N1 1_555 1_555
H19 C19 1_555 1_555
C20 N2 1_555 1_555
H20 C20 1_555 1_555
C21 C17 1_555 1_555
H21 C21 1_555 1_555
C22 C18 1_555 1_555
H22 C22 1_555 1_555
C23 O3 1_555 1_555
H23 C23 1_555 1_555
H24 C23 1_555 1_555
C24 O4 1_555 1_555
H25 C24 1_555 1_555
H26 C24 1_555 1_555
C25 C13 1_555 1_555
H27 C25 1_555 1_555
C26 C14 1_555 1_555
H28 C26 1_555 1_555
C27 C21 1_555 1_555
C28 C22 1_555 1_555
C29 C25 1_555 1_555
C30 C26 1_555 1_555
C31 C27 1_555 1_555
H29 C31 1_555 1_555
C32 C28 1_555 1_555
H30 C32 1_555 1_555
C33 C29 1_555 1_555
H31 C33 1_555 1_555
C34 C30 1_555 1_555
H32 C34 1_555 1_555
C35 C33 1_555 1_555
H33 C35 1_555 1_555
C36 C34 1_555 1_555
H34 C36 1_555 1_555
C37 C31 1_555 1_555
C38 C32 1_555 1_555
C39 O8 1_555 1_555
H35 C39 1_555 1_555
H36 C39 1_555 1_555
H37 C39 1_555 1_555
C40 O7 1_555 1_555
H38 C40 1_555 1_555
H39 C40 1_555 1_555
H40 C40 1_555 1_555
Cu1_2 O4 1_555 1_555
Cu1_3 O3 1_555 1_555
O3_2 Cu1 1_555 1_555
H1_2 O3_2 1_555 1_555
O4_2 Cu1 1_555 1_555
H2_2 O4_2 1_555 1_555
C8 C24 1_555 1_555
C15 C19 1_555 1_555
C15 C23 1_555 1_555
C16 C20 1_555 1_555
C27 C29 1_555 1_555
C28 C30 1_555 1_555
C35 C37 1_555 1_555
C36 C38 1_555 1_555

#END
