
#######################################################################
#
#                 Cambridge Crystallographic Data Centre
#                                CCDC 
#
#######################################################################
#
# If this CIF has been generated from an entry in the Cambridge 
# Structural Database, then it will include bibliographic, chemical, 
# crystal, experimental, refinement or atomic coordinate data resulting 
# from the CCDC's data processing and validation procedures.
#
#######################################################################

data_EZUBUX
_symmetry_cell_setting           monoclinic
_symmetry_space_group_name_H-M   'P 21/n'
_symmetry_Int_Tables_number      14
_space_group_name_Hall           '-P 2yn'
loop_
_symmetry_equiv_pos_site_id
_symmetry_equiv_pos_as_xyz
1 x,y,z
2 1/2-x,1/2+y,1/2-z
3 -x,-y,-z
4 1/2+x,1/2-y,1/2+z
_cell_length_a                   10.7438(7)
_cell_length_b                   14.3440(7)
_cell_length_c                   13.8748(6)
_cell_angle_alpha                90
_cell_angle_beta                 98.959(5)
_cell_angle_gamma                90
_cell_volume                     2112.15
loop_
_atom_site_label
_atom_site_type_symbol
_atom_site_fract_x
_atom_site_fract_y
_atom_site_fract_z
Cu1 Cu -0.17654(5) 0.39638(3) 0.65911(3)
Cl1 Cl 0.03123(10) 0.38437(8) 0.72535(7)
Cl2 Cl -0.37341(11) 0.43879(8) 0.59741(7)
O1 O -0.1267(2) 0.39428(18) 0.52911(15)
O2 O -0.1846(3) 0.24761(17) 0.53548(17)
O3 O 0.2700(2) 0.12492(17) -0.71612(16)
O4 O 0.2800(3) -0.02819(18) -0.69456(17)
N1 N -0.0540(3) 0.2727(2) 0.0991(2)
N2 N -0.0724(3) 0.2270(2) -0.0513(2)
N3 N -0.0207(3) 0.14256(19) -0.1896(2)
N4 N 0.0800(3) 0.1009(2) -0.30523(18)
C1 C -0.1475(4) 0.3125(3) 0.4931(3)
C2 C -0.1181(4) 0.3021(2) 0.3895(3)
C3 C -0.1780(4) 0.2336(2) 0.3304(3)
H3 H -0.2341 0.1938 0.3547
C4 C -0.1561(4) 0.2230(2) 0.2353(3)
H4 H -0.1982 0.1769 0.1958
C5 C -0.0725(4) 0.2804(2) 0.1997(3)
C6 C -0.0127(4) 0.3496(3) 0.2565(3)
H5 H 0.0422 0.3897 0.2314
C7 C -0.0345(4) 0.3598(2) 0.3522(3)
H6 H 0.0077 0.4060 0.3915
C8 C 0.0136(4) 0.3339(3) 0.0497(3)
H7 H 0.0591 0.3854 0.0764
C9 C 0.0014(4) 0.3058(3) -0.0429(3)
H8 H 0.0365 0.3342 -0.0926
C10 C -0.1045(4) 0.2078(3) 0.0360(3)
H9 H -0.1537 0.1578 0.0502
C11 C -0.1235(4) 0.1773(3) -0.1415(3)
H10 H -0.1764 0.2190 -0.1851
H11 H -0.1750 0.1254 -0.1262
C12 C 0.0774(4) 0.0881(3) -0.1481(3)
H12 H 0.0966 0.0718 -0.0827
C13 C 0.1410(4) 0.0625(2) -0.2204(3)
H13 H 0.2131 0.0256 -0.2138
C14 C -0.0176(4) 0.1495(2) -0.2848(2)
H14 H -0.0742 0.1828 -0.3295
C15 C 0.1999(4) -0.0086(3) -0.5108(3)
H15 H 0.2269 -0.0672 -0.5275
C16 C 0.1587(4) 0.0042(2) -0.4228(3)
H16 H 0.1588 -0.0455 -0.3797
C17 C 0.1181(3) 0.0888(2) -0.3990(2)
C18 C 0.1152(3) 0.1629(3) -0.4616(3)
H17 H 0.0865 0.2208 -0.4444
C19 C 0.1558(3) 0.1506(2) -0.5512(3)
H18 H 0.1518 0.2000 -0.5950
C20 C 0.2014(3) 0.0660(3) -0.5753(2)
C21 C 0.2544(4) 0.0496(3) -0.6700(2)
Cu1C Cu 0.32346(5) 0.10362(3) -0.84089(3)
O3C O -0.2300(2) 0.37508(17) 0.78388(16)
O5 O -0.1871(3) 0.57190(16) 0.4473(2)
H1 H -0.1657 0.5071 0.4632
H2 H -0.1098 0.5726 0.4201
loop_
_geom_bond_atom_site_label_1
_geom_bond_atom_site_label_2
_geom_bond_site_symmetry_1
_geom_bond_site_symmetry_2
Cu1 Cl1 1_555 1_555
Cl2 Cu1 1_555 1_555
O1 Cu1 1_555 1_555
O2 C1 1_555 1_555
O3 C21 1_555 1_555
O4 C21 1_555 1_555
O5 H1 1_555 1_555
H2 O5 1_555 1_555
N1 C5 1_555 1_555
N2 C9 1_555 1_555
N3 C11 1_555 1_555
N4 C13 1_555 1_555
C1 O1 1_555 1_555
C2 C1 1_555 1_555
C3 C2 1_555 1_555
H3 C3 1_555 1_555
C4 C3 1_555 1_555
H4 C4 1_555 1_555
C5 C4 1_555 1_555
C6 C5 1_555 1_555
H5 C6 1_555 1_555
C7 C2 1_555 1_555
H6 C7 1_555 1_555
C8 N1 1_555 1_555
H7 C8 1_555 1_555
C9 C8 1_555 1_555
H8 C9 1_555 1_555
C10 N1 1_555 1_555
H9 C10 1_555 1_555
C11 N2 1_555 1_555
H10 C11 1_555 1_555
H11 C11 1_555 1_555
C12 N3 1_555 1_555
H12 C12 1_555 1_555
C13 C12 1_555 1_555
H13 C13 1_555 1_555
C14 N3 1_555 1_555
H14 C14 1_555 1_555
C15 H15 1_555 1_555
C16 C15 1_555 1_555
H16 C16 1_555 1_555
C17 N4 1_555 1_555
C18 C17 1_555 1_555
H17 C18 1_555 1_555
C19 C18 1_555 1_555
H18 C19 1_555 1_555
C20 C15 1_555 1_555
C21 C20 1_555 1_555
Cu1C O3 1_555 1_555
O3C Cu1 1_555 1_555
N2 C10 1_555 1_555
N4 C14 1_555 1_555
C6 C7 1_555 1_555
C16 C17 1_555 1_555
C19 C20 1_555 1_555

#END
