
#######################################################################
#
#                 Cambridge Crystallographic Data Centre
#                                CCDC 
#
#######################################################################
#
# If this CIF has been generated from an entry in the Cambridge 
# Structural Database, then it will include bibliographic, chemical, 
# crystal, experimental, refinement or atomic coordinate data resulting 
# from the CCDC's data processing and validation procedures.
#
#######################################################################

data_EZUPEV
_symmetry_cell_setting           monoclinic
_symmetry_space_group_name_H-M   'C 2/c'
_symmetry_Int_Tables_number      15
_space_group_name_Hall           '-C 2yn'
loop_
_symmetry_equiv_pos_site_id
_symmetry_equiv_pos_as_xyz
1 x,y,z
2 -x,y,1/2-z
3 1/2+x,1/2+y,z
4 1/2-x,1/2+y,1/2-z
5 -x,-y,-z
6 x,-y,1/2+z
7 1/2-x,1/2-y,-z
8 1/2+x,1/2-y,1/2+z
_cell_length_a                   19.4543(9)
_cell_length_b                   10.1426(3)
_cell_length_c                   22.8662(12)
_cell_angle_alpha                90
_cell_angle_beta                 92.539(4)
_cell_angle_gamma                90
_cell_volume                     4507.46
loop_
_atom_site_label
_atom_site_type_symbol
_atom_site_fract_x
_atom_site_fract_y
_atom_site_fract_z
Mn1 Mn 0.25000 0.25000 0.50000
Cl1 Cl 0.4024(13) 0.472(3) 0.1306(11)
Cl2 Cl -0.2006(15) 0.346(2) 0.3418(11)
N1 N 0.132(3) -0.337(7) 0.421(2)
N2 N 0.241(4) 0.041(6) 0.477(3)
N3 N 0.201(4) 0.302(5) 0.422(3)
N4 N 0.163(3) 0.232(5) 0.539(3)
C1 C 0.172(4) -0.275(7) 0.446(4)
C2 C 0.229(6) -0.217(8) 0.483(4)
C3 C 0.231(6) -0.070(7) 0.476(4)
C4 C 0.232(5) 0.332(7) 0.368(4)
C5 C 0.178(6) 0.364(8) 0.321(3)
C6 C 0.113(4) 0.354(9) 0.348(4)
C7 C 0.128(5) 0.315(7) 0.410(4)
C8 C 0.083(5) 0.294(7) 0.454(4)
C9 C 0.095(5) 0.249(9) 0.513(4)
C10 C 0.042(4) 0.227(9) 0.558(4)
C11 C 0.079(4) 0.196(8) 0.612(4)
C12 C 0.346(5) 0.300(7) 0.401(4)
C13 C 0.292(5) 0.327(7) 0.361(4)
C14 C 0.319(4) 0.366(10) 0.307(4)
C15 C 0.346(4) 0.266(7) 0.275(4)
C16 C 0.373(4) 0.294(9) 0.221(4)
C17 C 0.373(4) 0.422(9) 0.201(3)
C18 C 0.346(5) 0.522(8) 0.233(4)
C19 C 0.319(4) 0.494(9) 0.287(4)
C20 C 0.009(4) 0.304(9) 0.432(4)
C21 C -0.015(5) 0.424(7) 0.412(4)
C22 C -0.082(6) 0.438(7) 0.392(4)
C23 C -0.126(3) 0.331(9) 0.390(3)
C24 C -0.102(5) 0.210(7) 0.410(4)
C25 C -0.035(5) 0.196(7) 0.431(3)
H1 H 0.19(3) 0.39(6) 0.28(2)
H2 H 0.06(3) 0.37(5) 0.33(2)
H3 H -0.01(3) 0.23(6) 0.55(3)
H4 H 0.06(3) 0.18(5) 0.65(2)
H5 H 0.35(3) 0.17(5) 0.29(3)
H6 H 0.39(3) 0.22(5) 0.20(2)
H7 H 0.35(3) 0.62(5) 0.22(2)
H8 H 0.30(3) 0.57(4) 0.31(2)
H9 H 0.02(3) 0.51(6) 0.41(2)
H10 H -0.10(3) 0.53(5) 0.38(3)
H11 H -0.14(3) 0.13(5) 0.41(2)
H12 H -0.02(3) 0.10(4) 0.45(2)
Mn1_2 Mn 0.25000 -0.75000 0.50000
Cl1F Cl 0.0976(13) 0.028(3) 0.8694(11)
Cl2F Cl 0.7006(15) 0.154(2) 0.6582(11)
N1F N 0.368(3) -0.163(7) 0.579(2)
N2F N 0.259(4) -0.541(6) 0.523(3)
N2F_2 N 0.259(4) 0.459(6) 0.523(3)
N3F N 0.299(4) 0.198(5) 0.578(3)
N4F N 0.337(3) 0.268(5) 0.461(3)
C1F C 0.328(4) -0.225(7) 0.554(4)
C2F C 0.271(6) -0.283(8) 0.517(4)
C3F C 0.269(6) -0.430(7) 0.524(4)
C4F C 0.268(5) 0.168(7) 0.632(4)
C5F C 0.322(6) 0.136(8) 0.679(3)
C6F C 0.387(4) 0.146(9) 0.652(4)
C7F C 0.372(5) 0.185(7) 0.590(4)
C8F C 0.417(5) 0.206(7) 0.546(4)
C9F C 0.405(5) 0.251(9) 0.487(4)
C10F C 0.458(4) 0.273(9) 0.442(4)
C11F C 0.421(4) 0.304(8) 0.388(4)
C12F C 0.154(5) 0.200(7) 0.599(4)
C13F C 0.208(5) 0.173(7) 0.639(4)
C14F C 0.181(4) 0.134(10) 0.693(4)
C15F C 0.154(4) 0.234(7) 0.725(4)
C16F C 0.127(4) 0.206(9) 0.779(4)
C17F C 0.127(4) 0.078(9) 0.799(3)
C18F C 0.154(5) -0.022(8) 0.767(4)
C19F C 0.181(4) 0.006(9) 0.713(4)
C20F C 0.491(4) 0.196(9) 0.568(4)
C21F C 0.515(5) 0.076(7) 0.588(4)
C22F C 0.582(6) 0.062(7) 0.608(4)
C23F C 0.626(3) 0.169(9) 0.610(3)
C24F C 0.602(5) 0.290(7) 0.590(4)
C25F C 0.535(5) 0.304(7) 0.569(3)
H1F H 0.31(3) 0.11(6) 0.72(2)
H2F H 0.44(3) 0.13(5) 0.67(2)
H3F H 0.51(3) 0.27(6) 0.45(3)
H4F H 0.44(3) 0.32(5) 0.35(2)
H5F H 0.15(3) 0.33(5) 0.71(3)
H6F H 0.11(3) 0.28(5) 0.80(2)
H7F H 0.15(3) -0.12(5) 0.78(2)
H8F H 0.20(3) -0.07(4) 0.69(2)
H9F H 0.48(3) -0.01(6) 0.59(2)
H10F H 0.60(3) -0.03(5) 0.62(3)
H11F H 0.64(3) 0.37(5) 0.59(2)
H12F H 0.52(3) 0.40(4) 0.55(2)
loop_
_geom_bond_atom_site_label_1
_geom_bond_atom_site_label_2
_geom_bond_site_symmetry_1
_geom_bond_site_symmetry_2
Mn1 N2 1_555 1_555
Cl1 C17 1_555 1_555
Cl2 C23 1_555 1_555
N1 C1 1_555 1_555
N2 C3 1_555 1_555
N3 Mn1 1_555 1_555
N4 Mn1 1_555 1_555
C1 C2 1_555 1_555
C2 C3 1_555 1_555
C4 N3 1_555 1_555
C5 C4 1_555 1_555
C6 C5 1_555 1_555
C7 N3 1_555 1_555
C8 C7 1_555 1_555
C9 N4 1_555 1_555
C10 C9 1_555 1_555
C11 C10 1_555 1_555
C12 C13 1_555 1_555
C13 C4 1_555 1_555
C14 C13 1_555 1_555
C15 C14 1_555 1_555
C16 C15 1_555 1_555
C17 C16 1_555 1_555
C18 C17 1_555 1_555
C19 C14 1_555 1_555
C20 C8 1_555 1_555
C21 C20 1_555 1_555
C22 C21 1_555 1_555
C23 C22 1_555 1_555
C24 C23 1_555 1_555
C25 C20 1_555 1_555
H1 C5 1_555 1_555
H2 C6 1_555 1_555
H3 C10 1_555 1_555
H4 C11 1_555 1_555
H5 C15 1_555 1_555
H6 C16 1_555 1_555
H7 C18 1_555 1_555
H8 C19 1_555 1_555
H9 C21 1_555 1_555
H10 C22 1_555 1_555
H11 C24 1_555 1_555
H12 C25 1_555 1_555
Mn1_2 N2F 1_555 1_555
Cl1F C17F 1_555 1_555
Cl2F C23F 1_555 1_555
N1F C1F 1_555 1_555
N2F C3F 1_555 1_555
N2F_2 Mn1 1_555 1_555
N3F Mn1 1_555 1_555
N4F Mn1 1_555 1_555
C1F C2F 1_555 1_555
C2F C2 1_555 1_555
C3F C2F 1_555 1_555
C4F N3F 1_555 1_555
C5F C4F 1_555 1_555
C6F C5F 1_555 1_555
C7F N3F 1_555 1_555
C8F C7F 1_555 1_555
C9F N4F 1_555 1_555
C10F C9F 1_555 1_555
C11F C12 1_555 1_555
C12F N4 1_555 1_555
C13F C4F 1_555 1_555
C14F C13F 1_555 1_555
C15F C14F 1_555 1_555
C16F C15F 1_555 1_555
C17F C16F 1_555 1_555
C18F C17F 1_555 1_555
C19F C14F 1_555 1_555
C20F C8F 1_555 1_555
C21F C20F 1_555 1_555
C22F C21F 1_555 1_555
C23F C22F 1_555 1_555
C24F C23F 1_555 1_555
C25F C20F 1_555 1_555
H1F C5F 1_555 1_555
H2F C6F 1_555 1_555
H3F C10F 1_555 1_555
H4F C11F 1_555 1_555
H5F C15F 1_555 1_555
H6F C16F 1_555 1_555
H7F C18F 1_555 1_555
H8F C19F 1_555 1_555
H9F C21F 1_555 1_555
H10F C22F 1_555 1_555
H11F C24F 1_555 1_555
H12F C25F 1_555 1_555
C6 C7 1_555 1_555
C8 C9 1_555 1_555
C11 C12F 1_555 1_555
C12 N4F 1_555 1_555
C18 C19 1_555 1_555
C24 C25 1_555 1_555
C6F C7F 1_555 1_555
C8F C9F 1_555 1_555
C10F C11F 1_555 1_555
C12F C13F 1_555 1_555
C18F C19F 1_555 1_555
C24F C25F 1_555 1_555

#END
