
#######################################################################
#
#                 Cambridge Crystallographic Data Centre
#                                CCDC 
#
#######################################################################
#
# If this CIF has been generated from an entry in the Cambridge 
# Structural Database, then it will include bibliographic, chemical, 
# crystal, experimental, refinement or atomic coordinate data resulting 
# from the CCDC's data processing and validation procedures.
#
#######################################################################

data_EZUPEV01
_symmetry_cell_setting           monoclinic
_symmetry_space_group_name_H-M   'P 21/n'
_symmetry_Int_Tables_number      14
_space_group_name_Hall           '-P 2yn'
loop_
_symmetry_equiv_pos_site_id
_symmetry_equiv_pos_as_xyz
1 x,y,z
2 1/2-x,1/2+y,1/2-z
3 -x,-y,-z
4 1/2+x,1/2-y,1/2+z
_cell_length_a                   9.51960(15)
_cell_length_b                   10.70910(19)
_cell_length_c                   22.2800(4)
_cell_angle_alpha                90
_cell_angle_beta                 92.8788(18)
_cell_angle_gamma                90
_cell_volume                     2268.5
loop_
_atom_site_label
_atom_site_type_symbol
_atom_site_fract_x
_atom_site_fract_y
_atom_site_fract_z
Mn1 Mn 0.00000 0.00000 0.00000
Cl1 Cl -0.3688(9) 0.7522(8) 0.1465(4)
Cl2 Cl 0.2522(12) -0.1699(7) 0.4026(4)
N1 N 0.534(3) 0.049(2) 0.1338(12)
N2 N 0.207(2) 0.110(2) -0.0065(12)
N3 N -0.026(2) 0.083(2) 0.0778(12)
N4 N 0.104(3) -0.136(2) 0.0439(12)
C1 C 0.507(4) 0.035(3) 0.0811(12)
C2 C 0.462(4) 0.024(4) 0.0189(16)
C3 C 0.323(3) 0.069(3) 0.0022(17)
C4 C -0.094(3) 0.197(3) 0.0864(17)
C5 C -0.090(4) 0.224(2) 0.1495(16)
C6 C -0.019(4) 0.128(4) 0.1790(14)
C7 C 0.021(3) 0.040(3) 0.1346(16)
C8 C 0.101(4) -0.063(3) 0.1459(15)
C9 C 0.134(4) -0.144(3) 0.1062(17)
C10 C 0.210(4) -0.256(4) 0.1192(14)
C11 C 0.228(3) -0.317(2) 0.0654(19)
C12 C -0.162(4) 0.243(3) -0.0183(15)
C13 C -0.156(3) 0.276(3) 0.0405(14)
C14 C -0.205(4) 0.397(3) 0.0646(15)
C15 C -0.340(4) 0.403(3) 0.0828(17)
C16 C -0.390(3) 0.512(4) 0.1052(15)
C17 C -0.306(4) 0.616(3) 0.1094(13)
C18 C -0.171(4) 0.609(3) 0.0912(19)
C19 C -0.121(2) 0.500(5) 0.0688(14)
C20 C 0.146(4) -0.087(3) 0.2108(15)
C21 C 0.260(4) -0.033(3) 0.241(2)
C22 C 0.291(4) -0.062(3) 0.299(2)
C23 C 0.209(4) -0.145(3) 0.3286(13)
C24 C 0.096(4) -0.199(3) 0.2989(18)
C25 C 0.064(4) -0.170(4) 0.2400(17)
H1 H -0.13(2) 0.299(17) 0.168(10)
H2 H 0.00(3) 0.12(2) 0.223(9)
H3 H 0.25(2) -0.29(2) 0.159(9)
H4 H 0.28(2) -0.397(16) 0.060(12)
H5 H -0.40(2) 0.329(17) 0.080(10)
H6 H -0.487(17) 0.52(2) 0.118(11)
H7 H -0.11(2) 0.684(17) 0.094(11)
H8 H -0.02(2) 0.50(2) 0.056(9)
H9 H 0.32(2) 0.03(2) 0.219(11)
H10 H 0.37(2) -0.02(2) 0.321(12)
H11 H 0.04(3) -0.258(17) 0.320(10)
H12 H -0.02(2) -0.209(19) 0.219(10)
Mn1_2 Mn 1.00000 0.00000 0.00000
Cl1B Cl 0.3688(9) -0.7522(8) -0.1465(4)
Cl2B Cl -0.2522(12) 0.1699(7) -0.4026(4)
N1B N 0.466(3) -0.049(2) -0.1338(12)
N2B N 0.793(2) -0.110(2) 0.0065(12)
N2B_2 N -0.207(2) -0.110(2) 0.0065(12)
N3B N 0.026(2) -0.083(2) -0.0778(12)
N4B N -0.104(3) 0.136(2) -0.0439(12)
C1B C 0.493(4) -0.035(3) -0.0811(12)
C2B C 0.538(4) -0.024(4) -0.0189(16)
C3B C 0.677(3) -0.069(3) -0.0022(17)
C4B C 0.094(3) -0.197(3) -0.0864(17)
C5B C 0.090(4) -0.224(2) -0.1495(16)
C6B C 0.019(4) -0.128(4) -0.1790(14)
C7B C -0.021(3) -0.040(3) -0.1346(16)
C8B C -0.101(4) 0.063(3) -0.1459(15)
C9B C -0.134(4) 0.144(3) -0.1062(17)
C10B C -0.210(4) 0.256(4) -0.1192(14)
C11B C -0.228(3) 0.317(2) -0.0654(19)
C12B C 0.162(4) -0.243(3) 0.0183(15)
C13B C 0.156(3) -0.276(3) -0.0405(14)
C14B C 0.205(4) -0.397(3) -0.0646(15)
C15B C 0.340(4) -0.403(3) -0.0828(17)
C16B C 0.390(3) -0.512(4) -0.1052(15)
C17B C 0.306(4) -0.616(3) -0.1094(13)
C18B C 0.171(4) -0.609(3) -0.0912(19)
C19B C 0.121(2) -0.500(5) -0.0688(14)
C20B C -0.146(4) 0.087(3) -0.2108(15)
C21B C -0.260(4) 0.033(3) -0.241(2)
C22B C -0.291(4) 0.062(3) -0.299(2)
C23B C -0.209(4) 0.145(3) -0.3286(13)
C24B C -0.096(4) 0.199(3) -0.2989(18)
C25B C -0.064(4) 0.170(4) -0.2400(17)
H1B H 0.13(2) -0.299(17) -0.168(10)
H2B H 0.00(3) -0.12(2) -0.223(9)
H3B H -0.25(2) 0.29(2) -0.159(9)
H4B H -0.28(2) 0.397(16) -0.060(12)
H5B H 0.40(2) -0.329(17) -0.080(10)
H6B H 0.487(17) -0.52(2) -0.118(11)
H7B H 0.11(2) -0.684(17) -0.094(11)
H8B H 0.02(2) -0.50(2) -0.056(9)
H9B H -0.32(2) -0.03(2) -0.219(11)
H10B H -0.37(2) 0.02(2) -0.321(12)
H11B H -0.04(3) 0.258(17) -0.320(10)
H12B H 0.02(2) 0.209(19) -0.219(10)
loop_
_geom_bond_atom_site_label_1
_geom_bond_atom_site_label_2
_geom_bond_site_symmetry_1
_geom_bond_site_symmetry_2
Mn1 N2 1_555 1_555
Cl1 C17 1_555 1_555
Cl2 C23 1_555 1_555
N1 C1 1_555 1_555
N2 C3 1_555 1_555
N3 Mn1 1_555 1_555
N4 Mn1 1_555 1_555
C1 C2 1_555 1_555
C2 C3 1_555 1_555
C4 N3 1_555 1_555
C5 C4 1_555 1_555
C6 C5 1_555 1_555
C7 N3 1_555 1_555
C8 C7 1_555 1_555
C9 N4 1_555 1_555
C10 C9 1_555 1_555
C11 C10 1_555 1_555
C12 C13 1_555 1_555
C13 C4 1_555 1_555
C14 C13 1_555 1_555
C15 C14 1_555 1_555
C16 C15 1_555 1_555
C17 C16 1_555 1_555
C18 C17 1_555 1_555
C19 C14 1_555 1_555
C20 C8 1_555 1_555
C21 C20 1_555 1_555
C22 C21 1_555 1_555
C23 C22 1_555 1_555
C24 C23 1_555 1_555
C25 C20 1_555 1_555
H1 C5 1_555 1_555
H2 C6 1_555 1_555
H3 C10 1_555 1_555
H4 C11 1_555 1_555
H5 C15 1_555 1_555
H6 C16 1_555 1_555
H7 C18 1_555 1_555
H8 C19 1_555 1_555
H9 C21 1_555 1_555
H10 C22 1_555 1_555
H11 C24 1_555 1_555
H12 C25 1_555 1_555
Mn1_2 N2B 1_555 1_555
Cl1B C17B 1_555 1_555
Cl2B C23B 1_555 1_555
N1B C1B 1_555 1_555
N2B C3B 1_555 1_555
N2B_2 Mn1 1_555 1_555
N3B Mn1 1_555 1_555
N4B Mn1 1_555 1_555
C1B C2B 1_555 1_555
C2B C2 1_555 1_555
C3B C2B 1_555 1_555
C4B N3B 1_555 1_555
C5B C4B 1_555 1_555
C6B C5B 1_555 1_555
C7B N3B 1_555 1_555
C8B C7B 1_555 1_555
C9B N4B 1_555 1_555
C10B C9B 1_555 1_555
C11B C12 1_555 1_555
C12B N4 1_555 1_555
C13B C4B 1_555 1_555
C14B C13B 1_555 1_555
C15B C14B 1_555 1_555
C16B C15B 1_555 1_555
C17B C16B 1_555 1_555
C18B C17B 1_555 1_555
C19B C14B 1_555 1_555
C20B C8B 1_555 1_555
C21B C20B 1_555 1_555
C22B C21B 1_555 1_555
C23B C22B 1_555 1_555
C24B C23B 1_555 1_555
C25B C20B 1_555 1_555
H1B C5B 1_555 1_555
H2B C6B 1_555 1_555
H3B C10B 1_555 1_555
H4B C11B 1_555 1_555
H5B C15B 1_555 1_555
H6B C16B 1_555 1_555
H7B C18B 1_555 1_555
H8B C19B 1_555 1_555
H9B C21B 1_555 1_555
H10B C22B 1_555 1_555
H11B C24B 1_555 1_555
H12B C25B 1_555 1_555
C6 C7 1_555 1_555
C8 C9 1_555 1_555
C11 C12B 1_555 1_555
C12 N4B 1_555 1_555
C18 C19 1_555 1_555
C24 C25 1_555 1_555
C6B C7B 1_555 1_555
C8B C9B 1_555 1_555
C10B C11B 1_555 1_555
C12B C13B 1_555 1_555
C18B C19B 1_555 1_555
C24B C25B 1_555 1_555

#END
