
#######################################################################
#
#                 Cambridge Crystallographic Data Centre
#                                CCDC 
#
#######################################################################
#
# If this CIF has been generated from an entry in the Cambridge 
# Structural Database, then it will include bibliographic, chemical, 
# crystal, experimental, refinement or atomic coordinate data resulting 
# from the CCDC's data processing and validation procedures.
#
#######################################################################

data_FABJID
_symmetry_cell_setting           monoclinic
_symmetry_space_group_name_H-M   'P n'
_symmetry_Int_Tables_number      7
_space_group_name_Hall           'P -2yac'
loop_
_symmetry_equiv_pos_site_id
_symmetry_equiv_pos_as_xyz
1 x,y,z
2 1/2+x,-y,1/2+z
_cell_length_a                   3.6827(7)
_cell_length_b                   9.9775(17)
_cell_length_c                   17.214(3)
_cell_angle_alpha                90
_cell_angle_beta                 93.909(3)
_cell_angle_gamma                90
_cell_volume                     631.042
loop_
_atom_site_label
_atom_site_type_symbol
_atom_site_fract_x
_atom_site_fract_y
_atom_site_fract_z
Cu1 Cu -0.12629(16) 1.03106(7) 0.27743(5)
O1 O -0.575(2) 0.4997(5) 0.1918(3)
O2 O -0.3892(19) 0.3702(5) 0.2921(3)
H1 H -0.4229 0.3096 0.2602
O3 O 0.3582(16) 1.4093(5) 0.5072(3)
O4 O 0.6136(15) 1.2931(5) 0.6081(3)
H2 H 0.5221 1.3412 0.6401
N1 N -0.1565(14) 0.8353(5) 0.3159(3)
N2 N 0.0396(14) 1.0567(5) 0.3937(3)
C1 C -0.2829(17) 0.7288(6) 0.2743(4)
H3 H -0.3666 0.7415 0.2226
C2 C -0.2931(18) 0.5991(6) 0.3059(4)
C3 C -0.1750(19) 0.5830(6) 0.3840(4)
H4 H -0.1765 0.4986 0.4069
C4 C -0.056(2) 0.6928(6) 0.4270(4)
H5 H 0.0167 0.6830 0.4795
C5 C -0.0442(15) 0.8176(6) 0.3924(3)
C6 C 0.0857(16) 0.9384(6) 0.4343(3)
C7 C 0.2344(18) 0.9371(6) 0.5099(4)
H6 H 0.2543 0.8563 0.5368
C8 C 0.3530(18) 1.0522(6) 0.5460(4)
H7 H 0.4568 1.0511 0.5967
C9 C 0.3139(16) 1.1709(6) 0.5045(3)
C10 C 0.1523(16) 1.1707(6) 0.4307(3)
H8 H 0.1183 1.2520 0.4048
C11 C -0.4313(19) 0.4869(6) 0.2566(4)
C12 C 0.4306(18) 1.3048(6) 0.5405(4)
Cl1 Cl 0.3650(4) 1.11180(15) 0.20865(9)
Cu1_2 Cu 0.87371(16) 1.03106(7) 0.27743(5)
Cl1_2 Cl -0.6350(4) 1.11180(15) 0.20865(9)
loop_
_geom_bond_atom_site_label_1
_geom_bond_atom_site_label_2
_geom_bond_site_symmetry_1
_geom_bond_site_symmetry_2
Cu1 N1 1_555 1_555
O1 C11 1_555 1_555
O2 H1 1_555 1_555
O3 C12 1_555 1_555
O4 H2 1_555 1_555
N1 C1 1_555 1_555
N2 Cu1 1_555 1_555
C1 H3 1_555 1_555
C2 C1 1_555 1_555
C3 C2 1_555 1_555
H4 C3 1_555 1_555
C4 C3 1_555 1_555
H5 C4 1_555 1_555
C5 N1 1_555 1_555
C6 N2 1_555 1_555
C7 C6 1_555 1_555
H6 C7 1_555 1_555
C8 C7 1_555 1_555
H7 C8 1_555 1_555
C9 C8 1_555 1_555
C10 N2 1_555 1_555
H8 C10 1_555 1_555
C11 O2 1_555 1_555
C12 O4 1_555 1_555
Cl1 Cu1 1_555 1_555
Cu1_2 Cl1 1_555 1_555
Cl1_2 Cu1 1_555 1_555
C2 C11 1_555 1_555
C4 C5 1_555 1_555
C5 C6 1_555 1_555
C9 C10 1_555 1_555
C9 C12 1_555 1_555

#END
