
#######################################################################
#
#                 Cambridge Crystallographic Data Centre
#                                CCDC 
#
#######################################################################
#
# If this CIF has been generated from an entry in the Cambridge 
# Structural Database, then it will include bibliographic, chemical, 
# crystal, experimental, refinement or atomic coordinate data resulting 
# from the CCDC's data processing and validation procedures.
#
#######################################################################

data_FABTUZ
_symmetry_cell_setting           monoclinic
_symmetry_space_group_name_H-M   'P 2/n'
_symmetry_Int_Tables_number      13
_space_group_name_Hall           '-P 2yac'
loop_
_symmetry_equiv_pos_site_id
_symmetry_equiv_pos_as_xyz
1 x,y,z
2 1/2-x,y,1/2-z
3 -x,-y,-z
4 1/2+x,-y,1/2+z
_cell_length_a                   11.5769(14)
_cell_length_b                   9.9113(12)
_cell_length_c                   12.2931(15)
_cell_angle_alpha                90
_cell_angle_beta                 111.0480(10)
_cell_angle_gamma                90
_cell_volume                     1316.43
loop_
_atom_site_label
_atom_site_type_symbol
_atom_site_fract_x
_atom_site_fract_y
_atom_site_fract_z
Cd1 Cd 0.094113(18) 0.47923(2) 0.163596(18)
O1 O -0.05629(19) 0.3736(2) -0.00100(17)
O2 O -0.1805(2) 0.1958(3) -0.0625(2)
O3 O 0.22739(18) 0.4074(2) 0.36737(17)
O4 O 0.2802(2) 0.2354(2) 0.49409(19)
N1 N 0.0630(2) 0.2538(2) 0.2052(2)
N2 N -0.0576(2) 0.5872(3) 0.2038(2)
H1 H -0.0222 0.6375 0.2683
H2 H -0.0953 0.6442 0.1448
C1 C -0.0173(3) 0.1798(3) 0.1204(3)
C2 C -0.0299(3) 0.0417(3) 0.1309(3)
H3 H -0.0869 -0.0078 0.0714
C3 C 0.0452(4) -0.0201(3) 0.2331(3)
H4 H 0.0405 -0.1129 0.2419
C4 C 0.1269(3) 0.0557(3) 0.3219(3)
H5 H 0.1768 0.0154 0.3912
C5 C 0.1326(3) 0.1940(3) 0.3049(2)
C6 C -0.0913(3) 0.2553(3) 0.0097(3)
C7 C 0.2207(3) 0.2848(3) 0.3981(3)
C8 C -0.1536(3) 0.5013(3) 0.2224(4)
H6 H -0.1143 0.4395 0.2862
H7 H -0.1941 0.4481 0.1529
C9 C -0.2500 0.5837(5) 0.2500
H8 H -0.2917 0.6415 0.1838
O5 O 0.2500 0.6500(3) 0.2500
H9 H 0.2413 0.7043 0.1965
Cd1A Cd 0.405887(18) 0.47923(2) 0.336404(18)
Cd1B Cd -0.094113(18) 0.52077(2) -0.163596(18)
Cd1A_2 Cd -0.594113(18) 0.47923(2) 0.336404(18)
Cd1C Cd 0.594113(18) 0.52077(2) 0.663596(18)
O1A O 0.55629(19) 0.3736(2) 0.50100(17)
O1B O 0.05629(19) 0.6264(2) 0.00100(17)
O1C O 0.44371(19) 0.6264(2) 0.49900(17)
O2A O 0.6805(2) 0.1958(3) 0.5625(2)
O3A O 0.27261(18) 0.4074(2) 0.13263(17)
O4A O 0.2198(2) 0.2354(2) 0.00591(19)
N1A N 0.4370(2) 0.2538(2) 0.2948(2)
N2A N -0.4424(2) 0.5872(3) 0.2962(2)
N2A_2 N 0.5576(2) 0.5872(3) 0.2962(2)
H1A H -0.4778 0.6375 0.2317
H1A_2 H 0.5222 0.6375 0.2317
H2A H -0.4047 0.6442 0.3552
H2A_2 H 0.5953 0.6442 0.3552
C1A C 0.5173(3) 0.1798(3) 0.3796(3)
C2A C 0.5299(3) 0.0417(3) 0.3691(3)
H3A H 0.5869 -0.0078 0.4286
C3A C 0.4548(4) -0.0201(3) 0.2669(3)
H4A H 0.4595 -0.1129 0.2581
C4A C 0.3731(3) 0.0557(3) 0.1781(3)
H5A H 0.3232 0.0154 0.1088
C5A C 0.3674(3) 0.1940(3) 0.1951(2)
C6A C 0.5913(3) 0.2553(3) 0.4903(3)
C7A C 0.2793(3) 0.2848(3) 0.1019(3)
C8A C -0.3464(3) 0.5013(3) 0.2776(4)
H6A H -0.3857 0.4395 0.2138
H7A H -0.3059 0.4481 0.3471
H8A H -0.2083 0.6415 0.3162
H9A H 0.2587 0.7043 0.3035
O6 O 0.4166(4) 0.5809(5) 0.0316(3)
H10 H 0.3748 0.5310 0.0601
H11 H 0.4679 0.5346 0.0155
O7 O 0.8266(4) 0.9237(4) 0.3724(3)
H12 H 0.7900 0.8865 0.4114
H13 H 0.7829 0.9234 0.3000
O8 O 0.4383(8) 0.8292(8) 0.9855(8)
H14 H 0.4678 0.7880 1.0507
H15 H 0.4116 0.9072 0.9599
H16? H 0.3568 0.7618 0.9276
H17? H 0.3007 0.8811 0.8369
O9? O 0.3274(14) 0.8030(14) 0.8625(16)
loop_
_geom_bond_atom_site_label_1
_geom_bond_atom_site_label_2
_geom_bond_site_symmetry_1
_geom_bond_site_symmetry_2
Cd1 O1 1_555 1_555
O1 C6 1_555 1_555
O2 C6 1_555 1_555
O3 Cd1 1_555 1_555
O4 C7 1_555 1_555
N1 Cd1 1_555 1_555
N2 Cd1 1_555 1_555
H1 N2 1_555 1_555
H2 N2 1_555 1_555
C1 N1 1_555 1_555
C2 C1 1_555 1_555
H3 C2 1_555 1_555
C3 C2 1_555 1_555
H4 C3 1_555 1_555
C4 C3 1_555 1_555
H5 C4 1_555 1_555
C5 N1 1_555 1_555
C6 C1 1_555 1_555
C7 O3 1_555 1_555
C8 N2 1_555 1_555
H6 C8 1_555 1_555
H7 C8 1_555 1_555
C9 C8 1_555 1_555
H8 C9 1_555 1_555
O5 Cd1 1_555 1_555
H9 O5 1_555 1_555
O6 H10 1_555 1_555
H11 O6 1_555 1_555
O7 H12 1_555 1_555
H13 O7 1_555 1_555
O8 H14 1_555 1_555
H15 O8 1_555 1_555
Cd1A O3 1_555 1_555
Cd1B O1 1_555 1_555
Cd1A_2 N2A 1_555 1_555
Cd1C O1A 1_555 1_555
O1A Cd1A 1_555 1_555
O1B Cd1 1_555 1_555
O1C Cd1A 1_555 1_555
O2A C6A 1_555 1_555
O3A Cd1 1_555 1_555
O4A C7A 1_555 1_555
N1A Cd1A 1_555 1_555
N2A H1A 1_555 1_555
N2A_2 Cd1A 1_555 1_555
H1A_2 N2A_2 1_555 1_555
H2A N2A 1_555 1_555
H2A_2 N2A_2 1_555 1_555
C1A N1A 1_555 1_555
C2A C1A 1_555 1_555
H3A C2A 1_555 1_555
C3A C2A 1_555 1_555
H4A C3A 1_555 1_555
C4A C3A 1_555 1_555
H5A C4A 1_555 1_555
C5A N1A 1_555 1_555
C6A O1A 1_555 1_555
C7A O3A 1_555 1_555
C8A C9 1_555 1_555
H6A C8A 1_555 1_555
H7A C8A 1_555 1_555
H8A C9 1_555 1_555
H9A O5 1_555 1_555
C4 C5 1_555 1_555
C5 C7 1_555 1_555
O5 Cd1A 1_555 1_555
Cd1A O3A 1_555 1_555
Cd1B O1B 1_555 1_555
Cd1C O1C 1_555 1_555
N2A C8A 1_555 1_555
C1A C6A 1_555 1_555
C4A C5A 1_555 1_555
C5A C7A 1_555 1_555

#END
