
#######################################################################
#
#                 Cambridge Crystallographic Data Centre
#                                CCDC 
#
#######################################################################
#
# If this CIF has been generated from an entry in the Cambridge 
# Structural Database, then it will include bibliographic, chemical, 
# crystal, experimental, refinement or atomic coordinate data resulting 
# from the CCDC's data processing and validation procedures.
#
#######################################################################

data_FABVEL
_symmetry_cell_setting           triclinic
_symmetry_space_group_name_H-M   'P -1'
_symmetry_Int_Tables_number      2
_space_group_name_Hall           '-P 1'
loop_
_symmetry_equiv_pos_site_id
_symmetry_equiv_pos_as_xyz
1 x,y,z
2 -x,-y,-z
_cell_length_a                   9.5757(6)
_cell_length_b                   10.6964(7)
_cell_length_c                   13.2466(8)
_cell_angle_alpha                93.6520(10)
_cell_angle_beta                 107.9730(10)
_cell_angle_gamma                104.6670(10)
_cell_volume                     1233.61
loop_
_atom_site_label
_atom_site_type_symbol
_atom_site_fract_x
_atom_site_fract_y
_atom_site_fract_z
C1 C 0.5951(5) 0.6271(4) 0.8181(4)
H1 H 0.5187 0.6376 0.8445
C2 C 0.6916(6) 0.7387(5) 0.7982(4)
H2 H 0.6791 0.8209 0.8117
C3 C 0.8028(5) 0.7249(4) 0.7590(4)
H3 H 0.8673 0.7976 0.7453
C4 C 0.8200(5) 0.5995(4) 0.7393(3)
C5 C 0.7200(5) 0.4919(4) 0.7628(3)
C6 C 0.7388(5) 0.3610(4) 0.7484(3)
C7 C 0.8558(5) 0.3395(4) 0.7124(3)
C8 C 0.8674(5) 0.2111(4) 0.7011(4)
H4 H 0.9419 0.1929 0.6761
C9 C 0.7684(6) 0.1140(5) 0.7274(5)
H5 H 0.7754 0.0289 0.7216
C10 C 0.6555(6) 0.1440(5) 0.7633(4)
H6 H 0.5881 0.0767 0.7806
C11 C 0.9545(5) 0.4511(4) 0.6904(3)
C12 C 0.9371(5) 0.5738(4) 0.7028(3)
C13 C 1.2575(5) 0.6526(4) 0.6110(3)
C14 C 1.3272(5) 0.5786(4) 0.5624(4)
H7 H 1.3003 0.4882 0.5592
C15 C 1.4366(6) 0.6396(5) 0.5188(4)
H8 H 1.4808 0.5908 0.4841
C16 C 1.4778(5) 0.7730(5) 0.5280(4)
C17 C 1.4134(6) 0.8491(5) 0.5746(4)
H9 H 1.4422 0.9395 0.5778
C18 C 1.3024(6) 0.7871(5) 0.6175(4)
H10 H 1.2581 0.8373 0.6509
C19 C 1.1307(5) 0.5936(4) 0.6491(3)
C20 C 0.2384(5) 0.1646(4) 0.6865(3)
C21 C 0.1137(5) 0.0805(4) 0.5898(3)
C22 C 0.0789(5) 0.1250(4) 0.4910(3)
H11 H 0.1309 0.2088 0.4850
C23 C -0.0329(5) 0.0444(4) 0.4020(3)
H12 H -0.0546 0.0737 0.3358
C24 C 0.2161(5) 0.4075(5) 0.9254(3)
C25 C -0.0083(5) 0.3680(4) 0.9927(3)
H13 H -0.0139 0.2796 0.9877
C26 C 0.1036(5) 0.4554(4) 0.9634(3)
C27 C 0.1100(5) 0.5874(4) 0.9711(3)
H14 H 0.1836 0.6459 0.9517
N1 N 0.6404(4) 0.2636(3) 0.7737(3)
N2 N 0.6080(4) 0.5073(3) 0.8010(3)
N3 N 1.0481(4) 0.6638(3) 0.6777(3)
N4 N 1.0792(4) 0.4638(3) 0.6562(3)
H15 H 1.1169 0.4026 0.6422
O1 O 0.2737(3) 0.2883(3) 0.6935(2)
O2 O 0.3060(4) 0.1084(3) 0.7602(2)
O3 O 0.4828(9) 0.1445(7) 1.0311(6)
O4 O 0.3279(4) 0.4917(3) 0.9142(3)
O5 O 0.1982(4) 0.2867(3) 0.9077(3)
F1 F 1.5845(4) 0.8316(3) 0.4850(3)
Pb1 Pb 0.465313(16) 0.322577(14) 0.882039(11)
C1A C -0.5951(5) -0.6271(4) 0.1819(4)
H1A H -0.5187 -0.6376 0.1555
C2A C -0.6916(6) -0.7387(5) 0.2018(4)
H2A H -0.6791 -0.8209 0.1883
C3A C -0.8028(5) -0.7249(4) 0.2410(4)
H3A H -0.8673 -0.7976 0.2547
C4A C -0.8200(5) -0.5995(4) 0.2607(3)
C5A C -0.7200(5) -0.4919(4) 0.2372(3)
C6A C -0.7388(5) -0.3610(4) 0.2516(3)
C7A C -0.8558(5) -0.3395(4) 0.2876(3)
C8A C -0.8674(5) -0.2111(4) 0.2989(4)
H4A H -0.9419 -0.1929 0.3239
C9A C -0.7684(6) -0.1140(5) 0.2726(5)
H5A H -0.7754 -0.0289 0.2784
C10A C -0.6555(6) -0.1440(5) 0.2367(4)
H6A H -0.5881 -0.0767 0.2194
C11A C -0.9545(5) -0.4511(4) 0.3096(3)
C12A C -0.9371(5) -0.5738(4) 0.2972(3)
C13A C -1.2575(5) -0.6526(4) 0.3890(3)
C14A C -1.3272(5) -0.5786(4) 0.4376(4)
H7A H -1.3003 -0.4882 0.4408
C15A C -1.4366(6) -0.6396(5) 0.4812(4)
H8A H -1.4808 -0.5908 0.5159
C16A C -1.4778(5) -0.7730(5) 0.4720(4)
C17A C -1.4134(6) -0.8491(5) 0.4254(4)
H9A H -1.4422 -0.9395 0.4222
C18A C -1.3024(6) -0.7871(5) 0.3825(4)
H10A H -1.2581 -0.8373 0.3491
C19A C -1.1307(5) -0.5936(4) 0.3509(3)
C20A C -0.2384(5) -0.1646(4) 0.3135(3)
C21A C -0.1137(5) -0.0805(4) 0.4102(3)
C22A C -0.0789(5) -0.1250(4) 0.5090(3)
H11A H -0.1309 -0.2088 0.5150
C23A C 0.0329(5) -0.0444(4) 0.5980(3)
H12A H 0.0546 -0.0737 0.6642
C24A C -0.2161(5) 0.5925(5) 1.0746(3)
C25A C 0.0083(5) 0.6320(4) 1.0073(3)
H13A H 0.0139 0.7204 1.0123
C26A C -0.1036(5) 0.5446(4) 1.0366(3)
C27A C -0.1100(5) 0.4126(4) 1.0289(3)
H14A H -0.1836 0.3541 1.0483
N1A N -0.6404(4) -0.2636(3) 0.2263(3)
N2A N -0.6080(4) -0.5073(3) 0.1990(3)
N3A N -1.0481(4) -0.6638(3) 0.3223(3)
N4A N -1.0792(4) -0.4638(3) 0.3438(3)
H15A H -1.1169 -0.4026 0.3578
O1A O -0.2737(3) -0.2883(3) 0.3065(2)
O2A O -0.3060(4) -0.1084(3) 0.2398(2)
O3A O -0.4828(9) -0.1445(7) -0.0311(6)
O4A O -0.3279(4) 0.5083(3) 1.0858(3)
O4A_2 O -0.3279(4) -0.4917(3) 0.0858(3)
O5A O -0.1982(4) 0.7133(3) 1.0923(3)
O5A_2 O -0.1982(4) -0.2867(3) 0.0923(3)
F1A F -1.5845(4) -0.8316(3) 0.5150(3)
Pb1A Pb -0.465313(16) -0.322577(14) 0.117961(11)
Pb1A_2 Pb -0.465313(16) 0.677423(14) 1.117961(11)
O6 O 0.0616(11) 0.0257(6) 0.9199(8)
O7 O 0.2405(7) -0.1132(6) 0.8638(6)
loop_
_geom_bond_atom_site_label_1
_geom_bond_atom_site_label_2
_geom_bond_site_symmetry_1
_geom_bond_site_symmetry_2
C1 H1 1_555 1_555
C2 C1 1_555 1_555
H2 C2 1_555 1_555
C3 C2 1_555 1_555
H3 C3 1_555 1_555
C4 C3 1_555 1_555
C5 C4 1_555 1_555
C6 C5 1_555 1_555
C7 C6 1_555 1_555
C8 C7 1_555 1_555
H4 C8 1_555 1_555
C9 C8 1_555 1_555
H5 C9 1_555 1_555
C10 C9 1_555 1_555
H6 C10 1_555 1_555
C11 C7 1_555 1_555
C12 C4 1_555 1_555
C13 C14 1_555 1_555
C14 H7 1_555 1_555
C15 C14 1_555 1_555
H8 C15 1_555 1_555
C16 C15 1_555 1_555
C17 C16 1_555 1_555
H9 C17 1_555 1_555
C18 C13 1_555 1_555
H10 C18 1_555 1_555
C19 C13 1_555 1_555
C20 C21 1_555 1_555
C21 C22 1_555 1_555
C22 H11 1_555 1_555
C23 C22 1_555 1_555
H12 C23 1_555 1_555
C24 C26 1_555 1_555
C25 H13 1_555 1_555
C26 C25 1_555 1_555
C27 C26 1_555 1_555
H14 C27 1_555 1_555
N1 C6 1_555 1_555
N2 C1 1_555 1_555
N3 C12 1_555 1_555
N4 C11 1_555 1_555
H15 N4 1_555 1_555
O1 C20 1_555 1_555
O2 C20 1_555 1_555
O3 Pb1 1_555 1_555
O4 C24 1_555 1_555
O5 C24 1_555 1_555
F1 C16 1_555 1_555
Pb1 N1 1_555 1_555
C1A H1A 1_555 1_555
C2A C1A 1_555 1_555
H2A C2A 1_555 1_555
C3A C2A 1_555 1_555
H3A C3A 1_555 1_555
C4A C3A 1_555 1_555
C5A C4A 1_555 1_555
C6A C5A 1_555 1_555
C7A C6A 1_555 1_555
C8A C7A 1_555 1_555
H4A C8A 1_555 1_555
C9A C8A 1_555 1_555
H5A C9A 1_555 1_555
C10A C9A 1_555 1_555
H6A C10A 1_555 1_555
C11A C7A 1_555 1_555
C12A C4A 1_555 1_555
C13A C14A 1_555 1_555
C14A H7A 1_555 1_555
C15A C14A 1_555 1_555
H8A C15A 1_555 1_555
C16A C15A 1_555 1_555
C17A C16A 1_555 1_555
H9A C17A 1_555 1_555
C18A C13A 1_555 1_555
H10A C18A 1_555 1_555
C19A C13A 1_555 1_555
C20A C21A 1_555 1_555
C21A C23 1_555 1_555
C22A C21A 1_555 1_555
H11A C22A 1_555 1_555
C23A C21 1_555 1_555
H12A C23A 1_555 1_555
C24A C26A 1_555 1_555
C25A C27 1_555 1_555
H13A C25A 1_555 1_555
C26A C25A 1_555 1_555
C27A C25 1_555 1_555
H14A C27A 1_555 1_555
N1A C6A 1_555 1_555
N2A C1A 1_555 1_555
N3A C12A 1_555 1_555
N4A C11A 1_555 1_555
H15A N4A 1_555 1_555
O1A C20A 1_555 1_555
O2A C20A 1_555 1_555
O3A Pb1A 1_555 1_555
O4A C24A 1_555 1_555
O4A_2 Pb1A 1_555 1_555
O5A C24A 1_555 1_555
O5A_2 Pb1A 1_555 1_555
F1A C16A 1_555 1_555
Pb1A N1A 1_555 1_555
Pb1A_2 O4A 1_555 1_555
C5 N2 1_555 1_555
C10 N1 1_555 1_555
C11 C12 1_555 1_555
C17 C18 1_555 1_555
C19 N3 1_555 1_555
C19 N4 1_555 1_555
N2 Pb1 1_555 1_555
O1 Pb1 1_555 1_555
O2 Pb1 1_555 1_555
O4 Pb1 1_555 1_555
O5 Pb1 1_555 1_555
C5A N2A 1_555 1_555
C10A N1A 1_555 1_555
C11A C12A 1_555 1_555
C17A C18A 1_555 1_555
C19A N3A 1_555 1_555
C19A N4A 1_555 1_555
C22A C23A 1_555 1_555
C26A C27A 1_555 1_555
N2A Pb1A 1_555 1_555
O1A Pb1A 1_555 1_555
O2A Pb1A 1_555 1_555
O5A Pb1A_2 1_555 1_555

#END
