
#######################################################################
#
#                 Cambridge Crystallographic Data Centre
#                                CCDC 
#
#######################################################################
#
# If this CIF has been generated from an entry in the Cambridge 
# Structural Database, then it will include bibliographic, chemical, 
# crystal, experimental, refinement or atomic coordinate data resulting 
# from the CCDC's data processing and validation procedures.
#
#######################################################################

data_FACDUI
_symmetry_cell_setting           triclinic
_symmetry_space_group_name_H-M   'P -1'
_symmetry_Int_Tables_number      2
_space_group_name_Hall           '-P 1'
loop_
_symmetry_equiv_pos_site_id
_symmetry_equiv_pos_as_xyz
1 x,y,z
2 -x,-y,-z
_cell_length_a                   8.936(2)
_cell_length_b                   12.472(2)
_cell_length_c                   16.848(3)
_cell_angle_alpha                97.31(1)
_cell_angle_beta                 90.88(1)
_cell_angle_gamma                99.59(1)
_cell_volume                     1835.13
loop_
_atom_site_label
_atom_site_type_symbol
_atom_site_fract_x
_atom_site_fract_y
_atom_site_fract_z
Cr1 Cr 0.2383(1) 0.1515(1) 0.3603(1)
Cr2 Cr 0.3045(1) 0.6489(1) 0.1562(1)
Na1 Na 0.3223(2) 0.0504(2) 0.0309(1)
Na2 Na 0.1717(2) 0.5855(1) 0.4720(1)
N1 N 0.0890(4) 0.0051(3) 0.3445(2)
N2 N 0.2943(4) 0.0833(3) 0.4598(2)
N3 N 0.2608(5) 0.5445(3) 0.0500(2)
N4 N 0.4470(5) 0.5370(3) 0.1690(3)
O1 O 0.3879(4) 0.0929(3) 0.2921(2)
O2 O 0.1663(3) 0.1942(2) 0.2603(2)
O3 O 0.0932(3) 0.2287(2) 0.4214(2)
O4 O 0.3737(3) 0.2935(2) 0.3869(2)
O5 O 0.4605(4) 0.0850(3) 0.1646(2)
O6 O 0.2139(4) 0.1785(3) 0.1296(2)
O7 O 0.0709(4) 0.3947(3) 0.4801(2)
O8 O 0.3549(4) 0.4694(3) 0.4234(2)
O9 O 0.1484(4) 0.5587(3) 0.2113(2)
O10 O 0.3555(4) 0.7248(3) 0.2649(2)
O11 O 0.1651(4) -0.2529(3) 0.1324(2)
O12 O 0.4496(3) -0.2506(3) 0.1031(2)
O13 O 0.0616(4) 0.5430(3) 0.3332(2)
O14 O 0.2904(4) 0.7146(3) 0.3912(2)
O15 O 0.1651(4) -0.0950(3) 0.0839(2)
O16 O 0.4544(4) -0.1121(3) 0.0314(2)
O17 O 0.1590(5) 0.0977(4) -0.0664(3)
O18 O 0.2930(4) 0.6723(4) 0.5917(2)
C1 C -0.0111(6) -0.0297(4) 0.2828(3)
C2 C -0.1063(6) -0.1293(4) 0.2764(3)
C3 C -0.0991(6) -0.1954(4) 0.3344(3)
C4 C 0.0033(6) -0.1608(4) 0.3984(3)
C5 C 0.0973(5) -0.0605(4) 0.4032(3)
C6 C 0.2096(5) -0.0154(4) 0.4681(3)
C7 C 0.2311(6) -0.0660(4) 0.5342(3)
C8 C 0.3380(6) -0.0165(4) 0.5932(3)
C9 C 0.4231(6) 0.0830(4) 0.5842(3)
C10 C 0.3992(5) 0.1299(4) 0.5169(3)
C11 C 0.3763(6) 0.1083(4) 0.2180(3)
C12 C 0.2411(5) 0.1654(4) 0.1989(3)
C13 C 0.1427(5) 0.3311(4) 0.4424(3)
C14 C 0.3044(5) 0.3720(4) 0.4160(3)
C15 C 0.1733(6) 0.5586(5) -0.0113(3)
C16 C 0.1403(7) 0.4779(6) -0.0774(3)
C17 C 0.1954(8) 0.3829(6) -0.0793(4)
C18 C 0.2875(7) 0.3685(5) -0.0172(4)
C19 C 0.3231(6) 0.4511(4) 0.0467(3)
C20 C 0.4282(6) 0.4475(4) 0.1137(4)
C21 C 0.5074(7) 0.3628(5) 0.1208(5)
C22 C 0.6057(8) 0.3696(6) 0.1845(6)
C23 C 0.6259(8) 0.4592(7) 0.2387(5)
C24 C 0.5445(7) 0.5424(5) 0.2308(4)
C25 C 0.1486(6) 0.5873(4) 0.2868(3)
C26 C 0.2733(5) 0.6838(4) 0.3198(3)
C27 C 0.2256(5) -0.1701(4) 0.0983(3)
C28 C 0.3918(5) -0.1744(4) 0.0753(3)
H1 H -0.0162(6) 0.0149(4) 0.2430(3)
H2 H -0.1749(6) -0.1513(4) 0.2330(3)
H3 H -0.1626(6) -0.2632(4) 0.3310(3)
H4 H 0.0089(6) -0.2052(4) 0.4383(3)
H5 H 0.1733(6) -0.1339(4) 0.5392(3)
H6 H 0.3522(6) -0.0501(4) 0.6383(3)
H7 H 0.4958(6) 0.1182(4) 0.6233(3)
H8 H 0.4584(5) 0.1969(4) 0.5106(3)
H9 H 0.1338(6) 0.6232(5) -0.0100(3)
H10 H 0.0804(7) 0.4893(6) -0.1201(3)
H11 H 0.1708(8) 0.3278(6) -0.1224(4)
H12 H 0.3260(7) 0.3036(5) -0.0180(4)
H13 H 0.4935(7) 0.3014(5) 0.0822(5)
H14 H 0.6582(8) 0.3124(6) 0.1902(6)
H15 H 0.6947(8) 0.4656(7) 0.2817(5)
H16 H 0.5579(7) 0.6037(5) 0.2695(4)
O7A O -0.0709(4) 0.6053(3) 0.5199(2)
Na2A Na -0.1717(2) 0.4145(1) 0.5280(1)
Cr2_2 Cr 0.3045(1) -0.3511(1) 0.1562(1)
Na1A Na 0.6777(2) -0.0504(2) -0.0309(1)
O16A O 0.5456(4) 0.1121(3) -0.0314(2)
O11_2 O 0.1651(4) 0.7471(3) 0.1324(2)
O12_2 O 0.4496(3) 0.7494(3) 0.1031(2)
O19 O -0.0853(4) 0.3283(3) 0.2791(2)
O20 O -0.0624(7) 0.2572(6) 0.1034(4)
O21 O 0.2330(6) -0.0736(5) -0.1665(5)
O22 O 0.6474(8) 0.6081(6) 0.4081(4)
loop_
_geom_bond_atom_site_label_1
_geom_bond_atom_site_label_2
_geom_bond_site_symmetry_1
_geom_bond_site_symmetry_2
Cr1 N1 1_555 1_555
Cr2 N3 1_555 1_555
Na1 O5 1_555 1_555
Na2 O7 1_555 1_555
N1 C1 1_555 1_555
N2 Cr1 1_555 1_555
N3 C15 1_555 1_555
N4 Cr2 1_555 1_555
O1 Cr1 1_555 1_555
O2 Cr1 1_555 1_555
O3 Cr1 1_555 1_555
O4 Cr1 1_555 1_555
O5 C11 1_555 1_555
O6 Na1 1_555 1_555
O7 C13 1_555 1_555
O8 Na2 1_555 1_555
O9 Cr2 1_555 1_555
O10 Cr2 1_555 1_555
O11 C27 1_555 1_555
O12 C28 1_555 1_555
O13 Na2 1_555 1_555
O14 Na2 1_555 1_555
O15 Na1 1_555 1_555
O16 Na1 1_555 1_555
O17 Na1 1_555 1_555
O18 Na2 1_555 1_555
C1 C2 1_555 1_555
C2 C3 1_555 1_555
C3 C4 1_555 1_555
C4 C5 1_555 1_555
C5 N1 1_555 1_555
C6 N2 1_555 1_555
C7 C6 1_555 1_555
C8 C7 1_555 1_555
C9 C8 1_555 1_555
C10 N2 1_555 1_555
C11 O1 1_555 1_555
C12 O2 1_555 1_555
C13 O3 1_555 1_555
C14 O4 1_555 1_555
C15 C16 1_555 1_555
C16 C17 1_555 1_555
C17 C18 1_555 1_555
C18 C19 1_555 1_555
C19 N3 1_555 1_555
C20 N4 1_555 1_555
C21 C20 1_555 1_555
C22 C21 1_555 1_555
C23 C22 1_555 1_555
C24 N4 1_555 1_555
C25 O9 1_555 1_555
C26 O10 1_555 1_555
C27 O15 1_555 1_555
C28 O16 1_555 1_555
H1 C1 1_555 1_555
H2 C2 1_555 1_555
H3 C3 1_555 1_555
H4 C4 1_555 1_555
H5 C7 1_555 1_555
H6 C8 1_555 1_555
H7 C9 1_555 1_555
H8 C10 1_555 1_555
H9 C15 1_555 1_555
H10 C16 1_555 1_555
H11 C17 1_555 1_555
H12 C18 1_555 1_555
H13 C21 1_555 1_555
H14 C22 1_555 1_555
H15 C23 1_555 1_555
H16 C24 1_555 1_555
O7A Na2 1_555 1_555
Na2A O7 1_555 1_555
Cr2_2 O11 1_555 1_555
Na1A O16 1_555 1_555
O16A Na1 1_555 1_555
O11_2 Cr2 1_555 1_555
O12_2 Cr2 1_555 1_555
O6 C12 1_555 1_555
O8 C14 1_555 1_555
O12 Cr2_2 1_555 1_555
O13 C25 1_555 1_555
O14 C26 1_555 1_555
C5 C6 1_555 1_555
C9 C10 1_555 1_555
C11 C12 1_555 1_555
C13 C14 1_555 1_555
C19 C20 1_555 1_555
C23 C24 1_555 1_555
C25 C26 1_555 1_555
C27 C28 1_555 1_555
O7A Na2A 1_555 1_555
Na1A O16A 1_555 1_555

#END
