
#######################################################################
#
#                 Cambridge Crystallographic Data Centre
#                                CCDC 
#
#######################################################################
#
# If this CIF has been generated from an entry in the Cambridge 
# Structural Database, then it will include bibliographic, chemical, 
# crystal, experimental, refinement or atomic coordinate data resulting 
# from the CCDC's data processing and validation procedures.
#
#######################################################################

data_FADCIY
_symmetry_cell_setting           orthorhombic
_symmetry_space_group_name_H-M   'P b c a'
_symmetry_Int_Tables_number      61
_space_group_name_Hall           '-P 2ac 2ab'
loop_
_symmetry_equiv_pos_site_id
_symmetry_equiv_pos_as_xyz
1 x,y,z
2 1/2-x,-y,1/2+z
3 1/2+x,1/2-y,-z
4 -x,1/2+y,1/2-z
5 -x,-y,-z
6 1/2+x,y,1/2-z
7 1/2-x,1/2+y,z
8 x,1/2-y,1/2+z
_cell_length_a                   9.3806(5)
_cell_length_b                   8.4077(5)
_cell_length_c                   29.1266(16)
_cell_angle_alpha                90
_cell_angle_beta                 90
_cell_angle_gamma                90
_cell_volume                     2297.19
loop_
_atom_site_label
_atom_site_type_symbol
_atom_site_fract_x
_atom_site_fract_y
_atom_site_fract_z
Zn1 Zn 0.10553(3) 0.47896(4) 0.642241(10)
C1 C -0.0595(3) 0.6545(3) 0.57413(8)
H1 H -0.1145 0.6544 0.5455
C2 C -0.1604(3) 0.6179(3) 0.61318(9)
C3 C 0.0098(3) 0.8152(3) 0.57911(9)
H2 H 0.0495 0.8449 0.5496
H3 H -0.0638 0.8921 0.5865
C4 C 0.1258(2) 0.8292(3) 0.61461(9)
C5 C 0.2168(3) 0.5316(4) 0.73729(10)
H4 H 0.2840 0.6048 0.7271
C6 C 0.0957(4) 0.3821(5) 0.78175(10)
H5 H 0.0611 0.3303 0.8077
C7 C 0.0484(3) 0.3661(4) 0.73947(10)
H6 H -0.0261 0.3002 0.7304
O1 O 0.0467(2) 0.5365(2) 0.57063(6)
O2 O -0.11443(19) 0.5353(3) 0.64551(6)
O3 O -0.2809(2) 0.6737(3) 0.61063(7)
O4 O 0.1505(2) 0.7211(2) 0.64217(6)
O5 O 0.19458(18) 0.9569(2) 0.61416(6)
N1 N 0.1259(2) 0.4614(3) 0.71096(8)
N2 N 0.2028(3) 0.4870(4) 0.78036(8)
H7 H 0.2531 0.5191 0.8033
O6 O 0.0441(2) 0.2442(2) 0.63527(8)
H8 H -0.0411(13) 0.218(3) 0.6295(11)
H9 H 0.099(2) 0.166(2) 0.6337(11)
H10 H 0.008(3) 0.459(3) 0.5569(11)
Zn1F Zn 0.39447(3) 0.97896(4) 0.642241(10)
O5F O 0.30542(18) 0.4569(2) 0.61416(6)
O7 O 0.3131(3) 0.6426(4) 0.52511(9)
H11 H 0.3979(17) 0.677(4) 0.5277(9)
H12 H 0.288(3) 0.600(4) 0.5501(6)
O8 O -0.0929(2) 0.2931(3) 0.53356(7)
H13 H -0.154(2) 0.328(4) 0.5145(7)
H14 H -0.134(3) 0.261(4) 0.5576(6)
loop_
_geom_bond_atom_site_label_1
_geom_bond_atom_site_label_2
_geom_bond_site_symmetry_1
_geom_bond_site_symmetry_2
Zn1 O1 1_555 1_555
C1 H1 1_555 1_555
C2 C1 1_555 1_555
C3 C1 1_555 1_555
H2 C3 1_555 1_555
H3 C3 1_555 1_555
C4 C3 1_555 1_555
C5 H4 1_555 1_555
C6 H5 1_555 1_555
C7 C6 1_555 1_555
H6 C7 1_555 1_555
O1 C1 1_555 1_555
O2 Zn1 1_555 1_555
O3 C2 1_555 1_555
O4 Zn1 1_555 1_555
O5 C4 1_555 1_555
N1 Zn1 1_555 1_555
N2 C5 1_555 1_555
H7 N2 1_555 1_555
O6 Zn1 1_555 1_555
H8 O6 1_555 1_555
H9 O6 1_555 1_555
H10 O1 1_555 1_555
O7 H11 1_555 1_555
H12 O7 1_555 1_555
O8 H13 1_555 1_555
H14 O8 1_555 1_555
Zn1F O5 1_555 1_555
O5F Zn1 1_555 1_555
C2 O2 1_555 1_555
C4 O4 1_555 1_555
C5 N1 1_555 1_555
C6 N2 1_555 1_555
C7 N1 1_555 1_555

#END
