
#######################################################################
#
#                 Cambridge Crystallographic Data Centre
#                                CCDC 
#
#######################################################################
#
# If this CIF has been generated from an entry in the Cambridge 
# Structural Database, then it will include bibliographic, chemical, 
# crystal, experimental, refinement or atomic coordinate data resulting 
# from the CCDC's data processing and validation procedures.
#
#######################################################################

data_FADQOS
_symmetry_cell_setting           orthorhombic
_symmetry_space_group_name_H-M   'P b c n'
_symmetry_Int_Tables_number      60
_space_group_name_Hall           '-P 2n 2ab'
loop_
_symmetry_equiv_pos_site_id
_symmetry_equiv_pos_as_xyz
1 x,y,z
2 1/2-x,1/2-y,1/2+z
3 1/2+x,1/2-y,-z
4 -x,y,1/2-z
5 -x,-y,-z
6 1/2+x,1/2+y,1/2-z
7 1/2-x,1/2+y,z
8 x,-y,1/2+z
_cell_length_a                   18.206(4)
_cell_length_b                   7.094(5)
_cell_length_c                   16.385(2)
_cell_angle_alpha                90
_cell_angle_beta                 90
_cell_angle_gamma                90
_cell_volume                     2116.18
loop_
_atom_site_label
_atom_site_type_symbol
_atom_site_fract_x
_atom_site_fract_y
_atom_site_fract_z
C1 C 0.2235(2) 0.1240(7) 0.0635(2)
C2 C 0.1479(2) 0.1305(8) 0.0531(2)
C3 C 0.1191(2) 0.1471(8) -0.0243(3)
C4 C 0.1643(3) 0.1595(8) -0.0908(3)
C5 C 0.2400(2) 0.1540(8) -0.0815(2)
C6 C 0.2700(2) 0.1368(7) -0.0035(2)
N1 N 0.3465(2) 0.1321(6) 0.0073(2)
C7 C 0.3777(2) 0.1126(7) 0.0819(2)
C8 C 0.3273(2) 0.0989(7) 0.1547(2)
N2 N 0.2540(2) 0.1064(6) 0.1422(2)
C9 C 0.3962(2) 0.1442(8) -0.0636(2)
O1 O 0.4442(1) 0.1101(5) 0.0932(2)
O2 O 0.3544(2) 0.0798(5) 0.2230(2)
C10 C 0.2054(2) 0.0935(7) 0.2140(2)
I1 I 0.5000 0.5800(1) 0.2500
K1 K 0.5000 0.0809(3) 0.2500
C1C C 0.7765(2) 0.1240(7) 0.4365(2)
C2C C 0.8521(2) 0.1305(8) 0.4469(2)
C3C C 0.8809(2) 0.1471(8) 0.5243(3)
C4C C 0.8357(3) 0.1595(8) 0.5908(3)
C5C C 0.7600(2) 0.1540(8) 0.5815(2)
C6C C 0.7300(2) 0.1368(7) 0.5035(2)
N1C N 0.6535(2) 0.1321(6) 0.4927(2)
C7C C 0.6223(2) 0.1126(7) 0.4181(2)
C8C C 0.6727(2) 0.0989(7) 0.3453(2)
N2C N 0.7460(2) 0.1064(6) 0.3578(2)
C9C C 0.6038(2) 0.1442(8) 0.5636(2)
O1C O 0.5558(1) 0.1101(5) 0.4068(2)
O2C O 0.6456(2) 0.0798(5) 0.2770(2)
C10C C 0.7946(2) 0.0935(7) 0.2860(2)
I1_2 I 0.5000 -0.4200(1) 0.2500
K1_2 K 0.5000 1.0809(3) 0.2500
loop_
_geom_bond_atom_site_label_1
_geom_bond_atom_site_label_2
_geom_bond_site_symmetry_1
_geom_bond_site_symmetry_2
C1 C2 1_555 1_555
C2 C3 1_555 1_555
C3 C4 1_555 1_555
C4 C5 1_555 1_555
C5 C6 1_555 1_555
C6 C1 1_555 1_555
N1 C6 1_555 1_555
C7 N1 1_555 1_555
C8 C7 1_555 1_555
N2 C1 1_555 1_555
C9 N1 1_555 1_555
O1 C7 1_555 1_555
O2 C8 1_555 1_555
C10 N2 1_555 1_555
I1 K1 1_555 1_555
K1 O1 1_555 1_555
C1C C2C 1_555 1_555
C2C C3C 1_555 1_555
C3C C4C 1_555 1_555
C4C C5C 1_555 1_555
C5C C6C 1_555 1_555
C6C C1C 1_555 1_555
N1C C6C 1_555 1_555
C7C N1C 1_555 1_555
C8C C7C 1_555 1_555
N2C C1C 1_555 1_555
C9C N1C 1_555 1_555
O1C K1 1_555 1_555
O2C K1 1_555 1_555
C10C N2C 1_555 1_555
I1_2 K1 1_555 1_555
K1_2 I1 1_555 1_555
C8 N2 1_555 1_555
O2 K1 1_555 1_555
C7C O1C 1_555 1_555
C8C N2C 1_555 1_555
C8C O2C 1_555 1_555

#END
