
#######################################################################
#
#                 Cambridge Crystallographic Data Centre
#                                CCDC 
#
#######################################################################
#
# If this CIF has been generated from an entry in the Cambridge 
# Structural Database, then it will include bibliographic, chemical, 
# crystal, experimental, refinement or atomic coordinate data resulting 
# from the CCDC's data processing and validation procedures.
#
#######################################################################

data_FADTAH
_symmetry_cell_setting           triclinic
_symmetry_space_group_name_H-M   'P -1'
_symmetry_Int_Tables_number      2
_space_group_name_Hall           '-P 1'
loop_
_symmetry_equiv_pos_site_id
_symmetry_equiv_pos_as_xyz
1 x,y,z
2 -x,-y,-z
_cell_length_a                   6.907(2)
_cell_length_b                   11.426(4)
_cell_length_c                   13.192(4)
_cell_angle_alpha                89.135(4)
_cell_angle_beta                 86.520(4)
_cell_angle_gamma                84.900(4)
_cell_volume                     1035.02
loop_
_atom_site_label
_atom_site_type_symbol
_atom_site_fract_x
_atom_site_fract_y
_atom_site_fract_z
Co1 Co 0.44267(9) 0.28768(5) 0.24871(5)
C1 C 1.0249(7) 0.2905(4) 0.1031(3)
C2 C 0.9658(7) 0.2651(5) -0.0831(4)
C3 C 0.9863(8) 0.3654(5) -0.1385(4)
H1 H 0.9691 0.4384 -0.1074
C4 C 1.0331(7) 0.3568(5) -0.2416(4)
H2 H 1.0469 0.4246 -0.2802
C5 C 1.0596(7) 0.2475(5) -0.2883(4)
C6 C 1.1042(7) 0.2373(5) -0.4024(4)
C7 C 1.0385(7) 0.1475(5) -0.2303(4)
H3 H 1.0561 0.0741 -0.2608
C8 C 0.9909(8) 0.1556(5) -0.1266(4)
H4 H 0.9763 0.0883 -0.0873
C9 C 0.4068(8) 0.0389(4) 0.3363(4)
H5 H 0.3747 0.0808 0.3958
C10 C 0.4105(8) -0.0813(4) 0.3405(4)
H6 H 0.3831 -0.1187 0.4021
C11 C 0.4547(6) -0.1475(4) 0.2539(3)
C12 C 0.4208(7) -0.3435(4) 0.3420(4)
H7 H 0.3944 -0.3055 0.4038
C13 C 0.4231(7) -0.4630(4) 0.3374(4)
H8 H 0.3968 -0.5039 0.3973
C14 C 0.5024(7) -0.4614(4) 0.1676(4)
H9 H 0.5337 -0.5013 0.1071
C15 C 0.5011(7) -0.3423(4) 0.1660(4)
H10 H 0.5295 -0.3036 0.1051
C16 C 0.4584(6) -0.2783(4) 0.2531(3)
C17 C 0.4944(8) -0.0846(5) 0.1651(4)
H11 H 0.5250 -0.1243 0.1043
C18 C 0.4886(8) 0.0356(5) 0.1667(4)
H12 H 0.5151 0.0751 0.1060
N1 N 0.4472(6) 0.0990(4) 0.2506(3)
N2 N 0.4610(6) -0.5250(3) 0.2516(3)
N3 N 0.7247(6) 0.2768(3) 0.1559(3)
N4 N 0.9049(6) 0.2934(4) 0.1874(3)
N5 N 0.7263(6) 0.2649(4) 0.0591(3)
N6 N 0.9144(6) 0.2730(4) 0.0244(3)
O1 O 0.1886(5) 0.3023(3) 0.3395(3)
H13 H 0.1827 0.3399 0.3949
H14 H 0.0893 0.2707 0.3215
O2 O 1.1263(7) 0.1373(3) -0.4403(3)
O3 O 0.5946(5) 0.2721(3) 0.3823(3)
H15 H 0.7183 0.2654 0.3787
H16 H 0.5323 0.2727 0.4399
O4 O 1.1157(6) 0.3304(3) -0.4533(3)
S1 S 1.26811(18) 0.30509(13) 0.08677(10)
Co1_2 Co 0.44267(9) -0.71232(5) 0.24871(5)
Co1_3 Co 1.44267(9) 0.28768(5) 0.24871(5)
N2_2 N 0.4610(6) 0.4750(3) 0.2516(3)
S1_2 S 0.26811(18) 0.30509(13) 0.08677(10)
O5 O 0.8694(7) 0.0990(4) 0.4063(4)
H17 H 0.8694 0.0254 0.4167
H18 H 0.9511 0.1132 0.4491
O6 O 0.8069(6) 0.4412(3) 0.4418(3)
H19 H 0.8233 0.5140 0.4409
H20 H 0.8729 0.3778 0.4573
loop_
_geom_bond_atom_site_label_1
_geom_bond_atom_site_label_2
_geom_bond_site_symmetry_1
_geom_bond_site_symmetry_2
Co1 N1 1_555 1_555
C1 N4 1_555 1_555
C2 C3 1_555 1_555
C3 H1 1_555 1_555
C4 C3 1_555 1_555
H2 C4 1_555 1_555
C5 C4 1_555 1_555
C6 C5 1_555 1_555
C7 C5 1_555 1_555
H3 C7 1_555 1_555
C8 C2 1_555 1_555
H4 C8 1_555 1_555
C9 H5 1_555 1_555
C10 C9 1_555 1_555
H6 C10 1_555 1_555
C11 C10 1_555 1_555
C12 H7 1_555 1_555
C13 C12 1_555 1_555
H8 C13 1_555 1_555
C14 H9 1_555 1_555
C15 C14 1_555 1_555
H10 C15 1_555 1_555
C16 C11 1_555 1_555
C17 C11 1_555 1_555
H11 C17 1_555 1_555
C18 C17 1_555 1_555
H12 C18 1_555 1_555
N1 C9 1_555 1_555
N2 C13 1_555 1_555
N3 Co1 1_555 1_555
N4 N3 1_555 1_555
N5 N3 1_555 1_555
N6 C1 1_555 1_555
O1 Co1 1_555 1_555
H13 O1 1_555 1_555
H14 O1 1_555 1_555
O2 C6 1_555 1_555
O3 Co1 1_555 1_555
H15 O3 1_555 1_555
H16 O3 1_555 1_555
O4 C6 1_555 1_555
O5 H17 1_555 1_555
H18 O5 1_555 1_555
O6 H19 1_555 1_555
H20 O6 1_555 1_555
S1 C1 1_555 1_555
Co1_2 N2 1_555 1_555
Co1_3 S1 1_555 1_555
N2_2 Co1 1_555 1_555
S1_2 Co1 1_555 1_555
C2 N6 1_555 1_555
C7 C8 1_555 1_555
C12 C16 1_555 1_555
C14 N2 1_555 1_555
C15 C16 1_555 1_555
C18 N1 1_555 1_555
N5 N6 1_555 1_555

#END
