
#######################################################################
#
#                 Cambridge Crystallographic Data Centre
#                                CCDC 
#
#######################################################################
#
# If this CIF has been generated from an entry in the Cambridge 
# Structural Database, then it will include bibliographic, chemical, 
# crystal, experimental, refinement or atomic coordinate data resulting 
# from the CCDC's data processing and validation procedures.
#
#######################################################################

data_FADWIR
_symmetry_cell_setting           orthorhombic
_symmetry_space_group_name_H-M   'F d d d'
_symmetry_Int_Tables_number      70
_space_group_name_Hall           '-F 2uv 2vw'
loop_
_symmetry_equiv_pos_site_id
_symmetry_equiv_pos_as_xyz
1 x,y,z
2 x,1/2+y,1/2+z
3 x,1/4-y,1/4-z
4 1/2+x,y,1/2+z
5 1/4-x,y,1/4-z
6 1/2+x,1/2+y,z
7 1/4-x,1/4-y,z
8 1/4+x,1/4+y,-z
9 1/4+x,-y,1/4+z
10 -x,1/4+y,1/4+z
11 1/4+x,3/4+y,1/2-z
12 1/4+x,1/2-y,3/4+z
13 3/4+x,1/4+y,1/2-z
14 1/2-x,1/4+y,3/4+z
15 3/4+x,1/2-y,1/4+z
16 1/2-x,3/4+y,1/4+z
17 -x,-y,-z
18 -x,1/2-y,1/2-z
19 -x,3/4+y,3/4+z
20 1/2-x,-y,1/2-z
21 3/4+x,-y,3/4+z
22 1/2-x,1/2-y,-z
23 3/4+x,3/4+y,-z
24 3/4-x,3/4-y,z
25 3/4-x,y,3/4-z
26 x,3/4-y,3/4-z
27 3/4-x,1/4-y,1/2+z
28 3/4-x,1/2+y,1/4-z
29 1/4-x,3/4-y,1/2+z
30 1/2+x,3/4-y,1/4-z
31 1/4-x,1/2+y,3/4-z
32 1/2+x,1/4-y,3/4-z
_cell_length_a                   7.4584(2)
_cell_length_b                   10.8110(5)
_cell_length_c                   31.7206(13)
_cell_angle_alpha                90
_cell_angle_beta                 90
_cell_angle_gamma                90
_cell_volume                     2557.72
loop_
_atom_site_label
_atom_site_type_symbol
_atom_site_fract_x
_atom_site_fract_y
_atom_site_fract_z
Hg1 Hg 0.8750 0.8750 0.541854(7)
Cl1 Cl 1.16936(17) 0.95016(10) 0.53512(3)
N1 N 1.0090(6) 0.7053(3) 0.59751(11)
C1 C 0.8973(10) 0.6250 0.6250
H1 H 0.788(15) 0.568(10) 0.607(3)
C2 C 1.1250 0.7808(6) 0.6250
H2 H 1.206(8) 0.835(6) 0.6093(19)
C3 C 1.1250 0.6250 0.5712(2)
H3 H 1.209(11) 0.698(6) 0.554(2)
N1B N 1.0090(6) 0.5447(3) 0.65249(11)
C2B C 1.1250 0.4692(6) 0.6250
N1F N 1.2410(6) 0.5447(3) 0.59751(11)
C1F C 1.3527(10) 0.6250 0.6250
N1D N 1.2410(6) 0.7053(3) 0.65249(11)
H3F H 1.041(11) 0.552(6) 0.554(2)
H2D H 1.044(8) 0.835(6) 0.6407(19)
C3D C 1.1250 0.6250 0.6788(2)
H3D H 1.041(11) 0.698(6) 0.696(2)
H3B H 1.209(11) 0.552(6) 0.696(2)
H1F H 1.462(15) 0.682(10) 0.607(3)
H1D H 1.462(15) 0.568(10) 0.643(3)
H2B H 1.206(8) 0.415(6) 0.6407(19)
H2F H 1.044(8) 0.415(6) 0.6093(19)
H1B H 0.788(15) 0.682(10) 0.643(3)
Cl1P Cl 0.83064(17) 1.04984(10) 0.46488(3)
Cl1V Cl 0.91936(17) 0.70016(10) 0.46488(3)
Cl1W Cl 0.58064(17) 0.79984(10) 0.53512(3)
Hg1P Hg 1.1250 1.1250 0.458146(7)
N1W N 0.7410(6) 1.0447(3) 0.59751(11)
Hg1B Hg 0.8750 0.3750 0.708146(7)
Hg1E Hg 1.3750 0.3750 0.541854(7)
Hg1D Hg 1.3750 0.8750 0.708146(7)
Hg1U Hg 0.6250 0.6250 0.458146(7)
Cl1F Cl 1.08064(17) 1.29984(10) 0.53512(3)
Cl1G Cl 1.41936(17) 1.20016(10) 0.46488(3)
N1G N 1.2590(6) 0.9553(3) 0.40249(11)
N1P N 0.9910(6) 1.2947(3) 0.40249(11)
loop_
_geom_bond_atom_site_label_1
_geom_bond_atom_site_label_2
_geom_bond_site_symmetry_1
_geom_bond_site_symmetry_2
Hg1 Cl1 1_555 1_555
Cl1 Hg1P 1_555 1_555
N1 Hg1 1_555 1_555
C1 N1 1_555 1_555
H1 C1 1_555 1_555
C2 N1 1_555 1_555
H2 C2 1_555 1_555
C3 N1 1_555 1_555
H3 C3 1_555 1_555
N1B C1 1_555 1_555
C2B N1B 1_555 1_555
N1F C3 1_555 1_555
C1F N1F 1_555 1_555
N1D C2 1_555 1_555
H3F C3 1_555 1_555
H2D C2 1_555 1_555
C3D N1B 1_555 1_555
H3D C3D 1_555 1_555
H3B C3D 1_555 1_555
H1F C1F 1_555 1_555
H1D C1F 1_555 1_555
H2B C2B 1_555 1_555
H2F C2B 1_555 1_555
H1B C1 1_555 1_555
Cl1P Hg1 1_555 1_555
Cl1V Hg1 1_555 1_555
Cl1W Hg1 1_555 1_555
Hg1P Cl1P 1_555 1_555
N1W Hg1 1_555 1_555
Hg1B N1B 1_555 1_555
Hg1E N1F 1_555 1_555
Hg1D N1D 1_555 1_555
Hg1U Cl1V 1_555 1_555
Cl1F Hg1P 1_555 1_555
Cl1G Hg1P 1_555 1_555
N1G Hg1P 1_555 1_555
N1P Hg1P 1_555 1_555
C2B N1F 1_555 1_555
C1F N1D 1_555 1_555
N1D C3D 1_555 1_555
Cl1W Hg1U 1_555 1_555

#END
