
#######################################################################
#
#                 Cambridge Crystallographic Data Centre
#                                CCDC 
#
#######################################################################
#
# If this CIF has been generated from an entry in the Cambridge 
# Structural Database, then it will include bibliographic, chemical, 
# crystal, experimental, refinement or atomic coordinate data resulting 
# from the CCDC's data processing and validation procedures.
#
#######################################################################

data_FAFKUU
_symmetry_cell_setting           triclinic
_symmetry_space_group_name_H-M   'P -1'
_symmetry_Int_Tables_number      2
_space_group_name_Hall           '-P 1'
loop_
_symmetry_equiv_pos_site_id
_symmetry_equiv_pos_as_xyz
1 x,y,z
2 -x,-y,-z
_cell_length_a                   10.9066(7)
_cell_length_b                   15.0537(10)
_cell_length_c                   15.0663(10)
_cell_angle_alpha                75.8900(10)
_cell_angle_beta                 74.1990(10)
_cell_angle_gamma                81.3990(10)
_cell_volume                     2299.19
loop_
_atom_site_label
_atom_site_type_symbol
_atom_site_fract_x
_atom_site_fract_y
_atom_site_fract_z
C1 C -0.0251(5) -0.5031(4) 0.1199(5)
H1 H -0.1107 -0.4984 0.1189
C2 C 0.0497(6) -0.5853(4) 0.1164(5)
H2 H 0.0117 -0.6354 0.1133
C3 C 0.5529(5) -0.6300(4) 0.1037(5)
H3 H 0.5981 -0.6856 0.0936
C4 C 0.6187(6) -0.5625(4) 0.1133(5)
H4 H 0.7055 -0.5740 0.1114
C5 C 0.3520(5) -0.3785(4) 0.1311(4)
C6 C 0.5561(5) -0.4790(4) 0.1255(4)
H5 H 0.5992 -0.4329 0.1319
C7 C 0.4255(5) -0.4646(4) 0.1280(4)
C8 C 0.3639(5) -0.5372(3) 0.1207(4)
C9 C 0.2264(5) -0.5242(4) 0.1224(4)
C10 C 0.0289(5) -0.4286(4) 0.1251(5)
H6 H -0.0197 -0.3725 0.1270
C11 C 0.1565(5) -0.4374(4) 0.1275(4)
C12 C 0.2814(5) -0.2343(4) 0.1295(4)
C13 C 0.2237(5) -0.3646(4) 0.1315(4)
C14 C 0.1904(6) 0.0174(5) 0.1066(7)
H7 H 0.1188 0.0580 0.0995
C15 C 0.1827(6) -0.0745(4) 0.1131(6)
H8 H 0.1078 -0.0944 0.1094
C16 C 0.2843(5) -0.1363(4) 0.1251(4)
C17 C 0.3904(6) -0.1014(4) 0.1298(6)
H9 H 0.4625 -0.1408 0.1384
C18 C 0.3913(7) -0.0089(4) 0.1219(6)
H10 H 0.4653 0.0124 0.1253
C19 C 0.4661(6) -1.6395(4) -0.6238(6)
H11 H 0.5056 -1.6985 -0.6257
C20 C 0.5390(6) -1.5730(4) -0.6196(5)
H12 H 0.6244 -1.5878 -0.6181
C21 C 0.4835(6) -1.4857(4) -0.6176(5)
H13 H 0.5309 -1.4400 -0.6158
C22 C 0.3544(5) -1.4660(4) -0.6184(4)
C23 C 0.2859(5) -1.5369(4) -0.6224(4)
C24 C 0.1508(5) -1.5216(4) -0.6226(4)
C25 C -0.0320(6) -1.5780(4) -0.6253(4)
H14 H -0.0734 -1.6268 -0.6277
C26 C -0.1034(6) -1.4940(4) -0.6213(5)
H15 H -0.1895 -1.4872 -0.6214
C27 C -0.0450(5) -1.4216(4) -0.6171(4)
H16 H -0.0908 -1.3646 -0.6143
C28 C 0.0842(5) -1.4343(4) -0.6170(4)
C29 C 0.1567(5) -1.3645(4) -0.6119(4)
C30 C 0.2842(5) -1.3772(4) -0.6143(4)
C31 C 0.2258(5) -1.2376(4) -0.6036(4)
C32 C 0.2231(5) -1.1409(4) -0.6001(4)
C33 C 0.1126(6) -1.0830(4) -0.5988(5)
H17 H 0.0375 -1.1054 -0.5985
C34 C 0.3305(6) -1.1027(4) -0.5995(5)
H18 H 0.4076 -1.1389 -0.6001
C35 C 0.1139(6) -0.9919(4) -0.5980(5)
H19 H 0.0381 -0.9541 -0.5973
C36 C 0.3231(6) -1.0108(4) -0.5981(5)
H20 H 0.3963 -0.9868 -0.5970
C37 C 0.2574(5) -0.7555(4) -0.0805(4)
C38 C 0.2548(5) -0.7692(4) -0.1743(4)
C39 C 0.1502(5) -0.8051(4) -0.1841(4)
H21 H 0.0821 -0.8200 -0.1320
C40 C 0.1469(6) -0.8187(4) -0.2709(4)
H22 H 0.0764 -0.8424 -0.2770
C41 C 0.2485(5) -0.7970(4) -0.3489(4)
C42 C 0.2449(6) -0.8080(4) -0.4448(4)
C43 C 0.3515(5) -0.7588(4) -0.3402(4)
H23 H 0.4186 -0.7421 -0.3926
C44 C 0.3536(5) -0.7456(4) -0.2528(4)
H24 H 0.4230 -0.7203 -0.2469
C45 C 0.5348(5) -0.8436(4) 0.1885(5)
C46 C 0.6565(5) -0.8420(3) 0.2175(4)
C47 C 0.7718(5) -0.8281(4) 0.1486(4)
H25 H 0.7752 -0.8275 0.0861
C48 C 0.8801(5) -0.8152(4) 0.1727(4)
H26 H 0.9560 -0.8054 0.1264
C49 C 0.8762(5) -0.8170(3) 0.2657(4)
C50 C 0.7636(5) -0.8336(4) 0.3343(4)
H27 H 0.7609 -0.8360 0.3971
C51 C 0.6545(5) -0.8466(4) 0.3101(4)
H28 H 0.5796 -0.8586 0.3568
C52 C 0.9942(5) -0.8014(4) 0.2921(4)
N1 N 0.4282(4) -0.6191(3) 0.1082(4)
N2 N 0.1725(4) -0.5971(3) 0.1170(4)
N3 N 0.3858(4) -0.2950(3) 0.1310(3)
H29 H 0.4601 -0.2831 0.1318
N4 N 0.1786(4) -0.2735(3) 0.1305(4)
N5 N 0.2942(5) 0.0511(3) 0.1098(4)
N6 N 0.2168(5) -0.9548(3) -0.5983(3)
O1 O 0.3628(4) -0.7367(3) -0.0702(3)
O2 O 0.1613(4) -0.7649(3) -0.0135(3)
O3 O 0.1348(3) -0.7932(3) -0.4647(3)
O4 O 0.3458(4) -0.8257(3) -0.5021(3)
O5 O 0.4314(4) -0.8437(3) 0.2500(3)
O6 O 0.5416(3) -0.8371(3) 0.1023(3)
O7 O 1.0982(4) -0.8052(3) 0.2319(3)
O8 O 0.9841(4) -0.7881(3) 0.3734(3)
N7 N 0.0910(4) -1.5933(3) -0.6261(3)
N8 N 0.3432(4) -1.6239(3) -0.6252(4)
N9 N 0.3281(4) -1.2975(3) -0.6100(3)
N10 N 0.1199(4) -1.2750(3) -0.6051(3)
H30 H 0.0444 -1.2475 -0.6024
Pb1 Pb 0.306870(18) -0.771710(14) 0.106810(15)
Pb2 Pb 0.216110(19) -0.772660(14) -0.634320(15)
N5_2 N 0.2942(5) -0.9489(3) 0.1098(4)
O5_2 O 0.4314(4) -0.8437(3) -0.7500(3)
O7_2 O 0.0982(4) -0.8052(3) 0.2319(3)
O7_3 O 0.0982(4) -0.8052(3) -0.7681(3)
O8_2 O -0.0159(4) -0.7881(3) -0.6266(3)
N7_2 N 0.0910(4) -0.5933(3) -0.6261(3)
N8_2 N 0.3432(4) -0.6239(3) -0.6252(4)
Pb1_2 Pb 0.306870(18) 0.228290(14) 0.106810(15)
Pb1_3 Pb 1.306870(18) -0.771710(14) 0.106810(15)
Pb2_2 Pb 0.216110(19) -0.772660(14) 0.365680(15)
Pb2_3 Pb 1.216110(19) -0.772660(14) 0.365680(15)
Pb2_4 Pb 0.216110(19) -1.772660(14) -0.634320(15)
loop_
_geom_bond_atom_site_label_1
_geom_bond_atom_site_label_2
_geom_bond_site_symmetry_1
_geom_bond_site_symmetry_2
C1 H1 1_555 1_555
C2 C1 1_555 1_555
H2 C2 1_555 1_555
C3 H3 1_555 1_555
C4 C3 1_555 1_555
H4 C4 1_555 1_555
C5 C7 1_555 1_555
C6 C4 1_555 1_555
H5 C6 1_555 1_555
C7 C6 1_555 1_555
C8 C7 1_555 1_555
C9 C8 1_555 1_555
C10 C1 1_555 1_555
H6 C10 1_555 1_555
C11 C9 1_555 1_555
C12 C16 1_555 1_555
C13 C5 1_555 1_555
C14 H7 1_555 1_555
C15 C14 1_555 1_555
H8 C15 1_555 1_555
C16 C15 1_555 1_555
C17 C16 1_555 1_555
H9 C17 1_555 1_555
C18 C17 1_555 1_555
H10 C18 1_555 1_555
C19 H11 1_555 1_555
C20 C19 1_555 1_555
H12 C20 1_555 1_555
C21 C20 1_555 1_555
H13 C21 1_555 1_555
C22 C21 1_555 1_555
C23 C22 1_555 1_555
C24 C23 1_555 1_555
C25 H14 1_555 1_555
C26 C25 1_555 1_555
H15 C26 1_555 1_555
C27 C26 1_555 1_555
H16 C27 1_555 1_555
C28 C24 1_555 1_555
C29 C28 1_555 1_555
C30 C22 1_555 1_555
C31 C32 1_555 1_555
C32 C33 1_555 1_555
C33 H17 1_555 1_555
C34 C32 1_555 1_555
H18 C34 1_555 1_555
C35 C33 1_555 1_555
H19 C35 1_555 1_555
C36 C34 1_555 1_555
H20 C36 1_555 1_555
C37 C38 1_555 1_555
C38 C39 1_555 1_555
C39 H21 1_555 1_555
C40 C39 1_555 1_555
H22 C40 1_555 1_555
C41 C40 1_555 1_555
C42 C41 1_555 1_555
C43 C41 1_555 1_555
H23 C43 1_555 1_555
C44 C38 1_555 1_555
H24 C44 1_555 1_555
C45 C46 1_555 1_555
C46 C47 1_555 1_555
C47 H25 1_555 1_555
C48 C47 1_555 1_555
H26 C48 1_555 1_555
C49 C48 1_555 1_555
C50 C49 1_555 1_555
H27 C50 1_555 1_555
C51 C46 1_555 1_555
H28 C51 1_555 1_555
C52 C49 1_555 1_555
N1 C3 1_555 1_555
N2 C2 1_555 1_555
N3 C5 1_555 1_555
H29 N3 1_555 1_555
N4 C12 1_555 1_555
N5 C14 1_555 1_555
N6 C35 1_555 1_555
O1 C37 1_555 1_555
O2 C37 1_555 1_555
O3 C42 1_555 1_555
O4 C42 1_555 1_555
O5 C45 1_555 1_555
O6 C45 1_555 1_555
O7 C52 1_555 1_555
O8 C52 1_555 1_555
N7 C24 1_555 1_555
N8 C19 1_555 1_555
N9 C30 1_555 1_555
N10 C29 1_555 1_555
H30 N10 1_555 1_555
Pb1 N1 1_555 1_555
Pb2 N6 1_555 1_555
N5_2 Pb1 1_555 1_555
O5_2 Pb2 1_555 1_555
O7_2 Pb1 1_555 1_555
O7_3 Pb2 1_555 1_555
O8_2 Pb2 1_555 1_555
N7_2 Pb2 1_555 1_555
N8_2 Pb2 1_555 1_555
Pb1_2 N5 1_555 1_555
Pb1_3 O7 1_555 1_555
Pb2_2 O5 1_555 1_555
Pb2_3 O7 1_555 1_555
Pb2_4 N7 1_555 1_555
C8 N1 1_555 1_555
C9 N2 1_555 1_555
C10 C11 1_555 1_555
C11 C13 1_555 1_555
C12 N3 1_555 1_555
C13 N4 1_555 1_555
C18 N5 1_555 1_555
C23 N8 1_555 1_555
C25 N7 1_555 1_555
C27 C28 1_555 1_555
C29 C30 1_555 1_555
C31 N9 1_555 1_555
C31 N10 1_555 1_555
C36 N6 1_555 1_555
C43 C44 1_555 1_555
C50 C51 1_555 1_555
N2 Pb1 1_555 1_555
O1 Pb1 1_555 1_555
O2 Pb1 1_555 1_555
O3 Pb2 1_555 1_555
O4 Pb2 1_555 1_555
O5 Pb1 1_555 1_555
O6 Pb1 1_555 1_555
O8 Pb2_3 1_555 1_555
N8 Pb2_4 1_555 1_555
O7_2 Pb2_2 1_555 1_555

#END
