
#######################################################################
#
#                 Cambridge Crystallographic Data Centre
#                                CCDC 
#
#######################################################################
#
# If this CIF has been generated from an entry in the Cambridge 
# Structural Database, then it will include bibliographic, chemical, 
# crystal, experimental, refinement or atomic coordinate data resulting 
# from the CCDC's data processing and validation procedures.
#
#######################################################################

data_FAFMEG
_symmetry_cell_setting           monoclinic
_symmetry_space_group_name_H-M   'P 21/n'
_symmetry_Int_Tables_number      14
_space_group_name_Hall           '-P 2yn'
loop_
_symmetry_equiv_pos_site_id
_symmetry_equiv_pos_as_xyz
1 x,y,z
2 1/2-x,1/2+y,1/2-z
3 -x,-y,-z
4 1/2+x,1/2-y,1/2+z
_cell_length_a                   6.1630(6)
_cell_length_b                   13.7698(10)
_cell_length_c                   12.4856(11)
_cell_angle_alpha                90
_cell_angle_beta                 101.370(8)
_cell_angle_gamma                90
_cell_volume                     1038.77
loop_
_atom_site_label
_atom_site_type_symbol
_atom_site_fract_x
_atom_site_fract_y
_atom_site_fract_z
Cu1 Cu 0.96536(4) 0.438375(18) 0.370120(19)
V1 V 0.97241(6) 0.54180(2) 0.12202(3)
F1 F 0.7280(2) 0.61927(9) 0.13772(11)
F2 F 1.1206(3) 0.65737(10) 0.09656(12)
F3 F 1.1748(2) 0.46611(9) 0.04611(10)
O1 O 1.0975(3) 0.52238(11) 0.24764(12)
N1 N 0.7868(3) 0.37056(12) 0.24042(13)
N2 N 0.7642(3) 0.41574(12) 0.13880(13)
N3 N 0.5257(3) 0.29648(12) 0.12491(13)
N4 N -0.2421(3) 0.03688(13) 0.08686(14)
N5 N -0.2818(3) 0.08723(13) -0.01205(13)
N6 N -0.0064(3) 0.15786(13) 0.09907(14)
C1 C 0.6428(3) 0.29921(15) 0.22963(17)
H1 H 0.6234 0.2564 0.2857
C2 C 0.6060(3) 0.37025(15) 0.07158(16)
H2 H 0.5557 0.3863 -0.0023
C3 C -0.0766(3) 0.08084(16) 0.15119(17)
H3 H -0.0155 0.0617 0.2231
C4 C -0.1380(4) 0.15891(15) -0.00192(17)
H4 H -0.1278 0.2044 -0.0568
C5 C 0.3494(4) 0.22702(16) 0.07982(18)
H5 H 0.4113 0.1613 0.0824
H6 H 0.2895 0.2431 0.0032
C6 C 0.1653(3) 0.22970(16) 0.14392(18)
H7 H 0.2252 0.2150 0.2209
H8 H 0.1001 0.2948 0.1397
Cu1A Cu -0.46536(4) -0.061625(18) 0.129880(19)
Cu1C Cu -0.53464(4) 0.061625(18) -0.129880(19)
V1B V 1.02759(6) 0.45820(2) -0.12202(3)
F3B F 0.8252(2) 0.53389(9) -0.04611(10)
N4A N 0.7421(3) 0.53688(13) 0.41314(14)
N5C N 1.2182(3) 0.41277(13) 0.48795(13)
loop_
_geom_bond_atom_site_label_1
_geom_bond_atom_site_label_2
_geom_bond_site_symmetry_1
_geom_bond_site_symmetry_2
Cu1 O1 1_555 1_555
V1 F1 1_555 1_555
F2 V1 1_555 1_555
F3 V1 1_555 1_555
O1 V1 1_555 1_555
N1 Cu1 1_555 1_555
N2 V1 1_555 1_555
N3 C1 1_555 1_555
N4 N5 1_555 1_555
N5 C4 1_555 1_555
N6 C3 1_555 1_555
C1 N1 1_555 1_555
H1 C1 1_555 1_555
C2 N2 1_555 1_555
H2 C2 1_555 1_555
C3 N4 1_555 1_555
H3 C3 1_555 1_555
C4 N6 1_555 1_555
H4 C4 1_555 1_555
C5 N3 1_555 1_555
H5 C5 1_555 1_555
H6 C5 1_555 1_555
C6 N6 1_555 1_555
H7 C6 1_555 1_555
H8 C6 1_555 1_555
Cu1A N4 1_555 1_555
Cu1C N5 1_555 1_555
V1B F3 1_555 1_555
F3B V1 1_555 1_555
N4A Cu1 1_555 1_555
N5C Cu1 1_555 1_555
N1 N2 1_555 1_555
N3 C2 1_555 1_555
C5 C6 1_555 1_555
V1B F3B 1_555 1_555

#END
