
#######################################################################
#
#                 Cambridge Crystallographic Data Centre
#                                CCDC 
#
#######################################################################
#
# If this CIF has been generated from an entry in the Cambridge 
# Structural Database, then it will include bibliographic, chemical, 
# crystal, experimental, refinement or atomic coordinate data resulting 
# from the CCDC's data processing and validation procedures.
#
#######################################################################

data_FAGCIA
_symmetry_cell_setting           tetragonal
_symmetry_space_group_name_H-M   'P -4 21 m'
_symmetry_Int_Tables_number      113
_space_group_name_Hall           'P -4 2ab'
loop_
_symmetry_equiv_pos_site_id
_symmetry_equiv_pos_as_xyz
1 x,y,z
2 -x,-y,z
3 1/2+x,1/2-y,-z
4 1/2-x,1/2+y,-z
5 1/2+y,1/2+x,z
6 1/2-y,1/2-x,z
7 -y,x,-z
8 y,-x,-z
_cell_length_a                   18.389(2)
_cell_length_b                   18.389(2)
_cell_length_c                   5.2020(10)
_cell_angle_alpha                90
_cell_angle_beta                 90
_cell_angle_gamma                90
_cell_volume                     1759.08
loop_
_atom_site_label
_atom_site_type_symbol
_atom_site_fract_x
_atom_site_fract_y
_atom_site_fract_z
Sb1 Sb -0.33189(8) 0.16811(8) -0.8677(5)
F1 F -0.4223(7) 0.1731(6) -0.786(3)
F2 F -0.2398(9) 0.1660(7) -0.968(3)
F3 F -0.3045(8) 0.1955(8) -0.562(3)
F4 F -0.3561(9) 0.1439(9) -1.188(4)
F1D F -0.3269(6) 0.0777(7) -0.786(3)
F2D F -0.3340(7) 0.2602(9) -0.968(3)
C8 C 0.0000 0.5000 0.344(15)
C9 C -0.0331(6) 0.4669(6) 0.104(15)
O1 O 0.0000 0.5000 -0.137(15)
C9A C 0.0331(6) 0.5331(6) 0.104(15)
Ag1 Ag -0.5000 0.5000 0.0000
N1 N -0.0395(4) 0.1069(3) 0.1934(15)
C1 C -0.0087(5) 0.1708(4) 0.159(2)
H1 H 0.0282 0.1738 0.0377
C2 C -0.0267(5) 0.2343(5) 0.2901(19)
H2 H -0.0042 0.2782 0.2506
C3 C -0.0800(4) 0.2303(4) 0.484(2)
C4 C -0.1124(5) 0.1627(4) 0.529(2)
H3 H -0.1468 0.1564 0.6582
C5 C -0.0908(5) 0.1049(4) 0.371(2)
H4 H -0.1148 0.0609 0.3937
C6 C -0.1049(5) 0.2959(5) 0.627(2)
H5 H -0.0657 0.3311 0.6372
H6 H -0.1188 0.2825 0.8004
C7 C -0.1705(5) 0.3295(5) 0.484(4)
H7 H -0.1551 0.3449 0.3147
H8 H -0.2076 0.2924 0.4628
C6D C -0.2041(5) 0.3951(5) 0.627(2)
C3D C -0.2697(4) 0.4200(4) 0.484(2)
C2D C -0.2657(5) 0.4733(5) 0.2901(19)
C1D C -0.3292(4) 0.4913(5) 0.159(2)
N1D N -0.3931(3) 0.4605(4) 0.1934(15)
Ag1B Ag 0.0000 0.0000 0.0000
N1E N -0.6069(3) 0.5395(4) 0.1934(15)
C1E C -0.6708(4) 0.5087(5) 0.159(2)
H1E H -0.6738 0.4718 0.0377
C2E C -0.7343(5) 0.5267(5) 0.2901(19)
H2E H -0.7782 0.5042 0.2506
C3E C -0.7303(4) 0.5800(4) 0.484(2)
C4E C -0.6627(4) 0.6124(5) 0.529(2)
H3E H -0.6564 0.6468 0.6582
C5E C -0.6049(4) 0.5908(5) 0.371(2)
H4E H -0.5609 0.6148 0.3937
C6E C -0.7959(5) 0.6049(5) 0.627(2)
H5E H -0.8311 0.5657 0.6372
H6E H -0.7825 0.6188 0.8004
C7E C -0.8295(5) 0.6705(5) 0.484(4)
C6A C -0.8951(5) 0.7041(5) 0.627(2)
C3A C -0.9200(4) 0.7697(4) 0.484(2)
C2A C -0.9733(5) 0.7657(5) 0.2901(19)
C1A C -0.9913(5) 0.8292(4) 0.159(2)
N1A N -0.9605(4) 0.8931(3) 0.1934(15)
Ag1B_2 Ag -1.0000 1.0000 0.0000
C5A C -0.9092(5) 0.8951(4) 0.371(2)
C4A C -0.8876(5) 0.8373(4) 0.529(2)
H3A H -0.8532 0.8436 0.6582
H4A H -0.8852 0.9391 0.3937
H1A H -1.0282 0.8262 0.0377
H2A H -0.9958 0.7218 0.2506
H5A H -0.9343 0.6689 0.6372
H6A H -0.8812 0.7175 0.8004
H7E H -0.8449 0.6551 0.3147
H8E H -0.7924 0.7076 0.4628
N1B N -0.5395(4) 0.3931(3) -0.1934(15)
N1C N -0.4605(4) 0.6069(3) -0.1934(15)
C5D C -0.3951(4) 0.4092(5) 0.371(2)
C4D C -0.3373(4) 0.3876(5) 0.529(2)
H3D H -0.3436 0.3532 0.6582
H4D H -0.4391 0.3852 0.3937
H1D H -0.3262 0.5282 0.0377
H2D H -0.2218 0.4958 0.2506
H5D H -0.1689 0.4343 0.6372
H6D H -0.2175 0.3812 0.8004
loop_
_geom_bond_atom_site_label_1
_geom_bond_atom_site_label_2
_geom_bond_site_symmetry_1
_geom_bond_site_symmetry_2
Ag1 N1D 1_555 1_555
N1 C1 1_555 1_555
C1 H1 1_555 1_555
C2 C1 1_555 1_555
H2 C2 1_555 1_555
C3 C2 1_555 1_555
C4 C3 1_555 1_555
H3 C4 1_555 1_555
C5 N1 1_555 1_555
H4 C5 1_555 1_555
C6 C3 1_555 1_555
H5 C6 1_555 1_555
H6 C6 1_555 1_555
C7 C6 1_555 1_555
H7 C7 1_555 1_555
H8 C7 1_555 1_555
Sb1 F1 1_555 1_555
F2 Sb1 1_555 1_555
F3 Sb1 1_555 1_555
F4 Sb1 1_555 1_555
C8 C9 1_555 1_555
C9 O1 1_555 1_555
O1 C9A 1_555 1_555
C6D C7 1_555 1_555
C3D C6D 1_555 1_555
C2D C3D 1_555 1_555
C1D C2D 1_555 1_555
N1D C1D 1_555 1_555
Ag1B N1 1_555 1_555
N1E Ag1 1_555 1_555
C1E N1E 1_555 1_555
H1E C1E 1_555 1_555
C2E C1E 1_555 1_555
H2E C2E 1_555 1_555
C3E C2E 1_555 1_555
C4E C3E 1_555 1_555
H3E C4E 1_555 1_555
C5E N1E 1_555 1_555
H4E C5E 1_555 1_555
C6E C3E 1_555 1_555
H5E C6E 1_555 1_555
H6E C6E 1_555 1_555
C7E C6E 1_555 1_555
C6A C7E 1_555 1_555
C3A C6A 1_555 1_555
C2A C3A 1_555 1_555
C1A C2A 1_555 1_555
N1A C1A 1_555 1_555
Ag1B_2 N1A 1_555 1_555
C5A N1A 1_555 1_555
C4A C3A 1_555 1_555
H3A C4A 1_555 1_555
H4A C5A 1_555 1_555
H1A C1A 1_555 1_555
H2A C2A 1_555 1_555
H5A C6A 1_555 1_555
H6A C6A 1_555 1_555
H7E C7E 1_555 1_555
H8E C7E 1_555 1_555
N1B Ag1 1_555 1_555
N1C Ag1 1_555 1_555
C5D N1D 1_555 1_555
C4D C3D 1_555 1_555
H3D C4D 1_555 1_555
H4D C5D 1_555 1_555
H1D C1D 1_555 1_555
H2D C2D 1_555 1_555
H5D C6D 1_555 1_555
H6D C6D 1_555 1_555
F1D Sb1 1_555 1_555
F2D Sb1 1_555 1_555
C9A C8 1_555 1_555
C4 C5 1_555 1_555
C9 C9A 1_555 1_555
C4E C5E 1_555 1_555
C5A C4A 1_555 1_555
C5D C4D 1_555 1_555

#END
