
#######################################################################
#
#                 Cambridge Crystallographic Data Centre
#                                CCDC 
#
#######################################################################
#
# If this CIF has been generated from an entry in the Cambridge 
# Structural Database, then it will include bibliographic, chemical, 
# crystal, experimental, refinement or atomic coordinate data resulting 
# from the CCDC's data processing and validation procedures.
#
#######################################################################

data_FAGTOX01
_symmetry_cell_setting           monoclinic
_symmetry_space_group_name_H-M   'P 21/n'
_symmetry_Int_Tables_number      14
_space_group_name_Hall           '-P 2yn'
loop_
_symmetry_equiv_pos_site_id
_symmetry_equiv_pos_as_xyz
1 x,y,z
2 1/2-x,1/2+y,1/2-z
3 -x,-y,-z
4 1/2+x,1/2-y,1/2+z
_cell_length_a                   14.347(1)
_cell_length_b                   7.5253(6)
_cell_length_c                   15.578(1)
_cell_angle_alpha                90
_cell_angle_beta                 115.382(1)
_cell_angle_gamma                90
_cell_volume                     1519.53
loop_
_atom_site_label
_atom_site_type_symbol
_atom_site_fract_x
_atom_site_fract_y
_atom_site_fract_z
Co1 Co 0.14268(3) 0.21474(6) 0.15202(3)
O1 O 0.0547(2) 0.3789(3) 0.1917(1)
O2 O -0.0812(2) 0.4255(4) 0.0572(2)
O3 O 0.2655(2) 0.5429(3) 0.3811(1)
O4 O 0.1460(2) 0.7326(3) 0.3813(2)
O5 O 0.0785(2) -0.0075(4) 0.1973(2)
O6 O 0.2659(2) 0.2424(3) 0.2867(1)
O7 O 0.2027(2) 0.4370(3) 0.1093(2)
O8 O 0.0232(2) 0.1852(4) 0.0152(2)
C1 C -0.0297(2) 0.4508(4) 0.1445(2)
C2 C -0.0747(2) 0.5688(4) 0.1952(2)
C3 C -0.1440(3) 0.7016(5) 0.1432(2)
C4 C -0.1895(3) 0.8111(5) 0.1849(3)
C5 C -0.1672(3) 0.7897(5) 0.2791(3)
C6 C -0.0994(3) 0.6592(5) 0.3308(3)
C7 C -0.0505(2) 0.5495(4) 0.2909(2)
C8 C 0.0183(2) 0.4061(4) 0.3523(2)
C9 C -0.0261(3) 0.2470(5) 0.3604(2)
C10 C 0.0321(3) 0.1115(5) 0.4174(3)
C11 C 0.1363(3) 0.1326(5) 0.4686(2)
C12 C 0.1830(2) 0.2881(5) 0.4600(2)
C13 C 0.1251(2) 0.4245(4) 0.4013(2)
C14 C 0.1817(2) 0.5806(4) 0.3870(2)
H1 H -0.159(2) 0.711(4) 0.079(2)
H2 H -0.233(2) 0.897(4) 0.149(2)
H3 H -0.204(2) 0.853(4) 0.308(2)
H4 H -0.080(2) 0.639(4) 0.396(2)
H5 H -0.101(2) 0.238(4) 0.324(2)
H6 H -0.005(2) 0.007(4) 0.421(2)
H7 H 0.176(2) 0.043(4) 0.505(2)
H8 H 0.250(2) 0.300(4) 0.489(2)
H9 H 0.056(3) 0.017(5) 0.231(3)
H10 H 0.106(3) -0.102(4) 0.211(2)
H11 H 0.256(2) 0.317(4) 0.324(2)
H12 H 0.282(3) 0.158(4) 0.320(2)
H13 H 0.259(2) 0.389(4) 0.113(2)
H14 H 0.172(2) 0.479(4) 0.052(2)
H15 H 0.027(3) 0.175(6) -0.022(2)
H16 H -0.021(3) 0.262(4) 0.016(2)
O3A O 0.2345(2) 0.0429(3) 0.1189(1)
Co1A Co 0.35732(3) 0.71474(6) 0.34798(3)
loop_
_geom_bond_atom_site_label_1
_geom_bond_atom_site_label_2
_geom_bond_site_symmetry_1
_geom_bond_site_symmetry_2
Co1 O1 1_555 1_555
O1 C1 1_555 1_555
O2 C1 1_555 1_555
O3 C14 1_555 1_555
O4 C14 1_555 1_555
O5 Co1 1_555 1_555
O6 Co1 1_555 1_555
O7 Co1 1_555 1_555
O8 Co1 1_555 1_555
C1 C2 1_555 1_555
C2 C3 1_555 1_555
C3 C4 1_555 1_555
C4 C5 1_555 1_555
C5 C6 1_555 1_555
C6 C7 1_555 1_555
C7 C2 1_555 1_555
C8 C7 1_555 1_555
C9 C8 1_555 1_555
C10 C9 1_555 1_555
C11 C10 1_555 1_555
C12 C11 1_555 1_555
C13 C8 1_555 1_555
C14 C13 1_555 1_555
H1 C3 1_555 1_555
H2 C4 1_555 1_555
H3 C5 1_555 1_555
H4 C6 1_555 1_555
H5 C9 1_555 1_555
H6 C10 1_555 1_555
H7 C11 1_555 1_555
H8 C12 1_555 1_555
H9 O5 1_555 1_555
H10 O5 1_555 1_555
H11 O6 1_555 1_555
H12 O6 1_555 1_555
H13 O7 1_555 1_555
H14 O7 1_555 1_555
H15 O8 1_555 1_555
H16 O8 1_555 1_555
O3A Co1 1_555 1_555
Co1A O3 1_555 1_555
C12 C13 1_555 1_555

#END
