
#######################################################################
#
#                 Cambridge Crystallographic Data Centre
#                                CCDC 
#
#######################################################################
#
# If this CIF has been generated from an entry in the Cambridge 
# Structural Database, then it will include bibliographic, chemical, 
# crystal, experimental, refinement or atomic coordinate data resulting 
# from the CCDC's data processing and validation procedures.
#
#######################################################################

data_FAGTOX
_symmetry_cell_setting           monoclinic
_symmetry_space_group_name_H-M   'P 21/n'
_symmetry_Int_Tables_number      14
_space_group_name_Hall           '-P 2yn'
loop_
_symmetry_equiv_pos_site_id
_symmetry_equiv_pos_as_xyz
1 x,y,z
2 1/2-x,1/2+y,1/2-z
3 -x,-y,-z
4 1/2+x,1/2-y,1/2+z
_cell_length_a                   14.3800(4)
_cell_length_b                   7.5373(2)
_cell_length_c                   15.6142(5)
_cell_angle_alpha                90
_cell_angle_beta                 115.3850(10)
_cell_angle_gamma                90
_cell_volume                     1528.96
loop_
_atom_site_label
_atom_site_type_symbol
_atom_site_fract_x
_atom_site_fract_y
_atom_site_fract_z
Co1 Co 0.142764(17) 0.71478(3) 0.152058(16)
O1 O 0.26590(11) 0.74269(19) 0.28665(9)
O2 O 0.23415(9) 0.54324(15) 0.11870(9)
O3 O 0.02368(12) 0.6856(2) 0.01457(11)
O4 O 0.20283(11) 0.93723(16) 0.10919(9)
O5 O 0.44528(10) 0.37872(17) 0.30824(9)
O6 O 0.35380(10) 0.73296(16) 0.11888(12)
O7 O 0.07886(14) 0.4919(2) 0.19727(13)
O8 O 0.58173(12) 0.4245(2) 0.44265(10)
C1 C 0.31705(16) 0.2871(2) 0.03983(13)
C2 C 0.48165(13) 0.4062(2) 0.14752(12)
C3 C 0.37472(13) 0.4240(2) 0.09850(12)
C4 C 0.31860(13) 0.5806(2) 0.11313(12)
C5 C 0.55104(13) 0.5490(2) 0.20892(13)
C6 C 0.64418(16) 0.7012(3) 0.35691(16)
C7 C 0.66790(16) 0.7901(3) 0.22153(17)
C8 C 0.52616(17) 0.2463(3) 0.13939(16)
C9 C 0.57493(12) 0.5693(2) 0.30518(13)
C10 C 0.53015(13) 0.4510(2) 0.35543(12)
C11 C 0.36340(17) 0.1319(3) 0.03132(15)
C12 C 0.46712(18) 0.1109(3) 0.08247(16)
C13 C 0.68927(17) 0.8119(3) 0.31556(18)
C14 C 0.59956(15) 0.6596(3) 0.16879(16)
H1 H 0.2488(15) 0.303(2) 0.0074(14)
H2 H 0.3264(15) 0.048(2) -0.0093(14)
H3 H 0.5965(17) 0.227(3) 0.1775(15)
H4 H 0.5848(15) 0.647(3) 0.1055(15)
H5 H 0.4973(17) 0.009(3) 0.0804(16)
H6 H 0.2568(17) 0.817(3) 0.3162(15)
H7 H 0.2746(16) 0.661(3) 0.3155(15)
H8 H 0.1656(17) 0.973(3) 0.0556(16)
H9 H 0.6585(18) 0.711(3) 0.4162(18)
H10 H 0.6974(15) 0.867(3) 0.1903(14)
H11 H 0.7290(17) 0.894(3) 0.3501(15)
H12 H 0.055(2) 0.518(4) 0.229(2)
H13 H 0.109(3) 0.409(4) 0.217(2)
H14 H -0.017(2) 0.748(3) 0.015(2)
H15 H 0.255(2) 0.895(4) 0.1083(19)
H16 H 0.004(3) 0.641(5) -0.035(2)
O5A O 0.05472(10) 0.87872(17) 0.19176(9)
Co1A Co 0.357236(17) 0.21478(3) 0.347942(16)
loop_
_geom_bond_atom_site_label_1
_geom_bond_atom_site_label_2
_geom_bond_site_symmetry_1
_geom_bond_site_symmetry_2
Co1 O1 1_555 1_555
O1 H6 1_555 1_555
O2 Co1 1_555 1_555
O3 Co1 1_555 1_555
O4 Co1 1_555 1_555
O5 C10 1_555 1_555
O6 C4 1_555 1_555
O7 Co1 1_555 1_555
O8 C10 1_555 1_555
C1 C3 1_555 1_555
C2 C3 1_555 1_555
C3 C4 1_555 1_555
C4 O2 1_555 1_555
C5 C2 1_555 1_555
C6 C9 1_555 1_555
C7 C13 1_555 1_555
C8 C2 1_555 1_555
C9 C5 1_555 1_555
C10 C9 1_555 1_555
C11 C1 1_555 1_555
C12 C8 1_555 1_555
C13 C6 1_555 1_555
C14 C5 1_555 1_555
H1 C1 1_555 1_555
H2 C11 1_555 1_555
H3 C8 1_555 1_555
H4 C14 1_555 1_555
H5 C12 1_555 1_555
H7 O1 1_555 1_555
H8 O4 1_555 1_555
H9 C6 1_555 1_555
H10 C7 1_555 1_555
H11 C13 1_555 1_555
H12 O7 1_555 1_555
H13 O7 1_555 1_555
H14 O3 1_555 1_555
H15 O4 1_555 1_555
H16 O3 1_555 1_555
O5A Co1 1_555 1_555
Co1A O5 1_555 1_555
C7 C14 1_555 1_555
C11 C12 1_555 1_555

#END
