
#######################################################################
#
#                 Cambridge Crystallographic Data Centre
#                                CCDC 
#
#######################################################################
#
# If this CIF has been generated from an entry in the Cambridge 
# Structural Database, then it will include bibliographic, chemical, 
# crystal, experimental, refinement or atomic coordinate data resulting 
# from the CCDC's data processing and validation procedures.
#
#######################################################################

data_FAGWAM
_symmetry_cell_setting           orthorhombic
_symmetry_space_group_name_H-M   'P n a 21'
_symmetry_Int_Tables_number      33
_space_group_name_Hall           'P 2c -2n'
loop_
_symmetry_equiv_pos_site_id
_symmetry_equiv_pos_as_xyz
1 x,y,z
2 -x,-y,1/2+z
3 1/2-x,1/2+y,1/2+z
4 1/2+x,1/2-y,z
_cell_length_a                   7.2073(4)
_cell_length_b                   16.5421(9)
_cell_length_c                   10.3692(6)
_cell_angle_alpha                90
_cell_angle_beta                 90
_cell_angle_gamma                90
_cell_volume                     1236.26
loop_
_atom_site_label
_atom_site_type_symbol
_atom_site_fract_x
_atom_site_fract_y
_atom_site_fract_z
Gd1 Gd -0.390840(12) 0.081990(5) -0.14167(2)
S1 S -0.09635(8) 0.13389(4) -0.41481(6)
O1 O -0.0852(3) 0.44357(13) -0.5583(2)
O2 O -0.1682(3) 0.45165(12) -0.76111(19)
O3 O -0.2930(3) 0.08077(10) -0.9132(2)
O4 O -0.2497(3) 0.19539(11) -1.01376(18)
O5 O -0.2641(3) 0.14079(13) -0.3349(2)
O6 O 0.0633(3) 0.17175(13) -0.35281(19)
O7 O -0.0610(3) 0.05006(12) -0.4516(2)
O8 O -0.6624(4) 0.08699(13) -0.0091(2)
H1 H -0.757(8) 0.085(2) -0.028(5)
H2 H -0.676(12) 0.075(4) 0.090(9)
O9 O -0.5551(4) 0.20596(12) -0.1874(2)
H3 H -0.522(6) 0.236(3) -0.217(4)
H4 H -0.633(7) 0.231(4) -0.180(6)
O10 O -0.6633(3) 0.05280(14) -0.2699(2)
H5 H -0.663(6) 0.012(3) -0.334(4)
H6 H -0.709(7) 0.097(3) -0.308(4)
O11 O -0.0575(3) 0.04947(13) -0.1328(3)
H7 H -0.060(7) 0.021(3) -0.085(5)
H8 H 0.018(5) 0.047(2) -0.180(4)
C1 C -0.1501(3) 0.31888(13) -0.6663(2)
C2 C -0.1926(4) 0.27912(14) -0.7811(2)
H9 H -0.214(4) 0.3141(19) -0.853(3)
C3 C -0.2042(3) 0.19487(14) -0.7852(2)
C4 C -0.1803(3) 0.14991(14) -0.6729(2)
H10 H -0.206(6) 0.097(2) -0.678(4)
C5 C -0.1366(3) 0.18965(15) -0.5583(2)
C6 C -0.1195(3) 0.27409(17) -0.5526(2)
H11 H -0.104(5) 0.295(3) -0.469(5)
C7 C -0.1329(4) 0.40956(15) -0.6616(3)
C8 C -0.2495(4) 0.15464(14) -0.9113(3)
O1B O -0.4148(3) -0.05643(13) -0.0583(2)
O2B O -0.3318(3) -0.04835(12) -0.26111(19)
O3_2 O -0.2930(3) 0.08077(10) 0.0868(2)
O4_2 O -0.2497(3) 0.19539(11) -0.01376(18)
Gd1B Gd -0.109160(12) 0.581990(5) -0.64167(2)
Gd1_2 Gd -0.390840(12) 0.081990(5) -1.14167(2)
loop_
_geom_bond_atom_site_label_1
_geom_bond_atom_site_label_2
_geom_bond_site_symmetry_1
_geom_bond_site_symmetry_2
Gd1 O5 1_555 1_555
S1 O5 1_555 1_555
O1 C7 1_555 1_555
O2 C7 1_555 1_555
O3 C8 1_555 1_555
O4 C8 1_555 1_555
O6 S1 1_555 1_555
O7 S1 1_555 1_555
O8 Gd1 1_555 1_555
H1 O8 1_555 1_555
H2 O8 1_555 1_555
O9 Gd1 1_555 1_555
H3 O9 1_555 1_555
H4 O9 1_555 1_555
O10 Gd1 1_555 1_555
H5 O10 1_555 1_555
H6 O10 1_555 1_555
O11 Gd1 1_555 1_555
H7 O11 1_555 1_555
H8 O11 1_555 1_555
C1 C2 1_555 1_555
C2 H9 1_555 1_555
C3 C2 1_555 1_555
C4 C3 1_555 1_555
H10 C4 1_555 1_555
C5 S1 1_555 1_555
C6 C1 1_555 1_555
H11 C6 1_555 1_555
C7 C1 1_555 1_555
C8 C3 1_555 1_555
O1B Gd1 1_555 1_555
O2B Gd1 1_555 1_555
O3_2 Gd1 1_555 1_555
O4_2 Gd1 1_555 1_555
Gd1B O1 1_555 1_555
Gd1_2 O3 1_555 1_555
O2 Gd1B 1_555 1_555
O4 Gd1_2 1_555 1_555
C4 C5 1_555 1_555
C5 C6 1_555 1_555

#END
