
#######################################################################
#
#                 Cambridge Crystallographic Data Centre
#                                CCDC 
#
#######################################################################
#
# If this CIF has been generated from an entry in the Cambridge 
# Structural Database, then it will include bibliographic, chemical, 
# crystal, experimental, refinement or atomic coordinate data resulting 
# from the CCDC's data processing and validation procedures.
#
#######################################################################

data_FAGXES
_symmetry_cell_setting           monoclinic
_symmetry_space_group_name_H-M   'P 21/c'
_symmetry_Int_Tables_number      14
_space_group_name_Hall           '-P 2ybc'
loop_
_symmetry_equiv_pos_site_id
_symmetry_equiv_pos_as_xyz
1 x,y,z
2 -x,1/2+y,1/2-z
3 -x,-y,-z
4 x,1/2-y,1/2+z
_cell_length_a                   15.369(5)
_cell_length_b                   10.394(5)
_cell_length_c                   14.085(5)
_cell_angle_alpha                90
_cell_angle_beta                 111.914(5)
_cell_angle_gamma                90
_cell_volume                     2087.44
loop_
_atom_site_label
_atom_site_type_symbol
_atom_site_fract_x
_atom_site_fract_y
_atom_site_fract_z
Cu1 Cu 0.70604(3) 0.45485(3) -0.04810(3)
C1 C 0.8496(2) 0.1599(3) 0.1492(2)
O1 O 0.75090(17) 0.3338(2) 0.15611(17)
O2 O 0.49125(19) 0.9487(2) -0.1631(2)
N1 N 0.63598(18) 0.6122(2) -0.08904(19)
N2 N 0.57270(19) 0.3859(2) -0.0866(2)
O3 O 0.66384(18) 0.0592(2) 0.1511(2)
O4 O 0.77823(16) 0.3045(2) 0.01406(17)
N3 N 0.81271(19) 0.5882(3) -0.0049(2)
C2 C 0.5421(2) 0.6088(3) -0.1227(2)
C3 C 0.9334(2) 0.1500(3) 0.1338(3)
H1 H 0.9487 0.2128 0.0956
C4 C 0.8274(2) 0.0666(3) 0.2075(2)
O5 O 0.7449(2) 0.0850(3) 0.3174(2)
C5 C 0.6814(2) 0.7246(3) -0.0796(2)
C6 C 0.5358(2) 0.8384(3) -0.1404(2)
C7 C 0.4898(2) 0.7198(3) -0.1496(2)
H2 H 0.4247 0.7163 -0.1736
C8 C 0.7874(2) 0.2748(3) 0.1055(2)
C9 C 0.8888(3) -0.0359(3) 0.2458(3)
H3 H 0.8741 -0.0993 0.2840
C10 C 0.6336(2) 0.8391(3) -0.1053(2)
H4 H 0.6660 0.9161 -0.0995
C11 C 0.7382(3) 0.0718(3) 0.2283(3)
C12 C 0.9425(2) 0.7822(4) 0.0227(3)
H5 H 0.9864 0.8474 0.0322
C13 C 0.7847(2) 0.7092(3) -0.0348(2)
C14 C 0.5053(2) 0.4775(3) -0.1208(2)
C15 C 0.8479(2) 0.8091(3) -0.0230(3)
H6 H 0.8271 0.8918 -0.0453
C16 C 0.4120(2) 0.4488(3) -0.1476(3)
H7 H 0.3668 0.5131 -0.1705
C17 C 0.5459(3) 0.2641(3) -0.0800(3)
H8 H 0.5916 0.2005 -0.0575
C18 C 0.4544(3) 0.2304(3) -0.1050(3)
H9 H 0.4383 0.1455 -0.0983
C19 C 0.3860(3) 0.3230(3) -0.1400(3)
H10 H 0.3231 0.3014 -0.1584
C20 C 0.9943(3) 0.0496(4) 0.1738(3)
H11 H 1.0509 0.0455 0.1643
C21 C 0.9048(3) 0.5649(3) 0.0380(3)
H12 H 0.9247 0.4812 0.0579
C22 C 0.9715(3) 0.6595(4) 0.0539(3)
H13 H 1.0350 0.6403 0.0852
C23 C 0.9701(3) -0.0453(4) 0.2283(3)
H14 H 1.0094 -0.1156 0.2531
H17 H 0.432(3) 0.946(4) -0.161(4)
Cu1C Cu 0.70604(3) 0.04515(3) 0.45190(3)
O5C O 0.7449(2) 0.4150(3) -0.1826(2)
O6 O 0.8079(3) 0.1103(3) 0.8724(3)
H15 H 0.787(4) 0.133(5) 0.8106(16)
H16 H 0.796(3) 0.172(3) 0.904(3)
loop_
_geom_bond_atom_site_label_1
_geom_bond_atom_site_label_2
_geom_bond_site_symmetry_1
_geom_bond_site_symmetry_2
Cu1 N1 1_555 1_555
C1 C3 1_555 1_555
O1 C8 1_555 1_555
O2 C6 1_555 1_555
N1 C2 1_555 1_555
N2 Cu1 1_555 1_555
O3 C11 1_555 1_555
O4 Cu1 1_555 1_555
N3 Cu1 1_555 1_555
C2 C7 1_555 1_555
C3 H1 1_555 1_555
C4 C1 1_555 1_555
O5 C11 1_555 1_555
C5 N1 1_555 1_555
O6 H15 1_555 1_555
C6 C7 1_555 1_555
C7 H2 1_555 1_555
C8 C1 1_555 1_555
C9 C4 1_555 1_555
H3 C9 1_555 1_555
C10 C5 1_555 1_555
H4 C10 1_555 1_555
C11 C4 1_555 1_555
C12 H5 1_555 1_555
C13 N3 1_555 1_555
C14 N2 1_555 1_555
C15 C12 1_555 1_555
H6 C15 1_555 1_555
C16 C14 1_555 1_555
H7 C16 1_555 1_555
C17 N2 1_555 1_555
H8 C17 1_555 1_555
C18 C17 1_555 1_555
H9 C18 1_555 1_555
C19 C16 1_555 1_555
H10 C19 1_555 1_555
C20 C3 1_555 1_555
H11 C20 1_555 1_555
C21 N3 1_555 1_555
H12 C21 1_555 1_555
C22 C12 1_555 1_555
H13 C22 1_555 1_555
C23 C9 1_555 1_555
H14 C23 1_555 1_555
H16 O6 1_555 1_555
H17 O2 1_555 1_555
Cu1C O5 1_555 1_555
O5C Cu1 1_555 1_555
O4 C8 1_555 1_555
C2 C14 1_555 1_555
C5 C13 1_555 1_555
C6 C10 1_555 1_555
C13 C15 1_555 1_555
C18 C19 1_555 1_555
C20 C23 1_555 1_555
C21 C22 1_555 1_555

#END
