
#######################################################################
#
#                 Cambridge Crystallographic Data Centre
#                                CCDC 
#
#######################################################################
#
# If this CIF has been generated from an entry in the Cambridge 
# Structural Database, then it will include bibliographic, chemical, 
# crystal, experimental, refinement or atomic coordinate data resulting 
# from the CCDC's data processing and validation procedures.
#
#######################################################################

data_FAHQAI
_symmetry_cell_setting           monoclinic
_symmetry_space_group_name_H-M   'P 21/c'
_symmetry_Int_Tables_number      14
_space_group_name_Hall           '-P 2ybc'
loop_
_symmetry_equiv_pos_site_id
_symmetry_equiv_pos_as_xyz
1 x,y,z
2 -x,1/2+y,1/2-z
3 -x,-y,-z
4 x,1/2-y,1/2+z
_cell_length_a                   11.805(2)
_cell_length_b                   24.903(5)
_cell_length_c                   9.881(2)
_cell_angle_alpha                90
_cell_angle_beta                 103.12(3)
_cell_angle_gamma                90
_cell_volume                     2828.99
loop_
_atom_site_label
_atom_site_type_symbol
_atom_site_fract_x
_atom_site_fract_y
_atom_site_fract_z
In1 In 0.26610(2) 0.119455(9) 0.71861(2)
O1 O 0.1773(2) 0.20347(9) 0.7327(2)
O2 O 0.0939(2) 0.12817(9) 0.7680(3)
O3 O 0.1984(2) 0.13482(10) 0.4756(2)
O4 O 0.1805(2) 0.05722(10) 0.5713(2)
O5 O -0.5521(2) 0.41119(12) 1.1275(3)
O6 O -0.5875(2) 0.33178(12) 1.2046(3)
N1 N 0.3281(2) 0.14083(12) 0.9593(3)
N2 N 0.3151(3) 0.04125(11) 0.8485(3)
C1 C 0.3323(3) 0.18943(15) 1.0136(4)
H1 H 0.3213 0.2187 0.9534
C2 C 0.3524(4) 0.19954(17) 1.1561(4)
H2 H 0.3520 0.2344 1.1895
C3 C 0.3725(4) 0.15706(19) 1.2446(4)
H3 H 0.3864 0.1628 1.3400
C4 C 0.3724(3) 0.10481(16) 1.1933(4)
C5 C 0.3921(4) 0.0580(2) 1.2798(4)
H4 H 0.4079 0.0619 1.3759
C6 C 0.3881(4) 0.00908(19) 1.2250(4)
H5 H 0.4023 -0.0205 1.2838
C7 C 0.3624(4) 0.00080(16) 1.0772(4)
C8 C 0.3573(5) -0.04980(18) 1.0157(5)
H6 H 0.3700 -0.0805 1.0705
C9 C 0.3334(5) -0.05380(16) 0.8739(5)
H7 H 0.3315 -0.0872 0.8314
C10 C 0.3120(4) -0.00735(16) 0.7940(4)
H8 H 0.2948 -0.0106 0.6977
C11 C 0.3413(3) 0.04552(14) 0.9887(4)
C12 C 0.3476(3) 0.09860(15) 1.0473(3)
C13 C 0.0957(3) 0.17951(14) 0.7684(3)
C14 C 0.0042(3) 0.20873(14) 0.8197(3)
C15 C -0.0928(3) 0.18194(15) 0.8401(4)
H9 H -0.1029 0.1458 0.8164
C16 C -0.1747(3) 0.20806(16) 0.8953(4)
H10 H -0.2397 0.1893 0.9077
C17 C -0.1620(3) 0.26200(16) 0.9327(4)
C18 C -0.0633(3) 0.28840(16) 0.9133(4)
H11 H -0.0519 0.3243 0.9386
C19 C 0.0181(3) 0.26206(15) 0.8568(4)
H12 H 0.0832 0.2806 0.8438
C20 C -0.2513(3) 0.28935(16) 0.9929(4)
C21 C -0.3189(4) 0.26000(17) 1.0645(5)
H13 H -0.3057 0.2233 1.0773
C22 C -0.4048(3) 0.28394(17) 1.1170(4)
H14 H -0.4486 0.2633 1.1648
C23 C -0.4269(3) 0.33846(16) 1.0995(4)
C24 C -0.3580(3) 0.36844(16) 1.0315(4)
H15 H -0.3699 0.4053 1.0209
C25 C -0.2719(3) 0.34414(17) 0.9795(4)
H16 H -0.2265 0.3650 0.9343
C26 C -0.5267(3) 0.36266(18) 1.1474(4)
C27 C 0.1639(3) 0.08710(16) 0.4642(4)
C28 C 0.1076(3) 0.06321(14) 0.3279(3)
C29 C 0.0726(4) 0.01001(16) 0.3194(4)
H17 H 0.0777 -0.0096 0.4007
C30 C 0.0304(4) -0.01449(16) 0.1932(4)
H18 H 0.0076 -0.0503 0.1907
C31 C 0.0212(3) 0.01367(14) 0.0682(3)
C32 C 0.0526(3) 0.06737(15) 0.0783(4)
H19 H 0.0455 0.0875 -0.0025
C33 C 0.0942(3) 0.09174(15) 0.2056(4)
H20 H 0.1134 0.1280 0.2088
In1C In 1.26610(2) 0.380545(9) 0.21861(2)
In1C_2 In -0.73390(2) 0.380545(9) 1.21861(2)
In1B In -0.26610(2) -0.119455(9) -0.71861(2)
O1C O 1.1773(2) 0.29653(9) 0.2327(2)
O2C O 1.0939(2) 0.37183(9) 0.2680(3)
O3B O -0.1984(2) -0.13482(10) -0.4756(2)
O3C O 1.1984(2) 0.36518(10) -0.0244(2)
O4B O -0.1805(2) -0.05722(10) -0.5713(2)
O4C O 1.1805(2) 0.44278(10) 0.0713(2)
O5C O 0.4479(2) 0.08881(12) 0.6275(3)
O6C O 0.4125(2) 0.16822(12) 0.7046(3)
O6_2 O 1.4125(2) 0.33178(12) 0.2046(3)
N1C N 1.3281(2) 0.35917(12) 0.4593(3)
N2C N 1.3151(3) 0.45875(11) 0.3485(3)
C1C C 1.3323(3) 0.31057(15) 0.5136(4)
H1C H 1.3213 0.2813 0.4534
C2C C 1.3524(4) 0.30046(17) 0.6561(4)
H2C H 1.3520 0.2656 0.6895
C3C C 1.3725(4) 0.34294(19) 0.7446(4)
H3C H 1.3864 0.3372 0.8400
C4C C 1.3724(3) 0.39519(16) 0.6933(4)
C5C C 1.3921(4) 0.4420(2) 0.7798(4)
H4C H 1.4079 0.4381 0.8759
C6C C 1.3881(4) 0.49092(19) 0.7250(4)
H5C H 1.4023 0.5205 0.7838
C7C C 1.3624(4) 0.49920(16) 0.5772(4)
C8C C 1.3573(5) 0.54980(18) 0.5157(5)
H6C H 1.3700 0.5805 0.5705
C9C C 1.3334(5) 0.55380(16) 0.3739(5)
H7C H 1.3315 0.5872 0.3314
C10C C 1.3120(4) 0.50735(16) 0.2940(4)
H8C H 1.2948 0.5106 0.1977
C11C C 1.3413(3) 0.45448(14) 0.4887(4)
C12C C 1.3476(3) 0.40140(15) 0.5473(3)
C13C C 1.0957(3) 0.32049(14) 0.2684(3)
C14C C 1.0042(3) 0.29127(14) 0.3197(3)
C15C C 0.9072(3) 0.31806(15) 0.3401(4)
H9C H 0.8971 0.3542 0.3164
C16C C 0.8253(3) 0.29194(16) 0.3953(4)
H10C H 0.7603 0.3107 0.4077
C17C C 0.8380(3) 0.23800(16) 0.4327(4)
C18C C 0.9367(3) 0.21160(16) 0.4133(4)
H11C H 0.9481 0.1757 0.4386
C19C C 1.0181(3) 0.23794(15) 0.3568(4)
H12C H 1.0832 0.2194 0.3438
C20C C 0.7487(3) 0.21065(16) 0.4929(4)
C21C C 0.6811(4) 0.24000(17) 0.5645(5)
H13C H 0.6943 0.2767 0.5773
C22C C 0.5952(3) 0.21606(17) 0.6170(4)
H14C H 0.5514 0.2367 0.6648
C23C C 0.5731(3) 0.16154(16) 0.5995(4)
C24C C 0.6420(3) 0.13156(16) 0.5315(4)
H15C H 0.6301 0.0947 0.5209
C25C C 0.7281(3) 0.15586(17) 0.4795(4)
H16C H 0.7735 0.1350 0.4343
C26C C 0.4733(3) 0.13734(18) 0.6474(4)
C27B C -0.1639(3) -0.08710(16) -0.4642(4)
C28B C -0.1076(3) -0.06321(14) -0.3279(3)
C29B C -0.0726(4) -0.01001(16) -0.3194(4)
H17B H -0.0777 0.0096 -0.4007
C30B C -0.0304(4) 0.01449(16) -0.1932(4)
H18B H -0.0076 0.0503 -0.1907
C31B C -0.0212(3) -0.01367(14) -0.0682(3)
C32B C -0.0526(3) -0.06737(15) -0.0783(4)
H19B H -0.0455 -0.0875 0.0025
C33B C -0.0942(3) -0.09174(15) -0.2056(4)
H20B H -0.1134 -0.1280 -0.2088
loop_
_geom_bond_atom_site_label_1
_geom_bond_atom_site_label_2
_geom_bond_site_symmetry_1
_geom_bond_site_symmetry_2
In1 O1 1_555 1_555
O1 C13 1_555 1_555
O2 In1 1_555 1_555
O3 In1 1_555 1_555
O4 In1 1_555 1_555
O5 C26 1_555 1_555
O6 C26 1_555 1_555
N1 In1 1_555 1_555
N2 In1 1_555 1_555
C1 N1 1_555 1_555
H1 C1 1_555 1_555
C2 C1 1_555 1_555
H2 C2 1_555 1_555
C3 C2 1_555 1_555
H3 C3 1_555 1_555
C4 C3 1_555 1_555
C5 C4 1_555 1_555
H4 C5 1_555 1_555
C6 C5 1_555 1_555
H5 C6 1_555 1_555
C7 C6 1_555 1_555
C8 C7 1_555 1_555
H6 C8 1_555 1_555
C9 C8 1_555 1_555
H7 C9 1_555 1_555
C10 N2 1_555 1_555
H8 C10 1_555 1_555
C11 N2 1_555 1_555
C12 N1 1_555 1_555
C13 O2 1_555 1_555
C14 C13 1_555 1_555
C15 C14 1_555 1_555
H9 C15 1_555 1_555
C16 C15 1_555 1_555
H10 C16 1_555 1_555
C17 C16 1_555 1_555
C18 C17 1_555 1_555
H11 C18 1_555 1_555
C19 C14 1_555 1_555
H12 C19 1_555 1_555
C20 C17 1_555 1_555
C21 C20 1_555 1_555
H13 C21 1_555 1_555
C22 C21 1_555 1_555
H14 C22 1_555 1_555
C23 C22 1_555 1_555
C24 C23 1_555 1_555
H15 C24 1_555 1_555
C25 C20 1_555 1_555
H16 C25 1_555 1_555
C26 C23 1_555 1_555
C27 O3 1_555 1_555
C28 C27 1_555 1_555
C29 C28 1_555 1_555
H17 C29 1_555 1_555
C30 C29 1_555 1_555
H18 C30 1_555 1_555
C31 C30 1_555 1_555
C32 C31 1_555 1_555
H19 C32 1_555 1_555
C33 C28 1_555 1_555
H20 C33 1_555 1_555
In1C O1C 1_555 1_555
In1C_2 O6 1_555 1_555
In1B O3B 1_555 1_555
O1C C13C 1_555 1_555
O2C In1C 1_555 1_555
O3B C27B 1_555 1_555
O3C In1C 1_555 1_555
O4B In1B 1_555 1_555
O4C In1C 1_555 1_555
O5C C26C 1_555 1_555
O6C In1 1_555 1_555
O6_2 In1C 1_555 1_555
N1C In1C 1_555 1_555
N2C In1C 1_555 1_555
C1C N1C 1_555 1_555
H1C C1C 1_555 1_555
C2C C1C 1_555 1_555
H2C C2C 1_555 1_555
C3C C2C 1_555 1_555
H3C C3C 1_555 1_555
C4C C3C 1_555 1_555
C5C C4C 1_555 1_555
H4C C5C 1_555 1_555
C6C C5C 1_555 1_555
H5C C6C 1_555 1_555
C7C C6C 1_555 1_555
C8C C7C 1_555 1_555
H6C C8C 1_555 1_555
C9C C8C 1_555 1_555
H7C C9C 1_555 1_555
C10C N2C 1_555 1_555
H8C C10C 1_555 1_555
C11C N2C 1_555 1_555
C12C N1C 1_555 1_555
C13C O2C 1_555 1_555
C14C C13C 1_555 1_555
C15C C14C 1_555 1_555
H9C C15C 1_555 1_555
C16C C15C 1_555 1_555
H10C C16C 1_555 1_555
C17C C16C 1_555 1_555
C18C C17C 1_555 1_555
H11C C18C 1_555 1_555
C19C C14C 1_555 1_555
H12C C19C 1_555 1_555
C20C C17C 1_555 1_555
C21C C20C 1_555 1_555
H13C C21C 1_555 1_555
C22C C21C 1_555 1_555
H14C C22C 1_555 1_555
C23C C22C 1_555 1_555
C24C C23C 1_555 1_555
H15C C24C 1_555 1_555
C25C C20C 1_555 1_555
H16C C25C 1_555 1_555
C26C O6C 1_555 1_555
C27B O4B 1_555 1_555
C28B C27B 1_555 1_555
C29B C28B 1_555 1_555
H17B C29B 1_555 1_555
C30B C29B 1_555 1_555
H18B C30B 1_555 1_555
C31B C31 1_555 1_555
C32B C31B 1_555 1_555
H19B C32B 1_555 1_555
C33B C28B 1_555 1_555
H20B C33B 1_555 1_555
O4 C27 1_555 1_555
C4 C12 1_555 1_555
C7 C11 1_555 1_555
C9 C10 1_555 1_555
C11 C12 1_555 1_555
C18 C19 1_555 1_555
C24 C25 1_555 1_555
C32 C33 1_555 1_555
C4C C12C 1_555 1_555
C7C C11C 1_555 1_555
C9C C10C 1_555 1_555
C11C C12C 1_555 1_555
C18C C19C 1_555 1_555
C23C C26C 1_555 1_555
C24C C25C 1_555 1_555
C30B C31B 1_555 1_555
C32B C33B 1_555 1_555

#END
