
#######################################################################
#
#                 Cambridge Crystallographic Data Centre
#                                CCDC 
#
#######################################################################
#
# If this CIF has been generated from an entry in the Cambridge 
# Structural Database, then it will include bibliographic, chemical, 
# crystal, experimental, refinement or atomic coordinate data resulting 
# from the CCDC's data processing and validation procedures.
#
#######################################################################

data_FAJCAV
_symmetry_cell_setting           monoclinic
_symmetry_space_group_name_H-M   'P 21/c'
_symmetry_Int_Tables_number      14
_space_group_name_Hall           '-P 2ybc'
loop_
_symmetry_equiv_pos_site_id
_symmetry_equiv_pos_as_xyz
1 x,y,z
2 -x,1/2+y,1/2-z
3 -x,-y,-z
4 x,1/2-y,1/2+z
_cell_length_a                   10.489(2)
_cell_length_b                   17.436(2)
_cell_length_c                   7.331(10)
_cell_angle_alpha                90.00
_cell_angle_beta                 90.00(2)
_cell_angle_gamma                90.00
_cell_volume                     1340.74
loop_
_atom_site_label
_atom_site_type_symbol
_atom_site_fract_x
_atom_site_fract_y
_atom_site_fract_z
C1 C -0.8880(10) 1.1604(5) 0.5073(14)
C2 C -1.0228(10) 1.2635(5) 0.5003(15)
C3 C -0.8069(10) 1.2909(5) 0.5212(15)
C4 C -0.5894(11) 1.3111(5) 0.5418(14)
C5 C -0.6622(10) 1.1837(5) 0.5253(14)
C6 C -0.7412(11) 1.0614(5) 0.5131(15)
N1 N -0.7839(8) 1.2118(4) 0.5160(11)
N2 N -1.0045(8) 1.1863(4) 0.4963(13)
N3 N -0.9260(8) 1.3168(4) 0.5133(14)
N4 N -0.7095(8) 1.3395(4) 0.5339(14)
N5 N -0.5635(8) 1.2332(4) 0.5349(13)
N6 N -0.6393(8) 1.1101(4) 0.5205(12)
N7 N -0.8643(8) 1.0860(4) 0.5053(13)
O1 O -1.1347(7) 1.2883(4) 0.4949(12)
O2 O -0.4983(7) 1.3562(4) 0.5561(11)
O3 O -0.7206(8) 0.9901(3) 0.5136(11)
O4 O -1.3582(10) 1.1670(4) 0.7277(13)
H1 H -1.346(12) 1.213(2) 0.694(11)
H2 H -1.380(12) 1.169(5) 0.839(6)
O5 O -1.2736(8) 0.9956(4) 1.0319(12)
H3 H -1.264(11) 0.9474(13) 1.024(15)
H4 H -1.224(10) 1.011(4) 1.115(14)
O6 O -0.9524(8) 0.9429(4) 0.8075(12)
H5 H -1.022(5) 0.969(4) 0.816(17)
H6 H -0.973(8) 0.8958(17) 0.817(15)
Rb1 Rb -1.11604(10) 1.07964(5) 0.76093(16)
Rb2 Rb -1.27956(11) 1.33415(5) 0.81546(15)
Rb3 Rb -0.51765(10) 1.50769(5) 0.74170(15)
O1C O -1.1347(7) 1.2117(4) 0.9949(12)
O2_2 O -1.4983(7) 1.3562(4) 0.5561(11)
O3B O -1.2794(8) 1.0099(3) 0.4864(11)
O3A O -1.2794(8) 1.4901(3) 0.9864(11)
O3A_2 O -0.2794(8) 1.4901(3) 0.9864(11)
O3C O -0.7206(8) 1.5099(3) 1.0136(11)
O4C O -1.3582(10) 1.3330(4) 1.2277(13)
O4A O -0.6418(10) 1.6670(4) 0.7723(13)
O5C O -0.2736(8) 1.5044(4) 0.5319(12)
O5A O -0.7264(8) 1.4956(4) 0.4681(12)
Rb1C Rb -1.11604(10) 1.42036(5) 0.26093(16)
Rb1B Rb -0.88396(10) 0.92036(5) 0.23907(16)
Rb1C_2 Rb -1.11604(10) 1.42036(5) 1.26093(16)
Rb1A Rb -0.88396(10) 1.57964(5) 0.73907(16)
Rb2C Rb -1.27956(11) 1.16585(5) 0.31546(15)
Rb2_2 Rb -0.27956(11) 1.33415(5) 0.81546(15)
Rb2A Rb -0.72044(11) 0.83415(5) 0.68454(15)
Rb3A Rb -0.48235(10) 1.00769(5) 0.75830(15)
Rb3C Rb -0.51765(10) 0.99231(5) 0.24170(15)
Rb3A_2 Rb -1.48235(10) 1.00769(5) 0.75830(15)
Rb3C_2 Rb -1.51765(10) 0.99231(5) 1.24170(15)
Rb3_2 Rb -1.51765(10) 1.50769(5) 0.74170(15)
Rb3B Rb -0.48235(10) 1.49231(5) 1.25830(15)
Rb3B_2 Rb -0.48235(10) 1.49231(5) 0.25830(15)
loop_
_geom_bond_atom_site_label_1
_geom_bond_atom_site_label_2
_geom_bond_site_symmetry_1
_geom_bond_site_symmetry_2
C1 N1 1_555 1_555
C2 N2 1_555 1_555
C3 N1 1_555 1_555
C4 N4 1_555 1_555
C5 N1 1_555 1_555
C6 N6 1_555 1_555
N2 C1 1_555 1_555
N3 C2 1_555 1_555
N4 C3 1_555 1_555
N5 C4 1_555 1_555
N6 C5 1_555 1_555
N7 C1 1_555 1_555
O1 C2 1_555 1_555
O2 C4 1_555 1_555
O3 C6 1_555 1_555
O4 H1 1_555 1_555
H2 O4 1_555 1_555
O5 H3 1_555 1_555
H4 O5 1_555 1_555
O6 H5 1_555 1_555
H6 O6 1_555 1_555
Rb1 N2 1_555 1_555
Rb2 O1 1_555 1_555
Rb3 O2 1_555 1_555
O1C Rb1 1_555 1_555
O2_2 Rb2 1_555 1_555
O3B Rb1 1_555 1_555
O3A Rb2 1_555 1_555
O3A_2 Rb3 1_555 1_555
O3C Rb3 1_555 1_555
O4C Rb2 1_555 1_555
O4A Rb3 1_555 1_555
O5C Rb3 1_555 1_555
O5A Rb3 1_555 1_555
Rb1C O1 1_555 1_555
Rb1B O3 1_555 1_555
Rb1C_2 O3A 1_555 1_555
Rb1A O3C 1_555 1_555
Rb2C O1 1_555 1_555
Rb2_2 O2 1_555 1_555
Rb2A O3 1_555 1_555
Rb3A O3 1_555 1_555
Rb3C O3 1_555 1_555
Rb3A_2 O4 1_555 1_555
Rb3C_2 O5 1_555 1_555
Rb3_2 O2_2 1_555 1_555
Rb3B O3A_2 1_555 1_555
Rb3B_2 O5C 1_555 1_555
C3 N3 1_555 1_555
C5 N5 1_555 1_555
C6 N7 1_555 1_555
O4 Rb1 1_555 1_555
O4 Rb2 1_555 1_555
O4 Rb2C 1_555 1_555
O5 Rb1 1_555 1_555
O5 Rb3A_2 1_555 1_555
O6 Rb1 1_555 1_555
Rb2 O1C 1_555 1_555
O3B Rb2C 1_555 1_555
O3B Rb3A_2 1_555 1_555
O3A Rb3_2 1_555 1_555
O3A_2 Rb2_2 1_555 1_555
O3C Rb3B 1_555 1_555
O4C Rb1C_2 1_555 1_555
O4A Rb1A 1_555 1_555
O5A Rb1A 1_555 1_555
O5A Rb3B_2 1_555 1_555

#END
