
#######################################################################
#
#                 Cambridge Crystallographic Data Centre
#                                CCDC 
#
#######################################################################
#
# If this CIF has been generated from an entry in the Cambridge 
# Structural Database, then it will include bibliographic, chemical, 
# crystal, experimental, refinement or atomic coordinate data resulting 
# from the CCDC's data processing and validation procedures.
#
#######################################################################

data_FAJPOV
_symmetry_cell_setting           monoclinic
_symmetry_space_group_name_H-M   'P 21/c'
_symmetry_Int_Tables_number      14
_space_group_name_Hall           '-P 2ybc'
loop_
_symmetry_equiv_pos_site_id
_symmetry_equiv_pos_as_xyz
1 x,y,z
2 -x,1/2+y,1/2-z
3 -x,-y,-z
4 x,1/2-y,1/2+z
_cell_length_a                   6.968(3)
_cell_length_b                   27.428(12)
_cell_length_c                   12.007(5)
_cell_angle_alpha                90
_cell_angle_beta                 97.67(4)
_cell_angle_gamma                90
_cell_volume                     2274.23
loop_
_atom_site_label
_atom_site_type_symbol
_atom_site_fract_x
_atom_site_fract_y
_atom_site_fract_z
Cd1 Cd 0.25874(6) 0.48983(2) 0.06493(4)
Cl1 Cl -0.0484(2) 0.4368(1) 0.0129(1)
Cl2 Cl 0.5965(2) 0.5287(1) 0.1213(1)
S1 S 0.4069(3) 0.4109(1) 0.2005(2)
S2 S 0.7174(4) 0.2703(1) 0.2280(3)
C1 C 0.4905(10) 0.3301(2) 0.0882(6)
C2 C 0.5815(10) 0.3780(3) 0.1295(8)
C3 C 0.2478(10) 0.3583(2) 0.2015(6)
C4 C 0.3681(9) 0.3138(2) 0.1773(6)
C5 C 0.5101(13) 0.2995(3) 0.2796(7)
C6 C 0.6456(12) 0.2904(3) 0.0841(8)
C7 C 0.3676(13) 0.3367(3) -0.0272(7)
C8 C 0.2057(17) 0.2997(4) -0.0522(8)
C9 C 0.1534(14) 0.2740(4) 0.0153(12)
C10 C 0.2414(12) 0.2707(3) 0.1344(9)
S3 S 0.1342(2) 0.5112(1) 0.2739(1)
S4 S 0.5431(3) 0.6375(1) 0.3497(2)
C11 C 0.3066(8) 0.5723(2) 0.4328(5)
C12 C 0.3523(9) 0.5275(2) 0.3666(5)
C13 C 0.0236(8) 0.5709(2) 0.2866(5)
C14 C 0.1789(8) 0.6044(2) 0.3463(5)
C15 C 0.3101(10) 0.6246(2) 0.2663(6)
C16 C 0.4901(9) 0.6020(3) 0.4690(6)
C17 C 0.2043(9) 0.5573(2) 0.5339(5)
C18 C 0.0788(10) 0.5967(3) 0.5710(6)
C19 C 0.0281(10) 0.6356(3) 0.5135(6)
C20 C 0.0867(9) 0.6479(2) 0.4021(6)
H1 H 0.676(9) 0.370(2) 0.184(5)
H2 H 0.643(9) 0.398(2) 0.091(5)
H3 H 0.146(8) 0.365(2) 0.139(4)
H4 H 0.195(9) 0.354(2) 0.269(5)
H5 H 0.578(8) 0.324(2) 0.327(5)
H6 H 0.437(9) 0.276(2) 0.322(5)
H7 H 0.600(10) 0.264(3) 0.043(6)
H8 H 0.756(9) 0.307(2) 0.043(5)
H9 H 0.308(8) 0.370(2) -0.032(5)
H10 H 0.447(12) 0.335(3) -0.077(8)
H11 H 0.168(12) 0.300(3) -0.130(7)
H12 H 0.022(12) 0.252(4) -0.017(7)
H13 H 0.159(9) 0.269(2) 0.184(5)
H14 H 0.318(8) 0.241(2) 0.142(5)
H15 H 0.457(7) 0.530(2) 0.321(4)
H16 H 0.377(6) 0.506(2) 0.414(3)
H17 H -0.018(7) 0.584(2) 0.222(4)
H18 H -0.073(7) 0.564(2) 0.339(4)
H19 H 0.318(6) 0.604(2) 0.217(3)
H20 H 0.271(10) 0.656(2) 0.224(6)
H21 H 0.593(7) 0.578(2) 0.491(4)
H22 H 0.475(9) 0.618(2) 0.531(5)
H23 H 0.305(9) 0.544(2) 0.595(5)
H24 H 0.128(8) 0.529(2) 0.514(5)
H25 H 0.030(9) 0.589(2) 0.635(5)
H26 H -0.070(7) 0.658(2) 0.527(4)
H27 H 0.166(8) 0.671(2) 0.416(4)
H28 H -0.014(11) 0.666(3) 0.339(6)
Cl1B Cl 0.0484(2) 0.5632(1) -0.0129(1)
Cl2B Cl 0.4035(2) 0.4713(1) -0.1213(1)
Cd1B Cd -0.25874(6) 0.51017(2) -0.06493(4)
Cd1B_2 Cd 0.74126(6) 0.51017(2) -0.06493(4)
loop_
_geom_bond_atom_site_label_1
_geom_bond_atom_site_label_2
_geom_bond_site_symmetry_1
_geom_bond_site_symmetry_2
Cd1 Cl1 1_555 1_555
Cl1 Cd1B 1_555 1_555
Cl2 Cd1 1_555 1_555
S1 Cd1 1_555 1_555
S2 C5 1_555 1_555
C1 C2 1_555 1_555
C2 S1 1_555 1_555
C3 S1 1_555 1_555
C4 C1 1_555 1_555
C5 C4 1_555 1_555
C6 S2 1_555 1_555
C7 C1 1_555 1_555
C8 C7 1_555 1_555
C9 C8 1_555 1_555
C10 C4 1_555 1_555
S3 Cd1 1_555 1_555
S4 C15 1_555 1_555
C11 C12 1_555 1_555
C12 S3 1_555 1_555
C13 S3 1_555 1_555
C14 C11 1_555 1_555
C15 C14 1_555 1_555
C16 S4 1_555 1_555
C17 C11 1_555 1_555
C18 C17 1_555 1_555
C19 C18 1_555 1_555
C20 C14 1_555 1_555
H1 C2 1_555 1_555
H2 C2 1_555 1_555
H3 C3 1_555 1_555
H4 C3 1_555 1_555
H5 C5 1_555 1_555
H6 C5 1_555 1_555
H7 C6 1_555 1_555
H8 C6 1_555 1_555
H9 C7 1_555 1_555
H10 C7 1_555 1_555
H11 C8 1_555 1_555
H12 C9 1_555 1_555
H13 C10 1_555 1_555
H14 C10 1_555 1_555
H15 C12 1_555 1_555
H16 C12 1_555 1_555
H17 C13 1_555 1_555
H18 C13 1_555 1_555
H19 C15 1_555 1_555
H20 C15 1_555 1_555
H21 C16 1_555 1_555
H22 C16 1_555 1_555
H23 C17 1_555 1_555
H24 C17 1_555 1_555
H25 C18 1_555 1_555
H26 C19 1_555 1_555
H27 C20 1_555 1_555
H28 C20 1_555 1_555
Cl1B Cd1 1_555 1_555
Cl2B Cd1 1_555 1_555
Cd1B Cl1B 1_555 1_555
Cd1B_2 Cl2 1_555 1_555
C1 C6 1_555 1_555
C3 C4 1_555 1_555
C9 C10 1_555 1_555
C11 C16 1_555 1_555
C13 C14 1_555 1_555
C19 C20 1_555 1_555
Cl2B Cd1B_2 1_555 1_555

#END
