
#######################################################################
#
#                 Cambridge Crystallographic Data Centre
#                                CCDC 
#
#######################################################################
#
# If this CIF has been generated from an entry in the Cambridge 
# Structural Database, then it will include bibliographic, chemical, 
# crystal, experimental, refinement or atomic coordinate data resulting 
# from the CCDC's data processing and validation procedures.
#
#######################################################################

data_FAJZIZ
_symmetry_cell_setting           monoclinic
_symmetry_space_group_name_H-M   'B 21/a'
_symmetry_Int_Tables_number      14
_space_group_name_Hall           '-B 2ybc'
loop_
_symmetry_equiv_pos_site_id
_symmetry_equiv_pos_as_xyz
1 x,y,z
2 1/2+x,y,1/2+z
3 1/2-x,1/2+y,-z
4 -x,1/2+y,1/2-z
5 -x,-y,-z
6 1/2-x,-y,1/2-z
7 1/2+x,1/2-y,z
8 x,1/2-y,1/2+z
_cell_length_a                   20.176(8)
_cell_length_b                   15.539(6)
_cell_length_c                   21.952(10)
_cell_angle_alpha                90
_cell_angle_beta                 90.30(6)
_cell_angle_gamma                90
_cell_volume                     6882.18
loop_
_atom_site_label
_atom_site_type_symbol
_atom_site_fract_x
_atom_site_fract_y
_atom_site_fract_z
Sn1 Sn 0.33627(3) 0.24029(4) 0.32243(3)
Sn2 Sn 0.41378(3) 0.26927(4) 0.56976(2)
O1 O 0.2841(3) 0.2679(4) 0.4090(3)
O2 O 0.3705(3) 0.2671(4) 0.4717(2)
O3 O 0.4638(3) 0.2594(4) 0.6597(3)
O4 O 0.3816(3) 0.2794(4) 0.7267(2)
C1 C 0.3107(5) 0.2749(7) 0.4605(4)
C2 C 0.4371(5) 0.2553(6) 0.7108(4)
C3 C 0.2433(4) 0.2203(5) 0.2807(3)
C4 C 0.1878(5) 0.2713(7) 0.2947(5)
C5 C 0.1266(5) 0.2519(8) 0.2673(6)
C6 C 0.1206(6) 0.1864(8) 0.2249(6)
C7 C 0.1733(6) 0.1379(8) 0.2121(5)
C8 C 0.2346(5) 0.1531(7) 0.2402(5)
C9 C 0.3805(4) 0.3627(5) 0.3192(4)
C10 C 0.4303(5) 0.3872(7) 0.3590(5)
C11 C 0.4570(7) 0.4720(9) 0.3534(7)
C12 C 0.4323(9) 0.5264(8) 0.3088(7)
C13 C 0.3845(7) 0.5041(7) 0.2703(6)
C14 C 0.3587(5) 0.4210(6) 0.2753(5)
C15 C 0.3818(5) 0.1238(5) 0.3529(4)
C16 C 0.3519(5) 0.0771(6) 0.3989(5)
C17 C 0.3801(8) 0.0019(8) 0.4205(6)
C18 C 0.4386(7) -0.0276(7) 0.3963(7)
C19 C 0.4697(7) 0.0191(7) 0.3519(6)
C20 C 0.4403(5) 0.0928(6) 0.3298(5)
C21 C 0.5057(4) 0.2352(5) 0.5289(3)
C22 C 0.5647(4) 0.2574(6) 0.5550(4)
C23 C 0.6249(5) 0.2427(6) 0.5289(5)
C24 C 0.6267(5) 0.1974(7) 0.4748(5)
C25 C 0.5685(5) 0.1744(6) 0.4460(5)
C26 C 0.5081(4) 0.1921(6) 0.4734(4)
C27 C 0.3447(4) 0.1717(5) 0.5924(4)
C28 C 0.3578(5) 0.0871(7) 0.5785(5)
C29 C 0.3109(7) 0.0248(7) 0.5914(7)
C30 C 0.2532(7) 0.0445(7) 0.6180(5)
C31 C 0.2396(5) 0.1263(8) 0.6334(5)
C32 C 0.2856(4) 0.1914(6) 0.6213(4)
C33 C 0.3893(4) 0.4012(5) 0.5761(4)
C34 C 0.3656(6) 0.4367(6) 0.6282(5)
C35 C 0.3483(7) 0.5274(7) 0.6300(7)
C36 C 0.3562(8) 0.5728(8) 0.5788(8)
C37 C 0.3827(9) 0.5398(9) 0.5289(7)
C38 C 0.3968(8) 0.4530(7) 0.5254(5)
H1 H 0.1922 0.3246 0.3261
H2 H 0.0833 0.2888 0.2795
H3 H 0.0737 0.1746 0.2024
H4 H 0.1686 0.0861 0.1795
H5 H 0.2759 0.1115 0.2301
H6 H 0.4485 0.3435 0.3935
H7 H 0.4961 0.4934 0.3836
H8 H 0.4530 0.5903 0.3052
H9 H 0.3663 0.5485 0.2363
H10 H 0.3202 0.4013 0.2439
H11 H 0.3058 0.0996 0.4181
H12 H 0.3562 -0.0338 0.4564
H13 H 0.4598 -0.0874 0.4121
H14 H 0.5169 -0.0017 0.3344
H15 H 0.4640 0.1274 0.2932
H16 H 0.5638 0.2884 0.5990
H17 H 0.6699 0.2660 0.5500
H18 H 0.6737 0.1799 0.4550
H19 H 0.5698 0.1427 0.4022
H20 H 0.4626 0.1723 0.4514
H21 H 0.4043 0.0694 0.5576
H22 H 0.3212 -0.0415 0.5799
H23 H 0.2174 -0.0055 0.6269
H24 H 0.1933 0.1418 0.6551
H25 H 0.2752 0.2569 0.6345
H26 H 0.3598 0.3974 0.6684
H27 H 0.3297 0.5569 0.6710
H28 H 0.3402 0.6392 0.5780
H29 H 0.3935 0.5811 0.4907
H30 H 0.4137 0.4256 0.4831
H31 H 0.2776 0.3043 0.4927
H32 H 0.4672 0.2524 0.7396
O4G O 0.3816(3) 0.2206(4) 0.2267(2)
Sn1G Sn 0.33627(3) 0.25971(4) 0.82243(3)
loop_
_geom_bond_atom_site_label_1
_geom_bond_atom_site_label_2
_geom_bond_site_symmetry_1
_geom_bond_site_symmetry_2
Sn1 O1 1_555 1_555
Sn2 O2 1_555 1_555
O1 C1 1_555 1_555
O2 C1 1_555 1_555
O3 Sn2 1_555 1_555
O4 C2 1_555 1_555
C1 H31 1_555 1_555
C2 O3 1_555 1_555
C3 Sn1 1_555 1_555
C4 C3 1_555 1_555
C5 C4 1_555 1_555
C6 C5 1_555 1_555
C7 C6 1_555 1_555
C8 C3 1_555 1_555
C9 Sn1 1_555 1_555
C10 C9 1_555 1_555
C11 C10 1_555 1_555
C12 C11 1_555 1_555
C13 C12 1_555 1_555
C14 C9 1_555 1_555
C15 Sn1 1_555 1_555
C16 C15 1_555 1_555
C17 C16 1_555 1_555
C18 C17 1_555 1_555
C19 C18 1_555 1_555
C20 C15 1_555 1_555
C21 Sn2 1_555 1_555
C22 C21 1_555 1_555
C23 C22 1_555 1_555
C24 C23 1_555 1_555
C25 C24 1_555 1_555
C26 C21 1_555 1_555
C27 Sn2 1_555 1_555
C28 C27 1_555 1_555
C29 C28 1_555 1_555
C30 C29 1_555 1_555
C31 C30 1_555 1_555
C32 C27 1_555 1_555
C33 Sn2 1_555 1_555
C34 C33 1_555 1_555
C35 C34 1_555 1_555
C36 C35 1_555 1_555
C37 C36 1_555 1_555
C38 C33 1_555 1_555
H1 C4 1_555 1_555
H2 C5 1_555 1_555
H3 C6 1_555 1_555
H4 C7 1_555 1_555
H5 C8 1_555 1_555
H6 C10 1_555 1_555
H7 C11 1_555 1_555
H8 C12 1_555 1_555
H9 C13 1_555 1_555
H10 C14 1_555 1_555
H11 C16 1_555 1_555
H12 C17 1_555 1_555
H13 C18 1_555 1_555
H14 C19 1_555 1_555
H15 C20 1_555 1_555
H16 C22 1_555 1_555
H17 C23 1_555 1_555
H18 C24 1_555 1_555
H19 C25 1_555 1_555
H20 C26 1_555 1_555
H21 C28 1_555 1_555
H22 C29 1_555 1_555
H23 C30 1_555 1_555
H24 C31 1_555 1_555
H25 C32 1_555 1_555
H26 C34 1_555 1_555
H27 C35 1_555 1_555
H28 C36 1_555 1_555
H29 C37 1_555 1_555
H30 C38 1_555 1_555
H32 C2 1_555 1_555
O4G Sn1 1_555 1_555
Sn1G O4 1_555 1_555
C7 C8 1_555 1_555
C13 C14 1_555 1_555
C19 C20 1_555 1_555
C25 C26 1_555 1_555
C31 C32 1_555 1_555
C37 C38 1_555 1_555

#END
