
#######################################################################
#
#                 Cambridge Crystallographic Data Centre
#                                CCDC 
#
#######################################################################
#
# If this CIF has been generated from an entry in the Cambridge 
# Structural Database, then it will include bibliographic, chemical, 
# crystal, experimental, refinement or atomic coordinate data resulting 
# from the CCDC's data processing and validation procedures.
#
#######################################################################

data_FAKCUP
_symmetry_cell_setting           orthorhombic
_symmetry_space_group_name_H-M   'I b a 2'
_symmetry_Int_Tables_number      45
_space_group_name_Hall           'I 2 -2c'
loop_
_symmetry_equiv_pos_site_id
_symmetry_equiv_pos_as_xyz
1 x,y,z
2 1/2+x,1/2+y,1/2+z
3 1/2-x,1/2+y,z
4 -x,y,1/2+z
5 1/2+x,1/2-y,z
6 x,-y,1/2+z
7 -x,-y,z
8 1/2-x,1/2-y,1/2+z
_cell_length_a                   9.345(4)
_cell_length_b                   29.563(5)
_cell_length_c                   12.005(2)
_cell_angle_alpha                90
_cell_angle_beta                 90
_cell_angle_gamma                90
_cell_volume                     3316.58
loop_
_atom_site_label
_atom_site_type_symbol
_atom_site_fract_x
_atom_site_fract_y
_atom_site_fract_z
Pt1 Pt 0.0000 0.0000 0.0000
Pt2 Pt 0.0000 0.0000 0.2303(1)
S1 S 0.2021(5) 0.0456(2) -0.0028(6)
S2 S 0.2421(6) 0.0152(2) 0.2361(7)
S3 S -0.1437(6) 0.0633(2) -0.0053(7)
S4 S -0.0440(6) 0.0776(2) 0.2343(7)
C1 C 0.2928(19) 0.0413(5) 0.1140(21)
C2 C 0.4369(23) 0.0637(7) 0.1138(28)
C3 C 0.4461(15) 0.1018(4) 0.2042(12)
C4 C 0.3531(15) 0.1387(4) 0.2016(12)
C5 C 0.3681(15) 0.1736(4) 0.2792(12)
C6 C 0.4761(15) 0.1715(4) 0.3593(12)
C7 C 0.5690(15) 0.1345(4) 0.3619(12)
C8 C 0.5540(15) 0.0997(4) 0.2843(12)
C9 C -0.1198(24) 0.0940(6) 0.1137(27)
C10 C -0.1679(21) 0.1426(7) 0.1081(25)
C11 C -0.0471(16) 0.1744(5) 0.0768(16)
C12 C -0.0113(16) 0.2084(5) 0.1525(16)
C13 C 0.0986(16) 0.2387(5) 0.1277(16)
C14 C 0.1726(16) 0.2350(5) 0.0272(16)
C15 C 0.1368(16) 0.2011(5) -0.0485(16)
C16 C 0.0270(16) 0.1707(5) -0.0236(16)
Pt2C Pt 0.0000 0.0000 -0.2697(1)
S1F S -0.2021(5) -0.0456(2) -0.0028(6)
S3F S 0.1437(6) -0.0633(2) -0.0053(7)
Pt1C Pt 0.0000 0.0000 0.5000
S2F S -0.2421(6) -0.0152(2) 0.2361(7)
S4F S 0.0440(6) -0.0776(2) 0.2343(7)
C1F C -0.2928(19) -0.0413(5) 0.1140(21)
C9F C 0.1198(24) -0.0940(6) 0.1137(27)
C2F C -0.4369(23) -0.0637(7) 0.1138(28)
C10F C 0.1679(21) -0.1426(7) 0.1081(25)
C3F C -0.4461(15) -0.1018(4) 0.2042(12)
C11F C 0.0471(16) -0.1744(5) 0.0768(16)
C4F C -0.3531(15) -0.1387(4) 0.2016(12)
C8F C -0.5540(15) -0.0997(4) 0.2843(12)
C12F C 0.0113(16) -0.2084(5) 0.1525(16)
C16F C -0.0270(16) -0.1707(5) -0.0236(16)
C5F C -0.3681(15) -0.1736(4) 0.2792(12)
C7F C -0.5690(15) -0.1345(4) 0.3619(12)
C13F C -0.0986(16) -0.2387(5) 0.1277(16)
C15F C -0.1368(16) -0.2011(5) -0.0485(16)
C6F C -0.4761(15) -0.1715(4) 0.3593(12)
C14F C -0.1726(16) -0.2350(5) 0.0272(16)
loop_
_geom_bond_atom_site_label_1
_geom_bond_atom_site_label_2
_geom_bond_site_symmetry_1
_geom_bond_site_symmetry_2
Pt1 Pt2 1_555 1_555
Pt2 S2 1_555 1_555
S1 Pt1 1_555 1_555
S2 C1 1_555 1_555
S3 Pt1 1_555 1_555
S4 Pt2 1_555 1_555
C1 S1 1_555 1_555
C2 C1 1_555 1_555
C3 C2 1_555 1_555
C4 C3 1_555 1_555
C5 C4 1_555 1_555
C6 C5 1_555 1_555
C7 C6 1_555 1_555
C8 C3 1_555 1_555
C9 S3 1_555 1_555
C10 C9 1_555 1_555
C11 C10 1_555 1_555
C12 C11 1_555 1_555
C13 C12 1_555 1_555
C14 C13 1_555 1_555
C15 C14 1_555 1_555
C16 C11 1_555 1_555
Pt2C Pt1 1_555 1_555
S1F Pt1 1_555 1_555
S3F Pt1 1_555 1_555
Pt1C Pt2 1_555 1_555
S2F Pt2 1_555 1_555
S4F Pt2 1_555 1_555
C1F S1F 1_555 1_555
C9F S3F 1_555 1_555
C2F C1F 1_555 1_555
C10F C9F 1_555 1_555
C3F C2F 1_555 1_555
C11F C10F 1_555 1_555
C4F C3F 1_555 1_555
C8F C3F 1_555 1_555
C12F C11F 1_555 1_555
C16F C11F 1_555 1_555
C5F C4F 1_555 1_555
C7F C8F 1_555 1_555
C13F C12F 1_555 1_555
C15F C16F 1_555 1_555
C6F C5F 1_555 1_555
C14F C13F 1_555 1_555
S4 C9 1_555 1_555
C7 C8 1_555 1_555
C15 C16 1_555 1_555
S2F C1F 1_555 1_555
S4F C9F 1_555 1_555
C7F C6F 1_555 1_555
C15F C14F 1_555 1_555

#END
