
#######################################################################
#
#                 Cambridge Crystallographic Data Centre
#                                CCDC 
#
#######################################################################
#
# If this CIF has been generated from an entry in the Cambridge 
# Structural Database, then it will include bibliographic, chemical, 
# crystal, experimental, refinement or atomic coordinate data resulting 
# from the CCDC's data processing and validation procedures.
#
#######################################################################

data_FAKGUV
_symmetry_cell_setting           monoclinic
_symmetry_space_group_name_H-M   'P 21/c'
_symmetry_Int_Tables_number      14
_space_group_name_Hall           '-P 2ybc'
loop_
_symmetry_equiv_pos_site_id
_symmetry_equiv_pos_as_xyz
1 x,y,z
2 -x,1/2+y,1/2-z
3 -x,-y,-z
4 x,1/2-y,1/2+z
_cell_length_a                   7.429
_cell_length_b                   24.143
_cell_length_c                   24.275
_cell_angle_alpha                90
_cell_angle_beta                 96.58
_cell_angle_gamma                90
_cell_volume                     4325.24
loop_
_atom_site_label
_atom_site_type_symbol
_atom_site_fract_x
_atom_site_fract_y
_atom_site_fract_z
Ni1 Ni 0.47151(4) 0.211698(14) 0.482814(12)
Ni2 Ni 0.07671(4) 0.003383(15) 0.206466(12)
O1 O -0.3338(2) -0.00799(8) 0.45320(6)
O2 O -0.0426(2) -0.05181(8) 0.14912(6)
O3 O -0.7704(2) -0.00199(8) 0.03144(7)
O4 O -0.0241(2) -0.02942(8) 0.28097(6)
O5 O 0.1191(2) 0.04992(8) 0.27906(6)
O6 O -0.2046(2) 0.02186(8) 0.16350(7)
C1 C -0.1380(3) 0.00121(11) 0.38570(9)
H1 H -0.2039 -0.0266 0.3660
O7 O 0.1278(2) 0.13987(9) 0.52450(7)
O8 O 0.3024(2) 0.14800(7) 0.45605(6)
N1 N 0.6200(2) 0.17155(9) 0.54665(7)
C2 C -0.4803(3) -0.12605(11) 0.05223(9)
N2 N 0.1783(3) 0.06184(9) 0.15929(8)
N3 N 0.3761(3) 0.12368(10) 0.13711(9)
N4 N 0.8418(2) 0.15502(10) 0.61279(7)
C3 C -0.3397(3) -0.04729(11) 0.10051(9)
C4 C -0.3360(3) -0.10275(11) 0.08555(9)
H2 H -0.2360 -0.1244 0.0980
C5 C 0.0368(3) 0.01402(12) 0.30485(10)
C6 C -0.6315(3) -0.03783(12) 0.04719(9)
C7 C -0.4144(3) 0.01618(12) 0.49775(10)
H3 H -0.4421 0.0549 0.4902
H4 H -0.3334 0.0136 0.5320
C8 C -0.0831(3) 0.05775(11) 0.46714(9)
H5 H -0.1144 0.0688 0.5015
C9 C 0.7837(3) 0.18640(12) 0.56867(9)
H6 H 0.8504 0.2150 0.5553
C10 C 0.7089(3) 0.11779(12) 0.61909(10)
H7 H 0.7112 0.0904 0.6461
C11 C -0.1846(3) 0.01760(11) 0.43678(9)
C12 C 0.0060(3) 0.02581(11) 0.36364(9)
C13 C 0.1725(3) 0.12649(11) 0.47842(9)
C14 C 0.0666(3) 0.08154(11) 0.44599(9)
C15 C -0.1878(3) -0.02355(12) 0.13985(9)
C16 C 0.4772(3) 0.28866(14) 0.26131(10)
C17 C 0.9999(3) 0.19650(13) 0.69903(10)
C18 C 1.0022(3) 0.26190(14) 0.79434(11)
C19 C 0.5721(3) 0.12819(12) 0.57854(9)
H8 H 0.4630 0.1090 0.5732
C20 C 0.2108(4) 0.13864(14) 0.11060(11)
H9 H 0.1856 0.1691 0.0876
C21 C 0.5167(4) 0.25808(14) 0.16934(12)
H10 H 0.5287 0.2669 0.1326
C22 C -0.6275(3) -0.09315(11) 0.03273(9)
H11 H -0.7238 -0.1084 0.0099
C23 C 0.5185(3) 0.20417(13) 0.18520(11)
C24 C -0.9352(3) -0.02398(12) 0.00384(11)
H12 H -0.9827 -0.0527 0.0261
H13 H -0.9151 -0.0396 -0.0317
C25 C 0.0920(4) 0.10045(13) 0.12441(11)
H14 H -0.0312 0.1003 0.1120
C26 C -0.4859(3) -0.01493(11) 0.08124(9)
H15 H -0.4878 0.0223 0.0909
C27 C 0.3492(4) 0.07776(12) 0.16601(10)
H16 H 0.4403 0.0593 0.1882
C28 C 0.9850(3) 0.20559(14) 0.79691(10)
H17 H 0.9736 0.1889 0.8309
C29 C 1.0145(3) 0.16044(14) 0.64855(10)
H18 H 1.1043 0.1762 0.6271
H19 H 1.0562 0.1239 0.6607
C30 C 0.5392(4) 0.15787(14) 0.14387(12)
H20 H 0.5600 0.1736 0.1084
H21 H 0.6431 0.1351 0.1570
C31 C 0.1086(3) 0.06554(11) 0.39443(9)
H22 H 0.2071 0.0816 0.3801
C32 C 1.0131(3) 0.28579(14) 0.74331(13)
H23 H 1.0217 0.3241 0.7404
C33 C 1.0112(3) 0.25310(14) 0.69616(11)
H24 H 1.0177 0.2699 0.6620
C34 C 0.9843(3) 0.17252(13) 0.74972(10)
H25 H 0.9733 0.1343 0.7525
C35 C 0.4754(4) 0.23403(15) 0.27684(12)
H26 H 0.4597 0.2250 0.3132
C36 C 0.4966(4) 0.19252(14) 0.23963(12)
H27 H 0.4961 0.1558 0.2513
C37 C -0.4782(3) -0.18662(12) 0.03991(10)
N5 N 0.8558(3) 0.31111(11) 0.86909(9)
C38 C 1.0253(3) 0.29650(15) 0.84672(12)
H28 H 1.1020 0.2764 0.8750
H29 H 1.0880 0.3304 0.8392
C39 C 0.6124(3) 0.35433(13) 0.88748(10)
H30 H 0.5186 0.3800 0.8863
C40 C 0.7847(3) 0.28546(14) 0.91007(11)
H31 H 0.8350 0.2540 0.9278
C41 C 0.7478(4) 0.35538(14) 0.85472(11)
H32 H 0.7639 0.3815 0.8275
N6 N 0.6341(3) 0.30957(10) 0.92284(8)
N7 N 0.5105(3) 0.38789(10) 0.28829(8)
C42 C 0.4973(4) 0.30024(14) 0.20693(12)
H33 H 0.4979 0.3369 0.1952
C43 C 0.4536(4) 0.33290(14) 0.30365(11)
H34 H 0.3269 0.3344 0.3097
H35 H 0.5225 0.3225 0.3385
C44 C 0.6727(3) 0.41078(12) 0.30429(10)
H36 H 0.7604 0.3949 0.3299
C45 C 0.5320(3) 0.46655(14) 0.24585(11)
H37 H 0.5052 0.4970 0.2229
C46 C 0.4204(3) 0.42375(14) 0.25154(11)
H38 H 0.3036 0.4194 0.2337
N8 N 0.6927(2) 0.45835(10) 0.27946(8)
O9 O -0.6021(2) -0.20812(8) 0.00586(7)
O10 O -0.3538(2) -0.21703(8) 0.06346(7)
O11 O 0.2796(2) 0.23541(8) 0.53843(7)
Ni1C Ni 0.47151(4) 0.288302(14) -0.017186(12)
Ni1A Ni -0.47151(4) -0.288302(14) 0.017186(12)
Ni1B Ni -1.47151(4) -0.211698(14) 0.517186(12)
Ni1C_2 Ni -1.52849(4) 0.288302(14) -0.017186(12)
Ni1C_3 Ni 0.47151(4) 0.288302(14) 0.982814(12)
Ni2B Ni -2.07671(4) -0.003383(15) -0.206466(12)
Ni2A Ni 0.92329(4) 0.503383(15) 0.293534(12)
Ni2B_2 Ni -1.07671(4) -0.003383(15) 0.793534(12)
Ni2C Ni -2.92329(4) -0.503383(15) -0.293534(12)
O1B O -0.6662(2) 0.00799(8) 0.54680(6)
O2B O -1.9574(2) 0.05181(8) -0.14912(6)
O3B O -1.2296(2) 0.00199(8) -0.03144(7)
O4B O -0.9759(2) 0.02942(8) 0.71903(6)
O4B_2 O -1.9759(2) 0.02942(8) -0.28097(6)
O5B O -1.1191(2) -0.04992(8) 0.72094(6)
O5B_2 O -2.1191(2) -0.04992(8) -0.27906(6)
O6B O -1.7954(2) -0.02186(8) -0.16350(7)
C1B C -0.8620(3) -0.00121(11) 0.61430(9)
H1B H -0.7961 0.0266 0.6340
O7B O -1.1278(2) -0.13987(9) 0.47550(7)
O8B O -1.3024(2) -0.14800(7) 0.54395(6)
O8C O 0.3024(2) 0.35200(7) -0.04395(6)
N1C N 0.6200(2) 0.32845(9) 0.04665(7)
C2B C -1.5197(3) 0.12605(11) -0.05223(9)
N2B N -2.1783(3) -0.06184(9) -0.15929(8)
N3B N -2.3761(3) -0.12368(10) -0.13711(9)
N4C N 0.8418(2) 0.34498(10) 0.11279(7)
C3B C -1.6603(3) 0.04729(11) -0.10051(9)
C4B C -1.6640(3) 0.10275(11) -0.08555(9)
H2B H -1.7640 0.1244 -0.0980
C5B C -1.0368(3) -0.01402(12) 0.69515(10)
C5B_2 C -2.0368(3) -0.01402(12) -0.30485(10)
C6B C -1.3685(3) 0.03783(12) -0.04719(9)
C7B C -0.5856(3) -0.01618(12) 0.50225(10)
H3B H -0.5579 -0.0549 0.5098
H4B H -0.6666 -0.0136 0.4680
C8B C -0.9169(3) -0.05775(11) 0.53286(9)
H5B H -0.8856 -0.0688 0.4985
C9C C 0.7837(3) 0.31360(12) 0.06867(9)
H6C H 0.8504 0.2850 0.0553
C10C C 0.7089(3) 0.38221(12) 0.11909(10)
H7C H 0.7112 0.4096 0.1461
C11B C -0.8154(3) -0.01760(11) 0.56322(9)
C12B C -1.0060(3) -0.02581(11) 0.63636(9)
C13B C -1.1725(3) -0.12649(11) 0.52158(9)
C14B C -1.0666(3) -0.08154(11) 0.55401(9)
C15B C -1.8122(3) 0.02355(12) -0.13985(9)
C16B C -2.4772(3) -0.28866(14) -0.26131(10)
C17C C 0.9999(3) 0.30350(13) 0.19903(10)
C18C C 1.0022(3) 0.23810(14) 0.29434(11)
C19C C 0.5721(3) 0.37181(12) 0.07854(9)
H8C H 0.4630 0.3910 0.0732
C20B C -2.2108(4) -0.13864(14) -0.11060(11)
H9B H -2.1856 -0.1691 -0.0876
C21B C -2.5167(4) -0.25808(14) -0.16934(12)
H10B H -2.5287 -0.2669 -0.1326
C22B C -1.3725(3) 0.09315(11) -0.03273(9)
H11B H -1.2762 0.1084 -0.0099
C23B C -2.5185(3) -0.20417(13) -0.18520(11)
C24B C -1.0648(3) 0.02398(12) -0.00384(11)
H12B H -1.0173 0.0527 -0.0261
H13B H -1.0849 0.0396 0.0317
C25B C -2.0920(4) -0.10045(13) -0.12441(11)
H14B H -1.9688 -0.1003 -0.1120
C26B C -1.5141(3) 0.01493(11) -0.08124(9)
H15B H -1.5122 -0.0223 -0.0909
C27B C -2.3492(4) -0.07776(12) -0.16601(10)
H16B H -2.4403 -0.0593 -0.1882
C28C C 0.9850(3) 0.29441(14) 0.29691(10)
H17C H 0.9736 0.3111 0.3309
C29C C 1.0145(3) 0.33956(14) 0.14855(10)
H18C H 1.1043 0.3238 0.1271
H19C H 1.0562 0.3761 0.1607
C30B C -2.5392(4) -0.15787(14) -0.14387(12)
H20B H -2.5600 -0.1736 -0.1084
H21B H -2.6431 -0.1351 -0.1570
C31B C -1.1086(3) -0.06554(11) 0.60557(9)
H22B H -1.2071 -0.0816 0.6199
C32C C 1.0131(3) 0.21421(14) 0.24331(13)
H23C H 1.0217 0.1759 0.2404
C33C C 1.0112(3) 0.24690(14) 0.19616(11)
H24C H 1.0177 0.2301 0.1620
C34C C 0.9843(3) 0.32748(13) 0.24972(10)
H25C H 0.9733 0.3657 0.2525
C35B C -2.4754(4) -0.23403(15) -0.27684(12)
H26B H -2.4597 -0.2250 -0.3132
C36B C -2.4966(4) -0.19252(14) -0.23963(12)
H27B H -2.4961 -0.1558 -0.2513
C37B C -1.5218(3) 0.18662(12) -0.03991(10)
C37A C 0.4782(3) 0.31338(12) 0.46009(10)
C37B_2 C 0.4782(3) 0.18662(12) -0.03991(10)
N5C N 0.8558(3) 0.18889(11) 0.36909(9)
C38C C 1.0253(3) 0.20350(15) 0.34672(12)
H28C H 1.1020 0.2236 0.3750
H29C H 1.0880 0.1696 0.3392
C39C C 0.6124(3) 0.14567(13) 0.38748(10)
H30C H 0.5186 0.1200 0.3863
C40C C 0.7847(3) 0.21454(14) 0.41007(11)
H31C H 0.8350 0.2460 0.4278
C41C C 0.7478(4) 0.14462(14) 0.35472(11)
H32C H 0.7639 0.1185 0.3275
N6C N 0.6341(3) 0.19043(10) 0.42284(8)
N6_2 N 0.6341(3) 0.30957(10) -0.07716(8)
N7B N -2.5105(3) -0.38789(10) -0.28829(8)
C42B C -2.4973(4) -0.30024(14) -0.20693(12)
H33B H -2.4979 -0.3369 -0.1952
C43B C -2.4536(4) -0.33290(14) -0.30365(11)
H34B H -2.3269 -0.3344 -0.3097
H35B H -2.5225 -0.3225 -0.3385
C44B C -2.6727(3) -0.41078(12) -0.30429(10)
H36B H -2.7604 -0.3949 -0.3299
C45B C -2.5320(3) -0.46655(14) -0.24585(11)
H37B H -2.5052 -0.4970 -0.2229
C46B C -2.4204(3) -0.42375(14) -0.25154(11)
H38B H -2.3036 -0.4194 -0.2337
N8B N -2.6927(2) -0.45835(10) -0.27946(8)
N8A N 0.3073(2) -0.04165(10) 0.22054(8)
N8C N -2.3073(2) 0.04165(10) -0.22054(8)
O9B O -1.3979(2) 0.20812(8) -0.00586(7)
O9A O 0.6021(2) 0.29188(8) 0.49414(7)
O9B_2 O 0.6021(2) 0.20812(8) -0.00586(7)
O10B O -1.6462(2) 0.21703(8) -0.06346(7)
O10A O 0.3538(2) 0.28297(8) 0.43654(7)
O10B_2 O 0.3538(2) 0.21703(8) -0.06346(7)
O11C O 0.2796(2) 0.26459(8) 0.03843(7)
O12 O -0.9848(4) -0.19115(14) 0.00110(15)
loop_
_geom_bond_atom_site_label_1
_geom_bond_atom_site_label_2
_geom_bond_site_symmetry_1
_geom_bond_site_symmetry_2
Ni1 O8 1_555 1_555
Ni2 O2 1_555 1_555
O1 C7 1_555 1_555
O2 C15 1_555 1_555
O3 C6 1_555 1_555
O4 Ni2 1_555 1_555
O5 Ni2 1_555 1_555
O6 Ni2 1_555 1_555
C1 H1 1_555 1_555
O7 C13 1_555 1_555
O8 C13 1_555 1_555
N1 Ni1 1_555 1_555
C2 C4 1_555 1_555
N2 Ni2 1_555 1_555
N3 C20 1_555 1_555
N4 C9 1_555 1_555
C3 C4 1_555 1_555
C4 H2 1_555 1_555
C5 O4 1_555 1_555
C6 C22 1_555 1_555
C7 H3 1_555 1_555
H4 C7 1_555 1_555
C8 H5 1_555 1_555
C9 N1 1_555 1_555
H6 C9 1_555 1_555
C10 N4 1_555 1_555
H7 C10 1_555 1_555
C11 O1 1_555 1_555
C12 C1 1_555 1_555
C13 C14 1_555 1_555
C14 C8 1_555 1_555
C15 O6 1_555 1_555
C16 C35 1_555 1_555
C17 C29 1_555 1_555
C18 C28 1_555 1_555
C19 N1 1_555 1_555
H8 C19 1_555 1_555
C20 H9 1_555 1_555
C21 H10 1_555 1_555
C22 C2 1_555 1_555
H11 C22 1_555 1_555
C23 C21 1_555 1_555
C24 O3 1_555 1_555
H12 C24 1_555 1_555
H13 C24 1_555 1_555
C25 N2 1_555 1_555
H14 C25 1_555 1_555
C26 C3 1_555 1_555
H15 C26 1_555 1_555
C27 N2 1_555 1_555
H16 C27 1_555 1_555
C28 H17 1_555 1_555
C29 N4 1_555 1_555
H18 C29 1_555 1_555
H19 C29 1_555 1_555
C30 N3 1_555 1_555
H20 C30 1_555 1_555
H21 C30 1_555 1_555
C31 C12 1_555 1_555
H22 C31 1_555 1_555
C32 C18 1_555 1_555
H23 C32 1_555 1_555
C33 C17 1_555 1_555
H24 C33 1_555 1_555
C34 C17 1_555 1_555
H25 C34 1_555 1_555
C35 H26 1_555 1_555
C36 C23 1_555 1_555
H27 C36 1_555 1_555
C37 C2 1_555 1_555
N5 C38 1_555 1_555
C38 C18 1_555 1_555
H28 C38 1_555 1_555
H29 C38 1_555 1_555
C39 H30 1_555 1_555
C40 N5 1_555 1_555
H31 C40 1_555 1_555
C41 N5 1_555 1_555
H32 C41 1_555 1_555
N6 C39 1_555 1_555
N7 C43 1_555 1_555
C42 C16 1_555 1_555
H33 C42 1_555 1_555
C43 C16 1_555 1_555
H34 C43 1_555 1_555
H35 C43 1_555 1_555
C44 N7 1_555 1_555
H36 C44 1_555 1_555
C45 H37 1_555 1_555
C46 N7 1_555 1_555
H38 C46 1_555 1_555
N8 C44 1_555 1_555
O9 C37 1_555 1_555
O10 C37 1_555 1_555
O11 Ni1 1_555 1_555
Ni1C O8C 1_555 1_555
Ni1A O9 1_555 1_555
Ni1B O8B 1_555 1_555
Ni1C_2 O9B 1_555 1_555
Ni1C_3 N6 1_555 1_555
Ni2B O2B 1_555 1_555
Ni2A N8 1_555 1_555
Ni2B_2 O4B 1_555 1_555
Ni2C N8B 1_555 1_555
O1B C7B 1_555 1_555
O2B C15B 1_555 1_555
O3B C6B 1_555 1_555
O4B C5B 1_555 1_555
O4B_2 Ni2B 1_555 1_555
O5B Ni2B_2 1_555 1_555
O5B_2 Ni2B 1_555 1_555
O6B Ni2B 1_555 1_555
C1B H1B 1_555 1_555
O7B C13B 1_555 1_555
O8B C13B 1_555 1_555
N1C Ni1C 1_555 1_555
C2B C4B 1_555 1_555
N2B Ni2B 1_555 1_555
N3B C20B 1_555 1_555
N4C C9C 1_555 1_555
C3B C4B 1_555 1_555
C4B H2B 1_555 1_555
C5B O5B 1_555 1_555
C5B_2 O4B_2 1_555 1_555
C6B C22B 1_555 1_555
C7B C7 1_555 1_555
H3B C7B 1_555 1_555
H4B C7B 1_555 1_555
C8B H5B 1_555 1_555
C9C N1C 1_555 1_555
H6C C9C 1_555 1_555
C10C N4C 1_555 1_555
H7C C10C 1_555 1_555
C11B O1B 1_555 1_555
C12B C1B 1_555 1_555
C13B C14B 1_555 1_555
C14B C8B 1_555 1_555
C15B O6B 1_555 1_555
C16B C35B 1_555 1_555
C17C C29C 1_555 1_555
C18C C28C 1_555 1_555
C19C N1C 1_555 1_555
H8C C19C 1_555 1_555
C20B H9B 1_555 1_555
C21B H10B 1_555 1_555
C22B C2B 1_555 1_555
H11B C22B 1_555 1_555
C23B C21B 1_555 1_555
C24B C24 1_555 1_555
H12B C24B 1_555 1_555
H13B C24B 1_555 1_555
C25B N2B 1_555 1_555
H14B C25B 1_555 1_555
C26B C3B 1_555 1_555
H15B C26B 1_555 1_555
C27B N2B 1_555 1_555
H16B C27B 1_555 1_555
C28C H17C 1_555 1_555
C29C N4C 1_555 1_555
H18C C29C 1_555 1_555
H19C C29C 1_555 1_555
C30B N3B 1_555 1_555
H20B C30B 1_555 1_555
H21B C30B 1_555 1_555
C31B C12B 1_555 1_555
H22B C31B 1_555 1_555
C32C C18C 1_555 1_555
H23C C32C 1_555 1_555
C33C C17C 1_555 1_555
H24C C33C 1_555 1_555
C34C C17C 1_555 1_555
H25C C34C 1_555 1_555
C35B H26B 1_555 1_555
C36B C23B 1_555 1_555
H27B C36B 1_555 1_555
C37B C2B 1_555 1_555
C37A O9A 1_555 1_555
C37B_2 O9B_2 1_555 1_555
N5C C38C 1_555 1_555
C38C C18C 1_555 1_555
H28C C38C 1_555 1_555
H29C C38C 1_555 1_555
C39C H30C 1_555 1_555
C40C N5C 1_555 1_555
H31C C40C 1_555 1_555
C41C N5C 1_555 1_555
H32C C41C 1_555 1_555
N6C Ni1 1_555 1_555
N6_2 Ni1C 1_555 1_555
N7B C43B 1_555 1_555
C42B C16B 1_555 1_555
H33B C42B 1_555 1_555
C43B C16B 1_555 1_555
H34B C43B 1_555 1_555
H35B C43B 1_555 1_555
C44B N7B 1_555 1_555
H36B C44B 1_555 1_555
C45B H37B 1_555 1_555
C46B N7B 1_555 1_555
H38B C46B 1_555 1_555
N8B C44B 1_555 1_555
N8A Ni2 1_555 1_555
N8C Ni2B 1_555 1_555
O9B C37B 1_555 1_555
O9A Ni1 1_555 1_555
O9B_2 Ni1C 1_555 1_555
O10B Ni1C_2 1_555 1_555
O10A Ni1 1_555 1_555
O10B_2 Ni1C 1_555 1_555
O11C Ni1C 1_555 1_555
O5 C5 1_555 1_555
C1 C11 1_555 1_555
N3 C27 1_555 1_555
C3 C15 1_555 1_555
C5 C12 1_555 1_555
C6 C26 1_555 1_555
C8 C11 1_555 1_555
C10 C19 1_555 1_555
C14 C31 1_555 1_555
C20 C25 1_555 1_555
C21 C42 1_555 1_555
C23 C30 1_555 1_555
C28 C34 1_555 1_555
C32 C33 1_555 1_555
C35 C36 1_555 1_555
C39 C41 1_555 1_555
C40 N6 1_555 1_555
C45 C46 1_555 1_555
C45 N8 1_555 1_555
O10 Ni1A 1_555 1_555
O3B C24B 1_555 1_555
O5B_2 C5B_2 1_555 1_555
C1B C11B 1_555 1_555
N3B C27B 1_555 1_555
C3B C15B 1_555 1_555
C5B C12B 1_555 1_555
C6B C26B 1_555 1_555
C8B C11B 1_555 1_555
C10C C19C 1_555 1_555
C14B C31B 1_555 1_555
C20B C25B 1_555 1_555
C21B C42B 1_555 1_555
C23B C30B 1_555 1_555
C28C C34C 1_555 1_555
C32C C33C 1_555 1_555
C35B C36B 1_555 1_555
C37B O10B 1_555 1_555
C37A O10A 1_555 1_555
C37B_2 O10B_2 1_555 1_555
C39C C41C 1_555 1_555
C39C N6C 1_555 1_555
C40C N6C 1_555 1_555
C45B C46B 1_555 1_555
C45B N8B 1_555 1_555

#END
