
#######################################################################
#
#                 Cambridge Crystallographic Data Centre
#                                CCDC 
#
#######################################################################
#
# If this CIF has been generated from an entry in the Cambridge 
# Structural Database, then it will include bibliographic, chemical, 
# crystal, experimental, refinement or atomic coordinate data resulting 
# from the CCDC's data processing and validation procedures.
#
#######################################################################

data_FAKLIN
_symmetry_cell_setting           triclinic
_symmetry_space_group_name_H-M   'P -1'
_symmetry_Int_Tables_number      2
_space_group_name_Hall           '-P 1'
loop_
_symmetry_equiv_pos_site_id
_symmetry_equiv_pos_as_xyz
1 x,y,z
2 -x,-y,-z
_cell_length_a                   9.1546(18)
_cell_length_b                   13.015(3)
_cell_length_c                   13.400(3)
_cell_angle_alpha                79.23(3)
_cell_angle_beta                 85.15(3)
_cell_angle_gamma                89.84(3)
_cell_volume                     1562.69
loop_
_atom_site_label
_atom_site_type_symbol
_atom_site_fract_x
_atom_site_fract_y
_atom_site_fract_z
Gd1 Gd 0.289934(17) 0.168960(13) 0.265834(12)
Cu1 Cu 0.23285(5) 0.22981(4) 0.00799(3)
O1 O 0.3746(3) 0.1591(2) 0.1010(2)
O3 O 0.1439(3) 0.2550(2) 0.1398(2)
O4 O 0.0878(3) 0.2784(2) 0.3277(2)
O5 O 0.5705(3) 0.1703(2) 0.2274(2)
O6 O 0.1144(3) 0.0376(2) 0.2292(2)
O7 O 0.1145(3) 0.0497(2) 0.3867(2)
O8 O 0.0053(4) -0.0827(3) 0.3455(3)
N1 N 0.3135(4) 0.1524(3) -0.0977(2)
N2 N 0.0633(3) 0.2935(3) -0.0639(2)
N3 N 0.0753(4) -0.0012(3) 0.3217(3)
N4 N 0.3835(4) 0.5339(3) 0.1303(3)
N5 N 0.6012(4) 0.6357(3) 0.0482(3)
N6 N 0.3965(4) -0.0103(3) 0.3137(3)
N7 N 0.3765(4) 0.3544(3) 0.2282(3)
N8 N 0.6305(4) -0.1802(3) 0.5670(3)
N9 N 0.5223(5) -0.1634(3) 0.4035(3)
C1 C 0.5123(4) 0.1430(3) 0.0680(3)
C3 C 0.6222(4) 0.1454(3) 0.1354(3)
C5 C 0.7659(4) 0.1249(3) 0.1071(3)
H4 H 0.8379 0.1270 0.1517
C7 C 0.8029(4) 0.1009(3) 0.0102(3)
H8 H 0.8995 0.0856 -0.0085
C8 C 0.6986(4) 0.0997(3) -0.0567(3)
H9 H 0.7249 0.0840 -0.1207
C9 C 0.5519(4) 0.1219(3) -0.0297(3)
C10 C 0.4452(4) 0.1191(3) -0.1028(3)
H10 H 0.4754 0.0902 -0.1594
C11 C 0.2245(5) 0.1428(3) -0.1819(3)
H11 H 0.1416 0.0963 -0.1563
H12 H 0.2830 0.1128 -0.2328
C12 C 0.1695(5) 0.2493(3) -0.2305(3)
H13 H 0.2479 0.3007 -0.2366
H14 H 0.1437 0.2465 -0.2987
C13 C 0.0378(5) 0.2840(3) -0.1700(3)
H15 H 0.0068 0.3513 -0.2057
H16 H -0.0419 0.2344 -0.1674
C14 C -0.0321(4) 0.3501(3) -0.0242(3)
H17 H -0.1008 0.3817 -0.0670
C15 C -0.0464(4) 0.3710(3) 0.0792(3)
C16 C 0.0392(4) 0.3212(3) 0.1556(3)
C17 C 0.0071(4) 0.3394(3) 0.2552(3)
C18 C -0.1001(4) 0.4085(3) 0.2776(3)
H18 H -0.1170 0.4214 0.3435
C19 C -0.1833(4) 0.4588(3) 0.2002(3)
H19 H -0.2553 0.5057 0.2146
C20 C -0.1583(4) 0.4387(3) 0.1022(3)
H20 H -0.2160 0.4704 0.0515
C21 C 0.0542(4) 0.2848(3) 0.4342(3)
H21 H 0.0859 0.2214 0.4767
H22 H -0.0510 0.2899 0.4480
C22 C 0.1284(6) 0.3779(4) 0.4613(4)
H23 H 0.2317 0.3762 0.4423
H24 H 0.1122 0.3757 0.5334
H25 H 0.0884 0.4411 0.4254
C23 C 0.6776(4) 0.1983(3) 0.2922(3)
H26 H 0.6341 0.2473 0.3321
H27 H 0.7609 0.2329 0.2497
C24 C 0.7305(5) 0.1039(4) 0.3637(4)
H28 H 0.6494 0.0718 0.4087
H29 H 0.8036 0.1257 0.4030
H30 H 0.7719 0.0545 0.3247
C25 C 0.5026(4) 0.5844(3) 0.0875(3)
C26 C 0.3879(4) 0.4382(3) 0.1802(3)
C27 C 0.4554(4) -0.0793(3) 0.3604(3)
C28 C 0.5783(4) -0.1677(3) 0.4902(3)
Gd1A Gd 0.710066(17) -0.168960(13) 0.734166(12)
Cu1A Cu 0.76715(5) 0.77019(4) -0.00799(3)
N5A N 0.3988(4) 0.3643(3) -0.0482(3)
N8A N 0.3695(4) 0.1802(3) 0.4330(3)
O2 O 0.3012(5) 0.6171(4) 0.5004(3)
C2 C 0.3420(5) 0.6303(4) 0.4110(4)
C4 C 0.4858(5) 0.5883(4) 0.3746(4)
H1 H 0.5490 0.5769 0.4291
H2 H 0.5311 0.6378 0.3184
H3 H 0.4691 0.5234 0.3529
C6 C 0.2516(7) 0.6862(6) 0.3312(5)
H5 H 0.2153 0.6373 0.2935
H6 H 0.3105 0.7388 0.2858
H7 H 0.1705 0.7187 0.3629
loop_
_geom_bond_atom_site_label_1
_geom_bond_atom_site_label_2
_geom_bond_site_symmetry_1
_geom_bond_site_symmetry_2
Gd1 O1 1_555 1_555
Cu1 O1 1_555 1_555
O1 C1 1_555 1_555
O2 C2 1_555 1_555
O3 Gd1 1_555 1_555
O4 Gd1 1_555 1_555
O5 Gd1 1_555 1_555
O6 Gd1 1_555 1_555
O7 Gd1 1_555 1_555
O8 N3 1_555 1_555
N1 Cu1 1_555 1_555
N2 Cu1 1_555 1_555
N3 O6 1_555 1_555
N4 C25 1_555 1_555
N5 C25 1_555 1_555
N6 Gd1 1_555 1_555
N7 Gd1 1_555 1_555
N8 C28 1_555 1_555
N9 C27 1_555 1_555
C1 C3 1_555 1_555
C2 C4 1_555 1_555
C3 O5 1_555 1_555
C4 H1 1_555 1_555
H2 C4 1_555 1_555
H3 C4 1_555 1_555
C5 C3 1_555 1_555
H4 C5 1_555 1_555
C6 C2 1_555 1_555
H5 C6 1_555 1_555
H6 C6 1_555 1_555
H7 C6 1_555 1_555
C7 C5 1_555 1_555
H8 C7 1_555 1_555
C8 C7 1_555 1_555
H9 C8 1_555 1_555
C9 C1 1_555 1_555
C10 N1 1_555 1_555
H10 C10 1_555 1_555
C11 N1 1_555 1_555
H11 C11 1_555 1_555
H12 C11 1_555 1_555
C12 C11 1_555 1_555
H13 C12 1_555 1_555
H14 C12 1_555 1_555
C13 N2 1_555 1_555
H15 C13 1_555 1_555
H16 C13 1_555 1_555
C14 N2 1_555 1_555
H17 C14 1_555 1_555
C15 C14 1_555 1_555
C16 O3 1_555 1_555
C17 O4 1_555 1_555
C18 C17 1_555 1_555
H18 C18 1_555 1_555
C19 C18 1_555 1_555
H19 C19 1_555 1_555
C20 C15 1_555 1_555
H20 C20 1_555 1_555
C21 O4 1_555 1_555
H21 C21 1_555 1_555
H22 C21 1_555 1_555
C22 C21 1_555 1_555
H23 C22 1_555 1_555
H24 C22 1_555 1_555
H25 C22 1_555 1_555
C23 O5 1_555 1_555
H26 C23 1_555 1_555
H27 C23 1_555 1_555
C24 C23 1_555 1_555
H28 C24 1_555 1_555
H29 C24 1_555 1_555
H30 C24 1_555 1_555
C26 N4 1_555 1_555
C27 N6 1_555 1_555
C28 N9 1_555 1_555
Gd1A N8 1_555 1_555
Cu1A N5 1_555 1_555
N5A Cu1 1_555 1_555
N8A Gd1 1_555 1_555
Cu1 O3 1_555 1_555
O7 N3 1_555 1_555
N7 C26 1_555 1_555
C8 C9 1_555 1_555
C9 C10 1_555 1_555
C12 C13 1_555 1_555
C15 C16 1_555 1_555
C16 C17 1_555 1_555
C19 C20 1_555 1_555

#END
