
#######################################################################
#
#                 Cambridge Crystallographic Data Centre
#                                CCDC 
#
#######################################################################
#
# If this CIF has been generated from an entry in the Cambridge 
# Structural Database, then it will include bibliographic, chemical, 
# crystal, experimental, refinement or atomic coordinate data resulting 
# from the CCDC's data processing and validation procedures.
#
#######################################################################

data_FAKQEN
_symmetry_cell_setting           hexagonal
_symmetry_space_group_name_H-M   'P 65'
_symmetry_Int_Tables_number      170
_space_group_name_Hall           'P 65'
loop_
_symmetry_equiv_pos_site_id
_symmetry_equiv_pos_as_xyz
1 x,y,z
2 x-y,x,5/6+z
3 -y,x-y,2/3+z
4 -x,-y,1/2+z
5 -x+y,-x,1/3+z
6 y,-x+y,1/6+z
_cell_length_a                   11.2058(2)
_cell_length_b                   11.2058(2)
_cell_length_c                   21.5947(5)
_cell_angle_alpha                90
_cell_angle_beta                 90
_cell_angle_gamma                120
_cell_volume                     2348.35
loop_
_atom_site_label
_atom_site_type_symbol
_atom_site_fract_x
_atom_site_fract_y
_atom_site_fract_z
Cu1 Cu -0.5726(1) 0.0014(1) 0.1473(1)
S1 S -0.7679(2) -0.3911(2) 0.1264(1)
O1 O -0.5597(8) 0.0082(9) 0.2375(4)
O2 O -0.4634(6) 0.2236(7) 0.1257(4)
O3 O -0.6193(7) -0.0616(8) 0.0607(3)
O4 O -0.7375(7) -0.3426(6) 0.0619(3)
O5 O -0.9163(6) -0.4719(7) 0.1355(3)
O6 O -0.7078(6) -0.2703(6) 0.1678(3)
O7 O -0.7067(8) -0.4772(7) 0.1398(3)
N1 N 0.2461(6) 0.0039(7) 0.1527(3)
N2 N -0.3892(6) 0.0039(7) 0.1422(4)
C1 C 0.1244(9) -0.1125(10) 0.1510(5)
C2 C 0.0005(9) -0.1159(9) 0.1487(5)
C3 C -0.0035(8) 0.0056(8) 0.1477(5)
C4 C 0.1211(9) 0.1255(9) 0.1514(5)
C5 C 0.2426(9) 0.1219(9) 0.1537(5)
C6 C -0.2684(9) 0.1197(11) 0.1433(8)
C7 C -0.1433(10) 0.1245(10) 0.1450(8)
C8 C -0.1362(8) 0.0063(8) 0.1454(5)
C9 C -0.2613(9) -0.1132(10) 0.1419(6)
C10 C -0.3815(10) -0.1102(10) 0.1394(6)
H1 H 0.1237(9) -0.1959(10) 0.1514(5)
H2 H -0.0812(9) -0.2001(9) 0.1478(5)
H3 H 0.1238(9) 0.2098(9) 0.1524(5)
H4 H 0.3255(9) 0.2048(9) 0.1560(5)
H5 H -0.2683(9) 0.2027(11) 0.1429(8)
H6 H -0.0625(10) 0.2094(10) 0.1459(8)
H7 H -0.2641(9) -0.1976(10) 0.1412(6)
H8 H -0.4633(10) -0.1936(10) 0.1355(6)
H9 H -0.5437(83) 0.0674(88) 0.2497(39)
H10 H -0.5282(93) -0.0292(99) 0.2459(45)
H11 H -0.4468(73) 0.2578(75) 0.0954(37)
H12 H -0.425(11) 0.283(12) 0.1557(57)
H13 H -0.5779(78) -0.0207(85) 0.0378(39)
H14 H -0.642(18) -0.178(18) 0.0534(78)
Cu1_2 Cu 0.4274(1) 0.0014(1) 0.1473(1)
N1_2 N -0.7539(6) 0.0039(7) 0.1527(3)
O8 O 0.5662(9) -0.1195(10) 0.2919(5)
H15 H 0.5551(80) -0.1791(83) 0.2774(36)
H16 H 0.538(16) -0.121(17) 0.3184(77)
O9 O 0.4762(20) -0.3702(16) 0.2412(10)
H17 H 0.5163(90) -0.379(13) 0.2272(50)
H18 H 0.491(11) -0.421(10) 0.2525(53)
loop_
_geom_bond_atom_site_label_1
_geom_bond_atom_site_label_2
_geom_bond_site_symmetry_1
_geom_bond_site_symmetry_2
Cu1 O1 1_555 1_555
S1 O4 1_555 1_555
O1 H9 1_555 1_555
O2 Cu1 1_555 1_555
O3 Cu1 1_555 1_555
O5 S1 1_555 1_555
O6 Cu1 1_555 1_555
O7 S1 1_555 1_555
N1 C1 1_555 1_555
N2 Cu1 1_555 1_555
C1 C2 1_555 1_555
C2 C3 1_555 1_555
C3 C4 1_555 1_555
C4 C5 1_555 1_555
C5 N1 1_555 1_555
C6 N2 1_555 1_555
C7 C6 1_555 1_555
C8 C3 1_555 1_555
C9 C8 1_555 1_555
C10 N2 1_555 1_555
H1 C1 1_555 1_555
H2 C2 1_555 1_555
H3 C4 1_555 1_555
H4 C5 1_555 1_555
H5 C6 1_555 1_555
H6 C7 1_555 1_555
H7 C9 1_555 1_555
H8 C10 1_555 1_555
H10 O1 1_555 1_555
H11 O2 1_555 1_555
H12 O2 1_555 1_555
H13 O3 1_555 1_555
H14 O3 1_555 1_555
O8 H15 1_555 1_555
H16 O8 1_555 1_555
O9 H17 1_555 1_555
H18 O9 1_555 1_555
Cu1_2 N1 1_555 1_555
N1_2 Cu1 1_555 1_555
S1 O6 1_555 1_555
C7 C8 1_555 1_555
C9 C10 1_555 1_555

#END
