
#######################################################################
#
#                 Cambridge Crystallographic Data Centre
#                                CCDC 
#
#######################################################################
#
# If this CIF has been generated from an entry in the Cambridge 
# Structural Database, then it will include bibliographic, chemical, 
# crystal, experimental, refinement or atomic coordinate data resulting 
# from the CCDC's data processing and validation procedures.
#
#######################################################################

data_FAKQEN03
_symmetry_cell_setting           hexagonal
_symmetry_space_group_name_H-M   'P 61'
_symmetry_Int_Tables_number      169
_space_group_name_Hall           'P 61'
loop_
_symmetry_equiv_pos_site_id
_symmetry_equiv_pos_as_xyz
1 x,y,z
2 -y,x-y,1/3+z
3 -x+y,-x,2/3+z
4 -x,-y,1/2+z
5 y,-x+y,5/6+z
6 x-y,x,1/6+z
_cell_length_a                   11.1921(3)
_cell_length_b                   11.1921(3)
_cell_length_c                   21.5632(8)
_cell_angle_alpha                90
_cell_angle_beta                 90
_cell_angle_gamma                120
_cell_volume                     2339.2
loop_
_atom_site_label
_atom_site_type_symbol
_atom_site_fract_x
_atom_site_fract_y
_atom_site_fract_z
Cu1 Cu 1.00146(3) 0.57423(3) 0.245453(11)
S1 S 0.60902(6) 0.37678(5) 0.26634(3)
O1 O 1.22503(17) 0.68790(16) 0.26733(9)
H1 H 1.2356 0.6957 0.3050
H2 H 1.2816 0.7093 0.2450
O2 O 0.94010(19) 0.55858(18) 0.33276(8)
H3 H 0.8575 0.5021 0.3351
H4 H 0.9939 0.5495 0.3554
O3 O 1.00888(18) 0.56752(16) 0.15459(9)
H5 H 1.0880 0.6196 0.1428
H6 H 0.9757 0.4982 0.1441
O4 O 0.6572(2) 0.3958(2) 0.33127(8)
O5 O 0.5271(3) 0.4445(2) 0.25685(11)
O6 O 0.5228(2) 0.22961(19) 0.25268(10)
O7 O 0.72999(19) 0.43785(18) 0.22501(9)
N1 N 1.0035(2) 0.39237(19) 0.25082(11)
N2 N 1.0040(2) -0.24176(18) 0.24024(10)
C1 C 0.8898(3) 0.2728(3) 0.25258(19)
H7 H 0.8065 0.2719 0.2554
C2 C 1.1208(3) 0.3885(3) 0.2494(3)
H8 H 1.2037 0.4718 0.2499
C3 C 1.1233(3) -0.1199(3) 0.23939(15)
H9 H 1.2061 -0.1203 0.2373
C4 C 1.1271(2) 0.0051(2) 0.24150(16)
H10 H 1.2116 0.0867 0.2411
C5 C 1.1260(3) 0.2677(3) 0.2473(3)
H11 H 1.2107 0.2712 0.2457
C6 C 0.8863(3) 0.1475(3) 0.2505(2)
H12 H 0.8019 0.0658 0.2512
C7 C 1.0061(2) 0.1427(2) 0.24742(14)
C8 C 1.0061(2) 0.0099(2) 0.24423(14)
C9 C 0.8839(3) -0.1158(2) 0.24411(17)
H13 H 0.7995 -0.1185 0.2457
C10 C 0.8882(3) -0.2373(2) 0.24158(16)
H14 H 0.8050 -0.3203 0.2408
Cu1_2 Cu 1.00146(3) -0.42577(3) 0.245453(11)
N2_2 N 1.0040(2) 0.75824(18) 0.24024(10)
O8 O 0.4835(4) 0.6284(3) 0.31981(16)
H15 H 0.493(7) 0.563(6) 0.302(3)
H16 H 0.445(8) 0.608(7) 0.343(4)
O9 O 0.8800(2) 0.3136(2) 0.10126(11)
H17 H 0.808(4) 0.260(4) 0.1169(19)
H18 H 0.875(5) 0.324(5) 0.073(2)
loop_
_geom_bond_atom_site_label_1
_geom_bond_atom_site_label_2
_geom_bond_site_symmetry_1
_geom_bond_site_symmetry_2
Cu1 O1 1_555 1_555
S1 O4 1_555 1_555
O1 H1 1_555 1_555
H2 O1 1_555 1_555
O2 Cu1 1_555 1_555
H3 O2 1_555 1_555
H4 O2 1_555 1_555
O3 Cu1 1_555 1_555
H5 O3 1_555 1_555
H6 O3 1_555 1_555
O5 S1 1_555 1_555
O6 S1 1_555 1_555
O7 Cu1 1_555 1_555
N1 Cu1 1_555 1_555
N2 C3 1_555 1_555
C1 N1 1_555 1_555
H7 C1 1_555 1_555
C2 N1 1_555 1_555
H8 C2 1_555 1_555
C3 H9 1_555 1_555
C4 C3 1_555 1_555
H10 C4 1_555 1_555
C5 C2 1_555 1_555
H11 C5 1_555 1_555
C6 C1 1_555 1_555
H12 C6 1_555 1_555
C7 C5 1_555 1_555
C8 C4 1_555 1_555
C9 C8 1_555 1_555
H13 C9 1_555 1_555
C10 N2 1_555 1_555
H14 C10 1_555 1_555
O8 H15 1_555 1_555
H16 O8 1_555 1_555
O9 H17 1_555 1_555
H18 O9 1_555 1_555
Cu1_2 N2 1_555 1_555
N2_2 Cu1 1_555 1_555
S1 O7 1_555 1_555
C6 C7 1_555 1_555
C7 C8 1_555 1_555
C9 C10 1_555 1_555

#END
