
#######################################################################
#
#                 Cambridge Crystallographic Data Centre
#                                CCDC 
#
#######################################################################
#
# If this CIF has been generated from an entry in the Cambridge 
# Structural Database, then it will include bibliographic, chemical, 
# crystal, experimental, refinement or atomic coordinate data resulting 
# from the CCDC's data processing and validation procedures.
#
#######################################################################

data_FALDOM
_symmetry_cell_setting           monoclinic
_symmetry_space_group_name_H-M   'P 21/c'
_symmetry_Int_Tables_number      14
_space_group_name_Hall           '-P 2ybc'
loop_
_symmetry_equiv_pos_site_id
_symmetry_equiv_pos_as_xyz
1 x,y,z
2 -x,1/2+y,1/2-z
3 -x,-y,-z
4 x,1/2-y,1/2+z
_cell_length_a                   12.733(3)
_cell_length_b                   12.911(3)
_cell_length_c                   13.920(3)
_cell_angle_alpha                90
_cell_angle_beta                 115.79(3)
_cell_angle_gamma                90
_cell_volume                     2060.45
loop_
_atom_site_label
_atom_site_type_symbol
_atom_site_fract_x
_atom_site_fract_y
_atom_site_fract_z
Cd1 Cd 0.81708(2) 0.80509(3) 0.43303(2)
Cd2 Cd 0.66252(2) 0.80288(3) 0.09615(2)
C1 C 1.0822(4) 0.7179(4) 0.5521(4)
H1 H 1.0889 0.7732 0.5974
C2 C 1.1775(4) 0.6533(5) 0.5776(4)
H2 H 1.2466 0.6639 0.6386
C3 C 1.1652(4) 0.5723(5) 0.5082(5)
H3 H 1.2274 0.5274 0.5227
C4 C 1.0627(4) 0.5572(4) 0.4184(4)
H4 H 1.0552 0.5038 0.3711
C5 C 0.9707(4) 0.6237(4) 0.4001(4)
C6 C 0.8564(4) 0.6132(3) 0.3071(3)
C7 C 0.5699(4) 0.6355(4) 0.2066(4)
C8 C 0.4644(4) 0.6611(4) 0.1059(4)
C9 C 0.3606(4) 0.6052(4) 0.0750(4)
H5 H 0.3552 0.5505 0.1161
C10 C 0.2671(4) 0.6335(5) -0.0175(4)
H6 H 0.1969 0.5978 -0.0401
C11 C 0.2771(4) 0.7147(4) -0.0769(4)
H7 H 0.2146 0.7351 -0.1400
C12 C 0.3833(4) 0.7647(4) -0.0394(4)
H8 H 0.3910 0.8190 -0.0798
C13 C 0.8504(5) 0.5452(4) 0.2159(4)
H9 H 0.7745 0.5510 0.1571
H10 H 0.8645 0.4744 0.2392
H11 H 0.9085 0.5672 0.1937
C14 C 0.5577(5) 0.5780(5) 0.2942(4)
H12 H 0.6169 0.6006 0.3618
H13 H 0.5663 0.5051 0.2861
H14 H 0.4821 0.5913 0.2912
N1 N 0.9816(3) 0.7049(3) 0.4662(3)
N2 N 0.7701(3) 0.6609(3) 0.3082(3)
N3 N 0.6681(3) 0.6671(3) 0.2125(3)
N4 N 0.4746(3) 0.7405(3) 0.0501(3)
N5 N 0.8387(3) 0.7158(3) 0.5978(3)
N6 N 0.9247(3) 0.6990(3) 0.6778(3)
N7 N 1.0081(3) 0.6820(4) 0.7537(3)
N8 N 0.9294(3) 0.9496(3) 0.5103(3)
N9 N 1.0000 1.0000 0.5000
N10 N 0.7443(3) 0.8889(3) 0.2667(3)
N11 N 0.7655(3) 0.9784(3) 0.2630(3)
N12 N 0.7839(4) 1.0649(4) 0.2604(3)
N13 N 0.5898(3) 0.9598(3) 0.0232(3)
N14 N 0.5000 1.0000 0.0000
N15 N 0.6421(3) 0.8019(3) 0.4398(3)
N16 N 0.5522(3) 0.8244(4) 0.3685(3)
N17 N 0.4622(4) 0.8418(5) 0.2990(5)
Cd1B Cd 1.18292(2) 1.19491(3) 0.56697(2)
Cd1C Cd 0.81708(2) 0.69491(3) -0.06697(2)
Cd2C Cd 0.66252(2) 0.69712(3) 0.59615(2)
Cd2B Cd 1.33748(2) 1.19712(3) 0.90385(2)
Cd2B_2 Cd 0.33748(2) 1.19712(3) -0.09615(2)
C1B C 0.9178(4) 1.2821(4) 0.4479(4)
H1B H 0.9111 1.2268 0.4026
C2B C 0.8225(4) 1.3467(5) 0.4224(4)
H2B H 0.7534 1.3361 0.3614
C3B C 0.8348(4) 1.4277(5) 0.4918(5)
H3B H 0.7726 1.4726 0.4773
C4B C 0.9373(4) 1.4428(4) 0.5816(4)
H4B H 0.9448 1.4962 0.6289
C5B C 1.0293(4) 1.3763(4) 0.5999(4)
C6B C 1.1436(4) 1.3868(3) 0.6929(3)
C7B C 1.4301(4) 1.3645(4) 0.7934(4)
C8B C 1.5356(4) 1.3389(4) 0.8941(4)
C9B C 1.6394(4) 1.3948(4) 0.9250(4)
H5B H 1.6448 1.4495 0.8839
C10B C 1.7329(4) 1.3665(5) 1.0175(4)
H6B H 1.8031 1.4022 1.0401
C11B C 1.7229(4) 1.2853(4) 1.0769(4)
H7B H 1.7854 1.2649 1.1400
C12B C 1.6167(4) 1.2353(4) 1.0394(4)
H8B H 1.6090 1.1810 1.0798
C13B C 1.1496(5) 1.4548(4) 0.7841(4)
H9B H 1.2255 1.4490 0.8429
H10B H 1.1355 1.5256 0.7608
H11B H 1.0915 1.4328 0.8063
C14B C 1.4423(5) 1.4220(5) 0.7058(4)
H12B H 1.3831 1.3994 0.6382
H13B H 1.4337 1.4949 0.7139
H14B H 1.5179 1.4087 0.7088
N1B N 1.0184(3) 1.2951(3) 0.5338(3)
N2B N 1.2299(3) 1.3391(3) 0.6918(3)
N3C N 0.6681(3) 0.8329(3) 0.7125(3)
N3B N 1.3319(3) 1.3329(3) 0.7875(3)
N4C N 0.4746(3) 0.7595(3) 0.5501(3)
N4B N 1.5254(3) 1.2595(3) 0.9499(3)
N5B N 1.1613(3) 1.2842(3) 0.4022(3)
N5C N 0.8387(3) 0.7842(3) 0.0978(3)
N6C N 0.9247(3) 0.8010(3) 0.1778(3)
N7C N 1.0081(3) 0.8180(4) 0.2537(3)
N8B N 1.0706(3) 1.0504(3) 0.4897(3)
N10C N 0.7443(3) 0.6111(3) 0.7667(3)
N10B N 1.2557(3) 1.1111(3) 0.7333(3)
N11B N 1.2345(3) 1.0216(3) 0.7370(3)
N12B N 1.2161(4) 0.9351(4) 0.7396(3)
N13C N 0.5898(3) 0.5402(3) 0.5232(3)
N13B N 0.4102(3) 1.0402(3) -0.0232(3)
N15B N 1.3579(3) 1.1981(3) 0.5602(3)
N15C N 0.6421(3) 0.6981(3) -0.0602(3)
N16C N 0.5522(3) 0.6756(4) -0.1315(3)
N17C N 0.4622(4) 0.6582(5) -0.2010(5)
loop_
_geom_bond_atom_site_label_1
_geom_bond_atom_site_label_2
_geom_bond_site_symmetry_1
_geom_bond_site_symmetry_2
Cd1 N1 1_555 1_555
Cd2 N3 1_555 1_555
C1 H1 1_555 1_555
C2 C1 1_555 1_555
H2 C2 1_555 1_555
C3 C2 1_555 1_555
H3 C3 1_555 1_555
C4 C3 1_555 1_555
H4 C4 1_555 1_555
C5 C4 1_555 1_555
C6 C5 1_555 1_555
C7 C8 1_555 1_555
C8 C9 1_555 1_555
C9 H5 1_555 1_555
C10 C9 1_555 1_555
H6 C10 1_555 1_555
C11 C10 1_555 1_555
H7 C11 1_555 1_555
C12 C11 1_555 1_555
H8 C12 1_555 1_555
C13 C6 1_555 1_555
H9 C13 1_555 1_555
H10 C13 1_555 1_555
H11 C13 1_555 1_555
C14 C7 1_555 1_555
H12 C14 1_555 1_555
H13 C14 1_555 1_555
H14 C14 1_555 1_555
N1 C1 1_555 1_555
N2 Cd1 1_555 1_555
N3 C7 1_555 1_555
N4 Cd2 1_555 1_555
N5 Cd1 1_555 1_555
N6 N5 1_555 1_555
N7 N6 1_555 1_555
N8 Cd1 1_555 1_555
N9 N8 1_555 1_555
N10 Cd1 1_555 1_555
N11 N10 1_555 1_555
N12 N11 1_555 1_555
N13 Cd2 1_555 1_555
N14 N13 1_555 1_555
N15 Cd1 1_555 1_555
N16 N15 1_555 1_555
N17 N16 1_555 1_555
Cd1B N1B 1_555 1_555
Cd1C N5C 1_555 1_555
Cd2C N5 1_555 1_555
Cd2B N3B 1_555 1_555
Cd2B_2 N13B 1_555 1_555
C1B H1B 1_555 1_555
C2B C1B 1_555 1_555
H2B C2B 1_555 1_555
C3B C2B 1_555 1_555
H3B C3B 1_555 1_555
C4B C3B 1_555 1_555
H4B C4B 1_555 1_555
C5B C4B 1_555 1_555
C6B C5B 1_555 1_555
C7B C8B 1_555 1_555
C8B C9B 1_555 1_555
C9B H5B 1_555 1_555
C10B C9B 1_555 1_555
H6B C10B 1_555 1_555
C11B C10B 1_555 1_555
H7B C11B 1_555 1_555
C12B C11B 1_555 1_555
H8B C12B 1_555 1_555
C13B C6B 1_555 1_555
H9B C13B 1_555 1_555
H10B C13B 1_555 1_555
H11B C13B 1_555 1_555
C14B C7B 1_555 1_555
H12B C14B 1_555 1_555
H13B C14B 1_555 1_555
H14B C14B 1_555 1_555
N1B C1B 1_555 1_555
N2B Cd1B 1_555 1_555
N3C Cd2C 1_555 1_555
N3B C7B 1_555 1_555
N4C Cd2C 1_555 1_555
N4B Cd2B 1_555 1_555
N5B Cd1B 1_555 1_555
N5C Cd2 1_555 1_555
N6C N5C 1_555 1_555
N7C N6C 1_555 1_555
N8B N9 1_555 1_555
N10C Cd2C 1_555 1_555
N10B Cd1B 1_555 1_555
N11B N10B 1_555 1_555
N12B N11B 1_555 1_555
N13C Cd2C 1_555 1_555
N13B N14 1_555 1_555
N15B Cd1B 1_555 1_555
N15C Cd2 1_555 1_555
N16C N15C 1_555 1_555
N17C N16C 1_555 1_555
Cd2 N10 1_555 1_555
C5 N1 1_555 1_555
C6 N2 1_555 1_555
C8 N4 1_555 1_555
C12 N4 1_555 1_555
N2 N3 1_555 1_555
N15 Cd2C 1_555 1_555
Cd1B N8B 1_555 1_555
Cd1C N15C 1_555 1_555
Cd2B N10B 1_555 1_555
C5B N1B 1_555 1_555
C6B N2B 1_555 1_555
C8B N4B 1_555 1_555
C12B N4B 1_555 1_555
N2B N3B 1_555 1_555

#END
