
#######################################################################
#
#                 Cambridge Crystallographic Data Centre
#                                CCDC 
#
#######################################################################
#
# If this CIF has been generated from an entry in the Cambridge 
# Structural Database, then it will include bibliographic, chemical, 
# crystal, experimental, refinement or atomic coordinate data resulting 
# from the CCDC's data processing and validation procedures.
#
#######################################################################

data_FALGIK
_symmetry_cell_setting           orthorhombic
_symmetry_space_group_name_H-M   'P n m a'
_symmetry_Int_Tables_number      62
_space_group_name_Hall           '-P 2ac 2n'
loop_
_symmetry_equiv_pos_site_id
_symmetry_equiv_pos_as_xyz
1 x,y,z
2 1/2-x,-y,1/2+z
3 1/2+x,1/2-y,1/2-z
4 -x,1/2+y,-z
5 -x,-y,-z
6 1/2+x,y,1/2-z
7 1/2-x,1/2+y,1/2+z
8 x,1/2-y,z
_cell_length_a                   5.8669(7)
_cell_length_b                   29.141(4)
_cell_length_c                   7.8663(10)
_cell_angle_alpha                90
_cell_angle_beta                 90
_cell_angle_gamma                90
_cell_volume                     1344.88
loop_
_atom_site_label
_atom_site_type_symbol
_atom_site_fract_x
_atom_site_fract_y
_atom_site_fract_z
Cd1 Cd 0.45231(12) 0.7500 0.06452(8)
O1 O 0.1536(9) 0.69585(14) -0.0124(6)
O2 O 0.4801(8) 0.67149(15) 0.0934(7)
O3 O 0.3426(11) 0.7500 0.3547(8)
H1 H 0.412(11) 0.7270(17) 0.397(9)
O4 O 0.588(2) 0.7500 -0.2037(11)
H2 H 0.613(19) 0.726(2) -0.260(12)
C1 C 0.2859(11) 0.6634(2) 0.0363(9)
C2 C 0.2007(11) 0.6151(2) 0.0223(9)
C3 C -0.0041(11) 0.6051(2) -0.0556(11)
H3 H -0.0913 0.6287 -0.1014
C4 C -0.0810(12) 0.5602(2) -0.0662(11)
H4 H -0.2180 0.5541 -0.1213
C5 C 0.0421(13) 0.52411(19) 0.0037(9)
C6 C 0.2478(12) 0.5349(2) 0.0817(10)
H5 H 0.3349 0.5115 0.1289
C7 C 0.3266(12) 0.5797(2) 0.0909(10)
H6 H 0.4651 0.5859 0.1436
Cd1B Cd -0.04769(12) 0.7500 0.43548(8)
Cd1C Cd -0.45231(12) 0.2500 -0.06452(8)
O1D O -0.1536(9) 0.30415(14) 0.0124(6)
O1G O 0.1536(9) 0.80415(14) -0.0124(6)
O2D O -0.4801(8) 0.32851(15) -0.0934(7)
O2G O 0.4801(8) 0.82851(15) 0.0934(7)
O3B O 0.8426(11) 0.7500 0.1453(8)
H1G H 0.412(11) 0.7730(17) 0.397(9)
H1B H 0.912(11) 0.7730(17) 0.103(9)
H1E H 0.912(11) 0.7270(17) 0.103(9)
H2G H 0.613(19) 0.774(2) -0.260(12)
C1D C -0.2859(11) 0.3366(2) -0.0363(9)
C2D C -0.2007(11) 0.3849(2) -0.0223(9)
C3D C 0.0041(11) 0.3949(2) 0.0556(11)
H3D H 0.0913 0.3713 0.1014
C4D C 0.0810(12) 0.4398(2) 0.0662(11)
H4D H 0.2180 0.4459 0.1213
C5D C -0.0421(13) 0.47589(19) -0.0037(9)
C6D C -0.2478(12) 0.4651(2) -0.0817(10)
H5D H -0.3349 0.4885 -0.1289
C7D C -0.3266(12) 0.4203(2) -0.0909(10)
H6D H -0.4651 0.4141 -0.1436
loop_
_geom_bond_atom_site_label_1
_geom_bond_atom_site_label_2
_geom_bond_site_symmetry_1
_geom_bond_site_symmetry_2
Cd1 O1 1_555 1_555
O1 C1 1_555 1_555
O2 Cd1 1_555 1_555
O3 Cd1 1_555 1_555
H1 O3 1_555 1_555
O4 Cd1 1_555 1_555
H2 O4 1_555 1_555
C1 O2 1_555 1_555
C2 C1 1_555 1_555
C3 C2 1_555 1_555
H3 C3 1_555 1_555
C4 C3 1_555 1_555
H4 C4 1_555 1_555
C5 C4 1_555 1_555
C6 C5 1_555 1_555
H5 C6 1_555 1_555
C7 C2 1_555 1_555
H6 C7 1_555 1_555
Cd1B O3 1_555 1_555
Cd1C O1D 1_555 1_555
O1D C1D 1_555 1_555
O1G Cd1 1_555 1_555
O2D Cd1C 1_555 1_555
O2G Cd1 1_555 1_555
O3B Cd1 1_555 1_555
H1G O3 1_555 1_555
H1B O3B 1_555 1_555
H1E O3B 1_555 1_555
H2G O4 1_555 1_555
C1D O2D 1_555 1_555
C2D C1D 1_555 1_555
C3D C2D 1_555 1_555
H3D C3D 1_555 1_555
C4D C3D 1_555 1_555
H4D C4D 1_555 1_555
C5D C5 1_555 1_555
C6D C5D 1_555 1_555
H5D C6D 1_555 1_555
C7D C2D 1_555 1_555
H6D C7D 1_555 1_555
C6 C7 1_555 1_555
C4D C5D 1_555 1_555
C6D C7D 1_555 1_555

#END
