
#######################################################################
#
#                 Cambridge Crystallographic Data Centre
#                                CCDC 
#
#######################################################################
#
# If this CIF has been generated from an entry in the Cambridge 
# Structural Database, then it will include bibliographic, chemical, 
# crystal, experimental, refinement or atomic coordinate data resulting 
# from the CCDC's data processing and validation procedures.
#
#######################################################################

data_FALHUX
_symmetry_cell_setting           monoclinic
_symmetry_space_group_name_H-M   'P 21'
_symmetry_Int_Tables_number      4
_space_group_name_Hall           'P 2yb'
loop_
_symmetry_equiv_pos_site_id
_symmetry_equiv_pos_as_xyz
1 x,y,z
2 -x,1/2+y,-z
_cell_length_a                   9.9802(19)
_cell_length_b                   18.3689(15)
_cell_length_c                   10.826(2)
_cell_angle_alpha                90
_cell_angle_beta                 95.809(3)
_cell_angle_gamma                90
_cell_volume                     1974.49
loop_
_atom_site_label
_atom_site_type_symbol
_atom_site_fract_x
_atom_site_fract_y
_atom_site_fract_z
C1 C 1.1767(10) 0.2466(6) 0.9300(8)
H1 H 1.2666 0.2531 0.9171
C2 C 1.1390(8) 0.1791(5) 0.9715(9)
H2 H 1.1979 0.1398 0.9729
C3 C 1.0085(10) 0.1707(6) 1.0120(10)
H3 H 0.9880 0.1309 1.0597
C4 C 0.9201(10) 0.2199(5) 0.9805(8)
C5 C 0.9591(9) 0.2890(5) 0.9362(8)
H4 H 0.8951 0.3259 0.9258
C6 C 0.7757(10) 0.2128(6) 1.0155(9)
H5 H 0.7786 0.1830 1.0908
C7 C 0.6805(9) 0.1757(5) 0.9156(9)
H6 H 0.6890 0.1231 0.9179
H7 H 0.6916 0.1935 0.8330
C8 C 0.5484(8) 0.2019(6) 0.9626(8)
H8 H 0.4903 0.2218 0.8935
H9 H 0.5024 0.1608 0.9953
C9 C 0.5725(9) 0.2592(5) 1.0624(8)
H10 H 0.5079 0.2987 1.0507
H11 H 0.5705 0.2387 1.1448
C10 C 0.7615(9) 0.3226(5) 1.1524(8)
H12 H 0.6890 0.3397 1.1967
H13 H 0.8130 0.3633 1.1281
H14 H 0.8185 0.2909 1.2050
C11 C 1.3777(9) 0.4640(5) 1.0464(8)
H15 H 1.4118 0.4856 0.9784
C12 C 1.4312(9) 0.4158(5) 1.2714(7)
H16 H 1.3359 0.4105 1.2748
H17 H 1.4714 0.4354 1.3486
H18 H 1.4701 0.3692 1.2573
C13 C 1.5980(10) 0.5083(5) 1.1844(8)
H19 H 1.6341 0.5059 1.2699
H20 H 1.5853 0.5583 1.1602
H21 H 1.6595 0.4856 1.1335
C14 C 0.5698(8) 0.6532(5) 0.5420(8)
H22 H 0.6375 0.6183 0.5536
C15 C 0.5964(9) 0.7222(5) 0.5023(8)
C16 C 0.4939(11) 0.7711(6) 0.4868(10)
H23 H 0.5140 0.8177 0.4609
C17 C 0.3701(11) 0.7575(6) 0.5055(9)
H24 H 0.3037 0.7927 0.4899
C18 C 0.3385(9) 0.6888(5) 0.5495(8)
H25 H 0.2514 0.6789 0.5682
C19 C 0.7358(10) 0.7457(6) 0.4721(8)
H26 H 0.7559 0.7963 0.4963
C20 C 0.7533(10) 0.7317(6) 0.3355(8)
H27 H 0.7434 0.7762 0.2872
H28 H 0.6891 0.6959 0.2999
C21 C 0.9020(11) 0.7018(6) 0.3426(9)
H29 H 0.9013 0.6515 0.3149
H30 H 0.9537 0.7302 0.2887
C22 C 0.9657(12) 0.7066(6) 0.4743(8)
H31 H 1.0337 0.6695 0.4937
H32 H 1.0028 0.7544 0.4946
C23 C 0.8652(9) 0.7234(5) 0.6544(8)
H33 H 0.9094 0.6882 0.7101
H34 H 0.7806 0.7368 0.6829
H35 H 0.9211 0.7658 0.6517
C24 C 0.1534(11) 0.4937(6) 0.4498(9)
H36 H 0.1200 0.4663 0.5122
C25 C -0.0885(8) 0.4817(5) 0.3529(6)
H37 H -0.0961 0.4353 0.3925
H38 H -0.1246 0.4783 0.2675
H39 H -0.1379 0.5175 0.3942
C26 C 0.0994(11) 0.5383(5) 0.2520(9)
H40 H 0.1204 0.5883 0.2713
H41 H 0.0298 0.5361 0.1840
H42 H 0.1785 0.5141 0.2293
Cd1 Cd 1.12784(6) 0.42229(3) 0.85091(6)
Cd2 Cd 0.76288(7) 0.47812(4) 0.75940(7)
Cd3 Cd 0.39914(6) 0.52221(3) 0.65679(6)
Cl1 Cl 1.3350(2) 0.39027(12) 0.7384(2)
Cl2 Cl 0.9247(2) 0.47870(14) 0.9611(2)
Cl3 Cl 0.9400(2) 0.39700(12) 0.66565(19)
Cl4 Cl 0.5789(2) 0.56295(13) 0.8401(2)
Cl5 Cl 0.6021(2) 0.46750(11) 0.55572(18)
Cl6 Cl 0.1889(2) 0.55635(12) 0.77650(18)
N1 N 1.0931(7) 0.3035(4) 0.9071(6)
N2 N 0.7056(9) 0.2820(4) 1.0401(8)
N3 N 1.4565(7) 0.4668(4) 1.1669(7)
N4 N 0.4339(7) 0.6367(4) 0.5651(7)
N5 N 0.8421(8) 0.6924(5) 0.5321(7)
N6 N 0.0533(7) 0.5029(4) 0.3599(6)
O1 O 1.2600(6) 0.4319(3) 1.0309(6)
O2 O 0.2587(6) 0.5055(4) 0.4792(6)
O3 O 0.6555(6) 0.3821(4) 0.8307(6)
H43 H 0.6836 0.3384 0.8315
H44 H 0.5728 0.3980 0.8603
O4 O 0.8783(6) 0.5808(4) 0.6935(6)
H45 H 0.8693 0.5823 0.6044
H46 H 0.9720 0.5780 0.7238
Cd1_2 Cd 0.12784(6) 0.42229(3) 0.85091(6)
Cd3_2 Cd 1.39914(6) 0.52221(3) 0.65679(6)
Cl1_2 Cl 0.3350(2) 0.39027(12) 0.7384(2)
Cl6_2 Cl 1.1889(2) 0.55635(12) 0.77650(18)
loop_
_geom_bond_atom_site_label_1
_geom_bond_atom_site_label_2
_geom_bond_site_symmetry_1
_geom_bond_site_symmetry_2
C1 H1 1_555 1_555
C2 C1 1_555 1_555
H2 C2 1_555 1_555
C3 C2 1_555 1_555
H3 C3 1_555 1_555
C4 C3 1_555 1_555
C5 C4 1_555 1_555
H4 C5 1_555 1_555
C6 C4 1_555 1_555
H5 C6 1_555 1_555
C7 C6 1_555 1_555
H6 C7 1_555 1_555
H7 C7 1_555 1_555
C8 C7 1_555 1_555
H8 C8 1_555 1_555
H9 C8 1_555 1_555
C9 C8 1_555 1_555
H10 C9 1_555 1_555
H11 C9 1_555 1_555
C10 H12 1_555 1_555
H13 C10 1_555 1_555
H14 C10 1_555 1_555
C11 H15 1_555 1_555
C12 H16 1_555 1_555
H17 C12 1_555 1_555
H18 C12 1_555 1_555
C13 H19 1_555 1_555
H20 C13 1_555 1_555
H21 C13 1_555 1_555
C14 H22 1_555 1_555
C15 C14 1_555 1_555
C16 C15 1_555 1_555
H23 C16 1_555 1_555
C17 C16 1_555 1_555
H24 C17 1_555 1_555
C18 C17 1_555 1_555
H25 C18 1_555 1_555
C19 C15 1_555 1_555
H26 C19 1_555 1_555
C20 C19 1_555 1_555
H27 C20 1_555 1_555
H28 C20 1_555 1_555
C21 C20 1_555 1_555
H29 C21 1_555 1_555
H30 C21 1_555 1_555
C22 C21 1_555 1_555
H31 C22 1_555 1_555
H32 C22 1_555 1_555
C23 H33 1_555 1_555
H34 C23 1_555 1_555
H35 C23 1_555 1_555
C24 H36 1_555 1_555
C25 H37 1_555 1_555
H38 C25 1_555 1_555
H39 C25 1_555 1_555
C26 H40 1_555 1_555
H41 C26 1_555 1_555
H42 C26 1_555 1_555
Cd1 Cl1 1_555 1_555
Cd2 Cl2 1_555 1_555
Cd3 Cl4 1_555 1_555
Cl1 Cd3_2 1_555 1_555
Cl2 Cd1 1_555 1_555
Cl3 Cd1 1_555 1_555
Cl4 Cd2 1_555 1_555
Cl5 Cd2 1_555 1_555
Cl6 Cd3 1_555 1_555
N1 C1 1_555 1_555
N2 C6 1_555 1_555
N3 C11 1_555 1_555
N4 C14 1_555 1_555
N5 C19 1_555 1_555
N6 C24 1_555 1_555
O1 C11 1_555 1_555
O2 C24 1_555 1_555
O3 Cd2 1_555 1_555
H43 O3 1_555 1_555
H44 O3 1_555 1_555
O4 Cd2 1_555 1_555
H45 O4 1_555 1_555
H46 O4 1_555 1_555
Cd1_2 Cl6 1_555 1_555
Cd3_2 Cl6_2 1_555 1_555
Cl1_2 Cd3 1_555 1_555
Cl6_2 Cd1 1_555 1_555
C5 N1 1_555 1_555
C9 N2 1_555 1_555
C10 N2 1_555 1_555
C12 N3 1_555 1_555
C13 N3 1_555 1_555
C18 N4 1_555 1_555
C22 N5 1_555 1_555
C23 N5 1_555 1_555
C25 N6 1_555 1_555
C26 N6 1_555 1_555
Cd1 N1 1_555 1_555
Cd1 O1 1_555 1_555
Cd2 Cl3 1_555 1_555
Cd3 Cl5 1_555 1_555
Cd3 N4 1_555 1_555
Cd3 O2 1_555 1_555
Cd1_2 Cl1_2 1_555 1_555

#END
