
#######################################################################
#
#                 Cambridge Crystallographic Data Centre
#                                CCDC 
#
#######################################################################
#
# If this CIF has been generated from an entry in the Cambridge 
# Structural Database, then it will include bibliographic, chemical, 
# crystal, experimental, refinement or atomic coordinate data resulting 
# from the CCDC's data processing and validation procedures.
#
#######################################################################

data_FALJAF
_symmetry_cell_setting           orthorhombic
_symmetry_space_group_name_H-M   'P 21 21 21'
_symmetry_Int_Tables_number      19
_space_group_name_Hall           'P 2ac 2ab'
loop_
_symmetry_equiv_pos_site_id
_symmetry_equiv_pos_as_xyz
1 x,y,z
2 1/2-x,-y,1/2+z
3 1/2+x,1/2-y,-z
4 -x,1/2+y,1/2-z
_cell_length_a                   11.13992(18)
_cell_length_b                   18.04972(19)
_cell_length_c                   29.3380(3)
_cell_angle_alpha                90
_cell_angle_beta                 90
_cell_angle_gamma                90
_cell_volume                     5899.06
loop_
_atom_site_label
_atom_site_type_symbol
_atom_site_fract_x
_atom_site_fract_y
_atom_site_fract_z
Eu1 Eu 0.542723(17) 0.082568(10) 0.209996(5)
Eu2 Eu 0.531494(18) 0.292849(10) 0.268580(6)
O1 O 0.6174(2) 0.22866(15) 0.20616(9)
O2 O 0.4904(2) 0.15575(14) 0.27819(7)
O3 O 0.8986(3) 0.12350(16) 0.70236(10)
O4 O 0.1628(3) 0.12008(16) 0.69588(10)
O5 O 0.8527(2) 0.23733(16) -0.22924(10)
O6 O 0.5307(3) 0.38347(14) 0.20974(8)
H1 H 0.5153 0.3698 0.1828
H2 H 0.4791 0.4202 0.2147
O7 O 0.7214(3) 0.23686(16) 0.29264(11)
H3 H 0.7780 0.2533 0.3093
H4 H 0.7350 0.1905 0.2893
O8 O 0.5970(2) 0.01042(14) 0.27889(8)
O9 O 0.8758(3) 0.34189(16) -0.18941(9)
O10 O 0.1044(2) 0.00748(15) 0.71677(9)
N1 N 0.4846(3) 0.06146(18) 0.12380(10)
O11 O 0.7295(2) 0.09272(15) 0.25653(8)
O12 O 0.6927(3) 0.14272(15) 0.16249(9)
O13 O 0.8345(2) 0.01445(15) 0.67700(9)
S1 S 0.38418(13) -0.00361(7) 0.50631(4)
S2 S 0.82391(10) 0.21088(7) -0.01326(3)
S3 S 0.74370(13) 0.12478(7) 0.46763(4)
O15 O 0.7377(4) 0.11726(18) 0.36913(10)
N2 N 0.3152(3) 0.0530(2) 0.63338(11)
H7 H 0.3122 0.1005 0.6309
O16 O 0.4182(4) -0.00864(19) 0.40928(10)
N3 N 0.6980(3) 0.28708(19) -0.12980(10)
H8 H 0.6702 0.3287 -0.1202
O17 O 0.7851(3) 0.18550(18) 0.55612(10)
N4 N 0.3943(4) 0.1102(2) 0.39203(11)
H9 H 0.3844 0.1547 0.4019
O18 O 0.7847(3) 0.17803(17) -0.11166(10)
C1 C 0.8203(3) 0.2844(2) -0.20034(12)
C2 C 0.8376(3) 0.0842(2) 0.67584(11)
O19 O 0.4609(3) 0.22519(15) 0.33832(8)
C3 C 0.4679(4) 0.0431(2) -0.02255(12)
C4 C 0.6991(3) 0.0386(2) 0.28136(12)
C5 C 0.6953(3) 0.2074(2) 0.17806(12)
C6 C 0.7356(4) 0.0760(3) 0.51780(13)
O20 O 0.3578(3) -0.05572(18) 0.59912(10)
N5 N 0.7489(3) -0.00464(19) 0.35954(10)
H10 H 0.7310 -0.0479 0.3697
C7 C 0.1755(4) 0.0512(2) 0.69766(12)
N6 N 0.7404(3) 0.0870(2) 0.60015(10)
H11 H 0.7184 0.0414 0.6013
C8 C 0.4811(4) 0.1171(3) 0.04949(13)
H12 H 0.4847 0.1602 0.0322
N7 N 0.7602(3) 0.27647(18) 0.11276(10)
H13 H 0.7049 0.3085 0.1072
C9 C 0.4569(4) 0.1642(2) 0.31918(11)
O21 O 0.9026(3) 0.2024(2) 0.08206(10)
C10 C 0.4725(4) -0.0036(2) 0.10265(12)
H14 H 0.4694 -0.0459 0.1207
N8 N 0.4676(4) 0.0321(3) -0.11826(11)
C11 C 0.7669(4) 0.2593(2) 0.03163(13)
C12 C 0.7411(4) 0.2382(2) -0.09998(13)
C13 C 0.8155(4) 0.2432(2) 0.07779(14)
C14 C 0.7912(4) 0.2598(2) 0.16013(12)
H15 H 0.8670 0.2323 0.1597
C15 C 0.7604(4) 0.1269(2) 0.64216(12)
H16 H 0.8027 0.1729 0.6346
C16 C 0.3847(4) 0.0708(2) 0.47054(13)
C17 C 0.4702(4) 0.0489(2) 0.02818(12)
C18 C 0.7936(3) 0.0051(2) 0.31303(12)
H17 H 0.8634 0.0381 0.3138
C19 C 0.4643(4) -0.0129(2) 0.05631(12)
H18 H 0.4548 -0.0600 0.0439
C20 C 0.4000(4) 0.0546(3) 0.42129(14)
C21 C 0.2889(4) 0.0187(2) 0.67719(13)
H19 H 0.2759 -0.0344 0.6722
C22 C 0.4866(4) 0.1206(3) 0.09674(13)
H20 H 0.4921 0.1671 0.1103
C23 C 0.6975(3) 0.2708(2) -0.17834(12)
H21 H 0.6767 0.2185 -0.1824
C24 C 0.4048(4) 0.0970(3) 0.34287(13)
H22 H 0.4596 0.0552 0.3382
C25 C 0.6615(4) 0.3072(2) -0.02941(13)
H23 H 0.6060 0.3371 -0.0443
C26 C 0.7365(4) 0.0550(3) 0.38568(13)
C27 C 0.7332(4) 0.2575(2) -0.05097(13)
C28 C 0.6040(4) 0.3176(3) -0.20308(15)
H24 H 0.5253 0.3045 -0.1925
H25 H 0.6093 0.3087 -0.2353
H26 H 0.6185 0.3691 -0.1970
C29 C 0.8318(4) -0.0689(2) 0.29235(14)
H27 H 0.7651 -0.1025 0.2926
H28 H 0.8965 -0.0894 0.3099
H29 H 0.8579 -0.0613 0.2615
C30 C 0.8113(4) 0.3282(3) 0.18880(15)
H30 H 0.8784 0.3555 0.1770
H31 H 0.8275 0.3139 0.2197
H32 H 0.7407 0.3587 0.1880
C31 C 0.6808(4) 0.3083(3) 0.01819(14)
H33 H 0.6394 0.3391 0.0382
C32 C 0.7258(4) 0.0461(3) 0.43583(13)
C33 C 0.7179(4) 0.0025(3) 0.50950(14)
H34 H 0.7093 -0.0327 0.5324
C34 C 0.7548(4) 0.1188(3) 0.56007(14)
C35 C 0.7139(4) -0.0146(3) 0.46291(14)
H35 H 0.7042 -0.0624 0.4517
C36 C 0.4386(5) -0.0219(3) -0.04382(13)
H38 H 0.4177 -0.0636 -0.0270
C37 C 0.4958(4) 0.0937(3) -0.09695(14)
H39 H 0.5156 0.1347 -0.1146
C38 C 0.3442(4) 0.0122(2) 0.59680(13)
C39 C 0.3592(4) 0.0505(3) 0.55273(13)
C40 C 0.4409(5) -0.0243(3) -0.09178(16)
H40 H 0.4221 -0.0691 -0.1058
C41 C 0.4979(4) 0.1019(3) -0.04981(14)
H41 H 0.5196 0.1469 -0.0369
C42 C 0.3506(6) 0.1225(3) 0.54117(16)
H42 H 0.3372 0.1603 0.5621
C43 C 0.2839(5) 0.0778(4) 0.32107(17)
H43 H 0.2282 0.1175 0.3262
H44 H 0.2532 0.0331 0.3344
H45 H 0.2944 0.0707 0.2889
C44 C 0.3644(6) 0.1346(3) 0.49321(15)
H46 H 0.3600 0.1809 0.4794
C45 C 0.6423(5) 0.1479(4) 0.66513(17)
H47 H 0.6007 0.1037 0.6743
H48 H 0.5933 0.1752 0.6441
H49 H 0.6584 0.1779 0.6914
C46 C 0.3927(4) 0.0279(3) 0.71060(15)
H58 H 0.4624 0.0030 0.6990
H59 H 0.3709 0.0070 0.7395
H60 H 0.4102 0.0797 0.7143
Eu1B Eu 1.042723(17) 0.417432(10) -0.209996(5)
Eu1A Eu -0.042723(17) -0.082568(10) 0.709996(5)
Eu1A_2 Eu 0.957277(17) -0.082568(10) 0.709996(5)
Eu2B Eu 1.031494(18) 0.207151(10) 0.731420(6)
Eu2B_2 Eu 0.031494(18) 0.207151(10) 0.731420(6)
Eu2B_3 Eu 1.031494(18) 0.207151(10) -0.268580(6)
O3B O 0.3986(3) 0.37650(16) 0.29764(10)
O4B O 0.6628(3) 0.37992(16) 0.30412(10)
O5B O 0.3527(2) 0.26267(16) 0.22924(10)
O9B O 0.3758(3) 0.15811(16) 0.18941(9)
O10A O 0.3956(2) -0.00748(15) 0.21677(9)
O13A O 0.6655(2) -0.01445(15) 0.17700(9)
O14 O 0.4732(3) -0.14476(15) 0.38150(8)
H5 H 0.5333 -0.1688 0.3904
H6 H 0.4621 -0.1124 0.4021
O22 O 1.1284(3) 0.55079(19) 0.37947(13)
H36 H 1.1814 0.5779 0.3669
H37 H 1.0678 0.5693 0.3929
O23 O 0.8649(6) 0.2495(4) 0.37322(18)
H50 H 0.7977 0.2619 0.3845
H51 H 0.9084 0.2264 0.3924
O24 O 0.5242(6) 0.3038(3) 0.4864(3)
H52 H 0.4501 0.2942 0.4826
H53 H 0.5525 0.2962 0.4599
O25 O 0.5801(7) 0.2792(4) 0.5731(3)
H54 H 0.5824 0.2829 0.5443
H55 H 0.6533 0.2891 0.5786
O26 O 0.6153(10) 0.2807(5) 0.4089(3)
H56 H 0.5977 0.3022 0.3840
H57 H 0.6060 0.2363 0.3999
loop_
_geom_bond_atom_site_label_1
_geom_bond_atom_site_label_2
_geom_bond_site_symmetry_1
_geom_bond_site_symmetry_2
Eu1 O1 1_555 1_555
Eu2 O1 1_555 1_555
O1 C5 1_555 1_555
O2 Eu1 1_555 1_555
O3 C2 1_555 1_555
O4 C7 1_555 1_555
O5 C1 1_555 1_555
O6 Eu2 1_555 1_555
H1 O6 1_555 1_555
H2 O6 1_555 1_555
O7 Eu2 1_555 1_555
H3 O7 1_555 1_555
H4 O7 1_555 1_555
O8 Eu1 1_555 1_555
O9 C1 1_555 1_555
O10 C7 1_555 1_555
N1 Eu1 1_555 1_555
O11 Eu1 1_555 1_555
O12 Eu1 1_555 1_555
O13 C2 1_555 1_555
S1 C16 1_555 1_555
S2 C11 1_555 1_555
S3 C6 1_555 1_555
O14 H5 1_555 1_555
H6 O14 1_555 1_555
O15 C26 1_555 1_555
N2 H7 1_555 1_555
O16 C20 1_555 1_555
N3 H8 1_555 1_555
O17 C34 1_555 1_555
N4 H9 1_555 1_555
O18 C12 1_555 1_555
C1 C23 1_555 1_555
C2 C15 1_555 1_555
O19 Eu2 1_555 1_555
C3 C17 1_555 1_555
C4 O8 1_555 1_555
C5 O12 1_555 1_555
C6 C33 1_555 1_555
O20 C38 1_555 1_555
N5 H10 1_555 1_555
C7 C21 1_555 1_555
N6 H11 1_555 1_555
C8 H12 1_555 1_555
N7 H13 1_555 1_555
C9 O2 1_555 1_555
O21 C13 1_555 1_555
C10 N1 1_555 1_555
H14 C10 1_555 1_555
N8 C37 1_555 1_555
C11 C13 1_555 1_555
C12 N3 1_555 1_555
C13 N7 1_555 1_555
C14 C5 1_555 1_555
H15 C14 1_555 1_555
C15 N6 1_555 1_555
H16 C15 1_555 1_555
C16 C20 1_555 1_555
C17 C8 1_555 1_555
C18 C4 1_555 1_555
H17 C18 1_555 1_555
C19 C10 1_555 1_555
H18 C19 1_555 1_555
C20 N4 1_555 1_555
C21 N2 1_555 1_555
H19 C21 1_555 1_555
C22 N1 1_555 1_555
H20 C22 1_555 1_555
C23 N3 1_555 1_555
H21 C23 1_555 1_555
C24 N4 1_555 1_555
H22 C24 1_555 1_555
C25 H23 1_555 1_555
C26 N5 1_555 1_555
C27 S2 1_555 1_555
C28 C23 1_555 1_555
H24 C28 1_555 1_555
H25 C28 1_555 1_555
H26 C28 1_555 1_555
C29 C18 1_555 1_555
H27 C29 1_555 1_555
H28 C29 1_555 1_555
H29 C29 1_555 1_555
C30 C14 1_555 1_555
H30 C30 1_555 1_555
H31 C30 1_555 1_555
H32 C30 1_555 1_555
C31 C11 1_555 1_555
H33 C31 1_555 1_555
C32 S3 1_555 1_555
C33 H34 1_555 1_555
C34 C6 1_555 1_555
C35 C32 1_555 1_555
H35 C35 1_555 1_555
O22 H36 1_555 1_555
H37 O22 1_555 1_555
C36 C3 1_555 1_555
H38 C36 1_555 1_555
C37 H39 1_555 1_555
C38 N2 1_555 1_555
C39 S1 1_555 1_555
C40 N8 1_555 1_555
H40 C40 1_555 1_555
C41 C3 1_555 1_555
H41 C41 1_555 1_555
C42 C39 1_555 1_555
H42 C42 1_555 1_555
C43 C24 1_555 1_555
H43 C43 1_555 1_555
H44 C43 1_555 1_555
H45 C43 1_555 1_555
C44 C16 1_555 1_555
H46 C44 1_555 1_555
C45 C15 1_555 1_555
H47 C45 1_555 1_555
H48 C45 1_555 1_555
H49 C45 1_555 1_555
O23 H50 1_555 1_555
H51 O23 1_555 1_555
O24 H52 1_555 1_555
H53 O24 1_555 1_555
O25 H54 1_555 1_555
H55 O25 1_555 1_555
O26 H56 1_555 1_555
H57 O26 1_555 1_555
C46 C21 1_555 1_555
H58 C46 1_555 1_555
H59 C46 1_555 1_555
H60 C46 1_555 1_555
Eu1B O9 1_555 1_555
Eu1A O10 1_555 1_555
Eu1A_2 O13 1_555 1_555
Eu2B O3 1_555 1_555
Eu2B_2 O4 1_555 1_555
Eu2B_3 O5 1_555 1_555
O3B Eu2 1_555 1_555
O4B Eu2 1_555 1_555
O5B Eu2 1_555 1_555
O9B Eu1 1_555 1_555
O10A Eu1 1_555 1_555
O13A Eu1 1_555 1_555
Eu2 O2 1_555 1_555
O11 C4 1_555 1_555
O19 C9 1_555 1_555
N5 C18 1_555 1_555
N6 C34 1_555 1_555
C8 C22 1_555 1_555
N7 C14 1_555 1_555
C9 C24 1_555 1_555
C12 C27 1_555 1_555
C17 C19 1_555 1_555
C25 C27 1_555 1_555
C25 C31 1_555 1_555
C26 C32 1_555 1_555
C33 C35 1_555 1_555
C36 C40 1_555 1_555
C37 C41 1_555 1_555
C38 C39 1_555 1_555
C42 C44 1_555 1_555

#END
