
#######################################################################
#
#                 Cambridge Crystallographic Data Centre
#                                CCDC 
#
#######################################################################
#
# If this CIF has been generated from an entry in the Cambridge 
# Structural Database, then it will include bibliographic, chemical, 
# crystal, experimental, refinement or atomic coordinate data resulting 
# from the CCDC's data processing and validation procedures.
#
#######################################################################

data_FALJEJ
_symmetry_cell_setting           monoclinic
_symmetry_space_group_name_H-M   'C 2/c'
_symmetry_Int_Tables_number      15
_space_group_name_Hall           '-C 2yn'
loop_
_symmetry_equiv_pos_site_id
_symmetry_equiv_pos_as_xyz
1 x,y,z
2 -x,y,1/2-z
3 1/2+x,1/2+y,z
4 1/2-x,1/2+y,1/2-z
5 -x,-y,-z
6 x,-y,1/2+z
7 1/2-x,1/2-y,-z
8 1/2+x,1/2-y,1/2+z
_cell_length_a                   31.12(2)
_cell_length_b                   13.580(9)
_cell_length_c                   23.973(16)
_cell_angle_alpha                90
_cell_angle_beta                 124.070(10)
_cell_angle_gamma                90
_cell_volume                     8392.23
loop_
_atom_site_label
_atom_site_type_symbol
_atom_site_fract_x
_atom_site_fract_y
_atom_site_fract_z
Co1 Co 0.16200(3) 0.70220(5) 0.22524(4)
C1 C 0.2151(3) 0.5742(5) 0.1713(3)
H1 H 0.1828 0.5736 0.1305
C2 C 0.2569(3) 0.5330(5) 0.1745(4)
H2 H 0.2526 0.5042 0.1365
C3 C 0.3043(3) 0.5348(5) 0.2336(3)
H3 H 0.3328 0.5076 0.2363
C4 C 0.3098(2) 0.5769(4) 0.2892(3)
H4 H 0.3421 0.5789 0.3299
C5 C 0.2670(2) 0.6161(4) 0.2840(3)
C6 C 0.2692(2) 0.6674(4) 0.3400(3)
C7 C 0.3125(2) 0.6727(4) 0.4045(3)
H5 H 0.3424 0.6385 0.4165
C8 C 0.3115(2) 0.7298(4) 0.4523(3)
C9 C 0.2659(2) 0.7810(4) 0.4316(3)
H6 H 0.2642 0.8205 0.4620
C10 C 0.2233(2) 0.7730(4) 0.3658(3)
C11 C 0.1734(2) 0.8258(4) 0.3352(3)
C12 C 0.1637(2) 0.8928(4) 0.3705(3)
H7 H 0.1881 0.9034 0.4162
C13 C 0.1170(3) 0.9440(5) 0.3366(4)
H8 H 0.1098 0.9890 0.3596
C14 C 0.0819(3) 0.9279(5) 0.2696(4)
H9 H 0.0507 0.9623 0.2461
C15 C 0.0935(2) 0.8592(5) 0.2370(3)
H10 H 0.0691 0.8474 0.1915
C16 C 0.3597(2) 0.7407(5) 0.5207(3)
C17 C 0.3973(3) 0.6675(5) 0.5477(3)
H11 H 0.3909 0.6092 0.5238
C18 C 0.4440(3) 0.6789(6) 0.6090(3)
H12 H 0.4689 0.6293 0.6256
C19 C 0.4536(3) 0.7616(6) 0.6448(3)
H13 H 0.4850 0.7690 0.6863
C20 C 0.4175(3) 0.8350(6) 0.6206(3)
H14 H 0.4247 0.8924 0.6455
C21 C 0.3699(3) 0.8248(5) 0.5589(3)
H15 H 0.3451 0.8743 0.5435
C22 C 0.1362(3) 0.5354(4) 0.2939(3)
H16 H 0.1692 0.5468 0.3323
C23 C 0.1050(3) 0.4662(5) 0.2965(3)
H17 H 0.1165 0.4330 0.3364
C24 C 0.0567(3) 0.4465(5) 0.2397(3)
H18 H 0.0356 0.3984 0.2403
C25 C 0.0402(2) 0.4995(4) 0.1820(3)
H19 H 0.0071 0.4895 0.1435
C26 C 0.0729(2) 0.5673(4) 0.1816(3)
C27 C 0.0592(2) 0.6265(4) 0.1216(3)
C28 C 0.0125(2) 0.6199(4) 0.0592(3)
H20 H -0.0130 0.5763 0.0527
C29 C 0.0038(2) 0.6798(4) 0.0056(3)
C30 C 0.0436(2) 0.7417(4) 0.0188(3)
H21 H 0.0392 0.7825 -0.0152
C31 C 0.0893(2) 0.7442(4) 0.0809(3)
C32 C 0.1350(2) 0.8033(4) 0.0985(3)
C33 C 0.1400(2) 0.8501(5) 0.0512(3)
H22 H 0.1130 0.8491 0.0058
C34 C 0.1851(3) 0.8977(5) 0.0723(4)
H23 H 0.1890 0.9300 0.0412
C35 C 0.2248(3) 0.8985(5) 0.1389(4)
H24 H 0.2559 0.9299 0.1535
C36 C 0.2174(2) 0.8514(5) 0.1841(3)
H25 H 0.2441 0.8528 0.2296
C37 C -0.0464(2) 0.6786(4) -0.0613(3)
C38 C -0.0902(3) 0.6343(5) -0.0708(3)
H26 H -0.0885 0.6032 -0.0351
C39 C -0.1364(3) 0.6366(5) -0.1337(4)
H27 H -0.1658 0.6067 -0.1402
C40 C -0.1390(3) 0.6826(5) -0.1863(4)
H28 H -0.1704 0.6840 -0.2283
C41 C -0.0965(3) 0.7266(6) -0.1786(3)
H29 H -0.0983 0.7573 -0.2146
C42 C -0.0504(2) 0.7240(5) -0.1153(3)
H30 H -0.0212 0.7540 -0.1091
N1 N 0.21974(19) 0.6153(3) 0.2255(2)
N2 N 0.22464(17) 0.7159(3) 0.3206(2)
N3 N 0.13843(18) 0.8087(3) 0.2684(2)
N4 N 0.12057(18) 0.5872(3) 0.2374(2)
N5 N 0.09731(17) 0.6878(3) 0.1326(2)
N6 N 0.17403(19) 0.8042(3) 0.1653(2)
V1 V 0.05011(4) 0.19445(8) 0.33269(5)
V2 V 0.17737(4) 0.21666(7) 0.38842(5)
V3 V 0.22394(4) 0.42405(7) 0.49031(5)
O1 O 0.0490(3) 0.2884(5) 0.3695(4)
O2 O 0.0000 0.2383(10) 0.2500
O3 O 0.0432(3) 0.1007(5) 0.3648(5)
O4 O 0.11129(15) 0.1898(3) 0.3392(2)
O5 O 0.18854(19) 0.3239(3) 0.4330(2)
O6 O 0.1956(2) 0.2317(4) 0.3388(2)
O7 O 0.21212(16) 0.1191(3) 0.44260(19)
O8 O 0.23175(18) 0.5152(3) 0.4536(2)
O9 O 0.19134(18) 0.4652(4) 0.5189(2)
V1A V -0.05011(4) 0.19445(8) 0.16731(5)
V2A V -0.17737(4) 0.21666(7) 0.11158(5)
V2F V 0.32263(4) 0.28334(7) 0.61158(5)
V3F V 0.27606(4) 0.07595(7) 0.50969(5)
V3A V -0.22394(4) 0.42405(7) 0.00969(5)
O1A O -0.0490(3) 0.2884(5) 0.1305(4)
O3A O -0.0432(3) 0.1007(5) 0.1352(5)
O4A O -0.11129(15) 0.1898(3) 0.1608(2)
O5A O -0.18854(19) 0.3239(3) 0.0670(2)
O5F O 0.31146(19) 0.1761(3) 0.5670(2)
O6A O -0.1956(2) 0.2317(4) 0.1612(2)
O7F O 0.28788(16) 0.3809(3) 0.55740(19)
O7A O -0.21212(16) 0.1191(3) 0.05740(19)
O8F O 0.26825(18) -0.0152(3) 0.5464(2)
O9F O 0.30866(18) 0.0348(4) 0.4811(2)
O10 O 0.4984(4) 0.4916(7) 0.5771(5)
O11 O 0.4321(4) 0.5706(7) 0.4481(4)
O12 O 0.0837(2) 0.4404(4) 0.4650(3)
O13? O 0.0000 0.1526(17) 0.2500
loop_
_geom_bond_atom_site_label_1
_geom_bond_atom_site_label_2
_geom_bond_site_symmetry_1
_geom_bond_site_symmetry_2
Co1 N1 1_555 1_555
C1 H1 1_555 1_555
C2 C1 1_555 1_555
H2 C2 1_555 1_555
C3 C2 1_555 1_555
H3 C3 1_555 1_555
C4 C3 1_555 1_555
H4 C4 1_555 1_555
C5 C4 1_555 1_555
C6 C5 1_555 1_555
C7 C6 1_555 1_555
H5 C7 1_555 1_555
C8 C7 1_555 1_555
C9 C8 1_555 1_555
H6 C9 1_555 1_555
C10 C9 1_555 1_555
C11 C10 1_555 1_555
C12 C11 1_555 1_555
H7 C12 1_555 1_555
C13 C12 1_555 1_555
H8 C13 1_555 1_555
C14 C13 1_555 1_555
H9 C14 1_555 1_555
C15 C14 1_555 1_555
H10 C15 1_555 1_555
C16 C8 1_555 1_555
C17 C16 1_555 1_555
H11 C17 1_555 1_555
C18 C17 1_555 1_555
H12 C18 1_555 1_555
C19 C18 1_555 1_555
H13 C19 1_555 1_555
C20 C19 1_555 1_555
H14 C20 1_555 1_555
C21 C16 1_555 1_555
H15 C21 1_555 1_555
C22 H16 1_555 1_555
C23 C22 1_555 1_555
H17 C23 1_555 1_555
C24 C23 1_555 1_555
H18 C24 1_555 1_555
C25 C24 1_555 1_555
H19 C25 1_555 1_555
C26 C25 1_555 1_555
C27 C26 1_555 1_555
C28 C27 1_555 1_555
H20 C28 1_555 1_555
C29 C28 1_555 1_555
C30 C29 1_555 1_555
H21 C30 1_555 1_555
C31 C30 1_555 1_555
C32 C31 1_555 1_555
C33 C32 1_555 1_555
H22 C33 1_555 1_555
C34 C33 1_555 1_555
H23 C34 1_555 1_555
C35 C34 1_555 1_555
H24 C35 1_555 1_555
C36 C35 1_555 1_555
H25 C36 1_555 1_555
C37 C29 1_555 1_555
C38 C37 1_555 1_555
H26 C38 1_555 1_555
C39 C38 1_555 1_555
H27 C39 1_555 1_555
C40 C39 1_555 1_555
H28 C40 1_555 1_555
C41 C40 1_555 1_555
H29 C41 1_555 1_555
C42 C37 1_555 1_555
H30 C42 1_555 1_555
N1 C1 1_555 1_555
N2 Co1 1_555 1_555
N3 Co1 1_555 1_555
N4 Co1 1_555 1_555
N5 Co1 1_555 1_555
N6 Co1 1_555 1_555
V1 O1 1_555 1_555
V2 O4 1_555 1_555
V3 O5 1_555 1_555
O2 V1 1_555 1_555
O3 V1 1_555 1_555
O4 V1 1_555 1_555
O5 V2 1_555 1_555
O6 V2 1_555 1_555
O7 V2 1_555 1_555
O8 V3 1_555 1_555
O9 V3 1_555 1_555
V1A O2 1_555 1_555
V2A O4A 1_555 1_555
V2F O5F 1_555 1_555
V3F O7 1_555 1_555
V3A O5A 1_555 1_555
O1A V1A 1_555 1_555
O3A V1A 1_555 1_555
O4A V1A 1_555 1_555
O5A V2A 1_555 1_555
O5F V3F 1_555 1_555
O6A V2A 1_555 1_555
O7F V3 1_555 1_555
O7A V2A 1_555 1_555
O8F V3F 1_555 1_555
O9F V3F 1_555 1_555
C5 N1 1_555 1_555
C6 N2 1_555 1_555
C10 N2 1_555 1_555
C11 N3 1_555 1_555
C15 N3 1_555 1_555
C20 C21 1_555 1_555
C22 N4 1_555 1_555
C26 N4 1_555 1_555
C27 N5 1_555 1_555
C31 N5 1_555 1_555
C32 N6 1_555 1_555
C36 N6 1_555 1_555
C41 C42 1_555 1_555
V2F O7F 1_555 1_555

#END
