
#######################################################################
#
#                 Cambridge Crystallographic Data Centre
#                                CCDC 
#
#######################################################################
#
# If this CIF has been generated from an entry in the Cambridge 
# Structural Database, then it will include bibliographic, chemical, 
# crystal, experimental, refinement or atomic coordinate data resulting 
# from the CCDC's data processing and validation procedures.
#
#######################################################################

data_FALJUZ
_symmetry_cell_setting           monoclinic
_symmetry_space_group_name_H-M   'C 2/c'
_symmetry_Int_Tables_number      15
_space_group_name_Hall           '-C 2yn'
loop_
_symmetry_equiv_pos_site_id
_symmetry_equiv_pos_as_xyz
1 x,y,z
2 -x,y,1/2-z
3 1/2+x,1/2+y,z
4 1/2-x,1/2+y,1/2-z
5 -x,-y,-z
6 x,-y,1/2+z
7 1/2-x,1/2-y,-z
8 1/2+x,1/2-y,1/2+z
_cell_length_a                   20.316(4)
_cell_length_b                   11.342(2)
_cell_length_c                   17.782(3)
_cell_angle_alpha                90
_cell_angle_beta                 120.900(3)
_cell_angle_gamma                90
_cell_volume                     3515.84
loop_
_atom_site_label
_atom_site_type_symbol
_atom_site_fract_x
_atom_site_fract_y
_atom_site_fract_z
Co1 Co 0.0000 0.46357(9) 0.2500
N1 N 0.2584(3) 0.2778(5) 0.0339(3)
N2 N 0.4725(2) 0.5119(5) 0.4629(3)
N3 N 0.0000 0.2755(5) 0.2500
N4 N 0.0000 -0.3485(5) 0.2500
O1 O 0.0300(2) 0.4599(3) 0.1539(2)
O2 O -0.0495(2) 0.3530(4) 0.0375(3)
O3 O 0.11801(19) 0.4741(4) 0.3328(2)
O4 O 0.1671(2) 0.3917(4) 0.4638(3)
H1 H 0.1222 0.3767 0.4550
C1 C 0.0156(3) 0.3977(5) 0.0903(4)
C2 C 0.0783(3) 0.3666(5) 0.0727(4)
C3 C 0.0619(3) 0.3090(6) -0.0031(4)
H3 H 0.0113 0.2901 -0.0442
C4 C 0.1192(3) 0.2791(6) -0.0189(4)
H4 H 0.1077 0.2404 -0.0704
C5 C 0.1941(3) 0.3071(5) 0.0423(4)
C6 C 0.2109(3) 0.3640(7) 0.1177(4)
H5 H 0.2616 0.3822 0.1590
C7 C 0.1529(3) 0.3947(6) 0.1330(4)
H6 H 0.1644 0.4344 0.1841
C8 C 0.3990(3) 0.4920(5) 0.4528(4)
C9 C 0.3371(3) 0.5406(6) 0.3793(4)
H7 H 0.3445 0.5837 0.3397
C10 C 0.2646(3) 0.5247(5) 0.3650(4)
H8 H 0.2228 0.5574 0.3154
C11 C 0.2526(3) 0.4609(5) 0.4229(4)
C12 C 0.3146(3) 0.4124(6) 0.4961(4)
H9 H 0.3070 0.3691 0.5354
C13 C 0.3880(3) 0.4275(6) 0.5115(4)
H10 H 0.4297 0.3945 0.5610
C14 C 0.1725(3) 0.4423(5) 0.4045(4)
C15 C 0.0613(3) 0.2124(5) 0.2632(3)
H11 H 0.1045 0.2533 0.2723
C16 C 0.0637(3) 0.0918(5) 0.2640(3)
H12 H 0.1079 0.0529 0.2743
C17 C 0.0000 0.0276(7) 0.2500
C18 C 0.0000 -0.1023(7) 0.2500
H13 H 0.0805 -0.1288 0.2173
H14 H 0.0790 -0.3293 0.2193
C19 C 0.0475(3) -0.1673(5) 0.2309(3)
C20 C 0.0462(3) -0.2880(5) 0.2319(3)
Co1_2 Co 0.0000 -0.53643(9) 0.2500
Co1D Co 1.0000 0.53643(9) 0.7500
Co1F Co 0.5000 0.03643(9) -0.2500
N1F N 0.2416(3) 0.2222(5) -0.0339(3)
N2D N 0.5275(2) 0.4881(5) 0.5371(3)
N4_2 N 0.0000 0.6515(5) 0.2500
O1F O 0.4700(2) 0.0401(3) -0.1539(2)
O1A O -0.0300(2) 0.4599(3) 0.3461(2)
O2F O 0.5495(2) 0.1470(4) -0.0375(3)
O3D O 0.88199(19) 0.5259(4) 0.6672(2)
O3A O -0.11801(19) 0.4741(4) 0.1672(2)
O4D O 0.8329(2) 0.6083(4) 0.5362(3)
H1D H 0.8778 0.6233 0.5450
C1F C 0.4844(3) 0.1023(5) -0.0903(4)
C2F C 0.4217(3) 0.1334(5) -0.0727(4)
C3F C 0.4381(3) 0.1910(6) 0.0031(4)
H3F H 0.4887 0.2099 0.0442
C4F C 0.3808(3) 0.2209(6) 0.0189(4)
H4F H 0.3923 0.2596 0.0704
C5F C 0.3059(3) 0.1929(5) -0.0423(4)
C6F C 0.2891(3) 0.1360(7) -0.1177(4)
H5F H 0.2384 0.1178 -0.1590
C7F C 0.3471(3) 0.1053(6) -0.1330(4)
H6F H 0.3356 0.0656 -0.1841
C8D C 0.6010(3) 0.5080(5) 0.5472(4)
C9D C 0.6629(3) 0.4594(6) 0.6207(4)
H7D H 0.6555 0.4163 0.6603
C10D C 0.7354(3) 0.4753(5) 0.6350(4)
H8D H 0.7772 0.4426 0.6846
C11D C 0.7474(3) 0.5391(5) 0.5771(4)
C12D C 0.6854(3) 0.5876(6) 0.5039(4)
H9D H 0.6930 0.6309 0.4646
C13D C 0.6120(3) 0.5725(6) 0.4885(4)
H10D H 0.5703 0.6055 0.4390
C14D C 0.8275(3) 0.5577(5) 0.5955(4)
C15A C -0.0613(3) 0.2124(5) 0.2368(3)
H11A H -0.1045 0.2533 0.2277
C16A C -0.0637(3) 0.0918(5) 0.2360(3)
H12A H -0.1079 0.0529 0.2257
H13A H -0.0805 -0.1288 0.2827
H14A H -0.0790 -0.3293 0.2807
C19A C -0.0475(3) -0.1673(5) 0.2691(3)
C20A C -0.0462(3) -0.2880(5) 0.2681(3)
O5 O 0.2488(5) 0.1616(9) 0.3466(6)
H2 H 0.2672 0.1229 0.3919
C21 C 0.3087(9) 0.2061(12) 0.3371(8)
H15 H 0.3387 0.2613 0.3831
H16 H 0.2870 0.2451 0.2814
H17 H 0.3409 0.1424 0.3394
loop_
_geom_bond_atom_site_label_1
_geom_bond_atom_site_label_2
_geom_bond_site_symmetry_1
_geom_bond_site_symmetry_2
Co1 N3 1_555 1_555
N1 C5 1_555 1_555
N2 C8 1_555 1_555
N3 C15 1_555 1_555
N4 C20 1_555 1_555
O1 Co1 1_555 1_555
O2 C1 1_555 1_555
O3 Co1 1_555 1_555
O4 H1 1_555 1_555
O5 H2 1_555 1_555
C1 O1 1_555 1_555
C2 C1 1_555 1_555
C3 C2 1_555 1_555
H3 C3 1_555 1_555
C4 C3 1_555 1_555
H4 C4 1_555 1_555
C5 C4 1_555 1_555
C6 C5 1_555 1_555
H5 C6 1_555 1_555
C7 C2 1_555 1_555
H6 C7 1_555 1_555
C8 C9 1_555 1_555
C9 H7 1_555 1_555
C10 C9 1_555 1_555
H8 C10 1_555 1_555
C11 C10 1_555 1_555
C12 C11 1_555 1_555
H9 C12 1_555 1_555
C13 C8 1_555 1_555
H10 C13 1_555 1_555
C14 O3 1_555 1_555
C15 H11 1_555 1_555
C16 C15 1_555 1_555
H12 C16 1_555 1_555
C17 C16 1_555 1_555
C18 C17 1_555 1_555
H13 C19 1_555 1_555
H14 C20 1_555 1_555
C19 C18 1_555 1_555
C20 C19 1_555 1_555
C21 O5 1_555 1_555
H15 C21 1_555 1_555
H16 C21 1_555 1_555
H17 C21 1_555 1_555
Co1_2 N4 1_555 1_555
Co1D O3D 1_555 1_555
Co1F O1F 1_555 1_555
N1F N1 1_555 1_555
N2D N2 1_555 1_555
N4_2 Co1 1_555 1_555
O1F C1F 1_555 1_555
O1A Co1 1_555 1_555
O2F C1F 1_555 1_555
O3D C14D 1_555 1_555
O3A Co1 1_555 1_555
O4D H1D 1_555 1_555
C1F C2F 1_555 1_555
C2F C3F 1_555 1_555
C3F H3F 1_555 1_555
C4F C3F 1_555 1_555
H4F C4F 1_555 1_555
C5F N1F 1_555 1_555
C6F C5F 1_555 1_555
H5F C6F 1_555 1_555
C7F C2F 1_555 1_555
H6F C7F 1_555 1_555
C8D N2D 1_555 1_555
C9D C8D 1_555 1_555
H7D C9D 1_555 1_555
C10D C9D 1_555 1_555
H8D C10D 1_555 1_555
C11D C10D 1_555 1_555
C12D C11D 1_555 1_555
H9D C12D 1_555 1_555
C13D C8D 1_555 1_555
H10D C13D 1_555 1_555
C14D O4D 1_555 1_555
C15A N3 1_555 1_555
H11A C15A 1_555 1_555
C16A C17 1_555 1_555
H12A C16A 1_555 1_555
H13A C19A 1_555 1_555
H14A C20A 1_555 1_555
C19A C18 1_555 1_555
C20A N4 1_555 1_555
O4 C14 1_555 1_555
C6 C7 1_555 1_555
C11 C14 1_555 1_555
C12 C13 1_555 1_555
C4F C5F 1_555 1_555
C6F C7F 1_555 1_555
C11D C14D 1_555 1_555
C12D C13D 1_555 1_555
C15A C16A 1_555 1_555
C19A C20A 1_555 1_555

#END
