
#######################################################################
#
#                 Cambridge Crystallographic Data Centre
#                                CCDC 
#
#######################################################################
#
# If this CIF has been generated from an entry in the Cambridge 
# Structural Database, then it will include bibliographic, chemical, 
# crystal, experimental, refinement or atomic coordinate data resulting 
# from the CCDC's data processing and validation procedures.
#
#######################################################################

data_FALLOV
_symmetry_cell_setting           triclinic
_symmetry_space_group_name_H-M   'P -1'
_symmetry_Int_Tables_number      2
_space_group_name_Hall           '-P 1'
loop_
_symmetry_equiv_pos_site_id
_symmetry_equiv_pos_as_xyz
1 x,y,z
2 -x,-y,-z
_cell_length_a                   8.6130(9)
_cell_length_b                   14.4004(16)
_cell_length_c                   21.599(2)
_cell_angle_alpha                93.850(2)
_cell_angle_beta                 90.301(2)
_cell_angle_gamma                99.777(2)
_cell_volume                     2633.69
loop_
_atom_site_label
_atom_site_type_symbol
_atom_site_fract_x
_atom_site_fract_y
_atom_site_fract_z
Zn1 Zn 0.09094(7) -0.18380(4) 0.54346(3)
Zn2 Zn -0.12260(7) -0.18594(4) -0.07349(3)
O1 O 0.1471(6) -0.3092(3) 0.5210(2)
O2 O 0.2073(7) -0.2904(4) 0.6190(3)
O3 O 0.2446(5) -0.0698(3) 0.55375(16)
O4 O 0.2070(5) -0.0600(3) 0.65481(17)
N1 N 0.0238(5) -0.1646(3) 0.45295(19)
N2 N -0.0805(5) -0.1952(3) 0.01945(19)
N3 N 0.8928(5) -0.1922(3) -0.40540(18)
N4 N 0.0879(5) -0.1710(3) -0.11877(18)
O5 O -0.2794(5) -0.2833(3) -0.1173(2)
O6 O -0.1041(5) -0.3663(3) -0.0912(2)
O7 O -0.2173(5) -0.0723(3) -0.06382(17)
O8 O -0.2159(5) -0.0650(3) -0.16644(18)
C1 C 0.2006(7) -0.3369(5) 0.5685(3)
C2 C 0.2625(7) -0.4276(4) 0.5626(3)
C3 C 0.2365(8) -0.4865(4) 0.5093(3)
H1 H 0.1788 -0.4689 0.4768
C4 C 0.2920(11) -0.5692(6) 0.5025(5)
H2 H 0.2722 -0.6082 0.4662
C5 C 0.3771(13) -0.5936(7) 0.5498(7)
H3 H 0.4187 -0.6491 0.5447
C6 C 0.4034(11) -0.5418(8) 0.6028(6)
H4 H 0.4596 -0.5617 0.6349
C7 C 0.3454(10) -0.4558(6) 0.6104(4)
H5 H 0.3631 -0.4186 0.6474
C8 C 0.2721(6) -0.0308(4) 0.6080(2)
C9 C 0.3972(6) 0.0571(4) 0.6126(2)
C10 C 0.4572(7) 0.0990(4) 0.5606(3)
H6 H 0.4230 0.0725 0.5214
C11 C 0.5694(8) 0.1814(4) 0.5665(3)
H7 H 0.6105 0.2095 0.5313
C12 C 0.6185(8) 0.2205(5) 0.6237(4)
H8 H 0.6922 0.2759 0.6276
C13 C 0.5605(10) 0.1791(5) 0.6754(4)
H9 H 0.5968 0.2053 0.7144
C14 C 0.4488(8) 0.0989(5) 0.6704(3)
H10 H 0.4073 0.0723 0.7061
C15 C -0.0383(7) -0.2392(4) 0.4152(2)
H11 H -0.0688 -0.2971 0.4321
C16 C -0.0593(7) -0.2338(4) 0.3521(2)
H12 H -0.1070 -0.2867 0.3277
C17 C -0.0086(7) -0.1487(4) 0.3251(2)
C18 C 0.0551(7) -0.0731(4) 0.3647(2)
H13 H 0.0897 -0.0148 0.3488
C19 C 0.0687(7) -0.0821(4) 0.4274(2)
H14 H 0.1104 -0.0291 0.4530
C20 C -0.0190(7) -0.1377(4) 0.2583(2)
H15 H -0.0091 -0.0768 0.2451
C21 C -0.0414(7) -0.2085(4) 0.2161(2)
H16 H -0.0493 -0.2687 0.2302
C22 C -0.0553(7) -0.2022(4) 0.1485(2)
C23 C -0.0670(7) -0.1197(4) 0.1217(2)
H17 H -0.0644 -0.0643 0.1467
C24 C -0.0827(6) -0.1181(4) 0.0583(2)
H18 H -0.0953 -0.0619 0.0417
C25 C -0.0661(8) -0.2754(4) 0.0453(3)
H19 H -0.0655 -0.3296 0.0193
C26 C -0.0523(9) -0.2819(4) 0.1076(3)
H20 H -0.0408 -0.3391 0.1231
C27 C 0.9010(6) -0.2050(4) -0.3449(2)
H21 H 0.9960 -0.2152 -0.3283
C28 C 0.7756(6) -0.2037(4) -0.3061(2)
H22 H 0.7865 -0.2140 -0.2644
C29 C 0.6310(6) -0.1870(4) -0.3292(2)
C30 C 0.6246(7) -0.1755(4) -0.3915(2)
H23 H 0.5308 -0.1662 -0.4097
C31 C 0.7553(6) -0.1775(4) -0.4275(2)
H24 H 0.7471 -0.1681 -0.4695
C32 C 0.4933(6) -0.1816(4) -0.2898(2)
H25 H 0.4016 -0.1717 -0.3093
C33 C 0.4883(6) -0.1894(4) -0.2301(2)
H26 H 0.5784 -0.2021 -0.2107
C34 C 0.3530(6) -0.1799(3) -0.1908(2)
C35 C 0.3443(7) -0.2093(4) -0.1313(2)
H27 H 0.4284 -0.2323 -0.1142
C36 C 0.2131(7) -0.2047(4) -0.0978(2)
H28 H 0.2094 -0.2261 -0.0581
C37 C 0.0963(6) -0.1391(4) -0.1755(2)
H29 H 0.0126 -0.1134 -0.1905
C38 C 0.2245(6) -0.1432(4) -0.2123(2)
H30 H 0.2259 -0.1213 -0.2519
C39 C -0.2285(8) -0.3598(4) -0.1182(3)
C40 C -0.3215(7) -0.4465(4) -0.1518(3)
C41 C -0.4630(9) -0.4434(5) -0.1804(4)
H31 H -0.5012 -0.3867 -0.1799
C42 C -0.5485(10) -0.5234(6) -0.2099(5)
H32 H -0.6451 -0.5208 -0.2285
C43 C -0.4937(11) -0.6054(6) -0.2120(4)
H33 H -0.5530 -0.6591 -0.2320
C44 C -0.3543(11) -0.6106(5) -0.1856(5)
H34 H -0.3158 -0.6672 -0.1877
C45 C -0.2682(8) -0.5297(5) -0.1550(3)
H35 H -0.1719 -0.5330 -0.1363
C46 C -0.2550(6) -0.0384(4) -0.1142(3)
C47 C -0.3508(6) 0.0381(4) -0.1064(2)
C48 C -0.4132(7) 0.0734(4) -0.1582(3)
H36 H -0.3939 0.0485 -0.1977
C49 C -0.5010(8) 0.1429(5) -0.1519(3)
H37 H -0.5438 0.1638 -0.1870
C50 C -0.5274(7) 0.1827(5) -0.0945(3)
H38 H -0.5845 0.2320 -0.0908
C51 C -0.4697(8) 0.1497(5) -0.0424(3)
H39 H -0.4893 0.1755 -0.0032
C52 C -0.3823(7) 0.0780(4) -0.0489(3)
H40 H -0.3435 0.0558 -0.0135
Zn1_2 Zn 1.09094(7) -0.18380(4) -0.45654(3)
N3_2 N -0.1072(5) -0.1922(3) 0.59460(18)
O9 O -1.0545(8) -0.4375(4) 0.2617(3)
C53 C -1.0104(10) -0.5072(6) 0.2750(4)
C54 C -1.0707(10) -0.6013(5) 0.2433(4)
H41 H -1.1368 -0.6391 0.2710
H42 H -0.9836 -0.6319 0.2315
H43 H -1.1306 -0.5936 0.2070
C55 C -0.8964(12) -0.5057(7) 0.3249(5)
H44 H -0.8083 -0.5325 0.3095
H45 H -0.9448 -0.5419 0.3576
H46 H -0.8608 -0.4417 0.3407
O10 O -0.225(3) -0.5396(16) 0.0513(11)
loop_
_geom_bond_atom_site_label_1
_geom_bond_atom_site_label_2
_geom_bond_site_symmetry_1
_geom_bond_site_symmetry_2
Zn1 O1 1_555 1_555
Zn2 N2 1_555 1_555
O1 C1 1_555 1_555
O2 C1 1_555 1_555
O3 Zn1 1_555 1_555
O4 C8 1_555 1_555
N1 Zn1 1_555 1_555
N2 C24 1_555 1_555
N3 C27 1_555 1_555
N4 Zn2 1_555 1_555
O5 Zn2 1_555 1_555
O6 C39 1_555 1_555
O7 Zn2 1_555 1_555
O8 C46 1_555 1_555
C1 C2 1_555 1_555
C2 C3 1_555 1_555
C3 H1 1_555 1_555
C4 C3 1_555 1_555
H2 C4 1_555 1_555
C5 C4 1_555 1_555
H3 C5 1_555 1_555
C6 C5 1_555 1_555
H4 C6 1_555 1_555
C7 C2 1_555 1_555
H5 C7 1_555 1_555
C8 O3 1_555 1_555
C9 C8 1_555 1_555
C10 C9 1_555 1_555
H6 C10 1_555 1_555
C11 C10 1_555 1_555
H7 C11 1_555 1_555
C12 C11 1_555 1_555
H8 C12 1_555 1_555
C13 C12 1_555 1_555
H9 C13 1_555 1_555
C14 C9 1_555 1_555
H10 C14 1_555 1_555
C15 N1 1_555 1_555
H11 C15 1_555 1_555
C16 C15 1_555 1_555
H12 C16 1_555 1_555
C17 C16 1_555 1_555
C18 C17 1_555 1_555
H13 C18 1_555 1_555
C19 N1 1_555 1_555
H14 C19 1_555 1_555
C20 C17 1_555 1_555
H15 C20 1_555 1_555
C21 C20 1_555 1_555
H16 C21 1_555 1_555
C22 C21 1_555 1_555
C23 C22 1_555 1_555
H17 C23 1_555 1_555
C24 C23 1_555 1_555
H18 C24 1_555 1_555
C25 N2 1_555 1_555
H19 C25 1_555 1_555
C26 C22 1_555 1_555
H20 C26 1_555 1_555
C27 H21 1_555 1_555
C28 C27 1_555 1_555
H22 C28 1_555 1_555
C29 C28 1_555 1_555
C30 C29 1_555 1_555
H23 C30 1_555 1_555
C31 N3 1_555 1_555
H24 C31 1_555 1_555
C32 C29 1_555 1_555
H25 C32 1_555 1_555
C33 C32 1_555 1_555
H26 C33 1_555 1_555
C34 C33 1_555 1_555
C35 C34 1_555 1_555
H27 C35 1_555 1_555
C36 N4 1_555 1_555
H28 C36 1_555 1_555
C37 N4 1_555 1_555
H29 C37 1_555 1_555
C38 C34 1_555 1_555
H30 C38 1_555 1_555
C39 O5 1_555 1_555
C40 C39 1_555 1_555
C41 C40 1_555 1_555
H31 C41 1_555 1_555
C42 C41 1_555 1_555
H32 C42 1_555 1_555
C43 C42 1_555 1_555
H33 C43 1_555 1_555
C44 C43 1_555 1_555
H34 C44 1_555 1_555
C45 C40 1_555 1_555
H35 C45 1_555 1_555
C46 O7 1_555 1_555
C47 C46 1_555 1_555
C48 C47 1_555 1_555
H36 C48 1_555 1_555
C49 C48 1_555 1_555
H37 C49 1_555 1_555
C50 C49 1_555 1_555
H38 C50 1_555 1_555
C51 C50 1_555 1_555
H39 C51 1_555 1_555
C52 C47 1_555 1_555
H40 C52 1_555 1_555
O9 C53 1_555 1_555
C53 C54 1_555 1_555
C54 H41 1_555 1_555
H42 C54 1_555 1_555
H43 C54 1_555 1_555
C55 C53 1_555 1_555
H44 C55 1_555 1_555
H45 C55 1_555 1_555
H46 C55 1_555 1_555
Zn1_2 N3 1_555 1_555
N3_2 Zn1 1_555 1_555
C6 C7 1_555 1_555
C13 C14 1_555 1_555
C18 C19 1_555 1_555
C25 C26 1_555 1_555
C30 C31 1_555 1_555
C35 C36 1_555 1_555
C37 C38 1_555 1_555
C44 C45 1_555 1_555
C51 C52 1_555 1_555

#END
