
#######################################################################
#
#                 Cambridge Crystallographic Data Centre
#                                CCDC 
#
#######################################################################
#
# If this CIF has been generated from an entry in the Cambridge 
# Structural Database, then it will include bibliographic, chemical, 
# crystal, experimental, refinement or atomic coordinate data resulting 
# from the CCDC's data processing and validation procedures.
#
#######################################################################

data_FALLEL
_symmetry_cell_setting           triclinic
_symmetry_space_group_name_H-M   'P -1'
_symmetry_Int_Tables_number      2
_space_group_name_Hall           '-P 1'
loop_
_symmetry_equiv_pos_site_id
_symmetry_equiv_pos_as_xyz
1 x,y,z
2 -x,-y,-z
_cell_length_a                   9.115(4)
_cell_length_b                   10.919(5)
_cell_length_c                   11.231(5)
_cell_angle_alpha                86.252(8)
_cell_angle_beta                 73.733(6)
_cell_angle_gamma                70.913(7)
_cell_volume                     1013.62
loop_
_atom_site_label
_atom_site_type_symbol
_atom_site_fract_x
_atom_site_fract_y
_atom_site_fract_z
C1 C 0.7677(7) 0.3583(5) 0.3515(4)
C2 C 0.9288(7) 0.2781(4) 0.2723(4)
C3 C 0.9490(7) 0.1544(5) 0.2299(4)
H1 H 0.8604 0.1221 0.2501
C4 C 1.0975(8) 0.0797(5) 0.1589(5)
H2 H 1.1096 -0.0031 0.1282
C5 C 1.2305(8) 0.1234(5) 0.1313(5)
H3 H 1.3333 0.0698 0.0845
C6 C 1.2109(7) 0.2465(5) 0.1730(5)
H4 H 1.3000 0.2783 0.1536
C7 C 1.0613(7) 0.3221(5) 0.2426(5)
H5 H 1.0485 0.4060 0.2709
C8 C 0.4131(7) 0.6086(5) 0.3085(4)
C9 C 0.3743(6) 0.6477(4) 0.1856(4)
C10 C 0.4077(7) 0.7542(5) 0.1236(4)
H6 H 0.4477 0.8072 0.1611
C11 C 0.3828(7) 0.7833(5) 0.0073(5)
H7 H 0.4055 0.8561 -0.0348
C12 C 0.3247(8) 0.7054(6) -0.0472(5)
H8 H 0.3087 0.7242 -0.1273
C13 C 0.2902(8) 0.6015(6) 0.0145(5)
H9 H 0.2505 0.5485 -0.0233
C14 C 0.3127(7) 0.5728(5) 0.1316(5)
H10 H 0.2857 0.5018 0.1746
C15 C 0.8426(7) 0.7039(5) 0.4632(4)
H11 H 0.9011 0.6202 0.4257
C16 C 0.9274(7) 0.7880(5) 0.4620(5)
H12 H 1.0406 0.7621 0.4246
C17 C 0.8453(7) 0.9116(5) 0.5164(4)
C18 C 0.6811(7) 0.9405(5) 0.5701(4)
H13 H 0.6204 1.0233 0.6089
C19 C 0.6027(6) 0.8500(5) 0.5685(4)
H14 H 0.4900 0.8724 0.6070
C20 C 0.9213(6) 1.0083(5) 0.5195(4)
H15 H 0.8523 1.0917 0.5527
N1 N 0.6835(6) 0.7320(4) 0.5136(4)
O1 O 0.7552(5) 0.4737(3) 0.3793(3)
O2 O 0.6567(4) 0.3087(3) 0.3869(3)
O3 O 0.4778(5) 0.6747(3) 0.3508(3)
O4 O 0.6212(5) 0.4884(3) 0.6419(3)
Zn1 Zn 0.56711(8) 0.60646(5) 0.50047(5)
C1A C 0.2323(7) 0.6417(5) 0.6485(4)
C2A C 0.0712(7) 0.7219(4) 0.7277(4)
C3A C 0.0510(7) 0.8456(5) 0.7701(4)
H1A H 0.1396 0.8779 0.7499
C4A C -0.0975(8) 0.9203(5) 0.8411(5)
H2A H -0.1096 1.0031 0.8718
C5A C -0.2305(8) 0.8766(5) 0.8687(5)
H3A H -0.3333 0.9302 0.9155
C6A C -0.2109(7) 0.7535(5) 0.8270(5)
H4A H -0.3000 0.7217 0.8464
C7A C -0.0613(7) 0.6779(5) 0.7574(5)
H5A H -0.0485 0.5940 0.7291
C8A C 0.5869(7) 0.3914(5) 0.6915(4)
C9A C 0.6257(6) 0.3523(4) 0.8144(4)
C10A C 0.5923(7) 0.2458(5) 0.8764(4)
H6A H 0.5523 0.1928 0.8389
C11A C 0.6172(7) 0.2167(5) 0.9927(5)
H7A H 0.5945 0.1439 1.0348
C12A C 0.6753(8) 0.2946(6) 1.0472(5)
H8A H 0.6913 0.2758 1.1273
C13A C 0.7098(8) 0.3985(6) 0.9855(5)
H9A H 0.7495 0.4515 1.0233
C14A C 0.6873(7) 0.4272(5) 0.8684(5)
H10A H 0.7143 0.4982 0.8254
C15A C 1.1574(7) 1.2961(5) 0.5368(4)
H11A H 1.0989 1.3798 0.5743
C16A C 1.0726(7) 1.2120(5) 0.5380(5)
H12A H 0.9594 1.2379 0.5754
C17A C 1.1547(7) 1.0884(5) 0.4836(4)
C18A C 1.3189(7) 1.0595(5) 0.4299(4)
H13A H 1.3796 0.9767 0.3911
C19A C 1.3973(6) 1.1500(5) 0.4315(4)
H14A H 1.5100 1.1276 0.3930
C20A C 1.0787(6) 0.9917(5) 0.4805(4)
H15A H 1.1477 0.9083 0.4473
N1A N 1.3165(6) 1.2680(4) 0.4864(4)
N1A_2 N 0.3165(6) 0.2680(4) 0.4864(4)
O1A O 0.2448(5) 0.5263(3) 0.6207(3)
O2A O 0.3433(4) 0.6913(3) 0.6131(3)
O3A O 0.5222(5) 0.3253(3) 0.6492(3)
O4A O 0.3788(5) 0.5116(3) 0.3581(3)
Zn1A Zn 1.43289(8) 1.39354(5) 0.49953(5)
Zn1A_2 Zn 0.43289(8) 0.39354(5) 0.49953(5)
N2 N 0.3057(7) 0.0531(6) 0.7873(5)
C21 C 0.2396(8) 0.1599(6) 0.8154(5)
C22 C 0.1600(8) 0.2955(6) 0.8503(6)
H16 H 0.2266 0.3463 0.8029
H17 H 0.1448 0.3075 0.9392
H18 H 0.0548 0.3246 0.8327
loop_
_geom_bond_atom_site_label_1
_geom_bond_atom_site_label_2
_geom_bond_site_symmetry_1
_geom_bond_site_symmetry_2
C1 C2 1_555 1_555
C2 C3 1_555 1_555
C3 H1 1_555 1_555
C4 C3 1_555 1_555
H2 C4 1_555 1_555
C5 C4 1_555 1_555
H3 C5 1_555 1_555
C6 C5 1_555 1_555
H4 C6 1_555 1_555
C7 C2 1_555 1_555
H5 C7 1_555 1_555
C8 C9 1_555 1_555
C9 C10 1_555 1_555
C10 H6 1_555 1_555
C11 C10 1_555 1_555
H7 C11 1_555 1_555
C12 C11 1_555 1_555
H8 C12 1_555 1_555
C13 C12 1_555 1_555
H9 C13 1_555 1_555
C14 C9 1_555 1_555
H10 C14 1_555 1_555
C15 H11 1_555 1_555
C16 C15 1_555 1_555
H12 C16 1_555 1_555
C17 C16 1_555 1_555
C18 C17 1_555 1_555
H13 C18 1_555 1_555
C19 C18 1_555 1_555
H14 C19 1_555 1_555
C20 C17 1_555 1_555
H15 C20 1_555 1_555
N1 C15 1_555 1_555
O1 C1 1_555 1_555
O2 C1 1_555 1_555
O3 C8 1_555 1_555
O4 Zn1 1_555 1_555
Zn1 N1 1_555 1_555
N2 C21 1_555 1_555
C21 C22 1_555 1_555
C22 H16 1_555 1_555
H17 C22 1_555 1_555
H18 C22 1_555 1_555
C1A C2A 1_555 1_555
C2A C3A 1_555 1_555
C3A H1A 1_555 1_555
C4A C3A 1_555 1_555
H2A C4A 1_555 1_555
C5A C4A 1_555 1_555
H3A C5A 1_555 1_555
C6A C5A 1_555 1_555
H4A C6A 1_555 1_555
C7A C2A 1_555 1_555
H5A C7A 1_555 1_555
C8A O4 1_555 1_555
C9A C8A 1_555 1_555
C10A C9A 1_555 1_555
H6A C10A 1_555 1_555
C11A C10A 1_555 1_555
H7A C11A 1_555 1_555
C12A C11A 1_555 1_555
H8A C12A 1_555 1_555
C13A C12A 1_555 1_555
H9A C13A 1_555 1_555
C14A C9A 1_555 1_555
H10A C14A 1_555 1_555
C15A H11A 1_555 1_555
C16A C15A 1_555 1_555
H12A C16A 1_555 1_555
C17A C16A 1_555 1_555
C18A C17A 1_555 1_555
H13A C18A 1_555 1_555
C19A C18A 1_555 1_555
H14A C19A 1_555 1_555
C20A C20 1_555 1_555
H15A C20A 1_555 1_555
N1A C15A 1_555 1_555
N1A_2 Zn1A_2 1_555 1_555
O1A C1A 1_555 1_555
O2A Zn1 1_555 1_555
O3A C8A 1_555 1_555
O4A C8 1_555 1_555
Zn1A N1A 1_555 1_555
Zn1A_2 O2 1_555 1_555
C6 C7 1_555 1_555
C13 C14 1_555 1_555
C19 N1 1_555 1_555
O1 Zn1 1_555 1_555
O3 Zn1 1_555 1_555
C1A O2A 1_555 1_555
C6A C7A 1_555 1_555
C13A C14A 1_555 1_555
C17A C20A 1_555 1_555
C19A N1A 1_555 1_555
O1A Zn1A_2 1_555 1_555
O3A Zn1A_2 1_555 1_555
O4A Zn1A_2 1_555 1_555

#END
