
#######################################################################
#
#                 Cambridge Crystallographic Data Centre
#                                CCDC 
#
#######################################################################
#
# If this CIF has been generated from an entry in the Cambridge 
# Structural Database, then it will include bibliographic, chemical, 
# crystal, experimental, refinement or atomic coordinate data resulting 
# from the CCDC's data processing and validation procedures.
#
#######################################################################

data_FALLAH
_symmetry_cell_setting           monoclinic
_symmetry_space_group_name_H-M   'C 2/c'
_symmetry_Int_Tables_number      15
_space_group_name_Hall           '-C 2yn'
loop_
_symmetry_equiv_pos_site_id
_symmetry_equiv_pos_as_xyz
1 x,y,z
2 -x,y,1/2-z
3 1/2+x,1/2+y,z
4 1/2-x,1/2+y,1/2-z
5 -x,-y,-z
6 x,-y,1/2+z
7 1/2-x,1/2-y,-z
8 1/2+x,1/2-y,1/2+z
_cell_length_a                   21.762(3)
_cell_length_b                   8.1700(10)
_cell_length_c                   24.955(3)
_cell_angle_alpha                90
_cell_angle_beta                 100.948(2)
_cell_angle_gamma                90
_cell_volume                     4356.14
loop_
_atom_site_label
_atom_site_type_symbol
_atom_site_fract_x
_atom_site_fract_y
_atom_site_fract_z
C1 C 0.17321(16) 1.0769(4) -0.06695(13)
C2 C 0.12895(15) 0.9755(4) -0.10703(13)
C3 C 0.14361(16) 0.8150(4) -0.11673(13)
H1 H 0.1819 0.7714 -0.0999
C4 C 0.1014(2) 0.7199(4) -0.15136(15)
H2 H 0.1110 0.6115 -0.1576
C5 C 0.0454(2) 0.7843(5) -0.17655(16)
H3 H 0.0167 0.7187 -0.1992
C6 C 0.0313(2) 0.9455(6) -0.16857(17)
H4 H -0.0062 0.9903 -0.1867
C7 C 0.07307(17) 1.0395(5) -0.13360(15)
H5 H 0.0634 1.1481 -0.1278
C8 C 0.28547(16) 1.3620(4) -0.08607(14)
C9 C 0.29882(15) 1.3991(4) -0.14178(14)
C10 C 0.26116(18) 1.5053(5) -0.17628(16)
H6 H 0.2284 1.5583 -0.1644
C11 C 0.2718(2) 1.5337(5) -0.22858(17)
H7 H 0.2461 1.6049 -0.2518
C12 C 0.3207(2) 1.4557(6) -0.24580(18)
H8 H 0.3279 1.4739 -0.2809
C13 C 0.3580(2) 1.3530(5) -0.21205(19)
H9 H 0.3910 1.3011 -0.2239
C14 C 0.34776(17) 1.3241(4) -0.15994(15)
H10 H 0.3741 1.2535 -0.1370
C15 C 0.42134(15) 0.9603(4) 0.03364(14)
H11 H 0.4316 1.0591 0.0516
C16 C 0.46783(15) 0.8450(4) 0.03515(15)
H12 H 0.5083 0.8671 0.0535
C17 C 0.45405(15) 0.6961(4) 0.00923(13)
C18 C 0.39286(15) 0.6719(4) -0.01619(14)
H13 H 0.3812 0.5727 -0.0335
C19 C 0.34878(15) 0.7923(4) -0.01636(13)
H14 H 0.3078 0.7724 -0.0339
C20 C 0.50374(16) 0.5745(3) 0.01023(14)
H15 H 0.5441 0.6051 0.0268
N1 N 0.36286(12) 0.9384(3) 0.00807(10)
O1 O 0.22564(10) 1.0162(3) -0.04713(9)
O2 O 0.15410(11) 1.2151(3) -0.05537(10)
O3 O 0.24437(12) 1.4451(3) -0.07015(10)
O4 O 0.31668(12) 1.2499(3) -0.06007(10)
Zn1 Zn 0.297266(17) 1.11648(4) 0.005416(15)
C1F C 0.32679(16) 1.4231(4) 0.06695(13)
C2F C 0.37105(15) 1.5245(4) 0.10703(13)
C3F C 0.35639(16) 1.6850(4) 0.11673(13)
H1F H 0.3181 1.7286 0.0999
C4F C 0.3986(2) 1.7801(4) 0.15136(15)
H2F H 0.3890 1.8885 0.1576
C5F C 0.4546(2) 1.7157(5) 0.17655(16)
H3F H 0.4833 1.7813 0.1992
C6F C 0.4687(2) 1.5545(6) 0.16857(17)
H4F H 0.5062 1.5097 0.1867
C7F C 0.42693(17) 1.4605(5) 0.13360(15)
H5F H 0.4366 1.3519 0.1278
C8F C 0.21453(16) 1.1380(4) 0.08607(14)
C9F C 0.20118(15) 1.1009(4) 0.14178(14)
C10F C 0.23884(18) 0.9947(5) 0.17628(16)
H6F H 0.2716 0.9417 0.1644
C11F C 0.2282(2) 0.9663(5) 0.22858(17)
H7F H 0.2539 0.8951 0.2518
C12F C 0.1793(2) 1.0443(6) 0.24580(18)
H8F H 0.1721 1.0261 0.2809
C13F C 0.1420(2) 1.1470(5) 0.21205(19)
H9F H 0.1090 1.1989 0.2239
C14F C 0.15224(17) 1.1759(4) 0.15994(15)
H10F H 0.1259 1.2465 0.1370
C15D C 0.57866(15) 0.0397(4) -0.03364(14)
H11D H 0.5684 -0.0591 -0.0516
C16D C 0.53217(15) 0.1550(4) -0.03515(15)
H12D H 0.4917 0.1329 -0.0535
C17D C 0.54595(15) 0.3039(4) -0.00923(13)
C18D C 0.60714(15) 0.3281(4) 0.01619(14)
H13D H 0.6188 0.4273 0.0335
C19D C 0.65122(15) 0.2077(4) 0.01636(13)
H14D H 0.6922 0.2276 0.0339
C20D C 0.49626(16) 0.4255(3) -0.01023(14)
H15D H 0.4559 0.3949 -0.0268
N1D N 0.63714(12) 0.0616(3) -0.00807(10)
N1F N 0.13714(12) 1.5616(3) -0.00807(10)
O1F O 0.27436(10) 1.4838(3) 0.04713(9)
O2F O 0.34590(11) 1.2849(3) 0.05537(10)
O3F O 0.25563(12) 1.0549(3) 0.07015(10)
O4F O 0.18332(12) 1.2501(3) 0.06007(10)
Zn1F Zn 0.202734(17) 1.38352(4) -0.005416(15)
Zn1D Zn 0.702734(17) -0.11648(4) -0.005416(15)
O5 O 0.9780(3) 0.4217(7) 0.8374(3)
C21 C 0.9235(3) 0.3821(8) 0.8165(3)
C22 C 0.9093(3) 0.3560(7) 0.7598(3)
H16 H 0.9342 0.4278 0.7422
H17 H 0.8658 0.3781 0.7464
H18 H 0.9183 0.2444 0.7520
C23 C 0.8805(4) 0.3571(8) 0.8513(3)
H19 H 0.8772 0.2421 0.8582
H20 H 0.8403 0.3989 0.8344
H21 H 0.8947 0.4132 0.8852
loop_
_geom_bond_atom_site_label_1
_geom_bond_atom_site_label_2
_geom_bond_site_symmetry_1
_geom_bond_site_symmetry_2
C1 C2 1_555 1_555
C2 C3 1_555 1_555
C3 H1 1_555 1_555
C4 C3 1_555 1_555
H2 C4 1_555 1_555
C5 C4 1_555 1_555
H3 C5 1_555 1_555
C6 C5 1_555 1_555
H4 C6 1_555 1_555
C7 C2 1_555 1_555
H5 C7 1_555 1_555
C8 C9 1_555 1_555
C9 C10 1_555 1_555
C10 H6 1_555 1_555
C11 C10 1_555 1_555
H7 C11 1_555 1_555
C12 C11 1_555 1_555
H8 C12 1_555 1_555
C13 C12 1_555 1_555
H9 C13 1_555 1_555
C14 C9 1_555 1_555
H10 C14 1_555 1_555
C15 H11 1_555 1_555
C16 C15 1_555 1_555
H12 C16 1_555 1_555
C17 C16 1_555 1_555
C18 C17 1_555 1_555
H13 C18 1_555 1_555
C19 C18 1_555 1_555
H14 C19 1_555 1_555
C20 C17 1_555 1_555
H15 C20 1_555 1_555
N1 C15 1_555 1_555
O1 C1 1_555 1_555
O2 C1 1_555 1_555
O3 C8 1_555 1_555
O4 C8 1_555 1_555
Zn1 N1 1_555 1_555
O5 C21 1_555 1_555
C21 C22 1_555 1_555
C22 H16 1_555 1_555
H17 C22 1_555 1_555
H18 C22 1_555 1_555
C23 C21 1_555 1_555
H19 C23 1_555 1_555
H20 C23 1_555 1_555
H21 C23 1_555 1_555
C1F C2F 1_555 1_555
C2F C3F 1_555 1_555
C3F H1F 1_555 1_555
C4F C3F 1_555 1_555
H2F C4F 1_555 1_555
C5F C4F 1_555 1_555
H3F C5F 1_555 1_555
C6F C5F 1_555 1_555
H4F C6F 1_555 1_555
C7F C2F 1_555 1_555
H5F C7F 1_555 1_555
C8F C9F 1_555 1_555
C9F C10F 1_555 1_555
C10F H6F 1_555 1_555
C11F C10F 1_555 1_555
H7F C11F 1_555 1_555
C12F C11F 1_555 1_555
H8F C12F 1_555 1_555
C13F C12F 1_555 1_555
H9F C13F 1_555 1_555
C14F C9F 1_555 1_555
H10F C14F 1_555 1_555
C15D H11D 1_555 1_555
C16D C15D 1_555 1_555
H12D C16D 1_555 1_555
C17D C16D 1_555 1_555
C18D C17D 1_555 1_555
H13D C18D 1_555 1_555
C19D C18D 1_555 1_555
H14D C19D 1_555 1_555
C20D C20 1_555 1_555
H15D C20D 1_555 1_555
N1D C15D 1_555 1_555
N1F Zn1F 1_555 1_555
O1F C1F 1_555 1_555
O2F Zn1 1_555 1_555
O3F Zn1 1_555 1_555
O4F C8F 1_555 1_555
Zn1F O2 1_555 1_555
Zn1D N1D 1_555 1_555
C6 C7 1_555 1_555
C13 C14 1_555 1_555
C19 N1 1_555 1_555
O1 Zn1 1_555 1_555
O3 Zn1F 1_555 1_555
O4 Zn1 1_555 1_555
C1F O2F 1_555 1_555
C6F C7F 1_555 1_555
C8F O3F 1_555 1_555
C13F C14F 1_555 1_555
C17D C20D 1_555 1_555
C19D N1D 1_555 1_555
O1F Zn1F 1_555 1_555
O4F Zn1F 1_555 1_555

#END
