
#######################################################################
#
#                 Cambridge Crystallographic Data Centre
#                                CCDC 
#
#######################################################################
#
# If this CIF has been generated from an entry in the Cambridge 
# Structural Database, then it will include bibliographic, chemical, 
# crystal, experimental, refinement or atomic coordinate data resulting 
# from the CCDC's data processing and validation procedures.
#
#######################################################################

data_FALPOZ
_symmetry_cell_setting           monoclinic
_symmetry_space_group_name_H-M   'P 21/n'
_symmetry_Int_Tables_number      14
_space_group_name_Hall           '-P 2yn'
loop_
_symmetry_equiv_pos_site_id
_symmetry_equiv_pos_as_xyz
1 x,y,z
2 1/2-x,1/2+y,1/2-z
3 -x,-y,-z
4 1/2+x,1/2-y,1/2+z
_cell_length_a                   10.4984(3)
_cell_length_b                   7.7273(2)
_cell_length_c                   15.4282(4)
_cell_angle_alpha                90
_cell_angle_beta                 97.228(2)
_cell_angle_gamma                90
_cell_volume                     1241.66
loop_
_atom_site_label
_atom_site_type_symbol
_atom_site_fract_x
_atom_site_fract_y
_atom_site_fract_z
Mn1 Mn -0.12163(4) 0.20188(5) 0.30526(3)
O1 O -0.0955(2) -0.2808(3) 0.44061(14)
O2 O -0.1136(2) -0.0049(3) 0.40310(15)
O3 O 0.08608(19) 0.1096(3) 0.30111(14)
O4 O -0.16561(19) -0.0030(3) 0.21185(14)
O5 O -0.0909(2) 0.3806(3) 0.20062(14)
O7 O -0.0463(3) 0.3843(3) 0.40319(16)
C1 C -0.0593(3) -0.1491(4) 0.4021(2)
C2 C 0.2442(3) -0.0465(4) 0.2479(2)
H2 H 0.3013 -0.0687 0.2079
C3 C 0.0588(3) -0.1667(4) 0.3534(2)
H3 H 0.1071 -0.2713 0.3727
C4 C 0.1051(3) -0.0029(4) 0.2280(2)
H4 H 0.0791 0.0461 0.1698
C6 C 0.1462(3) -0.0051(4) 0.3684(2)
H5 H 0.1556 0.0420 0.4279
C9 C 0.2696(3) -0.0473(4) 0.3335(2)
H8 H 0.3486 -0.0696 0.3661
O8 O -0.17467(19) -0.2867(3) 0.19860(15)
C10 C -0.1144(3) -0.1491(4) 0.21794(19)
C11 C 0.0285(3) -0.1649(4) 0.2511(2)
H9 H 0.0638 -0.2688 0.2267
Mn1A Mn -0.37837(4) -0.29812(5) 0.19474(3)
O8A O -0.32533(19) 0.2133(3) 0.30140(15)
O6 O 0.6591(2) 0.7756(3) 0.47597(17)
H1 H 0.7291 0.7418 0.4644
C5 C 0.5831(3) 0.6352(5) 0.4894(2)
C7 C 0.4602(3) 0.6685(5) 0.5064(2)
H6 H 0.4330 0.7822 0.5113
C8 C 0.6229(3) 0.4652(5) 0.4836(2)
H7 H 0.7063 0.4414 0.4730
O6B O 0.3409(2) 0.2244(3) 0.52403(17)
H1B H 0.2709 0.2582 0.5356
C5B C 0.4169(3) 0.3648(5) 0.5106(2)
C7B C 0.5398(3) 0.3315(5) 0.4936(2)
H6B H 0.5670 0.2178 0.4887
C8B C 0.3771(3) 0.5348(5) 0.5164(2)
H7B H 0.2937 0.5586 0.5270
loop_
_geom_bond_atom_site_label_1
_geom_bond_atom_site_label_2
_geom_bond_site_symmetry_1
_geom_bond_site_symmetry_2
Mn1 O2 1_555 1_555
O1 C1 1_555 1_555
O2 C1 1_555 1_555
O3 Mn1 1_555 1_555
O4 Mn1 1_555 1_555
O5 Mn1 1_555 1_555
O6 H1 1_555 1_555
O7 Mn1 1_555 1_555
C1 C3 1_555 1_555
C2 H2 1_555 1_555
C3 H3 1_555 1_555
C4 O3 1_555 1_555
H4 C4 1_555 1_555
C5 O6 1_555 1_555
C6 O3 1_555 1_555
H5 C6 1_555 1_555
C7 C5 1_555 1_555
H6 C7 1_555 1_555
C8 C5 1_555 1_555
H7 C8 1_555 1_555
C9 C2 1_555 1_555
H8 C9 1_555 1_555
O8 C10 1_555 1_555
C10 O4 1_555 1_555
C11 C3 1_555 1_555
H9 C11 1_555 1_555
Mn1A O8 1_555 1_555
O6B H1B 1_555 1_555
C5B O6B 1_555 1_555
C7B C8 1_555 1_555
H6B C7B 1_555 1_555
C8B C7 1_555 1_555
H7B C8B 1_555 1_555
O8A Mn1 1_555 1_555
C2 C4 1_555 1_555
C3 C6 1_555 1_555
C4 C11 1_555 1_555
C6 C9 1_555 1_555
C10 C11 1_555 1_555
C5B C7B 1_555 1_555
C5B C8B 1_555 1_555

#END
