
#######################################################################
#
#                 Cambridge Crystallographic Data Centre
#                                CCDC 
#
#######################################################################
#
# If this CIF has been generated from an entry in the Cambridge 
# Structural Database, then it will include bibliographic, chemical, 
# crystal, experimental, refinement or atomic coordinate data resulting 
# from the CCDC's data processing and validation procedures.
#
#######################################################################

data_FALQUG
_symmetry_cell_setting           triclinic
_symmetry_space_group_name_H-M   'P -1'
_symmetry_Int_Tables_number      2
_space_group_name_Hall           '-P 1'
loop_
_symmetry_equiv_pos_site_id
_symmetry_equiv_pos_as_xyz
1 x,y,z
2 -x,-y,-z
_cell_length_a                   6.9904(4)
_cell_length_b                   9.6565(4)
_cell_length_c                   14.2151(6)
_cell_angle_alpha                82.948(4)
_cell_angle_beta                 85.238(4)
_cell_angle_gamma                76.655(4)
_cell_volume                     925.099
loop_
_atom_site_label
_atom_site_type_symbol
_atom_site_fract_x
_atom_site_fract_y
_atom_site_fract_z
La1 La 0.72315(3) 1.59550(2) 1.904314(15)
Cu1 Cu 0.5000 1.5000 1.5000
O1 O 0.5980(4) 2.0837(3) 1.8919(2)
N1 N 0.4034(4) 1.8076(3) 1.8227(2)
O2 O 0.9569(4) 1.3688(3) 1.85179(19)
C1 C 0.5865(5) 1.9566(4) 1.8886(3)
O3 O 0.8649(4) 1.6502(3) 1.73385(18)
O4 O 0.7327(4) 1.8520(3) 1.89123(18)
N2 N 0.3838(4) 1.3617(3) 1.5942(2)
C2 C 0.3861(5) 1.9249(4) 1.8805(3)
H1 H 0.3293 1.8991 1.9446
H2 H 0.2962 2.0115 1.8514
O5 O 0.3635(3) 1.6136(3) 1.97135(17)
O6 O 0.6672(3) 1.6825(3) 2.07383(17)
C3 C 0.4371(6) 1.8617(4) 1.7228(3)
H3 H 0.3202 1.9329 1.7019
H4 H 0.4625 1.7821 1.6835
H5 H 0.5509 1.9060 1.7165
O7 O 0.0655(3) 1.6016(3) 1.94095(18)
C4 C 0.2206(5) 1.7556(4) 1.8337(3)
H6 H 0.2087 1.7083 1.7771
H7 H 0.1068 1.8380 1.8376
O10 O 0.5428(4) 1.4800(3) 1.80067(17)
C5 C 0.2150(5) 1.6520(4) 1.9207(2)
O11 O 0.6613(4) 1.4884(3) 1.65005(18)
C6 C 0.5398(5) 1.4620(4) 1.7146(3)
O12 O 0.6751(4) 1.3306(3) 1.45581(18)
C7 C 0.3614(5) 1.4104(4) 1.6898(3)
H8 H 0.3406 1.3305 1.7373
H9 H 0.2430 1.4893 1.6934
O13 O 0.7544(4) 1.0931(3) 1.48595(19)
C8 C 0.1899(6) 1.3503(5) 1.5650(3)
H10 H 0.1360 1.2833 1.6112
H11 H 0.2059 1.3154 1.5023
H12 H 0.0996 1.4447 1.5621
C9 C 0.5274(6) 1.2216(4) 1.5939(3)
H13 H 0.4549 1.1439 1.5997
H14 H 0.6086 1.2068 1.6497
C10 C 0.6601(6) 1.2134(4) 1.5049(3)
La1A La 0.27685(3) 1.40450(2) 1.095686(15)
La1A_2 La 0.27685(3) 1.40450(2) 2.095686(15)
La1_2 La -0.27685(3) 1.59550(2) 1.904314(15)
La1A_3 La 1.27685(3) 1.40450(2) 2.095686(15)
O1A O 0.4020(4) 0.9163(3) 2.1081(2)
N1A N 0.5966(4) 1.1924(3) 2.1773(2)
N1A_2 N 0.5966(4) 1.1924(3) 1.1773(2)
O2A O 0.0431(4) 1.6312(3) 1.14821(19)
C1A C 0.4135(5) 1.0434(4) 2.1114(3)
O3A O 0.1351(4) 1.3498(3) 1.26615(18)
O4A O 0.2673(4) 1.1480(3) 2.10877(18)
O4A_2 O 0.2673(4) 1.1480(3) 1.10877(18)
N2A N 0.6162(4) 1.6383(3) 1.4058(2)
C2A C 0.6139(5) 1.0751(4) 2.1195(3)
H1A H 0.6707 1.1009 2.0554
H2A H 0.7038 0.9885 2.1486
O5A O 0.6365(3) 1.3864(3) 2.02865(17)
O5A_2 O 0.6365(3) 1.3864(3) 1.02865(17)
O5_2 O 0.3635(3) 1.6136(3) 0.97135(17)
O6A O 0.3328(3) 1.3175(3) 0.92617(17)
C3A C 0.5629(6) 1.1383(4) 2.2772(3)
H3A H 0.6798 1.0671 2.2981
H4A H 0.5375 1.2179 2.3165
H5A H 0.4491 1.0940 2.2835
O7A O 0.9345(3) 1.3984(3) 2.05905(18)
O7_2 O 1.0655(3) 1.6016(3) 1.94095(18)
O7A_2 O -0.0655(3) 1.3984(3) 1.05905(18)
O7_3 O 0.0655(3) 1.6016(3) 0.94095(18)
C4A C 0.7794(5) 1.2444(4) 2.1663(3)
H6A H 0.7913 1.2917 2.2229
H7A H 0.8932 1.1620 2.1624
O10A O 0.4572(4) 1.5200(3) 1.19933(17)
C5A C 0.7850(5) 1.3480(4) 2.0793(2)
O11A O 0.3387(4) 1.5116(3) 1.34995(18)
C6A C 0.4602(5) 1.5380(4) 1.2854(3)
O12A O 0.3249(4) 1.6694(3) 1.54419(18)
C7A C 0.6386(5) 1.5896(4) 1.3102(3)
H8A H 0.6594 1.6695 1.2627
H9A H 0.7570 1.5107 1.3066
O13A O 0.2456(4) 1.9069(3) 1.51405(19)
C8A C 0.8101(6) 1.6497(5) 1.4350(3)
H10A H 0.8640 1.7167 1.3888
H11A H 0.7941 1.6846 1.4977
H12A H 0.9004 1.5553 1.4379
C9A C 0.4726(6) 1.7784(4) 1.4061(3)
H13A H 0.5451 1.8561 1.4003
H14A H 0.3914 1.7932 1.3503
C10A C 0.3399(6) 1.7866(4) 1.4951(3)
O8 O 0.9059(5) 0.1333(3) 0.7681(2)
O9 O 0.9228(4) 0.9096(3) 0.63792(19)
loop_
_geom_bond_atom_site_label_1
_geom_bond_atom_site_label_2
_geom_bond_site_symmetry_1
_geom_bond_site_symmetry_2
La1 N1 1_555 1_555
Cu1 N2 1_555 1_555
O1 C1 1_555 1_555
N1 C2 1_555 1_555
O2 La1 1_555 1_555
C1 O4 1_555 1_555
O3 La1 1_555 1_555
O4 La1 1_555 1_555
N2 C7 1_555 1_555
C2 C1 1_555 1_555
H1 C2 1_555 1_555
H2 C2 1_555 1_555
O5 La1 1_555 1_555
O6 La1 1_555 1_555
C3 N1 1_555 1_555
H3 C3 1_555 1_555
H4 C3 1_555 1_555
H5 C3 1_555 1_555
O7 C5 1_555 1_555
C4 N1 1_555 1_555
H6 C4 1_555 1_555
H7 C4 1_555 1_555
O10 La1 1_555 1_555
C5 O5 1_555 1_555
O11 C6 1_555 1_555
C6 O10 1_555 1_555
O12 Cu1 1_555 1_555
C7 C6 1_555 1_555
H8 C7 1_555 1_555
H9 C7 1_555 1_555
O13 C10 1_555 1_555
C8 N2 1_555 1_555
H10 C8 1_555 1_555
H11 C8 1_555 1_555
H12 C8 1_555 1_555
C9 N2 1_555 1_555
H13 C9 1_555 1_555
H14 C9 1_555 1_555
C10 O12 1_555 1_555
La1A N1A_2 1_555 1_555
La1A_2 O5 1_555 1_555
La1_2 O7 1_555 1_555
La1A_3 O7A 1_555 1_555
O1A C1A 1_555 1_555
N1A La1A_2 1_555 1_555
O2A La1A 1_555 1_555
C1A O4A 1_555 1_555
O3A La1A 1_555 1_555
O4A La1A_2 1_555 1_555
O4A_2 La1A 1_555 1_555
N2A Cu1 1_555 1_555
C2A N1A 1_555 1_555
H1A C2A 1_555 1_555
H2A C2A 1_555 1_555
O5A La1 1_555 1_555
O5A_2 La1A 1_555 1_555
O5_2 La1A 1_555 1_555
O6A La1A 1_555 1_555
C3A N1A 1_555 1_555
H3A C3A 1_555 1_555
H4A C3A 1_555 1_555
H5A C3A 1_555 1_555
O7A La1 1_555 1_555
O7_2 La1 1_555 1_555
O7A_2 La1A 1_555 1_555
O7_3 La1A 1_555 1_555
C4A N1A 1_555 1_555
H6A C4A 1_555 1_555
H7A C4A 1_555 1_555
O10A La1A 1_555 1_555
C5A O5A 1_555 1_555
O11A C6A 1_555 1_555
C6A O10A 1_555 1_555
O12A Cu1 1_555 1_555
C7A N2A 1_555 1_555
H8A C7A 1_555 1_555
H9A C7A 1_555 1_555
O13A C10A 1_555 1_555
C8A N2A 1_555 1_555
H10A C8A 1_555 1_555
H11A C8A 1_555 1_555
H12A C8A 1_555 1_555
C9A N2A 1_555 1_555
H13A C9A 1_555 1_555
H14A C9A 1_555 1_555
C10A O12A 1_555 1_555
O7 La1A_2 1_555 1_555
C4 C5 1_555 1_555
C9 C10 1_555 1_555
La1A_2 O5A 1_555 1_555
La1A_3 O7_2 1_555 1_555
C1A C2A 1_555 1_555
O7A C5A 1_555 1_555
C4A C5A 1_555 1_555
C6A C7A 1_555 1_555
C9A C10A 1_555 1_555

#END
