
#######################################################################
#
#                 Cambridge Crystallographic Data Centre
#                                CCDC 
#
#######################################################################
#
# If this CIF has been generated from an entry in the Cambridge 
# Structural Database, then it will include bibliographic, chemical, 
# crystal, experimental, refinement or atomic coordinate data resulting 
# from the CCDC's data processing and validation procedures.
#
#######################################################################

data_FAMCUT
_symmetry_cell_setting           orthorhombic
_symmetry_space_group_name_H-M   'P n m a'
_symmetry_Int_Tables_number      62
_space_group_name_Hall           '-P 2ac 2n'
loop_
_symmetry_equiv_pos_site_id
_symmetry_equiv_pos_as_xyz
1 x,y,z
2 1/2-x,-y,1/2+z
3 1/2+x,1/2-y,1/2-z
4 -x,1/2+y,-z
5 -x,-y,-z
6 1/2+x,y,1/2-z
7 1/2-x,1/2+y,1/2+z
8 x,1/2-y,z
_cell_length_a                   5.0975(3)
_cell_length_b                   11.4735(6)
_cell_length_c                   29.143(2)
_cell_angle_alpha                90
_cell_angle_beta                 90
_cell_angle_gamma                90
_cell_volume                     1704.46
loop_
_atom_site_label
_atom_site_type_symbol
_atom_site_fract_x
_atom_site_fract_y
_atom_site_fract_z
Zn1 Zn 0.3943(2) 0.7500 0.03777(4)
O1 O 0.6469(9) 0.6235(4) 0.06384(18)
O2 O 0.3931(8) 0.4660(4) 0.06312(15)
O3 O 0.1444(8) 0.8766(4) 0.00577(17)
H1 H 0.1960 0.9369 0.0184
H2 H -0.0125 0.8662 0.0097
O4 O 0.6378(13) 0.7500 -0.0229(2)
H3 H 0.6681 0.8106 -0.0364
O5 O 0.1506(17) 0.7500 0.0951(3)
H4 H 0.1691 0.8087 0.1111
N1 N 0.7225(9) 0.3454(4) 0.11828(16)
C1 C 0.5880(11) 0.5218(5) 0.0750(2)
C2 C 0.7868(12) 0.4651(5) 0.1064(2)
H5 H 0.9571 0.4665 0.0916
H6 H 0.7999 0.5106 0.1344
C3 C 0.8290(15) 0.2500 0.1008(3)
H7 H 0.9621 0.2500 0.0790
C4 C 0.5270(10) 0.3119(5) 0.14902(17)
C5 C 0.3535(12) 0.3748(6) 0.1759(2)
H8 H 0.3503 0.4558 0.1760
C6 C 0.1849(13) 0.3090(6) 0.2028(2)
H9 H 0.0663 0.3476 0.2217
Zn1_2 Zn 0.3943(2) -0.2500 0.03777(4)
O1G O 0.6469(9) -0.1235(4) 0.06384(18)
O1G_2 O 0.6469(9) 0.8765(4) 0.06384(18)
O2G O 0.3931(8) 0.0340(4) 0.06312(15)
O3G O 0.1444(8) 0.6234(4) 0.00577(17)
H1G H 0.1960 0.5631 0.0184
H2G H -0.0125 0.6338 0.0097
H3G H 0.6681 0.6894 -0.0364
H4G H 0.1691 0.6913 0.1111
N1G N 0.7225(9) 0.1546(4) 0.11828(16)
C1G C 0.5880(11) -0.0218(5) 0.0750(2)
C2G C 0.7868(12) 0.0349(5) 0.1064(2)
H5G H 0.9571 0.0335 0.0916
H6G H 0.7999 -0.0106 0.1344
C4G C 0.5270(10) 0.1881(5) 0.14902(17)
C5G C 0.3535(12) 0.1252(6) 0.1759(2)
H8G H 0.3503 0.0442 0.1760
C6G C 0.1849(13) 0.1910(6) 0.2028(2)
H9G H 0.0663 0.1524 0.2217
loop_
_geom_bond_atom_site_label_1
_geom_bond_atom_site_label_2
_geom_bond_site_symmetry_1
_geom_bond_site_symmetry_2
Zn1 O1 1_555 1_555
O1 C1 1_555 1_555
O2 C1 1_555 1_555
O3 Zn1 1_555 1_555
H1 O3 1_555 1_555
H2 O3 1_555 1_555
O4 Zn1 1_555 1_555
H3 O4 1_555 1_555
O5 Zn1 1_555 1_555
H4 O5 1_555 1_555
N1 C2 1_555 1_555
C1 C2 1_555 1_555
C2 H5 1_555 1_555
H6 C2 1_555 1_555
C3 N1 1_555 1_555
H7 C3 1_555 1_555
C4 N1 1_555 1_555
C5 C4 1_555 1_555
H8 C5 1_555 1_555
C6 C5 1_555 1_555
H9 C6 1_555 1_555
Zn1_2 O1G 1_555 1_555
O1G C1G 1_555 1_555
O1G_2 Zn1 1_555 1_555
O2G C1G 1_555 1_555
O3G Zn1 1_555 1_555
H1G O3G 1_555 1_555
H2G O3G 1_555 1_555
H3G O4 1_555 1_555
H4G O5 1_555 1_555
N1G C3 1_555 1_555
C1G C2G 1_555 1_555
C2G N1G 1_555 1_555
H5G C2G 1_555 1_555
H6G C2G 1_555 1_555
C4G C4 1_555 1_555
C5G C4G 1_555 1_555
H8G C5G 1_555 1_555
C6G C6 1_555 1_555
H9G C6G 1_555 1_555
N1G C4G 1_555 1_555
C5G C6G 1_555 1_555

#END
