
#######################################################################
#
#                 Cambridge Crystallographic Data Centre
#                                CCDC 
#
#######################################################################
#
# If this CIF has been generated from an entry in the Cambridge 
# Structural Database, then it will include bibliographic, chemical, 
# crystal, experimental, refinement or atomic coordinate data resulting 
# from the CCDC's data processing and validation procedures.
#
#######################################################################

data_FAMFEG
_symmetry_cell_setting           monoclinic
_symmetry_space_group_name_H-M   'C 2/c'
_symmetry_Int_Tables_number      15
_space_group_name_Hall           '-C 2yn'
loop_
_symmetry_equiv_pos_site_id
_symmetry_equiv_pos_as_xyz
1 x,y,z
2 -x,y,1/2-z
3 1/2+x,1/2+y,z
4 1/2-x,1/2+y,1/2-z
5 -x,-y,-z
6 x,-y,1/2+z
7 1/2-x,1/2-y,-z
8 1/2+x,1/2-y,1/2+z
_cell_length_a                   17.156(2)
_cell_length_b                   11.1833(14)
_cell_length_c                   21.237(3)
_cell_angle_alpha                90
_cell_angle_beta                 111.8290(10)
_cell_angle_gamma                90
_cell_volume                     3782.39
loop_
_atom_site_label
_atom_site_type_symbol
_atom_site_fract_x
_atom_site_fract_y
_atom_site_fract_z
Cd1 Cd -0.028011(13) 0.10411(2) 0.057858(11)
O1 O 0.09990(14) 0.2158(2) 0.10703(12)
O2 O 0.07669(15) 0.0712(2) 0.16692(12)
O3 O 0.49357(14) 0.40529(17) 0.46056(10)
O4 O 0.44666(15) 0.2234(2) 0.45648(11)
N1 N -0.10305(16) 0.2230(2) 0.10497(13)
N2 N -0.16540(15) 0.0332(2) 0.02460(12)
C1 C 0.1243(2) 0.1484(3) 0.15776(17)
C2 C 0.21344(19) 0.1565(3) 0.20644(14)
C3 C 0.2676(2) 0.2416(3) 0.19818(15)
H1 H 0.2474 0.2976 0.1635
C4 C 0.3508(2) 0.2445(3) 0.24056(16)
H2 H 0.3860 0.3026 0.2343
C5 C 0.38293(19) 0.1614(3) 0.29263(15)
C6 C 0.3289(2) 0.0771(3) 0.30102(16)
H3 H 0.3493 0.0208 0.3355
C7 C 0.2448(2) 0.0747(3) 0.25898(16)
H4 H 0.2092 0.0180 0.2660
C8 C 0.47493(19) 0.1625(3) 0.33712(16)
H5 H 0.5074 0.1461 0.3092
H6 H 0.4857 0.0985 0.3701
C9 C 0.50544(18) 0.2799(3) 0.37478(15)
H7 H 0.5663 0.2813 0.3913
H8 H 0.4850 0.3452 0.3428
C10 C 0.47876(16) 0.3017(3) 0.43354(14)
C11 C -0.0685(3) 0.3160(3) 0.1457(2)
H9 H -0.0120 0.3330 0.1557
C12 C -0.1126(3) 0.3867(3) 0.1729(2)
H10 H -0.0868 0.4498 0.2016
C13 C -0.1964(3) 0.3624(3) 0.1569(2)
H11 H -0.2281 0.4098 0.1743
C14 C -0.2331(2) 0.2680(3) 0.11515(17)
H12 H -0.2899 0.2513 0.1036
C15 C -0.18403(19) 0.1978(3) 0.09051(14)
C16 C -0.21833(18) 0.0914(3) 0.04733(15)
C17 C -0.3000(2) 0.0533(3) 0.03144(18)
H13 H -0.3359 0.0950 0.0473
C18 C -0.3279(2) -0.0476(4) -0.0084(2)
H14 H -0.3821 -0.0762 -0.0184
C19 C -0.2744(2) -0.1044(3) -0.0327(2)
H15 H -0.2924 -0.1707 -0.0608
C20 C -0.1942(2) -0.0629(3) -0.01520(18)
H16 H -0.1580 -0.1028 -0.0316
Cd1C Cd 0.528011(13) -0.39589(2) 0.442142(11)
Cd1C_2 Cd 0.528011(13) 0.60411(2) 0.442142(11)
Cd1G Cd 0.471989(13) 0.39589(2) 0.557858(11)
Cd1D Cd 0.028011(13) -0.10411(2) -0.057858(11)
O1C O 0.40010(14) -0.2842(2) 0.39297(12)
O2C O 0.42331(15) -0.4288(2) 0.33308(12)
O3C O 0.00643(14) -0.09471(17) 0.03944(10)
O3G O -0.00643(14) 0.09471(17) -0.03944(10)
O3_2 O 0.49357(14) -0.59471(17) 0.46056(10)
O3D O 0.50643(14) -0.40529(17) 0.53944(10)
O4C O 0.05334(15) -0.2766(2) 0.04352(11)
N1C N 0.60305(16) -0.2770(2) 0.39503(13)
N2C N 0.66540(15) -0.4668(2) 0.47540(12)
C1C C 0.3757(2) -0.3516(3) 0.34224(17)
C2C C 0.28656(19) -0.3435(3) 0.29356(14)
C3C C 0.2324(2) -0.2584(3) 0.30182(15)
H1C H 0.2526 -0.2024 0.3365
C4C C 0.1492(2) -0.2555(3) 0.25944(16)
H2C H 0.1140 -0.1974 0.2657
C5C C 0.11707(19) -0.3386(3) 0.20737(15)
C6C C 0.1711(2) -0.4229(3) 0.19898(16)
H3C H 0.1507 -0.4792 0.1645
C7C C 0.2552(2) -0.4253(3) 0.24102(16)
H4C H 0.2908 -0.4820 0.2340
C8C C 0.02507(19) -0.3375(3) 0.16288(16)
H5C H -0.0074 -0.3539 0.1908
H6C H 0.0143 -0.4015 0.1299
C9C C -0.00544(18) -0.2201(3) 0.12522(15)
H7C H -0.0663 -0.2187 0.1087
H8C H 0.0150 -0.1548 0.1572
C10C C 0.02124(16) -0.1983(3) 0.06646(14)
C11C C 0.5685(3) -0.1840(3) 0.3543(2)
H9C H 0.5120 -0.1670 0.3443
C12C C 0.6126(3) -0.1133(3) 0.3271(2)
H10C H 0.5868 -0.0502 0.2984
C13C C 0.6964(3) -0.1376(3) 0.3431(2)
H11C H 0.7281 -0.0902 0.3257
C14C C 0.7331(2) -0.2320(3) 0.38485(17)
H12C H 0.7899 -0.2487 0.3964
C15C C 0.68403(19) -0.3022(3) 0.40949(14)
C16C C 0.71833(18) -0.4086(3) 0.45267(15)
C17C C 0.8000(2) -0.4467(3) 0.46856(18)
H13C H 0.8359 -0.4050 0.4527
C18C C 0.8279(2) -0.5476(4) 0.5084(2)
H14C H 0.8821 -0.5762 0.5184
C19C C 0.7744(2) -0.6044(3) 0.5327(2)
H15C H 0.7924 -0.6707 0.5608
C20C C 0.6942(2) -0.5629(3) 0.51520(18)
H16C H 0.6580 -0.6028 0.5316
O5 O 0.0000 -0.0139(5) 0.2500
H17 H 0.0400 0.0190 0.2420
H17A H -0.0400 0.0190 0.2580
loop_
_geom_bond_atom_site_label_1
_geom_bond_atom_site_label_2
_geom_bond_site_symmetry_1
_geom_bond_site_symmetry_2
Cd1 O1 1_555 1_555
O1 C1 1_555 1_555
O2 Cd1 1_555 1_555
O3 C10 1_555 1_555
O4 C10 1_555 1_555
N1 Cd1 1_555 1_555
N2 Cd1 1_555 1_555
C1 O2 1_555 1_555
C2 C1 1_555 1_555
C3 C2 1_555 1_555
H1 C3 1_555 1_555
C4 C3 1_555 1_555
H2 C4 1_555 1_555
C5 C4 1_555 1_555
C6 C5 1_555 1_555
H3 C6 1_555 1_555
C7 C2 1_555 1_555
H4 C7 1_555 1_555
C8 C5 1_555 1_555
H5 C8 1_555 1_555
H6 C8 1_555 1_555
C9 C8 1_555 1_555
H7 C9 1_555 1_555
H8 C9 1_555 1_555
C10 C9 1_555 1_555
C11 N1 1_555 1_555
H9 C11 1_555 1_555
C12 C11 1_555 1_555
H10 C12 1_555 1_555
C13 C12 1_555 1_555
H11 C13 1_555 1_555
C14 C13 1_555 1_555
H12 C14 1_555 1_555
C15 N1 1_555 1_555
C16 N2 1_555 1_555
C17 C16 1_555 1_555
H13 C17 1_555 1_555
C18 C17 1_555 1_555
H14 C18 1_555 1_555
C19 C18 1_555 1_555
H15 C19 1_555 1_555
C20 N2 1_555 1_555
H16 C20 1_555 1_555
O5 H17 1_555 1_555
Cd1C O1C 1_555 1_555
Cd1C_2 O3 1_555 1_555
Cd1G O3 1_555 1_555
Cd1D O3C 1_555 1_555
O1C C1C 1_555 1_555
O2C Cd1C 1_555 1_555
O3C Cd1 1_555 1_555
O3G Cd1 1_555 1_555
O3_2 Cd1C 1_555 1_555
O3D Cd1C 1_555 1_555
O4C C10C 1_555 1_555
N1C Cd1C 1_555 1_555
N2C Cd1C 1_555 1_555
C1C O2C 1_555 1_555
C2C C1C 1_555 1_555
C3C C2C 1_555 1_555
H1C C3C 1_555 1_555
C4C C3C 1_555 1_555
H2C C4C 1_555 1_555
C5C C4C 1_555 1_555
C6C C5C 1_555 1_555
H3C C6C 1_555 1_555
C7C C2C 1_555 1_555
H4C C7C 1_555 1_555
C8C C5C 1_555 1_555
H5C C8C 1_555 1_555
H6C C8C 1_555 1_555
C9C C8C 1_555 1_555
H7C C9C 1_555 1_555
H8C C9C 1_555 1_555
C10C O3C 1_555 1_555
C11C N1C 1_555 1_555
H9C C11C 1_555 1_555
C12C C11C 1_555 1_555
H10C C12C 1_555 1_555
C13C C12C 1_555 1_555
H11C C13C 1_555 1_555
C14C C13C 1_555 1_555
H12C C14C 1_555 1_555
C15C N1C 1_555 1_555
C16C N2C 1_555 1_555
C17C C16C 1_555 1_555
H13C C17C 1_555 1_555
C18C C17C 1_555 1_555
H14C C18C 1_555 1_555
C19C C18C 1_555 1_555
H15C C19C 1_555 1_555
C20C N2C 1_555 1_555
H16C C20C 1_555 1_555
H17A O5 1_555 1_555
C6 C7 1_555 1_555
C14 C15 1_555 1_555
C15 C16 1_555 1_555
C19 C20 1_555 1_555
Cd1D O3G 1_555 1_555
C6C C7C 1_555 1_555
C9C C10C 1_555 1_555
C14C C15C 1_555 1_555
C15C C16C 1_555 1_555
C19C C20C 1_555 1_555

#END
