
#######################################################################
#
#                 Cambridge Crystallographic Data Centre
#                                CCDC 
#
#######################################################################
#
# If this CIF has been generated from an entry in the Cambridge 
# Structural Database, then it will include bibliographic, chemical, 
# crystal, experimental, refinement or atomic coordinate data resulting 
# from the CCDC's data processing and validation procedures.
#
#######################################################################

data_FAMGIL
_symmetry_cell_setting           monoclinic
_symmetry_space_group_name_H-M   'C 2/c'
_symmetry_Int_Tables_number      15
_space_group_name_Hall           '-C 2yn'
loop_
_symmetry_equiv_pos_site_id
_symmetry_equiv_pos_as_xyz
1 x,y,z
2 -x,y,1/2-z
3 1/2+x,1/2+y,z
4 1/2-x,1/2+y,1/2-z
5 -x,-y,-z
6 x,-y,1/2+z
7 1/2-x,1/2-y,-z
8 1/2+x,1/2-y,1/2+z
_cell_length_a                   21.697(3)
_cell_length_b                   18.053(2)
_cell_length_c                   41.176(6)
_cell_angle_alpha                90
_cell_angle_beta                 103.682(2)
_cell_angle_gamma                90
_cell_volume                     15670.8
loop_
_atom_site_label
_atom_site_type_symbol
_atom_site_fract_x
_atom_site_fract_y
_atom_site_fract_z
C1 C 0.3833(2) 0.7141(3) 0.25547(12)
H1 H 0.3646 0.7355 0.2350
C2 C 0.4345(2) 0.7503(3) 0.27597(12)
H2 H 0.4495 0.7947 0.2693
C3 C 0.4620(2) 0.7197(3) 0.30582(12)
C4 C 0.4357(3) 0.6545(3) 0.31590(13)
H3 H 0.4515 0.6337 0.3369
C5 C 0.3864(3) 0.6238(3) 0.29368(14)
H4 H 0.3697 0.5800 0.2999
C6 C 0.5404(2) 0.8121(2) 0.31899(11)
H5 H 0.5102 0.8526 0.3152
H6 H 0.5542 0.8038 0.2985
C7 C 0.5971(2) 0.8316(2) 0.34728(11)
C8 C 0.6421(2) 0.7639(2) 0.35384(11)
H7 H 0.6251 0.7262 0.3660
H8 H 0.6464 0.7429 0.3328
C9 C 0.7439(2) 0.7363(3) 0.38772(11)
C10 C 0.7357(2) 0.6609(3) 0.38201(11)
H9 H 0.7002 0.6430 0.3667
C11 C 0.7800(2) 0.6137(3) 0.39898(12)
H10 H 0.7737 0.5632 0.3951
C12 C 0.8397(2) 0.7078(3) 0.42540(12)
H11 H 0.8764 0.7241 0.4403
C13 C 0.7988(2) 0.7597(3) 0.41013(12)
H12 H 0.8069 0.8098 0.4144
C14 C 0.5735(2) 0.8512(2) 0.37797(11)
H13 H 0.5458 0.8940 0.3734
H14 H 0.5496 0.8101 0.3840
C15 C 0.6160(2) 0.8811(2) 0.43522(12)
C16 C 0.5582(2) 0.8840(2) 0.44313(12)
H15 H 0.5210 0.8753 0.4269
C17 C 0.5562(2) 0.8996(2) 0.47472(12)
H16 H 0.5167 0.9016 0.4797
C18 C 0.6635(2) 0.9092(3) 0.49121(12)
H17 H 0.7001 0.9179 0.5078
C19 C 0.6698(2) 0.8941(3) 0.46026(13)
H18 H 0.7098 0.8923 0.4557
C20 C 0.6303(2) 0.8995(2) 0.33642(11)
H19 H 0.6001 0.9392 0.3290
H20 H 0.6635 0.9175 0.3549
C21 C 0.6865(2) 0.9236(3) 0.29423(12)
C22 C 0.6856(3) 0.9996(3) 0.29875(13)
H21 H 0.6651 1.0202 0.3140
C23 C 0.7159(3) 1.0440(3) 0.28013(15)
H22 H 0.7148 1.0950 0.2831
C24 C 0.7488(2) 0.9451(3) 0.25525(13)
H23 H 0.7718 0.9257 0.2408
C25 C 0.7189(2) 0.8967(3) 0.27237(12)
H24 H 0.7210 0.8459 0.2690
C26 C -0.1431(2) 1.0254(3) 0.18711(12)
C27 C -0.1067(2) 0.9847(3) 0.16617(11)
C28 C -0.0809(2) 1.0224(3) 0.14299(12)
H25 H -0.0846 1.0737 0.1412
C29 C -0.0497(2) 0.9835(3) 0.12260(13)
H26 H -0.0347 1.0085 0.1063
C30 C -0.0405(2) 0.9078(3) 0.12628(12)
C31 C -0.0642(2) 0.8724(3) 0.15043(13)
H27 H -0.0581 0.8216 0.1534
C32 C -0.0962(2) 0.9096(3) 0.16995(13)
H28 H -0.1112 0.8840 0.1861
C33 C -0.0065(2) 0.8596(3) 0.10474(12)
C34 C 0.0423(2) 0.8071(3) 0.12642(12)
C35 C 0.0472(2) 0.7327(3) 0.12100(12)
H29 H 0.0180 0.7106 0.1035
C36 C 0.0934(2) 0.6901(3) 0.14033(12)
H30 H 0.0955 0.6398 0.1359
C37 C 0.1374(2) 0.7219(3) 0.16674(12)
C38 C 0.1328(3) 0.7954(3) 0.17265(13)
H31 H 0.1628 0.8174 0.1899
C39 C 0.0851(3) 0.8379(3) 0.15389(14)
H32 H 0.0813 0.8873 0.1595
C40 C 0.1894(3) 0.6754(3) 0.18788(14)
C41 C 0.0308(4) 0.9080(4) 0.08444(19)
C42 C -0.0586(3) 0.8181(4) 0.07965(19)
C43 C 0.5153(2) 0.0734(2) 0.43502(13)
C44 C 0.5838(2) 0.0805(2) 0.43310(14)
C45 C 0.6287(3) 0.1087(3) 0.46015(14)
H33 H 0.6173 0.1228 0.4797
C46 C 0.6908(3) 0.1153(3) 0.45726(16)
H34 H 0.7208 0.1356 0.4750
C47 C 0.7096(3) 0.0931(3) 0.42936(19)
C48 C 0.6661(3) 0.0642(3) 0.40426(18)
H35 H 0.6781 0.0472 0.3854
C49 C 0.6026(3) 0.0590(3) 0.40581(15)
H36 H 0.5729 0.0402 0.3876
C50 C 0.7819(3) 0.1026(3) 0.4303(2)
C51 C 0.8007(3) 0.1842(3) 0.43661(16)
C52 C 0.8601(3) 0.2064(3) 0.45372(18)
H37 H 0.8900 0.1705 0.4628
C53 C 0.8766(2) 0.2792(3) 0.45791(15)
H38 H 0.9168 0.2925 0.4702
C54 C 0.8332(2) 0.3334(3) 0.44376(13)
C55 C 0.7722(3) 0.3141(3) 0.42813(14)
H39 H 0.7418 0.3503 0.4203
C56 C 0.7568(3) 0.2387(3) 0.42417(15)
H40 H 0.7160 0.2250 0.4129
C57 C 0.8531(3) 0.4149(3) 0.44547(13)
C58 C 0.8188(4) 0.0517(4) 0.4537(3)
C59 C 0.7956(4) 0.0803(6) 0.3977(3)
Cd1 Cd 0.284990(16) 0.592718(18) 0.223147(8)
Cd2 Cd 0.902046(16) 0.550918(19) 0.448820(8)
F1 F -0.03777(18) 0.7841(2) 0.05552(8)
F2 F -0.08669(16) 0.7668(2) 0.09491(10)
F3 F -0.10579(17) 0.8635(2) 0.06444(9)
F4 F 0.06642(17) 0.86411(19) 0.06959(8)
F5 F -0.00682(19) 0.9461(2) 0.05979(9)
F6 F 0.06926(18) 0.95483(19) 0.10419(11)
F7 F 0.7853(2) 0.0128(3) 0.38672(15)
F8 F 0.79557(19) -0.01828(19) 0.44996(17)
F9 F 0.87897(18) 0.04344(19) 0.45089(15)
F10 F 0.82248(19) 0.0704(2) 0.48589(15)
F11 F 0.8536(2) 0.1014(2) 0.39456(15)
F12 F 0.7587(3) 0.1211(3) 0.37156(14)
N1 N 0.35974(19) 0.6514(2) 0.26339(9)
N2 N 0.83235(18) 0.6355(2) 0.42117(9)
N3 N 0.60756(18) 0.9126(2) 0.49962(9)
N4 N 0.74628(19) 1.0179(2) 0.25838(10)
O1 O -0.14539(15) 1.09498(19) 0.18592(8)
O2 O -0.17004(17) 0.98967(18) 0.20538(9)
O3 O 0.2330(2) 0.7066(2) 0.20841(10)
O4 O 0.18938(16) 0.60689(19) 0.18395(9)
O5 O 0.50266(16) 0.09462(19) 0.46147(9)
O6 O 0.47593(16) 0.04707(18) 0.41158(9)
O7 O 0.81314(18) 0.46287(19) 0.43726(11)
O8 O 0.91060(17) 0.42879(18) 0.45496(10)
O9 O 0.51182(15) 0.74721(17) 0.32800(8)
O10 O 0.70291(14) 0.78857(15) 0.37308(8)
O11 O 0.62624(14) 0.86718(17) 0.40474(8)
O12 O 0.65689(15) 0.87474(16) 0.30932(7)
Cd1B Cd 0.784990(16) 1.092718(18) 0.223147(8)
Cd1B_2 Cd -0.215010(16) 1.092718(18) 0.223147(8)
Cd2F Cd 0.597954(16) 0.949082(19) 0.551180(8)
Cd2B Cd 0.402046(16) 0.050918(19) 0.448820(8)
N3F N 0.89244(18) 0.5874(2) 0.50038(9)
N4B N 0.24628(19) 0.5179(2) 0.25838(10)
O1B O 0.35461(15) 0.59498(19) 0.18592(8)
O2B O 0.32996(17) 0.48967(18) 0.20538(9)
O5B O 1.00266(16) 0.59462(19) 0.46147(9)
O6B O 0.97593(16) 0.54707(18) 0.41158(9)
loop_
_geom_bond_atom_site_label_1
_geom_bond_atom_site_label_2
_geom_bond_site_symmetry_1
_geom_bond_site_symmetry_2
C1 H1 1_555 1_555
C2 C1 1_555 1_555
H2 C2 1_555 1_555
C3 C2 1_555 1_555
C4 C3 1_555 1_555
H3 C4 1_555 1_555
C5 C4 1_555 1_555
H4 C5 1_555 1_555
C6 H5 1_555 1_555
H6 C6 1_555 1_555
C7 C6 1_555 1_555
C8 C7 1_555 1_555
H7 C8 1_555 1_555
H8 C8 1_555 1_555
C9 C10 1_555 1_555
C10 H9 1_555 1_555
C11 C10 1_555 1_555
H10 C11 1_555 1_555
C12 H11 1_555 1_555
C13 C9 1_555 1_555
H12 C13 1_555 1_555
C14 C7 1_555 1_555
H13 C14 1_555 1_555
H14 C14 1_555 1_555
C15 C16 1_555 1_555
C16 H15 1_555 1_555
C17 C16 1_555 1_555
H16 C17 1_555 1_555
C18 H17 1_555 1_555
C19 C15 1_555 1_555
H18 C19 1_555 1_555
C20 C7 1_555 1_555
H19 C20 1_555 1_555
H20 C20 1_555 1_555
C21 C22 1_555 1_555
C22 H21 1_555 1_555
C23 C22 1_555 1_555
H22 C23 1_555 1_555
C24 H23 1_555 1_555
C25 C21 1_555 1_555
H24 C25 1_555 1_555
C26 C27 1_555 1_555
C27 C28 1_555 1_555
C28 H25 1_555 1_555
C29 C28 1_555 1_555
H26 C29 1_555 1_555
C30 C29 1_555 1_555
C31 C30 1_555 1_555
H27 C31 1_555 1_555
C32 C27 1_555 1_555
H28 C32 1_555 1_555
C33 C30 1_555 1_555
C34 C33 1_555 1_555
C35 C34 1_555 1_555
H29 C35 1_555 1_555
C36 C35 1_555 1_555
H30 C36 1_555 1_555
C37 C36 1_555 1_555
C38 C37 1_555 1_555
H31 C38 1_555 1_555
C39 C34 1_555 1_555
H32 C39 1_555 1_555
C40 C37 1_555 1_555
C41 C33 1_555 1_555
C42 C33 1_555 1_555
C43 C44 1_555 1_555
C44 C45 1_555 1_555
C45 H33 1_555 1_555
C46 C45 1_555 1_555
H34 C46 1_555 1_555
C47 C46 1_555 1_555
C48 C47 1_555 1_555
H35 C48 1_555 1_555
C49 C44 1_555 1_555
H36 C49 1_555 1_555
C50 C47 1_555 1_555
C51 C50 1_555 1_555
C52 C51 1_555 1_555
H37 C52 1_555 1_555
C53 C52 1_555 1_555
H38 C53 1_555 1_555
C54 C53 1_555 1_555
C55 C54 1_555 1_555
H39 C55 1_555 1_555
C56 C51 1_555 1_555
H40 C56 1_555 1_555
C57 C54 1_555 1_555
C58 C50 1_555 1_555
C59 C50 1_555 1_555
Cd1 N1 1_555 1_555
Cd2 N2 1_555 1_555
F1 C42 1_555 1_555
F2 C42 1_555 1_555
F3 C42 1_555 1_555
F4 C41 1_555 1_555
F5 C41 1_555 1_555
F6 C41 1_555 1_555
F7 C59 1_555 1_555
F8 C58 1_555 1_555
F9 C58 1_555 1_555
F10 C58 1_555 1_555
F11 C59 1_555 1_555
F12 C59 1_555 1_555
N1 C1 1_555 1_555
N2 C11 1_555 1_555
N3 C17 1_555 1_555
N4 C23 1_555 1_555
O1 C26 1_555 1_555
O2 C26 1_555 1_555
O3 C40 1_555 1_555
O4 C40 1_555 1_555
O5 C43 1_555 1_555
O6 C43 1_555 1_555
O7 C57 1_555 1_555
O8 C57 1_555 1_555
O9 C3 1_555 1_555
O10 C8 1_555 1_555
O11 C14 1_555 1_555
O12 C20 1_555 1_555
Cd1B N4 1_555 1_555
Cd1B_2 O1 1_555 1_555
Cd2F N3 1_555 1_555
Cd2B O5 1_555 1_555
N3F Cd2 1_555 1_555
N4B Cd1 1_555 1_555
O1B Cd1 1_555 1_555
O2B Cd1 1_555 1_555
O5B Cd2 1_555 1_555
O6B Cd2 1_555 1_555
C5 N1 1_555 1_555
C6 O9 1_555 1_555
C9 O10 1_555 1_555
C12 C13 1_555 1_555
C12 N2 1_555 1_555
C15 O11 1_555 1_555
C18 C19 1_555 1_555
C18 N3 1_555 1_555
C21 O12 1_555 1_555
C24 C25 1_555 1_555
C24 N4 1_555 1_555
C31 C32 1_555 1_555
C38 C39 1_555 1_555
C48 C49 1_555 1_555
C55 C56 1_555 1_555
Cd1 O3 1_555 1_555
Cd1 O4 1_555 1_555
Cd2 O7 1_555 1_555
Cd2 O8 1_555 1_555
O2 Cd1B_2 1_555 1_555
O6 Cd2B 1_555 1_555

#END
