
#######################################################################
#
#                 Cambridge Crystallographic Data Centre
#                                CCDC 
#
#######################################################################
#
# If this CIF has been generated from an entry in the Cambridge 
# Structural Database, then it will include bibliographic, chemical, 
# crystal, experimental, refinement or atomic coordinate data resulting 
# from the CCDC's data processing and validation procedures.
#
#######################################################################

data_FAMHAE
_symmetry_cell_setting           tetragonal
_symmetry_space_group_name_H-M   'P 41'
_symmetry_Int_Tables_number      76
_space_group_name_Hall           'P 4w'
loop_
_symmetry_equiv_pos_site_id
_symmetry_equiv_pos_as_xyz
1 x,y,z
2 -y,x,1/4+z
3 -x,-y,1/2+z
4 y,-x,3/4+z
_cell_length_a                   12.367(3)
_cell_length_b                   12.367(3)
_cell_length_c                   5.2934(11)
_cell_angle_alpha                90
_cell_angle_beta                 90
_cell_angle_gamma                90
_cell_volume                     809.587
loop_
_atom_site_label
_atom_site_type_symbol
_atom_site_fract_x
_atom_site_fract_y
_atom_site_fract_z
Co1 Co 0.67880(8) 1.01520(9) 0.5373(2)
S1 S 0.56086(19) 0.69305(17) 0.4732(5)
N1 N 0.6170(5) 0.8736(5) 0.7218(12)
H1 H 0.8533 1.0243 0.8456
H2 H 0.7504 1.0575 0.9480
C1 C 0.6544(7) 0.6815(6) 0.7282(18)
H3 H 0.6177 0.6604 0.8824
H4 H 0.7097 0.6283 0.6901
C2 C 0.7037(6) 0.7935(6) 0.7549(18)
H5 H 0.7339 0.8009 0.9251
C3 C 0.7933(6) 0.8134(7) 0.5609(17)
C4 C 0.5260(7) 0.8311(6) 0.5689(17)
H6 H 0.4606 0.8291 0.6734
C5 C 0.5034(6) 0.8956(6) 0.3344(16)
O1 O 0.8678(4) 0.7429(4) 0.5362(13)
O2 O 0.7929(4) 0.8998(4) 0.4340(11)
O3 O 0.5703(4) 0.9678(4) 0.2688(12)
O4 O 0.4195(4) 0.8723(4) 0.2166(12)
O5 O 0.7906(5) 1.0501(5) 0.8179(12)
H7 H 0.5998 0.8773 0.8700
Co1A Co 0.98480(9) 0.67880(8) 0.7873(2)
Co1B Co 0.32120(8) 0.98480(9) 0.0373(2)
O1C O 0.7429(4) 1.1322(4) 0.2862(13)
O4B O 0.5805(4) 1.1277(4) 0.7166(12)
O6 O 0.9888(15) 0.0015(16) 0.319(7)
loop_
_geom_bond_atom_site_label_1
_geom_bond_atom_site_label_2
_geom_bond_site_symmetry_1
_geom_bond_site_symmetry_2
Co1 N1 1_555 1_555
S1 C1 1_555 1_555
N1 C2 1_555 1_555
H1 O5 1_555 1_555
H2 O5 1_555 1_555
C1 H3 1_555 1_555
H4 C1 1_555 1_555
C2 C1 1_555 1_555
H5 C2 1_555 1_555
C3 C2 1_555 1_555
C4 S1 1_555 1_555
H6 C4 1_555 1_555
C5 C4 1_555 1_555
O1 C3 1_555 1_555
O2 Co1 1_555 1_555
O3 Co1 1_555 1_555
O4 C5 1_555 1_555
O5 Co1 1_555 1_555
H7 N1 1_555 1_555
Co1A O1 1_555 1_555
Co1B O4 1_555 1_555
O1C Co1 1_555 1_555
O4B Co1 1_555 1_555
N1 C4 1_555 1_555
C3 O2 1_555 1_555
C5 O3 1_555 1_555

#END
