
#######################################################################
#
#                 Cambridge Crystallographic Data Centre
#                                CCDC 
#
#######################################################################
#
# If this CIF has been generated from an entry in the Cambridge 
# Structural Database, then it will include bibliographic, chemical, 
# crystal, experimental, refinement or atomic coordinate data resulting 
# from the CCDC's data processing and validation procedures.
#
#######################################################################

data_FAMHEI
_symmetry_cell_setting           monoclinic
_symmetry_space_group_name_H-M   'P 21'
_symmetry_Int_Tables_number      4
_space_group_name_Hall           'P 2yb'
loop_
_symmetry_equiv_pos_site_id
_symmetry_equiv_pos_as_xyz
1 x,y,z
2 -x,1/2+y,-z
_cell_length_a                   5.3211(11)
_cell_length_b                   9.6312(19)
_cell_length_c                   9.764(2)
_cell_angle_alpha                90
_cell_angle_beta                 101.10(3)
_cell_angle_gamma                90
_cell_volume                     491.03
loop_
_atom_site_label
_atom_site_type_symbol
_atom_site_fract_x
_atom_site_fract_y
_atom_site_fract_z
Co1 Co 0.54513(9) 0.57573(5) 0.38537(5)
S1 S 0.4256(2) 0.89621(12) 0.07634(12)
N1 N 0.6870(6) 0.6976(3) 0.2354(3)
H1 H 0.7863 0.6328 0.1882
C1 C 0.4862(7) 0.7115(4) 0.1103(4)
H2 H 0.5464 0.6700 0.0307
C2 C 0.2307(8) 0.6445(4) 0.1236(4)
C3 C 0.7653(8) 0.8333(4) 0.2991(4)
H3 H 0.9475 0.8293 0.3420
C4 C 0.6121(7) 0.8673(4) 0.4118(4)
C5 C 0.7282(8) 0.9405(4) 0.1830(4)
H4 H 0.8645 0.9349 0.1300
H5 H 0.7243 1.0336 0.2204
O1 O 0.0473(5) 0.6619(3) 0.0284(3)
O2 O 0.2231(4) 0.5750(4) 0.2340(2)
O3 O 0.4656(5) 0.7779(3) 0.4463(3)
O4 O 0.6467(5) 0.9860(3) 0.4664(3)
O5 O 0.8799(5) 0.5969(4) 0.5396(3)
H6 H 1.0239 0.5594 0.5310
H7 H 0.8648 0.6649 0.5958
O6 O 0.6607(7) 0.3832(3) 0.3281(3)
H8 H 0.5049 0.3800 0.2783
H9 H 0.7987 0.3605 0.2998
Co1A Co 0.45487(9) 1.07573(5) 0.61463(5)
O4A O 0.3533(5) 0.4860(3) 0.5336(3)
O7 O 0.0669(6) 0.2767(4) 0.2291(3)
H10 H -0.0125 0.2487 0.1491
H11 H 0.2266 0.2673 0.2650
loop_
_geom_bond_atom_site_label_1
_geom_bond_atom_site_label_2
_geom_bond_site_symmetry_1
_geom_bond_site_symmetry_2
Co1 N1 1_555 1_555
S1 C1 1_555 1_555
N1 H1 1_555 1_555
C1 N1 1_555 1_555
H2 C1 1_555 1_555
C2 C1 1_555 1_555
C3 N1 1_555 1_555
H3 C3 1_555 1_555
C4 C3 1_555 1_555
C5 S1 1_555 1_555
H4 C5 1_555 1_555
H5 C5 1_555 1_555
O1 C2 1_555 1_555
O2 Co1 1_555 1_555
O3 Co1 1_555 1_555
O4 C4 1_555 1_555
O5 Co1 1_555 1_555
H6 O5 1_555 1_555
H7 O5 1_555 1_555
O6 Co1 1_555 1_555
H8 O6 1_555 1_555
H9 O6 1_555 1_555
O7 H10 1_555 1_555
H11 O7 1_555 1_555
Co1A O4 1_555 1_555
O4A Co1 1_555 1_555
C2 O2 1_555 1_555
C3 C5 1_555 1_555
C4 O3 1_555 1_555

#END
