
#######################################################################
#
#                 Cambridge Crystallographic Data Centre
#                                CCDC 
#
#######################################################################
#
# If this CIF has been generated from an entry in the Cambridge 
# Structural Database, then it will include bibliographic, chemical, 
# crystal, experimental, refinement or atomic coordinate data resulting 
# from the CCDC's data processing and validation procedures.
#
#######################################################################

data_FAMKIN
_symmetry_cell_setting           orthorhombic
_symmetry_space_group_name_H-M   'P 21 21 21'
_symmetry_Int_Tables_number      19
_space_group_name_Hall           'P 2ac 2ab'
loop_
_symmetry_equiv_pos_site_id
_symmetry_equiv_pos_as_xyz
1 x,y,z
2 1/2-x,-y,1/2+z
3 1/2+x,1/2-y,-z
4 -x,1/2+y,1/2-z
_cell_length_a                   6.6946(15)
_cell_length_b                   13.559(3)
_cell_length_c                   26.607(7)
_cell_angle_alpha                90
_cell_angle_beta                 90
_cell_angle_gamma                90
_cell_volume                     2415.17
loop_
_atom_site_label
_atom_site_type_symbol
_atom_site_fract_x
_atom_site_fract_y
_atom_site_fract_z
Mn1 Mn -0.43198(17) -0.05459(8) 0.32172(4)
N1 N -0.6709(11) -0.0207(5) 0.2711(2)
C1 C -0.7331(13) 0.0127(5) 0.2334(3)
S1 S -0.8260(3) 0.0589(2) 0.18261(8)
O1 O -0.1611(8) -0.0871(4) 0.36848(19)
N3 N -0.5884(10) 0.0076(4) 0.3897(2)
N4 N -0.7954(10) 0.0055(5) 0.3961(2)
C3 C -0.8355(11) 0.0523(6) 0.4373(3)
N5 N -0.6617(9) 0.0848(4) 0.4589(2)
C4 C -0.5123(10) 0.0548(6) 0.4281(3)
N6 N -0.6440(9) 0.1381(4) 0.5032(2)
C5 C -0.6236(13) 0.1030(6) 0.5505(3)
N7 N -0.6172(11) 0.1761(5) 0.5821(2)
N8 N -0.6383(12) 0.2637(5) 0.5538(2)
C6 C -0.6560(14) 0.2371(5) 0.5079(3)
N9 N -0.5542(10) -0.2013(4) 0.3441(2)
N10 N -0.6440(11) -0.2618(4) 0.3076(2)
C7 C -0.6799(12) -0.3461(6) 0.3296(3)
N11 N -0.6193(9) -0.3431(4) 0.3783(2)
C8 C -0.5384(12) -0.2517(5) 0.3854(3)
N12 N -0.6300(9) -0.4191(4) 0.4128(2)
C9 C -0.7076(13) -0.4185(6) 0.4598(3)
N13 N -0.6942(11) -0.5062(5) 0.4789(2)
N14 N -0.6034(11) -0.5676(5) 0.4437(2)
C10 C -0.5638(15) -0.5141(5) 0.4043(3)
N15 N -0.2481(9) -0.1216(4) 0.2579(2)
N16 N -0.2907(10) -0.1069(4) 0.2075(2)
C11 C -0.1621(12) -0.1608(5) 0.1823(3)
N17 N -0.0413(10) -0.2107(4) 0.2147(2)
C12 C -0.1003(12) -0.1829(5) 0.2621(3)
N18 N 0.1169(10) -0.2713(4) 0.2020(2)
C13 C 0.1134(12) -0.3709(5) 0.1980(3)
N19 N 0.2910(10) -0.4018(4) 0.1861(2)
N20 N 0.4138(10) -0.3187(4) 0.1814(3)
C14 C 0.3080(12) -0.2427(5) 0.1917(3)
H1 H -0.96565 0.06256 0.45052
H2 H -0.37396 0.06625 0.43347
H3 H -0.61512 0.03525 0.55930
H4 H -0.67522 0.28124 0.48061
H5 H -0.73979 -0.40154 0.31382
H6 H -0.47989 -0.22868 0.41569
H7 H -0.76296 -0.36263 0.47623
H8 H -0.49978 -0.53667 0.37455
H9 H -0.15441 -0.16443 0.14669
H10 H -0.04261 -0.20480 0.29272
H11 H -0.00033 -0.41167 0.20292
H12 H 0.35588 -0.17673 0.19187
N19C N -0.2910(10) 0.0982(4) 0.3139(2)
Mn1C Mn 0.43198(17) -0.55459(8) 0.17828(4)
N2 N -0.0530(13) -0.2696(6) 0.4044(3)
C2 C -0.1187(14) -0.3005(6) 0.4405(4)
S2 S -0.2199(4) -0.34654(17) 0.49226(9)
loop_
_geom_bond_atom_site_label_1
_geom_bond_atom_site_label_2
_geom_bond_site_symmetry_1
_geom_bond_site_symmetry_2
Mn1 N1 1_555 1_555
N1 C1 1_555 1_555
C1 S1 1_555 1_555
N2 C2 1_555 1_555
C2 S2 1_555 1_555
O1 Mn1 1_555 1_555
N3 Mn1 1_555 1_555
N4 N3 1_555 1_555
C3 N4 1_555 1_555
N5 C3 1_555 1_555
C4 N3 1_555 1_555
N6 N5 1_555 1_555
C5 N6 1_555 1_555
N7 C5 1_555 1_555
N8 N7 1_555 1_555
C6 N6 1_555 1_555
N9 Mn1 1_555 1_555
N10 N9 1_555 1_555
C7 N10 1_555 1_555
N11 C7 1_555 1_555
C8 N9 1_555 1_555
N12 N11 1_555 1_555
C9 N12 1_555 1_555
N13 C9 1_555 1_555
N14 N13 1_555 1_555
C10 N12 1_555 1_555
N15 Mn1 1_555 1_555
N16 N15 1_555 1_555
C11 N16 1_555 1_555
N17 C11 1_555 1_555
C12 N15 1_555 1_555
N18 N17 1_555 1_555
C13 N18 1_555 1_555
N19 C13 1_555 1_555
N20 N19 1_555 1_555
C14 N18 1_555 1_555
H1 C3 1_555 1_555
H2 C4 1_555 1_555
H3 C5 1_555 1_555
H4 C6 1_555 1_555
H5 C7 1_555 1_555
H6 C8 1_555 1_555
H7 C9 1_555 1_555
H8 C10 1_555 1_555
H9 C11 1_555 1_555
H10 C12 1_555 1_555
H11 C13 1_555 1_555
H12 C14 1_555 1_555
N19C Mn1 1_555 1_555
Mn1C N19 1_555 1_555
N5 C4 1_555 1_555
N8 C6 1_555 1_555
N11 C8 1_555 1_555
N14 C10 1_555 1_555
N17 C12 1_555 1_555
N20 C14 1_555 1_555

#END
