
#######################################################################
#
#                 Cambridge Crystallographic Data Centre
#                                CCDC 
#
#######################################################################
#
# If this CIF has been generated from an entry in the Cambridge 
# Structural Database, then it will include bibliographic, chemical, 
# crystal, experimental, refinement or atomic coordinate data resulting 
# from the CCDC's data processing and validation procedures.
#
#######################################################################

data_FAMSUH
_symmetry_cell_setting           triclinic
_symmetry_space_group_name_H-M   'P -1'
_symmetry_Int_Tables_number      2
_space_group_name_Hall           '-P 1'
loop_
_symmetry_equiv_pos_site_id
_symmetry_equiv_pos_as_xyz
1 x,y,z
2 -x,-y,-z
_cell_length_a                   8.150(2)
_cell_length_b                   8.150(6)
_cell_length_c                   8.150(2)
_cell_angle_alpha                91.25(4)
_cell_angle_beta                 91.25(2)
_cell_angle_gamma                88.78(5)
_cell_volume                     540.968
loop_
_atom_site_label
_atom_site_type_symbol
_atom_site_fract_x
_atom_site_fract_y
_atom_site_fract_z
Zn1 Zn 0.5000 0.0000 0.0000
Zn2 Zn 0.0000 -0.5000 0.0000
Zn3 Zn 0.0000 0.0000 -0.5000
O1 O 0.3963(4) -0.2369(3) 0.0094(4)
O2 O 0.4015(4) 0.0172(4) -0.2402(3)
O3 O -0.0089(4) -0.6041(4) 0.2364(3)
O4 O 0.2402(3) -0.5988(3) -0.0173(4)
O5 O -0.0164(4) -0.2391(3) 0.4018(4)
O6 O 0.2373(3) 0.0094(4) -0.6040(4)
C1 C 0.4542(5) -0.3813(5) 0.0025(5)
C2 C 0.4562(5) 0.0063(5) -0.3829(5)
C3 C -0.0059(5) -0.5451(5) 0.3826(5)
C4 C 0.3815(5) -0.5436(5) -0.0077(5)
C5 C -0.0061(5) -0.3813(5) 0.4570(5)
C6 C 0.3811(5) 0.0037(5) -0.5468(5)
O7 O 0.2728(3) 0.0814(4) 0.0722(4)
O8 O 0.0723(4) -0.2729(3) 0.0810(4)
O9 O 0.0813(4) -0.0717(4) -0.2727(3)
C1A C 0.5458(5) -0.6187(5) -0.0025(5)
O1A O 0.6037(4) -0.7631(3) -0.0094(4)
C4A C 0.6185(5) -0.4564(5) 0.0077(5)
O4A O 0.7598(3) -0.4012(3) 0.0173(4)
C2A C 0.5438(5) -0.0063(5) -0.6171(5)
O2A O 0.5985(4) -0.0172(4) -0.7598(3)
C6A C 0.6189(5) -0.0037(5) -0.4532(5)
O6A O 0.7627(3) -0.0094(4) -0.3960(4)
C3A C 0.0059(5) -0.4549(5) 0.6174(5)
O3A O 0.0089(4) -0.3959(4) 0.7636(3)
C5A C 0.0061(5) -0.6187(5) 0.5430(5)
O5A O 0.0164(4) -0.7609(3) 0.5982(4)
O7A O 0.7272(3) -0.0814(4) -0.0722(4)
O8A O -0.0723(4) -0.7271(3) -0.0810(4)
O9A O -0.0813(4) 0.0717(4) -0.7273(3)
O1A_2 O 0.6037(4) 0.2369(3) -0.0094(4)
O2A_2 O 0.5985(4) -0.0172(4) 0.2402(3)
O3A_2 O 0.0089(4) -0.3959(4) -0.2364(3)
O4A_2 O -0.2402(3) -0.4012(3) 0.0173(4)
O5_2 O -0.0164(4) -0.2391(3) -0.5982(4)
O5A_2 O 0.0164(4) 0.2391(3) -0.4018(4)
O6A_2 O -0.2373(3) -0.0094(4) -0.3960(4)
Zn3_2 Zn 0.0000 0.0000 0.5000
Zn1_2 Zn 0.5000 -1.0000 0.0000
Zn2_2 Zn 1.0000 -0.5000 0.0000
Zn1_3 Zn 0.5000 0.0000 -1.0000
Zn3_3 Zn 1.0000 0.0000 -0.5000
Zn2_3 Zn 0.0000 -0.5000 1.0000
Zn3_4 Zn 0.0000 -1.0000 0.5000
loop_
_geom_bond_atom_site_label_1
_geom_bond_atom_site_label_2
_geom_bond_site_symmetry_1
_geom_bond_site_symmetry_2
Zn1 O1 1_555 1_555
Zn2 O3 1_555 1_555
Zn3 O6 1_555 1_555
O1 C1 1_555 1_555
O2 Zn1 1_555 1_555
O3 C3 1_555 1_555
O4 Zn2 1_555 1_555
O5 C5 1_555 1_555
O6 C6 1_555 1_555
C1 C4 1_555 1_555
C2 O2 1_555 1_555
C3 C5 1_555 1_555
C4 O4 1_555 1_555
C5 C3A 1_555 1_555
C6 C2 1_555 1_555
O7 Zn1 1_555 1_555
O8 Zn2 1_555 1_555
O9 Zn3 1_555 1_555
C1A C4 1_555 1_555
O1A C1A 1_555 1_555
C4A C1 1_555 1_555
O4A C4A 1_555 1_555
C2A C6 1_555 1_555
O2A C2A 1_555 1_555
C6A C2 1_555 1_555
O6A C6A 1_555 1_555
C3A O3A 1_555 1_555
O3A Zn2_3 1_555 1_555
C5A C3 1_555 1_555
O5A C5A 1_555 1_555
O7A Zn1 1_555 1_555
O8A Zn2 1_555 1_555
O9A Zn3 1_555 1_555
O1A_2 Zn1 1_555 1_555
O2A_2 Zn1 1_555 1_555
O3A_2 Zn2 1_555 1_555
O4A_2 Zn2 1_555 1_555
O5_2 Zn3 1_555 1_555
O5A_2 Zn3 1_555 1_555
O6A_2 Zn3 1_555 1_555
Zn3_2 O5 1_555 1_555
Zn1_2 O1A 1_555 1_555
Zn2_2 O4A 1_555 1_555
Zn1_3 O2A 1_555 1_555
Zn3_3 O6A 1_555 1_555
Zn3_4 O5A 1_555 1_555
C1A C4A 1_555 1_555
C2A C6A 1_555 1_555
C3A C5A 1_555 1_555

#END
