
#######################################################################
#
#                 Cambridge Crystallographic Data Centre
#                                CCDC 
#
#######################################################################
#
# If this CIF has been generated from an entry in the Cambridge 
# Structural Database, then it will include bibliographic, chemical, 
# crystal, experimental, refinement or atomic coordinate data resulting 
# from the CCDC's data processing and validation procedures.
#
#######################################################################

data_FAMZEA
_symmetry_cell_setting           tetragonal
_symmetry_space_group_name_H-M   'P 43'
_symmetry_Int_Tables_number      78
_space_group_name_Hall           'P 4cw'
loop_
_symmetry_equiv_pos_site_id
_symmetry_equiv_pos_as_xyz
1 x,y,z
2 -x,-y,1/2+z
3 -y,x,3/4+z
4 y,-x,1/4+z
_cell_length_a                   22.780(3)
_cell_length_b                   22.780(3)
_cell_length_c                   14.3337(16)
_cell_angle_alpha                90
_cell_angle_beta                 90
_cell_angle_gamma                90
_cell_volume                     7438.16
loop_
_atom_site_label
_atom_site_type_symbol
_atom_site_fract_x
_atom_site_fract_y
_atom_site_fract_z
Sn1 Sn 0.90776(7) 0.09383(7) 1.0136(2)
Sn2 Sn 0.56835(7) 0.10320(7) 0.8919(2)
Sn3 Sn 0.40032(7) 0.41776(7) 1.2069(2)
Sn4 Sn 0.61420(7) -0.07709(7) 0.6465(2)
O1 O 0.5242(7) 0.1749(7) 0.9630(14)
O2 O 0.6227(7) 0.0283(7) 0.8002(13)
O3 O 0.8328(7) 0.0676(7) 0.9268(13)
O4 O 0.8738(7) -0.0105(6) 0.8664(13)
O5 O 0.4197(8) 0.3402(7) 1.1227(14)
O6 O 0.4573(6) 0.1247(7) 1.0399(13)
O7 O 0.4989(7) 0.3759(7) 1.0529(14)
O8 O 0.6820(7) -0.0367(7) 0.7368(13)
C1 C 0.7227(8) 0.0195(11) 0.8533(16)
H1 H 0.7266 -0.0094 0.9027
H2 H 0.7139 0.0569 0.8825
C2 C 0.7816(8) 0.0247(9) 0.8031(15)
H3 H 0.7849 -0.0088 0.7606
C3 C 0.4616(10) 0.2804(8) 1.0094(15)
H4 H 0.4948 0.2811 0.9661
C4 C 0.7771(11) 0.0803(9) 0.7432(17)
H5 H 0.7637 0.1123 0.7810
H6 H 0.7499 0.0737 0.6931
H7 H 0.8151 0.0895 0.7179
C5 C 0.4615(12) 0.3368(10) 1.064(2)
C6 C 0.6719(10) 0.0025(11) 0.7928(19)
C7 C 0.4811(11) 0.1697(10) 1.024(2)
C8 C 0.4681(11) 0.2269(8) 1.0737(16)
H8 H 0.4995 0.2346 1.1177
H9 H 0.4322 0.2223 1.1092
C9 C 0.9698(10) 0.0972(10) 0.8933(16)
H10 H 1.0088 0.1047 0.9176
H11 H 0.9705 0.0587 0.8645
C10 C 0.8354(10) 0.0252(11) 0.8637(18)
C11 C 0.7047(11) -0.1233(10) 0.5066(17)
H12 H 0.6733 -0.1169 0.4620
H13 H 0.7251 -0.0863 0.5145
C12 C 0.4047(9) 0.2773(10) 0.9526(19)
H14 H 0.3719 0.2859 0.9923
H15 H 0.4004 0.2386 0.9270
H16 H 0.4063 0.3055 0.9028
C13 C 0.6264(10) 0.1644(9) 0.8392(13)
H17 H 0.6242 0.1993 0.8779
H18 H 0.6658 0.1488 0.8454
C14 C 0.6175(10) 0.1829(10) 0.7378(13)
H19 H 0.5792 0.2012 0.7317
H20 H 0.6178 0.1482 0.6988
C15 C 0.6774(10) -0.1403(11) 0.5998(16)
H21 H 0.7081 -0.1439 0.6462
H22 H 0.6584 -0.1782 0.5937
C16 C 0.4758(11) 0.4191(9) 1.290(2)
H23 H 0.5043 0.4463 1.2648
H24 H 0.4659 0.4317 1.3531
C17 C 0.6642(9) 0.2257(11) 0.7025(16)
H25 H 0.7016 0.2055 0.6979
H26 H 0.6685 0.2576 0.7466
C18 C 0.3525(10) 0.4649(11) 1.0233(18)
H27 H 0.3149 0.4772 1.0487
H28 H 0.3506 0.4231 1.0113
C19 C 0.4010(11) 0.4776(12) 1.0938(16)
H29 H 0.3962 0.5172 1.1176
H30 H 0.4387 0.4756 1.0626
C20 C 0.6443(9) 0.0357(10) 0.5492(19)
H31 H 0.6595 0.0515 0.6072
H32 H 0.6744 0.0105 0.5228
C21 C 0.8543(11) 0.1736(10) 1.0545(15)
H33 H 0.8727 0.2089 1.0309
H34 H 0.8151 0.1709 1.0282
C22 C 0.6474(14) 0.2504(14) 0.6071(17)
H35 H 0.6681 0.2294 0.5592
H36 H 0.6575 0.2912 0.6043
H37 H 0.6059 0.2459 0.5977
C23 C 0.5906(9) -0.0019(9) 0.5714(19)
H38 H 0.5716 -0.0134 0.5136
H39 H 0.5628 0.0210 0.6075
C24 C 0.3643(10) 0.4977(14) 0.9319(16)
H40 H 0.3959 0.5257 0.9409
H41 H 0.3762 0.4701 0.8841
C25 C 0.5585(11) -0.1028(11) 0.7509(15)
H42 H 0.5339 -0.0693 0.7653
H43 H 0.5330 -0.1326 0.7247
C26 C 0.4979(8) 0.0743(9) 0.8113(18)
H44 H 0.5126 0.0619 0.7510
H45 H 0.4805 0.0403 0.8413
C27 C 0.9074(8) 0.0199(10) 1.106(2)
H46 H 0.9383 -0.0058 1.0834
H47 H 0.9210 0.0349 1.1655
C28 C 0.3223(12) 0.3800(10) 1.2455(18)
H48 H 0.3037 0.4053 1.2911
H49 H 0.2970 0.3787 1.1912
C29 C 0.5933(11) 0.0553(8) 1.0053(11)
H50 H 0.5621 0.0271 1.0167
H51 H 0.6274 0.0328 0.9865
C30 C 0.8563(8) -0.0204(8) 1.129(2)
H52 H 0.8682 -0.0468 1.1787
H53 H 0.8473 -0.0440 1.0747
C31 C 0.9574(11) 0.1423(10) 0.8170(17)
H54 H 0.9714 0.1804 0.8373
H55 H 0.9153 0.1452 0.8077
C32 C 0.7475(11) -0.1676(11) 0.4653(18)
H56 H 0.7319 -0.2069 0.4737
H57 H 0.7845 -0.1653 0.4986
C33 C 0.4499(8) 0.1203(10) 0.7959(18)
H58 H 0.4288 0.1258 0.8540
H59 H 0.4684 0.1574 0.7803
C34 C 0.4059(11) 0.1052(10) 0.720(2)
H60 H 0.3801 0.0742 0.7413
H61 H 0.4266 0.0910 0.6650
C35 C 0.9867(14) 0.1265(10) 0.7241(16)
H62 H 1.0140 0.0943 0.7342
H63 H 0.9570 0.1132 0.6806
C36 C 0.5014(12) 0.3573(9) 1.293(2)
H64 H 0.4707 0.3301 1.3105
H65 H 0.5142 0.3469 1.2304
C37 C 0.5526(11) 0.3499(10) 1.359(2)
H66 H 0.5450 0.3722 1.4156
H67 H 0.5878 0.3658 1.3305
C38 C 0.8005(8) 0.0122(9) 1.160(2)
H68 H 0.7829 0.0318 1.1066
H69 H 0.8102 0.0416 1.2062
C39 C 0.8509(11) 0.1756(9) 1.1603(15)
H70 H 0.8311 0.1405 1.1821
H71 H 0.8905 0.1750 1.1852
C40 C 0.8191(14) 0.2290(10) 1.1991(17)
H72 H 0.7801 0.2314 1.1722
H73 H 0.8404 0.2644 1.1826
C41 C 0.7585(16) -0.1568(16) 0.3611(18)
H74 H 0.7345 -0.1247 0.3402
H75 H 0.7487 -0.1915 0.3265
H76 H 0.7991 -0.1474 0.3515
C42 C 1.0196(14) 0.1779(13) 0.682(2)
H77 H 1.0104 0.2131 0.7155
H78 H 1.0081 0.1825 0.6176
H79 H 1.0610 0.1707 0.6848
C43 C 0.8146(16) 0.2239(15) 1.3057(17)
H80 H 0.7925 0.1895 1.3217
H81 H 0.7953 0.2581 1.3302
H82 H 0.8533 0.2211 1.3320
C44 C 0.3693(12) 0.1593(13) 0.693(3)
H83 H 0.3705 0.1873 0.7435
H84 H 0.3294 0.1477 0.6825
H85 H 0.3850 0.1768 0.6378
C45 C 0.5632(15) 0.2857(12) 1.385(3)
H86 H 0.5512 0.2791 1.4484
H87 H 0.6042 0.2767 1.3786
H88 H 0.5408 0.2608 1.3442
C46 C 0.5311(12) -0.1441(11) 0.9110(16)
H89 H 0.4936 -0.1388 0.8800
H90 H 0.5350 -0.1852 0.9272
C47 C 0.5810(9) -0.1267(12) 0.8437(15)
H91 H 0.6054 -0.0972 0.8733
H92 H 0.6054 -0.1609 0.8319
C48 C 0.6334(10) 0.0862(11) 0.482(2)
H93 H 0.6049 0.1128 0.5097
H94 H 0.6169 0.0710 0.4249
C49 C 0.6080(10) 0.0824(9) 1.0987(10)
H95 H 0.6297 0.0536 1.1348
H96 H 0.5714 0.0898 1.1315
C50 C 0.3090(13) 0.5299(14) 0.901(2)
H97 H 0.2768 0.5028 0.8987
H98 H 0.3152 0.5463 0.8400
H99 H 0.3003 0.5607 0.9443
C51 C 0.7567(11) -0.0325(13) 1.201(3)
H100 H 0.7251 -0.0387 1.1579
H101 H 0.7414 -0.0177 1.2588
H102 H 0.7765 -0.0691 1.2122
C52 C 0.6673(15) 0.1532(13) 1.195(2)
H103 H 0.6557 0.1922 1.2123
H104 H 0.7094 0.1507 1.1941
H105 H 0.6519 0.1257 1.2394
C53 C 0.6896(12) 0.1201(13) 0.460(3)
H106 H 0.7229 0.0946 0.4674
H107 H 0.6933 0.1528 0.5022
H108 H 0.6880 0.1343 0.3972
C54 C 0.6431(11) 0.1389(10) 1.0977(16)
H109 H 0.6183 0.1708 1.0767
H110 H 0.6755 0.1351 1.0541
C55 C 0.5322(14) -0.1069(15) 1.0006(19)
H111 H 0.5500 -0.1292 1.0500
H112 H 0.4928 -0.0966 1.0178
H113 H 0.5546 -0.0719 0.9899
C56 C 0.3261(13) 0.3183(9) 1.2864(17)
H114 H 0.3610 0.2988 1.2630
H115 H 0.2922 0.2956 1.2667
C57 C 0.3283(13) 0.3205(13) 1.3936(17)
H116 H 0.3309 0.3611 1.4136
H117 H 0.2921 0.3043 1.4186
C58 C 0.3806(14) 0.2861(15) 1.434(2)
H118 H 0.4099 0.2813 1.3860
H119 H 0.3676 0.2482 1.4543
H120 H 0.3971 0.3073 1.4852
Sn1B Sn 0.90617(7) -0.09224(7) 0.7636(2)
Sn3B Sn 0.58224(7) 0.40032(7) 0.9569(2)
Sn4A Sn 0.38580(7) 0.07709(7) 1.1465(2)
O4C O 0.9895(6) 0.1262(7) 1.1164(13)
O6A O 0.5427(6) -0.1247(7) 0.5399(13)
O7C O 0.3759(7) 0.5011(7) 1.3029(14)
loop_
_geom_bond_atom_site_label_1
_geom_bond_atom_site_label_2
_geom_bond_site_symmetry_1
_geom_bond_site_symmetry_2
Sn1 O3 1_555 1_555
Sn2 O1 1_555 1_555
Sn3 O5 1_555 1_555
Sn4 O8 1_555 1_555
O1 C7 1_555 1_555
O2 Sn2 1_555 1_555
O3 C10 1_555 1_555
O4 C10 1_555 1_555
O5 C5 1_555 1_555
O6 C7 1_555 1_555
O7 C5 1_555 1_555
O8 C6 1_555 1_555
C1 H1 1_555 1_555
H2 C1 1_555 1_555
C2 C1 1_555 1_555
H3 C2 1_555 1_555
C3 H4 1_555 1_555
C4 C2 1_555 1_555
H5 C4 1_555 1_555
H6 C4 1_555 1_555
H7 C4 1_555 1_555
C5 C3 1_555 1_555
C6 O2 1_555 1_555
C7 C8 1_555 1_555
C8 C3 1_555 1_555
H8 C8 1_555 1_555
H9 C8 1_555 1_555
C9 Sn1 1_555 1_555
H10 C9 1_555 1_555
H11 C9 1_555 1_555
C10 C2 1_555 1_555
C11 H12 1_555 1_555
H13 C11 1_555 1_555
C12 C3 1_555 1_555
H14 C12 1_555 1_555
H15 C12 1_555 1_555
H16 C12 1_555 1_555
C13 Sn2 1_555 1_555
H17 C13 1_555 1_555
H18 C13 1_555 1_555
C14 C13 1_555 1_555
H19 C14 1_555 1_555
H20 C14 1_555 1_555
C15 Sn4 1_555 1_555
H21 C15 1_555 1_555
H22 C15 1_555 1_555
C16 Sn3 1_555 1_555
H23 C16 1_555 1_555
H24 C16 1_555 1_555
C17 C14 1_555 1_555
H25 C17 1_555 1_555
H26 C17 1_555 1_555
C18 H27 1_555 1_555
H28 C18 1_555 1_555
C19 Sn3 1_555 1_555
H29 C19 1_555 1_555
H30 C19 1_555 1_555
C20 H31 1_555 1_555
H32 C20 1_555 1_555
C21 Sn1 1_555 1_555
H33 C21 1_555 1_555
H34 C21 1_555 1_555
C22 C17 1_555 1_555
H35 C22 1_555 1_555
H36 C22 1_555 1_555
H37 C22 1_555 1_555
C23 Sn4 1_555 1_555
H38 C23 1_555 1_555
H39 C23 1_555 1_555
C24 C18 1_555 1_555
H40 C24 1_555 1_555
H41 C24 1_555 1_555
C25 Sn4 1_555 1_555
H42 C25 1_555 1_555
H43 C25 1_555 1_555
C26 Sn2 1_555 1_555
H44 C26 1_555 1_555
H45 C26 1_555 1_555
C27 Sn1 1_555 1_555
H46 C27 1_555 1_555
H47 C27 1_555 1_555
C28 Sn3 1_555 1_555
H48 C28 1_555 1_555
H49 C28 1_555 1_555
C29 Sn2 1_555 1_555
H50 C29 1_555 1_555
H51 C29 1_555 1_555
C30 C27 1_555 1_555
H52 C30 1_555 1_555
H53 C30 1_555 1_555
C31 C9 1_555 1_555
H54 C31 1_555 1_555
H55 C31 1_555 1_555
C32 C11 1_555 1_555
H56 C32 1_555 1_555
H57 C32 1_555 1_555
C33 C26 1_555 1_555
H58 C33 1_555 1_555
H59 C33 1_555 1_555
C34 C33 1_555 1_555
H60 C34 1_555 1_555
H61 C34 1_555 1_555
C35 C31 1_555 1_555
H62 C35 1_555 1_555
H63 C35 1_555 1_555
C36 C16 1_555 1_555
H64 C36 1_555 1_555
H65 C36 1_555 1_555
C37 C36 1_555 1_555
H66 C37 1_555 1_555
H67 C37 1_555 1_555
C38 C30 1_555 1_555
H68 C38 1_555 1_555
H69 C38 1_555 1_555
C39 C21 1_555 1_555
H70 C39 1_555 1_555
H71 C39 1_555 1_555
C40 C39 1_555 1_555
H72 C40 1_555 1_555
H73 C40 1_555 1_555
C41 C32 1_555 1_555
H74 C41 1_555 1_555
H75 C41 1_555 1_555
H76 C41 1_555 1_555
C42 C35 1_555 1_555
H77 C42 1_555 1_555
H78 C42 1_555 1_555
H79 C42 1_555 1_555
C43 C40 1_555 1_555
H80 C43 1_555 1_555
H81 C43 1_555 1_555
H82 C43 1_555 1_555
C44 C34 1_555 1_555
H83 C44 1_555 1_555
H84 C44 1_555 1_555
H85 C44 1_555 1_555
C45 C37 1_555 1_555
H86 C45 1_555 1_555
H87 C45 1_555 1_555
H88 C45 1_555 1_555
C46 H89 1_555 1_555
H90 C46 1_555 1_555
C47 C25 1_555 1_555
H91 C47 1_555 1_555
H92 C47 1_555 1_555
C48 C20 1_555 1_555
H93 C48 1_555 1_555
H94 C48 1_555 1_555
C49 C29 1_555 1_555
H95 C49 1_555 1_555
H96 C49 1_555 1_555
C50 C24 1_555 1_555
H97 C50 1_555 1_555
H98 C50 1_555 1_555
H99 C50 1_555 1_555
C51 C38 1_555 1_555
H100 C51 1_555 1_555
H101 C51 1_555 1_555
H102 C51 1_555 1_555
C52 H103 1_555 1_555
H104 C52 1_555 1_555
H105 C52 1_555 1_555
C53 C48 1_555 1_555
H106 C53 1_555 1_555
H107 C53 1_555 1_555
H108 C53 1_555 1_555
C54 C49 1_555 1_555
H109 C54 1_555 1_555
H110 C54 1_555 1_555
C55 C46 1_555 1_555
H111 C55 1_555 1_555
H112 C55 1_555 1_555
H113 C55 1_555 1_555
C56 C28 1_555 1_555
H114 C56 1_555 1_555
H115 C56 1_555 1_555
C57 C56 1_555 1_555
H116 C57 1_555 1_555
H117 C57 1_555 1_555
C58 C57 1_555 1_555
H118 C58 1_555 1_555
H119 C58 1_555 1_555
H120 C58 1_555 1_555
Sn1B O4 1_555 1_555
Sn3B O7 1_555 1_555
Sn4A O6 1_555 1_555
O4C Sn1 1_555 1_555
O6A Sn4 1_555 1_555
O7C Sn3 1_555 1_555
C1 C6 1_555 1_555
C11 C15 1_555 1_555
C18 C19 1_555 1_555
C20 C23 1_555 1_555
C46 C47 1_555 1_555
C52 C54 1_555 1_555

#END
