
#######################################################################
#
#                 Cambridge Crystallographic Data Centre
#                                CCDC 
#
#######################################################################
#
# If this CIF has been generated from an entry in the Cambridge 
# Structural Database, then it will include bibliographic, chemical, 
# crystal, experimental, refinement or atomic coordinate data resulting 
# from the CCDC's data processing and validation procedures.
#
#######################################################################

data_FAMZAU
_symmetry_cell_setting           monoclinic
_symmetry_space_group_name_H-M   'P 21/c'
_symmetry_Int_Tables_number      14
_space_group_name_Hall           '-P 2ybc'
loop_
_symmetry_equiv_pos_site_id
_symmetry_equiv_pos_as_xyz
1 x,y,z
2 -x,1/2+y,1/2-z
3 -x,-y,-z
4 x,1/2-y,1/2+z
_cell_length_a                   19.560(5)
_cell_length_b                   9.562(4)
_cell_length_c                   11.521(4)
_cell_angle_alpha                90
_cell_angle_beta                 94.25(1)
_cell_angle_gamma                90
_cell_volume                     2148.88
loop_
_atom_site_label
_atom_site_type_symbol
_atom_site_fract_x
_atom_site_fract_y
_atom_site_fract_z
Cd1 Cd -0.2514(1) -0.2964(1) 0.0930(1)
S1 S -0.2844(1) -0.5029(3) -0.0719(2)
S2 S -0.2565(2) 0.0157(3) -0.2630(2)
N1 N -0.2313(4) -0.3691(9) -0.2623(7)
N2 N -0.2460(4) -0.1241(10) -0.0511(8)
N3 N -0.5361(4) -0.2328(9) -0.0572(8)
N4 N -0.4768(3) -0.2200(9) 0.0160(7)
N5 N -0.4037(4) -0.1611(8) 0.1646(7)
N6 N -0.3712(4) -0.2417(8) 0.0845(7)
N7 N 0.0262(4) -0.2290(10) -0.0291(8)
N8 N -0.0292(3) -0.2824(9) 0.0247(7)
N9 N -0.0899(4) -0.4020(9) 0.1457(8)
N10 N -0.1332(4) -0.3205(9) 0.0704(7)
C1 C -0.2553(4) -0.4216(11) -0.1828(8)
C2 C -0.2508(4) -0.0689(11) -0.1395(9)
C3 C -0.5832(5) -0.0825(12) 0.0894(10)
C4 C -0.5876(5) -0.1642(10) -0.0174(10)
C5 C -0.4676(5) -0.1479(10) 0.1204(9)
C6 C -0.5245(5) -0.0731(10) 0.1578(9)
C7 C -0.4150(4) -0.2765(11) -0.0057(9)
C8 C -0.6550(5) -0.1725(12) -0.0938(11)
C9 C -0.5176(6) 0.0146(12) 0.2677(10)
C10 C 0.0923(5) -0.3814(11) 0.1084(10)
C11 C 0.0845(4) -0.2822(12) 0.0139(10)
C12 C -0.0275(5) -0.3774(10) 0.1157(9)
C13 C 0.0375(5) -0.4316(11) 0.1582(9)
C14 C -0.0959(4) -0.2471(11) -0.0017(9)
C15 C 0.1484(5) -0.2259(15) -0.0425(12)
C16 C 0.0401(6) -0.5413(13) 0.2541(10)
H1 H -0.6240 -0.0150 0.1020
H2 H -0.4070 -0.3330 -0.0760
H3 H -0.6750 -0.0720 -0.0810
H4 H -0.6880 -0.2540 -0.0640
H5 H -0.6400 -0.1900 -0.1840
H6 H -0.5340 -0.0410 0.3450
H7 H -0.5560 0.0820 0.2740
H8 H -0.4830 0.0210 0.2950
H9 H 0.0160 -0.6330 0.2480
H10 H 0.0950 -0.5460 0.2800
H11 H 0.0000 -0.5070 0.3170
H12 H 0.1370 -0.4060 0.1290
H13 H -0.1170 -0.1780 -0.0780
H14 H 0.1390 -0.1070 -0.0570
H15 H 0.1540 -0.2780 -0.1240
H16 H 0.1920 -0.2410 0.0150
N1C N -0.2313(4) -0.1309(9) 0.2377(7)
S2C S -0.2565(2) -0.5157(3) 0.2370(2)
Cd1C Cd -0.2514(1) -0.2036(1) -0.4070(1)
loop_
_geom_bond_atom_site_label_1
_geom_bond_atom_site_label_2
_geom_bond_site_symmetry_1
_geom_bond_site_symmetry_2
Cd1 S1 1_555 1_555
S1 C1 1_555 1_555
S2 C2 1_555 1_555
N1 C1 1_555 1_555
N2 Cd1 1_555 1_555
N3 N4 1_555 1_555
N4 C5 1_555 1_555
N5 N6 1_555 1_555
N6 Cd1 1_555 1_555
N7 N8 1_555 1_555
N8 C12 1_555 1_555
N9 N10 1_555 1_555
N10 Cd1 1_555 1_555
C2 N2 1_555 1_555
C3 C4 1_555 1_555
C4 N3 1_555 1_555
C5 N5 1_555 1_555
C6 C3 1_555 1_555
C7 N4 1_555 1_555
C8 C4 1_555 1_555
C9 C6 1_555 1_555
C10 C11 1_555 1_555
C11 N7 1_555 1_555
C12 N9 1_555 1_555
C13 C10 1_555 1_555
C14 N8 1_555 1_555
C15 C11 1_555 1_555
C16 C13 1_555 1_555
H1 C3 1_555 1_555
H2 C7 1_555 1_555
H3 C8 1_555 1_555
H4 C8 1_555 1_555
H5 C8 1_555 1_555
H6 C9 1_555 1_555
H7 C9 1_555 1_555
H8 C9 1_555 1_555
H9 C16 1_555 1_555
H10 C16 1_555 1_555
H11 C16 1_555 1_555
H12 C10 1_555 1_555
H13 C14 1_555 1_555
H14 C15 1_555 1_555
H15 C15 1_555 1_555
H16 C15 1_555 1_555
N1C Cd1 1_555 1_555
S2C Cd1 1_555 1_555
Cd1C S2 1_555 1_555
N1 Cd1C 1_555 1_555
N6 C7 1_555 1_555
N10 C14 1_555 1_555
C5 C6 1_555 1_555
C12 C13 1_555 1_555

#END
