
#######################################################################
#
#                 Cambridge Crystallographic Data Centre
#                                CCDC 
#
#######################################################################
#
# If this CIF has been generated from an entry in the Cambridge 
# Structural Database, then it will include bibliographic, chemical, 
# crystal, experimental, refinement or atomic coordinate data resulting 
# from the CCDC's data processing and validation procedures.
#
#######################################################################

data_FANLEN
_symmetry_cell_setting           triclinic
_symmetry_space_group_name_H-M   'P -1'
_symmetry_Int_Tables_number      2
_space_group_name_Hall           '-P 1'
loop_
_symmetry_equiv_pos_site_id
_symmetry_equiv_pos_as_xyz
1 x,y,z
2 -x,-y,-z
_cell_length_a                   8.729(3)
_cell_length_b                   11.682(4)
_cell_length_c                   15.591(5)
_cell_angle_alpha                98.598(4)
_cell_angle_beta                 90.922(2)
_cell_angle_gamma                110.883(4)
_cell_volume                     1464.57
loop_
_atom_site_label
_atom_site_type_symbol
_atom_site_fract_x
_atom_site_fract_y
_atom_site_fract_z
Pb1 Pb 0.26616(3) -0.01380(3) 0.443179(16)
S1 S 0.5312(2) 0.13918(16) -0.05601(11)
S2 S 0.6882(2) 0.54374(15) 0.21001(10)
S3 S 0.22422(19) 0.09461(16) 0.24295(10)
S4 S 0.1870(2) 0.67451(18) 0.33863(11)
O1 O 0.6998(7) 0.4030(5) 0.0287(3)
H1 H 0.761(11) 0.471(9) 0.052(5)
O2 O 0.6855(6) 0.7230(5) 0.0833(3)
H2 H 0.758(9) 0.679(7) 0.091(5)
O3 O 0.3225(6) 0.0486(6) 0.2944(4)
O4 O 0.1033(6) -0.0028(5) 0.1831(3)
O5 O 0.1542(7) 0.1722(5) 0.2975(4)
O6 O 0.1034(12) 0.5534(6) 0.3502(5)
O7 O 0.0712(10) 0.7281(11) 0.3103(6)
O8 O 0.2843(8) 0.7568(7) 0.4107(4)
O9 O 0.5634(5) 0.0374(5) 0.4325(3)
O10 O 1.0846(5) 0.3675(4) -0.0635(3)
O11 O 0.3886(10) 0.2036(8) 0.5257(5)
O12 O 0.0126(12) -0.1051(16) 0.5544(7)
N1 N 0.6463(6) 0.0849(5) 0.3652(3)
N2 N 1.0334(6) 0.3244(5) 0.0098(3)
C1 C 0.5890(7) 0.3384(6) 0.0790(4)
C2 C 0.4976(8) 0.2147(6) 0.0455(4)
C3 C 0.3821(7) 0.1417(6) 0.0947(4)
H3 H 0.3186 0.0600 0.0712
C4 C 0.3613(7) 0.1904(6) 0.1785(4)
C5 C 0.4528(7) 0.3134(6) 0.2130(4)
H4 H 0.4386 0.3458 0.2693
C6 C 0.5660(8) 0.3889(6) 0.1636(4)
C7 C 0.5479(7) 0.6216(5) 0.2009(4)
C8 C 0.4290(8) 0.6133(6) 0.2597(4)
H5 H 0.4212 0.5652 0.3030
C9 C 0.3216(8) 0.6754(6) 0.2550(4)
C10 C 0.3304(8) 0.7465(6) 0.1897(4)
H6 H 0.2553 0.7856 0.1848
C11 C 0.5475(8) 0.2417(6) -0.1317(4)
C12 C 0.5646(8) 0.6998(6) 0.1385(4)
C13 C 0.7025(9) 0.2077(7) 0.3669(4)
H7 H 0.6840 0.2600 0.4133
C14 C 0.7881(9) 0.2561(7) 0.2990(4)
H8 H 0.8284 0.3416 0.3002
C15 C 0.8146(7) 0.1794(6) 0.2292(4)
C16 C 0.9008(8) 0.2300(6) 0.1549(4)
C17 C 0.9883(8) 0.3558(6) 0.1585(4)
H9 H 1.0028 0.4102 0.2106
C18 C 1.0542(9) 0.4004(6) 0.0849(4)
H10 H 1.1139 0.4848 0.0881
C19 C 0.9585(9) 0.2023(7) 0.0049(4)
H11 H 0.9517 0.1495 -0.0471
C20 C 0.8914(9) 0.1540(7) 0.0767(4)
H12 H 0.8387 0.0686 0.0726
C21 C 0.7539(9) 0.0543(6) 0.2307(4)
H13 H 0.7705 0.0000 0.1850
C22 C 0.6679(9) 0.0080(7) 0.2994(4)
H14 H 0.6253 -0.0772 0.2993
Pb1A Pb 0.73384(3) 1.01380(3) -0.443179(16)
Pb1_2 Pb 0.26616(3) 0.98620(3) 0.443179(16)
Pb1A_2 Pb 0.73384(3) 0.01380(3) 0.556821(16)
Pb1A_3 Pb 0.73384(3) 0.01380(3) -0.443179(16)
S1A S 0.4688(2) 0.86082(16) 0.05601(11)
S2A S 0.3118(2) 0.45626(15) -0.21001(10)
S3A S 0.77578(19) 0.90539(16) -0.24295(10)
S4A S 0.8130(2) 0.32549(18) -0.33863(11)
O1A O 0.3002(7) 0.5970(5) -0.0287(3)
H1A H 0.239(11) 0.529(9) -0.052(5)
O2A O 0.3145(6) 0.2770(5) -0.0833(3)
H2A H 0.242(9) 0.321(7) -0.091(5)
O3A O 0.6775(6) 0.9514(6) -0.2944(4)
O4A O 0.8967(6) 1.0028(5) -0.1831(3)
O5A O 0.8458(7) 0.8278(5) -0.2975(4)
O6A O 0.8966(12) 0.4466(6) -0.3502(5)
O7A O 0.9288(10) 0.2719(11) -0.3103(6)
O8A O 0.7157(8) 0.2432(7) -0.4107(4)
O8_2 O 0.2843(8) -0.2432(7) 0.4107(4)
O8A_2 O 0.7157(8) 1.2432(7) -0.4107(4)
O9A O 0.4366(5) -0.0374(5) 0.5675(3)
O9A_2 O 0.4366(5) 0.9626(5) -0.4325(3)
O9_2 O 0.5634(5) 1.0374(5) -0.5675(3)
O10A O -0.0846(5) -0.3675(4) 1.0635(3)
O11A O 0.6114(10) 0.7964(8) -0.5257(5)
O12A O 0.9874(12) 1.1051(16) -0.5544(7)
N1A N 0.3537(6) -0.0849(5) 0.6348(3)
N2A N -0.0334(6) -0.3244(5) 0.9902(3)
C1A C 0.4110(7) 0.6616(6) -0.0790(4)
C2A C 0.5024(8) 0.7853(6) -0.0455(4)
C3A C 0.6179(7) 0.8583(6) -0.0947(4)
H3A H 0.6814 0.9400 -0.0712
C4A C 0.6387(7) 0.8096(6) -0.1785(4)
C5A C 0.5472(7) 0.6866(6) -0.2130(4)
H4A H 0.5614 0.6542 -0.2693
C6A C 0.4340(8) 0.6111(6) -0.1636(4)
C7A C 0.4521(7) 0.3784(5) -0.2009(4)
C8A C 0.5710(8) 0.3867(6) -0.2597(4)
H5A H 0.5788 0.4348 -0.3030
C9A C 0.6784(8) 0.3246(6) -0.2550(4)
C10A C 0.6696(8) 0.2535(6) -0.1897(4)
H6A H 0.7447 0.2144 -0.1848
C11A C 0.4525(8) 0.7583(6) 0.1317(4)
C12A C 0.4354(8) 0.3002(6) -0.1385(4)
C13A C 0.2975(9) -0.2077(7) 0.6331(4)
H7A H 0.3160 -0.2600 0.5867
C14A C 0.2119(9) -0.2561(7) 0.7010(4)
H8A H 0.1716 -0.3416 0.6998
C15A C 0.1854(7) -0.1794(6) 0.7708(4)
C16A C 0.0992(8) -0.2300(6) 0.8451(4)
C17A C 0.0117(8) -0.3558(6) 0.8415(4)
H9A H -0.0028 -0.4102 0.7894
C18A C -0.0542(9) -0.4004(6) 0.9151(4)
H10A H -0.1139 -0.4848 0.9119
C19A C 0.0415(9) -0.2023(7) 0.9951(4)
H11A H 0.0483 -0.1495 1.0471
C20A C 0.1086(9) -0.1540(7) 0.9233(4)
H12A H 0.1613 -0.0686 0.9274
C21A C 0.2461(9) -0.0543(6) 0.7693(4)
H13A H 0.2295 0.0000 0.8150
C22A C 0.3321(9) -0.0080(7) 0.7006(4)
H14A H 0.3747 0.0772 0.7007
O13 O -0.0985(17) -0.1379(12) 0.3085(12)
loop_
_geom_bond_atom_site_label_1
_geom_bond_atom_site_label_2
_geom_bond_site_symmetry_1
_geom_bond_site_symmetry_2
Pb1 O3 1_555 1_555
S1 C2 1_555 1_555
S2 C6 1_555 1_555
S3 O3 1_555 1_555
S4 O6 1_555 1_555
O1 H1 1_555 1_555
O2 H2 1_555 1_555
O4 S3 1_555 1_555
O5 S3 1_555 1_555
O7 S4 1_555 1_555
O8 S4 1_555 1_555
O9 Pb1 1_555 1_555
O10 N2 1_555 1_555
O11 Pb1 1_555 1_555
O12 Pb1 1_555 1_555
N1 O9 1_555 1_555
N2 C18 1_555 1_555
C1 O1 1_555 1_555
C2 C1 1_555 1_555
C3 C2 1_555 1_555
H3 C3 1_555 1_555
C4 S3 1_555 1_555
C5 C4 1_555 1_555
H4 C5 1_555 1_555
C6 C1 1_555 1_555
C7 S2 1_555 1_555
C8 C7 1_555 1_555
H5 C8 1_555 1_555
C9 S4 1_555 1_555
C10 C9 1_555 1_555
H6 C10 1_555 1_555
C11 S1 1_555 1_555
C12 O2 1_555 1_555
C13 N1 1_555 1_555
H7 C13 1_555 1_555
C14 C13 1_555 1_555
H8 C14 1_555 1_555
C15 C14 1_555 1_555
C16 C15 1_555 1_555
C17 C16 1_555 1_555
H9 C17 1_555 1_555
C18 C17 1_555 1_555
H10 C18 1_555 1_555
C19 N2 1_555 1_555
H11 C19 1_555 1_555
C20 C16 1_555 1_555
H12 C20 1_555 1_555
C21 C15 1_555 1_555
H13 C21 1_555 1_555
C22 N1 1_555 1_555
H14 C22 1_555 1_555
Pb1A O3A 1_555 1_555
Pb1_2 O8 1_555 1_555
Pb1A_2 O9 1_555 1_555
Pb1A_3 O8A 1_555 1_555
S1A C2A 1_555 1_555
S2A C6A 1_555 1_555
S3A O3A 1_555 1_555
S4A O6A 1_555 1_555
O1A H1A 1_555 1_555
O2A H2A 1_555 1_555
O4A S3A 1_555 1_555
O5A S3A 1_555 1_555
O7A S4A 1_555 1_555
O8A S4A 1_555 1_555
O8_2 Pb1 1_555 1_555
O8A_2 Pb1A 1_555 1_555
O9A Pb1 1_555 1_555
O9A_2 Pb1A 1_555 1_555
O9_2 Pb1A 1_555 1_555
O10A N2A 1_555 1_555
O11A Pb1A 1_555 1_555
O12A Pb1A 1_555 1_555
N1A O9A 1_555 1_555
N2A C18A 1_555 1_555
C1A O1A 1_555 1_555
C2A C1A 1_555 1_555
C3A C2A 1_555 1_555
H3A C3A 1_555 1_555
C4A S3A 1_555 1_555
C5A C4A 1_555 1_555
H4A C5A 1_555 1_555
C6A C1A 1_555 1_555
C7A S2A 1_555 1_555
C8A C7A 1_555 1_555
H5A C8A 1_555 1_555
C9A S4A 1_555 1_555
C10A C11 1_555 1_555
H6A C10A 1_555 1_555
C11A C10 1_555 1_555
C12A C11 1_555 1_555
C13A N1A 1_555 1_555
H7A C13A 1_555 1_555
C14A C13A 1_555 1_555
H8A C14A 1_555 1_555
C15A C14A 1_555 1_555
C16A C15A 1_555 1_555
C17A C16A 1_555 1_555
H9A C17A 1_555 1_555
C18A C17A 1_555 1_555
H10A C18A 1_555 1_555
C19A N2A 1_555 1_555
H11A C19A 1_555 1_555
C20A C16A 1_555 1_555
H12A C20A 1_555 1_555
C21A C15A 1_555 1_555
H13A C21A 1_555 1_555
C22A N1A 1_555 1_555
H14A C22A 1_555 1_555
C3 C4 1_555 1_555
C5 C6 1_555 1_555
C7 C12 1_555 1_555
C8 C9 1_555 1_555
C12 C11A 1_555 1_555
C19 C20 1_555 1_555
C21 C22 1_555 1_555
Pb1A_2 O9A 1_555 1_555
S1A C11A 1_555 1_555
O2A C12A 1_555 1_555
C3A C4A 1_555 1_555
C5A C6A 1_555 1_555
C7A C12A 1_555 1_555
C8A C9A 1_555 1_555
C9A C10A 1_555 1_555
C19A C20A 1_555 1_555
C21A C22A 1_555 1_555

#END
