
#######################################################################
#
#                 Cambridge Crystallographic Data Centre
#                                CCDC 
#
#######################################################################
#
# If this CIF has been generated from an entry in the Cambridge 
# Structural Database, then it will include bibliographic, chemical, 
# crystal, experimental, refinement or atomic coordinate data resulting 
# from the CCDC's data processing and validation procedures.
#
#######################################################################

data_FAPCOO
_symmetry_cell_setting           triclinic
_symmetry_space_group_name_H-M   'P -1'
_symmetry_Int_Tables_number      2
_space_group_name_Hall           '-P 1'
loop_
_symmetry_equiv_pos_site_id
_symmetry_equiv_pos_as_xyz
1 x,y,z
2 -x,-y,-z
_cell_length_a                   11.323(4)
_cell_length_b                   18.383(10)
_cell_length_c                   9.284(5)
_cell_angle_alpha                104.62(4)
_cell_angle_beta                 114.26(3)
_cell_angle_gamma                77.71(4)
_cell_volume                     1691.67
loop_
_atom_site_label
_atom_site_type_symbol
_atom_site_fract_x
_atom_site_fract_y
_atom_site_fract_z
Cd1 Cd 0.00000 0.00000 0.00000
Cd2 Cd 0.50000 0.50000 0.50000
Cd3 Cd 0.25007(3) 0.24998(2) 0.03164(4)
S1 S 0.2023(1) -0.0267(1) -0.1002(2)
S2 S 0.0605(2) 0.2730(1) 0.1529(2)
S3 S 0.4397(2) 0.2269(1) 0.3191(2)
S4 S 0.2979(1) 0.5267(1) 0.2240(1)
N1 N 0.2669(4) 0.1195(2) -0.0225(5)
N2 N -0.0157(4) 0.1291(2) 0.0341(5)
N3 N 0.5162(4) 0.3707(2) 0.4207(4)
N4 N 0.2342(4) 0.3803(2) 0.0879(4)
C1 C 0.2391(4) 0.0598(2) -0.0568(5)
C2 C 0.0165(4) 0.1881(2) 0.0823(5)
C3 C 0.4823(4) 0.3118(2) 0.3775(5)
C4 C 0.2616(4) 0.4398(2) 0.1446(5)
N5 N 0.4088(4) 0.2510(4) -0.0695(4)
C5 C 0.5076(5) 0.1952(3) -0.0596(6)
C6 C 0.6039(4) 0.1946(3) -0.1144(6)
C7 C 0.6022(4) 0.2545(3) -0.1806(5)
C8 C 0.5009(5) 0.3114(3) -0.1887(7)
C9 C 0.4072(5) 0.3082(3) -0.1345(7)
C10 C 0.7087(5) 0.2582(3) -0.2354(7)
N6 N 0.0904(4) 0.2493(2) -0.2295(4)
C11 C -0.0074(5) 0.3047(3) -0.2624(6)
C12 C -0.1038(5) 0.3052(3) -0.4133(5)
C13 C -0.1026(4) 0.2455(3) -0.5366(5)
C14 C 0.0000(5) 0.1879(3) -0.5011(6)
C15 C 0.0932(5) 0.1916(3) -0.3503(6)
C16 C -0.2077(5) 0.2420(4) -0.7004(6)
N7 N 0.3497(4) 0.4940(2) 0.6124(4)
C17 C 0.2638(5) 0.4448(3) 0.5476(6)
C18 C 0.1659(5) 0.4470(3) 0.6022(6)
C19 C 0.1555(4) 0.5024(3) 0.7310(5)
C20 C 0.2481(6) 0.5518(3) 0.8001(6)
C21 C 0.3426(5) 0.5454(3) 0.7391(6)
C22 C 0.0502(5) 0.5098(4) 0.7936(7)
N8 N 0.1502(4) 0.0061(2) 0.2691(4)
C23 C 0.2364(5) 0.0555(3) 0.3396(6)
C24 C 0.3341(5) 0.0527(3) 0.4893(6)
C25 C 0.3448(4) -0.0028(3) 0.5741(5)
C26 C 0.2522(6) -0.0517(3) 0.5007(6)
C27 C 0.1582(5) -0.0458(3) 0.3505(6)
C28 C 0.4508(5) -0.0098(4) 0.7344(6)
H1 H 0.512 0.148 -0.006
H2 H 0.681 0.148 -0.106
H3 H 0.495 0.360 -0.239
H4 H 0.328 0.354 -0.145
H5 H -0.012 0.352 -0.167
H6 H -0.180 0.352 -0.434
H7 H 0.006 0.140 -0.594
H8 H 0.173 0.146 -0.327
H9 H 0.270 0.401 0.448
H10 H 0.098 0.406 0.545
H11 H 0.246 0.596 0.902
H12 H 0.415 0.584 0.797
H13 H 0.230 0.100 0.278
H14 H 0.403 0.094 0.541
H15 H 0.253 -0.095 0.561
H16 H 0.087 -0.086 0.296
S1A S -0.2023(1) 0.0267(1) 0.1002(2)
N1A N -0.2669(4) -0.1195(2) 0.0225(5)
C1A C -0.2391(4) -0.0598(2) 0.0568(5)
S2A S -0.0605(2) -0.2730(1) -0.1529(2)
N2A N 0.0157(4) -0.1291(2) -0.0341(5)
C2A C -0.0165(4) -0.1881(2) -0.0823(5)
N8A N -0.1502(4) -0.0061(2) -0.2691(4)
C23A C -0.2364(5) -0.0555(3) -0.3396(6)
C24A C -0.3341(5) -0.0527(3) -0.4893(6)
C25A C -0.3448(4) 0.0028(3) -0.5741(5)
C26A C -0.2522(6) 0.0517(3) -0.5007(6)
C27A C -0.1582(5) 0.0458(3) -0.3505(6)
C28A C -0.4508(5) 0.0098(4) -0.7344(6)
H13A H -0.230 -0.100 -0.278
H14A H -0.403 -0.094 -0.541
H15A H -0.253 0.095 -0.561
H16A H -0.087 0.086 -0.296
Cd3A Cd -0.25007(3) -0.24998(2) -0.03164(4)
S3A S -0.4397(2) -0.2269(1) -0.3191(2)
N3A N -0.5162(4) -0.3707(2) -0.4207(4)
C3A C -0.4823(4) -0.3118(2) -0.3775(5)
S4A S -0.2979(1) -0.5267(1) -0.2240(1)
N4A N -0.2342(4) -0.3803(2) -0.0879(4)
C4A C -0.2616(4) -0.4398(2) -0.1446(5)
N5A N -0.4088(4) -0.2510(4) 0.0695(4)
C5A C -0.5076(5) -0.1952(3) 0.0596(6)
C6A C -0.6039(4) -0.1946(3) 0.1144(6)
C7A C -0.6022(4) -0.2545(3) 0.1806(5)
C8A C -0.5009(5) -0.3114(3) 0.1887(7)
C9A C -0.4072(5) -0.3082(3) 0.1345(7)
C10A C -0.7087(5) -0.2582(3) 0.2354(7)
H1A H -0.512 -0.148 0.006
H2A H -0.681 -0.148 0.106
H3A H -0.495 -0.360 0.239
H4A H -0.328 -0.354 0.145
N6A N -0.0904(4) -0.2493(2) 0.2295(4)
C11A C 0.0074(5) -0.3047(3) 0.2624(6)
C12A C 0.1038(5) -0.3052(3) 0.4133(5)
C13A C 0.1026(4) -0.2455(3) 0.5366(5)
C14A C 0.0000(5) -0.1879(3) 0.5011(6)
C15A C -0.0932(5) -0.1916(3) 0.3503(6)
C16A C 0.2077(5) -0.2420(4) 0.7004(6)
H5A H 0.012 -0.352 0.167
H6A H 0.180 -0.352 0.434
H7A H -0.006 -0.140 0.594
H8A H -0.173 -0.146 0.327
N7A N 0.6503(4) 0.5060(2) 0.3876(4)
C17A C 0.7362(5) 0.5552(3) 0.4524(6)
C18A C 0.8341(5) 0.5530(3) 0.3978(6)
C19A C 0.8445(4) 0.4976(3) 0.2690(5)
C20A C 0.7519(6) 0.4482(3) 0.1999(6)
C21A C 0.6574(5) 0.4546(3) 0.2609(6)
C22A C 0.9498(5) 0.4902(4) 0.2064(7)
H9A H 0.730 0.599 0.552
H10A H 0.902 0.594 0.455
H11A H 0.754 0.404 0.098
H12A H 0.585 0.416 0.203
S4A_2 S 0.7021(1) 0.4733(1) 0.7760(1)
N3A_2 N 0.4838(4) 0.6293(2) 0.5793(4)
Cd2_2 Cd -0.50000 -0.50000 -0.50000
loop_
_geom_bond_atom_site_label_1
_geom_bond_atom_site_label_2
_geom_bond_site_symmetry_1
_geom_bond_site_symmetry_2
Cd1 S1 1_555 1_555
Cd2 S4 1_555 1_555
Cd3 S2 1_555 1_555
S1 C1 1_555 1_555
S2 C2 1_555 1_555
S3 Cd3 1_555 1_555
S4 C4 1_555 1_555
N1 Cd3 1_555 1_555
N2 Cd1 1_555 1_555
N3 Cd2 1_555 1_555
N4 Cd3 1_555 1_555
C1 N1 1_555 1_555
C2 N2 1_555 1_555
C3 S3 1_555 1_555
C4 N4 1_555 1_555
N5 Cd3 1_555 1_555
C5 N5 1_555 1_555
C6 C5 1_555 1_555
C7 C6 1_555 1_555
C8 C7 1_555 1_555
C9 N5 1_555 1_555
C10 C7 1_555 1_555
N6 Cd3 1_555 1_555
C11 N6 1_555 1_555
C12 C11 1_555 1_555
C13 C12 1_555 1_555
C14 C13 1_555 1_555
C15 N6 1_555 1_555
C16 C13 1_555 1_555
N7 Cd2 1_555 1_555
C17 N7 1_555 1_555
C18 C17 1_555 1_555
C19 C18 1_555 1_555
C20 C19 1_555 1_555
C21 N7 1_555 1_555
C22 C19 1_555 1_555
N8 Cd1 1_555 1_555
C23 N8 1_555 1_555
C24 C23 1_555 1_555
C25 C24 1_555 1_555
C26 C25 1_555 1_555
C27 N8 1_555 1_555
C28 C25 1_555 1_555
H1 C5 1_555 1_555
H2 C6 1_555 1_555
H3 C8 1_555 1_555
H4 C9 1_555 1_555
H5 C11 1_555 1_555
H6 C12 1_555 1_555
H7 C14 1_555 1_555
H8 C15 1_555 1_555
H9 C17 1_555 1_555
H10 C18 1_555 1_555
H11 C20 1_555 1_555
H12 C21 1_555 1_555
H13 C23 1_555 1_555
H14 C24 1_555 1_555
H15 C26 1_555 1_555
H16 C27 1_555 1_555
S1A Cd1 1_555 1_555
N1A C1A 1_555 1_555
C1A S1A 1_555 1_555
S2A C2A 1_555 1_555
N2A Cd1 1_555 1_555
C2A N2A 1_555 1_555
N8A Cd1 1_555 1_555
C23A N8A 1_555 1_555
C24A C23A 1_555 1_555
C25A C24A 1_555 1_555
C26A C25A 1_555 1_555
C27A N8A 1_555 1_555
C28A C25A 1_555 1_555
H13A C23A 1_555 1_555
H14A C24A 1_555 1_555
H15A C26A 1_555 1_555
H16A C27A 1_555 1_555
Cd3A N1A 1_555 1_555
S3A Cd3A 1_555 1_555
N3A C3A 1_555 1_555
C3A S3A 1_555 1_555
S4A C4A 1_555 1_555
N4A Cd3A 1_555 1_555
C4A N4A 1_555 1_555
N5A Cd3A 1_555 1_555
C5A N5A 1_555 1_555
C6A C5A 1_555 1_555
C7A C6A 1_555 1_555
C8A C7A 1_555 1_555
C9A N5A 1_555 1_555
C10A C7A 1_555 1_555
H1A C5A 1_555 1_555
H2A C6A 1_555 1_555
H3A C8A 1_555 1_555
H4A C9A 1_555 1_555
N6A Cd3A 1_555 1_555
C11A N6A 1_555 1_555
C12A C11A 1_555 1_555
C13A C12A 1_555 1_555
C14A C13A 1_555 1_555
C15A N6A 1_555 1_555
C16A C13A 1_555 1_555
H5A C11A 1_555 1_555
H6A C12A 1_555 1_555
H7A C14A 1_555 1_555
H8A C15A 1_555 1_555
N7A Cd2 1_555 1_555
C17A N7A 1_555 1_555
C18A C17A 1_555 1_555
C19A C18A 1_555 1_555
C20A C19A 1_555 1_555
C21A N7A 1_555 1_555
C22A C19A 1_555 1_555
H9A C17A 1_555 1_555
H10A C18A 1_555 1_555
H11A C20A 1_555 1_555
H12A C21A 1_555 1_555
S4A_2 Cd2 1_555 1_555
N3A_2 Cd2 1_555 1_555
Cd2_2 N3A 1_555 1_555
N3 C3 1_555 1_555
C8 C9 1_555 1_555
C14 C15 1_555 1_555
C20 C21 1_555 1_555
C26 C27 1_555 1_555
S2A Cd3A 1_555 1_555
C26A C27A 1_555 1_555
S4A Cd2_2 1_555 1_555
C8A C9A 1_555 1_555
C14A C15A 1_555 1_555
C20A C21A 1_555 1_555

#END
