
#######################################################################
#
#                 Cambridge Crystallographic Data Centre
#                                CCDC 
#
#######################################################################
#
# If this CIF has been generated from an entry in the Cambridge 
# Structural Database, then it will include bibliographic, chemical, 
# crystal, experimental, refinement or atomic coordinate data resulting 
# from the CCDC's data processing and validation procedures.
#
#######################################################################

data_FAPFIN
_symmetry_cell_setting           orthorhombic
_symmetry_space_group_name_H-M   'P 21 21 2'
_symmetry_Int_Tables_number      18
_space_group_name_Hall           'P 2 2ab'
loop_
_symmetry_equiv_pos_site_id
_symmetry_equiv_pos_as_xyz
1 x,y,z
2 -x,-y,z
3 1/2-x,1/2+y,-z
4 1/2+x,1/2-y,-z
_cell_length_a                   11.2398(6)
_cell_length_b                   14.8326(7)
_cell_length_c                   7.3449(4)
_cell_angle_alpha                90
_cell_angle_beta                 90
_cell_angle_gamma                90
_cell_volume                     1224.51
loop_
_atom_site_label
_atom_site_type_symbol
_atom_site_fract_x
_atom_site_fract_y
_atom_site_fract_z
Cd1 Cd 0.54982(4) 0.28012(3) 0.45093(7)
S1 S 0.70539(17) 0.36597(15) 0.2262(3)
N1 N 0.9110(4) 0.2845(5) 0.3631(8)
C1 C 0.8268(6) 0.3186(4) 0.3075(9)
S2 S 0.39756(17) 0.31590(17) 0.1806(3)
N2 N 0.1895(5) 0.2442(4) 0.3220(9)
C2 C 0.2759(6) 0.2736(6) 0.2655(8)
N3 N 0.5118(5) 0.4207(4) 0.6035(7)
C3 C 0.5000 0.5000 0.5205(13)
H1 H 0.5000 0.5000 0.3939
C4 C 0.5097(7) 0.4218(5) 0.7828(10)
H2 H 0.5149 0.3678 0.8464
C5 C 0.5000 0.5000 0.8759(16)
H3 H 0.5000 0.5000 1.0026
N4 N 0.6093(5) 0.1415(4) 0.3227(10)
N5 N 0.6469(11) 0.0519(7) 0.0589(18)
C6 C 0.6170(9) 0.1299(7) 0.1436(15)
H4 H 0.6004 0.1794 0.0702
C7 C 0.6685(12) -0.0173(8) 0.178(3)
H5 H 0.6867 -0.0736 0.1301
C8 C 0.6654(11) -0.0096(6) 0.3555(19)
H6 H 0.6844 -0.0576 0.4317
C9 C 0.6337(8) 0.0699(6) 0.4211(15)
H7 H 0.6284 0.0756 0.5469
Cd1C Cd 0.04982(4) 0.21988(3) 0.54907(7)
Cd1C_2 Cd 1.04982(4) 0.21988(3) 0.54907(7)
Cd1A Cd 0.45018(4) 0.71988(3) 0.45093(7)
S1C S 0.20539(17) 0.13403(15) 0.7738(3)
N1C N 0.4110(4) 0.2155(5) 0.6369(8)
N1_2 N -0.0890(4) 0.2845(5) 0.3631(8)
C1C C 0.3268(6) 0.1814(4) 0.6925(9)
S2C S 0.89756(17) 0.18410(17) 0.8194(3)
S2C_2 S -0.10244(17) 0.18410(17) 0.8194(3)
N2C N 0.6895(5) 0.2558(4) 0.6780(9)
C2C C 0.7759(6) 0.2264(6) 0.7345(8)
N3A N 0.4882(5) 0.5793(4) 0.6035(7)
N3C N 0.0118(5) 0.0793(4) 0.3965(7)
C4A C 0.4903(7) 0.5782(5) 0.7828(10)
H2A H 0.4851 0.6322 0.8464
N4C N 0.1093(5) 0.3585(4) 0.6773(10)
N5C N 0.1469(11) 0.4481(7) 0.9411(18)
C6C C 0.1170(9) 0.3701(7) 0.8564(15)
H4C H 0.1004 0.3206 0.9298
C7C C 0.1685(12) 0.5173(8) 0.822(3)
H5C H 0.1867 0.5736 0.8699
C8C C 0.1654(11) 0.5096(6) 0.6445(19)
H6C H 0.1844 0.5576 0.5683
C9C C 0.1337(8) 0.4301(6) 0.5789(15)
H7C H 0.1284 0.4244 0.4531
loop_
_geom_bond_atom_site_label_1
_geom_bond_atom_site_label_2
_geom_bond_site_symmetry_1
_geom_bond_site_symmetry_2
Cd1 S1 1_555 1_555
S1 C1 1_555 1_555
N1 C1 1_555 1_555
S2 Cd1 1_555 1_555
N2 C2 1_555 1_555
C2 S2 1_555 1_555
N3 Cd1 1_555 1_555
C3 N3 1_555 1_555
H1 C3 1_555 1_555
C4 N3 1_555 1_555
H2 C4 1_555 1_555
C5 C4 1_555 1_555
H3 C5 1_555 1_555
N4 Cd1 1_555 1_555
N5 C6 1_555 1_555
C6 N4 1_555 1_555
H4 C6 1_555 1_555
C7 N5 1_555 1_555
H5 C7 1_555 1_555
C8 C7 1_555 1_555
H6 C8 1_555 1_555
C9 N4 1_555 1_555
H7 C9 1_555 1_555
Cd1C N2 1_555 1_555
Cd1C_2 N1 1_555 1_555
Cd1A N3A 1_555 1_555
S1C Cd1C 1_555 1_555
N1C Cd1 1_555 1_555
N1_2 Cd1C 1_555 1_555
C1C S1C 1_555 1_555
S2C Cd1C_2 1_555 1_555
S2C_2 Cd1C 1_555 1_555
N2C Cd1 1_555 1_555
C2C S2C 1_555 1_555
N3A C3 1_555 1_555
N3C Cd1C 1_555 1_555
C4A C5 1_555 1_555
H2A C4A 1_555 1_555
N4C Cd1C 1_555 1_555
N5C C6C 1_555 1_555
C6C N4C 1_555 1_555
H4C C6C 1_555 1_555
C7C N5C 1_555 1_555
H5C C7C 1_555 1_555
C8C C7C 1_555 1_555
H6C C8C 1_555 1_555
C9C N4C 1_555 1_555
H7C C9C 1_555 1_555
C8 C9 1_555 1_555
N1C C1C 1_555 1_555
N2C C2C 1_555 1_555
N3A C4A 1_555 1_555
C8C C9C 1_555 1_555

#END
