
#######################################################################
#
#                 Cambridge Crystallographic Data Centre
#                                CCDC 
#
#######################################################################
#
# If this CIF has been generated from an entry in the Cambridge 
# Structural Database, then it will include bibliographic, chemical, 
# crystal, experimental, refinement or atomic coordinate data resulting 
# from the CCDC's data processing and validation procedures.
#
#######################################################################

data_FAPFOT
_symmetry_cell_setting           orthorhombic
_symmetry_space_group_name_H-M   'C m c a'
_symmetry_Int_Tables_number      64
_space_group_name_Hall           '-C 2ac 2'
loop_
_symmetry_equiv_pos_site_id
_symmetry_equiv_pos_as_xyz
1 x,y,z
2 -x,1/2-y,1/2+z
3 x,-y,-z
4 -x,1/2+y,1/2-z
5 1/2+x,1/2+y,z
6 1/2-x,-y,1/2+z
7 1/2+x,1/2-y,-z
8 1/2-x,y,1/2-z
9 -x,-y,-z
10 x,1/2+y,1/2-z
11 -x,y,z
12 x,1/2-y,1/2+z
13 1/2-x,1/2-y,-z
14 1/2+x,y,1/2-z
15 1/2-x,1/2+y,z
16 1/2+x,-y,1/2+z
_cell_length_a                   10.0015(6)
_cell_length_b                   15.6680(7)
_cell_length_c                   8.6696(5)
_cell_angle_alpha                90
_cell_angle_beta                 90
_cell_angle_gamma                90
_cell_volume                     1358.56
loop_
_atom_site_label
_atom_site_type_symbol
_atom_site_fract_x
_atom_site_fract_y
_atom_site_fract_z
Cd1 Cd 0.0000 0.5000 0.0000
N1 N 0.0000 0.3912(4) 0.1647(6)
C1 C 0.0000 0.3785(4) 0.2958(7)
S1 S 0.0000 0.35891(15) 0.47668(18)
N2 N 0.1684(3) 0.5736(2) 0.1506(4)
C2 C 0.1729(4) 0.6591(3) 0.1481(5)
H1 H 0.1224 0.6885 0.0753
C3 C 0.2500 0.7044(4) 0.2500
H2 H 0.2500 0.7637 0.2500
C4 C 0.2500 0.5352(4) 0.2500
H3 H 0.2500 0.4758 0.2500
Cd1E Cd 0.5000 0.5000 0.5000
Cd1E_2 Cd 0.5000 0.5000 -0.5000
N1B N 0.0000 0.6088(4) -0.1647(6)
C1B C 0.0000 0.6215(4) -0.2958(7)
S1B S 0.0000 0.64109(15) -0.47668(18)
N2G N 0.3316(3) 0.5736(2) 0.3494(4)
N2B N 0.1684(3) 0.4264(2) -0.1506(4)
N2E N 0.3316(3) 0.4264(2) -0.3494(4)
N2H N -0.1684(3) 0.4264(2) -0.1506(4)
N2J N -0.1684(3) 0.5736(2) 0.1506(4)
C2G C 0.3271(4) 0.6591(3) 0.3519(5)
C2B C 0.1729(4) 0.3409(3) -0.1481(5)
C2E C 0.3271(4) 0.3409(3) -0.3519(5)
H1G H 0.3776 0.6885 0.4247
H1B H 0.1224 0.3115 -0.0753
H1E H 0.3776 0.3115 -0.4247
C3B C 0.2500 0.2956(4) -0.2500
H2B H 0.2500 0.2363 -0.2500
C4B C 0.2500 0.4648(4) -0.2500
H3B H 0.2500 0.5242 -0.2500
loop_
_geom_bond_atom_site_label_1
_geom_bond_atom_site_label_2
_geom_bond_site_symmetry_1
_geom_bond_site_symmetry_2
Cd1 N1 1_555 1_555
N1 C1 1_555 1_555
C1 S1 1_555 1_555
N2 Cd1 1_555 1_555
C2 N2 1_555 1_555
H1 C2 1_555 1_555
C3 C2 1_555 1_555
H2 C3 1_555 1_555
C4 N2 1_555 1_555
H3 C4 1_555 1_555
Cd1E N2G 1_555 1_555
Cd1E_2 N2E 1_555 1_555
N1B Cd1 1_555 1_555
C1B N1B 1_555 1_555
S1B C1B 1_555 1_555
N2G C4 1_555 1_555
N2B Cd1 1_555 1_555
N2E C2E 1_555 1_555
N2H Cd1 1_555 1_555
N2J Cd1 1_555 1_555
C2G C3 1_555 1_555
C2B N2B 1_555 1_555
C2E H1E 1_555 1_555
H1G C2G 1_555 1_555
H1B C2B 1_555 1_555
C3B C2B 1_555 1_555
H2B C3B 1_555 1_555
C4B N2B 1_555 1_555
H3B C4B 1_555 1_555
N2G C2G 1_555 1_555
N2E C4B 1_555 1_555
C2E C3B 1_555 1_555

#END
