
#######################################################################
#
#                 Cambridge Crystallographic Data Centre
#                                CCDC 
#
#######################################################################
#
# If this CIF has been generated from an entry in the Cambridge 
# Structural Database, then it will include bibliographic, chemical, 
# crystal, experimental, refinement or atomic coordinate data resulting 
# from the CCDC's data processing and validation procedures.
#
#######################################################################

data_FAPPER
_symmetry_cell_setting           trigonal
_symmetry_space_group_name_H-M   'P 32 2 1'
_symmetry_Int_Tables_number      154
_space_group_name_Hall           'P 32 2"'
loop_
_symmetry_equiv_pos_site_id
_symmetry_equiv_pos_as_xyz
1 x,y,z
2 -y,x-y,2/3+z
3 -x+y,-x,1/3+z
4 y,x,-z
5 x-y,-y,1/3-z
6 -x,-x+y,2/3-z
_cell_length_a                   11.261(6)
_cell_length_b                   11.261(6)
_cell_length_c                   27.050(22)
_cell_angle_alpha                90
_cell_angle_beta                 90
_cell_angle_gamma                120
_cell_volume                     2970.65
loop_
_atom_site_label
_atom_site_type_symbol
_atom_site_fract_x
_atom_site_fract_y
_atom_site_fract_z
Zn1 Zn -0.07799(9) -0.07799 0.00000
O1 O -0.2619(5) -0.1058(5) -0.0102(2)
P1 P -0.3845(2) -0.1579(2) -0.04227(7)
O2 O -0.4440(9) -0.2978(6) -0.0613(2)
O3 O -0.4860(7) -0.1352(9) -0.0089(2)
C1 C -0.622(1) -0.179(2) -0.0214(8)
O4 O -0.3553(5) -0.0594(5) -0.0883(2)
C2 C -0.3100(7) 0.0820(7) -0.0819(2)
C3 C -0.1585(7) 0.1460(7) -0.2026(2)
C4 C -0.2960(8) 0.1280(8) -0.2191(2)
O5 O -0.2769(6) 0.2558(5) -0.2327(2)
C5 C -0.3836(7) 0.0752(8) -0.1724(2)
O6 O -0.4904(8) 0.1058(8) -0.1690(2)
C6 C -0.2764(6) 0.1491(7) -0.1316(2)
O7 O -0.1560(4) 0.1547(5) -0.1496(1)
N1 N -0.1355(5) 0.0320(5) -0.2158(2)
C7 C -0.0619(6) 0.0455(7) -0.2588(2)
O8 O -0.0247(5) 0.1455(4) -0.2862(1)
N2 N -0.0303(5) -0.0532(4) -0.2704(1)
C8 C -0.0775(6) -0.1684(6) -0.2423(2)
N3 N -0.0468(7) -0.2646(7) -0.2547(2)
C9 C -0.1583(8) -0.1824(7) -0.1989(2)
C10 C -0.1824(6) -0.0819(7) -0.1879(2)
H1 H -0.6268 -0.1432 -0.05640
H2 H -0.6732 -0.2825 -0.03050
H3 H -0.6932 -0.1725 -0.00530
H4 H -0.2285 0.1246 -0.06090
H5 H -0.3783 0.09480 -0.06520
H6 H -0.08400 0.2311 -0.2174
H7 H -0.3359 0.06380 -0.2461
H8 H -0.4205 -0.02490 -0.1694
H9 H -0.2640 0.2431 -0.1291
H10 H -0.00100 -0.22410 -0.27930
H11 H -0.08620 -0.31890 -0.23020
H12 H -0.1944 -0.2634 -0.17820
H13 H -0.2373 -0.09390 -0.1590
O1C O -0.1058(5) -0.2619(5) 0.0102(2)
P1C P -0.1579(2) -0.3845(2) 0.04227(7)
O2C O -0.2978(6) -0.4440(9) 0.0613(2)
O3C O -0.1352(9) -0.4860(7) 0.0089(2)
C1C C -0.179(2) -0.622(1) 0.0214(8)
O4C O -0.0594(5) -0.3553(5) 0.0883(2)
C2C C 0.0820(7) -0.3100(7) 0.0819(2)
C3C C 0.1460(7) -0.1585(7) 0.2026(2)
C4C C 0.1280(8) -0.2960(8) 0.2191(2)
O5C O 0.2558(5) -0.2769(6) 0.2327(2)
C5C C 0.0752(8) -0.3836(7) 0.1724(2)
O6C O 0.1058(8) -0.4904(8) 0.1690(2)
C6C C 0.1491(7) -0.2764(6) 0.1316(2)
O7C O 0.1547(5) -0.1560(4) 0.1496(1)
N1C N 0.0320(5) -0.1355(5) 0.2158(2)
C7C C 0.0455(7) -0.0619(6) 0.2588(2)
O8C O 0.1455(4) -0.0247(5) 0.2862(1)
N2C N -0.0532(4) -0.0303(5) 0.2704(1)
C8C C -0.1684(6) -0.0775(6) 0.2423(2)
N3C N -0.2646(7) -0.0468(7) 0.2547(2)
C9C C -0.1824(7) -0.1583(8) 0.1989(2)
C10C C -0.0819(7) -0.1824(6) 0.1879(2)
H1C H -0.1432 -0.6268 0.05640
H2C H -0.2825 -0.6732 0.03050
H3C H -0.1725 -0.6932 0.00530
H4C H 0.1246 -0.2285 0.06090
H5C H 0.09480 -0.3783 0.06520
H6C H 0.2311 -0.08400 0.2174
H7C H 0.06380 -0.3359 0.2461
H8C H -0.02490 -0.4205 0.1694
H9C H 0.2431 -0.2640 0.1291
H10C H -0.22410 -0.00100 0.27930
H11C H -0.31890 -0.08620 0.23020
H12C H -0.2634 -0.1944 0.17820
H13C H -0.09390 -0.2373 0.1590
N2B N -0.0229(6) 0.0303(5) 0.0629(1)
N2E N 0.0303(5) -0.0229(6) -0.0629(1)
Zn1A Zn 0.07799 0.00000(9) -0.33333
Zn1B Zn 0.00000(9) 0.07799(9) 0.33333
O9 O -0.4833(9) 0.00000 -0.3333
O10 O -0.1371(6) -0.4908(6) -0.1834(2)
O11 O -0.6995(8) -0.158(1) -0.2270(3)
O12 O -0.5047(9) -0.2336(8) -0.2376(3)
O13 O -0.139(2) 0.286(2) -0.3318(5)
loop_
_geom_bond_atom_site_label_1
_geom_bond_atom_site_label_2
_geom_bond_site_symmetry_1
_geom_bond_site_symmetry_2
Zn1 O1 1_555 1_555
O1 P1 1_555 1_555
P1 O2 1_555 1_555
O3 P1 1_555 1_555
C1 O3 1_555 1_555
O4 P1 1_555 1_555
C2 O4 1_555 1_555
C3 C4 1_555 1_555
C4 O5 1_555 1_555
C5 C4 1_555 1_555
O6 C5 1_555 1_555
C6 C2 1_555 1_555
O7 C3 1_555 1_555
N1 C3 1_555 1_555
C7 N1 1_555 1_555
O8 C7 1_555 1_555
N2 C7 1_555 1_555
C8 N2 1_555 1_555
N3 C8 1_555 1_555
C9 C8 1_555 1_555
C10 N1 1_555 1_555
H1 C1 1_555 1_555
H2 C1 1_555 1_555
H3 C1 1_555 1_555
H4 C2 1_555 1_555
H5 C2 1_555 1_555
H6 C3 1_555 1_555
H7 C4 1_555 1_555
H8 C5 1_555 1_555
H9 C6 1_555 1_555
H10 N3 1_555 1_555
H11 N3 1_555 1_555
H12 C9 1_555 1_555
H13 C10 1_555 1_555
O1C Zn1 1_555 1_555
P1C O1C 1_555 1_555
O2C P1C 1_555 1_555
O3C P1C 1_555 1_555
C1C O3C 1_555 1_555
O4C P1C 1_555 1_555
C2C O4C 1_555 1_555
C3C C4C 1_555 1_555
C4C O5C 1_555 1_555
C5C C4C 1_555 1_555
O6C C5C 1_555 1_555
C6C C2C 1_555 1_555
O7C C3C 1_555 1_555
N1C C3C 1_555 1_555
C7C N1C 1_555 1_555
O8C C7C 1_555 1_555
N2C C7C 1_555 1_555
C8C N2C 1_555 1_555
N3C C8C 1_555 1_555
C9C C8C 1_555 1_555
C10C N1C 1_555 1_555
H1C C1C 1_555 1_555
H2C C1C 1_555 1_555
H3C C1C 1_555 1_555
H4C C2C 1_555 1_555
H5C C2C 1_555 1_555
H6C C3C 1_555 1_555
H7C C4C 1_555 1_555
H8C C5C 1_555 1_555
H9C C6C 1_555 1_555
H10C N3C 1_555 1_555
H11C N3C 1_555 1_555
H12C C9C 1_555 1_555
H13C C10C 1_555 1_555
N2B Zn1 1_555 1_555
N2E Zn1 1_555 1_555
Zn1A N2 1_555 1_555
Zn1B N2C 1_555 1_555
C5 C6 1_555 1_555
C6 O7 1_555 1_555
C9 C10 1_555 1_555
C5C C6C 1_555 1_555
C6C O7C 1_555 1_555
C9C C10C 1_555 1_555

#END
