
#######################################################################
#
#                 Cambridge Crystallographic Data Centre
#                                CCDC 
#
#######################################################################
#
# If this CIF has been generated from an entry in the Cambridge 
# Structural Database, then it will include bibliographic, chemical, 
# crystal, experimental, refinement or atomic coordinate data resulting 
# from the CCDC's data processing and validation procedures.
#
#######################################################################

data_FAPQUI
_symmetry_cell_setting           monoclinic
_symmetry_space_group_name_H-M   'P 21/n'
_symmetry_Int_Tables_number      14
_space_group_name_Hall           '-P 2yn'
loop_
_symmetry_equiv_pos_site_id
_symmetry_equiv_pos_as_xyz
1 x,y,z
2 1/2-x,1/2+y,1/2-z
3 -x,-y,-z
4 1/2+x,1/2-y,1/2+z
_cell_length_a                   9.2701(9)
_cell_length_b                   6.9534(7)
_cell_length_c                   18.531(2)
_cell_angle_alpha                90
_cell_angle_beta                 103.521(9)
_cell_angle_gamma                90
_cell_volume                     1161.38
loop_
_atom_site_label
_atom_site_type_symbol
_atom_site_fract_x
_atom_site_fract_y
_atom_site_fract_z
U1 U 0.45966(2) 0.15153(3) 0.19473(1)
Cr1 Cr 0.8852(1) 0.1663(2) 0.2427(1)
O1 O 0.4055(6) 0.1985(8) 0.2801(3)
O2 O 0.5058(6) 0.1937(9) 0.1085(3)
O3 O 0.7127(5) 0.1385(8) 0.2505(3)
O4 O 0.9686(6) 0.3294(7) 0.3041(3)
O5 O 0.2482(6) -0.030(1) 0.1311(4)
O6 O 0.2481(7) 0.367(1) 0.1486(3)
O7 O 0.9729(6) -0.0432(8) 0.2566(4)
O8 O 0.8851(8) 0.234(1) 0.1602(3)
O9 O -0.09565(6) -0.319(1) -0.003(4)
N1 N 0.0106(6) -0.1156(9) 0.0901(3)
N2 N 0.1936(7) -0.247(1) 0.0374(4)
C1 C 0.1601(7) -0.129(1) 0.0861(4)
C2 C -0.1074(8) -0.217(1) 0.0487(4)
C3 C -0.2483(9) -0.192(2) 0.0722(6)
C4 C 0.346(1) -0.281(2) 0.0319(5)
H1 H -0.010 0.031 0.123
H2 H 0.119 -0.310 0.006
H3 H -0.326 -0.267 0.041
H4 H -0.236 -0.233 0.123
H5 H -0.277 -0.058 0.069
H6 H 0.349 -0.371 -0.007
H7 H 0.391 -0.162 0.021
H8 H 0.404 -0.331 0.078
H9 H 0.258 0.488 0.179
O4A O 0.5314(6) -0.1706(7) 0.1959(3)
U1A U 1.04034(2) 0.65153(3) 0.30527(1)
O7A O 0.5271(6) 0.4568(8) 0.2434(4)
U1A_2 U 1.04034(2) -0.34847(3) 0.30527(1)
loop_
_geom_bond_atom_site_label_1
_geom_bond_atom_site_label_2
_geom_bond_site_symmetry_1
_geom_bond_site_symmetry_2
U1 O1 1_555 1_555
Cr1 O3 1_555 1_555
O2 U1 1_555 1_555
O3 U1 1_555 1_555
O4 Cr1 1_555 1_555
O5 U1 1_555 1_555
O6 U1 1_555 1_555
O7 Cr1 1_555 1_555
O8 Cr1 1_555 1_555
O9 C2 1_555 1_555
N1 C1 1_555 1_555
N2 C1 1_555 1_555
C1 O5 1_555 1_555
C2 N1 1_555 1_555
C3 C2 1_555 1_555
C4 N2 1_555 1_555
H1 N1 1_555 1_555
H2 N2 1_555 1_555
H3 C3 1_555 1_555
H4 C3 1_555 1_555
H5 C3 1_555 1_555
H6 C4 1_555 1_555
H7 C4 1_555 1_555
H8 C4 1_555 1_555
H9 O6 1_555 1_555
O4A U1 1_555 1_555
U1A O4 1_555 1_555
O7A U1 1_555 1_555
U1A_2 O7 1_555 1_555

#END
