
#######################################################################
#
#                 Cambridge Crystallographic Data Centre
#                                CCDC 
#
#######################################################################
#
# If this CIF has been generated from an entry in the Cambridge 
# Structural Database, then it will include bibliographic, chemical, 
# crystal, experimental, refinement or atomic coordinate data resulting 
# from the CCDC's data processing and validation procedures.
#
#######################################################################

data_FAPRIZ
_symmetry_cell_setting           orthorhombic
_symmetry_space_group_name_H-M   'P 21 21 21'
_symmetry_Int_Tables_number      19
_space_group_name_Hall           'P 2ac 2ab'
loop_
_symmetry_equiv_pos_site_id
_symmetry_equiv_pos_as_xyz
1 x,y,z
2 1/2-x,-y,1/2+z
3 -x,1/2+y,1/2-z
4 1/2+x,1/2-y,-z
_cell_length_a                   9.238(2)
_cell_length_b                   17.369(4)
_cell_length_c                   30.368(7)
_cell_angle_alpha                90
_cell_angle_beta                 90
_cell_angle_gamma                90
_cell_volume                     4872.69
loop_
_atom_site_label
_atom_site_type_symbol
_atom_site_fract_x
_atom_site_fract_y
_atom_site_fract_z
Bi1 Bi 0.03558(3) 0.230368(19) 0.832696(10)
Bi2 Bi 0.52612(3) 0.272620(19) 0.846307(11)
O1 O -0.0999(6) 0.1560(4) 0.7846(2)
O2 O 0.2308(7) 0.2941(3) 0.8803(2)
O3 O 0.3984(6) 0.3819(3) 0.8672(2)
O4 O -0.2711(6) 0.1728(4) 0.8338(2)
C1 C 0.1401(8) 0.1203(4) 0.8548(3)
C2 C 0.1169(10) 0.0501(4) 0.8335(3)
H1 H 0.0580 0.0486 0.8086
C3 C 0.1798(11) -0.0172(5) 0.8486(3)
H2 H 0.1621 -0.0636 0.8343
C4 C 0.2685(13) -0.0150(6) 0.8850(3)
H3 H 0.3113 -0.0603 0.8948
C5 C 0.2955(13) 0.0520(5) 0.9070(4)
H4 H 0.3548 0.0527 0.9318
C6 C 0.2310(11) 0.1200(5) 0.8912(3)
H5 H 0.2499 0.1661 0.9056
C7 C 0.1864(8) 0.2470(4) 0.7759(2)
C8 C 0.2429(10) 0.1859(5) 0.7518(3)
H6 H 0.2179 0.1357 0.7591
C9 C 0.3373(12) 0.1998(6) 0.7166(3)
H7 H 0.3741 0.1590 0.7003
C10 C 0.3755(12) 0.2751(6) 0.7062(4)
H8 H 0.4419 0.2844 0.6838
C11 C 0.3161(12) 0.3358(6) 0.7288(3)
H9 H 0.3383 0.3861 0.7207
C12 C 0.2238(10) 0.3222(5) 0.7634(3)
H10 H 0.1852 0.3637 0.7789
S1 S 0.2157(4) 0.51745(18) 0.89420(13)
C13 C 0.2742(9) 0.3614(5) 0.8808(3)
C14 C 0.1758(11) 0.4209(5) 0.9005(3)
C15 C 0.0488(10) 0.4084(5) 0.9241(3)
H11 H 0.0085 0.3606 0.9305
C16 C -0.0073(14) 0.4792(8) 0.9362(4)
H12 H -0.0911 0.4834 0.9530
C17 C 0.0675(14) 0.5426(9) 0.9221(5)
H13 H 0.0394 0.5932 0.9275
C18 C 0.6055(10) 0.2660(5) 0.9153(3)
C19 C 0.6036(15) 0.3248(6) 0.9443(3)
H14 H 0.5680 0.3722 0.9350
C20 C 0.652(2) 0.3181(8) 0.9870(4)
H15 H 0.6470 0.3603 1.0058
C21 C 0.706(2) 0.2499(8) 1.0020(5)
H16 H 0.7462 0.2454 1.0299
C22 C 0.698(3) 0.1883(9) 0.9737(4)
H17 H 0.7251 0.1398 0.9837
C23 C 0.652(2) 0.1965(7) 0.9308(4)
H18 H 0.6528 0.1540 0.9122
C24 C 0.6917(10) 0.3558(5) 0.8210(3)
C25 C 0.7454(10) 0.4181(5) 0.8439(3)
H19 H 0.7133 0.4267 0.8725
C26 C 0.8446(12) 0.4680(7) 0.8259(4)
H20 H 0.8783 0.5102 0.8418
C27 C 0.8938(14) 0.4535(8) 0.7829(4)
H21 H 0.9603 0.4868 0.7700
C28 C 0.8451(12) 0.3903(7) 0.7592(4)
H22 H 0.8783 0.3803 0.7308
C29 C 0.7464(11) 0.3437(6) 0.7792(3)
H23 H 0.7137 0.3009 0.7637
C30 C -0.2274(9) 0.1446(5) 0.7989(3)
S2 S -0.2772(4) 0.0588(2) 0.72526(12)
C31 C -0.3278(8) 0.0921(4) 0.7751(3)
C32 C -0.4709(6) 0.0660(3) 0.79271(19)
H24 H -0.5159 0.0774 0.8193
C33 C -0.5190(11) 0.0186(6) 0.7571(3)
H25 H -0.6068 -0.0075 0.7588
C34 C -0.4296(11) 0.0119(6) 0.7188(4)
H26 H -0.4547 -0.0154 0.6935
Bi1_2 Bi 1.03558(3) 0.230368(19) 0.832696(10)
Bi2_2 Bi -0.47388(3) 0.272620(19) 0.846307(11)
O1_2 O 0.9001(6) 0.1560(4) 0.7846(2)
O2_2 O -0.7692(7) 0.2941(3) 0.8803(2)
O3_2 O -0.6016(6) 0.3819(3) 0.8672(2)
O4_2 O 0.7289(6) 0.1728(4) 0.8338(2)
C18_2 C -0.3945(10) 0.2660(5) 0.9153(3)
C19_2 C -0.3964(15) 0.3248(6) 0.9443(3)
H14_2 H -0.4320 0.3722 0.9350
C20_2 C -0.348(2) 0.3181(8) 0.9870(4)
H15_2 H -0.3530 0.3603 1.0058
C21_2 C -0.294(2) 0.2499(8) 1.0020(5)
H16_2 H -0.2538 0.2454 1.0299
C22_2 C -0.302(3) 0.1883(9) 0.9737(4)
H17_2 H -0.2749 0.1398 0.9837
C23_2 C -0.348(2) 0.1965(7) 0.9308(4)
H18_2 H -0.3472 0.1540 0.9122
C24_2 C -0.3083(10) 0.3558(5) 0.8210(3)
C25_2 C -0.2546(10) 0.4181(5) 0.8439(3)
H19_2 H -0.2867 0.4267 0.8725
C26_2 C -0.1554(12) 0.4680(7) 0.8259(4)
H20_2 H -0.1217 0.5102 0.8418
C27_2 C -0.1062(14) 0.4535(8) 0.7829(4)
H21_2 H -0.0397 0.4868 0.7700
C28_2 C -0.1549(12) 0.3903(7) 0.7592(4)
H22_2 H -0.1217 0.3803 0.7308
C29_2 C -0.2536(11) 0.3437(6) 0.7792(3)
H23_2 H -0.2863 0.3009 0.7637
C30_2 C 0.7726(9) 0.1446(5) 0.7989(3)
S2_2 S 0.7228(4) 0.0588(2) 0.72526(12)
C31_2 C 0.6722(8) 0.0921(4) 0.7751(3)
C32_2 C 0.5291(6) 0.0660(3) 0.79271(19)
H24_2 H 0.4841 0.0774 0.8193
C33_2 C 0.4810(11) 0.0186(6) 0.7571(3)
H25_2 H 0.3932 -0.0075 0.7588
C34_2 C 0.5704(11) 0.0119(6) 0.7188(4)
H26_2 H 0.5453 -0.0154 0.6935
Bi3 Bi 0.32500(3) 0.744996(18) 0.974060(11)
O5 O 0.4629(7) 0.8371(4) 0.9401(2)
O6 O 0.6016(6) 0.8296(3) 0.99926(19)
C35 C 0.1942(8) 0.7574(4) 0.9124(2)
C36 C 0.0551(8) 0.7864(5) 0.9120(3)
H27 H 0.0139 0.8047 0.9379
C37 C -0.0237(11) 0.7886(6) 0.8732(3)
H28 H -0.1178 0.8076 0.8733
C38 C 0.0364(13) 0.7629(6) 0.8345(3)
H29 H -0.0157 0.7645 0.8083
C39 C 0.1750(15) 0.7348(7) 0.8354(3)
H30 H 0.2176 0.7185 0.8093
C40 C 0.2527(12) 0.7301(6) 0.8739(2)
H31 H 0.3448 0.7085 0.8738
C41 C 0.2233(9) 0.8372(5) 1.0150(3)
C42 C 0.2095(10) 0.8218(6) 1.0601(3)
H32 H 0.2445 0.7759 1.0717
C43 C 0.1434(12) 0.8754(7) 1.0872(3)
H33 H 0.1360 0.8654 1.1172
C44 C 0.0882(13) 0.9437(7) 1.0707(4)
H34 H 0.0374 0.9775 1.0887
C45 C 0.1107(13) 0.9604(6) 1.0265(4)
H35 H 0.0818 1.0079 1.0153
C46 C 0.1760(11) 0.9068(5) 0.9988(3)
H36 H 0.1878 0.9181 0.9691
C47 C 0.5746(9) 0.8570(5) 0.9619(3)
S3 S 0.6498(5) 0.9396(3) 0.88993(15)
C48 C 0.7969(7) 0.9514(4) 0.9648(2)
H37 H 0.8270 0.9451 0.9938
C49 C 0.6739(9) 0.9134(5) 0.9423(3)
C50 C 0.8593(14) 1.0006(7) 0.9314(4)
H38 H 0.9377 1.0328 0.9367
C51 C 0.7899(13) 0.9951(8) 0.8899(5)
H39 H 0.8221 1.0210 0.8649
Bi3C Bi 0.82500(3) 0.755004(18) 1.025940(11)
Bi3C_2 Bi -0.17500(3) 0.755004(18) 1.025940(11)
Bi3_2 Bi -0.67500(3) 0.744996(18) 0.974060(11)
O5C O -0.0371(7) 0.6629(4) 1.0599(2)
O5C_2 O 0.9629(7) 0.6629(4) 1.0599(2)
O5_2 O -0.5371(7) 0.8371(4) 0.9401(2)
O6C O 0.1016(6) 0.6704(3) 1.00074(19)
O6_2 O -0.3984(6) 0.8296(3) 0.99926(19)
O6C_2 O 1.1016(6) 0.6704(3) 1.00074(19)
C35C C -0.3058(8) 0.7426(4) 1.0876(2)
C35C_2 C 0.6942(8) 0.7426(4) 1.0876(2)
C36C C -0.4449(8) 0.7136(5) 1.0880(3)
C36C_2 C 0.5551(8) 0.7136(5) 1.0880(3)
H27C H -0.4861 0.6953 1.0621
H27C_2 H 0.5139 0.6953 1.0621
C37C C -0.5237(11) 0.7114(6) 1.1268(3)
C37C_2 C 0.4763(11) 0.7114(6) 1.1268(3)
H28C H -0.6178 0.6924 1.1267
H28C_2 H 0.3822 0.6924 1.1267
C38C C -0.4636(13) 0.7371(6) 1.1655(3)
C38C_2 C 0.5364(13) 0.7371(6) 1.1655(3)
H29C H -0.5157 0.7355 1.1917
H29C_2 H 0.4843 0.7355 1.1917
C39C C -0.3250(15) 0.7652(7) 1.1646(3)
C39C_2 C 0.6750(15) 0.7652(7) 1.1646(3)
H30C H -0.2824 0.7815 1.1907
H30C_2 H 0.7176 0.7815 1.1907
C40C C -0.2473(12) 0.7699(6) 1.1261(2)
C40C_2 C 0.7527(12) 0.7699(6) 1.1261(2)
H31C H -0.1552 0.7915 1.1262
H31C_2 H 0.8448 0.7915 1.1262
C41C C -0.2767(9) 0.6628(5) 0.9850(3)
C41C_2 C 0.7233(9) 0.6628(5) 0.9850(3)
C42C C -0.2905(10) 0.6782(6) 0.9399(3)
C42C_2 C 0.7095(10) 0.6782(6) 0.9399(3)
H32C H -0.2555 0.7241 0.9283
H32C_2 H 0.7445 0.7241 0.9283
C43C C -0.3566(12) 0.6246(7) 0.9128(3)
C43C_2 C 0.6434(12) 0.6246(7) 0.9128(3)
H33C H -0.3640 0.6346 0.8828
H33C_2 H 0.6360 0.6346 0.8828
C44C C -0.4118(13) 0.5563(7) 0.9293(4)
C44C_2 C 0.5882(13) 0.5563(7) 0.9293(4)
H34C H -0.4626 0.5225 0.9113
H34C_2 H 0.5374 0.5225 0.9113
C45C C -0.3893(13) 0.5396(6) 0.9735(4)
C45C_2 C 0.6107(13) 0.5396(6) 0.9735(4)
H35C H -0.4182 0.4921 0.9847
H35C_2 H 0.5818 0.4921 0.9847
C46C C -0.3240(11) 0.5932(5) 1.0012(3)
C46C_2 C 0.6760(11) 0.5932(5) 1.0012(3)
H36C H -0.3122 0.5819 1.0309
H36C_2 H 0.6878 0.5819 1.0309
C47C C 0.0746(9) 0.6430(5) 1.0381(3)
C47_2 C -0.4254(9) 0.8570(5) 0.9619(3)
S3C S 0.1498(5) 0.5604(3) 1.11007(15)
S3_2 S -0.3502(5) 0.9396(3) 0.88993(15)
C48C C 0.2969(7) 0.5486(4) 1.0352(2)
C48_2 C -0.2031(7) 0.9514(4) 0.9648(2)
H37C H 0.3270 0.5549 1.0062
H37_2 H -0.1730 0.9451 0.9938
C49C C 0.1739(9) 0.5866(5) 1.0577(3)
C49_2 C -0.3261(9) 0.9134(5) 0.9423(3)
C50C C 0.3593(14) 0.4994(7) 1.0686(4)
C50_2 C -0.1407(14) 1.0006(7) 0.9314(4)
H38C H 0.4377 0.4672 1.0633
H38_2 H -0.0623 1.0328 0.9367
C51C C 0.2899(13) 0.5049(8) 1.1101(5)
C51_2 C -0.2101(13) 0.9951(8) 0.8899(5)
H39C H 0.3221 0.4790 1.1351
H39_2 H -0.1779 1.0210 0.8649
loop_
_geom_bond_atom_site_label_1
_geom_bond_atom_site_label_2
_geom_bond_site_symmetry_1
_geom_bond_site_symmetry_2
Bi1 O1 1_555 1_555
Bi2 O2 1_555 1_555
Bi3 O5 1_555 1_555
O1 C30 1_555 1_555
O2 Bi1 1_555 1_555
O3 Bi2 1_555 1_555
O4 Bi1 1_555 1_555
O5 C47 1_555 1_555
O6 Bi3 1_555 1_555
C1 Bi1 1_555 1_555
C2 C1 1_555 1_555
H1 C2 1_555 1_555
C3 C2 1_555 1_555
H2 C3 1_555 1_555
C4 C3 1_555 1_555
H3 C4 1_555 1_555
C5 C4 1_555 1_555
H4 C5 1_555 1_555
C6 C1 1_555 1_555
H5 C6 1_555 1_555
C7 Bi1 1_555 1_555
C8 C7 1_555 1_555
H6 C8 1_555 1_555
C9 C8 1_555 1_555
H7 C9 1_555 1_555
C10 C9 1_555 1_555
H8 C10 1_555 1_555
C11 C10 1_555 1_555
H9 C11 1_555 1_555
C12 C7 1_555 1_555
H10 C12 1_555 1_555
S1 C14 1_555 1_555
C13 O2 1_555 1_555
C14 C13 1_555 1_555
C15 C14 1_555 1_555
H11 C15 1_555 1_555
C16 C15 1_555 1_555
H12 C16 1_555 1_555
C17 S1 1_555 1_555
H13 C17 1_555 1_555
C18 Bi2 1_555 1_555
C19 C18 1_555 1_555
H14 C19 1_555 1_555
C20 C19 1_555 1_555
H15 C20 1_555 1_555
C21 C20 1_555 1_555
H16 C21 1_555 1_555
C22 C21 1_555 1_555
H17 C22 1_555 1_555
C23 C18 1_555 1_555
H18 C23 1_555 1_555
C24 Bi2 1_555 1_555
C25 C24 1_555 1_555
H19 C25 1_555 1_555
C26 C25 1_555 1_555
H20 C26 1_555 1_555
C27 C26 1_555 1_555
H21 C27 1_555 1_555
C28 C27 1_555 1_555
H22 C28 1_555 1_555
C29 C24 1_555 1_555
H23 C29 1_555 1_555
C30 O4 1_555 1_555
S2 C31 1_555 1_555
C31 C30 1_555 1_555
C32 C31 1_555 1_555
H24 C32 1_555 1_555
C33 C32 1_555 1_555
H25 C33 1_555 1_555
C34 S2 1_555 1_555
H26 C34 1_555 1_555
C35 Bi3 1_555 1_555
C36 C35 1_555 1_555
H27 C36 1_555 1_555
C37 C36 1_555 1_555
H28 C37 1_555 1_555
C38 C37 1_555 1_555
H29 C38 1_555 1_555
C39 C38 1_555 1_555
H30 C39 1_555 1_555
C40 C35 1_555 1_555
H31 C40 1_555 1_555
C41 Bi3 1_555 1_555
C42 C41 1_555 1_555
H32 C42 1_555 1_555
C43 C42 1_555 1_555
H33 C43 1_555 1_555
C44 C43 1_555 1_555
H34 C44 1_555 1_555
C45 C44 1_555 1_555
H35 C45 1_555 1_555
C46 C41 1_555 1_555
H36 C46 1_555 1_555
C47 O6 1_555 1_555
S3 C49 1_555 1_555
C48 H37 1_555 1_555
C49 C47 1_555 1_555
C50 C48 1_555 1_555
H38 C50 1_555 1_555
C51 S3 1_555 1_555
H39 C51 1_555 1_555
Bi1_2 O1_2 1_555 1_555
Bi2_2 O4 1_555 1_555
Bi3C O6 1_555 1_555
Bi3C_2 O5C 1_555 1_555
Bi3_2 O5_2 1_555 1_555
O1_2 C30_2 1_555 1_555
O2_2 Bi2_2 1_555 1_555
O3_2 Bi2_2 1_555 1_555
O4_2 Bi2 1_555 1_555
O5C C47C 1_555 1_555
O5C_2 Bi3C 1_555 1_555
O5_2 C47_2 1_555 1_555
O6C Bi3 1_555 1_555
O6_2 Bi3C_2 1_555 1_555
O6C_2 Bi3C 1_555 1_555
C18_2 Bi2_2 1_555 1_555
C19_2 C18_2 1_555 1_555
H14_2 C19_2 1_555 1_555
C20_2 C19_2 1_555 1_555
H15_2 C20_2 1_555 1_555
C21_2 C20_2 1_555 1_555
H16_2 C21_2 1_555 1_555
C22_2 C21_2 1_555 1_555
H17_2 C22_2 1_555 1_555
C23_2 C18_2 1_555 1_555
H18_2 C23_2 1_555 1_555
C24_2 Bi2_2 1_555 1_555
C25_2 C24_2 1_555 1_555
H19_2 C25_2 1_555 1_555
C26_2 C25_2 1_555 1_555
H20_2 C26_2 1_555 1_555
C27_2 C26_2 1_555 1_555
H21_2 C27_2 1_555 1_555
C28_2 C27_2 1_555 1_555
H22_2 C28_2 1_555 1_555
C29_2 C24_2 1_555 1_555
H23_2 C29_2 1_555 1_555
C30_2 O4_2 1_555 1_555
S2_2 C31_2 1_555 1_555
C31_2 C30_2 1_555 1_555
C32_2 C31_2 1_555 1_555
H24_2 C32_2 1_555 1_555
C33_2 C32_2 1_555 1_555
H25_2 C33_2 1_555 1_555
C34_2 S2_2 1_555 1_555
H26_2 C34_2 1_555 1_555
C35C Bi3C_2 1_555 1_555
C35C_2 Bi3C 1_555 1_555
C36C C35C 1_555 1_555
C36C_2 C35C_2 1_555 1_555
H27C C36C 1_555 1_555
H27C_2 C36C_2 1_555 1_555
C37C C36C 1_555 1_555
C37C_2 C36C_2 1_555 1_555
H28C C37C 1_555 1_555
H28C_2 C37C_2 1_555 1_555
C38C C37C 1_555 1_555
C38C_2 C37C_2 1_555 1_555
H29C C38C 1_555 1_555
H29C_2 C38C_2 1_555 1_555
C39C C38C 1_555 1_555
C39C_2 C38C_2 1_555 1_555
H30C C39C 1_555 1_555
H30C_2 C39C_2 1_555 1_555
C40C C35C 1_555 1_555
C40C_2 C35C_2 1_555 1_555
H31C C40C 1_555 1_555
H31C_2 C40C_2 1_555 1_555
C41C Bi3C_2 1_555 1_555
C41C_2 Bi3C 1_555 1_555
C42C C41C 1_555 1_555
C42C_2 C41C_2 1_555 1_555
H32C C42C 1_555 1_555
H32C_2 C42C_2 1_555 1_555
C43C C42C 1_555 1_555
C43C_2 C42C_2 1_555 1_555
H33C C43C 1_555 1_555
H33C_2 C43C_2 1_555 1_555
C44C C43C 1_555 1_555
C44C_2 C43C_2 1_555 1_555
H34C C44C 1_555 1_555
H34C_2 C44C_2 1_555 1_555
C45C C44C 1_555 1_555
C45C_2 C44C_2 1_555 1_555
H35C C45C 1_555 1_555
H35C_2 C45C_2 1_555 1_555
C46C C41C 1_555 1_555
C46C_2 C41C_2 1_555 1_555
H36C C46C 1_555 1_555
H36C_2 C46C_2 1_555 1_555
C47C O6C 1_555 1_555
C47_2 O6_2 1_555 1_555
S3C C49C 1_555 1_555
S3_2 C49_2 1_555 1_555
C48C H37C 1_555 1_555
C48_2 H37_2 1_555 1_555
C49C C47C 1_555 1_555
C49_2 C47_2 1_555 1_555
C50C C48C 1_555 1_555
C50_2 C48_2 1_555 1_555
H38C C50C 1_555 1_555
H38_2 C50_2 1_555 1_555
C51C S3C 1_555 1_555
C51_2 S3_2 1_555 1_555
H39C C51C 1_555 1_555
H39_2 C51_2 1_555 1_555
O3 C13 1_555 1_555
C5 C6 1_555 1_555
C11 C12 1_555 1_555
C16 C17 1_555 1_555
C22 C23 1_555 1_555
C28 C29 1_555 1_555
C33 C34 1_555 1_555
C39 C40 1_555 1_555
C45 C46 1_555 1_555
C48 C49 1_555 1_555
C50 C51 1_555 1_555
Bi1_2 O4_2 1_555 1_555
Bi3C_2 O6C 1_555 1_555
Bi3_2 O6_2 1_555 1_555
C22_2 C23_2 1_555 1_555
C28_2 C29_2 1_555 1_555
C33_2 C34_2 1_555 1_555
C39C C40C 1_555 1_555
C39C_2 C40C_2 1_555 1_555
C45C C46C 1_555 1_555
C45C_2 C46C_2 1_555 1_555
C48C C49C 1_555 1_555
C48_2 C49_2 1_555 1_555
C50C C51C 1_555 1_555
C50_2 C51_2 1_555 1_555

#END
