
#######################################################################
#
#                 Cambridge Crystallographic Data Centre
#                                CCDC 
#
#######################################################################
#
# If this CIF has been generated from an entry in the Cambridge 
# Structural Database, then it will include bibliographic, chemical, 
# crystal, experimental, refinement or atomic coordinate data resulting 
# from the CCDC's data processing and validation procedures.
#
#######################################################################

data_FAQFAG
_symmetry_cell_setting           orthorhombic
_symmetry_space_group_name_H-M   'I m c b'
_symmetry_Int_Tables_number      72
_space_group_name_Hall           '-I 2a 2'
loop_
_symmetry_equiv_pos_site_id
_symmetry_equiv_pos_as_xyz
1 x,y,z
2 -x,1/2-y,1/2+z
3 x,-y,-z
4 -x,1/2+y,1/2-z
5 1/2+x,1/2+y,1/2+z
6 1/2-x,-y,z
7 1/2+x,1/2-y,1/2-z
8 1/2-x,y,-z
9 -x,-y,-z
10 x,1/2+y,1/2-z
11 -x,y,z
12 x,1/2-y,1/2+z
13 1/2-x,1/2-y,1/2-z
14 1/2+x,y,-z
15 1/2-x,1/2+y,1/2+z
16 1/2+x,-y,z
_cell_length_a                   6.9304(7)
_cell_length_b                   8.1900(9)
_cell_length_c                   21.8209(21)
_cell_angle_alpha                90
_cell_angle_beta                 90
_cell_angle_gamma                90
_cell_volume                     1238.55
loop_
_atom_site_label
_atom_site_type_symbol
_atom_site_fract_x
_atom_site_fract_y
_atom_site_fract_z
Cl1 Cl 0.50000 -0.1529(3) -0.13377(12)
O1 O 0.50000 0.1995(8) -0.0980(3)
O2 O 0.50000 -0.3295(7) -0.0128(3)
C1 C 0.50000 -0.1759(11) -0.0103(5)
C2 C 0.50000 -0.0710(11) -0.0607(4)
C3 C 0.50000 0.1015(11) -0.0546(5)
O3 O 0.25000 0.50000 -0.1062(5)
Li1 Li 0.50000 0.462(3) -0.0637(11)
H1 H 0.237(14) 0.422(8) -0.116(3)
Cl1B Cl 0.50000 0.1529(3) 0.13377(12)
O1B O 0.50000 -0.1995(8) 0.0980(3)
O2B O 0.50000 0.3295(7) 0.0128(3)
O2_2 O 0.50000 0.6705(7) -0.0128(3)
O2B_2 O 0.50000 -0.6705(7) 0.0128(3)
C1B C 0.50000 0.1759(11) 0.0103(5)
C2B C 0.50000 0.0710(11) 0.0607(4)
C3B C 0.50000 -0.1015(11) 0.0546(5)
O3J O 0.75000 0.50000 -0.1062(5)
O3B O 0.25000 -0.50000 0.1062(5)
O3H O 0.75000 -0.50000 0.1062(5)
Li1B Li 0.50000 -0.462(3) 0.0637(11)
Li1_2 Li 0.50000 -0.538(3) -0.0637(11)
Li1E Li 0.00000 0.538(3) -0.0637(11)
Li1B_2 Li 0.50000 0.538(3) 0.0637(11)
Li1E_2 Li 1.00000 0.538(3) -0.0637(11)
H1E H 0.263(14) 0.578(8) -0.116(3)
H1J H 0.763(14) 0.422(8) -0.116(3)
H1O H 0.737(14) 0.578(8) -0.116(3)
H1B H 0.237(14) -0.422(8) 0.116(3)
H1G H 0.263(14) -0.578(8) 0.116(3)
H1H H 0.763(14) -0.422(8) 0.116(3)
H1M H 0.737(14) -0.578(8) 0.116(3)
O4 O 0.50000 0.168(2) -0.2193(9)
H4 H 0.398135 0.193005 -0.227444
H4J H 0.601865 0.193005 -0.227444
O5 O 0.75000 0.00000 -0.2693(13)
O6? O 0.40(3) 0.31(3) -0.213(4)
O7? O 0.701(6) 0.081(12) -0.248(3)
H2? H 0.39419 0.393637 -0.214682
H3? H 0.500 0.107946 -0.22516
H5? H 0.500 0.191266 -0.181584
loop_
_geom_bond_atom_site_label_1
_geom_bond_atom_site_label_2
_geom_bond_site_symmetry_1
_geom_bond_site_symmetry_2
Cl1 C2 1_555 1_555
O1 C3 1_555 1_555
O2 C1 1_555 1_555
C1 C2 1_555 1_555
C2 C3 1_555 1_555
C3 C1B 1_555 1_555
O3 Li1 1_555 1_555
Li1 O1 1_555 1_555
O4 H4 1_555 1_555
H1 O3 1_555 1_555
Cl1B C2B 1_555 1_555
O1B C3B 1_555 1_555
O2B Li1 1_555 1_555
O2_2 Li1 1_555 1_555
O2B_2 Li1B 1_555 1_555
C1B O2B 1_555 1_555
C2B C1B 1_555 1_555
C3B C1 1_555 1_555
O3J Li1 1_555 1_555
O3B Li1B 1_555 1_555
O3H Li1B 1_555 1_555
Li1B O2 1_555 1_555
Li1_2 O2 1_555 1_555
Li1E O3 1_555 1_555
Li1B_2 O2B 1_555 1_555
Li1E_2 O3J 1_555 1_555
H1E O3 1_555 1_555
H1J O3J 1_555 1_555
H1O O3J 1_555 1_555
H1B O3B 1_555 1_555
H1G O3B 1_555 1_555
H1H O3H 1_555 1_555
H1M O3H 1_555 1_555
H4J O4 1_555 1_555
O1B Li1B 1_555 1_555
O2_2 Li1B_2 1_555 1_555
O2B_2 Li1_2 1_555 1_555
C2B C3B 1_555 1_555

#END
