
#######################################################################
#
#                 Cambridge Crystallographic Data Centre
#                                CCDC 
#
#######################################################################
#
# If this CIF has been generated from an entry in the Cambridge 
# Structural Database, then it will include bibliographic, chemical, 
# crystal, experimental, refinement or atomic coordinate data resulting 
# from the CCDC's data processing and validation procedures.
#
#######################################################################

data_FAQFUZ
_symmetry_cell_setting           monoclinic
_symmetry_space_group_name_H-M   'P 21/c'
_symmetry_Int_Tables_number      14
_space_group_name_Hall           '-P 2ybc'
loop_
_symmetry_equiv_pos_site_id
_symmetry_equiv_pos_as_xyz
1 x,y,z
2 -x,1/2+y,1/2-z
3 -x,-y,-z
4 x,1/2-y,1/2+z
_cell_length_a                   9.785(3)
_cell_length_b                   26.184(9)
_cell_length_c                   16.581(6)
_cell_angle_alpha                90
_cell_angle_beta                 119.444(7)
_cell_angle_gamma                90
_cell_volume                     3699.51
loop_
_atom_site_label
_atom_site_type_symbol
_atom_site_fract_x
_atom_site_fract_y
_atom_site_fract_z
Nd1 Nd 0.73780(3) -0.007972(11) -0.010848(18)
O1 O 0.7677(5) 0.07028(14) -0.0948(3)
O2 O 0.6498(5) 0.08318(15) -0.0129(3)
O3 O 0.7855(6) -0.05167(18) -0.1194(3)
O4 O 1.0255(5) -0.03566(18) -0.0881(3)
O5 O 0.6840(6) -0.00539(18) 0.1115(3)
O6 O 0.5051(5) 0.00089(18) 0.1540(3)
C1 C 0.7069(6) 0.1000(2) -0.0612(4)
C2 C 0.7044(7) 0.1558(2) -0.0776(4)
C3 C 0.7502(7) 0.1752(2) -0.1379(4)
H1 H 0.7825 0.1532 -0.1693
C4 C 0.7482(9) 0.2269(3) -0.1520(5)
H2 H 0.7799 0.2393 -0.1929
C5 C 0.7010(9) 0.2611(3) -0.1077(6)
C6 C 0.6545(9) 0.2415(3) -0.0484(5)
H3 H 0.6207 0.2638 -0.0181
C7 C 0.6561(8) 0.1897(2) -0.0324(5)
H4 H 0.6248 0.1776 0.0088
C8 C 0.7013(12) 0.3177(3) -0.1228(8)
H5 H 0.8040 0.3282 -0.1099
H6 H 0.6733 0.3353 -0.0822
H7 H 0.6266 0.3257 -0.1859
C9 C 0.9011(7) -0.0601(2) -0.1283(4)
C10 C 0.8892(6) -0.1024(2) -0.1924(3)
C11 C 0.7470(7) -0.1260(2) -0.2464(4)
H8 H 0.6586 -0.1154 -0.2438
C12 C 0.7364(9) -0.1656(3) -0.3046(5)
H9 H 0.6403 -0.1817 -0.3403
C13 C 0.8646(11) -0.1816(3) -0.3108(5)
C14 C 1.0048(11) -0.1589(3) -0.2558(6)
H10 H 1.0936 -0.1701 -0.2576
C15 C 1.0179(8) -0.1192(3) -0.1968(5)
H11 H 1.1150 -0.1040 -0.1599
C16 C 0.8479(13) -0.2244(4) -0.3770(6)
H12 H 0.8565 -0.2105 -0.4280
H13 H 0.7473 -0.2404 -0.4000
H14 H 0.9292 -0.2492 -0.3451
C17 C 0.6425(7) 0.0039(2) 0.1696(4)
C18 C 0.7640(7) 0.0205(2) 0.2648(4)
C19 C 0.7201(8) 0.0410(3) 0.3250(4)
H15 H 0.6143 0.0436 0.3076
C20 C 0.8332(11) 0.0579(3) 0.4117(5)
H16 H 0.8021 0.0714 0.4520
C21 C 0.9891(10) 0.0553(3) 0.4389(5)
C22 C 1.0323(9) 0.0339(4) 0.3804(5)
H17 H 1.1383 0.0310 0.3986
C23 C 0.9214(8) 0.0162(3) 0.2940(4)
H18 H 0.9539 0.0014 0.2553
C24 C 1.1103(13) 0.0778(4) 0.5324(6)
H19 H 1.1166 0.1140 0.5265
H20 H 1.2110 0.0627 0.5514
H21 H 1.0792 0.0706 0.5779
O7 O 0.5957(5) -0.08869(15) -0.0219(3)
H22 H 0.5130 -0.0906 -0.0173
H23 H 0.6213 -0.1180 -0.0320
O8 O 0.9374(5) -0.07439(16) 0.0863(3)
H24 H 1.0313 -0.0719 0.0969
H25 H 0.9350 -0.0877 0.1324
Nd1B Nd 1.26220(3) 0.007972(11) 0.010848(18)
Nd1B_2 Nd 0.26220(3) 0.007972(11) 0.010848(18)
O1B O 1.2323(5) -0.07028(14) 0.0948(3)
O2B O 1.3502(5) -0.08318(15) 0.0129(3)
O3B O 1.2145(6) 0.05167(18) 0.1194(3)
O4B O 0.9745(5) 0.03566(18) 0.0881(3)
O5B O 0.3160(6) 0.00539(18) -0.1115(3)
O5B_2 O 1.3160(6) 0.00539(18) -0.1115(3)
O6B O 0.4949(5) -0.00089(18) -0.1540(3)
O6_2 O 1.5051(5) 0.00089(18) 0.1540(3)
C1B C 1.2931(6) -0.1000(2) 0.0612(4)
C2B C 1.2956(7) -0.1558(2) 0.0776(4)
C3B C 1.2498(7) -0.1752(2) 0.1379(4)
H1B H 1.2175 -0.1532 0.1693
C4B C 1.2518(9) -0.2269(3) 0.1520(5)
H2B H 1.2201 -0.2393 0.1929
C5B C 1.2990(9) -0.2611(3) 0.1077(6)
C6B C 1.3455(9) -0.2415(3) 0.0484(5)
H3B H 1.3793 -0.2638 0.0181
C7B C 1.3439(8) -0.1897(2) 0.0324(5)
H4B H 1.3752 -0.1776 -0.0088
C8B C 1.2987(12) -0.3177(3) 0.1228(8)
H5B H 1.1960 -0.3282 0.1099
H6B H 1.3267 -0.3353 0.0822
H7B H 1.3734 -0.3257 0.1859
C9B C 1.0989(7) 0.0601(2) 0.1283(4)
C10B C 1.1108(6) 0.1024(2) 0.1924(3)
C11B C 1.2530(7) 0.1260(2) 0.2464(4)
H8B H 1.3414 0.1154 0.2438
C12B C 1.2636(9) 0.1656(3) 0.3046(5)
H9B H 1.3597 0.1817 0.3403
C13B C 1.1354(11) 0.1816(3) 0.3108(5)
C14B C 0.9952(11) 0.1589(3) 0.2558(6)
H10B H 0.9064 0.1701 0.2576
C15B C 0.9821(8) 0.1192(3) 0.1968(5)
H11B H 0.8850 0.1040 0.1599
C16B C 1.1521(13) 0.2244(4) 0.3770(6)
H12B H 1.1435 0.2105 0.4280
H13B H 1.2527 0.2404 0.4000
H14B H 1.0708 0.2492 0.3451
C17B C 0.3575(7) -0.0039(2) -0.1696(4)
C18B C 0.2360(7) -0.0205(2) -0.2648(4)
C19B C 0.2799(8) -0.0410(3) -0.3250(4)
H15B H 0.3857 -0.0436 -0.3076
C20B C 0.1668(11) -0.0579(3) -0.4117(5)
H16B H 0.1979 -0.0714 -0.4520
C21B C 0.0109(10) -0.0553(3) -0.4389(5)
C22B C -0.0323(9) -0.0339(4) -0.3804(5)
H17B H -0.1383 -0.0310 -0.3986
C23B C 0.0786(8) -0.0162(3) -0.2940(4)
H18B H 0.0461 -0.0014 -0.2553
C24B C -0.1103(13) -0.0778(4) -0.5324(6)
H19B H -0.1166 -0.1140 -0.5265
H20B H -0.2110 -0.0627 -0.5514
H21B H -0.0792 -0.0706 -0.5779
O7B O 1.4043(5) 0.08869(15) 0.0219(3)
H22B H 1.4870 0.0906 0.0173
H23B H 1.3787 0.1180 0.0320
O8B O 1.0626(5) 0.07439(16) -0.0863(3)
H24B H 0.9687 0.0719 -0.0969
H25B H 1.0650 0.0877 -0.1324
N1 N 0.3289(8) 0.1863(2) 0.0606(4)
N2 N 0.0796(8) 0.3712(2) 0.2720(4)
C25 C 0.1849(9) 0.1865(3) 0.0485(5)
H26 H 0.1178 0.1601 0.0141
C26 C 0.1281(8) 0.2230(2) 0.0833(4)
H27 H 0.0254 0.2210 0.0723
C27 C 0.2227(7) 0.2629(2) 0.1345(4)
C28 C 0.3714(9) 0.2640(3) 0.1444(5)
H28 H 0.4386 0.2910 0.1751
C29 C 0.4197(9) 0.2250(3) 0.1090(6)
H29 H 0.5222 0.2258 0.1195
C30 C -0.0227(10) 0.3403(3) 0.2068(6)
H30 H -0.1274 0.3418 0.1922
C31 C 0.0192(9) 0.3060(3) 0.1598(5)
H31 H -0.0575 0.2856 0.1140
C32 C 0.1719(7) 0.3015(2) 0.1795(4)
C33 C 0.2754(9) 0.3350(3) 0.2443(5)
H32 H 0.3799 0.3353 0.2585
C34 C 0.2242(10) 0.3682(3) 0.2882(6)
H33 H 0.2977 0.3900 0.3325
N3 N 0.5765(11) 0.1111(4) 0.6394(6)
C35 C 0.6063(13) 0.0643(5) 0.6733(6)
H34 H 0.6491 0.0609 0.7370
C36 C 0.5800(11) 0.0204(4) 0.6232(5)
H35 H 0.6051 -0.0111 0.6528
C37 C 0.5165(9) 0.0233(3) 0.5293(5)
C38 C 0.4818(12) 0.0709(4) 0.4918(6)
H36 H 0.4366 0.0751 0.4281
C39 C 0.5143(14) 0.1136(4) 0.5494(8)
H37 H 0.4900 0.1457 0.5218
N3B N 0.4235(11) -0.1111(4) 0.3606(6)
C35B C 0.3937(13) -0.0643(5) 0.3267(6)
H34B H 0.3509 -0.0609 0.2630
C36B C 0.4200(11) -0.0204(4) 0.3768(5)
H35B H 0.3949 0.0111 0.3472
C37B C 0.4835(9) -0.0233(3) 0.4707(5)
C38B C 0.5182(12) -0.0709(4) 0.5082(6)
H36B H 0.5634 -0.0751 0.5719
C39B C 0.4857(14) -0.1136(4) 0.4506(8)
H37B H 0.5100 -0.1457 0.4782
loop_
_geom_bond_atom_site_label_1
_geom_bond_atom_site_label_2
_geom_bond_site_symmetry_1
_geom_bond_site_symmetry_2
Nd1 O1 1_555 1_555
O1 C1 1_555 1_555
O2 Nd1 1_555 1_555
O3 Nd1 1_555 1_555
O4 C9 1_555 1_555
O5 Nd1 1_555 1_555
O6 C17 1_555 1_555
C1 O2 1_555 1_555
C2 C1 1_555 1_555
C3 C2 1_555 1_555
H1 C3 1_555 1_555
C4 C3 1_555 1_555
H2 C4 1_555 1_555
C5 C4 1_555 1_555
C6 C5 1_555 1_555
H3 C6 1_555 1_555
C7 C2 1_555 1_555
H4 C7 1_555 1_555
C8 C5 1_555 1_555
H5 C8 1_555 1_555
H6 C8 1_555 1_555
H7 C8 1_555 1_555
C9 O3 1_555 1_555
C10 C9 1_555 1_555
C11 C10 1_555 1_555
H8 C11 1_555 1_555
C12 C11 1_555 1_555
H9 C12 1_555 1_555
C13 C12 1_555 1_555
C14 C13 1_555 1_555
H10 C14 1_555 1_555
C15 C10 1_555 1_555
H11 C15 1_555 1_555
C16 C13 1_555 1_555
H12 C16 1_555 1_555
H13 C16 1_555 1_555
H14 C16 1_555 1_555
C17 O5 1_555 1_555
C18 C17 1_555 1_555
C19 C18 1_555 1_555
H15 C19 1_555 1_555
C20 C19 1_555 1_555
H16 C20 1_555 1_555
C21 C20 1_555 1_555
C22 C21 1_555 1_555
H17 C22 1_555 1_555
C23 C18 1_555 1_555
H18 C23 1_555 1_555
C24 C21 1_555 1_555
H19 C24 1_555 1_555
H20 C24 1_555 1_555
H21 C24 1_555 1_555
O7 Nd1 1_555 1_555
H22 O7 1_555 1_555
H23 O7 1_555 1_555
O8 Nd1 1_555 1_555
H24 O8 1_555 1_555
H25 O8 1_555 1_555
N1 C25 1_555 1_555
N2 C30 1_555 1_555
C25 H26 1_555 1_555
C26 C25 1_555 1_555
H27 C26 1_555 1_555
C27 C26 1_555 1_555
C28 C27 1_555 1_555
H28 C28 1_555 1_555
C29 N1 1_555 1_555
H29 C29 1_555 1_555
C30 H30 1_555 1_555
C31 C30 1_555 1_555
H31 C31 1_555 1_555
C32 C27 1_555 1_555
C33 C32 1_555 1_555
H32 C33 1_555 1_555
C34 N2 1_555 1_555
H33 C34 1_555 1_555
N3 C35 1_555 1_555
C35 H34 1_555 1_555
C36 C35 1_555 1_555
H35 C36 1_555 1_555
C37 C36 1_555 1_555
C38 C37 1_555 1_555
H36 C38 1_555 1_555
C39 N3 1_555 1_555
H37 C39 1_555 1_555
Nd1B O4 1_555 1_555
Nd1B_2 O6 1_555 1_555
O1B Nd1B 1_555 1_555
O2B Nd1B 1_555 1_555
O3B Nd1B 1_555 1_555
O4B Nd1 1_555 1_555
O5B Nd1B_2 1_555 1_555
O5B_2 Nd1B 1_555 1_555
O6B Nd1 1_555 1_555
O6_2 Nd1B 1_555 1_555
C1B O1B 1_555 1_555
C2B C1B 1_555 1_555
C3B C2B 1_555 1_555
H1B C3B 1_555 1_555
C4B C3B 1_555 1_555
H2B C4B 1_555 1_555
C5B C4B 1_555 1_555
C6B C5B 1_555 1_555
H3B C6B 1_555 1_555
C7B C2B 1_555 1_555
H4B C7B 1_555 1_555
C8B C5B 1_555 1_555
H5B C8B 1_555 1_555
H6B C8B 1_555 1_555
H7B C8B 1_555 1_555
C9B O3B 1_555 1_555
C10B C9B 1_555 1_555
C11B C10B 1_555 1_555
H8B C11B 1_555 1_555
C12B C11B 1_555 1_555
H9B C12B 1_555 1_555
C13B C12B 1_555 1_555
C14B C13B 1_555 1_555
H10B C14B 1_555 1_555
C15B C10B 1_555 1_555
H11B C15B 1_555 1_555
C16B C13B 1_555 1_555
H12B C16B 1_555 1_555
H13B C16B 1_555 1_555
H14B C16B 1_555 1_555
C17B O5B 1_555 1_555
C18B C17B 1_555 1_555
C19B C18B 1_555 1_555
H15B C19B 1_555 1_555
C20B C19B 1_555 1_555
H16B C20B 1_555 1_555
C21B C20B 1_555 1_555
C22B C21B 1_555 1_555
H17B C22B 1_555 1_555
C23B C18B 1_555 1_555
H18B C23B 1_555 1_555
C24B C21B 1_555 1_555
H19B C24B 1_555 1_555
H20B C24B 1_555 1_555
H21B C24B 1_555 1_555
O7B Nd1B 1_555 1_555
H22B O7B 1_555 1_555
H23B O7B 1_555 1_555
O8B Nd1B 1_555 1_555
H24B O8B 1_555 1_555
H25B O8B 1_555 1_555
N3B C35B 1_555 1_555
C35B H34B 1_555 1_555
C36B C35B 1_555 1_555
H35B C36B 1_555 1_555
C37B C37 1_555 1_555
C38B C37B 1_555 1_555
H36B C38B 1_555 1_555
C39B N3B 1_555 1_555
H37B C39B 1_555 1_555
C6 C7 1_555 1_555
C14 C15 1_555 1_555
C22 C23 1_555 1_555
C28 C29 1_555 1_555
C31 C32 1_555 1_555
C33 C34 1_555 1_555
C38 C39 1_555 1_555
O2B C1B 1_555 1_555
O4B C9B 1_555 1_555
O6B C17B 1_555 1_555
C6B C7B 1_555 1_555
C14B C15B 1_555 1_555
C22B C23B 1_555 1_555
C36B C37B 1_555 1_555
C38B C39B 1_555 1_555

#END
