
#######################################################################
#
#                 Cambridge Crystallographic Data Centre
#                                CCDC 
#
#######################################################################
#
# If this CIF has been generated from an entry in the Cambridge 
# Structural Database, then it will include bibliographic, chemical, 
# crystal, experimental, refinement or atomic coordinate data resulting 
# from the CCDC's data processing and validation procedures.
#
#######################################################################

data_FAQHEM
_symmetry_cell_setting           triclinic
_symmetry_space_group_name_H-M   'P -1'
_symmetry_Int_Tables_number      2
_space_group_name_Hall           '-P 1'
loop_
_symmetry_equiv_pos_site_id
_symmetry_equiv_pos_as_xyz
1 x,y,z
2 -x,-y,-z
_cell_length_a                   7.942(3)
_cell_length_b                   8.116(3)
_cell_length_c                   13.043(4)
_cell_angle_alpha                84.868(4)
_cell_angle_beta                 75.694(4)
_cell_angle_gamma                78.978(4)
_cell_volume                     798.831
loop_
_atom_site_label
_atom_site_type_symbol
_atom_site_fract_x
_atom_site_fract_y
_atom_site_fract_z
Co1 Co 0.63570(4) 0.50936(4) 0.81954(3)
N1 N 0.6952(3) 0.6401(3) 0.94125(16)
H1 H 0.5918 0.6983 0.9762
H2 H 0.7314 0.5604 0.9875
N2 N 0.5927(3) 0.3576(3) 0.70276(17)
N3 N 0.7439(3) 0.6283(3) 0.67387(17)
O1 O 0.6492(2) 1.2785(2) 0.90972(14)
O2 O 0.9057(3) 1.3155(2) 0.80862(16)
O3 O 1.4197(3) 0.8414(3) 0.81390(18)
O4 O 1.3681(2) 0.5835(2) 0.86259(14)
C1 C 0.8784(3) 1.0374(3) 0.88097(19)
C2 C 1.0585(3) 0.9756(3) 0.85879(19)
H3 H 1.1382 1.0493 0.8369
C3 C 1.1201(3) 0.8043(3) 0.86912(19)
C4 C 1.0004(3) 0.6929(3) 0.8975(2)
H4 H 1.0416 0.5779 0.9022
C5 C 0.8195(3) 0.7539(3) 0.91880(19)
C6 C 0.7587(3) 0.9266(3) 0.91216(19)
H5 H 0.6381 0.9681 0.9286
C7 C 1.3180(3) 0.7410(3) 0.8470(2)
C8 C 0.8094(3) 1.2225(3) 0.86651(19)
C9 C 0.5145(4) 0.2245(3) 0.7195(2)
H6 H 0.4662 0.1914 0.7890
C10 C 0.5009(5) 0.1317(4) 0.6381(3)
H7 H 0.4447 0.0389 0.6529
C11 C 0.5722(5) 0.1802(4) 0.5353(3)
H8 H 0.5654 0.1191 0.4799
C12 C 0.6545(4) 0.3201(4) 0.5138(2)
C13 C 0.6624(4) 0.4050(3) 0.6016(2)
C14 C 0.7427(3) 0.5510(3) 0.5857(2)
C15 C 0.7306(4) 0.3820(4) 0.4094(2)
H9 H 0.7274 0.3257 0.3510
C16 C 0.8065(4) 0.5198(4) 0.3940(2)
H10 H 0.8552 0.5568 0.3255
C17 C 0.8129(4) 0.6098(4) 0.4820(2)
C18 C 0.8847(4) 0.7579(4) 0.4716(3)
H11 H 0.9344 0.8016 0.4051
C19 C 0.8802(5) 0.8361(4) 0.5605(3)
H12 H 0.9241 0.9358 0.5546
C20 C 0.8103(4) 0.7677(4) 0.6605(2)
H13 H 0.8106 0.8226 0.7201
Co1_2 Co 0.63570(4) 1.50936(4) 0.81954(3)
Co1_3 Co 1.63570(4) 0.50936(4) 0.81954(3)
O1_2 O 0.6492(2) 0.2785(2) 0.90972(14)
O2_2 O 0.9057(3) 0.3155(2) 0.80862(16)
O4_2 O 0.3681(2) 0.5835(2) 0.86259(14)
loop_
_geom_bond_atom_site_label_1
_geom_bond_atom_site_label_2
_geom_bond_site_symmetry_1
_geom_bond_site_symmetry_2
Co1 N1 1_555 1_555
N1 H1 1_555 1_555
H2 N1 1_555 1_555
N2 Co1 1_555 1_555
N3 Co1 1_555 1_555
O1 C8 1_555 1_555
O2 C8 1_555 1_555
O3 C7 1_555 1_555
O4 C7 1_555 1_555
C1 C2 1_555 1_555
C2 H3 1_555 1_555
C3 C2 1_555 1_555
C4 C3 1_555 1_555
H4 C4 1_555 1_555
C5 N1 1_555 1_555
C6 C1 1_555 1_555
H5 C6 1_555 1_555
C7 C3 1_555 1_555
C8 C1 1_555 1_555
C9 N2 1_555 1_555
H6 C9 1_555 1_555
C10 C9 1_555 1_555
H7 C10 1_555 1_555
C11 C10 1_555 1_555
H8 C11 1_555 1_555
C12 C11 1_555 1_555
C13 N2 1_555 1_555
C14 N3 1_555 1_555
C15 C12 1_555 1_555
H9 C15 1_555 1_555
C16 C15 1_555 1_555
H10 C16 1_555 1_555
C17 C14 1_555 1_555
C18 C17 1_555 1_555
H11 C18 1_555 1_555
C19 C18 1_555 1_555
H12 C19 1_555 1_555
C20 N3 1_555 1_555
H13 C20 1_555 1_555
Co1_2 O1 1_555 1_555
Co1_3 O4 1_555 1_555
O1_2 Co1 1_555 1_555
O2_2 Co1 1_555 1_555
O4_2 Co1 1_555 1_555
O2 Co1_2 1_555 1_555
C4 C5 1_555 1_555
C5 C6 1_555 1_555
C12 C13 1_555 1_555
C13 C14 1_555 1_555
C16 C17 1_555 1_555
C19 C20 1_555 1_555

#END
