
#######################################################################
#
#                 Cambridge Crystallographic Data Centre
#                                CCDC 
#
#######################################################################
#
# If this CIF has been generated from an entry in the Cambridge 
# Structural Database, then it will include bibliographic, chemical, 
# crystal, experimental, refinement or atomic coordinate data resulting 
# from the CCDC's data processing and validation procedures.
#
#######################################################################

data_FAQPIY
_symmetry_cell_setting           monoclinic
_symmetry_space_group_name_H-M   'P 21/n'
_symmetry_Int_Tables_number      14
_space_group_name_Hall           '-P 2yn'
loop_
_symmetry_equiv_pos_site_id
_symmetry_equiv_pos_as_xyz
1 x,y,z
2 1/2-x,1/2+y,1/2-z
3 -x,-y,-z
4 1/2+x,1/2-y,1/2+z
_cell_length_a                   15.562(2)
_cell_length_b                   6.0318(8)
_cell_length_c                   20.382(3)
_cell_angle_alpha                90
_cell_angle_beta                 99.194(2)
_cell_angle_gamma                90
_cell_volume                     1888.62
loop_
_atom_site_label
_atom_site_type_symbol
_atom_site_fract_x
_atom_site_fract_y
_atom_site_fract_z
Ag1 Ag 0.94265(6) 0.42855(15) 0.11541(4)
Ag2 Ag 1.02791(6) 0.85699(14) 0.07631(4)
Ag3 Ag 0.60601(6) 0.09348(16) 0.21225(5)
C1 C 1.1603(7) 0.4310(18) 0.1000(5)
H1 H 1.2176 0.3592 0.1071
S1 S 1.10009(19) 0.3397(5) 0.16573(14)
C2 C 1.1271(8) 0.573(2) 0.2227(6)
H2 H 1.0749 0.6581 0.2254
H3 H 1.1496 0.5174 0.2667
C3 C 1.1934(7) 0.719(2) 0.1994(6)
H4 H 1.2513 0.6631 0.2158
H5 H 1.1889 0.8676 0.2167
S2 S 1.17586(18) 0.7266(5) 0.10865(15)
C4 C 1.1133(7) 0.3685(17) 0.0313(5)
O1 O 1.1392(6) 0.4763(16) -0.0156(4)
O2 O 1.0541(6) 0.2330(15) 0.0250(4)
C5 C 0.8118(7) 0.0355(17) 0.1887(5)
H6 H 0.8202 0.0221 0.2373
S3 S 0.79474(19) 0.3268(5) 0.16587(14)
C6 C 0.7173(8) 0.290(2) 0.0904(6)
H7 H 0.6620 0.3566 0.0954
H8 H 0.7385 0.3621 0.0535
C7 C 0.7054(9) 0.043(3) 0.0766(6)
H9 H 0.7503 -0.0101 0.0525
H10 H 0.6493 0.0162 0.0493
S4 S 0.71168(18) -0.1039(5) 0.15375(15)
C8 C 0.8882(6) -0.0718(17) 0.1629(5)
O3 O 0.9113(5) 0.0063(14) 0.1123(4)
O4 O 0.9211(5) -0.2398(12) 0.1932(4)
S5 S 0.4724(2) -0.4250(5) 0.16969(15)
C9 C 0.4437(11) -0.292(4) 0.0887(9)
F1 F 0.3908(9) -0.121(2) 0.0942(7)
F2 F 0.4015(9) -0.417(3) 0.0458(6)
F3 F 0.5129(7) -0.219(3) 0.0672(6)
O5 O 0.5114(7) -0.2553(19) 0.2120(5)
O6 O 0.3916(6) -0.5026(19) 0.1842(5)
O7 O 0.5323(8) -0.590(2) 0.1562(6)
Ag1B Ag 1.05735(6) 0.57145(15) -0.11541(4)
Ag2_2 Ag 1.02791(6) -0.14301(14) 0.07631(4)
Ag2B Ag 0.97209(6) 0.14301(14) -0.07631(4)
Ag3A Ag 0.89399(6) -0.40652(16) 0.28775(5)
Ag3_2 Ag 0.60601(6) -0.90652(16) 0.21225(5)
O1B O 0.8608(6) 0.5237(16) 0.0156(4)
O2_2 O 1.0541(6) 1.2330(15) 0.0250(4)
O2B O 0.9459(6) 0.7670(15) -0.0250(4)
O3_2 O 0.9113(5) 1.0063(14) 0.1123(4)
O4A O 0.5789(5) 0.2602(12) 0.3068(4)
O7_2 O 0.5323(8) 0.410(2) 0.1562(6)
loop_
_geom_bond_atom_site_label_1
_geom_bond_atom_site_label_2
_geom_bond_site_symmetry_1
_geom_bond_site_symmetry_2
Ag1 Ag2 1_555 1_555
Ag2 S2 1_555 1_555
Ag3 S4 1_555 1_555
C1 H1 1_555 1_555
S1 Ag1 1_555 1_555
C2 S1 1_555 1_555
H2 C2 1_555 1_555
H3 C2 1_555 1_555
C3 C2 1_555 1_555
H4 C3 1_555 1_555
H5 C3 1_555 1_555
S2 C1 1_555 1_555
C4 C1 1_555 1_555
O1 C4 1_555 1_555
O2 C4 1_555 1_555
C5 H6 1_555 1_555
S3 Ag1 1_555 1_555
C6 S3 1_555 1_555
H7 C6 1_555 1_555
H8 C6 1_555 1_555
C7 C6 1_555 1_555
H9 C7 1_555 1_555
H10 C7 1_555 1_555
S4 C5 1_555 1_555
C8 C5 1_555 1_555
O3 Ag1 1_555 1_555
O4 C8 1_555 1_555
S5 C9 1_555 1_555
C9 F1 1_555 1_555
F2 C9 1_555 1_555
F3 C9 1_555 1_555
O5 Ag3 1_555 1_555
O6 S5 1_555 1_555
O7 S5 1_555 1_555
Ag1B O1 1_555 1_555
Ag2_2 O2 1_555 1_555
Ag2B O2 1_555 1_555
Ag3A O4 1_555 1_555
Ag3_2 O7 1_555 1_555
O1B Ag1 1_555 1_555
O2_2 Ag2 1_555 1_555
O2B Ag2 1_555 1_555
O3_2 Ag2 1_555 1_555
O4A Ag3 1_555 1_555
O7_2 Ag3 1_555 1_555
C1 S1 1_555 1_555
C3 S2 1_555 1_555
C5 S3 1_555 1_555
C7 S4 1_555 1_555
C8 O3 1_555 1_555
O3 Ag2_2 1_555 1_555
S5 O5 1_555 1_555
Ag1B Ag2B 1_555 1_555

#END
