
#######################################################################
#
#                 Cambridge Crystallographic Data Centre
#                                CCDC 
#
#######################################################################
#
# If this CIF has been generated from an entry in the Cambridge 
# Structural Database, then it will include bibliographic, chemical, 
# crystal, experimental, refinement or atomic coordinate data resulting 
# from the CCDC's data processing and validation procedures.
#
#######################################################################

data_FAQSOG
_symmetry_cell_setting           triclinic
_symmetry_space_group_name_H-M   'P -1'
_symmetry_Int_Tables_number      2
_space_group_name_Hall           '-P 1'
loop_
_symmetry_equiv_pos_site_id
_symmetry_equiv_pos_as_xyz
1 x,y,z
2 -x,-y,-z
_cell_length_a                   8.7853(9)
_cell_length_b                   10.3602(9)
_cell_length_c                   12.8505(14)
_cell_angle_alpha                99.351(8)
_cell_angle_beta                 105.516(9)
_cell_angle_gamma                89.395(8)
_cell_volume                     1111.35
loop_
_atom_site_label
_atom_site_type_symbol
_atom_site_fract_x
_atom_site_fract_y
_atom_site_fract_z
Cu1 Cu 0.73766(5) -0.13568(4) 0.47072(4)
Cu2 Cu 0.63883(6) 0.22305(4) 0.60502(4)
Cu3 Cu 1.65591(5) -0.16150(4) 0.94830(4)
Cu4 Cu 0.65473(6) -0.05890(5) 0.69401(4)
Cl1 Cl 0.81415(1) 0.05572(8) 0.59654(8)
Cl2 Cl 0.53639(1) -0.11089(9) 0.32164(8)
Cl3 Cl 1.79800(1) -0.04589(1) 0.87182(8)
Cl4 Cl 0.55153(1) -0.23992(9) 0.57085(8)
O1 O 1.0799(3) -0.4003(3) 0.6124(2)
O2 O 1.5848(3) -0.4218(2) 0.8158(2)
O3 O 1.3368(3) -0.0457(2) 0.8544(2)
N1 N 1.3303(3) -0.4165(3) 0.7063(3)
N2 N 1.4627(4) -0.2327(3) 0.8314(3)
N3 N 1.1987(4) -0.2147(3) 0.7272(3)
C1 C 1.2059(4) -0.3400(4) 0.6836(3)
C2 C 1.4548(4) -0.3564(3) 0.7808(3)
C3 C 1.3308(4) -0.1671(3) 0.8006(3)
C4 C 0.9353(4) -0.3258(3) 0.5874(3)
C5 C 0.9430(4) -0.2417(3) 0.5040(3)
C6 C 0.8640(4) -0.2761(4) 0.3976(3)
C7 C 1.5876(4) -0.5616(4) 0.7699(3)
C8 C 1.6410(5) -0.5755(4) 0.6690(4)
C9 C 1.7886(6) -0.6141(4) 0.6691(5)
C10 C 1.1922(4) 0.0278(4) 0.8278(3)
C11 C 1.2246(4) 0.1630(4) 0.8909(3)
C12 C 1.3686(5) 0.2310(4) 0.9182(3)
H1 H 1.874(10) -0.643(8) 0.727(7)
H2 H 1.105(4) -0.019(4) 0.848(3)
H3 H 1.020(6) -0.170(5) 0.526(4)
H4 H 0.921(6) -0.287(5) 0.632(4)
H5 H 1.481(5) -0.594(4) 0.756(4)
H6 H 1.155(6) 0.034(5) 0.749(4)
H7 H 0.810(5) -0.336(4) 0.381(3)
H8 H 0.849(4) -0.386(3) 0.564(3)
H9 H 1.833(6) -0.611(5) 0.626(4)
H10 H 1.369(5) 0.325(5) 0.937(4)
H11 H 1.663(6) -0.601(5) 0.824(4)
H12 H 1.136(5) 0.212(4) 0.894(4)
H13 H 0.898(6) -0.231(5) 0.350(4)
H14 H 1.588(5) -0.539(4) 0.615(4)
H15 H 1.467(6) 0.179(5) 0.890(4)
Cu2A Cu 0.36117(6) -0.22305(4) 0.39498(4)
Cu2_2 Cu 1.63883(6) -0.77695(4) 0.60502(4)
Cu3A Cu 1.34409(5) 0.16150(4) 1.05170(4)
Cu4A Cu 0.34527(6) 0.05890(5) 0.30599(4)
Cu4_2 Cu 1.65473(6) -0.05890(5) 0.69401(4)
Cl2A Cl 0.46361(1) 0.11089(9) 0.67836(8)
Cl3_2 Cl 0.79800(1) -0.04589(1) 0.87182(8)
Cl4A Cl 0.44847(1) 0.23992(9) 0.42915(8)
C8_2 C 0.6410(5) 0.4245(4) 0.6690(4)
C9_2 C 0.7886(6) 0.3859(4) 0.6691(5)
C11A C 1.7754(4) -0.1630(4) 1.1091(3)
C12A C 1.6314(5) -0.2310(4) 1.0818(3)
H1_2 H 0.874(10) 0.357(8) 0.727(7)
H9_2 H 0.833(6) 0.389(5) 0.626(4)
H10A H 1.631(5) -0.325(5) 1.063(4)
H12A H 1.864(5) -0.212(4) 1.106(4)
H14_2 H 0.588(5) 0.461(4) 0.615(4)
H15A H 1.533(6) -0.179(5) 1.110(4)
O4 O 0.8671(4) 0.2701(4) 0.9244(3)
C13 C 0.8984(12) 0.3057(9) 1.0397(6)
C14 C 0.8563(14) 0.4314(9) 1.0789(7)
H16 H 0.822(7) 0.492(6) 1.016(5)
H17 H 0.946(7) 0.480(6) 1.137(5)
H18 H 0.756(7) 0.427(6) 1.109(5)
H19 H 0.850(7) 0.236(6) 1.067(5)
H20 H 1.018(7) 0.314(6) 1.076(5)
H21 H 0.834(7) 0.168(6) 0.885(5)
loop_
_geom_bond_atom_site_label_1
_geom_bond_atom_site_label_2
_geom_bond_site_symmetry_1
_geom_bond_site_symmetry_2
Cu1 Cl1 1_555 1_555
Cu2 Cl1 1_555 1_555
Cu3 Cl3 1_555 1_555
Cu4 Cl1 1_555 1_555
Cl2 Cu1 1_555 1_555
Cl3 Cu4_2 1_555 1_555
Cl4 Cu1 1_555 1_555
O1 C1 1_555 1_555
O2 C2 1_555 1_555
O3 C3 1_555 1_555
O4 C13 1_555 1_555
N1 C1 1_555 1_555
N2 Cu3 1_555 1_555
N3 C1 1_555 1_555
C2 N1 1_555 1_555
C3 N2 1_555 1_555
C4 O1 1_555 1_555
C5 Cu1 1_555 1_555
C6 Cu1 1_555 1_555
C7 O2 1_555 1_555
C8 C7 1_555 1_555
C9 C8 1_555 1_555
C10 O3 1_555 1_555
C11 C10 1_555 1_555
C12 C11 1_555 1_555
C13 C14 1_555 1_555
C14 H16 1_555 1_555
H1 C9 1_555 1_555
H2 C10 1_555 1_555
H3 C5 1_555 1_555
H4 C4 1_555 1_555
H5 C7 1_555 1_555
H6 C10 1_555 1_555
H7 C6 1_555 1_555
H8 C4 1_555 1_555
H9 C9 1_555 1_555
H10 C12 1_555 1_555
H11 C7 1_555 1_555
H12 C11 1_555 1_555
H13 C6 1_555 1_555
H14 C8 1_555 1_555
H15 C12 1_555 1_555
H17 C14 1_555 1_555
H18 C14 1_555 1_555
H19 C13 1_555 1_555
H20 C13 1_555 1_555
H21 O4 1_555 1_555
Cu2A Cl2 1_555 1_555
Cu2_2 C8 1_555 1_555
Cu3A C11 1_555 1_555
Cu4A Cl2 1_555 1_555
Cl2A Cu2 1_555 1_555
Cl3_2 Cu4 1_555 1_555
Cl4A Cu2 1_555 1_555
C8_2 Cu2 1_555 1_555
C9_2 Cu2 1_555 1_555
C11A Cu3 1_555 1_555
C12A Cu3 1_555 1_555
H1_2 C9_2 1_555 1_555
H9_2 C9_2 1_555 1_555
H10A C12A 1_555 1_555
H12A C11A 1_555 1_555
H14_2 C8_2 1_555 1_555
H15A C12A 1_555 1_555
Cu4 Cl4 1_555 1_555
Cu4 Cl2A 1_555 1_555
Cl4 Cu2A 1_555 1_555
N2 C2 1_555 1_555
N3 C3 1_555 1_555
C4 C5 1_555 1_555
C5 C6 1_555 1_555
C9 Cu2_2 1_555 1_555
C12 Cu3A 1_555 1_555
Cu4A Cl4A 1_555 1_555
C8_2 C9_2 1_555 1_555
C11A C12A 1_555 1_555

#END
