
#######################################################################
#
#                 Cambridge Crystallographic Data Centre
#                                CCDC 
#
#######################################################################
#
# If this CIF has been generated from an entry in the Cambridge 
# Structural Database, then it will include bibliographic, chemical, 
# crystal, experimental, refinement or atomic coordinate data resulting 
# from the CCDC's data processing and validation procedures.
#
#######################################################################

data_FAQTEY
_symmetry_cell_setting           monoclinic
_symmetry_space_group_name_H-M   'C 2/c'
_symmetry_Int_Tables_number      15
_space_group_name_Hall           '-C 2yn'
loop_
_symmetry_equiv_pos_site_id
_symmetry_equiv_pos_as_xyz
1 x,y,z
2 -x,y,1/2-z
3 1/2+x,1/2+y,z
4 1/2-x,1/2+y,1/2-z
5 -x,-y,-z
6 x,-y,1/2+z
7 1/2-x,1/2-y,-z
8 1/2+x,1/2-y,1/2+z
_cell_length_a                   18.247(2)
_cell_length_b                   11.2988(13)
_cell_length_c                   11.0198(13)
_cell_angle_alpha                90
_cell_angle_beta                 116.354(2)
_cell_angle_gamma                90
_cell_volume                     2035.82
loop_
_atom_site_label
_atom_site_type_symbol
_atom_site_fract_x
_atom_site_fract_y
_atom_site_fract_z
O1 O 0.09853(19) 0.0385(3) 0.4407(3)
Ni1 Ni 0.0000 0.03736(7) 0.2500
P1 P 0.18283(7) 0.09286(11) 0.49054(12)
O2 O 0.0790(2) 0.0448(3) 0.1601(4)
N1 N 0.0000 0.2229(5) 0.2500
O3 O 0.2073(2) 0.1271(3) 0.3811(3)
N2 N 0.0000 0.8518(5) 0.2500
O4 O 0.1865(2) 0.2038(3) 0.5801(4)
C1 C 0.0000 0.4731(6) 0.2500
C2 C 0.0000 0.6039(6) 0.2500
C3 C 0.0149(3) 0.2856(5) 0.1597(6)
C4 C 0.2569(3) -0.0107(5) 0.6081(5)
C5 C 0.2524(3) -0.1337(5) 0.5497(5)
C6 C -0.0522(3) 0.6682(4) 0.2863(5)
C7 C 0.2855(3) -0.1571(5) 0.4590(6)
C8 C 0.2172(3) -0.2271(5) 0.5896(6)
C9 C 0.0168(4) 0.4083(5) 0.1581(6)
C10 C -0.0517(3) 0.7907(4) 0.2830(5)
O1F O 0.40147(19) -0.5385(3) 0.5593(3)
O1A O -0.09853(19) 0.0385(3) 0.0593(3)
Ni1_2 Ni 0.0000 1.03736(7) 0.2500
Ni1F Ni 0.5000 -0.53736(7) 0.7500
P1F P 0.31717(7) -0.59286(11) 0.50946(12)
O2A O -0.0790(2) 0.0448(3) 0.3399(4)
O3F O 0.2927(2) -0.6271(3) 0.6189(3)
N2_2 N 0.0000 -0.1482(5) 0.2500
O4F O 0.3135(2) -0.7038(3) 0.4199(4)
C3A C -0.0149(3) 0.2856(5) 0.3403(6)
C4F C 0.2431(3) -0.4893(5) 0.3919(5)
C5F C 0.2476(3) -0.3663(5) 0.4503(5)
C6A C 0.0522(3) 0.6682(4) 0.2137(5)
C7F C 0.2145(3) -0.3429(5) 0.5410(6)
C8F C 0.2828(3) -0.2729(5) 0.4104(6)
C9A C -0.0168(4) 0.4083(5) 0.3419(6)
C10A C 0.0517(3) 0.7907(4) 0.2170(5)
loop_
_geom_bond_atom_site_label_1
_geom_bond_atom_site_label_2
_geom_bond_site_symmetry_1
_geom_bond_site_symmetry_2
O1 Ni1 1_555 1_555
Ni1 O2 1_555 1_555
P1 O1 1_555 1_555
N1 Ni1 1_555 1_555
O3 P1 1_555 1_555
N2 C10 1_555 1_555
O4 P1 1_555 1_555
C1 C2 1_555 1_555
C2 C6 1_555 1_555
C3 N1 1_555 1_555
C4 P1 1_555 1_555
C5 C4 1_555 1_555
C6 C10 1_555 1_555
C7 C5 1_555 1_555
C8 C5 1_555 1_555
C9 C1 1_555 1_555
O1F Ni1F 1_555 1_555
O1A Ni1 1_555 1_555
Ni1_2 N2 1_555 1_555
P1F O1F 1_555 1_555
O2A Ni1 1_555 1_555
O3F P1F 1_555 1_555
N2_2 Ni1 1_555 1_555
O4F P1F 1_555 1_555
C3A N1 1_555 1_555
C4F P1F 1_555 1_555
C5F C4F 1_555 1_555
C6A C2 1_555 1_555
C7F C8 1_555 1_555
C8F C7 1_555 1_555
C9A C1 1_555 1_555
C10A N2 1_555 1_555
C3 C9 1_555 1_555
C3A C9A 1_555 1_555
C5F C7F 1_555 1_555
C5F C8F 1_555 1_555
C6A C10A 1_555 1_555

#END
