
#######################################################################
#
#                 Cambridge Crystallographic Data Centre
#                                CCDC 
#
#######################################################################
#
# If this CIF has been generated from an entry in the Cambridge 
# Structural Database, then it will include bibliographic, chemical, 
# crystal, experimental, refinement or atomic coordinate data resulting 
# from the CCDC's data processing and validation procedures.
#
#######################################################################

data_FAQVEY
_symmetry_cell_setting           triclinic
_symmetry_space_group_name_H-M   'P -1'
_symmetry_Int_Tables_number      2
_space_group_name_Hall           '-P 1'
loop_
_symmetry_equiv_pos_site_id
_symmetry_equiv_pos_as_xyz
1 x,y,z
2 -x,-y,-z
_cell_length_a                   8.373(3)
_cell_length_b                   8.509(3)
_cell_length_c                   9.800(7)
_cell_angle_alpha                102.71(4)
_cell_angle_beta                 100.67(4)
_cell_angle_gamma                118.07(3)
_cell_volume                     566.177
loop_
_atom_site_label
_atom_site_type_symbol
_atom_site_fract_x
_atom_site_fract_y
_atom_site_fract_z
Hg1 Hg -0.03289(5) -0.21551(4) 0.06158(4)
Cl1 Cl -0.2091(2) -0.0381(2) 0.0527(2)
Cl2 Cl -0.1977(2) -0.5099(2) -0.1413(2)
S1 S -0.3716(3) -0.4946(2) 0.1706(2)
S2 S -0.2777(3) -0.6230(2) 0.4770(2)
S3 S -0.2816(3) -0.1459(2) 0.3975(2)
S4 S -0.2035(3) -0.2501(2) 0.6467(2)
S5 S -0.1848(3) 0.1201(2) 0.6896(2)
C1 C -0.2724(9) -0.4181(8) 0.4744(7)
C2 C -0.3095(9) -0.3659(9) 0.3570(7)
C3 C -0.2176(9) -0.0860(9) 0.5846(8)
C4 C -0.271(1) -0.637(1) 0.1921(9)
C5 C -0.349(1) -0.755(1) 0.2796(9)
H1 H -0.29627 -0.71736 0.0964
H2 H -0.13565 -0.55369 0.24027
H3 H -0.30706 -0.84177 0.2711
H4 H -0.48549 -0.82448 0.23918
Hg1A Hg 0.03289(5) 0.21551(4) -0.06158(4)
Cl1A Cl 0.2091(2) 0.0381(2) -0.0527(2)
S5A S 0.1848(3) -0.1201(2) 0.3104(2)
Hg1A_2 Hg 0.03289(5) 0.21551(4) 0.93842(4)
loop_
_geom_bond_atom_site_label_1
_geom_bond_atom_site_label_2
_geom_bond_site_symmetry_1
_geom_bond_site_symmetry_2
Hg1 Cl1 1_555 1_555
Cl1 Hg1A 1_555 1_555
Cl2 Hg1 1_555 1_555
S1 Hg1 1_555 1_555
S2 C1 1_555 1_555
S3 C2 1_555 1_555
S4 C1 1_555 1_555
S5 C3 1_555 1_555
C1 C2 1_555 1_555
C2 S1 1_555 1_555
C3 S3 1_555 1_555
C4 S1 1_555 1_555
C5 S2 1_555 1_555
H1 C4 1_555 1_555
H2 C4 1_555 1_555
H3 C5 1_555 1_555
H4 C5 1_555 1_555
Hg1A Cl1A 1_555 1_555
Cl1A Hg1 1_555 1_555
S5A Hg1 1_555 1_555
Hg1A_2 S5 1_555 1_555
S4 C3 1_555 1_555
C4 C5 1_555 1_555

#END
