
#######################################################################
#
#                 Cambridge Crystallographic Data Centre
#                                CCDC 
#
#######################################################################
#
# If this CIF has been generated from an entry in the Cambridge 
# Structural Database, then it will include bibliographic, chemical, 
# crystal, experimental, refinement or atomic coordinate data resulting 
# from the CCDC's data processing and validation procedures.
#
#######################################################################

data_FAQVUQ
_symmetry_cell_setting           monoclinic
_symmetry_space_group_name_H-M   'P 21/c'
_symmetry_Int_Tables_number      14
_space_group_name_Hall           '-P 2ybc'
loop_
_symmetry_equiv_pos_site_id
_symmetry_equiv_pos_as_xyz
1 x,y,z
2 -x,1/2+y,1/2-z
3 -x,-y,-z
4 x,1/2-y,1/2+z
_cell_length_a                   8.6676(14)
_cell_length_b                   10.1917(16)
_cell_length_c                   7.5121(12)
_cell_angle_alpha                90
_cell_angle_beta                 95.644(3)
_cell_angle_gamma                90
_cell_volume                     660.384
loop_
_atom_site_label
_atom_site_type_symbol
_atom_site_fract_x
_atom_site_fract_y
_atom_site_fract_z
Cd1 Cd 1.0000 1.0000 1.0000
S1 S 0.73758(8) 0.45957(7) 0.81688(9)
O1 O 0.8886(2) 0.43424(19) 0.7522(2)
O2 O 0.7202(2) 0.37678(19) 0.9734(3)
O3 O 0.6099(2) 0.4488(2) 0.6799(3)
O4 O 0.7979(3) 1.1127(2) 0.8423(3)
H1 H 0.781(4) 1.110(4) 0.735(3)
H2 H 0.771(4) 1.180(3) 0.884(5)
C1 C 0.6247(3) 0.7117(3) 0.8754(5)
H3 H 0.5203 0.6930 0.8459
C2 C 0.7451(3) 0.6241(3) 0.8825(4)
C3 C 0.8763(3) 0.6981(3) 0.9343(4)
H4 H 0.9764 0.6646 0.9514
N1 N 0.8397(3) 0.8229(2) 0.9562(3)
N2 N 0.6857(3) 0.8285(2) 0.9187(3)
H5 H 0.6324 0.8994 0.9223
Cd1A Cd 1.0000 0.5000 0.5000
Cd1A_2 Cd 1.0000 1.5000 1.5000
S1B S 1.26242(8) 1.54043(7) 1.18312(9)
O1B O 1.1114(2) 1.56576(19) 1.2478(2)
O1A O 1.1114(2) 0.93424(19) 0.7478(2)
O1C O 0.8886(2) 1.06576(19) 1.2522(2)
O2B O 1.2798(2) 1.62322(19) 1.0266(3)
O3B O 1.3901(2) 1.5512(2) 1.3201(3)
O4B O 1.2021(3) 0.8873(2) 1.1577(3)
H1B H 1.219(4) 0.890(4) 1.265(3)
H2B H 1.229(4) 0.820(3) 1.116(5)
C1B C 1.3753(3) 1.2883(3) 1.1246(5)
H3B H 1.4797 1.3070 1.1541
C2B C 1.2549(3) 1.3759(3) 1.1175(4)
C3B C 1.1237(3) 1.3019(3) 1.0657(4)
H4B H 1.0236 1.3354 1.0486
N1B N 1.1603(3) 1.1771(2) 1.0438(3)
N2B N 1.3143(3) 1.1715(2) 1.0813(3)
H5B H 1.3676 1.1006 1.0777
loop_
_geom_bond_atom_site_label_1
_geom_bond_atom_site_label_2
_geom_bond_site_symmetry_1
_geom_bond_site_symmetry_2
Cd1 O4 1_555 1_555
S1 O1 1_555 1_555
O1 Cd1A 1_555 1_555
O2 S1 1_555 1_555
O3 S1 1_555 1_555
O4 H1 1_555 1_555
H2 O4 1_555 1_555
C1 H3 1_555 1_555
C2 S1 1_555 1_555
C3 C2 1_555 1_555
H4 C3 1_555 1_555
N1 Cd1 1_555 1_555
N2 C1 1_555 1_555
H5 N2 1_555 1_555
Cd1A_2 O1B 1_555 1_555
S1B O1B 1_555 1_555
O1A Cd1 1_555 1_555
O1C Cd1 1_555 1_555
O2B S1B 1_555 1_555
O3B S1B 1_555 1_555
O4B Cd1 1_555 1_555
H1B O4B 1_555 1_555
H2B O4B 1_555 1_555
C1B H3B 1_555 1_555
C2B S1B 1_555 1_555
C3B C2B 1_555 1_555
H4B C3B 1_555 1_555
N1B Cd1 1_555 1_555
N2B C1B 1_555 1_555
H5B N2B 1_555 1_555
C1 C2 1_555 1_555
C3 N1 1_555 1_555
N1 N2 1_555 1_555
C1B C2B 1_555 1_555
C3B N1B 1_555 1_555
N1B N2B 1_555 1_555

#END
