
#######################################################################
#
#                 Cambridge Crystallographic Data Centre
#                                CCDC 
#
#######################################################################
#
# If this CIF has been generated from an entry in the Cambridge 
# Structural Database, then it will include bibliographic, chemical, 
# crystal, experimental, refinement or atomic coordinate data resulting 
# from the CCDC's data processing and validation procedures.
#
#######################################################################

data_FAQXOL
_symmetry_cell_setting           monoclinic
_symmetry_space_group_name_H-M   'P 21'
_symmetry_Int_Tables_number      4
_space_group_name_Hall           'P 2yb'
loop_
_symmetry_equiv_pos_site_id
_symmetry_equiv_pos_as_xyz
1 x,y,z
2 -x,1/2+y,-z
_cell_length_a                   5.9362(2)
_cell_length_b                   10.1204(4)
_cell_length_c                   11.9417(4)
_cell_angle_alpha                90
_cell_angle_beta                 94.3770(10)
_cell_angle_gamma                90
_cell_volume                     715.326
loop_
_atom_site_label
_atom_site_type_symbol
_atom_site_fract_x
_atom_site_fract_y
_atom_site_fract_z
Cu1 Cu 0.62326(4) 0.36022(4) 0.87599(2)
O1 O 0.5212(4) 0.5545(2) 0.77780(18)
H1 H 0.496(6) 0.611(4) 0.811(3)
C1 C 0.3956(5) 0.5324(3) 0.6784(2)
C2 C 0.2020(5) 0.6056(3) 0.6468(3)
H2 H 0.1527 0.6722 0.6940
C3 C 0.0826(6) 0.5784(4) 0.5442(3)
H3 H -0.0440 0.6299 0.5205
C4 C 0.1484(6) 0.4776(4) 0.4777(3)
H4 H 0.0630 0.4575 0.4104
C5 C 0.3401(6) 0.4053(3) 0.5095(2)
H5 H 0.3841 0.3367 0.4628
C6 C 0.4698(5) 0.4319(3) 0.6094(2)
C7 C 0.6880(4) 0.3604(5) 0.63804(19)
H6 H 0.7255 0.3095 0.5722
H7 H 0.8076 0.4261 0.6532
N1 N 0.6896(3) 0.2693(2) 0.73566(17)
H8 H 0.820(6) 0.249(4) 0.740(3)
C8 C 0.5278(4) 0.1585(2) 0.7220(2)
H9 H 0.5079 0.1315 0.6421
C9 C 0.3036(4) 0.2028(3) 0.7625(2)
O2 O 0.3173(3) 0.2881(2) 0.84301(16)
O3 O 0.1268(3) 0.1541(3) 0.7216(2)
C10 C 0.6237(4) 0.0438(3) 0.7942(2)
H10 H 0.7746 0.0228 0.7714
H11 H 0.6410 0.0732 0.8726
C11 C 0.4822(6) -0.0822(3) 0.7881(2)
H12 H 0.3388 -0.0637 0.7448
H13 H 0.5620 -0.1493 0.7471
C12 C 0.4317(4) -0.1387(4) 0.90039(17)
O4 O 0.4534(3) -0.06328(19) 0.98467(15)
O5 O 0.3650(4) -0.2568(2) 0.90452(18)
O6 O 0.9392(3) 0.4120(2) 0.9126(2)
H14 H 1.051(4) 0.395(3) 0.881(3)
H15 H 0.953(6) 0.488(2) 0.922(3)
Cu1A Cu 0.37674(4) -0.13978(4) 1.12401(2)
O4A O 0.5466(3) 0.43672(19) 1.01533(15)
O7 O -0.0733(6) -0.3340(4) 0.9523(4)
H16 H 0.008(7) -0.369(4) 1.006(3)
H17 H 0.029(5) -0.282(3) 0.940(3)
loop_
_geom_bond_atom_site_label_1
_geom_bond_atom_site_label_2
_geom_bond_site_symmetry_1
_geom_bond_site_symmetry_2
Cu1 O1 1_555 1_555
O1 H1 1_555 1_555
C1 O1 1_555 1_555
C2 C1 1_555 1_555
H2 C2 1_555 1_555
C3 C2 1_555 1_555
H3 C3 1_555 1_555
C4 C3 1_555 1_555
H4 C4 1_555 1_555
C5 C4 1_555 1_555
H5 C5 1_555 1_555
C6 C1 1_555 1_555
C7 C6 1_555 1_555
H6 C7 1_555 1_555
H7 C7 1_555 1_555
N1 Cu1 1_555 1_555
H8 N1 1_555 1_555
C8 N1 1_555 1_555
H9 C8 1_555 1_555
C9 C8 1_555 1_555
O2 Cu1 1_555 1_555
O3 C9 1_555 1_555
C10 C8 1_555 1_555
H10 C10 1_555 1_555
H11 C10 1_555 1_555
C11 C10 1_555 1_555
H12 C11 1_555 1_555
H13 C11 1_555 1_555
C12 C11 1_555 1_555
O4 C12 1_555 1_555
O5 C12 1_555 1_555
O6 Cu1 1_555 1_555
H14 O6 1_555 1_555
H15 O6 1_555 1_555
O7 H16 1_555 1_555
H17 O7 1_555 1_555
Cu1A O4 1_555 1_555
O4A Cu1 1_555 1_555
C5 C6 1_555 1_555
C7 N1 1_555 1_555
C9 O2 1_555 1_555

#END
