
#######################################################################
#
#                 Cambridge Crystallographic Data Centre
#                                CCDC 
#
#######################################################################
#
# If this CIF has been generated from an entry in the Cambridge 
# Structural Database, then it will include bibliographic, chemical, 
# crystal, experimental, refinement or atomic coordinate data resulting 
# from the CCDC's data processing and validation procedures.
#
#######################################################################

data_FAQXIF
_symmetry_cell_setting           monoclinic
_symmetry_space_group_name_H-M   'P 21'
_symmetry_Int_Tables_number      4
_space_group_name_Hall           'P 2yb'
loop_
_symmetry_equiv_pos_site_id
_symmetry_equiv_pos_as_xyz
1 x,y,z
2 -x,1/2+y,-z
_cell_length_a                   17.1354(11)
_cell_length_b                   6.1945(4)
_cell_length_c                   17.1598(12)
_cell_angle_alpha                90
_cell_angle_beta                 101.220(2)
_cell_angle_gamma                90
_cell_volume                     1786.62
loop_
_atom_site_label
_atom_site_type_symbol
_atom_site_fract_x
_atom_site_fract_y
_atom_site_fract_z
Ni1 Ni 0.36397(3) 1.11462(10) 0.74896(4)
Ni2 Ni 0.21884(4) 1.32191(10) 0.31248(4)
O1 O 0.34402(19) 1.0820(7) 0.8646(2)
H1 H 0.3778 1.1472 0.9071
C1 C 0.2802(3) 0.9626(12) 0.8767(4)
C2 C 0.2876(4) 0.7972(16) 0.9298(4)
H2 H 0.3369 0.7645 0.9610
C3 C 0.2207(6) 0.678(2) 0.9368(5)
H3 H 0.2255 0.5641 0.9728
C4 C 0.1493(5) 0.7235(18) 0.8924(5)
H4 H 0.1053 0.6392 0.8964
C5 C 0.1412(4) 0.8967(15) 0.8405(5)
H5 H 0.0912 0.9307 0.8112
C6 C 0.2062(3) 1.0205(13) 0.8315(4)
C7 C 0.2001(3) 1.2071(11) 0.7754(4)
H6 H 0.1444 1.2340 0.7534
H7 H 0.2214 1.3347 0.8048
N1 N 0.2429(2) 1.1720(7) 0.7098(3)
H8 H 0.2381 1.2949 0.6802
C8 C 0.2086(3) 0.9952(9) 0.6570(3)
H9 H 0.1547 0.9687 0.6660
C9 C 0.2567(3) 0.7864(8) 0.6771(3)
O2 O 0.32624(18) 0.8072(6) 0.7182(2)
O3 O 0.2266(2) 0.6189(7) 0.6489(2)
C10 C 0.2022(3) 1.0542(9) 0.5703(3)
H10 H 0.2492 1.1376 0.5664
H11 H 0.2055 0.9207 0.5416
C11 C 0.1356(5) 1.1698(16) 0.5282(5)
H12 H 0.1338 1.3083 0.5542
H13 H 0.0879 1.0915 0.5338
C12 C 0.1314(5) 1.2111(17) 0.4413(5)
O4 O 0.0659(4) 1.1869(14) 0.3928(5)
O6 O 0.1959(2) 1.2341(8) 0.4208(2)
O7 O 0.9011(2) 0.7613(7) 0.7374(2)
H14 H 0.9417 0.8161 0.7142
C15 C 0.9179(3) 0.6391(11) 0.8049(3)
C16 C 0.9647(3) 0.4625(12) 0.8106(4)
H15 H 0.9875 0.4204 0.7680
C17 C 0.9787(3) 0.3426(12) 0.8816(4)
H16 H 1.0104 0.2196 0.8860
C18 C 0.9459(3) 0.4068(12) 0.9438(4)
H17 H 0.9556 0.3288 0.9910
C19 C 0.8991(3) 0.5837(11) 0.9371(3)
H18 H 0.8760 0.6238 0.9797
C20 C 0.8844(3) 0.7082(10) 0.8679(3)
C21 C 0.8325(3) 0.9085(9) 0.8598(3)
H19 H 0.8195 0.9433 0.9109
H20 H 0.8615 1.0293 0.8435
N2 N 0.7581(2) 0.8750(7) 0.8007(2)
H21 H 0.7286 0.9977 0.7989
C22 C 0.7099(3) 0.6952(9) 0.8217(3)
H22 H 0.7288 0.6625 0.8781
C23 C 0.7212(3) 0.4936(9) 0.7745(3)
O8 O 0.7507(2) 0.5150(6) 0.7132(2)
O9 O 0.6987(2) 0.3203(7) 0.7978(2)
C24 C 0.6216(3) 0.7491(8) 0.8099(3)
H23 H 0.6041 0.8072 0.7569
H24 H 0.5921 0.6171 0.8136
C25 C 0.6020(3) 0.9106(9) 0.8701(3)
H25 H 0.6191 0.8525 0.9232
H26 H 0.6314 1.0429 0.8666
C26 C 0.5146(3) 0.9616(9) 0.8570(3)
O10 O 0.48028(19) 1.0227(7) 0.7895(2)
O11 O 0.4809(2) 0.9471(8) 0.9157(2)
O12 O 0.3981(2) 1.1578(6) 0.6419(2)
H27 H 0.402(3) 1.057(3) 0.6056(16)
H28 H 0.403(3) 1.281(2) 0.6169(17)
O13 O 0.3971(3) 1.4268(6) 0.7758(3)
H29 H 0.378(2) 1.548(2) 0.751(2)
H30 H 0.427(3) 1.476(3) 0.8211(16)
O14 O 0.3323(2) 1.3855(6) 0.3754(2)
H31 H 0.3582(14) 1.510(3) 0.380(3)
H32 H 0.3707(13) 1.288(3) 0.390(3)
O15 O 0.1882(2) 1.6317(7) 0.3332(3)
H33 H 0.181(3) 1.689(4) 0.3796(11)
H34 H 0.189(4) 1.749(3) 0.3026(19)
Ni2A Ni 0.78116(4) 0.82191(10) 0.68752(4)
O7A O 0.0989(2) 1.2613(7) 0.2626(2)
H14A H 0.0583 1.3161 0.2858
N2A N 0.2419(2) 1.3750(7) 0.1993(2)
H21A H 0.2714 1.4977 0.2011
O8A O 0.2493(2) 1.0150(6) 0.2868(2)
O16 O 0.4285(3) 0.8201(8) 0.5516(3)
H35 H 0.431(3) 0.862(8) 0.5020(11)
H36 H 0.394(3) 0.712(6) 0.538(3)
O17 O 0.5617(2) 0.5580(8) 0.5830(3)
H37 H 0.5149(17) 0.628(8) 0.574(3)
H38 H 0.551(3) 0.466(7) 0.620(3)
O18 O 0.3239(3) 1.4848(7) 0.5413(3)
H39 H 0.294(2) 1.422(9) 0.499(2)
H40 H 0.2831(19) 1.533(9) 0.563(3)
O19 O 0.5765(2) 0.2016(7) 0.6785(3)
H41 H 0.613(2) 0.221(9) 0.7230(15)
H42 H 0.542(2) 0.132(9) 0.702(2)
O20 O 0.4888(5) 1.4771(12) 0.9212(4)
O21 O 0.0671(9) 1.580(3) 0.5685(10)
H43 H 0.066(3) 1.521(8) 0.6165(13)
H44 H 0.055(3) 1.455(5) 0.543(2)
O22 O 0.0468(8) 1.674(2) 0.3910(9)
H45 H 0.055(3) 1.544(5) 0.414(3)
H46 H 0.014(2) 1.626(8) 0.3470(17)
C13? C 0.1437(8) 0.968(2) 0.5118(7)
C14? C 0.1421(7) 1.085(2) 0.4323(7)
O5? O 0.0800(5) 1.0418(17) 0.3821(6)
loop_
_geom_bond_atom_site_label_1
_geom_bond_atom_site_label_2
_geom_bond_site_symmetry_1
_geom_bond_site_symmetry_2
Ni1 O1 1_555 1_555
Ni2 O6 1_555 1_555
O1 H1 1_555 1_555
C1 O1 1_555 1_555
C2 C1 1_555 1_555
H2 C2 1_555 1_555
C3 C2 1_555 1_555
H3 C3 1_555 1_555
C4 C3 1_555 1_555
H4 C4 1_555 1_555
C5 C4 1_555 1_555
H5 C5 1_555 1_555
C6 C1 1_555 1_555
C7 C6 1_555 1_555
H6 C7 1_555 1_555
H7 C7 1_555 1_555
N1 Ni1 1_555 1_555
H8 N1 1_555 1_555
C8 N1 1_555 1_555
H9 C8 1_555 1_555
C9 C8 1_555 1_555
O2 Ni1 1_555 1_555
O3 C9 1_555 1_555
C10 C8 1_555 1_555
H10 C10 1_555 1_555
H11 C10 1_555 1_555
C11 C10 1_555 1_555
H12 C11 1_555 1_555
H13 C11 1_555 1_555
C12 C11 1_555 1_555
O4 C12 1_555 1_555
O6 C12 1_555 1_555
O7 H14 1_555 1_555
C15 O7 1_555 1_555
C16 C15 1_555 1_555
H15 C16 1_555 1_555
C17 C16 1_555 1_555
H16 C17 1_555 1_555
C18 C17 1_555 1_555
H17 C18 1_555 1_555
C19 C18 1_555 1_555
H18 C19 1_555 1_555
C20 C15 1_555 1_555
C21 C20 1_555 1_555
H19 C21 1_555 1_555
H20 C21 1_555 1_555
N2 C21 1_555 1_555
H21 N2 1_555 1_555
C22 N2 1_555 1_555
H22 C22 1_555 1_555
C23 C22 1_555 1_555
O8 C23 1_555 1_555
O9 C23 1_555 1_555
C24 C22 1_555 1_555
H23 C24 1_555 1_555
H24 C24 1_555 1_555
C25 C24 1_555 1_555
H25 C25 1_555 1_555
H26 C25 1_555 1_555
C26 C25 1_555 1_555
O10 Ni1 1_555 1_555
O11 C26 1_555 1_555
O12 Ni1 1_555 1_555
H27 O12 1_555 1_555
H28 O12 1_555 1_555
O13 Ni1 1_555 1_555
H29 O13 1_555 1_555
H30 O13 1_555 1_555
O14 Ni2 1_555 1_555
H31 O14 1_555 1_555
H32 O14 1_555 1_555
O15 Ni2 1_555 1_555
H33 O15 1_555 1_555
H34 O15 1_555 1_555
O16 H35 1_555 1_555
H36 O16 1_555 1_555
O17 H37 1_555 1_555
H38 O17 1_555 1_555
O18 H39 1_555 1_555
H40 O18 1_555 1_555
O19 H41 1_555 1_555
H42 O19 1_555 1_555
O21 H43 1_555 1_555
H44 O21 1_555 1_555
O22 H45 1_555 1_555
H46 O22 1_555 1_555
Ni2A O7 1_555 1_555
O7A Ni2 1_555 1_555
H14A O7A 1_555 1_555
N2A Ni2 1_555 1_555
H21A N2A 1_555 1_555
O8A Ni2 1_555 1_555
C5 C6 1_555 1_555
C7 N1 1_555 1_555
C9 O2 1_555 1_555
C19 C20 1_555 1_555
N2 Ni2A 1_555 1_555
O8 Ni2A 1_555 1_555
C26 O10 1_555 1_555

#END
