
#######################################################################
#
#                 Cambridge Crystallographic Data Centre
#                                CCDC 
#
#######################################################################
#
# If this CIF has been generated from an entry in the Cambridge 
# Structural Database, then it will include bibliographic, chemical, 
# crystal, experimental, refinement or atomic coordinate data resulting 
# from the CCDC's data processing and validation procedures.
#
#######################################################################

data_FARGOV
_symmetry_cell_setting           monoclinic
_symmetry_space_group_name_H-M   'P 21/c'
_symmetry_Int_Tables_number      14
_space_group_name_Hall           '-P 2ybc'
loop_
_symmetry_equiv_pos_site_id
_symmetry_equiv_pos_as_xyz
1 x,y,z
2 -x,1/2+y,1/2-z
3 -x,-y,-z
4 x,1/2-y,1/2+z
_cell_length_a                   18.6339(16)
_cell_length_b                   25.6027(14)
_cell_length_c                   14.4414(11)
_cell_angle_alpha                90
_cell_angle_beta                 99.762(10)
_cell_angle_gamma                90
_cell_volume                     6789.92
loop_
_atom_site_label
_atom_site_type_symbol
_atom_site_fract_x
_atom_site_fract_y
_atom_site_fract_z
Cu1 Cu 0.00059(4) -0.38821(3) 0.13584(6)
Cu2 Cu -0.00341(4) -0.37476(3) 0.32241(6)
Ba1 Ba -0.447870(18) -0.653020(12) 0.06240(3)
Ba2 Ba -0.461440(18) -0.412020(12) 0.48368(4)
S1 S -0.32117(8) -0.54197(5) 0.00365(12)
S2 S -0.36245(8) -0.29383(6) 0.36792(16)
N1 N 0.0972(3) -0.41894(15) 0.2093(4)
N2 N 0.0783(3) -0.32497(15) 0.2919(4)
N3 N -0.0159(3) -0.46571(15) 0.1085(4)
N4 N -0.0461(3) -0.30444(15) 0.3467(4)
O1 O -0.32599(19) -0.59176(13) 0.0505(4)
O2 O -0.3636(2) -0.50130(14) 0.0385(4)
O3 O -0.3372(3) -0.54678(15) -0.0981(4)
O4 O -0.3771(3) -0.33729(19) 0.4248(5)
O5 O -0.3738(3) -0.24429(18) 0.4141(5)
O6 O -0.4012(3) -0.2960(3) 0.2741(5)
C1 C 0.1565(3) -0.39230(19) 0.2507(4)
C2 C 0.1464(3) -0.33969(18) 0.2821(5)
C3 C 0.0677(3) -0.27525(18) 0.3176(5)
C4 C 0.1238(3) -0.23817(19) 0.3316(5)
C5 C 0.1936(3) -0.2543(2) 0.3277(5)
C6 C 0.2069(3) -0.3065(2) 0.3062(5)
C7 C 0.2789(3) -0.3281(3) 0.3105(5)
C8 C 0.2884(3) -0.3792(3) 0.2938(5)
C9 C 0.2277(3) -0.4136(2) 0.2623(5)
C10 C 0.2340(3) -0.4670(2) 0.2436(5)
C11 C 0.1728(3) -0.49527(19) 0.2086(5)
C12 C 0.1061(3) -0.46978(18) 0.1876(5)
C13 C 0.0387(3) -0.49498(18) 0.1409(5)
C14 C -0.0863(3) -0.48821(18) 0.0783(5)
C15 C -0.1368(3) -0.45864(18) 0.0179(5)
C16 C -0.2083(3) -0.47573(18) -0.0068(5)
C17 C -0.2293(3) -0.52219(18) 0.0305(5)
C18 C -0.1790(3) -0.55193(18) 0.0912(5)
C19 C -0.1073(3) -0.53522(18) 0.1145(5)
C20 C -0.0061(3) -0.26479(18) 0.3350(5)
C21 C -0.1214(3) -0.29865(17) 0.3554(5)
C22 C -0.1501(3) -0.33522(18) 0.4101(5)
C23 C -0.2242(3) -0.33365(18) 0.4146(5)
C24 C -0.2681(3) -0.29636(19) 0.3629(5)
C25 C -0.2392(3) -0.26015(19) 0.3086(5)
C26 C -0.1653(3) -0.26106(18) 0.3039(5)
S3 S 0.34718(7) -0.46282(5) 0.56366(12)
S4 S 0.32613(8) -0.24888(5) 0.06838(12)
O7 O 0.3537(2) -0.43785(15) 0.6552(4)
O8 O 0.3874(2) -0.43466(15) 0.5013(4)
O9 O 0.3643(2) -0.51826(13) 0.5700(4)
O10 O 0.3272(3) -0.19243(13) 0.0617(4)
O11 O 0.35130(19) -0.27508(14) -0.0099(4)
O12 O 0.3638(2) -0.26749(15) 0.1595(4)
N5 N -0.0892(3) -0.42545(14) 0.2745(4)
N6 N -0.0982(3) -0.34930(15) 0.1387(4)
N7 N 0.0350(3) -0.44044(14) 0.3901(4)
N8 N 0.0212(3) -0.31960(15) 0.0752(4)
C27 C -0.1551(3) -0.41285(18) 0.2242(5)
C28 C -0.1608(3) -0.36960(18) 0.1619(5)
C29 C -0.1033(3) -0.30704(18) 0.0832(5)
C30 C -0.1696(3) -0.2824(3) 0.0490(5)
C31 C -0.2332(3) -0.3049(3) 0.0667(5)
C32 C -0.2304(3) -0.34991(19) 0.1220(5)
C33 C -0.2943(3) -0.3766(3) 0.1408(5)
C34 C -0.2890(3) -0.4201(2) 0.1920(5)
C35 C -0.2195(3) -0.44067(18) 0.2353(5)
C36 C -0.2110(3) -0.4874(2) 0.2864(5)
C37 C -0.1431(3) -0.50244(19) 0.3305(5)
C38 C -0.0834(3) -0.46941(17) 0.3262(4)
C39 C -0.0109(3) -0.47890(18) 0.3810(5)
C40 C 0.1086(3) -0.44849(18) 0.4346(5)
C41 C 0.1461(3) -0.40556(17) 0.4756(5)
C42 C 0.2189(3) -0.40995(17) 0.5147(5)
C43 C 0.2544(3) -0.45821(18) 0.5133(5)
C44 C 0.2168(3) -0.50127(18) 0.4703(5)
C45 C 0.1439(3) -0.49707(17) 0.4312(5)
C46 C -0.0345(3) -0.28841(19) 0.0594(5)
C47 C 0.0915(3) -0.30011(18) 0.0654(5)
C48 C 0.1430(3) -0.33533(18) 0.0436(5)
C49 C 0.2133(3) -0.31963(18) 0.0414(5)
C50 C 0.2340(3) -0.26797(18) 0.0633(5)
C51 C 0.1826(3) -0.23253(18) 0.0865(5)
C52 C 0.1120(3) -0.24825(19) 0.0868(5)
Cl1 Cl -0.29419(11) -0.37528(8) 0.68091(18)
O13 O -0.2279(4) -0.3643(4) 0.6540(7)
O14 O -0.2811(4) -0.3889(3) 0.7758(6)
O15 O -0.3291(3) -0.4154(2) 0.6241(5)
O16 O -0.3427(4) -0.3326(3) 0.6732(7)
O21 O -0.4632(3) -0.74119(15) 0.1770(4)
O22 O -0.5469(3) -0.71541(19) -0.0582(5)
O23 O -0.5708(3) -0.64105(18) 0.1474(6)
O24 O -0.5253(3) -0.57398(18) -0.0426(5)
O25 O -0.4389(3) -0.55363(17) 0.1665(4)
O26 O -0.3426(3) -0.65849(16) 0.2307(5)
O27 O -0.4260(3) -0.63642(14) -0.1327(4)
O28 O -0.5445(3) -0.50051(15) 0.3921(4)
O29 O -0.5555(3) -0.33108(16) 0.4386(5)
O30 O -0.5035(3) -0.3720(3) 0.6452(5)
O31 O -0.4705(4) -0.4033(2) 0.2794(5)
H1 H 0.11354 -0.20140 0.34337
H2 H 0.23422 -0.22965 0.34001
H3 H 0.32161 -0.30535 0.32542
H4 H 0.33780 -0.39346 0.30337
H5 H 0.28167 -0.48382 0.25541
H6 H 0.17620 -0.53304 0.19882
H7 H 0.03562 -0.53306 0.13421
H8 H -0.12178 -0.42541 -0.00684
H9 H -0.24377 -0.45532 -0.04999
H10 H -0.19442 -0.58464 0.11722
H11 H -0.07186 -0.55644 0.15616
H12 H -0.02441 -0.22907 0.33790
H13 H -0.11887 -0.36195 0.44437
H14 H -0.24499 -0.35866 0.45391
H15 H -0.27076 -0.23401 0.27273
H16 H -0.14423 -0.23553 0.26559
H17 H -0.17088 -0.24972 0.01347
H18 H -0.28019 -0.28957 0.04005
H19 H -0.34238 -0.36242 0.11565
H20 H -0.33370 -0.43848 0.20066
H21 H -0.25325 -0.50937 0.29007
H22 H -0.13647 -0.53561 0.36481
H23 H 0.00235 -0.51314 0.40921
H24 H 0.12108 -0.37200 0.47716
H25 H 0.24575 -0.37955 0.54370
H26 H 0.24202 -0.53462 0.46840
H27 H 0.11743 -0.52720 0.40113
H28 H -0.03069 -0.25352 0.03298
H29 H 0.12898 -0.37168 0.02994
H30 H 0.24881 -0.34446 0.02466
H31 H 0.19709 -0.19634 0.10254
H32 H 0.07622 -0.22335 0.10311
H33 H -0.43214 -0.74655 0.22562
H34 H -0.50506 -0.74547 0.18919
H35 H -0.51698 -0.73862 -0.06647
H36 H -0.58013 -0.71381 -0.10601
H37 H -0.60178 -0.66412 0.12188
H38 H -0.59324 -0.61452 0.16136
H39 H -0.50177 -0.55718 0.00365
H40 H -0.56930 -0.56445 -0.05142
H41 H -0.40713 -0.55817 0.21709
H42 H -0.47788 -0.53946 0.18090
H43 H -0.32756 -0.62822 0.24249
H44 H -0.34371 -0.67455 0.28168
H45 H -0.41024 -0.66269 -0.15826
H46 H -0.39290 -0.61302 -0.12356
H47 H -0.55538 -0.49605 0.33283
H48 H -0.57807 -0.48743 0.41865
H49 H -0.58809 -0.32454 0.47247
H50 H -0.54482 -0.30332 0.41233
H51 H -0.47027 -0.35062 0.67266
H52 H -0.54108 -0.36996 0.67155
H53 H -0.49029 -0.39168 0.22601
H54 H -0.47767 -0.43539 0.28173
Ba1B Ba 0.447870(18) -0.346980(12) -0.06240(3)
Ba2_2 Ba 0.538560(18) -0.412020(12) 0.48368(4)
Ba2B Ba 0.461440(18) -0.587980(12) 0.51632(4)
Ba2B_2 Ba -0.538560(18) -0.587980(12) 0.51632(4)
O8_2 O -0.6126(2) -0.43466(15) 0.5013(4)
O9B O -0.3643(2) -0.48174(13) 0.4300(4)
O11B O -0.35130(19) -0.72492(14) 0.0099(4)
O28B O -0.4555(3) -0.49949(15) 0.6079(4)
H47B H -0.44462 -0.50395 0.66717
H48B H -0.42193 -0.51257 0.58135
Cl2 Cl -0.00195(9) -0.62824(5) 0.33408(13)
O17 O 0.0321(3) -0.59070(17) 0.2810(4)
O18 O 0.0294(3) -0.67871(15) 0.3287(5)
O19 O 0.0093(3) -0.6108(2) 0.4304(5)
O20 O -0.0785(3) -0.63007(18) 0.3000(5)
O32 O -0.5744(3) -0.5300(3) 0.2038(5)
H55 H -0.53447 -0.50044 0.19613
H56 H -0.60824 -0.52524 0.15599
O33 O -0.1158(3) -0.36482(19) -0.1418(5)
H57 H -0.09168 -0.37640 -0.09281
H58 H -0.09448 -0.37149 -0.18773
loop_
_geom_bond_atom_site_label_1
_geom_bond_atom_site_label_2
_geom_bond_site_symmetry_1
_geom_bond_site_symmetry_2
Cu1 N1 1_555 1_555
Cu2 N2 1_555 1_555
Ba1 O1 1_555 1_555
Ba2 O4 1_555 1_555
S1 O1 1_555 1_555
S2 O4 1_555 1_555
N1 C1 1_555 1_555
N2 C2 1_555 1_555
N3 Cu1 1_555 1_555
N4 Cu2 1_555 1_555
O2 S1 1_555 1_555
O3 S1 1_555 1_555
O5 S2 1_555 1_555
O6 S2 1_555 1_555
C1 C2 1_555 1_555
C2 C6 1_555 1_555
C3 N2 1_555 1_555
C4 C3 1_555 1_555
C5 C4 1_555 1_555
C6 C5 1_555 1_555
C7 C6 1_555 1_555
C8 C7 1_555 1_555
C9 C1 1_555 1_555
C10 C9 1_555 1_555
C11 C10 1_555 1_555
C12 N1 1_555 1_555
C13 N3 1_555 1_555
C14 N3 1_555 1_555
C15 C14 1_555 1_555
C16 C15 1_555 1_555
C17 S1 1_555 1_555
C18 C17 1_555 1_555
C19 C14 1_555 1_555
C20 N4 1_555 1_555
C21 N4 1_555 1_555
C22 C21 1_555 1_555
C23 C22 1_555 1_555
C24 S2 1_555 1_555
C25 C24 1_555 1_555
C26 C21 1_555 1_555
S3 O7 1_555 1_555
S4 O10 1_555 1_555
O8 S3 1_555 1_555
O9 S3 1_555 1_555
O11 S4 1_555 1_555
O12 S4 1_555 1_555
N5 Cu2 1_555 1_555
N6 Cu1 1_555 1_555
N7 Cu2 1_555 1_555
N8 Cu1 1_555 1_555
C27 N5 1_555 1_555
C28 N6 1_555 1_555
C29 N6 1_555 1_555
C30 C29 1_555 1_555
C31 C30 1_555 1_555
C32 C28 1_555 1_555
C33 C32 1_555 1_555
C34 C33 1_555 1_555
C35 C27 1_555 1_555
C36 C35 1_555 1_555
C37 C36 1_555 1_555
C38 N5 1_555 1_555
C39 N7 1_555 1_555
C40 N7 1_555 1_555
C41 C40 1_555 1_555
C42 C41 1_555 1_555
C43 S3 1_555 1_555
C44 C43 1_555 1_555
C45 C40 1_555 1_555
C46 N8 1_555 1_555
C47 N8 1_555 1_555
C48 C47 1_555 1_555
C49 C48 1_555 1_555
C50 S4 1_555 1_555
C51 C50 1_555 1_555
C52 C47 1_555 1_555
Cl1 O13 1_555 1_555
O14 Cl1 1_555 1_555
O15 Ba2 1_555 1_555
O16 Cl1 1_555 1_555
Cl2 O17 1_555 1_555
O18 Cl2 1_555 1_555
O19 Cl2 1_555 1_555
O20 Cl2 1_555 1_555
O21 Ba1 1_555 1_555
O22 Ba1 1_555 1_555
O23 Ba1 1_555 1_555
O24 Ba1 1_555 1_555
O25 Ba1 1_555 1_555
O26 Ba1 1_555 1_555
O27 Ba1 1_555 1_555
O28 Ba2 1_555 1_555
O29 Ba2 1_555 1_555
O30 Ba2 1_555 1_555
O31 Ba2 1_555 1_555
O32 H55 1_555 1_555
O33 H57 1_555 1_555
H1 C4 1_555 1_555
H2 C5 1_555 1_555
H3 C7 1_555 1_555
H4 C8 1_555 1_555
H5 C10 1_555 1_555
H6 C11 1_555 1_555
H7 C13 1_555 1_555
H8 C15 1_555 1_555
H9 C16 1_555 1_555
H10 C18 1_555 1_555
H11 C19 1_555 1_555
H12 C20 1_555 1_555
H13 C22 1_555 1_555
H14 C23 1_555 1_555
H15 C25 1_555 1_555
H16 C26 1_555 1_555
H17 C30 1_555 1_555
H18 C31 1_555 1_555
H19 C33 1_555 1_555
H20 C34 1_555 1_555
H21 C36 1_555 1_555
H22 C37 1_555 1_555
H23 C39 1_555 1_555
H24 C41 1_555 1_555
H25 C42 1_555 1_555
H26 C44 1_555 1_555
H27 C45 1_555 1_555
H28 C46 1_555 1_555
H29 C48 1_555 1_555
H30 C49 1_555 1_555
H31 C51 1_555 1_555
H32 C52 1_555 1_555
H33 O21 1_555 1_555
H34 O21 1_555 1_555
H35 O22 1_555 1_555
H36 O22 1_555 1_555
H37 O23 1_555 1_555
H38 O23 1_555 1_555
H39 O24 1_555 1_555
H40 O24 1_555 1_555
H41 O25 1_555 1_555
H42 O25 1_555 1_555
H43 O26 1_555 1_555
H44 O26 1_555 1_555
H45 O27 1_555 1_555
H46 O27 1_555 1_555
H47 O28 1_555 1_555
H48 O28 1_555 1_555
H49 O29 1_555 1_555
H50 O29 1_555 1_555
H51 O30 1_555 1_555
H52 O30 1_555 1_555
H53 O31 1_555 1_555
H54 O31 1_555 1_555
H56 O32 1_555 1_555
H58 O33 1_555 1_555
Ba1B O11 1_555 1_555
Ba2_2 O8 1_555 1_555
Ba2B O9 1_555 1_555
Ba2B_2 O28 1_555 1_555
O8_2 Ba2 1_555 1_555
O9B Ba2 1_555 1_555
O11B Ba1 1_555 1_555
O28B Ba2 1_555 1_555
H47B O28B 1_555 1_555
H48B O28B 1_555 1_555
C3 C20 1_555 1_555
C8 C9 1_555 1_555
C11 C12 1_555 1_555
C12 C13 1_555 1_555
C16 C17 1_555 1_555
C18 C19 1_555 1_555
C23 C24 1_555 1_555
C25 C26 1_555 1_555
C27 C28 1_555 1_555
C29 C46 1_555 1_555
C31 C32 1_555 1_555
C34 C35 1_555 1_555
C37 C38 1_555 1_555
C38 C39 1_555 1_555
C42 C43 1_555 1_555
C44 C45 1_555 1_555
C49 C50 1_555 1_555
C51 C52 1_555 1_555
Cl1 O15 1_555 1_555
Ba2B_2 O28B 1_555 1_555

#END
