
#######################################################################
#
#                 Cambridge Crystallographic Data Centre
#                                CCDC 
#
#######################################################################
#
# If this CIF has been generated from an entry in the Cambridge 
# Structural Database, then it will include bibliographic, chemical, 
# crystal, experimental, refinement or atomic coordinate data resulting 
# from the CCDC's data processing and validation procedures.
#
#######################################################################

data_FARKIU
_symmetry_cell_setting           monoclinic
_symmetry_space_group_name_H-M   'P 21/n'
_symmetry_Int_Tables_number      14
_space_group_name_Hall           '-P 2yn'
loop_
_symmetry_equiv_pos_site_id
_symmetry_equiv_pos_as_xyz
1 x,y,z
2 1/2-x,1/2+y,1/2-z
3 -x,-y,-z
4 1/2+x,1/2-y,1/2+z
_cell_length_a                   9.1710(5)
_cell_length_b                   9.8000(5)
_cell_length_c                   19.7984(10)
_cell_angle_alpha                90
_cell_angle_beta                 94.3480(10)
_cell_angle_gamma                90
_cell_volume                     1774.28
loop_
_atom_site_label
_atom_site_type_symbol
_atom_site_fract_x
_atom_site_fract_y
_atom_site_fract_z
Co1 Co 0.5000 0.5000 0.0000
N1 N 0.39899(15) 0.54301(15) 0.09147(7)
N2 N 0.28302(15) 0.62323(15) 0.08399(7)
N3 N 0.23424(15) 0.63675(15) 0.14533(7)
N4 N -0.29189(15) 0.57131(15) 0.04907(7)
C1 C 0.42433(19) 0.50632(17) 0.15768(9)
C2 C 0.31747(19) 0.56662(18) 0.19248(9)
H1 H 0.3049 0.5603 0.2396
C3 C 0.10636(19) 0.72143(19) 0.15329(10)
H2 H 0.1252 0.8144 0.1364
H3 H 0.0906 0.7287 0.2021
C4 C -0.27831(19) 0.70016(18) 0.07201(9)
H4 H -0.3606 0.7589 0.0657
C5 C -0.15120(19) 0.75172(18) 0.10422(9)
H5 H -0.1459 0.8444 0.1182
C6 C -0.03108(18) 0.66598(17) 0.11591(8)
C7 C -0.04410(19) 0.53239(18) 0.09303(9)
H6 H 0.0355 0.4707 0.1002
C8 C -0.17423(19) 0.48986(17) 0.05962(9)
H7 H -0.1808 0.3987 0.0433
C9 C 0.55006(19) 0.41966(18) 0.18418(9)
H8 H 0.5992 0.3818 0.1455
H9 H 0.5124 0.3421 0.2098
C10 C 0.6621(2) 0.49804(18) 0.23022(10)
H10 H 0.6924 0.5810 0.2065
H11 H 0.6163 0.5272 0.2716
C11 C 0.79658(19) 0.41149(18) 0.25030(9)
H12 H 0.7654 0.3279 0.2733
H13 H 0.8421 0.3831 0.2088
C12 C 0.9104(2) 0.4854(2) 0.29685(11)
H14 H 0.8666 0.5108 0.3393
H15 H 0.9400 0.5704 0.2746
C13 C 1.0452(2) 0.3973(2) 0.31385(11)
H16 H 1.0163 0.3131 0.3360
H17 H 1.1151 0.4476 0.3444
H18 H 1.0908 0.3745 0.2721
O5 O 0.53706(15) 0.29559(14) 0.03234(7)
H19 H 0.472(3) 0.254(3) 0.0496(13)
H20 H 0.601(4) 0.241(3) 0.0268(15)
Co1_2 Co -0.5000 0.5000 0.0000
N1B N 0.60101(15) 0.45699(15) -0.09147(7)
N1B_2 N -0.39899(15) 0.45699(15) -0.09147(7)
N2B N -0.28302(15) 0.37677(15) -0.08399(7)
N3B N -0.23424(15) 0.36325(15) -0.14533(7)
N4_2 N 0.70811(15) 0.57131(15) 0.04907(7)
N4B N 0.29189(15) 0.42869(15) -0.04907(7)
C1B C -0.42433(19) 0.49368(17) -0.15768(9)
C2B C -0.31747(19) 0.43338(18) -0.19248(9)
H1B H -0.3049 0.4397 -0.2396
C3B C -0.10636(19) 0.27857(19) -0.15329(10)
H2B H -0.1252 0.1856 -0.1364
H3B H -0.0906 0.2713 -0.2021
C4B C 0.27831(19) 0.29984(18) -0.07201(9)
H4B H 0.3606 0.2411 -0.0657
C5B C 0.15120(19) 0.24828(18) -0.10422(9)
H5B H 0.1459 0.1556 -0.1182
C6B C 0.03108(18) 0.33402(17) -0.11591(8)
C7B C 0.04410(19) 0.46761(18) -0.09303(9)
H6B H -0.0355 0.5293 -0.1002
C8B C 0.17423(19) 0.51014(17) -0.05962(9)
H7B H 0.1808 0.6013 -0.0433
C9B C -0.55006(19) 0.58034(18) -0.18418(9)
H8B H -0.5992 0.6182 -0.1455
H9B H -0.5124 0.6579 -0.2098
C10B C -0.6621(2) 0.50196(18) -0.23022(10)
H10B H -0.6924 0.4190 -0.2065
H11B H -0.6163 0.4728 -0.2716
C11B C -0.79658(19) 0.58851(18) -0.25030(9)
H12B H -0.7654 0.6721 -0.2733
H13B H -0.8421 0.6169 -0.2088
C12B C -0.9104(2) 0.5146(2) -0.29685(11)
H14B H -0.8666 0.4892 -0.3393
H15B H -0.9400 0.4296 -0.2746
C13B C -1.0452(2) 0.6027(2) -0.31385(11)
H16B H -1.0163 0.6869 -0.3360
H17B H -1.1151 0.5524 -0.3444
H18B H -1.0908 0.6255 -0.2721
O5B O 0.46294(15) 0.70441(14) -0.03234(7)
H19B H 0.528(3) 0.746(3) -0.0496(13)
H20B H 0.399(4) 0.759(3) -0.0268(15)
Cl1 Cl 0.15697(5) 0.16421(4) 0.10056(2)
O1 O 0.04617(17) 0.22328(16) 0.05422(8)
O2 O 0.20183(19) 0.26034(19) 0.15223(9)
O3 O 0.28269(16) 0.12703(15) 0.06396(7)
O4 O 0.10057(17) 0.04462(16) 0.13104(9)
O6 O 0.75049(18) 0.10346(17) 0.03182(9)
H21 H 0.838(4) 0.134(4) 0.0376(16)
H22 H 0.749(4) 0.045(4) 0.0023(18)
loop_
_geom_bond_atom_site_label_1
_geom_bond_atom_site_label_2
_geom_bond_site_symmetry_1
_geom_bond_site_symmetry_2
Co1 N1 1_555 1_555
N1 N2 1_555 1_555
N2 N3 1_555 1_555
N3 C2 1_555 1_555
N4 C4 1_555 1_555
C1 N1 1_555 1_555
C2 C1 1_555 1_555
H1 C2 1_555 1_555
C3 N3 1_555 1_555
H2 C3 1_555 1_555
H3 C3 1_555 1_555
C4 H4 1_555 1_555
C5 C4 1_555 1_555
H5 C5 1_555 1_555
C6 C3 1_555 1_555
C7 C6 1_555 1_555
H6 C7 1_555 1_555
C8 N4 1_555 1_555
H7 C8 1_555 1_555
C9 C1 1_555 1_555
H8 C9 1_555 1_555
H9 C9 1_555 1_555
C10 C9 1_555 1_555
H10 C10 1_555 1_555
H11 C10 1_555 1_555
C11 C10 1_555 1_555
H12 C11 1_555 1_555
H13 C11 1_555 1_555
C12 C11 1_555 1_555
H14 C12 1_555 1_555
H15 C12 1_555 1_555
C13 C12 1_555 1_555
H16 C13 1_555 1_555
H17 C13 1_555 1_555
H18 C13 1_555 1_555
Cl1 O1 1_555 1_555
O2 Cl1 1_555 1_555
O3 Cl1 1_555 1_555
O4 Cl1 1_555 1_555
O5 Co1 1_555 1_555
H19 O5 1_555 1_555
H20 O5 1_555 1_555
O6 H21 1_555 1_555
H22 O6 1_555 1_555
Co1_2 N4 1_555 1_555
N1B Co1 1_555 1_555
N1B_2 Co1_2 1_555 1_555
N2B N1B_2 1_555 1_555
N3B N2B 1_555 1_555
N4_2 Co1 1_555 1_555
N4B Co1 1_555 1_555
C1B N1B_2 1_555 1_555
C2B N3B 1_555 1_555
H1B C2B 1_555 1_555
C3B N3B 1_555 1_555
H2B C3B 1_555 1_555
H3B C3B 1_555 1_555
C4B N4B 1_555 1_555
H4B C4B 1_555 1_555
C5B C4B 1_555 1_555
H5B C5B 1_555 1_555
C6B C3B 1_555 1_555
C7B C6B 1_555 1_555
H6B C7B 1_555 1_555
C8B N4B 1_555 1_555
H7B C8B 1_555 1_555
C9B C1B 1_555 1_555
H8B C9B 1_555 1_555
H9B C9B 1_555 1_555
C10B C9B 1_555 1_555
H10B C10B 1_555 1_555
H11B C10B 1_555 1_555
C11B C10B 1_555 1_555
H12B C11B 1_555 1_555
H13B C11B 1_555 1_555
C12B C11B 1_555 1_555
H14B C12B 1_555 1_555
H15B C12B 1_555 1_555
C13B C12B 1_555 1_555
H16B C13B 1_555 1_555
H17B C13B 1_555 1_555
H18B C13B 1_555 1_555
O5B Co1 1_555 1_555
H19B O5B 1_555 1_555
H20B O5B 1_555 1_555
C5 C6 1_555 1_555
C7 C8 1_555 1_555
C1B C2B 1_555 1_555
C5B C6B 1_555 1_555
C7B C8B 1_555 1_555

#END
