
#######################################################################
#
#                 Cambridge Crystallographic Data Centre
#                                CCDC 
#
#######################################################################
#
# If this CIF has been generated from an entry in the Cambridge 
# Structural Database, then it will include bibliographic, chemical, 
# crystal, experimental, refinement or atomic coordinate data resulting 
# from the CCDC's data processing and validation procedures.
#
#######################################################################

data_FARLAN
_symmetry_cell_setting           monoclinic
_symmetry_space_group_name_H-M   'P 21/c'
_symmetry_Int_Tables_number      14
_space_group_name_Hall           '-P 2ybc'
loop_
_symmetry_equiv_pos_site_id
_symmetry_equiv_pos_as_xyz
1 x,y,z
2 -x,1/2+y,1/2-z
3 -x,-y,-z
4 x,1/2-y,1/2+z
_cell_length_a                   11.9395(6)
_cell_length_b                   8.8292(5)
_cell_length_c                   15.6367(9)
_cell_angle_alpha                90
_cell_angle_beta                 96.7300(10)
_cell_angle_gamma                90
_cell_volume                     1637
loop_
_atom_site_label
_atom_site_type_symbol
_atom_site_fract_x
_atom_site_fract_y
_atom_site_fract_z
Zn1 Zn 0.283335(19) 0.55820(3) 0.129753(15)
Cl1 Cl 0.15032(5) 0.66524(7) 0.19696(4)
Cl2 Cl 0.45157(4) 0.66734(7) 0.14064(4)
N1 N 0.28388(14) 0.3302(2) 0.15815(11)
N2 N 0.19076(15) 0.2798(2) 0.18688(11)
N3 N 0.20167(15) 0.1296(2) 0.19182(11)
N4 N 0.22893(15) -0.0470(2) 0.50022(11)
C1 C 0.11927(18) 0.0426(3) 0.23338(14)
H1 H 0.1037 -0.0539 0.2020
H2 H 0.0478 0.1003 0.2303
C2 C 0.12473(18) -0.0845(2) 0.46438(14)
H3 H 0.0744 -0.1297 0.4996
C3 C 0.08776(18) -0.0598(2) 0.37824(15)
H4 H 0.0140 -0.0893 0.3548
C4 C 0.16052(18) 0.0092(2) 0.32634(14)
C5 C 0.26855(19) 0.0443(3) 0.36309(14)
H5 H 0.3209 0.0895 0.3295
C6 C 0.29934(18) 0.0131(3) 0.44892(14)
H6 H 0.3743 0.0354 0.4729
C7 C 0.30102(18) 0.0829(3) 0.16683(14)
H7 H 0.3280 -0.0181 0.1646
C8 C 0.35392(18) 0.2121(3) 0.14558(13)
C9 C 0.46860(18) 0.2331(3) 0.11710(15)
H8 H 0.5113 0.3075 0.1555
H9 H 0.4600 0.2753 0.0580
C10 C 0.53575(18) 0.0864(3) 0.11803(15)
H10 H 0.4937 0.0115 0.0796
H11 H 0.5454 0.0441 0.1771
C11 C 0.65124(18) 0.1135(3) 0.08834(14)
H12 H 0.6935 0.1866 0.1279
H13 H 0.6410 0.1596 0.0302
C12 C 0.72079(18) -0.0313(3) 0.08539(15)
H14 H 0.7323 -0.0767 0.1437
H15 H 0.6783 -0.1051 0.0464
C13 C 0.83504(19) -0.0022(3) 0.05437(16)
H16 H 0.8790 0.0673 0.0951
H17 H 0.8235 0.0484 -0.0025
C14 C 0.9026(2) -0.1473(3) 0.04664(19)
H18 H 0.9181 -0.1949 0.1034
H19 H 0.9740 -0.1230 0.0246
H20 H 0.8591 -0.2173 0.0069
Zn1C Zn 0.283335(19) -0.05820(3) 0.629753(15)
N4C N 0.22893(15) 0.5470(2) 0.00022(11)
loop_
_geom_bond_atom_site_label_1
_geom_bond_atom_site_label_2
_geom_bond_site_symmetry_1
_geom_bond_site_symmetry_2
Zn1 Cl1 1_555 1_555
Cl2 Zn1 1_555 1_555
N1 Zn1 1_555 1_555
N2 N1 1_555 1_555
N3 N2 1_555 1_555
N4 C2 1_555 1_555
C1 N3 1_555 1_555
H1 C1 1_555 1_555
H2 C1 1_555 1_555
C2 H3 1_555 1_555
C3 C2 1_555 1_555
H4 C3 1_555 1_555
C4 C1 1_555 1_555
C5 C4 1_555 1_555
H5 C5 1_555 1_555
C6 N4 1_555 1_555
H6 C6 1_555 1_555
C7 N3 1_555 1_555
H7 C7 1_555 1_555
C8 N1 1_555 1_555
C9 C8 1_555 1_555
H8 C9 1_555 1_555
H9 C9 1_555 1_555
C10 C9 1_555 1_555
H10 C10 1_555 1_555
H11 C10 1_555 1_555
C11 C10 1_555 1_555
H12 C11 1_555 1_555
H13 C11 1_555 1_555
C12 C11 1_555 1_555
H14 C12 1_555 1_555
H15 C12 1_555 1_555
C13 C12 1_555 1_555
H16 C13 1_555 1_555
H17 C13 1_555 1_555
C14 C13 1_555 1_555
H18 C14 1_555 1_555
H19 C14 1_555 1_555
H20 C14 1_555 1_555
Zn1C N4 1_555 1_555
N4C Zn1 1_555 1_555
C3 C4 1_555 1_555
C5 C6 1_555 1_555
C7 C8 1_555 1_555

#END
