
#######################################################################
#
#                 Cambridge Crystallographic Data Centre
#                                CCDC 
#
#######################################################################
#
# If this CIF has been generated from an entry in the Cambridge 
# Structural Database, then it will include bibliographic, chemical, 
# crystal, experimental, refinement or atomic coordinate data resulting 
# from the CCDC's data processing and validation procedures.
#
#######################################################################

data_FARLUG
_symmetry_cell_setting           monoclinic
_symmetry_space_group_name_H-M   'P 21/n'
_symmetry_Int_Tables_number      14
_space_group_name_Hall           '-P 2yn'
loop_
_symmetry_equiv_pos_site_id
_symmetry_equiv_pos_as_xyz
1 x,y,z
2 1/2-x,1/2+y,1/2-z
3 -x,-y,-z
4 1/2+x,1/2-y,1/2+z
_cell_length_a                   10.879(4)
_cell_length_b                   11.961(4)
_cell_length_c                   19.774(7)
_cell_angle_alpha                90
_cell_angle_beta                 76.099(8)
_cell_angle_gamma                90
_cell_volume                     2497.71
loop_
_atom_site_label
_atom_site_type_symbol
_atom_site_fract_x
_atom_site_fract_y
_atom_site_fract_z
Zn1 Zn 0.95723(4) 0.36393(4) 0.24270(2)
S1 S 1.50088(9) 0.27611(10) 0.00547(5)
S2 S 1.62398(9) 0.40449(10) 0.00051(5)
S3 S 0.40731(9) 0.33437(9) 0.48518(5)
S4 S 0.29300(9) 0.46598(10) 0.47924(5)
O1 O 0.9437(2) 0.1793(2) 0.24045(14)
N1 N 0.7785(3) 0.3646(3) 0.32060(15)
N2 N 0.0598(3) 0.3786(3) 0.32321(14)
N3 N 1.1348(3) 0.3507(3) 0.16619(15)
O2 O 0.9397(2) 0.5463(2) 0.24411(13)
N4 N 1.8542(3) 0.3607(3) 0.16271(15)
C1 C 0.2068(3) 0.4258(3) 0.41743(18)
C2 C 1.7083(3) 0.3787(3) 0.06487(18)
C3 C 1.8825(4) 0.4353(3) 0.1102(2)
H1 H 1.9521 0.4817 0.1073
C4 C 1.6775(3) 0.3012(3) 0.11794(19)
H2 H 1.6079 0.2543 0.1220
C5 C 1.3617(3) 0.3140(3) 0.06908(18)
C6 C 0.1011(3) 0.4892(3) 0.4155(2)
H3 H 0.0779 0.5490 0.4460
C7 C 0.1618(3) 0.3173(3) 0.3260(2)
H4 H 0.1829 0.2575 0.2953
C8 C 0.2375(3) 0.3376(3) 0.37158(19)
H5 H 0.3075 0.2928 0.3714
C9 C 0.5480(3) 0.3547(3) 0.41824(18)
C10 C 0.5732(3) 0.4402(3) 0.37116(19)
H6 H 0.5136 0.4959 0.3711
C11 C 0.7521(3) 0.2804(3) 0.36614(19)
H7 H 0.8129 0.2253 0.3649
C12 C 1.8131(4) 0.4461(3) 0.0608(2)
H8 H 1.8365 0.4981 0.0251
C13 C 1.3552(3) 0.3911(3) 0.12176(18)
H9 H 1.4262 0.4315 0.1256
C14 C 1.7535(3) 0.2955(3) 0.1650(2)
H10 H 1.7330 0.2427 0.2005
O3 O 1.0740(3) 0.6144(3) 0.15387(17)
N5 N 1.0191(3) 0.6203(3) 0.2158(2)
N6 N 1.0062(3) 0.1082(3) 0.2671(2)
C15 C 0.0309(4) 0.4638(3) 0.3687(2)
H11 H -0.0398 0.5073 0.3683
C16 C 1.1439(3) 0.2748(3) 0.11600(19)
H12 H 1.0726 0.2327 0.1147
C17 C 0.6383(3) 0.2720(3) 0.41486(19)
H13 H 0.6222 0.2114 0.4452
C18 C 1.2537(3) 0.2558(3) 0.06588(19)
H14 H 1.2552 0.2045 0.0304
C19 C 0.6890(3) 0.4421(3) 0.32370(19)
H15 H 0.7057 0.5008 0.2920
C20 C 1.2405(3) 0.4062(3) 0.16828(18)
H16 H 1.2361 0.4585 0.2036
O4 O 1.1042(3) 0.0693(3) 0.23257(19)
O5 O 0.9697(4) 0.0844(4) 0.3272(2)
O6 O 1.0413(4) 0.6958(4) 0.2502(2)
Zn1_2 Zn -0.04277(4) 0.36393(4) 0.24270(2)
Zn1_3 Zn 1.95723(4) 0.36393(4) 0.24270(2)
N2_2 N 1.0598(3) 0.3786(3) 0.32321(14)
N4_2 N 0.8542(3) 0.3607(3) 0.16271(15)
loop_
_geom_bond_atom_site_label_1
_geom_bond_atom_site_label_2
_geom_bond_site_symmetry_1
_geom_bond_site_symmetry_2
Zn1 O1 1_555 1_555
S1 S2 1_555 1_555
S2 C2 1_555 1_555
S3 S4 1_555 1_555
S4 C1 1_555 1_555
O1 N6 1_555 1_555
N1 Zn1 1_555 1_555
N2 C7 1_555 1_555
N3 Zn1 1_555 1_555
O2 Zn1 1_555 1_555
N4 C3 1_555 1_555
C1 C6 1_555 1_555
C2 C4 1_555 1_555
C3 H1 1_555 1_555
C4 H2 1_555 1_555
C5 S1 1_555 1_555
C6 H3 1_555 1_555
C7 H4 1_555 1_555
C8 C1 1_555 1_555
H5 C8 1_555 1_555
C9 S3 1_555 1_555
C10 C9 1_555 1_555
H6 C10 1_555 1_555
C11 N1 1_555 1_555
H7 C11 1_555 1_555
C12 C2 1_555 1_555
H8 C12 1_555 1_555
C13 C5 1_555 1_555
H9 C13 1_555 1_555
C14 N4 1_555 1_555
H10 C14 1_555 1_555
O3 N5 1_555 1_555
N5 O2 1_555 1_555
N6 O4 1_555 1_555
C15 N2 1_555 1_555
H11 C15 1_555 1_555
C16 N3 1_555 1_555
H12 C16 1_555 1_555
C17 C9 1_555 1_555
H13 C17 1_555 1_555
C18 C5 1_555 1_555
H14 C18 1_555 1_555
C19 N1 1_555 1_555
H15 C19 1_555 1_555
C20 N3 1_555 1_555
H16 C20 1_555 1_555
O5 N6 1_555 1_555
O6 N5 1_555 1_555
Zn1_2 N2 1_555 1_555
Zn1_3 N4 1_555 1_555
N2_2 Zn1 1_555 1_555
N4_2 Zn1 1_555 1_555
C3 C12 1_555 1_555
C4 C14 1_555 1_555
C6 C15 1_555 1_555
C7 C8 1_555 1_555
C10 C19 1_555 1_555
C11 C17 1_555 1_555
C13 C20 1_555 1_555
C16 C18 1_555 1_555

#END
