
#######################################################################
#
#                 Cambridge Crystallographic Data Centre
#                                CCDC 
#
#######################################################################
#
# If this CIF has been generated from an entry in the Cambridge 
# Structural Database, then it will include bibliographic, chemical, 
# crystal, experimental, refinement or atomic coordinate data resulting 
# from the CCDC's data processing and validation procedures.
#
#######################################################################

data_FARLER
_symmetry_cell_setting           monoclinic
_symmetry_space_group_name_H-M   'P 21/n'
_symmetry_Int_Tables_number      14
_space_group_name_Hall           '-P 2yn'
loop_
_symmetry_equiv_pos_site_id
_symmetry_equiv_pos_as_xyz
1 x,y,z
2 1/2-x,1/2+y,1/2-z
3 -x,-y,-z
4 1/2+x,1/2-y,1/2+z
_cell_length_a                   9.1059(7)
_cell_length_b                   9.7570(7)
_cell_length_c                   19.2007(14)
_cell_angle_alpha                90
_cell_angle_beta                 101.220(2)
_cell_angle_gamma                90
_cell_volume                     1673.31
loop_
_atom_site_label
_atom_site_type_symbol
_atom_site_fract_x
_atom_site_fract_y
_atom_site_fract_z
Co1 Co 0.0000 0.5000 0.0000
O1 O 0.04303(14) 0.70478(13) 0.03178(7)
H1 H -0.023(3) 0.745(3) 0.0467(15)
H2 H 0.110(3) 0.759(2) 0.0265(14)
N1 N -0.07613(15) 0.45957(15) 0.09730(8)
N2 N -0.19284(16) 0.37622(15) 0.09040(7)
N3 N -0.22425(15) 0.36389(14) 0.15507(7)
N4 N -0.77887(15) 0.43096(14) 0.05311(7)
C1 C -0.76127(19) 0.30381(17) 0.08085(9)
H3 H -0.8469 0.2464 0.0762
C2 C -0.62546(19) 0.25250(17) 0.11563(9)
H4 H -0.6180 0.1609 0.1327
C3 C -0.49942(18) 0.33653(17) 0.12548(9)
C4 C -0.51685(19) 0.46847(17) 0.09846(9)
H5 H -0.4340 0.5295 0.1046
C5 C -0.65637(19) 0.51043(17) 0.06240(10)
H6 H -0.6658 0.6004 0.0432
C6 C -0.35168(19) 0.28021(18) 0.16429(9)
H7 H -0.3538 0.2739 0.2155
H8 H -0.3385 0.1864 0.1469
C7 C -0.12933(19) 0.43710(17) 0.20368(9)
H9 H -0.1289 0.4444 0.2531
C8 C -0.03297(19) 0.49912(16) 0.16630(9)
C9 C 0.09747(19) 0.59118(18) 0.19337(9)
H10 H 0.0630 0.6682 0.2197
H11 H 0.1344 0.6302 0.1524
C10 C 0.2265(2) 0.51863(18) 0.24187(10)
H12 H 0.2572 0.4382 0.2167
H13 H 0.1918 0.4850 0.2845
C11 C 0.3615(2) 0.61217(19) 0.26490(10)
H14 H 0.4012 0.6403 0.2226
H15 H 0.3295 0.6959 0.2870
C12 C 0.4850(3) 0.5416(2) 0.31756(15)
H16 H 0.4449 0.5099 0.3586
H17 H 0.5669 0.6064 0.3334
H18 H 0.5228 0.4630 0.2946
Co1_2 Co -1.0000 0.5000 0.0000
O1B O -0.04303(14) 0.29522(13) -0.03178(7)
H1B H 0.023(3) 0.255(3) -0.0467(15)
H2B H -0.110(3) 0.241(2) -0.0265(14)
N1B N -0.92387(15) 0.54043(15) -0.09730(8)
N1B_2 N 0.07613(15) 0.54043(15) -0.09730(8)
N2B N -0.80716(16) 0.62378(15) -0.09040(7)
N3B N -0.77575(15) 0.63611(14) -0.15507(7)
N4B N -0.22113(15) 0.56904(14) -0.05311(7)
N4_2 N 0.22113(15) 0.43096(14) 0.05311(7)
C1B C -0.23873(19) 0.69619(17) -0.08085(9)
H3B H -0.1531 0.7536 -0.0762
C2B C -0.37454(19) 0.74750(17) -0.11563(9)
H4B H -0.3820 0.8391 -0.1327
C3B C -0.50058(18) 0.66347(17) -0.12548(9)
C4B C -0.48315(19) 0.53153(17) -0.09846(9)
H5B H -0.5660 0.4705 -0.1046
C5B C -0.34363(19) 0.48957(17) -0.06240(10)
H6B H -0.3342 0.3996 -0.0432
C6B C -0.64832(19) 0.71979(18) -0.16429(9)
H7B H -0.6462 0.7261 -0.2155
H8B H -0.6615 0.8136 -0.1469
C7B C -0.87067(19) 0.56290(17) -0.20368(9)
H9B H -0.8711 0.5556 -0.2531
C8B C -0.96703(19) 0.50088(16) -0.16630(9)
C9B C -1.09747(19) 0.40882(18) -0.19337(9)
H10B H -1.0630 0.3318 -0.2197
H11B H -1.1344 0.3698 -0.1524
C10B C -1.2265(2) 0.48137(18) -0.24187(10)
H12B H -1.2572 0.5618 -0.2167
H13B H -1.1918 0.5150 -0.2845
C11B C -1.3615(2) 0.38783(19) -0.26490(10)
H14B H -1.4012 0.3597 -0.2226
H15B H -1.3295 0.3041 -0.2870
C12B C -1.4850(3) 0.4584(2) -0.31756(15)
H16B H -1.4449 0.4901 -0.3586
H17B H -1.5669 0.3936 -0.3334
H18B H -1.5228 0.5370 -0.2946
O2 O 0.25592(17) 0.89738(15) 0.03613(9)
H19 H 0.340(2) 0.866(3) 0.0366(16)
H20 H 0.240(4) 0.959(3) 0.0059(14)
Cl1 Cl -0.32661(4) 0.83612(4) 0.09612(2)
O3 O -0.27286(17) 0.74680(15) 0.15465(7)
O4 O -0.44574(15) 0.77102(14) 0.04705(7)
O5 O -0.38102(16) 0.96149(14) 0.12125(8)
O6 O -0.20486(15) 0.86789(14) 0.05976(7)
loop_
_geom_bond_atom_site_label_1
_geom_bond_atom_site_label_2
_geom_bond_site_symmetry_1
_geom_bond_site_symmetry_2
Co1 O1 1_555 1_555
O1 H1 1_555 1_555
H2 O1 1_555 1_555
N1 Co1 1_555 1_555
N2 N1 1_555 1_555
N3 N2 1_555 1_555
N4 C1 1_555 1_555
C1 H3 1_555 1_555
C2 C1 1_555 1_555
H4 C2 1_555 1_555
C3 C2 1_555 1_555
C4 C3 1_555 1_555
H5 C4 1_555 1_555
C5 N4 1_555 1_555
H6 C5 1_555 1_555
C6 N3 1_555 1_555
H7 C6 1_555 1_555
H8 C6 1_555 1_555
C7 N3 1_555 1_555
H9 C7 1_555 1_555
C8 N1 1_555 1_555
C9 C8 1_555 1_555
H10 C9 1_555 1_555
H11 C9 1_555 1_555
C10 C9 1_555 1_555
H12 C10 1_555 1_555
H13 C10 1_555 1_555
C11 C10 1_555 1_555
H14 C11 1_555 1_555
H15 C11 1_555 1_555
C12 C11 1_555 1_555
H16 C12 1_555 1_555
H17 C12 1_555 1_555
H18 C12 1_555 1_555
O2 H19 1_555 1_555
H20 O2 1_555 1_555
Cl1 O3 1_555 1_555
O4 Cl1 1_555 1_555
O5 Cl1 1_555 1_555
O6 Cl1 1_555 1_555
Co1_2 N4 1_555 1_555
O1B Co1 1_555 1_555
H1B O1B 1_555 1_555
H2B O1B 1_555 1_555
N1B Co1_2 1_555 1_555
N1B_2 Co1 1_555 1_555
N2B N1B 1_555 1_555
N3B N2B 1_555 1_555
N4B Co1 1_555 1_555
N4_2 Co1 1_555 1_555
C1B N4B 1_555 1_555
H3B C1B 1_555 1_555
C2B C1B 1_555 1_555
H4B C2B 1_555 1_555
C3B C2B 1_555 1_555
C4B C3B 1_555 1_555
H5B C4B 1_555 1_555
C5B N4B 1_555 1_555
H6B C5B 1_555 1_555
C6B N3B 1_555 1_555
H7B C6B 1_555 1_555
H8B C6B 1_555 1_555
C7B N3B 1_555 1_555
H9B C7B 1_555 1_555
C8B N1B 1_555 1_555
C9B C8B 1_555 1_555
H10B C9B 1_555 1_555
H11B C9B 1_555 1_555
C10B C9B 1_555 1_555
H12B C10B 1_555 1_555
H13B C10B 1_555 1_555
C11B C10B 1_555 1_555
H14B C11B 1_555 1_555
H15B C11B 1_555 1_555
C12B C11B 1_555 1_555
H16B C12B 1_555 1_555
H17B C12B 1_555 1_555
H18B C12B 1_555 1_555
C3 C6 1_555 1_555
C4 C5 1_555 1_555
C7 C8 1_555 1_555
C3B C6B 1_555 1_555
C4B C5B 1_555 1_555
C7B C8B 1_555 1_555

#END
