
#######################################################################
#
#                 Cambridge Crystallographic Data Centre
#                                CCDC 
#
#######################################################################
#
# If this CIF has been generated from an entry in the Cambridge 
# Structural Database, then it will include bibliographic, chemical, 
# crystal, experimental, refinement or atomic coordinate data resulting 
# from the CCDC's data processing and validation procedures.
#
#######################################################################

data_FARMAN01
_symmetry_cell_setting           orthorhombic
_symmetry_space_group_name_H-M   'P b c a'
_symmetry_Int_Tables_number      61
_space_group_name_Hall           '-P 2ac 2ab'
loop_
_symmetry_equiv_pos_site_id
_symmetry_equiv_pos_as_xyz
1 x,y,z
2 1/2-x,-y,1/2+z
3 -x,1/2+y,1/2-z
4 1/2+x,1/2-y,-z
5 -x,-y,-z
6 1/2+x,y,1/2-z
7 x,1/2-y,1/2+z
8 1/2-x,1/2+y,z
_cell_length_a                   20.4323(7)
_cell_length_b                   10.6213(4)
_cell_length_c                   26.0812(12)
_cell_angle_alpha                90
_cell_angle_beta                 90
_cell_angle_gamma                90
_cell_volume                     5660.08
loop_
_atom_site_label
_atom_site_type_symbol
_atom_site_fract_x
_atom_site_fract_y
_atom_site_fract_z
Zn1 Zn -0.001145(15) -0.27329(3) 0.391390(12)
S1 S 0.22593(3) -0.72394(7) 0.42906(3)
S2 S 0.23201(3) -0.83465(6) 0.36556(3)
S3 S -0.23425(3) -0.71637(6) 0.37246(3)
S4 S -0.22649(3) -0.82432(7) 0.43644(3)
O1 O -0.00251(10) -0.26896(19) 0.31072(8)
H1 H 0.0204(13) -0.226(2) 0.2917(10)
H2 H -0.0262(12) -0.311(2) 0.2918(10)
O2 O -0.01051(9) -0.31019(18) 0.47511(8)
O3 O -0.02292(10) -0.27208(19) 0.55591(8)
O4 O 0.04727(11) -0.16419(19) 0.51164(9)
N1 N 0.00465(11) -0.2471(2) 0.51463(9)
N2 N 0.07644(10) -0.4140(2) 0.39776(9)
N3 N 0.07289(10) -1.1314(2) 0.38667(9)
N4 N -0.07640(10) -0.4148(2) 0.38694(9)
N5 N -0.07800(10) -1.1338(2) 0.40272(9)
C1 C 0.11409(13) -0.4170(3) 0.44003(11)
H3 H 0.1092 -0.3516 0.4646
C2 C 0.15939(13) -0.5102(3) 0.44959(11)
H4 H 0.1843 -0.5096 0.4804
C3 C 0.16815(13) -0.6051(2) 0.41345(11)
C4 C 0.13163(13) -0.6005(3) 0.36867(11)
H5 H 0.1376 -0.6618 0.3426
C5 C 0.08646(13) -0.5050(3) 0.36282(11)
H6 H 0.0610 -0.5035 0.3324
C6 C 0.07037(13) -1.0226(2) 0.41285(11)
H7 H 0.0344 -1.0084 0.4352
C7 C 0.11776(12) -0.9304(3) 0.40862(11)
H8 H 0.1149 -0.8556 0.4285
C8 C 0.16924(13) -0.9484(3) 0.37525(11)
C9 C 0.17174(13) -1.0592(2) 0.34692(11)
H9 H 0.2061 -1.0737 0.3231
C10 C 0.12336(12) -1.1471(3) 0.35419(11)
H10 H 0.1257 -1.2234 0.3352
C11 C -0.12641(12) -0.4054(3) 0.35358(10)
H11 H -0.1289 -0.3327 0.3324
C12 C -0.17426(13) -0.4961(3) 0.34857(11)
H12 H -0.2084 -0.4865 0.3241
C13 C -0.17171(12) -0.6019(2) 0.37998(11)
C14 C -0.12053(12) -0.6129(3) 0.41450(11)
H13 H -0.1173 -0.6841 0.4364
C15 C -0.07411(13) -0.5180(3) 0.41654(12)
H14 H -0.0389 -0.5264 0.4401
C16 C -0.11631(12) -1.1336(3) 0.44488(11)
H15 H -0.1118 -1.2008 0.4686
C17 C -0.16149(13) -1.0410(3) 0.45522(11)
H16 H -0.1870 -1.0438 0.4856
C18 C -0.16904(12) -0.9433(3) 0.42028(11)
C19 C -0.13160(13) -0.9436(3) 0.37621(11)
H17 H -0.1365 -0.8792 0.3512
C20 C -0.08680(13) -1.0398(3) 0.36930(11)
H18 H -0.0608 -1.0391 0.3391
Zn1_2 Zn -0.001145(15) -1.27329(3) 0.391390(12)
N3_2 N 0.07289(10) -0.1314(2) 0.38667(9)
N5_2 N -0.07800(10) -0.1338(2) 0.40272(9)
O5 O -0.36903(10) -0.4302(2) 0.25062(9)
O6 O -0.26330(10) -0.4476(2) 0.24539(9)
O7 O -0.30823(9) -0.26192(19) 0.24912(8)
N6 N -0.31400(13) -0.3806(3) 0.24842(9)
O8 O -0.06955(10) -0.64355(19) 0.26245(8)
H19 H -0.0756(14) -0.5673(17) 0.2566(12)
H20 H -0.1077(9) -0.671(3) 0.2596(12)
O9 O -0.00110(11) -0.7866(2) 0.33601(8)
H21 H 0.0004(15) -0.773(3) 0.3665(7)
H22 H -0.0222(14) -0.732(2) 0.3200(12)
O10 O -0.07598(10) -0.3889(2) 0.23785(8)
H23 H -0.0559(13) -0.364(3) 0.2116(9)
H24 H -0.1079(11) -0.343(2) 0.2383(12)
O11 O -0.16899(11) -0.2105(2) 0.25689(10)
H25 H -0.1644(15) -0.1340(17) 0.2540(13)
H26 H -0.2085(9) -0.229(3) 0.2540(14)
loop_
_geom_bond_atom_site_label_1
_geom_bond_atom_site_label_2
_geom_bond_site_symmetry_1
_geom_bond_site_symmetry_2
Zn1 O1 1_555 1_555
S1 S2 1_555 1_555
S2 C8 1_555 1_555
S3 S4 1_555 1_555
S4 C18 1_555 1_555
O1 H1 1_555 1_555
H2 O1 1_555 1_555
O2 Zn1 1_555 1_555
O3 N1 1_555 1_555
O4 N1 1_555 1_555
N1 O2 1_555 1_555
N2 Zn1 1_555 1_555
N3 C6 1_555 1_555
N4 Zn1 1_555 1_555
N5 C16 1_555 1_555
C1 N2 1_555 1_555
H3 C1 1_555 1_555
C2 C1 1_555 1_555
H4 C2 1_555 1_555
C3 S1 1_555 1_555
C4 C3 1_555 1_555
H5 C4 1_555 1_555
C5 N2 1_555 1_555
H6 C5 1_555 1_555
C6 H7 1_555 1_555
C7 C6 1_555 1_555
H8 C7 1_555 1_555
C8 C7 1_555 1_555
C9 C8 1_555 1_555
H9 C9 1_555 1_555
C10 N3 1_555 1_555
H10 C10 1_555 1_555
C11 N4 1_555 1_555
H11 C11 1_555 1_555
C12 C11 1_555 1_555
H12 C12 1_555 1_555
C13 S3 1_555 1_555
C14 C13 1_555 1_555
H13 C14 1_555 1_555
C15 N4 1_555 1_555
H14 C15 1_555 1_555
C16 H15 1_555 1_555
C17 C16 1_555 1_555
H16 C17 1_555 1_555
C18 C17 1_555 1_555
C19 C18 1_555 1_555
H17 C19 1_555 1_555
C20 N5 1_555 1_555
H18 C20 1_555 1_555
O5 N6 1_555 1_555
O6 N6 1_555 1_555
O7 N6 1_555 1_555
O8 H19 1_555 1_555
H20 O8 1_555 1_555
O9 H21 1_555 1_555
H22 O9 1_555 1_555
O10 H23 1_555 1_555
H24 O10 1_555 1_555
O11 H25 1_555 1_555
H26 O11 1_555 1_555
Zn1_2 N3 1_555 1_555
N3_2 Zn1 1_555 1_555
N5_2 Zn1 1_555 1_555
N5 Zn1_2 1_555 1_555
C2 C3 1_555 1_555
C4 C5 1_555 1_555
C9 C10 1_555 1_555
C12 C13 1_555 1_555
C14 C15 1_555 1_555
C19 C20 1_555 1_555

#END
