
#######################################################################
#
#                 Cambridge Crystallographic Data Centre
#                                CCDC 
#
#######################################################################
#
# If this CIF has been generated from an entry in the Cambridge 
# Structural Database, then it will include bibliographic, chemical, 
# crystal, experimental, refinement or atomic coordinate data resulting 
# from the CCDC's data processing and validation procedures.
#
#######################################################################

data_FARPUJ
_symmetry_cell_setting           triclinic
_symmetry_space_group_name_H-M   'P -1'
_symmetry_Int_Tables_number      2
_space_group_name_Hall           '-P 1'
loop_
_symmetry_equiv_pos_site_id
_symmetry_equiv_pos_as_xyz
1 x,y,z
2 -x,-y,-z
_cell_length_a                   6.495(1)
_cell_length_b                   9.111(2)
_cell_length_c                   10.632(4)
_cell_angle_alpha                83.72(2)
_cell_angle_beta                 82.57(2)
_cell_angle_gamma                87.74(1)
_cell_volume                     619.928
loop_
_atom_site_label
_atom_site_type_symbol
_atom_site_fract_x
_atom_site_fract_y
_atom_site_fract_z
Hg1 Hg -0.78048(3) 0.13707(2) 0.31564(2)
S1 S -0.1289(2) -0.1610(2) 0.4566(1)
C1 C -0.3622(9) -0.1284(6) 0.4099(5)
N1 N -0.5256(10) -0.1056(6) 0.3762(6)
S2 S -0.7848(4) 0.0568(2) 0.1069(2)
C2 C -0.8022(9) -0.1246(7) 0.1424(6)
N2 N -0.8163(10) -0.2506(6) 0.1583(7)
N3 N -0.4805(7) 0.3082(5) 0.2677(4)
N4 N -0.1083(7) 0.3255(5) 0.2705(4)
N5 N -0.3412(7) 0.5300(5) 0.3314(5)
N6 N -0.2800(7) 0.4783(6) 0.1087(5)
C3 C -0.2863(8) 0.2273(5) 0.2931(5)
C4 C -0.5124(8) 0.4305(6) 0.3520(5)
C5 C -0.4534(9) 0.3772(2) 0.1331(5)
C6 C -0.1491(6) 0.4447(6) 0.3541(6)
C7 C -0.3146(9) 0.5948(6) 0.1968(6)
C8 C -0.0903(8) 0.3935(6) 0.1362(5)
H1 H -0.2616 0.1504 0.2376
H2 H -0.3009 0.1843 0.3803
H3 H -0.5271 0.3881 0.4393
H4 H -0.6366 0.4858 0.3354
H5 H -0.5784 0.4305 0.1150
H6 H -0.4258 0.3001 0.0781
H7 H -0.0345 0.5105 0.3383
H8 H -0.1628 0.4024 0.4414
H9 H -0.4369 0.6524 0.1799
H10 H -0.1966 0.6574 0.1829
H11 H -0.0672 0.3167 0.0807
H12 H 0.0251 0.4584 0.1206
N4_2 N -1.1083(7) 0.3255(5) 0.2705(4)
Hg1A Hg -0.21952(3) -0.13707(2) 0.68436(2)
S1A S -0.8711(2) 0.1610(2) 0.5434(1)
Hg1_2 Hg 0.21952(3) 0.13707(2) 0.31564(2)
loop_
_geom_bond_atom_site_label_1
_geom_bond_atom_site_label_2
_geom_bond_site_symmetry_1
_geom_bond_site_symmetry_2
Hg1 N1 1_555 1_555
S1 C1 1_555 1_555
C1 N1 1_555 1_555
S2 Hg1 1_555 1_555
C2 S2 1_555 1_555
N2 C2 1_555 1_555
N3 Hg1 1_555 1_555
N4 C3 1_555 1_555
N5 C4 1_555 1_555
N6 C5 1_555 1_555
C3 N3 1_555 1_555
C4 N3 1_555 1_555
C5 N3 1_555 1_555
C6 N4 1_555 1_555
C7 N5 1_555 1_555
C8 N4 1_555 1_555
H1 C3 1_555 1_555
H2 C3 1_555 1_555
H3 C4 1_555 1_555
H4 C4 1_555 1_555
H5 C5 1_555 1_555
H6 C5 1_555 1_555
H7 C6 1_555 1_555
H8 C6 1_555 1_555
H9 C7 1_555 1_555
H10 C7 1_555 1_555
H11 C8 1_555 1_555
H12 C8 1_555 1_555
N4_2 Hg1 1_555 1_555
Hg1A S1 1_555 1_555
S1A Hg1 1_555 1_555
Hg1_2 N4 1_555 1_555
N5 C6 1_555 1_555
N6 C8 1_555 1_555
N6 C7 1_555 1_555

#END
