
#######################################################################
#
#                 Cambridge Crystallographic Data Centre
#                                CCDC 
#
#######################################################################
#
# If this CIF has been generated from an entry in the Cambridge 
# Structural Database, then it will include bibliographic, chemical, 
# crystal, experimental, refinement or atomic coordinate data resulting 
# from the CCDC's data processing and validation procedures.
#
#######################################################################

data_FARVOJ
_symmetry_cell_setting           monoclinic
_symmetry_space_group_name_H-M   'C 2/m'
_symmetry_Int_Tables_number      12
_space_group_name_Hall           '-C 2y'
loop_
_symmetry_equiv_pos_site_id
_symmetry_equiv_pos_as_xyz
1 x,y,z
2 1/2+x,1/2+y,z
3 -x,y,-z
4 1/2-x,1/2+y,-z
5 -x,-y,-z
6 1/2-x,1/2-y,-z
7 x,-y,z
8 1/2+x,1/2-y,z
_cell_length_a                   10.701(4)
_cell_length_b                   7.586(3)
_cell_length_c                   7.550(3)
_cell_angle_alpha                90
_cell_angle_beta                 118.40(2)
_cell_angle_gamma                90
_cell_volume                     539.13
loop_
_atom_site_label
_atom_site_type_symbol
_atom_site_fract_x
_atom_site_fract_y
_atom_site_fract_z
C1 C -0.0724(13) 0.4092(14) -0.1722(13)
Sn1 Sn 0.00000 0.0000 0.00000
Br1 Br 0.28016(20) 0.0000 0.27857(26)
N1 N 0.00000 0.3163(16) 0.00000
C2 C -0.0588(24) 0.0000 0.2289(27)
H1 H 0.0088 0.0000 0.3767
H2 H -0.1187 0.1077 0.2045
H3 H -0.1272 0.3446 -0.3022
C1F C -0.0724(13) 0.5908(14) -0.1722(13)
C1B C 0.0724(13) 0.4092(14) 0.1722(13)
Br1B Br -0.28016(20) 0.0000 -0.27857(26)
N1D N 0.00000 -0.3163(16) 0.00000
C2B C 0.0588(24) 0.0000 -0.2289(27)
H2F H -0.1187 -0.1077 0.2045
N1D_2 N 0.00000 0.6837(16) 0.00000
H3F H -0.1272 0.6554 -0.3022
C1D C 0.0724(13) 0.5908(14) 0.1722(13)
H3B H 0.1272 0.3446 0.3022
H1B H -0.0088 0.0000 -0.3767
H2D H 0.1187 -0.1077 -0.2045
H2B H 0.1187 0.1077 -0.2045
H3D H 0.1272 0.6554 0.3022
Sn1_2 Sn 0.00000 1.0000 0.00000
loop_
_geom_bond_atom_site_label_1
_geom_bond_atom_site_label_2
_geom_bond_site_symmetry_1
_geom_bond_site_symmetry_2
C1 N1 1_555 1_555
Sn1 Br1 1_555 1_555
N1 Sn1 1_555 1_555
C2 Sn1 1_555 1_555
H1 C2 1_555 1_555
H2 C2 1_555 1_555
H3 C1 1_555 1_555
C1F C1 1_555 1_555
C1B N1 1_555 1_555
Br1B Sn1 1_555 1_555
N1D Sn1 1_555 1_555
C2B Sn1 1_555 1_555
H2F C2 1_555 1_555
N1D_2 C1F 1_555 1_555
H3F C1F 1_555 1_555
C1D C1B 1_555 1_555
H3B C1B 1_555 1_555
H1B C2B 1_555 1_555
H2D C2B 1_555 1_555
H2B C2B 1_555 1_555
H3D C1D 1_555 1_555
Sn1_2 N1D_2 1_555 1_555
N1D_2 C1D 1_555 1_555

#END
