
#######################################################################
#
#                 Cambridge Crystallographic Data Centre
#                                CCDC 
#
#######################################################################
#
# If this CIF has been generated from an entry in the Cambridge 
# Structural Database, then it will include bibliographic, chemical, 
# crystal, experimental, refinement or atomic coordinate data resulting 
# from the CCDC's data processing and validation procedures.
#
#######################################################################

data_FARVAW
_symmetry_cell_setting           triclinic
_symmetry_space_group_name_H-M   'P 1'
_symmetry_Int_Tables_number      1
_space_group_name_Hall           'P 1'
loop_
_symmetry_equiv_pos_site_id
_symmetry_equiv_pos_as_xyz
1 x,y,z
_cell_length_a                   8.336(5)
_cell_length_b                   10.253(5)
_cell_length_c                   10.893(5)
_cell_angle_alpha                85.136(5)
_cell_angle_beta                 89.657(5)
_cell_angle_gamma                85.960(5)
_cell_volume                     925.356
loop_
_atom_site_label
_atom_site_type_symbol
_atom_site_fract_x
_atom_site_fract_y
_atom_site_fract_z
C1 C -0.1073(14) 0.2835(11) 1.0316(10)
C2 C -0.199(2) 0.1618(13) 1.0030(13)
H1 H -0.1927 0.0982 1.0731
H2 H -0.1508 0.1235 0.9330
H3 H -0.3096 0.1888 0.9854
C3 C 0.1678(14) 0.7441(11) 0.9515(10)
C4 C 0.252(2) 0.8554(17) 0.9843(13)
H4 H 0.2861 0.8410 1.0688
H5 H 0.1816 0.9336 0.9738
H6 H 0.3445 0.8650 0.9322
C5 C 0.3518(16) 0.4543(10) 0.8766(11)
H7 H 0.3830 0.5366 0.8924
C6 C 0.3595(18) 0.2664(14) 0.8122(11)
H8 H 0.3926 0.1914 0.7740
C7 C 0.2241(19) 0.2895(15) 0.8718(12)
H9 H 0.1448 0.2304 0.8847
C8 C 0.5928(18) 0.4009(15) 0.7508(13)
H10 H 0.6574 0.3185 0.7500
H11 H 0.6532 0.4604 0.7939
C9 C 0.5647(17) 0.4584(14) 0.6190(12)
C10 C 0.5565(18) 0.5876(15) 0.5903(11)
H12 H 0.5736 0.6430 0.6516
C11 C 0.5219(16) 0.6432(14) 0.4669(11)
H13 H 0.5127 0.7337 0.4489
C12 C 0.5026(17) 0.5602(13) 0.3753(11)
C13 C 0.5113(18) 0.4212(12) 0.4095(12)
H14 H 0.4974 0.3626 0.3504
C14 C 0.5397(19) 0.3767(15) 0.5276(13)
H15 H 0.5427 0.2867 0.5486
C15 C 0.4711(18) 0.6104(15) 0.2448(13)
H16 H 0.4193 0.5451 0.2026
H17 H 0.3991 0.6892 0.2422
C16 C 0.7151(16) 0.5452(10) 0.1194(11)
H18 H 0.6908 0.4599 0.1083
C17 C 0.8440(18) 0.7305(14) 0.1167(11)
H19 H 0.9223 0.7904 0.1036
C18 C 0.7001(17) 0.7516(15) 0.1789(12)
H20 H 0.6639 0.8287 0.2125
N1 N 0.2162(16) 0.4155(12) 0.9130(10)
N2 N 0.4415(13) 0.3775(11) 0.8189(9)
N3 N 0.6215(15) 0.6400(12) 0.1822(9)
N4 N 0.8513(14) 0.6076(12) 0.0780(9)
O1 O -0.1072(11) 0.3738(10) 0.9539(8)
O2 O -0.0330(13) 0.2739(11) 1.1341(8)
O3 O 0.1761(12) 0.6401(9) 1.0402(8)
O4 O 0.0982(14) 0.7376(10) 0.8569(9)
Cu1 Cu 0.0333(4) 0.5077(3) 0.9967(2)
N4_2 N -0.1487(14) 0.6076(12) 1.0780(9)
Cu1_2 Cu 1.0333(4) 0.5077(3) -0.0033(2)
C19 C 0.6467(17) 0.9499(15) 0.7277(11)
C20 C 0.6966(15) 0.8715(14) 0.8429(12)
H21 H 0.6722 0.7820 0.8377
H22 H 0.6398 0.9063 0.9111
H23 H 0.8102 0.8753 0.8545
C21 C 0.4229(17) 1.0670(15) 0.2710(11)
C22 C 0.3651(18) 1.1531(14) 0.1546(10)
H24 H 0.3163 1.0998 0.0990
H25 H 0.4551 1.1924 0.1151
H26 H 0.2877 1.2206 0.1774
C23 C 0.8472(17) 0.8650(15) 0.4669(12)
H27 H 0.8240 0.7998 0.5278
C24 C 0.981(2) 0.9765(16) 0.3234(13)
H28 H 1.0597 1.0021 0.2672
C25 C 0.8386(16) 1.0433(12) 0.3422(10)
H29 H 0.8038 1.1244 0.3030
C26 C 1.1323(10) 0.7686(9) 0.4329(6)
H30 H 1.2067 0.7699 0.3641
H31 H 1.1879 0.7954 0.5036
C27 C 1.0816(18) 0.6308(14) 0.4616(13)
C28 C 1.0410(17) 0.5405(14) 0.3723(10)
H32 H 1.0447 0.5645 0.2881
C29 C 0.9989(19) 0.4238(16) 0.4146(13)
H33 H 0.9749 0.3665 0.3566
C30 C 0.9874(17) 0.3791(14) 0.5354(12)
C31 C 1.0164(18) 0.4618(14) 0.6178(12)
H34 H 1.0029 0.4342 0.7005
C32 C 1.0684(18) 0.5940(13) 0.5874(12)
H35 H 1.0910 0.6494 0.6474
C33 C 0.9428(10) 0.2483(9) 0.5915(6)
H36 H 0.9086 0.2560 0.6760
H37 H 0.8534 0.2199 0.5463
C34 C 1.2150(17) 0.1543(14) 0.5294(12)
H38 H 1.2411 0.2212 0.4712
C35 C 1.2353(16) -0.0187(14) 0.6484(11)
H39 H 1.2777 -0.0955 0.6916
C36 C 1.086(2) 0.0368(16) 0.6663(13)
H40 H 1.0068 0.0053 0.7188
N5 N 0.7486(15) 0.9666(11) 0.4343(10)
N6 N 0.9892(14) 0.8650(12) 0.4015(11)
N7 N 1.0784(14) 0.1505(11) 0.5892(9)
N8 N 1.3117(15) 0.0477(12) 0.5641(10)
O5 O 0.5844(11) 0.8858(9) 0.6431(7)
O6 O 0.6639(13) 1.0687(9) 0.7138(9)
O7 O 0.4874(11) 1.1266(9) 0.3525(8)
O8 O 0.4006(11) 0.9477(9) 0.2824(8)
Cu2 Cu 0.5330(4) 1.0077(3) 0.4968(2)
N8_2 N 0.3117(15) 1.0477(12) 0.5641(10)
Cu2_2 Cu 1.5330(4) 0.0077(3) 0.4968(2)
loop_
_geom_bond_atom_site_label_1
_geom_bond_atom_site_label_2
_geom_bond_site_symmetry_1
_geom_bond_site_symmetry_2
C1 C2 1_555 1_555
C2 H1 1_555 1_555
H2 C2 1_555 1_555
H3 C2 1_555 1_555
C3 C4 1_555 1_555
C4 H4 1_555 1_555
H5 C4 1_555 1_555
H6 C4 1_555 1_555
C5 H7 1_555 1_555
C6 H8 1_555 1_555
C7 C6 1_555 1_555
H9 C7 1_555 1_555
C8 H10 1_555 1_555
H11 C8 1_555 1_555
C9 C8 1_555 1_555
C10 C9 1_555 1_555
H12 C10 1_555 1_555
C11 C10 1_555 1_555
H13 C11 1_555 1_555
C12 C11 1_555 1_555
C13 C12 1_555 1_555
H14 C13 1_555 1_555
C14 C9 1_555 1_555
H15 C14 1_555 1_555
C15 C12 1_555 1_555
H16 C15 1_555 1_555
H17 C15 1_555 1_555
C16 H18 1_555 1_555
C17 H19 1_555 1_555
C18 C17 1_555 1_555
H20 C18 1_555 1_555
C19 C20 1_555 1_555
C20 H21 1_555 1_555
H22 C20 1_555 1_555
H23 C20 1_555 1_555
C21 C22 1_555 1_555
C22 H24 1_555 1_555
H25 C22 1_555 1_555
H26 C22 1_555 1_555
C23 H27 1_555 1_555
C24 H28 1_555 1_555
C25 C24 1_555 1_555
H29 C25 1_555 1_555
C26 H30 1_555 1_555
H31 C26 1_555 1_555
C27 C26 1_555 1_555
C28 C27 1_555 1_555
H32 C28 1_555 1_555
C29 C28 1_555 1_555
H33 C29 1_555 1_555
C30 C29 1_555 1_555
C31 C30 1_555 1_555
H34 C31 1_555 1_555
C32 C27 1_555 1_555
H35 C32 1_555 1_555
C33 C30 1_555 1_555
H36 C33 1_555 1_555
H37 C33 1_555 1_555
C34 H38 1_555 1_555
C35 H39 1_555 1_555
C36 C35 1_555 1_555
H40 C36 1_555 1_555
N1 C5 1_555 1_555
N2 C5 1_555 1_555
N3 C15 1_555 1_555
N4 C16 1_555 1_555
N5 C23 1_555 1_555
N6 C23 1_555 1_555
N7 C33 1_555 1_555
N8 C34 1_555 1_555
O1 C1 1_555 1_555
O2 C1 1_555 1_555
O3 C3 1_555 1_555
O4 C3 1_555 1_555
O5 C19 1_555 1_555
O6 C19 1_555 1_555
O7 C21 1_555 1_555
O8 C21 1_555 1_555
Cu1 N1 1_555 1_555
Cu2 N5 1_555 1_555
N4_2 Cu1 1_555 1_555
N8_2 Cu2 1_555 1_555
Cu1_2 N4 1_555 1_555
Cu2_2 N8 1_555 1_555
C6 N2 1_555 1_555
C7 N1 1_555 1_555
C8 N2 1_555 1_555
C13 C14 1_555 1_555
C16 N3 1_555 1_555
C17 N4 1_555 1_555
C18 N3 1_555 1_555
C24 N6 1_555 1_555
C25 N5 1_555 1_555
C26 N6 1_555 1_555
C31 C32 1_555 1_555
C34 N7 1_555 1_555
C35 N8 1_555 1_555
C36 N7 1_555 1_555
O1 Cu1 1_555 1_555
O3 Cu1 1_555 1_555
O5 Cu2 1_555 1_555
O7 Cu2 1_555 1_555

#END
