
#######################################################################
#
#                 Cambridge Crystallographic Data Centre
#                                CCDC 
#
#######################################################################
#
# If this CIF has been generated from an entry in the Cambridge 
# Structural Database, then it will include bibliographic, chemical, 
# crystal, experimental, refinement or atomic coordinate data resulting 
# from the CCDC's data processing and validation procedures.
#
#######################################################################

data_FARVUP
_symmetry_cell_setting           triclinic
_symmetry_space_group_name_H-M   'P -1'
_symmetry_Int_Tables_number      2
_space_group_name_Hall           '-P 1'
loop_
_symmetry_equiv_pos_site_id
_symmetry_equiv_pos_as_xyz
1 x,y,z
2 -x,-y,-z
_cell_length_a                   5.378(1)
_cell_length_b                   5.619(1)
_cell_length_c                   13.569(2)
_cell_angle_alpha                93.32(1)
_cell_angle_beta                 100.25(1)
_cell_angle_gamma                98.45(1)
_cell_volume                     397.626
loop_
_atom_site_label
_atom_site_type_symbol
_atom_site_fract_x
_atom_site_fract_y
_atom_site_fract_z
Cu1 Cu 0.8185(1) 0.4846(1) 0.8997(1)
Cu2 Cu 1.00000 0.00000 1.00000
Cr1 Cr 1.3785(2) -0.1517(2) 0.8474(1)
O1 O 1.1094(6) 0.3316(6) 0.9647(3)
O2 O 1.0925(7) -0.1534(6) 0.8835(3)
O3 O 0.4852(7) 0.5869(7) 0.8742(3)
O4 O 0.5863(8) 0.0754(7) 0.9039(3)
O5 O 1.3382(8) -0.1327(8) 0.7286(3)
N1 N 0.825(2) 0.397(2) 0.756(1)
C1 C 0.859(2) 0.179(2) 0.719(1)
C2 C 0.851(2) 0.122(2) 0.618(1)
C3 C 0.804(2) 0.289(2) 0.551(1)
C4 C 0.767(2) 0.510(2) 0.587(1)
C5 C 0.781(2) 0.557(2) 0.689(5)
O1A O 0.8906(6) -0.3316(6) 1.0353(3)
O2A O 0.9075(7) 0.1534(6) 1.1165(3)
O4A O 1.4137(8) -0.0754(7) 1.0961(3)
Cu1A Cu 1.1815(1) -0.4846(1) 1.1003(1)
Cr1A Cr 0.6215(2) 0.1517(2) 1.1526(1)
O3_2 O 1.4852(7) -0.4131(7) 0.8742(3)
N1A N 1.175(2) -0.397(2) 1.244(1)
C1A C 1.141(2) -0.179(2) 1.281(1)
C2A C 1.149(2) -0.122(2) 1.382(1)
C3A C 1.196(2) -0.289(2) 1.449(1)
C4A C 1.233(2) -0.510(2) 1.413(1)
C5A C 1.219(2) -0.557(2) 1.311(5)
O5A O 0.6618(8) 0.1327(8) 1.2714(3)
O1A_2 O 0.8906(6) 0.6684(6) 1.0353(3)
O2_2 O 1.0925(7) 0.8466(6) 0.8835(3)
O4_2 O 1.5863(8) 0.0754(7) 0.9039(3)
Cu1A_2 Cu 1.1815(1) 0.5154(1) 1.1003(1)
Cu1_2 Cu 0.8185(1) -0.5154(1) 0.8997(1)
Cr1_2 Cr 0.3785(2) 0.8483(2) 0.8474(1)
Cr1_3 Cr 0.3785(2) -0.1517(2) 0.8474(1)
Cr1A_2 Cr 1.6215(2) 0.1517(2) 1.1526(1)
O1_2 O 1.1094(6) -0.6684(6) 0.9647(3)
O2A_2 O 0.9075(7) -0.8466(6) 1.1165(3)
O3A O 1.5148(7) -0.5869(7) 1.1258(3)
O3A_2 O 0.5148(7) 0.4131(7) 1.1258(3)
O4A_2 O 0.4137(8) -0.0754(7) 1.0961(3)
Cu1_3 Cu 1.8185(1) -0.5154(1) 0.8997(1)
loop_
_geom_bond_atom_site_label_1
_geom_bond_atom_site_label_2
_geom_bond_site_symmetry_1
_geom_bond_site_symmetry_2
Cu1 O1 1_555 1_555
Cu2 O1 1_555 1_555
Cr1 O2 1_555 1_555
O1 Cu1A_2 1_555 1_555
O2 Cu2 1_555 1_555
O3 Cu1 1_555 1_555
O4 Cu1 1_555 1_555
O5 Cr1 1_555 1_555
N1 Cu1 1_555 1_555
C1 N1 1_555 1_555
C2 C1 1_555 1_555
C3 C2 1_555 1_555
C4 C3 1_555 1_555
C5 N1 1_555 1_555
O1A Cu2 1_555 1_555
O2A Cu2 1_555 1_555
O4A Cu2 1_555 1_555
Cu1A O1A 1_555 1_555
Cr1A O2A 1_555 1_555
O3_2 Cr1 1_555 1_555
N1A Cu1A 1_555 1_555
C1A N1A 1_555 1_555
C2A C1A 1_555 1_555
C3A C2A 1_555 1_555
C4A C3A 1_555 1_555
C5A N1A 1_555 1_555
O5A Cr1A 1_555 1_555
O1A_2 Cu1 1_555 1_555
O2_2 Cu1 1_555 1_555
O4_2 Cr1 1_555 1_555
Cu1A_2 O2A 1_555 1_555
Cu1_2 O2 1_555 1_555
Cr1_2 O3 1_555 1_555
Cr1_3 O4 1_555 1_555
Cr1A_2 O4A 1_555 1_555
O1_2 Cu1A 1_555 1_555
O2A_2 Cu1A 1_555 1_555
O3A Cu1A 1_555 1_555
O3A_2 Cr1A 1_555 1_555
O4A_2 Cr1A 1_555 1_555
Cu1_3 O3_2 1_555 1_555
Cu2 O4 1_555 1_555
C4 C5 1_555 1_555
O1A Cu1_2 1_555 1_555
O4A Cu1A 1_555 1_555
C4A C5A 1_555 1_555
O1A_2 Cu1A_2 1_555 1_555
Cu1_2 O1_2 1_555 1_555

#END
