
#######################################################################
#
#                 Cambridge Crystallographic Data Centre
#                                CCDC 
#
#######################################################################
#
# If this CIF has been generated from an entry in the Cambridge 
# Structural Database, then it will include bibliographic, chemical, 
# crystal, experimental, refinement or atomic coordinate data resulting 
# from the CCDC's data processing and validation procedures.
#
#######################################################################

data_FARVEA
_symmetry_cell_setting           monoclinic
_symmetry_space_group_name_H-M   'C 2/c'
_symmetry_Int_Tables_number      15
_space_group_name_Hall           '-C 2yn'
loop_
_symmetry_equiv_pos_site_id
_symmetry_equiv_pos_as_xyz
1 x,y,z
2 1/2+x,1/2+y,z
3 -x,y,1/2-z
4 1/2-x,1/2+y,1/2-z
5 -x,-y,-z
6 1/2-x,1/2-y,-z
7 x,-y,1/2+z
8 1/2+x,1/2-y,1/2+z
_cell_length_a                   29.808(6)
_cell_length_b                   8.2874(17)
_cell_length_c                   16.608(3)
_cell_angle_alpha                90
_cell_angle_beta                 116.24(3)
_cell_angle_gamma                90
_cell_volume                     3679.91
loop_
_atom_site_label
_atom_site_type_symbol
_atom_site_fract_x
_atom_site_fract_y
_atom_site_fract_z
C1 C 0.1783(2) 0.7608(6) 0.4581(4)
C2 C 0.23331(19) 0.7648(6) 0.5148(3)
H1 H 0.2451 0.7903 0.5766
C3 C 0.04167(19) 0.5676(5) 0.1215(3)
C4 C -0.00226(19) 0.5269(6) 0.0352(3)
H2 H -0.0349 0.5405 0.0310
C5 C 0.1195(2) 0.4313(6) 0.4284(4)
H3 H 0.1415 0.5012 0.4741
C6 C 0.0772(2) 0.2179(6) 0.3605(4)
H4 H 0.0639 0.1117 0.3486
C7 C 0.0667(2) 0.3384(6) 0.3015(4)
H5 H 0.0440 0.3315 0.2396
C8 C 0.12965(19) 0.1937(6) 0.5285(3)
H6 H 0.1258 0.0759 0.5177
H7 H 0.1088 0.2252 0.5587
C9 C 0.1837(2) 0.2299(6) 0.5903(4)
C10 C 0.2219(2) 0.1671(6) 0.5746(4)
H8 H 0.2143 0.1141 0.5193
C11 C 0.27154(19) 0.1801(7) 0.6383(3)
H9 H 0.2973 0.1348 0.6263
C12 C 0.2838(2) 0.2588(6) 0.7192(4)
C13 C 0.2454(2) 0.3293(6) 0.7318(4)
H10 H 0.2532 0.3886 0.7853
C14 C 0.1958(2) 0.3164(6) 0.6688(3)
H11 H 0.1703 0.3666 0.6794
C15 C 0.3359(2) 0.2504(6) 0.7949(4)
H12 H 0.3334 0.2467 0.8523
H13 H 0.3515 0.1481 0.7894
C16 C 0.3589(2) 0.5157(6) 0.7473(3)
H14 H 0.3270 0.5413 0.7003
C17 C 0.4367(2) 0.5248(6) 0.8403(4)
H15 H 0.4705 0.5594 0.8710
C18 C 0.4181(2) 0.3881(6) 0.8584(4)
H16 H 0.4359 0.3111 0.9038
N1 N 0.09345(15) 0.4735(4) 0.3435(3)
N2 N 0.11091(15) 0.2773(4) 0.4415(3)
N3 N 0.36895(15) 0.3830(5) 0.7990(3)
N4 N 0.39945(15) 0.6060(5) 0.7707(3)
O1 O 0.05388(13) 0.8212(4) 0.3600(2)
H17 H 0.0781(14) 0.809(7) 0.4109(16)
H18 H 0.0326(15) 0.758(5) 0.363(4)
O2 O 0.16414(12) 0.7181(4) 0.3770(2)
O3 O 0.15036(14) 0.7967(4) 0.4932(2)
O4 O 0.03129(12) 0.6378(4) 0.1802(2)
O5 O 0.08454(13) 0.5357(4) 0.1323(2)
Cu1 Cu 0.09482(2) 0.68876(7) 0.28746(4)
C1E C 0.3217(2) 0.7392(6) 0.5419(4)
C2E C 0.26669(19) 0.7352(6) 0.4852(3)
H1E H 0.2549 0.7097 0.4234
C3D C -0.04167(19) 0.4324(5) -0.1215(3)
C4D C 0.00226(19) 0.4731(6) -0.0352(3)
H2D H 0.0349 0.4595 -0.0310
C5E C 0.3805(2) 1.0687(6) 0.5716(4)
H3E H 0.3585 0.9988 0.5259
C6E C 0.4228(2) 1.2821(6) 0.6395(4)
H4E H 0.4361 1.3883 0.6514
C7E C 0.4333(2) 1.1616(6) 0.6985(4)
H5E H 0.4560 1.1685 0.7604
C8E C 0.37035(19) 1.3063(6) 0.4715(3)
H6E H 0.3742 1.4241 0.4823
H7E H 0.3912 1.2748 0.4413
C9E C 0.3163(2) 1.2701(6) 0.4097(4)
C10E C 0.2781(2) 1.3329(6) 0.4254(4)
H8E H 0.2857 1.3859 0.4807
C11E C 0.22846(19) 1.3199(7) 0.3617(3)
H9E H 0.2027 1.3652 0.3737
C12E C 0.2162(2) 1.2412(6) 0.2808(4)
C13E C 0.2546(2) 1.1707(6) 0.2682(4)
H10E H 0.2468 1.1114 0.2147
C14E C 0.3042(2) 1.1836(6) 0.3312(3)
H11E H 0.3297 1.1334 0.3206
C15E C 0.1641(2) 1.2496(6) 0.2051(4)
H12E H 0.1666 1.2533 0.1477
H13E H 0.1485 1.3519 0.2106
C16E C 0.1411(2) 0.9843(6) 0.2527(3)
H14E H 0.1730 0.9587 0.2997
C17E C 0.0633(2) 0.9752(6) 0.1597(4)
H15E H 0.0295 0.9406 0.1290
C18E C 0.0819(2) 1.1119(6) 0.1416(4)
H16E H 0.0641 1.1889 0.0962
N1E N 0.40655(15) 1.0265(4) 0.6565(3)
N2E N 0.38909(15) 1.2227(4) 0.5585(3)
N3E N 0.13105(15) 1.1170(5) 0.2010(3)
N4E N 0.10055(15) 0.8940(5) 0.2293(3)
O1E O 0.44612(13) 0.6788(4) 0.6400(2)
H17E H 0.4219(14) 0.691(7) 0.5891(16)
H18E H 0.4674(15) 0.742(5) 0.637(4)
O2E O 0.33586(12) 0.7819(4) 0.6230(2)
O3E O 0.34964(14) 0.7033(4) 0.5068(2)
O4D O -0.03129(12) 0.3622(4) -0.1802(2)
O4E O 0.46871(12) 0.8622(4) 0.8198(2)
O5D O -0.08454(13) 0.4643(4) -0.1323(2)
Cu1E Cu 0.40518(2) 0.81124(7) 0.71254(4)
Cu1D Cu -0.09482(2) 0.31124(7) -0.28746(4)
loop_
_geom_bond_atom_site_label_1
_geom_bond_atom_site_label_2
_geom_bond_site_symmetry_1
_geom_bond_site_symmetry_2
C1 C2 1_555 1_555
C2 H1 1_555 1_555
C3 C4 1_555 1_555
C4 H2 1_555 1_555
C5 H3 1_555 1_555
C6 H4 1_555 1_555
C7 C6 1_555 1_555
H5 C7 1_555 1_555
C8 H6 1_555 1_555
H7 C8 1_555 1_555
C9 C8 1_555 1_555
C10 C9 1_555 1_555
H8 C10 1_555 1_555
C11 C10 1_555 1_555
H9 C11 1_555 1_555
C12 C11 1_555 1_555
C13 C12 1_555 1_555
H10 C13 1_555 1_555
C14 C9 1_555 1_555
H11 C14 1_555 1_555
C15 C12 1_555 1_555
H12 C15 1_555 1_555
H13 C15 1_555 1_555
C16 H14 1_555 1_555
C17 H15 1_555 1_555
C18 C17 1_555 1_555
H16 C18 1_555 1_555
N1 C5 1_555 1_555
N2 C5 1_555 1_555
N3 C15 1_555 1_555
N4 C16 1_555 1_555
O1 H17 1_555 1_555
H18 O1 1_555 1_555
O2 C1 1_555 1_555
O3 C1 1_555 1_555
O4 C3 1_555 1_555
O5 C3 1_555 1_555
Cu1 N1 1_555 1_555
C1E C2E 1_555 1_555
C2E C2 1_555 1_555
H1E C2E 1_555 1_555
C3D C4D 1_555 1_555
C4D C4 1_555 1_555
H2D C4D 1_555 1_555
C5E H3E 1_555 1_555
C6E H4E 1_555 1_555
C7E C6E 1_555 1_555
H5E C7E 1_555 1_555
C8E H6E 1_555 1_555
H7E C8E 1_555 1_555
C9E C8E 1_555 1_555
C10E C9E 1_555 1_555
H8E C10E 1_555 1_555
C11E C10E 1_555 1_555
H9E C11E 1_555 1_555
C12E C11E 1_555 1_555
C13E C12E 1_555 1_555
H10E C13E 1_555 1_555
C14E C9E 1_555 1_555
H11E C14E 1_555 1_555
C15E C12E 1_555 1_555
H12E C15E 1_555 1_555
H13E C15E 1_555 1_555
C16E H14E 1_555 1_555
C17E H15E 1_555 1_555
C18E C17E 1_555 1_555
H16E C18E 1_555 1_555
N1E C5E 1_555 1_555
N2E C5E 1_555 1_555
N3E C15E 1_555 1_555
N4E Cu1 1_555 1_555
O1E H17E 1_555 1_555
H18E O1E 1_555 1_555
O2E C1E 1_555 1_555
O3E C1E 1_555 1_555
O4D C3D 1_555 1_555
O4E Cu1E 1_555 1_555
O5D C3D 1_555 1_555
Cu1E N4 1_555 1_555
Cu1D O4D 1_555 1_555
C6 N2 1_555 1_555
C7 N1 1_555 1_555
C8 N2 1_555 1_555
C13 C14 1_555 1_555
C16 N3 1_555 1_555
C17 N4 1_555 1_555
C18 N3 1_555 1_555
O1 Cu1 1_555 1_555
O2 Cu1 1_555 1_555
O4 Cu1 1_555 1_555
C6E N2E 1_555 1_555
C7E N1E 1_555 1_555
C8E N2E 1_555 1_555
C13E C14E 1_555 1_555
C16E N3E 1_555 1_555
C16E N4E 1_555 1_555
C17E N4E 1_555 1_555
C18E N3E 1_555 1_555
N1E Cu1E 1_555 1_555
O1E Cu1E 1_555 1_555
O2E Cu1E 1_555 1_555

#END
