
#######################################################################
#
#                 Cambridge Crystallographic Data Centre
#                                CCDC 
#
#######################################################################
#
# If this CIF has been generated from an entry in the Cambridge 
# Structural Database, then it will include bibliographic, chemical, 
# crystal, experimental, refinement or atomic coordinate data resulting 
# from the CCDC's data processing and validation procedures.
#
#######################################################################

data_FARZUU
_symmetry_cell_setting           triclinic
_symmetry_space_group_name_H-M   'P -1'
_symmetry_Int_Tables_number      2
_space_group_name_Hall           '-P 1'
loop_
_symmetry_equiv_pos_site_id
_symmetry_equiv_pos_as_xyz
1 x,y,z
2 -x,-y,-z
_cell_length_a                   7.1429(8)
_cell_length_b                   11.1149(11)
_cell_length_c                   16.2907(18)
_cell_angle_alpha                98.958(7)
_cell_angle_beta                 53.860(5)
_cell_angle_gamma                99.271(4)
_cell_volume                     1027.85
loop_
_atom_site_label
_atom_site_type_symbol
_atom_site_fract_x
_atom_site_fract_y
_atom_site_fract_z
C1 C -0.2814(9) 0.2329(5) 0.0809(4)
C2 C 0.2603(9) 0.2757(4) -0.0349(4)
C3 C -0.2464(10) 0.0332(6) 0.2326(4)
H1 H -0.3781 0.0357 0.2343
C4 C -0.2636(11) 0.0592(6) 0.3225(5)
H2 H -0.4038 0.0785 0.3834
C5 C -0.0665(11) 0.0558(6) 0.3193(4)
C6 C 0.1342(11) 0.0211(6) 0.2285(5)
H3 H 0.2671 0.0148 0.225
C7 C 0.1348(11) -0.0042(6) 0.1429(5)
H4 H 0.2706 -0.0285 0.0819
C8 C -0.0662(11) 0.0951(5) 0.4112(4)
C9 C 0.1853(11) 0.3562(6) -0.2087(5)
H5 H 0.3156 0.354 -0.2092
C10 C 0.1841(11) 0.2969(6) -0.2894(5)
H6 H 0.3098 0.2549 -0.3425
C11 C -0.0069(11) 0.3011(5) -0.2897(4)
C12 C -0.1907(10) 0.3665(6) -0.2089(4)
H7 H -0.3202 0.3728 -0.208
C13 C -0.1765(10) 0.4217(5) -0.1304(5)
H8 H -0.3002 0.4638 -0.0761
C14 C -0.0253(12) 0.2365(5) -0.3719(5)
N1 N -0.2112(8) 0.1386(4) 0.0568(3)
N2 N 0.1941(8) 0.3696(4) -0.0195(4)
N3 N -0.0483(8) 0.0044(4) 0.1430(4)
N4 N 0.0086(8) 0.4170(4) -0.1296(3)
O1 O -0.2514(8) 0.1275(5) 0.4932(3)
O2 O 0.1256(8) 0.0952(5) 0.3996(4)
H9 H 0.1087 0.118 0.4538
O3 O -0.2171(8) 0.2355(5) -0.3603(4)
H10 H -0.2088 0.1976 -0.4096
O4 O 0.1499(9) 0.1878(5) -0.4484(3)
S1 S -0.3787(3) 0.37082(13) 0.11525(12)
S2 S 0.3603(3) 0.14180(12) -0.06230(13)
Ni1 Ni 0.0000 0.00000 0.00000
Ni2 Ni 0.0000 0.50000 0.00000
C1A C 0.2814(9) -0.2329(5) -0.0809(4)
C2A C -0.2603(9) -0.2757(4) 0.0349(4)
C3A C 0.2464(10) -0.0332(6) -0.2326(4)
H1A H 0.3781 -0.0357 -0.2343
C4A C 0.2636(11) -0.0592(6) -0.3225(5)
H2A H 0.4038 -0.0785 -0.3834
C5A C 0.0665(11) -0.0558(6) -0.3193(4)
C6A C -0.1342(11) -0.0211(6) -0.2285(5)
H3A H -0.2671 -0.0148 -0.225
C7A C -0.1348(11) 0.0042(6) -0.1429(5)
H4A H -0.2706 0.0285 -0.0819
C8A C 0.0662(11) -0.0951(5) -0.4112(4)
C9A C -0.1853(11) 0.6438(6) 0.2087(5)
H5A H -0.3156 0.646 0.2092
C10A C -0.1841(11) 0.7031(6) 0.2894(5)
H6A H -0.3098 0.7451 0.3425
C11A C 0.0069(11) 0.6989(5) 0.2897(4)
C12A C 0.1907(10) 0.6335(6) 0.2089(4)
H7A H 0.3202 0.6272 0.208
C13A C 0.1765(10) 0.5783(5) 0.1304(5)
H8A H 0.3002 0.5362 0.0761
C14A C 0.0253(12) 0.7635(5) 0.3719(5)
N1A N 0.2112(8) -0.1386(4) -0.0568(3)
N2A N -0.1941(8) -0.3696(4) 0.0195(4)
N2A_2 N -0.1941(8) 0.6304(4) 0.0195(4)
N3A N 0.0483(8) -0.0044(4) -0.1430(4)
N4A N -0.0086(8) 0.5830(4) 0.1296(3)
O1A O 0.2514(8) -0.1275(5) -0.4932(3)
O2A O -0.1256(8) -0.0952(5) -0.3996(4)
H9A H -0.1087 -0.118 -0.4538
O3A O 0.2171(8) 0.7645(5) 0.3603(4)
H10A H 0.2088 0.8024 0.4096
O4A O -0.1499(9) 0.8122(5) 0.4484(3)
S1A S 0.3787(3) -0.37082(13) -0.11525(12)
S1A_2 S 0.3787(3) 0.62918(13) -0.11525(12)
S2A S -0.3603(3) -0.14180(12) 0.06230(13)
Ni2_2 Ni 0.0000 -0.50000 0.00000
C15 C -0.2222(18) 0.5083(9) 0.5284(8)
H11 H -0.3719 0.5147 0.5481
C16 C -0.065(2) 0.4488(8) 0.4358(7)
C17 C -0.157(2) 0.5580(9) 0.5915(7)
H12 H -0.2641 0.5971 0.6541
C18 C -0.130(2) 0.4015(9) 0.3688(9)
C19 C -0.179(3) 0.3650(11) 0.3125(11)
H13 H -0.2173 0.3357 0.2672
C15A C 0.2222(18) 0.4917(9) 0.4716(8)
H11A H 0.3719 0.4853 0.4519
C16A C 0.065(2) 0.5512(8) 0.5642(7)
C17A C 0.157(2) 0.4420(9) 0.4085(7)
H12A H 0.2641 0.4029 0.3459
C18A C 0.130(2) 0.5985(9) 0.6312(9)
C19A C 0.179(3) 0.6350(11) 0.6875(11)
H13A H 0.2173 0.6643 0.7328
loop_
_geom_bond_atom_site_label_1
_geom_bond_atom_site_label_2
_geom_bond_site_symmetry_1
_geom_bond_site_symmetry_2
C1 N1 1_555 1_555
C2 N2 1_555 1_555
C3 H1 1_555 1_555
C4 C3 1_555 1_555
H2 C4 1_555 1_555
C5 C4 1_555 1_555
C6 C5 1_555 1_555
H3 C6 1_555 1_555
C7 C6 1_555 1_555
H4 C7 1_555 1_555
C8 C5 1_555 1_555
C9 H5 1_555 1_555
C10 C9 1_555 1_555
H6 C10 1_555 1_555
C11 C10 1_555 1_555
C12 C11 1_555 1_555
H7 C12 1_555 1_555
C13 C12 1_555 1_555
H8 C13 1_555 1_555
C14 C11 1_555 1_555
N1 Ni1 1_555 1_555
N2 Ni2 1_555 1_555
N3 C3 1_555 1_555
N4 C9 1_555 1_555
O1 C8 1_555 1_555
O2 C8 1_555 1_555
H9 O2 1_555 1_555
O3 C14 1_555 1_555
H10 O3 1_555 1_555
O4 C14 1_555 1_555
S1 C1 1_555 1_555
S2 C2 1_555 1_555
Ni1 N3 1_555 1_555
Ni2 N4 1_555 1_555
C15 H11 1_555 1_555
C16 C15 1_555 1_555
C17 C15 1_555 1_555
H12 C17 1_555 1_555
C18 C16 1_555 1_555
C19 C18 1_555 1_555
H13 C19 1_555 1_555
C1A N1A 1_555 1_555
C2A N2A 1_555 1_555
C3A H1A 1_555 1_555
C4A C3A 1_555 1_555
H2A C4A 1_555 1_555
C5A C4A 1_555 1_555
C6A C5A 1_555 1_555
H3A C6A 1_555 1_555
C7A C6A 1_555 1_555
H4A C7A 1_555 1_555
C8A C5A 1_555 1_555
C9A H5A 1_555 1_555
C10A C9A 1_555 1_555
H6A C10A 1_555 1_555
C11A C10A 1_555 1_555
C12A C11A 1_555 1_555
H7A C12A 1_555 1_555
C13A C12A 1_555 1_555
H8A C13A 1_555 1_555
C14A C11A 1_555 1_555
N1A Ni1 1_555 1_555
N2A Ni2_2 1_555 1_555
N2A_2 Ni2 1_555 1_555
N3A Ni1 1_555 1_555
N4A Ni2 1_555 1_555
O1A C8A 1_555 1_555
O2A C8A 1_555 1_555
H9A O2A 1_555 1_555
O3A C14A 1_555 1_555
H10A O3A 1_555 1_555
O4A C14A 1_555 1_555
S1A C1A 1_555 1_555
S1A_2 Ni2 1_555 1_555
S2A Ni1 1_555 1_555
Ni2_2 S1A 1_555 1_555
C15A H11A 1_555 1_555
C16A C17 1_555 1_555
C17A C16 1_555 1_555
H12A C17A 1_555 1_555
C18A C16A 1_555 1_555
C19A C18A 1_555 1_555
H13A C19A 1_555 1_555
C7 N3 1_555 1_555
C13 N4 1_555 1_555
S1 Ni2 1_555 1_555
S2 Ni1 1_555 1_555
C2A S2A 1_555 1_555
C3A N3A 1_555 1_555
C7A N3A 1_555 1_555
C9A N4A 1_555 1_555
C13A N4A 1_555 1_555
C15A C16A 1_555 1_555
C15A C17A 1_555 1_555

#END
