
#######################################################################
#
#                 Cambridge Crystallographic Data Centre
#                                CCDC 
#
#######################################################################
#
# If this CIF has been generated from an entry in the Cambridge 
# Structural Database, then it will include bibliographic, chemical, 
# crystal, experimental, refinement or atomic coordinate data resulting 
# from the CCDC's data processing and validation procedures.
#
#######################################################################

data_FASKIU
_symmetry_cell_setting           tetragonal
_symmetry_space_group_name_H-M   'P 43'
_symmetry_Int_Tables_number      78
_space_group_name_Hall           'P 4cw'
loop_
_symmetry_equiv_pos_site_id
_symmetry_equiv_pos_as_xyz
1 x,y,z
2 -x,-y,1/2+z
3 -y,x,3/4+z
4 y,-x,1/4+z
_cell_length_a                   8.4354(6)
_cell_length_b                   8.4354(6)
_cell_length_c                   25.770(3)
_cell_angle_alpha                90
_cell_angle_beta                 90
_cell_angle_gamma                90
_cell_volume                     1833.69
loop_
_atom_site_label
_atom_site_type_symbol
_atom_site_fract_x
_atom_site_fract_y
_atom_site_fract_z
S1 S 0.54046(7) 0.90235(7) 0.16547(2)
Na1 Na 0.51132(12) 0.67647(12) 0.27553(3)
N1 N 0.4471(2) 0.7472(2) 0.18463(7)
C1 C 0.7010(3) 0.8341(3) 0.07696(8)
H1 H 0.611(3) 0.868(3) 0.0615(8)
N2 N 0.3293(2) 0.5071(2) 0.17110(7)
O1 O 0.7684(2) 0.6887(2) 0.24068(6)
C2 C 0.8312(4) 0.7821(4) 0.04808(10)
H2 H 0.824(3) 0.779(4) 0.0107(11)
N3 N 0.3399(3) 0.4778(2) 0.22525(7)
O2 O 0.4520(2) 0.9998(2) 0.12995(6)
C3 C 0.9663(4) 0.7331(4) 0.07248(10)
H3 H 1.047(3) 0.699(3) 0.0545(10)
O3 O 0.5964(2) 0.9783(2) 0.21215(6)
N4 N 0.2147(3) 0.2801(2) 0.18428(7)
C4 C 0.9760(3) 0.7325(4) 0.12637(10)
H4 H 1.064(4) 0.716(4) 0.1458(11)
O4 O 0.3998(2) 0.6527(2) 0.10071(6)
C5 C 0.8464(3) 0.7803(3) 0.15624(8)
O5 O 0.2264(2) 0.3691(2) 0.09879(6)
C6 C 0.7088(3) 0.8332(3) 0.13106(8)
O6 O 0.2469(2) 0.2605(2) 0.27297(6)
C7 C 0.8621(3) 0.7573(3) 0.21354(8)
O7 O 1.0007(2) 0.8130(2) 0.23015(7)
C8 C 1.0443(5) 0.7755(5) 0.28326(12)
H5 H 1.135(6) 0.841(6) 0.2873(18)
H6 H 1.096(5) 0.674(6) 0.2843(18)
H7 H 0.955(5) 0.780(4) 0.3044(14)
C9 C 0.3965(3) 0.6447(3) 0.14851(8)
C10 C 0.2699(3) 0.3427(3) 0.22984(8)
C11 C 0.2554(3) 0.3852(3) 0.14522(9)
C12 C 0.1336(4) 0.1295(3) 0.17784(10)
H8 H 0.196(5) 0.050(4) 0.1913(14)
H9 H 0.129(4) 0.107(4) 0.1410(12)
H10 H 0.047(5) 0.125(5) 0.1965(14)
C13 C 0.3164(4) 0.3282(3) 0.31979(9)
H11 H 0.265(4) 0.423(4) 0.3272(12)
H12 H 0.429(3) 0.344(3) 0.3155(8)
C14 C 0.3615(4) 0.2706(4) 0.41310(11)
H13 H 0.361(4) 0.190(4) 0.4360(13)
H14 H 0.291(4) 0.355(4) 0.4278(11)
H15 H 0.472(4) 0.313(4) 0.4077(13)
C15 C 0.2928(4) 0.2086(4) 0.36229(9)
H16 H 0.338(4) 0.109(4) 0.3510(12)
H17 H 0.182(3) 0.193(3) 0.3669(9)
Na1B Na 0.32353(12) 0.51132(12) 0.02553(3)
O4C O 0.6527(2) 0.6002(2) 0.35071(6)
O5C O 0.3691(2) 0.7736(2) 0.34879(6)
loop_
_geom_bond_atom_site_label_1
_geom_bond_atom_site_label_2
_geom_bond_site_symmetry_1
_geom_bond_site_symmetry_2
S1 N1 1_555 1_555
Na1 N1 1_555 1_555
N1 C9 1_555 1_555
C1 H1 1_555 1_555
N2 N3 1_555 1_555
O1 Na1 1_555 1_555
C2 C1 1_555 1_555
H2 C2 1_555 1_555
N3 Na1 1_555 1_555
O2 S1 1_555 1_555
C3 C2 1_555 1_555
H3 C3 1_555 1_555
O3 S1 1_555 1_555
N4 C10 1_555 1_555
C4 C3 1_555 1_555
H4 C4 1_555 1_555
O4 C9 1_555 1_555
C5 C4 1_555 1_555
O5 C11 1_555 1_555
C6 S1 1_555 1_555
O6 C10 1_555 1_555
C7 O1 1_555 1_555
O7 C7 1_555 1_555
C8 O7 1_555 1_555
H5 C8 1_555 1_555
H6 C8 1_555 1_555
H7 C8 1_555 1_555
C9 N2 1_555 1_555
C10 N3 1_555 1_555
C11 N2 1_555 1_555
C12 N4 1_555 1_555
H8 C12 1_555 1_555
H9 C12 1_555 1_555
H10 C12 1_555 1_555
C13 O6 1_555 1_555
H11 C13 1_555 1_555
H12 C13 1_555 1_555
C14 H13 1_555 1_555
H14 C14 1_555 1_555
H15 C14 1_555 1_555
C15 C13 1_555 1_555
H16 C15 1_555 1_555
H17 C15 1_555 1_555
Na1B O4 1_555 1_555
O4C Na1 1_555 1_555
O5C Na1 1_555 1_555
C1 C6 1_555 1_555
N4 C11 1_555 1_555
C5 C6 1_555 1_555
C5 C7 1_555 1_555
O5 Na1B 1_555 1_555
C14 C15 1_555 1_555

#END
