
#######################################################################
#
#                 Cambridge Crystallographic Data Centre
#                                CCDC 
#
#######################################################################
#
# If this CIF has been generated from an entry in the Cambridge 
# Structural Database, then it will include bibliographic, chemical, 
# crystal, experimental, refinement or atomic coordinate data resulting 
# from the CCDC's data processing and validation procedures.
#
#######################################################################

data_FASKAN
_symmetry_cell_setting           monoclinic
_symmetry_space_group_name_H-M   'C 2/c'
_symmetry_Int_Tables_number      15
_space_group_name_Hall           '-C 2yn'
loop_
_symmetry_equiv_pos_site_id
_symmetry_equiv_pos_as_xyz
1 x,y,z
2 -x,y,1/2-z
3 1/2+x,1/2+y,z
4 1/2-x,1/2+y,1/2-z
5 -x,-y,-z
6 x,-y,1/2+z
7 1/2-x,1/2-y,-z
8 1/2+x,1/2-y,1/2+z
_cell_length_a                   10.8336(12)
_cell_length_b                   20.262(2)
_cell_length_c                   16.7517(18)
_cell_angle_alpha                90
_cell_angle_beta                 107.732(8)
_cell_angle_gamma                90
_cell_volume                     3502.48
loop_
_atom_site_label
_atom_site_type_symbol
_atom_site_fract_x
_atom_site_fract_y
_atom_site_fract_z
Ag1 Ag 0.07403(2) 0.981916(14) -0.070173(16)
C1 C 0.3562(3) 0.93703(19) 0.0290(2)
H1 H 0.3276 0.8990 -0.0023
C2 C 0.4780(3) 0.93656(19) 0.0873(2)
H2 H 0.5293 0.8989 0.0945
C3 C 0.5237(3) 0.99253(17) 0.1350(2)
C4 C 0.6515(3) 0.99418(17) 0.1997(2)
C5 C 0.6994(3) 0.94054(17) 0.2521(2)
H3 H 0.6522 0.9015 0.2455
C6 C 0.8177(3) 0.94569(17) 0.3140(2)
H4 H 0.8476 0.9096 0.3489
C7 C 0.8450(3) 1.05172(19) 0.2751(2)
H5 H 0.8947 1.0900 0.2825
C8 C -0.1765(6) 0.7879(3) 0.1739(3)
H6 H -0.2115 0.7930 0.2178
C9 C -0.1584(6) 0.7286(3) 0.1429(4)
H7 H -0.1842 0.6897 0.1627
C10 C -0.0949(4) 0.7280(2) 0.0751(2)
H8 H -0.0715 0.6922 0.0481
C11 C -0.0786(3) 0.80195(19) 0.0621(2)
C12 C -0.0226(3) 0.83368(17) 0.00058(19)
C13 C 0.0243(5) 0.79203(19) -0.0513(3)
H9 H 0.0081 0.7470 -0.0500
C14 C 0.0934(4) 0.81381(18) -0.1044(2)
C15 C 0.1529(7) 0.7623(3) -0.1461(4)
C16 C 0.7280(3) 1.05081(19) 0.2124(2)
H10 H 0.7002 1.0878 0.1788
C17 C 0.4419(3) 1.04702(18) 0.1196(2)
H11 H 0.4686 1.0860 0.1492
C18 C 0.3216(3) 1.04362(19) 0.0607(2)
H12 H 0.2688 1.0808 0.0522
N1 N 0.2768(3) 0.98975(15) 0.01524(18)
N2 N 0.8911(3) 1.00042(15) 0.32595(18)
O1 O -0.0209(3) 0.89441(12) -0.00032(17)
O2 O 0.1184(3) 0.87004(15) -0.12143(18)
F1 F 0.1394(4) 0.77579(18) -0.2252(2)
F2 F 0.1142(10) 0.70312(19) -0.1436(5)
F3 F 0.2797(6) 0.7622(4) -0.1128(4)
S1 S -0.13059(16) 0.85167(7) 0.12636(9)
Ag1E Ag 1.07403(2) 1.018084(14) 0.429827(16)
N2E N -0.1089(3) 0.99958(15) -0.17405(18)
loop_
_geom_bond_atom_site_label_1
_geom_bond_atom_site_label_2
_geom_bond_site_symmetry_1
_geom_bond_site_symmetry_2
Ag1 N1 1_555 1_555
C1 H1 1_555 1_555
C2 C1 1_555 1_555
H2 C2 1_555 1_555
C3 C2 1_555 1_555
C4 C3 1_555 1_555
C5 C4 1_555 1_555
H3 C5 1_555 1_555
C6 C5 1_555 1_555
H4 C6 1_555 1_555
C7 H5 1_555 1_555
C8 H6 1_555 1_555
C9 C8 1_555 1_555
H7 C9 1_555 1_555
C10 C9 1_555 1_555
H8 C10 1_555 1_555
C11 C10 1_555 1_555
C12 C11 1_555 1_555
C13 C12 1_555 1_555
H9 C13 1_555 1_555
C14 C13 1_555 1_555
C15 C14 1_555 1_555
C16 C4 1_555 1_555
H10 C16 1_555 1_555
C17 C3 1_555 1_555
H11 C17 1_555 1_555
C18 C17 1_555 1_555
H12 C18 1_555 1_555
N1 C1 1_555 1_555
N2 C6 1_555 1_555
O1 Ag1 1_555 1_555
O2 Ag1 1_555 1_555
F1 C15 1_555 1_555
F2 C15 1_555 1_555
F3 C15 1_555 1_555
S1 C8 1_555 1_555
Ag1E N2 1_555 1_555
N2E Ag1 1_555 1_555
C7 C16 1_555 1_555
C7 N2 1_555 1_555
C11 S1 1_555 1_555
C12 O1 1_555 1_555
C14 O2 1_555 1_555
C18 N1 1_555 1_555

#END
