
#######################################################################
#
#                 Cambridge Crystallographic Data Centre
#                                CCDC 
#
#######################################################################
#
# If this CIF has been generated from an entry in the Cambridge 
# Structural Database, then it will include bibliographic, chemical, 
# crystal, experimental, refinement or atomic coordinate data resulting 
# from the CCDC's data processing and validation procedures.
#
#######################################################################

data_FASSAV
_symmetry_cell_setting           monoclinic
_symmetry_space_group_name_H-M   'P 21/c'
_symmetry_Int_Tables_number      14
_space_group_name_Hall           '-P 2ybc'
loop_
_symmetry_equiv_pos_site_id
_symmetry_equiv_pos_as_xyz
1 x,y,z
2 -x,1/2+y,1/2-z
3 -x,-y,-z
4 x,1/2-y,1/2+z
_cell_length_a                   9.78480(10)
_cell_length_b                   14.84350(10)
_cell_length_c                   8.42240(10)
_cell_angle_alpha                90
_cell_angle_beta                 96.7490(10)
_cell_angle_gamma                90
_cell_volume                     1214.8
loop_
_atom_site_label
_atom_site_type_symbol
_atom_site_fract_x
_atom_site_fract_y
_atom_site_fract_z
C1 C 0.2912(3) 0.2558(2) 0.2889(4)
C2 C 0.4299(3) 0.2929(2) 0.2542(4)
C3 C 0.5502(3) 0.2443(2) 0.2872(4)
H1 H 0.5457 0.1868 0.3301
C4 C 0.6777(3) 0.2780(2) 0.2587(4)
H2 H 0.7572 0.2434 0.2776
C5 C 0.6813(3) 0.3652(2) 0.2010(4)
C6 C 0.8116(3) 0.4140(2) 0.1695(3)
C7 C 0.5612(3) 0.4131(2) 0.1693(4)
H3 H 0.5648 0.4718 0.1315
C8 C -0.0831(3) 0.4355(2) -0.2733(4)
C9 C -0.1761(5) 0.4690(3) -0.4147(5)
H4 H -0.1510 0.5295 -0.4389
H5 H -0.2696 0.4679 -0.3909
H6 H -0.1672 0.4310 -0.5052
Eu1 Eu 0.113678(13) 0.386350(9) 0.002374(16)
N1 N 0.4377(2) 0.37726(15) 0.1915(3)
O1 O 0.3297(2) 0.42919(14) 0.1545(3)
O2 O 0.1845(2) 0.28770(16) 0.2179(3)
O3 O 0.2985(2) 0.19387(14) 0.3905(3)
O4 O 0.9193(2) 0.36828(14) 0.1672(3)
O5 O 0.7982(2) 0.49707(13) 0.1500(3)
O6 O -0.0017(2) 0.37291(14) -0.2875(3)
O7 O -0.0001(3) 0.24172(15) -0.0460(3)
H7 H 0.016(4) 0.208(2) -0.135(3)
H8 H -0.001(5) 0.203(2) 0.041(3)
O8 O -0.0885(2) 0.47167(13) -0.1369(2)
Eu1C Eu 0.113678(13) 0.113650(9) 0.502374(16)
Eu1_2 Eu 1.113678(13) 0.386350(9) 0.002374(16)
Eu1B Eu 0.886322(13) 0.613650(9) -0.002374(16)
Eu1B_2 Eu -0.113678(13) 0.613650(9) -0.002374(16)
O3C O 0.2985(2) 0.30613(14) -0.1095(3)
O4_2 O -0.0807(2) 0.36828(14) 0.1672(3)
O5B O 0.2018(2) 0.50293(13) -0.1500(3)
O8B O 0.0885(2) 0.52833(13) 0.1369(2)
loop_
_geom_bond_atom_site_label_1
_geom_bond_atom_site_label_2
_geom_bond_site_symmetry_1
_geom_bond_site_symmetry_2
C1 C2 1_555 1_555
C2 C3 1_555 1_555
C3 H1 1_555 1_555
C4 C3 1_555 1_555
H2 C4 1_555 1_555
C5 C4 1_555 1_555
C6 C5 1_555 1_555
C7 C5 1_555 1_555
H3 C7 1_555 1_555
C8 C9 1_555 1_555
C9 H4 1_555 1_555
H5 C9 1_555 1_555
H6 C9 1_555 1_555
Eu1 O1 1_555 1_555
N1 C2 1_555 1_555
O1 N1 1_555 1_555
O2 C1 1_555 1_555
O3 C1 1_555 1_555
O4 C6 1_555 1_555
O5 C6 1_555 1_555
O6 C8 1_555 1_555
O7 Eu1 1_555 1_555
H7 O7 1_555 1_555
H8 O7 1_555 1_555
O8 C8 1_555 1_555
Eu1C O3 1_555 1_555
Eu1_2 O4 1_555 1_555
Eu1B O5 1_555 1_555
Eu1B_2 O8 1_555 1_555
O3C Eu1 1_555 1_555
O4_2 Eu1 1_555 1_555
O5B Eu1 1_555 1_555
O8B Eu1 1_555 1_555
C7 N1 1_555 1_555
Eu1 O2 1_555 1_555
Eu1 O6 1_555 1_555
Eu1 O8 1_555 1_555
Eu1B_2 O8B 1_555 1_555

#END
