
#######################################################################
#
#                 Cambridge Crystallographic Data Centre
#                                CCDC 
#
#######################################################################
#
# If this CIF has been generated from an entry in the Cambridge 
# Structural Database, then it will include bibliographic, chemical, 
# crystal, experimental, refinement or atomic coordinate data resulting 
# from the CCDC's data processing and validation procedures.
#
#######################################################################

data_FASZEG01
_symmetry_cell_setting           triclinic
_symmetry_space_group_name_H-M   'P -1'
_symmetry_Int_Tables_number      2
_space_group_name_Hall           '-P 1'
loop_
_symmetry_equiv_pos_site_id
_symmetry_equiv_pos_as_xyz
1 x,y,z
2 -x,-y,-z
_cell_length_a                   3.8124(19)
_cell_length_b                   11.366(6)
_cell_length_c                   11.510(6)
_cell_angle_alpha                111.353(8)
_cell_angle_beta                 96.305(9)
_cell_angle_gamma                98.768(9)
_cell_volume                     451.618
loop_
_atom_site_label
_atom_site_type_symbol
_atom_site_fract_x
_atom_site_fract_y
_atom_site_fract_z
Cu1 Cu 0.6580(3) 0.02557(11) 0.28840(10)
Cl1 Cl 0.1464(6) -0.0627(2) 0.1442(2)
O1 O 1.0329(18) 0.1288(6) 0.4391(6)
O2 O 1.3658(19) 0.3262(7) 0.5408(6)
O3 O 0.600(2) -0.1122(8) 0.3479(8)
N1 N 0.7437(18) 0.1871(7) 0.2564(6)
N2 N 0.938(2) 0.4280(8) 0.2465(7)
C1 C 0.702(2) 0.3324(9) 0.1528(9)
C2 C 0.609(2) 0.2113(9) 0.1584(9)
H1 H 0.4480 0.1457 0.0914
C3 C 0.982(2) 0.2833(9) 0.3500(8)
C4 C 1.071(2) 0.4017(9) 0.3440(9)
H2 H 1.2325 0.4670 0.4112
C5 C 0.552(3) 0.3619(10) 0.0441(10)
H3 H 0.2980 0.3256 0.0197
H4 H 0.6702 0.3254 -0.0261
H5 H 0.5911 0.4538 0.0686
C6 C 1.140(2) 0.2482(9) 0.4551(9)
H6 H 0.69(2) -0.106(10) 0.419(5)
H7 H 0.415(14) -0.170(6) 0.316(7)
Cu1_2 Cu -0.3420(3) 0.02557(11) 0.28840(10)
Cl1_2 Cl 1.1464(6) -0.0627(2) 0.1442(2)
O4 O 0.068(3) 0.6835(9) 0.2344(8)
H8 H 0.10(5) 0.610(8) 0.224(19)
H9 H -0.12(6) 0.70(2) 0.26(3)
loop_
_geom_bond_atom_site_label_1
_geom_bond_atom_site_label_2
_geom_bond_site_symmetry_1
_geom_bond_site_symmetry_2
Cu1 Cl1 1_555 1_555
Cl1 Cu1_2 1_555 1_555
O1 Cu1 1_555 1_555
O2 C6 1_555 1_555
O3 Cu1 1_555 1_555
N1 Cu1 1_555 1_555
N2 C1 1_555 1_555
C1 C2 1_555 1_555
C2 N1 1_555 1_555
H1 C2 1_555 1_555
C3 N1 1_555 1_555
C4 N2 1_555 1_555
H2 C4 1_555 1_555
C5 C1 1_555 1_555
H3 C5 1_555 1_555
H4 C5 1_555 1_555
H5 C5 1_555 1_555
C6 O1 1_555 1_555
H6 O3 1_555 1_555
H7 O3 1_555 1_555
O4 H8 1_555 1_555
H9 O4 1_555 1_555
Cl1_2 Cu1 1_555 1_555
C3 C4 1_555 1_555
C3 C6 1_555 1_555

#END
