
#######################################################################
#
#                 Cambridge Crystallographic Data Centre
#                                CCDC 
#
#######################################################################
#
# If this CIF has been generated from an entry in the Cambridge 
# Structural Database, then it will include bibliographic, chemical, 
# crystal, experimental, refinement or atomic coordinate data resulting 
# from the CCDC's data processing and validation procedures.
#
#######################################################################

data_FATHUF
_symmetry_cell_setting           monoclinic
_symmetry_space_group_name_H-M   'P 21/c'
_symmetry_Int_Tables_number      14
_space_group_name_Hall           '-P 2ybc'
loop_
_symmetry_equiv_pos_site_id
_symmetry_equiv_pos_as_xyz
1 x,y,z
2 -x,1/2+y,1/2-z
3 -x,-y,-z
4 x,1/2-y,1/2+z
_cell_length_a                   14.5675(10)
_cell_length_b                   10.2614(7)
_cell_length_c                   14.1466(9)
_cell_angle_alpha                90
_cell_angle_beta                 102.3040(10)
_cell_angle_gamma                90
_cell_volume                     2066.1
loop_
_atom_site_label
_atom_site_type_symbol
_atom_site_fract_x
_atom_site_fract_y
_atom_site_fract_z
Pr1 Pr 0.303635(15) 0.744118(19) 0.195909(15)
O1 O 0.3946(2) 0.5633(3) 0.2979(2)
O3 O 0.4420(2) 0.7564(3) 0.3433(3)
O4 O 0.5022(3) 0.5904(4) 0.4282(3)
O5 O 0.4474(3) 0.8284(4) 0.1405(4)
H1 H 0.487(7) 0.805(9) 0.156(7)
H2 H 0.434(6) 0.860(8) 0.097(6)
N1 N 0.3614(2) 0.5710(3) 0.0811(3)
N2 N 0.4109(3) 0.4038(4) 0.0101(3)
H3 H 0.412(4) 0.347(5) 0.003(4)
N3 N 0.2423(3) 0.7689(3) 0.0131(3)
N4 N 0.1869(3) 0.8604(4) -0.0384(3)
N5 N 0.1894(3) 0.8484(4) -0.1290(3)
N6 N 0.2475(3) 0.7480(3) -0.1406(3)
N7 N 0.3197(3) 0.5175(3) -0.2412(3)
N8 N 0.3261(3) 0.4430(4) -0.3197(3)
N9 N 0.3658(3) 0.3321(4) -0.2882(3)
N10 N 0.3873(3) 0.3311(3) -0.1905(3)
N11 N 0.1807(3) 0.5500(3) 0.1696(3)
N12 N 0.1257(2) 0.8053(3) 0.1564(3)
N13 N 0.4478(3) 0.6355(4) 0.3583(3)
C1 C 0.4068(3) 0.4596(4) 0.0948(3)
C2 C 0.3357(3) 0.5878(4) -0.0181(3)
C3 C 0.3652(3) 0.4827(4) -0.0645(3)
C4 C 0.3576(3) 0.4463(4) -0.1648(3)
C5 C 0.2774(3) 0.7007(4) -0.0517(3)
C6 C 0.2049(4) 0.4256(5) 0.1797(4)
H4 H 0.264(3) 0.408(4) 0.201(3)
C7 C 0.1414(4) 0.3235(5) 0.1674(5)
H5 H 0.158(4) 0.246(5) 0.173(4)
C8 C 0.0482(4) 0.3500(5) 0.1419(5)
H6 H 0.002(5) 0.278(6) 0.131(5)
C9 C 0.0179(3) 0.4786(5) 0.1301(4)
C10 C -0.0787(4) 0.5143(6) 0.1060(5)
H7 H -0.118(4) 0.456(5) 0.091(4)
C11 C -0.1062(4) 0.6391(6) 0.0975(5)
H8 H -0.168(4) 0.666(5) 0.078(4)
C12 C -0.0385(4) 0.7415(4) 0.1128(4)
C13 C -0.0638(4) 0.8728(6) 0.1049(5)
H9 H -0.120(3) 0.889(5) 0.085(3)
C14 C 0.0030(4) 0.9647(6) 0.1216(5)
H10 H -0.012(4) 1.050(6) 0.115(4)
C15 C 0.0964(4) 0.9282(5) 0.1478(4)
H11 H 0.134(4) 0.993(6) 0.155(4)
C16 C 0.0579(3) 0.7118(4) 0.1382(3)
C17 C 0.0869(3) 0.5768(4) 0.1462(3)
H12 H 0.438(3) 0.419(4) 0.154(3)
Pr1C Pr 0.303635(15) 0.755882(19) -0.304091(15)
N6C N 0.2475(3) 0.7520(3) 0.3594(3)
N7C N 0.3197(3) 0.9825(3) 0.2588(3)
O2 O 0.6975(4) 0.6439(7) 0.5426(5)
loop_
_geom_bond_atom_site_label_1
_geom_bond_atom_site_label_2
_geom_bond_site_symmetry_1
_geom_bond_site_symmetry_2
Pr1 O1 1_555 1_555
O1 N13 1_555 1_555
O3 Pr1 1_555 1_555
O4 N13 1_555 1_555
O5 Pr1 1_555 1_555
H1 O5 1_555 1_555
H2 O5 1_555 1_555
N1 Pr1 1_555 1_555
N2 H3 1_555 1_555
N3 Pr1 1_555 1_555
N4 N3 1_555 1_555
N5 N4 1_555 1_555
N6 N5 1_555 1_555
N7 N8 1_555 1_555
N8 N9 1_555 1_555
N9 N10 1_555 1_555
N10 C4 1_555 1_555
N11 Pr1 1_555 1_555
N12 Pr1 1_555 1_555
N13 O3 1_555 1_555
C1 N1 1_555 1_555
C2 N1 1_555 1_555
C3 N2 1_555 1_555
C4 N7 1_555 1_555
C5 N3 1_555 1_555
C6 N11 1_555 1_555
H4 C6 1_555 1_555
C7 C6 1_555 1_555
H5 C7 1_555 1_555
C8 C7 1_555 1_555
H6 C8 1_555 1_555
C9 C8 1_555 1_555
C10 C9 1_555 1_555
H7 C10 1_555 1_555
C11 C10 1_555 1_555
H8 C11 1_555 1_555
C12 C11 1_555 1_555
C13 C12 1_555 1_555
H9 C13 1_555 1_555
C14 C13 1_555 1_555
H10 C14 1_555 1_555
C15 N12 1_555 1_555
H11 C15 1_555 1_555
C16 N12 1_555 1_555
C17 N11 1_555 1_555
H12 C1 1_555 1_555
Pr1C N6 1_555 1_555
N6C Pr1 1_555 1_555
N7C Pr1 1_555 1_555
N2 C1 1_555 1_555
N6 C5 1_555 1_555
N7 Pr1C 1_555 1_555
C2 C3 1_555 1_555
C2 C5 1_555 1_555
C3 C4 1_555 1_555
C9 C17 1_555 1_555
C12 C16 1_555 1_555
C14 C15 1_555 1_555
C16 C17 1_555 1_555

#END
