
#######################################################################
#
#                 Cambridge Crystallographic Data Centre
#                                CCDC 
#
#######################################################################
#
# If this CIF has been generated from an entry in the Cambridge 
# Structural Database, then it will include bibliographic, chemical, 
# crystal, experimental, refinement or atomic coordinate data resulting 
# from the CCDC's data processing and validation procedures.
#
#######################################################################

data_FATJIV
_symmetry_cell_setting           tetragonal
_symmetry_space_group_name_H-M   'P 41 21 2'
_symmetry_Int_Tables_number      92
_space_group_name_Hall           'P 4abw 2nw'
loop_
_symmetry_equiv_pos_site_id
_symmetry_equiv_pos_as_xyz
1 x,y,z
2 -x,-y,1/2+z
3 1/2-y,1/2+x,1/4+z
4 1/2+y,1/2-x,3/4+z
5 1/2-x,1/2+y,1/4-z
6 1/2+x,1/2-y,3/4-z
7 y,x,-z
8 -y,-x,1/2-z
_cell_length_a                   13.4378(19)
_cell_length_b                   13.4378(19)
_cell_length_c                   19.864(4)
_cell_angle_alpha                90
_cell_angle_beta                 90
_cell_angle_gamma                90
_cell_volume                     3586.93
loop_
_atom_site_label
_atom_site_type_symbol
_atom_site_fract_x
_atom_site_fract_y
_atom_site_fract_z
Zn1 Zn 0.99347(3) 0.36232(3) 0.139775(19)
S1 S 1.01212(6) 0.49400(7) 0.26516(4)
O1 O 1.3426(2) 0.4177(2) 0.22886(17)
O2 O 0.6574(2) 0.4143(2) 0.02118(16)
O3 O 0.9823(2) 0.39754(19) 0.23505(13)
O4 O 1.1086(2) 0.5235(2) 0.24111(15)
O5 O 1.0158(2) 0.4754(2) 0.33932(12)
O6 O 0.9356(2) 0.5673(2) 0.25185(15)
N1 N 1.1176(2) 0.2781(2) 0.13055(15)
N2 N 1.3751(2) 0.2604(2) 0.19400(15)
H1 H 1.4180 0.2131 0.1961
N3 N 0.8756(2) 0.2689(2) 0.12671(15)
N4 N 0.6219(2) 0.2576(2) 0.05564(16)
H2 H 0.5781 0.2111 0.0530
C1 C 1.1125(3) 0.1927(3) 0.0948(2)
H3 H 1.0559 0.1787 0.0696
C2 C 1.1907(3) 0.1261(3) 0.0953(2)
H4 H 1.1850 0.0658 0.0726
C3 C 1.2768(3) 0.1485(3) 0.12902(19)
H5 H 1.3301 0.1043 0.1287
C4 C 1.2837(3) 0.2382(3) 0.16381(18)
C5 C 1.2007(3) 0.3006(3) 0.16430(18)
H6 H 1.2033 0.3595 0.1888
C6 C 1.4023(3) 0.3495(3) 0.22030(19)
C7 C 1.5105(3) 0.3654(3) 0.23612(19)
C8 C 1.5832(3) 0.2926(3) 0.2368(2)
H7 H 1.5667 0.2265 0.2286
C9 C 1.6808(3) 0.3192(3) 0.2500
H8 H 1.7297 0.2703 0.2500
C10 C 1.5372(3) 0.4628(3) 0.2500
H9 H 1.4882 0.5118 0.2500
C11 C 0.8793(3) 0.1802(3) 0.1576(2)
H10 H 0.9354 0.1633 0.1825
C12 C 0.8012(3) 0.1134(3) 0.1531(2)
H11 H 0.8057 0.0514 0.1736
C13 C 0.7168(3) 0.1394(3) 0.1179(2)
H12 H 0.6637 0.0953 0.1146
C14 C 0.7120(3) 0.2335(3) 0.08691(18)
C15 C 0.7945(3) 0.2952(3) 0.09200(18)
H13 H 0.7933 0.3568 0.0706
C16 C 0.5965(3) 0.3475(3) 0.02904(19)
C17 C 0.4891(3) 0.3645(3) 0.01304(19)
C18 C 0.4160(3) 0.2915(3) 0.0123(2)
H14 H 0.4328 0.2253 0.0200
C19 C 0.3179(3) 0.3179(3) 0.0000
H15 H 0.2689 0.2689 0.0000
C20 C 0.4619(3) 0.4619(3) 0.0000
H16 H 0.5109 0.5109 0.0000
Zn1F Zn 0.36232(3) 0.99347(3) -0.139775(19)
Zn1B Zn 1.13768(3) 0.49347(3) 0.389775(19)
Zn1E Zn 0.49347(3) 1.13768(3) -0.389775(19)
Zn1G Zn 1.63768(3) 1.00653(3) 0.360225(19)
S1F S 0.49400(7) 1.01212(6) -0.26516(4)
O1G O 1.5823(2) 0.6574(2) 0.27114(17)
O2F O 0.4143(2) 0.6574(2) -0.02118(16)
O3F O 0.39754(19) 0.9823(2) -0.23505(13)
O4F O 0.5235(2) 1.1086(2) -0.24111(15)
O5F O 0.4754(2) 1.0158(2) -0.33932(12)
O5C O 0.9754(2) 0.4842(2) 0.08932(12)
O5D O 0.4842(2) 0.9754(2) -0.08932(12)
O6F O 0.5673(2) 0.9356(2) -0.25185(15)
N1G N 1.7219(2) 0.8824(2) 0.36945(15)
N1F N 0.2781(2) 1.1176(2) -0.13055(15)
N2G N 1.7396(2) 0.6249(2) 0.30600(15)
H1G H 1.7869 0.5820 0.3039
N3F N 0.2689(2) 0.8756(2) -0.12671(15)
N4F N 0.2576(2) 0.6219(2) -0.05564(16)
H2F H 0.2111 0.5781 -0.0530
C1G C 1.8073(3) 0.8875(3) 0.4052(2)
H3G H 1.8213 0.9441 0.4304
C2G C 1.8739(3) 0.8093(3) 0.4047(2)
H4G H 1.9342 0.8150 0.4274
C3G C 1.8515(3) 0.7232(3) 0.37098(19)
H5G H 1.8957 0.6699 0.3713
C4G C 1.7618(3) 0.7163(3) 0.33619(18)
C5G C 1.6994(3) 0.7993(3) 0.33570(18)
H6G H 1.6405 0.7967 0.3112
C6G C 1.6505(3) 0.5977(3) 0.27970(19)
C7G C 1.6346(3) 0.4895(3) 0.26388(19)
C8G C 1.7074(3) 0.4168(3) 0.2632(2)
H7G H 1.7735 0.4333 0.2714
C11F C 0.1802(3) 0.8793(3) -0.1576(2)
H10F H 0.1633 0.9354 -0.1825
C12F C 0.1134(3) 0.8012(3) -0.1531(2)
H11F H 0.0514 0.8057 -0.1736
C13F C 0.1394(3) 0.7168(3) -0.1179(2)
H12F H 0.0953 0.6637 -0.1146
C14F C 0.2335(3) 0.7120(3) -0.08691(18)
C15F C 0.2952(3) 0.7945(3) -0.09200(18)
H13F H 0.3568 0.7933 -0.0706
C16F C 0.3475(3) 0.5965(3) -0.02904(19)
C17F C 0.3645(3) 0.4891(3) -0.01304(19)
C18F C 0.2915(3) 0.4160(3) -0.0123(2)
H14F H 0.2253 0.4328 -0.0200
loop_
_geom_bond_atom_site_label_1
_geom_bond_atom_site_label_2
_geom_bond_site_symmetry_1
_geom_bond_site_symmetry_2
Zn1 O3 1_555 1_555
S1 O3 1_555 1_555
O1 C6 1_555 1_555
O2 C16 1_555 1_555
O4 S1 1_555 1_555
O5 S1 1_555 1_555
O6 S1 1_555 1_555
N1 Zn1 1_555 1_555
N2 H1 1_555 1_555
N3 Zn1 1_555 1_555
N4 H2 1_555 1_555
C1 N1 1_555 1_555
H3 C1 1_555 1_555
C2 C1 1_555 1_555
H4 C2 1_555 1_555
C3 C2 1_555 1_555
H5 C3 1_555 1_555
C4 N2 1_555 1_555
C5 N1 1_555 1_555
H6 C5 1_555 1_555
C6 N2 1_555 1_555
C7 C6 1_555 1_555
C8 C7 1_555 1_555
H7 C8 1_555 1_555
C9 C8 1_555 1_555
H8 C9 1_555 1_555
C10 C7 1_555 1_555
H9 C10 1_555 1_555
C11 N3 1_555 1_555
H10 C11 1_555 1_555
C12 C11 1_555 1_555
H11 C12 1_555 1_555
C13 C12 1_555 1_555
H12 C13 1_555 1_555
C14 N4 1_555 1_555
C15 N3 1_555 1_555
H13 C15 1_555 1_555
C16 N4 1_555 1_555
C17 C16 1_555 1_555
C18 C17 1_555 1_555
H14 C18 1_555 1_555
C19 C18 1_555 1_555
H15 C19 1_555 1_555
C20 C17 1_555 1_555
H16 C20 1_555 1_555
Zn1F O3F 1_555 1_555
Zn1B O5 1_555 1_555
Zn1E O5F 1_555 1_555
Zn1G N1G 1_555 1_555
S1F O3F 1_555 1_555
O1G C6G 1_555 1_555
O2F C16F 1_555 1_555
O4F S1F 1_555 1_555
O5F S1F 1_555 1_555
O5C Zn1 1_555 1_555
O5D Zn1F 1_555 1_555
O6F S1F 1_555 1_555
N1G C1G 1_555 1_555
N1F Zn1F 1_555 1_555
N2G H1G 1_555 1_555
N3F Zn1F 1_555 1_555
N4F H2F 1_555 1_555
C1G H3G 1_555 1_555
C2G C1G 1_555 1_555
H4G C2G 1_555 1_555
C3G C2G 1_555 1_555
H5G C3G 1_555 1_555
C4G N2G 1_555 1_555
C5G N1G 1_555 1_555
H6G C5G 1_555 1_555
C6G N2G 1_555 1_555
C7G C10 1_555 1_555
C8G C9 1_555 1_555
H7G C8G 1_555 1_555
C11F N3F 1_555 1_555
H10F C11F 1_555 1_555
C12F C11F 1_555 1_555
H11F C12F 1_555 1_555
C13F C12F 1_555 1_555
H12F C13F 1_555 1_555
C14F N4F 1_555 1_555
C15F N3F 1_555 1_555
H13F C15F 1_555 1_555
C16F N4F 1_555 1_555
C17F C20 1_555 1_555
C18F C19 1_555 1_555
H14F C18F 1_555 1_555
C3 C4 1_555 1_555
C4 C5 1_555 1_555
C13 C14 1_555 1_555
C14 C15 1_555 1_555
C3G C4G 1_555 1_555
C4G C5G 1_555 1_555
C6G C7G 1_555 1_555
C7G C8G 1_555 1_555
C13F C14F 1_555 1_555
C14F C15F 1_555 1_555
C16F C17F 1_555 1_555
C17F C18F 1_555 1_555

#END
