
#######################################################################
#
#                 Cambridge Crystallographic Data Centre
#                                CCDC 
#
#######################################################################
#
# If this CIF has been generated from an entry in the Cambridge 
# Structural Database, then it will include bibliographic, chemical, 
# crystal, experimental, refinement or atomic coordinate data resulting 
# from the CCDC's data processing and validation procedures.
#
#######################################################################

data_FATLET
_symmetry_cell_setting           triclinic
_symmetry_space_group_name_H-M   'P -1'
_symmetry_Int_Tables_number      2
_space_group_name_Hall           '-P 1'
loop_
_symmetry_equiv_pos_site_id
_symmetry_equiv_pos_as_xyz
1 x,y,z
2 -x,-y,-z
_cell_length_a                   9.9142(9)
_cell_length_b                   10.1076(13)
_cell_length_c                   10.1535(10)
_cell_angle_alpha                77.179(10)
_cell_angle_beta                 67.429(9)
_cell_angle_gamma                89.399(9)
_cell_volume                     912.955
loop_
_atom_site_label
_atom_site_type_symbol
_atom_site_fract_x
_atom_site_fract_y
_atom_site_fract_z
Co1 Co 0.0000 0.5000 0.5000
C1 C 0.9417(3) 0.7787(3) -0.3780(3)
H1 H 0.9596 0.8381 -0.4683
C2 C 0.9253(3) 0.6001(3) -0.2184(3)
H2 H 0.9277 0.5107 -0.1708
C3 C 0.8419(3) 0.6962(3) 0.0048(3)
H3 H 0.9043 0.7633 0.0149
H4 H 0.8576 0.6073 0.0542
C4 C 0.6824(3) 0.7239(3) 0.0801(3)
H5 H 0.6633 0.7278 0.1803
H6 H 0.6657 0.8118 0.0295
C5 C 0.5769(3) 0.6155(3) 0.0818(3)
H7 H 0.5894 0.6176 -0.0182
H8 H 0.5997 0.5266 0.1239
C6 C 0.3270(3) 0.5560(3) 0.2874(3)
H9 H 0.3453 0.4718 0.3341
C7 C 0.2272(4) 0.7313(3) 0.2313(4)
H10 H 0.1580 0.7946 0.2340
N1 N 0.9613(3) 0.6429(3) -0.3623(3)
N2 N 0.8859(3) 0.7005(3) -0.1526(3)
N3 N 0.8950(3) 0.8179(3) -0.2533(3)
N4 N 0.4238(3) 0.6357(2) 0.1668(3)
N5 N 0.3610(3) 0.7501(3) 0.1277(3)
N6 N 0.1995(3) 0.6116(3) 0.3336(3)
O1 O 0.1317(2) 0.4019(2) 0.6017(2)
H14 H 0.1200 0.3209 0.6536
H15 H 0.1728 0.4539 0.6335
Co1_2 Co -1.0000 0.5000 1.5000
Co1_3 Co 1.0000 0.5000 -0.5000
C1A C -0.9417(3) 0.2213(3) 1.3780(3)
H1A H -0.9596 0.1619 1.4683
C2A C -0.9253(3) 0.3999(3) 1.2184(3)
H2A H -0.9277 0.4893 1.1708
C3A C -0.8419(3) 0.3038(3) 0.9952(3)
H3A H -0.9043 0.2367 0.9851
H4A H -0.8576 0.3927 0.9458
C4A C -0.6824(3) 0.2761(3) 0.9199(3)
H5A H -0.6633 0.2722 0.8197
H6A H -0.6657 0.1882 0.9705
C5A C -0.5769(3) 0.3845(3) 0.9182(3)
H7A H -0.5894 0.3824 1.0182
H8A H -0.5997 0.4734 0.8761
C6A C -0.3270(3) 0.4440(3) 0.7126(3)
H9A H -0.3453 0.5282 0.6659
C7A C -0.2272(4) 0.2687(3) 0.7687(4)
H10A H -0.1580 0.2054 0.7660
N1A N -0.9613(3) 0.3571(3) 1.3623(3)
N1_2 N -0.0387(3) 0.6429(3) 0.6377(3)
N1A_2 N 0.0387(3) 0.3571(3) 0.3623(3)
N2A N -0.8859(3) 0.2995(3) 1.1526(3)
N3A N -0.8950(3) 0.1821(3) 1.2533(3)
N4A N -0.4238(3) 0.3643(2) 0.8332(3)
N5A N -0.3610(3) 0.2499(3) 0.8723(3)
N6A N -0.1995(3) 0.3884(3) 0.6664(3)
O1A O -0.1317(2) 0.5981(2) 0.3983(2)
H14A H -0.1200 0.6791 0.3464
H15A H -0.1728 0.5461 0.3665
C8 C 0.6556(3) 0.1980(3) 0.4511(3)
C9 C 0.5876(3) 0.1099(3) 0.5885(3)
H11 H 0.5263 0.1426 0.6677
C10 C 0.6121(3) -0.0288(3) 0.6070(3)
C11 C 0.7010(3) -0.0769(3) 0.4866(3)
H12 H 0.7138 -0.1694 0.4976
C12 C 0.7707(3) 0.0115(3) 0.3503(3)
C13 C 0.7478(3) 0.1493(3) 0.3336(3)
H13 H 0.7950 0.2093 0.2427
C14 C 0.6288(3) 0.3452(3) 0.4272(3)
C15 C 0.5414(4) -0.1268(3) 0.7527(3)
C16 C 0.8713(3) -0.0384(3) 0.2223(3)
O2 O 0.4787(3) -0.0669(2) 0.8616(2)
O3 O 0.5446(3) -0.2496(2) 0.7680(2)
O4 O 0.5144(2) 0.3763(2) 0.5262(2)
H16 H 0.5145 0.4603 0.5272
O5 O 0.7152(2) 0.4282(2) 0.3178(2)
O6 O 0.9053(2) 0.0443(2) 0.0966(2)
H17 H 0.9799 0.0118 0.0430
O7 O 0.9182(2) -0.1525(2) 0.2401(2)
O8 O 0.1808(10) 0.6563(9) 0.9770(10)
H18 H 0.1858 0.7277 1.0059
H19 H 0.2322 0.6743 0.8704
loop_
_geom_bond_atom_site_label_1
_geom_bond_atom_site_label_2
_geom_bond_site_symmetry_1
_geom_bond_site_symmetry_2
Co1 N6 1_555 1_555
C1 H1 1_555 1_555
C2 H2 1_555 1_555
C3 H3 1_555 1_555
H4 C3 1_555 1_555
C4 C3 1_555 1_555
H5 C4 1_555 1_555
H6 C4 1_555 1_555
C5 C4 1_555 1_555
H7 C5 1_555 1_555
H8 C5 1_555 1_555
C6 H9 1_555 1_555
C7 H10 1_555 1_555
C8 C9 1_555 1_555
C9 H11 1_555 1_555
C10 C9 1_555 1_555
C11 C10 1_555 1_555
H12 C11 1_555 1_555
C12 C11 1_555 1_555
C13 C8 1_555 1_555
H13 C13 1_555 1_555
C14 C8 1_555 1_555
C15 C10 1_555 1_555
C16 C12 1_555 1_555
N1 C1 1_555 1_555
N2 C2 1_555 1_555
N3 C1 1_555 1_555
N4 C5 1_555 1_555
N5 C7 1_555 1_555
N6 C6 1_555 1_555
O1 Co1 1_555 1_555
H14 O1 1_555 1_555
H15 O1 1_555 1_555
O2 C15 1_555 1_555
O3 C15 1_555 1_555
O4 C14 1_555 1_555
H16 O4 1_555 1_555
O5 C14 1_555 1_555
O6 C16 1_555 1_555
H17 O6 1_555 1_555
O7 C16 1_555 1_555
O8 H18 1_555 1_555
H19 O8 1_555 1_555
Co1_2 N1A 1_555 1_555
Co1_3 N1 1_555 1_555
C1A H1A 1_555 1_555
C2A H2A 1_555 1_555
C3A H3A 1_555 1_555
H4A C3A 1_555 1_555
C4A C3A 1_555 1_555
H5A C4A 1_555 1_555
H6A C4A 1_555 1_555
C5A C4A 1_555 1_555
H7A C5A 1_555 1_555
H8A C5A 1_555 1_555
C6A H9A 1_555 1_555
C7A H10A 1_555 1_555
N1A C1A 1_555 1_555
N1_2 Co1 1_555 1_555
N1A_2 Co1 1_555 1_555
N2A C2A 1_555 1_555
N3A C1A 1_555 1_555
N4A C5A 1_555 1_555
N5A C7A 1_555 1_555
N6A Co1 1_555 1_555
O1A Co1 1_555 1_555
H14A O1A 1_555 1_555
H15A O1A 1_555 1_555
C2 N1 1_555 1_555
C3 N2 1_555 1_555
C6 N4 1_555 1_555
C7 N6 1_555 1_555
C12 C13 1_555 1_555
N2 N3 1_555 1_555
N4 N5 1_555 1_555
C2A N1A 1_555 1_555
C3A N2A 1_555 1_555
C6A N4A 1_555 1_555
C6A N6A 1_555 1_555
C7A N6A 1_555 1_555
N2A N3A 1_555 1_555
N4A N5A 1_555 1_555

#END
