
#######################################################################
#
#                 Cambridge Crystallographic Data Centre
#                                CCDC 
#
#######################################################################
#
# If this CIF has been generated from an entry in the Cambridge 
# Structural Database, then it will include bibliographic, chemical, 
# crystal, experimental, refinement or atomic coordinate data resulting 
# from the CCDC's data processing and validation procedures.
#
#######################################################################

data_FATROJ
_symmetry_cell_setting           monoclinic
_symmetry_space_group_name_H-M   'C c'
_symmetry_Int_Tables_number      9
_space_group_name_Hall           'C -2yc'
loop_
_symmetry_equiv_pos_site_id
_symmetry_equiv_pos_as_xyz
1 x,y,z
2 x,-y,1/2+z
3 1/2+x,1/2+y,z
4 1/2+x,1/2-y,1/2+z
_cell_length_a                   12.775(6)
_cell_length_b                   9.943(4)
_cell_length_c                   11.053(5)
_cell_angle_alpha                90
_cell_angle_beta                 111.083(10)
_cell_angle_gamma                90
_cell_volume                     1309.99
loop_
_atom_site_label
_atom_site_type_symbol
_atom_site_fract_x
_atom_site_fract_y
_atom_site_fract_z
Zn1 Zn 0.65319(10) 0.17636(12) 1.00321(10)
Cl1 Cl 0.7229(3) -0.0145(3) 0.9598(3)
O1 O 0.8471(10) 0.3160(11) 1.0388(11)
O2 O 0.7428(9) 0.2787(12) 1.1588(11)
O3 O 0.5769(11) 0.3085(9) 0.8677(11)
O4 O 0.6706(10) 0.2745(12) 0.7381(10)
N1 N 1.0249(8) 0.6504(9) 1.0680(9)
N2 N 0.9189(8) 0.5534(10) 1.1563(8)
N3 N 0.5056(8) 0.5575(9) 0.7633(9)
N4 N 0.4144(10) 0.6553(12) 0.8678(11)
H1 H 0.3637 0.6733 0.9010
C1 C 0.8212(13) 0.3412(13) 1.1377(16)
C2 C 0.8794(11) 0.4540(13) 1.2260(11)
H2 H 0.8275 0.4964 1.2616
H3 H 0.9432 0.4184 1.2985
C3 C 0.8595(11) 0.6591(11) 1.0854(12)
H4 H 0.7874 0.6861 1.0796
C4 C 0.9234(9) 0.7183(13) 1.0245(11)
H5 H 0.9028 0.7902 0.9654
C5 C 1.0128(10) 0.5452(12) 1.1331(10)
H6 H 1.0642 0.4737 1.1597
C6 C 0.6042(12) 0.3370(12) 0.7771(15)
C7 C 0.5447(11) 0.4561(12) 0.6953(11)
H7 H 0.5961 0.4989 0.6591
H8 H 0.4802 0.4227 0.6225
C8 C 0.5690(13) 0.6648(13) 0.8323(13)
H9 H 0.6413 0.6896 0.8366
C9 C 0.5095(13) 0.7237(14) 0.8893(12)
H10 H 0.5298 0.8030 0.9386
C10 C 0.4104(11) 0.5525(13) 0.7850(12)
H11 H 0.3517 0.4904 0.7501
Zn1B Zn 1.15319(10) 0.67636(12) 1.00321(10)
N1B N 0.5249(8) 0.1504(9) 1.0680(9)
loop_
_geom_bond_atom_site_label_1
_geom_bond_atom_site_label_2
_geom_bond_site_symmetry_1
_geom_bond_site_symmetry_2
Zn1 Cl1 1_555 1_555
O1 C1 1_555 1_555
O2 Zn1 1_555 1_555
O3 Zn1 1_555 1_555
O4 C6 1_555 1_555
N1 C4 1_555 1_555
N2 C2 1_555 1_555
N3 C7 1_555 1_555
N4 H1 1_555 1_555
C1 O2 1_555 1_555
C2 C1 1_555 1_555
H2 C2 1_555 1_555
H3 C2 1_555 1_555
C3 N2 1_555 1_555
H4 C3 1_555 1_555
C4 C3 1_555 1_555
H5 C4 1_555 1_555
C5 N1 1_555 1_555
H6 C5 1_555 1_555
C6 O3 1_555 1_555
C7 C6 1_555 1_555
H7 C7 1_555 1_555
H8 C7 1_555 1_555
C8 N3 1_555 1_555
H9 C8 1_555 1_555
C9 N4 1_555 1_555
H10 C9 1_555 1_555
C10 N3 1_555 1_555
H11 C10 1_555 1_555
Zn1B N1 1_555 1_555
N1B Zn1 1_555 1_555
N2 C5 1_555 1_555
N4 C10 1_555 1_555
C8 C9 1_555 1_555

#END
