
#######################################################################
#
#                 Cambridge Crystallographic Data Centre
#                                CCDC 
#
#######################################################################
#
# If this CIF has been generated from an entry in the Cambridge 
# Structural Database, then it will include bibliographic, chemical, 
# crystal, experimental, refinement or atomic coordinate data resulting 
# from the CCDC's data processing and validation procedures.
#
#######################################################################

data_FATREZ
_symmetry_cell_setting           triclinic
_symmetry_space_group_name_H-M   'P -1'
_symmetry_Int_Tables_number      2
_space_group_name_Hall           '-P 1'
loop_
_symmetry_equiv_pos_site_id
_symmetry_equiv_pos_as_xyz
1 x,y,z
2 -x,-y,-z
_cell_length_a                   7.8489(12)
_cell_length_b                   11.856(2)
_cell_length_c                   11.9602(16)
_cell_angle_alpha                98.213(4)
_cell_angle_beta                 93.761(2)
_cell_angle_gamma                106.556(5)
_cell_volume                     1049.24
loop_
_atom_site_label
_atom_site_type_symbol
_atom_site_fract_x
_atom_site_fract_y
_atom_site_fract_z
Pb1 Pb 0.51815(5) 0.33471(3) 0.36289(4)
Pb2 Pb 0.96082(5) 0.66629(3) 0.44278(4)
Pb3 Pb 0.75867(5) -0.04711(4) 0.42972(4)
Cl1 Cl 0.4171(4) 0.2035(2) 0.1454(3)
Cl2 Cl 0.5978(4) 0.1541(2) 0.4860(3)
Cl3 Cl 0.8517(3) 0.3702(3) 0.3088(3)
Cl4 Cl 0.7243(3) 0.5064(2) 0.5588(3)
Cl5 Cl 0.9184(4) 0.8362(2) 0.6097(3)
Cl6 Cl 0.6773(4) -0.0658(3) 0.2057(3)
O1 O 0.6773(9) 0.7077(6) 0.3785(7)
O2 O 0.6000(11) 0.5296(7) 0.2637(8)
O3 O 1.0325(10) 0.8705(6) 0.3719(7)
O4 O 1.0366(11) 0.7303(6) 0.2288(7)
N1 N 0.3438(12) 0.5899(8) 0.1340(9)
N2 N 0.3062(13) 0.5364(9) -0.0459(10)
H1 H 0.3181 0.5359 -0.1178
N3 N 1.1402(12) 0.8938(8) 0.0869(9)
N4 N 1.2168(12) 0.8323(9) -0.0757(9)
H2 H 1.2810 0.8125 -0.1273
C1 C 0.5803(14) 0.6305(9) 0.2989(10)
C2 C 0.4211(13) 0.6611(9) 0.2470(10)
H3 H 0.3280 0.6491 0.2987
H4 H 0.4581 0.7459 0.2403
C3 C 0.2133(16) 0.4844(10) 0.1113(12)
H5 H 0.1533 0.4426 0.1654
C4 C 0.1849(17) 0.4503(11) 0.0003(12)
H6 H 0.0993 0.3813 -0.0398
C5 C 0.4008(16) 0.6195(10) 0.0394(11)
H7 H 0.4932 0.6881 0.0327
C6 C 1.0631(13) 0.8340(9) 0.2724(10)
C7 C 1.1416(16) 0.9360(9) 0.2054(10)
H8 H 1.0722 0.9929 0.2139
H9 H 1.2650 0.9785 0.2381
C8 C 0.9912(14) 0.8587(9) 0.0071(11)
H10 H 0.8759 0.8608 0.0219
C9 C 1.0370(15) 0.8214(10) -0.0944(11)
H11 H 0.9626 0.7938 -0.1637
C10 C 1.2770(14) 0.8767(10) 0.0312(11)
H12 H 1.3959 0.8938 0.0635
Pb3A Pb 0.24133(5) 0.04711(4) 0.57028(4)
Pb3_2 Pb 0.75867(5) 0.95289(4) 0.42972(4)
Cl2A Cl 0.4022(4) -0.1541(2) 0.5140(3)
O3_2 O 1.0325(10) -0.1295(6) 0.3719(7)
loop_
_geom_bond_atom_site_label_1
_geom_bond_atom_site_label_2
_geom_bond_site_symmetry_1
_geom_bond_site_symmetry_2
Pb1 Cl1 1_555 1_555
Pb2 Cl4 1_555 1_555
Pb3 Cl2 1_555 1_555
Cl2 Pb1 1_555 1_555
Cl3 Pb1 1_555 1_555
Cl4 Pb1 1_555 1_555
Cl5 Pb2 1_555 1_555
Cl6 Pb3 1_555 1_555
O1 Pb2 1_555 1_555
O2 Pb1 1_555 1_555
O3 Pb2 1_555 1_555
O4 C6 1_555 1_555
N1 C2 1_555 1_555
N2 H1 1_555 1_555
N3 C7 1_555 1_555
N4 H2 1_555 1_555
C1 O1 1_555 1_555
C2 C1 1_555 1_555
H3 C2 1_555 1_555
H4 C2 1_555 1_555
C3 N1 1_555 1_555
H5 C3 1_555 1_555
C4 N2 1_555 1_555
H6 C4 1_555 1_555
C5 N1 1_555 1_555
H7 C5 1_555 1_555
C6 O3 1_555 1_555
C7 C6 1_555 1_555
H8 C7 1_555 1_555
H9 C7 1_555 1_555
C8 N3 1_555 1_555
H10 C8 1_555 1_555
C9 N4 1_555 1_555
H11 C9 1_555 1_555
C10 N3 1_555 1_555
H12 C10 1_555 1_555
Pb3A Cl2 1_555 1_555
Pb3_2 O3 1_555 1_555
Cl2A Pb3 1_555 1_555
O3_2 Pb3 1_555 1_555
O2 C1 1_555 1_555
N2 C5 1_555 1_555
N4 C10 1_555 1_555
C3 C4 1_555 1_555
C8 C9 1_555 1_555
Pb3A Cl2A 1_555 1_555

#END
