
#######################################################################
#
#                 Cambridge Crystallographic Data Centre
#                                CCDC 
#
#######################################################################
#
# If this CIF has been generated from an entry in the Cambridge 
# Structural Database, then it will include bibliographic, chemical, 
# crystal, experimental, refinement or atomic coordinate data resulting 
# from the CCDC's data processing and validation procedures.
#
#######################################################################

data_FATTEZ
_symmetry_cell_setting           monoclinic
_symmetry_space_group_name_H-M   'I 2/c'
_symmetry_Int_Tables_number      15
_space_group_name_Hall           '-I 2yc'
loop_
_symmetry_equiv_pos_site_id
_symmetry_equiv_pos_as_xyz
1 x,y,z
2 1/2+x,1/2+y,1/2+z
3 -x,y,1/2-z
4 1/2-x,1/2+y,-z
5 -x,-y,-z
6 1/2-x,1/2-y,1/2-z
7 x,-y,1/2+z
8 1/2+x,1/2-y,z
_cell_length_a                   9.817(2)
_cell_length_b                   6.735(2)
_cell_length_c                   14.452(5)
_cell_angle_alpha                90
_cell_angle_beta                 97.60(3)
_cell_angle_gamma                90
_cell_volume                     947.136
loop_
_atom_site_label
_atom_site_type_symbol
_atom_site_fract_x
_atom_site_fract_y
_atom_site_fract_z
Zn1 Zn 0.0000 0.2481(1) 0.2500
O1 O -0.1171(3) 0.4709(5) 0.2971(2)
O2 O -0.1143(2) 0.0430(4) 0.3217(2)
O3 O -0.1262(2) 0.2014(3) 0.1250(1)
O4 O -0.3101(2) -0.2217(4) 0.3721(2)
O5 O -0.3597(2) -0.1067(4) 0.5030(2)
N1 N -0.2777(3) -0.1389(4) 0.4472(2)
C1 C -0.0687(3) 0.0181(4) 0.4048(2)
C2 C -0.0758(3) 0.1044(5) 0.0646(2)
C3 C -0.1376(3) -0.0741(5) 0.4725(2)
H1 H -0.1165(80) 0.503(12) 0.2624(54)
H2 H -0.1479(80) 0.450(12) 0.3266(54)
O1B O 0.1171(3) 0.4709(5) 0.2029(2)
O2B O 0.1143(2) 0.0430(4) 0.1783(2)
O3B O 0.1262(2) 0.2014(3) 0.3750(1)
C2B C 0.0758(3) 0.1044(5) 0.4354(2)
C1B C 0.0687(3) 0.0181(4) 0.0952(2)
C3F C -0.1376(3) 0.0741(5) -0.0275(2)
C2F C -0.0758(3) -0.1044(5) 0.5646(2)
H1B H 0.1165(80) 0.503(12) 0.2376(54)
H2B H 0.1479(80) 0.450(12) 0.1734(54)
C3D C 0.1376(3) 0.0741(5) 0.5275(2)
C3B C 0.1376(3) -0.0741(5) 0.0275(2)
N1F N -0.2777(3) 0.1389(4) -0.0528(2)
C1F C -0.0687(3) -0.0181(4) -0.0952(2)
O3F O -0.1262(2) -0.2014(3) 0.6250(1)
C1D C 0.0687(3) -0.0181(4) 0.5952(2)
N1D N 0.2777(3) 0.1389(4) 0.5528(2)
N1B N 0.2777(3) -0.1389(4) 0.0528(2)
C2D C 0.0758(3) -0.1044(5) -0.0646(2)
O4F O -0.3101(2) 0.2217(4) -0.1279(2)
O5F O -0.3597(2) 0.1067(4) 0.0030(2)
O2F O -0.1143(2) -0.0430(4) -0.1783(2)
Zn1D Zn 0.0000 -0.2481(1) 0.7500
O2D O 0.1143(2) -0.0430(4) 0.6783(2)
O4D O 0.3101(2) 0.2217(4) 0.6279(2)
O5D O 0.3597(2) 0.1067(4) 0.4970(2)
O4B O 0.3101(2) -0.2217(4) 0.1279(2)
O5B O 0.3597(2) -0.1067(4) -0.0030(2)
O3D O 0.1262(2) -0.2014(3) -0.1250(1)
Zn1D_2 Zn 0.0000 -0.2481(1) -0.2500
O1D O 0.1171(3) -0.4709(5) 0.7029(2)
O1F O -0.1171(3) -0.4709(5) 0.7971(2)
O2F_2 O -0.1143(2) -0.0430(4) 0.8217(2)
O3D_2 O 0.1262(2) -0.2014(3) 0.8750(1)
H1D H 0.1165(80) -0.503(12) 0.7376(54)
H2D H 0.1479(80) -0.450(12) 0.6734(54)
H1F H -0.1165(80) -0.503(12) 0.7624(54)
H2F H -0.1479(80) -0.450(12) 0.8266(54)
loop_
_geom_bond_atom_site_label_1
_geom_bond_atom_site_label_2
_geom_bond_site_symmetry_1
_geom_bond_site_symmetry_2
Zn1 O1 1_555 1_555
O1 H1 1_555 1_555
O2 Zn1 1_555 1_555
O3 Zn1 1_555 1_555
O4 N1 1_555 1_555
O5 N1 1_555 1_555
N1 C3 1_555 1_555
C1 O2 1_555 1_555
C2 O3 1_555 1_555
C3 C1 1_555 1_555
H2 O1 1_555 1_555
O1B Zn1 1_555 1_555
O2B Zn1 1_555 1_555
O3B Zn1 1_555 1_555
C2B C1 1_555 1_555
C1B C2 1_555 1_555
C3F C2 1_555 1_555
C2F C3 1_555 1_555
H1B O1B 1_555 1_555
H2B O1B 1_555 1_555
C3D C2B 1_555 1_555
C3B C1B 1_555 1_555
N1F C3F 1_555 1_555
C1F C3F 1_555 1_555
O3F C2F 1_555 1_555
C1D C2F 1_555 1_555
N1D C3D 1_555 1_555
N1B C3B 1_555 1_555
C2D C3B 1_555 1_555
O4F N1F 1_555 1_555
O5F N1F 1_555 1_555
O2F C1F 1_555 1_555
Zn1D O3F 1_555 1_555
O2D C1D 1_555 1_555
O4D N1D 1_555 1_555
O5D N1D 1_555 1_555
O4B N1B 1_555 1_555
O5B N1B 1_555 1_555
O3D C2D 1_555 1_555
Zn1D_2 O2F 1_555 1_555
O1D Zn1D 1_555 1_555
O1F Zn1D 1_555 1_555
O2F_2 Zn1D 1_555 1_555
O3D_2 Zn1D 1_555 1_555
H1D O1D 1_555 1_555
H2D O1D 1_555 1_555
H1F O1F 1_555 1_555
H2F O1F 1_555 1_555
O2B C1B 1_555 1_555
O3B C2B 1_555 1_555
C3D C1D 1_555 1_555
C1F C2D 1_555 1_555
Zn1D O2D 1_555 1_555
O3D Zn1D_2 1_555 1_555

#END
