
#######################################################################
#
#                 Cambridge Crystallographic Data Centre
#                                CCDC 
#
#######################################################################
#
# If this CIF has been generated from an entry in the Cambridge 
# Structural Database, then it will include bibliographic, chemical, 
# crystal, experimental, refinement or atomic coordinate data resulting 
# from the CCDC's data processing and validation procedures.
#
#######################################################################

data_FATVIG
_symmetry_cell_setting           triclinic
_symmetry_space_group_name_H-M   'P -1'
_symmetry_Int_Tables_number      2
_space_group_name_Hall           '-P 1'
loop_
_symmetry_equiv_pos_site_id
_symmetry_equiv_pos_as_xyz
1 x,y,z
2 -x,-y,-z
_cell_length_a                   7.8681(10)
_cell_length_b                   10.356(2)
_cell_length_c                   13.390(2)
_cell_angle_alpha                85.431(13)
_cell_angle_beta                 78.603(11)
_cell_angle_gamma                72.667(14)
_cell_volume                     1020.71
loop_
_atom_site_label
_atom_site_type_symbol
_atom_site_fract_x
_atom_site_fract_y
_atom_site_fract_z
Cu1 Cu 0.13512(6) 0.86285(4) 0.58720(3)
Cu2 Cu 0.15890(6) 1.14162(4) 0.58126(3)
Cu3 Cu 0.04260(6) 1.52643(5) 0.72868(3)
O1 O 0.2157(4) 0.9929(3) 0.49369(19)
O2 O 0.2923(4) 1.2380(3) 0.4864(2)
O3 O 0.5547(4) 1.2335(3) 0.3891(2)
O4 O 0.1692(4) 0.7414(3) 0.48135(19)
O5 O 0.3184(4) 0.6324(3) 0.3421(2)
O6 O 0.0565(4) 1.0189(2) 0.67129(18)
O7 O 0.0894(4) 1.2731(2) 0.6809(2)
O8 O -0.0664(4) 1.3856(3) 0.8153(2)
O9 O 0.0334(4) 0.7573(2) 0.69037(19)
O10 O -0.1280(4) 0.7089(3) 0.8309(2)
O11 O -0.1451(6) 1.5539(4) 0.6480(3)
H1 H -0.154(7) 1.599(5) 0.607(4)
H2 H -0.198(8) 1.508(6) 0.648(4)
O12 O 0.2490(5) 1.4944(4) 0.5993(3)
H3 H 0.277(7) 1.434(6) 0.583(4)
H4 H 0.246(8) 1.535(6) 0.562(5)
N1 N 0.2211(4) 1.5054(3) 0.8202(2)
C1 C 0.3380(5) 0.9644(4) 0.4067(2)
C2 C 0.4362(5) 1.0566(4) 0.3653(3)
C3 C 0.5500(5) 1.0289(4) 0.2709(3)
H5 H 0.6132 1.0898 0.2423
C4 C 0.5720(6) 0.9143(4) 0.2185(3)
H6 H 0.6450 0.9000 0.1544
C5 C 0.4849(5) 0.8212(4) 0.2622(3)
H7 H 0.5043 0.7418 0.2281
C6 C 0.3680(5) 0.8426(4) 0.3565(3)
C7 C 0.4300(5) 1.1826(4) 0.4165(3)
C8 C 0.2823(5) 0.7317(4) 0.3955(3)
C9 C -0.0345(5) 1.0352(3) 0.7671(2)
C10 C -0.0983(5) 0.9299(3) 0.8199(3)
C11 C -0.2000(7) 0.9533(4) 0.9180(3)
H8 H -0.2445 0.8851 0.9523
C12 C -0.2366(8) 1.0738(5) 0.9656(3)
H9 H -0.3033 1.0864 1.0315
C13 C -0.1734(6) 1.1754(4) 0.9146(3)
H10 H -0.1985 1.2572 0.9467
C14 C -0.0725(5) 1.1591(3) 0.8160(3)
C15 C -0.0135(5) 1.2774(4) 0.7670(3)
C16 C -0.0658(5) 0.7928(3) 0.7781(3)
C17 C 0.3580(5) 1.5606(4) 0.7970(3)
H11 H 0.3787 1.6005 0.7328
C18 C 0.4706(5) 1.5607(4) 0.8651(3)
H12 H 0.5637 1.6008 0.8463
C19 C 0.4435(5) 1.5003(4) 0.9617(3)
C20 C 0.3051(6) 1.4391(4) 0.9828(3)
H13 H 0.2847 1.3944 1.0451
C21 C 0.1983(6) 1.4445(4) 0.9119(3)
H14 H 0.1055 1.4038 0.9284
Cu1A Cu 0.86488(6) 1.13715(4) 0.41280(3)
Cu1_2 Cu 0.13512(6) 1.86285(4) 0.58720(3)
Cu2A Cu 0.84110(6) 0.85838(4) 0.41874(3)
Cu2_2 Cu 0.15890(6) 2.14162(4) 0.58126(3)
Cu3_2 Cu 0.04260(6) 0.52643(5) 0.72868(3)
Cu3A Cu 0.95740(6) 1.47357(5) 1.27132(3)
Cu3_3 Cu 0.04260(6) 2.52643(5) 0.72868(3)
O1A O 0.7843(4) 1.0071(3) 0.50631(19)
O2A O 0.7077(4) 0.7620(3) 0.5136(2)
O3A O 0.4453(4) 0.7665(3) 0.6109(2)
O4A O 0.8308(4) 1.2586(3) 0.51865(19)
O5A O 0.6816(4) 1.3676(3) 0.6579(2)
O6_2 O 0.0565(4) 2.0189(2) 0.67129(18)
O6A O 0.9435(4) 0.9811(2) 0.32871(18)
O7_2 O 0.0894(4) 2.2731(2) 0.6809(2)
O7A O 0.9106(4) 0.7269(2) 0.3191(2)
O8_2 O -0.0664(4) 2.3856(3) 0.8153(2)
O8_3 O -0.0664(4) 0.3856(3) 0.8153(2)
O9_2 O 0.0334(4) 1.7573(2) 0.69037(19)
O9A O 0.9666(4) 1.2427(2) 0.30963(19)
O10_2 O -0.1280(4) 1.7089(3) 0.8309(2)
O11_2 O -0.1451(6) 0.5539(4) 0.6480(3)
H1_2 H -0.154(7) 0.599(5) 0.607(4)
H2_2 H -0.198(8) 0.508(6) 0.648(4)
O12_2 O 0.2490(5) 0.4944(4) 0.5993(3)
H3_2 H 0.277(7) 0.434(6) 0.583(4)
H4_2 H 0.246(8) 0.535(6) 0.562(5)
N1A N 0.7789(4) 1.4946(3) 1.1798(2)
N1_2 N 0.2211(4) 0.5054(3) 0.8202(2)
C1A C 0.6620(5) 1.0356(4) 0.5933(2)
C2A C 0.5638(5) 0.9434(4) 0.6347(3)
C3A C 0.4500(5) 0.9711(4) 0.7291(3)
H5A H 0.3868 0.9102 0.7577
C4A C 0.4280(6) 1.0857(4) 0.7815(3)
H6A H 0.3550 1.1000 0.8456
C5A C 0.5151(5) 1.1788(4) 0.7378(3)
H7A H 0.4957 1.2582 0.7719
C6A C 0.6320(5) 1.1574(4) 0.6435(3)
C7A C 0.5700(5) 0.8174(4) 0.5835(3)
C8A C 0.7177(5) 1.2683(4) 0.6045(3)
C9_2 C -0.0345(5) 2.0352(3) 0.7671(2)
C10_2 C -0.0983(5) 1.9299(3) 0.8199(3)
C11_2 C -0.2000(7) 1.9533(4) 0.9180(3)
H8_2 H -0.2445 1.8851 0.9523
C12_2 C -0.2366(8) 2.0738(5) 0.9656(3)
H9_2 H -0.3033 2.0864 1.0315
C13_2 C -0.1734(6) 2.1754(4) 0.9146(3)
H10_2 H -0.1985 2.2572 0.9467
C14_2 C -0.0725(5) 2.1591(3) 0.8160(3)
C15_2 C -0.0135(5) 2.2774(4) 0.7670(3)
C16_2 C -0.0658(5) 1.7928(3) 0.7781(3)
C17A C 0.6420(5) 1.4394(4) 1.2030(3)
H11A H 0.6213 1.3995 1.2672
C18A C 0.5294(5) 1.4393(4) 1.1349(3)
H12A H 0.4363 1.3992 1.1537
C19A C 0.5565(5) 1.4997(4) 1.0383(3)
C20A C 0.6949(6) 1.5609(4) 1.0172(3)
H13A H 0.7153 1.6056 0.9549
C21A C 0.8017(6) 1.5555(4) 1.0881(3)
H14A H 0.8945 1.5962 1.0716
loop_
_geom_bond_atom_site_label_1
_geom_bond_atom_site_label_2
_geom_bond_site_symmetry_1
_geom_bond_site_symmetry_2
Cu1 O1 1_555 1_555
Cu2 O1 1_555 1_555
Cu3 O8 1_555 1_555
O1 C1 1_555 1_555
O2 Cu2 1_555 1_555
O3 C7 1_555 1_555
O4 Cu1 1_555 1_555
O5 C8 1_555 1_555
O6 Cu1 1_555 1_555
O7 Cu2 1_555 1_555
O8 C15 1_555 1_555
O9 Cu1 1_555 1_555
O10 C16 1_555 1_555
O11 Cu3 1_555 1_555
H1 O11 1_555 1_555
H2 O11 1_555 1_555
O12 Cu3 1_555 1_555
H3 O12 1_555 1_555
H4 O12 1_555 1_555
N1 Cu3 1_555 1_555
C1 C2 1_555 1_555
C2 C3 1_555 1_555
C3 H5 1_555 1_555
C4 C3 1_555 1_555
H6 C4 1_555 1_555
C5 C4 1_555 1_555
H7 C5 1_555 1_555
C6 C1 1_555 1_555
C7 O2 1_555 1_555
C8 O4 1_555 1_555
C9 O6 1_555 1_555
C10 C9 1_555 1_555
C11 C10 1_555 1_555
H8 C11 1_555 1_555
C12 C11 1_555 1_555
H9 C12 1_555 1_555
C13 C12 1_555 1_555
H10 C13 1_555 1_555
C14 C9 1_555 1_555
C15 O7 1_555 1_555
C16 O9 1_555 1_555
C17 N1 1_555 1_555
H11 C17 1_555 1_555
C18 C17 1_555 1_555
H12 C18 1_555 1_555
C19 C18 1_555 1_555
C20 C19 1_555 1_555
H13 C20 1_555 1_555
C21 N1 1_555 1_555
H14 C21 1_555 1_555
Cu1A O3 1_555 1_555
Cu1_2 O6_2 1_555 1_555
Cu2A O1A 1_555 1_555
Cu2_2 O6_2 1_555 1_555
Cu3_2 O9 1_555 1_555
Cu3A N1A 1_555 1_555
Cu3_3 O8_2 1_555 1_555
O1A Cu1A 1_555 1_555
O2A Cu2A 1_555 1_555
O3A Cu1 1_555 1_555
O4A Cu1A 1_555 1_555
O5A C8A 1_555 1_555
O6_2 C9_2 1_555 1_555
O6A Cu1A 1_555 1_555
O7_2 Cu2_2 1_555 1_555
O7A Cu2A 1_555 1_555
O8_2 C15_2 1_555 1_555
O8_3 Cu3_2 1_555 1_555
O9_2 Cu3 1_555 1_555
O9A Cu1A 1_555 1_555
O10_2 Cu3 1_555 1_555
O11_2 Cu3_2 1_555 1_555
H1_2 O11_2 1_555 1_555
H2_2 O11_2 1_555 1_555
O12_2 Cu3_2 1_555 1_555
H3_2 O12_2 1_555 1_555
H4_2 O12_2 1_555 1_555
N1A C17A 1_555 1_555
N1_2 Cu3_2 1_555 1_555
C1A O1A 1_555 1_555
C2A C1A 1_555 1_555
C3A C2A 1_555 1_555
H5A C3A 1_555 1_555
C4A C3A 1_555 1_555
H6A C4A 1_555 1_555
C5A C4A 1_555 1_555
H7A C5A 1_555 1_555
C6A C1A 1_555 1_555
C7A O2A 1_555 1_555
C8A O4A 1_555 1_555
C9_2 C10_2 1_555 1_555
C10_2 C11_2 1_555 1_555
C11_2 H8_2 1_555 1_555
C12_2 C11_2 1_555 1_555
H9_2 C12_2 1_555 1_555
C13_2 C12_2 1_555 1_555
H10_2 C13_2 1_555 1_555
C14_2 C9_2 1_555 1_555
C15_2 O7_2 1_555 1_555
C16_2 O9_2 1_555 1_555
C17A H11A 1_555 1_555
C18A C17A 1_555 1_555
H12A C18A 1_555 1_555
C19A C19 1_555 1_555
C20A C19A 1_555 1_555
H13A C20A 1_555 1_555
C21A N1A 1_555 1_555
H14A C21A 1_555 1_555
Cu2 O6 1_555 1_555
O10 Cu3_2 1_555 1_555
C2 C7 1_555 1_555
C5 C6 1_555 1_555
C6 C8 1_555 1_555
C10 C16 1_555 1_555
C13 C14 1_555 1_555
C14 C15 1_555 1_555
C20 C21 1_555 1_555
Cu1_2 O9_2 1_555 1_555
Cu2A O6A 1_555 1_555
O3A C7A 1_555 1_555
O10_2 C16_2 1_555 1_555
C2A C7A 1_555 1_555
C5A C6A 1_555 1_555
C6A C8A 1_555 1_555
C10_2 C16_2 1_555 1_555
C13_2 C14_2 1_555 1_555
C14_2 C15_2 1_555 1_555
C18A C19A 1_555 1_555
C20A C21A 1_555 1_555

#END
