
#######################################################################
#
#                 Cambridge Crystallographic Data Centre
#                                CCDC 
#
#######################################################################
#
# If this CIF has been generated from an entry in the Cambridge 
# Structural Database, then it will include bibliographic, chemical, 
# crystal, experimental, refinement or atomic coordinate data resulting 
# from the CCDC's data processing and validation procedures.
#
#######################################################################

data_FAVCAG
_symmetry_cell_setting           monoclinic
_symmetry_space_group_name_H-M   'P 21/c'
_symmetry_Int_Tables_number      14
_space_group_name_Hall           '-P 2ybc'
loop_
_symmetry_equiv_pos_site_id
_symmetry_equiv_pos_as_xyz
1 x,y,z
2 -x,1/2+y,1/2-z
3 -x,-y,-z
4 x,1/2-y,1/2+z
_cell_length_a                   11.059(12)
_cell_length_b                   11.520(5)
_cell_length_c                   28.604(16)
_cell_angle_alpha                90
_cell_angle_beta                 95.04(4)
_cell_angle_gamma                90
_cell_volume                     3630.05
loop_
_atom_site_label
_atom_site_type_symbol
_atom_site_fract_x
_atom_site_fract_y
_atom_site_fract_z
Br1 Br 0.4623(2) 0.3465(2) 0.2128(1)
Cu1 Cu 0.4718(3) 0.1021(2) 0.2356(1)
O1 O 0.4139(12) 0.0470(10) 0.1734(4)
O2 O 0.4506(12) 0.1946(10) 0.3738(4)
N1 N 0.6392(14) 0.0747(11) 0.2171(4)
N2 N 0.5339(14) 0.1382(11) 0.3031(4)
N3 N 0.2112(15) 0.1361(13) 0.3325(5)
N4 N 0.3036(15) 0.1057(11) 0.2593(4)
C1 C 0.5131(19) 0.0079(14) 0.1494(6)
C2 C 0.6271(20) 0.0774(16) 0.1651(6)
C3 C 0.7358(20) 0.1542(17) 0.2363(6)
C4 C 0.7547(19) 0.1536(17) 0.2884(6)
C5 C 0.6449(18) 0.2073(16) 0.3104(6)
C6 C 0.4306(16) 0.1839(14) 0.3238(5)
C7 C 0.3416(18) 0.2289(17) 0.3947(6)
C8 C 0.2396(19) 0.1424(17) 0.3830(6)
C9 C 0.1190(20) 0.0476(17) 0.3193(7)
C10 C 0.0916(19) 0.0361(16) 0.2679(7)
C11 C 0.2070(19) 0.0172(15) 0.2444(6)
C12 C 0.3200(18) 0.1052(14) 0.3103(5)
H1 H 0.525 -0.072 0.153
H2 H 0.491 0.022 0.115
H3 H 0.692 0.042 0.152
H4 H 0.615 0.154 0.154
H5 H 0.812 0.137 0.222
H6 H 0.715 0.234 0.225
H7 H 0.768 0.075 0.300
H8 H 0.829 0.196 0.299
H9 H 0.659 0.221 0.344
H10 H 0.624 0.285 0.297
H11 H 0.406 0.261 0.311
H12 H 0.359 0.235 0.428
H13 H 0.314 0.303 0.383
H14 H 0.276 0.068 0.394
H15 H 0.177 0.162 0.399
H16 H 0.145 -0.025 0.332
H17 H 0.045 0.070 0.331
H18 H 0.044 -0.028 0.261
H19 H 0.063 0.105 0.255
H20 H 0.245 -0.061 0.252
H21 H 0.195 0.015 0.210
H22 H 0.346 0.027 0.320
H23 H 0.662 -0.001 0.226
H24 H 0.545 0.062 0.317
H25 H 0.269 0.181 0.250
Br1A Br 0.5377(2) -0.1535(2) 0.2872(1)
Cu1A Cu 0.5282(3) -0.3979(2) 0.2644(1)
O1A O 0.5861(12) -0.4530(10) 0.3266(4)
O2A O 0.5494(12) -0.3054(10) 0.1262(4)
N1A N 0.3608(14) -0.4253(11) 0.2829(4)
N2A N 0.4661(14) -0.3618(11) 0.1969(4)
N3A N 0.7888(15) -0.3639(13) 0.1675(5)
N4A N 0.6964(15) -0.3943(11) 0.2407(4)
C1A C 0.4869(19) -0.4921(14) 0.3506(6)
C2A C 0.3729(20) -0.4226(16) 0.3349(6)
C3A C 0.2642(20) -0.3458(17) 0.2637(6)
C4A C 0.2453(19) -0.3464(17) 0.2116(6)
C5A C 0.3551(18) -0.2927(16) 0.1896(6)
C6A C 0.5694(16) -0.3161(14) 0.1762(5)
C7A C 0.6584(18) -0.2711(17) 0.1053(6)
C8A C 0.7604(19) -0.3576(17) 0.1170(6)
C9A C 0.8810(20) -0.4524(17) 0.1807(7)
C10A C 0.9084(19) -0.4639(16) 0.2321(7)
C11A C 0.7930(19) -0.4828(15) 0.2556(6)
C12A C 0.6800(18) -0.3948(14) 0.1897(5)
H1A H 0.475 -0.572 0.347
H2A H 0.509 -0.478 0.385
H3A H 0.308 -0.458 0.348
H4A H 0.385 -0.346 0.346
H5A H 0.188 -0.363 0.278
H6A H 0.285 -0.266 0.275
H7A H 0.232 -0.425 0.200
H8A H 0.171 -0.304 0.201
H9A H 0.341 -0.279 0.156
H10A H 0.376 -0.215 0.203
H11A H 0.594 -0.239 0.189
H12A H 0.641 -0.265 0.072
H13A H 0.686 -0.197 0.117
H14A H 0.724 -0.432 0.106
H15A H 0.823 -0.338 0.101
H16A H 0.855 -0.525 0.168
H17A H 0.955 -0.430 0.169
H18A H 0.956 -0.528 0.239
H19A H 0.937 -0.395 0.245
H20A H 0.755 -0.561 0.248
H21A H 0.805 -0.485 0.290
H22A H 0.654 -0.473 0.180
H23A H 0.338 -0.501 0.274
H24A H 0.455 -0.438 0.183
H25A H 0.731 -0.319 0.250
Cu1A_2 Cu 0.5282(3) 0.6021(2) 0.2644(1)
Br1_2 Br 0.4623(2) -0.6535(2) 0.2128(1)
Br2 Br 0.0915(2) 0.2814(2) 0.1864(1)
Br3 Br 0.1445(2) 0.1529(2) -0.0140(1)
Cu2 Cu 0.1413(3) 0.1986(2) 0.0937(1)
O3 O 0.2453(12) 0.0701(10) 0.1143(4)
O4 O 0.0455(13) 0.5374(10) 0.0556(4)
N5 N 0.0075(14) 0.0807(12) 0.0858(4)
N6 N 0.0361(13) 0.3314(12) 0.0662(4)
N7 N 0.3020(15) 0.5193(12) 0.0759(5)
N8 N 0.2741(13) 0.3171(11) 0.0951(4)
C13 C 0.1790(19) -0.0363(16) 0.1082(6)
C14 C 0.0460(18) -0.0200(16) 0.1154(6)
C15 C -0.1160(18) 0.1165(17) 0.0950(6)
C16 C -0.1555(19) 0.2184(18) 0.0643(7)
C17 C -0.0919(20) 0.3326(17) 0.0767(6)
C18 C 0.0962(18) 0.4362(15) 0.0793(6)
C19 C 0.1149(21) 0.6376(17) 0.0678(7)
C20 C 0.2370(22) 0.6242(16) 0.0536(6)
C21 C 0.4173(22) 0.4957(17) 0.0571(6)
C22 C 0.4825(21) 0.3863(19) 0.0798(6)
C23 C 0.3911(18) 0.2837(15) 0.0792(7)
C24 C 0.2210(7) 0.4182(14) 0.0680(5)
H26 H 0.192 -0.068 0.078
H27 H 0.219 -0.096 0.131
H28 H 0.005 -0.088 0.107
H29 H 0.043 -0.004 0.148
H30 H -0.172 0.052 0.088
H31 H -0.121 0.136 0.127
H32 H -0.149 0.203 0.032
H33 H -0.244 0.234 0.067
H34 H -0.130 0.395 0.062
H35 H -0.090 0.341 0.111
H36 H 0.098 0.448 0.113
H37 H 0.078 0.704 0.053
H38 H 0.120 0.649 0.101
H39 H 0.234 0.615 0.020
H40 H 0.286 0.691 0.062
H41 H 0.413 0.483 0.022
H42 H 0.477 0.561 0.061
H43 H 0.553 0.364 0.064
H44 H 0.511 0.405 0.111
H45 H 0.384 0.251 0.049
H46 H 0.431 0.224 0.101
H47 H 0.227 0.405 0.035
H48 H 0.009 0.060 0.054
H49 H 0.032 0.323 0.033
H50 H 0.289 0.337 0.128
H51 H 0.269 0.078 0.147
O5 O 0.1650(14) 0.3772(11) 0.2953(5)
O6 O 0.5000 0.0000 0.0000
loop_
_geom_bond_atom_site_label_1
_geom_bond_atom_site_label_2
_geom_bond_site_symmetry_1
_geom_bond_site_symmetry_2
Br1 Cu1 1_555 1_555
Br2 Cu2 1_555 1_555
Br3 Cu2 1_555 1_555
Cu1 O1 1_555 1_555
Cu2 O3 1_555 1_555
O1 C1 1_555 1_555
O2 C6 1_555 1_555
O3 C13 1_555 1_555
O4 C18 1_555 1_555
N1 Cu1 1_555 1_555
N2 Cu1 1_555 1_555
N3 C8 1_555 1_555
N4 Cu1 1_555 1_555
N5 Cu2 1_555 1_555
N6 Cu2 1_555 1_555
N7 C20 1_555 1_555
N8 Cu2 1_555 1_555
C1 C2 1_555 1_555
C2 N1 1_555 1_555
C3 N1 1_555 1_555
C4 C3 1_555 1_555
C5 N2 1_555 1_555
C6 N2 1_555 1_555
C7 O2 1_555 1_555
C8 C7 1_555 1_555
C9 N3 1_555 1_555
C10 C9 1_555 1_555
C11 N4 1_555 1_555
C12 N3 1_555 1_555
C13 C14 1_555 1_555
C14 N5 1_555 1_555
C15 N5 1_555 1_555
C16 C15 1_555 1_555
C17 N6 1_555 1_555
C18 N6 1_555 1_555
C19 O4 1_555 1_555
C20 C19 1_555 1_555
C21 N7 1_555 1_555
C22 C21 1_555 1_555
C23 N8 1_555 1_555
C24 N7 1_555 1_555
H1 C1 1_555 1_555
H2 C1 1_555 1_555
H3 C2 1_555 1_555
H4 C2 1_555 1_555
H5 C3 1_555 1_555
H6 C3 1_555 1_555
H7 C4 1_555 1_555
H8 C4 1_555 1_555
H9 C5 1_555 1_555
H10 C5 1_555 1_555
H11 C6 1_555 1_555
H12 C7 1_555 1_555
H13 C7 1_555 1_555
H14 C8 1_555 1_555
H15 C8 1_555 1_555
H16 C9 1_555 1_555
H17 C9 1_555 1_555
H18 C10 1_555 1_555
H19 C10 1_555 1_555
H20 C11 1_555 1_555
H21 C11 1_555 1_555
H22 C12 1_555 1_555
H23 N1 1_555 1_555
H24 N2 1_555 1_555
H25 N4 1_555 1_555
H26 C13 1_555 1_555
H27 C13 1_555 1_555
H28 C14 1_555 1_555
H29 C14 1_555 1_555
H30 C15 1_555 1_555
H31 C15 1_555 1_555
H32 C16 1_555 1_555
H33 C16 1_555 1_555
H34 C17 1_555 1_555
H35 C17 1_555 1_555
H36 C18 1_555 1_555
H37 C19 1_555 1_555
H38 C19 1_555 1_555
H39 C20 1_555 1_555
H40 C20 1_555 1_555
H41 C21 1_555 1_555
H42 C21 1_555 1_555
H43 C22 1_555 1_555
H44 C22 1_555 1_555
H45 C23 1_555 1_555
H46 C23 1_555 1_555
H47 C24 1_555 1_555
H48 N5 1_555 1_555
H49 N6 1_555 1_555
H50 N8 1_555 1_555
H51 O3 1_555 1_555
Br1A Cu1 1_555 1_555
Cu1A Br1A 1_555 1_555
O1A Cu1A 1_555 1_555
O2A C6A 1_555 1_555
N1A Cu1A 1_555 1_555
N2A Cu1A 1_555 1_555
N3A C8A 1_555 1_555
N4A Cu1A 1_555 1_555
C1A O1A 1_555 1_555
C2A N1A 1_555 1_555
C3A N1A 1_555 1_555
C4A C3A 1_555 1_555
C5A N2A 1_555 1_555
C6A N2A 1_555 1_555
C7A O2A 1_555 1_555
C8A C7A 1_555 1_555
C9A N3A 1_555 1_555
C10A C9A 1_555 1_555
C11A N4A 1_555 1_555
C12A N3A 1_555 1_555
H1A C1A 1_555 1_555
H2A C1A 1_555 1_555
H3A C2A 1_555 1_555
H4A C2A 1_555 1_555
H5A C3A 1_555 1_555
H6A C3A 1_555 1_555
H7A C4A 1_555 1_555
H8A C4A 1_555 1_555
H9A C5A 1_555 1_555
H10A C5A 1_555 1_555
H11A C6A 1_555 1_555
H12A C7A 1_555 1_555
H13A C7A 1_555 1_555
H14A C8A 1_555 1_555
H15A C8A 1_555 1_555
H16A C9A 1_555 1_555
H17A C9A 1_555 1_555
H18A C10A 1_555 1_555
H19A C10A 1_555 1_555
H20A C11A 1_555 1_555
H21A C11A 1_555 1_555
H22A C12A 1_555 1_555
H23A N1A 1_555 1_555
H24A N2A 1_555 1_555
H25A N4A 1_555 1_555
Cu1A_2 Br1 1_555 1_555
Br1_2 Cu1A 1_555 1_555
N4 C12 1_555 1_555
N8 C24 1_555 1_555
C4 C5 1_555 1_555
C6 C12 1_555 1_555
C10 C11 1_555 1_555
C16 C17 1_555 1_555
C18 C24 1_555 1_555
C22 C23 1_555 1_555
N4A C12A 1_555 1_555
C1A C2A 1_555 1_555
C4A C5A 1_555 1_555
C6A C12A 1_555 1_555
C10A C11A 1_555 1_555

#END
