
#######################################################################
#
#                 Cambridge Crystallographic Data Centre
#                                CCDC 
#
#######################################################################
#
# If this CIF has been generated from an entry in the Cambridge 
# Structural Database, then it will include bibliographic, chemical, 
# crystal, experimental, refinement or atomic coordinate data resulting 
# from the CCDC's data processing and validation procedures.
#
#######################################################################

data_FAVDIP
_symmetry_cell_setting           monoclinic
_symmetry_space_group_name_H-M   'P 21/n'
_symmetry_Int_Tables_number      14
_space_group_name_Hall           '-P 2yn'
loop_
_symmetry_equiv_pos_site_id
_symmetry_equiv_pos_as_xyz
1 x,y,z
2 1/2-x,1/2+y,1/2-z
3 -x,-y,-z
4 1/2+x,1/2-y,1/2+z
_cell_length_a                   18.362(2)
_cell_length_b                   7.485(1)
_cell_length_c                   14.292(2)
_cell_angle_alpha                90
_cell_angle_beta                 104.72(1)
_cell_angle_gamma                90
_cell_volume                     1899.82
loop_
_atom_site_label
_atom_site_type_symbol
_atom_site_fract_x
_atom_site_fract_y
_atom_site_fract_z
Hg1 Hg 0.22966(2) 0.27218(6) 0.78315(3)
Hg2 Hg 0.11076(2) 0.03241(6) 0.57394(3)
S1 S 0.10624(15) 0.29901(36) 0.67547(19)
S2 S 0.33096(14) 0.23898(37) 0.92707(20)
O1 O 0.3139(5) 0.4126(12) 0.6931(6)
O2 O 0.2847(5) 0.1336(11) 0.6562(6)
O3 O 0.0156(4) 0.1238(12) 0.4360(6)
O4 O 0.1273(4) 0.1907(13) 0.4226(7)
C1 C 0.0439(6) 0.2476(14) 0.7496(7)
C2 C 0.0666(7) 0.2466(17) 0.8495(10)
C3 C 0.0144(8) 0.2185(20) 0.9032(11)
C4 C -0.0595(8) 0.1852(19) 0.8572(11)
C5 C -0.0823(7) 0.1892(18) 0.7584(10)
C6 C -0.0316(6) 0.2177(16) 0.7040(9)
C7 C 0.2818(6) 0.2328(14) 1.0194(8)
C8 C 0.2435(6) 0.3779(16) 1.0444(8)
C9 C 0.2038(7) 0.3603(19) 1.1138(10)
C10 C 0.2045(8) 0.1965(20) 1.1613(11)
C11 C 0.2428(8) 0.0581(19) 1.1383(10)
C12 C 0.2809(7) 0.0690(17) 1.0671(9)
C13 C 0.3182(6) 0.2731(14) 0.6461(8)
C14 C 0.3663(8) 0.2767(18) 0.5736(10)
C15 C 0.0572(7) 0.1952(17) 0.3883(9)
C16 C 0.0232(9) 0.2823(21) 0.2913(12)
H1 H 0.1208 0.2662 0.8832
H2 H 0.0306 0.2226 0.9754
H3 H -0.0966 0.1580 0.8958
H4 H -0.1367 0.1710 0.7253
H5 H -0.0488 0.2171 0.6318
H6 H 0.2447 0.4957 1.0118
H7 H 0.1748 0.4637 1.1301
H8 H 0.1764 0.1829 1.2124
H9 H 0.2437 -0.0570 1.1741
H10 H 0.3074 -0.0377 1.0497
O1A O 0.1861(5) -0.0874(12) 0.8069(6)
O2A O 0.2153(5) 0.6336(11) 0.8438(6)
S2A S 0.16904(14) -0.26102(37) 0.57293(20)
O3B O -0.0156(4) -0.1238(12) 0.5640(6)
Hg2A Hg 0.38924(2) 0.53241(6) 0.92606(3)
Hg1A Hg 0.27034(2) 0.77218(6) 0.71685(3)
Hg1A_2 Hg 0.27034(2) -0.22782(6) 0.71685(3)
Hg2B Hg -0.11076(2) -0.03241(6) 0.42606(3)
loop_
_geom_bond_atom_site_label_1
_geom_bond_atom_site_label_2
_geom_bond_site_symmetry_1
_geom_bond_site_symmetry_2
Hg1 S1 1_555 1_555
Hg2 S1 1_555 1_555
S1 C1 1_555 1_555
S2 Hg1 1_555 1_555
O1 Hg1 1_555 1_555
O2 Hg1 1_555 1_555
O3 Hg2 1_555 1_555
O4 Hg2 1_555 1_555
C1 C2 1_555 1_555
C2 C3 1_555 1_555
C3 C4 1_555 1_555
C4 C5 1_555 1_555
C5 C6 1_555 1_555
C6 C1 1_555 1_555
C7 S2 1_555 1_555
C8 C7 1_555 1_555
C9 C8 1_555 1_555
C10 C9 1_555 1_555
C11 C10 1_555 1_555
C12 C7 1_555 1_555
C13 O1 1_555 1_555
C14 C13 1_555 1_555
C15 O3 1_555 1_555
C16 C15 1_555 1_555
H1 C2 1_555 1_555
H2 C3 1_555 1_555
H3 C4 1_555 1_555
H4 C5 1_555 1_555
H5 C6 1_555 1_555
H6 C8 1_555 1_555
H7 C9 1_555 1_555
H8 C10 1_555 1_555
H9 C11 1_555 1_555
H10 C12 1_555 1_555
O1A Hg1 1_555 1_555
O2A Hg1 1_555 1_555
S2A Hg2 1_555 1_555
O3B Hg2 1_555 1_555
Hg2A S2 1_555 1_555
Hg1A O1 1_555 1_555
Hg1A_2 O2 1_555 1_555
Hg2B O3 1_555 1_555
O2 C13 1_555 1_555
O4 C15 1_555 1_555
C11 C12 1_555 1_555
O1A Hg1A_2 1_555 1_555
O2A Hg1A 1_555 1_555
S2A Hg1A_2 1_555 1_555
O3B Hg2B 1_555 1_555

#END
