
#######################################################################
#
#                 Cambridge Crystallographic Data Centre
#                                CCDC 
#
#######################################################################
#
# If this CIF has been generated from an entry in the Cambridge 
# Structural Database, then it will include bibliographic, chemical, 
# crystal, experimental, refinement or atomic coordinate data resulting 
# from the CCDC's data processing and validation procedures.
#
#######################################################################

data_FAVFUF
_symmetry_cell_setting           monoclinic
_symmetry_space_group_name_H-M   'P 21'
_symmetry_Int_Tables_number      4
_space_group_name_Hall           'P 2yb'
loop_
_symmetry_equiv_pos_site_id
_symmetry_equiv_pos_as_xyz
1 x,y,z
2 -x,1/2+y,-z
_cell_length_a                   7.3893(6)
_cell_length_b                   6.4507(5)
_cell_length_c                   9.4036(7)
_cell_angle_alpha                90
_cell_angle_beta                 103.2390(10)
_cell_angle_gamma                90
_cell_volume                     436.321
loop_
_atom_site_label
_atom_site_type_symbol
_atom_site_fract_x
_atom_site_fract_y
_atom_site_fract_z
Na1 Na 0.27988(8) -0.23661(10) -0.23165(7)
O1 O 0.15302(18) -0.89463(19) -0.22705(14)
O2 O 0.25550(15) -0.60765(18) -0.31794(13)
O3 O -0.15136(15) -0.72812(19) -0.19445(12)
O4 O -0.20238(16) -0.70484(18) -0.50270(11)
O5 O -0.43800(13) -0.34168(16) -0.52888(10)
O6 O -0.41708(14) -0.12007(16) -0.25789(12)
O7 O 0.01385(13) -0.41729(15) -0.17154(11)
C1 C 0.1409(2) -0.7114(2) -0.26817(15)
C2 C -0.04191(19) -0.5969(2) -0.25867(15)
C3 C -0.15406(18) -0.5295(2) -0.41023(14)
H1 H -0.0757 -0.438 -0.4538
C4 C -0.32324(19) -0.4067(2) -0.39194(14)
H2 H -0.3981 -0.4977 -0.3447
C5 C -0.26161(18) -0.2229(2) -0.29094(14)
H3 H -0.1911 -0.1254 -0.3372
C6 C -0.1407(2) -0.2983(2) -0.14728(15)
H4 H -0.0949 -0.1801 -0.0857
H5 H -0.2146 -0.383 -0.0968
O8 O 0.4289(3) -0.2798(5) 0.01195(18)
H6 H -0.367(3) -0.272(3) -0.574(2)
H7 H -0.456(3) -0.050(4) -0.324(3)
H8 H -0.282(3) -0.753(4) -0.481(2)
H9 H -0.087(4) -0.827(5) -0.168(3)
H10 H 0.362(5) -0.276(8) 0.075(4)
H11 H 0.468(9) -0.397(7) -0.019(8)
Na1_2 Na 0.27988(8) -1.23661(10) -0.23165(7)
Na1A Na -0.27988(8) -0.73661(10) -0.76835(7)
Na1_3 Na -0.72012(8) -0.23661(10) -0.23165(7)
O1_2 O 0.15302(18) 0.10537(19) -0.22705(14)
O4A O 0.20238(16) -0.20484(18) -0.49730(11)
O6_2 O 0.58292(14) -0.12007(16) -0.25789(12)
H7_2 H 0.544(3) -0.050(4) -0.324(3)
H8A H 0.282(3) -0.253(4) -0.519(2)
loop_
_geom_bond_atom_site_label_1
_geom_bond_atom_site_label_2
_geom_bond_site_symmetry_1
_geom_bond_site_symmetry_2
Na1 O2 1_555 1_555
O1 C1 1_555 1_555
O2 C1 1_555 1_555
O3 C2 1_555 1_555
O4 C3 1_555 1_555
O5 C4 1_555 1_555
O6 C5 1_555 1_555
O7 Na1 1_555 1_555
C1 C2 1_555 1_555
C2 O7 1_555 1_555
C3 C2 1_555 1_555
H1 C3 1_555 1_555
C4 C3 1_555 1_555
H2 C4 1_555 1_555
C5 C4 1_555 1_555
H3 C5 1_555 1_555
C6 O7 1_555 1_555
H4 C6 1_555 1_555
H5 C6 1_555 1_555
O8 Na1 1_555 1_555
H6 O5 1_555 1_555
H7 O6 1_555 1_555
H8 O4 1_555 1_555
H9 O3 1_555 1_555
H10 O8 1_555 1_555
H11 O8 1_555 1_555
Na1_2 O1 1_555 1_555
Na1A O4 1_555 1_555
Na1_3 O6 1_555 1_555
O1_2 Na1 1_555 1_555
O4A Na1 1_555 1_555
O6_2 Na1 1_555 1_555
H7_2 O6_2 1_555 1_555
H8A O4A 1_555 1_555
C5 C6 1_555 1_555

#END
