
#######################################################################
#
#                 Cambridge Crystallographic Data Centre
#                                CCDC 
#
#######################################################################
#
# If this CIF has been generated from an entry in the Cambridge 
# Structural Database, then it will include bibliographic, chemical, 
# crystal, experimental, refinement or atomic coordinate data resulting 
# from the CCDC's data processing and validation procedures.
#
#######################################################################

data_FAVFAK
_symmetry_cell_setting           monoclinic
_symmetry_space_group_name_H-M   'P 2/n'
_symmetry_Int_Tables_number      13
_space_group_name_Hall           '-P 2yac'
loop_
_symmetry_equiv_pos_site_id
_symmetry_equiv_pos_as_xyz
1 x,y,z
2 1/2-x,y,1/2-z
3 -x,-y,-z
4 1/2+x,-y,1/2+z
_cell_length_a                   12.934(7)
_cell_length_b                   11.283(6)
_cell_length_c                   14.737(8)
_cell_angle_alpha                90
_cell_angle_beta                 111.111(10)
_cell_angle_gamma                90
_cell_volume                     2006.29
loop_
_atom_site_label
_atom_site_type_symbol
_atom_site_fract_x
_atom_site_fract_y
_atom_site_fract_z
Cd1 Cd 0.0000 0.0000 0.0000
N1 N 0.7169(3) -0.1978(4) 0.0328(3)
N2 N 0.2857(3) -0.2284(4) 0.1450(3)
N3 N 0.0836(4) 0.1386(4) 0.2120(3)
C1 C 0.5062(4) -0.2541(4) 0.1034(4)
C2 C 0.4746(4) -0.3048(4) 0.1759(3)
N4 N 0.1272(3) -0.1466(4) 0.0562(3)
C3 C 0.5131(4) -0.4150(4) 0.2124(4)
C4 C 0.5764(4) -0.3158(5) 0.0679(4)
C5 C 0.3976(5) -0.2387(6) 0.2151(4)
H1 H 0.3956 -0.2795 0.2723
H2 H 0.4271 -0.1599 0.2348
C6 C 0.2260(4) -0.1293(5) 0.1205(4)
H3 H 0.2522 -0.0553 0.1466
C7 C 0.6136(4) -0.4278(5) 0.1022(4)
N5 N 0.8684(3) -0.1018(4) 0.0431(3)
C8 C 0.5812(6) -0.4763(5) 0.1758(5)
H4 H 0.6063 -0.5513 0.2002
C9 C 0.1224(5) -0.2664(5) 0.0394(5)
H5 H 0.0613 -0.3064 -0.0034
C10 C 0.2181(5) -0.3173(5) 0.0932(5)
H6 H 0.2353 -0.3975 0.0951
C11 C 0.7854(4) -0.1666(5) -0.0107(4)
H7 H 0.7755 -0.1888 -0.0740
C12 C 0.6133(5) -0.2643(8) -0.0104(4)
C13 C 0.6901(8) -0.5008(6) 0.0683(8)
H8 H 0.7077 -0.4577 0.0195
H9 H 0.6544 -0.5740 0.0413
H10 H 0.7570 -0.5172 0.1224
C14 C 0.7583(8) -0.1472(12) 0.1185(5)
H11 H 0.7267 -0.1486 0.1661
C15 C 0.4854(8) -0.4735(6) 0.2942(7)
H12 H 0.4382 -0.4221 0.3140
H13 H 0.5526 -0.4880 0.3486
H14 H 0.4480 -0.5473 0.2716
C16 C 0.4633(7) -0.1321(6) 0.0674(5)
H15 H 0.4166 -0.1046 0.1010
H16 H 0.4213 -0.1353 -0.0012
H17 H 0.5246 -0.0787 0.0793
C17 C 0.8536(6) -0.0933(9) 0.1263(5)
H18 H 0.9014 -0.0559 0.1818
O5 O 0.0865(14) 0.1291(19) 0.1349(14)
O6 O 0.0960(15) 0.2357(18) 0.2549(17)
O7 O 0.0778(15) 0.062(2) 0.2663(16)
H20 H 0.627(7) -0.318(7) -0.069(6)
H21 H 0.553(5) -0.204(5) -0.058(5)
Cd1_2 Cd 1.0000 0.0000 0.0000
Cd1_3 Cd -1.0000 0.0000 0.0000
N1B N -0.7169(3) 0.1978(4) -0.0328(3)
N2B N -0.2857(3) 0.2284(4) -0.1450(3)
N3B N -0.0836(4) -0.1386(4) -0.2120(3)
C1B C -0.5062(4) 0.2541(4) -0.1034(4)
C2B C -0.4746(4) 0.3048(4) -0.1759(3)
N4B N -0.1272(3) 0.1466(4) -0.0562(3)
C3B C -0.5131(4) 0.4150(4) -0.2124(4)
C4B C -0.5764(4) 0.3158(5) -0.0679(4)
C5B C -0.3976(5) 0.2387(6) -0.2151(4)
H1B H -0.3956 0.2795 -0.2723
H2B H -0.4271 0.1599 -0.2348
C6B C -0.2260(4) 0.1293(5) -0.1205(4)
H3B H -0.2522 0.0553 -0.1466
C7B C -0.6136(4) 0.4278(5) -0.1022(4)
N5B N -0.8684(3) 0.1018(4) -0.0431(3)
N5_2 N -0.1316(3) -0.1018(4) 0.0431(3)
N5B_2 N 0.1316(3) 0.1018(4) -0.0431(3)
C8B C -0.5812(6) 0.4763(5) -0.1758(5)
H4B H -0.6063 0.5513 -0.2002
C9B C -0.1224(5) 0.2664(5) -0.0394(5)
H5B H -0.0613 0.3064 0.0034
C10B C -0.2181(5) 0.3173(5) -0.0932(5)
H6B H -0.2353 0.3975 -0.0951
C11B C -0.7854(4) 0.1666(5) 0.0107(4)
H7B H -0.7755 0.1888 0.0740
C12B C -0.6133(5) 0.2643(8) 0.0104(4)
C13B C -0.6901(8) 0.5008(6) -0.0683(8)
H8B H -0.7077 0.4577 -0.0195
H9B H -0.6544 0.5740 -0.0413
H10B H -0.7570 0.5172 -0.1224
C14B C -0.7583(8) 0.1472(12) -0.1185(5)
H11B H -0.7267 0.1486 -0.1661
C15B C -0.4854(8) 0.4735(6) -0.2942(7)
H12B H -0.4382 0.4221 -0.3140
H13B H -0.5526 0.4880 -0.3486
H14B H -0.4480 0.5473 -0.2716
C16B C -0.4633(7) 0.1321(6) -0.0674(5)
H15B H -0.4166 0.1046 -0.1010
H16B H -0.4213 0.1353 0.0012
H17B H -0.5246 0.0787 -0.0793
C17B C -0.8536(6) 0.0933(9) -0.1263(5)
H18B H -0.9014 0.0559 -0.1818
O5B O -0.0865(14) -0.1291(19) -0.1349(14)
O6B O -0.0960(15) -0.2357(18) -0.2549(17)
O7B O -0.0778(15) -0.062(2) -0.2663(16)
H20B H -0.627(7) 0.318(7) 0.069(6)
H21B H -0.553(5) 0.204(5) 0.058(5)
O1 O 0.2475(12) -0.6126(9) 0.1775(13)
O2? O 0.0762(11) 0.2298(9) 0.1590(11)
O3? O 0.0829(17) 0.144(2) 0.2914(8)
O4? O 0.0801(7) 0.0472(8) 0.1694(5)
O8? O 0.306(2) -0.180(3) -0.244(2)
H19? H 0.376(4) -0.153(4) -0.194(4)
loop_
_geom_bond_atom_site_label_1
_geom_bond_atom_site_label_2
_geom_bond_site_symmetry_1
_geom_bond_site_symmetry_2
Cd1 N4 1_555 1_555
N1 C11 1_555 1_555
N2 C5 1_555 1_555
N3 O5 1_555 1_555
C1 C2 1_555 1_555
C2 C3 1_555 1_555
N4 C6 1_555 1_555
C3 C8 1_555 1_555
C4 C1 1_555 1_555
C5 C2 1_555 1_555
H1 C5 1_555 1_555
H2 C5 1_555 1_555
C6 N2 1_555 1_555
H3 C6 1_555 1_555
C7 C4 1_555 1_555
N5 C11 1_555 1_555
C8 C7 1_555 1_555
H4 C8 1_555 1_555
C9 N4 1_555 1_555
H5 C9 1_555 1_555
C10 N2 1_555 1_555
H6 C10 1_555 1_555
C11 H7 1_555 1_555
C12 N1 1_555 1_555
C13 C7 1_555 1_555
H8 C13 1_555 1_555
H9 C13 1_555 1_555
H10 C13 1_555 1_555
C14 N1 1_555 1_555
H11 C14 1_555 1_555
C15 C3 1_555 1_555
H12 C15 1_555 1_555
H13 C15 1_555 1_555
H14 C15 1_555 1_555
C16 C1 1_555 1_555
H15 C16 1_555 1_555
H16 C16 1_555 1_555
H17 C16 1_555 1_555
C17 N5 1_555 1_555
H18 C17 1_555 1_555
O5 Cd1 1_555 1_555
O6 N3 1_555 1_555
O7 N3 1_555 1_555
H20 C12 1_555 1_555
H21 C12 1_555 1_555
Cd1_2 N5 1_555 1_555
Cd1_3 N5B 1_555 1_555
N1B C11B 1_555 1_555
N2B C5B 1_555 1_555
N3B O5B 1_555 1_555
C1B C2B 1_555 1_555
C2B C3B 1_555 1_555
N4B Cd1 1_555 1_555
C3B C8B 1_555 1_555
C4B C1B 1_555 1_555
C5B C2B 1_555 1_555
H1B C5B 1_555 1_555
H2B C5B 1_555 1_555
C6B N2B 1_555 1_555
H3B C6B 1_555 1_555
C7B C4B 1_555 1_555
N5B C11B 1_555 1_555
N5_2 Cd1 1_555 1_555
N5B_2 Cd1 1_555 1_555
C8B C7B 1_555 1_555
H4B C8B 1_555 1_555
C9B N4B 1_555 1_555
H5B C9B 1_555 1_555
C10B N2B 1_555 1_555
H6B C10B 1_555 1_555
C11B H7B 1_555 1_555
C12B N1B 1_555 1_555
C13B C7B 1_555 1_555
H8B C13B 1_555 1_555
H9B C13B 1_555 1_555
H10B C13B 1_555 1_555
C14B N1B 1_555 1_555
H11B C14B 1_555 1_555
C15B C3B 1_555 1_555
H12B C15B 1_555 1_555
H13B C15B 1_555 1_555
H14B C15B 1_555 1_555
C16B C1B 1_555 1_555
H15B C16B 1_555 1_555
H16B C16B 1_555 1_555
H17B C16B 1_555 1_555
C17B N5B 1_555 1_555
H18B C17B 1_555 1_555
O5B Cd1 1_555 1_555
O6B N3B 1_555 1_555
O7B N3B 1_555 1_555
H20B C12B 1_555 1_555
H21B C12B 1_555 1_555
C4 C12 1_555 1_555
C9 C10 1_555 1_555
C14 C17 1_555 1_555
N4B C6B 1_555 1_555
C4B C12B 1_555 1_555
C9B C10B 1_555 1_555
C14B C17B 1_555 1_555

#END
