
#######################################################################
#
#                 Cambridge Crystallographic Data Centre
#                                CCDC 
#
#######################################################################
#
# If this CIF has been generated from an entry in the Cambridge 
# Structural Database, then it will include bibliographic, chemical, 
# crystal, experimental, refinement or atomic coordinate data resulting 
# from the CCDC's data processing and validation procedures.
#
#######################################################################

data_FAVHER
_symmetry_cell_setting           monoclinic
_symmetry_space_group_name_H-M   'P 2/n'
_symmetry_Int_Tables_number      13
_space_group_name_Hall           '-P 2yac'
loop_
_symmetry_equiv_pos_site_id
_symmetry_equiv_pos_as_xyz
1 x,y,z
2 1/2-x,y,1/2-z
3 -x,-y,-z
4 1/2+x,-y,1/2+z
_cell_length_a                   14.1404(8)
_cell_length_b                   8.9384(5)
_cell_length_c                   15.9319(9)
_cell_angle_alpha                90
_cell_angle_beta                 111.3850(10)
_cell_angle_gamma                90
_cell_volume                     1875.03
loop_
_atom_site_label
_atom_site_type_symbol
_atom_site_fract_x
_atom_site_fract_y
_atom_site_fract_z
O1 O -0.09841(12) 0.50896(18) -0.23103(11)
O2 O -0.10248(14) -0.14404(19) -0.25474(13)
Cd1 Cd -0.205480(10) -0.329750(14) -0.327660(8)
N1 N -0.16908(13) -0.34559(18) -0.45256(11)
O3 O -0.17279(12) 0.49655(18) -0.12958(12)
O4 O -0.17134(14) -0.15874(17) -0.15077(12)
C1 C -0.08040(16) -0.3448(2) -0.54620(14)
N2 N -0.16651(12) -0.43344(19) -0.58262(10)
C2 C -0.00745(17) -0.1933(2) -0.41269(15)
H1 H -0.0103 -0.1535 -0.3597
C3 C -0.19974(17) -0.5155(2) -0.66799(13)
H2 H -0.2474 -0.5927 -0.6665
H3 H -0.1414 -0.5646 -0.6742
C4 C -0.11613(15) -0.0970(2) -0.18564(14)
C5 C -0.01716(15) 0.3649(2) -0.09801(13)
H4 H 0.0337 0.4328 -0.0578
C6 C -0.10422(15) 0.4630(2) -0.15864(14)
C7 C -0.05757(14) 0.0421(2) -0.13916(13)
H5 H 0.0056 0.0070 -0.0928
C8 C -0.11443(16) 0.1301(2) -0.09086(14)
H6 H -0.1314 0.0644 -0.0500
H7 H -0.1773 0.1683 -0.1347
C9 C 0.00029(17) -0.3131(2) -0.57452(15)
H8 H 0.0023 -0.3526 -0.6279
C10 C 0.03634(15) 0.2752(2) -0.14926(15)
H9 H 0.1001 0.2372 -0.1068
H10 H 0.0518 0.3411 -0.1909
C11 C -0.2500 -0.4161(3) -0.7500
H11 H -0.1995 -0.3526 -0.7600
C12 C 0.07239(17) -0.1587(2) -0.44013(16)
C13 C -0.21495(15) -0.4299(2) -0.52365(13)
H12 H -0.2748 -0.4819 -0.5323
C14 C -0.05037(17) 0.2608(2) -0.03771(13)
H13 H -0.0895 0.3173 -0.0097
H14 H 0.0093 0.2219 0.0098
C15 C -0.02734(18) 0.1444(2) -0.20167(15)
H15 H -0.0879 0.1823 -0.2486
H16 H 0.0113 0.0880 -0.2302
C16 C 0.07681(16) -0.2212(3) -0.52046(15)
C17 C -0.08328(15) -0.2888(2) -0.46614(13)
C18 C 0.15498(19) -0.0552(3) -0.38217(19)
H17 H 0.1384 -0.0212 -0.3320
H18 H 0.1605 0.0292 -0.4174
H19 H 0.2185 -0.1079 -0.3603
C19 C 0.1666(2) -0.1878(3) -0.5479(2)
H20 H 0.1669 -0.2565 -0.5941
H21 H 0.2285 -0.1984 -0.4965
H22 H 0.1614 -0.0873 -0.5704
O1_2 O -0.09841(12) -0.49104(18) -0.23103(11)
O1A O -0.40159(12) -0.49104(18) -0.26897(11)
O1A_2 O -0.40159(12) 0.50896(18) -0.26897(11)
O2A O -0.39752(14) -0.14404(19) -0.24526(13)
Cd1_2 Cd -0.205480(10) 0.670250(14) -0.327660(8)
Cd1A Cd -0.294520(10) -0.329750(14) -0.172340(8)
Cd1A_2 Cd -0.294520(10) -0.329750(14) -1.172340(8)
Cd1A_3 Cd -0.294520(10) 0.670250(14) -0.172340(8)
N1A N -0.33092(13) -0.34559(18) -1.04744(11)
N1A_2 N -0.33092(13) -0.34559(18) -0.04744(11)
O3_2 O -0.17279(12) -0.50345(18) -0.12958(12)
O3A O -0.32721(12) -0.50345(18) -0.37042(12)
O3A_2 O -0.32721(12) 0.49655(18) -0.37042(12)
O4A O -0.32866(14) -0.15874(17) -0.34923(12)
C1A C -0.41960(16) -0.3448(2) -0.95380(14)
N2A N -0.33349(12) -0.43344(19) -0.91738(10)
C2A C -0.49255(17) -0.1933(2) -1.08731(15)
H1A H -0.4897 -0.1535 -1.1403
C3A C -0.30026(17) -0.5155(2) -0.83201(13)
H2A H -0.2526 -0.5927 -0.8335
H3A H -0.3586 -0.5646 -0.8258
C4A C -0.38387(15) -0.0970(2) -0.31436(14)
C5A C -0.48284(15) 0.3649(2) -0.40199(13)
H4A H -0.5337 0.4328 -0.4422
C6A C -0.39578(15) 0.4630(2) -0.34136(14)
C7A C -0.44243(14) 0.0421(2) -0.36084(13)
H5A H -0.5056 0.0070 -0.4072
C8A C -0.38557(16) 0.1301(2) -0.40914(14)
H6A H -0.3686 0.0644 -0.4500
H7A H -0.3227 0.1683 -0.3653
C9A C -0.50029(17) -0.3131(2) -0.92548(15)
H8A H -0.5023 -0.3526 -0.8721
C10A C -0.53634(15) 0.2752(2) -0.35074(15)
H9A H -0.6001 0.2372 -0.3932
H10A H -0.5518 0.3411 -0.3091
H11A H -0.3005 -0.3526 -0.7400
C12A C -0.57239(17) -0.1587(2) -1.05987(16)
C13A C -0.28505(15) -0.4299(2) -0.97635(13)
H12A H -0.2252 -0.4819 -0.9677
C14A C -0.44963(17) 0.2608(2) -0.46229(13)
H13A H -0.4105 0.3173 -0.4903
H14A H -0.5093 0.2219 -0.5098
C15A C -0.47266(18) 0.1444(2) -0.29833(15)
H15A H -0.4121 0.1823 -0.2514
H16A H -0.5113 0.0880 -0.2698
C16A C -0.57681(16) -0.2212(3) -0.97954(15)
C17A C -0.41672(15) -0.2888(2) -1.03386(13)
C18A C -0.65498(19) -0.0552(3) -1.11783(19)
H17A H -0.6384 -0.0212 -1.1680
H18A H -0.6605 0.0292 -1.0826
H19A H -0.7185 -0.1079 -1.1397
C19A C -0.6666(2) -0.1878(3) -0.9521(2)
H20A H -0.6669 -0.2565 -0.9059
H21A H -0.7285 -0.1984 -1.0035
H22A H -0.6614 -0.0873 -0.9296
O5 O -0.59248(18) -0.3238(3) -0.3204(2)
H23 H -0.5423 -0.3843 -0.3064
H24 H -0.5636 -0.2384 -0.3155
loop_
_geom_bond_atom_site_label_1
_geom_bond_atom_site_label_2
_geom_bond_site_symmetry_1
_geom_bond_site_symmetry_2
O1 C6 1_555 1_555
O2 Cd1 1_555 1_555
Cd1 N1 1_555 1_555
N1 C13 1_555 1_555
O3 C6 1_555 1_555
O4 C4 1_555 1_555
C1 N2 1_555 1_555
N2 C3 1_555 1_555
C2 H1 1_555 1_555
C3 H2 1_555 1_555
H3 C3 1_555 1_555
C4 O2 1_555 1_555
C5 H4 1_555 1_555
C6 C5 1_555 1_555
C7 C4 1_555 1_555
H5 C7 1_555 1_555
C8 C7 1_555 1_555
H6 C8 1_555 1_555
H7 C8 1_555 1_555
C9 C1 1_555 1_555
H8 C9 1_555 1_555
C10 C5 1_555 1_555
H9 C10 1_555 1_555
H10 C10 1_555 1_555
C11 C3 1_555 1_555
H11 C11 1_555 1_555
C12 C2 1_555 1_555
C13 N2 1_555 1_555
H12 C13 1_555 1_555
C14 C5 1_555 1_555
H13 C14 1_555 1_555
H14 C14 1_555 1_555
C15 C7 1_555 1_555
H15 C15 1_555 1_555
H16 C15 1_555 1_555
C16 C9 1_555 1_555
C17 N1 1_555 1_555
O5 H23 1_555 1_555
C18 C12 1_555 1_555
H17 C18 1_555 1_555
H18 C18 1_555 1_555
H19 C18 1_555 1_555
C19 C16 1_555 1_555
H20 C19 1_555 1_555
H21 C19 1_555 1_555
H22 C19 1_555 1_555
H24 O5 1_555 1_555
O1_2 Cd1 1_555 1_555
O1A Cd1A 1_555 1_555
O1A_2 Cd1A_3 1_555 1_555
O2A Cd1A 1_555 1_555
Cd1_2 O1 1_555 1_555
Cd1A O4 1_555 1_555
Cd1A_2 N1A 1_555 1_555
Cd1A_3 O3 1_555 1_555
N1A C13A 1_555 1_555
N1A_2 Cd1A 1_555 1_555
O3_2 Cd1A 1_555 1_555
O3A Cd1 1_555 1_555
O3A_2 Cd1_2 1_555 1_555
O4A Cd1 1_555 1_555
C1A N2A 1_555 1_555
N2A C3A 1_555 1_555
C2A H1A 1_555 1_555
C3A C11 1_555 1_555
H2A C3A 1_555 1_555
H3A C3A 1_555 1_555
C4A O2A 1_555 1_555
C5A H4A 1_555 1_555
C6A O1A_2 1_555 1_555
C7A C4A 1_555 1_555
H5A C7A 1_555 1_555
C8A C7A 1_555 1_555
H6A C8A 1_555 1_555
H7A C8A 1_555 1_555
C9A C1A 1_555 1_555
H8A C9A 1_555 1_555
C10A C5A 1_555 1_555
H9A C10A 1_555 1_555
H10A C10A 1_555 1_555
H11A C11 1_555 1_555
C12A C2A 1_555 1_555
C13A N2A 1_555 1_555
H12A C13A 1_555 1_555
C14A C5A 1_555 1_555
H13A C14A 1_555 1_555
H14A C14A 1_555 1_555
C15A C7A 1_555 1_555
H15A C15A 1_555 1_555
H16A C15A 1_555 1_555
C16A C9A 1_555 1_555
C17A N1A 1_555 1_555
C18A C12A 1_555 1_555
H17A C18A 1_555 1_555
H18A C18A 1_555 1_555
H19A C18A 1_555 1_555
C19A C16A 1_555 1_555
H20A C19A 1_555 1_555
H21A C19A 1_555 1_555
H22A C19A 1_555 1_555
C1 C17 1_555 1_555
C2 C17 1_555 1_555
C8 C14 1_555 1_555
C10 C15 1_555 1_555
C12 C16 1_555 1_555
O3A_2 C6A 1_555 1_555
O4A C4A 1_555 1_555
C1A C17A 1_555 1_555
C2A C17A 1_555 1_555
C5A C6A 1_555 1_555
C8A C14A 1_555 1_555
C10A C15A 1_555 1_555
C12A C16A 1_555 1_555

#END
