
#######################################################################
#
#                 Cambridge Crystallographic Data Centre
#                                CCDC 
#
#######################################################################
#
# If this CIF has been generated from an entry in the Cambridge 
# Structural Database, then it will include bibliographic, chemical, 
# crystal, experimental, refinement or atomic coordinate data resulting 
# from the CCDC's data processing and validation procedures.
#
#######################################################################

data_FAVHAN
_symmetry_cell_setting           monoclinic
_symmetry_space_group_name_H-M   'P 21/c'
_symmetry_Int_Tables_number      14
_space_group_name_Hall           '-P 2ybc'
loop_
_symmetry_equiv_pos_site_id
_symmetry_equiv_pos_as_xyz
1 x,y,z
2 -x,1/2+y,1/2-z
3 -x,-y,-z
4 x,1/2-y,1/2+z
_cell_length_a                   9.4479(6)
_cell_length_b                   15.7715(10)
_cell_length_c                   14.6710(9)
_cell_angle_alpha                90
_cell_angle_beta                 102.9510(10)
_cell_angle_gamma                90
_cell_volume                     2130.48
loop_
_atom_site_label
_atom_site_type_symbol
_atom_site_fract_x
_atom_site_fract_y
_atom_site_fract_z
Cd1 Cd 0.11241(3) 1.076848(16) 0.751147(18)
Cl1 Cl 0.05324(13) 1.22479(6) 0.72104(8)
Cl2 Cl -0.00381(12) 0.98784(8) 0.84567(8)
N1 N 0.6489(3) 0.58662(17) 0.6790(2)
C1 C 0.1822(4) 0.9085(2) 0.5192(2)
N2 N 0.4384(3) 0.63657(17) 0.5971(2)
C2 C 0.5789(4) 0.4319(2) 0.6614(3)
H1 H 0.6676 0.4112 0.6947
C3 C 0.4255(4) 0.5488(2) 0.5961(2)
N3 N 0.1180(3) 0.85562(17) 0.5736(2)
N4 N 0.1227(3) 0.98318(17) 0.63740(19)
C4 C 0.1871(4) 0.9883(2) 0.5608(2)
C5 C 0.2364(4) 0.8946(2) 0.4396(2)
H2 H 0.2325 0.8411 0.4125
C6 C 0.2450(4) 1.0572(2) 0.5224(3)
H3 H 0.2470 1.1108 0.5491
C7 C 0.0836(4) 0.9035(2) 0.6411(2)
H4 H 0.0370 0.8825 0.6858
C8 C 0.5573(4) 0.5183(2) 0.6474(2)
C9 C 0.4660(4) 0.3773(2) 0.6250(2)
C10 C 0.2997(4) 1.0441(2) 0.4434(3)
C11 C 0.5727(4) 0.6540(2) 0.6474(3)
H5 H 0.6081 0.7089 0.6586
C12 C 0.2963(4) 0.9631(2) 0.4019(2)
C13 C 0.3341(4) 0.4094(2) 0.5715(3)
C14 C 0.3123(4) 0.4947(2) 0.5564(2)
H6 H 0.2252 0.5155 0.5209
C15 C 0.0830(4) 0.7651(2) 0.5587(3)
H7 H 0.0588 0.7541 0.4920
H8 H -0.0026 0.7528 0.5826
C16 C 0.3264(4) 0.6980(2) 0.5536(3)
H9 H 0.2866 0.6810 0.4894
H10 H 0.3712 0.7532 0.5524
C17 C 0.4858(5) 0.2826(2) 0.6423(3)
H11 H 0.5817 0.2719 0.6791
H12 H 0.4730 0.2535 0.5835
H13 H 0.4153 0.2626 0.6753
C18 C 0.2095(4) 0.3496(3) 0.5315(3)
H14 H 0.1295 0.3814 0.4957
H15 H 0.1793 0.3210 0.5817
H16 H 0.2410 0.3086 0.4919
C19 C 0.2035(4) 0.7053(2) 0.6045(3)
H17 H 0.1623 0.6494 0.6084
H18 H 0.2432 0.7246 0.6679
C20 C 0.3582(5) 0.9500(3) 0.3166(3)
H19 H 0.3497 0.8913 0.2988
H20 H 0.4587 0.9662 0.3307
H21 H 0.3056 0.9842 0.2661
C21 C 0.3631(6) 1.1181(3) 0.4005(3)
H22 H 0.3603 1.1680 0.4376
H23 H 0.3073 1.1276 0.3381
H24 H 0.4619 1.1057 0.3986
Cd1A Cd 0.88759(3) 0.576848(16) 0.748853(18)
N1A N 0.3511(3) 1.08662(17) 0.8210(2)
loop_
_geom_bond_atom_site_label_1
_geom_bond_atom_site_label_2
_geom_bond_site_symmetry_1
_geom_bond_site_symmetry_2
Cd1 Cl1 1_555 1_555
Cl2 Cd1 1_555 1_555
N1 C8 1_555 1_555
C1 N3 1_555 1_555
N2 C3 1_555 1_555
C2 H1 1_555 1_555
C3 C8 1_555 1_555
N3 C7 1_555 1_555
N4 Cd1 1_555 1_555
C4 C1 1_555 1_555
C5 C1 1_555 1_555
H2 C5 1_555 1_555
C6 C4 1_555 1_555
H3 C6 1_555 1_555
C7 N4 1_555 1_555
H4 C7 1_555 1_555
C8 C2 1_555 1_555
C9 C2 1_555 1_555
C10 C6 1_555 1_555
C11 N1 1_555 1_555
H5 C11 1_555 1_555
C12 C5 1_555 1_555
C13 C9 1_555 1_555
C14 C3 1_555 1_555
H6 C14 1_555 1_555
C15 N3 1_555 1_555
H7 C15 1_555 1_555
H8 C15 1_555 1_555
C16 N2 1_555 1_555
H9 C16 1_555 1_555
H10 C16 1_555 1_555
C17 C9 1_555 1_555
H11 C17 1_555 1_555
H12 C17 1_555 1_555
H13 C17 1_555 1_555
C18 C13 1_555 1_555
H14 C18 1_555 1_555
H15 C18 1_555 1_555
H16 C18 1_555 1_555
C19 C15 1_555 1_555
H17 C19 1_555 1_555
H18 C19 1_555 1_555
C20 C12 1_555 1_555
H19 C20 1_555 1_555
H20 C20 1_555 1_555
H21 C20 1_555 1_555
C21 C10 1_555 1_555
H22 C21 1_555 1_555
H23 C21 1_555 1_555
H24 C21 1_555 1_555
Cd1A N1 1_555 1_555
N1A Cd1 1_555 1_555
N2 C11 1_555 1_555
N4 C4 1_555 1_555
C10 C12 1_555 1_555
C13 C14 1_555 1_555
C16 C19 1_555 1_555

#END
