
#######################################################################
#
#                 Cambridge Crystallographic Data Centre
#                                CCDC 
#
#######################################################################
#
# If this CIF has been generated from an entry in the Cambridge 
# Structural Database, then it will include bibliographic, chemical, 
# crystal, experimental, refinement or atomic coordinate data resulting 
# from the CCDC's data processing and validation procedures.
#
#######################################################################

data_FAVHIV
_symmetry_cell_setting           triclinic
_symmetry_space_group_name_H-M   'P -1'
_symmetry_Int_Tables_number      2
_space_group_name_Hall           '-P 1'
loop_
_symmetry_equiv_pos_site_id
_symmetry_equiv_pos_as_xyz
1 x,y,z
2 -x,-y,-z
_cell_length_a                   9.5898(6)
_cell_length_b                   10.5907(7)
_cell_length_c                   12.0629(12)
_cell_angle_alpha                109.8100(9)
_cell_angle_beta                 96.5740(10)
_cell_angle_gamma                116.6000(10)
_cell_volume                     977.662
loop_
_atom_site_label
_atom_site_type_symbol
_atom_site_fract_x
_atom_site_fract_y
_atom_site_fract_z
Cd1 Cd -0.00854(2) 0.33972(2) 0.058347(16)
O1 O 0.1700(2) 0.5935(2) 0.04968(17)
O2 O -0.0041(2) 0.1889(2) -0.13773(18)
N1 N -0.0251(3) 0.4803(3) 0.2433(2)
O3 O -0.2665(2) 0.1110(2) 0.00087(18)
O4 O 0.0426(2) 0.1748(2) 0.1361(2)
C1 C 0.3851(3) 0.5581(3) 0.1209(2)
N2 N 0.2706(2) 0.4249(2) 0.11956(18)
O5 O 0.2257(2) 0.1091(2) 0.1832(2)
O6 O 0.4285(2) 0.7719(2) 0.0777(2)
C2 C 0.3180(3) 0.3370(3) 0.1513(2)
C3 C 0.3245(3) 0.6502(3) 0.0804(2)
N3 N 0.0098(3) 0.6891(3) 0.4022(2)
C4 C 0.1835(3) 0.1937(3) 0.1564(2)
C5 C -0.1266(3) 0.4282(3) 0.3132(2)
C6 C 0.0517(4) 0.6350(3) 0.3008(3)
H1 H 0.1273 0.7006 0.2741
C7 C 0.4804(3) 0.3767(3) 0.1817(3)
H2 H 0.5097 0.3116 0.1999
C8 C -0.3307(4) 0.2576(4) 0.3743(2)
C9 C -0.2367(3) 0.2775(3) 0.2954(2)
H3 H -0.2476 0.1908 0.2314
C10 C 0.5972(3) 0.5146(3) 0.1842(3)
H4 H 0.7074 0.5447 0.2053
C11 C -0.1994(4) 0.5408(4) 0.4913(3)
H5 H -0.1854 0.6281 0.5567
C12 C -0.1060(3) 0.5590(3) 0.4119(2)
C13 C -0.3132(4) 0.3913(4) 0.4715(3)
C14 C 0.0758(4) 0.8561(3) 0.4842(3)
H6 H 0.1801 0.9195 0.4747
H7 H 0.0965 0.8717 0.5698
C15 C -0.0382(4) 0.9126(3) 0.4575(3)
H8 H -0.1414 0.8523 0.4698
H9 H -0.0613 0.8952 0.3715
C16 C 0.5508(3) 0.6083(3) 0.1552(3)
H10 H 0.6291 0.7032 0.1587
C17 C -0.4552(4) 0.0947(4) 0.3534(3)
H11 H -0.5638 0.0763 0.3279
H12 H -0.4377 0.0846 0.4291
H13 H -0.4438 0.0192 0.2899
C18 C -0.4239(5) 0.3672(5) 0.5518(3)
H14 H -0.3956 0.4674 0.6142
H15 H -0.4100 0.3065 0.5909
H16 H -0.5364 0.3122 0.5010
H17 H -0.0757 0.0936 -0.1577
H18 H 0.0770 0.1752 -0.1351
H19 H -0.2780 0.0342 -0.0617
H20 H -0.3333 0.1315 -0.0299
Cd1A Cd 0.00854(2) 0.66028(2) -0.058347(16)
Cd1A_2 Cd 0.00854(2) 1.66028(2) 0.941653(16)
O1A O -0.1700(2) 0.4065(2) -0.04968(17)
O2A O 0.0041(2) 0.8111(2) 0.13773(18)
N1A N 0.0251(3) 1.5197(3) 0.7567(2)
N1A_2 N 0.0251(3) 0.5197(3) -0.2433(2)
O3A O 0.2665(2) 0.8890(2) -0.00087(18)
O4A O -0.0426(2) 0.8252(2) -0.1361(2)
C1A C -0.3851(3) 0.4419(3) -0.1209(2)
N2A N -0.2706(2) 0.5751(2) -0.11956(18)
O5A O -0.2257(2) 0.8909(2) -0.1832(2)
O6A O -0.4285(2) 0.2281(2) -0.0777(2)
C2A C -0.3180(3) 0.6630(3) -0.1513(2)
C3A C -0.3245(3) 0.3498(3) -0.0804(2)
N3A N -0.0098(3) 1.3109(3) 0.5978(2)
C4A C -0.1835(3) 0.8063(3) -0.1564(2)
C5A C 0.1266(3) 1.5718(3) 0.6868(2)
C6A C -0.0517(4) 1.3650(3) 0.6992(3)
H1A H -0.1273 1.2994 0.7259
C7A C -0.4804(3) 0.6233(3) -0.1817(3)
H2A H -0.5097 0.6884 -0.1999
C8A C 0.3307(4) 1.7424(4) 0.6257(2)
C9A C 0.2367(3) 1.7225(3) 0.7046(2)
H3A H 0.2476 1.8092 0.7686
C10A C -0.5972(3) 0.4854(3) -0.1842(3)
H4A H -0.7074 0.4553 -0.2053
C11A C 0.1994(4) 1.4592(4) 0.5087(3)
H5A H 0.1854 1.3719 0.4433
C12A C 0.1060(3) 1.4410(3) 0.5881(2)
C13A C 0.3132(4) 1.6087(4) 0.5285(3)
C14A C -0.0758(4) 1.1439(3) 0.5158(3)
H6A H -0.1801 1.0805 0.5253
H7A H -0.0965 1.1283 0.4302
C15A C 0.0382(4) 1.0874(3) 0.5425(3)
H8A H 0.1414 1.1477 0.5302
H9A H 0.0613 1.1048 0.6285
C16A C -0.5508(3) 0.3917(3) -0.1552(3)
H10A H -0.6291 0.2968 -0.1587
C17A C 0.4552(4) 1.9053(4) 0.6466(3)
H11A H 0.5638 1.9237 0.6721
H12A H 0.4377 1.9154 0.5709
H13A H 0.4438 1.9808 0.7101
C18A C 0.4239(5) 1.6328(5) 0.4482(3)
H14A H 0.3956 1.5326 0.3858
H15A H 0.4100 1.6935 0.4091
H16A H 0.5364 1.6878 0.4990
H17A H 0.0757 0.9064 0.1577
H18A H -0.0770 0.8248 0.1351
H19A H 0.2780 0.9658 0.0617
H20A H 0.3333 0.8685 0.0299
O7 O 0.7931(3) 0.9283(3) 0.1507(3)
H21 H 0.8513 1.0181 0.1526
H22 H 0.6891 0.8844 0.1294
loop_
_geom_bond_atom_site_label_1
_geom_bond_atom_site_label_2
_geom_bond_site_symmetry_1
_geom_bond_site_symmetry_2
Cd1 O1 1_555 1_555
O1 C3 1_555 1_555
O2 Cd1 1_555 1_555
N1 Cd1 1_555 1_555
O3 Cd1 1_555 1_555
O4 Cd1 1_555 1_555
C1 N2 1_555 1_555
N2 Cd1 1_555 1_555
O5 C4 1_555 1_555
O6 C3 1_555 1_555
C2 N2 1_555 1_555
C3 C1 1_555 1_555
N3 C6 1_555 1_555
C4 O4 1_555 1_555
C5 N1 1_555 1_555
C6 N1 1_555 1_555
H1 C6 1_555 1_555
C7 C2 1_555 1_555
H2 C7 1_555 1_555
C8 C9 1_555 1_555
C9 C5 1_555 1_555
H3 C9 1_555 1_555
C10 C7 1_555 1_555
H4 C10 1_555 1_555
C11 H5 1_555 1_555
C12 N3 1_555 1_555
C13 C8 1_555 1_555
C14 N3 1_555 1_555
H6 C14 1_555 1_555
H7 C14 1_555 1_555
C15 C14 1_555 1_555
H8 C15 1_555 1_555
H9 C15 1_555 1_555
C16 C1 1_555 1_555
H10 C16 1_555 1_555
O7 H21 1_555 1_555
C17 C8 1_555 1_555
H11 C17 1_555 1_555
H12 C17 1_555 1_555
H13 C17 1_555 1_555
C18 C13 1_555 1_555
H14 C18 1_555 1_555
H15 C18 1_555 1_555
H16 C18 1_555 1_555
H17 O2 1_555 1_555
H18 O2 1_555 1_555
H19 O3 1_555 1_555
H20 O3 1_555 1_555
H22 O7 1_555 1_555
Cd1A O1 1_555 1_555
Cd1A_2 N1A 1_555 1_555
O1A Cd1 1_555 1_555
O2A Cd1A 1_555 1_555
N1A C5A 1_555 1_555
N1A_2 Cd1A 1_555 1_555
O3A Cd1A 1_555 1_555
O4A Cd1A 1_555 1_555
C1A N2A 1_555 1_555
N2A Cd1A 1_555 1_555
O5A C4A 1_555 1_555
O6A C3A 1_555 1_555
C2A N2A 1_555 1_555
C3A O1A 1_555 1_555
N3A C6A 1_555 1_555
C4A O4A 1_555 1_555
C5A C9A 1_555 1_555
C6A N1A 1_555 1_555
H1A C6A 1_555 1_555
C7A C2A 1_555 1_555
H2A C7A 1_555 1_555
C8A C9A 1_555 1_555
C9A H3A 1_555 1_555
C10A C7A 1_555 1_555
H4A C10A 1_555 1_555
C11A H5A 1_555 1_555
C12A N3A 1_555 1_555
C13A C8A 1_555 1_555
C14A N3A 1_555 1_555
H6A C14A 1_555 1_555
H7A C14A 1_555 1_555
C15A C15 1_555 1_555
H8A C15A 1_555 1_555
H9A C15A 1_555 1_555
C16A C1A 1_555 1_555
H10A C16A 1_555 1_555
C17A C8A 1_555 1_555
H11A C17A 1_555 1_555
H12A C17A 1_555 1_555
H13A C17A 1_555 1_555
C18A C13A 1_555 1_555
H14A C18A 1_555 1_555
H15A C18A 1_555 1_555
H16A C18A 1_555 1_555
H17A O2A 1_555 1_555
H18A O2A 1_555 1_555
H19A O3A 1_555 1_555
H20A O3A 1_555 1_555
C2 C4 1_555 1_555
C5 C12 1_555 1_555
C10 C16 1_555 1_555
C11 C12 1_555 1_555
C11 C13 1_555 1_555
Cd1A O1A 1_555 1_555
C1A C3A 1_555 1_555
C2A C4A 1_555 1_555
C5A C12A 1_555 1_555
C10A C16A 1_555 1_555
C11A C12A 1_555 1_555
C11A C13A 1_555 1_555
C14A C15A 1_555 1_555

#END
