
#######################################################################
#
#                 Cambridge Crystallographic Data Centre
#                                CCDC 
#
#######################################################################
#
# If this CIF has been generated from an entry in the Cambridge 
# Structural Database, then it will include bibliographic, chemical, 
# crystal, experimental, refinement or atomic coordinate data resulting 
# from the CCDC's data processing and validation procedures.
#
#######################################################################

data_FAVJET
_symmetry_cell_setting           monoclinic
_symmetry_space_group_name_H-M   'P 21/c'
_symmetry_Int_Tables_number      14
_space_group_name_Hall           '-P 2ybc'
loop_
_symmetry_equiv_pos_site_id
_symmetry_equiv_pos_as_xyz
1 x,y,z
2 -x,1/2+y,1/2-z
3 -x,-y,-z
4 x,1/2-y,1/2+z
_cell_length_a                   14.903(3)
_cell_length_b                   9.371(2)
_cell_length_c                   10.282(2)
_cell_angle_alpha                90
_cell_angle_beta                 103.16(3)
_cell_angle_gamma                90
_cell_volume                     1398.23
loop_
_atom_site_label
_atom_site_type_symbol
_atom_site_fract_x
_atom_site_fract_y
_atom_site_fract_z
Zn1 Zn 0.20127(2) 1.18778(3) 0.75517(3)
N1 N 0.30056(14) 0.7921(2) 0.7962(2)
N2 N 0.25306(14) 0.7004(2) 0.7004(2)
C1 C 0.3002(2) 0.5767(3) 0.6697(2)
H1 H 0.2699 0.5415 0.5832
H2 H 0.2995 0.5044 0.7356
H3 H 0.3627 0.6011 0.6698
C2 C 0.1230(2) 0.7066(3) 0.4985(3)
H4 H 0.0654 0.7570 0.4786
H5 H 0.1123 0.6083 0.5163
H6 H 0.1512 0.7128 0.4235
C3 C 0.1849(2) 0.7711(3) 0.6173(2)
C4 C 0.1855(2) 0.9041(3) 0.6619(2)
C5 C 0.2585(2) 0.9180(3) 0.7764(2)
N3 N 0.12927(14) 1.0218(2) 0.6171(2)
H7 H 0.07127 1.0080 0.6263
H8 H 0.12836 1.0429 0.5314
O1 O 0.28016(12) 1.0220(2) 0.8502(2)
O2 O 0.09547(14) 1.1542(2) 0.8683(2)
H9 H 0.0463 1.1180 0.8330
H10 H 0.1022 1.1580 0.9493
C6 C 0.3715(2) 0.7489(3) 0.9074(2)
C7 C 0.3592(2) 0.6325(3) 0.9795(2)
H11 H 0.3053 0.5793 0.9563
C8 C 0.4282(2) 0.5943(3) 1.0882(2)
H12 H 0.4207 0.5135 1.1372
C9 C 0.50740(12) 0.6731(2) 1.1251(2)
H13 H 0.55292 0.6465 1.1990
C10 C 0.51885(12) 0.7897(2) 1.0533(2)
H14 H 0.57211 0.8443 1.0783
C11 C 0.4512(2) 0.8279(3) 0.9424(3)
H15 H 0.4596 0.9069 0.8917
N4 N 0.26144(15) 1.3253(2) 0.9047(2)
N5 N 0.27956(14) 1.2997(2) 1.0200(2)
N6 N 0.29964(15) 1.2787(2) 1.1354(2)
N7 N 0.1121(2) 1.3424(2) 0.6481(2)
N8 N 0.08436(14) 1.4224(2) 0.7174(2)
N9 N 0.0577(2) 1.5017(3) 0.7860(2)
Zn1C Zn 0.20127(2) 1.31222(3) 1.25517(3)
N6C N 0.29964(15) 1.2213(2) 0.6354(2)
loop_
_geom_bond_atom_site_label_1
_geom_bond_atom_site_label_2
_geom_bond_site_symmetry_1
_geom_bond_site_symmetry_2
Zn1 N3 1_555 1_555
N1 N2 1_555 1_555
N2 C1 1_555 1_555
C1 H1 1_555 1_555
H2 C1 1_555 1_555
H3 C1 1_555 1_555
C2 H4 1_555 1_555
H5 C2 1_555 1_555
H6 C2 1_555 1_555
C3 N2 1_555 1_555
C4 C3 1_555 1_555
C5 N1 1_555 1_555
N3 C4 1_555 1_555
H7 N3 1_555 1_555
H8 N3 1_555 1_555
O1 Zn1 1_555 1_555
O2 Zn1 1_555 1_555
H9 O2 1_555 1_555
H10 O2 1_555 1_555
C6 N1 1_555 1_555
C7 C6 1_555 1_555
H11 C7 1_555 1_555
C8 C7 1_555 1_555
H12 C8 1_555 1_555
C9 C8 1_555 1_555
H13 C9 1_555 1_555
C10 C9 1_555 1_555
H14 C10 1_555 1_555
C11 C6 1_555 1_555
H15 C11 1_555 1_555
N4 Zn1 1_555 1_555
N5 N4 1_555 1_555
N6 N5 1_555 1_555
N7 Zn1 1_555 1_555
N8 N7 1_555 1_555
N9 N8 1_555 1_555
Zn1C N6 1_555 1_555
N6C Zn1 1_555 1_555
C2 C3 1_555 1_555
C4 C5 1_555 1_555
C5 O1 1_555 1_555
C10 C11 1_555 1_555

#END
