
#######################################################################
#
#                 Cambridge Crystallographic Data Centre
#                                CCDC 
#
#######################################################################
#
# If this CIF has been generated from an entry in the Cambridge 
# Structural Database, then it will include bibliographic, chemical, 
# crystal, experimental, refinement or atomic coordinate data resulting 
# from the CCDC's data processing and validation procedures.
#
#######################################################################

data_FAWKIY
_symmetry_cell_setting           orthorhombic
_symmetry_space_group_name_H-M   'P n a 21'
_symmetry_Int_Tables_number      33
_space_group_name_Hall           'P 2c -2n'
loop_
_symmetry_equiv_pos_site_id
_symmetry_equiv_pos_as_xyz
1 x,y,z
2 1/2-x,1/2+y,1/2+z
3 1/2+x,1/2-y,z
4 -x,-y,1/2+z
_cell_length_a                   11.0742(10)
_cell_length_b                   14.4132(13)
_cell_length_c                   22.4188(18)
_cell_angle_alpha                90
_cell_angle_beta                 90
_cell_angle_gamma                90
_cell_volume                     3578.37
loop_
_atom_site_label
_atom_site_type_symbol
_atom_site_fract_x
_atom_site_fract_y
_atom_site_fract_z
Zn1 Zn 0.24071(4) 0.42050(3) 0.543113(18)
Zn2 Zn 0.00639(4) 0.57726(3) 0.724467(18)
O1 O 0.1168(3) 0.51477(18) 0.54856(14)
O2 O 0.1203(3) 0.5071(3) 0.45017(15)
O3 O -0.0547(3) 0.59482(19) 0.64201(13)
O4 O 0.1071(3) 0.6819(2) 0.62530(13)
O5 O 0.1290(2) 0.4836(2) 0.71763(13)
O6 O 0.1298(3) 0.4976(2) 0.81563(15)
O7 O 0.3017(3) 0.4001(2) 0.62509(13)
O8 O 0.1426(3) 0.3116(2) 0.64421(14)
N1 N 0.5881(3) 0.4955(2) 0.49769(16)
N2 N 0.5375(3) 0.5257(3) 0.44570(17)
N3 N 0.3968(3) 0.4692(2) 0.50875(15)
N4 N 0.7472(3) 0.3415(2) 0.46886(16)
N5 N 0.6809(4) 0.3003(3) 0.42525(18)
N6 N 0.7182(3) 0.2008(2) 0.49890(16)
N7 N -0.3403(3) 0.5011(2) 0.76724(16)
N8 N -0.2910(3) 0.4718(3) 0.81975(17)
N9 N -0.1496(3) 0.5302(2) 0.75893(15)
N10 N -0.4955(3) 0.6587(2) 0.79342(16)
N11 N -0.4067(4) 0.6903(3) 0.8302(2)
N12 N -0.4682(3) 0.8011(2) 0.76570(16)
C1 C -0.0031(3) 0.6226(3) 0.49561(18)
C2 C -0.0512(3) 0.6512(3) 0.44168(18)
H1 H -0.0273 0.6220 0.4067
C3 C -0.1349(4) 0.7231(3) 0.43905(19)
H2 H -0.1665 0.7427 0.4027
C4 C -0.1700(4) 0.7647(3) 0.4921(2)
H3 H -0.2257 0.8129 0.4905
C5 C -0.1262(4) 0.7381(3) 0.5472(2)
H4 H -0.1536 0.7659 0.5821
C6 C -0.0389(3) 0.6674(2) 0.54854(19)
C7 C 0.0844(4) 0.5430(3) 0.4969(2)
C8 C 0.0119(3) 0.6457(3) 0.60900(18)
C9 C 0.2553(3) 0.3817(2) 0.77178(17)
C10 C 0.3102(4) 0.3615(3) 0.82649(18)
H5 H 0.2874 0.3941 0.8605
C11 C 0.3972(4) 0.2940(3) 0.8304(2)
H6 H 0.4312 0.2804 0.8673
C12 C 0.4349(5) 0.2463(3) 0.7808(3)
H7 H 0.4967 0.2027 0.7833
C13 C 0.3785(5) 0.2649(3) 0.7273(2)
H8 H 0.4003 0.2303 0.6940
C14 C 0.2897(3) 0.3333(2) 0.72079(19)
C15 C 0.1646(3) 0.4603(3) 0.76980(18)
C16 C 0.2368(3) 0.3507(3) 0.65957(18)
C17 C 0.4224(4) 0.5075(3) 0.45486(19)
H9 H 0.3631 0.5200 0.4266
C18 C 0.5044(3) 0.4624(3) 0.53462(18)
H10 H 0.5190 0.4384 0.5724
C19 C 0.6678(4) 0.2158(3) 0.4430(2)
H11 H 0.6290 0.1701 0.4209
C20 C 0.7677(4) 0.2821(3) 0.5119(2)
H12 H 0.8108 0.2951 0.5465
C21 C 0.7179(4) 0.5009(3) 0.5074(2)
H13 H 0.7360 0.4822 0.5480
H14 H 0.7441 0.5646 0.5025
C22 C 0.7876(4) 0.4391(3) 0.4643(2)
H15 H 0.7753 0.4610 0.4238
H16 H 0.8732 0.4428 0.4731
C23 C -0.1772(4) 0.4904(3) 0.81294(19)
H17 H -0.1195 0.4779 0.8420
C24 C -0.2567(3) 0.5354(3) 0.73226(19)
H18 H -0.2702 0.5597 0.6944
C25 C -0.3939(4) 0.7769(4) 0.8122(2)
H19 H -0.3393 0.8179 0.8294
C26 C -0.5283(4) 0.7242(3) 0.75521(18)
H20 H -0.5857 0.7167 0.7253
C27 C -0.5375(4) 0.5632(3) 0.7985(2)
H21 H -0.6230 0.5607 0.7893
H22 H -0.5270 0.5423 0.8393
C28 C -0.4695(3) 0.4984(3) 0.7569(2)
H23 H -0.4984 0.4355 0.7626
H24 H -0.4859 0.5159 0.7159
Zn1B Zn 0.74071(4) 0.07950(3) 0.543113(18)
Zn2B Zn -0.49361(4) 0.92274(3) 0.724467(18)
N6B N 0.2182(3) 0.2992(2) 0.49890(16)
N12B N 0.0318(3) 0.6989(2) 0.76570(16)
O9 O -0.0807(3) 0.3995(2) 0.61063(17)
O10 O 0.3303(3) 0.5973(2) 0.65665(16)
O11 O 0.1613(3) 0.1165(2) 0.64386(17)
O12 O 0.0889(3) 0.8795(2) 0.62315(17)
loop_
_geom_bond_atom_site_label_1
_geom_bond_atom_site_label_2
_geom_bond_site_symmetry_1
_geom_bond_site_symmetry_2
Zn1 O1 1_555 1_555
Zn2 O3 1_555 1_555
O1 C7 1_555 1_555
O2 C7 1_555 1_555
O3 C8 1_555 1_555
O4 C8 1_555 1_555
O5 Zn2 1_555 1_555
O6 C15 1_555 1_555
O7 Zn1 1_555 1_555
O8 C16 1_555 1_555
N1 N2 1_555 1_555
N2 C17 1_555 1_555
N3 Zn1 1_555 1_555
N4 N5 1_555 1_555
N5 C19 1_555 1_555
N6 C19 1_555 1_555
N7 N8 1_555 1_555
N8 C23 1_555 1_555
N9 Zn2 1_555 1_555
N10 N11 1_555 1_555
N11 C25 1_555 1_555
N12 C25 1_555 1_555
C1 C2 1_555 1_555
C2 H1 1_555 1_555
C3 C2 1_555 1_555
H2 C3 1_555 1_555
C4 C3 1_555 1_555
H3 C4 1_555 1_555
C5 C4 1_555 1_555
H4 C5 1_555 1_555
C6 C1 1_555 1_555
C7 C1 1_555 1_555
C8 C6 1_555 1_555
C9 C10 1_555 1_555
C10 H5 1_555 1_555
C11 C10 1_555 1_555
H6 C11 1_555 1_555
C12 C11 1_555 1_555
H7 C12 1_555 1_555
C13 C12 1_555 1_555
H8 C13 1_555 1_555
C14 C9 1_555 1_555
C15 O5 1_555 1_555
C16 O7 1_555 1_555
C17 N3 1_555 1_555
H9 C17 1_555 1_555
C18 N1 1_555 1_555
H10 C18 1_555 1_555
C19 H11 1_555 1_555
C20 N4 1_555 1_555
H12 C20 1_555 1_555
C21 N1 1_555 1_555
H13 C21 1_555 1_555
H14 C21 1_555 1_555
C22 N4 1_555 1_555
H15 C22 1_555 1_555
H16 C22 1_555 1_555
C23 N9 1_555 1_555
H17 C23 1_555 1_555
C24 N7 1_555 1_555
H18 C24 1_555 1_555
C25 H19 1_555 1_555
C26 N10 1_555 1_555
H20 C26 1_555 1_555
C27 N10 1_555 1_555
H21 C27 1_555 1_555
H22 C27 1_555 1_555
C28 N7 1_555 1_555
H23 C28 1_555 1_555
H24 C28 1_555 1_555
Zn1B N6 1_555 1_555
Zn2B N12 1_555 1_555
N6B Zn1 1_555 1_555
N12B Zn2 1_555 1_555
N3 C18 1_555 1_555
N6 C20 1_555 1_555
N9 C24 1_555 1_555
N12 C26 1_555 1_555
C5 C6 1_555 1_555
C9 C15 1_555 1_555
C13 C14 1_555 1_555
C14 C16 1_555 1_555
C21 C22 1_555 1_555
C27 C28 1_555 1_555

#END
