
#######################################################################
#
#                 Cambridge Crystallographic Data Centre
#                                CCDC 
#
#######################################################################
#
# If this CIF has been generated from an entry in the Cambridge 
# Structural Database, then it will include bibliographic, chemical, 
# crystal, experimental, refinement or atomic coordinate data resulting 
# from the CCDC's data processing and validation procedures.
#
#######################################################################

data_FAWQIF
_symmetry_cell_setting           monoclinic
_symmetry_space_group_name_H-M   'P 21/c'
_symmetry_Int_Tables_number      14
_space_group_name_Hall           '-P 2ybc'
loop_
_symmetry_equiv_pos_site_id
_symmetry_equiv_pos_as_xyz
1 x,y,z
2 -x,1/2+y,1/2-z
3 -x,-y,-z
4 x,1/2-y,1/2+z
_cell_length_a                   8.76129(47)
_cell_length_b                   5.81548(29)
_cell_length_c                   37.9433(21)
_cell_angle_alpha                90
_cell_angle_beta                 90.8834(31)
_cell_angle_gamma                90
_cell_volume                     1933.02
loop_
_atom_site_label
_atom_site_type_symbol
_atom_site_fract_x
_atom_site_fract_y
_atom_site_fract_z
N1 N -0.43044(25) -0.75568(41) 0.36314(12)
C1 C -0.51549(29) -0.58187(54) 0.35843(10)
H1 H -0.40672 -0.80592 0.38623
N2 N -0.36132(26) -0.89421(53) 0.33810(13)
C2 C -0.57018(33) -0.48115(55) 0.39006(11)
C3 C -0.55059(35) -0.50590(61) 0.32490(14)
C4 C -0.27237(34) -1.07618(68) 0.34439(11)
C5 C -0.66751(38) -0.28831(58) 0.38679(13)
S1 S -0.51886(35) -0.58861(57) 0.433300(96)
C6 C -0.64573(38) -0.31811(66) 0.32221(14)
H2 H -0.50737 -0.58598 0.30311
C7 C -0.21040(53) -1.13769(75) 0.37751(11)
C8 C -0.23427(42) -1.22463(59) 0.314750(89)
C9 C -0.70470(35) -0.20857(64) 0.35285(11)
H3 H -0.7113 -0.20752 0.4087
O1 O -0.57372(96) -0.4177(13) 0.45898(18)
O2 O -0.60599(84) -0.8094(11) 0.43665(22)
O3 O -0.35554(63) -0.6255(15) 0.43420(22)
H4 H -0.6714 -0.2596 0.29723
C10 C -0.11412(32) -1.34101(68) 0.380850(81)
O4 O -0.24102(76) -1.0148(11) 0.40364(16)
C11 C -0.13245(36) -1.43427(51) 0.319718(99)
C12 C -0.28400(53) -1.18749(83) 0.28121(13)
C13 C -0.80784(57) -0.00520(94) 0.35067(24)
C14 C -0.07936(51) -1.47948(83) 0.35344(12)
C15 C -0.04648(32) -1.40396(65) 0.417660(92)
C16 C -0.09705(52) -1.57443(87) 0.29115(13)
C17 C -0.24514(58) -1.33218(87) 0.25474(14)
H5 H -0.35132 -1.051 0.2757
H6 H -0.90984 -0.05259 0.3355
H7 H -0.75105 0.13101 0.33499
H8 H -0.84333 0.06523 0.37545
H9 H -0.01214 -1.61806 0.35751
O5 O -0.02594(37) -1.24555(98) 0.44004(14)
O6 O -0.01458(35) -1.60702(93) 0.42440(14)
C18 C -0.15388(59) -1.52199(92) 0.25886(14)
H10 H -0.02871 -1.71979 0.29372
H11 H -0.28593 -1.29798 0.23013
H12 H -0.12633 -1.62227 0.23791
Ca1 Ca -0.14382(47) -0.89963(78) 0.45828(11)
O7 O 0.1090(14) -0.8636(20) 0.48415(30)
H13 H 0.19434 -0.87974 0.46341
H14 H 0.13544 -0.70148 0.48909
O8 O -0.1519(11) -0.6183(21) 0.50871(29)
H15 H -0.23142 -0.70638 0.52457
H16 H -0.09245 -0.55949 0.52715
O9 O -0.3663(11) -1.0710(18) 0.47492(30)
H17 H -0.41703 -1.21125 0.48818
H18 H -0.47075 -1.03074 0.46162
O6_2 O -0.01458(35) -0.60702(93) 0.42440(14)
Ca1_2 Ca -0.14382(47) -1.89963(78) 0.45828(11)
Ca1B Ca 0.14382(47) -1.10037(78) 0.54172(11)
O7B O -0.1090(14) -1.1364(20) 0.51585(30)
loop_
_geom_bond_atom_site_label_1
_geom_bond_atom_site_label_2
_geom_bond_site_symmetry_1
_geom_bond_site_symmetry_2
N1 C1 1_555 1_555
C1 C2 1_555 1_555
H1 N1 1_555 1_555
N2 N1 1_555 1_555
C2 C5 1_555 1_555
C3 C1 1_555 1_555
C4 N2 1_555 1_555
C5 C9 1_555 1_555
S1 C2 1_555 1_555
C6 C3 1_555 1_555
H2 C3 1_555 1_555
C7 C4 1_555 1_555
C8 C4 1_555 1_555
C9 C6 1_555 1_555
H3 C5 1_555 1_555
O1 S1 1_555 1_555
O2 S1 1_555 1_555
O3 S1 1_555 1_555
H4 C6 1_555 1_555
C10 C7 1_555 1_555
O4 C7 1_555 1_555
C11 C8 1_555 1_555
C12 C8 1_555 1_555
C13 C9 1_555 1_555
C14 C10 1_555 1_555
C15 C10 1_555 1_555
C16 C11 1_555 1_555
C17 C12 1_555 1_555
H5 C12 1_555 1_555
H6 C13 1_555 1_555
H7 C13 1_555 1_555
H8 C13 1_555 1_555
H9 C14 1_555 1_555
O5 C15 1_555 1_555
O6 C15 1_555 1_555
C18 C16 1_555 1_555
H10 C16 1_555 1_555
H11 C17 1_555 1_555
H12 C18 1_555 1_555
Ca1 O3 1_555 1_555
O7 Ca1 1_555 1_555
H13 O7 1_555 1_555
H14 O7 1_555 1_555
O8 Ca1 1_555 1_555
H15 O8 1_555 1_555
H16 O8 1_555 1_555
O9 Ca1 1_555 1_555
H17 O9 1_555 1_555
H18 O9 1_555 1_555
O6_2 Ca1 1_555 1_555
Ca1_2 O6 1_555 1_555
Ca1B O7 1_555 1_555
O7B Ca1 1_555 1_555
O4 Ca1 1_555 1_555
C11 C14 1_555 1_555
C17 C18 1_555 1_555
O5 Ca1 1_555 1_555
Ca1B O7B 1_555 1_555

#END
