
#######################################################################
#
#                 Cambridge Crystallographic Data Centre
#                                CCDC 
#
#######################################################################
#
# If this CIF has been generated from an entry in the Cambridge 
# Structural Database, then it will include bibliographic, chemical, 
# crystal, experimental, refinement or atomic coordinate data resulting 
# from the CCDC's data processing and validation procedures.
#
#######################################################################

data_FAXGUI
_symmetry_cell_setting           orthorhombic
_symmetry_space_group_name_H-M   'P n m a'
_symmetry_Int_Tables_number      62
_space_group_name_Hall           '-P 2ac 2n'
loop_
_symmetry_equiv_pos_site_id
_symmetry_equiv_pos_as_xyz
1 x,y,z
2 1/2-x,-y,1/2+z
3 -x,1/2+y,-z
4 1/2+x,1/2-y,1/2-z
5 -x,-y,-z
6 1/2+x,y,1/2-z
7 x,1/2-y,z
8 1/2-x,1/2+y,1/2+z
_cell_length_a                   12.822(3)
_cell_length_b                   28.976(7)
_cell_length_c                   13.309(3)
_cell_angle_alpha                90
_cell_angle_beta                 90
_cell_angle_gamma                90
_cell_volume                     4944.7
loop_
_atom_site_label
_atom_site_type_symbol
_atom_site_fract_x
_atom_site_fract_y
_atom_site_fract_z
C1 C 0.7400(10) 0.4936(5) 0.5999(9)
H1 H 0.7781 0.4978 0.6587
C2 C 0.6603(11) 0.4635(5) 0.6018(8)
H2 H 0.6436 0.4482 0.6611
C3 C 0.6029(8) 0.4552(4) 0.5150(7)
C4 C 0.6337(9) 0.4786(4) 0.4309(8)
H3 H 0.6006 0.4729 0.3700
C5 C 0.7124(9) 0.5101(4) 0.4356(8)
H4 H 0.7285 0.5270 0.3782
C6 C 0.5130(7) 0.4218(3) 0.5146(7)
C7 C 0.4802(8) 0.4011(4) 0.6036(7)
H5 H 0.5166 0.4069 0.6627
C8 C 0.3961(9) 0.3726(4) 0.6056(8)
H6 H 0.3775 0.3583 0.6656
C9 C 0.3386(8) 0.3646(4) 0.5218(7)
H7 H 0.2799 0.3458 0.5242
C10 C 0.3699(8) 0.3854(3) 0.4309(7)
C11 C 0.4550(7) 0.4135(4) 0.4288(7)
H8 H 0.4745 0.4273 0.3686
C12 C 0.2978(8) 0.3798(3) 0.3426(7)
C13 C 0.2353(7) 0.3634(3) 0.1962(7)
C14 C 0.2245(8) 0.3475(4) 0.0912(7)
C15 C 0.1394(8) 0.3199(4) 0.0684(7)
H9 H 0.0943 0.3114 0.1199
C16 C 0.1846(10) 0.3169(4) -0.0988(8)
H10 H 0.1715 0.3064 -0.1636
C17 C 0.2712(11) 0.3443(5) -0.0810(9)
H11 H 0.3154 0.3526 -0.1335
C18 C 0.2911(9) 0.3593(5) 0.0163(8)
H12 H 0.3495 0.3773 0.0300
I1 I 0.93194(8) 0.62394(4) 0.37414(6)
I2 I 1.03030(7) 0.52660(3) 0.66052(6)
I3 I -0.12891(13) 0.2500 0.11315(11)
I4 I -0.05389(15) 0.2500 -0.24935(10)
Hg1 Hg 0.90889(4) 0.569650(17) 0.53010(3)
Hg2 Hg -0.02075(5) 0.2500 -0.05464(4)
N1 N 0.7676(7) 0.5177(3) 0.5194(6)
N2 N 0.1975(6) 0.3873(3) 0.3456(6)
N3 N 0.1580(7) 0.3766(3) 0.2519(6)
N4 N 0.3259(6) 0.3645(3) 0.2501(5)
N5 N 0.4217(6) 0.3480(4) 0.2147(6)
H13 H 0.4354 0.3206 0.2496
H14 H 0.4711 0.3702 0.2279
N6 N 0.1198(7) 0.3052(3) -0.0249(6)
C1F C 0.7400(10) 0.0064(5) 0.5999(9)
H1F H 0.7781 0.0022 0.6587
C2F C 0.6603(11) 0.0365(5) 0.6018(8)
H2F H 0.6436 0.0518 0.6611
C3F C 0.6029(8) 0.0448(4) 0.5150(7)
C4F C 0.6337(9) 0.0214(4) 0.4309(8)
H3F H 0.6006 0.0271 0.3700
C5F C 0.7124(9) -0.0101(4) 0.4356(8)
H4F H 0.7285 -0.0270 0.3782
C6F C 0.5130(7) 0.0782(3) 0.5146(7)
C7F C 0.4802(8) 0.0989(4) 0.6036(7)
H5F H 0.5166 0.0931 0.6627
C8F C 0.3961(9) 0.1274(4) 0.6056(8)
H6F H 0.3775 0.1417 0.6656
C9F C 0.3386(8) 0.1354(4) 0.5218(7)
H7F H 0.2799 0.1542 0.5242
C10F C 0.3699(8) 0.1146(3) 0.4309(7)
C11F C 0.4550(7) 0.0865(4) 0.4288(7)
H8F H 0.4745 0.0727 0.3686
C12F C 0.2978(8) 0.1202(3) 0.3426(7)
C13F C 0.2353(7) 0.1366(3) 0.1962(7)
C14F C 0.2245(8) 0.1525(4) 0.0912(7)
C15F C 0.1394(8) 0.1801(4) 0.0684(7)
H9F H 0.0943 0.1886 0.1199
C16F C 0.1846(10) 0.1831(4) -0.0988(8)
H10F H 0.1715 0.1936 -0.1636
C17F C 0.2712(11) 0.1557(5) -0.0810(9)
H11F H 0.3154 0.1474 -0.1335
C18F C 0.2911(9) 0.1407(5) 0.0163(8)
H12F H 0.3495 0.1227 0.0300
I1F I 0.93194(8) -0.12394(4) 0.37414(6)
I2F I 1.03030(7) -0.02660(3) 0.66052(6)
Hg1F Hg 0.90889(4) -0.069650(17) 0.53010(3)
Hg1D Hg 0.09111(4) 0.430350(17) 0.46990(3)
Hg1B Hg 0.09111(4) 0.069650(17) 0.46990(3)
N1F N 0.7676(7) -0.0177(3) 0.5194(6)
N2F N 0.1975(6) 0.1127(3) 0.3456(6)
N2D N 0.8025(6) 0.6127(3) 0.6544(6)
N2B N 0.8025(6) -0.1127(3) 0.6544(6)
N3F N 0.1580(7) 0.1234(3) 0.2519(6)
N4F N 0.3259(6) 0.1355(3) 0.2501(5)
N5F N 0.4217(6) 0.1520(4) 0.2147(6)
H13F H 0.4354 0.1794 0.2496
H14F H 0.4711 0.1298 0.2279
N6F N 0.1198(7) 0.1948(3) -0.0249(6)
C19 C 0.922(2) 0.7500 0.638(2)
C20 C 0.967(4) 0.7500 0.536(3)
N7 N 0.902(2) 0.7500 0.711(2)
H15? H 0.9771 0.7188 0.5134
H16? H 1.0335 0.7656 0.5366
H17? H 0.9210 0.7657 0.4905
loop_
_geom_bond_atom_site_label_1
_geom_bond_atom_site_label_2
_geom_bond_site_symmetry_1
_geom_bond_site_symmetry_2
C1 H1 1_555 1_555
C2 C1 1_555 1_555
H2 C2 1_555 1_555
C3 C2 1_555 1_555
C4 C3 1_555 1_555
H3 C4 1_555 1_555
C5 C4 1_555 1_555
H4 C5 1_555 1_555
C6 C3 1_555 1_555
C7 C6 1_555 1_555
H5 C7 1_555 1_555
C8 C7 1_555 1_555
H6 C8 1_555 1_555
C9 C8 1_555 1_555
H7 C9 1_555 1_555
C10 C9 1_555 1_555
C11 C6 1_555 1_555
H8 C11 1_555 1_555
C12 C10 1_555 1_555
C13 C14 1_555 1_555
C14 C15 1_555 1_555
C15 H9 1_555 1_555
C16 H10 1_555 1_555
C17 C16 1_555 1_555
H11 C17 1_555 1_555
C18 C14 1_555 1_555
H12 C18 1_555 1_555
I1 Hg1 1_555 1_555
I2 Hg1 1_555 1_555
I3 Hg2 1_555 1_555
I4 Hg2 1_555 1_555
Hg1 N1 1_555 1_555
Hg2 N6 1_555 1_555
N1 C1 1_555 1_555
N2 C12 1_555 1_555
N3 C13 1_555 1_555
N4 C12 1_555 1_555
N5 N4 1_555 1_555
H13 N5 1_555 1_555
H14 N5 1_555 1_555
N6 C15 1_555 1_555
C19 C20 1_555 1_555
N7 C19 1_555 1_555
C1F H1F 1_555 1_555
C2F C1F 1_555 1_555
H2F C2F 1_555 1_555
C3F C2F 1_555 1_555
C4F C3F 1_555 1_555
H3F C4F 1_555 1_555
C5F C4F 1_555 1_555
H4F C5F 1_555 1_555
C6F C3F 1_555 1_555
C7F C6F 1_555 1_555
H5F C7F 1_555 1_555
C8F C7F 1_555 1_555
H6F C8F 1_555 1_555
C9F C8F 1_555 1_555
H7F C9F 1_555 1_555
C10F C9F 1_555 1_555
C11F C6F 1_555 1_555
H8F C11F 1_555 1_555
C12F C10F 1_555 1_555
C13F C14F 1_555 1_555
C14F C15F 1_555 1_555
C15F H9F 1_555 1_555
C16F H10F 1_555 1_555
C17F C16F 1_555 1_555
H11F C17F 1_555 1_555
C18F C14F 1_555 1_555
H12F C18F 1_555 1_555
I1F Hg1F 1_555 1_555
I2F Hg1F 1_555 1_555
Hg1F N1F 1_555 1_555
Hg1D N2 1_555 1_555
Hg1B N2F 1_555 1_555
N1F C1F 1_555 1_555
N2F C12F 1_555 1_555
N2D Hg1 1_555 1_555
N2B Hg1F 1_555 1_555
N3F C13F 1_555 1_555
N4F C12F 1_555 1_555
N5F N4F 1_555 1_555
H13F N5F 1_555 1_555
H14F N5F 1_555 1_555
N6F Hg2 1_555 1_555
C5 N1 1_555 1_555
C10 C11 1_555 1_555
C13 N4 1_555 1_555
C16 N6 1_555 1_555
C17 C18 1_555 1_555
N2 N3 1_555 1_555
C5F N1F 1_555 1_555
C10F C11F 1_555 1_555
C13F N4F 1_555 1_555
C15F N6F 1_555 1_555
C16F N6F 1_555 1_555
C17F C18F 1_555 1_555
N2F N3F 1_555 1_555

#END
