
#######################################################################
#
#                 Cambridge Crystallographic Data Centre
#                                CCDC 
#
#######################################################################
#
# If this CIF has been generated from an entry in the Cambridge 
# Structural Database, then it will include bibliographic, chemical, 
# crystal, experimental, refinement or atomic coordinate data resulting 
# from the CCDC's data processing and validation procedures.
#
#######################################################################

data_FAXHET
_symmetry_cell_setting           monoclinic
_symmetry_space_group_name_H-M   'P 21/c'
_symmetry_Int_Tables_number      14
_space_group_name_Hall           '-P 2ybc'
loop_
_symmetry_equiv_pos_site_id
_symmetry_equiv_pos_as_xyz
1 x,y,z
2 -x,1/2+y,1/2-z
3 -x,-y,-z
4 x,1/2-y,1/2+z
_cell_length_a                   16.627(3)
_cell_length_b                   10.6199(18)
_cell_length_c                   20.082(3)
_cell_angle_alpha                90
_cell_angle_beta                 113.586(2)
_cell_angle_gamma                90
_cell_volume                     3249.79
loop_
_atom_site_label
_atom_site_type_symbol
_atom_site_fract_x
_atom_site_fract_y
_atom_site_fract_z
C1 C 0.2929(4) 0.1686(6) 0.7716(3)
H1 H 0.2704 0.1287 0.8017
C2 C 0.3518(4) 0.2680(5) 0.7960(3)
C3 C 0.3825(3) 0.3279(6) 0.7500(3)
C4 C 0.3583(4) 0.2890(6) 0.6783(3)
H2 H 0.3803 0.3284 0.6478
C5 C 0.3018(5) 0.1923(7) 0.6551(4)
H3 H 0.2839 0.1649 0.6073
C6 C 0.2694(5) 0.1321(7) 0.7008(4)
H4 H 0.2307 0.0652 0.6827
C7 C 0.4375(4) 0.4134(5) 0.8577(3)
H5 H 0.4696 0.4671 0.8956
C8 C 0.4972(4) 0.4987(6) 0.7699(3)
H6 H 0.5362 0.4447 0.7575
H7 H 0.5330 0.5495 0.8113
C9 C 0.4485(3) 0.5848(6) 0.7062(3)
C10 C 0.3975(4) 0.6818(6) 0.7121(3)
H8 H 0.3889 0.6921 0.7548
C11 C 0.3583(4) 0.7649(5) 0.6546(3)
H9 H 0.3237 0.8306 0.6590
C12 C 0.3706(4) 0.7502(5) 0.5915(3)
C13 C 0.4207(4) 0.6519(6) 0.5858(3)
H10 H 0.4284 0.6410 0.5428
C14 C 0.4596(4) 0.5695(6) 0.6417(3)
H11 H 0.4934 0.5034 0.6366
C15 C 0.3380(3) 0.8477(5) 0.5345(3)
C16 C 0.2797(3) 0.9393(5) 0.4296(2)
C17 C 0.2339(3) 0.9643(5) 0.3522(2)
C18 C 0.1805(4) 1.0706(5) 0.3297(3)
H12 H 0.1724 1.1222 0.3639
C19 C 0.1394(4) 1.0992(5) 0.2559(3)
H13 H 0.1048 1.1711 0.2410
C20 C 0.1498(3) 1.0212(5) 0.2048(3)
C21 C 0.2011(4) 0.9170(5) 0.2269(3)
H14 H 0.2078 0.8644 0.1924
C22 C 0.2446(4) 0.8873(5) 0.3013(3)
H15 H 0.2801 0.8163 0.3159
C23 C 0.1038(5) 1.0571(6) 0.1257(3)
H16 H 0.0433 1.0780 0.1156
H17 H 0.1315 1.1319 0.1168
C24 C 0.1647(4) 0.9441(7) 0.0470(3)
H18 H 0.2110 0.9997 0.0557
C25 C 0.0777(5) 0.7911(6) 0.0073(4)
C26 C 0.0486(4) 0.8590(6) 0.0517(3)
C27 C -0.0272(5) 0.8288(9) 0.0619(4)
H19 H -0.0466 0.8767 0.0914
C28 C -0.0717(7) 0.7234(11) 0.0254(7)
H20 H -0.1226 0.6992 0.0307
C29 C -0.0438(7) 0.6535(9) -0.0182(6)
H21 H -0.0757 0.5831 -0.0419
C30 C 0.0314(7) 0.6859(8) -0.0277(5)
H22 H 0.0505 0.6376 -0.0572
Cl1 Cl 0.51584(11) 1.22810(16) 0.56785(9)
Cl2 Cl 0.26955(13) 1.38869(17) 0.45231(11)
Hg1 Hg 0.371973(15) 1.22327(2) 0.467698(11)
N1 N 0.3515(3) 0.9673(4) 0.5471(2)
N2 N 0.3141(3) 1.0265(4) 0.4796(2)
N3 N 0.2942(3) 0.8264(4) 0.4617(2)
N4 N 0.2625(3) 0.7124(4) 0.4262(2)
H25 H 0.2237 0.6805 0.4419
H26 H 0.3070 0.6590 0.4361
N5 N 0.4387(3) 0.4201(4) 0.7905(2)
N6 N 0.3877(3) 0.3256(4) 0.8638(2)
N7 N 0.1055(3) 0.9591(5) 0.0766(2)
N8 N 0.1522(4) 0.8465(6) 0.0057(3)
Hg1C Hg 0.371973(15) 0.27673(2) 0.967698(11)
N6C N 0.3877(3) 1.1744(4) 0.3638(2)
C31 C 0.0981(11) 0.9236(17) 0.7769(8)
H23 H 0.1551 0.9285 0.8171
H24 H 0.0610 0.8651 0.7888
Cl3 Cl 0.0483(6) 1.0747(10) 0.7525(6)
Cl4 Cl 0.1068(10) 0.8832(9) 0.6947(7)
loop_
_geom_bond_atom_site_label_1
_geom_bond_atom_site_label_2
_geom_bond_site_symmetry_1
_geom_bond_site_symmetry_2
C1 H1 1_555 1_555
C2 C1 1_555 1_555
C3 C2 1_555 1_555
C4 C3 1_555 1_555
H2 C4 1_555 1_555
C5 C4 1_555 1_555
H3 C5 1_555 1_555
C6 C1 1_555 1_555
H4 C6 1_555 1_555
C7 H5 1_555 1_555
C8 H6 1_555 1_555
H7 C8 1_555 1_555
C9 C8 1_555 1_555
C10 C9 1_555 1_555
H8 C10 1_555 1_555
C11 C10 1_555 1_555
H9 C11 1_555 1_555
C12 C11 1_555 1_555
C13 C12 1_555 1_555
H10 C13 1_555 1_555
C14 C9 1_555 1_555
H11 C14 1_555 1_555
C15 C12 1_555 1_555
C16 C17 1_555 1_555
C17 C18 1_555 1_555
C18 H12 1_555 1_555
C19 C18 1_555 1_555
H13 C19 1_555 1_555
C20 C19 1_555 1_555
C21 C20 1_555 1_555
H14 C21 1_555 1_555
C22 C17 1_555 1_555
H15 C22 1_555 1_555
C23 C20 1_555 1_555
H16 C23 1_555 1_555
H17 C23 1_555 1_555
C24 H18 1_555 1_555
C25 C26 1_555 1_555
C26 C27 1_555 1_555
C27 H19 1_555 1_555
C28 C27 1_555 1_555
H20 C28 1_555 1_555
C29 C28 1_555 1_555
H21 C29 1_555 1_555
C30 C25 1_555 1_555
H22 C30 1_555 1_555
C31 H23 1_555 1_555
H24 C31 1_555 1_555
Cl1 Hg1 1_555 1_555
Cl2 Hg1 1_555 1_555
Cl3 C31 1_555 1_555
Cl4 C31 1_555 1_555
Hg1 N2 1_555 1_555
N1 C15 1_555 1_555
N2 C16 1_555 1_555
N3 C15 1_555 1_555
N4 N3 1_555 1_555
H25 N4 1_555 1_555
H26 N4 1_555 1_555
N5 C3 1_555 1_555
N6 C2 1_555 1_555
N7 C23 1_555 1_555
N8 C24 1_555 1_555
Hg1C N6 1_555 1_555
N6C Hg1 1_555 1_555
C5 C6 1_555 1_555
C7 N5 1_555 1_555
C7 N6 1_555 1_555
C8 N5 1_555 1_555
C13 C14 1_555 1_555
C16 N3 1_555 1_555
C21 C22 1_555 1_555
C24 N7 1_555 1_555
C25 N8 1_555 1_555
C26 N7 1_555 1_555
C29 C30 1_555 1_555
N1 N2 1_555 1_555

#END
