
#######################################################################
#
#                 Cambridge Crystallographic Data Centre
#                                CCDC 
#
#######################################################################
#
# If this CIF has been generated from an entry in the Cambridge 
# Structural Database, then it will include bibliographic, chemical, 
# crystal, experimental, refinement or atomic coordinate data resulting 
# from the CCDC's data processing and validation procedures.
#
#######################################################################

data_FAXJEU
_symmetry_cell_setting           orthorhombic
_symmetry_space_group_name_H-M   'P n a 21'
_symmetry_Int_Tables_number      33
_space_group_name_Hall           'P 2c -2n'
loop_
_symmetry_equiv_pos_site_id
_symmetry_equiv_pos_as_xyz
1 x,y,z
2 -x,-y,1/2+z
3 1/2+x,1/2-y,z
4 1/2-x,1/2+y,1/2+z
_cell_length_a                   10.352(2)
_cell_length_b                   8.7608(18)
_cell_length_c                   13.811(3)
_cell_angle_alpha                90
_cell_angle_beta                 90
_cell_angle_gamma                90
_cell_volume                     1252.54
loop_
_atom_site_label
_atom_site_type_symbol
_atom_site_fract_x
_atom_site_fract_y
_atom_site_fract_z
Ag1 Ag 0.58193(5) 1.01854(5) 0.49999(8)
N1 N 0.4956(5) 0.7695(7) 0.5219(5)
H1 H 0.5202 0.7109 0.4765
H2 H 0.5211 0.7323 0.5755
N2 N 0.3531(6) 1.0337(6) 0.4389(4)
N3 N 0.5990(6) 1.0839(10) 0.3329(6)
H3 H 0.6132 1.1790 0.3269
H4 H 0.6615 1.0357 0.3072
N4 N 0.2250(5) 1.3550(7) 0.5934(5)
H5 H 0.2639 1.4195 0.6290
H6 H 0.1833 1.2953 0.6305
C1 C 0.3549(7) 0.7836(8) 0.5214(6)
H7 H 0.3266 0.8352 0.5798
H8 H 0.3159 0.6830 0.5201
C2 C 0.3128(7) 0.8740(8) 0.4332(6)
H9 H 0.3497 0.8281 0.3756
H10 H 0.2195 0.8689 0.4276
C3 C 0.3649(7) 1.0984(8) 0.3414(6)
H11 H 0.3698 1.2086 0.3468
H12 H 0.2875 1.0741 0.3049
C4 C 0.4792(9) 1.0434(10) 0.2856(6)
H13 H 0.4744 0.9333 0.2785
H14 H 0.4777 1.0881 0.2214
C5 C 0.2613(6) 1.1227(6) 0.4979(8)
H15 H 0.2289 1.0588 0.5498
H16 H 0.1884 1.1527 0.4581
C6 C 0.3230(7) 1.2639(8) 0.5414(5)
H17 H 0.3916 1.2345 0.5854
H18 H 0.3605 1.3253 0.4901
Ag1B Ag 0.08193(5) 1.48146(5) 0.49999(8)
N4B N 0.7250(5) 1.1450(7) 0.5934(5)
H5B H 0.7639 1.0805 0.6290
H6B H 0.6833 1.2047 0.6305
Cl1 Cl 0.4698(2) 0.5228(2) 0.25806(15)
O1 O 0.4648(14) 0.5107(16) 0.3589(5)
O2 O 0.5746(10) 0.4330(14) 0.2213(10)
O3 O 0.4792(15) 0.6733(9) 0.2258(10)
O4 O 0.3542(9) 0.4547(16) 0.2164(7)
O5? O 0.4622(18) 0.464(2) 0.3544(7)
O6? O 0.5305(18) 0.4175(17) 0.1974(13)
O7? O 0.5538(14) 0.6578(14) 0.2652(12)
O8? O 0.3494(10) 0.571(2) 0.2261(12)
loop_
_geom_bond_atom_site_label_1
_geom_bond_atom_site_label_2
_geom_bond_site_symmetry_1
_geom_bond_site_symmetry_2
Ag1 N1 1_555 1_555
Cl1 O1 1_555 1_555
O2 Cl1 1_555 1_555
O3 Cl1 1_555 1_555
O4 Cl1 1_555 1_555
N1 H1 1_555 1_555
H2 N1 1_555 1_555
N2 Ag1 1_555 1_555
N3 Ag1 1_555 1_555
H3 N3 1_555 1_555
H4 N3 1_555 1_555
N4 H5 1_555 1_555
H6 N4 1_555 1_555
C1 N1 1_555 1_555
H7 C1 1_555 1_555
H8 C1 1_555 1_555
C2 N2 1_555 1_555
H9 C2 1_555 1_555
H10 C2 1_555 1_555
C3 N2 1_555 1_555
H11 C3 1_555 1_555
H12 C3 1_555 1_555
C4 N3 1_555 1_555
H13 C4 1_555 1_555
H14 C4 1_555 1_555
C5 N2 1_555 1_555
H15 C5 1_555 1_555
H16 C5 1_555 1_555
C6 N4 1_555 1_555
H17 C6 1_555 1_555
H18 C6 1_555 1_555
Ag1B N4 1_555 1_555
N4B Ag1 1_555 1_555
H5B N4B 1_555 1_555
H6B N4B 1_555 1_555
C1 C2 1_555 1_555
C3 C4 1_555 1_555
C5 C6 1_555 1_555

#END
