
#######################################################################
#
#                 Cambridge Crystallographic Data Centre
#                                CCDC 
#
#######################################################################
#
# If this CIF has been generated from an entry in the Cambridge 
# Structural Database, then it will include bibliographic, chemical, 
# crystal, experimental, refinement or atomic coordinate data resulting 
# from the CCDC's data processing and validation procedures.
#
#######################################################################

data_FAXPAW
_symmetry_cell_setting           monoclinic
_symmetry_space_group_name_H-M   'P 2/c'
_symmetry_Int_Tables_number      13
_space_group_name_Hall           '-P 2yc'
loop_
_symmetry_equiv_pos_site_id
_symmetry_equiv_pos_as_xyz
1 x,y,z
2 -x,y,1/2-z
3 -x,-y,-z
4 x,-y,1/2+z
_cell_length_a                   6.9541(12)
_cell_length_b                   11.465(2)
_cell_length_c                   12.059(2)
_cell_angle_alpha                90
_cell_angle_beta                 113.547(3)
_cell_angle_gamma                90
_cell_volume                     881.392
loop_
_atom_site_label
_atom_site_type_symbol
_atom_site_fract_x
_atom_site_fract_y
_atom_site_fract_z
Fe1 Fe 0.5000 0.607200(19) 0.7500
O1 O 0.78292(15) 0.62116(8) 0.90836(8)
H1 H 0.871(2) 0.6560(15) 0.8951(15)
H2 H 0.811(3) 0.6225(14) 0.9806(12)
O2 O 0.30592(15) 0.59525(8) 0.84938(9)
H3 H 0.243(2) 0.5359(12) 0.8438(15)
H4 H 0.226(2) 0.6478(13) 0.8488(15)
N1 N 0.5000 0.41972(12) 0.7500
N2 N 0.5000 -0.20021(12) 0.7500
C1 C 0.59244(19) 0.35897(11) 0.85306(10)
H5 H 0.6581 0.4008 0.9266
C2 C 0.59655(18) 0.23832(10) 0.85715(10)
H6 H 0.6643 0.1989 0.9321
C3 C 0.5000 0.17500(14) 0.7500
C4 C 0.5000 0.04574(14) 0.7500
C5 C 0.53400(18) -0.01810(10) 0.85454(10)
H7 H 0.5585 0.0212 0.9283
C6 C 0.53211(18) -0.13899(11) 0.85098(10)
H8 H 0.5546 -0.1805 0.9233
Fe1_2 Fe 0.5000 -0.392800(19) 0.7500
O1A O 0.21708(15) 0.62116(8) 0.59164(8)
H1A H 0.129(2) 0.6560(15) 0.6049(15)
H2A H 0.189(3) 0.6225(14) 0.5194(12)
O2A O 0.69408(15) 0.59525(8) 0.65062(9)
H3A H 0.757(2) 0.5359(12) 0.6562(15)
H4A H 0.774(2) 0.6478(13) 0.6512(15)
N2_2 N 0.5000 0.79979(12) 0.7500
C1A C 0.40756(19) 0.35897(11) 0.64694(10)
H5A H 0.3419 0.4008 0.5734
C2A C 0.40345(18) 0.23832(10) 0.64285(10)
H6A H 0.3357 0.1989 0.5679
C5A C 0.46600(18) -0.01810(10) 0.64546(10)
H7A H 0.4415 0.0212 0.5717
C6A C 0.46789(18) -0.13899(11) 0.64902(10)
H8A H 0.4454 -0.1805 0.5767
O3 O 0.10540(15) 1.38756(7) 0.84835(8)
O4 O 0.05257(14) 0.77563(8) 0.85102(8)
C7 C 0.0000 1.33655(14) 0.7500
C8 C 0.0000 1.20380(14) 0.7500
C9 C 0.04473(18) 1.14193(11) 0.85721(10)
H9 H 0.0767 1.1830 0.9309
C10 C 0.04279(18) 1.02034(10) 0.85686(10)
H10 H 0.0709 0.9792 0.9301
C11 C 0.0000 0.95856(14) 0.7500
C12 C 0.0000 0.82673(14) 0.7500
O3A O -0.10540(15) 1.38756(7) 0.65165(8)
O4A O -0.05257(14) 0.77563(8) 0.64898(8)
C9A C -0.04473(18) 1.14193(11) 0.64279(10)
H9A H -0.0767 1.1830 0.5691
C10A C -0.04279(18) 1.02034(10) 0.64314(10)
H10A H -0.0709 0.9792 0.5699
loop_
_geom_bond_atom_site_label_1
_geom_bond_atom_site_label_2
_geom_bond_site_symmetry_1
_geom_bond_site_symmetry_2
Fe1 O1 1_555 1_555
O1 H1 1_555 1_555
H2 O1 1_555 1_555
O2 Fe1 1_555 1_555
H3 O2 1_555 1_555
H4 O2 1_555 1_555
N1 Fe1 1_555 1_555
N2 C6 1_555 1_555
C1 N1 1_555 1_555
H5 C1 1_555 1_555
C2 C1 1_555 1_555
H6 C2 1_555 1_555
C3 C2 1_555 1_555
C4 C3 1_555 1_555
C5 C4 1_555 1_555
H7 C5 1_555 1_555
C6 C5 1_555 1_555
H8 C6 1_555 1_555
O3 C7 1_555 1_555
O4 C12 1_555 1_555
C7 C8 1_555 1_555
C8 C9 1_555 1_555
C9 H9 1_555 1_555
C10 C9 1_555 1_555
H10 C10 1_555 1_555
C11 C10 1_555 1_555
C12 C11 1_555 1_555
Fe1_2 N2 1_555 1_555
O1A Fe1 1_555 1_555
H1A O1A 1_555 1_555
H2A O1A 1_555 1_555
O2A Fe1 1_555 1_555
H3A O2A 1_555 1_555
H4A O2A 1_555 1_555
N2_2 Fe1 1_555 1_555
C1A N1 1_555 1_555
H5A C1A 1_555 1_555
C2A C3 1_555 1_555
H6A C2A 1_555 1_555
C5A C4 1_555 1_555
H7A C5A 1_555 1_555
C6A N2 1_555 1_555
H8A C6A 1_555 1_555
O3A C7 1_555 1_555
O4A C12 1_555 1_555
C9A C8 1_555 1_555
H9A C9A 1_555 1_555
C10A C11 1_555 1_555
H10A C10A 1_555 1_555
C1A C2A 1_555 1_555
C5A C6A 1_555 1_555
C9A C10A 1_555 1_555

#END
