
#######################################################################
#
#                 Cambridge Crystallographic Data Centre
#                                CCDC 
#
#######################################################################
#
# If this CIF has been generated from an entry in the Cambridge 
# Structural Database, then it will include bibliographic, chemical, 
# crystal, experimental, refinement or atomic coordinate data resulting 
# from the CCDC's data processing and validation procedures.
#
#######################################################################

data_FAYMUO
_symmetry_cell_setting           monoclinic
_symmetry_space_group_name_H-M   'P 21/c'
_symmetry_Int_Tables_number      14
_space_group_name_Hall           '-P 2ybc'
loop_
_symmetry_equiv_pos_site_id
_symmetry_equiv_pos_as_xyz
1 x,y,z
2 -x,1/2+y,1/2-z
3 -x,-y,-z
4 x,1/2-y,1/2+z
_cell_length_a                   5.737(2)
_cell_length_b                   18.801(6)
_cell_length_c                   16.518(6)
_cell_angle_alpha                90
_cell_angle_beta                 93.368(4)
_cell_angle_gamma                90
_cell_volume                     1778.58
loop_
_atom_site_label
_atom_site_type_symbol
_atom_site_fract_x
_atom_site_fract_y
_atom_site_fract_z
Ag1 Ag 0.14531(3) 0.366560(10) 0.528990(10)
Ag2 Ag -0.21763(3) 0.475800(10) 0.558570(10)
F1 F 0.2934(3) 0.49447(8) 0.80268(9)
F2 F 0.6096(2) 0.49830(8) 0.73620(10)
F3 F 0.1590(2) 0.62219(8) 0.74880(9)
F4 F 0.5150(3) 0.62023(8) 0.80215(8)
F5 F 0.4417(3) 0.71047(7) 0.67759(9)
F6 F 0.6946(2) 0.62704(8) 0.65825(9)
O1 O 0.3457(3) 0.43461(9) 0.62410(10)
O2 O 0.0418(3) 0.50577(9) 0.65070(10)
O3 O 0.1471(3) 0.65412(9) 0.56550(10)
O4 O 0.4221(3) 0.57173(8) 0.54231(9)
O5 O -0.0024(3) 0.30100(10) 0.64850(10)
N1 N 0.3859(4) 0.26550(10) 0.50850(10)
C1 C 0.5003(5) 0.21740(10) 0.5042(2)
C2 C 0.6495(5) 0.15510(10) 0.5004(2)
C3 C 0.8566(5) 0.1523(2) 0.5477(2)
C4 C 0.9924(5) 0.0914(2) 0.5471(2)
C5 C 0.9275(5) 0.03300(10) 0.4995(2)
C6 C 0.7214(6) 0.0380(2) 0.4518(2)
C7 C 0.5832(6) 0.0980(2) 0.4523(2)
C8 C 0.2439(4) 0.48190(10) 0.66070(10)
C9 C 0.3830(4) 0.51800(10) 0.73290(10)
C10 C 0.3769(4) 0.60010(10) 0.73610(10)
C11 C 0.4637(4) 0.64020(10) 0.66190(10)
C12 C 0.3286(4) 0.62130(10) 0.58110(10)
C13 C -0.2162(5) 0.3169(2) 0.6852(2)
C14 C -0.1449(6) 0.3453(2) 0.7673(2)
C15 C 0.0685(6) 0.3005(2) 0.7922(2)
C16 C 0.1618(5) 0.2784(2) 0.7128(2)
H1 H 0.9052 0.1918 0.5803
H2 H 1.1335 0.0896 0.5801
H3 H 0.6742 -0.0009 0.4178
H4 H 0.4418 0.1000 0.4194
H5 H -0.3030 0.3515 0.6543
H6 H -0.3076 0.2751 0.6895
H7 H -0.1059 0.3943 0.7648
H8 H -0.2651 0.3388 0.8037
H9 H 0.1807 0.3278 0.8232
H10 H 0.0258 0.2601 0.8225
H11 H 0.1790 0.2281 0.7113
H12 H 0.3090 0.3002 0.7066
Ag1B Ag -0.14531(3) 0.633440(10) 0.471010(10)
Ag1B_2 Ag 1.85469(3) -0.366560(10) 0.471010(10)
Ag2B Ag 0.21763(3) 0.524200(10) 0.441430(10)
F1B F -0.2934(3) 0.50553(8) 0.19732(9)
F2B F -0.6096(2) 0.50170(8) 0.26380(10)
F3B F -0.1590(2) 0.37781(8) 0.25120(9)
F4B F -0.5150(3) 0.37977(8) 0.19785(8)
F5B F -0.4417(3) 0.28953(7) 0.32241(9)
F6B F -0.6946(2) 0.37296(8) 0.34175(9)
O1B O -0.3457(3) 0.56539(9) 0.37590(10)
O2B O -0.0418(3) 0.49423(9) 0.34930(10)
O3B O -0.1471(3) 0.34588(9) 0.43450(10)
O4B O -0.4221(3) 0.42827(8) 0.45769(9)
O5B O 0.0024(3) 0.69900(10) 0.35150(10)
N1B N 1.6141(4) -0.26550(10) 0.49150(10)
N1B_2 N -0.3859(4) 0.73450(10) 0.49150(10)
C1B C 1.4997(5) -0.21740(10) 0.4958(2)
C2B C 1.3505(5) -0.15510(10) 0.4996(2)
C3B C 1.1434(5) -0.1523(2) 0.4523(2)
C4B C 1.0076(5) -0.0914(2) 0.4529(2)
C5B C 1.0725(5) -0.03300(10) 0.5005(2)
C6B C 1.2786(6) -0.0380(2) 0.5482(2)
C7B C 1.4168(6) -0.0980(2) 0.5477(2)
C8B C -0.2439(4) 0.51810(10) 0.33930(10)
C9B C -0.3830(4) 0.48200(10) 0.26710(10)
C10B C -0.3769(4) 0.39990(10) 0.26390(10)
C11B C -0.4637(4) 0.35980(10) 0.33810(10)
C12B C -0.3286(4) 0.37870(10) 0.41890(10)
C13B C 0.2162(5) 0.6831(2) 0.3148(2)
C14B C 0.1449(6) 0.6547(2) 0.2327(2)
C15B C -0.0685(6) 0.6995(2) 0.2078(2)
C16B C -0.1618(5) 0.7216(2) 0.2872(2)
H1B H 1.0948 -0.1918 0.4197
H2B H 0.8665 -0.0896 0.4199
H3B H 1.3258 0.0009 0.5822
H4B H 1.5582 -0.1000 0.5806
H5B H 0.3030 0.6485 0.3457
H6B H 0.3076 0.7249 0.3105
H7B H 0.1059 0.6057 0.2352
H8B H 0.2651 0.6612 0.1963
H9B H -0.1807 0.6722 0.1768
H10B H -0.0258 0.7399 0.1775
H11B H -0.1790 0.7719 0.2887
H12B H -0.3090 0.6998 0.2934
loop_
_geom_bond_atom_site_label_1
_geom_bond_atom_site_label_2
_geom_bond_site_symmetry_1
_geom_bond_site_symmetry_2
Ag1 O1 1_555 1_555
Ag2 O2 1_555 1_555
F1 C9 1_555 1_555
F2 C9 1_555 1_555
F3 C10 1_555 1_555
F4 C10 1_555 1_555
F5 C11 1_555 1_555
F6 C11 1_555 1_555
O1 C8 1_555 1_555
O2 C8 1_555 1_555
O3 C12 1_555 1_555
O4 C12 1_555 1_555
O5 Ag1 1_555 1_555
N1 Ag1 1_555 1_555
C1 N1 1_555 1_555
C2 C1 1_555 1_555
C3 C2 1_555 1_555
C4 C3 1_555 1_555
C5 C4 1_555 1_555
C6 C5 1_555 1_555
C7 C2 1_555 1_555
C8 C9 1_555 1_555
C9 C10 1_555 1_555
C10 C11 1_555 1_555
C11 C12 1_555 1_555
C13 O5 1_555 1_555
C14 C13 1_555 1_555
C15 C14 1_555 1_555
C16 O5 1_555 1_555
H1 C3 1_555 1_555
H2 C4 1_555 1_555
H3 C6 1_555 1_555
H4 C7 1_555 1_555
H5 C13 1_555 1_555
H6 C13 1_555 1_555
H7 C14 1_555 1_555
H8 C14 1_555 1_555
H9 C15 1_555 1_555
H10 C15 1_555 1_555
H11 C16 1_555 1_555
H12 C16 1_555 1_555
Ag1B O3 1_555 1_555
Ag1B_2 N1B 1_555 1_555
Ag2B O4 1_555 1_555
F1B C9B 1_555 1_555
F2B C9B 1_555 1_555
F3B C10B 1_555 1_555
F4B C10B 1_555 1_555
F5B C11B 1_555 1_555
F6B C11B 1_555 1_555
O1B Ag1B 1_555 1_555
O2B Ag2B 1_555 1_555
O3B Ag1 1_555 1_555
O4B Ag2 1_555 1_555
O5B Ag1B 1_555 1_555
N1B C1B 1_555 1_555
N1B_2 Ag1B 1_555 1_555
C1B C2B 1_555 1_555
C2B C3B 1_555 1_555
C3B C4B 1_555 1_555
C4B C5B 1_555 1_555
C5B C5 1_555 1_555
C6B C5B 1_555 1_555
C7B C2B 1_555 1_555
C8B O1B 1_555 1_555
C9B C8B 1_555 1_555
C10B C9B 1_555 1_555
C11B C10B 1_555 1_555
C12B O3B 1_555 1_555
C13B O5B 1_555 1_555
C14B C13B 1_555 1_555
C15B C14B 1_555 1_555
C16B O5B 1_555 1_555
H1B C3B 1_555 1_555
H2B C4B 1_555 1_555
H3B C6B 1_555 1_555
H4B C7B 1_555 1_555
H5B C13B 1_555 1_555
H6B C13B 1_555 1_555
H7B C14B 1_555 1_555
H8B C14B 1_555 1_555
H9B C15B 1_555 1_555
H10B C15B 1_555 1_555
H11B C16B 1_555 1_555
H12B C16B 1_555 1_555
C6 C7 1_555 1_555
C15 C16 1_555 1_555
O2B C8B 1_555 1_555
O4B C12B 1_555 1_555
C6B C7B 1_555 1_555
C11B C12B 1_555 1_555
C15B C16B 1_555 1_555

#END
