
#######################################################################
#
#                 Cambridge Crystallographic Data Centre
#                                CCDC 
#
#######################################################################
#
# If this CIF has been generated from an entry in the Cambridge 
# Structural Database, then it will include bibliographic, chemical, 
# crystal, experimental, refinement or atomic coordinate data resulting 
# from the CCDC's data processing and validation procedures.
#
#######################################################################

data_FAYNAV
_symmetry_cell_setting           triclinic
_symmetry_space_group_name_H-M   'P -1'
_symmetry_Int_Tables_number      2
_space_group_name_Hall           '-P 1'
loop_
_symmetry_equiv_pos_site_id
_symmetry_equiv_pos_as_xyz
1 x,y,z
2 -x,-y,-z
_cell_length_a                   9.3325(8)
_cell_length_b                   10.7217(9)
_cell_length_c                   14.2612(12)
_cell_angle_alpha                77.4000(10)
_cell_angle_beta                 71.9610(10)
_cell_angle_gamma                65.4370(10)
_cell_volume                     1227.44
loop_
_atom_site_label
_atom_site_type_symbol
_atom_site_fract_x
_atom_site_fract_y
_atom_site_fract_z
Zn1 Zn 0.55742(5) 0.80056(4) 0.80567(3)
O1 O 0.6874(3) 0.7143(3) 0.68536(18)
O2 O 0.8503(4) 0.5453(3) 0.7677(2)
O3 O 0.4106(3) 0.9897(3) 0.77249(19)
O4 O 0.1823(4) 1.1036(3) 0.7250(2)
N1 N 0.3846(4) 0.6989(3) 0.8445(2)
N2 N 0.5113(3) 0.7594(3) 0.9581(2)
N3 N 0.7246(4) 0.8593(3) 0.8443(2)
C1 C 0.3308(6) 0.6656(5) 0.7803(3)
H3 H 0.3655 0.6906 0.7130
C2 C 0.2282(5) 0.5970(5) 0.8089(3)
H4 H 0.1906 0.5782 0.7623
C3 C 0.1804(5) 0.5557(5) 0.9083(3)
H5 H 0.1125 0.5063 0.9296
C4 C 0.2346(5) 0.5887(4) 0.9758(3)
H6 H 0.2033 0.5624 1.0432
C5 C 0.3352(4) 0.6609(4) 0.9416(3)
C6 C 0.4022(4) 0.7033(4) 1.0072(3)
C7 C 0.3563(5) 0.6868(4) 1.1099(3)
H7 H 0.2802 0.6471 1.1430
C8 C 0.4280(4) 0.7318(4) 1.1631(3)
C9 C 0.5411(4) 0.7898(4) 1.1097(3)
H8 H 0.5893 0.8211 1.1428
C10 C 0.5821(4) 0.8011(4) 1.0075(3)
C11 C 0.7058(4) 0.8580(4) 0.9421(3)
C12 C 0.7962(5) 0.9018(5) 0.9773(3)
H9 H 0.7805 0.9010 1.0451
C13 C 0.9121(6) 0.9474(5) 0.9090(4)
H10 H 0.9750 0.9780 0.9308
C14 C 0.9330(5) 0.9472(5) 0.8099(3)
H11 H 1.0113 0.9757 0.7634
C15 C 0.8360(5) 0.9041(5) 0.7806(3)
H12 H 0.8485 0.9062 0.7131
C16 C 0.3821(5) 0.7180(4) 1.2732(3)
C17 C 0.2233(5) 0.7366(4) 1.3264(3)
H13 H 0.1441 0.7557 1.2930
C18 C 0.1830(6) 0.7268(5) 1.4286(3)
H14 H 0.0758 0.7428 1.4635
C19 C 0.2990(7) 0.6937(5) 1.4791(3)
H15 H 0.2712 0.6856 1.5481
C20 C 0.4576(7) 0.6725(5) 1.4273(3)
H16 H 0.5371 0.6483 1.4615
C21 C 0.4990(5) 0.6870(4) 1.3249(3)
H17 H 0.6052 0.6761 1.2905
C22 C 0.8120(4) 0.6050(4) 0.6897(3)
C23 C 0.8520(4) 0.6085(4) 0.5075(3)
H18 H 0.7527 0.6823 0.5120
C24 C 0.9103(4) 0.5502(4) 0.5916(2)
C25 C 1.0596(4) 0.4421(4) 0.5834(3)
H19 H 1.1009 0.4030 0.6391
C26 C 0.3292(5) 1.0370(4) 0.7069(3)
C27 C 0.5817(5) 1.0008(4) 0.5657(3)
H20 H 0.6369 1.0019 0.6096
C28 C 0.4197(5) 1.0149(4) 0.5997(3)
C29 C 0.3388(5) 1.0148(4) 0.5331(3)
H21 H 0.2300 1.0253 0.5550
Zn1A Zn 1.44258(5) 0.19944(4) 0.19433(3)
Zn1A_2 Zn 0.44258(5) 1.19944(4) 0.19433(3)
O1A O 1.3126(3) 0.2857(3) 0.31464(18)
O2A O 1.1497(4) 0.4547(3) 0.2323(2)
O3A O 0.5894(3) 1.0103(3) 0.22751(19)
O3A_2 O 1.5894(3) 0.0103(3) 0.22751(19)
O4A O 0.8177(4) 0.8964(3) 0.2750(2)
N1A N 1.6154(4) 0.3011(3) 0.1555(2)
N2A N 1.4887(3) 0.2406(3) 0.0419(2)
N3A N 1.2754(4) 0.1407(3) 0.1557(2)
C1A C 1.6692(6) 0.3344(5) 0.2197(3)
H3A H 1.6345 0.3094 0.2870
C2A C 1.7718(5) 0.4030(5) 0.1911(3)
H4A H 1.8094 0.4218 0.2377
C3A C 1.8196(5) 0.4443(5) 0.0917(3)
H5A H 1.8875 0.4937 0.0704
C4A C 1.7654(5) 0.4113(4) 0.0242(3)
H6A H 1.7967 0.4376 -0.0432
C5A C 1.6648(4) 0.3391(4) 0.0584(3)
C6A C 1.5978(4) 0.2967(4) -0.0072(3)
C7A C 1.6437(5) 0.3132(4) -0.1099(3)
H7A H 1.7198 0.3529 -0.1430
C8A C 1.5720(4) 0.2682(4) -0.1631(3)
C9A C 1.4589(4) 0.2102(4) -0.1097(3)
H8A H 1.4107 0.1789 -0.1428
C10A C 1.4179(4) 0.1989(4) -0.0075(3)
C11A C 1.2942(4) 0.1420(4) 0.0579(3)
C12A C 1.2038(5) 0.0982(5) 0.0227(3)
H9A H 1.2195 0.0990 -0.0451
C13A C 1.0879(6) 0.0526(5) 0.0910(4)
H10A H 1.0250 0.0220 0.0692
C14A C 1.0670(5) 0.0528(5) 0.1901(3)
H11A H 0.9887 0.0243 0.2366
C15A C 1.1640(5) 0.0959(5) 0.2194(3)
H12A H 1.1515 0.0938 0.2869
C16A C 1.6179(5) 0.2820(4) -0.2732(3)
C17A C 1.7767(5) 0.2634(4) -0.3264(3)
H13A H 1.8559 0.2443 -0.2930
C18A C 1.8170(6) 0.2732(5) -0.4286(3)
H14A H 1.9242 0.2572 -0.4635
C19A C 1.7010(7) 0.3063(5) -0.4791(3)
H15A H 1.7288 0.3144 -0.5481
C20A C 1.5424(7) 0.3275(5) -0.4273(3)
H16A H 1.4629 0.3517 -0.4615
C21A C 1.5010(5) 0.3130(4) -0.3249(3)
H17A H 1.3948 0.3239 -0.2905
C22A C 1.1880(4) 0.3950(4) 0.3103(3)
C23A C 1.1480(4) 0.3915(4) 0.4925(3)
H18A H 1.2473 0.3177 0.4880
C24A C 1.0897(4) 0.4498(4) 0.4084(2)
C25A C 0.9404(4) 0.5579(4) 0.4166(3)
H19A H 0.8991 0.5970 0.3609
C26A C 0.6708(5) 0.9630(4) 0.2931(3)
C27A C 0.4183(5) 0.9992(4) 0.4343(3)
H20A H 0.3631 0.9981 0.3904
C28A C 0.5803(5) 0.9851(4) 0.4003(3)
C29A C 0.6612(5) 0.9852(4) 0.4669(3)
H21A H 0.7700 0.9747 0.4450
O5 O 1.0925(5) 0.3219(5) 0.8351(3)
H1 H 1.031(4) 0.397(2) 0.809(3)
H2 H 1.067(6) 0.256(3) 0.830(4)
loop_
_geom_bond_atom_site_label_1
_geom_bond_atom_site_label_2
_geom_bond_site_symmetry_1
_geom_bond_site_symmetry_2
Zn1 O1 1_555 1_555
O1 C22 1_555 1_555
O2 C22 1_555 1_555
O3 Zn1 1_555 1_555
O4 C26 1_555 1_555
O5 H1 1_555 1_555
H2 O5 1_555 1_555
N1 Zn1 1_555 1_555
N2 Zn1 1_555 1_555
N3 Zn1 1_555 1_555
C1 N1 1_555 1_555
H3 C1 1_555 1_555
C2 C1 1_555 1_555
H4 C2 1_555 1_555
C3 C2 1_555 1_555
H5 C3 1_555 1_555
C4 C3 1_555 1_555
H6 C4 1_555 1_555
C5 N1 1_555 1_555
C6 N2 1_555 1_555
C7 C6 1_555 1_555
H7 C7 1_555 1_555
C8 C7 1_555 1_555
C9 C8 1_555 1_555
H8 C9 1_555 1_555
C10 N2 1_555 1_555
C11 N3 1_555 1_555
C12 C11 1_555 1_555
H9 C12 1_555 1_555
C13 C12 1_555 1_555
H10 C13 1_555 1_555
C14 C13 1_555 1_555
H11 C14 1_555 1_555
C15 N3 1_555 1_555
H12 C15 1_555 1_555
C16 C8 1_555 1_555
C17 C16 1_555 1_555
H13 C17 1_555 1_555
C18 C17 1_555 1_555
H14 C18 1_555 1_555
C19 C18 1_555 1_555
H15 C19 1_555 1_555
C20 C19 1_555 1_555
H16 C20 1_555 1_555
C21 C16 1_555 1_555
H17 C21 1_555 1_555
C22 C24 1_555 1_555
C23 H18 1_555 1_555
C24 C23 1_555 1_555
C25 C24 1_555 1_555
H19 C25 1_555 1_555
C26 O3 1_555 1_555
C27 H20 1_555 1_555
C28 C26 1_555 1_555
C29 C28 1_555 1_555
H21 C29 1_555 1_555
Zn1A O1A 1_555 1_555
Zn1A_2 O3A 1_555 1_555
O1A C22A 1_555 1_555
O2A C22A 1_555 1_555
O3A C26A 1_555 1_555
O3A_2 Zn1A 1_555 1_555
O4A C26A 1_555 1_555
N1A Zn1A 1_555 1_555
N2A Zn1A 1_555 1_555
N3A Zn1A 1_555 1_555
C1A N1A 1_555 1_555
H3A C1A 1_555 1_555
C2A C1A 1_555 1_555
H4A C2A 1_555 1_555
C3A C2A 1_555 1_555
H5A C3A 1_555 1_555
C4A C3A 1_555 1_555
H6A C4A 1_555 1_555
C5A N1A 1_555 1_555
C6A N2A 1_555 1_555
C7A C6A 1_555 1_555
H7A C7A 1_555 1_555
C8A C7A 1_555 1_555
C9A C8A 1_555 1_555
H8A C9A 1_555 1_555
C10A N2A 1_555 1_555
C11A N3A 1_555 1_555
C12A C11A 1_555 1_555
H9A C12A 1_555 1_555
C13A C12A 1_555 1_555
H10A C13A 1_555 1_555
C14A C13A 1_555 1_555
H11A C14A 1_555 1_555
C15A N3A 1_555 1_555
H12A C15A 1_555 1_555
C16A C8A 1_555 1_555
C17A C16A 1_555 1_555
H13A C17A 1_555 1_555
C18A C17A 1_555 1_555
H14A C18A 1_555 1_555
C19A C18A 1_555 1_555
H15A C19A 1_555 1_555
C20A C19A 1_555 1_555
H16A C20A 1_555 1_555
C21A C16A 1_555 1_555
H17A C21A 1_555 1_555
C22A C24A 1_555 1_555
C23A C25 1_555 1_555
H18A C23A 1_555 1_555
C24A C23A 1_555 1_555
C25A C23 1_555 1_555
H19A C25A 1_555 1_555
C26A C28A 1_555 1_555
C27A C29 1_555 1_555
H20A C27A 1_555 1_555
C28A C27A 1_555 1_555
C29A C27 1_555 1_555
H21A C29A 1_555 1_555
C4 C5 1_555 1_555
C5 C6 1_555 1_555
C9 C10 1_555 1_555
C10 C11 1_555 1_555
C14 C15 1_555 1_555
C20 C21 1_555 1_555
C27 C28 1_555 1_555
C4A C5A 1_555 1_555
C5A C6A 1_555 1_555
C9A C10A 1_555 1_555
C10A C11A 1_555 1_555
C14A C15A 1_555 1_555
C20A C21A 1_555 1_555
C24A C25A 1_555 1_555
C28A C29A 1_555 1_555

#END
