
#######################################################################
#
#                 Cambridge Crystallographic Data Centre
#                                CCDC 
#
#######################################################################
#
# If this CIF has been generated from an entry in the Cambridge 
# Structural Database, then it will include bibliographic, chemical, 
# crystal, experimental, refinement or atomic coordinate data resulting 
# from the CCDC's data processing and validation procedures.
#
#######################################################################

data_FAYNEZ
_symmetry_cell_setting           monoclinic
_symmetry_space_group_name_H-M   'P 21/n'
_symmetry_Int_Tables_number      14
_space_group_name_Hall           '-P 2yn'
loop_
_symmetry_equiv_pos_site_id
_symmetry_equiv_pos_as_xyz
1 x,y,z
2 1/2-x,1/2+y,1/2-z
3 -x,-y,-z
4 1/2+x,1/2-y,1/2+z
_cell_length_a                   7.7115(7)
_cell_length_b                   18.8101(16)
_cell_length_c                   15.2619(13)
_cell_angle_alpha                90
_cell_angle_beta                 97.0230(10)
_cell_angle_gamma                90
_cell_volume                     2197.19
loop_
_atom_site_label
_atom_site_type_symbol
_atom_site_fract_x
_atom_site_fract_y
_atom_site_fract_z
Ni1 Ni 0.21040(4) 0.137191(18) 0.18383(2)
O1 O 0.2894(2) 0.12433(11) 0.31981(12)
O2 O 0.4789(2) 0.13117(10) 0.22390(12)
O3 O 0.9807(2) 0.06277(10) 0.57842(13)
O4 O 1.6570(2) 0.25083(10) 0.68540(13)
O5 O 1.4543(2) 0.33308(11) 0.68169(12)
N1 N 0.2205(3) 0.13505(13) 0.04955(15)
N2 N 0.1922(3) 0.02964(13) 0.16347(15)
C1 C 0.2298(5) 0.1885(2) -0.0068(2)
H1 H 0.2166 0.2348 0.0127
C2 C 0.2586(6) 0.1776(3) -0.0937(2)
H2 H 0.2653 0.2161 -0.1312
C3 C 0.2767(6) 0.1109(3) -0.1235(2)
H3 H 0.2956 0.1036 -0.1819
C4 C 0.2673(4) 0.0528(2) -0.0672(2)
C5 C 0.2839(6) -0.0204(3) -0.0913(3)
H4 H 0.3057 -0.0312 -0.1484
C6 C 0.2694(6) -0.0729(3) -0.0355(4)
H5 H 0.2807 -0.1195 -0.0543
C7 C 0.2362(4) -0.0598(2) 0.0546(3)
C8 C 0.2149(5) -0.1117(2) 0.1196(4)
H6 H 0.2241 -0.1597 0.1060
C9 C 0.1813(5) -0.0923(2) 0.2014(4)
H7 H 0.1656 -0.1267 0.2435
C10 C 0.1708(4) -0.02169(18) 0.2216(2)
H8 H 0.1479 -0.0090 0.2779
C11 C 0.2226(3) 0.01108(16) 0.0812(2)
C12 C 0.2379(4) 0.06822(18) 0.01926(19)
C13 C 0.4455(4) 0.12343(14) 0.30275(17)
C14 C 0.5908(3) 0.11014(14) 0.37514(17)
C15 C 0.7646(3) 0.11837(14) 0.36152(18)
H9 H 0.7925 0.1329 0.3067
C16 C 0.8961(3) 0.10493(15) 0.42955(19)
H10 H 1.0124 0.1116 0.4212
C17 C 0.8533(3) 0.08164(14) 0.50973(17)
C18 C 0.6833(4) 0.07220(16) 0.52333(17)
H11 H 0.6566 0.0558 0.5776
C19 C 0.5508(3) 0.08705(15) 0.45635(17)
H12 H 0.4347 0.0815 0.4659
C20 C 1.1038(3) 0.11439(14) 0.60717(17)
C21 C 1.0558(3) 0.18386(15) 0.6197(2)
H13 H 0.9388 0.1971 0.6106
C22 C 1.1840(4) 0.23382(15) 0.64624(19)
H14 H 1.1533 0.2811 0.6535
C23 C 1.3576(3) 0.21351(14) 0.66187(16)
C24 C 1.3999(4) 0.14246(14) 0.65553(18)
H15 H 1.5153 0.1281 0.6698
C25 C 1.2728(3) 0.09220(15) 0.62819(17)
H16 H 1.3020 0.0444 0.6243
C26 C 1.4973(3) 0.26840(15) 0.67867(16)
Ni1C Ni 1.71040(4) 0.362809(18) 0.68383(2)
O4C O 0.1570(2) 0.24917(10) 0.18540(13)
O5C O -0.0457(2) 0.16692(11) 0.18169(12)
O6 O 0.2333(19) 0.2331(7) 0.4311(9)
loop_
_geom_bond_atom_site_label_1
_geom_bond_atom_site_label_2
_geom_bond_site_symmetry_1
_geom_bond_site_symmetry_2
Ni1 O1 1_555 1_555
O1 C13 1_555 1_555
O2 Ni1 1_555 1_555
O3 C17 1_555 1_555
O4 C26 1_555 1_555
O5 C26 1_555 1_555
N1 Ni1 1_555 1_555
N2 Ni1 1_555 1_555
C1 N1 1_555 1_555
H1 C1 1_555 1_555
C2 C1 1_555 1_555
H2 C2 1_555 1_555
C3 C2 1_555 1_555
H3 C3 1_555 1_555
C4 C3 1_555 1_555
C5 C4 1_555 1_555
H4 C5 1_555 1_555
C6 C5 1_555 1_555
H5 C6 1_555 1_555
C7 C6 1_555 1_555
C8 C7 1_555 1_555
H6 C8 1_555 1_555
C9 C8 1_555 1_555
H7 C9 1_555 1_555
C10 N2 1_555 1_555
H8 C10 1_555 1_555
C11 N2 1_555 1_555
C12 N1 1_555 1_555
C13 O2 1_555 1_555
C14 C13 1_555 1_555
C15 C14 1_555 1_555
H9 C15 1_555 1_555
C16 C15 1_555 1_555
H10 C16 1_555 1_555
C17 C16 1_555 1_555
C18 C17 1_555 1_555
H11 C18 1_555 1_555
C19 C14 1_555 1_555
H12 C19 1_555 1_555
C20 O3 1_555 1_555
C21 C20 1_555 1_555
H13 C21 1_555 1_555
C22 C21 1_555 1_555
H14 C22 1_555 1_555
C23 C22 1_555 1_555
C24 C23 1_555 1_555
H15 C24 1_555 1_555
C25 C20 1_555 1_555
H16 C25 1_555 1_555
C26 C23 1_555 1_555
Ni1C O4 1_555 1_555
O4C Ni1 1_555 1_555
O5C Ni1 1_555 1_555
O5 Ni1C 1_555 1_555
C4 C12 1_555 1_555
C7 C11 1_555 1_555
C9 C10 1_555 1_555
C11 C12 1_555 1_555
C18 C19 1_555 1_555
C24 C25 1_555 1_555

#END
