
#######################################################################
#
#                 Cambridge Crystallographic Data Centre
#                                CCDC 
#
#######################################################################
#
# If this CIF has been generated from an entry in the Cambridge 
# Structural Database, then it will include bibliographic, chemical, 
# crystal, experimental, refinement or atomic coordinate data resulting 
# from the CCDC's data processing and validation procedures.
#
#######################################################################

data_FAYQOM
_symmetry_cell_setting           triclinic
_symmetry_space_group_name_H-M   'P -1'
_symmetry_Int_Tables_number      2
_space_group_name_Hall           '-P 1'
loop_
_symmetry_equiv_pos_site_id
_symmetry_equiv_pos_as_xyz
1 x,y,z
2 -x,-y,-z
_cell_length_a                   8.3601(13)
_cell_length_b                   10.9475(16)
_cell_length_c                   11.0660(16)
_cell_angle_alpha                114.292(3)
_cell_angle_beta                 96.613(3)
_cell_angle_gamma                93.051(3)
_cell_volume                     911.294
loop_
_atom_site_label
_atom_site_type_symbol
_atom_site_fract_x
_atom_site_fract_y
_atom_site_fract_z
Zn1 Zn 0.69656(6) 0.38625(5) 0.15623(5)
O1 O 0.9165(3) 0.3738(3) 0.2192(3)
O2 O 0.8171(4) 0.3044(3) 0.3583(3)
O3 O 0.7174(3) 0.4436(3) 0.0132(3)
O4 O 0.7791(4) 0.2394(3) -0.1065(3)
N1 N 0.6404(4) 0.5662(3) 0.2917(3)
C1 C 0.7176(5) 0.6777(4) 0.2955(4)
H1 H 0.7994 0.6685 0.2418
C2 C 0.6838(5) 0.8054(4) 0.3738(4)
H2 H 0.7398 0.8807 0.3709
C3 C 0.5667(5) 0.8230(4) 0.4571(4)
C4 C 0.4906(5) 0.7074(4) 0.4562(4)
H3 H 0.4115 0.7134 0.5117
C5 C 0.5315(5) 0.5837(4) 0.3738(4)
H4 H 0.4789 0.5066 0.3758
N2 N 0.4982(4) 0.2535(3) 0.1066(3)
C6 C 0.4771(5) 0.1577(4) 0.1494(4)
H5 H 0.5588 0.1521 0.2123
C7 C 0.3406(5) 0.0663(4) 0.1055(4)
H6 H 0.3298 0.0005 0.1390
C8 C 0.2199(5) 0.0712(4) 0.0125(4)
C9 C 0.2425(6) 0.1712(4) -0.0304(5)
H7 H 0.1629 0.1786 -0.0937
C10 C 0.3801(6) 0.2599(4) 0.0185(5)
H8 H 0.3920 0.3284 -0.0113
C11 C 0.5258(5) 0.9623(4) 0.5415(4)
H9 H 0.6207 1.0137 0.6075
H10 H 0.4381 0.9549 0.5906
C12 C 0.0685(5) -0.0274(4) -0.0399(4)
H11 H 0.0927 -0.1120 -0.0350
H12 H 0.0337 -0.0470 -0.1342
C13 C 0.9338(5) 0.3402(4) 0.3158(5)
C14 C 1.1039(5) 0.3442(5) 0.3783(5)
H13 H 1.1026 0.3069 0.4439
H14 H 1.1537 0.4369 0.4220
H15 H 1.1656 0.2916 0.3093
C15 C 0.7730(5) 0.3585(4) -0.0867(4)
C16 C 0.8379(6) 0.4123(5) -0.1768(5)
H16 H 0.8262 0.3412 -0.2669
H17 H 0.9516 0.4453 -0.1445
H18 H 0.7783 0.4857 -0.1777
Zn1A Zn 0.30344(6) 1.61375(5) 0.84377(5)
Zn1A_2 Zn -0.69656(6) -0.38625(5) -0.15623(5)
O1A O 0.0835(3) 1.6262(3) 0.7808(3)
O2A O 0.1829(4) 1.6956(3) 0.6417(3)
O3A O 0.2826(3) 1.5564(3) 0.9868(3)
O4A O 0.2209(4) 1.7606(3) 1.1065(3)
N1A N 0.3596(4) 1.4338(3) 0.7083(3)
C1A C 0.2824(5) 1.3223(4) 0.7045(4)
H1A H 0.2006 1.3315 0.7582
C2A C 0.3162(5) 1.1946(4) 0.6262(4)
H2A H 0.2602 1.1193 0.6291
C3A C 0.4333(5) 1.1770(4) 0.5429(4)
C4A C 0.5094(5) 1.2926(4) 0.5438(4)
H3A H 0.5885 1.2866 0.4883
C5A C 0.4685(5) 1.4163(4) 0.6262(4)
H4A H 0.5211 1.4934 0.6242
N2A N -0.4982(4) -0.2535(3) -0.1066(3)
N2A_2 N 0.5018(4) 1.7465(3) 0.8934(3)
C6A C -0.4771(5) -0.1577(4) -0.1494(4)
H5A H -0.5588 -0.1521 -0.2123
C7A C -0.3406(5) -0.0663(4) -0.1055(4)
H6A H -0.3298 -0.0005 -0.1390
C8A C -0.2199(5) -0.0712(4) -0.0125(4)
C9A C -0.2425(6) -0.1712(4) 0.0304(5)
H7A H -0.1629 -0.1786 0.0937
C10A C -0.3801(6) -0.2599(4) -0.0185(5)
H8A H -0.3920 -0.3284 0.0113
C11A C 0.4742(5) 1.0377(4) 0.4585(4)
H9A H 0.3793 0.9863 0.3925
H10A H 0.5619 1.0451 0.4094
C12A C -0.0685(5) 0.0274(4) 0.0399(4)
H11A H -0.0927 0.1120 0.0350
H12A H -0.0337 0.0470 0.1342
C13A C 0.0662(5) 1.6598(4) 0.6842(5)
C14A C -0.1039(5) 1.6558(5) 0.6217(5)
H13A H -0.1026 1.6931 0.5561
H14A H -0.1537 1.5631 0.5780
H15A H -0.1656 1.7084 0.6907
C15A C 0.2270(5) 1.6415(4) 1.0867(4)
C16A C 0.1621(6) 1.5877(5) 1.1768(5)
H16A H 0.1738 1.6588 1.2669
H17A H 0.0484 1.5547 1.1445
H18A H 0.2217 1.5143 1.1777
O5 O 0.8801(5) 0.1166(4) 0.4570(4)
H19 H 0.873(5) 0.176(3) 0.433(4)
H20 H 0.943(5) 0.070(4) 0.414(4)
O6 O 0.9442(5) 0.0851(4) -0.3075(4)
H21 H 0.885(5) 0.128(5) -0.256(4)
H22 H 0.926(6) 0.106(4) -0.370(3)
loop_
_geom_bond_atom_site_label_1
_geom_bond_atom_site_label_2
_geom_bond_site_symmetry_1
_geom_bond_site_symmetry_2
Zn1 O1 1_555 1_555
O1 C13 1_555 1_555
O2 C13 1_555 1_555
O3 Zn1 1_555 1_555
O4 C15 1_555 1_555
N1 Zn1 1_555 1_555
C1 N1 1_555 1_555
H1 C1 1_555 1_555
C2 C1 1_555 1_555
H2 C2 1_555 1_555
C3 C2 1_555 1_555
C4 C3 1_555 1_555
H3 C4 1_555 1_555
C5 N1 1_555 1_555
H4 C5 1_555 1_555
N2 Zn1 1_555 1_555
C6 N2 1_555 1_555
H5 C6 1_555 1_555
C7 C6 1_555 1_555
H6 C7 1_555 1_555
C8 C7 1_555 1_555
C9 C8 1_555 1_555
H7 C9 1_555 1_555
C10 N2 1_555 1_555
H8 C10 1_555 1_555
C11 C3 1_555 1_555
H9 C11 1_555 1_555
H10 C11 1_555 1_555
C12 C8 1_555 1_555
H11 C12 1_555 1_555
H12 C12 1_555 1_555
C13 C14 1_555 1_555
C14 H13 1_555 1_555
H14 C14 1_555 1_555
H15 C14 1_555 1_555
C15 O3 1_555 1_555
C16 C15 1_555 1_555
H16 C16 1_555 1_555
H17 C16 1_555 1_555
H18 C16 1_555 1_555
O5 H19 1_555 1_555
H20 O5 1_555 1_555
O6 H21 1_555 1_555
H22 O6 1_555 1_555
Zn1A O1A 1_555 1_555
Zn1A_2 N2A 1_555 1_555
O1A C13A 1_555 1_555
O2A C13A 1_555 1_555
O3A Zn1A 1_555 1_555
O4A C15A 1_555 1_555
N1A Zn1A 1_555 1_555
C1A N1A 1_555 1_555
H1A C1A 1_555 1_555
C2A C1A 1_555 1_555
H2A C2A 1_555 1_555
C3A C2A 1_555 1_555
C4A C3A 1_555 1_555
H3A C4A 1_555 1_555
C5A N1A 1_555 1_555
H4A C5A 1_555 1_555
N2A C6A 1_555 1_555
N2A_2 Zn1A 1_555 1_555
C6A H5A 1_555 1_555
C7A C6A 1_555 1_555
H6A C7A 1_555 1_555
C8A C7A 1_555 1_555
C9A C8A 1_555 1_555
H7A C9A 1_555 1_555
C10A N2A 1_555 1_555
H8A C10A 1_555 1_555
C11A C11 1_555 1_555
H9A C11A 1_555 1_555
H10A C11A 1_555 1_555
C12A C12 1_555 1_555
H11A C12A 1_555 1_555
H12A C12A 1_555 1_555
C13A C14A 1_555 1_555
C14A H13A 1_555 1_555
H14A C14A 1_555 1_555
H15A C14A 1_555 1_555
C15A O3A 1_555 1_555
C16A C15A 1_555 1_555
H16A C16A 1_555 1_555
H17A C16A 1_555 1_555
H18A C16A 1_555 1_555
C4 C5 1_555 1_555
C9 C10 1_555 1_555
C3A C11A 1_555 1_555
C4A C5A 1_555 1_555
C8A C12A 1_555 1_555
C9A C10A 1_555 1_555

#END
