
#######################################################################
#
#                 Cambridge Crystallographic Data Centre
#                                CCDC 
#
#######################################################################
#
# If this CIF has been generated from an entry in the Cambridge 
# Structural Database, then it will include bibliographic, chemical, 
# crystal, experimental, refinement or atomic coordinate data resulting 
# from the CCDC's data processing and validation procedures.
#
#######################################################################

data_FAYQUS
_symmetry_cell_setting           monoclinic
_symmetry_space_group_name_H-M   'C c'
_symmetry_Int_Tables_number      9
_space_group_name_Hall           'C -2yc'
loop_
_symmetry_equiv_pos_site_id
_symmetry_equiv_pos_as_xyz
1 x,y,z
2 x,-y,1/2+z
3 1/2+x,1/2+y,z
4 1/2+x,1/2-y,1/2+z
_cell_length_a                   16.4615(4)
_cell_length_b                   10.0537(2)
_cell_length_c                   10.9358(3)
_cell_angle_alpha                90
_cell_angle_beta                 109.5560(10)
_cell_angle_gamma                90
_cell_volume                     1705.46
loop_
_atom_site_label
_atom_site_type_symbol
_atom_site_fract_x
_atom_site_fract_y
_atom_site_fract_z
Zn1 Zn 0.04079(5) 0.453759(18) 0.34554(7)
S1 S -0.01378(6) 0.02378(13) -0.13067(8)
S2 S 0.09531(6) 0.02410(14) -0.17827(8)
N1 N 0.0230(2) 0.3295(4) 0.1915(3)
C1 C 0.0839(3) 0.3076(5) 0.1382(4)
H1 H 0.1348 0.3577 0.1708
C2 C 0.0796(3) 0.2196(4) 0.0410(4)
H2 H 0.1247 0.2104 0.0070
C3 C 0.0045(3) 0.1444(5) -0.0048(4)
C4 C -0.0620(3) 0.1613(4) 0.0438(4)
H3 H -0.1135 0.1125 0.0118
C5 C -0.0486(3) 0.2565(5) 0.1449(4)
H4 H -0.0925 0.2687 0.1809
N2 N 0.0598(2) 0.3269(4) -0.5003(3)
C6 C -0.0054(3) 0.3132(5) -0.4501(4)
H5 H -0.0558 0.3647 -0.4818
C7 C 0.0045(3) 0.2210(5) -0.3506(4)
H6 H -0.0404 0.2105 -0.3163
C8 C 0.0770(3) 0.1458(4) -0.3017(4)
C9 C 0.1430(3) 0.1664(5) -0.3558(5)
H7 H 0.1947 0.1179 -0.3244
C10 C 0.1322(3) 0.2540(5) -0.4509(4)
H8 H 0.1770 0.2656 -0.4853
O1 O 0.1339(2) 0.5759(3) 0.3638(4)
O2 O 0.2339(2) 0.4191(4) 0.3996(4)
C11 C 0.2145(3) 0.5390(5) 0.3955(4)
C12 C 0.2779(3) 0.6454(5) 0.4171(6)
H9 H 0.3300 0.6203 0.4865
H10 H 0.2546 0.7262 0.4409
H11 H 0.2911 0.6606 0.3382
O3 O -0.0547(3) 0.5759(3) 0.3241(4)
O4 O -0.1558(2) 0.4210(3) 0.2901(4)
C13 C -0.1307(3) 0.5365(4) 0.2984(4)
C14 C -0.1997(4) 0.6467(5) 0.2672(6)
H12 H -0.2222 0.6611 0.1742
H13 H -0.1742 0.7284 0.3103
H14 H -0.2463 0.6199 0.2977
Zn1_2 Zn 0.04079(5) 0.453759(18) -0.65446(7)
N2_2 N 0.0598(2) 0.3269(4) 0.4997(3)
loop_
_geom_bond_atom_site_label_1
_geom_bond_atom_site_label_2
_geom_bond_site_symmetry_1
_geom_bond_site_symmetry_2
Zn1 N1 1_555 1_555
S1 S2 1_555 1_555
S2 C8 1_555 1_555
N1 C1 1_555 1_555
C1 H1 1_555 1_555
C2 C1 1_555 1_555
H2 C2 1_555 1_555
C3 S1 1_555 1_555
C4 C3 1_555 1_555
H3 C4 1_555 1_555
C5 N1 1_555 1_555
H4 C5 1_555 1_555
N2 C6 1_555 1_555
C6 H5 1_555 1_555
C7 C6 1_555 1_555
H6 C7 1_555 1_555
C8 C7 1_555 1_555
C9 C8 1_555 1_555
H7 C9 1_555 1_555
C10 N2 1_555 1_555
H8 C10 1_555 1_555
O1 Zn1 1_555 1_555
O2 C11 1_555 1_555
C11 O1 1_555 1_555
C12 C11 1_555 1_555
H9 C12 1_555 1_555
H10 C12 1_555 1_555
H11 C12 1_555 1_555
O3 Zn1 1_555 1_555
O4 C13 1_555 1_555
C13 O3 1_555 1_555
C14 C13 1_555 1_555
H12 C14 1_555 1_555
H13 C14 1_555 1_555
H14 C14 1_555 1_555
Zn1_2 N2 1_555 1_555
N2_2 Zn1 1_555 1_555
C2 C3 1_555 1_555
C4 C5 1_555 1_555
C9 C10 1_555 1_555

#END
