
#######################################################################
#
#                 Cambridge Crystallographic Data Centre
#                                CCDC 
#
#######################################################################
#
# If this CIF has been generated from an entry in the Cambridge 
# Structural Database, then it will include bibliographic, chemical, 
# crystal, experimental, refinement or atomic coordinate data resulting 
# from the CCDC's data processing and validation procedures.
#
#######################################################################

data_FAYXAF
_symmetry_cell_setting           monoclinic
_symmetry_space_group_name_H-M   'C c'
_symmetry_Int_Tables_number      9
_space_group_name_Hall           'C -2yc'
loop_
_symmetry_equiv_pos_site_id
_symmetry_equiv_pos_as_xyz
1 x,y,z
2 x,-y,1/2+z
3 1/2+x,1/2+y,z
4 1/2+x,1/2-y,1/2+z
_cell_length_a                   13.211(3)
_cell_length_b                   7.5637(15)
_cell_length_c                   9.758(2)
_cell_angle_alpha                90
_cell_angle_beta                 130.83(3)
_cell_angle_gamma                90
_cell_volume                     737.781
loop_
_atom_site_label
_atom_site_type_symbol
_atom_site_fract_x
_atom_site_fract_y
_atom_site_fract_z
Co1 Co 0.19075(3) 0.85722(3) -0.00030(4)
O1 O 0.00283(17) 0.7362(2) -0.1506(2)
O2 O -0.12173(17) 0.5371(2) -0.3711(2)
O3 O 0.22839(18) 0.6131(2) -0.0627(3)
O4 O 0.14343(18) 0.9306(2) -0.2454(2)
O5 O 0.12021(19) 0.9035(2) -0.4909(2)
O6 O 0.24999(19) 0.7681(2) 0.2471(2)
C1 C -0.0134(2) 0.6156(3) -0.2523(3)
C2 C 0.1061(2) 0.5588(3) -0.2342(3)
H1 H 0.1058 0.4298 -0.2438
C3 C 0.0945(3) 0.6425(3) -0.3862(4)
H2 H 0.1566 0.5829 -0.3921
H3 H 0.0050 0.6207 -0.4999
C4 C 0.1216(2) 0.8400(3) -0.3696(4)
Co1C Co -0.30925(3) 0.64278(3) -0.50030(4)
Co1A Co 0.19075(3) 1.14278(3) -0.50030(4)
O2C O 0.37827(17) 0.9629(2) 0.1289(2)
O5A O 0.12021(19) 1.0965(2) 0.0091(2)
O7 O 0.3797(3) 0.3481(3) 0.1469(4)
loop_
_geom_bond_atom_site_label_1
_geom_bond_atom_site_label_2
_geom_bond_site_symmetry_1
_geom_bond_site_symmetry_2
Co1 O1 1_555 1_555
O1 C1 1_555 1_555
O2 C1 1_555 1_555
O3 Co1 1_555 1_555
O4 Co1 1_555 1_555
O5 C4 1_555 1_555
O6 Co1 1_555 1_555
C1 C2 1_555 1_555
C2 O3 1_555 1_555
H1 C2 1_555 1_555
C3 C2 1_555 1_555
H2 C3 1_555 1_555
H3 C3 1_555 1_555
C4 O4 1_555 1_555
Co1C O2 1_555 1_555
Co1A O5 1_555 1_555
O2C Co1 1_555 1_555
O5A Co1 1_555 1_555
C3 C4 1_555 1_555

#END
