
#######################################################################
#
#                 Cambridge Crystallographic Data Centre
#                                CCDC 
#
#######################################################################
#
# If this CIF has been generated from an entry in the Cambridge 
# Structural Database, then it will include bibliographic, chemical, 
# crystal, experimental, refinement or atomic coordinate data resulting 
# from the CCDC's data processing and validation procedures.
#
#######################################################################

data_FAZGAQ
_symmetry_cell_setting           monoclinic
_symmetry_space_group_name_H-M   'P 21/n'
_symmetry_Int_Tables_number      14
_space_group_name_Hall           '-P 2yn'
loop_
_symmetry_equiv_pos_site_id
_symmetry_equiv_pos_as_xyz
1 x,y,z
2 1/2-x,1/2+y,1/2-z
3 -x,-y,-z
4 1/2+x,1/2-y,1/2+z
_cell_length_a                   4.0000(3)
_cell_length_b                   31.157(3)
_cell_length_c                   12.9587(12)
_cell_angle_alpha                90
_cell_angle_beta                 94.977(5)
_cell_angle_gamma                90
_cell_volume                     1608.93
loop_
_atom_site_label
_atom_site_type_symbol
_atom_site_fract_x
_atom_site_fract_y
_atom_site_fract_z
Pb1 Pb 0.59116(14) 0.18593(2) 0.56406(5)
O1 O 0.198(3) 0.1534(3) 0.6650(8)
O2 O 0.305(3) -0.0162(3) 0.6059(9)
O3 O 0.175(3) 0.1764(3) 0.4144(8)
O4 O -0.267(3) 0.2522(4) 0.0608(10)
N1 N 0.360(3) 0.0966(4) 0.5740(9)
N2 N 0.383(3) 0.0525(4) 0.5644(9)
H1 H 0.4853 0.0430 0.5133
N3 N -0.055(5) 0.1370(8) 0.8453(15)
H2 H 0.0191 0.1556 0.8039
H3 H -0.1389 0.1453 0.9008
N4 N 0.135(3) 0.2320(5) 0.3061(11)
H4 H 0.2733 0.2451 0.3498
N5 N 0.014(3) 0.2540(4) 0.2151(13)
N6 N -0.119(3) 0.1031(4) 0.3595(11)
H5 H -0.1706 0.0768 0.3702
H6 H 0.0119 0.1167 0.4046
C1 C -0.040(5) 0.0950(6) 0.823(2)
C2 C -0.170(4) 0.0630(8) 0.8883(13)
H7 H -0.2809 0.0717 0.9449
C3 C -0.137(5) 0.0222(7) 0.8707(17)
H8 H -0.2136 0.0026 0.9172
C4 C 0.004(4) 0.0077(6) 0.7871(14)
H9 H 0.0266 -0.0215 0.7757
C5 C 0.116(3) 0.0381(5) 0.7167(12)
C6 C 0.099(4) 0.0833(5) 0.7318(12)
C7 C 0.228(4) 0.1107(5) 0.6544(12)
C8 C 0.261(4) 0.0228(5) 0.6275(13)
C9 C -0.245(4) 0.1236(5) 0.2700(12)
C10 C -0.460(4) 0.1022(6) 0.1943(15)
H10 H -0.5224 0.0738 0.2038
C11 C -0.573(4) 0.1239(5) 0.1081(14)
H11 H -0.7211 0.1101 0.0595
C12 C -0.480(4) 0.1656(6) 0.0887(13)
H12 H -0.5549 0.1786 0.0264
C13 C -0.274(3) 0.1884(5) 0.1621(12)
C14 C -0.150(4) 0.1667(5) 0.2544(12)
C15 C 0.047(3) 0.1916(5) 0.3280(12)
C16 C -0.178(4) 0.2318(6) 0.1459(16)
Pb1_2 Pb -0.40884(14) 0.18593(2) 0.56406(5)
Pb1C Pb 0.09116(14) 0.31407(2) 0.06406(5)
O1_2 O 1.198(3) 0.1534(3) 0.6650(8)
O4C O 0.233(3) 0.2478(4) 0.5608(10)
N5C N 0.514(3) 0.2460(4) 0.7151(13)
O5 O 0.145(10) 0.2233(15) 0.909(4)
loop_
_geom_bond_atom_site_label_1
_geom_bond_atom_site_label_2
_geom_bond_site_symmetry_1
_geom_bond_site_symmetry_2
Pb1 O1 1_555 1_555
O1 C7 1_555 1_555
O2 C8 1_555 1_555
O3 Pb1 1_555 1_555
O4 C16 1_555 1_555
N1 N2 1_555 1_555
N2 H1 1_555 1_555
N3 H2 1_555 1_555
H3 N3 1_555 1_555
N4 H4 1_555 1_555
N5 N4 1_555 1_555
N6 H5 1_555 1_555
H6 N6 1_555 1_555
C1 N3 1_555 1_555
C2 C1 1_555 1_555
H7 C2 1_555 1_555
C3 C2 1_555 1_555
H8 C3 1_555 1_555
C4 C3 1_555 1_555
H9 C4 1_555 1_555
C5 C4 1_555 1_555
C6 C1 1_555 1_555
C7 N1 1_555 1_555
C8 N2 1_555 1_555
C9 N6 1_555 1_555
C10 C9 1_555 1_555
H10 C10 1_555 1_555
C11 C10 1_555 1_555
H11 C11 1_555 1_555
C12 C11 1_555 1_555
H12 C12 1_555 1_555
C13 C12 1_555 1_555
C14 C9 1_555 1_555
C15 O3 1_555 1_555
C16 N5 1_555 1_555
Pb1_2 O1 1_555 1_555
Pb1C O4 1_555 1_555
O1_2 Pb1 1_555 1_555
O4C Pb1 1_555 1_555
N5C Pb1 1_555 1_555
N4 C15 1_555 1_555
N5 Pb1C 1_555 1_555
C5 C6 1_555 1_555
C5 C8 1_555 1_555
C6 C7 1_555 1_555
C13 C14 1_555 1_555
C13 C16 1_555 1_555
C14 C15 1_555 1_555

#END
