
#######################################################################
#
#                 Cambridge Crystallographic Data Centre
#                                CCDC 
#
#######################################################################
#
# If this CIF has been generated from an entry in the Cambridge 
# Structural Database, then it will include bibliographic, chemical, 
# crystal, experimental, refinement or atomic coordinate data resulting 
# from the CCDC's data processing and validation procedures.
#
#######################################################################

data_FAZKUO
_symmetry_cell_setting           monoclinic
_symmetry_space_group_name_H-M   'P 21/n'
_symmetry_Int_Tables_number      14
_space_group_name_Hall           '-P 2yn'
loop_
_symmetry_equiv_pos_site_id
_symmetry_equiv_pos_as_xyz
1 x,y,z
2 1/2-x,1/2+y,1/2-z
3 -x,-y,-z
4 1/2+x,1/2-y,1/2+z
_cell_length_a                   9.3740(2)
_cell_length_b                   13.4679(4)
_cell_length_c                   17.6149(4)
_cell_angle_alpha                90
_cell_angle_beta                 101.118(2)
_cell_angle_gamma                90
_cell_volume                     2182.11
loop_
_atom_site_label
_atom_site_type_symbol
_atom_site_fract_x
_atom_site_fract_y
_atom_site_fract_z
Eu1 Eu 0.71482(2) 0.966216(17) 0.504288(11)
Ag1 Ag 0.72680(4) 0.64050(3) 0.480491(19)
S1 S 0.18648(13) 0.77858(11) 0.42883(8)
O1 O 0.4527(3) 0.9033(2) 0.50905(17)
O2 O 0.6298(3) 0.7951(2) 0.53791(18)
O3 O 0.1624(3) 0.8851(3) 0.43225(19)
O4 O 0.2959(4) 0.7508(4) 0.3861(2)
O5 O 0.0480(4) 0.7282(4) 0.4040(3)
O6 O 0.5609(3) 0.9454(3) 0.37466(17)
O7 O 0.3455(3) 1.0227(3) 0.36762(16)
O8 O 0.8445(3) 1.0436(3) 0.41905(18)
O9 O 1.0701(3) 1.0944(3) 0.42208(16)
O10 O 0.8000(4) 0.8325(3) 0.42326(19)
H1 H 0.8914 0.8369 0.4262
H2 H 0.7587 0.8394 0.3762
N1 N 0.3146(4) 0.8995(3) 0.0998(2)
N2 N 0.8373(4) 1.1195(3) 0.1428(2)
C1 C 0.4982(5) 0.8188(3) 0.5336(3)
C2 C 0.3970(5) 0.7508(4) 0.5640(3)
C3 C 0.2520(5) 0.7350(4) 0.5250(4)
C4 C 0.1604(7) 0.6776(5) 0.5596(5)
H3 H 0.0649 0.6668 0.5346
C5 C 0.2115(8) 0.6361(6) 0.6319(5)
H4 H 0.1491 0.5976 0.6548
C6 C 0.3543(8) 0.6507(6) 0.6710(5)
H5 H 0.3868 0.6228 0.7196
C7 C 0.4472(7) 0.7081(5) 0.6359(4)
H6 H 0.5431 0.7177 0.6608
C8 C 0.4380(4) 0.9749(4) 0.3400(2)
C9 C 0.3968(4) 0.9494(4) 0.2549(2)
C10 C 0.3942(5) 0.8516(4) 0.2309(3)
H7 H 0.4216 0.8010 0.2667
C11 C 0.3508(5) 0.8296(4) 0.1537(3)
H8 H 0.3465 0.7634 0.1385
C12 C 0.3216(5) 0.9944(4) 0.1234(3)
H9 H 0.2999 1.0440 0.0862
C13 C 0.3590(5) 1.0220(4) 0.1996(3)
H10 H 0.3589 1.0886 0.2137
C14 C 0.9435(4) 1.0743(3) 0.3885(2)
C15 C 0.9081(4) 1.0901(3) 0.3022(2)
C16 C 1.0153(5) 1.0915(4) 0.2580(2)
H11 H 1.1123 1.0829 0.2812
C17 C 0.9762(5) 1.1057(4) 0.1794(3)
H12 H 1.0489 1.1059 0.1501
C18 C 0.7337(5) 1.1181(4) 0.1859(3)
H13 H 0.6374 1.1273 0.1616
C19 C 0.7645(5) 1.1034(4) 0.2649(3)
H14 H 0.6900 1.1025 0.2930
Eu1B Eu 0.28518(2) 1.033784(17) 0.495712(11)
Eu1B_2 Eu 1.28518(2) 1.033784(17) 0.495712(11)
Ag1C Ag 0.22680(4) 0.85950(3) -0.019509(19)
Ag1A Ag 0.77320(4) 1.14050(3) 0.019509(19)
O1B O 0.5473(3) 1.0967(2) 0.49095(17)
O3B O 0.8376(3) 1.1149(3) 0.56775(19)
O7B O 0.6545(3) 0.9773(3) 0.63238(16)
O9B O 0.9299(3) 0.9056(3) 0.57792(16)
N1C N 0.8146(4) 0.6005(3) 0.5998(2)
N2A N 0.6627(4) 0.6195(3) 0.3572(2)
loop_
_geom_bond_atom_site_label_1
_geom_bond_atom_site_label_2
_geom_bond_site_symmetry_1
_geom_bond_site_symmetry_2
Eu1 O1 1_555 1_555
Ag1 O2 1_555 1_555
S1 O3 1_555 1_555
O1 C1 1_555 1_555
O2 Eu1 1_555 1_555
O3 Eu1B 1_555 1_555
O4 S1 1_555 1_555
O5 S1 1_555 1_555
O6 Eu1 1_555 1_555
O7 C8 1_555 1_555
O8 Eu1 1_555 1_555
O9 C14 1_555 1_555
O10 Eu1 1_555 1_555
H1 O10 1_555 1_555
H2 O10 1_555 1_555
N1 C11 1_555 1_555
N2 C17 1_555 1_555
C1 O2 1_555 1_555
C2 C1 1_555 1_555
C3 S1 1_555 1_555
C4 C3 1_555 1_555
H3 C4 1_555 1_555
C5 C4 1_555 1_555
H4 C5 1_555 1_555
C6 C5 1_555 1_555
H5 C6 1_555 1_555
C7 C2 1_555 1_555
H6 C7 1_555 1_555
C8 O6 1_555 1_555
C9 C8 1_555 1_555
C10 C9 1_555 1_555
H7 C10 1_555 1_555
C11 C10 1_555 1_555
H8 C11 1_555 1_555
C12 N1 1_555 1_555
H9 C12 1_555 1_555
C13 C9 1_555 1_555
H10 C13 1_555 1_555
C14 O8 1_555 1_555
C15 C14 1_555 1_555
C16 C15 1_555 1_555
H11 C16 1_555 1_555
C17 C16 1_555 1_555
H12 C17 1_555 1_555
C18 N2 1_555 1_555
H13 C18 1_555 1_555
C19 C15 1_555 1_555
H14 C19 1_555 1_555
Eu1B O1 1_555 1_555
Eu1B_2 O9 1_555 1_555
Ag1C N1 1_555 1_555
Ag1A N2 1_555 1_555
O1B Eu1 1_555 1_555
O3B Eu1 1_555 1_555
O7B Eu1 1_555 1_555
O9B Eu1 1_555 1_555
N1C Ag1 1_555 1_555
N2A Ag1 1_555 1_555
O7 Eu1B 1_555 1_555
C2 C3 1_555 1_555
C6 C7 1_555 1_555
C12 C13 1_555 1_555
C18 C19 1_555 1_555
Eu1B O1B 1_555 1_555

#END
