
#######################################################################
#
#                 Cambridge Crystallographic Data Centre
#                                CCDC 
#
#######################################################################
#
# If this CIF has been generated from an entry in the Cambridge 
# Structural Database, then it will include bibliographic, chemical, 
# crystal, experimental, refinement or atomic coordinate data resulting 
# from the CCDC's data processing and validation procedures.
#
#######################################################################

data_FAZKOI
_symmetry_cell_setting           monoclinic
_symmetry_space_group_name_H-M   'P 21/n'
_symmetry_Int_Tables_number      14
_space_group_name_Hall           '-P 2yn'
loop_
_symmetry_equiv_pos_site_id
_symmetry_equiv_pos_as_xyz
1 x,y,z
2 1/2-x,1/2+y,1/2-z
3 -x,-y,-z
4 1/2+x,1/2-y,1/2+z
_cell_length_a                   9.3956(3)
_cell_length_b                   13.4839(5)
_cell_length_c                   17.6400(7)
_cell_angle_alpha                90
_cell_angle_beta                 101.263(4)
_cell_angle_gamma                90
_cell_volume                     2191.76
loop_
_atom_site_label
_atom_site_type_symbol
_atom_site_fract_x
_atom_site_fract_y
_atom_site_fract_z
Sm1 Sm 0.78516(2) 0.965666(19) -0.004160(13)
Ag1 Ag 0.77425(5) 0.63940(4) 0.01955(2)
S1 S 1.31447(15) 0.77897(12) 0.07166(10)
O1 O 1.0467(3) 0.9025(3) -0.0085(2)
O2 O 0.8720(4) 0.7937(3) -0.0371(2)
O3 O 1.3372(4) 0.8857(3) 0.0684(2)
O4 O 1.2051(5) 0.7501(4) 0.1143(3)
O5 O 1.4530(5) 0.7287(4) 0.0967(4)
O6 O 0.8465(4) 0.9757(3) -0.1328(2)
O7 O 1.0600(4) 1.0544(3) -0.1260(2)
O8 O 0.5700(4) 0.9036(3) -0.0781(2)
O9 O 0.3450(4) 0.9566(3) -0.0815(2)
O10 O 0.7017(4) 0.8318(3) 0.0783(2)
H1 H 0.6107 0.8361 0.0758
H2 H 0.7441 0.8387 0.1252
N1 N 0.8134(5) 1.1002(4) -0.4004(2)
N2 N 0.3373(5) 0.8807(4) -0.3575(3)
C1 C 1.0019(5) 0.8179(4) -0.0331(3)
C2 C 1.1049(6) 0.7508(4) -0.0640(4)
C3 C 1.2486(7) 0.7344(4) -0.0249(4)
C4 C 1.3393(8) 0.6780(5) -0.0604(6)
H3 H 1.4350 0.6675 -0.0357
C5 C 1.2885(9) 0.6369(6) -0.1326(6)
H4 H 1.3510 0.5997 -0.1561
C6 C 1.1476(10) 0.6503(6) -0.1699(6)
H5 H 1.1141 0.6214 -0.2180
C7 C 1.0552(8) 0.7076(5) -0.1349(5)
H6 H 0.9592 0.7168 -0.1596
C8 C 0.9382(5) 1.0241(4) -0.1606(3)
C9 C 0.8949(5) 1.0498(4) -0.2451(3)
C10 C 0.8936(6) 1.1473(4) -0.2690(3)
H7 H 0.9219 1.1976 -0.2331
C11 C 0.8502(6) 1.1697(4) -0.3460(3)
H8 H 0.8463 1.2359 -0.3609
C12 C 0.8206(7) 1.0046(5) -0.3772(3)
H9 H 0.7990 0.9552 -0.4144
C13 C 0.8585(6) 0.9770(4) -0.3007(3)
H10 H 0.8595 0.9105 -0.2867
C14 C 0.4438(5) 0.9250(4) -0.1119(3)
C15 C 0.4080(5) 0.9092(4) -0.1981(3)
C16 C 0.2651(6) 0.8975(5) -0.2358(3)
H11 H 0.1905 0.8996 -0.2081
C17 C 0.2344(6) 0.8827(5) -0.3140(3)
H12 H 0.1381 0.8737 -0.3382
C18 C 0.4758(6) 0.8941(5) -0.3206(3)
H13 H 0.5484 0.8943 -0.3497
C19 C 0.5149(5) 0.9075(4) -0.2420(3)
H14 H 0.6119 0.9153 -0.2187
Sm1B Sm 1.21484(2) 1.034334(19) 0.004160(13)
Sm1B_2 Sm 0.21484(2) 1.034334(19) 0.004160(13)
Ag1A Ag 0.72575(5) 1.13940(4) -0.51955(2)
Ag1C Ag 0.27425(5) 0.86060(4) -0.48045(2)
O1B O 0.9533(3) 1.0975(3) 0.0085(2)
O3B O 0.6628(4) 1.1143(3) -0.0684(2)
O7B O 0.9400(4) 0.9456(3) 0.1260(2)
O9B O 0.6550(4) 1.0434(3) 0.0815(2)
N1A N 0.6866(5) 0.6002(4) -0.0996(2)
N2C N 0.8373(5) 0.6193(4) 0.1425(3)
loop_
_geom_bond_atom_site_label_1
_geom_bond_atom_site_label_2
_geom_bond_site_symmetry_1
_geom_bond_site_symmetry_2
Sm1 O1 1_555 1_555
Ag1 O2 1_555 1_555
S1 O3 1_555 1_555
O1 C1 1_555 1_555
O2 Sm1 1_555 1_555
O3 Sm1B 1_555 1_555
O4 S1 1_555 1_555
O5 S1 1_555 1_555
O6 Sm1 1_555 1_555
O7 C8 1_555 1_555
O8 Sm1 1_555 1_555
O9 C14 1_555 1_555
O10 Sm1 1_555 1_555
H1 O10 1_555 1_555
H2 O10 1_555 1_555
N1 C11 1_555 1_555
N2 C17 1_555 1_555
C1 O2 1_555 1_555
C2 C1 1_555 1_555
C3 S1 1_555 1_555
C4 C3 1_555 1_555
H3 C4 1_555 1_555
C5 C4 1_555 1_555
H4 C5 1_555 1_555
C6 C5 1_555 1_555
H5 C6 1_555 1_555
C7 C2 1_555 1_555
H6 C7 1_555 1_555
C8 O6 1_555 1_555
C9 C8 1_555 1_555
C10 C9 1_555 1_555
H7 C10 1_555 1_555
C11 C10 1_555 1_555
H8 C11 1_555 1_555
C12 N1 1_555 1_555
H9 C12 1_555 1_555
C13 C9 1_555 1_555
H10 C13 1_555 1_555
C14 O8 1_555 1_555
C15 C14 1_555 1_555
C16 C15 1_555 1_555
H11 C16 1_555 1_555
C17 C16 1_555 1_555
H12 C17 1_555 1_555
C18 N2 1_555 1_555
H13 C18 1_555 1_555
C19 C15 1_555 1_555
H14 C19 1_555 1_555
Sm1B O1 1_555 1_555
Sm1B_2 O9 1_555 1_555
Ag1A N1 1_555 1_555
Ag1C N2 1_555 1_555
O1B Sm1 1_555 1_555
O3B Sm1 1_555 1_555
O7B Sm1 1_555 1_555
O9B Sm1 1_555 1_555
N1A Ag1 1_555 1_555
N2C Ag1 1_555 1_555
O7 Sm1B 1_555 1_555
C2 C3 1_555 1_555
C6 C7 1_555 1_555
C12 C13 1_555 1_555
C18 C19 1_555 1_555
Sm1B O1B 1_555 1_555

#END
