
#######################################################################
#
#                 Cambridge Crystallographic Data Centre
#                                CCDC 
#
#######################################################################
#
# If this CIF has been generated from an entry in the Cambridge 
# Structural Database, then it will include bibliographic, chemical, 
# crystal, experimental, refinement or atomic coordinate data resulting 
# from the CCDC's data processing and validation procedures.
#
#######################################################################

data_FAZMOK
_symmetry_cell_setting           monoclinic
_symmetry_space_group_name_H-M   'P 21/n'
_symmetry_Int_Tables_number      14
_space_group_name_Hall           '-P 2yn'
loop_
_symmetry_equiv_pos_site_id
_symmetry_equiv_pos_as_xyz
1 x,y,z
2 1/2-x,1/2+y,1/2-z
3 -x,-y,-z
4 1/2+x,1/2-y,1/2+z
_cell_length_a                   9.4578(3)
_cell_length_b                   13.4794(4)
_cell_length_c                   17.0208(6)
_cell_angle_alpha                90
_cell_angle_beta                 101.346(3)
_cell_angle_gamma                90
_cell_volume                     2127.5
loop_
_atom_site_label
_atom_site_type_symbol
_atom_site_fract_x
_atom_site_fract_y
_atom_site_fract_z
Sm1 Sm 0.714198(18) 0.965086(13) 0.502268(10)
Cu1 Cu 0.71503(6) 0.63980(4) 0.48121(3)
S1 S 0.18131(10) 0.78383(8) 0.42190(7)
O1 O 0.4532(3) 0.90224(18) 0.50419(15)
O2 O 0.6218(3) 0.78873(19) 0.52656(17)
O3 O 0.1635(3) 0.8905(2) 0.42617(17)
O4 O 0.2874(3) 0.7539(3) 0.3767(2)
O5 O 0.0423(3) 0.7367(3) 0.3969(2)
O6 O 0.5604(3) 0.9558(2) 0.36805(15)
O7 O 0.3477(3) 1.0324(2) 0.36412(15)
O8 O 0.9273(3) 0.9005(2) 0.57848(15)
O9 O 1.1512(3) 0.9526(2) 0.58188(17)
O10 O 0.7968(3) 0.8375(2) 0.41373(18)
H1 H 0.8874 0.8413 0.4164
H2 H 0.7540 0.8449 0.3653
N1 N 0.2983(4) 0.8979(3) 0.08893(18)
N2 N 1.1606(4) 0.8779(2) 0.86860(19)
C1 C 0.4943(4) 0.8160(3) 0.5263(2)
C2 C 0.3922(5) 0.7500(3) 0.5583(3)
C3 C 0.2477(5) 0.7374(3) 0.5208(3)
C4 C 0.1562(6) 0.6821(4) 0.5576(4)
H3 H 0.0604 0.6733 0.5326
C5 C 0.2074(7) 0.6399(4) 0.6319(4)
H4 H 0.1448 0.6042 0.6570
C6 C 0.3509(7) 0.6502(5) 0.6695(4)
H5 H 0.3848 0.6205 0.7190
C7 C 0.4440(6) 0.7056(4) 0.6322(3)
H6 H 0.5404 0.7128 0.6568
C8 C 0.4364(4) 0.9841(3) 0.3345(2)
C9 C 0.3901(4) 0.9550(3) 0.2478(2)
C10 C 0.3876(4) 0.8562(3) 0.2255(2)
H7 H 0.4181 0.8074 0.2637
C11 C 0.3400(5) 0.8307(3) 0.1467(2)
H8 H 0.3366 0.7638 0.1328
C12 C 0.3051(5) 0.9936(3) 0.1104(2)
H9 H 0.2793 1.0412 0.0706
C13 C 0.3483(5) 1.0251(3) 0.1882(2)
H10 H 0.3495 1.0923 0.2006
C14 C 1.0536(4) 0.9218(3) 0.6134(2)
C15 C 1.0893(4) 0.9064(3) 0.7033(2)
C16 C 0.9831(4) 0.9016(3) 0.7483(2)
H11 H 0.8864 0.9077 0.7241
C17 C 1.0232(4) 0.8875(3) 0.8304(2)
H12 H 0.9511 0.8845 0.8605
C18 C 1.2640(4) 0.8832(3) 0.8238(2)
H13 H 1.3601 0.8772 0.8492
C19 C 1.2321(4) 0.8970(3) 0.7420(2)
H14 H 1.3057 0.9000 0.7130
Sm1B Sm 0.285802(18) 1.034914(13) 0.497732(10)
Sm1B_2 Sm 1.285802(18) 1.034914(13) 0.497732(10)
Cu1C Cu 0.21503(6) 0.86020(4) -0.01879(3)
Cu1C_2 Cu 1.21503(6) 0.86020(4) 0.98121(3)
O1B O 0.5468(3) 1.09776(18) 0.49581(15)
O3B O 0.8365(3) 1.1095(2) 0.57383(17)
O7B O 0.6523(3) 0.9676(2) 0.63588(15)
O9B O 0.8488(3) 1.0474(2) 0.41812(17)
N1C N 0.7983(4) 0.6021(3) 0.58893(18)
N2C N 0.6606(4) 0.6221(2) 0.36860(19)
loop_
_geom_bond_atom_site_label_1
_geom_bond_atom_site_label_2
_geom_bond_site_symmetry_1
_geom_bond_site_symmetry_2
Sm1 O1 1_555 1_555
Cu1 O2 1_555 1_555
S1 O3 1_555 1_555
O1 C1 1_555 1_555
O2 Sm1 1_555 1_555
O3 Sm1B 1_555 1_555
O4 S1 1_555 1_555
O5 S1 1_555 1_555
O6 Sm1 1_555 1_555
O7 C8 1_555 1_555
O8 Sm1 1_555 1_555
O9 C14 1_555 1_555
O10 Sm1 1_555 1_555
H1 O10 1_555 1_555
H2 O10 1_555 1_555
N1 C11 1_555 1_555
N2 C17 1_555 1_555
C1 O2 1_555 1_555
C2 C1 1_555 1_555
C3 S1 1_555 1_555
C4 C3 1_555 1_555
H3 C4 1_555 1_555
C5 C4 1_555 1_555
H4 C5 1_555 1_555
C6 C5 1_555 1_555
H5 C6 1_555 1_555
C7 C2 1_555 1_555
H6 C7 1_555 1_555
C8 O6 1_555 1_555
C9 C8 1_555 1_555
C10 C9 1_555 1_555
H7 C10 1_555 1_555
C11 C10 1_555 1_555
H8 C11 1_555 1_555
C12 N1 1_555 1_555
H9 C12 1_555 1_555
C13 C9 1_555 1_555
H10 C13 1_555 1_555
C14 O8 1_555 1_555
C15 C14 1_555 1_555
C16 C15 1_555 1_555
H11 C16 1_555 1_555
C17 C16 1_555 1_555
H12 C17 1_555 1_555
C18 N2 1_555 1_555
H13 C18 1_555 1_555
C19 C15 1_555 1_555
H14 C19 1_555 1_555
Sm1B O1 1_555 1_555
Sm1B_2 O9 1_555 1_555
Cu1C N1 1_555 1_555
Cu1C_2 N2 1_555 1_555
O1B Sm1 1_555 1_555
O3B Sm1 1_555 1_555
O7B Sm1 1_555 1_555
O9B Sm1 1_555 1_555
N1C Cu1 1_555 1_555
N2C Cu1 1_555 1_555
O7 Sm1B 1_555 1_555
C2 C3 1_555 1_555
C6 C7 1_555 1_555
C12 C13 1_555 1_555
C18 C19 1_555 1_555
Sm1B O1B 1_555 1_555

#END
