
#######################################################################
#
#                 Cambridge Crystallographic Data Centre
#                                CCDC 
#
#######################################################################
#
# If this CIF has been generated from an entry in the Cambridge 
# Structural Database, then it will include bibliographic, chemical, 
# crystal, experimental, refinement or atomic coordinate data resulting 
# from the CCDC's data processing and validation procedures.
#
#######################################################################

data_FAZPIH
_symmetry_cell_setting           orthorhombic
_symmetry_space_group_name_H-M   'P 21 21 21'
_symmetry_Int_Tables_number      19
_space_group_name_Hall           'P 2ac 2ab'
loop_
_symmetry_equiv_pos_site_id
_symmetry_equiv_pos_as_xyz
1 x,y,z
2 1/2-x,-y,1/2+z
3 -x,1/2+y,1/2-z
4 1/2+x,1/2-y,-z
_cell_length_a                   6.0825(12)
_cell_length_b                   10.182(2)
_cell_length_c                   12.533(3)
_cell_angle_alpha                90
_cell_angle_beta                 90
_cell_angle_gamma                90
_cell_volume                     776.194
loop_
_atom_site_label
_atom_site_type_symbol
_atom_site_fract_x
_atom_site_fract_y
_atom_site_fract_z
O1 O 0.3169(3) -0.22713(16) 0.34501(12)
O2 O 0.6085(3) -0.09776(16) 0.37012(12)
C1 C 0.4585(4) -0.1482(2) 0.31409(17)
Co1 Co 0.21169(5) -0.31918(3) 0.49171(2)
N1 N 0.3817(4) -0.1764(2) 0.66888(15)
C2 C 0.5960(4) -0.0147(2) 0.16086(17)
H1 H 0.6894 0.0265 0.2091
C3 C 0.4711(4) -0.0391(2) -0.01050(18)
H2 H 0.4778 -0.0156 -0.0821
N2 N 0.4080(3) -0.1916(2) 0.57294(14)
C4 C 0.3162(5) -0.1705(3) 0.12594(17)
H3 H 0.2166 -0.2339 0.1488
N3 N 0.6030(3) 0.02191(19) 0.05787(14)
C5 C 0.4559(4) -0.1110(2) 0.19787(17)
N4 N 0.3556(4) -0.1584(3) 0.75730(16)
C6 C 0.3256(5) -0.1351(3) 0.01952(18)
H4 H 0.2353 -0.1754 -0.0306
O2C O 0.1085(3) -0.40224(16) 0.62988(12)
Co1C Co 0.71169(5) -0.18082(3) 0.50829(2)
Co1B Co 0.78831(5) 0.18082(3) 0.00829(2)
N2C N -0.0920(3) -0.3084(2) 0.42706(14)
N3B N 0.3970(3) -0.47809(19) 0.44213(14)
loop_
_geom_bond_atom_site_label_1
_geom_bond_atom_site_label_2
_geom_bond_site_symmetry_1
_geom_bond_site_symmetry_2
O1 C1 1_555 1_555
O2 C1 1_555 1_555
C1 C5 1_555 1_555
Co1 O1 1_555 1_555
N1 N2 1_555 1_555
C2 H1 1_555 1_555
C3 H2 1_555 1_555
N2 Co1 1_555 1_555
C4 H3 1_555 1_555
N3 C2 1_555 1_555
C5 C2 1_555 1_555
N4 N1 1_555 1_555
C6 C3 1_555 1_555
H4 C6 1_555 1_555
O2C Co1 1_555 1_555
Co1C O2 1_555 1_555
Co1B N3 1_555 1_555
N2C Co1 1_555 1_555
N3B Co1 1_555 1_555
C3 N3 1_555 1_555
N2 Co1C 1_555 1_555
C4 C5 1_555 1_555
C4 C6 1_555 1_555

#END
