
#######################################################################
#
#                 Cambridge Crystallographic Data Centre
#                                CCDC 
#
#######################################################################
#
# If this CIF has been generated from an entry in the Cambridge 
# Structural Database, then it will include bibliographic, chemical, 
# crystal, experimental, refinement or atomic coordinate data resulting 
# from the CCDC's data processing and validation procedures.
#
#######################################################################

data_FAZPUS
_symmetry_cell_setting           monoclinic
_symmetry_space_group_name_H-M   'P 21/c'
_symmetry_Int_Tables_number      14
_space_group_name_Hall           '-P 2ybc'
loop_
_symmetry_equiv_pos_site_id
_symmetry_equiv_pos_as_xyz
1 x,y,z
2 -x,1/2+y,1/2-z
3 -x,-y,-z
4 x,1/2-y,1/2+z
_cell_length_a                   5.4289(19)
_cell_length_b                   16.902(6)
_cell_length_c                   19.007(6)
_cell_angle_alpha                90
_cell_angle_beta                 95.959(5)
_cell_angle_gamma                90
_cell_volume                     1734.64
loop_
_atom_site_label
_atom_site_type_symbol
_atom_site_fract_x
_atom_site_fract_y
_atom_site_fract_z
Ag1 Ag 0.25970(9) 0.70544(3) 0.06898(3)
S1 S 0.2275(3) 0.85538(8) 0.06871(9)
S2 S 0.1287(3) 0.63333(9) -0.04880(9)
C1 C 0.4094(11) 0.9754(3) -0.0093(3)
H1 H 0.2615 0.9963 -0.0305
C2 C 0.4237(12) 0.8881(3) 0.0011(3)
H2 H 0.5941 0.8731 0.0153
H3 H 0.3711 0.8619 -0.0433
C3 C 0.4014(10) 0.8944(3) 0.1461(3)
C4 C 0.6161(12) 0.8589(4) 0.1740(3)
H4 H 0.6723 0.8137 0.1528
C5 C 0.7493(13) 0.8898(5) 0.2331(4)
H5 H 0.8931 0.8647 0.2524
C6 C 0.6705(15) 0.9573(5) 0.2636(4)
H6 H 0.7624 0.9794 0.3027
C7 C 0.4554(16) 0.9916(4) 0.2357(4)
H7 H 0.3998 1.0371 0.2566
C8 C 0.3184(13) 0.9604(4) 0.1773(3)
H8 H 0.1706 0.9842 0.1593
C9 C 0.4045(12) 0.5065(4) -0.0226(3)
H9 H 0.2731 0.4711 -0.0236
C10 C 0.3805(13) 0.5747(4) -0.0733(3)
H10 H 0.3462 0.5559 -0.1215
H11 H 0.5321 0.6055 -0.0697
C11 C 0.1081(11) 0.7139(3) -0.1090(3)
C12 C 0.2644(12) 0.7260(4) -0.1606(3)
H12 H 0.3933 0.6909 -0.1658
C13 C 0.2277(13) 0.7906(4) -0.2044(4)
H13 H 0.3321 0.7987 -0.2396
C14 C 0.0423(15) 0.8429(4) -0.1973(4)
H14 H 0.0201 0.8863 -0.2273
C15 C -0.1143(13) 0.8310(4) -0.1448(4)
H15 H -0.2417 0.8666 -0.1394
C16 C -0.0794(12) 0.7667(4) -0.1012(3)
H16 H -0.1833 0.7588 -0.0659
N1 N 0.7661(10) 0.6521(3) 0.1160(3)
O1 O 0.5775(8) 0.6345(3) 0.1443(2)
O2 O 0.7505(8) 0.7023(3) 0.0675(2)
O3 O -0.0305(9) 0.6220(3) 0.1356(2)
Ag1B Ag 0.74030(9) 1.29456(3) -0.06898(3)
Ag1_2 Ag 1.25970(9) 0.70544(3) 0.06898(3)
Ag1B_2 Ag 0.74030(9) 0.29456(3) -0.06898(3)
Ag1_3 Ag -0.74030(9) 0.70544(3) 0.06898(3)
S1B S 0.7725(3) 1.14462(8) -0.06871(9)
S2B S 0.8713(3) 1.36667(9) 0.04880(9)
S2B_2 S 0.8713(3) 0.36667(9) 0.04880(9)
C1B C 0.5906(11) 1.0246(3) 0.0093(3)
H1B H 0.7385 1.0037 0.0305
C2B C 0.5763(12) 1.1119(3) -0.0011(3)
H2B H 0.4059 1.1269 -0.0153
H3B H 0.6289 1.1381 0.0433
C3B C 0.5986(10) 1.1056(3) -0.1461(3)
C4B C 0.3839(12) 1.1411(4) -0.1740(3)
H4B H 0.3277 1.1863 -0.1528
C5B C 0.2507(13) 1.1102(5) -0.2331(4)
H5B H 0.1069 1.1353 -0.2524
C6B C 0.3295(15) 1.0427(5) -0.2636(4)
H6B H 0.2376 1.0206 -0.3027
C7B C 0.5446(16) 1.0084(4) -0.2357(4)
H7B H 0.6002 0.9629 -0.2566
C8B C 0.6816(13) 1.0396(4) -0.1773(3)
H8B H 0.8294 1.0158 -0.1593
C9B C 0.5955(12) 0.4935(4) 0.0226(3)
H9B H 0.7269 0.5289 0.0236
C10B C 0.6195(13) 0.4253(4) 0.0733(3)
H10B H 0.6538 0.4441 0.1215
H11B H 0.4679 0.3945 0.0697
C11B C 0.8919(11) 0.2861(3) 0.1090(3)
C12B C 0.7356(12) 0.2740(4) 0.1606(3)
H12B H 0.6067 0.3091 0.1658
C13B C 0.7723(13) 0.2094(4) 0.2044(4)
H13B H 0.6679 0.2013 0.2396
C14B C 0.9577(15) 0.1571(4) 0.1973(4)
H14B H 0.9799 0.1137 0.2273
C15B C 1.1143(13) 0.1690(4) 0.1448(4)
H15B H 1.2417 0.1334 0.1394
C16B C 1.0794(12) 0.2333(4) 0.1012(3)
H16B H 1.1833 0.2412 0.0659
N1_2 N -0.2339(10) 0.6521(3) 0.1160(3)
O1B O 0.4225(8) 1.3655(3) -0.1443(2)
O1_2 O -0.4225(8) 0.6345(3) 0.1443(2)
O2B O 0.2495(8) 1.2977(3) -0.0675(2)
O2_2 O -0.2495(8) 0.7023(3) 0.0675(2)
O3B O 1.0305(9) 1.3780(3) -0.1356(2)
O3_2 O 0.9695(9) 0.6220(3) 0.1356(2)
loop_
_geom_bond_atom_site_label_1
_geom_bond_atom_site_label_2
_geom_bond_site_symmetry_1
_geom_bond_site_symmetry_2
Ag1 S1 1_555 1_555
S1 C2 1_555 1_555
S2 Ag1 1_555 1_555
C1 H1 1_555 1_555
C2 C1 1_555 1_555
H2 C2 1_555 1_555
H3 C2 1_555 1_555
C3 S1 1_555 1_555
C4 C3 1_555 1_555
H4 C4 1_555 1_555
C5 C4 1_555 1_555
H5 C5 1_555 1_555
C6 C5 1_555 1_555
H6 C6 1_555 1_555
C7 C6 1_555 1_555
H7 C7 1_555 1_555
C8 C3 1_555 1_555
H8 C8 1_555 1_555
C9 H9 1_555 1_555
C10 S2 1_555 1_555
H10 C10 1_555 1_555
H11 C10 1_555 1_555
C11 S2 1_555 1_555
C12 C11 1_555 1_555
H12 C12 1_555 1_555
C13 C12 1_555 1_555
H13 C13 1_555 1_555
C14 C13 1_555 1_555
H14 C14 1_555 1_555
C15 C14 1_555 1_555
H15 C15 1_555 1_555
C16 C11 1_555 1_555
H16 C16 1_555 1_555
N1 O1 1_555 1_555
O1 Ag1 1_555 1_555
O2 Ag1 1_555 1_555
O3 Ag1 1_555 1_555
Ag1B S1B 1_555 1_555
Ag1_2 O3_2 1_555 1_555
Ag1B_2 S2B_2 1_555 1_555
Ag1_3 O1_2 1_555 1_555
S1B C2B 1_555 1_555
S2B Ag1B 1_555 1_555
S2B_2 C10B 1_555 1_555
C1B C1 1_555 1_555
H1B C1B 1_555 1_555
C2B C1B 1_555 1_555
H2B C2B 1_555 1_555
H3B C2B 1_555 1_555
C3B S1B 1_555 1_555
C4B C3B 1_555 1_555
H4B C4B 1_555 1_555
C5B C4B 1_555 1_555
H5B C5B 1_555 1_555
C6B C5B 1_555 1_555
H6B C6B 1_555 1_555
C7B C6B 1_555 1_555
H7B C7B 1_555 1_555
C8B C3B 1_555 1_555
H8B C8B 1_555 1_555
C9B C9 1_555 1_555
H9B C9B 1_555 1_555
C10B C9B 1_555 1_555
H10B C10B 1_555 1_555
H11B C10B 1_555 1_555
C11B S2B_2 1_555 1_555
C12B C11B 1_555 1_555
H12B C12B 1_555 1_555
C13B C12B 1_555 1_555
H13B C13B 1_555 1_555
C14B C13B 1_555 1_555
H14B C14B 1_555 1_555
C15B C14B 1_555 1_555
H15B C15B 1_555 1_555
C16B C11B 1_555 1_555
H16B C16B 1_555 1_555
N1_2 O3 1_555 1_555
O1B Ag1B 1_555 1_555
O1_2 N1_2 1_555 1_555
O2B Ag1B 1_555 1_555
O2_2 Ag1_3 1_555 1_555
O3B Ag1B 1_555 1_555
O3_2 N1 1_555 1_555
C7 C8 1_555 1_555
C9 C10 1_555 1_555
C15 C16 1_555 1_555
N1 O2 1_555 1_555
C7B C8B 1_555 1_555
C15B C16B 1_555 1_555
N1_2 O2_2 1_555 1_555

#END
