
#######################################################################
#
#                 Cambridge Crystallographic Data Centre
#                                CCDC 
#
#######################################################################
#
# If this CIF has been generated from an entry in the Cambridge 
# Structural Database, then it will include bibliographic, chemical, 
# crystal, experimental, refinement or atomic coordinate data resulting 
# from the CCDC's data processing and validation procedures.
#
#######################################################################

data_FAZQON
_symmetry_cell_setting           monoclinic
_symmetry_space_group_name_H-M   'C 2/c'
_symmetry_Int_Tables_number      15
_space_group_name_Hall           '-C 2yn'
loop_
_symmetry_equiv_pos_site_id
_symmetry_equiv_pos_as_xyz
1 x,y,z
2 1/2+x,1/2+y,z
3 -x,y,1/2-z
4 1/2-x,1/2+y,1/2-z
5 -x,-y,-z
6 1/2-x,1/2-y,-z
7 x,-y,1/2+z
8 1/2+x,1/2-y,1/2+z
_cell_length_a                   13.441(9)
_cell_length_b                   21.647(15)
_cell_length_c                   13.676(10)
_cell_angle_alpha                90
_cell_angle_beta                 98.845(13)
_cell_angle_gamma                90
_cell_volume                     3931.81
loop_
_atom_site_label
_atom_site_type_symbol
_atom_site_fract_x
_atom_site_fract_y
_atom_site_fract_z
Ag1 Ag 0.36071(5) 0.29185(3) 0.62744(6)
S1 S 0.39869(15) 0.29036(10) 0.84835(15)
S2 S 0.16277(16) 0.20397(10) 0.60081(17)
N1 N 0.5376(5) 0.2045(3) 0.8710(4)
N2 N 0.3684(5) 0.1680(3) 0.8607(5)
N3 N 0.1925(5) 0.3217(3) 0.6256(5)
N4 N 0.0201(5) 0.2898(3) 0.6146(5)
N5 N 0.4091(7) 0.3954(4) 0.6218(7)
C1 C 0.4379(6) 0.2136(4) 0.8625(5)
C2 C 0.5712(6) 0.1466(3) 0.8772(6)
H1 H 0.6399 0.1390 0.8813
C3 C 0.5044(7) 0.0968(4) 0.8777(7)
H2 H 0.5279 0.0563 0.8833
C4 C 0.4057(8) 0.1091(4) 0.8699(7)
H3 H 0.3609 0.0765 0.8708
C5 C 0.2692(6) 0.2856(4) 0.8746(6)
H4 H 0.2341 0.3237 0.8540
H5 H 0.2345 0.2521 0.8367
C6 C 0.2661(6) 0.2752(4) 0.9817(6)
H6 H 0.2888 0.3069 1.0255
C7 C 0.1183(6) 0.2789(4) 0.6155(5)
C8 C 0.1623(7) 0.3813(4) 0.6351(7)
H7 H 0.2101 0.4127 0.6407
C9 C 0.0629(7) 0.3961(4) 0.6364(7)
H8 H 0.0430 0.4366 0.6453
C10 C -0.0065(7) 0.3479(5) 0.6240(6)
H9 H -0.0743 0.3570 0.6222
C11 C 0.0597(7) 0.1570(4) 0.6288(7)
H10 H -0.0017 0.1709 0.5880
H11 H 0.0714 0.1147 0.6106
C12 C 0.0442(7) 0.1582(4) 0.7345(6)
H12 H 0.1013 0.1590 0.7825
C13 C 0.4182(9) 0.4458(6) 0.6229(9)
C14 C 0.4263(14) 0.5130(5) 0.6246(12)
H13 H 0.4772 0.5256 0.5867
H14 H 0.4440 0.5268 0.6917
H15 H 0.3628 0.5307 0.5964
Ag1E Ag 0.13929(5) 0.20815(3) 1.37256(6)
Ag1B Ag 0.63929(5) 0.29185(3) 0.87256(6)
Ag1G Ag -0.13929(5) 0.20815(3) 1.12744(6)
Ag1B_2 Ag -0.36071(5) 0.29185(3) 0.87256(6)
S1E S 0.10131(15) 0.20964(10) 1.15165(15)
S2B S -0.16277(16) 0.20397(10) 0.89919(17)
N1E N -0.0376(5) 0.2955(3) 1.1290(4)
N1B N 0.4624(5) 0.2045(3) 0.6290(4)
N1G N 0.0376(5) 0.2955(3) 1.3710(4)
N2E N 0.1316(5) 0.3320(3) 1.1393(5)
N3B N -0.1925(5) 0.3217(3) 0.8744(5)
N3E N 0.3075(5) 0.1783(3) 1.3744(5)
N4B N -0.0201(5) 0.2898(3) 0.8854(5)
N5E N 0.0909(7) 0.1046(4) 1.3782(7)
C1E C 0.0621(6) 0.2864(4) 1.1375(5)
C2E C -0.0712(6) 0.3534(3) 1.1228(6)
H1E H -0.1399 0.3610 1.1187
C3E C -0.0044(7) 0.4032(4) 1.1223(7)
H2E H -0.0279 0.4437 1.1167
C4E C 0.0943(8) 0.3909(4) 1.1301(7)
H3E H 0.1391 0.4235 1.1292
C5E C 0.2308(6) 0.2144(4) 1.1254(6)
H4E H 0.2659 0.1763 1.1460
H5E H 0.2655 0.2479 1.1633
C6E C 0.2339(6) 0.2248(4) 1.0183(6)
H6E H 0.2112 0.1931 0.9745
C7B C -0.1183(6) 0.2789(4) 0.8845(5)
C8B C -0.1623(7) 0.3813(4) 0.8649(7)
H7B H -0.2101 0.4127 0.8593
C9B C -0.0629(7) 0.3961(4) 0.8636(7)
H8B H -0.0430 0.4366 0.8547
C10B C 0.0065(7) 0.3479(5) 0.8760(6)
H9B H 0.0743 0.3570 0.8778
C11B C -0.0597(7) 0.1570(4) 0.8712(7)
H10B H 0.0017 0.1709 0.9120
H11B H -0.0714 0.1147 0.8894
C12B C -0.0442(7) 0.1582(4) 0.7655(6)
H12B H -0.1013 0.1590 0.7175
C13E C 0.0818(9) 0.0542(6) 1.3771(9)
C14E C 0.0737(14) -0.0130(5) 1.3754(12)
H13E H 0.0228 -0.0256 1.4133
H14E H 0.0560 -0.0268 1.3083
H15E H 0.1372 -0.0307 1.4036
Cl1 Cl 0.2565(2) 0.98984(13) 0.6287(3)
O5 O 0.218(3) 1.0231(18) 0.698(3)
O6 O 0.263(3) 1.025(2) 0.548(2)
O7 O 0.3494(13) 0.9688(13) 0.666(3)
O8 O 0.195(2) 0.9406(11) 0.601(3)
O1? O 0.225(2) 1.0457(7) 0.593(2)
O2? O 0.1763(18) 0.9560(14) 0.647(3)
O3? O 0.321(3) 0.9975(13) 0.7148(18)
O4? O 0.304(3) 0.9605(16) 0.562(3)
loop_
_geom_bond_atom_site_label_1
_geom_bond_atom_site_label_2
_geom_bond_site_symmetry_1
_geom_bond_site_symmetry_2
Ag1 S1 1_555 1_555
S1 C1 1_555 1_555
S2 C7 1_555 1_555
N1 C1 1_555 1_555
N2 C1 1_555 1_555
N3 Ag1 1_555 1_555
N4 C7 1_555 1_555
N5 Ag1 1_555 1_555
C2 N1 1_555 1_555
H1 C2 1_555 1_555
C3 C2 1_555 1_555
H2 C3 1_555 1_555
C4 N2 1_555 1_555
H3 C4 1_555 1_555
C5 S1 1_555 1_555
H4 C5 1_555 1_555
H5 C5 1_555 1_555
C6 C5 1_555 1_555
H6 C6 1_555 1_555
C7 N3 1_555 1_555
C8 N3 1_555 1_555
H7 C8 1_555 1_555
C9 C8 1_555 1_555
H8 C9 1_555 1_555
C10 N4 1_555 1_555
H9 C10 1_555 1_555
C11 S2 1_555 1_555
H10 C11 1_555 1_555
H11 C11 1_555 1_555
C12 C11 1_555 1_555
H12 C12 1_555 1_555
C13 N5 1_555 1_555
C14 C13 1_555 1_555
H13 C14 1_555 1_555
H14 C14 1_555 1_555
H15 C14 1_555 1_555
Cl1 O5 1_555 1_555
O6 Cl1 1_555 1_555
O7 Cl1 1_555 1_555
O8 Cl1 1_555 1_555
Ag1E S1E 1_555 1_555
Ag1B N1 1_555 1_555
Ag1G N1E 1_555 1_555
Ag1B_2 N3B 1_555 1_555
S1E C1E 1_555 1_555
S2B C7B 1_555 1_555
N1E C1E 1_555 1_555
N1B Ag1 1_555 1_555
N1G Ag1E 1_555 1_555
N2E C1E 1_555 1_555
N3B C7B 1_555 1_555
N3E Ag1E 1_555 1_555
N4B C7B 1_555 1_555
N5E Ag1E 1_555 1_555
C2E N1E 1_555 1_555
H1E C2E 1_555 1_555
C3E C2E 1_555 1_555
H2E C3E 1_555 1_555
C4E N2E 1_555 1_555
H3E C4E 1_555 1_555
C5E S1E 1_555 1_555
H4E C5E 1_555 1_555
H5E C5E 1_555 1_555
C6E C6 1_555 1_555
H6E C6E 1_555 1_555
C8B N3B 1_555 1_555
H7B C8B 1_555 1_555
C9B C8B 1_555 1_555
H8B C9B 1_555 1_555
C10B N4B 1_555 1_555
H9B C10B 1_555 1_555
C11B S2B 1_555 1_555
H10B C11B 1_555 1_555
H11B C11B 1_555 1_555
C12B C12 1_555 1_555
H12B C12B 1_555 1_555
C13E N5E 1_555 1_555
C14E C13E 1_555 1_555
H13E C14E 1_555 1_555
H14E C14E 1_555 1_555
H15E C14E 1_555 1_555
C3 C4 1_555 1_555
C9 C10 1_555 1_555
C3E C4E 1_555 1_555
C5E C6E 1_555 1_555
C9B C10B 1_555 1_555
C11B C12B 1_555 1_555

#END
