
#######################################################################
#
#                 Cambridge Crystallographic Data Centre
#                                CCDC 
#
#######################################################################
#
# If this CIF has been generated from an entry in the Cambridge 
# Structural Database, then it will include bibliographic, chemical, 
# crystal, experimental, refinement or atomic coordinate data resulting 
# from the CCDC's data processing and validation procedures.
#
#######################################################################

data_FAZQAZ
_symmetry_cell_setting           monoclinic
_symmetry_space_group_name_H-M   'C 2/c'
_symmetry_Int_Tables_number      15
_space_group_name_Hall           '-C 2yn'
loop_
_symmetry_equiv_pos_site_id
_symmetry_equiv_pos_as_xyz
1 x,y,z
2 1/2+x,1/2+y,z
3 -x,y,1/2-z
4 1/2-x,1/2+y,1/2-z
5 -x,-y,-z
6 1/2-x,1/2-y,-z
7 x,-y,1/2+z
8 1/2+x,1/2-y,1/2+z
_cell_length_a                   12.631(4)
_cell_length_b                   17.093(5)
_cell_length_c                   15.140(5)
_cell_angle_alpha                90
_cell_angle_beta                 92.549(5)
_cell_angle_gamma                90
_cell_volume                     3265.52
loop_
_atom_site_label
_atom_site_type_symbol
_atom_site_fract_x
_atom_site_fract_y
_atom_site_fract_z
Ag1 Ag 0.770507(19) 0.326250(14) 0.436349(14)
S1 S 0.79242(7) 0.17432(5) 0.32298(5)
S2 S 0.56978(6) 0.31284(4) 0.45650(5)
N1 N 0.58851(19) 0.16112(14) 0.46325(16)
N2 N 0.8169(2) 0.32078(14) 0.28805(16)
C1 C 0.5617(3) 0.0867(2) 0.4449(2)
H1 H 0.6002 0.0470 0.4735
C2 C 0.4809(3) 0.0660(2) 0.3864(3)
H2 H 0.4652 0.0137 0.3751
C3 C 0.4236(3) 0.1247(2) 0.3448(3)
H3 H 0.3678 0.1125 0.3050
C4 C 0.4484(3) 0.2009(2) 0.3619(2)
H4 H 0.4104 0.2411 0.3339
C5 C 0.5318(2) 0.21733(18) 0.42205(18)
C6 C 0.4994(3) 0.37796(18) 0.37825(19)
H5 H 0.4243 0.3662 0.3788
H6 H 0.5090 0.4314 0.3988
C7 C 0.5327(2) 0.37343(16) 0.28536(19)
H7 H 0.6049 0.3704 0.2763
C8 C 0.8293(3) 0.3840(2) 0.2370(2)
H8 H 0.8250 0.4332 0.2628
C9 C 0.8482(3) 0.3793(2) 0.1485(3)
H9 H 0.8558 0.4244 0.1150
C10 C 0.8554(3) 0.3069(2) 0.1107(2)
H10 H 0.8684 0.3024 0.0510
C11 C 0.8432(3) 0.2408(2) 0.1611(2)
H11 H 0.8483 0.1912 0.1364
C12 C 0.8232(2) 0.25023(17) 0.24960(19)
C13 C 0.8517(3) 0.08685(18) 0.2766(2)
H12 H 0.8262 0.0411 0.3070
H13 H 0.8290 0.0824 0.2147
C14 C 0.9694(3) 0.08808(16) 0.2841(2)
H14 H 1.0018 0.0889 0.3405
Ag1B Ag 0.229493(19) 0.326250(14) 0.063651(14)
Ag1E Ag 0.729493(19) 0.173750(14) 0.563651(14)
Ag1B_2 Ag 1.229493(19) 0.326250(14) 0.063651(14)
Ag1G Ag 0.270507(19) 0.173750(14) -0.063651(14)
S1B S 1.20758(7) 0.17432(5) 0.17702(5)
S2B S 0.43022(6) 0.31284(4) 0.04350(5)
N1B N 0.41149(19) 0.16112(14) 0.03675(16)
N1E N 0.91149(19) 0.33888(14) 0.53675(16)
N1G N 0.08851(19) 0.33888(14) -0.03675(16)
N2B N 1.1831(2) 0.32078(14) 0.21195(16)
N2B_2 N 0.1831(2) 0.32078(14) 0.21195(16)
C1B C 0.4383(3) 0.0867(2) 0.0551(2)
H1B H 0.3998 0.0470 0.0265
C2B C 0.5191(3) 0.0660(2) 0.1136(3)
H2B H 0.5348 0.0137 0.1249
C3B C 0.5764(3) 0.1247(2) 0.1552(3)
H3B H 0.6322 0.1125 0.1950
C4B C 0.5516(3) 0.2009(2) 0.1381(2)
H4B H 0.5896 0.2411 0.1661
C5B C 0.4682(2) 0.21733(18) 0.07795(18)
C6B C 0.5006(3) 0.37796(18) 0.12175(19)
H5B H 0.5757 0.3662 0.1212
H6B H 0.4910 0.4314 0.1012
C7B C 0.4673(2) 0.37343(16) 0.21464(19)
H7B H 0.3951 0.3704 0.2237
C8B C 1.1707(3) 0.3840(2) 0.2630(2)
H8B H 1.1750 0.4332 0.2372
C9B C 1.1518(3) 0.3793(2) 0.3515(3)
H9B H 1.1442 0.4244 0.3850
C10B C 1.1446(3) 0.3069(2) 0.3893(2)
H10B H 1.1316 0.3024 0.4490
C11B C 1.1568(3) 0.2408(2) 0.3389(2)
H11B H 1.1517 0.1912 0.3636
C12B C 1.1768(2) 0.25023(17) 0.25040(19)
C13B C 1.1483(3) 0.08685(18) 0.2234(2)
H12B H 1.1738 0.0411 0.1930
H13B H 1.1710 0.0824 0.2853
C14B C 1.0306(3) 0.08808(16) 0.2159(2)
H14B H 0.9982 0.0889 0.1595
N3 N 0.7013(2) 0.51089(15) 0.46504(17)
O1 O 0.7464(2) 0.47740(14) 0.40356(17)
O2 O 0.6782(3) 0.47289(17) 0.52951(19)
O3 O 0.6818(3) 0.58067(16) 0.46079(19)
loop_
_geom_bond_atom_site_label_1
_geom_bond_atom_site_label_2
_geom_bond_site_symmetry_1
_geom_bond_site_symmetry_2
Ag1 S2 1_555 1_555
S1 C12 1_555 1_555
S2 C5 1_555 1_555
N1 C1 1_555 1_555
N2 Ag1 1_555 1_555
N3 O1 1_555 1_555
O2 N3 1_555 1_555
O3 N3 1_555 1_555
C1 H1 1_555 1_555
C2 C1 1_555 1_555
H2 C2 1_555 1_555
C3 C2 1_555 1_555
H3 C3 1_555 1_555
C4 C3 1_555 1_555
H4 C4 1_555 1_555
C5 N1 1_555 1_555
C6 S2 1_555 1_555
H5 C6 1_555 1_555
H6 C6 1_555 1_555
C7 C6 1_555 1_555
H7 C7 1_555 1_555
C8 N2 1_555 1_555
H8 C8 1_555 1_555
C9 C8 1_555 1_555
H9 C9 1_555 1_555
C10 C9 1_555 1_555
H10 C10 1_555 1_555
C11 C10 1_555 1_555
H11 C11 1_555 1_555
C12 N2 1_555 1_555
C13 S1 1_555 1_555
H12 C13 1_555 1_555
H13 C13 1_555 1_555
C14 C13 1_555 1_555
H14 C14 1_555 1_555
Ag1B S2B 1_555 1_555
Ag1E N1 1_555 1_555
Ag1B_2 N2B 1_555 1_555
Ag1G N1B 1_555 1_555
S1B C12B 1_555 1_555
S2B C5B 1_555 1_555
N1B C1B 1_555 1_555
N1E Ag1 1_555 1_555
N1G Ag1B 1_555 1_555
N2B C8B 1_555 1_555
N2B_2 Ag1B 1_555 1_555
C1B H1B 1_555 1_555
C2B C1B 1_555 1_555
H2B C2B 1_555 1_555
C3B C2B 1_555 1_555
H3B C3B 1_555 1_555
C4B C3B 1_555 1_555
H4B C4B 1_555 1_555
C5B N1B 1_555 1_555
C6B S2B 1_555 1_555
H5B C6B 1_555 1_555
H6B C6B 1_555 1_555
C7B C7 1_555 1_555
H7B C7B 1_555 1_555
C8B H8B 1_555 1_555
C9B C8B 1_555 1_555
H9B C9B 1_555 1_555
C10B C9B 1_555 1_555
H10B C10B 1_555 1_555
C11B C10B 1_555 1_555
H11B C11B 1_555 1_555
C12B N2B 1_555 1_555
C13B S1B 1_555 1_555
H12B C13B 1_555 1_555
H13B C13B 1_555 1_555
C14B C14 1_555 1_555
H14B C14B 1_555 1_555
C4 C5 1_555 1_555
C11 C12 1_555 1_555
C4B C5B 1_555 1_555
C6B C7B 1_555 1_555
C11B C12B 1_555 1_555
C13B C14B 1_555 1_555

#END
