
#######################################################################
#
#                 Cambridge Crystallographic Data Centre
#                                CCDC 
#
#######################################################################
#
# If this CIF has been generated from an entry in the Cambridge 
# Structural Database, then it will include bibliographic, chemical, 
# crystal, experimental, refinement or atomic coordinate data resulting 
# from the CCDC's data processing and validation procedures.
#
#######################################################################

data_FAZREE
_symmetry_cell_setting           triclinic
_symmetry_space_group_name_H-M   'P -1'
_symmetry_Int_Tables_number      2
_space_group_name_Hall           '-P 1'
loop_
_symmetry_equiv_pos_site_id
_symmetry_equiv_pos_as_xyz
1 x,y,z
2 -x,-y,-z
_cell_length_a                   7.464(3)
_cell_length_b                   8.865(3)
_cell_length_c                   11.190(4)
_cell_angle_alpha                79.542(6)
_cell_angle_beta                 78.442(6)
_cell_angle_gamma                67.099(5)
_cell_volume                     663.819
loop_
_atom_site_label
_atom_site_type_symbol
_atom_site_fract_x
_atom_site_fract_y
_atom_site_fract_z
Ag1 Ag 0.45510(4) 0.59825(4) 0.34247(2)
S1 S -0.03952(14) 0.87135(14) 0.36632(9)
S2 S -0.13571(14) 0.70941(12) 0.62916(8)
N1 N 0.2021(4) 0.6280(3) 0.4988(2)
N2 N 0.2266(4) 0.5302(3) 0.6113(2)
N3 N 0.4101(5) 0.8451(4) 0.2078(3)
C1 C 0.0518(6) 0.4690(5) 0.8140(3)
H1 H 0.1790 0.3894 0.8280
H2 H -0.0390 0.4138 0.8228
H3 H 0.0067 0.5472 0.8727
C2 C 0.0654(5) 0.5569(4) 0.6869(3)
C3 C 0.0206(5) 0.7290(4) 0.4955(3)
C4 C -0.2980(5) 0.9068(5) 0.3682(3)
H4 H -0.3329 0.9534 0.2869
H5 H -0.3153 0.8016 0.3868
C5 C -0.4327(5) 1.0175(4) 0.4577(3)
H6 H -0.4228 1.1195 0.4547
C6 C 0.3238(6) 0.9455(5) 0.1419(4)
C7 C 0.2100(7) 1.0753(6) 0.0582(4)
H7 H 0.0727 1.1053 0.0895
H8 H 0.2352 1.0373 -0.0207
H9 H 0.2465 1.1696 0.0503
B1 B 0.6073(7) 0.3118(5) 0.1382(4)
F1 F 0.4697(5) 0.4658(4) 0.1752(2)
F2 F 0.5138(5) 0.2068(4) 0.1303(3)
F3 F 0.7371(4) 0.2349(3) 0.2249(2)
F4 F 0.7171(4) 0.3299(3) 0.0236(2)
Ag1A Ag -1.45510(4) 1.40175(4) 0.65753(2)
Ag1A_2 Ag 0.54490(4) 0.40175(4) 0.65753(2)
Ag1_2 Ag -1.54490(4) 1.59825(4) 0.34247(2)
S1A S -0.96048(14) 1.12865(14) 0.63368(9)
S2A S -0.86429(14) 1.29059(12) 0.37084(8)
N1A N -1.2021(4) 1.3720(3) 0.5012(2)
N2A N -1.2266(4) 1.4698(3) 0.3887(2)
N2A_2 N 0.7734(4) 0.4698(3) 0.3887(2)
N2_2 N -1.7734(4) 1.5302(3) 0.6113(2)
N3A N -1.4101(5) 1.1549(4) 0.7922(3)
C1A C -1.0518(6) 1.5310(5) 0.1860(3)
H1A H -1.1790 1.6106 0.1720
H2A H -0.9610 1.5862 0.1772
H3A H -1.0067 1.4528 0.1273
C2A C -1.0654(5) 1.4431(4) 0.3131(3)
C3A C -1.0206(5) 1.2710(4) 0.5045(3)
C4A C -0.7020(5) 1.0932(5) 0.6318(3)
H4A H -0.6671 1.0466 0.7131
H5A H -0.6847 1.1984 0.6132
C5A C -0.5673(5) 0.9825(4) 0.5423(3)
H6A H -0.5772 0.8805 0.5453
C6A C -1.3238(6) 1.0545(5) 0.8581(4)
C7A C -1.2100(7) 0.9247(6) 0.9418(4)
H7A H -1.0727 0.8947 0.9105
H8A H -1.2352 0.9627 1.0207
H9A H -1.2465 0.8304 0.9497
B1A B -1.6073(7) 1.6882(5) 0.8618(4)
F1A F -1.4697(5) 1.5342(4) 0.8248(2)
F2A F -1.5138(5) 1.7932(4) 0.8697(3)
F3A F -1.7371(4) 1.7651(3) 0.7751(2)
F4A F -1.7171(4) 1.6701(3) 0.9764(2)
loop_
_geom_bond_atom_site_label_1
_geom_bond_atom_site_label_2
_geom_bond_site_symmetry_1
_geom_bond_site_symmetry_2
Ag1 N1 1_555 1_555
S1 C3 1_555 1_555
S2 C2 1_555 1_555
N1 N2 1_555 1_555
N2 C2 1_555 1_555
N3 Ag1 1_555 1_555
C1 H1 1_555 1_555
H2 C1 1_555 1_555
H3 C1 1_555 1_555
C2 C1 1_555 1_555
C3 S2 1_555 1_555
C4 S1 1_555 1_555
H4 C4 1_555 1_555
H5 C4 1_555 1_555
C5 C4 1_555 1_555
H6 C5 1_555 1_555
C6 N3 1_555 1_555
C7 C6 1_555 1_555
H7 C7 1_555 1_555
H8 C7 1_555 1_555
H9 C7 1_555 1_555
B1 F1 1_555 1_555
F1 Ag1 1_555 1_555
F2 B1 1_555 1_555
F3 B1 1_555 1_555
F4 B1 1_555 1_555
Ag1A N1A 1_555 1_555
Ag1A_2 N2 1_555 1_555
Ag1_2 N2A 1_555 1_555
S1A C3A 1_555 1_555
S2A C2A 1_555 1_555
N1A N2A 1_555 1_555
N2A C2A 1_555 1_555
N2A_2 Ag1 1_555 1_555
N2_2 Ag1A 1_555 1_555
N3A Ag1A 1_555 1_555
C1A H1A 1_555 1_555
H2A C1A 1_555 1_555
H3A C1A 1_555 1_555
C2A C1A 1_555 1_555
C3A S2A 1_555 1_555
C4A S1A 1_555 1_555
H4A C4A 1_555 1_555
H5A C4A 1_555 1_555
C5A C5 1_555 1_555
H6A C5A 1_555 1_555
C6A N3A 1_555 1_555
C7A C6A 1_555 1_555
H7A C7A 1_555 1_555
H8A C7A 1_555 1_555
H9A C7A 1_555 1_555
B1A F1A 1_555 1_555
F1A Ag1A 1_555 1_555
F2A B1A 1_555 1_555
F3A B1A 1_555 1_555
F4A B1A 1_555 1_555
N1 C3 1_555 1_555
N1A C3A 1_555 1_555
C4A C5A 1_555 1_555

#END
