
#######################################################################
#
#                 Cambridge Crystallographic Data Centre
#                                CCDC 
#
#######################################################################
#
# If this CIF has been generated from an entry in the Cambridge 
# Structural Database, then it will include bibliographic, chemical, 
# crystal, experimental, refinement or atomic coordinate data resulting 
# from the CCDC's data processing and validation procedures.
#
#######################################################################

data_FEBHAX
_symmetry_cell_setting           triclinic
_symmetry_space_group_name_H-M   'P -1'
_symmetry_Int_Tables_number      2
_space_group_name_Hall           '-P 1'
loop_
_symmetry_equiv_pos_site_id
_symmetry_equiv_pos_as_xyz
1 x,y,z
2 -x,-y,-z
_cell_length_a                   13.3262(3)
_cell_length_b                   13.6246(3)
_cell_length_c                   17.0399(3)
_cell_angle_alpha                67.5880(10)
_cell_angle_beta                 77.9490(10)
_cell_angle_gamma                76.3120(10)
_cell_volume                     2754.6
loop_
_atom_site_label
_atom_site_type_symbol
_atom_site_fract_x
_atom_site_fract_y
_atom_site_fract_z
C1 C 0.6161(5) 0.9731(5) 0.3081(4)
H1 H 0.6267 0.9156 0.3589
C2 C 0.5985(5) 0.9621(5) 0.2334(4)
H2 H 0.5945 0.8988 0.2263
C3 C 0.5885(5) 1.0641(5) 0.1734(4)
H3 H 0.5758 1.0832 0.1173
C4 C 0.6011(4) 1.1355(4) 0.2124(3)
C5 C 0.6043(4) 1.2452(4) 0.1752(3)
C6 C 0.6161(5) 1.3115(4) 0.2172(3)
C7 C 0.6215(5) 1.4242(5) 0.1818(4)
H4 H 0.6176 1.4686 0.1250
C8 C 0.6331(5) 1.4545(5) 0.2462(4)
H5 H 0.6393 1.5228 0.2421
C9 C 0.6338(5) 1.3602(4) 0.3211(4)
H6 H 0.6408 1.3578 0.3750
C10 C 0.5957(5) 1.2962(5) 0.0821(3)
C11 C 0.6760(5) 1.3460(5) 0.0242(4)
H7 H 0.7341 1.3507 0.0440
C12 C 0.6679(5) 1.3882(5) -0.0624(4)
H8 H 0.7219 1.4206 -0.1000
C13 C 0.5094(6) 1.3383(5) -0.0404(4)
H9 H 0.4521 1.3352 -0.0621
C14 C 0.5111(5) 1.2939(5) 0.0484(4)
H10 H 0.4554 1.2630 0.0844
C15 C 0.6379(5) 0.6565(5) 0.5996(4)
H11 H 0.6388 0.6120 0.5694
C16 C 0.6401(5) 0.7642(5) 0.5547(4)
H12 H 0.6426 0.7912 0.4955
C17 C 0.6385(4) 0.8325(4) 0.5983(3)
C18 C 0.6385(5) 0.7872(5) 0.6855(4)
H13 H 0.6394 0.8297 0.7169
C19 C 0.6371(5) 0.6774(4) 0.7264(4)
H14 H 0.6380 0.6480 0.7853
C20 C 0.6359(4) 0.9508(4) 0.5502(3)
C21 C 0.6211(4) 1.0199(4) 0.5961(4)
H15 H 0.6163 0.9903 0.6555
C22 C 0.6134(4) 1.1321(4) 0.5567(3)
C23 C 0.5967(5) 1.2007(4) 0.6103(4)
C24 C 0.6186(5) 1.1612(5) 0.6938(4)
H16 H 0.6417 1.0880 0.7208
C25 C 0.6056(5) 1.2331(5) 0.7365(4)
H17 H 0.6216 1.2064 0.7923
C26 C 0.5486(7) 1.3755(5) 0.6214(5)
H18 H 0.5247 1.4489 0.5961
C27 C 0.5590(7) 1.3102(5) 0.5753(4)
H19 H 0.5409 1.3391 0.5201
N1 N 0.6160(4) 1.0754(4) 0.2980(3)
N2 N 0.6230(4) 1.2757(4) 0.3040(3)
N3 N 0.5861(5) 1.3846(4) -0.0951(3)
N4 N 0.6344(4) 0.6126(4) 0.6857(3)
N5 N 0.5713(5) 1.3384(4) 0.7017(3)
O1 O 0.6487(3) 0.9806(3) 0.4682(2)
O2 O 0.6202(4) 1.1817(3) 0.4768(3)
Cu1 Cu 0.62958(5) 1.12798(5) 0.38525(4)
Ag1 Ag 0.42893(5) 1.54172(4) 0.23682(3)
N3A N 0.4139(5) 1.6154(4) 0.0951(3)
N4A N 0.3656(4) 1.3874(4) 0.3143(3)
N5A N 0.4287(5) 1.6616(4) 0.2983(3)
Ag1A Ag 0.57107(5) 1.45828(4) -0.23682(3)
Ag1A_2 Ag 0.57107(5) 0.45828(4) 0.76318(3)
Ag1A_3 Ag 0.57107(5) 1.45828(4) 0.76318(3)
C28 C 0.8523(5) 0.7978(5) 0.3485(4)
H20 H 0.8463 0.7458 0.4030
C29 C 0.8540(5) 0.7793(5) 0.2738(4)
H21 H 0.8489 0.7147 0.2695
C30 C 0.8648(4) 0.8753(5) 0.2067(4)
H22 H 0.8690 0.8876 0.1486
C31 C 0.8683(4) 0.9512(4) 0.2440(3)
C32 C 0.8784(4) 1.0601(4) 0.2021(3)
C33 C 0.8755(4) 1.1338(4) 0.2420(3)
C34 C 0.8822(4) 1.2456(4) 0.2041(4)
H23 H 0.8913 1.2852 0.1458
C35 C 0.8728(5) 1.2838(5) 0.2685(4)
H24 H 0.8739 1.3542 0.2629
C36 C 0.8612(4) 1.1965(4) 0.3450(4)
H25 H 0.8539 1.2010 0.3991
C37 C 0.8966(5) 1.1028(5) 0.1058(3)
C38 C 0.9818(5) 1.1517(5) 0.0619(4)
H26 H 1.0311 1.1554 0.0916
C39 C 0.9930(5) 1.1950(5) -0.0268(4)
H27 H 1.0502 1.2282 -0.0556
C40 C 0.8448(5) 1.1410(5) -0.0299(4)
H28 H 0.7977 1.1368 -0.0613
C41 C 0.8279(5) 1.0958(5) 0.0577(4)
H29 H 0.7713 1.0609 0.0846
C42 C 0.9106(5) 0.5147(5) 0.7587(4)
H30 H 0.9079 0.4858 0.8180
C43 C 0.9001(5) 0.6260(4) 0.7191(4)
H31 H 0.8895 0.6702 0.7514
C44 C 0.9058(4) 0.6705(4) 0.6299(3)
C45 C 0.9222(6) 0.6001(5) 0.5851(4)
H32 H 0.9270 0.6263 0.5257
C46 C 0.9313(7) 0.4906(5) 0.6304(4)
H33 H 0.9427 0.4443 0.5998
C47 C 0.8925(4) 0.7883(4) 0.5813(3)
C48 C 0.8906(5) 0.8588(4) 0.6235(4)
H34 H 0.8971 0.8303 0.6816
C49 C 0.8795(4) 0.9707(4) 0.5821(3)
C50 C 0.8776(4) 1.0410(4) 0.6320(3)
C51 C 0.8751(5) 1.0025(4) 0.7206(4)
H35 H 0.8723 0.9302 0.7523
C52 C 0.8767(5) 1.0723(5) 0.7607(4)
H36 H 0.8764 1.0451 0.8198
C53 C 0.8782(5) 1.2148(5) 0.6343(4)
H37 H 0.8788 1.2878 0.6043
C54 C 0.8767(5) 1.1507(4) 0.5895(4)
H38 H 0.8751 1.1805 0.5307
N6 N 0.8604(4) 0.9008(4) 0.3324(3)
N7 N 0.8617(4) 1.1061(4) 0.3315(3)
N8 N 0.9259(4) 1.1910(4) -0.0724(3)
N9 N 0.9245(4) 0.4474(4) 0.7162(3)
N10 N 0.8789(4) 1.1779(4) 0.7193(3)
O3 O 0.8840(3) 0.8172(3) 0.5024(2)
O4 O 0.8696(3) 1.0206(3) 0.5030(2)
Cu2 Cu 0.86635(5) 0.96103(5) 0.41744(4)
Ag2 Ag 1.05341(4) 0.73235(3) 0.21829(3)
N8A N 1.0741(4) 0.8090(4) 0.0724(3)
N9A N 1.0755(4) 0.5526(4) 0.2838(3)
N10A N 1.1211(4) 0.8221(4) 0.2807(3)
Ag2A Ag 0.94659(4) 1.26765(3) -0.21829(3)
Ag2A_2 Ag 0.94659(4) 0.26765(3) 0.78171(3)
Ag2A_3 Ag 0.94659(4) 1.26765(3) 0.78171(3)
B1 B 0.2230(8) 0.5114(7) 0.5803(6)
F1 F 0.3275(5) 0.4868(6) 0.5640(5)
F2 F 0.1748(6) 0.4642(6) 0.5442(5)
F3 F 0.1912(6) 0.6212(4) 0.5517(4)
F4 F 0.1914(6) 0.4742(5) 0.6693(4)
B2 B 0.6586(12) 0.9613(15) 0.9662(12)
F5 F 0.6362(9) 1.0641(10) 0.9554(9)
F6 F 0.5892(8) 0.8996(11) 1.0215(8)
F7 F 0.7572(7) 0.9144(11) 0.9806(8)
F8 F 0.6572(9) 0.9512(11) 0.8866(7)
O5 O 0.1454(18) 0.3913(18) 0.8472(11)
B3? B 0.7761(14) 0.7029(16) 0.9148(12)
F9? F 0.7335(9) 0.7905(11) 0.8555(9)
F10? F 0.8769(8) 0.7067(12) 0.8961(9)
F11? F 0.7533(10) 0.6137(11) 0.9068(9)
F12? F 0.7429(10) 0.6879(13) 1.0002(8)
loop_
_geom_bond_atom_site_label_1
_geom_bond_atom_site_label_2
_geom_bond_site_symmetry_1
_geom_bond_site_symmetry_2
C1 H1 1_555 1_555
C2 C1 1_555 1_555
H2 C2 1_555 1_555
C3 C2 1_555 1_555
H3 C3 1_555 1_555
C4 C3 1_555 1_555
C5 C4 1_555 1_555
C6 C5 1_555 1_555
C7 C6 1_555 1_555
H4 C7 1_555 1_555
C8 C7 1_555 1_555
H5 C8 1_555 1_555
C9 C8 1_555 1_555
H6 C9 1_555 1_555
C10 C5 1_555 1_555
C11 C10 1_555 1_555
H7 C11 1_555 1_555
C12 C11 1_555 1_555
H8 C12 1_555 1_555
C13 H9 1_555 1_555
C14 C10 1_555 1_555
H10 C14 1_555 1_555
C15 H11 1_555 1_555
C16 C15 1_555 1_555
H12 C16 1_555 1_555
C17 C16 1_555 1_555
C18 C17 1_555 1_555
H13 C18 1_555 1_555
C19 C18 1_555 1_555
H14 C19 1_555 1_555
C20 C17 1_555 1_555
C21 C20 1_555 1_555
H15 C21 1_555 1_555
C22 C21 1_555 1_555
C23 C22 1_555 1_555
C24 C23 1_555 1_555
H16 C24 1_555 1_555
C25 C24 1_555 1_555
H17 C25 1_555 1_555
C26 H18 1_555 1_555
C27 C23 1_555 1_555
H19 C27 1_555 1_555
N1 C1 1_555 1_555
N2 C6 1_555 1_555
N3 C12 1_555 1_555
N4 C15 1_555 1_555
N5 C25 1_555 1_555
O1 C20 1_555 1_555
O2 C22 1_555 1_555
Cu1 N1 1_555 1_555
Ag1 C7 1_555 1_555
C28 H20 1_555 1_555
C29 C28 1_555 1_555
H21 C29 1_555 1_555
C30 C29 1_555 1_555
H22 C30 1_555 1_555
C31 C30 1_555 1_555
C32 C31 1_555 1_555
C33 C32 1_555 1_555
C34 C33 1_555 1_555
H23 C34 1_555 1_555
C35 C34 1_555 1_555
H24 C35 1_555 1_555
C36 C35 1_555 1_555
H25 C36 1_555 1_555
C37 C32 1_555 1_555
C38 C37 1_555 1_555
H26 C38 1_555 1_555
C39 C38 1_555 1_555
H27 C39 1_555 1_555
C40 H28 1_555 1_555
C41 C37 1_555 1_555
H29 C41 1_555 1_555
C42 H30 1_555 1_555
C43 C42 1_555 1_555
H31 C43 1_555 1_555
C44 C43 1_555 1_555
C45 C44 1_555 1_555
H32 C45 1_555 1_555
C46 C45 1_555 1_555
H33 C46 1_555 1_555
C47 C44 1_555 1_555
C48 C47 1_555 1_555
H34 C48 1_555 1_555
C49 C48 1_555 1_555
C50 C49 1_555 1_555
C51 C50 1_555 1_555
H35 C51 1_555 1_555
C52 C51 1_555 1_555
H36 C52 1_555 1_555
C53 H37 1_555 1_555
C54 C50 1_555 1_555
H38 C54 1_555 1_555
N6 C28 1_555 1_555
N7 C33 1_555 1_555
N8 C39 1_555 1_555
N9 C42 1_555 1_555
N10 C52 1_555 1_555
O3 C47 1_555 1_555
O4 C49 1_555 1_555
Cu2 N6 1_555 1_555
Ag2 C29 1_555 1_555
B1 F1 1_555 1_555
F2 B1 1_555 1_555
F3 B1 1_555 1_555
F4 B1 1_555 1_555
B2 F5 1_555 1_555
F6 B2 1_555 1_555
F7 B2 1_555 1_555
F8 B2 1_555 1_555
N3A Ag1 1_555 1_555
N4A Ag1 1_555 1_555
N5A Ag1 1_555 1_555
Ag1A N3 1_555 1_555
Ag1A_2 N4 1_555 1_555
Ag1A_3 N5 1_555 1_555
N8A Ag2 1_555 1_555
N9A Ag2 1_555 1_555
N10A Ag2 1_555 1_555
Ag2A N8 1_555 1_555
Ag2A_2 N9 1_555 1_555
Ag2A_3 N10 1_555 1_555
C4 N1 1_555 1_555
C8 Ag1 1_555 1_555
C9 N2 1_555 1_555
C13 C14 1_555 1_555
C13 N3 1_555 1_555
C19 N4 1_555 1_555
C26 C27 1_555 1_555
C26 N5 1_555 1_555
N2 Cu1 1_555 1_555
O1 Cu1 1_555 1_555
O2 Cu1 1_555 1_555
C30 Ag2 1_555 1_555
C31 N6 1_555 1_555
C36 N7 1_555 1_555
C40 C41 1_555 1_555
C40 N8 1_555 1_555
C46 N9 1_555 1_555
C53 C54 1_555 1_555
C53 N10 1_555 1_555
N7 Cu2 1_555 1_555
O3 Cu2 1_555 1_555
O4 Cu2 1_555 1_555

#END
