
#######################################################################
#
#                 Cambridge Crystallographic Data Centre
#                                CCDC 
#
#######################################################################
#
# If this CIF has been generated from an entry in the Cambridge 
# Structural Database, then it will include bibliographic, chemical, 
# crystal, experimental, refinement or atomic coordinate data resulting 
# from the CCDC's data processing and validation procedures.
#
#######################################################################

data_FEBKIH02
_symmetry_cell_setting           orthorhombic
_symmetry_space_group_name_H-M   'P b c a'
_symmetry_Int_Tables_number      61
_space_group_name_Hall           '-P 2ac 2ab'
loop_
_symmetry_equiv_pos_site_id
_symmetry_equiv_pos_as_xyz
1 x,y,z
2 1/2-x,-y,1/2+z
3 -x,1/2+y,1/2-z
4 1/2+x,1/2-y,-z
5 -x,-y,-z
6 1/2+x,y,1/2-z
7 x,1/2-y,1/2+z
8 1/2-x,1/2+y,z
_cell_length_a                   9.1739(18)
_cell_length_b                   16.288(3)
_cell_length_c                   19.866(4)
_cell_angle_alpha                90
_cell_angle_beta                 90
_cell_angle_gamma                90
_cell_volume                     2968.47
loop_
_atom_site_label
_atom_site_type_symbol
_atom_site_fract_x
_atom_site_fract_y
_atom_site_fract_z
Cd1 Cd 0.88100(2) 0.149034(12) 0.655316(8)
O1 O 0.8323(3) 0.00363(14) 0.66136(9)
O2 O 0.6379(3) 0.15760(17) 0.68366(15)
O3 O 1.1548(3) -0.20186(17) 0.85165(12)
N1 N 0.8290(3) 0.15173(14) 0.54020(12)
C1 C 0.9070(3) -0.00334(18) 0.71326(14)
O4 O 0.9619(3) 0.05819(12) 0.74207(10)
C2 C 0.9371(3) 0.13594(19) 0.49703(14)
N2 N 1.0928(3) 0.11568(18) 0.59314(12)
C3 C 1.3263(4) 0.0661(3) 0.5164(2)
H1 H 1.4049 0.0491 0.4904
C4 C 0.6992(4) 0.1734(2) 0.51655(16)
H2 H 0.6245 0.1834 0.5471
C5 C 0.7808(6) 0.1675(3) 0.40464(19)
H3 H 0.7651 0.1737 0.3587
C6 C 1.0799(3) 0.1112(2) 0.52580(14)
C7 C 0.9150(5) 0.1442(3) 0.42824(18)
H4 H 0.9908 0.1339 0.3983
C8 C 1.1959(4) 0.0869(3) 0.48619(18)
H5 H 1.1864 0.0847 0.4396
C9 C 0.6701(5) 0.1817(3) 0.44935(19)
H6 H 0.5777 0.1966 0.4345
O5 O 0.9983(3) -0.25074(15) 0.78082(13)
C10 C 1.0660(3) -0.19149(18) 0.80641(15)
C11 C 1.0347(3) -0.10564(18) 0.78314(15)
C12 C 0.9346(4) -0.08829(18) 0.73902(15)
C13 C 1.2200(4) 0.0959(3) 0.62120(18)
H7 H 1.2287 0.0994 0.6677
C14 C 1.3389(4) 0.0706(3) 0.5846(2)
H8 H 1.4258 0.0569 0.6059
H9 H 0.619(5) 0.196(2) 0.707(3)
H10 H 0.607(4) 0.1177(18) 0.702(2)
H11 H 0.875(3) -0.1405(19) 0.7156(17)
H12 H 1.089(3) -0.063(2) 0.8067(18)
Cd1B Cd 1.11900(2) -0.350966(12) 0.844684(8)
O3B O 0.8452(3) 0.29814(17) 0.64835(12)
O5B O 1.0017(3) 0.24926(15) 0.71918(13)
loop_
_geom_bond_atom_site_label_1
_geom_bond_atom_site_label_2
_geom_bond_site_symmetry_1
_geom_bond_site_symmetry_2
Cd1 O1 1_555 1_555
O1 C1 1_555 1_555
O2 Cd1 1_555 1_555
O3 C10 1_555 1_555
N1 Cd1 1_555 1_555
C1 O4 1_555 1_555
O4 Cd1 1_555 1_555
C2 N1 1_555 1_555
N2 Cd1 1_555 1_555
C3 H1 1_555 1_555
C4 N1 1_555 1_555
H2 C4 1_555 1_555
C5 H3 1_555 1_555
C6 C2 1_555 1_555
C7 C2 1_555 1_555
H4 C7 1_555 1_555
C8 C3 1_555 1_555
H5 C8 1_555 1_555
C9 C4 1_555 1_555
H6 C9 1_555 1_555
O5 C10 1_555 1_555
C10 C11 1_555 1_555
C11 C12 1_555 1_555
C12 C1 1_555 1_555
C13 N2 1_555 1_555
H7 C13 1_555 1_555
C14 C3 1_555 1_555
H8 C14 1_555 1_555
H9 O2 1_555 1_555
H10 O2 1_555 1_555
H11 C12 1_555 1_555
H12 C11 1_555 1_555
Cd1B O3 1_555 1_555
O3B Cd1 1_555 1_555
O5B Cd1 1_555 1_555
N2 C6 1_555 1_555
C5 C7 1_555 1_555
C5 C9 1_555 1_555
C6 C8 1_555 1_555
O5 Cd1B 1_555 1_555
C13 C14 1_555 1_555

#END
