
#######################################################################
#
#                 Cambridge Crystallographic Data Centre
#                                CCDC 
#
#######################################################################
#
# If this CIF has been generated from an entry in the Cambridge 
# Structural Database, then it will include bibliographic, chemical, 
# crystal, experimental, refinement or atomic coordinate data resulting 
# from the CCDC's data processing and validation procedures.
#
#######################################################################

data_FEBMUV02
_symmetry_cell_setting           orthorhombic
_symmetry_space_group_name_H-M   'P 21 21 21'
_symmetry_Int_Tables_number      19
_space_group_name_Hall           'P 2ac 2ab'
loop_
_symmetry_equiv_pos_site_id
_symmetry_equiv_pos_as_xyz
1 x,y,z
2 1/2-x,-y,1/2+z
3 -x,1/2+y,1/2-z
4 1/2+x,1/2-y,-z
_cell_length_a                   7.342(1)
_cell_length_b                   9.430(1)
_cell_length_c                   13.834(2)
_cell_angle_alpha                90
_cell_angle_beta                 90
_cell_angle_gamma                90
_cell_volume                     957.798
loop_
_atom_site_label
_atom_site_type_symbol
_atom_site_fract_x
_atom_site_fract_y
_atom_site_fract_z
Zn1 Zn 0.90498(7) 0.61151(6) 0.23248(4)
O1 O 0.9220(4) 0.4584(3) 0.1257(2)
O2 O 0.7598(4) 0.3311(3) 0.0214(2)
O3 O 0.2535(5) 0.9475(3) 0.1807(3)
O4 O 0.0416(4) 0.7811(3) 0.1632(2)
O5 O 0.8379(5) 0.7472(4) 0.3413(2)
H1 H 0.918(6) 0.813(5) 0.337(4)
H2 H 0.832(11) 0.727(8) 0.4018(15)
O6 O 1.1340(5) 0.5240(4) 0.2902(2)
H3 H 1.230(5) 0.562(6) 0.314(4)
H4 H 1.097(7) 0.466(5) 0.333(3)
N1 N 0.6546(5) 0.6388(3) 0.1564(2)
C1 C 0.6211(6) 0.5326(4) 0.0943(3)
C2 C 0.4562(6) 0.5163(5) 0.0490(3)
H5 H 0.4385 0.4436 0.0045
C3 C 0.3165(5) 0.6099(5) 0.0706(3)
H6 H 0.2018 0.5982 0.0432
C4 C 0.3501(6) 0.7207(5) 0.1333(3)
C5 C 0.5233(6) 0.7315(4) 0.1745(3)
H7 H 0.5474 0.8065 0.2162
C6 C 0.7790(6) 0.4321(5) 0.0781(3)
C7 C 0.2032(6) 0.8233(4) 0.1615(3)
Zn1B Zn 0.09502(7) 1.11151(6) 0.26752(4)
Zn1_2 Zn -0.09502(7) 0.61151(6) 0.23248(4)
O3B O 0.7465(5) 0.4475(3) 0.3193(3)
O4_2 O 1.0416(4) 0.7811(3) 0.1632(2)
O7 O 0.9251(6) 0.9158(5) 0.6105(4)
H8 H 1.026(5) 0.953(6) 0.629(5)
H9 H 0.955(9) 0.845(6) 0.575(5)
loop_
_geom_bond_atom_site_label_1
_geom_bond_atom_site_label_2
_geom_bond_site_symmetry_1
_geom_bond_site_symmetry_2
Zn1 O1 1_555 1_555
O1 C6 1_555 1_555
O2 C6 1_555 1_555
O3 C7 1_555 1_555
O4 C7 1_555 1_555
O5 Zn1 1_555 1_555
H1 O5 1_555 1_555
H2 O5 1_555 1_555
O6 Zn1 1_555 1_555
H3 O6 1_555 1_555
H4 O6 1_555 1_555
N1 Zn1 1_555 1_555
C1 N1 1_555 1_555
C2 C1 1_555 1_555
H5 C2 1_555 1_555
C3 C2 1_555 1_555
H6 C3 1_555 1_555
C4 C3 1_555 1_555
C5 N1 1_555 1_555
H7 C5 1_555 1_555
C6 C1 1_555 1_555
C7 C4 1_555 1_555
O7 H8 1_555 1_555
H9 O7 1_555 1_555
Zn1B O3 1_555 1_555
Zn1_2 O4 1_555 1_555
O3B Zn1 1_555 1_555
O4_2 Zn1 1_555 1_555
C4 C5 1_555 1_555

#END
