
#######################################################################
#
#                 Cambridge Crystallographic Data Centre
#                                CCDC 
#
#######################################################################
#
# If this CIF has been generated from an entry in the Cambridge 
# Structural Database, then it will include bibliographic, chemical, 
# crystal, experimental, refinement or atomic coordinate data resulting 
# from the CCDC's data processing and validation procedures.
#
#######################################################################

data_FEBNEG
_symmetry_cell_setting           tetragonal
_symmetry_space_group_name_H-M   'I -4'
_symmetry_Int_Tables_number      82
_space_group_name_Hall           'I -4'
loop_
_symmetry_equiv_pos_site_id
_symmetry_equiv_pos_as_xyz
1 x,y,z
2 -x,-y,z
3 y,-x,-z
4 -y,x,-z
5 1/2+x,1/2+y,1/2+z
6 1/2-x,1/2-y,1/2+z
7 1/2+y,1/2-x,1/2-z
8 1/2-y,1/2+x,1/2-z
_cell_length_a                   14.171(2)
_cell_length_b                   14.171(2)
_cell_length_c                   13.245(3)
_cell_angle_alpha                90
_cell_angle_beta                 90
_cell_angle_gamma                90
_cell_volume                     2659.82
loop_
_atom_site_label
_atom_site_type_symbol
_atom_site_fract_x
_atom_site_fract_y
_atom_site_fract_z
Cu1 Cu 0.02078(6) 0.09579(6) 0.42460(5)
I1 I 0.03663(3) 0.15770(3) 0.61213(3)
S1 S 0.06197(12) 0.20328(11) 0.30024(11)
O1 O 0.0285(4) 0.4032(4) 0.3793(5)
C1 C 0.0436(6) 0.1912(5) 0.0113(4)
H1 H -0.0206 0.1776 0.0138
C2 C 0.0824(8) 0.2286(7) -0.0776(6)
H2 H 0.0441 0.2417 -0.1329
C3 C 0.1749(8) 0.2451(7) -0.0817(8)
H3 H 0.2011 0.2697 -0.1405
C4 C 0.2318(7) 0.2267(7) -0.0011(8)
H4 H 0.2964 0.2370 -0.0056
C5 C 0.1933(5) 0.1929(6) 0.0864(6)
H5 H 0.2321 0.1823 0.1419
C6 C 0.0982(4) 0.1744(4) 0.0940(4)
C7 C 0.0564(7) 0.1309(6) 0.1867(5)
H6 H 0.0888 0.0718 0.1999
H7 H -0.0092 0.1160 0.1731
C8 C -0.0393(5) 0.2810(5) 0.2803(6)
H8 H -0.0301 0.3174 0.2190
H9 H -0.0960 0.2434 0.2721
C9 C -0.0512(5) 0.3470(6) 0.3686(7)
H10 H -0.1062 0.3865 0.3579
H11 H -0.0612 0.3107 0.4297
C10 C 0.0272(9) 0.4603(7) 0.4705(7)
H12 H 0.0061 0.4205 0.5256
H13 H 0.0916 0.4789 0.4852
Cu1B Cu 0.09579(6) -0.02078(6) 0.57540(5)
Cu1C Cu -0.09579(6) 0.02078(6) 0.57540(5)
Cu1A Cu -0.02078(6) 0.90421(6) 0.42460(5)
Cu1A_2 Cu -0.02078(6) -0.09579(6) 0.42460(5)
I1B I 0.15770(3) -0.03663(3) 0.38787(3)
I1C I -0.15770(3) 0.03663(3) 0.38787(3)
I1A I -0.03663(3) -0.15770(3) 0.61213(3)
S1A S -0.06197(12) 0.79672(11) 0.30024(11)
S1B S 0.20328(11) -0.06197(12) 0.69976(11)
O1A O -0.0285(4) 0.5968(4) 0.3793(5)
C1A C -0.0436(6) 0.8088(5) 0.0113(4)
H1A H 0.0206 0.8224 0.0138
C2A C -0.0824(8) 0.7714(7) -0.0776(6)
H2A H -0.0441 0.7583 -0.1329
C3A C -0.1749(8) 0.7549(7) -0.0817(8)
H3A H -0.2011 0.7303 -0.1405
C4A C -0.2318(7) 0.7733(7) -0.0011(8)
H4A H -0.2964 0.7630 -0.0056
C5A C -0.1933(5) 0.8071(6) 0.0864(6)
H5A H -0.2321 0.8177 0.1419
C6A C -0.0982(4) 0.8256(4) 0.0940(4)
C7A C -0.0564(7) 0.8691(6) 0.1867(5)
H6A H -0.0888 0.9282 0.1999
H7A H 0.0092 0.8840 0.1731
C8A C 0.0393(5) 0.7190(5) 0.2803(6)
H8A H 0.0301 0.6826 0.2190
H9A H 0.0960 0.7566 0.2721
C9A C 0.0512(5) 0.6530(6) 0.3686(7)
H10A H 0.1062 0.6135 0.3579
H11A H 0.0612 0.6893 0.4297
C10A C -0.0272(9) 0.5397(7) 0.4705(7)
H12A H -0.0061 0.5795 0.5256
H13A H -0.0916 0.5211 0.4852
loop_
_geom_bond_atom_site_label_1
_geom_bond_atom_site_label_2
_geom_bond_site_symmetry_1
_geom_bond_site_symmetry_2
Cu1 I1 1_555 1_555
I1 Cu1B 1_555 1_555
S1 Cu1 1_555 1_555
O1 C9 1_555 1_555
C1 H1 1_555 1_555
C2 C1 1_555 1_555
H2 C2 1_555 1_555
C3 C2 1_555 1_555
H3 C3 1_555 1_555
C4 C3 1_555 1_555
H4 C4 1_555 1_555
C5 C4 1_555 1_555
H5 C5 1_555 1_555
C6 C1 1_555 1_555
C7 S1 1_555 1_555
H6 C7 1_555 1_555
H7 C7 1_555 1_555
C8 S1 1_555 1_555
H8 C8 1_555 1_555
H9 C8 1_555 1_555
C9 C8 1_555 1_555
H10 C9 1_555 1_555
H11 C9 1_555 1_555
C10 O1 1_555 1_555
H12 C10 1_555 1_555
H13 C10 1_555 1_555
Cu1B I1B 1_555 1_555
Cu1C I1 1_555 1_555
Cu1A S1A 1_555 1_555
Cu1A_2 I1B 1_555 1_555
I1B Cu1 1_555 1_555
I1C Cu1 1_555 1_555
I1A Cu1B 1_555 1_555
S1A C7A 1_555 1_555
S1B Cu1B 1_555 1_555
O1A C9A 1_555 1_555
C1A H1A 1_555 1_555
C2A C1A 1_555 1_555
H2A C2A 1_555 1_555
C3A C2A 1_555 1_555
H3A C3A 1_555 1_555
C4A C3A 1_555 1_555
H4A C4A 1_555 1_555
C5A C4A 1_555 1_555
H5A C5A 1_555 1_555
C6A C1A 1_555 1_555
C7A C6A 1_555 1_555
H6A C7A 1_555 1_555
H7A C7A 1_555 1_555
C8A S1A 1_555 1_555
H8A C8A 1_555 1_555
H9A C8A 1_555 1_555
C9A C8A 1_555 1_555
H10A C9A 1_555 1_555
H11A C9A 1_555 1_555
C10A C10 1_555 1_555
H12A C10A 1_555 1_555
H13A C10A 1_555 1_555
C5 C6 1_555 1_555
C6 C7 1_555 1_555
Cu1C I1C 1_555 1_555
Cu1C I1A 1_555 1_555
Cu1A_2 I1C 1_555 1_555
Cu1A_2 I1A 1_555 1_555
O1A C10A 1_555 1_555
C5A C6A 1_555 1_555

#END
