
#######################################################################
#
#                 Cambridge Crystallographic Data Centre
#                                CCDC 
#
#######################################################################
#
# If this CIF has been generated from an entry in the Cambridge 
# Structural Database, then it will include bibliographic, chemical, 
# crystal, experimental, refinement or atomic coordinate data resulting 
# from the CCDC's data processing and validation procedures.
#
#######################################################################

data_FEBNAC
_symmetry_cell_setting           monoclinic
_symmetry_space_group_name_H-M   'P 21'
_symmetry_Int_Tables_number      4
_space_group_name_Hall           'P 2yb'
loop_
_symmetry_equiv_pos_site_id
_symmetry_equiv_pos_as_xyz
1 x,y,z
2 -x,1/2+y,-z
_cell_length_a                   9.12800(10)
_cell_length_b                   19.8299(4)
_cell_length_c                   9.27150(10)
_cell_angle_alpha                90
_cell_angle_beta                 101.5630(10)
_cell_angle_gamma                90
_cell_volume                     1644.15
loop_
_atom_site_label
_atom_site_type_symbol
_atom_site_fract_x
_atom_site_fract_y
_atom_site_fract_z
Nd1 Nd 0.29336(3) 0.177895(18) 1.43878(3)
Nd2 Nd 0.47499(3) 0.158120(17) 1.90283(3)
O1 O 0.3962(6) 0.2840(3) 1.5457(5)
O2 O 0.4844(9) 0.3858(4) 1.5202(9)
O3 O -0.1708(7) 0.3265(3) 0.9519(6)
O4 O -0.0728(8) 0.4238(3) 0.9005(7)
H1 H -0.1446 0.4238 0.8314
O5 O 0.1354(6) 0.2661(4) 1.8340(6)
O6 O 0.2566(5) 0.1978(3) 1.7075(5)
O7 O -0.5068(5) 0.2123(3) 1.3073(5)
O8 O -0.3662(5) 0.1820(3) 1.1486(5)
O9 O 0.3727(5) 0.0508(3) 1.7949(5)
O10 O 0.2748(7) -0.0495(3) 1.8317(7)
O11 O 0.9463(7) 0.0158(3) 2.3749(7)
O12 O 0.8830(8) -0.0915(4) 2.4089(8)
H2 H 0.9666 -0.0936 2.4615
O13 O 0.5134(5) 0.1381(3) 1.6345(5)
O14 O 0.6351(6) 0.0691(4) 1.5080(6)
O15 O 1.1356(4) 0.1526(3) 2.1938(5)
O16 O 1.2778(5) 0.1219(3) 2.0344(5)
O17 O 0.2028(6) 0.0716(3) 1.5275(6)
O18 O 0.3886(6) 0.0753(3) 1.3183(6)
O19 O 0.5717(6) 0.2628(3) 1.8118(6)
O20 O 0.3845(6) 0.2595(3) 2.0220(6)
N1 N 0.1935(7) 0.2955(4) 1.2983(7)
N2 N 0.0216(5) 0.2007(3) 1.4752(6)
N3 N 0.5757(6) 0.0403(3) 2.0432(7)
N4 N 0.7507(6) 0.1341(3) 1.8664(6)
C1 C 0.0823(8) 0.3038(4) 1.1813(8)
H3 H 0.0215 0.2671 1.1484
C2 C 0.0533(8) 0.3650(4) 1.1064(8)
C3 C 0.1507(10) 0.4181(5) 1.1490(10)
H4 H 0.1400 0.4583 1.0961
C4 C 0.2629(11) 0.4107(5) 1.2702(10)
H5 H 0.3265 0.4465 1.3037
C5 C 0.2805(8) 0.3499(4) 1.3419(8)
C6 C 0.3981(8) 0.3401(4) 1.4792(9)
C7 C -0.0751(9) 0.3690(4) 0.9789(8)
C8 C -0.1040(7) 0.1934(4) 1.3720(7)
H6 H -0.0968 0.1721 1.2843
C9 C -0.2435(7) 0.2156(4) 1.3888(7)
C10 C -0.2545(8) 0.2493(4) 1.5163(8)
H7 H -0.3455 0.2665 1.5298
C11 C -0.1264(8) 0.2567(5) 1.6234(9)
H8 H -0.1307 0.2788 1.7110
C12 C 0.0070(7) 0.2316(4) 1.6004(7)
C13 C 0.1451(7) 0.2338(4) 1.7267(7)
C14 C -0.3826(7) 0.2021(4) 1.2721(7)
C15 C 0.6898(8) 0.0313(4) 2.1569(8)
H9 H 0.7448 0.0690 2.1950
C16 C 0.7309(8) -0.0302(4) 2.2212(8)
C17 C 0.6477(9) -0.0866(4) 2.1698(9)
H10 H 0.6718 -0.1286 2.2126
C18 C 0.5283(10) -0.0791(4) 2.0536(9)
H11 H 0.4706 -0.1161 2.0160
C19 C 0.4958(8) -0.0157(4) 1.9939(9)
C20 C 0.3705(8) -0.0049(4) 1.8619(8)
C21 C 0.8653(9) -0.0328(4) 2.3440(9)
C22 C 0.8741(7) 0.1420(4) 1.9695(7)
H12 H 0.8659 0.1630 2.0572
C23 C 1.0148(7) 0.1202(4) 1.9525(7)
C24 C 1.0245(8) 0.0868(4) 1.8233(8)
H13 H 1.1157 0.0697 1.8100
C25 C 0.8974(7) 0.0790(4) 1.7142(9)
H14 H 0.9020 0.0574 1.6263
C26 C 0.7631(7) 0.1045(4) 1.7397(7)
C27 C 0.6241(7) 0.1033(4) 1.6180(8)
C28 C 1.1521(7) 0.1327(4) 2.0700(7)
Nd1_2 Nd -0.70664(3) 0.177895(18) 1.43878(3)
Nd1_3 Nd 1.29336(3) 0.177895(18) 2.43878(3)
Nd2_2 Nd -0.52501(3) 0.158120(17) 0.90283(3)
Nd2_3 Nd 1.47499(3) 0.158120(17) 1.90283(3)
O7_2 O 0.4932(5) 0.2123(3) 1.3073(5)
O8_2 O 0.6338(5) 0.1820(3) 2.1486(5)
O15_2 O 0.1356(4) 0.1526(3) 1.1938(5)
O16_2 O 0.2778(5) 0.1219(3) 2.0344(5)
O21 O -0.2780(7) 0.4437(3) 0.6727(7)
O22 O 1.1403(8) -0.1018(4) 1.5741(8)
loop_
_geom_bond_atom_site_label_1
_geom_bond_atom_site_label_2
_geom_bond_site_symmetry_1
_geom_bond_site_symmetry_2
Nd1 O1 1_555 1_555
Nd2 O6 1_555 1_555
O1 C6 1_555 1_555
O2 C6 1_555 1_555
O3 C7 1_555 1_555
O4 H1 1_555 1_555
O5 C13 1_555 1_555
O6 Nd1 1_555 1_555
O7 C14 1_555 1_555
O8 C14 1_555 1_555
O9 Nd2 1_555 1_555
O10 C20 1_555 1_555
O11 C21 1_555 1_555
O12 H2 1_555 1_555
O13 Nd1 1_555 1_555
O14 C27 1_555 1_555
O15 C28 1_555 1_555
O16 C28 1_555 1_555
O17 Nd1 1_555 1_555
O18 Nd1 1_555 1_555
O19 Nd2 1_555 1_555
O20 Nd2 1_555 1_555
N1 Nd1 1_555 1_555
N2 Nd1 1_555 1_555
N3 Nd2 1_555 1_555
N4 Nd2 1_555 1_555
C1 N1 1_555 1_555
H3 C1 1_555 1_555
C2 C1 1_555 1_555
C3 C2 1_555 1_555
H4 C3 1_555 1_555
C4 C3 1_555 1_555
H5 C4 1_555 1_555
C5 N1 1_555 1_555
C6 C5 1_555 1_555
C7 O4 1_555 1_555
C8 N2 1_555 1_555
H6 C8 1_555 1_555
C9 C8 1_555 1_555
C10 C9 1_555 1_555
H7 C10 1_555 1_555
C11 C10 1_555 1_555
H8 C11 1_555 1_555
C12 N2 1_555 1_555
C13 O6 1_555 1_555
C14 C9 1_555 1_555
C15 N3 1_555 1_555
H9 C15 1_555 1_555
C16 C15 1_555 1_555
C17 C16 1_555 1_555
H10 C17 1_555 1_555
C18 C17 1_555 1_555
H11 C18 1_555 1_555
C19 N3 1_555 1_555
C20 O9 1_555 1_555
C21 O12 1_555 1_555
C22 N4 1_555 1_555
H12 C22 1_555 1_555
C23 C22 1_555 1_555
C24 C23 1_555 1_555
H13 C24 1_555 1_555
C25 C24 1_555 1_555
H14 C25 1_555 1_555
C26 N4 1_555 1_555
C27 O13 1_555 1_555
C28 C23 1_555 1_555
Nd1_2 O7 1_555 1_555
Nd1_3 O15 1_555 1_555
Nd2_2 O8 1_555 1_555
Nd2_3 O16 1_555 1_555
O7_2 Nd1 1_555 1_555
O8_2 Nd2 1_555 1_555
O15_2 Nd1 1_555 1_555
O16_2 Nd2 1_555 1_555
Nd2 O13 1_555 1_555
C2 C7 1_555 1_555
C4 C5 1_555 1_555
C11 C12 1_555 1_555
C12 C13 1_555 1_555
C16 C21 1_555 1_555
C18 C19 1_555 1_555
C19 C20 1_555 1_555
C25 C26 1_555 1_555
C26 C27 1_555 1_555

#END
