
#######################################################################
#
#                 Cambridge Crystallographic Data Centre
#                                CCDC 
#
#######################################################################
#
# If this CIF has been generated from an entry in the Cambridge 
# Structural Database, then it will include bibliographic, chemical, 
# crystal, experimental, refinement or atomic coordinate data resulting 
# from the CCDC's data processing and validation procedures.
#
#######################################################################

data_FEBREL
_symmetry_cell_setting           triclinic
_symmetry_space_group_name_H-M   'P -1'
_symmetry_Int_Tables_number      2
_space_group_name_Hall           '-P 1'
loop_
_symmetry_equiv_pos_site_id
_symmetry_equiv_pos_as_xyz
1 x,y,z
2 -x,-y,-z
_cell_length_a                   10.369(7)
_cell_length_b                   12.645(9)
_cell_length_c                   14.307(9)
_cell_angle_alpha                102.839(13)
_cell_angle_beta                 92.253(14)
_cell_angle_gamma                102.395(11)
_cell_volume                     1778.87
loop_
_atom_site_label
_atom_site_type_symbol
_atom_site_fract_x
_atom_site_fract_y
_atom_site_fract_z
Cu1 Cu 0.78531(8) 0.25472(6) 0.26826(5)
N1 N 0.6660(5) 0.3068(4) 0.3673(3)
C1 C 0.5349(6) 0.2649(5) 0.3528(4)
H1 H 0.4993 0.2161 0.2925
C2 C 0.4501(6) 0.2892(5) 0.4207(4)
H2 H 0.3574 0.2585 0.4071
C3 C 0.5003(6) 0.3594(5) 0.5104(4)
C4 C 0.6350(6) 0.4038(5) 0.5248(4)
H3 H 0.6732 0.4535 0.5842
C5 C 0.7142(6) 0.3757(5) 0.4521(4)
H4 H 0.8069 0.4069 0.4631
C6 C 0.4098(6) 0.3805(5) 0.5876(4)
H5 H 0.4615 0.4336 0.6451
H6 H 0.3416 0.4154 0.5650
C7 C 0.3415(6) 0.2743(5) 0.6159(4)
H7 H 0.2910 0.2204 0.5584
H8 H 0.2779 0.2920 0.6635
C8 C 0.4407(7) 0.2216(6) 0.6586(4)
H9 H 0.4833 0.2725 0.7202
H10 H 0.5108 0.2135 0.6143
C9 C 0.3807(6) 0.1093(5) 0.6768(4)
C10 C 0.3850(6) 0.0926(5) 0.7691(4)
H11 H 0.4235 0.1522 0.8225
C11 C 0.3326(6) -0.0121(5) 0.7819(4)
H12 H 0.3369 -0.0228 0.8455
N2 N 0.2756(5) -0.1005(4) 0.7102(3)
C12 C 0.2697(6) -0.0811(6) 0.6213(4)
H13 H 0.2291 -0.1413 0.5690
C13 C 0.3193(6) 0.0208(5) 0.6025(4)
H14 H 0.3115 0.0303 0.5386
N3 N 0.8036(5) 0.3950(4) 0.2211(3)
C14 C 0.9193(6) 0.4446(5) 0.1903(4)
H15 H 0.9969 0.4187 0.2006
C15 C 0.9274(7) 0.5293(5) 0.1455(4)
H16 H 1.0100 0.5610 0.1252
C16 C 0.8165(7) 0.5708(5) 0.1286(4)
C17 C 0.7012(6) 0.5217(5) 0.1627(4)
H17 H 0.6229 0.5477 0.1552
C18 C 0.6991(6) 0.4378(5) 0.2064(4)
H18 H 0.6177 0.4065 0.2284
C19 C 0.8241(7) 0.6636(5) 0.0781(4)
H19 H 0.7335 0.6651 0.0546
H20 H 0.8755 0.6499 0.0216
C20 C 0.8888(7) 0.7750(5) 0.1442(4)
H21 H 0.8348 0.7898 0.1991
H22 H 0.9774 0.7718 0.1702
C21 C 0.9039(8) 0.8696(6) 0.0941(4)
H23 H 0.9482 0.9399 0.1405
H24 H 0.8148 0.8769 0.0730
C22 C 0.9837(8) 0.8531(5) 0.0074(4)
C23 C 1.1101(7) 0.8345(6) 0.0149(4)
H25 H 1.1520 0.8385 0.0763
C24 C 1.1739(7) 0.8107(6) -0.0647(4)
H26 H 1.2600 0.7973 -0.0576
N4 N 1.1220(5) 0.8050(4) -0.1532(3)
C25 C 1.0037(7) 0.8288(5) -0.1613(4)
H27 H 0.9681 0.8311 -0.2228
C26 C 0.9313(7) 0.8502(5) -0.0837(4)
H28 H 0.8452 0.8631 -0.0927
N5 N 1.0522(6) 0.3568(6) 0.4034(4)
O1 O 1.1490(5) 0.3474(5) 0.4483(5)
O2 O 0.9559(4) 0.2737(4) 0.3731(3)
O3 O 1.0436(5) 0.4491(5) 0.3906(3)
Cu1A Cu 0.21469(8) -0.25472(6) 0.73174(5)
Cu1A_2 Cu 1.21469(8) 0.74528(6) -0.26826(5)
N2A N 0.7244(5) 0.1005(4) 0.2898(3)
N4A N 0.8780(5) 0.1950(4) 0.1532(3)
C27 C 0.3028(9) 0.3999(9) 0.2059(6)
H29 H 0.3975 0.4265 0.2274
H30 H 0.2906 0.3409 0.1467
H31 H 0.2558 0.3703 0.2561
O4 O 0.2526(10) 0.4872(9) 0.1885(7)
H32 H 0.3137 0.5305 0.1653
Cl1 Cl 0.2984(2) 1.00568(19) 0.24017(15)
Cl2 Cl 0.0782(2) 1.05664(18) 0.37608(12)
C28 C 0.2120(7) 0.9050(7) 0.2931(5)
C29 C 0.2396(8) 0.8006(7) 0.2717(6)
H33 H 0.3039 0.7848 0.2285
C30 C 0.1738(9) 0.7211(8) 0.3133(6)
H34 H 0.1956 0.6503 0.3005
C31 C 0.0747(9) 0.7397(8) 0.3744(5)
H35 H 0.0290 0.6827 0.4026
C32 C 0.0451(8) 0.8452(8) 0.3928(5)
H36 H -0.0234 0.8598 0.4325
C33 C 0.1141(8) 0.9265(7) 0.3541(5)
N6 N 0.5583(13) 0.3563(11) -0.0351(9)
O5 O 0.5684(7) 0.4305(8) -0.0677(6)
O6 O 0.6365(12) 0.3011(10) -0.0641(7)
O7 O 0.4736(11) 0.3228(11) 0.0230(8)
C34 C 0.455(2) 0.0794(16) 0.0407(9)
H37 H 0.5153 0.0734 -0.0103
H38 H 0.3728 0.0941 0.0160
H39 H 0.4348 0.0095 0.0618
O8 O 0.5183(5) 0.1713(4) 0.1226(3)
H40 H 0.5220 0.2324 0.1076
N7? N 0.4777(17) 0.1869(14) 0.0501(10)
O9? O 0.5525(17) 0.2158(16) -0.0088(11)
O10? O 0.3659(18) 0.1573(18) 0.0174(13)
loop_
_geom_bond_atom_site_label_1
_geom_bond_atom_site_label_2
_geom_bond_site_symmetry_1
_geom_bond_site_symmetry_2
Cu1 N1 1_555 1_555
N1 C1 1_555 1_555
C1 H1 1_555 1_555
C2 C1 1_555 1_555
H2 C2 1_555 1_555
C3 C2 1_555 1_555
C4 C3 1_555 1_555
H3 C4 1_555 1_555
C5 N1 1_555 1_555
H4 C5 1_555 1_555
C6 C3 1_555 1_555
H5 C6 1_555 1_555
H6 C6 1_555 1_555
C7 C6 1_555 1_555
H7 C7 1_555 1_555
H8 C7 1_555 1_555
C8 C7 1_555 1_555
H9 C8 1_555 1_555
H10 C8 1_555 1_555
C9 C8 1_555 1_555
C10 C9 1_555 1_555
H11 C10 1_555 1_555
C11 C10 1_555 1_555
H12 C11 1_555 1_555
N2 C11 1_555 1_555
C12 N2 1_555 1_555
H13 C12 1_555 1_555
C13 C9 1_555 1_555
H14 C13 1_555 1_555
N3 Cu1 1_555 1_555
C14 N3 1_555 1_555
H15 C14 1_555 1_555
C15 C14 1_555 1_555
H16 C15 1_555 1_555
C16 C15 1_555 1_555
C17 C16 1_555 1_555
H17 C17 1_555 1_555
C18 N3 1_555 1_555
H18 C18 1_555 1_555
C19 C16 1_555 1_555
H19 C19 1_555 1_555
H20 C19 1_555 1_555
C20 C19 1_555 1_555
H21 C20 1_555 1_555
H22 C20 1_555 1_555
C21 C20 1_555 1_555
H23 C21 1_555 1_555
H24 C21 1_555 1_555
C22 C21 1_555 1_555
C23 C22 1_555 1_555
H25 C23 1_555 1_555
C24 C23 1_555 1_555
H26 C24 1_555 1_555
N4 C24 1_555 1_555
C25 N4 1_555 1_555
H27 C25 1_555 1_555
C26 C22 1_555 1_555
H28 C26 1_555 1_555
N5 O1 1_555 1_555
O2 Cu1 1_555 1_555
O3 N5 1_555 1_555
C27 H29 1_555 1_555
H30 C27 1_555 1_555
H31 C27 1_555 1_555
O4 C27 1_555 1_555
H32 O4 1_555 1_555
Cl1 C28 1_555 1_555
Cl2 C33 1_555 1_555
C28 C29 1_555 1_555
C29 H33 1_555 1_555
C30 C29 1_555 1_555
H34 C30 1_555 1_555
C31 C30 1_555 1_555
H35 C31 1_555 1_555
C32 C31 1_555 1_555
H36 C32 1_555 1_555
C33 C28 1_555 1_555
N6 O5 1_555 1_555
O6 N6 1_555 1_555
O7 N6 1_555 1_555
C34 H37 1_555 1_555
H38 C34 1_555 1_555
H39 C34 1_555 1_555
O8 C34 1_555 1_555
H40 O8 1_555 1_555
Cu1A N2 1_555 1_555
Cu1A_2 N4 1_555 1_555
N2A Cu1 1_555 1_555
N4A Cu1 1_555 1_555
C4 C5 1_555 1_555
C12 C13 1_555 1_555
C17 C18 1_555 1_555
C25 C26 1_555 1_555
N5 O2 1_555 1_555
C32 C33 1_555 1_555

#END
