
#######################################################################
#
#                 Cambridge Crystallographic Data Centre
#                                CCDC 
#
#######################################################################
#
# If this CIF has been generated from an entry in the Cambridge 
# Structural Database, then it will include bibliographic, chemical, 
# crystal, experimental, refinement or atomic coordinate data resulting 
# from the CCDC's data processing and validation procedures.
#
#######################################################################

data_FECDUN
_symmetry_cell_setting           monoclinic
_symmetry_space_group_name_H-M   'P 21/c'
_symmetry_Int_Tables_number      14
_space_group_name_Hall           '-P 2ybc'
loop_
_symmetry_equiv_pos_site_id
_symmetry_equiv_pos_as_xyz
1 x,y,z
2 -x,1/2+y,1/2-z
3 -x,-y,-z
4 x,1/2-y,1/2+z
_cell_length_a                   8.6535(5)
_cell_length_b                   9.7760(10)
_cell_length_c                   14.286(4)
_cell_angle_alpha                90
_cell_angle_beta                 121.970(10)
_cell_angle_gamma                90
_cell_volume                     1025.24
loop_
_atom_site_label
_atom_site_type_symbol
_atom_site_fract_x
_atom_site_fract_y
_atom_site_fract_z
Ag1 Ag 0.89503(7) 0.65579(4) 0.65481(4)
C1 C 0.9535(8) 0.4584(6) 0.7131(5)
N1 N 0.9905(8) 0.3516(6) 0.7481(4)
N2 N 0.7225(6) 0.7741(4) 0.4958(3)
C2 C 0.7978(8) 0.8262(6) 0.4421(5)
C3 C 0.9923(11) 0.7922(12) 0.4856(9)
C4 C 0.6975(10) 0.9054(7) 0.3492(5)
C5 C 0.5195(11) 0.9356(6) 0.3098(5)
C6 C 0.4034(18) 1.0221(12) 0.2065(9)
C7 C 0.4450(10) 0.8837(7) 0.3665(5)
C8 C 0.5470(8) 0.8033(6) 0.4576(5)
C9 C 0.4674(13) 0.7421(13) 0.5189(8)
H1 H 1.055(9) 0.809(7) 0.554(6)
H2 H 1.006(11) 0.699(8) 0.492(7)
H3 H 1.023(8) 0.825(6) 0.436(5)
H4 H 0.743(7) 0.940(6) 0.312(4)
H5 H 0.382(14) 0.952(13) 0.144(8)
H6 H 0.329(13) 1.081(11) 0.211(7)
H7 H 0.500(9) 1.075(7) 0.198(5)
H8 H 0.303(11) 0.891(7) 0.334(6)
H9 H 0.474(14) 0.665(10) 0.522(8)
H10 H 0.541(8) 0.756(6) 0.598(5)
H11 H 0.368(16) 0.775(11) 0.517(9)
Ag1A Ag 1.10497(7) 0.15579(4) 0.84519(4)
N1A N 1.0095(8) 0.8516(6) 0.7519(4)
loop_
_geom_bond_atom_site_label_1
_geom_bond_atom_site_label_2
_geom_bond_site_symmetry_1
_geom_bond_site_symmetry_2
Ag1 C1 1_555 1_555
C1 N1 1_555 1_555
N1 Ag1A 1_555 1_555
N2 Ag1 1_555 1_555
C2 N2 1_555 1_555
C3 C2 1_555 1_555
C4 C2 1_555 1_555
C5 C4 1_555 1_555
C6 C5 1_555 1_555
C7 C5 1_555 1_555
C8 N2 1_555 1_555
C9 C8 1_555 1_555
H1 C3 1_555 1_555
H2 C3 1_555 1_555
H3 C3 1_555 1_555
H4 C4 1_555 1_555
H5 C6 1_555 1_555
H6 C6 1_555 1_555
H7 C6 1_555 1_555
H8 C7 1_555 1_555
H9 C9 1_555 1_555
H10 C9 1_555 1_555
H11 C9 1_555 1_555
N1A Ag1 1_555 1_555
C7 C8 1_555 1_555

#END
