
#######################################################################
#
#                 Cambridge Crystallographic Data Centre
#                                CCDC 
#
#######################################################################
#
# If this CIF has been generated from an entry in the Cambridge 
# Structural Database, then it will include bibliographic, chemical, 
# crystal, experimental, refinement or atomic coordinate data resulting 
# from the CCDC's data processing and validation procedures.
#
#######################################################################

data_FECQUZ
_symmetry_cell_setting           monoclinic
_symmetry_space_group_name_H-M   'P 21/c'
_symmetry_Int_Tables_number      14
_space_group_name_Hall           '-P 2ybc'
loop_
_symmetry_equiv_pos_site_id
_symmetry_equiv_pos_as_xyz
1 x,y,z
2 -x,1/2+y,1/2-z
3 -x,-y,-z
4 x,1/2-y,1/2+z
_cell_length_a                   3.535(3)
_cell_length_b                   15.06(1)
_cell_length_c                   24.42(2)
_cell_angle_alpha                90
_cell_angle_beta                 91.7(1)
_cell_angle_gamma                90
_cell_volume                     1299.48
loop_
_atom_site_label
_atom_site_type_symbol
_atom_site_fract_x
_atom_site_fract_y
_atom_site_fract_z
Li1 Li 1.01(1) 0.551(3) 0.235(2)
Li2 Li 0.49(1) 0.681(3) 0.268(2)
O1 O 0.520(6) 0.5961(9) 0.2063(7)
C1 C 0.536(6) 0.610(1) 0.1531(9)
N1 N 0.354(6) 0.768(1) 0.1562(8)
C2 C 0.483(7) 0.692(1) 0.1270(9)
O2 O 0.354(5) 0.770(1) 0.2059(7)
O3 O 0.272(6) 0.833(1) 0.1305(8)
C3 C 0.523(8) 0.701(2) 0.070(1)
C4 C 0.61(1) 0.628(2) 0.040(1)
C5 C 0.700(7) 0.551(2) 0.067(1)
C6 C 0.663(8) 0.540(1) 0.121(1)
O4 O 1.019(5) 0.6344(9) 0.2957(6)
C7 C 1.050(6) 0.629(1) 0.3493(9)
C8 C 0.966(6) 0.695(1) 0.3862(9)
N2 N 0.842(6) 0.778(1) 0.3666(8)
O5 O 0.667(6) 0.783(1) 0.3210(7)
O6 O 0.864(6) 0.844(1) 0.3947(8)
C9 C 1.006(6) 0.688(1) 0.443(1)
C10 C 1.169(7) 0.610(2) 0.465(1)
C11 C 1.240(7) 0.541(2) 0.429(1)
C12 C 1.199(9) 0.548(2) 0.375(1)
O7 O 1.052(6) 0.424(1) 0.2473(9)
H1 H 0.4939 0.7603 0.0526
H2 H 0.5926 0.6315 0.0004
H3 H 0.7994 0.5009 0.0452
H4 H 0.7306 0.4834 0.1391
H5 H 0.9301 0.7361 0.4676
H6 H 1.2354 0.6031 0.5039
H7 H 1.3269 0.4839 0.4444
H8 H 1.2715 0.4994 0.3506
O1_2 O 1.520(6) 0.5961(9) 0.2063(7)
O4_2 O 0.019(5) 0.6344(9) 0.2957(6)
Li1_2 Li 0.01(1) 0.551(3) 0.235(2)
Li2_2 Li 1.49(1) 0.681(3) 0.268(2)
loop_
_geom_bond_atom_site_label_1
_geom_bond_atom_site_label_2
_geom_bond_site_symmetry_1
_geom_bond_site_symmetry_2
Li1 O1 1_555 1_555
Li2 O1 1_555 1_555
O1 C1 1_555 1_555
C1 C2 1_555 1_555
N1 C2 1_555 1_555
C2 C3 1_555 1_555
O2 Li2 1_555 1_555
O3 N1 1_555 1_555
C3 C4 1_555 1_555
C4 C5 1_555 1_555
C5 C6 1_555 1_555
C6 C1 1_555 1_555
O4 Li1 1_555 1_555
C7 O4 1_555 1_555
C8 C7 1_555 1_555
N2 C8 1_555 1_555
O5 Li2 1_555 1_555
O6 N2 1_555 1_555
C9 C8 1_555 1_555
C10 C9 1_555 1_555
C11 C10 1_555 1_555
C12 C7 1_555 1_555
O7 Li1 1_555 1_555
H1 C3 1_555 1_555
H2 C4 1_555 1_555
H3 C5 1_555 1_555
H4 C6 1_555 1_555
H5 C9 1_555 1_555
H6 C10 1_555 1_555
H7 C11 1_555 1_555
H8 C12 1_555 1_555
O1_2 Li1 1_555 1_555
O4_2 Li2 1_555 1_555
Li1_2 O1 1_555 1_555
Li2_2 O4 1_555 1_555
Li2 O4 1_555 1_555
N1 O2 1_555 1_555
N2 O5 1_555 1_555
C11 C12 1_555 1_555
O1_2 Li2_2 1_555 1_555
O4_2 Li1_2 1_555 1_555

#END
