
#######################################################################
#
#                 Cambridge Crystallographic Data Centre
#                                CCDC 
#
#######################################################################
#
# If this CIF has been generated from an entry in the Cambridge 
# Structural Database, then it will include bibliographic, chemical, 
# crystal, experimental, refinement or atomic coordinate data resulting 
# from the CCDC's data processing and validation procedures.
#
#######################################################################

data_FECYIX
_symmetry_cell_setting           tetragonal
_symmetry_space_group_name_H-M   'P 41'
_symmetry_Int_Tables_number      76
_space_group_name_Hall           'P 4w'
loop_
_symmetry_equiv_pos_site_id
_symmetry_equiv_pos_as_xyz
1 x,y,z
2 -x,-y,1/2+z
3 -y,x,1/4+z
4 y,-x,3/4+z
_cell_length_a                   12.335(4)
_cell_length_b                   12.335(4)
_cell_length_c                   5.265(3)
_cell_angle_alpha                90
_cell_angle_beta                 90
_cell_angle_gamma                90
_cell_volume                     801.081
loop_
_atom_site_label
_atom_site_type_symbol
_atom_site_fract_x
_atom_site_fract_y
_atom_site_fract_z
C1 C 0.2954(2) -0.2057(2) 0.7195(6)
H1 H 0.2633 -0.1968 0.5464
C2 C 0.3448(3) -0.3186(2) 0.7393(6)
H2 H 0.3824 -0.3386 0.58
H3 H 0.2883 -0.3735 0.7761
C3 C 0.4756(3) -0.1694(2) 0.9008(6)
H4 H 0.5423 -0.1715 0.7927
C4 C 0.4984(3) -0.1048(3) 1.1402(6)
C5 C 0.2062(2) -0.1866(2) 0.9184(6)
N1 N 0.3837(2) -0.1259(2) 0.7506(5)
H5 H 0.402(3) -0.103(3) 0.616(7)
O1 O 0.58324(17) -0.12869(17) 1.2570(4)
O2 O 0.43148(16) -0.03323(17) 1.2112(4)
O3 O 0.20776(18) -0.10089(18) 1.0465(4)
O4 O 0.2081(2) 0.0518(2) 0.6625(5)
H6 H 0.1448(18) 0.027(3) 0.655(8)
H7 H 0.223(3) 0.077(3) 0.524(5)
O5 O 0.13228(17) -0.25686(17) 0.9420(5)
S1 S 0.43970(6) -0.30770(6) 0.99992(15)
Co1 Co 0.32124(3) 0.01546(3) 0.94137(7)
O1A O 0.41676(17) 0.12869(17) 0.7570(4)
O5B O 0.25686(17) 0.13228(17) 1.1920(5)
Co1A Co 0.67876(3) -0.01546(3) 1.44137(7)
Co1C Co 0.01546(3) -0.32124(3) 0.69137(7)
O6 O 0.0026(7) -0.0137(6) 0.9637(17)
loop_
_geom_bond_atom_site_label_1
_geom_bond_atom_site_label_2
_geom_bond_site_symmetry_1
_geom_bond_site_symmetry_2
C1 H1 1_555 1_555
C2 C1 1_555 1_555
H2 C2 1_555 1_555
H3 C2 1_555 1_555
C3 H4 1_555 1_555
C4 C3 1_555 1_555
C5 C1 1_555 1_555
N1 C1 1_555 1_555
H5 N1 1_555 1_555
O1 C4 1_555 1_555
O2 C4 1_555 1_555
O3 C5 1_555 1_555
O4 H6 1_555 1_555
H7 O4 1_555 1_555
O5 C5 1_555 1_555
S1 C2 1_555 1_555
Co1 N1 1_555 1_555
O1A Co1 1_555 1_555
O5B Co1 1_555 1_555
Co1A O1 1_555 1_555
Co1C O5 1_555 1_555
C3 N1 1_555 1_555
C3 S1 1_555 1_555
O2 Co1 1_555 1_555
O3 Co1 1_555 1_555
O4 Co1 1_555 1_555

#END
