
#######################################################################
#
#                 Cambridge Crystallographic Data Centre
#                                CCDC 
#
#######################################################################
#
# If this CIF has been generated from an entry in the Cambridge 
# Structural Database, then it will include bibliographic, chemical, 
# crystal, experimental, refinement or atomic coordinate data resulting 
# from the CCDC's data processing and validation procedures.
#
#######################################################################

data_FEDBUN
_symmetry_cell_setting           monoclinic
_symmetry_space_group_name_H-M   'P 21/c'
_symmetry_Int_Tables_number      14
_space_group_name_Hall           '-P 2ybc'
loop_
_symmetry_equiv_pos_site_id
_symmetry_equiv_pos_as_xyz
1 x,y,z
2 -x,1/2+y,1/2-z
3 -x,-y,-z
4 x,1/2-y,1/2+z
_cell_length_a                   16.753(8)
_cell_length_b                   8.840(4)
_cell_length_c                   18.010(9)
_cell_angle_alpha                90
_cell_angle_beta                 110.511(8)
_cell_angle_gamma                90
_cell_volume                     2498.13
loop_
_atom_site_label
_atom_site_type_symbol
_atom_site_fract_x
_atom_site_fract_y
_atom_site_fract_z
Cd1 Cd 0.244901(18) 0.64205(4) 0.502106(15)
I1 I 0.10789(2) 0.43392(5) 0.458129(19)
I2 I 0.38231(2) 0.43344(4) 0.543084(18)
O1 O 0.2355(2) 0.7313(4) 0.62832(19)
O2 O 0.1635(2) 0.8465(5) 0.5175(2)
O3 O -0.6656(2) 0.6518(4) 0.99777(17)
O4 O -0.7448(2) 0.7481(4) 0.88310(18)
N1 N -0.1117(2) 0.9649(4) 0.7358(2)
N2 N -0.4103(2) 0.4441(4) 0.7779(2)
C1 C 0.1813(3) 0.8203(6) 0.5922(3)
C2 C 0.1287(3) 0.9075(6) 0.6308(3)
C3 C 0.1360(3) 0.8782(5) 0.7068(3)
H1 H 0.1802 0.8138 0.7385
C4 C 0.0715(4) 1.0199(7) 0.5893(3)
H2 H 0.0731 1.0555 0.5401
C5 C 0.0793(3) 0.9418(5) 0.7385(3)
H3 H 0.0870 0.9239 0.7926
C6 C 0.0123(4) 1.0800(7) 0.6197(3)
H4 H -0.0276 1.1539 0.5907
C7 C 0.0125(3) 1.0295(6) 0.6938(3)
C8 C -0.0544(3) 1.0875(6) 0.7253(4)
H5 H -0.0258 1.1375 0.7770
H6 H -0.0897 1.1644 0.6882
C9 C -0.1533(4) 0.8743(7) 0.6757(3)
H7 H -0.1431 0.8826 0.6271
C10 C -0.1257(3) 0.9545(6) 0.8044(3)
H8 H -0.0952 1.0182 0.8475
C11 C -0.2110(3) 0.7684(6) 0.6826(3)
H9 H -0.2394 0.7038 0.6392
C12 C -0.1835(3) 0.8533(6) 0.8134(3)
H10 H -0.1934 0.8497 0.8622
C13 C -0.2279(3) 0.7557(5) 0.7525(2)
C14 C -0.2919(3) 0.6465(5) 0.7614(2)
C15 C -0.3427(3) 0.5608(6) 0.6976(3)
H11 H -0.3369 0.5711 0.6472
C16 C -0.3036(3) 0.6249(6) 0.8338(3)
H12 H -0.2705 0.6817 0.8788
C17 C -0.4011(3) 0.4614(6) 0.7073(3)
H13 H -0.4356 0.4037 0.6632
C18 C -0.3617(3) 0.5240(6) 0.8406(3)
H14 H -0.3679 0.5097 0.8906
C19 C -0.4733(3) 0.3326(5) 0.7879(3)
H15 H -0.4423 0.2518 0.8248
H16 H -0.5046 0.2851 0.7360
C20 C -0.5364(3) 0.4064(5) 0.8196(3)
C21 C -0.5340(3) 0.3734(5) 0.8949(3)
H17 H -0.4963 0.2979 0.9254
C22 C -0.5964(3) 0.5100(4) 0.7732(2)
H18 H -0.6015 0.5274 0.7197
C23 C -0.5866(3) 0.4502(5) 0.9261(2)
H19 H -0.5852 0.4258 0.9779
C24 C -0.6484(3) 0.5872(4) 0.8056(2)
H20 H -0.6890 0.6577 0.7742
C25 C -0.6413(3) 0.5620(4) 0.8835(2)
C26 C -0.6889(3) 0.6597(5) 0.9230(2)
Cd1C Cd -0.755099(18) 0.85795(4) 1.002106(15)
O3C O 0.3344(2) 0.8482(4) 0.49777(17)
O4C O 0.2552(2) 0.7519(4) 0.38310(18)
loop_
_geom_bond_atom_site_label_1
_geom_bond_atom_site_label_2
_geom_bond_site_symmetry_1
_geom_bond_site_symmetry_2
Cd1 I1 1_555 1_555
I2 Cd1 1_555 1_555
O1 Cd1 1_555 1_555
O2 Cd1 1_555 1_555
O3 C26 1_555 1_555
O4 C26 1_555 1_555
N1 C8 1_555 1_555
N2 C17 1_555 1_555
C1 O1 1_555 1_555
C2 C1 1_555 1_555
C3 C2 1_555 1_555
H1 C3 1_555 1_555
C4 C2 1_555 1_555
H2 C4 1_555 1_555
C5 C3 1_555 1_555
H3 C5 1_555 1_555
C6 C4 1_555 1_555
H4 C6 1_555 1_555
C7 C5 1_555 1_555
C8 C7 1_555 1_555
H5 C8 1_555 1_555
H6 C8 1_555 1_555
C9 N1 1_555 1_555
H7 C9 1_555 1_555
C10 N1 1_555 1_555
H8 C10 1_555 1_555
C11 C9 1_555 1_555
H9 C11 1_555 1_555
C12 C10 1_555 1_555
H10 C12 1_555 1_555
C13 C11 1_555 1_555
C14 C13 1_555 1_555
C15 C14 1_555 1_555
H11 C15 1_555 1_555
C16 C14 1_555 1_555
H12 C16 1_555 1_555
C17 C15 1_555 1_555
H13 C17 1_555 1_555
C18 N2 1_555 1_555
H14 C18 1_555 1_555
C19 N2 1_555 1_555
H15 C19 1_555 1_555
H16 C19 1_555 1_555
C20 C19 1_555 1_555
C21 C20 1_555 1_555
H17 C21 1_555 1_555
C22 C20 1_555 1_555
H18 C22 1_555 1_555
C23 C21 1_555 1_555
H19 C23 1_555 1_555
C24 C22 1_555 1_555
H20 C24 1_555 1_555
C25 C23 1_555 1_555
C26 C25 1_555 1_555
Cd1C O3 1_555 1_555
O3C Cd1 1_555 1_555
O4C Cd1 1_555 1_555
O2 C1 1_555 1_555
O4 Cd1C 1_555 1_555
C6 C7 1_555 1_555
C12 C13 1_555 1_555
C16 C18 1_555 1_555
C24 C25 1_555 1_555

#END
