
#######################################################################
#
#                 Cambridge Crystallographic Data Centre
#                                CCDC 
#
#######################################################################
#
# If this CIF has been generated from an entry in the Cambridge 
# Structural Database, then it will include bibliographic, chemical, 
# crystal, experimental, refinement or atomic coordinate data resulting 
# from the CCDC's data processing and validation procedures.
#
#######################################################################

data_FEDJUU
_symmetry_cell_setting           tetragonal
_symmetry_space_group_name_H-M   'P 42 2 2'
_symmetry_Int_Tables_number      93
_space_group_name_Hall           'P 4c 2'
loop_
_symmetry_equiv_pos_site_id
_symmetry_equiv_pos_as_xyz
1 x,y,z
2 -x,-y,z
3 -y,x,1/2+z
4 y,-x,1/2+z
5 -x,y,-z
6 x,-y,-z
7 y,x,1/2-z
8 -y,-x,1/2-z
_cell_length_a                   13.1064(19)
_cell_length_b                   13.1064(19)
_cell_length_c                   11.269(2)
_cell_angle_alpha                90
_cell_angle_beta                 90
_cell_angle_gamma                90
_cell_volume                     1935.76
loop_
_atom_site_label
_atom_site_type_symbol
_atom_site_fract_x
_atom_site_fract_y
_atom_site_fract_z
Zn1 Zn 0.0000 0.5000 1.0000
O1 O 0.0956(2) 0.4366(2) 0.8870(2)
O2 O -0.0081(3) 0.3046(3) 0.8540(2)
C1 C 0.0653(3) 0.3600(3) 0.8300(3)
C2 C 0.1293(3) 0.3332(3) 0.7204(3)
C3 C 0.2128(3) 0.3881(3) 0.6899(3)
H1 H 0.2318 0.4440 0.7357
C4 C 0.2706(3) 0.3619(3) 0.5909(3)
H2 H 0.3282 0.3997 0.5712
N1 N 0.2431(2) 0.2827(2) 0.5244(2)
C5 C 0.1591(4) 0.2298(3) 0.5516(3)
H3 H 0.1389 0.1763 0.5027
C6 C 0.1023(4) 0.2525(3) 0.6495(3)
H4 H 0.0453 0.2133 0.6682
C7 C 0.3015(3) 0.2543(3) 0.4160(3)
H5 H 0.3049 0.1806 0.4097
H6 H 0.3707 0.2801 0.4224
C8 C 0.2518(3) 0.2976(3) 0.3055(3)
H7 H 0.1792 0.2835 0.3074
H8 H 0.2609 0.3710 0.3041
Zn1B Zn 0.5000 0.0000 -0.5000
Zn1B_2 Zn -0.5000 1.0000 -0.5000
O1F O 0.4366(2) 0.0956(2) -0.3870(2)
O1A O -0.0956(2) 0.5634(2) 0.8870(2)
O1G O -0.4366(2) 0.9044(2) -0.3870(2)
O1D O -0.0956(2) 0.4366(2) 1.1130(2)
O1E O 0.0956(2) 0.5634(2) 1.1130(2)
O2F O 0.3046(3) -0.0081(3) -0.3540(2)
O2A O 0.0081(3) 0.6954(3) 0.8540(2)
O2G O -0.3046(3) 1.0081(3) -0.3540(2)
C1F C 0.3600(3) 0.0653(3) -0.3300(3)
C1A C -0.0653(3) 0.6400(3) 0.8300(3)
C1G C -0.3600(3) 0.9347(3) -0.3300(3)
C2F C 0.3332(3) 0.1293(3) -0.2204(3)
C2A C -0.1293(3) 0.6668(3) 0.7204(3)
C2G C -0.3332(3) 0.8707(3) -0.2204(3)
C3F C 0.3881(3) 0.2128(3) -0.1899(3)
C3A C -0.2128(3) 0.6119(3) 0.6899(3)
C3G C -0.3881(3) 0.7872(3) -0.1899(3)
H1F H 0.4440 0.2318 -0.2357
H1A H -0.2318 0.5560 0.7357
H1G H -0.4440 0.7682 -0.2357
C4F C 0.3619(3) 0.2706(3) -0.0909(3)
C4A C -0.2706(3) 0.6381(3) 0.5909(3)
C4G C -0.3619(3) 0.7294(3) -0.0909(3)
H2F H 0.3997 0.3282 -0.0712
H2A H -0.3282 0.6003 0.5712
H2G H -0.3997 0.6718 -0.0712
N1F N 0.2827(2) 0.2431(2) -0.0244(2)
N1A N -0.2431(2) 0.7173(2) 0.5244(2)
N1G N -0.2827(2) 0.7569(2) -0.0244(2)
C5F C 0.2298(3) 0.1591(4) -0.0516(3)
C5A C -0.1591(4) 0.7702(3) 0.5516(3)
C5G C -0.2298(3) 0.8409(4) -0.0516(3)
H3F H 0.1763 0.1389 -0.0027
H3A H -0.1389 0.8237 0.5027
H3G H -0.1763 0.8611 -0.0027
C6F C 0.2525(3) 0.1023(4) -0.1495(3)
C6A C -0.1023(4) 0.7475(3) 0.6495(3)
C6G C -0.2525(3) 0.8977(4) -0.1495(3)
H4F H 0.2133 0.0453 -0.1682
H4A H -0.0453 0.7867 0.6682
H4G H -0.2133 0.9547 -0.1682
C7F C 0.2543(3) 0.3015(3) 0.0840(3)
C7A C -0.3015(3) 0.7457(3) 0.4160(3)
C7G C -0.2543(3) 0.6985(3) 0.0840(3)
H5F H 0.1806 0.3049 0.0903
H5A H -0.3049 0.8194 0.4097
H5G H -0.1806 0.6951 0.0903
H6F H 0.2801 0.3707 0.0776
H6A H -0.3707 0.7199 0.4224
H6G H -0.2801 0.6293 0.0776
C8F C 0.2976(3) 0.2518(3) 0.1945(3)
C8A C -0.2518(3) 0.7024(3) 0.3055(3)
C8G C -0.2976(3) 0.7482(3) 0.1945(3)
H7F H 0.2835 0.1792 0.1926
H7A H -0.1792 0.7165 0.3074
H7G H -0.2835 0.8208 0.1926
H8F H 0.3710 0.2609 0.1959
H8A H -0.2609 0.6290 0.3041
H8G H -0.3710 0.7391 0.1959
Cl1 Cl 0.5000 0.0000 0.0000
O3 O 0.4373(3) -0.0634(3) -0.0723(2)
O3A O 0.5627(3) 0.0634(3) -0.0723(2)
O3D O 0.5627(3) -0.0634(3) 0.0723(2)
O3E O 0.4373(3) 0.0634(3) 0.0723(2)
Cl2 Cl 0.5000 0.5000 0.2500
O4 O 0.4114(3) 0.4979(6) 0.1789(6)
O4A O 0.5886(3) 0.5021(6) 0.1789(6)
O4F O 0.4979(6) 0.4114(3) 0.3211(6)
O4G O 0.5021(6) 0.5886(3) 0.3211(6)
O5 O -0.0494(3) 0.0971(3) 0.8656(4)
H9 H -0.0115 0.1013 0.7929
H10 H -0.0138 0.1593 0.8717
loop_
_geom_bond_atom_site_label_1
_geom_bond_atom_site_label_2
_geom_bond_site_symmetry_1
_geom_bond_site_symmetry_2
Zn1 O1 1_555 1_555
O1 C1 1_555 1_555
O2 C1 1_555 1_555
C1 C2 1_555 1_555
C2 C3 1_555 1_555
C3 H1 1_555 1_555
C4 C3 1_555 1_555
H2 C4 1_555 1_555
N1 C4 1_555 1_555
C5 N1 1_555 1_555
H3 C5 1_555 1_555
C6 C2 1_555 1_555
H4 C6 1_555 1_555
C7 N1 1_555 1_555
H5 C7 1_555 1_555
H6 C7 1_555 1_555
C8 C7 1_555 1_555
H7 C8 1_555 1_555
H8 C8 1_555 1_555
Cl1 O3 1_555 1_555
Cl2 O4 1_555 1_555
O5 H9 1_555 1_555
H10 O5 1_555 1_555
Zn1B O1F 1_555 1_555
Zn1B_2 O1G 1_555 1_555
O1F C1F 1_555 1_555
O1A Zn1 1_555 1_555
O1G C1G 1_555 1_555
O1D Zn1 1_555 1_555
O1E Zn1 1_555 1_555
O2F C1F 1_555 1_555
O2A C1A 1_555 1_555
O2G C1G 1_555 1_555
C1F C2F 1_555 1_555
C1A O1A 1_555 1_555
C1G C2G 1_555 1_555
C2F C3F 1_555 1_555
C2A C1A 1_555 1_555
C2G C3G 1_555 1_555
C3F H1F 1_555 1_555
C3A C2A 1_555 1_555
C3G H1G 1_555 1_555
H1A C3A 1_555 1_555
C4F C3F 1_555 1_555
C4A C3A 1_555 1_555
C4G C3G 1_555 1_555
H2F C4F 1_555 1_555
H2A C4A 1_555 1_555
H2G C4G 1_555 1_555
N1F C4F 1_555 1_555
N1A C4A 1_555 1_555
N1G C4G 1_555 1_555
C5F N1F 1_555 1_555
C5A N1A 1_555 1_555
C5G N1G 1_555 1_555
H3F C5F 1_555 1_555
H3A C5A 1_555 1_555
H3G C5G 1_555 1_555
C6F C2F 1_555 1_555
C6A C2A 1_555 1_555
C6G C2G 1_555 1_555
H4F C6F 1_555 1_555
H4A C6A 1_555 1_555
H4G C6G 1_555 1_555
C7F N1F 1_555 1_555
C7A N1A 1_555 1_555
C7G N1G 1_555 1_555
H5F C7F 1_555 1_555
H5A C7A 1_555 1_555
H5G C7G 1_555 1_555
H6F C7F 1_555 1_555
H6A C7A 1_555 1_555
H6G C7G 1_555 1_555
C8F C8 1_555 1_555
C8A C7A 1_555 1_555
C8G C7G 1_555 1_555
H7F C8F 1_555 1_555
H7A C8A 1_555 1_555
H7G C8G 1_555 1_555
H8F C8F 1_555 1_555
H8A C8A 1_555 1_555
H8G C8G 1_555 1_555
O3A Cl1 1_555 1_555
O3D Cl1 1_555 1_555
O3E Cl1 1_555 1_555
O4A Cl2 1_555 1_555
O4F Cl2 1_555 1_555
O4G Cl2 1_555 1_555
C5 C6 1_555 1_555
C5F C6F 1_555 1_555
C5A C6A 1_555 1_555
C5G C6G 1_555 1_555
C7F C8F 1_555 1_555
C8A C8G 1_555 1_555

#END
