
#######################################################################
#
#                 Cambridge Crystallographic Data Centre
#                                CCDC 
#
#######################################################################
#
# If this CIF has been generated from an entry in the Cambridge 
# Structural Database, then it will include bibliographic, chemical, 
# crystal, experimental, refinement or atomic coordinate data resulting 
# from the CCDC's data processing and validation procedures.
#
#######################################################################

data_FEDMAC
_symmetry_cell_setting           triclinic
_symmetry_space_group_name_H-M   'P -1'
_symmetry_Int_Tables_number      2
_space_group_name_Hall           '-P 1'
loop_
_symmetry_equiv_pos_site_id
_symmetry_equiv_pos_as_xyz
1 x,y,z
2 -x,-y,-z
_cell_length_a                   12.143(5)
_cell_length_b                   11.50(1)
_cell_length_c                   11.36(1)
_cell_angle_alpha                114.38(9)
_cell_angle_beta                 110.54(6)
_cell_angle_gamma                96.73(6)
_cell_volume                     1287.62
loop_
_atom_site_label
_atom_site_type_symbol
_atom_site_fract_x
_atom_site_fract_y
_atom_site_fract_z
Rb1 Rb -0.16610(2) -0.07119(3) 0.00055(3)
O1 O -0.4921(2) -0.3217(3) -0.8858(3)
C1 C -0.3960(3) -0.2598(3) -0.7534(3)
C2 C -0.4197(3) -0.2573(3) -0.6410(4)
C3 C -0.3264(3) -0.1938(3) -0.5042(3)
C4 C -0.2090(3) -0.1320(3) -0.4784(3)
N1 N -0.1110(3) -0.0633(2) -0.3343(3)
O2 O -0.1322(2) -0.0633(2) -0.2361(2)
O3 O -0.0074(2) -0.0077(3) -0.3125(3)
C5 C -0.1843(3) -0.1360(3) -0.5901(3)
C6 C -0.2784(3) -0.2001(3) -0.7269(3)
O4 O -0.9258(2) -0.6681(2) -0.6002(2)
C7 C -0.8177(2) -0.5792(2) -0.5073(3)
C8 C -0.7333(3) -0.5372(3) -0.5519(3)
C9 C -0.6204(2) -0.4455(3) -0.4551(3)
C10 C -0.5851(2) -0.3921(3) -0.3084(3)
N2 N -0.4665(2) -0.2965(2) -0.2087(3)
O5 O -0.3992(2) -0.2582(2) -0.2542(2)
O6 O -0.4323(2) -0.2505(2) -0.0767(2)
C11 C -0.6664(3) -0.4308(3) -0.2605(3)
C12 C -0.7800(3) -0.5210(3) -0.3579(3)
O7 O -0.9513(2) -0.2740(2) -0.5216(2)
C13 C -0.8315(2) -0.2052(3) -0.4451(3)
C14 C -0.7655(3) -0.1643(3) -0.2997(3)
C15 C -0.6418(3) -0.0929(3) -0.2267(3)
C16 C -0.5832(2) -0.0640(2) -0.3011(3)
N3 N -0.4522(2) 0.0074(2) -0.2267(3)
O8 O -0.3945(2) 0.0370(2) -0.1002(2)
O9 O -0.4035(2) 0.0342(2) -0.2949(3)
C17 C -0.6465(3) -0.1042(3) -0.4457(3)
C18 C -0.7697(3) -0.1740(3) -0.5164(3)
O10 O -0.0153(2) 0.2266(2) 0.1279(2)
C19 C -0.0605(2) 0.3121(2) 0.0854(3)
C20 C -0.0209(3) 0.4497(3) 0.1777(3)
C21 C -0.0705(3) 0.5324(3) 0.1292(3)
C22 C -0.1602(2) 0.4769(3) -0.0099(3)
N4 N -0.2125(2) 0.5639(3) -0.0608(3)
O11 O -0.1668(2) 0.6863(2) 0.0206(3)
O12 O -0.2968(2) 0.5139(3) -0.1810(3)
C23 C -0.2014(3) 0.3402(3) -0.1029(3)
C24 C -0.1498(3) 0.2589(3) -0.0552(3)
H1 H -0.498(3) -0.294(3) -0.658(3)
H2 H -0.337(3) -0.184(3) -0.422(3)
H3 H -0.114(3) -0.099(3) -0.575(3)
H4 H -0.265(3) -0.203(3) -0.804(4)
H5 H -0.754(3) -0.571(3) -0.638(3)
H6 H -0.564(3) -0.417(3) -0.485(3)
H7 H -0.644(2) -0.400(3) -0.166(3)
H8 H -0.830(2) -0.550(3) -0.330(3)
H9 H -0.807(3) -0.194(3) -0.258(3)
H10 H -0.597(2) -0.069(3) -0.131(3)
H11 H -0.595(3) -0.080(3) -0.487(3)
H12 H -0.812(3) -0.205(3) -0.610(3)
H13 H 0.039(3) 0.487(3) 0.270(3)
H14 H -0.044(3) 0.622(3) 0.193(3)
H15 H -0.268(3) 0.303(3) -0.196(3)
H16 H -0.174(3) 0.166(3) -0.117(3)
H17 H -0.466(4) -0.317(5) -0.940(5)
H18 H -0.990(3) -0.296(4) -0.476(4)
H19 H 0.019(3) 0.269(4) 0.221(4)
Rb1A Rb 0.16610(2) 0.07119(3) -0.00055(3)
O2A O 0.1322(2) 0.0633(2) 0.2361(2)
O10A O 0.0153(2) -0.2266(2) -0.1279(2)
O3A O 0.0074(2) 0.0077(3) 0.3125(3)
N1A N 0.1110(3) 0.0633(2) 0.3343(3)
O11_2 O -0.1668(2) -0.3137(2) 0.0206(3)
H19A H -0.019(3) -0.269(4) -0.221(4)
Rb1_2 Rb -0.16610(2) 0.92881(3) 0.00055(3)
loop_
_geom_bond_atom_site_label_1
_geom_bond_atom_site_label_2
_geom_bond_site_symmetry_1
_geom_bond_site_symmetry_2
Rb1 O2 1_555 1_555
O1 C1 1_555 1_555
C1 C2 1_555 1_555
C2 C3 1_555 1_555
C3 C4 1_555 1_555
C4 N1 1_555 1_555
N1 O2 1_555 1_555
O2 Rb1A 1_555 1_555
O3 N1 1_555 1_555
C5 C4 1_555 1_555
C6 C1 1_555 1_555
O4 C7 1_555 1_555
C7 C8 1_555 1_555
C8 C9 1_555 1_555
C9 C10 1_555 1_555
C10 N2 1_555 1_555
N2 O5 1_555 1_555
O5 Rb1 1_555 1_555
O6 Rb1 1_555 1_555
C11 C10 1_555 1_555
C12 C7 1_555 1_555
O7 C13 1_555 1_555
C13 C14 1_555 1_555
C14 C15 1_555 1_555
C15 C16 1_555 1_555
C16 N3 1_555 1_555
N3 O8 1_555 1_555
O8 Rb1 1_555 1_555
O9 N3 1_555 1_555
C17 C16 1_555 1_555
C18 C13 1_555 1_555
O10 Rb1 1_555 1_555
C19 O10 1_555 1_555
C20 C19 1_555 1_555
C21 C20 1_555 1_555
C22 C21 1_555 1_555
N4 C22 1_555 1_555
O11 N4 1_555 1_555
O12 N4 1_555 1_555
C23 C22 1_555 1_555
C24 C19 1_555 1_555
H1 C2 1_555 1_555
H2 C3 1_555 1_555
H3 C5 1_555 1_555
H4 C6 1_555 1_555
H5 C8 1_555 1_555
H6 C9 1_555 1_555
H7 C11 1_555 1_555
H8 C12 1_555 1_555
H9 C14 1_555 1_555
H10 C15 1_555 1_555
H11 C17 1_555 1_555
H12 C18 1_555 1_555
H13 C20 1_555 1_555
H14 C21 1_555 1_555
H15 C23 1_555 1_555
H16 C24 1_555 1_555
H17 O1 1_555 1_555
H18 O7 1_555 1_555
H19 O10 1_555 1_555
Rb1A O3 1_555 1_555
O2A Rb1 1_555 1_555
O10A Rb1 1_555 1_555
O3A Rb1 1_555 1_555
N1A O2A 1_555 1_555
O11_2 Rb1 1_555 1_555
H19A O10A 1_555 1_555
Rb1_2 O11 1_555 1_555
C5 C6 1_555 1_555
N2 O6 1_555 1_555
C11 C12 1_555 1_555
C17 C18 1_555 1_555
O10 Rb1A 1_555 1_555
C23 C24 1_555 1_555
Rb1A O2A 1_555 1_555
Rb1A O10A 1_555 1_555
O3A N1A 1_555 1_555

#END
