
#######################################################################
#
#                 Cambridge Crystallographic Data Centre
#                                CCDC 
#
#######################################################################
#
# If this CIF has been generated from an entry in the Cambridge 
# Structural Database, then it will include bibliographic, chemical, 
# crystal, experimental, refinement or atomic coordinate data resulting 
# from the CCDC's data processing and validation procedures.
#
#######################################################################

data_FEDQIO
_symmetry_cell_setting           monoclinic
_symmetry_space_group_name_H-M   'C 2/c'
_symmetry_Int_Tables_number      15
_space_group_name_Hall           '-C 2yn'
loop_
_symmetry_equiv_pos_site_id
_symmetry_equiv_pos_as_xyz
1 x,y,z
2 -x,y,1/2-z
3 1/2+x,1/2+y,z
4 1/2-x,1/2+y,1/2-z
5 -x,-y,-z
6 x,-y,1/2+z
7 1/2-x,1/2-y,-z
8 1/2+x,1/2-y,1/2+z
_cell_length_a                   31.198(7)
_cell_length_b                   8.030(4)
_cell_length_c                   12.793(7)
_cell_angle_alpha                90
_cell_angle_beta                 103.76(3)
_cell_angle_gamma                90
_cell_volume                     3112.92
loop_
_atom_site_label
_atom_site_type_symbol
_atom_site_fract_x
_atom_site_fract_y
_atom_site_fract_z
Ca1 Ca 0.27194(3) 0.3207(1) 0.23937(9)
O1 O 0.3350(1) 0.4740(4) 0.3063(3)
C1 C 0.3775(2) 0.4558(6) 0.3233(4)
C2 C 0.3997(2) 0.3011(6) 0.3239(4)
N1 N 0.3770(1) 0.1458(5) 0.3114(4)
O2 O 0.3359(1) 0.1409(4) 0.2922(4)
O3 O 0.3979(1) 0.0161(5) 0.3194(4)
C3 C 0.4461(2) 0.2923(7) 0.3420(6)
C4 C 0.4705(2) 0.4333(8) 0.3579(6)
C5 C 0.4496(2) 0.5868(8) 0.3601(6)
C6 C 0.4050(2) 0.5971(7) 0.3426(6)
O7 O 0.2574(1) 0.0961(5) 0.3613(4)
O8 O 0.2526(1) 0.0231(5) 0.1355(3)
O9 O 0.2960(1) 0.3317(5) 0.0701(4)
O10 O 0.1954(1) 0.2889(5) 0.1958(4)
H1 H 0.461(2) 0.181(8) 0.334(5)
H2 H 0.501(2) 0.428(8) 0.375(5)
H3 H 0.467(2) 0.681(9) 0.377(5)
H4 H 0.395(2) 0.689(8) 0.350(5)
H9 H 0.286(3) 0.06(1) 0.453(7)
H10 H 0.243(2) 0.115(7) 0.386(4)
H11 H 0.277(2) 0.008(7) 0.106(5)
H12 H 0.227(4) 0.04(1) 0.040(9)
H13 H 0.315(2) 0.384(8) 0.078(5)
H14 H 0.304(3) 0.26(1) 0.037(6)
H15 H 0.179(3) 0.36(1) 0.180(7)
H16 H 0.181(2) 0.215(9) 0.200(5)
Ca1C Ca 0.22806(3) -0.1793(1) 0.26063(9)
O7C O 0.2426(1) 0.5961(5) 0.1387(4)
Ca1C_2 Ca 0.22806(3) 0.8207(1) 0.26063(9)
H9C H 0.214(3) 0.56(1) 0.047(7)
H10C H 0.257(2) 0.615(7) 0.114(4)
O8C O 0.2474(1) 0.5231(5) 0.3645(3)
H11C H 0.223(2) 0.508(7) 0.394(5)
H12C H 0.273(4) 0.54(1) 0.460(9)
O4 O 0.3200(1) -0.0274(4) 0.5281(3)
C7 C 0.3616(2) 0.0070(6) 0.5524(4)
C8 C 0.3804(2) 0.1689(6) 0.5708(4)
N2 N 0.3529(1) 0.3107(5) 0.5649(4)
O5 O 0.3125(1) 0.2951(5) 0.5436(4)
O6 O 0.3699(1) 0.4514(5) 0.5804(4)
C9 C 0.4261(2) 0.1969(8) 0.5955(6)
C10 C 0.4546(2) 0.0663(8) 0.6035(7)
C11 C 0.4373(2) -0.0950(8) 0.5838(7)
C12 C 0.3933(2) -0.1230(7) 0.5600(6)
H5 H 0.436(2) 0.317(8) 0.604(4)
H6 H 0.488(3) 0.08(1) 0.619(7)
H7 H 0.457(2) -0.186(9) 0.595(5)
H8 H 0.382(2) -0.234(9) 0.545(6)
loop_
_geom_bond_atom_site_label_1
_geom_bond_atom_site_label_2
_geom_bond_site_symmetry_1
_geom_bond_site_symmetry_2
Ca1 O1 1_555 1_555
O1 C1 1_555 1_555
C1 C2 1_555 1_555
C2 N1 1_555 1_555
N1 O2 1_555 1_555
O2 Ca1 1_555 1_555
O3 N1 1_555 1_555
C3 C2 1_555 1_555
C4 C3 1_555 1_555
C5 C4 1_555 1_555
C6 C1 1_555 1_555
O4 C7 1_555 1_555
C7 C8 1_555 1_555
C8 N2 1_555 1_555
N2 O5 1_555 1_555
O6 N2 1_555 1_555
C9 C8 1_555 1_555
C10 C9 1_555 1_555
C11 C10 1_555 1_555
C12 C7 1_555 1_555
O7 Ca1 1_555 1_555
O8 Ca1 1_555 1_555
O9 Ca1 1_555 1_555
O10 Ca1 1_555 1_555
H1 C3 1_555 1_555
H2 C4 1_555 1_555
H3 C5 1_555 1_555
H4 C6 1_555 1_555
H5 C9 1_555 1_555
H6 C10 1_555 1_555
H7 C11 1_555 1_555
H8 C12 1_555 1_555
H9 O7 1_555 1_555
H10 O7 1_555 1_555
H11 O8 1_555 1_555
H12 O8 1_555 1_555
H13 O9 1_555 1_555
H14 O9 1_555 1_555
H15 O10 1_555 1_555
H16 O10 1_555 1_555
Ca1C O7 1_555 1_555
O7C Ca1 1_555 1_555
Ca1C_2 O7C 1_555 1_555
H9C O7C 1_555 1_555
H10C O7C 1_555 1_555
O8C Ca1 1_555 1_555
H11C O8C 1_555 1_555
H12C O8C 1_555 1_555
C5 C6 1_555 1_555
C11 C12 1_555 1_555
O8 Ca1C 1_555 1_555
Ca1C_2 O8C 1_555 1_555

#END
