
#######################################################################
#
#                 Cambridge Crystallographic Data Centre
#                                CCDC 
#
#######################################################################
#
# If this CIF has been generated from an entry in the Cambridge 
# Structural Database, then it will include bibliographic, chemical, 
# crystal, experimental, refinement or atomic coordinate data resulting 
# from the CCDC's data processing and validation procedures.
#
#######################################################################

data_FEFDUR
_symmetry_cell_setting           monoclinic
_symmetry_space_group_name_H-M   'P 21/n'
_symmetry_Int_Tables_number      14
_space_group_name_Hall           '-P 2yn'
loop_
_symmetry_equiv_pos_site_id
_symmetry_equiv_pos_as_xyz
1 x,y,z
2 1/2-x,1/2+y,1/2-z
3 -x,-y,-z
4 1/2+x,1/2-y,1/2+z
_cell_length_a                   10.0803(11)
_cell_length_b                   15.8190(18)
_cell_length_c                   16.3208(18)
_cell_angle_alpha                90
_cell_angle_beta                 101.034(3)
_cell_angle_gamma                90
_cell_volume                     2554.41
loop_
_atom_site_label
_atom_site_type_symbol
_atom_site_fract_x
_atom_site_fract_y
_atom_site_fract_z
Ni1 Ni 1.43413(5) 0.55962(3) 0.28365(3)
C1 C 1.3110(4) 0.6293(3) 0.1587(3)
C2 C 1.2418(4) 0.6776(2) 0.0853(2)
C3 C 1.1341(4) 0.7286(3) 0.0952(3)
H1 H 1.1035 0.7288 0.1468
C4 C 1.0710(4) 0.7791(3) 0.0301(3)
H2 H 0.9973 0.8137 0.0376
C5 C 1.1129(4) 0.7800(2) -0.0455(2)
C6 C 1.2194(4) 0.7275(3) -0.0559(3)
H3 H 1.2481 0.7264 -0.1081
C7 C 1.2840(4) 0.6771(3) 0.0088(2)
H4 H 1.3571 0.6420 0.0012
C8 C 1.0482(4) 0.8386(3) -0.1119(3)
C9 C 1.2175(4) 0.4764(3) 0.3513(3)
H5 H 1.2346 0.5221 0.3896
C10 C 1.1189(4) 0.4196(3) 0.3606(2)
H6 H 1.0704 0.4258 0.4047
C11 C 1.0907(4) 0.3528(3) 0.3050(3)
C12 C 1.1665(4) 0.3470(3) 0.2419(2)
H7 H 1.1508 0.3023 0.2024
C13 C 1.2635(4) 0.4064(3) 0.2377(2)
H8 H 1.3141 0.4015 0.1945
C14 C 0.8022(4) 0.3614(3) 0.3450(3)
C15 C 0.7290(4) 0.3860(3) 0.4050(3)
H9 H 0.7505 0.3636 0.4600
C16 C 0.6273(4) 0.4420(3) 0.3844(3)
H10 H 0.5809 0.4597 0.4269
C17 C 0.6569(4) 0.4494(3) 0.2502(3)
H11 H 0.6302 0.4709 0.1952
C18 C 0.7652(4) 0.3946(3) 0.2653(3)
H12 H 0.8130 0.3800 0.2224
N1 N 1.2913(3) 0.4715(2) 0.2912(2)
N2 N 0.9957(3) 0.2913(2) 0.3112(2)
H13 H 0.9911 0.2450 0.2808
N3 N 0.9077(3) 0.3032(2) 0.3658(2)
H14 H 0.9180 0.2746 0.4129
N4 N 0.5873(3) 0.4742(2) 0.3075(2)
O1 O 1.4001(3) 0.57138(17) 0.15219(16)
O2 O 1.2871(3) 0.64588(16) 0.23048(16)
O3 O 0.9636(3) 0.89360(17) -0.09637(16)
O4 O 1.0760(3) 0.83520(17) -0.18481(17)
Ni1_2 Ni 0.43413(5) 0.55962(3) 0.28365(3)
Ni1C Ni 0.93413(5) 0.94038(3) -0.21635(3)
C8C C 1.5482(4) 0.6614(3) 0.3881(3)
N4_2 N 1.5873(3) 0.4742(2) 0.3075(2)
O3C O 1.4636(3) 0.60640(17) 0.40363(16)
O4C O 1.5760(3) 0.66480(17) 0.31519(17)
loop_
_geom_bond_atom_site_label_1
_geom_bond_atom_site_label_2
_geom_bond_site_symmetry_1
_geom_bond_site_symmetry_2
Ni1 N1 1_555 1_555
C1 C2 1_555 1_555
C2 C3 1_555 1_555
C3 H1 1_555 1_555
C4 C3 1_555 1_555
H2 C4 1_555 1_555
C5 C4 1_555 1_555
C6 C5 1_555 1_555
H3 C6 1_555 1_555
C7 C2 1_555 1_555
H4 C7 1_555 1_555
C8 C5 1_555 1_555
C9 H5 1_555 1_555
C10 C9 1_555 1_555
H6 C10 1_555 1_555
C11 C10 1_555 1_555
C12 C11 1_555 1_555
H7 C12 1_555 1_555
C13 C12 1_555 1_555
H8 C13 1_555 1_555
C14 C15 1_555 1_555
C15 H9 1_555 1_555
C16 C15 1_555 1_555
H10 C16 1_555 1_555
C17 H11 1_555 1_555
C18 C14 1_555 1_555
H12 C18 1_555 1_555
N1 C9 1_555 1_555
N2 C11 1_555 1_555
H13 N2 1_555 1_555
N3 C14 1_555 1_555
H14 N3 1_555 1_555
N4 C16 1_555 1_555
O1 Ni1 1_555 1_555
O2 Ni1 1_555 1_555
O3 C8 1_555 1_555
O4 C8 1_555 1_555
Ni1_2 N4 1_555 1_555
Ni1C O3 1_555 1_555
C8C O3C 1_555 1_555
N4_2 Ni1 1_555 1_555
O3C Ni1 1_555 1_555
O4C Ni1 1_555 1_555
C1 O1 1_555 1_555
C1 O2 1_555 1_555
C6 C7 1_555 1_555
C13 N1 1_555 1_555
C17 C18 1_555 1_555
C17 N4 1_555 1_555
N2 N3 1_555 1_555
O4 Ni1C 1_555 1_555
C8C O4C 1_555 1_555

#END
