
#######################################################################
#
#                 Cambridge Crystallographic Data Centre
#                                CCDC 
#
#######################################################################
#
# If this CIF has been generated from an entry in the Cambridge 
# Structural Database, then it will include bibliographic, chemical, 
# crystal, experimental, refinement or atomic coordinate data resulting 
# from the CCDC's data processing and validation procedures.
#
#######################################################################

data_FEFHII
_symmetry_cell_setting           monoclinic
_symmetry_space_group_name_H-M   'P 21/n'
_symmetry_Int_Tables_number      14
_space_group_name_Hall           '-P 2yn'
loop_
_symmetry_equiv_pos_site_id
_symmetry_equiv_pos_as_xyz
1 x,y,z
2 1/2-x,1/2+y,1/2-z
3 -x,-y,-z
4 1/2+x,1/2-y,1/2+z
_cell_length_a                   9.4512(19)
_cell_length_b                   10.583(2)
_cell_length_c                   9.5998(19)
_cell_angle_alpha                90
_cell_angle_beta                 113.90(3)
_cell_angle_gamma                90
_cell_volume                     877.859
loop_
_atom_site_label
_atom_site_type_symbol
_atom_site_fract_x
_atom_site_fract_y
_atom_site_fract_z
Mn1 Mn 0.5000 0.5000 0.5000
O1 O 0.85038(13) 0.72041(12) 0.21408(13)
H1 H 0.860(3) 0.757(2) 0.140(2)
O2 O 0.62536(12) 0.32396(9) 0.52332(11)
N1 N 0.55242(15) 0.55947(12) 0.29002(14)
N2 N 0.76736(14) 0.09055(11) 0.82708(14)
C1 C 0.68904(18) 0.60598(15) 0.30248(17)
H2 H 0.7757 0.5909 0.3921
C2 C 0.70793(17) 0.67588(14) 0.18786(16)
C3 C 0.57901(18) 0.69633(15) 0.05301(17)
H3 H 0.5868 0.7428 -0.0258
C4 C 0.43910(19) 0.64611(16) 0.03874(18)
H4 H 0.3514 0.6572 -0.0510
C5 C 0.42991(18) 0.57945(15) 0.15803(18)
H5 H 0.3345 0.5468 0.1466
C6 C 0.76141(16) 0.18774(13) 0.73456(16)
H6 H 0.8529 0.2307 0.7518
C7 C 0.62522(16) 0.22854(13) 0.61321(15)
C8 C 0.49016(17) 0.16188(14) 0.59220(17)
H7 H 0.3967 0.1843 0.5137
C9 C 0.49555(18) 0.06302(15) 0.6878(2)
H8 H 0.4057 0.0191 0.6745
C10 C 0.63513(19) 0.02940(15) 0.80342(18)
H9 H 0.6375 -0.0377 0.8668
Mn1C Mn 1.0000 0.0000 1.0000
Mn1C_2 Mn 0.0000 1.0000 0.0000
O1B O 0.14962(13) 0.27959(12) 0.78592(13)
H1B H 0.140(3) 0.243(2) 0.860(2)
O2B O 0.37464(12) 0.67604(9) 0.47668(11)
N1B N 0.44758(15) 0.44053(12) 0.70998(14)
N2B N 0.23264(14) 0.90945(11) 0.17292(14)
N2C N 0.26736(14) 0.40945(11) 0.32708(14)
N2A N 0.73264(14) 0.59055(11) 0.67292(14)
C1B C 0.31096(18) 0.39402(15) 0.69752(17)
H2B H 0.2243 0.4091 0.6079
C2B C 0.29207(17) 0.32412(14) 0.81214(16)
C3B C 0.42099(18) 0.30367(15) 0.94699(17)
H3B H 0.4132 0.2572 1.0258
C4B C 0.56090(19) 0.35389(16) 0.96126(18)
H4B H 0.6486 0.3428 1.0510
C5B C 0.57009(18) 0.42055(15) 0.84197(18)
H5B H 0.6655 0.4532 0.8534
C6B C 0.23859(16) 0.81226(13) 0.26544(16)
H6B H 0.1471 0.7693 0.2482
C7B C 0.37478(16) 0.77146(13) 0.38679(15)
C8B C 0.50984(17) 0.83812(14) 0.40780(17)
H7B H 0.6033 0.8157 0.4863
C9B C 0.50445(18) 0.93698(15) 0.3122(2)
H8B H 0.5943 0.9809 0.3255
C10B C 0.36487(19) 0.97060(15) 0.19658(18)
H9B H 0.3625 1.0377 0.1332
loop_
_geom_bond_atom_site_label_1
_geom_bond_atom_site_label_2
_geom_bond_site_symmetry_1
_geom_bond_site_symmetry_2
Mn1 O2 1_555 1_555
O1 H1 1_555 1_555
O2 C7 1_555 1_555
N1 Mn1 1_555 1_555
N2 C6 1_555 1_555
C1 N1 1_555 1_555
H2 C1 1_555 1_555
C2 O1 1_555 1_555
C3 C2 1_555 1_555
H3 C3 1_555 1_555
C4 C3 1_555 1_555
H4 C4 1_555 1_555
C5 N1 1_555 1_555
H5 C5 1_555 1_555
C6 H6 1_555 1_555
C7 C6 1_555 1_555
C8 C7 1_555 1_555
H7 C8 1_555 1_555
C9 C8 1_555 1_555
H8 C9 1_555 1_555
C10 N2 1_555 1_555
H9 C10 1_555 1_555
Mn1C N2 1_555 1_555
Mn1C_2 N2B 1_555 1_555
O1B H1B 1_555 1_555
O2B Mn1 1_555 1_555
N1B Mn1 1_555 1_555
N2B C6B 1_555 1_555
N2C Mn1 1_555 1_555
N2A Mn1 1_555 1_555
C1B N1B 1_555 1_555
H2B C1B 1_555 1_555
C2B O1B 1_555 1_555
C3B C2B 1_555 1_555
H3B C3B 1_555 1_555
C4B C3B 1_555 1_555
H4B C4B 1_555 1_555
C5B N1B 1_555 1_555
H5B C5B 1_555 1_555
C6B H6B 1_555 1_555
C7B O2B 1_555 1_555
C8B C7B 1_555 1_555
H7B C8B 1_555 1_555
C9B C8B 1_555 1_555
H8B C9B 1_555 1_555
C10B N2B 1_555 1_555
H9B C10B 1_555 1_555
C1 C2 1_555 1_555
C4 C5 1_555 1_555
C9 C10 1_555 1_555
C1B C2B 1_555 1_555
C4B C5B 1_555 1_555
C6B C7B 1_555 1_555
C9B C10B 1_555 1_555

#END
