
#######################################################################
#
#                 Cambridge Crystallographic Data Centre
#                                CCDC 
#
#######################################################################
#
# If this CIF has been generated from an entry in the Cambridge 
# Structural Database, then it will include bibliographic, chemical, 
# crystal, experimental, refinement or atomic coordinate data resulting 
# from the CCDC's data processing and validation procedures.
#
#######################################################################

data_FEFPEN
_symmetry_cell_setting           orthorhombic
_symmetry_space_group_name_H-M   'P 21 21 21'
_symmetry_Int_Tables_number      19
_space_group_name_Hall           'P 2ac 2ab'
loop_
_symmetry_equiv_pos_site_id
_symmetry_equiv_pos_as_xyz
1 x,y,z
2 1/2-x,-y,1/2+z
3 -x,1/2+y,1/2-z
4 1/2+x,1/2-y,-z
_cell_length_a                   8.1264(18)
_cell_length_b                   11.867(3)
_cell_length_c                   13.727(3)
_cell_angle_alpha                90
_cell_angle_beta                 90
_cell_angle_gamma                90
_cell_volume                     1323.78
loop_
_atom_site_label
_atom_site_type_symbol
_atom_site_fract_x
_atom_site_fract_y
_atom_site_fract_z
Mn1 Mn 0.46947(13) 0.16430(8) 0.57996(7)
I1 I 0.47616(5) -0.03518(3) 0.69319(3)
O1 O 0.4834(6) 0.3317(3) 0.5121(3)
O2 O 0.7527(6) 0.3675(4) 0.5025(3)
C1 C 0.6035(8) 0.3912(6) 0.4892(4)
C2 C 0.5693(8) 0.5042(5) 0.4401(5)
H1 H 0.6258 0.5075 0.3754
C3 C 0.6178(9) 0.6069(6) 0.5021(5)
H2 H 0.6990 0.5854 0.5525
H3 H 0.6658 0.6669 0.4608
C4 C 0.4586(9) 0.6466(6) 0.5486(5)
H4 H 0.4653 0.7271 0.5671
H5 H 0.4318 0.6014 0.6070
C5 C 0.3327(9) 0.6283(6) 0.4685(6)
H6 H 0.2197 0.6242 0.4953
H7 H 0.3378 0.6889 0.4191
N1 N 0.3856(7) 0.5171(5) 0.4267(4)
H8 H 0.348(8) 0.517(7) 0.363(2)
H9 H 0.331(8) 0.465(5) 0.463(4)
O3 O 0.6187(6) 0.1028(4) 0.4573(4)
H10 H 0.572(8) 0.056(5) 0.420(4)
H11 H 0.661(9) 0.148(5) 0.417(4)
O4 O 0.6893(7) 0.2186(5) 0.6499(4)
H12 H 0.733(9) 0.270(5) 0.618(5)
H13 H 0.740(8) 0.198(6) 0.700(3)
O5 O 0.2999(6) 0.2602(4) 0.6791(4)
H14 H 0.317(9) 0.312(4) 0.720(4)
H15 H 0.236(7) 0.226(6) 0.717(4)
Mn1C Mn 0.96947(13) 0.33570(8) 0.42004(7)
O2C O 0.2527(6) 0.1325(4) 0.4975(3)
I2 I 1.01186(5) 0.61933(3) 0.69342(3)
loop_
_geom_bond_atom_site_label_1
_geom_bond_atom_site_label_2
_geom_bond_site_symmetry_1
_geom_bond_site_symmetry_2
Mn1 I1 1_555 1_555
O1 Mn1 1_555 1_555
O2 C1 1_555 1_555
C1 O1 1_555 1_555
C2 C1 1_555 1_555
H1 C2 1_555 1_555
C3 C2 1_555 1_555
H2 C3 1_555 1_555
H3 C3 1_555 1_555
C4 C3 1_555 1_555
H4 C4 1_555 1_555
H5 C4 1_555 1_555
C5 C4 1_555 1_555
H6 C5 1_555 1_555
H7 C5 1_555 1_555
N1 C2 1_555 1_555
H8 N1 1_555 1_555
H9 N1 1_555 1_555
O3 Mn1 1_555 1_555
H10 O3 1_555 1_555
H11 O3 1_555 1_555
O4 Mn1 1_555 1_555
H12 O4 1_555 1_555
H13 O4 1_555 1_555
O5 Mn1 1_555 1_555
H14 O5 1_555 1_555
H15 O5 1_555 1_555
Mn1C O2 1_555 1_555
O2C Mn1 1_555 1_555
C5 N1 1_555 1_555

#END
