
#######################################################################
#
#                 Cambridge Crystallographic Data Centre
#                                CCDC 
#
#######################################################################
#
# If this CIF has been generated from an entry in the Cambridge 
# Structural Database, then it will include bibliographic, chemical, 
# crystal, experimental, refinement or atomic coordinate data resulting 
# from the CCDC's data processing and validation procedures.
#
#######################################################################

data_FEFTOB
_symmetry_cell_setting           monoclinic
_symmetry_space_group_name_H-M   'P 21/c'
_symmetry_Int_Tables_number      14
_space_group_name_Hall           '-P 2ybc'
loop_
_symmetry_equiv_pos_site_id
_symmetry_equiv_pos_as_xyz
1 x,y,z
2 -x,1/2+y,1/2-z
3 -x,-y,-z
4 x,1/2-y,1/2+z
_cell_length_a                   7.8106(16)
_cell_length_b                   16.929(3)
_cell_length_c                   17.144(5)
_cell_angle_alpha                90
_cell_angle_beta                 105.48(3)
_cell_angle_gamma                90
_cell_volume                     2184.64
loop_
_atom_site_label
_atom_site_type_symbol
_atom_site_fract_x
_atom_site_fract_y
_atom_site_fract_z
C1 C 0.0868(3) 0.98611(13) 0.23406(13)
H1 H 0.1952 0.9988 0.2244
C2 C -0.0295(3) 1.03873(13) 0.25062(13)
H2 H -0.0162 1.0933 0.2545
C3 C -0.1352(3) 0.91945(12) 0.25001(13)
H3 H -0.2104 0.8779 0.2538
C4 C -0.3254(3) 1.02498(13) 0.28569(13)
H4 H -0.4318 0.9981 0.2550
H5 H -0.3403 1.0810 0.2742
C5 C -0.3010(3) 1.01105(12) 0.37488(13)
C6 C -0.2167(3) 1.06650(13) 0.43240(14)
H6 H -0.1778 1.1140 0.4160
C7 C -0.1908(3) 1.05096(15) 0.51355(15)
H7 H -0.1355 1.0884 0.5517
C8 C -0.2466(3) 0.98011(15) 0.53886(14)
H8 H -0.2280 0.9702 0.5938
C9 C -0.3299(3) 0.92409(13) 0.48280(13)
C10 C -0.3572(3) 0.94042(13) 0.40075(13)
H9 H -0.4142 0.9033 0.3626
C11 C -0.3986(3) 0.84580(15) 0.50568(16)
H10 H -0.5228 0.8520 0.5044
H11 H -0.3917 0.8067 0.4653
C12 C -0.3550(3) 0.81812(15) 0.65550(16)
H12 H -0.4594 0.8399 0.6623
C13 C -0.2267(3) 0.78261(13) 0.71262(15)
H13 H -0.2280 0.7755 0.7662
C14 C -0.1445(3) 0.77928(13) 0.60296(13)
H14 H -0.0797 0.7698 0.5656
C15 C 0.3727(2) 0.67887(11) 0.41504(11)
C16 C 0.3100(3) 0.68329(11) 0.48368(12)
H15 H 0.2089 0.7130 0.4821
C17 C 0.3953(3) 0.64435(11) 0.55408(11)
C18 C 0.5481(3) 0.60083(12) 0.55714(11)
H16 H 0.6063 0.5743 0.6043
C19 C 0.6134(3) 0.59721(12) 0.48901(12)
C20 C 0.5256(3) 0.63564(12) 0.41807(11)
H17 H 0.5690 0.6325 0.3727
C21 C 0.2826(3) 0.72423(12) 0.34093(12)
C22 C 0.3235(3) 0.65098(12) 0.62762(11)
C23 C 0.7821(3) 0.55387(13) 0.49284(12)
N1 N 0.0193(2) 0.91090(10) 0.23369(10)
N2 N -0.1705(2) 0.99559(10) 0.26044(10)
N3 N -0.0922(2) 0.75817(10) 0.67968(10)
N4 N -0.3029(2) 0.81615(11) 0.58500(12)
Ni1 Ni 0.13384(3) 0.805870(14) 0.224375(14)
O1 O 0.3176(2) 0.71167(9) 0.27453(8)
O2 O 0.1706(2) 0.77737(10) 0.34571(9)
O3 O 0.1779(2) 0.68850(9) 0.61615(9)
O4 O 0.4030(2) 0.62242(10) 0.69351(9)
O5 O 0.8556(2) 0.56209(13) 0.43742(10)
O6 O 0.8409(2) 0.51034(11) 0.55490(10)
H18 H 0.939(3) 0.489(2) 0.553(3)
N3C N -0.0922(2) 0.74183(10) 0.17968(10)
Ni1C Ni 0.13384(3) 0.694130(14) 0.724375(14)
O3C O 0.1779(2) 0.81150(9) 0.11615(9)
O7 O 0.8747(6) 0.7522(3) 0.4139(3)
H19 H 0.8488 0.7034 0.4079
H20 H 0.9492 0.7622 0.3870
loop_
_geom_bond_atom_site_label_1
_geom_bond_atom_site_label_2
_geom_bond_site_symmetry_1
_geom_bond_site_symmetry_2
C1 H1 1_555 1_555
C2 C1 1_555 1_555
H2 C2 1_555 1_555
C3 H3 1_555 1_555
C4 H4 1_555 1_555
H5 C4 1_555 1_555
C5 C4 1_555 1_555
C6 C5 1_555 1_555
H6 C6 1_555 1_555
C7 C6 1_555 1_555
H7 C7 1_555 1_555
C8 C7 1_555 1_555
H8 C8 1_555 1_555
C9 C8 1_555 1_555
C10 C5 1_555 1_555
H9 C10 1_555 1_555
C11 C9 1_555 1_555
H10 C11 1_555 1_555
H11 C11 1_555 1_555
C12 H12 1_555 1_555
C13 C12 1_555 1_555
H13 C13 1_555 1_555
C14 H14 1_555 1_555
C15 C16 1_555 1_555
C16 H15 1_555 1_555
C17 C16 1_555 1_555
C18 C17 1_555 1_555
H16 C18 1_555 1_555
C19 C18 1_555 1_555
C20 C15 1_555 1_555
H17 C20 1_555 1_555
C21 C15 1_555 1_555
C22 C17 1_555 1_555
C23 C19 1_555 1_555
N1 C1 1_555 1_555
N2 C2 1_555 1_555
N3 C13 1_555 1_555
N4 C11 1_555 1_555
Ni1 N1 1_555 1_555
O1 C21 1_555 1_555
O2 C21 1_555 1_555
O3 C22 1_555 1_555
O4 C22 1_555 1_555
O5 C23 1_555 1_555
O6 C23 1_555 1_555
H18 O6 1_555 1_555
O7 H19 1_555 1_555
H20 O7 1_555 1_555
N3C Ni1 1_555 1_555
Ni1C N3 1_555 1_555
O3C Ni1 1_555 1_555
C3 N1 1_555 1_555
C3 N2 1_555 1_555
C4 N2 1_555 1_555
C9 C10 1_555 1_555
C12 N4 1_555 1_555
C14 N3 1_555 1_555
C14 N4 1_555 1_555
C19 C20 1_555 1_555
Ni1 O1 1_555 1_555
Ni1 O2 1_555 1_555
O3 Ni1C 1_555 1_555

#END
