
#######################################################################
#
#                 Cambridge Crystallographic Data Centre
#                                CCDC 
#
#######################################################################
#
# If this CIF has been generated from an entry in the Cambridge 
# Structural Database, then it will include bibliographic, chemical, 
# crystal, experimental, refinement or atomic coordinate data resulting 
# from the CCDC's data processing and validation procedures.
#
#######################################################################

data_FEFTIV
_symmetry_cell_setting           monoclinic
_symmetry_space_group_name_H-M   'C 2/c'
_symmetry_Int_Tables_number      15
_space_group_name_Hall           '-C 2yn'
loop_
_symmetry_equiv_pos_site_id
_symmetry_equiv_pos_as_xyz
1 x,y,z
2 -x,y,1/2-z
3 1/2+x,1/2+y,z
4 1/2-x,1/2+y,1/2-z
5 -x,-y,-z
6 x,-y,1/2+z
7 1/2-x,1/2-y,-z
8 1/2+x,1/2-y,1/2+z
_cell_length_a                   40.058(4)
_cell_length_b                   5.9102(5)
_cell_length_c                   24.142(2)
_cell_angle_alpha                90
_cell_angle_beta                 111.7230(10)
_cell_angle_gamma                90
_cell_volume                     5309.74
loop_
_atom_site_label
_atom_site_type_symbol
_atom_site_fract_x
_atom_site_fract_y
_atom_site_fract_z
Cd1 Cd 0.712203(5) 0.41631(3) 1.028794(8)
C1 C 0.71592(6) 0.2840(5) 0.90723(11)
C2 C 0.68222(6) 0.3377(4) 0.85560(10)
C3 C 0.66517(7) 0.5452(5) 0.85087(11)
H1 H 0.6738 0.6502 0.8816
C4 C 0.63537(7) 0.5963(5) 0.80056(12)
H2 H 0.6239 0.7350 0.7981
C5 C 0.62239(7) 0.4438(5) 0.75390(11)
C6 C 0.63862(7) 0.2353(5) 0.76003(12)
H3 H 0.6295 0.1279 0.7300
C7 C 0.66839(7) 0.1832(5) 0.81039(12)
H4 H 0.6791 0.0417 0.8136
C8 C 0.59218(8) 0.5106(5) 0.69607(13)
H5 H 0.5749 0.6018 0.7056
H6 H 0.6021 0.6037 0.6728
C9 C 0.57273(7) 0.3103(5) 0.65829(11)
C10 C 0.58113(7) 0.2381(6) 0.61010(12)
C11 C 0.56298(8) 0.0547(6) 0.57769(12)
H7 H 0.5688 0.0053 0.5458
C12 C 0.53656(8) -0.0595(5) 0.59015(12)
C13 C 0.52838(7) 0.0098(5) 0.63866(12)
C14 C 0.54686(7) 0.1937(5) 0.67331(12)
C15 C 0.53877(8) 0.2679(6) 0.72702(13)
H8 H 0.5414 0.1413 0.7532
H9 H 0.5146 0.3241 0.7142
H10 H 0.5552 0.3853 0.7478
C16 C 0.60921(9) 0.3562(7) 0.59200(16)
H11 H 0.6011 0.5060 0.5781
H12 H 0.6128 0.2721 0.5607
H13 H 0.6314 0.3650 0.6257
C17 C 0.51738(9) -0.2554(6) 0.55088(15)
H14 H 0.5230 -0.3930 0.5736
H15 H 0.5251 -0.2673 0.5177
H16 H 0.4919 -0.2300 0.5364
C18 C 0.49866(7) -0.1080(5) 0.65219(14)
H17 H 0.5044 -0.1028 0.6949
H18 H 0.4981 -0.2658 0.6409
C19 C 0.46135(7) -0.0082(5) 0.62091(12)
C20 C 0.43140(7) -0.1317(5) 0.61823(14)
H19 H 0.4344 -0.2732 0.6363
C21 C 0.39694(7) -0.0480(5) 0.58901(13)
H20 H 0.3772 -0.1354 0.5867
C22 C 0.39184(6) 0.1647(4) 0.56331(11)
C23 C 0.42143(7) 0.2881(5) 0.56611(12)
H21 H 0.4184 0.4312 0.5489
C24 C 0.45580(7) 0.2023(5) 0.59427(13)
H22 H 0.4755 0.2881 0.5952
C25 C 0.35503(7) 0.2602(5) 0.53201(11)
C26 C 0.71673(10) 0.5108(7) 1.16252(15)
H23 H 0.7287 0.6354 1.1552
C27 C 0.71442(11) 0.4934(8) 1.21776(17)
H24 H 0.7241 0.6047 1.2465
C28 C 0.69805(13) 0.3143(9) 1.22914(19)
H25 H 0.6968 0.2951 1.2666
C29 C 0.68310(14) 0.1588(8) 1.1853(2)
H26 H 0.6709 0.0343 1.1920
C30 C 0.68627(11) 0.1886(6) 1.13040(17)
H27 H 0.6761 0.0818 1.1006
N1 N 0.70310(7) 0.3622(4) 1.11923(11)
O1 O 0.72884(5) 0.4313(3) 0.94771(8)
O2 O 0.71470(5) 0.7930(3) 1.04106(8)
H28 H 0.7335 0.8425 1.0367
H29 H 0.6962 0.8524 1.0150
O3 O 0.73032(5) 0.0959(4) 0.90692(8)
O4 O 0.35118(5) 0.4644(3) 0.51865(9)
O5 O 0.32799(5) 0.1295(3) 0.51925(9)
Cd1A Cd 0.287797(5) 0.41631(3) 0.471206(8)
Cd1F Cd 0.787797(5) 0.08369(3) 0.971206(8)
Cd1G Cd 0.212203(5) 0.08369(3) 0.528794(8)
C1A C 0.28408(6) 0.2840(5) 0.59277(11)
C2A C 0.31778(6) 0.3377(4) 0.64440(10)
C3A C 0.33483(7) 0.5452(5) 0.64913(11)
H1A H 0.3262 0.6502 0.6184
C4A C 0.36463(7) 0.5963(5) 0.69944(12)
H2A H 0.3761 0.7350 0.7019
C5A C 0.37761(7) 0.4438(5) 0.74610(11)
C6A C 0.36138(7) 0.2353(5) 0.73997(12)
H3A H 0.3705 0.1279 0.7700
C7A C 0.33161(7) 0.1832(5) 0.68961(12)
H4A H 0.3209 0.0417 0.6864
C8A C 0.40782(8) 0.5106(5) 0.80393(13)
H5A H 0.4251 0.6018 0.7944
H6A H 0.3979 0.6037 0.8272
C9A C 0.42727(7) 0.3103(5) 0.84171(11)
C10A C 0.41887(7) 0.2381(6) 0.88990(12)
C11A C 0.43702(8) 0.0547(6) 0.92231(12)
H7A H 0.4312 0.0053 0.9542
C12A C 0.46344(8) -0.0595(5) 0.90985(12)
C13A C 0.47162(7) 0.0098(5) 0.86134(12)
C14A C 0.45314(7) 0.1937(5) 0.82669(12)
C15A C 0.46123(8) 0.2679(6) 0.77298(13)
H8A H 0.4586 0.1413 0.7468
H9A H 0.4854 0.3241 0.7858
H10A H 0.4448 0.3853 0.7522
C16A C 0.39079(9) 0.3562(7) 0.90800(16)
H11A H 0.3989 0.5060 0.9219
H12A H 0.3872 0.2721 0.9393
H13A H 0.3686 0.3650 0.8743
C17A C 0.48262(9) -0.2554(6) 0.94912(15)
H14A H 0.4770 -0.3930 0.9264
H15A H 0.4749 -0.2673 0.9823
H16A H 0.5081 -0.2300 0.9636
C18A C 0.50134(7) -0.1080(5) 0.84781(14)
H17A H 0.4956 -0.1028 0.8051
H18A H 0.5019 -0.2658 0.8591
C19A C 0.53865(7) -0.0082(5) 0.87909(12)
C20A C 0.56860(7) -0.1317(5) 0.88177(14)
H19A H 0.5656 -0.2732 0.8637
C21A C 0.60306(7) -0.0480(5) 0.91099(13)
H20A H 0.6228 -0.1354 0.9133
C22A C 0.60816(6) 0.1647(4) 0.93669(11)
C23A C 0.57857(7) 0.2881(5) 0.93389(12)
H21A H 0.5816 0.4312 0.9511
C24A C 0.54420(7) 0.2023(5) 0.90573(13)
H22A H 0.5245 0.2881 0.9048
C25A C 0.64497(7) 0.2602(5) 0.96799(11)
C26A C 0.28327(10) 0.5108(7) 0.33748(15)
H23A H 0.2713 0.6354 0.3448
C27A C 0.28558(11) 0.4934(8) 0.28224(17)
H24A H 0.2759 0.6047 0.2535
C28A C 0.30195(13) 0.3143(9) 0.27086(19)
H25A H 0.3032 0.2951 0.2334
C29A C 0.31690(14) 0.1588(8) 0.3147(2)
H26A H 0.3291 0.0343 0.3080
C30A C 0.31373(11) 0.1886(6) 0.36960(17)
H27A H 0.3239 0.0818 0.3994
N1A N 0.29690(7) 0.3622(4) 0.38077(11)
O1A O 0.27116(5) 0.4313(3) 0.55229(8)
O2A O 0.28530(5) 0.7930(3) 0.45894(8)
H28A H 0.2665 0.8425 0.4633
H29A H 0.3038 0.8524 0.4850
O3A O 0.26968(5) 0.0959(4) 0.59308(8)
O3F O 0.76968(5) 0.4041(4) 1.09308(8)
O3G O 0.23032(5) 0.4041(4) 0.40692(8)
O4A O 0.64882(5) 0.4644(3) 0.98135(9)
O5A O 0.67201(5) 0.1295(3) 0.98075(9)
loop_
_geom_bond_atom_site_label_1
_geom_bond_atom_site_label_2
_geom_bond_site_symmetry_1
_geom_bond_site_symmetry_2
Cd1 N1 1_555 1_555
C1 C2 1_555 1_555
C2 C3 1_555 1_555
C3 H1 1_555 1_555
C4 C3 1_555 1_555
H2 C4 1_555 1_555
C5 C4 1_555 1_555
C6 C5 1_555 1_555
H3 C6 1_555 1_555
C7 C2 1_555 1_555
H4 C7 1_555 1_555
C8 C5 1_555 1_555
H5 C8 1_555 1_555
H6 C8 1_555 1_555
C9 C8 1_555 1_555
C10 C9 1_555 1_555
C11 C10 1_555 1_555
H7 C11 1_555 1_555
C12 C11 1_555 1_555
C13 C12 1_555 1_555
C14 C9 1_555 1_555
C15 C14 1_555 1_555
H8 C15 1_555 1_555
H9 C15 1_555 1_555
H10 C15 1_555 1_555
C16 C10 1_555 1_555
H11 C16 1_555 1_555
H12 C16 1_555 1_555
H13 C16 1_555 1_555
C17 C12 1_555 1_555
H14 C17 1_555 1_555
H15 C17 1_555 1_555
H16 C17 1_555 1_555
C18 C13 1_555 1_555
H17 C18 1_555 1_555
H18 C18 1_555 1_555
C19 C18 1_555 1_555
C20 C19 1_555 1_555
H19 C20 1_555 1_555
C21 C20 1_555 1_555
H20 C21 1_555 1_555
C22 C21 1_555 1_555
C23 C22 1_555 1_555
H21 C23 1_555 1_555
C24 C19 1_555 1_555
H22 C24 1_555 1_555
C25 C22 1_555 1_555
C26 H23 1_555 1_555
C27 C26 1_555 1_555
H24 C27 1_555 1_555
C28 C27 1_555 1_555
H25 C28 1_555 1_555
C29 C28 1_555 1_555
H26 C29 1_555 1_555
C30 C29 1_555 1_555
H27 C30 1_555 1_555
N1 C26 1_555 1_555
O1 Cd1 1_555 1_555
O2 Cd1 1_555 1_555
H28 O2 1_555 1_555
H29 O2 1_555 1_555
O3 C1 1_555 1_555
O4 C25 1_555 1_555
O5 C25 1_555 1_555
Cd1A O4 1_555 1_555
Cd1F O3 1_555 1_555
Cd1G O3A 1_555 1_555
C1A C2A 1_555 1_555
C2A C3A 1_555 1_555
C3A H1A 1_555 1_555
C4A C3A 1_555 1_555
H2A C4A 1_555 1_555
C5A C4A 1_555 1_555
C6A C5A 1_555 1_555
H3A C6A 1_555 1_555
C7A C2A 1_555 1_555
H4A C7A 1_555 1_555
C8A C5A 1_555 1_555
H5A C8A 1_555 1_555
H6A C8A 1_555 1_555
C9A C8A 1_555 1_555
C10A C9A 1_555 1_555
C11A C10A 1_555 1_555
H7A C11A 1_555 1_555
C12A C11A 1_555 1_555
C13A C12A 1_555 1_555
C14A C9A 1_555 1_555
C15A C14A 1_555 1_555
H8A C15A 1_555 1_555
H9A C15A 1_555 1_555
H10A C15A 1_555 1_555
C16A C10A 1_555 1_555
H11A C16A 1_555 1_555
H12A C16A 1_555 1_555
H13A C16A 1_555 1_555
C17A C12A 1_555 1_555
H14A C17A 1_555 1_555
H15A C17A 1_555 1_555
H16A C17A 1_555 1_555
C18A C13A 1_555 1_555
H17A C18A 1_555 1_555
H18A C18A 1_555 1_555
C19A C18A 1_555 1_555
C20A C19A 1_555 1_555
H19A C20A 1_555 1_555
C21A C20A 1_555 1_555
H20A C21A 1_555 1_555
C22A C21A 1_555 1_555
C23A C22A 1_555 1_555
H21A C23A 1_555 1_555
C24A C19A 1_555 1_555
H22A C24A 1_555 1_555
C25A C22A 1_555 1_555
C26A H23A 1_555 1_555
C27A C26A 1_555 1_555
H24A C27A 1_555 1_555
C28A C27A 1_555 1_555
H25A C28A 1_555 1_555
C29A C28A 1_555 1_555
H26A C29A 1_555 1_555
C30A C29A 1_555 1_555
H27A C30A 1_555 1_555
N1A Cd1A 1_555 1_555
O1A Cd1A 1_555 1_555
O2A Cd1A 1_555 1_555
H28A O2A 1_555 1_555
H29A O2A 1_555 1_555
O3A C1A 1_555 1_555
O3F Cd1 1_555 1_555
O3G Cd1A 1_555 1_555
O4A Cd1 1_555 1_555
O5A Cd1 1_555 1_555
C1 O1 1_555 1_555
C6 C7 1_555 1_555
C13 C14 1_555 1_555
C23 C24 1_555 1_555
C30 N1 1_555 1_555
O5 Cd1A 1_555 1_555
C1A O1A 1_555 1_555
C6A C7A 1_555 1_555
C13A C14A 1_555 1_555
C23A C24A 1_555 1_555
C25A O4A 1_555 1_555
C25A O5A 1_555 1_555
C26A N1A 1_555 1_555
C30A N1A 1_555 1_555

#END
