
#######################################################################
#
#                 Cambridge Crystallographic Data Centre
#                                CCDC 
#
#######################################################################
#
# If this CIF has been generated from an entry in the Cambridge 
# Structural Database, then it will include bibliographic, chemical, 
# crystal, experimental, refinement or atomic coordinate data resulting 
# from the CCDC's data processing and validation procedures.
#
#######################################################################

data_FEFVAO
_symmetry_cell_setting           monoclinic
_symmetry_space_group_name_H-M   'P 21/n'
_symmetry_Int_Tables_number      14
_space_group_name_Hall           '-P 2yn'
loop_
_symmetry_equiv_pos_site_id
_symmetry_equiv_pos_as_xyz
1 x,y,z
2 1/2-x,1/2+y,1/2-z
3 -x,-y,-z
4 1/2+x,1/2-y,1/2+z
_cell_length_a                   10.1459(6)
_cell_length_b                   20.4018(12)
_cell_length_c                   11.1216(6)
_cell_angle_alpha                90.00
_cell_angle_beta                 114.7790(10)
_cell_angle_gamma                90.00
_cell_volume                     2090.16
loop_
_atom_site_label
_atom_site_type_symbol
_atom_site_fract_x
_atom_site_fract_y
_atom_site_fract_z
Cl1 Cl 1.12355(8) 0.38453(4) 0.36372(7)
O3 O 0.9761(3) 0.36368(13) 0.2853(2)
O4 O 1.2208(3) 0.33310(12) 0.3645(3)
O5 O 1.1537(3) 0.44248(10) 0.3057(2)
O6 O 1.1434(3) 0.39825(14) 0.4967(2)
O7 O 0.1610(13) 0.0805(4) 0.5820(10)
C18 C 0.014(5) -0.029(2) 0.577(5)
C20 C 0.1045(18) 0.0210(7) 0.5679(18)
O7B O -0.1610(13) -0.0805(4) 0.4180(10)
C18B C -0.014(5) 0.029(2) 0.423(5)
C20B C -0.1045(18) -0.0210(7) 0.4321(18)
Zn1 Zn 0.80228(4) 0.251589(14) 0.32529(3)
O1 O 0.9730(3) 0.25317(9) 0.5191(2)
O2 O 1.2101(2) 0.23012(11) 0.6279(2)
N1 N 0.9733(3) 0.21058(11) 0.2924(2)
N2 N 1.2268(3) 0.16249(16) 0.2850(3)
N3 N 0.6896(3) 0.17829(12) 0.3654(2)
N4 N 0.7109(3) 0.33324(13) 0.3652(2)
C1 C 1.0975(3) 0.20637(13) 0.4021(3)
C2 C 1.2222(4) 0.18108(17) 0.3979(3)
C3 C 1.1036(4) 0.16909(17) 0.1762(3)
C4 C 0.9765(4) 0.19209(15) 0.1785(3)
C5 C 1.0925(3) 0.23168(15) 0.5274(3)
C6 C 0.6287(4) 0.12686(15) 0.2852(3)
C7 C 0.5539(4) 0.07878(16) 0.3170(3)
C8 C 0.5370(3) 0.08208(15) 0.4349(3)
C9 C 0.6019(3) 0.13500(16) 0.5178(3)
C10 C 0.6763(4) 0.18130(16) 0.4805(3)
C11 C 0.4545(4) 0.03088(15) 0.4719(3)
C12 C 0.5663(3) 0.34170(15) 0.3032(3)
C13 C 0.4970(3) 0.39628(16) 0.3204(3)
C14 C 0.5789(3) 0.44590(15) 0.4058(3)
C15 C 0.7283(3) 0.43729(15) 0.4684(3)
C16 C 0.7897(3) 0.38105(15) 0.4469(3)
C17 C 0.5087(4) 0.50481(16) 0.4350(3)
H1 H 0.601(4) 0.1401(18) 0.595(4)
H2 H 0.640(4) 0.1243(16) 0.213(3)
H3 H 0.779(4) 0.4712(16) 0.532(3)
H4 H 1.105(4) 0.1552(18) 0.086(3)
H5 H 0.720(4) 0.2214(18) 0.531(4)
H6 H 0.510(7) 0.303(3) 0.248(6)
H7 H 0.890(5) 0.196(2) 0.106(5)
H8 H 0.520(5) 0.041(2) 0.267(4)
H9 H 0.438(5) 0.044(2) 0.545(4)
H10 H 0.553(5) 0.537(2) 0.431(4)
H11 H 0.370(5) 0.016(2) 0.399(4)
H12 H 0.881(4) 0.3761(18) 0.474(4)
H13 H 0.415(5) 0.512(2) 0.362(4)
H14 H 0.399(5) 0.399(2) 0.282(4)
H15 H 1.322(5) 0.1817(19) 0.479(4)
Zn1C Zn 0.30228(4) 0.248411(14) -0.17471(3)
Zn1C_2 Zn 1.30228(4) 0.248411(14) 0.82529(3)
Zn1B Zn 0.19772(4) -0.251589(14) 0.67471(3)
Zn1B_2 Zn 0.19772(4) 0.748411(14) 0.67471(3)
O1C O 0.4730(3) 0.24683(9) 0.0191(2)
O2C O 0.7101(2) 0.26988(11) 0.1279(2)
O2_2 O 0.2101(2) 0.23012(11) -0.3721(2)
N1C N 0.4733(3) 0.28942(11) -0.2076(2)
N2C N 0.7268(3) 0.33751(16) -0.2150(3)
N3B N 0.3104(3) -0.17829(12) 0.6346(2)
N3C N 0.1896(3) 0.32171(12) -0.1346(2)
N4B N 0.2891(3) 0.66676(13) 0.6348(2)
N4C N 0.2109(3) 0.16676(13) -0.1348(2)
C1C C 0.5975(3) 0.29363(13) -0.0979(3)
C2C C 0.7222(4) 0.31892(17) -0.1021(3)
C3C C 0.6036(4) 0.33091(17) -0.3238(3)
C4C C 0.4765(4) 0.30791(15) -0.3215(3)
C5C C 0.5925(3) 0.26832(15) 0.0274(3)
C6B C 0.3713(4) -0.12686(15) 0.7148(3)
C7B C 0.4461(4) -0.07878(16) 0.6830(3)
C8B C 0.4630(3) -0.08208(15) 0.5651(3)
C9B C 0.3981(3) -0.13500(16) 0.4822(3)
C10B C 0.3237(4) -0.18130(16) 0.5195(3)
C11B C 0.5455(4) -0.03088(15) 0.5281(3)
C12B C 0.4337(3) 0.65830(15) 0.6968(3)
C13B C 0.5030(3) 0.60372(16) 0.6796(3)
C14B C 0.4211(3) 0.55410(15) 0.5942(3)
C15B C 0.2717(3) 0.56271(15) 0.5316(3)
C16B C 0.2103(3) 0.61895(15) 0.5531(3)
C17B C 0.4913(4) 0.49519(16) 0.5650(3)
H1B H 0.399(4) -0.1401(18) 0.405(4)
H2B H 0.360(4) -0.1243(16) 0.787(3)
H3B H 0.221(4) 0.5288(16) 0.468(3)
H4C H 0.605(4) 0.3448(18) -0.414(3)
H5B H 0.280(4) -0.2214(18) 0.469(4)
H6B H 0.490(7) 0.697(3) 0.752(6)
H7C H 0.390(5) 0.304(2) -0.394(5)
H8B H 0.480(5) -0.041(2) 0.733(4)
H9B H 0.562(5) -0.044(2) 0.455(4)
H10B H 0.447(5) 0.463(2) 0.569(4)
H11B H 0.630(5) -0.016(2) 0.601(4)
H12B H 0.119(4) 0.6239(18) 0.526(4)
H13B H 0.585(5) 0.488(2) 0.638(4)
H14B H 0.601(5) 0.601(2) 0.718(4)
H15C H 0.822(5) 0.3183(19) -0.021(4)
C19? C 0.041(3) -0.0152(14) 0.509(3)
loop_
_geom_bond_atom_site_label_1
_geom_bond_atom_site_label_2
_geom_bond_site_symmetry_1
_geom_bond_site_symmetry_2
Zn1 O1 1_555 1_555
Cl1 O3 1_555 1_555
O1 C5 1_555 1_555
O2 C5 1_555 1_555
O4 Cl1 1_555 1_555
O5 Cl1 1_555 1_555
O6 Cl1 1_555 1_555
N1 Zn1 1_555 1_555
N2 C2 1_555 1_555
N3 Zn1 1_555 1_555
N4 Zn1 1_555 1_555
C1 N1 1_555 1_555
C2 C1 1_555 1_555
C3 N2 1_555 1_555
C4 N1 1_555 1_555
C5 C1 1_555 1_555
C6 N3 1_555 1_555
C7 C6 1_555 1_555
C8 C7 1_555 1_555
C9 C8 1_555 1_555
C10 N3 1_555 1_555
C11 C8 1_555 1_555
C12 N4 1_555 1_555
C13 C12 1_555 1_555
C14 C13 1_555 1_555
C15 C14 1_555 1_555
C16 N4 1_555 1_555
C17 C14 1_555 1_555
O7 C20 1_555 1_555
C18 C20 1_555 1_555
C20 C18B 1_555 1_555
H1 C9 1_555 1_555
H2 C6 1_555 1_555
H3 C15 1_555 1_555
H4 C3 1_555 1_555
H5 C10 1_555 1_555
H6 C12 1_555 1_555
H7 C4 1_555 1_555
H8 C7 1_555 1_555
H9 C11 1_555 1_555
H10 C17 1_555 1_555
H11 C11 1_555 1_555
H12 C16 1_555 1_555
H13 C17 1_555 1_555
H14 C13 1_555 1_555
H15 C2 1_555 1_555
Zn1C O1C 1_555 1_555
Zn1C_2 O2 1_555 1_555
Zn1B N3B 1_555 1_555
Zn1B_2 N4B 1_555 1_555
O1C C5C 1_555 1_555
O2C Zn1 1_555 1_555
O2_2 Zn1C 1_555 1_555
N1C Zn1C 1_555 1_555
N2C C2C 1_555 1_555
N3B C6B 1_555 1_555
N3C Zn1C 1_555 1_555
N4B C12B 1_555 1_555
N4C Zn1C 1_555 1_555
C1C N1C 1_555 1_555
C2C C1C 1_555 1_555
C3C N2C 1_555 1_555
C4C N1C 1_555 1_555
C5C O2C 1_555 1_555
C6B C7B 1_555 1_555
C7B C8B 1_555 1_555
C8B C9B 1_555 1_555
C9B C10B 1_555 1_555
C10B N3B 1_555 1_555
C11B C11 1_555 1_555
C12B C13B 1_555 1_555
C13B C14B 1_555 1_555
C14B C15B 1_555 1_555
C15B C16B 1_555 1_555
C16B N4B 1_555 1_555
C17B C17 1_555 1_555
O7B C20B 1_555 1_555
C18B C20B 1_555 1_555
C20B C18 1_555 1_555
H1B C9B 1_555 1_555
H2B C6B 1_555 1_555
H3B C15B 1_555 1_555
H4C C3C 1_555 1_555
H5B C10B 1_555 1_555
H6B C12B 1_555 1_555
H7C C4C 1_555 1_555
H8B C7B 1_555 1_555
H9B C11B 1_555 1_555
H10B C17B 1_555 1_555
H11B C11B 1_555 1_555
H12B C16B 1_555 1_555
H13B C17B 1_555 1_555
H14B C13B 1_555 1_555
H15C C2C 1_555 1_555
C3 C4 1_555 1_555
C9 C10 1_555 1_555
C15 C16 1_555 1_555
C1C C5C 1_555 1_555
C3C C4C 1_555 1_555
C8B C11B 1_555 1_555
C14B C17B 1_555 1_555

#END
