
#######################################################################
#
#                 Cambridge Crystallographic Data Centre
#                                CCDC 
#
#######################################################################
#
# If this CIF has been generated from an entry in the Cambridge 
# Structural Database, then it will include bibliographic, chemical, 
# crystal, experimental, refinement or atomic coordinate data resulting 
# from the CCDC's data processing and validation procedures.
#
#######################################################################

data_FEFXAP
_symmetry_cell_setting           monoclinic
_symmetry_space_group_name_H-M   'P 21/c'
_symmetry_Int_Tables_number      14
_space_group_name_Hall           '-P 2ybc'
loop_
_symmetry_equiv_pos_site_id
_symmetry_equiv_pos_as_xyz
1 x,y,z
2 -x,1/2+y,1/2-z
3 -x,-y,-z
4 x,1/2-y,1/2+z
_cell_length_a                   9.761(2)
_cell_length_b                   28.668(5)
_cell_length_c                   9.941(2)
_cell_angle_alpha                90
_cell_angle_beta                 96.07(3)
_cell_angle_gamma                90
_cell_volume                     2766.18
loop_
_atom_site_label
_atom_site_type_symbol
_atom_site_fract_x
_atom_site_fract_y
_atom_site_fract_z
Mn1 Mn 0.06745(8) 0.18152(3) 0.22220(8)
O1 O 0.1423(4) 0.15346(11) 0.4250(4)
O2 O 0.2605(3) 0.27963(12) 0.7037(4)
O3 O -0.1215(3) 0.14473(12) 0.2233(4)
O4 O -0.0355(4) -0.01276(13) 0.2675(4)
N1 N 0.2003(4) 0.1786(2) 0.5223(4)
N2 N 0.2544(4) 0.2379(2) 0.6536(4)
N3 N 0.0056(4) 0.23840(14) 0.3484(4)
N4 N 0.0107(4) 0.28879(14) 0.5245(4)
N5 N -0.1311(4) 0.1016(2) 0.2591(4)
N6 N -0.0927(5) 0.0270(2) 0.2812(5)
N7 N 0.1426(5) 0.11360(14) 0.1552(4)
N8 N 0.1603(5) 0.0373(2) 0.1406(4)
C1 C 0.1691(5) 0.2230(2) 0.5473(5)
C2 C 0.2996(6) 0.1572(2) 0.6303(6)
C3 C 0.3614(5) 0.2017(2) 0.7024(6)
C4 C 0.2085(7) 0.1286(2) 0.7198(7)
C5 C 0.3940(7) 0.1253(2) 0.5680(7)
C6 C 0.4948(6) 0.2174(2) 0.6533(7)
C7 C 0.3761(6) 0.1990(2) 0.8547(6)
C8 C 0.0630(5) 0.2499(2) 0.4724(6)
C9 C -0.0874(6) 0.2728(2) 0.3182(6)
C10 C -0.0860(6) 0.3029(2) 0.4237(6)
C11 C -0.0435(5) 0.0675(2) 0.2347(5)
C12 C -0.2387(6) 0.0871(2) 0.3476(6)
C13 C -0.2274(6) 0.0325(2) 0.3381(6)
C14 C -0.3770(6) 0.1076(2) 0.2889(7)
C15 C -0.1926(7) 0.1070(2) 0.4870(6)
C16 C -0.2205(7) 0.0068(2) 0.4722(6)
C17 C -0.3359(6) 0.0106(2) 0.2355(6)
C18 C 0.0827(5) 0.0733(2) 0.1762(5)
C19 C 0.2637(6) 0.1023(2) 0.1054(6)
C20 C 0.2756(6) 0.0554(2) 0.0952(6)
H1 H 0.1404(5) 0.0082(2) 0.1456(4)
H2 H 0.1473(7) 0.1492(2) 0.7604(7)
H3 H 0.2664(7) 0.1128(2) 0.7895(7)
H4 H 0.1556(7) 0.1061(2) 0.6648(7)
H5 H 0.3427(7) 0.0994(2) 0.5273(7)
H6 H 0.4630(7) 0.1140(2) 0.6362(7)
H7 H 0.4376(7) 0.1418(2) 0.4999(7)
H8 H 0.4841(6) 0.2190(2) 0.5563(7)
H9 H 0.5663(6) 0.1955(2) 0.6825(7)
H10 H 0.5190(6) 0.2477(2) 0.6898(7)
H11 H 0.2906(6) 0.1890(2) 0.8847(6)
H12 H 0.3999(6) 0.2292(2) 0.8918(6)
H13 H 0.4473(6) 0.1771(2) 0.8846(6)
H14 H -0.1439(6) 0.2755(2) 0.2372(6)
H15 H -0.1421(6) 0.3290(2) 0.4269(6)
H16 H -0.4030(6) 0.0944(2) 0.2012(7)
H17 H -0.3687(6) 0.1408(2) 0.2809(7)
H18 H -0.4460(6) 0.1004(2) 0.3477(7)
H19 H -0.1058(7) 0.0934(2) 0.5209(6)
H20 H -0.2602(7) 0.0998(2) 0.5475(6)
H21 H -0.1827(7) 0.1402(2) 0.4807(6)
H22 H -0.1519(7) 0.0210(2) 0.5356(6)
H23 H -0.1965(7) -0.0252(2) 0.4590(6)
H24 H -0.3085(7) 0.0084(2) 0.5068(6)
H25 H -0.3391(6) 0.0272(2) 0.1514(6)
H26 H -0.4244(6) 0.0121(2) 0.2692(6)
H27 H -0.3125(6) -0.0215(2) 0.2214(6)
H28 H 0.3286(6) 0.1237(2) 0.0820(6)
H29 H 0.3479(6) 0.0390(2) 0.0636(6)
O2C O 0.2605(3) 0.22037(12) 0.2037(4)
Mn1C Mn 0.06745(8) 0.31848(3) 0.72220(8)
N4C N 0.0107(4) 0.21121(14) 0.0245(4)
Cl1 Cl 0.3348(2) -0.07879(5) 0.1368(2)
O5 O 0.3552(4) -0.0473(2) 0.2473(5)
O6 O 0.4515(5) -0.0759(2) 0.0662(5)
O7 O 0.2132(4) -0.0659(2) 0.0533(4)
O8 O 0.3228(5) -0.1241(2) 0.1887(5)
loop_
_geom_bond_atom_site_label_1
_geom_bond_atom_site_label_2
_geom_bond_site_symmetry_1
_geom_bond_site_symmetry_2
Mn1 O1 1_555 1_555
O1 N1 1_555 1_555
O2 N2 1_555 1_555
O3 Mn1 1_555 1_555
O4 N6 1_555 1_555
N1 C1 1_555 1_555
N2 C1 1_555 1_555
N3 Mn1 1_555 1_555
N4 C8 1_555 1_555
N5 O3 1_555 1_555
N6 C11 1_555 1_555
N7 Mn1 1_555 1_555
N8 C18 1_555 1_555
C1 C8 1_555 1_555
C2 N1 1_555 1_555
C3 N2 1_555 1_555
C4 C2 1_555 1_555
C5 C2 1_555 1_555
C6 C3 1_555 1_555
C7 C3 1_555 1_555
C8 N3 1_555 1_555
C9 N3 1_555 1_555
C10 N4 1_555 1_555
C11 N5 1_555 1_555
C12 N5 1_555 1_555
C13 N6 1_555 1_555
C14 C12 1_555 1_555
C15 C12 1_555 1_555
C16 C13 1_555 1_555
C17 C13 1_555 1_555
C18 N7 1_555 1_555
C19 N7 1_555 1_555
C20 N8 1_555 1_555
Cl1 O5 1_555 1_555
O6 Cl1 1_555 1_555
O7 Cl1 1_555 1_555
O8 Cl1 1_555 1_555
H1 N8 1_555 1_555
H2 C4 1_555 1_555
H3 C4 1_555 1_555
H4 C4 1_555 1_555
H5 C5 1_555 1_555
H6 C5 1_555 1_555
H7 C5 1_555 1_555
H8 C6 1_555 1_555
H9 C6 1_555 1_555
H10 C6 1_555 1_555
H11 C7 1_555 1_555
H12 C7 1_555 1_555
H13 C7 1_555 1_555
H14 C9 1_555 1_555
H15 C10 1_555 1_555
H16 C14 1_555 1_555
H17 C14 1_555 1_555
H18 C14 1_555 1_555
H19 C15 1_555 1_555
H20 C15 1_555 1_555
H21 C15 1_555 1_555
H22 C16 1_555 1_555
H23 C16 1_555 1_555
H24 C16 1_555 1_555
H25 C17 1_555 1_555
H26 C17 1_555 1_555
H27 C17 1_555 1_555
H28 C19 1_555 1_555
H29 C20 1_555 1_555
O2C Mn1 1_555 1_555
Mn1C O2 1_555 1_555
N4C Mn1 1_555 1_555
N4 Mn1C 1_555 1_555
C2 C3 1_555 1_555
C9 C10 1_555 1_555
C11 C18 1_555 1_555
C12 C13 1_555 1_555
C19 C20 1_555 1_555

#END
