
#######################################################################
#
#                 Cambridge Crystallographic Data Centre
#                                CCDC 
#
#######################################################################
#
# If this CIF has been generated from an entry in the Cambridge 
# Structural Database, then it will include bibliographic, chemical, 
# crystal, experimental, refinement or atomic coordinate data resulting 
# from the CCDC's data processing and validation procedures.
#
#######################################################################

data_FEHJOT
_symmetry_cell_setting           orthorhombic
_symmetry_space_group_name_H-M   'P b c a'
_symmetry_Int_Tables_number      61
_space_group_name_Hall           '-P 2ac 2ab'
loop_
_symmetry_equiv_pos_site_id
_symmetry_equiv_pos_as_xyz
1 x,y,z
2 1/2-x,-y,1/2+z
3 -x,1/2+y,1/2-z
4 1/2+x,1/2-y,-z
5 -x,-y,-z
6 1/2+x,y,1/2-z
7 x,1/2-y,1/2+z
8 1/2-x,1/2+y,z
_cell_length_a                   7.6418(11)
_cell_length_b                   12.7390(18)
_cell_length_c                   24.237(4)
_cell_angle_alpha                90
_cell_angle_beta                 90
_cell_angle_gamma                90
_cell_volume                     2359.45
loop_
_atom_site_label
_atom_site_type_symbol
_atom_site_fract_x
_atom_site_fract_y
_atom_site_fract_z
Cd1 Cd 0.21698(5) 0.44564(3) 0.034546(15)
Cl1 Cl 0.11088(17) 0.50337(10) -0.06330(5)
P1 P 0.05567(18) 0.17202(10) 0.04369(5)
O1 O 0.1310(5) 0.2756(3) 0.02516(14)
O2 O 0.1893(5) 0.1004(3) 0.07227(14)
O3 O -0.0344(5) 0.1167(3) -0.00285(14)
O4 O -0.27762(18) 0.55251(11) 0.33064(6)
H1 H -0.2586 0.5731 0.3635
O5 O -0.27308(18) 0.39461(11) 0.37073(6)
N1 N -0.25498(18) 0.26161(11) 0.07958(6)
H2 H -0.2211 0.3289 0.0757
H3 H -0.2874 0.2383 0.0460
C1 C -0.10183(18) 0.19899(11) 0.09827(6)
H4 H -0.1428 0.1336 0.1131
H5 H -0.0438 0.2362 0.1274
C2 C -0.41212(18) 0.25869(11) 0.11694(6)
H6 H -0.5075 0.2946 0.0994
H7 H -0.4467 0.1870 0.1225
C3 C -0.37706(18) 0.30867(11) 0.17211(6)
C4 C -0.35372(18) 0.24799(11) 0.21905(6)
H8 H -0.3583 0.1729 0.2163
C5 C -0.37654(18) 0.41651(11) 0.17739(6)
H9 H -0.3953 0.4594 0.1454
C6 C -0.34942(18) 0.46402(11) 0.22820(6)
H10 H -0.3495 0.5391 0.2312
C7 C -0.32399(18) 0.29407(11) 0.26964(6)
H11 H -0.3045 0.2510 0.3016
C8 C -0.32219(18) 0.40233(11) 0.27449(6)
C9 C -0.28884(18) 0.44984(11) 0.32980(6)
Cd1D Cd -0.21698(5) 0.55436(3) -0.034546(15)
Cd1G Cd 0.28302(5) -0.05436(3) 0.034546(15)
Cd1C Cd -0.28302(5) 0.05436(3) -0.034546(15)
Cd1E Cd -0.28302(5) 0.44564(3) 0.465454(15)
Cl1D Cl -0.11088(17) 0.49663(10) 0.06330(5)
O2G O 0.3107(5) 0.6004(3) 0.07227(14)
O3C O 0.4656(5) 0.3833(3) 0.00285(14)
O5E O 0.22692(18) 0.39461(11) 0.12927(6)
loop_
_geom_bond_atom_site_label_1
_geom_bond_atom_site_label_2
_geom_bond_site_symmetry_1
_geom_bond_site_symmetry_2
Cd1 Cl1 1_555 1_555
Cl1 Cd1D 1_555 1_555
P1 O1 1_555 1_555
O1 Cd1 1_555 1_555
O2 P1 1_555 1_555
O3 P1 1_555 1_555
O4 H1 1_555 1_555
O5 C9 1_555 1_555
N1 H2 1_555 1_555
H3 N1 1_555 1_555
C1 P1 1_555 1_555
H4 C1 1_555 1_555
H5 C1 1_555 1_555
C2 N1 1_555 1_555
H6 C2 1_555 1_555
H7 C2 1_555 1_555
C3 C2 1_555 1_555
C4 C3 1_555 1_555
H8 C4 1_555 1_555
C5 C3 1_555 1_555
H9 C5 1_555 1_555
C6 C5 1_555 1_555
H10 C6 1_555 1_555
C7 C4 1_555 1_555
H11 C7 1_555 1_555
C8 C6 1_555 1_555
C9 O4 1_555 1_555
Cd1D Cl1D 1_555 1_555
Cd1G O2 1_555 1_555
Cd1C O3 1_555 1_555
Cd1E O5 1_555 1_555
Cl1D Cd1 1_555 1_555
O2G Cd1 1_555 1_555
O3C Cd1 1_555 1_555
O5E Cd1 1_555 1_555
N1 C1 1_555 1_555
C7 C8 1_555 1_555
C8 C9 1_555 1_555

#END
