
#######################################################################
#
#                 Cambridge Crystallographic Data Centre
#                                CCDC 
#
#######################################################################
#
# If this CIF has been generated from an entry in the Cambridge 
# Structural Database, then it will include bibliographic, chemical, 
# crystal, experimental, refinement or atomic coordinate data resulting 
# from the CCDC's data processing and validation procedures.
#
#######################################################################

data_FEHJIN
_symmetry_cell_setting           orthorhombic
_symmetry_space_group_name_H-M   'P c a 21'
_symmetry_Int_Tables_number      29
_space_group_name_Hall           'P 2c -2ac'
loop_
_symmetry_equiv_pos_site_id
_symmetry_equiv_pos_as_xyz
1 x,y,z
2 -x,-y,1/2+z
3 1/2+x,-y,z
4 1/2-x,y,1/2+z
_cell_length_a                   9.9240(11)
_cell_length_b                   12.4951(14)
_cell_length_c                   8.6343(9)
_cell_angle_alpha                90
_cell_angle_beta                 90
_cell_angle_gamma                90
_cell_volume                     1070.67
loop_
_atom_site_label
_atom_site_type_symbol
_atom_site_fract_x
_atom_site_fract_y
_atom_site_fract_z
Zn1 Zn 0.07827(6) 1.12038(5) 0.69048(8)
P1 P -0.14326(16) 0.97163(13) 0.8361(2)
O1 O -0.0946(4) 1.0783(4) 0.7737(5)
O2 O -0.2946(4) 0.9630(3) 0.8208(6)
O3 O -0.0922(5) 0.9549(4) 0.9973(5)
O4 O 0.1340(5) 0.2684(3) 0.7083(7)
O5 O -0.0199(6) 0.2871(4) 0.5252(7)
N1 N 0.0720(5) 0.8406(4) 0.7593(6)
H1 H 0.1137 0.9028 0.7808
H2 H 0.0725 0.8009 0.8463
C1 C -0.0723(6) 0.8643(5) 0.7169(9)
H3 H -0.1259 0.8001 0.7300
H4 H -0.0767 0.8850 0.6087
C2 C 0.1518(7) 0.7828(5) 0.6375(8)
H5 H 0.1297 0.8130 0.5371
H6 H 0.2469 0.7955 0.6559
C3 C 0.1284(7) 0.6646(5) 0.6317(7)
C4 C 0.2118(6) 0.5954(5) 0.7138(10)
H7 H 0.2813 0.6233 0.7738
C5 C 0.1930(6) 0.4856(5) 0.7077(12)
H8 H 0.2498 0.4404 0.7631
C6 C 0.0898(7) 0.4431(5) 0.6191(8)
C7 C 0.0084(8) 0.5124(6) 0.5367(9)
H9 H -0.0598 0.4841 0.4752
C8 C 0.0247(7) 0.6219(6) 0.5423(9)
H10 H -0.0328 0.6667 0.4872
C9 C 0.0649(7) 0.3246(6) 0.6134(9)
Zn1_2 Zn 0.07827(6) 0.12038(5) 0.69048(8)
Zn1A Zn -0.07827(6) 0.87962(5) 1.19048(8)
Zn1B Zn -0.42173(6) 0.87962(5) 0.69048(8)
O2B O 0.2054(4) 1.0370(3) 0.8208(6)
O3A O 0.0922(5) 1.0451(4) 0.4973(5)
O4_2 O 0.1340(5) 1.2684(3) 0.7083(7)
loop_
_geom_bond_atom_site_label_1
_geom_bond_atom_site_label_2
_geom_bond_site_symmetry_1
_geom_bond_site_symmetry_2
Zn1 O1 1_555 1_555
P1 O1 1_555 1_555
O2 P1 1_555 1_555
O3 P1 1_555 1_555
O4 C9 1_555 1_555
O5 C9 1_555 1_555
N1 H1 1_555 1_555
H2 N1 1_555 1_555
C1 P1 1_555 1_555
H3 C1 1_555 1_555
H4 C1 1_555 1_555
C2 N1 1_555 1_555
H5 C2 1_555 1_555
H6 C2 1_555 1_555
C3 C2 1_555 1_555
C4 C3 1_555 1_555
H7 C4 1_555 1_555
C5 C4 1_555 1_555
H8 C5 1_555 1_555
C6 C5 1_555 1_555
C7 C6 1_555 1_555
H9 C7 1_555 1_555
C8 C3 1_555 1_555
H10 C8 1_555 1_555
C9 C6 1_555 1_555
Zn1_2 O4 1_555 1_555
Zn1A O3 1_555 1_555
Zn1B O2 1_555 1_555
O2B Zn1 1_555 1_555
O3A Zn1 1_555 1_555
O4_2 Zn1 1_555 1_555
N1 C1 1_555 1_555
C7 C8 1_555 1_555

#END
