
#######################################################################
#
#                 Cambridge Crystallographic Data Centre
#                                CCDC 
#
#######################################################################
#
# If this CIF has been generated from an entry in the Cambridge 
# Structural Database, then it will include bibliographic, chemical, 
# crystal, experimental, refinement or atomic coordinate data resulting 
# from the CCDC's data processing and validation procedures.
#
#######################################################################

data_FEJFEF
_symmetry_cell_setting           monoclinic
_symmetry_space_group_name_H-M   'P 21/c'
_symmetry_Int_Tables_number      14
_space_group_name_Hall           '-P 2ybc'
loop_
_symmetry_equiv_pos_site_id
_symmetry_equiv_pos_as_xyz
1 x,y,z
2 -x,1/2+y,1/2-z
3 -x,-y,-z
4 x,1/2-y,1/2+z
_cell_length_a                   19.799(5)
_cell_length_b                   7.449(4)
_cell_length_c                   13.124(9)
_cell_angle_alpha                90
_cell_angle_beta                 106.93(4)
_cell_angle_gamma                90
_cell_volume                     1851.68
loop_
_atom_site_label
_atom_site_type_symbol
_atom_site_fract_x
_atom_site_fract_y
_atom_site_fract_z
Ag1 Ag 0.51695(4) 0.4300(1) 0.12948(5)
O1 O 0.4764(3) 0.6923(9) 0.2349(5)
O2 O 0.3955(4) 0.6306(9) 0.0952(5)
O3 O 0.6190(3) 0.3357(8) 0.2954(5)
N1 N 0.4163(4) 0.7192(9) 0.1769(5)
N2 N 0.4343(4) 0.279(1) -0.0019(5)
N3 N 0.5872(3) 0.6426(9) 0.0892(5)
C1 C 0.3900(5) 0.134(1) 0.0163(7)
C2 C 0.6555(5) 0.705(1) 0.1596(7)
C3 C 0.3804(6) -0.003(1) -0.0746(9)
C4 C 0.6486(6) 0.903(1) 0.1793(8)
C5 C 0.3187(6) 0.219(2) 0.0084(8)
C6 C 0.7081(5) 0.685(2) 0.0956(9)
H1 H 0.4301 -0.0587 -0.0713
H2 H 0.3457 -0.1012 -0.0679
H3 H 0.6133 0.9175 0.2268
H4 H 0.6977 0.9536 0.2211
H5 H 0.3218 0.3122 0.0709
H6 H 0.2803 0.1198 0.0132
H7 H 0.7576 0.7407 0.1387
H8 H 0.7158 0.5486 0.0812
Ag1B Ag 0.48305(4) 0.5700(1) -0.12948(5)
O1A O 0.5236(3) 0.1923(9) 0.2651(5)
Ag1A Ag 0.48305(4) 0.9300(1) 0.37052(5)
N1A N 0.5837(4) 0.2192(9) 0.3231(5)
O3A O 0.3810(3) 0.8357(8) 0.2046(5)
N3B N 0.4128(3) 0.3574(9) -0.0892(5)
N2B N 0.5657(4) 0.721(1) 0.0019(5)
C4B C 0.3514(6) 0.097(1) -0.1793(8)
C3B C 0.6196(6) 1.003(1) 0.0746(9)
C6B C 0.2919(5) 0.315(2) -0.0956(9)
C5B C 0.6813(6) 0.781(2) -0.0084(8)
Ag1A_2 Ag 0.48305(4) -0.0700(1) 0.37052(5)
O2A O 0.6045(4) 0.1306(9) 0.4048(5)
C1B C 0.6100(5) 0.866(1) -0.0163(7)
H5B H 0.6782 0.6878 -0.0709
H6B H 0.7197 0.8802 -0.0132
H1B H 0.5699 1.0587 0.0713
H2B H 0.6543 1.1012 0.0679
C2B C 0.3445(5) 0.295(1) -0.1596(7)
H3B H 0.3867 0.0825 -0.2268
H4B H 0.3023 0.0464 -0.2211
H7B H 0.2424 0.2593 -0.1387
H8B H 0.2842 0.4514 -0.0812
O1B O 0.5236(3) 0.3077(9) -0.2349(5)
O1C O 0.4764(3) 0.8077(9) -0.2651(5)
O2B O 0.6045(4) 0.3694(9) -0.0952(5)
O3B O 0.3810(3) 0.6643(8) -0.2954(5)
Ag2 Ag 0.01423(3) 0.0777(1) 0.38365(5)
O4 O 0.0244(8) 0.3198(9) 0.2489(5)
O5 O 0.1143(3) 0.1579(9) 0.3099(5)
O6 O -0.1131(4) -0.139(1) 0.3057(5)
N4 N 0.0850(4) 0.279(1) 0.2501(5)
N5 N -0.0702(3) 0.2162(9) 0.4412(5)
N6 N 0.0881(3) -0.1332(9) 0.4872(5)
C7 C -0.1149(5) 0.367(1) 0.3901(7)
C8 C 0.1537(4) -0.200(1) 0.4684(6)
C9 C -0.1871(6) 0.288(2) 0.3408(8)
C10 C 0.2102(5) -0.182(2) 0.5751(8)
C11 C -0.1172(6) 0.498(1) 0.4797(9)
C12 C 0.1420(5) -0.395(1) 0.4370(8)
H9 H -0.2216 0.3939 0.3101
H10 H -0.1830 0.2039 0.2787
H11 H 0.2588 -0.2332 0.5681
H12 H 0.2177 -0.0450 0.5964
H13 H -0.1511 0.6069 0.4453
H14 H -0.0654 0.5533 0.5122
H15 H 0.1039 -0.4076 0.3630
H16 H 0.1897 -0.4540 0.4327
Ag2B Ag -0.01423(3) -0.0777(1) 0.61635(5)
O4A O -0.0244(8) -0.1802(9) 0.2511(5)
Ag2A Ag -0.01423(3) 0.5777(1) 0.11635(5)
N4A N -0.0850(4) -0.221(1) 0.2499(5)
O6A O 0.1131(4) 0.361(1) 0.1943(5)
N6B N -0.0881(3) 0.1332(9) 0.5128(5)
N5B N 0.0702(3) -0.2162(9) 0.5588(5)
C10B C -0.2102(5) 0.182(2) 0.4249(8)
C9B C 0.1871(6) -0.288(2) 0.6592(8)
C12B C -0.1420(5) 0.395(1) 0.5630(8)
C11B C 0.1172(6) -0.498(1) 0.5203(9)
O4B O -0.0244(8) -0.3198(9) 0.7511(5)
O4C O 0.0244(8) 0.1802(9) 0.7489(5)
O5B O -0.1143(3) -0.1579(9) 0.6901(5)
O6B O 0.1131(4) 0.139(1) 0.6943(5)
C8B C -0.1537(4) 0.200(1) 0.5316(6)
H11B H -0.2588 0.2332 0.4319
H12B H -0.2177 0.0450 0.4036
C7B C 0.1149(5) -0.367(1) 0.6099(7)
H13B H 0.1511 -0.6069 0.5547
H14B H 0.0654 -0.5533 0.4878
H9B H 0.2216 -0.3939 0.6899
H10B H 0.1830 -0.2039 0.7213
H15B H -0.1039 0.4076 0.6370
H16B H -0.1897 0.4540 0.5673
Ag2A_2 Ag -0.01423(3) -0.4223(1) 0.11635(5)
O5A O -0.1143(3) -0.3421(9) 0.1901(5)
loop_
_geom_bond_atom_site_label_1
_geom_bond_atom_site_label_2
_geom_bond_site_symmetry_1
_geom_bond_site_symmetry_2
Ag1 O1 1_555 1_555
O1 N1 1_555 1_555
O2 Ag1 1_555 1_555
O3 Ag1 1_555 1_555
N1 O2 1_555 1_555
N2 Ag1 1_555 1_555
N3 Ag1 1_555 1_555
C1 N2 1_555 1_555
C2 N3 1_555 1_555
C3 C1 1_555 1_555
C4 C2 1_555 1_555
C5 C1 1_555 1_555
C6 C2 1_555 1_555
Ag2 O4 1_555 1_555
O4 N4 1_555 1_555
O5 Ag2 1_555 1_555
O6 Ag2 1_555 1_555
N4 O5 1_555 1_555
N5 Ag2 1_555 1_555
N6 Ag2 1_555 1_555
C7 N5 1_555 1_555
C8 N6 1_555 1_555
C9 C7 1_555 1_555
C10 C8 1_555 1_555
C11 C7 1_555 1_555
C12 C8 1_555 1_555
H1 C3 1_555 1_555
H2 C3 1_555 1_555
H3 C4 1_555 1_555
H4 C4 1_555 1_555
H5 C5 1_555 1_555
H6 C5 1_555 1_555
H7 C6 1_555 1_555
H8 C6 1_555 1_555
H9 C9 1_555 1_555
H10 C9 1_555 1_555
H11 C10 1_555 1_555
H12 C10 1_555 1_555
H13 C11 1_555 1_555
H14 C11 1_555 1_555
H15 C12 1_555 1_555
H16 C12 1_555 1_555
Ag1B N3B 1_555 1_555
O1A Ag1 1_555 1_555
Ag1A O1 1_555 1_555
N1A O3 1_555 1_555
O3A N1 1_555 1_555
N3B N2 1_555 1_555
N2B N3 1_555 1_555
C4B C3 1_555 1_555
C3B C4 1_555 1_555
C6B C5 1_555 1_555
C5B C6 1_555 1_555
Ag2B N6B 1_555 1_555
O4A Ag2 1_555 1_555
Ag2A O4 1_555 1_555
N4A O6 1_555 1_555
O6A N4 1_555 1_555
N6B N5 1_555 1_555
N5B N6 1_555 1_555
C10B C9 1_555 1_555
C9B C10 1_555 1_555
C12B C11 1_555 1_555
C11B C12 1_555 1_555
O4B Ag2B 1_555 1_555
O4C Ag2B 1_555 1_555
O5B Ag2B 1_555 1_555
O6B Ag2B 1_555 1_555
C8B N6B 1_555 1_555
H11B C10B 1_555 1_555
H12B C10B 1_555 1_555
C7B N5B 1_555 1_555
H13B C11B 1_555 1_555
H14B C11B 1_555 1_555
H9B C9B 1_555 1_555
H10B C9B 1_555 1_555
H15B C12B 1_555 1_555
H16B C12B 1_555 1_555
Ag2A_2 O4A 1_555 1_555
O5A N4A 1_555 1_555
Ag1A_2 O1A 1_555 1_555
O2A N1A 1_555 1_555
C1B N2B 1_555 1_555
H5B C5B 1_555 1_555
H6B C5B 1_555 1_555
H1B C3B 1_555 1_555
H2B C3B 1_555 1_555
C2B N3B 1_555 1_555
H3B C4B 1_555 1_555
H4B C4B 1_555 1_555
H7B C6B 1_555 1_555
H8B C6B 1_555 1_555
O1B Ag1B 1_555 1_555
O1C Ag1B 1_555 1_555
O2B Ag1B 1_555 1_555
O3B Ag1B 1_555 1_555
Ag1B N2B 1_555 1_555
O1A N1A 1_555 1_555
Ag1A O3A 1_555 1_555
C4B C2B 1_555 1_555
C3B C1B 1_555 1_555
C6B C2B 1_555 1_555
C5B C1B 1_555 1_555
Ag2B N5B 1_555 1_555
O4A N4A 1_555 1_555
Ag2A O6A 1_555 1_555
C10B C8B 1_555 1_555
C9B C7B 1_555 1_555
C12B C8B 1_555 1_555
C11B C7B 1_555 1_555
Ag2A_2 O5A 1_555 1_555
Ag1A_2 O2A 1_555 1_555

#END
