
#######################################################################
#
#                 Cambridge Crystallographic Data Centre
#                                CCDC 
#
#######################################################################
#
# If this CIF has been generated from an entry in the Cambridge 
# Structural Database, then it will include bibliographic, chemical, 
# crystal, experimental, refinement or atomic coordinate data resulting 
# from the CCDC's data processing and validation procedures.
#
#######################################################################

data_FEJGAD
_symmetry_cell_setting           monoclinic
_symmetry_space_group_name_H-M   'C c'
_symmetry_Int_Tables_number      9
_space_group_name_Hall           'C -2yc'
loop_
_symmetry_equiv_pos_site_id
_symmetry_equiv_pos_as_xyz
1 x,y,z
2 x,-y,1/2+z
3 1/2+x,1/2+y,z
4 1/2+x,1/2-y,1/2+z
_cell_length_a                   15.869(4)
_cell_length_b                   11.845(3)
_cell_length_c                   13.295(3)
_cell_angle_alpha                90
_cell_angle_beta                 112.972(3)
_cell_angle_gamma                90
_cell_volume                     2300.85
loop_
_atom_site_label
_atom_site_type_symbol
_atom_site_fract_x
_atom_site_fract_y
_atom_site_fract_z
Sn1 Sn 0.0229(3) 0.22192(3) 0.7792(3)
Cl1 Cl 0.0730(4) 0.2215(5) 0.6191(4)
Cl2 Cl -0.0290(3) 0.2216(5) 0.9373(2)
N1 N 0.0174(15) 0.0232(4) 0.7802(17)
N2 N 0.0142(16) -0.5724(4) 0.780(2)
C1 C -0.0141(15) -0.0330(15) 0.8462(17)
C2 C -0.0137(16) -0.1534(13) 0.8394(17)
C3 C 0.028(2) -0.2125(5) 0.788(2)
C4 C 0.0652(17) -0.1500(19) 0.719(2)
C5 C 0.0606(8) -0.0377(12) 0.7237(11)
C6 C 0.0110(15) -0.5131(16) 0.6911(15)
C7 C 0.0046(15) -0.4005(18) 0.6818(18)
C8 C 0.026(2) -0.3384(5) 0.787(2)
C9 C 0.0311(16) -0.3978(15) 0.8713(18)
C10 C 0.0366(17) -0.5177(16) 0.8771(17)
C11 C 0.1684(14) 0.2449(17) 0.8962(19)
C12 C 0.2155(14) 0.125(2) 0.9240(19)
C13 C 0.2014(16) 0.0585(19) 1.0019(19)
C14 C 0.2401(14) -0.047(2) 1.0214(18)
C15 C 0.2862(18) -0.092(2) 0.968(3)
C16 C 0.3030(18) -0.023(3) 0.889(3)
C17 C 0.2666(15) 0.0866(18) 0.8725(19)
C18 C -0.1163(14) 0.2319(13) 0.6678(14)
C19 C -0.1666(13) 0.1278(19) 0.6390(15)
C20 C -0.2191(15) 0.096(2) 0.704(2)
C21 C -0.267(3) -0.012(4) 0.672(3)
C22 C -0.257(2) -0.076(3) 0.604(3)
C23 C -0.2018(18) -0.051(2) 0.535(3)
C24 C -0.1596(15) 0.057(2) 0.5609(18)
Sn1_2 Sn 0.0229(3) -0.77808(3) 0.7792(3)
N2_2 N 0.0142(16) 0.4276(4) 0.780(2)
loop_
_geom_bond_atom_site_label_1
_geom_bond_atom_site_label_2
_geom_bond_site_symmetry_1
_geom_bond_site_symmetry_2
Sn1 Cl1 1_555 1_555
Cl2 Sn1 1_555 1_555
N1 Sn1 1_555 1_555
N2 C6 1_555 1_555
C1 N1 1_555 1_555
C2 C1 1_555 1_555
C3 C2 1_555 1_555
C4 C3 1_555 1_555
C5 N1 1_555 1_555
C6 C7 1_555 1_555
C7 C8 1_555 1_555
C8 C3 1_555 1_555
C9 C8 1_555 1_555
C10 N2 1_555 1_555
C11 Sn1 1_555 1_555
C12 C11 1_555 1_555
C13 C12 1_555 1_555
C14 C13 1_555 1_555
C15 C14 1_555 1_555
C16 C15 1_555 1_555
C17 C12 1_555 1_555
C18 Sn1 1_555 1_555
C19 C18 1_555 1_555
C20 C19 1_555 1_555
C21 C20 1_555 1_555
C22 C21 1_555 1_555
C23 C22 1_555 1_555
C24 C19 1_555 1_555
Sn1_2 N2 1_555 1_555
N2_2 Sn1 1_555 1_555
C4 C5 1_555 1_555
C9 C10 1_555 1_555
C16 C17 1_555 1_555
C23 C24 1_555 1_555

#END
