
#######################################################################
#
#                 Cambridge Crystallographic Data Centre
#                                CCDC 
#
#######################################################################
#
# If this CIF has been generated from an entry in the Cambridge 
# Structural Database, then it will include bibliographic, chemical, 
# crystal, experimental, refinement or atomic coordinate data resulting 
# from the CCDC's data processing and validation procedures.
#
#######################################################################

data_FEJJUB
_symmetry_cell_setting           triclinic
_symmetry_space_group_name_H-M   'P -1'
_symmetry_Int_Tables_number      2
_space_group_name_Hall           '-P 1'
loop_
_symmetry_equiv_pos_site_id
_symmetry_equiv_pos_as_xyz
1 x,y,z
2 -x,-y,-z
_cell_length_a                   8.5249(12)
_cell_length_b                   9.6987(14)
_cell_length_c                   16.572(2)
_cell_angle_alpha                105.971(2)
_cell_angle_beta                 101.330(2)
_cell_angle_gamma                90.408(2)
_cell_volume                     1288.9
loop_
_atom_site_label
_atom_site_type_symbol
_atom_site_fract_x
_atom_site_fract_y
_atom_site_fract_z
Zn1 Zn 0.12360(5) 0.45405(5) 0.15736(3)
Zn2 Zn 0.37379(5) 1.48491(5) 0.87011(3)
N1 N 0.2633(4) 0.5289(3) 0.2773(2)
N2 N 0.3583(4) 0.9183(4) 0.5380(2)
N3 N 0.4425(4) 1.2869(4) 0.8090(2)
O1 O -0.3195(3) 1.4029(3) 0.21337(19)
O2 O -0.1094(4) 1.5604(4) 0.2681(2)
O3 O 0.3173(3) 0.4307(3) 0.10331(17)
O4 O 0.5045(3) 0.3635(3) 0.03038(17)
O5 O 0.1928(3) 0.4530(3) -0.07685(17)
O6 O -0.0591(3) 0.3651(3) -0.13088(18)
O7 O -0.1657(3) -0.1704(3) -0.1875(2)
O8 O 0.0150(3) -0.2843(3) -0.11796(18)
C1 C 0.2367(5) 0.6589(4) 0.3249(3)
H1 H 0.1525 0.7068 0.3024
C2 C 0.3277(5) 0.7267(4) 0.4061(2)
C3 C 0.4509(5) 0.6504(5) 0.4381(3)
H2 H 0.5138 0.6897 0.4925
C4 C 0.4796(5) 0.5172(5) 0.3894(3)
H3 H 0.5628 0.4667 0.4104
C5 C 0.3843(5) 0.4586(4) 0.3090(3)
H4 H 0.4044 0.3686 0.2762
C6 C 0.2907(5) 0.8709(4) 0.4541(2)
C7 C 0.1940(5) 0.9562(5) 0.4124(3)
H5 H 0.1541 0.9224 0.3536
C8 C 0.1570(5) 1.0888(4) 0.4567(3)
C9 C 0.2230(5) 1.1348(4) 0.5442(3)
H6 H 0.1989 1.2233 0.5771
C10 C 0.3247(5) 1.0492(4) 0.5827(2)
C11 C 0.3735(5) 1.2314(4) 0.7262(3)
H7 H 0.2997 1.2854 0.7012
C12 C 0.4040(5) 1.0994(4) 0.6749(2)
C13 C 0.5147(5) 1.0201(5) 0.7137(3)
H8 H 0.5397 0.9305 0.6826
C14 C 0.5868(5) 1.0763(5) 0.7990(3)
H9 H 0.6595 1.0236 0.8259
C15 C 0.5516(5) 1.2107(5) 0.8448(3)
H10 H 0.6046 1.2489 0.9016
C16 C 0.0582(5) 1.1821(5) 0.4120(3)
C17 C -0.0665(5) 1.1228(5) 0.3416(3)
H11 H -0.0927 1.0244 0.3247
C18 C -0.1513(5) 1.2098(5) 0.2969(3)
H12 H -0.2375 1.1700 0.2520
C19 C -0.1087(5) 1.3555(5) 0.3185(3)
C20 C 0.0126(5) 1.4151(5) 0.3892(3)
H13 H 0.0399 1.5133 0.4052
C21 C 0.0936(5) 1.3300(4) 0.4362(3)
H14 H 0.1726 1.3720 0.4845
C22 C -0.1841(5) 1.4468(5) 0.2636(3)
C23 C 0.3646(5) 0.3457(4) 0.0425(2)
C24 C 0.2640(4) 0.2139(4) -0.0126(2)
C25 C 0.1256(4) 0.2171(4) -0.0745(2)
C26 C 0.0846(5) 0.3545(4) -0.0959(2)
C27 C 0.0318(5) 0.0907(4) -0.1154(3)
H15 H -0.0607 0.0924 -0.1556
C28 C 0.0716(4) -0.0388(4) -0.0982(2)
C29 C 0.2128(5) -0.0410(4) -0.0402(3)
H16 H 0.2444 -0.1272 -0.0299
C30 C 0.3068(5) 0.0848(4) 0.0023(3)
H17 H 0.4003 0.0823 0.0415
C31 C -0.0377(5) -0.1735(4) -0.1389(3)
Zn1A Zn -0.12360(5) 0.54595(5) -0.15736(3)
Zn1A_2 Zn -0.12360(5) -0.45405(5) -0.15736(3)
Zn2A Zn -0.37379(5) 1.51509(5) 0.12989(3)
Zn2A_2 Zn 0.62621(5) 0.51509(5) 0.12989(3)
Zn2_2 Zn 0.37379(5) 0.48491(5) -0.12989(3)
O1A O 0.3195(3) 1.5971(3) 0.78663(19)
O4A O 0.4955(3) 1.6365(3) 0.96962(17)
O5_2 O 0.1928(3) 1.4530(3) 0.92315(17)
O6A O 0.0591(3) 0.6349(3) 0.13088(18)
O8A O -0.0150(3) 0.2843(3) 0.11796(18)
loop_
_geom_bond_atom_site_label_1
_geom_bond_atom_site_label_2
_geom_bond_site_symmetry_1
_geom_bond_site_symmetry_2
Zn1 N1 1_555 1_555
Zn2 N3 1_555 1_555
N1 C1 1_555 1_555
N2 C6 1_555 1_555
N3 C11 1_555 1_555
O1 C22 1_555 1_555
O2 C22 1_555 1_555
O3 Zn1 1_555 1_555
O4 C23 1_555 1_555
O5 C26 1_555 1_555
O6 C26 1_555 1_555
O7 C31 1_555 1_555
O8 C31 1_555 1_555
C1 H1 1_555 1_555
C2 C1 1_555 1_555
C3 C2 1_555 1_555
H2 C3 1_555 1_555
C4 C3 1_555 1_555
H3 C4 1_555 1_555
C5 N1 1_555 1_555
H4 C5 1_555 1_555
C6 C2 1_555 1_555
C7 C6 1_555 1_555
H5 C7 1_555 1_555
C8 C7 1_555 1_555
C9 C8 1_555 1_555
H6 C9 1_555 1_555
C10 N2 1_555 1_555
C11 H7 1_555 1_555
C12 C10 1_555 1_555
C13 C12 1_555 1_555
H8 C13 1_555 1_555
C14 C13 1_555 1_555
H9 C14 1_555 1_555
C15 N3 1_555 1_555
H10 C15 1_555 1_555
C16 C8 1_555 1_555
C17 C16 1_555 1_555
H11 C17 1_555 1_555
C18 C17 1_555 1_555
H12 C18 1_555 1_555
C19 C18 1_555 1_555
C20 C19 1_555 1_555
H13 C20 1_555 1_555
C21 C16 1_555 1_555
H14 C21 1_555 1_555
C22 C19 1_555 1_555
C23 O3 1_555 1_555
C24 C23 1_555 1_555
C25 C24 1_555 1_555
C26 C25 1_555 1_555
C27 C25 1_555 1_555
H15 C27 1_555 1_555
C28 C27 1_555 1_555
C29 C28 1_555 1_555
H16 C29 1_555 1_555
C30 C24 1_555 1_555
H17 C30 1_555 1_555
C31 C28 1_555 1_555
Zn1A O6 1_555 1_555
Zn1A_2 O8 1_555 1_555
Zn2A O1 1_555 1_555
Zn2A_2 O4 1_555 1_555
Zn2_2 O5 1_555 1_555
O1A Zn2 1_555 1_555
O4A Zn2 1_555 1_555
O5_2 Zn2 1_555 1_555
O6A Zn1 1_555 1_555
O8A Zn1 1_555 1_555
C4 C5 1_555 1_555
C9 C10 1_555 1_555
C11 C12 1_555 1_555
C14 C15 1_555 1_555
C20 C21 1_555 1_555
C29 C30 1_555 1_555

#END
