
#######################################################################
#
#                 Cambridge Crystallographic Data Centre
#                                CCDC 
#
#######################################################################
#
# If this CIF has been generated from an entry in the Cambridge 
# Structural Database, then it will include bibliographic, chemical, 
# crystal, experimental, refinement or atomic coordinate data resulting 
# from the CCDC's data processing and validation procedures.
#
#######################################################################

data_FEJKEM
_symmetry_cell_setting           orthorhombic
_symmetry_space_group_name_H-M   'P n a 21'
_symmetry_Int_Tables_number      33
_space_group_name_Hall           'P 2c -2n'
loop_
_symmetry_equiv_pos_site_id
_symmetry_equiv_pos_as_xyz
1 x,y,z
2 -x,-y,1/2+z
3 1/2-x,1/2+y,1/2+z
4 1/2+x,1/2-y,z
_cell_length_a                   17.5175(4)
_cell_length_b                   13.2828(3)
_cell_length_c                   8.1403(3)
_cell_angle_alpha                90
_cell_angle_beta                 90
_cell_angle_gamma                90
_cell_volume                     1894.1
loop_
_atom_site_label
_atom_site_type_symbol
_atom_site_fract_x
_atom_site_fract_y
_atom_site_fract_z
Hg1 Hg 0.661612(9) 0.227844(12) -0.00259(3)
Mn1 Mn 0.39588(4) 0.20908(5) 0.47668(12)
S1 S 0.16388(7) 0.38051(11) 0.25797(18)
S2 S 0.52354(10) 0.25608(17) -0.0705(2)
S3 S 0.29156(9) -0.11251(10) 0.25940(19)
S4 S 0.25601(9) 0.13071(10) 0.9997(3)
O1 O 0.50178(18) 0.1292(2) 0.5404(5)
H1 H 0.5070 0.1695 0.6208
N1 N 0.4487(2) 0.3524(3) 0.5692(5)
C1 C 0.5216(3) 0.3781(3) 0.5740(6)
N2 N 0.5285(2) 0.4706(3) 0.6445(6)
N3 N 0.3395(2) 0.1843(4) 0.7185(6)
N4 N 0.2979(2) 0.2995(3) 0.3889(6)
N5 N 0.4537(3) 0.2319(3) 0.2338(6)
N6 N 0.3450(2) 0.0681(3) 0.3959(6)
C2 C 0.4142(3) 0.4313(4) 0.6396(9)
H2 H 0.3615 0.4335 0.6529
N7 N 0.4580(3) 0.5056(4) 0.6891(8)
C3 C 0.5966(3) 0.5166(4) 0.6617(8)
H3 H 0.6008 0.5802 0.7085
C4 C 0.6576(3) 0.4664(5) 0.6087(9)
H4 H 0.7060 0.4948 0.6166
C5 C 0.6482(3) 0.3710(4) 0.5413(8)
H5 H 0.6917 0.3370 0.5067
N8 N 0.5821(2) 0.3258(3) 0.5234(7)
C6 C 0.3049(3) 0.1641(4) 0.8340(7)
C7 C 0.2431(3) 0.3326(3) 0.3334(6)
C8 C 0.4843(3) 0.2416(4) 0.1133(8)
C9 C 0.5140(4) 0.0303(4) 0.5913(10)
H6 H 0.4712 -0.0105 0.5600
H7 H 0.5198 0.0287 0.7085
H8 H 0.5595 0.0047 0.5403
C10 C 0.3239(3) -0.0068(4) 0.3408(6)
Hg1A Hg 0.338388(9) -0.227844(12) 0.49741(3)
Hg1C Hg 0.161612(9) 0.272156(12) -0.00259(3)
Hg1C_2 Hg 0.161612(9) 0.272156(12) 0.99741(3)
S1C S 0.66388(7) 0.11949(11) 0.25797(18)
S3A S 0.70844(9) 0.11251(10) -0.24060(19)
S4C S 0.75601(9) 0.36929(10) -0.0003(3)
loop_
_geom_bond_atom_site_label_1
_geom_bond_atom_site_label_2
_geom_bond_site_symmetry_1
_geom_bond_site_symmetry_2
Hg1 S2 1_555 1_555
Mn1 O1 1_555 1_555
S1 C7 1_555 1_555
S2 C8 1_555 1_555
S3 C10 1_555 1_555
S4 C6 1_555 1_555
O1 H1 1_555 1_555
N1 Mn1 1_555 1_555
C1 N1 1_555 1_555
N2 C1 1_555 1_555
N3 Mn1 1_555 1_555
N4 Mn1 1_555 1_555
N5 Mn1 1_555 1_555
N6 Mn1 1_555 1_555
C2 N1 1_555 1_555
H2 C2 1_555 1_555
N7 N2 1_555 1_555
C3 N2 1_555 1_555
H3 C3 1_555 1_555
C4 C3 1_555 1_555
H4 C4 1_555 1_555
C5 C4 1_555 1_555
H5 C5 1_555 1_555
N8 C1 1_555 1_555
C6 N3 1_555 1_555
C7 N4 1_555 1_555
C8 N5 1_555 1_555
C9 O1 1_555 1_555
H6 C9 1_555 1_555
H7 C9 1_555 1_555
H8 C9 1_555 1_555
C10 N6 1_555 1_555
Hg1A S3 1_555 1_555
Hg1C S1 1_555 1_555
Hg1C_2 S4 1_555 1_555
S1C Hg1 1_555 1_555
S3A Hg1 1_555 1_555
S4C Hg1 1_555 1_555
C2 N7 1_555 1_555
C5 N8 1_555 1_555

#END
