
#######################################################################
#
#                 Cambridge Crystallographic Data Centre
#                                CCDC 
#
#######################################################################
#
# If this CIF has been generated from an entry in the Cambridge 
# Structural Database, then it will include bibliographic, chemical, 
# crystal, experimental, refinement or atomic coordinate data resulting 
# from the CCDC's data processing and validation procedures.
#
#######################################################################

data_FEJNIS
_symmetry_cell_setting           monoclinic
_symmetry_space_group_name_H-M   'P 21/c'
_symmetry_Int_Tables_number      14
_space_group_name_Hall           '-P 2ybc'
loop_
_symmetry_equiv_pos_site_id
_symmetry_equiv_pos_as_xyz
1 x,y,z
2 -x,1/2+y,1/2-z
3 -x,-y,-z
4 x,1/2-y,1/2+z
_cell_length_a                   10.436(2)
_cell_length_b                   29.919(6)
_cell_length_c                   14.882(3)
_cell_angle_alpha                90
_cell_angle_beta                 99.47(3)
_cell_angle_gamma                90
_cell_volume                     4583.35
loop_
_atom_site_label
_atom_site_type_symbol
_atom_site_fract_x
_atom_site_fract_y
_atom_site_fract_z
Fe1 Fe 0.15966(11) 0.87539(4) 0.30531(8)
O1 O 0.1293(6) 0.89785(18) 0.1765(4)
O2 O 0.1012(5) 0.81879(17) 0.2392(4)
C1 C 0.0912(8) 0.8693(3) 0.1143(6)
C2 C 0.0722(7) 0.8213(3) 0.1512(6)
O3 O 0.0353(6) 0.7907(2) 0.1011(4)
O4 O 0.0685(7) 0.8764(2) 0.0321(4)
O5 O 0.2402(5) 0.93485(19) 0.3530(4)
O6 O 0.3480(6) 0.8605(2) 0.3183(4)
C3 C 0.3643(9) 0.9350(3) 0.3682(6)
C4 C 0.4277(8) 0.8900(3) 0.3480(6)
O7 O 0.5461(6) 0.8854(3) 0.3636(5)
O8 O 0.4338(7) 0.9673(3) 0.3925(6)
O9 O -0.0121(5) 0.8995(2) 0.3291(4)
O10 O 0.1488(6) 0.8456(2) 0.4253(4)
C5 C -0.0467(8) 0.8876(3) 0.4042(6)
C6 C 0.0478(9) 0.8538(3) 0.4595(6)
O11 O 0.0231(8) 0.8393(3) 0.5308(5)
O12 O -0.1458(6) 0.8998(3) 0.4329(5)
Na1 Na 0.6734(5) 0.9479(2) 0.4274(4)
O13 O 0.6565(12) 0.9423(5) 0.5844(9)
O14 O 0.812(2) 0.9792(8) 0.2926(16)
O15 O 0.863(2) 1.0110(8) 0.5191(16)
O12_2 O 0.8542(6) 0.8998(3) 0.4329(5)
Na1_2 Na -0.3266(5) 0.9479(2) 0.4274(4)
Fe2 Fe 0.57587(10) 0.64016(3) 0.38353(6)
N1 N 0.6876(6) 0.58938(18) 0.3612(4)
N2 N 0.4513(6) 0.59152(19) 0.3988(4)
C7 C 0.8103(7) 0.5890(3) 0.3437(5)
H1 H 0.8547 0.6159 0.3434
C8 C 0.8734(8) 0.5492(3) 0.3259(6)
H2 H 0.9578 0.5503 0.3135
C9 C 0.8135(9) 0.5095(3) 0.3265(6)
H3 H 0.8556 0.4833 0.3149
C10 C 0.6844(9) 0.5084(2) 0.3453(6)
C11 C 0.6112(10) 0.4675(3) 0.3497(6)
H4 H 0.6484 0.4401 0.3395
C12 C 0.4877(10) 0.4693(3) 0.3688(6)
H5 H 0.4415 0.4427 0.3694
C13 C 0.4267(8) 0.5099(3) 0.3878(5)
C14 C 0.3019(8) 0.5144(3) 0.4090(6)
H6 H 0.2502 0.4892 0.4107
C15 C 0.2551(8) 0.5554(3) 0.4273(6)
H7 H 0.1728 0.5581 0.4430
C16 C 0.3322(7) 0.5935(3) 0.4222(5)
H8 H 0.2996 0.6212 0.4355
C17 C 0.4974(7) 0.5504(2) 0.3836(5)
C18 C 0.6270(7) 0.5490(2) 0.3622(5)
N3 N 0.6372(5) 0.6412(2) 0.5158(4)
N4 N 0.4552(5) 0.68692(18) 0.4146(4)
C19 C 0.7370(7) 0.6199(3) 0.5654(5)
H9 H 0.7902 0.6023 0.5355
C20 C 0.7652(8) 0.6230(3) 0.6610(5)
H10 H 0.8355 0.6075 0.6931
C21 C 0.6895(8) 0.6486(3) 0.7059(5)
H11 H 0.7069 0.6505 0.7691
C22 C 0.5838(7) 0.6726(3) 0.6567(5)
C23 C 0.4972(8) 0.7014(3) 0.6965(5)
H12 H 0.5081 0.7045 0.7595
C24 C 0.4004(8) 0.7241(3) 0.6438(5)
H13 H 0.3441 0.7417 0.6712
C25 C 0.3837(7) 0.7213(3) 0.5462(5)
C26 C 0.2910(8) 0.7464(3) 0.4863(6)
H14 H 0.2353 0.7661 0.5091
C27 C 0.2851(8) 0.7412(3) 0.3948(6)
H15 H 0.2256 0.7578 0.3546
C28 C 0.3676(7) 0.7114(3) 0.3611(5)
H16 H 0.3611 0.7083 0.2983
C29 C 0.4644(7) 0.6925(2) 0.5062(4)
C30 C 0.5638(6) 0.6680(2) 0.5614(4)
N5 N 0.7041(5) 0.68507(18) 0.3582(4)
N6 N 0.5159(6) 0.6451(2) 0.2503(4)
C31 C 0.7970(7) 0.7068(2) 0.4144(5)
H17 H 0.8050 0.7010 0.4765
C32 C 0.8811(8) 0.7369(3) 0.3861(6)
H18 H 0.9438 0.7510 0.4284
C33 C 0.8719(8) 0.7463(3) 0.2946(6)
H19 H 0.9272 0.7671 0.2746
C34 C 0.7780(8) 0.7241(3) 0.2319(5)
C35 C 0.7591(10) 0.7298(3) 0.1343(6)
H20 H 0.8154 0.7484 0.1093
C36 C 0.6642(10) 0.7094(3) 0.0790(5)
H21 H 0.6550 0.7140 0.0165
C37 C 0.5747(9) 0.6800(3) 0.1150(5)
C38 C 0.4689(10) 0.6591(3) 0.0616(6)
H22 H 0.4530 0.6632 -0.0012
C39 C 0.3889(9) 0.6324(3) 0.1028(6)
H23 H 0.3173 0.6187 0.0682
C40 C 0.4155(8) 0.6257(3) 0.1979(5)
H24 H 0.3612 0.6071 0.2249
C41 C 0.5931(7) 0.6720(2) 0.2094(5)
C42 C 0.6956(7) 0.6943(2) 0.2671(5)
O16 O 0.1339(7) 0.7074(2) 0.1849(4)
H25 H 0.126(8) 0.6901(18) 0.130(3)
H26 H 0.109(8) 0.7362(11) 0.159(4)
O17 O 0.0665(10) 0.6463(3) 0.3204(8)
H27 H 0.073(10) 0.6293(19) 0.266(3)
H28 H 0.080(8) 0.6755(10) 0.297(4)
O18 O 0.8735(11) 0.8882(4) 0.6401(8)
O19 O 0.130(2) 0.9375(8) 0.6751(16)
O20 O -0.0449(17) 0.9641(6) 0.0495(11)
loop_
_geom_bond_atom_site_label_1
_geom_bond_atom_site_label_2
_geom_bond_site_symmetry_1
_geom_bond_site_symmetry_2
Fe1 O1 1_555 1_555
O1 C1 1_555 1_555
O2 Fe1 1_555 1_555
C1 C2 1_555 1_555
C2 O2 1_555 1_555
O3 C2 1_555 1_555
O4 C1 1_555 1_555
O5 Fe1 1_555 1_555
O6 Fe1 1_555 1_555
C3 O5 1_555 1_555
C4 O6 1_555 1_555
O7 C4 1_555 1_555
O8 C3 1_555 1_555
O9 Fe1 1_555 1_555
O10 Fe1 1_555 1_555
C5 O9 1_555 1_555
C6 O10 1_555 1_555
O11 C6 1_555 1_555
O12 C5 1_555 1_555
Na1 O7 1_555 1_555
Fe2 N1 1_555 1_555
N1 C7 1_555 1_555
N2 Fe2 1_555 1_555
C7 H1 1_555 1_555
C8 C7 1_555 1_555
H2 C8 1_555 1_555
C9 C8 1_555 1_555
H3 C9 1_555 1_555
C10 C9 1_555 1_555
C11 C10 1_555 1_555
H4 C11 1_555 1_555
C12 C11 1_555 1_555
H5 C12 1_555 1_555
C13 C12 1_555 1_555
C14 C13 1_555 1_555
H6 C14 1_555 1_555
C15 C14 1_555 1_555
H7 C15 1_555 1_555
C16 N2 1_555 1_555
H8 C16 1_555 1_555
C17 N2 1_555 1_555
C18 N1 1_555 1_555
N3 Fe2 1_555 1_555
N4 Fe2 1_555 1_555
C19 N3 1_555 1_555
H9 C19 1_555 1_555
C20 C19 1_555 1_555
H10 C20 1_555 1_555
C21 C20 1_555 1_555
H11 C21 1_555 1_555
C22 C21 1_555 1_555
C23 C22 1_555 1_555
H12 C23 1_555 1_555
C24 C23 1_555 1_555
H13 C24 1_555 1_555
C25 C24 1_555 1_555
C26 C25 1_555 1_555
H14 C26 1_555 1_555
C27 C26 1_555 1_555
H15 C27 1_555 1_555
C28 N4 1_555 1_555
H16 C28 1_555 1_555
C29 N4 1_555 1_555
C30 N3 1_555 1_555
N5 Fe2 1_555 1_555
N6 Fe2 1_555 1_555
C31 N5 1_555 1_555
H17 C31 1_555 1_555
C32 C31 1_555 1_555
H18 C32 1_555 1_555
C33 C32 1_555 1_555
H19 C33 1_555 1_555
C34 C33 1_555 1_555
C35 C34 1_555 1_555
H20 C35 1_555 1_555
C36 C35 1_555 1_555
H21 C36 1_555 1_555
C37 C36 1_555 1_555
C38 C37 1_555 1_555
H22 C38 1_555 1_555
C39 C38 1_555 1_555
H23 C39 1_555 1_555
C40 N6 1_555 1_555
H24 C40 1_555 1_555
C41 N6 1_555 1_555
C42 N5 1_555 1_555
O13 Na1 1_555 1_555
O14 Na1 1_555 1_555
O15 Na1 1_555 1_555
O16 H25 1_555 1_555
H26 O16 1_555 1_555
O17 H27 1_555 1_555
H28 O17 1_555 1_555
O12_2 Na1 1_555 1_555
Na1_2 O12 1_555 1_555
C3 C4 1_555 1_555
O8 Na1 1_555 1_555
C5 C6 1_555 1_555
C10 C18 1_555 1_555
C13 C17 1_555 1_555
C15 C16 1_555 1_555
C17 C18 1_555 1_555
C22 C30 1_555 1_555
C25 C29 1_555 1_555
C27 C28 1_555 1_555
C29 C30 1_555 1_555
C34 C42 1_555 1_555
C37 C41 1_555 1_555
C39 C40 1_555 1_555
C41 C42 1_555 1_555

#END
