
#######################################################################
#
#                 Cambridge Crystallographic Data Centre
#                                CCDC 
#
#######################################################################
#
# If this CIF has been generated from an entry in the Cambridge 
# Structural Database, then it will include bibliographic, chemical, 
# crystal, experimental, refinement or atomic coordinate data resulting 
# from the CCDC's data processing and validation procedures.
#
#######################################################################

data_FEJXEY
_symmetry_cell_setting           monoclinic
_symmetry_space_group_name_H-M   'C 2/c'
_symmetry_Int_Tables_number      15
_space_group_name_Hall           '-C 2yn'
loop_
_symmetry_equiv_pos_site_id
_symmetry_equiv_pos_as_xyz
1 x,y,z
2 1/2+x,1/2+y,z
3 -x,y,1/2-z
4 1/2-x,1/2+y,1/2-z
5 -x,-y,-z
6 1/2-x,1/2-y,-z
7 x,-y,1/2+z
8 1/2+x,1/2-y,1/2+z
_cell_length_a                   22.073(2)
_cell_length_b                   15.3244(16)
_cell_length_c                   16.0220(16)
_cell_angle_alpha                90
_cell_angle_beta                 125.849(2)
_cell_angle_gamma                90
_cell_volume                     4392.87
loop_
_atom_site_label
_atom_site_type_symbol
_atom_site_fract_x
_atom_site_fract_y
_atom_site_fract_z
Cu1 Cu 0.27120(5) 0.53189(6) 0.90461(7)
N1 N 0.2054(4) 0.6217(4) 0.9075(5)
N2 N -0.1478(3) 0.9590(5) 0.9139(4)
O1 O 0.2503(3) 0.5871(3) 0.7814(4)
O2 O 0.1654(4) 0.4843(4) 0.7203(5)
O3 O 0.3833(4) 0.4837(5) 0.6378(5)
O4 O 0.2760(3) 0.5382(4) 0.5069(4)
C1 C 0.1657(6) 0.6007(7) 0.9424(8)
H1 H 0.1712 0.5449 0.9689
C2 C 0.1165(6) 0.6575(7) 0.9413(9)
H2 H 0.0899 0.6400 0.9669
C3 C 0.1073(5) 0.7407(6) 0.9018(7)
C4 C 0.0553(5) 0.8065(7) 0.8974(7)
H3 H 0.0574 0.8636 0.8795
C5 C 0.0089(5) 0.7890(7) 0.9164(7)
H4 H 0.0076 0.7315 0.9339
C6 C -0.0450(5) 0.8518(6) 0.9137(6)
C7 C -0.0877(5) 0.8217(6) 0.9438(7)
H5 H -0.0827 0.7640 0.9650
C8 C -0.1377(4) 0.8751(6) 0.9433(6)
H6 H -0.1659 0.8523 0.9642
C9 C -0.1080(5) 0.9890(7) 0.8826(6)
H7 H -0.1150 1.0464 0.8598
C10 C -0.0551(5) 0.9369(7) 0.8825(7)
H8 H -0.0274 0.9605 0.8613
C11 C 0.1491(5) 0.7629(6) 0.8679(7)
H9 H 0.1455 0.8186 0.8423
C12 C 0.1966(5) 0.7026(5) 0.8719(7)
H10 H 0.2244 0.7194 0.8480
C13 C 0.1931(4) 0.5477(5) 0.7064(6)
C14 C 0.1595(4) 0.5810(5) 0.5990(6)
C15 C 0.1982(4) 0.6318(5) 0.5718(5)
C16 C 0.1601(5) 0.6576(5) 0.4693(6)
H11 H 0.1847 0.6910 0.4493
C17 C 0.0864(4) 0.6345(6) 0.3969(6)
H12 H 0.0620 0.6526 0.3290
C18 C 0.0488(5) 0.5847(6) 0.4250(7)
H13 H -0.0009 0.5695 0.3766
C19 C 0.0861(5) 0.5582(6) 0.5250(6)
H14 H 0.0612 0.5237 0.5437
C20 C 0.3335(5) 0.5373(6) 0.6004(7)
C21 C 0.3393(4) 0.6159(5) 0.6631(6)
C22 C 0.2777(4) 0.6592(5) 0.6479(5)
C23 C 0.2918(5) 0.7345(5) 0.7075(6)
H15 H 0.2517 0.7647 0.6983
C24 C 0.3629(6) 0.7643(6) 0.7784(7)
H16 H 0.3704 0.8153 0.8147
C25 C 0.4226(6) 0.7194(7) 0.7960(7)
H17 H 0.4710 0.7384 0.8462
C26 C 0.4108(4) 0.6459(6) 0.7390(6)
H18 H 0.4518 0.6154 0.7515
Cu1A Cu -0.22880(5) 1.03189(6) 0.90461(7)
Cu1F Cu 0.27120(5) 0.46811(6) 0.40461(7)
N2A N 0.3522(3) 0.4590(5) 0.9139(4)
O4F O 0.2760(3) 0.4618(4) 1.0069(4)
loop_
_geom_bond_atom_site_label_1
_geom_bond_atom_site_label_2
_geom_bond_site_symmetry_1
_geom_bond_site_symmetry_2
Cu1 N1 1_555 1_555
N1 C1 1_555 1_555
N2 C8 1_555 1_555
O1 Cu1 1_555 1_555
O2 C13 1_555 1_555
O3 C20 1_555 1_555
O4 C20 1_555 1_555
C1 H1 1_555 1_555
C2 C1 1_555 1_555
H2 C2 1_555 1_555
C3 C2 1_555 1_555
C4 C3 1_555 1_555
H3 C4 1_555 1_555
C5 C4 1_555 1_555
H4 C5 1_555 1_555
C6 C5 1_555 1_555
C7 C6 1_555 1_555
H5 C7 1_555 1_555
C8 C7 1_555 1_555
H6 C8 1_555 1_555
C9 N2 1_555 1_555
H7 C9 1_555 1_555
C10 C6 1_555 1_555
H8 C10 1_555 1_555
C11 C3 1_555 1_555
H9 C11 1_555 1_555
C12 N1 1_555 1_555
H10 C12 1_555 1_555
C13 O1 1_555 1_555
C14 C13 1_555 1_555
C15 C14 1_555 1_555
C16 C15 1_555 1_555
H11 C16 1_555 1_555
C17 C16 1_555 1_555
H12 C17 1_555 1_555
C18 C17 1_555 1_555
H13 C18 1_555 1_555
C19 C14 1_555 1_555
H14 C19 1_555 1_555
C20 C21 1_555 1_555
C21 C22 1_555 1_555
C22 C15 1_555 1_555
C23 C22 1_555 1_555
H15 C23 1_555 1_555
C24 C23 1_555 1_555
H16 C24 1_555 1_555
C25 C24 1_555 1_555
H17 C25 1_555 1_555
C26 C21 1_555 1_555
H18 C26 1_555 1_555
Cu1A N2 1_555 1_555
Cu1F O4 1_555 1_555
N2A Cu1 1_555 1_555
O4F Cu1 1_555 1_555
C9 C10 1_555 1_555
C11 C12 1_555 1_555
C18 C19 1_555 1_555
C25 C26 1_555 1_555

#END
