
#######################################################################
#
#                 Cambridge Crystallographic Data Centre
#                                CCDC 
#
#######################################################################
#
# If this CIF has been generated from an entry in the Cambridge 
# Structural Database, then it will include bibliographic, chemical, 
# crystal, experimental, refinement or atomic coordinate data resulting 
# from the CCDC's data processing and validation procedures.
#
#######################################################################

data_FEJXIC
_symmetry_cell_setting           monoclinic
_symmetry_space_group_name_H-M   'P 21/n'
_symmetry_Int_Tables_number      14
_space_group_name_Hall           '-P 2yn'
loop_
_symmetry_equiv_pos_site_id
_symmetry_equiv_pos_as_xyz
1 x,y,z
2 1/2-x,1/2+y,1/2-z
3 -x,-y,-z
4 1/2+x,1/2-y,1/2+z
_cell_length_a                   14.1063(9)
_cell_length_b                   7.6324(4)
_cell_length_c                   15.6342(10)
_cell_angle_alpha                90
_cell_angle_beta                 114.183(2)
_cell_angle_gamma                90
_cell_volume                     1535.54
loop_
_atom_site_label
_atom_site_type_symbol
_atom_site_fract_x
_atom_site_fract_y
_atom_site_fract_z
Cu1 Cu 0.85534(6) 0.77850(11) 0.34896(5)
O1 O 0.9771(6) 0.8274(10) 0.4934(6)
O2 O 0.9268(6) 1.0094(12) 0.2984(5)
O3 O 0.7978(4) 0.5499(7) 0.3946(3)
O4 O 0.7302(5) 0.7512(7) 0.2123(4)
O5 O 0.9411(4) 0.6275(7) 0.3083(3)
O6 O 1.0781(4) 0.5865(8) 0.4420(3)
O7 O 0.7322(4) 0.4461(6) 0.1207(3)
O8 O 0.8532(4) 0.2619(7) 0.1151(4)
C1 C 1.0274(5) 0.5596(9) 0.3558(4)
C2 C 1.0742(5) 0.4389(9) 0.3067(5)
C3 C 1.0496(5) 0.4543(9) 0.2101(5)
C4 C 1.0999(5) 0.3395(10) 0.1715(5)
H1 H 1.0868 0.3503 0.1083
C5 C 1.1679(6) 0.2117(12) 0.2241(6)
H2 H 1.1987 0.1363 0.1962
C6 C 1.1901(6) 0.1959(12) 0.3192(6)
H3 H 1.2355 0.1098 0.3553
C7 C 1.1436(6) 0.3108(10) 0.3594(6)
H4 H 1.1593 0.3019 0.4231
C8 C 0.8176(5) 0.4096(9) 0.1118(4)
C9 C 0.8725(5) 0.5682(9) 0.0977(4)
C10 C 0.9799(5) 0.5910(9) 0.1481(4)
C11 C 1.0236(6) 0.7488(11) 0.1397(6)
H5 H 1.0945 0.7660 0.1737
C12 C 0.9642(7) 0.8832(11) 0.0815(6)
H6 H 0.9947 0.9898 0.0785
C13 C 0.8588(6) 0.8553(10) 0.0280(5)
H7 H 0.8192 0.9405 -0.0140
C14 C 0.8133(6) 0.7014(10) 0.0373(5)
H8 H 0.7423 0.6851 0.0032
Cu1A Cu 0.64466(6) 0.27850(11) 0.15104(5)
O7A O 0.7678(4) 0.9461(6) 0.3793(3)
loop_
_geom_bond_atom_site_label_1
_geom_bond_atom_site_label_2
_geom_bond_site_symmetry_1
_geom_bond_site_symmetry_2
Cu1 O1 1_555 1_555
O2 Cu1 1_555 1_555
O3 Cu1 1_555 1_555
O4 Cu1 1_555 1_555
O5 Cu1 1_555 1_555
O6 C1 1_555 1_555
O7 C8 1_555 1_555
O8 C8 1_555 1_555
C1 O5 1_555 1_555
C2 C1 1_555 1_555
C3 C2 1_555 1_555
C4 C3 1_555 1_555
H1 C4 1_555 1_555
C5 C4 1_555 1_555
H2 C5 1_555 1_555
C6 C5 1_555 1_555
H3 C6 1_555 1_555
C7 C2 1_555 1_555
H4 C7 1_555 1_555
C8 C9 1_555 1_555
C9 C10 1_555 1_555
C10 C3 1_555 1_555
C11 C10 1_555 1_555
H5 C11 1_555 1_555
C12 C11 1_555 1_555
H6 C12 1_555 1_555
C13 C12 1_555 1_555
H7 C13 1_555 1_555
C14 C9 1_555 1_555
H8 C14 1_555 1_555
Cu1A O7 1_555 1_555
O7A Cu1 1_555 1_555
C6 C7 1_555 1_555
C13 C14 1_555 1_555

#END
