
#######################################################################
#
#                 Cambridge Crystallographic Data Centre
#                                CCDC 
#
#######################################################################
#
# If this CIF has been generated from an entry in the Cambridge 
# Structural Database, then it will include bibliographic, chemical, 
# crystal, experimental, refinement or atomic coordinate data resulting 
# from the CCDC's data processing and validation procedures.
#
#######################################################################

data_FEJYEZ
_symmetry_cell_setting           monoclinic
_symmetry_space_group_name_H-M   'C 2/c'
_symmetry_Int_Tables_number      15
_space_group_name_Hall           '-C 2yn'
loop_
_symmetry_equiv_pos_site_id
_symmetry_equiv_pos_as_xyz
1 x,y,z
2 1/2+x,1/2+y,z
3 -x,y,1/2-z
4 1/2-x,1/2+y,1/2-z
5 -x,-y,-z
6 1/2-x,1/2-y,-z
7 x,-y,1/2+z
8 1/2+x,1/2-y,1/2+z
_cell_length_a                   9.3968(8)
_cell_length_b                   11.5836(4)
_cell_length_c                   13.1449(7)
_cell_angle_alpha                90
_cell_angle_beta                 97.382(6)
_cell_angle_gamma                90
_cell_volume                     1418.95
loop_
_atom_site_label
_atom_site_type_symbol
_atom_site_fract_x
_atom_site_fract_y
_atom_site_fract_z
Mn1 Mn 0.2500 0.2500 0.5000
O1 O 0.26510(16) 0.32119(15) 0.34559(12)
N1 N 0.38257(19) 0.32353(17) 0.30023(14)
N2 N 0.2436(2) 0.07023(18) 0.44215(17)
N3 N 0.2840(2) -0.13775(19) 0.4334(2)
N4 N 0.5179(2) -0.23269(19) 0.46930(19)
C1 C 0.4415(3) 0.2229(2) 0.27493(19)
H1 H 0.4014 0.1532 0.2919
C2 C 0.4411(2) 0.4261(2) 0.27756(16)
C3 C 0.3775(3) 0.5333(2) 0.3132(2)
H2 H 0.2979 0.5141 0.3491
H3 H 0.3448 0.5811 0.2553
H4 H 0.4485 0.5742 0.3585
C4 C 0.2697(2) -0.0268(2) 0.44045(18)
C5 C 0.4112(2) -0.1845(2) 0.45409(19)
Mn1A Mn 0.7500 -0.2500 0.5000
Mn1G Mn 0.7500 0.2500 0.0000
Mn1A_2 Mn -0.2500 0.7500 0.5000
O1B O 0.73490(16) 0.32119(15) 0.15441(12)
O1E O 0.23490(16) 0.17881(15) 0.65441(12)
N1B N 0.61743(19) 0.32353(17) 0.19977(14)
N2E N 0.2564(2) 0.42977(18) 0.55785(17)
N3E N 0.2160(2) 0.63775(19) 0.5666(2)
N4E N -0.0179(2) 0.73269(19) 0.53070(19)
N4A N 0.0179(2) 0.26731(19) 0.46930(19)
N4D N 0.4821(2) 0.23269(19) 0.53070(19)
C1B C 0.5585(3) 0.2229(2) 0.22507(19)
H1B H 0.5986 0.1532 0.2081
C2B C 0.5589(2) 0.4261(2) 0.22244(16)
C3B C 0.6225(3) 0.5333(2) 0.1868(2)
H2B H 0.7021 0.5141 0.1509
H3B H 0.6552 0.5811 0.2447
H4B H 0.5515 0.5742 0.1415
C4E C 0.2303(2) 0.5268(2) 0.55955(18)
C5E C 0.0888(2) 0.6845(2) 0.54591(19)
O2 O 0.0000 0.4512(3) 0.2500
H5 H 0.083(4) 0.408(4) 0.277(4)
H5B H -0.083(4) 0.408(4) 0.223(4)
H6? H 0.034(13) 0.50(3) 0.20(3)
loop_
_geom_bond_atom_site_label_1
_geom_bond_atom_site_label_2
_geom_bond_site_symmetry_1
_geom_bond_site_symmetry_2
Mn1 O1 1_555 1_555
O1 N1 1_555 1_555
O2 H5 1_555 1_555
N1 C1 1_555 1_555
N2 Mn1 1_555 1_555
N3 C4 1_555 1_555
N4 C5 1_555 1_555
C1 H1 1_555 1_555
C2 N1 1_555 1_555
C3 C2 1_555 1_555
H2 C3 1_555 1_555
H3 C3 1_555 1_555
H4 C3 1_555 1_555
C4 N2 1_555 1_555
C5 N3 1_555 1_555
Mn1A N4 1_555 1_555
Mn1G O1B 1_555 1_555
Mn1A_2 N4E 1_555 1_555
O1B N1B 1_555 1_555
O1E Mn1 1_555 1_555
N1B C1B 1_555 1_555
N2E Mn1 1_555 1_555
N3E C4E 1_555 1_555
N4E C5E 1_555 1_555
N4A Mn1 1_555 1_555
N4D Mn1 1_555 1_555
C1B C1 1_555 1_555
H1B C1B 1_555 1_555
C2B C2 1_555 1_555
C3B C2B 1_555 1_555
H2B C3B 1_555 1_555
H3B C3B 1_555 1_555
H4B C3B 1_555 1_555
C4E N2E 1_555 1_555
C5E N3E 1_555 1_555
H5B O2 1_555 1_555
N1B C2B 1_555 1_555

#END
