
#######################################################################
#
#                 Cambridge Crystallographic Data Centre
#                                CCDC 
#
#######################################################################
#
# If this CIF has been generated from an entry in the Cambridge 
# Structural Database, then it will include bibliographic, chemical, 
# crystal, experimental, refinement or atomic coordinate data resulting 
# from the CCDC's data processing and validation procedures.
#
#######################################################################

data_FEJYID03
_symmetry_cell_setting           monoclinic
_symmetry_space_group_name_H-M   'C 2/c'
_symmetry_Int_Tables_number      15
_space_group_name_Hall           '-C 2yn'
loop_
_symmetry_equiv_pos_site_id
_symmetry_equiv_pos_as_xyz
1 x,y,z
2 -x,y,1/2-z
3 1/2+x,1/2+y,z
4 1/2-x,1/2+y,1/2-z
5 -x,-y,-z
6 x,-y,1/2+z
7 1/2-x,1/2-y,-z
8 1/2+x,1/2-y,1/2+z
_cell_length_a                   21.709(3)
_cell_length_b                   6.5930(3)
_cell_length_c                   15.9532(19)
_cell_angle_alpha                90
_cell_angle_beta                 133.85(2)
_cell_angle_gamma                90
_cell_volume                     1646.64
loop_
_atom_site_label
_atom_site_type_symbol
_atom_site_fract_x
_atom_site_fract_y
_atom_site_fract_z
Cd1 Cd 0.5000 0.54735(3) -0.2500
S1 S 0.61247(4) 0.01417(10) 0.08459(6)
O1 O 0.55884(11) 0.5536(2) -0.05610(15)
O2 O 0.53541(12) 0.2502(2) -0.12935(15)
N1 N 0.86227(12) -0.0322(3) 0.17591(17)
C1 C 0.55865(13) 0.3648(4) -0.04944(19)
C2 C 0.58541(14) 0.2780(3) 0.0595(2)
H1 H 0.5392 0.2988 0.0556
H2 H 0.6344 0.3539 0.1258
C3 C 0.70663(14) 0.0075(4) 0.1145(2)
C4 C 0.73754(15) -0.1807(4) 0.1193(2)
H3 H 0.7066 -0.2976 0.1020
C5 C 0.81424(15) -0.1938(4) 0.1497(2)
H4 H 0.8337 -0.3215 0.1522
C6 C 0.83122(16) 0.1464(4) 0.1690(3)
H5 H 0.8633 0.2609 0.1861
C7 C 0.75533(16) 0.1753(4) 0.1385(3)
H6 H 0.7367 0.3055 0.1340
O3 O 0.5000 0.8992(4) -0.2500
H7 H 0.491(2) 0.976(4) -0.297(3)
Cd1F Cd 0.0000 -0.04735(3) -0.7500
Cd1F_2 Cd 1.0000 -0.04735(3) 0.2500
S1A S 0.38753(4) 0.01417(10) -0.58459(6)
O1A O 0.44116(11) 0.5536(2) -0.44390(15)
O2A O 0.46459(12) 0.2502(2) -0.37065(15)
N1A N 0.13773(12) -0.0322(3) -0.67591(17)
N1F N 0.63773(12) 0.5322(3) -0.17591(17)
N1G N 0.36227(12) 0.5322(3) -0.32409(17)
C1A C 0.44135(13) 0.3648(4) -0.45056(19)
C2A C 0.41459(14) 0.2780(3) -0.5595(2)
H1A H 0.4608 0.2988 -0.5556
H2A H 0.3656 0.3539 -0.6258
C3A C 0.29337(14) 0.0075(4) -0.6145(2)
C4A C 0.26246(15) -0.1807(4) -0.6193(2)
H3A H 0.2934 -0.2976 -0.6020
C5A C 0.18576(15) -0.1938(4) -0.6497(2)
H4A H 0.1663 -0.3215 -0.6522
C6A C 0.16878(16) 0.1464(4) -0.6690(3)
H5A H 0.1367 0.2609 -0.6861
C7A C 0.24467(16) 0.1753(4) -0.6385(3)
H6A H 0.2633 0.3055 -0.6340
H7A H 0.509(2) 0.976(4) -0.203(3)
loop_
_geom_bond_atom_site_label_1
_geom_bond_atom_site_label_2
_geom_bond_site_symmetry_1
_geom_bond_site_symmetry_2
Cd1 O1 1_555 1_555
S1 C2 1_555 1_555
O1 C1 1_555 1_555
O2 Cd1 1_555 1_555
N1 C5 1_555 1_555
C1 O2 1_555 1_555
C2 C1 1_555 1_555
H1 C2 1_555 1_555
H2 C2 1_555 1_555
C3 S1 1_555 1_555
C4 C3 1_555 1_555
H3 C4 1_555 1_555
C5 C4 1_555 1_555
H4 C5 1_555 1_555
C6 N1 1_555 1_555
H5 C6 1_555 1_555
C7 C3 1_555 1_555
H6 C7 1_555 1_555
O3 Cd1 1_555 1_555
H7 O3 1_555 1_555
Cd1F N1A 1_555 1_555
Cd1F_2 N1 1_555 1_555
S1A C2A 1_555 1_555
O1A Cd1 1_555 1_555
O2A Cd1 1_555 1_555
N1A C5A 1_555 1_555
N1F Cd1 1_555 1_555
N1G Cd1 1_555 1_555
C1A O1A 1_555 1_555
C2A C1A 1_555 1_555
H1A C2A 1_555 1_555
H2A C2A 1_555 1_555
C3A S1A 1_555 1_555
C4A C3A 1_555 1_555
H3A C4A 1_555 1_555
C5A C4A 1_555 1_555
H4A C5A 1_555 1_555
C6A N1A 1_555 1_555
H5A C6A 1_555 1_555
C7A C3A 1_555 1_555
H6A C7A 1_555 1_555
H7A O3 1_555 1_555
C6 C7 1_555 1_555
O2A C1A 1_555 1_555
C6A C7A 1_555 1_555

#END
