
#######################################################################
#
#                 Cambridge Crystallographic Data Centre
#                                CCDC 
#
#######################################################################
#
# If this CIF has been generated from an entry in the Cambridge 
# Structural Database, then it will include bibliographic, chemical, 
# crystal, experimental, refinement or atomic coordinate data resulting 
# from the CCDC's data processing and validation procedures.
#
#######################################################################

data_FEJYID02
_symmetry_cell_setting           triclinic
_symmetry_space_group_name_H-M   'P -1'
_symmetry_Int_Tables_number      2
_space_group_name_Hall           '-P 1'
loop_
_symmetry_equiv_pos_site_id
_symmetry_equiv_pos_as_xyz
1 x,y,z
2 -x,-y,-z
_cell_length_a                   6.8949(13)
_cell_length_b                   11.328(4)
_cell_length_c                   11.937(3)
_cell_angle_alpha                84.467(3)
_cell_angle_beta                 73.957(5)
_cell_angle_gamma                73.105(3)
_cell_volume                     857.229
loop_
_atom_site_label
_atom_site_type_symbol
_atom_site_fract_x
_atom_site_fract_y
_atom_site_fract_z
Cd1 Cd 0.29758(4) -0.25001(2) 0.24999(2)
S1 S -0.01323(14) -0.35982(8) -0.08453(8)
S2 S -0.45769(13) -0.14023(8) 0.58448(8)
O1 O 0.4387(4) -0.3261(2) 0.0556(2)
O2 O 0.0850(4) -0.2994(2) 0.1293(2)
O3 O -0.0850(4) -0.2005(2) 0.3705(2)
O4 O 0.1686(4) -0.1734(2) 0.4442(2)
O5 O 0.6494(4) -0.2501(3) 0.2499(3)
H1 H 0.682(6) -0.226(4) 0.306(2)
H2 H 0.760(3) -0.276(3) 0.196(2)
N1 N -0.2193(4) 0.0488(2) -0.1762(2)
N2 N -0.3469(4) -0.5487(2) 0.6759(2)
C1 C 0.2560(5) -0.3330(3) 0.0501(3)
C2 C 0.2523(5) -0.3885(3) -0.0598(3)
H3 H 0.3146 -0.4769 -0.0567
H4 H 0.3397 -0.3556 -0.1263
C3 C -0.0853(5) -0.2007(3) -0.1147(3)
C4 C 0.0580(6) -0.1283(3) -0.1389(4)
H5 H 0.1959 -0.1617 -0.1344
C5 C -0.0149(6) -0.0066(3) -0.1694(4)
H6 H 0.0785 0.0416 -0.1866
C6 C -0.2992(5) -0.1442(3) -0.1187(3)
H7 H -0.3965 -0.1899 -0.1003
C7 C -0.3574(5) -0.0218(3) -0.1502(3)
H8 H -0.4951 0.0144 -0.1541
C8 C -0.0268(5) -0.1669(3) 0.4504(3)
C9 C -0.1958(5) -0.1111(3) 0.5598(3)
H9 H -0.2161 -0.0226 0.5562
H10 H -0.1425 -0.1427 0.6272
C10 C -0.4007(5) -0.2991(3) 0.6146(3)
C11 C -0.5621(5) -0.3561(3) 0.6192(3)
H11 H -0.6866 -0.3111 0.6017
C12 C -0.5295(5) -0.4786(3) 0.6499(3)
H12 H -0.6346 -0.5159 0.6533
C13 C -0.2087(6) -0.3720(3) 0.6386(4)
H13 H -0.0993 -0.3377 0.6337
C14 C -0.1903(6) -0.4942(3) 0.6690(4)
H14 H -0.0664 -0.5419 0.6855
Cd1A Cd -0.29758(4) 0.25001(2) -0.24999(2)
Cd1A_2 Cd -0.29758(4) -0.74999(2) 0.75001(2)
N1A N 0.2193(4) -0.0488(2) 0.1762(2)
N2A N 0.3469(4) -0.4513(2) 0.3241(2)
loop_
_geom_bond_atom_site_label_1
_geom_bond_atom_site_label_2
_geom_bond_site_symmetry_1
_geom_bond_site_symmetry_2
Cd1 O1 1_555 1_555
S1 C2 1_555 1_555
S2 C9 1_555 1_555
O1 C1 1_555 1_555
O2 Cd1 1_555 1_555
O3 Cd1 1_555 1_555
O4 Cd1 1_555 1_555
O5 Cd1 1_555 1_555
H1 O5 1_555 1_555
H2 O5 1_555 1_555
N1 C5 1_555 1_555
N2 C12 1_555 1_555
C1 O2 1_555 1_555
C2 C1 1_555 1_555
H3 C2 1_555 1_555
H4 C2 1_555 1_555
C3 S1 1_555 1_555
C4 C3 1_555 1_555
H5 C4 1_555 1_555
C5 C4 1_555 1_555
H6 C5 1_555 1_555
C6 C3 1_555 1_555
H7 C6 1_555 1_555
C7 N1 1_555 1_555
H8 C7 1_555 1_555
C8 O3 1_555 1_555
C9 C8 1_555 1_555
H9 C9 1_555 1_555
H10 C9 1_555 1_555
C10 S2 1_555 1_555
C11 C10 1_555 1_555
H11 C11 1_555 1_555
C12 C11 1_555 1_555
H12 C12 1_555 1_555
C13 C10 1_555 1_555
H13 C13 1_555 1_555
C14 N2 1_555 1_555
H14 C14 1_555 1_555
Cd1A N1 1_555 1_555
Cd1A_2 N2 1_555 1_555
N1A Cd1 1_555 1_555
N2A Cd1 1_555 1_555
O4 C8 1_555 1_555
C6 C7 1_555 1_555
C13 C14 1_555 1_555

#END
