
#######################################################################
#
#                 Cambridge Crystallographic Data Centre
#                                CCDC 
#
#######################################################################
#
# If this CIF has been generated from an entry in the Cambridge 
# Structural Database, then it will include bibliographic, chemical, 
# crystal, experimental, refinement or atomic coordinate data resulting 
# from the CCDC's data processing and validation procedures.
#
#######################################################################

data_FEKBUT
_symmetry_cell_setting           monoclinic
_symmetry_space_group_name_H-M   'P 21/n'
_symmetry_Int_Tables_number      14
_space_group_name_Hall           '-P 2yn'
loop_
_symmetry_equiv_pos_site_id
_symmetry_equiv_pos_as_xyz
1 x,y,z
2 1/2-x,1/2+y,1/2-z
3 -x,-y,-z
4 1/2+x,1/2-y,1/2+z
_cell_length_a                   7.2914(4)
_cell_length_b                   18.1119(10)
_cell_length_c                   12.9448(7)
_cell_angle_alpha                90
_cell_angle_beta                 98.3650(10)
_cell_angle_gamma                90
_cell_volume                     1691.32
loop_
_atom_site_label
_atom_site_type_symbol
_atom_site_fract_x
_atom_site_fract_y
_atom_site_fract_z
Cu1 Cu 0.68674(3) 0.234891(10) 0.560358(14)
V1 V 0.97014(3) 0.130211(14) 0.75232(2)
P1 P 0.57956(5) 0.07903(2) 0.62952(3)
O1 O 0.85205(16) 0.20522(6) 0.71191(9)
O2 O 0.54314(15) 0.14660(6) 0.56048(9)
O3 O 0.78311(15) 0.06227(6) 0.66496(9)
O4 O 0.48364(16) 0.08377(7) 0.73013(9)
H1 H 0.3683 0.0868 0.7129
O5 O 0.91310(16) 0.10563(6) 0.86432(9)
F1 F 1.13032(13) 0.06872(6) 0.68556(8)
F2 F 1.19061(14) 0.17794(6) 0.79972(8)
N1 N 0.50486(18) 0.30241(7) 0.61799(10)
N2 N 0.79016(18) 0.32944(7) 0.53263(10)
N3 N 0.89502(18) 0.20179(7) 0.48035(10)
C1 C 0.3585(2) 0.28127(9) 0.66217(12)
H2 H 0.3308 0.2301 0.6651
C2 C 0.2452(2) 0.33181(9) 0.70409(13)
H3 H 0.1424 0.3155 0.7354
C3 C 0.2862(2) 0.40646(9) 0.69904(13)
H4 H 0.2107 0.4421 0.7264
C4 C 0.4392(2) 0.42869(9) 0.65348(12)
H5 H 0.4694 0.4795 0.6494
C5 C 0.5462(2) 0.37533(8) 0.61440(12)
C6 C 0.7148(2) 0.39083(8) 0.56612(12)
C7 C 0.7941(2) 0.45958(8) 0.55496(12)
H6 H 0.7418 0.5029 0.5801
C8 C 0.9534(2) 0.46383(8) 0.50562(12)
C9 C 1.0236(2) 0.39900(8) 0.46762(12)
H7 H 1.1282 0.4007 0.4317
C10 C 0.9382(2) 0.33215(8) 0.48307(12)
C11 C 0.9980(2) 0.25856(8) 0.45200(12)
C12 C 1.1494(2) 0.24711(9) 0.40001(12)
H8 H 1.2195 0.2876 0.3804
C13 C 1.1961(2) 0.17508(9) 0.37736(13)
H9 H 1.2988 0.1658 0.3417
C14 C 1.0920(2) 0.11674(9) 0.40705(12)
H10 H 1.1223 0.0672 0.3924
C15 C 0.9424(2) 0.13266(8) 0.45871(12)
H11 H 0.8710 0.0929 0.4795
C16 C 0.4714(2) 0.00301(8) 0.55467(12)
H12 H 0.5045 -0.0435 0.5932
H13 H 0.3352 0.0088 0.5475
Cu1B Cu 0.31326(3) -0.234891(10) 0.439642(14)
Cu1B_2 Cu 1.31326(3) 0.765109(10) 0.439642(14)
V1B V 0.02986(3) -0.130211(14) 0.24768(2)
P1B P 0.42044(5) -0.07903(2) 0.37048(3)
O1B O 0.14795(16) -0.20522(6) 0.28809(9)
O2B O 0.45686(15) -0.14660(6) 0.43952(9)
O3B O 0.21689(15) -0.06227(6) 0.33504(9)
O4B O 0.51636(16) -0.08377(7) 0.26987(9)
H1B H 0.6317 -0.0868 0.2871
O5B O 0.08690(16) -0.10563(6) 0.13568(9)
F1B F -0.13032(13) -0.06872(6) 0.31444(8)
F2B F -0.19061(14) -0.17794(6) 0.20028(8)
N1B N 1.49514(18) 0.69759(7) 0.38201(10)
N1B_2 N 0.49514(18) -0.30241(7) 0.38201(10)
N2B N 1.20984(18) 0.67056(7) 0.46737(10)
N2B_2 N 0.20984(18) -0.32944(7) 0.46737(10)
N3B N 1.10498(18) 0.79821(7) 0.51965(10)
N3B_2 N 0.10498(18) -0.20179(7) 0.51965(10)
C1B C 1.6415(2) 0.71873(9) 0.33783(12)
H2B H 1.6692 0.7699 0.3349
C2B C 1.7548(2) 0.66819(9) 0.29591(13)
H3B H 1.8576 0.6845 0.2646
C3B C 1.7138(2) 0.59354(9) 0.30096(13)
H4B H 1.7893 0.5579 0.2736
C4B C 1.5608(2) 0.57131(9) 0.34652(12)
H5B H 1.5306 0.5205 0.3506
C5B C 1.4538(2) 0.62467(8) 0.38560(12)
C6B C 1.2852(2) 0.60917(8) 0.43388(12)
C7B C 1.2059(2) 0.54042(8) 0.44504(12)
H6B H 1.2582 0.4971 0.4199
C8B C 1.0466(2) 0.53617(8) 0.49438(12)
C9B C 0.9764(2) 0.60100(8) 0.53238(12)
H7B H 0.8718 0.5993 0.5683
C10B C 1.0618(2) 0.66785(8) 0.51693(12)
C11B C 1.0020(2) 0.74144(8) 0.54800(12)
C12B C 0.8506(2) 0.75289(9) 0.59999(12)
H8B H 0.7805 0.7124 0.6196
C13B C 0.8039(2) 0.82492(9) 0.62264(13)
H9B H 0.7012 0.8342 0.6583
C14B C 0.9080(2) 0.88326(9) 0.59295(12)
H10B H 0.8777 0.9328 0.6076
C15B C 1.0576(2) 0.86734(8) 0.54129(12)
H11B H 1.1290 0.9071 0.5205
C16B C 0.5286(2) -0.00301(8) 0.44533(12)
H12B H 0.4955 0.0435 0.4068
H13B H 0.6648 -0.0088 0.4525
loop_
_geom_bond_atom_site_label_1
_geom_bond_atom_site_label_2
_geom_bond_site_symmetry_1
_geom_bond_site_symmetry_2
Cu1 O1 1_555 1_555
V1 O1 1_555 1_555
P1 O2 1_555 1_555
O2 Cu1 1_555 1_555
O3 V1 1_555 1_555
O4 P1 1_555 1_555
H1 O4 1_555 1_555
O5 V1 1_555 1_555
F1 V1 1_555 1_555
F2 V1 1_555 1_555
N1 Cu1 1_555 1_555
N2 Cu1 1_555 1_555
N3 Cu1 1_555 1_555
C1 N1 1_555 1_555
H2 C1 1_555 1_555
C2 C1 1_555 1_555
H3 C2 1_555 1_555
C3 C2 1_555 1_555
H4 C3 1_555 1_555
C4 C3 1_555 1_555
H5 C4 1_555 1_555
C5 N1 1_555 1_555
C6 N2 1_555 1_555
C7 C6 1_555 1_555
H6 C7 1_555 1_555
C8 C7 1_555 1_555
C9 C8 1_555 1_555
H7 C9 1_555 1_555
C10 N2 1_555 1_555
C11 N3 1_555 1_555
C12 C11 1_555 1_555
H8 C12 1_555 1_555
C13 C12 1_555 1_555
H9 C13 1_555 1_555
C14 C13 1_555 1_555
H10 C14 1_555 1_555
C15 N3 1_555 1_555
H11 C15 1_555 1_555
C16 P1 1_555 1_555
H12 C16 1_555 1_555
H13 C16 1_555 1_555
Cu1B O1B 1_555 1_555
Cu1B_2 N1B 1_555 1_555
V1B O1B 1_555 1_555
P1B O2B 1_555 1_555
O2B Cu1B 1_555 1_555
O3B V1B 1_555 1_555
O4B P1B 1_555 1_555
H1B O4B 1_555 1_555
O5B V1B 1_555 1_555
F1B V1B 1_555 1_555
F2B V1B 1_555 1_555
N1B C1B 1_555 1_555
N1B_2 Cu1B 1_555 1_555
N2B Cu1B_2 1_555 1_555
N2B_2 Cu1B 1_555 1_555
N3B Cu1B_2 1_555 1_555
N3B_2 Cu1B 1_555 1_555
C1B H2B 1_555 1_555
C2B C1B 1_555 1_555
H3B C2B 1_555 1_555
C3B C2B 1_555 1_555
H4B C3B 1_555 1_555
C4B C3B 1_555 1_555
H5B C4B 1_555 1_555
C5B N1B 1_555 1_555
C6B N2B 1_555 1_555
C7B C6B 1_555 1_555
H6B C7B 1_555 1_555
C8B C8 1_555 1_555
C9B C8B 1_555 1_555
H7B C9B 1_555 1_555
C10B N2B 1_555 1_555
C11B N3B 1_555 1_555
C12B C11B 1_555 1_555
H8B C12B 1_555 1_555
C13B C12B 1_555 1_555
H9B C13B 1_555 1_555
C14B C13B 1_555 1_555
H10B C14B 1_555 1_555
C15B N3B 1_555 1_555
H11B C15B 1_555 1_555
C16B C16 1_555 1_555
H12B C16B 1_555 1_555
H13B C16B 1_555 1_555
P1 O3 1_555 1_555
C4 C5 1_555 1_555
C5 C6 1_555 1_555
C9 C10 1_555 1_555
C10 C11 1_555 1_555
C14 C15 1_555 1_555
P1B O3B 1_555 1_555
P1B C16B 1_555 1_555
C4B C5B 1_555 1_555
C5B C6B 1_555 1_555
C7B C8B 1_555 1_555
C9B C10B 1_555 1_555
C10B C11B 1_555 1_555
C14B C15B 1_555 1_555

#END
