
#######################################################################
#
#                 Cambridge Crystallographic Data Centre
#                                CCDC 
#
#######################################################################
#
# If this CIF has been generated from an entry in the Cambridge 
# Structural Database, then it will include bibliographic, chemical, 
# crystal, experimental, refinement or atomic coordinate data resulting 
# from the CCDC's data processing and validation procedures.
#
#######################################################################

data_FEKCII
_symmetry_cell_setting           triclinic
_symmetry_space_group_name_H-M   'P -1'
_symmetry_Int_Tables_number      2
_space_group_name_Hall           '-P 1'
loop_
_symmetry_equiv_pos_site_id
_symmetry_equiv_pos_as_xyz
1 x,y,z
2 -x,-y,-z
_cell_length_a                   10.8333(7)
_cell_length_b                   13.7289(9)
_cell_length_c                   15.8044(10)
_cell_angle_alpha                74.1160(10)
_cell_angle_beta                 71.5670(10)
_cell_angle_gamma                71.0580(10)
_cell_volume                     2070.54
loop_
_atom_site_label
_atom_site_type_symbol
_atom_site_fract_x
_atom_site_fract_y
_atom_site_fract_z
Cu1 Cu 0.68038(5) 0.43140(4) 0.51437(3)
Cu2 Cu 0.83108(5) 0.11018(4) 1.10222(3)
V1 V 0.88122(7) 0.17433(5) 0.57176(5)
V2 V 0.70180(8) 0.50932(6) 0.95919(5)
P1 P 0.57051(12) 0.26866(9) 0.67964(7)
P2 P 0.57991(12) 0.31193(9) 1.02920(7)
P3 P 0.16356(15) 0.03921(13) 1.4694(3)
P4 P 0.6973(3) -0.0459(3) 1.27772(12)
O1 O 0.5802(3) 0.3792(2) 0.63292(19)
O2 O 0.8357(3) 0.2877(2) 0.5054(2)
O3 O 0.4599(4) 0.2456(3) 0.6529(2)
H1 H 0.4867 0.1868 0.6407
O4 O 0.7037(4) 0.1871(2) 0.6628(2)
O5 O 0.9557(4) 0.1908(3) 0.6393(2)
O6 O 0.0450(3) 0.1341(2) 1.4744(2)
O7 O 0.1984(4) -0.0131(3) 1.5616(3)
O8 O 0.1452(4) -0.0391(3) 1.4250(3)
O9 O 0.8365(3) 0.5191(3) 0.8788(2)
O10 O 0.7230(4) 0.5269(3) 1.0499(2)
O11 O 0.6817(3) 0.3764(3) 0.9691(2)
O12 O 0.4490(3) 0.3914(3) 1.0711(2)
O13 O 0.6334(3) 0.2275(3) 1.1013(2)
O14 O 0.7990(3) 0.0066(3) 1.2067(2)
O15 O 0.6655(4) -0.1233(3) 1.2418(2)
O16 O 0.7468(5) -0.1017(4) 1.3644(3)
N1 N 0.6107(4) 0.3955(3) 0.4229(2)
N2 N 0.7515(4) 0.5204(3) 0.4023(2)
N3 N 0.7664(4) 0.5089(3) 0.5629(2)
N4 N 1.1812(4) 0.9569(3) -0.0048(2)
N5 N 1.0693(3) 0.8144(3) 0.0064(2)
N6 N 1.0943(4) 0.8130(3) -0.1588(2)
C1 C 0.5371(4) 0.3270(3) 0.4405(3)
H2 H 0.5045 0.2967 0.5005
C2 C 0.5082(5) 0.3001(4) 0.3720(3)
H3 H 0.4547 0.2540 0.3862
C3 C 0.5587(5) 0.3418(4) 0.2831(3)
H4 H 0.5417 0.3231 0.2363
C4 C 0.6354(5) 0.4120(4) 0.2640(3)
H5 H 0.6700 0.4418 0.2042
C5 C 0.6600(4) 0.4374(3) 0.3347(3)
C6 C 0.7405(4) 0.5115(3) 0.3230(3)
C7 C 0.8012(4) 0.5683(3) 0.2421(3)
H6 H 0.7958 0.5605 0.1868
C8 C 0.8706(4) 0.6375(3) 0.2441(3)
C9 C 0.8757(4) 0.6469(3) 0.3290(3)
H7 H 0.9182 0.6938 0.3331
C10 C 0.8171(4) 0.5857(3) 0.4061(3)
C11 C 0.8232(4) 0.5820(3) 0.4991(3)
C12 C 0.8822(5) 0.6449(4) 0.5196(3)
H8 H 0.9187 0.6951 0.4748
C13 C 0.8851(6) 0.6306(4) 0.6100(3)
H9 H 0.9237 0.6718 0.6264
C14 C 0.8307(5) 0.5554(4) 0.6747(3)
H10 H 0.8336 0.5445 0.7349
C15 C 0.7713(5) 0.4961(4) 0.6488(3)
H11 H 0.7338 0.4458 0.6927
C16 C 1.2480(5) 1.0291(3) -0.0186(3)
H12 H 1.2821 1.0610 -0.0777
C17 C 1.2676(5) 1.0575(4) 0.0538(3)
H13 H 1.3149 1.1071 0.0430
C18 C 1.2151(5) 1.0102(4) 0.1419(3)
H14 H 1.2278 1.0276 0.1909
C19 C 1.1436(5) 0.9367(3) 0.1566(3)
H15 H 1.1064 0.9053 0.2152
C20 C 1.1293(4) 0.9117(3) 0.0818(3)
C21 C 1.0608(4) 0.8315(3) 0.0876(3)
C22 C 0.9950(4) 0.7757(3) 0.1664(3)
H16 H 0.9887 0.7880 0.2228
C23 C 0.9381(4) 0.7003(3) 0.1601(3)
C24 C 0.9483(4) 0.6853(3) 0.0737(3)
H17 H 0.9112 0.6363 0.0674
C25 C 1.0147(4) 0.7449(3) -0.0022(3)
C26 C 1.0294(4) 0.7427(3) -0.0982(3)
C27 C 0.9771(5) 0.6817(4) -0.1252(3)
H18 H 0.9348 0.6331 -0.0827
C28 C 0.9881(5) 0.6936(4) -0.2178(3)
H19 H 0.9530 0.6529 -0.2376
C29 C 1.0516(5) 0.7663(4) -0.2798(3)
H20 H 1.0590 0.7758 -0.3416
C30 C 1.1040(5) 0.8249(4) -0.2476(3)
H21 H 1.1471 0.8738 -0.2888
C31 C 0.5120(5) 0.2587(4) 0.8009(3)
H22 H 0.4165 0.2937 0.8144
H23 H 0.5206 0.1850 0.8277
C32 C 0.5774(5) 0.3015(3) 0.8504(3)
H24 H 0.5472 0.3775 0.8396
H25 H 0.6746 0.2813 0.8277
C33 C 0.5382(5) 0.2572(3) 0.9531(3)
H26 H 0.5806 0.1824 0.9625
H27 H 0.4415 0.2659 0.9712
C34 C 0.3007(6) 0.0909(4) 1.3945(4)
H28 H 0.3144 0.1405 1.4220
H29 H 0.2765 0.1289 1.3381
C35 C 0.5454(5) 0.0553(4) 1.3033(4)
H30 H 0.5620 0.1058 1.3280
H31 H 0.5168 0.0916 1.2479
C36 C 0.4316(6) 0.0076(4) 1.3734(4)
H32 H 0.4173 -0.0445 1.3491
H33 H 0.4598 -0.0273 1.4290
H34 H 0.285(5) 0.020(4) 1.580(3)
Cu2A Cu 1.16892(5) 0.88982(4) -0.10222(3)
V1_2 V -0.11878(7) 0.17433(5) 1.57176(5)
V1A V 0.11878(7) -0.17433(5) 1.42824(5)
V2A V 0.29820(8) 0.49068(6) 1.04081(5)
O6_2 O 1.0450(3) 0.1341(2) 0.4744(2)
O8A O 0.8548(4) 0.0391(3) 0.5750(3)
O12A O 0.5510(3) 0.6086(3) 0.9289(2)
N4A N 0.8188(4) 0.0431(3) 1.0048(2)
N5A N 0.9307(3) 0.1856(3) 0.9936(2)
N6A N 0.9057(4) 0.1870(3) 1.1588(2)
O17 O 0.3750(7) 0.1433(6) 0.2471(4)
P5? P 0.8305(8) -0.0452(6) 0.5735(14)
P6? P 0.652(2) -0.0072(13) 1.2722(7)
loop_
_geom_bond_atom_site_label_1
_geom_bond_atom_site_label_2
_geom_bond_site_symmetry_1
_geom_bond_site_symmetry_2
Cu1 O1 1_555 1_555
Cu2 O13 1_555 1_555
V1 O2 1_555 1_555
V2 O9 1_555 1_555
P1 O1 1_555 1_555
P2 O11 1_555 1_555
P3 O6 1_555 1_555
P4 O14 1_555 1_555
O2 Cu1 1_555 1_555
O3 P1 1_555 1_555
H1 O3 1_555 1_555
O4 V1 1_555 1_555
O5 V1 1_555 1_555
O6 V1_2 1_555 1_555
O7 P3 1_555 1_555
O8 P3 1_555 1_555
O10 V2 1_555 1_555
O11 V2 1_555 1_555
O12 P2 1_555 1_555
O13 P2 1_555 1_555
O14 Cu2 1_555 1_555
O15 P4 1_555 1_555
O16 P4 1_555 1_555
N1 Cu1 1_555 1_555
N2 Cu1 1_555 1_555
N3 Cu1 1_555 1_555
N4 C16 1_555 1_555
N5 C21 1_555 1_555
N6 C26 1_555 1_555
C1 N1 1_555 1_555
H2 C1 1_555 1_555
C2 C1 1_555 1_555
H3 C2 1_555 1_555
C3 C2 1_555 1_555
H4 C3 1_555 1_555
C4 C3 1_555 1_555
H5 C4 1_555 1_555
C5 N1 1_555 1_555
C6 N2 1_555 1_555
C7 C6 1_555 1_555
H6 C7 1_555 1_555
C8 C7 1_555 1_555
C9 C8 1_555 1_555
H7 C9 1_555 1_555
C10 N2 1_555 1_555
C11 N3 1_555 1_555
C12 C11 1_555 1_555
H8 C12 1_555 1_555
C13 C12 1_555 1_555
H9 C13 1_555 1_555
C14 C13 1_555 1_555
H10 C14 1_555 1_555
C15 N3 1_555 1_555
H11 C15 1_555 1_555
C16 H12 1_555 1_555
C17 C16 1_555 1_555
H13 C17 1_555 1_555
C18 C17 1_555 1_555
H14 C18 1_555 1_555
C19 C18 1_555 1_555
H15 C19 1_555 1_555
C20 N4 1_555 1_555
C21 C20 1_555 1_555
C22 C21 1_555 1_555
H16 C22 1_555 1_555
C23 C8 1_555 1_555
C24 C23 1_555 1_555
H17 C24 1_555 1_555
C25 N5 1_555 1_555
C26 C25 1_555 1_555
C27 C26 1_555 1_555
H18 C27 1_555 1_555
C28 C27 1_555 1_555
H19 C28 1_555 1_555
C29 C28 1_555 1_555
H20 C29 1_555 1_555
C30 N6 1_555 1_555
H21 C30 1_555 1_555
C31 P1 1_555 1_555
H22 C31 1_555 1_555
H23 C31 1_555 1_555
C32 C31 1_555 1_555
H24 C32 1_555 1_555
H25 C32 1_555 1_555
C33 P2 1_555 1_555
H26 C33 1_555 1_555
H27 C33 1_555 1_555
C34 P3 1_555 1_555
H28 C34 1_555 1_555
H29 C34 1_555 1_555
C35 P4 1_555 1_555
H30 C35 1_555 1_555
H31 C35 1_555 1_555
C36 C34 1_555 1_555
H32 C36 1_555 1_555
H33 C36 1_555 1_555
H34 O7 1_555 1_555
Cu2A N4 1_555 1_555
V1A O8 1_555 1_555
V2A O12 1_555 1_555
O6_2 V1 1_555 1_555
O8A V1 1_555 1_555
O12A V2 1_555 1_555
N4A Cu2 1_555 1_555
N5A Cu2 1_555 1_555
N6A Cu2 1_555 1_555
P1 O4 1_555 1_555
N5 Cu2A 1_555 1_555
N6 Cu2A 1_555 1_555
C4 C5 1_555 1_555
C5 C6 1_555 1_555
C9 C10 1_555 1_555
C10 C11 1_555 1_555
C14 C15 1_555 1_555
C19 C20 1_555 1_555
C22 C23 1_555 1_555
C24 C25 1_555 1_555
C29 C30 1_555 1_555
C32 C33 1_555 1_555
C35 C36 1_555 1_555

#END
