
#######################################################################
#
#                 Cambridge Crystallographic Data Centre
#                                CCDC 
#
#######################################################################
#
# If this CIF has been generated from an entry in the Cambridge 
# Structural Database, then it will include bibliographic, chemical, 
# crystal, experimental, refinement or atomic coordinate data resulting 
# from the CCDC's data processing and validation procedures.
#
#######################################################################

data_FEKDAA
_symmetry_cell_setting           triclinic
_symmetry_space_group_name_H-M   'P 1'
_symmetry_Int_Tables_number      1
_space_group_name_Hall           'P 1'
loop_
_symmetry_equiv_pos_site_id
_symmetry_equiv_pos_as_xyz
1 x,y,z
_cell_length_a                   7.946(3)
_cell_length_b                   11.202(4)
_cell_length_c                   7.707(3)
_cell_angle_alpha                92.95(3)
_cell_angle_beta                 109.25(2)
_cell_angle_gamma                93.28(3)
_cell_volume                     644.79
loop_
_atom_site_label
_atom_site_type_symbol
_atom_site_fract_x
_atom_site_fract_y
_atom_site_fract_z
Ag1 Ag 0.744(2) -0.855(1) 0.340(2)
S1 S 0.826(2) -0.665(1) 0.192(2)
S2 S 0.566(2) -0.665(1) 0.452(2)
S3 S 0.560(2) -0.515(1) -0.058(2)
S4 S 0.323(2) -0.521(1) 0.167(2)
S5 S 0.241(2) -0.432(1) -0.403(2)
S6 S 0.002(2) -0.433(1) -0.181(2)
S7 S -0.017(2) -0.319(1) -0.718(2)
S8 S -0.288(2) -0.319(1) -0.466(2)
S9 S 0.398(2) -1.017(1) -0.028(2)
F1 F 0.345(2) -0.794(1) -0.079(2)
F2 F 0.170(2) -0.912(1) -0.292(2)
F3 F 0.130(2) -0.895(1) -0.037(2)
O1 O 0.466(2) -0.986(1) 0.163(2)
O2 O 0.524(2) -1.005(1) -0.124(2)
O3 O 0.282(2) -1.124(1) -0.091(2)
N1 N -0.027(2) 0.029(1) -0.716(2)
N2 N -0.256(2) 0.034(1) -0.421(2)
C1 C 0.816(2) -0.732(1) -0.032(2)
C2 C 0.359(2) -0.747(1) 0.434(2)
C3 C 0.624(2) -0.598(1) 0.138(2)
C4 C 0.517(2) -0.599(1) 0.241(2)
C5 C 0.347(2) -0.493(1) -0.047(2)
C6 C 0.216(2) -0.457(1) -0.189(2)
C7 C 0.038(2) -0.365(1) -0.494(2)
C8 C -0.071(2) -0.366(1) -0.393(2)
C9 C 0.182(2) -0.233(1) -0.710(2)
C10 C 0.221(2) -0.116(1) -0.592(2)
C11 C 0.081(2) -0.034(1) -0.660(2)
C12 C -0.298(2) -0.243(1) -0.255(2)
C13 C -0.173(2) -0.131(1) -0.190(2)
C14 C -0.220(2) -0.037(1) -0.321(2)
C15 C 0.260(2) -0.898(1) -0.114(2)
H1 H 0.8041 -0.6713 -0.1186
H2 H 0.7141 -0.7884 -0.0784
H3 H 0.9208 -0.7708 -0.0216
H4 H 0.2659 -0.6917 0.4167
H5 H 0.3713 -0.7849 0.5430
H6 H 0.3252 -0.8033 0.3310
H7 H 0.1714 -0.2122 -0.8322
H8 H 0.2807 -0.2777 -0.6637
H9 H 0.3323 -0.0750 -0.5905
H10 H 0.2311 -0.1291 -0.4681
H11 H -0.2710 -0.2946 -0.1598
H12 H -0.4182 -0.2184 -0.2766
H13 H -0.0548 -0.1482 -0.1728
H14 H -0.1785 -0.0978 -0.0722
N1_2 N 0.973(2) -0.971(1) 0.284(2)
Ag1_2 Ag -0.256(2) 0.145(1) -0.660(2)
N2_2 N 0.744(2) -0.966(1) 0.579(2)
loop_
_geom_bond_atom_site_label_1
_geom_bond_atom_site_label_2
_geom_bond_site_symmetry_1
_geom_bond_site_symmetry_2
Ag1 S1 1_555 1_555
S1 C1 1_555 1_555
S2 Ag1 1_555 1_555
S3 C3 1_555 1_555
S4 C4 1_555 1_555
S5 C6 1_555 1_555
S6 C6 1_555 1_555
S7 C7 1_555 1_555
S8 C8 1_555 1_555
S9 O1 1_555 1_555
F1 C15 1_555 1_555
F2 C15 1_555 1_555
F3 C15 1_555 1_555
O1 Ag1 1_555 1_555
O2 S9 1_555 1_555
O3 S9 1_555 1_555
N1 C11 1_555 1_555
N2 C14 1_555 1_555
C1 H1 1_555 1_555
C2 S2 1_555 1_555
C3 S1 1_555 1_555
C4 S2 1_555 1_555
C5 S3 1_555 1_555
C6 C5 1_555 1_555
C7 S5 1_555 1_555
C8 S6 1_555 1_555
C9 S7 1_555 1_555
C10 C9 1_555 1_555
C11 C10 1_555 1_555
C12 S8 1_555 1_555
C13 C12 1_555 1_555
C14 C13 1_555 1_555
C15 S9 1_555 1_555
H2 C1 1_555 1_555
H3 C1 1_555 1_555
H4 C2 1_555 1_555
H5 C2 1_555 1_555
H6 C2 1_555 1_555
H7 C9 1_555 1_555
H8 C9 1_555 1_555
H9 C10 1_555 1_555
H10 C10 1_555 1_555
H11 C12 1_555 1_555
H12 C12 1_555 1_555
H13 C13 1_555 1_555
H14 C13 1_555 1_555
N1_2 Ag1 1_555 1_555
Ag1_2 N1 1_555 1_555
N2_2 Ag1 1_555 1_555
S4 C5 1_555 1_555
N2 Ag1_2 1_555 1_555
C3 C4 1_555 1_555
C7 C8 1_555 1_555

#END
