
#######################################################################
#
#                 Cambridge Crystallographic Data Centre
#                                CCDC 
#
#######################################################################
#
# If this CIF has been generated from an entry in the Cambridge 
# Structural Database, then it will include bibliographic, chemical, 
# crystal, experimental, refinement or atomic coordinate data resulting 
# from the CCDC's data processing and validation procedures.
#
#######################################################################

data_FEKNAK
_symmetry_cell_setting           monoclinic
_symmetry_space_group_name_H-M   'P 21/c'
_symmetry_Int_Tables_number      14
_space_group_name_Hall           '-P 2ybc'
loop_
_symmetry_equiv_pos_site_id
_symmetry_equiv_pos_as_xyz
1 x,y,z
2 -x,1/2+y,1/2-z
3 -x,-y,-z
4 x,1/2-y,1/2+z
_cell_length_a                   9.369(4)
_cell_length_b                   11.276(8)
_cell_length_c                   18.110(8)
_cell_angle_alpha                90
_cell_angle_beta                 90.45(5)
_cell_angle_gamma                90
_cell_volume                     1913.17
loop_
_atom_site_label
_atom_site_type_symbol
_atom_site_fract_x
_atom_site_fract_y
_atom_site_fract_z
Pb1 Pb 0.06756(2) 0.19234(2) 0.26157(1)
O1 O -0.0647(4) -0.0038(4) 0.2397(2)
O2 O 0.2129(4) 0.3558(4) 0.2984(3)
O3 O -0.2084(6) 0.1212(5) 0.1218(3)
O4 O -0.3934(5) 0.0440(5) 0.1768(3)
C1 C -0.1713(6) -0.0402(5) 0.2055(3)
C2 C -0.2595(7) 0.0501(5) 0.1623(3)
C3 C -0.4872(9) 0.1272(9) 0.1359(6)
C4 C -0.1265(6) 0.2578(6) 0.3144(3)
C5 C -0.1325(8) 0.2537(7) 0.3905(4)
C6 C -0.2560(9) 0.2931(7) 0.4255(4)
C7 C -0.3713(8) 0.3318(7) 0.3840(5)
C8 C -0.3638(8) 0.3377(6) 0.3086(5)
C9 C -0.2397(7) 0.3002(6) 0.2736(4)
C10 C 0.1326(6) 0.2005(5) 0.1467(3)
C11 C 0.1904(8) 0.3044(6) 0.1180(4)
C12 C 0.2362(9) 0.3066(7) 0.0442(4)
C13 C 0.2243(8) 0.2057(8) 0.0014(4)
C14 C 0.1690(8) 0.1035(8) 0.0291(4)
C15 C 0.1241(7) 0.0992(7) 0.1027(4)
C16 C 0.1993(7) 0.0838(5) 0.3352(3)
C17 C 0.3451(7) 0.0947(7) 0.3370(4)
C18 C 0.4306(8) 0.0209(8) 0.3818(5)
C19 C 0.3640(9) -0.0613(7) 0.4248(4)
C20 C 0.2173(9) -0.0755(7) 0.4245(4)
C21 C 0.1351(8) -0.0019(6) 0.3794(4)
H1 H -0.583 0.116 0.151
H2 H -0.459 0.206 0.146
H3 H -0.479 0.113 0.084
H4 H -0.054 0.224 0.419
H5 H -0.261 0.293 0.478
H6 H -0.457 0.354 0.408
H7 H -0.4421 0.367 0.280
H8 H -0.233 0.304 0.221
H9 H 0.199 0.373 0.148
H10 H 0.275 0.377 0.024
H11 H 0.255 0.208 -0.048
H12 H 0.161 0.035 -0.001
H13 H 0.088 0.027 0.122
H14 H 0.389 0.153 0.307
H15 H 0.532 0.028 0.382
H16 H 0.420 -0.110 0.456
H17 H 0.174 -0.134 0.454
H18 H 0.034 -0.010 0.379
C1A C 0.1713(6) 0.4598(5) 0.2945(3)
O2A O -0.2129(4) -0.1442(4) 0.2016(3)
O1A O 0.0647(4) 0.4962(4) 0.2603(2)
C2A C 0.2595(7) 0.5501(5) 0.3377(3)
Pb1A Pb -0.06756(2) -0.30766(2) 0.23843(1)
Pb1A_2 Pb -0.06756(2) 0.69234(2) 0.23843(1)
O3A O 0.2084(6) 0.6212(5) 0.3782(3)
O4A O 0.3934(5) 0.5440(5) 0.3232(3)
O1A_2 O 0.0647(4) -0.5038(4) 0.2603(2)
C4A C 0.1265(6) -0.2422(6) 0.1856(3)
C10A C -0.1326(6) -0.2995(5) 0.3533(3)
C16A C -0.1993(7) -0.4162(5) 0.1648(3)
C3A C 0.4872(9) 0.6272(9) 0.3641(6)
C5A C 0.1325(8) -0.2463(7) 0.1095(4)
C9A C 0.2397(7) -0.1998(6) 0.2264(4)
C11A C -0.1904(8) -0.1956(6) 0.3820(4)
C15A C -0.1241(7) -0.4008(7) 0.3973(4)
C17A C -0.3451(7) -0.4053(7) 0.1630(4)
C21A C -0.1351(8) -0.5019(6) 0.1206(4)
H1A H 0.583 0.616 0.349
H2A H 0.459 0.706 0.354
H3A H 0.479 0.613 0.416
C6A C 0.2560(9) -0.2069(7) 0.0745(4)
H4A H 0.054 -0.276 0.081
C8A C 0.3638(8) -0.1623(6) 0.1914(5)
H8A H 0.233 -0.196 0.279
C12A C -0.2362(9) -0.1934(7) 0.4558(4)
H9A H -0.199 -0.127 0.352
C14A C -0.1690(8) -0.3965(8) 0.4709(4)
H13A H -0.088 -0.473 0.378
C18A C -0.4306(8) -0.4791(8) 0.1182(5)
H14A H -0.389 -0.347 0.193
C20A C -0.2173(9) -0.5755(7) 0.0755(4)
H18A H -0.034 -0.510 0.121
C7A C 0.3713(8) -0.1682(7) 0.1160(5)
H5A H 0.261 -0.207 0.022
H7A H 0.4421 -0.133 0.220
C13A C -0.2243(8) -0.2943(8) 0.4986(4)
H10A H -0.275 -0.123 0.476
H12A H -0.161 -0.465 0.501
C19A C -0.3640(9) -0.5613(7) 0.0752(4)
H15A H -0.532 -0.472 0.118
H17A H -0.174 -0.634 0.046
H6A H 0.457 -0.146 0.092
H11A H -0.255 -0.292 0.548
H16A H -0.420 -0.610 0.044
loop_
_geom_bond_atom_site_label_1
_geom_bond_atom_site_label_2
_geom_bond_site_symmetry_1
_geom_bond_site_symmetry_2
Pb1 O1 1_555 1_555
O1 C1 1_555 1_555
O2 Pb1 1_555 1_555
O3 C2 1_555 1_555
O4 C2 1_555 1_555
C1 C2 1_555 1_555
C3 O4 1_555 1_555
C4 Pb1 1_555 1_555
C5 C4 1_555 1_555
C6 C5 1_555 1_555
C7 C6 1_555 1_555
C8 C7 1_555 1_555
C9 C4 1_555 1_555
C10 Pb1 1_555 1_555
C11 C10 1_555 1_555
C12 C11 1_555 1_555
C13 C12 1_555 1_555
C14 C13 1_555 1_555
C15 C10 1_555 1_555
C16 Pb1 1_555 1_555
C17 C16 1_555 1_555
C18 C17 1_555 1_555
C19 C18 1_555 1_555
C20 C19 1_555 1_555
C21 C16 1_555 1_555
H1 C3 1_555 1_555
H2 C3 1_555 1_555
H3 C3 1_555 1_555
H4 C5 1_555 1_555
H5 C6 1_555 1_555
H6 C7 1_555 1_555
H7 C8 1_555 1_555
H8 C9 1_555 1_555
H9 C11 1_555 1_555
H10 C12 1_555 1_555
H11 C13 1_555 1_555
H12 C14 1_555 1_555
H13 C15 1_555 1_555
H14 C17 1_555 1_555
H15 C18 1_555 1_555
H16 C19 1_555 1_555
H17 C20 1_555 1_555
H18 C21 1_555 1_555
C1A O2 1_555 1_555
O2A C1 1_555 1_555
O1A C1A 1_555 1_555
C2A C1A 1_555 1_555
Pb1A O2A 1_555 1_555
Pb1A_2 O1A 1_555 1_555
O3A C2A 1_555 1_555
O4A C2A 1_555 1_555
O1A_2 Pb1A 1_555 1_555
C4A Pb1A 1_555 1_555
C10A Pb1A 1_555 1_555
C16A Pb1A 1_555 1_555
C3A O4A 1_555 1_555
C5A C4A 1_555 1_555
C9A C4A 1_555 1_555
C11A C10A 1_555 1_555
C15A C10A 1_555 1_555
C17A C16A 1_555 1_555
C21A C16A 1_555 1_555
H1A C3A 1_555 1_555
H2A C3A 1_555 1_555
H3A C3A 1_555 1_555
C6A C5A 1_555 1_555
H4A C5A 1_555 1_555
C8A C9A 1_555 1_555
H8A C9A 1_555 1_555
C12A C11A 1_555 1_555
H9A C11A 1_555 1_555
C14A C15A 1_555 1_555
H13A C15A 1_555 1_555
C18A C17A 1_555 1_555
H14A C17A 1_555 1_555
C20A C21A 1_555 1_555
H18A C21A 1_555 1_555
C7A C6A 1_555 1_555
H5A C6A 1_555 1_555
H7A C8A 1_555 1_555
C13A C12A 1_555 1_555
H10A C12A 1_555 1_555
H12A C14A 1_555 1_555
C19A C18A 1_555 1_555
H15A C18A 1_555 1_555
H17A C20A 1_555 1_555
H6A C7A 1_555 1_555
H11A C13A 1_555 1_555
H16A C19A 1_555 1_555
C8 C9 1_555 1_555
C14 C15 1_555 1_555
C20 C21 1_555 1_555
C8A C7A 1_555 1_555
C14A C13A 1_555 1_555
C20A C19A 1_555 1_555

#END
