
#######################################################################
#
#                 Cambridge Crystallographic Data Centre
#                                CCDC 
#
#######################################################################
#
# If this CIF has been generated from an entry in the Cambridge 
# Structural Database, then it will include bibliographic, chemical, 
# crystal, experimental, refinement or atomic coordinate data resulting 
# from the CCDC's data processing and validation procedures.
#
#######################################################################

data_FEKYUP
_symmetry_cell_setting           monoclinic
_symmetry_space_group_name_H-M   'P 21/c'
_symmetry_Int_Tables_number      14
_space_group_name_Hall           '-P 2ybc'
loop_
_symmetry_equiv_pos_site_id
_symmetry_equiv_pos_as_xyz
1 x,y,z
2 -x,1/2+y,1/2-z
3 -x,-y,-z
4 x,1/2-y,1/2+z
_cell_length_a                   10.313(2)
_cell_length_b                   20.114(5)
_cell_length_c                   10.835(5)
_cell_angle_alpha                90
_cell_angle_beta                 118.33(2)
_cell_angle_gamma                90
_cell_volume                     1978.37
loop_
_atom_site_label
_atom_site_type_symbol
_atom_site_fract_x
_atom_site_fract_y
_atom_site_fract_z
Co1 Co 0.0000 0.5000 0.0000
Co2 Co -0.5000 0.5000 0.0000
S1 S -0.2151(2) 0.4061(1) 0.0819(2)
S2 S -0.6955(2) 0.4080(1) 0.1048(3)
O1 O -0.1088(6) 0.4591(3) 0.1079(7)
O2 O -0.3392(7) 0.4294(3) 0.1025(7)
O3 O -0.2582(7) 0.3726(3) -0.0496(7)
O4 O -0.6042(8) 0.4657(3) 0.1178(7)
O5 O -0.1625(7) 0.5741(4) -0.0925(8)
O6 O -0.7124(9) 0.3628(4) -0.0073(8)
O7 O -0.1218(9) 0.4397(4) -0.1686(9)
O8 O -0.6110(9) 0.4318(4) -0.1561(8)
C1 C -0.1256(8) 0.3464(4) 0.2174(9)
C2 C -0.1924(10) 0.3236(5) 0.2916(11)
C3 C -0.1238(13) 0.2722(6) 0.3879(12)
C4 C 0.0085(13) 0.2464(5) 0.4079(12)
C5 C 0.0731(11) 0.2702(5) 0.3329(11)
C6 C 0.0073(11) 0.3209(4) 0.2360(10)
C7 C -0.6035 0.3642 0.2643
C8 C -0.5754 0.2958 0.2569
C9 C -0.4967 0.2634 0.3915
C10 C -0.4539 0.2981 0.5142
C11 C -0.4859 0.3633 0.5157
C12 C -0.5614 0.3984 0.3877
C13 C -0.0859(14) 0.4122(7) -0.2692(13)
C14 C -0.1415(22) 0.4571(10) -0.3926(18)
C15 C -0.7082(19) 0.4463(7) -0.2991(14)
C16 C -0.7752(19) 0.3854(10) -0.3817(19)
H1 H -0.169(15) 0.416(7) -0.155(15)
H2 H -0.652(15) 0.405(7) -0.132(14)
H3 H -0.285(13) 0.333(6) 0.287(13)
H4 H -0.147(14) 0.267(7) 0.435(14)
H5 H 0.053(14) 0.214(7) 0.468(14)
H6 H 0.162(14) 0.263(6) 0.348(13)
H7 H 0.051(13) 0.342(6) 0.187(12)
H8 H -0.588 0.251 0.186
H9 H -0.473 0.215 0.396
H10 H -0.400 0.256 0.581
H11 H -0.477 0.409 0.586
H12 H -0.584 0.447 0.387
H13 H -0.002(16) 0.395(7) -0.254(16)
H14 H -0.139(15) 0.376(7) -0.316(14)
H15 H -0.116(21) 0.438(9) -0.464(17)
H16 H -0.255(17) 0.459(8) -0.432(16)
H17 H -0.094(18) 0.504(9) -0.363(19)
H18 H -0.804(16) 0.472(7) -0.313(15)
H19 H -0.673(17) 0.476(8) -0.346(16)
H20 H -0.685(18) 0.369(9) -0.378(18)
H21 H -0.833(11) 0.404(8) -0.473(17)
H22 H -0.836(11) 0.368(5) -0.365(10)
O1B O 0.1088(6) 0.5409(3) -0.1079(7)
O5B O 0.1625(7) 0.4259(4) 0.0925(8)
O7B O 0.1218(9) 0.5603(4) 0.1686(9)
O2B O -0.6608(7) 0.5706(3) -0.1025(7)
O4B O -0.3958(8) 0.5343(3) -0.1178(7)
O8B O -0.3890(9) 0.5682(4) 0.1561(8)
O5B_2 O -0.8375(7) 0.4259(4) 0.0925(8)
S1B S 0.2151(2) 0.5939(1) -0.0819(2)
S2B S -0.3045(2) 0.5920(1) -0.1048(3)
C13B C 0.0859(14) 0.5878(7) 0.2692(13)
H1B H 0.169(15) 0.584(7) 0.155(15)
C15B C -0.2918(19) 0.5537(7) 0.2991(14)
H2B H -0.348(15) 0.595(7) 0.132(14)
O2B_2 O 0.3392(7) 0.5706(3) -0.1025(7)
O3B O 0.2582(7) 0.6274(3) 0.0496(7)
C1B C 0.1256(8) 0.6536(4) -0.2174(9)
O6B O -0.2876(9) 0.6372(4) 0.0073(8)
C7B C -0.3965 0.6358 -0.2643
C14B C 0.1415(22) 0.5429(10) 0.3926(18)
H13B H 0.002(16) 0.605(7) 0.254(16)
H14B H 0.139(15) 0.624(7) 0.316(14)
C16B C -0.2248(19) 0.6146(10) 0.3817(19)
H18B H -0.196(16) 0.528(7) 0.313(15)
H19B H -0.327(17) 0.524(8) 0.346(16)
C2B C 0.1924(10) 0.6764(5) -0.2916(11)
C6B C -0.0073(11) 0.6791(4) -0.2360(10)
C8B C -0.4246 0.7042 -0.2569
C12B C -0.4386 0.6016 -0.3877
H15B H 0.116(21) 0.562(9) 0.464(17)
H16B H 0.255(17) 0.541(8) 0.432(16)
H17B H 0.094(18) 0.496(9) 0.363(19)
H20B H -0.315(18) 0.631(9) 0.378(18)
H21B H -0.167(11) 0.596(8) 0.473(17)
H22B H -0.164(11) 0.632(5) 0.365(10)
C3B C 0.1238(13) 0.7278(6) -0.3879(12)
H3B H 0.285(13) 0.667(6) -0.287(13)
C5B C -0.0731(11) 0.7298(5) -0.3329(11)
H7B H -0.051(13) 0.658(6) -0.187(12)
C9B C -0.5033 0.7366 -0.3915
H8B H -0.412 0.749 -0.186
C11B C -0.5141 0.6367 -0.5157
H12B H -0.416 0.553 -0.387
C4B C -0.0085(13) 0.7536(5) -0.4079(12)
H4B H 0.147(14) 0.733(7) -0.435(14)
H6B H -0.162(14) 0.737(6) -0.348(13)
C10B C -0.5461 0.7019 -0.5142
H9B H -0.527 0.785 -0.396
H11B H -0.523 0.591 -0.586
H5B H -0.053(14) 0.786(7) -0.468(14)
H10B H -0.600 0.744 -0.581
Co1_2 Co -1.0000 0.5000 0.0000
Co2_2 Co 0.5000 0.5000 0.0000
loop_
_geom_bond_atom_site_label_1
_geom_bond_atom_site_label_2
_geom_bond_site_symmetry_1
_geom_bond_site_symmetry_2
Co1 O1 1_555 1_555
Co2 O2 1_555 1_555
S1 O1 1_555 1_555
S2 O4 1_555 1_555
O2 S1 1_555 1_555
O3 S1 1_555 1_555
O4 Co2 1_555 1_555
O5 Co1 1_555 1_555
O6 S2 1_555 1_555
O7 Co1 1_555 1_555
O8 Co2 1_555 1_555
C1 S1 1_555 1_555
C2 C1 1_555 1_555
C3 C2 1_555 1_555
C4 C3 1_555 1_555
C5 C4 1_555 1_555
C6 C1 1_555 1_555
C7 S2 1_555 1_555
C8 C7 1_555 1_555
C9 C8 1_555 1_555
C10 C9 1_555 1_555
C11 C10 1_555 1_555
C12 C7 1_555 1_555
C13 O7 1_555 1_555
C14 C13 1_555 1_555
C15 O8 1_555 1_555
C16 C15 1_555 1_555
H1 O7 1_555 1_555
H2 O8 1_555 1_555
H3 C2 1_555 1_555
H4 C3 1_555 1_555
H5 C4 1_555 1_555
H6 C5 1_555 1_555
H7 C6 1_555 1_555
H8 C8 1_555 1_555
H9 C9 1_555 1_555
H10 C10 1_555 1_555
H11 C11 1_555 1_555
H12 C12 1_555 1_555
H13 C13 1_555 1_555
H14 C13 1_555 1_555
H15 C14 1_555 1_555
H16 C14 1_555 1_555
H17 C14 1_555 1_555
H18 C15 1_555 1_555
H19 C15 1_555 1_555
H20 C16 1_555 1_555
H21 C16 1_555 1_555
H22 C16 1_555 1_555
O1B Co1 1_555 1_555
O5B Co1 1_555 1_555
O7B Co1 1_555 1_555
O2B Co2 1_555 1_555
O4B Co2 1_555 1_555
O8B Co2 1_555 1_555
O5B_2 S2 1_555 1_555
S1B O1B 1_555 1_555
S2B O5 1_555 1_555
C13B O7B 1_555 1_555
H1B O7B 1_555 1_555
C15B O8B 1_555 1_555
H2B O8B 1_555 1_555
O2B_2 S1B 1_555 1_555
O3B S1B 1_555 1_555
C1B S1B 1_555 1_555
O6B S2B 1_555 1_555
C7B S2B 1_555 1_555
C14B C13B 1_555 1_555
H13B C13B 1_555 1_555
H14B C13B 1_555 1_555
C16B C15B 1_555 1_555
H18B C15B 1_555 1_555
H19B C15B 1_555 1_555
C2B C1B 1_555 1_555
C6B C1B 1_555 1_555
C8B C7B 1_555 1_555
C12B C7B 1_555 1_555
H15B C14B 1_555 1_555
H16B C14B 1_555 1_555
H17B C14B 1_555 1_555
H20B C16B 1_555 1_555
H21B C16B 1_555 1_555
H22B C16B 1_555 1_555
C3B C2B 1_555 1_555
H3B C2B 1_555 1_555
C5B C6B 1_555 1_555
H7B C6B 1_555 1_555
C9B C8B 1_555 1_555
H8B C8B 1_555 1_555
C11B C12B 1_555 1_555
H12B C12B 1_555 1_555
C4B C3B 1_555 1_555
H4B C3B 1_555 1_555
H6B C5B 1_555 1_555
C10B C9B 1_555 1_555
H9B C9B 1_555 1_555
H11B C11B 1_555 1_555
H5B C4B 1_555 1_555
H10B C10B 1_555 1_555
Co1_2 O5B_2 1_555 1_555
Co2_2 O2B_2 1_555 1_555
C5 C6 1_555 1_555
C11 C12 1_555 1_555
O4B S2B 1_555 1_555
C5B C4B 1_555 1_555
C11B C10B 1_555 1_555

#END
