
#######################################################################
#
#                 Cambridge Crystallographic Data Centre
#                                CCDC 
#
#######################################################################
#
# If this CIF has been generated from an entry in the Cambridge 
# Structural Database, then it will include bibliographic, chemical, 
# crystal, experimental, refinement or atomic coordinate data resulting 
# from the CCDC's data processing and validation procedures.
#
#######################################################################

data_FELMIU
_symmetry_cell_setting           monoclinic
_symmetry_space_group_name_H-M   'P 21/c'
_symmetry_Int_Tables_number      14
_space_group_name_Hall           '-P 2ybc'
loop_
_symmetry_equiv_pos_site_id
_symmetry_equiv_pos_as_xyz
1 x,y,z
2 -x,1/2+y,1/2-z
3 -x,-y,-z
4 x,1/2-y,1/2+z
_cell_length_a                   10.7152(13)
_cell_length_b                   9.7243(12)
_cell_length_c                   13.9104(18)
_cell_angle_alpha                90
_cell_angle_beta                 110.506(2)
_cell_angle_gamma                90
_cell_volume                     1357.59
loop_
_atom_site_label
_atom_site_type_symbol
_atom_site_fract_x
_atom_site_fract_y
_atom_site_fract_z
C1 C 1.3176(4) 0.5426(4) 0.7377(3)
H1 H 1.4107 0.5294 0.7705
C2 C 1.2702(4) 0.5974(4) 0.6383(3)
H2 H 1.3300 0.6227 0.6046
C3 C 1.1355(4) 0.6136(4) 0.5910(3)
H3 H 1.1005 0.6475 0.5226
C4 C 1.0505(4) 0.5806(4) 0.6431(3)
H4 H 0.9571 0.5939 0.6118
C5 C 1.1043(3) 0.5275(3) 0.7421(2)
C6 C 1.0169(3) 0.4970(3) 0.8031(2)
C7 C 0.8711(3) 0.4947(4) 0.7475(2)
C8 C 0.8133(4) 0.3867(4) 0.6801(3)
H5 H 0.8683 0.3169 0.6685
C9 C 0.6769(4) 0.3807(4) 0.6305(3)
H6 H 0.6380 0.3059 0.5862
C10 C 0.5970(4) 0.4848(5) 0.6458(3)
H7 H 0.5033 0.4818 0.6112
C11 C 0.6535(4) 0.5931(4) 0.7115(3)
H8 H 0.5985 0.6641 0.7216
C12 C 0.7901(4) 0.5979(4) 0.7624(3)
H9 H 0.8284 0.6719 0.8077
C13 C 0.9963(3) 0.4409(3) 0.9634(3)
H10 H 1.0323 0.3562 1.0029
H11 H 0.9023 0.4237 0.9200
Cl1 Cl 1.56744(8) 0.38154(9) 0.93062(6)
Cl2 Cl 1.28509(9) 0.21148(9) 1.02957(7)
Hg1 Hg 1.314975(12) 0.425881(14) 0.955625(10)
N1 N 1.2366(3) 0.5083(3) 0.7879(2)
N2 N 1.0738(3) 0.4759(3) 0.8988(2)
C1B C 0.6824(4) 0.4574(4) 1.2623(3)
H1B H 0.5893 0.4706 1.2295
C2B C 0.7298(4) 0.4026(4) 1.3617(3)
H2B H 0.6700 0.3773 1.3954
C3B C 0.8645(4) 0.3864(4) 1.4090(3)
H3B H 0.8995 0.3525 1.4774
C4B C 0.9495(4) 0.4194(4) 1.3569(3)
H4B H 1.0429 0.4061 1.3882
C5B C 0.8957(3) 0.4725(3) 1.2579(2)
C6B C 0.9831(3) 0.5030(3) 1.1969(2)
C7B C 1.1289(3) 0.5053(4) 1.2525(2)
C8B C 1.1867(4) 0.6133(4) 1.3199(3)
H5B H 1.1317 0.6831 1.3315
C9B C 1.3231(4) 0.6193(4) 1.3695(3)
H6B H 1.3620 0.6941 1.4138
C10B C 1.4030(4) 0.5152(5) 1.3542(3)
H7B H 1.4967 0.5182 1.3888
C11B C 1.3465(4) 0.4069(4) 1.2885(3)
H8B H 1.4015 0.3359 1.2784
C12B C 1.2099(4) 0.4021(4) 1.2376(3)
H9B H 1.1716 0.3281 1.1923
C13B C 1.0037(3) 0.5591(3) 1.0366(3)
H10B H 0.9677 0.6438 0.9971
H11B H 1.0977 0.5763 1.0800
Cl1B Cl 1.43256(8) 0.61846(9) 1.06938(6)
Cl2B Cl 1.71491(9) 0.78852(9) 0.97043(7)
Hg1B Hg 1.685025(12) 0.574119(14) 1.044375(10)
Hg1B_2 Hg 0.685025(12) 0.574119(14) 1.044375(10)
N1B N 0.7634(3) 0.4917(3) 1.2121(2)
N1B_2 N 1.7634(3) 0.4917(3) 1.2121(2)
N2B N 0.9262(3) 0.5241(3) 1.1012(2)
N2B_2 N 1.9262(3) 0.5241(3) 1.1012(2)
loop_
_geom_bond_atom_site_label_1
_geom_bond_atom_site_label_2
_geom_bond_site_symmetry_1
_geom_bond_site_symmetry_2
C1 H1 1_555 1_555
C2 C1 1_555 1_555
H2 C2 1_555 1_555
C3 C2 1_555 1_555
H3 C3 1_555 1_555
C4 C3 1_555 1_555
H4 C4 1_555 1_555
C5 C4 1_555 1_555
C6 C5 1_555 1_555
C7 C6 1_555 1_555
C8 C7 1_555 1_555
H5 C8 1_555 1_555
C9 C8 1_555 1_555
H6 C9 1_555 1_555
C10 C9 1_555 1_555
H7 C10 1_555 1_555
C11 C10 1_555 1_555
H8 C11 1_555 1_555
C12 C7 1_555 1_555
H9 C12 1_555 1_555
C13 H10 1_555 1_555
H11 C13 1_555 1_555
Cl1 Hg1 1_555 1_555
Cl2 Hg1 1_555 1_555
Hg1 N1 1_555 1_555
N1 C1 1_555 1_555
N2 C6 1_555 1_555
C1B H1B 1_555 1_555
C2B C1B 1_555 1_555
H2B C2B 1_555 1_555
C3B C2B 1_555 1_555
H3B C3B 1_555 1_555
C4B C3B 1_555 1_555
H4B C4B 1_555 1_555
C5B C4B 1_555 1_555
C6B C5B 1_555 1_555
C7B C6B 1_555 1_555
C8B C7B 1_555 1_555
H5B C8B 1_555 1_555
C9B C8B 1_555 1_555
H6B C9B 1_555 1_555
C10B C9B 1_555 1_555
H7B C10B 1_555 1_555
C11B C10B 1_555 1_555
H8B C11B 1_555 1_555
C12B C7B 1_555 1_555
H9B C12B 1_555 1_555
C13B C13 1_555 1_555
H10B C13B 1_555 1_555
H11B C13B 1_555 1_555
Cl1B Hg1 1_555 1_555
Cl2B Hg1B 1_555 1_555
Hg1B Cl1 1_555 1_555
Hg1B_2 N1B 1_555 1_555
N1B C1B 1_555 1_555
N1B_2 Hg1B 1_555 1_555
N2B C6B 1_555 1_555
N2B_2 Hg1B 1_555 1_555
C5 N1 1_555 1_555
C11 C12 1_555 1_555
C13 N2 1_555 1_555
Hg1 N2 1_555 1_555
C5B N1B 1_555 1_555
C11B C12B 1_555 1_555
C13B N2B 1_555 1_555
Cl1B Hg1B 1_555 1_555
Hg1B_2 N2B 1_555 1_555

#END
