
#######################################################################
#
#                 Cambridge Crystallographic Data Centre
#                                CCDC 
#
#######################################################################
#
# If this CIF has been generated from an entry in the Cambridge 
# Structural Database, then it will include bibliographic, chemical, 
# crystal, experimental, refinement or atomic coordinate data resulting 
# from the CCDC's data processing and validation procedures.
#
#######################################################################

data_FELMOA
_symmetry_cell_setting           triclinic
_symmetry_space_group_name_H-M   'P -1'
_symmetry_Int_Tables_number      2
_space_group_name_Hall           '-P 1'
loop_
_symmetry_equiv_pos_site_id
_symmetry_equiv_pos_as_xyz
1 x,y,z
2 -x,-y,-z
_cell_length_a                   10.4135(18)
_cell_length_b                   11.274(2)
_cell_length_c                   13.233(2)
_cell_angle_alpha                72.741(2)
_cell_angle_beta                 74.953(2)
_cell_angle_gamma                72.897(2)
_cell_volume                     1392.5
loop_
_atom_site_label
_atom_site_type_symbol
_atom_site_fract_x
_atom_site_fract_y
_atom_site_fract_z
Br1 Br 0.38584(7) 0.14116(6) 0.06365(5)
Br2 Br 0.35675(7) 0.33515(6) 0.33658(6)
C1 C -0.0392(6) 0.3978(6) 0.1970(5)
H1 H -0.0379 0.3133 0.2395
C2 C -0.1642(6) 0.4795(6) 0.1771(5)
H2 H -0.2469 0.4519 0.2069
C3 C -0.1657(6) 0.6015(6) 0.1133(5)
H3 H -0.2491 0.6586 0.0967
C4 C -0.0431(6) 0.6384(6) 0.0739(4)
H4 H -0.0418 0.7219 0.0302
C5 C 0.0775(6) 0.5539(5) 0.0982(4)
C6 C 0.2110(6) 0.5921(6) 0.0600(5)
C7 C 0.2055(6) 0.7324(6) 0.0146(5)
C8 C 0.2392(8) 0.7811(7) -0.0954(5)
H5 H 0.2641 0.7265 -0.1433
C9 C 0.2363(8) 0.9096(7) -0.1349(6)
H6 H 0.2579 0.9434 -0.2104
C10 C 0.2023(7) 0.9895(6) -0.0655(6)
H7 H 0.2018 1.0776 -0.0935
C11 C 0.1688(7) 0.9414(6) 0.0450(6)
H8 H 0.1460 0.9959 0.0929
C12 C 0.1689(6) 0.8130(6) 0.0843(5)
H9 H 0.1438 0.7797 0.1596
N1 N 0.3204(5) 0.5046(5) 0.0705(4)
C13 C 0.4558(7) 0.5331(7) 0.0439(6)
H10 H 0.4983 0.5020 0.1086
H11 H 0.4469 0.6265 0.0184
Hg1 Hg 0.29841(2) 0.28973(2) 0.183068(19)
N2 N 0.0790(5) 0.4338(4) 0.1585(4)
Br1A Br 0.61416(7) 0.85884(6) -0.06365(5)
Br2A Br 0.64325(7) 0.66485(6) -0.33658(6)
C1A C 1.0392(6) 0.6022(6) -0.1970(5)
H1A H 1.0379 0.6867 -0.2395
C2A C 1.1642(6) 0.5205(6) -0.1771(5)
H2A H 1.2469 0.5481 -0.2069
C3A C 1.1657(6) 0.3985(6) -0.1133(5)
H3A H 1.2491 0.3414 -0.0967
C4A C 1.0431(6) 0.3616(6) -0.0739(4)
H4A H 1.0418 0.2781 -0.0302
C5A C 0.9225(6) 0.4461(5) -0.0982(4)
C6A C 0.7890(6) 0.4079(6) -0.0600(5)
C7A C 0.7945(6) 0.2676(6) -0.0146(5)
C8A C 0.7608(8) 0.2189(7) 0.0954(5)
H5A H 0.7359 0.2735 0.1433
C9A C 0.7637(8) 0.0904(7) 0.1349(6)
H6A H 0.7421 0.0566 0.2104
C10A C 0.7977(7) 0.0105(6) 0.0655(6)
H7A H 0.7982 -0.0776 0.0935
C11A C 0.8312(7) 0.0586(6) -0.0450(6)
H8A H 0.8540 0.0041 -0.0929
C12A C 0.8311(6) 0.1870(6) -0.0843(5)
H9A H 0.8562 0.2203 -0.1596
N1A N 0.6796(5) 0.4954(5) -0.0705(4)
C13A C 0.5442(7) 0.4669(7) -0.0439(6)
H10A H 0.5017 0.4980 -0.1086
H11A H 0.5531 0.3735 -0.0184
Hg1A Hg 0.70159(2) 0.71027(2) -0.183068(19)
N2A N 0.9210(5) 0.5662(4) -0.1585(4)
Br3 Br 0.11900(7) 0.06957(6) 0.34436(5)
Br4 Br 0.27944(7) -0.23575(6) 0.59686(6)
C14 C -0.0588(7) 0.2465(7) 0.5827(6)
H12 H -0.1128 0.2040 0.5643
C15 C -0.1177(6) 0.3660(6) 0.6016(5)
H13 H -0.2091 0.4076 0.5926
C16 C -0.0417(6) 0.4242(6) 0.6338(5)
H14 H -0.0808 0.5057 0.6494
C17 C 0.0927(6) 0.3631(6) 0.6433(5)
H15 H 0.1451 0.4009 0.6682
C18 C 0.1501(6) 0.2462(6) 0.6161(4)
C19 C 0.2977(6) 0.1797(6) 0.6127(5)
C20 C 0.3853(6) 0.2333(6) 0.6517(5)
C21 C 0.4008(6) 0.3582(6) 0.6068(5)
H16 H 0.3562 0.4105 0.5491
C22 C 0.4818(6) 0.4067(6) 0.6463(5)
H17 H 0.4913 0.4920 0.6162
C23 C 0.5487(6) 0.3290(6) 0.7305(5)
H18 H 0.6033 0.3618 0.7579
C24 C 0.5354(6) 0.2045(6) 0.7738(5)
H19 H 0.5819 0.1517 0.8304
C25 C 0.4552(6) 0.1572(6) 0.7353(5)
H20 H 0.4468 0.0715 0.7656
C26 C 0.4812(6) 0.0108(6) 0.5578(5)
H21 H 0.4936 -0.0722 0.6115
H22 H 0.5406 0.0605 0.5657
Hg2 Hg 0.17001(2) -0.00286(2) 0.53990(2)
N3 N 0.0706(6) 0.1880(5) 0.5893(4)
N4 N 0.3384(5) 0.0810(5) 0.5743(4)
Br3A Br -0.11900(7) -0.06957(6) 0.65564(5)
Br4A Br -0.27944(7) 0.23575(6) 0.40314(6)
C14A C 1.0588(7) -0.2465(7) 0.4173(6)
H12A H 1.1128 -0.2040 0.4357
C15A C 1.1177(6) -0.3660(6) 0.3984(5)
H13A H 1.2091 -0.4076 0.4074
C16A C 1.0417(6) -0.4242(6) 0.3662(5)
H14A H 1.0808 -0.5057 0.3506
C17A C 0.9073(6) -0.3631(6) 0.3567(5)
H15A H 0.8549 -0.4009 0.3318
C18A C 0.8499(6) -0.2462(6) 0.3839(4)
C19A C 0.7023(6) -0.1797(6) 0.3873(5)
C20A C 0.6147(6) -0.2333(6) 0.3483(5)
C21A C 0.5992(6) -0.3582(6) 0.3932(5)
H16A H 0.6438 -0.4105 0.4509
C22A C 0.5182(6) -0.4067(6) 0.3537(5)
H17A H 0.5087 -0.4920 0.3838
C23A C 0.4513(6) -0.3290(6) 0.2695(5)
H18A H 0.3967 -0.3618 0.2421
C24A C 0.4646(6) -0.2045(6) 0.2262(5)
H19A H 0.4181 -0.1517 0.1696
C25A C 0.5448(6) -0.1572(6) 0.2647(5)
H20A H 0.5532 -0.0715 0.2344
C26A C 0.5188(6) -0.0108(6) 0.4422(5)
H21A H 0.5064 0.0722 0.3885
H22A H 0.4594 -0.0605 0.4343
Hg2A Hg -0.17001(2) 0.00286(2) 0.46010(2)
Hg2A_2 Hg 0.82999(2) 0.00286(2) 0.46010(2)
N3A N 0.9294(6) -0.1880(5) 0.4107(4)
N3A_2 N -0.0706(6) -0.1880(5) 0.4107(4)
N4A N 0.6616(5) -0.0810(5) 0.4257(4)
N4A_2 N -0.3384(5) -0.0810(5) 0.4257(4)
loop_
_geom_bond_atom_site_label_1
_geom_bond_atom_site_label_2
_geom_bond_site_symmetry_1
_geom_bond_site_symmetry_2
Br1 Hg1 1_555 1_555
Br2 Hg1 1_555 1_555
Br3 Hg2 1_555 1_555
Br4 Hg2 1_555 1_555
C1 H1 1_555 1_555
C2 C1 1_555 1_555
H2 C2 1_555 1_555
C3 C2 1_555 1_555
H3 C3 1_555 1_555
C4 C3 1_555 1_555
H4 C4 1_555 1_555
C5 C4 1_555 1_555
C6 C5 1_555 1_555
C7 C6 1_555 1_555
C8 C7 1_555 1_555
H5 C8 1_555 1_555
C9 C8 1_555 1_555
H6 C9 1_555 1_555
C10 C9 1_555 1_555
H7 C10 1_555 1_555
C11 C10 1_555 1_555
H8 C11 1_555 1_555
C12 C7 1_555 1_555
H9 C12 1_555 1_555
N1 C6 1_555 1_555
C13 N1 1_555 1_555
H10 C13 1_555 1_555
H11 C13 1_555 1_555
C14 H12 1_555 1_555
C15 C14 1_555 1_555
H13 C15 1_555 1_555
C16 C15 1_555 1_555
H14 C16 1_555 1_555
C17 C16 1_555 1_555
H15 C17 1_555 1_555
C18 C17 1_555 1_555
C19 C18 1_555 1_555
C20 C19 1_555 1_555
C21 C20 1_555 1_555
H16 C21 1_555 1_555
C22 C21 1_555 1_555
H17 C22 1_555 1_555
C23 C22 1_555 1_555
H18 C23 1_555 1_555
C24 C23 1_555 1_555
H19 C24 1_555 1_555
C25 C20 1_555 1_555
H20 C25 1_555 1_555
C26 H21 1_555 1_555
H22 C26 1_555 1_555
Hg1 N1 1_555 1_555
Hg2 N3 1_555 1_555
N2 C1 1_555 1_555
N3 C14 1_555 1_555
N4 C19 1_555 1_555
Br1A Hg1A 1_555 1_555
Br2A Hg1A 1_555 1_555
Br3A Hg2 1_555 1_555
Br4A Hg2A 1_555 1_555
C1A H1A 1_555 1_555
C2A C1A 1_555 1_555
H2A C2A 1_555 1_555
C3A C2A 1_555 1_555
H3A C3A 1_555 1_555
C4A C3A 1_555 1_555
H4A C4A 1_555 1_555
C5A C4A 1_555 1_555
C6A C5A 1_555 1_555
C7A C6A 1_555 1_555
C8A C7A 1_555 1_555
H5A C8A 1_555 1_555
C9A C8A 1_555 1_555
H6A C9A 1_555 1_555
C10A C9A 1_555 1_555
H7A C10A 1_555 1_555
C11A C10A 1_555 1_555
H8A C11A 1_555 1_555
C12A C7A 1_555 1_555
H9A C12A 1_555 1_555
N1A C6A 1_555 1_555
C13A C13 1_555 1_555
H10A C13A 1_555 1_555
H11A C13A 1_555 1_555
C14A H12A 1_555 1_555
C15A C14A 1_555 1_555
H13A C15A 1_555 1_555
C16A C15A 1_555 1_555
H14A C16A 1_555 1_555
C17A C16A 1_555 1_555
H15A C17A 1_555 1_555
C18A C17A 1_555 1_555
C19A C18A 1_555 1_555
C20A C19A 1_555 1_555
C21A C20A 1_555 1_555
H16A C21A 1_555 1_555
C22A C21A 1_555 1_555
H17A C22A 1_555 1_555
C23A C22A 1_555 1_555
H18A C23A 1_555 1_555
C24A C23A 1_555 1_555
H19A C24A 1_555 1_555
C25A C20A 1_555 1_555
H20A C25A 1_555 1_555
C26A C26 1_555 1_555
H21A C26A 1_555 1_555
H22A C26A 1_555 1_555
Hg1A N1A 1_555 1_555
Hg2A Br3 1_555 1_555
Hg2A_2 N3A 1_555 1_555
N2A C1A 1_555 1_555
N3A C14A 1_555 1_555
N3A_2 Hg2A 1_555 1_555
N4A C19A 1_555 1_555
N4A_2 Hg2A 1_555 1_555
C5 N2 1_555 1_555
C11 C12 1_555 1_555
C18 N3 1_555 1_555
C24 C25 1_555 1_555
C26 N4 1_555 1_555
Hg1 N2 1_555 1_555
Hg2 N4 1_555 1_555
Br3A Hg2A 1_555 1_555
C5A N2A 1_555 1_555
C11A C12A 1_555 1_555
N1A C13A 1_555 1_555
C18A N3A 1_555 1_555
C24A C25A 1_555 1_555
C26A N4A 1_555 1_555
Hg1A N2A 1_555 1_555
Hg2A_2 N4A 1_555 1_555

#END
