
#######################################################################
#
#                 Cambridge Crystallographic Data Centre
#                                CCDC 
#
#######################################################################
#
# If this CIF has been generated from an entry in the Cambridge 
# Structural Database, then it will include bibliographic, chemical, 
# crystal, experimental, refinement or atomic coordinate data resulting 
# from the CCDC's data processing and validation procedures.
#
#######################################################################

data_FELRAR
_symmetry_cell_setting           monoclinic
_symmetry_space_group_name_H-M   'P 21/c'
_symmetry_Int_Tables_number      14
_space_group_name_Hall           '-P 2ybc'
loop_
_symmetry_equiv_pos_site_id
_symmetry_equiv_pos_as_xyz
1 x,y,z
2 -x,1/2+y,1/2-z
3 -x,-y,-z
4 x,1/2-y,1/2+z
_cell_length_a                   15.13(3)
_cell_length_b                   13.94(2)
_cell_length_c                   10.342(18)
_cell_angle_alpha                90
_cell_angle_beta                 103.61(2)
_cell_angle_gamma                90
_cell_volume                     2120
loop_
_atom_site_label
_atom_site_type_symbol
_atom_site_fract_x
_atom_site_fract_y
_atom_site_fract_z
Zn1 Zn 1.42264(5) 0.15407(8) 0.83715(8)
O1 O 1.5504(3) 0.1736(5) 0.8331(6)
O2 O 1.5673(4) 0.1050(5) 1.0270(6)
O3 O 2.0062(3) 0.0592(4) 0.8346(5)
O4 O 2.0105(3) 0.2337(5) 1.2074(5)
O5 O 1.3915(4) 0.0222(5) 0.7809(5)
H1 H 1.351(4) 0.025(6) 0.709(5)
H2 H 1.409(6) -0.020(5) 0.841(6)
N1 N 2.3719(4) 0.1819(5) 0.9921(6)
N2 N 2.3699(4) 0.2627(5) 1.1820(6)
N3 N 1.9832(4) 0.1465(5) 1.0098(6)
C1 C 2.4168(5) 0.2344(6) 1.0933(8)
H3 H 2.4775 0.2508 1.1024
C2 C 2.2847(4) 0.2241(6) 1.1300(7)
C3 C 2.2850(5) 0.1742(6) 1.0154(6)
C4 C 2.2077(5) 0.1278(6) 0.9404(7)
H4 H 2.2086 0.0923 0.8646
C5 C 2.1313(5) 0.1385(6) 0.9864(6)
C6 C 2.1307(4) 0.1916(6) 1.0998(7)
C7 C 2.2055(5) 0.2337(6) 1.1774(7)
H5 H 2.2044 0.2663 1.2555
C8 C 2.0358(5) 0.1076(6) 0.9295(8)
C9 C 2.0372(5) 0.1954(7) 1.1192(8)
C10 C 1.8869(5) 0.1433(6) 0.9879(8)
C11 C 1.8495(5) 0.1214(7) 1.0930(8)
H6 H 1.8869 0.1076 1.1760
C12 C 1.7571(5) 0.1198(6) 1.0753(8)
H7 H 1.7318 0.1026 1.1456
C13 C 1.8328(5) 0.1642(7) 0.8650(8)
H8 H 1.8582 0.1790 0.7939
C14 C 1.7388(5) 0.1627(7) 0.8492(8)
H9 H 1.7011 0.1749 0.7659
C15 C 1.7011(5) 0.1435(6) 0.9536(7)
C16 C 1.5993(5) 0.1392(7) 0.9388(9)
Zn1_2 Zn 2.42264(5) 0.15407(8) 0.83715(8)
Zn1C Zn 2.42264(5) 0.34593(8) 1.33715(8)
N1_2 N 1.3719(4) 0.1819(5) 0.9921(6)
N2C N 1.3699(4) 0.2373(5) 0.6820(6)
S1 S 0.8512(4) -0.0072(4) 1.4663(5)
O6 O 0.7801(5) -0.0219(7) 1.3494(7)
C17 C 0.8371(16) -0.0591(13) 1.5937(15)
H10 H 0.8228 -0.1253 1.5737
H11 H 0.7880 -0.0292 1.6228
H12 H 0.8918 -0.0546 1.6628
C18 C 0.8706(17) 0.1000(12) 1.5036(14)
H13 H 0.8761 0.1352 1.4262
H14 H 0.9261 0.1051 1.5710
H15 H 0.8214 0.1258 1.5368
C19 C 1.568(5) 0.424(4) 1.011(3)
O7 O 1.543(2) 0.515(3) 1.075(4)
loop_
_geom_bond_atom_site_label_1
_geom_bond_atom_site_label_2
_geom_bond_site_symmetry_1
_geom_bond_site_symmetry_2
Zn1 O1 1_555 1_555
O1 C16 1_555 1_555
O2 C16 1_555 1_555
O3 C8 1_555 1_555
O4 C9 1_555 1_555
O5 Zn1 1_555 1_555
H1 O5 1_555 1_555
H2 O5 1_555 1_555
N1 C1 1_555 1_555
N2 C1 1_555 1_555
N3 C8 1_555 1_555
C1 H3 1_555 1_555
C2 N2 1_555 1_555
C3 N1 1_555 1_555
C4 C3 1_555 1_555
H4 C4 1_555 1_555
C5 C4 1_555 1_555
C6 C5 1_555 1_555
C7 C2 1_555 1_555
H5 C7 1_555 1_555
C8 C5 1_555 1_555
C9 N3 1_555 1_555
C10 N3 1_555 1_555
C11 C10 1_555 1_555
H6 C11 1_555 1_555
C12 C11 1_555 1_555
H7 C12 1_555 1_555
C13 C10 1_555 1_555
H8 C13 1_555 1_555
C14 C13 1_555 1_555
H9 C14 1_555 1_555
C15 C12 1_555 1_555
C16 C15 1_555 1_555
S1 O6 1_555 1_555
C17 S1 1_555 1_555
H10 C17 1_555 1_555
H11 C17 1_555 1_555
H12 C17 1_555 1_555
C18 S1 1_555 1_555
H13 C18 1_555 1_555
H14 C18 1_555 1_555
H15 C18 1_555 1_555
C19 O7 1_555 1_555
Zn1_2 N1 1_555 1_555
Zn1C N2 1_555 1_555
N1_2 Zn1 1_555 1_555
N2C Zn1 1_555 1_555
C2 C3 1_555 1_555
C6 C7 1_555 1_555
C6 C9 1_555 1_555
C14 C15 1_555 1_555

#END
