
#######################################################################
#
#                 Cambridge Crystallographic Data Centre
#                                CCDC 
#
#######################################################################
#
# If this CIF has been generated from an entry in the Cambridge 
# Structural Database, then it will include bibliographic, chemical, 
# crystal, experimental, refinement or atomic coordinate data resulting 
# from the CCDC's data processing and validation procedures.
#
#######################################################################

data_FELRIZ
_symmetry_cell_setting           monoclinic
_symmetry_space_group_name_H-M   'P 21/n'
_symmetry_Int_Tables_number      14
_space_group_name_Hall           '-P 2yn'
loop_
_symmetry_equiv_pos_site_id
_symmetry_equiv_pos_as_xyz
1 x,y,z
2 1/2-x,1/2+y,1/2-z
3 -x,-y,-z
4 1/2+x,1/2-y,1/2+z
_cell_length_a                   11.7035(6)
_cell_length_b                   8.6041(5)
_cell_length_c                   23.7693(11)
_cell_angle_alpha                90
_cell_angle_beta                 91.709(4)
_cell_angle_gamma                90
_cell_volume                     2392.46
loop_
_atom_site_label
_atom_site_type_symbol
_atom_site_fract_x
_atom_site_fract_y
_atom_site_fract_z
Cu1 Cu 0.09165(3) 0.57128(5) 0.208540(14)
S1 S -0.05071(8) 0.32040(12) 0.14887(4)
O1 O -0.4197(2) 0.7793(3) -0.02743(9)
O2 O -0.1338(2) 1.1193(3) 0.02278(9)
O3 O -0.02130(18) 0.6691(3) 0.15839(9)
O4 O -0.0992(2) 0.7217(4) 0.24022(9)
O5 O -0.0071(2) 0.3803(3) 0.20599(9)
O6 O 0.1984(2) 0.4522(3) 0.13061(11)
N1 N -0.3098(2) 1.0442(3) -0.23598(10)
N2 N -0.1872(2) 1.2358(3) -0.20856(10)
N3 N -0.2740(2) 0.9313(3) 0.01139(10)
N4 N 0.2573(4) 0.5191(5) 0.0449(2)
C1 C -0.2482(3) 1.1683(4) -0.24980(12)
H1 H -0.2480 1.2057 -0.2865
C2 C -0.2911(3) 1.0303(4) -0.17841(12)
C3 C -0.2118(3) 1.1473(4) -0.16159(12)
C4 C -0.1726(3) 1.1612(4) -0.10574(12)
H2 H -0.1182 1.2344 -0.0944
C5 C -0.2202(3) 1.0592(4) -0.06867(12)
C6 C -0.3044(3) 0.9502(4) -0.08449(12)
C7 C -0.3401(3) 0.9297(4) -0.14012(12)
H3 H -0.3931 0.8541 -0.1511
C8 C -0.3434(3) 0.8711(4) -0.03295(13)
C9 C -0.1998(3) 1.0469(4) -0.00703(13)
C10 C -0.2846(3) 0.8924(4) 0.06991(12)
C11 C -0.3826(3) 0.9305(5) 0.09698(15)
H4 H -0.4437 0.9764 0.0773
C12 C -0.3897(3) 0.8998(6) 0.15411(16)
H5 H -0.4558 0.9241 0.1730
C13 C -0.2985(3) 0.8333(6) 0.18257(14)
H6 H -0.3032 0.8147 0.2210
C14 C -0.2007(3) 0.7936(4) 0.15585(13)
C15 C -0.1944(3) 0.8229(4) 0.09833(12)
H7 H -0.1292 0.7955 0.0792
C16 C -0.1007(3) 0.7241(4) 0.18833(14)
C17 C -0.1957(4) 0.2814(7) 0.1562(2)
H8 H -0.2369 0.3775 0.1587
H9 H -0.2060 0.2218 0.1898
H10 H -0.2239 0.2236 0.1242
C18 C 0.0028(5) 0.1313(6) 0.1468(2)
H11 H 0.0840 0.1345 0.1423
H12 H -0.0325 0.0765 0.1157
H13 H -0.0137 0.0788 0.1813
C19 C 0.2736(5) 0.5009(6) 0.0977(2)
C20 C 0.1419(5) 0.4760(7) 0.0222(2)
H14 H 0.0964 0.4377 0.0521
H15 H 0.1490 0.3967 -0.0059
H16 H 0.1057 0.5658 0.0056
C21 C 0.3437(6) 0.5782(7) 0.0060(3)
H17 H 0.4133 0.6009 0.0268
H18 H 0.3157 0.6711 -0.0120
H19 H 0.3582 0.5009 -0.0220
C22 C 0.3936(4) 0.5440(6) 0.1225(3)
H20 H 0.4505 0.4815 0.1049
H21 H 0.3960 0.5252 0.1623
H22 H 0.4086 0.6518 0.1155
Cu1C Cu -0.40835(3) 0.92872(5) -0.291460(14)
Cu1B Cu -0.09165(3) 1.42872(5) -0.208540(14)
N1C N 0.1902(2) 0.4558(3) 0.26402(10)
N2B N 0.1872(2) 0.7642(3) 0.20856(10)
loop_
_geom_bond_atom_site_label_1
_geom_bond_atom_site_label_2
_geom_bond_site_symmetry_1
_geom_bond_site_symmetry_2
Cu1 O3 1_555 1_555
S1 O5 1_555 1_555
O1 C8 1_555 1_555
O2 C9 1_555 1_555
O3 C16 1_555 1_555
O4 C16 1_555 1_555
O5 Cu1 1_555 1_555
O6 Cu1 1_555 1_555
N1 C1 1_555 1_555
N2 C1 1_555 1_555
N3 C8 1_555 1_555
N4 C19 1_555 1_555
C1 H1 1_555 1_555
C2 N1 1_555 1_555
C3 N2 1_555 1_555
C4 C3 1_555 1_555
H2 C4 1_555 1_555
C5 C4 1_555 1_555
C6 C5 1_555 1_555
C7 C2 1_555 1_555
H3 C7 1_555 1_555
C8 C6 1_555 1_555
C9 N3 1_555 1_555
C10 N3 1_555 1_555
C11 C10 1_555 1_555
H4 C11 1_555 1_555
C12 C11 1_555 1_555
H5 C12 1_555 1_555
C13 C12 1_555 1_555
H6 C13 1_555 1_555
C14 C13 1_555 1_555
C15 C10 1_555 1_555
H7 C15 1_555 1_555
C16 C14 1_555 1_555
C17 S1 1_555 1_555
H8 C17 1_555 1_555
H9 C17 1_555 1_555
H10 C17 1_555 1_555
C18 S1 1_555 1_555
H11 C18 1_555 1_555
H12 C18 1_555 1_555
H13 C18 1_555 1_555
C19 O6 1_555 1_555
C20 N4 1_555 1_555
H14 C20 1_555 1_555
H15 C20 1_555 1_555
H16 C20 1_555 1_555
C21 N4 1_555 1_555
H17 C21 1_555 1_555
H18 C21 1_555 1_555
H19 C21 1_555 1_555
C22 C19 1_555 1_555
H20 C22 1_555 1_555
H21 C22 1_555 1_555
H22 C22 1_555 1_555
Cu1C N1 1_555 1_555
Cu1B N2 1_555 1_555
N1C Cu1 1_555 1_555
N2B Cu1 1_555 1_555
C2 C3 1_555 1_555
C5 C9 1_555 1_555
C6 C7 1_555 1_555
C14 C15 1_555 1_555

#END
