
#######################################################################
#
#                 Cambridge Crystallographic Data Centre
#                                CCDC 
#
#######################################################################
#
# If this CIF has been generated from an entry in the Cambridge 
# Structural Database, then it will include bibliographic, chemical, 
# crystal, experimental, refinement or atomic coordinate data resulting 
# from the CCDC's data processing and validation procedures.
#
#######################################################################

data_FELVEY
_symmetry_cell_setting           triclinic
_symmetry_space_group_name_H-M   'P -1'
_symmetry_Int_Tables_number      2
_space_group_name_Hall           '-P 1'
loop_
_symmetry_equiv_pos_site_id
_symmetry_equiv_pos_as_xyz
1 x,y,z
2 -x,-y,-z
_cell_length_a                   11.983(5)
_cell_length_b                   12.272(6)
_cell_length_c                   14.846(9)
_cell_angle_alpha                106.90(4)
_cell_angle_beta                 110.96(6)
_cell_angle_gamma                101.17(4)
_cell_volume                     1839.21
loop_
_atom_site_label
_atom_site_type_symbol
_atom_site_fract_x
_atom_site_fract_y
_atom_site_fract_z
Rh1 Rh 0.9841(13) 0.0244(10) 0.9244(7)
O1 O 0.882(6) -0.153(6) 0.833(4)
O2 O 0.918(6) -0.201(5) 0.975(4)
O3 O 0.825(6) 0.052(6) 0.934(4)
O4 O 0.862(6) 0.004(6) 1.075(4)
C1 C 0.870(10) -0.227(8) 0.876(6)
C2 C 0.798(9) 0.036(9) 1.005(7)
C3 C 0.796(9) -0.358(9) 0.805(6)
C4 C 0.683(9) 0.064(9) 1.011(7)
F1 F 0.728(7) -0.411(6) 0.844(5)
F2 F 0.870(7) -0.421(7) 0.792(5)
F3 F 0.716(7) -0.372(6) 0.711(5)
F4 F 0.594(7) 0.042(6) 0.918(5)
F5 F 0.631(7) 0.000(7) 1.052(5)
F6 F 0.711(7) 0.179(6) 1.070(5)
Rh2 Rh 0.5479(11) -0.4043(10) 0.0732(7)
O5 O 0.535(6) -0.328(5) -0.033(4)
O6 O 0.449(6) -0.510(6) -0.168(4)
O7 O 0.720(6) -0.413(6) 0.084(4)
O8 O 0.634(6) -0.595(5) -0.051(4)
C5 C 0.490(10) -0.395(9) -0.129(6)
C6 C 0.727(9) -0.504(9) 0.021(7)
C7 C 0.480(10) -0.334(9) -0.205(7)
C8 C 0.858(9) -0.507(9) 0.037(6)
F7 F 0.484(7) -0.401(6) -0.291(5)
F8 F 0.372(7) -0.311(6) -0.237(5)
F9 F 0.572(7) -0.229(6) -0.163(5)
F10 F 0.943(7) -0.445(6) 0.136(5)
F11 F 0.898(7) -0.461(7) -0.021(5)
F12 F 0.862(7) -0.618(6) 0.012(5)
Si1 Si 0.806(4) 0.132(3) 0.484(2)
C9 C 0.956(14) 0.208(12) 0.480(10)
C10 C 1.070(15) 0.192(13) 0.534(10)
C11 C 1.182(15) 0.262(14) 0.547(10)
C12 C 1.185(13) 0.342(12) 0.500(11)
C13 C 1.073(14) 0.358(13) 0.444(10)
C14 C 0.960(15) 0.292(13) 0.435(10)
C15 C 0.728(14) -0.017(13) 0.370(9)
C16 C 0.766(16) -0.030(14) 0.287(10)
C17 C 0.710(16) -0.142(13) 0.205(9)
N1 N 0.634(13) -0.232(12) 0.205(8)
C18 C 0.599(15) -0.226(14) 0.282(9)
C19 C 0.647(15) -0.116(14) 0.363(10)
C20 C 0.691(16) 0.221(15) 0.478(11)
C21 C 0.741(15) 0.347(16) 0.529(11)
C22 C 0.659(15) 0.410(13) 0.533(10)
C23 C 0.530(14) 0.353(12) 0.482(12)
C24 C 0.485(14) 0.228(13) 0.430(10)
C25 C 0.564(15) 0.163(14) 0.426(10)
C26 C 0.858(14) 0.108(14) 0.609(9)
C27 C 0.984(15) 0.175(14) 0.690(9)
C28 C 1.028(15) 0.153(15) 0.778(9)
N2 N 0.956(13) 0.068(12) 0.789(8)
C29 C 0.839(16) 0.002(14) 0.715(10)
C30 C 0.788(15) 0.016(14) 0.623(10)
H1 H 1.069 0.133 0.562
H2 H 1.257 0.254 0.588
H3 H 1.262 0.386 0.506
H4 H 1.075 0.413 0.412
H5 H 0.885 0.303 0.397
H6 H 0.825 0.034 0.288
H7 H 0.727 -0.153 0.147
H8 H 0.545 -0.293 0.280
H9 H 0.623 -0.109 0.417
H10 H 0.827 0.389 0.561
H11 H 0.696 0.493 0.571
H12 H 0.474 0.396 0.482
H13 H 0.398 0.188 0.397
H14 H 0.531 0.080 0.389
H15 H 1.034 0.236 0.683
H16 H 1.110 0.197 0.830
H17 H 0.790 -0.055 0.727
H18 H 0.708 -0.035 0.570
Rh1A Rh 1.0159(13) -0.0244(10) 1.0756(7)
O2A O 1.082(6) 0.201(5) 1.025(4)
O4A O 1.138(6) -0.004(6) 0.925(4)
Rh2A Rh 0.4521(11) -0.5957(10) -0.0732(7)
O6A O 0.551(6) -0.490(6) 0.168(4)
O8A O 0.366(6) -0.405(5) 0.051(4)
loop_
_geom_bond_atom_site_label_1
_geom_bond_atom_site_label_2
_geom_bond_site_symmetry_1
_geom_bond_site_symmetry_2
Rh1 O1 1_555 1_555
O1 C1 1_555 1_555
O2 C1 1_555 1_555
O3 Rh1 1_555 1_555
O4 C2 1_555 1_555
C1 C3 1_555 1_555
C2 O3 1_555 1_555
C3 F1 1_555 1_555
C4 C2 1_555 1_555
F2 C3 1_555 1_555
F3 C3 1_555 1_555
F4 C4 1_555 1_555
F5 C4 1_555 1_555
F6 C4 1_555 1_555
Rh2 O5 1_555 1_555
O5 C5 1_555 1_555
O6 C5 1_555 1_555
O7 Rh2 1_555 1_555
O8 C6 1_555 1_555
C5 C7 1_555 1_555
C6 O7 1_555 1_555
C7 F7 1_555 1_555
C8 C6 1_555 1_555
F8 C7 1_555 1_555
F9 C7 1_555 1_555
F10 C8 1_555 1_555
F11 C8 1_555 1_555
F12 C8 1_555 1_555
Si1 C9 1_555 1_555
C9 C10 1_555 1_555
C10 C11 1_555 1_555
C11 C12 1_555 1_555
C12 C13 1_555 1_555
C13 C14 1_555 1_555
C14 C9 1_555 1_555
C15 Si1 1_555 1_555
C16 C15 1_555 1_555
C17 C16 1_555 1_555
N1 Rh2 1_555 1_555
C18 N1 1_555 1_555
C19 C15 1_555 1_555
C20 Si1 1_555 1_555
C21 C20 1_555 1_555
C22 C21 1_555 1_555
C23 C22 1_555 1_555
C24 C23 1_555 1_555
C25 C20 1_555 1_555
C26 Si1 1_555 1_555
C27 C26 1_555 1_555
C28 C27 1_555 1_555
N2 Rh1 1_555 1_555
C29 N2 1_555 1_555
C30 C26 1_555 1_555
H1 C10 1_555 1_555
H2 C11 1_555 1_555
H3 C12 1_555 1_555
H4 C13 1_555 1_555
H5 C14 1_555 1_555
H6 C16 1_555 1_555
H7 C17 1_555 1_555
H8 C18 1_555 1_555
H9 C19 1_555 1_555
H10 C21 1_555 1_555
H11 C22 1_555 1_555
H12 C23 1_555 1_555
H13 C24 1_555 1_555
H14 C25 1_555 1_555
H15 C27 1_555 1_555
H16 C28 1_555 1_555
H17 C29 1_555 1_555
H18 C30 1_555 1_555
Rh1A Rh1 1_555 1_555
O2A Rh1 1_555 1_555
O4A Rh1 1_555 1_555
Rh2A Rh2 1_555 1_555
O6A Rh2 1_555 1_555
O8A Rh2 1_555 1_555
O2 Rh1A 1_555 1_555
O4 Rh1A 1_555 1_555
O6 Rh2A 1_555 1_555
O8 Rh2A 1_555 1_555
C17 N1 1_555 1_555
C18 C19 1_555 1_555
C24 C25 1_555 1_555
C28 N2 1_555 1_555
C29 C30 1_555 1_555

#END
