
#######################################################################
#
#                 Cambridge Crystallographic Data Centre
#                                CCDC 
#
#######################################################################
#
# If this CIF has been generated from an entry in the Cambridge 
# Structural Database, then it will include bibliographic, chemical, 
# crystal, experimental, refinement or atomic coordinate data resulting 
# from the CCDC's data processing and validation procedures.
#
#######################################################################

data_FEMSIZ
_symmetry_cell_setting           tetragonal
_symmetry_space_group_name_H-M   'I 41 c d'
_symmetry_Int_Tables_number      110
_space_group_name_Hall           'I 4bw -2c'
loop_
_symmetry_equiv_pos_site_id
_symmetry_equiv_pos_as_xyz
1 x,y,z
2 1/2+x,1/2+y,1/2+z
3 -y,1/2+x,1/4+z
4 -x,y,1/2+z
5 1/2-y,x,3/4+z
6 1/2-x,1/2+y,z
7 1/2-x,1/2-y,1/2+z
8 -y,1/2-x,3/4+z
9 -x,-y,z
10 1/2-y,-x,1/4+z
11 1/2+y,-x,3/4+z
12 1/2+x,1/2-y,z
13 y,1/2-x,1/4+z
14 x,-y,1/2+z
15 1/2+y,x,1/4+z
16 y,1/2+x,3/4+z
_cell_length_a                   24.296(7)
_cell_length_b                   24.296(7)
_cell_length_c                   7.108(9)
_cell_angle_alpha                90
_cell_angle_beta                 90
_cell_angle_gamma                90
_cell_volume                     4195.82
loop_
_atom_site_label
_atom_site_type_symbol
_atom_site_fract_x
_atom_site_fract_y
_atom_site_fract_z
Cd1 Cd 0.34314(4) 0.03643(4) 0.75000
Cl1 Cl 0.3699(2) 0.1367(1) 0.7683(8)
Cl2 Cl 0.4116(2) -0.0167(2) 0.9620(6)
S1 S 0.2834(2) -0.0508(2) 0.6092(6)
C1 C 0.2378(5) 0.0036(6) 0.5684(22)
C2 C 0.2173(6) 0.0961(6) 0.5722(21)
C3 C 0.1639(6) 0.0876(6) 0.4986(31)
C4 C 0.1485(6) 0.0326(6) 0.4612(18)
N1 N 0.1860(4) -0.0090(4) 0.4985(24)
N2 N 0.2533(5) 0.0542(4) 0.6072(19)
N3 N 0.2348(6) 0.1475(5) 0.6087(28)
N4 N 0.0989(6) 0.0159(6) 0.3882(24)
Cl2M Cl 0.4116(2) 0.0167(2) 0.4620(6)
S1M S 0.2834(2) 0.0508(2) 1.1092(6)
Cd1M Cd 0.34314(4) -0.03643(4) 1.25000
Cd1M_2 Cd 0.34314(4) -0.03643(4) 0.25000
C1M C 0.2378(5) -0.0036(6) 1.0684(22)
Cl1M Cl 0.3699(2) -0.1367(1) 1.2683(8)
Cl2M_2 Cl 0.4116(2) 0.0167(2) 1.4620(6)
S1_2 S 0.2834(2) -0.0508(2) 1.6092(6)
N2M N 0.2533(5) -0.0542(4) 1.1072(19)
N1M N 0.1860(4) 0.0090(4) 0.9985(24)
C2M C 0.2173(6) -0.0961(6) 1.0722(21)
C4M C 0.1485(6) -0.0326(6) 0.9612(18)
C3M C 0.1639(6) -0.0876(6) 0.9986(31)
N3M N 0.2348(6) -0.1475(5) 1.1087(28)
N4M N 0.0989(6) -0.0159(6) 0.8882(24)
O1 O 0.2581(6) 0.1885(6) 0.1359(29)
loop_
_geom_bond_atom_site_label_1
_geom_bond_atom_site_label_2
_geom_bond_site_symmetry_1
_geom_bond_site_symmetry_2
Cd1 Cl1 1_555 1_555
Cl2 Cd1 1_555 1_555
S1 Cd1 1_555 1_555
C1 S1 1_555 1_555
C2 C3 1_555 1_555
C3 C4 1_555 1_555
C4 N1 1_555 1_555
N1 C1 1_555 1_555
N2 Cd1 1_555 1_555
N3 C2 1_555 1_555
N4 C4 1_555 1_555
Cl2M Cd1 1_555 1_555
S1M Cd1 1_555 1_555
Cd1M Cl2 1_555 1_555
Cd1M_2 S1 1_555 1_555
C1M S1M 1_555 1_555
Cl1M Cd1M 1_555 1_555
Cl2M_2 Cd1M 1_555 1_555
S1_2 Cd1M 1_555 1_555
N2M Cd1M 1_555 1_555
N1M C1M 1_555 1_555
C2M N2M 1_555 1_555
C4M N1M 1_555 1_555
C3M C2M 1_555 1_555
N3M C2M 1_555 1_555
N4M C4M 1_555 1_555
C1 N2 1_555 1_555
C2 N2 1_555 1_555
Cl2M Cd1M_2 1_555 1_555
S1M Cd1M 1_555 1_555
C1M N2M 1_555 1_555
C4M C3M 1_555 1_555

#END
