
#######################################################################
#
#                 Cambridge Crystallographic Data Centre
#                                CCDC 
#
#######################################################################
#
# If this CIF has been generated from an entry in the Cambridge 
# Structural Database, then it will include bibliographic, chemical, 
# crystal, experimental, refinement or atomic coordinate data resulting 
# from the CCDC's data processing and validation procedures.
#
#######################################################################

data_FENBAC
_symmetry_cell_setting           triclinic
_symmetry_space_group_name_H-M   'P -1'
_symmetry_Int_Tables_number      2
_space_group_name_Hall           '-P 1'
loop_
_symmetry_equiv_pos_site_id
_symmetry_equiv_pos_as_xyz
1 x,y,z
2 -x,-y,-z
_cell_length_a                   11.842(4)
_cell_length_b                   14.525(5)
_cell_length_c                   16.168(5)
_cell_angle_alpha                84.198(6)
_cell_angle_beta                 69.245(5)
_cell_angle_gamma                89.964(5)
_cell_volume                     2585.33
loop_
_atom_site_label
_atom_site_type_symbol
_atom_site_fract_x
_atom_site_fract_y
_atom_site_fract_z
La1 La 0.67887(3) 0.05603(2) 0.96174(2)
La2 La 0.33306(3) 0.43806(2) 0.51378(2)
N1 N 0.8369(5) 0.0333(4) 0.7945(3)
N2 N 0.7440(5) 0.2031(4) 0.8325(3)
N3 N 0.3280(5) 0.2522(3) 0.5640(3)
N4 N 0.1883(5) 0.3678(4) 0.6815(3)
O1 O 0.5247(4) 0.0279(3) 0.8961(2)
O2 O 0.3530(4) 0.0024(3) 0.8760(2)
O3 O 0.4873(4) 0.4234(3) 0.5842(2)
O4 O 0.6617(5) 0.4265(4) 0.6021(3)
O5 O 0.5236(4) 0.1712(3) 1.0241(2)
O6 O 0.3384(4) 0.1137(3) 1.0465(2)
O7 O 0.2499(4) 0.3599(3) 1.4221(3)
O8 O 0.0977(4) 0.4164(3) 1.3876(3)
O9 O 0.6949(4) 0.4278(3) 1.3960(2)
O10 O 0.5126(4) 0.3784(3) 1.4013(2)
O11 O 0.9131(4) 0.1098(3) 1.0775(3)
O12 O 0.7929(4) 0.1685(3) 1.0085(2)
O13 O 0.8730(4) -0.0157(3) 0.9713(3)
H1 H 0.9259 -0.0569 0.9592
H2 H 0.8829 0.0177 1.0086
O14 O 0.1154(4) 0.4872(3) 0.5381(2)
H3 H 0.1042 0.4757 0.4912
H4 H 0.0695 0.5295 0.5625
C1 C 0.8802(7) -0.0487(5) 0.7744(4)
H5 H 0.8512 -0.0990 0.8175
C2 C 0.9663(7) -0.0648(6) 0.6930(5)
H6 H 0.9925 -0.1241 0.6813
C3 C 1.0108(7) 0.0097(7) 0.6309(5)
H7 H 1.0694 0.0009 0.5763
C4 C 0.9708(7) 0.0988(6) 0.6472(4)
C5 C 1.0141(7) 0.1801(7) 0.5857(5)
H8 H 1.0755 0.1753 0.5314
C6 C 0.9680(7) 0.2632(6) 0.6046(5)
H9 H 0.9967 0.3143 0.5624
C7 C 0.8766(7) 0.2748(6) 0.6875(4)
C8 C 0.8247(8) 0.3599(6) 0.7097(5)
H10 H 0.8513 0.4129 0.6698
C9 C 0.7370(8) 0.3646(5) 0.7885(5)
H11 H 0.7020 0.4209 0.8031
C10 C 0.6975(7) 0.2849(5) 0.8493(4)
H12 H 0.6361 0.2898 0.9037
C11 C 0.8318(6) 0.1960(5) 0.7515(4)
C12 C 0.8807(6) 0.1070(5) 0.7313(4)
C13 C 0.3931(7) 0.1955(5) 0.5069(4)
H13 H 0.4379 0.2198 0.4489
C14 C 0.3960(7) 0.1007(5) 0.5312(5)
H14 H 0.4429 0.0629 0.4900
C15 C 0.3303(7) 0.0643(5) 0.6150(5)
H15 H 0.3330 0.0013 0.6312
C16 C 0.2586(7) 0.1196(5) 0.6775(4)
C17 C 0.1824(7) 0.0857(5) 0.7660(5)
H16 H 0.1827 0.0234 0.7857
C18 C 0.1105(7) 0.1423(6) 0.8211(4)
H17 H 0.0597 0.1180 0.8775
C19 C 0.1106(6) 0.2401(5) 0.7943(4)
C20 C 0.0368(7) 0.2992(6) 0.8515(4)
H18 H -0.0143 0.2762 0.9083
C21 C 0.0407(7) 0.3910(5) 0.8231(4)
H19 H -0.0082 0.4320 0.8596
C22 C 0.1200(6) 0.4219(5) 0.7378(4)
H20 H 0.1248 0.4851 0.7196
C23 C 0.1859(6) 0.2759(5) 0.7085(4)
C24 C 0.2597(6) 0.2149(4) 0.6482(4)
C25 C 0.4487(6) 0.0475(4) 0.8577(4)
C26 C 0.4774(5) 0.1331(4) 0.7899(3)
C27 C 0.4132(6) 0.2099(5) 0.8128(4)
H21 H 0.3513 0.2078 0.8680
C28 C 0.4377(6) 0.2920(4) 0.7556(4)
H22 H 0.3917 0.3434 0.7726
C29 C 0.5297(5) 0.2971(4) 0.6743(4)
C30 C 0.5965(6) 0.2176(4) 0.6457(3)
C31 C 0.5684(5) 0.1329(4) 0.7044(4)
C32 C 0.6315(6) 0.0525(5) 0.6752(4)
H23 H 0.6142 -0.0024 0.7131
C33 C 0.7171(7) 0.0544(5) 0.5923(4)
H24 H 0.7572 0.0010 0.5735
C34 C 0.7449(7) 0.1379(5) 0.5350(4)
H25 H 0.8039 0.1391 0.4786
C35 C 0.6865(6) 0.2168(5) 0.5609(4)
H26 H 0.7065 0.2710 0.5221
C36 C 0.5616(6) 0.3881(5) 0.6160(4)
C37 C 0.4109(5) 0.1685(4) 1.0603(3)
C38 C 0.3559(5) 0.2346(4) 1.1302(3)
C39 C 0.4107(6) 0.2429(5) 1.1910(4)
H27 H 0.4853 0.2171 1.1826
C40 C 0.3551(6) 0.2902(4) 1.2661(4)
H28 H 0.3946 0.2956 1.3060
C41 C 0.2449(6) 0.3284(4) 1.2822(4)
C42 C 0.1883(6) 0.3264(4) 1.2171(3)
C43 C 0.2455(6) 0.2783(4) 1.1408(4)
C44 C 0.1910(6) 0.2793(4) 1.0751(4)
H29 H 0.2285 0.2501 1.0242
C45 C 0.0853(6) 0.3219(5) 1.0853(4)
H30 H 0.0517 0.3215 1.0413
C46 C 0.0265(7) 0.3662(5) 1.1608(4)
H31 H -0.0464 0.3943 1.1676
C47 C 0.0774(6) 0.3681(5) 1.2251(4)
H32 H 0.0376 0.3976 1.2754
C48 C 0.1914(6) 0.3723(4) 1.3697(4)
C49 C 0.6258(6) 0.3850(4) 1.3688(4)
C50 C 0.6839(5) 0.3315(4) 1.2888(3)
C51 C 0.7354(7) 0.2498(4) 1.2975(4)
H33 H 0.7371 0.2267 1.3528
C52 C 0.7863(6) 0.1991(5) 1.2244(4)
H34 H 0.8215 0.1432 1.2324
C53 C 0.7855(5) 0.2297(4) 1.1419(3)
C54 C 0.7376(5) 0.3177(4) 1.1285(3)
C55 C 0.6859(6) 0.3681(4) 1.2037(4)
C56 C 0.6384(8) 0.4555(5) 1.1894(4)
H35 H 0.6020 0.4882 1.2381
C57 C 0.6439(10) 0.4933(6) 1.1082(5)
H36 H 0.6114 0.5506 1.1012
C58 C 0.6996(10) 0.4444(5) 1.0346(5)
H37 H 0.7075 0.4714 0.9780
C59 C 0.7421(7) 0.3589(5) 1.0439(4)
H38 H 0.7746 0.3268 0.9943
C60 C 0.8353(5) 0.1654(4) 1.0705(3)
La1A La 0.32113(3) -0.05603(2) 1.03826(2)
La2A La 0.66694(3) 0.56194(2) 0.48622(2)
La2_2 La 0.33306(3) 0.43806(2) 1.51378(2)
La2A_2 La 0.66694(3) 0.56194(2) 1.48622(2)
O2A O 0.6470(4) -0.0024(3) 1.1240(2)
O4A O 0.3383(5) 0.5735(4) 0.3979(3)
O6A O 0.6616(4) -0.1137(3) 0.9535(2)
O7_2 O 0.2499(4) 0.3599(3) 0.4221(3)
O9A O 0.3051(4) 0.5722(3) 0.6040(2)
O10_2 O 0.5126(4) 0.3784(3) 0.4013(2)
loop_
_geom_bond_atom_site_label_1
_geom_bond_atom_site_label_2
_geom_bond_site_symmetry_1
_geom_bond_site_symmetry_2
La1 N1 1_555 1_555
La2 N3 1_555 1_555
N1 C1 1_555 1_555
N2 La1 1_555 1_555
N3 C13 1_555 1_555
N4 La2 1_555 1_555
O1 La1 1_555 1_555
O2 C25 1_555 1_555
O3 La2 1_555 1_555
O4 C36 1_555 1_555
O5 La1 1_555 1_555
O6 C37 1_555 1_555
O7 C48 1_555 1_555
O8 C48 1_555 1_555
O9 C49 1_555 1_555
O10 C49 1_555 1_555
O11 C60 1_555 1_555
O12 La1 1_555 1_555
O13 La1 1_555 1_555
H1 O13 1_555 1_555
H2 O13 1_555 1_555
O14 La2 1_555 1_555
H3 O14 1_555 1_555
H4 O14 1_555 1_555
C1 H5 1_555 1_555
C2 C1 1_555 1_555
H6 C2 1_555 1_555
C3 C2 1_555 1_555
H7 C3 1_555 1_555
C4 C3 1_555 1_555
C5 C4 1_555 1_555
H8 C5 1_555 1_555
C6 C5 1_555 1_555
H9 C6 1_555 1_555
C7 C6 1_555 1_555
C8 C7 1_555 1_555
H10 C8 1_555 1_555
C9 C8 1_555 1_555
H11 C9 1_555 1_555
C10 N2 1_555 1_555
H12 C10 1_555 1_555
C11 N2 1_555 1_555
C12 N1 1_555 1_555
C13 H13 1_555 1_555
C14 C13 1_555 1_555
H14 C14 1_555 1_555
C15 C14 1_555 1_555
H15 C15 1_555 1_555
C16 C15 1_555 1_555
C17 C16 1_555 1_555
H16 C17 1_555 1_555
C18 C17 1_555 1_555
H17 C18 1_555 1_555
C19 C18 1_555 1_555
C20 C19 1_555 1_555
H18 C20 1_555 1_555
C21 C20 1_555 1_555
H19 C21 1_555 1_555
C22 N4 1_555 1_555
H20 C22 1_555 1_555
C23 N4 1_555 1_555
C24 N3 1_555 1_555
C25 O1 1_555 1_555
C26 C25 1_555 1_555
C27 C26 1_555 1_555
H21 C27 1_555 1_555
C28 C27 1_555 1_555
H22 C28 1_555 1_555
C29 C28 1_555 1_555
C30 C29 1_555 1_555
C31 C26 1_555 1_555
C32 C31 1_555 1_555
H23 C32 1_555 1_555
C33 C32 1_555 1_555
H24 C33 1_555 1_555
C34 C33 1_555 1_555
H25 C34 1_555 1_555
C35 C30 1_555 1_555
H26 C35 1_555 1_555
C36 O3 1_555 1_555
C37 O5 1_555 1_555
C38 C37 1_555 1_555
C39 C38 1_555 1_555
H27 C39 1_555 1_555
C40 C39 1_555 1_555
H28 C40 1_555 1_555
C41 C40 1_555 1_555
C42 C41 1_555 1_555
C43 C38 1_555 1_555
C44 C43 1_555 1_555
H29 C44 1_555 1_555
C45 C44 1_555 1_555
H30 C45 1_555 1_555
C46 C45 1_555 1_555
H31 C46 1_555 1_555
C47 C42 1_555 1_555
H32 C47 1_555 1_555
C48 C41 1_555 1_555
C49 C50 1_555 1_555
C50 C51 1_555 1_555
C51 H33 1_555 1_555
C52 C51 1_555 1_555
H34 C52 1_555 1_555
C53 C52 1_555 1_555
C54 C53 1_555 1_555
C55 C50 1_555 1_555
C56 C55 1_555 1_555
H35 C56 1_555 1_555
C57 C56 1_555 1_555
H36 C57 1_555 1_555
C58 C57 1_555 1_555
H37 C58 1_555 1_555
C59 C54 1_555 1_555
H38 C59 1_555 1_555
C60 O12 1_555 1_555
La1A O2 1_555 1_555
La2A O4 1_555 1_555
La2_2 O7 1_555 1_555
La2A_2 O9 1_555 1_555
O2A La1 1_555 1_555
O4A La2 1_555 1_555
O6A La1 1_555 1_555
O7_2 La2 1_555 1_555
O9A La2 1_555 1_555
O10_2 La2 1_555 1_555
O6 La1A 1_555 1_555
O10 La2_2 1_555 1_555
C4 C12 1_555 1_555
C7 C11 1_555 1_555
C9 C10 1_555 1_555
C11 C12 1_555 1_555
C16 C24 1_555 1_555
C19 C23 1_555 1_555
C21 C22 1_555 1_555
C23 C24 1_555 1_555
C29 C36 1_555 1_555
C30 C31 1_555 1_555
C34 C35 1_555 1_555
C42 C43 1_555 1_555
C46 C47 1_555 1_555
C53 C60 1_555 1_555
C54 C55 1_555 1_555
C58 C59 1_555 1_555

#END
