
#######################################################################
#
#                 Cambridge Crystallographic Data Centre
#                                CCDC 
#
#######################################################################
#
# If this CIF has been generated from an entry in the Cambridge 
# Structural Database, then it will include bibliographic, chemical, 
# crystal, experimental, refinement or atomic coordinate data resulting 
# from the CCDC's data processing and validation procedures.
#
#######################################################################

data_FENBEG
_symmetry_cell_setting           triclinic
_symmetry_space_group_name_H-M   'P -1'
_symmetry_Int_Tables_number      2
_space_group_name_Hall           '-P 1'
loop_
_symmetry_equiv_pos_site_id
_symmetry_equiv_pos_as_xyz
1 x,y,z
2 -x,-y,-z
_cell_length_a                   11.675(4)
_cell_length_b                   14.311(5)
_cell_length_c                   16.114(6)
_cell_angle_alpha                84.024(6)
_cell_angle_beta                 68.908(5)
_cell_angle_gamma                88.579(6)
_cell_volume                     2498.08
loop_
_atom_site_label
_atom_site_type_symbol
_atom_site_fract_x
_atom_site_fract_y
_atom_site_fract_z
Eu1 Eu 0.85447(3) 0.55634(2) 0.460654(19)
Eu2 Eu 0.34458(3) 0.06474(2) 0.985581(19)
N1 N 0.9140(5) 0.7031(4) 0.3397(3)
N2 N 0.8577(5) 0.5332(4) 0.3003(3)
N3 N 0.3852(5) 0.2459(3) 0.9411(3)
N4 N 0.3636(5) 0.1309(4) 0.8234(3)
O1 O 0.7470(4) 0.4968(3) 0.6150(3)
O2 O 0.9338(4) 0.4648(3) 0.6106(3)
O3 O 0.5572(4) 0.0818(3) 0.9171(3)
O4 O 0.7519(4) 0.0638(3) 0.8998(3)
O5 O 0.9402(4) 0.6627(3) 0.5283(3)
O6 O 1.1125(4) 0.6086(3) 0.5449(3)
O7 O 0.8255(4) 0.8568(3) 0.9249(3)
O8 O 1.0106(5) 0.9152(3) 0.8893(3)
O9 O 0.6966(4) 0.6668(3) 0.5104(3)
O10 O 0.5081(4) 0.6088(3) 0.5799(3)
O11 O 0.5918(4) 0.8846(3) 0.9015(3)
O12 O 0.4073(4) 0.9318(3) 0.9013(3)
O13 O 0.6572(4) 0.4835(3) 0.4744(3)
H1 H 0.6022 0.5184 0.5081
H2 H 0.6232 0.4620 0.4392
O14 O 0.1567(4) 0.0138(3) 0.9630(3)
H3 H 0.1085 0.0311 1.0126
H4 H 0.1256 -0.0224 0.9378
C1 C 0.9467(7) 0.7851(5) 0.3558(5)
H5 H 0.9505 0.7905 0.4118
C2 C 0.9758(7) 0.8641(5) 0.2929(5)
H6 H 0.9999 0.9202 0.3067
C3 C 0.9684(7) 0.8581(5) 0.2112(5)
H7 H 0.9855 0.9106 0.1694
C4 C 0.9356(7) 0.7740(5) 0.1907(5)
C5 C 0.9285(8) 0.7626(6) 0.1058(5)
H8 H 0.9434 0.8140 0.0629
C6 C 0.9008(8) 0.6797(7) 0.0869(5)
H9 H 0.8972 0.6745 0.0308
C7 C 0.8763(7) 0.5988(5) 0.1505(4)
C8 C 0.8506(8) 0.5081(6) 0.1339(5)
H10 H 0.8486 0.4989 0.0782
C9 C 0.8287(8) 0.4335(6) 0.1984(5)
H11 H 0.8116 0.3739 0.1873
C10 C 0.8327(7) 0.4494(5) 0.2804(5)
H12 H 0.8171 0.3989 0.3244
C11 C 0.8793(6) 0.6070(5) 0.2365(4)
C12 C 0.9098(6) 0.6956(5) 0.2565(4)
C13 C 0.3938(7) 0.3041(5) 0.9984(5)
H13 H 0.3776 0.2803 1.0575
C14 C 0.4254(7) 0.3975(5) 0.9739(5)
H14 H 0.4312 0.4348 1.0163
C15 C 0.4482(7) 0.4363(5) 0.8886(6)
H15 H 0.4693 0.4996 0.8720
C16 C 0.4390(7) 0.3780(5) 0.8267(5)
C17 C 0.4561(7) 0.4139(5) 0.7350(5)
H16 H 0.4795 0.4763 0.7149
C18 C 0.4383(7) 0.3573(5) 0.6798(5)
H17 H 0.4471 0.3815 0.6219
C19 C 0.4062(6) 0.2609(5) 0.7074(4)
C20 C 0.3860(7) 0.1991(5) 0.6502(5)
H18 H 0.3918 0.2218 0.5926
C21 C 0.3589(8) 0.1085(5) 0.6787(5)
H19 H 0.3470 0.0676 0.6413
C22 C 0.3490(7) 0.0765(5) 0.7657(4)
H20 H 0.3311 0.0131 0.7846
C23 C 0.3915(6) 0.2226(4) 0.7946(4)
C24 C 0.4054(6) 0.2836(4) 0.8556(4)
C25 C 0.8197(6) 0.4494(4) 0.6419(4)
C26 C 0.7718(5) 0.3652(4) 0.7099(4)
C27 C 0.7282(6) 0.2898(4) 0.6846(4)
H21 H 0.7230 0.2928 0.6281
C28 C 0.6912(6) 0.2080(4) 0.7434(4)
H22 H 0.6603 0.1576 0.7255
C29 C 0.6991(5) 0.2000(4) 0.8267(4)
C30 C 0.7410(6) 0.2797(4) 0.8559(4)
C31 C 0.7776(6) 0.3630(4) 0.7974(4)
C32 C 0.8115(6) 0.4438(4) 0.8282(4)
H23 H 0.8336 0.4994 0.7905
C33 C 0.8114(7) 0.4394(5) 0.9128(4)
H24 H 0.8339 0.4921 0.9328
C34 C 0.7776(7) 0.3555(5) 0.9706(4)
H25 H 0.7788 0.3531 1.0281
C35 C 0.7432(7) 0.2781(5) 0.9427(4)
H26 H 0.7209 0.2233 0.9815
C36 C 0.6671(6) 0.1084(4) 0.8857(4)
C37 C 1.0222(6) 0.6630(4) 0.5621(4)
C38 C 1.0059(6) 0.7302(4) 0.6317(4)
C39 C 0.8923(6) 0.7385(5) 0.6936(4)
H27 H 0.8257 0.7116 0.6857
C40 C 0.8721(6) 0.7867(5) 0.7696(4)
H28 H 0.7925 0.7917 0.8102
C41 C 0.9665(6) 0.8259(4) 0.7845(4)
C42 C 1.0889(6) 0.8249(4) 0.7173(4)
C43 C 1.1090(6) 0.7761(4) 0.6405(4)
C44 C 1.2276(6) 0.7780(4) 0.5734(4)
H29 H 1.2398 0.7490 0.5219
C45 C 1.3237(6) 0.8212(5) 0.5827(4)
H30 H 1.4010 0.8216 0.5380
C46 C 1.3057(6) 0.8653(5) 0.6600(4)
H31 H 1.3720 0.8935 0.6672
C47 C 1.1920(6) 0.8673(5) 0.7247(4)
H32 H 1.1823 0.8975 0.7752
C48 C 0.9353(6) 0.8703(4) 0.8717(4)
C49 C 0.5928(6) 0.6637(4) 0.5732(4)
C50 C 0.5702(6) 0.7302(4) 0.6446(4)
C51 C 0.4902(6) 0.7002(4) 0.7277(4)
H33 H 0.4492 0.6429 0.7367
C52 C 0.4681(7) 0.7532(5) 0.7999(4)
H34 H 0.4105 0.7315 0.8552
C53 C 0.5284(6) 0.8355(4) 0.7913(4)
C54 C 0.6103(6) 0.8705(4) 0.7057(4)
C55 C 0.6321(6) 0.8186(4) 0.6308(4)
C56 C 0.7115(7) 0.8605(5) 0.5452(4)
H35 H 0.7262 0.8281 0.4953
C57 C 0.7655(9) 0.9452(5) 0.5346(5)
H36 H 0.8152 0.9712 0.4781
C58 C 0.7458(9) 0.9943(5) 0.6103(5)
H37 H 0.7847 1.0520 0.6036
C59 C 0.6715(8) 0.9582(5) 0.6917(5)
H38 H 0.6598 0.9918 0.7404
C60 C 0.5071(6) 0.8885(4) 0.8708(4)
Eu1A Eu 1.14553(3) 0.44366(2) 0.539346(19)
Eu2A Eu 0.65542(3) -0.06474(2) 1.014419(19)
Eu2A_2 Eu 0.65542(3) 0.93526(2) 1.014419(19)
Eu2_2 Eu 0.34458(3) 1.06474(2) 0.985581(19)
O2A O 1.0662(4) 0.5352(3) 0.3894(3)
O4A O 0.2481(4) -0.0638(3) 1.1002(3)
O6A O 0.8875(4) 0.3914(3) 0.4551(3)
O7A O 0.1745(4) 0.1432(3) 1.0751(3)
O11A O 0.4082(4) 0.1154(3) 1.0985(3)
O12_2 O 0.4073(4) -0.0682(3) 0.9013(3)
loop_
_geom_bond_atom_site_label_1
_geom_bond_atom_site_label_2
_geom_bond_site_symmetry_1
_geom_bond_site_symmetry_2
Eu1 N1 1_555 1_555
Eu2 N3 1_555 1_555
N1 C1 1_555 1_555
N2 Eu1 1_555 1_555
N3 C13 1_555 1_555
N4 Eu2 1_555 1_555
O1 Eu1 1_555 1_555
O2 C25 1_555 1_555
O3 Eu2 1_555 1_555
O4 C36 1_555 1_555
O5 Eu1 1_555 1_555
O6 C37 1_555 1_555
O7 C48 1_555 1_555
O8 C48 1_555 1_555
O9 Eu1 1_555 1_555
O10 C49 1_555 1_555
O11 C60 1_555 1_555
O12 C60 1_555 1_555
O13 Eu1 1_555 1_555
H1 O13 1_555 1_555
H2 O13 1_555 1_555
O14 Eu2 1_555 1_555
H3 O14 1_555 1_555
H4 O14 1_555 1_555
C1 H5 1_555 1_555
C2 C1 1_555 1_555
H6 C2 1_555 1_555
C3 C2 1_555 1_555
H7 C3 1_555 1_555
C4 C3 1_555 1_555
C5 C4 1_555 1_555
H8 C5 1_555 1_555
C6 C5 1_555 1_555
H9 C6 1_555 1_555
C7 C6 1_555 1_555
C8 C7 1_555 1_555
H10 C8 1_555 1_555
C9 C8 1_555 1_555
H11 C9 1_555 1_555
C10 N2 1_555 1_555
H12 C10 1_555 1_555
C11 N2 1_555 1_555
C12 N1 1_555 1_555
C13 H13 1_555 1_555
C14 C13 1_555 1_555
H14 C14 1_555 1_555
C15 C14 1_555 1_555
H15 C15 1_555 1_555
C16 C15 1_555 1_555
C17 C16 1_555 1_555
H16 C17 1_555 1_555
C18 C17 1_555 1_555
H17 C18 1_555 1_555
C19 C18 1_555 1_555
C20 C19 1_555 1_555
H18 C20 1_555 1_555
C21 C20 1_555 1_555
H19 C21 1_555 1_555
C22 N4 1_555 1_555
H20 C22 1_555 1_555
C23 N4 1_555 1_555
C24 N3 1_555 1_555
C25 O1 1_555 1_555
C26 C25 1_555 1_555
C27 C26 1_555 1_555
H21 C27 1_555 1_555
C28 C27 1_555 1_555
H22 C28 1_555 1_555
C29 C28 1_555 1_555
C30 C29 1_555 1_555
C31 C26 1_555 1_555
C32 C31 1_555 1_555
H23 C32 1_555 1_555
C33 C32 1_555 1_555
H24 C33 1_555 1_555
C34 C33 1_555 1_555
H25 C34 1_555 1_555
C35 C30 1_555 1_555
H26 C35 1_555 1_555
C36 O3 1_555 1_555
C37 O5 1_555 1_555
C38 C37 1_555 1_555
C39 C38 1_555 1_555
H27 C39 1_555 1_555
C40 C39 1_555 1_555
H28 C40 1_555 1_555
C41 C40 1_555 1_555
C42 C41 1_555 1_555
C43 C38 1_555 1_555
C44 C43 1_555 1_555
H29 C44 1_555 1_555
C45 C44 1_555 1_555
H30 C45 1_555 1_555
C46 C45 1_555 1_555
H31 C46 1_555 1_555
C47 C42 1_555 1_555
H32 C47 1_555 1_555
C48 C41 1_555 1_555
C49 O9 1_555 1_555
C50 C49 1_555 1_555
C51 C50 1_555 1_555
H33 C51 1_555 1_555
C52 C51 1_555 1_555
H34 C52 1_555 1_555
C53 C52 1_555 1_555
C54 C53 1_555 1_555
C55 C50 1_555 1_555
C56 C55 1_555 1_555
H35 C56 1_555 1_555
C57 C56 1_555 1_555
H36 C57 1_555 1_555
C58 C57 1_555 1_555
H37 C58 1_555 1_555
C59 C54 1_555 1_555
H38 C59 1_555 1_555
C60 C53 1_555 1_555
Eu1A O2 1_555 1_555
Eu2A O4 1_555 1_555
Eu2A_2 O7 1_555 1_555
Eu2_2 O12 1_555 1_555
O2A Eu1 1_555 1_555
O4A Eu2 1_555 1_555
O6A Eu1 1_555 1_555
O7A Eu2 1_555 1_555
O11A Eu2 1_555 1_555
O12_2 Eu2 1_555 1_555
O6 Eu1A 1_555 1_555
O11 Eu2A_2 1_555 1_555
C4 C12 1_555 1_555
C7 C11 1_555 1_555
C9 C10 1_555 1_555
C11 C12 1_555 1_555
C16 C24 1_555 1_555
C19 C23 1_555 1_555
C21 C22 1_555 1_555
C23 C24 1_555 1_555
C29 C36 1_555 1_555
C30 C31 1_555 1_555
C34 C35 1_555 1_555
C42 C43 1_555 1_555
C46 C47 1_555 1_555
C54 C55 1_555 1_555
C58 C59 1_555 1_555

#END
