
#######################################################################
#
#                 Cambridge Crystallographic Data Centre
#                                CCDC 
#
#######################################################################
#
# If this CIF has been generated from an entry in the Cambridge 
# Structural Database, then it will include bibliographic, chemical, 
# crystal, experimental, refinement or atomic coordinate data resulting 
# from the CCDC's data processing and validation procedures.
#
#######################################################################

data_FENMAO01
_symmetry_cell_setting           orthorhombic
_symmetry_space_group_name_H-M   'P 21 21 21'
_symmetry_Int_Tables_number      19
_space_group_name_Hall           'P 2ac 2ab'
loop_
_symmetry_equiv_pos_site_id
_symmetry_equiv_pos_as_xyz
1 x,y,z
2 1/2-x,-y,1/2+z
3 -x,1/2+y,1/2-z
4 1/2+x,1/2-y,-z
_cell_length_a                   10.4299(5)
_cell_length_b                   17.655(9)
_cell_length_c                   25.2532(12)
_cell_angle_alpha                90
_cell_angle_beta                 90
_cell_angle_gamma                90
_cell_volume                     4650.12
loop_
_atom_site_label
_atom_site_type_symbol
_atom_site_fract_x
_atom_site_fract_y
_atom_site_fract_z
Co1 Co 0.21544(13) 0.39443(5) 0.42519(3)
Fe1 Fe 0.63553(14) 0.27103(5) 0.42545(4)
B1 B 0.6910(13) 0.1958(6) 0.3152(3)
H1 H 0.7092 0.1727 0.2803
N1 N 0.3846(9) 0.3566(4) 0.4377(2)
N2 N 0.1477(8) 0.3216(3) 0.4735(2)
N3 N 0.8034(9) 0.3912(4) 0.4777(2)
N4 N 0.2412(8) 0.4719(3) 0.4795(2)
N5 N 0.1825(9) 0.3296(3) 0.3640(2)
N6 N 0.2983(9) 0.4708(3) 0.3766(2)
H2 H 0.3745 0.4479 0.3675
N7 N 0.0355(8) 0.4294(3) 0.4132(2)
H3 H -0.0080 0.4141 0.4430
N8 N 0.6466(8) 0.3228(3) 0.3550(2)
N9 N 0.5374(9) 0.1851(4) 0.3907(2)
N10 N 0.7923(9) 0.2157(3) 0.4035(2)
N11 N 0.5750(8) 0.1583(4) 0.3419(2)
N12 N 0.8044(9) 0.1874(4) 0.3526(2)
N13 N 0.6590(8) 0.2809(4) 0.3100(2)
C1 C 0.4832(12) 0.3245(4) 0.4372(2)
C2 C 0.1374(9) 0.2817(4) 0.5102(3)
C3 C 0.7340(12) 0.3466(4) 0.4576(3)
C4 C 0.2030(11) 0.4659(4) 0.5310(3)
H4 H 0.1722 0.4192 0.5436
C5 C 0.2084(11) 0.5268(5) 0.5651(3)
H5 H 0.1821 0.5216 0.6005
C6 C 0.2528(12) 0.5955(5) 0.5467(3)
H6 H 0.2551 0.6380 0.5690
C7 C 0.2940(11) 0.6008(5) 0.4947(3)
H7 H 0.3265 0.6469 0.4818
C8 C 0.2876(11) 0.5389(4) 0.4618(3)
C9 C 0.2742(10) 0.2837(4) 0.3409(3)
H8 H 0.3538 0.2768 0.3578
C10 C 0.2502(13) 0.2478(4) 0.2933(3)
H9 H 0.3124 0.2158 0.2783
C11 C 0.1326(12) 0.2592(4) 0.2675(3)
H10 H 0.1160 0.2357 0.2348
C12 C 0.0401(12) 0.3060(4) 0.2911(3)
H11 H -0.0391 0.3146 0.2743
C13 C 0.0675(11) 0.3395(4) 0.3398(3)
C14 C 0.3400(11) 0.5387(4) 0.4063(3)
H12 H 0.3106 0.5842 0.3877
H13 H 0.4339 0.5401 0.4076
C15 C -0.0270(10) 0.3858(4) 0.3685(3)
H14 H -0.0940 0.3528 0.3830
H15 H -0.0675 0.4214 0.3439
C16 C 0.1211(11) 0.5188(4) 0.3229(2)
C17 C 0.2355(12) 0.4820(4) 0.3260(3)
C18 C 0.2914(10) 0.4504(4) 0.2807(3)
H16 H 0.3744 0.4298 0.2828
C19 C 0.2271(12) 0.4488(4) 0.2336(3)
H17 H 0.2662 0.4269 0.2038
C20 C 0.1046(11) 0.4792(4) 0.2290(2)
C21 C 0.0465(11) 0.5182(4) 0.2732(3)
C22 C -0.0760(11) 0.5474(4) 0.2690(3)
H18 H -0.1121 0.5739 0.2976
C23 C -0.1462(11) 0.5378(4) 0.2224(3)
H19 H -0.2295 0.5576 0.2193
C24 C -0.0902(12) 0.4978(5) 0.1802(3)
H20 H -0.1385 0.4895 0.1494
C25 C 0.0303(13) 0.4712(5) 0.1826(3)
H21 H 0.0657 0.4468 0.1529
C26 C 0.0630(9) 0.5557(4) 0.3708(2)
C27 C 0.0183(9) 0.5119(4) 0.4121(2)
C28 C -0.0368(10) 0.5451(4) 0.4584(3)
H22 H -0.0692 0.5142 0.4856
C29 C -0.0418(10) 0.6209(4) 0.4627(3)
H23 H -0.0772 0.6426 0.4934
C30 C 0.0048(10) 0.6688(4) 0.4221(3)
C31 C 0.0551(10) 0.6364(4) 0.3751(3)
C32 C 0.1067(11) 0.6838(4) 0.3356(3)
H24 H 0.1405 0.6631 0.3043
C33 C 0.1068(11) 0.7618(4) 0.3437(3)
H25 H 0.1387 0.7938 0.3170
C34 C 0.0608(12) 0.7934(5) 0.3903(4)
H26 H 0.0664 0.8460 0.3957
C35 C 0.0075(12) 0.7486(4) 0.4283(4)
H27 H -0.0278 0.7707 0.4589
C36 C 0.6312(11) 0.3952(5) 0.3390(3)
H28 H 0.6182 0.4366 0.3618
C37 C 0.6371(13) 0.4000(6) 0.2842(3)
H29 H 0.6314 0.4438 0.2632
C38 C 0.6532(11) 0.3261(7) 0.2675(3)
H30 H 0.6590 0.3101 0.2321
C39 C 0.4430(10) 0.1390(4) 0.4071(3)
H31 H 0.4000 0.1431 0.4397
C40 C 0.4186(11) 0.0854(5) 0.3698(4)
H32 H 0.3549 0.0478 0.3713
C41 C 0.5054(11) 0.0967(5) 0.3290(3)
H33 H 0.5140 0.0671 0.2983
C42 C 0.9050(10) 0.1994(4) 0.4269(3)
H34 H 0.9271 0.2136 0.4615
C43 C 0.9845(11) 0.1588(5) 0.3930(3)
H35 H 1.0665 0.1394 0.4005
C44 C 0.9182(11) 0.1533(5) 0.3470(3)
H36 H 0.9476 0.1293 0.3161
Fe1C Fe 0.13553(14) 0.22897(5) 0.57455(4)
C2C C 0.6374(9) 0.2183(4) 0.4898(3)
B2 B 0.5841(18) 0.6358(9) 0.3360(6)
F1 F 0.6909(12) 0.6649(8) 0.3163(5)
F2 F 0.5428(16) 0.5744(7) 0.3129(5)
F3 F 0.6111(17) 0.6144(13) 0.3836(5)
F4 F 0.4918(16) 0.6850(8) 0.3387(10)
C45 C 0.102(2) -0.0255(11) 0.4836(6)
H37 H 0.1206 -0.0738 0.5001
H38 H 0.0253 -0.0299 0.4621
H39 H 0.0888 0.0126 0.5107
O1 O 0.2058(12) -0.0040(5) 0.4513(3)
O2 O -0.041(3) 0.6523(15) 0.6200(10)
O3? O 0.081(3) 0.6575(10) 0.6485(7)
loop_
_geom_bond_atom_site_label_1
_geom_bond_atom_site_label_2
_geom_bond_site_symmetry_1
_geom_bond_site_symmetry_2
Co1 N1 1_555 1_555
Fe1 N8 1_555 1_555
B1 H1 1_555 1_555
B2 F1 1_555 1_555
F2 B2 1_555 1_555
F3 B2 1_555 1_555
F4 B2 1_555 1_555
N1 C1 1_555 1_555
N2 Co1 1_555 1_555
N3 C3 1_555 1_555
N4 Co1 1_555 1_555
N5 Co1 1_555 1_555
N6 Co1 1_555 1_555
H2 N6 1_555 1_555
N7 Co1 1_555 1_555
H3 N7 1_555 1_555
N8 N13 1_555 1_555
N9 Fe1 1_555 1_555
N10 Fe1 1_555 1_555
N11 B1 1_555 1_555
N12 B1 1_555 1_555
N13 B1 1_555 1_555
C1 Fe1 1_555 1_555
C2 N2 1_555 1_555
C3 Fe1 1_555 1_555
C4 N4 1_555 1_555
H4 C4 1_555 1_555
C5 C4 1_555 1_555
H5 C5 1_555 1_555
C6 C5 1_555 1_555
H6 C6 1_555 1_555
C7 C6 1_555 1_555
H7 C7 1_555 1_555
C8 N4 1_555 1_555
C9 N5 1_555 1_555
H8 C9 1_555 1_555
C10 C9 1_555 1_555
H9 C10 1_555 1_555
C11 C10 1_555 1_555
H10 C11 1_555 1_555
C12 C11 1_555 1_555
H11 C12 1_555 1_555
C13 N5 1_555 1_555
C14 N6 1_555 1_555
H12 C14 1_555 1_555
H13 C14 1_555 1_555
C15 N7 1_555 1_555
H14 C15 1_555 1_555
H15 C15 1_555 1_555
C16 C17 1_555 1_555
C17 N6 1_555 1_555
C18 C17 1_555 1_555
H16 C18 1_555 1_555
C19 C18 1_555 1_555
H17 C19 1_555 1_555
C20 C19 1_555 1_555
C21 C16 1_555 1_555
C22 C21 1_555 1_555
H18 C22 1_555 1_555
C23 C22 1_555 1_555
H19 C23 1_555 1_555
C24 C23 1_555 1_555
H20 C24 1_555 1_555
C25 C20 1_555 1_555
H21 C25 1_555 1_555
C26 C16 1_555 1_555
C27 N7 1_555 1_555
C28 C27 1_555 1_555
H22 C28 1_555 1_555
C29 C28 1_555 1_555
H23 C29 1_555 1_555
C30 C29 1_555 1_555
C31 C26 1_555 1_555
C32 C31 1_555 1_555
H24 C32 1_555 1_555
C33 C32 1_555 1_555
H25 C33 1_555 1_555
C34 C33 1_555 1_555
H26 C34 1_555 1_555
C35 C30 1_555 1_555
H27 C35 1_555 1_555
C36 N8 1_555 1_555
H28 C36 1_555 1_555
C37 C36 1_555 1_555
H29 C37 1_555 1_555
C38 N13 1_555 1_555
H30 C38 1_555 1_555
C39 N9 1_555 1_555
H31 C39 1_555 1_555
C40 C39 1_555 1_555
H32 C40 1_555 1_555
C41 N11 1_555 1_555
H33 C41 1_555 1_555
C42 N10 1_555 1_555
H34 C42 1_555 1_555
C43 C42 1_555 1_555
H35 C43 1_555 1_555
C44 N12 1_555 1_555
H36 C44 1_555 1_555
C45 H37 1_555 1_555
H38 C45 1_555 1_555
H39 C45 1_555 1_555
O1 C45 1_555 1_555
Fe1C C2 1_555 1_555
C2C Fe1 1_555 1_555
N9 N11 1_555 1_555
N10 N12 1_555 1_555
C7 C8 1_555 1_555
C8 C14 1_555 1_555
C12 C13 1_555 1_555
C13 C15 1_555 1_555
C20 C21 1_555 1_555
C24 C25 1_555 1_555
C26 C27 1_555 1_555
C30 C31 1_555 1_555
C34 C35 1_555 1_555
C37 C38 1_555 1_555
C40 C41 1_555 1_555
C43 C44 1_555 1_555

#END
