
#######################################################################
#
#                 Cambridge Crystallographic Data Centre
#                                CCDC 
#
#######################################################################
#
# If this CIF has been generated from an entry in the Cambridge 
# Structural Database, then it will include bibliographic, chemical, 
# crystal, experimental, refinement or atomic coordinate data resulting 
# from the CCDC's data processing and validation procedures.
#
#######################################################################

data_FENNAP
_symmetry_cell_setting           orthorhombic
_symmetry_space_group_name_H-M   'P 21 21 21'
_symmetry_Int_Tables_number      19
_space_group_name_Hall           'P 2ac 2ab'
loop_
_symmetry_equiv_pos_site_id
_symmetry_equiv_pos_as_xyz
1 x,y,z
2 1/2-x,-y,1/2+z
3 -x,1/2+y,1/2-z
4 1/2+x,1/2-y,-z
_cell_length_a                   10.392(5)
_cell_length_b                   17.323(9)
_cell_length_c                   24.678(14)
_cell_angle_alpha                90
_cell_angle_beta                 90
_cell_angle_gamma                90
_cell_volume                     4442.55
loop_
_atom_site_label
_atom_site_type_symbol
_atom_site_fract_x
_atom_site_fract_y
_atom_site_fract_z
Co1 Co 0.77506(16) 0.89653(9) 0.92350(5)
Fe1 Fe 0.35706(17) 0.77129(10) 0.92398(6)
C1 C 0.5119(13) 0.8269(6) 0.9342(4)
C2 C 0.8514(12) 0.7819(8) 1.0090(4)
C3 C 0.2685(16) 0.8520(8) 0.9544(4)
C4 C 0.7293(14) 0.7878(7) 0.8356(4)
H1 H 0.6468 0.7815 0.8516
C5 C 0.7520(14) 0.7500(7) 0.7868(4)
H2 H 0.6890 0.7169 0.7714
C6 C 0.8623(15) 0.7614(7) 0.7626(4)
H3 H 0.8789 0.7383 0.7284
C7 C 0.9561(14) 0.8077(7) 0.7873(4)
H4 H 1.0383 0.8150 0.7712
C8 C 0.9229(14) 0.8436(7) 0.8373(4)
C9 C 1.0215(11) 0.8898(6) 0.8677(4)
H5 H 1.0641 0.9266 0.8428
H6 H 1.0880 0.8549 0.8827
C10 C 0.9729(12) 1.0142(7) 0.9154(4)
C11 C 1.0197(12) 1.0446(7) 0.9654(4)
H7 H 1.0485 1.0110 0.9933
C12 C 1.0226(11) 1.1228(9) 0.9726(4)
H8 H 1.0573 1.1434 1.0052
C13 C 0.9745(12) 1.1744(7) 0.9320(4)
C14 C 0.9657(14) 1.2539(6) 0.9381(4)
H9 H 0.9929 1.2750 0.9717
C15 C 0.9230(15) 1.3028(8) 0.9012(4)
H10 H 0.9155 1.3563 0.9088
C16 C 0.8876(14) 1.2715(8) 0.8483(5)
H11 H 0.8627 1.3058 0.8201
C17 C 0.8899(14) 1.1944(8) 0.8387(5)
H12 H 0.8594 1.1755 0.8049
C18 C 0.9384(12) 1.1392(7) 0.8795(4)
C19 C 0.9284(12) 1.0613(7) 0.8736(4)
C20 C 0.8793(14) 1.0264(7) 0.8238(4)
C21 C 0.9533(12) 1.0217(7) 0.7737(4)
C22 C 1.0820(13) 1.0494(7) 0.7732(4)
H13 H 1.1164 1.0741 0.8044
C23 C 1.1579(14) 1.0402(8) 0.7268(5)
H14 H 1.2413 1.0625 0.7248
C24 C 1.1069(14) 0.9966(7) 0.6827(4)
H15 H 1.1607 0.9859 0.6525
C25 C 0.9836(14) 0.9696(7) 0.6825(4)
H16 H 0.9516 0.9434 0.6515
C26 C 0.9031(14) 0.9803(7) 0.7279(4)
C27 C 0.7781(13) 0.9505(7) 0.7296(4)
H17 H 0.7425 0.9271 0.6982
C28 C 0.7066(12) 0.9547(7) 0.7760(4)
H18 H 0.6214 0.9349 0.7771
C29 C 0.7623(14) 0.9893(7) 0.8227(4)
C30 C 0.6542(13) 1.0466(7) 0.9050(4)
H19 H 0.5592 1.0509 0.9036
H20 H 0.6912 1.0932 0.8878
C31 C 0.6978(13) 1.0421(8) 0.9637(5)
C32 C 0.6918(16) 1.1040(9) 0.9972(4)
H21 H 0.6617 1.1525 0.9845
C33 C 0.7311(15) 1.0947(10) 1.0512(5)
H22 H 0.7256 1.1367 1.0758
C34 C 0.7757(14) 1.0272(8) 1.0675(4)
H23 H 0.8046 1.0203 1.1037
C35 C 0.7791(13) 0.9695(9) 1.0325(4)
H24 H 0.8072 0.9205 1.0452
C36 C 0.0851(13) 0.7007(7) 0.9270(5)
H25 H 0.0656 0.7156 0.9632
C37 C 0.0009(15) 0.6618(7) 0.8943(4)
H26 H -0.0846 0.6456 0.9018
C38 C 0.0745(13) 0.6520(7) 0.8460(4)
H27 H 0.0454 0.6265 0.8142
C39 C 0.3670(13) 0.8891(9) 0.8306(5)
H28 H 0.3787 0.9338 0.8523
C40 C 0.3668(15) 0.8875(10) 0.7731(5)
H29 H 0.3756 0.9300 0.7490
C41 C 0.3518(14) 0.8142(10) 0.7603(5)
H30 H 0.3513 0.7949 0.7243
C42 C 0.4866(16) 0.5890(9) 0.8356(5)
H31 H 0.4755 0.5558 0.8053
N1 N 0.6087(10) 0.8586(6) 0.9339(3)
N2 N 0.8414(9) 0.8233(6) 0.9717(3)
N3 N 0.2064(13) 0.9064(7) 0.9730(4)
N4 N 0.8111(11) 0.8306(6) 0.8610(3)
N5 N 0.9565(8) 0.9335(5) 0.9134(3)
H32 H 0.9987 0.9160 0.9443
N6 N 0.6961(11) 0.9766(6) 0.8746(3)
H33 H 0.6187 0.9540 0.8643
N7 N 0.7452(11) 0.9758(6) 0.9797(3)
N8 N 0.1965(9) 0.7154(5) 0.9033(3)
N9 N 0.3481(10) 0.8182(6) 0.8491(3)
N10 N 0.1894(11) 0.6839(6) 0.8520(3)
N11 N 0.3371(10) 0.7691(7) 0.8057(3)
C43 C 0.5810(13) 0.5790(8) 0.8760(5)
H34 H 0.6472 0.5415 0.8788
C44 C 0.5496(13) 0.6401(7) 0.9111(4)
H35 H 0.5933 0.6496 0.9442
N12 N 0.4517(10) 0.6837(6) 0.8931(3)
B2 B 0.3041(16) 0.6890(10) 0.8146(5)
H36 H 0.2866 0.6621 0.7795
N13 N 0.4163(9) 0.6501(6) 0.8454(3)
Fe1C Fe 0.85706(17) 0.72871(10) 1.07602(6)
C2C C 0.3514(12) 0.7181(8) 0.9910(4)
B1 B 0.585(2) 0.7430(14) 0.6291(10)
F1 F 0.591(2) 0.8198(10) 0.6367(5)
F2 F 0.691(2) 0.6952(17) 0.6295(11)
F3 F 0.509(2) 0.7392(10) 0.5822(6)
F4 F 0.4927(17) 0.7158(8) 0.6655(5)
O1 O 0.4481(13) 0.0717(8) 0.8025(4)
O2 O 0.3124(15) 0.0533(13) 0.9024(6)
loop_
_geom_bond_atom_site_label_1
_geom_bond_atom_site_label_2
_geom_bond_site_symmetry_1
_geom_bond_site_symmetry_2
Co1 N1 1_555 1_555
Fe1 C1 1_555 1_555
B1 F1 1_555 1_555
C1 N1 1_555 1_555
C2 N2 1_555 1_555
C3 Fe1 1_555 1_555
C4 H1 1_555 1_555
C5 C4 1_555 1_555
H2 C5 1_555 1_555
C6 C5 1_555 1_555
H3 C6 1_555 1_555
C7 C6 1_555 1_555
H4 C7 1_555 1_555
C8 C7 1_555 1_555
C9 C8 1_555 1_555
H5 C9 1_555 1_555
H6 C9 1_555 1_555
C10 C11 1_555 1_555
C11 H7 1_555 1_555
C12 C11 1_555 1_555
H8 C12 1_555 1_555
C13 C12 1_555 1_555
C14 C13 1_555 1_555
H9 C14 1_555 1_555
C15 C14 1_555 1_555
H10 C15 1_555 1_555
C16 C15 1_555 1_555
H11 C16 1_555 1_555
C17 C16 1_555 1_555
H12 C17 1_555 1_555
C18 C13 1_555 1_555
C19 C10 1_555 1_555
C20 C19 1_555 1_555
C21 C20 1_555 1_555
C22 C21 1_555 1_555
H13 C22 1_555 1_555
C23 C22 1_555 1_555
H14 C23 1_555 1_555
C24 C23 1_555 1_555
H15 C24 1_555 1_555
C25 C24 1_555 1_555
H16 C25 1_555 1_555
C26 C21 1_555 1_555
C27 C26 1_555 1_555
H17 C27 1_555 1_555
C28 C27 1_555 1_555
H18 C28 1_555 1_555
C29 C20 1_555 1_555
C30 H19 1_555 1_555
H20 C30 1_555 1_555
C31 C30 1_555 1_555
C32 C31 1_555 1_555
H21 C32 1_555 1_555
C33 C32 1_555 1_555
H22 C33 1_555 1_555
C34 C33 1_555 1_555
H23 C34 1_555 1_555
C35 C34 1_555 1_555
H24 C35 1_555 1_555
C36 H25 1_555 1_555
C37 C36 1_555 1_555
H26 C37 1_555 1_555
C38 C37 1_555 1_555
H27 C38 1_555 1_555
C39 H28 1_555 1_555
C40 C39 1_555 1_555
H29 C40 1_555 1_555
C41 C40 1_555 1_555
H30 C41 1_555 1_555
C42 H31 1_555 1_555
F2 B1 1_555 1_555
F3 B1 1_555 1_555
F4 B1 1_555 1_555
N2 Co1 1_555 1_555
N3 C3 1_555 1_555
N4 Co1 1_555 1_555
N5 Co1 1_555 1_555
H32 N5 1_555 1_555
N6 Co1 1_555 1_555
H33 N6 1_555 1_555
N7 Co1 1_555 1_555
N8 Fe1 1_555 1_555
N9 Fe1 1_555 1_555
N10 C38 1_555 1_555
N11 C41 1_555 1_555
C43 C42 1_555 1_555
H34 C43 1_555 1_555
C44 C43 1_555 1_555
H35 C44 1_555 1_555
N12 Fe1 1_555 1_555
B2 N10 1_555 1_555
H36 B2 1_555 1_555
N13 C42 1_555 1_555
Fe1C C2 1_555 1_555
C2C Fe1 1_555 1_555
C4 N4 1_555 1_555
C8 N4 1_555 1_555
C9 N5 1_555 1_555
C10 N5 1_555 1_555
C17 C18 1_555 1_555
C18 C19 1_555 1_555
C25 C26 1_555 1_555
C28 C29 1_555 1_555
C29 N6 1_555 1_555
C30 N6 1_555 1_555
C31 N7 1_555 1_555
C35 N7 1_555 1_555
C36 N8 1_555 1_555
C39 N9 1_555 1_555
N8 N10 1_555 1_555
N9 N11 1_555 1_555
N11 B2 1_555 1_555
C44 N12 1_555 1_555
N12 N13 1_555 1_555
B2 N13 1_555 1_555

#END
