
#######################################################################
#
#                 Cambridge Crystallographic Data Centre
#                                CCDC 
#
#######################################################################
#
# If this CIF has been generated from an entry in the Cambridge 
# Structural Database, then it will include bibliographic, chemical, 
# crystal, experimental, refinement or atomic coordinate data resulting 
# from the CCDC's data processing and validation procedures.
#
#######################################################################

data_FENSUN03
_symmetry_cell_setting           monoclinic
_symmetry_space_group_name_H-M   'P 21'
_symmetry_Int_Tables_number      4
_space_group_name_Hall           'P 2yb'
loop_
_symmetry_equiv_pos_site_id
_symmetry_equiv_pos_as_xyz
1 x,y,z
2 -x,1/2+y,-z
_cell_length_a                   7.0664(19)
_cell_length_b                   7.532(2)
_cell_length_c                   7.645(2)
_cell_angle_alpha                90
_cell_angle_beta                 117.363(4)
_cell_angle_gamma                90
_cell_volume                     361.372
loop_
_atom_site_label
_atom_site_type_symbol
_atom_site_fract_x
_atom_site_fract_y
_atom_site_fract_z
C1 C 0.9887(5) 0.4119(4) 0.1115(5)
H1 H 1.1265 0.3906 0.2095
C2 C 0.7240(4) 0.4840(4) -0.1750(4)
C3 C 0.6489(4) 0.4460(4) -0.0428(4)
C4 C 0.4331(4) 0.4401(4) -0.0533(4)
C5 C 0.6247(5) 0.5340(4) -0.3876(4)
Mn1 Mn 0.71220(6) 0.26566(4) 0.33753(5)
N1 N 0.8174(4) 0.3986(4) 0.1364(4)
N2 N 0.9396(5) 0.4600(4) -0.0726(4)
O1 O 0.4188(3) 0.3637(3) 0.0847(3)
O2 O 0.2749(3) 0.5109(3) -0.1980(3)
O3 O 0.7277(3) 0.4906(3) -0.4784(3)
O4 O 1.0380(4) 0.2317(3) 0.5527(4)
O5 O 0.4527(4) 0.6166(3) -0.4626(3)
H2 H 1.006(6) 0.468(5) -0.110(5)
H3 H 1.137(8) 0.162(8) 0.543(7)
H4 H 1.090(7) 0.329(7) 0.617(7)
Mn1A Mn 0.28780(6) 0.76566(4) -0.33753(5)
Mn1_2 Mn 0.71220(6) 0.26566(4) -0.66247(5)
O2A O 0.7251(3) 0.0109(3) 0.1980(3)
O3_2 O 0.7277(3) 0.4906(3) 0.5216(3)
O5A O 0.5473(4) 0.1166(3) 0.4626(3)
loop_
_geom_bond_atom_site_label_1
_geom_bond_atom_site_label_2
_geom_bond_site_symmetry_1
_geom_bond_site_symmetry_2
C1 H1 1_555 1_555
C2 C3 1_555 1_555
C3 C4 1_555 1_555
C4 O1 1_555 1_555
C5 C2 1_555 1_555
Mn1 N1 1_555 1_555
N1 C1 1_555 1_555
N2 C1 1_555 1_555
O1 Mn1 1_555 1_555
O2 C4 1_555 1_555
O3 C5 1_555 1_555
O4 Mn1 1_555 1_555
O5 C5 1_555 1_555
H2 N2 1_555 1_555
H3 O4 1_555 1_555
H4 O4 1_555 1_555
Mn1A O2 1_555 1_555
Mn1_2 O3 1_555 1_555
O2A Mn1 1_555 1_555
O3_2 Mn1 1_555 1_555
O5A Mn1 1_555 1_555
C2 N2 1_555 1_555
C3 N1 1_555 1_555
O5 Mn1A 1_555 1_555

#END
