
#######################################################################
#
#                 Cambridge Crystallographic Data Centre
#                                CCDC 
#
#######################################################################
#
# If this CIF has been generated from an entry in the Cambridge 
# Structural Database, then it will include bibliographic, chemical, 
# crystal, experimental, refinement or atomic coordinate data resulting 
# from the CCDC's data processing and validation procedures.
#
#######################################################################

data_FENTAU01
_symmetry_cell_setting           monoclinic
_symmetry_space_group_name_H-M   'P 21/c'
_symmetry_Int_Tables_number      14
_space_group_name_Hall           '-P 2ybc'
loop_
_symmetry_equiv_pos_site_id
_symmetry_equiv_pos_as_xyz
1 x,y,z
2 -x,1/2+y,1/2-z
3 -x,-y,-z
4 x,1/2-y,1/2+z
_cell_length_a                   9.5510(19)
_cell_length_b                   12.592(3)
_cell_length_c                   13.737(3)
_cell_angle_alpha                90
_cell_angle_beta                 95.13(3)
_cell_angle_gamma                90
_cell_volume                     1645.48
loop_
_atom_site_label
_atom_site_type_symbol
_atom_site_fract_x
_atom_site_fract_y
_atom_site_fract_z
Cu1 Cu 0.36074(2) 0.006674(18) 0.060776(16)
O1 O 0.45748(15) 0.00646(10) 0.18911(10)
O2 O 0.30185(16) 0.13040(15) 0.22048(12)
O3 O 0.45921(15) 0.37502(11) 0.50564(9)
O4 O 0.5866(2) 0.29794(13) 0.63138(11)
O5 O 0.8593(2) -0.01073(17) 0.56751(14)
O6 O 0.7951(2) -0.11595(14) 0.44936(13)
N1 N 0.7829(2) -0.03379(16) 0.49483(13)
N2 N 0.24107(16) -0.11614(12) 0.09477(11)
N3 N 0.22659(17) 0.00069(13) -0.06117(12)
C1 C 0.49195(19) 0.09445(15) 0.34033(13)
C2 C 0.4689(2) 0.18282(16) 0.39704(14)
C3 C 0.5472(2) 0.20136(15) 0.48558(14)
C4 C 0.6509(2) 0.12882(16) 0.51768(14)
C5 C 0.6726(2) 0.04144(16) 0.46065(15)
C6 C 0.5950(2) 0.02194(16) 0.37244(15)
C7 C 0.4083(2) 0.07766(16) 0.24286(14)
C8 C 0.5299(2) 0.29787(16) 0.54837(14)
C9 C 0.2631(2) -0.17610(17) 0.17535(15)
C10 C 0.1767(3) -0.25941(19) 0.19356(18)
C11 C 0.0642(3) -0.2816(2) 0.1273(2)
C12 C 0.0413(2) -0.22154(19) 0.04381(18)
C13 C 0.1320(2) -0.13850(16) 0.02909(14)
C14 C 0.12078(19) -0.06962(16) -0.05782(14)
C15 C 0.0121(2) -0.07462(19) -0.13184(16)
C16 C 0.0130(2) -0.0069(2) -0.20993(16)
C17 C 0.1233(3) 0.0620(2) -0.21524(17)
C18 C 0.2296(2) 0.0628(2) -0.13937(16)
H1 H 0.402(2) 0.2375(17) 0.3754(15)
H2 H 0.710(2) 0.1383(16) 0.5750(14)
H3 H 0.615(2) -0.0363(19) 0.3374(17)
H4 H 0.342(2) -0.1582(17) 0.2168(15)
H5 H 0.193(3) -0.300(2) 0.2488(19)
H6 H 0.002(3) -0.336(2) 0.1396(18)
H7 H -0.030(2) -0.2384(19) -0.0005(15)
H8 H -0.058(2) -0.1233(18) -0.1281(15)
H9 H -0.055(2) -0.0098(17) -0.2547(19)
H10 H 0.133(2) 0.106(2) -0.2693(17)
H11 H 0.309(2) 0.110(2) -0.1411(17)
O3C O 0.45921(15) 0.12498(11) 0.00564(9)
Cu1C Cu 0.36074(2) 0.493326(18) 0.560776(16)
loop_
_geom_bond_atom_site_label_1
_geom_bond_atom_site_label_2
_geom_bond_site_symmetry_1
_geom_bond_site_symmetry_2
Cu1 O1 1_555 1_555
O1 C7 1_555 1_555
O2 C7 1_555 1_555
O3 C8 1_555 1_555
O4 C8 1_555 1_555
O5 N1 1_555 1_555
O6 N1 1_555 1_555
N1 C5 1_555 1_555
N2 Cu1 1_555 1_555
N3 Cu1 1_555 1_555
C1 C2 1_555 1_555
C2 C3 1_555 1_555
C3 C4 1_555 1_555
C4 C5 1_555 1_555
C5 C6 1_555 1_555
C6 C1 1_555 1_555
C7 C1 1_555 1_555
C8 C3 1_555 1_555
C9 N2 1_555 1_555
C10 C9 1_555 1_555
C11 C10 1_555 1_555
C12 C11 1_555 1_555
C13 N2 1_555 1_555
C14 N3 1_555 1_555
C15 C14 1_555 1_555
C16 C15 1_555 1_555
C17 C16 1_555 1_555
C18 N3 1_555 1_555
H1 C2 1_555 1_555
H2 C4 1_555 1_555
H3 C6 1_555 1_555
H4 C9 1_555 1_555
H5 C10 1_555 1_555
H6 C11 1_555 1_555
H7 C12 1_555 1_555
H8 C15 1_555 1_555
H9 C16 1_555 1_555
H10 C17 1_555 1_555
H11 C18 1_555 1_555
O3C Cu1 1_555 1_555
Cu1C O3 1_555 1_555
C12 C13 1_555 1_555
C13 C14 1_555 1_555
C17 C18 1_555 1_555

#END
