
#######################################################################
#
#                 Cambridge Crystallographic Data Centre
#                                CCDC 
#
#######################################################################
#
# If this CIF has been generated from an entry in the Cambridge 
# Structural Database, then it will include bibliographic, chemical, 
# crystal, experimental, refinement or atomic coordinate data resulting 
# from the CCDC's data processing and validation procedures.
#
#######################################################################

data_FENYEE
_symmetry_cell_setting           triclinic
_symmetry_space_group_name_H-M   'P -1'
_symmetry_Int_Tables_number      2
_space_group_name_Hall           '-P 1'
loop_
_symmetry_equiv_pos_site_id
_symmetry_equiv_pos_as_xyz
1 x,y,z
2 -x,-y,-z
_cell_length_a                   11.1645(5)
_cell_length_b                   11.7892(10)
_cell_length_c                   18.3088(14)
_cell_angle_alpha                89.219(6)
_cell_angle_beta                 87.563(5)
_cell_angle_gamma                72.844(6)
_cell_volume                     2300.51
loop_
_atom_site_label
_atom_site_type_symbol
_atom_site_fract_x
_atom_site_fract_y
_atom_site_fract_z
Y1 Y 0.14639(3) 0.45296(3) 0.660745(18)
Y2 Y 0.43144(3) 0.44627(3) 0.827260(18)
Y3 Y -0.16920(3) 0.48638(3) 1.015150(17)
Y4 Y 0.75058(3) 0.42505(3) 0.627840(18)
O1 O 0.5715(2) 0.3217(2) 0.74442(14)
O2 O 0.7299(2) 0.3423(2) 1.01674(13)
O3 O -0.0540(2) 0.3554(2) 0.92793(13)
O4 O 0.3732(2) 0.4017(2) 0.95542(13)
O5 O -0.0249(2) 0.5806(2) 0.93951(12)
O6 O 0.6759(2) 0.2671(2) 0.63934(14)
O7 O 0.3146(2) 0.3611(2) 0.75164(13)
O8 O 0.1676(3) 0.4259(2) 0.37800(14)
C1 C 0.4804(3) 0.2242(3) 1.02089(18)
H1 H 0.4665 0.1483 1.0121
H2 H 0.4214 0.2635 1.0596
O9 O 0.5728(2) 0.3923(2) 1.10082(13)
C2 C 0.6156(3) 0.2016(3) 1.04765(18)
O10 O 0.2829(2) 0.2607(2) 0.65964(15)
O11 O 0.0831(2) 0.3630(2) 0.56969(14)
O12 O -0.0131(2) 0.3887(2) 0.39682(14)
C3 C 0.4527(3) 0.2982(3) 0.95249(19)
O13 O 0.1496(2) 0.3467(2) 0.92765(13)
O14 O 0.0273(2) 0.3802(2) 0.73924(14)
C4 C 0.3413(3) 0.2650(3) 0.71567(19)
C5 C -0.0085(3) 0.2099(3) 0.79760(19)
O15 O 0.6355(2) 0.4562(3) 0.84547(16)
H3 H 0.651(4) 0.518(2) 0.860(2)
H4 H 0.695(3) 0.417(3) 0.818(2)
C6 C 0.0919(3) 0.1971(3) 0.49524(18)
O16 O 0.4090(2) 0.5896(2) 0.74206(13)
C7 C 0.0926(3) 0.2132(3) 0.85124(19)
H5 H 0.1150 0.1386 0.8779
H6 H 0.1667 0.2171 0.8229
C8 C 0.5634(3) 0.1395(3) 0.6898(2)
C9 C -0.1025(3) 0.7332(3) 0.85082(18)
O17 O -0.0779(2) 0.2913(2) 0.57923(16)
O18 O 0.5687(2) 0.5492(2) 0.66202(14)
C10 C 0.0267(3) 0.2909(3) 0.55135(19)
C11 C 0.6419(3) 0.3217(3) 1.05507(18)
C12 C 0.4425(3) 0.1558(3) 0.7379(2)
H7 H 0.4606 0.1626 0.7887
H8 H 0.4132 0.0866 0.7332
C13 C 0.3946(3) 0.7145(3) 0.63576(19)
C14 C 0.2651(3) 0.7831(3) 0.6690(2)
H9 H 0.2737 0.8054 0.7183
H10 H 0.2301 0.8532 0.6405
H11 H 0.2105 0.7336 0.6690
C15 C 0.0370(3) 0.7306(3) 0.84317(19)
H12 H 0.0638 0.7461 0.8908
H13 H 0.0432 0.7949 0.8110
C16 C -0.1749(4) 0.8498(3) 0.8892(2)
H14 H -0.1670 0.9158 0.8601
H15 H -0.2618 0.8537 0.8954
H16 H -0.1410 0.8528 0.9362
O19 O 0.5064(3) 0.2627(2) 0.89299(14)
C17 C 0.6056(3) 0.2510(3) 0.6918(2)
C18 C 0.1025(3) 0.3632(3) 0.40387(18)
C19 C 0.1707(3) 0.2486(3) 0.44185(19)
H17 H 0.2387 0.2623 0.4682
H18 H 0.2079 0.1894 0.4047
C20 C 0.4608(3) 0.6099(3) 0.68352(19)
C21 C 0.0595(3) 0.3134(3) 0.90653(18)
C22 C 0.0527(4) 0.1163(4) 0.7383(2)
H19 H 0.1199 0.1379 0.7131
H20 H -0.0090 0.1128 0.7042
H21 H 0.0851 0.0400 0.7609
C23 C 0.7119(3) 0.1170(3) 0.9961(2)
H22 H 0.6948 0.0419 0.9949
H23 H 0.7947 0.1057 1.0133
H24 H 0.7067 0.1503 0.9478
C24 C -0.1167(4) 0.1752(4) 0.8357(2)
H25 H -0.0849 0.0994 0.8590
H26 H -0.1761 0.1705 0.8003
H27 H -0.1572 0.2339 0.8718
C25 C 0.1816(4) 0.0943(3) 0.5379(2)
H28 H 0.2377 0.1245 0.5646
H29 H 0.2292 0.0347 0.5041
H30 H 0.1335 0.0599 0.5713
C26 C -0.1595(3) 0.7235(4) 0.7775(2)
H31 H -0.1212 0.6459 0.7572
H32 H -0.2482 0.7360 0.7847
H33 H -0.1450 0.7824 0.7444
C27 C 0.3856(4) 0.6694(4) 0.55804(19)
H34 H 0.4700 0.6408 0.5366
H35 H 0.3404 0.7367 0.5291
O20 O -0.1657(2) 0.3682(2) 0.73962(13)
O21 O -0.2182(2) 0.6083(2) 0.90759(13)
C28 C 0.1268(3) 0.6166(3) 0.81407(18)
C29 C -0.0526(3) 0.3287(3) 0.75673(18)
C30 C -0.1166(3) 0.6337(3) 0.90070(18)
C31 C 0.6199(4) 0.1451(4) 1.1238(2)
H36 H 0.5629 0.1996 1.1569
H37 H 0.7035 0.1269 1.1411
H38 H 0.5961 0.0734 1.1212
C32 C -0.0004(4) 0.1475(4) 0.4558(2)
H39 H -0.0478 0.1155 0.4911
H40 H 0.0453 0.0860 0.4227
H41 H -0.0566 0.2101 0.4290
C33 C 0.4771(4) 0.7982(4) 0.6308(2)
H42 H 0.4815 0.8297 0.6784
H43 H 0.5600 0.7551 0.6130
H44 H 0.4415 0.8622 0.5979
C34 C 0.5470(4) 0.1080(4) 0.6106(2)
H45 H 0.4869 0.1736 0.5884
H46 H 0.6260 0.0917 0.5838
H47 H 0.5177 0.0392 0.6101
C35 C 0.6667(4) 0.0393(4) 0.7240(3)
H48 H 0.6455 -0.0337 0.7217
H49 H 0.7450 0.0309 0.6976
H50 H 0.6744 0.0581 0.7741
O22 O 0.2093(2) 0.5521(2) 0.85585(12)
O23 O 0.3065(3) 0.5455(3) 0.48691(14)
C36 C 0.3235(3) 0.5727(3) 0.5504(2)
O24 O 0.2951(2) 0.5219(2) 0.60618(13)
O25 O 0.1174(2) 0.5909(2) 0.74905(13)
Y1A Y -0.14639(3) 0.54704(3) 0.339255(18)
Y2A Y 0.56856(3) 0.55373(3) 1.172740(18)
Y3_2 Y 0.83080(3) 0.48638(3) 1.015150(17)
Y3A Y 0.16920(3) 0.51362(3) 0.984850(17)
Y4A Y 0.24942(3) 0.57495(3) 0.372160(18)
Y4_2 Y -0.24942(3) 0.42505(3) 0.627840(18)
O2_2 O -0.2701(2) 0.3423(2) 1.01674(13)
O4A O -0.3732(2) 0.5983(2) 1.04458(13)
O5A O 0.0249(2) 0.4194(2) 1.06049(12)
O8A O 0.8324(3) 0.5741(2) 0.62200(14)
O9A O 0.4272(2) 0.6077(2) 0.89918(13)
O12A O 0.0131(2) 0.6113(2) 0.60318(14)
O13A O -0.1496(2) 0.6533(2) 1.07235(13)
O17_2 O 0.9221(2) 0.2913(2) 0.57923(16)
O20_2 O 0.8343(2) 0.3682(2) 0.73962(13)
O22A O -0.2093(2) 0.4479(2) 1.14415(12)
O23A O 0.6935(3) 0.4545(3) 0.51309(14)
loop_
_geom_bond_atom_site_label_1
_geom_bond_atom_site_label_2
_geom_bond_site_symmetry_1
_geom_bond_site_symmetry_2
Y1 O7 1_555 1_555
Y2 O1 1_555 1_555
Y3 O3 1_555 1_555
Y4 O6 1_555 1_555
O1 C17 1_555 1_555
O2 C11 1_555 1_555
O3 C21 1_555 1_555
O4 Y2 1_555 1_555
O5 Y3 1_555 1_555
O6 C17 1_555 1_555
O7 Y2 1_555 1_555
O8 C18 1_555 1_555
C1 H1 1_555 1_555
H2 C1 1_555 1_555
O9 C11 1_555 1_555
C2 C1 1_555 1_555
O10 Y1 1_555 1_555
O11 Y1 1_555 1_555
O12 C18 1_555 1_555
C3 O4 1_555 1_555
O13 C21 1_555 1_555
O14 Y1 1_555 1_555
C4 O7 1_555 1_555
C5 C7 1_555 1_555
O15 Y2 1_555 1_555
H3 O15 1_555 1_555
H4 O15 1_555 1_555
C6 C10 1_555 1_555
O16 Y2 1_555 1_555
C7 H5 1_555 1_555
H6 C7 1_555 1_555
C8 C12 1_555 1_555
C9 C15 1_555 1_555
O17 C10 1_555 1_555
O18 Y4 1_555 1_555
C10 O11 1_555 1_555
C11 C2 1_555 1_555
C12 C4 1_555 1_555
H7 C12 1_555 1_555
H8 C12 1_555 1_555
C13 C14 1_555 1_555
C14 H9 1_555 1_555
H10 C14 1_555 1_555
H11 C14 1_555 1_555
C15 H12 1_555 1_555
H13 C15 1_555 1_555
C16 C9 1_555 1_555
H14 C16 1_555 1_555
H15 C16 1_555 1_555
H16 C16 1_555 1_555
O19 Y2 1_555 1_555
C17 C8 1_555 1_555
C18 C19 1_555 1_555
C19 C6 1_555 1_555
H17 C19 1_555 1_555
H18 C19 1_555 1_555
C20 O16 1_555 1_555
C21 C7 1_555 1_555
C22 C5 1_555 1_555
H19 C22 1_555 1_555
H20 C22 1_555 1_555
H21 C22 1_555 1_555
C23 C2 1_555 1_555
H22 C23 1_555 1_555
H23 C23 1_555 1_555
H24 C23 1_555 1_555
C24 C5 1_555 1_555
H25 C24 1_555 1_555
H26 C24 1_555 1_555
H27 C24 1_555 1_555
C25 C6 1_555 1_555
H28 C25 1_555 1_555
H29 C25 1_555 1_555
H30 C25 1_555 1_555
C26 C9 1_555 1_555
H31 C26 1_555 1_555
H32 C26 1_555 1_555
H33 C26 1_555 1_555
C27 C13 1_555 1_555
H34 C27 1_555 1_555
H35 C27 1_555 1_555
O20 C29 1_555 1_555
O21 Y3 1_555 1_555
C28 C15 1_555 1_555
C29 O14 1_555 1_555
C30 O5 1_555 1_555
C31 C2 1_555 1_555
H36 C31 1_555 1_555
H37 C31 1_555 1_555
H38 C31 1_555 1_555
C32 C6 1_555 1_555
H39 C32 1_555 1_555
H40 C32 1_555 1_555
H41 C32 1_555 1_555
C33 C13 1_555 1_555
H42 C33 1_555 1_555
H43 C33 1_555 1_555
H44 C33 1_555 1_555
C34 C8 1_555 1_555
H45 C34 1_555 1_555
H46 C34 1_555 1_555
H47 C34 1_555 1_555
C35 C8 1_555 1_555
H48 C35 1_555 1_555
H49 C35 1_555 1_555
H50 C35 1_555 1_555
O22 Y2 1_555 1_555
O23 C36 1_555 1_555
C36 C27 1_555 1_555
O24 Y1 1_555 1_555
O25 Y1 1_555 1_555
Y1A O12 1_555 1_555
Y2A O9 1_555 1_555
Y3_2 O2 1_555 1_555
Y3A O4 1_555 1_555
Y4A O8 1_555 1_555
Y4_2 O17 1_555 1_555
O2_2 Y3 1_555 1_555
O4A Y3 1_555 1_555
O5A Y3 1_555 1_555
O8A Y4 1_555 1_555
O9A Y2 1_555 1_555
O12A Y1 1_555 1_555
O13A Y3 1_555 1_555
O17_2 Y4 1_555 1_555
O20_2 Y4 1_555 1_555
O22A Y3 1_555 1_555
O23A Y4 1_555 1_555
O5 Y3A 1_555 1_555
C1 C3 1_555 1_555
O10 C4 1_555 1_555
C3 O19 1_555 1_555
O13 Y3A 1_555 1_555
C5 C29 1_555 1_555
C9 C30 1_555 1_555
O18 C20 1_555 1_555
C13 C20 1_555 1_555
O20 Y4_2 1_555 1_555
O21 C30 1_555 1_555
C28 O22 1_555 1_555
C28 O25 1_555 1_555
O22 Y3A 1_555 1_555
O23 Y4A 1_555 1_555
C36 O24 1_555 1_555
Y3A O5A 1_555 1_555

#END
