
#######################################################################
#
#                 Cambridge Crystallographic Data Centre
#                                CCDC 
#
#######################################################################
#
# If this CIF has been generated from an entry in the Cambridge 
# Structural Database, then it will include bibliographic, chemical, 
# crystal, experimental, refinement or atomic coordinate data resulting 
# from the CCDC's data processing and validation procedures.
#
#######################################################################

data_FENYUU
_symmetry_cell_setting           monoclinic
_symmetry_space_group_name_H-M   'P 21/c'
_symmetry_Int_Tables_number      14
_space_group_name_Hall           '-P 2ybc'
loop_
_symmetry_equiv_pos_site_id
_symmetry_equiv_pos_as_xyz
1 x,y,z
2 -x,1/2+y,1/2-z
3 -x,-y,-z
4 x,1/2-y,1/2+z
_cell_length_a                   15.9284(6)
_cell_length_b                   16.2700(4)
_cell_length_c                   11.8820(4)
_cell_angle_alpha                90
_cell_angle_beta                 92.683(3)
_cell_angle_gamma                90
_cell_volume                     3075.91
loop_
_atom_site_label
_atom_site_type_symbol
_atom_site_fract_x
_atom_site_fract_y
_atom_site_fract_z
Lu1 Lu 0.633386(18) 0.082873(16) 0.50004(2)
Lu2 Lu 0.870160(18) 0.063598(16) 0.58278(2)
Lu3 Lu 0.763388(18) 0.254052(16) 0.67264(2)
C1 C 0.4450(5) 0.0767(4) 0.3918(6)
C2 C 0.7807(5) -0.1009(4) 0.2829(7)
H1 H 0.7216 -0.1118 0.2860
H2 H 0.8068 -0.1440 0.2420
H3 H 0.8055 -0.0983 0.3580
C3 C 0.5206(4) 0.1776(4) 0.8218(5)
H4 H 0.4693 0.1483 0.8002
H5 H 0.5080 0.2359 0.8228
C4 C 0.2518(5) 0.1638(4) 0.2182(6)
H6 H 0.2810 0.2124 0.1959
H7 H 0.2528 0.1237 0.1591
H8 H 0.1946 0.1775 0.2322
C5 C 0.9887(4) 0.3035(4) 0.4683(6)
O1 O 0.5207(3) 0.0920(3) 0.3780(4)
O2 O 0.6540(3) 0.2013(3) 0.7450(4)
C6 C 1.0315(5) 0.2523(4) 0.3796(6)
H9 H 1.0675 0.2121 0.4163
H10 H 1.0643 0.2876 0.3342
H11 H 0.9895 0.2249 0.3326
O3 O 0.7658(3) 0.1544(2) 0.5313(4)
H12 H 0.772(4) 0.195(2) 0.489(4)
C7 C 0.2949(5) 0.1287(4) 0.3258(6)
C8 C 0.2995(5) 0.1963(4) 0.4153(6)
H13 H 0.2437 0.2137 0.4312
H14 H 0.3272 0.1754 0.4829
H15 H 0.3306 0.2421 0.3881
C9 C 0.5860(4) 0.1609(4) 0.7364(5)
O4 O 0.5715(3) 0.1065(3) 0.6626(4)
O5 O 0.7601(3) 0.1233(3) 0.2487(4)
O6 O 0.7004(3) 0.0330(3) 0.3581(4)
O7 O 0.9488(3) 0.1735(3) 0.5467(4)
O8 O 0.8855(3) 0.2859(3) 0.6064(4)
O9 O 0.2664(3) -0.0127(3) 0.3856(4)
O10 O 0.1632(4) 0.0734(3) 0.3788(5)
C10 C 0.3830(4) 0.0993(4) 0.2968(6)
H16 H 0.4083 0.1422 0.2530
H17 H 0.3761 0.0517 0.2481
O11 O 0.4184(3) 0.0429(3) 0.4799(4)
C11 C 0.7486(4) 0.0513(4) 0.2818(5)
C12 C 0.9368(4) 0.2499(4) 0.5437(5)
C13 C 0.2392(5) 0.0605(4) 0.3664(6)
C14 C 0.5521(4) 0.1500(4) 0.9398(6)
C15 C 0.5839(4) 0.0620(4) 0.9396(6)
H18 H 0.5436 0.0277 0.8995
H19 H 0.5917 0.0428 1.0158
H20 H 0.6365 0.0598 0.9035
C16 C 0.7935(5) -0.0189(4) 0.2235(6)
C17 C 0.4796(5) 0.1584(4) 1.0215(6)
H21 H 0.4605 0.2144 1.0221
H22 H 0.4993 0.1428 1.0960
H23 H 0.4339 0.1232 0.9970
C18 C 1.0535(5) 0.3466(4) 0.5460(6)
H24 H 1.0864 0.3063 0.5872
H25 H 1.0252 0.3811 0.5978
H26 H 1.0896 0.3796 0.5019
C19 C 0.7547(5) -0.0246(5) 0.1029(6)
H27 H 0.6970 -0.0412 0.1053
H28 H 0.7577 0.0282 0.0671
H29 H 0.7851 -0.0642 0.0609
C20 C 0.9298(4) 0.3677(4) 0.4116(6)
H30 H 0.9027 0.3986 0.4695
H31 H 0.9631 0.4060 0.3697
C21 C 0.8867(5) 0.0014(4) 0.2188(6)
H32 H 0.8919 0.0556 0.1857
H33 H 0.9120 -0.0375 0.1687
C22 C 0.8635(4) 0.3307(4) 0.3331(5)
C23 C 0.9371(4) 0.0005(4) 0.3305(6)
O12 O 0.8397(3) 0.3689(3) 0.2419(4)
O13 O 0.8304(3) 0.2632(2) 0.3537(4)
O14 O 1.0108(3) -0.0223(3) 0.3315(4)
O15 O 0.8992(3) 0.0249(3) 0.4159(4)
C24 C 0.6194(4) 0.2092(4) 0.9889(6)
O16 O 0.6827(3) 0.1806(3) 1.0429(4)
O17 O 0.6034(3) 0.2841(3) 0.9792(4)
Lu1B Lu 0.366614(18) -0.082873(16) 0.49996(2)
Lu1C Lu 0.633386(18) 0.417127(16) 1.00004(2)
Lu2B Lu 0.129840(18) -0.063598(16) 0.41722(2)
Lu2C Lu 0.870160(18) 0.436402(16) 0.08278(2)
Lu2B_2 Lu 1.129840(18) -0.063598(16) 0.41722(2)
Lu3C Lu 0.763388(18) 0.245948(16) 0.17264(2)
Lu3C_2 Lu 0.763388(18) 0.245948(16) 1.17264(2)
O5C O 0.7601(3) 0.3767(3) 0.7487(4)
O9B O 0.7336(3) 0.0127(3) 0.6144(4)
O10B O 0.8368(4) -0.0734(3) 0.6212(5)
O11B O 0.5816(3) -0.0429(3) 0.5201(4)
O12C O 0.8397(3) 0.1311(3) 0.7419(4)
O13C O 0.8304(3) 0.2368(2) 0.8537(4)
O14B O 0.9892(3) 0.0223(3) 0.6685(4)
O16C O 0.6827(3) 0.3194(3) 0.5429(4)
O17C O 0.6034(3) 0.2159(3) 0.4792(4)
loop_
_geom_bond_atom_site_label_1
_geom_bond_atom_site_label_2
_geom_bond_site_symmetry_1
_geom_bond_site_symmetry_2
Lu1 O1 1_555 1_555
Lu2 O3 1_555 1_555
Lu3 O2 1_555 1_555
C1 O1 1_555 1_555
C2 H1 1_555 1_555
H2 C2 1_555 1_555
H3 C2 1_555 1_555
C3 H4 1_555 1_555
H5 C3 1_555 1_555
C4 H6 1_555 1_555
H7 C4 1_555 1_555
H8 C4 1_555 1_555
C5 C6 1_555 1_555
O2 C9 1_555 1_555
C6 H9 1_555 1_555
H10 C6 1_555 1_555
H11 C6 1_555 1_555
O3 Lu1 1_555 1_555
H12 O3 1_555 1_555
C7 C4 1_555 1_555
C8 C7 1_555 1_555
H13 C8 1_555 1_555
H14 C8 1_555 1_555
H15 C8 1_555 1_555
C9 C3 1_555 1_555
O4 Lu1 1_555 1_555
O5 C11 1_555 1_555
O6 Lu1 1_555 1_555
O7 Lu2 1_555 1_555
O8 Lu3 1_555 1_555
O9 C13 1_555 1_555
O10 C13 1_555 1_555
C10 C1 1_555 1_555
H16 C10 1_555 1_555
H17 C10 1_555 1_555
O11 C1 1_555 1_555
C11 O6 1_555 1_555
C12 C5 1_555 1_555
C13 C7 1_555 1_555
C14 C3 1_555 1_555
C15 C14 1_555 1_555
H18 C15 1_555 1_555
H19 C15 1_555 1_555
H20 C15 1_555 1_555
C16 C2 1_555 1_555
C17 C14 1_555 1_555
H21 C17 1_555 1_555
H22 C17 1_555 1_555
H23 C17 1_555 1_555
C18 C5 1_555 1_555
H24 C18 1_555 1_555
H25 C18 1_555 1_555
H26 C18 1_555 1_555
C19 C16 1_555 1_555
H27 C19 1_555 1_555
H28 C19 1_555 1_555
H29 C19 1_555 1_555
C20 C5 1_555 1_555
H30 C20 1_555 1_555
H31 C20 1_555 1_555
C21 C16 1_555 1_555
H32 C21 1_555 1_555
H33 C21 1_555 1_555
C22 C20 1_555 1_555
C23 C21 1_555 1_555
O12 C22 1_555 1_555
O13 C22 1_555 1_555
O14 C23 1_555 1_555
O15 Lu2 1_555 1_555
C24 C14 1_555 1_555
O16 C24 1_555 1_555
O17 C24 1_555 1_555
Lu1B O9 1_555 1_555
Lu1C O17 1_555 1_555
Lu2B O9 1_555 1_555
Lu2C O12 1_555 1_555
Lu2B_2 O14 1_555 1_555
Lu3C O5 1_555 1_555
Lu3C_2 O16 1_555 1_555
O5C Lu3 1_555 1_555
O9B Lu1 1_555 1_555
O10B Lu2 1_555 1_555
O11B Lu1 1_555 1_555
O12C Lu2 1_555 1_555
O13C Lu3 1_555 1_555
O14B Lu2 1_555 1_555
O16C Lu3 1_555 1_555
O17C Lu1 1_555 1_555
Lu2 O9B 1_555 1_555
Lu3 O3 1_555 1_555
Lu3 O12C 1_555 1_555
C7 C10 1_555 1_555
C9 O4 1_555 1_555
O7 C12 1_555 1_555
O8 C12 1_555 1_555
O10 Lu2B 1_555 1_555
O11 Lu1B 1_555 1_555
C11 C16 1_555 1_555
C23 O15 1_555 1_555
O12 Lu3C 1_555 1_555
O13 Lu3C 1_555 1_555

#END
