
#######################################################################
#
#                 Cambridge Crystallographic Data Centre
#                                CCDC 
#
#######################################################################
#
# If this CIF has been generated from an entry in the Cambridge 
# Structural Database, then it will include bibliographic, chemical, 
# crystal, experimental, refinement or atomic coordinate data resulting 
# from the CCDC's data processing and validation procedures.
#
#######################################################################

data_FEPMOE
_symmetry_cell_setting           monoclinic
_symmetry_space_group_name_H-M   'P 21/n'
_symmetry_Int_Tables_number      14
_space_group_name_Hall           '-P 2yn'
loop_
_symmetry_equiv_pos_site_id
_symmetry_equiv_pos_as_xyz
1 x,y,z
2 1/2-x,1/2+y,1/2-z
3 -x,-y,-z
4 1/2+x,1/2-y,1/2+z
_cell_length_a                   9.7089(14)
_cell_length_b                   8.9276(13)
_cell_length_c                   25.930(4)
_cell_angle_alpha                90
_cell_angle_beta                 91.090(2)
_cell_angle_gamma                90
_cell_volume                     2247.13
loop_
_atom_site_label
_atom_site_type_symbol
_atom_site_fract_x
_atom_site_fract_y
_atom_site_fract_z
Tb1 Tb 0.48919(3) -0.04769(3) 0.218594(11)
C1 C 0.2364(6) 0.1479(8) 0.2624(3)
C2 C 0.3316(7) 0.1262(8) 0.3080(2)
C3 C 0.4924(7) 0.0330(9) 0.3564(3)
C4 C 0.5975(7) -0.0522(10) 0.3801(3)
H1 H 0.6372 -0.1331 0.3634
C5 C 0.6386(10) -0.0114(12) 0.4282(3)
H2 H 0.7072 -0.0668 0.4449
C6 C 0.5818(11) 0.1107(13) 0.4537(4)
H3 H 0.6153 0.1356 0.4864
C7 C 0.4780(10) 0.1953(11) 0.4320(3)
H4 H 0.4387 0.2756 0.4492
C8 C 0.4350(7) 0.1533(9) 0.3824(3)
C9 C 0.4226(7) -0.0593(8) 0.0937(3)
C10 C 0.5754(6) -0.0265(7) 0.0966(2)
C11 C 0.7792(7) 0.0038(8) 0.1290(3)
C12 C 0.7849(7) 0.0320(8) 0.0759(3)
C13 C 0.8982(7) 0.0167(9) 0.1606(3)
H5 H 0.8965 -0.0024 0.1958
C14 C 1.0172(7) 0.0589(10) 0.1364(3)
H6 H 1.0973 0.0698 0.1563
C15 C 1.0231(8) 0.0863(10) 0.0834(3)
H7 H 1.1067 0.1120 0.0689
C16 C 0.9067(8) 0.0756(9) 0.0523(3)
H8 H 0.9092 0.0965 0.0172
C17 C 0.7165(6) 0.2244(7) 0.2455(2)
C18 C 0.6196(6) 0.2958(7) 0.2082(3)
C19 C 0.4531(6) 0.3172(7) 0.1532(3)
C20 C 0.3389(7) 0.2991(8) 0.1206(3)
H9 H 0.2828 0.2150 0.1229
C21 C 0.3119(9) 0.4088(10) 0.0855(3)
H10 H 0.2357 0.3983 0.0635
C22 C 0.3940(9) 0.5363(10) 0.0811(3)
H11 H 0.3732 0.6065 0.0556
C23 C 0.5056(8) 0.5602(8) 0.1139(3)
H12 H 0.5598 0.6458 0.1120
C24 C 0.5317(7) 0.4489(8) 0.1499(3)
N1 N 0.6445(5) -0.0346(6) 0.1409(2)
N2 N 0.6538(5) 0.0114(7) 0.0566(2)
H13 H 0.6270 0.0210 0.0250
N3 N 0.5108(5) 0.2243(6) 0.1903(2)
N4 N 0.6362(6) 0.4318(6) 0.1864(2)
H14 H 0.6997 0.4958 0.1938
N5 N 0.4270(5) 0.0202(7) 0.3084(2)
N6 N 0.3333(6) 0.2100(7) 0.3507(2)
H15 H 0.2806 0.2849 0.3571
O1 O 0.3724(4) -0.0777(5) 0.13748(17)
O2 O 0.3651(5) -0.0636(6) 0.05132(18)
O3 O 0.2642(5) 0.0681(5) 0.22451(17)
O4 O 0.1376(4) 0.2370(5) 0.26665(18)
O5 O 0.6786(4) 0.0966(5) 0.25944(18)
O6 O 0.8261(4) 0.2883(5) 0.25894(17)
Tb1A Tb 0.01081(3) 0.45231(3) 0.281406(11)
Tb1A_2 Tb 1.01081(3) 0.45231(3) 0.281406(11)
O4A O 0.3624(4) -0.2630(5) 0.23335(18)
O6A O 0.6739(4) -0.2117(5) 0.24106(17)
loop_
_geom_bond_atom_site_label_1
_geom_bond_atom_site_label_2
_geom_bond_site_symmetry_1
_geom_bond_site_symmetry_2
Tb1 N1 1_555 1_555
C1 C2 1_555 1_555
C2 N5 1_555 1_555
C3 C4 1_555 1_555
C4 H1 1_555 1_555
C5 C4 1_555 1_555
H2 C5 1_555 1_555
C6 C5 1_555 1_555
H3 C6 1_555 1_555
C7 C6 1_555 1_555
H4 C7 1_555 1_555
C8 C3 1_555 1_555
C9 C10 1_555 1_555
C10 N1 1_555 1_555
C11 C12 1_555 1_555
C12 C16 1_555 1_555
C13 C11 1_555 1_555
H5 C13 1_555 1_555
C14 C13 1_555 1_555
H6 C14 1_555 1_555
C15 C14 1_555 1_555
H7 C15 1_555 1_555
C16 C15 1_555 1_555
H8 C16 1_555 1_555
C17 C18 1_555 1_555
C18 N3 1_555 1_555
C19 C20 1_555 1_555
C20 H9 1_555 1_555
C21 C20 1_555 1_555
H10 C21 1_555 1_555
C22 C21 1_555 1_555
H11 C22 1_555 1_555
C23 C22 1_555 1_555
H12 C23 1_555 1_555
C24 C19 1_555 1_555
N1 C11 1_555 1_555
N2 C10 1_555 1_555
H13 N2 1_555 1_555
N3 Tb1 1_555 1_555
N4 C18 1_555 1_555
H14 N4 1_555 1_555
N5 Tb1 1_555 1_555
N6 C2 1_555 1_555
H15 N6 1_555 1_555
O1 Tb1 1_555 1_555
O2 C9 1_555 1_555
O3 Tb1 1_555 1_555
O4 C1 1_555 1_555
O5 Tb1 1_555 1_555
O6 C17 1_555 1_555
Tb1A O4 1_555 1_555
Tb1A_2 O6 1_555 1_555
O4A Tb1 1_555 1_555
O6A Tb1 1_555 1_555
C1 O3 1_555 1_555
C3 N5 1_555 1_555
C7 C8 1_555 1_555
C8 N6 1_555 1_555
C9 O1 1_555 1_555
C12 N2 1_555 1_555
C17 O5 1_555 1_555
C19 N3 1_555 1_555
C23 C24 1_555 1_555
C24 N4 1_555 1_555

#END
