
#######################################################################
#
#                 Cambridge Crystallographic Data Centre
#                                CCDC 
#
#######################################################################
#
# If this CIF has been generated from an entry in the Cambridge 
# Structural Database, then it will include bibliographic, chemical, 
# crystal, experimental, refinement or atomic coordinate data resulting 
# from the CCDC's data processing and validation procedures.
#
#######################################################################

data_FEPMUK
_symmetry_cell_setting           monoclinic
_symmetry_space_group_name_H-M   'P 21/n'
_symmetry_Int_Tables_number      14
_space_group_name_Hall           '-P 2yn'
loop_
_symmetry_equiv_pos_site_id
_symmetry_equiv_pos_as_xyz
1 x,y,z
2 1/2-x,1/2+y,1/2-z
3 -x,-y,-z
4 1/2+x,1/2-y,1/2+z
_cell_length_a                   9.7575(10)
_cell_length_b                   8.9776(9)
_cell_length_c                   26.005(3)
_cell_angle_alpha                90
_cell_angle_beta                 91.1130(10)
_cell_angle_gamma                90
_cell_volume                     2277.58
loop_
_atom_site_label
_atom_site_type_symbol
_atom_site_fract_x
_atom_site_fract_y
_atom_site_fract_z
Eu1 Eu 0.489232(17) 0.44662(2) 0.218617(7)
C1 C 0.2350(4) 0.6403(4) 0.26299(14)
C2 C 0.3311(4) 0.6219(5) 0.30804(15)
C3 C 0.4917(4) 0.5321(5) 0.35721(15)
C4 C 0.4340(4) 0.6526(5) 0.38298(15)
C5 C 0.5949(5) 0.4475(5) 0.38024(18)
H1 H 0.6330 0.3659 0.3637
C6 C 0.6384(6) 0.4907(7) 0.4292(2)
H2 H 0.7068 0.4364 0.4461
C7 C 0.5820(7) 0.6129(8) 0.4532(2)
H3 H 0.6158 0.6396 0.4856
C8 C 0.4785(6) 0.6964(7) 0.43157(19)
H4 H 0.4405 0.7775 0.4484
C9 C 0.7166(4) 0.7205(4) 0.24592(14)
C10 C 0.6184(4) 0.7916(4) 0.20836(15)
C11 C 0.5324(4) 0.9427(4) 0.15046(16)
C12 C 0.5060(5) 1.0556(5) 0.11453(19)
H5 H 0.5603 1.1406 0.1129
C13 C 0.3952(6) 1.0339(6) 0.0817(2)
H6 H 0.3745 1.1050 0.0567
C14 C 0.3130(5) 0.9061(6) 0.08547(19)
H7 H 0.2381 0.8958 0.0631
C15 C 0.3390(4) 0.7961(5) 0.12079(17)
H8 H 0.2827 0.7128 0.1230
C16 C 0.4533(4) 0.8138(5) 0.15342(15)
C17 C 0.4243(4) 0.4379(4) 0.09277(17)
C18 C 0.5759(4) 0.4700(4) 0.09615(15)
C19 C 0.7847(4) 0.5312(5) 0.07571(16)
C20 C 0.9049(5) 0.5741(6) 0.05211(17)
H9 H 0.9077 0.5945 0.0171
C21 C 1.0202(5) 0.5848(6) 0.08365(18)
H10 H 1.1030 0.6127 0.0694
C22 C 1.0161(5) 0.5550(5) 0.13627(19)
H11 H 1.0960 0.5641 0.1561
C23 C 0.8969(4) 0.5124(5) 0.15951(17)
H12 H 0.8948 0.4919 0.1945
C24 C 0.7786(4) 0.5012(5) 0.12820(15)
N1 N 0.5098(3) 0.7192(4) 0.19049(13)
N2 N 0.6353(4) 0.9262(4) 0.18706(13)
H13 H 0.6983 0.9899 0.1948
N3 N 0.6450(3) 0.4621(4) 0.14037(12)
N4 N 0.6533(3) 0.5101(4) 0.05621(13)
H14 H 0.6264 0.5206 0.0247
N5 N 0.4265(3) 0.5151(4) 0.30912(13)
N6 N 0.3323(4) 0.7066(4) 0.35063(13)
H15 H 0.2792 0.7808 0.3566
O1 O 0.3730(3) 0.4175(3) 0.13649(10)
O2 O 0.3662(3) 0.4343(4) 0.05057(11)
O3 O 0.2628(3) 0.5603(3) 0.22535(11)
O4 O 0.1374(3) 0.7301(3) 0.26677(10)
O5 O 0.6779(3) 0.5932(3) 0.25969(11)
O6 O 0.8246(3) 0.7835(3) 0.25911(10)
Eu1A Eu 0.010768(17) 0.94662(2) 0.281383(7)
Eu1A_2 Eu 1.010768(17) 0.94662(2) 0.281383(7)
O4A O 0.3626(3) 0.2301(3) 0.23323(10)
O6A O 0.6754(3) 0.2835(3) 0.24089(10)
loop_
_geom_bond_atom_site_label_1
_geom_bond_atom_site_label_2
_geom_bond_site_symmetry_1
_geom_bond_site_symmetry_2
Eu1 N1 1_555 1_555
C1 C2 1_555 1_555
C2 N5 1_555 1_555
C3 C4 1_555 1_555
C4 C8 1_555 1_555
C5 C3 1_555 1_555
H1 C5 1_555 1_555
C6 C5 1_555 1_555
H2 C6 1_555 1_555
C7 C6 1_555 1_555
H3 C7 1_555 1_555
C8 C7 1_555 1_555
H4 C8 1_555 1_555
C9 C10 1_555 1_555
C10 N1 1_555 1_555
C11 C12 1_555 1_555
C12 H5 1_555 1_555
C13 C12 1_555 1_555
H6 C13 1_555 1_555
C14 C13 1_555 1_555
H7 C14 1_555 1_555
C15 C14 1_555 1_555
H8 C15 1_555 1_555
C16 C11 1_555 1_555
C17 C18 1_555 1_555
C18 N3 1_555 1_555
C19 C20 1_555 1_555
C20 H9 1_555 1_555
C21 C20 1_555 1_555
H10 C21 1_555 1_555
C22 C21 1_555 1_555
H11 C22 1_555 1_555
C23 C22 1_555 1_555
H12 C23 1_555 1_555
C24 C19 1_555 1_555
N1 C16 1_555 1_555
N2 C10 1_555 1_555
H13 N2 1_555 1_555
N3 Eu1 1_555 1_555
N4 C18 1_555 1_555
H14 N4 1_555 1_555
N5 Eu1 1_555 1_555
N6 C2 1_555 1_555
H15 N6 1_555 1_555
O1 Eu1 1_555 1_555
O2 C17 1_555 1_555
O3 Eu1 1_555 1_555
O4 C1 1_555 1_555
O5 Eu1 1_555 1_555
O6 C9 1_555 1_555
Eu1A O4 1_555 1_555
Eu1A_2 O6 1_555 1_555
O4A Eu1 1_555 1_555
O6A Eu1 1_555 1_555
C1 O3 1_555 1_555
C3 N5 1_555 1_555
C4 N6 1_555 1_555
C9 O5 1_555 1_555
C11 N2 1_555 1_555
C15 C16 1_555 1_555
C17 O1 1_555 1_555
C19 N4 1_555 1_555
C23 C24 1_555 1_555
C24 N3 1_555 1_555

#END
