
#######################################################################
#
#                 Cambridge Crystallographic Data Centre
#                                CCDC 
#
#######################################################################
#
# If this CIF has been generated from an entry in the Cambridge 
# Structural Database, then it will include bibliographic, chemical, 
# crystal, experimental, refinement or atomic coordinate data resulting 
# from the CCDC's data processing and validation procedures.
#
#######################################################################

data_FEPTAW
_symmetry_cell_setting           monoclinic
_symmetry_space_group_name_H-M   'P 21/c'
_symmetry_Int_Tables_number      14
_space_group_name_Hall           '-P 2ybc'
loop_
_symmetry_equiv_pos_site_id
_symmetry_equiv_pos_as_xyz
1 x,y,z
2 -x,1/2+y,1/2-z
3 -x,-y,-z
4 x,1/2-y,1/2+z
_cell_length_a                   7.5384(6)
_cell_length_b                   16.8918(13)
_cell_length_c                   8.4082(6)
_cell_angle_alpha                90.00
_cell_angle_beta                 112.232(2)
_cell_angle_gamma                90.00
_cell_volume                     991.081
loop_
_atom_site_label
_atom_site_type_symbol
_atom_site_fract_x
_atom_site_fract_y
_atom_site_fract_z
Cd1 Cd 0.5000 1.0000 0.5000
Cl1 Cl 0.69653(19) 0.95984(9) 0.31360(18)
N1 N 0.3733(6) 0.8665(2) 0.4707(6)
N2 N -0.2516(6) 0.5483(3) 0.2394(5)
N3 N 0.0252(6) 0.5985(2) 0.4098(6)
C1 C 0.4966(10) 0.8079(3) 0.4877(11)
H1 H 0.6206 0.8210 0.4989
C2 C 0.4526(8) 0.7291(3) 0.4898(10)
H2 H 0.5459 0.6906 0.5052
C3 C 0.2686(7) 0.7076(3) 0.4688(7)
C4 C 0.1389(7) 0.7674(3) 0.4501(8)
H3 H 0.0129 0.7556 0.4342
C5 C 0.1966(8) 0.8452(3) 0.4550(7)
H4 H 0.1080 0.8848 0.4469
C6 C 0.2270(7) 0.6194(3) 0.4718(8)
H5 H 0.2885 0.6005 0.5889
H6 H 0.2851 0.5918 0.4025
C7 C -0.0921(8) 0.5990(3) 0.4998(7)
H7 H -0.0618 0.6170 0.6115
C8 C -0.2616(8) 0.5681(3) 0.3936(7)
H8 H -0.3688 0.5613 0.4215
C9 C -0.0775(7) 0.5669(3) 0.2526(7)
H9 H -0.0305 0.5595 0.1661
Cd1C Cd -0.5000 0.5000 0.0000
Cd1C_2 Cd 1.5000 1.5000 1.0000
Cl1B Cl 0.30347(19) 1.04016(9) 0.68640(18)
N1B N 0.6267(6) 1.1335(2) 0.5293(6)
N2B N 1.2516(6) 1.4517(3) 0.7606(5)
N2C N 0.7484(6) 0.9517(3) 0.7394(5)
N2A N 0.2516(6) 1.0483(3) 0.2606(5)
N3B N 0.9748(6) 1.4015(2) 0.5902(6)
C1B C 0.5034(10) 1.1921(3) 0.5123(11)
H1B H 0.3794 1.1790 0.5011
C2B C 0.5474(8) 1.2709(3) 0.5102(10)
H2B H 0.4541 1.3094 0.4948
C3B C 0.7314(7) 1.2924(3) 0.5312(7)
C4B C 0.8611(7) 1.2326(3) 0.5499(8)
H3B H 0.9871 1.2444 0.5658
C5B C 0.8034(8) 1.1548(3) 0.5450(7)
H4B H 0.8920 1.1152 0.5531
C6B C 0.7730(7) 1.3806(3) 0.5282(8)
H5B H 0.7115 1.3995 0.4111
H6B H 0.7149 1.4082 0.5975
C7B C 1.0921(8) 1.4010(3) 0.5002(7)
H7B H 1.0618 1.3830 0.3885
C8B C 1.2616(8) 1.4319(3) 0.6064(7)
H8B H 1.3688 1.4387 0.5785
C9B C 1.0775(7) 1.4331(3) 0.7474(7)
H9B H 1.0305 1.4405 0.8339
loop_
_geom_bond_atom_site_label_1
_geom_bond_atom_site_label_2
_geom_bond_site_symmetry_1
_geom_bond_site_symmetry_2
Cd1 Cl1 1_555 1_555
N1 Cd1 1_555 1_555
N2 C8 1_555 1_555
N3 C6 1_555 1_555
C1 N1 1_555 1_555
H1 C1 1_555 1_555
C2 C1 1_555 1_555
H2 C2 1_555 1_555
C3 C2 1_555 1_555
C4 C3 1_555 1_555
H3 C4 1_555 1_555
C5 N1 1_555 1_555
H4 C5 1_555 1_555
C6 C3 1_555 1_555
H5 C6 1_555 1_555
H6 C6 1_555 1_555
C7 N3 1_555 1_555
H7 C7 1_555 1_555
C8 C7 1_555 1_555
H8 C8 1_555 1_555
C9 N2 1_555 1_555
H9 C9 1_555 1_555
Cd1C N2 1_555 1_555
Cd1C_2 N2B 1_555 1_555
Cl1B Cd1 1_555 1_555
N1B Cd1 1_555 1_555
N2B C8B 1_555 1_555
N2C Cd1 1_555 1_555
N2A Cd1 1_555 1_555
N3B C6B 1_555 1_555
C1B N1B 1_555 1_555
H1B C1B 1_555 1_555
C2B C1B 1_555 1_555
H2B C2B 1_555 1_555
C3B C2B 1_555 1_555
C4B C3B 1_555 1_555
H3B C4B 1_555 1_555
C5B N1B 1_555 1_555
H4B C5B 1_555 1_555
C6B C3B 1_555 1_555
H5B C6B 1_555 1_555
H6B C6B 1_555 1_555
C7B N3B 1_555 1_555
H7B C7B 1_555 1_555
C8B C7B 1_555 1_555
H8B C8B 1_555 1_555
C9B N2B 1_555 1_555
H9B C9B 1_555 1_555
N3 C9 1_555 1_555
C4 C5 1_555 1_555
N3B C9B 1_555 1_555
C4B C5B 1_555 1_555

#END
