
#######################################################################
#
#                 Cambridge Crystallographic Data Centre
#                                CCDC 
#
#######################################################################
#
# If this CIF has been generated from an entry in the Cambridge 
# Structural Database, then it will include bibliographic, chemical, 
# crystal, experimental, refinement or atomic coordinate data resulting 
# from the CCDC's data processing and validation procedures.
#
#######################################################################

data_FEPTIE
_symmetry_cell_setting           monoclinic
_symmetry_space_group_name_H-M   'P 21/c'
_symmetry_Int_Tables_number      14
_space_group_name_Hall           '-P 2ybc'
loop_
_symmetry_equiv_pos_site_id
_symmetry_equiv_pos_as_xyz
1 x,y,z
2 -x,1/2+y,1/2-z
3 -x,-y,-z
4 x,1/2-y,1/2+z
_cell_length_a                   8.2156(4)
_cell_length_b                   16.4773(4)
_cell_length_c                   9.0405(4)
_cell_angle_alpha                90.00
_cell_angle_beta                 115.909(2)
_cell_angle_gamma                90.00
_cell_volume                     1100.81
loop_
_atom_site_label
_atom_site_type_symbol
_atom_site_fract_x
_atom_site_fract_y
_atom_site_fract_z
I1 I -0.69829(5) 0.04839(2) -0.30433(5)
Cd1 Cd -0.5000 0.0000 -0.5000
N1 N 0.2590(6) 0.4451(3) -0.2350(5)
C1 C 0.0915(7) 0.4305(3) -0.2605(7)
H1 H 0.0463 0.4412 -0.1844
C2 C 0.2670(8) 0.4222(4) -0.3769(7)
H2 H 0.3693 0.4261 -0.3959
N2 N -0.0072(6) 0.3981(3) -0.4109(6)
C3 C -0.1349(7) 0.2279(3) -0.4469(8)
H3 H -0.0169 0.2359 -0.4326
C4 C -0.2481(7) 0.2928(3) -0.4680(7)
C5 C 0.1052(9) 0.3932(4) -0.4856(8)
H4 H 0.0760 0.3737 -0.5907
C6 C -0.2004(8) 0.3800(4) -0.4822(8)
H5 H -0.2536 0.3946 -0.5977
H6 H -0.2556 0.4141 -0.4292
N3 N -0.3648(6) 0.1339(3) -0.4625(6)
C7 C -0.2006(8) 0.1501(4) -0.4475(8)
H7 H -0.1241 0.1065 -0.4366
C8 C -0.4733(9) 0.1978(4) -0.4816(10)
H8 H -0.4106 -0.1884 -0.5081
C9 C -0.4202(9) 0.2765(4) -0.4864(10)
H9 H -0.5010 0.3189 -0.5022
I1B I -0.30171(5) -0.04839(2) -0.69567(5)
Cd1C Cd 0.5000 0.5000 0.0000
Cd1C_2 Cd -1.5000 -0.5000 -1.0000
N1C N -0.7410(6) 0.0549(3) -0.7350(5)
N1A N -0.2590(6) -0.0549(3) -0.2650(5)
N1B N -1.2590(6) -0.4451(3) -0.7650(5)
C1B C -1.0915(7) -0.4305(3) -0.7395(7)
H1B H -1.0463 -0.4412 -0.8156
C2B C -1.2670(8) -0.4222(4) -0.6231(7)
H2B H -1.3693 -0.4261 -0.6041
N2B N -0.9928(6) -0.3981(3) -0.5891(6)
C3B C -0.8651(7) -0.2279(3) -0.5531(8)
H3B H -0.9831 -0.2359 -0.5674
C4B C -0.7519(7) -0.2928(3) -0.5320(7)
C5B C -1.1052(9) -0.3932(4) -0.5144(8)
H4B H -1.0760 -0.3737 -0.4093
C6B C -0.7996(8) -0.3800(4) -0.5178(8)
H5B H -0.7464 -0.3946 -0.4023
H6B H -0.7444 -0.4141 -0.5708
N3B N -0.6352(6) -0.1339(3) -0.5375(6)
C7B C -0.7994(8) -0.1501(4) -0.5525(8)
H7B H -0.8759 -0.1065 -0.5634
C8B C -0.5267(9) -0.1978(4) -0.5184(10)
H8B H -0.5894 0.1884 -0.4919
C9B C -0.5798(9) -0.2765(4) -0.5136(10)
H9B H -0.4990 -0.3189 -0.4978
loop_
_geom_bond_atom_site_label_1
_geom_bond_atom_site_label_2
_geom_bond_site_symmetry_1
_geom_bond_site_symmetry_2
I1 Cd1 1_555 1_555
Cd1 N3 1_555 1_555
N1 C1 1_555 1_555
C1 H1 1_555 1_555
C2 N1 1_555 1_555
H2 C2 1_555 1_555
N2 C1 1_555 1_555
C3 H3 1_555 1_555
C4 C3 1_555 1_555
C5 C2 1_555 1_555
H4 C5 1_555 1_555
C6 N2 1_555 1_555
H5 C6 1_555 1_555
H6 C6 1_555 1_555
N3 C7 1_555 1_555
C7 C3 1_555 1_555
H7 C7 1_555 1_555
C8 N3 1_555 1_555
H8 C8B 1_555 1_555
C9 C4 1_555 1_555
H9 C9 1_555 1_555
I1B Cd1 1_555 1_555
Cd1C N1 1_555 1_555
Cd1C_2 N1B 1_555 1_555
N1C Cd1 1_555 1_555
N1A Cd1 1_555 1_555
N1B C1B 1_555 1_555
C1B H1B 1_555 1_555
C2B N1B 1_555 1_555
H2B C2B 1_555 1_555
N2B C1B 1_555 1_555
C3B H3B 1_555 1_555
C4B C3B 1_555 1_555
C5B C2B 1_555 1_555
H4B C5B 1_555 1_555
C6B N2B 1_555 1_555
H5B C6B 1_555 1_555
H6B C6B 1_555 1_555
N3B Cd1 1_555 1_555
C7B C3B 1_555 1_555
H7B C7B 1_555 1_555
C8B N3B 1_555 1_555
H8B C8 1_555 1_555
C9B C4B 1_555 1_555
H9B C9B 1_555 1_555
N2 C5 1_555 1_555
C4 C6 1_555 1_555
C8 C9 1_555 1_555
N2B C5B 1_555 1_555
C4B C6B 1_555 1_555
N3B C7B 1_555 1_555
C8B C9B 1_555 1_555

#END
