
#######################################################################
#
#                 Cambridge Crystallographic Data Centre
#                                CCDC 
#
#######################################################################
#
# If this CIF has been generated from an entry in the Cambridge 
# Structural Database, then it will include bibliographic, chemical, 
# crystal, experimental, refinement or atomic coordinate data resulting 
# from the CCDC's data processing and validation procedures.
#
#######################################################################

data_FEQSUQ
_symmetry_cell_setting           triclinic
_symmetry_space_group_name_H-M   'P -1'
_symmetry_Int_Tables_number      2
_space_group_name_Hall           '-P 1'
loop_
_symmetry_equiv_pos_site_id
_symmetry_equiv_pos_as_xyz
1 x,y,z
2 -x,-y,-z
_cell_length_a                   9.3259(2)
_cell_length_b                   9.4356(2)
_cell_length_c                   15.7139(4)
_cell_angle_alpha                97.7230(10)
_cell_angle_beta                 98.1340(10)
_cell_angle_gamma                107.3690(10)
_cell_volume                     1283.39
loop_
_atom_site_label
_atom_site_type_symbol
_atom_site_fract_x
_atom_site_fract_y
_atom_site_fract_z
Ag1 Ag -0.54995(5) -0.25808(5) -1.23916(2)
Ag2 Ag -0.82358(6) 0.14252(6) -0.26730(2)
S1 S -0.83398(15) 0.00676(14) -0.69725(7)
S2 S -0.27140(15) -0.28467(13) -1.17059(7)
O1 O -0.6012(5) -0.2428(6) -1.1068(2)
O2 O -0.8540(4) -0.3441(5) -1.1369(2)
O3 O -0.1956(4) -0.6054(5) -1.5975(2)
O4 O -0.4434(4) -0.7349(4) -1.6197(2)
N1 N -0.7969(5) 0.1186(4) -0.4029(2)
N2 N -0.2235(5) -0.1898(5) -0.8747(2)
C1 C -0.7302(6) -0.2801(6) -1.0859(3)
C2 C -0.7314(6) -0.2402(5) -0.9891(3)
C3 C -0.5976(6) -0.1539(6) -0.9312(3)
H5 H -0.5067 -0.1216 -0.9517
C4 C -0.5980(6) -0.1156(6) -0.8434(3)
H6 H -0.5075 -0.0565 -0.8055
C5 C -0.8652(6) -0.2892(6) -0.9569(3)
H7 H -0.9556 -0.3483 -0.9949
C6 C -0.8649(6) -0.2507(6) -0.8684(3)
H8 H -0.9554 -0.2836 -0.8476
C7 C -0.7316(6) -0.1639(6) -0.8110(3)
C8 C -0.7294(7) -0.1243(7) -0.7142(3)
H9 H -0.6246 -0.0789 -0.6826
H10 H -0.7761 -0.2151 -0.6923
C9 C -0.8097(5) 0.0484(5) -0.5828(3)
C10 C -0.8711(6) 0.1550(5) -0.5479(3)
H11 H -0.9179 0.2048 -0.5845
C11 C -0.8623(6) 0.1863(5) -0.4599(3)
H12 H -0.9038 0.2584 -0.4378
C12 C -0.7370(6) -0.0194(5) -0.5246(3)
H13 H -0.6915 -0.0893 -0.5449
C13 C -0.7340(6) 0.0189(6) -0.4366(3)
H14 H -0.6854 -0.0270 -0.3984
C14 C -0.3181(6) -0.6519(5) -1.5716(3)
C15 C -0.3186(5) -0.6070(5) -1.4754(3)
C16 C -0.4551(6) -0.6342(6) -1.4456(3)
H15 H -0.5474 -0.6809 -1.4848
C17 C -0.4552(6) -0.5921(6) -1.3572(3)
H16 H -0.5478 -0.6090 -1.3381
C18 C -0.1822(6) -0.5380(6) -1.4163(3)
H17 H -0.0895 -0.5190 -1.4354
C19 C -0.1841(6) -0.4974(6) -1.3288(3)
H18 H -0.0919 -0.4498 -1.2896
C20 C -0.3205(6) -0.5263(5) -1.2980(3)
C21 C -0.3200(7) -0.4868(6) -1.2017(3)
H19 H -0.2459 -0.5214 -1.1681
H20 H -0.4202 -0.5365 -1.1897
C22 C -0.2596(5) -0.2568(5) -1.0571(3)
C23 C -0.3046(6) -0.3713(5) -1.0094(3)
H21 H -0.3473 -0.4717 -1.0376
C24 C -0.2847(6) -0.3329(6) -0.9194(3)
H22 H -0.3152 -0.4100 -0.8881
C25 C -0.1990(5) -0.1091(5) -1.0112(3)
H23 H -0.1699 -0.0295 -1.0409
C26 C -0.1822(6) -0.0809(6) -0.9212(3)
H24 H -0.1401 0.0187 -0.8915
Ag1A Ag -0.45005(5) -0.74192(5) -1.76084(2)
Ag2A Ag -0.17642(6) -0.14252(6) -0.73270(2)
O4A O -0.5566(4) -0.2651(4) -1.3803(2)
N2A N -0.7765(5) 0.1898(5) -0.1253(2)
O5 O -0.1568(6) -0.8334(5) -1.7241(3)
H1 H -0.157(7) -0.768(7) -1.685(4)
H2 H -0.150(10) -0.773(10) -1.769(6)
O6 O -0.1781(8) -0.4358(6) -0.7330(4)
H3 H -0.164(7) -0.489(7) -0.769(4)
H4 H -0.187(7) -0.462(7) -0.700(4)
loop_
_geom_bond_atom_site_label_1
_geom_bond_atom_site_label_2
_geom_bond_site_symmetry_1
_geom_bond_site_symmetry_2
Ag1 S2 1_555 1_555
Ag2 N1 1_555 1_555
S1 C8 1_555 1_555
S2 C21 1_555 1_555
O1 Ag1 1_555 1_555
O2 C1 1_555 1_555
O3 C14 1_555 1_555
O4 C14 1_555 1_555
O5 H1 1_555 1_555
H2 O5 1_555 1_555
O6 H3 1_555 1_555
H4 O6 1_555 1_555
N1 C11 1_555 1_555
N2 C24 1_555 1_555
C1 O1 1_555 1_555
C2 C1 1_555 1_555
C3 C2 1_555 1_555
H5 C3 1_555 1_555
C4 C3 1_555 1_555
H6 C4 1_555 1_555
C5 C2 1_555 1_555
H7 C5 1_555 1_555
C6 C5 1_555 1_555
H8 C6 1_555 1_555
C7 C4 1_555 1_555
C8 C7 1_555 1_555
H9 C8 1_555 1_555
H10 C8 1_555 1_555
C9 S1 1_555 1_555
C10 C9 1_555 1_555
H11 C10 1_555 1_555
C11 C10 1_555 1_555
H12 C11 1_555 1_555
C12 C9 1_555 1_555
H13 C12 1_555 1_555
C13 N1 1_555 1_555
H14 C13 1_555 1_555
C14 C15 1_555 1_555
C15 C16 1_555 1_555
C16 H15 1_555 1_555
C17 C16 1_555 1_555
H16 C17 1_555 1_555
C18 C15 1_555 1_555
H17 C18 1_555 1_555
C19 C18 1_555 1_555
H18 C19 1_555 1_555
C20 C17 1_555 1_555
C21 C20 1_555 1_555
H19 C21 1_555 1_555
H20 C21 1_555 1_555
C22 S2 1_555 1_555
C23 C22 1_555 1_555
H21 C23 1_555 1_555
C24 C23 1_555 1_555
H22 C24 1_555 1_555
C25 C22 1_555 1_555
H23 C25 1_555 1_555
C26 N2 1_555 1_555
H24 C26 1_555 1_555
Ag1A O4 1_555 1_555
Ag2A N2 1_555 1_555
O4A Ag1 1_555 1_555
N2A Ag2 1_555 1_555
C6 C7 1_555 1_555
C12 C13 1_555 1_555
C19 C20 1_555 1_555
C25 C26 1_555 1_555

#END
