
#######################################################################
#
#                 Cambridge Crystallographic Data Centre
#                                CCDC 
#
#######################################################################
#
# If this CIF has been generated from an entry in the Cambridge 
# Structural Database, then it will include bibliographic, chemical, 
# crystal, experimental, refinement or atomic coordinate data resulting 
# from the CCDC's data processing and validation procedures.
#
#######################################################################

data_FEQSOK
_symmetry_cell_setting           tetragonal
_symmetry_space_group_name_H-M   'I 41 2 2'
_symmetry_Int_Tables_number      98
_space_group_name_Hall           'I 4bw 2bw'
loop_
_symmetry_equiv_pos_site_id
_symmetry_equiv_pos_as_xyz
1 x,y,z
2 -y,1/2+x,1/4+z
3 1/2-x,1/2-y,1/2+z
4 1/2+y,-x,3/4+z
5 1/2-x,y,3/4-z
6 1/2+y,1/2+x,1/2-z
7 x,1/2-y,1/4-z
8 -y,-x,-z
9 1/2+x,1/2+y,1/2+z
10 1/2-y,x,3/4+z
11 -x,-y,z
12 y,1/2-x,1/4+z
13 -x,1/2+y,1/4-z
14 y,x,-z
15 1/2+x,-y,3/4-z
16 1/2-y,1/2-x,1/2-z
_cell_length_a                   8.294(5)
_cell_length_b                   8.294(5)
_cell_length_c                   33.7535(17)
_cell_angle_alpha                90
_cell_angle_beta                 90
_cell_angle_gamma                90
_cell_volume                     2321.92
loop_
_atom_site_label
_atom_site_type_symbol
_atom_site_fract_x
_atom_site_fract_y
_atom_site_fract_z
Cd1 Cd 0.0000 0.0000 0.5000
O1 O 0.1594(2) -0.1388(2) 0.54475(4)
O2 O -0.0113(3) -0.1988(3) 0.59187(5)
N1 N 0.1987(2) 0.1987(2) 0.5000
C1 C 0.3479(3) 0.1663(3) 0.48834(7)
H1 H 0.3716 0.0621 0.4800
C2 C 0.4702(3) 0.2798(3) 0.48797(8)
H2 H 0.5735 0.2516 0.4798
C3 C 0.4366(3) 0.4366(3) 0.5000
C4 C 0.1321(3) -0.1835(3) 0.57929(6)
C5 C 0.2755(3) -0.2206(3) 0.60536(6)
C6 C 0.4241(3) -0.1930(4) 0.58695(8)
H3 H 0.4249 -0.1552 0.5610
C7 C 0.5700(4) -0.2198(5) 0.60578(10)
H4 H 0.6667 -0.1978 0.5929
H5 H -0.024(8) -0.2500 0.6250
Cd1A Cd 0.0000 -0.5000 0.7500
Cd1_2 Cd 1.0000 1.0000 0.5000
Cd1C Cd 0.5000 0.0000 0.2500
O1F O 0.1594(2) -0.3612(2) 0.70525(4)
O1G O 0.1388(2) -0.1594(2) 0.45525(4)
O1C O 0.3612(2) -0.1594(2) 0.29475(4)
O1J O -0.1594(2) 0.1388(2) 0.54475(4)
O1M O -0.1388(2) 0.1594(2) 0.45525(4)
O2F O -0.0113(3) -0.3012(3) 0.65813(5)
O2G O 0.1988(3) 0.0113(3) 0.40813(5)
O2C O 0.3012(3) 0.0113(3) 0.34187(5)
N1G N 0.8013(2) 0.8013(2) 0.5000
N1G_2 N -0.1987(2) -0.1987(2) 0.5000
C1M C 0.1663(3) 0.3479(3) 0.51166(7)
C1G C 0.8337(3) 0.6521(3) 0.51166(7)
C1J C 0.6521(3) 0.8337(3) 0.48834(7)
H1M H 0.0621 0.3716 0.5200
H1J H 0.6284 0.9379 0.4800
H1G H 0.9379 0.6284 0.5200
C2M C 0.2798(3) 0.4702(3) 0.51203(8)
C2G C 0.7202(3) 0.5298(3) 0.51203(8)
C2J C 0.5298(3) 0.7202(3) 0.48797(8)
H2M H 0.2516 0.5735 0.5202
H2J H 0.4265 0.7484 0.4798
H2G H 0.7484 0.4265 0.5202
C3G C 0.5634(3) 0.5634(3) 0.5000
C4F C 0.1321(3) -0.3165(3) 0.67071(6)
C4G C 0.1835(3) -0.1321(3) 0.42071(6)
C4C C 0.3165(3) -0.1321(3) 0.32929(6)
C5F C 0.2755(3) -0.2794(3) 0.64464(6)
C5G C 0.2206(3) -0.2755(3) 0.39464(6)
C5C C 0.2794(3) -0.2755(3) 0.35536(6)
C6F C 0.4241(3) -0.3070(4) 0.66305(8)
C6G C 0.1930(4) -0.4241(3) 0.41305(8)
C6C C 0.3070(4) -0.4241(3) 0.33695(8)
H3F H 0.4249 -0.3448 0.6890
H3G H 0.1552 -0.4249 0.4390
H3C H 0.3448 -0.4249 0.3110
C7F C 0.5700(4) -0.2802(5) 0.64422(10)
C7G C 0.2198(5) -0.5700(4) 0.39422(10)
C7C C 0.2802(5) -0.5700(4) 0.35578(10)
H4F H 0.6667 -0.3022 0.6571
H4G H 0.1978 -0.6667 0.4071
H4C H 0.3022 -0.6667 0.3429
H5C H 0.2500 0.024(8) 0.3750
loop_
_geom_bond_atom_site_label_1
_geom_bond_atom_site_label_2
_geom_bond_site_symmetry_1
_geom_bond_site_symmetry_2
Cd1 O1 1_555 1_555
O1 C4 1_555 1_555
O2 C4 1_555 1_555
N1 Cd1 1_555 1_555
C1 N1 1_555 1_555
H1 C1 1_555 1_555
C2 C1 1_555 1_555
H2 C2 1_555 1_555
C3 C2 1_555 1_555
C4 C5 1_555 1_555
C5 C6 1_555 1_555
C6 H3 1_555 1_555
C7 C6 1_555 1_555
H4 C7 1_555 1_555
H5 O2 1_555 1_555
Cd1A O1F 1_555 1_555
Cd1_2 N1G 1_555 1_555
Cd1C O1C 1_555 1_555
O1F C4F 1_555 1_555
O1G Cd1 1_555 1_555
O1C C4C 1_555 1_555
O1J Cd1 1_555 1_555
O1M Cd1 1_555 1_555
O2F H5 1_555 1_555
O2G C4G 1_555 1_555
O2C C4C 1_555 1_555
N1G C1G 1_555 1_555
N1G_2 Cd1 1_555 1_555
C1M N1 1_555 1_555
C1G H1G 1_555 1_555
C1J N1G 1_555 1_555
H1M C1M 1_555 1_555
H1J C1J 1_555 1_555
C2M C3 1_555 1_555
C2G C1G 1_555 1_555
C2J C1J 1_555 1_555
H2M C2M 1_555 1_555
H2J C2J 1_555 1_555
H2G C2G 1_555 1_555
C3G C3 1_555 1_555
C4F O2F 1_555 1_555
C4G O1G 1_555 1_555
C4C C5C 1_555 1_555
C5F C5 1_555 1_555
C5G C4G 1_555 1_555
C5C C5G 1_555 1_555
C6F C5F 1_555 1_555
C6G C5G 1_555 1_555
C6C C5C 1_555 1_555
H3F C6F 1_555 1_555
H3G C6G 1_555 1_555
H3C C6C 1_555 1_555
C7F C7 1_555 1_555
C7G C6G 1_555 1_555
C7C C6C 1_555 1_555
H4F C7F 1_555 1_555
H4G C7G 1_555 1_555
H4C C7C 1_555 1_555
H5C O2G 1_555 1_555
O2C H5C 1_555 1_555
C1M C2M 1_555 1_555
C2G C3G 1_555 1_555
C2J C3G 1_555 1_555
C4F C5F 1_555 1_555
C6F C7F 1_555 1_555
C7G C7C 1_555 1_555

#END
