
#######################################################################
#
#                 Cambridge Crystallographic Data Centre
#                                CCDC 
#
#######################################################################
#
# If this CIF has been generated from an entry in the Cambridge 
# Structural Database, then it will include bibliographic, chemical, 
# crystal, experimental, refinement or atomic coordinate data resulting 
# from the CCDC's data processing and validation procedures.
#
#######################################################################

data_FEQVED
_symmetry_cell_setting           orthorhombic
_symmetry_space_group_name_H-M   'P n a 21'
_symmetry_Int_Tables_number      33
_space_group_name_Hall           'P 2c -2n'
loop_
_symmetry_equiv_pos_site_id
_symmetry_equiv_pos_as_xyz
1 x,y,z
2 -x,-y,1/2+z
3 1/2+x,1/2-y,z
4 1/2-x,1/2+y,1/2+z
_cell_length_a                   13.4756(17)
_cell_length_b                   12.7195(16)
_cell_length_c                   11.3990(14)
_cell_angle_alpha                90
_cell_angle_beta                 90
_cell_angle_gamma                90
_cell_volume                     1953.82
loop_
_atom_site_label
_atom_site_type_symbol
_atom_site_fract_x
_atom_site_fract_y
_atom_site_fract_z
Co1 Co 0.72633(4) 0.32613(4) 0.23691(9)
O6 O 0.8451(2) 0.4299(2) 0.2292(4)
O7 O 0.8212(2) 0.1937(2) 0.2406(5)
O8 O 0.6005(2) 0.2269(2) 0.2245(4)
O9 O 0.6237(2) 0.4531(2) 0.2333(4)
N1 N 0.7299(3) 0.3272(4) 0.4247(5)
N2 N 0.7205(4) 0.3255(4) 1.0485(5)
C1 C 0.7127(5) 0.2402(6) 0.4879(5)
H1 H 0.7026 0.1778 0.4470
C2 C 0.7091(5) 0.2362(6) 0.6042(6)
H2 H 0.6950 0.1728 0.6414
C3 C 0.7264(4) 0.3263(5) 0.6711(7)
C4 C 0.7476(4) 0.4172(5) 0.6067(6)
H3 H 0.7611 0.4800 0.6453
C5 C 0.7483(4) 0.4136(6) 0.4900(6)
H4 H 0.7627 0.4756 0.4502
C6 C 0.7232(4) 0.3255(5) 0.8022(6)
C7 C 0.7264(4) 0.2317(6) 0.8640(5)
H5 H 0.7303 0.1675 0.8250
C8 C 0.7234(4) 0.2362(6) 0.9888(5)
H6 H 0.7236 0.1733 1.0304
C9 C 0.7143(4) 0.4170(6) 0.9890(5)
H7 H 0.7092 0.4802 1.0297
C10 C 0.7156(4) 0.4171(5) 0.8646(5)
H8 H 0.7111 0.4806 0.8245
H13 H 0.868(4) 0.463(4) 0.293(3)
H14 H 0.877(4) 0.451(5) 0.163(3)
H15 H 0.856(5) 0.169(5) 0.302(4)
H16 H 0.860(5) 0.176(5) 0.181(4)
H17 H 0.602(4) 0.1617(17) 0.196(4)
H18 H 0.566(4) 0.218(4) 0.291(3)
H19 H 0.600(4) 0.479(4) 0.301(3)
H20 H 0.579(3) 0.432(4) 0.181(4)
Co1_2 Co 0.72633(4) 0.32613(4) 1.23691(9)
N2_2 N 0.7205(4) 0.3255(4) 0.0485(5)
O1 O 0.5449(2) 0.5348(2) 0.4388(3)
O2 O 0.5237(3) 0.6362(2) 0.5950(3)
O3 O 0.5696(3) 1.0278(2) 0.5371(3)
O4 O 0.5030(3) 1.0901(2) 0.3742(3)
O5 O 0.5225(3) 0.7816(3) 0.0965(3)
C11 C 0.5343(4) 0.6219(4) 0.4847(4)
C12 C 0.5312(3) 0.7187(4) 0.4091(4)
C13 C 0.5344(3) 0.8189(4) 0.4583(4)
H9 H 0.5386 0.8269 0.5392
C14 C 0.5312(3) 0.9073(4) 0.3859(4)
C15 C 0.5278(3) 0.8958(3) 0.2658(4)
H10 H 0.5274 0.9552 0.2181
C16 C 0.5250(3) 0.7959(4) 0.2148(4)
C17 C 0.5256(3) 0.7067(4) 0.2887(4)
H11 H 0.5222 0.6397 0.2563
C18 C 0.5349(3) 1.0155(3) 0.4384(4)
H12 H 0.507(5) 0.8484(19) 0.076(5)
O10 O 0.9157(3) 0.1335(3) 0.4363(4)
H21 H 0.947(4) 0.177(4) 0.486(4)
H22 H 0.959(4) 0.085(4) 0.463(5)
loop_
_geom_bond_atom_site_label_1
_geom_bond_atom_site_label_2
_geom_bond_site_symmetry_1
_geom_bond_site_symmetry_2
Co1 O6 1_555 1_555
O1 C11 1_555 1_555
O2 C11 1_555 1_555
O3 C18 1_555 1_555
O4 C18 1_555 1_555
O5 C16 1_555 1_555
O6 H13 1_555 1_555
O7 Co1 1_555 1_555
O8 Co1 1_555 1_555
O9 Co1 1_555 1_555
O10 H21 1_555 1_555
N1 Co1 1_555 1_555
N2 C8 1_555 1_555
C1 N1 1_555 1_555
H1 C1 1_555 1_555
C2 C1 1_555 1_555
H2 C2 1_555 1_555
C3 C2 1_555 1_555
C4 C3 1_555 1_555
H3 C4 1_555 1_555
C5 N1 1_555 1_555
H4 C5 1_555 1_555
C6 C3 1_555 1_555
C7 C6 1_555 1_555
H5 C7 1_555 1_555
C8 C7 1_555 1_555
H6 C8 1_555 1_555
C9 N2 1_555 1_555
H7 C9 1_555 1_555
C10 C6 1_555 1_555
H8 C10 1_555 1_555
C11 C12 1_555 1_555
C12 C13 1_555 1_555
C13 H9 1_555 1_555
C14 C13 1_555 1_555
C15 C14 1_555 1_555
H10 C15 1_555 1_555
C16 C15 1_555 1_555
C17 C12 1_555 1_555
H11 C17 1_555 1_555
C18 C14 1_555 1_555
H12 O5 1_555 1_555
H14 O6 1_555 1_555
H15 O7 1_555 1_555
H16 O7 1_555 1_555
H17 O8 1_555 1_555
H18 O8 1_555 1_555
H19 O9 1_555 1_555
H20 O9 1_555 1_555
H22 O10 1_555 1_555
Co1_2 N2 1_555 1_555
N2_2 Co1 1_555 1_555
C4 C5 1_555 1_555
C9 C10 1_555 1_555
C16 C17 1_555 1_555

#END
