
#######################################################################
#
#                 Cambridge Crystallographic Data Centre
#                                CCDC 
#
#######################################################################
#
# If this CIF has been generated from an entry in the Cambridge 
# Structural Database, then it will include bibliographic, chemical, 
# crystal, experimental, refinement or atomic coordinate data resulting 
# from the CCDC's data processing and validation procedures.
#
#######################################################################

data_FEQYOP
_symmetry_cell_setting           triclinic
_symmetry_space_group_name_H-M   'P -1'
_symmetry_Int_Tables_number      2
_space_group_name_Hall           '-P 1'
loop_
_symmetry_equiv_pos_site_id
_symmetry_equiv_pos_as_xyz
1 x,y,z
2 -x,-y,-z
_cell_length_a                   10.0370(12)
_cell_length_b                   11.5936(19)
_cell_length_c                   13.420(2)
_cell_angle_alpha                113.717(17)
_cell_angle_beta                 100.266(11)
_cell_angle_gamma                91.496(13)
_cell_volume                     1398.53
loop_
_atom_site_label
_atom_site_type_symbol
_atom_site_fract_x
_atom_site_fract_y
_atom_site_fract_z
Zn1 Zn 0.5000 0.5000 0.5000
N1 N 0.2900(6) 0.5008(6) 0.4825(5)
H1 H 0.2734 0.5508 0.5504
N2 N 0.4843(6) 0.6343(6) 0.4290(5)
H2 H 0.4838 0.5875 0.3559
C1 C 0.2432(7) 0.5627(7) 0.4073(7)
H3 H 0.2389 0.5003 0.3310
C2 C 0.1038(9) 0.6057(9) 0.4142(8)
H4 H 0.1055 0.6687 0.4888
H5 H 0.0395 0.5342 0.3998
C3 C 0.0566(9) 0.6623(10) 0.3307(9)
H6 H 0.0504 0.5985 0.2557
H7 H -0.0331 0.6899 0.3376
C4 C 0.1573(10) 0.7747(10) 0.3525(9)
H8 H 0.1306 0.8071 0.2965
H9 H 0.1566 0.8419 0.4247
C5 C 0.3002(9) 0.7340(9) 0.3496(8)
H10 H 0.3023 0.6741 0.2747
H11 H 0.3637 0.8075 0.3679
C6 C 0.3461(8) 0.6740(8) 0.4292(7)
H12 H 0.3466 0.7378 0.5043
C7 C 0.5976(10) 0.7354(9) 0.4645(9)
H13 H 0.5881 0.7626 0.4035
C8 C 0.5932(11) 0.8487(11) 0.5612(10)
H14 H 0.5049 0.8778 0.5533
H15 H 0.6613 0.9131 0.5688
H16 H 0.6105 0.8311 0.6260
C9 C 0.7347(8) 0.6828(8) 0.4676(8)
H17 H 0.8036 0.7502 0.4803
H18 H 0.7334 0.6169 0.3943
C10 C 0.2195(8) 0.3714(8) 0.4487(7)
H19 H 0.2376 0.3152 0.3773
H20 H 0.1220 0.3758 0.4399
Zn2 Zn 0.5000 0.0000 0.0000
N3 N 0.7083(6) 0.0078(6) 0.0188(5)
H21 H 0.7267 -0.0703 -0.0262
N4 N 0.5358(7) -0.0305(6) 0.1456(6)
H22 H 0.5345 0.0480 0.1998
C11 C 0.7678(8) 0.0270(8) 0.1332(7)
H23 H 0.7624 0.1158 0.1813
C12 C 0.9145(9) 0.0032(10) 0.1536(9)
H24 H 0.9690 0.0560 0.1319
H25 H 0.9234 -0.0847 0.1083
C13 C 0.9674(11) 0.0322(12) 0.2759(10)
H26 H 0.9619 0.1208 0.3214
H27 H 1.0620 0.0160 0.2877
C14 C 0.8807(11) -0.0523(13) 0.3096(10)
H28 H 0.8903 -0.1408 0.2669
H29 H 0.9119 -0.0330 0.3878
C15 C 0.7339(10) -0.0295(11) 0.2882(8)
H30 H 0.7245 0.0577 0.3349
H31 H 0.6798 -0.0839 0.3086
C16 C 0.6796(8) -0.0549(8) 0.1679(7)
H32 H 0.6862 -0.1442 0.1219
C17 C 0.4339(9) -0.1106(9) 0.1653(8)
H33 H 0.4538 -0.0926 0.2446
C18 C 0.4427(10) -0.2500(8) 0.1003(8)
H34 H 0.5328 -0.2699 0.1212
H35 H 0.4232 -0.2698 0.0222
H36 H 0.3777 -0.2991 0.1162
C19 C 0.2912(9) -0.0718(9) 0.1367(8)
H37 H 0.2281 -0.1138 0.1617
H38 H 0.2938 0.0186 0.1801
C20 C 0.7664(9) 0.0987(9) -0.0185(7)
H39 H 0.8642 0.0964 -0.0089
H40 H 0.7496 0.1836 0.0283
Cr1 Cr 0.42656(13) 0.31205(13) 0.19704(11)
O1 O 0.4835(6) 0.3529(5) 0.3301(4)
O2 O 0.4285(6) 0.4393(6) 0.1729(5)
O3 O 0.2702(6) 0.2420(6) 0.1609(5)
O4 O 0.5256(5) 0.2116(5) 0.1262(5)
N1A N 0.7100(6) 0.4992(6) 0.5175(5)
H1A H 0.7266 0.4492 0.4496
C1A C 0.7568(7) 0.4373(7) 0.5927(7)
H3A H 0.7611 0.4997 0.6690
C2A C 0.8962(9) 0.3943(9) 0.5858(8)
H4A H 0.8945 0.3313 0.5112
H5A H 0.9605 0.4658 0.6002
C3A C 0.9434(9) 0.3377(10) 0.6693(9)
H6A H 0.9496 0.4015 0.7443
H7A H 1.0331 0.3101 0.6624
C4A C 0.8427(10) 0.2253(10) 0.6475(9)
H8A H 0.8694 0.1929 0.7035
H9A H 0.8434 0.1581 0.5753
C5A C 0.6998(9) 0.2660(9) 0.6504(8)
H10A H 0.6977 0.3259 0.7253
H11A H 0.6363 0.1925 0.6321
C6A C 0.6539(8) 0.3260(8) 0.5708(7)
N2A N 0.5157(6) 0.3657(6) 0.5710(5)
N3A N 0.2917(6) -0.0078(6) -0.0188(5)
H21A H 0.2733 0.0703 0.0262
C11A C 0.2322(8) -0.0270(8) -0.1332(7)
H23A H 0.2376 -0.1158 -0.1813
C12A C 0.0855(9) -0.0032(10) -0.1536(9)
H24A H 0.0310 -0.0560 -0.1319
H25A H 0.0766 0.0847 -0.1083
C13A C 0.0326(11) -0.0322(12) -0.2759(10)
H26A H 0.0381 -0.1208 -0.3214
H27A H -0.0620 -0.0160 -0.2877
C14A C 0.1193(11) 0.0523(13) -0.3096(10)
H28A H 0.1097 0.1408 -0.2669
H29A H 0.0881 0.0330 -0.3878
C15A C 0.2661(10) 0.0295(11) -0.2882(8)
H30A H 0.2755 -0.0577 -0.3349
H31A H 0.3202 0.0839 -0.3086
C16A C 0.3204(8) 0.0549(8) -0.1679(7)
N4A N 0.4642(7) 0.0305(6) -0.1456(6)
O4A O 0.4744(5) -0.2116(5) -0.1262(5)
Cr1A Cr 0.57344(13) -0.31205(13) -0.19704(11)
O1A O 0.5165(6) -0.3529(5) -0.3301(4)
Zn1A Zn 0.5000 -0.5000 -0.5000
O2A O 0.5715(6) -0.4393(6) -0.1729(5)
O3A O 0.7298(6) -0.2420(6) -0.1609(5)
H22A H 0.4655 -0.0480 -0.1998
C17A C 0.5661(9) 0.1106(9) -0.1653(8)
H33A H 0.5462 0.0926 -0.2446
C18A C 0.5573(10) 0.2500(8) -0.1003(8)
H34A H 0.4672 0.2699 -0.1212
H35A H 0.5768 0.2698 -0.0222
H36A H 0.6223 0.2991 -0.1162
C19A C 0.7088(9) 0.0718(9) -0.1367(8)
H37A H 0.7719 0.1138 -0.1617
H38A H 0.7062 -0.0186 -0.1801
H32A H 0.3138 0.1442 -0.1219
C20A C 0.2336(9) -0.0987(9) 0.0185(7)
H39A H 0.1358 -0.0964 0.0089
H40A H 0.2504 -0.1836 -0.0283
O1A_2 O 0.5165(6) 0.6471(5) 0.6699(4)
H2A H 0.5162 0.4125 0.6441
C7A C 0.4024(10) 0.2646(9) 0.5355(9)
H13A H 0.4119 0.2374 0.5965
C8A C 0.4068(11) 0.1513(11) 0.4388(10)
H14A H 0.4951 0.1222 0.4467
H15A H 0.3387 0.0869 0.4312
H16A H 0.3895 0.1689 0.3740
C9A C 0.2653(8) 0.3172(8) 0.5324(8)
H12A H 0.6534 0.2622 0.4957
C10A C 0.7805(8) 0.6286(8) 0.5513(7)
H19A H 0.7624 0.6848 0.6227
H20A H 0.8780 0.6242 0.5601
H17A H 0.1964 0.2498 0.5197
H18A H 0.2666 0.3831 0.6057
O5 O 0.0104(6) 0.3210(7) 0.1694(6)
O6 O 0.7904(7) 0.3770(6) 0.2746(6)
O7 O 0.2157(7) 0.4487(8) 0.0050(7)
O8 O 0.0516(8) 0.6618(7) 0.0372(7)
O9 O 0.6807(8) 0.5464(7) 0.1709(6)
loop_
_geom_bond_atom_site_label_1
_geom_bond_atom_site_label_2
_geom_bond_site_symmetry_1
_geom_bond_site_symmetry_2
Zn1 N1 1_555 1_555
N1 H1 1_555 1_555
N2 Zn1 1_555 1_555
H2 N2 1_555 1_555
C1 N1 1_555 1_555
H3 C1 1_555 1_555
C2 C1 1_555 1_555
H4 C2 1_555 1_555
H5 C2 1_555 1_555
C3 C2 1_555 1_555
H6 C3 1_555 1_555
H7 C3 1_555 1_555
C4 C3 1_555 1_555
H8 C4 1_555 1_555
H9 C4 1_555 1_555
C5 C4 1_555 1_555
H10 C5 1_555 1_555
H11 C5 1_555 1_555
C6 N2 1_555 1_555
H12 C6 1_555 1_555
C7 N2 1_555 1_555
H13 C7 1_555 1_555
C8 C7 1_555 1_555
H14 C8 1_555 1_555
H15 C8 1_555 1_555
H16 C8 1_555 1_555
C9 C7 1_555 1_555
H17 C9 1_555 1_555
H18 C9 1_555 1_555
C10 N1 1_555 1_555
H19 C10 1_555 1_555
H20 C10 1_555 1_555
Zn2 N3 1_555 1_555
N3 H21 1_555 1_555
N4 Zn2 1_555 1_555
H22 N4 1_555 1_555
C11 N3 1_555 1_555
H23 C11 1_555 1_555
C12 C11 1_555 1_555
H24 C12 1_555 1_555
H25 C12 1_555 1_555
C13 C12 1_555 1_555
H26 C13 1_555 1_555
H27 C13 1_555 1_555
C14 C13 1_555 1_555
H28 C14 1_555 1_555
H29 C14 1_555 1_555
C15 C14 1_555 1_555
H30 C15 1_555 1_555
H31 C15 1_555 1_555
C16 N4 1_555 1_555
H32 C16 1_555 1_555
C17 N4 1_555 1_555
H33 C17 1_555 1_555
C18 C17 1_555 1_555
H34 C18 1_555 1_555
H35 C18 1_555 1_555
H36 C18 1_555 1_555
C19 C17 1_555 1_555
H37 C19 1_555 1_555
H38 C19 1_555 1_555
C20 N3 1_555 1_555
H39 C20 1_555 1_555
H40 C20 1_555 1_555
Cr1 O1 1_555 1_555
O1 Zn1 1_555 1_555
O2 Cr1 1_555 1_555
O3 Cr1 1_555 1_555
O4 Zn2 1_555 1_555
N1A Zn1 1_555 1_555
H1A N1A 1_555 1_555
C1A N1A 1_555 1_555
H3A C1A 1_555 1_555
C2A C1A 1_555 1_555
H4A C2A 1_555 1_555
H5A C2A 1_555 1_555
C3A C2A 1_555 1_555
H6A C3A 1_555 1_555
H7A C3A 1_555 1_555
C4A C3A 1_555 1_555
H8A C4A 1_555 1_555
H9A C4A 1_555 1_555
C5A C4A 1_555 1_555
H10A C5A 1_555 1_555
H11A C5A 1_555 1_555
C6A C1A 1_555 1_555
N2A Zn1 1_555 1_555
N3A Zn2 1_555 1_555
H21A N3A 1_555 1_555
C11A N3A 1_555 1_555
H23A C11A 1_555 1_555
C12A C11A 1_555 1_555
H24A C12A 1_555 1_555
H25A C12A 1_555 1_555
C13A C12A 1_555 1_555
H26A C13A 1_555 1_555
H27A C13A 1_555 1_555
C14A C13A 1_555 1_555
H28A C14A 1_555 1_555
H29A C14A 1_555 1_555
C15A C14A 1_555 1_555
H30A C15A 1_555 1_555
H31A C15A 1_555 1_555
C16A C11A 1_555 1_555
N4A Zn2 1_555 1_555
O4A Zn2 1_555 1_555
Cr1A O4A 1_555 1_555
O1A Cr1A 1_555 1_555
Zn1A O1A 1_555 1_555
O2A Cr1A 1_555 1_555
O3A Cr1A 1_555 1_555
H22A N4A 1_555 1_555
C17A N4A 1_555 1_555
H33A C17A 1_555 1_555
C18A C17A 1_555 1_555
H34A C18A 1_555 1_555
H35A C18A 1_555 1_555
H36A C18A 1_555 1_555
C19A C20 1_555 1_555
H37A C19A 1_555 1_555
H38A C19A 1_555 1_555
H32A C16A 1_555 1_555
C20A C19 1_555 1_555
H39A C20A 1_555 1_555
H40A C20A 1_555 1_555
O1A_2 Zn1 1_555 1_555
H2A N2A 1_555 1_555
C7A N2A 1_555 1_555
H13A C7A 1_555 1_555
C8A C7A 1_555 1_555
H14A C8A 1_555 1_555
H15A C8A 1_555 1_555
H16A C8A 1_555 1_555
C9A C10 1_555 1_555
H12A C6A 1_555 1_555
C10A C9 1_555 1_555
H19A C10A 1_555 1_555
H20A C10A 1_555 1_555
H17A C9A 1_555 1_555
H18A C9A 1_555 1_555
C1 C6 1_555 1_555
C5 C6 1_555 1_555
C11 C16 1_555 1_555
C15 C16 1_555 1_555
Cr1 O4 1_555 1_555
N1A C10A 1_555 1_555
C5A C6A 1_555 1_555
C6A N2A 1_555 1_555
N3A C20A 1_555 1_555
C15A C16A 1_555 1_555
C16A N4A 1_555 1_555
C17A C19A 1_555 1_555
C7A C9A 1_555 1_555

#END
