
#######################################################################
#
#                 Cambridge Crystallographic Data Centre
#                                CCDC 
#
#######################################################################
#
# If this CIF has been generated from an entry in the Cambridge 
# Structural Database, then it will include bibliographic, chemical, 
# crystal, experimental, refinement or atomic coordinate data resulting 
# from the CCDC's data processing and validation procedures.
#
#######################################################################

data_FERBUA
_symmetry_cell_setting           triclinic
_symmetry_space_group_name_H-M   'P -1'
_symmetry_Int_Tables_number      2
_space_group_name_Hall           '-P 1'
loop_
_symmetry_equiv_pos_site_id
_symmetry_equiv_pos_as_xyz
1 x,y,z
2 -x,-y,-z
_cell_length_a                   14.3172(3)
_cell_length_b                   15.2696(3)
_cell_length_c                   24.5935(6)
_cell_angle_alpha                74.1940(10)
_cell_angle_beta                 84.9940(10)
_cell_angle_gamma                62.5070(10)
_cell_volume                     4584.39
loop_
_atom_site_label
_atom_site_type_symbol
_atom_site_fract_x
_atom_site_fract_y
_atom_site_fract_z
Li1 Li -0.3435(2) 0.6093(2) -0.09677(11)
Li2 Li -0.3895(2) 0.7707(2) -0.18184(11)
Li3 Li -0.4251(2) 0.6281(2) -0.19452(11)
Li4 Li -0.2272(2) 0.5924(2) -0.18680(11)
Li5 Li 0.2209(2) 0.4204(2) -0.32699(12)
Li6 Li 0.4125(2) 0.3973(2) -0.31248(11)
Li7 Li 0.3495(2) 0.4030(2) -0.41157(11)
Li8 Li 0.3929(2) 0.2450(2) -0.32422(11)
O1 O -0.47566(8) 0.70794(8) -0.14001(5)
O2 O -0.26192(8) 0.67995(8) -0.13630(5)
O3 O -0.30207(8) 0.51827(8) -0.14599(5)
O4 O -0.34587(8) 0.69096(8) -0.23940(4)
O5 O -0.32258(9) 0.56543(9) -0.01336(5)
O6 O -0.28348(11) 0.48967(10) 0.10557(5)
O7 O -0.44599(9) 0.91868(8) -0.20807(5)
O8 O -0.54837(9) 1.09699(8) -0.29734(5)
O9 O -0.49920(9) 0.59532(9) -0.24049(5)
O10 O -0.52298(9) 0.43785(9) -0.26612(5)
O11 O -0.09690(9) 0.53215(9) -0.22608(5)
O12 O 0.08146(9) 0.47927(9) -0.29394(5)
O13 O 0.33346(8) 0.33094(8) -0.26982(4)
O14 O 0.29242(8) 0.49998(8) -0.36597(5)
O15 O 0.27176(8) 0.32743(8) -0.37510(5)
O16 O 0.47830(8) 0.31238(8) -0.36325(4)
O17 O 0.33478(9) 0.43474(8) -0.49466(5)
O18 O 0.28709(11) 0.49604(10) -0.61261(5)
C1 C -0.57525(12) 0.75291(11) -0.12546(6)
C2 C -0.60178(13) 0.74449(12) -0.06833(7)
H1 H -0.5480 0.7029 -0.0394
C3 C -0.70521(13) 0.79596(13) -0.05374(7)
H2 H -0.7205 0.7889 -0.0149
C4 C -0.78739(12) 0.85776(12) -0.09446(7)
C5 C -0.76215(12) 0.86315(12) -0.15094(7)
H3 H -0.8167 0.9031 -0.1796
C6 C -0.65895(12) 0.81150(12) -0.16629(6)
H4 H -0.6448 0.8159 -0.2051
C7 C -0.89821(13) 0.91953(14) -0.07763(8)
H5 H -0.9167 0.8752 -0.0458
H6 H -0.9483 0.9429 -0.1099
C8 C -0.90992(14) 1.01199(14) -0.06002(8)
H7 H -0.8639 0.9890 -0.0265
H8 H -0.9833 1.0512 -0.0512
H9 H -0.8901 1.0553 -0.0910
C9 C -0.20597(12) 0.69748(11) -0.10405(6)
C10 C -0.11262(12) 0.61845(12) -0.07476(7)
H10 H -0.0876 0.5512 -0.0789
C11 C -0.05604(13) 0.63672(13) -0.03985(7)
H11 H 0.0067 0.5815 -0.0204
C12 C -0.08920(14) 0.73417(13) -0.03279(7)
C13 C -0.18136(14) 0.81254(13) -0.06195(7)
H12 H -0.2058 0.8797 -0.0579
C14 C -0.23867(13) 0.79534(12) -0.09691(7)
H13 H -0.3012 0.8509 -0.1164
C15 C -0.02865(16) 0.75339(16) 0.00628(9)
H14 H 0.0453 0.7294 -0.0051
H15 H -0.0595 0.8279 0.0019
C16 C -0.0299(2) 0.70108(18) 0.06685(9)
H16 H -0.1024 0.7153 0.0767
H17 H -0.0019 0.7264 0.0907
H18 H 0.0138 0.6271 0.0731
C17 C -0.29489(12) 0.42488(11) -0.13406(6)
C18 C -0.37772(13) 0.40478(13) -0.10976(7)
H19 H -0.4400 0.4589 -0.1013
C19 C -0.37053(14) 0.30739(14) -0.09784(7)
H20 H -0.4285 0.2967 -0.0820
C20 C -0.28100(15) 0.22588(13) -0.10858(7)
C21 C -0.19914(14) 0.24565(13) -0.13283(8)
H21 H -0.1367 0.1909 -0.1407
C22 C -0.20518(13) 0.34247(12) -0.14601(7)
H22 H -0.1479 0.3530 -0.1633
C23 C -0.27244(19) 0.11951(14) -0.09675(8)
H23 H -0.3284 0.1152 -0.0712
H24 H -0.2035 0.0688 -0.0772
C24 C -0.28267(16) 0.09285(14) -0.15032(8)
H25 H -0.3511 0.1425 -0.1697
H26 H -0.2774 0.0240 -0.1406
H27 H -0.2261 0.0948 -0.1753
C25 C -0.34825(12) 0.74689(11) -0.29172(6)
C26 C -0.26459(12) 0.76963(12) -0.31114(7)
H28 H -0.2039 0.7421 -0.2869
C27 C -0.26876(13) 0.83151(13) -0.36496(7)
H29 H -0.2108 0.8453 -0.3767
C28 C -0.35599(14) 0.87391(12) -0.40213(7)
C29 C -0.43815(13) 0.84940(13) -0.38378(7)
H30 H -0.4977 0.8758 -0.4086
C30 C -0.43506(12) 0.78726(12) -0.32995(6)
H31 H -0.4922 0.7719 -0.3189
C31 C -0.36357(16) 0.94869(14) -0.45861(7)
H32 H -0.4000 0.9386 -0.4870
H33 H -0.2917 0.9346 -0.4714
C32 C -0.42311(19) 1.05941(15) -0.45521(8)
H34 H -0.4937 1.0731 -0.4417
H35 H -0.4291 1.1054 -0.4928
H36 H -0.3848 1.0708 -0.4289
C33 C -0.34601(14) 0.48441(13) 0.01909(7)
H37 H -0.3375 0.4382 -0.0045
H38 H -0.4201 0.5140 0.0303
C34 C -0.27368(16) 0.42438(14) 0.07115(7)
H39 H -0.2914 0.3697 0.0932
H40 H -0.1999 0.3917 0.0598
C35 C -0.25791(15) 0.56878(14) 0.07349(7)
H41 H -0.1837 0.5377 0.0627
H42 H -0.2654 0.6145 0.0972
C36 C -0.32871(14) 0.63032(13) 0.02108(7)
H43 H -0.4023 0.6662 0.0319
H44 H -0.3077 0.6826 -0.0010
C37 C -0.38987(12) 0.96996(12) -0.24159(7)
H45 H -0.3159 0.9195 -0.2440
H46 H -0.3896 1.0201 -0.2233
C38 C -0.44030(12) 1.02430(12) -0.30019(7)
H47 H -0.4013 1.0602 -0.3226
H48 H -0.4371 0.9738 -0.3193
C39 C -0.60438(12) 1.04466(12) -0.26413(7)
H49 H -0.6031 0.9937 -0.2823
H50 H -0.6788 1.0944 -0.2620
C40 C -0.55402(13) 0.99170(12) -0.20548(7)
H51 H -0.5571 1.0429 -0.1869
H52 H -0.5931 0.9563 -0.1827
C41 C -0.43686(13) 0.54538(13) -0.28240(7)
H53 H -0.3672 0.5446 -0.2832
H54 H -0.4725 0.5838 -0.3202
C42 C -0.42222(13) 0.43759(13) -0.26878(7)
H55 H -0.3809 0.4044 -0.2982
H56 H -0.3826 0.3980 -0.2320
C43 C -0.58572(13) 0.48806(13) -0.22450(7)
H57 H -0.5506 0.4496 -0.1865
H58 H -0.6555 0.4891 -0.2240
C44 C -0.60001(12) 0.59567(13) -0.23791(7)
H59 H -0.6396 0.6355 -0.2747
H60 H -0.6412 0.6288 -0.2084
C45 C 0.00883(13) 0.47932(15) -0.20194(8)
H61 H 0.0334 0.4046 -0.1926
H62 H 0.0099 0.4977 -0.1665
C46 C 0.08143(13) 0.50665(13) -0.24225(7)
H63 H 0.0584 0.5811 -0.2507
H64 H 0.1537 0.4700 -0.2248
C47 C -0.02427(13) 0.53129(15) -0.31900(8)
H65 H -0.0244 0.5106 -0.3538
H66 H -0.0490 0.6062 -0.3296
C48 C -0.09773(13) 0.50513(14) -0.27771(8)
H67 H -0.1702 0.5424 -0.2949
H68 H -0.0757 0.4309 -0.2692
C49 C 0.35596(15) 0.36149(13) -0.52619(7)
H69 H 0.3495 0.3016 -0.5015
H70 H 0.4290 0.3375 -0.5391
C50 C 0.27992(16) 0.40849(14) -0.57667(7)
H71 H 0.2961 0.3573 -0.5982
H72 H 0.2072 0.4290 -0.5637
C51 C 0.26269(15) 0.56942(14) -0.58124(7)
H73 H 0.1895 0.5915 -0.5687
H74 H 0.2674 0.6303 -0.6059
C52 C 0.33712(14) 0.52547(13) -0.53045(7)
H75 H 0.4096 0.5086 -0.5431
H76 H 0.3170 0.5770 -0.5087
C53 C 0.33480(12) 0.27582(11) -0.21722(6)
C54 C 0.41500(13) 0.24588(12) -0.17692(7)
H77 H 0.4681 0.2675 -0.1867
C55 C 0.41743(14) 0.18490(13) -0.12293(7)
H78 H 0.4724 0.1659 -0.0965
C56 C 0.34204(14) 0.15094(13) -0.10651(7)
C57 C 0.26139(14) 0.18233(13) -0.14610(7)
H79 H 0.2080 0.1612 -0.1358
C58 C 0.25695(12) 0.24364(12) -0.20015(7)
H80 H 0.2004 0.2641 -0.2259
C59 C 0.35057(18) 0.07739(16) -0.04934(8)
H81 H 0.2794 0.0857 -0.0384
H82 H 0.3791 0.0945 -0.0207
C60 C 0.4212(2) -0.03304(17) -0.04976(9)
H83 H 0.3877 -0.0535 -0.0737
H84 H 0.4321 -0.0770 -0.0111
H85 H 0.4892 -0.0400 -0.0647
C61 C 0.27967(12) 0.59441(11) -0.37287(6)
C62 C 0.35378(12) 0.62575(12) -0.39994(7)
H86 H 0.4146 0.5786 -0.4141
C63 C 0.34011(13) 0.72434(12) -0.40651(7)
H87 H 0.3920 0.7429 -0.4249
C64 C 0.25230(13) 0.79656(12) -0.38687(7)
C65 C 0.17896(12) 0.76568(12) -0.35954(7)
H88 H 0.1185 0.8132 -0.3454
C66 C 0.19179(12) 0.66742(12) -0.35239(7)
H89 H 0.1403 0.6491 -0.3333
C67 C 0.23749(15) 0.90401(12) -0.39335(7)
H90 H 0.1668 0.9539 -0.4111
H91 H 0.2905 0.9151 -0.4190
C68 C 0.24809(16) 0.92404(14) -0.33742(8)
H92 H 0.1932 0.9172 -0.3125
H93 H 0.2403 0.9935 -0.3444
H94 H 0.3176 0.8744 -0.3193
C69 C 0.21863(12) 0.30557(12) -0.40658(6)
C70 C 0.12574(13) 0.38189(12) -0.43732(7)
H95 H 0.0999 0.4504 -0.4353
C71 C 0.07052(14) 0.35941(13) -0.47071(8)
H96 H 0.0078 0.4130 -0.4910
C72 C 0.10503(14) 0.26017(13) -0.47502(7)
C73 C 0.19598(14) 0.18428(13) -0.44368(7)
H97 H 0.2205 0.1156 -0.4451
C74 C 0.25226(13) 0.20536(12) -0.41037(7)
H98 H 0.3144 0.1512 -0.3898
C75 C 0.04881(16) 0.23493(17) -0.51362(9)
H99 H 0.0748 0.2476 -0.5522
H100 H 0.0689 0.1610 -0.5004
C76 C -0.06826(18) 0.29284(17) -0.51726(10)
H101 H -0.0951 0.2860 -0.4791
H102 H -0.0970 0.2654 -0.5393
H103 H -0.0898 0.3653 -0.5358
C77 C 0.57948(11) 0.26312(11) -0.37459(6)
C78 C 0.61156(12) 0.26452(12) -0.43034(6)
H104 H 0.5608 0.3053 -0.4609
C79 C 0.71580(12) 0.20753(12) -0.44168(7)
H105 H 0.7346 0.2099 -0.4799
C80 C 0.79389(12) 0.14682(12) -0.39862(7)
C81 C 0.76367(12) 0.14922(12) -0.34352(7)
H106 H 0.8155 0.1109 -0.3133
C82 C 0.65930(12) 0.20633(12) -0.33142(6)
H107 H 0.6417 0.2069 -0.2933
C83 C 0.90536(13) 0.07789(13) -0.41152(8)
H108 H 0.9509 0.0482 -0.3766
H109 H 0.9325 0.1195 -0.4399
C84 C 0.91249(15) -0.00830(15) -0.43391(9)
H110 H 0.8868 -0.0505 -0.4058
H111 H 0.9860 -0.0506 -0.4413
H112 H 0.8693 0.0206 -0.4691
Li6_2 Li -0.5875(2) 0.3973(2) -0.31248(11)
Li8_2 Li -0.6071(2) 1.2450(2) -0.32422(11)
O8_2 O 0.45163(9) 0.09699(8) -0.29734(5)
O10_2 O 0.47702(9) 0.43785(9) -0.26612(5)
O19 O -0.96933(11) 0.11692(10) -0.82105(5)
O20 O -1.01657(11) 0.24533(10) -0.74849(6)
C89 C -1.04267(15) 0.22268(14) -0.83831(8)
H121 H -1.0970 0.2328 -0.8649
H122 H -1.0056 0.2625 -0.8582
C90 C -1.09421(15) 0.26027(15) -0.78807(8)
H123 H -1.1444 0.3339 -0.8006
H124 H -1.1343 0.2229 -0.7694
C91 C -0.94275(14) 0.14003(14) -0.73200(8)
H125 H -0.9791 0.0995 -0.7121
H126 H -0.8881 0.1297 -0.7055
C92 C -0.89192(14) 0.10379(14) -0.78279(8)
H127 H -0.8539 0.1430 -0.8020
H128 H -0.8401 0.0306 -0.7707
C85 C -0.93656(18) 0.2305(2) -0.30853(9)
H113 H -0.8612 0.1801 -0.3061
H114 H -0.9450 0.2954 -0.3354
C86 C -1.0018(2) 0.1915(2) -0.33009(9)
H115 H -1.0769 0.2432 -0.3343
H116 H -0.9783 0.1796 -0.3676
C87 C -1.02317(16) 0.11626(15) -0.23743(8)
H117 H -1.0157 0.0520 -0.2102
H118 H -1.0982 0.1676 -0.2402
C88 C -0.95679(15) 0.15402(15) -0.21706(8)
H119 H -0.9778 0.1640 -0.1789
H120 H -0.8819 0.1022 -0.2141
O21 O -0.96812(12) 0.24709(11) -0.25416(7)
O22 O -0.99072(12) 0.09857(12) -0.29147(7)
loop_
_geom_bond_atom_site_label_1
_geom_bond_atom_site_label_2
_geom_bond_site_symmetry_1
_geom_bond_site_symmetry_2
Li1 O1 1_555 1_555
Li2 O1 1_555 1_555
Li3 O1 1_555 1_555
Li4 O2 1_555 1_555
Li5 O12 1_555 1_555
Li6 O13 1_555 1_555
Li7 O14 1_555 1_555
Li8 O13 1_555 1_555
O1 C1 1_555 1_555
O2 Li1 1_555 1_555
O3 Li1 1_555 1_555
O4 Li2 1_555 1_555
O5 Li1 1_555 1_555
O6 C34 1_555 1_555
O7 Li2 1_555 1_555
O8 C38 1_555 1_555
O9 Li3 1_555 1_555
O10 C42 1_555 1_555
O11 Li4 1_555 1_555
O12 C46 1_555 1_555
O13 Li5 1_555 1_555
O14 Li5 1_555 1_555
O15 Li5 1_555 1_555
O16 Li6 1_555 1_555
O17 Li7 1_555 1_555
O18 C50 1_555 1_555
C1 C2 1_555 1_555
C2 H1 1_555 1_555
C3 C2 1_555 1_555
H2 C3 1_555 1_555
C4 C3 1_555 1_555
C5 C4 1_555 1_555
H3 C5 1_555 1_555
C6 C1 1_555 1_555
H4 C6 1_555 1_555
C7 C4 1_555 1_555
H5 C7 1_555 1_555
H6 C7 1_555 1_555
C8 C7 1_555 1_555
H7 C8 1_555 1_555
H8 C8 1_555 1_555
H9 C8 1_555 1_555
C9 O2 1_555 1_555
C10 C9 1_555 1_555
H10 C10 1_555 1_555
C11 C10 1_555 1_555
H11 C11 1_555 1_555
C12 C11 1_555 1_555
C13 C12 1_555 1_555
H12 C13 1_555 1_555
C14 C9 1_555 1_555
H13 C14 1_555 1_555
C15 C12 1_555 1_555
H14 C15 1_555 1_555
H15 C15 1_555 1_555
C16 C15 1_555 1_555
H16 C16 1_555 1_555
H17 C16 1_555 1_555
H18 C16 1_555 1_555
C17 O3 1_555 1_555
C18 C17 1_555 1_555
H19 C18 1_555 1_555
C19 C18 1_555 1_555
H20 C19 1_555 1_555
C20 C19 1_555 1_555
C21 C20 1_555 1_555
H21 C21 1_555 1_555
C22 C17 1_555 1_555
H22 C22 1_555 1_555
C23 C20 1_555 1_555
H23 C23 1_555 1_555
H24 C23 1_555 1_555
C24 C23 1_555 1_555
H25 C24 1_555 1_555
H26 C24 1_555 1_555
H27 C24 1_555 1_555
C25 O4 1_555 1_555
C26 C25 1_555 1_555
H28 C26 1_555 1_555
C27 C26 1_555 1_555
H29 C27 1_555 1_555
C28 C27 1_555 1_555
C29 C28 1_555 1_555
H30 C29 1_555 1_555
C30 C25 1_555 1_555
H31 C30 1_555 1_555
C31 C28 1_555 1_555
H32 C31 1_555 1_555
H33 C31 1_555 1_555
C32 C31 1_555 1_555
H34 C32 1_555 1_555
H35 C32 1_555 1_555
H36 C32 1_555 1_555
C33 O5 1_555 1_555
H37 C33 1_555 1_555
H38 C33 1_555 1_555
C34 C33 1_555 1_555
H39 C34 1_555 1_555
H40 C34 1_555 1_555
C35 O6 1_555 1_555
H41 C35 1_555 1_555
H42 C35 1_555 1_555
C36 O5 1_555 1_555
H43 C36 1_555 1_555
H44 C36 1_555 1_555
C37 O7 1_555 1_555
H45 C37 1_555 1_555
H46 C37 1_555 1_555
C38 C37 1_555 1_555
H47 C38 1_555 1_555
H48 C38 1_555 1_555
C39 O8 1_555 1_555
H49 C39 1_555 1_555
H50 C39 1_555 1_555
C40 O7 1_555 1_555
H51 C40 1_555 1_555
H52 C40 1_555 1_555
C41 O9 1_555 1_555
H53 C41 1_555 1_555
H54 C41 1_555 1_555
C42 C41 1_555 1_555
H55 C42 1_555 1_555
H56 C42 1_555 1_555
C43 O10 1_555 1_555
H57 C43 1_555 1_555
H58 C43 1_555 1_555
C44 O9 1_555 1_555
H59 C44 1_555 1_555
H60 C44 1_555 1_555
C45 O11 1_555 1_555
H61 C45 1_555 1_555
H62 C45 1_555 1_555
C46 C45 1_555 1_555
H63 C46 1_555 1_555
H64 C46 1_555 1_555
C47 O12 1_555 1_555
H65 C47 1_555 1_555
H66 C47 1_555 1_555
C48 O11 1_555 1_555
H67 C48 1_555 1_555
H68 C48 1_555 1_555
C49 O17 1_555 1_555
H69 C49 1_555 1_555
H70 C49 1_555 1_555
C50 C49 1_555 1_555
H71 C50 1_555 1_555
H72 C50 1_555 1_555
C51 O18 1_555 1_555
H73 C51 1_555 1_555
H74 C51 1_555 1_555
C52 O17 1_555 1_555
H75 C52 1_555 1_555
H76 C52 1_555 1_555
C53 O13 1_555 1_555
C54 C53 1_555 1_555
H77 C54 1_555 1_555
C55 C54 1_555 1_555
H78 C55 1_555 1_555
C56 C55 1_555 1_555
C57 C56 1_555 1_555
H79 C57 1_555 1_555
C58 C53 1_555 1_555
H80 C58 1_555 1_555
C59 C56 1_555 1_555
H81 C59 1_555 1_555
H82 C59 1_555 1_555
C60 C59 1_555 1_555
H83 C60 1_555 1_555
H84 C60 1_555 1_555
H85 C60 1_555 1_555
C61 O14 1_555 1_555
C62 C61 1_555 1_555
H86 C62 1_555 1_555
C63 C62 1_555 1_555
H87 C63 1_555 1_555
C64 C63 1_555 1_555
C65 C64 1_555 1_555
H88 C65 1_555 1_555
C66 C61 1_555 1_555
H89 C66 1_555 1_555
C67 C64 1_555 1_555
H90 C67 1_555 1_555
H91 C67 1_555 1_555
C68 C67 1_555 1_555
H92 C68 1_555 1_555
H93 C68 1_555 1_555
H94 C68 1_555 1_555
C69 O15 1_555 1_555
C70 C69 1_555 1_555
H95 C70 1_555 1_555
C71 C70 1_555 1_555
H96 C71 1_555 1_555
C72 C71 1_555 1_555
C73 C72 1_555 1_555
H97 C73 1_555 1_555
C74 C69 1_555 1_555
H98 C74 1_555 1_555
C75 C72 1_555 1_555
H99 C75 1_555 1_555
H100 C75 1_555 1_555
C76 C75 1_555 1_555
H101 C76 1_555 1_555
H102 C76 1_555 1_555
H103 C76 1_555 1_555
C77 O16 1_555 1_555
C78 C77 1_555 1_555
H104 C78 1_555 1_555
C79 C78 1_555 1_555
H105 C79 1_555 1_555
C80 C79 1_555 1_555
C81 C80 1_555 1_555
H106 C81 1_555 1_555
C82 C77 1_555 1_555
H107 C82 1_555 1_555
C83 C80 1_555 1_555
H108 C83 1_555 1_555
H109 C83 1_555 1_555
C84 C83 1_555 1_555
H110 C84 1_555 1_555
H111 C84 1_555 1_555
H112 C84 1_555 1_555
O19 C89 1_555 1_555
O20 C90 1_555 1_555
C85 H113 1_555 1_555
H114 C85 1_555 1_555
C86 C85 1_555 1_555
H115 C86 1_555 1_555
H116 C86 1_555 1_555
C87 H117 1_555 1_555
H118 C87 1_555 1_555
C88 C87 1_555 1_555
H119 C88 1_555 1_555
H120 C88 1_555 1_555
O21 C85 1_555 1_555
O22 C86 1_555 1_555
C89 H121 1_555 1_555
H122 C89 1_555 1_555
C90 C89 1_555 1_555
H123 C90 1_555 1_555
H124 C90 1_555 1_555
C91 O20 1_555 1_555
H125 C91 1_555 1_555
H126 C91 1_555 1_555
C92 O19 1_555 1_555
H127 C92 1_555 1_555
H128 C92 1_555 1_555
Li6_2 O10 1_555 1_555
Li8_2 O8 1_555 1_555
O8_2 Li8 1_555 1_555
O10_2 Li6 1_555 1_555
Li2 O2 1_555 1_555
Li3 O3 1_555 1_555
Li3 O4 1_555 1_555
Li4 O3 1_555 1_555
Li4 O4 1_555 1_555
Li6 O14 1_555 1_555
Li7 O15 1_555 1_555
Li7 O16 1_555 1_555
Li8 O15 1_555 1_555
Li8 O16 1_555 1_555
C5 C6 1_555 1_555
C13 C14 1_555 1_555
C21 C22 1_555 1_555
C29 C30 1_555 1_555
C35 C36 1_555 1_555
C39 C40 1_555 1_555
C43 C44 1_555 1_555
C47 C48 1_555 1_555
C51 C52 1_555 1_555
C57 C58 1_555 1_555
C65 C66 1_555 1_555
C73 C74 1_555 1_555
C81 C82 1_555 1_555
C87 O22 1_555 1_555
C88 O21 1_555 1_555
C91 C92 1_555 1_555

#END
