
#######################################################################
#
#                 Cambridge Crystallographic Data Centre
#                                CCDC 
#
#######################################################################
#
# If this CIF has been generated from an entry in the Cambridge 
# Structural Database, then it will include bibliographic, chemical, 
# crystal, experimental, refinement or atomic coordinate data resulting 
# from the CCDC's data processing and validation procedures.
#
#######################################################################

data_FERLEU
_symmetry_cell_setting           monoclinic
_symmetry_space_group_name_H-M   'P 21/c'
_symmetry_Int_Tables_number      14
_space_group_name_Hall           '-P 2ybc'
loop_
_symmetry_equiv_pos_site_id
_symmetry_equiv_pos_as_xyz
1 x,y,z
2 -x,1/2+y,1/2-z
3 -x,-y,-z
4 x,1/2-y,1/2+z
_cell_length_a                   7.0459(12)
_cell_length_b                   17.948(3)
_cell_length_c                   7.4543(12)
_cell_angle_alpha                90
_cell_angle_beta                 94.863(2)
_cell_angle_gamma                90
_cell_volume                     939.276
loop_
_atom_site_label
_atom_site_type_symbol
_atom_site_fract_x
_atom_site_fract_y
_atom_site_fract_z
Ag1 Ag -0.29876(4) 0.489479(14) 0.03055(4)
Ag2 Ag 0.09531(4) 0.057030(16) 0.10126(4)
O1 O -0.1637(3) 0.11750(14) 0.0468(4)
C1 C -0.7556(4) 0.24224(17) -0.2118(4)
O2 O -0.3903(3) 0.37386(12) -0.0469(3)
O3 O -1.0813(4) 0.18492(14) -0.3904(5)
C2 C -0.3023(4) 0.09110(18) -0.0477(5)
O4 O -0.9809(3) 0.06802(12) -0.3585(3)
O5 O -0.6961(3) 0.39311(12) -0.1316(3)
C3 C -0.6365(4) 0.11634(17) -0.1785(4)
O6 O -0.3184(3) 0.02651(12) -0.1106(4)
C4 C -0.9567(4) 0.13462(18) -0.3337(5)
C5 C -0.7804(4) 0.16585(16) -0.2363(4)
C6 C -0.5545(4) 0.35163(16) -0.1029(4)
C7 C -0.4396(4) 0.21958(17) -0.0759(4)
C8 C -0.4653(4) 0.14325(17) -0.0984(4)
C9 C -0.5836(4) 0.26941(16) -0.1315(4)
H1 H -0.317(5) 0.238(2) -0.012(5)
H2 H -0.652(5) 0.061(2) -0.190(5)
H3 H -0.846(6) 0.271(2) -0.251(5)
Ag1B Ag -0.70124(4) 0.510521(14) -0.03055(4)
Ag1A Ag 0.29876(4) -0.010521(14) 0.46945(4)
Ag1C Ag -1.29876(4) 0.010521(14) -0.46945(4)
Ag2A Ag -0.09531(4) 0.557030(16) 0.39874(4)
Ag2B Ag -0.09531(4) -0.057030(16) -0.10126(4)
Ag2C Ag -0.90469(4) 0.442970(16) -0.39874(4)
O4C O 0.0191(3) 0.43198(12) 0.1415(3)
O5B O -0.3039(3) 0.60689(12) 0.1316(3)
O5C O 0.3039(3) 0.10689(12) 0.3684(3)
O6B O 0.3184(3) -0.02651(12) 0.1106(4)
loop_
_geom_bond_atom_site_label_1
_geom_bond_atom_site_label_2
_geom_bond_site_symmetry_1
_geom_bond_site_symmetry_2
Ag1 O2 1_555 1_555
Ag2 O1 1_555 1_555
O1 C2 1_555 1_555
C1 C5 1_555 1_555
O2 C6 1_555 1_555
O3 C4 1_555 1_555
C2 O6 1_555 1_555
O4 C4 1_555 1_555
O5 C6 1_555 1_555
C3 C5 1_555 1_555
O6 Ag2B 1_555 1_555
C4 C5 1_555 1_555
C6 C9 1_555 1_555
C7 C8 1_555 1_555
C8 C2 1_555 1_555
C9 C1 1_555 1_555
H1 C7 1_555 1_555
H2 C3 1_555 1_555
H3 C1 1_555 1_555
Ag1B Ag1 1_555 1_555
Ag1A Ag2 1_555 1_555
Ag1C O4 1_555 1_555
Ag2A Ag1 1_555 1_555
Ag2B Ag2 1_555 1_555
Ag2C O5 1_555 1_555
O4C Ag1 1_555 1_555
O5B Ag1 1_555 1_555
O5C Ag2 1_555 1_555
O6B Ag2 1_555 1_555
O5 Ag1B 1_555 1_555
C3 C8 1_555 1_555
C7 C9 1_555 1_555
Ag1B Ag2C 1_555 1_555
Ag1A O5C 1_555 1_555
Ag2A O5B 1_555 1_555

#END
