
#######################################################################
#
#                 Cambridge Crystallographic Data Centre
#                                CCDC 
#
#######################################################################
#
# If this CIF has been generated from an entry in the Cambridge 
# Structural Database, then it will include bibliographic, chemical, 
# crystal, experimental, refinement or atomic coordinate data resulting 
# from the CCDC's data processing and validation procedures.
#
#######################################################################

data_FERMEV
_symmetry_cell_setting           triclinic
_symmetry_space_group_name_H-M   'P -1'
_symmetry_Int_Tables_number      2
_space_group_name_Hall           '-P 1'
loop_
_symmetry_equiv_pos_site_id
_symmetry_equiv_pos_as_xyz
1 x,y,z
2 -x,-y,-z
_cell_length_a                   8.839
_cell_length_b                   9.178
_cell_length_c                   13.404
_cell_angle_alpha                76.27
_cell_angle_beta                 87.21
_cell_angle_gamma                66.92
_cell_volume                     970.571
loop_
_atom_site_label
_atom_site_type_symbol
_atom_site_fract_x
_atom_site_fract_y
_atom_site_fract_z
In1 In 0.33948(4) 0.80950(5) 0.20626(3)
O1 O 0.4800(4) 0.7305(5) 0.0740(3)
O2 O 0.5803(5) 0.5656(5) 0.2226(3)
O3 O 1.1127(4) 0.0550(5) 0.2295(3)
O4 O 1.2016(5) 0.0119(5) 0.0807(3)
O5 O 0.8147(5) 0.3196(5) -0.2331(3)
O6 O 0.7814(7) 0.5775(6) -0.2542(3)
N1 N 0.3808(5) 0.7606(5) 0.3766(3)
N2 N 0.5150(5) 0.9202(6) 0.2306(3)
C1 C 0.7228(6) 0.4939(6) 0.0742(4)
C2 C 0.8517(6) 0.3594(6) 0.1289(4)
H1 H 0.8621 0.3393 0.2016
C3 C 0.9663(6) 0.2537(6) 0.0770(4)
C4 C 0.9471(6) 0.2792(6) -0.0290(4)
H2 H 1.0209 0.2022 -0.0634
C5 C 0.8212(6) 0.4160(6) -0.0842(4)
C6 C 0.7094(6) 0.5250(6) -0.0327(4)
H3 H 0.6240 0.6205 -0.0705
C7 C 0.5886(6) 0.6024(6) 0.1278(4)
C8 C 1.1007(6) 0.1011(6) 0.1334(4)
C9 C 0.8022(6) 0.4450(7) -0.1994(4)
C10 C 0.5759(8) 0.9983(8) 0.1528(4)
H4 H 0.5315 1.0214 0.0850
C11 C 0.6992(9) 1.0459(9) 0.1673(5)
H5 H 0.7403 1.1022 0.1111
C12 C 0.7629(9) 1.0096(10) 0.2666(6)
H6 H 0.8492 1.0411 0.2792
C13 C 0.7019(8) 0.9284(9) 0.3472(5)
H7 H 0.7463 0.9018 0.4153
C14 C 0.5753(7) 0.8861(7) 0.3272(4)
C15 C 0.4967(6) 0.8014(7) 0.4094(4)
C16 C 0.5383(8) 0.7681(8) 0.5123(4)
H8 H 0.6211 0.7972 0.5342
C17 C 0.4583(8) 0.6920(8) 0.5833(4)
H9 H 0.4870 0.6660 0.6546
C18 C 0.3372(7) 0.6540(7) 0.5502(4)
H10 H 0.2788 0.6040 0.5980
C19 C 0.3019(7) 0.6901(7) 0.4460(4)
H11 H 0.2181 0.6638 0.4228
In1_2 In 1.33948(4) -0.19050(5) 0.20626(3)
In1A In 0.66052(4) 0.19050(5) -0.20626(3)
O3_2 O 0.1127(4) 1.0550(5) 0.2295(3)
O4_2 O 0.2016(5) 1.0119(5) 0.0807(3)
O5A O 0.1853(5) 0.6804(5) 0.2331(3)
O7 O 1.0795(7) 0.0954(7) 0.4395(4)
O8 O 0.9806(9) 0.5853(9) -0.4257(5)
loop_
_geom_bond_atom_site_label_1
_geom_bond_atom_site_label_2
_geom_bond_site_symmetry_1
_geom_bond_site_symmetry_2
In1 O1 1_555 1_555
O1 C7 1_555 1_555
O2 In1 1_555 1_555
O3 C8 1_555 1_555
O4 C8 1_555 1_555
O5 C9 1_555 1_555
O6 C9 1_555 1_555
N1 In1 1_555 1_555
N2 In1 1_555 1_555
C1 C2 1_555 1_555
C2 H1 1_555 1_555
C3 C2 1_555 1_555
C4 C3 1_555 1_555
H2 C4 1_555 1_555
C5 C4 1_555 1_555
C6 C1 1_555 1_555
H3 C6 1_555 1_555
C7 O2 1_555 1_555
C8 C3 1_555 1_555
C9 C5 1_555 1_555
C10 N2 1_555 1_555
H4 C10 1_555 1_555
C11 C10 1_555 1_555
H5 C11 1_555 1_555
C12 C11 1_555 1_555
H6 C12 1_555 1_555
C13 C12 1_555 1_555
H7 C13 1_555 1_555
C14 N2 1_555 1_555
C15 N1 1_555 1_555
C16 C15 1_555 1_555
H8 C16 1_555 1_555
C17 C16 1_555 1_555
H9 C17 1_555 1_555
C18 C17 1_555 1_555
H10 C18 1_555 1_555
C19 N1 1_555 1_555
H11 C19 1_555 1_555
In1_2 O3 1_555 1_555
In1A O5 1_555 1_555
O3_2 In1 1_555 1_555
O4_2 In1 1_555 1_555
O5A In1 1_555 1_555
O4 In1_2 1_555 1_555
C1 C7 1_555 1_555
C5 C6 1_555 1_555
C13 C14 1_555 1_555
C14 C15 1_555 1_555
C18 C19 1_555 1_555

#END
