
#######################################################################
#
#                 Cambridge Crystallographic Data Centre
#                                CCDC 
#
#######################################################################
#
# If this CIF has been generated from an entry in the Cambridge 
# Structural Database, then it will include bibliographic, chemical, 
# crystal, experimental, refinement or atomic coordinate data resulting 
# from the CCDC's data processing and validation procedures.
#
#######################################################################

data_FERNOH
_symmetry_cell_setting           monoclinic
_symmetry_space_group_name_H-M   'P 21'
_symmetry_Int_Tables_number      4
_space_group_name_Hall           'P 2yb'
loop_
_symmetry_equiv_pos_site_id
_symmetry_equiv_pos_as_xyz
1 x,y,z
2 -x,1/2+y,-z
_cell_length_a                   6.3272(7)
_cell_length_b                   9.8159(12)
_cell_length_c                   16.2332(17)
_cell_angle_alpha                90
_cell_angle_beta                 96.078(8)
_cell_angle_gamma                90
_cell_volume                     1002.53
loop_
_atom_site_label
_atom_site_type_symbol
_atom_site_fract_x
_atom_site_fract_y
_atom_site_fract_z
Cu1 Cu 0.79377(18) 1.05209(15) 0.40155(7)
Cl1 Cl 1.0807(4) 1.0540(5) 0.49662(17)
Cl2 Cl 0.9429(5) 1.1893(4) 0.31246(19)
N1 N 0.4055(16) 0.7118(12) 0.5392(7)
N2 N 0.6466(14) 0.9024(11) 0.4643(6)
N3 N 0.5582(13) 0.9947(11) 0.3145(5)
C1 C 0.703(2) 0.8581(14) 0.5398(9)
H1 H 0.8264 0.8913 0.5691
C2 C 0.581(2) 0.7625(17) 0.5764(9)
H2 H 0.6269 0.7332 0.6298
C3 C 0.3488(18) 0.7601(15) 0.4609(8)
H3 H 0.2234 0.7281 0.4324
C4 C 0.4640(16) 0.8512(13) 0.4230(7)
C5 C 0.4153(18) 0.9018(13) 0.3395(6)
C6 C 0.2402(18) 0.8594(14) 0.2892(7)
H4 H 0.1467 0.7974 0.3090
C7 C 0.2014(18) 0.9083(14) 0.2088(7)
C8 C 0.3503(16) 1.0055(13) 0.1825(7)
C9 C 0.5207(17) 1.0452(18) 0.2372(6)
H5 H 0.6141 1.1098 0.2199
C10 C 0.0201(19) 0.8681(17) 0.1471(8)
H6 H -0.1128 0.8896 0.1689
H7 H 0.0243 0.7705 0.1380
C11 C 0.029(2) 0.942(2) 0.0647(8)
H8 H -0.0884 0.9208 0.0221
C12 C 0.071(3) 1.0951(17) 0.0803(11)
H9 H 0.0110 1.1311 0.1284
H10 H 0.0363 1.1524 0.0320
C13 C 0.314(2) 1.055(2) 0.0966(7)
H11 H 0.4160 1.1212 0.0796
C14 C 0.2543(19) 0.9348(17) 0.0351(8)
C15 C 0.387(3) 0.804(2) 0.0515(9)
H12 H 0.5288 0.8197 0.0373
H13 H 0.3231 0.7313 0.0183
H14 H 0.3926 0.7805 0.1090
C16 C 0.265(3) 0.973(2) -0.0545(9)
H15 H 0.1793 1.0528 -0.0674
H16 H 0.2121 0.8993 -0.0895
H17 H 0.4094 0.9923 -0.0634
Cu1A Cu 0.20623(18) 0.55209(15) 0.59845(7)
N1A N 0.5945(16) 1.2118(12) 0.4608(7)
O1 O 0.3729(13) 0.4853(10) 0.2503(5)
H18 H 0.3212 0.4411 0.2885
H19 H 0.4681 0.4376 0.2308
O2 O 0.722(3) 0.6557(19) 0.2595(11)
H20 H 0.7176 0.6903 0.3072
H21 H 0.7945 0.7071 0.2309
O3? O 0.769(3) 0.6413(19) 0.2689(11)
H22? H 0.7571 0.6024 0.3149
H23? H 0.8031 0.5827 0.2341
loop_
_geom_bond_atom_site_label_1
_geom_bond_atom_site_label_2
_geom_bond_site_symmetry_1
_geom_bond_site_symmetry_2
Cu1 Cl1 1_555 1_555
Cl2 Cu1 1_555 1_555
N1 C2 1_555 1_555
N2 Cu1 1_555 1_555
N3 Cu1 1_555 1_555
C1 N2 1_555 1_555
H1 C1 1_555 1_555
C2 C1 1_555 1_555
H2 C2 1_555 1_555
C3 N1 1_555 1_555
H3 C3 1_555 1_555
C4 N2 1_555 1_555
C5 N3 1_555 1_555
C6 C5 1_555 1_555
H4 C6 1_555 1_555
C7 C6 1_555 1_555
C8 C7 1_555 1_555
C9 N3 1_555 1_555
H5 C9 1_555 1_555
C10 C7 1_555 1_555
H6 C10 1_555 1_555
H7 C10 1_555 1_555
C11 C10 1_555 1_555
H8 C11 1_555 1_555
C12 C11 1_555 1_555
H9 C12 1_555 1_555
H10 C12 1_555 1_555
C13 C8 1_555 1_555
H11 C13 1_555 1_555
C14 C11 1_555 1_555
C15 C14 1_555 1_555
H12 C15 1_555 1_555
H13 C15 1_555 1_555
H14 C15 1_555 1_555
C16 C14 1_555 1_555
H15 C16 1_555 1_555
H16 C16 1_555 1_555
H17 C16 1_555 1_555
O1 H18 1_555 1_555
H19 O1 1_555 1_555
O2 H20 1_555 1_555
H21 O2 1_555 1_555
Cu1A N1 1_555 1_555
N1A Cu1 1_555 1_555
C3 C4 1_555 1_555
C4 C5 1_555 1_555
C8 C9 1_555 1_555
C12 C13 1_555 1_555
C13 C14 1_555 1_555

#END
