
#######################################################################
#
#                 Cambridge Crystallographic Data Centre
#                                CCDC 
#
#######################################################################
#
# If this CIF has been generated from an entry in the Cambridge 
# Structural Database, then it will include bibliographic, chemical, 
# crystal, experimental, refinement or atomic coordinate data resulting 
# from the CCDC's data processing and validation procedures.
#
#######################################################################

data_FERZOT
_symmetry_cell_setting           monoclinic
_symmetry_space_group_name_H-M   'P 21/n'
_symmetry_Int_Tables_number      14
_space_group_name_Hall           '-P 2yn'
loop_
_symmetry_equiv_pos_site_id
_symmetry_equiv_pos_as_xyz
1 x,y,z
2 1/2-x,1/2+y,1/2-z
3 -x,-y,-z
4 1/2+x,1/2-y,1/2+z
_cell_length_a                   19.308(4)
_cell_length_b                   14.196(3)
_cell_length_c                   20.379(4)
_cell_angle_alpha                90
_cell_angle_beta                 103.150(4)
_cell_angle_gamma                90
_cell_volume                     5439.34
loop_
_atom_site_label
_atom_site_type_symbol
_atom_site_fract_x
_atom_site_fract_y
_atom_site_fract_z
C1 C 1.4188(3) 0.9181(4) 0.4077(3)
H1 H 1.4342 0.9801 0.4148
C2 C 1.4323(3) 0.8497(3) 0.4553(3)
H2 H 1.4577 0.8549 0.4998
C3 C 1.3694(3) 0.7960(3) 0.3593(2)
H3 H 1.3440 0.7551 0.3269
C4 C 1.4012(3) 0.6768(3) 0.4501(3)
C5 C 1.4079(3) 0.6636(4) 0.5175(3)
H4 H 1.4112 0.7150 0.5463
C6 C 1.4098(3) 0.5725(4) 0.5423(3)
H5 H 1.4154 0.5638 0.5884
C7 C 1.4036(3) 0.4944(3) 0.5013(3)
C8 C 1.3994(3) 0.5106(4) 0.4334(3)
H6 H 1.3976 0.4596 0.4044
C9 C 1.3977(3) 0.6004(4) 0.4083(3)
H7 H 1.3942 0.6096 0.3625
C10 C 1.4044(3) 0.3975(3) 0.5287(2)
C11 C 1.4275(3) 0.3803(4) 0.5962(3)
H8 H 1.4461 0.4299 0.6245
C12 C 1.4242(3) 0.2923(4) 0.6237(3)
H9 H 1.4414 0.2833 0.6697
C13 C 1.3963(3) 0.2195(3) 0.5844(3)
C14 C 1.3768(3) 0.2312(4) 0.5163(3)
H10 H 1.3605 0.1803 0.4883
C15 C 1.3816(3) 0.3196(4) 0.4894(3)
H11 H 1.3689 0.3268 0.4429
C16 C 1.3761(2) 0.1221(3) 0.6780(2)
H12 H 1.3733 0.1725 0.7064
C17 C 1.3765(2) -0.0166(3) 0.6380(2)
H13 H 1.3745 -0.0819 0.6343
C18 C 1.3875(3) 0.0422(3) 0.5899(3)
H14 H 1.3934 0.0261 0.5473
C19 C 0.5086(3) 0.9746(4) 0.1091(3)
H15 H 0.4879 1.0337 0.1096
C20 C 0.4815(3) 0.9041(4) 0.0672(3)
H16 H 0.4395 0.9055 0.0341
C21 C 0.5786(3) 0.8602(3) 0.1333(2)
H17 H 0.6165 0.8224 0.1543
C22 C 0.5416(4) 0.6635(4) 0.0999(3)
H18 H 0.5625 0.6758 0.1449
C23 C 0.5340(4) 0.5718(4) 0.0773(3)
H19 H 0.5497 0.5232 0.1077
C24 C 0.5043(3) 0.5500(4) 0.0118(3)
C25 C 0.4837(3) 0.6246(4) -0.0315(3)
H20 H 0.4644 0.6127 -0.0769
C26 C 0.4910(3) 0.7173(4) -0.0090(3)
H21 H 0.4768 0.7666 -0.0391
C27 C 0.7124(4) 1.0555(4) 0.0913(3)
H22 H 0.7265 0.9935 0.0878
C28 C 0.7248(3) 1.1270(4) 0.0523(3)
H23 H 0.7491 1.1236 0.0179
C29 C 0.6677(2) 1.1773(3) 0.1239(2)
H24 H 0.6451 1.2181 0.1479
C30 C 0.6969(3) 1.2991(3) 0.0487(2)
C31 C 0.7087(2) 1.3719(3) 0.0951(2)
H25 H 0.7175 1.3589 0.1410
C32 C 0.7072(2) 1.4633(3) 0.0730(2)
H26 H 0.7143 1.5119 0.1044
C33 C 0.6954(3) 1.4847(3) 0.0054(2)
C34 C 0.6838(3) 1.4099(4) -0.0401(3)
H27 H 0.6754 1.4227 -0.0860
C35 C 0.6842(3) 1.3183(3) -0.0192(3)
H28 H 0.6761 1.2696 -0.0505
C36 C 0.6940(3) 1.5831(3) -0.0188(2)
C37 C 0.7016(6) 1.6573(4) 0.0200(3)
H29 H 0.7091 1.6483 0.0663
C38 C 0.6990(6) 1.7490(4) -0.0042(4)
H30 H 0.7037 1.7987 0.0262
C39 C 0.6903(3) 1.7671(3) -0.0670(2)
C40 C 0.6891(8) 1.6959(5) -0.1057(4)
H31 H 0.6888 1.7051 -0.1510
C41 C 0.6881(9) 1.6042(5) -0.0808(4)
H32 H 0.6827 1.5550 -0.1117
C42 C 0.6642(3) 1.8880(3) -0.1570(2)
H33 H 0.6448 1.8467 -0.1918
C43 C 0.7138(5) 1.9394(4) -0.0611(3)
H34 H 0.7364 1.9442 -0.0158
C44 C 0.7011(4) 2.0098(4) -0.1056(3)
H35 H 0.7124 2.0726 -0.0956
C45 C 0.5189(3) 0.7357(4) 0.0572(3)
C46 C 1.1661(2) 1.0422(3) 0.2724(2)
C47 C 1.1572(2) 1.1373(3) 0.2826(2)
H36 H 1.1965 1.1771 0.2916
C48 C 1.0902(2) 1.1731(3) 0.2794(2)
C49 C 1.0783(2) 1.2784(3) 0.2801(2)
C50 C 1.0329(2) 1.1123(3) 0.2697(2)
H37 H 0.9878 1.1368 0.2680
C51 C 1.0403(2) 1.0157(3) 0.2624(2)
C52 C 1.1076(2) 0.9826(3) 0.2613(2)
H38 H 1.1137 0.9191 0.2531
C53 C 0.9776(2) 0.9509(3) 0.2553(2)
C54 C 0.9872(2) 0.8540(3) 0.2571(2)
H39 H 1.0328 0.8299 0.2615
C55 C 0.9308(2) 0.7924(3) 0.2526(2)
C56 C 0.8631(2) 0.8285(3) 0.2438(2)
H40 H 0.8246 0.7876 0.2376
C57 C 0.8516(2) 0.9249(3) 0.2441(2)
C58 C 0.9091(2) 0.9847(3) 0.2505(2)
H41 H 0.9018 1.0494 0.2516
C59 C 0.7779(2) 0.9616(3) 0.2399(2)
C60 C 0.9428(2) 0.6879(3) 0.2611(2)
C61 C 1.2377(2) 1.0055(3) 0.2707(2)
H42 H 1.473(2) 1.0361(14) 0.257(2)
H43 H 1.471(2) 0.9389(13) 0.257(2)
N1 N 1.37987(19) 0.8844(2) 0.3483(2)
N2 N 1.3996(2) 0.7703(3) 0.4229(2)
N3 N 1.3881(2) 0.1308(2) 0.6162(2)
N4 N 1.36881(18) 0.0338(2) 0.69364(18)
N5 N 0.57048(19) 0.9471(2) 0.15055(19)
N6 N 0.5267(2) 0.8310(3) 0.0823(2)
N7 N 0.67616(19) 1.0874(2) 0.13613(18)
N8 N 0.6958(2) 1.2034(2) 0.07253(19)
N9 N 0.6881(2) 1.8612(3) -0.0937(2)
N10 N 0.67037(19) 1.9775(2) -0.16555(19)
Ni1 Ni 0.64930(3) 1.01722(3) 0.21700(3)
Ni2 Ni 1.35335(3) 0.94905(4) 0.25454(3)
O1 O 1.29155(15) 1.05696(19) 0.29160(16)
O2 O 1.24364(15) 0.92501(19) 0.24725(16)
O3 O 1.00316(18) 0.6566(2) 0.2685(3)
O4 O 0.88772(16) 0.64132(19) 0.26065(17)
O5 O 0.72569(14) 0.91105(18) 0.21250(16)
O6 O 0.76884(15) 1.04009(19) 0.26462(16)
O7 O 1.01734(16) 1.3091(2) 0.26769(19)
O8 O 1.13501(15) 1.32702(19) 0.29220(16)
O9 O 1.45831(16) 0.9881(2) 0.27161(17)
C19B C 0.4914(3) 0.0254(4) -0.1091(3)
H15B H 0.5121 -0.0337 -0.1096
C20B C 0.5185(3) 0.0959(4) -0.0672(3)
H16B H 0.5605 0.0945 -0.0341
C21B C 0.4214(3) 0.1398(3) -0.1333(2)
H17B H 0.3835 0.1776 -0.1543
C22B C 0.4584(4) 0.3365(4) -0.0999(3)
H18B H 0.4375 0.3242 -0.1449
C23B C 0.4660(4) 0.4282(4) -0.0773(3)
H19B H 0.4503 0.4768 -0.1077
C24B C 0.4957(3) 0.4500(4) -0.0118(3)
C25B C 0.5163(3) 0.3754(4) 0.0315(3)
H20B H 0.5356 0.3873 0.0769
C26B C 0.5090(3) 0.2827(4) 0.0090(3)
H21B H 0.5232 0.2334 0.0391
C45B C 0.4811(3) 0.2643(4) -0.0572(3)
N5B N 0.42952(19) 0.0529(2) -0.15055(19)
N6B N 0.4733(2) 0.1690(3) -0.0823(2)
C1B C -0.4188(3) 0.0819(4) -0.4077(3)
H1B H -0.4342 0.0199 -0.4148
C2B C -0.4323(3) 0.1503(3) -0.4553(3)
H2B H -0.4577 0.1451 -0.4998
C3B C -0.3694(3) 0.2040(3) -0.3593(2)
H3B H -0.3440 0.2449 -0.3269
C4B C -0.4012(3) 0.3232(3) -0.4501(3)
C5B C -0.4079(3) 0.3364(4) -0.5175(3)
H4B H -0.4112 0.2850 -0.5463
C6B C -0.4098(3) 0.4275(4) -0.5423(3)
H5B H -0.4154 0.4362 -0.5884
C7B C -0.4036(3) 0.5056(3) -0.5013(3)
C8B C -0.3994(3) 0.4894(4) -0.4334(3)
H6B H -0.3976 0.5404 -0.4044
C9B C -0.3977(3) 0.3996(4) -0.4083(3)
H7B H -0.3942 0.3904 -0.3625
C10B C -0.4044(3) 0.6025(3) -0.5287(2)
C11B C -0.4275(3) 0.6197(4) -0.5962(3)
H8B H -0.4461 0.5701 -0.6245
C12B C -0.4242(3) 0.7077(4) -0.6237(3)
H9B H -0.4414 0.7167 -0.6697
C13B C -0.3963(3) 0.7805(3) -0.5844(3)
C14B C -0.3768(3) 0.7688(4) -0.5163(3)
H10B H -0.3605 0.8197 -0.4883
C15B C -0.3816(3) 0.6804(4) -0.4894(3)
H11B H -0.3689 0.6732 -0.4429
C16B C -0.3761(2) 0.8779(3) -0.6780(2)
H12B H -0.3733 0.8275 -0.7064
C17B C -0.3765(2) 1.0166(3) -0.6380(2)
H13B H -0.3745 1.0819 -0.6343
C18B C -0.3875(3) 0.9578(3) -0.5899(3)
H14B H -0.3934 0.9739 -0.5473
C27B C 0.2876(4) -0.0555(4) -0.0913(3)
H22B H 0.2735 0.0065 -0.0878
C28B C 0.2752(3) -0.1270(4) -0.0523(3)
H23B H 0.2509 -0.1236 -0.0179
C29B C 0.3323(2) -0.1773(3) -0.1239(2)
H24B H 0.3549 -0.2181 -0.1479
C30B C 0.3031(3) -0.2991(3) -0.0487(2)
C31B C 0.2913(2) -0.3719(3) -0.0951(2)
H25B H 0.2825 -0.3589 -0.1410
C32B C 0.2928(2) -0.4633(3) -0.0730(2)
H26B H 0.2857 -0.5119 -0.1044
C33B C 0.3046(3) -0.4847(3) -0.0054(2)
C34B C 0.3162(3) -0.4099(4) 0.0401(3)
H27B H 0.3246 -0.4227 0.0860
C35B C 0.3158(3) -0.3183(3) 0.0192(3)
H28B H 0.3239 -0.2696 0.0505
C36B C 0.3060(3) -0.5831(3) 0.0188(2)
C37B C 0.2984(6) -0.6573(4) -0.0200(3)
H29B H 0.2909 -0.6483 -0.0663
C38B C 0.3010(6) -0.7490(4) 0.0042(4)
H30B H 0.2963 -0.7987 -0.0262
C39B C 0.3097(3) -0.7671(3) 0.0670(2)
C40B C 0.3109(8) -0.6959(5) 0.1057(4)
H31B H 0.3112 -0.7051 0.1510
C41B C 0.3119(9) -0.6042(5) 0.0808(4)
H32B H 0.3173 -0.5550 0.1117
C42B C 0.3358(3) -0.8880(3) 0.1570(2)
H33B H 0.3552 -0.8467 0.1918
C43B C 0.2862(5) -0.9394(4) 0.0611(3)
H34B H 0.2636 -0.9442 0.0158
C44B C 0.2989(4) -1.0098(4) 0.1056(3)
H35B H 0.2876 -1.0726 0.0956
C46B C -0.1661(2) -0.0422(3) -0.2724(2)
C47B C -0.1572(2) -0.1373(3) -0.2826(2)
H36B H -0.1965 -0.1771 -0.2916
C48B C -0.0902(2) -0.1731(3) -0.2794(2)
C49B C -0.0783(2) -0.2784(3) -0.2801(2)
C50B C -0.0329(2) -0.1123(3) -0.2697(2)
H37B H 0.0122 -0.1368 -0.2680
C51B C -0.0403(2) -0.0157(3) -0.2624(2)
C52B C -0.1076(2) 0.0174(3) -0.2613(2)
H38B H -0.1137 0.0809 -0.2531
C53B C 0.0224(2) 0.0491(3) -0.2553(2)
C54B C 0.0128(2) 0.1460(3) -0.2571(2)
H39B H -0.0328 0.1701 -0.2615
C55B C 0.0692(2) 0.2076(3) -0.2526(2)
C56B C 0.1369(2) 0.1715(3) -0.2438(2)
H40B H 0.1754 0.2124 -0.2376
C57B C 0.1484(2) 0.0751(3) -0.2441(2)
C58B C 0.0909(2) 0.0153(3) -0.2505(2)
H41B H 0.0982 -0.0494 -0.2516
C59B C 0.2221(2) 0.0384(3) -0.2399(2)
C60B C 0.0572(2) 0.3121(3) -0.2611(2)
C61B C -0.2377(2) -0.0055(3) -0.2707(2)
H42B H -0.473(2) -0.0361(14) -0.257(2)
H43B H -0.471(2) 0.0611(13) -0.257(2)
N1B N -0.37987(19) 0.1156(2) -0.3483(2)
N2B N -0.3996(2) 0.2297(3) -0.4229(2)
N3B N -0.3881(2) 0.8692(2) -0.6162(2)
N4B N -0.36881(18) 0.9662(2) -0.69364(18)
N7B N 0.32384(19) -0.0874(2) -0.13613(18)
N8B N 0.3042(2) -0.2034(2) -0.07253(19)
N9B N 0.3119(2) -0.8612(3) 0.0937(2)
N10B N 0.32963(19) -0.9775(2) 0.16555(19)
Ni1B Ni 0.35070(3) -0.01722(3) -0.21700(3)
Ni2B Ni -0.35335(3) 0.05095(4) -0.25454(3)
O1B O -0.29155(15) -0.05696(19) -0.29160(16)
O2B O -0.24364(15) 0.07499(19) -0.24725(16)
O3B O -0.00316(18) 0.3434(2) -0.2685(3)
O4B O 0.11228(16) 0.35868(19) -0.26065(17)
O5B O 0.27431(14) 0.08895(18) -0.21250(16)
O6B O 0.23116(15) -0.04009(19) -0.26462(16)
O7B O -0.01734(16) -0.3091(2) -0.26769(19)
O8B O -0.13501(15) -0.32702(19) -0.29220(16)
O9B O -0.45831(16) 0.0119(2) -0.27161(17)
N4_2 N 0.36881(18) 0.0338(2) -0.30636(18)
N4B_2 N 0.63119(18) 0.9662(2) 0.30636(18)
N10_2 N -0.32963(19) -0.0225(2) -0.16555(19)
N10B_2 N 1.32963(19) 1.0225(2) 0.16555(19)
Ni1_2 Ni -0.35070(3) 1.01722(3) -0.78300(3)
Ni1A Ni 0.85070(3) 0.51722(3) 0.28300(3)
Ni1B_2 Ni 1.35070(3) -0.01722(3) 0.78300(3)
Ni1C Ni 0.14930(3) 0.48278(3) -0.28300(3)
Ni2_2 Ni 0.35335(3) -1.05095(4) 0.25454(3)
Ni2A Ni 1.14665(3) 1.44905(4) 0.24546(3)
Ni2B_2 Ni 0.64665(3) 2.05095(4) -0.25454(3)
Ni2C Ni -0.14665(3) -0.44905(4) -0.24546(3)
O4A O 0.61228(16) 1.14132(19) 0.23935(17)
O4C O 0.38772(16) -0.14132(19) -0.23935(17)
O8A O 1.36499(15) 0.82702(19) 0.20780(16)
O8C O -0.36499(15) 0.17298(19) -0.20780(16)
H44 H 0.1860(15) 0.8031(14) 0.200(3)
H45 H 0.1802(17) 0.7069(13) 0.206(3)
O10 O 0.1599(2) 0.7568(3) 0.1944(3)
H46 H 0.5687(4) 0.830(3) 0.629(3)
H47 H 0.5014(16) 0.793(2) 0.622(4)
O11 O 0.5256(3) 0.8386(4) 0.6170(3)
H48 H 0.7914(14) 0.2649(14) 0.259(3)
H49 H 0.7999(17) 0.1684(11) 0.264(3)
O12 O 0.8187(2) 0.2199(3) 0.2626(3)
loop_
_geom_bond_atom_site_label_1
_geom_bond_atom_site_label_2
_geom_bond_site_symmetry_1
_geom_bond_site_symmetry_2
C1 H1 1_555 1_555
C2 C1 1_555 1_555
H2 C2 1_555 1_555
C3 H3 1_555 1_555
C4 C5 1_555 1_555
C5 H4 1_555 1_555
C6 C5 1_555 1_555
H5 C6 1_555 1_555
C7 C6 1_555 1_555
C8 C7 1_555 1_555
H6 C8 1_555 1_555
C9 C4 1_555 1_555
H7 C9 1_555 1_555
C10 C7 1_555 1_555
C11 C10 1_555 1_555
H8 C11 1_555 1_555
C12 C11 1_555 1_555
H9 C12 1_555 1_555
C13 C12 1_555 1_555
C14 C13 1_555 1_555
H10 C14 1_555 1_555
C15 C10 1_555 1_555
H11 C15 1_555 1_555
C16 H12 1_555 1_555
C17 H13 1_555 1_555
C18 C17 1_555 1_555
H14 C18 1_555 1_555
C19 H15 1_555 1_555
C20 C19 1_555 1_555
H16 C20 1_555 1_555
C21 H17 1_555 1_555
C22 H18 1_555 1_555
C23 C22 1_555 1_555
H19 C23 1_555 1_555
C24 C23 1_555 1_555
C25 C24 1_555 1_555
H20 C25 1_555 1_555
C26 C25 1_555 1_555
H21 C26 1_555 1_555
C27 H22 1_555 1_555
C28 C27 1_555 1_555
H23 C28 1_555 1_555
C29 H24 1_555 1_555
C30 C31 1_555 1_555
C31 H25 1_555 1_555
C32 C31 1_555 1_555
H26 C32 1_555 1_555
C33 C32 1_555 1_555
C34 C33 1_555 1_555
H27 C34 1_555 1_555
C35 C30 1_555 1_555
H28 C35 1_555 1_555
C36 C33 1_555 1_555
C37 C36 1_555 1_555
H29 C37 1_555 1_555
C38 C37 1_555 1_555
H30 C38 1_555 1_555
C39 C38 1_555 1_555
C40 C39 1_555 1_555
H31 C40 1_555 1_555
C41 C36 1_555 1_555
H32 C41 1_555 1_555
C42 H33 1_555 1_555
C43 H34 1_555 1_555
C44 C43 1_555 1_555
H35 C44 1_555 1_555
C45 C22 1_555 1_555
C46 C47 1_555 1_555
C47 H36 1_555 1_555
C48 C47 1_555 1_555
C49 C48 1_555 1_555
C50 C48 1_555 1_555
H37 C50 1_555 1_555
C51 C50 1_555 1_555
C52 C46 1_555 1_555
H38 C52 1_555 1_555
C53 C51 1_555 1_555
C54 C53 1_555 1_555
H39 C54 1_555 1_555
C55 C54 1_555 1_555
C56 C55 1_555 1_555
H40 C56 1_555 1_555
C57 C56 1_555 1_555
C58 C53 1_555 1_555
H41 C58 1_555 1_555
C59 C57 1_555 1_555
C60 C55 1_555 1_555
C61 C46 1_555 1_555
H42 O9 1_555 1_555
H43 O9 1_555 1_555
N1 C1 1_555 1_555
N2 C2 1_555 1_555
N3 C13 1_555 1_555
N4 C16 1_555 1_555
N5 C19 1_555 1_555
N6 C20 1_555 1_555
N7 C27 1_555 1_555
N8 C28 1_555 1_555
N9 C39 1_555 1_555
N10 C42 1_555 1_555
Ni1 N5 1_555 1_555
Ni2 N1 1_555 1_555
O1 C61 1_555 1_555
O2 C61 1_555 1_555
O3 C60 1_555 1_555
O4 C60 1_555 1_555
O5 C59 1_555 1_555
O6 C59 1_555 1_555
O7 C49 1_555 1_555
O8 C49 1_555 1_555
O9 Ni2 1_555 1_555
H44 O10 1_555 1_555
H45 O10 1_555 1_555
H46 O11 1_555 1_555
H47 O11 1_555 1_555
H48 O12 1_555 1_555
H49 O12 1_555 1_555
C19B H15B 1_555 1_555
C20B C19B 1_555 1_555
H16B C20B 1_555 1_555
C21B H17B 1_555 1_555
C22B H18B 1_555 1_555
C23B C22B 1_555 1_555
H19B C23B 1_555 1_555
C24B C24 1_555 1_555
C25B C24B 1_555 1_555
H20B C25B 1_555 1_555
C26B C25B 1_555 1_555
H21B C26B 1_555 1_555
C45B C22B 1_555 1_555
N5B C19B 1_555 1_555
N6B C20B 1_555 1_555
C1B H1B 1_555 1_555
C2B C1B 1_555 1_555
H2B C2B 1_555 1_555
C3B H3B 1_555 1_555
C4B C5B 1_555 1_555
C5B H4B 1_555 1_555
C6B C5B 1_555 1_555
H5B C6B 1_555 1_555
C7B C6B 1_555 1_555
C8B C7B 1_555 1_555
H6B C8B 1_555 1_555
C9B C4B 1_555 1_555
H7B C9B 1_555 1_555
C10B C7B 1_555 1_555
C11B C10B 1_555 1_555
H8B C11B 1_555 1_555
C12B C11B 1_555 1_555
H9B C12B 1_555 1_555
C13B C12B 1_555 1_555
C14B C13B 1_555 1_555
H10B C14B 1_555 1_555
C15B C10B 1_555 1_555
H11B C15B 1_555 1_555
C16B H12B 1_555 1_555
C17B H13B 1_555 1_555
C18B C17B 1_555 1_555
H14B C18B 1_555 1_555
C27B H22B 1_555 1_555
C28B C27B 1_555 1_555
H23B C28B 1_555 1_555
C29B H24B 1_555 1_555
C30B C31B 1_555 1_555
C31B H25B 1_555 1_555
C32B C31B 1_555 1_555
H26B C32B 1_555 1_555
C33B C32B 1_555 1_555
C34B C33B 1_555 1_555
H27B C34B 1_555 1_555
C35B C30B 1_555 1_555
H28B C35B 1_555 1_555
C36B C33B 1_555 1_555
C37B C36B 1_555 1_555
H29B C37B 1_555 1_555
C38B C37B 1_555 1_555
H30B C38B 1_555 1_555
C39B C38B 1_555 1_555
C40B C39B 1_555 1_555
H31B C40B 1_555 1_555
C41B C36B 1_555 1_555
H32B C41B 1_555 1_555
C42B H33B 1_555 1_555
C43B H34B 1_555 1_555
C44B C43B 1_555 1_555
H35B C44B 1_555 1_555
C46B C47B 1_555 1_555
C47B H36B 1_555 1_555
C48B C47B 1_555 1_555
C49B C48B 1_555 1_555
C50B C48B 1_555 1_555
H37B C50B 1_555 1_555
C51B C50B 1_555 1_555
C52B C46B 1_555 1_555
H38B C52B 1_555 1_555
C53B C51B 1_555 1_555
C54B C53B 1_555 1_555
H39B C54B 1_555 1_555
C55B C54B 1_555 1_555
C56B C55B 1_555 1_555
H40B C56B 1_555 1_555
C57B C56B 1_555 1_555
C58B C53B 1_555 1_555
H41B C58B 1_555 1_555
C59B C57B 1_555 1_555
C60B C55B 1_555 1_555
C61B C46B 1_555 1_555
H42B O9B 1_555 1_555
H43B O9B 1_555 1_555
N1B C1B 1_555 1_555
N2B C2B 1_555 1_555
N3B C13B 1_555 1_555
N4B C16B 1_555 1_555
N7B C27B 1_555 1_555
N8B C28B 1_555 1_555
N9B C39B 1_555 1_555
N10B C42B 1_555 1_555
Ni1B N5B 1_555 1_555
Ni2B N1B 1_555 1_555
O1B C61B 1_555 1_555
O2B C61B 1_555 1_555
O3B C60B 1_555 1_555
O4B C60B 1_555 1_555
O5B C59B 1_555 1_555
O6B C59B 1_555 1_555
O7B C49B 1_555 1_555
O8B C49B 1_555 1_555
O9B Ni2B 1_555 1_555
N4_2 Ni1B 1_555 1_555
N4B_2 Ni1 1_555 1_555
N10_2 Ni2B 1_555 1_555
N10B_2 Ni2 1_555 1_555
Ni1_2 N4B 1_555 1_555
Ni1A O4 1_555 1_555
Ni1B_2 N4 1_555 1_555
Ni1C O4B 1_555 1_555
Ni2_2 N10B 1_555 1_555
Ni2A O8 1_555 1_555
Ni2B_2 N10 1_555 1_555
Ni2C O8B 1_555 1_555
O4A Ni1 1_555 1_555
O4C Ni1B 1_555 1_555
O8A Ni2 1_555 1_555
O8C Ni2B 1_555 1_555
C3 N1 1_555 1_555
C3 N2 1_555 1_555
C4 N2 1_555 1_555
C8 C9 1_555 1_555
C14 C15 1_555 1_555
C16 N3 1_555 1_555
C17 N4 1_555 1_555
C18 N3 1_555 1_555
C21 N5 1_555 1_555
C21 N6 1_555 1_555
C26 C45 1_555 1_555
C29 N7 1_555 1_555
C29 N8 1_555 1_555
C30 N8 1_555 1_555
C34 C35 1_555 1_555
C40 C41 1_555 1_555
C42 N9 1_555 1_555
C43 N9 1_555 1_555
C44 N10 1_555 1_555
C45 N6 1_555 1_555
C51 C52 1_555 1_555
C57 C58 1_555 1_555
N7 Ni1 1_555 1_555
Ni1 O5 1_555 1_555
Ni1 O6 1_555 1_555
Ni2 O1 1_555 1_555
Ni2 O2 1_555 1_555
C21B N5B 1_555 1_555
C21B N6B 1_555 1_555
C23B C24B 1_555 1_555
C26B C45B 1_555 1_555
C45B N6B 1_555 1_555
C3B N1B 1_555 1_555
C3B N2B 1_555 1_555
C4B N2B 1_555 1_555
C8B C9B 1_555 1_555
C14B C15B 1_555 1_555
C16B N3B 1_555 1_555
C17B N4B 1_555 1_555
C18B N3B 1_555 1_555
C29B N7B 1_555 1_555
C29B N8B 1_555 1_555
C30B N8B 1_555 1_555
C34B C35B 1_555 1_555
C40B C41B 1_555 1_555
C42B N9B 1_555 1_555
C43B N9B 1_555 1_555
C44B N10B 1_555 1_555
C51B C52B 1_555 1_555
C57B C58B 1_555 1_555
N7B Ni1B 1_555 1_555
Ni1B O5B 1_555 1_555
Ni1B O6B 1_555 1_555
Ni2B O1B 1_555 1_555
Ni2B O2B 1_555 1_555

#END
