
#######################################################################
#
#                 Cambridge Crystallographic Data Centre
#                                CCDC 
#
#######################################################################
#
# If this CIF has been generated from an entry in the Cambridge 
# Structural Database, then it will include bibliographic, chemical, 
# crystal, experimental, refinement or atomic coordinate data resulting 
# from the CCDC's data processing and validation procedures.
#
#######################################################################

data_FERZUZ
_symmetry_cell_setting           monoclinic
_symmetry_space_group_name_H-M   'C 2/c'
_symmetry_Int_Tables_number      15
_space_group_name_Hall           '-C 2yn'
loop_
_symmetry_equiv_pos_site_id
_symmetry_equiv_pos_as_xyz
1 x,y,z
2 -x,y,1/2-z
3 1/2+x,1/2+y,z
4 1/2-x,1/2+y,1/2-z
5 -x,-y,-z
6 x,-y,1/2+z
7 1/2-x,1/2-y,-z
8 1/2+x,1/2-y,1/2+z
_cell_length_a                   37.92(3)
_cell_length_b                   7.642(5)
_cell_length_c                   23.501(15)
_cell_angle_alpha                90
_cell_angle_beta                 117.734(8)
_cell_angle_gamma                90
_cell_volume                     6027.85
loop_
_atom_site_label
_atom_site_type_symbol
_atom_site_fract_x
_atom_site_fract_y
_atom_site_fract_z
C1 C 0.19685(13) 0.6051(6) 0.3613(2)
H1 H 0.2044 0.4950 0.3800
C2 C 0.16186(15) 0.8233(6) 0.3035(3)
H2 H 0.1405 0.8897 0.2746
C3 C 0.19981(15) 0.8820(7) 0.3390(2)
H3 H 0.2090 0.9946 0.3387
C4 C 0.26382(13) 0.7412(6) 0.4211(2)
C5 C 0.29072(13) 0.8369(6) 0.4081(2)
H4 H 0.2822 0.8996 0.3701
C6 C 0.33075(13) 0.8346(6) 0.4544(2)
C7 C 0.34307(13) 0.7449(6) 0.5125(2)
C8 C 0.31624(13) 0.6450(6) 0.5238(2)
H5 H 0.3247 0.5816 0.5617
C9 C 0.27691(14) 0.6422(6) 0.4777(2)
H6 H 0.2588 0.5738 0.4840
C10 C 0.36633(14) 0.9100(6) 0.4524(2)
O1 O 0.36601(13) 0.9928(6) 0.4087(2)
C11 C 0.40090(13) 0.8582(5) 0.5141(2)
C12 C 0.38731(13) 0.7672(6) 0.5513(2)
C13 C 0.41309(14) 0.7117(6) 0.6127(2)
H7 H 0.4036 0.6554 0.6379
C14 C 0.45389(14) 0.7426(7) 0.6360(2)
H8 H 0.4719 0.7051 0.6770
C15 C 0.46766(13) 0.8294(6) 0.5979(2)
C16 C 0.44155(14) 0.8890(6) 0.5367(2)
H9 H 0.4508 0.9476 0.5117
C17 C 0.53163(15) 0.8212(7) 0.5911(2)
H10 H 0.5219 0.7790 0.5493
C18 C 0.57005(14) 0.8605(7) 0.6324(2)
H11 H 0.5913 0.8496 0.6232
C19 C 0.53591(14) 0.9142(6) 0.6821(2)
H12 H 0.5286 0.9470 0.7132
C20 C 0.13650(11) 0.2191(5) 0.20548(19)
C21 C 0.14968(11) 0.0978(5) 0.16847(19)
C22 C 0.18988(12) 0.0509(5) 0.1940(2)
H13 H 0.2087 0.0965 0.2331
C23 C 0.20127(12) -0.0657(5) 0.1597(2)
C24 C 0.24344(12) -0.1270(6) 0.1846(2)
C25 C 0.17335(12) -0.1252(5) 0.0997(2)
H14 H 0.1814 -0.2015 0.0772
C26 C 0.13331(11) -0.0735(5) 0.07206(19)
C27 C 0.12173(12) 0.0358(5) 0.10811(19)
H15 H 0.0951 0.0678 0.0918
C28 C 0.10471(12) -0.1299(5) 0.00589(19)
C29 C 0.06350(12) -0.1169(5) -0.0167(2)
H16 H 0.0538 -0.0753 0.0105
C30 C -0.00712(13) -0.1516(6) -0.1004(2)
C31 C 0.03686(12) -0.1648(5) -0.0790(2)
C32 C 0.05085(12) -0.2283(5) -0.1210(2)
H17 H 0.0330 -0.2599 -0.1629
C33 C 0.09177(12) -0.2432(5) -0.09923(19)
C34 C 0.11781(12) -0.1933(5) -0.0370(2)
H18 H 0.1451 -0.2022 -0.0231
C35 C 0.10739(13) -0.3114(6) -0.1432(2)
Co1 Co 0.118934(16) 0.45667(7) 0.26795(3)
N1 N 0.16031(11) 0.6468(5) 0.31780(18)
N2 N 0.22201(10) 0.7431(5) 0.37534(17)
N3 N 0.51011(11) 0.8555(5) 0.62269(18)
N4 N 0.57318(11) 0.9192(5) 0.69036(18)
O2 O -0.02083(10) -0.1505(6) -0.06339(17)
O3 O -0.02827(10) -0.1357(7) -0.16265(16)
H19 H -0.0519 -0.1288 -0.1721
O4 O 0.08301(10) -0.3877(4) -0.19449(15)
O5 O 0.14301(10) -0.2944(5) -0.12956(17)
O6 O 0.25327(9) -0.2370(4) 0.15723(17)
O7 O 0.26889(9) -0.0492(4) 0.23855(16)
H20 H 0.2908 -0.0956 0.2521
O8 O 0.15794(9) 0.3453(4) 0.23653(16)
O9 O 0.10406(9) 0.1938(4) 0.20555(16)
Co1E Co 0.118934(16) -0.45667(7) -0.23205(3)
Co1G Co 0.618934(16) 1.04333(7) 0.76795(3)
N4G N 0.07318(11) 0.5808(5) 0.19036(18)
O4E O 0.08301(10) 0.3877(4) 0.30551(15)
O10 O 0.2160(4) 0.3352(17) 0.4928(6)
H21 H 0.1937(12) 0.379(12) 0.475(5)
H22 H 0.223(3) 0.286(12) 0.469(4)
loop_
_geom_bond_atom_site_label_1
_geom_bond_atom_site_label_2
_geom_bond_site_symmetry_1
_geom_bond_site_symmetry_2
C1 H1 1_555 1_555
C2 H2 1_555 1_555
C3 C2 1_555 1_555
H3 C3 1_555 1_555
C4 C5 1_555 1_555
C5 H4 1_555 1_555
C6 C5 1_555 1_555
C7 C6 1_555 1_555
C8 C7 1_555 1_555
H5 C8 1_555 1_555
C9 C4 1_555 1_555
H6 C9 1_555 1_555
C10 C6 1_555 1_555
O1 C10 1_555 1_555
C11 C10 1_555 1_555
C12 C7 1_555 1_555
C13 C12 1_555 1_555
H7 C13 1_555 1_555
C14 C13 1_555 1_555
H8 C14 1_555 1_555
C15 C14 1_555 1_555
C16 C11 1_555 1_555
H9 C16 1_555 1_555
C17 H10 1_555 1_555
C18 C17 1_555 1_555
H11 C18 1_555 1_555
C19 H12 1_555 1_555
C20 C21 1_555 1_555
C21 C22 1_555 1_555
C22 H13 1_555 1_555
C23 C22 1_555 1_555
C24 C23 1_555 1_555
C25 C23 1_555 1_555
H14 C25 1_555 1_555
C26 C25 1_555 1_555
C27 C21 1_555 1_555
H15 C27 1_555 1_555
C28 C26 1_555 1_555
C29 C28 1_555 1_555
H16 C29 1_555 1_555
C30 C31 1_555 1_555
C31 C29 1_555 1_555
C32 C31 1_555 1_555
H17 C32 1_555 1_555
C33 C32 1_555 1_555
C34 C28 1_555 1_555
H18 C34 1_555 1_555
C35 C33 1_555 1_555
Co1 N1 1_555 1_555
N1 C1 1_555 1_555
N2 C1 1_555 1_555
N3 C15 1_555 1_555
N4 C18 1_555 1_555
O2 C30 1_555 1_555
O3 C30 1_555 1_555
H19 O3 1_555 1_555
O4 C35 1_555 1_555
O5 C35 1_555 1_555
O6 C24 1_555 1_555
O7 C24 1_555 1_555
H20 O7 1_555 1_555
O8 C20 1_555 1_555
O9 C20 1_555 1_555
O10 H21 1_555 1_555
H22 O10 1_555 1_555
Co1E O4 1_555 1_555
Co1G N4 1_555 1_555
N4G Co1 1_555 1_555
O4E Co1 1_555 1_555
C2 N1 1_555 1_555
C3 N2 1_555 1_555
C4 N2 1_555 1_555
C8 C9 1_555 1_555
C11 C12 1_555 1_555
C15 C16 1_555 1_555
C17 N3 1_555 1_555
C19 N3 1_555 1_555
C19 N4 1_555 1_555
C26 C27 1_555 1_555
C33 C34 1_555 1_555
Co1 O8 1_555 1_555
Co1 O9 1_555 1_555

#END
