
#######################################################################
#
#                 Cambridge Crystallographic Data Centre
#                                CCDC 
#
#######################################################################
#
# If this CIF has been generated from an entry in the Cambridge 
# Structural Database, then it will include bibliographic, chemical, 
# crystal, experimental, refinement or atomic coordinate data resulting 
# from the CCDC's data processing and validation procedures.
#
#######################################################################

data_FESJAQ
_symmetry_cell_setting           monoclinic
_symmetry_space_group_name_H-M   'C 2/c'
_symmetry_Int_Tables_number      15
_space_group_name_Hall           '-C 2yn'
loop_
_symmetry_equiv_pos_site_id
_symmetry_equiv_pos_as_xyz
1 x,y,z
2 -x,y,1/2-z
3 1/2+x,1/2+y,z
4 1/2-x,1/2+y,1/2-z
5 -x,-y,-z
6 x,-y,1/2+z
7 1/2-x,1/2-y,-z
8 1/2+x,1/2-y,1/2+z
_cell_length_a                   14.5641(4)
_cell_length_b                   10.4098(3)
_cell_length_c                   18.0972(5)
_cell_angle_alpha                90
_cell_angle_beta                 92.669(3)
_cell_angle_gamma                90
_cell_volume                     2740.73
loop_
_atom_site_label
_atom_site_type_symbol
_atom_site_fract_x
_atom_site_fract_y
_atom_site_fract_z
Ru1 Ru 1.0000 1.0000 1.0000
Mn1 Mn 1.0000 0.72397(7) 0.7500
Cl1 Cl 1.0000 0.49513(11) 0.7500
O1 O 0.88448(16) 1.0910(2) 0.96548(13)
O2 O 1.14673(15) 0.7380(2) 0.76981(14)
N1 N 0.99248(18) 0.8266(3) 0.85309(15)
N2 N 0.9049(2) 0.8820(3) 1.04844(15)
N3 N 1.29197(19) 0.6671(3) 0.78854(16)
C1 C 0.9951(2) 0.8864(3) 0.90507(18)
C2 C 1.2058(2) 0.6532(3) 0.76517(18)
H1 H 1.1882 0.5751 0.7439
C3 C 1.3604(3) 0.5684(4) 0.7765(2)
H2 H 1.3305 0.4930 0.7565
H3 H 1.3919 0.5475 0.8227
H4 H 1.4037 0.5996 0.7424
C4 C 1.3236(3) 0.7852(4) 0.8245(2)
H5 H 1.2720 0.8404 0.8318
H6 H 1.3662 0.8279 0.7938
H7 H 1.3535 0.7652 0.8714
C5 C 0.8182(2) 0.9281(4) 1.03809(19)
C6 C 0.8080(2) 1.0431(4) 0.99284(19)
C7 C 0.7211(3) 1.0914(4) 0.9797(2)
H8 H 0.7121 1.1634 0.9499
C8 C 0.6457(3) 1.0321(5) 1.0113(2)
H9 H 0.5876 1.0675 1.0027
C9 C 0.6543(3) 0.9253(4) 1.0540(2)
H10 H 0.6027 0.8892 1.0742
C10 C 0.7408(2) 0.8692(4) 1.06780(18)
C11 C 0.7572(3) 0.7531(4) 1.1083(2)
H11 H 0.7086 0.7087 1.1281
C12 C 0.8458(3) 0.7078(4) 1.1177(2)
H12 H 0.8580 0.6326 1.1441
C13 C 0.9183(3) 0.7773(4) 1.08658(19)
H13 H 0.9780 0.7467 1.0938
O2A O 0.85327(15) 0.7380(2) 0.73019(14)
N1A N 1.00752(18) 0.8266(3) 0.64691(15)
N3A N 0.70803(19) 0.6671(3) 0.71146(16)
C1A C 1.0049(2) 0.8864(3) 0.59493(18)
C2A C 0.7942(2) 0.6532(3) 0.73483(18)
H1A H 0.8118 0.5751 0.7561
C3A C 0.6396(3) 0.5684(4) 0.7235(2)
H2A H 0.6695 0.4930 0.7435
H3A H 0.6081 0.5475 0.6773
H4A H 0.5963 0.5996 0.7576
C4A C 0.6764(3) 0.7852(4) 0.6755(2)
H5A H 0.7280 0.8404 0.6682
H6A H 0.6338 0.8279 0.7062
H7A H 0.6465 0.7652 0.6286
O1D O 1.11552(16) 0.9090(2) 1.03452(13)
N2D N 1.0951(2) 1.1180(3) 0.95156(15)
C5D C 1.1818(2) 1.0719(4) 0.96191(19)
C6D C 1.1920(2) 0.9569(4) 1.00716(19)
C7D C 1.2789(3) 0.9086(4) 1.0203(2)
H8D H 1.2879 0.8366 1.0501
C8D C 1.3543(3) 0.9679(5) 0.9887(2)
H9D H 1.4124 0.9325 0.9973
C9D C 1.3457(3) 1.0747(4) 0.9460(2)
H10D H 1.3973 1.1108 0.9258
C10D C 1.2592(2) 1.1308(4) 0.93220(18)
C11D C 1.2428(3) 1.2469(4) 0.8917(2)
H11D H 1.2914 1.2913 0.8719
C12D C 1.1542(3) 1.2922(4) 0.8823(2)
H12D H 1.1420 1.3674 0.8559
C13D C 1.0817(3) 1.2227(4) 0.91342(19)
H13D H 1.0220 1.2533 0.9062
Ru1A Ru 1.0000 1.0000 0.5000
C1D C 1.0049(2) 1.1136(3) 1.09493(18)
loop_
_geom_bond_atom_site_label_1
_geom_bond_atom_site_label_2
_geom_bond_site_symmetry_1
_geom_bond_site_symmetry_2
Ru1 O1 1_555 1_555
Mn1 Cl1 1_555 1_555
O1 C6 1_555 1_555
O2 Mn1 1_555 1_555
N1 Mn1 1_555 1_555
N2 Ru1 1_555 1_555
N3 C2 1_555 1_555
C1 Ru1 1_555 1_555
C2 O2 1_555 1_555
H1 C2 1_555 1_555
C3 N3 1_555 1_555
H2 C3 1_555 1_555
H3 C3 1_555 1_555
H4 C3 1_555 1_555
C4 N3 1_555 1_555
H5 C4 1_555 1_555
H6 C4 1_555 1_555
H7 C4 1_555 1_555
C5 N2 1_555 1_555
C6 C5 1_555 1_555
C7 C6 1_555 1_555
H8 C7 1_555 1_555
C8 C7 1_555 1_555
H9 C8 1_555 1_555
C9 C8 1_555 1_555
H10 C9 1_555 1_555
C10 C5 1_555 1_555
C11 C10 1_555 1_555
H11 C11 1_555 1_555
C12 C11 1_555 1_555
H12 C12 1_555 1_555
C13 N2 1_555 1_555
H13 C13 1_555 1_555
O2A Mn1 1_555 1_555
N1A Mn1 1_555 1_555
N3A C2A 1_555 1_555
C1A N1A 1_555 1_555
C2A O2A 1_555 1_555
H1A C2A 1_555 1_555
C3A N3A 1_555 1_555
H2A C3A 1_555 1_555
H3A C3A 1_555 1_555
H4A C3A 1_555 1_555
C4A N3A 1_555 1_555
H5A C4A 1_555 1_555
H6A C4A 1_555 1_555
H7A C4A 1_555 1_555
O1D Ru1 1_555 1_555
N2D Ru1 1_555 1_555
C5D N2D 1_555 1_555
C6D O1D 1_555 1_555
C7D C6D 1_555 1_555
H8D C7D 1_555 1_555
C8D C7D 1_555 1_555
H9D C8D 1_555 1_555
C9D C8D 1_555 1_555
H10D C9D 1_555 1_555
C10D C5D 1_555 1_555
C11D C10D 1_555 1_555
H11D C11D 1_555 1_555
C12D C11D 1_555 1_555
H12D C12D 1_555 1_555
C13D N2D 1_555 1_555
H13D C13D 1_555 1_555
Ru1A C1A 1_555 1_555
C1D Ru1 1_555 1_555
N1 C1 1_555 1_555
C9 C10 1_555 1_555
C12 C13 1_555 1_555
C5D C6D 1_555 1_555
C9D C10D 1_555 1_555
C12D C13D 1_555 1_555

#END
