
#######################################################################
#
#                 Cambridge Crystallographic Data Centre
#                                CCDC 
#
#######################################################################
#
# If this CIF has been generated from an entry in the Cambridge 
# Structural Database, then it will include bibliographic, chemical, 
# crystal, experimental, refinement or atomic coordinate data resulting 
# from the CCDC's data processing and validation procedures.
#
#######################################################################

data_FESVAC06
_symmetry_cell_setting           monoclinic
_symmetry_space_group_name_H-M   'P 21/n'
_symmetry_Int_Tables_number      14
_space_group_name_Hall           '-P 2yn'
loop_
_symmetry_equiv_pos_site_id
_symmetry_equiv_pos_as_xyz
1 x,y,z
2 1/2-x,1/2+y,1/2-z
3 -x,-y,-z
4 1/2+x,1/2-y,1/2+z
_cell_length_a                   22.66744(81)
_cell_length_b                   8.54438(35)
_cell_length_c                   15.05658(65)
_cell_angle_alpha                90
_cell_angle_beta                 79.3208(32)
_cell_angle_gamma                90
_cell_volume                     2865.64
loop_
_atom_site_label
_atom_site_type_symbol
_atom_site_fract_x
_atom_site_fract_y
_atom_site_fract_z
N1 N 0.483252 0.568446 0.358377
N2 N 0.497355 0.756856 0.501456
C1 C 0.537976 0.623674 0.364576
C2 C 0.545193 0.717128 0.438161
C3 C 0.442541 0.707537 0.492501
C4 C 0.435400 0.611310 0.420319
Ag1 Ag 0.471286 0.394888 0.247012
C5 C 0.589621 0.585530 0.290866
C6 C 0.605690 0.776904 0.448290
C7 C 0.389685 0.762205 0.560037
C8 C 0.374914 0.556246 0.407443
Ag2 Ag 0.490561 0.105950 0.375106
N3 N 0.475599 0.469345 0.089527
O1 O 0.391590 0.219050 0.281072
O2 O 0.563595 0.242152 0.206211
H1 H 0.575748 0.519770 0.245615
H2 H 0.620329 0.529087 0.316136
H3 H 0.606767 0.682493 0.262333
H4 H 0.602642 0.828418 0.507118
H5 H 0.620080 0.852207 0.400100
H6 H 0.633918 0.689325 0.444419
H7 H 0.403723 0.815518 0.60987
H8 H 0.364925 0.672135 0.583599
H9 H 0.365869 0.834895 0.530890
H10 H 0.379602 0.465991 0.366608
H11 H 0.354470 0.640866 0.381241
H12 H 0.350956 0.525953 0.465950
O3 O 0.405955 -0.012808 0.343326
O4 O 0.562956 -0.001688 0.261481
C9 C 0.495631 0.613687 0.063875
C10 C 0.478984 0.356403 0.026863
C11 C 0.377858 0.083629 0.306032
C12 C 0.580069 0.104610 0.206115
C13 C 0.486607 0.740542 0.134185
C14 C 0.453100 0.199344 0.056618
C15 C 0.314882 0.031699 0.290612
C16 C 0.630228 0.057544 0.125342
H13 H 0.461657 0.700748 0.189700
H14 H 0.466575 0.830094 0.111878
H15 H 0.525591 0.773431 0.146761
H16 H 0.428616 0.207988 0.117276
H17 H 0.485821 0.124587 0.057541
H18 H 0.427966 0.162759 0.014355
F1 F 0.304422 0.085660 0.211362
F2 F 0.311605 -0.125576 0.285859
C17 C 0.264833 0.088116 0.365403
F3 F 0.627414 -0.097681 0.107744
F4 F 0.622349 0.133541 0.049599
C18 C 0.694901 0.091977 0.136583
F5 F 0.259395 0.247478 0.351564
F6 F 0.280609 0.077263 0.443443
C19 C 0.202022 0.027431 0.369051
F7 F 0.700717 0.245654 0.150966
F8 F 0.732252 0.052978 0.059347
C20 C 0.718040 0.006560 0.212694
F9 F 0.187047 0.010709 0.291996
F10 F 0.202241 -0.124929 0.395906
F11 F 0.162524 0.089331 0.430302
F12 F 0.713542 -0.146611 0.206249
F13 F 0.775430 0.040946 0.209677
F14 F 0.688113 0.050465 0.292770
N3B N 0.524401 0.530655 -0.089527
C9B C 0.504369 0.386313 -0.063875
C10B C 0.521016 0.643597 -0.026863
C13B C 0.513393 0.259458 -0.134185
C14B C 0.546900 0.800656 -0.056618
H13B H 0.538343 0.299252 -0.189700
H14B H 0.533425 0.169906 -0.111878
H15B H 0.474409 0.226569 -0.146761
H16B H 0.571384 0.792012 -0.117276
H17B H 0.514179 0.875413 -0.057541
H18B H 0.572034 0.837241 -0.014355
N1B N 0.516748 0.431554 -0.358377
N2B N 0.502645 0.243144 -0.501456
C1B C 0.462024 0.376326 -0.364576
C2B C 0.454807 0.282872 -0.438161
C3B C 0.557459 0.292463 -0.492501
C4B C 0.564600 0.388690 -0.420319
Ag1B Ag 0.528714 0.605112 -0.247012
C5B C 0.410379 0.414470 -0.290866
C6B C 0.394310 0.223096 -0.448290
C7B C 0.610315 0.237795 -0.560037
C8B C 0.625086 0.443754 -0.407443
Ag2B Ag 0.509439 0.894050 -0.375106
O1B O 0.608410 0.780950 -0.281072
O2B O 0.436405 0.757848 -0.206211
H1B H 0.424252 0.480230 -0.245615
H2B H 0.379671 0.470913 -0.316136
H3B H 0.393233 0.317507 -0.262333
H4B H 0.397358 0.171582 -0.507118
H5B H 0.379920 0.147793 -0.400100
H6B H 0.366082 0.310675 -0.444419
H7B H 0.596277 0.184482 -0.60987
H8B H 0.635075 0.327865 -0.583599
H9B H 0.634131 0.165105 -0.530890
H10B H 0.620398 0.534009 -0.366608
H11B H 0.645530 0.359134 -0.381241
H12B H 0.649044 0.474047 -0.465950
O3B O 0.594045 1.012808 -0.343326
O4B O 0.437044 1.001688 -0.261481
C11B C 0.622142 0.916371 -0.306032
C12B C 0.419931 0.895390 -0.206115
C15B C 0.685118 0.968301 -0.290612
C16B C 0.369772 0.942456 -0.125342
F1B F 0.695578 0.914340 -0.211362
F2B F 0.688395 1.125576 -0.285859
C17B C 0.735167 0.911884 -0.365403
F3B F 0.372586 1.097681 -0.107744
F4B F 0.377651 0.866459 -0.049599
C18B C 0.305099 0.908023 -0.136583
F5B F 0.740605 0.752522 -0.351564
F6B F 0.719391 0.922737 -0.443443
C19B C 0.797978 0.972569 -0.369051
F7B F 0.299283 0.754346 -0.150966
F8B F 0.267748 0.947022 -0.059347
C20B C 0.281960 0.993440 -0.212694
F9B F 0.812953 0.989291 -0.291996
F10B F 0.797759 1.124929 -0.395906
F11B F 0.837476 0.910669 -0.430302
F12B F 0.286458 1.146611 -0.206249
F13B F 0.224570 0.959054 -0.209677
F14B F 0.311887 0.949535 -0.292770
N2B_2 N 0.502645 0.243144 0.498544
N2_2 N 0.497355 0.756856 -0.498544
Ag2B_2 Ag 0.509439 0.894050 0.624894
Ag2_2 Ag 0.490561 0.105950 -0.624894
loop_
_geom_bond_atom_site_label_1
_geom_bond_atom_site_label_2
_geom_bond_site_symmetry_1
_geom_bond_site_symmetry_2
N1 C1 1_555 1_555
N2 C2 1_555 1_555
C1 C2 1_555 1_555
C2 C6 1_555 1_555
C3 N2 1_555 1_555
C4 N1 1_555 1_555
Ag1 N1 1_555 1_555
C5 C1 1_555 1_555
C6 H4 1_555 1_555
C7 C3 1_555 1_555
C8 C4 1_555 1_555
Ag2 O3 1_555 1_555
N3 Ag1 1_555 1_555
O1 Ag1 1_555 1_555
O2 Ag1 1_555 1_555
H1 C5 1_555 1_555
H2 C5 1_555 1_555
H3 C5 1_555 1_555
H5 C6 1_555 1_555
H6 C6 1_555 1_555
H7 C7 1_555 1_555
H8 C7 1_555 1_555
H9 C7 1_555 1_555
H10 C8 1_555 1_555
H11 C8 1_555 1_555
H12 C8 1_555 1_555
O3 C11 1_555 1_555
O4 Ag2 1_555 1_555
C9 N3 1_555 1_555
C10 N3 1_555 1_555
C11 O1 1_555 1_555
C12 O2 1_555 1_555
C13 C9 1_555 1_555
C14 C10 1_555 1_555
C15 C11 1_555 1_555
C16 C12 1_555 1_555
H13 C13 1_555 1_555
H14 C13 1_555 1_555
H15 C13 1_555 1_555
H16 C14 1_555 1_555
H17 C14 1_555 1_555
H18 C14 1_555 1_555
F1 C15 1_555 1_555
F2 C15 1_555 1_555
C17 C15 1_555 1_555
F3 C16 1_555 1_555
F4 C16 1_555 1_555
C18 C16 1_555 1_555
F5 C17 1_555 1_555
F6 C17 1_555 1_555
C19 C17 1_555 1_555
F7 C18 1_555 1_555
F8 C18 1_555 1_555
C20 C18 1_555 1_555
F9 C19 1_555 1_555
F10 C19 1_555 1_555
F11 C19 1_555 1_555
F12 C20 1_555 1_555
F13 C20 1_555 1_555
F14 C20 1_555 1_555
N3B C9B 1_555 1_555
C9B C10 1_555 1_555
C10B C9 1_555 1_555
C13B C9B 1_555 1_555
C14B C10B 1_555 1_555
H13B C13B 1_555 1_555
H14B C13B 1_555 1_555
H15B C13B 1_555 1_555
H16B C14B 1_555 1_555
H17B C14B 1_555 1_555
H18B C14B 1_555 1_555
N1B C1B 1_555 1_555
N2B C2B 1_555 1_555
C1B C2B 1_555 1_555
C2B C6B 1_555 1_555
C3B N2B 1_555 1_555
C4B N1B 1_555 1_555
Ag1B N3B 1_555 1_555
C5B C1B 1_555 1_555
C6B H4B 1_555 1_555
C7B C3B 1_555 1_555
C8B C4B 1_555 1_555
Ag2B O3B 1_555 1_555
O1B Ag1B 1_555 1_555
O2B Ag1B 1_555 1_555
H1B C5B 1_555 1_555
H2B C5B 1_555 1_555
H3B C5B 1_555 1_555
H5B C6B 1_555 1_555
H6B C6B 1_555 1_555
H7B C7B 1_555 1_555
H8B C7B 1_555 1_555
H9B C7B 1_555 1_555
H10B C8B 1_555 1_555
H11B C8B 1_555 1_555
H12B C8B 1_555 1_555
O3B C11B 1_555 1_555
O4B Ag2B 1_555 1_555
C11B O1B 1_555 1_555
C12B O2B 1_555 1_555
C15B C11B 1_555 1_555
C16B C12B 1_555 1_555
F1B C15B 1_555 1_555
F2B C15B 1_555 1_555
C17B C15B 1_555 1_555
F3B C16B 1_555 1_555
F4B C16B 1_555 1_555
C18B C16B 1_555 1_555
F5B C17B 1_555 1_555
F6B C17B 1_555 1_555
C19B C17B 1_555 1_555
F7B C18B 1_555 1_555
F8B C18B 1_555 1_555
C20B C18B 1_555 1_555
F9B C19B 1_555 1_555
F10B C19B 1_555 1_555
F11B C19B 1_555 1_555
F12B C20B 1_555 1_555
F13B C20B 1_555 1_555
F14B C20B 1_555 1_555
N2B_2 Ag2 1_555 1_555
N2_2 Ag2B 1_555 1_555
Ag2B_2 N2 1_555 1_555
Ag2_2 N2B 1_555 1_555
C3 C4 1_555 1_555
O4 C12 1_555 1_555
N3B C10B 1_555 1_555
N1B Ag1B 1_555 1_555
C3B C4B 1_555 1_555
O4B C12B 1_555 1_555

#END
