
#######################################################################
#
#                 Cambridge Crystallographic Data Centre
#                                CCDC 
#
#######################################################################
#
# If this CIF has been generated from an entry in the Cambridge 
# Structural Database, then it will include bibliographic, chemical, 
# crystal, experimental, refinement or atomic coordinate data resulting 
# from the CCDC's data processing and validation procedures.
#
#######################################################################

data_FESVIJ
_symmetry_cell_setting           triclinic
_symmetry_space_group_name_H-M   'P -1'
_symmetry_Int_Tables_number      2
_space_group_name_Hall           '-P 1'
loop_
_symmetry_equiv_pos_site_id
_symmetry_equiv_pos_as_xyz
1 x,y,z
2 -x,-y,-z
_cell_length_a                   8.5870(3)
_cell_length_b                   11.3900(4)
_cell_length_c                   18.1730(4)
_cell_angle_alpha                102.432(2)
_cell_angle_beta                 102.926(2)
_cell_angle_gamma                93.7340(10)
_cell_volume                     1679.74
loop_
_atom_site_label
_atom_site_type_symbol
_atom_site_fract_x
_atom_site_fract_y
_atom_site_fract_z
Fe1 Fe 0.51449(5) 0.48931(4) 0.25647(2)
S1 S 0.76444(12) 0.19145(8) 0.37628(5)
S2 S 0.3408(1) 0.79110(9) 0.11725(7)
N1 N 0.6533(3) 0.3911(2) 0.3240(1)
N2 N 0.3857(3) 0.5969(2) 0.18766(13)
N3 N 0.3374(3) 0.5051(2) 0.32842(13)
N4 N 0.6882(3) 0.4800(2) 0.18046(13)
N5 N 0.6559(3) 0.6654(2) 0.32889(13)
N6 N 0.3642(3) 0.3212(2) 0.17622(13)
C1 C 0.7012(4) 0.3088(3) 0.3471(2)
C2 C 0.3669(4) 0.6795(3) 0.1603(2)
C3 C 0.2927(4) 0.6124(3) 0.3583(2)
C4 C 0.1932(4) 0.6274(3) 0.4088(2)
C5 C 0.1306(4) 0.5268(3) 0.4304(2)
C6 C 0.1713(4) 0.4144(3) 0.3966(2)
C7 C 0.2742(4) 0.4078(3) 0.3479(2)
C8 C 0.0296(4) 0.5436(3) 0.4861(2)
C9 C 0.8471(4) 0.5142(3) 0.2108(2)
C10 C 0.9539(4) 0.5321(3) 0.1663(2)
C11 C 0.8984(3) 0.5101(3) 0.0853(2)
C12 C 0.7349(4) 0.4714(3) 0.0541(2)
C13 C 0.6363(4) 0.4584(3) 0.1031(2)
C14 C 1.0103(4) 0.5279(3) 0.0372(2)
C15 C 0.7082(4) 0.7511(3) 0.2963(2)
C16 C 0.8082(4) 0.8549(3) 0.3381(2)
C17 C 0.8588(3) 0.8765(3) 0.4186(2)
C18 C 0.7993(4) 0.7902(3) 0.4531(2)
C19 C 0.7015(4) 0.6873(3) 0.4069(2)
C20 C 0.9712(4) 0.9850(3) 0.4615(2)
C21 C 0.3862(4) 0.2095(3) 0.1861(2)
C22 C 0.2894(4) 0.1060(3) 0.1398(2)
C23 C 0.1627(3) 0.1132(3) 0.0791(2)
C24 C 0.1389(4) 0.2292(3) 0.0688(2)
C25 C 0.2403(4) 0.3280(3) 0.1173(2)
C26 C 0.0625(4) 0.0022(3) 0.0296(2)
H1 H 0.3383(4) 0.6820(3) 0.3499(2)
H2 H 0.1742(4) 0.7051(3) 0.4307(2)
H3 H 0.1336(4) 0.3435(3) 0.4105(2)
H4 H 0.3146(4) 0.3346(3) 0.3273(2)
H5 H 0.0063(4) 0.6224(3) 0.5029(2)
H6 H 0.8799(4) 0.5316(3) 0.2734(2)
H7 H 1.0735(4) 0.5559(3) 0.1950(2)
H8 H 0.6862(4) 0.4464(3) -0.0050(2)
H9 H 0.5224(4) 0.4360(3) 0.0811(2)
H10 H 1.0991(4) 0.5804(3) 0.0619(2)
H11 H 0.6719(4) 0.7365(3) 0.2419(2)
H12 H 0.8391(4) 0.9174(3) 0.3119(2)
H13 H 0.8267(4) 0.7999(3) 0.5062(2)
H14 H 0.6617(4) 0.6273(3) 0.4340(2)
H15 H 1.0026(4) 1.0316(3) 0.4290(2)
H16 H 0.4800(4) 0.2019(3) 0.2274(2)
H17 H 0.3116(4) 0.0336(3) 0.1471(2)
H18 H 0.1050(4) -0.0718(3) 0.0447(2)
H19 H 0.0481(4) 0.2465(3) 0.0306(2)
H20 H 0.2211(4) 0.4075(3) 0.1109(2)
Fe1A Fe -0.51449(5) 0.51069(4) 0.74353(2)
Fe1A_2 Fe 1.48551(5) 0.51069(4) -0.25647(2)
Fe1A_3 Fe 1.48551(5) 1.51069(4) 0.74353(2)
Fe1A_4 Fe -0.51449(5) -0.48931(4) -0.25647(2)
S1A S -0.76444(12) 0.80855(8) 0.62372(5)
S2A S -0.3408(1) 0.20890(9) 0.88275(7)
N1A N -0.6533(3) 0.6089(2) 0.6760(1)
N2A N -0.3857(3) 0.4031(2) 0.81234(13)
N3A N -0.3374(3) 0.4949(2) 0.67158(13)
N4A N 1.3118(3) 0.5200(2) -0.18046(13)
N4A_2 N -0.6882(3) 0.5200(2) 0.81954(13)
N5A N 1.3441(3) 1.3346(2) 0.67111(13)
N5A_2 N -0.6559(3) 0.3346(2) 0.67111(13)
N6A N -0.3642(3) -0.3212(2) -0.17622(13)
N6A_2 N -0.3642(3) 0.6788(2) 0.82378(13)
C1A C -0.7012(4) 0.6912(3) 0.6529(2)
C2A C -0.3669(4) 0.3205(3) 0.8397(2)
C3A C -0.2927(4) 0.3876(3) 0.6417(2)
C4A C -0.1932(4) 0.3726(3) 0.5912(2)
C5A C -0.1306(4) 0.4732(3) 0.5696(2)
C6A C -0.1713(4) 0.5856(3) 0.6034(2)
C7A C -0.2742(4) 0.5922(3) 0.6521(2)
C8A C -0.0296(4) 0.4564(3) 0.5139(2)
C9A C 1.1529(4) 0.4858(3) -0.2108(2)
C10A C 1.0461(4) 0.4679(3) -0.1663(2)
C11A C 1.1016(3) 0.4899(3) -0.0853(2)
C12A C 1.2651(4) 0.5286(3) -0.0541(2)
C13A C 1.3637(4) 0.5416(3) -0.1031(2)
C14A C 0.9897(4) 0.4721(3) -0.0372(2)
C15A C 1.2918(4) 1.2489(3) 0.7037(2)
C16A C 1.1918(4) 1.1451(3) 0.6619(2)
C17A C 1.1412(3) 1.1235(3) 0.5814(2)
C18A C 1.2007(4) 1.2098(3) 0.5469(2)
C19A C 1.2985(4) 1.3127(3) 0.5931(2)
C20A C 1.0288(4) 1.0150(3) 0.5385(2)
C21A C -0.3862(4) -0.2095(3) -0.1861(2)
C22A C -0.2894(4) -0.1060(3) -0.1398(2)
C23A C -0.1627(3) -0.1132(3) -0.0791(2)
C24A C -0.1389(4) -0.2292(3) -0.0688(2)
C25A C -0.2403(4) -0.3280(3) -0.1173(2)
C26A C -0.0625(4) -0.0022(3) -0.0296(2)
H1A H -0.3383(4) 0.3180(3) 0.6501(2)
H2A H -0.1742(4) 0.2949(3) 0.5693(2)
H3A H -0.1336(4) 0.6565(3) 0.5895(2)
H4A H -0.3146(4) 0.6654(3) 0.6727(2)
H5A H -0.0063(4) 0.3776(3) 0.4971(2)
H6A H 1.1201(4) 0.4684(3) -0.2734(2)
H7A H 0.9265(4) 0.4441(3) -0.1950(2)
H8A H 1.3138(4) 0.5536(3) 0.0050(2)
H9A H 1.4776(4) 0.5640(3) -0.0811(2)
H10A H 0.9009(4) 0.4196(3) -0.0619(2)
H11A H 1.3281(4) 1.2635(3) 0.7581(2)
H12A H 1.1609(4) 1.0826(3) 0.6881(2)
H13A H 1.1733(4) 1.2001(3) 0.4938(2)
H14A H 1.3383(4) 1.3727(3) 0.5660(2)
H15A H 0.9974(4) 0.9684(3) 0.5710(2)
H16A H -0.4800(4) -0.2019(3) -0.2274(2)
H17A H -0.3116(4) -0.0336(3) -0.1471(2)
H18A H -0.1050(4) 0.0718(3) -0.0447(2)
H19A H -0.0481(4) -0.2465(3) -0.0306(2)
H20A H -0.2211(4) -0.4075(3) -0.1109(2)
O1 O 0.1928(3) 0.1080(3) 0.3525(2)
C34 C 0.3531(11) -0.0441(8) 0.3797(7)
C35 C 0.3317(7) 0.0490(9) 0.3517(4)
H25 H 0.1134(3) 0.0787(3) 0.3002(2)
N7 N -0.0478(4) 0.0366(4) 0.2101(2)
C27 C -0.1185(5) -0.0712(5) 0.1661(2)
C28 C -0.2555(6) -0.0858(6) 0.1056(2)
C29 C -0.3211(5) 0.0161(7) 0.0867(3)
C30 C -0.2452(6) 0.1294(6) 0.1339(3)
C31 C -0.1143(5) 0.1343(5) 0.1930(2)
C33 C -0.4664(12) -0.040(2) 0.0153(6)
H21 H -0.0842(5) -0.1404(5) 0.1841(2)
H22 H -0.3112(6) -0.1643(6) 0.0742(2)
H23 H -0.3064(6) 0.1811(6) 0.1097(3)
H24 H -0.0482(5) 0.2233(5) 0.2313(2)
N7A N -0.9522(4) -0.0366(4) -0.2101(2)
C27A C -0.8815(5) 0.0712(5) -0.1661(2)
C28A C -0.7445(6) 0.0858(6) -0.1056(2)
C29A C -0.6789(5) -0.0161(7) -0.0867(3)
C30A C -0.7548(6) -0.1294(6) -0.1339(3)
C31A C -0.8857(5) -0.1343(5) -0.1930(2)
C33A C -0.5336(12) 0.040(2) -0.0153(6)
H21A H -0.9158(5) 0.1404(5) -0.1841(2)
H22A H -0.6888(6) 0.1643(6) -0.0742(2)
H23A H -0.6936(6) -0.1811(6) -0.1097(3)
H24A H -0.9518(5) -0.2233(5) -0.2313(2)
C32? C -0.456(1) 0.0532(12) 0.0272(7)
loop_
_geom_bond_atom_site_label_1
_geom_bond_atom_site_label_2
_geom_bond_site_symmetry_1
_geom_bond_site_symmetry_2
Fe1 N1 1_555 1_555
S1 C1 1_555 1_555
S2 C2 1_555 1_555
O1 C35 1_555 1_555
N1 C1 1_555 1_555
N2 Fe1 1_555 1_555
N3 Fe1 1_555 1_555
N4 Fe1 1_555 1_555
N5 Fe1 1_555 1_555
N6 Fe1 1_555 1_555
N7 C27 1_555 1_555
C2 N2 1_555 1_555
C3 N3 1_555 1_555
C4 C3 1_555 1_555
C5 C4 1_555 1_555
C6 C5 1_555 1_555
C7 N3 1_555 1_555
C8 C5 1_555 1_555
C9 N4 1_555 1_555
C10 C9 1_555 1_555
C11 C10 1_555 1_555
C12 C11 1_555 1_555
C13 N4 1_555 1_555
C14 C11 1_555 1_555
C15 N5 1_555 1_555
C16 C15 1_555 1_555
C17 C16 1_555 1_555
C18 C17 1_555 1_555
C19 N5 1_555 1_555
C20 C17 1_555 1_555
C21 N6 1_555 1_555
C22 C21 1_555 1_555
C23 C22 1_555 1_555
C24 C23 1_555 1_555
C25 N6 1_555 1_555
C26 C23 1_555 1_555
C27 C28 1_555 1_555
C28 C29 1_555 1_555
C29 C30 1_555 1_555
C30 C31 1_555 1_555
C31 N7 1_555 1_555
C33 C29 1_555 1_555
C34 C35 1_555 1_555
H1 C3 1_555 1_555
H2 C4 1_555 1_555
H3 C6 1_555 1_555
H4 C7 1_555 1_555
H5 C8 1_555 1_555
H6 C9 1_555 1_555
H7 C10 1_555 1_555
H8 C12 1_555 1_555
H9 C13 1_555 1_555
H10 C14 1_555 1_555
H11 C15 1_555 1_555
H12 C16 1_555 1_555
H13 C18 1_555 1_555
H14 C19 1_555 1_555
H15 C20 1_555 1_555
H16 C21 1_555 1_555
H17 C22 1_555 1_555
H18 C26 1_555 1_555
H19 C24 1_555 1_555
H20 C25 1_555 1_555
H21 C27 1_555 1_555
H22 C28 1_555 1_555
H23 C30 1_555 1_555
H24 C31 1_555 1_555
H25 O1 1_555 1_555
Fe1A N1A 1_555 1_555
Fe1A_2 N4A 1_555 1_555
Fe1A_3 N5A 1_555 1_555
Fe1A_4 N6A 1_555 1_555
S1A C1A 1_555 1_555
S2A C2A 1_555 1_555
N1A C1A 1_555 1_555
N2A Fe1A 1_555 1_555
N3A Fe1A 1_555 1_555
N4A C9A 1_555 1_555
N4A_2 Fe1A 1_555 1_555
N5A C15A 1_555 1_555
N5A_2 Fe1A 1_555 1_555
N6A C21A 1_555 1_555
N6A_2 Fe1A 1_555 1_555
N7A C27A 1_555 1_555
C2A N2A 1_555 1_555
C3A N3A 1_555 1_555
C4A C3A 1_555 1_555
C5A C4A 1_555 1_555
C6A C5A 1_555 1_555
C7A N3A 1_555 1_555
C8A C8 1_555 1_555
C9A C10A 1_555 1_555
C10A C11A 1_555 1_555
C11A C12A 1_555 1_555
C12A C13A 1_555 1_555
C13A N4A 1_555 1_555
C14A C14 1_555 1_555
C15A C16A 1_555 1_555
C16A C17A 1_555 1_555
C17A C18A 1_555 1_555
C18A C19A 1_555 1_555
C19A N5A 1_555 1_555
C20A C20 1_555 1_555
C21A C22A 1_555 1_555
C22A C23A 1_555 1_555
C23A C24A 1_555 1_555
C24A C25A 1_555 1_555
C25A N6A 1_555 1_555
C26A C26 1_555 1_555
C27A C28A 1_555 1_555
C28A C29A 1_555 1_555
C29A C30A 1_555 1_555
C30A C31A 1_555 1_555
C31A N7A 1_555 1_555
C33A C33 1_555 1_555
H1A C3A 1_555 1_555
H2A C4A 1_555 1_555
H3A C6A 1_555 1_555
H4A C7A 1_555 1_555
H5A C8A 1_555 1_555
H6A C9A 1_555 1_555
H7A C10A 1_555 1_555
H8A C12A 1_555 1_555
H9A C13A 1_555 1_555
H10A C14A 1_555 1_555
H11A C15A 1_555 1_555
H12A C16A 1_555 1_555
H13A C18A 1_555 1_555
H14A C19A 1_555 1_555
H15A C20A 1_555 1_555
H16A C21A 1_555 1_555
H17A C22A 1_555 1_555
H18A C26A 1_555 1_555
H19A C24A 1_555 1_555
H20A C25A 1_555 1_555
H21A C27A 1_555 1_555
H22A C28A 1_555 1_555
H23A C30A 1_555 1_555
H24A C31A 1_555 1_555
C6 C7 1_555 1_555
C12 C13 1_555 1_555
C18 C19 1_555 1_555
C24 C25 1_555 1_555
C5A C8A 1_555 1_555
C6A C7A 1_555 1_555
C11A C14A 1_555 1_555
C17A C20A 1_555 1_555
C23A C26A 1_555 1_555
C29A C33A 1_555 1_555

#END
