
#######################################################################
#
#                 Cambridge Crystallographic Data Centre
#                                CCDC 
#
#######################################################################
#
# If this CIF has been generated from an entry in the Cambridge 
# Structural Database, then it will include bibliographic, chemical, 
# crystal, experimental, refinement or atomic coordinate data resulting 
# from the CCDC's data processing and validation procedures.
#
#######################################################################

data_FESVOQ03
_symmetry_cell_setting           triclinic
_symmetry_space_group_name_H-M   'P -1'
_symmetry_Int_Tables_number      2
_space_group_name_Hall           '-P 1'
loop_
_symmetry_equiv_pos_site_id
_symmetry_equiv_pos_as_xyz
1 x,y,z
2 -x,-y,-z
_cell_length_a                   8.800(2)
_cell_length_b                   12.268(3)
_cell_length_c                   14.904(4)
_cell_angle_alpha                109.781(4)
_cell_angle_beta                 96.709(4)
_cell_angle_gamma                104.522(4)
_cell_volume                     1429.32
loop_
_atom_site_label
_atom_site_type_symbol
_atom_site_fract_x
_atom_site_fract_y
_atom_site_fract_z
Ag1 Ag 0.63821(7) 0.27084(6) 0.32089(5)
Ag2 Ag 0.79827(9) -0.10788(6) -0.13085(5)
O1 O 0.7897(6) -0.0543(5) -0.2724(4)
O2 O 1.0453(7) 0.0039(6) -0.1946(5)
O3 O 0.4630(7) 0.2086(5) 0.4155(5)
H1 H 0.3570 0.1551 0.3841
N1 N 0.6716(7) 0.1494(6) 0.1733(5)
N2 N 0.7418(8) 0.0108(6) 0.0055(5)
N3 N 0.8621(7) 0.4098(6) 0.4374(5)
O4 O 0.4505(8) 0.3502(6) 0.2449(5)
O5 O 0.1912(7) 0.3032(5) 0.1799(5)
F1 F 0.1267(9) 0.5220(7) 0.1013(6)
F2 F 0.3270(10) 0.5869(6) 0.0341(6)
F3 F 0.2636(10) 0.4084(6) 0.0338(5)
F4 F 0.5294(8) 0.5582(7) 0.1598(7)
F5 F 0.3995(10) 0.6891(6) 0.2235(6)
F6 F 0.2099(7) 0.5325(5) 0.2844(5)
F7 F 0.4655(8) 0.5793(5) 0.3341(5)
F8 F 1.0904(11) 0.3770(6) -0.3087(6)
F9 F 0.9311(10) 0.2277(7) -0.4248(6)
F10 F 1.1744(9) 0.2386(7) -0.3970(6)
F11 F 1.1464(10) 0.2423(8) -0.2124(6)
F12 F 0.8956(8) 0.2132(7) -0.2547(5)
F13 F 0.8789(7) 0.0056(5) -0.4153(4)
F14 F 1.1262(6) 0.0332(5) -0.3549(4)
C1 C 0.2750(18) 0.5224(11) 0.0863(10)
C2 C 0.3827(16) 0.5681(9) 0.1802(9)
C3 C 0.3435(12) 0.5114(8) 0.2568(7)
C4 C 0.3267(11) 0.3746(8) 0.2240(7)
C5 C 1.0574(14) 0.2618(9) -0.3532(8)
C6 C 1.0219(12) 0.1924(11) -0.2884(10)
C7 C 0.9907(10) 0.0542(8) -0.3307(6)
C8 C 0.9395(11) -0.0049(8) -0.2592(7)
C9 C 0.7559(9) 0.2023(7) 0.1219(6)
C10 C 0.6260(9) 0.0287(7) 0.1449(6)
C11 C 0.6587(9) -0.0418(7) 0.0592(6)
C12 C 0.7911(9) 0.1325(7) 0.0380(6)
C13 C 0.8062(10) 0.3385(7) 0.1573(6)
H2 H 0.7264 0.3684 0.1905
H3 H 0.8137 0.3631 0.1015
H4 H 0.9113 0.3731 0.2030
C14 C 0.5405(10) -0.0287(8) 0.2075(6)
H5 H 0.5293 0.0352 0.2649
H6 H 0.6032 -0.0747 0.2288
H7 H 0.4337 -0.0838 0.1694
C15 C 0.6104(10) -0.1786(7) 0.0250(7)
H8 H 0.6141 -0.2136 -0.0440
H9 H 0.5008 -0.2096 0.0328
H10 H 0.6848 -0.2015 0.0641
C16 C 0.8917(10) 0.1883(8) -0.0189(6)
H11 H 0.8994 0.1237 -0.0771
H12 H 0.9998 0.2357 0.0219
H13 H 0.8419 0.2420 -0.0388
C17 C 0.8553(9) 0.5171(7) 0.4986(6)
C18 C 0.9933(9) 0.6095(7) 0.5609(6)
C19 C 0.6899(8) 0.5341(8) 0.4947(7)
H14 H 0.6948 0.6117 0.4882
H15 H 0.6554 0.5344 0.5549
H16 H 0.6129 0.4671 0.4384
C20 C 0.9863(9) 0.7278(7) 0.6269(6)
H17 H 0.9755 0.7245 0.6908
H18 H 0.8935 0.7457 0.5990
H19 H 1.0853 0.7920 0.6350
C21 C 0.5162(12) 0.1621(10) 0.4851(8)
H20 H 0.5337 0.0842 0.4508
H21 H 0.4342 0.1499 0.5230
H22 H 0.6172 0.2204 0.5293
N3A N 1.1379(7) 0.5902(6) 0.5626(5)
C17A C 1.1447(9) 0.4829(7) 0.5014(6)
C18A C 1.0067(9) 0.3905(7) 0.4391(6)
C19A C 1.3101(8) 0.4659(8) 0.5053(7)
H14A H 1.3052 0.3883 0.5118
H15A H 1.3446 0.4656 0.4451
H16A H 1.3871 0.5329 0.5616
C20A C 1.0137(9) 0.2722(7) 0.3731(6)
H17A H 1.0245 0.2755 0.3092
H18A H 1.1065 0.2543 0.4010
H19A H 0.9147 0.2080 0.3650
Ag1A Ag 0.36179(7) -0.27084(6) -0.32089(5)
Ag2A Ag 0.20173(9) 0.10788(6) 0.13085(5)
O1A O 0.2103(6) 0.0543(5) 0.2724(4)
O2A O -0.0453(7) -0.0039(6) 0.1946(5)
O3A O 0.5370(7) -0.2086(5) -0.4155(5)
H1A H 0.6430 -0.1551 -0.3841
N1A N 0.3284(7) -0.1494(6) -0.1733(5)
N2A N 0.2582(8) -0.0108(6) -0.0055(5)
O4A O 0.5495(8) -0.3502(6) -0.2449(5)
O5A O 0.8088(7) -0.3032(5) -0.1799(5)
F1A F 0.8733(9) -0.5220(7) -0.1013(6)
F2A F 0.6730(10) -0.5869(6) -0.0341(6)
F3A F 0.7364(10) -0.4084(6) -0.0338(5)
F4A F 0.4706(8) -0.5582(7) -0.1598(7)
F5A F 0.6005(10) -0.6891(6) -0.2235(6)
F6A F 0.7901(7) -0.5325(5) -0.2844(5)
F7A F 0.5345(8) -0.5793(5) -0.3341(5)
F8A F -0.0904(11) -0.3770(6) 0.3087(6)
F9A F 0.0689(10) -0.2277(7) 0.4248(6)
F10A F -0.1744(9) -0.2386(7) 0.3970(6)
F11A F -0.1464(10) -0.2423(8) 0.2124(6)
F12A F 0.1044(8) -0.2132(7) 0.2547(5)
F13A F 0.1211(7) -0.0056(5) 0.4153(4)
F14A F -0.1262(6) -0.0332(5) 0.3549(4)
C1A C 0.7250(18) -0.5224(11) -0.0863(10)
C2A C 0.6173(16) -0.5681(9) -0.1802(9)
C3A C 0.6565(12) -0.5114(8) -0.2568(7)
C4A C 0.6733(11) -0.3746(8) -0.2240(7)
C5A C -0.0574(14) -0.2618(9) 0.3532(8)
C6A C -0.0219(12) -0.1924(11) 0.2884(10)
C7A C 0.0093(10) -0.0542(8) 0.3307(6)
C8A C 0.0605(11) 0.0049(8) 0.2592(7)
C9A C 0.2441(9) -0.2023(7) -0.1219(6)
C10A C 0.3740(9) -0.0287(7) -0.1449(6)
C11A C 0.3413(9) 0.0418(7) -0.0592(6)
C12A C 0.2089(9) -0.1325(7) -0.0380(6)
C13A C 0.1938(10) -0.3385(7) -0.1573(6)
H2A H 0.2736 -0.3684 -0.1905
H3A H 0.1863 -0.3631 -0.1015
H4A H 0.0887 -0.3731 -0.2030
C14A C 0.4595(10) 0.0287(8) -0.2075(6)
H5A H 0.4707 -0.0352 -0.2649
H6A H 0.3968 0.0747 -0.2288
H7A H 0.5663 0.0838 -0.1694
C15A C 0.3896(10) 0.1786(7) -0.0250(7)
H8A H 0.3859 0.2136 0.0440
H9A H 0.4992 0.2096 -0.0328
H10A H 0.3152 0.2015 -0.0641
C16A C 0.1083(10) -0.1883(8) 0.0189(6)
H11A H 0.1006 -0.1237 0.0771
H12A H 0.0002 -0.2357 -0.0219
H13A H 0.1581 -0.2420 0.0388
C21A C 0.4838(12) -0.1621(10) -0.4851(8)
H20A H 0.4663 -0.0842 -0.4508
H21A H 0.5658 -0.1499 -0.5230
H22A H 0.3828 -0.2204 -0.5293
Ag1A_2 Ag 1.36179(7) 0.72916(6) 0.67911(5)
N3A_2 N 0.1379(7) -0.4098(6) -0.4374(5)
loop_
_geom_bond_atom_site_label_1
_geom_bond_atom_site_label_2
_geom_bond_site_symmetry_1
_geom_bond_site_symmetry_2
Ag1 O3 1_555 1_555
Ag2 O1 1_555 1_555
O1 C8 1_555 1_555
O2 Ag2 1_555 1_555
O3 H1 1_555 1_555
N1 Ag1 1_555 1_555
N2 Ag2 1_555 1_555
N3 Ag1 1_555 1_555
O4 Ag1 1_555 1_555
O5 C4 1_555 1_555
F1 C1 1_555 1_555
F2 C1 1_555 1_555
F3 C1 1_555 1_555
F4 C2 1_555 1_555
F5 C2 1_555 1_555
F6 C3 1_555 1_555
F7 C3 1_555 1_555
F8 C5 1_555 1_555
F9 C5 1_555 1_555
F10 C5 1_555 1_555
F11 C6 1_555 1_555
F12 C6 1_555 1_555
F13 C7 1_555 1_555
F14 C7 1_555 1_555
C1 C2 1_555 1_555
C2 C3 1_555 1_555
C3 C4 1_555 1_555
C4 O4 1_555 1_555
C5 C6 1_555 1_555
C6 C7 1_555 1_555
C7 C8 1_555 1_555
C8 O2 1_555 1_555
C9 N1 1_555 1_555
C10 N1 1_555 1_555
C11 N2 1_555 1_555
C12 N2 1_555 1_555
C13 C9 1_555 1_555
H2 C13 1_555 1_555
H3 C13 1_555 1_555
H4 C13 1_555 1_555
C14 C10 1_555 1_555
H5 C14 1_555 1_555
H6 C14 1_555 1_555
H7 C14 1_555 1_555
C15 C11 1_555 1_555
H8 C15 1_555 1_555
H9 C15 1_555 1_555
H10 C15 1_555 1_555
C16 C12 1_555 1_555
H11 C16 1_555 1_555
H12 C16 1_555 1_555
H13 C16 1_555 1_555
C17 N3 1_555 1_555
C18 C17 1_555 1_555
C19 C17 1_555 1_555
H14 C19 1_555 1_555
H15 C19 1_555 1_555
H16 C19 1_555 1_555
C20 C18 1_555 1_555
H17 C20 1_555 1_555
H18 C20 1_555 1_555
H19 C20 1_555 1_555
C21 O3 1_555 1_555
H20 C21 1_555 1_555
H21 C21 1_555 1_555
H22 C21 1_555 1_555
N3A C18 1_555 1_555
C17A N3A 1_555 1_555
C18A N3 1_555 1_555
C19A C17A 1_555 1_555
H14A C19A 1_555 1_555
H15A C19A 1_555 1_555
H16A C19A 1_555 1_555
C20A C18A 1_555 1_555
H17A C20A 1_555 1_555
H18A C20A 1_555 1_555
H19A C20A 1_555 1_555
Ag1A O3A 1_555 1_555
Ag2A O5 1_555 1_555
O1A Ag2A 1_555 1_555
O2A Ag2A 1_555 1_555
O3A H1A 1_555 1_555
N1A Ag1A 1_555 1_555
N2A Ag2A 1_555 1_555
O4A Ag1A 1_555 1_555
O5A Ag2 1_555 1_555
F1A C1A 1_555 1_555
F2A C1A 1_555 1_555
F3A C1A 1_555 1_555
F4A C2A 1_555 1_555
F5A C2A 1_555 1_555
F6A C3A 1_555 1_555
F7A C3A 1_555 1_555
F8A C5A 1_555 1_555
F9A C5A 1_555 1_555
F10A C5A 1_555 1_555
F11A C6A 1_555 1_555
F12A C6A 1_555 1_555
F13A C7A 1_555 1_555
F14A C7A 1_555 1_555
C1A C2A 1_555 1_555
C2A C3A 1_555 1_555
C3A C4A 1_555 1_555
C4A O4A 1_555 1_555
C5A C6A 1_555 1_555
C6A C7A 1_555 1_555
C7A C8A 1_555 1_555
C8A O1A 1_555 1_555
C9A N1A 1_555 1_555
C10A N1A 1_555 1_555
C11A N2A 1_555 1_555
C12A N2A 1_555 1_555
C13A C9A 1_555 1_555
H2A C13A 1_555 1_555
H3A C13A 1_555 1_555
H4A C13A 1_555 1_555
C14A C10A 1_555 1_555
H5A C14A 1_555 1_555
H6A C14A 1_555 1_555
H7A C14A 1_555 1_555
C15A C11A 1_555 1_555
H8A C15A 1_555 1_555
H9A C15A 1_555 1_555
H10A C15A 1_555 1_555
C16A C12A 1_555 1_555
H11A C16A 1_555 1_555
H12A C16A 1_555 1_555
H13A C16A 1_555 1_555
C21A O3A 1_555 1_555
H20A C21A 1_555 1_555
H21A C21A 1_555 1_555
H22A C21A 1_555 1_555
Ag1A_2 N3A 1_555 1_555
N3A_2 Ag1A 1_555 1_555
C9 C12 1_555 1_555
C10 C11 1_555 1_555
C17A C18A 1_555 1_555
O2A C8A 1_555 1_555
O5A C4A 1_555 1_555
C9A C12A 1_555 1_555
C10A C11A 1_555 1_555

#END
