
#######################################################################
#
#                 Cambridge Crystallographic Data Centre
#                                CCDC 
#
#######################################################################
#
# If this CIF has been generated from an entry in the Cambridge 
# Structural Database, then it will include bibliographic, chemical, 
# crystal, experimental, refinement or atomic coordinate data resulting 
# from the CCDC's data processing and validation procedures.
#
#######################################################################

data_FETFAM01
_symmetry_cell_setting           triclinic
_symmetry_space_group_name_H-M   'P -1'
_symmetry_Int_Tables_number      2
_space_group_name_Hall           '-P 1'
loop_
_symmetry_equiv_pos_site_id
_symmetry_equiv_pos_as_xyz
1 x,y,z
2 -x,-y,-z
_cell_length_a                   7.869(2)
_cell_length_b                   9.437(2)
_cell_length_c                   20.992(4)
_cell_angle_alpha                89.95(3)
_cell_angle_beta                 89.84(3)
_cell_angle_gamma                67.22(3)
_cell_volume                     1437.26
loop_
_atom_site_label
_atom_site_type_symbol
_atom_site_fract_x
_atom_site_fract_y
_atom_site_fract_z
V1 V 0.33255(11) 0.38848(9) 0.26963(4)
V2 V 0.57979(11) 0.02962(9) 0.33213(4)
V3 V 0.33239(11) -0.11137(9) 0.23042(4)
V4 V 0.57975(11) 0.52968(9) 0.16787(4)
Ni1 Ni 0.01973(9) 0.75380(7) 0.31695(3)
Ni2 Ni 0.01964(9) 0.25384(7) 0.18305(3)
C1 C -0.2505(7) 0.6010(6) 0.3556(3)
H1 H -0.2613 0.5832 0.3125
C2 C -0.3567(8) 0.5600(6) 0.3986(3)
H2 H -0.4380 0.5169 0.3845
C3 C -0.3406(8) 0.5836(6) 0.4617(3)
H3 H -0.4112 0.5565 0.4911
C4 C -0.2165(7) 0.6494(6) 0.4827(3)
C5 C -0.1895(8) 0.6765(6) 0.5472(3)
H4 H -0.2584 0.6528 0.5784
C6 C -0.0648(9) 0.7365(6) 0.5649(3)
H5 H -0.0484 0.7520 0.6078
C7 C 0.0404(8) 0.7756(6) 0.5180(2)
C8 C 0.1725(8) 0.8369(6) 0.5325(3)
H6 H 0.1974 0.8514 0.5748
C9 C 0.2640(8) 0.8752(6) 0.4845(3)
H7 H 0.3515 0.9160 0.4936
C10 C 0.2250(7) 0.8526(6) 0.4216(3)
H8 H 0.2873 0.8798 0.3891
C11 C 0.0116(7) 0.7536(5) 0.4538(2)
C12 C -0.1166(7) 0.6883(5) 0.4357(2)
C13 C 0.2256(7) 0.3533(6) 0.0782(3)
H9 H 0.2874 0.3812 0.1104
C14 C 0.2635(8) 0.3749(6) 0.0153(3)
H10 H 0.3508 0.4157 0.0057
C15 C 0.1727(8) 0.3364(6) -0.0324(3)
H11 H 0.1988 0.3506 -0.0746
C16 C 0.0405(7) 0.2757(6) -0.0184(2)
C17 C -0.0657(8) 0.2361(7) -0.0652(3)
H12 H -0.0490 0.2513 -0.1081
C18 C -0.1902(8) 0.1767(6) -0.0476(3)
H13 H -0.2596 0.1537 -0.0786
C19 C -0.2168(7) 0.1488(6) 0.0176(3)
C20 C -0.3393(8) 0.0845(6) 0.0378(3)
H14 H -0.4100 0.0583 0.0082
C21 C -0.3556(8) 0.0600(6) 0.1008(3)
H15 H -0.4364 0.0160 0.1146
C22 C -0.2499(7) 0.1013(6) 0.1446(3)
H16 H -0.2616 0.0831 0.1876
C23 C -0.1163(7) 0.1889(5) 0.0648(2)
C24 C 0.0110(7) 0.2538(5) 0.0461(2)
N1 N -0.1336(5) 0.6648(4) 0.37272(19)
N2 N 0.1020(5) 0.7935(4) 0.40596(19)
N3 N -0.1335(5) 0.1652(4) 0.12762(19)
N4 N 0.1029(5) 0.2936(4) 0.09372(19)
O1 O 0.4716(5) 0.2331(4) 0.31840(18)
O2 O -0.0921(5) 0.7108(4) 0.22944(17)
O3 O 0.4849(6) 0.4218(5) 0.2154(2)
O4 O -0.0918(5) 0.2109(4) 0.27044(16)
O5 O 0.2310(5) 0.5433(4) 0.31322(16)
O6 O 0.1765(5) 0.3488(4) 0.23045(18)
O7 O 0.8037(5) -0.0328(4) 0.31450(17)
O8 O 0.5548(5) -0.0062(4) 0.40573(17)
O9 O 0.4863(6) -0.0784(5) 0.2841(2)
O10 O 0.4711(5) 0.7339(4) 0.18113(18)
O11 O 0.1767(5) 0.8490(4) 0.26975(18)
O12 O 0.2307(5) 0.0434(4) 0.18678(16)
O13 O 0.8043(5) 0.4673(4) 0.18542(17)
O14 O 0.5550(5) 0.4931(4) 0.09447(17)
V3_2 V 0.33239(11) 0.88863(9) 0.23042(4)
Ni1_2 Ni 1.01973(9) -0.24620(7) 0.31695(3)
Ni2_2 Ni 1.01964(9) 0.25384(7) 0.18305(3)
O7_2 O -0.1963(5) 0.9672(4) 0.31450(17)
O10_2 O 0.4711(5) -0.2661(4) 0.18113(18)
O11_2 O 0.1767(5) -0.1510(4) 0.26975(18)
O13_2 O -0.1957(5) 0.4673(4) 0.18542(17)
loop_
_geom_bond_atom_site_label_1
_geom_bond_atom_site_label_2
_geom_bond_site_symmetry_1
_geom_bond_site_symmetry_2
V1 O1 1_555 1_555
V2 O1 1_555 1_555
V3 O9 1_555 1_555
V4 O3 1_555 1_555
Ni1 N1 1_555 1_555
Ni2 N3 1_555 1_555
C1 H1 1_555 1_555
C2 C1 1_555 1_555
H2 C2 1_555 1_555
C3 C2 1_555 1_555
H3 C3 1_555 1_555
C4 C3 1_555 1_555
C5 C4 1_555 1_555
H4 C5 1_555 1_555
C6 C5 1_555 1_555
H5 C6 1_555 1_555
C7 C6 1_555 1_555
C8 C7 1_555 1_555
H6 C8 1_555 1_555
C9 C8 1_555 1_555
H7 C9 1_555 1_555
C10 C9 1_555 1_555
H8 C10 1_555 1_555
C11 C7 1_555 1_555
C12 C4 1_555 1_555
C13 H9 1_555 1_555
C14 C13 1_555 1_555
H10 C14 1_555 1_555
C15 C14 1_555 1_555
H11 C15 1_555 1_555
C16 C15 1_555 1_555
C17 C16 1_555 1_555
H12 C17 1_555 1_555
C18 C17 1_555 1_555
H13 C18 1_555 1_555
C19 C18 1_555 1_555
C20 C19 1_555 1_555
H14 C20 1_555 1_555
C21 C20 1_555 1_555
H15 C21 1_555 1_555
C22 C21 1_555 1_555
H16 C22 1_555 1_555
C23 C19 1_555 1_555
C24 C16 1_555 1_555
N1 C1 1_555 1_555
N2 Ni1 1_555 1_555
N3 C22 1_555 1_555
N4 Ni2 1_555 1_555
O2 Ni1 1_555 1_555
O3 V1 1_555 1_555
O4 Ni2 1_555 1_555
O5 V1 1_555 1_555
O6 V1 1_555 1_555
O7 V2 1_555 1_555
O8 V2 1_555 1_555
O9 V2 1_555 1_555
O10 V4 1_555 1_555
O11 Ni1 1_555 1_555
O12 V3 1_555 1_555
O13 V4 1_555 1_555
O14 V4 1_555 1_555
V3_2 O10 1_555 1_555
Ni1_2 O7 1_555 1_555
Ni2_2 O13 1_555 1_555
O7_2 Ni1 1_555 1_555
O10_2 V3 1_555 1_555
O11_2 V3 1_555 1_555
O13_2 Ni2 1_555 1_555
Ni1 O5 1_555 1_555
Ni2 O6 1_555 1_555
Ni2 O12 1_555 1_555
C10 N2 1_555 1_555
C11 C12 1_555 1_555
C11 N2 1_555 1_555
C12 N1 1_555 1_555
C13 N4 1_555 1_555
C23 C24 1_555 1_555
C23 N3 1_555 1_555
C24 N4 1_555 1_555
O11 V3_2 1_555 1_555

#END
