
#######################################################################
#
#                 Cambridge Crystallographic Data Centre
#                                CCDC 
#
#######################################################################
#
# If this CIF has been generated from an entry in the Cambridge 
# Structural Database, then it will include bibliographic, chemical, 
# crystal, experimental, refinement or atomic coordinate data resulting 
# from the CCDC's data processing and validation procedures.
#
#######################################################################

data_FETHES
_symmetry_cell_setting           triclinic
_symmetry_space_group_name_H-M   'P -1'
_symmetry_Int_Tables_number      2
_space_group_name_Hall           '-P 1'
loop_
_symmetry_equiv_pos_site_id
_symmetry_equiv_pos_as_xyz
1 x,y,z
2 -x,-y,-z
_cell_length_a                   8.3090(10)
_cell_length_b                   11.264(2)
_cell_length_c                   12.611(2)
_cell_angle_alpha                112.743(6)
_cell_angle_beta                 97.608(7)
_cell_angle_gamma                95.516(7)
_cell_volume                     1064.84
loop_
_atom_site_label
_atom_site_type_symbol
_atom_site_fract_x
_atom_site_fract_y
_atom_site_fract_z
Ag1 Ag 0.52516(3) 0.56586(2) 0.380653(18)
Ag2 Ag 0.91174(3) 0.97340(2) 0.62508(2)
S1 S 0.84399(8) 0.65784(6) 0.62869(5)
S2 S 0.67013(7) 0.86900(6) 0.36969(5)
O1 O 0.6839(3) 0.5850(2) 0.5591(2)
O2 O 0.9252(3) 0.7361(2) 0.5757(2)
O3 O 0.9500(2) 0.5747(2) 0.6581(2)
O4 O 0.7099(3) 1.0423(2) 1.0677(2)
O5 O 0.9347(3) 0.9642(2) 1.1794(2)
O6 O 1.0574(3) 0.8000(2) 1.0750(2)
O7 O 0.8311(2) 0.9501(2) 0.4295(2)
O8 O 0.6022(3) 0.8075(2) 0.4392(2)
O9 O 0.5593(2) 0.9428(2) 0.3304(2)
O10 O 0.7993(3) 0.4517(2) -0.0521(2)
O11 O 0.5864(3) 0.5243(2) -0.1741(2)
O12 O 0.4563(3) 0.6889(2) -0.0824(2)
O13 O 0.2464(3) 0.6562(2) 0.3676(2)
O14 O 0.6997(3) 0.3771(2) 0.2946(2)
O15 O 0.7707(3) 1.1588(2) 0.7207(2)
C1 C 0.8036(3) 0.7688(2) 0.7616(2)
C2 C 0.6848(3) 0.8493(3) 0.7593(2)
C3 C 0.6554(3) 0.9392(3) 0.8624(3)
C4 C 0.7429(3) 0.9518(3) 0.9699(2)
C5 C 0.8606(3) 0.8706(2) 0.9723(2)
C6 C 0.8898(3) 0.7796(2) 0.8669(2)
C7 C 0.9545(3) 0.8822(3) 1.0847(2)
C8 C 0.7047(3) 0.7440(2) 0.2420(2)
C9 C 0.8194(3) 0.6634(3) 0.2517(2)
C10 C 0.8492(3) 0.5668(3) 0.1523(3)
C11 C 0.7656(3) 0.5479(3) 0.0418(2)
C12 C 0.6497(3) 0.6287(2) 0.0325(2)
C13 C 0.6211(3) 0.7265(2) 0.1339(2)
C14 C 0.5614(3) 0.6098(3) -0.0836(2)
H1 H 0.776(4) 1.033(4) 1.121(3)
H2 H 1.116(4) 0.815(4) 1.141(2)
H3 H 0.732(4) 0.458(4) -0.106(3)
H4 H 0.400(4) 0.668(4) -0.150(2)
H5 H 0.259(5) 0.700(3) 0.4410(10)
H6 H 0.178(5) 0.587(3) 0.347(3)
H7 H 0.802(2) 0.400(3) 0.298(3)
H8 H 0.688(4) 0.317(3) 0.319(3)
H9 H 0.670(2) 1.128(3) 0.710(3)
H10 H 0.779(4) 1.221(3) 0.698(3)
H13 H 0.6264 0.8417 0.6881
H14 H 0.5768 0.9921 0.8606
H15 H 0.9678 0.7259 0.8679
H16 H 0.8750 0.6751 0.3249
H17 H 0.9256 0.5136 0.1587
H18 H 0.5450 0.7802 0.1285
Ag1A Ag 0.47484(3) 0.43414(2) 0.619347(18)
Ag1A_2 Ag 0.47484(3) 0.43414(2) -0.380653(18)
Ag2A Ag 1.08826(3) 1.02660(2) 1.37492(2)
Ag2A_2 Ag 1.08826(3) 1.02660(2) 0.37492(2)
O1A O 0.3161(3) 0.4150(2) 0.4409(2)
O5A O 1.0653(3) 1.0358(2) 0.8206(2)
O7A O 1.1689(2) 1.0499(2) 0.5705(2)
O11A O 0.4136(3) 0.4757(2) 0.1741(2)
O16 O 0.2744(3) 0.8000(2) 0.6073(3)
H11 H 0.317(4) 0.877(2) 0.619(4)
H12 H 0.1700(10) 0.796(4) 0.600(4)
loop_
_geom_bond_atom_site_label_1
_geom_bond_atom_site_label_2
_geom_bond_site_symmetry_1
_geom_bond_site_symmetry_2
Ag1 O1 1_555 1_555
Ag2 O2 1_555 1_555
S1 O1 1_555 1_555
S2 O7 1_555 1_555
O1 Ag1A 1_555 1_555
O2 S1 1_555 1_555
O3 S1 1_555 1_555
O4 C4 1_555 1_555
O5 C7 1_555 1_555
O6 C7 1_555 1_555
O7 Ag2 1_555 1_555
O8 Ag1 1_555 1_555
O9 S2 1_555 1_555
O10 C11 1_555 1_555
O11 C14 1_555 1_555
O12 C14 1_555 1_555
O13 Ag1 1_555 1_555
O14 Ag1 1_555 1_555
O15 Ag2 1_555 1_555
O16 H11 1_555 1_555
C1 S1 1_555 1_555
C2 C1 1_555 1_555
C3 C2 1_555 1_555
C4 C3 1_555 1_555
C5 C4 1_555 1_555
C6 C1 1_555 1_555
C7 C5 1_555 1_555
C8 S2 1_555 1_555
C9 C8 1_555 1_555
C10 C9 1_555 1_555
C11 C10 1_555 1_555
C12 C11 1_555 1_555
C13 C8 1_555 1_555
C14 C12 1_555 1_555
H1 O4 1_555 1_555
H2 O6 1_555 1_555
H3 O10 1_555 1_555
H4 O12 1_555 1_555
H5 O13 1_555 1_555
H6 O13 1_555 1_555
H7 O14 1_555 1_555
H8 O14 1_555 1_555
H9 O15 1_555 1_555
H10 O15 1_555 1_555
H12 O16 1_555 1_555
H13 C2 1_555 1_555
H14 C3 1_555 1_555
H15 C6 1_555 1_555
H16 C9 1_555 1_555
H17 C10 1_555 1_555
H18 C13 1_555 1_555
Ag1A O1A 1_555 1_555
Ag1A_2 O11 1_555 1_555
Ag2A O5 1_555 1_555
Ag2A_2 O7 1_555 1_555
O1A Ag1 1_555 1_555
O5A Ag2 1_555 1_555
O7A Ag2 1_555 1_555
O11A Ag1 1_555 1_555
S2 O8 1_555 1_555
C5 C6 1_555 1_555
C12 C13 1_555 1_555
Ag2A_2 O7A 1_555 1_555

#END
