
#######################################################################
#
#                 Cambridge Crystallographic Data Centre
#                                CCDC 
#
#######################################################################
#
# If this CIF has been generated from an entry in the Cambridge 
# Structural Database, then it will include bibliographic, chemical, 
# crystal, experimental, refinement or atomic coordinate data resulting 
# from the CCDC's data processing and validation procedures.
#
#######################################################################

data_FETQOK
_symmetry_cell_setting           orthorhombic
_symmetry_space_group_name_H-M   'P n a 21'
_symmetry_Int_Tables_number      33
_space_group_name_Hall           'P 2c -2n'
loop_
_symmetry_equiv_pos_site_id
_symmetry_equiv_pos_as_xyz
1 x,y,z
2 -x,-y,1/2+z
3 1/2-x,1/2+y,1/2+z
4 1/2+x,1/2-y,z
_cell_length_a                   9.1896(2)
_cell_length_b                   9.6453(3)
_cell_length_c                   15.5482(4)
_cell_angle_alpha                90
_cell_angle_beta                 90
_cell_angle_gamma                90
_cell_volume                     1378.14
loop_
_atom_site_label
_atom_site_type_symbol
_atom_site_fract_x
_atom_site_fract_y
_atom_site_fract_z
Cu1 Cu 0.26556 0.46207 0.44325
O1 O 0.37700 0.25062 0.43871
O2 O 0.55804 0.09920 0.44413
O3 O 0.31660 0.74580 0.41927
O4 O 0.45604 0.56350 0.44908
N1 N 0.26360 0.47220 0.31450
N2 N 0.26700 0.49830 0.04750
N3 N 0.25240 0.47730 0.57010
N4 N 0.23050 0.50570 0.83720
C1 C 0.50850 0.22050 0.44330
C2 C 0.43610 0.69110 0.43159
C3 C 0.14150 0.49490 0.26942
C4 C 0.13680 0.50430 0.18133
C5 C 0.26530 0.48980 0.13390
C6 C 0.39400 0.46980 0.18120
C7 C 0.38840 0.46310 0.26867
C8 C 0.25320 0.36400 0.62157
C9 C 0.24590 0.36900 0.70885
C10 C 0.23590 0.49800 0.75070
C11 C 0.23240 0.61550 0.69780
C12 C 0.24060 0.60080 0.61041
H1 H 0.57630 0.29470 0.44630
H2 H 0.51980 0.74860 0.42770
H3 H 0.05290 0.50500 0.30030
H4 H 0.18560 0.51340 0.01910
H5 H 0.34940 0.48880 0.01930
H6 H 0.04690 0.52060 0.15280
H7 H 0.48450 0.46090 0.15230
H8 H 0.47710 0.45140 0.29920
H9 H 0.25920 0.27550 0.59500
H10 H 0.22440 0.58700 0.86260
H11 H 0.23300 0.42940 0.86820
H12 H 0.24750 0.28570 0.74140
H13 H 0.22430 0.70530 0.72250
H14 H 0.23780 0.68230 0.57610
O2C O 0.05804 0.40080 0.44413
Cu1C Cu 0.76556 0.03793 0.44325
loop_
_geom_bond_atom_site_label_1
_geom_bond_atom_site_label_2
_geom_bond_site_symmetry_1
_geom_bond_site_symmetry_2
Cu1 O1 1_555 1_555
O1 C1 1_555 1_555
O2 C1 1_555 1_555
O3 C2 1_555 1_555
O4 Cu1 1_555 1_555
N1 Cu1 1_555 1_555
N2 C5 1_555 1_555
N3 Cu1 1_555 1_555
N4 C10 1_555 1_555
C1 H1 1_555 1_555
C2 O4 1_555 1_555
C3 N1 1_555 1_555
C4 C3 1_555 1_555
C5 C4 1_555 1_555
C6 C5 1_555 1_555
C7 N1 1_555 1_555
C8 N3 1_555 1_555
C9 C8 1_555 1_555
C10 C9 1_555 1_555
C11 C10 1_555 1_555
C12 N3 1_555 1_555
H2 C2 1_555 1_555
H3 C3 1_555 1_555
H4 N2 1_555 1_555
H5 N2 1_555 1_555
H6 C4 1_555 1_555
H7 C6 1_555 1_555
H8 C7 1_555 1_555
H9 C8 1_555 1_555
H10 N4 1_555 1_555
H11 N4 1_555 1_555
H12 C9 1_555 1_555
H13 C11 1_555 1_555
H14 C12 1_555 1_555
O2C Cu1 1_555 1_555
Cu1C O2 1_555 1_555
C6 C7 1_555 1_555
C11 C12 1_555 1_555

#END
