
#######################################################################
#
#                 Cambridge Crystallographic Data Centre
#                                CCDC 
#
#######################################################################
#
# If this CIF has been generated from an entry in the Cambridge 
# Structural Database, then it will include bibliographic, chemical, 
# crystal, experimental, refinement or atomic coordinate data resulting 
# from the CCDC's data processing and validation procedures.
#
#######################################################################

data_FETRAZ
_symmetry_cell_setting           monoclinic
_symmetry_space_group_name_H-M   'P 21/n'
_symmetry_Int_Tables_number      14
_space_group_name_Hall           '-P 2yn'
loop_
_symmetry_equiv_pos_site_id
_symmetry_equiv_pos_as_xyz
1 x,y,z
2 1/2-x,1/2+y,1/2-z
3 -x,-y,-z
4 1/2+x,1/2-y,1/2+z
_cell_length_a                   7.823(4)
_cell_length_b                   9.518(5)
_cell_length_c                   33.157(16)
_cell_angle_alpha                90
_cell_angle_beta                 98.469(7)
_cell_angle_gamma                90
_cell_volume                     2441.93
loop_
_atom_site_label
_atom_site_type_symbol
_atom_site_fract_x
_atom_site_fract_y
_atom_site_fract_z
Br1 Br 1.12861(7) 0.15292(6) 0.172105(17)
Br2 Br 0.93492(7) 0.15775(6) 0.269189(17)
Br3 Br 0.79847(8) 0.16364(6) 0.377703(18)
Cu1 Cu 0.94544(8) 0.65561(7) 0.27381(2)
Cu2 Cu 1.14430(9) 0.29941(7) 0.23305(2)
Cu3 Cu 0.93578(9) 0.00504(7) 0.20593(2)
Cu4 Cu 0.76537(9) 0.01486(7) 0.32051(2)
S1 S 0.99945(17) 0.50906(14) 0.22100(4)
S2 S 1.07726(17) 0.80412(14) 0.23158(4)
S3 S 0.91337(17) 0.80591(14) 0.32594(4)
S4 S 0.85243(17) 0.50780(14) 0.32192(4)
N1 N 1.1679(6) 0.6549(5) 0.16819(14)
N2 N 0.7953(6) 0.6629(5) 0.38719(14)
C1 C 1.0935(7) 0.6564(6) 0.20052(16)
C2 C 1.2012(9) 0.5256(7) 0.14582(18)
C3 C 1.1396(9) 0.5358(7) 0.10050(18)
C4 C 1.2003(9) 0.6714(6) 0.08273(18)
C5 C 1.1735(8) 0.8027(7) 0.10744(18)
C6 C 1.2443(8) 0.7821(6) 0.15124(17)
C7 C 1.2041(9) 0.4061(7) 0.07983(19)
C8 C 1.2609(9) 0.9282(6) 0.09054(19)
C9 C 0.8431(7) 0.6619(6) 0.35069(16)
C10 C 0.7689(8) 0.7967(6) 0.40830(17)
C11 C 0.8425(9) 0.7902(7) 0.45332(18)
C12 C 0.7725(9) 0.6608(7) 0.47284(19)
C13 C 0.8073(8) 0.5267(6) 0.45069(17)
C14 C 0.7305(8) 0.5371(6) 0.40611(16)
C15 C 0.7971(9) 0.9254(7) 0.47353(19)
C16 C 0.7328(9) 0.3971(7) 0.46964(19)
H1 H 1.1424 0.4456 0.1570
H2 H 1.3269 0.5061 0.1503
H3 H 1.0104 0.5348 0.0959
H4 H 1.1377 0.6833 0.0548
H5 H 1.3249 0.6625 0.0807
H6 H 1.0467 0.8219 0.1051
H7 H 1.2188 0.8660 0.1670
H8 H 1.3714 0.7714 0.1541
H9 H 1.1639 0.3209 0.0921
H10 H 1.3307 0.4066 0.0835
H11 H 1.1589 0.4078 0.0507
H12 H 1.3863 0.9143 0.0949
H13 H 1.2326 1.0139 0.1046
H14 H 1.2198 0.9372 0.0613
H15 H 0.6437 0.8174 0.4054
H16 H 0.8254 0.8740 0.3953
H17 H 0.9711 0.7824 0.4560
H18 H 0.6464 0.6714 0.4724
H19 H 0.8272 0.6540 0.5017
H20 H 0.9352 0.5144 0.4526
H21 H 0.7611 0.4520 0.3915
H22 H 0.6030 0.5418 0.4037
H23 H 0.6713 0.9369 0.4697
H24 H 0.8495 1.0051 0.4612
H25 H 0.8412 0.9214 0.5028
H26 H 0.7422 0.3150 0.4523
H27 H 0.6110 0.4138 0.4719
H28 H 0.7977 0.3799 0.4968
Br2A Br 0.56508(7) 0.65775(6) 0.230811(17)
Cu1A Cu 0.55456(8) 0.15561(7) 0.22619(2)
Cu2A Cu 1.35570(9) 0.79941(7) 0.26695(2)
Cu3_2 Cu 0.93578(9) 1.00504(7) 0.20593(2)
Cu3A Cu 0.56422(9) 0.50504(7) 0.29407(2)
Cu4_2 Cu 0.76537(9) 1.01486(7) 0.32051(2)
Cu4A Cu 0.73463(9) 0.51486(7) 0.17949(2)
S1A S 0.50055(17) 0.00906(14) 0.27900(4)
S2_2 S 1.07726(17) -0.19588(14) 0.23158(4)
S2A S 1.42274(17) 0.30412(14) 0.26842(4)
S3_2 S 0.91337(17) -0.19409(14) 0.32594(4)
S4A S 0.64757(17) 0.00780(14) 0.17808(4)
loop_
_geom_bond_atom_site_label_1
_geom_bond_atom_site_label_2
_geom_bond_site_symmetry_1
_geom_bond_site_symmetry_2
Br1 Cu2 1_555 1_555
Br2 Cu2 1_555 1_555
Br3 Cu4 1_555 1_555
Cu1 S1 1_555 1_555
Cu2 S1 1_555 1_555
Cu3 Br1 1_555 1_555
Cu4 Br2 1_555 1_555
S1 C1 1_555 1_555
S2 Cu1 1_555 1_555
S3 Cu1 1_555 1_555
S4 Cu1 1_555 1_555
N1 C1 1_555 1_555
N2 C9 1_555 1_555
C1 S2 1_555 1_555
C2 N1 1_555 1_555
C3 C2 1_555 1_555
C4 C3 1_555 1_555
C5 C4 1_555 1_555
C6 N1 1_555 1_555
C7 C3 1_555 1_555
C8 C5 1_555 1_555
C9 S3 1_555 1_555
C10 N2 1_555 1_555
C11 C10 1_555 1_555
C12 C11 1_555 1_555
C13 C12 1_555 1_555
C14 N2 1_555 1_555
C15 C11 1_555 1_555
C16 C13 1_555 1_555
H1 C2 1_555 1_555
H2 C2 1_555 1_555
H3 C3 1_555 1_555
H4 C4 1_555 1_555
H5 C4 1_555 1_555
H6 C5 1_555 1_555
H7 C6 1_555 1_555
H8 C6 1_555 1_555
H9 C7 1_555 1_555
H10 C7 1_555 1_555
H11 C7 1_555 1_555
H12 C8 1_555 1_555
H13 C8 1_555 1_555
H14 C8 1_555 1_555
H15 C10 1_555 1_555
H16 C10 1_555 1_555
H17 C11 1_555 1_555
H18 C12 1_555 1_555
H19 C12 1_555 1_555
H20 C13 1_555 1_555
H21 C14 1_555 1_555
H22 C14 1_555 1_555
H23 C15 1_555 1_555
H24 C15 1_555 1_555
H25 C15 1_555 1_555
H26 C16 1_555 1_555
H27 C16 1_555 1_555
H28 C16 1_555 1_555
Br2A Cu1 1_555 1_555
Cu1A Br2 1_555 1_555
Cu2A S2 1_555 1_555
Cu3_2 S2 1_555 1_555
Cu3A S4 1_555 1_555
Cu4_2 S3 1_555 1_555
Cu4A S1 1_555 1_555
S1A Cu4 1_555 1_555
S2_2 Cu3 1_555 1_555
S2A Cu2 1_555 1_555
S3_2 Cu4 1_555 1_555
S4A Cu3 1_555 1_555
Br2 Cu3 1_555 1_555
S4 C9 1_555 1_555
C5 C6 1_555 1_555
C13 C14 1_555 1_555
Br2A Cu3A 1_555 1_555
Br2A Cu4A 1_555 1_555
Cu1A S1A 1_555 1_555
Cu1A S4A 1_555 1_555

#END
