
#######################################################################
#
#                 Cambridge Crystallographic Data Centre
#                                CCDC 
#
#######################################################################
#
# If this CIF has been generated from an entry in the Cambridge 
# Structural Database, then it will include bibliographic, chemical, 
# crystal, experimental, refinement or atomic coordinate data resulting 
# from the CCDC's data processing and validation procedures.
#
#######################################################################

data_FEVMAV
_symmetry_cell_setting           monoclinic
_symmetry_space_group_name_H-M   'P 21/c'
_symmetry_Int_Tables_number      14
_space_group_name_Hall           '-P 2ybc'
loop_
_symmetry_equiv_pos_site_id
_symmetry_equiv_pos_as_xyz
1 x,y,z
2 -x,1/2+y,1/2-z
3 -x,-y,-z
4 x,1/2-y,1/2+z
_cell_length_a                   10.053(2)
_cell_length_b                   30.124(6)
_cell_length_c                   17.080(3)
_cell_angle_alpha                90
_cell_angle_beta                 103.28(3)
_cell_angle_gamma                90
_cell_volume                     5034.13
loop_
_atom_site_label
_atom_site_type_symbol
_atom_site_fract_x
_atom_site_fract_y
_atom_site_fract_z
Co1 Co 0.12429(6) 0.058303(19) 0.15326(4)
Co2 Co 0.87163(6) 0.058930(19) 0.31393(4)
O1 O 0.2008(3) 0.05775(10) 0.0378(2)
O2 O 0.3363(3) 0.05991(11) 0.1574(2)
O3 O 0.8379(3) 0.04757(10) 0.19355(19)
O4 O 0.9277(3) 0.05661(9) 0.08757(18)
O5 O 0.0678(3) 0.06189(9) 0.38028(18)
O6 O 0.1591(3) 0.06365(10) 0.2740(2)
O7 O 0.7947(3) 0.06350(11) 0.4272(2)
O8 O 0.6584(3) 0.06226(11) 0.3081(2)
N1 N 0.1131(4) 0.12925(12) 0.1456(2)
N2 N 0.0404(5) 0.28789(13) 0.0541(3)
N3 N 0.0432(5) 0.33333(13) 0.0563(3)
N4 N 0.1221(4) 0.48813(11) 0.1693(2)
N5 N 0.1268(4) -0.01248(12) 0.1661(2)
N6 N 0.1812(4) -0.16536(13) 0.2924(2)
N7 N 0.1782(4) -0.21056(13) 0.2968(2)
N8 N 0.1228(4) -0.36984(11) 0.2022(2)
C1 C 0.3186(4) 0.05861(14) 0.0831(3)
C2 C 0.4422(4) 0.05802(14) 0.0466(3)
C3 C 0.4283(4) 0.05826(14) -0.0354(3)
H1 H 0.3391 0.0598 -0.0706
C4 C 0.5430(5) 0.05585(15) -0.0684(3)
H2 H 0.5314 0.0568 -0.1259
C5 C 0.6718(5) 0.05471(15) -0.0181(3)
H3 H 0.7516 0.0531 -0.0400
C6 C 0.6873(4) 0.05451(13) 0.0655(3)
C7 C 0.5727(4) 0.05644(13) 0.0979(3)
H4 H 0.5831 0.0573 0.1553
C8 C 0.8272(4) 0.05270(12) 0.1206(3)
C9 C 0.1675(4) 0.06254(12) 0.3476(3)
C10 C 0.3094(4) 0.06240(13) 0.4030(3)
C11 C 0.3263(5) 0.06129(16) 0.4859(3)
H5 H 0.2469 0.0624 0.5083
C12 C 0.4562(5) 0.06126(19) 0.5360(3)
H6 H 0.4666 0.0596 0.5934
C13 C 0.5697(5) 0.06239(18) 0.5023(3)
H7 H 0.6597 0.0621 0.5368
C14 C 0.5545(4) 0.06284(14) 0.4206(3)
C15 C 0.4240(4) 0.06278(13) 0.3700(3)
H8 H 0.4152 0.0629 0.3127
C16 C 0.6766(5) 0.06276(14) 0.3831(3)
C17 C 0.1752(5) 0.15544(15) 0.2056(3)
H9 H 0.2270 0.1411 0.2532
C18 C 0.1725(5) 0.20130(15) 0.2024(3)
H10 H 0.2194 0.2188 0.2473
C19 C 0.1012(5) 0.22151(14) 0.1326(3)
C20 C 0.0375(5) 0.19446(15) 0.0702(3)
H11 H -0.0172 0.2070 0.0216
C21 C 0.0453(5) 0.14937(15) 0.0783(3)
H12 H -0.0024 0.1304 0.0358
C22 C 0.0949(5) 0.26988(15) 0.1223(3)
C23 C 0.1008(5) 0.34842(15) 0.1272(3)
C24 C 0.1113(5) 0.39653(15) 0.1437(3)
C25 C 0.2063(5) 0.41493(16) 0.2070(3)
H13 H 0.2690 0.3963 0.2435
C26 C 0.2062(5) 0.46032(16) 0.2176(3)
H14 H 0.2690 0.4730 0.2630
C27 C 0.0342(5) 0.46957(15) 0.1077(3)
H15 H -0.0258 0.4891 0.0715
C28 C 0.0233(5) 0.42501(15) 0.0927(3)
H16 H -0.0459 0.4133 0.0492
C29 C 0.0339(5) -0.03985(15) 0.1216(3)
H17 H -0.0318 -0.0274 0.0772
C30 C 0.0275(5) -0.08455(15) 0.1366(3)
H18 H -0.0422 -0.1026 0.1037
C31 C 0.1225(5) -0.10299(15) 0.1996(3)
C32 C 0.2209(5) -0.07530(16) 0.2452(3)
H19 H 0.2868 -0.0870 0.2903
C33 C 0.2199(5) -0.03095(15) 0.2269(3)
H20 H 0.2926 -0.0124 0.2556
C34 C 0.1246(5) -0.15060(15) 0.2202(3)
C35 C 0.1231(5) -0.22967(15) 0.2283(3)
C36 C 0.1184(5) -0.27810(14) 0.2179(3)
C37 C 0.0634(5) -0.29852(15) 0.1455(3)
H21 H 0.0221 -0.2814 0.0987
C38 C 0.0670(5) -0.34427(15) 0.1403(3)
H22 H 0.0284 -0.3579 0.0892
C39 C 0.1779(5) -0.34989(15) 0.2716(3)
H23 H 0.2233 -0.3676 0.3166
C40 C 0.1781(5) -0.30494(15) 0.2821(3)
H24 H 0.2190 -0.2918 0.3333
S1 S 0.15698(12) 0.30770(4) 0.19755(7)
S2 S 0.06394(14) -0.19196(4) 0.15175(8)
Co1_2 Co 1.12429(6) 0.058303(19) 0.15326(4)
Co2_2 Co -0.12837(6) 0.058930(19) 0.31393(4)
Co2A Co 0.12837(6) 0.558930(19) 0.18607(4)
Co2A_2 Co 0.12837(6) -0.441070(19) 0.18607(4)
O4_2 O -0.0723(3) 0.05661(9) 0.08757(18)
O5_2 O 1.0678(3) 0.06189(9) 0.38028(18)
N4A N 0.8779(4) -0.01187(11) 0.3307(2)
N8A N 0.8772(4) 0.13016(11) 0.2978(2)
N9 N 0.2803(6) 0.2586(2) -0.1104(4)
N10 N 0.5128(5) 0.33432(16) 0.2412(3)
N11 N 0.4669(5) 0.33159(16) 0.1606(3)
N12 N 0.6966(6) 0.2828(2) 0.5273(3)
C41 C 0.3126(9) 0.2998(3) -0.0856(5)
H25 H 0.2919 0.3219 -0.1274
C42 C 0.3674(7) 0.3118(2) -0.0071(4)
H26 H 0.3881 0.3426 0.0044
C43 C 0.3962(6) 0.2791(2) 0.0502(4)
C44 C 0.3627(6) 0.2363(2) 0.0256(4)
H27 H 0.3812 0.2121 0.0633
C45 C 0.3074(6) 0.2281(2) -0.0551(4)
H28 H 0.2837 0.1982 -0.0724
C46 C 0.4537(5) 0.29077(19) 0.1350(3)
C47 C 0.5368(5) 0.29568(18) 0.2751(3)
C48 C 0.5903(5) 0.28999(19) 0.3620(3)
C49 C 0.6061(6) 0.3269(2) 0.4114(4)
H29 H 0.5803 0.3557 0.3886
C50 C 0.6579(8) 0.3214(2) 0.4920(5)
H30 H 0.6647 0.3472 0.5259
C51 C 0.6822(6) 0.2479(2) 0.4794(4)
H31 H 0.7099 0.2200 0.5051
C52 C 0.6303(6) 0.24988(19) 0.3980(4)
H32 H 0.6207 0.2229 0.3670
S3 S 0.49995(14) 0.25176(5) 0.20952(9)
O9 O 0.4978(6) -0.8598(2) 0.2300(3)
loop_
_geom_bond_atom_site_label_1
_geom_bond_atom_site_label_2
_geom_bond_site_symmetry_1
_geom_bond_site_symmetry_2
Co1 O1 1_555 1_555
Co2 O3 1_555 1_555
O1 C1 1_555 1_555
O2 Co1 1_555 1_555
O3 C8 1_555 1_555
O4 C8 1_555 1_555
O5 C9 1_555 1_555
O6 Co1 1_555 1_555
O7 Co2 1_555 1_555
O8 Co2 1_555 1_555
N1 Co1 1_555 1_555
N2 N3 1_555 1_555
N3 C23 1_555 1_555
N4 C26 1_555 1_555
N5 Co1 1_555 1_555
N6 N7 1_555 1_555
N7 C35 1_555 1_555
N8 C38 1_555 1_555
N9 C41 1_555 1_555
N10 N11 1_555 1_555
N11 C46 1_555 1_555
N12 C50 1_555 1_555
C1 O2 1_555 1_555
C2 C1 1_555 1_555
C3 C2 1_555 1_555
H1 C3 1_555 1_555
C4 C3 1_555 1_555
H2 C4 1_555 1_555
C5 C4 1_555 1_555
H3 C5 1_555 1_555
C6 C5 1_555 1_555
C7 C2 1_555 1_555
H4 C7 1_555 1_555
C8 C6 1_555 1_555
C9 O6 1_555 1_555
C10 C9 1_555 1_555
C11 C10 1_555 1_555
H5 C11 1_555 1_555
C12 C11 1_555 1_555
H6 C12 1_555 1_555
C13 C12 1_555 1_555
H7 C13 1_555 1_555
C14 C13 1_555 1_555
C15 C10 1_555 1_555
H8 C15 1_555 1_555
C16 O7 1_555 1_555
C17 N1 1_555 1_555
H9 C17 1_555 1_555
C18 C17 1_555 1_555
H10 C18 1_555 1_555
C19 C18 1_555 1_555
C20 C19 1_555 1_555
H11 C20 1_555 1_555
C21 N1 1_555 1_555
H12 C21 1_555 1_555
C22 N2 1_555 1_555
C23 C24 1_555 1_555
C24 C25 1_555 1_555
C25 H13 1_555 1_555
C26 C25 1_555 1_555
H14 C26 1_555 1_555
C27 N4 1_555 1_555
H15 C27 1_555 1_555
C28 C24 1_555 1_555
H16 C28 1_555 1_555
C29 N5 1_555 1_555
H17 C29 1_555 1_555
C30 C29 1_555 1_555
H18 C30 1_555 1_555
C31 C30 1_555 1_555
C32 C31 1_555 1_555
H19 C32 1_555 1_555
C33 N5 1_555 1_555
H20 C33 1_555 1_555
C34 N6 1_555 1_555
C35 C36 1_555 1_555
C36 C37 1_555 1_555
C37 H21 1_555 1_555
C38 C37 1_555 1_555
H22 C38 1_555 1_555
C39 N8 1_555 1_555
H23 C39 1_555 1_555
C40 C36 1_555 1_555
H24 C40 1_555 1_555
C41 H25 1_555 1_555
C42 C41 1_555 1_555
H26 C42 1_555 1_555
C43 C42 1_555 1_555
C44 C43 1_555 1_555
H27 C44 1_555 1_555
C45 N9 1_555 1_555
H28 C45 1_555 1_555
C46 C43 1_555 1_555
C47 N10 1_555 1_555
C48 C47 1_555 1_555
C49 C48 1_555 1_555
H29 C49 1_555 1_555
C50 C49 1_555 1_555
H30 C50 1_555 1_555
C51 N12 1_555 1_555
H31 C51 1_555 1_555
C52 C48 1_555 1_555
H32 C52 1_555 1_555
S1 C22 1_555 1_555
S2 C34 1_555 1_555
S3 C46 1_555 1_555
Co1_2 O4 1_555 1_555
Co2_2 O5 1_555 1_555
Co2A N4 1_555 1_555
Co2A_2 N8 1_555 1_555
O4_2 Co1 1_555 1_555
O5_2 Co2 1_555 1_555
N4A Co2 1_555 1_555
N8A Co2 1_555 1_555
O8 C16 1_555 1_555
C6 C7 1_555 1_555
C14 C15 1_555 1_555
C14 C16 1_555 1_555
C19 C22 1_555 1_555
C20 C21 1_555 1_555
C23 S1 1_555 1_555
C27 C28 1_555 1_555
C31 C34 1_555 1_555
C32 C33 1_555 1_555
C35 S2 1_555 1_555
C39 C40 1_555 1_555
C44 C45 1_555 1_555
C47 S3 1_555 1_555
C51 C52 1_555 1_555

#END
