
#######################################################################
#
#                 Cambridge Crystallographic Data Centre
#                                CCDC 
#
#######################################################################
#
# If this CIF has been generated from an entry in the Cambridge 
# Structural Database, then it will include bibliographic, chemical, 
# crystal, experimental, refinement or atomic coordinate data resulting 
# from the CCDC's data processing and validation procedures.
#
#######################################################################

data_FEVPED
_symmetry_cell_setting           triclinic
_symmetry_space_group_name_H-M   'P -1'
_symmetry_Int_Tables_number      2
_space_group_name_Hall           '-P 1'
loop_
_symmetry_equiv_pos_site_id
_symmetry_equiv_pos_as_xyz
1 x,y,z
2 -x,-y,-z
_cell_length_a                   12.60(3)
_cell_length_b                   12.647(14)
_cell_length_c                   12.733(13)
_cell_angle_alpha                106.08(3)
_cell_angle_beta                 105.57(5)
_cell_angle_gamma                104.49(5)
_cell_volume                     1758.86
loop_
_atom_site_label
_atom_site_type_symbol
_atom_site_fract_x
_atom_site_fract_y
_atom_site_fract_z
O1 O 0.3587(5) -0.6419(5) 0.7266(4)
O2 O 1.6409(4) 0.2730(4) 1.6410(5)
O3 O 0.7264(4) -0.6420(4) 0.3590(5)
O4 O 0.7949(7) -0.3536(8) 0.5197(10)
O5 O 0.7945(7) -0.4865(11) 0.6451(9)
O6 O 1.3509(8) 0.2023(8) 1.4835(11)
O7 O 0.6477(8) -0.4827(11) 0.7967(8)
O8 O 1.4852(11) 0.2041(8) 1.3533(9)
O9 O 0.5191(11) -0.3540(10) 0.7975(8)
Cl1 Cl 0.4057(3) -0.4058(3) 0.9993(5)
Cl2 Cl 1.5941(3) -0.0014(5) 1.4051(3)
Cl3 Cl 1.0026(5) -0.5929(3) 0.5942(3)
Cd1 Cd 0.52088(10) -0.47903(10) 0.89806(12)
Cd2 Cd 1.47919(10) 0.10180(12) 1.47893(11)
Cd3 Cd 0.89833(11) -0.47909(11) 0.52094(11)
C1 C 1.1014(6) -0.2329(6) 0.7671(7)
C2 C 1.2909(6) -0.1045(6) 0.8161(7)
H1 H 1.3389 -0.1174 0.7669
C3 C 1.2901(6) -0.1836(6) 0.8957(6)
H2 H 1.3379 -0.2339 0.8836
C4 C 1.3669(6) 0.0156(6) 1.0146(7)
C5 C 1.1280(6) -0.3558(6) 0.8827(7)
H3 H 1.1907 -0.3892 0.8927
H4 H 1.0597 -0.4137 0.8146
C6 C 1.3580(6) -0.1274(7) 1.1156(7)
H5 H 1.4160 -0.0587 1.1833
H6 H 1.3918 -0.1897 1.1049
C7 C 0.9852(6) -0.3664(6) 0.9856(6)
C8 C 1.1820(6) -0.2901(6) 1.1062(6)
H7 H 1.2317 -0.3385 1.1176
C9 C 1.1040(6) -0.2914(6) 1.1839(7)
H8 H 1.1169 -0.3395 1.2324
C10 C 1.2333(7) -0.0993(6) 1.2321(7)
C11 C 0.8843(6) -0.3565(6) 1.1254(7)
H9 H 0.8933 -0.3921 1.1851
H10 H 0.8171 -0.4129 1.0554
C12 C 1.1156(6) -0.1284(6) 1.3574(6)
H11 H 1.1032 -0.1915 1.3883
H12 H 1.1834 -0.0611 1.4170
C13 C 0.7670(6) -0.2334(6) 1.0999(6)
C14 C 0.8955(5) -0.1829(6) 1.2912(6)
H13 H 0.8848 -0.2311 1.3396
C15 C 0.8166(6) -0.1048(6) 1.2902(7)
H14 H 0.7669 -0.1158 1.3375
C16 C 1.0154(5) 0.0153(6) 1.3660(6)
C17 C 1.3576(6) 0.1168(7) 0.8726(7)
H15 H 1.4152 0.1848 0.9413
H16 H 1.3912 0.1054 0.8110
C18 C 1.1284(7) -0.1151(7) 0.6417(6)
H17 H 1.1915 -0.1045 0.6102
H18 H 1.0603 -0.1824 0.5824
N1 N 1.1679(5) -0.1419(6) 0.7484(5)
N2 N 1.1670(5) -0.2521(5) 0.8583(6)
N3 N 1.3379(5) 0.0128(5) 0.9040(6)
N4 N 1.3388(5) -0.0968(5) 1.0134(5)
N5 N 1.0963(5) -0.3380(5) 0.9853(5)
N6 N 0.9860(5) -0.3386(5) 1.0969(5)
N7 N 1.2530(5) -0.1670(5) 1.1419(6)
N8 N 1.1417(5) -0.1678(5) 1.2534(5)
N9 N 0.8577(5) -0.2532(5) 1.1681(5)
N10 N 0.7481(5) -0.1415(5) 1.1680(5)
N11 N 1.0149(5) -0.0951(5) 1.3377(5)
N12 N 0.9028(5) 0.0136(5) 1.3383(6)
O10 O 0.9955(5) -0.2897(5) 0.7109(5)
O11 O 0.8957(5) -0.4154(5) 0.8966(5)
O12 O 0.7108(5) -0.2894(5) 0.9977(5)
O13 O 1.4132(5) 0.1034(4) 1.1042(5)
O14 O 1.2895(5) 0.0046(5) 1.2899(6)
O15 O 1.1042(5) 0.1041(5) 1.4152(6)
C1A C 0.8986(6) 0.2329(6) 1.2329(7)
C2A C 0.7091(6) 0.1045(6) 1.1839(7)
H1A H 0.6611 0.1174 1.2331
C3A C 0.7099(6) 0.1836(6) 1.1043(6)
H2A H 0.6621 0.2339 1.1164
C4A C 0.6331(6) -0.0156(6) 0.9854(7)
C5A C 0.8720(6) 0.3558(6) 1.1173(7)
H3A H 0.8093 0.3892 1.1073
H4A H 0.9403 0.4137 1.1854
C6A C 0.6420(6) 0.1274(7) 0.8844(7)
H5A H 0.5840 0.0587 0.8167
H6A H 0.6082 0.1897 0.8951
C7A C 1.0148(6) 0.3664(6) 1.0144(6)
C8A C 0.8180(6) 0.2901(6) 0.8938(6)
H7A H 0.7683 0.3385 0.8824
C9A C 0.8960(6) 0.2914(6) 0.8161(7)
H8A H 0.8831 0.3395 0.7676
C10A C 0.7667(7) 0.0993(6) 0.7679(7)
C11A C 1.1157(6) 0.3565(6) 0.8746(7)
H9A H 1.1067 0.3921 0.8149
H10A H 1.1829 0.4129 0.9446
C12A C 0.8844(6) 0.1284(6) 0.6426(6)
H11A H 0.8968 0.1915 0.6117
H12A H 0.8166 0.0611 0.5830
C13A C 1.2330(6) 0.2334(6) 0.9001(6)
C14A C 1.1045(5) 0.1829(6) 0.7088(6)
H13A H 1.1152 0.2311 0.6604
C15A C 1.1834(6) 0.1048(6) 0.7098(7)
H14A H 1.2331 0.1158 0.6625
C16A C 0.9846(5) -0.0153(6) 0.6340(6)
C17A C 0.6424(6) -0.1168(7) 1.1274(7)
H15A H 0.5848 -0.1848 1.0587
H16A H 0.6088 -0.1054 1.1890
C18A C 0.8716(7) 0.1151(7) 1.3583(6)
H17A H 0.8085 0.1045 1.3898
H18A H 0.9397 0.1824 1.4176
N1A N 0.8321(5) 0.1419(6) 1.2516(5)
N2A N 0.8330(5) 0.2521(5) 1.1417(6)
N3A N 0.6621(5) -0.0128(5) 1.0960(6)
N4A N 0.6612(5) 0.0968(5) 0.9866(5)
N5A N 0.9037(5) 0.3380(5) 1.0147(5)
N6A N 1.0140(5) 0.3386(5) 0.9031(5)
N7A N 0.7470(5) 0.1670(5) 0.8581(6)
N8A N 0.8583(5) 0.1678(5) 0.7466(5)
N9A N 1.1423(5) 0.2532(5) 0.8319(5)
N10A N 1.2519(5) 0.1415(5) 0.8320(5)
N11A N 0.9851(5) 0.0951(5) 0.6623(5)
N12A N 1.0972(5) -0.0136(5) 0.6617(6)
O10A O 1.0045(5) 0.2897(5) 1.2891(5)
O11A O 1.1043(5) 0.4154(5) 1.1034(5)
O12A O 1.2892(5) 0.2894(5) 1.0023(5)
O13A O 0.5868(5) -0.1034(4) 0.8958(5)
O14A O 0.7105(5) -0.0046(5) 0.7101(6)
O15A O 0.8958(5) -0.1041(5) 0.5848(6)
O1A O 0.6413(5) -0.3581(5) 1.2734(4)
O7A O 0.3523(8) -0.5173(11) 1.2033(8)
O9A O 0.4809(11) -0.6460(10) 1.2025(8)
Cl1A Cl 0.5943(3) -0.5942(3) 1.0007(5)
Cd1A Cd 0.47912(10) -0.52097(10) 1.10194(12)
O2A O 1.3591(4) -0.2730(4) 1.3590(5)
O6A O 1.6491(8) -0.2023(8) 1.5165(11)
O8A O 1.5148(11) -0.2041(8) 1.6467(9)
Cl2A Cl 1.4059(3) 0.0014(5) 1.5949(3)
Cd2A Cd 1.52081(10) -0.10180(12) 1.52107(11)
O3A O 1.2736(4) -0.3580(4) 0.6410(5)
O4A O 1.2051(7) -0.6464(8) 0.4803(10)
O5A O 1.2055(7) -0.5135(11) 0.3549(9)
Cl3A Cl 0.9974(5) -0.4071(3) 0.4058(3)
Cd3A Cd 1.10167(11) -0.52091(11) 0.47906(11)
Cd1A_2 Cd 1.47912(10) 0.47903(10) 1.10194(12)
Cd2A_2 Cd 0.52081(10) -0.10180(12) 0.52107(11)
Cd3A_2 Cd 1.10167(11) 0.47909(11) 1.47906(11)
O10A_2 O 1.0045(5) -0.7103(5) 0.2891(5)
O12A_2 O 0.2892(5) -0.7106(5) 1.0023(5)
O14A_2 O 1.7105(5) -0.0046(5) 1.7101(6)
loop_
_geom_bond_atom_site_label_1
_geom_bond_atom_site_label_2
_geom_bond_site_symmetry_1
_geom_bond_site_symmetry_2
O1 Cd1 1_555 1_555
O2 Cd2 1_555 1_555
O3 Cd3 1_555 1_555
O4 Cd3 1_555 1_555
O5 Cd3 1_555 1_555
O6 Cd2 1_555 1_555
O7 Cd1 1_555 1_555
O8 Cd2 1_555 1_555
O9 Cd1 1_555 1_555
Cl1 Cd1 1_555 1_555
Cl2 Cd2 1_555 1_555
Cl3 Cd3 1_555 1_555
Cd1 O12 1_555 1_555
Cd2 O14 1_555 1_555
Cd3 O10 1_555 1_555
C1 N1 1_555 1_555
C2 H1 1_555 1_555
C3 C2 1_555 1_555
H2 C3 1_555 1_555
C4 N3 1_555 1_555
C5 H3 1_555 1_555
H4 C5 1_555 1_555
C6 H5 1_555 1_555
H6 C6 1_555 1_555
C7 N5 1_555 1_555
C8 H7 1_555 1_555
C9 C8 1_555 1_555
H8 C9 1_555 1_555
C10 N7 1_555 1_555
C11 H9 1_555 1_555
H10 C11 1_555 1_555
C12 H11 1_555 1_555
H12 C12 1_555 1_555
C13 N9 1_555 1_555
C14 H13 1_555 1_555
C15 C14 1_555 1_555
H14 C15 1_555 1_555
C16 N11 1_555 1_555
C17 H15 1_555 1_555
H16 C17 1_555 1_555
C18 H17 1_555 1_555
H18 C18 1_555 1_555
N1 C2 1_555 1_555
N2 C1 1_555 1_555
N3 C2 1_555 1_555
N4 C3 1_555 1_555
N5 C5 1_555 1_555
N6 C7 1_555 1_555
N7 C6 1_555 1_555
N8 C9 1_555 1_555
N9 C11 1_555 1_555
N10 C13 1_555 1_555
N11 C12 1_555 1_555
N12 C15 1_555 1_555
O10 C1 1_555 1_555
O11 C7 1_555 1_555
O12 C13 1_555 1_555
O13 C4 1_555 1_555
O14 C10 1_555 1_555
O15 C16 1_555 1_555
C1A N1A 1_555 1_555
C2A H1A 1_555 1_555
C3A C2A 1_555 1_555
H2A C3A 1_555 1_555
C4A N3A 1_555 1_555
C5A H3A 1_555 1_555
H4A C5A 1_555 1_555
C6A H5A 1_555 1_555
H6A C6A 1_555 1_555
C7A N5A 1_555 1_555
C8A H7A 1_555 1_555
C9A C8A 1_555 1_555
H8A C9A 1_555 1_555
C10A N7A 1_555 1_555
C11A H9A 1_555 1_555
H10A C11A 1_555 1_555
C12A H11A 1_555 1_555
H12A C12A 1_555 1_555
C13A N9A 1_555 1_555
C14A H13A 1_555 1_555
C15A C14A 1_555 1_555
H14A C15A 1_555 1_555
C16A N11A 1_555 1_555
C17A N10 1_555 1_555
H15A C17A 1_555 1_555
H16A C17A 1_555 1_555
C18A N12 1_555 1_555
H17A C18A 1_555 1_555
H18A C18A 1_555 1_555
N1A C2A 1_555 1_555
N2A C1A 1_555 1_555
N3A C2A 1_555 1_555
N4A C3A 1_555 1_555
N5A C5A 1_555 1_555
N6A C7A 1_555 1_555
N7A C6A 1_555 1_555
N8A C9A 1_555 1_555
N9A C11A 1_555 1_555
N10A C17 1_555 1_555
N11A C12A 1_555 1_555
N12A C18 1_555 1_555
O10A C1A 1_555 1_555
O11A C7A 1_555 1_555
O12A C13A 1_555 1_555
O13A C4A 1_555 1_555
O14A C10A 1_555 1_555
O15A C16A 1_555 1_555
O1A Cd1A 1_555 1_555
O7A Cd1A 1_555 1_555
O9A Cd1A 1_555 1_555
Cl1A Cd1 1_555 1_555
Cd1A Cl1 1_555 1_555
O2A Cd2A 1_555 1_555
O6A Cd2A 1_555 1_555
O8A Cd2A 1_555 1_555
Cl2A Cd2 1_555 1_555
Cd2A Cl2 1_555 1_555
O3A Cd3A 1_555 1_555
O4A Cd3A 1_555 1_555
O5A Cd3A 1_555 1_555
Cl3A Cd3 1_555 1_555
Cd3A Cl3 1_555 1_555
Cd1A_2 O12A 1_555 1_555
Cd2A_2 O14A 1_555 1_555
Cd3A_2 O10A 1_555 1_555
O10A_2 Cd3A 1_555 1_555
O12A_2 Cd1A 1_555 1_555
O14A_2 Cd2A 1_555 1_555
C3 N2 1_555 1_555
C4 N4 1_555 1_555
C5 N2 1_555 1_555
C6 N4 1_555 1_555
C8 N5 1_555 1_555
C8 N7 1_555 1_555
C9 N6 1_555 1_555
C10 N8 1_555 1_555
C11 N6 1_555 1_555
C12 N8 1_555 1_555
C14 N9 1_555 1_555
C14 N11 1_555 1_555
C15 N10 1_555 1_555
C16 N12 1_555 1_555
C17 N3 1_555 1_555
C18 N1 1_555 1_555
C3A N2A 1_555 1_555
C4A N4A 1_555 1_555
C5A N2A 1_555 1_555
C6A N4A 1_555 1_555
C8A N5A 1_555 1_555
C8A N7A 1_555 1_555
C9A N6A 1_555 1_555
C10A N8A 1_555 1_555
C11A N6A 1_555 1_555
C12A N8A 1_555 1_555
C13A N10A 1_555 1_555
C14A N9A 1_555 1_555
C14A N11A 1_555 1_555
C15A N10A 1_555 1_555
C15A N12A 1_555 1_555
C16A N12A 1_555 1_555
C17A N3A 1_555 1_555
C18A N1A 1_555 1_555
Cl1A Cd1A 1_555 1_555
Cl2A Cd2A 1_555 1_555
Cl3A Cd3A 1_555 1_555

#END
