
#######################################################################
#
#                 Cambridge Crystallographic Data Centre
#                                CCDC 
#
#######################################################################
#
# If this CIF has been generated from an entry in the Cambridge 
# Structural Database, then it will include bibliographic, chemical, 
# crystal, experimental, refinement or atomic coordinate data resulting 
# from the CCDC's data processing and validation procedures.
#
#######################################################################

data_FEVQEE
_symmetry_cell_setting           monoclinic
_symmetry_space_group_name_H-M   'P 21/n'
_symmetry_Int_Tables_number      14
_space_group_name_Hall           '-P 2yn'
loop_
_symmetry_equiv_pos_site_id
_symmetry_equiv_pos_as_xyz
1 x,y,z
2 1/2-x,1/2+y,1/2-z
3 -x,-y,-z
4 1/2+x,1/2-y,1/2+z
_cell_length_a                   9.28940(10)
_cell_length_b                   12.32240(10)
_cell_length_c                   15.6823(2)
_cell_angle_alpha                90
_cell_angle_beta                 103.2330(10)
_cell_angle_gamma                90
_cell_volume                     1747.45
loop_
_atom_site_label
_atom_site_type_symbol
_atom_site_fract_x
_atom_site_fract_y
_atom_site_fract_z
Mg1 Mg 1.0000 0.0000 0.5000
O1 O 0.59403(18) 0.54350(13) 0.12349(10)
O2 O 0.76383(17) 0.55522(15) 0.24644(11)
O3 O 0.7135(2) 0.65426(14) 0.49618(12)
O4 O 0.53951(19) 0.38142(13) 0.30105(11)
O5 O 0.79170(17) -0.02801(14) 0.52294(11)
N1 N 1.0771(2) 0.30740(15) 0.63892(12)
N2 N 0.99510(19) 0.17063(14) 0.54599(11)
N3 N 0.6031(2) 0.53745(15) 0.38405(11)
C1 C 1.0916(2) 0.20256(19) 0.61691(14)
H1 H 1.1636 0.1568 0.6491
C2 C 0.9102(2) 0.26253(17) 0.51782(13)
C3 C 0.9612(2) 0.34858(18) 0.57635(13)
C4 C 0.7937(2) 0.27820(17) 0.44436(13)
H2 H 0.7579 0.2226 0.4051
C5 C 0.9003(2) 0.45284(18) 0.56662(14)
H3 H 0.9337 0.5087 0.6061
C6 C 0.7356(2) 0.38174(17) 0.43427(13)
C7 C 0.7870(2) 0.46592(17) 0.49391(14)
C8 C 0.6155(2) 0.42681(18) 0.36336(14)
C9 C 0.7027(3) 0.56512(18) 0.46309(14)
C10 C 0.5134(3) 0.61478(18) 0.32792(15)
C11 C 0.4094(3) 0.6725(2) 0.36093(18)
H4 H 0.4004 0.6603 0.4180
C12 C 0.5268(2) 0.63137(17) 0.24170(14)
C13 C 0.3195(3) 0.7479(2) 0.3091(2)
H5 H 0.2508 0.7869 0.3316
C14 C 0.3315(3) 0.7654(2) 0.22404(18)
H6 H 0.2710 0.8162 0.1892
C15 C 0.4339(3) 0.70726(19) 0.19088(16)
H7 H 0.4409 0.7191 0.1334
C16 C 0.6378(2) 0.57167(17) 0.20125(13)
N4 N 0.6264(2) -0.06228(19) 0.60465(17)
C17 C 0.7481(3) -0.0178(2) 0.59012(19)
H8 H 0.8048 0.0244 0.6345
C18 C 0.5382(4) -0.1356(3) 0.5439(3)
H9 H 0.5769 -0.1404 0.4923
H10 H 0.4382 -0.1097 0.5284
H11 H 0.5404 -0.2061 0.5703
C19 C 0.5853(6) -0.0417(4) 0.6872(3)
H12 H 0.6540 0.0087 0.7214
H13 H 0.5874 -0.1085 0.7189
H14 H 0.4875 -0.0115 0.6759
O1B O 1.40597(18) -0.54350(13) 0.87651(10)
O2B O 1.23617(17) -0.55522(15) 0.75356(11)
O3B O 1.2865(2) -0.65426(14) 0.50382(12)
O4B O 1.46049(19) -0.38142(13) 0.69895(11)
O5B O 1.20830(17) 0.02801(14) 0.47706(11)
N1B N 0.9229(2) -0.30740(15) 0.36108(12)
N2B N 1.00490(19) -0.17063(14) 0.45401(11)
N3B N 1.3969(2) -0.53745(15) 0.61595(11)
C1B C 0.9084(2) -0.20256(19) 0.38309(14)
H1B H 0.8364 -0.1568 0.3509
C2B C 1.0898(2) -0.26253(17) 0.48218(13)
C3B C 1.0388(2) -0.34858(18) 0.42365(13)
C4B C 1.2063(2) -0.27820(17) 0.55564(13)
H2B H 1.2421 -0.2226 0.5949
C5B C 1.0997(2) -0.45284(18) 0.43338(14)
H3B H 1.0663 -0.5087 0.3939
C6B C 1.2644(2) -0.38174(17) 0.56573(13)
C7B C 1.2130(2) -0.46592(17) 0.50609(14)
C8B C 1.3845(2) -0.42681(18) 0.63664(14)
C9B C 1.2973(3) -0.56512(18) 0.53691(14)
C10B C 1.4866(3) -0.61478(18) 0.67208(15)
C11B C 1.5906(3) -0.6725(2) 0.63907(18)
H4B H 1.5996 -0.6603 0.5820
C12B C 1.4732(2) -0.63137(17) 0.75830(14)
C13B C 1.6805(3) -0.7479(2) 0.6909(2)
H5B H 1.7492 -0.7869 0.6684
C14B C 1.6685(3) -0.7654(2) 0.77596(18)
H6B H 1.7290 -0.8162 0.8108
C15B C 1.5661(3) -0.70726(19) 0.80912(16)
H7B H 1.5591 -0.7191 0.8666
C16B C 1.3622(2) -0.57167(17) 0.79875(13)
N4B N 1.3736(2) 0.06228(19) 0.39535(17)
C17B C 1.2519(3) 0.0178(2) 0.40988(19)
H8B H 1.1952 -0.0244 0.3655
C18B C 1.4618(4) 0.1356(3) 0.4561(3)
H9B H 1.4231 0.1404 0.5077
H10B H 1.5618 0.1097 0.4716
H11B H 1.4596 0.2061 0.4297
C19B C 1.4147(6) 0.0417(4) 0.3128(3)
H12B H 1.3460 -0.0087 0.2786
H13B H 1.4126 0.1085 0.2811
H14B H 1.5125 0.0115 0.3241
Mg1A Mg 0.5000 0.5000 0.0000
Mg1A_2 Mg 1.5000 -0.5000 1.0000
O1A O 0.90597(18) 0.04350(13) 0.37651(10)
O1C O 1.09403(18) -0.04350(13) 0.62349(10)
loop_
_geom_bond_atom_site_label_1
_geom_bond_atom_site_label_2
_geom_bond_site_symmetry_1
_geom_bond_site_symmetry_2
Mg1 O5 1_555 1_555
O1 C16 1_555 1_555
O2 C16 1_555 1_555
O3 C9 1_555 1_555
O4 C8 1_555 1_555
O5 C17 1_555 1_555
N1 C1 1_555 1_555
N2 Mg1 1_555 1_555
N3 C8 1_555 1_555
C1 N2 1_555 1_555
H1 C1 1_555 1_555
C2 N2 1_555 1_555
C3 N1 1_555 1_555
C4 C2 1_555 1_555
H2 C4 1_555 1_555
C5 C3 1_555 1_555
H3 C5 1_555 1_555
C6 C4 1_555 1_555
C7 C5 1_555 1_555
C8 C6 1_555 1_555
C9 N3 1_555 1_555
C10 N3 1_555 1_555
C11 C10 1_555 1_555
H4 C11 1_555 1_555
C12 C10 1_555 1_555
C13 C11 1_555 1_555
H5 C13 1_555 1_555
C14 C13 1_555 1_555
H6 C14 1_555 1_555
C15 C12 1_555 1_555
H7 C15 1_555 1_555
C16 C12 1_555 1_555
N4 C17 1_555 1_555
C17 H8 1_555 1_555
C18 N4 1_555 1_555
H9 C18 1_555 1_555
H10 C18 1_555 1_555
H11 C18 1_555 1_555
C19 N4 1_555 1_555
H12 C19 1_555 1_555
H13 C19 1_555 1_555
H14 C19 1_555 1_555
O1B C16B 1_555 1_555
O2B C16B 1_555 1_555
O3B C9B 1_555 1_555
O4B C8B 1_555 1_555
O5B Mg1 1_555 1_555
N1B C1B 1_555 1_555
N2B Mg1 1_555 1_555
N3B C8B 1_555 1_555
C1B N2B 1_555 1_555
H1B C1B 1_555 1_555
C2B N2B 1_555 1_555
C3B N1B 1_555 1_555
C4B C2B 1_555 1_555
H2B C4B 1_555 1_555
C5B C3B 1_555 1_555
H3B C5B 1_555 1_555
C6B C4B 1_555 1_555
C7B C5B 1_555 1_555
C8B C6B 1_555 1_555
C9B N3B 1_555 1_555
C10B N3B 1_555 1_555
C11B C10B 1_555 1_555
H4B C11B 1_555 1_555
C12B C10B 1_555 1_555
C13B C11B 1_555 1_555
H5B C13B 1_555 1_555
C14B C13B 1_555 1_555
H6B C14B 1_555 1_555
C15B C12B 1_555 1_555
H7B C15B 1_555 1_555
C16B C12B 1_555 1_555
N4B C17B 1_555 1_555
C17B O5B 1_555 1_555
H8B C17B 1_555 1_555
C18B N4B 1_555 1_555
H9B C18B 1_555 1_555
H10B C18B 1_555 1_555
H11B C18B 1_555 1_555
C19B N4B 1_555 1_555
H12B C19B 1_555 1_555
H13B C19B 1_555 1_555
H14B C19B 1_555 1_555
Mg1A O1 1_555 1_555
Mg1A_2 O1B 1_555 1_555
O1A Mg1 1_555 1_555
O1C Mg1 1_555 1_555
C2 C3 1_555 1_555
C6 C7 1_555 1_555
C7 C9 1_555 1_555
C14 C15 1_555 1_555
C2B C3B 1_555 1_555
C6B C7B 1_555 1_555
C7B C9B 1_555 1_555
C14B C15B 1_555 1_555

#END
