
#######################################################################
#
#                 Cambridge Crystallographic Data Centre
#                                CCDC 
#
#######################################################################
#
# If this CIF has been generated from an entry in the Cambridge 
# Structural Database, then it will include bibliographic, chemical, 
# crystal, experimental, refinement or atomic coordinate data resulting 
# from the CCDC's data processing and validation procedures.
#
#######################################################################

data_FEVQII
_symmetry_cell_setting           monoclinic
_symmetry_space_group_name_H-M   'P 21/n'
_symmetry_Int_Tables_number      14
_space_group_name_Hall           '-P 2yn'
loop_
_symmetry_equiv_pos_site_id
_symmetry_equiv_pos_as_xyz
1 x,y,z
2 1/2-x,1/2+y,1/2-z
3 -x,-y,-z
4 1/2+x,1/2-y,1/2+z
_cell_length_a                   9.2653(16)
_cell_length_b                   13.542(2)
_cell_length_c                   14.941(3)
_cell_angle_alpha                90
_cell_angle_beta                 106.511(2)
_cell_angle_gamma                90
_cell_volume                     1797.36
loop_
_atom_site_label
_atom_site_type_symbol
_atom_site_fract_x
_atom_site_fract_y
_atom_site_fract_z
O1 O 1.2304(2) -0.05778(17) 0.72245(13)
O2 O 1.0485(2) -0.02889(13) 0.59288(11)
O3 O 1.1988(2) -0.15152(14) 0.98034(12)
O4 O 1.0048(2) 0.10579(13) 0.78436(13)
N1 N 1.4695(2) 0.29169(16) 1.05651(14)
N2 N 1.5680(2) 0.16425(17) 1.14951(14)
H1 H 1.6271 0.1325 1.1953
N3 N 1.0757(2) -0.03963(15) 0.86688(13)
C1 C 1.5729(3) 0.2616(2) 1.13119(19)
H2 H 1.6439 0.3039 1.1685
C2 C 1.4498(3) 0.12584(19) 1.08042(17)
C3 C 1.3905(3) 0.20649(18) 1.02243(17)
C4 C 1.3920(3) 0.03105(19) 1.06454(17)
H3 H 1.4324 -0.0217 1.1035
C5 C 1.2678(3) 0.19447(18) 0.94311(17)
H4 H 1.2270 0.2468 0.9037
C6 C 1.2707(3) 0.02082(18) 0.98718(16)
C7 C 1.2114(3) 0.09972(18) 0.92720(16)
C8 C 1.1846(3) -0.0687(2) 0.94931(17)
C9 C 1.0864(3) 0.06206(19) 0.84973(18)
C10 C 0.9771(3) -0.10696(17) 0.80401(16)
C11 C 0.8737(3) -0.15909(19) 0.83534(18)
H5 H 0.8686 -0.1500 0.8961
C12 C 0.7777(3) -0.2247(2) 0.77738(18)
H6 H 0.7087 -0.2605 0.7990
C13 C 0.7846(3) -0.2370(2) 0.68732(19)
H7 H 0.7208 -0.2818 0.6481
C14 C 0.8854(3) -0.18320(19) 0.65517(18)
H8 H 0.8866 -0.1908 0.5935
C15 C 0.9857(3) -0.11777(17) 0.71266(16)
C16 C 1.0971(3) -0.06385(18) 0.67408(17)
O5 O 0.7017(3) 0.07418(18) 0.52396(17)
N4 N 0.5346(3) 0.08058(17) 0.60866(17)
C17 C 0.3974(4) 0.1234(2) 0.6198(3)
H9 H 0.3552 0.1679 0.5691
H10 H 0.4197 0.1589 0.6778
H11 H 0.3264 0.0719 0.6200
C18 C 0.5867(4) 0.1064(2) 0.5394(2)
H12 H 0.5321 0.1534 0.4981
C19 C 0.6125(5) 0.0110(3) 0.6785(3)
H13 H 0.7018 -0.0114 0.6643
H14 H 0.5480 -0.0443 0.6792
H15 H 0.6396 0.0424 0.7386
Li1 Li 0.9016(5) 0.0639(3) 0.5220(3)
O2B O 0.9515(2) 0.02889(13) 0.40712(11)
N1C N 0.9695(2) 0.20831(16) 0.55651(14)
Li1B Li 1.0984(5) -0.0639(3) 0.4780(3)
Li1C Li 1.4016(5) 0.4361(3) 1.0220(3)
loop_
_geom_bond_atom_site_label_1
_geom_bond_atom_site_label_2
_geom_bond_site_symmetry_1
_geom_bond_site_symmetry_2
O1 C16 1_555 1_555
O2 C16 1_555 1_555
O3 C8 1_555 1_555
O4 C9 1_555 1_555
N1 C1 1_555 1_555
N2 H1 1_555 1_555
N3 C8 1_555 1_555
C1 N2 1_555 1_555
H2 C1 1_555 1_555
C2 N2 1_555 1_555
C3 N1 1_555 1_555
C4 C2 1_555 1_555
H3 C4 1_555 1_555
C5 C3 1_555 1_555
H4 C5 1_555 1_555
C6 C4 1_555 1_555
C7 C5 1_555 1_555
C8 C6 1_555 1_555
C9 N3 1_555 1_555
C10 N3 1_555 1_555
C11 C10 1_555 1_555
H5 C11 1_555 1_555
C12 C11 1_555 1_555
H6 C12 1_555 1_555
C13 C12 1_555 1_555
H7 C13 1_555 1_555
C14 C13 1_555 1_555
H8 C14 1_555 1_555
C15 C10 1_555 1_555
C16 C15 1_555 1_555
O5 C18 1_555 1_555
N4 C17 1_555 1_555
C17 H9 1_555 1_555
H10 C17 1_555 1_555
H11 C17 1_555 1_555
C18 N4 1_555 1_555
H12 C18 1_555 1_555
C19 N4 1_555 1_555
H13 C19 1_555 1_555
H14 C19 1_555 1_555
H15 C19 1_555 1_555
Li1 O2 1_555 1_555
O2B Li1 1_555 1_555
N1C Li1 1_555 1_555
Li1B O2 1_555 1_555
Li1C N1 1_555 1_555
C2 C3 1_555 1_555
C6 C7 1_555 1_555
C7 C9 1_555 1_555
C14 C15 1_555 1_555
O5 Li1 1_555 1_555
O2B Li1B 1_555 1_555

#END
