
#######################################################################
#
#                 Cambridge Crystallographic Data Centre
#                                CCDC 
#
#######################################################################
#
# If this CIF has been generated from an entry in the Cambridge 
# Structural Database, then it will include bibliographic, chemical, 
# crystal, experimental, refinement or atomic coordinate data resulting 
# from the CCDC's data processing and validation procedures.
#
#######################################################################

data_FEVSEG
_symmetry_cell_setting           orthorhombic
_symmetry_space_group_name_H-M   'A m a 2'
_symmetry_Int_Tables_number      40
_space_group_name_Hall           'A 2 -2a'
loop_
_symmetry_equiv_pos_site_id
_symmetry_equiv_pos_as_xyz
1 x,y,z
2 -x,-y,z
3 1/2+x,-y,z
4 1/2-x,y,z
5 x,1/2+y,1/2+z
6 -x,1/2-y,1/2+z
7 1/2+x,1/2-y,1/2+z
8 1/2-x,1/2+y,1/2+z
_cell_length_a                   18.3732(9)
_cell_length_b                   13.1546(6)
_cell_length_c                   4.4148(2)
_cell_angle_alpha                90
_cell_angle_beta                 90
_cell_angle_gamma                90
_cell_volume                     1067.02
loop_
_atom_site_label
_atom_site_type_symbol
_atom_site_fract_x
_atom_site_fract_y
_atom_site_fract_z
Cs1 Cs 0.5000 0.0000 0.086(2)
C1 C 0.2500 -0.1815(9) 0.657(3)
C2 C 0.3109(5) -0.2242(6) 0.568(2)
C3 C 0.2862(5) -0.3048(8) 0.352(2)
C4 C 0.2500 -0.1012(11) 0.865(4)
N1 N 0.2500 -0.0354(10) 1.120(4)
C5 C 0.3843(5) -0.1976(6) 0.578(3)
N2 N 0.4433(4) -0.1720(5) 0.609(3)
C6 C 0.3348(5) -0.3728(7) 0.178(2)
N3 N 0.3768(4) -0.4256(6) 0.094(3)
C2C C 0.1891(5) -0.2242(6) 0.568(2)
C3C C 0.2138(5) -0.3048(8) 0.352(2)
C5C C 0.1157(5) -0.1976(6) 0.578(3)
N2C N 0.0567(4) -0.1720(5) 0.609(3)
C6C C 0.1652(5) -0.3728(7) 0.178(2)
N3C N 0.1232(4) -0.4256(6) 0.094(3)
Cs1_2 Cs 0.5000 0.0000 1.086(2)
Cs1B Cs 0.0000 0.0000 0.086(2)
Cs1B_2 Cs 0.0000 0.0000 1.086(2)
Cs1D Cs 0.5000 -0.5000 -0.414(2)
Cs1D_2 Cs 0.5000 -0.5000 0.586(2)
Cs1F Cs 0.0000 -0.5000 -0.414(2)
Cs1F_2 Cs 0.0000 -0.5000 0.586(2)
N2_2 N 0.4433(4) -0.1720(5) -0.391(3)
N2A N 0.5567(4) 0.1720(5) -0.391(3)
N2A_2 N 0.5567(4) 0.1720(5) 0.609(3)
N3D N 0.3768(4) 0.0744(6) -0.406(3)
N3D_2 N 0.3768(4) 0.0744(6) 0.594(3)
N3E N 0.6232(4) -0.0744(6) -0.406(3)
N3E_2 N 0.6232(4) -0.0744(6) 0.594(3)
loop_
_geom_bond_atom_site_label_1
_geom_bond_atom_site_label_2
_geom_bond_site_symmetry_1
_geom_bond_site_symmetry_2
Cs1 N2 1_555 1_555
C1 C2 1_555 1_555
C2 C3 1_555 1_555
C3 C6 1_555 1_555
C4 C1 1_555 1_555
N1 C4 1_555 1_555
C5 C2 1_555 1_555
N2 C5 1_555 1_555
C6 N3 1_555 1_555
N3 Cs1D 1_555 1_555
C2C C1 1_555 1_555
C3C C3 1_555 1_555
C5C C2C 1_555 1_555
N2C C5C 1_555 1_555
C6C C3C 1_555 1_555
N3C C6C 1_555 1_555
Cs1_2 N2 1_555 1_555
Cs1B N2C 1_555 1_555
Cs1B_2 N2C 1_555 1_555
Cs1D_2 N3 1_555 1_555
Cs1F N3C 1_555 1_555
Cs1F_2 N3C 1_555 1_555
N2_2 Cs1 1_555 1_555
N2A Cs1 1_555 1_555
N2A_2 Cs1 1_555 1_555
N3D Cs1 1_555 1_555
N3D_2 Cs1 1_555 1_555
N3E Cs1 1_555 1_555
N3E_2 Cs1 1_555 1_555
C2C C3C 1_555 1_555
Cs1_2 N2A_2 1_555 1_555
Cs1_2 N3D_2 1_555 1_555
Cs1_2 N3E_2 1_555 1_555

#END
