
#######################################################################
#
#                 Cambridge Crystallographic Data Centre
#                                CCDC 
#
#######################################################################
#
# If this CIF has been generated from an entry in the Cambridge 
# Structural Database, then it will include bibliographic, chemical, 
# crystal, experimental, refinement or atomic coordinate data resulting 
# from the CCDC's data processing and validation procedures.
#
#######################################################################

data_FEVVIM
_symmetry_cell_setting           monoclinic
_symmetry_space_group_name_H-M   'C 2/c'
_symmetry_Int_Tables_number      15
_space_group_name_Hall           '-C 2yn'
loop_
_symmetry_equiv_pos_site_id
_symmetry_equiv_pos_as_xyz
1 x,y,z
2 1/2+x,1/2+y,z
3 x,-y,1/2+z
4 1/2+x,1/2-y,1/2+z
5 -x,-y,-z
6 1/2-x,1/2-y,-z
7 -x,y,1/2-z
8 1/2-x,1/2+y,1/2-z
_cell_length_a                   24.404(3)
_cell_length_b                   11.262(2)
_cell_length_c                   21.160(3)
_cell_angle_alpha                90
_cell_angle_beta                 102.334(11)
_cell_angle_gamma                90
_cell_volume                     5681.34
loop_
_atom_site_label
_atom_site_type_symbol
_atom_site_fract_x
_atom_site_fract_y
_atom_site_fract_z
Mn1 Mn -0.5000 0.3214(2) -0.2500
Br1 Br -0.45959(6) 0.19842(15) -0.15401(8)
Br2 Br -0.57577(5) 0.44784(12) -0.22303(6)
Br1F Br -0.54041(6) 0.19842(15) -0.34599(8)
Br2F Br -0.42423(5) 0.44784(12) -0.27697(6)
Mn2 Mn -0.7500 0.2500 0.0000
C1 C -0.3137(4) -0.4020(10) 0.1163(5)
H1 H -0.3372(4) -0.4361(10) 0.1427(5)
H2 H -0.2760(4) -0.3955(10) 0.1411(5)
H3 H -0.3142(4) -0.4519(10) 0.0794(5)
O1 O -0.3116(3) -0.2214(6) 0.0597(3)
C2 C -0.3345(4) -0.2855(9) 0.0949(4)
N1 N -0.3790(3) -0.2454(8) 0.1149(4)
H4 H -0.3947(3) -0.2919(8) 0.1380(4)
C3 C -0.4026(5) -0.1295(10) 0.1005(5)
H5 H -0.3729(5) -0.0750(10) 0.0960(5)
H6 H -0.4182(5) -0.1026(10) 0.1365(5)
C4 C -0.4485(4) -0.1256(11) 0.0387(5)
H7 H -0.4769(4) -0.1844(11) 0.0415(5)
H8 H -0.4323(4) -0.1455(11) 0.0019(5)
C5 C -0.4760(5) -0.0023(12) 0.0280(5)
H9 H -0.4889(5) 0.0205(12) 0.0666(5)
H10 H -0.4481(5) 0.0551(12) 0.0216(5)
C6 C -0.6757(7) -0.0413(15) 0.0374(7)
H11 H -0.6460(7) -0.0979(15) 0.0500(7)
H12 H -0.7105(7) -0.0758(15) 0.0425(7)
H13 H -0.6786(7) -0.0194(15) -0.0070(7)
O2 O -0.6938(3) 0.1535(7) 0.0745(3)
C7 C -0.6637(4) 0.0650(13) 0.0785(5)
N2 N -0.6155(5) 0.0673(9) 0.1244(5)
H14 H -0.5929(5) 0.0079(9) 0.1285(5)
C8 C -0.6017(4) 0.1697(12) 0.1670(9)
H15 H -0.6107(4) 0.2442(12) 0.1441(9)
H16 H -0.6197(4) 0.1663(12) 0.2036(9)
C9 C -0.5392(4) 0.1495(13) 0.1868(7)
H17 H -0.5192(4) 0.1770(13) 0.1546(7)
H18 H -0.5296(4) 0.0676(13) 0.1982(7)
C10 C -0.5316(2) 0.2297(18) 0.2447(9)
H19 H -0.4521(2) 0.3078(18) 0.2654(9)
H20 H -0.4549(2) 0.1949(18) 0.2195(9)
C11 C -0.7054(5) 0.4154(13) 0.1519(6)
H21 H -0.6828(5) 0.4521(13) 0.1895(6)
H22 H -0.7430(5) 0.4455(13) 0.1449(6)
H23 H -0.7058(5) 0.3310(13) 0.1581(6)
O3 O -0.7034(3) 0.4041(6) 0.0395(3)
C12 C -0.6811(4) 0.4427(11) 0.0939(5)
N3 N -0.6366(4) 0.5122(13) 0.1020(5)
H24 H -0.6228(4) 0.5373(13) 0.1405(5)
C13 C -0.6093(6) 0.5494(16) 0.0507(7)
H25 H -0.6350(6) 0.5388(16) 0.0093(7)
H26 H -0.6003(6) 0.6332(16) 0.0558(7)
C14 C -0.5571(6) 0.4817(15) 0.0507(7)
H27 H -0.5320(6) 0.4891(15) 0.0928(7)
H28 H -0.5662(6) 0.3983(15) 0.0433(7)
C15 C -0.5275(5) 0.5268(13) -0.0016(6)
H29 H -0.4769(5) 0.3877(13) -0.0026(6)
H30 H -0.4489(5) 0.4895(13) 0.0438(6)
C5D C -0.5240(5) 0.0023(12) -0.0280(5)
C4D C -0.5515(4) 0.1256(11) -0.0387(5)
C3D C -0.5974(5) 0.1295(10) -0.1005(5)
N1D N -0.6210(3) 0.2454(8) -0.1149(4)
C2D C -0.6655(4) 0.2855(9) -0.0949(4)
C1D C -0.6863(4) 0.4020(10) -0.1163(5)
H1D H -0.6628(4) 0.4361(10) -0.1427(5)
H2D H -0.7240(4) 0.3955(10) -0.1411(5)
H3D H -0.6858(4) 0.4519(10) -0.0794(5)
O1D O -0.6884(3) 0.2214(6) -0.0597(3)
Mn2A Mn -0.2500 -0.2500 0.0000
O1A O -0.8116(3) 0.2786(6) 0.0597(3)
C10F C -0.4684(2) 0.2297(18) 0.2553(9)
C9F C -0.4608(4) 0.1495(13) 0.3132(7)
C8F C -0.3983(4) 0.1697(12) 0.3330(9)
N2F N -0.3845(5) 0.0673(9) 0.3756(5)
C7F C -0.3363(4) 0.0650(13) 0.4215(5)
C6F C -0.3243(7) -0.0413(15) 0.4626(7)
H11F H -0.3540(7) -0.0979(15) 0.4500(7)
H12F H -0.2895(7) -0.0758(15) 0.4575(7)
H13F H -0.3214(7) -0.0194(15) 0.5070(7)
O2F O -0.3062(3) 0.1535(7) 0.4255(3)
Mn2C Mn -0.2500 0.2500 0.5000
H14F H -0.4071(5) 0.0079(9) 0.3715(5)
H15F H -0.3893(4) 0.2442(12) 0.3559(9)
H16F H -0.3803(4) 0.1663(12) 0.2964(9)
H17F H -0.4808(4) 0.1770(13) 0.3454(7)
H18F H -0.4704(4) 0.0676(13) 0.3018(7)
H19F H -0.5479(2) 0.3078(18) 0.2346(9)
H20F H -0.5451(2) 0.1949(18) 0.2805(9)
O2E O -0.8062(3) 0.3465(7) -0.0745(3)
C15D C -0.4725(5) 0.4732(13) 0.0016(6)
C14D C -0.4429(6) 0.5183(15) -0.0507(7)
C13D C -0.3907(6) 0.4506(16) -0.0507(7)
N3D N -0.3634(4) 0.4878(13) -0.1020(5)
C12D C -0.3189(4) 0.5573(11) -0.0939(5)
C11D C -0.2946(5) 0.5846(13) -0.1519(6)
H21D H -0.3172(5) 0.5479(13) -0.1895(6)
H22D H -0.2570(5) 0.5545(13) -0.1449(6)
H23D H -0.2942(5) 0.6690(13) -0.1581(6)
O3D O -0.2966(3) 0.5959(6) -0.0395(3)
Mn2A_2 Mn -0.2500 0.7500 0.0000
H24D H -0.3772(4) 0.4627(13) -0.1405(5)
H25D H -0.3650(6) 0.4612(16) -0.0093(7)
H26D H -0.3997(6) 0.3668(16) -0.0558(7)
H27D H -0.4680(6) 0.5109(15) -0.0928(7)
H28D H -0.4338(6) 0.6017(15) -0.0433(7)
H29D H -0.5231(5) 0.6123(13) 0.0026(6)
H30D H -0.5511(5) 0.5105(13) -0.0438(6)
O3E O -0.7966(3) 0.0959(6) -0.0395(3)
H4D H -0.6053(3) 0.2919(8) -0.1380(4)
H5D H -0.6271(5) 0.0750(10) -0.0960(5)
H6D H -0.5818(5) 0.1026(10) -0.1365(5)
H7D H -0.5231(4) 0.1844(11) -0.0415(5)
H8D H -0.5677(4) 0.1455(11) -0.0019(5)
H9D H -0.5111(5) -0.0205(12) -0.0666(5)
H10D H -0.5519(5) -0.0551(12) -0.0216(5)
O4 O -0.2732(7) -0.7140(12) 0.1630(10)
C18 C -0.3590(10) -0.7474(23) 0.1294(13)
H36 H -0.3872(10) -0.8069(23) 0.1292(13)
H37 H -0.3556(10) -0.7316(23) 0.0858(13)
H38 H -0.3694(10) -0.6759(23) 0.1484(13)
C19 C -0.3044(9) -0.7904(22) 0.1675(18)
H39 H -0.3062(9) -0.8032(22) 0.2123(18)
H40 H -0.2934(9) -0.8638(22) 0.1498(18)
C16? C -0.2276(10) 0.2617(18) 0.1939(14)
H31? H -0.2075(10) 0.2199(18) 0.1658(14)
H32? H -0.2322(10) 0.2069(18) 0.2277(14)
C17? C -0.1923(10) 0.3603(22) 0.2242(11)
H33? H -0.1566(10) 0.3301(22) 0.2464(11)
H34? H -0.2102(10) 0.3997(22) 0.2545(11)
H35? H -0.1870(10) 0.4156(22) 0.1915(11)
loop_
_geom_bond_atom_site_label_1
_geom_bond_atom_site_label_2
_geom_bond_site_symmetry_1
_geom_bond_site_symmetry_2
Mn1 Br1 1_555 1_555
Br2 Mn1 1_555 1_555
Mn2 O2 1_555 1_555
C1 H1 1_555 1_555
H2 C1 1_555 1_555
H3 C1 1_555 1_555
O1 C2 1_555 1_555
C2 C1 1_555 1_555
N1 C2 1_555 1_555
H4 N1 1_555 1_555
C3 N1 1_555 1_555
H5 C3 1_555 1_555
H6 C3 1_555 1_555
C4 C3 1_555 1_555
H7 C4 1_555 1_555
H8 C4 1_555 1_555
C5 C4 1_555 1_555
H9 C5 1_555 1_555
H10 C5 1_555 1_555
C6 H11 1_555 1_555
H12 C6 1_555 1_555
H13 C6 1_555 1_555
O2 C7 1_555 1_555
C7 C6 1_555 1_555
N2 C7 1_555 1_555
H14 N2 1_555 1_555
C8 N2 1_555 1_555
H15 C8 1_555 1_555
H16 C8 1_555 1_555
C9 C8 1_555 1_555
H17 C9 1_555 1_555
H18 C9 1_555 1_555
C10 C9 1_555 1_555
H19 C10F 1_555 1_555
H20 C10F 1_555 1_555
C11 H21 1_555 1_555
H22 C11 1_555 1_555
H23 C11 1_555 1_555
O3 Mn2 1_555 1_555
C12 C11 1_555 1_555
N3 C12 1_555 1_555
H24 N3 1_555 1_555
C13 N3 1_555 1_555
H25 C13 1_555 1_555
H26 C13 1_555 1_555
C14 C13 1_555 1_555
H27 C14 1_555 1_555
H28 C14 1_555 1_555
C15 C14 1_555 1_555
H29 C15D 1_555 1_555
H30 C15D 1_555 1_555
O4 C19 1_555 1_555
C18 H36 1_555 1_555
H37 C18 1_555 1_555
H38 C18 1_555 1_555
C19 C18 1_555 1_555
H39 C19 1_555 1_555
H40 C19 1_555 1_555
Br1F Mn1 1_555 1_555
Br2F Mn1 1_555 1_555
C5D C5 1_555 1_555
C4D C5D 1_555 1_555
C3D C4D 1_555 1_555
N1D C3D 1_555 1_555
C2D N1D 1_555 1_555
C1D C2D 1_555 1_555
H1D C1D 1_555 1_555
H2D C1D 1_555 1_555
H3D C1D 1_555 1_555
O1D Mn2 1_555 1_555
Mn2A O1 1_555 1_555
O1A Mn2 1_555 1_555
C10F C10 1_555 1_555
C9F C10F 1_555 1_555
C8F C9F 1_555 1_555
N2F C8F 1_555 1_555
C7F N2F 1_555 1_555
C6F C7F 1_555 1_555
H11F C6F 1_555 1_555
H12F C6F 1_555 1_555
H13F C6F 1_555 1_555
O2F C7F 1_555 1_555
Mn2C O2F 1_555 1_555
H14F N2F 1_555 1_555
H15F C8F 1_555 1_555
H16F C8F 1_555 1_555
H17F C9F 1_555 1_555
H18F C9F 1_555 1_555
H19F C10 1_555 1_555
H20F C10 1_555 1_555
O2E Mn2 1_555 1_555
C15D C15 1_555 1_555
C14D C15D 1_555 1_555
C13D C14D 1_555 1_555
N3D C13D 1_555 1_555
C12D N3D 1_555 1_555
C11D C12D 1_555 1_555
H21D C11D 1_555 1_555
H22D C11D 1_555 1_555
H23D C11D 1_555 1_555
O3D C12D 1_555 1_555
Mn2A_2 O3D 1_555 1_555
H24D N3D 1_555 1_555
H25D C13D 1_555 1_555
H26D C13D 1_555 1_555
H27D C14D 1_555 1_555
H28D C14D 1_555 1_555
H29D C15 1_555 1_555
H30D C15 1_555 1_555
O3E Mn2 1_555 1_555
H4D N1D 1_555 1_555
H5D C3D 1_555 1_555
H6D C3D 1_555 1_555
H7D C4D 1_555 1_555
H8D C4D 1_555 1_555
H9D C5D 1_555 1_555
H10D C5D 1_555 1_555
O3 C12 1_555 1_555
C2D O1D 1_555 1_555

#END
