
#######################################################################
#
#                 Cambridge Crystallographic Data Centre
#                                CCDC 
#
#######################################################################
#
# If this CIF has been generated from an entry in the Cambridge 
# Structural Database, then it will include bibliographic, chemical, 
# crystal, experimental, refinement or atomic coordinate data resulting 
# from the CCDC's data processing and validation procedures.
#
#######################################################################

data_FEVYEK
_symmetry_cell_setting           triclinic
_symmetry_space_group_name_H-M   'P -1'
_symmetry_Int_Tables_number      2
_space_group_name_Hall           '-P 1'
loop_
_symmetry_equiv_pos_site_id
_symmetry_equiv_pos_as_xyz
1 x,y,z
2 -x,-y,-z
_cell_length_a                   8.0051(9)
_cell_length_b                   10.2210(13)
_cell_length_c                   10.8266(9)
_cell_angle_alpha                67.556(7)
_cell_angle_beta                 83.640(8)
_cell_angle_gamma                85.830(11)
_cell_volume                     813.249
loop_
_atom_site_label
_atom_site_type_symbol
_atom_site_fract_x
_atom_site_fract_y
_atom_site_fract_z
Co1 Co 0.5000 0.5000 0.5000
O1 O 0.4183(5) 0.4072(4) 0.3775(4)
O2 O 0.6969(5) 0.3470(4) 0.5351(4)
O3 O 0.6234(5) 0.6436(4) 0.3233(3)
C1 C 0.2902(7) 0.3540(5) 0.3665(5)
C2 C 0.1437(7) 0.3177(7) 0.4712(6)
H1 H 0.0579(7) 0.2776(7) 0.4425(6)
H2 H 0.0994(7) 0.4020(7) 0.4840(6)
H3 H 0.1799(7) 0.2504(7) 0.5542(6)
C3 C 0.7277(6) 0.6457(6) 0.2293(5)
N1 N 0.7648(7) 0.7661(5) 0.1267(4)
H4 H 0.8450(7) 0.7642(5) 0.0675(4)
C4 C 0.4312(8) 0.4943(7) 0.0566(5)
H5 H 0.4582(8) 0.5528(7) 0.1038(5)
H6 H 0.3248(8) 0.5293(7) 0.0190(5)
N2 N 0.2801(6) 0.3211(5) 0.2598(4)
H7 H 0.1889(6) 0.2854(5) 0.2535(4)
C5 C 0.7519(6) 0.2425(6) 0.6267(5)
N3 N 0.7628(6) 0.1161(5) 0.6223(5)
H8 H 0.8082(6) 0.0489(5) 0.6863(5)
C6 C 0.6774(9) 0.9000(7) 0.1097(6)
H9 H 0.7579(9) 0.9747(7) 0.0811(6)
H10 H 0.6192(9) 0.8955(7) 0.1946(6)
C7 C 0.8146(9) 0.2564(7) 0.7462(6)
H11 H 0.8520(9) 0.1651(7) 0.8061(6)
H12 H 0.7255(9) 0.2934(7) 0.7918(6)
H13 H 0.9067(9) 0.3196(7) 0.7174(6)
C8 C 0.8221(8) 0.5146(7) 0.2244(6)
H14 H 0.8965(8) 0.5392(7) 0.1436(6)
H15 H 0.7436(8) 0.4473(7) 0.2257(6)
H16 H 0.8864(8) 0.4739(7) 0.3007(6)
C9 C 0.5515(8) 0.9336(6) 0.0058(6)
H17 H 0.6111(8) 0.9454(6) -0.0807(6)
H18 H 0.4773(8) 0.8549(6) 0.0307(6)
C10 C 0.7036(9) 0.0810(7) 0.5167(6)
H19 H 0.7805(9) 0.0110(7) 0.4991(6)
H20 H 0.7039(9) 0.1652(7) 0.4351(6)
C11 C 0.5288(8) 0.0237(6) 0.5533(5)
H21 H 0.4506(8) 0.0962(6) 0.5645(5)
H22 H 0.5266(8) -0.0563(6) 0.6384(5)
C12 C 0.4147(9) 0.3425(7) 0.1543(6)
H23 H 0.3968(9) 0.2839(7) 0.1048(6)
H24 H 0.5199(9) 0.3105(7) 0.1949(6)
O1A O 0.5817(5) 0.5928(4) 0.6225(4)
O2A O 0.3031(5) 0.6530(4) 0.4649(4)
O3A O 0.3766(5) 0.3564(4) 0.6767(3)
C4A C 0.5688(8) 0.5057(7) -0.0566(5)
C9A C 0.4485(8) 1.0664(6) -0.0058(6)
C11A C 0.4712(8) -0.0237(6) 0.4467(5)
H5A H 0.5418(8) 0.4472(7) -0.1038(5)
H6A H 0.6752(8) 0.4707(7) -0.0190(5)
C12A C 0.5853(9) 0.6575(7) -0.1543(6)
C6A C 0.3226(9) 1.1000(7) -0.1097(6)
H17A H 0.3889(8) 1.0546(6) 0.0807(6)
H18A H 0.5227(8) 1.1451(6) -0.0307(6)
C10A C 0.2964(9) -0.0810(7) 0.4833(6)
H21A H 0.5494(8) -0.0962(6) 0.4355(5)
H22A H 0.4734(8) 0.0563(6) 0.3616(5)
N2A N 0.7199(6) 0.6789(5) -0.2598(4)
H23A H 0.6032(9) 0.7161(7) -0.1048(6)
H24A H 0.4801(9) 0.6895(7) -0.1949(6)
N1A N 0.2352(7) 1.2339(5) -0.1267(4)
H9A H 0.2421(9) 1.0253(7) -0.0811(6)
H10A H 0.3808(9) 1.1045(7) -0.1946(6)
N3A N 0.2372(6) -0.1161(5) 0.3777(5)
H19A H 0.2195(9) -0.0110(7) 0.5009(6)
H20A H 0.2961(9) -0.1652(7) 0.5649(6)
C1A C 0.7098(7) 0.6460(5) -0.3665(5)
H7A H 0.8111(6) 0.7146(5) -0.2535(4)
C3A C 0.2723(6) 1.3543(6) -0.2293(5)
H4A H 0.1550(7) 1.2358(5) -0.0675(4)
C5A C 0.2481(6) -0.2425(6) 0.3733(5)
H8A H 0.1918(6) -0.0489(5) 0.3137(5)
O1A_2 O 0.5817(5) 0.5928(4) -0.3775(4)
C2A C 0.8563(7) 0.6823(7) -0.4712(6)
O3A_2 O 0.3766(5) 1.3564(4) -0.3233(3)
C8A C 0.1779(8) 1.4854(7) -0.2244(6)
O2A_2 O 0.3031(5) -0.3470(4) 0.4649(4)
C7A C 0.1854(9) -0.2564(7) 0.2538(6)
Co1_2 Co 0.5000 0.5000 -0.5000
H1A H 0.9421(7) 0.7224(7) -0.4425(6)
H2A H 0.9006(7) 0.5980(7) -0.4840(6)
H3A H 0.8201(7) 0.7496(7) -0.5542(6)
Co1_3 Co 0.5000 1.5000 -0.5000
H14A H 0.1035(8) 1.4608(7) -0.1436(6)
H15A H 0.2564(8) 1.5527(7) -0.2257(6)
H16A H 0.1136(8) 1.5261(7) -0.3007(6)
Co1_4 Co 0.5000 -0.5000 0.5000
H11A H 0.1480(9) -0.1651(7) 0.1939(6)
H12A H 0.2745(9) -0.2934(7) 0.2082(6)
H13A H 0.0933(9) -0.3196(7) 0.2826(6)
Br1 Br -0.00683(9) 0.15965(8) 0.17073(6)
loop_
_geom_bond_atom_site_label_1
_geom_bond_atom_site_label_2
_geom_bond_site_symmetry_1
_geom_bond_site_symmetry_2
Co1 O1 1_555 1_555
O1 C1 1_555 1_555
O2 Co1 1_555 1_555
O3 Co1 1_555 1_555
C1 C2 1_555 1_555
C2 H1 1_555 1_555
H2 C2 1_555 1_555
H3 C2 1_555 1_555
C3 O3 1_555 1_555
N1 C3 1_555 1_555
H4 N1 1_555 1_555
C4 H5 1_555 1_555
H6 C4 1_555 1_555
N2 C1 1_555 1_555
H7 N2 1_555 1_555
C5 O2 1_555 1_555
N3 C5 1_555 1_555
H8 N3 1_555 1_555
C6 N1 1_555 1_555
H9 C6 1_555 1_555
H10 C6 1_555 1_555
C7 C5 1_555 1_555
H11 C7 1_555 1_555
H12 C7 1_555 1_555
H13 C7 1_555 1_555
C8 C3 1_555 1_555
H14 C8 1_555 1_555
H15 C8 1_555 1_555
H16 C8 1_555 1_555
C9 C6 1_555 1_555
H17 C9 1_555 1_555
H18 C9 1_555 1_555
C10 N3 1_555 1_555
H19 C10 1_555 1_555
H20 C10 1_555 1_555
C11 C10 1_555 1_555
H21 C11 1_555 1_555
H22 C11 1_555 1_555
C12 C4 1_555 1_555
H23 C12 1_555 1_555
H24 C12 1_555 1_555
O1A Co1 1_555 1_555
O2A Co1 1_555 1_555
O3A Co1 1_555 1_555
C4A C4 1_555 1_555
C9A C9 1_555 1_555
C11A C11 1_555 1_555
H5A C4A 1_555 1_555
H6A C4A 1_555 1_555
C12A C4A 1_555 1_555
C6A C9A 1_555 1_555
H17A C9A 1_555 1_555
H18A C9A 1_555 1_555
C10A C11A 1_555 1_555
H21A C11A 1_555 1_555
H22A C11A 1_555 1_555
N2A C12A 1_555 1_555
H23A C12A 1_555 1_555
H24A C12A 1_555 1_555
N1A C6A 1_555 1_555
H9A C6A 1_555 1_555
H10A C6A 1_555 1_555
N3A C10A 1_555 1_555
H19A C10A 1_555 1_555
H20A C10A 1_555 1_555
C1A N2A 1_555 1_555
H7A N2A 1_555 1_555
C3A N1A 1_555 1_555
H4A N1A 1_555 1_555
C5A N3A 1_555 1_555
H8A N3A 1_555 1_555
O1A_2 C1A 1_555 1_555
C2A C1A 1_555 1_555
O3A_2 C3A 1_555 1_555
C8A C3A 1_555 1_555
O2A_2 C5A 1_555 1_555
C7A C5A 1_555 1_555
Co1_2 O1A_2 1_555 1_555
H1A C2A 1_555 1_555
H2A C2A 1_555 1_555
H3A C2A 1_555 1_555
Co1_3 O3A_2 1_555 1_555
H14A C8A 1_555 1_555
H15A C8A 1_555 1_555
H16A C8A 1_555 1_555
Co1_4 O2A_2 1_555 1_555
H11A C7A 1_555 1_555
H12A C7A 1_555 1_555
H13A C7A 1_555 1_555
N2 C12 1_555 1_555

#END
