
#######################################################################
#
#                 Cambridge Crystallographic Data Centre
#                                CCDC 
#
#######################################################################
#
# If this CIF has been generated from an entry in the Cambridge 
# Structural Database, then it will include bibliographic, chemical, 
# crystal, experimental, refinement or atomic coordinate data resulting 
# from the CCDC's data processing and validation procedures.
#
#######################################################################

data_FEVYOU
_symmetry_cell_setting           monoclinic
_symmetry_space_group_name_H-M   'P 1 1 21/n'
_symmetry_Int_Tables_number      14
_space_group_name_Hall           '-P 2n'
loop_
_symmetry_equiv_pos_site_id
_symmetry_equiv_pos_as_xyz
1 x,y,z
2 1/2-x,1/2-y,1/2+z
3 -x,-y,-z
4 1/2+x,1/2+y,1/2-z
_cell_length_a                   13.738(4)
_cell_length_b                   9.447(4)
_cell_length_c                   8.151(3)
_cell_angle_alpha                90
_cell_angle_beta                 90
_cell_angle_gamma                98.90(4)
_cell_volume                     1045.12
loop_
_atom_site_label
_atom_site_type_symbol
_atom_site_fract_x
_atom_site_fract_y
_atom_site_fract_z
Ag1 Ag 0.1103(1) -0.1519(1) 0.1467(1)
S1 S 0.0005(1) -0.1401(2) -0.1710(2)
O1 O 0.0933(3) 0.0843(5) 0.2053(6)
C1 C -0.0332(5) -0.3331(7) -0.1783(8)
C2 C -0.1002(5) -0.3812(8) -0.0369(9)
O2 O -0.0440(3) -0.3508(5) 0.1115(5)
C3 C -0.1007(6) -0.3803(8) 0.2659(10)
C4 C -0.1567(6) -0.2629(8) 0.3072(10)
O3 O -0.0888(3) -0.1328(5) 0.3259(5)
C5 C -0.1420(5) -0.0173(8) 0.3638(9)
C6 C 0.0710(5) -0.1208(7) -0.3597(9)
O4 O 0.2612(4) -0.0759(6) -0.0157(7)
O5 O 0.1382(4) -0.3391(6) 0.3241(7)
O6 O 0.2283(4) -0.2902(6) -0.1058(8)
N1 N 0.2838(4) -0.1755(6) -0.0979(7)
O1B O -0.0933(3) -0.0843(5) -0.2053(6)
S1B S -0.0005(1) 0.1401(2) 0.1710(2)
C6B C -0.0710(5) 0.1208(7) 0.3597(9)
C5B C 0.1420(5) 0.0173(8) -0.3638(9)
N1A N 0.2162(4) -0.3245(6) 0.4021(7)
O5A O 0.3618(4) -0.1609(6) -0.1759(7)
Ag1B Ag -0.1103(1) 0.1519(1) -0.1467(1)
C1B C 0.0332(5) 0.3331(7) 0.1783(8)
O3B O 0.0888(3) 0.1328(5) -0.3259(5)
O4A O 0.2388(4) -0.4241(6) 0.4843(7)
O6A O 0.2717(4) -0.2098(6) 0.3942(8)
Ag1A Ag 0.3897(1) -0.3481(1) -0.3533(1)
O4B O -0.2612(4) 0.0759(6) 0.0157(7)
O5B O -0.1382(4) 0.3391(6) -0.3241(7)
C2B C 0.1002(5) 0.3812(8) 0.0369(9)
C4B C 0.1567(6) 0.2629(8) -0.3072(10)
Ag1A_2 Ag 0.3897(1) -0.3481(1) 0.6467(1)
O2B O 0.0440(3) 0.3508(5) -0.1115(5)
C3B C 0.1007(6) 0.3803(8) -0.2659(10)
loop_
_geom_bond_atom_site_label_1
_geom_bond_atom_site_label_2
_geom_bond_site_symmetry_1
_geom_bond_site_symmetry_2
Ag1 S1 1_555 1_555
S1 C1 1_555 1_555
O1 Ag1 1_555 1_555
C1 C2 1_555 1_555
C2 O2 1_555 1_555
O2 C3 1_555 1_555
C3 C4 1_555 1_555
C4 O3 1_555 1_555
O3 C5 1_555 1_555
C5 C6B 1_555 1_555
C6 S1 1_555 1_555
O4 Ag1 1_555 1_555
O5 Ag1 1_555 1_555
O6 N1 1_555 1_555
N1 O4 1_555 1_555
O1B S1 1_555 1_555
S1B O1 1_555 1_555
C6B S1B 1_555 1_555
C5B C6 1_555 1_555
N1A O5 1_555 1_555
O5A N1 1_555 1_555
Ag1B O1B 1_555 1_555
C1B S1B 1_555 1_555
O3B C5B 1_555 1_555
O4A N1A 1_555 1_555
O6A N1A 1_555 1_555
Ag1A O5A 1_555 1_555
O4B Ag1B 1_555 1_555
O5B Ag1B 1_555 1_555
C2B C1B 1_555 1_555
C4B O3B 1_555 1_555
Ag1A_2 O4A 1_555 1_555
O2B C2B 1_555 1_555
C3B C4B 1_555 1_555
S1B Ag1B 1_555 1_555
O2B C3B 1_555 1_555

#END
