
#######################################################################
#
#                 Cambridge Crystallographic Data Centre
#                                CCDC 
#
#######################################################################
#
# If this CIF has been generated from an entry in the Cambridge 
# Structural Database, then it will include bibliographic, chemical, 
# crystal, experimental, refinement or atomic coordinate data resulting 
# from the CCDC's data processing and validation procedures.
#
#######################################################################

data_FEWGAQ
_symmetry_cell_setting           monoclinic
_symmetry_space_group_name_H-M   'P 2/c'
_symmetry_Int_Tables_number      13
_space_group_name_Hall           '-P 2yc'
loop_
_symmetry_equiv_pos_site_id
_symmetry_equiv_pos_as_xyz
1 x,y,z
2 -x,y,1/2-z
3 -x,-y,-z
4 x,-y,1/2+z
_cell_length_a                   17.974(6)
_cell_length_b                   19.563(6)
_cell_length_c                   18.139(6)
_cell_angle_alpha                90
_cell_angle_beta                 114.410(10)
_cell_angle_gamma                90
_cell_volume                     5808
loop_
_atom_site_label
_atom_site_type_symbol
_atom_site_fract_x
_atom_site_fract_y
_atom_site_fract_z
Ag1 Ag -0.05838(4) 0.91163(2) 0.12515(4)
Ag2 Ag 0.48967(3) 1.42800(3) 0.55029(3)
C1 C 0.1356(3) 1.4096(3) 0.2560(3)
C2 C 0.1023(3) 1.3473(3) 0.2216(3)
C3 C 0.1348(3) 1.2812(3) 0.2558(3)
H1 H 0.1831 1.2732 0.3012
C4 C 0.0827(3) 1.2342(3) 0.2102(3)
H2 H 0.0876 1.1871 0.2174
C5 C 0.0169(3) 1.2703(3) 0.1471(3)
C6 C -0.0524(3) 1.2370(2) 0.0876(3)
C7 C -0.1165(3) 1.2701(3) 0.0251(3)
C8 C -0.1838(3) 1.2376(3) -0.0372(3)
H3 H -0.1960 1.1912 -0.0414
C9 C -0.2268(3) 1.2871(3) -0.0890(3)
H4 H -0.2743 1.2802 -0.1355
C10 C -0.1887(3) 1.3509(3) -0.0621(3)
C11 C -0.2106(3) 1.4142(3) -0.0991(3)
C12 C -0.1722(3) 1.4766(3) -0.0681(3)
C13 C -0.1936(3) 1.5419(3) -0.1068(3)
H5 H -0.2325 1.5495 -0.1592
C14 C -0.1496(3) 1.5894(3) -0.0568(3)
H6 H -0.1519 1.6363 -0.0662
C15 C -0.0968(3) 1.5540(2) 0.0163(3)
C16 C -0.0419(3) 1.5869(2) 0.0858(3)
C17 C 0.0180(3) 1.5546(2) 0.1521(3)
C18 C 0.0789(3) 1.5864(3) 0.2225(3)
H7 H 0.0823 1.6328 0.2346
C19 C 0.1298(3) 1.5382(3) 0.2675(3)
H8 H 0.1759 1.5454 0.3153
C20 C 0.1014(3) 1.4735(3) 0.2299(3)
C21 C 0.2183(3) 1.4091(3) 0.3258(3)
C22 C 0.2864(3) 1.3865(3) 0.3168(3)
H9 H 0.2809 1.3670 0.2681
C23 C 0.3630(3) 1.3924(3) 0.3794(3)
H10 H 0.4084 1.3774 0.3718
C24 C 0.3073(4) 1.4388(3) 0.4602(3)
H11 H 0.3142 1.4561 0.5104
C25 C 0.2297(3) 1.4349(3) 0.4005(3)
H12 H 0.1853 1.4494 0.4101
C26 C -0.0562(4) 1.1617(3) 0.0929(3)
C27 C -0.1145(4) 1.1305(3) 0.1135(4)
H13 H -0.1540 1.1567 0.1211
C28 C -0.1133(5) 1.0604(3) 0.1227(4)
H14 H -0.1517 1.0401 0.1378
C29 C -0.0042(5) 1.0507(4) 0.0888(4)
H15 H 0.0338 1.0234 0.0801
C30 C -0.0015(4) 1.1197(3) 0.0787(4)
H16 H 0.0369 1.1383 0.0624
C31 C -0.2824(3) 1.4158(3) -0.1805(3)
C32 C -0.2816(3) 1.3767(3) -0.2437(3)
H17 H -0.2385 1.3470 -0.2358
C33 C -0.3471(3) 1.3826(3) -0.3196(3)
H18 H -0.3479 1.3552 -0.3618
C34 C -0.4090(3) 1.4642(3) -0.2729(4)
H19 H -0.4519 1.4946 -0.2826
C35 C -0.3476(3) 1.4598(3) -0.1955(3)
H20 H -0.3501 1.4861 -0.1539
C36 C -0.0479(3) 1.6622(3) 0.0894(3)
C37 C -0.1209(3) 1.6925(3) 0.0846(3)
H21 H -0.1662 1.6659 0.0776
C38 C -0.1232(4) 1.7625(3) 0.0904(4)
H22 H -0.1716 1.7823 0.0867
C39 C 0.0075(4) 1.7738(3) 0.1034(4)
H23 H 0.0512 1.8014 0.1077
C40 C 0.0156(3) 1.7067(3) 0.0996(3)
H24 H 0.0653 1.6890 0.1040
N1 N 0.0303(2) 1.33848(19) 0.1551(2)
N2 N -0.1214(2) 1.3391(2) 0.0097(2)
N3 N -0.1106(2) 1.48531(19) 0.0075(2)
N4 N 0.0328(2) 1.48554(19) 0.1596(2)
N5 N 0.3731(3) 1.4192(3) 0.4501(3)
N6 N -0.0587(4) 1.0204(3) 0.1105(4)
N7 N -0.4086(3) 1.4265(3) -0.3338(3)
N8 N -0.0603(3) 1.8039(2) 0.1012(3)
C41 C -0.2355(8) 0.8596(7) 0.2277(7)
O1 O -0.0992(4) 0.9004(3) 0.2436(4)
O2 O -0.1335(4) 0.9120(3) 0.3578(4)
O3 O -0.1980(5) 0.9859(3) 0.2431(5)
F1 F -0.2964(5) 0.8692(6) 0.2476(7)
F2 F -0.2058(5) 0.7988(4) 0.2483(5)
F3 F -0.2650(5) 0.8612(5) 0.1478(5)
S1 S -0.15805(16) 0.92143(13) 0.27187(18)
S2 S 0.61117(11) 1.38260(10) 0.45079(11)
O4 O 0.6929(2) 1.3963(3) 0.5055(3)
O5 O 0.5637(3) 1.3478(3) 0.4867(3)
O6 O 0.5697(3) 1.4385(3) 0.4006(3)
C42 C 0.6202(6) 1.3193(6) 0.3837(6)
F4 F 0.5518(4) 1.2925(3) 0.3375(3)
F5 F 0.6669(5) 1.2694(4) 0.4270(5)
F6 F 0.6541(5) 1.3445(4) 0.3393(4)
Ag1_2 Ag -0.05838(4) 1.91163(2) 0.12515(4)
Ag1A Ag 0.05838(4) 0.91163(2) 0.37485(4)
Ag2_2 Ag -0.51033(3) 1.42800(3) -0.44971(3)
N7_2 N 0.5914(3) 1.4265(3) 0.6662(3)
N8_2 N -0.0603(3) 0.8039(2) 0.1012(3)
O1A O 0.0992(4) 0.9004(3) 0.2564(4)
loop_
_geom_bond_atom_site_label_1
_geom_bond_atom_site_label_2
_geom_bond_site_symmetry_1
_geom_bond_site_symmetry_2
Ag1 N6 1_555 1_555
Ag2 N5 1_555 1_555
C1 C2 1_555 1_555
C2 C3 1_555 1_555
C3 H1 1_555 1_555
C4 C3 1_555 1_555
H2 C4 1_555 1_555
C5 C4 1_555 1_555
C6 C5 1_555 1_555
C7 C6 1_555 1_555
C8 C7 1_555 1_555
H3 C8 1_555 1_555
C9 C8 1_555 1_555
H4 C9 1_555 1_555
C10 C9 1_555 1_555
C11 C10 1_555 1_555
C12 C11 1_555 1_555
C13 C12 1_555 1_555
H5 C13 1_555 1_555
C14 C13 1_555 1_555
H6 C14 1_555 1_555
C15 C14 1_555 1_555
C16 C15 1_555 1_555
C17 C16 1_555 1_555
C18 C17 1_555 1_555
H7 C18 1_555 1_555
C19 C18 1_555 1_555
H8 C19 1_555 1_555
C20 C1 1_555 1_555
C21 C1 1_555 1_555
C22 C21 1_555 1_555
H9 C22 1_555 1_555
C23 C22 1_555 1_555
H10 C23 1_555 1_555
C24 H11 1_555 1_555
C25 C21 1_555 1_555
H12 C25 1_555 1_555
C26 C6 1_555 1_555
C27 C26 1_555 1_555
H13 C27 1_555 1_555
C28 C27 1_555 1_555
H14 C28 1_555 1_555
C29 H15 1_555 1_555
C30 C26 1_555 1_555
H16 C30 1_555 1_555
C31 C11 1_555 1_555
C32 C31 1_555 1_555
H17 C32 1_555 1_555
C33 C32 1_555 1_555
H18 C33 1_555 1_555
C34 H19 1_555 1_555
C35 C31 1_555 1_555
H20 C35 1_555 1_555
C36 C16 1_555 1_555
C37 C36 1_555 1_555
H21 C37 1_555 1_555
C38 C37 1_555 1_555
H22 C38 1_555 1_555
C39 H23 1_555 1_555
C40 C36 1_555 1_555
H24 C40 1_555 1_555
N1 C2 1_555 1_555
N2 C7 1_555 1_555
N3 C12 1_555 1_555
N4 C17 1_555 1_555
N5 C23 1_555 1_555
N6 C28 1_555 1_555
N7 C33 1_555 1_555
N8 C38 1_555 1_555
C41 F1 1_555 1_555
O1 Ag1 1_555 1_555
O2 S1 1_555 1_555
O3 S1 1_555 1_555
F2 C41 1_555 1_555
F3 C41 1_555 1_555
S1 C41 1_555 1_555
S2 O4 1_555 1_555
O5 Ag2 1_555 1_555
O6 S2 1_555 1_555
C42 S2 1_555 1_555
F4 C42 1_555 1_555
F5 C42 1_555 1_555
F6 C42 1_555 1_555
Ag1_2 N8 1_555 1_555
Ag1A O1 1_555 1_555
Ag2_2 N7 1_555 1_555
N7_2 Ag2 1_555 1_555
N8_2 Ag1 1_555 1_555
O1A Ag1 1_555 1_555
C5 N1 1_555 1_555
C10 N2 1_555 1_555
C15 N3 1_555 1_555
C19 C20 1_555 1_555
C20 N4 1_555 1_555
C24 C25 1_555 1_555
C24 N5 1_555 1_555
C29 C30 1_555 1_555
C29 N6 1_555 1_555
C34 C35 1_555 1_555
C34 N7 1_555 1_555
C39 C40 1_555 1_555
C39 N8 1_555 1_555
O1 S1 1_555 1_555
S2 O5 1_555 1_555
Ag1A O1A 1_555 1_555

#END
