
#######################################################################
#
#                 Cambridge Crystallographic Data Centre
#                                CCDC 
#
#######################################################################
#
# If this CIF has been generated from an entry in the Cambridge 
# Structural Database, then it will include bibliographic, chemical, 
# crystal, experimental, refinement or atomic coordinate data resulting 
# from the CCDC's data processing and validation procedures.
#
#######################################################################

data_FEWRAB
_symmetry_cell_setting           triclinic
_symmetry_space_group_name_H-M   'P -1'
_symmetry_Int_Tables_number      2
_space_group_name_Hall           '-P 1'
loop_
_symmetry_equiv_pos_site_id
_symmetry_equiv_pos_as_xyz
1 x,y,z
2 -x,-y,-z
_cell_length_a                   8.341(2)
_cell_length_b                   11.540(2)
_cell_length_c                   11.685(2)
_cell_angle_alpha                90.63(3)
_cell_angle_beta                 91.84(3)
_cell_angle_gamma                98.94(3)
_cell_volume                     1110.36
loop_
_atom_site_label
_atom_site_type_symbol
_atom_site_fract_x
_atom_site_fract_y
_atom_site_fract_z
Mn1 Mn 0.50585(10) 0.51884(8) 0.85567(7)
Mn2 Mn 0.0000 0.5000 0.5000
N1 N 0.6151(6) 0.4196(5) 0.9927(4)
N2 N 0.6440(6) 0.3254(5) 0.9752(4)
N3 N 0.6740(7) 0.2323(6) 0.9582(5)
N4 N 0.3747(6) 0.6275(5) 0.7434(4)
N5 N 0.2458(6) 0.5979(4) 0.7014(4)
N6 N 0.1140(6) 0.5710(5) 0.6617(4)
N7 N -0.3619(7) 0.4355(5) 0.7279(5)
N8 N -0.2756(6) 0.4115(4) 0.6576(4)
N9 N -0.1920(6) 0.3847(4) 0.5874(4)
N10 N 0.2969(6) 0.3681(5) 0.8280(4)
C1 C 0.1451(7) 0.3816(6) 0.8477(5)
H1 H 0.1277 0.4477 0.8888
C2 C 0.0112(7) 0.3022(5) 0.8104(5)
H2 H -0.0933 0.3147 0.8265
C3 C 0.0355(8) 0.2067(5) 0.7503(5)
C4 C 0.1924(8) 0.1866(5) 0.7335(5)
H3 H 0.2121 0.1185 0.6970
C5 C 0.3186(8) 0.2709(6) 0.7727(5)
H4 H 0.4243 0.2590 0.7597
N11 N -0.0907(7) 0.1190(5) 0.7018(4)
N12 N -0.2230(7) 0.1390(4) 0.7068(4)
N13 N -0.3611(7) 0.1449(5) 0.7006(5)
N14 N 0.7103(6) 0.6697(5) 0.8623(4)
C6 C 0.6853(8) 0.7800(6) 0.8772(5)
H5 H 0.5785 0.7934 0.8811
C7 C 0.8031(8) 0.8728(6) 0.8870(5)
H6 H 0.7779 0.9476 0.8995
C8 C 0.9632(8) 0.8561(6) 0.8782(5)
C9 C 0.9941(7) 0.7433(6) 0.8613(5)
H7 H 1.0998 0.7282 0.8554
C10 C 0.8652(7) 0.6547(6) 0.8533(5)
H8 H 0.8865 0.5789 0.8409
N15 N 1.0899(8) 0.9579(5) 0.8839(5)
N16 N 1.2122(9) 0.9458(4) 0.8690(4)
N17 N 1.3550(9) 0.9504(6) 0.8526(6)
N18 N 0.1538(6) 0.3572(4) 0.4918(4)
C11 C 0.0870(8) 0.2517(6) 0.4530(5)
H9 H -0.0254 0.2363 0.4432
C12 C 0.1728(7) 0.1645(6) 0.4267(5)
H10 H 0.1203 0.0913 0.4011
C13 C 0.3398(8) 0.1875(6) 0.4389(5)
C14 C 0.4126(8) 0.2949(6) 0.4813(5)
H11 H 0.5246 0.3116 0.4929
C15 C 0.3164(7) 0.3762(5) 0.5059(5)
H12 H 0.3660 0.4491 0.5342
N19 N 0.4248(8) 0.0945(5) 0.4067(5)
N20 N 0.5606(7) 0.1139(4) 0.4078(4)
N21 N 0.7024(8) 0.1180(6) 0.4067(6)
Mn1A Mn -0.50585(10) 0.48116(8) 0.14433(7)
Mn1A_2 Mn 0.49415(10) 0.48116(8) 1.14433(7)
Mn1_2 Mn -0.49415(10) 0.51884(8) 0.85567(7)
Mn1A_3 Mn 0.49415(10) 0.48116(8) 0.14433(7)
N1A N 0.3849(6) 0.5804(5) 1.0073(4)
N1_2 N -0.3849(6) 0.4196(5) -0.0073(4)
N1A_2 N -0.6151(6) 0.5804(5) 0.0073(4)
N2A N 0.3560(6) 0.6746(5) 1.0248(4)
N3A N 0.3260(7) 0.7677(6) 1.0418(5)
N4A N -0.3747(6) 0.3725(5) 0.2566(4)
N5A N -0.2458(6) 0.4021(4) 0.2986(4)
N6A N -0.1140(6) 0.4290(5) 0.3383(4)
N7A N 0.3619(7) 0.5645(5) 0.2721(5)
N7_2 N 0.6381(7) 0.4355(5) 0.7279(5)
N7A_2 N -0.6381(7) 0.5645(5) 0.2721(5)
N8A N 0.2756(6) 0.5885(4) 0.3424(4)
N9A N 0.1920(6) 0.6153(4) 0.4126(4)
N10A N -0.2969(6) 0.6319(5) 0.1720(4)
C1A C -0.1451(7) 0.6184(6) 0.1523(5)
H1A H -0.1277 0.5523 0.1112
C2A C -0.0112(7) 0.6978(5) 0.1896(5)
H2A H 0.0933 0.6853 0.1735
C3A C -0.0355(8) 0.7933(5) 0.2497(5)
C4A C -0.1924(8) 0.8134(5) 0.2665(5)
H3A H -0.2121 0.8815 0.3030
C5A C -0.3186(8) 0.7291(6) 0.2273(5)
H4A H -0.4243 0.7410 0.2403
N11A N 0.0907(7) 0.8810(5) 0.2982(4)
N12A N 0.2230(7) 0.8610(4) 0.2932(4)
N13A N 0.3611(7) 0.8551(5) 0.2994(5)
N14A N -0.7103(6) 0.3303(5) 0.1377(4)
C6A C -0.6853(8) 0.2200(6) 0.1228(5)
H5A H -0.5785 0.2066 0.1189
C7A C -0.8031(8) 0.1272(6) 0.1130(5)
H6A H -0.7779 0.0524 0.1005
C8A C -0.9632(8) 0.1439(6) 0.1218(5)
C9A C -0.9941(7) 0.2567(6) 0.1387(5)
H7A H -1.0998 0.2718 0.1446
C10A C -0.8652(7) 0.3453(6) 0.1467(5)
H8A H -0.8865 0.4211 0.1591
N15A N -1.0899(8) 0.0421(5) 0.1161(5)
N16A N -1.2122(9) 0.0542(4) 0.1310(4)
N17A N -1.3550(9) 0.0496(6) 0.1474(6)
N18A N -0.1538(6) 0.6428(4) 0.5082(4)
C11A C -0.0870(8) 0.7483(6) 0.5470(5)
H9A H 0.0254 0.7637 0.5568
C12A C -0.1728(7) 0.8355(6) 0.5733(5)
H10A H -0.1203 0.9087 0.5989
C13A C -0.3398(8) 0.8125(6) 0.5611(5)
C14A C -0.4126(8) 0.7051(6) 0.5187(5)
H11A H -0.5246 0.6884 0.5071
C15A C -0.3164(7) 0.6238(5) 0.4941(5)
H12A H -0.3660 0.5509 0.4658
N19A N -0.4248(8) 0.9055(5) 0.5933(5)
N20A N -0.5606(7) 0.8861(4) 0.5922(4)
N21A N -0.7024(8) 0.8820(6) 0.5933(6)
loop_
_geom_bond_atom_site_label_1
_geom_bond_atom_site_label_2
_geom_bond_site_symmetry_1
_geom_bond_site_symmetry_2
Mn1 N1 1_555 1_555
Mn2 N6 1_555 1_555
N1 N2 1_555 1_555
N2 N3 1_555 1_555
N4 Mn1 1_555 1_555
N5 N4 1_555 1_555
N6 N5 1_555 1_555
N7 N8 1_555 1_555
N8 N9 1_555 1_555
N9 Mn2 1_555 1_555
N10 Mn1 1_555 1_555
C1 N10 1_555 1_555
H1 C1 1_555 1_555
C2 C1 1_555 1_555
H2 C2 1_555 1_555
C3 C2 1_555 1_555
C4 C3 1_555 1_555
H3 C4 1_555 1_555
C5 N10 1_555 1_555
H4 C5 1_555 1_555
N11 C3 1_555 1_555
N12 N11 1_555 1_555
N13 N12 1_555 1_555
N14 Mn1 1_555 1_555
C6 N14 1_555 1_555
H5 C6 1_555 1_555
C7 C6 1_555 1_555
H6 C7 1_555 1_555
C8 C7 1_555 1_555
C9 C8 1_555 1_555
H7 C9 1_555 1_555
C10 N14 1_555 1_555
H8 C10 1_555 1_555
N15 C8 1_555 1_555
N16 N15 1_555 1_555
N17 N16 1_555 1_555
N18 Mn2 1_555 1_555
C11 N18 1_555 1_555
H9 C11 1_555 1_555
C12 C11 1_555 1_555
H10 C12 1_555 1_555
C13 C12 1_555 1_555
C14 C13 1_555 1_555
H11 C14 1_555 1_555
C15 N18 1_555 1_555
H12 C15 1_555 1_555
N19 C13 1_555 1_555
N20 N19 1_555 1_555
N21 N20 1_555 1_555
Mn1A N1_2 1_555 1_555
Mn1A_2 N1 1_555 1_555
Mn1_2 N7 1_555 1_555
Mn1A_3 N7A 1_555 1_555
N1A Mn1 1_555 1_555
N1A_2 Mn1A 1_555 1_555
N2A N1A 1_555 1_555
N3A N2A 1_555 1_555
N4A Mn1A 1_555 1_555
N5A N4A 1_555 1_555
N6A Mn2 1_555 1_555
N7A N8A 1_555 1_555
N7_2 Mn1 1_555 1_555
N7A_2 Mn1A 1_555 1_555
N8A N9A 1_555 1_555
N9A Mn2 1_555 1_555
N10A Mn1A 1_555 1_555
C1A N10A 1_555 1_555
H1A C1A 1_555 1_555
C2A C1A 1_555 1_555
H2A C2A 1_555 1_555
C3A C2A 1_555 1_555
C4A C3A 1_555 1_555
H3A C4A 1_555 1_555
C5A N10A 1_555 1_555
H4A C5A 1_555 1_555
N11A C3A 1_555 1_555
N12A N11A 1_555 1_555
N13A N12A 1_555 1_555
N14A Mn1A 1_555 1_555
C6A N14A 1_555 1_555
H5A C6A 1_555 1_555
C7A C6A 1_555 1_555
H6A C7A 1_555 1_555
C8A C7A 1_555 1_555
C9A C8A 1_555 1_555
H7A C9A 1_555 1_555
C10A N14A 1_555 1_555
H8A C10A 1_555 1_555
N15A C8A 1_555 1_555
N16A N15A 1_555 1_555
N17A N16A 1_555 1_555
N18A Mn2 1_555 1_555
C11A N18A 1_555 1_555
H9A C11A 1_555 1_555
C12A C11A 1_555 1_555
H10A C12A 1_555 1_555
C13A C12A 1_555 1_555
C14A C13A 1_555 1_555
H11A C14A 1_555 1_555
C15A N18A 1_555 1_555
H12A C15A 1_555 1_555
N19A C13A 1_555 1_555
N20A N19A 1_555 1_555
N21A N20A 1_555 1_555
C4 C5 1_555 1_555
C9 C10 1_555 1_555
C14 C15 1_555 1_555
Mn1A_2 N1A 1_555 1_555
N5A N6A 1_555 1_555
C4A C5A 1_555 1_555
C9A C10A 1_555 1_555
C14A C15A 1_555 1_555

#END
