
#######################################################################
#
#                 Cambridge Crystallographic Data Centre
#                                CCDC 
#
#######################################################################
#
# If this CIF has been generated from an entry in the Cambridge 
# Structural Database, then it will include bibliographic, chemical, 
# crystal, experimental, refinement or atomic coordinate data resulting 
# from the CCDC's data processing and validation procedures.
#
#######################################################################

data_FEXCES
_symmetry_cell_setting           trigonal
_symmetry_space_group_name_H-M   'P 31 2 1'
_symmetry_Int_Tables_number      152
_space_group_name_Hall           'P 31 2"'
loop_
_symmetry_equiv_pos_site_id
_symmetry_equiv_pos_as_xyz
1 x,y,z
2 -y,x-y,1/3+z
3 -x+y,-x,2/3+z
4 y,x,-z
5 x-y,-y,2/3-z
6 -x,-x+y,1/3-z
_cell_length_a                   11.050(3)
_cell_length_b                   11.050(3)
_cell_length_c                   27.772(10)
_cell_angle_alpha                90
_cell_angle_beta                 90
_cell_angle_gamma                120
_cell_volume                     2936.72
loop_
_atom_site_label
_atom_site_type_symbol
_atom_site_fract_x
_atom_site_fract_y
_atom_site_fract_z
N1 N 0.1503(4) 0.6878(4) 0.28022(13)
C1 C 0.2400(5) 0.7207(5) 0.24356(16)
H1 H 0.2536 0.7932 0.2231
C2 C 0.3142(5) 0.6512(5) 0.23461(16)
C3 C 0.2906(5) 0.5438(5) 0.26526(17)
H2 H 0.3365 0.4938 0.2602
C4 C 0.1974(5) 0.5090(5) 0.30424(17)
C5 C 0.1245(5) 0.5834(5) 0.30878(16)
H3 H 0.0568 0.5576 0.3326
C6 C 0.1680(5) 0.3923(5) 0.33822(17)
C7 C 0.4129(5) 0.6947(5) 0.19330(16)
C8 C 0.3844(6) 0.7423(5) 0.15122(17)
H4 H 0.3069 0.7540 0.1493
C9 C 0.4729(5) 0.7726(6) 0.11163(17)
H5 H 0.4543 0.8067 0.0836
C10 C 0.5898(5) 0.7531(5) 0.11285(17)
C11 C 0.6213(5) 0.7110(6) 0.15750(19)
H6 H 0.7019 0.7047 0.1603
C12 C 0.5325(5) 0.6793(6) 0.19669(17)
H7 H 0.5515 0.6479 0.2252
C13 C 0.6828(5) 0.7801(4) 0.07048(18)
O1 O 0.7793(4) 0.7539(3) 0.07519(11)
O2 O 0.6508(4) 0.8187(4) 0.03262(12)
O3 O 0.2261(4) 0.3225(3) 0.32827(12)
O4 O 0.0928(5) 0.3746(4) 0.37317(15)
O5 O 0.9572(4) 0.9572(4) 0.0000
H8 H 1.0184 0.9846 -0.0222
O6 O 1.0601(4) 0.8615(4) 0.08851(12)
H9 H 1.0309 0.8050 0.1121
H10 H 1.1473 0.8923 0.0859
Co1 Co 0.92301(6) 0.75378(6) 0.02925(2)
H8C H 0.9846 1.0184 0.0222
N1C N 0.6878(4) 0.1503(4) -0.28022(13)
C1C C 0.7207(5) 0.2400(5) -0.24356(16)
H1C H 0.7932 0.2536 -0.2231
C2C C 0.6512(5) 0.3142(5) -0.23461(16)
C3C C 0.5438(5) 0.2906(5) -0.26526(17)
H2C H 0.4938 0.3365 -0.2602
C4C C 0.5090(5) 0.1974(5) -0.30424(17)
C5C C 0.5834(5) 0.1245(5) -0.30878(16)
H3C H 0.5576 0.0568 -0.3326
C6C C 0.3923(5) 0.1680(5) -0.33822(17)
C7C C 0.6947(5) 0.4129(5) -0.19330(16)
C8C C 0.7423(5) 0.3844(6) -0.15122(17)
H4C H 0.7540 0.3069 -0.1493
C9C C 0.7726(6) 0.4729(5) -0.11163(17)
H5C H 0.8067 0.4543 -0.0836
C10C C 0.7531(5) 0.5898(5) -0.11285(17)
C11C C 0.7110(6) 0.6213(5) -0.15750(19)
H6C H 0.7047 0.7019 -0.1603
C12C C 0.6793(6) 0.5325(5) -0.19669(17)
H7C H 0.6479 0.5515 -0.2252
C13C C 0.7801(4) 0.6828(5) -0.07048(18)
O1C O 0.7539(3) 0.7793(4) -0.07519(11)
O2C O 0.8187(4) 0.6508(4) -0.03262(12)
O3C O 0.3225(3) 0.2261(4) -0.32827(12)
O4C O 0.3746(4) 0.0928(5) -0.37317(15)
O6C O 0.8615(4) 1.0601(4) -0.08851(12)
H9C H 0.8050 1.0309 -0.1121
H10C H 0.8923 1.1473 -0.0859
Co1C Co 0.75378(6) 0.92301(6) -0.02925(2)
N1B N 0.5375(6) 0.8497(4) -0.05311(13)
N1E N 0.8497(4) 0.5375(6) 0.05311(13)
O3B O 1.0964(5) 0.7739(4) -0.00506(12)
O3E O 0.7739(4) 1.0964(5) 0.00506(12)
Co1A Co 0.24622(6) 0.16923(8) 0.36258(2)
Co1B Co 0.83077(8) 0.07699(6) -0.30408(2)
Co1D Co 0.16923(8) 0.24622(6) -0.36258(2)
Co1E Co 0.07699(6) 0.83077(8) 0.30408(2)
loop_
_geom_bond_atom_site_label_1
_geom_bond_atom_site_label_2
_geom_bond_site_symmetry_1
_geom_bond_site_symmetry_2
N1 C1 1_555 1_555
C1 H1 1_555 1_555
C2 C1 1_555 1_555
C3 C2 1_555 1_555
H2 C3 1_555 1_555
C4 C3 1_555 1_555
C5 N1 1_555 1_555
H3 C5 1_555 1_555
C6 C4 1_555 1_555
C7 C2 1_555 1_555
C8 C7 1_555 1_555
H4 C8 1_555 1_555
C9 C8 1_555 1_555
H5 C9 1_555 1_555
C10 C9 1_555 1_555
C11 C10 1_555 1_555
H6 C11 1_555 1_555
C12 C7 1_555 1_555
H7 C12 1_555 1_555
C13 C10 1_555 1_555
O1 C13 1_555 1_555
O2 C13 1_555 1_555
O3 C6 1_555 1_555
O4 C6 1_555 1_555
O5 H8 1_555 1_555
O6 H9 1_555 1_555
H10 O6 1_555 1_555
Co1 O1 1_555 1_555
H8C O5 1_555 1_555
N1C C1C 1_555 1_555
C1C H1C 1_555 1_555
C2C C1C 1_555 1_555
C3C C2C 1_555 1_555
H2C C3C 1_555 1_555
C4C C3C 1_555 1_555
C5C N1C 1_555 1_555
H3C C5C 1_555 1_555
C6C C4C 1_555 1_555
C7C C2C 1_555 1_555
C8C C7C 1_555 1_555
H4C C8C 1_555 1_555
C9C C8C 1_555 1_555
H5C C9C 1_555 1_555
C10C C9C 1_555 1_555
C11C C10C 1_555 1_555
H6C C11C 1_555 1_555
C12C C7C 1_555 1_555
H7C C12C 1_555 1_555
C13C C10C 1_555 1_555
O1C C13C 1_555 1_555
O2C Co1 1_555 1_555
O3C C6C 1_555 1_555
O4C C6C 1_555 1_555
O6C H9C 1_555 1_555
H10C O6C 1_555 1_555
Co1C O2 1_555 1_555
N1B Co1C 1_555 1_555
N1E Co1 1_555 1_555
O3B Co1 1_555 1_555
O3E Co1C 1_555 1_555
Co1A O3 1_555 1_555
Co1B N1C 1_555 1_555
Co1D O3C 1_555 1_555
Co1E N1 1_555 1_555
C4 C5 1_555 1_555
C11 C12 1_555 1_555
O5 Co1 1_555 1_555
O5 Co1C 1_555 1_555
O6 Co1 1_555 1_555
C4C C5C 1_555 1_555
C11C C12C 1_555 1_555
C13C O2C 1_555 1_555
O1C Co1C 1_555 1_555
O6C Co1C 1_555 1_555

#END
