
#######################################################################
#
#                 Cambridge Crystallographic Data Centre
#                                CCDC 
#
#######################################################################
#
# If this CIF has been generated from an entry in the Cambridge 
# Structural Database, then it will include bibliographic, chemical, 
# crystal, experimental, refinement or atomic coordinate data resulting 
# from the CCDC's data processing and validation procedures.
#
#######################################################################

data_FEXFUL
_symmetry_cell_setting           orthorhombic
_symmetry_space_group_name_H-M   'P b c a'
_symmetry_Int_Tables_number      61
_space_group_name_Hall           '-P 2ac 2ab'
loop_
_symmetry_equiv_pos_site_id
_symmetry_equiv_pos_as_xyz
1 x,y,z
2 1/2-x,-y,1/2+z
3 -x,1/2+y,1/2-z
4 1/2+x,1/2-y,-z
5 -x,-y,-z
6 1/2+x,y,1/2-z
7 x,1/2-y,1/2+z
8 1/2-x,1/2+y,z
_cell_length_a                   19.1165(13)
_cell_length_b                   16.6111(11)
_cell_length_c                   28.7154(19)
_cell_angle_alpha                90
_cell_angle_beta                 90
_cell_angle_gamma                90
_cell_volume                     9118.46
loop_
_atom_site_label
_atom_site_type_symbol
_atom_site_fract_x
_atom_site_fract_y
_atom_site_fract_z
Cu1 Cu 0.13739(3) 0.29873(4) 0.26011(2)
S1 S -0.22041(8) 0.42996(10) 0.39878(5)
S2 S 0.08499(8) 0.31374(10) 0.40917(5)
C1 C -0.3292(3) 0.3506(3) 0.3326(2)
C2 C -0.3533(3) 0.3723(3) 0.38088(19)
C3 C -0.4216(3) 0.3549(4) 0.3938(2)
H1 H -0.4511 0.3299 0.3725
C4 C -0.4470(4) 0.3736(5) 0.4375(2)
H2 H -0.4926 0.3605 0.4458
C5 C -0.4040(3) 0.4117(5) 0.4686(2)
H3 H -0.4207 0.4248 0.4980
C6 C -0.3362(3) 0.4307(5) 0.4567(2)
H4 H -0.3080 0.4576 0.4780
C7 C -0.3090(3) 0.4103(4) 0.4131(2)
C8 C -0.1091(3) 0.4890(4) 0.44354(19)
C9 C -0.0831(3) 0.5605(4) 0.4240(2)
C10 C -0.0117(3) 0.5646(3) 0.41806(19)
C11 C 0.0361(3) 0.5048(4) 0.42900(19)
C12 C 0.0089(3) 0.4341(4) 0.44810(19)
C13 C -0.0624(3) 0.4278(4) 0.45464(19)
H5 H -0.0800 0.3802 0.4671
C14 C -0.1862(3) 0.4759(4) 0.4518(2)
H6 H -0.2094 0.5268 0.4578
H7 H -0.1935 0.4407 0.4783
C15 C -0.1292(3) 0.6303(4) 0.4097(2)
H8 H -0.1204 0.6437 0.3777
H9 H -0.1190 0.6761 0.4290
H10 H -0.1774 0.6156 0.4134
C16 C 0.1143(3) 0.5161(4) 0.4210(2)
H11 H 0.1226 0.5684 0.4079
H12 H 0.1309 0.4756 0.3999
H13 H 0.1386 0.5115 0.4501
C17 C 0.0563(3) 0.3659(4) 0.46218(19)
H14 H 0.0315 0.3289 0.4824
H15 H 0.0965 0.3866 0.4790
C18 C 0.1663(3) 0.2714(3) 0.4265(2)
C19 C 0.1806(4) 0.2588(4) 0.4736(2)
H16 H 0.1462 0.2696 0.4956
C20 C 0.2447(4) 0.2308(5) 0.4879(2)
H17 H 0.2537 0.2243 0.5195
C21 C 0.2956(4) 0.2123(5) 0.4560(2)
H18 H 0.3390 0.1935 0.4657
C22 C 0.2809(3) 0.2222(4) 0.4089(2)
H19 H 0.3151 0.2088 0.3872
C23 C 0.2178(3) 0.2511(3) 0.39331(19)
C24 C 0.2083(3) 0.2615(3) 0.34148(19)
C25 C 0.1046(4) 0.4720(4) 0.2576(2)
H20 H 0.0672 0.4535 0.2398
C26 C 0.1104(4) 0.5531(4) 0.2657(3)
H21 H 0.0774 0.5888 0.2538
C27 C 0.1660(4) 0.5808(4) 0.2916(2)
H22 H 0.1711 0.6354 0.2977
C28 C 0.2130(4) 0.5266(4) 0.3081(2)
H23 H 0.2512 0.5440 0.3254
C29 C 0.2039(3) 0.4461(4) 0.2990(2)
H24 H 0.2364 0.4096 0.3107
C30 C -0.0197(3) 0.2752(4) 0.2298(2)
H25 H 0.0031 0.2541 0.2039
C31 C -0.0910(3) 0.2822(4) 0.2285(2)
H26 H -0.1158 0.2667 0.2021
C32 C -0.1253(3) 0.3121(4) 0.2662(3)
H27 H -0.1738 0.3174 0.2661
C33 C -0.0870(4) 0.3343(5) 0.3045(2)
H28 H -0.1091 0.3543 0.3310
C34 C -0.0156(3) 0.3265(4) 0.3030(2)
H29 H 0.0102 0.3424 0.3289
C35 C 0.2049(3) 0.1633(4) 0.2118(2)
H30 H 0.2331 0.2043 0.2003
C36 C 0.2173(3) 0.0863(4) 0.1972(2)
H31 H 0.2536 0.0756 0.1765
C37 C 0.1760(4) 0.0255(4) 0.2131(2)
H32 H 0.1833 -0.0272 0.2034
C38 C 0.1234(4) 0.0439(4) 0.2440(2)
H33 H 0.0943 0.0036 0.2554
C39 C 0.1141(3) 0.1231(4) 0.2581(2)
H34 H 0.0790 0.1351 0.2794
N1 N 0.1504(3) 0.4183(3) 0.27417(16)
N2 N 0.0187(2) 0.2973(3) 0.26632(16)
N3 N 0.1541(2) 0.1825(3) 0.24184(15)
N4 N 0.0166(3) 0.6403(4) 0.3992(2)
O1 O -0.37767(19) 0.3237(2) 0.30573(13)
O2 O -0.2676(2) 0.3588(3) 0.32148(14)
O3 O 0.2607(2) 0.2601(3) 0.31617(14)
O4 O 0.14616(19) 0.2722(2) 0.32704(13)
O5 O 0.0330(3) 0.6929(3) 0.4267(2)
O6 O 0.0235(4) 0.6469(4) 0.3574(2)
Cu1E Cu -0.36261(3) 0.29873(4) 0.23989(2)
O1E O 0.12233(19) 0.3237(2) 0.19427(13)
S3 S 0.8714(3) 0.1941(6) 0.4100(5)
C40 C 0.9298(8) 0.1531(9) 0.4495(5)
H35 H 0.9176 0.1700 0.4804
H36 H 0.9763 0.1710 0.4422
H37 H 0.9279 0.0954 0.4477
C41 C 0.9143(10) 0.1144(12) 0.3749(6)
H38 H 0.8804 0.0899 0.3546
H39 H 0.9336 0.0744 0.3952
H40 H 0.9510 0.1378 0.3565
O7 O 0.8054(11) 0.1434(13) 0.4215(7)
C42 C 0.0849(8) 0.9501(7) 0.3607(5)
H41 H 0.0576 0.9191 0.3408
C43 C 0.1296(7) 0.9095(7) 0.3853(5)
H42 H 0.1313 0.8537 0.3829
C44 C 0.1785(7) 0.9527(11) 0.4175(5)
H43 H 0.2122 0.9279 0.4360
C45 C 0.1653(7) 1.0410(7) 0.4158(3)
H44 H 0.1906 1.0773 0.4339
C46 C 0.1154(7) 1.0647(7) 0.3869(4)
H45 H 0.1099 1.1203 0.3862
N5 N 0.0720(6) 1.0270(7) 0.3591(4)
loop_
_geom_bond_atom_site_label_1
_geom_bond_atom_site_label_2
_geom_bond_site_symmetry_1
_geom_bond_site_symmetry_2
Cu1 N1 1_555 1_555
S1 C7 1_555 1_555
S2 C17 1_555 1_555
C1 C2 1_555 1_555
C2 C3 1_555 1_555
C3 H1 1_555 1_555
C4 C3 1_555 1_555
H2 C4 1_555 1_555
C5 C4 1_555 1_555
H3 C5 1_555 1_555
C6 C5 1_555 1_555
H4 C6 1_555 1_555
C7 C2 1_555 1_555
C8 C9 1_555 1_555
C9 C10 1_555 1_555
C10 C11 1_555 1_555
C11 C12 1_555 1_555
C12 C13 1_555 1_555
C13 C8 1_555 1_555
H5 C13 1_555 1_555
C14 S1 1_555 1_555
H6 C14 1_555 1_555
H7 C14 1_555 1_555
C15 C9 1_555 1_555
H8 C15 1_555 1_555
H9 C15 1_555 1_555
H10 C15 1_555 1_555
C16 C11 1_555 1_555
H11 C16 1_555 1_555
H12 C16 1_555 1_555
H13 C16 1_555 1_555
C17 C12 1_555 1_555
H14 C17 1_555 1_555
H15 C17 1_555 1_555
C18 S2 1_555 1_555
C19 C18 1_555 1_555
H16 C19 1_555 1_555
C20 C19 1_555 1_555
H17 C20 1_555 1_555
C21 C20 1_555 1_555
H18 C21 1_555 1_555
C22 C21 1_555 1_555
H19 C22 1_555 1_555
C23 C18 1_555 1_555
C24 C23 1_555 1_555
C25 H20 1_555 1_555
C26 C25 1_555 1_555
H21 C26 1_555 1_555
C27 C26 1_555 1_555
H22 C27 1_555 1_555
C28 C27 1_555 1_555
H23 C28 1_555 1_555
C29 C28 1_555 1_555
H24 C29 1_555 1_555
C30 H25 1_555 1_555
C31 C30 1_555 1_555
H26 C31 1_555 1_555
C32 C31 1_555 1_555
H27 C32 1_555 1_555
C33 C32 1_555 1_555
H28 C33 1_555 1_555
C34 C33 1_555 1_555
H29 C34 1_555 1_555
C35 H30 1_555 1_555
C36 C35 1_555 1_555
H31 C36 1_555 1_555
C37 C36 1_555 1_555
H32 C37 1_555 1_555
C38 C37 1_555 1_555
H33 C38 1_555 1_555
C39 C38 1_555 1_555
H34 C39 1_555 1_555
N1 C25 1_555 1_555
N2 Cu1 1_555 1_555
N3 Cu1 1_555 1_555
N4 C10 1_555 1_555
O1 C1 1_555 1_555
O2 C1 1_555 1_555
O3 C24 1_555 1_555
O4 Cu1 1_555 1_555
O5 N4 1_555 1_555
O6 N4 1_555 1_555
S3 C40 1_555 1_555
C40 H35 1_555 1_555
H36 C40 1_555 1_555
H37 C40 1_555 1_555
C41 S3 1_555 1_555
H38 C41 1_555 1_555
H39 C41 1_555 1_555
H40 C41 1_555 1_555
O7 S3 1_555 1_555
C42 H41 1_555 1_555
C43 C42 1_555 1_555
H42 C43 1_555 1_555
C44 C43 1_555 1_555
H43 C44 1_555 1_555
C45 C44 1_555 1_555
H44 C45 1_555 1_555
C46 C45 1_555 1_555
H45 C46 1_555 1_555
N5 C42 1_555 1_555
Cu1E O1 1_555 1_555
O1E Cu1 1_555 1_555
C6 C7 1_555 1_555
C8 C14 1_555 1_555
C22 C23 1_555 1_555
C24 O4 1_555 1_555
C29 N1 1_555 1_555
C30 N2 1_555 1_555
C34 N2 1_555 1_555
C35 N3 1_555 1_555
C39 N3 1_555 1_555
C46 N5 1_555 1_555

#END
