
#######################################################################
#
#                 Cambridge Crystallographic Data Centre
#                                CCDC 
#
#######################################################################
#
# If this CIF has been generated from an entry in the Cambridge 
# Structural Database, then it will include bibliographic, chemical, 
# crystal, experimental, refinement or atomic coordinate data resulting 
# from the CCDC's data processing and validation procedures.
#
#######################################################################

data_FEXTIL
_symmetry_cell_setting           tetragonal
_symmetry_space_group_name_H-M   'I 41/a c d'
_symmetry_Int_Tables_number      142
_space_group_name_Hall           '-I 4bd 2c'
loop_
_symmetry_equiv_pos_site_id
_symmetry_equiv_pos_as_xyz
1 x,y,z
2 1/2+x,1/2+y,1/2+z
3 3/4-y,1/4+x,3/4+z
4 1/4-y,3/4+x,1/4+z
5 1/2-x,-y,1/2+z
6 -x,1/2-y,z
7 3/4+y,3/4-x,1/4+z
8 1/4+y,1/4-x,3/4+z
9 x,-y,1/2-z
10 1/2+x,1/2-y,-z
11 3/4-y,3/4-x,3/4-z
12 1/4-y,1/4-x,1/4-z
13 1/2-x,y,-z
14 -x,1/2+y,1/2-z
15 3/4+y,1/4+x,1/4-z
16 1/4+y,3/4+x,3/4-z
17 -x,-y,-z
18 1/2-x,1/2-y,1/2-z
19 1/4+y,3/4-x,1/4-z
20 3/4+y,1/4-x,3/4-z
21 1/2+x,y,1/2-z
22 x,1/2+y,-z
23 1/4-y,1/4+x,3/4-z
24 3/4-y,3/4+x,1/4-z
25 -x,y,1/2+z
26 1/2-x,1/2+y,z
27 1/4+y,1/4+x,1/4+z
28 3/4+y,3/4+x,3/4+z
29 1/2+x,-y,z
30 x,1/2-y,1/2+z
31 1/4-y,3/4-x,3/4+z
32 3/4-y,1/4-x,1/4+z
_cell_length_a                   15.069(4)
_cell_length_b                   15.069(4)
_cell_length_c                   14.391(3)
_cell_angle_alpha                90
_cell_angle_beta                 90
_cell_angle_gamma                90
_cell_volume                     3267.83
loop_
_atom_site_label
_atom_site_type_symbol
_atom_site_fract_x
_atom_site_fract_y
_atom_site_fract_z
Ag1 Ag 0.0000 0.2500 0.125
N1 N 0.1015(3) 0.1485(3) 0.125
C1 C 0.1879(4) 0.1708(4) 0.1268(8)
C2 C 0.2542(5) 0.1085(5) 0.1263(7)
C3 C 0.2305(4) 0.0195(4) 0.125
C4 C 0.2084(4) 0.2696(4) 0.1285(12)
B1 B 0.0000 0.2500 0.375
F1 F 0.0440(3) 0.3089(3) 0.3195(3)
H1 H 0.278 -0.028 0.125
H2 H 0.280 0.280 0.131
H3 H 0.181 0.300 0.069
H4 H 0.180 0.297 0.172
N1E N -0.1015(3) 0.3515(3) 0.125
F1E F -0.0440(3) 0.1911(3) 0.3195(3)
F1K F -0.0589(3) 0.2060(3) -0.0695(3)
F1N F 0.0589(3) 0.2940(3) -0.0695(3)
C1K C 0.0792(4) 0.0621(4) 0.1232(8)
C2K C 0.1415(5) -0.0042(5) 0.1237(7)
F1S F 0.0589(3) 0.2060(3) 0.4305(3)
F1V F -0.0589(3) 0.2940(3) 0.4305(3)
C1E C -0.1879(4) 0.3292(4) 0.1268(8)
C1N C -0.0792(4) 0.4379(4) 0.1232(8)
C4K C -0.0196(4) 0.0416(4) 0.1215(12)
Ag1X Ag 0.0000 0.2500 0.625
C2E C -0.2542(5) 0.3915(5) 0.1263(7)
C4E C -0.2084(4) 0.2304(4) 0.1285(12)
C2N C -0.1415(5) 0.5042(5) 0.1237(7)
C4N C 0.0196(4) 0.4584(4) 0.1215(12)
H2K H -0.030 -0.030 0.119
H3K H -0.050 0.069 0.181
H4K H -0.047 0.070 0.078
C3E C -0.2305(4) 0.4805(4) 0.125
H2E H -0.280 0.220 0.131
H3E H -0.181 0.200 0.069
H4E H -0.180 0.203 0.172
H2N H 0.030 0.530 0.119
H3N H 0.050 0.431 0.181
H4N H 0.047 0.430 0.078
H1E H -0.278 0.528 0.125
loop_
_geom_bond_atom_site_label_1
_geom_bond_atom_site_label_2
_geom_bond_site_symmetry_1
_geom_bond_site_symmetry_2
Ag1 N1 1_555 1_555
N1 C1 1_555 1_555
C1 C2 1_555 1_555
C2 C3 1_555 1_555
C3 H1 1_555 1_555
C4 C1 1_555 1_555
B1 F1 1_555 1_555
F1 Ag1 1_555 1_555
H2 C4 1_555 1_555
H3 C4 1_555 1_555
H4 C4 1_555 1_555
N1E Ag1 1_555 1_555
F1E Ag1 1_555 1_555
F1K Ag1 1_555 1_555
F1N Ag1 1_555 1_555
C1K N1 1_555 1_555
C2K C3 1_555 1_555
F1S B1 1_555 1_555
F1V B1 1_555 1_555
C1E N1E 1_555 1_555
C1N N1E 1_555 1_555
C4K C1K 1_555 1_555
Ag1X F1S 1_555 1_555
C2E C1E 1_555 1_555
C4E C1E 1_555 1_555
C2N C1N 1_555 1_555
C4N C1N 1_555 1_555
H2K C4K 1_555 1_555
H3K C4K 1_555 1_555
H4K C4K 1_555 1_555
C3E C2E 1_555 1_555
H2E C4E 1_555 1_555
H3E C4E 1_555 1_555
H4E C4E 1_555 1_555
H2N C4N 1_555 1_555
H3N C4N 1_555 1_555
H4N C4N 1_555 1_555
H1E C3E 1_555 1_555
B1 F1E 1_555 1_555
C1K C2K 1_555 1_555
F1V Ag1X 1_555 1_555
C2N C3E 1_555 1_555

#END
