
#######################################################################
#
#                 Cambridge Crystallographic Data Centre
#                                CCDC 
#
#######################################################################
#
# If this CIF has been generated from an entry in the Cambridge 
# Structural Database, then it will include bibliographic, chemical, 
# crystal, experimental, refinement or atomic coordinate data resulting 
# from the CCDC's data processing and validation procedures.
#
#######################################################################

data_FEXVIP
_symmetry_cell_setting           monoclinic
_symmetry_space_group_name_H-M   'C 2/c'
_symmetry_Int_Tables_number      15
_space_group_name_Hall           '-C 2yn'
loop_
_symmetry_equiv_pos_site_id
_symmetry_equiv_pos_as_xyz
1 x,y,z
2 -x,y,1/2-z
3 1/2+x,1/2+y,z
4 1/2-x,1/2+y,1/2-z
5 -x,-y,-z
6 x,-y,1/2+z
7 1/2-x,1/2-y,-z
8 1/2+x,1/2-y,1/2+z
_cell_length_a                   26.164(4)
_cell_length_b                   9.2330(15)
_cell_length_c                   23.666(4)
_cell_angle_alpha                90
_cell_angle_beta                 108.410(3)
_cell_angle_gamma                90
_cell_volume                     5424.45
loop_
_atom_site_label
_atom_site_type_symbol
_atom_site_fract_x
_atom_site_fract_y
_atom_site_fract_z
O1 O 0.2946(2) 0.7002(6) 0.7077(2)
O2 O 0.3028(3) 0.8607(6) 0.6424(2)
C1 C 0.2914(3) 0.7365(8) 0.6550(3)
C2 C -0.1065(5) -0.1114(13) 0.7395(5)
H1 H -0.0948 -0.0409 0.7689
C3 C -0.1176(5) -0.2049(12) 0.6451(4)
H2 H -0.1123 -0.2012 0.6081
C4 C -0.1295(5) -0.2364(11) 0.7514(5)
H3 H -0.1318 -0.2471 0.7896
C5 C -0.1424(4) -0.3238(10) 0.6600(4)
H4 H -0.1554 -0.3950 0.6313
N1 N -0.1487(2) -0.3429(7) 0.7133(3)
Cd1 Cd 0.18491(2) 0.45037(5) 0.75964(2)
O3 O 0.2722(2) 0.5716(5) 0.8033(2)
O4 O 0.1847(2) 0.5828(6) 0.6676(2)
C6 C 0.2720(3) 0.6287(7) 0.6057(3)
O5 O 0.1916(2) 0.2976(5) 0.5635(2)
C7 C 0.2715(3) 0.5484(8) 0.5076(3)
H5 H 0.2825 0.5615 0.4743
C8 C 0.2385(3) 0.5105(8) 0.6081(3)
C9 C 0.2167(3) 0.4909(8) 0.6594(3)
C10 C 0.2392(3) 0.4341(8) 0.5104(3)
H6 H 0.2283 0.3685 0.4791
O6 O 0.2307(2) 0.3810(6) 0.6925(2)
C11 C 0.2226(3) 0.4162(7) 0.5600(3)
O7 O -0.0522(2) 0.1479(7) 0.4340(4)
H7 H -0.0847 0.1546 0.4170
C12 C 0.1378(3) 0.2975(8) 0.5303(3)
C13 C 0.2878(3) 0.6447(8) 0.5549(3)
H8 H 0.3100 0.7220 0.5528
N2 N 0.0982(2) 0.3666(7) 0.7068(3)
C14 C 0.1118(3) 0.1679(8) 0.5253(3)
H9 H 0.1305 0.0851 0.5426
C15 C -0.0294(3) 0.2731(10) 0.4332(4)
C16 C 0.0436(3) 0.2008(10) 0.6373(4)
H10 H 0.0421 0.1191 0.6139
C17 C -0.0028(3) 0.2667(9) 0.6366(3)
C18 C 0.0285(3) 0.2809(8) 0.4681(3)
C19 C -0.0571(3) 0.2155(9) 0.5980(4)
H11 H -0.0840 0.2855 0.6003
H12 H -0.0572 0.2124 0.5570
C20 C 0.0570(3) 0.1602(9) 0.4942(4)
H13 H 0.0393 0.0717 0.4910
O8 O -0.0546(3) 0.3756(9) 0.4069(4)
C21 C -0.0730(4) 0.0701(11) 0.6144(5)
H14 H -0.0785 -0.0078 0.5882
C22 C 0.1100(4) 0.4208(9) 0.5047(4)
H15 H 0.1276 0.5095 0.5087
C23 C 0.0560(4) 0.4107(9) 0.4732(4)
H16 H 0.0376 0.4930 0.4549
C24 C 0.0925(3) 0.2518(10) 0.6717(4)
H17 H 0.1234 0.2037 0.6704
C25 C -0.1005(4) -0.0899(11) 0.6847(4)
C26 C -0.0791(5) 0.0561(12) 0.6707(5)
H18 H -0.1034 0.1315 0.6750
H19 H -0.0445 0.0738 0.7003
C27 C 0.0530(4) 0.4338(12) 0.7048(5)
H20 H 0.0553 0.5181 0.7270
C28 C 0.0027(4) 0.3852(13) 0.6715(5)
H21 H -0.0278 0.4346 0.6731
H22 H 0.2683 0.6671 0.8105
H23 H 0.2806 0.5904 0.7849
H24 H -0.115310 0.099674 0.595812
O1C O 0.2054(2) 0.2002(6) 0.7923(2)
O2C O 0.1972(3) 0.3607(6) 0.8576(2)
N1A N 0.1487(2) 0.6571(7) 0.7867(3)
Cd1A Cd -0.18491(2) -0.54963(5) 0.74036(2)
Cd1C Cd 0.31509(2) 0.95037(5) 0.74036(2)
O9 O 0.8421(2) 0.1489(6) 0.3845(3)
H25 H 0.8267 0.2282 0.3695
H26 H 0.8240 0.0762 0.3753
loop_
_geom_bond_atom_site_label_1
_geom_bond_atom_site_label_2
_geom_bond_site_symmetry_1
_geom_bond_site_symmetry_2
O1 C1 1_555 1_555
O2 C1 1_555 1_555
C1 C6 1_555 1_555
C2 H1 1_555 1_555
C3 H2 1_555 1_555
C4 C2 1_555 1_555
H3 C4 1_555 1_555
C5 C3 1_555 1_555
H4 C5 1_555 1_555
N1 C4 1_555 1_555
Cd1 O3 1_555 1_555
O3 H22 1_555 1_555
O4 Cd1 1_555 1_555
C6 C8 1_555 1_555
O5 C11 1_555 1_555
C7 H5 1_555 1_555
C8 C9 1_555 1_555
C9 O4 1_555 1_555
C10 C7 1_555 1_555
H6 C10 1_555 1_555
O6 Cd1 1_555 1_555
C11 C8 1_555 1_555
O7 H7 1_555 1_555
C12 O5 1_555 1_555
C13 C6 1_555 1_555
H8 C13 1_555 1_555
N2 Cd1 1_555 1_555
C14 C12 1_555 1_555
H9 C14 1_555 1_555
C15 O7 1_555 1_555
C16 H10 1_555 1_555
C17 C16 1_555 1_555
C18 C15 1_555 1_555
C19 C17 1_555 1_555
H11 C19 1_555 1_555
H12 C19 1_555 1_555
C20 C14 1_555 1_555
H13 C20 1_555 1_555
O8 C15 1_555 1_555
C21 C19 1_555 1_555
H14 C21 1_555 1_555
C22 C12 1_555 1_555
H15 C22 1_555 1_555
C23 C18 1_555 1_555
H16 C23 1_555 1_555
C24 N2 1_555 1_555
H17 C24 1_555 1_555
C25 C2 1_555 1_555
C26 C21 1_555 1_555
H18 C26 1_555 1_555
H19 C26 1_555 1_555
C27 N2 1_555 1_555
H20 C27 1_555 1_555
C28 C17 1_555 1_555
H21 C28 1_555 1_555
H23 O3 1_555 1_555
H24 C21 1_555 1_555
O9 H25 1_555 1_555
H26 O9 1_555 1_555
O1C Cd1 1_555 1_555
O2C Cd1 1_555 1_555
N1A Cd1 1_555 1_555
Cd1A N1 1_555 1_555
Cd1C O1 1_555 1_555
O2 Cd1C 1_555 1_555
C3 C25 1_555 1_555
C5 N1 1_555 1_555
C7 C13 1_555 1_555
C9 O6 1_555 1_555
C10 C11 1_555 1_555
C16 C24 1_555 1_555
C18 C20 1_555 1_555
C22 C23 1_555 1_555
C25 C26 1_555 1_555
C27 C28 1_555 1_555

#END
