
#######################################################################
#
#                 Cambridge Crystallographic Data Centre
#                                CCDC 
#
#######################################################################
#
# If this CIF has been generated from an entry in the Cambridge 
# Structural Database, then it will include bibliographic, chemical, 
# crystal, experimental, refinement or atomic coordinate data resulting 
# from the CCDC's data processing and validation procedures.
#
#######################################################################

data_FEYKEA
_symmetry_cell_setting           monoclinic
_symmetry_space_group_name_H-M   'P 21/c'
_symmetry_Int_Tables_number      14
_space_group_name_Hall           '-P 2ybc'
loop_
_symmetry_equiv_pos_site_id
_symmetry_equiv_pos_as_xyz
1 x,y,z
2 -x,1/2+y,1/2-z
3 -x,-y,-z
4 x,1/2-y,1/2+z
_cell_length_a                   7.6040(15)
_cell_length_b                   21.691(4)
_cell_length_c                   9.952(2)
_cell_angle_alpha                90
_cell_angle_beta                 99.43(3)
_cell_angle_gamma                90
_cell_volume                     1619.28
loop_
_atom_site_label
_atom_site_type_symbol
_atom_site_fract_x
_atom_site_fract_y
_atom_site_fract_z
Ga1 Ga 0.27957(6) 0.43163(2) 0.53568(5)
Ga2 Ga 0.19568(6) 0.50772(2) 0.06894(5)
P1 P 0.50186(14) 0.45718(5) 0.29984(11)
P2 P 0.10078(14) 0.55560(5) 0.35179(12)
F1 F 0.3700(3) 0.56136(11) 0.0222(2)
F2 F 0.0159(3) 0.54461(11) -0.0685(2)
O1 O 0.3401(4) 0.45405(13) 0.1885(3)
O2 O 0.1691(4) 0.49665(14) 0.4213(3)
O3 O 0.1937(4) 0.61248(13) 0.4337(3)
H1 H 0.2917 0.6020 0.4746
O4 O 0.6550(4) 0.42148(14) 0.2426(3)
H2 H 0.6239 0.3858 0.2255
O5 O -0.1003(3) 0.56551(13) 0.3440(3)
O6 O 0.4744(3) 0.42081(13) 0.4258(3)
O7 O 0.2615(4) 0.45193(15) -0.0782(3)
H3 H 0.1886 0.4562 -0.1480
O8 O 0.1393(4) 0.56071(12) 0.2074(3)
O9 O 0.5617(4) 0.52289(13) 0.3307(3)
N1 N 0.1396(4) 0.36332(17) 0.4147(4)
N2 N 0.3818(4) 0.34997(16) 0.6372(4)
C1 C 0.0195(5) 0.3715(2) 0.3036(4)
H4 H -0.0111 0.4115 0.2751
C2 C -0.0629(6) 0.3221(2) 0.2278(5)
H5 H -0.1447 0.3295 0.1492
C3 C -0.0238(6) 0.2633(2) 0.2687(5)
C4 C 0.1007(6) 0.2526(2) 0.3890(4)
C5 C 0.1517(7) 0.1924(2) 0.4399(5)
C6 C 0.2762(8) 0.1859(3) 0.5523(6)
C7 C 0.3583(6) 0.2380(2) 0.6249(5)
C8 C 0.4894(7) 0.2344(2) 0.7434(6)
C9 C 0.5584(6) 0.2873(2) 0.8043(5)
C10 C 0.5050(6) 0.3445(2) 0.7492(5)
H6 H 0.5563 0.3799 0.7913
C11 C 0.3120(5) 0.2975(2) 0.5770(4)
C12 C 0.1785(6) 0.3051(2) 0.4582(5)
H7 H -0.069(5) 0.2245(18) 0.220(4)
H8 H 0.104(5) 0.1615(18) 0.389(4)
H9 H 0.293(7) 0.154(2) 0.588(5)
H10 H 0.525(5) 0.1973(18) 0.782(4)
H11 H 0.656(5) 0.2904(18) 0.885(4)
H12 H 0.365(6) 0.452(2) -0.073(4)
Ga1B Ga -0.27957(6) 0.56837(2) 0.46432(5)
Ga1B_2 Ga 0.72043(6) 0.56837(2) 0.46432(5)
Ga2B Ga -0.19568(6) 0.49228(2) -0.06894(5)
F2B F -0.0159(3) 0.45539(11) 0.0685(2)
O5B O 0.1003(3) 0.43449(13) 0.6560(3)
O9B O 0.4383(4) 0.47711(13) 0.6693(3)
loop_
_geom_bond_atom_site_label_1
_geom_bond_atom_site_label_2
_geom_bond_site_symmetry_1
_geom_bond_site_symmetry_2
Ga1 O2 1_555 1_555
Ga2 F1 1_555 1_555
P1 O1 1_555 1_555
P2 O2 1_555 1_555
F2 Ga2 1_555 1_555
O1 Ga2 1_555 1_555
O3 P2 1_555 1_555
H1 O3 1_555 1_555
O4 P1 1_555 1_555
H2 O4 1_555 1_555
O5 P2 1_555 1_555
O6 Ga1 1_555 1_555
O7 Ga2 1_555 1_555
H3 O7 1_555 1_555
O8 Ga2 1_555 1_555
O9 P1 1_555 1_555
N1 Ga1 1_555 1_555
N2 Ga1 1_555 1_555
C1 N1 1_555 1_555
H4 C1 1_555 1_555
C2 C1 1_555 1_555
H5 C2 1_555 1_555
C3 C2 1_555 1_555
C4 C3 1_555 1_555
C5 C4 1_555 1_555
C6 C5 1_555 1_555
C7 C6 1_555 1_555
C8 C7 1_555 1_555
C9 C8 1_555 1_555
C10 N2 1_555 1_555
H6 C10 1_555 1_555
C11 N2 1_555 1_555
C12 N1 1_555 1_555
H7 C3 1_555 1_555
H8 C5 1_555 1_555
H9 C6 1_555 1_555
H10 C8 1_555 1_555
H11 C9 1_555 1_555
H12 O7 1_555 1_555
Ga1B O5 1_555 1_555
Ga1B_2 O9 1_555 1_555
Ga2B F2 1_555 1_555
F2B Ga2 1_555 1_555
O5B Ga1 1_555 1_555
O9B Ga1 1_555 1_555
P1 O6 1_555 1_555
P2 O8 1_555 1_555
C4 C12 1_555 1_555
C7 C11 1_555 1_555
C9 C10 1_555 1_555
C11 C12 1_555 1_555
Ga2B F2B 1_555 1_555

#END
