
#######################################################################
#
#                 Cambridge Crystallographic Data Centre
#                                CCDC 
#
#######################################################################
#
# If this CIF has been generated from an entry in the Cambridge 
# Structural Database, then it will include bibliographic, chemical, 
# crystal, experimental, refinement or atomic coordinate data resulting 
# from the CCDC's data processing and validation procedures.
#
#######################################################################

data_FEYQIL
_symmetry_cell_setting           monoclinic
_symmetry_space_group_name_H-M   'P 21/c'
_symmetry_Int_Tables_number      14
_space_group_name_Hall           '-P 2ybc'
loop_
_symmetry_equiv_pos_site_id
_symmetry_equiv_pos_as_xyz
1 x,y,z
2 -x,1/2+y,1/2-z
3 -x,-y,-z
4 x,1/2-y,1/2+z
_cell_length_a                   10.227(5)
_cell_length_b                   9.226(4)
_cell_length_c                   20.955(9)
_cell_angle_alpha                90
_cell_angle_beta                 102.572(6)
_cell_angle_gamma                90
_cell_volume                     1929.79
loop_
_atom_site_label
_atom_site_type_symbol
_atom_site_fract_x
_atom_site_fract_y
_atom_site_fract_z
Zn1 Zn 0.38691(6) 0.22148(8) 0.31623(3)
Zn2 Zn 0.11824(6) 0.06425(8) 0.18838(3)
O1 O 0.4170(5) 0.2455(6) 0.4106(2)
O2 O 0.6062(6) 0.1282(7) 0.4201(2)
O3 O 0.0380(4) 0.1120(5) 0.0980(2)
O4 O 0.2031(5) 0.2681(6) 0.1126(2)
N1 N 0.1952(5) 0.2846(5) 0.2959(2)
N2 N 0.1005(5) 0.2416(6) 0.2418(2)
N3 N 0.0133(4) 0.4182(6) 0.2903(2)
N4 N 0.3041(5) -0.0123(5) 0.2158(2)
N5 N 0.4062(4) 0.0428(5) 0.2659(2)
N6 N 0.6368(5) -0.0121(6) 0.3040(2)
H1 H 0.6466 0.0549 0.3332
H2 H 0.7039 -0.0651 0.3003
N7 N -0.1049(7) 0.2430(8) -0.0931(3)
N8 N 0.7154(7) 0.1986(8) 0.6179(3)
C1 C -0.0052(6) 0.3226(7) 0.2400(3)
H3 H -0.0838 0.3155 0.2080
C2 C 0.3599(6) -0.1155(7) 0.1881(3)
H4 H 0.3135 -0.1704 0.1532
C3 C 0.5147(6) -0.0342(7) 0.2634(3)
C4 C 0.5245(7) 0.1948(8) 0.4438(3)
C5 C 0.1033(7) 0.2123(8) 0.0779(3)
C6 C 0.0549(6) 0.2647(7) 0.0090(3)
C7 C 0.0689(8) 0.4168(9) -0.0801(3)
H5 H 0.1118 0.4894 -0.0985
C8 C 0.1172(8) 0.3730(9) -0.0162(3)
C9 C 0.5547(6) 0.2218(7) 0.5164(3)
C10 C -0.0558(8) 0.2017(9) -0.0312(4)
C11 C 0.6769(8) 0.1813(9) 0.5535(4)
H6 H 0.7375 0.1385 0.5320
C12 C 0.4682(7) 0.2890(9) 0.5481(4)
H7 H 0.3852 0.3216 0.5251
C13 C -0.0432(8) 0.3512(9) -0.1153(3)
C14 C 0.5064(8) 0.3074(9) 0.6146(4)
H8 H 0.4492 0.3525 0.6374
C15 C 0.6273(8) 0.2596(9) 0.6464(4)
H9 H 0.6500 0.2706 0.6916
N9 N 0.4911(5) -0.1350(5) 0.2151(2)
H10 H -0.088(5) 0.381(6) -0.163(3)
H11 H -0.105(7) 0.121(7) -0.020(3)
C16 C 0.1383(5) 0.3882(7) 0.3232(3)
N10 N 0.1967(6) 0.4540(7) 0.3793(3)
H12 H 0.2759 0.4288 0.3995
H13 H 0.1549 0.5214 0.3951
H14 H 0.196(5) 0.420(6) 0.007(2)
Zn1A Zn 0.61309(6) -0.27852(8) 0.18377(3)
Zn2A Zn -0.11824(6) 0.56425(8) 0.31162(3)
N3A N -0.0133(4) -0.0818(6) 0.2097(2)
N9A N 0.5089(5) 0.3650(5) 0.2849(2)
loop_
_geom_bond_atom_site_label_1
_geom_bond_atom_site_label_2
_geom_bond_site_symmetry_1
_geom_bond_site_symmetry_2
Zn1 O1 1_555 1_555
Zn2 O3 1_555 1_555
O1 C4 1_555 1_555
O2 C4 1_555 1_555
O3 C5 1_555 1_555
O4 C5 1_555 1_555
N1 Zn1 1_555 1_555
N2 Zn2 1_555 1_555
N3 C1 1_555 1_555
N4 Zn2 1_555 1_555
N5 Zn1 1_555 1_555
N6 H1 1_555 1_555
H2 N6 1_555 1_555
N7 C10 1_555 1_555
N8 C11 1_555 1_555
C1 N2 1_555 1_555
H3 C1 1_555 1_555
C2 N4 1_555 1_555
H4 C2 1_555 1_555
C3 N5 1_555 1_555
C4 C9 1_555 1_555
C5 C6 1_555 1_555
C6 C8 1_555 1_555
C7 H5 1_555 1_555
C8 C7 1_555 1_555
C9 C11 1_555 1_555
C10 C6 1_555 1_555
C11 H6 1_555 1_555
C12 C9 1_555 1_555
H7 C12 1_555 1_555
C13 N7 1_555 1_555
C14 C12 1_555 1_555
H8 C14 1_555 1_555
C15 N8 1_555 1_555
H9 C15 1_555 1_555
N9 C2 1_555 1_555
H10 C13 1_555 1_555
H11 C10 1_555 1_555
C16 N1 1_555 1_555
N10 C16 1_555 1_555
H12 N10 1_555 1_555
H13 N10 1_555 1_555
H14 C8 1_555 1_555
Zn1A N9 1_555 1_555
Zn2A N3 1_555 1_555
N3A Zn2 1_555 1_555
N9A Zn1 1_555 1_555
N1 N2 1_555 1_555
N3 C16 1_555 1_555
N4 N5 1_555 1_555
N6 C3 1_555 1_555
C3 N9 1_555 1_555
C7 C13 1_555 1_555
C14 C15 1_555 1_555

#END
