
#######################################################################
#
#                 Cambridge Crystallographic Data Centre
#                                CCDC 
#
#######################################################################
#
# If this CIF has been generated from an entry in the Cambridge 
# Structural Database, then it will include bibliographic, chemical, 
# crystal, experimental, refinement or atomic coordinate data resulting 
# from the CCDC's data processing and validation procedures.
#
#######################################################################

data_FEYSIM
_symmetry_cell_setting           triclinic
_symmetry_space_group_name_H-M   'P -1'
_symmetry_Int_Tables_number      2
_space_group_name_Hall           '-P 1'
loop_
_symmetry_equiv_pos_site_id
_symmetry_equiv_pos_as_xyz
1 x,y,z
2 -x,-y,-z
_cell_length_a                   7.7129(4)
_cell_length_b                   11.5063(6)
_cell_length_c                   13.3854(7)
_cell_angle_alpha                82.6140(10)
_cell_angle_beta                 83.1650(10)
_cell_angle_gamma                72.7240(10)
_cell_volume                     1120.8
loop_
_atom_site_label
_atom_site_type_symbol
_atom_site_fract_x
_atom_site_fract_y
_atom_site_fract_z
Co1 Co 0.68260(3) 0.38248(2) 0.98543(2)
O1 O 0.6287(2) 0.34520(10) 0.84840(10)
O2 O 0.8920(2) 0.30340(10) 0.75090(10)
O3 O 0.3672(2) 0.1601(2) 0.48560(10)
O4 O 0.2529(2) 0.29050(10) 0.02140(10)
O5 O 0.4044(2) 0.42370(10) 0.03780(10)
O6 O 0.9417(2) 0.38620(10) 0.92000(10)
N1 N 0.7753(2) 0.37030(10) 1.13040(10)
N2 N 0.7385(2) 0.18970(10) 1.03520(10)
C1 C 0.7856(3) 0.4619(2) 1.17760(10)
C2 C 0.8546(3) 0.4440(2) 1.2723(2)
C3 C 0.9113(3) 0.3282(2) 1.3193(2)
C4 C 0.8998(2) 0.2290(2) 1.27220(10)
C5 C 0.9545(3) 0.1043(2) 1.3155(2)
C6 C 0.9363(3) 0.0128(2) 1.2670(2)
C7 C 0.8616(2) 0.0373(2) 1.1711(2)
C8 C 0.8338(3) -0.0532(2) 1.1190(2)
C9 C 0.7588(3) -0.0213(2) 1.0285(2)
C10 C 0.7125(3) 0.1015(2) 0.9892(2)
C11 C 0.8109(2) 0.1581(2) 1.12570(10)
C12 C 0.8301(2) 0.2551(2) 1.17710(10)
C13 C 0.7282(2) 0.3078(2) 0.76980(10)
C14 C 0.6345(2) 0.2670(2) 0.69430(10)
C15 C 0.4624(3) 0.2520(2) 0.71820(10)
C16 C 0.3719(3) 0.2190(2) 0.64760(10)
C17 C 0.4580(3) 0.1990(2) 0.55220(10)
C18 C 0.6315(3) 0.2100(2) 0.5275(2)
C19 C 0.7187(3) 0.2439(2) 0.59810(10)
C20 C 0.3327(2) 0.3367(2) 0.07210(10)
C21 C 0.3539(2) 0.2894(2) 0.18160(10)
C22 C 0.3579(3) 0.1695(2) 0.21490(10)
C23 C 0.3731(3) 0.1259(2) 0.31600(10)
C24 C 0.3760(3) 0.2052(2) 0.38420(10)
C25 C 0.3739(3) 0.3248(2) 0.35290(10)
C26 C 0.3663(3) 0.3656(2) 0.25090(10)
H1 H 0.950(4) 0.360(2) 0.8630(10)
H2 H 1.040(2) 0.357(2) 0.947(2)
H3 H 0.7455 0.5412 1.1467
H4 H 0.8617 0.5104 1.3030
H5 H 0.9574 0.3152 1.3822
H6 H 1.0033 0.0860 1.3778
H7 H 0.9731 -0.0673 1.2966
H8 H 0.8664 -0.1345 1.1461
H9 H 0.7388 -0.0803 0.9936
H10 H 0.6609 0.1224 0.9276
H11 H 0.4060 0.2642 0.7829
H12 H 0.2555 0.2105 0.6642
H13 H 0.6894 0.1946 0.4635
H14 H 0.8357 0.2515 0.5812
H15 H 0.3502 0.1176 0.1688
H16 H 0.3812 0.0445 0.3374
H17 H 0.3776 0.3772 0.3995
H18 H 0.3695 0.4450 0.2288
Co1_2 Co 0.68260(3) 0.38248(2) -0.01457(2)
Co1A Co 0.31740(3) 0.61752(2) 0.01457(2)
O5_2 O 0.4044(2) 0.42370(10) 1.03780(10)
O5A O 0.5956(2) 0.57630(10) 0.96220(10)
loop_
_geom_bond_atom_site_label_1
_geom_bond_atom_site_label_2
_geom_bond_site_symmetry_1
_geom_bond_site_symmetry_2
Co1 O1 1_555 1_555
O1 C13 1_555 1_555
O2 C13 1_555 1_555
O3 C17 1_555 1_555
O4 C20 1_555 1_555
O5 C20 1_555 1_555
O6 Co1 1_555 1_555
N1 Co1 1_555 1_555
N2 Co1 1_555 1_555
C1 N1 1_555 1_555
C2 C1 1_555 1_555
C3 C2 1_555 1_555
C4 C3 1_555 1_555
C5 C4 1_555 1_555
C6 C5 1_555 1_555
C7 C6 1_555 1_555
C8 C7 1_555 1_555
C9 C8 1_555 1_555
C10 N2 1_555 1_555
C11 N2 1_555 1_555
C12 N1 1_555 1_555
C13 C14 1_555 1_555
C14 C15 1_555 1_555
C15 C16 1_555 1_555
C16 C17 1_555 1_555
C17 C18 1_555 1_555
C18 C19 1_555 1_555
C19 C14 1_555 1_555
C20 C21 1_555 1_555
C21 C22 1_555 1_555
C22 C23 1_555 1_555
C23 C24 1_555 1_555
C24 O3 1_555 1_555
C25 C24 1_555 1_555
C26 C21 1_555 1_555
H1 O6 1_555 1_555
H2 O6 1_555 1_555
H3 C1 1_555 1_555
H4 C2 1_555 1_555
H5 C3 1_555 1_555
H6 C5 1_555 1_555
H7 C6 1_555 1_555
H8 C8 1_555 1_555
H9 C9 1_555 1_555
H10 C10 1_555 1_555
H11 C15 1_555 1_555
H12 C16 1_555 1_555
H13 C18 1_555 1_555
H14 C19 1_555 1_555
H15 C22 1_555 1_555
H16 C23 1_555 1_555
H17 C25 1_555 1_555
H18 C26 1_555 1_555
Co1_2 O5 1_555 1_555
Co1A O5 1_555 1_555
O5_2 Co1 1_555 1_555
O5A Co1 1_555 1_555
C4 C12 1_555 1_555
C7 C11 1_555 1_555
C9 C10 1_555 1_555
C11 C12 1_555 1_555
C25 C26 1_555 1_555

#END
