
#######################################################################
#
#                 Cambridge Crystallographic Data Centre
#                                CCDC 
#
#######################################################################
#
# If this CIF has been generated from an entry in the Cambridge 
# Structural Database, then it will include bibliographic, chemical, 
# crystal, experimental, refinement or atomic coordinate data resulting 
# from the CCDC's data processing and validation procedures.
#
#######################################################################

data_FEYVAI
_symmetry_cell_setting           monoclinic
_symmetry_space_group_name_H-M   'P 21/c'
_symmetry_Int_Tables_number      14
_space_group_name_Hall           '-P 2ybc'
loop_
_symmetry_equiv_pos_site_id
_symmetry_equiv_pos_as_xyz
1 x,y,z
2 -x,1/2+y,1/2-z
3 -x,-y,-z
4 x,1/2-y,1/2+z
_cell_length_a                   19.7525(3)
_cell_length_b                   10.7903(2)
_cell_length_c                   8.27930(10)
_cell_angle_alpha                90
_cell_angle_beta                 99.5560(10)
_cell_angle_gamma                90
_cell_volume                     1740.13
loop_
_atom_site_label
_atom_site_type_symbol
_atom_site_fract_x
_atom_site_fract_y
_atom_site_fract_z
K1 K 0.198165(16) 0.73112(3) 0.34847(4)
C1 C 0.13913(6) 1.11207(11) 0.10070(15)
C2 C 0.16316(6) 1.22835(12) 0.15363(16)
H1 H 0.2015 1.2361 0.2350
C3 C 0.12953(6) 1.33275(11) 0.08412(15)
C4 C 0.07169(6) 1.32744(12) -0.03493(15)
H2 H 0.0491 1.3985 -0.0789
C5 C 0.04937(6) 1.20977(11) -0.08470(15)
C6 C 0.08179(6) 1.10247(11) -0.02183(15)
H3 H 0.0656 1.0253 -0.0606
C7 C 0.17393(6) 0.99605(12) 0.17803(16)
O1 O 0.20659(5) 1.00841(11) 0.32014(13)
O2 O 0.16578(7) 0.89912(10) 0.09671(13)
N1 N 0.15484(7) 1.45555(11) 0.14465(15)
O3 O 0.20829(7) 1.46007(11) 0.24103(16)
O4 O 0.12079(7) 1.54605(10) 0.09876(18)
N2 N -0.01178(6) 1.19804(12) -0.21284(14)
O5 O -0.03912(6) 1.29220(12) -0.27242(17)
O6 O -0.03114(6) 1.09422(12) -0.25532(17)
C8 C 0.40588(6) 0.61132(11) 0.20333(15)
C9 C 0.45569(7) 0.52684(13) 0.17282(16)
H4 H 0.4445 0.4683 0.0903
C10 C 0.52087(7) 0.52805(13) 0.26151(17)
H5 H 0.5530 0.4710 0.2373
C11 C 0.53993(6) 0.61425(12) 0.38859(15)
C12 C 0.48918(7) 0.69901(12) 0.42039(17)
H6 H 0.4998 0.7568 0.5041
C13 C 0.42425(7) 0.69696(12) 0.32881(17)
H7 H 0.3919 0.7542 0.3513
C14 C 0.33663(6) 0.61189(12) 0.10601(16)
O7 O 0.29122(5) 0.68451(10) 0.12519(13)
O8 O 0.32752(6) 0.52557(12) -0.00914(15)
H8 H 0.2869(12) 0.523(2) -0.060(3)
N3 N 0.60495(6) 0.61558(12) 0.47620(15)
C15 C 0.62517(9) 0.70314(18) 0.6075(2)
H9 H 0.6356 0.7815 0.5625
H10 H 0.6650 0.6726 0.6787
H11 H 0.5883 0.7135 0.6687
C16 C 0.65724(8) 0.5333(2) 0.4342(2)
H12 H 0.6433 0.4489 0.4448
H13 H 0.6997 0.5480 0.5066
H14 H 0.6633 0.5485 0.3232
K1_2 K 0.198165(16) 1.73112(3) 0.34847(4)
K1B K -0.198165(16) 1.26888(3) -0.34847(4)
K1C K 0.198165(16) 0.76888(3) -0.15153(4)
O2C O 0.16578(7) 0.60088(10) 0.59671(13)
O3_2 O 0.20829(7) 0.46007(11) 0.24103(16)
O4_2 O 0.12079(7) 0.54605(10) 0.09876(18)
O5B O 0.03912(6) 0.70780(12) 0.27242(17)
O7C O 0.29122(5) 0.81549(10) 0.62519(13)
loop_
_geom_bond_atom_site_label_1
_geom_bond_atom_site_label_2
_geom_bond_site_symmetry_1
_geom_bond_site_symmetry_2
K1 O1 1_555 1_555
C1 C2 1_555 1_555
C2 H1 1_555 1_555
C3 C2 1_555 1_555
C4 C3 1_555 1_555
H2 C4 1_555 1_555
C5 C4 1_555 1_555
C6 C1 1_555 1_555
H3 C6 1_555 1_555
C7 C1 1_555 1_555
O1 C7 1_555 1_555
O2 K1 1_555 1_555
N1 C3 1_555 1_555
O3 N1 1_555 1_555
O4 N1 1_555 1_555
N2 C5 1_555 1_555
O5 N2 1_555 1_555
O6 N2 1_555 1_555
C8 C9 1_555 1_555
C9 H4 1_555 1_555
C10 C9 1_555 1_555
H5 C10 1_555 1_555
C11 C10 1_555 1_555
C12 C11 1_555 1_555
H6 C12 1_555 1_555
C13 C8 1_555 1_555
H7 C13 1_555 1_555
C14 C8 1_555 1_555
O7 K1 1_555 1_555
O8 C14 1_555 1_555
H8 O8 1_555 1_555
N3 C11 1_555 1_555
C15 N3 1_555 1_555
H9 C15 1_555 1_555
H10 C15 1_555 1_555
H11 C15 1_555 1_555
C16 N3 1_555 1_555
H12 C16 1_555 1_555
H13 C16 1_555 1_555
H14 C16 1_555 1_555
K1_2 O3 1_555 1_555
K1B O5 1_555 1_555
K1C O2 1_555 1_555
O2C K1 1_555 1_555
O3_2 K1 1_555 1_555
O4_2 K1 1_555 1_555
O5B K1 1_555 1_555
O7C K1 1_555 1_555
C5 C6 1_555 1_555
C7 O2 1_555 1_555
O4 K1_2 1_555 1_555
C12 C13 1_555 1_555
C14 O7 1_555 1_555
O7 K1C 1_555 1_555

#END
