
#######################################################################
#
#                 Cambridge Crystallographic Data Centre
#                                CCDC 
#
#######################################################################
#
# If this CIF has been generated from an entry in the Cambridge 
# Structural Database, then it will include bibliographic, chemical, 
# crystal, experimental, refinement or atomic coordinate data resulting 
# from the CCDC's data processing and validation procedures.
#
#######################################################################

data_FEYYEN01
_symmetry_cell_setting           monoclinic
_symmetry_space_group_name_H-M   'P 21/c'
_symmetry_Int_Tables_number      14
_space_group_name_Hall           '-P 2ybc'
loop_
_symmetry_equiv_pos_site_id
_symmetry_equiv_pos_as_xyz
1 x,y,z
2 -x,1/2+y,1/2-z
3 -x,-y,-z
4 x,1/2-y,1/2+z
_cell_length_a                   6.614(2)
_cell_length_b                   23.788(6)
_cell_length_c                   7.012(2)
_cell_angle_alpha                90
_cell_angle_beta                 103.13(2)
_cell_angle_gamma                90
_cell_volume                     1074.38
loop_
_atom_site_label
_atom_site_type_symbol
_atom_site_fract_x
_atom_site_fract_y
_atom_site_fract_z
S1 S 0.8387(1) 0.12444(3) 0.1448(1)
N1 N 0.8620(4) 0.1605(3) 0.3426(4)
N2 N 0.7531(5) -0.1162(1) 0.3441(5)
O1 O 1.0353(4) 0.1294(1) 0.0894(4)
O2 O 0.6578(3) 0.1395(1) -0.0062(3)
O3 O 0.5104(3) 0.1635(1) 0.3357(4)
C1 C 0.8134(4) 0.0535(1) 0.2054(4)
C2 C 0.9826(4) 0.0173(1) 0.2307(5)
C3 C 0.9622(5) -0.0381(1) 0.2775(5)
C4 C 0.7727(4) -0.0589(1) 0.3035(4)
C5 C 0.6064(5) -0.0226(1) 0.2800(5)
C6 C 0.6224(5) 0.0328(1) 0.2323(5)
C7 C 0.6955(5) 0.1755(1) 0.4099(5)
C8 C 0.7457(7) 0.2097(2) 0.5948(6)
Na1 Na 1.3165(2) 0.1656(1) -0.0033(2)
O4 O 1.2250(5) 0.2568(1) -0.0875(6)
H1 H 1.094(6) 0.033(2) 0.202(5)
H2 H 1.080(7) -0.057(2) 0.278(6)
H3 H 0.473(7) -0.037(2) 0.316(6)
H4 H 0.501(7) 0.061(2) 0.216(7)
H5 H 0.668(6) -0.120(2) 0.392(6)
H6 H 0.865(7) -0.133(2) 0.431(6)
H7 H 1.301(8) 0.273(2) -0.120(7)
H8 H 1.129(10) 0.271(2) -0.080(9)
H9 H 0.658(23) 0.207(6) 0.650(19)
H10 H 0.704(10) 0.246(3) 0.524(9)
H11 H 0.867(11) 0.207(3) 0.679(10)
Na1B Na 0.6835(2) -0.1656(1) 0.0033(2)
Na1_2 Na 0.3165(2) 0.1656(1) -0.0033(2)
N2B N 1.2469(5) 0.1162(1) -0.3441(5)
O2_2 O 1.6578(3) 0.1395(1) -0.0062(3)
O3_2 O 1.5104(3) 0.1635(1) 0.3357(4)
H5B H 1.332(6) 0.120(2) -0.392(6)
H6B H 1.135(7) 0.133(2) -0.431(6)
loop_
_geom_bond_atom_site_label_1
_geom_bond_atom_site_label_2
_geom_bond_site_symmetry_1
_geom_bond_site_symmetry_2
S1 N1 1_555 1_555
N1 C7 1_555 1_555
N2 C4 1_555 1_555
O1 S1 1_555 1_555
O2 S1 1_555 1_555
O3 C7 1_555 1_555
C1 S1 1_555 1_555
C2 C1 1_555 1_555
C3 C2 1_555 1_555
C4 C3 1_555 1_555
C5 C4 1_555 1_555
C6 C1 1_555 1_555
C7 C8 1_555 1_555
C8 H9 1_555 1_555
Na1 O1 1_555 1_555
O4 Na1 1_555 1_555
H1 C2 1_555 1_555
H2 C3 1_555 1_555
H3 C5 1_555 1_555
H4 C6 1_555 1_555
H5 N2 1_555 1_555
H6 N2 1_555 1_555
H7 O4 1_555 1_555
H8 O4 1_555 1_555
H10 C8 1_555 1_555
H11 C8 1_555 1_555
Na1B N2 1_555 1_555
Na1_2 O2 1_555 1_555
N2B Na1 1_555 1_555
O2_2 Na1 1_555 1_555
O3_2 Na1 1_555 1_555
H5B N2B 1_555 1_555
H6B N2B 1_555 1_555
O3 Na1_2 1_555 1_555
C5 C6 1_555 1_555

#END
