
#######################################################################
#
#                 Cambridge Crystallographic Data Centre
#                                CCDC 
#
#######################################################################
#
# If this CIF has been generated from an entry in the Cambridge 
# Structural Database, then it will include bibliographic, chemical, 
# crystal, experimental, refinement or atomic coordinate data resulting 
# from the CCDC's data processing and validation procedures.
#
#######################################################################

data_FEYYEN
_symmetry_cell_setting           monoclinic
_symmetry_space_group_name_H-M   'P 21/c'
_symmetry_Int_Tables_number      14
_space_group_name_Hall           '-P 2ybc'
loop_
_symmetry_equiv_pos_site_id
_symmetry_equiv_pos_as_xyz
1 x,y,z
2 -x,1/2+y,1/2-z
3 -x,-y,-z
4 x,1/2-y,1/2+z
_cell_length_a                   6.617(2)
_cell_length_b                   23.771(4)
_cell_length_c                   7.014(1)
_cell_angle_alpha                90
_cell_angle_beta                 103.12(3)
_cell_angle_gamma                90
_cell_volume                     1074.45
loop_
_atom_site_label
_atom_site_type_symbol
_atom_site_fract_x
_atom_site_fract_y
_atom_site_fract_z
C1 C -0.1877(9) 0.4467(2) -0.2938(8)
C2 C -0.3773(10) 0.4671(3) -0.2689(10)
C3 C -0.3955(11) 0.5228(3) -0.2191(10)
C4 C -0.2272(10) 0.5590(2) -0.1952(8)
C5 C -0.0375(10) 0.5384(3) -0.2221(9)
C6 C -0.0174(10) 0.4826(3) -0.2698(9)
N1 N -0.2461(10) 0.6159(2) -0.1554(9)
S1 S -0.1616(2) 0.3756(1) -0.3552(2)
O1 O -0.3425(7) 0.3605(2) -0.5065(6)
O2 O 0.0352(8) 0.3705(2) -0.4100(8)
N2 N -0.1385(8) 0.3396(2) -0.1582(7)
C7 C -0.3055(9) 0.3246(2) -0.0899(9)
C8 C -0.2547(12) 0.2905(3) 0.0944(10)
O3 O -0.4900(8) 0.3367(2) -0.1634(8)
Na1 Na 0.3158(4) 0.3344(1) -0.5036(4)
O4 O 0.2254(9) 0.2430(2) -0.5872(10)
H1 H -0.490(15) 0.439(4) -0.280(14)
H2 H -0.537(13) 0.538(4) -0.198(13)
H3 H 0.060(11) 0.563(3) -0.200(11)
H4 H 0.107(11) 0.467(3) -0.284(11)
H5 H -0.348(13) 0.623(3) -0.100(13)
H6 H -0.149(16) 0.631(4) -0.079(16)
H7 H -0.231(23) 0.316(7) 0.221(23)
H8 H -0.388(21) 0.277(6) 0.137(20)
H9 H -0.113(21) 0.287(6) 0.130(21)
H10 H -0.111(22) 0.367(5) -0.026(21)
H11 H 0.319(16) 0.217(4) -0.595(15)
H12 H 0.097(20) 0.227(6) -0.627(20)
Na1_2 Na -0.6842(4) 0.3344(1) -0.5036(4)
Na1B Na -0.3158(4) 0.6656(1) -0.4964(4)
N1B N 0.2461(10) 0.3841(2) -0.8446(9)
O1_2 O 0.6575(7) 0.3605(2) -0.5065(6)
O3_2 O 0.5100(8) 0.3367(2) -0.1634(8)
H5B H 0.348(13) 0.377(3) -0.900(13)
H6B H 0.149(16) 0.369(4) -0.921(16)
loop_
_geom_bond_atom_site_label_1
_geom_bond_atom_site_label_2
_geom_bond_site_symmetry_1
_geom_bond_site_symmetry_2
C1 C2 1_555 1_555
C2 C3 1_555 1_555
C3 C4 1_555 1_555
C4 C5 1_555 1_555
C5 C6 1_555 1_555
C6 C1 1_555 1_555
N1 C4 1_555 1_555
S1 C1 1_555 1_555
O1 S1 1_555 1_555
O2 S1 1_555 1_555
N2 S1 1_555 1_555
C7 N2 1_555 1_555
C8 C7 1_555 1_555
O3 C7 1_555 1_555
Na1 O2 1_555 1_555
O4 Na1 1_555 1_555
H1 C2 1_555 1_555
H2 C3 1_555 1_555
H3 C5 1_555 1_555
H4 C6 1_555 1_555
H5 N1 1_555 1_555
H6 N1 1_555 1_555
H7 C8 1_555 1_555
H8 C8 1_555 1_555
H9 C8 1_555 1_555
H10 N2 1_555 1_555
H11 O4 1_555 1_555
H12 O4 1_555 1_555
Na1_2 O1 1_555 1_555
Na1B N1 1_555 1_555
N1B Na1 1_555 1_555
O1_2 Na1 1_555 1_555
O3_2 Na1 1_555 1_555
H5B N1B 1_555 1_555
H6B N1B 1_555 1_555
O3 Na1_2 1_555 1_555

#END
