
#######################################################################
#
#                 Cambridge Crystallographic Data Centre
#                                CCDC 
#
#######################################################################
#
# If this CIF has been generated from an entry in the Cambridge 
# Structural Database, then it will include bibliographic, chemical, 
# crystal, experimental, refinement or atomic coordinate data resulting 
# from the CCDC's data processing and validation procedures.
#
#######################################################################

data_FEZBES
_symmetry_cell_setting           monoclinic
_symmetry_space_group_name_H-M   'P 21/n'
_symmetry_Int_Tables_number      14
_space_group_name_Hall           '-P 2yn'
loop_
_symmetry_equiv_pos_site_id
_symmetry_equiv_pos_as_xyz
1 x,y,z
2 1/2-x,1/2+y,1/2-z
3 -x,-y,-z
4 1/2+x,1/2-y,1/2+z
_cell_length_a                   8.821(7)
_cell_length_b                   18.888(15)
_cell_length_c                   15.333(12)
_cell_angle_alpha                90
_cell_angle_beta                 92.390(12)
_cell_angle_gamma                90
_cell_volume                     2552.42
loop_
_atom_site_label
_atom_site_type_symbol
_atom_site_fract_x
_atom_site_fract_y
_atom_site_fract_z
Sn1 Sn 0.33160(3) 0.051657(16) 0.24606(2)
Cl1 Cl 0.2296(2) -0.03117(13) 0.01816(14)
Cl2 Cl 0.39505(17) 0.15412(9) 0.02921(11)
Cl3 Cl 0.6564(3) -0.05421(15) 0.37594(17)
N1 N 0.3413(4) -0.0817(2) 0.2392(3)
O1 O 0.1850(4) -0.33482(17) 0.2510(2)
O2 O 0.3703(5) -0.33673(19) 0.1556(3)
C1 C 0.2893(6) -0.3059(3) 0.2051(4)
C2 C 0.3061(5) -0.2268(2) 0.2183(3)
C3 C 0.4053(6) -0.1896(2) 0.1690(3)
H1 H 0.4618 -0.2127 0.1277
C4 C 0.4200(6) -0.1183(2) 0.1815(3)
H2 H 0.4883 -0.0939 0.1481
C5 C 0.2481(6) -0.1187(3) 0.2871(4)
H3 H 0.1951 -0.0947 0.3292
C6 C 0.2247(6) -0.1899(3) 0.2784(4)
H4 H 0.1553 -0.2131 0.3124
C7 C 0.1121(6) 0.0467(3) 0.1780(4)
H5 H 0.0400 0.0695 0.2150
H6 H 0.1180 0.0756 0.1260
C8 C 0.0477(7) -0.0202(3) 0.1514(4)
C9 C 0.0903(8) -0.0601(4) 0.0832(5)
C10 C 0.0241(11) -0.1295(4) 0.0647(7)
H7 H 0.0551 -0.1563 0.0178
C11 C -0.0814(12) -0.1535(5) 0.1165(9)
H8 H -0.1231 -0.1982 0.1067
C12 C -0.1343(9) -0.1090(8) 0.1909(12)
H9 H -0.2113 -0.1261 0.2248
C13 C -0.0774(9) -0.0495(5) 0.2085(7)
H10 H -0.1105 -0.0234 0.2555
C14 C 0.5297(5) 0.0547(2) 0.1698(3)
H11 H 0.6044 0.0228 0.1964
H12 H 0.5024 0.0362 0.1123
C15 C 0.6033(5) 0.1248(3) 0.1587(4)
C16 C 0.5542(6) 0.1734(3) 0.0960(4)
C17 C 0.6278(8) 0.2356(3) 0.0820(5)
H13 H 0.5959 0.2658 0.0369
C18 C 0.7521(10) 0.2525(4) 0.1371(6)
H14 H 0.8027 0.2952 0.1300
C19 C 0.7994(8) 0.2073(4) 0.2006(6)
H15 H 0.8822 0.2191 0.2373
C20 C 0.7263(7) 0.1439(3) 0.2117(4)
H16 H 0.7606 0.1133 0.2558
C21 C 0.3795(6) 0.0396(3) 0.3843(3)
H17 H 0.3012 0.0635 0.4157
H18 H 0.3757 -0.0103 0.3991
C22 C 0.5279(8) 0.0681(4) 0.4133(4)
C23 C 0.6604(10) 0.0273(5) 0.4095(5)
C24 C 0.8074(12) 0.0538(10) 0.4359(7)
H19 H 0.8946 0.0263 0.4338
C25 C 0.8106(18) 0.1233(10) 0.4649(9)
H20 H 0.9043 0.1433 0.4801
C26 C 0.6863(17) 0.1633(7) 0.4721(10)
H21 H 0.7016 0.2083 0.4953
C27 C 0.5347(14) 0.1451(7) 0.4485(5)
H22 H 0.4514 0.1749 0.4534
Sn1A Sn 0.16840(3) -0.448343(16) 0.25394(2)
O1A O 0.3150(4) 0.16518(17) 0.2490(2)
loop_
_geom_bond_atom_site_label_1
_geom_bond_atom_site_label_2
_geom_bond_site_symmetry_1
_geom_bond_site_symmetry_2
Sn1 N1 1_555 1_555
Cl1 C9 1_555 1_555
Cl2 C16 1_555 1_555
Cl3 C23 1_555 1_555
N1 C4 1_555 1_555
O1 C1 1_555 1_555
O2 C1 1_555 1_555
C1 C2 1_555 1_555
C2 C3 1_555 1_555
C3 H1 1_555 1_555
C4 C3 1_555 1_555
H2 C4 1_555 1_555
C5 N1 1_555 1_555
H3 C5 1_555 1_555
C6 C2 1_555 1_555
H4 C6 1_555 1_555
C7 Sn1 1_555 1_555
H5 C7 1_555 1_555
H6 C7 1_555 1_555
C8 C7 1_555 1_555
C9 C8 1_555 1_555
C10 C9 1_555 1_555
H7 C10 1_555 1_555
C11 C10 1_555 1_555
H8 C11 1_555 1_555
C12 C11 1_555 1_555
H9 C12 1_555 1_555
C13 C8 1_555 1_555
H10 C13 1_555 1_555
C14 Sn1 1_555 1_555
H11 C14 1_555 1_555
H12 C14 1_555 1_555
C15 C14 1_555 1_555
C16 C15 1_555 1_555
C17 C16 1_555 1_555
H13 C17 1_555 1_555
C18 C17 1_555 1_555
H14 C18 1_555 1_555
C19 C18 1_555 1_555
H15 C19 1_555 1_555
C20 C15 1_555 1_555
H16 C20 1_555 1_555
C21 Sn1 1_555 1_555
H17 C21 1_555 1_555
H18 C21 1_555 1_555
C22 C21 1_555 1_555
C23 C22 1_555 1_555
C24 C23 1_555 1_555
H19 C24 1_555 1_555
C25 C24 1_555 1_555
H20 C25 1_555 1_555
C26 C25 1_555 1_555
H21 C26 1_555 1_555
C27 C22 1_555 1_555
H22 C27 1_555 1_555
Sn1A O1 1_555 1_555
O1A Sn1 1_555 1_555
C5 C6 1_555 1_555
C12 C13 1_555 1_555
C19 C20 1_555 1_555
C26 C27 1_555 1_555

#END
