
#######################################################################
#
#                 Cambridge Crystallographic Data Centre
#                                CCDC 
#
#######################################################################
#
# If this CIF has been generated from an entry in the Cambridge 
# Structural Database, then it will include bibliographic, chemical, 
# crystal, experimental, refinement or atomic coordinate data resulting 
# from the CCDC's data processing and validation procedures.
#
#######################################################################

data_FEZTEJ
_symmetry_cell_setting           orthorhombic
_symmetry_space_group_name_H-M   'P b c a'
_symmetry_Int_Tables_number      61
_space_group_name_Hall           '-P 2ac 2ab'
loop_
_symmetry_equiv_pos_site_id
_symmetry_equiv_pos_as_xyz
1 x,y,z
2 1/2-x,1/2+y,z
3 x,1/2-y,1/2+z
4 1/2-x,-y,1/2+z
5 -x,-y,-z
6 1/2+x,1/2-y,-z
7 -x,1/2+y,1/2-z
8 1/2+x,y,1/2-z
_cell_length_a                   16.805(4)
_cell_length_b                   13.22(3)
_cell_length_c                   20.708(5)
_cell_angle_alpha                90
_cell_angle_beta                 90
_cell_angle_gamma                90
_cell_volume                     4600.53
loop_
_atom_site_label
_atom_site_type_symbol
_atom_site_fract_x
_atom_site_fract_y
_atom_site_fract_z
C1 C 0.3916(5) -0.4650(7) 0.0717(5)
C2 C 0.3519(6) -0.5352(8) 0.0343(5)
C3 C 0.3103(6) -0.6149(8) 0.0633(6)
C4 C 0.2722(6) -0.6806(8) 0.0246(5)
C5 C 0.2786(7) -0.6774(10) -0.0439(6)
C6 C 0.3188(7) -0.6015(8) -0.0730(6)
C7 C 0.3591(5) -0.5269(7) -0.0345(4)
C8 C 0.4021(36) -0.4475(8) -0.0603(5)
C9 C 0.4402(6) -0.3775(7) -0.0220(4)
C10 C 0.4884(6) -0.3015(8) -0.0491(5)
C11 C 0.5290(6) -0.2323(9) -0.0096(6)
C12 C 0.5237(6) -0.2441(9) 0.0563(5)
C13 C 0.4794(6) -0.3119(8) 0.0848(5)
C14 C 0.4376(6) -0.3866(7) 0.0473(4)
O1 O 0.3881(4) -0.4709(5) 0.1395(3)
C15 C 0.3207(6) -0.4173(9) 0.1676(5)
C16 C 0.3109(6) -0.4515(7) 0.2367(5)
O2 O 0.3823(3) -0.4286(4) 0.2698(3)
C17 C 0.3732(6) -0.4560(8) 0.3378(5)
C18 C 0.4577(6) -0.4424(8) 0.3672(5)
O3 O 0.5031(5) -0.5230(5) 0.3376(3)
C19 C 0.5835(6) -0.5231(8) 0.3609(5)
C20 C 0.6204(6) -0.6113(7) 0.3249(5)
O4 O 0.6261(3) -0.5766(4) 0.2576(3)
C21 C 0.6453(6) -0.6607(7) 0.2157(5)
C22 C 0.6632(6) -0.6204(8) 0.1507(5)
O5 O 0.4069(4) -0.4354(4) -0.1281(3)
Cl1 Cl 0.6084(1) -0.2558(2) 0.2555(2)
O6 O 0.5624(5) -0.3431(5) 0.2368(4)
O7 O 0.6612(5) -0.2829(6) 0.3064(4)
O8 O 0.5554(5) -0.1794(6) 0.2775(4)
O9 O 0.6534(5) -0.2184(7) 0.2018(4)
Na1 Na 0.4997(3) -0.5067(3) 0.2184(2)
H1 H 0.3082(43) -0.6221(51) 0.1133(34)
H2 H 0.2440(45) -0.7420(61) 0.0446(31)
H3 H 0.2501(44) -0.7248(53) -0.0718(32)
H4 H 0.3206(49) -0.5992(57) -0.1217(37)
H5 H 0.4961(47) -0.2957(59) -0.0982(35)
H6 H 0.5604(46) -0.1751(58) -0.0305(34)
H7 H 0.5573(45) -0.1944(56) 0.0831(36)
H8 H 0.4762(44) -0.3125(57) 0.1345(34)
H9 H 0.3309(42) -0.3339(54) 0.1641(36)
H10 H 0.2615(45) -0.4104(54) 0.2581(39)
H11 H 0.3295(49) -0.4105(58) 0.3622(38)
H12 H 0.4561(50) -0.4516(63) 0.4211(40)
H13 H 0.5884(43) -0.5371(55) 0.4132(35)
H14 H 0.5872(44) -0.6769(58) 0.3294(39)
H15 H 0.5972(38) -0.7138(47) 0.2134(30)
H16 H 0.6760(47) -0.6881(57) 0.1167(37)
H17 H 0.2646(50) -0.4325(60) 0.1376(36)
H18 H 0.2986(44) -0.5285(56) 0.2396(41)
H19 H 0.3533(51) -0.5341(62) 0.3451(42)
H20 H 0.4773(50) -0.3688(61) 0.3552(38)
H21 H 0.6165(47) -0.4573(58) 0.3478(38)
H22 H 0.6817(51) -0.6253(61) 0.3442(42)
H23 H 0.6977(41) -0.7015(49) 0.2362(37)
H24 H 0.7190(46) -0.5747(57) 0.1523(37)
O5D O 0.5931(4) -0.5646(4) 0.1281(3)
C22D C 0.3368(6) -0.3796(8) -0.1507(5)
Na1D Na 0.5003(3) -0.4933(3) -0.2184(2)
O8F O 0.4446(5) -0.6794(6) 0.2225(4)
C8D C 0.5979(36) -0.5525(8) 0.0603(5)
C21D C 0.3547(6) -0.3393(7) -0.2157(5)
H16D H 0.3240(47) -0.3119(57) -0.1167(37)
H24D H 0.2810(46) -0.4253(57) -0.1523(37)
O1D O 0.6119(4) -0.5291(5) -0.1395(3)
O2D O 0.6177(3) -0.5714(4) -0.2698(3)
O3D O 0.4969(5) -0.4770(5) -0.3376(3)
O4D O 0.3739(3) -0.4234(4) -0.2576(3)
O6D O 0.4376(5) -0.6569(5) -0.2368(4)
O8B O 0.5554(5) -0.3206(6) -0.2225(4)
Na1F Na 0.5003(3) -0.0067(3) 0.2816(2)
C7D C 0.6409(5) -0.4731(7) 0.0345(4)
C9D C 0.5598(6) -0.6225(7) 0.0220(4)
H15D H 0.4028(38) -0.2862(47) -0.2134(30)
H23D H 0.3023(41) -0.2985(49) -0.2362(37)
C1D C 0.6084(5) -0.5350(7) -0.0717(5)
C15D C 0.6793(6) -0.5827(9) -0.1676(5)
C16D C 0.6891(6) -0.5485(7) -0.2367(5)
C17D C 0.6268(6) -0.5440(8) -0.3378(5)
C18D C 0.5423(6) -0.5576(8) -0.3672(5)
C19D C 0.4165(6) -0.4769(8) -0.3609(5)
C20D C 0.3796(6) -0.3887(7) -0.3249(5)
Cl1D Cl 0.3916(1) -0.7442(2) -0.2555(2)
C2D C 0.6481(6) -0.4648(8) -0.0343(5)
C6D C 0.6812(7) -0.3985(8) 0.0730(6)
C10D C 0.5116(6) -0.6985(8) 0.0491(5)
C14D C 0.5624(6) -0.6134(7) -0.0473(4)
H9D H 0.6691(42) -0.6661(54) -0.1641(36)
H17D H 0.7354(50) -0.5675(60) -0.1376(36)
H10D H 0.7385(45) -0.5896(54) -0.2581(39)
H18D H 0.7014(44) -0.4715(56) -0.2396(41)
H11D H 0.6705(49) -0.5895(58) -0.3622(38)
H19D H 0.6467(51) -0.4659(62) -0.3451(42)
H12D H 0.5439(50) -0.5484(63) -0.4211(40)
H20D H 0.5227(50) -0.6312(61) -0.3552(38)
H13D H 0.4116(43) -0.4629(55) -0.4132(35)
H21D H 0.3835(47) -0.5427(58) -0.3478(38)
H14D H 0.4128(44) -0.3231(58) -0.3294(39)
H22D H 0.3183(51) -0.3747(61) -0.3442(42)
O7D O 0.3388(5) -0.7171(6) -0.3064(4)
O8D O 0.4446(5) -0.8206(6) -0.2775(4)
O9D O 0.3466(5) -0.7816(7) -0.2018(4)
C3D C 0.6897(6) -0.3851(8) -0.0633(6)
C5D C 0.7214(7) -0.3226(10) 0.0439(6)
H4D H 0.6794(49) -0.4008(57) 0.1217(37)
C11D C 0.4710(6) -0.7677(9) 0.0096(6)
H5D H 0.5039(47) -0.7043(59) 0.0982(35)
C13D C 0.5206(6) -0.6881(8) -0.0848(5)
Na1B Na 0.4997(3) -0.9933(3) -0.2816(2)
C4D C 0.7278(6) -0.3194(8) -0.0246(5)
H1D H 0.6918(43) -0.3779(51) -0.1133(34)
H3D H 0.7499(44) -0.2752(53) 0.0718(32)
C12D C 0.4763(6) -0.7559(9) -0.0563(5)
H6D H 0.4396(46) -0.8249(58) 0.0305(34)
H8D H 0.5238(44) -0.6875(57) -0.1345(34)
H2D H 0.7560(45) -0.2580(61) -0.0446(31)
H7D H 0.4427(45) -0.8056(56) -0.0831(36)
loop_
_geom_bond_atom_site_label_1
_geom_bond_atom_site_label_2
_geom_bond_site_symmetry_1
_geom_bond_site_symmetry_2
C1 C2 1_555 1_555
C2 C3 1_555 1_555
C3 C4 1_555 1_555
C4 C5 1_555 1_555
C5 C6 1_555 1_555
C6 C7 1_555 1_555
C7 C2 1_555 1_555
C8 C7 1_555 1_555
C9 C8 1_555 1_555
C10 C9 1_555 1_555
C11 C10 1_555 1_555
C12 C11 1_555 1_555
C13 C12 1_555 1_555
C14 C1 1_555 1_555
O1 C1 1_555 1_555
C15 O1 1_555 1_555
C16 C15 1_555 1_555
O2 C16 1_555 1_555
C17 O2 1_555 1_555
C18 C17 1_555 1_555
O3 C18 1_555 1_555
C19 O3 1_555 1_555
C20 C19 1_555 1_555
O4 C20 1_555 1_555
C21 O4 1_555 1_555
C22 C21 1_555 1_555
O5 C8 1_555 1_555
Cl1 O6 1_555 1_555
O6 Na1 1_555 1_555
O7 Cl1 1_555 1_555
O8 Cl1 1_555 1_555
O9 Cl1 1_555 1_555
Na1 O1 1_555 1_555
H1 C3 1_555 1_555
H2 C4 1_555 1_555
H3 C5 1_555 1_555
H4 C6 1_555 1_555
H5 C10 1_555 1_555
H6 C11 1_555 1_555
H7 C12 1_555 1_555
H8 C13 1_555 1_555
H9 C15 1_555 1_555
H10 C16 1_555 1_555
H11 C17 1_555 1_555
H12 C18 1_555 1_555
H13 C19 1_555 1_555
H14 C20 1_555 1_555
H15 C21 1_555 1_555
H16 C22 1_555 1_555
H17 C15 1_555 1_555
H18 C16 1_555 1_555
H19 C17 1_555 1_555
H20 C18 1_555 1_555
H21 C19 1_555 1_555
H22 C20 1_555 1_555
H23 C21 1_555 1_555
H24 C22 1_555 1_555
O5D C22 1_555 1_555
C22D O5 1_555 1_555
Na1D O5 1_555 1_555
O8F Na1 1_555 1_555
C8D O5D 1_555 1_555
C21D C22D 1_555 1_555
H16D C22D 1_555 1_555
H24D C22D 1_555 1_555
O1D Na1D 1_555 1_555
O2D Na1D 1_555 1_555
O3D Na1D 1_555 1_555
O4D Na1D 1_555 1_555
O6D Na1D 1_555 1_555
O8B Na1D 1_555 1_555
Na1F O8 1_555 1_555
C7D C8D 1_555 1_555
C9D C8D 1_555 1_555
H15D C21D 1_555 1_555
H23D C21D 1_555 1_555
C1D O1D 1_555 1_555
C15D O1D 1_555 1_555
C16D O2D 1_555 1_555
C17D O2D 1_555 1_555
C18D O3D 1_555 1_555
C19D O3D 1_555 1_555
C20D O4D 1_555 1_555
Cl1D O6D 1_555 1_555
C2D C7D 1_555 1_555
C6D C7D 1_555 1_555
C10D C9D 1_555 1_555
C14D C9D 1_555 1_555
H9D C15D 1_555 1_555
H17D C15D 1_555 1_555
H10D C16D 1_555 1_555
H18D C16D 1_555 1_555
H11D C17D 1_555 1_555
H19D C17D 1_555 1_555
H12D C18D 1_555 1_555
H20D C18D 1_555 1_555
H13D C19D 1_555 1_555
H21D C19D 1_555 1_555
H14D C20D 1_555 1_555
H22D C20D 1_555 1_555
O7D Cl1D 1_555 1_555
O8D Cl1D 1_555 1_555
O9D Cl1D 1_555 1_555
C3D C2D 1_555 1_555
C5D C6D 1_555 1_555
H4D C6D 1_555 1_555
C11D C10D 1_555 1_555
H5D C10D 1_555 1_555
C13D C14D 1_555 1_555
Na1B O8D 1_555 1_555
C4D C3D 1_555 1_555
H1D C3D 1_555 1_555
H3D C5D 1_555 1_555
C12D C11D 1_555 1_555
H6D C11D 1_555 1_555
H8D C13D 1_555 1_555
H2D C4D 1_555 1_555
H7D C12D 1_555 1_555
C9 C14 1_555 1_555
C13 C14 1_555 1_555
O2 Na1 1_555 1_555
O3 Na1 1_555 1_555
O4 Na1 1_555 1_555
Na1 O5D 1_555 1_555
C21D O4D 1_555 1_555
C1D C2D 1_555 1_555
C1D C14D 1_555 1_555
C15D C16D 1_555 1_555
C17D C18D 1_555 1_555
C19D C20D 1_555 1_555
C5D C4D 1_555 1_555
C13D C12D 1_555 1_555

#END
