
#######################################################################
#
#                 Cambridge Crystallographic Data Centre
#                                CCDC 
#
#######################################################################
#
# If this CIF has been generated from an entry in the Cambridge 
# Structural Database, then it will include bibliographic, chemical, 
# crystal, experimental, refinement or atomic coordinate data resulting 
# from the CCDC's data processing and validation procedures.
#
#######################################################################

data_FEZVUC
_symmetry_cell_setting           monoclinic
_symmetry_space_group_name_H-M   'P 21/c'
_symmetry_Int_Tables_number      14
_space_group_name_Hall           '-P 2ybc'
loop_
_symmetry_equiv_pos_site_id
_symmetry_equiv_pos_as_xyz
1 x,y,z
2 -x,1/2+y,1/2-z
3 -x,-y,-z
4 x,1/2-y,1/2+z
_cell_length_a                   10.3546(7)
_cell_length_b                   17.0014(11)
_cell_length_c                   8.6821(6)
_cell_angle_alpha                90
_cell_angle_beta                 93.8640(10)
_cell_angle_gamma                90
_cell_volume                     1524.95
loop_
_atom_site_label
_atom_site_type_symbol
_atom_site_fract_x
_atom_site_fract_y
_atom_site_fract_z
Pb1 Pb 0.22776(3) 0.742677(19) 0.02489(4)
C1 C -0.2121(11) 0.5795(7) -0.0130(13)
H1 H -0.2853 0.5469 -0.0013
N1 N 0.0025(8) 0.6740(5) -0.0414(10)
C2 C -0.1206(10) 0.5578(6) -0.1116(11)
C3 C -0.0889(13) 0.6939(7) 0.0521(15)
H2 H -0.0787 0.7413 0.1095
C4 C -0.1980(14) 0.6488(7) 0.0696(17)
H3 H -0.2618 0.6650 0.1367
C5 C -0.0149(10) 0.6071(5) -0.1206(12)
H4 H 0.0496 0.5924 -0.1878
O1 O 0.2770(8) 0.6696(4) -0.1997(8)
O2 O 0.3864(10) 0.6001(5) -0.0225(9)
C6 C -0.0612(11) 0.4564(6) -0.3067(13)
H5 H 0.0114 0.4863 -0.3336
C7 C -0.1346(10) 0.4823(6) -0.1982(12)
H6 H -0.2039 0.4491 -0.1729
C8 C 0.3378(11) 0.6096(6) -0.1567(13)
C9 C 0.4179(12) 0.4840(6) -0.2636(14)
H7 H 0.4736 0.4796 -0.1725
C10 C 0.3407(12) 0.5448(6) -0.2778(13)
H8 H 0.2837 0.5488 -0.3678
C11 C 0.4232(11) 0.4216(6) -0.3818(12)
C12 C 0.5325(11) 0.3739(6) -0.3778(12)
H9 H 0.5985 0.3829 -0.2983
C13 C 0.3258(12) 0.4061(7) -0.4945(14)
H10 H 0.2489 0.4368 -0.5009
O3 O -0.0398(9) 0.3672(5) -0.5108(10)
N2 N 0.5505(9) 0.3163(5) -0.4790(11)
C14 C -0.0915(11) 0.3813(5) -0.3858(12)
C15 C 0.4548(12) 0.3045(7) -0.5914(13)
H11 H 0.4678 0.2663 -0.6686
C16 C 0.3417(11) 0.3448(7) -0.5988(15)
H12 H 0.2741 0.3316 -0.6738
O4 O -0.1692(7) 0.3343(4) -0.3293(8)
Pb1A Pb 0.77224(3) 0.242677(19) -0.52489(4)
Pb1A_2 Pb -0.22776(3) 0.242677(19) -0.52489(4)
N2A N 0.4495(9) 0.8163(5) -0.0210(11)
O4A O 0.1692(7) 0.8343(4) -0.1707(8)
loop_
_geom_bond_atom_site_label_1
_geom_bond_atom_site_label_2
_geom_bond_site_symmetry_1
_geom_bond_site_symmetry_2
Pb1 N1 1_555 1_555
C1 H1 1_555 1_555
N1 C3 1_555 1_555
C2 C1 1_555 1_555
C3 H2 1_555 1_555
C4 C1 1_555 1_555
H3 C4 1_555 1_555
C5 N1 1_555 1_555
H4 C5 1_555 1_555
O1 Pb1 1_555 1_555
O2 C8 1_555 1_555
C6 H5 1_555 1_555
C7 C2 1_555 1_555
H6 C7 1_555 1_555
C8 O1 1_555 1_555
C9 H7 1_555 1_555
C10 C8 1_555 1_555
H8 C10 1_555 1_555
C11 C9 1_555 1_555
C12 C11 1_555 1_555
H9 C12 1_555 1_555
C13 C11 1_555 1_555
H10 C13 1_555 1_555
O3 C14 1_555 1_555
N2 C12 1_555 1_555
C14 C6 1_555 1_555
C15 N2 1_555 1_555
H11 C15 1_555 1_555
C16 C13 1_555 1_555
H12 C16 1_555 1_555
O4 C14 1_555 1_555
Pb1A N2 1_555 1_555
Pb1A_2 O4 1_555 1_555
N2A Pb1 1_555 1_555
O4A Pb1 1_555 1_555
C2 C5 1_555 1_555
C3 C4 1_555 1_555
C6 C7 1_555 1_555
C9 C10 1_555 1_555
C15 C16 1_555 1_555

#END
