
#######################################################################
#
#                 Cambridge Crystallographic Data Centre
#                                CCDC 
#
#######################################################################
#
# If this CIF has been generated from an entry in the Cambridge 
# Structural Database, then it will include bibliographic, chemical, 
# crystal, experimental, refinement or atomic coordinate data resulting 
# from the CCDC's data processing and validation procedures.
#
#######################################################################

data_FIBCEA
_symmetry_cell_setting           orthorhombic
_symmetry_space_group_name_H-M   'P n m a'
_symmetry_Int_Tables_number      62
_space_group_name_Hall           '-P 2ac 2n'
loop_
_symmetry_equiv_pos_site_id
_symmetry_equiv_pos_as_xyz
1 x,y,z
2 1/2-x,-y,1/2+z
3 -x,1/2+y,-z
4 1/2+x,1/2-y,1/2-z
5 -x,-y,-z
6 1/2+x,y,1/2-z
7 x,1/2-y,z
8 1/2-x,1/2+y,1/2+z
_cell_length_a                   17.4968(17)
_cell_length_b                   7.7874(9)
_cell_length_c                   9.5644(9)
_cell_angle_alpha                90
_cell_angle_beta                 90
_cell_angle_gamma                90
_cell_volume                     1303.19
loop_
_atom_site_label
_atom_site_type_symbol
_atom_site_fract_x
_atom_site_fract_y
_atom_site_fract_z
C1 C 0.32555 0.11720 -0.03877
N1 N 0.39816 0.16152 -0.02263
H1 H 0.30933 -0.01831 -0.04238
N2 N 0.27636 0.25000 -0.04970
H2 H 0.21972 0.25000 -0.06229
Fe1 Fe 0.50000 0.00000 0.00000
C2 C 0.56887 0.11720 0.29577
N3 N 0.54021 0.16152 0.17267
H3 H 0.57527 -0.01831 0.32327
N4 N 0.58829 0.25000 0.37918
H4 H 0.61065 0.25000 0.47521
C3 C 0.60558 0.11720 -0.25700
N5 N 0.56164 0.16152 -0.15004
H5 H 0.61539 -0.01831 -0.28089
N6 N 0.63535 0.25000 -0.32948
C1F C 0.32555 0.38280 -0.03877
N1F N 0.39816 0.33848 -0.02263
H1F H 0.30933 0.51831 -0.04238
C2F C 0.56887 0.38280 0.29577
N3F N 0.54021 0.33848 0.17267
H3F H 0.57527 0.51831 0.32327
C3F C 0.60558 0.38280 -0.25700
N5F N 0.56164 0.33848 -0.15004
H5F H 0.61539 0.51831 -0.28089
N1D N 0.60184 -0.16152 0.02263
Fe1B Fe 0.50000 0.50000 0.00000
N3D N 0.45979 -0.16152 -0.17267
N5D N 0.43836 -0.16152 0.15004
F1 F 0.31619 0.10715 0.61503
B1 B 0.32748 0.25000 0.53536
F2 F 0.40037 0.25000 0.48492
F3 F 0.27719 0.25000 0.42646
F1F F 0.31619 0.39285 0.61503
loop_
_geom_bond_atom_site_label_1
_geom_bond_atom_site_label_2
_geom_bond_site_symmetry_1
_geom_bond_site_symmetry_2
C1 N1 1_555 1_555
N1 Fe1 1_555 1_555
H1 C1 1_555 1_555
N2 C1 1_555 1_555
H2 N2 1_555 1_555
Fe1 N3 1_555 1_555
C2 N3 1_555 1_555
N3 N3F 1_555 1_555
H3 C2 1_555 1_555
N4 C2 1_555 1_555
H4 N4 1_555 1_555
C3 N5 1_555 1_555
N5 Fe1 1_555 1_555
H5 C3 1_555 1_555
N6 C3 1_555 1_555
F1 B1 1_555 1_555
B1 F2 1_555 1_555
F3 B1 1_555 1_555
C1F N2 1_555 1_555
N1F N1 1_555 1_555
H1F C1F 1_555 1_555
C2F N4 1_555 1_555
N3F C2F 1_555 1_555
H3F C2F 1_555 1_555
C3F N6 1_555 1_555
N5F N5 1_555 1_555
H5F C3F 1_555 1_555
N1D Fe1 1_555 1_555
Fe1B N1F 1_555 1_555
N3D Fe1 1_555 1_555
N5D Fe1 1_555 1_555
F1F B1 1_555 1_555
C1F N1F 1_555 1_555
N3F Fe1B 1_555 1_555
C3F N5F 1_555 1_555
N5F Fe1B 1_555 1_555

#END
