
#######################################################################
#
#                 Cambridge Crystallographic Data Centre
#                                CCDC 
#
#######################################################################
#
# If this CIF has been generated from an entry in the Cambridge 
# Structural Database, then it will include bibliographic, chemical, 
# crystal, experimental, refinement or atomic coordinate data resulting 
# from the CCDC's data processing and validation procedures.
#
#######################################################################

data_FIBFEC
_symmetry_cell_setting           triclinic
_symmetry_space_group_name_H-M   'P -1'
_symmetry_Int_Tables_number      2
_space_group_name_Hall           '-P 1'
loop_
_symmetry_equiv_pos_site_id
_symmetry_equiv_pos_as_xyz
1 x,y,z
2 -x,-y,-z
_cell_length_a                   9.011(3)
_cell_length_b                   10.790(3)
_cell_length_c                   12.288(3)
_cell_angle_alpha                64.604(6)
_cell_angle_beta                 89.571(9)
_cell_angle_gamma                83.515(8)
_cell_volume                     1071.27
loop_
_atom_site_label
_atom_site_type_symbol
_atom_site_fract_x
_atom_site_fract_y
_atom_site_fract_z
Zn1 Zn 0.896194(16) -0.344070(15) 0.623130(13)
Cl1 Cl 1.02701(4) -0.19240(3) 0.64486(3)
Cl2 Cl 1.01123(4) -0.55735(3) 0.69208(3)
O1 O 0.67326(11) -0.20562(9) 0.28140(8)
O2 O 0.45369(10) -0.34433(9) 0.73835(8)
N1 N 0.80868(12) -0.26354(11) 0.44875(10)
N2 N 0.69500(12) -0.35941(11) 0.70563(10)
C1 C 0.78589(14) -0.01602(13) 0.12857(12)
C2 C 0.88605(16) 0.08303(14) 0.09648(13)
H1 H 0.941(2) 0.096(2) 0.1564(18)
C3 C 0.90184(16) 0.16907(14) -0.02440(13)
H2 H 0.971(2) 0.236(2) -0.0497(17)
C4 C 0.81651(16) 0.15894(14) -0.11366(12)
H3 H 0.828(2) 0.2189(19) -0.1949(17)
C5 C 0.71416(17) 0.06411(14) -0.08170(13)
H4 H 0.657(2) 0.055(2) -0.1437(19)
C6 C 0.69936(16) -0.02425(14) 0.03859(12)
H5 H 0.630(2) -0.090(2) 0.0596(17)
C7 C 0.77964(14) -0.11503(13) 0.25410(12)
C8 C 0.86175(15) -0.14966(13) 0.35702(12)
H6 H 0.943(2) -0.1096(18) 0.3715(16)
C9 C 0.69798(14) -0.29295(13) 0.39917(11)
C10 C 0.59761(15) -0.39977(13) 0.45137(12)
C11 C 0.44815(16) -0.37075(14) 0.40952(13)
H7 H 0.411(2) -0.281(2) 0.3495(18)
C12 C 0.64964(16) -0.52977(14) 0.54182(13)
H8 H 0.750(2) -0.549(2) 0.5706(17)
C13 C 0.42328(15) -0.56419(13) 0.90794(12)
C14 C 0.26873(16) -0.52868(15) 0.90225(13)
H9 H 0.219(2) -0.446(2) 0.8396(18)
C15 C 0.18316(17) -0.61506(16) 0.99148(14)
H10 H 0.076(2) -0.589(2) 0.9876(19)
C16 C 0.24940(18) -0.73540(15) 1.08505(14)
H11 H 0.187(2) -0.787(2) 1.1423(18)
C17 C 0.40313(17) -0.77107(14) 1.08978(13)
H12 H 0.447(2) -0.851(2) 1.1496(18)
C18 C 0.49066(16) -0.68622(14) 1.00213(12)
H13 H 0.597(2) -0.7089(18) 1.0066(16)
C19 C 0.51775(15) -0.47372(13) 0.81973(12)
C20 C 0.66545(15) -0.48288(13) 0.79915(12)
H14 H 0.7413(19) -0.5585(18) 0.8374(15)
C21 C 0.56651(14) -0.28042(13) 0.67380(11)
C22 C 0.53305(14) -0.13717(13) 0.58427(12)
C23 C 0.38790(14) -0.08740(13) 0.53340(12)
H15 H 0.316(2) -0.1444(19) 0.5522(17)
C24 C 0.64467(15) -0.04916(14) 0.55092(13)
H16 H 0.745(2) -0.0826(19) 0.5869(17)
Zn1A Zn 0.103806(16) -0.655930(15) 0.376870(13)
Zn1A_2 Zn 0.103806(16) 0.344070(15) 0.376870(13)
Cl1A Cl -0.02701(4) -0.80760(3) 0.35514(3)
Cl2A Cl -0.01123(4) -0.44265(3) 0.30792(3)
O1A O 0.32674(11) -0.79438(9) 0.71860(8)
O2A O 0.54631(10) 0.34433(9) 0.26165(8)
N1A N 0.19132(12) -0.73646(11) 0.55125(10)
N2A N 0.30500(12) 0.35941(11) 0.29437(10)
N2A_2 N 0.30500(12) -0.64059(11) 0.29437(10)
C1A C 0.21411(14) -0.98398(13) 0.87143(12)
C2A C 0.11395(16) -1.08303(14) 0.90352(13)
H1A H 0.059(2) -1.096(2) 0.8436(18)
C3A C 0.09816(16) -1.16907(14) 1.02440(13)
H2A H 0.029(2) -1.236(2) 1.0497(17)
C4A C 0.18349(16) -1.15894(14) 1.11366(12)
H3A H 0.172(2) -1.2189(19) 1.1949(17)
C5A C 0.28584(17) -1.06411(14) 1.08170(13)
H4A H 0.343(2) -1.055(2) 1.1437(19)
C6A C 0.30064(16) -0.97575(14) 0.96141(12)
H5A H 0.370(2) -0.910(2) 0.9404(17)
C7A C 0.22036(14) -0.88497(13) 0.74590(12)
C8A C 0.13825(15) -0.85034(13) 0.64298(12)
H6A H 0.057(2) -0.8904(18) 0.6285(16)
C9A C 0.30202(14) -0.70705(13) 0.60083(11)
C10A C 0.40239(15) -0.60023(13) 0.54863(12)
C11A C 0.55185(16) -0.62925(14) 0.59048(13)
H7A H 0.589(2) -0.719(2) 0.6505(18)
C12A C 0.35036(16) -0.47023(14) 0.45818(13)
H8A H 0.250(2) -0.451(2) 0.4294(17)
C13A C 0.57672(15) 0.56419(13) 0.09206(12)
C14A C 0.73127(16) 0.52868(15) 0.09775(13)
H9A H 0.781(2) 0.446(2) 0.1604(18)
C15A C 0.81684(17) 0.61506(16) 0.00852(14)
H10A H 0.924(2) 0.589(2) 0.0124(19)
C16A C 0.75060(18) 0.73540(15) -0.08505(14)
H11A H 0.813(2) 0.787(2) -0.1423(18)
C17A C 0.59687(17) 0.77107(14) -0.08978(13)
H12A H 0.553(2) 0.851(2) -0.1496(18)
C18A C 0.50934(16) 0.68622(14) -0.00213(12)
H13A H 0.403(2) 0.7089(18) -0.0066(16)
C19A C 0.48225(15) 0.47372(13) 0.18027(12)
C20A C 0.33455(15) 0.48288(13) 0.20085(12)
H14A H 0.2587(19) 0.5585(18) 0.1626(15)
C21A C 0.43349(14) 0.28042(13) 0.32620(11)
C22A C 0.46695(14) 0.13717(13) 0.41573(12)
C23A C 0.61210(14) 0.08740(13) 0.46660(12)
H15A H 0.684(2) 0.1444(19) 0.4478(17)
C24A C 0.35533(15) 0.04916(14) 0.44908(13)
H16A H 0.255(2) 0.0826(19) 0.4131(17)
loop_
_geom_bond_atom_site_label_1
_geom_bond_atom_site_label_2
_geom_bond_site_symmetry_1
_geom_bond_site_symmetry_2
Zn1 Cl1 1_555 1_555
Cl2 Zn1 1_555 1_555
O1 C7 1_555 1_555
O2 C19 1_555 1_555
N1 Zn1 1_555 1_555
N2 Zn1 1_555 1_555
C1 C2 1_555 1_555
C2 H1 1_555 1_555
C3 C2 1_555 1_555
H2 C3 1_555 1_555
C4 C3 1_555 1_555
H3 C4 1_555 1_555
C5 C4 1_555 1_555
H4 C5 1_555 1_555
C6 C1 1_555 1_555
H5 C6 1_555 1_555
C7 C1 1_555 1_555
C8 N1 1_555 1_555
H6 C8 1_555 1_555
C9 O1 1_555 1_555
C10 C9 1_555 1_555
C11 C10 1_555 1_555
H7 C11 1_555 1_555
C12 C10 1_555 1_555
H8 C12 1_555 1_555
C13 C14 1_555 1_555
C14 H9 1_555 1_555
C15 C14 1_555 1_555
H10 C15 1_555 1_555
C16 C15 1_555 1_555
H11 C16 1_555 1_555
C17 C16 1_555 1_555
H12 C17 1_555 1_555
C18 C13 1_555 1_555
H13 C18 1_555 1_555
C19 C13 1_555 1_555
C20 N2 1_555 1_555
H14 C20 1_555 1_555
C21 O2 1_555 1_555
C22 C21 1_555 1_555
C23 C22 1_555 1_555
H15 C23 1_555 1_555
C24 C22 1_555 1_555
H16 C24 1_555 1_555
Zn1A Cl1A 1_555 1_555
Zn1A_2 N2A 1_555 1_555
Cl2A Zn1A 1_555 1_555
O1A C7A 1_555 1_555
O2A C19A 1_555 1_555
N1A Zn1A 1_555 1_555
N2A C20A 1_555 1_555
N2A_2 Zn1A 1_555 1_555
C1A C2A 1_555 1_555
C2A H1A 1_555 1_555
C3A C2A 1_555 1_555
H2A C3A 1_555 1_555
C4A C3A 1_555 1_555
H3A C4A 1_555 1_555
C5A C4A 1_555 1_555
H4A C5A 1_555 1_555
C6A C1A 1_555 1_555
H5A C6A 1_555 1_555
C7A C1A 1_555 1_555
C8A N1A 1_555 1_555
H6A C8A 1_555 1_555
C9A O1A 1_555 1_555
C10A C9A 1_555 1_555
C11A C12 1_555 1_555
H7A C11A 1_555 1_555
C12A C11 1_555 1_555
H8A C12A 1_555 1_555
C13A C14A 1_555 1_555
C14A H9A 1_555 1_555
C15A C14A 1_555 1_555
H10A C15A 1_555 1_555
C16A C15A 1_555 1_555
H11A C16A 1_555 1_555
C17A C16A 1_555 1_555
H12A C17A 1_555 1_555
C18A C13A 1_555 1_555
H13A C18A 1_555 1_555
C19A C13A 1_555 1_555
C20A C19A 1_555 1_555
H14A C20A 1_555 1_555
C21A O2A 1_555 1_555
C22A C21A 1_555 1_555
C23A C24 1_555 1_555
H15A C23A 1_555 1_555
C24A C23 1_555 1_555
H16A C24A 1_555 1_555
N1 C9 1_555 1_555
N2 C21 1_555 1_555
C5 C6 1_555 1_555
C7 C8 1_555 1_555
C17 C18 1_555 1_555
C19 C20 1_555 1_555
N1A C9A 1_555 1_555
N2A C21A 1_555 1_555
C5A C6A 1_555 1_555
C7A C8A 1_555 1_555
C10A C11A 1_555 1_555
C10A C12A 1_555 1_555
C17A C18A 1_555 1_555
C22A C23A 1_555 1_555
C22A C24A 1_555 1_555

#END
