
#######################################################################
#
#                 Cambridge Crystallographic Data Centre
#                                CCDC 
#
#######################################################################
#
# If this CIF has been generated from an entry in the Cambridge 
# Structural Database, then it will include bibliographic, chemical, 
# crystal, experimental, refinement or atomic coordinate data resulting 
# from the CCDC's data processing and validation procedures.
#
#######################################################################

data_FIBKOR
_symmetry_cell_setting           monoclinic
_symmetry_space_group_name_H-M   'P 21/c'
_symmetry_Int_Tables_number      14
_space_group_name_Hall           '-P 2ybc'
loop_
_symmetry_equiv_pos_site_id
_symmetry_equiv_pos_as_xyz
1 x,y,z
2 -x,1/2+y,1/2-z
3 -x,-y,-z
4 x,1/2-y,1/2+z
_cell_length_a                   9.905(2)
_cell_length_b                   10.063(2)
_cell_length_c                   13.612(3)
_cell_angle_alpha                90
_cell_angle_beta                 101.774(4)
_cell_angle_gamma                90
_cell_volume                     1328.22
loop_
_atom_site_label
_atom_site_type_symbol
_atom_site_fract_x
_atom_site_fract_y
_atom_site_fract_z
Cd1 Cd -0.27148(3) 0.35584(3) -0.04317(3)
S1 S -0.51558(12) 0.36973(13) -0.18384(9)
S2 S -0.22326(13) 0.57490(13) -0.13880(10)
N1 N -0.2914(4) 0.1342(4) 0.0010(3)
N2 N -0.1762(4) 0.2136(4) -0.1511(3)
N3 N -0.1142(4) 0.2647(4) -0.2235(3)
H1 H -0.0684 0.2127 -0.2561
H2 H -0.1204 0.3492 -0.2371
N4 N -0.6338(4) 0.5676(5) -0.0850(3)
N5 N 0.0533(4) 0.6362(4) -0.0631(3)
C1 C -0.3529(5) 0.0959(5) 0.0739(4)
H3 H -0.3944 0.1602 0.1081
C2 C -0.3578(6) -0.0363(6) 0.1011(4)
H4 H -0.4023 -0.0615 0.1530
C3 C -0.2975(7) -0.1287(6) 0.0518(5)
H5 H -0.2967 -0.2186 0.0706
C4 C -0.2374(6) -0.0892(5) -0.0261(4)
H6 H -0.1999 -0.1531 -0.0632
C5 C -0.2317(5) 0.0431(5) -0.0500(3)
C6 C -0.1665(5) 0.0896(5) -0.1317(4)
C7 C -0.0912(5) -0.0057(5) -0.1863(4)
H7 H -0.0550 0.0417 -0.2373
H8 H -0.1542 -0.0744 -0.2177
H9 H -0.0157 -0.0462 -0.1391
C8 C -0.5848(4) 0.4862(5) -0.1249(3)
C9 C -0.0601(5) 0.6090(4) -0.0914(3)
Cd1B Cd -0.72852(3) 0.64416(3) 0.04317(3)
Cd1B_2 Cd 0.27148(3) 0.64416(3) 0.04317(3)
N4B N -0.3662(4) 0.4324(5) 0.0850(3)
N5B N -0.0533(4) 0.3638(4) 0.0631(3)
loop_
_geom_bond_atom_site_label_1
_geom_bond_atom_site_label_2
_geom_bond_site_symmetry_1
_geom_bond_site_symmetry_2
Cd1 S1 1_555 1_555
S1 C8 1_555 1_555
S2 Cd1 1_555 1_555
N1 Cd1 1_555 1_555
N2 Cd1 1_555 1_555
N3 N2 1_555 1_555
H1 N3 1_555 1_555
H2 N3 1_555 1_555
N4 C8 1_555 1_555
N5 C9 1_555 1_555
C1 N1 1_555 1_555
H3 C1 1_555 1_555
C2 C1 1_555 1_555
H4 C2 1_555 1_555
C3 C2 1_555 1_555
H5 C3 1_555 1_555
C4 C3 1_555 1_555
H6 C4 1_555 1_555
C5 N1 1_555 1_555
C6 N2 1_555 1_555
C7 C6 1_555 1_555
H7 C7 1_555 1_555
H8 C7 1_555 1_555
H9 C7 1_555 1_555
C9 S2 1_555 1_555
Cd1B N4 1_555 1_555
Cd1B_2 N5 1_555 1_555
N4B Cd1 1_555 1_555
N5B Cd1 1_555 1_555
C4 C5 1_555 1_555
C5 C6 1_555 1_555

#END
