
#######################################################################
#
#                 Cambridge Crystallographic Data Centre
#                                CCDC 
#
#######################################################################
#
# If this CIF has been generated from an entry in the Cambridge 
# Structural Database, then it will include bibliographic, chemical, 
# crystal, experimental, refinement or atomic coordinate data resulting 
# from the CCDC's data processing and validation procedures.
#
#######################################################################

data_FIBVIX
_symmetry_cell_setting           triclinic
_symmetry_space_group_name_H-M   'P -1'
_symmetry_Int_Tables_number      2
_space_group_name_Hall           '-P 1'
loop_
_symmetry_equiv_pos_site_id
_symmetry_equiv_pos_as_xyz
1 x,y,z
2 -x,-y,-z
_cell_length_a                   6.872(3)
_cell_length_b                   6.908(3)
_cell_length_c                   14.166(6)
_cell_angle_alpha                89.146(6)
_cell_angle_beta                 85.898(6)
_cell_angle_gamma                87.377(7)
_cell_volume                     670.014
loop_
_atom_site_label
_atom_site_type_symbol
_atom_site_fract_x
_atom_site_fract_y
_atom_site_fract_z
Cd1 Cd 0.50441(10) 0.61618(9) 0.76932(5)
S1 S 0.7850(4) 1.4610(4) 0.32870(18)
S2 S 1.3613(4) -0.2729(3) 0.93068(17)
N1 N 0.7459(12) 1.3087(11) 0.5017(6)
N2 N 1.0322(11) -0.1115(10) 0.8692(5)
O1 O 0.6241(10) 0.8799(9) 0.7002(5)
O2 O 0.7007(12) 0.6511(10) 0.5966(5)
O3 O 0.6542(10) 0.3306(9) 0.7919(5)
O4 O 0.8295(10) 0.5502(9) 0.8513(6)
C1 C 0.7733(14) 1.2708(13) 0.4086(7)
C2 C 0.7894(14) 1.0768(14) 0.3836(7)
H1 H 0.8145 1.0446 0.3203
C3 C 0.7694(14) 0.9327(13) 0.4496(7)
H2 H 0.7823 0.8038 0.4312
C4 C 0.7290(12) 0.9788(13) 0.5463(6)
C5 C 0.7218(13) 1.1697(13) 0.5686(6)
H3 H 0.6997 1.2053 0.6317
C6 C 0.6863(13) 0.8240(13) 0.6184(6)
C7 C 1.2091(13) -0.0787(13) 0.9015(6)
C8 C 1.2521(14) 0.1115(14) 0.9121(7)
H4 H 1.3725 0.1402 0.9331
C9 C 1.1224(15) 0.2591(14) 0.8924(8)
H5 H 1.1531 0.3864 0.9026
C10 C 0.9426(14) 0.2207(12) 0.8568(6)
C11 C 0.9024(13) 0.0332(13) 0.8461(6)
H6 H 0.7848 0.0025 0.8226
C12 C 0.8007(13) 0.3793(13) 0.8326(6)
Cd1_2 Cd 1.50441(10) -0.38382(9) 0.76932(5)
Cd1A Cd 0.49559(10) 1.38382(9) 0.23068(5)
S1A S 0.2150(4) 0.5390(4) 0.67130(18)
S2_2 S 0.3613(4) 0.7271(3) 0.93068(17)
loop_
_geom_bond_atom_site_label_1
_geom_bond_atom_site_label_2
_geom_bond_site_symmetry_1
_geom_bond_site_symmetry_2
Cd1 O1 1_555 1_555
S1 C1 1_555 1_555
S2 C7 1_555 1_555
N1 C1 1_555 1_555
N2 C7 1_555 1_555
O1 C6 1_555 1_555
O2 Cd1 1_555 1_555
O3 Cd1 1_555 1_555
O4 Cd1 1_555 1_555
C1 C2 1_555 1_555
C2 H1 1_555 1_555
C3 C2 1_555 1_555
H2 C3 1_555 1_555
C4 C3 1_555 1_555
C5 N1 1_555 1_555
H3 C5 1_555 1_555
C6 O2 1_555 1_555
C7 C8 1_555 1_555
C8 H4 1_555 1_555
C9 C8 1_555 1_555
H5 C9 1_555 1_555
C10 C9 1_555 1_555
C11 N2 1_555 1_555
H6 C11 1_555 1_555
C12 O3 1_555 1_555
Cd1_2 S2 1_555 1_555
Cd1A S1 1_555 1_555
S1A Cd1 1_555 1_555
S2_2 Cd1 1_555 1_555
O4 C12 1_555 1_555
C4 C5 1_555 1_555
C4 C6 1_555 1_555
C10 C11 1_555 1_555
C10 C12 1_555 1_555

#END
