
#######################################################################
#
#                 Cambridge Crystallographic Data Centre
#                                CCDC 
#
#######################################################################
#
# If this CIF has been generated from an entry in the Cambridge 
# Structural Database, then it will include bibliographic, chemical, 
# crystal, experimental, refinement or atomic coordinate data resulting 
# from the CCDC's data processing and validation procedures.
#
#######################################################################

data_FIBWOD01
_symmetry_cell_setting           monoclinic
_symmetry_space_group_name_H-M   'P 21/c'
_symmetry_Int_Tables_number      14
_space_group_name_Hall           '-P 2ybc'
loop_
_symmetry_equiv_pos_site_id
_symmetry_equiv_pos_as_xyz
1 x,y,z
2 -x,1/2+y,1/2-z
3 -x,-y,-z
4 x,1/2-y,1/2+z
_cell_length_a                   7.9241(4)
_cell_length_b                   26.3867(15)
_cell_length_c                   11.5784(6)
_cell_angle_alpha                90
_cell_angle_beta                 106.8510(10)
_cell_angle_gamma                90
_cell_volume                     2316.99
loop_
_atom_site_label
_atom_site_type_symbol
_atom_site_fract_x
_atom_site_fract_y
_atom_site_fract_z
C1 C 0.7850(9) 0.3664(3) 0.5743(6)
C2 C 0.8139(9) 0.4065(3) 0.4916(6)
C3 C 0.6914(10) 0.4463(3) 0.4683(8)
H1 H 0.5967 0.4446 0.5004
C4 C 0.7063(12) 0.4872(3) 0.4004(9)
H2 H 0.6248 0.5135 0.3881
C5 C 0.8477(12) 0.4892(3) 0.3486(8)
H3 H 0.8598 0.5163 0.3003
C6 C 0.9675(11) 0.4495(3) 0.3719(8)
H4 H 1.0601 0.4506 0.3377
C7 C 0.9562(9) 0.4090(3) 0.4427(6)
C8 C 1.0944(8) 0.3687(3) 0.4559(6)
C9 C 1.2134(9) 0.3040(3) 0.9682(7)
C10 C 1.1986(10) 0.3552(3) 1.0162(6)
C11 C 1.1293(12) 0.3937(3) 0.9367(8)
H5 H 1.0827 0.3860 0.8553
C12 C 1.1266(14) 0.4433(3) 0.9736(9)
H6 H 1.0763 0.4685 0.9182
C13 C 1.2002(13) 0.4551(3) 1.0950(9)
H7 H 1.1988 0.4884 1.1207
C14 C 1.2755(12) 0.4177(3) 1.1779(7)
H8 H 1.3297 0.4264 1.2580
C15 C 1.2702(10) 0.3670(3) 1.1415(6)
C16 C 1.3383(9) 0.3311(3) 1.2418(6)
C17 C 1.7266(9) 0.2828(3) 0.9858(6)
C18 C 1.6743(9) 0.3363(3) 0.9603(6)
C19 C 1.7331(11) 0.3727(3) 1.0505(7)
H9 H 1.8148 0.3637 1.1230
C20 C 1.6711(13) 0.4223(4) 1.0335(8)
H10 H 1.7102 0.4461 1.0946
C21 C 1.5514(12) 0.4361(3) 0.9256(9)
H11 H 1.5096 0.4692 0.9143
C22 C 1.4933(11) 0.4009(3) 0.8342(7)
H12 H 1.4147 0.4107 0.7612
C23 C 1.5514(9) 0.3510(3) 0.8506(6)
C24 C 1.4910(9) 0.3138(3) 0.7489(6)
Dy1 Dy 1.08523(4) 0.273888(12) 0.65848(3)
Dy2 Dy 1.40209(4) 0.304837(11) 0.48580(3)
O1 O 0.6290(6) 0.35694(19) 0.5736(4)
O2 O 0.9159(7) 0.3438(2) 0.6464(5)
O3 O 1.0663(6) 0.32212(19) 0.4685(4)
O4 O 1.2435(7) 0.38347(19) 0.4486(5)
O5 O 1.1904(8) 0.2997(2) 0.8564(5)
O6 O 1.2589(6) 0.26657(18) 1.0405(5)
O7 O 1.2395(7) 0.29681(18) 1.2657(4)
O8 O 1.4857(7) 0.3399(2) 1.3170(5)
O9 O 1.8886(7) 0.27297(19) 1.0145(5)
O10 O 1.6098(7) 0.2517(2) 0.9838(5)
O11 O 1.5807(7) 0.2789(2) 0.7353(5)
O12 O 1.3377(6) 0.32374(19) 0.6707(4)
O13 O 0.8934(7) 0.2358(2) 0.7566(5)
H13 H 0.8097 0.2554 0.7594
H14 H 0.9480 0.2258 0.8274
Dy1C Dy 1.08523(4) 0.226112(12) 1.15848(3)
Dy1C_2 Dy 2.08523(4) 0.226112(12) 1.15848(3)
Dy2_2 Dy 0.40209(4) 0.304837(11) 0.48580(3)
Dy2C Dy 1.40209(4) 0.195163(11) 0.98580(3)
Dy2_3 Dy 1.40209(4) 0.304837(11) 1.48580(3)
O1_2 O 1.6290(6) 0.35694(19) 0.5736(4)
O6C O 1.2589(6) 0.23343(18) 0.5405(5)
O7C O 1.2395(7) 0.20319(18) 0.7657(4)
O7_2 O 1.2395(7) 0.29681(18) 0.2657(4)
O8_2 O 1.4857(7) 0.3399(2) 0.3170(5)
O9C O 0.8886(7) 0.22703(19) 0.5145(5)
O10C O 1.6098(7) 0.2483(2) 0.4838(5)
loop_
_geom_bond_atom_site_label_1
_geom_bond_atom_site_label_2
_geom_bond_site_symmetry_1
_geom_bond_site_symmetry_2
C1 C2 1_555 1_555
C2 C3 1_555 1_555
C3 H1 1_555 1_555
C4 C3 1_555 1_555
H2 C4 1_555 1_555
C5 C4 1_555 1_555
H3 C5 1_555 1_555
C6 C5 1_555 1_555
H4 C6 1_555 1_555
C7 C2 1_555 1_555
C8 C7 1_555 1_555
C9 C10 1_555 1_555
C10 C11 1_555 1_555
C11 H5 1_555 1_555
C12 C11 1_555 1_555
H6 C12 1_555 1_555
C13 C12 1_555 1_555
H7 C13 1_555 1_555
C14 C13 1_555 1_555
H8 C14 1_555 1_555
C15 C10 1_555 1_555
C16 C15 1_555 1_555
C17 C18 1_555 1_555
C18 C19 1_555 1_555
C19 H9 1_555 1_555
C20 C19 1_555 1_555
H10 C20 1_555 1_555
C21 C20 1_555 1_555
H11 C21 1_555 1_555
C22 C21 1_555 1_555
H12 C22 1_555 1_555
C23 C18 1_555 1_555
C24 C23 1_555 1_555
Dy1 O2 1_555 1_555
Dy2 O3 1_555 1_555
O1 C1 1_555 1_555
O2 C1 1_555 1_555
O3 C8 1_555 1_555
O4 C8 1_555 1_555
O5 C9 1_555 1_555
O6 C9 1_555 1_555
O7 C16 1_555 1_555
O8 C16 1_555 1_555
O9 C17 1_555 1_555
O10 C17 1_555 1_555
O11 C24 1_555 1_555
O12 C24 1_555 1_555
O13 Dy1 1_555 1_555
H13 O13 1_555 1_555
H14 O13 1_555 1_555
Dy1C O6 1_555 1_555
Dy1C_2 O9 1_555 1_555
Dy2_2 O1 1_555 1_555
Dy2C O6 1_555 1_555
Dy2_3 O7 1_555 1_555
O1_2 Dy2 1_555 1_555
O6C Dy1 1_555 1_555
O7C Dy1 1_555 1_555
O7_2 Dy2 1_555 1_555
O8_2 Dy2 1_555 1_555
O9C Dy1 1_555 1_555
O10C Dy2 1_555 1_555
C6 C7 1_555 1_555
C14 C15 1_555 1_555
C22 C23 1_555 1_555
Dy1 O3 1_555 1_555
Dy1 O5 1_555 1_555
Dy1 O12 1_555 1_555
Dy2 O4 1_555 1_555
Dy2 O12 1_555 1_555
Dy2 O6C 1_555 1_555
O7 Dy1C 1_555 1_555
O8 Dy2_3 1_555 1_555
O10 Dy2C 1_555 1_555
Dy2C O7C 1_555 1_555

#END
