
#######################################################################
#
#                 Cambridge Crystallographic Data Centre
#                                CCDC 
#
#######################################################################
#
# If this CIF has been generated from an entry in the Cambridge 
# Structural Database, then it will include bibliographic, chemical, 
# crystal, experimental, refinement or atomic coordinate data resulting 
# from the CCDC's data processing and validation procedures.
#
#######################################################################

data_FICKEJ
_symmetry_cell_setting           triclinic
_symmetry_space_group_name_H-M   'P -1'
_symmetry_Int_Tables_number      2
_space_group_name_Hall           '-P 1'
loop_
_symmetry_equiv_pos_site_id
_symmetry_equiv_pos_as_xyz
1 x,y,z
2 -x,-y,-z
_cell_length_a                   9.128(3)
_cell_length_b                   13.654(4)
_cell_length_c                   14.128(4)
_cell_angle_alpha                97.222(3)
_cell_angle_beta                 96.653(3)
_cell_angle_gamma                105.169(3)
_cell_volume                     1665.52
loop_
_atom_site_label
_atom_site_type_symbol
_atom_site_fract_x
_atom_site_fract_y
_atom_site_fract_z
Sm1 Sm 0.37285(3) 0.360094(18) 0.012634(18)
O1 O 0.3324(4) 0.2903(3) 0.1636(2)
O2 O 0.5175(4) 0.2542(3) 0.0941(3)
O3 O 0.3275(6) -0.0177(3) 0.3745(3)
H1 H 0.2857 -0.0715 0.3371
O4 O 0.1287(6) -0.0721(4) 0.4470(5)
O5 O 0.5627(4) 0.3524(2) -0.0928(2)
O6 O 0.7192(4) 0.5084(2) -0.0930(2)
O7 O 1.2240(4) 0.3677(3) -0.1362(3)
O8 O 1.4046(4) 0.5140(3) -0.0988(2)
N1 N 0.7298(6) 0.2044(4) 0.3514(4)
N2 N 0.7879(5) 0.2128(3) -0.2778(3)
N3 N 0.0820(4) 0.2691(3) 0.0037(3)
N4 N 0.2709(5) 0.1714(3) -0.0753(3)
C1 C 0.4495(6) 0.2576(4) 0.1657(4)
C2 C 0.5108(6) 0.2264(4) 0.2558(4)
C3 C 0.6614(7) 0.2226(4) 0.2710(4)
H2 H 0.7184 0.2338 0.2209
C4 C 0.6469(7) 0.1890(5) 0.4222(5)
H3 H 0.6937 0.1770 0.4800
C5 C 0.4960(6) 0.1897(4) 0.4150(4)
C6 C 0.4275(6) 0.2097(4) 0.3304(4)
H4 H 0.3258 0.2118 0.3236
C7 C 0.4137(6) 0.1785(4) 0.5003(4)
C8 C 0.4535(8) 0.2593(5) 0.5736(4)
H5 H 0.5321 0.3170 0.5693
C9 C 0.3822(8) 0.2592(5) 0.6542(5)
H6 H 0.4149 0.3150 0.7042
C10 C 0.2637(8) 0.1772(6) 0.6601(5)
H7 H 0.2117 0.1777 0.7129
C11 C 0.2213(7) 0.0939(5) 0.5882(5)
H8 H 0.1418 0.0368 0.5928
C12 C 0.2967(7) 0.0940(4) 0.5078(4)
C13 C 0.2410(8) -0.0040(5) 0.4367(5)
C14 C 0.7667(5) 0.3645(4) -0.1839(4)
C15 C 0.7176(6) 0.2613(4) -0.2185(4)
H9 H 0.6293 0.2227 -0.1993
C16 C 0.9154(6) 0.2701(4) -0.3039(4)
H10 H 0.9667 0.2374 -0.3451
C17 C 0.9756(5) 0.3750(4) -0.2732(3)
C18 C 0.8974(5) 0.4224(4) -0.2133(3)
H11 H 0.9319 0.4931 -0.1927
C19 C 0.6759(5) 0.4126(4) -0.1182(3)
C20 C 1.1127(5) 0.4295(4) -0.3134(4)
C21 C 1.0958(7) 0.4371(5) -0.4100(4)
H12 H 0.9990 0.4106 -0.4472
C22 C 1.2178(7) 0.4827(5) -0.4535(4)
H13 H 1.2037 0.4855 -0.5193
C23 C 1.3599(7) 0.5239(4) -0.3989(4)
H14 H 1.4424 0.5562 -0.4274
C24 C 1.3813(6) 0.5179(4) -0.3022(4)
H15 H 1.4784 0.5456 -0.2657
C25 C 1.2583(5) 0.4705(3) -0.2585(3)
C26 C 1.2953(5) 0.4510(4) -0.1574(4)
C27 C -0.0113(6) 0.3161(4) 0.0426(4)
H16 H 0.0291 0.3840 0.0730
C28 C -0.1679(6) 0.2690(5) 0.0406(4)
H17 H -0.2299 0.3050 0.0685
C29 C -0.2259(6) 0.1711(5) -0.0024(5)
H18 H -0.3281 0.1375 -0.0008
C30 C -0.1365(6) 0.1183(4) -0.0496(4)
C31 C 0.0198(6) 0.1714(4) -0.0439(4)
C32 C -0.1919(7) 0.0170(5) -0.0991(5)
H19 H -0.2948 -0.0179 -0.1018
C33 C -0.1008(8) -0.0314(5) -0.1427(5)
H20 H -0.1419 -0.0981 -0.1761
C34 C 0.0597(7) 0.0195(4) -0.1379(4)
C35 C 0.1195(6) 0.1205(4) -0.0870(4)
C36 C 0.1616(8) -0.0270(4) -0.1780(5)
H21 H 0.1258 -0.0931 -0.2135
C37 C 0.3131(8) 0.0239(4) -0.1655(5)
H22 H 0.3823 -0.0070 -0.1915
C38 C 0.3631(6) 0.1222(4) -0.1135(4)
H23 H 0.4675 0.1560 -0.1047
Sm1_2 Sm 1.37285(3) 0.360094(18) 0.012634(18)
Sm1A Sm 0.62715(3) 0.639906(18) -0.012634(18)
Sm1A_2 Sm 1.62715(3) 0.639906(18) -0.012634(18)
O6A O 0.2808(4) 0.4916(2) 0.0930(2)
O7_2 O 0.2240(4) 0.3677(3) -0.1362(3)
O8_2 O 0.4046(4) 0.5140(3) -0.0988(2)
O8A O 0.5954(4) 0.4860(3) 0.0988(2)
O9 O 0.0408(6) 0.2007(4) 0.3929(4)
H24 H -0.0523 0.2014 0.3809
H25 H 0.0955 0.2252 0.3648
O10 O 0.1598(11) 0.3737(6) 0.2972(6)
H26 H 0.2113 0.3498 0.2584
H27 H 0.0732 0.3603 0.3085
loop_
_geom_bond_atom_site_label_1
_geom_bond_atom_site_label_2
_geom_bond_site_symmetry_1
_geom_bond_site_symmetry_2
Sm1 O1 1_555 1_555
O1 C1 1_555 1_555
O2 Sm1 1_555 1_555
O3 H1 1_555 1_555
O4 C13 1_555 1_555
O5 Sm1 1_555 1_555
O6 C19 1_555 1_555
O7 C26 1_555 1_555
O8 C26 1_555 1_555
N1 C3 1_555 1_555
N2 C15 1_555 1_555
N3 Sm1 1_555 1_555
N4 Sm1 1_555 1_555
C1 O2 1_555 1_555
C2 C1 1_555 1_555
C3 C2 1_555 1_555
H2 C3 1_555 1_555
C4 N1 1_555 1_555
H3 C4 1_555 1_555
C5 C4 1_555 1_555
C6 C2 1_555 1_555
H4 C6 1_555 1_555
C7 C5 1_555 1_555
C8 C7 1_555 1_555
H5 C8 1_555 1_555
C9 C8 1_555 1_555
H6 C9 1_555 1_555
C10 C9 1_555 1_555
H7 C10 1_555 1_555
C11 C10 1_555 1_555
H8 C11 1_555 1_555
C12 C7 1_555 1_555
C13 O3 1_555 1_555
C14 C15 1_555 1_555
C15 H9 1_555 1_555
C16 N2 1_555 1_555
H10 C16 1_555 1_555
C17 C16 1_555 1_555
C18 C14 1_555 1_555
H11 C18 1_555 1_555
C19 O5 1_555 1_555
C20 C17 1_555 1_555
C21 C20 1_555 1_555
H12 C21 1_555 1_555
C22 C21 1_555 1_555
H13 C22 1_555 1_555
C23 C22 1_555 1_555
H14 C23 1_555 1_555
C24 C23 1_555 1_555
H15 C24 1_555 1_555
C25 C20 1_555 1_555
C26 C25 1_555 1_555
C27 N3 1_555 1_555
H16 C27 1_555 1_555
C28 C27 1_555 1_555
H17 C28 1_555 1_555
C29 C28 1_555 1_555
H18 C29 1_555 1_555
C30 C29 1_555 1_555
C31 N3 1_555 1_555
C32 C30 1_555 1_555
H19 C32 1_555 1_555
C33 C32 1_555 1_555
H20 C33 1_555 1_555
C34 C33 1_555 1_555
C35 N4 1_555 1_555
C36 C34 1_555 1_555
H21 C36 1_555 1_555
C37 C36 1_555 1_555
H22 C37 1_555 1_555
C38 N4 1_555 1_555
H23 C38 1_555 1_555
O9 H24 1_555 1_555
H25 O9 1_555 1_555
O10 H26 1_555 1_555
H27 O10 1_555 1_555
Sm1_2 O7 1_555 1_555
Sm1A O6 1_555 1_555
Sm1A_2 O8 1_555 1_555
O6A Sm1 1_555 1_555
O7_2 Sm1 1_555 1_555
O8_2 Sm1 1_555 1_555
O8A Sm1 1_555 1_555
O8 Sm1_2 1_555 1_555
C5 C6 1_555 1_555
C11 C12 1_555 1_555
C12 C13 1_555 1_555
C14 C19 1_555 1_555
C17 C18 1_555 1_555
C24 C25 1_555 1_555
C30 C31 1_555 1_555
C31 C35 1_555 1_555
C34 C35 1_555 1_555
C37 C38 1_555 1_555
Sm1A O8_2 1_555 1_555
Sm1A O8A 1_555 1_555

#END
