
#######################################################################
#
#                 Cambridge Crystallographic Data Centre
#                                CCDC 
#
#######################################################################
#
# If this CIF has been generated from an entry in the Cambridge 
# Structural Database, then it will include bibliographic, chemical, 
# crystal, experimental, refinement or atomic coordinate data resulting 
# from the CCDC's data processing and validation procedures.
#
#######################################################################

data_FICKOT
_symmetry_cell_setting           rhombohedral
_symmetry_space_group_name_H-M   'R -3'
_symmetry_Int_Tables_number      148
_space_group_name_Hall           '-R 3'
loop_
_symmetry_equiv_pos_site_id
_symmetry_equiv_pos_as_xyz
1 x,y,z
2 -y,x-y,z
3 -x+y,-x,z
4 2/3+x,1/3+y,1/3+z
5 2/3-y,1/3+x-y,1/3+z
6 2/3-x+y,1/3-x,1/3+z
7 1/3+x,2/3+y,2/3+z
8 1/3-y,2/3+x-y,2/3+z
9 1/3-x+y,2/3-x,2/3+z
10 -x,-y,-z
11 y,-x+y,-z
12 x-y,x,-z
13 1/3-x,2/3-y,2/3-z
14 1/3+y,2/3-x+y,2/3-z
15 1/3+x-y,2/3+x,2/3-z
16 2/3-x,1/3-y,1/3-z
17 2/3+y,1/3-x+y,1/3-z
18 2/3+x-y,1/3+x,1/3-z
_cell_length_a                   30.870(8)
_cell_length_b                   30.870(8)
_cell_length_c                   17.963(4)
_cell_angle_alpha                90
_cell_angle_beta                 90
_cell_angle_gamma                120
_cell_volume                     14824.6
loop_
_atom_site_label
_atom_site_type_symbol
_atom_site_fract_x
_atom_site_fract_y
_atom_site_fract_z
Tb1 Tb 0.368728(6) 0.158614(6) 0.581183(9)
O1 O 0.32089(9) 0.06625(8) 0.61458(13)
O2 O 0.30104(9) 0.11349(8) 0.67928(13)
O3 O 0.17497(9) -0.08293(8) 0.36028(12)
O4 O 0.16470(9) -0.13440(8) 0.45525(13)
O5 O 0.40299(9) 0.21034(9) 0.47028(14)
O6 O 0.45269(9) 0.23117(9) 0.56675(14)
O7 O 0.59406(12) 0.43420(11) 0.69195(17)
O8 O 0.60867(12) 0.39665(10) 0.78599(16)
H1 H 0.6217 0.4245 0.8052
N1 N 0.17496(11) 0.01961(11) 0.51116(16)
N2 N 0.57289(14) 0.27170(13) 0.6581(2)
N3 N 0.33509(10) 0.10134(10) 0.46699(15)
N4 N 0.42390(10) 0.12539(10) 0.53202(15)
C1 C 0.29629(12) 0.07095(12) 0.66577(18)
C2 C 0.26166(12) 0.02696(12) 0.71271(18)
C3 C 0.27321(14) 0.02705(14) 0.7869(2)
H2 H 0.3007 0.0550 0.8072
C4 C 0.24412(16) -0.01436(15) 0.8317(2)
H3 H 0.2520 -0.0141 0.8817
C5 C 0.20400(15) -0.05538(15) 0.8015(2)
H4 H 0.1847 -0.0832 0.8311
C6 C 0.19189(13) -0.05585(13) 0.7275(2)
H5 H 0.1645 -0.0841 0.7077
C7 C 0.22008(12) -0.01473(12) 0.68224(18)
C8 C 0.20426(12) -0.01566(12) 0.60391(18)
C9 C 0.19312(13) 0.02031(12) 0.57873(19)
H6 H 0.1986 0.0462 0.6108
C10 C 0.16866(13) -0.01655(13) 0.4646(2)
H7 H 0.1567 -0.0168 0.4169
C11 C 0.17912(12) -0.05403(12) 0.48382(18)
C12 C 0.19586(12) -0.05396(12) 0.55505(18)
H8 H 0.2015 -0.0795 0.5703
C13 C 0.17204(12) -0.09379(12) 0.42796(19)
C14 C 0.44529(14) 0.23795(13) 0.5004(2)
C15 C 0.48631(13) 0.27852(13) 0.4544(2)
C16 C 0.47425(16) 0.28662(16) 0.3829(2)
H9 H 0.4417 0.2667 0.3657
C17 C 0.50907(17) 0.32327(17) 0.3369(3)
H10 H 0.5000 0.3285 0.2898
C18 C 0.55720(18) 0.35176(17) 0.3616(3)
H11 H 0.5813 0.3757 0.3304
C19 C 0.57008(16) 0.34520(16) 0.4320(2)
H12 H 0.6028 0.3654 0.4483
C20 C 0.53525(14) 0.30888(14) 0.4798(2)
C21 C 0.55202(14) 0.30951(14) 0.5569(2)
C22 C 0.55791(16) 0.27193(15) 0.5888(2)
H13 H 0.5508 0.2445 0.5591
C23 C 0.58504(15) 0.31275(15) 0.6992(2)
H14 H 0.5960 0.3138 0.7477
C24 C 0.58211(14) 0.35322(14) 0.6732(2)
C25 C 0.56515(14) 0.35094(15) 0.6011(2)
H15 H 0.5626 0.3776 0.5821
C26 C 0.59593(15) 0.39953(15) 0.7167(2)
C27 C 0.29169(13) 0.08915(14) 0.4337(2)
H16 H 0.2733 0.1033 0.4518
C28 C 0.27253(15) 0.05659(15) 0.3737(2)
H17 H 0.2422 0.0495 0.3525
C29 C 0.29843(15) 0.03523(15) 0.3464(2)
H18 H 0.2858 0.0131 0.3066
C30 C 0.34441(13) 0.04685(13) 0.3787(2)
C31 C 0.36133(12) 0.08009(12) 0.43932(18)
C32 C 0.37402(15) 0.02656(14) 0.3520(2)
H19 H 0.3626 0.0045 0.3120
C33 C 0.41789(15) 0.03876(14) 0.3834(2)
H20 H 0.4366 0.0252 0.3647
C34 C 0.43662(13) 0.07234(13) 0.4455(2)
C35 C 0.40817(12) 0.09289(12) 0.47350(19)
C36 C 0.48256(15) 0.08670(15) 0.4793(2)
H21 H 0.5021 0.0734 0.4629
C37 C 0.49880(14) 0.12022(16) 0.5366(2)
H22 H 0.5298 0.1308 0.5583
C38 C 0.46836(13) 0.13849(13) 0.5621(2)
H23 H 0.4795 0.1608 0.6019
Tb1G Tb 0.174719(6) -0.123219(8) 0.247850(9)
Tb1J Tb 0.158614(6) -0.210114(8) 0.418817(9)
Tb1O Tb 0.297939(6) 0.174719(6) 0.752150(9)
O2O O 0.36563(9) 0.21984(8) 0.65405(13)
O3E O 0.40877(12) 0.15836(9) 0.69361(12)
O4K O 0.29910(12) 0.16470(9) 0.54475(13)
O9 O 0.3783(3) 0.17465(19) 0.3161(3)
H24 H 0.3856 0.1851 0.3607
H25 H 0.3672 0.1559 0.3542
loop_
_geom_bond_atom_site_label_1
_geom_bond_atom_site_label_2
_geom_bond_site_symmetry_1
_geom_bond_site_symmetry_2
Tb1 O1 1_555 1_555
O1 C1 1_555 1_555
O2 Tb1 1_555 1_555
O3 C13 1_555 1_555
O4 C13 1_555 1_555
O5 Tb1 1_555 1_555
O6 Tb1 1_555 1_555
O7 C26 1_555 1_555
O8 H1 1_555 1_555
N1 C9 1_555 1_555
N2 C22 1_555 1_555
N3 Tb1 1_555 1_555
N4 Tb1 1_555 1_555
C1 O2 1_555 1_555
C2 C1 1_555 1_555
C3 C2 1_555 1_555
H2 C3 1_555 1_555
C4 C3 1_555 1_555
H3 C4 1_555 1_555
C5 C4 1_555 1_555
H4 C5 1_555 1_555
C6 C5 1_555 1_555
H5 C6 1_555 1_555
C7 C2 1_555 1_555
C8 C7 1_555 1_555
C9 C8 1_555 1_555
H6 C9 1_555 1_555
C10 N1 1_555 1_555
H7 C10 1_555 1_555
C11 C10 1_555 1_555
C12 C8 1_555 1_555
H8 C12 1_555 1_555
C13 C11 1_555 1_555
C14 O5 1_555 1_555
C15 C14 1_555 1_555
C16 C15 1_555 1_555
H9 C16 1_555 1_555
C17 C16 1_555 1_555
H10 C17 1_555 1_555
C18 C17 1_555 1_555
H11 C18 1_555 1_555
C19 C18 1_555 1_555
H12 C19 1_555 1_555
C20 C15 1_555 1_555
C21 C20 1_555 1_555
C22 C21 1_555 1_555
H13 C22 1_555 1_555
C23 N2 1_555 1_555
H14 C23 1_555 1_555
C24 C23 1_555 1_555
C25 C21 1_555 1_555
H15 C25 1_555 1_555
C26 O8 1_555 1_555
C27 N3 1_555 1_555
H16 C27 1_555 1_555
C28 C27 1_555 1_555
H17 C28 1_555 1_555
C29 C28 1_555 1_555
H18 C29 1_555 1_555
C30 C29 1_555 1_555
C31 N3 1_555 1_555
C32 C30 1_555 1_555
H19 C32 1_555 1_555
C33 C32 1_555 1_555
H20 C33 1_555 1_555
C34 C33 1_555 1_555
C35 N4 1_555 1_555
C36 C34 1_555 1_555
H21 C36 1_555 1_555
C37 C36 1_555 1_555
H22 C37 1_555 1_555
C38 N4 1_555 1_555
H23 C38 1_555 1_555
O9 H24 1_555 1_555
H25 O9 1_555 1_555
Tb1G O3 1_555 1_555
Tb1J O4 1_555 1_555
Tb1O O2 1_555 1_555
O2O Tb1 1_555 1_555
O3E Tb1 1_555 1_555
O4K Tb1 1_555 1_555
O6 C14 1_555 1_555
C6 C7 1_555 1_555
C11 C12 1_555 1_555
C19 C20 1_555 1_555
C24 C25 1_555 1_555
C24 C26 1_555 1_555
C30 C31 1_555 1_555
C31 C35 1_555 1_555
C34 C35 1_555 1_555
C37 C38 1_555 1_555
Tb1O O2O 1_555 1_555

#END
