
#######################################################################
#
#                 Cambridge Crystallographic Data Centre
#                                CCDC 
#
#######################################################################
#
# If this CIF has been generated from an entry in the Cambridge 
# Structural Database, then it will include bibliographic, chemical, 
# crystal, experimental, refinement or atomic coordinate data resulting 
# from the CCDC's data processing and validation procedures.
#
#######################################################################

data_FIDGOP
_symmetry_cell_setting           triclinic
_symmetry_space_group_name_H-M   'P -1'
_symmetry_Int_Tables_number      2
_space_group_name_Hall           '-P 1'
loop_
_symmetry_equiv_pos_site_id
_symmetry_equiv_pos_as_xyz
1 x,y,z
2 -x,-y,-z
_cell_length_a                   7.620(1)
_cell_length_b                   9.644(2)
_cell_length_c                   11.978(2)
_cell_angle_alpha                66.552(3)
_cell_angle_beta                 81.306(2)
_cell_angle_gamma                84.953(2)
_cell_volume                     797.888
loop_
_atom_site_label
_atom_site_type_symbol
_atom_site_fract_x
_atom_site_fract_y
_atom_site_fract_z
Co1 Co 0.37971(4) -0.65812(3) -0.26241(3)
O1 O -0.1866(3) 0.0356(2) -0.2670(2)
O2 O -0.3992(3) -0.0918(2) -0.1197(2)
O3 O 0.3622(2) -0.4264(2) -0.3906(2)
O4 O 0.4538(2) -0.4816(2) -0.2133(2)
O5 O 0.6418(2) -0.6842(2) -0.3513(2)
O6 O 0.4280(3) -0.8490(2) -0.1190(2)
N1 N 0.1139(3) -0.6483(2) -0.1674(2)
N2 N 0.2797(3) 0.2431(2) -0.3683(2)
C1 C 0.0357(3) -0.5205(3) -0.1606(2)
C2 C -0.1356(3) -0.5075(3) -0.1061(2)
C3 C -0.2294(3) -0.6411(3) -0.0496(3)
C4 C -0.1507(4) -0.7738(3) -0.0561(3)
C5 C 0.0175(3) -0.7731(3) -0.1142(3)
C6 C -0.2165(3) -0.3631(3) -0.1112(2)
C7 C -0.1468(3) -0.2285(3) -0.1711(2)
C8 C -0.2499(4) -0.0827(3) -0.1861(2)
C9 C 0.3162(3) 0.0996(3) -0.3542(2)
C10 C 0.2625(3) 0.0357(3) -0.4281(2)
C11 C 0.1648(3) 0.1273(3) -0.5197(2)
C12 C 0.1246(4) 0.2754(3) -0.5343(3)
C13 C 0.1830(4) 0.3284(3) -0.4571(3)
C14 C 0.3023(3) -0.1218(3) -0.4110(2)
C15 C 0.3935(3) -0.2235(3) -0.3274(2)
C16 C 0.4078(3) -0.3862(3) -0.3104(2)
H1 H 0.1111 -0.4360 -0.1979
H2 H -0.3453 -0.6384 -0.0216
H3 H -0.2114 -0.8669 -0.0118
H4 H 0.0803 -0.8659 -0.1245
H5 H -0.3364 -0.3665 -0.0776
H6 H -0.0230 -0.2187 -0.2012
H7 H 0.3900 0.0569 -0.3013
H8 H 0.1279 0.0933 -0.5771
H9 H 0.0682 0.3428 -0.6076
H10 H 0.1587 0.4362 -0.4726
H11 H 0.2545 -0.1562 -0.4627
H12 H 0.4560 -0.2005 -0.2695
H13 H 0.6450 -0.6648 -0.4290
H14 H 0.7077 -0.7773 -0.3281
H15 H 0.4907 -0.9202 -0.1133
H16 H 0.4123 -0.8402 -0.0481
Co1_2 Co 0.37971(4) 0.34188(3) -0.26241(3)
N2_2 N 0.2797(3) -0.7569(2) -0.3683(2)
loop_
_geom_bond_atom_site_label_1
_geom_bond_atom_site_label_2
_geom_bond_site_symmetry_1
_geom_bond_site_symmetry_2
Co1 O3 1_555 1_555
O1 C8 1_555 1_555
O2 C8 1_555 1_555
O3 C16 1_555 1_555
O4 Co1 1_555 1_555
O5 Co1 1_555 1_555
O6 Co1 1_555 1_555
N1 Co1 1_555 1_555
N2 C9 1_555 1_555
C1 N1 1_555 1_555
C2 C1 1_555 1_555
C3 C2 1_555 1_555
C4 C3 1_555 1_555
C5 N1 1_555 1_555
C6 C2 1_555 1_555
C7 C6 1_555 1_555
C8 C7 1_555 1_555
C9 C10 1_555 1_555
C10 C11 1_555 1_555
C11 C12 1_555 1_555
C12 C13 1_555 1_555
C13 N2 1_555 1_555
C14 C10 1_555 1_555
C15 C14 1_555 1_555
C16 O4 1_555 1_555
H1 C1 1_555 1_555
H2 C3 1_555 1_555
H3 C4 1_555 1_555
H4 C5 1_555 1_555
H5 C6 1_555 1_555
H6 C7 1_555 1_555
H7 C9 1_555 1_555
H8 C11 1_555 1_555
H9 C12 1_555 1_555
H10 C13 1_555 1_555
H11 C14 1_555 1_555
H12 C15 1_555 1_555
H13 O5 1_555 1_555
H14 O5 1_555 1_555
H15 O6 1_555 1_555
H16 O6 1_555 1_555
Co1_2 N2 1_555 1_555
N2_2 Co1 1_555 1_555
C4 C5 1_555 1_555
C15 C16 1_555 1_555

#END
