
#######################################################################
#
#                 Cambridge Crystallographic Data Centre
#                                CCDC 
#
#######################################################################
#
# If this CIF has been generated from an entry in the Cambridge 
# Structural Database, then it will include bibliographic, chemical, 
# crystal, experimental, refinement or atomic coordinate data resulting 
# from the CCDC's data processing and validation procedures.
#
#######################################################################

data_FIDRIV
_symmetry_cell_setting           tetragonal
_symmetry_space_group_name_H-M   'P 41 2 2'
_symmetry_Int_Tables_number      91
_space_group_name_Hall           'P 4w 2c'
loop_
_symmetry_equiv_pos_site_id
_symmetry_equiv_pos_as_xyz
1 x,y,z
2 -y,x,1/4+z
3 -x,-y,1/2+z
4 y,-x,3/4+z
5 x,-y,1/2-z
6 -x,y,-z
7 y,x,3/4-z
8 -y,-x,1/4-z
_cell_length_a                   23.6972(10)
_cell_length_b                   23.6972(10)
_cell_length_c                   14.1273(6)
_cell_angle_alpha                90
_cell_angle_beta                 90
_cell_angle_gamma                90
_cell_volume                     7933.29
loop_
_atom_site_label
_atom_site_type_symbol
_atom_site_fract_x
_atom_site_fract_y
_atom_site_fract_z
Dy1 Dy 0.0000 0.40988(3) 0.0000
Na1 Na 0.08101(10) 0.5000 -0.2500
O1 O 0.0633(3) 0.4804(2) 0.0040(3)
O2 O 0.0881(3) 0.5438(3) -0.1083(3)
O3 O -0.0076(2) 0.55765(17) 0.3192(3)
O4 O 0.0455(3) 0.6268(2) 0.3673(3)
O5 O 0.1303(3) 0.9004(2) -0.0137(4)
O6 O 0.0763(4) 0.3586(3) -0.0637(4)
C1 C 0.0715(4) 0.5290(4) -0.0245(5)
C2 C 0.0692(2) 0.57718(15) 0.0462(2)
C3 C 0.0502(2) 0.56544(13) 0.1372(3)
H1 H 0.0408 0.5287 0.1539
C4 C 0.0453(2) 0.60867(16) 0.2032(2)
C5 C 0.0593(2) 0.66363(14) 0.1782(2)
H2 H 0.0560 0.6926 0.2223
C6 C 0.0783(2) 0.67537(14) 0.0872(2)
C7 C 0.0832(2) 0.63214(17) 0.02118(19)
H3 H 0.0959 0.6400 -0.0397
C8 C 0.0267(4) 0.5961(3) 0.3007(5)
C9 C 0.0946(2) 0.73495(15) 0.0619(3)
C10 C 0.1282(2) 0.76841(19) 0.1197(2)
C11 C 0.1403(2) 0.82367(19) 0.0937(3)
C12 C 0.1188(2) 0.84548(15) 0.0098(3)
C13 C 0.0851(2) 0.81202(19) -0.0481(3)
C14 C 0.0730(2) 0.75676(19) -0.0220(3)
H4 H 0.0505 0.7344 -0.0608
C15 C 0.1576(4) 0.7438(4) 0.2073(5)
H5 H 0.1457 0.7055 0.2164
H6 H 0.1479 0.7658 0.2620
H7 H 0.1978 0.7449 0.1982
C16 C 0.0638(4) 0.8353(5) -0.1481(5)
C17 C 0.0274(5) 0.8851(5) -0.1320(7)
H8 H 0.0483 0.9134 -0.0984
H9 H -0.0050 0.8742 -0.0954
H10 H 0.0152 0.9000 -0.1918
C18 C 0.1148(5) 0.8525(5) -0.2095(6)
H11 H 0.1391 0.8205 -0.2183
H12 H 0.1353 0.8821 -0.1786
H13 H 0.1018 0.8655 -0.2700
C19 C 0.0279(5) 0.7933(4) -0.2011(5)
H14 H 0.0494 0.7597 -0.2130
H15 H 0.0161 0.8095 -0.2602
H16 H -0.0047 0.7840 -0.1639
O7 O 0.1427(6) 0.4298(7) -0.1966(7)
O1G O 0.5196(2) 0.9367(3) 0.2460(3)
O2G O 0.4562(3) 0.9119(3) 0.3583(3)
O3G O 0.44235(17) 1.0076(2) -0.0692(3)
O4G O 0.3732(2) 0.9545(3) -0.1173(3)
O5G O 0.0996(2) 0.8697(3) 0.2637(4)
C1G C 0.4710(4) 0.9285(4) 0.2745(5)
C2G C 0.42282(15) 0.9308(2) 0.2038(2)
C3G C 0.43456(13) 0.9498(2) 0.1128(3)
H1G H 0.4713 0.9592 0.0961
C4G C 0.39133(16) 0.9547(2) 0.0468(2)
C5G C 0.33637(14) 0.9407(2) 0.0718(2)
H2G H 0.3074 0.9440 0.0277
C6G C 0.32463(14) 0.9217(2) 0.1628(2)
C7G C 0.36786(17) 0.9168(2) 0.22882(19)
H3G H 0.3600 0.9041 0.2897
C8G C 0.4039(3) 0.9733(4) -0.0507(5)
C9G C 0.26505(15) 0.9054(2) 0.1881(3)
C10G C 0.23159(19) 0.8718(2) 0.1303(2)
C11G C 0.17633(19) 0.8597(2) 0.1563(3)
C12G C 0.15452(15) 0.8812(2) 0.2402(3)
C13G C 0.18798(19) 0.9149(2) 0.2981(3)
C14G C 0.24324(19) 0.9270(2) 0.2720(3)
H4G H 0.2656 0.9495 0.3108
C15G C 0.2562(4) 0.8424(4) 0.0427(5)
H5G H 0.2945 0.8543 0.0336
H6G H 0.2342 0.8521 -0.0120
H7G H 0.2551 0.8022 0.0518
C16G C 0.1647(5) 0.9362(4) 0.3981(5)
C17G C 0.1149(5) 0.9726(5) 0.3820(7)
H8G H 0.0866 0.9517 0.3484
H9G H 0.1258 1.0050 0.3454
H10G H 0.1000 0.9848 0.4418
C18G C 0.1475(5) 0.8852(5) 0.4595(6)
H11G H 0.1795 0.8609 0.4683
H12G H 0.1179 0.8647 0.4286
H13G H 0.1345 0.8982 0.5200
C19G C 0.2067(4) 0.9721(5) 0.4511(5)
H14G H 0.2403 0.9506 0.4630
H15G H 0.1905 0.9839 0.5102
H16G H 0.2160 1.0047 0.4139
O7D O 0.1427(6) 0.5702(7) -0.3034(7)
O6E O -0.0763(4) 0.3586(3) 0.0637(4)
Dy1A Dy 0.59012(3) 1.0000 0.2500
Dy1B Dy 0.0000 0.59012(3) 0.5000
Dy1C Dy 0.40988(3) 1.0000 -0.2500
Na1A Na 0.5000 1.08101(10) 0.0000
Na1B Na -0.08101(10) 0.5000 0.2500
Na1C Na 0.5000 0.91899(10) 0.5000
O1E O -0.0633(3) 0.4804(2) -0.0040(3)
O2D O 0.0881(3) 0.4562(3) -0.3917(3)
O3B O 0.0076(2) 0.44235(17) -0.1808(3)
O3D O -0.0076(2) 0.44235(17) 0.1808(3)
O3E O 0.0076(2) 0.55765(17) -0.3192(3)
O4B O -0.0455(3) 0.3732(2) -0.1327(3)
O4D O 0.0455(3) 0.3732(2) 0.1327(3)
loop_
_geom_bond_atom_site_label_1
_geom_bond_atom_site_label_2
_geom_bond_site_symmetry_1
_geom_bond_site_symmetry_2
Dy1 O1 1_555 1_555
Na1 O2 1_555 1_555
O1 C1 1_555 1_555
O2 C1 1_555 1_555
O3 C8 1_555 1_555
O4 C8 1_555 1_555
O5 C12 1_555 1_555
O6 Dy1 1_555 1_555
C1 C2 1_555 1_555
C2 C3 1_555 1_555
C3 H1 1_555 1_555
C4 C3 1_555 1_555
C5 C4 1_555 1_555
H2 C5 1_555 1_555
C6 C5 1_555 1_555
C7 C2 1_555 1_555
H3 C7 1_555 1_555
C8 C4 1_555 1_555
C9 C6 1_555 1_555
C10 C9 1_555 1_555
C11 C10 1_555 1_555
C12 C11 1_555 1_555
C13 C12 1_555 1_555
C14 C9 1_555 1_555
H4 C14 1_555 1_555
C15 C10 1_555 1_555
H5 C15 1_555 1_555
H6 C15 1_555 1_555
H7 C15 1_555 1_555
C16 C13 1_555 1_555
C17 C16 1_555 1_555
H8 C17 1_555 1_555
H9 C17 1_555 1_555
H10 C17 1_555 1_555
C18 C16 1_555 1_555
H11 C18 1_555 1_555
H12 C18 1_555 1_555
H13 C18 1_555 1_555
C19 C16 1_555 1_555
H14 C19 1_555 1_555
H15 C19 1_555 1_555
H16 C19 1_555 1_555
O7 Na1 1_555 1_555
O1G C1G 1_555 1_555
O2G C1G 1_555 1_555
O3G C8G 1_555 1_555
O4G C8G 1_555 1_555
O5G C12G 1_555 1_555
C1G C2G 1_555 1_555
C2G C3G 1_555 1_555
C3G H1G 1_555 1_555
C4G C3G 1_555 1_555
C5G C4G 1_555 1_555
H2G C5G 1_555 1_555
C6G C5G 1_555 1_555
C7G C2G 1_555 1_555
H3G C7G 1_555 1_555
C8G C4G 1_555 1_555
C9G C6G 1_555 1_555
C10G C9G 1_555 1_555
C11G C11 1_555 1_555
C12G C11G 1_555 1_555
C13G C12G 1_555 1_555
C14G C9G 1_555 1_555
H4G C14G 1_555 1_555
C15G C10G 1_555 1_555
H5G C15G 1_555 1_555
H6G C15G 1_555 1_555
H7G C15G 1_555 1_555
C16G C13G 1_555 1_555
C17G C16G 1_555 1_555
H8G C17G 1_555 1_555
H9G C17G 1_555 1_555
H10G C17G 1_555 1_555
C18G C16G 1_555 1_555
H11G C18G 1_555 1_555
H12G C18G 1_555 1_555
H13G C18G 1_555 1_555
C19G C16G 1_555 1_555
H14G C19G 1_555 1_555
H15G C19G 1_555 1_555
H16G C19G 1_555 1_555
O7D Na1 1_555 1_555
O6E Dy1 1_555 1_555
Dy1A O1G 1_555 1_555
Dy1B O3 1_555 1_555
Dy1C O3G 1_555 1_555
Na1A O3G 1_555 1_555
Na1B O3 1_555 1_555
Na1C O2G 1_555 1_555
O1E Dy1 1_555 1_555
O2D Na1 1_555 1_555
O3B Dy1 1_555 1_555
O3D Dy1 1_555 1_555
O3E Na1 1_555 1_555
O4B Dy1 1_555 1_555
O4D Dy1 1_555 1_555
Na1 O3B 1_555 1_555
O4 Dy1B 1_555 1_555
C6 C7 1_555 1_555
C13 C14 1_555 1_555
O4G Dy1C 1_555 1_555
C6G C7G 1_555 1_555
C10G C11G 1_555 1_555
C13G C14G 1_555 1_555
Na1B O3D 1_555 1_555

#END
