
#######################################################################
#
#                 Cambridge Crystallographic Data Centre
#                                CCDC 
#
#######################################################################
#
# If this CIF has been generated from an entry in the Cambridge 
# Structural Database, then it will include bibliographic, chemical, 
# crystal, experimental, refinement or atomic coordinate data resulting 
# from the CCDC's data processing and validation procedures.
#
#######################################################################

data_FIDTOD
_symmetry_cell_setting           monoclinic
_symmetry_space_group_name_H-M   'C 2/c'
_symmetry_Int_Tables_number      15
_space_group_name_Hall           '-C 2yn'
loop_
_symmetry_equiv_pos_site_id
_symmetry_equiv_pos_as_xyz
1 x,y,z
2 -x,y,1/2-z
3 1/2+x,1/2+y,z
4 1/2-x,1/2+y,1/2-z
5 -x,-y,-z
6 x,-y,1/2+z
7 1/2-x,1/2-y,-z
8 1/2+x,1/2-y,1/2+z
_cell_length_a                   43.577(3)
_cell_length_b                   7.6541(5)
_cell_length_c                   21.0472(13)
_cell_angle_alpha                90
_cell_angle_beta                 94.2070(10)
_cell_angle_gamma                90
_cell_volume                     7001.22
loop_
_atom_site_label
_atom_site_type_symbol
_atom_site_fract_x
_atom_site_fract_y
_atom_site_fract_z
Co1 Co 0.668476(6) 0.29681(3) 0.178291(13)
N1 N 0.71757(4) 0.2434(2) 0.18065(8)
O1 O 0.72198(4) -0.2427(2) 0.10312(9)
C1 C 0.73903(5) 0.3528(3) 0.20609(10)
H1 H 0.7328 0.4566 0.2241
O2 O 0.67662(4) 0.5683(2) 0.16358(9)
H2 H 0.6715(7) 0.642(5) 0.1895(16)
H3 H 0.6904(7) 0.612(4) 0.1458(14)
N2 N 0.76777(4) -0.1061(2) 0.12449(8)
H4 H 0.7873 -0.1169 0.1219
C2 C 0.77020(5) 0.3175(3) 0.20667(10)
H5 H 0.7845 0.3954 0.2255
O3 O 0.50389(5) 0.1555(3) 0.12681(17)
O4 O 0.40176(4) -0.8678(3) -0.05077(10)
N3 N 0.61883(4) 0.3498(2) 0.16475(8)
C3 C 0.77979(5) 0.1653(3) 0.17901(10)
H6 H 0.8006 0.1404 0.1781
O5 O 0.66366(3) 0.03491(19) 0.20123(7)
C4 C 0.75777(4) 0.0495(2) 0.15247(9)
N4 N 0.55274(4) 0.0875(3) 0.10795(11)
H7 H 0.5638 0.0091 0.0912
O6 O 0.65434(4) -0.2110(2) 0.25227(8)
N5 N 0.36393(4) -0.8490(3) 0.01757(9)
H8 H 0.3553 -0.7853 0.0448
C5 C 0.72680(5) 0.0936(3) 0.15474(9)
H9 H 0.7120 0.0162 0.1376
O7 O 0.66512(4) 0.3179(2) 0.37701(7)
C6 C 0.75002(5) -0.2406(3) 0.10129(10)
N6 N 0.33508(4) -1.2291(2) -0.07597(8)
O8 O 0.67183(3) 0.3491(2) 0.27453(7)
C7 C 0.76702(5) -0.3878(3) 0.07109(11)
H10 H 0.7813 -0.4406 0.1030
H11 H 0.7788 -0.3406 0.0377
C8 C 0.74516(5) -0.5271(3) 0.04298(10)
H12 H 0.7312 -0.4738 0.0106
H13 H 0.7330 -0.5710 0.0763
C9 C 0.76122(5) -0.6804(3) 0.01342(10)
H14 H 0.7754 -0.7331 0.0455
H15 H 0.7731 -0.6374 -0.0205
C10 C 0.60031(5) 0.2214(3) 0.14161(10)
H16 H 0.6093 0.1160 0.1312
C11 C 0.60548(5) 0.5008(3) 0.17972(13)
H17 H 0.6178 0.5914 0.1964
C12 C 0.57423(6) 0.5260(4) 0.17131(15)
H18 H 0.5658 0.6327 0.1821
C13 C 0.55527(6) 0.3936(4) 0.14695(15)
H19 H 0.5341 0.4100 0.1406
C14 C 0.56858(5) 0.2363(3) 0.13222(12)
C15 C 0.52233(6) 0.0530(4) 0.10777(16)
C16 C 0.51373(6) -0.1267(4) 0.08161(19)
H20 H 0.5214 -0.1381 0.0397
H21 H 0.5240 -0.2141 0.1089
C17 C 0.47989(6) -0.1645(4) 0.07644(16)
H22 H 0.4695 -0.0788 0.0485
H23 H 0.4720 -0.1528 0.1182
C18 C 0.47249(6) -0.3465(4) 0.05075(16)
H24 H 0.4812 -0.3592 0.0098
H25 H 0.4824 -0.4318 0.0796
C19 C 0.43846(6) -0.3863(4) 0.04258(14)
H26 H 0.4286 -0.3033 0.0128
H27 H 0.4296 -0.3708 0.0832
C20 C 0.43150(5) -0.5706(3) 0.01851(13)
H28 H 0.4396 -0.6545 0.0500
H29 H 0.4416 -0.5902 -0.0204
C21 C 0.39698(5) -0.5988(3) 0.00567(12)
H30 H 0.3868 -0.5655 0.0433
H31 H 0.3895 -0.5223 -0.0288
C22 C 0.38819(5) -0.7835(3) -0.01159(12)
C23 C 0.35240(5) -1.0202(3) 0.00429(10)
C24 C 0.34912(5) -1.1415(3) 0.05192(11)
H32 H 0.3538 -1.1127 0.0945
C25 C 0.33863(5) -1.3071(3) 0.03477(11)
H33 H 0.3357 -1.3906 0.0658
C26 C 0.33266(5) -1.3468(3) -0.02905(11)
H34 H 0.3267 -1.4601 -0.0401
C27 C 0.34405(5) -1.0672(3) -0.05844(10)
H35 H 0.3447 -0.9821 -0.0899
C28 C 0.60031(5) 0.2723(4) 0.32769(12)
H36 H 0.6018 0.3795 0.3484
C29 C 0.57204(6) 0.1902(4) 0.31982(14)
H37 H 0.5546 0.2444 0.3333
C30 C 0.56996(6) 0.0273(5) 0.29181(14)
H38 H 0.5511 -0.0303 0.2874
C31 C 0.59567(5) -0.0496(4) 0.27050(12)
H39 H 0.5941 -0.1610 0.2529
C32 C 0.62424(5) 0.0352(3) 0.27456(10)
C33 C 0.62662(5) 0.1977(3) 0.30523(10)
C34 C 0.65675(5) 0.2941(3) 0.31919(10)
C35 C 0.64970(5) -0.0531(3) 0.24138(10)
N1F N 0.78243(4) -1.7434(2) -0.18065(8)
O1F O 0.77802(4) -1.2573(2) -0.10312(9)
C1F C 0.76097(5) -1.8528(3) -0.20609(10)
H1F H 0.7672 -1.9566 -0.2241
N2F N 0.73223(4) -1.3939(2) -0.12449(8)
H4F H 0.7127 -1.3831 -0.1219
C2F C 0.72980(5) -1.8175(3) -0.20667(10)
H5F H 0.7155 -1.8954 -0.2255
C3F C 0.72021(5) -1.6653(3) -0.17901(10)
H6F H 0.6994 -1.6404 -0.1781
C4F C 0.74223(4) -1.5495(2) -0.15247(9)
C5F C 0.77320(5) -1.5936(3) -0.15474(9)
H9F H 0.7880 -1.5162 -0.1376
C6F C 0.74998(5) -1.2594(3) -0.10129(10)
C7F C 0.73298(5) -1.1122(3) -0.07109(11)
H10F H 0.7187 -1.0594 -0.1030
H11F H 0.7212 -1.1594 -0.0377
C8F C 0.75484(5) -0.9729(3) -0.04298(10)
H12F H 0.7688 -1.0262 -0.0106
H13F H 0.7670 -0.9290 -0.0763
C9F C 0.73878(5) -0.8196(3) -0.01342(10)
H14F H 0.7246 -0.7669 -0.0455
H15F H 0.7269 -0.8626 0.0205
Co1D Co 0.331524(6) -1.29681(3) -0.178291(13)
O2D O 0.32338(4) -1.5683(2) -0.16358(9)
H2D H 0.3285(7) -1.642(5) -0.1895(16)
H3D H 0.3096(7) -1.612(4) -0.1458(14)
O3D O 0.49611(5) -1.1555(3) -0.12681(17)
O4D O 0.59824(4) -0.1322(3) 0.05077(10)
N3D N 0.38117(4) -1.3498(2) -0.16475(8)
O5D O 0.33634(3) -1.03491(19) -0.20123(7)
N4D N 0.44726(4) -1.0875(3) -0.10795(11)
H7D H 0.4362 -1.0091 -0.0912
O6D O 0.34566(4) -0.7890(2) -0.25227(8)
N5D N 0.63607(4) -0.1510(3) -0.01757(9)
H8D H 0.6447 -0.2147 -0.0448
O7D O 0.33488(4) -1.3179(2) -0.37701(7)
N6D N 0.66492(4) 0.2291(2) 0.07597(8)
O8D O 0.32817(3) -1.3491(2) -0.27453(7)
C10D C 0.39969(5) -1.2214(3) -0.14161(10)
H16D H 0.3907 -1.1160 -0.1312
C11D C 0.39452(5) -1.5008(3) -0.17972(13)
H17D H 0.3822 -1.5914 -0.1964
C12D C 0.42577(6) -1.5260(4) -0.17131(15)
H18D H 0.4342 -1.6327 -0.1821
C13D C 0.44473(6) -1.3936(4) -0.14695(15)
H19D H 0.4659 -1.4100 -0.1406
C14D C 0.43142(5) -1.2363(3) -0.13222(12)
C15D C 0.47767(6) -1.0530(4) -0.10777(16)
C16D C 0.48627(6) -0.8733(4) -0.08161(19)
H20D H 0.4786 -0.8619 -0.0397
H21D H 0.4760 -0.7859 -0.1089
C17D C 0.52011(6) -0.8355(4) -0.07644(16)
H22D H 0.5305 -0.9212 -0.0485
H23D H 0.5280 -0.8472 -0.1182
C18D C 0.52751(6) -0.6535(4) -0.05075(16)
H24D H 0.5188 -0.6408 -0.0098
H25D H 0.5176 -0.5682 -0.0796
C19D C 0.56154(6) -0.6137(4) -0.04258(14)
H26D H 0.5714 -0.6967 -0.0128
H27D H 0.5704 -0.6292 -0.0832
C20D C 0.56850(5) -0.4294(3) -0.01851(13)
H28D H 0.5604 -0.3455 -0.0500
H29D H 0.5584 -0.4098 0.0204
C21D C 0.60302(5) -0.4012(3) -0.00567(12)
H30D H 0.6132 -0.4345 -0.0433
H31D H 0.6105 -0.4777 0.0288
C22D C 0.61181(5) -0.2165(3) 0.01159(12)
C23D C 0.64760(5) 0.0202(3) -0.00429(10)
C24D C 0.65088(5) 0.1415(3) -0.05192(11)
H32D H 0.6462 0.1127 -0.0945
C25D C 0.66137(5) 0.3071(3) -0.03477(11)
H33D H 0.6643 0.3906 -0.0658
C26D C 0.66734(5) 0.3468(3) 0.02905(11)
H34D H 0.6733 0.4601 0.0401
C27D C 0.65595(5) 0.0672(3) 0.05844(10)
H35D H 0.6553 -0.0179 0.0899
C28D C 0.39969(5) -1.2723(4) -0.32769(12)
H36D H 0.3982 -1.3795 -0.3484
C29D C 0.42796(6) -1.1902(4) -0.31982(14)
H37D H 0.4454 -1.2444 -0.3333
C30D C 0.43004(6) -1.0273(5) -0.29181(14)
H38D H 0.4489 -0.9697 -0.2874
C31D C 0.40433(5) -0.9504(4) -0.27050(12)
H39D H 0.4059 -0.8390 -0.2529
C32D C 0.37576(5) -1.0352(3) -0.27456(10)
C33D C 0.37338(5) -1.1977(3) -0.30523(10)
C34D C 0.34325(5) -1.2941(3) -0.31919(10)
C35D C 0.35030(5) -0.9469(3) -0.24138(10)
Co1F Co 0.831524(6) -1.79681(3) -0.178291(13)
N1D N 0.28243(4) -1.2434(2) -0.18065(8)
loop_
_geom_bond_atom_site_label_1
_geom_bond_atom_site_label_2
_geom_bond_site_symmetry_1
_geom_bond_site_symmetry_2
Co1 N1 1_555 1_555
N1 C1 1_555 1_555
O1 C6 1_555 1_555
C1 H1 1_555 1_555
O2 Co1 1_555 1_555
H2 O2 1_555 1_555
H3 O2 1_555 1_555
N2 H4 1_555 1_555
C2 C1 1_555 1_555
H5 C2 1_555 1_555
O3 C15 1_555 1_555
O4 C22 1_555 1_555
N3 Co1 1_555 1_555
C3 C2 1_555 1_555
H6 C3 1_555 1_555
O5 Co1 1_555 1_555
C4 N2 1_555 1_555
N4 H7 1_555 1_555
O6 C35 1_555 1_555
N5 H8 1_555 1_555
C5 N1 1_555 1_555
H9 C5 1_555 1_555
O7 C34 1_555 1_555
C6 N2 1_555 1_555
N6 C26 1_555 1_555
O8 Co1 1_555 1_555
C7 C6 1_555 1_555
H10 C7 1_555 1_555
H11 C7 1_555 1_555
C8 C7 1_555 1_555
H12 C8 1_555 1_555
H13 C8 1_555 1_555
C9 C8 1_555 1_555
H14 C9 1_555 1_555
H15 C9 1_555 1_555
C10 N3 1_555 1_555
H16 C10 1_555 1_555
C11 N3 1_555 1_555
H17 C11 1_555 1_555
C12 C11 1_555 1_555
H18 C12 1_555 1_555
C13 C12 1_555 1_555
H19 C13 1_555 1_555
C14 N4 1_555 1_555
C15 N4 1_555 1_555
C16 C15 1_555 1_555
H20 C16 1_555 1_555
H21 C16 1_555 1_555
C17 C16 1_555 1_555
H22 C17 1_555 1_555
H23 C17 1_555 1_555
C18 C17 1_555 1_555
H24 C18 1_555 1_555
H25 C18 1_555 1_555
C19 C18 1_555 1_555
H26 C19 1_555 1_555
H27 C19 1_555 1_555
C20 C19 1_555 1_555
H28 C20 1_555 1_555
H29 C20 1_555 1_555
C21 C20 1_555 1_555
H30 C21 1_555 1_555
H31 C21 1_555 1_555
C22 N5 1_555 1_555
C23 N5 1_555 1_555
C24 C23 1_555 1_555
H32 C24 1_555 1_555
C25 C24 1_555 1_555
H33 C25 1_555 1_555
C26 C25 1_555 1_555
H34 C26 1_555 1_555
C27 N6 1_555 1_555
H35 C27 1_555 1_555
C28 H36 1_555 1_555
C29 C28 1_555 1_555
H37 C29 1_555 1_555
C30 C29 1_555 1_555
H38 C30 1_555 1_555
C31 C30 1_555 1_555
H39 C31 1_555 1_555
C32 C31 1_555 1_555
C33 C28 1_555 1_555
C34 O8 1_555 1_555
C35 O5 1_555 1_555
N1F C1F 1_555 1_555
O1F C6F 1_555 1_555
C1F H1F 1_555 1_555
N2F H4F 1_555 1_555
C2F C1F 1_555 1_555
H5F C2F 1_555 1_555
C3F C2F 1_555 1_555
H6F C3F 1_555 1_555
C4F N2F 1_555 1_555
C5F N1F 1_555 1_555
H9F C5F 1_555 1_555
C6F N2F 1_555 1_555
C7F C6F 1_555 1_555
H10F C7F 1_555 1_555
H11F C7F 1_555 1_555
C8F C7F 1_555 1_555
H12F C8F 1_555 1_555
H13F C8F 1_555 1_555
C9F C9 1_555 1_555
H14F C9F 1_555 1_555
H15F C9F 1_555 1_555
Co1D N6 1_555 1_555
O2D Co1D 1_555 1_555
H2D O2D 1_555 1_555
H3D O2D 1_555 1_555
O3D C15D 1_555 1_555
O4D C22D 1_555 1_555
N3D Co1D 1_555 1_555
O5D Co1D 1_555 1_555
N4D H7D 1_555 1_555
O6D C35D 1_555 1_555
N5D H8D 1_555 1_555
O7D C34D 1_555 1_555
N6D Co1 1_555 1_555
O8D Co1D 1_555 1_555
C10D N3D 1_555 1_555
H16D C10D 1_555 1_555
C11D N3D 1_555 1_555
H17D C11D 1_555 1_555
C12D C11D 1_555 1_555
H18D C12D 1_555 1_555
C13D C12D 1_555 1_555
H19D C13D 1_555 1_555
C14D N4D 1_555 1_555
C15D N4D 1_555 1_555
C16D C15D 1_555 1_555
H20D C16D 1_555 1_555
H21D C16D 1_555 1_555
C17D C16D 1_555 1_555
H22D C17D 1_555 1_555
H23D C17D 1_555 1_555
C18D C17D 1_555 1_555
H24D C18D 1_555 1_555
H25D C18D 1_555 1_555
C19D C18D 1_555 1_555
H26D C19D 1_555 1_555
H27D C19D 1_555 1_555
C20D C19D 1_555 1_555
H28D C20D 1_555 1_555
H29D C20D 1_555 1_555
C21D C20D 1_555 1_555
H30D C21D 1_555 1_555
H31D C21D 1_555 1_555
C22D N5D 1_555 1_555
C23D N5D 1_555 1_555
C24D C23D 1_555 1_555
H32D C24D 1_555 1_555
C25D C24D 1_555 1_555
H33D C25D 1_555 1_555
C26D N6D 1_555 1_555
H34D C26D 1_555 1_555
C27D N6D 1_555 1_555
H35D C27D 1_555 1_555
C28D H36D 1_555 1_555
C29D C28D 1_555 1_555
H37D C29D 1_555 1_555
C30D C29D 1_555 1_555
H38D C30D 1_555 1_555
C31D C30D 1_555 1_555
H39D C31D 1_555 1_555
C32D C31D 1_555 1_555
C33D C28D 1_555 1_555
C34D O8D 1_555 1_555
C35D O5D 1_555 1_555
Co1F N1F 1_555 1_555
N1D Co1D 1_555 1_555
C3 C4 1_555 1_555
C4 C5 1_555 1_555
C10 C14 1_555 1_555
C13 C14 1_555 1_555
C21 C22 1_555 1_555
C23 C27 1_555 1_555
C32 C33 1_555 1_555
C32 C35 1_555 1_555
C33 C34 1_555 1_555
C3F C4F 1_555 1_555
C4F C5F 1_555 1_555
C8F C9F 1_555 1_555
C10D C14D 1_555 1_555
C13D C14D 1_555 1_555
C21D C22D 1_555 1_555
C23D C27D 1_555 1_555
C25D C26D 1_555 1_555
C32D C33D 1_555 1_555
C32D C35D 1_555 1_555
C33D C34D 1_555 1_555

#END
