
#######################################################################
#
#                 Cambridge Crystallographic Data Centre
#                                CCDC 
#
#######################################################################
#
# If this CIF has been generated from an entry in the Cambridge 
# Structural Database, then it will include bibliographic, chemical, 
# crystal, experimental, refinement or atomic coordinate data resulting 
# from the CCDC's data processing and validation procedures.
#
#######################################################################

data_FIDXAS
_symmetry_cell_setting           monoclinic
_symmetry_space_group_name_H-M   'P 21/c'
_symmetry_Int_Tables_number      14
_space_group_name_Hall           '-P 2ybc'
loop_
_symmetry_equiv_pos_site_id
_symmetry_equiv_pos_as_xyz
1 x,y,z
2 -x,1/2+y,1/2-z
3 -x,-y,-z
4 x,1/2-y,1/2+z
_cell_length_a                   22.56(3)
_cell_length_b                   11.155(15)
_cell_length_c                   20.32(3)
_cell_angle_alpha                90
_cell_angle_beta                 96.70(2)
_cell_angle_gamma                90
_cell_volume                     5078.74
loop_
_atom_site_label
_atom_site_type_symbol
_atom_site_fract_x
_atom_site_fract_y
_atom_site_fract_z
Sm1 Sm 0.243703(14) 0.46235(3) 0.054603(15)
Sm2 Sm 0.100473(14) 0.62632(3) -0.020411(15)
Sm3 Sm 0.396861(15) 0.59052(3) -0.006723(16)
N1 N 0.2418(3) 0.2038(5) 0.0532(3)
N2 N 0.1420(2) 0.8284(4) -0.0640(2)
N3 N 0.0235(2) 0.7886(4) -0.0637(2)
N4 N 0.3706(2) 0.7424(4) -0.1037(3)
N5 N 0.4743(2) 0.7620(4) -0.0192(3)
O1 O 0.20449(16) 0.6655(3) 0.03480(17)
O2 O 0.13227(17) 0.7661(3) 0.07322(18)
O3 O 0.31933(16) 0.6171(3) 0.07893(18)
O4 O 0.3558(2) 0.7763(4) 0.0354(2)
O5 O 0.16681(17) 0.4504(3) -0.04170(18)
O6 O 0.15535(18) 0.5827(4) -0.12258(19)
O7 O 0.28731(16) 0.5153(3) -0.04659(18)
O8 O 0.3609(2) 0.4471(4) -0.0973(2)
O9 O 0.12973(17) 0.4896(3) 0.07599(18)
O10 O 0.20193(18) 0.5113(4) 0.1577(2)
O11 O 0.02185(17) 0.6065(3) 0.04339(18)
O12 O -0.03235(18) 0.4807(4) 0.09622(19)
O13 O 0.32200(18) 0.3816(3) 0.1313(2)
O14 O 0.37852(17) 0.4078(3) 0.04992(19)
O15 O 0.45533(18) 0.5820(4) 0.0990(2)
O16 O 0.5302(2) 0.4738(4) 0.0695(3)
O17 O 0.2668(2) 0.2611(4) 0.0097(2)
O18 O 0.2106(2) 0.2647(4) 0.0883(2)
O19 O 0.2493(3) 0.0958(4) 0.0603(3)
C1 C 0.1866(3) 0.7438(5) 0.0750(3)
C2 C 0.2309(2) 0.8108(5) 0.1224(3)
C3 C 0.2088(3) 0.8834(5) 0.1696(3)
H1 H 0.1679 0.8853 0.1723
C4 C 0.2461(3) 0.9521(6) 0.2124(3)
H2 H 0.2307 0.9969 0.2451
C5 C 0.3055(3) 0.9549(6) 0.2070(3)
H3 H 0.3306 1.0046 0.2345
C6 C 0.3286(3) 0.8837(5) 0.1605(3)
H4 H 0.3694 0.8856 0.1571
C7 C 0.2923(3) 0.8099(5) 0.1190(3)
C8 C 0.3230(3) 0.7306(5) 0.0736(3)
C9 C 0.1748(3) 0.4853(5) -0.1013(3)
C10 C 0.2037(3) 0.3970(5) -0.1441(3)
C11 C 0.1674(3) 0.3381(6) -0.1936(3)
H5 H 0.1268 0.3559 -0.1999
C12 C 0.1899(3) 0.2540(6) -0.2336(3)
H6 H 0.1647 0.2132 -0.2656
C13 C 0.2503(3) 0.2313(6) -0.2253(3)
H7 H 0.2661 0.1747 -0.2520
C14 C 0.2873(3) 0.2912(5) -0.1783(3)
H8 H 0.3281 0.2760 -0.1740
C15 C 0.2645(3) 0.3752(5) -0.1368(3)
C16 C 0.3070(3) 0.4482(5) -0.0905(3)
C17 C 0.1480(3) 0.5220(5) 0.1353(3)
C18 C 0.1064(3) 0.5766(5) 0.1779(3)
C19 C 0.1308(3) 0.6281(6) 0.2375(3)
H9 H 0.1712 0.6176 0.2513
C20 C 0.0972(3) 0.6937(6) 0.2764(3)
H10 H 0.1154 0.7334 0.3137
C21 C 0.0359(3) 0.7004(7) 0.2598(3)
H11 H 0.0122 0.7419 0.2867
C22 C 0.0108(3) 0.6447(6) 0.2031(3)
H12 H -0.0305 0.6458 0.1934
C23 C 0.0439(3) 0.5875(5) 0.1600(3)
C24 C 0.0106(3) 0.5524(5) 0.0946(3)
C25 C 0.3721(3) 0.3799(5) 0.1089(3)
C26 C 0.4247(3) 0.3433(5) 0.1557(3)
C27 C 0.4176(3) 0.2520(6) 0.2012(3)
H13 H 0.3804 0.2169 0.2023
C28 C 0.4653(4) 0.2134(7) 0.2445(4)
H14 H 0.4607 0.1510 0.2738
C29 C 0.5196(4) 0.2679(8) 0.2440(4)
H15 H 0.5516 0.2437 0.2742
C30 C 0.5277(3) 0.3575(7) 0.1998(4)
H16 H 0.5650 0.3927 0.1999
C31 C 0.4806(3) 0.3960(6) 0.1550(3)
C32 C 0.4886(3) 0.4924(6) 0.1049(3)
C33 C 0.1991(3) 0.8480(6) -0.0691(3)
H17 H 0.2250 0.7829 -0.0660
C34 C 0.2222(3) 0.9614(7) -0.0788(3)
H18 H 0.2628 0.9710 -0.0818
C35 C 0.1857(4) 1.0572(6) -0.0840(3)
H19 H 0.2012 1.1336 -0.0884
C36 C 0.1246(3) 1.0418(6) -0.0828(3)
C37 C 0.1044(3) 0.9251(5) -0.0719(3)
C38 C 0.0415(3) 0.9019(5) -0.0734(3)
C39 C 0.0012(3) 0.9970(6) -0.0851(3)
C40 C -0.0595(3) 0.9700(6) -0.0900(3)
H20 H -0.0876 1.0309 -0.0981
C41 C -0.0774(3) 0.8572(7) -0.0833(3)
H21 H -0.1178 0.8384 -0.0877
C42 C -0.0344(3) 0.7676(6) -0.0695(3)
H22 H -0.0473 0.6893 -0.0642
C43 C 0.0819(4) 1.1367(6) -0.0901(3)
H23 H 0.0949 1.2151 -0.0944
C44 C 0.0231(4) 1.1149(6) -0.0910(4)
H24 H -0.0037 1.1786 -0.0955
C45 C 0.3216(3) 0.7356(6) -0.1467(4)
H25 H 0.2954 0.6730 -0.1414
C46 C 0.3063(3) 0.8149(7) -0.1992(4)
H26 H 0.2714 0.8047 -0.2278
C47 C 0.3445(4) 0.9086(7) -0.2071(4)
H27 H 0.3358 0.9628 -0.2417
C48 C 0.3956(4) 0.9213(6) -0.1635(3)
C49 C 0.4084(3) 0.8363(5) -0.1121(3)
C50 C 0.4638(3) 0.8439(5) -0.0690(3)
C51 C 0.5060(4) 0.9301(6) -0.0807(4)
C52 C 0.5622(3) 0.9281(6) -0.0419(4)
H28 H 0.5914 0.9840 -0.0490
C53 C 0.5728(3) 0.8436(6) 0.0057(4)
H29 H 0.6099 0.8391 0.0310
C54 C 0.5278(3) 0.7636(6) 0.0165(3)
H30 H 0.5354 0.7081 0.0506
C55 C 0.4383(4) 1.0139(7) -0.1708(4)
H31 H 0.4298 1.0725 -0.2031
C56 C 0.4905(4) 1.0169(7) -0.1317(4)
H32 H 0.5175 1.0776 -0.1379
Sm2B Sm -0.100473(14) 0.37368(3) 0.020411(15)
Sm3B Sm 0.603139(15) 0.40948(3) 0.006723(16)
O12B O 0.03235(18) 0.5193(4) -0.09622(19)
O16B O 0.4698(2) 0.5262(4) -0.0695(3)
loop_
_geom_bond_atom_site_label_1
_geom_bond_atom_site_label_2
_geom_bond_site_symmetry_1
_geom_bond_site_symmetry_2
Sm1 O1 1_555 1_555
Sm2 N2 1_555 1_555
Sm3 N4 1_555 1_555
N1 O17 1_555 1_555
N2 C33 1_555 1_555
N3 Sm2 1_555 1_555
N4 C45 1_555 1_555
N5 Sm3 1_555 1_555
O1 Sm2 1_555 1_555
O2 Sm2 1_555 1_555
O3 Sm1 1_555 1_555
O4 Sm3 1_555 1_555
O5 Sm1 1_555 1_555
O6 Sm2 1_555 1_555
O7 Sm1 1_555 1_555
O8 Sm3 1_555 1_555
O9 Sm1 1_555 1_555
O10 Sm1 1_555 1_555
O11 Sm2 1_555 1_555
O12 C24 1_555 1_555
O13 Sm1 1_555 1_555
O14 Sm3 1_555 1_555
O15 Sm3 1_555 1_555
O16 C32 1_555 1_555
O17 Sm1 1_555 1_555
O18 Sm1 1_555 1_555
O19 N1 1_555 1_555
C1 O1 1_555 1_555
C2 C1 1_555 1_555
C3 C2 1_555 1_555
H1 C3 1_555 1_555
C4 C3 1_555 1_555
H2 C4 1_555 1_555
C5 C4 1_555 1_555
H3 C5 1_555 1_555
C6 C5 1_555 1_555
H4 C6 1_555 1_555
C7 C2 1_555 1_555
C8 O3 1_555 1_555
C9 O5 1_555 1_555
C10 C9 1_555 1_555
C11 C10 1_555 1_555
H5 C11 1_555 1_555
C12 C11 1_555 1_555
H6 C12 1_555 1_555
C13 C12 1_555 1_555
H7 C13 1_555 1_555
C14 C13 1_555 1_555
H8 C14 1_555 1_555
C15 C10 1_555 1_555
C16 O7 1_555 1_555
C17 O9 1_555 1_555
C18 C17 1_555 1_555
C19 C18 1_555 1_555
H9 C19 1_555 1_555
C20 C19 1_555 1_555
H10 C20 1_555 1_555
C21 C20 1_555 1_555
H11 C21 1_555 1_555
C22 C21 1_555 1_555
H12 C22 1_555 1_555
C23 C18 1_555 1_555
C24 O11 1_555 1_555
C25 O13 1_555 1_555
C26 C25 1_555 1_555
C27 C26 1_555 1_555
H13 C27 1_555 1_555
C28 C27 1_555 1_555
H14 C28 1_555 1_555
C29 C28 1_555 1_555
H15 C29 1_555 1_555
C30 C29 1_555 1_555
H16 C30 1_555 1_555
C31 C26 1_555 1_555
C32 O15 1_555 1_555
C33 H17 1_555 1_555
C34 C33 1_555 1_555
H18 C34 1_555 1_555
C35 C34 1_555 1_555
H19 C35 1_555 1_555
C36 C35 1_555 1_555
C37 N2 1_555 1_555
C38 N3 1_555 1_555
C39 C38 1_555 1_555
C40 C39 1_555 1_555
H20 C40 1_555 1_555
C41 C40 1_555 1_555
H21 C41 1_555 1_555
C42 N3 1_555 1_555
H22 C42 1_555 1_555
C43 C36 1_555 1_555
H23 C43 1_555 1_555
C44 C39 1_555 1_555
H24 C44 1_555 1_555
C45 H25 1_555 1_555
C46 C45 1_555 1_555
H26 C46 1_555 1_555
C47 C46 1_555 1_555
H27 C47 1_555 1_555
C48 C47 1_555 1_555
C49 N4 1_555 1_555
C50 N5 1_555 1_555
C51 C50 1_555 1_555
C52 C51 1_555 1_555
H28 C52 1_555 1_555
C53 C52 1_555 1_555
H29 C53 1_555 1_555
C54 N5 1_555 1_555
H30 C54 1_555 1_555
C55 C48 1_555 1_555
H31 C55 1_555 1_555
C56 C51 1_555 1_555
H32 C56 1_555 1_555
Sm2B O12 1_555 1_555
Sm3B O16 1_555 1_555
O12B Sm2 1_555 1_555
O16B Sm3 1_555 1_555
Sm2 O5 1_555 1_555
Sm2 O9 1_555 1_555
Sm3 O3 1_555 1_555
Sm3 O7 1_555 1_555
N1 O18 1_555 1_555
O2 C1 1_555 1_555
O4 C8 1_555 1_555
O6 C9 1_555 1_555
O8 C16 1_555 1_555
O10 C17 1_555 1_555
O14 C25 1_555 1_555
C6 C7 1_555 1_555
C7 C8 1_555 1_555
C14 C15 1_555 1_555
C15 C16 1_555 1_555
C22 C23 1_555 1_555
C23 C24 1_555 1_555
C30 C31 1_555 1_555
C31 C32 1_555 1_555
C36 C37 1_555 1_555
C37 C38 1_555 1_555
C41 C42 1_555 1_555
C43 C44 1_555 1_555
C48 C49 1_555 1_555
C49 C50 1_555 1_555
C53 C54 1_555 1_555
C55 C56 1_555 1_555

#END
