
#######################################################################
#
#                 Cambridge Crystallographic Data Centre
#                                CCDC 
#
#######################################################################
#
# If this CIF has been generated from an entry in the Cambridge 
# Structural Database, then it will include bibliographic, chemical, 
# crystal, experimental, refinement or atomic coordinate data resulting 
# from the CCDC's data processing and validation procedures.
#
#######################################################################

data_FIFBED
_symmetry_cell_setting           monoclinic
_symmetry_space_group_name_H-M   'P 21/n'
_symmetry_Int_Tables_number      14
_space_group_name_Hall           '-P 2yn'
loop_
_symmetry_equiv_pos_site_id
_symmetry_equiv_pos_as_xyz
1 x,y,z
2 1/2-x,1/2+y,1/2-z
3 -x,-y,-z
4 1/2+x,1/2-y,1/2+z
_cell_length_a                   10.5666(16)
_cell_length_b                   23.405(3)
_cell_length_c                   11.4006(15)
_cell_angle_alpha                90
_cell_angle_beta                 101.661(2)
_cell_angle_gamma                90
_cell_volume                     2761.3
loop_
_atom_site_label
_atom_site_type_symbol
_atom_site_fract_x
_atom_site_fract_y
_atom_site_fract_z
N1 N -0.0901(2) -0.22027(10) 0.1685(3)
C1 C -0.1185(4) -0.23557(14) 0.0494(4)
H1 H -0.1871 -0.2586 0.0133
C2 C -0.0308(4) -0.21171(15) -0.0062(4)
H2 H -0.0274 -0.2154 -0.0868
C3 C 0.0147(3) -0.18666(13) 0.1827(3)
N2 N 0.0523(3) -0.18109(11) 0.0779(3)
C4 C 0.1642(4) -0.14888(15) 0.0568(4)
H3 H 0.1954 -0.1659 -0.0096
H4 H 0.2329 -0.1512 0.1273
O1 O 1.6710(2) 0.70443(9) 0.2615(2)
O2 O 1.7924(3) 0.64765(13) 0.1769(3)
C5 C 1.6915(4) 0.65837(16) 0.2080(3)
C6 C 1.5827(3) 0.61543(14) 0.1876(3)
C7 C 1.4580(3) 0.63089(14) 0.1903(3)
H5 H 1.4399 0.6689 0.2044
C8 C 1.6087(4) 0.55861(15) 0.1664(4)
H6 H 1.6926 0.5475 0.1638
C9 C 1.3583(3) 0.59124(13) 0.1723(3)
H7 H 1.2742 0.6026 0.1731
Zn1 Zn 0.67345(3) 0.252076(14) 0.19840(3)
N3 N 0.5399(2) 0.21236(10) 0.0762(3)
O3 O 0.7286(2) 0.32682(9) 0.1473(2)
N4 N 1.1818(3) 0.50474(11) 0.1504(3)
C10 C 1.0857(3) 0.46090(13) 0.1219(3)
O4 O 0.7938(2) 0.29394(10) -0.0143(3)
N5 N 1.2894(3) 0.49045(11) 0.1305(3)
N6 N 0.3927(3) 0.15224(11) -0.0144(3)
C11 C 0.8923(3) 0.37843(13) 0.0809(3)
C12 C 1.0010(3) 0.37270(14) 0.0322(3)
H8 H 1.0086 0.3412 -0.0156
C13 C 0.5380(3) 0.21286(14) -0.0450(3)
H9 H 0.5909 0.2353 -0.0824
C14 C 1.0996(3) 0.41326(14) 0.0531(3)
H10 H 1.1735 0.4085 0.0215
C15 C 0.7959(3) 0.32883(15) 0.0677(4)
C16 C 1.3854(3) 0.53454(13) 0.1532(3)
C17 C 0.3332(3) 0.04901(13) -0.0098(4)
H11 H 0.3922 0.0467 0.0672
H12 H 0.3788 0.0366 -0.0710
C18 C 0.8769(3) 0.42632(14) 0.1462(3)
H13 H 0.8030 0.4307 0.1780
C19 C 0.9735(3) 0.46889(15) 0.1647(3)
H14 H 0.9618 0.5022 0.2057
C20 C 0.4494(3) 0.17482(14) 0.0915(3)
C21 C 0.4477(4) 0.17587(14) -0.1013(3)
H15 H 0.4271 0.1681 -0.1830
C22 C 0.2503(4) -0.05257(14) 0.0142(4)
H16 H 0.3166 -0.0559 0.0864
H17 H 0.2848 -0.0681 -0.0518
C23 C 0.1315(4) -0.08731(14) 0.0289(4)
H18 H 0.0953 -0.0709 0.0930
H19 H 0.0665 -0.0850 -0.0443
C24 C 0.2880(3) 0.10999(13) -0.0339(4)
H20 H 0.2412 0.1129 -0.1161
H21 H 0.2282 0.1192 0.0177
C25 C 0.2170(4) 0.01014(14) -0.0098(4)
H22 H 0.1715 0.0237 0.0506
H23 H 0.1586 0.0133 -0.0870
C26 C 1.5098(4) 0.51828(14) 0.1490(4)
H24 H 1.5277 0.4803 0.1346
C27 C 0.0801(4) -0.16140(18) 0.2981(4)
H25 H 0.1649 -0.1776 0.3217
H26 H 0.0308 -0.1694 0.3583
H27 H 0.0870 -0.1208 0.2892
C28 C 0.4117(4) 0.16178(19) 0.2066(4)
H28 H 0.3203 0.1672 0.1985
H29 H 0.4571 0.1868 0.2677
H30 H 0.4334 0.1228 0.2285
N1A N 0.5901(2) 0.27973(10) 0.3315(3)
O1A O 0.8290(2) 0.20443(9) 0.2385(2)
Zn1A Zn -0.17345(3) -0.247924(14) 0.30160(3)
Zn1A_2 Zn 1.82655(3) 0.752076(14) 0.30160(3)
loop_
_geom_bond_atom_site_label_1
_geom_bond_atom_site_label_2
_geom_bond_site_symmetry_1
_geom_bond_site_symmetry_2
N1 C1 1_555 1_555
C1 H1 1_555 1_555
C2 C1 1_555 1_555
H2 C2 1_555 1_555
C3 N1 1_555 1_555
N2 C2 1_555 1_555
C4 N2 1_555 1_555
H3 C4 1_555 1_555
H4 C4 1_555 1_555
O1 C5 1_555 1_555
O2 C5 1_555 1_555
C5 C6 1_555 1_555
C6 C7 1_555 1_555
C7 H5 1_555 1_555
C8 C6 1_555 1_555
H6 C8 1_555 1_555
C9 C7 1_555 1_555
H7 C9 1_555 1_555
Zn1 N3 1_555 1_555
N3 C13 1_555 1_555
O3 Zn1 1_555 1_555
N4 C10 1_555 1_555
C10 C14 1_555 1_555
O4 C15 1_555 1_555
N5 N4 1_555 1_555
N6 C20 1_555 1_555
C11 C12 1_555 1_555
C12 H8 1_555 1_555
C13 H9 1_555 1_555
C14 C12 1_555 1_555
H10 C14 1_555 1_555
C15 O3 1_555 1_555
C16 C9 1_555 1_555
C17 H11 1_555 1_555
H12 C17 1_555 1_555
C18 C11 1_555 1_555
H13 C18 1_555 1_555
C19 C10 1_555 1_555
H14 C19 1_555 1_555
C20 N3 1_555 1_555
C21 N6 1_555 1_555
H15 C21 1_555 1_555
C22 H16 1_555 1_555
H17 C22 1_555 1_555
C23 C4 1_555 1_555
H18 C23 1_555 1_555
H19 C23 1_555 1_555
C24 N6 1_555 1_555
H20 C24 1_555 1_555
H21 C24 1_555 1_555
C25 C17 1_555 1_555
H22 C25 1_555 1_555
H23 C25 1_555 1_555
C26 C8 1_555 1_555
H24 C26 1_555 1_555
C27 C3 1_555 1_555
H25 C27 1_555 1_555
H26 C27 1_555 1_555
H27 C27 1_555 1_555
C28 C20 1_555 1_555
H28 C28 1_555 1_555
H29 C28 1_555 1_555
H30 C28 1_555 1_555
N1A Zn1 1_555 1_555
O1A Zn1 1_555 1_555
Zn1A N1 1_555 1_555
Zn1A_2 O1 1_555 1_555
C3 N2 1_555 1_555
N5 C16 1_555 1_555
C11 C15 1_555 1_555
C13 C21 1_555 1_555
C16 C26 1_555 1_555
C17 C24 1_555 1_555
C18 C19 1_555 1_555
C22 C23 1_555 1_555
C22 C25 1_555 1_555

#END
