
#######################################################################
#
#                 Cambridge Crystallographic Data Centre
#                                CCDC 
#
#######################################################################
#
# If this CIF has been generated from an entry in the Cambridge 
# Structural Database, then it will include bibliographic, chemical, 
# crystal, experimental, refinement or atomic coordinate data resulting 
# from the CCDC's data processing and validation procedures.
#
#######################################################################

data_FIFMUE
_symmetry_cell_setting           hexagonal
_symmetry_space_group_name_H-M   'P 61'
_symmetry_Int_Tables_number      169
_space_group_name_Hall           'P 61'
loop_
_symmetry_equiv_pos_site_id
_symmetry_equiv_pos_as_xyz
1 x,y,z
2 x-y,x,1/6+z
3 -y,x-y,1/3+z
4 -x,-y,1/2+z
5 -x+y,-x,2/3+z
6 y,-x+y,5/6+z
_cell_length_a                   15.6888(7)
_cell_length_b                   15.6888(7)
_cell_length_c                   21.7323(17)
_cell_angle_alpha                90
_cell_angle_beta                 90
_cell_angle_gamma                120
_cell_volume                     4632.5
loop_
_atom_site_label
_atom_site_type_symbol
_atom_site_fract_x
_atom_site_fract_y
_atom_site_fract_z
Co1 Co 0.47482(6) 0.18168(5) 0.17500(4)
Co2 Co 0.55155(6) 0.05830(5) 0.08380(3)
N1 N 0.5036(5) 0.0572(5) -0.0121(3)
N2 N 0.3215(5) 0.0903(6) 0.1950(4)
N3 N -0.3550(5) -0.3490(5) 0.2338(3)
O1 O 0.4535(3) 0.1105(3) 0.0948(2)
O2 O 0.3806(19) 0.174(2) 0.0504(6)
O3 O 0.4332(5) -0.0811(4) 0.0811(5)
O4 O 0.2918(5) -0.1720(6) 0.0352(7)
O5 O 0.6543(4) 0.3818(4) -0.1801(3)
O6 O 0.5328(3) 0.3296(3) -0.2498(2)
O7 O 0.4413(5) -0.0261(4) -0.3235(3)
O8 O 0.5021(5) -0.0989(4) -0.2640(2)
C1 C 0.5623(5) 0.2129(5) -0.1985(3)
C2 C 0.5221(5) 0.1362(5) -0.2419(3)
H1 H 0.5048 0.1470 -0.2809
C3 C 0.5084(6) 0.0444(5) -0.2265(3)
C4 C 0.5285(6) 0.0274(5) -0.1667(3)
H2 H 0.5165 -0.0352 -0.1563
C5 C 0.5657(6) 0.1000(5) -0.1227(3)
C6 C 0.5863(6) 0.1946(5) -0.1407(3)
H3 H 0.6171 0.2463 -0.1129
C7 C 0.5850(6) 0.0817(6) -0.0574(3)
H4 H 0.5989 0.0281 -0.0577
H5 H 0.6437 0.1399 -0.0429
C8 C 0.4734(11) 0.1314(13) -0.0124(4)
H6 H 0.4279 0.1182 -0.0461
H7 H 0.5306 0.1958 -0.0191
C9 C 0.4240(10) 0.1318(12) 0.0485(4)
C10 C 0.4171(9) -0.0453(12) -0.0204(6)
H8 H 0.3638 -0.0402 -0.0394
H9 H 0.4360 -0.0808 -0.0487
C11 C 0.3794(7) -0.1040(6) 0.0369(6)
C12 C 0.5846(5) 0.3170(5) -0.2115(3)
C13 C 0.4793(6) -0.0334(5) -0.2761(3)
C14 C 0.2830(8) -0.0070(9) 0.1911(7)
H10 H 0.3233 -0.0329 0.1814
C15 C 0.1811(11) -0.0715(12) 0.2016(9)
H11 H 0.1570 -0.1390 0.2030
C16 C 0.1183(9) -0.0369(18) 0.2096(7)
C17 C 0.1611(9) 0.0628(17) 0.2127(8)
H12 H 0.1210 0.0895 0.2208
C18 C 0.2597(7) 0.1262(12) 0.2047(7)
H13 H 0.2844 0.1938 0.2058
C19 C 0.0111(13) -0.0793(14) 0.2167(9)
H14 H -0.0166 -0.0398 0.2235
C20 C -0.0436(8) -0.1760(15) 0.2129(9)
H15 H -0.0167 -0.2159 0.2049
C21 C -0.1513(7) -0.2172(14) 0.2222(7)
C22 C -0.1925(8) -0.3191(15) 0.2227(10)
H16 H -0.1515 -0.3457 0.2184
C23 C -0.2923(7) -0.3815(10) 0.2293(7)
H17 H -0.3163 -0.4490 0.2307
C24 C -0.3174(7) -0.2522(8) 0.2329(7)
H18 H -0.3593 -0.2265 0.2365
C25 C -0.2161(10) -0.1880(10) 0.2267(9)
H19 H -0.1934 -0.1208 0.2257
Co1C Co 0.52518(6) -0.18168(5) -0.32500(4)
Co1D Co 0.70686(8) 0.52518(6) -0.15833(4)
Co1E Co 0.18168(5) -0.29314(8) 0.00833(4)
Co2A Co -0.50675(8) -0.44845(6) 0.25047(3)
Co2C Co 0.44845(6) -0.05830(5) -0.41620(3)
Co2D Co 0.50675(8) 0.44845(6) -0.24953(3)
N3E N 0.6510(5) 0.0060(7) 0.0671(3)
O4A O 0.4638(8) 0.2918(5) 0.2019(7)
O5B O 0.6182(4) 0.2725(6) 0.1532(3)
O6B O 0.6704(3) 0.2032(4) 0.0835(2)
O7C O 0.5587(5) 0.0261(4) 0.1765(3)
O8C O 0.4979(5) 0.0989(4) 0.2360(2)
loop_
_geom_bond_atom_site_label_1
_geom_bond_atom_site_label_2
_geom_bond_site_symmetry_1
_geom_bond_site_symmetry_2
Co1 N2 1_555 1_555
Co2 N1 1_555 1_555
N1 C7 1_555 1_555
N2 C14 1_555 1_555
N3 C23 1_555 1_555
O1 Co1 1_555 1_555
O2 C9 1_555 1_555
O3 Co2 1_555 1_555
O4 C11 1_555 1_555
O5 C12 1_555 1_555
O6 C12 1_555 1_555
O7 C13 1_555 1_555
O8 C13 1_555 1_555
C1 C2 1_555 1_555
C2 H1 1_555 1_555
C3 C2 1_555 1_555
C4 C3 1_555 1_555
H2 C4 1_555 1_555
C5 C4 1_555 1_555
C6 C1 1_555 1_555
H3 C6 1_555 1_555
C7 C5 1_555 1_555
H4 C7 1_555 1_555
H5 C7 1_555 1_555
C8 N1 1_555 1_555
H6 C8 1_555 1_555
H7 C8 1_555 1_555
C9 O1 1_555 1_555
C10 N1 1_555 1_555
H8 C10 1_555 1_555
H9 C10 1_555 1_555
C11 O3 1_555 1_555
C12 C1 1_555 1_555
C13 C3 1_555 1_555
C14 H10 1_555 1_555
C15 C14 1_555 1_555
H11 C15 1_555 1_555
C16 C15 1_555 1_555
C17 C16 1_555 1_555
H12 C17 1_555 1_555
C18 N2 1_555 1_555
H13 C18 1_555 1_555
C19 C16 1_555 1_555
H14 C19 1_555 1_555
C20 C19 1_555 1_555
H15 C20 1_555 1_555
C21 C20 1_555 1_555
C22 C21 1_555 1_555
H16 C22 1_555 1_555
C23 C22 1_555 1_555
H17 C23 1_555 1_555
C24 N3 1_555 1_555
H18 C24 1_555 1_555
C25 C21 1_555 1_555
H19 C25 1_555 1_555
Co1C O8 1_555 1_555
Co1D O5 1_555 1_555
Co1E O4 1_555 1_555
Co2A N3 1_555 1_555
Co2C O7 1_555 1_555
Co2D O6 1_555 1_555
N3E Co2 1_555 1_555
O4A Co1 1_555 1_555
O5B Co1 1_555 1_555
O6B Co2 1_555 1_555
O7C Co2 1_555 1_555
O8C Co1 1_555 1_555
Co2 O1 1_555 1_555
C5 C6 1_555 1_555
C8 C9 1_555 1_555
C10 C11 1_555 1_555
C17 C18 1_555 1_555
C24 C25 1_555 1_555

#END
