
#######################################################################
#
#                 Cambridge Crystallographic Data Centre
#                                CCDC 
#
#######################################################################
#
# If this CIF has been generated from an entry in the Cambridge 
# Structural Database, then it will include bibliographic, chemical, 
# crystal, experimental, refinement or atomic coordinate data resulting 
# from the CCDC's data processing and validation procedures.
#
#######################################################################

data_FIFMIS01
_symmetry_cell_setting           hexagonal
_symmetry_space_group_name_H-M   'P 61'
_symmetry_Int_Tables_number      169
_space_group_name_Hall           'P 61'
loop_
_symmetry_equiv_pos_site_id
_symmetry_equiv_pos_as_xyz
1 x,y,z
2 -y,x-y,1/3+z
3 -x+y,-x,2/3+z
4 -x,-y,1/2+z
5 y,-x+y,5/6+z
6 x-y,x,1/6+z
_cell_length_a                   15.9363(6)
_cell_length_b                   15.9363(6)
_cell_length_c                   21.3380(9)
_cell_angle_alpha                90
_cell_angle_beta                 90
_cell_angle_gamma                120
_cell_volume                     4693.09
loop_
_atom_site_label
_atom_site_type_symbol
_atom_site_fract_x
_atom_site_fract_y
_atom_site_fract_z
Co1 Co 0.44665(6) 0.29302(6) 0.08815(3)
Co2 Co 0.51712(6) 0.48611(6) 0.19393(3)
N1 N 0.4944(4) 0.4359(4) 0.2923(2)
N2 N 0.2961(4) 0.2261(5) 0.0747(3)
N3 N -0.3649(4) 0.0247(4) 0.0515(2)
O1 O 0.4260(3) 0.3386(3) 0.17716(19)
O2 O 0.3142(4) 0.2090(4) 0.2294(2)
O3 O 0.3834(3) 0.4853(3) 0.2174(2)
O4 O 0.2736(4) 0.4399(4) 0.2930(2)
O5 O 0.6391(5) 0.2289(4) 0.4389(2)
O6 O 0.5303(3) 0.1702(3) 0.5168(2)
O7 O 0.4887(4) 0.4586(3) 0.6068(2)
O8 O 0.5404(4) 0.5851(3) 0.5433(2)
C1 C 0.5684(4) 0.3207(4) 0.4678(3)
C2 C 0.5429(5) 0.3624(4) 0.5155(3)
H1 H 0.5276 0.3338 0.5550
C3 C 0.5400(5) 0.4468(4) 0.5046(3)
C4 C 0.5565(5) 0.4847(4) 0.4437(3)
H2 H 0.5538 0.5408 0.4362
C5 C 0.5764(4) 0.4415(5) 0.3951(3)
C6 C 0.5841(4) 0.3600(4) 0.4079(3)
H3 H 0.6000 0.3312 0.3756
C7 C 0.5867(4) 0.4780(5) 0.3281(3)
H4 H 0.6152 0.5479 0.3290
H5 H 0.6313 0.4637 0.3060
C8 C 0.4480(6) 0.3295(5) 0.2875(3)
H6 H 0.4061 0.3006 0.3235
H7 H 0.4979 0.3116 0.2891
C9 C 0.3883(5) 0.2875(5) 0.2277(3)
C10 C 0.4269(5) 0.4638(6) 0.3212(3)
H8 H 0.4637 0.5284 0.3388
H9 H 0.3916 0.4193 0.3551
C11 C 0.3550(5) 0.4617(5) 0.2728(3)
C12 C 0.5795(5) 0.2323(4) 0.4756(3)
C13 C 0.5214(5) 0.5012(5) 0.5559(3)
C14 C 0.2547(5) 0.2807(7) 0.0823(4)
H10 H 0.2941 0.3463 0.0909
C15 C 0.1552(5) 0.2432(7) 0.0778(4)
H11 H 0.1284 0.2827 0.0842
C16 C 0.0956(6) 0.1444(7) 0.0633(4)
C17 C 0.1392(6) 0.0890(7) 0.0556(4)
H12 H 0.1020 0.0234 0.0464
C18 C 0.2359(5) 0.1306(6) 0.0615(4)
H13 H 0.2635 0.0917 0.0562
C19 C -0.0095(7) 0.1028(8) 0.0589(4)
H14 H -0.0445 0.0379 0.0475
C20 C -0.0595(6) 0.1447(7) 0.0687(5)
H15 H -0.0245 0.2098 0.0798
C21 C -0.1651(6) 0.1024(6) 0.0646(4)
C22 C -0.2090(6) 0.1584(7) 0.0638(5)
H16 H -0.1705 0.2251 0.0687
C23 C -0.3060(6) 0.1201(6) 0.0562(4)
H17 H -0.3316 0.1611 0.0541
C24 C -0.3244(5) -0.0311(6) 0.0562(4)
H18 H -0.3651 -0.0979 0.0546
C25 C -0.2295(6) 0.0025(6) 0.0630(4)
H19 H -0.2063 -0.0405 0.0667
O9 O 0.4675(4) 0.2470(4) -0.0015(2)
H20 H 0.5133 0.2921 -0.0224
H21 H 0.4796 0.2009 -0.0042
Co1A Co 0.70698(6) 0.15363(8) 0.42148(3)
Co1C Co 0.55335(6) 0.70698(6) 0.58815(3)
Co1E Co 0.15363(8) 0.44665(6) 0.25482(3)
Co2A Co 0.51389(6) 0.03101(8) 0.52726(3)
Co2C Co 0.48288(6) 0.51389(6) 0.69393(3)
Co2D Co -0.51389(6) -0.03101(8) 0.02726(3)
N3E N 0.6104(6) 0.6351(4) 0.2182(2)
O4D O 0.4399(4) 0.1663(6) 0.1263(2)
O5B O 0.5898(6) 0.3609(5) 0.1056(2)
O6B O 0.6399(4) 0.4697(3) 0.1835(2)
O7C O 0.5113(4) 0.5414(3) 0.1068(2)
O8C O 0.4596(4) 0.4149(3) 0.0433(2)
O10 O 0.6203(8) 0.3993(9) 0.9244(6)
H22 H 0.6360 0.4498 0.9460
H23 H 0.6307 0.4097 0.8853
O11 O 0.2092(9) 0.0109(8) 0.1906(6)
H24 H 0.2264 -0.0109 0.1598
H25 H 0.2250 0.0652 0.2074
O12 O 0.4137(11) 0.1095(13) 0.2977(7)
H26 H 0.3805 0.0484 0.3019
H27 H 0.3871 0.1377 0.2795
O13 O 0.2929(15) -0.0030(15) 0.3965(10)
H28 H 0.3439 0.0055 0.4147
H29 H 0.2559 -0.0639 0.3931
O14 O 0.3182(16) 0.2038(18) 0.4470(12)
H30 H 0.2751 0.2096 0.4271
H31 H 0.3206 0.1533 0.4373
O15 O 0.145(3) 0.015(3) 0.360(2)
H32 H 0.1938 0.0132 0.3733
H33 H 0.1673 0.0645 0.3361
O16? O 0.157(3) 0.047(3) 0.422(2)
H34? H 0.1593 0.0869 0.3946
H35? H 0.1768 0.0068 0.4218
loop_
_geom_bond_atom_site_label_1
_geom_bond_atom_site_label_2
_geom_bond_site_symmetry_1
_geom_bond_site_symmetry_2
Co1 N2 1_555 1_555
Co2 N1 1_555 1_555
N1 C7 1_555 1_555
N2 C14 1_555 1_555
N3 C23 1_555 1_555
O1 Co1 1_555 1_555
O2 C9 1_555 1_555
O3 Co2 1_555 1_555
O4 C11 1_555 1_555
O5 C12 1_555 1_555
O6 C12 1_555 1_555
O7 C13 1_555 1_555
O8 C13 1_555 1_555
C1 C2 1_555 1_555
C2 H1 1_555 1_555
C3 C2 1_555 1_555
C4 C3 1_555 1_555
H2 C4 1_555 1_555
C5 C4 1_555 1_555
C6 C1 1_555 1_555
H3 C6 1_555 1_555
C7 C5 1_555 1_555
H4 C7 1_555 1_555
H5 C7 1_555 1_555
C8 N1 1_555 1_555
H6 C8 1_555 1_555
H7 C8 1_555 1_555
C9 O1 1_555 1_555
C10 N1 1_555 1_555
H8 C10 1_555 1_555
H9 C10 1_555 1_555
C11 O3 1_555 1_555
C12 C1 1_555 1_555
C13 C3 1_555 1_555
C14 H10 1_555 1_555
C15 C14 1_555 1_555
H11 C15 1_555 1_555
C16 C15 1_555 1_555
C17 C16 1_555 1_555
H12 C17 1_555 1_555
C18 N2 1_555 1_555
H13 C18 1_555 1_555
C19 C16 1_555 1_555
H14 C19 1_555 1_555
C20 C19 1_555 1_555
H15 C20 1_555 1_555
C21 C20 1_555 1_555
C22 C21 1_555 1_555
H16 C22 1_555 1_555
C23 C22 1_555 1_555
H17 C23 1_555 1_555
C24 N3 1_555 1_555
H18 C24 1_555 1_555
C25 C21 1_555 1_555
H19 C25 1_555 1_555
O9 Co1 1_555 1_555
H20 O9 1_555 1_555
H21 O9 1_555 1_555
O10 H22 1_555 1_555
H23 O10 1_555 1_555
O11 H24 1_555 1_555
H25 O11 1_555 1_555
O12 H26 1_555 1_555
H27 O12 1_555 1_555
O13 H28 1_555 1_555
H29 O13 1_555 1_555
O14 H30 1_555 1_555
H31 O14 1_555 1_555
O15 H32 1_555 1_555
H33 O15 1_555 1_555
Co1A O5 1_555 1_555
Co1C O8 1_555 1_555
Co1E O4 1_555 1_555
Co2A O6 1_555 1_555
Co2C O7 1_555 1_555
Co2D N3 1_555 1_555
N3E Co2 1_555 1_555
O4D Co1 1_555 1_555
O5B Co1 1_555 1_555
O6B Co2 1_555 1_555
O7C Co2 1_555 1_555
O8C Co1 1_555 1_555
Co2 O1 1_555 1_555
C5 C6 1_555 1_555
C8 C9 1_555 1_555
C10 C11 1_555 1_555
C17 C18 1_555 1_555
C24 C25 1_555 1_555

#END
