
#######################################################################
#
#                 Cambridge Crystallographic Data Centre
#                                CCDC 
#
#######################################################################
#
# If this CIF has been generated from an entry in the Cambridge 
# Structural Database, then it will include bibliographic, chemical, 
# crystal, experimental, refinement or atomic coordinate data resulting 
# from the CCDC's data processing and validation procedures.
#
#######################################################################

data_FIFMOY
_symmetry_cell_setting           hexagonal
_symmetry_space_group_name_H-M   'P 61'
_symmetry_Int_Tables_number      169
_space_group_name_Hall           'P 61'
loop_
_symmetry_equiv_pos_site_id
_symmetry_equiv_pos_as_xyz
1 x,y,z
2 -y,x-y,1/3+z
3 -x+y,-x,2/3+z
4 -x,-y,1/2+z
5 y,-x+y,5/6+z
6 x-y,x,1/6+z
_cell_length_a                   15.8831(4)
_cell_length_b                   15.8831(4)
_cell_length_c                   21.3791(9)
_cell_angle_alpha                90
_cell_angle_beta                 90
_cell_angle_gamma                120
_cell_volume                     4670.79
loop_
_atom_site_label
_atom_site_type_symbol
_atom_site_fract_x
_atom_site_fract_y
_atom_site_fract_z
Co1 Co 0.29525(3) 0.85161(3) 0.036968(17)
Co2 Co 0.48236(3) 0.97205(3) 0.141583(16)
N1 N 0.42818(19) 0.94171(18) 0.23934(11)
N2 N 0.2243(2) 0.93165(19) 0.02075(13)
N3 N 0.0252(2) 1.39412(19) -0.00171(12)
O1 O 0.33781(14) 0.91753(15) 0.12389(9)
O2 O 0.20831(19) 0.9049(2) 0.17358(12)
O3 O 0.48567(16) 1.10523(15) 0.16691(10)
O4 O 0.43587(18) 1.16950(17) 0.24094(11)
O5 O 0.22467(17) 0.58969(15) 0.38368(10)
O6 O 0.16973(15) 0.63473(14) 0.46578(9)
O7 O 0.46243(16) 0.96309(16) 0.55615(9)
O8 O 0.58429(15) 1.04414(16) 0.48918(10)
O9 O 0.24981(19) 0.77885(18) -0.05486(11)
H1 H 0.1997 0.7225 -0.0549
H2 H 0.2927 0.7743 -0.0760
C1 C 0.3154(2) 0.7512(2) 0.41472(13)
C2 C 0.3602(2) 0.8180(2) 0.46331(13)
H3 H 0.3338 0.8037 0.5033
C3 C 0.4450(2) 0.9065(2) 0.45152(13)
C4 C 0.4814(2) 0.9292(2) 0.39099(13)
H4 H 0.5377 0.9880 0.3834
C5 C 0.4352(2) 0.8657(2) 0.34165(13)
C6 C 0.3552(2) 0.7765(2) 0.35485(13)
H5 H 0.3268 0.7316 0.3226
C7 C 0.4718(2) 0.8930(2) 0.27536(13)
H6 H 0.5418 0.9358 0.2766
H7 H 0.4591 0.8345 0.2532
C8 C 0.3222(2) 0.8801(3) 0.23164(16)
H8 H 0.2901 0.8884 0.2678
H9 H 0.3057 0.8125 0.2303
C9 C 0.2836(2) 0.9031(2) 0.17270(15)
C10 C 0.4523(3) 1.0355(2) 0.26874(15)
H10 H 0.5145 1.0620 0.2898
H11 H 0.4035 1.0244 0.3000
C11 C 0.4571(2) 1.1090(2) 0.22116(14)
C12 C 0.2294(2) 0.6501(2) 0.42271(13)
C13 C 0.5011(2) 0.9773(2) 0.50360(14)
C14 C 0.2784(3) 1.0281(3) 0.02595(19)
H12 H 0.3448 1.0554 0.0328
C15 C 0.2406(3) 1.0886(3) 0.0216(2)
H13 H 0.2812 1.1555 0.0250
C16 C 0.1412(3) 1.0498(3) 0.01213(19)
C17 C 0.0859(3) 0.9502(3) 0.0077(2)
H14 H 0.0191 0.9209 0.0016
C18 C 0.1293(3) 0.8936(3) 0.0125(2)
H15 H 0.0905 0.8264 0.0098
C19 C 0.0972(3) 1.1115(3) 0.0071(2)
H16 H 0.0314 1.0811 -0.0029
C20 C 0.1421(3) 1.2055(3) 0.0155(2)
H17 H 0.2077 1.2351 0.0259
C21 C 0.1011(3) 1.2693(3) 0.0105(2)
C22 C 0.1584(3) 1.3677(3) 0.0152(3)
H18 H 0.2246 1.3949 0.0231
C23 C 0.1185(3) 1.4271(3) 0.0084(2)
H19 H 0.1596 1.4940 0.0111
C24 C -0.0311(3) 1.2986(3) -0.0034(2)
H20 H -0.0975 1.2732 -0.0090
C25 C 0.0024(3) 1.2345(3) 0.0028(3)
H21 H -0.0408 1.1679 0.0018
Co1A Co 0.14839(3) 0.44364(4) 0.370301(17)
Co1C Co 0.70475(3) 1.14839(3) 0.536968(17)
Co1E Co 0.44364(4) 1.29525(3) 0.203635(17)
Co2A Co 0.02795(3) 0.51031(4) 0.474916(16)
Co2C Co 0.51764(3) 1.02795(3) 0.641583(16)
Co2D Co -0.02795(3) 1.48969(4) -0.025084(16)
N3E N 0.63108(28) 1.0252(2) 0.16496(12)
O4D O 0.16950(17) 0.73363(25) 0.07427(11)
O5B O 0.36502(23) 0.77533(17) 0.05035(10)
O6B O 0.46500(21) 0.83027(15) 0.13245(9)
O7C O 0.53757(16) 1.03691(16) 0.05615(9)
O8C O 0.41571(15) 0.95586(16) -0.01082(10)
loop_
_geom_bond_atom_site_label_1
_geom_bond_atom_site_label_2
_geom_bond_site_symmetry_1
_geom_bond_site_symmetry_2
Co1 N2 1_555 1_555
Co2 N1 1_555 1_555
N1 C7 1_555 1_555
N2 C14 1_555 1_555
N3 C23 1_555 1_555
O1 Co1 1_555 1_555
O2 C9 1_555 1_555
O3 Co2 1_555 1_555
O4 C11 1_555 1_555
O5 C12 1_555 1_555
O6 C12 1_555 1_555
O7 C13 1_555 1_555
O8 C13 1_555 1_555
O9 Co1 1_555 1_555
H1 O9 1_555 1_555
H2 O9 1_555 1_555
C1 C2 1_555 1_555
C2 H3 1_555 1_555
C3 C2 1_555 1_555
C4 C3 1_555 1_555
H4 C4 1_555 1_555
C5 C4 1_555 1_555
C6 C1 1_555 1_555
H5 C6 1_555 1_555
C7 C5 1_555 1_555
H6 C7 1_555 1_555
H7 C7 1_555 1_555
C8 N1 1_555 1_555
H8 C8 1_555 1_555
H9 C8 1_555 1_555
C9 O1 1_555 1_555
C10 N1 1_555 1_555
H10 C10 1_555 1_555
H11 C10 1_555 1_555
C11 O3 1_555 1_555
C12 C1 1_555 1_555
C13 C3 1_555 1_555
C14 H12 1_555 1_555
C15 C14 1_555 1_555
H13 C15 1_555 1_555
C16 C15 1_555 1_555
C17 C16 1_555 1_555
H14 C17 1_555 1_555
C18 N2 1_555 1_555
H15 C18 1_555 1_555
C19 C16 1_555 1_555
H16 C19 1_555 1_555
C20 C19 1_555 1_555
H17 C20 1_555 1_555
C21 C20 1_555 1_555
C22 C21 1_555 1_555
H18 C22 1_555 1_555
C23 C22 1_555 1_555
H19 C23 1_555 1_555
C24 N3 1_555 1_555
H20 C24 1_555 1_555
C25 C21 1_555 1_555
H21 C25 1_555 1_555
Co1A O5 1_555 1_555
Co1C O8 1_555 1_555
Co1E O4 1_555 1_555
Co2A O6 1_555 1_555
Co2C O7 1_555 1_555
Co2D N3 1_555 1_555
N3E Co2 1_555 1_555
O4D Co1 1_555 1_555
O5B Co1 1_555 1_555
O6B Co2 1_555 1_555
O7C Co2 1_555 1_555
O8C Co1 1_555 1_555
Co2 O1 1_555 1_555
C5 C6 1_555 1_555
C8 C9 1_555 1_555
C10 C11 1_555 1_555
C17 C18 1_555 1_555
C24 C25 1_555 1_555

#END
