
#######################################################################
#
#                 Cambridge Crystallographic Data Centre
#                                CCDC 
#
#######################################################################
#
# If this CIF has been generated from an entry in the Cambridge 
# Structural Database, then it will include bibliographic, chemical, 
# crystal, experimental, refinement or atomic coordinate data resulting 
# from the CCDC's data processing and validation procedures.
#
#######################################################################

data_FIFMIS
_symmetry_cell_setting           hexagonal
_symmetry_space_group_name_H-M   'P 61'
_symmetry_Int_Tables_number      169
_space_group_name_Hall           'P 61'
loop_
_symmetry_equiv_pos_site_id
_symmetry_equiv_pos_as_xyz
1 x,y,z
2 x-y,x,1/6+z
3 -y,x-y,1/3+z
4 -x,-y,1/2+z
5 -x+y,-x,2/3+z
6 y,-x+y,5/6+z
_cell_length_a                   15.9288(6)
_cell_length_b                   15.9288(6)
_cell_length_c                   21.3663(11)
_cell_angle_alpha                90
_cell_angle_beta                 90
_cell_angle_gamma                120
_cell_volume                     4694.9
loop_
_atom_site_label
_atom_site_type_symbol
_atom_site_fract_x
_atom_site_fract_y
_atom_site_fract_z
Co1 Co 0.84656(5) 0.55341(5) 0.00816(3)
Co2 Co 0.96929(5) 0.48305(5) 0.11412(3)
N1 N 0.9418(3) 0.5059(3) 0.21157(18)
N2 N 0.9305(3) 0.7043(3) -0.0055(2)
N3 N 1.3911(3) 1.3658(3) -0.02793(19)
O1 O 0.9123(3) 0.5739(3) 0.09744(15)
O2 O 0.8953(4) 0.6854(3) 0.1493(2)
O3 O 1.1012(3) 0.6168(3) 0.13741(16)
O4 O 1.1655(3) 0.7271(3) 0.21294(18)
O5 O 0.5899(3) 0.3607(4) 0.3593(2)
O6 O 0.6396(2) 0.4701(3) 0.43671(16)
O7 O 0.9696(3) 0.5116(3) 0.52725(15)
O8 O 1.0446(3) 0.4603(3) 0.46331(17)
C1 C 0.7529(4) 0.4327(4) 0.3877(2)
C2 C 0.8192(4) 0.4567(4) 0.4357(2)
H1 H 0.8052 0.4704 0.4753
C3 C 0.9073(3) 0.4604(4) 0.4244(2)
C4 C 0.9282(4) 0.4439(4) 0.3637(2)
H2 H 0.9868 0.4463 0.3561
C5 C 0.8653(4) 0.4244(4) 0.3153(2)
C6 C 0.7762(4) 0.4159(4) 0.3277(2)
H3 H 0.7311 0.3988 0.2955
C7 C 0.8911(4) 0.4136(4) 0.2484(2)
H4 H 0.9321 0.3847 0.2494
H5 H 0.8319 0.3690 0.2265
C8 C 0.8825(5) 0.5527(5) 0.2071(3)
H6 H 0.8962 0.5949 0.2430
H7 H 0.8146 0.5030 0.2092
C9 C 0.8993(4) 0.6118(4) 0.1477(2)
C10 C 1.0368(4) 0.5729(4) 0.2405(2)
H8 H 1.0644 0.5357 0.2577
H9 H 1.0274 0.6076 0.2746
C11 C 1.1073(4) 0.6459(4) 0.1928(2)
C12 C 0.6525(3) 0.4209(4) 0.3962(2)
C13 C 0.9798(4) 0.4790(4) 0.4763(2)
C14 C 1.0267(5) 0.7458(4) 0.0023(3)
H10 H 1.0528 0.7063 0.0111
C15 C 1.0881(5) 0.8437(4) -0.0022(4)
H11 H 1.1543 0.8699 0.0043
C16 C 1.0503(6) 0.9046(5) -0.0166(3)
C17 C 0.9519(6) 0.8606(5) -0.0243(3)
H12 H 0.9236 0.8980 -0.0335
C18 C 0.8956(5) 0.7638(4) -0.0187(3)
H13 H 0.8291 0.7366 -0.0243
C19 C 1.1128(6) 1.0101(5) -0.0205(3)
H14 H 1.0828 1.0456 -0.0304
C20 C 1.2063(6) 1.0592(5) -0.0115(4)
H15 H 1.2365 1.0238 -0.0020
C21 C 1.2685(5) 1.1653(4) -0.0149(3)
C22 C 1.3689(5) 1.2082(5) -0.0159(4)
H16 H 1.3974 1.1698 -0.0114
C23 C 1.4260(5) 1.3058(5) -0.0233(3)
H17 H 1.4928 1.3317 -0.0252
C24 C 1.2933(4) 1.3250(4) -0.0235(3)
H18 H 1.2671 1.3656 -0.0252
C25 C 1.2321(5) 1.2291(5) -0.0167(3)
H19 H 1.1658 1.2053 -0.0132
O9 O 0.7799(3) 0.5321(3) -0.08151(18)
H20 H 0.7196 0.5102 -0.0762
H21 H 0.7856 0.4976 -0.1097
Co1A Co 1.29315(7) 0.84656(5) 0.17483(3)
Co1B Co 0.44659(5) 0.29315(7) 0.34149(3)
Co1C Co 1.15344(5) 0.44659(5) 0.50816(3)
Co2B Co 0.51695(5) 0.48624(7) 0.44745(3)
Co2C Co 1.03071(5) 0.51695(5) 0.61412(3)
Co2E Co 1.48305(5) 1.51376(7) -0.05255(3)
N3A N 1.0253(4) 0.3911(3) 0.13874(19)
O4E O 0.7271(3) 0.5616(4) 0.04627(18)
O5D O 0.7708(5) 0.4101(3) 0.0260(2)
O6D O 0.8305(4) 0.3604(2) 0.10338(16)
O7C O 1.0304(3) 0.4884(3) 0.02725(15)
O8C O 0.9554(3) 0.5397(3) -0.03669(17)
O10 O 0.6215(7) 0.3976(7) 0.1778(5)
H22 H 0.6244 0.4396 0.2035
H23 H 0.6325 0.4157 0.1398
O11 O 0.8014(7) 0.7921(7) 0.1094(5)
H24 H 0.8405 0.7774 0.1266
H25 H 0.7942 0.7840 0.0701
O12 O 0.6960(9) 0.5863(8) 0.2171(6)
H26 H 0.7526 0.6121 0.2014
H27 H 0.6760 0.5768 0.2548
O13 O 0.7020(13) 0.7059(12) 0.3187(9)
H28 H 0.6488 0.6915 0.3366
H29 H 0.6969 0.7320 0.2853
O14 O 0.6788(12) 0.7979(15) 0.2005(8)
H30 H 0.6853 0.8513 0.1874
H31 H 0.7055 0.7779 0.1746
O15 O 0.874(2) 0.858(2) 0.2785(15)
H32 H 0.9155 0.8401 0.2765
H33 H 0.8194 0.8124 0.2911
O16? O 0.885(2) 0.851(2) 0.3337(17)
H34? H 0.8362 0.8106 0.3551
H35? H 0.9233 0.8351 0.3162
loop_
_geom_bond_atom_site_label_1
_geom_bond_atom_site_label_2
_geom_bond_site_symmetry_1
_geom_bond_site_symmetry_2
Co1 N2 1_555 1_555
Co2 N1 1_555 1_555
N1 C7 1_555 1_555
N2 C14 1_555 1_555
N3 C23 1_555 1_555
O1 Co1 1_555 1_555
O2 C9 1_555 1_555
O3 Co2 1_555 1_555
O4 C11 1_555 1_555
O5 C12 1_555 1_555
O6 C12 1_555 1_555
O7 C13 1_555 1_555
O8 C13 1_555 1_555
C1 C2 1_555 1_555
C2 H1 1_555 1_555
C3 C2 1_555 1_555
C4 C3 1_555 1_555
H2 C4 1_555 1_555
C5 C4 1_555 1_555
C6 C1 1_555 1_555
H3 C6 1_555 1_555
C7 C5 1_555 1_555
H4 C7 1_555 1_555
H5 C7 1_555 1_555
C8 N1 1_555 1_555
H6 C8 1_555 1_555
H7 C8 1_555 1_555
C9 O1 1_555 1_555
C10 N1 1_555 1_555
H8 C10 1_555 1_555
H9 C10 1_555 1_555
C11 O3 1_555 1_555
C12 C1 1_555 1_555
C13 C3 1_555 1_555
C14 H10 1_555 1_555
C15 C14 1_555 1_555
H11 C15 1_555 1_555
C16 C15 1_555 1_555
C17 C16 1_555 1_555
H12 C17 1_555 1_555
C18 N2 1_555 1_555
H13 C18 1_555 1_555
C19 C16 1_555 1_555
H14 C19 1_555 1_555
C20 C19 1_555 1_555
H15 C20 1_555 1_555
C21 C20 1_555 1_555
C22 C21 1_555 1_555
H16 C22 1_555 1_555
C23 C22 1_555 1_555
H17 C23 1_555 1_555
C24 N3 1_555 1_555
H18 C24 1_555 1_555
C25 C21 1_555 1_555
H19 C25 1_555 1_555
O9 Co1 1_555 1_555
H20 O9 1_555 1_555
H21 O9 1_555 1_555
O10 H22 1_555 1_555
H23 O10 1_555 1_555
O11 H24 1_555 1_555
H25 O11 1_555 1_555
O12 H26 1_555 1_555
H27 O12 1_555 1_555
O13 H28 1_555 1_555
H29 O13 1_555 1_555
O14 H30 1_555 1_555
H31 O14 1_555 1_555
O15 H32 1_555 1_555
H33 O15 1_555 1_555
Co1A O4 1_555 1_555
Co1B O5 1_555 1_555
Co1C O8 1_555 1_555
Co2B O6 1_555 1_555
Co2C O7 1_555 1_555
Co2E N3 1_555 1_555
N3A Co2 1_555 1_555
O4E Co1 1_555 1_555
O5D Co1 1_555 1_555
O6D Co2 1_555 1_555
O7C Co2 1_555 1_555
O8C Co1 1_555 1_555
Co2 O1 1_555 1_555
C5 C6 1_555 1_555
C8 C9 1_555 1_555
C10 C11 1_555 1_555
C17 C18 1_555 1_555
C24 C25 1_555 1_555

#END
