
#######################################################################
#
#                 Cambridge Crystallographic Data Centre
#                                CCDC 
#
#######################################################################
#
# If this CIF has been generated from an entry in the Cambridge 
# Structural Database, then it will include bibliographic, chemical, 
# crystal, experimental, refinement or atomic coordinate data resulting 
# from the CCDC's data processing and validation procedures.
#
#######################################################################

data_FIFNUE
_symmetry_cell_setting           monoclinic
_symmetry_space_group_name_H-M   'C c'
_symmetry_Int_Tables_number      9
_space_group_name_Hall           'C -2yc'
loop_
_symmetry_equiv_pos_site_id
_symmetry_equiv_pos_as_xyz
1 x,y,z
2 x,-y,1/2+z
3 1/2+x,1/2+y,z
4 1/2+x,1/2-y,1/2+z
_cell_length_a                   10.5108(3)
_cell_length_b                   20.2765(7)
_cell_length_c                   8.1309(2)
_cell_angle_alpha                90
_cell_angle_beta                 102.223(2)
_cell_angle_gamma                90
_cell_volume                     1693.59
loop_
_atom_site_label
_atom_site_type_symbol
_atom_site_fract_x
_atom_site_fract_y
_atom_site_fract_z
Co1 Co 0.94204(8) 0.25379(2) 0.51007(9)
O1 O 0.7852(2) 0.20249(11) 0.3612(3)
O2 O 0.6063(2) 0.19831(12) 0.1595(3)
O3 O 1.0129(2) 0.28389(12) 0.3003(3)
O4 O 1.0000(3) 0.28831(14) 0.0250(3)
O5 O 0.8806(3) 0.23149(13) 0.7332(3)
N1 N 0.8445(3) 0.34789(13) 0.5035(3)
N2 N 0.5399(3) 0.66019(13) 0.5192(4)
C1 C 0.8929(4) 0.40251(17) 0.4519(5)
H1 H 0.9694 0.3995 0.4122
C2 C 0.7326(4) 0.35492(17) 0.5581(5)
H2 H 0.6956 0.3175 0.5945
C3 C 0.8356(5) 0.46393(18) 0.4540(6)
H3 H 0.8740 0.5007 0.4165
C4 C 0.6710(4) 0.41338(17) 0.5629(5)
H4 H 0.5938 0.4150 0.6014
C5 C 0.7222(4) 0.47075(17) 0.5110(5)
C6 C 0.6592(4) 0.53610(16) 0.5168(4)
C7 C 0.7216(4) 0.59439(18) 0.4844(5)
H5 H 0.8047 0.5928 0.4619
C8 C 0.5373(4) 0.54267(18) 0.5533(5)
H6 H 0.4923 0.5056 0.5770
C9 C 0.6589(4) 0.65387(16) 0.4863(5)
H7 H 0.7015 0.6919 0.4633
C10 C 0.4825(4) 0.60479(18) 0.5543(5)
H8 H 0.4009 0.6080 0.5810
C11 C 0.6840(4) 0.22743(14) 0.2747(5)
H9 H 0.6651 0.2708 0.2976
C12 C 0.9746(3) 0.26346(16) 0.1522(4)
H10 H 0.9221 0.2261 0.1375
Co1C Co 0.44204(8) 0.24621(2) 0.01007(9)
Co1B Co 0.44204(8) 0.75379(2) 0.51007(9)
O2C O 1.1063(2) 0.30169(12) 0.6595(3)
N2B N 1.0399(3) 0.16019(13) 0.5192(4)
O6 O 0.7329(3) 0.13534(12) 0.8328(3)
O7 O 0.8407(4) 0.09170(15) 0.1523(4)
O8 O 0.6762(4) -0.01586(17) 0.1568(5)
O9 O 1.0471(4) 0.4235(2) 0.8681(6)
loop_
_geom_bond_atom_site_label_1
_geom_bond_atom_site_label_2
_geom_bond_site_symmetry_1
_geom_bond_site_symmetry_2
Co1 O1 1_555 1_555
O1 C11 1_555 1_555
O2 C11 1_555 1_555
O3 Co1 1_555 1_555
O4 C12 1_555 1_555
O5 Co1 1_555 1_555
N1 Co1 1_555 1_555
N2 C9 1_555 1_555
C1 N1 1_555 1_555
H1 C1 1_555 1_555
C2 N1 1_555 1_555
H2 C2 1_555 1_555
C3 C1 1_555 1_555
H3 C3 1_555 1_555
C4 C2 1_555 1_555
H4 C4 1_555 1_555
C5 C3 1_555 1_555
C6 C5 1_555 1_555
C7 C6 1_555 1_555
H5 C7 1_555 1_555
C8 C6 1_555 1_555
H6 C8 1_555 1_555
C9 C7 1_555 1_555
H7 C9 1_555 1_555
C10 N2 1_555 1_555
H8 C10 1_555 1_555
C11 H9 1_555 1_555
C12 O3 1_555 1_555
H10 C12 1_555 1_555
Co1C O2 1_555 1_555
Co1B N2 1_555 1_555
O2C Co1 1_555 1_555
N2B Co1 1_555 1_555
C4 C5 1_555 1_555
C8 C10 1_555 1_555

#END
