
#######################################################################
#
#                 Cambridge Crystallographic Data Centre
#                                CCDC 
#
#######################################################################
#
# If this CIF has been generated from an entry in the Cambridge 
# Structural Database, then it will include bibliographic, chemical, 
# crystal, experimental, refinement or atomic coordinate data resulting 
# from the CCDC's data processing and validation procedures.
#
#######################################################################

data_FIFPAM01
_symmetry_cell_setting           monoclinic
_symmetry_space_group_name_H-M   'C c'
_symmetry_Int_Tables_number      9
_space_group_name_Hall           'C -2yc'
loop_
_symmetry_equiv_pos_site_id
_symmetry_equiv_pos_as_xyz
1 x,y,z
2 x,-y,1/2+z
3 1/2+x,1/2+y,z
4 1/2+x,1/2-y,1/2+z
_cell_length_a                   10.5032(18)
_cell_length_b                   20.087(3)
_cell_length_c                   8.1405(14)
_cell_angle_alpha                90
_cell_angle_beta                 102.656(3)
_cell_angle_gamma                90
_cell_volume                     1675.74
loop_
_atom_site_label
_atom_site_type_symbol
_atom_site_fract_x
_atom_site_fract_y
_atom_site_fract_z
Ni1 Ni 0.2015(3) 0.25324(6) 0.1818(3)
O1 O 0.0383(8) 0.3003(3) 0.0364(10)
O2 O -0.1389(8) 0.2968(3) -0.1675(10)
O3 O 0.2626(9) 0.2306(5) -0.0374(10)
O4 O 0.1327(8) 0.2849(4) 0.3926(10)
N1 N 0.1074(10) 0.1619(4) 0.1754(11)
C1 C -0.0786(12) -0.0297(5) 0.1838(16)
C2 C -0.0163(12) 0.0368(5) 0.1789(14)
C3 C -0.0099(12) 0.1547(5) 0.2103(16)
C4 C -0.0791(14) 0.0950(6) 0.2138(16)
C5 C 0.1072(13) 0.0424(6) 0.1388(16)
C6 C -0.1920(16) -0.0375(6) 0.236(2)
C7 C 0.1614(13) 0.1047(5) 0.1385(18)
O5 O 0.1427(10) 0.2874(5) 0.6657(11)
C8 C 0.1715(11) 0.2626(5) 0.5390(13)
C9 C -0.0392(13) 0.2709(4) -0.0798(15)
H1 H -0.066(13) 0.188(6) 0.264(16)
N2 N -0.2002(10) -0.1539(4) 0.1881(13)
C10 C -0.0283(15) -0.0881(7) 0.136(2)
C11 C -0.2505(15) -0.0980(5) 0.241(2)
C12 C -0.0874(13) -0.1475(6) 0.1377(16)
H2 H -0.023(8) 0.220(3) -0.098(9)
H3 H -0.166(10) 0.095(4) 0.238(12)
H4 H -0.219(10) -0.017(5) 0.273(12)
H5 H 0.259(8) 0.108(4) 0.085(10)
H6 H -0.300(10) -0.110(4) 0.261(13)
H7 H 0.210(11) 0.224(6) 0.527(14)
H8 H 0.169(9) -0.001(4) 0.132(11)
H9 H -0.061(13) -0.189(7) 0.138(16)
H10 H 0.266(10) 0.261(5) -0.023(13)
H11 H 0.300(12) 0.197(6) -0.063(15)
H12 H 0.012(10) -0.091(5) 0.095(12)
Ni1C Ni -0.2985(3) 0.24676(6) -0.3182(3)
Ni1B Ni -0.2985(3) -0.24676(6) 0.1818(3)
O2C O 0.3611(8) 0.2032(3) 0.3325(10)
N2B N 0.2998(10) 0.3461(4) 0.1881(13)
O6 O 0.3013(12) 0.0916(5) 0.5428(15)
H13 H 0.310(10) 0.119(5) 0.483(13)
O7 O 0.4122(10) 0.1362(4) -0.1409(12)
H14 H 0.498(13) 0.117(5) -0.062(16)
O8 O 0.4664(15) 0.0154(5) 0.0316(17)
O9 O -0.402(2) 0.0734(8) 0.332(3)
H15 H -0.401(12) 0.096(5) 0.272(13)
loop_
_geom_bond_atom_site_label_1
_geom_bond_atom_site_label_2
_geom_bond_site_symmetry_1
_geom_bond_site_symmetry_2
Ni1 O1 1_555 1_555
O1 C9 1_555 1_555
O2 C9 1_555 1_555
O3 Ni1 1_555 1_555
O4 Ni1 1_555 1_555
N1 Ni1 1_555 1_555
C1 C2 1_555 1_555
C2 C4 1_555 1_555
C3 N1 1_555 1_555
C4 C3 1_555 1_555
C5 C2 1_555 1_555
C6 C1 1_555 1_555
C7 N1 1_555 1_555
O5 C8 1_555 1_555
C8 O4 1_555 1_555
C9 H2 1_555 1_555
H1 C3 1_555 1_555
N2 C11 1_555 1_555
C10 C1 1_555 1_555
C11 C6 1_555 1_555
C12 N2 1_555 1_555
H3 C4 1_555 1_555
H4 C6 1_555 1_555
H5 C7 1_555 1_555
H6 C11 1_555 1_555
H7 C8 1_555 1_555
H8 C5 1_555 1_555
H9 C12 1_555 1_555
H10 O3 1_555 1_555
H11 O3 1_555 1_555
H12 C10 1_555 1_555
O6 H13 1_555 1_555
O7 H14 1_555 1_555
O9 H15 1_555 1_555
Ni1C O2 1_555 1_555
Ni1B N2 1_555 1_555
O2C Ni1 1_555 1_555
N2B Ni1 1_555 1_555
C5 C7 1_555 1_555
C10 C12 1_555 1_555

#END
