
#######################################################################
#
#                 Cambridge Crystallographic Data Centre
#                                CCDC 
#
#######################################################################
#
# If this CIF has been generated from an entry in the Cambridge 
# Structural Database, then it will include bibliographic, chemical, 
# crystal, experimental, refinement or atomic coordinate data resulting 
# from the CCDC's data processing and validation procedures.
#
#######################################################################

data_FIFVUM
_symmetry_cell_setting           orthorhombic
_symmetry_space_group_name_H-M   'P 21 21 2'
_symmetry_Int_Tables_number      18
_space_group_name_Hall           'P 2 2ab'
loop_
_symmetry_equiv_pos_site_id
_symmetry_equiv_pos_as_xyz
1 x,y,z
2 -x,-y,z
3 1/2-x,1/2+y,-z
4 1/2+x,1/2-y,-z
_cell_length_a                   8.4381(14)
_cell_length_b                   13.639(2)
_cell_length_c                   19.697(3)
_cell_angle_alpha                90
_cell_angle_beta                 90
_cell_angle_gamma                90
_cell_volume                     2266.87
loop_
_atom_site_label
_atom_site_type_symbol
_atom_site_fract_x
_atom_site_fract_y
_atom_site_fract_z
Mn1 Mn 1.0000 0.5000 0.57313(10)
Mn2 Mn 1.5000 0.5000 0.06336(8)
O1 O 1.0511(7) 0.6088(5) 0.6499(3)
H1 H 1.1460 0.6174 0.6566
O2 O 0.4901(10) 0.7621(5) 1.0088(3)
O3 O 1.5253(7) 0.3955(4) 0.1422(3)
H2 H 1.6160 0.3817 0.1536
O4 O 0.4493(6) 0.6043(4) 0.9877(3)
C1 C 0.9774(10) 0.6127(6) 0.7059(4)
C2 C 0.5144(11) 0.6853(6) 0.9756(4)
N1 N 0.7183(8) 0.7819(5) 0.9173(4)
H3 H 0.7118 0.8206 0.9516
H4 H 0.7832 0.7948 0.8848
O5 O 1.2534(7) 0.4503(5) 0.0778(3)
C3 C 0.8082(11) 0.6049(7) 0.7123(5)
N2 N 0.7115(10) 0.6011(9) 0.6515(4)
N3 N 1.1847(9) 0.4142(6) 0.1274(4)
C4 C 0.9683(9) 0.6227(6) 0.8322(4)
H5 H 1.0239 0.6309 0.8725
O6 O 0.7598(9) 0.5617(8) 0.5999(4)
C5 C 0.6162(9) 0.6918(6) 0.9139(4)
H6 H 0.5453 0.6997 0.8749
C6 C 0.7287(11) 0.6024(7) 0.7738(5)
H7 H 0.6189 0.5965 0.7739
C7 C 0.8059(10) 0.6083(6) 0.8338(4)
C8 C 1.0473(10) 0.6250(6) 0.7716(4)
C9 C 0.7172(10) 0.6040(7) 0.9001(4)
H8 H 0.6504 0.5461 0.9002
H9 H 0.7932 0.5970 0.9368
O7 O 1.7516(8) 0.3437(6) 0.2293(4)
N4 N 1.2205(9) 0.6376(6) 0.7769(4)
O8 O 1.3026(8) 0.6422(7) 0.7269(4)
C10 C 1.2663(10) 0.3953(7) 0.1918(4)
O9 O 1.2829(8) 0.6433(8) 0.8343(4)
O10 O 1.0438(7) 0.3931(6) 0.1259(3)
C11 C 1.2311(10) 0.3721(7) 0.3116(5)
C12 C 1.4904(11) 0.3706(6) 0.2614(4)
N5 N 1.6584(9) 0.3626(6) 0.2750(4)
O11 O 1.7076(9) 0.3784(8) 0.3329(4)
C13 C 1.1703(11) 0.3878(6) 0.2480(5)
H10 H 1.0612 0.3936 0.2427
C14 C 1.3931(10) 0.3647(7) 0.3180(5)
H11 H 1.4378 0.3556 0.3607
C15 C 1.4343(10) 0.3906(6) 0.1937(4)
O12 O 0.5790(9) 0.6192(13) 0.6538(5)
C16 C 1.1132(11) 0.3726(9) 0.3708(5)
H12 H 1.0127 0.3468 0.3549
H13 H 1.0958 0.4398 0.3849
C17 C 1.1674(11) 0.3116(8) 0.4339(5)
H14 H 1.2631 0.3419 0.4526
N6 N 1.2025(10) 0.2067(6) 0.4188(4)
H15 H 1.1529 0.1611 0.4401
H16 H 1.2723 0.1919 0.3887
C18 C 1.0406(15) 0.3108(8) 0.4885(5)
O13 O 1.0068(13) 0.2364(7) 0.5160(4)
O14 O 0.9721(11) 0.3917(6) 0.5015(3)
Mn2_2 Mn 0.5000 0.5000 1.06336(8)
Mn2_3 Mn 1.5000 0.5000 1.06336(8)
Mn2_4 Mn 0.5000 0.5000 0.06336(8)
O1A O 0.9489(7) 0.3912(5) 0.6499(3)
H1A H 0.8540 0.3826 0.6566
O2A O 1.5099(10) 0.2379(5) 1.0088(3)
O3A O 0.4747(7) 0.6045(4) 0.1422(3)
O3A_2 O 1.4747(7) 0.6045(4) 0.1422(3)
H2A H 0.3840 0.6183 0.1536
H2A_2 H 1.3840 0.6183 0.1536
O4A O 1.5507(6) 0.3957(4) 0.9877(3)
O4_2 O 1.4493(6) 0.6043(4) -0.0123(3)
O4A_2 O 1.5507(6) 0.3957(4) -0.0123(3)
C1A C 1.0226(10) 0.3873(6) 0.7059(4)
C2A C 1.4856(11) 0.3147(6) 0.9756(4)
N1A N 1.2817(8) 0.2181(5) 0.9173(4)
H3A H 1.2882 0.1794 0.9516
H4A H 1.2168 0.2052 0.8848
O5A O 0.7466(7) 0.5497(5) 0.0778(3)
O5A_2 O 1.7466(7) 0.5497(5) 0.0778(3)
C3A C 1.1918(11) 0.3951(7) 0.7123(5)
N2A N 1.2885(10) 0.3989(9) 0.6515(4)
N3A N 0.8153(9) 0.5858(6) 0.1274(4)
C4A C 1.0317(9) 0.3773(6) 0.8322(4)
H5A H 0.9761 0.3691 0.8725
O6A O 1.2402(9) 0.4383(8) 0.5999(4)
C5A C 1.3838(9) 0.3082(6) 0.9139(4)
H6A H 1.4547 0.3003 0.8749
C6A C 1.2713(11) 0.3976(7) 0.7738(5)
H7A H 1.3811 0.4035 0.7739
C7A C 1.1941(10) 0.3917(6) 0.8338(4)
C8A C 0.9527(10) 0.3750(6) 0.7716(4)
C9A C 1.2828(10) 0.3960(7) 0.9001(4)
H8A H 1.3496 0.4539 0.9002
H9A H 1.2068 0.4030 0.9368
O7A O 0.2484(8) 0.6563(6) 0.2293(4)
N4A N 0.7795(9) 0.3624(6) 0.7769(4)
O8A O 0.6974(8) 0.3578(7) 0.7269(4)
C10A C 0.7337(10) 0.6047(7) 0.1918(4)
O9A O 0.7171(8) 0.3567(8) 0.8343(4)
O10A O 0.9562(7) 0.6069(6) 0.1259(3)
C11A C 0.7689(10) 0.6279(7) 0.3116(5)
C12A C 0.5096(11) 0.6294(6) 0.2614(4)
N5A N 0.3416(9) 0.6374(6) 0.2750(4)
O11A O 0.2924(9) 0.6216(8) 0.3329(4)
C13A C 0.8297(11) 0.6122(6) 0.2480(5)
H10A H 0.9388 0.6064 0.2427
C14A C 0.6069(10) 0.6353(7) 0.3180(5)
H11A H 0.5622 0.6444 0.3607
C15A C 0.5657(10) 0.6094(6) 0.1937(4)
O12A O 1.4210(9) 0.3808(13) 0.6538(5)
C16A C 0.8868(11) 0.6274(9) 0.3708(5)
H12A H 0.9873 0.6532 0.3549
H13A H 0.9042 0.5602 0.3849
C17A C 0.8326(11) 0.6884(8) 0.4339(5)
H14A H 0.7369 0.6581 0.4526
N6A N 0.7975(10) 0.7933(6) 0.4188(4)
H15A H 0.8471 0.8389 0.4401
H16A H 0.7277 0.8081 0.3887
C18A C 0.9594(15) 0.6892(8) 0.4885(5)
O13A O 0.9932(13) 0.7636(7) 0.5160(4)
O14A O 1.0279(11) 0.6083(6) 0.5015(3)
loop_
_geom_bond_atom_site_label_1
_geom_bond_atom_site_label_2
_geom_bond_site_symmetry_1
_geom_bond_site_symmetry_2
Mn1 O1 1_555 1_555
Mn2 O3 1_555 1_555
O1 H1 1_555 1_555
O2 C2 1_555 1_555
O3 H2 1_555 1_555
O4 C2 1_555 1_555
C1 O1 1_555 1_555
C2 C5 1_555 1_555
N1 H3 1_555 1_555
H4 N1 1_555 1_555
O5 Mn2 1_555 1_555
C3 C1 1_555 1_555
N2 C3 1_555 1_555
N3 O5 1_555 1_555
C4 H5 1_555 1_555
O6 Mn1 1_555 1_555
C5 N1 1_555 1_555
H6 C5 1_555 1_555
C6 C3 1_555 1_555
H7 C6 1_555 1_555
C7 C4 1_555 1_555
C8 C1 1_555 1_555
C9 C5 1_555 1_555
H8 C9 1_555 1_555
H9 C9 1_555 1_555
O7 N5 1_555 1_555
N4 C8 1_555 1_555
O8 N4 1_555 1_555
C10 N3 1_555 1_555
O9 N4 1_555 1_555
O10 N3 1_555 1_555
C11 C13 1_555 1_555
C12 N5 1_555 1_555
N5 O11 1_555 1_555
C13 C10 1_555 1_555
H10 C13 1_555 1_555
C14 C11 1_555 1_555
H11 C14 1_555 1_555
C15 O3 1_555 1_555
O12 N2 1_555 1_555
C16 C11 1_555 1_555
H12 C16 1_555 1_555
H13 C16 1_555 1_555
C17 C16 1_555 1_555
H14 C17 1_555 1_555
N6 C17 1_555 1_555
H15 N6 1_555 1_555
H16 N6 1_555 1_555
C18 C17 1_555 1_555
O13 C18 1_555 1_555
O14 Mn1 1_555 1_555
Mn2_2 O4 1_555 1_555
Mn2_3 O4A 1_555 1_555
Mn2_4 O3A 1_555 1_555
O1A Mn1 1_555 1_555
H1A O1A 1_555 1_555
O2A C2A 1_555 1_555
O3A H2A 1_555 1_555
O3A_2 Mn2 1_555 1_555
H2A_2 O3A_2 1_555 1_555
O4A C2A 1_555 1_555
O4_2 Mn2 1_555 1_555
O4A_2 Mn2 1_555 1_555
C1A O1A 1_555 1_555
C2A C5A 1_555 1_555
N1A H3A 1_555 1_555
H4A N1A 1_555 1_555
O5A Mn2_4 1_555 1_555
O5A_2 Mn2 1_555 1_555
C3A C1A 1_555 1_555
N2A C3A 1_555 1_555
N3A O5A 1_555 1_555
C4A H5A 1_555 1_555
O6A Mn1 1_555 1_555
C5A N1A 1_555 1_555
H6A C5A 1_555 1_555
C6A C3A 1_555 1_555
H7A C6A 1_555 1_555
C7A C4A 1_555 1_555
C8A C1A 1_555 1_555
C9A C5A 1_555 1_555
H8A C9A 1_555 1_555
H9A C9A 1_555 1_555
O7A N5A 1_555 1_555
N4A C8A 1_555 1_555
O8A N4A 1_555 1_555
C10A N3A 1_555 1_555
O9A N4A 1_555 1_555
O10A N3A 1_555 1_555
C11A C13A 1_555 1_555
C12A N5A 1_555 1_555
N5A O11A 1_555 1_555
C13A C10A 1_555 1_555
H10A C13A 1_555 1_555
C14A C11A 1_555 1_555
H11A C14A 1_555 1_555
C15A O3A 1_555 1_555
O12A N2A 1_555 1_555
C16A C11A 1_555 1_555
H12A C16A 1_555 1_555
H13A C16A 1_555 1_555
C17A C16A 1_555 1_555
H14A C17A 1_555 1_555
N6A C17A 1_555 1_555
H15A N6A 1_555 1_555
H16A N6A 1_555 1_555
C18A C17A 1_555 1_555
O13A C18A 1_555 1_555
O14A Mn1 1_555 1_555
N2 O6 1_555 1_555
C4 C8 1_555 1_555
C6 C7 1_555 1_555
C7 C9 1_555 1_555
C10 C15 1_555 1_555
C12 C14 1_555 1_555
C12 C15 1_555 1_555
C18 O14 1_555 1_555
N2A O6A 1_555 1_555
C4A C8A 1_555 1_555
C6A C7A 1_555 1_555
C7A C9A 1_555 1_555
C10A C15A 1_555 1_555
C12A C14A 1_555 1_555
C12A C15A 1_555 1_555
C18A O14A 1_555 1_555

#END
