
#######################################################################
#
#                 Cambridge Crystallographic Data Centre
#                                CCDC 
#
#######################################################################
#
# If this CIF has been generated from an entry in the Cambridge 
# Structural Database, then it will include bibliographic, chemical, 
# crystal, experimental, refinement or atomic coordinate data resulting 
# from the CCDC's data processing and validation procedures.
#
#######################################################################

data_FIFYOJ
_symmetry_cell_setting           monoclinic
_symmetry_space_group_name_H-M   'C 2/c'
_symmetry_Int_Tables_number      15
_space_group_name_Hall           '-C 2yn'
loop_
_symmetry_equiv_pos_site_id
_symmetry_equiv_pos_as_xyz
1 x,y,z
2 1/2+x,1/2+y,z
3 -x,y,1/2-z
4 1/2-x,1/2+y,1/2-z
5 -x,-y,-z
6 1/2-x,1/2-y,-z
7 x,-y,1/2+z
8 1/2+x,1/2-y,1/2+z
_cell_length_a                   13.181(5)
_cell_length_b                   10.399(4)
_cell_length_c                   19.690(8)
_cell_angle_alpha                90
_cell_angle_beta                 96.451(4)
_cell_angle_gamma                90
_cell_volume                     2681.8
loop_
_atom_site_label
_atom_site_type_symbol
_atom_site_fract_x
_atom_site_fract_y
_atom_site_fract_z
Ag1 Ag 0.341911(12) 0.774140(16) 0.453345(8)
S1 S 0.11368(4) 1.09401(5) 0.18409(3)
N1 N 0.26783(13) 0.87411(17) 0.36690(8)
C1 C 0.19095(15) 0.81829(19) 0.32634(10)
H1 H 0.1696 0.7345 0.3378
C2 C 0.14176(14) 0.87719(18) 0.26894(9)
H2 H 0.0880 0.8345 0.2417
C3 C 0.17223(14) 1.00009(18) 0.25164(10)
C4 C 0.25136(16) 1.0585(2) 0.29377(11)
H3 H 0.2739 1.1424 0.2836
C5 C 0.29654(15) 0.9930(2) 0.35040(11)
H4 H 0.3501 1.0338 0.3788
N2 N -0.07525(13) 0.84258(17) 0.02941(8)
C6 C -0.10307(14) 0.96348(19) 0.04385(10)
H5 H -0.1631 0.9984 0.0195
C7 C -0.04772(15) 1.03833(19) 0.09265(10)
H6 H -0.0705 1.1221 0.1028
C8 C 0.04232(14) 0.98881(19) 0.12684(9)
C9 C 0.07416(15) 0.86639(19) 0.10993(10)
H7 H 0.1371 0.8323 0.1306
C10 C 0.01213(16) 0.79560(19) 0.06243(10)
H8 H 0.0319 0.7103 0.0526
S1G S 0.61368(4) 0.40599(5) 0.68409(3)
N1G N 0.76783(13) 0.62589(17) 0.86690(8)
C1G C 0.69095(15) 0.68171(19) 0.82634(10)
H1G H 0.6696 0.7655 0.8378
C2G C 0.64176(14) 0.62281(18) 0.76894(9)
H2G H 0.5880 0.6655 0.7417
C3G C 0.67223(14) 0.49991(18) 0.75164(10)
C4G C 0.75136(16) 0.4415(2) 0.79377(11)
H3G H 0.7739 0.3576 0.7836
C5G C 0.79654(15) 0.5070(2) 0.85040(11)
H4G H 0.8501 0.4662 0.8788
N2G N 0.42475(13) 0.65742(17) 0.52941(8)
C6G C 0.39693(14) 0.53652(19) 0.54385(10)
H5G H 0.3369 0.5016 0.5195
C7G C 0.45228(15) 0.46167(19) 0.59265(10)
H6G H 0.4295 0.3779 0.6028
C8G C 0.54232(14) 0.51119(19) 0.62684(9)
C9G C 0.57416(15) 0.63361(19) 0.60993(10)
H7G H 0.6371 0.6677 0.6306
C10G C 0.51213(16) 0.70440(19) 0.56243(10)
H8G H 0.5319 0.7897 0.5526
Ag1G Ag 0.841911(12) 0.725860(16) 0.953345(8)
Ag1G_2 Ag -0.158089(12) 0.725860(16) -0.046655(8)
N2_2 N 0.92475(13) 0.84258(17) 1.02941(8)
Cl1 Cl 0.63300(4) 0.93160(5) 0.43045(3)
O1 O 0.52413(13) 0.9186(2) 0.42319(10)
O2 O 0.67370(16) 0.8879(2) 0.49730(11)
O3 O 0.67403(16) 0.8569(3) 0.37953(13)
O4 O 0.6629(2) 1.0634(2) 0.42497(13)
N3 N 0.0000 0.6281(3) 0.2500
C11 C 0.0000 0.5199(3) 0.2500
C12 C 0.0000 0.3809(3) 0.2500
H11 H -0.0537 0.3495 0.2156
H11B H 0.0537 0.3495 0.2844
H9? H -0.0127 0.3495 0.2952
H10? H 0.0664 0.3495 0.2392
loop_
_geom_bond_atom_site_label_1
_geom_bond_atom_site_label_2
_geom_bond_site_symmetry_1
_geom_bond_site_symmetry_2
Ag1 N1 1_555 1_555
S1 C3 1_555 1_555
N1 C1 1_555 1_555
C1 H1 1_555 1_555
C2 C1 1_555 1_555
H2 C2 1_555 1_555
C3 C2 1_555 1_555
C4 C3 1_555 1_555
H3 C4 1_555 1_555
C5 N1 1_555 1_555
H4 C5 1_555 1_555
N2 C6 1_555 1_555
C6 H5 1_555 1_555
C7 C6 1_555 1_555
H6 C7 1_555 1_555
C8 S1 1_555 1_555
C9 C8 1_555 1_555
H7 C9 1_555 1_555
C10 N2 1_555 1_555
H8 C10 1_555 1_555
Cl1 O1 1_555 1_555
O2 Cl1 1_555 1_555
O3 Cl1 1_555 1_555
O4 Cl1 1_555 1_555
N3 C11 1_555 1_555
C11 C12 1_555 1_555
C12 H11 1_555 1_555
H11B C12 1_555 1_555
S1G C3G 1_555 1_555
N1G C1G 1_555 1_555
C1G H1G 1_555 1_555
C2G C1G 1_555 1_555
H2G C2G 1_555 1_555
C3G C2G 1_555 1_555
C4G C3G 1_555 1_555
H3G C4G 1_555 1_555
C5G N1G 1_555 1_555
H4G C5G 1_555 1_555
N2G Ag1 1_555 1_555
C6G N2G 1_555 1_555
H5G C6G 1_555 1_555
C7G C6G 1_555 1_555
H6G C7G 1_555 1_555
C8G S1G 1_555 1_555
C9G C8G 1_555 1_555
H7G C9G 1_555 1_555
C10G N2G 1_555 1_555
H8G C10G 1_555 1_555
Ag1G N1G 1_555 1_555
Ag1G_2 N2 1_555 1_555
N2_2 Ag1G 1_555 1_555
C4 C5 1_555 1_555
C7 C8 1_555 1_555
C9 C10 1_555 1_555
C4G C5G 1_555 1_555
C7G C8G 1_555 1_555
C9G C10G 1_555 1_555

#END
