
#######################################################################
#
#                 Cambridge Crystallographic Data Centre
#                                CCDC 
#
#######################################################################
#
# If this CIF has been generated from an entry in the Cambridge 
# Structural Database, then it will include bibliographic, chemical, 
# crystal, experimental, refinement or atomic coordinate data resulting 
# from the CCDC's data processing and validation procedures.
#
#######################################################################

data_FIGQOD
_symmetry_cell_setting           monoclinic
_symmetry_space_group_name_H-M   'P 21/n'
_symmetry_Int_Tables_number      14
_space_group_name_Hall           '-P 2yn'
loop_
_symmetry_equiv_pos_site_id
_symmetry_equiv_pos_as_xyz
1 x,y,z
2 1/2-x,1/2+y,1/2-z
3 -x,-y,-z
4 1/2+x,1/2-y,1/2+z
_cell_length_a                   8.6901(14)
_cell_length_b                   15.562(3)
_cell_length_c                   13.569(2)
_cell_angle_alpha                90
_cell_angle_beta                 105.630(2)
_cell_angle_gamma                90
_cell_volume                     1767.15
loop_
_atom_site_label
_atom_site_type_symbol
_atom_site_fract_x
_atom_site_fract_y
_atom_site_fract_z
Cu1 Cu 0.03536(4) 0.19207(2) 0.14015(3)
O1 O -0.18324(19) 0.23030(13) 0.14635(14)
O2 O -0.2014(2) 0.18248(13) -0.00967(14)
O3 O -0.8086(2) 0.14278(13) 0.07698(14)
O4 O -0.6040(2) 0.14585(14) 0.21688(16)
O5 O -0.1616(2) -0.07048(14) 0.46204(17)
O6 O 0.1896(2) 0.21543(16) 0.31554(16)
H1 H 0.266(3) 0.1983(19) 0.293(2)
H2 H 0.229(3) 0.2503(17) 0.3657(18)
N1 N -0.0083(2) 0.07641(15) 0.19572(16)
N2 N -0.2346(3) 0.06947(16) 0.43470(19)
H3 H -0.244(3) 0.1137(15) 0.3897(19)
N3 N -0.4105(2) 0.18647(15) 0.61148(17)
C1 C -0.0523(3) -0.0748(2) 0.1801(2)
H4 H -0.0465 -0.1266 0.1442
C2 C -0.1088(3) -0.0753(2) 0.2641(2)
H5 H -0.1438 -0.1275 0.2872
C3 C -0.4362(3) 0.1240(2) 0.6737(2)
H6 H -0.4864 0.1380 0.7257
C4 C -0.0034(3) 0.0017(2) 0.1477(2)
H7 H 0.0354 0.0016 0.0886
C5 C -0.3917(3) 0.0406(2) 0.6637(2)
H8 H -0.4085 -0.0021 0.7097
C6 C -0.5422(3) 0.15418(19) -0.0214(2)
H9 H -0.4907 0.1242 -0.0685
H10 H -0.6492 0.1733 -0.0619
C7 C -0.3445(3) 0.16514(19) 0.5365(2)
H11 H -0.3277 0.2091 0.4920
C8 C -0.2651(3) 0.21344(18) 0.0538(2)
C9 C -0.2994(3) 0.0823(2) 0.5208(2)
C10 C -0.1716(3) -0.0039(2) 0.4111(2)
C11 C -0.4426(3) 0.23307(18) 0.0225(2)
H12 H -0.4641 0.2794 -0.0294
H13 H -0.4750 0.2540 0.0828
C12 C -0.5620(3) 0.09079(19) 0.0606(2)
H14 H -0.6134 0.0376 0.0274
H15 H -0.4555 0.0754 0.1055
C13 C -0.1152(3) 0.0005(2) 0.3162(2)
C14 C -0.6631(3) 0.12951(18) 0.1248(2)
C15 C -0.0614(3) 0.07471(19) 0.2798(2)
H16 H -0.0622 0.1268 0.3161
C16 C -0.3219(3) 0.0188(2) 0.5861(2)
H17 H -0.2905 -0.0388 0.5784
Cu1_2 Cu -0.96464(4) 0.19207(2) 0.14015(3)
Cu1C Cu -0.46464(4) 0.30793(2) 0.64015(3)
O3_2 O 0.1914(2) 0.14278(13) 0.07698(14)
N3C N 0.0895(2) 0.31353(15) 0.11148(17)
O7 O -0.3179(2) 0.21660(14) 0.30839(15)
H18 H -0.272(3) 0.2260(19) 0.2631(18)
H19 H -0.412(2) 0.1955(18) 0.282(2)
loop_
_geom_bond_atom_site_label_1
_geom_bond_atom_site_label_2
_geom_bond_site_symmetry_1
_geom_bond_site_symmetry_2
Cu1 O1 1_555 1_555
O1 C8 1_555 1_555
O2 Cu1 1_555 1_555
O3 C14 1_555 1_555
O4 C14 1_555 1_555
O5 C10 1_555 1_555
O6 Cu1 1_555 1_555
H1 O6 1_555 1_555
H2 O6 1_555 1_555
N1 Cu1 1_555 1_555
N2 H3 1_555 1_555
N3 C3 1_555 1_555
C1 H4 1_555 1_555
C2 C1 1_555 1_555
H5 C2 1_555 1_555
C3 H6 1_555 1_555
C4 N1 1_555 1_555
H7 C4 1_555 1_555
C5 C3 1_555 1_555
H8 C5 1_555 1_555
C6 H9 1_555 1_555
H10 C6 1_555 1_555
C7 N3 1_555 1_555
H11 C7 1_555 1_555
C8 O2 1_555 1_555
C9 N2 1_555 1_555
C10 N2 1_555 1_555
C11 C6 1_555 1_555
H12 C11 1_555 1_555
H13 C11 1_555 1_555
C12 C6 1_555 1_555
H14 C12 1_555 1_555
H15 C12 1_555 1_555
C13 C2 1_555 1_555
C14 C12 1_555 1_555
C15 N1 1_555 1_555
H16 C15 1_555 1_555
C16 C5 1_555 1_555
H17 C16 1_555 1_555
O7 H18 1_555 1_555
H19 O7 1_555 1_555
Cu1_2 O3 1_555 1_555
Cu1C N3 1_555 1_555
O3_2 Cu1 1_555 1_555
N3C Cu1 1_555 1_555
C1 C4 1_555 1_555
C7 C9 1_555 1_555
C8 C11 1_555 1_555
C9 C16 1_555 1_555
C10 C13 1_555 1_555
C13 C15 1_555 1_555

#END
