
#######################################################################
#
#                 Cambridge Crystallographic Data Centre
#                                CCDC 
#
#######################################################################
#
# If this CIF has been generated from an entry in the Cambridge 
# Structural Database, then it will include bibliographic, chemical, 
# crystal, experimental, refinement or atomic coordinate data resulting 
# from the CCDC's data processing and validation procedures.
#
#######################################################################

data_FIGSEV
_symmetry_cell_setting           monoclinic
_symmetry_space_group_name_H-M   'C 2/c'
_symmetry_Int_Tables_number      15
_space_group_name_Hall           '-C 2yn'
loop_
_symmetry_equiv_pos_site_id
_symmetry_equiv_pos_as_xyz
1 x,y,z
2 -x,y,1/2-z
3 1/2+x,1/2+y,z
4 1/2-x,1/2+y,1/2-z
5 -x,-y,-z
6 x,-y,1/2+z
7 1/2-x,1/2-y,-z
8 1/2+x,1/2-y,1/2+z
_cell_length_a                   20.036(3)
_cell_length_b                   11.1858(19)
_cell_length_c                   17.000(3)
_cell_angle_alpha                90
_cell_angle_beta                 92.096(2)
_cell_angle_gamma                90
_cell_volume                     3807.47
loop_
_atom_site_label
_atom_site_type_symbol
_atom_site_fract_x
_atom_site_fract_y
_atom_site_fract_z
Co1 Co 0.22928(5) 0.10388(8) 0.04212(5)
O1 O 0.1691(3) 0.2311(4) 0.0759(3)
O2 O 0.2299(3) 0.3946(5) 0.0609(3)
O3 O 0.2123(3) 0.5982(5) 0.3634(3)
O4 O 0.1720(4) 0.4385(5) 0.4196(3)
N1 N 0.1683(3) -0.0388(5) 0.0249(3)
N2 N 0.1430(4) -0.2220(6) -0.0147(4)
H1 H 0.1469 -0.2907 -0.0368
C1 C 0.1875(4) -0.1358(6) -0.0136(4)
H2 H 0.2284 -0.1420 -0.0374
C2 C 0.0890(4) -0.1825(7) 0.0260(4)
C3 C 0.1061(4) -0.0670(6) 0.0517(4)
C4 C 0.0604(4) -0.0002(7) 0.0940(4)
H3 H 0.0706 0.0774 0.1100
C5 C 0.0014(4) -0.0501(8) 0.1114(4)
C6 C -0.0175(4) -0.1659(8) 0.0864(5)
C7 C 0.0278(5) -0.2330(8) 0.0428(5)
H4 H 0.0170 -0.3097 0.0256
C8 C -0.0502(5) 0.0236(10) 0.1562(5)
H5 H -0.0339 0.1036 0.1638
H6 H -0.0570 -0.0127 0.2065
H7 H -0.0917 0.0256 0.1263
C9 C -0.0833(5) -0.2194(11) 0.1053(6)
H8 H -0.0866 -0.2983 0.0833
H9 H -0.1187 -0.1705 0.0834
H10 H -0.0869 -0.2238 0.1614
C10 C 0.1840(4) 0.3371(6) 0.0912(4)
C11 C 0.1442(4) 0.4016(8) 0.1530(4)
C12 C 0.1474(8) 0.5395(12) 0.1483(8)
H11 H 0.1922 0.5656 0.1369
H12 H 0.1167 0.5692 0.1074
C13 C 0.1279(6) 0.5846(11) 0.2280(6)
H13 H 0.0820 0.6126 0.2258
H14 H 0.1567 0.6500 0.2451
C14 C 0.1356(4) 0.4791(7) 0.2845(4)
H15 H 0.0911 0.4508 0.2976
C15 C 0.1711(6) 0.3787(10) 0.2357(6)
C16 C 0.2444(6) 0.3819(12) 0.2454(6)
H16 H 0.2635 0.3235 0.2114
H17 H 0.2572 0.3642 0.2991
H18 H 0.2603 0.4599 0.2320
C17 C 0.1457(9) 0.2503(15) 0.2624(10)
H19 H 0.1752 0.1898 0.2437
H20 H 0.1014 0.2368 0.2406
H21 H 0.1451 0.2471 0.3188
C18 C 0.0727(12) 0.380(2) 0.1271(14)
H22 H 0.0539 0.3196 0.1599
H23 H 0.0707 0.3536 0.0733
H24 H 0.0477 0.4527 0.1316
C19 C 0.1760(4) 0.5058(6) 0.3618(4)
Co1C Co 0.27072(5) 0.60388(8) 0.45788(5)
Co1F Co 0.27072(5) 0.39612(8) -0.04212(5)
O2F O 0.2701(3) 0.1054(5) -0.0609(3)
O3C O 0.2877(3) 0.0982(5) 0.1366(3)
loop_
_geom_bond_atom_site_label_1
_geom_bond_atom_site_label_2
_geom_bond_site_symmetry_1
_geom_bond_site_symmetry_2
Co1 O1 1_555 1_555
O1 C10 1_555 1_555
O2 C10 1_555 1_555
O3 C19 1_555 1_555
O4 C19 1_555 1_555
N1 Co1 1_555 1_555
N2 H1 1_555 1_555
C1 N1 1_555 1_555
H2 C1 1_555 1_555
C2 N2 1_555 1_555
C3 N1 1_555 1_555
C4 C3 1_555 1_555
H3 C4 1_555 1_555
C5 C4 1_555 1_555
C6 C5 1_555 1_555
C7 C2 1_555 1_555
H4 C7 1_555 1_555
C8 C5 1_555 1_555
H5 C8 1_555 1_555
H6 C8 1_555 1_555
H7 C8 1_555 1_555
C9 C6 1_555 1_555
H8 C9 1_555 1_555
H9 C9 1_555 1_555
H10 C9 1_555 1_555
C10 C11 1_555 1_555
C11 C12 1_555 1_555
C12 H11 1_555 1_555
H12 C12 1_555 1_555
C13 C12 1_555 1_555
H13 C13 1_555 1_555
H14 C13 1_555 1_555
C14 C13 1_555 1_555
H15 C14 1_555 1_555
C15 C11 1_555 1_555
C16 C15 1_555 1_555
H16 C16 1_555 1_555
H17 C16 1_555 1_555
H18 C16 1_555 1_555
C17 C15 1_555 1_555
H19 C17 1_555 1_555
H20 C17 1_555 1_555
H21 C17 1_555 1_555
C18 C11 1_555 1_555
H22 C18 1_555 1_555
H23 C18 1_555 1_555
H24 C18 1_555 1_555
C19 C14 1_555 1_555
Co1C O3 1_555 1_555
Co1F O2 1_555 1_555
O2F Co1 1_555 1_555
O3C Co1 1_555 1_555
N2 C1 1_555 1_555
C2 C3 1_555 1_555
C6 C7 1_555 1_555
C14 C15 1_555 1_555

#END
