
#######################################################################
#
#                 Cambridge Crystallographic Data Centre
#                                CCDC 
#
#######################################################################
#
# If this CIF has been generated from an entry in the Cambridge 
# Structural Database, then it will include bibliographic, chemical, 
# crystal, experimental, refinement or atomic coordinate data resulting 
# from the CCDC's data processing and validation procedures.
#
#######################################################################

data_FIGTIA
_symmetry_cell_setting           monoclinic
_symmetry_space_group_name_H-M   'P 21/n'
_symmetry_Int_Tables_number      14
_space_group_name_Hall           '-P 2yn'
loop_
_symmetry_equiv_pos_site_id
_symmetry_equiv_pos_as_xyz
1 x,y,z
2 1/2-x,1/2+y,1/2-z
3 -x,-y,-z
4 1/2+x,1/2-y,1/2+z
_cell_length_a                   9.3440(14)
_cell_length_b                   19.509(3)
_cell_length_c                   17.881(3)
_cell_angle_alpha                90
_cell_angle_beta                 98.330(3)
_cell_angle_gamma                90
_cell_volume                     3225.18
loop_
_atom_site_label
_atom_site_type_symbol
_atom_site_fract_x
_atom_site_fract_y
_atom_site_fract_z
Co1 Co 0.56186(4) 0.216798(17) 0.897294(19)
O1 O 0.6236(2) 0.19568(10) 0.78713(10)
N1 N 0.3533(2) 0.25961(11) 0.87434(12)
C1 C 0.2802(3) 0.27268(14) 0.80747(17)
H1 H 0.3103 0.2590 0.7624
N2 N 0.1570(2) 0.30806(12) 0.81066(13)
C2 C 0.2734(3) 0.28971(13) 0.92575(15)
O2 O 0.8121(3) 0.16546(14) 0.73041(14)
N3 N 0.19752(10) 0.54333(5) 0.67257(5)
C3 C 0.14996(10) 0.32003(5) 0.88603(5)
O3 O 0.78787(10) 0.21213(5) 1.11601(5)
O4 O 0.60788(10) 0.21834(5) 1.01995(5)
N4 N 0.04004(10) 0.61695(5) 0.60948(5)
C4 C 0.04759(10) 0.35281(5) 0.92230(5)
H2 H -0.0344 0.3729 0.8954
N5 N 0.6374(2) 0.32308(11) 0.89760(13)
C5 C 0.0730(4) 0.35415(17) 0.9995(2)
H3 H 0.0062 0.3754 1.0257
N6 N 0.6942(3) 0.42623(12) 0.94641(14)
C6 C 0.1965(4) 0.32451(17) 1.04029(19)
H4 H 0.2103 0.3269 1.0928
N7 N 0.7727(2) 0.18690(10) 0.92067(13)
C7 C 0.2981(3) 0.29185(15) 1.00453(17)
H5 H 0.3800 0.2720 1.0318
C8 C 0.0653(3) 0.33993(17) 0.74648(18)
H6 H -0.0357 0.3329 0.7514
H7 H 0.0835 0.3185 0.6998
C9 C 0.0964(4) 0.4163(2) 0.7437(2)
H8 H 0.0382 0.4356 0.6993
H9 H 0.0663 0.4379 0.7877
C10 C 0.2492(4) 0.43370(19) 0.7414(2)
H10 H 0.2795 0.4113 0.6979
H11 H 0.3069 0.4149 0.7862
C11 C 0.2823(4) 0.50971(16) 0.73732(18)
H12 H 0.2626 0.5317 0.7834
H13 H 0.3843 0.5156 0.7342
C12 C 0.0982(3) 0.59364(14) 0.67587(16)
H14 H 0.0736 0.6101 0.7211
C13 C 0.2050(3) 0.53291(13) 0.59672(15)
C14 C 0.1057(3) 0.57903(12) 0.55776(15)
C15 C 0.0877(3) 0.58150(14) 0.47932(15)
H15 H 0.0218 0.6114 0.4524
C16 C 0.1712(3) 0.53803(15) 0.44302(16)
H16 H 0.1605 0.5385 0.3905
C17 C 0.2712(3) 0.49341(15) 0.48267(18)
H17 H 0.3265 0.4654 0.4560
C18 C 0.2899(3) 0.48991(14) 0.55981(18)
H18 H 0.3566 0.4601 0.5863
C19 C 0.6637(3) 0.35970(14) 0.95885(17)
H19 H 0.6616 0.3418 1.0069
C20 C 0.6839(3) 0.43412(13) 0.86912(17)
C21 C 0.6484(3) 0.36884(13) 0.83851(16)
C22 C 0.6297(3) 0.35898(15) 0.76112(17)
H20 H 0.6065 0.3162 0.7399
C23 C 0.6468(4) 0.41507(17) 0.71688(19)
H21 H 0.6337 0.4099 0.6646
C24 C 0.6831(4) 0.47932(17) 0.7474(2)
H22 H 0.6949 0.5156 0.7152
C25 C 0.7017(3) 0.49039(15) 0.8236(2)
H23 H 0.7251 0.5335 0.8441
C26 C 0.7049(4) 0.48104(16) 1.0030(2)
H24 H 0.7827 0.5120 0.9951
H25 H 0.7281 0.4613 1.0531
C27 C 0.5655(4) 0.52067(18) 0.9982(2)
H26 H 0.5749 0.5537 1.0391
H27 H 0.5521 0.5462 0.9511
C28 C 0.8457(3) 0.17308(13) 0.86376(17)
C29 C 0.9927(3) 0.15775(15) 0.8784(2)
H28 H 1.0443 0.1472 0.8391
C30 C 1.0592(3) 0.15850(16) 0.9514(2)
H29 H 1.1574 0.1485 0.9619
C31 C 0.9835(3) 0.17387(15) 1.0098(2)
H30 H 1.0295 0.1748 1.0595
C32 C 0.8377(3) 0.18782(13) 0.99262(17)
C33 C 0.7379(3) 0.20735(14) 1.04830(16)
C34 C 0.7551(4) 0.17825(14) 0.78701(18)
N5B N 0.3626(2) 0.67692(11) 1.10240(13)
N6B N 0.3058(3) 0.57377(12) 1.05359(14)
C19B C 0.3363(3) 0.64030(14) 1.04115(17)
H19B H 0.3384 0.6582 0.9931
C20B C 0.3161(3) 0.56588(13) 1.13088(17)
C21B C 0.3516(3) 0.63116(13) 1.16149(16)
C22B C 0.3703(3) 0.64102(15) 1.23888(17)
H20B H 0.3935 0.6838 1.2601
C23B C 0.3532(4) 0.58493(17) 1.28312(19)
H21B H 0.3663 0.5901 1.3354
C24B C 0.3169(4) 0.52068(17) 1.2526(2)
H22B H 0.3051 0.4844 1.2848
C25B C 0.2983(3) 0.50961(15) 1.1764(2)
H23B H 0.2749 0.4665 1.1559
C26B C 0.2951(4) 0.51896(16) 0.9970(2)
H24B H 0.2173 0.4880 1.0049
H25B H 0.2719 0.5387 0.9469
C27B C 0.4345(4) 0.47933(18) 1.0018(2)
H26B H 0.4251 0.4463 0.9609
H27B H 0.4479 0.4538 1.0489
Co1B Co 0.43814(4) 0.783202(17) 1.102706(19)
O1B O 0.3764(2) 0.80432(10) 1.21287(10)
N1B N 0.6467(2) 0.74039(11) 1.12566(12)
C1B C 0.7198(3) 0.72732(14) 1.19253(17)
H1B H 0.6897 0.7410 1.2376
N2B N 0.8430(2) 0.69194(12) 1.18934(13)
C2B C 0.7266(3) 0.71029(13) 1.07425(15)
O2B O 0.1879(3) 0.83454(14) 1.26959(14)
N3B N 0.80248(10) 0.45667(5) 1.32743(5)
C3B C 0.85004(10) 0.67997(5) 1.11397(5)
O3B O 0.21213(10) 0.78787(5) 0.88399(5)
O4B O 0.39212(10) 0.78166(5) 0.98005(5)
N4B N 0.95996(10) 0.38305(5) 1.39052(5)
C4B C 0.95241(10) 0.64719(5) 1.07770(5)
H2B H 1.0344 0.6271 1.1046
C5B C 0.9270(4) 0.64585(17) 1.0005(2)
H3B H 0.9938 0.6246 0.9743
C6B C 0.8035(4) 0.67549(17) 0.95971(19)
H4B H 0.7897 0.6731 0.9072
N7B N 0.2273(2) 0.81310(10) 1.07933(13)
C7B C 0.7019(3) 0.70815(15) 0.99547(17)
H5B H 0.6200 0.7280 0.9682
C8B C 0.9347(3) 0.66007(17) 1.25352(18)
H6B H 1.0357 0.6671 1.2486
H7B H 0.9165 0.6815 1.3002
C9B C 0.9036(4) 0.5837(2) 1.2563(2)
H8B H 0.9618 0.5644 1.3007
H9B H 0.9337 0.5621 1.2123
C10B C 0.7508(4) 0.56630(19) 1.2586(2)
H10B H 0.7205 0.5887 1.3021
H11B H 0.6931 0.5851 1.2138
C11B C 0.7177(4) 0.49029(16) 1.26268(18)
H12B H 0.7374 0.4683 1.2166
H13B H 0.6157 0.4844 1.2658
C12B C 0.9018(3) 0.40636(14) 1.32413(16)
H14B H 0.9264 0.3899 1.2789
C13B C 0.7950(3) 0.46709(13) 1.40328(15)
C14B C 0.8943(3) 0.42097(12) 1.44224(15)
C15B C 0.9123(3) 0.41850(14) 1.52068(15)
H15B H 0.9782 0.3886 1.5476
C16B C 0.8288(3) 0.46197(15) 1.55698(16)
H16B H 0.8395 0.4615 1.6095
C17B C 0.7288(3) 0.50659(15) 1.51733(18)
H17B H 0.6735 0.5346 1.5440
C18B C 0.7101(3) 0.51009(14) 1.44019(18)
H18B H 0.6434 0.5399 1.4137
C28B C 0.1543(3) 0.82692(13) 1.13624(17)
C29B C 0.0073(3) 0.84225(15) 1.1216(2)
H28B H -0.0443 0.8528 1.1609
C30B C -0.0592(3) 0.84150(16) 1.0486(2)
H29B H -0.1574 0.8515 1.0381
C31B C 0.0165(3) 0.82613(15) 0.9902(2)
H30B H -0.0295 0.8252 0.9405
C32B C 0.1623(3) 0.81218(13) 1.00738(17)
C33B C 0.2621(3) 0.79265(14) 0.95170(16)
C34B C 0.2449(4) 0.82175(14) 1.21299(18)
Co1A Co -0.06186(4) 0.716798(17) 0.602706(19)
Co1C Co 1.06186(4) 0.283202(17) 1.397294(19)
N4A N 0.45996(10) 0.11695(5) 0.89052(5)
N4C N 0.54004(10) 0.88305(5) 1.10948(5)
O5 O 0.4178(4) 0.1581(2) 0.65513(18)
H31 H 0.4803 0.1701 0.6934
H32 H 0.4294 0.1136 0.6521
O6 O 1.07769(10) 0.15659(5) 0.66400(5)
H33 H 1.0455 0.1213 0.6391
H34 H 1.0566 0.1913 0.6357
loop_
_geom_bond_atom_site_label_1
_geom_bond_atom_site_label_2
_geom_bond_site_symmetry_1
_geom_bond_site_symmetry_2
Co1 O1 1_555 1_555
O1 C34 1_555 1_555
N1 Co1 1_555 1_555
C1 N1 1_555 1_555
H1 C1 1_555 1_555
N2 C1 1_555 1_555
C2 N1 1_555 1_555
O2 C34 1_555 1_555
N3 C11 1_555 1_555
C3 N2 1_555 1_555
O3 C33 1_555 1_555
O4 Co1 1_555 1_555
N4 C12 1_555 1_555
C4 C3 1_555 1_555
H2 C4 1_555 1_555
N5 Co1 1_555 1_555
C5 C4 1_555 1_555
H3 C5 1_555 1_555
N6 C19 1_555 1_555
C6 C5 1_555 1_555
H4 C6 1_555 1_555
N7 Co1 1_555 1_555
C7 C2 1_555 1_555
H5 C7 1_555 1_555
C8 N2 1_555 1_555
H6 C8 1_555 1_555
H7 C8 1_555 1_555
C9 C8 1_555 1_555
H8 C9 1_555 1_555
H9 C9 1_555 1_555
C10 C9 1_555 1_555
H10 C10 1_555 1_555
H11 C10 1_555 1_555
C11 C10 1_555 1_555
H12 C11 1_555 1_555
H13 C11 1_555 1_555
C12 N3 1_555 1_555
H14 C12 1_555 1_555
C13 N3 1_555 1_555
C14 N4 1_555 1_555
C15 C14 1_555 1_555
H15 C15 1_555 1_555
C16 C15 1_555 1_555
H16 C16 1_555 1_555
C17 C16 1_555 1_555
H17 C17 1_555 1_555
C18 C13 1_555 1_555
H18 C18 1_555 1_555
C19 N5 1_555 1_555
H19 C19 1_555 1_555
C20 N6 1_555 1_555
C21 N5 1_555 1_555
C22 C21 1_555 1_555
H20 C22 1_555 1_555
C23 C22 1_555 1_555
H21 C23 1_555 1_555
C24 C23 1_555 1_555
H22 C24 1_555 1_555
C25 C20 1_555 1_555
H23 C25 1_555 1_555
C26 N6 1_555 1_555
H24 C26 1_555 1_555
H25 C26 1_555 1_555
C27 C26 1_555 1_555
H26 C27 1_555 1_555
H27 C27 1_555 1_555
C28 N7 1_555 1_555
C29 C28 1_555 1_555
H28 C29 1_555 1_555
C30 C29 1_555 1_555
H29 C30 1_555 1_555
C31 C30 1_555 1_555
H30 C31 1_555 1_555
C32 N7 1_555 1_555
C33 O4 1_555 1_555
C34 C28 1_555 1_555
O5 H31 1_555 1_555
H32 O5 1_555 1_555
O6 H33 1_555 1_555
H34 O6 1_555 1_555
N5B C19B 1_555 1_555
N6B C19B 1_555 1_555
C19B H19B 1_555 1_555
C20B N6B 1_555 1_555
C21B N5B 1_555 1_555
C22B C21B 1_555 1_555
H20B C22B 1_555 1_555
C23B C22B 1_555 1_555
H21B C23B 1_555 1_555
C24B C23B 1_555 1_555
H22B C24B 1_555 1_555
C25B C20B 1_555 1_555
H23B C25B 1_555 1_555
C26B N6B 1_555 1_555
H24B C26B 1_555 1_555
H25B C26B 1_555 1_555
C27B C27 1_555 1_555
H26B C27B 1_555 1_555
H27B C27B 1_555 1_555
Co1B N5B 1_555 1_555
O1B Co1B 1_555 1_555
N1B Co1B 1_555 1_555
C1B N1B 1_555 1_555
H1B C1B 1_555 1_555
N2B C1B 1_555 1_555
C2B N1B 1_555 1_555
O2B C34B 1_555 1_555
N3B C11B 1_555 1_555
C3B N2B 1_555 1_555
O3B C33B 1_555 1_555
O4B Co1B 1_555 1_555
N4B C12B 1_555 1_555
C4B C3B 1_555 1_555
H2B C4B 1_555 1_555
C5B C4B 1_555 1_555
H3B C5B 1_555 1_555
C6B C5B 1_555 1_555
H4B C6B 1_555 1_555
N7B Co1B 1_555 1_555
C7B C2B 1_555 1_555
H5B C7B 1_555 1_555
C8B N2B 1_555 1_555
H6B C8B 1_555 1_555
H7B C8B 1_555 1_555
C9B C8B 1_555 1_555
H8B C9B 1_555 1_555
H9B C9B 1_555 1_555
C10B C9B 1_555 1_555
H10B C10B 1_555 1_555
H11B C10B 1_555 1_555
C11B C10B 1_555 1_555
H12B C11B 1_555 1_555
H13B C11B 1_555 1_555
C12B N3B 1_555 1_555
H14B C12B 1_555 1_555
C13B N3B 1_555 1_555
C14B N4B 1_555 1_555
C15B C14B 1_555 1_555
H15B C15B 1_555 1_555
C16B C15B 1_555 1_555
H16B C16B 1_555 1_555
C17B C16B 1_555 1_555
H17B C17B 1_555 1_555
C18B C13B 1_555 1_555
H18B C18B 1_555 1_555
C28B N7B 1_555 1_555
C29B C28B 1_555 1_555
H28B C29B 1_555 1_555
C30B C29B 1_555 1_555
H29B C30B 1_555 1_555
C31B C30B 1_555 1_555
H30B C31B 1_555 1_555
C32B N7B 1_555 1_555
C33B O4B 1_555 1_555
C34B O1B 1_555 1_555
Co1A N4 1_555 1_555
Co1C N4B 1_555 1_555
N4A Co1 1_555 1_555
N4C Co1B 1_555 1_555
C2 C3 1_555 1_555
C6 C7 1_555 1_555
C13 C14 1_555 1_555
C17 C18 1_555 1_555
C20 C21 1_555 1_555
C24 C25 1_555 1_555
C31 C32 1_555 1_555
C32 C33 1_555 1_555
C20B C21B 1_555 1_555
C24B C25B 1_555 1_555
C26B C27B 1_555 1_555
C2B C3B 1_555 1_555
C6B C7B 1_555 1_555
C13B C14B 1_555 1_555
C17B C18B 1_555 1_555
C28B C34B 1_555 1_555
C31B C32B 1_555 1_555
C32B C33B 1_555 1_555

#END
