
#######################################################################
#
#                 Cambridge Crystallographic Data Centre
#                                CCDC 
#
#######################################################################
#
# If this CIF has been generated from an entry in the Cambridge 
# Structural Database, then it will include bibliographic, chemical, 
# crystal, experimental, refinement or atomic coordinate data resulting 
# from the CCDC's data processing and validation procedures.
#
#######################################################################

data_FIGYEB
_symmetry_cell_setting           triclinic
_symmetry_space_group_name_H-M   'P -1'
_symmetry_Int_Tables_number      2
_space_group_name_Hall           '-P 1'
loop_
_symmetry_equiv_pos_site_id
_symmetry_equiv_pos_as_xyz
1 x,y,z
2 -x,-y,-z
_cell_length_a                   6.99920(10)
_cell_length_b                   17.1837(3)
_cell_length_c                   19.8953(3)
_cell_angle_alpha                66.2160(10)
_cell_angle_beta                 84.592(2)
_cell_angle_gamma                81.0060(10)
_cell_volume                     2161.42
loop_
_atom_site_label
_atom_site_type_symbol
_atom_site_fract_x
_atom_site_fract_y
_atom_site_fract_z
Gd1 Gd 0.75929(4) 0.102860(16) 0.298913(13)
Gd2 Gd 0.18807(4) 0.446092(15) 0.111263(13)
Gd3 Gd 0.41623(4) 0.213866(16) 0.091409(13)
Gd4 Gd 0.40548(4) 0.271014(16) -0.397399(13)
Cu1 Cu 0.75210(10) 0.15590(4) 0.50813(3)
Cu2 Cu 0.15745(9) 0.54556(4) 0.29178(3)
Cu3 Cu 0.55263(9) 0.12591(4) -0.09524(3)
C1 C 0.8452(7) -0.0032(3) 0.6181(3)
C2 C 0.7915(7) -0.0198(3) 0.5553(3)
C3 C 0.7642(7) -0.0890(3) 0.5407(3)
H1 H 0.7765 -0.1478 0.5733
C4 C 0.7141(7) -0.0529(3) 0.4670(3)
C5 C 0.6499(8) -0.0865(3) 0.4170(3)
C6 C 0.7630(8) 0.3306(3) 0.4614(3)
C7 C 0.7942(7) 0.3102(3) 0.3956(3)
C8 C 0.8344(8) 0.3554(3) 0.3212(3)
H2 H 0.8518 0.4141 0.2962
C9 C 0.8427(8) 0.2935(3) 0.2922(3)
C10 C 0.8919(7) 0.2963(3) 0.2176(3)
C11 C 0.2923(8) 0.4087(3) 0.4170(3)
C12 C 0.2975(7) 0.3747(3) 0.3593(3)
C13 C 0.3580(7) 0.2958(3) 0.3563(3)
H3 H 0.4068 0.2437 0.3947
C14 C 0.3303(7) 0.3109(3) 0.2831(3)
C15 C 0.3752(7) 0.2528(3) 0.2449(3)
C16 C 0.1010(8) 0.7231(3) 0.2223(3)
C17 C 0.1392(7) 0.6906(3) 0.1628(3)
C18 C 0.1672(7) 0.7248(3) 0.0875(3)
H4 H 0.1610 0.7836 0.0553
C19 C 0.2066(7) 0.6539(3) 0.0697(3)
C20 C 0.2735(7) 0.6431(3) 0.0015(3)
C21 C 0.7667(7) 0.0595(3) 0.1747(3)
C22 C 0.7398(7) 0.0400(3) 0.1110(3)
C23 C 0.8188(8) -0.0271(3) 0.0908(3)
H5 H 0.8998 -0.0780 0.1181
C24 C 0.7495(7) -0.0010(3) 0.0205(3)
C25 C 0.7752(8) -0.0336(3) -0.0388(3)
C26 C 0.2142(7) 0.4010(3) -0.0375(3)
C27 C 0.2857(7) 0.3483(3) -0.0795(3)
C28 C 0.2812(7) 0.3675(3) -0.1549(3)
H6 H 0.2330 0.4200 -0.1929
C29 C 0.3639(7) 0.2918(3) -0.1608(3)
C30 C 0.4102(7) 0.2596(3) -0.2203(3)
N1 N 0.7611(6) 0.0524(3) 0.4933(2)
N2 N 0.7175(6) 0.0331(3) 0.4390(2)
N3 N 0.7778(6) 0.2288(3) 0.4075(2)
N4 N 0.8088(6) 0.2167(3) 0.3447(2)
N5 N 0.2384(6) 0.4327(3) 0.2925(2)
N6 N 0.2583(6) 0.3943(3) 0.2454(2)
N7 N 0.1585(6) 0.6042(3) 0.1877(2)
N8 N 0.1987(6) 0.5800(3) 0.1315(2)
N9 N 0.6274(6) 0.1016(3) 0.0586(2)
N10 N 0.6371(6) 0.0756(3) 0.0032(2)
N11 N 0.3694(6) 0.2655(3) -0.0434(2)
N12 N 0.4126(6) 0.2319(3) -0.0934(2)
O1 O 0.8261(5) 0.0750(2) 0.60874(19)
O2 O 0.9114(5) -0.0645(2) 0.67530(18)
O3 O 0.6387(5) -0.0355(2) 0.35000(18)
O4 O 0.6005(5) -0.1620(2) 0.44253(19)
O5 O 0.7192(5) 0.2647(2) 0.52210(19)
O6 O 0.7788(6) 0.4011(2) 0.4605(2)
O7 O 0.8828(5) 0.2283(2) 0.20821(18)
O8 O 0.9368(5) 0.3651(2) 0.16738(18)
O9 O 0.2374(6) 0.4890(2) 0.39695(19)
O10 O 0.3410(5) 0.3590(2) 0.48011(19)
O11 O 0.3336(5) 0.2815(2) 0.17779(18)
O12 O 0.4524(5) 0.1775(2) 0.28144(18)
O13 O 0.1248(5) 0.6638(2) 0.28796(19)
O14 O 0.0496(6) 0.8002(2) 0.20873(19)
O15 O 0.2742(5) 0.5684(2) 0.00209(18)
O16 O 0.3339(5) 0.7043(2) -0.05188(18)
O17 O 0.6663(5) 0.1286(2) 0.17671(18)
O18 O 0.8798(5) 0.0148(2) 0.22507(19)
O19 O 0.6994(5) 0.0205(2) -0.10068(19)
O20 O 0.8599(6) -0.1053(2) -0.02861(19)
O21 O 0.2691(5) 0.3728(2) 0.02946(18)
O22 O 0.1055(5) 0.4698(2) -0.06678(19)
O23 O 0.4949(5) 0.1819(2) -0.19910(18)
O24 O 0.3693(5) 0.3043(2) -0.28643(18)
O25 O -0.1564(5) 0.5337(2) 0.32472(18)
H7 H -0.1560 0.4963 0.3683
H8 H -0.2027 0.5844 0.3173
O26 O 0.5280(5) 0.4419(2) 0.1149(2)
H9 H 0.5574 0.4926 0.0947
H10 H 0.5856 0.4122 0.0918
O27 O 0.3074(5) 0.0778(2) 0.18034(19)
H11 H 0.2364 0.0702 0.2148
H12 H 0.2686 0.0474 0.1566
O28 O 0.0752(5) 0.2278(2) 0.08178(18)
H13 H 0.0184 0.2250 0.1222
H14 H 0.0548 0.1863 0.0718
O29 O 0.6562(6) 0.1781(2) -0.3236(2)
H15 H 0.6406 0.1652 -0.2784
H16 H 0.7346 0.1415 -0.3340
O30 O 0.2067(6) 0.1718(2) -0.3110(2)
H17 H 0.2146 0.1202 -0.3056
H18 H 0.1422 0.1868 -0.2803
O31 O 0.0844(6) 0.3411(3) -0.4060(2)
H19 H 0.0298 0.3784 -0.4434
H20 H 0.0093 0.3380 -0.3697
O32 O 0.5419(6) 0.3985(2) -0.4211(2)
H21 H 0.6095 0.4131 -0.4608
H22 H 0.5978 0.4241 -0.4014
Gd1A Gd 1.24071(4) -0.102860(16) 0.701087(13)
Gd2_2 Gd 1.18807(4) 0.446092(15) 0.111263(13)
Gd2A Gd -0.18807(4) 0.553908(15) -0.111263(13)
Gd3A Gd 0.58377(4) 0.786134(16) -0.091409(13)
Gd4_2 Gd 0.40548(4) 0.271014(16) 0.602601(13)
Gd4A Gd 0.59452(4) -0.271014(16) 0.397399(13)
Cu1A Cu 0.24790(10) -0.15590(4) 0.49187(3)
O2A O 1.0886(5) 0.0645(2) 0.32470(18)
O4A O 0.3995(5) 0.1620(2) -0.44253(19)
O4A_2 O 0.3995(5) 0.1620(2) 0.55747(19)
O5_2 O 0.7192(5) 0.2647(2) -0.47790(19)
O8_2 O -0.0632(5) 0.3651(2) 0.16738(18)
O10_2 O 0.3410(5) 0.3590(2) -0.51989(19)
O16A O 0.6661(5) 0.2957(2) 0.05188(18)
O22A O -0.1055(5) 0.5302(2) 0.06678(19)
loop_
_geom_bond_atom_site_label_1
_geom_bond_atom_site_label_2
_geom_bond_site_symmetry_1
_geom_bond_site_symmetry_2
Gd1 N2 1_555 1_555
Gd2 N6 1_555 1_555
Gd3 N9 1_555 1_555
Gd4 O24 1_555 1_555
Cu1 N1 1_555 1_555
Cu2 N5 1_555 1_555
Cu3 N10 1_555 1_555
C1 C2 1_555 1_555
C2 C3 1_555 1_555
C3 H1 1_555 1_555
C4 C3 1_555 1_555
C5 C4 1_555 1_555
C6 C7 1_555 1_555
C7 C8 1_555 1_555
C8 H2 1_555 1_555
C9 C8 1_555 1_555
C10 C9 1_555 1_555
C11 C12 1_555 1_555
C12 C13 1_555 1_555
C13 H3 1_555 1_555
C14 C13 1_555 1_555
C15 C14 1_555 1_555
C16 C17 1_555 1_555
C17 C18 1_555 1_555
C18 H4 1_555 1_555
C19 C18 1_555 1_555
C20 C19 1_555 1_555
C21 C22 1_555 1_555
C22 C23 1_555 1_555
C23 H5 1_555 1_555
C24 C23 1_555 1_555
C25 C24 1_555 1_555
C26 C27 1_555 1_555
C27 C28 1_555 1_555
C28 H6 1_555 1_555
C29 C28 1_555 1_555
C30 C29 1_555 1_555
N1 C2 1_555 1_555
N2 C4 1_555 1_555
N3 Cu1 1_555 1_555
N4 Gd1 1_555 1_555
N5 C12 1_555 1_555
N6 C14 1_555 1_555
N7 Cu2 1_555 1_555
N8 Gd2 1_555 1_555
N9 C22 1_555 1_555
N10 C24 1_555 1_555
N11 Gd3 1_555 1_555
N12 Cu3 1_555 1_555
O1 Cu1 1_555 1_555
O2 C1 1_555 1_555
O3 Gd1 1_555 1_555
O4 C5 1_555 1_555
O5 Cu1 1_555 1_555
O6 C6 1_555 1_555
O7 Gd1 1_555 1_555
O8 C10 1_555 1_555
O9 Cu2 1_555 1_555
O10 C11 1_555 1_555
O11 Gd2 1_555 1_555
O12 Gd1 1_555 1_555
O13 Cu2 1_555 1_555
O14 C16 1_555 1_555
O15 Gd2 1_555 1_555
O16 C20 1_555 1_555
O17 Gd1 1_555 1_555
O18 Gd1 1_555 1_555
O19 Cu3 1_555 1_555
O20 C25 1_555 1_555
O21 Gd2 1_555 1_555
O22 C26 1_555 1_555
O23 Cu3 1_555 1_555
O24 C30 1_555 1_555
O25 Cu2 1_555 1_555
H7 O25 1_555 1_555
H8 O25 1_555 1_555
O26 Gd2 1_555 1_555
H9 O26 1_555 1_555
H10 O26 1_555 1_555
O27 Gd3 1_555 1_555
H11 O27 1_555 1_555
H12 O27 1_555 1_555
O28 Gd3 1_555 1_555
H13 O28 1_555 1_555
H14 O28 1_555 1_555
O29 Gd4 1_555 1_555
H15 O29 1_555 1_555
H16 O29 1_555 1_555
O30 Gd4 1_555 1_555
H17 O30 1_555 1_555
H18 O30 1_555 1_555
O31 Gd4 1_555 1_555
H19 O31 1_555 1_555
H20 O31 1_555 1_555
O32 Gd4 1_555 1_555
H21 O32 1_555 1_555
H22 O32 1_555 1_555
Gd1A O2 1_555 1_555
Gd2_2 O8 1_555 1_555
Gd2A O22 1_555 1_555
Gd3A O16 1_555 1_555
Gd4_2 O5 1_555 1_555
Gd4A O4 1_555 1_555
Cu1A O4 1_555 1_555
O2A Gd1 1_555 1_555
O4A Gd4 1_555 1_555
O4A_2 Cu1 1_555 1_555
O5_2 Gd4 1_555 1_555
O8_2 Gd2 1_555 1_555
O10_2 Gd4 1_555 1_555
O16A Gd3 1_555 1_555
O22A Gd2 1_555 1_555
Gd3 O11 1_555 1_555
Gd3 O17 1_555 1_555
Gd3 O21 1_555 1_555
C1 O1 1_555 1_555
C5 O3 1_555 1_555
C6 O5 1_555 1_555
C7 N3 1_555 1_555
C9 N4 1_555 1_555
C10 O7 1_555 1_555
C11 O9 1_555 1_555
C15 O11 1_555 1_555
C15 O12 1_555 1_555
C16 O13 1_555 1_555
C17 N7 1_555 1_555
C19 N8 1_555 1_555
C20 O15 1_555 1_555
C21 O17 1_555 1_555
C21 O18 1_555 1_555
C25 O19 1_555 1_555
C26 O21 1_555 1_555
C27 N11 1_555 1_555
C29 N12 1_555 1_555
C30 O23 1_555 1_555
N1 N2 1_555 1_555
N3 N4 1_555 1_555
N5 N6 1_555 1_555
N7 N8 1_555 1_555
N9 N10 1_555 1_555
N11 N12 1_555 1_555
O10 Gd4_2 1_555 1_555
Gd4_2 O4A_2 1_555 1_555

#END
