
#######################################################################
#
#                 Cambridge Crystallographic Data Centre
#                                CCDC 
#
#######################################################################
#
# If this CIF has been generated from an entry in the Cambridge 
# Structural Database, then it will include bibliographic, chemical, 
# crystal, experimental, refinement or atomic coordinate data resulting 
# from the CCDC's data processing and validation procedures.
#
#######################################################################

data_FIHCAC
_symmetry_cell_setting           monoclinic
_symmetry_space_group_name_H-M   'P 21/c'
_symmetry_Int_Tables_number      14
_space_group_name_Hall           '-P 2ybc'
loop_
_symmetry_equiv_pos_site_id
_symmetry_equiv_pos_as_xyz
1 x,y,z
2 -x,1/2+y,1/2-z
3 -x,-y,-z
4 x,1/2-y,1/2+z
_cell_length_a                   14.8430(4)
_cell_length_b                   9.5300(3)
_cell_length_c                   12.6580(4)
_cell_angle_alpha                90
_cell_angle_beta                 103.631(3)
_cell_angle_gamma                90
_cell_volume                     1740.09
loop_
_atom_site_label
_atom_site_type_symbol
_atom_site_fract_x
_atom_site_fract_y
_atom_site_fract_z
Cu1 Cu 0.817576(18) -0.00559(2) 0.48507(2)
C1 C 0.34754(16) -0.0921(2) 0.5612(2)
C2 C 0.43628(15) -0.1678(2) 0.56233(19)
C3 C 0.48867(18) -0.2226(3) 0.6585(2)
H1 H 0.4701 -0.2079 0.7228
C4 C 0.56816(18) -0.2988(3) 0.6605(2)
H2 H 0.6015 -0.3368 0.7257
C5 C 0.59866(15) -0.3193(2) 0.56688(18)
C6 C 0.54732(19) -0.2627(4) 0.4711(2)
H3 H 0.5672 -0.2742 0.4072
C7 C 0.46688(19) -0.1890(3) 0.4691(2)
H4 H 0.4327 -0.1531 0.4036
C8 C 0.68611(16) -0.4036(2) 0.5734(2)
H5 H 0.7351 -0.3653 0.6308
H6 H 0.6753 -0.4995 0.5929
C9 C 0.69290(18) -0.5126(2) 0.3997(2)
H7 H 0.6577 -0.5861 0.4169
C10 C 0.7183(2) -0.5149(3) 0.3044(3)
H8 H 0.6993 -0.5874 0.2549
C11 C 0.77371(17) -0.4068(3) 0.2814(2)
H9 H 0.7920 -0.4080 0.2160
C12 C 0.80207(14) -0.2984(2) 0.35292(17)
C13 C 0.76866(14) -0.2917(2) 0.44981(18)
C14 C 0.87056(14) -0.1925(2) 0.32844(17)
C15 C 0.87744(17) 0.2722(2) 0.56378(19)
H10 H 0.8488 0.2464 0.6187
C16 C 0.92637(17) 0.3958(2) 0.57456(19)
H11 H 0.9297 0.4522 0.6353
C17 C 0.97074(15) 0.4362(2) 0.49450(17)
C18 C 0.95730(18) 0.3514(2) 0.4028(2)
H12 H 0.9826 0.3766 0.3450
C19 C 0.90631(17) 0.2298(2) 0.39794(19)
H13 H 0.8976 0.1750 0.3356
N1 N 0.71772(12) -0.40475(18) 0.47143(16)
N2 N 0.86906(12) 0.18706(18) 0.47774(15)
O1 O 0.33056(13) -0.0520(3) 0.64797(15)
O2 O 0.29052(11) -0.07556(17) 0.46932(13)
O3 O 0.90689(13) -0.21695(19) 0.25264(14)
O4 O 0.89016(11) -0.08284(15) 0.38761(13)
O5 O 0.78073(11) -0.19347(15) 0.51776(12)
O6 O 0.93026(13) -0.0207(2) 0.64954(16)
H14 H 0.933(2) -0.092(4) 0.673(3)
H15 H 0.975(3) 0.002(3) 0.646(3)
C15B C 1.12256(17) 0.7278(2) 0.43622(19)
H10B H 1.1512 0.7536 0.3813
C16B C 1.07363(17) 0.6042(2) 0.42544(19)
H11B H 1.0703 0.5478 0.3647
C17B C 1.02926(15) 0.5638(2) 0.50550(17)
C18B C 1.04270(18) 0.6486(2) 0.5972(2)
H12B H 1.0174 0.6234 0.6550
C19B C 1.09369(17) 0.7702(2) 0.60206(19)
H13B H 1.1024 0.8250 0.6644
N2B N 1.13094(12) 0.81294(18) 0.52226(15)
Cu1B Cu 0.182424(18) 0.00559(2) 0.51493(2)
C1B C 0.65246(16) 0.0921(2) 0.4388(2)
C2B C 0.56372(15) 0.1678(2) 0.43767(19)
C3B C 0.51133(18) 0.2226(3) 0.3415(2)
H1B H 0.5299 0.2079 0.2772
C4B C 0.43184(18) 0.2988(3) 0.3395(2)
H2B H 0.3985 0.3368 0.2743
C5B C 0.40134(15) 0.3193(2) 0.43312(18)
C6B C 0.45268(19) 0.2627(4) 0.5289(2)
H3B H 0.4328 0.2742 0.5928
C7B C 0.53312(19) 0.1890(3) 0.5309(2)
H4B H 0.5673 0.1531 0.5964
C8B C 0.31389(16) 0.4036(2) 0.4266(2)
H5B H 0.2649 0.3653 0.3692
H6B H 0.3247 0.4995 0.4071
C9B C 0.30710(18) 0.5126(2) 0.6003(2)
H7B H 0.3423 0.5861 0.5831
C10B C 0.2817(2) 0.5149(3) 0.6956(3)
H8B H 0.3007 0.5874 0.7451
C11B C 0.22629(17) 0.4068(3) 0.7186(2)
H9B H 0.2080 0.4080 0.7840
C12B C 0.19793(14) 0.2984(2) 0.64708(17)
C13B C 0.23134(14) 0.2917(2) 0.55019(18)
C14B C 0.12944(14) 0.1925(2) 0.67156(17)
N1B N 0.28228(12) 0.40475(18) 0.52857(16)
O1B O 0.66944(13) 0.0520(3) 0.35203(15)
O2B O 0.70948(11) 0.07556(17) 0.53068(13)
O3B O 0.09311(13) 0.21695(19) 0.74736(14)
O4B O 0.10984(11) 0.08284(15) 0.61239(13)
O5B O 0.21927(11) 0.19347(15) 0.48224(12)
O6B O 0.06974(13) 0.0207(2) 0.35046(16)
H14B H 0.067(2) 0.092(4) 0.327(3)
H15B H 0.025(3) -0.002(3) 0.354(3)
Cu1B_2 Cu 1.182424(18) 1.00559(2) 0.51493(2)
N2B_2 N 0.13094(12) -0.18706(18) 0.52226(15)
loop_
_geom_bond_atom_site_label_1
_geom_bond_atom_site_label_2
_geom_bond_site_symmetry_1
_geom_bond_site_symmetry_2
Cu1 N2 1_555 1_555
C1 C2 1_555 1_555
C2 C3 1_555 1_555
C3 H1 1_555 1_555
C4 C3 1_555 1_555
H2 C4 1_555 1_555
C5 C4 1_555 1_555
C6 C5 1_555 1_555
H3 C6 1_555 1_555
C7 C2 1_555 1_555
H4 C7 1_555 1_555
C8 C5 1_555 1_555
H5 C8 1_555 1_555
H6 C8 1_555 1_555
C9 H7 1_555 1_555
C10 C9 1_555 1_555
H8 C10 1_555 1_555
C11 C10 1_555 1_555
H9 C11 1_555 1_555
C12 C11 1_555 1_555
C13 C12 1_555 1_555
C14 C12 1_555 1_555
C15 H10 1_555 1_555
C16 C15 1_555 1_555
H11 C16 1_555 1_555
C17 C16 1_555 1_555
C18 C17 1_555 1_555
H12 C18 1_555 1_555
C19 C18 1_555 1_555
H13 C19 1_555 1_555
N1 C8 1_555 1_555
N2 C15 1_555 1_555
O1 C1 1_555 1_555
O2 C1 1_555 1_555
O3 C14 1_555 1_555
O4 Cu1 1_555 1_555
O5 Cu1 1_555 1_555
O6 Cu1 1_555 1_555
H14 O6 1_555 1_555
H15 O6 1_555 1_555
C15B H10B 1_555 1_555
C16B C15B 1_555 1_555
H11B C16B 1_555 1_555
C17B C17 1_555 1_555
C18B C17B 1_555 1_555
H12B C18B 1_555 1_555
C19B C18B 1_555 1_555
H13B C19B 1_555 1_555
N2B C15B 1_555 1_555
Cu1B O1 1_555 1_555
C1B C2B 1_555 1_555
C2B C3B 1_555 1_555
C3B H1B 1_555 1_555
C4B C3B 1_555 1_555
H2B C4B 1_555 1_555
C5B C4B 1_555 1_555
C6B C5B 1_555 1_555
H3B C6B 1_555 1_555
C7B C2B 1_555 1_555
H4B C7B 1_555 1_555
C8B C5B 1_555 1_555
H5B C8B 1_555 1_555
H6B C8B 1_555 1_555
C9B H7B 1_555 1_555
C10B C9B 1_555 1_555
H8B C10B 1_555 1_555
C11B C10B 1_555 1_555
H9B C11B 1_555 1_555
C12B C11B 1_555 1_555
C13B C12B 1_555 1_555
C14B C12B 1_555 1_555
N1B C8B 1_555 1_555
O1B Cu1 1_555 1_555
O2B Cu1 1_555 1_555
O3B C14B 1_555 1_555
O4B Cu1B 1_555 1_555
O5B Cu1B 1_555 1_555
O6B Cu1B 1_555 1_555
H14B O6B 1_555 1_555
H15B O6B 1_555 1_555
Cu1B_2 N2B 1_555 1_555
N2B_2 Cu1B 1_555 1_555
C6 C7 1_555 1_555
C9 N1 1_555 1_555
C13 N1 1_555 1_555
C13 O5 1_555 1_555
C14 O4 1_555 1_555
C19 N2 1_555 1_555
O2 Cu1B 1_555 1_555
C16B C17B 1_555 1_555
C19B N2B 1_555 1_555
C1B O1B 1_555 1_555
C1B O2B 1_555 1_555
C6B C7B 1_555 1_555
C9B N1B 1_555 1_555
C13B N1B 1_555 1_555
C13B O5B 1_555 1_555
C14B O4B 1_555 1_555

#END
