
#######################################################################
#
#                 Cambridge Crystallographic Data Centre
#                                CCDC 
#
#######################################################################
#
# If this CIF has been generated from an entry in the Cambridge 
# Structural Database, then it will include bibliographic, chemical, 
# crystal, experimental, refinement or atomic coordinate data resulting 
# from the CCDC's data processing and validation procedures.
#
#######################################################################

data_FIHGOU
_symmetry_cell_setting           orthorhombic
_symmetry_space_group_name_H-M   'P b c n'
_symmetry_Int_Tables_number      60
_space_group_name_Hall           '-P 2n 2ab'
loop_
_symmetry_equiv_pos_site_id
_symmetry_equiv_pos_as_xyz
1 x,y,z
2 1/2-x,1/2-y,1/2+z
3 -x,y,1/2-z
4 1/2+x,1/2-y,-z
5 -x,-y,-z
6 1/2+x,1/2+y,1/2-z
7 x,-y,1/2+z
8 1/2-x,1/2+y,z
_cell_length_a                   18.680(2)
_cell_length_b                   13.4147(15)
_cell_length_c                   6.9047(8)
_cell_angle_alpha                90
_cell_angle_beta                 90
_cell_angle_gamma                90
_cell_volume                     1730.23
loop_
_atom_site_label
_atom_site_type_symbol
_atom_site_fract_x
_atom_site_fract_y
_atom_site_fract_z
K1 K 0.585855(13) 0.433446(19) 0.40417(4)
O1 O 0.61273(6) 0.37342(7) 0.76378(14)
O2 O 0.55056(5) 0.37711(7) 1.03955(14)
N1 N 0.67462(5) 0.15671(8) 0.66442(16)
N2 N 0.77487(6) 0.11344(9) 0.8144(2)
C1 C 0.66434(7) 0.17805(9) 0.85766(19)
C2 C 0.74163(7) 0.11855(10) 0.6469(2)
H1 H 0.7603(10) 0.0989(14) 0.518(3)
C3 C 0.72647(7) 0.15060(10) 0.9467(2)
H2 H 0.7385(8) 0.1567(12) 1.081(2)
C4 C 0.62423(7) 0.17066(10) 0.5061(2)
H3 H 0.5906(8) 0.2187(13) 0.548(2)
H4 H 0.6520(8) 0.1999(13) 0.395(2)
C5 C 0.58730(10) 0.07493(12) 0.4510(3)
H5 H 0.5611(12) 0.0456(16) 0.556(3)
H6 H 0.6173(11) 0.0269(16) 0.419(3)
H7 H 0.5558(11) 0.0848(14) 0.341(3)
C6 C 0.59731(7) 0.22087(10) 0.9391(2)
H8 H 0.5566(9) 0.1874(13) 0.876(3)
H9 H 0.5940(9) 0.2090(14) 1.075(3)
C7 C 0.58646(6) 0.33350(9) 0.91056(18)
K1_2 K 0.585855(13) 0.433446(19) 1.40417(4)
K1A K 0.914145(13) 0.066554(19) 0.90417(4)
K1B K 0.414145(13) 0.433446(19) 1.09583(4)
K1F K 0.585855(13) 0.566554(19) 0.90417(4)
O1F O 0.61273(6) 0.62658(7) 0.26378(14)
O2_2 O 0.55056(5) 0.37711(7) 0.03955(14)
O2B O 0.44944(5) 0.37711(7) 0.46045(14)
O2F O 0.55056(5) 0.62289(7) 0.53955(14)
N2A N 0.72513(6) 0.38656(9) 0.3144(2)
loop_
_geom_bond_atom_site_label_1
_geom_bond_atom_site_label_2
_geom_bond_site_symmetry_1
_geom_bond_site_symmetry_2
K1 O1 1_555 1_555
O1 C7 1_555 1_555
O2 C7 1_555 1_555
N1 C1 1_555 1_555
N2 C2 1_555 1_555
C1 C3 1_555 1_555
C2 N1 1_555 1_555
H1 C2 1_555 1_555
C3 N2 1_555 1_555
H2 C3 1_555 1_555
C4 N1 1_555 1_555
H3 C4 1_555 1_555
H4 C4 1_555 1_555
C5 C4 1_555 1_555
H5 C5 1_555 1_555
H6 C5 1_555 1_555
H7 C5 1_555 1_555
C6 C1 1_555 1_555
H8 C6 1_555 1_555
H9 C6 1_555 1_555
C7 C6 1_555 1_555
K1_2 O2 1_555 1_555
K1A N2 1_555 1_555
K1B O2 1_555 1_555
K1F O1 1_555 1_555
O1F K1 1_555 1_555
O2_2 K1 1_555 1_555
O2B K1 1_555 1_555
O2F K1 1_555 1_555
N2A K1 1_555 1_555
O2 K1F 1_555 1_555
K1F O2F 1_555 1_555

#END
