
#######################################################################
#
#                 Cambridge Crystallographic Data Centre
#                                CCDC 
#
#######################################################################
#
# If this CIF has been generated from an entry in the Cambridge 
# Structural Database, then it will include bibliographic, chemical, 
# crystal, experimental, refinement or atomic coordinate data resulting 
# from the CCDC's data processing and validation procedures.
#
#######################################################################

data_FIHKIS
_symmetry_cell_setting           monoclinic
_symmetry_space_group_name_H-M   'P 21'
_symmetry_Int_Tables_number      4
_space_group_name_Hall           'P 2yb'
loop_
_symmetry_equiv_pos_site_id
_symmetry_equiv_pos_as_xyz
1 x,y,z
2 -x,1/2+y,-z
_cell_length_a                   12.7023(17)
_cell_length_b                   9.2602(12)
_cell_length_c                   13.3792(17)
_cell_angle_alpha                90
_cell_angle_beta                 117.315(2)
_cell_angle_gamma                90
_cell_volume                     1398.26
loop_
_atom_site_label
_atom_site_type_symbol
_atom_site_fract_x
_atom_site_fract_y
_atom_site_fract_z
Ag1 Ag 0.34428(4) 0.23792(4) 0.40507(4)
N1 N 0.2501(5) 0.1871(7) 0.2105(4)
N2 N 0.2132(5) 0.0068(7) 0.0859(4)
O1 O 0.5471(4) 0.1903(5) 0.4623(4)
C1 C 0.2012(5) 0.0590(8) 0.1753(6)
H1 H 0.1620 0.0089 0.2087
C2 C 0.2738(5) 0.1073(8) 0.0617(5)
C3 C 0.2961(5) 0.2219(10) 0.1378(5)
C4 C 0.3578(5) 0.3446(8) 0.1325(5)
C5 C 0.3722(5) 0.2224(9) -0.0188(5)
H2 H 0.4008 0.2269 -0.0715
N3 N 0.3938(5) 0.3348(7) 0.0502(5)
N4 N 0.3860(5) 0.4580(7) 0.1965(5)
H3 H 0.4268 0.5260 0.1872
H4 H 0.3639 0.4651 0.2482
C6 C 0.1670(6) -0.1327(8) 0.0305(6)
H5 H 0.1487 -0.1927 0.0800
H6 H 0.2282 -0.1812 0.0188
N5 N 0.3127(5) 0.1041(7) -0.0180(5)
C7 C 0.8488(6) 0.7615(9) 0.4865(6)
H7 H 0.7887 0.8098 0.4999
H8 H 0.8707 0.8253 0.4416
O2 O 0.4590(4) 0.4471(6) 0.0420(4)
N6 N 0.7542(5) 0.4551(7) 0.2931(4)
N7 N 0.7997(5) 0.6277(6) 0.4241(4)
C8 C 0.7107(5) 0.4197(9) 0.3678(5)
C9 C 0.8065(6) 0.5794(9) 0.3298(6)
H9 H 0.8445 0.6301 0.2957
N8 N 0.6121(5) 0.3010(7) 0.4552(5)
C10 C 0.6400(5) 0.4155(10) 0.5292(5)
H10 H 0.6124 0.4125 0.5826
C11 C 0.7369(6) 0.5215(8) 0.4488(5)
N9 N 0.6104(5) 0.1854(7) 0.3021(5)
H11 H 0.5719 0.1167 0.3140
H12 H 0.6276 0.1795 0.2471
C12 C 0.6433(6) 0.3005(9) 0.3688(6)
N10 N 0.7028(5) 0.5283(6) 0.5293(4)
C13 C 0.9566(6) 0.7333(11) 0.5982(6)
H13 H 0.9324 0.6766 0.6451
H14 H 0.9864 0.8249 0.6357
O3 O 0.3271(4) 0.4893(6) 0.3858(4)
Ag2 Ag 0.33714(4) -0.10051(5) -0.10215(4)
C14 C -0.0459(6) -0.0532(10) -0.0694(7)
H15 H -0.1136 -0.0462 -0.1421
H16 H -0.0244 0.0413 -0.0369
H17 H -0.0648 -0.1135 -0.0215
C15 C 1.0566(6) 0.6547(10) 0.5889(7)
H18 H 1.1214 0.6411 0.6627
H19 H 1.0828 0.7109 0.5442
H20 H 1.0289 0.5624 0.5540
C16 C 0.0568(6) -0.1184(10) -0.0817(6)
H21 H 0.0746 -0.0581 -0.1313
H22 H 0.0341 -0.2130 -0.1161
O4 O 0.3274(5) -0.3590(8) -0.1151(5)
Ag1A Ag 0.65572(4) 0.73792(4) 0.59493(4)
O2A O 0.5410(4) -0.0529(6) -0.0420(4)
N6A N 0.2458(5) -0.0449(7) -0.2931(4)
N10A N 0.2972(5) 0.0283(6) 0.4707(4)
Ag2A Ag 0.66286(4) 0.39949(5) 0.10215(4)
Cl1 Cl 0.51529(15) 0.8183(2) 0.25449(15)
O5 O 0.4458(5) 0.7577(6) 0.1446(4)
O6 O 0.5374(5) 0.7106(6) 0.3400(4)
O7 O 0.4563(4) 0.9412(5) 0.2705(4)
O8 O 0.6287(5) 0.8644(6) 0.2618(5)
Cl2 Cl 0.06368(14) 0.7270(2) 0.28529(14)
O9 O 0.1635(5) 0.7602(7) 0.2677(5)
O10 O 0.0497(6) 0.8383(7) 0.3540(6)
O11 O -0.0415(6) 0.7207(8) 0.1793(6)
O12 O 0.0851(6) 0.5856(7) 0.3400(5)
O13 O 1.1094(6) 0.5227(8) 0.8411(6)
loop_
_geom_bond_atom_site_label_1
_geom_bond_atom_site_label_2
_geom_bond_site_symmetry_1
_geom_bond_site_symmetry_2
Ag1 N1 1_555 1_555
N1 C1 1_555 1_555
N2 C1 1_555 1_555
O1 Ag1 1_555 1_555
C1 H1 1_555 1_555
C2 N2 1_555 1_555
C3 N1 1_555 1_555
C4 C3 1_555 1_555
C5 H2 1_555 1_555
N3 C4 1_555 1_555
N4 C4 1_555 1_555
H3 N4 1_555 1_555
H4 N4 1_555 1_555
C6 N2 1_555 1_555
H5 C6 1_555 1_555
H6 C6 1_555 1_555
N5 C2 1_555 1_555
C7 H7 1_555 1_555
H8 C7 1_555 1_555
O2 N3 1_555 1_555
N6 C8 1_555 1_555
N7 C7 1_555 1_555
C8 C11 1_555 1_555
C9 N6 1_555 1_555
H9 C9 1_555 1_555
N8 O1 1_555 1_555
C10 N8 1_555 1_555
H10 C10 1_555 1_555
C11 N7 1_555 1_555
N9 H11 1_555 1_555
H12 N9 1_555 1_555
C12 C8 1_555 1_555
N10 C10 1_555 1_555
C13 C7 1_555 1_555
H13 C13 1_555 1_555
H14 C13 1_555 1_555
O3 Ag1 1_555 1_555
Ag2 N5 1_555 1_555
C14 H15 1_555 1_555
H16 C14 1_555 1_555
H17 C14 1_555 1_555
C15 C13 1_555 1_555
H18 C15 1_555 1_555
H19 C15 1_555 1_555
H20 C15 1_555 1_555
C16 C6 1_555 1_555
H21 C16 1_555 1_555
H22 C16 1_555 1_555
O4 Ag2 1_555 1_555
Cl1 O5 1_555 1_555
O6 Cl1 1_555 1_555
O7 Cl1 1_555 1_555
O8 Cl1 1_555 1_555
Cl2 O9 1_555 1_555
O10 Cl2 1_555 1_555
O11 Cl2 1_555 1_555
O12 Cl2 1_555 1_555
Ag1A N10 1_555 1_555
O2A Ag2 1_555 1_555
N6A Ag2 1_555 1_555
N10A Ag1 1_555 1_555
Ag2A O2 1_555 1_555
C2 C3 1_555 1_555
C5 N3 1_555 1_555
C5 N5 1_555 1_555
N6 Ag2A 1_555 1_555
N7 C9 1_555 1_555
N8 C12 1_555 1_555
C11 N10 1_555 1_555
N9 C12 1_555 1_555
C14 C16 1_555 1_555

#END
