
#######################################################################
#
#                 Cambridge Crystallographic Data Centre
#                                CCDC 
#
#######################################################################
#
# If this CIF has been generated from an entry in the Cambridge 
# Structural Database, then it will include bibliographic, chemical, 
# crystal, experimental, refinement or atomic coordinate data resulting 
# from the CCDC's data processing and validation procedures.
#
#######################################################################

data_FIHLEP01
_symmetry_cell_setting           orthorhombic
_symmetry_space_group_name_H-M   'P 21 21 21'
_symmetry_Int_Tables_number      19
_space_group_name_Hall           'P 2ac 2ab'
loop_
_symmetry_equiv_pos_site_id
_symmetry_equiv_pos_as_xyz
1 x,y,z
2 1/2-x,-y,1/2+z
3 1/2+x,1/2-y,-z
4 -x,1/2+y,1/2-z
_cell_length_a                   7.9621(2)
_cell_length_b                   12.7260(4)
_cell_length_c                   18.3006(6)
_cell_angle_alpha                90
_cell_angle_beta                 90
_cell_angle_gamma                90
_cell_volume                     1854.32
loop_
_atom_site_label
_atom_site_type_symbol
_atom_site_fract_x
_atom_site_fract_y
_atom_site_fract_z
Cd1 Cd 0.09904(3) 0.157265(17) 0.112678(13)
N1 N 0.1257(3) 0.5459(2) 0.40439(16)
C1 C 0.2840(4) 0.5826(3) 0.40398(19)
H1 H 0.3024 0.6550 0.3943
C2 C 0.4212(5) 0.5186(3) 0.4172(2)
C3 C 0.5956(5) 0.5645(3) 0.41324(18)
O1 O 0.7186(3) 0.5052(2) 0.42254(16)
O2 O 0.6100(3) 0.66258(19) 0.40080(14)
C4 C 0.3980(5) 0.4121(3) 0.43003(18)
H2 H 0.4907 0.3661 0.4368
C5 C 0.2319(5) 0.3750(3) 0.4325(2)
C6 C 0.1011(5) 0.4432(3) 0.4186(2)
H3 H -0.0104 0.4167 0.4190
O3 O 0.1852(3) 0.2742(2) 0.44942(18)
C7 C 0.3121(5) 0.1992(3) 0.4606(2)
H4 H 0.2647 0.1369 0.4855
H5 H 0.4010 0.2292 0.4921
O4 O 0.3816(3) 0.16915(19) 0.39249(15)
C8 C 0.2778(4) 0.1069(3) 0.3504(2)
C9 C 0.2391(4) 0.1406(3) 0.2797(2)
H6 H 0.2809 0.2065 0.2635
N2 N 0.1452(4) 0.0831(2) 0.23383(18)
C10 C 0.0856(5) -0.0093(3) 0.25787(19)
H7 H 0.0175 -0.0499 0.2260
C11 C 0.1190(4) -0.0483(3) 0.32748(19)
C12 C 0.0494(4) -0.1532(3) 0.3513(2)
O5 O -0.0680(3) -0.1931(2) 0.31497(16)
O6 O 0.1099(4) -0.19549(19) 0.40737(14)
C13 C 0.2178(4) 0.0103(3) 0.3746(2)
H8 H 0.2439 -0.0148 0.4221
O7 O 0.0981(4) 0.1892(2) -0.01284(15)
H9 H 0.0352 0.2348 -0.0391
H10 H 0.1943 0.1925 -0.0390
Cd1C Cd -0.09904(3) -0.342735(17) 0.387322(13)
Cd1C_2 Cd -0.09904(3) 0.657265(17) 0.387322(13)
Cd1C_3 Cd 0.90096(3) 0.657265(17) 0.387322(13)
N1C N -0.1257(3) 0.0459(2) 0.09561(16)
O1C O 0.2814(3) 0.0052(2) 0.07746(16)
O2C O 0.3900(3) 0.16258(19) 0.09920(14)
O5C O 0.0680(3) 0.3069(2) 0.18503(16)
O6C O -0.1099(4) 0.30451(19) 0.09263(14)
C14 C -0.3125(7) -0.0321(5) 0.4029(3)
H11 H -0.2028 -0.0226 0.4263
H12 H -0.3305 -0.1068 0.3927
H13 H -0.4010 -0.0065 0.4356
C15 C -0.3830(9) -0.0257(7) 0.2712(3)
H14 H -0.4290 0.0259 0.2369
H15 H -0.4721 -0.0741 0.2864
H16 H -0.2928 -0.0653 0.2473
N3 N -0.3173(6) 0.0275(4) 0.3340(3)
C16 C -0.2588(12) 0.1337(8) 0.3409(6)
O8 O -0.2065(10) 0.1681(6) 0.4010(5)
C17 C -0.2867(14) 0.1923(9) 0.2737(6)
H17 H -0.3847 0.2381 0.2795
H18 H -0.3067 0.1430 0.2334
H19 H -0.1875 0.2351 0.2628
loop_
_geom_bond_atom_site_label_1
_geom_bond_atom_site_label_2
_geom_bond_site_symmetry_1
_geom_bond_site_symmetry_2
Cd1 N2 1_555 1_555
N1 C1 1_555 1_555
C1 H1 1_555 1_555
C2 C1 1_555 1_555
C3 C2 1_555 1_555
O1 C3 1_555 1_555
O2 C3 1_555 1_555
C4 C2 1_555 1_555
H2 C4 1_555 1_555
C5 C4 1_555 1_555
C6 N1 1_555 1_555
H3 C6 1_555 1_555
O3 C5 1_555 1_555
C7 O3 1_555 1_555
H4 C7 1_555 1_555
H5 C7 1_555 1_555
O4 C7 1_555 1_555
C8 O4 1_555 1_555
C9 C8 1_555 1_555
H6 C9 1_555 1_555
N2 C9 1_555 1_555
C10 N2 1_555 1_555
H7 C10 1_555 1_555
C11 C10 1_555 1_555
C12 C11 1_555 1_555
O5 C12 1_555 1_555
O6 C12 1_555 1_555
C13 C8 1_555 1_555
H8 C13 1_555 1_555
O7 Cd1 1_555 1_555
H9 O7 1_555 1_555
H10 O7 1_555 1_555
C14 H11 1_555 1_555
H12 C14 1_555 1_555
H13 C14 1_555 1_555
C15 H14 1_555 1_555
H15 C15 1_555 1_555
H16 C15 1_555 1_555
N3 C14 1_555 1_555
C16 N3 1_555 1_555
O8 C16 1_555 1_555
C17 C16 1_555 1_555
H17 C17 1_555 1_555
H18 C17 1_555 1_555
H19 C17 1_555 1_555
Cd1C O5 1_555 1_555
Cd1C_2 N1 1_555 1_555
Cd1C_3 O1 1_555 1_555
N1C Cd1 1_555 1_555
O1C Cd1 1_555 1_555
O2C Cd1 1_555 1_555
O5C Cd1 1_555 1_555
O6C Cd1 1_555 1_555
O2 Cd1C_3 1_555 1_555
C5 C6 1_555 1_555
C11 C13 1_555 1_555
O6 Cd1C 1_555 1_555
C15 N3 1_555 1_555

#END
