
#######################################################################
#
#                 Cambridge Crystallographic Data Centre
#                                CCDC 
#
#######################################################################
#
# If this CIF has been generated from an entry in the Cambridge 
# Structural Database, then it will include bibliographic, chemical, 
# crystal, experimental, refinement or atomic coordinate data resulting 
# from the CCDC's data processing and validation procedures.
#
#######################################################################

data_FIHLEP
_symmetry_cell_setting           monoclinic
_symmetry_space_group_name_H-M   'P 21/n'
_symmetry_Int_Tables_number      14
_space_group_name_Hall           '-P 2yn'
loop_
_symmetry_equiv_pos_site_id
_symmetry_equiv_pos_as_xyz
1 x,y,z
2 1/2-x,1/2+y,1/2-z
3 -x,-y,-z
4 1/2+x,1/2-y,1/2+z
_cell_length_a                   8.0452(2)
_cell_length_b                   12.6682(4)
_cell_length_c                   18.8489(6)
_cell_angle_alpha                90
_cell_angle_beta                 94.3290(10)
_cell_angle_gamma                90
_cell_volume                     1915.57
loop_
_atom_site_label
_atom_site_type_symbol
_atom_site_fract_x
_atom_site_fract_y
_atom_site_fract_z
Cd1 Cd 0.89052(2) 0.833533(14) 0.880641(10)
O1 O 0.6236(2) 1.21259(14) 0.94868(10)
O2 O 0.4193(2) 1.32426(14) 0.89730(10)
O3 O 0.8520(2) 1.68115(14) 0.80952(11)
O4 O 0.7011(3) 1.68946(15) 0.90234(11)
O5 O 0.1752(2) 0.84007(14) 0.87424(10)
O6 O 0.0793(2) 0.99533(15) 0.90863(10)
O7 O 0.9337(3) 0.82448(15) 1.00264(11)
H1 H 0.9355 0.8765 1.0316
H2 H 0.9641 0.7738 1.0281
N1 N 0.6635(3) 0.94245(17) 0.89799(12)
N2 N 0.6114(3) 1.40594(17) 0.73840(12)
C1 C 0.6949(3) 1.0425(2) 0.91603(14)
H3 H 0.8075 1.0657 0.9210
C2 C 0.5691(3) 1.1144(2) 0.92784(14)
C3 C 0.4041(3) 1.0812(2) 0.91937(14)
H4 H 0.3152 1.1290 0.9253
C4 C 0.3729(3) 0.9760(2) 0.90192(13)
C5 C 0.1962(3) 0.9340(2) 0.89434(13)
C6 C 0.5050(3) 0.90858(19) 0.89144(13)
H5 H 0.4826 0.8369 0.8794
C7 C 0.5028(3) 1.2894(2) 0.96159(14)
H6 H 0.4208 1.2592 0.9926
H7 H 0.5574 1.3502 0.9868
C8 C 0.5134(3) 1.38515(19) 0.85439(14)
C9 C 0.5831(3) 1.48121(19) 0.87633(14)
H8 H 0.5731 1.5067 0.9232
C10 C 0.6676(3) 1.5388(2) 0.82773(14)
C11 C 0.6793(3) 1.4983(2) 0.75979(14)
H9 H 0.7382 1.5379 0.7270
C12 C 0.5313(3) 1.35001(19) 0.78600(14)
H10 H 0.4850 1.2835 0.7720
C13 C 0.7454(3) 1.64371(19) 0.84808(14)
Cd1_2 Cd -0.10948(2) 0.833533(14) 0.880641(10)
Cd1_3 Cd 0.89052(2) 1.833533(14) 0.880641(10)
Cd1A Cd 0.60948(2) 1.333533(14) 0.619359(10)
O3_2 O 0.8520(2) 0.68115(14) 0.80952(11)
O4_2 O 0.7011(3) 0.68946(15) 0.90234(11)
O5_2 O 1.1752(2) 0.84007(14) 0.87424(10)
O6_2 O 1.0793(2) 0.99533(15) 0.90863(10)
N2A N 0.8886(3) 0.90594(17) 0.76160(12)
O8 O 1.0178(3) 0.35890(19) 0.92913(14)
N3 N 1.1100(3) 0.4795(2) 0.85546(15)
C14 C 1.0537(4) 0.3834(3) 0.86849(19)
C15 C 1.0329(5) 0.3049(3) 0.8080(2)
H11 H 0.9985 0.2365 0.8263
H12 H 1.1391 0.2968 0.7862
H13 H 0.9477 0.3305 0.7722
C16 C 1.1349(5) 0.5517(3) 0.91694(19)
H14 H 1.0276 0.5648 0.9368
H15 H 1.1813 0.6187 0.9014
H16 H 1.2122 0.5195 0.9534
C17 C 1.1518(4) 0.5170(3) 0.78577(18)
H17 H 1.1563 0.4570 0.7532
H18 H 1.2606 0.5521 0.7903
H19 H 1.0666 0.5671 0.7670
loop_
_geom_bond_atom_site_label_1
_geom_bond_atom_site_label_2
_geom_bond_site_symmetry_1
_geom_bond_site_symmetry_2
Cd1 O7 1_555 1_555
O1 C2 1_555 1_555
O2 C7 1_555 1_555
O3 C13 1_555 1_555
O4 C13 1_555 1_555
O5 C5 1_555 1_555
O6 C5 1_555 1_555
O7 H1 1_555 1_555
H2 O7 1_555 1_555
N1 Cd1 1_555 1_555
N2 C11 1_555 1_555
C1 N1 1_555 1_555
H3 C1 1_555 1_555
C2 C1 1_555 1_555
C3 C2 1_555 1_555
H4 C3 1_555 1_555
C4 C3 1_555 1_555
C5 C4 1_555 1_555
C6 N1 1_555 1_555
H5 C6 1_555 1_555
C7 O1 1_555 1_555
H6 C7 1_555 1_555
H7 C7 1_555 1_555
C8 O2 1_555 1_555
C9 C8 1_555 1_555
H8 C9 1_555 1_555
C10 C9 1_555 1_555
C11 C10 1_555 1_555
H9 C11 1_555 1_555
C12 N2 1_555 1_555
H10 C12 1_555 1_555
C13 C10 1_555 1_555
O8 C14 1_555 1_555
N3 C14 1_555 1_555
C14 C15 1_555 1_555
C15 H11 1_555 1_555
H12 C15 1_555 1_555
H13 C15 1_555 1_555
C16 N3 1_555 1_555
H14 C16 1_555 1_555
H15 C16 1_555 1_555
H16 C16 1_555 1_555
C17 N3 1_555 1_555
H17 C17 1_555 1_555
H18 C17 1_555 1_555
H19 C17 1_555 1_555
Cd1_2 O5 1_555 1_555
Cd1_3 O3 1_555 1_555
Cd1A N2 1_555 1_555
O3_2 Cd1 1_555 1_555
O4_2 Cd1 1_555 1_555
O5_2 Cd1 1_555 1_555
O6_2 Cd1 1_555 1_555
N2A Cd1 1_555 1_555
O4 Cd1_3 1_555 1_555
O6 Cd1_2 1_555 1_555
C4 C6 1_555 1_555
C8 C12 1_555 1_555

#END
