
#######################################################################
#
#                 Cambridge Crystallographic Data Centre
#                                CCDC 
#
#######################################################################
#
# If this CIF has been generated from an entry in the Cambridge 
# Structural Database, then it will include bibliographic, chemical, 
# crystal, experimental, refinement or atomic coordinate data resulting 
# from the CCDC's data processing and validation procedures.
#
#######################################################################

data_FIHVID
_symmetry_cell_setting           tetragonal
_symmetry_space_group_name_H-M   'P 42/n'
_symmetry_Int_Tables_number      86
_space_group_name_Hall           '-P 4bc'
loop_
_symmetry_equiv_pos_site_id
_symmetry_equiv_pos_as_xyz
1 x,y,z
2 1/2-x,1/2-y,z
3 -y,1/2+x,1/2+z
4 1/2+y,-x,1/2+z
5 -x,-y,-z
6 1/2+x,1/2+y,-z
7 y,1/2-x,1/2-z
8 1/2-y,x,1/2-z
_cell_length_a                   9.3967(3)
_cell_length_b                   9.3967(3)
_cell_length_c                   32.3703(18)
_cell_angle_alpha                90
_cell_angle_beta                 90
_cell_angle_gamma                90
_cell_volume                     2858.23
loop_
_atom_site_label
_atom_site_type_symbol
_atom_site_fract_x
_atom_site_fract_y
_atom_site_fract_z
W1 W 0.2500 0.2500 0.2500
I1 I 0.7500 0.2500 0.296725(16)
Cu1 Cu 0.53281(8) 0.31733(8) 0.24869(2)
S1 S 0.41415(14) 0.14309(13) 0.21129(4)
N1 N 0.6165(5) 0.4411(5) 0.20235(15)
C1 C 0.7283(6) 0.5919(6) 0.13439(18)
C2 C 0.8019(6) 0.5796(6) 0.17182(18)
H1 H 0.8911 0.6214 0.1745
C3 C 0.7835(7) 0.6743(7) 0.09844(19)
H2 H 0.7597 0.6256 0.0729
H3 H 0.8863 0.6817 0.1002
C4 C 0.7446(5) 0.5069(6) 0.20461(18)
H4 H 0.7954 0.5026 0.2292
C5 C 0.5957(7) 0.5226(8) 0.1330(2)
H5 H 0.5431 0.5218 0.1086
C6 C 0.5452(7) 0.4575(8) 0.1670(2)
H6 H 0.4533 0.4210 0.1657
N1A N 0.8835(5) 1.0589(5) 0.20235(15)
C1A C 0.7717(6) 0.9081(6) 0.13439(18)
C2A C 0.6981(6) 0.9204(6) 0.17182(18)
H1A H 0.6089 0.8786 0.1745
C3A C 0.7165(7) 0.8257(7) 0.09844(19)
H2A H 0.7403 0.8744 0.0729
H3A H 0.6137 0.8183 0.1002
C4A C 0.7554(5) 0.9931(6) 0.20461(18)
H4A H 0.7046 0.9974 0.2292
C5A C 0.9043(7) 0.9774(8) 0.1330(2)
H5A H 0.9569 0.9782 0.1086
C6A C 0.9548(7) 1.0425(8) 0.1670(2)
H6A H 1.0467 1.0790 0.1657
Cu1A Cu -0.03281(8) 0.18267(8) 0.24869(2)
S1A S 0.08585(14) 0.35691(13) 0.21129(4)
I1F I 0.2500 -0.2500 0.203275(16)
Cu1F Cu 0.31733(8) -0.03281(8) 0.25131(2)
S1F S 0.14309(13) 0.08585(14) 0.28871(4)
N1F N 0.4411(5) -0.1165(5) 0.29765(15)
C1F C 0.5919(6) -0.2283(6) 0.36561(18)
C2F C 0.5796(6) -0.3019(6) 0.32818(18)
H1F H 0.6214 -0.3911 0.3255
C3F C 0.6743(7) -0.2835(7) 0.40156(19)
H2F H 0.6256 -0.2597 0.4271
H3F H 0.6817 -0.3863 0.3998
C4F C 0.5069(6) -0.2446(5) 0.29539(18)
H4F H 0.5026 -0.2954 0.2708
C5F C 0.5226(8) -0.0957(7) 0.3670(2)
H5F H 0.5218 -0.0431 0.3914
C6F C 0.4575(8) -0.0452(7) 0.3330(2)
H6F H 0.4210 0.0467 0.3343
N1G N 1.0589(5) -0.3835(5) 0.29765(15)
C1G C 0.9081(6) -0.2717(6) 0.36561(18)
C2G C 0.9204(6) -0.1981(6) 0.32818(18)
H1G H 0.8786 -0.1089 0.3255
C3G C 0.8257(7) -0.2165(7) 0.40156(19)
H2G H 0.8744 -0.2403 0.4271
H3G H 0.8183 -0.1137 0.3998
C4G C 0.9931(6) -0.2554(5) 0.29539(18)
H4G H 0.9974 -0.2046 0.2708
C5G C 0.9774(8) -0.4043(7) 0.3670(2)
H5G H 0.9782 -0.4569 0.3914
C6G C 1.0425(8) -0.4548(7) 0.3330(2)
H6G H 1.0790 -0.5467 0.3343
Cu1G Cu 0.18267(8) -0.46719(8) 0.25131(2)
S1G S 0.35691(13) -0.58585(14) 0.28871(4)
W1_2 W 0.2500 -0.7500 0.2500
I1_2 I -0.2500 0.2500 0.296725(16)
Cu1_2 Cu 0.53281(8) -0.68267(8) 0.24869(2)
Cu1A_2 Cu 0.96719(8) 0.18267(8) 0.24869(2)
Cu1A_3 Cu 0.96719(8) 1.18267(8) 0.24869(2)
Cu1G_2 Cu 0.18267(8) 0.53281(8) 0.25131(2)
Cu1G_3 Cu 1.18267(8) -0.46719(8) 0.25131(2)
S1A_2 S 0.08585(14) -0.64309(13) 0.21129(4)
S1G_2 S 0.35691(13) 0.41415(14) 0.28871(4)
N1A_2 N -0.1165(5) 0.0589(5) 0.20235(15)
N1G_2 N 0.0589(5) -0.3835(5) 0.29765(15)
loop_
_geom_bond_atom_site_label_1
_geom_bond_atom_site_label_2
_geom_bond_site_symmetry_1
_geom_bond_site_symmetry_2
W1 S1 1_555 1_555
I1 Cu1 1_555 1_555
Cu1 S1 1_555 1_555
S1 Cu1F 1_555 1_555
N1 Cu1 1_555 1_555
C1 C2 1_555 1_555
C2 H1 1_555 1_555
C3 C1 1_555 1_555
H2 C3 1_555 1_555
H3 C3 1_555 1_555
C4 N1 1_555 1_555
H4 C4 1_555 1_555
C5 C1 1_555 1_555
H5 C5 1_555 1_555
C6 N1 1_555 1_555
H6 C6 1_555 1_555
N1A C4A 1_555 1_555
C1A C2A 1_555 1_555
C2A H1A 1_555 1_555
C3A C3 1_555 1_555
H2A C3A 1_555 1_555
H3A C3A 1_555 1_555
C4A C2A 1_555 1_555
H4A C4A 1_555 1_555
C5A C1A 1_555 1_555
H5A C5A 1_555 1_555
C6A N1A 1_555 1_555
H6A C6A 1_555 1_555
Cu1A S1A 1_555 1_555
S1A W1 1_555 1_555
I1F Cu1F 1_555 1_555
Cu1F S1F 1_555 1_555
S1F W1 1_555 1_555
N1F Cu1F 1_555 1_555
C1F C2F 1_555 1_555
C2F H1F 1_555 1_555
C3F C1F 1_555 1_555
H2F C3F 1_555 1_555
H3F C3F 1_555 1_555
C4F N1F 1_555 1_555
H4F C4F 1_555 1_555
C5F C1F 1_555 1_555
H5F C5F 1_555 1_555
C6F N1F 1_555 1_555
H6F C6F 1_555 1_555
N1G C4G 1_555 1_555
C1G C2G 1_555 1_555
C2G H1G 1_555 1_555
C3G C3F 1_555 1_555
H2G C3G 1_555 1_555
H3G C3G 1_555 1_555
C4G C2G 1_555 1_555
H4G C4G 1_555 1_555
C5G C1G 1_555 1_555
H5G C5G 1_555 1_555
C6G N1G 1_555 1_555
H6G C6G 1_555 1_555
Cu1G I1F 1_555 1_555
S1G Cu1G 1_555 1_555
W1_2 S1G 1_555 1_555
I1_2 Cu1A 1_555 1_555
Cu1_2 S1G 1_555 1_555
Cu1A_2 I1 1_555 1_555
Cu1A_3 N1A 1_555 1_555
Cu1G_2 S1A 1_555 1_555
Cu1G_3 N1G 1_555 1_555
S1A_2 Cu1G 1_555 1_555
S1G_2 W1 1_555 1_555
N1A_2 Cu1A 1_555 1_555
N1G_2 Cu1G 1_555 1_555
Cu1 S1G_2 1_555 1_555
C2 C4 1_555 1_555
C5 C6 1_555 1_555
C1A C3A 1_555 1_555
C5A C6A 1_555 1_555
Cu1A S1F 1_555 1_555
C2F C4F 1_555 1_555
C5F C6F 1_555 1_555
C1G C3G 1_555 1_555
C5G C6G 1_555 1_555
W1_2 S1A_2 1_555 1_555
Cu1G_2 S1G_2 1_555 1_555

#END
