
#######################################################################
#
#                 Cambridge Crystallographic Data Centre
#                                CCDC 
#
#######################################################################
#
# If this CIF has been generated from an entry in the Cambridge 
# Structural Database, then it will include bibliographic, chemical, 
# crystal, experimental, refinement or atomic coordinate data resulting 
# from the CCDC's data processing and validation procedures.
#
#######################################################################

data_FIHWOK
_symmetry_cell_setting           triclinic
_symmetry_space_group_name_H-M   'P -1'
_symmetry_Int_Tables_number      2
_space_group_name_Hall           '-P 1'
loop_
_symmetry_equiv_pos_site_id
_symmetry_equiv_pos_as_xyz
1 x,y,z
2 -x,-y,-z
_cell_length_a                   7.7749(16)
_cell_length_b                   8.6833(17)
_cell_length_c                   14.322(3)
_cell_angle_alpha                100.68(3)
_cell_angle_beta                 101.18(3)
_cell_angle_gamma                107.09(3)
_cell_volume                     875.878
loop_
_atom_site_label
_atom_site_type_symbol
_atom_site_fract_x
_atom_site_fract_y
_atom_site_fract_z
Ni1 Ni 0.35083(7) 0.66442(6) 0.74086(3)
S1 S 0.00486(14) 0.96672(13) 0.79354(7)
S2 S 0.03309(16) 0.68299(14) 0.63582(8)
S3 S 0.15683(17) 0.39900(13) 0.78876(8)
S4 S 0.17837(14) 0.13140(12) 0.61636(7)
N1 N 0.2539(4) 0.8333(4) 0.8114(2)
N2 N 0.3016(4) 0.9512(4) 0.8984(2)
N3 N 0.4098(4) 1.3084(4) 1.1518(2)
N4 N 0.3361(5) 0.4439(4) 0.6558(2)
N5 N 0.3869(4) 0.3828(4) 0.5746(2)
N6 N 0.4914(4) 0.1671(4) 0.3234(2)
C1 C 0.1013(5) 0.8219(5) 0.7466(3)
C2 C 0.1846(5) 1.0318(5) 0.9006(3)
C3 C 0.2123(5) 1.1619(5) 0.9894(3)
C4 C 0.0931(6) 1.2509(5) 1.0017(3)
H1 H -0.0124 1.2328 0.9517
C5 C 0.1358(6) 1.3682(5) 1.0911(3)
H2 H 0.0586 1.4298 1.1018
C6 C 0.2920(6) 1.3919(5) 1.1630(3)
H3 H 0.3177 1.4698 1.2226
C7 C 0.3678(5) 1.1956(5) 1.0669(3)
H4 H 0.4474 1.1354 1.0587
C8 C 0.2262(5) 0.3308(5) 0.6888(3)
C9 C 0.3136(5) 0.2211(5) 0.5440(3)
C10 C 0.3484(5) 0.1321(4) 0.4564(3)
C11 C 0.2923(5) -0.0393(5) 0.4225(3)
H5 H 0.2277 -0.1086 0.4559
C12 C 0.3345(5) -0.1058(5) 0.3374(3)
H6 H 0.2958 -0.2207 0.3121
C13 C 0.4342(5) 0.0001(5) 0.2912(3)
H7 H 0.4634 -0.0460 0.2350
C14 C 0.4460(5) 0.2294(5) 0.4038(3)
H8 H 0.4817 0.3447 0.4260
Ni1A Ni 0.64917(7) 0.33558(6) 0.25914(3)
Ni1A_2 Ni 0.64917(7) 1.33558(6) 1.25914(3)
N3A N 0.5902(4) 0.6916(4) 0.8482(2)
N6A N 0.5086(4) 0.8329(4) 0.6766(2)
loop_
_geom_bond_atom_site_label_1
_geom_bond_atom_site_label_2
_geom_bond_site_symmetry_1
_geom_bond_site_symmetry_2
Ni1 S2 1_555 1_555
S1 C1 1_555 1_555
S2 C1 1_555 1_555
S3 Ni1 1_555 1_555
S4 C8 1_555 1_555
N1 Ni1 1_555 1_555
N2 N1 1_555 1_555
N3 C6 1_555 1_555
N4 Ni1 1_555 1_555
N5 N4 1_555 1_555
N6 C13 1_555 1_555
C1 N1 1_555 1_555
C2 S1 1_555 1_555
C3 C2 1_555 1_555
C4 C3 1_555 1_555
H1 C4 1_555 1_555
C5 C4 1_555 1_555
H2 C5 1_555 1_555
C6 C5 1_555 1_555
H3 C6 1_555 1_555
C7 N3 1_555 1_555
H4 C7 1_555 1_555
C8 S3 1_555 1_555
C9 S4 1_555 1_555
C10 C9 1_555 1_555
C11 C10 1_555 1_555
H5 C11 1_555 1_555
C12 C11 1_555 1_555
H6 C12 1_555 1_555
C13 C12 1_555 1_555
H7 C13 1_555 1_555
C14 N6 1_555 1_555
H8 C14 1_555 1_555
Ni1A N6 1_555 1_555
Ni1A_2 N3 1_555 1_555
N3A Ni1 1_555 1_555
N6A Ni1 1_555 1_555
N2 C2 1_555 1_555
N4 C8 1_555 1_555
N5 C9 1_555 1_555
C3 C7 1_555 1_555
C10 C14 1_555 1_555

#END
