
#######################################################################
#
#                 Cambridge Crystallographic Data Centre
#                                CCDC 
#
#######################################################################
#
# If this CIF has been generated from an entry in the Cambridge 
# Structural Database, then it will include bibliographic, chemical, 
# crystal, experimental, refinement or atomic coordinate data resulting 
# from the CCDC's data processing and validation procedures.
#
#######################################################################

data_FIHYAY
_symmetry_cell_setting           monoclinic
_symmetry_space_group_name_H-M   'C 2/c'
_symmetry_Int_Tables_number      15
_space_group_name_Hall           '-C 2yn'
loop_
_symmetry_equiv_pos_site_id
_symmetry_equiv_pos_as_xyz
1 x,y,z
2 -x,y,1/2-z
3 1/2+x,1/2+y,z
4 1/2-x,1/2+y,1/2-z
5 -x,-y,-z
6 x,-y,1/2+z
7 1/2-x,1/2-y,-z
8 1/2+x,1/2-y,1/2+z
_cell_length_a                   7.7284(15)
_cell_length_b                   20.543(4)
_cell_length_c                   16.060(3)
_cell_angle_alpha                90
_cell_angle_beta                 100.37(3)
_cell_angle_gamma                90
_cell_volume                     2508.11
loop_
_atom_site_label
_atom_site_type_symbol
_atom_site_fract_x
_atom_site_fract_y
_atom_site_fract_z
Zn1 Zn 0.0000 0.237021(19) 0.2500
O1 O -0.3190(3) 0.25987(10) 0.32941(18)
O2 O -0.1729(2) 0.17898(9) 0.28402(12)
N1 N 0.1226(3) 0.28839(11) 0.35029(14)
N2 N 0.1642(3) 0.33750(14) 0.47597(17)
N3 N 0.3184(3) 0.33306(10) 0.44679(14)
C1 C -0.2992(3) 0.20201(14) 0.31648(17)
C2 C -0.4243(4) 0.15206(15) 0.34274(18)
H1 H -0.3794 0.1401 0.4011
H2 H -0.5368 0.1732 0.3417
C3 C -0.4571(3) 0.09030(13) 0.29218(18)
C4 C -0.4118(4) 0.03073(17) 0.3319(3)
H3 H -0.3516 0.0302 0.3875
C5 C -0.4544(5) -0.02697(17) 0.2906(3)
H4 H -0.4213 -0.0662 0.3178
C6 C 0.0511(4) 0.30994(15) 0.41596(19)
H5 H -0.0677 0.3056 0.4183
C7 C 0.2923(3) 0.30378(13) 0.37262(18)
H6 H 0.3789 0.2952 0.3407
C8 C 0.4820(3) 0.35854(13) 0.49729(19)
H7 H 0.5812 0.3419 0.4745
H8 H 0.4927 0.3428 0.5549
C9 C 0.4895(3) 0.43264(12) 0.49843(16)
C10 C 0.4317(3) 0.46688(13) 0.56376(16)
C11 C 0.3616(5) 0.43123(16) 0.6329(2)
H9 H 0.3067 0.3914 0.6108
H10 H 0.2768 0.4581 0.6536
H11 H 0.4569 0.4216 0.6785
C12 C 0.5582(3) 0.46506(13) 0.43488(16)
C13 C 0.6194(6) 0.42789(18) 0.3647(3)
H12 H 0.5957 0.3824 0.3701
H13 H 0.7435 0.4343 0.3682
H14 H 0.5581 0.4434 0.3110
O1A O -0.6810(3) 0.25987(10) 0.17059(18)
O2A O -0.8271(2) 0.17898(9) 0.21598(12)
C1A C -0.7008(3) 0.20201(14) 0.18352(17)
C2A C -0.5757(4) 0.15206(15) 0.15726(18)
H1A H -0.6206 0.1401 0.0989
H2A H -0.4632 0.1732 0.1583
C3A C -0.5429(3) 0.09030(13) 0.20782(18)
C4A C -0.5882(4) 0.03073(17) 0.1681(3)
H3A H -0.6484 0.0302 0.1125
C5A C -0.5456(5) -0.02697(17) 0.2094(3)
H4A H -0.5787 -0.0662 0.1822
N1D N 0.8774(3) 0.71161(11) 0.64971(14)
N2D N 0.8358(3) 0.66250(14) 0.52403(17)
N3D N 0.6816(3) 0.66694(10) 0.55321(14)
C6D C 0.9489(4) 0.69006(15) 0.58404(19)
H5D H 1.0677 0.6944 0.5817
C7D C 0.7077(3) 0.69622(13) 0.62738(18)
H6D H 0.6211 0.7048 0.6593
C8D C 0.5180(3) 0.64146(13) 0.50271(19)
H7D H 0.4188 0.6581 0.5255
H8D H 0.5073 0.6572 0.4451
C9D C 0.5105(3) 0.56736(12) 0.50157(16)
C10D C 0.5683(3) 0.53312(13) 0.43624(16)
C11D C 0.6384(5) 0.56877(16) 0.3671(2)
H9D H 0.6933 0.6086 0.3892
H10D H 0.7232 0.5419 0.3464
H11D H 0.5431 0.5784 0.3215
C12D C 0.4418(3) 0.53494(13) 0.56512(16)
C13D C 0.3806(6) 0.57211(18) 0.6353(3)
H12D H 0.4043 0.6176 0.6299
H13D H 0.2565 0.5657 0.6318
H14D H 0.4419 0.5566 0.6890
Zn1_2 Zn -1.0000 0.237021(19) 0.2500
Zn1D Zn 1.0000 0.762979(19) 0.7500
O2A_2 O 0.1729(2) 0.17898(9) 0.21598(12)
N1A N -0.1226(3) 0.28839(11) 0.14971(14)
loop_
_geom_bond_atom_site_label_1
_geom_bond_atom_site_label_2
_geom_bond_site_symmetry_1
_geom_bond_site_symmetry_2
Zn1 O2 1_555 1_555
O1 C1 1_555 1_555
O2 C1 1_555 1_555
N1 Zn1 1_555 1_555
N2 N3 1_555 1_555
N3 C7 1_555 1_555
C1 C2 1_555 1_555
C2 H1 1_555 1_555
H2 C2 1_555 1_555
C3 C2 1_555 1_555
C4 C3 1_555 1_555
H3 C4 1_555 1_555
C5 C4 1_555 1_555
H4 C5 1_555 1_555
C6 N1 1_555 1_555
H5 C6 1_555 1_555
C7 N1 1_555 1_555
H6 C7 1_555 1_555
C8 N3 1_555 1_555
H7 C8 1_555 1_555
H8 C8 1_555 1_555
C9 C8 1_555 1_555
C10 C9 1_555 1_555
C11 C10 1_555 1_555
H9 C11 1_555 1_555
H10 C11 1_555 1_555
H11 C11 1_555 1_555
C12 C9 1_555 1_555
C13 C12 1_555 1_555
H12 C13 1_555 1_555
H13 C13 1_555 1_555
H14 C13 1_555 1_555
O1A C1A 1_555 1_555
O2A C1A 1_555 1_555
C1A C2A 1_555 1_555
C2A H1A 1_555 1_555
H2A C2A 1_555 1_555
C3A C3 1_555 1_555
C4A C3A 1_555 1_555
H3A C4A 1_555 1_555
C5A C5 1_555 1_555
H4A C5A 1_555 1_555
N1D C6D 1_555 1_555
N2D N3D 1_555 1_555
N3D C7D 1_555 1_555
C6D N2D 1_555 1_555
H5D C6D 1_555 1_555
C7D N1D 1_555 1_555
H6D C7D 1_555 1_555
C8D N3D 1_555 1_555
H7D C8D 1_555 1_555
H8D C8D 1_555 1_555
C9D C8D 1_555 1_555
C10D C12 1_555 1_555
C11D C10D 1_555 1_555
H9D C11D 1_555 1_555
H10D C11D 1_555 1_555
H11D C11D 1_555 1_555
C12D C10 1_555 1_555
C13D C12D 1_555 1_555
H12D C13D 1_555 1_555
H13D C13D 1_555 1_555
H14D C13D 1_555 1_555
Zn1_2 O2A 1_555 1_555
Zn1D N1D 1_555 1_555
O2A_2 Zn1 1_555 1_555
N1A Zn1 1_555 1_555
N2 C6 1_555 1_555
C2A C3A 1_555 1_555
C4A C5A 1_555 1_555
C9D C10D 1_555 1_555
C9D C12D 1_555 1_555

#END
