
#######################################################################
#
#                 Cambridge Crystallographic Data Centre
#                                CCDC 
#
#######################################################################
#
# If this CIF has been generated from an entry in the Cambridge 
# Structural Database, then it will include bibliographic, chemical, 
# crystal, experimental, refinement or atomic coordinate data resulting 
# from the CCDC's data processing and validation procedures.
#
#######################################################################

data_FIHYOM
_symmetry_cell_setting           triclinic
_symmetry_space_group_name_H-M   'P -1'
_symmetry_Int_Tables_number      2
_space_group_name_Hall           '-P 1'
loop_
_symmetry_equiv_pos_site_id
_symmetry_equiv_pos_as_xyz
1 x,y,z
2 -x,-y,-z
_cell_length_a                   7.8548(11)
_cell_length_b                   10.4594(14)
_cell_length_c                   14.462(2)
_cell_angle_alpha                69.515(8)
_cell_angle_beta                 79.605(8)
_cell_angle_gamma                89.065(7)
_cell_volume                     1093.33
loop_
_atom_site_label
_atom_site_type_symbol
_atom_site_fract_x
_atom_site_fract_y
_atom_site_fract_z
Zn1 Zn 1.17304(11) 1.03969(8) 0.12957(7)
Zn2 Zn 1.48444(11) 0.87556(8) 0.10276(6)
O1 O 1.3226(6) 0.9993(5) 0.0190(4)
O2 O 1.0382(7) 0.8717(5) 0.2149(4)
O3 O 1.2740(7) 0.7539(5) 0.2047(4)
O4 O 0.5509(7) -0.0444(6) 0.1967(4)
O5 O 0.3325(8) 0.0945(6) 0.1982(5)
O6 O 0.8471(11) 0.1502(7) 0.5695(5)
O7 O 0.5783(11) 0.2764(8) 0.5799(5)
S1 S 0.7258(4) 0.2422(2) 0.52130(16)
N1 N 0.9981(8) 1.1787(6) 0.0989(5)
N2 N 0.8706(8) 1.1612(7) 0.0556(6)
N3 N 0.7610(9) 1.2602(7) 0.0545(6)
N4 N 0.9786(8) 1.2865(6) 0.1276(5)
N5 N 0.5976(8) 1.6981(6) 0.1108(5)
C1 C 1.1201(10) 0.7631(7) 0.2382(6)
C2 C 1.0209(10) 0.6352(8) 0.3119(6)
C3 C 0.8463(11) 0.6348(9) 0.3486(7)
H1 H 0.7891 0.7158 0.3300
C4 C 0.7555(12) 0.5160(9) 0.4124(7)
H2 H 0.6373 0.5159 0.4362
C5 C 1.1077(11) 0.5143(8) 0.3415(7)
H3 H 1.2261 0.5142 0.3182
C6 C 1.0176(13) 0.3952(9) 0.4053(7)
H4 H 1.0744 0.3140 0.4246
C7 C 0.8426(12) 0.3970(9) 0.4404(6)
C8 C 0.6506(12) 0.1789(9) 0.4362(6)
C9 C 0.4950(13) 0.2188(11) 0.4090(7)
H5 H 0.4282 0.2755 0.4365
C10 C 0.4378(12) 0.1734(10) 0.3399(7)
H6 H 0.3321 0.2003 0.3208
C11 C 0.7504(12) 0.0931(9) 0.3967(7)
H7 H 0.8565 0.0673 0.4155
C12 C 0.6916(11) 0.0458(9) 0.3288(6)
H8 H 0.7554 -0.0142 0.3034
C13 C 0.5347(11) 0.0903(8) 0.2999(6)
C14 C 0.4674(10) 0.0416(8) 0.2254(6)
C15 C 0.8309(10) 1.3341(7) 0.0998(6)
C16 C 0.7509(10) 1.4566(7) 0.1105(6)
C17 C 0.5752(10) 1.4730(8) 0.1076(7)
H9 H 0.5061 1.4024 0.1065
C18 C 0.5061(11) 1.5938(8) 0.1066(7)
H10 H 0.3895 1.6045 0.1027
C19 C 0.8449(10) 1.5604(8) 0.1198(6)
H11 H 0.9610 1.5506 0.1252
C20 C 0.7653(9) 1.6797(7) 0.1211(5)
H12 H 0.8285 1.7483 0.1291
H13 H 1.272(10) 0.959(8) -0.009(6)
Zn1_2 Zn 0.17304(11) 0.03969(8) 0.12957(7)
Zn2_2 Zn 0.48444(11) -0.12444(8) 0.10276(6)
Zn2_3 Zn 0.48444(11) 1.87556(8) 0.10276(6)
Zn2A Zn 1.51556(11) 1.12444(8) -0.10276(6)
O1A O 1.6774(6) 1.0007(5) -0.0190(4)
O4_2 O 1.5509(7) 0.9556(6) 0.1967(4)
O5_2 O 1.3325(8) 1.0945(6) 0.1982(5)
N5_2 N 1.5976(8) 0.6981(6) 0.1108(5)
loop_
_geom_bond_atom_site_label_1
_geom_bond_atom_site_label_2
_geom_bond_site_symmetry_1
_geom_bond_site_symmetry_2
Zn1 O1 1_555 1_555
Zn2 O1 1_555 1_555
O1 H13 1_555 1_555
O2 Zn1 1_555 1_555
O3 Zn2 1_555 1_555
O4 C14 1_555 1_555
O5 C14 1_555 1_555
O6 S1 1_555 1_555
O7 S1 1_555 1_555
S1 C7 1_555 1_555
N1 Zn1 1_555 1_555
N2 N1 1_555 1_555
N3 N2 1_555 1_555
N4 N1 1_555 1_555
N5 C18 1_555 1_555
C1 O2 1_555 1_555
C2 C1 1_555 1_555
C3 C2 1_555 1_555
H1 C3 1_555 1_555
C4 C3 1_555 1_555
H2 C4 1_555 1_555
C5 C2 1_555 1_555
H3 C5 1_555 1_555
C6 C5 1_555 1_555
H4 C6 1_555 1_555
C7 C4 1_555 1_555
C8 S1 1_555 1_555
C9 C8 1_555 1_555
H5 C9 1_555 1_555
C10 C9 1_555 1_555
H6 C10 1_555 1_555
C11 C8 1_555 1_555
H7 C11 1_555 1_555
C12 C11 1_555 1_555
H8 C12 1_555 1_555
C13 C10 1_555 1_555
C14 C13 1_555 1_555
C15 N3 1_555 1_555
C16 C15 1_555 1_555
C17 C16 1_555 1_555
H9 C17 1_555 1_555
C18 C17 1_555 1_555
H10 C18 1_555 1_555
C19 C16 1_555 1_555
H11 C19 1_555 1_555
C20 N5 1_555 1_555
H12 C20 1_555 1_555
Zn1_2 O5 1_555 1_555
Zn2_2 O4 1_555 1_555
Zn2_3 N5 1_555 1_555
Zn2A O1 1_555 1_555
O1A Zn2 1_555 1_555
O4_2 Zn2 1_555 1_555
O5_2 Zn1 1_555 1_555
N5_2 Zn2 1_555 1_555
O3 C1 1_555 1_555
N4 C15 1_555 1_555
C6 C7 1_555 1_555
C12 C13 1_555 1_555
C19 C20 1_555 1_555
Zn2A O1A 1_555 1_555

#END
