
#######################################################################
#
#                 Cambridge Crystallographic Data Centre
#                                CCDC 
#
#######################################################################
#
# If this CIF has been generated from an entry in the Cambridge 
# Structural Database, then it will include bibliographic, chemical, 
# crystal, experimental, refinement or atomic coordinate data resulting 
# from the CCDC's data processing and validation procedures.
#
#######################################################################

data_FIHYAX
_symmetry_cell_setting           triclinic
_symmetry_space_group_name_H-M   'P -1'
_symmetry_Int_Tables_number      2
_space_group_name_Hall           '-P 1'
loop_
_symmetry_equiv_pos_site_id
_symmetry_equiv_pos_as_xyz
1 x,y,z
2 -x,-y,-z
_cell_length_a                   8.5540(3)
_cell_length_b                   8.7040(3)
_cell_length_c                   9.4100(4)
_cell_angle_alpha                64.9920(12)
_cell_angle_beta                 82.6640(13)
_cell_angle_gamma                75.7960(14)
_cell_volume                     615.289
loop_
_atom_site_label
_atom_site_type_symbol
_atom_site_fract_x
_atom_site_fract_y
_atom_site_fract_z
Zn1 Zn 0.5000 0.5000 0.5000
O1 O 0.31160(17) 0.47740(18) 0.69900(18)
O2 O 0.3422(2) 0.6816(2) 0.7709(2)
O3 O 0.35304(17) 0.16275(19) 1.0006(2)
O4 O 0.14133(19) 0.1086(2) 0.9280(2)
H1 H 0.199(4) 0.021(4) 0.938(4)
N1 N 0.4663(2) 0.2633(2) 0.5139(2)
H2 H 0.5191 0.2481 0.4266
N2 N 0.6824(2) 0.3481(3) 0.6621(2)
H3 H 0.6390 0.3343 0.7615
C1 C 0.5572(4) 0.1297(3) 0.6526(3)
H4 H 0.5780 0.0148 0.6481
H5 H 0.4933 0.1231 0.7497
C2 C 0.7156(3) 0.1776(3) 0.6540(3)
H6 H 0.7781 0.0887 0.7458
H7 H 0.7802 0.1823 0.5577
C3 C 0.8265(3) 0.4240(4) 0.6372(3)
H8 H 0.8809 0.4290 0.5365
H9 H 0.9031 0.3476 0.7221
C4 C 0.7840(3) 0.6056(4) 0.6349(4)
H10 H 0.8844 0.6357 0.6469
H11 H 0.7127 0.6031 0.7270
C5 C 0.2988(3) 0.2511(4) 0.5118(3)
H12 H 0.2968 0.1366 0.5146
H13 H 0.2394 0.2607 0.6062
C6 C 0.1379(2) 0.5262(2) 0.8990(2)
C7 C 0.1005(2) 0.3617(3) 0.9746(2)
C8 C 0.0352(2) 0.6633(3) 0.9272(3)
H14 H 0.0588 0.7757 0.8782
C9 C 0.2769(2) 0.5631(3) 0.7808(3)
C10 C 0.2132(2) 0.2036(2) 0.9651(2)
Zn1_2 Zn -0.5000 0.5000 1.5000
O1A O -0.31160(17) 0.52260(18) 1.30100(18)
O1A_2 O 0.68840(17) 0.52260(18) 0.30100(18)
O2A O -0.3422(2) 0.3184(2) 1.2291(2)
O3A O -0.35304(17) 0.83725(19) 0.9994(2)
O4A O -0.14133(19) 0.8914(2) 1.0720(2)
H1A H -0.199(4) 0.979(4) 1.062(4)
N1A N 0.5337(2) 0.7367(2) 0.4861(2)
H2A H 0.4809 0.7519 0.5734
N2A N 0.3176(2) 0.6519(3) 0.3379(2)
H3A H 0.3610 0.6657 0.2385
C1A C 0.4428(4) 0.8703(3) 0.3474(3)
H4A H 0.4220 0.9852 0.3519
H5A H 0.5067 0.8769 0.2503
C2A C 0.2844(3) 0.8224(3) 0.3460(3)
H6A H 0.2219 0.9113 0.2542
H7A H 0.2198 0.8177 0.4423
C3A C 0.1735(3) 0.5760(4) 0.3628(3)
H8A H 0.1191 0.5710 0.4635
H9A H 0.0969 0.6524 0.2779
C4A C 0.2160(3) 0.3944(4) 0.3651(4)
H10A H 0.1156 0.3643 0.3531
H11A H 0.2873 0.3969 0.2730
C5A C 0.7012(3) 0.7489(4) 0.4882(3)
H12A H 0.7032 0.8634 0.4854
H13A H 0.7606 0.7393 0.3938
C6A C -0.1379(2) 0.4738(2) 1.1010(2)
C7A C -0.1005(2) 0.6383(3) 1.0254(2)
C8A C -0.0352(2) 0.3367(3) 1.0728(3)
H14A H -0.0588 0.2243 1.1218
C9A C -0.2769(2) 0.4369(3) 1.2192(3)
C10A C -0.2132(2) 0.7964(2) 1.0349(2)
O5 O 0.3377(2) -0.1839(2) 0.9766(2)
H15 H 0.431(4) -0.178(4) 0.970(4)
H16 H 0.335(4) -0.221(4) 0.903(5)
loop_
_geom_bond_atom_site_label_1
_geom_bond_atom_site_label_2
_geom_bond_site_symmetry_1
_geom_bond_site_symmetry_2
Zn1 O1 1_555 1_555
O1 C9 1_555 1_555
O2 C9 1_555 1_555
O3 C10 1_555 1_555
O4 H1 1_555 1_555
N1 Zn1 1_555 1_555
H2 N1 1_555 1_555
N2 Zn1 1_555 1_555
H3 N2 1_555 1_555
C1 N1 1_555 1_555
H4 C1 1_555 1_555
H5 C1 1_555 1_555
C2 N2 1_555 1_555
H6 C2 1_555 1_555
H7 C2 1_555 1_555
C3 N2 1_555 1_555
H8 C3 1_555 1_555
H9 C3 1_555 1_555
C4 C3 1_555 1_555
H10 C4 1_555 1_555
H11 C4 1_555 1_555
C5 N1 1_555 1_555
H12 C5 1_555 1_555
H13 C5 1_555 1_555
C6 C7 1_555 1_555
C7 C10 1_555 1_555
C8 C6 1_555 1_555
H14 C8 1_555 1_555
C9 C6 1_555 1_555
C10 O4 1_555 1_555
O5 H15 1_555 1_555
H16 O5 1_555 1_555
Zn1_2 O1A 1_555 1_555
O1A C9A 1_555 1_555
O1A_2 Zn1 1_555 1_555
O2A C9A 1_555 1_555
O3A C10A 1_555 1_555
O4A H1A 1_555 1_555
N1A Zn1 1_555 1_555
H2A N1A 1_555 1_555
N2A Zn1 1_555 1_555
H3A N2A 1_555 1_555
C1A N1A 1_555 1_555
H4A C1A 1_555 1_555
H5A C1A 1_555 1_555
C2A N2A 1_555 1_555
H6A C2A 1_555 1_555
H7A C2A 1_555 1_555
C3A N2A 1_555 1_555
H8A C3A 1_555 1_555
H9A C3A 1_555 1_555
C4A C5 1_555 1_555
H10A C4A 1_555 1_555
H11A C4A 1_555 1_555
C5A C4 1_555 1_555
H12A C5A 1_555 1_555
H13A C5A 1_555 1_555
C6A C7A 1_555 1_555
C7A C8 1_555 1_555
C8A C7 1_555 1_555
H14A C8A 1_555 1_555
C9A C6A 1_555 1_555
C10A O4A 1_555 1_555
C1 C2 1_555 1_555
N1A C5A 1_555 1_555
C1A C2A 1_555 1_555
C3A C4A 1_555 1_555
C6A C8A 1_555 1_555
C7A C10A 1_555 1_555

#END
