
#######################################################################
#
#                 Cambridge Crystallographic Data Centre
#                                CCDC 
#
#######################################################################
#
# If this CIF has been generated from an entry in the Cambridge 
# Structural Database, then it will include bibliographic, chemical, 
# crystal, experimental, refinement or atomic coordinate data resulting 
# from the CCDC's data processing and validation procedures.
#
#######################################################################

data_FIHZEC
_symmetry_cell_setting           monoclinic
_symmetry_space_group_name_H-M   'C 2/m'
_symmetry_Int_Tables_number      12
_space_group_name_Hall           '-C 2y'
loop_
_symmetry_equiv_pos_site_id
_symmetry_equiv_pos_as_xyz
1 x,y,z
2 1/2+x,1/2+y,z
3 -x,y,-z
4 1/2-x,1/2+y,-z
5 -x,-y,-z
6 1/2-x,1/2-y,-z
7 x,-y,z
8 1/2+x,1/2-y,z
_cell_length_a                   13.314(3)
_cell_length_b                   12.901(2)
_cell_length_c                   8.9039(17)
_cell_angle_alpha                90
_cell_angle_beta                 99.260(4)
_cell_angle_gamma                90
_cell_volume                     1509.44
loop_
_atom_site_label
_atom_site_type_symbol
_atom_site_fract_x
_atom_site_fract_y
_atom_site_fract_z
Cu1 Cu 0.07552(4) 0.0000 0.86914(6)
N1 N 0.07933(18) 0.15535(19) 0.8287(3)
N2 N 0.0426(3) 0.0000 0.6446(4)
C1 C 0.1150(2) 0.2284(3) 0.9305(4)
H1 H 0.1228 0.2124 1.0347
C2 C 0.1409(3) 0.3271(3) 0.8870(4)
H2 H 0.1616 0.3783 0.9606
C3 C 0.1358(3) 0.3489(3) 0.7339(5)
H3 H 0.1589 0.4130 0.7024
C4 C 0.0957(3) 0.2744(2) 0.6262(4)
H4 H 0.0896 0.2881 0.5215
C5 C 0.0652(2) 0.1798(2) 0.6780(3)
C6 C 0.0240(2) 0.0924(2) 0.5765(3)
Cl1 Cl 0.12766(8) 0.0000 1.12157(11)
Cu1D Cu -0.07552(4) 0.0000 0.13086(6)
Cu1D_2 Cu -0.07552(4) 0.0000 1.13086(6)
N1F N 0.07933(18) -0.15535(19) 0.8287(3)
N1B N -0.07933(18) 0.15535(19) 0.1713(3)
N1D N -0.07933(18) -0.15535(19) 0.1713(3)
N2D N -0.0426(3) 0.0000 0.3554(4)
C1F C 0.1150(2) -0.2284(3) 0.9305(4)
C1B C -0.1150(2) 0.2284(3) 0.0695(4)
C1D C -0.1150(2) -0.2284(3) 0.0695(4)
H1F H 0.1228 -0.2124 1.0347
H1B H -0.1228 0.2124 -0.0347
H1D H -0.1228 -0.2124 -0.0347
C2F C 0.1409(3) -0.3271(3) 0.8870(4)
C2B C -0.1409(3) 0.3271(3) 0.1130(4)
C2D C -0.1409(3) -0.3271(3) 0.1130(4)
H2F H 0.1616 -0.3783 0.9606
H2B H -0.1616 0.3783 0.0394
H2D H -0.1616 -0.3783 0.0394
C3F C 0.1358(3) -0.3489(3) 0.7339(5)
C3B C -0.1358(3) 0.3489(3) 0.2661(5)
C3D C -0.1358(3) -0.3489(3) 0.2661(5)
H3F H 0.1589 -0.4130 0.7024
H3B H -0.1589 0.4130 0.2976
H3D H -0.1589 -0.4130 0.2976
C4F C 0.0957(3) -0.2744(2) 0.6262(4)
C4B C -0.0957(3) 0.2744(2) 0.3738(4)
C4D C -0.0957(3) -0.2744(2) 0.3738(4)
H4F H 0.0896 -0.2881 0.5215
H4B H -0.0896 0.2881 0.4785
H4D H -0.0896 -0.2881 0.4785
C5F C 0.0652(2) -0.1798(2) 0.6780(3)
C5B C -0.0652(2) 0.1798(2) 0.3220(3)
C5D C -0.0652(2) -0.1798(2) 0.3220(3)
C6F C 0.0240(2) -0.0924(2) 0.5765(3)
C6D C -0.0240(2) -0.0924(2) 0.4235(3)
C6B C -0.0240(2) 0.0924(2) 0.4235(3)
Cl1D Cl -0.12766(8) 0.0000 0.87843(11)
Cl1_2 Cl 0.12766(8) 0.0000 0.12157(11)
Cl1D_2 Cl -0.12766(8) 0.0000 -0.12157(11)
P1 P 0.33989(10) 0.0000 0.69642(15)
F1 F 0.3417(4) 0.1217(3) 0.7013(6)
F2 F 0.2482(4) 0.0000 0.5641(5)
F3 F 0.4154(3) 0.0000 0.5742(5)
F4 F 0.4312(3) 0.0000 0.8346(5)
F5 F 0.2620(2) 0.0000 0.8198(4)
F1F F 0.3417(4) -0.1217(3) 0.7013(6)
loop_
_geom_bond_atom_site_label_1
_geom_bond_atom_site_label_2
_geom_bond_site_symmetry_1
_geom_bond_site_symmetry_2
Cu1 N1 1_555 1_555
P1 F1 1_555 1_555
N1 C1 1_555 1_555
N2 Cu1 1_555 1_555
C1 H1 1_555 1_555
C2 C1 1_555 1_555
H2 C2 1_555 1_555
C3 C2 1_555 1_555
H3 C3 1_555 1_555
C4 C3 1_555 1_555
H4 C4 1_555 1_555
C5 N1 1_555 1_555
C6 N2 1_555 1_555
F2 P1 1_555 1_555
F3 P1 1_555 1_555
F4 P1 1_555 1_555
F5 P1 1_555 1_555
Cl1 Cu1 1_555 1_555
Cu1D N1B 1_555 1_555
Cu1D_2 Cl1 1_555 1_555
N1F Cu1 1_555 1_555
N1B C1B 1_555 1_555
N1D Cu1D 1_555 1_555
N2D Cu1D 1_555 1_555
C1F N1F 1_555 1_555
C1B H1B 1_555 1_555
C1D N1D 1_555 1_555
H1F C1F 1_555 1_555
H1D C1D 1_555 1_555
C2F C1F 1_555 1_555
C2B C1B 1_555 1_555
C2D C1D 1_555 1_555
H2F C2F 1_555 1_555
H2B C2B 1_555 1_555
H2D C2D 1_555 1_555
C3F C2F 1_555 1_555
C3B C2B 1_555 1_555
C3D C2D 1_555 1_555
H3F C3F 1_555 1_555
H3B C3B 1_555 1_555
H3D C3D 1_555 1_555
C4F C3F 1_555 1_555
C4B C3B 1_555 1_555
C4D C3D 1_555 1_555
H4F C4F 1_555 1_555
H4B C4B 1_555 1_555
H4D C4D 1_555 1_555
C5F N1F 1_555 1_555
C5B N1B 1_555 1_555
C5D N1D 1_555 1_555
C6F N2 1_555 1_555
C6D N2D 1_555 1_555
C6B C6 1_555 1_555
F1F P1 1_555 1_555
Cl1D Cu1 1_555 1_555
Cl1_2 Cu1D 1_555 1_555
Cl1D_2 Cu1D 1_555 1_555
C4 C5 1_555 1_555
C5 C6 1_555 1_555
Cu1D_2 Cl1D 1_555 1_555
N2D C6B 1_555 1_555
C4F C5F 1_555 1_555
C4B C5B 1_555 1_555
C4D C5D 1_555 1_555
C5F C6F 1_555 1_555
C5B C6B 1_555 1_555
C5D C6D 1_555 1_555
C6F C6D 1_555 1_555

#END
