
#######################################################################
#
#                 Cambridge Crystallographic Data Centre
#                                CCDC 
#
#######################################################################
#
# If this CIF has been generated from an entry in the Cambridge 
# Structural Database, then it will include bibliographic, chemical, 
# crystal, experimental, refinement or atomic coordinate data resulting 
# from the CCDC's data processing and validation procedures.
#
#######################################################################

data_FIHZUS
_symmetry_cell_setting           monoclinic
_symmetry_space_group_name_H-M   'C 2/c'
_symmetry_Int_Tables_number      15
_space_group_name_Hall           '-C 2yn'
loop_
_symmetry_equiv_pos_site_id
_symmetry_equiv_pos_as_xyz
1 x,y,z
2 1/2+x,1/2+y,z
3 -x,y,1/2-z
4 1/2-x,1/2+y,1/2-z
5 -x,-y,-z
6 1/2-x,1/2-y,-z
7 x,-y,1/2+z
8 1/2+x,1/2-y,1/2+z
_cell_length_a                   21.008(4)
_cell_length_b                   17.104(3)
_cell_length_c                   15.041(3)
_cell_angle_alpha                90
_cell_angle_beta                 131.08(3)
_cell_angle_gamma                90
_cell_volume                     4073.91
loop_
_atom_site_label
_atom_site_type_symbol
_atom_site_fract_x
_atom_site_fract_y
_atom_site_fract_z
Pr1 Pr 0.5000 0.27243(10) 0.2500
Cu1 Cu 0.78408(17) 0.50301(17) 0.6701(3)
C1 C 0.6324(15) 0.4264(15) 0.462(2)
C2 C 0.6514(15) 0.4951(14) 0.421(2)
C3 C 0.605(2) 0.5150(19) 0.305(3)
H1 H 0.5588 0.4855 0.2450
C4 C 0.630(2) 0.579(2) 0.281(3)
H2 H 0.5996 0.5939 0.2028
C5 C 0.697(2) 0.6214(19) 0.369(3)
H3 H 0.7132 0.6656 0.3514
C6 C 0.7430(17) 0.5994(15) 0.484(2)
C7 C 0.8227(16) 0.6362(16) 0.591(3)
C8 C 0.2682(14) -0.0695(14) 0.328(2)
C9 C 0.3410(14) -0.0136(14) 0.398(2)
C10 C 0.3929(15) 0.0003(14) 0.517(2)
H4 H 0.3862 -0.0275 0.5639
C11 C 0.4553(15) 0.0560(15) 0.567(2)
H5 H 0.4907 0.0665 0.6469
C12 C 0.4652(15) 0.0962(14) 0.497(2)
H6 H 0.5063 0.1346 0.5292
C13 C 0.4130(13) 0.0780(13) 0.380(2)
C14 C 0.4167(14) 0.1115(14) 0.290(2)
N1 N 0.7187(12) 0.5362(11) 0.5082(17)
N2 N 0.3526(11) 0.0249(11) 0.3332(16)
O1 O 0.6779(12) 0.4191(11) 0.5700(16)
O3 O 0.8584(12) 0.6064(12) 0.6881(18)
O5 O 0.8490(14) 0.6950(13) 0.575(2)
O7 O 0.2507(11) -0.1074(11) 0.3789(15)
O9 O 0.2290(10) -0.0720(11) 0.2190(14)
O11 O 0.3651(11) 0.0832(11) 0.1891(14)
O12 O 0.4697(11) 0.1622(10) 0.3245(15)
O13 O 0.3996(12) 0.3184(13) 0.2770(17)
H16 H 0.3586 0.3394 0.2161
H17 H 0.4117 0.3166 0.3244
O14 O 0.3581(12) 0.2216(10) 0.0711(17)
H18 H 0.3485 0.2361 0.0113
H19 H 0.3328 0.1900 0.0598
O15 O 0.5735(11) 0.3823(11) 0.3867(16)
Cu1B Cu 0.21592(17) 0.50301(17) -0.1701(3)
Cu1G Cu 0.28408(17) -0.00301(17) 0.1701(3)
Cu1E Cu 0.71592(17) -0.00301(17) 0.3299(3)
C1B C 0.3676(15) 0.4264(15) 0.038(2)
C2B C 0.3486(15) 0.4951(14) 0.079(2)
C3B C 0.395(2) 0.5150(19) 0.195(3)
H1B H 0.4412 0.4855 0.2550
C4B C 0.370(2) 0.579(2) 0.219(3)
H2B H 0.4004 0.5939 0.2972
C5B C 0.303(2) 0.6214(19) 0.131(3)
H3B H 0.2868 0.6656 0.1486
C6B C 0.2570(17) 0.5994(15) 0.016(2)
C7B C 0.1773(16) 0.6362(16) -0.091(3)
C8B C 0.7318(14) -0.0695(14) 0.172(2)
C9B C 0.6590(14) -0.0136(14) 0.102(2)
C10B C 0.6071(15) 0.0003(14) -0.017(2)
H4B H 0.6138 -0.0275 -0.0639
C11B C 0.5447(15) 0.0560(15) -0.067(2)
H5B H 0.5093 0.0665 -0.1469
C12B C 0.5348(15) 0.0962(14) 0.003(2)
H6B H 0.4937 0.1346 -0.0292
C13B C 0.5870(13) 0.0780(13) 0.120(2)
C14B C 0.5833(14) 0.1115(14) 0.210(2)
N1B N 0.2813(12) 0.5362(11) -0.0082(17)
N2B N 0.6474(11) 0.0249(11) 0.1668(16)
N2G N 0.8526(11) 0.4751(11) 0.8332(16)
N2E N 0.1474(11) 0.4751(11) -0.3332(16)
O1B O 0.3221(12) 0.4191(11) -0.0700(16)
O3B O 0.1416(12) 0.6064(12) -0.1881(18)
O5B O 0.1510(14) 0.6950(13) -0.075(2)
O7B O 0.7493(11) -0.1074(11) 0.1211(15)
O9B O 0.7710(10) -0.0720(11) 0.2810(14)
O9G O 0.7290(10) 0.5720(11) 0.7190(14)
O9E O 0.2710(10) 0.5720(11) -0.2190(14)
O11B O 0.6349(11) 0.0832(11) 0.3109(14)
O11G O 0.8651(11) 0.4168(11) 0.6891(14)
O11E O 0.1349(11) 0.4168(11) -0.1891(14)
O12B O 0.5303(11) 0.1622(10) 0.1755(15)
O13B O 0.6004(12) 0.3184(13) 0.2230(17)
H16B H 0.6414 0.3394 0.2839
H17B H 0.5883 0.3166 0.1756
O14B O 0.6419(12) 0.2216(10) 0.4289(17)
H18B H 0.6515 0.2361 0.4887
H19B H 0.6672 0.1900 0.4402
O15B O 0.4265(11) 0.3823(11) 0.1133(16)
O2 O 0.190(3) -0.233(2) 0.134(4)
H7 H 0.1953 -0.1991 0.1779
H8 H 0.1858 -0.2673 0.1730
O4 O 0.171(3) 0.2269(16) 0.133(3)
H9 H 0.1909 0.2439 0.1977
H10 H 0.2179 0.2060 0.1258
O6 O 0.5000 -0.251(3) 0.2500
H11 H 0.4532 -0.2537 0.1840
H11B H 0.5468 -0.2537 0.3160
O8 O 0.0498(15) -0.0629(17) 0.026(2)
H12 H 0.0691 -0.0676 0.0939
H13 H 0.0321 -0.0220 -0.0145
O10 O 0.005(3) 0.209(3) 0.064(5)
H14 H 0.0222 0.2332 0.1236
H15 H -0.0400 0.2357 0.0183
loop_
_geom_bond_atom_site_label_1
_geom_bond_atom_site_label_2
_geom_bond_site_symmetry_1
_geom_bond_site_symmetry_2
Pr1 O12 1_555 1_555
Cu1 N1 1_555 1_555
C1 C2 1_555 1_555
C2 C3 1_555 1_555
C3 H1 1_555 1_555
C4 C3 1_555 1_555
H2 C4 1_555 1_555
C5 C4 1_555 1_555
H3 C5 1_555 1_555
C6 C5 1_555 1_555
C7 C6 1_555 1_555
C8 C9 1_555 1_555
C9 C10 1_555 1_555
C10 H4 1_555 1_555
C11 C10 1_555 1_555
H5 C11 1_555 1_555
C12 C11 1_555 1_555
H6 C12 1_555 1_555
C13 C12 1_555 1_555
C14 C13 1_555 1_555
N1 C2 1_555 1_555
N2 C9 1_555 1_555
O1 Cu1 1_555 1_555
O2 H7 1_555 1_555
H8 O2 1_555 1_555
O3 Cu1 1_555 1_555
O4 H9 1_555 1_555
H10 O4 1_555 1_555
O5 C7 1_555 1_555
O6 H11 1_555 1_555
O7 C8 1_555 1_555
O8 H12 1_555 1_555
H13 O8 1_555 1_555
O9 C8 1_555 1_555
O10 H14 1_555 1_555
H15 O10 1_555 1_555
O11 C14 1_555 1_555
O12 C14 1_555 1_555
O13 Pr1 1_555 1_555
H16 O13 1_555 1_555
H17 O13 1_555 1_555
O14 Pr1 1_555 1_555
H18 O14 1_555 1_555
H19 O14 1_555 1_555
O15 Pr1 1_555 1_555
Cu1B N1B 1_555 1_555
Cu1G N2 1_555 1_555
Cu1E N2B 1_555 1_555
C1B C2B 1_555 1_555
C2B C3B 1_555 1_555
C3B H1B 1_555 1_555
C4B C3B 1_555 1_555
H2B C4B 1_555 1_555
C5B C4B 1_555 1_555
H3B C5B 1_555 1_555
C6B C5B 1_555 1_555
C7B C6B 1_555 1_555
C8B C9B 1_555 1_555
C9B C10B 1_555 1_555
C10B H4B 1_555 1_555
C11B C10B 1_555 1_555
H5B C11B 1_555 1_555
C12B C11B 1_555 1_555
H6B C12B 1_555 1_555
C13B C12B 1_555 1_555
C14B C13B 1_555 1_555
N1B C2B 1_555 1_555
N2B C9B 1_555 1_555
N2G Cu1 1_555 1_555
N2E Cu1B 1_555 1_555
O1B Cu1B 1_555 1_555
O3B Cu1B 1_555 1_555
O5B C7B 1_555 1_555
H11B O6 1_555 1_555
O7B C8B 1_555 1_555
O9B Cu1E 1_555 1_555
O9G Cu1 1_555 1_555
O9E Cu1B 1_555 1_555
O11B Cu1E 1_555 1_555
O11G Cu1 1_555 1_555
O11E Cu1B 1_555 1_555
O12B Pr1 1_555 1_555
O13B Pr1 1_555 1_555
H16B O13B 1_555 1_555
H17B O13B 1_555 1_555
O14B Pr1 1_555 1_555
H18B O14B 1_555 1_555
H19B O14B 1_555 1_555
O15B Pr1 1_555 1_555
C1 O1 1_555 1_555
C1 O15 1_555 1_555
C6 N1 1_555 1_555
C7 O3 1_555 1_555
C13 N2 1_555 1_555
O9 Cu1G 1_555 1_555
O11 Cu1G 1_555 1_555
C1B O1B 1_555 1_555
C1B O15B 1_555 1_555
C6B N1B 1_555 1_555
C7B O3B 1_555 1_555
C8B O9B 1_555 1_555
C13B N2B 1_555 1_555
C14B O11B 1_555 1_555
C14B O12B 1_555 1_555

#END
