
#######################################################################
#
#                 Cambridge Crystallographic Data Centre
#                                CCDC 
#
#######################################################################
#
# If this CIF has been generated from an entry in the Cambridge 
# Structural Database, then it will include bibliographic, chemical, 
# crystal, experimental, refinement or atomic coordinate data resulting 
# from the CCDC's data processing and validation procedures.
#
#######################################################################

data_FIJCEI
_symmetry_cell_setting           triclinic
_symmetry_space_group_name_H-M   'P -1'
_symmetry_Int_Tables_number      2
_space_group_name_Hall           '-P 1'
loop_
_symmetry_equiv_pos_site_id
_symmetry_equiv_pos_as_xyz
1 x,y,z
2 -x,-y,-z
_cell_length_a                   10.113(2)
_cell_length_b                   11.391(2)
_cell_length_c                   13.978(3)
_cell_angle_alpha                73.76(3)
_cell_angle_beta                 70.00(3)
_cell_angle_gamma                67.92(3)
_cell_volume                     1380.88
loop_
_atom_site_label
_atom_site_type_symbol
_atom_site_fract_x
_atom_site_fract_y
_atom_site_fract_z
Zn1 Zn 0.34388(6) 0.79254(6) 0.44016(4)
O1 O 0.0961(4) 1.1937(4) 0.8117(3)
N1 N 0.3113(5) 0.8942(5) 0.5590(3)
N2 N 0.3380(5) 1.1178(4) 0.8158(3)
H1 H 0.4237 1.0612 0.7929
N3 N 0.3677(4) 1.6954(5) 1.3233(3)
C1 C 0.1946(6) 1.0021(6) 0.5712(4)
H2 H 0.1289 1.0277 0.5289
C2 C 0.3994(6) 0.8613(6) 0.6211(4)
H3 H 0.4812 0.7849 0.6140
C3 C 0.1672(6) 1.0762(6) 0.6424(4)
H4 H 0.0832 1.1510 0.6488
C4 C 0.3815(6) 0.9284(5) 0.6940(4)
H5 H 0.4483 0.8989 0.7359
C5 C 0.2614(5) 1.0428(6) 0.7056(4)
C6 C 0.2254(6) 1.1249(5) 0.7814(4)
C7 C 0.3352(6) 1.1896(5) 0.8839(4)
C8 C 0.2151(6) 1.2958(6) 0.9178(4)
H6 H 0.1270 1.3210 0.8969
C9 C 0.4628(6) 1.1548(6) 0.9184(4)
H7 H 0.5450 1.0832 0.8969
C10 C 0.2258(6) 1.3628(6) 0.9813(4)
H8 H 0.1446 1.4351 1.0026
C11 C 0.4700(6) 1.2227(6) 0.9823(4)
H9 H 0.5573 1.1975 1.0043
C12 C 0.3522(6) 1.3279(6) 1.0154(4)
C13 C 0.3601(6) 1.4034(6) 1.0779(5)
C14 C 0.3638(6) 1.4693(6) 1.1316(5)
C15 C 0.3652(6) 1.5470(6) 1.1942(4)
C16 C 0.2441(6) 1.6516(6) 1.2250(4)
H10 H 0.1583 1.6748 1.2017
C17 C 0.4911(6) 1.5224(6) 1.2284(4)
H11 H 0.5783 1.4540 1.2079
C18 C 0.2485(6) 1.7207(6) 1.2885(4)
H12 H 0.1634 1.7905 1.3095
C19 C 0.4860(5) 1.5980(5) 1.2912(4)
H13 H 0.5718 1.5800 1.3132
O2 O 0.1404(4) 0.7643(4) 0.5105(3)
N4 N 0.0232(5) 0.6289(5) 0.6318(3)
C20 C 0.1316(6) 0.6806(6) 0.5886(5)
H14 H 0.2102 0.6505 0.6207
C21 C 0.0314(7) 0.5218(7) 0.7165(6)
H15 H 0.1174 0.5066 0.7408
H16 H 0.0411 0.4447 0.6931
H17 H -0.0590 0.5413 0.7730
C22 C -0.0979(9) 0.6642(9) 0.5872(6)
H18 H -0.0925 0.7377 0.5308
H19 H -0.1917 0.6878 0.6403
H20 H -0.0921 0.5913 0.5602
O3 O 0.3754(4) 0.9521(4) 0.3290(3)
O4 O 0.1387(4) 1.0202(4) 0.3436(3)
O5 O 0.2847(4) 1.1200(4) 0.2249(3)
O6 O 0.4674(4) 0.6251(4) 0.5263(3)
O7 O 0.6033(4) 0.7305(4) 0.4069(3)
O8 O 0.7069(4) 0.5584(4) 0.5049(3)
N5 N 0.2630(5) 1.0342(5) 0.2978(3)
N6 N 0.5973(5) 0.6353(5) 0.4790(3)
Zn1_2 Zn 0.34388(6) 1.79254(6) 1.44016(4)
N3_2 N 0.3677(4) 0.6954(5) 0.3233(3)
O9 O 0.1796(5) 0.6576(5) 0.8090(4)
N7 N 0.0567(6) 0.8311(6) 0.8887(4)
C23 C 0.0754(7) 0.7563(7) 0.8249(6)
H21 H 0.0027 0.7808 0.7884
C24 C -0.0710(7) 0.9470(7) 0.9029(5)
H22 H -0.1354 0.9545 0.8612
H23 H -0.0369 1.0227 0.8809
H24 H -0.1263 0.9414 0.9760
C25 C 0.1651(7) 0.8012(7) 0.9462(5)
H25 H 0.2445 0.7218 0.9296
H26 H 0.1166 0.7898 1.0206
H27 H 0.2070 0.8721 0.9271
loop_
_geom_bond_atom_site_label_1
_geom_bond_atom_site_label_2
_geom_bond_site_symmetry_1
_geom_bond_site_symmetry_2
Zn1 N1 1_555 1_555
O1 C6 1_555 1_555
N1 C1 1_555 1_555
N2 H1 1_555 1_555
N3 C18 1_555 1_555
C1 H2 1_555 1_555
C2 N1 1_555 1_555
H3 C2 1_555 1_555
C3 C1 1_555 1_555
H4 C3 1_555 1_555
C4 C2 1_555 1_555
H5 C4 1_555 1_555
C5 C3 1_555 1_555
C6 N2 1_555 1_555
C7 N2 1_555 1_555
C8 C7 1_555 1_555
H6 C8 1_555 1_555
C9 C7 1_555 1_555
H7 C9 1_555 1_555
C10 C8 1_555 1_555
H8 C10 1_555 1_555
C11 C9 1_555 1_555
H9 C11 1_555 1_555
C12 C10 1_555 1_555
C13 C12 1_555 1_555
C14 C13 1_555 1_555
C15 C14 1_555 1_555
C16 C15 1_555 1_555
H10 C16 1_555 1_555
C17 C15 1_555 1_555
H11 C17 1_555 1_555
C18 C16 1_555 1_555
H12 C18 1_555 1_555
C19 N3 1_555 1_555
H13 C19 1_555 1_555
O2 Zn1 1_555 1_555
N4 C20 1_555 1_555
C20 O2 1_555 1_555
H14 C20 1_555 1_555
C21 N4 1_555 1_555
H15 C21 1_555 1_555
H16 C21 1_555 1_555
H17 C21 1_555 1_555
C22 N4 1_555 1_555
H18 C22 1_555 1_555
H19 C22 1_555 1_555
H20 C22 1_555 1_555
O3 Zn1 1_555 1_555
O4 N5 1_555 1_555
O5 N5 1_555 1_555
O6 Zn1 1_555 1_555
O7 Zn1 1_555 1_555
O8 N6 1_555 1_555
N5 O3 1_555 1_555
N6 O6 1_555 1_555
O9 C23 1_555 1_555
N7 C23 1_555 1_555
C23 H21 1_555 1_555
C24 N7 1_555 1_555
H22 C24 1_555 1_555
H23 C24 1_555 1_555
H24 C24 1_555 1_555
C25 N7 1_555 1_555
H25 C25 1_555 1_555
H26 C25 1_555 1_555
H27 C25 1_555 1_555
Zn1_2 N3 1_555 1_555
N3_2 Zn1 1_555 1_555
C4 C5 1_555 1_555
C5 C6 1_555 1_555
C11 C12 1_555 1_555
C17 C19 1_555 1_555
O7 N6 1_555 1_555

#END
