
#######################################################################
#
#                 Cambridge Crystallographic Data Centre
#                                CCDC 
#
#######################################################################
#
# If this CIF has been generated from an entry in the Cambridge 
# Structural Database, then it will include bibliographic, chemical, 
# crystal, experimental, refinement or atomic coordinate data resulting 
# from the CCDC's data processing and validation procedures.
#
#######################################################################

data_FIJDIM
_symmetry_cell_setting           monoclinic
_symmetry_space_group_name_H-M   'C 2/c'
_symmetry_Int_Tables_number      15
_space_group_name_Hall           '-C 2yn'
loop_
_symmetry_equiv_pos_site_id
_symmetry_equiv_pos_as_xyz
1 x,y,z
2 1/2+x,1/2+y,z
3 -x,y,1/2-z
4 1/2-x,1/2+y,1/2-z
5 -x,-y,-z
6 1/2-x,1/2-y,-z
7 x,-y,1/2+z
8 1/2+x,1/2-y,1/2+z
_cell_length_a                   24.7821(16)
_cell_length_b                   10.5842(7)
_cell_length_c                   17.4219(11)
_cell_angle_alpha                90
_cell_angle_beta                 129.9320(10)
_cell_angle_gamma                90
_cell_volume                     3504.11
loop_
_atom_site_label
_atom_site_type_symbol
_atom_site_fract_x
_atom_site_fract_y
_atom_site_fract_z
Mn1 Mn 0.17580(3) 0.18257(6) 0.38865(4)
Mn2 Mn 0.0000 0.28161(8) 0.2500
O1 O 0.09872(14) 0.2688(3) 0.41279(18)
O2 O 0.21139(14) 0.3059(3) 0.52459(19)
O3 O 0.15866(15) 0.6531(3) 0.8091(2)
O4 O 0.04686(15) 0.5878(3) 0.7158(2)
O5 O 0.14674(16) 0.0695(3) 0.2624(2)
O6 O 0.05047(15) 0.1300(3) 0.23390(19)
O7 O 0.18141(18) 0.0164(3) 0.4635(3)
N1 N 0.1460(4) -0.1690(6) 0.4829(5)
C1 C 0.1499(2) 0.3171(4) 0.4946(3)
C2 C 0.1389(2) 0.3831(4) 0.5596(3)
C3 C 0.0761(3) 0.3727(5) 0.5417(4)
H1 H 0.0393 0.3217 0.4881
C4 C 0.1925(2) 0.4582(4) 0.6389(3)
H2 H 0.2363 0.4645 0.6530
C5 C 0.0667(3) 0.4369(5) 0.6019(3)
H3 H 0.0239 0.4269 0.5902
C6 C 0.1818(2) 0.5236(5) 0.6969(3)
H4 H 0.2185 0.5752 0.7501
C7 C 0.1187(2) 0.5153(4) 0.6790(3)
C8 C 0.1071(2) 0.5904(4) 0.7404(3)
C9 C 0.0816(2) 0.0818(4) 0.2053(3)
C10 C 0.0390(2) 0.0376(4) 0.0994(3)
C11 C -0.0329(2) 0.0558(5) 0.0317(3)
H5 H -0.0558 0.0943 0.0532
C12 C 0.0720(2) -0.0186(5) 0.0672(3)
H6 H 0.1215 -0.0316 0.1129
C13 C 0.1402(4) -0.0652(7) 0.4311(5)
H7 H 0.0991 -0.0590 0.3627
C14 C 0.0842(5) -0.2571(8) 0.4317(7)
H8 H 0.0818 -0.2945 0.4816
H9 H 0.0400 -0.2099 0.3821
C15 C 0.2013(4) -0.1713(6) 0.5915(7)
H10 H 0.2156 -0.0832 0.6155
H11 H 0.1813 -0.2066 0.6212
C16 C 0.0912(6) -0.3476(9) 0.3864(8)
H12 H 0.0901 -0.3106 0.3339
H13 H 0.0524 -0.4081 0.3564
H14 H 0.1361 -0.3912 0.4353
C17 C 0.2629(5) -0.2426(8) 0.6283(8)
H15 H 0.2489 -0.3257 0.5959
H16 H 0.2923 -0.2534 0.7009
H17 H 0.2896 -0.1975 0.6131
Mn1B Mn -0.17580(3) 0.18257(6) 0.11135(4)
Mn1E Mn 0.32420(3) 0.31743(6) 0.61135(4)
Mn1F Mn 0.17580(3) 0.81743(6) 0.88865(4)
Mn1D Mn -0.17580(3) -0.18257(6) -0.38865(4)
Mn1G Mn -0.32420(3) 0.31743(6) -0.11135(4)
Mn1D_2 Mn -0.17580(3) 0.81743(6) -0.38865(4)
Mn2F Mn 0.0000 0.71839(8) 0.7500
Mn2F_2 Mn 0.0000 -0.28161(8) -0.2500
Mn2F_3 Mn 0.0000 0.71839(8) -0.2500
O1B O -0.09872(14) 0.2688(3) 0.08721(18)
O2B O -0.21139(14) 0.3059(3) -0.02459(19)
O2E O 0.28861(14) 0.1941(3) 0.47541(19)
O2G O -0.28861(14) 0.1941(3) 0.02459(19)
O3B O -0.15866(15) 0.6531(3) -0.3091(2)
O3F O 0.15866(15) 0.3469(3) 0.3091(2)
O3D O -0.15866(15) 0.3469(3) 0.1909(2)
O4B O -0.04686(15) 0.5878(3) -0.2158(2)
O4F O 0.04686(15) 0.4122(3) 0.2158(2)
O4D O -0.04686(15) 0.4122(3) 0.2842(2)
O5D O -0.14674(16) -0.0695(3) -0.2624(2)
O5B O -0.14674(16) 0.0695(3) 0.2376(2)
O6D O -0.05047(15) -0.1300(3) -0.23390(19)
O6B O -0.05047(15) 0.1300(3) 0.26610(19)
O7B O -0.18141(18) 0.0164(3) 0.0365(3)
N1B N -0.1460(4) -0.1690(6) 0.0171(5)
C1B C -0.1499(2) 0.3171(4) 0.0054(3)
C2B C -0.1389(2) 0.3831(4) -0.0596(3)
C3B C -0.0761(3) 0.3727(5) -0.0417(4)
H1B H -0.0393 0.3217 0.0119
C4B C -0.1925(2) 0.4582(4) -0.1389(3)
H2B H -0.2363 0.4645 -0.1530
C5B C -0.0667(3) 0.4369(5) -0.1019(3)
H3B H -0.0239 0.4269 -0.0902
C6B C -0.1818(2) 0.5236(5) -0.1969(3)
H4B H -0.2185 0.5752 -0.2501
C7B C -0.1187(2) 0.5153(4) -0.1790(3)
C8B C -0.1071(2) 0.5904(4) -0.2404(3)
C9D C -0.0816(2) -0.0818(4) -0.2053(3)
C10D C -0.0390(2) -0.0376(4) -0.0994(3)
C11D C 0.0329(2) -0.0558(5) -0.0317(3)
H5D H 0.0558 -0.0943 -0.0532
C12D C -0.0720(2) 0.0186(5) -0.0672(3)
H6D H -0.1215 0.0316 -0.1129
C13B C -0.1402(4) -0.0652(7) 0.0689(5)
H7B H -0.0991 -0.0590 0.1373
C14B C -0.0842(5) -0.2571(8) 0.0683(7)
H8B H -0.0818 -0.2945 0.0184
H9B H -0.0400 -0.2099 0.1179
C15B C -0.2013(4) -0.1713(6) -0.0915(7)
H10B H -0.2156 -0.0832 -0.1155
H11B H -0.1813 -0.2066 -0.1212
C16B C -0.0912(6) -0.3476(9) 0.1136(8)
H12B H -0.0901 -0.3106 0.1661
H13B H -0.0524 -0.4081 0.1436
H14B H -0.1361 -0.3912 0.0647
C17B C -0.2629(5) -0.2426(8) -0.1283(8)
H15B H -0.2489 -0.3257 -0.0959
H16B H -0.2923 -0.2534 -0.2009
H17B H -0.2896 -0.1975 -0.1131
loop_
_geom_bond_atom_site_label_1
_geom_bond_atom_site_label_2
_geom_bond_site_symmetry_1
_geom_bond_site_symmetry_2
Mn1 O1 1_555 1_555
Mn2 O1 1_555 1_555
O1 C1 1_555 1_555
O2 Mn1 1_555 1_555
O3 C8 1_555 1_555
O4 C8 1_555 1_555
O5 Mn1 1_555 1_555
O6 Mn2 1_555 1_555
O7 Mn1 1_555 1_555
N1 C13 1_555 1_555
C1 O2 1_555 1_555
C2 C1 1_555 1_555
C3 C2 1_555 1_555
H1 C3 1_555 1_555
C4 C2 1_555 1_555
H2 C4 1_555 1_555
C5 C3 1_555 1_555
H3 C5 1_555 1_555
C6 C4 1_555 1_555
H4 C6 1_555 1_555
C7 C5 1_555 1_555
C8 C7 1_555 1_555
C9 O5 1_555 1_555
C10 C9 1_555 1_555
C11 C10 1_555 1_555
H5 C11 1_555 1_555
C12 C10 1_555 1_555
H6 C12 1_555 1_555
C13 O7 1_555 1_555
H7 C13 1_555 1_555
C14 N1 1_555 1_555
H8 C14 1_555 1_555
H9 C14 1_555 1_555
C15 N1 1_555 1_555
H10 C15 1_555 1_555
H11 C15 1_555 1_555
C16 C14 1_555 1_555
H12 C16 1_555 1_555
H13 C16 1_555 1_555
H14 C16 1_555 1_555
C17 C15 1_555 1_555
H15 C17 1_555 1_555
H16 C17 1_555 1_555
H17 C17 1_555 1_555
Mn1B O1B 1_555 1_555
Mn1E O2 1_555 1_555
Mn1F O3 1_555 1_555
Mn1D O5D 1_555 1_555
Mn1G O2B 1_555 1_555
Mn1D_2 O3B 1_555 1_555
Mn2F O4 1_555 1_555
Mn2F_2 O6D 1_555 1_555
Mn2F_3 O4B 1_555 1_555
O1B Mn2 1_555 1_555
O2B Mn1B 1_555 1_555
O2E Mn1 1_555 1_555
O2G Mn1B 1_555 1_555
O3B C8B 1_555 1_555
O3F Mn1 1_555 1_555
O3D Mn1B 1_555 1_555
O4B C8B 1_555 1_555
O4F Mn2 1_555 1_555
O4D Mn2 1_555 1_555
O5D C9D 1_555 1_555
O5B Mn1B 1_555 1_555
O6D C9D 1_555 1_555
O6B Mn2 1_555 1_555
O7B Mn1B 1_555 1_555
N1B C13B 1_555 1_555
C1B O1B 1_555 1_555
C2B C1B 1_555 1_555
C3B C2B 1_555 1_555
H1B C3B 1_555 1_555
C4B C2B 1_555 1_555
H2B C4B 1_555 1_555
C5B C3B 1_555 1_555
H3B C5B 1_555 1_555
C6B C4B 1_555 1_555
H4B C6B 1_555 1_555
C7B C5B 1_555 1_555
C8B C7B 1_555 1_555
C9D C10D 1_555 1_555
C10D C11D 1_555 1_555
C11D C12 1_555 1_555
H5D C11D 1_555 1_555
C12D C11 1_555 1_555
H6D C12D 1_555 1_555
C13B O7B 1_555 1_555
H7B C13B 1_555 1_555
C14B N1B 1_555 1_555
H8B C14B 1_555 1_555
H9B C14B 1_555 1_555
C15B N1B 1_555 1_555
H10B C15B 1_555 1_555
H11B C15B 1_555 1_555
C16B C14B 1_555 1_555
H12B C16B 1_555 1_555
H13B C16B 1_555 1_555
H14B C16B 1_555 1_555
C17B C15B 1_555 1_555
H15B C17B 1_555 1_555
H16B C17B 1_555 1_555
H17B C17B 1_555 1_555
O6 C9 1_555 1_555
C6 C7 1_555 1_555
Mn1E O2E 1_555 1_555
Mn1G O2G 1_555 1_555
O2B C1B 1_555 1_555
C6B C7B 1_555 1_555
C10D C12D 1_555 1_555

#END
