
#######################################################################
#
#                 Cambridge Crystallographic Data Centre
#                                CCDC 
#
#######################################################################
#
# If this CIF has been generated from an entry in the Cambridge 
# Structural Database, then it will include bibliographic, chemical, 
# crystal, experimental, refinement or atomic coordinate data resulting 
# from the CCDC's data processing and validation procedures.
#
#######################################################################

data_FIJGUC
_symmetry_cell_setting           orthorhombic
_symmetry_space_group_name_H-M   'P b c a'
_symmetry_Int_Tables_number      61
_space_group_name_Hall           '-P 2ac 2ab'
loop_
_symmetry_equiv_pos_site_id
_symmetry_equiv_pos_as_xyz
1 x,y,z
2 1/2-x,-y,1/2+z
3 -x,1/2+y,1/2-z
4 1/2+x,1/2-y,-z
5 -x,-y,-z
6 1/2+x,y,1/2-z
7 x,1/2-y,1/2+z
8 1/2-x,1/2+y,z
_cell_length_a                   6.3861(5)
_cell_length_b                   8.0420(7)
_cell_length_c                   26.839(2)
_cell_angle_alpha                90
_cell_angle_beta                 90
_cell_angle_gamma                90
_cell_volume                     1378.37
loop_
_atom_site_label
_atom_site_type_symbol
_atom_site_fract_x
_atom_site_fract_y
_atom_site_fract_z
Pb1 Pb 0.84475(11) 0.03922(8) 0.06133(2)
I1 I 0.36843(16) 0.19094(14) 0.04709(5)
O1 O 0.8610(18) 0.3219(16) 0.1026(5)
O2 O 0.955(2) 0.4720(13) 0.1695(5)
N1 N 0.992(3) 0.0336(16) 0.1472(6)
N2 N 1.045(3) 0.0003(18) 0.2268(5)
H1 H 1.0640 -0.0475 0.2550
N3 N 1.019(2) 0.1669(18) 0.2197(5)
C1 C 0.937(3) 0.339(2) 0.1474(6)
C2 C 0.990(3) 0.180(2) 0.1714(6)
C3 C 1.035(3) -0.076(2) 0.1832(6)
H2 H 1.0558 -0.1894 0.1783
Pb1G Pb 0.65525(11) 0.53922(8) 0.06133(2)
I1G I 1.13157(16) -0.30906(14) 0.04709(5)
O1G O 0.6390(18) -0.1781(16) 0.1026(5)
loop_
_geom_bond_atom_site_label_1
_geom_bond_atom_site_label_2
_geom_bond_site_symmetry_1
_geom_bond_site_symmetry_2
Pb1 I1 1_555 1_555
I1 Pb1G 1_555 1_555
O1 Pb1 1_555 1_555
O2 C1 1_555 1_555
N1 Pb1 1_555 1_555
N2 H1 1_555 1_555
N3 N2 1_555 1_555
C1 O1 1_555 1_555
C2 N1 1_555 1_555
C3 N1 1_555 1_555
H2 C3 1_555 1_555
Pb1G O1 1_555 1_555
I1G Pb1 1_555 1_555
O1G Pb1 1_555 1_555
N2 C3 1_555 1_555
N3 C2 1_555 1_555
C1 C2 1_555 1_555

#END
