
#######################################################################
#
#                 Cambridge Crystallographic Data Centre
#                                CCDC 
#
#######################################################################
#
# If this CIF has been generated from an entry in the Cambridge 
# Structural Database, then it will include bibliographic, chemical, 
# crystal, experimental, refinement or atomic coordinate data resulting 
# from the CCDC's data processing and validation procedures.
#
#######################################################################

data_FIJNOC
_symmetry_cell_setting           monoclinic
_symmetry_space_group_name_H-M   'I a'
_symmetry_Int_Tables_number      9
_space_group_name_Hall           'I -2ya'
loop_
_symmetry_equiv_pos_site_id
_symmetry_equiv_pos_as_xyz
1 x,y,z
2 1/2+x,-y,z
3 1/2+x,1/2+y,1/2+z
4 x,1/2-y,1/2+z
_cell_length_a                   7.1203(5)
_cell_length_b                   22.2475(15)
_cell_length_c                   20.2652(16)
_cell_angle_alpha                90
_cell_angle_beta                 90.6080(10)
_cell_angle_gamma                90
_cell_volume                     3210.01
loop_
_atom_site_label
_atom_site_type_symbol
_atom_site_fract_x
_atom_site_fract_y
_atom_site_fract_z
Cd1 Cd 0.28014(6) 0.39440(2) 0.15243(2)
Cd2 Cd -0.22098(6) 0.10138(2) -0.00556(2)
C1 C 0.2669(13) 0.3659(3) 0.3057(4)
H1 H 0.2981 0.4074 0.3071
C2 C 0.2496(12) 0.3348(4) 0.3655(4)
H2 H 0.2678 0.3550 0.4064
C3 C 0.2060(12) 0.2747(3) 0.3641(4)
H3 H 0.1969 0.2523 0.4038
C4 C 0.1751(10) 0.2471(3) 0.3023(4)
C5 C 0.1982(10) 0.2812(3) 0.2465(4)
H4 H 0.1825 0.2622 0.2048
C6 C 0.1251(11) 0.1838(3) 0.2994(4)
C7 C 0.0283(11) 0.1029(3) 0.2562(4)
C8 C -0.1006(12) 0.0879(3) 0.1447(4)
H5 H -0.0982 0.1303 0.1398
C9 C -0.0453(12) 0.0639(3) 0.2042(4)
C10 C -0.0521(12) 0.0021(4) 0.2137(4)
H6 H -0.0189 -0.0155 0.2549
C11 C -0.1095(12) -0.0330(3) 0.1602(4)
H7 H -0.1132 -0.0755 0.1642
C12 C -0.1612(11) -0.0058(4) 0.1011(4)
H8 H -0.2003 -0.0303 0.0651
C13 C 0.3657(11) 0.5020(3) 0.0446(4)
H9 H 0.3313 0.5270 0.0805
C14 C 0.4147(11) 0.5286(3) -0.0132(4)
H10 H 0.4105 0.5711 -0.0175
C15 C 0.4709(11) 0.4933(4) -0.0660(4)
H11 H 0.5058 0.5108 -0.1068
C16 C 0.4743(11) 0.4309(3) -0.0567(4)
C17 C 0.4154(11) 0.4078(3) 0.0036(4)
H12 H 0.4126 0.3653 0.0089
C18 C 0.5375(12) 0.3927(3) -0.1090(4)
C19 C 0.6293(10) 0.3105(4) -0.1531(4)
C20 C 0.6927(11) 0.2129(3) -0.0990(4)
H13 H 0.6720 0.2316 -0.0575
C21 C 0.6780(10) 0.2470(3) -0.1570(4)
C22 C 0.7078(11) 0.2193(3) -0.2183(4)
H14 H 0.6970 0.2415 -0.2582
C23 C 0.7530(12) 0.1592(3) -0.2191(4)
H15 H 0.7758 0.1395 -0.2598
C24 C 0.7650(14) 0.1281(3) -0.1617(5)
H16 H 0.7950 0.0865 -0.1637
N1 N 0.2420(10) 0.3402(3) 0.2475(3)
N2 N 0.1337(10) 0.1443(3) 0.3449(3)
N3 N 0.0671(12) 0.0905(3) 0.3158(4)
N4 N -0.1576(10) 0.0546(3) 0.0934(3)
N5 N 0.3634(9) 0.4415(3) 0.0538(3)
N6 N 0.5748(10) 0.4056(3) -0.1690(4)
N7 N 0.6353(10) 0.3505(3) -0.1990(3)
N8 N 0.7364(11) 0.1530(3) -0.1014(3)
N9 N -0.0118(11) 0.3270(3) 0.0789(3)
N10 N 0.5417(10) 0.4984(3) 0.2129(3)
N11 N -0.5292(11) 0.1759(3) 0.0688(4)
N12 N -0.3808(10) -0.0168(3) -0.0644(4)
O1 O 0.0604(8) 0.1618(2) 0.2410(2)
O2 O 0.5675(8) 0.3328(2) -0.0947(3)
O3 O 0.5321(9) 0.3271(3) 0.1322(3)
H17 H 0.539(12) 0.2934(19) 0.117(5)
H18 H 0.641(5) 0.340(4) 0.131(5)
O4 O 0.0054(10) 0.1761(3) 0.0207(3)
H19 H -0.031(12) 0.209(2) 0.031(5)
H20 H 0.116(5) 0.170(4) 0.028(6)
O5 O -0.0694(11) 0.3683(3) 0.1174(3)
O6 O 0.1563(9) 0.3157(3) 0.0798(3)
O7 O -0.1260(10) 0.2989(3) 0.0438(4)
O8 O 0.4972(9) 0.4451(3) 0.2205(3)
O9 O 0.6367(9) 0.5134(2) 0.1631(3)
O10 O 0.4978(11) 0.5377(3) 0.2522(4)
O11 O -0.3607(15) 0.1834(5) 0.0654(5)
O12 O -0.5807(19) 0.1373(3) 0.0320(4)
O13 O -0.6297(15) 0.1987(4) 0.1078(5)
O14 O -0.4277(9) 0.0227(3) -0.0210(3)
O15 O -0.2727(9) -0.0064(3) -0.1075(3)
O16 O -0.4502(9) -0.0688(3) -0.0579(3)
Cd1A Cd 0.78014(6) 0.60560(2) 0.15243(2)
Cd2_2 Cd 0.77902(6) 0.10138(2) -0.00556(2)
Cd2A Cd -0.72098(6) -0.10138(2) -0.00556(2)
N8_2 N -0.2636(11) 0.1530(3) -0.1014(3)
O9A O 0.1367(9) 0.4866(2) 0.1631(3)
O16A O 0.0498(9) 0.0688(3) -0.0579(3)
loop_
_geom_bond_atom_site_label_1
_geom_bond_atom_site_label_2
_geom_bond_site_symmetry_1
_geom_bond_site_symmetry_2
Cd1 N1 1_555 1_555
Cd2 N4 1_555 1_555
C1 H1 1_555 1_555
C2 C1 1_555 1_555
H2 C2 1_555 1_555
C3 C2 1_555 1_555
H3 C3 1_555 1_555
C4 C3 1_555 1_555
C5 C4 1_555 1_555
H4 C5 1_555 1_555
C6 C4 1_555 1_555
C7 C9 1_555 1_555
C8 H5 1_555 1_555
C9 C8 1_555 1_555
C10 C9 1_555 1_555
H6 C10 1_555 1_555
C11 C10 1_555 1_555
H7 C11 1_555 1_555
C12 C11 1_555 1_555
H8 C12 1_555 1_555
C13 H9 1_555 1_555
C14 C13 1_555 1_555
H10 C14 1_555 1_555
C15 C14 1_555 1_555
H11 C15 1_555 1_555
C16 C15 1_555 1_555
C17 C16 1_555 1_555
H12 C17 1_555 1_555
C18 C16 1_555 1_555
C19 C21 1_555 1_555
C20 H13 1_555 1_555
C21 C20 1_555 1_555
C22 C21 1_555 1_555
H14 C22 1_555 1_555
C23 C22 1_555 1_555
H15 C23 1_555 1_555
C24 C23 1_555 1_555
H16 C24 1_555 1_555
N1 C1 1_555 1_555
N2 C6 1_555 1_555
N3 C7 1_555 1_555
N4 C8 1_555 1_555
N5 Cd1 1_555 1_555
N6 C18 1_555 1_555
N7 C19 1_555 1_555
N8 C20 1_555 1_555
N9 O5 1_555 1_555
N10 O8 1_555 1_555
N11 O11 1_555 1_555
N12 O14 1_555 1_555
O1 C6 1_555 1_555
O2 C18 1_555 1_555
O3 Cd1 1_555 1_555
H17 O3 1_555 1_555
H18 O3 1_555 1_555
O4 Cd2 1_555 1_555
H19 O4 1_555 1_555
H20 O4 1_555 1_555
O5 Cd1 1_555 1_555
O6 Cd1 1_555 1_555
O7 N9 1_555 1_555
O8 Cd1 1_555 1_555
O9 N10 1_555 1_555
O10 N10 1_555 1_555
O11 Cd2 1_555 1_555
O12 N11 1_555 1_555
O13 N11 1_555 1_555
O14 Cd2 1_555 1_555
O15 N12 1_555 1_555
O16 N12 1_555 1_555
Cd1A O9 1_555 1_555
Cd2_2 N8 1_555 1_555
Cd2A O16 1_555 1_555
N8_2 Cd2 1_555 1_555
O9A Cd1 1_555 1_555
O16A Cd2 1_555 1_555
C5 N1 1_555 1_555
C7 O1 1_555 1_555
C12 N4 1_555 1_555
C13 N5 1_555 1_555
C17 N5 1_555 1_555
C19 O2 1_555 1_555
C24 N8 1_555 1_555
N2 N3 1_555 1_555
N6 N7 1_555 1_555
N9 O6 1_555 1_555

#END
