
#######################################################################
#
#                 Cambridge Crystallographic Data Centre
#                                CCDC 
#
#######################################################################
#
# If this CIF has been generated from an entry in the Cambridge 
# Structural Database, then it will include bibliographic, chemical, 
# crystal, experimental, refinement or atomic coordinate data resulting 
# from the CCDC's data processing and validation procedures.
#
#######################################################################

data_FIJQIA
_symmetry_cell_setting           monoclinic
_symmetry_space_group_name_H-M   'P 21/c'
_symmetry_Int_Tables_number      14
_space_group_name_Hall           '-P 2ybc'
loop_
_symmetry_equiv_pos_site_id
_symmetry_equiv_pos_as_xyz
1 x,y,z
2 -x,1/2+y,1/2-z
3 -x,-y,-z
4 x,1/2-y,1/2+z
_cell_length_a                   12.3771(3)
_cell_length_b                   14.8775(3)
_cell_length_c                   18.1388(4)
_cell_angle_alpha                90
_cell_angle_beta                 106.611(2)
_cell_angle_gamma                90
_cell_volume                     3200.69
loop_
_atom_site_label
_atom_site_type_symbol
_atom_site_fract_x
_atom_site_fract_y
_atom_site_fract_z
Mn1 Mn 1.04900(2) 0.581816(17) 0.886096(15)
O1 O 1.13100(10) 0.45894(8) 0.93796(7)
O2 O 1.01352(10) 0.21332(8) 0.64596(7)
O3 O 0.80119(10) 0.10570(8) 0.65268(7)
O4 O 0.97600(10) 0.51657(8) 0.77780(7)
O5 O 1.10494(11) 0.63354(8) 1.00392(7)
H1 H 1.0746 0.6813 1.0136
H2 H 1.1032 0.5968 1.0393
O6 O 0.89182(10) 0.53727(9) 0.91522(7)
H3 H 0.8278 0.5408 0.8822
H4 H 0.8807 0.5486 0.9582
N1 N 1.17509(12) 0.39643(9) 0.83661(8)
H5 H 1.1271 0.4338 0.8066
N2 N 1.28036(12) 0.36458(10) 0.96152(9)
H6 H 1.2845 0.3625 1.0107
N3 N 1.13525(12) 0.26961(9) 0.75322(8)
H7 H 1.1041 0.2333 0.7795
N4 N 1.13923(12) 0.31698(10) 0.63226(9)
H8 H 1.1249 0.3038 0.5831
N5 N 0.82244(12) 0.24828(9) 0.69825(9)
H9 H 0.8842 0.2536 0.6838
N6 N 0.68562(12) 0.15579(10) 0.72110(9)
H10 H 0.6457 0.1062 0.7086
N7 N 0.87827(12) 0.38600(9) 0.76351(9)
H11 H 0.9309 0.3648 0.8032
N8 N 0.82707(12) 0.49975(10) 0.67298(8)
H12 H 0.8335 0.5562 0.6604
C1 C 1.19437(14) 0.40796(11) 0.91256(10)
C2 C 1.36808(14) 0.32032(11) 0.93400(10)
C3 C 1.30469(14) 0.27011(11) 0.86098(10)
H13 H 1.2597 0.2217 0.8753
H14 H 1.3606 0.2412 0.8390
C4 C 1.22547(13) 0.32811(11) 0.79809(10)
C5 C 1.09501(14) 0.26550(11) 0.67626(10)
C6 C 1.21105(14) 0.39485(11) 0.66262(10)
C7 C 1.28504(14) 0.36867(11) 0.74265(10)
H15 H 1.3262 0.4230 0.7671
H16 H 1.3420 0.3249 0.7363
C8 C 1.42847(16) 0.25271(12) 0.99513(11)
H17 H 1.3741 0.2084 1.0028
H18 H 1.4628 0.2843 1.0436
H19 H 1.4873 0.2220 0.9782
C9 C 1.45240(16) 0.39061(13) 0.92300(11)
H20 H 1.5053 0.3624 0.8989
H21 H 1.4941 0.4153 0.9731
H22 H 1.4118 0.4391 0.8899
C10 C 1.28749(15) 0.41087(12) 0.61135(10)
H23 H 1.3337 0.3573 0.6116
H24 H 1.3367 0.4624 0.6308
H25 H 1.2413 0.4232 0.5587
C11 C 1.13602(15) 0.47691(12) 0.66083(11)
H26 H 1.0988 0.4935 0.6073
H27 H 1.1823 0.5273 0.6871
H28 H 1.0789 0.4625 0.6869
C12 C 0.77085(13) 0.16757(11) 0.68959(10)
C13 C 0.65246(14) 0.21758(11) 0.77434(10)
C14 C 0.73859(14) 0.29401(11) 0.79581(10)
H29 H 0.7037 0.3451 0.8156
H30 H 0.8036 0.2732 0.8381
C15 C 0.78203(14) 0.32767(11) 0.73028(10)
C16 C 0.89470(14) 0.46960(11) 0.73924(10)
C17 C 0.74220(14) 0.44340(12) 0.61975(10)
C18 C 0.69402(14) 0.38034(11) 0.66891(10)
H31 H 0.6430 0.3369 0.6345
H32 H 0.6481 0.4162 0.6947
C19 C 0.65306(16) 0.16726(13) 0.84806(11)
H33 H 0.5995 0.1172 0.8354
H34 H 0.6312 0.2084 0.8835
H35 H 0.7289 0.1439 0.8725
C20 C 0.53264(14) 0.25234(12) 0.73711(12)
H36 H 0.5278 0.2772 0.6862
H37 H 0.5147 0.2994 0.7696
H38 H 0.4789 0.2027 0.7317
C21 C 0.79656(17) 0.39523(13) 0.56457(11)
H39 H 0.8198 0.4397 0.5322
H40 H 0.7419 0.3537 0.5319
H41 H 0.8627 0.3615 0.5943
C22 C 0.64794(16) 0.50497(13) 0.57457(12)
H42 H 0.6139 0.5357 0.6102
H43 H 0.5904 0.4692 0.5380
H44 H 0.6790 0.5496 0.5465
Mn1A Mn 0.95100(2) 0.081816(17) 0.613904(15)
O2A O 0.98648(10) 0.71332(8) 0.85404(7)
O3A O 1.19881(10) 0.60570(8) 0.84732(7)
O7 O 1.01458(12) 0.24142(10) 0.86486(8)
O8 O 1.11077(12) 0.13095(9) 0.92864(8)
O9 O 0.99440(12) 0.20424(9) 0.97543(8)
N9 N 1.04034(12) 0.19206(10) 0.92264(9)
O10 O 0.68729(12) 0.52441(12) 0.80906(10)
O11 O 0.50549(11) 0.51749(9) 0.77695(8)
O12 O 0.59737(13) 0.57634(12) 0.88555(9)
N10 N 0.59680(13) 0.53910(10) 0.82425(9)
loop_
_geom_bond_atom_site_label_1
_geom_bond_atom_site_label_2
_geom_bond_site_symmetry_1
_geom_bond_site_symmetry_2
Mn1 O1 1_555 1_555
O1 C1 1_555 1_555
O2 C5 1_555 1_555
O3 C12 1_555 1_555
O4 Mn1 1_555 1_555
O5 Mn1 1_555 1_555
H1 O5 1_555 1_555
H2 O5 1_555 1_555
O6 Mn1 1_555 1_555
H3 O6 1_555 1_555
H4 O6 1_555 1_555
N1 H5 1_555 1_555
N2 H6 1_555 1_555
N3 H7 1_555 1_555
N4 H8 1_555 1_555
N5 H9 1_555 1_555
N6 H10 1_555 1_555
N7 H11 1_555 1_555
N8 H12 1_555 1_555
C1 N1 1_555 1_555
C2 N2 1_555 1_555
C3 C2 1_555 1_555
H13 C3 1_555 1_555
H14 C3 1_555 1_555
C4 N1 1_555 1_555
C5 N3 1_555 1_555
C6 N4 1_555 1_555
C7 C4 1_555 1_555
H15 C7 1_555 1_555
H16 C7 1_555 1_555
C8 C2 1_555 1_555
H17 C8 1_555 1_555
H18 C8 1_555 1_555
H19 C8 1_555 1_555
C9 C2 1_555 1_555
H20 C9 1_555 1_555
H21 C9 1_555 1_555
H22 C9 1_555 1_555
C10 C6 1_555 1_555
H23 C10 1_555 1_555
H24 C10 1_555 1_555
H25 C10 1_555 1_555
C11 C6 1_555 1_555
H26 C11 1_555 1_555
H27 C11 1_555 1_555
H28 C11 1_555 1_555
C12 N5 1_555 1_555
C13 N6 1_555 1_555
C14 C13 1_555 1_555
H29 C14 1_555 1_555
H30 C14 1_555 1_555
C15 N5 1_555 1_555
C16 O4 1_555 1_555
C17 N8 1_555 1_555
C18 C15 1_555 1_555
H31 C18 1_555 1_555
H32 C18 1_555 1_555
C19 C13 1_555 1_555
H33 C19 1_555 1_555
H34 C19 1_555 1_555
H35 C19 1_555 1_555
C20 C13 1_555 1_555
H36 C20 1_555 1_555
H37 C20 1_555 1_555
H38 C20 1_555 1_555
C21 C17 1_555 1_555
H39 C21 1_555 1_555
H40 C21 1_555 1_555
H41 C21 1_555 1_555
C22 C17 1_555 1_555
H42 C22 1_555 1_555
H43 C22 1_555 1_555
H44 C22 1_555 1_555
O7 N9 1_555 1_555
O8 N9 1_555 1_555
O9 N9 1_555 1_555
O10 N10 1_555 1_555
O11 N10 1_555 1_555
O12 N10 1_555 1_555
Mn1A O2 1_555 1_555
O2A Mn1 1_555 1_555
O3A Mn1 1_555 1_555
O3 Mn1A 1_555 1_555
N2 C1 1_555 1_555
N3 C4 1_555 1_555
N4 C5 1_555 1_555
N6 C12 1_555 1_555
N7 C15 1_555 1_555
N7 C16 1_555 1_555
N8 C16 1_555 1_555
C3 C4 1_555 1_555
C6 C7 1_555 1_555
C14 C15 1_555 1_555
C17 C18 1_555 1_555

#END
