
#######################################################################
#
#                 Cambridge Crystallographic Data Centre
#                                CCDC 
#
#######################################################################
#
# If this CIF has been generated from an entry in the Cambridge 
# Structural Database, then it will include bibliographic, chemical, 
# crystal, experimental, refinement or atomic coordinate data resulting 
# from the CCDC's data processing and validation procedures.
#
#######################################################################

data_FIJXON
_symmetry_cell_setting           triclinic
_symmetry_space_group_name_H-M   'P -1'
_symmetry_Int_Tables_number      2
_space_group_name_Hall           '-P 1'
loop_
_symmetry_equiv_pos_site_id
_symmetry_equiv_pos_as_xyz
1 x,y,z
2 -x,-y,-z
_cell_length_a                   10.658(3)
_cell_length_b                   11.040(3)
_cell_length_c                   12.475(4)
_cell_angle_alpha                114.960(5)
_cell_angle_beta                 109.552(5)
_cell_angle_gamma                91.748(5)
_cell_volume                     1228.44
loop_
_atom_site_label
_atom_site_type_symbol
_atom_site_fract_x
_atom_site_fract_y
_atom_site_fract_z
Ag1 Ag 0.34921(4) 0.63536(4) 0.21562(3)
Ag2 Ag 0.59808(4) 0.46981(4) 0.31124(3)
C1 C 0.3189(4) 0.5847(5) 0.4400(4)
C2 C 0.1205(5) 0.5075(5) 0.2628(4)
C3 C 0.0659(5) 0.4381(5) 0.3101(5)
H1 H -0.0255 0.3889 0.2658
C4 C 0.1462(5) 0.4413(5) 0.4232(5)
C5 C 0.0426(5) 0.5038(6) 0.1374(5)
H2 H 0.0633 0.5938 0.1429
H3 H -0.0549 0.4791 0.1156
H4 H 0.0682 0.4360 0.0710
C6 C 0.0971(5) 0.3605(6) 0.4763(6)
H5 H 0.1156 0.4189 0.5669
H6 H 0.1444 0.2842 0.4680
H7 H -0.0009 0.3250 0.4291
C7 C 0.6658(4) 0.3795(5) 0.0492(4)
C8 C 0.6606(5) 0.1625(5) -0.0958(5)
C9 C 0.6626(5) 0.1176(5) -0.0081(5)
H8 H 0.6623 0.0245 -0.0279
C10 C 0.6648(5) 0.2099(5) 0.1084(5)
C11 C 0.6551(6) 0.0678(6) -0.2259(5)
H9 H 0.5760 0.0733 -0.2911
H10 H 0.6475 -0.0257 -0.2369
H11 H 0.7382 0.0938 -0.2351
C12 C 0.6689(6) 0.1672(6) 0.2089(6)
H12 H 0.7360 0.2343 0.2922
H13 H 0.6943 0.0777 0.1866
H14 H 0.5790 0.1616 0.2135
C13 C 0.6258(5) 0.7924(5) 0.3784(5)
C14 C 0.7562(4) 0.8910(4) 0.4290(4)
C15 C 0.7748(5) 1.0277(5) 0.5191(5)
H15 H 0.7004 1.0597 0.5405
C16 C 0.8970(5) 1.1150(5) 0.5764(5)
H16 H 0.9066 1.2072 0.6360
C17 C 0.9902(5) 0.9309(4) 0.4527(5)
C18 C 0.8615(5) 0.8463(5) 0.3951(4)
H17 H 0.8474 0.7555 0.3309
C19 C 0.3158(4) 0.3053(5) 0.1414(4)
C20 C 0.1922(4) 0.1912(5) 0.0694(4)
C21 C 0.1443(4) 0.1376(5) 0.1331(4)
H18 H 0.1883 0.1749 0.2235
C22 C 0.0321(5) 0.0292(5) 0.0677(4)
C23 C -0.0177(5) -0.0278(5) 0.1319(5)
H19 H 0.0243 0.0094 0.2224
C24 C 0.1245(5) 0.1345(5) -0.0659(4)
H20 H 0.1548 0.1724 -0.1107
N1 N 0.4435(4) 0.6593(4) 0.5052(4)
H21 H 0.4773 0.7043 0.4740
H22 H 0.4927 0.6639 0.5797
N2 N 0.2472(3) 0.5806(4) 0.3259(3)
N3 N 0.2721(4) 0.5135(4) 0.4899(3)
N4 N 0.6726(4) 0.5108(4) 0.0803(4)
H23 H 0.6752 0.5402 0.0255
H24 H 0.6745 0.5686 0.1559
N5 N 0.6631(4) 0.2937(4) -0.0681(4)
N6 N 0.6663(4) 0.3402(4) 0.1393(4)
O1 O 0.6089(3) 0.6745(3) 0.2928(3)
O2 O 0.5420(3) 0.8359(3) 0.4284(3)
O3 O 0.3311(3) 0.3749(3) 0.0877(3)
O4 O 0.3934(3) 0.3219(3) 0.2491(3)
C13A C 1.3742(5) 1.2076(5) 0.6216(5)
C14A C 1.2438(4) 1.1090(4) 0.5710(4)
C15A C 1.2252(5) 0.9723(5) 0.4809(5)
H15A H 1.2996 0.9403 0.4595
C16A C 1.1030(5) 0.8850(5) 0.4236(5)
H16A H 1.0934 0.7928 0.3640
C17A C 1.0098(5) 1.0691(4) 0.5473(5)
C18A C 1.1385(5) 1.1537(5) 0.6049(4)
H17A H 1.1526 1.2445 0.6691
O1A O 1.3911(3) 1.3255(3) 0.7072(3)
O2A O 1.4580(3) 1.1641(3) 0.5716(3)
C19A C -0.3158(4) -0.3053(5) -0.1414(4)
C20A C -0.1922(4) -0.1912(5) -0.0694(4)
C21A C -0.1443(4) -0.1376(5) -0.1331(4)
H18A H -0.1883 -0.1749 -0.2235
C22A C -0.0321(5) -0.0292(5) -0.0677(4)
C23A C 0.0177(5) 0.0278(5) -0.1319(5)
H19A H -0.0243 -0.0094 -0.2224
C24A C -0.1245(5) -0.1345(5) 0.0659(4)
H20A H -0.1548 -0.1724 0.1107
O3A O -0.3311(3) -0.3749(3) -0.0877(3)
O4A O -0.3934(3) -0.3219(3) -0.2491(3)
Ag1A Ag -0.34921(4) -0.63536(4) -0.21562(3)
Ag2A Ag -0.59808(4) -0.46981(4) -0.31124(3)
C1A C -0.3189(4) -0.5847(5) -0.4400(4)
C2A C -0.1205(5) -0.5075(5) -0.2628(4)
C3A C -0.0659(5) -0.4381(5) -0.3101(5)
H1A H 0.0255 -0.3889 -0.2658
C4A C -0.1462(5) -0.4413(5) -0.4232(5)
C5A C -0.0426(5) -0.5038(6) -0.1374(5)
H2A H -0.0633 -0.5938 -0.1429
H3A H 0.0549 -0.4791 -0.1156
H4A H -0.0682 -0.4360 -0.0710
C6A C -0.0971(5) -0.3605(6) -0.4763(6)
H5A H -0.1156 -0.4189 -0.5669
H6A H -0.1444 -0.2842 -0.4680
H7A H 0.0009 -0.3250 -0.4291
C7A C -0.6658(4) -0.3795(5) -0.0492(4)
C8A C -0.6606(5) -0.1625(5) 0.0958(5)
C9A C -0.6626(5) -0.1176(5) 0.0081(5)
H8A H -0.6623 -0.0245 0.0279
C10A C -0.6648(5) -0.2099(5) -0.1084(5)
C11A C -0.6551(6) -0.0678(6) 0.2259(5)
H9A H -0.5760 -0.0733 0.2911
H10A H -0.6475 0.0257 0.2369
H11A H -0.7382 -0.0938 0.2351
C12A C -0.6689(6) -0.1672(6) -0.2089(6)
H12A H -0.7360 -0.2343 -0.2922
H13A H -0.6943 -0.0777 -0.1866
H14A H -0.5790 -0.1616 -0.2135
N1A N -0.4435(4) -0.6593(4) -0.5052(4)
H21A H -0.4773 -0.7043 -0.4740
H22A H -0.4927 -0.6639 -0.5797
N2A N -0.2472(3) -0.5806(4) -0.3259(3)
N3A N -0.2721(4) -0.5135(4) -0.4899(3)
N4A N -0.6726(4) -0.5108(4) -0.0803(4)
H23A H -0.6752 -0.5402 -0.0255
H24A H -0.6745 -0.5686 -0.1559
N5A N -0.6631(4) -0.2937(4) 0.0681(4)
N6A N -0.6663(4) -0.3402(4) -0.1393(4)
Ag1_2 Ag -0.65079(4) -0.36464(4) 0.21562(3)
Ag1A_2 Ag 0.65079(4) 0.36464(4) -0.21562(3)
Ag1A_3 Ag 1.65079(4) 1.36464(4) 0.78438(3)
Ag2_2 Ag -0.40192(4) -0.53019(4) -0.68876(3)
Ag2A_2 Ag 0.40192(4) 0.53019(4) 0.68876(3)
Ag2A_3 Ag 1.40192(4) 1.53019(4) 0.68876(3)
N3_2 N -0.7279(4) -0.4865(4) -0.5101(3)
N3A_2 N 0.7279(4) 0.4865(4) 0.5101(3)
N5_2 N -0.3369(4) -0.7063(4) -0.0681(4)
N5A_2 N 0.3369(4) 0.7063(4) 0.0681(4)
O1A_2 O -0.6089(3) -0.6745(3) -0.2928(3)
O2A_2 O -0.5420(3) -0.8359(3) -0.4284(3)
loop_
_geom_bond_atom_site_label_1
_geom_bond_atom_site_label_2
_geom_bond_site_symmetry_1
_geom_bond_site_symmetry_2
Ag1 N2 1_555 1_555
Ag2 N6 1_555 1_555
C1 N1 1_555 1_555
C2 C3 1_555 1_555
C3 H1 1_555 1_555
C4 C3 1_555 1_555
C5 C2 1_555 1_555
H2 C5 1_555 1_555
H3 C5 1_555 1_555
H4 C5 1_555 1_555
C6 C4 1_555 1_555
H5 C6 1_555 1_555
H6 C6 1_555 1_555
H7 C6 1_555 1_555
C7 N4 1_555 1_555
C8 C9 1_555 1_555
C9 H8 1_555 1_555
C10 C9 1_555 1_555
C11 C8 1_555 1_555
H9 C11 1_555 1_555
H10 C11 1_555 1_555
H11 C11 1_555 1_555
C12 C10 1_555 1_555
H12 C12 1_555 1_555
H13 C12 1_555 1_555
H14 C12 1_555 1_555
C13 C14 1_555 1_555
C14 C15 1_555 1_555
C15 H15 1_555 1_555
C16 C15 1_555 1_555
H16 C16 1_555 1_555
C17 C18 1_555 1_555
C18 C14 1_555 1_555
H17 C18 1_555 1_555
C19 C20 1_555 1_555
C20 C21 1_555 1_555
C21 H18 1_555 1_555
C22 C21 1_555 1_555
C23 C22 1_555 1_555
H19 C23 1_555 1_555
C24 C20 1_555 1_555
H20 C24 1_555 1_555
N1 H21 1_555 1_555
H22 N1 1_555 1_555
N2 C1 1_555 1_555
N3 C1 1_555 1_555
N4 H23 1_555 1_555
H24 N4 1_555 1_555
N5 C7 1_555 1_555
N6 C7 1_555 1_555
O1 Ag1 1_555 1_555
O2 Ag1 1_555 1_555
O3 Ag1 1_555 1_555
O4 Ag2 1_555 1_555
C13A C14A 1_555 1_555
C14A C15A 1_555 1_555
C15A H15A 1_555 1_555
C16A C17 1_555 1_555
H16A C16A 1_555 1_555
C17A C16 1_555 1_555
C18A C14A 1_555 1_555
H17A C18A 1_555 1_555
O1A C13A 1_555 1_555
O2A C13A 1_555 1_555
C19A C20A 1_555 1_555
C20A C21A 1_555 1_555
C21A H18A 1_555 1_555
C22A C22 1_555 1_555
C23A C24 1_555 1_555
H19A C23A 1_555 1_555
C24A C23 1_555 1_555
H20A C24A 1_555 1_555
O3A C19A 1_555 1_555
O4A C19A 1_555 1_555
Ag1A O3A 1_555 1_555
Ag2A O4A 1_555 1_555
C1A N1A 1_555 1_555
C2A C3A 1_555 1_555
C3A H1A 1_555 1_555
C4A C3A 1_555 1_555
C5A C2A 1_555 1_555
H2A C5A 1_555 1_555
H3A C5A 1_555 1_555
H4A C5A 1_555 1_555
C6A C4A 1_555 1_555
H5A C6A 1_555 1_555
H6A C6A 1_555 1_555
H7A C6A 1_555 1_555
C7A N4A 1_555 1_555
C8A C9A 1_555 1_555
C9A H8A 1_555 1_555
C10A C9A 1_555 1_555
C11A C8A 1_555 1_555
H9A C11A 1_555 1_555
H10A C11A 1_555 1_555
H11A C11A 1_555 1_555
C12A C10A 1_555 1_555
H12A C12A 1_555 1_555
H13A C12A 1_555 1_555
H14A C12A 1_555 1_555
N1A H21A 1_555 1_555
H22A N1A 1_555 1_555
N2A Ag1A 1_555 1_555
N3A C1A 1_555 1_555
N4A H23A 1_555 1_555
H24A N4A 1_555 1_555
N5A C7A 1_555 1_555
N6A Ag2A 1_555 1_555
Ag1_2 N5A 1_555 1_555
Ag1A_2 N5 1_555 1_555
Ag1A_3 O1A 1_555 1_555
Ag2_2 N3A 1_555 1_555
Ag2A_2 N3 1_555 1_555
Ag2A_3 O1A 1_555 1_555
N3_2 Ag2A 1_555 1_555
N3A_2 Ag2 1_555 1_555
N5_2 Ag1A 1_555 1_555
N5A_2 Ag1 1_555 1_555
O1A_2 Ag1A 1_555 1_555
O2A_2 Ag1A 1_555 1_555
Ag2 O1 1_555 1_555
C2 N2 1_555 1_555
C4 N3 1_555 1_555
C8 N5 1_555 1_555
C10 N6 1_555 1_555
C13 O1 1_555 1_555
C13 O2 1_555 1_555
C17 C17A 1_555 1_555
C19 O3 1_555 1_555
C19 O4 1_555 1_555
C15A C16A 1_555 1_555
C17A C18A 1_555 1_555
O2A Ag1A_3 1_555 1_555
C20A C24A 1_555 1_555
C21A C22A 1_555 1_555
C22A C23A 1_555 1_555
Ag2A O1A_2 1_555 1_555
C1A N2A 1_555 1_555
C2A N2A 1_555 1_555
C4A N3A 1_555 1_555
C7A N6A 1_555 1_555
C8A N5A 1_555 1_555
C10A N6A 1_555 1_555

#END
