
#######################################################################
#
#                 Cambridge Crystallographic Data Centre
#                                CCDC 
#
#######################################################################
#
# If this CIF has been generated from an entry in the Cambridge 
# Structural Database, then it will include bibliographic, chemical, 
# crystal, experimental, refinement or atomic coordinate data resulting 
# from the CCDC's data processing and validation procedures.
#
#######################################################################

data_FIJYAZ
_symmetry_cell_setting           monoclinic
_symmetry_space_group_name_H-M   'C 2/c'
_symmetry_Int_Tables_number      15
_space_group_name_Hall           '-C 2yn'
loop_
_symmetry_equiv_pos_site_id
_symmetry_equiv_pos_as_xyz
1 x,y,z
2 -x,y,1/2-z
3 1/2+x,1/2+y,z
4 1/2-x,1/2+y,1/2-z
5 -x,-y,-z
6 x,-y,1/2+z
7 1/2-x,1/2-y,-z
8 1/2+x,1/2-y,1/2+z
_cell_length_a                   20.2586(8)
_cell_length_b                   7.9489(3)
_cell_length_c                   13.9716(5)
_cell_angle_alpha                90
_cell_angle_beta                 121.641(1)
_cell_angle_gamma                90
_cell_volume                     1915.45
loop_
_atom_site_label
_atom_site_type_symbol
_atom_site_fract_x
_atom_site_fract_y
_atom_site_fract_z
Pr1 Pr 0.2315(1) 0.7849(1) 0.2701(1)
O1 O 0.3057(2) 0.7571(4) 0.1732(3)
O2 O 0.1736(1) 0.5185(3) 0.1580(2)
O3 O 0.0917(2) 0.7258(3) 0.1163(3)
O4 O 0.3137(1) 0.4830(3) -0.1315(2)
O5 O 0.3334(2) 0.2676(3) -0.0234(2)
O6 O 0.1657(2) 0.6096(3) 0.3510(2)
O7 O 0.3193(2) 0.4825(3) 0.1564(3)
C1 C 0.3487(2) 0.4161(4) -0.0346(3)
C2 C 0.4102(2) 0.5155(4) 0.0645(3)
C3 C 0.3782(2) 0.6719(4) 0.0919(3)
C4 C 0.3310(2) 0.6335(4) 0.1448(3)
C5 C 0.1040(2) 0.5761(4) 0.1053(3)
C6 C 0.0391(2) 0.4575(5) 0.0315(4)
H1 H 0.4350(2) 0.4428(4) 0.1300(3)
H2 H 0.4494(2) 0.5509(4) 0.0489(3)
H3 H 0.4213(2) 0.7436(4) 0.1426(3)
H4 H 0.3460(2) 0.7346(4) 0.0230(3)
H5 H 0.0376(2) 0.3681(5) 0.0775(4)
H6 H 0.0496(2) 0.4067(5) -0.0223(4)
Pr1E Pr 0.2315(1) 0.2151(1) 0.7701(1)
Pr1C Pr 0.2685(1) 0.2849(1) 0.2299(1)
Pr1E_2 Pr 0.2315(1) 0.2151(1) -0.2299(1)
Pr1F Pr 0.2685(1) 0.7151(1) -0.2701(1)
Pr1D Pr -0.2315(1) 0.2151(1) -0.2701(1)
Pr1G Pr -0.2685(1) 0.7151(1) -0.2299(1)
Pr1F_2 Pr 0.2685(1) 0.7151(1) 0.7299(1)
O1E O 0.3057(2) 0.2429(4) 0.6732(3)
O2D O -0.1736(1) 0.4815(3) -0.1580(2)
O2C O 0.3264(1) 1.0185(3) 0.3420(2)
O2E O 0.1736(1) 0.4815(3) 0.6580(2)
O2F O 0.3264(1) -0.0185(3) 0.8420(2)
O3D O -0.0917(2) 0.2742(3) -0.1163(3)
O3E O 0.0917(2) 0.2742(3) 0.6163(3)
O4E O 0.3137(1) 0.5170(3) 0.3685(2)
O4F O 0.1863(1) 1.0170(3) 0.1315(2)
O4_2 O 0.3137(1) 0.4830(3) 0.8685(2)
O4C O 0.1863(1) -0.0170(3) 0.6315(2)
O5E O 0.3334(2) 0.7324(3) 0.4766(2)
O5_2 O 0.3334(2) 0.2676(3) 0.9766(2)
O6E O 0.1657(2) 0.3904(3) 0.8510(2)
O7E O 0.3193(2) 0.5175(3) 0.6564(3)
O7C O 0.1807(2) 0.9825(3) 0.3436(3)
O7F O 0.1807(2) 0.0175(3) 0.8436(3)
C1E C 0.3487(2) 0.5839(4) 0.4654(3)
C2E C 0.4102(2) 0.4845(4) 0.5645(3)
C3E C 0.3782(2) 0.3281(4) 0.5919(3)
C4E C 0.3310(2) 0.3665(4) 0.6448(3)
C5D C -0.1040(2) 0.4239(4) -0.1053(3)
C6D C -0.0391(2) 0.5425(5) -0.0315(4)
H1E H 0.4350(2) 0.5572(4) 0.6300(3)
H2E H 0.4494(2) 0.4491(4) 0.5489(3)
H3E H 0.4213(2) 0.2564(4) 0.6426(3)
H4E H 0.3460(2) 0.2654(4) 0.5230(3)
H5D H -0.0376(2) 0.6319(5) -0.0775(4)
H6D H -0.0496(2) 0.5933(5) 0.0223(4)
O8 O 0.0000 0.523(1) 0.2500
loop_
_geom_bond_atom_site_label_1
_geom_bond_atom_site_label_2
_geom_bond_site_symmetry_1
_geom_bond_site_symmetry_2
Pr1 O1 1_555 1_555
O1 C4 1_555 1_555
O2 Pr1 1_555 1_555
O3 Pr1 1_555 1_555
O4 C1 1_555 1_555
O5 C1 1_555 1_555
O6 Pr1 1_555 1_555
O7 C4 1_555 1_555
C1 C2 1_555 1_555
C2 C3 1_555 1_555
C3 C4 1_555 1_555
C5 O2 1_555 1_555
C6 C5 1_555 1_555
H1 C2 1_555 1_555
H2 C2 1_555 1_555
H3 C3 1_555 1_555
H4 C3 1_555 1_555
H5 C6 1_555 1_555
H6 C6 1_555 1_555
Pr1E O1E 1_555 1_555
Pr1C O2 1_555 1_555
Pr1E_2 O4 1_555 1_555
Pr1F O4 1_555 1_555
Pr1D O2D 1_555 1_555
Pr1G O2D 1_555 1_555
Pr1F_2 O2E 1_555 1_555
O1E C4E 1_555 1_555
O2D C5D 1_555 1_555
O2C Pr1 1_555 1_555
O2E Pr1E 1_555 1_555
O2F Pr1E 1_555 1_555
O3D Pr1D 1_555 1_555
O3E Pr1E 1_555 1_555
O4E Pr1 1_555 1_555
O4F Pr1 1_555 1_555
O4_2 Pr1E 1_555 1_555
O4C Pr1E 1_555 1_555
O5E Pr1 1_555 1_555
O5_2 Pr1E 1_555 1_555
O6E Pr1E 1_555 1_555
O7E Pr1F_2 1_555 1_555
O7C Pr1 1_555 1_555
O7F Pr1E 1_555 1_555
C1E O4E 1_555 1_555
C2E C1E 1_555 1_555
C3E C2E 1_555 1_555
C4E O7E 1_555 1_555
C5D O3D 1_555 1_555
C6D C6 1_555 1_555
H1E C2E 1_555 1_555
H2E C2E 1_555 1_555
H3E C3E 1_555 1_555
H4E C3E 1_555 1_555
H5D C6D 1_555 1_555
H6D C6D 1_555 1_555
O3 C5 1_555 1_555
O5 Pr1E_2 1_555 1_555
O7 Pr1C 1_555 1_555
Pr1C O4E 1_555 1_555
Pr1F_2 O4_2 1_555 1_555
O5E C1E 1_555 1_555
C3E C4E 1_555 1_555
C5D C6D 1_555 1_555

#END
