
#######################################################################
#
#                 Cambridge Crystallographic Data Centre
#                                CCDC 
#
#######################################################################
#
# If this CIF has been generated from an entry in the Cambridge 
# Structural Database, then it will include bibliographic, chemical, 
# crystal, experimental, refinement or atomic coordinate data resulting 
# from the CCDC's data processing and validation procedures.
#
#######################################################################

data_FIKMUJ
_symmetry_cell_setting           orthorhombic
_symmetry_space_group_name_H-M   'P n a 21'
_symmetry_Int_Tables_number      33
_space_group_name_Hall           'P 2c -2n'
loop_
_symmetry_equiv_pos_site_id
_symmetry_equiv_pos_as_xyz
1 x,y,z
2 -x,-y,1/2+z
3 1/2-x,1/2+y,1/2+z
4 1/2+x,1/2-y,z
_cell_length_a                   19.9332(7)
_cell_length_b                   8.3531(2)
_cell_length_c                   30.4128(14)
_cell_angle_alpha                90
_cell_angle_beta                 90
_cell_angle_gamma                90
_cell_volume                     5063.85
loop_
_atom_site_label
_atom_site_type_symbol
_atom_site_fract_x
_atom_site_fract_y
_atom_site_fract_z
C1 C 0.4010(4) -1.0950(10) 0.8221(3)
H1 H 0.3596 -1.1543 0.8297
H2 H 0.4119 -1.0216 0.8466
C2 C 0.4585(4) -1.2115(10) 0.8147(2)
H3 H 0.4737 -1.2567 0.8431
H4 H 0.4439 -1.3007 0.7955
C3 C 0.5716(4) -1.1253(9) 0.8102(2)
H5 H 0.5784 -1.1896 0.8355
C4 C 0.6285(4) -1.0400(10) 0.7934(3)
C5 C 0.6247(4) -0.9418(9) 0.7553(3)
C6 C 0.6851(4) -0.8651(9) 0.7414(2)
H6 H 0.6837 -0.8005 0.7157
C7 C 0.7449(4) -0.8796(10) 0.7631(3)
H7 H 0.7842 -0.8275 0.7527
C8 C 0.7462(4) -0.9741(11) 0.8011(3)
C9 C 0.6893(4) -1.0557(9) 0.8157(3)
H8 H 0.6921 -1.1225 0.8409
C10 C 0.4358(4) -0.6335(11) 0.7186(2)
C11 C 0.3768(4) -0.3991(9) 0.7169(3)
C12 C 0.1817(4) -0.2330(11) 0.6272(3)
H9 H 0.1727 -0.2937 0.5998
H10 H 0.1850 -0.1179 0.6197
C13 C 0.1258(3) -0.2602(9) 0.6601(2)
H11 H 0.0838 -0.2091 0.6498
H12 H 0.1176 -0.3761 0.6641
C14 C 0.1084(4) -0.1139(9) 0.7262(2)
H13 H 0.0626 -0.1098 0.7175
C15 C 0.1266(4) -0.0346(10) 0.7671(2)
C16 C 0.1916(4) -0.0475(10) 0.7851(2)
C17 C 0.2043(4) 0.0391(10) 0.8254(2)
H14 H 0.2473 0.0317 0.8387
C18 C 0.1558(4) 0.1320(9) 0.8450(2)
H15 H 0.1652 0.1893 0.8712
C19 C 0.0923(4) 0.1405(8) 0.8254(2)
C20 C 0.0765(4) 0.0592(8) 0.7875(2)
H16 H 0.0328 0.0660 0.7753
C21 C 0.3003(4) 0.1480(9) 0.6647(2)
C22 C 0.2935(4) 0.3385(9) 0.6126(3)
C23 C 0.3315(4) 0.4089(10) 0.4477(3)
H17 H 0.3208 0.4843 0.4236
H18 H 0.3731 0.3507 0.4399
C24 C 0.2749(4) 0.2931(10) 0.4542(3)
H19 H 0.2610 0.2469 0.4257
H20 H 0.2891 0.2047 0.4738
C25 C 0.1584(4) 0.3743(9) 0.4584(3)
H21 H 0.1516 0.3067 0.4337
C26 C 0.1013(4) 0.4579(10) 0.4747(3)
C27 C 0.1062(4) 0.5637(9) 0.5130(2)
C28 C 0.0463(3) 0.6416(9) 0.5261(3)
H22 H 0.0476 0.7128 0.5505
C29 C -0.0128(4) 0.6175(10) 0.5050(3)
H23 H -0.0522 0.6707 0.5149
C30 C -0.0162(4) 0.5134(11) 0.4683(3)
C31 C 0.0397(4) 0.4398(9) 0.4539(2)
H24 H 0.0369 0.3732 0.4287
C32 C 0.2972(4) 0.8727(10) 0.5487(2)
C33 C 0.3575(4) 1.1051(9) 0.5497(2)
C34 C 0.5531(4) 1.2746(12) 0.6394(3)
H25 H 0.5484 1.3887 0.6476
H26 H 0.5630 1.2118 0.6662
C35 C 0.6070(4) 1.2544(10) 0.6067(3)
H27 H 0.6484 1.3079 0.6171
H28 H 0.6168 1.1392 0.6025
C36 C 0.6254(4) 1.3988(9) 0.5396(2)
H29 H 0.6711 1.4052 0.5482
C37 C 0.6067(3) 1.4727(9) 0.4988(2)
C38 C 0.5401(4) 1.4597(10) 0.4793(3)
C39 C 0.5296(4) 1.5311(10) 0.4383(2)
H30 H 0.4876 1.5174 0.4241
C40 C 0.5777(3) 1.6193(9) 0.4183(3)
H31 H 0.5689 1.6679 0.3906
C41 C 0.6402(4) 1.6388(9) 0.4383(2)
C42 C 0.6551(4) 1.5643(9) 0.4775(2)
H32 H 0.6985 1.5754 0.4900
C43 C 0.4306(4) 1.6477(11) 0.6016(3)
C44 C 0.4372(4) 1.8383(10) 0.6555(3)
N1 N 0.3907(3) -1.0033(8) 0.7815(2)
H33 H 0.3720 -0.9055 0.7881
H34 H 0.3615 -1.0574 0.7634
N2 N 0.3409(3) 0.4986(8) 0.4902(2)
H35 H 0.3611 0.5956 0.4847
H36 H 0.3682 0.4408 0.5087
N3 N 0.5126(3) -1.1226(7) 0.79401(19)
N4 N 0.8088(3) -0.9999(8) 0.8236(3)
N5 N 0.4466(3) -0.7681(8) 0.7242(2)
N6 N 0.4322(3) -0.4789(7) 0.7115(2)
N7 N 0.3318(3) -0.3158(8) 0.7232(2)
N8 N 0.2442(3) -0.2881(10) 0.6473(3)
H37 H 0.2805 -0.2491 0.6319
H38 H 0.2461 -0.3982 0.6470
N9 N 0.1484(3) -0.1871(8) 0.70175(19)
N10 N 0.0414(3) 0.2443(7) 0.8441(2)
N11 N 0.2837(3) 0.0330(8) 0.68393(19)
N12 N 0.3249(3) 0.2768(9) 0.6466(2)
N13 N 0.2697(3) 0.4026(8) 0.5828(2)
N14 N -0.0805(4) 0.4896(9) 0.4473(2)
N15 N 0.2189(3) 0.3819(7) 0.47414(19)
N16 N 0.2838(3) 0.7400(8) 0.5444(2)
N17 N 0.3011(3) 1.0272(7) 0.5569(2)
N18 N 0.4019(3) 1.1921(9) 0.54476(19)
N19 N 0.4891(3) 1.2143(10) 0.6177(3)
H39 H 0.4521 1.2487 0.6332
H40 H 0.4887 1.1042 0.6170
N20 N 0.5851(3) 1.3251(7) 0.56530(19)
N21 N 0.6901(3) 1.7388(8) 0.4174(2)
N22 N 0.4465(3) 1.5359(9) 0.5838(2)
N23 N 0.4069(3) 1.7786(9) 0.6212(2)
N24 N 0.4612(3) 1.8997(8) 0.6856(2)
O1 O 0.5708(2) -0.9176(6) 0.73277(17)
O2 O 0.8597(3) -0.9346(7) 0.80778(18)
O3 O 0.8095(3) -1.0828(7) 0.85758(19)
O4 O 0.2417(2) -0.1250(6) 0.76901(16)
O5 O 0.0529(3) 0.3073(8) 0.87956(19)
O6 O -0.0122(3) 0.2619(7) 0.8234(2)
O7 O 0.1607(2) 0.5892(6) 0.53476(16)
O8 O -0.1302(3) 0.5625(8) 0.46082(19)
O9 O -0.0818(3) 0.3894(7) 0.4168(2)
O10 O 0.4920(2) 1.3788(6) 0.49788(17)
O11 O 0.6756(3) 1.8100(8) 0.38384(18)
O12 O 0.7458(3) 1.7520(8) 0.4352(2)
Cu1 Cu 0.47937(4) -0.97053(11) 0.75010(3)
Cu2 Cu 0.24556(4) -0.20587(11) 0.70994(3)
Cu3 Cu 0.25098(4) 0.53372(10) 0.51865(3)
Cu4 Cu 0.48756(4) 1.30200(12) 0.55714(3)
N24_2 N 0.4612(3) -1.1003(8) 0.6856(2)
Cu1_2 Cu 0.47937(4) 2.02947(11) 0.75010(3)
loop_
_geom_bond_atom_site_label_1
_geom_bond_atom_site_label_2
_geom_bond_site_symmetry_1
_geom_bond_site_symmetry_2
C1 H1 1_555 1_555
H2 C1 1_555 1_555
C2 C1 1_555 1_555
H3 C2 1_555 1_555
H4 C2 1_555 1_555
C3 H5 1_555 1_555
C4 C3 1_555 1_555
C5 C4 1_555 1_555
C6 C5 1_555 1_555
H6 C6 1_555 1_555
C7 C6 1_555 1_555
H7 C7 1_555 1_555
C8 C7 1_555 1_555
C9 C4 1_555 1_555
H8 C9 1_555 1_555
C10 N5 1_555 1_555
C11 N6 1_555 1_555
C12 H9 1_555 1_555
H10 C12 1_555 1_555
C13 C12 1_555 1_555
H11 C13 1_555 1_555
H12 C13 1_555 1_555
C14 H13 1_555 1_555
C15 C14 1_555 1_555
C16 C15 1_555 1_555
C17 C16 1_555 1_555
H14 C17 1_555 1_555
C18 C17 1_555 1_555
H15 C18 1_555 1_555
C19 C18 1_555 1_555
C20 C15 1_555 1_555
H16 C20 1_555 1_555
C21 N11 1_555 1_555
C22 N12 1_555 1_555
C23 H17 1_555 1_555
H18 C23 1_555 1_555
C24 C23 1_555 1_555
H19 C24 1_555 1_555
H20 C24 1_555 1_555
C25 H21 1_555 1_555
C26 C25 1_555 1_555
C27 C26 1_555 1_555
C28 C27 1_555 1_555
H22 C28 1_555 1_555
C29 C28 1_555 1_555
H23 C29 1_555 1_555
C30 C29 1_555 1_555
C31 C26 1_555 1_555
H24 C31 1_555 1_555
C32 N16 1_555 1_555
C33 N17 1_555 1_555
C34 H25 1_555 1_555
H26 C34 1_555 1_555
C35 C34 1_555 1_555
H27 C35 1_555 1_555
H28 C35 1_555 1_555
C36 H29 1_555 1_555
C37 C36 1_555 1_555
C38 C37 1_555 1_555
C39 C38 1_555 1_555
H30 C39 1_555 1_555
C40 C39 1_555 1_555
H31 C40 1_555 1_555
C41 C40 1_555 1_555
C42 C37 1_555 1_555
H32 C42 1_555 1_555
C43 N22 1_555 1_555
C44 N23 1_555 1_555
N1 C1 1_555 1_555
H33 N1 1_555 1_555
H34 N1 1_555 1_555
N2 C23 1_555 1_555
H35 N2 1_555 1_555
H36 N2 1_555 1_555
N3 C2 1_555 1_555
N4 C8 1_555 1_555
N5 Cu1 1_555 1_555
N6 C10 1_555 1_555
N7 C11 1_555 1_555
N8 C12 1_555 1_555
H37 N8 1_555 1_555
H38 N8 1_555 1_555
N9 C13 1_555 1_555
N10 C19 1_555 1_555
N11 Cu2 1_555 1_555
N12 C21 1_555 1_555
N13 C22 1_555 1_555
N14 C30 1_555 1_555
N15 C24 1_555 1_555
N16 Cu3 1_555 1_555
N17 C32 1_555 1_555
N18 C33 1_555 1_555
N19 C34 1_555 1_555
H39 N19 1_555 1_555
H40 N19 1_555 1_555
N20 C35 1_555 1_555
N21 C41 1_555 1_555
N22 Cu4 1_555 1_555
N23 C43 1_555 1_555
N24 C44 1_555 1_555
O1 C5 1_555 1_555
O2 N4 1_555 1_555
O3 N4 1_555 1_555
O4 C16 1_555 1_555
O5 N10 1_555 1_555
O6 N10 1_555 1_555
O7 C27 1_555 1_555
O8 N14 1_555 1_555
O9 N14 1_555 1_555
O10 C38 1_555 1_555
O11 N21 1_555 1_555
O12 N21 1_555 1_555
Cu1 N1 1_555 1_555
Cu2 N7 1_555 1_555
Cu3 N2 1_555 1_555
Cu4 N18 1_555 1_555
N24_2 Cu1 1_555 1_555
Cu1_2 N24 1_555 1_555
C3 N3 1_555 1_555
C8 C9 1_555 1_555
C14 N9 1_555 1_555
C19 C20 1_555 1_555
C25 N15 1_555 1_555
C30 C31 1_555 1_555
C36 N20 1_555 1_555
C41 C42 1_555 1_555
N3 Cu1 1_555 1_555
N8 Cu2 1_555 1_555
N9 Cu2 1_555 1_555
N13 Cu3 1_555 1_555
N15 Cu3 1_555 1_555
N19 Cu4 1_555 1_555
N20 Cu4 1_555 1_555
O1 Cu1 1_555 1_555
O4 Cu2 1_555 1_555
O7 Cu3 1_555 1_555
O10 Cu4 1_555 1_555

#END
