
#######################################################################
#
#                 Cambridge Crystallographic Data Centre
#                                CCDC 
#
#######################################################################
#
# If this CIF has been generated from an entry in the Cambridge 
# Structural Database, then it will include bibliographic, chemical, 
# crystal, experimental, refinement or atomic coordinate data resulting 
# from the CCDC's data processing and validation procedures.
#
#######################################################################

data_FIKMUI
_symmetry_cell_setting           monoclinic
_symmetry_space_group_name_H-M   'P 21/a'
_symmetry_Int_Tables_number      14
_space_group_name_Hall           '-P 2yab'
loop_
_symmetry_equiv_pos_site_id
_symmetry_equiv_pos_as_xyz
1 x,y,z
2 1/2-x,1/2+y,-z
3 -x,-y,-z
4 1/2+x,1/2-y,z
_cell_length_a                   14.7281(9)
_cell_length_b                   8.3905(4)
_cell_length_c                   15.471(1)
_cell_angle_alpha                90
_cell_angle_beta                 93.643(2)
_cell_angle_gamma                90
_cell_volume                     1907.98
loop_
_atom_site_label
_atom_site_type_symbol
_atom_site_fract_x
_atom_site_fract_y
_atom_site_fract_z
Cu1 Cu -0.35273(4) 0.21147(6) 0.45048(3)
Co1 Co -0.09363(4) 0.19328(7) -0.04595(3)
O1 O -0.3828(2) 0.0048(3) 0.5017(2)
O2 O -0.4398(2) -0.1035(4) 0.6181(2)
O3 O -0.5303(2) 0.2944(3) 0.8444(2)
O4 O -0.5248(2) 0.5553(3) 0.8163(2)
O5 O -0.3381(2) 0.4213(3) 0.3999(2)
O6 O -0.2861(2) 0.5472(4) 0.2868(2)
O7 O -0.1580(2) 0.1873(4) 0.0611(2)
O8 O -0.1574(2) -0.0769(4) 0.0812(2)
O9 O -0.2117(2) 0.2196(4) 0.5183(2)
O10 O 0.0292(2) 0.1788(4) 0.0212(2)
O11 O -0.1993(2) 0.0974(4) -0.1125(2)
O12 O -0.1054(2) 0.4484(4) -0.0581(2)
N1 N -0.4105(2) 0.2951(4) 0.5529(2)
N2 N -0.3097(2) 0.1388(4) 0.3375(2)
C1 C -0.4358(3) 0.1797(5) 0.6072(2)
C2 C -0.4717(3) 0.2150(5) 0.6848(2)
C3 C -0.4797(3) 0.3716(4) 0.7099(2)
C4 C -0.4539(3) 0.4913(5) 0.6544(3)
C5 C -0.4199(3) 0.4475(5) 0.5764(3)
C6 C -0.4191(3) 0.0129(5) 0.5747(3)
C7 C -0.5144(3) 0.4129(5) 0.7970(2)
C8 C -0.2842(3) 0.2618(5) 0.2888(2)
C9 C -0.2431(3) 0.2407(5) 0.2123(2)
C10 C -0.2260(3) 0.0878(5) 0.1836(2)
C11 C -0.2534(3) -0.0382(5) 0.2330(3)
C12 C -0.2952(3) -0.0085(5) 0.3087(3)
C13 C -0.3030(3) 0.4242(5) 0.3259(2)
C14 C -0.1765(3) 0.0609(5) 0.1014(2)
H1 H -0.4928 0.1313 0.7215
H2 H -0.4597 0.6004 0.6702
H3 H -0.4030 0.5290 0.5384
H4 H -0.2285 0.3309 0.1802
H5 H -0.2464 -0.1453 0.2147
H6 H -0.3145 -0.0953 0.3421
Co1C Co -0.59363(4) 0.30672(7) 0.95405(3)
O3C O -0.0303(2) 0.2056(3) -0.1556(2)
O13 O -0.3814(2) 0.0713(4) 0.8965(2)
O14 O -0.5112(3) 0.1250(4) 0.2097(2)
loop_
_geom_bond_atom_site_label_1
_geom_bond_atom_site_label_2
_geom_bond_site_symmetry_1
_geom_bond_site_symmetry_2
Cu1 O1 1_555 1_555
Co1 O7 1_555 1_555
O1 C6 1_555 1_555
O2 C6 1_555 1_555
O3 C7 1_555 1_555
O4 C7 1_555 1_555
O5 Cu1 1_555 1_555
O6 C13 1_555 1_555
O7 C14 1_555 1_555
O8 C14 1_555 1_555
O9 Cu1 1_555 1_555
O10 Co1 1_555 1_555
O11 Co1 1_555 1_555
O12 Co1 1_555 1_555
N1 Cu1 1_555 1_555
N2 Cu1 1_555 1_555
C1 N1 1_555 1_555
C2 C1 1_555 1_555
C3 C2 1_555 1_555
C4 C3 1_555 1_555
C5 N1 1_555 1_555
C6 C1 1_555 1_555
C7 C3 1_555 1_555
C8 N2 1_555 1_555
C9 C8 1_555 1_555
C10 C9 1_555 1_555
C11 C10 1_555 1_555
C12 N2 1_555 1_555
C13 O5 1_555 1_555
C14 C10 1_555 1_555
H1 C2 1_555 1_555
H2 C4 1_555 1_555
H3 C5 1_555 1_555
H4 C9 1_555 1_555
H5 C11 1_555 1_555
H6 C12 1_555 1_555
Co1C O3 1_555 1_555
O3C Co1 1_555 1_555
C4 C5 1_555 1_555
C8 C13 1_555 1_555
C11 C12 1_555 1_555

#END
