
#######################################################################
#
#                 Cambridge Crystallographic Data Centre
#                                CCDC 
#
#######################################################################
#
# If this CIF has been generated from an entry in the Cambridge 
# Structural Database, then it will include bibliographic, chemical, 
# crystal, experimental, refinement or atomic coordinate data resulting 
# from the CCDC's data processing and validation procedures.
#
#######################################################################

data_FIKNAQ
_symmetry_cell_setting           monoclinic
_symmetry_space_group_name_H-M   'P 21/c'
_symmetry_Int_Tables_number      14
_space_group_name_Hall           '-P 2ybc'
loop_
_symmetry_equiv_pos_site_id
_symmetry_equiv_pos_as_xyz
1 x,y,z
2 -x,1/2+y,1/2-z
3 -x,-y,-z
4 x,1/2-y,1/2+z
_cell_length_a                   14.0892(5)
_cell_length_b                   11.7467(5)
_cell_length_c                   27.6456(12)
_cell_angle_alpha                90
_cell_angle_beta                 102.090(3)
_cell_angle_gamma                90
_cell_volume                     4473.91
loop_
_atom_site_label
_atom_site_type_symbol
_atom_site_fract_x
_atom_site_fract_y
_atom_site_fract_z
C1 C 1.0607(4) -0.0116(4) 0.93068(19)
H1 H 1.0862 -0.0902 0.9310
H2 H 1.0475 0.0048 0.9638
C2 C 1.1353(4) 0.0716(4) 0.9193(2)
H3 H 1.1890 0.0808 0.9485
H4 H 1.1626 0.0435 0.8913
C3 C 1.1362(4) 0.2741(5) 0.91148(18)
H5 H 1.2034 0.2675 0.9257
C4 C 1.0993(4) 0.3855(5) 0.89737(19)
C5 C 0.9989(4) 0.4053(5) 0.8735(2)
C6 C 0.9725(4) 0.5182(5) 0.8581(2)
H6 H 0.9075 0.5336 0.8418
C7 C 1.0377(4) 0.6049(5) 0.86593(19)
H7 H 1.0179 0.6797 0.8552
C8 C 1.1348(4) 0.5844(5) 0.88998(18)
C9 C 1.1642(4) 0.4757(5) 0.90418(18)
H8 H 1.2304 0.4620 0.9190
C10 C 0.8922(4) -0.0690(5) 0.9084(2)
H9 H 0.8832 -0.0409 0.9405
H10 H 0.9114 -0.1493 0.9114
H11 H 0.8312 -0.0613 0.8840
C11 C 0.9828(4) -0.0459(5) 0.8436(2)
H12 H 0.9205 -0.0454 0.8199
H13 H 1.0077 -0.1240 0.8478
H14 H 1.0293 0.0023 0.8313
C12 C 0.9372(4) 0.2595(5) 0.98395(19)
C13 C 1.0720(4) 0.3431(5) 1.0274(2)
C14 C 0.7543(4) 0.4115(5) 0.7577(2)
H15 H 0.7572 0.3886 0.7925
H16 H 0.7761 0.4917 0.7576
C15 C 0.8208(4) 0.3360(5) 0.7352(2)
H17 H 0.8340 0.3712 0.7047
H18 H 0.8834 0.3247 0.7589
C16 C 0.8203(4) 0.1327(5) 0.72470(18)
H19 H 0.8890 0.1383 0.7337
C17 C 0.7790(4) 0.0217(4) 0.71334(19)
C18 C 0.6774(4) 0.0025(5) 0.69525(19)
C19 C 0.6467(4) -0.1105(5) 0.6814(2)
H20 H 0.5797 -0.1243 0.6685
C20 C 0.7099(4) -0.1998(4) 0.68598(18)
H21 H 0.6873 -0.2744 0.6766
C21 C 0.8089(4) -0.1794(5) 0.70476(18)
C22 C 0.8433(4) -0.0708(5) 0.71755(17)
H22 H 0.9109 -0.0587 0.7292
C23 C 0.5864(4) 0.4581(5) 0.7562(2)
H23 H 0.5199 0.4548 0.7366
H24 H 0.6059 0.5378 0.7623
H25 H 0.5894 0.4193 0.7879
C24 C 0.6442(5) 0.4589(5) 0.6797(2)
H26 H 0.6847 0.4188 0.6603
H27 H 0.6660 0.5381 0.6847
H28 H 0.5764 0.4573 0.6618
C25 C 0.7312(4) 0.1608(5) 0.82511(18)
C26 C 0.5709(4) 0.1805(5) 0.82306(19)
C27 C 0.4214(4) -0.0091(5) 0.5969(2)
H29 H 0.4422 -0.0891 0.5949
H30 H 0.4298 0.0114 0.6323
C28 C 0.4833(4) 0.0680(5) 0.5723(2)
H31 H 0.5491 0.0756 0.5934
H32 H 0.4895 0.0361 0.5400
C29 C 0.4864(4) 0.2703(5) 0.56535(18)
H33 H 0.5548 0.2612 0.5707
C30 C 0.4492(4) 0.3835(5) 0.55791(19)
C31 C 0.3471(4) 0.4084(5) 0.54541(19)
C32 C 0.3194(4) 0.5252(5) 0.5377(2)
H34 H 0.2525 0.5443 0.5295
C33 C 0.3865(4) 0.6089(5) 0.5420(2)
H35 H 0.3660 0.6858 0.5367
C34 C 0.4859(4) 0.5835(5) 0.55425(19)
C35 C 0.5162(4) 0.4720(5) 0.56171(19)
H36 H 0.5836 0.4553 0.5695
C36 C 0.2980(5) -0.0499(5) 0.5226(2)
H37 H 0.2283 -0.0467 0.5082
H38 H 0.3193 -0.1295 0.5255
H39 H 0.3336 -0.0088 0.5012
C37 C 0.2553(4) -0.0515(5) 0.6024(2)
H40 H 0.2620 -0.0104 0.6338
H41 H 0.2756 -0.1308 0.6089
H42 H 0.1874 -0.0493 0.5846
C38 C 0.4075(4) 0.2398(4) 0.67371(19)
C39 C 0.2468(5) 0.2215(5) 0.6722(2)
N1 N 0.9691(3) -0.0014(4) 0.89227(16)
N2 N 1.0852(3) 0.1818(4) 0.90641(15)
N3 N 1.2035(4) 0.6753(4) 0.89763(16)
N4 N 0.8963(4) 0.1901(4) 0.95893(16)
N5 N 0.9781(3) 0.3451(4) 1.01207(18)
N6 N 1.1548(4) 0.3461(4) 1.04280(16)
N7 N 0.6528(3) 0.4015(4) 0.72894(15)
N8 N 0.7704(3) 0.2258(4) 0.72350(15)
N9 N 0.8754(4) -0.2736(4) 0.71042(17)
N10 N 0.8111(3) 0.1443(4) 0.84365(15)
N11 N 0.6437(3) 0.1835(4) 0.79972(16)
N12 N 0.5039(4) 0.1844(4) 0.84063(18)
N13 N 0.3172(3) 0.0030(4) 0.57185(16)
N14 N 0.4352(3) 0.1792(4) 0.56548(15)
N15 N 0.5568(4) 0.6738(5) 0.55912(15)
N16 N 0.4878(3) 0.2573(4) 0.69155(16)
N17 N 0.3193(3) 0.2186(4) 0.64880(16)
N18 N 0.1778(4) 0.2209(4) 0.68888(18)
O1 O 0.9325(3) 0.3278(3) 0.86521(13)
O2 O 1.1768(3) 0.7725(3) 0.88343(14)
O3 O 1.2896(3) 0.6548(3) 0.91868(14)
O4 O 0.6120(3) 0.0811(3) 0.68990(14)
O5 O 0.9629(3) -0.2560(4) 0.72682(16)
O6 O 0.8434(3) -0.3705(3) 0.69829(14)
O7 O 0.2801(3) 0.3313(3) 0.54069(13)
O8 O 0.6434(3) 0.6504(3) 0.57491(14)
O9 O 0.5279(3) 0.7723(4) 0.54733(14)
Cu1 Cu 0.94461(5) 0.16854(6) 0.88259(2)
Cu2 Cu 0.62908(5) 0.23400(6) 0.71408(2)
Cu3 Cu 0.29533(5) 0.17462(6) 0.56049(2)
N6C N 0.1548(4) 0.1539(4) 0.54280(16)
Cu3C Cu 1.29533(5) 0.32538(6) 1.06049(2)
loop_
_geom_bond_atom_site_label_1
_geom_bond_atom_site_label_2
_geom_bond_site_symmetry_1
_geom_bond_site_symmetry_2
C1 H1 1_555 1_555
H2 C1 1_555 1_555
C2 C1 1_555 1_555
H3 C2 1_555 1_555
H4 C2 1_555 1_555
C3 H5 1_555 1_555
C4 C3 1_555 1_555
C5 C4 1_555 1_555
C6 C5 1_555 1_555
H6 C6 1_555 1_555
C7 C6 1_555 1_555
H7 C7 1_555 1_555
C8 C7 1_555 1_555
C9 C4 1_555 1_555
H8 C9 1_555 1_555
C10 H9 1_555 1_555
H10 C10 1_555 1_555
H11 C10 1_555 1_555
C11 H12 1_555 1_555
H13 C11 1_555 1_555
H14 C11 1_555 1_555
C12 N4 1_555 1_555
C13 N5 1_555 1_555
C14 H15 1_555 1_555
H16 C14 1_555 1_555
C15 C14 1_555 1_555
H17 C15 1_555 1_555
H18 C15 1_555 1_555
C16 H19 1_555 1_555
C17 C16 1_555 1_555
C18 C17 1_555 1_555
C19 C18 1_555 1_555
H20 C19 1_555 1_555
C20 C19 1_555 1_555
H21 C20 1_555 1_555
C21 C20 1_555 1_555
C22 C17 1_555 1_555
H22 C22 1_555 1_555
C23 H23 1_555 1_555
H24 C23 1_555 1_555
H25 C23 1_555 1_555
C24 H26 1_555 1_555
H27 C24 1_555 1_555
H28 C24 1_555 1_555
C25 N10 1_555 1_555
C26 N11 1_555 1_555
C27 H29 1_555 1_555
H30 C27 1_555 1_555
C28 C27 1_555 1_555
H31 C28 1_555 1_555
H32 C28 1_555 1_555
C29 H33 1_555 1_555
C30 C29 1_555 1_555
C31 C30 1_555 1_555
C32 C31 1_555 1_555
H34 C32 1_555 1_555
C33 C32 1_555 1_555
H35 C33 1_555 1_555
C34 C33 1_555 1_555
C35 C30 1_555 1_555
H36 C35 1_555 1_555
C36 H37 1_555 1_555
H38 C36 1_555 1_555
H39 C36 1_555 1_555
C37 H40 1_555 1_555
H41 C37 1_555 1_555
H42 C37 1_555 1_555
C38 N16 1_555 1_555
C39 N17 1_555 1_555
N1 C1 1_555 1_555
N2 C2 1_555 1_555
N3 C8 1_555 1_555
N4 Cu1 1_555 1_555
N5 C12 1_555 1_555
N6 C13 1_555 1_555
N7 C14 1_555 1_555
N8 C15 1_555 1_555
N9 C21 1_555 1_555
N10 Cu1 1_555 1_555
N11 C25 1_555 1_555
N12 C26 1_555 1_555
N13 C27 1_555 1_555
N14 C28 1_555 1_555
N15 C34 1_555 1_555
N16 Cu2 1_555 1_555
N17 C38 1_555 1_555
N18 C39 1_555 1_555
O1 C5 1_555 1_555
O2 N3 1_555 1_555
O3 N3 1_555 1_555
O4 C18 1_555 1_555
O5 N9 1_555 1_555
O6 N9 1_555 1_555
O7 C31 1_555 1_555
O8 N15 1_555 1_555
O9 N15 1_555 1_555
Cu1 N1 1_555 1_555
Cu2 N7 1_555 1_555
Cu3 N13 1_555 1_555
N6C Cu3 1_555 1_555
Cu3C N6 1_555 1_555
C3 N2 1_555 1_555
C8 C9 1_555 1_555
C10 N1 1_555 1_555
C11 N1 1_555 1_555
C16 N8 1_555 1_555
C21 C22 1_555 1_555
C23 N7 1_555 1_555
C24 N7 1_555 1_555
C29 N14 1_555 1_555
C34 C35 1_555 1_555
C36 N13 1_555 1_555
C37 N13 1_555 1_555
N2 Cu1 1_555 1_555
N8 Cu2 1_555 1_555
N11 Cu2 1_555 1_555
N14 Cu3 1_555 1_555
N17 Cu3 1_555 1_555
O1 Cu1 1_555 1_555
O4 Cu2 1_555 1_555
O7 Cu3 1_555 1_555

#END
