
#######################################################################
#
#                 Cambridge Crystallographic Data Centre
#                                CCDC 
#
#######################################################################
#
# If this CIF has been generated from an entry in the Cambridge 
# Structural Database, then it will include bibliographic, chemical, 
# crystal, experimental, refinement or atomic coordinate data resulting 
# from the CCDC's data processing and validation procedures.
#
#######################################################################

data_FIKRIB
_symmetry_cell_setting           monoclinic
_symmetry_space_group_name_H-M   'C 2/c'
_symmetry_Int_Tables_number      15
_space_group_name_Hall           '-C 2yn'
loop_
_symmetry_equiv_pos_site_id
_symmetry_equiv_pos_as_xyz
1 x,y,z
2 1/2+x,1/2+y,z
3 -x,y,1/2-z
4 1/2-x,1/2+y,1/2-z
5 -x,-y,-z
6 1/2-x,1/2-y,-z
7 x,-y,1/2+z
8 1/2+x,1/2-y,1/2+z
_cell_length_a                   35.61(1)
_cell_length_b                   6.244(2)
_cell_length_c                   17.561(6)
_cell_angle_alpha                90
_cell_angle_beta                 114.498(6)
_cell_angle_gamma                90
_cell_volume                     3553.15
loop_
_atom_site_label
_atom_site_type_symbol
_atom_site_fract_x
_atom_site_fract_y
_atom_site_fract_z
Ag1 Ag 0.504307(15) 0.70409(9) 0.54992(3)
S1 S 0.43257(5) 0.6506(2) 0.52771(10)
S2 S 0.43113(5) 0.2050(3) 0.46025(9)
Cl1 Cl 0.54313(5) 1.1971(3) 0.68705(9)
C1 C 0.3286(2) 0.4275(14) 0.3874(5)
H1 H 0.3416 0.5591 0.4047
C2 C 0.2908(3) 0.396(2) 0.3871(7)
H2 H 0.2785 0.5036 0.4054
C3 C 0.2711(3) 0.207(2) 0.3604(8)
H3 H 0.2450 0.1862 0.3592
C4 C 0.2896(3) 0.0493(19) 0.3353(6)
H4 H 0.2761 -0.0808 0.3175
C5 C 0.3281(3) 0.0779(15) 0.3356(5)
H5 H 0.3404 -0.0310 0.3179
C6 C 0.3480(2) 0.2709(12) 0.3628(4)
C7 C 0.39020(18) 0.3059(11) 0.3646(4)
H6 H 0.3917 0.2346 0.3169
H7 H 0.3943 0.4580 0.3596
C8 C 0.42578(17) 0.3683(9) 0.5389(4)
H8 H 0.3986 0.3452 0.5375
H9 H 0.4459 0.3222 0.5933
C9 C 0.42845(19) 0.7461(11) 0.6224(4)
H10 H 0.4459 0.6589 0.6696
H11 H 0.4384 0.8925 0.6334
C10 C 0.38489(18) 0.7376(10) 0.6149(4)
C11 C 0.3564(2) 0.8917(13) 0.5725(5)
H12 H 0.3639 1.0027 0.5462
C12 C 0.3170(3) 0.8843(16) 0.5682(6)
H13 H 0.2984 0.9928 0.5408
C13 C 0.3050(2) 0.7212(16) 0.6034(6)
H14 H 0.2781 0.7157 0.5993
C14 C 0.3324(2) 0.5653(15) 0.6448(5)
H15 H 0.3244 0.4536 0.6699
C15 C 0.3721(2) 0.5715(12) 0.6499(4)
H16 H 0.3905 0.4621 0.6774
O1 O 0.51132(17) 1.0609(11) 0.6353(4)
O2 O 0.52782(19) 1.4151(10) 0.6704(4)
O3 O 0.5528(2) 1.1673(11) 0.7702(3)
O4 O 0.57854(19) 1.1800(11) 0.6707(4)
Ag1D Ag 0.495693(15) 0.29591(9) 0.45008(3)
Ag1_2 Ag 0.504307(15) 1.70409(9) 0.54992(3)
S2D S 0.56887(5) 0.7950(3) 0.53975(9)
O2_2 O 0.52782(19) 0.4151(10) 0.6704(4)
loop_
_geom_bond_atom_site_label_1
_geom_bond_atom_site_label_2
_geom_bond_site_symmetry_1
_geom_bond_site_symmetry_2
Ag1 S1 1_555 1_555
S1 C8 1_555 1_555
S2 C7 1_555 1_555
Cl1 O1 1_555 1_555
C1 H1 1_555 1_555
C2 C1 1_555 1_555
H2 C2 1_555 1_555
C3 C2 1_555 1_555
H3 C3 1_555 1_555
C4 C3 1_555 1_555
H4 C4 1_555 1_555
C5 C4 1_555 1_555
H5 C5 1_555 1_555
C6 C1 1_555 1_555
C7 C6 1_555 1_555
H6 C7 1_555 1_555
H7 C7 1_555 1_555
C8 S2 1_555 1_555
H8 C8 1_555 1_555
H9 C8 1_555 1_555
C9 S1 1_555 1_555
H10 C9 1_555 1_555
H11 C9 1_555 1_555
C10 C9 1_555 1_555
C11 C10 1_555 1_555
H12 C11 1_555 1_555
C12 C11 1_555 1_555
H13 C12 1_555 1_555
C13 C12 1_555 1_555
H14 C13 1_555 1_555
C14 C13 1_555 1_555
H15 C14 1_555 1_555
C15 C10 1_555 1_555
H16 C15 1_555 1_555
O1 Ag1 1_555 1_555
O2 Cl1 1_555 1_555
O3 Cl1 1_555 1_555
O4 Cl1 1_555 1_555
Ag1D Ag1 1_555 1_555
Ag1_2 O2 1_555 1_555
S2D Ag1 1_555 1_555
O2_2 Ag1 1_555 1_555
S2 Ag1D 1_555 1_555
C5 C6 1_555 1_555
C14 C15 1_555 1_555

#END
