
#######################################################################
#
#                 Cambridge Crystallographic Data Centre
#                                CCDC 
#
#######################################################################
#
# If this CIF has been generated from an entry in the Cambridge 
# Structural Database, then it will include bibliographic, chemical, 
# crystal, experimental, refinement or atomic coordinate data resulting 
# from the CCDC's data processing and validation procedures.
#
#######################################################################

data_FIKREY
_symmetry_cell_setting           monoclinic
_symmetry_space_group_name_H-M   'C 2/c'
_symmetry_Int_Tables_number      15
_space_group_name_Hall           '-C 2yn'
loop_
_symmetry_equiv_pos_site_id
_symmetry_equiv_pos_as_xyz
1 x,y,z
2 -x,y,1/2-z
3 1/2+x,1/2+y,z
4 1/2-x,1/2+y,1/2-z
5 -x,-y,-z
6 x,-y,1/2+z
7 1/2-x,1/2-y,-z
8 1/2+x,1/2-y,1/2+z
_cell_length_a                   26.173(4)
_cell_length_b                   15.123(2)
_cell_length_c                   17.514(2)
_cell_angle_alpha                90
_cell_angle_beta                 115.003(2)
_cell_angle_gamma                90
_cell_volume                     6282.64
loop_
_atom_site_label
_atom_site_type_symbol
_atom_site_fract_x
_atom_site_fract_y
_atom_site_fract_z
C1 C 0.1931(2) 1.0934(2) -0.0216(3)
H1 H 0.1999 1.0328 -0.0158
C2 C 0.1964(3) 1.1386(3) -0.0885(3)
C3 C 0.1863(2) 1.2291(3) -0.0972(3)
H2 H 0.1885 1.2593 -0.1419
C4 C 0.1731(2) 1.2744(2) -0.0389(3)
C5 C 0.1698(2) 1.2292(3) 0.0280(3)
H3 H 0.1609 1.2596 0.0670
C6 C 0.1799(2) 1.1387(3) 0.0367(3)
C7 C 0.02423(13) 0.8543(4) 0.0276(3)
H4 H 0.0227 0.8715 0.0776
C8 C -0.02493(13) 0.8309(4) -0.0416(3)
H5 H -0.0594 0.8325 -0.0380
C9 C -0.02264(14) 0.8051(3) -0.1163(3)
H6 H -0.0555 0.7895 -0.1626
C10 C 0.02882(16) 0.8027(4) -0.1217(3)
H7 H 0.0304 0.7855 -0.1717
C11 C 0.07798(14) 0.8261(3) -0.0524(2)
N1 N 0.07568(13) 0.8518(3) 0.0222(2)
C12 C 0.40987(13) 0.9211(3) 0.3096(4)
H8 H 0.4289 0.8698 0.3077
C13 C 0.35132(13) 0.9245(3) 0.2713(3)
C14 C 0.32356(14) 1.0014(2) 0.2756(2)
H9 H 0.2844 1.0037 0.2500
C15 C 0.35434(16) 1.0749(3) 0.3183(3)
Dy1 Dy 0.174868(16) 0.86944(2) 0.14716(2)
Dy2 Dy 0.187492(16) 1.13348(2) 0.30696(2)
C16 C 0.1777(4) 1.0900(5) 0.1105(5)
O1 O 0.1667(3) 1.1331(4) 0.1636(5)
O2 O 0.1880(3) 1.0087(4) 0.1158(4)
N2 N 0.1642(4) 1.3685(4) -0.0457(6)
C17 C 0.2108(4) 1.0901(5) -0.1522(5)
O3 O 0.1673(4) 1.4062(5) -0.1053(5)
O4 O 0.1569(4) 1.4058(4) 0.0090(5)
O5 O 0.2183(3) 1.1360(4) -0.2066(4)
O6 O 0.2141(3) 1.0076(4) -0.1483(4)
C18 C 0.3179(4) 0.8447(5) 0.2256(5)
O7 O 0.2666(3) 0.8527(4) 0.1765(4)
O8 O 0.3525(3) 1.2283(4) 0.3430(4)
O9 O 0.3446(3) 0.7734(4) 0.2395(4)
O10 O 0.2726(3) 1.1534(4) 0.3037(4)
C19 C 0.3233(4) 1.1576(5) 0.3218(6)
C20 C 0.0423(4) 0.9301(5) 0.2382(6)
C21 C 0.0423(4) 0.8370(6) 0.2394(6)
H10 H 0.0706 0.8050 0.2330
C22 C 0.0000 0.7950(8) 0.2500
O11 O 0.1003(3) 1.0546(4) 0.2515(4)
C23 C 0.0887(3) 0.9768(5) 0.2258(6)
C24 C 0.0000 0.9747(8) 0.2500
H11 H 0.0000 1.0362 0.2500
N3 N 0.0000 0.6977(8) 0.2500
O12 O 0.0446(5) 0.6593(6) 0.2671(8)
O13 O 0.11283(19) 0.9336(3) 0.1899(3)
O14 O 0.25118(19) 1.1607(3) 0.4483(3)
C25 C 0.4117(4) 1.0732(6) 0.3559(8)
H12 H 0.4322 1.1223 0.3845
C26 C 0.4389(5) 0.9952(7) 0.3503(11)
N4 N 0.5001(5) 0.9920(8) 0.3890(10)
O15 O 0.5269(5) 1.0521(8) 0.4340(9)
O16 O 0.5224(5) 0.9252(9) 0.3824(11)
C27 C 0.1326(3) 0.8307(5) -0.0532(5)
O17 O 0.1748(3) 0.8405(4) 0.0165(4)
O18 O 0.1345(2) 0.8225(3) -0.1215(3)
C20A C -0.0423(4) 0.9301(5) 0.2618(6)
C21A C -0.0423(4) 0.8370(6) 0.2606(6)
H10A H -0.0706 0.8050 0.2670
O11A O -0.1003(3) 1.0546(4) 0.2485(4)
C23A C -0.0887(3) 0.9768(5) 0.2742(6)
O12A O -0.0446(5) 0.6593(6) 0.2329(8)
O13A O -0.11283(19) 0.9336(3) 0.3101(3)
C1A C -0.1931(2) 1.0934(2) 0.5216(3)
H1A H -0.1999 1.0328 0.5158
C2A C -0.1964(3) 1.1386(3) 0.5885(3)
C3A C -0.1863(2) 1.2291(3) 0.5972(3)
H2A H -0.1885 1.2593 0.6419
C4A C -0.1731(2) 1.2744(2) 0.5389(3)
C5A C -0.1698(2) 1.2292(3) 0.4720(3)
H3A H -0.1609 1.2596 0.4330
C6A C -0.1799(2) 1.1387(3) 0.4633(3)
C7A C -0.02423(13) 0.8543(4) 0.4724(3)
H4A H -0.0227 0.8715 0.4224
C8A C 0.02493(13) 0.8309(4) 0.5416(3)
H5A H 0.0594 0.8325 0.5380
C9A C 0.02264(14) 0.8051(3) 0.6163(3)
H6A H 0.0555 0.7895 0.6626
C10A C -0.02882(16) 0.8027(4) 0.6217(3)
H7A H -0.0304 0.7855 0.6717
C11A C -0.07798(14) 0.8261(3) 0.5524(2)
N1A N -0.07568(13) 0.8518(3) 0.4778(2)
C12A C -0.40987(13) 0.9211(3) 0.1904(4)
H8A H -0.4289 0.8698 0.1923
C13A C -0.35132(13) 0.9245(3) 0.2287(3)
C14A C -0.32356(14) 1.0014(2) 0.2244(2)
H9A H -0.2844 1.0037 0.2500
C15A C -0.35434(16) 1.0749(3) 0.1817(3)
Dy1A Dy -0.174868(16) 0.86944(2) 0.35284(2)
Dy2A Dy -0.187492(16) 1.13348(2) 0.19304(2)
C16A C -0.1777(4) 1.0900(5) 0.3895(5)
O1A O -0.1667(3) 1.1331(4) 0.3364(5)
O2A O -0.1880(3) 1.0087(4) 0.3842(4)
N2A N -0.1642(4) 1.3685(4) 0.5457(6)
C17A C -0.2108(4) 1.0901(5) 0.6522(5)
O3A O -0.1673(4) 1.4062(5) 0.6053(5)
O4A O -0.1569(4) 1.4058(4) 0.4910(5)
O5A O -0.2183(3) 1.1360(4) 0.7066(4)
O6A O -0.2141(3) 1.0076(4) 0.6483(4)
C18A C -0.3179(4) 0.8447(5) 0.2744(5)
O7A O -0.2666(3) 0.8527(4) 0.3235(4)
O8A O -0.3525(3) 1.2283(4) 0.1570(4)
O9A O -0.3446(3) 0.7734(4) 0.2605(4)
O10A O -0.2726(3) 1.1534(4) 0.1963(4)
C19A C -0.3233(4) 1.1576(5) 0.1782(6)
O14A O -0.25118(19) 1.1607(3) 0.0517(3)
C25A C -0.4117(4) 1.0732(6) 0.1441(8)
H12A H -0.4322 1.1223 0.1155
C26A C -0.4389(5) 0.9952(7) 0.1497(11)
N4A N -0.5001(5) 0.9920(8) 0.1110(10)
O15A O -0.5269(5) 1.0521(8) 0.0660(9)
O16A O -0.5224(5) 0.9252(9) 0.1176(11)
C27A C -0.1326(3) 0.8307(5) 0.5532(5)
O17A O -0.1748(3) 0.8405(4) 0.4835(4)
O18A O -0.1345(2) 0.8225(3) 0.6215(3)
Dy1B Dy -0.325132(16) 1.36944(2) 0.14716(2)
Dy1C Dy 0.325132(16) 1.36944(2) 0.35284(2)
Dy1D Dy -0.174868(16) 1.13056(2) 0.85284(2)
Dy1E Dy 0.174868(16) 1.13056(2) -0.35284(2)
Dy2B Dy -0.312508(16) 0.63348(2) 0.30696(2)
Dy2C Dy 0.312508(16) 0.63348(2) 0.19304(2)
Dy2D Dy -0.187492(16) 0.86652(2) 0.69304(2)
Dy2E Dy 0.187492(16) 0.86652(2) -0.19304(2)
O5D O -0.2183(3) 0.8640(4) 0.2066(4)
O5E O 0.2183(3) 0.8640(4) 0.2934(4)
O6D O -0.2141(3) 0.9924(4) 0.1483(4)
O6E O 0.2141(3) 0.9924(4) 0.3517(4)
O8B O -0.1475(3) 0.7283(4) 0.3430(4)
O8C O 0.1475(3) 0.7283(4) 0.1570(4)
O9B O -0.1554(3) 1.2734(4) 0.2395(4)
O9C O 0.1554(3) 1.2734(4) 0.2605(4)
O18D O -0.1345(2) 1.1775(3) 0.1215(3)
O18E O 0.1345(2) 1.1775(3) 0.3785(3)
O19 O 0.3579(2) 0.1001(3) 0.5254(3)
loop_
_geom_bond_atom_site_label_1
_geom_bond_atom_site_label_2
_geom_bond_site_symmetry_1
_geom_bond_site_symmetry_2
C1 H1 1_555 1_555
C2 C1 1_555 1_555
C3 C2 1_555 1_555
H2 C3 1_555 1_555
C4 C3 1_555 1_555
C5 C4 1_555 1_555
H3 C5 1_555 1_555
C6 C1 1_555 1_555
C7 H4 1_555 1_555
C8 C7 1_555 1_555
H5 C8 1_555 1_555
C9 C8 1_555 1_555
H6 C9 1_555 1_555
C10 C9 1_555 1_555
H7 C10 1_555 1_555
C11 C10 1_555 1_555
N1 C7 1_555 1_555
C12 H8 1_555 1_555
C13 C12 1_555 1_555
C14 C13 1_555 1_555
H9 C14 1_555 1_555
C15 C14 1_555 1_555
Dy1 N1 1_555 1_555
Dy2 O1 1_555 1_555
C16 C6 1_555 1_555
O1 C16 1_555 1_555
O2 Dy1 1_555 1_555
N2 C4 1_555 1_555
C17 C2 1_555 1_555
O3 N2 1_555 1_555
O4 N2 1_555 1_555
O5 C17 1_555 1_555
O6 C17 1_555 1_555
C18 C13 1_555 1_555
O7 Dy1 1_555 1_555
O8 C19 1_555 1_555
O9 C18 1_555 1_555
O10 Dy2 1_555 1_555
C19 C15 1_555 1_555
C20 C21 1_555 1_555
C21 H10 1_555 1_555
C22 C21 1_555 1_555
O11 Dy2 1_555 1_555
C23 C20 1_555 1_555
C24 C20 1_555 1_555
H11 C24 1_555 1_555
N3 C22 1_555 1_555
O12 N3 1_555 1_555
O13 Dy1 1_555 1_555
O14 Dy2 1_555 1_555
C25 C15 1_555 1_555
H12 C25 1_555 1_555
C26 C12 1_555 1_555
N4 C26 1_555 1_555
O15 N4 1_555 1_555
O16 N4 1_555 1_555
C27 C11 1_555 1_555
O17 Dy1 1_555 1_555
O18 C27 1_555 1_555
C20A C24 1_555 1_555
C21A C22 1_555 1_555
H10A C21A 1_555 1_555
O11A C23A 1_555 1_555
C23A C20A 1_555 1_555
O12A N3 1_555 1_555
O13A C23A 1_555 1_555
C1A H1A 1_555 1_555
C2A C1A 1_555 1_555
C3A C2A 1_555 1_555
H2A C3A 1_555 1_555
C4A C3A 1_555 1_555
C5A C4A 1_555 1_555
H3A C5A 1_555 1_555
C6A C1A 1_555 1_555
C7A H4A 1_555 1_555
C8A C7A 1_555 1_555
H5A C8A 1_555 1_555
C9A C8A 1_555 1_555
H6A C9A 1_555 1_555
C10A C9A 1_555 1_555
H7A C10A 1_555 1_555
C11A C10A 1_555 1_555
N1A C7A 1_555 1_555
C12A H8A 1_555 1_555
C13A C12A 1_555 1_555
C14A C13A 1_555 1_555
H9A C14A 1_555 1_555
C15A C14A 1_555 1_555
Dy1A O13A 1_555 1_555
Dy2A O11A 1_555 1_555
C16A C6A 1_555 1_555
O1A Dy2A 1_555 1_555
O2A Dy1A 1_555 1_555
N2A C4A 1_555 1_555
C17A C2A 1_555 1_555
O3A N2A 1_555 1_555
O4A N2A 1_555 1_555
O5A C17A 1_555 1_555
O6A C17A 1_555 1_555
C18A C13A 1_555 1_555
O7A Dy1A 1_555 1_555
O8A C19A 1_555 1_555
O9A C18A 1_555 1_555
O10A Dy2A 1_555 1_555
C19A C15A 1_555 1_555
O14A Dy2A 1_555 1_555
C25A C15A 1_555 1_555
H12A C25A 1_555 1_555
C26A C12A 1_555 1_555
N4A C26A 1_555 1_555
O15A N4A 1_555 1_555
O16A N4A 1_555 1_555
C27A C11A 1_555 1_555
O17A Dy1A 1_555 1_555
O18A C27A 1_555 1_555
Dy1B O8A 1_555 1_555
Dy1C O8 1_555 1_555
Dy1D O5A 1_555 1_555
Dy1E O5 1_555 1_555
Dy2B O9A 1_555 1_555
Dy2C O9 1_555 1_555
Dy2D O6A 1_555 1_555
Dy2E O6 1_555 1_555
O5D Dy1A 1_555 1_555
O5E Dy1 1_555 1_555
O6D Dy2A 1_555 1_555
O6E Dy2 1_555 1_555
O8B Dy1A 1_555 1_555
O8C Dy1 1_555 1_555
O9B Dy2A 1_555 1_555
O9C Dy2 1_555 1_555
O18D Dy2A 1_555 1_555
O18E Dy2 1_555 1_555
C5 C6 1_555 1_555
C11 N1 1_555 1_555
C16 O2 1_555 1_555
C18 O7 1_555 1_555
O10 C19 1_555 1_555
O11 C23 1_555 1_555
C23 O13 1_555 1_555
C25 C26 1_555 1_555
C27 O17 1_555 1_555
O18 Dy2E 1_555 1_555
C20A C21A 1_555 1_555
C5A C6A 1_555 1_555
C11A N1A 1_555 1_555
N1A Dy1A 1_555 1_555
C16A O1A 1_555 1_555
C16A O2A 1_555 1_555
C18A O7A 1_555 1_555
O10A C19A 1_555 1_555
C25A C26A 1_555 1_555
C27A O17A 1_555 1_555
O18A Dy2D 1_555 1_555

#END
