
#######################################################################
#
#                 Cambridge Crystallographic Data Centre
#                                CCDC 
#
#######################################################################
#
# If this CIF has been generated from an entry in the Cambridge 
# Structural Database, then it will include bibliographic, chemical, 
# crystal, experimental, refinement or atomic coordinate data resulting 
# from the CCDC's data processing and validation procedures.
#
#######################################################################

data_FIKXUU
_symmetry_cell_setting           monoclinic
_symmetry_space_group_name_H-M   'P 21/c'
_symmetry_Int_Tables_number      14
_space_group_name_Hall           '-P 2ybc'
loop_
_symmetry_equiv_pos_site_id
_symmetry_equiv_pos_as_xyz
1 x,y,z
2 -x,1/2+y,1/2-z
3 -x,-y,-z
4 x,1/2-y,1/2+z
_cell_length_a                   11.6733(5)
_cell_length_b                   13.4673(6)
_cell_length_c                   10.2536(4)
_cell_angle_alpha                90
_cell_angle_beta                 92.277(4)
_cell_angle_gamma                90
_cell_volume                     1610.67
loop_
_atom_site_label
_atom_site_type_symbol
_atom_site_fract_x
_atom_site_fract_y
_atom_site_fract_z
C1 C 0.2328(3) 0.8604(3) 0.9796(3)
C2 C 0.1639(4) 0.9447(3) 0.9766(4)
H1 H 0.1683 0.9908 1.0441
C3 C 0.0895(4) 0.9577(3) 0.8715(4)
H2 H 0.0434 1.0140 0.8676
C4 C 0.0811(3) 0.8887(3) 0.7702(4)
H3 H 0.0289 0.8995 0.7007
C5 C 0.1481(3) 0.8050(3) 0.7711(3)
H4 H 0.1424 0.7591 0.7034
C6 C 0.2252(3) 0.7912(3) 0.8767(3)
C7 C 0.3516(3) 0.7397(3) 1.0223(3)
C8 C 0.4355(4) 0.6758(3) 1.0938(4)
H5 H 0.3956 0.6272 1.1431
H6 H 0.4826 0.7158 1.1519
H7 H 0.4829 0.6430 1.0327
C9 C 0.2309(3) 0.4115(3) 0.8664(3)
C10 C 0.1724(3) 0.4521(3) 0.9690(4)
H8 H 0.1770 0.5195 0.9885
C11 C 0.1072(4) 0.3883(4) 1.0408(4)
H9 H 0.0673 0.4135 1.1102
C12 C 0.1586(4) 0.2461(4) 0.9136(5)
H10 H 0.1549 0.1784 0.8959
C13 C 0.2245(3) 0.3105(3) 0.8412(4)
C14 C 0.3365(3) 0.3825(3) 0.7007(4)
C15 C 0.4152(4) 0.3927(3) 0.5909(4)
H11 H 0.3891 0.4457 0.5346
H12 H 0.4161 0.3317 0.5423
H13 H 0.4912 0.4072 0.6248
C16 C 0.0995(4) 0.2884(4) 1.0129(5)
H14 H 0.0530 0.2484 1.0625
Cd1 Cd 0.36615(2) 0.61016(2) 0.76323(2)
Cl1 Cl 0.57495(9) 0.59010(8) 0.78841(11)
N1 N 0.3015(3) 0.4556(2) 0.7756(3)
N2 N 0.3144(3) 0.8263(2) 1.0709(3)
N3 N 0.2919(3) 0.2951(2) 0.7356(3)
H15 H 0.3150 0.2408 0.7104
N4 N 0.3016(3) 0.7151(2) 0.9066(3)
Cd1C Cd 0.36615(2) 0.88984(2) 1.26323(2)
N2C N 0.3144(3) 0.6737(2) 0.5709(3)
loop_
_geom_bond_atom_site_label_1
_geom_bond_atom_site_label_2
_geom_bond_site_symmetry_1
_geom_bond_site_symmetry_2
C1 C2 1_555 1_555
C2 H1 1_555 1_555
C3 C2 1_555 1_555
H2 C3 1_555 1_555
C4 C3 1_555 1_555
H3 C4 1_555 1_555
C5 C4 1_555 1_555
H4 C5 1_555 1_555
C6 C1 1_555 1_555
C7 C8 1_555 1_555
C8 H5 1_555 1_555
H6 C8 1_555 1_555
H7 C8 1_555 1_555
C9 C10 1_555 1_555
C10 H8 1_555 1_555
C11 C10 1_555 1_555
H9 C11 1_555 1_555
C12 H10 1_555 1_555
C13 C9 1_555 1_555
C14 C15 1_555 1_555
C15 H11 1_555 1_555
H12 C15 1_555 1_555
H13 C15 1_555 1_555
C16 C11 1_555 1_555
H14 C16 1_555 1_555
Cd1 Cl1 1_555 1_555
N1 C9 1_555 1_555
N2 C1 1_555 1_555
N3 C13 1_555 1_555
H15 N3 1_555 1_555
N4 C6 1_555 1_555
Cd1C N2 1_555 1_555
N2C Cd1 1_555 1_555
C5 C6 1_555 1_555
C7 N2 1_555 1_555
C7 N4 1_555 1_555
C12 C13 1_555 1_555
C12 C16 1_555 1_555
C14 N1 1_555 1_555
C14 N3 1_555 1_555
Cd1 N1 1_555 1_555
Cd1 N4 1_555 1_555

#END
