
#######################################################################
#
#                 Cambridge Crystallographic Data Centre
#                                CCDC 
#
#######################################################################
#
# If this CIF has been generated from an entry in the Cambridge 
# Structural Database, then it will include bibliographic, chemical, 
# crystal, experimental, refinement or atomic coordinate data resulting 
# from the CCDC's data processing and validation procedures.
#
#######################################################################

data_FIKYEF
_symmetry_cell_setting           tetragonal
_symmetry_space_group_name_H-M   'P 43 2 2'
_symmetry_Int_Tables_number      95
_space_group_name_Hall           'P 4cw 2c'
loop_
_symmetry_equiv_pos_site_id
_symmetry_equiv_pos_as_xyz
1 x,y,z
2 -y,x,3/4+z
3 -x,-y,1/2+z
4 y,-x,1/4+z
5 x,-y,1/2-z
6 y,x,1/4-z
7 -x,y,-z
8 -y,-x,3/4-z
_cell_length_a                   10.6908(12)
_cell_length_b                   10.6908(12)
_cell_length_c                   15.9656(18)
_cell_angle_alpha                90
_cell_angle_beta                 90
_cell_angle_gamma                90
_cell_volume                     1824.76
loop_
_atom_site_label
_atom_site_type_symbol
_atom_site_fract_x
_atom_site_fract_y
_atom_site_fract_z
Co1 Co 0.07812(12) 0.07812(12) 0.1250
N1 N 0.0877(9) 0.2726(8) 0.0919(4)
N2 N 0.0392(9) 0.4747(8) 0.1039(5)
H1 H 0.0003 0.5417 0.1183
N3 N 0.0146(7) 0.1411(7) 0.2465(5)
N4 N 0.0508(7) 0.1107(7) 0.3262(4)
N5 N 0.0177(9) 0.1995(7) 0.3776(6)
N6 N -0.0421(9) 0.2920(7) 0.3345(6)
C1 C 0.1452(12) 0.4676(10) 0.0551(7)
C2 C 0.2135(14) 0.5634(12) 0.0150(7)
H2 H 0.1903 0.6471 0.0186
C3 C 0.3156(14) 0.5252(15) -0.0294(8)
H3 H 0.3648 0.5859 -0.0551
C4 C 0.3503(13) 0.4003(14) -0.0384(8)
H4 H 0.4198 0.3797 -0.0707
C5 C 0.2811(10) 0.3055(11) 0.0008(6)
H5 H 0.3040 0.2218 -0.0036
C6 C 0.1767(11) 0.3426(10) 0.0464(6)
C7 C 0.0091(10) 0.3565(8) 0.1254(7)
C8 C -0.0932(11) 0.3241(10) 0.1824(6)
H6 H -0.1551 0.2747 0.1527
H7 H -0.1333 0.3998 0.2023
C9 C -0.0436(9) 0.2508(8) 0.2556(6)
N1D N 0.0877(9) -0.2726(8) 0.4081(4)
N2D N 0.0392(9) -0.4747(8) 0.3961(5)
H1D H 0.0003 -0.5417 0.3817
N3D N 0.0146(7) -0.1411(7) 0.2535(5)
N4D N 0.0508(7) -0.1107(7) 0.1738(4)
N5D N 0.0177(9) -0.1995(7) 0.1224(6)
N6D N -0.0421(9) -0.2920(7) 0.1655(6)
C1D C 0.1452(12) -0.4676(10) 0.4449(7)
C2D C 0.2135(14) -0.5634(12) 0.4850(7)
H2D H 0.1903 -0.6471 0.4814
C3D C 0.3156(14) -0.5252(15) 0.5294(8)
H3D H 0.3648 -0.5859 0.5551
C4D C 0.3503(13) -0.4003(14) 0.5384(8)
H4D H 0.4198 -0.3797 0.5707
C5D C 0.2811(10) -0.3055(11) 0.4992(6)
H5D H 0.3040 -0.2218 0.5036
C6D C 0.1767(11) -0.3426(10) 0.4536(6)
C7D C 0.0091(10) -0.3565(8) 0.3746(7)
C8D C -0.0932(11) -0.3241(10) 0.3176(6)
H6D H -0.1551 -0.2747 0.3473
H7D H -0.1333 -0.3998 0.2977
C9D C -0.0436(9) -0.2508(8) 0.2444(6)
Co1C Co 0.07812(12) -0.07812(12) 0.3750
N1E N 0.2726(8) 0.0877(9) 0.1581(4)
N3E N 0.1411(7) 0.0146(7) 0.0035(5)
N4A N -0.1107(7) 0.0508(7) 0.0762(4)
loop_
_geom_bond_atom_site_label_1
_geom_bond_atom_site_label_2
_geom_bond_site_symmetry_1
_geom_bond_site_symmetry_2
Co1 N1 1_555 1_555
N1 C6 1_555 1_555
N2 H1 1_555 1_555
N3 Co1 1_555 1_555
N4 N3 1_555 1_555
N5 N4 1_555 1_555
N6 N5 1_555 1_555
C1 N2 1_555 1_555
C2 C1 1_555 1_555
H2 C2 1_555 1_555
C3 C2 1_555 1_555
H3 C3 1_555 1_555
C4 C3 1_555 1_555
H4 C4 1_555 1_555
C5 C4 1_555 1_555
H5 C5 1_555 1_555
C6 C1 1_555 1_555
C7 N1 1_555 1_555
C8 C7 1_555 1_555
H6 C8 1_555 1_555
H7 C8 1_555 1_555
C9 N3 1_555 1_555
N1D C6D 1_555 1_555
N2D H1D 1_555 1_555
N3D N4D 1_555 1_555
N4D Co1 1_555 1_555
N5D N4D 1_555 1_555
N6D N5D 1_555 1_555
C1D N2D 1_555 1_555
C2D C1D 1_555 1_555
H2D C2D 1_555 1_555
C3D C2D 1_555 1_555
H3D C3D 1_555 1_555
C4D C3D 1_555 1_555
H4D C4D 1_555 1_555
C5D C4D 1_555 1_555
H5D C5D 1_555 1_555
C6D C1D 1_555 1_555
C7D N1D 1_555 1_555
C8D C7D 1_555 1_555
H6D C8D 1_555 1_555
H7D C8D 1_555 1_555
C9D N3D 1_555 1_555
Co1C N4 1_555 1_555
N1E Co1 1_555 1_555
N3E Co1 1_555 1_555
N4A Co1 1_555 1_555
N2 C7 1_555 1_555
N6 C9 1_555 1_555
C5 C6 1_555 1_555
C8 C9 1_555 1_555
N1D Co1C 1_555 1_555
N2D C7D 1_555 1_555
N3D Co1C 1_555 1_555
N6D C9D 1_555 1_555
C5D C6D 1_555 1_555
C8D C9D 1_555 1_555

#END
