
#######################################################################
#
#                 Cambridge Crystallographic Data Centre
#                                CCDC 
#
#######################################################################
#
# If this CIF has been generated from an entry in the Cambridge 
# Structural Database, then it will include bibliographic, chemical, 
# crystal, experimental, refinement or atomic coordinate data resulting 
# from the CCDC's data processing and validation procedures.
#
#######################################################################

data_FILMEU
_symmetry_cell_setting           triclinic
_symmetry_space_group_name_H-M   'P -1'
_symmetry_Int_Tables_number      2
_space_group_name_Hall           '-P 1'
loop_
_symmetry_equiv_pos_site_id
_symmetry_equiv_pos_as_xyz
1 x,y,z
2 -x,-y,-z
_cell_length_a                   9.8609(15)
_cell_length_b                   14.942(2)
_cell_length_c                   17.059(3)
_cell_angle_alpha                99.823(3)
_cell_angle_beta                 90.392(3)
_cell_angle_gamma                99.569(3)
_cell_volume                     2440.59
loop_
_atom_site_label
_atom_site_type_symbol
_atom_site_fract_x
_atom_site_fract_y
_atom_site_fract_z
S1 S -0.16896(5) 0.45999(3) 0.12885(3)
S2 S 0.35205(5) 0.54362(3) 0.37482(3)
S3 S -0.21764(5) 0.61179(3) 0.23684(3)
S4 S 0.22716(5) 0.39409(3) 0.26404(3)
F1 F 0.15862(14) 0.62102(10) 0.45126(8)
F2 F -0.40268(14) 0.38249(10) 0.05270(8)
O1 O 0.44447(14) 0.48904(10) 0.39874(8)
F3 F 0.14870(16) 0.47829(11) 0.45895(9)
O2 O -0.32388(15) 0.62936(10) 0.29137(8)
F4 F -0.33838(17) 0.52382(11) 0.04148(9)
O3 O -0.04882(14) 0.51356(10) 0.10468(8)
O4 O -0.16625(15) 0.36650(10) 0.13738(8)
F5 F -0.04821(16) 0.71053(10) 0.34823(9)
O5 O 0.11412(14) 0.37787(10) 0.20748(8)
O6 O -0.18358(16) 0.67229(10) 0.18118(9)
F6 F 0.34846(15) 0.29540(10) 0.15469(9)
F7 F 0.48705(14) 0.38231(12) 0.24355(10)
O7 O 0.22709(15) 0.33256(10) 0.31924(9)
O8 O 0.40247(15) 0.63774(10) 0.36830(8)
F8 F -0.07689(17) 0.56543(11) 0.34923(9)
F9 F 0.04736(14) 0.62281(12) 0.26081(10)
F10 F 0.30553(16) 0.58032(14) 0.52490(7)
N1 N 0.25512(16) 0.49992(11) 0.29943(9)
F11 F 0.39386(18) 0.44029(10) 0.15424(10)
F12 F -0.23533(17) 0.41918(14) -0.02133(8)
N2 N -0.24331(16) 0.50552(11) 0.20285(9)
C1 C -0.0638(2) 0.62834(15) 0.30226(13)
C2 C -0.2945(2) 0.44576(16) 0.04600(12)
C3 C 0.2329(2) 0.55648(16) 0.45676(12)
C4 C 0.3744(2) 0.37760(15) 0.20070(13)
O9 O 0.63764(13) 0.74365(9) 0.46127(7)
F13 F 0.53791(14) 0.84782(10) 0.73249(7)
O10 O 0.46875(14) 0.83865(9) 0.41226(8)
C5 C 0.47994(19) 0.84515(12) 0.49307(11)
F14 F 0.36462(15) 0.95046(10) 0.68250(8)
C6 C 0.5195(2) 0.84689(14) 0.65350(11)
C7 C 0.57114(19) 0.79276(12) 0.51955(11)
C8 C 0.7013(2) 0.67163(14) 0.48538(11)
H1 H 0.7849 0.6993 0.5179
H2 H 0.7252 0.6309 0.4380
H3 H 0.6370 0.6359 0.5166
C9 C 0.58981(19) 0.79326(13) 0.60007(11)
H4 H 0.6502 0.7572 0.6182
C10 C 0.4317(2) 0.89884(14) 0.62812(12)
C11 C 0.4099(2) 0.89810(14) 0.54781(12)
H5 H 0.3477 0.9335 0.5305
C12 C 0.3572(2) 0.87422(17) 0.38139(13)
H6 H 0.2697 0.8413 0.3966
H7 H 0.3602 0.8657 0.3232
H8 H 0.3655 0.9400 0.4032
O11 O -0.11780(14) 0.25875(9) 0.27224(8)
O12 O 0.04298(15) 0.16434(9) 0.19045(8)
F15 F -0.02445(16) 0.13280(11) 0.50320(8)
F16 F 0.14198(15) 0.02966(10) 0.41565(9)
C13 C 0.02927(19) 0.15048(12) 0.26748(11)
C14 C 0.0961(2) 0.09127(13) 0.30157(12)
H9 H 0.1537 0.0547 0.2711
C15 C -0.05690(19) 0.20317(13) 0.31235(11)
C16 C 0.1272(2) 0.11015(15) 0.14073(13)
H10 H 0.2213 0.1230 0.1635
H11 H 0.1278 0.1259 0.0873
H12 H 0.0898 0.0446 0.1375
C17 C -0.0062(2) 0.13878(15) 0.42525(12)
C18 C -0.1885(3) 0.32510(15) 0.31923(13)
H13 H -0.2662 0.2927 0.3446
H14 H -0.2226 0.3633 0.2848
H15 H -0.1248 0.3644 0.3603
C19 C -0.0739(2) 0.19801(14) 0.39215(12)
H16 H -0.1308 0.2344 0.4234
C20 C 0.0765(2) 0.08682(15) 0.38174(13)
O13 O 0.01081(14) 0.25927(9) 0.03896(7)
O14 O -0.20196(14) 0.16797(9) 0.09294(8)
F17 F -0.14759(16) 0.13342(11) -0.22963(7)
F18 F -0.36933(16) 0.03482(10) -0.17355(9)
C21 C -0.1965(2) 0.15515(13) 0.01169(11)
C22 C -0.0809(2) 0.20587(13) -0.01741(11)
C23 C -0.1632(2) 0.14088(16) -0.14971(12)
C24 C 0.1112(2) 0.32828(15) 0.01167(12)
H17 H 0.1765 0.2980 -0.0219
H18 H 0.1609 0.3692 0.0576
H19 H 0.0643 0.3644 -0.0193
C25 C -0.2934(2) 0.09750(14) -0.04067(13)
H20 H -0.3715 0.0626 -0.0214
C26 C -0.2751(2) 0.09126(15) -0.12153(13)
C27 C -0.0646(2) 0.19929(14) -0.09891(11)
H21 H 0.0126 0.2341 -0.1192
C28 C -0.3297(2) 0.13461(17) 0.12600(14)
H22 H -0.4027 0.1635 0.1068
H23 H -0.3213 0.1499 0.1842
H24 H -0.3525 0.0676 0.1096
O15 O 0.48696(14) 0.74207(9) 0.23015(7)
F19 F 0.62898(14) 0.85290(10) -0.00955(7)
O16 O 0.70048(14) 0.83923(9) 0.30624(7)
F20 F 0.85198(14) 0.95829(10) 0.07178(8)
C29 C 0.6486(2) 0.85084(15) 0.06926(11)
C30 C 0.6894(2) 0.84849(13) 0.22820(11)
C31 C 0.5537(2) 0.79420(13) 0.10581(11)
H25 H 0.4766 0.7564 0.0765
C32 C 0.57341(19) 0.79370(12) 0.18628(11)
C33 C 0.7830(2) 0.90430(13) 0.19027(12)
H26 H 0.8611 0.9420 0.2186
C34 C 0.8161(2) 0.89369(15) 0.35254(12)
H27 H 0.9013 0.8778 0.3292
H28 H 0.8118 0.8814 0.4072
H29 H 0.8144 0.9592 0.3530
C35 C 0.7610(2) 0.90427(14) 0.10998(12)
C36 C 0.3778(2) 0.67544(15) 0.18698(13)
H30 H 0.3160 0.7073 0.1610
H31 H 0.3261 0.6404 0.2240
H32 H 0.4171 0.6332 0.1466
Li1 Li 0.5634(3) 0.7301(2) 0.34315(18)
Li2 Li -0.0473(3) 0.2745(2) 0.15786(18)
O2_2 O 0.67612(15) 0.62936(10) 0.29137(8)
Li1_2 Li -0.4366(3) 0.7301(2) 0.34315(18)
loop_
_geom_bond_atom_site_label_1
_geom_bond_atom_site_label_2
_geom_bond_site_symmetry_1
_geom_bond_site_symmetry_2
S1 O3 1_555 1_555
S2 O1 1_555 1_555
S3 O2 1_555 1_555
S4 O5 1_555 1_555
F1 C3 1_555 1_555
F2 C2 1_555 1_555
F3 C3 1_555 1_555
O2 Li1_2 1_555 1_555
F4 C2 1_555 1_555
O4 S1 1_555 1_555
F5 C1 1_555 1_555
O5 Li2 1_555 1_555
O6 S3 1_555 1_555
F6 C4 1_555 1_555
F7 C4 1_555 1_555
O7 S4 1_555 1_555
O8 S2 1_555 1_555
F8 C1 1_555 1_555
F9 C1 1_555 1_555
F10 C3 1_555 1_555
N1 S2 1_555 1_555
F11 C4 1_555 1_555
F12 C2 1_555 1_555
N2 S1 1_555 1_555
C1 S3 1_555 1_555
C2 S1 1_555 1_555
C3 S2 1_555 1_555
C4 S4 1_555 1_555
O9 C7 1_555 1_555
F13 C6 1_555 1_555
O10 C5 1_555 1_555
C5 C7 1_555 1_555
F14 C10 1_555 1_555
C6 C9 1_555 1_555
C7 C9 1_555 1_555
C8 O9 1_555 1_555
H1 C8 1_555 1_555
H2 C8 1_555 1_555
H3 C8 1_555 1_555
C9 H4 1_555 1_555
C10 C6 1_555 1_555
C11 C5 1_555 1_555
H5 C11 1_555 1_555
C12 O10 1_555 1_555
H6 C12 1_555 1_555
H7 C12 1_555 1_555
H8 C12 1_555 1_555
O11 C15 1_555 1_555
O12 C13 1_555 1_555
F15 C17 1_555 1_555
F16 C20 1_555 1_555
C13 C14 1_555 1_555
C14 H9 1_555 1_555
C15 C13 1_555 1_555
C16 O12 1_555 1_555
H10 C16 1_555 1_555
H11 C16 1_555 1_555
H12 C16 1_555 1_555
C17 C19 1_555 1_555
C18 O11 1_555 1_555
H13 C18 1_555 1_555
H14 C18 1_555 1_555
H15 C18 1_555 1_555
C19 C15 1_555 1_555
H16 C19 1_555 1_555
C20 C14 1_555 1_555
O13 C22 1_555 1_555
O14 C21 1_555 1_555
F17 C23 1_555 1_555
F18 C26 1_555 1_555
C21 C22 1_555 1_555
C22 C27 1_555 1_555
C23 C26 1_555 1_555
C24 O13 1_555 1_555
H17 C24 1_555 1_555
H18 C24 1_555 1_555
H19 C24 1_555 1_555
C25 C21 1_555 1_555
H20 C25 1_555 1_555
C26 C25 1_555 1_555
C27 C23 1_555 1_555
H21 C27 1_555 1_555
C28 O14 1_555 1_555
H22 C28 1_555 1_555
H23 C28 1_555 1_555
H24 C28 1_555 1_555
O15 C32 1_555 1_555
F19 C29 1_555 1_555
O16 C30 1_555 1_555
F20 C35 1_555 1_555
C29 C31 1_555 1_555
C30 C32 1_555 1_555
C31 H25 1_555 1_555
C32 C31 1_555 1_555
C33 C30 1_555 1_555
H26 C33 1_555 1_555
C34 O16 1_555 1_555
H27 C34 1_555 1_555
H28 C34 1_555 1_555
H29 C34 1_555 1_555
C35 C29 1_555 1_555
C36 O15 1_555 1_555
H30 C36 1_555 1_555
H31 C36 1_555 1_555
H32 C36 1_555 1_555
Li1 O8 1_555 1_555
Li2 O4 1_555 1_555
O2_2 Li1 1_555 1_555
S3 N2 1_555 1_555
S4 N1 1_555 1_555
O9 Li1 1_555 1_555
O10 Li1 1_555 1_555
C10 C11 1_555 1_555
O11 Li2 1_555 1_555
O12 Li2 1_555 1_555
C17 C20 1_555 1_555
O13 Li2 1_555 1_555
O14 Li2 1_555 1_555
O15 Li1 1_555 1_555
O16 Li1 1_555 1_555
C33 C35 1_555 1_555

#END
