
#######################################################################
#
#                 Cambridge Crystallographic Data Centre
#                                CCDC 
#
#######################################################################
#
# If this CIF has been generated from an entry in the Cambridge 
# Structural Database, then it will include bibliographic, chemical, 
# crystal, experimental, refinement or atomic coordinate data resulting 
# from the CCDC's data processing and validation procedures.
#
#######################################################################

data_FILYIJ
_symmetry_cell_setting           triclinic
_symmetry_space_group_name_H-M   'P -1'
_symmetry_Int_Tables_number      2
_space_group_name_Hall           '-P 1'
loop_
_symmetry_equiv_pos_site_id
_symmetry_equiv_pos_as_xyz
1 x,y,z
2 -x,-y,-z
_cell_length_a                   5.9686(5)
_cell_length_b                   7.0761(6)
_cell_length_c                   14.3293(13)
_cell_angle_alpha                77.1700(10)
_cell_angle_beta                 85.2520(10)
_cell_angle_gamma                88.5550(10)
_cell_volume                     588.04
loop_
_atom_site_label
_atom_site_type_symbol
_atom_site_fract_x
_atom_site_fract_y
_atom_site_fract_z
Mo1 Mo 0.78828(3) 0.38553(3) -0.022791(16)
O1 O 0.7711(3) 0.1947(3) 0.07852(14)
O2 O 0.7290(3) 0.2810(3) -0.11620(14)
N1 N 0.7823(4) 0.7050(3) -0.14017(16)
H1 H 0.6636 0.7722 -0.1213
H2 H 0.9062 0.7693 -0.1336
C1 C 0.5778(4) 0.6584(4) -0.2736(2)
H3 H 0.4552 0.6140 -0.2305
N2 N 0.6862(4) 0.8123(3) -0.84094(16)
H4 H 0.7236 0.9330 -0.8705
H5 H 0.5455 0.7900 -0.8516
H6 H 0.7785 0.7293 -0.8635
C2 C 0.7338(4) 0.7490(4) -0.5414(2)
C3 C 0.7039(5) 0.7870(4) -0.7377(2)
C4 C 0.9024(4) 0.7188(4) -0.6979(2)
H7 H 1.0242 0.6857 -0.7361
C5 C 0.7482(4) 0.7333(4) -0.4368(2)
C6 C 0.5361(4) 0.8167(4) -0.5845(2)
H8 H 0.4130 0.8493 -0.5469
C7 C 0.7723(4) 0.7158(4) -0.2402(2)
C8 C 0.9160(4) 0.7008(4) -0.6000(2)
H9 H 1.0488 0.6559 -0.5729
C9 C 0.9430(4) 0.7873(4) -0.4020(2)
H10 H 1.0666 0.8296 -0.4448
C10 C 0.5205(4) 0.8360(4) -0.6820(2)
H11 H 0.3884 0.8814 -0.7097
C11 C 0.5665(4) 0.6673(4) -0.3705(2)
H12 H 0.4358 0.6287 -0.3920
C12 C 0.9563(4) 0.7792(4) -0.3050(2)
H13 H 1.0876 0.8160 -0.2833
O3 O 0.9021(3) 0.5915(3) 0.05348(13)
O4 O 0.5000 0.5000 0.0000
Mo1A Mo 1.21172(3) 0.61447(3) 0.022791(16)
Mo1A_2 Mo 0.21172(3) 0.61447(3) 0.022791(16)
O1A O 1.2289(3) 0.8053(3) -0.07852(14)
O2A O 1.2710(3) 0.7190(3) 0.11620(14)
N1A N 1.2177(4) 0.2950(3) 0.14017(16)
H1A H 1.3364 0.2278 0.1213
H2A H 1.0938 0.2307 0.1336
C1A C 1.4222(4) 0.3416(4) 0.2736(2)
H3A H 1.5448 0.3860 0.2305
N2A N 1.3138(4) 0.1877(3) 0.84094(16)
H4A H 1.2764 0.0670 0.8705
H5A H 1.4545 0.2100 0.8516
H6A H 1.2215 0.2707 0.8635
C2A C 1.2662(4) 0.2510(4) 0.5414(2)
C3A C 1.2961(5) 0.2130(4) 0.7377(2)
C4A C 1.0976(4) 0.2812(4) 0.6979(2)
H7A H 0.9758 0.3143 0.7361
C5A C 1.2518(4) 0.2667(4) 0.4368(2)
C6A C 1.4639(4) 0.1833(4) 0.5845(2)
H8A H 1.5870 0.1507 0.5469
C7A C 1.2277(4) 0.2842(4) 0.2402(2)
C8A C 1.0840(4) 0.2992(4) 0.6000(2)
H9A H 0.9512 0.3441 0.5729
C9A C 1.0570(4) 0.2127(4) 0.4020(2)
H10A H 0.9334 0.1704 0.4448
C10A C 1.4795(4) 0.1640(4) 0.6820(2)
H11A H 1.6116 0.1186 0.7097
C11A C 1.4335(4) 0.3327(4) 0.3705(2)
H12A H 1.5642 0.3713 0.3920
C12A C 1.0437(4) 0.2208(4) 0.3050(2)
H13A H 0.9124 0.1840 0.2833
O3A O 1.0979(3) 0.4085(3) -0.05348(13)
O4_2 O 1.5000 0.5000 0.0000
loop_
_geom_bond_atom_site_label_1
_geom_bond_atom_site_label_2
_geom_bond_site_symmetry_1
_geom_bond_site_symmetry_2
Mo1 O1 1_555 1_555
O2 Mo1 1_555 1_555
N1 Mo1 1_555 1_555
H1 N1 1_555 1_555
H2 N1 1_555 1_555
C1 H3 1_555 1_555
N2 H4 1_555 1_555
H5 N2 1_555 1_555
H6 N2 1_555 1_555
C2 C5 1_555 1_555
C3 N2 1_555 1_555
C4 C3 1_555 1_555
H7 C4 1_555 1_555
C5 C9 1_555 1_555
C6 C2 1_555 1_555
H8 C6 1_555 1_555
C7 N1 1_555 1_555
C8 C2 1_555 1_555
H9 C8 1_555 1_555
C9 H10 1_555 1_555
C10 C3 1_555 1_555
H11 C10 1_555 1_555
C11 C1 1_555 1_555
H12 C11 1_555 1_555
C12 C7 1_555 1_555
H13 C12 1_555 1_555
O3 Mo1 1_555 1_555
O4 Mo1 1_555 1_555
Mo1A O3 1_555 1_555
Mo1A_2 O4 1_555 1_555
O1A Mo1A 1_555 1_555
O2A Mo1A 1_555 1_555
N1A Mo1A 1_555 1_555
H1A N1A 1_555 1_555
H2A N1A 1_555 1_555
C1A H3A 1_555 1_555
N2A H4A 1_555 1_555
H5A N2A 1_555 1_555
H6A N2A 1_555 1_555
C2A C5A 1_555 1_555
C3A N2A 1_555 1_555
C4A C3A 1_555 1_555
H7A C4A 1_555 1_555
C5A C9A 1_555 1_555
C6A C2A 1_555 1_555
H8A C6A 1_555 1_555
C7A N1A 1_555 1_555
C8A C2A 1_555 1_555
H9A C8A 1_555 1_555
C9A H10A 1_555 1_555
C10A C3A 1_555 1_555
H11A C10A 1_555 1_555
C11A C1A 1_555 1_555
H12A C11A 1_555 1_555
C12A C7A 1_555 1_555
H13A C12A 1_555 1_555
O3A Mo1 1_555 1_555
O4_2 Mo1A 1_555 1_555
C1 C7 1_555 1_555
C4 C8 1_555 1_555
C5 C11 1_555 1_555
C6 C10 1_555 1_555
C9 C12 1_555 1_555
Mo1A O3A 1_555 1_555
C1A C7A 1_555 1_555
C4A C8A 1_555 1_555
C5A C11A 1_555 1_555
C6A C10A 1_555 1_555
C9A C12A 1_555 1_555

#END
