
#######################################################################
#
#                 Cambridge Crystallographic Data Centre
#                                CCDC 
#
#######################################################################
#
# If this CIF has been generated from an entry in the Cambridge 
# Structural Database, then it will include bibliographic, chemical, 
# crystal, experimental, refinement or atomic coordinate data resulting 
# from the CCDC's data processing and validation procedures.
#
#######################################################################

data_FIMMUL
_symmetry_cell_setting           monoclinic
_symmetry_space_group_name_H-M   'P 21/c'
_symmetry_Int_Tables_number      14
_space_group_name_Hall           '-P 2ybc'
loop_
_symmetry_equiv_pos_site_id
_symmetry_equiv_pos_as_xyz
1 x,y,z
2 -x,1/2+y,1/2-z
3 -x,-y,-z
4 x,1/2-y,1/2+z
_cell_length_a                   8.2704(13)
_cell_length_b                   11.2494(18)
_cell_length_c                   16.9383(19)
_cell_angle_alpha                90
_cell_angle_beta                 119.227(5)
_cell_angle_gamma                90
_cell_volume                     1375.27
loop_
_atom_site_label
_atom_site_type_symbol
_atom_site_fract_x
_atom_site_fract_y
_atom_site_fract_z
Zn1 Zn 0.09504(12) 0.15296(8) -0.01051(6)
N1 N 1.0550(9) 0.1306(6) 0.2829(4)
N2 N 1.1330(9) 0.2425(6) 0.4035(5)
O1 O 0.9500(8) -0.2508(6) 0.4210(4)
O2 O 0.6597(10) -0.2843(6) 0.3771(4)
O3 O 0.1680(7) -0.1143(5) 0.1001(4)
O4 O 0.2285(7) -0.0009(5) 0.0107(3)
C1 C 0.7949(11) -0.0083(7) 0.2040(5)
C2 C 0.8510(11) -0.0860(7) 0.2762(5)
H1 H 0.9758 -0.0906 0.3192
C3 C 0.7240(11) -0.1570(7) 0.2852(5)
C4 C 0.5382(11) -0.1493(7) 0.2199(5)
H2 H 0.4516 -0.1961 0.2254
C5 C 0.4798(10) -0.0732(6) 0.1468(5)
C6 C 0.6106(10) -0.0036(7) 0.1403(5)
H3 H 0.5728 0.0478 0.0914
C7 C 0.9351(12) 0.0699(8) 0.1970(6)
H4 H 1.0107 0.0219 0.1801
H5 H 0.8710 0.1286 0.1499
C8 C 0.9980(11) 0.2035(8) 0.3261(5)
H6 H 0.8746 0.2249 0.3038
C9 C 1.2920(11) 0.1890(7) 0.4128(5)
C10 C 1.2454(11) 0.1179(7) 0.3364(5)
C11 C 1.3755(13) 0.0542(9) 0.3257(7)
H7 H 1.3426 0.0061 0.2754
C12 C 1.5562(13) 0.0653(10) 0.3928(7)
H8 H 1.6482 0.0252 0.3870
C13 C 1.6058(12) 0.1345(10) 0.4691(7)
H9 H 1.7298 0.1383 0.5133
C14 C 1.4787(11) 0.1968(8) 0.4812(6)
H10 H 1.5136 0.2428 0.5326
C15 C 0.7814(13) -0.2361(7) 0.3660(6)
C16 C 0.2780(10) -0.0625(7) 0.0808(5)
Zn1A Zn 0.90496(12) -0.34704(8) 0.51051(6)
Zn1B Zn -0.09504(12) -0.15296(8) 0.01051(6)
Zn1C Zn 1.09504(12) 0.34704(8) 0.48949(6)
N2C N 0.1330(9) 0.2575(6) -0.0965(5)
O1A O 0.0500(8) 0.2492(6) 0.0790(4)
O2A O 0.3403(10) 0.2157(6) 0.1229(4)
O3B O -0.1680(7) 0.1143(5) -0.1001(4)
loop_
_geom_bond_atom_site_label_1
_geom_bond_atom_site_label_2
_geom_bond_site_symmetry_1
_geom_bond_site_symmetry_2
Zn1 O4 1_555 1_555
N1 C7 1_555 1_555
N2 C8 1_555 1_555
O1 C15 1_555 1_555
O2 C15 1_555 1_555
O3 C16 1_555 1_555
O4 C16 1_555 1_555
C1 C2 1_555 1_555
C2 H1 1_555 1_555
C3 C2 1_555 1_555
C4 C3 1_555 1_555
H2 C4 1_555 1_555
C5 C4 1_555 1_555
C6 C1 1_555 1_555
H3 C6 1_555 1_555
C7 C1 1_555 1_555
H4 C7 1_555 1_555
H5 C7 1_555 1_555
C8 N1 1_555 1_555
H6 C8 1_555 1_555
C9 N2 1_555 1_555
C10 N1 1_555 1_555
C11 C10 1_555 1_555
H7 C11 1_555 1_555
C12 C11 1_555 1_555
H8 C12 1_555 1_555
C13 C12 1_555 1_555
H9 C13 1_555 1_555
C14 C9 1_555 1_555
H10 C14 1_555 1_555
C15 C3 1_555 1_555
C16 C5 1_555 1_555
Zn1A O1 1_555 1_555
Zn1B O3 1_555 1_555
Zn1C N2 1_555 1_555
N2C Zn1 1_555 1_555
O1A Zn1 1_555 1_555
O2A Zn1 1_555 1_555
O3B Zn1 1_555 1_555
O2 Zn1A 1_555 1_555
C5 C6 1_555 1_555
C9 C10 1_555 1_555
C13 C14 1_555 1_555

#END
