
#######################################################################
#
#                 Cambridge Crystallographic Data Centre
#                                CCDC 
#
#######################################################################
#
# If this CIF has been generated from an entry in the Cambridge 
# Structural Database, then it will include bibliographic, chemical, 
# crystal, experimental, refinement or atomic coordinate data resulting 
# from the CCDC's data processing and validation procedures.
#
#######################################################################

data_FIMQOI
_symmetry_cell_setting           triclinic
_symmetry_space_group_name_H-M   'P -1'
_symmetry_Int_Tables_number      2
_space_group_name_Hall           '-P 1'
loop_
_symmetry_equiv_pos_site_id
_symmetry_equiv_pos_as_xyz
1 x,y,z
2 -x,-y,-z
_cell_length_a                   11.6201(9)
_cell_length_b                   12.778(2)
_cell_length_c                   16.848(2)
_cell_angle_alpha                85.962(3)
_cell_angle_beta                 87.149(2)
_cell_angle_gamma                89.264(7)
_cell_volume                     2492.21
loop_
_atom_site_label
_atom_site_type_symbol
_atom_site_fract_x
_atom_site_fract_y
_atom_site_fract_z
K1 K 0.65583(8) 0.03099(9) -0.08716(6)
K2 K 0.20811(9) -0.07486(9) -0.10995(7)
S1 S 0.05557(10) 0.1740(1) 0.35737(7)
S2 S 0.48798(9) 0.22405(9) -0.19389(7)
S3 S 0.38808(9) -0.17919(9) -0.25342(7)
S4 S 0.14215(10) 0.15549(9) 0.04068(7)
O1 O -0.1429(2) 0.1157(2) 0.2543(2)
O2 O 0.0384(3) 0.0727(3) -0.1353(2)
O3 O 0.5860(3) 0.1493(3) 0.0422(2)
O4 O 0.0549(2) 0.0886(2) 0.1957(2)
O5 O 0.4567(2) -0.0068(2) -0.1573(2)
O6 O 0.8493(2) 0.1383(3) -0.0414(2)
O7 O 0.3474(2) 0.0985(2) -0.0599(2)
O8 O 0.7780(3) 0.0624(3) -0.2258(2)
C1 C 0.1666(3) 0.2250(3) 0.1262(3)
C2 C 0.3100(3) 0.3587(3) -0.1630(3)
C3 C 0.1117(3) 0.1772(3) 0.1964(3)
C4 C 0.2101(3) 0.2355(3) -0.0385(2)
C5 C 0.2114(4) 0.3978(3) -0.1240(3)
C6 C 0.1634(3) 0.3342(3) -0.0609(3)
C7 C 0.2284(3) 0.3154(3) 0.1281(3)
C8 C 0.4384(3) 0.1323(4) -0.2586(3)
C9 C 0.3575(3) 0.2618(3) -0.1420(2)
C10 C -0.0873(4) 0.2243(4) 0.3569(3)
C11 C 0.4321(3) 0.0250(3) -0.2316(3)
C12 C 0.1200(3) 0.2311(4) 0.2667(3)
C13 C 0.3949(3) -0.0431(3) -0.2863(3)
C14 C -0.3123(4) 0.2965(4) 0.3712(3)
C15 C 0.1842(4) 0.3217(4) 0.2660(3)
C16 C 0.4055(4) 0.1668(4) -0.3339(3)
C17 C -0.1206(4) 0.2978(4) 0.4110(3)
C18 C -0.2326(4) 0.3371(4) 0.4191(3)
C19 C -0.1695(4) 0.1869(3) 0.3087(3)
C20 C 0.1610(4) 0.5039(4) -0.1521(3)
C21 C 0.2403(3) 0.3657(3) 0.1979(3)
C22 C 0.3115(4) 0.4654(4) 0.2016(3)
C23 C 0.3674(4) 0.0990(4) -0.3872(3)
C24 C 0.3654(4) -0.0076(4) -0.3621(3)
C25 C 0.2339(4) 0.5536(4) 0.2323(3)
C26 C 0.3652(5) 0.5041(4) 0.1203(3)
C27 C 0.5302(4) 0.2477(4) 0.0416(3)
C28 C 0.1280(5) 0.5000(5) -0.2381(3)
C29 C -0.2685(4) 0.4163(4) 0.4801(3)
C30 C 0.4087(4) 0.4435(4) 0.2584(3)
C31 C 0.2507(4) 0.5882(4) -0.1462(4)
C32 C 0.0676(5) 0.1402(5) -0.2051(4)
C33 C 0.0551(5) 0.5346(4) -0.1016(3)
C34 C -0.3574(6) 0.4917(6) 0.4466(4)
C35 C 0.2974(9) 0.0514(6) -0.5192(4)
C36 C 0.3237(6) 0.1373(4) -0.4682(3)
C37 C -0.3173(8) 0.3564(6) 0.5538(4)
C38 C 0.8327(5) 0.2433(5) -0.0683(5)
C39 C -0.1663(6) 0.4797(6) 0.5014(5)
C40 C 0.2168(8) 0.2043(7) -0.4527(5)
C41 C 0.4135(8) 0.2066(7) -0.5150(4)
C42 C 0.7539(7) 0.0932(9) -0.3030(5)
C43 C 0.2834(4) -0.2237(3) -0.3157(3)
C44 C 0.3069(3) 0.1965(3) -0.0803(3)
H1 H 0.2646 0.3455 0.0797
H2 H -0.3907 0.3195 0.3765
H3 H 0.1895 0.3546 0.3145
H4 H -0.0640 0.3229 0.4439
H5 H 0.3460 0.4009 -0.2061
H6 H 0.0973 0.3585 -0.0315
H7 H 0.4100 0.2394 -0.3495
H8 H 0.3428 -0.0566 -0.3980
H9 H -0.0580 0.0983 0.2534
H10 H 0.2182 0.6552 -0.1595
H11 H 0.3146 0.5760 -0.1822
H12 H 0.0741 0.4455 -0.2419
H13 H 0.1946 0.4875 -0.2712
H14 H 0.0725 0.5310 -0.0473
H15 H -0.0061 0.4881 -0.1091
H16 H 0.4523 0.2523 0.0361
H17 H 0.5545 0.3071 0.0806
H18 H 0.5527 0.2613 -0.0166
H19 H 0.9207 0.1034 -0.0568
H20 H -0.3387 0.5080 0.3918
H21 H -0.4309 0.4592 0.4527
H22 H -0.1306 0.5116 0.4538
H23 H 0.2011 0.5315 0.2832
H24 H 0.3783 0.4156 0.3081
H25 H 0.4482 0.5071 0.2648
H26 H 0.4620 0.3946 0.2363
H27 H 0.4027 0.5687 0.1250
H28 H 0.3066 0.5135 0.0833
H29 H 0.7638 0.2693 -0.0430
H30 H -0.3586 0.5534 0.4745
H31 H -0.3902 0.3297 0.5437
H32 H -0.3253 0.4024 0.5960
H33 H -0.2664 0.3006 0.5685
H34 H -0.1134 0.4352 0.5281
H35 H -0.1928 0.5331 0.5348
H36 H 0.8961 0.2836 -0.0545
H37 H 0.8262 0.2486 -0.1240
H38 H 0.0937 0.5654 -0.2558
H39 H 0.2763 0.5856 -0.0934
H40 H 0.0319 0.6044 -0.1180
H41 H 0.2784 0.6145 0.2358
H42 H 0.1743 0.5684 0.1963
H43 H 0.4197 0.4535 0.1030
H44 H 0.8343 -0.0086 -0.2210
H45 H 0.8026 0.0610 -0.3409
H46 H 0.7685 0.1703 -0.3122
H47 H 0.6760 0.0840 -0.3133
H48 H 0.2687 0.0777 -0.5684
H49 H 0.2397 0.0057 -0.4922
H50 H 0.3647 0.0097 -0.5292
H51 H 0.1829 0.2314 -0.5004
H52 H 0.2326 0.2627 -0.4218
H53 H 0.1571 0.1634 -0.4218
H54 H 0.4851 0.1674 -0.5260
H55 H 0.4364 0.2651 -0.4856
H56 H 0.3889 0.2352 -0.5653
H57 H 0.0766 0.1014 -0.2516
H58 H 0.1388 0.1762 -0.1995
H59 H 0.0089 0.1928 -0.2143
K1A K -0.65583(8) -0.03099(9) 0.08716(6)
K1A_2 K 0.34417(8) -0.03099(9) 0.08716(6)
K1_2 K -0.34417(8) 0.03099(9) -0.08716(6)
K2A K -0.20811(9) 0.07486(9) 0.10995(7)
K2A_2 K 0.79189(9) 0.07486(9) 0.10995(7)
K2_2 K -0.79189(9) -0.07486(9) -0.10995(7)
S1A S -0.05557(10) -0.1740(1) -0.35737(7)
S2A S -0.48798(9) -0.22405(9) 0.19389(7)
S3A S -0.38808(9) 0.17919(9) 0.25342(7)
S4A S -0.14215(10) -0.15549(9) -0.04068(7)
S4A_2 S 0.85785(10) -0.15549(9) -0.04068(7)
S4_2 S -0.85785(10) 0.15549(9) 0.04068(7)
O1A O 0.1429(2) -0.1157(2) -0.2543(2)
O2A O -0.0384(3) -0.0727(3) 0.1353(2)
O3A O 0.4140(3) -0.1493(3) -0.0422(2)
O3A_2 O -0.5860(3) -0.1493(3) -0.0422(2)
O3_2 O -0.4140(3) 0.1493(3) 0.0422(2)
O4A O -0.0549(2) -0.0886(2) -0.1957(2)
O5A O -0.4567(2) 0.0068(2) 0.1573(2)
O6A O 0.1507(2) -0.1383(3) 0.0414(2)
O6A_2 O -0.8493(2) -0.1383(3) 0.0414(2)
O6_2 O -0.1507(2) 0.1383(3) -0.0414(2)
O7A O -0.3474(2) -0.0985(2) 0.0599(2)
O7A_2 O 0.6526(2) -0.0985(2) 0.0599(2)
O7_2 O -0.6526(2) 0.0985(2) -0.0599(2)
O8A O -0.7780(3) -0.0624(3) 0.2258(2)
C1A C -0.1666(3) -0.2250(3) -0.1262(3)
C2A C -0.3100(3) -0.3587(3) 0.1630(3)
C3A C -0.1117(3) -0.1772(3) -0.1964(3)
C4A C -0.2101(3) -0.2355(3) 0.0385(2)
C5A C -0.2114(4) -0.3978(3) 0.1240(3)
C6A C -0.1634(3) -0.3342(3) 0.0609(3)
C7A C -0.2284(3) -0.3154(3) -0.1281(3)
C8A C -0.4384(3) -0.1323(4) 0.2586(3)
C9A C -0.3575(3) -0.2618(3) 0.1420(2)
C10A C 0.0873(4) -0.2243(4) -0.3569(3)
C11A C -0.4321(3) -0.0250(3) 0.2316(3)
C12A C -0.1200(3) -0.2311(4) -0.2667(3)
C13A C -0.3949(3) 0.0431(3) 0.2863(3)
C14A C 0.3123(4) -0.2965(4) -0.3712(3)
C15A C -0.1842(4) -0.3217(4) -0.2660(3)
C16A C -0.4055(4) -0.1668(4) 0.3339(3)
C17A C 0.1206(4) -0.2978(4) -0.4110(3)
C18A C 0.2326(4) -0.3371(4) -0.4191(3)
C19A C 0.1695(4) -0.1869(3) -0.3087(3)
C20A C -0.1610(4) -0.5039(4) 0.1521(3)
C21A C -0.2403(3) -0.3657(3) -0.1979(3)
C22A C -0.3115(4) -0.4654(4) -0.2016(3)
C23A C -0.3674(4) -0.0990(4) 0.3872(3)
C24A C -0.3654(4) 0.0076(4) 0.3621(3)
C25A C -0.2339(4) -0.5536(4) -0.2323(3)
C26A C -0.3652(5) -0.5041(4) -0.1203(3)
C27A C 0.4698(4) -0.2477(4) -0.0416(3)
C28A C -0.1280(5) -0.5000(5) 0.2381(3)
C29A C 0.2685(4) -0.4163(4) -0.4801(3)
C30A C -0.4087(4) -0.4435(4) -0.2584(3)
C31A C -0.2507(4) -0.5882(4) 0.1462(4)
C32A C -0.0676(5) -0.1402(5) 0.2051(4)
C33A C -0.0551(5) -0.5346(4) 0.1016(3)
C34A C 0.3574(6) -0.4917(6) -0.4466(4)
C35A C -0.2974(9) -0.0514(6) 0.5192(4)
C36A C -0.3237(6) -0.1373(4) 0.4682(3)
C37A C 0.3173(8) -0.3564(6) -0.5538(4)
C38A C 0.1673(5) -0.2433(5) 0.0683(5)
C39A C 0.1663(6) -0.4797(6) -0.5014(5)
C40A C -0.2168(8) -0.2043(7) 0.4527(5)
C41A C -0.4135(8) -0.2066(7) 0.5150(4)
C42A C -0.7539(7) -0.0932(9) 0.3030(5)
C43A C -0.2834(4) 0.2237(3) 0.3157(3)
C44A C -0.3069(3) -0.1965(3) 0.0803(3)
H1A H -0.2646 -0.3455 -0.0797
H2A H 0.3907 -0.3195 -0.3765
H3A H -0.1895 -0.3546 -0.3145
H4A H 0.0640 -0.3229 -0.4439
H5A H -0.3460 -0.4009 0.2061
H6A H -0.0973 -0.3585 0.0315
H7A H -0.4100 -0.2394 0.3495
H8A H -0.3428 0.0566 0.3980
H9A H 0.0580 -0.0983 -0.2534
H10A H -0.2182 -0.6552 0.1595
H11A H -0.3146 -0.5760 0.1822
H12A H -0.0741 -0.4455 0.2419
H13A H -0.1946 -0.4875 0.2712
H14A H -0.0725 -0.5310 0.0473
H15A H 0.0061 -0.4881 0.1091
H16A H 0.5477 -0.2523 -0.0361
H17A H 0.4455 -0.3071 -0.0806
H18A H 0.4473 -0.2613 0.0166
H19A H 0.0793 -0.1034 0.0568
H19A_2 H -0.9207 -0.1034 0.0568
H19_2 H -0.0793 0.1034 -0.0568
H20A H 0.3387 -0.5080 -0.3918
H21A H 0.4309 -0.4592 -0.4527
H22A H 0.1306 -0.5116 -0.4538
H23A H -0.2011 -0.5315 -0.2832
H24A H -0.3783 -0.4156 -0.3081
H25A H -0.4482 -0.5071 -0.2648
H26A H -0.4620 -0.3946 -0.2363
H27A H -0.4027 -0.5687 -0.1250
H28A H -0.3066 -0.5135 -0.0833
H29A H 0.2362 -0.2693 0.0430
H30A H 0.3586 -0.5534 -0.4745
H31A H 0.3902 -0.3297 -0.5437
H32A H 0.3253 -0.4024 -0.5960
H33A H 0.2664 -0.3006 -0.5685
H34A H 0.1134 -0.4352 -0.5281
H35A H 0.1928 -0.5331 -0.5348
H36A H 0.1039 -0.2836 0.0545
H37A H 0.1738 -0.2486 0.1240
H38A H -0.0937 -0.5654 0.2558
H39A H -0.2763 -0.5856 0.0934
H40A H -0.0319 -0.6044 0.1180
H41A H -0.2784 -0.6145 -0.2358
H42A H -0.1743 -0.5684 -0.1963
H43A H -0.4197 -0.4535 -0.1030
H44A H -0.8343 0.0086 0.2210
H45A H -0.8026 -0.0610 0.3409
H46A H -0.7685 -0.1703 0.3122
H47A H -0.6760 -0.0840 0.3133
H48A H -0.2687 -0.0777 0.5684
H49A H -0.2397 -0.0057 0.4922
H50A H -0.3647 -0.0097 0.5292
H51A H -0.1829 -0.2314 0.5004
H52A H -0.2326 -0.2627 0.4218
H53A H -0.1571 -0.1634 0.4218
H54A H -0.4851 -0.1674 0.5260
H55A H -0.4364 -0.2651 0.4856
H56A H -0.3889 -0.2352 0.5653
H57A H -0.0766 -0.1014 0.2516
H58A H -0.1388 -0.1762 0.1995
H59A H -0.0089 -0.1928 0.2143
loop_
_geom_bond_atom_site_label_1
_geom_bond_atom_site_label_2
_geom_bond_site_symmetry_1
_geom_bond_site_symmetry_2
K1 S2 1_555 1_555
K2 S3 1_555 1_555
S1 C10 1_555 1_555
S2 C8 1_555 1_555
S3 C13 1_555 1_555
S4 C1 1_555 1_555
O1 C19 1_555 1_555
O2 K2 1_555 1_555
O3 K1 1_555 1_555
O4 C3 1_555 1_555
O5 K1 1_555 1_555
O6 K1 1_555 1_555
O7 K2 1_555 1_555
O8 K1 1_555 1_555
C1 C3 1_555 1_555
C2 C5 1_555 1_555
C3 C12 1_555 1_555
C4 S4 1_555 1_555
C5 C6 1_555 1_555
C6 C4 1_555 1_555
C7 C1 1_555 1_555
C8 C11 1_555 1_555
C9 S2 1_555 1_555
C10 C17 1_555 1_555
C11 O5 1_555 1_555
C12 S1 1_555 1_555
C13 C11 1_555 1_555
C14 C18 1_555 1_555
C15 C12 1_555 1_555
C16 C8 1_555 1_555
C17 C18 1_555 1_555
C18 C29 1_555 1_555
C19 C10 1_555 1_555
C20 C5 1_555 1_555
C21 C7 1_555 1_555
C22 C21 1_555 1_555
C23 C16 1_555 1_555
C24 C13 1_555 1_555
C25 C22 1_555 1_555
C26 C22 1_555 1_555
C27 O3 1_555 1_555
C28 C20 1_555 1_555
C29 C34 1_555 1_555
C30 C22 1_555 1_555
C31 C20 1_555 1_555
C32 O2 1_555 1_555
C33 C20 1_555 1_555
C34 H20 1_555 1_555
C35 C36 1_555 1_555
C36 C23 1_555 1_555
C37 C29 1_555 1_555
C38 O6 1_555 1_555
C39 C29 1_555 1_555
C40 C36 1_555 1_555
C41 C36 1_555 1_555
C42 O8 1_555 1_555
C43 S3 1_555 1_555
C44 O7 1_555 1_555
H1 C7 1_555 1_555
H2 C14 1_555 1_555
H3 C15 1_555 1_555
H4 C17 1_555 1_555
H5 C2 1_555 1_555
H6 C6 1_555 1_555
H7 C16 1_555 1_555
H8 C24 1_555 1_555
H9 O1 1_555 1_555
H10 C31 1_555 1_555
H11 C31 1_555 1_555
H12 C28 1_555 1_555
H13 C28 1_555 1_555
H14 C33 1_555 1_555
H15 C33 1_555 1_555
H16 C27 1_555 1_555
H17 C27 1_555 1_555
H18 C27 1_555 1_555
H19 O6 1_555 1_555
H21 C34 1_555 1_555
H22 C39 1_555 1_555
H23 C25 1_555 1_555
H24 C30 1_555 1_555
H25 C30 1_555 1_555
H26 C30 1_555 1_555
H27 C26 1_555 1_555
H28 C26 1_555 1_555
H29 C38 1_555 1_555
H30 C34 1_555 1_555
H31 C37 1_555 1_555
H32 C37 1_555 1_555
H33 C37 1_555 1_555
H34 C39 1_555 1_555
H35 C39 1_555 1_555
H36 C38 1_555 1_555
H37 C38 1_555 1_555
H38 C28 1_555 1_555
H39 C31 1_555 1_555
H40 C33 1_555 1_555
H41 C25 1_555 1_555
H42 C25 1_555 1_555
H43 C26 1_555 1_555
H44 O8 1_555 1_555
H45 C42 1_555 1_555
H46 C42 1_555 1_555
H47 C42 1_555 1_555
H48 C35 1_555 1_555
H49 C35 1_555 1_555
H50 C35 1_555 1_555
H51 C40 1_555 1_555
H52 C40 1_555 1_555
H53 C40 1_555 1_555
H54 C41 1_555 1_555
H55 C41 1_555 1_555
H56 C41 1_555 1_555
H57 C32 1_555 1_555
H58 C32 1_555 1_555
H59 C32 1_555 1_555
K1A S2A 1_555 1_555
K1A_2 S4 1_555 1_555
K1_2 S4A 1_555 1_555
K2A O1 1_555 1_555
K2A_2 O3 1_555 1_555
K2_2 O3A_2 1_555 1_555
S1A C10A 1_555 1_555
S2A C8A 1_555 1_555
S3A K2A 1_555 1_555
S4A C1A 1_555 1_555
S4A_2 K1 1_555 1_555
S4_2 K1A 1_555 1_555
O1A K2 1_555 1_555
O2A K2A 1_555 1_555
O3A K2 1_555 1_555
O3A_2 K1A 1_555 1_555
O3_2 K1_2 1_555 1_555
O4A C3A 1_555 1_555
O5A K1A 1_555 1_555
O6A K2 1_555 1_555
O6A_2 K1A 1_555 1_555
O6_2 K1_2 1_555 1_555
O7A K1_2 1_555 1_555
O7A_2 K1 1_555 1_555
O7_2 K1A 1_555 1_555
O8A K1A 1_555 1_555
C1A C3A 1_555 1_555
C2A C5A 1_555 1_555
C3A C12A 1_555 1_555
C4A S4A 1_555 1_555
C5A C6A 1_555 1_555
C6A C4A 1_555 1_555
C7A C1A 1_555 1_555
C8A C11A 1_555 1_555
C9A S2A 1_555 1_555
C10A C17A 1_555 1_555
C11A O5A 1_555 1_555
C12A S1A 1_555 1_555
C13A S3A 1_555 1_555
C14A C43 1_555 1_555
C15A C12A 1_555 1_555
C16A C8A 1_555 1_555
C17A C18A 1_555 1_555
C18A C14A 1_555 1_555
C19A C43 1_555 1_555
C20A C5A 1_555 1_555
C21A C7A 1_555 1_555
C22A C21A 1_555 1_555
C23A C16A 1_555 1_555
C24A C13A 1_555 1_555
C25A C22A 1_555 1_555
C26A C22A 1_555 1_555
C27A O3A 1_555 1_555
C28A C20A 1_555 1_555
C29A C18A 1_555 1_555
C30A C22A 1_555 1_555
C31A C20A 1_555 1_555
C32A O2A 1_555 1_555
C33A C20A 1_555 1_555
C34A C29A 1_555 1_555
C35A C36A 1_555 1_555
C36A C23A 1_555 1_555
C37A C29A 1_555 1_555
C38A O6A 1_555 1_555
C39A C29A 1_555 1_555
C40A C36A 1_555 1_555
C41A C36A 1_555 1_555
C42A O8A 1_555 1_555
C43A C14 1_555 1_555
C44A O7A 1_555 1_555
H1A C7A 1_555 1_555
H2A C14A 1_555 1_555
H3A C15A 1_555 1_555
H4A C17A 1_555 1_555
H5A C2A 1_555 1_555
H6A C6A 1_555 1_555
H7A C16A 1_555 1_555
H8A C24A 1_555 1_555
H9A O1A 1_555 1_555
H10A C31A 1_555 1_555
H11A C31A 1_555 1_555
H12A C28A 1_555 1_555
H13A C28A 1_555 1_555
H14A C33A 1_555 1_555
H15A C33A 1_555 1_555
H16A C27A 1_555 1_555
H17A C27A 1_555 1_555
H18A C27A 1_555 1_555
H19A O6A 1_555 1_555
H19A_2 O6A_2 1_555 1_555
H19_2 O6_2 1_555 1_555
H20A C34A 1_555 1_555
H21A C34A 1_555 1_555
H22A C39A 1_555 1_555
H23A C25A 1_555 1_555
H24A C30A 1_555 1_555
H25A C30A 1_555 1_555
H26A C30A 1_555 1_555
H27A C26A 1_555 1_555
H28A C26A 1_555 1_555
H29A C38A 1_555 1_555
H30A C34A 1_555 1_555
H31A C37A 1_555 1_555
H32A C37A 1_555 1_555
H33A C37A 1_555 1_555
H34A C39A 1_555 1_555
H35A C39A 1_555 1_555
H36A C38A 1_555 1_555
H37A C38A 1_555 1_555
H38A C28A 1_555 1_555
H39A C31A 1_555 1_555
H40A C33A 1_555 1_555
H41A C25A 1_555 1_555
H42A C25A 1_555 1_555
H43A C26A 1_555 1_555
H44A O8A 1_555 1_555
H45A C42A 1_555 1_555
H46A C42A 1_555 1_555
H47A C42A 1_555 1_555
H48A C35A 1_555 1_555
H49A C35A 1_555 1_555
H50A C35A 1_555 1_555
H51A C40A 1_555 1_555
H52A C40A 1_555 1_555
H53A C40A 1_555 1_555
H54A C41A 1_555 1_555
H55A C41A 1_555 1_555
H56A C41A 1_555 1_555
H57A C32A 1_555 1_555
H58A C32A 1_555 1_555
H59A C32A 1_555 1_555
K2 O5 1_555 1_555
O6 K2A_2 1_555 1_555
O7 K1A_2 1_555 1_555
C2 C9 1_555 1_555
C4 C44 1_555 1_555
C9 C44 1_555 1_555
C15 C21 1_555 1_555
C19 C43A 1_555 1_555
C23 C24 1_555 1_555
K1A_2 O3A 1_555 1_555
K1A_2 O6A 1_555 1_555
K2A O3_2 1_555 1_555
K2A O5A 1_555 1_555
K2A O6_2 1_555 1_555
K2A O7A 1_555 1_555
K2A_2 O7A_2 1_555 1_555
K2_2 O6A_2 1_555 1_555
K2_2 O7_2 1_555 1_555
S3A C43A 1_555 1_555
O1A C19A 1_555 1_555
C2A C9A 1_555 1_555
C4A C44A 1_555 1_555
C9A C44A 1_555 1_555
C10A C19A 1_555 1_555
C11A C13A 1_555 1_555
C15A C21A 1_555 1_555
C23A C24A 1_555 1_555

#END
