
#######################################################################
#
#                 Cambridge Crystallographic Data Centre
#                                CCDC 
#
#######################################################################
#
# If this CIF has been generated from an entry in the Cambridge 
# Structural Database, then it will include bibliographic, chemical, 
# crystal, experimental, refinement or atomic coordinate data resulting 
# from the CCDC's data processing and validation procedures.
#
#######################################################################

data_FINJAO
_symmetry_cell_setting           tetragonal
_symmetry_space_group_name_H-M   'P 42/n'
_symmetry_Int_Tables_number      86
_space_group_name_Hall           '-P 4bc'
loop_
_symmetry_equiv_pos_site_id
_symmetry_equiv_pos_as_xyz
1 x,y,z
2 -y,1/2+x,1/2+z
3 1/2+y,-x,1/2+z
4 1/2-x,1/2-y,z
5 -x,-y,-z
6 y,1/2-x,1/2-z
7 1/2-y,x,1/2-z
8 1/2+x,1/2+y,-z
_cell_length_a                   16.402(2)
_cell_length_b                   16.402(2)
_cell_length_c                   22.750(5)
_cell_angle_alpha                90
_cell_angle_beta                 90
_cell_angle_gamma                90
_cell_volume                     6120.33
loop_
_atom_site_label
_atom_site_type_symbol
_atom_site_fract_x
_atom_site_fract_y
_atom_site_fract_z
Co1 Co 0.7500 0.7500 0.2500
Co2 Co 0.7500 0.7500 -0.2500
O1 O 0.7146(3) 0.6293(3) 0.2519(2)
H1 H 0.7400 0.5818 0.2600
H2 H 0.6570 0.6129 0.2625
O2 O 0.6376(3) 0.8091(4) -0.2498(2)
H3 H 0.5869 0.8042 -0.2240
H4 H 0.6394 0.8749 -0.2540
N1 N 0.7500 0.7500 0.1549(4)
C1 C 0.7438(6) 0.8171(5) 0.1243(3)
H10 H 0.7395 0.8671 0.1460
C2 C 0.7435(6) 0.8199(5) 0.0633(3)
H11 H 0.7379 0.8711 0.0433
C3 C 0.7500 0.7500 0.0320(4)
C4 C 0.7500 0.7500 -0.0332(4)
C5 C 0.7428(6) 0.8204(5) -0.0653(4)
H12 H 0.7380 0.8719 -0.0455
C6 C 0.7429(6) 0.8174(5) -0.1253(4)
H13 H 0.7377 0.8676 -0.1467
N3 N 0.7500 0.7500 -0.1561(4)
Co2_2 Co 0.7500 0.7500 0.7500
O1E O 0.6293(3) 0.7854(3) 0.2481(2)
O1F O 0.8707(3) 0.7146(3) 0.2481(2)
O1C O 0.7854(3) 0.8707(3) 0.2519(2)
H1E H 0.5818 0.7600 0.2400
H1F H 0.9182 0.7400 0.2400
H1C H 0.7600 0.9182 0.2600
H2E H 0.6129 0.8430 0.2375
H2F H 0.8871 0.6570 0.2375
H2C H 0.8430 0.8871 0.2625
O2E O 0.8091(4) 0.8624(3) -0.2502(2)
O2F O 0.6909(4) 0.6376(3) -0.2502(2)
O2C O 0.8624(3) 0.6909(4) -0.2498(2)
H3E H 0.8042 0.9131 -0.2760
H3F H 0.6958 0.5869 -0.2760
H3C H 0.9131 0.6958 -0.2240
H4E H 0.8749 0.8606 -0.2460
H4F H 0.6251 0.6394 -0.2460
H4C H 0.8606 0.6251 -0.2540
N1E N 0.7500 0.7500 0.3451(4)
C1C C 0.7562(6) 0.6829(5) 0.1243(3)
C1E C 0.8171(5) 0.7562(6) 0.3757(3)
C1F C 0.6829(5) 0.7438(6) 0.3757(3)
H10C H 0.7605 0.6329 0.1460
H10E H 0.8671 0.7605 0.3540
H10F H 0.6329 0.7395 0.3540
C2C C 0.7565(6) 0.6801(5) 0.0633(3)
C2E C 0.8199(5) 0.7565(6) 0.4367(3)
C2F C 0.6801(5) 0.7435(6) 0.4367(3)
H11C H 0.7621 0.6289 0.0433
H11E H 0.8711 0.7621 0.4567
H11F H 0.6289 0.7379 0.4567
C3E C 0.7500 0.7500 0.4680(4)
C4E C 0.7500 0.7500 0.5332(4)
C5C C 0.7572(6) 0.6796(5) -0.0653(4)
C5E C 0.8204(5) 0.7572(6) 0.5653(4)
C5F C 0.6796(5) 0.7428(6) 0.5653(4)
H12C H 0.7620 0.6281 -0.0455
H12E H 0.8719 0.7620 0.5455
H12F H 0.6281 0.7380 0.5455
C6C C 0.7571(6) 0.6826(5) -0.1253(4)
C6E C 0.8174(5) 0.7571(6) 0.6253(4)
C6F C 0.6826(5) 0.7429(6) 0.6253(4)
H13C H 0.7623 0.6324 -0.1467
H13E H 0.8676 0.7623 0.6467
H13F H 0.6324 0.7377 0.6467
N3E N 0.7500 0.7500 0.6561(4)
N3E_2 N 0.7500 0.7500 -0.3439(4)
Co3 Co 0.2500 0.7500 0.21261(6)
O3 O 0.2840(3) 0.6263(3) 0.2134(2)
H5 H 0.2800 0.5859 0.1762
H6 H 0.3340 0.6045 0.2392
O4 O 0.3696(3) 0.7845(3) 0.2127(2)
H7 H 0.4000 0.7694 0.1742
H8 H 0.3873 0.7944 0.2468
N4 N 0.2500 0.7500 0.1168(3)
N5 N 0.2500 0.7500 -0.1949(3)
H20 H 0.3714 0.7463 0.0059
C14 C 0.3186(5) 0.7456(6) 0.0863(3)
H21 H 0.3691 0.7414 0.1075
C15 C 0.3203(5) 0.7468(6) 0.0260(3)
C16 C 0.2500 0.7500 -0.0060(4)
C17 C 0.2500 0.7500 -0.0707(4)
C18 C 0.1827(5) 0.7726(5) -0.1022(3)
H22 H 0.1343 0.7906 -0.0823
C19 C 0.1850(5) 0.7718(5) -0.1631(3)
H23 H 0.1365 0.7866 -0.1842
Co3A Co 0.2500 0.7500 0.71261(6)
Co3A_2 Co 0.2500 0.7500 -0.28739(6)
O3C O 0.2160(3) 0.8737(3) 0.2134(2)
O3A O 0.3737(3) 0.7840(3) 0.7134(2)
O3B O 0.1263(3) 0.7160(3) 0.7134(2)
H5C H 0.2200 0.9141 0.1762
H5A H 0.4141 0.7800 0.6762
H5B H 0.0859 0.7200 0.6762
H6C H 0.1660 0.8955 0.2392
H6A H 0.3955 0.8340 0.7392
H6B H 0.1045 0.6660 0.7392
O4C O 0.1304(3) 0.7155(3) 0.2127(2)
O4A O 0.2155(3) 0.8696(3) 0.7127(2)
O4B O 0.2845(3) 0.6304(3) 0.7127(2)
H7C H 0.1000 0.7306 0.1742
H7A H 0.2306 0.9000 0.6742
H7B H 0.2694 0.6000 0.6742
H8C H 0.1127 0.7056 0.2468
H8A H 0.2056 0.8873 0.7468
H8B H 0.2944 0.6127 0.7468
N4A N 0.2500 0.7500 0.6168(3)
N5A N 0.2500 0.7500 0.3051(3)
N5_2 N 0.2500 0.7500 0.8051(3)
H20C H 0.1286 0.7537 0.0059
H20A H 0.2537 0.8714 0.5059
H20B H 0.2463 0.6286 0.5059
C14C C 0.1814(5) 0.7544(6) 0.0863(3)
C14A C 0.2544(6) 0.8186(5) 0.5863(3)
C14B C 0.2456(6) 0.6814(5) 0.5863(3)
H21C H 0.1309 0.7586 0.1075
H21A H 0.2586 0.8691 0.6075
H21B H 0.2414 0.6309 0.6075
C15C C 0.1797(5) 0.7532(6) 0.0260(3)
C15A C 0.2532(6) 0.8203(5) 0.5260(3)
C15B C 0.2468(6) 0.6797(5) 0.5260(3)
C16A C 0.2500 0.7500 0.4940(4)
C17A C 0.2500 0.7500 0.4293(4)
C18C C 0.3173(5) 0.7274(5) -0.1022(3)
C18A C 0.2274(5) 0.6827(5) 0.3978(3)
C18B C 0.2726(5) 0.8173(5) 0.3978(3)
H22C H 0.3657 0.7094 -0.0823
H22A H 0.2094 0.6343 0.4177
H22B H 0.2906 0.8657 0.4177
C19C C 0.3150(5) 0.7282(5) -0.1631(3)
C19A C 0.2282(5) 0.6850(5) 0.3369(3)
C19B C 0.2718(5) 0.8150(5) 0.3369(3)
H23C H 0.3635 0.7134 -0.1842
H23A H 0.2134 0.6365 0.3158
H23B H 0.2866 0.8635 0.3158
O5 O 0.7342(4) 0.4726(4) -0.1176(3)
O6 O 0.8583(4) 0.4565(4) -0.0825(3)
H9 H 0.8767 0.4742 -0.1227
N2 N 0.6712(5) 0.4772(5) 0.1581(3)
H14 H 0.6179 0.4846 0.1659
H15 H 0.7071 0.4724 0.1878
C7 C 0.8059(5) 0.4600(5) 0.0323(4)
H16 H 0.8629 0.4517 0.0245
C8 C 0.7793(6) 0.4632(5) 0.0886(4)
H17 H 0.8170 0.4579 0.1207
C9 C 0.7535(5) 0.4677(5) -0.0140(3)
C10 C 0.7789(6) 0.4658(5) -0.0753(4)
C11 C 0.6709(6) 0.4777(5) -0.0011(4)
H18 H 0.6328 0.4825 -0.0330
C12 C 0.6428(6) 0.4809(5) 0.0541(4)
H19 H 0.5859 0.4890 0.0618
C13 C 0.6985(6) 0.4740(5) 0.1016(4)
N6 N 0.4572(5) 0.2528(7) -0.1161(4)
H24 H 0.4572 0.2124 -0.1428
H25 H 0.4537 0.3051 -0.1280
O7 O 0.5131(4) 0.0946(4) 0.1302(3)
H26 H 0.5093 0.0759 0.1713
O8 O 0.4797(4) 0.2164(4) 0.1613(3)
C20 C 0.4895(5) 0.1705(5) 0.1210(4)
C21 C 0.4770(5) 0.1899(6) 0.0589(4)
C22 C 0.4771(5) 0.1307(6) 0.0157(4)
H27 H 0.4853 0.0748 0.0265
C23 C 0.4685(6) 0.1523(7) -0.0422(4)
H28 H 0.4650 0.1109 -0.0720
C24 C 0.4627(6) 0.2337(9) -0.0590(4)
C25 C 0.4599(6) 0.2896(7) -0.0171(5)
H29 H 0.4516 0.3453 -0.0287
C26 C 0.4673(5) 0.2693(6) 0.0435(4)
H30 H 0.4654 0.3108 0.0732
S1 S 0.89507(12) 0.50216(12) 0.25494(10)
O9 O 0.9325(3) 0.4256(3) 0.2377(2)
O10 O 0.9244(4) 0.5660(3) 0.2158(3)
O11 O 0.9153(4) 0.5217(4) 0.3145(3)
O12 O 0.8064(3) 0.4962(3) 0.2492(3)
O13 O 0.5576(4) 0.4127(4) 0.3074(3)
H31 H 0.5575 0.4630 0.2894
H32 H 0.6009 0.3902 0.2912
O14 O 0.4650(4) 0.3652(4) 0.2106(3)
H33 H 0.5079 0.3954 0.2107
H34 H 0.4579 0.3510 0.2476
O15 O 1.0236(4) 0.4339(4) 0.3730(3)
H35 H 0.9974 0.3802 0.3734
H36 H 1.0809 0.4280 0.3461
loop_
_geom_bond_atom_site_label_1
_geom_bond_atom_site_label_2
_geom_bond_site_symmetry_1
_geom_bond_site_symmetry_2
Co1 O1 1_555 1_555
Co2 O2 1_555 1_555
Co3 O3 1_555 1_555
O1 H1 1_555 1_555
H2 O1 1_555 1_555
O2 H3 1_555 1_555
H4 O2 1_555 1_555
O3 H5 1_555 1_555
H6 O3 1_555 1_555
O4 Co3 1_555 1_555
H7 O4 1_555 1_555
H8 O4 1_555 1_555
N1 Co1 1_555 1_555
O5 C10 1_555 1_555
O6 H9 1_555 1_555
C1 N1 1_555 1_555
H10 C1 1_555 1_555
C2 C1 1_555 1_555
H11 C2 1_555 1_555
C3 C2 1_555 1_555
C4 C3 1_555 1_555
C5 C4 1_555 1_555
H12 C5 1_555 1_555
C6 C5 1_555 1_555
H13 C6 1_555 1_555
N2 H14 1_555 1_555
H15 N2 1_555 1_555
C7 H16 1_555 1_555
C8 C7 1_555 1_555
H17 C8 1_555 1_555
C9 C7 1_555 1_555
N3 Co2 1_555 1_555
C10 O6 1_555 1_555
C11 C9 1_555 1_555
H18 C11 1_555 1_555
C12 C11 1_555 1_555
H19 C12 1_555 1_555
C13 N2 1_555 1_555
N4 Co3 1_555 1_555
N5 C19 1_555 1_555
H20 C15 1_555 1_555
C14 N4 1_555 1_555
H21 C14 1_555 1_555
C15 C14 1_555 1_555
C16 C15 1_555 1_555
C17 C16 1_555 1_555
C18 C17 1_555 1_555
H22 C18 1_555 1_555
C19 C18 1_555 1_555
H23 C19 1_555 1_555
N6 H24 1_555 1_555
H25 N6 1_555 1_555
O7 H26 1_555 1_555
O8 C20 1_555 1_555
C20 O7 1_555 1_555
C21 C20 1_555 1_555
C22 C21 1_555 1_555
H27 C22 1_555 1_555
C23 C22 1_555 1_555
H28 C23 1_555 1_555
C24 N6 1_555 1_555
C25 C24 1_555 1_555
H29 C25 1_555 1_555
C26 C21 1_555 1_555
H30 C26 1_555 1_555
S1 O9 1_555 1_555
O10 S1 1_555 1_555
O11 S1 1_555 1_555
O12 S1 1_555 1_555
O13 H31 1_555 1_555
H32 O13 1_555 1_555
O14 H33 1_555 1_555
H34 O14 1_555 1_555
O15 H35 1_555 1_555
H36 O15 1_555 1_555
Co2_2 N3E 1_555 1_555
Co3A O3A 1_555 1_555
Co3A_2 N5 1_555 1_555
O1E Co1 1_555 1_555
O1F Co1 1_555 1_555
O1C Co1 1_555 1_555
H1E O1E 1_555 1_555
H1F O1F 1_555 1_555
H1C O1C 1_555 1_555
H2E O1E 1_555 1_555
H2F O1F 1_555 1_555
H2C O1C 1_555 1_555
O2E Co2 1_555 1_555
O2F Co2 1_555 1_555
O2C Co2 1_555 1_555
H3E O2E 1_555 1_555
H3F O2F 1_555 1_555
H3C O2C 1_555 1_555
H4E O2E 1_555 1_555
H4F O2F 1_555 1_555
H4C O2C 1_555 1_555
O3C Co3 1_555 1_555
O3A H5A 1_555 1_555
O3B Co3A 1_555 1_555
H5C O3C 1_555 1_555
H5B O3B 1_555 1_555
H6C O3C 1_555 1_555
H6A O3A 1_555 1_555
H6B O3B 1_555 1_555
O4C Co3 1_555 1_555
O4A Co3A 1_555 1_555
O4B Co3A 1_555 1_555
H7C O4C 1_555 1_555
H7A O4A 1_555 1_555
H7B O4B 1_555 1_555
H8C O4C 1_555 1_555
H8A O4A 1_555 1_555
H8B O4B 1_555 1_555
N1E Co1 1_555 1_555
C1C N1 1_555 1_555
C1E N1E 1_555 1_555
C1F N1E 1_555 1_555
H10C C1C 1_555 1_555
H10E C1E 1_555 1_555
H10F C1F 1_555 1_555
C2C C3 1_555 1_555
C2E C1E 1_555 1_555
C2F C1F 1_555 1_555
H11C C2C 1_555 1_555
H11E C2E 1_555 1_555
H11F C2F 1_555 1_555
C3E C2E 1_555 1_555
C4E C3E 1_555 1_555
C5C C4 1_555 1_555
C5E C4E 1_555 1_555
C5F C4E 1_555 1_555
H12C C5C 1_555 1_555
H12E C5E 1_555 1_555
H12F C5F 1_555 1_555
C6C N3 1_555 1_555
C6E C5E 1_555 1_555
C6F C5F 1_555 1_555
H13C C6C 1_555 1_555
H13E C6E 1_555 1_555
H13F C6F 1_555 1_555
N3E C6E 1_555 1_555
N3E_2 Co2 1_555 1_555
N4A Co3A 1_555 1_555
N5A Co3 1_555 1_555
N5_2 Co3A 1_555 1_555
H20C C15C 1_555 1_555
H20A C15A 1_555 1_555
H20B C15B 1_555 1_555
C14C N4 1_555 1_555
C14A N4A 1_555 1_555
C14B N4A 1_555 1_555
H21C C14C 1_555 1_555
H21A C14A 1_555 1_555
H21B C14B 1_555 1_555
C15C C16 1_555 1_555
C15A C14A 1_555 1_555
C15B C14B 1_555 1_555
C16A C15A 1_555 1_555
C17A C16A 1_555 1_555
C18C C17 1_555 1_555
C18A C17A 1_555 1_555
C18B C17A 1_555 1_555
H22C C18C 1_555 1_555
H22A C18A 1_555 1_555
H22B C18B 1_555 1_555
C19C N5 1_555 1_555
C19A N5A 1_555 1_555
C19B N5A 1_555 1_555
H23C C19C 1_555 1_555
H23A C19A 1_555 1_555
H23B C19B 1_555 1_555
C6 N3 1_555 1_555
C8 C13 1_555 1_555
C9 C10 1_555 1_555
C12 C13 1_555 1_555
C23 C24 1_555 1_555
C25 C26 1_555 1_555
C1C C2C 1_555 1_555
C2F C3E 1_555 1_555
C5C C6C 1_555 1_555
C6F N3E 1_555 1_555
C14C C15C 1_555 1_555
C15B C16A 1_555 1_555
C18C C19C 1_555 1_555
C18A C19A 1_555 1_555
C18B C19B 1_555 1_555

#END
