
#######################################################################
#
#                 Cambridge Crystallographic Data Centre
#                                CCDC 
#
#######################################################################
#
# If this CIF has been generated from an entry in the Cambridge 
# Structural Database, then it will include bibliographic, chemical, 
# crystal, experimental, refinement or atomic coordinate data resulting 
# from the CCDC's data processing and validation procedures.
#
#######################################################################

data_FINXAD
_symmetry_cell_setting           orthorhombic
_symmetry_space_group_name_H-M   'P 21 21 21'
_symmetry_Int_Tables_number      19
_space_group_name_Hall           'P 2ac 2ab'
loop_
_symmetry_equiv_pos_site_id
_symmetry_equiv_pos_as_xyz
1 x,y,z
2 1/2-x,-y,1/2+z
3 1/2+x,1/2-y,-z
4 -x,1/2+y,1/2-z
_cell_length_a                   6.991(5)
_cell_length_b                   10.778(5)
_cell_length_c                   15.575(5)
_cell_angle_alpha                90
_cell_angle_beta                 90
_cell_angle_gamma                90
_cell_volume                     1173.56
loop_
_atom_site_label
_atom_site_type_symbol
_atom_site_fract_x
_atom_site_fract_y
_atom_site_fract_z
Cu1 Cu 0.87643(13) 0.12377(8) 0.71943(6)
N1 N 0.7400(9) -0.0318(6) 0.7009(4)
O1 O 0.6983(9) 0.2418(6) 0.6129(5)
O2 O 0.5189(9) -0.1577(5) 0.7613(4)
O3 O 0.9794(9) -0.2265(5) 0.7429(4)
N2 N 1.0759(9) 0.0828(6) 0.6378(5)
N3 N 1.3460(10) 0.0672(8) 0.5724(5)
C1 C 0.8743(14) -0.0707(7) 0.5596(5)
H1 H 0.8941 -0.1364 0.5180
H2 H 0.7879 -0.0108 0.5339
C2 C 0.6094(11) -0.0584(7) 0.7569(5)
O4 O 0.9044(11) -0.3291(6) 0.6244(5)
N4 N 0.6895(9) 0.1478(6) 0.8145(4)
C3 C 1.2292(13) -0.0191(9) 0.5362(7)
H3 H 1.2608 -0.0743 0.4926
C4 C 0.5639(12) 0.0385(8) 0.8229(6)
H4 H 0.4317 0.0642 0.8165
H5 H 0.5788 0.0032 0.8798
C5 C 0.7795(10) -0.1249(8) 0.6370(5)
H6 H 0.6560 -0.1582 0.6182
C6 C 1.2514(12) 0.1270(9) 0.6335(6)
C7 C 1.0597(11) -0.0090(8) 0.5758(6)
C8 C 0.8989(12) -0.2358(7) 0.6710(6)
H7 H 0.6034 0.2666 0.6600
H8 H 0.6210 0.2445 0.5572
H9 H 0.7526 0.1600 0.8640
H10 H 0.6180 0.2155 0.8038
Cu1C Cu 1.12357(13) -0.37623(8) 0.78057(6)
O3C O 1.0206(9) 0.2735(5) 0.7571(4)
O5 O 1.0199(11) 0.4223(8) 0.6068(5)
H11 H 0.9428 0.4014 0.6437
H12 H 1.0285 0.4776 0.6248
loop_
_geom_bond_atom_site_label_1
_geom_bond_atom_site_label_2
_geom_bond_site_symmetry_1
_geom_bond_site_symmetry_2
Cu1 N1 1_555 1_555
N1 C2 1_555 1_555
O1 Cu1 1_555 1_555
O2 C2 1_555 1_555
O3 C8 1_555 1_555
N2 Cu1 1_555 1_555
N3 C3 1_555 1_555
C1 H1 1_555 1_555
H2 C1 1_555 1_555
C2 C4 1_555 1_555
O4 C8 1_555 1_555
N4 Cu1 1_555 1_555
C3 H3 1_555 1_555
C4 N4 1_555 1_555
H4 C4 1_555 1_555
H5 C4 1_555 1_555
C5 N1 1_555 1_555
H6 C5 1_555 1_555
C6 N2 1_555 1_555
C7 N2 1_555 1_555
C8 C5 1_555 1_555
H7 O1 1_555 1_555
H8 O1 1_555 1_555
H9 N4 1_555 1_555
H10 N4 1_555 1_555
O5 H11 1_555 1_555
H12 O5 1_555 1_555
Cu1C O3 1_555 1_555
O3C Cu1 1_555 1_555
N3 C6 1_555 1_555
C1 C5 1_555 1_555
C1 C7 1_555 1_555
C3 C7 1_555 1_555

#END
