
#######################################################################
#
#                 Cambridge Crystallographic Data Centre
#                                CCDC 
#
#######################################################################
#
# If this CIF has been generated from an entry in the Cambridge 
# Structural Database, then it will include bibliographic, chemical, 
# crystal, experimental, refinement or atomic coordinate data resulting 
# from the CCDC's data processing and validation procedures.
#
#######################################################################

data_FINYUY
_symmetry_cell_setting           monoclinic
_symmetry_space_group_name_H-M   'C 2/c'
_symmetry_Int_Tables_number      15
_space_group_name_Hall           '-C 2yn'
loop_
_symmetry_equiv_pos_site_id
_symmetry_equiv_pos_as_xyz
1 x,y,z
2 -x,y,1/2-z
3 1/2+x,1/2+y,z
4 1/2-x,1/2+y,1/2-z
5 -x,-y,-z
6 x,-y,1/2+z
7 1/2-x,1/2-y,-z
8 1/2+x,1/2-y,1/2+z
_cell_length_a                   32.663(6)
_cell_length_b                   4.7770(10)
_cell_length_c                   15.376(3)
_cell_angle_alpha                90
_cell_angle_beta                 116.01(3)
_cell_angle_gamma                90
_cell_volume                     2156.14
loop_
_atom_site_label
_atom_site_type_symbol
_atom_site_fract_x
_atom_site_fract_y
_atom_site_fract_z
Ca1 Ca 0.0000 1.0000 0.5000
O1 O 0.04797(12) 0.7363(8) 0.4505(3)
O2 O 0.00253(8) 0.3613(5) 0.39946(17)
O3 O -0.06457(8) 0.7860(5) 0.38229(17)
H1 H -0.0617 0.6464 0.3511
H2 H -0.0909 0.8471 0.3705
N1 N 0.11212(15) 0.6715(9) 0.3373(3)
N2 N 0.11192(15) 0.5013(8) 0.4055(3)
N3 N 0.15048(17) 0.5051(9) 0.4863(4)
N4 N 0.17722(15) 0.6890(11) 0.4721(3)
N5 N 0.14192(15) 1.0619(10) 0.2441(3)
C1 C 0.03831(19) 0.4966(11) 0.4159(4)
C2 C 0.07219(19) 0.3372(11) 0.3918(5)
H3 H 0.0820 0.1716 0.4323
H4 H 0.0571 0.2758 0.3250
C3 C 0.15348(17) 0.7851(11) 0.3808(4)
C4 C 0.17077(18) 0.9914(9) 0.3357(4)
C5 C 0.21374(19) 1.0987(13) 0.3820(4)
H5 H 0.2331 1.0415 0.4445
C6 C 0.2281(2) 1.2942(13) 0.3347(5)
H6 H 0.2572 1.3707 0.3650
C7 C 0.1990(2) 1.3720(15) 0.2433(6)
H7 H 0.2077 1.5039 0.2100
C8 C 0.1566(2) 1.2514(13) 0.2012(4)
H8 H 0.1369 1.3059 0.1386
O1D O -0.04797(12) 0.2637(8) 0.5495(3)
O2D O -0.00253(8) 0.6387(5) 0.60054(17)
N1D N -0.11212(15) 0.3285(9) 0.6627(3)
N2D N -0.11192(15) 0.4987(8) 0.5945(3)
N3D N -0.15048(17) 0.4949(9) 0.5137(4)
N4D N -0.17722(15) 0.3110(11) 0.5279(3)
N5D N -0.14192(15) -0.0619(10) 0.7559(3)
C1D C -0.03831(19) 0.5034(11) 0.5841(4)
C2D C -0.07219(19) 0.6628(11) 0.6082(5)
H3D H -0.0820 0.8284 0.5677
H4D H -0.0571 0.7242 0.6750
C3D C -0.15348(17) 0.2149(11) 0.6192(4)
C4D C -0.17077(18) 0.0086(9) 0.6643(4)
C5D C -0.21374(19) -0.0987(13) 0.6180(4)
H5D H -0.2331 -0.0415 0.5555
C6D C -0.2281(2) -0.2942(13) 0.6653(5)
H6D H -0.2572 -0.3707 0.6350
C7D C -0.1990(2) -0.3720(15) 0.7567(6)
H7D H -0.2077 -0.5039 0.7900
C8D C -0.1566(2) -0.2514(13) 0.7988(4)
H8D H -0.1369 -0.3059 0.8614
O3D O 0.06457(8) 1.2140(5) 0.61771(17)
H1D H 0.0617 1.3536 0.6489
H2D H 0.0909 1.1529 0.6295
Ca1_2 Ca 0.0000 0.0000 0.5000
O1D_2 O -0.04797(12) 1.2637(8) 0.5495(3)
O2_2 O 0.00253(8) 1.3613(5) 0.39946(17)
loop_
_geom_bond_atom_site_label_1
_geom_bond_atom_site_label_2
_geom_bond_site_symmetry_1
_geom_bond_site_symmetry_2
Ca1 O1 1_555 1_555
O1 C1 1_555 1_555
O2 C1 1_555 1_555
O3 Ca1 1_555 1_555
H1 O3 1_555 1_555
H2 O3 1_555 1_555
N1 N2 1_555 1_555
N2 N3 1_555 1_555
N3 N4 1_555 1_555
N4 C3 1_555 1_555
N5 C4 1_555 1_555
C1 C2 1_555 1_555
C2 N2 1_555 1_555
H3 C2 1_555 1_555
H4 C2 1_555 1_555
C3 N1 1_555 1_555
C4 C3 1_555 1_555
C5 C4 1_555 1_555
H5 C5 1_555 1_555
C6 C5 1_555 1_555
H6 C6 1_555 1_555
C7 C6 1_555 1_555
H7 C7 1_555 1_555
C8 N5 1_555 1_555
H8 C8 1_555 1_555
O1D C1D 1_555 1_555
O2D Ca1 1_555 1_555
N1D N2D 1_555 1_555
N2D N3D 1_555 1_555
N3D N4D 1_555 1_555
N4D C3D 1_555 1_555
N5D C4D 1_555 1_555
C1D O2D 1_555 1_555
C2D N2D 1_555 1_555
H3D C2D 1_555 1_555
H4D C2D 1_555 1_555
C3D N1D 1_555 1_555
C4D C3D 1_555 1_555
C5D C4D 1_555 1_555
H5D C5D 1_555 1_555
C6D C5D 1_555 1_555
H6D C6D 1_555 1_555
C7D C6D 1_555 1_555
H7D C7D 1_555 1_555
C8D N5D 1_555 1_555
H8D C8D 1_555 1_555
O3D Ca1 1_555 1_555
H1D O3D 1_555 1_555
H2D O3D 1_555 1_555
Ca1_2 O2 1_555 1_555
O1D_2 Ca1 1_555 1_555
O2_2 Ca1 1_555 1_555
C7 C8 1_555 1_555
O1D Ca1_2 1_555 1_555
C1D C2D 1_555 1_555
C7D C8D 1_555 1_555

#END
