
#######################################################################
#
#                 Cambridge Crystallographic Data Centre
#                                CCDC 
#
#######################################################################
#
# If this CIF has been generated from an entry in the Cambridge 
# Structural Database, then it will include bibliographic, chemical, 
# crystal, experimental, refinement or atomic coordinate data resulting 
# from the CCDC's data processing and validation procedures.
#
#######################################################################

data_FIPFIU03
_symmetry_cell_setting           triclinic
_symmetry_space_group_name_H-M   'P -1'
_symmetry_Int_Tables_number      2
_space_group_name_Hall           '-P 1'
loop_
_symmetry_equiv_pos_site_id
_symmetry_equiv_pos_as_xyz
1 x,y,z
2 -x,-y,-z
_cell_length_a                   5.02730(10)
_cell_length_b                   8.1015(2)
_cell_length_c                   9.5264(3)
_cell_angle_alpha                69.3740(10)
_cell_angle_beta                 80.5360(10)
_cell_angle_gamma                75.9800(10)
_cell_volume                     350.971
loop_
_atom_site_label
_atom_site_type_symbol
_atom_site_fract_x
_atom_site_fract_y
_atom_site_fract_z
Cd1 Cd 0.5000 0.5000 0.5000
C1 C 0.3662(8) 0.1960(5) 0.3796(4)
H1 H 0.2405 0.1848 0.4641
C2 C 0.7029(7) 0.3329(5) 0.2224(4)
H2 H 0.8205 0.4131 0.2004
C3 C 0.3775(8) 0.0882(5) 0.2929(4)
H3 H 0.2677 0.0024 0.3217
C4 C 0.5520(8) 0.1095(5) 0.1642(4)
H4 H 0.5602 0.0393 0.1039
C5 C 0.7181(7) 0.2379(5) 0.1242(4)
C6 C 0.8979(7) 0.2757(5) -0.0170(4)
H5 H 1.0639 0.3075 -0.0175
C7 C 0.8347(7) 0.2666(5) -0.1433(4)
H6 H 0.6719 0.2296 -0.1403
C8 C 1.0062(7) 0.3117(4) -0.2909(4)
N1 N 0.5288(6) 0.3156(4) 0.3468(3)
O1 O 0.8969(5) 0.3203(3) -0.4036(3)
O2 O 1.2477(5) 0.3361(3) -0.2943(3)
Cd1_2 Cd -0.5000 0.5000 0.5000
Cd1_3 Cd 0.5000 0.5000 -0.5000
Cd1_4 Cd 1.5000 0.5000 -0.5000
C1A C 0.6338(8) 0.8040(5) -0.3796(4)
H1A H 0.7595 0.8152 -0.4641
C2A C 0.2971(7) 0.6671(5) -0.2224(4)
H2A H 0.1795 0.5869 -0.2004
C3A C 0.6225(8) 0.9118(5) -0.2929(4)
H3A H 0.7323 0.9976 -0.3217
C4A C 0.4480(8) 0.8905(5) -0.1642(4)
H4A H 0.4398 0.9607 -0.1039
C5A C 0.2819(7) 0.7621(5) -0.1242(4)
C6A C 0.1021(7) 0.7243(5) 0.0170(4)
H5A H -0.0639 0.6925 0.0175
C7A C 0.1653(7) 0.7334(5) 0.1433(4)
H6A H 0.3281 0.7704 0.1403
C8A C -0.0062(7) 0.6883(4) 0.2909(4)
N1A N 0.4712(6) 0.6844(4) -0.3468(3)
N1A_2 N 0.4712(6) 0.6844(4) 0.6532(3)
O1A O 0.1031(5) 0.6797(3) 0.4036(3)
O1_2 O 0.8969(5) 0.3203(3) 0.5964(3)
O2A O -0.2477(5) 0.6639(3) 0.2943(3)
O2_2 O 0.2477(5) 0.3361(3) 0.7057(3)
O2A_2 O 0.7523(5) 0.6639(3) 0.2943(3)
loop_
_geom_bond_atom_site_label_1
_geom_bond_atom_site_label_2
_geom_bond_site_symmetry_1
_geom_bond_site_symmetry_2
Cd1 N1 1_555 1_555
C1 H1 1_555 1_555
C2 H2 1_555 1_555
C3 C1 1_555 1_555
H3 C3 1_555 1_555
C4 C3 1_555 1_555
H4 C4 1_555 1_555
C5 C2 1_555 1_555
C6 C5 1_555 1_555
H5 C6 1_555 1_555
C7 C6 1_555 1_555
H6 C7 1_555 1_555
C8 C7 1_555 1_555
N1 C1 1_555 1_555
O1 C8 1_555 1_555
O2 C8 1_555 1_555
Cd1_2 O2A 1_555 1_555
Cd1_3 O1 1_555 1_555
Cd1_4 O2 1_555 1_555
C1A H1A 1_555 1_555
C2A H2A 1_555 1_555
C3A C1A 1_555 1_555
H3A C3A 1_555 1_555
C4A C3A 1_555 1_555
H4A C4A 1_555 1_555
C5A C2A 1_555 1_555
C6A C5A 1_555 1_555
H5A C6A 1_555 1_555
C7A C6A 1_555 1_555
H6A C7A 1_555 1_555
C8A C7A 1_555 1_555
N1A Cd1_3 1_555 1_555
N1A_2 Cd1 1_555 1_555
O1A Cd1 1_555 1_555
O1_2 Cd1 1_555 1_555
O2A C8A 1_555 1_555
O2_2 Cd1 1_555 1_555
O2A_2 Cd1 1_555 1_555
C2 N1 1_555 1_555
C4 C5 1_555 1_555
C1A N1A 1_555 1_555
C2A N1A 1_555 1_555
C4A C5A 1_555 1_555
C8A O1A 1_555 1_555

#END
