
#######################################################################
#
#                 Cambridge Crystallographic Data Centre
#                                CCDC 
#
#######################################################################
#
# If this CIF has been generated from an entry in the Cambridge 
# Structural Database, then it will include bibliographic, chemical, 
# crystal, experimental, refinement or atomic coordinate data resulting 
# from the CCDC's data processing and validation procedures.
#
#######################################################################

data_FIPMUN
_symmetry_cell_setting           monoclinic
_symmetry_space_group_name_H-M   'P 21/c'
_symmetry_Int_Tables_number      14
_space_group_name_Hall           '-P 2ybc'
loop_
_symmetry_equiv_pos_site_id
_symmetry_equiv_pos_as_xyz
1 x,y,z
2 -x,1/2+y,1/2-z
3 -x,-y,-z
4 x,1/2-y,1/2+z
_cell_length_a                   9.2921(2)
_cell_length_b                   14.6877(3)
_cell_length_c                   7.6046(2)
_cell_angle_alpha                90
_cell_angle_beta                 100.4473(9)
_cell_angle_gamma                90
_cell_volume                     1020.67
loop_
_atom_site_label
_atom_site_type_symbol
_atom_site_fract_x
_atom_site_fract_y
_atom_site_fract_z
Er1 Er 0.275763(17) 0.042202(10) 0.134398(19)
C1 C -0.0312(4) 0.3951(3) 0.0965(5)
H1 H 0.0407 0.4382 0.1363
C2 C 0.0072(4) 0.3070(3) 0.0716(5)
H2 H 0.1053 0.2903 0.0939
C3 C -0.0998(4) 0.2422(3) 0.0132(4)
C4 C -0.2440(4) 0.2708(3) -0.0276(5)
H3 H -0.3173 0.2293 -0.0720
C5 C -0.2794(4) 0.3601(3) -0.0026(5)
H4 H -0.3762 0.3792 -0.0313
C6 C -0.0582(4) 0.1442(3) 0.0001(4)
N1 N -0.1739(3) 0.4197(2) 0.0633(4)
O1 O 0.0744(3) 0.12389(19) 0.0484(4)
O2 O -0.1577(3) 0.08953(18) -0.0573(4)
O3 O -0.2100(3) 0.50402(19) 0.1010(3)
O4 O 0.4381(3) 0.13188(19) 0.0018(3)
O5 O 0.2812(3) 0.02887(18) -0.1738(3)
O6 O 0.5283(3) 0.04591(19) -0.2293(4)
O7 O 0.3589(3) 0.16703(18) -0.3109(3)
O8 O 0.3518(3) 0.1582(2) 0.3311(4)
S1 S 0.40163(10) 0.09397(6) -0.18172(11)
H5 H 0.365(4) 0.211(3) 0.305(5)
H6 H 0.340(6) 0.163(4) 0.458(8)
Er1B Er -0.275763(17) -0.042202(10) -0.134398(19)
Er1A Er -0.275763(17) 0.542202(10) 0.365602(19)
Er1B_2 Er 0.724237(17) -0.042202(10) -0.134398(19)
O2B O 0.1577(3) -0.08953(18) 0.0573(4)
O3A O 0.2100(3) 0.00402(19) 0.3990(3)
O6B O 0.4717(3) -0.04591(19) 0.2293(4)
loop_
_geom_bond_atom_site_label_1
_geom_bond_atom_site_label_2
_geom_bond_site_symmetry_1
_geom_bond_site_symmetry_2
Er1 O1 1_555 1_555
C1 H1 1_555 1_555
C2 C1 1_555 1_555
H2 C2 1_555 1_555
C3 C2 1_555 1_555
C4 C3 1_555 1_555
H3 C4 1_555 1_555
C5 C4 1_555 1_555
H4 C5 1_555 1_555
C6 C3 1_555 1_555
N1 C1 1_555 1_555
O1 C6 1_555 1_555
O2 C6 1_555 1_555
O3 N1 1_555 1_555
O4 Er1 1_555 1_555
O5 Er1 1_555 1_555
O6 S1 1_555 1_555
O7 S1 1_555 1_555
O8 Er1 1_555 1_555
S1 O4 1_555 1_555
H5 O8 1_555 1_555
H6 O8 1_555 1_555
Er1B O2 1_555 1_555
Er1A O3 1_555 1_555
Er1B_2 O6 1_555 1_555
O2B Er1 1_555 1_555
O3A Er1 1_555 1_555
O6B Er1 1_555 1_555
C5 N1 1_555 1_555
O5 S1 1_555 1_555

#END
