
#######################################################################
#
#                 Cambridge Crystallographic Data Centre
#                                CCDC 
#
#######################################################################
#
# If this CIF has been generated from an entry in the Cambridge 
# Structural Database, then it will include bibliographic, chemical, 
# crystal, experimental, refinement or atomic coordinate data resulting 
# from the CCDC's data processing and validation procedures.
#
#######################################################################

data_FIPMAT
_symmetry_cell_setting           monoclinic
_symmetry_space_group_name_H-M   'P 21/c'
_symmetry_Int_Tables_number      14
_space_group_name_Hall           '-P 2ybc'
loop_
_symmetry_equiv_pos_site_id
_symmetry_equiv_pos_as_xyz
1 x,y,z
2 -x,1/2+y,1/2-z
3 -x,-y,-z
4 x,1/2-y,1/2+z
_cell_length_a                   7.79410(10)
_cell_length_b                   20.7801(5)
_cell_length_c                   6.3806(2)
_cell_angle_alpha                90
_cell_angle_beta                 106.6700(8)
_cell_angle_gamma                90
_cell_volume                     989.984
loop_
_atom_site_label
_atom_site_type_symbol
_atom_site_fract_x
_atom_site_fract_y
_atom_site_fract_z
Nd1 Nd 0.15543(3) 0.429805(10) 0.71331(3)
C1 C -0.1089(7) 0.3287(2) 0.5692(7)
C2 C -0.2426(6) 0.2748(2) 0.5192(7)
C3 C -0.4234(6) 0.2856(2) 0.4565(6)
H1 H -0.4664 0.3277 0.4433
C4 C -0.5424(7) 0.2351(2) 0.4129(7)
H2 H -0.6652 0.2426 0.3698
C5 C -0.1816(6) 0.2116(2) 0.5405(6)
H3 H -0.0592 0.2032 0.5855
C6 C -0.3015(6) 0.1615(2) 0.4951(7)
H4 H -0.2608 0.1192 0.5069
N1 N -0.4781(5) 0.17410(18) 0.4336(5)
O1 O -0.1605(4) 0.38614(15) 0.5460(5)
O2 O 0.0560(5) 0.31455(15) 0.6424(5)
O3 O -0.5900(4) 0.12507(15) 0.3984(5)
O4 O 0.2698(4) 0.48143(14) 1.1201(5)
O5 O 0.0489(4) 0.40129(15) 1.0309(4)
O6 O 0.2675(5) 0.39850(16) 1.3911(5)
O7 O 0.0435(4) 0.47740(14) 1.3176(4)
O8 O 0.3599(6) 0.51728(19) 0.7007(6)
S1 S 0.16025(16) 0.43937(5) 1.21378(17)
H5 H 0.343(7) 0.548(2) 0.650(8)
H6 H 0.483(9) 0.517(3) 0.761(9)
Nd1C Nd -0.84457(3) 0.070195(10) 0.21331(3)
Nd1_2 Nd 0.15543(3) 0.429805(10) 1.71331(3)
Nd1B Nd -0.15543(3) 0.570195(10) 1.28669(3)
O3C O 0.4100(4) 0.37493(15) 0.8984(5)
O6_2 O 0.2675(5) 0.39850(16) 0.3911(5)
O7_2 O 0.0435(4) 0.47740(14) 0.3176(4)
O7B O -0.0435(4) 0.52260(14) 0.6824(4)
loop_
_geom_bond_atom_site_label_1
_geom_bond_atom_site_label_2
_geom_bond_site_symmetry_1
_geom_bond_site_symmetry_2
Nd1 O1 1_555 1_555
C1 C2 1_555 1_555
C2 C3 1_555 1_555
C3 H1 1_555 1_555
C4 C3 1_555 1_555
H2 C4 1_555 1_555
C5 C2 1_555 1_555
H3 C5 1_555 1_555
C6 C5 1_555 1_555
H4 C6 1_555 1_555
N1 C4 1_555 1_555
O1 C1 1_555 1_555
O2 Nd1 1_555 1_555
O3 N1 1_555 1_555
O4 Nd1 1_555 1_555
O5 Nd1 1_555 1_555
O6 S1 1_555 1_555
O7 S1 1_555 1_555
O8 Nd1 1_555 1_555
S1 O4 1_555 1_555
H5 O8 1_555 1_555
H6 O8 1_555 1_555
Nd1C O3 1_555 1_555
Nd1_2 O6 1_555 1_555
Nd1B O7 1_555 1_555
O3C Nd1 1_555 1_555
O6_2 Nd1 1_555 1_555
O7_2 Nd1 1_555 1_555
O7B Nd1 1_555 1_555
C1 O2 1_555 1_555
C6 N1 1_555 1_555
O5 S1 1_555 1_555
O7 Nd1_2 1_555 1_555

#END
