
#######################################################################
#
#                 Cambridge Crystallographic Data Centre
#                                CCDC 
#
#######################################################################
#
# If this CIF has been generated from an entry in the Cambridge 
# Structural Database, then it will include bibliographic, chemical, 
# crystal, experimental, refinement or atomic coordinate data resulting 
# from the CCDC's data processing and validation procedures.
#
#######################################################################

data_FIPMEY
_symmetry_cell_setting           monoclinic
_symmetry_space_group_name_H-M   'P 21/n'
_symmetry_Int_Tables_number      14
_space_group_name_Hall           '-P 2yn'
loop_
_symmetry_equiv_pos_site_id
_symmetry_equiv_pos_as_xyz
1 x,y,z
2 1/2-x,1/2+y,1/2-z
3 -x,-y,-z
4 1/2+x,1/2-y,1/2+z
_cell_length_a                   10.7558(10)
_cell_length_b                   18.1042(17)
_cell_length_c                   11.8461(11)
_cell_angle_alpha                90
_cell_angle_beta                 110.532(2)
_cell_angle_gamma                90
_cell_volume                     2160.2
loop_
_atom_site_label
_atom_site_type_symbol
_atom_site_fract_x
_atom_site_fract_y
_atom_site_fract_z
C1 C 0.2668(2) 0.16160(13) 0.7349(2)
C2 C 0.3213(3) 0.11744(15) 0.6678(2)
H1 H 0.3855 0.0825 0.7066
C3 C 0.2804(3) 0.12520(15) 0.5439(2)
H2 H 0.3181 0.0953 0.5006
C4 C 0.1846(2) 0.17641(14) 0.4826(2)
C5 C 0.1276(2) 0.21896(15) 0.5501(2)
H3 H 0.0608 0.2524 0.5110
C6 C 0.1692(2) 0.21203(14) 0.6740(2)
H4 H 0.1311 0.2417 0.7172
C7 C 0.1508(2) 0.18812(14) 0.3513(2)
C8 C 0.2506(2) 0.18696(14) 0.3015(2)
H5 H 0.3374 0.1768 0.3509
C9 C 0.2236(2) 0.20066(14) 0.1799(2)
H6 H 0.2919 0.2005 0.1489
C10 C 0.0937(3) 0.21471(14) 0.1045(2)
C11 C -0.0070(3) 0.21610(16) 0.1521(2)
H7 H -0.0939 0.2253 0.1021
C12 C 0.0218(3) 0.20380(16) 0.2739(2)
H8 H -0.0464 0.2060 0.3051
C13 C 0.3167(2) 0.15608(14) 0.8713(2)
C14 C 0.7636(3) -0.02243(16) 0.9277(2)
H9 H 0.7590 -0.0698 0.9561
C15 C 0.8567(3) -0.00811(14) 0.8752(3)
H10 H 0.9120 -0.0458 0.8676
C16 C 0.8686(2) 0.06264(15) 0.8334(2)
C17 C 0.7838(3) 0.11576(15) 0.8491(3)
H11 H 0.7892 0.1641 0.8247
C18 C 0.6914(3) 0.09761(15) 0.9005(3)
H12 H 0.6346 0.1343 0.9087
C19 C 0.9666(3) 0.07969(18) 0.7728(2)
H13 H 1.0468 0.0513 0.8113
H14 H 0.9899 0.1316 0.7841
C20 C 0.9141(3) 0.06242(17) 0.6370(2)
H15 H 0.9877 0.0626 0.6077
H16 H 0.8756 0.0133 0.6245
C21 C 0.8101(3) 0.11774(17) 0.5647(2)
H17 H 0.7430 0.1225 0.6016
H18 H 0.8521 0.1656 0.5692
C22 C 0.7430(3) 0.09749(15) 0.4341(2)
C23 C 0.6071(3) 0.0993(2) 0.3814(3)
H19 H 0.5558 0.1133 0.4266
C24 C 0.5466(3) 0.0803(2) 0.2621(3)
H20 H 0.4544 0.0822 0.2295
C25 C 0.7422(3) 0.05933(19) 0.2408(3)
H21 H 0.7910 0.0464 0.1928
C26 C 0.8110(3) 0.07710(18) 0.3601(2)
H22 H 0.9032 0.0752 0.3902
Cd1 Cd 0.5000 0.0000 1.0000
N1 N 0.6794(2) 0.02896(13) 0.93959(18)
N2 N 0.6113(2) 0.05962(12) 0.19089(19)
O1 O 0.4015(2) 0.10777(12) 0.91886(18)
O2 O 0.2723(2) 0.20028(14) 0.92784(17)
O3 O 0.0614(2) 0.22862(13) -0.01535(16)
H23 H 0.1254 0.2197 -0.0355
C14B C 0.2364(3) 0.02243(16) 0.0723(2)
H9B H 0.2410 0.0698 0.0439
C15B C 0.1433(3) 0.00811(14) 0.1248(3)
H10B H 0.0880 0.0458 0.1324
C16B C 0.1314(2) -0.06264(15) 0.1666(2)
C17B C 0.2162(3) -0.11576(15) 0.1509(3)
H11B H 0.2108 -0.1641 0.1753
C18B C 0.3086(3) -0.09761(15) 0.0995(3)
H12B H 0.3654 -0.1343 0.0913
C19B C 0.0334(3) -0.07969(18) 0.2272(2)
H13B H -0.0468 -0.0513 0.1887
H14B H 0.0101 -0.1316 0.2159
C20B C 0.0859(3) -0.06242(17) 0.3630(2)
H15B H 0.0123 -0.0626 0.3923
H16B H 0.1244 -0.0133 0.3755
C21B C 0.1899(3) -0.11774(17) 0.4353(2)
H17B H 0.2570 -0.1225 0.3984
H18B H 0.1479 -0.1656 0.4308
C22B C 0.2570(3) -0.09749(15) 0.5659(2)
C23B C 0.3929(3) -0.0993(2) 0.6186(3)
H19B H 0.4442 -0.1133 0.5734
C24B C 0.4534(3) -0.0803(2) 0.7379(3)
H20B H 0.5456 -0.0822 0.7705
C25B C 0.2578(3) -0.05933(19) 0.7592(3)
H21B H 0.2090 -0.0464 0.8072
C26B C 0.1890(3) -0.07710(18) 0.6399(2)
H22B H 0.0968 -0.0752 0.6098
N1B N 0.3206(2) -0.02896(13) 0.06041(18)
N2B N 0.3887(2) -0.05962(12) 0.80911(19)
C1B C 0.7332(2) -0.16160(13) 1.2651(2)
C2B C 0.6787(3) -0.11744(15) 1.3322(2)
H1B H 0.6145 -0.0825 1.2934
C3B C 0.7196(3) -0.12520(15) 1.4561(2)
H2B H 0.6819 -0.0953 1.4994
C4B C 0.8154(2) -0.17641(14) 1.5174(2)
C5B C 0.8724(2) -0.21896(15) 1.4499(2)
H3B H 0.9392 -0.2524 1.4890
C6B C 0.8308(2) -0.21203(14) 1.3260(2)
H4B H 0.8689 -0.2417 1.2828
C7B C 0.8492(2) -0.18812(14) 1.6487(2)
C8B C 0.7494(2) -0.18696(14) 1.6985(2)
H5B H 0.6626 -0.1768 1.6491
C9B C 0.7764(2) -0.20066(14) 1.8201(2)
H6B H 0.7081 -0.2005 1.8511
C10B C 0.9063(3) -0.21471(14) 1.8955(2)
C11B C 1.0070(3) -0.21610(16) 1.8479(2)
H7B H 1.0939 -0.2253 1.8979
C12B C 0.9782(3) -0.20380(16) 1.7261(2)
H8B H 1.0464 -0.2060 1.6949
C13B C 0.6833(2) -0.15608(14) 1.1287(2)
O1B O 0.5985(2) -0.10777(12) 1.08114(18)
O2B O 0.7277(2) -0.20028(14) 1.07216(17)
O3B O 0.9386(2) -0.22862(13) 2.01535(16)
H23B H 0.8746 -0.2197 2.0355
Cd1_2 Cd 0.5000 0.0000 0.0000
N1B_2 N 0.3206(2) -0.02896(13) 1.06041(18)
N2_2 N 0.6113(2) 0.05962(12) 1.19089(19)
loop_
_geom_bond_atom_site_label_1
_geom_bond_atom_site_label_2
_geom_bond_site_symmetry_1
_geom_bond_site_symmetry_2
C1 C2 1_555 1_555
C2 H1 1_555 1_555
C3 C2 1_555 1_555
H2 C3 1_555 1_555
C4 C3 1_555 1_555
C5 C4 1_555 1_555
H3 C5 1_555 1_555
C6 C1 1_555 1_555
H4 C6 1_555 1_555
C7 C4 1_555 1_555
C8 C7 1_555 1_555
H5 C8 1_555 1_555
C9 C8 1_555 1_555
H6 C9 1_555 1_555
C10 C9 1_555 1_555
C11 C10 1_555 1_555
H7 C11 1_555 1_555
C12 C7 1_555 1_555
H8 C12 1_555 1_555
C13 C1 1_555 1_555
C14 H9 1_555 1_555
C15 C14 1_555 1_555
H10 C15 1_555 1_555
C16 C15 1_555 1_555
C17 C16 1_555 1_555
H11 C17 1_555 1_555
C18 C17 1_555 1_555
H12 C18 1_555 1_555
C19 C16 1_555 1_555
H13 C19 1_555 1_555
H14 C19 1_555 1_555
C20 C19 1_555 1_555
H15 C20 1_555 1_555
H16 C20 1_555 1_555
C21 C20 1_555 1_555
H17 C21 1_555 1_555
H18 C21 1_555 1_555
C22 C21 1_555 1_555
C23 C22 1_555 1_555
H19 C23 1_555 1_555
C24 C23 1_555 1_555
H20 C24 1_555 1_555
C25 H21 1_555 1_555
C26 C22 1_555 1_555
H22 C26 1_555 1_555
Cd1 N1 1_555 1_555
N1 C14 1_555 1_555
N2 C24 1_555 1_555
O1 C13 1_555 1_555
O2 C13 1_555 1_555
O3 C10 1_555 1_555
H23 O3 1_555 1_555
C14B H9B 1_555 1_555
C15B C14B 1_555 1_555
H10B C15B 1_555 1_555
C16B C15B 1_555 1_555
C17B C16B 1_555 1_555
H11B C17B 1_555 1_555
C18B C17B 1_555 1_555
H12B C18B 1_555 1_555
C19B C16B 1_555 1_555
H13B C19B 1_555 1_555
H14B C19B 1_555 1_555
C20B C19B 1_555 1_555
H15B C20B 1_555 1_555
H16B C20B 1_555 1_555
C21B C20B 1_555 1_555
H17B C21B 1_555 1_555
H18B C21B 1_555 1_555
C22B C21B 1_555 1_555
C23B C22B 1_555 1_555
H19B C23B 1_555 1_555
C24B C23B 1_555 1_555
H20B C24B 1_555 1_555
C25B H21B 1_555 1_555
C26B C22B 1_555 1_555
H22B C26B 1_555 1_555
N1B C14B 1_555 1_555
N2B Cd1 1_555 1_555
C1B C2B 1_555 1_555
C2B H1B 1_555 1_555
C3B C2B 1_555 1_555
H2B C3B 1_555 1_555
C4B C3B 1_555 1_555
C5B C4B 1_555 1_555
H3B C5B 1_555 1_555
C6B C1B 1_555 1_555
H4B C6B 1_555 1_555
C7B C4B 1_555 1_555
C8B C7B 1_555 1_555
H5B C8B 1_555 1_555
C9B C8B 1_555 1_555
H6B C9B 1_555 1_555
C10B C9B 1_555 1_555
C11B C10B 1_555 1_555
H7B C11B 1_555 1_555
C12B C7B 1_555 1_555
H8B C12B 1_555 1_555
C13B C1B 1_555 1_555
O1B Cd1 1_555 1_555
O2B C13B 1_555 1_555
O3B C10B 1_555 1_555
H23B O3B 1_555 1_555
Cd1_2 N2 1_555 1_555
N1B_2 Cd1 1_555 1_555
N2_2 Cd1 1_555 1_555
C5 C6 1_555 1_555
C11 C12 1_555 1_555
C18 N1 1_555 1_555
C25 C26 1_555 1_555
C25 N2 1_555 1_555
Cd1 O1 1_555 1_555
C18B N1B 1_555 1_555
C24B N2B 1_555 1_555
C25B C26B 1_555 1_555
C25B N2B 1_555 1_555
N1B Cd1_2 1_555 1_555
C5B C6B 1_555 1_555
C11B C12B 1_555 1_555
C13B O1B 1_555 1_555

#END
