
#######################################################################
#
#                 Cambridge Crystallographic Data Centre
#                                CCDC 
#
#######################################################################
#
# If this CIF has been generated from an entry in the Cambridge 
# Structural Database, then it will include bibliographic, chemical, 
# crystal, experimental, refinement or atomic coordinate data resulting 
# from the CCDC's data processing and validation procedures.
#
#######################################################################

data_FIPPIE
_symmetry_cell_setting           monoclinic
_symmetry_space_group_name_H-M   'C 2/c'
_symmetry_Int_Tables_number      15
_space_group_name_Hall           '-C 2yn'
loop_
_symmetry_equiv_pos_site_id
_symmetry_equiv_pos_as_xyz
1 x,y,z
2 1/2+x,1/2+y,z
3 -x,y,1/2-z
4 1/2-x,1/2+y,1/2-z
5 -x,-y,-z
6 1/2-x,1/2-y,-z
7 x,-y,1/2+z
8 1/2+x,1/2-y,1/2+z
_cell_length_a                   22.3971(6)
_cell_length_b                   13.90130(10)
_cell_length_c                   17.8650(5)
_cell_angle_alpha                90
_cell_angle_beta                 114.4870(10)
_cell_angle_gamma                90
_cell_volume                     5061.95
loop_
_atom_site_label
_atom_site_type_symbol
_atom_site_fract_x
_atom_site_fract_y
_atom_site_fract_z
Pr1 Pr 0.5000 0.51938(8) 0.2500
Pr2 Pr 0.75601(4) 0.31425(6) 0.27468(5)
N1 N 0.4945(5) 0.4266(8) 0.1203(7)
N2 N 0.8386(5) 0.3243(9) 0.4277(6)
N3 N 0.5000 0.7046(12) 0.2500
O1 O 0.4115(5) 0.5637(7) 0.1104(6)
O2 O 0.3583(5) 0.5516(8) -0.0265(6)
O3 O 0.5820(5) 0.3907(8) 0.2697(6)
O4 O 0.6372(4) 0.2887(7) 0.2243(6)
O5 O 0.8349(5) 0.4472(7) 0.3148(6)
O6 O 0.9134(8) 0.5358(12) 0.4062(9)
O7 O 0.7480(5) 0.1910(8) 0.3676(6)
O8 O 0.7730(5) 0.1237(8) 0.4893(6)
O9 O 0.5886(4) 0.6011(7) 0.2223(6)
O10 O 0.6434(5) 0.7329(8) 0.2151(7)
O11 O 0.7150(5) 0.4251(8) 0.3596(6)
O12 O 0.6935(6) 0.4695(8) 0.1940(6)
O13 O 0.7245(6) 0.1498(9) 0.1974(7)
O14 O 0.7582(7) 0.3327(9) 0.1344(8)
C1 C 0.4475(6) 0.4459(10) 0.0440(8)
C2 C 0.4439(8) 0.3955(11) -0.0242(9)
H1 H 0.4106 0.4084 -0.0757
C3 C 0.4904(8) 0.3254(12) -0.0153(9)
H2 H 0.4888 0.2918 -0.0611
C4 C 0.5384(7) 0.3059(12) 0.0607(8)
H3 H 0.5704 0.2595 0.0684
C5 C 0.5372(6) 0.3582(11) 0.1255(8)
C6 C 0.4027(7) 0.5259(10) 0.0428(7)
C7 C 0.5892(6) 0.3429(11) 0.2131(9)
C8 C 0.8830(7) 0.3931(11) 0.4539(9)
C9 C 0.9292(7) 0.3999(13) 0.5339(10)
H4 H 0.9613 0.4473 0.5498
C10 C 0.9260(8) 0.3338(12) 0.5898(10)
H5 H 0.9557 0.3375 0.6447
C11 C 0.8788(8) 0.2621(12) 0.5646(9)
H6 H 0.8760 0.2169 0.6015
C12 C 0.8354(7) 0.2605(10) 0.4812(8)
C13 C 0.8782(8) 0.4656(13) 0.3861(11)
C14 C 0.7831(7) 0.1870(11) 0.4461(8)
C15 C 0.5478(6) 0.7533(10) 0.2398(8)
C16 C 0.5491(8) 0.8524(12) 0.2389(10)
H7 H 0.5823 0.8852 0.2310
C17 C 0.5000 0.9014(19) 0.2500
H8 H 0.5000 0.9683 0.2500
C18 C 0.5977(6) 0.6901(12) 0.2253(7)
Pr2B Pr 0.24399(4) 0.31425(6) 0.22532(5)
Pr2C Pr 0.74399(4) 0.81425(6) 0.22532(5)
Pr2A Pr 0.25601(4) 0.81425(6) 0.27468(5)
N1B N 0.5055(5) 0.4266(8) 0.3797(7)
N2B N 0.1614(5) 0.3243(9) 0.0723(6)
O1B O 0.5885(5) 0.5637(7) 0.3896(6)
O2B O 0.6417(5) 0.5516(8) 0.5265(6)
O3B O 0.4180(5) 0.3907(8) 0.2303(6)
O4B O 0.3628(4) 0.2887(7) 0.2757(6)
O5B O 0.1651(5) 0.4472(7) 0.1852(6)
O6B O 0.0866(8) 0.5358(12) 0.0938(9)
O7B O 0.2520(5) 0.1910(8) 0.1324(6)
O8B O 0.2270(5) 0.1237(8) 0.0107(6)
O9B O 0.4114(4) 0.6011(7) 0.2777(6)
O10B O 0.3566(5) 0.7329(8) 0.2849(7)
O10C O 0.8566(5) 0.2329(8) 0.2849(7)
O10A O 0.1434(5) 0.2329(8) 0.2151(7)
O11B O 0.2850(5) 0.4251(8) 0.1404(6)
O12B O 0.3065(6) 0.4695(8) 0.3060(6)
O13B O 0.2755(6) 0.1498(9) 0.3026(7)
O14B O 0.2418(7) 0.3327(9) 0.3656(8)
C1B C 0.5525(6) 0.4459(10) 0.4560(8)
C2B C 0.5561(8) 0.3955(11) 0.5242(9)
H1B H 0.5894 0.4084 0.5757
C3B C 0.5096(8) 0.3254(12) 0.5153(9)
H2B H 0.5112 0.2918 0.5611
C4B C 0.4616(7) 0.3059(12) 0.4393(8)
H3B H 0.4296 0.2595 0.4316
C5B C 0.4628(6) 0.3582(11) 0.3745(8)
C6B C 0.5973(7) 0.5259(10) 0.4572(7)
C7B C 0.4108(6) 0.3429(11) 0.2869(9)
C8B C 0.1170(7) 0.3931(11) 0.0461(9)
C9B C 0.0708(7) 0.3999(13) -0.0339(10)
H4B H 0.0387 0.4473 -0.0498
C10B C 0.0740(8) 0.3338(12) -0.0898(10)
H5B H 0.0443 0.3375 -0.1447
C11B C 0.1212(8) 0.2621(12) -0.0646(9)
H6B H 0.1240 0.2169 -0.1015
C12B C 0.1646(7) 0.2605(10) 0.0188(8)
C13B C 0.1218(8) 0.4656(13) 0.1139(11)
C14B C 0.2169(7) 0.1870(11) 0.0539(8)
C15B C 0.4522(6) 0.7533(10) 0.2602(8)
C16B C 0.4509(8) 0.8524(12) 0.2611(10)
H7B H 0.4177 0.8852 0.2690
C18B C 0.4023(6) 0.6901(12) 0.2747(7)
O15 O 0.5918(7) 0.8993(11) -0.2526(9)
O16 O 0.8221(8) 0.4938(12) 0.1100(10)
O17 O 0.3169(12) 0.7006(18) 0.0692(15)
O18 O 0.6257(17) 1.132(2) -0.025(2)
loop_
_geom_bond_atom_site_label_1
_geom_bond_atom_site_label_2
_geom_bond_site_symmetry_1
_geom_bond_site_symmetry_2
Pr1 N1 1_555 1_555
Pr2 N2 1_555 1_555
N1 C1 1_555 1_555
N2 C8 1_555 1_555
N3 Pr1 1_555 1_555
O1 Pr1 1_555 1_555
O2 C6 1_555 1_555
O3 Pr1 1_555 1_555
O4 Pr2 1_555 1_555
O5 Pr2 1_555 1_555
O6 C13 1_555 1_555
O7 Pr2 1_555 1_555
O8 C14 1_555 1_555
O9 Pr1 1_555 1_555
O10 C18 1_555 1_555
O11 Pr2 1_555 1_555
O12 Pr2 1_555 1_555
O13 Pr2 1_555 1_555
O14 Pr2 1_555 1_555
C1 C2 1_555 1_555
C2 H1 1_555 1_555
C3 C2 1_555 1_555
H2 C3 1_555 1_555
C4 C3 1_555 1_555
H3 C4 1_555 1_555
C5 N1 1_555 1_555
C6 O1 1_555 1_555
C7 O3 1_555 1_555
C8 C9 1_555 1_555
C9 H4 1_555 1_555
C10 C9 1_555 1_555
H5 C10 1_555 1_555
C11 C10 1_555 1_555
H6 C11 1_555 1_555
C12 N2 1_555 1_555
C13 O5 1_555 1_555
C14 O7 1_555 1_555
C15 N3 1_555 1_555
C16 C15 1_555 1_555
H7 C16 1_555 1_555
C17 C16 1_555 1_555
H8 C17 1_555 1_555
C18 O9 1_555 1_555
Pr2B N2B 1_555 1_555
Pr2C O10 1_555 1_555
Pr2A O10B 1_555 1_555
N1B Pr1 1_555 1_555
N2B C8B 1_555 1_555
O1B Pr1 1_555 1_555
O2B C6B 1_555 1_555
O3B Pr1 1_555 1_555
O4B Pr2B 1_555 1_555
O5B Pr2B 1_555 1_555
O6B C13B 1_555 1_555
O7B Pr2B 1_555 1_555
O8B C14B 1_555 1_555
O9B Pr1 1_555 1_555
O10B C18B 1_555 1_555
O10C Pr2 1_555 1_555
O10A Pr2B 1_555 1_555
O11B Pr2B 1_555 1_555
O12B Pr2B 1_555 1_555
O13B Pr2B 1_555 1_555
O14B Pr2B 1_555 1_555
C1B N1B 1_555 1_555
C2B C1B 1_555 1_555
H1B C2B 1_555 1_555
C3B C2B 1_555 1_555
H2B C3B 1_555 1_555
C4B C3B 1_555 1_555
H3B C4B 1_555 1_555
C5B N1B 1_555 1_555
C6B O1B 1_555 1_555
C7B O3B 1_555 1_555
C8B C9B 1_555 1_555
C9B H4B 1_555 1_555
C10B C9B 1_555 1_555
H5B C10B 1_555 1_555
C11B C10B 1_555 1_555
H6B C11B 1_555 1_555
C12B N2B 1_555 1_555
C13B O5B 1_555 1_555
C14B O7B 1_555 1_555
C15B N3 1_555 1_555
C16B C17 1_555 1_555
H7B C16B 1_555 1_555
C18B O9B 1_555 1_555
O4 C7 1_555 1_555
C1 C6 1_555 1_555
C4 C5 1_555 1_555
C5 C7 1_555 1_555
C8 C13 1_555 1_555
C11 C12 1_555 1_555
C12 C14 1_555 1_555
C15 C18 1_555 1_555
O4B C7B 1_555 1_555
C1B C6B 1_555 1_555
C4B C5B 1_555 1_555
C5B C7B 1_555 1_555
C8B C13B 1_555 1_555
C11B C12B 1_555 1_555
C12B C14B 1_555 1_555
C15B C16B 1_555 1_555
C15B C18B 1_555 1_555

#END
