
#######################################################################
#
#                 Cambridge Crystallographic Data Centre
#                                CCDC 
#
#######################################################################
#
# If this CIF has been generated from an entry in the Cambridge 
# Structural Database, then it will include bibliographic, chemical, 
# crystal, experimental, refinement or atomic coordinate data resulting 
# from the CCDC's data processing and validation procedures.
#
#######################################################################

data_FIPVIL
_symmetry_cell_setting           triclinic
_symmetry_space_group_name_H-M   'P -1'
_symmetry_Int_Tables_number      2
_space_group_name_Hall           '-P 1'
loop_
_symmetry_equiv_pos_site_id
_symmetry_equiv_pos_as_xyz
1 x,y,z
2 -x,-y,-z
_cell_length_a                   10.1556(11)
_cell_length_b                   14.2932(15)
_cell_length_c                   16.4873(17)
_cell_angle_alpha                104.148(2)
_cell_angle_beta                 98.683(2)
_cell_angle_gamma                106.399(2)
_cell_volume                     2163.09
loop_
_atom_site_label
_atom_site_type_symbol
_atom_site_fract_x
_atom_site_fract_y
_atom_site_fract_z
C1 C 0.6976(5) 0.9569(4) 0.2401(3)
C2 C 0.6691(5) 0.8541(4) 0.1997(3)
H1 H 0.5759 0.8104 0.1838
C3 C 0.7740(5) 0.8144(4) 0.1823(3)
C4 C 0.9117(5) 0.8820(4) 0.2039(3)
H2 H 0.9837 0.8568 0.1913
C5 C 0.9445(5) 0.9854(4) 0.2435(3)
C6 C 0.8366(5) 1.0221(4) 0.2616(3)
H3 H 0.8574 1.0916 0.2885
C7 C 0.7469(5) 0.7036(3) 0.1339(3)
H4 H 0.8290 0.6999 0.1116
H5 H 0.6679 0.6831 0.0848
C8 C 0.7159(5) 0.6257(3) 0.1823(3)
C9 C 0.5861(5) 0.5950(4) 0.2026(3)
H6 H 0.5242 0.6310 0.1953
C10 C 0.5469(5) 0.5122(4) 0.2332(3)
C11 C 0.6398(5) 0.4596(4) 0.2453(3)
H7 H 0.6131 0.4025 0.2644
C12 C 0.7728(5) 0.4917(4) 0.2290(3)
C13 C 0.8083(5) 0.5743(3) 0.1976(3)
H8 H 0.8973 0.5959 0.1865
C14 C 0.5805(5) 0.9996(4) 0.2530(3)
C15 C 1.0944(5) 1.0553(4) 0.2596(3)
C16 C 0.4000(5) 0.4744(4) 0.2446(3)
C17 C 0.8684(5) 0.4296(4) 0.2378(3)
C18 C -0.6841(6) 0.0701(4) 0.0743(3)
H9 H -0.7805 0.0396 0.0677
C19 C -0.6228(6) 0.0856(4) 0.0102(4)
H10 H -0.6674 0.0693 -0.0474
C20 C -0.4646(6) 0.1409(4) 0.1307(3)
H11 H -0.3776 0.1702 0.1703
C21 C -0.3685(6) 0.1600(4) 0.0020(4)
H12 H -0.3919 0.1098 -0.0541
H13 H -0.2808 0.1595 0.0346
C22 C -0.3463(5) 0.2650(4) -0.0094(3)
C23 C -0.4202(5) 0.3266(4) 0.0231(3)
H14 H -0.4873 0.3035 0.0528
C24 C -0.3962(6) 0.4217(4) 0.0124(3)
H15 H -0.4451 0.4634 0.0359
C25 C -0.3002(6) 0.4548(4) -0.0330(4)
H16 H -0.2855 0.5186 -0.0416
C26 C -0.2266(6) 0.3955(4) -0.0656(3)
H17 H -0.1621 0.4187 -0.0967
C27 C -0.2458(5) 0.2999(4) -0.0532(3)
C28 C -0.1481(6) 0.2425(4) -0.0790(3)
H18 H -0.2015 0.1704 -0.1059
H19 H -0.1019 0.2682 -0.1204
C29 C 0.0341(6) 0.1934(5) 0.0106(4)
H20 H 0.0300 0.1333 -0.0291
C30 C 0.1151(7) 0.2355(5) 0.0914(4)
H21 H 0.1773 0.2085 0.1171
C31 C -0.0009(5) 0.3344(4) 0.0714(3)
H22 H -0.0352 0.3890 0.0792
C32 C 0.3656(6) 1.1003(5) 0.4546(4)
H23 H 0.3837 1.1706 0.4703
C33 C 0.3315(7) 1.0400(5) 0.5060(4)
H24 H 0.3228 1.0609 0.5624
C34 C 0.3362(6) 0.9477(4) 0.3819(3)
H25 H 0.3302 0.8911 0.3374
C35 C 0.2674(6) 0.8510(4) 0.4843(4)
H26 H 0.3117 0.8668 0.5446
H27 H 0.3009 0.8000 0.4516
C36 C 0.1102(6) 0.8059(4) 0.4715(3)
C37 C 0.0174(7) 0.8368(5) 0.4234(4)
H28 H 0.0525 0.8894 0.4005
C38 C -0.1266(8) 0.7914(6) 0.4086(4)
H29 H -0.1873 0.8131 0.3754
C39 C -0.1806(8) 0.7147(6) 0.4426(5)
H30 H -0.2777 0.6837 0.4327
C40 C -0.0885(8) 0.6841(5) 0.4918(4)
H31 H -0.1243 0.6328 0.5160
C41 C 0.0550(7) 0.7279(4) 0.5058(3)
C42 C 0.1524(6) 0.6874(4) 0.5558(3)
H32 H 0.2297 0.7446 0.5962
H33 H 0.1006 0.6488 0.5886
C43 C 0.3368(7) 0.6095(5) 0.5137(4)
H34 H 0.4088 0.6436 0.5633
C44 C 0.3415(6) 0.5397(5) 0.4445(4)
H35 H 0.4176 0.5168 0.4383
C45 C 0.1406(6) 0.5577(4) 0.4194(3)
H36 H 0.0492 0.5506 0.3928
N1 N -0.5852(4) 0.1052(3) 0.1512(3)
N2 N -0.4810(5) 0.1302(3) 0.0467(3)
N3 N -0.0401(4) 0.2559(3) -0.0014(3)
N4 N 0.0922(5) 0.3241(3) 0.1302(3)
N5 N 0.3692(4) 1.0423(3) 0.3771(3)
N6 N 0.3127(5) 0.9437(4) 0.4584(3)
N7 N 0.2095(5) 0.6218(3) 0.4989(3)
N8 N 0.2163(4) 0.5071(3) 0.3843(3)
Ni1 Ni 0.39343(6) 1.07783(5) 0.26585(4)
Ni2 Ni 0.15646(6) 0.41414(5) 0.25825(4)
O1 O 0.6110(3) 1.0924(2) 0.2934(2)
O2 O 0.4543(3) 0.9430(2) 0.2211(2)
O3 O 1.1265(4) 1.1445(3) 0.3097(3)
O4 O 1.1768(3) 1.0185(3) 0.2233(2)
O5 O 0.3173(3) 0.5229(3) 0.2315(2)
O6 O 0.3592(3) 0.3936(3) 0.2665(2)
O7 O 0.9957(3) 0.4720(2) 0.2373(2)
O8 O 0.8175(4) 0.3420(3) 0.2421(3)
O9 O 0.3954(3) 1.2265(2) 0.3228(2)
H37 H 0.4029 1.2601 0.2867
H38 H 0.3218 1.2235 0.3385
O10 O 0.0381(4) 0.2976(3) 0.2932(3)
H39 H 0.0463 0.2391 0.2746
H40 H -0.0448 0.3006 0.2905
N1_2 N 0.4148(4) 1.1052(3) 0.1512(3)
Ni1_2 Ni -0.60657(6) 0.07783(5) 0.26585(4)
Ni1_3 Ni 1.39343(6) 1.07783(5) 0.26585(4)
Ni2_2 Ni 1.15646(6) 0.41414(5) 0.25825(4)
O4_2 O 0.1768(3) 1.0185(3) 0.2233(2)
O7_2 O -0.0043(3) 0.4720(2) 0.2373(2)
O11 O 0.2071(7) 0.6939(4) 0.2757(3)
H41 H 0.2879 0.6924 0.2689
H42 H 0.1807 0.6330 0.2783
loop_
_geom_bond_atom_site_label_1
_geom_bond_atom_site_label_2
_geom_bond_site_symmetry_1
_geom_bond_site_symmetry_2
C1 C2 1_555 1_555
C2 H1 1_555 1_555
C3 C2 1_555 1_555
C4 C3 1_555 1_555
H2 C4 1_555 1_555
C5 C4 1_555 1_555
C6 C1 1_555 1_555
H3 C6 1_555 1_555
C7 C3 1_555 1_555
H4 C7 1_555 1_555
H5 C7 1_555 1_555
C8 C7 1_555 1_555
C9 C8 1_555 1_555
H6 C9 1_555 1_555
C10 C9 1_555 1_555
C11 C10 1_555 1_555
H7 C11 1_555 1_555
C12 C11 1_555 1_555
C13 C8 1_555 1_555
H8 C13 1_555 1_555
C14 C1 1_555 1_555
C15 C5 1_555 1_555
C16 C10 1_555 1_555
C17 C12 1_555 1_555
C18 H9 1_555 1_555
C19 C18 1_555 1_555
H10 C19 1_555 1_555
C20 H11 1_555 1_555
C21 H12 1_555 1_555
H13 C21 1_555 1_555
C22 C21 1_555 1_555
C23 C22 1_555 1_555
H14 C23 1_555 1_555
C24 C23 1_555 1_555
H15 C24 1_555 1_555
C25 C24 1_555 1_555
H16 C25 1_555 1_555
C26 C25 1_555 1_555
H17 C26 1_555 1_555
C27 C22 1_555 1_555
C28 C27 1_555 1_555
H18 C28 1_555 1_555
H19 C28 1_555 1_555
C29 H20 1_555 1_555
C30 C29 1_555 1_555
H21 C30 1_555 1_555
C31 H22 1_555 1_555
C32 H23 1_555 1_555
C33 C32 1_555 1_555
H24 C33 1_555 1_555
C34 H25 1_555 1_555
C35 H26 1_555 1_555
H27 C35 1_555 1_555
C36 C35 1_555 1_555
C37 C36 1_555 1_555
H28 C37 1_555 1_555
C38 C37 1_555 1_555
H29 C38 1_555 1_555
C39 C38 1_555 1_555
H30 C39 1_555 1_555
C40 C39 1_555 1_555
H31 C40 1_555 1_555
C41 C36 1_555 1_555
C42 C41 1_555 1_555
H32 C42 1_555 1_555
H33 C42 1_555 1_555
C43 H34 1_555 1_555
C44 C43 1_555 1_555
H35 C44 1_555 1_555
C45 H36 1_555 1_555
N1 C18 1_555 1_555
N2 C19 1_555 1_555
N3 C28 1_555 1_555
N4 C30 1_555 1_555
N5 C32 1_555 1_555
N6 C33 1_555 1_555
N7 C42 1_555 1_555
N8 C44 1_555 1_555
Ni1 N5 1_555 1_555
Ni2 N4 1_555 1_555
O1 C14 1_555 1_555
O2 C14 1_555 1_555
O3 C15 1_555 1_555
O4 C15 1_555 1_555
O5 C16 1_555 1_555
O6 C16 1_555 1_555
O7 C17 1_555 1_555
O8 C17 1_555 1_555
O9 Ni1 1_555 1_555
H37 O9 1_555 1_555
H38 O9 1_555 1_555
O10 Ni2 1_555 1_555
H39 O10 1_555 1_555
H40 O10 1_555 1_555
O11 H41 1_555 1_555
H42 O11 1_555 1_555
N1_2 Ni1 1_555 1_555
Ni1_2 N1 1_555 1_555
Ni1_3 O4 1_555 1_555
Ni2_2 O7 1_555 1_555
O4_2 Ni1 1_555 1_555
O7_2 Ni2 1_555 1_555
C5 C6 1_555 1_555
C12 C13 1_555 1_555
C20 N1 1_555 1_555
C20 N2 1_555 1_555
C21 N2 1_555 1_555
C26 C27 1_555 1_555
C29 N3 1_555 1_555
C31 N3 1_555 1_555
C31 N4 1_555 1_555
C34 N5 1_555 1_555
C34 N6 1_555 1_555
C35 N6 1_555 1_555
C40 C41 1_555 1_555
C43 N7 1_555 1_555
C45 N7 1_555 1_555
C45 N8 1_555 1_555
N8 Ni2 1_555 1_555
Ni1 O1 1_555 1_555
Ni1 O2 1_555 1_555
Ni2 O5 1_555 1_555
Ni2 O6 1_555 1_555

#END
