
#######################################################################
#
#                 Cambridge Crystallographic Data Centre
#                                CCDC 
#
#######################################################################
#
# If this CIF has been generated from an entry in the Cambridge 
# Structural Database, then it will include bibliographic, chemical, 
# crystal, experimental, refinement or atomic coordinate data resulting 
# from the CCDC's data processing and validation procedures.
#
#######################################################################

data_FIPXUY
_symmetry_cell_setting           monoclinic
_symmetry_space_group_name_H-M   'P 21/n'
_symmetry_Int_Tables_number      14
_space_group_name_Hall           '-P 2yn'
loop_
_symmetry_equiv_pos_site_id
_symmetry_equiv_pos_as_xyz
1 x,y,z
2 1/2-x,1/2+y,1/2-z
3 -x,-y,-z
4 1/2+x,1/2-y,1/2+z
_cell_length_a                   12.970(2)
_cell_length_b                   15.828(3)
_cell_length_c                   15.840(3)
_cell_angle_alpha                90
_cell_angle_beta                 112.883(3)
_cell_angle_gamma                90
_cell_volume                     2995.87
loop_
_atom_site_label
_atom_site_type_symbol
_atom_site_fract_x
_atom_site_fract_y
_atom_site_fract_z
Cd1 Cd 0.47819(3) 0.37772(2) 0.03859(3)
S1 S 0.27417(12) 0.39484(8) -0.09510(10)
S2 S 0.46612(12) 0.34630(9) 0.19808(9)
O1 O 0.0505(4) 0.3512(3) 0.0011(3)
O2 O 0.1626(4) 0.2536(3) 0.1573(3)
O3 O 0.6681(4) 0.3843(5) 0.0980(5)
O4 O 0.6865(4) 0.2972(4) 0.2014(4)
O5 O 0.8298(4) 0.3513(4) 0.1962(5)
O6 O 0.5813(5) 0.4346(3) -0.1717(4)
O7 O 0.5257(4) 0.3410(3) -0.0995(4)
O8 O 0.5300(3) 0.4704(2) -0.0630(3)
N1 N 0.4146(3) 0.2314(2) 0.0160(3)
N2 N 0.7304(5) 0.3471(4) 0.1664(4)
N3 N 0.5472(4) 0.4151(3) -0.1126(3)
C1 C -0.0051(5) 0.3952(3) -0.0785(4)
C2 C -0.1196(5) 0.3889(4) -0.1298(5)
H1 H -0.1648 0.3552 -0.1081
C3 C -0.1681(5) 0.4313(4) -0.2121(5)
H2 H -0.2464 0.4268 -0.2465
C4 C -0.1034(5) 0.4801(4) -0.2446(4)
H3 H -0.1368 0.5089 -0.3014
C5 C 0.0106(5) 0.4867(3) -0.1938(4)
H4 H 0.0550 0.5204 -0.2163
C6 C 0.0614(4) 0.4450(3) -0.1106(4)
C7 C 0.1833(4) 0.4568(3) -0.0543(4)
H5 H 0.1986 0.4407 0.0098
H6 H 0.2021 0.5174 -0.0546
C8 C 0.2284(4) 0.2868(3) -0.0916(4)
H7 H 0.2002 0.2813 -0.0420
H8 H 0.1662 0.2732 -0.1503
C9 C 0.3236(4) 0.2246(3) -0.0750(4)
H9 H 0.2929 0.1666 -0.0828
H10 H 0.3549 0.2337 -0.1222
C10 C 0.3765(4) 0.2033(3) 0.0891(3)
H11 H 0.3730 0.1408 0.0888
H12 H 0.2997 0.2248 0.0744
C11 C 0.4512(4) 0.2328(3) 0.1848(3)
H13 H 0.5264 0.2076 0.2011
H14 H 0.4204 0.2109 0.2287
C12 C 0.3253(5) 0.3774(3) 0.1843(4)
H15 H 0.3199 0.4398 0.1807
H16 H 0.2715 0.3545 0.1256
C13 C 0.2919(5) 0.3479(4) 0.2601(4)
C14 C 0.3439(6) 0.3798(5) 0.3470(4)
H17 H 0.4049 0.4179 0.3608
C15 C 0.3063(7) 0.3555(6) 0.4156(5)
H18 H 0.3422 0.3770 0.4760
C16 C 0.2203(7) 0.3026(6) 0.3959(6)
H19 H 0.1950 0.2872 0.4426
C17 C 0.1689(6) 0.2705(5) 0.3115(5)
H20 H 0.1071 0.2335 0.2989
C18 C 0.2052(5) 0.2909(4) 0.2423(4)
C19 C 0.0462(7) 0.2517(7) 0.1090(7)
H21 H 0.0275 0.2015 0.0687
H22 H 0.0109 0.2439 0.1538
C20 C -0.0022(6) 0.3218(6) 0.0558(6)
H23 H -0.0805 0.3076 0.0161
H24 H -0.0046 0.3681 0.0970
C21 C 0.5172(4) 0.1834(3) 0.0207(4)
H25 H 0.5410 0.2060 -0.0272
H26 H 0.5781 0.1952 0.0808
C22 C 0.5053(4) 0.0889(3) 0.0090(4)
C23 C 0.4735(5) 0.0507(3) -0.0762(4)
H27 H 0.4555 0.0849 -0.1294
C24 C 0.5325(5) 0.0359(3) 0.0849(4)
H28 H 0.5558 0.0603 0.1443
Cd1B Cd 0.52181(3) -0.37772(2) -0.03859(3)
Cd1B_2 Cd 0.52181(3) 0.62228(2) -0.03859(3)
S1B S 0.72583(12) -0.39484(8) 0.09510(10)
S2B S 0.53388(12) -0.34630(9) -0.19808(9)
O1B O 0.9495(4) -0.3512(3) -0.0011(3)
O2B O 0.8374(4) -0.2536(3) -0.1573(3)
O3B O 0.3319(4) -0.3843(5) -0.0980(5)
O4B O 0.3135(4) -0.2972(4) -0.2014(4)
O5B O 0.1702(4) -0.3513(4) -0.1962(5)
O6B O 0.4187(5) 0.5654(3) 0.1717(4)
O7B O 0.4743(4) 0.6590(3) 0.0995(4)
O7B_2 O 0.4743(4) -0.3410(3) 0.0995(4)
O8B O 0.4700(3) 0.5296(2) 0.0630(3)
O8_2 O 0.5300(3) -0.5296(2) -0.0630(3)
O8B_2 O 0.4700(3) -0.4704(2) 0.0630(3)
N1B N 0.5854(3) -0.2314(2) -0.0160(3)
N2B N 0.2696(5) -0.3471(4) -0.1664(4)
N3B N 0.4528(4) 0.5849(3) 0.1126(3)
C1B C 1.0051(5) -0.3952(3) 0.0785(4)
C2B C 1.1196(5) -0.3889(4) 0.1298(5)
H1B H 1.1648 -0.3552 0.1081
C3B C 1.1681(5) -0.4313(4) 0.2121(5)
H2B H 1.2464 -0.4268 0.2465
C4B C 1.1034(5) -0.4801(4) 0.2446(4)
H3B H 1.1368 -0.5089 0.3014
C5B C 0.9894(5) -0.4867(3) 0.1938(4)
H4B H 0.9450 -0.5204 0.2163
C6B C 0.9386(4) -0.4450(3) 0.1106(4)
C7B C 0.8167(4) -0.4568(3) 0.0543(4)
H5B H 0.8014 -0.4407 -0.0098
H6B H 0.7979 -0.5174 0.0546
C8B C 0.7716(4) -0.2868(3) 0.0916(4)
H7B H 0.7998 -0.2813 0.0420
H8B H 0.8338 -0.2732 0.1503
C9B C 0.6764(4) -0.2246(3) 0.0750(4)
H9B H 0.7071 -0.1666 0.0828
H10B H 0.6451 -0.2337 0.1222
C10B C 0.6235(4) -0.2033(3) -0.0891(3)
H11B H 0.6270 -0.1408 -0.0888
H12B H 0.7003 -0.2248 -0.0744
C11B C 0.5488(4) -0.2328(3) -0.1848(3)
H13B H 0.4736 -0.2076 -0.2011
H14B H 0.5796 -0.2109 -0.2287
C12B C 0.6747(5) -0.3774(3) -0.1843(4)
H15B H 0.6801 -0.4398 -0.1807
H16B H 0.7285 -0.3545 -0.1256
C13B C 0.7081(5) -0.3479(4) -0.2601(4)
C14B C 0.6561(6) -0.3798(5) -0.3470(4)
H17B H 0.5951 -0.4179 -0.3608
C15B C 0.6937(7) -0.3555(6) -0.4156(5)
H18B H 0.6578 -0.3770 -0.4760
C16B C 0.7797(7) -0.3026(6) -0.3959(6)
H19B H 0.8050 -0.2872 -0.4426
C17B C 0.8311(6) -0.2705(5) -0.3115(5)
H20B H 0.8929 -0.2335 -0.2989
C18B C 0.7948(5) -0.2909(4) -0.2423(4)
C19B C 0.9538(7) -0.2517(7) -0.1090(7)
H21B H 0.9725 -0.2015 -0.0687
H22B H 0.9891 -0.2439 -0.1538
C20B C 1.0022(6) -0.3218(6) -0.0558(6)
H23B H 1.0805 -0.3076 -0.0161
H24B H 1.0046 -0.3681 -0.0970
C21B C 0.4828(4) -0.1834(3) -0.0207(4)
H25B H 0.4590 -0.2060 0.0272
H26B H 0.4219 -0.1952 -0.0808
C22B C 0.4947(4) -0.0889(3) -0.0090(4)
C23B C 0.5265(5) -0.0507(3) 0.0762(4)
H27B H 0.5445 -0.0849 0.1294
C24B C 0.4675(5) -0.0359(3) -0.0849(4)
H28B H 0.4442 -0.0603 -0.1443
C25 C 0.8307(9) 0.0193(6) 0.1764(7)
H29 H 0.7663 -0.0041 0.1835
H30 H 0.8954 0.0042 0.2297
Cl1 Cl 0.8428(3) -0.0258(2) 0.0800(3)
Cl2 Cl 0.8187(2) 0.12672(17) 0.1715(2)
loop_
_geom_bond_atom_site_label_1
_geom_bond_atom_site_label_2
_geom_bond_site_symmetry_1
_geom_bond_site_symmetry_2
Cd1 S1 1_555 1_555
S1 C7 1_555 1_555
S2 Cd1 1_555 1_555
O1 C1 1_555 1_555
O2 C18 1_555 1_555
O3 Cd1 1_555 1_555
O4 N2 1_555 1_555
O5 N2 1_555 1_555
O6 N3 1_555 1_555
O7 Cd1 1_555 1_555
O8 Cd1 1_555 1_555
N1 Cd1 1_555 1_555
N2 O3 1_555 1_555
N3 O7 1_555 1_555
C1 C2 1_555 1_555
C2 H1 1_555 1_555
C3 C2 1_555 1_555
H2 C3 1_555 1_555
C4 C3 1_555 1_555
H3 C4 1_555 1_555
C5 C4 1_555 1_555
H4 C5 1_555 1_555
C6 C1 1_555 1_555
C7 C6 1_555 1_555
H5 C7 1_555 1_555
H6 C7 1_555 1_555
C8 S1 1_555 1_555
H7 C8 1_555 1_555
H8 C8 1_555 1_555
C9 N1 1_555 1_555
H9 C9 1_555 1_555
H10 C9 1_555 1_555
C10 N1 1_555 1_555
H11 C10 1_555 1_555
H12 C10 1_555 1_555
C11 S2 1_555 1_555
H13 C11 1_555 1_555
H14 C11 1_555 1_555
C12 S2 1_555 1_555
H15 C12 1_555 1_555
H16 C12 1_555 1_555
C13 C12 1_555 1_555
C14 C13 1_555 1_555
H17 C14 1_555 1_555
C15 C14 1_555 1_555
H18 C15 1_555 1_555
C16 C15 1_555 1_555
H19 C16 1_555 1_555
C17 C16 1_555 1_555
H20 C17 1_555 1_555
C18 C13 1_555 1_555
C19 O2 1_555 1_555
H21 C19 1_555 1_555
H22 C19 1_555 1_555
C20 O1 1_555 1_555
H23 C20 1_555 1_555
H24 C20 1_555 1_555
C21 N1 1_555 1_555
H25 C21 1_555 1_555
H26 C21 1_555 1_555
C22 C21 1_555 1_555
C23 C22 1_555 1_555
H27 C23 1_555 1_555
C24 C22 1_555 1_555
H28 C24 1_555 1_555
C25 H29 1_555 1_555
H30 C25 1_555 1_555
Cl1 C25 1_555 1_555
Cl2 C25 1_555 1_555
Cd1B S1B 1_555 1_555
Cd1B_2 O8 1_555 1_555
S1B C7B 1_555 1_555
S2B Cd1B 1_555 1_555
O1B C1B 1_555 1_555
O2B C18B 1_555 1_555
O3B Cd1B 1_555 1_555
O4B N2B 1_555 1_555
O5B N2B 1_555 1_555
O6B N3B 1_555 1_555
O7B Cd1B_2 1_555 1_555
O7B_2 Cd1B 1_555 1_555
O8B Cd1 1_555 1_555
O8_2 Cd1B 1_555 1_555
O8B_2 Cd1B 1_555 1_555
N1B Cd1B 1_555 1_555
N2B O3B 1_555 1_555
N3B O7B 1_555 1_555
C1B C2B 1_555 1_555
C2B H1B 1_555 1_555
C3B C2B 1_555 1_555
H2B C3B 1_555 1_555
C4B C3B 1_555 1_555
H3B C4B 1_555 1_555
C5B C4B 1_555 1_555
H4B C5B 1_555 1_555
C6B C1B 1_555 1_555
C7B C6B 1_555 1_555
H5B C7B 1_555 1_555
H6B C7B 1_555 1_555
C8B S1B 1_555 1_555
H7B C8B 1_555 1_555
H8B C8B 1_555 1_555
C9B N1B 1_555 1_555
H9B C9B 1_555 1_555
H10B C9B 1_555 1_555
C10B N1B 1_555 1_555
H11B C10B 1_555 1_555
H12B C10B 1_555 1_555
C11B S2B 1_555 1_555
H13B C11B 1_555 1_555
H14B C11B 1_555 1_555
C12B S2B 1_555 1_555
H15B C12B 1_555 1_555
H16B C12B 1_555 1_555
C13B C12B 1_555 1_555
C14B C13B 1_555 1_555
H17B C14B 1_555 1_555
C15B C14B 1_555 1_555
H18B C15B 1_555 1_555
C16B C15B 1_555 1_555
H19B C16B 1_555 1_555
C17B C16B 1_555 1_555
H20B C17B 1_555 1_555
C18B C13B 1_555 1_555
C19B O2B 1_555 1_555
H21B C19B 1_555 1_555
H22B C19B 1_555 1_555
C20B O1B 1_555 1_555
H23B C20B 1_555 1_555
H24B C20B 1_555 1_555
C21B N1B 1_555 1_555
H25B C21B 1_555 1_555
H26B C21B 1_555 1_555
C22B C21B 1_555 1_555
C23B C24 1_555 1_555
H27B C23B 1_555 1_555
C24B C23 1_555 1_555
H28B C24B 1_555 1_555
O8 N3 1_555 1_555
C5 C6 1_555 1_555
C8 C9 1_555 1_555
C10 C11 1_555 1_555
C17 C18 1_555 1_555
C19 C20 1_555 1_555
Cd1B_2 O8B 1_555 1_555
O8B N3B 1_555 1_555
C5B C6B 1_555 1_555
C8B C9B 1_555 1_555
C10B C11B 1_555 1_555
C17B C18B 1_555 1_555
C19B C20B 1_555 1_555
C22B C23B 1_555 1_555
C22B C24B 1_555 1_555

#END
