
#######################################################################
#
#                 Cambridge Crystallographic Data Centre
#                                CCDC 
#
#######################################################################
#
# If this CIF has been generated from an entry in the Cambridge 
# Structural Database, then it will include bibliographic, chemical, 
# crystal, experimental, refinement or atomic coordinate data resulting 
# from the CCDC's data processing and validation procedures.
#
#######################################################################

data_FIQSAA
_symmetry_cell_setting           monoclinic
_symmetry_space_group_name_H-M   'P 21'
_symmetry_Int_Tables_number      4
_space_group_name_Hall           'P 2yb'
loop_
_symmetry_equiv_pos_site_id
_symmetry_equiv_pos_as_xyz
1 x,y,z
2 -x,1/2+y,-z
_cell_length_a                   15.065(2)
_cell_length_b                   13.053(2)
_cell_length_c                   24.108(2)
_cell_angle_alpha                90
_cell_angle_beta                 93.30(1)
_cell_angle_gamma                90
_cell_volume                     4732.82
loop_
_atom_site_label
_atom_site_type_symbol
_atom_site_fract_x
_atom_site_fract_y
_atom_site_fract_z
Zn1 Zn 0.68384(4) 0.30388(4) 0.18828(2)
Zn2 Zn 0.36104(4) 0.19475(4) 0.26743(2)
Zn3 Zn 1.03326(4) 0.39548(4) 0.26708(2)
N1 N 0.7670(3) 0.1702(3) 0.16639(18)
N2 N 0.7741(3) 0.3724(3) 0.13868(16)
N3 N 0.5905(3) 0.2104(3) 0.14476(17)
N4 N 0.8294(3) 0.1471(4) 0.3097(2)
H1 H 0.8496 0.0839 0.3122
N5 N 0.4431(3) 0.2335(4) 0.34573(18)
N6 N 0.4630(3) 0.0883(4) 0.26397(19)
N7 N 0.2694(3) 0.1768(3) 0.32780(18)
N8 N 0.1105(3) 0.4956(3) 0.21012(17)
N9 N 0.4805(3) 0.4805(3) 0.28686(17)
H2 H 0.4997 0.5150 0.3165
N10 N 0.1374(3) 0.4478(4) 0.32050(18)
N11 N -0.0579(3) 0.5072(4) 0.24491(19)
N12 N 0.1484(3) 0.2733(3) 0.12973(17)
H3 H 0.1683 0.3025 0.1000
O1 O 0.9526(2) 0.2871(3) 0.29106(16)
O2 O 0.9475(3) 0.3601(4) 0.3736(2)
O3 O 0.7387(3) 0.2587(3) 0.26388(15)
O4 O 0.6089(2) 0.4011(3) 0.22664(14)
O5 O 0.5529(3) 0.4727(3) 0.14825(16)
O6 O 0.4068(2) 0.3420(3) 0.25278(14)
O7 O 0.2791(2) 0.2112(3) 0.20186(14)
O8 O 0.2602(5) 0.0470(4) 0.1831(3)
O9 O 0.0721(2) 0.2951(3) 0.20682(13)
C1 C 0.8557(3) 0.2126(4) 0.1561(2)
H4 H 0.8889 0.1638 0.1337
H5 H 0.8900 0.2235 0.1919
C2 C 0.8440(3) 0.3122(4) 0.12589(18)
C3 C 0.9027(3) 0.3447(4) 0.08694(19)
H6 H 0.9506 0.3018 0.0776
C4 C 0.8915(4) 0.4390(4) 0.0619(2)
H7 H 0.9306 0.4610 0.0347
C5 C 0.8226(4) 0.5014(4) 0.0769(2)
H8 H 0.8150 0.5680 0.0614
C6 C 0.7643(4) 0.4640(4) 0.1155(2)
H9 H 0.7161 0.5059 0.1253
C7 C 0.7209(4) 0.1223(4) 0.1165(2)
H10 H 0.7431 0.1539 0.0826
H11 H 0.7357 0.0484 0.1158
C8 C 0.6233(4) 0.1342(4) 0.1157(2)
C9 C 0.5679(4) 0.0704(5) 0.0830(3)
H12 H 0.5921 0.0145 0.0636
C10 C 0.4780(4) 0.0887(5) 0.0789(3)
H13 H 0.4393 0.0467 0.0563
C11 C 0.4452(4) 0.1692(4) 0.1083(2)
H14 H 0.3834 0.1844 0.1056
C12 C 0.5027(4) 0.2276(4) 0.1418(2)
H15 H 0.4794 0.2814 0.1632
C13 C 0.7694(4) 0.1037(4) 0.2163(2)
H16 H 0.8202 0.0556 0.2161
H17 H 0.7138 0.0635 0.2173
C14 C 0.7793(4) 0.1740(4) 0.2659(2)
C15 C 0.8527(4) 0.2195(6) 0.3549(3)
H18 H 0.7981 0.2594 0.3625
C16 C 0.8812(5) 0.1588(7) 0.4079(3)
H19 H 0.9241 0.1048 0.3988
H20 H 0.9106 0.2054 0.4356
C17 C 0.7994(5) 0.1100(8) 0.4320(3)
C18 C 0.7835(5) 0.0107(7) 0.4265(3)
H21 H 0.8244 -0.0318 0.4087
C19 C 0.7012(7) -0.0346(7) 0.4483(3)
C20 C 0.6886(8) -0.1374(9) 0.4434(4)
H22 H 0.7309 -0.1793 0.4263
C21 C 0.6123(9) -0.1800(11) 0.4640(4)
H23 H 0.5997 -0.2510 0.4599
C22 C 0.5536(8) -0.1133(13) 0.4916(4)
H24 H 0.5036 -0.1427 0.5078
C23 C 0.5653(7) -0.0106(10) 0.4958(4)
H25 H 0.5234 0.0312 0.5132
C24 C 0.6452(5) 0.0346(9) 0.4726(3)
C25 C 0.6615(6) 0.1339(8) 0.4774(3)
H26 H 0.6197 0.1758 0.4948
C26 C 0.7359(6) 0.1787(10) 0.4585(3)
H27 H 0.7464 0.2502 0.4621
C27 C 0.9235(4) 0.2946(5) 0.3389(2)
C28 C 0.5342(4) 0.1958(5) 0.3364(2)
H28 H 0.5674 0.2495 0.3173
H29 H 0.5661 0.1819 0.3727
C29 C 0.5315(4) 0.1009(5) 0.3023(2)
C30 C 0.5997(4) 0.0281(5) 0.3062(3)
H30 H 0.6459 0.0354 0.3345
C31 C 0.6018(5) -0.0532(5) 0.2706(3)
H31 H 0.6485 -0.1021 0.2733
C32 C 0.5321(5) -0.0609(5) 0.2300(3)
H32 H 0.5320 -0.1143 0.2033
C33 C 0.4632(5) 0.0092(4) 0.2289(2)
H33 H 0.4146 0.0008 0.2024
C34 C 0.4011(4) 0.1785(5) 0.3907(2)
H34 H 0.4180 0.2115 0.4268
H35 H 0.4225 0.1068 0.3923
C35 C 0.3012(4) 0.1799(4) 0.3810(2)
C36 C 0.2451(4) 0.1780(5) 0.4250(2)
H36 H 0.2686 0.1823 0.4623
C37 C 0.1551(4) 0.1699(5) 0.4132(3)
H37 H 0.1152 0.1675 0.4423
C38 C 0.1237(4) 0.1652(5) 0.3584(3)
H38 H 0.0618 0.1582 0.3495
C39 C 0.1802(4) 0.1705(4) 0.3175(2)
H39 H 0.1569 0.1698 0.2800
C40 C 0.4395(4) 0.3452(5) 0.3502(2)
H40 H 0.4906 0.3704 0.3739
H41 H 0.3841 0.3662 0.3672
C41 C 0.4422(3) 0.3896(4) 0.2930(2)
C42 C 0.4911(3) 0.5232(4) 0.2327(2)
H42 H 0.4319 0.5218 0.2116
C43 C 0.5216(4) 0.6348(4) 0.2377(3)
H43 H 0.5746 0.6389 0.2639
H44 H 0.5390 0.6593 0.2010
C44 C 0.4490(3) 0.7039(4) 0.2581(2)
C45 C 0.4535(4) 0.7390(4) 0.3114(2)
H45 H 0.5033 0.7219 0.3356
C46 C 0.3852(3) 0.8003(4) 0.3312(2)
C47 C 0.3860(5) 0.8357(5) 0.3869(3)
H46 H 0.4352 0.8201 0.4119
C48 C 0.3162(5) 0.8925(6) 0.4050(3)
H47 H 0.3189 0.9171 0.4422
C49 C 0.2433(6) 0.9142(6) 0.3709(4)
H48 H 0.1948 0.9509 0.3848
C50 C 0.2398(4) 0.8827(5) 0.3163(3)
H49 H 0.1899 0.9006 0.2924
C51 C 0.3100(4) 0.8237(4) 0.2948(2)
C52 C 0.3090(4) 0.7892(5) 0.2402(2)
H50 H 0.2600 0.8060 0.2153
C53 C 0.3772(4) 0.7315(4) 0.2218(2)
H51 H 0.3758 0.7100 0.1841
C54 C 0.5574(3) 0.4601(4) 0.1998(2)
C55 C 0.2022(4) 0.4949(5) 0.2341(2)
H52 H 0.2351 0.5544 0.2202
H53 H 0.2327 0.4316 0.2229
C56 C 0.2016(4) 0.4998(4) 0.2970(2)
C57 C 0.2672(4) 0.5534(5) 0.3286(2)
H54 H 0.3106 0.5927 0.3110
C58 C 0.2677(4) 0.5482(6) 0.3860(3)
H55 H 0.3116 0.5836 0.4084
C59 C 0.2039(5) 0.4913(7) 0.4099(3)
H56 H 0.2043 0.4842 0.4492
C60 C 0.1379(4) 0.4435(5) 0.3756(2)
H57 H 0.0921 0.4067 0.3923
C61 C 0.0688(5) 0.5982(4) 0.2105(3)
H58 H 0.0795 0.6343 0.1754
H59 H 0.0962 0.6391 0.2416
C62 C -0.0306(5) 0.5890(5) 0.2170(2)
C63 C -0.0917(5) 0.6654(5) 0.1995(3)
H60 H -0.0733 0.7214 0.1778
C64 C -0.1794(6) 0.6582(6) 0.2142(3)
H61 H -0.2205 0.7106 0.2032
C65 C -0.2067(5) 0.5778(5) 0.2438(3)
H62 H -0.2660 0.5738 0.2551
C66 C -0.1447(4) 0.5003(5) 0.2575(3)
H63 H -0.1640 0.4410 0.2762
C67 C 0.1055(4) 0.4444(4) 0.1563(2)
H64 H 0.1558 0.4660 0.1344
H65 H 0.0494 0.4629 0.1353
C68 C 0.1091(4) 0.3304(4) 0.1660(2)
C69 C 0.1602(4) 0.1620(4) 0.1373(2)
H66 H 0.1058 0.1352 0.1543
C70 C 0.1656(3) 0.1101(4) 0.0801(2)
H67 H 0.1832 0.0376 0.0853
H68 H 0.2114 0.1447 0.0590
C71 C 0.0749(4) 0.1159(4) 0.0471(2)
C72 C 0.0619(4) 0.1847(4) 0.0052(2)
H69 H 0.1088 0.2291 -0.0042
C73 C -0.0232(4) 0.1900(5) -0.0249(2)
C74 C -0.0409(5) 0.2615(5) -0.0666(3)
H70 H 0.0053 0.3054 -0.0776
C75 C -0.1255(6) 0.2699(7) -0.0925(4)
H71 H -0.1371 0.3207 -0.1202
C76 C -0.1925(6) 0.2048(8) -0.0783(4)
H72 H -0.2500 0.2114 -0.0963
C77 C -0.1770(5) 0.1304(7) -0.0385(3)
H73 H -0.2231 0.0840 -0.0304
C78 C -0.0923(4) 0.1226(5) -0.0094(3)
C79 C -0.0746(4) 0.0504(5) 0.0338(3)
H74 H -0.1193 0.0034 0.0435
C80 C 0.0069(4) 0.0489(4) 0.0614(2)
H75 H 0.0180 0.0015 0.0908
C81 C 0.2400(4) 0.1365(5) 0.1772(3)
Zn3_2 Zn 0.03326(4) 0.39548(4) 0.26708(2)
N8_2 N 1.1105(3) 0.4956(3) 0.21012(17)
N10_2 N 1.1374(3) 0.4478(4) 0.32050(18)
N11_2 N 0.9421(3) 0.5072(4) 0.24491(19)
O9_2 O 1.0721(2) 0.2951(3) 0.20682(13)
S1 S 0.72913(11) 0.82706(11) 0.08963(7)
O10 O 0.7252(3) 0.9031(3) 0.04569(16)
O11 O 0.8033(3) 0.7576(4) 0.0888(2)
O12 O 0.7108(4) 0.8674(3) 0.14445(19)
C82 C 0.6361(4) 0.7496(4) 0.0704(3)
F1 F 0.6253(4) 0.6738(3) 0.1096(2)
F2 F 0.5571(3) 0.8044(4) 0.0741(3)
F3 F 0.6382(5) 0.7056(5) 0.0233(2)
S2 S -0.0254(3) 0.9066(3) 0.28884(16)
O13 O -0.1204(6) 0.9259(9) 0.2879(4)
O14 O 0.0269(6) 0.9660(9) 0.3295(4)
O15 O 0.0062(6) 0.7975(6) 0.2856(4)
C83 C 0.0029(4) 0.9602(5) 0.2263(3)
F4 F 0.0896(4) 0.9417(6) 0.2070(4)
F5 F -0.0507(5) 0.9169(5) 0.1831(3)
F6 F -0.0110(5) 1.0596(5) 0.2209(4)
S4 S 0.6310(2) 0.5056(2) 0.42794(13)
O19 O 0.6437(6) 0.5617(7) 0.4781(3)
O20 O 0.5660(4) 0.5525(4) 0.3876(2)
O21 O 0.6256(6) 0.3925(5) 0.4340(3)
C85 C 0.7301(8) 0.5296(11) 0.3950(6)
F10 F 0.7246(8) 0.4555(9) 0.3534(5)
F11 F 0.7913(8) 0.4804(12) 0.4306(7)
F12 F 0.7375(17) 0.6239(10) 0.3853(11)
O23 O 0.2691(3) 0.3728(4) 0.06613(19)
C86 C 0.3370(8) 0.4137(10) 0.0959(5)
O25 O 0.4222(5) 0.9437(6) 0.9688(3)
C88 C 0.3884(8) 0.8455(10) 0.9834(5)
O26 O 0.0192(15) 0.918(2) 0.4849(10)
C89 C 0.011(3) 1.006(3) 0.5158(19)
S3? S -0.0731(6) 0.8825(5) 0.3045(2)
O16? O -0.1652(9) 0.8724(13) 0.2901(8)
O17? O -0.0493(11) 0.9824(10) 0.3293(8)
O18? O -0.013(2) 0.8553(17) 0.2580(11)
C84? C -0.0504(9) 0.7865(9) 0.3536(6)
F7? F 0.0383(8) 0.7832(13) 0.3714(8)
F8? F -0.0660(11) 0.6904(9) 0.3325(6)
F9? F -0.0950(10) 0.7948(11) 0.3984(5)
S5? S 0.6426(5) 0.5933(7) 0.4032(3)
O22? O 0.684(4) 0.677(2) 0.3590(16)
F13? F 0.7937(14) 0.575(2) 0.3591(12)
O24? O 0.3928(8) 0.5297(9) 0.1017(5)
C87? C 0.416(2) 0.601(2) 0.0553(12)
O27? O 0.9708(16) 0.722(2) 0.4682(10)
C90? C 0.992(6) 0.821(4) 0.456(4)
loop_
_geom_bond_atom_site_label_1
_geom_bond_atom_site_label_2
_geom_bond_site_symmetry_1
_geom_bond_site_symmetry_2
Zn1 N1 1_555 1_555
Zn2 N5 1_555 1_555
Zn3 O1 1_555 1_555
N1 C1 1_555 1_555
N2 Zn1 1_555 1_555
N3 Zn1 1_555 1_555
N4 H1 1_555 1_555
N5 C28 1_555 1_555
N6 Zn2 1_555 1_555
N7 Zn2 1_555 1_555
N8 C55 1_555 1_555
N9 H2 1_555 1_555
N10 C56 1_555 1_555
N11 C62 1_555 1_555
N12 H3 1_555 1_555
O1 C27 1_555 1_555
O2 C27 1_555 1_555
O3 Zn1 1_555 1_555
O4 Zn1 1_555 1_555
O5 C54 1_555 1_555
O6 Zn2 1_555 1_555
O7 Zn2 1_555 1_555
O8 C81 1_555 1_555
O9 C68 1_555 1_555
C1 H4 1_555 1_555
H5 C1 1_555 1_555
C2 N2 1_555 1_555
C3 C2 1_555 1_555
H6 C3 1_555 1_555
C4 C3 1_555 1_555
H7 C4 1_555 1_555
C5 C4 1_555 1_555
H8 C5 1_555 1_555
C6 N2 1_555 1_555
H9 C6 1_555 1_555
C7 N1 1_555 1_555
H10 C7 1_555 1_555
H11 C7 1_555 1_555
C8 N3 1_555 1_555
C9 C8 1_555 1_555
H12 C9 1_555 1_555
C10 C9 1_555 1_555
H13 C10 1_555 1_555
C11 C10 1_555 1_555
H14 C11 1_555 1_555
C12 N3 1_555 1_555
H15 C12 1_555 1_555
C13 N1 1_555 1_555
H16 C13 1_555 1_555
H17 C13 1_555 1_555
C14 N4 1_555 1_555
C15 N4 1_555 1_555
H18 C15 1_555 1_555
C16 C15 1_555 1_555
H19 C16 1_555 1_555
H20 C16 1_555 1_555
C17 C16 1_555 1_555
C18 C17 1_555 1_555
H21 C18 1_555 1_555
C19 C18 1_555 1_555
C20 C19 1_555 1_555
H22 C20 1_555 1_555
C21 C20 1_555 1_555
H23 C21 1_555 1_555
C22 C21 1_555 1_555
H24 C22 1_555 1_555
C23 C22 1_555 1_555
H25 C23 1_555 1_555
C24 C19 1_555 1_555
C25 C24 1_555 1_555
H26 C25 1_555 1_555
C26 C17 1_555 1_555
H27 C26 1_555 1_555
C27 C15 1_555 1_555
C28 H28 1_555 1_555
H29 C28 1_555 1_555
C29 N6 1_555 1_555
C30 C29 1_555 1_555
H30 C30 1_555 1_555
C31 C30 1_555 1_555
H31 C31 1_555 1_555
C32 C31 1_555 1_555
H32 C32 1_555 1_555
C33 N6 1_555 1_555
H33 C33 1_555 1_555
C34 N5 1_555 1_555
H34 C34 1_555 1_555
H35 C34 1_555 1_555
C35 N7 1_555 1_555
C36 C35 1_555 1_555
H36 C36 1_555 1_555
C37 C36 1_555 1_555
H37 C37 1_555 1_555
C38 C37 1_555 1_555
H38 C38 1_555 1_555
C39 N7 1_555 1_555
H39 C39 1_555 1_555
C40 N5 1_555 1_555
H40 C40 1_555 1_555
H41 C40 1_555 1_555
C41 N9 1_555 1_555
C42 N9 1_555 1_555
H42 C42 1_555 1_555
C43 C42 1_555 1_555
H43 C43 1_555 1_555
H44 C43 1_555 1_555
C44 C43 1_555 1_555
C45 C44 1_555 1_555
H45 C45 1_555 1_555
C46 C45 1_555 1_555
C47 C46 1_555 1_555
H46 C47 1_555 1_555
C48 C47 1_555 1_555
H47 C48 1_555 1_555
C49 C48 1_555 1_555
H48 C49 1_555 1_555
C50 C49 1_555 1_555
H49 C50 1_555 1_555
C51 C46 1_555 1_555
C52 C51 1_555 1_555
H50 C52 1_555 1_555
C53 C44 1_555 1_555
H51 C53 1_555 1_555
C54 O4 1_555 1_555
C55 H52 1_555 1_555
H53 C55 1_555 1_555
C56 C55 1_555 1_555
C57 C56 1_555 1_555
H54 C57 1_555 1_555
C58 C57 1_555 1_555
H55 C58 1_555 1_555
C59 C58 1_555 1_555
H56 C59 1_555 1_555
C60 N10 1_555 1_555
H57 C60 1_555 1_555
C61 N8 1_555 1_555
H58 C61 1_555 1_555
H59 C61 1_555 1_555
C62 C61 1_555 1_555
C63 C62 1_555 1_555
H60 C63 1_555 1_555
C64 C63 1_555 1_555
H61 C64 1_555 1_555
C65 C64 1_555 1_555
H62 C65 1_555 1_555
C66 N11 1_555 1_555
H63 C66 1_555 1_555
C67 N8 1_555 1_555
H64 C67 1_555 1_555
H65 C67 1_555 1_555
C68 N12 1_555 1_555
C69 N12 1_555 1_555
H66 C69 1_555 1_555
C70 C69 1_555 1_555
H67 C70 1_555 1_555
H68 C70 1_555 1_555
C71 C70 1_555 1_555
C72 C71 1_555 1_555
H69 C72 1_555 1_555
C73 C72 1_555 1_555
C74 C73 1_555 1_555
H70 C74 1_555 1_555
C75 C74 1_555 1_555
H71 C75 1_555 1_555
C76 C75 1_555 1_555
H72 C76 1_555 1_555
C77 C76 1_555 1_555
H73 C77 1_555 1_555
C78 C73 1_555 1_555
C79 C78 1_555 1_555
H74 C79 1_555 1_555
C80 C71 1_555 1_555
H75 C80 1_555 1_555
C81 O7 1_555 1_555
S1 O10 1_555 1_555
O11 S1 1_555 1_555
O12 S1 1_555 1_555
C82 S1 1_555 1_555
F1 C82 1_555 1_555
F2 C82 1_555 1_555
F3 C82 1_555 1_555
S2 O13 1_555 1_555
O14 S2 1_555 1_555
O15 S2 1_555 1_555
C83 S2 1_555 1_555
F4 C83 1_555 1_555
F5 C83 1_555 1_555
F6 C83 1_555 1_555
S4 O19 1_555 1_555
O20 S4 1_555 1_555
O21 S4 1_555 1_555
C85 S4 1_555 1_555
F10 C85 1_555 1_555
F11 C85 1_555 1_555
F12 C85 1_555 1_555
O23 C86 1_555 1_555
O25 C88 1_555 1_555
O26 C89 1_555 1_555
Zn3_2 N8 1_555 1_555
N8_2 Zn3 1_555 1_555
N10_2 Zn3 1_555 1_555
N11_2 Zn3 1_555 1_555
O9_2 Zn3 1_555 1_555
N10 Zn3_2 1_555 1_555
N11 Zn3_2 1_555 1_555
O3 C14 1_555 1_555
O6 C41 1_555 1_555
O9 Zn3_2 1_555 1_555
C1 C2 1_555 1_555
C5 C6 1_555 1_555
C7 C8 1_555 1_555
C11 C12 1_555 1_555
C13 C14 1_555 1_555
C23 C24 1_555 1_555
C25 C26 1_555 1_555
C28 C29 1_555 1_555
C32 C33 1_555 1_555
C34 C35 1_555 1_555
C38 C39 1_555 1_555
C40 C41 1_555 1_555
C42 C54 1_555 1_555
C50 C51 1_555 1_555
C52 C53 1_555 1_555
C59 C60 1_555 1_555
C65 C66 1_555 1_555
C67 C68 1_555 1_555
C69 C81 1_555 1_555
C77 C78 1_555 1_555
C79 C80 1_555 1_555

#END
