
#######################################################################
#
#                 Cambridge Crystallographic Data Centre
#                                CCDC 
#
#######################################################################
#
# If this CIF has been generated from an entry in the Cambridge 
# Structural Database, then it will include bibliographic, chemical, 
# crystal, experimental, refinement or atomic coordinate data resulting 
# from the CCDC's data processing and validation procedures.
#
#######################################################################

data_FIQYOV
_symmetry_cell_setting           monoclinic
_symmetry_space_group_name_H-M   'C 2/c'
_symmetry_Int_Tables_number      15
_space_group_name_Hall           '-C 2yn'
loop_
_symmetry_equiv_pos_site_id
_symmetry_equiv_pos_as_xyz
1 x,y,z
2 -x,y,1/2-z
3 1/2+x,1/2+y,z
4 1/2-x,1/2+y,1/2-z
5 -x,-y,-z
6 x,-y,1/2+z
7 1/2-x,1/2-y,-z
8 1/2+x,1/2-y,1/2+z
_cell_length_a                   14.215(2)
_cell_length_b                   16.579(3)
_cell_length_c                   14.711(3)
_cell_angle_alpha                90
_cell_angle_beta                 90.823(6)
_cell_angle_gamma                90
_cell_volume                     3466.59
loop_
_atom_site_label
_atom_site_type_symbol
_atom_site_fract_x
_atom_site_fract_y
_atom_site_fract_z
Zn1 Zn 0.28823(3) 0.16402(3) 0.50346(3)
S1 S 0.0000 0.26639(10) 0.7500
S2 S 0.0000 0.24893(10) 0.2500
O1 O 0.1309(3) 0.2737(2) 0.4036(2)
C1 C 0.0616(3) 0.1779(3) 0.3092(3)
O2 O 0.1846(3) 0.1468(2) 0.4100(3)
O3 O 0.1308(3) 0.2894(2) 0.5971(2)
N1 N 0.4018(3) -0.0670(2) 0.5220(4)
C2 C 0.3292(4) -0.2013(3) 0.4971(5)
C3 C 0.0626(4) 0.1952(3) 0.6929(3)
C4 C 0.1318(3) 0.2009(3) 0.3801(3)
O4 O 0.1852(3) 0.1638(2) 0.5982(3)
C5 C 0.4172(4) -0.1501(3) 0.4930(5)
H1 H 0.4656 -0.1741 0.5315
H2 H 0.4400 -0.1499 0.4311
C6 C 0.3577(3) -0.0076(3) 0.4784(4)
N2 N 0.3482(3) 0.0564(2) 0.5290(3)
C7 C 0.1322(3) 0.2182(3) 0.6241(3)
C8 C 0.0352(6) 0.1200(4) 0.7170(5)
H3 H 0.0604 0.0733 0.6924
C9 C 0.0363(5) 0.1023(3) 0.2831(5)
H4 H 0.0639 0.0557 0.3063
C10 C 0.1783(8) -0.2342(6) 0.5509(10)
H5 H 0.1277 -0.2185 0.5861
C11 C 0.3863(5) 0.0368(3) 0.6124(4)
H6 H 0.3886 0.0709 0.6626
C12 C 0.4198(5) -0.0390(3) 0.6107(5)
H7 H 0.4487 -0.0670 0.6582
C13 C 0.3265(6) -0.0146(4) 0.3817(5)
H8 H 0.3709 -0.0466 0.3489
H9 H 0.3228 0.0382 0.3550
H10 H 0.2657 -0.0397 0.3786
C14 C 0.2597(8) -0.1867(7) 0.5522(10)
H11 H 0.2645 -0.1440 0.5929
O3A O -0.1308(3) 0.2894(2) 0.9029(2)
C3A C -0.0626(4) 0.1952(3) 0.8071(3)
O4A O -0.1852(3) 0.1638(2) 0.9018(3)
C7A C -0.1322(3) 0.2182(3) 0.8759(3)
C8A C -0.0352(6) 0.1200(4) 0.7830(5)
H3A H -0.0604 0.0733 0.8076
O1A O -0.1309(3) 0.2737(2) 0.0964(2)
C1A C -0.0616(3) 0.1779(3) 0.1908(3)
O2A O -0.1846(3) 0.1468(2) 0.0900(3)
C4A C -0.1318(3) 0.2009(3) 0.1199(3)
C9A C -0.0363(5) 0.1023(3) 0.2169(5)
H4A H -0.0639 0.0557 0.1937
N1F N 0.0982(3) -0.4330(2) 0.4780(4)
C2F C 0.1708(4) -0.2987(3) 0.5029(5)
C5F C 0.0828(4) -0.3499(3) 0.5070(5)
H1F H 0.0344 -0.3259 0.4685
H2F H 0.0600 -0.3501 0.5689
C6F C 0.1423(3) -0.4924(3) 0.5216(4)
N2F N 0.1518(3) -0.5564(2) 0.4710(3)
C10F C 0.3217(8) -0.2658(6) 0.4491(10)
H5F H 0.3723 -0.2815 0.4139
C11F C 0.1137(5) -0.5368(3) 0.3876(4)
H6F H 0.1114 -0.5709 0.3374
C12F C 0.0802(5) -0.4610(3) 0.3893(5)
H7F H 0.0513 -0.4330 0.3418
C13F C 0.1735(6) -0.4854(4) 0.6183(5)
H8F H 0.1291 -0.4534 0.6511
H9F H 0.1772 -0.5382 0.6450
H10F H 0.2343 -0.4603 0.6214
C14F C 0.2403(8) -0.3133(7) 0.4478(10)
H11F H 0.2355 -0.3560 0.4071
Zn1A Zn -0.28823(3) 0.16402(3) -0.00346(3)
Zn1A_2 Zn -0.28823(3) 0.16402(3) 0.99654(3)
Zn1F Zn 0.21177(3) -0.66402(3) 0.49654(3)
Zn1F_2 Zn 0.21177(3) 0.33598(3) 0.49654(3)
Zn1G Zn -0.21177(3) 0.33598(3) 0.00346(3)
Zn1G_2 Zn -0.21177(3) 0.33598(3) 1.00346(3)
O1F O 0.3691(3) 0.2263(2) 0.5964(2)
O1G O -0.3691(3) 0.2263(2) -0.0964(2)
O3F O 0.3692(3) 0.2106(2) 0.4029(2)
O3G O -0.3692(3) 0.2106(2) 0.0971(2)
O4A_2 O -0.1852(3) 0.1638(2) -0.0982(3)
N2A N -0.3482(3) 0.0564(2) -0.0290(3)
loop_
_geom_bond_atom_site_label_1
_geom_bond_atom_site_label_2
_geom_bond_site_symmetry_1
_geom_bond_site_symmetry_2
Zn1 O2 1_555 1_555
S1 C3 1_555 1_555
S2 C1 1_555 1_555
O1 C4 1_555 1_555
C1 C4 1_555 1_555
O2 C4 1_555 1_555
O3 C7 1_555 1_555
N1 C5 1_555 1_555
C2 C5 1_555 1_555
C3 C7 1_555 1_555
O4 Zn1 1_555 1_555
C5 H1 1_555 1_555
H2 C5 1_555 1_555
C6 N1 1_555 1_555
N2 Zn1 1_555 1_555
C7 O4 1_555 1_555
C8 C3 1_555 1_555
H3 C8 1_555 1_555
C9 C1 1_555 1_555
H4 C9 1_555 1_555
C10 H5 1_555 1_555
C11 N2 1_555 1_555
H6 C11 1_555 1_555
C12 N1 1_555 1_555
H7 C12 1_555 1_555
C13 C6 1_555 1_555
H8 C13 1_555 1_555
H9 C13 1_555 1_555
H10 C13 1_555 1_555
C14 C2 1_555 1_555
H11 C14 1_555 1_555
O3A C7A 1_555 1_555
C3A S1 1_555 1_555
O4A C7A 1_555 1_555
C7A C3A 1_555 1_555
C8A C8 1_555 1_555
H3A C8A 1_555 1_555
O1A C4A 1_555 1_555
C1A S2 1_555 1_555
O2A C4A 1_555 1_555
C4A C1A 1_555 1_555
C9A C9 1_555 1_555
H4A C9A 1_555 1_555
N1F C5F 1_555 1_555
C2F C10 1_555 1_555
C5F C2F 1_555 1_555
H1F C5F 1_555 1_555
H2F C5F 1_555 1_555
C6F N1F 1_555 1_555
N2F C6F 1_555 1_555
C10F C2 1_555 1_555
H5F C10F 1_555 1_555
C11F N2F 1_555 1_555
H6F C11F 1_555 1_555
C12F N1F 1_555 1_555
H7F C12F 1_555 1_555
C13F C6F 1_555 1_555
H8F C13F 1_555 1_555
H9F C13F 1_555 1_555
H10F C13F 1_555 1_555
C14F C2F 1_555 1_555
H11F C14F 1_555 1_555
Zn1A O2A 1_555 1_555
Zn1A_2 O4A 1_555 1_555
Zn1F N2F 1_555 1_555
Zn1F_2 O1 1_555 1_555
Zn1G O1A 1_555 1_555
Zn1G_2 O3A 1_555 1_555
O1F Zn1 1_555 1_555
O1G Zn1A 1_555 1_555
O3F Zn1 1_555 1_555
O3G Zn1A 1_555 1_555
O4A_2 Zn1A 1_555 1_555
N2A Zn1A 1_555 1_555
O3 Zn1F_2 1_555 1_555
C6 N2 1_555 1_555
C10 C14 1_555 1_555
C11 C12 1_555 1_555
C3A C8A 1_555 1_555
C1A C9A 1_555 1_555
C10F C14F 1_555 1_555
C11F C12F 1_555 1_555

#END
