
#######################################################################
#
#                 Cambridge Crystallographic Data Centre
#                                CCDC 
#
#######################################################################
#
# If this CIF has been generated from an entry in the Cambridge 
# Structural Database, then it will include bibliographic, chemical, 
# crystal, experimental, refinement or atomic coordinate data resulting 
# from the CCDC's data processing and validation procedures.
#
#######################################################################

data_FIQYIP
_symmetry_cell_setting           orthorhombic
_symmetry_space_group_name_H-M   'P n m a'
_symmetry_Int_Tables_number      62
_space_group_name_Hall           '-P 2ac 2n'
loop_
_symmetry_equiv_pos_site_id
_symmetry_equiv_pos_as_xyz
1 x,y,z
2 1/2-x,-y,1/2+z
3 1/2+x,1/2-y,1/2-z
4 -x,1/2+y,-z
5 -x,-y,-z
6 1/2+x,y,1/2-z
7 1/2-x,1/2+y,1/2+z
8 x,1/2-y,z
_cell_length_a                   15.855(1)
_cell_length_b                   14.161(2)
_cell_length_c                   7.694(2)
_cell_angle_alpha                90
_cell_angle_beta                 90
_cell_angle_gamma                90
_cell_volume                     1727.48
loop_
_atom_site_label
_atom_site_type_symbol
_atom_site_fract_x
_atom_site_fract_y
_atom_site_fract_z
C1 C 0.69532(18) 0.2500 0.7079(4)
C2 C 0.59964(17) 0.2500 0.7298(3)
C3 C 0.48866(18) 0.2500 0.9258(4)
H1 H 0.4698 0.2500 1.0402
C4 C 0.42994(18) 0.2500 0.7935(4)
H2 H 0.3725 0.2500 0.8184
C5 C 0.45762(19) 0.2500 0.6244(4)
H3 H 0.4189 0.2500 0.5336
C6 C 0.54404(18) 0.2500 0.5892(3)
C7 C 0.57549(19) 0.2500 0.4044(4)
C8 C 0.81315(15) 0.38329(18) 1.2925(4)
H4 H 0.8081 0.3484 1.3944
C9 C 0.79374(18) 0.4366(2) 1.0341(4)
H5 H 0.7717 0.4440 0.9229
C10 C 0.8565(2) 0.4880(2) 1.1014(4)
H6 H 0.8855 0.5369 1.0472
C11 C 0.93523(17) 0.47955(17) 1.3863(3)
C12 C 1.01428(17) 0.50366(19) 1.3231(4)
H7 H 1.0238 0.5058 1.2039
C13 C 1.07862(18) 0.5244(2) 1.4365(4)
H8 H 1.1315 0.5412 1.3940
N1 N 0.57151(14) 0.2500 0.8952(3)
N2 N 0.76631(13) 0.37060(17) 1.1542(3)
N3 N 0.86998(13) 0.45384(14) 1.2681(3)
O1 O 0.73697(16) 0.2500 0.8419(4)
O2 O 0.72444(15) 0.2500 0.5610(3)
O3 O 0.58709(13) 0.17276(13) 0.3318(2)
Cd1 Cd 0.672379(13) 0.2500 1.11167(3)
O3G O 0.58709(13) 0.32724(13) 0.3318(2)
C8D C 1.18685(15) 0.61671(18) 1.7075(4)
H4D H 1.1919 0.6516 1.6056
C9D C 1.20626(18) 0.5634(2) 1.9659(4)
H5D H 1.2283 0.5560 2.0771
C10D C 1.1435(2) 0.5120(2) 1.8986(4)
H6D H 1.1145 0.4631 1.9528
C11D C 1.06477(17) 0.52045(17) 1.6137(3)
C12D C 0.98572(17) 0.49634(19) 1.6769(4)
H7D H 0.9762 0.4942 1.7961
C13D C 0.92138(18) 0.4756(2) 1.5635(4)
H8D H 0.8685 0.4588 1.6060
N2D N 1.23369(13) 0.62940(17) 1.8458(3)
N3D N 1.13002(13) 0.54616(14) 1.7319(3)
N2G N 0.76631(13) 0.12940(17) 1.1542(3)
O3_2 O 0.58709(13) 0.17276(13) 1.3318(2)
O3G_2 O 0.58709(13) 0.32724(13) 1.3318(2)
Cd1_2 Cd 0.672379(13) 0.2500 0.11167(3)
Cd1C Cd 1.327621(13) 0.7500 1.88833(3)
loop_
_geom_bond_atom_site_label_1
_geom_bond_atom_site_label_2
_geom_bond_site_symmetry_1
_geom_bond_site_symmetry_2
C1 C2 1_555 1_555
C2 C6 1_555 1_555
C3 H1 1_555 1_555
C4 C3 1_555 1_555
H2 C4 1_555 1_555
C5 C4 1_555 1_555
H3 C5 1_555 1_555
C6 C5 1_555 1_555
C7 C6 1_555 1_555
C8 H4 1_555 1_555
C9 H5 1_555 1_555
C10 C9 1_555 1_555
H6 C10 1_555 1_555
C11 C12 1_555 1_555
C12 H7 1_555 1_555
C13 C12 1_555 1_555
H8 C13 1_555 1_555
N1 C2 1_555 1_555
N2 C8 1_555 1_555
N3 C8 1_555 1_555
O1 C1 1_555 1_555
O2 C1 1_555 1_555
O3 C7 1_555 1_555
Cd1 N1 1_555 1_555
O3G C7 1_555 1_555
C8D H4D 1_555 1_555
C9D H5D 1_555 1_555
C10D C9D 1_555 1_555
H6D C10D 1_555 1_555
C11D C13 1_555 1_555
C12D C11D 1_555 1_555
H7D C12D 1_555 1_555
C13D C11 1_555 1_555
H8D C13D 1_555 1_555
N2D C8D 1_555 1_555
N3D C8D 1_555 1_555
N2G Cd1 1_555 1_555
O3_2 Cd1 1_555 1_555
O3G_2 Cd1 1_555 1_555
Cd1_2 O3 1_555 1_555
Cd1C N2D 1_555 1_555
C3 N1 1_555 1_555
C9 N2 1_555 1_555
C10 N3 1_555 1_555
C11 N3 1_555 1_555
N2 Cd1 1_555 1_555
O1 Cd1 1_555 1_555
O3G Cd1_2 1_555 1_555
C9D N2D 1_555 1_555
C10D N3D 1_555 1_555
C11D N3D 1_555 1_555
C12D C13D 1_555 1_555

#END
