
#######################################################################
#
#                 Cambridge Crystallographic Data Centre
#                                CCDC 
#
#######################################################################
#
# If this CIF has been generated from an entry in the Cambridge 
# Structural Database, then it will include bibliographic, chemical, 
# crystal, experimental, refinement or atomic coordinate data resulting 
# from the CCDC's data processing and validation procedures.
#
#######################################################################

data_FIQZIP
_symmetry_cell_setting           monoclinic
_symmetry_space_group_name_H-M   'C 2/c'
_symmetry_Int_Tables_number      15
_space_group_name_Hall           '-C 2yn'
loop_
_symmetry_equiv_pos_site_id
_symmetry_equiv_pos_as_xyz
1 x,y,z
2 1/2+x,1/2+y,z
3 -x,y,1/2-z
4 1/2-x,1/2+y,1/2-z
5 -x,-y,-z
6 1/2-x,1/2-y,-z
7 x,-y,1/2+z
8 1/2+x,1/2-y,1/2+z
_cell_length_a                   19.919(3)
_cell_length_b                   7.7119(11)
_cell_length_c                   13.807(2)
_cell_angle_alpha                90
_cell_angle_beta                 121.605(2)
_cell_angle_gamma                90
_cell_volume                     1806.36
loop_
_atom_site_label
_atom_site_type_symbol
_atom_site_fract_x
_atom_site_fract_y
_atom_site_fract_z
Tb1 Tb 0.268792(18) 0.21670(4) 0.22996(2)
O1 O 0.1705(3) 0.2646(5) 0.0269(4)
O2 O 0.1874(2) 0.4820(5) 0.1369(3)
O3 O 0.1956(3) 0.7561(5) -0.1761(4)
O4 O 0.1805(3) 0.4757(5) -0.1580(4)
O5 O 0.3238(2) 0.4817(5) 0.3406(3)
O6 O 0.4067(3) 0.2707(5) 0.3807(4)
O7 O 0.3337(3) 0.3890(5) 0.1524(4)
H1 H 0.3093 0.4842 0.1259
H2 H 0.3324 0.3331 0.0984
C1 C 0.1525(4) 0.4150(8) 0.0371(5)
C2 C 0.0903(4) 0.5168(8) -0.0633(5)
H3 H 0.0506 0.5548 -0.0473
H4 H 0.0647 0.4410 -0.1290
C3 C 0.1224(4) 0.6749(8) -0.0924(5)
H5 H 0.1558 0.7402 -0.0233
H6 H 0.0787 0.7489 -0.1438
C4 C 0.1696(3) 0.6297(8) -0.1471(5)
C5 C 0.3947(4) 0.4231(8) 0.3935(5)
C6 C 0.4605(4) 0.5433(8) 0.4687(6)
H7 H 0.4498 0.5942 0.5236
H8 H 0.4620 0.6366 0.4228
Tb1C Tb 0.231208(18) -0.28330(4) 0.27004(2)
Tb1C_2 Tb 0.231208(18) 0.71670(4) 0.27004(2)
Tb1F Tb 0.268792(18) 0.78330(4) -0.27004(2)
Tb1E Tb 0.231208(18) 0.28330(4) -0.22996(2)
Tb1G Tb 0.768792(18) 0.28330(4) 0.72996(2)
Tb1D Tb 0.731208(18) 0.78330(4) 0.77004(2)
Tb1E_2 Tb 0.231208(18) 0.28330(4) 0.77004(2)
Tb1F_2 Tb 0.268792(18) -0.21670(4) 0.72996(2)
O1C O 0.3295(3) -0.2354(5) 0.4731(4)
O2C O 0.3126(2) -0.0180(5) 0.3631(3)
O2_2 O 0.1874(2) -0.5180(5) 0.1369(3)
O3C O 0.3044(3) 0.2561(5) 0.6761(4)
O3F O 0.1956(3) 0.2439(5) 0.3239(4)
O3E O 0.3044(3) -0.2561(5) 0.1761(4)
O4C O 0.3195(3) -0.0243(5) 0.6580(4)
O4E O 0.3195(3) 0.0243(5) 0.1580(4)
O4F O 0.1805(3) -0.4757(5) 0.3420(4)
O5D O 0.6762(2) 0.5183(5) 0.6594(3)
O5C O 0.1762(2) -0.0183(5) 0.1594(3)
O5_2 O 0.3238(2) -0.5183(5) 0.3406(3)
O6D O 0.5933(3) 0.7293(5) 0.6193(4)
O6C O 0.0933(3) -0.2293(5) 0.1193(4)
O7C O 0.1663(3) -0.1110(5) 0.3476(4)
H1C H 0.1907 -0.0158 0.3741
H2C H 0.1676 -0.1669 0.4016
C1C C 0.3475(4) -0.0850(8) 0.4629(5)
C2C C 0.4097(4) 0.0168(8) 0.5633(5)
H3C H 0.4494 0.0548 0.5473
H4C H 0.4353 -0.0590 0.6290
C3C C 0.3776(4) 0.1749(8) 0.5924(5)
H5C H 0.3442 0.2402 0.5233
H6C H 0.4213 0.2489 0.6438
C4C C 0.3304(3) 0.1297(8) 0.6471(5)
C5D C 0.6053(4) 0.5769(8) 0.6065(5)
C6D C 0.5395(4) 0.4567(8) 0.5313(6)
H7D H 0.5502 0.4058 0.4764
H8D H 0.5380 0.3634 0.5772
O8 O 0.5000 0.476(2) 0.2500
H9 H 0.4632 0.4024 0.2282
H9B H 0.5368 0.4024 0.2718
loop_
_geom_bond_atom_site_label_1
_geom_bond_atom_site_label_2
_geom_bond_site_symmetry_1
_geom_bond_site_symmetry_2
Tb1 O1 1_555 1_555
O1 C1 1_555 1_555
O2 Tb1 1_555 1_555
O3 C4 1_555 1_555
O4 C4 1_555 1_555
O5 Tb1 1_555 1_555
O6 Tb1 1_555 1_555
O7 Tb1 1_555 1_555
H1 O7 1_555 1_555
H2 O7 1_555 1_555
C1 O2 1_555 1_555
C2 C1 1_555 1_555
H3 C2 1_555 1_555
H4 C2 1_555 1_555
C3 C2 1_555 1_555
H5 C3 1_555 1_555
H6 C3 1_555 1_555
C4 C3 1_555 1_555
C5 O5 1_555 1_555
C6 C5 1_555 1_555
H7 C6 1_555 1_555
H8 C6 1_555 1_555
O8 H9 1_555 1_555
Tb1C O1C 1_555 1_555
Tb1C_2 O2 1_555 1_555
Tb1F O3 1_555 1_555
Tb1E O4 1_555 1_555
Tb1G O5D 1_555 1_555
Tb1D O5D 1_555 1_555
Tb1E_2 O3C 1_555 1_555
Tb1F_2 O4C 1_555 1_555
O1C C1C 1_555 1_555
O2C Tb1 1_555 1_555
O2_2 Tb1C 1_555 1_555
O3C C4C 1_555 1_555
O3F Tb1 1_555 1_555
O3E Tb1C 1_555 1_555
O4C C4C 1_555 1_555
O4E Tb1 1_555 1_555
O4F Tb1C 1_555 1_555
O5D C5D 1_555 1_555
O5C Tb1 1_555 1_555
O5_2 Tb1C 1_555 1_555
O6D Tb1D 1_555 1_555
O6C Tb1C 1_555 1_555
O7C Tb1C 1_555 1_555
H1C O7C 1_555 1_555
H2C O7C 1_555 1_555
C1C O2C 1_555 1_555
C2C C1C 1_555 1_555
H3C C2C 1_555 1_555
H4C C2C 1_555 1_555
C3C C2C 1_555 1_555
H5C C3C 1_555 1_555
H6C C3C 1_555 1_555
C4C C3C 1_555 1_555
C5D O6D 1_555 1_555
C6D C6 1_555 1_555
H7D C6D 1_555 1_555
H8D C6D 1_555 1_555
H9B O8 1_555 1_555
O5 Tb1C_2 1_555 1_555
O6 C5 1_555 1_555
Tb1C O2C 1_555 1_555
Tb1C O5C 1_555 1_555
C5D C6D 1_555 1_555

#END
