
#######################################################################
#
#                 Cambridge Crystallographic Data Centre
#                                CCDC 
#
#######################################################################
#
# If this CIF has been generated from an entry in the Cambridge 
# Structural Database, then it will include bibliographic, chemical, 
# crystal, experimental, refinement or atomic coordinate data resulting 
# from the CCDC's data processing and validation procedures.
#
#######################################################################

data_FIQZOV01
_symmetry_cell_setting           triclinic
_symmetry_space_group_name_H-M   'P -1'
_symmetry_Int_Tables_number      2
_space_group_name_Hall           '-P 1'
loop_
_symmetry_equiv_pos_site_id
_symmetry_equiv_pos_as_xyz
1 x,y,z
2 -x,-y,-z
_cell_length_a                   7.7256(3)
_cell_length_b                   8.0773(2)
_cell_length_c                   14.1690(4)
_cell_angle_alpha                96.908(2)
_cell_angle_beta                 97.003(2)
_cell_angle_gamma                103.243(2)
_cell_volume                     844.13
loop_
_atom_site_label
_atom_site_type_symbol
_atom_site_fract_x
_atom_site_fract_y
_atom_site_fract_z
Gd1 Gd 0.59009(7) 0.48804(7) 0.70392(4)
Gd2 Gd 0.12876(7) 0.56856(7) 0.79005(4)
C1 C 0.4114(14) 0.7312(14) 0.6216(8)
C2 C 0.3224(14) 0.8536(15) 0.5737(8)
H1 H 0.3952 0.9010 0.5276
H2 H 0.3192 0.9482 0.6220
C3 C 0.1277(13) 0.7700(13) 0.5209(8)
H3 H 0.0590 0.7092 0.5646
H4 H 0.0714 0.8604 0.5041
C4 C 0.1188(15) 0.6467(14) 0.4311(8)
C5 C 0.7473(15) 0.2196(15) 0.7645(9)
C6 C 0.8204(19) 0.0687(16) 0.7938(9)
H5 H 0.7226 -0.0210 0.8064
H6 H 0.9074 0.1076 0.8522
C7 C 0.9105(17) -0.0036(15) 0.7122(10)
H7 H 0.8229 -0.0438 0.6541
H8 H 1.0070 0.0866 0.6989
C8 C 0.9842(16) -0.1491(15) 0.7411(9)
C9 C 0.3034(17) 0.3218(16) 0.8616(8)
C10 C 0.4042(16) 0.2021(16) 0.9041(8)
H9 H 0.5310 0.2604 0.9191
H10 H 0.3917 0.1023 0.8560
C11 C 0.3402(14) 0.1399(16) 0.9963(7)
H11 H 0.2125 0.1323 0.9932
H12 H 0.3588 0.0259 1.0000
C12 C 0.4428(14) 0.2628(13) 1.0862(8)
O1 O 0.3434(11) 0.6537(10) 0.6862(6)
O2 O 0.5590(10) 0.7051(11) 0.5996(6)
O3 O 0.2555(10) 0.5894(12) 0.4207(6)
O4 O -0.0309(10) 0.6042(10) 0.3729(5)
O5 O 0.5999(11) 0.1843(11) 0.7096(7)
O6 O 0.8313(11) 0.3746(10) 0.7945(6)
O7 O 1.1409(11) -0.1269(11) 0.7782(7)
O8 O 0.8805(10) -0.3050(10) 0.7272(6)
O9 O 0.1845(12) 0.3707(12) 0.9031(6)
O10 O 0.3381(11) 0.3729(10) 0.7840(5)
O11 O 0.3526(10) 0.3410(11) 1.1378(6)
O12 O 0.6093(10) 0.2780(11) 1.1035(6)
O13 O 0.3480(10) 0.3197(11) 0.5806(6)
O14 O 0.0035(13) 0.6686(14) 0.9308(7)
Gd1A Gd 0.40991(7) 0.51196(7) 0.29608(4)
Gd1_2 Gd 0.59009(7) -0.51196(7) 0.70392(4)
Gd1A_2 Gd 0.40991(7) 0.51196(7) 1.29608(4)
Gd2A Gd -0.12876(7) 0.43144(7) 0.20995(4)
Gd2_2 Gd 1.12876(7) 0.56856(7) 0.79005(4)
Gd2_3 Gd 1.12876(7) -0.43144(7) 0.79005(4)
Gd2A_2 Gd 0.87124(7) 0.43144(7) 1.20995(4)
O3A O 0.7445(10) 0.4106(12) 0.5793(6)
O4A O 0.0309(10) 0.3958(10) 0.6271(5)
O6_2 O -0.1687(11) 0.3746(10) 0.7945(6)
O7_2 O 0.1409(11) 0.8731(11) 0.7782(7)
O8_2 O 0.8805(10) 0.6950(10) 0.7272(6)
O8_3 O -0.1195(10) 0.6950(10) 0.7272(6)
O11A O 0.6474(10) 0.6590(11) 0.8622(6)
O12A O 0.3907(10) 0.7220(11) 0.8965(6)
loop_
_geom_bond_atom_site_label_1
_geom_bond_atom_site_label_2
_geom_bond_site_symmetry_1
_geom_bond_site_symmetry_2
Gd1 O1 1_555 1_555
Gd2 O1 1_555 1_555
C1 C2 1_555 1_555
C2 H1 1_555 1_555
H2 C2 1_555 1_555
C3 C2 1_555 1_555
H3 C3 1_555 1_555
H4 C3 1_555 1_555
C4 C3 1_555 1_555
C5 C6 1_555 1_555
C6 H5 1_555 1_555
H6 C6 1_555 1_555
C7 C6 1_555 1_555
H7 C7 1_555 1_555
H8 C7 1_555 1_555
C8 C7 1_555 1_555
C9 C10 1_555 1_555
C10 H9 1_555 1_555
H10 C10 1_555 1_555
C11 C10 1_555 1_555
H11 C11 1_555 1_555
H12 C11 1_555 1_555
C12 C11 1_555 1_555
O1 C1 1_555 1_555
O2 Gd1 1_555 1_555
O3 C4 1_555 1_555
O4 C4 1_555 1_555
O5 Gd1 1_555 1_555
O6 Gd1 1_555 1_555
O7 C8 1_555 1_555
O8 C8 1_555 1_555
O9 Gd2 1_555 1_555
O10 Gd1 1_555 1_555
O11 C12 1_555 1_555
O12 C12 1_555 1_555
O13 Gd1 1_555 1_555
O14 Gd2 1_555 1_555
Gd1A O3 1_555 1_555
Gd1_2 O8 1_555 1_555
Gd1A_2 O11 1_555 1_555
Gd2A O4 1_555 1_555
Gd2_2 O6 1_555 1_555
Gd2_3 O7 1_555 1_555
Gd2A_2 O12 1_555 1_555
O3A Gd1 1_555 1_555
O4A Gd2 1_555 1_555
O6_2 Gd2 1_555 1_555
O7_2 Gd2 1_555 1_555
O8_2 Gd1 1_555 1_555
O8_3 Gd2 1_555 1_555
O11A Gd1 1_555 1_555
O12A Gd2 1_555 1_555
Gd2 O10 1_555 1_555
C1 O2 1_555 1_555
C5 O5 1_555 1_555
C5 O6 1_555 1_555
C9 O9 1_555 1_555
C9 O10 1_555 1_555
O8 Gd2_3 1_555 1_555
Gd2_2 O8_2 1_555 1_555

#END
