
#######################################################################
#
#                 Cambridge Crystallographic Data Centre
#                                CCDC 
#
#######################################################################
#
# If this CIF has been generated from an entry in the Cambridge 
# Structural Database, then it will include bibliographic, chemical, 
# crystal, experimental, refinement or atomic coordinate data resulting 
# from the CCDC's data processing and validation procedures.
#
#######################################################################

data_FIRFOD
_symmetry_cell_setting           monoclinic
_symmetry_space_group_name_H-M   'P 21/c'
_symmetry_Int_Tables_number      14
_space_group_name_Hall           '-P 2ybc'
loop_
_symmetry_equiv_pos_site_id
_symmetry_equiv_pos_as_xyz
1 x,y,z
2 -x,1/2+y,1/2-z
3 -x,-y,-z
4 x,1/2-y,1/2+z
_cell_length_a                   17.7932(15)
_cell_length_b                   9.2394(8)
_cell_length_c                   28.503(3)
_cell_angle_alpha                90
_cell_angle_beta                 105.464(9)
_cell_angle_gamma                90
_cell_volume                     4516.21
loop_
_atom_site_label
_atom_site_type_symbol
_atom_site_fract_x
_atom_site_fract_y
_atom_site_fract_z
Co1 Co 0.249093(17) 0.25911(3) 0.247118(11)
S1 S 0.00010(5) 0.49366(11) 0.21607(3)
S2 S 0.50346(5) 0.15514(11) 0.25173(3)
O1 O -0.03139(16) -0.9463(2) 0.06456(9)
O2 O -0.04485(13) -0.7705(2) 0.11534(8)
O3 O 0.10069(10) -0.66373(19) -0.04550(6)
O4 O 0.11597(10) -0.35250(18) 0.08982(6)
O5 O 0.54607(14) 1.4452(2) 0.45035(8)
O6 O 0.54170(12) 1.3098(2) 0.38508(7)
O7 O 0.38428(10) 0.86929(18) 0.39794(6)
O8 O 0.39528(11) 1.14213(19) 0.54140(6)
N1 N 0.20146(12) 0.0580(2) 0.20904(7)
N2 N 0.21216(12) -0.6963(2) -0.18931(7)
N3 N 0.29778(12) 0.4582(2) 0.28569(7)
N4 N 0.28490(11) 1.1710(2) 0.68365(7)
N5 N 0.14232(12) 0.3604(2) 0.22057(7)
N6 N 0.35783(13) 0.1570(2) 0.27204(8)
C1 C -0.01880(16) -0.8246(3) 0.07911(10)
C2 C 0.02613(14) -0.7131(3) 0.05991(9)
C3 C 0.04455(15) -0.7386(3) 0.01631(9)
H1 H 0.0305 -0.8252 -0.0004
C4 C 0.08447(14) -0.6324(3) -0.00209(9)
C5 C 0.10652(14) -0.5036(3) 0.02291(9)
H2 H 0.1328 -0.4330 0.0103
C6 C 0.08891(14) -0.4814(3) 0.06716(9)
C7 C 0.04778(14) -0.5837(3) 0.08579(9)
H3 H 0.0348 -0.5671 0.1148
C8 C -0.0894(2) -0.8642(4) 0.13843(13)
H4 H -0.1037 -0.8123 0.1639
H5 H -0.0584 -0.9468 0.1520
H6 H -0.1356 -0.8958 0.1147
C9 C 0.14424(15) -0.5572(3) -0.06310(9)
H7 H 0.1912 -0.5340 -0.0379
H8 H 0.1135 -0.4696 -0.0711
C10 C 0.16580(14) -0.6106(3) -0.10712(9)
C11 C 0.14615(16) -0.7458(3) -0.12768(9)
H9 H 0.1173 -0.8102 -0.1144
C12 C 0.17027(16) -0.7833(3) -0.16843(9)
H10 H 0.1566 -0.8742 -0.1821
C13 C 0.23080(15) -0.5652(3) -0.16924(9)
H11 H 0.2596 -0.5027 -0.1833
C14 C 0.20904(15) -0.5193(3) -0.12877(9)
H12 H 0.2232 -0.4277 -0.1160
C15 C 0.09215(17) -0.3219(3) 0.13277(10)
H13 H 0.1054 -0.4029 0.1551
H14 H 0.0360 -0.3093 0.1243
C16 C 0.13113(15) -0.1872(3) 0.15725(9)
C17 C 0.09353(16) -0.1051(3) 0.18485(10)
H15 H 0.0441 -0.1315 0.1870
C18 C 0.12957(15) 0.0160(3) 0.20920(10)
H16 H 0.1025 0.0712 0.2266
C19 C 0.23882(15) -0.0239(3) 0.18345(9)
H17 H 0.2894 0.0017 0.1835
C20 C 0.20584(15) -0.1447(3) 0.15689(9)
H18 H 0.2335 -0.1967 0.1390
C21 C 0.52477(15) 1.3371(3) 0.42704(10)
C22 C 0.47652(14) 1.2200(3) 0.44043(9)
C23 C 0.45716(15) 1.2324(3) 0.48428(9)
H19 H 0.4734 1.3120 0.5044
C24 C 0.41275(14) 1.1228(3) 0.49756(9)
C25 C 0.38904(14) 1.0033(3) 0.46785(9)
H20 H 0.3593 0.9310 0.4768
C26 C 0.41038(14) 0.9931(3) 0.42427(9)
C27 C 0.45325(14) 1.1005(3) 0.40959(9)
H21 H 0.4663 1.0938 0.3802
C28 C 0.5870(2) 1.4175(4) 0.36748(13)
H22 H 0.5948 1.3861 0.3370
H23 H 0.6366 1.4295 0.3908
H24 H 0.5595 1.5080 0.3630
C29 C 0.41153(15) 0.8435(3) 0.35563(9)
H25 H 0.4676 0.8296 0.3648
H26 H 0.3991 0.9251 0.3335
C30 C 0.37085(14) 0.7088(3) 0.33169(9)
C31 C 0.38532(16) 0.5743(3) 0.35405(10)
H27 H 0.4193 0.5659 0.3850
C32 C 0.34904(16) 0.4534(3) 0.33004(9)
H28 H 0.3605 0.3639 0.3452
C33 C 0.28234(15) 0.5881(3) 0.26525(9)
H29 H 0.2458 0.5942 0.2351
C34 C 0.31753(16) 0.7148(3) 0.28625(10)
H30 H 0.3056 0.8027 0.2701
C35 C 0.34913(16) 1.0317(3) 0.55548(9)
H31 H 0.3784 0.9420 0.5620
H32 H 0.3022 1.0146 0.5295
C36 C 0.32831(15) 1.0821(3) 0.60049(9)
C37 C 0.37377(15) 1.0497(3) 0.64690(9)
H33 H 0.4192 0.9959 0.6510
C38 C 0.35126(14) 1.0977(3) 0.68679(9)
H34 H 0.3837 1.0784 0.7176
C39 C 0.24009(15) 1.1998(3) 0.63884(9)
H35 H 0.1932 1.2483 0.6357
C40 C 0.26055(15) 1.1606(3) 0.59710(9)
H36 H 0.2289 1.1867 0.5667
C41 C 0.08301(15) 0.4147(3) 0.21906(9)
C42 C 0.41879(16) 0.1542(3) 0.26403(9)
Co1C Co 0.249093(17) -0.75911(3) -0.252882(11)
Co1C_2 Co 0.249093(17) 1.24089(3) 0.747118(11)
N2C N 0.21216(12) 0.1963(2) 0.31069(7)
N4C N 0.28490(11) 0.3290(2) 0.18365(7)
O9 O -0.23880(15) -0.7119(2) 0.01883(11)
N7 N -0.25303(17) -0.9539(3) 0.01015(11)
C43 C -0.2280(5) -0.8343(8) 0.0044(3)
C44 C -0.3105(4) -0.9469(9) 0.0496(3)
C45 C -0.2696(4) -1.0938(5) 0.0047(3)
C46? C -0.2687(4) -0.8322(6) 0.0239(2)
C47? C -0.1923(4) -0.9516(8) -0.0255(2)
loop_
_geom_bond_atom_site_label_1
_geom_bond_atom_site_label_2
_geom_bond_site_symmetry_1
_geom_bond_site_symmetry_2
Co1 N1 1_555 1_555
S1 C41 1_555 1_555
S2 C42 1_555 1_555
O1 C1 1_555 1_555
O2 C1 1_555 1_555
O3 C4 1_555 1_555
O4 C6 1_555 1_555
O5 C21 1_555 1_555
O6 C21 1_555 1_555
O7 C26 1_555 1_555
O8 C24 1_555 1_555
N1 C18 1_555 1_555
N2 C12 1_555 1_555
N3 Co1 1_555 1_555
N4 C38 1_555 1_555
N5 Co1 1_555 1_555
N6 Co1 1_555 1_555
C1 C2 1_555 1_555
C2 C3 1_555 1_555
C3 H1 1_555 1_555
C4 C3 1_555 1_555
C5 C4 1_555 1_555
H2 C5 1_555 1_555
C6 C5 1_555 1_555
C7 C2 1_555 1_555
H3 C7 1_555 1_555
C8 O2 1_555 1_555
H4 C8 1_555 1_555
H5 C8 1_555 1_555
H6 C8 1_555 1_555
C9 O3 1_555 1_555
H7 C9 1_555 1_555
H8 C9 1_555 1_555
C10 C9 1_555 1_555
C11 C10 1_555 1_555
H9 C11 1_555 1_555
C12 C11 1_555 1_555
H10 C12 1_555 1_555
C13 N2 1_555 1_555
H11 C13 1_555 1_555
C14 C10 1_555 1_555
H12 C14 1_555 1_555
C15 O4 1_555 1_555
H13 C15 1_555 1_555
H14 C15 1_555 1_555
C16 C15 1_555 1_555
C17 C16 1_555 1_555
H15 C17 1_555 1_555
C18 C17 1_555 1_555
H16 C18 1_555 1_555
C19 N1 1_555 1_555
H17 C19 1_555 1_555
C20 C16 1_555 1_555
H18 C20 1_555 1_555
C21 C22 1_555 1_555
C22 C23 1_555 1_555
C23 H19 1_555 1_555
C24 C23 1_555 1_555
C25 C24 1_555 1_555
H20 C25 1_555 1_555
C26 C25 1_555 1_555
C27 C22 1_555 1_555
H21 C27 1_555 1_555
C28 O6 1_555 1_555
H22 C28 1_555 1_555
H23 C28 1_555 1_555
H24 C28 1_555 1_555
C29 O7 1_555 1_555
H25 C29 1_555 1_555
H26 C29 1_555 1_555
C30 C29 1_555 1_555
C31 C30 1_555 1_555
H27 C31 1_555 1_555
C32 N3 1_555 1_555
H28 C32 1_555 1_555
C33 N3 1_555 1_555
H29 C33 1_555 1_555
C34 C30 1_555 1_555
H30 C34 1_555 1_555
C35 O8 1_555 1_555
H31 C35 1_555 1_555
H32 C35 1_555 1_555
C36 C35 1_555 1_555
C37 C36 1_555 1_555
H33 C37 1_555 1_555
C38 C37 1_555 1_555
H34 C38 1_555 1_555
C39 N4 1_555 1_555
H35 C39 1_555 1_555
C40 C36 1_555 1_555
H36 C40 1_555 1_555
C41 N5 1_555 1_555
C42 N6 1_555 1_555
O9 C43 1_555 1_555
N7 C43 1_555 1_555
C44 N7 1_555 1_555
C45 N7 1_555 1_555
Co1C N2 1_555 1_555
Co1C_2 N4 1_555 1_555
N2C Co1 1_555 1_555
N4C Co1 1_555 1_555
C6 C7 1_555 1_555
C13 C14 1_555 1_555
C19 C20 1_555 1_555
C26 C27 1_555 1_555
C31 C32 1_555 1_555
C33 C34 1_555 1_555
C39 C40 1_555 1_555

#END
