
#######################################################################
#
#                 Cambridge Crystallographic Data Centre
#                                CCDC 
#
#######################################################################
#
# If this CIF has been generated from an entry in the Cambridge 
# Structural Database, then it will include bibliographic, chemical, 
# crystal, experimental, refinement or atomic coordinate data resulting 
# from the CCDC's data processing and validation procedures.
#
#######################################################################

data_FIRFUJ
_symmetry_cell_setting           orthorhombic
_symmetry_space_group_name_H-M   'P n n a'
_symmetry_Int_Tables_number      52
_space_group_name_Hall           '-P 2a 2bc'
loop_
_symmetry_equiv_pos_site_id
_symmetry_equiv_pos_as_xyz
1 x,y,z
2 1/2-x,-y,z
3 x,1/2-y,1/2-z
4 1/2-x,1/2+y,1/2-z
5 -x,-y,-z
6 1/2+x,y,-z
7 -x,1/2+y,1/2+z
8 1/2+x,1/2-y,1/2+z
_cell_length_a                   21.723(5)
_cell_length_b                   26.226(3)
_cell_length_c                   9.301(3)
_cell_angle_alpha                90
_cell_angle_beta                 90
_cell_angle_gamma                90
_cell_volume                     5298.85
loop_
_atom_site_label
_atom_site_type_symbol
_atom_site_fract_x
_atom_site_fract_y
_atom_site_fract_z
Ni1 Ni 0.7500 0.0000 1.24487(4)
Ni2 Ni 0.475892(17) -0.2500 0.2500
O1 O 0.78091(7) 0.07052(6) 1.29234(17)
N1 N 0.62445(9) -0.00264(7) 0.9127(2)
O2 O 0.70721(8) 0.04227(7) 1.43294(19)
O3 O 0.54798(7) -0.22685(6) 0.11488(16)
H1 H 0.5643 -0.2530 0.0767
H2 H 0.5338 -0.2075 0.0495
C1 C 0.59740(10) -0.02388(9) 0.6670(2)
H3 H 0.6262 0.0002 0.6377
O4 O 0.59231(7) 0.22388(6) 0.88045(16)
C2 C 0.52357(10) -0.08715(9) 0.6144(2)
N2 N 0.47124(8) -0.18086(7) 0.3623(2)
N3 N 0.49006(9) -0.11847(7) 0.51394(19)
C3 C 0.64061(11) 0.18642(9) 1.2328(2)
H4 H 0.6024 0.1846 1.2777
O5 O 0.85905(8) 0.17732(9) 1.2729(2)
O6 O 0.53584(8) 0.19461(8) 1.0624(2)
N4 N 0.68529(9) 0.01502(7) 1.0941(2)
C4 C 0.80340(10) 0.15355(8) 1.4794(2)
C5 C 0.64419(10) 0.19701(8) 1.0875(2)
C6 C 0.56474(10) -0.05094(9) 0.5640(2)
C7 C 0.80860(10) 0.16978(9) 1.3259(2)
C8 C 0.54553(11) -0.06735(10) 0.8623(3)
C9 C 0.75025(10) 0.07255(9) 1.4086(3)
C10 C 0.58806(10) -0.03194(9) 0.8122(2)
C11 C 0.77155(10) 0.10971(9) 1.5193(2)
C12 C 0.51375(12) -0.09516(10) 0.7589(2)
H5 H 0.4854 -0.1196 0.7879
C13 C 0.75092(10) 0.18005(9) 1.2445(2)
C14 C 0.69374(10) 0.17861(9) 1.3112(2)
H6 H 0.6912 0.1723 1.4094
C15 C 0.76524(12) 0.09794(10) 1.6641(3)
H7 H 0.7432 0.0692 1.6919
C16 C 0.42974(11) -0.11364(9) 0.4724(3)
H8 H 0.4018 -0.0890 0.5027
C17 C 0.75420(11) 0.19145(9) 1.0995(2)
H9 H 0.7923 0.1933 1.0544
C18 C 0.79152(14) 0.12873(12) 1.7663(3)
H10 H 0.7870 0.1207 1.8631
C19 C 0.41916(11) -0.15178(9) 0.3789(3)
H11 H 0.3820 -0.1576 0.3323
C20 C 0.66922(12) 0.05914(9) 1.0268(3)
H12 H 0.6822 0.0915 1.0540
C21 C 0.63171(12) 0.04904(9) 0.9150(3)
H13 H 0.6143 0.0725 0.8521
C22 C 0.70107(11) 0.20010(9) 1.0213(2)
H14 H 0.7036 0.2080 0.9240
C23 C 0.51261(11) -0.15964(9) 0.4452(3)
H15 H 0.5527 -0.1715 0.4553
C24 C 0.65771(11) -0.02120(9) 1.0226(3)
H16 H 0.6607 -0.0557 1.0450
C25 C 0.82428(14) 0.17104(12) 1.7277(3)
H17 H 0.8426 0.1912 1.7979
C26 C 0.58586(11) 0.20575(8) 1.0032(2)
C27 C 0.83012(11) 0.18373(10) 1.5844(3)
H18 H 0.8521 0.2127 1.5582
C28 C 0.57430(12) -0.04114(11) 0.4057(3)
H19 H 0.6026 -0.0134 0.3935
H20 H 0.5356 -0.0326 0.3619
H21 H 0.5907 -0.0712 0.3611
C29 C 0.53225(15) -0.07629(13) 1.0195(3)
H22 H 0.5644 -0.0968 1.0606
H23 H 0.4935 -0.0936 1.0294
H24 H 0.5304 -0.0441 1.0687
O1A O 0.71909(7) -0.07052(6) 1.29234(17)
N1A N 0.87555(9) 0.00264(7) 0.9127(2)
O2A O 0.79279(8) -0.04227(7) 1.43294(19)
C1A C 0.90260(10) 0.02388(9) 0.6670(2)
H3A H 0.8738 -0.0002 0.6377
O4A O 0.90769(7) -0.22388(6) 0.88045(16)
C2A C 0.97643(10) 0.08715(9) 0.6144(2)
N2A N 1.02876(8) 0.18086(7) 0.3623(2)
N3A N 1.00994(9) 0.11847(7) 0.51394(19)
C3A C 0.85939(11) -0.18642(9) 1.2328(2)
H4A H 0.8976 -0.1846 1.2777
O5A O 0.64095(8) -0.17732(9) 1.2729(2)
O6A O 0.96416(8) -0.19461(8) 1.0624(2)
N4A N 0.81471(9) -0.01502(7) 1.0941(2)
C4A C 0.69660(10) -0.15355(8) 1.4794(2)
C5A C 0.85581(10) -0.19701(8) 1.0875(2)
C6A C 0.93526(10) 0.05094(9) 0.5640(2)
C7A C 0.69140(10) -0.16978(9) 1.3259(2)
C8A C 0.95447(11) 0.06735(10) 0.8623(3)
C9A C 0.74975(10) -0.07255(9) 1.4086(3)
C10A C 0.91194(10) 0.03194(9) 0.8122(2)
C11A C 0.72845(10) -0.10971(9) 1.5193(2)
C12A C 0.98625(12) 0.09516(10) 0.7589(2)
H5A H 1.0146 0.1196 0.7879
C13A C 0.74908(10) -0.18005(9) 1.2445(2)
C14A C 0.80626(10) -0.17861(9) 1.3112(2)
H6A H 0.8088 -0.1723 1.4094
C15A C 0.73476(12) -0.09794(10) 1.6641(3)
H7A H 0.7568 -0.0692 1.6919
C16A C 1.07026(11) 0.11364(9) 0.4724(3)
H8A H 1.0982 0.0890 0.5027
C17A C 0.74580(11) -0.19145(9) 1.0995(2)
H9A H 0.7077 -0.1933 1.0544
C18A C 0.70848(14) -0.12873(12) 1.7663(3)
H10A H 0.7130 -0.1207 1.8631
C19A C 1.08084(11) 0.15178(9) 0.3789(3)
H11A H 1.1180 0.1576 0.3323
C20A C 0.83078(12) -0.05914(9) 1.0268(3)
H12A H 0.8178 -0.0915 1.0540
C21A C 0.86829(12) -0.04904(9) 0.9150(3)
H13A H 0.8857 -0.0725 0.8521
C22A C 0.79893(11) -0.20010(9) 1.0213(2)
H14A H 0.7964 -0.2080 0.9240
C23A C 0.98739(11) 0.15964(9) 0.4452(3)
H15A H 0.9473 0.1715 0.4553
C24A C 0.84229(11) 0.02120(9) 1.0226(3)
H16A H 0.8393 0.0557 1.0450
C25A C 0.67572(14) -0.17104(12) 1.7277(3)
H17A H 0.6574 -0.1912 1.7979
C26A C 0.91414(11) -0.20575(8) 1.0032(2)
C27A C 0.66988(11) -0.18373(10) 1.5844(3)
H18A H 0.6479 -0.2127 1.5582
C28A C 0.92570(12) 0.04114(11) 0.4057(3)
H19A H 0.8974 0.0134 0.3935
H20A H 0.9644 0.0326 0.3619
H21A H 0.9093 0.0712 0.3611
C29A C 0.96775(15) 0.07629(13) 1.0195(3)
H22A H 0.9356 0.0968 1.0606
H23A H 1.0065 0.0936 1.0294
H24A H 0.9696 0.0441 1.0687
O3B O 0.54798(7) -0.27315(6) 0.38512(16)
H1B H 0.5643 -0.2470 0.4233
H2B H 0.5338 -0.2925 0.4505
Ni2A Ni 1.024108(17) 0.2500 0.2500
Ni2D Ni 0.524108(17) 0.2500 0.7500
Ni2E Ni 0.975892(17) -0.2500 0.7500
O4D O 0.40769(7) -0.22388(6) 0.11955(16)
O4F O 0.40769(7) -0.27612(6) 0.38045(16)
N2B N 0.47124(8) -0.31914(7) 0.1377(2)
O7 O 0.54837(19) 0.7500 0.7500
H25 H 0.5306 0.7606 0.8257
H25B H 0.5306 0.7394 0.6743
H26? H 0.5228 0.7287 0.7158
loop_
_geom_bond_atom_site_label_1
_geom_bond_atom_site_label_2
_geom_bond_site_symmetry_1
_geom_bond_site_symmetry_2
Ni1 O1 1_555 1_555
Ni2 O3 1_555 1_555
O1 C9 1_555 1_555
N1 C10 1_555 1_555
O2 Ni1 1_555 1_555
O3 H1 1_555 1_555
H2 O3 1_555 1_555
C1 H3 1_555 1_555
O4 C26 1_555 1_555
C2 N3 1_555 1_555
N2 Ni2 1_555 1_555
N3 C16 1_555 1_555
C3 H4 1_555 1_555
O5 C7 1_555 1_555
O6 C26 1_555 1_555
N4 Ni1 1_555 1_555
C4 C7 1_555 1_555
C5 C3 1_555 1_555
C6 C1 1_555 1_555
C7 C13 1_555 1_555
C8 C10 1_555 1_555
C9 O2 1_555 1_555
C10 C1 1_555 1_555
C11 C4 1_555 1_555
C12 C2 1_555 1_555
H5 C12 1_555 1_555
C13 C14 1_555 1_555
C14 C3 1_555 1_555
H6 C14 1_555 1_555
C15 C11 1_555 1_555
H7 C15 1_555 1_555
C16 H8 1_555 1_555
C17 C13 1_555 1_555
H9 C17 1_555 1_555
C18 C15 1_555 1_555
H10 C18 1_555 1_555
C19 N2 1_555 1_555
H11 C19 1_555 1_555
C20 N4 1_555 1_555
H12 C20 1_555 1_555
C21 N1 1_555 1_555
H13 C21 1_555 1_555
C22 C5 1_555 1_555
H14 C22 1_555 1_555
C23 N2 1_555 1_555
H15 C23 1_555 1_555
C24 N1 1_555 1_555
H16 C24 1_555 1_555
C25 C18 1_555 1_555
H17 C25 1_555 1_555
C26 C5 1_555 1_555
C27 C4 1_555 1_555
H18 C27 1_555 1_555
C28 C6 1_555 1_555
H19 C28 1_555 1_555
H20 C28 1_555 1_555
H21 C28 1_555 1_555
C29 C8 1_555 1_555
H22 C29 1_555 1_555
H23 C29 1_555 1_555
H24 C29 1_555 1_555
O7 H25 1_555 1_555
O1A Ni1 1_555 1_555
N1A C10A 1_555 1_555
O2A Ni1 1_555 1_555
C1A H3A 1_555 1_555
O4A C26A 1_555 1_555
C2A N3A 1_555 1_555
N2A C19A 1_555 1_555
N3A C16A 1_555 1_555
C3A H4A 1_555 1_555
O5A C7A 1_555 1_555
O6A C26A 1_555 1_555
N4A Ni1 1_555 1_555
C4A C7A 1_555 1_555
C5A C3A 1_555 1_555
C6A C1A 1_555 1_555
C7A C13A 1_555 1_555
C8A C10A 1_555 1_555
C9A O1A 1_555 1_555
C10A C1A 1_555 1_555
C11A C4A 1_555 1_555
C12A C2A 1_555 1_555
H5A C12A 1_555 1_555
C13A C14A 1_555 1_555
C14A C3A 1_555 1_555
H6A C14A 1_555 1_555
C15A C11A 1_555 1_555
H7A C15A 1_555 1_555
C16A H8A 1_555 1_555
C17A C13A 1_555 1_555
H9A C17A 1_555 1_555
C18A C15A 1_555 1_555
H10A C18A 1_555 1_555
C19A C16A 1_555 1_555
H11A C19A 1_555 1_555
C20A N4A 1_555 1_555
H12A C20A 1_555 1_555
C21A N1A 1_555 1_555
H13A C21A 1_555 1_555
C22A C5A 1_555 1_555
H14A C22A 1_555 1_555
C23A N2A 1_555 1_555
H15A C23A 1_555 1_555
C24A N1A 1_555 1_555
H16A C24A 1_555 1_555
C25A C18A 1_555 1_555
H17A C25A 1_555 1_555
C26A C5A 1_555 1_555
C27A C4A 1_555 1_555
H18A C27A 1_555 1_555
C28A C6A 1_555 1_555
H19A C28A 1_555 1_555
H20A C28A 1_555 1_555
H21A C28A 1_555 1_555
C29A C8A 1_555 1_555
H22A C29A 1_555 1_555
H23A C29A 1_555 1_555
H24A C29A 1_555 1_555
O3B Ni2 1_555 1_555
H1B O3B 1_555 1_555
H2B O3B 1_555 1_555
Ni2A N2A 1_555 1_555
Ni2D O4 1_555 1_555
Ni2E O4A 1_555 1_555
O4D Ni2 1_555 1_555
O4F Ni2 1_555 1_555
N2B Ni2 1_555 1_555
H25B O7 1_555 1_555
C2 C6 1_555 1_555
N3 C23 1_555 1_555
N4 C24 1_555 1_555
C8 C12 1_555 1_555
C9 C11 1_555 1_555
C16 C19 1_555 1_555
C17 C22 1_555 1_555
C20 C21 1_555 1_555
C25 C27 1_555 1_555
O2A C9A 1_555 1_555
C2A C6A 1_555 1_555
N3A C23A 1_555 1_555
N4A C24A 1_555 1_555
C8A C12A 1_555 1_555
C9A C11A 1_555 1_555
C17A C22A 1_555 1_555
C20A C21A 1_555 1_555
C25A C27A 1_555 1_555

#END
