
#######################################################################
#
#                 Cambridge Crystallographic Data Centre
#                                CCDC 
#
#######################################################################
#
# If this CIF has been generated from an entry in the Cambridge 
# Structural Database, then it will include bibliographic, chemical, 
# crystal, experimental, refinement or atomic coordinate data resulting 
# from the CCDC's data processing and validation procedures.
#
#######################################################################

data_FIRHIZ
_symmetry_cell_setting           monoclinic
_symmetry_space_group_name_H-M   'P 21/c'
_symmetry_Int_Tables_number      14
_space_group_name_Hall           '-P 2ybc'
loop_
_symmetry_equiv_pos_site_id
_symmetry_equiv_pos_as_xyz
1 x,y,z
2 -x,1/2+y,1/2-z
3 -x,-y,-z
4 x,1/2-y,1/2+z
_cell_length_a                   10.028(2)
_cell_length_b                   17.768(3)
_cell_length_c                   12.798(4)
_cell_angle_alpha                90
_cell_angle_beta                 108.716(5)
_cell_angle_gamma                90
_cell_volume                     2159.73
loop_
_atom_site_label
_atom_site_type_symbol
_atom_site_fract_x
_atom_site_fract_y
_atom_site_fract_z
Ni1 Ni 0.64958(3) 0.055357(18) 0.92801(2)
O1 O 0.3771(2) 0.05507(11) 1.02979(17)
O2 O -0.14544(18) 0.04208(11) 0.91056(16)
O3 O -0.25608(18) 0.14993(11) 0.86736(18)
N1 N 0.3842(2) 0.00810(13) 0.60922(17)
O4 O 0.47100(17) 0.11482(11) 0.91766(15)
C1 C -0.1480(2) 0.10962(15) 0.8805(2)
N2 N -0.1024(2) 0.08053(13) 0.25880(18)
C2 C -0.0203(2) 0.14137(14) 0.8594(2)
N3 N 0.5508(2) 0.02057(14) 0.76889(17)
C3 C 0.1116(2) 0.11350(14) 0.9193(2)
H1 H 0.1207 0.0800 0.9770
C4 C 0.2153(3) 0.18668(15) 0.8076(2)
H2 H 0.2947 0.2015 0.7902
C5 C -0.0338(3) 0.19328(15) 0.7747(2)
H3 H -0.1219 0.2128 0.7361
N4 N -0.2520(2) 0.08282(13) 0.09039(17)
C6 C -0.1269(3) 0.05902(15) 0.1532(2)
H4 H -0.0646 0.0313 0.1280
C7 C 0.2592(3) 0.02543(16) 0.5205(2)
C8 C 0.3703(2) 0.09870(13) 0.9521(2)
C9 C 0.2298(2) 0.13571(14) 0.8931(2)
C10 C 0.0209(3) 0.06170(16) 0.3493(2)
C11 C 0.1840(3) -0.03083(16) 0.4515(2)
H5 H 0.2139 -0.0806 0.4627
C12 C 0.4284(3) 0.04544(16) 0.7058(2)
H6 H 0.3783 0.0840 0.7253
C13 C 0.0842(3) 0.21603(15) 0.7476(2)
C14 C 0.0640(3) -0.01224(16) 0.3657(2)
H7 H 0.0125 -0.0496 0.3191
C15 C 0.0955(3) 0.11819(17) 0.4184(2)
H8 H 0.0655 0.1679 0.4071
C16 C -0.2173(3) 0.12091(18) 0.2634(2)
H9 H -0.2301 0.1432 0.3252
C17 C 0.4849(3) -0.04521(18) 0.6116(3)
H10 H 0.4831 -0.0802 0.5571
C18 C -0.3078(3) 0.12138(18) 0.1594(2)
H11 H -0.3956 0.1446 0.1376
C19 C 0.2151(3) 0.09958(17) 0.5042(2)
H12 H 0.2660 0.1369 0.5511
C20 C 0.5870(3) -0.03593(19) 0.7098(3)
H13 H 0.6698 -0.0638 0.7339
O5 O 0.0682(4) 0.2710(2) 0.6530(3)
H14 H 0.1435 0.2749 0.6411
Ni1_2 Ni -0.35042(3) 0.055357(18) -0.07199(2)
Ni1_3 Ni -0.35042(3) 0.055357(18) 0.92801(2)
Ni1B Ni 0.35042(3) -0.055357(18) 1.07199(2)
O1B O 0.6229(2) -0.05507(11) 0.97021(17)
O2_2 O 0.85456(18) 0.04208(11) 0.91056(16)
O3_2 O 0.74392(18) 0.14993(11) 0.86736(18)
N4_2 N 0.7480(2) 0.08282(13) 1.09039(17)
O6 O 0.4319(5) 0.81801(17) 0.3764(4)
H15 H 0.4519 0.7985 0.3226
H16 H 0.4827 0.7982 0.4364
O7 O 0.6704(6) 0.21517(18) 0.4460(4)
H17 H 0.6921 0.2058 0.5146
H18 H 0.6093 0.2501 0.4289
O8 O 0.4371(6) 0.2093(2) 0.2084(5)
H19 H 0.5132 0.2179 0.1947
H20 H 0.3757 0.2419 0.1759
loop_
_geom_bond_atom_site_label_1
_geom_bond_atom_site_label_2
_geom_bond_site_symmetry_1
_geom_bond_site_symmetry_2
Ni1 O4 1_555 1_555
O1 C8 1_555 1_555
O2 C1 1_555 1_555
O3 C1 1_555 1_555
N1 C7 1_555 1_555
O4 C8 1_555 1_555
C1 C2 1_555 1_555
N2 C6 1_555 1_555
C2 C3 1_555 1_555
N3 Ni1 1_555 1_555
C3 H1 1_555 1_555
C4 H2 1_555 1_555
C5 C2 1_555 1_555
H3 C5 1_555 1_555
N4 C6 1_555 1_555
C6 H4 1_555 1_555
C7 C11 1_555 1_555
C8 C9 1_555 1_555
C9 C3 1_555 1_555
C10 N2 1_555 1_555
C11 H5 1_555 1_555
C12 N1 1_555 1_555
H6 C12 1_555 1_555
C13 C4 1_555 1_555
C14 C10 1_555 1_555
H7 C14 1_555 1_555
C15 C10 1_555 1_555
H8 C15 1_555 1_555
C16 N2 1_555 1_555
H9 C16 1_555 1_555
C17 N1 1_555 1_555
H10 C17 1_555 1_555
C18 N4 1_555 1_555
H11 C18 1_555 1_555
C19 C7 1_555 1_555
H12 C19 1_555 1_555
C20 N3 1_555 1_555
H13 C20 1_555 1_555
O5 C13 1_555 1_555
H14 O5 1_555 1_555
O6 H15 1_555 1_555
H16 O6 1_555 1_555
O7 H17 1_555 1_555
H18 O7 1_555 1_555
O8 H19 1_555 1_555
H20 O8 1_555 1_555
Ni1_2 N4 1_555 1_555
Ni1_3 O2 1_555 1_555
Ni1B O1 1_555 1_555
O1B Ni1 1_555 1_555
O2_2 Ni1 1_555 1_555
O3_2 Ni1 1_555 1_555
N4_2 Ni1 1_555 1_555
O3 Ni1_3 1_555 1_555
N3 C12 1_555 1_555
C4 C9 1_555 1_555
C5 C13 1_555 1_555
C11 C14 1_555 1_555
C15 C19 1_555 1_555
C16 C18 1_555 1_555
C17 C20 1_555 1_555

#END
