
#######################################################################
#
#                 Cambridge Crystallographic Data Centre
#                                CCDC 
#
#######################################################################
#
# If this CIF has been generated from an entry in the Cambridge 
# Structural Database, then it will include bibliographic, chemical, 
# crystal, experimental, refinement or atomic coordinate data resulting 
# from the CCDC's data processing and validation procedures.
#
#######################################################################

data_FIRHEV
_symmetry_cell_setting           monoclinic
_symmetry_space_group_name_H-M   'P 21/c'
_symmetry_Int_Tables_number      14
_space_group_name_Hall           '-P 2ybc'
loop_
_symmetry_equiv_pos_site_id
_symmetry_equiv_pos_as_xyz
1 x,y,z
2 -x,1/2+y,1/2-z
3 -x,-y,-z
4 x,1/2-y,1/2+z
_cell_length_a                   9.785(5)
_cell_length_b                   15.456(5)
_cell_length_c                   11.535(5)
_cell_angle_alpha                90
_cell_angle_beta                 98.644(5)
_cell_angle_gamma                90
_cell_volume                     1724.7
loop_
_atom_site_label
_atom_site_type_symbol
_atom_site_fract_x
_atom_site_fract_y
_atom_site_fract_z
Ni1 Ni 1.0000 0.0000 1.0000
O1 O 0.8473(2) 0.40061(13) 0.52525(19)
O2 O 0.6618(2) 0.43383(16) 0.6090(2)
O3 O 1.1075(2) 0.08977(14) 0.89696(18)
N1 N 0.8718(2) -0.04431(16) 0.83626(19)
N2 N 0.7227(2) -0.04728(15) 0.67209(19)
O4 O 1.2007(3) 0.03101(17) 0.7505(2)
C1 C 0.6101(3) -0.02292(18) 0.5843(2)
C2 C 0.6410(3) 0.32375(18) 0.4645(2)
C3 C 0.7647(3) -0.00570(17) 0.7743(2)
H1 H 0.7231 0.0440 0.7980
C4 C 0.8048(3) 0.20225(18) 0.5379(2)
C5 C 0.9007(3) 0.1454(2) 0.5008(3)
H2 H 0.8964 0.1331 0.4214
C6 C 1.0022(3) 0.1072(2) 0.5817(3)
H3 H 1.0652 0.0693 0.5561
C7 C 0.8095(3) -0.1173(2) 0.6693(3)
H4 H 0.8066 -0.1582 0.6097
C8 C 1.0105(3) 0.12507(18) 0.7012(2)
C9 C 0.6891(3) 0.23927(18) 0.4542(2)
C10 C 0.6004(4) -0.0554(3) 0.4725(3)
H5 H 0.6672 -0.0935 0.4536
C11 C 0.6181(3) 0.1855(2) 0.3676(3)
H6 H 0.6498 0.1296 0.3586
C12 C 0.9153(3) 0.18158(18) 0.7385(2)
H7 H 0.9200 0.1939 0.8179
C13 C 1.1125(3) 0.07990(18) 0.7898(2)
C14 C 0.8997(3) -0.1148(2) 0.7701(3)
H8 H 0.9701 -0.1546 0.7918
C15 C 0.8138(3) 0.21947(18) 0.6584(2)
H9 H 0.7506 0.2569 0.6845
C16 C 0.7242(3) 0.39050(17) 0.5390(2)
C17 C 0.4503(3) 0.2961(2) 0.3097(3)
H10 H 0.3700 0.3148 0.2628
C18 C 0.4908(4) -0.0314(3) 0.3877(3)
H11 H 0.4859 -0.0523 0.3116
C19 C 0.5191(3) 0.3508(2) 0.3953(3)
H12 H 0.4837 0.4056 0.4062
C20 C 0.5005(3) 0.2148(2) 0.2945(3)
H13 H 0.4563 0.1792 0.2356
N1B N 0.1282(2) 0.04431(16) 0.16374(19)
N2B N 0.2773(2) 0.04728(15) 0.32791(19)
C1B C 0.3899(3) 0.02292(18) 0.4157(2)
C3B C 0.2353(3) 0.00570(17) 0.2257(2)
H1B H 0.2769 -0.0440 0.2020
C7B C 0.1905(3) 0.1173(2) 0.3307(3)
H4B H 0.1934 0.1582 0.3903
C10B C 0.3996(4) 0.0554(3) 0.5275(3)
H5B H 0.3328 0.0935 0.5464
C14B C 0.1003(3) 0.1148(2) 0.2299(3)
H8B H 0.0299 0.1546 0.2082
C18B C 0.5092(4) 0.0314(3) 0.6123(3)
H11B H 0.5141 0.0523 0.6884
O1C O 0.8473(2) 0.09939(13) 1.02525(19)
O2C O 0.6618(2) 0.06617(16) 1.1090(2)
O3C O 1.1075(2) 0.41023(14) 1.39696(18)
O4C O 1.2007(3) 0.46899(17) 1.2505(2)
C2C C 0.6410(3) 0.17625(18) 0.9645(2)
C4C C 0.8048(3) 0.29775(18) 1.0379(2)
C5C C 0.9007(3) 0.3546(2) 1.0008(3)
H2C H 0.8964 0.3669 0.9214
C6C C 1.0022(3) 0.3928(2) 1.0817(3)
H3C H 1.0652 0.4307 1.0561
C8C C 1.0105(3) 0.37493(18) 1.2012(2)
C9C C 0.6891(3) 0.26073(18) 0.9542(2)
C11C C 0.6181(3) 0.3145(2) 0.8676(3)
H6C H 0.6498 0.3704 0.8586
C12C C 0.9153(3) 0.31842(18) 1.2385(2)
H7C H 0.9200 0.3061 1.3179
C13C C 1.1125(3) 0.42010(18) 1.2898(2)
C15C C 0.8138(3) 0.28053(18) 1.1584(2)
H9C H 0.7506 0.2431 1.1845
C16C C 0.7242(3) 0.10950(17) 1.0390(2)
C17C C 0.4503(3) 0.2039(2) 0.8097(3)
H10C H 0.3700 0.1852 0.7628
C19C C 0.5191(3) 0.1492(2) 0.8953(3)
H12C H 0.4837 0.0944 0.9062
C20C C 0.5005(3) 0.2852(2) 0.7945(3)
H13C H 0.4563 0.3208 0.7356
Ni1_2 Ni 0.0000 0.0000 0.0000
Ni1A Ni 1.0000 0.5000 0.5000
Ni1A_2 Ni 1.0000 0.5000 1.5000
O1A O 1.1527(2) -0.09939(13) 0.97475(19)
O3B O 0.8925(2) -0.08977(14) 1.10304(18)
N1B_2 N 1.1282(2) 0.04431(16) 1.16374(19)
O5 O 1.2510(8) 0.2331(4) 1.0386(5)
H14 H 1.2904 0.2683 1.0896
H15 H 1.2856 0.1830 1.0516
loop_
_geom_bond_atom_site_label_1
_geom_bond_atom_site_label_2
_geom_bond_site_symmetry_1
_geom_bond_site_symmetry_2
Ni1 O3 1_555 1_555
O1 C16 1_555 1_555
O2 C16 1_555 1_555
O3 C13 1_555 1_555
N1 Ni1 1_555 1_555
N2 C1 1_555 1_555
O4 C13 1_555 1_555
C1 C10 1_555 1_555
C2 C9 1_555 1_555
C3 N1 1_555 1_555
H1 C3 1_555 1_555
C4 C5 1_555 1_555
C5 H2 1_555 1_555
C6 C5 1_555 1_555
H3 C6 1_555 1_555
C7 N2 1_555 1_555
H4 C7 1_555 1_555
C8 C6 1_555 1_555
C9 C4 1_555 1_555
C10 H5 1_555 1_555
C11 C9 1_555 1_555
H6 C11 1_555 1_555
C12 C8 1_555 1_555
H7 C12 1_555 1_555
C13 C8 1_555 1_555
C14 N1 1_555 1_555
H8 C14 1_555 1_555
C15 C4 1_555 1_555
H9 C15 1_555 1_555
C16 C2 1_555 1_555
C17 H10 1_555 1_555
C18 C10 1_555 1_555
H11 C18 1_555 1_555
C19 C2 1_555 1_555
H12 C19 1_555 1_555
C20 C11 1_555 1_555
H13 C20 1_555 1_555
O5 H14 1_555 1_555
H15 O5 1_555 1_555
N1B C3B 1_555 1_555
N2B C1B 1_555 1_555
C1B C18 1_555 1_555
C3B N2B 1_555 1_555
H1B C3B 1_555 1_555
C7B N2B 1_555 1_555
H4B C7B 1_555 1_555
C10B C1B 1_555 1_555
H5B C10B 1_555 1_555
C14B N1B 1_555 1_555
H8B C14B 1_555 1_555
C18B C1 1_555 1_555
H11B C18B 1_555 1_555
O1C Ni1 1_555 1_555
O2C C16C 1_555 1_555
O3C C13C 1_555 1_555
O4C C13C 1_555 1_555
C2C C9C 1_555 1_555
C4C C5C 1_555 1_555
C5C H2C 1_555 1_555
C6C C5C 1_555 1_555
H3C C6C 1_555 1_555
C8C C6C 1_555 1_555
C9C C4C 1_555 1_555
C11C C9C 1_555 1_555
H6C C11C 1_555 1_555
C12C C8C 1_555 1_555
H7C C12C 1_555 1_555
C13C C8C 1_555 1_555
C15C C4C 1_555 1_555
H9C C15C 1_555 1_555
C16C O1C 1_555 1_555
C17C H10C 1_555 1_555
C19C C2C 1_555 1_555
H12C C19C 1_555 1_555
C20C C11C 1_555 1_555
H13C C20C 1_555 1_555
Ni1_2 N1B 1_555 1_555
Ni1A O1 1_555 1_555
Ni1A_2 O3C 1_555 1_555
O1A Ni1 1_555 1_555
O3B Ni1 1_555 1_555
N1B_2 Ni1 1_555 1_555
N2 C3 1_555 1_555
C7 C14 1_555 1_555
C12 C15 1_555 1_555
C17 C19 1_555 1_555
C17 C20 1_555 1_555
C7B C14B 1_555 1_555
C10B C18B 1_555 1_555
C2C C16C 1_555 1_555
C12C C15C 1_555 1_555
C17C C19C 1_555 1_555
C17C C20C 1_555 1_555

#END
