
#######################################################################
#
#                 Cambridge Crystallographic Data Centre
#                                CCDC 
#
#######################################################################
#
# If this CIF has been generated from an entry in the Cambridge 
# Structural Database, then it will include bibliographic, chemical, 
# crystal, experimental, refinement or atomic coordinate data resulting 
# from the CCDC's data processing and validation procedures.
#
#######################################################################

data_FIRQON
_symmetry_cell_setting           orthorhombic
_symmetry_space_group_name_H-M   'P 21 21 21'
_symmetry_Int_Tables_number      19
_space_group_name_Hall           'P 2ac 2ab'
loop_
_symmetry_equiv_pos_site_id
_symmetry_equiv_pos_as_xyz
1 x,y,z
2 1/2-x,-y,1/2+z
3 -x,1/2+y,1/2-z
4 1/2+x,1/2-y,-z
_cell_length_a                   8.213(3)
_cell_length_b                   17.274(6)
_cell_length_c                   18.960(6)
_cell_angle_alpha                90
_cell_angle_beta                 90
_cell_angle_gamma                90
_cell_volume                     2689.88
loop_
_atom_site_label
_atom_site_type_symbol
_atom_site_fract_x
_atom_site_fract_y
_atom_site_fract_z
La1 La 0.90869(3) 0.786639(15) 0.012123(14)
O1 O 0.8600(4) 0.6495(2) 0.0306(2)
O2 O 0.6106(4) 0.61021(18) 0.00485(18)
O3 O 0.5879(6) 0.4550(2) -0.02555(19)
O4 O 0.6769(6) 0.3159(2) 0.0180(3)
O5 O 0.5965(5) 0.7756(2) 0.07712(16)
O6 O 0.7249(5) 0.8865(2) 0.06269(19)
O7 O 0.6241(5) 1.0086(2) 0.1395(2)
O8 O 0.4541(5) 1.0599(2) 0.2477(2)
O9 O 0.8164(5) 0.8535(2) -0.10466(19)
O10 O 0.6687(4) 0.7549(2) -0.07160(18)
O11 O 0.4337(4) 0.7034(2) -0.15848(16)
O12 O 0.2901(5) 0.7163(3) -0.28298(19)
C1 C 0.7546(6) 0.5975(3) 0.0228(3)
C2 C 0.8078(6) 0.5161(3) 0.0392(3)
C3 C 0.9487(7) 0.5058(3) 0.0790(3)
H1 H 1.0102 0.5488 0.0916
C4 C 0.9992(7) 0.4333(3) 0.1003(3)
H2 H 1.0936 0.4277 0.1269
C5 C 0.9087(8) 0.3688(3) 0.0819(3)
H3 H 0.9406 0.3199 0.0973
C6 C 0.7717(7) 0.3769(3) 0.0410(3)
C7 C 0.7185(6) 0.4504(3) 0.0190(3)
C8 C 0.7182(11) 0.2412(3) 0.0418(4)
H4 H 0.8258 0.2283 0.0260
H5 H 0.6418 0.2043 0.0233
H6 H 0.7150 0.2400 0.0925
C9 C 0.4313(7) 0.4559(4) 0.0089(4)
H7 H 0.4119 0.4066 0.0306
H8 H 0.3478 0.4660 -0.0253
H9 H 0.4300 0.4957 0.0442
C10 C 0.6215(6) 0.8464(3) 0.0951(3)
C11 C 0.5311(6) 0.8779(3) 0.1573(3)
C12 C 0.4449(7) 0.8256(3) 0.1999(3)
H10 H 0.4444 0.7732 0.1886
C13 C 0.3610(7) 0.8515(4) 0.2583(3)
H11 H 0.3036 0.8163 0.2858
C14 C 0.3605(7) 0.9291(3) 0.2767(3)
H12 H 0.3035 0.9457 0.3163
C15 C 0.4452(7) 0.9818(3) 0.2360(3)
C16 C 0.5331(7) 0.9560(3) 0.1762(3)
C17 C 0.3663(8) 1.0896(4) 0.3065(3)
H13 H 0.2533 1.0763 0.3020
H14 H 0.3775 1.1449 0.3080
H15 H 0.4089 1.0677 0.3492
C18 C 0.5375(11) 1.0669(5) 0.1026(4)
H16 H 0.5637 1.0643 0.0534
H17 H 0.5675 1.1168 0.1207
H18 H 0.4226 1.0592 0.1089
C19 C 0.7019(6) 0.8083(3) -0.1163(3)
C20 C 0.6075(7) 0.8144(3) -0.1837(2)
C21 C 0.6489(7) 0.8738(4) -0.2302(3)
H19 H 0.7308 0.9084 -0.2178
C22 C 0.5716(9) 0.8822(4) -0.2936(3)
H20 H 0.6010 0.9225 -0.3236
C23 C 0.4493(8) 0.8310(4) -0.3136(3)
H21 H 0.3970 0.8371 -0.3568
C24 C 0.4054(8) 0.7705(3) -0.2688(3)
C25 C 0.4852(6) 0.7625(3) -0.2033(3)
C26 C 0.1934(8) 0.7278(5) -0.3447(3)
H22 H 0.1339 0.7754 -0.3404
H23 H 0.1184 0.6855 -0.3498
H24 H 0.2628 0.7302 -0.3854
C27 C 0.4890(8) 0.6265(4) -0.1798(3)
H25 H 0.4800 0.6215 -0.2301
H26 H 0.4228 0.5879 -0.1574
H27 H 0.6005 0.6197 -0.1660
La1C La 0.40869(3) 0.713361(15) -0.012123(14)
O2C O 1.1106(4) 0.88979(18) -0.00485(18)
O5C O 1.0965(5) 0.7244(2) -0.07712(16)
O10C O 1.1687(4) 0.7451(2) 0.07160(18)
O11C O 0.9337(4) 0.7966(2) 0.15848(16)
loop_
_geom_bond_atom_site_label_1
_geom_bond_atom_site_label_2
_geom_bond_site_symmetry_1
_geom_bond_site_symmetry_2
La1 O1 1_555 1_555
O1 C1 1_555 1_555
O2 C1 1_555 1_555
O3 C7 1_555 1_555
O4 C6 1_555 1_555
O5 La1 1_555 1_555
O6 La1 1_555 1_555
O7 C16 1_555 1_555
O8 C15 1_555 1_555
O9 La1 1_555 1_555
O10 La1 1_555 1_555
O11 C25 1_555 1_555
O12 C24 1_555 1_555
C1 C2 1_555 1_555
C2 C3 1_555 1_555
C3 H1 1_555 1_555
C4 C3 1_555 1_555
H2 C4 1_555 1_555
C5 C4 1_555 1_555
H3 C5 1_555 1_555
C6 C5 1_555 1_555
C7 C2 1_555 1_555
C8 O4 1_555 1_555
H4 C8 1_555 1_555
H5 C8 1_555 1_555
H6 C8 1_555 1_555
C9 O3 1_555 1_555
H7 C9 1_555 1_555
H8 C9 1_555 1_555
H9 C9 1_555 1_555
C10 O5 1_555 1_555
C11 C10 1_555 1_555
C12 C11 1_555 1_555
H10 C12 1_555 1_555
C13 C12 1_555 1_555
H11 C13 1_555 1_555
C14 C13 1_555 1_555
H12 C14 1_555 1_555
C15 C14 1_555 1_555
C16 C11 1_555 1_555
C17 O8 1_555 1_555
H13 C17 1_555 1_555
H14 C17 1_555 1_555
H15 C17 1_555 1_555
C18 O7 1_555 1_555
H16 C18 1_555 1_555
H17 C18 1_555 1_555
H18 C18 1_555 1_555
C19 O9 1_555 1_555
C20 C19 1_555 1_555
C21 C20 1_555 1_555
H19 C21 1_555 1_555
C22 C21 1_555 1_555
H20 C22 1_555 1_555
C23 C22 1_555 1_555
H21 C23 1_555 1_555
C24 C23 1_555 1_555
C25 C20 1_555 1_555
C26 O12 1_555 1_555
H22 C26 1_555 1_555
H23 C26 1_555 1_555
H24 C26 1_555 1_555
C27 O11 1_555 1_555
H25 C27 1_555 1_555
H26 C27 1_555 1_555
H27 C27 1_555 1_555
La1C O2 1_555 1_555
O2C La1 1_555 1_555
O5C La1 1_555 1_555
O10C La1 1_555 1_555
O11C La1 1_555 1_555
O5 La1C 1_555 1_555
O6 C10 1_555 1_555
O10 C19 1_555 1_555
O10 La1C 1_555 1_555
O11 La1C 1_555 1_555
C6 C7 1_555 1_555
C15 C16 1_555 1_555
C24 C25 1_555 1_555

#END
