
#######################################################################
#
#                 Cambridge Crystallographic Data Centre
#                                CCDC 
#
#######################################################################
#
# If this CIF has been generated from an entry in the Cambridge 
# Structural Database, then it will include bibliographic, chemical, 
# crystal, experimental, refinement or atomic coordinate data resulting 
# from the CCDC's data processing and validation procedures.
#
#######################################################################

data_FIRWOU
_symmetry_cell_setting           triclinic
_symmetry_space_group_name_H-M   'P -1'
_symmetry_Int_Tables_number      2
_space_group_name_Hall           '-P 1'
loop_
_symmetry_equiv_pos_site_id
_symmetry_equiv_pos_as_xyz
1 x,y,z
2 -x,-y,-z
_cell_length_a                   9.3981(19)
_cell_length_b                   9.835(2)
_cell_length_c                   11.985(2)
_cell_angle_alpha                98.01(3)
_cell_angle_beta                 107.62(3)
_cell_angle_gamma                106.19(3)
_cell_volume                     983.173
loop_
_atom_site_label
_atom_site_type_symbol
_atom_site_fract_x
_atom_site_fract_y
_atom_site_fract_z
Cd1 Cd 0.80469(4) 0.94472(3) 0.82926(3)
Cl1 Cl 0.6441(4) 0.7522(4) 0.6542(4)
N1 N 0.6038(5) 1.0243(5) 0.8392(4)
N2 N 0.3625(5) 1.0082(4) 0.8322(4)
N3 N -0.0422(4) 1.0247(4) 0.7236(3)
N4 N 0.1566(5) 1.1144(4) 0.6618(4)
H1 H 0.2476 1.1314 0.6542
O1 O 0.9632(4) 1.1483(4) 0.9967(3)
O2 O 1.2246(4) 1.2115(4) 1.0574(3)
O3 O 1.4949(4) 1.4782(5) 0.8343(4)
H2 H 1.5536 1.4822 0.7954
O4 O 1.3929(4) 1.6094(5) 0.7157(4)
O5 O 0.8684(5) 1.6370(5) 0.7046(4)
H3 H 0.7841 1.6477 0.6697
O6 O 0.7123(4) 1.4595(4) 0.7569(4)
C1 C 0.4502(6) 0.9482(6) 0.7854(5)
H4 H 0.4086 0.8641 0.7231
C2 C 0.6140(6) 1.1385(5) 0.9252(5)
H5 H 0.7078 1.2109 0.9771
C3 C 0.4663(6) 1.1297(5) 0.9230(5)
H6 H 0.4403 1.1927 0.9725
C4 C 0.1910(6) 0.9474(5) 0.8006(5)
H7 H 0.1680 0.9450 0.8740
H8 H 0.1532 0.8475 0.7531
C5 C 0.1023(5) 1.0317(5) 0.7306(4)
C6 C 0.0391(6) 1.1667(5) 0.6059(4)
C7 C 0.0358(7) 1.2630(6) 0.5308(5)
H9 H 0.1206 1.3022 0.5068
C8 C -0.1035(7) 1.2966(6) 0.4939(5)
H10 H -0.1117 1.3610 0.4443
C9 C -0.2306(7) 1.2361(6) 0.5295(5)
H11 H -0.3218 1.2604 0.5019
C10 C -0.2257(6) 1.1418(6) 0.6040(5)
H12 H -0.3112 1.1016 0.6269
C11 C -0.0861(5) 1.1094(5) 0.6435(4)
C12 C 1.0951(6) 1.2253(5) 0.9987(4)
C13 C 1.1036(5) 1.3379(5) 0.9255(4)
C14 C 1.2414(5) 1.3940(5) 0.9018(4)
H13 H 1.3291 1.3671 0.9358
C15 C 1.2486(5) 1.4906(5) 0.8273(4)
C16 C 1.3866(5) 1.5335(5) 0.7867(4)
C17 C 1.1213(5) 1.5364(5) 0.7817(4)
H14 H 1.1279 1.6037 0.7345
C18 C 0.9827(5) 1.4825(5) 0.8059(4)
C19 C 0.8426(6) 1.5302(5) 0.7512(4)
C20 C 0.9740(5) 1.3812(5) 0.8755(4)
H15 H 0.8805 1.3416 0.8891
Cd1_2 Cd -0.19531(4) 0.94472(3) 0.82926(3)
Cd1A Cd 1.19531(4) 1.05528(3) 1.17074(3)
N3_2 N 0.9578(4) 1.0247(4) 0.7236(3)
O2A O 0.7754(4) 0.7885(4) 0.9426(3)
O7 O 0.4274(6) 1.2114(6) 0.6023(6)
H16 H 0.507(10) 1.263(9) 0.638(7)
H17 H 0.409(9) 1.224(8) 0.537(7)
loop_
_geom_bond_atom_site_label_1
_geom_bond_atom_site_label_2
_geom_bond_site_symmetry_1
_geom_bond_site_symmetry_2
Cd1 Cl1 1_555 1_555
N1 Cd1 1_555 1_555
N2 C1 1_555 1_555
N3 C5 1_555 1_555
N4 H1 1_555 1_555
O1 Cd1 1_555 1_555
O2 C12 1_555 1_555
O3 H2 1_555 1_555
O4 C16 1_555 1_555
O5 H3 1_555 1_555
O6 C19 1_555 1_555
C1 N1 1_555 1_555
H4 C1 1_555 1_555
C2 N1 1_555 1_555
H5 C2 1_555 1_555
C3 N2 1_555 1_555
H6 C3 1_555 1_555
C4 N2 1_555 1_555
H7 C4 1_555 1_555
H8 C4 1_555 1_555
C5 N4 1_555 1_555
C6 N4 1_555 1_555
C7 C6 1_555 1_555
H9 C7 1_555 1_555
C8 C7 1_555 1_555
H10 C8 1_555 1_555
C9 C8 1_555 1_555
H11 C9 1_555 1_555
C10 C9 1_555 1_555
H12 C10 1_555 1_555
C11 N3 1_555 1_555
C12 O1 1_555 1_555
C13 C12 1_555 1_555
C14 C13 1_555 1_555
H13 C14 1_555 1_555
C15 C14 1_555 1_555
C16 O3 1_555 1_555
C17 C15 1_555 1_555
H14 C17 1_555 1_555
C18 C17 1_555 1_555
C19 O5 1_555 1_555
C20 C13 1_555 1_555
H15 C20 1_555 1_555
O7 H16 1_555 1_555
H17 O7 1_555 1_555
Cd1_2 N3 1_555 1_555
Cd1A O2 1_555 1_555
N3_2 Cd1 1_555 1_555
O2A Cd1 1_555 1_555
C2 C3 1_555 1_555
C4 C5 1_555 1_555
C6 C11 1_555 1_555
C10 C11 1_555 1_555
C15 C16 1_555 1_555
C18 C19 1_555 1_555
C18 C20 1_555 1_555

#END
