
#######################################################################
#
#                 Cambridge Crystallographic Data Centre
#                                CCDC 
#
#######################################################################
#
# If this CIF has been generated from an entry in the Cambridge 
# Structural Database, then it will include bibliographic, chemical, 
# crystal, experimental, refinement or atomic coordinate data resulting 
# from the CCDC's data processing and validation procedures.
#
#######################################################################

data_FIRYAH
_symmetry_cell_setting           monoclinic
_symmetry_space_group_name_H-M   'P 2/c'
_symmetry_Int_Tables_number      13
_space_group_name_Hall           '-P 2yc'
loop_
_symmetry_equiv_pos_site_id
_symmetry_equiv_pos_as_xyz
1 x,y,z
2 -x,y,1/2-z
3 -x,-y,-z
4 x,-y,1/2+z
_cell_length_a                   20.601(4)
_cell_length_b                   12.201(2)
_cell_length_c                   28.115(6)
_cell_angle_alpha                90
_cell_angle_beta                 90.08(3)
_cell_angle_gamma                90
_cell_volume                     7066.78
loop_
_atom_site_label
_atom_site_type_symbol
_atom_site_fract_x
_atom_site_fract_y
_atom_site_fract_z
Eu1 Eu 0.10035(4) 0.00946(5) 0.48182(3)
F1 F 0.2344(10) 0.3345(12) 0.5020(6)
F2 F 0.1633(9) 0.3963(10) 0.5480(8)
F3 F 0.2448(8) 0.3463(11) 0.5778(8)
F4 F 0.0875(11) -0.2185(15) 0.3360(7)
F5 F -0.0041(11) -0.1735(15) 0.3419(6)
F6 F 0.0458(10) -0.1157(12) 0.2885(6)
F7 F 0.1662(8) -0.3409(12) 0.5488(6)
F8 F 0.2525(7) -0.3793(10) 0.5052(6)
F9 F 0.1544(8) -0.3857(9) 0.4758(6)
O1 O 0.1107(4) 0.0013(6) 0.5620(3)
O2 O 0.1343(5) 0.1847(8) 0.5108(5)
O3 O 0.0961(5) 0.1349(7) 0.4220(4)
O4 O 0.0771(5) -0.0776(7) 0.4096(4)
O5 O 0.2131(6) 0.0143(7) 0.4687(5)
O6 O 0.1425(6) -0.1696(7) 0.4926(4)
O7 O -0.0027(4) 0.1023(5) 0.5008(4)
N1 N -0.0044(6) 0.2127(8) 0.5011(6)
C1 C 0.1264(12) -0.1015(17) 0.6489(7)
H1 H 0.1052 -0.1362 0.6239
C2 C 0.1376(15) -0.158(2) 0.6960(11)
H2 H 0.1253 -0.2307 0.6997
C3 C 0.1639(9) -0.106(2) 0.7314(7)
H3 H 0.1701 -0.1427 0.7602
C4 C 0.1827(13) 0.001(3) 0.7269(7)
H4 H 0.1979 0.0426 0.7524
C5 C 0.1775(12) 0.0407(18) 0.6838(9)
H5 H 0.1971 0.1085 0.6790
C6 C 0.1478(8) -0.0028(13) 0.6454(5)
C7 C 0.1436(8) 0.0556(12) 0.5950(6)
C8 C 0.1752(10) 0.1589(16) 0.5876(7)
H6 H 0.1994 0.1897 0.6121
C9 C 0.1707(9) 0.2104(11) 0.5472(6)
C10 C 0.2036(19) 0.323(2) 0.5410(12)
C11 C 0.1109(11) 0.3459(14) 0.3872(7)
H7 H 0.1184 0.3318 0.4193
C12 C 0.1204(9) 0.4452(14) 0.3692(9)
H8 H 0.1406 0.4953 0.3893
C13 C 0.1053(10) 0.481(2) 0.3275(8)
H9 H 0.1053 0.5555 0.3195
C14 C 0.0889(12) 0.397(2) 0.2953(8)
H10 H 0.0869 0.4137 0.2631
C15 C 0.0754(9) 0.2880(13) 0.3095(7)
H11 H 0.0583 0.2365 0.2886
C16 C 0.0893(9) 0.263(2) 0.3565(7)
C17 C 0.0889(8) 0.1544(11) 0.3747(6)
C18 C 0.0686(11) 0.064(2) 0.3473(7)
H12 H 0.0570 0.0759 0.3157
C19 C 0.0654(9) -0.0392(12) 0.3651(7)
C20 C 0.0552(19) -0.138(2) 0.3328(10)
C21 C 0.3349(14) 0.106(2) 0.4689(11)
H13 H 0.2990 0.1504 0.4740
C22 C 0.3972(16) 0.153(2) 0.4644(13)
H14 H 0.4042 0.2251 0.4731
C23 C 0.4450(14) 0.093(3) 0.4480(16)
H15 H 0.4836 0.1261 0.4388
C24 C 0.4382(10) -0.022(3) 0.4441(13)
H16 H 0.4772 -0.0586 0.4393
C25 C 0.3910(19) -0.0823(18) 0.4459(12)
H17 H 0.3908 -0.1561 0.4376
C26 C 0.3268(10) -0.012(2) 0.4655(6)
C27 C 0.2550(17) -0.0482(15) 0.4724(7)
C28 C 0.2549(11) -0.1608(17) 0.4898(7)
H18 H 0.2935 -0.1950 0.4984
C29 C 0.1994(10) -0.2135(12) 0.4931(6)
C30 C 0.2003(14) -0.3331(17) 0.5068(11)
C31 C 0.0104(8) 0.2691(12) 0.5422(7)
H19 H 0.0210 0.2315 0.5700
C32 C 0.0092(7) 0.3838(9) 0.5417(6)
H20 H 0.0151 0.4223 0.5700
C33 C -0.0006(7) 0.4407(9) 0.4997(6)
C34 C -0.0215(7) 0.3747(11) 0.4595(6)
H21 H -0.0359 0.4089 0.4318
C35 C -0.0204(7) 0.2675(10) 0.4619(6)
H22 H -0.0312 0.2277 0.4348
Eu1B Eu -0.10035(4) 0.99054(5) 0.51818(3)
Eu1B_2 Eu -0.10035(4) -0.00946(5) 0.51818(3)
Eu1_2 Eu 0.10035(4) 1.00946(5) 0.48182(3)
F1B F -0.2344(10) -0.3345(12) 0.4980(6)
F2B F -0.1633(9) -0.3963(10) 0.4520(8)
F3B F -0.2448(8) -0.3463(11) 0.4222(8)
F4B F -0.0875(11) 0.2185(15) 0.6640(7)
F5B F 0.0041(11) 0.1735(15) 0.6581(6)
F6B F -0.0458(10) 0.1157(12) 0.7115(6)
F7B F -0.1662(8) 0.3409(12) 0.4512(6)
F8B F -0.2525(7) 0.3793(10) 0.4948(6)
F9B F -0.1544(8) 0.3857(9) 0.5242(6)
O1B O -0.1107(4) -0.0013(6) 0.4380(3)
O2B O -0.1343(5) -0.1847(8) 0.4892(5)
O3B O -0.0961(5) -0.1349(7) 0.5780(4)
O4B O -0.0771(5) 0.0776(7) 0.5904(4)
O5B O -0.2131(6) -0.0143(7) 0.5313(5)
O6B O -0.1425(6) 0.1696(7) 0.5074(4)
O7B O 0.0027(4) 0.8977(5) 0.4992(4)
O7B_2 O 0.0027(4) -0.1023(5) 0.4992(4)
N1B N 0.0044(6) 0.7873(8) 0.4989(6)
C1B C -0.1264(12) 0.1015(17) 0.3511(7)
H1B H -0.1052 0.1362 0.3761
C2B C -0.1376(15) 0.158(2) 0.3040(11)
H2B H -0.1253 0.2307 0.3003
C3B C -0.1639(9) 0.106(2) 0.2686(7)
H3B H -0.1701 0.1427 0.2398
C4B C -0.1827(13) -0.001(3) 0.2731(7)
H4B H -0.1979 -0.0426 0.2476
C5B C -0.1775(12) -0.0407(18) 0.3162(9)
H5B H -0.1971 -0.1085 0.3210
C6B C -0.1478(8) 0.0028(13) 0.3546(5)
C7B C -0.1436(8) -0.0556(12) 0.4050(6)
C8B C -0.1752(10) -0.1589(16) 0.4124(7)
H6B H -0.1994 -0.1897 0.3879
C9B C -0.1707(9) -0.2104(11) 0.4528(6)
C10B C -0.2036(19) -0.323(2) 0.4590(12)
C11B C -0.1109(11) -0.3459(14) 0.6128(7)
H7B H -0.1184 -0.3318 0.5807
C12B C -0.1204(9) -0.4452(14) 0.6308(9)
H8B H -0.1406 -0.4953 0.6107
C13B C -0.1053(10) -0.481(2) 0.6725(8)
H9B H -0.1053 -0.5555 0.6805
C14B C -0.0889(12) -0.397(2) 0.7047(8)
H10B H -0.0869 -0.4137 0.7369
C15B C -0.0754(9) -0.2880(13) 0.6905(7)
H11B H -0.0583 -0.2365 0.7114
C16B C -0.0893(9) -0.263(2) 0.6435(7)
C17B C -0.0889(8) -0.1544(11) 0.6253(6)
C18B C -0.0686(11) -0.064(2) 0.6527(7)
H12B H -0.0570 -0.0759 0.6843
C19B C -0.0654(9) 0.0392(12) 0.6349(7)
C20B C -0.0552(19) 0.138(2) 0.6672(10)
C21B C -0.3349(14) -0.106(2) 0.5311(11)
H13B H -0.2990 -0.1504 0.5260
C22B C -0.3972(16) -0.153(2) 0.5356(13)
H14B H -0.4042 -0.2251 0.5269
C23B C -0.4450(14) -0.093(3) 0.5520(16)
H15B H -0.4836 -0.1261 0.5612
C24B C -0.4382(10) 0.022(3) 0.5559(13)
H16B H -0.4772 0.0586 0.5607
C25B C -0.3910(19) 0.0823(18) 0.5541(12)
H17B H -0.3908 0.1561 0.5624
C26B C -0.3268(10) 0.012(2) 0.5345(6)
C27B C -0.2550(17) 0.0482(15) 0.5276(7)
C28B C -0.2549(11) 0.1608(17) 0.5102(7)
H18B H -0.2935 0.1950 0.5016
C29B C -0.1994(10) 0.2135(12) 0.5069(6)
C30B C -0.2003(14) 0.3331(17) 0.4932(11)
C31B C -0.0104(8) 0.7309(12) 0.4578(7)
H19B H -0.0210 0.7685 0.4300
C32B C -0.0092(7) 0.6162(9) 0.4583(6)
H20B H -0.0151 0.5777 0.4300
C33B C 0.0006(7) 0.5593(9) 0.5003(6)
C34B C 0.0215(7) 0.6253(11) 0.5405(6)
H21B H 0.0359 0.5911 0.5682
C35B C 0.0204(7) 0.7325(10) 0.5381(6)
H22B H 0.0312 0.7723 0.5652
Eu2 Eu 0.40741(5) 0.45185(6) 0.71682(4)
F10 F 0.3054(8) 0.8147(14) 0.6092(7)
F11 F 0.3672(9) 0.8349(12) 0.6640(7)
F12 F 0.4071(12) 0.7740(16) 0.6113(8)
F13 F 0.2352(11) 0.3262(15) 0.8652(9)
F14 F 0.2520(11) 0.2363(12) 0.8007(8)
F15 F 0.3252(11) 0.239(2) 0.8567(9)
F16 F 0.3967(14) 0.0556(15) 0.6676(12)
F17 F 0.3265(10) 0.1172(13) 0.6367(11)
F18 F 0.3948(13) 0.0777(18) 0.5950(7)
O8 O 0.5000 0.5561(9) 0.7500
O9 O 0.2998(6) 0.4486(8) 0.6921(5)
O10 O 0.3970(7) 0.6093(9) 0.6716(7)
O11 O 0.3709(7) 0.5836(10) 0.7659(6)
O12 O 0.3634(7) 0.3657(8) 0.7804(5)
O13 O 0.3919(8) 0.2834(10) 0.6851(8)
O14 O 0.4781(7) 0.4420(12) 0.6496(8)
O15 O 0.5000 1.3399(13) 0.7500
N2 N 0.5000 0.6635(12) 0.7500
N3 N 0.5000 1.2395(15) 0.7500
C36 C 0.5082(8) 0.7166(11) 0.7075(8)
H23 H 0.5118 0.6802 0.6786
C37 C 0.5108(8) 0.8326(12) 0.7118(7)
H24 H 0.5213 0.8717 0.6845
C38 C 0.5000 0.8897(15) 0.7500
C39 C 0.5000 1.0093(18) 0.7500
C40 C 0.5346(9) 1.0640(14) 0.7153(9)
H25 H 0.5566 1.0264 0.6915
C41 C 0.1770(11) 0.3857(14) 0.7031(8)
H26 H 0.2091 0.3410 0.7160
C42 C 0.1105(13) 0.3566(15) 0.7054(7)
H27 H 0.1014 0.2902 0.7202
C43 C 0.0613(11) 0.4095(16) 0.6897(8)
H28 H 0.0188 0.3858 0.6943
C44 C 0.0763(11) 0.505(2) 0.6654(7)
H29 H 0.0426 0.5441 0.6516
C45 C 0.1381(12) 0.5433(14) 0.6607(6)
H30 H 0.1446 0.6086 0.6443
C46 C 0.1928(8) 0.4881(16) 0.6798(6)
C47 C 0.2578(11) 0.5177(14) 0.6750(6)
C48 C 0.2754(11) 0.6170(19) 0.6557(8)
H31 H 0.2440 0.6650 0.6442
C49 C 0.345(2) 0.6460(17) 0.6535(10)
C50 C 0.353(2) 0.763(2) 0.6276(14)
C51 C 0.3188(9) 0.7913(15) 0.7859(8)
H32 H 0.3406 0.7776 0.7575
C52 C 0.3068(9) 0.8989(13) 0.7965(10)
H33 H 0.3197 0.9549 0.7762
C53 C 0.2730(13) 0.9225(16) 0.8406(12)
H34 H 0.2598 0.9934 0.8479
C54 C 0.2615(13) 0.841(3) 0.8700(9)
H35 H 0.2475 0.8575 0.9006
C55 C 0.2697(16) 0.723(2) 0.8571(11)
H36 H 0.2551 0.6663 0.8763
C56 C 0.3026(9) 0.704(2) 0.8118(7)
C57 C 0.3209(14) 0.5889(15) 0.7988(8)
C58 C 0.2931(9) 0.5069(14) 0.8220(7)
H37 H 0.2627 0.5193 0.8458
C59 C 0.3141(10) 0.3858(16) 0.8070(11)
C60 C 0.2838(16) 0.293(3) 0.8349(13)
C61 C 0.5701(16) 0.487(2) 0.5850(12)
H38 H 0.5677 0.5100 0.6165
C62 C 0.618(2) 0.553(4) 0.5547(12)
H39 H 0.6395 0.6182 0.5621
C63 C 0.6218(14) 0.492(2) 0.5145(15)
H40 H 0.6556 0.5033 0.4932
C64 C 0.578(2) 0.419(3) 0.5057(13)
H41 H 0.5776 0.3997 0.4737
C65 C 0.5269(16) 0.354(3) 0.5344(17)
H42 H 0.5004 0.2960 0.5255
C66 C 0.5321(12) 0.406(2) 0.5750(10)
C67 C 0.4826(12) 0.3781(18) 0.6135(13)
C68 C 0.4454(12) 0.2740(16) 0.6125(9)
H43 H 0.4483 0.2300 0.5855
C69 C 0.4048(12) 0.2373(17) 0.6515(13)
C70 C 0.3746(17) 0.110(3) 0.653(2)
C71 C 0.5353(10) 1.1846(10) 0.7177(9)
H44 H 0.5607 1.2237 0.6962
Eu2A Eu 0.59259(5) 0.45185(6) 0.78318(4)
Eu2_2 Eu 0.40741(5) 1.45185(6) 0.71682(4)
Eu2A_2 Eu 0.59259(5) 1.45185(6) 0.78318(4)
F10A F 0.6946(8) 0.8147(14) 0.8908(7)
F11A F 0.6328(9) 0.8349(12) 0.8360(7)
F12A F 0.5929(12) 0.7740(16) 0.8887(8)
F13A F 0.7648(11) 0.3262(15) 0.6348(9)
F14A F 0.7480(11) 0.2363(12) 0.6993(8)
F15A F 0.6748(11) 0.239(2) 0.6433(9)
F16A F 0.6033(14) 0.0556(15) 0.8324(12)
F17A F 0.6735(10) 0.1172(13) 0.8633(11)
F18A F 0.6052(13) 0.0777(18) 0.9050(7)
O9A O 0.7002(6) 0.4486(8) 0.8079(5)
O10A O 0.6030(7) 0.6093(9) 0.8284(7)
O11A O 0.6291(7) 0.5836(10) 0.7341(6)
O12A O 0.6366(7) 0.3657(8) 0.7196(5)
O13A O 0.6081(8) 0.2834(10) 0.8149(8)
O14A O 0.5219(7) 0.4420(12) 0.8504(8)
O15_2 O 0.5000 0.3399(13) 0.7500
C36A C 0.4918(8) 0.7166(11) 0.7925(8)
H23A H 0.4882 0.6802 0.8214
C37A C 0.4892(8) 0.8326(12) 0.7882(7)
H24A H 0.4787 0.8717 0.8155
C40A C 0.4654(9) 1.0640(14) 0.7847(9)
H25A H 0.4434 1.0264 0.8085
C41A C 0.8230(11) 0.3857(14) 0.7969(8)
H26A H 0.7909 0.3410 0.7840
C42A C 0.8895(13) 0.3566(15) 0.7946(7)
H27A H 0.8986 0.2902 0.7798
C43A C 0.9387(11) 0.4095(16) 0.8103(8)
H28A H 0.9812 0.3858 0.8057
C44A C 0.9237(11) 0.505(2) 0.8346(7)
H29A H 0.9574 0.5441 0.8484
C45A C 0.8619(12) 0.5433(14) 0.8393(6)
H30A H 0.8554 0.6086 0.8557
C46A C 0.8072(8) 0.4881(16) 0.8202(6)
C47A C 0.7422(11) 0.5177(14) 0.8250(6)
C48A C 0.7246(11) 0.6170(19) 0.8443(8)
H31A H 0.7560 0.6650 0.8558
C49A C 0.655(2) 0.6460(17) 0.8465(10)
C50A C 0.647(2) 0.763(2) 0.8724(14)
C51A C 0.6812(9) 0.7913(15) 0.7141(8)
H32A H 0.6594 0.7776 0.7425
C52A C 0.6932(9) 0.8989(13) 0.7035(10)
H33A H 0.6803 0.9549 0.7238
C53A C 0.7270(13) 0.9225(16) 0.6594(12)
H34A H 0.7402 0.9934 0.6521
C54A C 0.7385(13) 0.841(3) 0.6300(9)
H35A H 0.7525 0.8575 0.5994
C55A C 0.7303(16) 0.723(2) 0.6429(11)
H36A H 0.7449 0.6663 0.6237
C56A C 0.6974(9) 0.704(2) 0.6882(7)
C57A C 0.6791(14) 0.5889(15) 0.7012(8)
C58A C 0.7069(9) 0.5069(14) 0.6780(7)
H37A H 0.7373 0.5193 0.6542
C59A C 0.6859(10) 0.3858(16) 0.6930(11)
C60A C 0.7162(16) 0.293(3) 0.6651(13)
C61A C 0.4299(16) 0.487(2) 0.9150(12)
H38A H 0.4323 0.5100 0.8835
C62A C 0.382(2) 0.553(4) 0.9453(12)
H39A H 0.3605 0.6182 0.9379
C63A C 0.3782(14) 0.492(2) 0.9855(15)
H40A H 0.3444 0.5033 1.0068
C64A C 0.422(2) 0.419(3) 0.9943(13)
H41A H 0.4224 0.3997 1.0263
C65A C 0.4731(16) 0.354(3) 0.9656(17)
H42A H 0.4996 0.2960 0.9745
C66A C 0.4679(12) 0.406(2) 0.9250(10)
C67A C 0.5174(12) 0.3781(18) 0.8865(13)
C68A C 0.5546(12) 0.2740(16) 0.8875(9)
H43A H 0.5517 0.2300 0.9145
C69A C 0.5952(12) 0.2373(17) 0.8485(13)
C70A C 0.6254(17) 0.110(3) 0.847(2)
C71A C 0.4647(10) 1.1846(10) 0.7823(9)
H44A H 0.4393 1.2237 0.8038
loop_
_geom_bond_atom_site_label_1
_geom_bond_atom_site_label_2
_geom_bond_site_symmetry_1
_geom_bond_site_symmetry_2
Eu1 O1 1_555 1_555
Eu2 O8 1_555 1_555
F1 C10 1_555 1_555
F2 C10 1_555 1_555
F3 C10 1_555 1_555
F4 C20 1_555 1_555
F5 C20 1_555 1_555
F6 C20 1_555 1_555
F7 C30 1_555 1_555
F8 C30 1_555 1_555
F9 C30 1_555 1_555
F10 C50 1_555 1_555
F11 C50 1_555 1_555
F12 C50 1_555 1_555
F13 C60 1_555 1_555
F14 C60 1_555 1_555
F15 C60 1_555 1_555
F16 C70 1_555 1_555
F17 C70 1_555 1_555
F18 C70 1_555 1_555
O1 C7 1_555 1_555
O2 Eu1 1_555 1_555
O3 Eu1 1_555 1_555
O4 Eu1 1_555 1_555
O5 Eu1 1_555 1_555
O6 Eu1 1_555 1_555
O7 Eu1 1_555 1_555
O8 N2 1_555 1_555
O9 Eu2 1_555 1_555
O10 Eu2 1_555 1_555
O11 Eu2 1_555 1_555
O12 Eu2 1_555 1_555
O13 Eu2 1_555 1_555
O14 Eu2 1_555 1_555
O15 N3 1_555 1_555
N1 O7 1_555 1_555
N2 C36 1_555 1_555
N3 C71 1_555 1_555
C1 H1 1_555 1_555
C2 C1 1_555 1_555
H2 C2 1_555 1_555
C3 C2 1_555 1_555
H3 C3 1_555 1_555
C4 C3 1_555 1_555
H4 C4 1_555 1_555
C5 C4 1_555 1_555
H5 C5 1_555 1_555
C6 C1 1_555 1_555
C7 C6 1_555 1_555
C8 C7 1_555 1_555
H6 C8 1_555 1_555
C9 O2 1_555 1_555
C10 C9 1_555 1_555
C11 H7 1_555 1_555
C12 C11 1_555 1_555
H8 C12 1_555 1_555
C13 C12 1_555 1_555
H9 C13 1_555 1_555
C14 C13 1_555 1_555
H10 C14 1_555 1_555
C15 C14 1_555 1_555
H11 C15 1_555 1_555
C16 C11 1_555 1_555
C17 O3 1_555 1_555
C18 C17 1_555 1_555
H12 C18 1_555 1_555
C19 O4 1_555 1_555
C20 C19 1_555 1_555
C21 H13 1_555 1_555
C22 C21 1_555 1_555
H14 C22 1_555 1_555
C23 C22 1_555 1_555
H15 C23 1_555 1_555
C24 C23 1_555 1_555
H16 C24 1_555 1_555
C25 C24 1_555 1_555
H17 C25 1_555 1_555
C26 C21 1_555 1_555
C27 O5 1_555 1_555
C28 C27 1_555 1_555
H18 C28 1_555 1_555
C29 O6 1_555 1_555
C30 C29 1_555 1_555
C31 N1 1_555 1_555
H19 C31 1_555 1_555
C32 C31 1_555 1_555
H20 C32 1_555 1_555
C33 C32 1_555 1_555
C34 C33 1_555 1_555
H21 C34 1_555 1_555
C35 N1 1_555 1_555
H22 C35 1_555 1_555
C36 H23 1_555 1_555
C37 C36 1_555 1_555
H24 C37 1_555 1_555
C38 C37 1_555 1_555
C39 C38 1_555 1_555
C40 C39 1_555 1_555
H25 C40 1_555 1_555
C41 H26 1_555 1_555
C42 C41 1_555 1_555
H27 C42 1_555 1_555
C43 C42 1_555 1_555
H28 C43 1_555 1_555
C44 C43 1_555 1_555
H29 C44 1_555 1_555
C45 C44 1_555 1_555
H30 C45 1_555 1_555
C46 C41 1_555 1_555
C47 O9 1_555 1_555
C48 C47 1_555 1_555
H31 C48 1_555 1_555
C49 O10 1_555 1_555
C50 C49 1_555 1_555
C51 H32 1_555 1_555
C52 C51 1_555 1_555
H33 C52 1_555 1_555
C53 C52 1_555 1_555
H34 C53 1_555 1_555
C54 C53 1_555 1_555
H35 C54 1_555 1_555
C55 C54 1_555 1_555
H36 C55 1_555 1_555
C56 C51 1_555 1_555
C57 O11 1_555 1_555
C58 C57 1_555 1_555
H37 C58 1_555 1_555
C59 O12 1_555 1_555
C60 C59 1_555 1_555
C61 H38 1_555 1_555
C62 C61 1_555 1_555
H39 C62 1_555 1_555
C63 C62 1_555 1_555
H40 C63 1_555 1_555
C64 C63 1_555 1_555
H41 C64 1_555 1_555
C65 C64 1_555 1_555
H42 C65 1_555 1_555
C66 C61 1_555 1_555
C67 O14 1_555 1_555
C68 C67 1_555 1_555
H43 C68 1_555 1_555
C69 O13 1_555 1_555
C70 C69 1_555 1_555
C71 C40 1_555 1_555
H44 C71 1_555 1_555
Eu1B O7B 1_555 1_555
Eu1B_2 O7 1_555 1_555
Eu1_2 O7B 1_555 1_555
Eu2A O8 1_555 1_555
Eu2_2 O15 1_555 1_555
Eu2A_2 O15 1_555 1_555
F1B C10B 1_555 1_555
F2B C10B 1_555 1_555
F3B C10B 1_555 1_555
F4B C20B 1_555 1_555
F5B C20B 1_555 1_555
F6B C20B 1_555 1_555
F7B C30B 1_555 1_555
F8B C30B 1_555 1_555
F9B C30B 1_555 1_555
F10A C50A 1_555 1_555
F11A C50A 1_555 1_555
F12A C50A 1_555 1_555
F13A C60A 1_555 1_555
F14A C60A 1_555 1_555
F15A C60A 1_555 1_555
F16A C70A 1_555 1_555
F17A C70A 1_555 1_555
F18A C70A 1_555 1_555
O1B Eu1B_2 1_555 1_555
O2B Eu1B_2 1_555 1_555
O3B Eu1B_2 1_555 1_555
O4B Eu1B_2 1_555 1_555
O5B Eu1B_2 1_555 1_555
O6B Eu1B_2 1_555 1_555
O7B N1B 1_555 1_555
O7B_2 Eu1 1_555 1_555
O9A Eu2A 1_555 1_555
O10A Eu2A 1_555 1_555
O11A Eu2A 1_555 1_555
O12A Eu2A 1_555 1_555
O13A Eu2A 1_555 1_555
O14A Eu2A 1_555 1_555
O15_2 Eu2 1_555 1_555
N1B C31B 1_555 1_555
C1B H1B 1_555 1_555
C2B C1B 1_555 1_555
H2B C2B 1_555 1_555
C3B C2B 1_555 1_555
H3B C3B 1_555 1_555
C4B C3B 1_555 1_555
H4B C4B 1_555 1_555
C5B C4B 1_555 1_555
H5B C5B 1_555 1_555
C6B C1B 1_555 1_555
C7B O1B 1_555 1_555
C8B C7B 1_555 1_555
H6B C8B 1_555 1_555
C9B O2B 1_555 1_555
C10B C9B 1_555 1_555
C11B H7B 1_555 1_555
C12B C11B 1_555 1_555
H8B C12B 1_555 1_555
C13B C12B 1_555 1_555
H9B C13B 1_555 1_555
C14B C13B 1_555 1_555
H10B C14B 1_555 1_555
C15B C14B 1_555 1_555
H11B C15B 1_555 1_555
C16B C11B 1_555 1_555
C17B O3B 1_555 1_555
C18B C17B 1_555 1_555
H12B C18B 1_555 1_555
C19B O4B 1_555 1_555
C20B C19B 1_555 1_555
C21B H13B 1_555 1_555
C22B C21B 1_555 1_555
H14B C22B 1_555 1_555
C23B C22B 1_555 1_555
H15B C23B 1_555 1_555
C24B C23B 1_555 1_555
H16B C24B 1_555 1_555
C25B C24B 1_555 1_555
H17B C25B 1_555 1_555
C26B C21B 1_555 1_555
C27B O5B 1_555 1_555
C28B C27B 1_555 1_555
H18B C28B 1_555 1_555
C29B O6B 1_555 1_555
C30B C29B 1_555 1_555
C31B H19B 1_555 1_555
C32B C31B 1_555 1_555
H20B C32B 1_555 1_555
C33B C33 1_555 1_555
C34B C33B 1_555 1_555
H21B C34B 1_555 1_555
C35B N1B 1_555 1_555
H22B C35B 1_555 1_555
C36A N2 1_555 1_555
H23A C36A 1_555 1_555
C37A C38 1_555 1_555
H24A C37A 1_555 1_555
C40A C39 1_555 1_555
H25A C40A 1_555 1_555
C41A H26A 1_555 1_555
C42A C41A 1_555 1_555
H27A C42A 1_555 1_555
C43A C42A 1_555 1_555
H28A C43A 1_555 1_555
C44A C43A 1_555 1_555
H29A C44A 1_555 1_555
C45A C44A 1_555 1_555
H30A C45A 1_555 1_555
C46A C41A 1_555 1_555
C47A O9A 1_555 1_555
C48A C47A 1_555 1_555
H31A C48A 1_555 1_555
C49A O10A 1_555 1_555
C50A C49A 1_555 1_555
C51A H32A 1_555 1_555
C52A C51A 1_555 1_555
H33A C52A 1_555 1_555
C53A C52A 1_555 1_555
H34A C53A 1_555 1_555
C54A C53A 1_555 1_555
H35A C54A 1_555 1_555
C55A C54A 1_555 1_555
H36A C55A 1_555 1_555
C56A C51A 1_555 1_555
C57A O11A 1_555 1_555
C58A C57A 1_555 1_555
H37A C58A 1_555 1_555
C59A O12A 1_555 1_555
C60A C59A 1_555 1_555
C61A H38A 1_555 1_555
C62A C61A 1_555 1_555
H39A C62A 1_555 1_555
C63A C62A 1_555 1_555
H40A C63A 1_555 1_555
C64A C63A 1_555 1_555
H41A C64A 1_555 1_555
C65A C64A 1_555 1_555
H42A C65A 1_555 1_555
C66A C61A 1_555 1_555
C67A O14A 1_555 1_555
C68A C67A 1_555 1_555
H43A C68A 1_555 1_555
C69A O13A 1_555 1_555
C70A C69A 1_555 1_555
C71A N3 1_555 1_555
H44A C71A 1_555 1_555
C5 C6 1_555 1_555
C8 C9 1_555 1_555
C15 C16 1_555 1_555
C16 C17 1_555 1_555
C18 C19 1_555 1_555
C25 C26 1_555 1_555
C26 C27 1_555 1_555
C28 C29 1_555 1_555
C34 C35 1_555 1_555
C45 C46 1_555 1_555
C46 C47 1_555 1_555
C48 C49 1_555 1_555
C55 C56 1_555 1_555
C56 C57 1_555 1_555
C58 C59 1_555 1_555
C65 C66 1_555 1_555
C66 C67 1_555 1_555
C68 C69 1_555 1_555
Eu1B_2 O7B_2 1_555 1_555
Eu2A O15_2 1_555 1_555
C5B C6B 1_555 1_555
C6B C7B 1_555 1_555
C8B C9B 1_555 1_555
C15B C16B 1_555 1_555
C16B C17B 1_555 1_555
C18B C19B 1_555 1_555
C25B C26B 1_555 1_555
C26B C27B 1_555 1_555
C28B C29B 1_555 1_555
C32B C33B 1_555 1_555
C34B C35B 1_555 1_555
C36A C37A 1_555 1_555
C40A C71A 1_555 1_555
C45A C46A 1_555 1_555
C46A C47A 1_555 1_555
C48A C49A 1_555 1_555
C55A C56A 1_555 1_555
C56A C57A 1_555 1_555
C58A C59A 1_555 1_555
C65A C66A 1_555 1_555
C66A C67A 1_555 1_555
C68A C69A 1_555 1_555

#END
