
#######################################################################
#
#                 Cambridge Crystallographic Data Centre
#                                CCDC 
#
#######################################################################
#
# If this CIF has been generated from an entry in the Cambridge 
# Structural Database, then it will include bibliographic, chemical, 
# crystal, experimental, refinement or atomic coordinate data resulting 
# from the CCDC's data processing and validation procedures.
#
#######################################################################

data_FISGOF
_symmetry_cell_setting           rhombohedral
_symmetry_space_group_name_H-M   'R 3 m'
_symmetry_Int_Tables_number      160
_space_group_name_Hall           'R 3 -2"'
loop_
_symmetry_equiv_pos_site_id
_symmetry_equiv_pos_as_xyz
1 x,y,z
2 -y,x-y,z
3 -x+y,-x,z
4 -y,-x,z
5 x,x-y,z
6 -x+y,y,z
7 2/3+x,1/3+y,1/3+z
8 2/3-y,1/3+x-y,1/3+z
9 2/3-x+y,1/3-x,1/3+z
10 2/3-y,1/3-x,1/3+z
11 2/3+x,1/3+x-y,1/3+z
12 2/3-x+y,1/3+y,1/3+z
13 1/3+x,2/3+y,2/3+z
14 1/3-y,2/3+x-y,2/3+z
15 1/3-x+y,2/3-x,2/3+z
16 1/3-y,2/3-x,2/3+z
17 1/3+x,2/3+x-y,2/3+z
18 1/3-x+y,2/3+y,2/3+z
_cell_length_a                   26.2119(14)
_cell_length_b                   26.2119(14)
_cell_length_c                   36.423(3)
_cell_angle_alpha                90
_cell_angle_beta                 90
_cell_angle_gamma                120
_cell_volume                     21672.2
loop_
_atom_site_label
_atom_site_type_symbol
_atom_site_fract_x
_atom_site_fract_y
_atom_site_fract_z
Cu1 Cu 0.19773(3) 0.39545(5) 0.03009(3)
Cu2 Cu 0.22983(3) 0.45967(5) -0.03008(3)
O1 O 0.3048(3) 0.5056(2) -0.00536(16)
O2 O 0.2738(2) 0.4481(2) 0.04740(17)
O3 O 0.8188(2) 0.7385(2) 0.28687(14)
O4 O 0.7900(2) 0.6833(2) 0.33838(15)
O5 O 0.2567(2) 0.5133(5) -0.0815(2)
O6 O 0.17423(17) 0.3485(3) 0.0810(2)
C1 C 0.3096(4) 0.4897(4) 0.0297(2)
C2 C 0.4098(2) 0.5902(2) 0.0252(3)
H1 H 0.4017 0.5983 0.0017
C3 C 0.3714(3) 0.5372(3) 0.0463(2)
C4 C 0.3847(3) 0.5233(3) 0.0812(2)
H2 H 0.3579 0.4891 0.0934
C5 C 0.4383(3) 0.5617(3) 0.0967(3)
C6 C 0.4515(4) 0.5485(4) 0.1285(4)
C7 C 0.4633(4) 0.5367(4) 0.1545(5)
C8 C 0.4811(4) 0.5189(4) 0.1900(4)
C9 C 0.5344(5) 0.5535(4) 0.2079(3)
H3 H 0.5606 0.5888 0.1965
C10 C 0.5530(4) 0.5410(4) 0.2412(3)
C11 C 0.5130(3) 0.4870(3) 0.2588(3)
H4 H 0.5220 0.4780 0.2817
C12 C 0.6135(5) 0.5833(5) 0.2600(3)
C13 C 0.6579(6) 0.6269(5) 0.2401(3)
H5 H 0.6510 0.6304 0.2154
C14 C 0.7123(5) 0.6661(5) 0.2543(3)
H6 H 0.7413 0.6972 0.2409
C15 C 0.7195(4) 0.6553(4) 0.2891(2)
C16 C 0.6791(5) 0.6131(5) 0.3094(3)
H7 H 0.6887 0.6058 0.3327
C17 C 0.6190(5) 0.5776(5) 0.2954(3)
H8 H 0.5873 0.5530 0.3103
C18 C 0.7809(3) 0.6931(3) 0.3060(2)
O1C O 0.4944(2) 0.6952(3) -0.00536(16)
O2C O 0.5519(2) 0.7262(2) 0.04740(17)
O3C O 0.2615(2) 0.1812(2) 0.28687(14)
O4C O 0.3167(2) 0.2100(2) 0.33838(15)
C1C C 0.5103(4) 0.6904(4) 0.0297(2)
C3C C 0.4628(3) 0.6286(3) 0.0463(2)
C4C C 0.4767(3) 0.6153(3) 0.0812(2)
H2C H 0.5109 0.6421 0.0934
C9C C 0.4465(4) 0.4656(5) 0.2079(3)
H3C H 0.4112 0.4394 0.1965
C10C C 0.4590(4) 0.4470(4) 0.2412(3)
C12C C 0.4167(5) 0.3865(5) 0.2600(3)
C13C C 0.3731(5) 0.3421(6) 0.2401(3)
H5C H 0.3696 0.3490 0.2154
C14C C 0.3339(5) 0.2877(5) 0.2543(3)
H6C H 0.3028 0.2587 0.2409
C15C C 0.3447(4) 0.2805(4) 0.2891(2)
C16C C 0.3869(5) 0.3209(5) 0.3094(3)
H7C H 0.3942 0.3113 0.3327
C17C C 0.4224(5) 0.3810(5) 0.2954(3)
H8C H 0.4470 0.4127 0.3103
C18C C 0.3069(3) 0.2191(3) 0.3060(2)
Cu1A Cu 0.60455(5) 0.80228(6) 0.03009(3)
Cu1F Cu 0.86440(3) 0.72878(5) 0.36342(3)
Cu1G Cu 0.27122(5) 0.13561(6) 0.36342(3)
Cu2A Cu 0.54033(5) 0.77016(6) -0.03008(3)
Cu2F Cu 0.89650(3) 0.79300(5) 0.30325(3)
Cu2G Cu 0.20700(5) 0.10349(6) 0.30325(3)
O1E O 0.2008(4) 0.5056(2) -0.00536(16)
O2E O 0.1743(3) 0.4481(2) 0.04740(17)
O3L O 0.1521(2) 0.4052(2) -0.04646(14)
O3Q O 0.2530(3) 0.4052(2) -0.04646(14)
O4L O 0.1233(2) 0.3500(2) 0.00505(15)
O4Q O 0.2266(3) 0.3500(2) 0.00505(15)
loop_
_geom_bond_atom_site_label_1
_geom_bond_atom_site_label_2
_geom_bond_site_symmetry_1
_geom_bond_site_symmetry_2
Cu1 Cu2 1_555 1_555
Cu2 O1 1_555 1_555
O1 C1 1_555 1_555
O2 Cu1 1_555 1_555
O3 C18 1_555 1_555
O4 C18 1_555 1_555
O5 Cu2 1_555 1_555
O6 Cu1 1_555 1_555
C1 O2 1_555 1_555
C2 H1 1_555 1_555
C3 C1 1_555 1_555
C4 C3 1_555 1_555
H2 C4 1_555 1_555
C5 C4 1_555 1_555
C6 C5 1_555 1_555
C7 C6 1_555 1_555
C8 C7 1_555 1_555
C9 C8 1_555 1_555
H3 C9 1_555 1_555
C10 C9 1_555 1_555
C11 C10 1_555 1_555
H4 C11 1_555 1_555
C12 C10 1_555 1_555
C13 C12 1_555 1_555
H5 C13 1_555 1_555
C14 C13 1_555 1_555
H6 C14 1_555 1_555
C15 C14 1_555 1_555
C16 C15 1_555 1_555
H7 C16 1_555 1_555
C17 C12 1_555 1_555
H8 C17 1_555 1_555
C18 C15 1_555 1_555
O1C C1C 1_555 1_555
O2C C1C 1_555 1_555
O3C C18C 1_555 1_555
O4C C18C 1_555 1_555
C1C C3C 1_555 1_555
C3C C2 1_555 1_555
C4C C5 1_555 1_555
H2C C4C 1_555 1_555
C9C C8 1_555 1_555
H3C C9C 1_555 1_555
C10C C11 1_555 1_555
C12C C10C 1_555 1_555
C13C C12C 1_555 1_555
H5C C13C 1_555 1_555
C14C C13C 1_555 1_555
H6C C14C 1_555 1_555
C15C C14C 1_555 1_555
C16C C15C 1_555 1_555
H7C C16C 1_555 1_555
C17C C12C 1_555 1_555
H8C C17C 1_555 1_555
C18C C15C 1_555 1_555
Cu1A O2C 1_555 1_555
Cu1F O4 1_555 1_555
Cu1G O4C 1_555 1_555
Cu2A O1C 1_555 1_555
Cu2F O3 1_555 1_555
Cu2G O3C 1_555 1_555
O1E Cu2 1_555 1_555
O2E Cu1 1_555 1_555
O3L Cu2 1_555 1_555
O3Q Cu2 1_555 1_555
O4L Cu1 1_555 1_555
O4Q Cu1 1_555 1_555
C2 C3 1_555 1_555
C16 C17 1_555 1_555
C3C C4C 1_555 1_555
C9C C10C 1_555 1_555
C16C C17C 1_555 1_555
Cu1A Cu2A 1_555 1_555
Cu1F Cu2F 1_555 1_555
Cu1G Cu2G 1_555 1_555

#END
