
#######################################################################
#
#                 Cambridge Crystallographic Data Centre
#                                CCDC 
#
#######################################################################
#
# If this CIF has been generated from an entry in the Cambridge 
# Structural Database, then it will include bibliographic, chemical, 
# crystal, experimental, refinement or atomic coordinate data resulting 
# from the CCDC's data processing and validation procedures.
#
#######################################################################

data_FISSUX
_symmetry_cell_setting           monoclinic
_symmetry_space_group_name_H-M   'P 21/c'
_symmetry_Int_Tables_number      14
_space_group_name_Hall           '-P 2ybc'
loop_
_symmetry_equiv_pos_site_id
_symmetry_equiv_pos_as_xyz
1 x,y,z
2 -x,1/2+y,1/2-z
3 -x,-y,-z
4 x,1/2-y,1/2+z
_cell_length_a                   13.750(3)
_cell_length_b                   7.6108(15)
_cell_length_c                   21.492(7)
_cell_angle_alpha                90
_cell_angle_beta                 116.07(2)
_cell_angle_gamma                90
_cell_volume                     2020.28
loop_
_atom_site_label
_atom_site_type_symbol
_atom_site_fract_x
_atom_site_fract_y
_atom_site_fract_z
O1 O 0.4277(3) 0.4956(5) 1.1795(2)
H1 H 0.4353 0.5885 1.1601
Tb1 Tb 0.358954(14) 0.23219(2) 1.112373(9)
O2 O 0.3816(2) 0.0394(4) 1.02725(14)
O3 O 0.2144(2) 0.0985(4) 1.00860(15)
O4 O -0.2706(3) -0.2149(4) 0.81626(17)
O5 O -0.3967(3) -0.2166(5) 0.70589(19)
O6 O 0.3223(3) -0.2423(5) 0.73436(19)
O7 O 0.4572(3) -0.2026(5) 0.83863(18)
O8 O 0.2146(3) 0.4400(4) 1.06275(18)
O9 O 0.4019(3) 0.4017(4) 1.03241(18)
H2 H 0.3841 0.3633 0.9917
O10 O 0.3962(4) -0.0574(4) 1.1624(2)
N1 N 0.1116(3) 0.6826(6) 1.0489(2)
C1 C -0.0264(3) -0.0947(5) 0.7533(2)
C2 C -0.1046(3) -0.1394(5) 0.7754(2)
H3 H -0.0835 -0.1667 0.8217
C3 C -0.2150(3) -0.1437(5) 0.7284(2)
C4 C -0.2454(3) -0.1024(6) 0.6596(2)
H4 H -0.3183 -0.1033 0.6284
C5 C -0.1682(4) -0.0595(6) 0.6366(2)
H5 H -0.1894 -0.0345 0.5901
C6 C -0.0600(3) -0.0543(6) 0.6833(2)
H6 H -0.0087 -0.0235 0.6680
C7 C -0.3008(3) -0.1954(6) 0.7514(2)
C8 C 0.0917(3) -0.0914(5) 0.8023(2)
C9 C 0.1304(3) -0.0308(5) 0.8702(2)
H7 H 0.0815 0.0107 0.8858
C10 C 0.2409(3) -0.0306(5) 0.9153(2)
C11 C 0.3151(3) -0.0873(5) 0.8916(2)
H8 H 0.3888 -0.0859 0.9212
C12 C 0.2791(3) -0.1461(5) 0.8237(2)
C13 C 0.1680(3) -0.1481(5) 0.7799(2)
H9 H 0.1441 -0.1881 0.7347
C14 C 0.2804(3) 0.0383(5) 0.9876(2)
C15 C 0.3590(3) -0.2030(6) 0.7972(2)
C16 C 0.1830(4) 0.5640(7) 1.0865(3)
H10 H 0.2117 0.5740 1.1344
C17 C 0.0637(5) 0.6765(9) 0.9742(3)
H11 H 0.1028 0.7533 0.9578
H12 H -0.0105 0.7136 0.9557
H13 H 0.0669 0.5585 0.9594
C18 C 0.0824(6) 0.8298(8) 1.0806(3)
H14 H 0.1215 0.8216 1.1301
H15 H 0.0061 0.8267 1.0673
H16 H 0.1005 0.9380 1.0652
H17 H 0.400(5) 0.532(8) 1.201(3)
H18 H 0.366(4) -0.105(8) 1.182(3)
H19 H 0.450(3) -0.117(6) 1.165(3)
H20 H 0.416(5) 0.509(2) 1.0321(13)
Tb1B Tb -0.358954(14) -0.23219(2) 0.887627(9)
Tb1B_2 Tb 0.641046(14) -0.23219(2) 0.887627(9)
O4B O 0.2706(3) 0.2149(4) 1.18374(17)
O7B O 0.5428(3) 0.2026(5) 1.16137(18)
O11 O 0.5047(3) 0.2737(4) 0.9436(2)
H21 H 0.4776 0.2119 0.9070
H22 H 0.553(3) 0.207(3) 0.9730(10)
loop_
_geom_bond_atom_site_label_1
_geom_bond_atom_site_label_2
_geom_bond_site_symmetry_1
_geom_bond_site_symmetry_2
O1 H1 1_555 1_555
Tb1 O1 1_555 1_555
O2 Tb1 1_555 1_555
O3 Tb1 1_555 1_555
O4 C7 1_555 1_555
O5 C7 1_555 1_555
O6 C15 1_555 1_555
O7 C15 1_555 1_555
O8 Tb1 1_555 1_555
O9 Tb1 1_555 1_555
H2 O9 1_555 1_555
O10 Tb1 1_555 1_555
N1 C16 1_555 1_555
C1 C2 1_555 1_555
C2 H3 1_555 1_555
C3 C2 1_555 1_555
C4 C3 1_555 1_555
H4 C4 1_555 1_555
C5 C4 1_555 1_555
H5 C5 1_555 1_555
C6 C1 1_555 1_555
H6 C6 1_555 1_555
C7 C3 1_555 1_555
C8 C1 1_555 1_555
C9 C8 1_555 1_555
H7 C9 1_555 1_555
C10 C9 1_555 1_555
C11 C10 1_555 1_555
H8 C11 1_555 1_555
C12 C11 1_555 1_555
C13 C8 1_555 1_555
H9 C13 1_555 1_555
C14 O2 1_555 1_555
C15 C12 1_555 1_555
C16 O8 1_555 1_555
H10 C16 1_555 1_555
C17 N1 1_555 1_555
H11 C17 1_555 1_555
H12 C17 1_555 1_555
H13 C17 1_555 1_555
C18 N1 1_555 1_555
H14 C18 1_555 1_555
H15 C18 1_555 1_555
H16 C18 1_555 1_555
H17 O1 1_555 1_555
H18 O10 1_555 1_555
H19 O10 1_555 1_555
H20 O9 1_555 1_555
O11 H21 1_555 1_555
H22 O11 1_555 1_555
Tb1B O4 1_555 1_555
Tb1B_2 O7 1_555 1_555
O4B Tb1 1_555 1_555
O7B Tb1 1_555 1_555
O3 C14 1_555 1_555
C5 C6 1_555 1_555
C10 C14 1_555 1_555
C12 C13 1_555 1_555

#END
