
#######################################################################
#
#                 Cambridge Crystallographic Data Centre
#                                CCDC 
#
#######################################################################
#
# If this CIF has been generated from an entry in the Cambridge 
# Structural Database, then it will include bibliographic, chemical, 
# crystal, experimental, refinement or atomic coordinate data resulting 
# from the CCDC's data processing and validation procedures.
#
#######################################################################

data_FISYIQ
_symmetry_cell_setting           monoclinic
_symmetry_space_group_name_H-M   'C c'
_symmetry_Int_Tables_number      9
_space_group_name_Hall           'C -2yc'
loop_
_symmetry_equiv_pos_site_id
_symmetry_equiv_pos_as_xyz
1 x,y,z
2 x,-y,1/2+z
3 1/2+x,1/2+y,z
4 1/2+x,1/2-y,1/2+z
_cell_length_a                   11.3936(3)
_cell_length_b                   15.8186(4)
_cell_length_c                   16.5035(5)
_cell_angle_alpha                90
_cell_angle_beta                 107.7930(10)
_cell_angle_gamma                90
_cell_volume                     2832.16
loop_
_atom_site_label
_atom_site_type_symbol
_atom_site_fract_x
_atom_site_fract_y
_atom_site_fract_z
Cu1 Cu 0.12432(6) 0.89216(5) 0.61317(5)
P1 P -0.04402(16) 0.94839(10) 0.62947(12)
N1 N 0.1714(5) 0.8780(4) 0.5074(4)
N2 N 0.0950(6) 0.7426(4) 0.4781(4)
H1 H 0.0658 0.7482 0.5200
N3 N -0.2290(5) 0.6245(4) 0.2184(4)
C1 C -0.1902(7) 0.9243(5) 0.5509(5)
C2 C -0.3015(7) 0.9372(6) 0.5668(7)
H2 H -0.3026 0.9559 0.6199
C3 C -0.4150(8) 0.9215(7) 0.5008(8)
H3 H -0.4902 0.9303 0.5108
C4 C -0.4119(10) 0.8946(7) 0.4267(9)
H4 H -0.4859 0.8850 0.3843
C5 C -0.2998(12) 0.8796(9) 0.4084(8)
H5 H -0.3002 0.8594 0.3554
C6 C -0.1910(10) 0.8954(7) 0.4705(7)
H6 H -0.1168 0.8868 0.4592
C7 C -0.0669(6) 0.9215(5) 0.7312(5)
C8 C -0.0927(11) 0.8385(6) 0.7423(8)
H7 H -0.1067 0.8011 0.6969
C9 C -0.0980(13) 0.8103(8) 0.8187(10)
H8 H -0.1163 0.7537 0.8246
C10 C -0.0773(12) 0.8626(10) 0.8865(9)
H9 H -0.0801 0.8427 0.9389
C11 C -0.0525(16) 0.9439(10) 0.8760(8)
H10 H -0.0383 0.9810 0.9217
C12 C -0.0476(12) 0.9742(8) 0.7971(7)
H11 H -0.0309 1.0310 0.7907
C13 C -0.0299(7) 1.0646(4) 0.6282(4)
C14 C -0.1263(8) 1.1180(5) 0.6302(7)
H12 H -0.1996 1.0949 0.6338
C15 C -0.1147(9) 1.2022(6) 0.6272(6)
H13 H -0.1808 1.2369 0.6269
C16 C -0.0026(10) 1.2386(6) 0.6244(6)
H14 H 0.0058 1.2970 0.6227
C17 C 0.0938(11) 1.1862(6) 0.6243(7)
H15 H 0.1682 1.2088 0.6223
C18 C 0.0788(8) 1.0992(5) 0.6273(6)
H16 H 0.1446 1.0638 0.6286
C19 C 0.2264(8) 0.9468(5) 0.4828(6)
H17 H 0.2450 0.9931 0.5193
C20 C 0.2551(8) 0.9516(7) 0.4094(7)
H18 H 0.2934 0.9995 0.3967
C21 C 0.2270(9) 0.8846(7) 0.3538(6)
H19 H 0.2439 0.8869 0.3022
C22 C 0.1729(7) 0.8135(6) 0.3762(5)
H20 H 0.1550 0.7670 0.3399
C23 C 0.1454(6) 0.8113(5) 0.4529(4)
C24 C 0.0876(7) 0.6613(5) 0.4394(5)
H21 H 0.0856 0.6187 0.4812
H22 H 0.1616 0.6522 0.4233
C25 C -0.0236(7) 0.6491(5) 0.3615(5)
C26 C -0.0201(8) 0.5956(5) 0.2963(5)
H23 H 0.0523 0.5668 0.2994
C27 C -0.1229(8) 0.5845(5) 0.2265(6)
H24 H -0.1180 0.5478 0.1836
C28 C -0.2338(8) 0.6751(6) 0.2809(6)
H25 H -0.3076 0.7030 0.2757
C29 C -0.1360(7) 0.6893(6) 0.3535(5)
H26 H -0.1447 0.7249 0.3962
Cu1C Cu -0.37568(6) 0.60784(5) 0.11317(5)
N3C N 0.2710(5) 0.8755(4) 0.7184(4)
Cl1 Cl -0.5187(2) 1.13018(14) 0.64417(17)
O1 O -0.4322(16) 1.0638(12) 0.6769(13)
O2 O -0.4539(11) 1.2039(6) 0.6425(7)
O3 O -0.5803(19) 1.1058(15) 0.5718(11)
O4 O -0.5855(9) 1.1334(5) 0.7036(6)
loop_
_geom_bond_atom_site_label_1
_geom_bond_atom_site_label_2
_geom_bond_site_symmetry_1
_geom_bond_site_symmetry_2
Cu1 P1 1_555 1_555
P1 C1 1_555 1_555
Cl1 O1 1_555 1_555
O2 Cl1 1_555 1_555
O3 Cl1 1_555 1_555
O4 Cl1 1_555 1_555
N1 Cu1 1_555 1_555
N2 H1 1_555 1_555
N3 C27 1_555 1_555
C1 C2 1_555 1_555
C2 H2 1_555 1_555
C3 C2 1_555 1_555
H3 C3 1_555 1_555
C4 C3 1_555 1_555
H4 C4 1_555 1_555
C5 C4 1_555 1_555
H5 C5 1_555 1_555
C6 C1 1_555 1_555
H6 C6 1_555 1_555
C7 P1 1_555 1_555
C8 C7 1_555 1_555
H7 C8 1_555 1_555
C9 C8 1_555 1_555
H8 C9 1_555 1_555
C10 C9 1_555 1_555
H9 C10 1_555 1_555
C11 C10 1_555 1_555
H10 C11 1_555 1_555
C12 C7 1_555 1_555
H11 C12 1_555 1_555
C13 P1 1_555 1_555
C14 C13 1_555 1_555
H12 C14 1_555 1_555
C15 C14 1_555 1_555
H13 C15 1_555 1_555
C16 C15 1_555 1_555
H14 C16 1_555 1_555
C17 C16 1_555 1_555
H15 C17 1_555 1_555
C18 C13 1_555 1_555
H16 C18 1_555 1_555
C19 N1 1_555 1_555
H17 C19 1_555 1_555
C20 C19 1_555 1_555
H18 C20 1_555 1_555
C21 C20 1_555 1_555
H19 C21 1_555 1_555
C22 C21 1_555 1_555
H20 C22 1_555 1_555
C23 N1 1_555 1_555
C24 N2 1_555 1_555
H21 C24 1_555 1_555
H22 C24 1_555 1_555
C25 C24 1_555 1_555
C26 C25 1_555 1_555
H23 C26 1_555 1_555
C27 C26 1_555 1_555
H24 C27 1_555 1_555
C28 N3 1_555 1_555
H25 C28 1_555 1_555
C29 C25 1_555 1_555
H26 C29 1_555 1_555
Cu1C N3 1_555 1_555
N3C Cu1 1_555 1_555
N2 C23 1_555 1_555
C5 C6 1_555 1_555
C11 C12 1_555 1_555
C17 C18 1_555 1_555
C22 C23 1_555 1_555
C28 C29 1_555 1_555

#END
