
#######################################################################
#
#                 Cambridge Crystallographic Data Centre
#                                CCDC 
#
#######################################################################
#
# If this CIF has been generated from an entry in the Cambridge 
# Structural Database, then it will include bibliographic, chemical, 
# crystal, experimental, refinement or atomic coordinate data resulting 
# from the CCDC's data processing and validation procedures.
#
#######################################################################

data_FISZAK
_symmetry_cell_setting           monoclinic
_symmetry_space_group_name_H-M   'P 21/c'
_symmetry_Int_Tables_number      14
_space_group_name_Hall           '-P 2ybc'
loop_
_symmetry_equiv_pos_site_id
_symmetry_equiv_pos_as_xyz
1 x,y,z
2 -x,1/2+y,1/2-z
3 -x,-y,-z
4 x,1/2-y,1/2+z
_cell_length_a                   17.9633(11)
_cell_length_b                   10.9455(7)
_cell_length_c                   21.5072(14)
_cell_angle_alpha                90
_cell_angle_beta                 114.598(2)
_cell_angle_gamma                90
_cell_volume                     3844.94
loop_
_atom_site_label
_atom_site_type_symbol
_atom_site_fract_x
_atom_site_fract_y
_atom_site_fract_z
Zn1 Zn 0.282537(19) 0.17972(3) 0.498812(16)
Zn2 Zn 0.100372(19) 0.17925(3) 0.437121(16)
F1 F -0.44832(13) 0.1510(2) 0.35316(12)
F2 F 0.79653(11) 0.08396(18) 0.85056(9)
O1 O 0.26031(13) 0.1762(2) 0.39803(11)
O2 O 0.12469(13) 0.19830(18) 0.35415(10)
O3 O 0.25225(14) 0.3143(2) 0.07969(11)
O4 O 0.11587(13) 0.32221(19) 0.03544(10)
O5 O 0.25807(14) 0.3623(2) 0.48655(13)
O6 O 0.12239(13) 0.36548(19) 0.45168(11)
O7 O 0.27460(13) 0.99358(18) 0.49778(11)
O8 O 0.13795(13) 0.99974(17) 0.44673(10)
N1 N -0.02096(14) 0.1427(2) 0.38695(12)
N2 N 0.40693(15) 0.1842(2) 0.54487(13)
C1 C -0.06871(18) 0.1310(3) 0.42085(16)
H1 H -0.0444 0.1398 0.4692
C2 C -0.15081(19) 0.1069(3) 0.38892(16)
H2 H -0.1818 0.0988 0.4153
C3 C -0.18925(18) 0.0942(3) 0.31809(15)
C4 C -0.13870(18) 0.1033(3) 0.28321(15)
H3 H -0.1611 0.0925 0.2350
C5 C -0.05672(17) 0.1278(3) 0.31887(14)
H4 H -0.0237 0.1344 0.2941
C6 C -0.27697(18) 0.0717(3) 0.28038(16)
H5 H -0.2965 0.0543 0.2329
C7 C -0.33192(19) 0.0736(3) 0.30757(17)
H6 H -0.3130 0.0929 0.3547
C8 C -0.41900(19) 0.0478(3) 0.26938(17)
C9 C -0.4760(2) 0.0903(3) 0.29231(19)
C10 C -0.5590(2) 0.0735(4) 0.2579(2)
H7 H -0.5955 0.1050 0.2757
C11 C -0.5882(2) 0.0100(4) 0.1969(2)
H8 H -0.6454 -0.0014 0.1717
C12 C -0.5342(2) -0.0368(4) 0.1728(2)
H9 H -0.5541 -0.0822 0.1314
C13 C -0.4510(2) -0.0180(3) 0.20851(18)
H10 H -0.4147 -0.0510 0.1910
C14 C 0.44694(19) 0.1998(3) 0.61266(15)
H11 H 0.4164 0.2215 0.6380
C15 C 0.53067(19) 0.1858(3) 0.64723(16)
H12 H 0.5568 0.1995 0.6952
C16 C 0.57694(18) 0.1511(3) 0.61134(15)
C17 C 0.53408(19) 0.1389(3) 0.54053(16)
H13 H 0.5627 0.1189 0.5134
C18 C 0.45090(19) 0.1555(3) 0.51008(17)
H14 H 0.4233 0.1462 0.4619
C19 C 0.66429(18) 0.1271(3) 0.64330(16)
H15 H 0.6907 0.1126 0.6139
C20 C 0.71068(18) 0.1236(3) 0.71049(15)
H16 H 0.6842 0.1367 0.7401
C21 C 0.79904(18) 0.1012(3) 0.74227(15)
C22 C 0.84077(19) 0.0843(3) 0.81226(16)
C23 C 0.92402(18) 0.0684(3) 0.84502(16)
H17 H 0.9500 0.0569 0.8931
C24 C 0.96909(19) 0.0695(3) 0.80639(17)
H18 H 1.0269 0.0606 0.8280
C25 C 0.92973(18) 0.0837(3) 0.73577(16)
H19 H 0.9606 0.0822 0.7091
C26 C 0.84681(18) 0.0997(3) 0.70459(16)
H20 H 0.8209 0.1101 0.6564
C27 C 0.19211(18) 0.1977(3) 0.34966(15)
C28 C 0.19043(18) 0.2248(3) 0.28067(14)
C29 C 0.26308(18) 0.2388(3) 0.27317(15)
H21 H 0.3140 0.2299 0.3117
C30 C 0.26162(19) 0.2657(3) 0.21012(15)
H22 H 0.3116 0.2746 0.2054
C31 C 0.18715(18) 0.2798(3) 0.15309(14)
C32 C 0.11488(19) 0.2660(3) 0.16089(15)
H23 H 0.0638 0.2749 0.1225
C33 C 0.11663(18) 0.2393(3) 0.22438(15)
H24 H 0.0667 0.2308 0.2293
C34 C 0.18479(19) 0.3078(3) 0.08396(15)
C35 C 0.19062(19) 0.4156(3) 0.47064(15)
C36 C 0.19389(17) 0.5536(3) 0.47319(14)
C37 C 0.12297(19) 0.6213(3) 0.44403(16)
H25 H 0.0714 0.5813 0.4242
C38 C 0.12687(18) 0.7480(3) 0.44362(15)
H26 H 0.0780 0.7944 0.4229
C39 C 0.20196(18) 0.8070(3) 0.47345(14)
C40 C 0.27292(18) 0.7384(3) 0.50421(15)
H27 H 0.3245 0.7779 0.5254
C41 C 0.26824(19) 0.6117(3) 0.50389(15)
H28 H 0.3169 0.5648 0.5251
C42 C 0.20521(18) 0.9446(3) 0.47256(14)
Zn1_2 Zn 0.282537(19) 1.17972(3) 0.498812(16)
Zn1C Zn 0.282537(19) 0.32028(3) -0.001188(16)
Zn2_2 Zn 0.100372(19) 1.17925(3) 0.437121(16)
Zn2C Zn 0.100372(19) 0.32075(3) -0.062879(16)
O3C O 0.25225(14) 0.1857(2) 0.57969(11)
O4C O 0.11587(13) 0.17779(19) 0.53544(10)
O7_2 O 0.27460(13) -0.00642(18) 0.49778(11)
O8_2 O 0.13795(13) -0.00026(17) 0.44673(10)
O10 O 0.3550(5) 0.4491(9) 0.4021(4)
H33 H 0.3142 0.4628 0.4107
C44 C 0.4243(7) 0.5180(14) 0.4487(6)
H34 H 0.4455 0.5699 0.4226
H35 H 0.4672 0.4617 0.4774
H36 H 0.4071 0.5693 0.4777
O10B O 0.6450(5) 0.5509(9) 0.5979(4)
H33B H 0.6858 0.5372 0.5893
C44B C 0.5757(7) 0.4820(14) 0.5513(6)
H34B H 0.5545 0.4301 0.5774
H35B H 0.5328 0.5383 0.5226
H36B H 0.5929 0.4307 0.5223
O9? O 0.4740(9) 0.4762(18) 0.4986(8)
H29? H 0.4612 0.4653 0.5316
C43? C 0.4055(10) 0.448(2) 0.4360(8)
H30? H 0.3581 0.4277 0.4456
H31? H 0.4189 0.3781 0.4141
H32? H 0.3924 0.5188 0.4054
loop_
_geom_bond_atom_site_label_1
_geom_bond_atom_site_label_2
_geom_bond_site_symmetry_1
_geom_bond_site_symmetry_2
Zn1 O1 1_555 1_555
Zn2 O2 1_555 1_555
F1 C9 1_555 1_555
F2 C22 1_555 1_555
O1 C27 1_555 1_555
O2 C27 1_555 1_555
O3 C34 1_555 1_555
O4 C34 1_555 1_555
O5 Zn1 1_555 1_555
O6 Zn2 1_555 1_555
O7 C42 1_555 1_555
O8 C42 1_555 1_555
N1 Zn2 1_555 1_555
N2 Zn1 1_555 1_555
C1 N1 1_555 1_555
H1 C1 1_555 1_555
C2 C1 1_555 1_555
H2 C2 1_555 1_555
C3 C2 1_555 1_555
C4 C3 1_555 1_555
H3 C4 1_555 1_555
C5 N1 1_555 1_555
H4 C5 1_555 1_555
C6 C3 1_555 1_555
H5 C6 1_555 1_555
C7 C6 1_555 1_555
H6 C7 1_555 1_555
C8 C7 1_555 1_555
C9 C8 1_555 1_555
C10 C9 1_555 1_555
H7 C10 1_555 1_555
C11 C10 1_555 1_555
H8 C11 1_555 1_555
C12 C11 1_555 1_555
H9 C12 1_555 1_555
C13 C8 1_555 1_555
H10 C13 1_555 1_555
C14 N2 1_555 1_555
H11 C14 1_555 1_555
C15 C14 1_555 1_555
H12 C15 1_555 1_555
C16 C15 1_555 1_555
C17 C16 1_555 1_555
H13 C17 1_555 1_555
C18 N2 1_555 1_555
H14 C18 1_555 1_555
C19 C16 1_555 1_555
H15 C19 1_555 1_555
C20 C19 1_555 1_555
H16 C20 1_555 1_555
C21 C20 1_555 1_555
C22 C21 1_555 1_555
C23 C22 1_555 1_555
H17 C23 1_555 1_555
C24 C23 1_555 1_555
H18 C24 1_555 1_555
C25 C24 1_555 1_555
H19 C25 1_555 1_555
C26 C21 1_555 1_555
H20 C26 1_555 1_555
C27 C28 1_555 1_555
C28 C29 1_555 1_555
C29 H21 1_555 1_555
C30 C29 1_555 1_555
H22 C30 1_555 1_555
C31 C30 1_555 1_555
C32 C31 1_555 1_555
H23 C32 1_555 1_555
C33 C28 1_555 1_555
H24 C33 1_555 1_555
C34 C31 1_555 1_555
C35 O5 1_555 1_555
C36 C35 1_555 1_555
C37 C36 1_555 1_555
H25 C37 1_555 1_555
C38 C37 1_555 1_555
H26 C38 1_555 1_555
C39 C38 1_555 1_555
C40 C39 1_555 1_555
H27 C40 1_555 1_555
C41 C36 1_555 1_555
H28 C41 1_555 1_555
C42 C39 1_555 1_555
O10 H33 1_555 1_555
C44 O10 1_555 1_555
H34 C44 1_555 1_555
H35 C44 1_555 1_555
H36 C44 1_555 1_555
Zn1_2 O7 1_555 1_555
Zn1C O3 1_555 1_555
Zn2_2 O8 1_555 1_555
Zn2C O4 1_555 1_555
O3C Zn1 1_555 1_555
O4C Zn2 1_555 1_555
O7_2 Zn1 1_555 1_555
O8_2 Zn2 1_555 1_555
O10B H33B 1_555 1_555
C44B O10B 1_555 1_555
H34B C44B 1_555 1_555
H35B C44B 1_555 1_555
H36B C44B 1_555 1_555
O6 C35 1_555 1_555
C4 C5 1_555 1_555
C12 C13 1_555 1_555
C17 C18 1_555 1_555
C25 C26 1_555 1_555
C32 C33 1_555 1_555
C40 C41 1_555 1_555

#END
