
#######################################################################
#
#                 Cambridge Crystallographic Data Centre
#                                CCDC 
#
#######################################################################
#
# If this CIF has been generated from an entry in the Cambridge 
# Structural Database, then it will include bibliographic, chemical, 
# crystal, experimental, refinement or atomic coordinate data resulting 
# from the CCDC's data processing and validation procedures.
#
#######################################################################

data_FISZOX
_symmetry_cell_setting           triclinic
_symmetry_space_group_name_H-M   'P -1'
_symmetry_Int_Tables_number      2
_space_group_name_Hall           '-P 1'
loop_
_symmetry_equiv_pos_site_id
_symmetry_equiv_pos_as_xyz
1 x,y,z
2 -x,-y,-z
_cell_length_a                   7.4301(5)
_cell_length_b                   15.9715(10)
_cell_length_c                   17.4521(11)
_cell_angle_alpha                67.9970(10)
_cell_angle_beta                 85.2240(10)
_cell_angle_gamma                79.7430(10)
_cell_volume                     1889.19
loop_
_atom_site_label
_atom_site_type_symbol
_atom_site_fract_x
_atom_site_fract_y
_atom_site_fract_z
Cu1 Cu 0.65694(5) 0.14503(3) 0.40226(2)
Cu2 Cu 0.71878(5) 0.41833(3) 0.39227(2)
Cu3 Cu 0.23747(6) 0.34328(3) 0.19624(2)
P1 P 0.90030(11) 0.28625(6) 0.32150(5)
P2 P 0.37405(11) 0.32040(6) 0.37283(5)
N1 N 0.6325(4) 0.06757(19) 0.52077(17)
N2 N 0.8155(4) 0.04502(18) 0.37698(17)
N3 N 0.2144(4) 0.47491(19) 0.11643(17)
N4 N 0.1946(4) 0.30629(19) 0.10209(17)
N5 N 0.8332(4) -0.0629(2) 0.51433(18)
C1 C 0.8126(5) 0.6809(2) 0.3786(2)
N6 N 0.7838(4) 0.54302(19) 0.35877(17)
N7 N 0.2957(4) 0.4355(2) -0.00089(19)
N8 N 0.7824(4) 0.5460(2) 0.49357(17)
C2 C 0.8714(5) -0.0398(2) 0.4313(2)
N9 N 0.7122(4) 0.40084(19) 0.51078(17)
C3 C 0.5262(5) 0.1077(2) 0.5692(2)
C4 C 0.9491(5) -0.0009(2) 0.2662(2)
C5 C 0.2509(4) 0.4999(2) 0.0353(2)
C6 C 0.7923(4) 0.5883(2) 0.4089(2)
C7 C 0.8103(5) 0.6814(2) 0.2428(2)
C8 C 0.5124(5) 0.0670(2) 0.6535(2)
C9 C 0.7321(5) 0.4411(2) 0.6293(2)
C10 C 0.7233(4) -0.0176(2) 0.5585(2)
C11 C 0.2620(4) 0.3470(2) 0.0256(2)
C12 C 0.8557(5) 0.0625(2) 0.2956(2)
C13 C 1.0109(5) -0.0891(2) 0.3233(2)
C14 C 0.7939(5) 0.5911(2) 0.2758(2)
C15 C 0.7097(5) -0.0641(2) 0.6445(2)
C16 C 0.1674(5) 0.5417(2) 0.1477(2)
C17 C 0.6071(5) -0.0215(2) 0.6913(2)
C18 C 0.6578(5) 0.2951(2) 0.6481(2)
C19 C 0.6881(5) 0.3590(2) 0.6810(2)
C20 C 0.6721(5) 0.3187(2) 0.5647(2)
C21 C 0.7426(4) 0.4613(2) 0.5435(2)
C22 C 0.1513(5) 0.2215(2) 0.1213(2)
C23 C 0.2074(5) 0.6581(2) 0.0179(2)
C24 C 0.3019(5) 0.3008(3) -0.0301(2)
C25 C 0.1627(5) 0.6324(3) 0.1016(2)
C26 C 0.1786(5) 0.1747(3) 0.0696(2)
C27 C 0.8189(5) 0.7275(2) 0.2954(2)
C28 C 0.9727(5) -0.1079(2) 0.4051(2)
C29 C 0.2505(5) 0.5922(2) -0.0159(2)
C30 C 0.2593(5) 0.2150(3) -0.0079(2)
O1 O 0.9526(3) 0.24460(16) 0.41332(14)
O2 O 0.4206(3) 0.21711(15) 0.39664(14)
O3 O 0.3379(3) 0.37326(15) 0.28120(14)
O4 O 1.0616(3) 0.27060(16) 0.26669(14)
O5 O 0.7435(3) 0.24071(15) 0.30921(14)
O6 O 0.8337(3) 0.39072(15) 0.29941(14)
O7 O 0.1902(3) 0.33631(16) 0.42374(15)
O8 O 0.5084(3) 0.35923(16) 0.40588(14)
O9 O 0.5162(4) 0.2760(2) 0.18368(18)
H1 H 0.810(4) 0.120(2) 0.261(2)
H2 H 0.098(4) 0.195(2) 0.175(2)
H3 H 0.134(5) 0.672(2) 0.126(2)
H4 H 0.818(5) 0.709(2) 0.413(2)
H5 H 0.275(5) 0.604(2) -0.071(2)
H6 H 0.334(5) 0.455(3) -0.048(2)
H7 H 0.458(5) 0.163(3) 0.542(2)
H8 H 0.787(5) 0.561(2) 0.242(2)
H9 H 0.205(5) 0.721(3) -0.017(2)
H10 H 0.293(5) 0.182(2) -0.043(2)
H11 H 0.591(5) -0.049(3) 0.743(2)
H12 H 0.974(5) 0.012(2) 0.212(2)
H13 H 0.441(5) 0.095(3) 0.686(2)
H14 H 0.657(5) 0.279(2) 0.543(2)
H15 H 0.148(5) 0.522(2) 0.204(2)
H16 H 0.681(4) 0.347(2) 0.735(2)
H17 H 1.076(5) -0.132(3) 0.307(2)
H18 H 1.011(5) -0.164(3) 0.446(2)
H19 H 0.746(5) 0.483(3) 0.647(2)
H20 H 0.771(5) -0.120(3) 0.664(2)
H21 H 0.576(6) 0.271(3) 0.214(3)
H22 H 0.825(5) 0.787(3) 0.273(2)
H23 H 0.145(6) 0.121(3) 0.084(3)
H24 H 0.546(6) 0.233(3) 0.167(3)
H25 H 0.790(5) 0.580(3) 0.519(2)
H26 H 0.631(6) 0.242(3) 0.682(3)
H27 H 0.877(5) -0.108(3) 0.538(2)
H28 H 0.115(6) 0.307(3) 0.420(3)
H29 H 0.349(5) 0.334(3) -0.081(2)
H30 H 0.819(5) 0.708(3) 0.186(3)
Cu3_2 Cu 1.23747(6) 0.34328(3) 0.19624(2)
O4_2 O 0.0616(3) 0.27060(16) 0.26669(14)
P3 P 0.74670(13) 0.12057(6) 0.88873(6)
F1 F 0.8883(3) 0.17914(15) 0.82558(13)
F2 F 0.9059(3) 0.03377(15) 0.91763(14)
F3 F 0.6050(3) 0.06223(15) 0.95136(13)
F4 F 0.8011(3) 0.15205(15) 0.95929(13)
F5 F 0.6921(3) 0.08840(16) 0.81827(13)
F6 F 0.5889(3) 0.20768(16) 0.85903(15)
O10 O 0.3933(4) 0.51523(19) 0.82825(16)
H31 H 0.310(5) 0.546(3) 0.799(2)
H32 H 0.481(7) 0.535(4) 0.810(3)
O11 O 0.6344(4) 0.1361(2) 0.1217(2)
H33 H 0.645(6) 0.080(3) 0.136(3)
H34 H 0.645(6) 0.152(3) 0.076(3)
O12 O 0.7090(5) 0.9491(2) 0.1431(2)
H35 H 0.607(10) 0.947(5) 0.113(4)
H36 H 0.816(9) 0.948(4) 0.110(4)
loop_
_geom_bond_atom_site_label_1
_geom_bond_atom_site_label_2
_geom_bond_site_symmetry_1
_geom_bond_site_symmetry_2
Cu1 N1 1_555 1_555
Cu2 N6 1_555 1_555
Cu3 N3 1_555 1_555
P1 O1 1_555 1_555
P2 O2 1_555 1_555
N1 C3 1_555 1_555
N2 Cu1 1_555 1_555
N3 C5 1_555 1_555
N4 Cu3 1_555 1_555
N5 C2 1_555 1_555
C1 C6 1_555 1_555
N6 C6 1_555 1_555
N7 C5 1_555 1_555
N8 C6 1_555 1_555
C2 N2 1_555 1_555
N9 Cu2 1_555 1_555
C3 C8 1_555 1_555
C4 C12 1_555 1_555
C5 C29 1_555 1_555
C7 C14 1_555 1_555
C8 C17 1_555 1_555
C9 C19 1_555 1_555
C10 N1 1_555 1_555
C11 N4 1_555 1_555
C12 N2 1_555 1_555
C13 C4 1_555 1_555
C14 N6 1_555 1_555
C15 C10 1_555 1_555
C16 N3 1_555 1_555
C17 C15 1_555 1_555
C18 C19 1_555 1_555
C19 H16 1_555 1_555
C20 N9 1_555 1_555
C21 N8 1_555 1_555
C22 N4 1_555 1_555
C23 C25 1_555 1_555
C24 C11 1_555 1_555
C25 C16 1_555 1_555
C26 C22 1_555 1_555
C27 C1 1_555 1_555
C28 C2 1_555 1_555
C29 C23 1_555 1_555
C30 C24 1_555 1_555
O1 Cu1 1_555 1_555
O2 Cu1 1_555 1_555
O3 Cu3 1_555 1_555
O4 P1 1_555 1_555
O5 Cu1 1_555 1_555
O6 Cu2 1_555 1_555
O7 P2 1_555 1_555
O8 Cu2 1_555 1_555
O9 Cu3 1_555 1_555
H1 C12 1_555 1_555
H2 C22 1_555 1_555
H3 C25 1_555 1_555
H4 C1 1_555 1_555
H5 C29 1_555 1_555
H6 N7 1_555 1_555
H7 C3 1_555 1_555
H8 C14 1_555 1_555
H9 C23 1_555 1_555
H10 C30 1_555 1_555
H11 C17 1_555 1_555
H12 C4 1_555 1_555
H13 C8 1_555 1_555
H14 C20 1_555 1_555
H15 C16 1_555 1_555
H17 C13 1_555 1_555
H18 C28 1_555 1_555
H19 C9 1_555 1_555
H20 C15 1_555 1_555
H21 O9 1_555 1_555
H22 C27 1_555 1_555
H23 C26 1_555 1_555
H24 O9 1_555 1_555
H25 N8 1_555 1_555
H26 C18 1_555 1_555
H27 N5 1_555 1_555
H28 O7 1_555 1_555
H29 C24 1_555 1_555
H30 C7 1_555 1_555
P3 F1 1_555 1_555
F2 P3 1_555 1_555
F3 P3 1_555 1_555
F4 P3 1_555 1_555
F5 P3 1_555 1_555
F6 P3 1_555 1_555
O10 H31 1_555 1_555
H32 O10 1_555 1_555
O11 H33 1_555 1_555
H34 O11 1_555 1_555
O12 H35 1_555 1_555
H36 O12 1_555 1_555
Cu3_2 O4 1_555 1_555
O4_2 Cu3 1_555 1_555
Cu2 O1 1_555 1_555
P1 O5 1_555 1_555
P1 O6 1_555 1_555
P2 O3 1_555 1_555
P2 O8 1_555 1_555
N5 C10 1_555 1_555
N7 C11 1_555 1_555
N9 C21 1_555 1_555
C7 C27 1_555 1_555
C9 C21 1_555 1_555
C13 C28 1_555 1_555
C18 C20 1_555 1_555
C26 C30 1_555 1_555

#END
