
#######################################################################
#
#                 Cambridge Crystallographic Data Centre
#                                CCDC 
#
#######################################################################
#
# If this CIF has been generated from an entry in the Cambridge 
# Structural Database, then it will include bibliographic, chemical, 
# crystal, experimental, refinement or atomic coordinate data resulting 
# from the CCDC's data processing and validation procedures.
#
#######################################################################

data_FITDUJ
_symmetry_cell_setting           orthorhombic
_symmetry_space_group_name_H-M   'P 21 21 2'
_symmetry_Int_Tables_number      18
_space_group_name_Hall           'P 2 2ab'
loop_
_symmetry_equiv_pos_site_id
_symmetry_equiv_pos_as_xyz
1 x,y,z
2 -x,-y,z
3 1/2-x,1/2+y,-z
4 1/2+x,1/2-y,-z
_cell_length_a                   11.3486(17)
_cell_length_b                   20.756(3)
_cell_length_c                   7.0785(11)
_cell_angle_alpha                90
_cell_angle_beta                 90
_cell_angle_gamma                90
_cell_volume                     1667.35
loop_
_atom_site_label
_atom_site_type_symbol
_atom_site_fract_x
_atom_site_fract_y
_atom_site_fract_z
C1 C 0.4751(8) 0.9318(4) 0.3797(14)
C2 C 0.5976(8) 0.9532(4) 0.3648(13)
C3 C 0.6986(9) 0.9123(4) 0.3531(12)
C4 C 0.8102(10) 0.9372(5) 0.3423(14)
H1 H 0.8745 0.9097 0.3306
C5 C 0.8277(9) 1.0045(5) 0.3491(14)
H2 H 0.9036 1.0213 0.3478
C6 C 0.7329(9) 1.0447(5) 0.3577(13)
H3 H 0.7452 1.0890 0.3590
C7 C 0.6176(8) 1.0212(4) 0.3647(12)
C8 C 0.4856(9) 0.9308(5) 0.8131(14)
C9 C 0.6027(9) 0.9596(5) 0.8325(14)
C10 C 0.6999(10) 0.9193(5) 0.8376(13)
H4 H 0.6889 0.8750 0.8322
C11 C 0.8124(11) 0.9437(5) 0.8506(15)
H5 H 0.8769 0.9160 0.8559
C12 C 0.8286(10) 1.0108(5) 0.8557(16)
H6 H 0.9047 1.0272 0.8646
C13 C 0.7355(10) 1.0527(5) 0.8479(15)
C14 C 0.6173(9) 1.0294(5) 0.8317(13)
Gd1 Gd 0.43801(4) 0.78464(2) 0.59896(6)
O1 O 0.6424(5) 0.8012(3) 0.5115(9)
O2 O 0.6159(6) 0.8113(3) 0.1710(10)
O3 O 0.8114(5) 0.8048(3) 0.3119(8)
O4 O 0.7476(5) 1.1671(3) 0.6856(9)
O5 O 0.9014(5) 1.1363(3) 0.9005(11)
O6 O 0.7076(7) 1.1631(3) 1.0229(10)
O7 O 0.4506(6) 0.8724(2) 0.4051(9)
O8 O 0.4801(5) 0.8702(3) 0.7888(9)
O9 O 0.5331(6) 0.7429(3) 0.8715(10)
O10 O 0.5268(6) 0.6826(3) 0.4845(10)
O11 O 0.3328(6) 0.7561(3) 0.3147(8)
S1 S 0.6890(2) 0.82639(11) 0.3310(3)
H7 H 0.3057 0.7823 0.2164
S2 S 0.7753(2) 1.13599(11) 0.8688(4)
H8 H 0.5676 0.7031 0.9023
H9 H 0.5939 0.7699 0.8269
H10 H 0.4677 0.6518 0.4579
H11 H 0.5959 0.6639 0.4314
H12 H 0.2750 0.7222 0.3246
C1A C 0.5249(8) 1.0682(4) 0.3797(14)
C2A C 0.4024(8) 1.0468(4) 0.3648(13)
C3A C 0.3014(9) 1.0877(4) 0.3531(12)
C4A C 0.1898(10) 1.0628(5) 0.3423(14)
H1A H 0.1255 1.0903 0.3306
C5A C 0.1723(9) 0.9955(5) 0.3491(14)
H2A H 0.0964 0.9787 0.3478
C6A C 0.2671(9) 0.9553(5) 0.3577(13)
H3A H 0.2548 0.9110 0.3590
C7A C 0.3824(8) 0.9788(4) 0.3647(12)
O1A O 0.3576(5) 1.1988(3) 0.5115(9)
O2A O 0.3841(6) 1.1887(3) 0.1710(10)
O3A O 0.1886(5) 1.1952(3) 0.3119(8)
O7A O 0.5494(6) 1.1276(2) 0.4051(9)
S1A S 0.3110(2) 1.17361(11) 0.3310(3)
C8A C 0.5144(9) 1.0692(5) 0.8131(14)
C9A C 0.3973(9) 1.0404(5) 0.8325(14)
C10A C 0.3001(10) 1.0807(5) 0.8376(13)
H4A H 0.3111 1.1250 0.8322
C11A C 0.1876(11) 1.0563(5) 0.8506(15)
H5A H 0.1231 1.0840 0.8559
C12A C 0.1714(10) 0.9892(5) 0.8557(16)
H6A H 0.0953 0.9728 0.8646
C13A C 0.2645(10) 0.9473(5) 0.8479(15)
C14A C 0.3827(9) 0.9706(5) 0.8317(13)
O4A O 0.2524(5) 0.8329(3) 0.6856(9)
O5A O 0.0986(5) 0.8637(3) 0.9005(11)
O6A O 0.2924(7) 0.8369(3) 1.0229(10)
O8A O 0.5199(5) 1.1298(3) 0.7888(9)
S2A S 0.2247(2) 0.86401(11) 0.8688(4)
Gd1A Gd 0.56199(4) 1.21536(2) 0.59896(6)
O9A O 0.4669(6) 1.2571(3) 0.8715(10)
O10A O 0.4732(6) 1.3174(3) 0.4845(10)
O11A O 0.6672(6) 1.2439(3) 0.3147(8)
H7A H 0.6943 1.2177 0.2164
H8A H 0.4324 1.2969 0.9023
H9A H 0.4061 1.2301 0.8269
H10A H 0.5323 1.3482 0.4579
H11A H 0.4041 1.3361 0.4314
H12A H 0.7250 1.2778 0.3246
Gd1B Gd 0.06199(4) 1.28464(2) 0.40104(6)
Gd1C Gd 0.93801(4) 0.71536(2) 0.40104(6)
O3B O 0.6886(5) 1.3048(3) 0.6881(8)
O3C O 0.3114(5) 0.6952(3) 0.6881(8)
loop_
_geom_bond_atom_site_label_1
_geom_bond_atom_site_label_2
_geom_bond_site_symmetry_1
_geom_bond_site_symmetry_2
C1 C2 1_555 1_555
C2 C3 1_555 1_555
C3 C4 1_555 1_555
C4 H1 1_555 1_555
C5 C4 1_555 1_555
H2 C5 1_555 1_555
C6 C5 1_555 1_555
H3 C6 1_555 1_555
C7 C2 1_555 1_555
C8 C9 1_555 1_555
C9 C10 1_555 1_555
C10 H4 1_555 1_555
C11 C10 1_555 1_555
H5 C11 1_555 1_555
C12 C11 1_555 1_555
H6 C12 1_555 1_555
C13 C12 1_555 1_555
C14 C9 1_555 1_555
Gd1 O1 1_555 1_555
O1 S1 1_555 1_555
O2 S1 1_555 1_555
O3 S1 1_555 1_555
O4 S2 1_555 1_555
O5 S2 1_555 1_555
O6 S2 1_555 1_555
O7 C1 1_555 1_555
O8 C8 1_555 1_555
O9 Gd1 1_555 1_555
O10 Gd1 1_555 1_555
O11 Gd1 1_555 1_555
S1 C3 1_555 1_555
H7 O11 1_555 1_555
S2 C13 1_555 1_555
H8 O9 1_555 1_555
H9 O9 1_555 1_555
H10 O10 1_555 1_555
H11 O10 1_555 1_555
H12 O11 1_555 1_555
C1A C7 1_555 1_555
C2A C1A 1_555 1_555
C3A C2A 1_555 1_555
C4A C3A 1_555 1_555
H1A C4A 1_555 1_555
C5A C4A 1_555 1_555
H2A C5A 1_555 1_555
C6A C5A 1_555 1_555
H3A C6A 1_555 1_555
C7A C1 1_555 1_555
O1A S1A 1_555 1_555
O2A S1A 1_555 1_555
O3A S1A 1_555 1_555
O7A C1A 1_555 1_555
S1A C3A 1_555 1_555
C8A C14 1_555 1_555
C9A C8A 1_555 1_555
C10A C9A 1_555 1_555
H4A C10A 1_555 1_555
C11A C10A 1_555 1_555
H5A C11A 1_555 1_555
C12A C11A 1_555 1_555
H6A C12A 1_555 1_555
C13A C12A 1_555 1_555
C14A C8 1_555 1_555
O4A Gd1 1_555 1_555
O5A S2A 1_555 1_555
O6A S2A 1_555 1_555
O8A C8A 1_555 1_555
S2A C13A 1_555 1_555
Gd1A O4 1_555 1_555
O9A Gd1A 1_555 1_555
O10A Gd1A 1_555 1_555
O11A Gd1A 1_555 1_555
H7A O11A 1_555 1_555
H8A O9A 1_555 1_555
H9A O9A 1_555 1_555
H10A O10A 1_555 1_555
H11A O10A 1_555 1_555
H12A O11A 1_555 1_555
Gd1B O3A 1_555 1_555
Gd1C O3 1_555 1_555
O3B Gd1A 1_555 1_555
O3C Gd1 1_555 1_555
C6 C7 1_555 1_555
C13 C14 1_555 1_555
Gd1 O7 1_555 1_555
Gd1 O8 1_555 1_555
C2A C7A 1_555 1_555
C6A C7A 1_555 1_555
O1A Gd1A 1_555 1_555
O7A Gd1A 1_555 1_555
C9A C14A 1_555 1_555
C13A C14A 1_555 1_555
O4A S2A 1_555 1_555
O8A Gd1A 1_555 1_555

#END
