
#######################################################################
#
#                 Cambridge Crystallographic Data Centre
#                                CCDC 
#
#######################################################################
#
# If this CIF has been generated from an entry in the Cambridge 
# Structural Database, then it will include bibliographic, chemical, 
# crystal, experimental, refinement or atomic coordinate data resulting 
# from the CCDC's data processing and validation procedures.
#
#######################################################################

data_FITFEV
_symmetry_cell_setting           orthorhombic
_symmetry_space_group_name_H-M   'P 21 21 2'
_symmetry_Int_Tables_number      18
_space_group_name_Hall           'P 2 2ab'
loop_
_symmetry_equiv_pos_site_id
_symmetry_equiv_pos_as_xyz
1 x,y,z
2 -x,-y,z
3 1/2-x,1/2+y,-z
4 1/2+x,1/2-y,-z
_cell_length_a                   11.4498(17)
_cell_length_b                   20.923(2)
_cell_length_c                   7.1043(9)
_cell_angle_alpha                90
_cell_angle_beta                 90
_cell_angle_gamma                90
_cell_volume                     1701.94
loop_
_atom_site_label
_atom_site_type_symbol
_atom_site_fract_x
_atom_site_fract_y
_atom_site_fract_z
C1 C 0.2656(10) 0.9491(5) 0.6494(16)
C2 C 0.1755(10) 0.9904(5) 0.6398(17)
C3 C 0.1924(10) 1.0565(5) 0.6453(17)
C4 C 0.3017(10) 1.0801(5) 0.6598(15)
C5 C 0.3984(9) 1.0404(5) 0.6684(16)
C6 C 0.3815(9) 0.9716(5) 0.6666(14)
C7 C 0.4857(10) 0.9316(5) 0.6824(15)
C8 C 0.6981(8) 0.9135(4) 1.1491(14)
C9 C 0.8074(9) 0.9370(5) 1.1547(16)
C10 C 0.8255(9) 1.0028(5) 1.1487(17)
C11 C 0.7339(9) 1.0448(5) 1.1388(16)
C12 C 0.6177(8) 1.0206(5) 1.1333(15)
C13 C 0.5965(8) 0.9538(4) 1.1355(16)
C14 C 0.4762(8) 0.9329(5) 1.1195(16)
O1 O 0.0992(6) 0.8662(3) 0.5920(12)
O2 O 0.2925(7) 0.8382(4) 0.4793(10)
O3 O 0.2473(6) 0.8358(3) 0.8143(10)
O4 O 0.6422(6) 0.8024(3) 0.9866(10)
O5 O 0.8064(6) 0.8062(3) 1.1945(9)
O6 O 0.6116(6) 0.8125(3) 1.3266(10)
O7 O 0.4778(6) 0.8717(3) 0.7087(10)
O8 O 0.4503(6) 0.8738(3) 1.0949(11)
O9 O 0.5239(7) 0.6802(3) 1.0215(11)
O10 O 0.5385(6) 0.7415(3) 0.6253(11)
O11 O 0.3281(7) 0.7572(3) 1.1937(10)
Pr1 Pr 0.43561(5) 0.78411(3) 0.89900(8)
S1 S 0.2239(2) 0.86608(12) 0.6293(4)
S2 S 0.6865(2) 0.82752(11) 1.1695(4)
H1 H 0.1027 0.9802 0.6609
H2 H 0.1223 1.0827 0.6568
H3 H 0.3216 1.1192 0.6601
H4 H 0.8714 0.9096 1.1705
H5 H 0.8999 1.0205 1.1480
H6 H 0.7620 1.0863 1.1479
H7 H 0.5847 0.7655 0.5564
H8 H 0.5659 0.6974 0.6046
H9 H 0.3484 0.7156 1.1243
H10 H 0.2620 0.7306 1.2126
H11 H 0.5566 0.6528 1.0868
H12 H 0.4751 0.6399 1.0224
C1A C 0.7344(10) 1.0509(5) 0.6494(16)
C2A C 0.8245(10) 1.0096(5) 0.6398(17)
C3A C 0.8076(10) 0.9435(5) 0.6453(17)
C4A C 0.6983(10) 0.9199(5) 0.6598(15)
C5A C 0.6016(9) 0.9596(5) 0.6684(16)
C6A C 0.6185(9) 1.0284(5) 0.6666(14)
C7A C 0.5143(10) 1.0684(5) 0.6824(15)
O1A O 0.9008(6) 1.1338(3) 0.5920(12)
O2A O 0.7075(7) 1.1618(4) 0.4793(10)
O3A O 0.7527(6) 1.1642(3) 0.8143(10)
O7A O 0.5222(6) 1.1283(3) 0.7087(10)
S1A S 0.7761(2) 1.13392(12) 0.6293(4)
H1A H 0.8973 1.0198 0.6609
H2A H 0.8777 0.9173 0.6568
H3A H 0.6784 0.8808 0.6601
C8A C 0.3019(8) 1.0865(4) 1.1491(14)
C9A C 0.1926(9) 1.0630(5) 1.1547(16)
C10A C 0.1745(9) 0.9972(5) 1.1487(17)
C11A C 0.2661(9) 0.9552(5) 1.1388(16)
C12A C 0.3823(8) 0.9794(5) 1.1333(15)
C13A C 0.4035(8) 1.0462(4) 1.1355(16)
C14A C 0.5238(8) 1.0671(5) 1.1195(16)
O4A O 0.3578(6) 1.1976(3) 0.9866(10)
O5A O 0.1936(6) 1.1938(3) 1.1945(9)
O6A O 0.3884(6) 1.1875(3) 1.3266(10)
O8A O 0.5497(6) 1.1262(3) 1.0949(11)
S2A S 0.3135(2) 1.17248(11) 1.1695(4)
H4A H 0.1286 1.0904 1.1705
H5A H 0.1001 0.9795 1.1480
H6A H 0.2380 0.9137 1.1479
O9A O 0.4761(7) 1.3198(3) 1.0215(11)
O10A O 0.4615(6) 1.2585(3) 0.6253(11)
O11A O 0.6719(7) 1.2428(3) 1.1937(10)
Pr1A Pr 0.56439(5) 1.21589(3) 0.89900(8)
H7A H 0.4153 1.2345 0.5564
H8A H 0.4341 1.3026 0.6046
H9A H 0.6516 1.2844 1.1243
H10A H 0.7380 1.2694 1.2126
H11A H 0.4434 1.3472 1.0868
H12A H 0.5249 1.3601 1.0224
O5B O 0.6936(6) 1.3062(3) 0.8055(9)
O5C O 0.3064(6) 0.6938(3) 0.8055(9)
Pr1B Pr 0.06439(5) 1.28411(3) 1.10100(8)
Pr1C Pr 0.93561(5) 0.71589(3) 1.10100(8)
loop_
_geom_bond_atom_site_label_1
_geom_bond_atom_site_label_2
_geom_bond_site_symmetry_1
_geom_bond_site_symmetry_2
C1 C2 1_555 1_555
C2 C3 1_555 1_555
C3 C4 1_555 1_555
C4 C5 1_555 1_555
C5 C6 1_555 1_555
C6 C1 1_555 1_555
C7 C6 1_555 1_555
C8 C9 1_555 1_555
C9 C10 1_555 1_555
C10 C11 1_555 1_555
C11 C12 1_555 1_555
C12 C13 1_555 1_555
C13 C8 1_555 1_555
C14 C13 1_555 1_555
O1 S1 1_555 1_555
O2 S1 1_555 1_555
O3 Pr1 1_555 1_555
O4 Pr1 1_555 1_555
O5 S2 1_555 1_555
O6 S2 1_555 1_555
O7 C7 1_555 1_555
O8 C14 1_555 1_555
O9 Pr1 1_555 1_555
O10 Pr1 1_555 1_555
O11 Pr1 1_555 1_555
Pr1 O7 1_555 1_555
S1 C1 1_555 1_555
S2 C8 1_555 1_555
H1 C2 1_555 1_555
H2 C3 1_555 1_555
H3 C4 1_555 1_555
H4 C9 1_555 1_555
H5 C10 1_555 1_555
H6 C11 1_555 1_555
H7 O10 1_555 1_555
H8 O10 1_555 1_555
H9 O11 1_555 1_555
H10 O11 1_555 1_555
H11 O9 1_555 1_555
H12 O9 1_555 1_555
C1A C2A 1_555 1_555
C2A C3A 1_555 1_555
C3A C4A 1_555 1_555
C4A C5A 1_555 1_555
C5A C7 1_555 1_555
C6A C1A 1_555 1_555
C7A C5 1_555 1_555
O1A S1A 1_555 1_555
O2A S1A 1_555 1_555
O3A S1A 1_555 1_555
O7A C7A 1_555 1_555
S1A C1A 1_555 1_555
H1A C2A 1_555 1_555
H2A C3A 1_555 1_555
H3A C4A 1_555 1_555
C8A C9A 1_555 1_555
C9A C10A 1_555 1_555
C10A C11A 1_555 1_555
C11A C12A 1_555 1_555
C12A C14 1_555 1_555
C13A C8A 1_555 1_555
C14A C12 1_555 1_555
O4A S2A 1_555 1_555
O5A S2A 1_555 1_555
O6A S2A 1_555 1_555
O8A C14A 1_555 1_555
S2A C8A 1_555 1_555
H4A C9A 1_555 1_555
H5A C10A 1_555 1_555
H6A C11A 1_555 1_555
O9A Pr1A 1_555 1_555
O10A Pr1A 1_555 1_555
O11A Pr1A 1_555 1_555
Pr1A O3A 1_555 1_555
H7A O10A 1_555 1_555
H8A O10A 1_555 1_555
H9A O11A 1_555 1_555
H10A O11A 1_555 1_555
H11A O9A 1_555 1_555
H12A O9A 1_555 1_555
O5B Pr1A 1_555 1_555
O5C Pr1 1_555 1_555
Pr1B O5A 1_555 1_555
Pr1C O5 1_555 1_555
O3 S1 1_555 1_555
O4 S2 1_555 1_555
O8 Pr1 1_555 1_555
C5A C6A 1_555 1_555
C6A C7A 1_555 1_555
O7A Pr1A 1_555 1_555
C12A C13A 1_555 1_555
C13A C14A 1_555 1_555
O4A Pr1A 1_555 1_555
O8A Pr1A 1_555 1_555

#END
