
#######################################################################
#
#                 Cambridge Crystallographic Data Centre
#                                CCDC 
#
#######################################################################
#
# If this CIF has been generated from an entry in the Cambridge 
# Structural Database, then it will include bibliographic, chemical, 
# crystal, experimental, refinement or atomic coordinate data resulting 
# from the CCDC's data processing and validation procedures.
#
#######################################################################

data_FITFIZ
_symmetry_cell_setting           orthorhombic
_symmetry_space_group_name_H-M   'P 21 21 2'
_symmetry_Int_Tables_number      18
_space_group_name_Hall           'P 2 2ab'
loop_
_symmetry_equiv_pos_site_id
_symmetry_equiv_pos_as_xyz
1 x,y,z
2 -x,-y,z
3 1/2-x,1/2+y,-z
4 1/2+x,1/2-y,-z
_cell_length_a                   11.5258(7)
_cell_length_b                   21.0639(12)
_cell_length_c                   7.1175(4)
_cell_angle_alpha                90
_cell_angle_beta                 90
_cell_angle_gamma                90
_cell_volume                     1727.97
loop_
_atom_site_label
_atom_site_type_symbol
_atom_site_fract_x
_atom_site_fract_y
_atom_site_fract_z
C1 C 1.0154(9) 0.9339(5) 0.8177(14)
La1 La 1.06556(5) 0.78383(2) 0.60306(8)
C2 C 0.8060(9) 0.9132(5) 0.3527(13)
C3 C 0.9055(8) 0.9542(4) 0.3651(13)
C4 C 1.0232(8) 0.9339(4) 0.3795(14)
C5 C 1.1165(8) 0.9796(4) 0.3671(13)
C6 C 1.2306(9) 0.9561(4) 0.3628(15)
H1 H 1.2435 0.9125 0.3670
C7 C 1.3234(9) 0.9973(5) 0.3524(17)
H2 H 1.3987 0.9815 0.3484
C8 C 1.3042(9) 1.0625(5) 0.3480(16)
H3 H 1.3672 1.0901 0.3418
C9 C 0.7673(9) 1.0517(5) 0.8512(14)
C10 C 0.8827(8) 1.0271(5) 0.8385(13)
C11 C 0.9002(9) 0.9612(5) 0.8329(15)
C12 C 0.8032(11) 0.9201(5) 0.8431(16)
H4 H 0.8148 0.8764 0.8420
C13 C 0.6943(10) 0.9432(5) 0.8545(16)
H5 H 0.6315 0.9155 0.8574
C14 C 0.6754(10) 1.0091(5) 0.8621(15)
H6 H 0.6002 1.0244 0.8745
O1 O 0.6960(6) 0.8073(3) 0.3023(11)
O2 O 0.8573(6) 0.8029(3) 0.5114(11)
O3 O 0.8893(6) 0.8138(3) 0.1739(11)
O4 O 0.7462(6) 1.1617(3) 0.6870(11)
O5 O 0.6026(6) 1.1334(3) 0.9136(12)
O6 O 0.7933(8) 1.1608(4) 1.0169(13)
O7 O 1.0496(5) 0.8744(3) 0.4041(10)
O8 O 1.0223(6) 0.8728(3) 0.7937(10)
O9 O 0.9580(8) 0.7418(4) 0.8789(12)
O10 O 0.9753(7) 0.6777(3) 0.4763(14)
O11 O 1.1748(8) 0.7558(4) 0.3050(11)
S1 S 0.8152(2) 0.82837(11) 0.3303(4)
S2 S 0.7247(2) 1.13295(12) 0.8713(4)
H7 H 1.1635 0.7761 0.1845
H8 H 1.2316 0.7231 0.2929
H9 H 0.9921 0.7321 0.9993
H10 H 0.8765 0.7333 0.8834
H11 H 0.8989 0.6728 0.4224
H12 H 1.0131 0.6366 0.4755
C1A C 0.9846(9) 1.0661(5) 0.8177(14)
C9A C 1.2327(9) 0.9483(5) 0.8512(14)
C10A C 1.1173(8) 0.9729(5) 0.8385(13)
C11A C 1.0998(9) 1.0388(5) 0.8329(15)
C12A C 1.1968(11) 1.0799(5) 0.8431(16)
H4A H 1.1852 1.1236 0.8420
C13A C 1.3057(10) 1.0568(5) 0.8545(16)
H5A H 1.3685 1.0845 0.8574
C14A C 1.3246(10) 0.9909(5) 0.8621(15)
H6A H 1.3998 0.9756 0.8745
O5A O 1.3974(6) 0.8666(3) 0.9136(12)
O6A O 1.2067(8) 0.8392(4) 1.0169(13)
O8A O 0.9777(6) 1.1272(3) 0.7937(10)
S2A S 1.2753(2) 0.86705(12) 0.8713(4)
O4A O 1.2538(6) 0.8383(3) 0.6870(11)
C2A C 1.1940(9) 1.0868(5) 0.3527(13)
C3A C 1.0945(8) 1.0458(4) 0.3651(13)
C4A C 0.9768(8) 1.0661(4) 0.3795(14)
C5A C 0.8835(8) 1.0204(4) 0.3671(13)
C6A C 0.7694(9) 1.0439(4) 0.3628(15)
H1A H 0.7565 1.0875 0.3670
C7A C 0.6766(9) 1.0027(5) 0.3524(17)
H2A H 0.6013 1.0185 0.3484
C8A C 0.6958(9) 0.9375(5) 0.3480(16)
H3A H 0.6328 0.9099 0.3418
O2A O 1.1427(6) 1.1971(3) 0.5114(11)
O3A O 1.1107(6) 1.1862(3) 0.1739(11)
O7A O 0.9504(5) 1.1256(3) 0.4041(10)
S1A S 1.1848(2) 1.17163(11) 0.3303(4)
O1A O 1.3040(6) 1.1927(3) 0.3023(11)
La1A La 0.93444(5) 1.21617(2) 0.60306(8)
O9A O 1.0420(8) 1.2582(4) 0.8789(12)
O10A O 1.0247(7) 1.3223(3) 0.4763(14)
O11A O 0.8252(8) 1.2442(4) 0.3050(11)
H7A H 0.8365 1.2239 0.1845
H8A H 0.7684 1.2769 0.2929
H9A H 1.0079 1.2679 0.9993
H10A H 1.1235 1.2667 0.8834
H11A H 1.1011 1.3272 0.4224
H12A H 0.9869 1.3634 0.4755
La1B La 1.43444(5) 1.28383(2) 0.39694(8)
La1C La 0.56556(5) 0.71617(2) 0.39694(8)
O1B O 0.8040(6) 1.3073(3) 0.6977(11)
O1C O 1.1960(6) 0.6927(3) 0.6977(11)
loop_
_geom_bond_atom_site_label_1
_geom_bond_atom_site_label_2
_geom_bond_site_symmetry_1
_geom_bond_site_symmetry_2
C1 C11 1_555 1_555
La1 O2 1_555 1_555
C2 C3 1_555 1_555
C3 C4 1_555 1_555
C4 C5 1_555 1_555
C5 C6 1_555 1_555
C6 H1 1_555 1_555
C7 C6 1_555 1_555
H2 C7 1_555 1_555
C8 C7 1_555 1_555
H3 C8 1_555 1_555
C9 C10 1_555 1_555
C10 C11 1_555 1_555
C11 C12 1_555 1_555
C12 H4 1_555 1_555
C13 C12 1_555 1_555
H5 C13 1_555 1_555
C14 C9 1_555 1_555
H6 C14 1_555 1_555
O1 S1 1_555 1_555
O2 S1 1_555 1_555
O3 S1 1_555 1_555
O4 S2 1_555 1_555
O5 S2 1_555 1_555
O6 S2 1_555 1_555
O7 La1 1_555 1_555
O8 C1 1_555 1_555
O9 La1 1_555 1_555
O10 La1 1_555 1_555
O11 La1 1_555 1_555
S1 C2 1_555 1_555
S2 C9 1_555 1_555
H7 O11 1_555 1_555
H8 O11 1_555 1_555
H9 O9 1_555 1_555
H10 O9 1_555 1_555
H11 O10 1_555 1_555
H12 O10 1_555 1_555
C1A C10 1_555 1_555
C9A C10A 1_555 1_555
C10A C1 1_555 1_555
C11A C1A 1_555 1_555
C12A C11A 1_555 1_555
H4A C12A 1_555 1_555
C13A C12A 1_555 1_555
H5A C13A 1_555 1_555
C14A C9A 1_555 1_555
H6A C14A 1_555 1_555
O5A S2A 1_555 1_555
O6A S2A 1_555 1_555
O8A C1A 1_555 1_555
S2A C9A 1_555 1_555
O4A La1 1_555 1_555
C2A C8 1_555 1_555
C3A C5 1_555 1_555
C4A C3A 1_555 1_555
C5A C3 1_555 1_555
C6A C5A 1_555 1_555
H1A C6A 1_555 1_555
C7A C6A 1_555 1_555
H2A C7A 1_555 1_555
C8A C2 1_555 1_555
H3A C8A 1_555 1_555
O2A S1A 1_555 1_555
O3A S1A 1_555 1_555
O7A C4A 1_555 1_555
S1A C2A 1_555 1_555
O1A S1A 1_555 1_555
La1A O4 1_555 1_555
O9A La1A 1_555 1_555
O10A La1A 1_555 1_555
O11A La1A 1_555 1_555
H7A O11A 1_555 1_555
H8A O11A 1_555 1_555
H9A O9A 1_555 1_555
H10A O9A 1_555 1_555
H11A O10A 1_555 1_555
H12A O10A 1_555 1_555
La1B O1A 1_555 1_555
La1C O1 1_555 1_555
O1B La1A 1_555 1_555
O1C La1 1_555 1_555
La1 O8 1_555 1_555
C4 O7 1_555 1_555
C13 C14 1_555 1_555
C10A C11A 1_555 1_555
C13A C14A 1_555 1_555
O8A La1A 1_555 1_555
S2A O4A 1_555 1_555
C2A C3A 1_555 1_555
C4A C5A 1_555 1_555
C7A C8A 1_555 1_555
O2A La1A 1_555 1_555
O7A La1A 1_555 1_555

#END
