
#######################################################################
#
#                 Cambridge Crystallographic Data Centre
#                                CCDC 
#
#######################################################################
#
# If this CIF has been generated from an entry in the Cambridge 
# Structural Database, then it will include bibliographic, chemical, 
# crystal, experimental, refinement or atomic coordinate data resulting 
# from the CCDC's data processing and validation procedures.
#
#######################################################################

data_FITGUL
_symmetry_cell_setting           rhombohedral
_symmetry_space_group_name_H-M   'R -3 c'
_symmetry_Int_Tables_number      167
_space_group_name_Hall           '-R 3 2"c'
loop_
_symmetry_equiv_pos_site_id
_symmetry_equiv_pos_as_xyz
1 x,y,z
2 -y,x-y,z
3 -x+y,-x,z
4 y,x,1/2-z
5 2/3+x,1/3+y,1/3+z
6 2/3-y,1/3+x-y,1/3+z
7 2/3-x+y,1/3-x,1/3+z
8 2/3+y,1/3+x,5/6-z
9 1/3+x,2/3+y,2/3+z
10 1/3+y,2/3+x,1/6-z
11 x-y,-y,1/2-z
12 -x,-x+y,1/2-z
13 1/3-y,2/3+x-y,2/3+z
14 1/3-x+y,2/3-x,2/3+z
15 1/3+x-y,2/3-y,1/6-z
16 1/3-x,2/3-x+y,1/6-z
17 2/3+x-y,1/3-y,5/6-z
18 2/3-x,1/3-x+y,5/6-z
19 -x,-y,-z
20 y,-x+y,-z
21 x-y,x,-z
22 -y,-x,1/2+z
23 1/3-x,2/3-y,2/3-z
24 1/3+y,2/3-x+y,2/3-z
25 1/3+x-y,2/3+x,2/3-z
26 1/3-y,2/3-x,1/6+z
27 2/3-x,1/3-y,1/3-z
28 2/3-y,1/3-x,5/6+z
29 -x+y,y,1/2+z
30 x,x-y,1/2+z
31 2/3+y,1/3-x+y,1/3-z
32 2/3+x-y,1/3+x,1/3-z
33 2/3-x+y,1/3+y,5/6+z
34 2/3+x,1/3+x-y,5/6+z
35 1/3-x+y,2/3+y,1/6+z
36 1/3+x,2/3+x-y,1/6+z
_cell_length_a                   20.852(3)
_cell_length_b                   20.852(3)
_cell_length_c                   12.972(2)
_cell_angle_alpha                90
_cell_angle_beta                 90
_cell_angle_gamma                120.00
_cell_volume                     4884.64
loop_
_atom_site_label
_atom_site_type_symbol
_atom_site_fract_x
_atom_site_fract_y
_atom_site_fract_z
Sc1 Sc 0.0000 0.0000 0.0000
O1 O 0.07741(10) -0.00840(11) 0.09060(19)
N1 N 0.14828(13) 0.04034(13) 0.1118(2)
C1 C 0.16970(17) 0.11244(17) 0.1244(3)
H1 H 0.1344 0.1284 0.1188
C2 C 0.24218(16) 0.16278(17) 0.1450(3)
H2 H 0.2571 0.2137 0.1524
C3 C 0.29409(16) 0.13996(16) 0.1553(3)
C4 C 0.26886(16) 0.06419(16) 0.1428(3)
H3 H 0.3026 0.0464 0.1504
C5 C 0.19653(16) 0.01580(17) 0.1200(3)
H4 H 0.1803 -0.0352 0.1099
Sc1D Sc 0.6667 0.3333 0.3333
Sc1D_2 Sc -0.3333 0.3333 0.3333
Sc1D_3 Sc -0.3333 -0.6667 0.3333
O1Z O 0.58926(10) 0.34173(11) 0.24273(19)
O1A O 0.00840(11) 0.08581(15) 0.09060(19)
O1DA O -0.34173(11) 0.24752(15) 0.24273(19)
O1B O -0.08581(15) -0.07741(10) 0.09060(19)
O1EA O -0.24752(15) -0.58926(10) 0.24273(19)
O1R O -0.07741(10) 0.00840(11) -0.09060(19)
O1S O -0.00840(11) -0.08581(15) -0.09060(19)
O1T O 0.08581(15) 0.07741(10) -0.09060(19)
N1Z N 0.51839(13) 0.29299(13) 0.2215(2)
N1A N -0.04034(13) 0.10794(18) 0.1118(2)
N1DA N -0.29299(13) 0.22539(18) 0.2215(2)
N1B N -0.10794(18) -0.14828(13) 0.1118(2)
N1EA N -0.22539(18) -0.51839(13) 0.2215(2)
C1Z C 0.49697(17) 0.22089(17) 0.2089(3)
C1A C -0.11244(17) 0.05726(24) 0.1244(3)
C1DA C -0.22089(17) 0.27607(24) 0.2089(3)
C1B C -0.05726(24) -0.16970(17) 0.1244(3)
C1EA C -0.27607(24) -0.49697(17) 0.2089(3)
H1Z H 0.5323 0.2049 0.2145
H1A H -0.1284 0.0060 0.1188
H1DA H -0.2049 0.3273 0.2145
H1B H -0.0060 -0.1344 0.1188
H1EA H -0.3273 -0.5323 0.2145
C2Z C 0.42449(16) 0.17055(17) 0.1883(3)
C2A C -0.16278(17) 0.07940(23) 0.1450(3)
C2DA C -0.17055(17) 0.25393(23) 0.1883(3)
C2B C -0.07940(23) -0.24218(16) 0.1450(3)
C2EA C -0.25393(23) -0.42449(16) 0.1883(3)
H2Z H 0.4096 0.1196 0.1809
H2A H -0.2137 0.0434 0.1524
H2DA H -0.1196 0.2899 0.1809
H2B H -0.0434 -0.2571 0.1524
H2EA H -0.2899 -0.4096 0.1809
C3Z C 0.37258(16) 0.19337(16) 0.1780(3)
C3A C -0.13996(16) 0.15413(23) 0.1553(3)
C3DA C -0.19337(16) 0.17920(23) 0.1780(3)
C3B C -0.15413(23) -0.29409(16) 0.1553(3)
C3EA C -0.17920(23) -0.37258(16) 0.1780(3)
C4Z C 0.39781(16) 0.26914(16) 0.1905(3)
C4A C -0.06419(16) 0.20467(23) 0.1428(3)
C4DA C -0.26914(16) 0.12866(23) 0.1905(3)
C4B C -0.20467(23) -0.26886(16) 0.1428(3)
C4EA C -0.12866(23) -0.39781(16) 0.1905(3)
H3Z H 0.3641 0.2869 0.1829
H3A H -0.0464 0.2562 0.1504
H3DA H -0.2869 0.0771 0.1829
H3B H -0.2562 -0.3026 0.1504
H3EA H -0.0771 -0.3641 0.1829
C5Z C 0.47014(16) 0.31753(17) 0.2133(3)
C5A C -0.01580(17) 0.18073(23) 0.1200(3)
C5DA C -0.31753(17) 0.15260(23) 0.2133(3)
C5B C -0.18073(23) -0.19653(16) 0.1200(3)
C5EA C -0.15260(23) -0.47014(16) 0.2133(3)
H4Z H 0.4864 0.3685 0.2234
H4A H 0.0352 0.2155 0.1099
H4DA H -0.3685 0.1178 0.2234
H4B H -0.2155 -0.1803 0.1099
H4EA H -0.1178 -0.4864 0.2234
N2 N 0.22807(19) 0.3333 0.0833
O2 O 0.28850(16) 0.3333 0.0833
O3 O 0.22732(13) 0.39099(12) 0.0586(2)
O3N O 0.16966(18) 0.27568(12) 0.1081(2)
loop_
_geom_bond_atom_site_label_1
_geom_bond_atom_site_label_2
_geom_bond_site_symmetry_1
_geom_bond_site_symmetry_2
Sc1 O1 1_555 1_555
O1 N1 1_555 1_555
N1 C1 1_555 1_555
C1 H1 1_555 1_555
C2 C1 1_555 1_555
H2 C2 1_555 1_555
C3 C2 1_555 1_555
C4 C3 1_555 1_555
H3 C4 1_555 1_555
C5 N1 1_555 1_555
H4 C5 1_555 1_555
N2 O2 1_555 1_555
O3 N2 1_555 1_555
Sc1D O1Z 1_555 1_555
Sc1D_2 O1DA 1_555 1_555
Sc1D_3 O1EA 1_555 1_555
O1Z N1Z 1_555 1_555
O1A Sc1 1_555 1_555
O1DA N1DA 1_555 1_555
O1B Sc1 1_555 1_555
O1EA N1EA 1_555 1_555
O1R Sc1 1_555 1_555
O1S Sc1 1_555 1_555
O1T Sc1 1_555 1_555
N1Z C1Z 1_555 1_555
N1A O1A 1_555 1_555
N1DA C1DA 1_555 1_555
N1B O1B 1_555 1_555
N1EA C1EA 1_555 1_555
C1Z H1Z 1_555 1_555
C1A N1A 1_555 1_555
C1DA H1DA 1_555 1_555
C1B N1B 1_555 1_555
C1EA H1EA 1_555 1_555
H1A C1A 1_555 1_555
H1B C1B 1_555 1_555
C2Z C1Z 1_555 1_555
C2A C1A 1_555 1_555
C2DA C1DA 1_555 1_555
C2B C1B 1_555 1_555
C2EA C1EA 1_555 1_555
H2Z C2Z 1_555 1_555
H2A C2A 1_555 1_555
H2DA C2DA 1_555 1_555
H2B C2B 1_555 1_555
H2EA C2EA 1_555 1_555
C3Z C3 1_555 1_555
C3A C2A 1_555 1_555
C3DA C2DA 1_555 1_555
C3B C2B 1_555 1_555
C3EA C2EA 1_555 1_555
C4Z C3Z 1_555 1_555
C4A C3A 1_555 1_555
C4DA C3DA 1_555 1_555
C4B C3B 1_555 1_555
C4EA C3EA 1_555 1_555
H3Z C4Z 1_555 1_555
H3A C4A 1_555 1_555
H3DA C4DA 1_555 1_555
H3B C4B 1_555 1_555
H3EA C4EA 1_555 1_555
C5Z N1Z 1_555 1_555
C5A N1A 1_555 1_555
C5DA N1DA 1_555 1_555
C5B N1B 1_555 1_555
C5EA N1EA 1_555 1_555
H4Z C5Z 1_555 1_555
H4A C5A 1_555 1_555
H4DA C5DA 1_555 1_555
H4B C5B 1_555 1_555
H4EA C5EA 1_555 1_555
O3N N2 1_555 1_555
C4 C5 1_555 1_555
C2Z C3Z 1_555 1_555
C3A C3DA 1_555 1_555
C3B C3EA 1_555 1_555
C4Z C5Z 1_555 1_555
C4A C5A 1_555 1_555
C4DA C5DA 1_555 1_555
C4B C5B 1_555 1_555
C4EA C5EA 1_555 1_555

#END
