
#######################################################################
#
#                 Cambridge Crystallographic Data Centre
#                                CCDC 
#
#######################################################################
#
# If this CIF has been generated from an entry in the Cambridge 
# Structural Database, then it will include bibliographic, chemical, 
# crystal, experimental, refinement or atomic coordinate data resulting 
# from the CCDC's data processing and validation procedures.
#
#######################################################################

data_FITHAS
_symmetry_cell_setting           monoclinic
_symmetry_space_group_name_H-M   'P 21/n'
_symmetry_Int_Tables_number      14
_space_group_name_Hall           '-P 2yn'
loop_
_symmetry_equiv_pos_site_id
_symmetry_equiv_pos_as_xyz
1 x,y,z
2 1/2-x,1/2+y,1/2-z
3 -x,-y,-z
4 1/2+x,1/2-y,1/2+z
_cell_length_a                   20.7872(7)
_cell_length_b                   12.8061(6)
_cell_length_c                   21.6247(12)
_cell_angle_alpha                90
_cell_angle_beta                 103.246(3)
_cell_angle_gamma                90
_cell_volume                     5603.41
loop_
_atom_site_label
_atom_site_type_symbol
_atom_site_fract_x
_atom_site_fract_y
_atom_site_fract_z
Sc1 Sc 0.00076(8) 0.21405(13) 0.75775(8)
O1 O 0.0819(3) 0.2122(5) 0.7191(3)
O2 O -0.0782(3) 0.2256(5) 0.8006(3)
O3 O -0.0218(3) 0.0675(5) 0.7146(3)
O4 O -0.4487(3) -0.2127(5) 0.8255(3)
O5 O 0.4499(3) 0.6291(5) 0.6619(3)
O6 O 0.0273(3) 0.3585(5) 0.8003(3)
N1 N 0.1296(3) 0.2720(6) 0.7074(3)
C1 C 0.1825(4) 0.2256(7) 0.6961(4)
H1 H 0.1847 0.1515 0.6960
C2 C 0.2343(4) 0.2828(7) 0.6846(5)
H2 H 0.2721 0.2482 0.6769
C3 C 0.2317(4) 0.3905(7) 0.6842(4)
C4 C 0.1751(4) 0.4367(8) 0.6968(4)
H3 H 0.1718 0.5106 0.6982
C5 C 0.1241(4) 0.3754(7) 0.7071(4)
H4 H 0.0851 0.4071 0.7141
N2 N -0.1264(3) 0.1636(6) 0.8118(3)
C6 C -0.1176(5) 0.0611(8) 0.8180(5)
H5 H -0.0763 0.0312 0.8161
C7 C -0.1681(5) -0.0019(8) 0.8270(5)
H6 H -0.1615 -0.0752 0.8313
C8 C -0.2292(4) 0.0411(8) 0.8299(4)
C9 C -0.2349(5) 0.1502(7) 0.8242(5)
H7 H -0.2754 0.1828 0.8261
C10 C -0.1833(4) 0.2100(8) 0.8158(5)
H8 H -0.1875 0.2838 0.8128
N3 N -0.0166(3) 0.0460(5) 0.6552(3)
C11 C 0.0414(5) 0.0137(7) 0.6450(4)
H9 H 0.0779 0.0037 0.6800
C12 C 0.0484(4) -0.0050(7) 0.5842(4)
H10 H 0.0899 -0.0276 0.5777
C13 C -0.0031(4) 0.0083(7) 0.5337(4)
C14 C -0.0632(5) 0.0404(8) 0.5452(5)
H11 H -0.1003 0.0499 0.5106
C15 C -0.0694(4) 0.0586(8) 0.6071(4)
H12 H -0.1106 0.0797 0.6150
N4 N -0.3949(4) -0.1507(6) 0.8284(3)
C16 C -0.4033(4) -0.0483(7) 0.8236(5)
H13 H -0.4462 -0.0194 0.8186
C17 C -0.3499(4) 0.0165(8) 0.8257(5)
H14 H -0.3564 0.0900 0.8229
C18 C -0.2866(4) -0.0238(7) 0.8318(4)
C19 C -0.2816(5) -0.1330(8) 0.8370(5)
H15 H -0.2395 -0.1651 0.8417
C20 C -0.3360(5) -0.1942(8) 0.8353(5)
H16 H -0.3314 -0.2679 0.8392
N5 N 0.3965(3) 0.5705(6) 0.6656(3)
C21 C 0.4053(5) 0.4689(7) 0.6832(4)
H17 H 0.4480 0.4380 0.6910
C22 C 0.3522(4) 0.4127(8) 0.6892(4)
H18 H 0.3582 0.3421 0.7029
C23 C 0.2890(4) 0.4550(7) 0.6761(4)
C24 C 0.2833(4) 0.5591(7) 0.6576(5)
H19 H 0.2409 0.5910 0.6483
C25 C 0.3362(4) 0.6158(8) 0.6523(4)
H20 H 0.3312 0.6869 0.6394
N6 N 0.0193(3) 0.3952(6) 0.8555(3)
C26 C -0.0050(7) 0.4894(9) 0.8568(5)
H21 H -0.0167 0.5289 0.8186
C27 C -0.0138(7) 0.5317(9) 0.9125(5)
H22 H -0.0322 0.5996 0.9121
C28 C 0.0037(4) 0.4776(7) 0.9693(4)
C29 C 0.0296(5) 0.3817(8) 0.9656(5)
H23 H 0.0438 0.3418 1.0033
C30 C 0.0360(5) 0.3409(8) 0.9093(5)
H24 H 0.0528 0.2721 0.9083
Sc1A Sc 0.49924(8) -0.28595(13) 0.74225(8)
Sc1A_2 Sc -0.50076(8) -0.28595(13) 0.74225(8)
Sc1A_3 Sc 0.49924(8) 0.71405(13) 0.74225(8)
Sc1B Sc -0.00076(8) -0.21405(13) 0.24225(8)
Sc1B_2 Sc -0.00076(8) 0.78595(13) 1.24225(8)
Sc1A_4 Sc -0.50076(8) 0.71405(13) 0.74225(8)
O1A O 0.4181(3) -0.2878(5) 0.7809(3)
O2A O -0.4218(3) 0.7256(5) 0.6994(3)
O2A_2 O 0.5782(3) -0.2744(5) 0.6994(3)
O3B O 0.0218(3) -0.0675(5) 0.2854(3)
O3A O 0.5218(3) -0.4325(5) 0.7854(3)
O4A O -0.0513(3) 0.2873(5) 0.6745(3)
O4_2 O 0.5513(3) -0.2127(5) 0.8255(3)
O5A O 0.0501(3) 0.1291(5) 0.8381(3)
O5_2 O 0.4499(3) -0.3709(5) 0.6619(3)
O6B O -0.0273(3) 0.6415(5) 1.1997(3)
O6A O 0.4727(3) -0.1415(5) 0.6997(3)
N1A N 0.3704(3) -0.2280(6) 0.7926(3)
C1A C 0.3175(4) -0.2744(7) 0.8039(4)
H1A H 0.3153 -0.3485 0.8040
C2A C 0.2657(4) -0.2172(7) 0.8154(5)
H2A H 0.2279 -0.2518 0.8231
C3A C 0.2683(4) -0.1095(7) 0.8158(4)
C4A C 0.3249(4) -0.0633(8) 0.8032(4)
H3A H 0.3282 0.0106 0.8018
C5A C 0.3759(4) -0.1246(7) 0.7929(4)
H4A H 0.4149 -0.0929 0.7859
N2A N -0.3736(3) 0.6636(6) 0.6882(3)
C6A C -0.3824(5) 0.5611(8) 0.6820(5)
H5A H -0.4237 0.5312 0.6839
C7A C -0.3319(5) 0.4981(8) 0.6730(5)
H6A H -0.3385 0.4248 0.6687
C8A C -0.2708(4) 0.5411(8) 0.6701(4)
C9A C -0.2651(5) 0.6502(7) 0.6758(5)
H7A H -0.2246 0.6828 0.6739
C10A C -0.3167(4) 0.7100(8) 0.6842(5)
H8A H -0.3125 0.7838 0.6872
N3B N 0.0166(3) -0.0460(5) 0.3448(3)
C11B C -0.0414(5) -0.0137(7) 0.3550(4)
H9B H -0.0779 -0.0037 0.3200
C12B C -0.0484(4) 0.0050(7) 0.4158(4)
H10B H -0.0899 0.0276 0.4223
C13B C 0.0031(4) -0.0083(7) 0.4663(4)
C14B C 0.0632(5) -0.0404(8) 0.4548(5)
H11B H 0.1003 -0.0499 0.4894
C15B C 0.0694(4) -0.0586(8) 0.3929(4)
H12B H 0.1106 -0.0797 0.3850
N4A N -0.1051(4) 0.3493(6) 0.6716(3)
C16A C -0.0967(4) 0.4517(7) 0.6764(5)
H13A H -0.0538 0.4806 0.6814
C17A C -0.1501(4) 0.5165(8) 0.6743(5)
H14A H -0.1436 0.5900 0.6771
C18A C -0.2134(4) 0.4762(7) 0.6682(4)
C19A C -0.2184(5) 0.3670(8) 0.6630(5)
H15A H -0.2605 0.3349 0.6583
C20A C -0.1640(5) 0.3058(8) 0.6647(5)
H16A H -0.1686 0.2321 0.6608
N5A N 0.1035(3) 0.0705(6) 0.8344(3)
C21A C 0.0947(5) -0.0311(7) 0.8168(4)
H17A H 0.0520 -0.0620 0.8090
C22A C 0.1478(4) -0.0873(8) 0.8108(4)
H18A H 0.1418 -0.1579 0.7971
C23A C 0.2110(4) -0.0450(7) 0.8239(4)
C24A C 0.2167(4) 0.0591(7) 0.8424(5)
H19A H 0.2591 0.0910 0.8517
C25A C 0.1638(4) 0.1158(8) 0.8477(4)
H20A H 0.1688 0.1869 0.8606
N6B N -0.0193(3) 0.6048(6) 1.1445(3)
C26B C 0.0050(7) 0.5106(9) 1.1432(5)
H21B H 0.0167 0.4711 1.1814
C27B C 0.0138(7) 0.4683(9) 1.0875(5)
H22B H 0.0322 0.4004 1.0879
C28B C -0.0037(4) 0.5224(7) 1.0307(4)
C29B C -0.0296(5) 0.6183(8) 1.0344(5)
H23B H -0.0438 0.6582 0.9967
C30B C -0.0360(5) 0.6591(8) 1.0907(5)
H24B H -0.0528 0.7279 1.0917
S1 S 0.75251(15) 0.4951(3) 0.84188(14)
O7 O 0.7230(6) 0.3924(8) 0.8280(6)
O8 O 0.8096(4) 0.5006(9) 0.8187(4)
O9 O 0.7046(4) 0.5765(6) 0.8290(4)
C31 C 0.7812(7) 0.4964(14) 0.9268(6)
F1 F 0.8131(5) 0.5862(10) 0.9438(5)
F2 F 0.7318(4) 0.4889(10) 0.9548(4)
F3 F 0.8254(5) 0.4244(10) 0.9479(4)
S2 S 0.26640(13) 0.4153(2) 0.86693(12)
O10 O 0.2278(4) 0.3267(6) 0.8386(3)
O11 O 0.3064(3) 0.3965(6) 0.9295(3)
O12 O 0.2988(3) 0.4738(5) 0.8257(3)
C32 C 0.2036(6) 0.5045(11) 0.8827(6)
F4 F 0.1628(4) 0.5337(7) 0.8289(3)
F5 F 0.2315(4) 0.5914(6) 0.9116(3)
F6 F 0.1686(3) 0.4617(7) 0.9196(3)
S3 S 0.0511(2) 0.6868(3) 0.70441(18)
O13 O 0.1248(5) 0.6917(8) 0.7178(7)
O14 O 0.0271(5) 0.5965(9) 0.7246(5)
O15 O 0.0226(5) 0.7865(8) 0.7156(5)
C33 C 0.0347(11) 0.6725(14) 0.6226(9)
F7 F 0.0617(7) 0.5849(8) 0.6040(5)
F8 F -0.0348(7) 0.6704(11) 0.5994(6)
F9 F 0.0536(8) 0.7520(8) 0.5908(6)
C34 C 0.3404(9) 0.1734(13) 1.0061(11)
O16 O 0.2867(7) 0.2394(11) 1.0103(7)
O19 O 0.1301(16) 0.263(3) 1.1302(16)
C35 C 0.1086(16) 0.098(4) 1.010(4)
O21 O 0.1599(8) 0.1666(14) 1.0031(8)
O22 O 0.6141(7) 0.2764(11) 0.7951(7)
C37 C 0.2181(11) 0.933(5) 1.006(3)
O23 O 0.1497(11) 0.946(3) 0.9789(19)
C39 C 0.4713(18) 0.801(4) 0.942(2)
O26 O 0.4154(15) 0.751(2) 0.9568(14)
C40 C 0.337(3) 0.754(4) 0.996(4)
O27 O 0.302(3) 0.851(4) 0.997(3)
O29 O 0.0016(15) 0.934(2) 0.9209(14)
C42 C 0.001(2) 1.021(3) 0.9603(17)
O30 O 0.093(2) 0.733(4) 0.915(2)
O17? O 0.335(4) 0.0628(16) 1.007(4)
O18? O 0.1439(7) 0.2890(12) 1.1836(7)
O20? O 0.0836(8) 0.2056(14) 1.0744(8)
C36? C 0.176(3) 0.059(2) 1.002(4)
O24? O 0.091(2) 0.995(6) 0.987(4)
C38? C 0.379(5) 0.834(3) 0.964(5)
O25? O 0.378(2) 0.725(3) 0.9736(19)
O28? O 0.285(2) 0.788(3) 1.013(2)
C41? C 0.266(3) 0.894(3) 1.002(2)
O31? O 0.060(3) 0.827(4) 0.928(2)
loop_
_geom_bond_atom_site_label_1
_geom_bond_atom_site_label_2
_geom_bond_site_symmetry_1
_geom_bond_site_symmetry_2
Sc1 O1 1_555 1_555
O1 N1 1_555 1_555
O2 Sc1 1_555 1_555
O3 Sc1 1_555 1_555
O4 N4 1_555 1_555
O5 N5 1_555 1_555
O6 Sc1 1_555 1_555
N1 C1 1_555 1_555
C1 H1 1_555 1_555
C2 C1 1_555 1_555
H2 C2 1_555 1_555
C3 C2 1_555 1_555
C4 C3 1_555 1_555
H3 C4 1_555 1_555
C5 N1 1_555 1_555
H4 C5 1_555 1_555
N2 O2 1_555 1_555
C6 N2 1_555 1_555
H5 C6 1_555 1_555
C7 C6 1_555 1_555
H6 C7 1_555 1_555
C8 C7 1_555 1_555
C9 C8 1_555 1_555
H7 C9 1_555 1_555
C10 N2 1_555 1_555
H8 C10 1_555 1_555
N3 O3 1_555 1_555
C11 N3 1_555 1_555
H9 C11 1_555 1_555
C12 C11 1_555 1_555
H10 C12 1_555 1_555
C13 C12 1_555 1_555
C14 C13 1_555 1_555
H11 C14 1_555 1_555
C15 N3 1_555 1_555
H12 C15 1_555 1_555
N4 C16 1_555 1_555
C16 H13 1_555 1_555
C17 C16 1_555 1_555
H14 C17 1_555 1_555
C18 C8 1_555 1_555
C19 C18 1_555 1_555
H15 C19 1_555 1_555
C20 N4 1_555 1_555
H16 C20 1_555 1_555
N5 C21 1_555 1_555
C21 H17 1_555 1_555
C22 C21 1_555 1_555
H18 C22 1_555 1_555
C23 C3 1_555 1_555
C24 C23 1_555 1_555
H19 C24 1_555 1_555
C25 N5 1_555 1_555
H20 C25 1_555 1_555
N6 O6 1_555 1_555
C26 N6 1_555 1_555
H21 C26 1_555 1_555
C27 C26 1_555 1_555
H22 C27 1_555 1_555
C28 C27 1_555 1_555
C29 C28 1_555 1_555
H23 C29 1_555 1_555
C30 N6 1_555 1_555
H24 C30 1_555 1_555
S1 O7 1_555 1_555
O8 S1 1_555 1_555
O9 S1 1_555 1_555
C31 S1 1_555 1_555
F1 C31 1_555 1_555
F2 C31 1_555 1_555
F3 C31 1_555 1_555
S2 O10 1_555 1_555
O11 S2 1_555 1_555
O12 S2 1_555 1_555
C32 S2 1_555 1_555
F4 C32 1_555 1_555
F5 C32 1_555 1_555
F6 C32 1_555 1_555
S3 O13 1_555 1_555
O14 S3 1_555 1_555
O15 S3 1_555 1_555
C33 S3 1_555 1_555
F7 C33 1_555 1_555
F8 C33 1_555 1_555
F9 C33 1_555 1_555
C34 O16 1_555 1_555
C35 O21 1_555 1_555
C37 O23 1_555 1_555
C39 O26 1_555 1_555
C40 O27 1_555 1_555
O29 C42 1_555 1_555
Sc1A O1A 1_555 1_555
Sc1A_2 O4 1_555 1_555
Sc1A_3 O5 1_555 1_555
Sc1B O3B 1_555 1_555
Sc1B_2 O6B 1_555 1_555
Sc1A_4 O2A 1_555 1_555
O1A N1A 1_555 1_555
O2A N2A 1_555 1_555
O2A_2 Sc1A 1_555 1_555
O3B N3B 1_555 1_555
O3A Sc1A 1_555 1_555
O4A Sc1 1_555 1_555
O4_2 Sc1A 1_555 1_555
O5A Sc1 1_555 1_555
O5_2 Sc1A 1_555 1_555
O6B N6B 1_555 1_555
O6A Sc1A 1_555 1_555
N1A C1A 1_555 1_555
C1A H1A 1_555 1_555
C2A C1A 1_555 1_555
H2A C2A 1_555 1_555
C3A C2A 1_555 1_555
C4A C3A 1_555 1_555
H3A C4A 1_555 1_555
C5A N1A 1_555 1_555
H4A C5A 1_555 1_555
N2A C6A 1_555 1_555
C6A H5A 1_555 1_555
C7A C6A 1_555 1_555
H6A C7A 1_555 1_555
C8A C7A 1_555 1_555
C9A C8A 1_555 1_555
H7A C9A 1_555 1_555
C10A N2A 1_555 1_555
H8A C10A 1_555 1_555
N3B C11B 1_555 1_555
C11B H9B 1_555 1_555
C12B C11B 1_555 1_555
H10B C12B 1_555 1_555
C13B C13 1_555 1_555
C14B C13B 1_555 1_555
H11B C14B 1_555 1_555
C15B N3B 1_555 1_555
H12B C15B 1_555 1_555
N4A O4A 1_555 1_555
C16A N4A 1_555 1_555
H13A C16A 1_555 1_555
C17A C16A 1_555 1_555
H14A C17A 1_555 1_555
C18A C8A 1_555 1_555
C19A C18A 1_555 1_555
H15A C19A 1_555 1_555
C20A N4A 1_555 1_555
H16A C20A 1_555 1_555
N5A O5A 1_555 1_555
C21A N5A 1_555 1_555
H17A C21A 1_555 1_555
C22A C21A 1_555 1_555
H18A C22A 1_555 1_555
C23A C3A 1_555 1_555
C24A C23A 1_555 1_555
H19A C24A 1_555 1_555
C25A N5A 1_555 1_555
H20A C25A 1_555 1_555
N6B C26B 1_555 1_555
C26B H21B 1_555 1_555
C27B C26B 1_555 1_555
H22B C27B 1_555 1_555
C28B C28 1_555 1_555
C29B C28B 1_555 1_555
H23B C29B 1_555 1_555
C30B N6B 1_555 1_555
H24B C30B 1_555 1_555
C4 C5 1_555 1_555
C9 C10 1_555 1_555
C14 C15 1_555 1_555
C17 C18 1_555 1_555
C19 C20 1_555 1_555
C22 C23 1_555 1_555
C24 C25 1_555 1_555
C29 C30 1_555 1_555
C4A C5A 1_555 1_555
C9A C10A 1_555 1_555
C12B C13B 1_555 1_555
C14B C15B 1_555 1_555
C17A C18A 1_555 1_555
C19A C20A 1_555 1_555
C22A C23A 1_555 1_555
C24A C25A 1_555 1_555
C27B C28B 1_555 1_555
C29B C30B 1_555 1_555

#END
