
#######################################################################
#
#                 Cambridge Crystallographic Data Centre
#                                CCDC 
#
#######################################################################
#
# If this CIF has been generated from an entry in the Cambridge 
# Structural Database, then it will include bibliographic, chemical, 
# crystal, experimental, refinement or atomic coordinate data resulting 
# from the CCDC's data processing and validation procedures.
#
#######################################################################

data_FITJIC
_symmetry_cell_setting           monoclinic
_symmetry_space_group_name_H-M   'C 2/c'
_symmetry_Int_Tables_number      15
_space_group_name_Hall           '-C 2yn'
loop_
_symmetry_equiv_pos_site_id
_symmetry_equiv_pos_as_xyz
1 x,y,z
2 1/2+x,1/2+y,z
3 -x,y,1/2-z
4 1/2-x,1/2+y,1/2-z
5 -x,-y,-z
6 1/2-x,1/2-y,-z
7 x,-y,1/2+z
8 1/2+x,1/2-y,1/2+z
_cell_length_a                   13.9723(5)
_cell_length_b                   10.7349(4)
_cell_length_c                   15.6958(4)
_cell_angle_alpha                90
_cell_angle_beta                 98.147(2)
_cell_angle_gamma                90
_cell_volume                     2330.47
loop_
_atom_site_label
_atom_site_type_symbol
_atom_site_fract_x
_atom_site_fract_y
_atom_site_fract_z
Eu1 Eu 0.44486(3) 0.22503(4) 0.44083(2)
P1 P 0.20643(16) 0.4010(2) 0.40323(14)
N1 N 0.2314(5) 0.3814(7) 0.2309(4)
H1 H 0.2730 0.3222 0.2557
C1 C 0.1557(6) 0.3953(9) 0.2891(5)
H2 H 0.1194 0.4711 0.2742
H3 H 0.1110 0.3258 0.2797
C2 C 0.2914(7) 0.4950(10) 0.2245(6)
H4 H 0.3375 0.4793 0.1858
H5 H 0.2504 0.5631 0.2031
H6 H 0.3249 0.5157 0.2803
C3 C 0.1905(7) 0.3303(9) 0.1449(6)
H7 H 0.2435 0.3153 0.1124
H8 H 0.1610 0.2504 0.1536
C4 C 0.1161(6) 0.4109(8) 0.0906(5)
C5 C 0.5544(6) 0.2170(8) 0.2692(5)
C6 C 0.4955(7) 0.4824(9) 0.5474(6)
O1 O 0.5740(4) 0.2016(6) 0.3483(4)
O2 O 0.6126(4) 0.2303(6) 0.2172(4)
O3 O 0.4781(6) 0.3708(6) 0.5618(4)
O4 O 0.5051(5) 0.5680(6) 0.6024(4)
O5 O 0.2952(4) 0.3234(7) 0.4139(4)
O6 O 0.1265(5) 0.3668(6) 0.4512(4)
O7 O 0.2388(5) 0.5411(6) 0.4235(4)
H9 H 0.1951 0.5883 0.4036
O8 O 0.0965(5) 0.5171(6) 0.1154(4)
O9 O 0.0848(4) 0.3617(6) 0.0188(4)
Eu1B Eu 0.55514(3) 0.22503(4) 0.05917(2)
Eu1D Eu 0.55514(3) 0.77497(4) 0.55917(2)
Eu1E Eu 0.05514(3) 0.27497(4) 0.55917(2)
Eu1C Eu 0.05514(3) 0.72503(4) 0.05917(2)
Eu1G Eu -0.05514(3) 0.27497(4) -0.05917(2)
Eu1F Eu 0.44486(3) -0.22503(4) 0.94083(2)
Eu1B_2 Eu 0.55514(3) 0.22503(4) 1.05917(2)
P1E P 0.29357(16) 0.0990(2) 0.59677(14)
N1E N 0.2686(5) 0.1186(7) 0.7691(4)
H1E H 0.2270 0.1778 0.7443
C1E C 0.3443(6) 0.1047(9) 0.7109(5)
H2E H 0.3806 0.0289 0.7258
H3E H 0.3890 0.1742 0.7203
C2E C 0.2086(7) 0.0050(10) 0.7755(6)
H4E H 0.1625 0.0207 0.8142
H5E H 0.2496 -0.0631 0.7969
H6E H 0.1751 -0.0157 0.7197
C3E C 0.3095(7) 0.1697(9) 0.8551(6)
H7E H 0.2565 0.1847 0.8876
H8E H 0.3390 0.2496 0.8464
C4E C 0.3839(6) 0.0891(8) 0.9094(5)
C5B C 0.4456(6) 0.2170(8) 0.2308(5)
C6D C 0.5045(7) 0.5176(9) 0.4526(6)
O1B O 0.4260(4) 0.2016(6) 0.1517(4)
O2B O 0.3874(4) 0.2303(6) 0.2828(4)
O3D O 0.5219(6) 0.6292(6) 0.4382(4)
O3B O 0.5219(6) 0.3708(6) -0.0618(4)
O4D O 0.4949(5) 0.4320(6) 0.3976(4)
O4F O 0.5051(5) 0.4320(6) 0.1024(4)
O5E O 0.2048(4) 0.1766(7) 0.5861(4)
O5B O 0.7048(4) 0.3234(7) 0.0861(4)
O6E O 0.3735(5) 0.1332(6) 0.5488(4)
O6G O 0.6265(5) 0.1332(6) -0.0488(4)
O7E O 0.2612(5) -0.0411(6) 0.5765(4)
H9E H 0.3049 -0.0883 0.5964
O8E O 0.4035(5) -0.0171(6) 0.8846(4)
O8C O 0.4035(5) 0.0171(6) 0.3846(4)
O8A O 0.5965(5) 0.0171(6) 0.1154(4)
O9E O 0.4152(4) 0.1383(6) 0.9812(4)
O9G O 0.5848(4) 0.1383(6) 0.5188(4)
O9E_2 O 0.4152(4) 0.1383(6) -0.0188(4)
O10 O 0.5000 0.3365(12) 0.7500
loop_
_geom_bond_atom_site_label_1
_geom_bond_atom_site_label_2
_geom_bond_site_symmetry_1
_geom_bond_site_symmetry_2
Eu1 O1 1_555 1_555
P1 C1 1_555 1_555
N1 H1 1_555 1_555
C1 N1 1_555 1_555
H2 C1 1_555 1_555
H3 C1 1_555 1_555
C2 N1 1_555 1_555
H4 C2 1_555 1_555
H5 C2 1_555 1_555
H6 C2 1_555 1_555
C3 N1 1_555 1_555
H7 C3 1_555 1_555
H8 C3 1_555 1_555
C4 C3 1_555 1_555
C5 O1 1_555 1_555
C6 O3 1_555 1_555
O2 C5 1_555 1_555
O3 Eu1 1_555 1_555
O4 C6 1_555 1_555
O5 Eu1 1_555 1_555
O6 P1 1_555 1_555
O7 P1 1_555 1_555
H9 O7 1_555 1_555
O8 C4 1_555 1_555
O9 C4 1_555 1_555
Eu1B O2 1_555 1_555
Eu1D O4 1_555 1_555
Eu1E O6 1_555 1_555
Eu1C O8 1_555 1_555
Eu1G O9 1_555 1_555
Eu1F O8E 1_555 1_555
Eu1B_2 O9E 1_555 1_555
P1E C1E 1_555 1_555
N1E H1E 1_555 1_555
C1E N1E 1_555 1_555
H2E C1E 1_555 1_555
H3E C1E 1_555 1_555
C2E N1E 1_555 1_555
H4E C2E 1_555 1_555
H5E C2E 1_555 1_555
H6E C2E 1_555 1_555
C3E N1E 1_555 1_555
H7E C3E 1_555 1_555
H8E C3E 1_555 1_555
C4E C3E 1_555 1_555
C5B C5 1_555 1_555
C6D C6 1_555 1_555
O1B Eu1B 1_555 1_555
O2B Eu1 1_555 1_555
O3D Eu1D 1_555 1_555
O3B Eu1B 1_555 1_555
O4D Eu1 1_555 1_555
O4F Eu1B 1_555 1_555
O5E Eu1E 1_555 1_555
O5B Eu1B 1_555 1_555
O6E Eu1 1_555 1_555
O6G Eu1B 1_555 1_555
O7E P1E 1_555 1_555
H9E O7E 1_555 1_555
O8E C4E 1_555 1_555
O8C Eu1 1_555 1_555
O8A Eu1B 1_555 1_555
O9E C4E 1_555 1_555
O9G Eu1 1_555 1_555
O9E_2 Eu1B 1_555 1_555
P1 O5 1_555 1_555
P1E O5E 1_555 1_555
P1E O6E 1_555 1_555
C5B O1B 1_555 1_555
C5B O2B 1_555 1_555
C6D O3D 1_555 1_555
C6D O4D 1_555 1_555

#END
