
#######################################################################
#
#                 Cambridge Crystallographic Data Centre
#                                CCDC 
#
#######################################################################
#
# If this CIF has been generated from an entry in the Cambridge 
# Structural Database, then it will include bibliographic, chemical, 
# crystal, experimental, refinement or atomic coordinate data resulting 
# from the CCDC's data processing and validation procedures.
#
#######################################################################

data_FITYIR
_symmetry_cell_setting           triclinic
_symmetry_space_group_name_H-M   'P -1'
_symmetry_Int_Tables_number      2
_space_group_name_Hall           '-P 1'
loop_
_symmetry_equiv_pos_site_id
_symmetry_equiv_pos_as_xyz
1 x,y,z
2 -x,-y,-z
_cell_length_a                   6.8027(3)
_cell_length_b                   11.0806(4)
_cell_length_c                   12.1725(5)
_cell_angle_alpha                63.8120(10)
_cell_angle_beta                 81.043(2)
_cell_angle_gamma                86.935(2)
_cell_volume                     813.193
loop_
_atom_site_label
_atom_site_type_symbol
_atom_site_fract_x
_atom_site_fract_y
_atom_site_fract_z
Cd1 Cd 0.70627(16) 0.38997(11) 0.69823(10)
P1 P 0.7083(6) 0.7433(4) 0.5588(4)
P2 P 1.2114(5) 0.4686(4) 0.6467(4)
O1 O 0.7473(17) 0.6064(11) 0.6593(10)
O2 O 1.0517(14) 0.3833(10) 0.6410(10)
O3 O 1.3001(15) 0.5729(10) 0.5094(8)
O4 O 1.3767(15) 0.3929(9) 0.7120(8)
O5 O 1.1138(16) 0.5583(11) 0.7108(10)
H1 H 0.9991 0.5752 0.6964
O6 O 0.8909(16) 0.7909(10) 0.4528(9)
H2 H 0.9093 0.7367 0.4234
O7 O 0.7085(18) 0.8470(11) 0.6138(10)
H3 H 0.6157 0.8295 0.6705
O8 O 0.5188(16) 0.7516(10) 0.5054(11)
N1 N 0.7246(18) 0.1560(13) 0.8177(11)
N2 N 0.7278(18) 0.3478(12) 0.9026(11)
C1 C 0.713(2) 0.0615(16) 0.7835(15)
H4 H 0.6951 0.0882 0.7018
C2 C 0.724(3) -0.0734(16) 0.8559(17)
H5 H 0.7184 -0.1357 0.8246
C3 C 0.745(2) -0.1120(16) 0.9756(16)
H6 H 0.7540 -0.2030 1.0279
C4 C 0.752(2) -0.0187(16) 1.0211(14)
C5 C 0.772(2) -0.0523(16) 1.1491(15)
H7 H 0.7824 -0.1420 1.2047
C6 C 0.775(2) 0.0409(16) 1.1880(14)
H8 H 0.7843 0.0153 1.2707
C7 C 0.764(2) 0.1780(18) 1.1077(15)
C8 C 0.764(2) 0.2814(17) 1.1458(14)
H9 H 0.7774 0.2594 1.2273
C9 C 0.746(3) 0.4123(18) 1.0651(16)
H10 H 0.7441 0.4802 1.0905
C10 C 0.730(2) 0.4420(15) 0.9422(14)
H11 H 0.7212 0.5316 0.8859
C11 C 0.749(2) 0.2192(15) 0.9811(13)
C12 C 0.743(2) 0.1173(15) 0.9398(13)
Cd1A Cd 1.29373(16) 0.61003(11) 0.30177(10)
Cd1_2 Cd 1.70627(16) 0.38997(11) 0.69823(10)
O3A O 0.6999(15) 0.4271(10) 0.4906(8)
O4_2 O 0.3767(15) 0.3929(9) 0.7120(8)
O9 O 0.7903(18) 1.0947(11) 0.4708(11)
loop_
_geom_bond_atom_site_label_1
_geom_bond_atom_site_label_2
_geom_bond_site_symmetry_1
_geom_bond_site_symmetry_2
Cd1 O1 1_555 1_555
P1 O1 1_555 1_555
P2 O2 1_555 1_555
O2 Cd1 1_555 1_555
O3 P2 1_555 1_555
O4 P2 1_555 1_555
O5 P2 1_555 1_555
H1 O5 1_555 1_555
O6 P1 1_555 1_555
H2 O6 1_555 1_555
O7 P1 1_555 1_555
H3 O7 1_555 1_555
O8 P1 1_555 1_555
N1 Cd1 1_555 1_555
N2 Cd1 1_555 1_555
C1 N1 1_555 1_555
H4 C1 1_555 1_555
C2 C1 1_555 1_555
H5 C2 1_555 1_555
C3 C2 1_555 1_555
H6 C3 1_555 1_555
C4 C3 1_555 1_555
C5 C4 1_555 1_555
H7 C5 1_555 1_555
C6 C5 1_555 1_555
H8 C6 1_555 1_555
C7 C6 1_555 1_555
C8 C7 1_555 1_555
H9 C8 1_555 1_555
C9 C8 1_555 1_555
H10 C9 1_555 1_555
C10 N2 1_555 1_555
H11 C10 1_555 1_555
C11 N2 1_555 1_555
C12 N1 1_555 1_555
Cd1A O3 1_555 1_555
Cd1_2 O4 1_555 1_555
O3A Cd1 1_555 1_555
O4_2 Cd1 1_555 1_555
C4 C12 1_555 1_555
C7 C11 1_555 1_555
C9 C10 1_555 1_555
C11 C12 1_555 1_555

#END
