
#######################################################################
#
#                 Cambridge Crystallographic Data Centre
#                                CCDC 
#
#######################################################################
#
# If this CIF has been generated from an entry in the Cambridge 
# Structural Database, then it will include bibliographic, chemical, 
# crystal, experimental, refinement or atomic coordinate data resulting 
# from the CCDC's data processing and validation procedures.
#
#######################################################################

data_FITZUE
_symmetry_cell_setting           triclinic
_symmetry_space_group_name_H-M   'P -1'
_symmetry_Int_Tables_number      2
_space_group_name_Hall           '-P 1'
loop_
_symmetry_equiv_pos_site_id
_symmetry_equiv_pos_as_xyz
1 x,y,z
2 -x,-y,-z
_cell_length_a                   8.895(7)
_cell_length_b                   9.195(8)
_cell_length_c                   9.823(8)
_cell_angle_alpha                85.386(16)
_cell_angle_beta                 74.799(16)
_cell_angle_gamma                86.577(14)
_cell_volume                     772.173
loop_
_atom_site_label
_atom_site_type_symbol
_atom_site_fract_x
_atom_site_fract_y
_atom_site_fract_z
Co1 Co 0.0000 1.0000 0.0000
Co2 Co -1.0000 1.0000 0.5000
N1 N -0.5468(13) 0.7678(11) 0.2120(11)
N2 N 0.3929(11) 0.7579(11) -0.2297(10)
N3 N -0.9163(12) 0.5697(12) 0.6607(10)
O1 O -0.1103(8) 0.8160(8) -0.0023(8)
O2 O -0.2873(9) 0.6535(9) 0.0108(9)
O3 O -0.9086(8) 0.9026(8) 0.1668(8)
O4 O -0.8127(8) 1.0069(9) 0.3199(8)
O5 O -0.6485(10) 0.6843(10) 0.2124(10)
O6 O -0.4630(10) 0.7605(10) 0.2915(9)
O7 O 0.1916(8) 0.9187(9) -0.1584(7)
O8 O -0.9130(9) 0.7934(9) 0.5492(8)
O9 O -0.8570(9) 1.1018(11) 0.6011(9)
C1 C -0.3731(12) 0.8996(11) 0.0067(10)
C2 C -0.6465(12) 0.9860(13) 0.0923(11)
C3 C -0.5251(13) 0.8863(12) 0.1008(11)
C4 C -0.2449(13) 0.7784(14) 0.0055(11)
C5 C -0.8018(13) 0.9636(13) 0.2054(13)
C6 C 0.2626(14) 0.7993(13) -0.1429(12)
H1 H 0.2198 0.7366 -0.0651
C7 C 0.4667(14) 0.8451(16) -0.3549(13)
H2 H 0.5612 0.7958 -0.4037
H3 H 0.4904 0.9379 -0.3289
H4 H 0.3976 0.8600 -0.4156
C8 C 0.4691(15) 0.6169(14) -0.1999(15)
H5 H 0.5634 0.6023 -0.2728
H6 H 0.4002 0.5396 -0.1971
H7 H 0.4934 0.6167 -0.1102
C9 C -0.9687(15) 0.7043(15) 0.6466(13)
H8 H -1.0551 0.7351 0.7159
C10 C -0.7904(15) 0.5096(13) 0.5521(13)
H9 H -0.7685 0.4096 0.5795
H10 H -0.6990 0.5648 0.5401
H11 H -0.8202 0.5145 0.4647
C11 C -0.9849(17) 0.4693(15) 0.7836(15)
H12 H -0.9308 0.3758 0.7730
H13 H -1.0930 0.4586 0.7890
H14 H -0.9755 0.5084 0.8686
H15 H -0.820(12) 1.041(8) 0.659(10)
H16 H -0.809(13) 1.184(6) 0.591(13)
Co1_2 Co -1.0000 1.0000 0.0000
Co2_2 Co 0.0000 1.0000 -0.5000
N1A N -0.4532(13) 1.2322(11) -0.2120(11)
N2A N -0.3929(11) 1.2421(11) 0.2297(10)
N3A N -1.0837(12) 1.4303(12) 0.3393(10)
O1A O -0.8897(8) 1.1840(8) 0.0023(8)
O1A_2 O 0.1103(8) 1.1840(8) 0.0023(8)
O2A O -0.7127(9) 1.3465(9) -0.0108(9)
O3A O -0.0914(8) 1.0974(8) -0.1668(8)
O3_2 O 0.0914(8) 0.9026(8) 0.1668(8)
O4A O -0.1873(8) 0.9931(9) -0.3199(8)
O4A_2 O -1.1873(8) 0.9931(9) 0.6801(8)
O5A O -0.3515(10) 1.3157(10) -0.2124(10)
O6A O -0.5370(10) 1.2395(10) -0.2915(9)
O7A O -0.1916(8) 1.0813(9) 0.1584(7)
O8A O -1.0870(9) 1.2066(9) 0.4508(8)
O9A O -1.1430(9) 0.8982(11) 0.3989(9)
C1A C -0.6269(12) 1.1004(11) -0.0067(10)
C2A C -0.3535(12) 1.0140(13) -0.0923(11)
C3A C -0.4749(13) 1.1137(12) -0.1008(11)
C4A C -0.7551(13) 1.2216(14) -0.0055(11)
C5A C -0.1982(13) 1.0364(13) -0.2054(13)
C6A C -0.2626(14) 1.2007(13) 0.1429(12)
H1A H -0.2198 1.2634 0.0651
C7A C -0.4667(14) 1.1549(16) 0.3549(13)
H2A H -0.5612 1.2042 0.4037
H3A H -0.4904 1.0621 0.3289
H4A H -0.3976 1.1400 0.4156
C8A C -0.4691(15) 1.3831(14) 0.1999(15)
H5A H -0.5634 1.3977 0.2728
H6A H -0.4002 1.4604 0.1971
H7A H -0.4934 1.3833 0.1102
C9A C -1.0313(15) 1.2957(15) 0.3534(13)
H8A H -0.9449 1.2649 0.2841
C10A C -1.2096(15) 1.4904(13) 0.4479(13)
H9A H -1.2315 1.5904 0.4205
H10A H -1.3010 1.4352 0.4599
H11A H -1.1798 1.4855 0.5353
C11A C -1.0151(17) 1.5307(15) 0.2164(15)
H12A H -1.0692 1.6242 0.2270
H13A H -0.9070 1.5414 0.2110
H14A H -1.0245 1.4916 0.1314
H15A H -1.180(12) 0.959(8) 0.341(10)
H16A H -1.191(13) 0.816(6) 0.409(13)
loop_
_geom_bond_atom_site_label_1
_geom_bond_atom_site_label_2
_geom_bond_site_symmetry_1
_geom_bond_site_symmetry_2
Co1 O1 1_555 1_555
Co2 O4 1_555 1_555
N1 O5 1_555 1_555
N2 C6 1_555 1_555
N3 C9 1_555 1_555
O1 C4 1_555 1_555
O2 C4 1_555 1_555
O3 C5 1_555 1_555
O4 C5 1_555 1_555
O6 N1 1_555 1_555
O7 Co1 1_555 1_555
O8 Co2 1_555 1_555
O9 Co2 1_555 1_555
C1 C3 1_555 1_555
C2 C3 1_555 1_555
C3 N1 1_555 1_555
C4 C1 1_555 1_555
C5 C2 1_555 1_555
C6 O7 1_555 1_555
H1 C6 1_555 1_555
C7 N2 1_555 1_555
H2 C7 1_555 1_555
H3 C7 1_555 1_555
H4 C7 1_555 1_555
C8 N2 1_555 1_555
H5 C8 1_555 1_555
H6 C8 1_555 1_555
H7 C8 1_555 1_555
C9 O8 1_555 1_555
H8 C9 1_555 1_555
C10 N3 1_555 1_555
H9 C10 1_555 1_555
H10 C10 1_555 1_555
H11 C10 1_555 1_555
C11 N3 1_555 1_555
H12 C11 1_555 1_555
H13 C11 1_555 1_555
H14 C11 1_555 1_555
H15 O9 1_555 1_555
H16 O9 1_555 1_555
Co1_2 O3 1_555 1_555
Co2_2 O4A 1_555 1_555
N1A O5A 1_555 1_555
N2A C6A 1_555 1_555
N3A C9A 1_555 1_555
O1A Co1_2 1_555 1_555
O1A_2 Co1 1_555 1_555
O2A C4A 1_555 1_555
O3A Co1 1_555 1_555
O3_2 Co1 1_555 1_555
O4A C5A 1_555 1_555
O4A_2 Co2 1_555 1_555
O6A N1A 1_555 1_555
O7A Co1 1_555 1_555
O8A Co2 1_555 1_555
O9A Co2 1_555 1_555
C1A C2 1_555 1_555
C2A C1 1_555 1_555
C3A N1A 1_555 1_555
C4A O1A 1_555 1_555
C5A O3A 1_555 1_555
C6A O7A 1_555 1_555
H1A C6A 1_555 1_555
C7A N2A 1_555 1_555
H2A C7A 1_555 1_555
H3A C7A 1_555 1_555
H4A C7A 1_555 1_555
C8A N2A 1_555 1_555
H5A C8A 1_555 1_555
H6A C8A 1_555 1_555
H7A C8A 1_555 1_555
C9A O8A 1_555 1_555
H8A C9A 1_555 1_555
C10A N3A 1_555 1_555
H9A C10A 1_555 1_555
H10A C10A 1_555 1_555
H11A C10A 1_555 1_555
C11A N3A 1_555 1_555
H12A C11A 1_555 1_555
H13A C11A 1_555 1_555
H14A C11A 1_555 1_555
H15A O9A 1_555 1_555
H16A O9A 1_555 1_555
C1A C3A 1_555 1_555
C1A C4A 1_555 1_555
C2A C3A 1_555 1_555
C2A C5A 1_555 1_555

#END
