
#######################################################################
#
#                 Cambridge Crystallographic Data Centre
#                                CCDC 
#
#######################################################################
#
# If this CIF has been generated from an entry in the Cambridge 
# Structural Database, then it will include bibliographic, chemical, 
# crystal, experimental, refinement or atomic coordinate data resulting 
# from the CCDC's data processing and validation procedures.
#
#######################################################################

data_FIVKAW10
_symmetry_cell_setting           monoclinic
_symmetry_space_group_name_H-M   'P 21/a'
_symmetry_Int_Tables_number      14
_space_group_name_Hall           '-P 2yab'
loop_
_symmetry_equiv_pos_site_id
_symmetry_equiv_pos_as_xyz
1 x,y,z
2 1/2-x,1/2+y,-z
3 -x,-y,-z
4 1/2+x,1/2-y,z
_cell_length_a                   13.222(3)
_cell_length_b                   10.820(2)
_cell_length_c                   11.821(3)
_cell_angle_alpha                90
_cell_angle_beta                 110.51(2)
_cell_angle_gamma                90
_cell_volume                     1583.94
loop_
_atom_site_label
_atom_site_type_symbol
_atom_site_fract_x
_atom_site_fract_y
_atom_site_fract_z
Cu1 Cu 0.13416(5) 0.18957(5) 0.14303(6)
O1 O 0.1942(3) 0.3295(3) 0.0849(3)
O2 O 0.2074(3) 0.5355(3) 0.0943(3)
O3 O 0.0661(3) 0.0576(3) 0.1925(3)
O4 O -0.2072(3) 0.3484(3) 0.3093(4)
N1 N -0.0933(3) -0.0514(4) 0.3544(4)
N2 N 0.0667(3) 0.3149(3) 0.2114(3)
C1 C -0.0309(4) -0.0515(4) 0.2874(5)
C2 C 0.0043(4) 0.0645(4) 0.2549(4)
C3 C -0.0300(4) 0.1740(4) 0.2963(4)
C4 C -0.0994(4) 0.1661(4) 0.3648(4)
C5 C -0.1285(4) 0.0523(5) 0.3940(5)
C6 C 0.1719(4) 0.4355(4) 0.1178(4)
C7 C 0.0958(4) 0.4388(4) 0.1869(4)
C8 C 0.1050(4) 0.5425(5) 0.2752(5)
C9 C 0.0134(4) 0.5421(5) 0.1597(5)
C10 C 0.0007(5) -0.1703(5) 0.2472(6)
C11 C 0.0032(4) 0.2962(4) 0.2700(4)
C12 C -0.1404(4) 0.2798(5) 0.4111(5)
O5 O 0.1726(4) 0.0647(4) 0.0440(4)
H1 H -0.117(5) -0.123(6) 0.373(5)
H2 H -0.179(4) 0.041(5) 0.432(5)
H3 H 0.164(4) 0.603(5) 0.287(4)
H4 H 0.094(4) 0.520(4) 0.345(4)
H5 H -0.059(4) 0.521(5) 0.158(4)
H6 H 0.016(4) 0.597(5) 0.092(4)
H7 H -0.018(6) -0.167(7) 0.160(6)
H8 H -0.032(5) -0.230(6) 0.269(5)
H9 H 0.071(5) -0.177(6) 0.274(5)
H10 H -0.025(4) 0.365(5) 0.304(4)
H11 H -0.074(4) 0.328(5) 0.466(5)
H12 H -0.179(4) 0.253(5) 0.461(5)
H13 H -0.223(6) 0.423(7) 0.329(7)
H14 H 0.161(6) 0.006(8) 0.056(7)
H15 H 0.225(7) 0.068(9) 0.028(8)
O4C O 0.2928(3) 0.1516(3) 0.3093(4)
Cu1C Cu -0.36584(5) 0.31043(5) 0.14303(6)
H13C H 0.277(6) 0.077(7) 0.329(7)
O6 O 0.1557(5) -0.1927(4) 0.0378(5)
H16 H 0.172(7) -0.253(8) 0.079(7)
H17 H 0.200(7) -0.197(9) 0.002(8)
N3 N -0.1749(4) -0.3547(4) 0.4074(4)
O7 O -0.1893(5) -0.2463(5) 0.4231(6)
O8 O -0.2402(4) -0.4350(5) 0.4155(5)
O9 O -0.0924(5) -0.3943(7) 0.3928(8)
O10? O -0.2022(10) -0.4402(11) 0.4571(10)
O11? O -0.1751(21) -0.3541(20) 0.2990(17)
O12? O -0.1517(13) -0.2539(13) 0.4666(12)
loop_
_geom_bond_atom_site_label_1
_geom_bond_atom_site_label_2
_geom_bond_site_symmetry_1
_geom_bond_site_symmetry_2
Cu1 O1 1_555 1_555
O1 C6 1_555 1_555
O2 C6 1_555 1_555
O3 Cu1 1_555 1_555
O4 C12 1_555 1_555
N1 C1 1_555 1_555
N2 Cu1 1_555 1_555
C1 C2 1_555 1_555
C2 O3 1_555 1_555
C3 C2 1_555 1_555
C4 C3 1_555 1_555
C5 N1 1_555 1_555
C6 C7 1_555 1_555
C7 N2 1_555 1_555
C8 C7 1_555 1_555
C9 C7 1_555 1_555
C10 C1 1_555 1_555
C11 N2 1_555 1_555
C12 C4 1_555 1_555
O5 Cu1 1_555 1_555
O6 H16 1_555 1_555
N3 O7 1_555 1_555
O8 N3 1_555 1_555
O9 N3 1_555 1_555
H1 N1 1_555 1_555
H2 C5 1_555 1_555
H3 C8 1_555 1_555
H4 C8 1_555 1_555
H5 C9 1_555 1_555
H6 C9 1_555 1_555
H7 C10 1_555 1_555
H8 C10 1_555 1_555
H9 C10 1_555 1_555
H10 C11 1_555 1_555
H11 C12 1_555 1_555
H12 C12 1_555 1_555
H13 O4 1_555 1_555
H14 O5 1_555 1_555
H15 O5 1_555 1_555
H17 O6 1_555 1_555
O4C Cu1 1_555 1_555
Cu1C O4 1_555 1_555
H13C O4C 1_555 1_555
C3 C11 1_555 1_555
C4 C5 1_555 1_555
C8 C9 1_555 1_555

#END
