
#######################################################################
#
#                 Cambridge Crystallographic Data Centre
#                                CCDC 
#
#######################################################################
#
# If this CIF has been generated from an entry in the Cambridge 
# Structural Database, then it will include bibliographic, chemical, 
# crystal, experimental, refinement or atomic coordinate data resulting 
# from the CCDC's data processing and validation procedures.
#
#######################################################################

data_FIVPIK
_symmetry_cell_setting           monoclinic
_symmetry_space_group_name_H-M   'C 2/c'
_symmetry_Int_Tables_number      15
_space_group_name_Hall           '-C 2yn'
loop_
_symmetry_equiv_pos_site_id
_symmetry_equiv_pos_as_xyz
1 x,y,z
2 1/2+x,1/2+y,z
3 -x,y,1/2-z
4 1/2-x,1/2+y,1/2-z
5 -x,-y,-z
6 1/2-x,1/2-y,-z
7 x,-y,1/2+z
8 1/2+x,1/2-y,1/2+z
_cell_length_a                   8.1793(18)
_cell_length_b                   11.889(2)
_cell_length_c                   12.961(2)
_cell_angle_alpha                90.00
_cell_angle_beta                 92.238(16)
_cell_angle_gamma                90.00
_cell_volume                     1259.41
loop_
_atom_site_label
_atom_site_type_symbol
_atom_site_fract_x
_atom_site_fract_y
_atom_site_fract_z
Ag1 Ag 0.53864(3) 0.04444(2) 0.14274(2)
O1 O 0.6839(3) 0.0577(3) -0.0253(2)
O2 O 0.8201(4) 0.1264(3) 0.1043(2)
O3 O 0.9304(4) 0.1189(4) -0.0429(2)
N1 N 0.6728(3) -0.1202(2) 0.1755(2)
N2 N 0.8665(3) -0.3123(2) 0.1753(2)
N3 N 0.8130(4) 0.1024(3) 0.0112(2)
C1 C 0.6213(4) -0.2144(3) 0.1296(3)
H1 H 0.5185 -0.2157 0.0963
C2 C 0.7159(4) -0.3101(3) 0.1299(3)
H2 H 0.6748 -0.3748 0.0979
C3 C 0.9175(4) -0.2187(3) 0.2236(2)
C4 C 0.8196(4) -0.1233(3) 0.2233(3)
H3 H 0.8580 -0.0594 0.2577
Ag1D Ag 0.46136(3) -0.04444(2) -0.14274(2)
Ag1B Ag 0.46136(3) 0.04444(2) 0.35726(2)
Ag1A Ag 1.03864(3) -0.45556(2) 0.14274(2)
Ag1C Ag 0.96136(3) -0.45556(2) 0.35726(2)
Ag1B_2 Ag 1.46136(3) 0.04444(2) 0.35726(2)
Ag1F Ag 0.53864(3) -0.04444(2) -0.35726(2)
O1D O 0.3161(3) -0.0577(3) 0.0253(2)
O2D O 0.1799(4) -0.1264(3) -0.1043(2)
O3D O 0.0696(4) -0.1189(4) 0.0429(2)
N1B N 1.3272(3) -0.1202(2) 0.3245(2)
N1D N 0.3272(3) 0.1202(2) -0.1755(2)
N2B N 1.1335(3) -0.3123(2) 0.3247(2)
N2A N 0.3665(3) 0.1877(2) 0.1753(2)
N2E N 0.6335(3) -0.1877(2) -0.1753(2)
N3D N 0.1870(4) -0.1024(3) -0.0112(2)
C1B C 1.3787(4) -0.2144(3) 0.3704(3)
H1B H 1.4815 -0.2157 0.4037
C2B C 1.2841(4) -0.3101(3) 0.3701(3)
H2B H 1.3252 -0.3748 0.4021
C3B C 1.0825(4) -0.2187(3) 0.2764(2)
C4B C 1.1804(4) -0.1233(3) 0.2767(3)
H3B H 1.1420 -0.0594 0.2423
loop_
_geom_bond_atom_site_label_1
_geom_bond_atom_site_label_2
_geom_bond_site_symmetry_1
_geom_bond_site_symmetry_2
Ag1 O1 1_555 1_555
O1 N3 1_555 1_555
O2 Ag1 1_555 1_555
O3 N3 1_555 1_555
N1 Ag1 1_555 1_555
N2 C2 1_555 1_555
N3 O2 1_555 1_555
C1 N1 1_555 1_555
H1 C1 1_555 1_555
C2 C1 1_555 1_555
H2 C2 1_555 1_555
C3 N2 1_555 1_555
C4 N1 1_555 1_555
H3 C4 1_555 1_555
Ag1D O1 1_555 1_555
Ag1B Ag1 1_555 1_555
Ag1A N2 1_555 1_555
Ag1C Ag1A 1_555 1_555
Ag1B_2 N1B 1_555 1_555
Ag1F Ag1D 1_555 1_555
O1D Ag1 1_555 1_555
O2D Ag1D 1_555 1_555
O3D N3D 1_555 1_555
N1B C1B 1_555 1_555
N1D Ag1D 1_555 1_555
N2B Ag1C 1_555 1_555
N2A Ag1 1_555 1_555
N2E Ag1D 1_555 1_555
N3D O1D 1_555 1_555
C1B H1B 1_555 1_555
C2B N2B 1_555 1_555
H2B C2B 1_555 1_555
C3B C3 1_555 1_555
C4B N1B 1_555 1_555
H3B C4B 1_555 1_555
C3 C4 1_555 1_555
Ag1D O1D 1_555 1_555
O2D N3D 1_555 1_555
N2B C3B 1_555 1_555
C1B C2B 1_555 1_555
C3B C4B 1_555 1_555

#END
