
#######################################################################
#
#                 Cambridge Crystallographic Data Centre
#                                CCDC 
#
#######################################################################
#
# If this CIF has been generated from an entry in the Cambridge 
# Structural Database, then it will include bibliographic, chemical, 
# crystal, experimental, refinement or atomic coordinate data resulting 
# from the CCDC's data processing and validation procedures.
#
#######################################################################

data_FIVYOZ
_symmetry_cell_setting           monoclinic
_symmetry_space_group_name_H-M   'P 21/c'
_symmetry_Int_Tables_number      14
_space_group_name_Hall           '-P 2ybc'
loop_
_symmetry_equiv_pos_site_id
_symmetry_equiv_pos_as_xyz
1 x,y,z
2 -x,1/2+y,1/2-z
3 -x,-y,-z
4 x,1/2-y,1/2+z
_cell_length_a                   11.5608(11)
_cell_length_b                   12.2314(12)
_cell_length_c                   11.4007(11)
_cell_angle_alpha                90
_cell_angle_beta                 111.596(2)
_cell_angle_gamma                90
_cell_volume                     1498.95
loop_
_atom_site_label
_atom_site_type_symbol
_atom_site_fract_x
_atom_site_fract_y
_atom_site_fract_z
Sn1 Sn 0.25170(2) 0.085020(19) 0.59545(2)
N1 N 0.2852(3) 0.2785(2) 0.6191(3)
O1 O 0.0748(2) 0.1747(2) 0.4851(3)
O2 O -0.0275(3) 0.3318(2) 0.4310(3)
O3 O 0.5364(3) 0.5949(2) 0.7673(3)
O4 O 0.6169(3) 0.4323(2) 0.8220(3)
O5 O 0.1235(3) -0.0553(2) 0.5004(3)
H1 H 0.062(3) -0.088(4) 0.512(5)
H2 H 0.136(5) -0.086(4) 0.438(3)
C1 C 0.1846(3) 0.3402(3) 0.5599(3)
C2 C 0.1879(4) 0.4526(3) 0.5642(4)
H3 H 0.1166 0.4934 0.5224
C3 C 0.2991(4) 0.5040(3) 0.6317(4)
H4 H 0.3033 0.5798 0.6376
C4 C 0.4033(3) 0.4413(3) 0.6899(4)
C5 C 0.3926(3) 0.3284(3) 0.6828(4)
H5 H 0.4627 0.2861 0.7239
C6 C 0.0663(4) 0.2788(3) 0.4858(4)
C7 C 0.5267(3) 0.4925(3) 0.7643(4)
C8 C 0.1970(5) 0.0795(4) 0.7513(4)
H6 H 0.1630 0.1489 0.7610
H7 H 0.2679 0.0632 0.8259
H8 H 0.1352 0.0236 0.7384
C9 C 0.3091(5) 0.0870(4) 0.4410(4)
H9 H 0.3684 0.1447 0.4518
H10 H 0.2383 0.0991 0.3649
H11 H 0.3467 0.0182 0.4357
Sn1A Sn 0.74830(2) 0.585020(19) 0.90455(2)
O3A O 0.4636(3) 0.0949(2) 0.7327(3)
O4A O 0.3831(3) -0.0677(2) 0.6780(3)
O6 O 0.1675(4) 0.8307(3) 0.3225(4)
H12 H 0.1165 0.8294 0.2500
C10 C 0.2328(7) 0.7301(6) 0.3499(8)
H13 H 0.1855 0.6786 0.3791
H14 H 0.2373 0.7012 0.2725
C11 C 0.3528(7) 0.7364(6) 0.4398(8)
H15 H 0.4033 0.7808 0.4081
H16 H 0.3877 0.6643 0.4577
H17 H 0.3502 0.7684 0.5157
loop_
_geom_bond_atom_site_label_1
_geom_bond_atom_site_label_2
_geom_bond_site_symmetry_1
_geom_bond_site_symmetry_2
Sn1 N1 1_555 1_555
N1 C1 1_555 1_555
O1 Sn1 1_555 1_555
O2 C6 1_555 1_555
O3 C7 1_555 1_555
O4 C7 1_555 1_555
O5 Sn1 1_555 1_555
H1 O5 1_555 1_555
H2 O5 1_555 1_555
C1 C2 1_555 1_555
C2 H3 1_555 1_555
C3 C2 1_555 1_555
H4 C3 1_555 1_555
C4 C3 1_555 1_555
C5 N1 1_555 1_555
H5 C5 1_555 1_555
C6 O1 1_555 1_555
C7 C4 1_555 1_555
C8 Sn1 1_555 1_555
H6 C8 1_555 1_555
H7 C8 1_555 1_555
H8 C8 1_555 1_555
C9 Sn1 1_555 1_555
H9 C9 1_555 1_555
H10 C9 1_555 1_555
H11 C9 1_555 1_555
O6 H12 1_555 1_555
C10 O6 1_555 1_555
H13 C10 1_555 1_555
H14 C10 1_555 1_555
C11 C10 1_555 1_555
H15 C11 1_555 1_555
H16 C11 1_555 1_555
H17 C11 1_555 1_555
Sn1A O3 1_555 1_555
O3A Sn1 1_555 1_555
O4A Sn1 1_555 1_555
O4 Sn1A 1_555 1_555
C1 C6 1_555 1_555
C4 C5 1_555 1_555

#END
