
#######################################################################
#
#                 Cambridge Crystallographic Data Centre
#                                CCDC 
#
#######################################################################
#
# If this CIF has been generated from an entry in the Cambridge 
# Structural Database, then it will include bibliographic, chemical, 
# crystal, experimental, refinement or atomic coordinate data resulting 
# from the CCDC's data processing and validation procedures.
#
#######################################################################

data_FIWBIW01
_symmetry_cell_setting           monoclinic
_symmetry_space_group_name_H-M   'P 2/c'
_symmetry_Int_Tables_number      13
_space_group_name_Hall           '-P 2yc'
loop_
_symmetry_equiv_pos_site_id
_symmetry_equiv_pos_as_xyz
1 x,y,z
2 -x,y,1/2-z
3 -x,-y,-z
4 x,-y,1/2+z
_cell_length_a                   3.7752(5)
_cell_length_b                   6.301(1)
_cell_length_c                   26.754(8)
_cell_angle_alpha                90
_cell_angle_beta                 90.96(2)
_cell_angle_gamma                90
_cell_volume                     636.322
loop_
_atom_site_label
_atom_site_type_symbol
_atom_site_fract_x
_atom_site_fract_y
_atom_site_fract_z
Cu1 Cu 0.0000 0.1204(1) 0.2500
Cl1 Cl 0.5000 -0.1088(2) 0.2500
N1 N -0.0360(6) 0.2842(4) 0.3150(1)
C1 C -0.1647(8) 0.1842(4) 0.3553(1)
C2 C -0.1645(8) 0.2750(4) 0.4025(1)
C3 C -0.0321(8) 0.4789(4) 0.4087(1)
C4 C 0.0928(9) 0.5852(4) 0.3676(1)
C5 C 0.0891(8) 0.4829(4) 0.3217(1)
C6 C -0.3081(8) 0.1534(4) 0.4449(1)
O1 O -0.4373(7) -0.0290(3) 0.4372(1)
O2 O -0.2960(7) 0.2386(4) 0.4880(1)
H1 H -0.2602 0.0440 0.3511
H2 H -0.0301 0.5453 0.4410
H3 H 0.1815 0.7275 0.3706
H4 H 0.1807 0.5562 0.2933
Cl1_2 Cl -0.5000 -0.1088(2) 0.2500
N1A N 0.0360(6) 0.2842(4) 0.1850(1)
Cu1_2 Cu 1.0000 0.1204(1) 0.2500
C1A C 0.1647(8) 0.1842(4) 0.1447(1)
C5A C -0.0891(8) 0.4829(4) 0.1783(1)
C2A C 0.1645(8) 0.2750(4) 0.0975(1)
H1A H 0.2602 0.0440 0.1489
C4A C -0.0928(9) 0.5852(4) 0.1324(1)
H4A H -0.1807 0.5562 0.2067
C3A C 0.0321(8) 0.4789(4) 0.0913(1)
C6A C 0.3081(8) 0.1534(4) 0.0551(1)
H3A H -0.1815 0.7275 0.1294
H2A H 0.0301 0.5453 0.0590
O1A O 0.4373(7) -0.0290(3) 0.0628(1)
O2A O 0.2960(7) 0.2386(4) 0.0120(1)
loop_
_geom_bond_atom_site_label_1
_geom_bond_atom_site_label_2
_geom_bond_site_symmetry_1
_geom_bond_site_symmetry_2
Cu1 Cl1 1_555 1_555
Cl1 Cu1_2 1_555 1_555
N1 Cu1 1_555 1_555
C1 N1 1_555 1_555
C2 C1 1_555 1_555
C3 C2 1_555 1_555
C4 C3 1_555 1_555
C5 N1 1_555 1_555
C6 C2 1_555 1_555
O1 C6 1_555 1_555
O2 C6 1_555 1_555
H1 C1 1_555 1_555
H2 C3 1_555 1_555
H3 C4 1_555 1_555
H4 C5 1_555 1_555
Cl1_2 Cu1 1_555 1_555
N1A Cu1 1_555 1_555
C1A N1A 1_555 1_555
C5A N1A 1_555 1_555
C2A C1A 1_555 1_555
H1A C1A 1_555 1_555
C4A C5A 1_555 1_555
H4A C5A 1_555 1_555
C3A C2A 1_555 1_555
C6A C2A 1_555 1_555
H3A C4A 1_555 1_555
H2A C3A 1_555 1_555
O1A C6A 1_555 1_555
O2A C6A 1_555 1_555
C4 C5 1_555 1_555
C4A C3A 1_555 1_555

#END
