
#######################################################################
#
#                 Cambridge Crystallographic Data Centre
#                                CCDC 
#
#######################################################################
#
# If this CIF has been generated from an entry in the Cambridge 
# Structural Database, then it will include bibliographic, chemical, 
# crystal, experimental, refinement or atomic coordinate data resulting 
# from the CCDC's data processing and validation procedures.
#
#######################################################################

data_FIWDOE
_symmetry_cell_setting           monoclinic
_symmetry_space_group_name_H-M   'P 21/c'
_symmetry_Int_Tables_number      14
_space_group_name_Hall           '-P 2ybc'
loop_
_symmetry_equiv_pos_site_id
_symmetry_equiv_pos_as_xyz
1 x,y,z
2 -x,1/2+y,1/2-z
3 -x,-y,-z
4 x,1/2-y,1/2+z
_cell_length_a                   13.702(3)
_cell_length_b                   14.167(3)
_cell_length_c                   10.598(2)
_cell_angle_alpha                90
_cell_angle_beta                 97.34(3)
_cell_angle_gamma                90
_cell_volume                     2040.39
loop_
_atom_site_label
_atom_site_type_symbol
_atom_site_fract_x
_atom_site_fract_y
_atom_site_fract_z
Na1 Na 0.31311(9) 0.40382(9) 0.22659(12)
Na2 Na 0.34889(9) 0.26703(9) 0.50137(12)
S1 S 0.42043(5) 0.62461(5) 0.36434(7)
S2 S -0.20573(5) 0.83218(5) -0.24016(7)
F1 F 0.38207(14) 0.81118(13) 0.4768(2)
F2 F -0.06226(14) 0.97829(13) -0.2986(2)
F3 F 0.2878(2) 0.4296(2) 0.4536(2)
O1 O 0.51213(15) 0.6742(2) 0.3548(2)
O2 O 0.4079(2) 0.5996(2) 0.4937(2)
O3 O 0.4049(2) 0.54507(14) 0.2772(2)
O4 O -0.2465(2) 0.9226(2) -0.2076(2)
O5 O -0.2100(2) 0.8171(2) -0.3754(2)
O6 O -0.2447(2) 0.7536(2) -0.1748(2)
O7 O 0.0774(2) 0.6364(2) 0.0490(2)
C1 C 0.3242(2) 0.7054(2) 0.3129(3)
C2 C 0.2547(2) 0.6833(2) 0.2100(3)
H1 H 0.2543(22) 0.6253(22) 0.1627(29)
C3 C 0.1788(2) 0.7468(2) 0.1715(3)
C4 C 0.1733(3) 0.8309(2) 0.2359(3)
H2 H 0.1214(30) 0.8735(26) 0.2134(37)
C5 C 0.2415(2) 0.8529(2) 0.3401(3)
H3 H 0.2325(27) 0.9126(25) 0.3900(35)
C6 C 0.3148(2) 0.7899(2) 0.3758(3)
C7 C 0.1027(2) 0.7189(2) 0.0640(3)
C8 C 0.0581(2) 0.7926(2) -0.0255(3)
C9 C 0.1102(2) 0.8717(2) -0.0545(3)
H4 H 0.1754(22) 0.8804(20) -0.0079(27)
C10 C 0.0699(2) 0.9343(2) -0.1484(3)
H5 H 0.1085(27) 0.9896(27) -0.1730(35)
C11 C -0.0234(2) 0.9177(2) -0.2068(3)
C12 C -0.0797(2) 0.8417(2) -0.1763(3)
C13 C -0.0375(2) 0.7780(2) -0.0858(3)
H6 H -0.0770(26) 0.7242(26) -0.0629(32)
O9 O 0.1823(2) 0.4575(2) 0.0788(3)
O10 O 0.4445(2) 0.3075(2) 0.3345(2)
O11 O 0.4094(2) 0.3858(2) 0.0521(2)
O6B O 0.2447(2) 0.2464(2) 0.1748(2)
O1B O 0.48787(15) 0.3258(2) 0.6452(2)
O5B O 0.2100(2) 0.1829(2) 0.3754(2)
O6A O 0.2447(2) 0.2536(2) 0.6748(2)
O11C O 0.4094(2) 0.1142(2) 0.5521(2)
Na2B Na 0.65111(9) 0.73297(9) 0.49863(12)
Na2B_2 Na -0.34889(9) 0.73297(9) -0.50137(12)
Na1B Na -0.31311(9) 0.59618(9) -0.22659(12)
Na2A Na -0.34889(9) 0.76703(9) -0.00137(12)
Na2C Na 0.34889(9) 0.23297(9) 0.00137(12)
O8 O 0.5782(2) 0.5008(2) 0.1633(2)
loop_
_geom_bond_atom_site_label_1
_geom_bond_atom_site_label_2
_geom_bond_site_symmetry_1
_geom_bond_site_symmetry_2
Na1 F3 1_555 1_555
Na2 F3 1_555 1_555
S1 O1 1_555 1_555
S2 O4 1_555 1_555
F1 C6 1_555 1_555
F2 C11 1_555 1_555
O1 Na2B 1_555 1_555
O2 S1 1_555 1_555
O3 Na1 1_555 1_555
O5 S2 1_555 1_555
O6 S2 1_555 1_555
O7 C7 1_555 1_555
C1 S1 1_555 1_555
C2 C1 1_555 1_555
H1 C2 1_555 1_555
C3 C2 1_555 1_555
C4 C3 1_555 1_555
H2 C4 1_555 1_555
C5 C4 1_555 1_555
H3 C5 1_555 1_555
C6 C1 1_555 1_555
C7 C3 1_555 1_555
C8 C7 1_555 1_555
C9 C8 1_555 1_555
H4 C9 1_555 1_555
C10 C9 1_555 1_555
H5 C10 1_555 1_555
C11 C10 1_555 1_555
C12 S2 1_555 1_555
C13 C8 1_555 1_555
H6 C13 1_555 1_555
O9 Na1 1_555 1_555
O10 Na1 1_555 1_555
O11 Na1 1_555 1_555
O6B Na1 1_555 1_555
O1B Na2 1_555 1_555
O5B Na2 1_555 1_555
O6A Na2 1_555 1_555
O11C Na2 1_555 1_555
Na2B_2 O5 1_555 1_555
Na1B O6 1_555 1_555
Na2A O6 1_555 1_555
Na2C O11 1_555 1_555
Na2 O10 1_555 1_555
S1 O3 1_555 1_555
C5 C6 1_555 1_555
C11 C12 1_555 1_555
C12 C13 1_555 1_555
O6B Na2C 1_555 1_555

#END
