
#######################################################################
#
#                 Cambridge Crystallographic Data Centre
#                                CCDC 
#
#######################################################################
#
# If this CIF has been generated from an entry in the Cambridge 
# Structural Database, then it will include bibliographic, chemical, 
# crystal, experimental, refinement or atomic coordinate data resulting 
# from the CCDC's data processing and validation procedures.
#
#######################################################################

data_FIWJEA
_symmetry_cell_setting           monoclinic
_symmetry_space_group_name_H-M   'P 21/c'
_symmetry_Int_Tables_number      14
_space_group_name_Hall           '-P 2ybc'
loop_
_symmetry_equiv_pos_site_id
_symmetry_equiv_pos_as_xyz
1 x,y,z
2 -x,1/2+y,1/2-z
3 -x,-y,-z
4 x,1/2-y,1/2+z
_cell_length_a                   12.307(2)
_cell_length_b                   17.528(2)
_cell_length_c                   21.781(4)
_cell_angle_alpha                90
_cell_angle_beta                 97.77(1)
_cell_angle_gamma                90
_cell_volume                     4655.4
loop_
_atom_site_label
_atom_site_type_symbol
_atom_site_fract_x
_atom_site_fract_y
_atom_site_fract_z
Sn1 Sn 0.09236(4) 0.25197(3) 0.36140(2)
S1 S 0.2969(3) 0.0399(2) 0.4956(2)
O1 O 0.2364(4) 0.1783(3) 0.3802(3)
O2 O 0.1874(4) 0.0932(3) 0.3065(3)
O3 O 0.4237(4) 0.1031(4) 0.4214(3)
N1 N 0.4773(7) 0.1222(5) 0.5197(4)
C1 C -0.0248(5) 0.1649(3) 0.3668(3)
C2 C -0.1215(6) 0.1633(4) 0.3256(3)
C3 C -0.2009(5) 0.1086(5) 0.3322(4)
C4 C -0.1836(7) 0.0555(4) 0.3800(5)
C5 C -0.0869(8) 0.0572(4) 0.4212(4)
C6 C -0.0075(6) 0.1119(4) 0.4146(3)
C7 C 0.1561(5) 0.3121(3) 0.4439(2)
C8 C 0.2145(6) 0.2726(3) 0.4930(3)
C9 C 0.2636(6) 0.3121(5) 0.5448(3)
C10 C 0.2544(6) 0.3910(5) 0.5475(3)
C11 C 0.1960(7) 0.4305(3) 0.4983(4)
C12 C 0.1469(5) 0.3910(3) 0.4465(3)
C13 C 0.1402(7) 0.2895(7) 0.2791(4)
C14 C 0.2498(9) 0.3235(9) 0.2775(5)
C15 C 0.261(1) 0.3473(9) 0.2114(7)
C16 C 0.153(1) 0.3256(9) 0.1719(5)
C17 C 0.084(1) 0.287(1) 0.2167(5)
C18 C 0.2509(6) 0.1181(5) 0.3521(4)
C19 C 0.3520(8) 0.0714(6) 0.3709(5)
C20 C 0.4005(7) 0.0899(5) 0.4797(5)
C21 C 0.472(1) 0.1140(9) 0.5861(6)
C22 C 0.570(1) 0.1636(8) 0.5020(7)
Sn2 Sn -0.18434(4) 0.50056(3) 0.27133(3)
S2 S -0.3802(3) 0.2804(2) 0.3545(2)
O4 O -0.1904(5) 0.4231(4) 0.3504(3)
O5 O -0.0532(4) 0.3435(3) 0.3449(3)
O6 O -0.2576(5) 0.3519(4) 0.4479(3)
N2 N -0.4349(7) 0.3632(6) 0.4468(5)
C23 C -0.1895(5) 0.4135(3) 0.2019(3)
C24 C -0.1397(6) 0.4252(4) 0.1491(4)
C25 C -0.1432(7) 0.3684(6) 0.1044(3)
C26 C -0.1964(7) 0.3000(5) 0.1124(4)
C27 C -0.2462(6) 0.2883(3) 0.1652(5)
C28 C -0.2428(5) 0.3451(4) 0.2100(3)
C29 C -0.3371(4) 0.5468(3) 0.2899(3)
C30 C -0.4209(5) 0.4975(3) 0.3009(4)
C31 C -0.5219(4) 0.5266(4) 0.3111(5)
C32 C -0.5392(4) 0.6050(5) 0.3104(4)
C33 C -0.4555(6) 0.6543(3) 0.2995(4)
C34 C -0.3544(5) 0.6252(3) 0.2892(3)
C35 C -0.0342(7) 0.5535(6) 0.3071(5)
C36 C -0.0176(9) 0.5760(8) 0.3741(6)
C37 C 0.104(1) 0.5958(8) 0.3896(8)
C38 C 0.1584(9) 0.5583(9) 0.3385(7)
C39 C 0.0691(7) 0.5154(7) 0.2961(6)
C40 C -0.1325(7) 0.3657(5) 0.3682(4)
C41 C -0.1632(8) 0.3241(6) 0.4234(5)
C42 C -0.3571(9) 0.3338(6) 0.4185(5)
C43 C -0.5508(9) 0.353(1) 0.4221(7)
C44 C -0.407(1) 0.4064(9) 0.5032(8)
H1 H -0.1331 0.1988 0.2937
H2 H -0.2655 0.1075 0.3047
H3 H -0.2367 0.0189 0.3844
H4 H -0.0753 0.0217 0.4531
H5 H 0.0572 0.1130 0.4421
H6 H 0.2207 0.2198 0.4913
H7 H 0.3027 0.2857 0.5777
H8 H 0.2873 0.4174 0.5821
H9 H 0.1899 0.4833 0.5001
H10 H 0.1079 0.4174 0.4137
H11 H 0.1096 0.3401 0.2854
H12 H 0.3063 0.2865 0.2919
H13 H 0.2591 0.3675 0.3046
H14 H 0.3216 0.3210 0.1969
H15 H 0.2729 0.4018 0.2094
H16 H 0.1663 0.2906 0.1392
H17 H 0.1164 0.3706 0.1532
H18 H 0.0139 0.3137 0.2151
H19 H 0.0689 0.2348 0.2043
H20 H 0.3302 0.0207 0.3823
H21 H 0.3917 0.0662 0.3355
H22 H 0.5308 0.1422 0.6091
H23 H 0.4785 0.0611 0.5974
H24 H 0.4031 0.1334 0.5955
H25 H 0.6126 0.1841 0.5383
H26 H 0.5437 0.2046 0.4746
H27 H 0.6141 0.1297 0.4813
H28 H -0.1041 0.4710 0.1437
H29 H -0.1098 0.3762 0.0690
H30 H -0.1987 0.2620 0.0825
H31 H -0.2819 0.2425 0.1706
H32 H -0.2761 0.3372 0.2454
H33 H -0.4093 0.4451 0.3014
H34 H -0.5780 0.4936 0.3185
H35 H -0.6068 0.6245 0.3173
H36 H -0.4670 0.7067 0.2990
H37 H -0.2984 0.6581 0.2819
H38 H -0.0344 0.6019 0.2845
H39 H -0.0367 0.5341 0.3998
H40 H -0.0628 0.6197 0.3809
H41 H 0.1331 0.5757 0.4299
H42 H 0.1142 0.6506 0.3897
H43 H 0.2150 0.5232 0.3563
H44 H 0.1920 0.5968 0.3151
H45 H 0.0804 0.5199 0.2530
H46 H 0.0683 0.4618 0.3070
H47 H -0.1757 0.2709 0.4121
H48 H -0.1013 0.3259 0.4560
H49 H -0.5956 0.3798 0.4480
H50 H -0.5688 0.3000 0.4212
H51 H -0.5640 0.3736 0.3808
H52 H -0.4734 0.4250 0.5170
H53 H -0.3616 0.4487 0.4956
H54 H -0.3690 0.3742 0.5346
Sn2A Sn 0.18434(4) 0.00056(3) 0.22867(3)
O2A O -0.1874(4) 0.5932(3) 0.1935(3)
loop_
_geom_bond_atom_site_label_1
_geom_bond_atom_site_label_2
_geom_bond_site_symmetry_1
_geom_bond_site_symmetry_2
Sn1 O1 1_555 1_555
S1 C20 1_555 1_555
O1 C18 1_555 1_555
O2 C18 1_555 1_555
O3 C19 1_555 1_555
N1 C20 1_555 1_555
C1 Sn1 1_555 1_555
C2 C1 1_555 1_555
C3 C2 1_555 1_555
C4 C3 1_555 1_555
C5 C4 1_555 1_555
C6 C1 1_555 1_555
C7 Sn1 1_555 1_555
C8 C7 1_555 1_555
C9 C8 1_555 1_555
C10 C9 1_555 1_555
C11 C10 1_555 1_555
C12 C7 1_555 1_555
C13 Sn1 1_555 1_555
C14 C13 1_555 1_555
C15 C14 1_555 1_555
C16 C15 1_555 1_555
C17 C13 1_555 1_555
C18 C19 1_555 1_555
C19 H20 1_555 1_555
C20 O3 1_555 1_555
C21 N1 1_555 1_555
C22 N1 1_555 1_555
Sn2 O4 1_555 1_555
S2 C42 1_555 1_555
O4 C40 1_555 1_555
O5 Sn1 1_555 1_555
O6 C41 1_555 1_555
N2 C42 1_555 1_555
C23 Sn2 1_555 1_555
C24 C23 1_555 1_555
C25 C24 1_555 1_555
C26 C25 1_555 1_555
C27 C26 1_555 1_555
C28 C23 1_555 1_555
C29 Sn2 1_555 1_555
C30 C29 1_555 1_555
C31 C30 1_555 1_555
C32 C31 1_555 1_555
C33 C32 1_555 1_555
C34 C29 1_555 1_555
C35 Sn2 1_555 1_555
C36 C35 1_555 1_555
C37 C36 1_555 1_555
C38 C37 1_555 1_555
C39 C35 1_555 1_555
C40 O5 1_555 1_555
C41 C40 1_555 1_555
C42 O6 1_555 1_555
C43 N2 1_555 1_555
C44 N2 1_555 1_555
H1 C2 1_555 1_555
H2 C3 1_555 1_555
H3 C4 1_555 1_555
H4 C5 1_555 1_555
H5 C6 1_555 1_555
H6 C8 1_555 1_555
H7 C9 1_555 1_555
H8 C10 1_555 1_555
H9 C11 1_555 1_555
H10 C12 1_555 1_555
H11 C13 1_555 1_555
H12 C14 1_555 1_555
H13 C14 1_555 1_555
H14 C15 1_555 1_555
H15 C15 1_555 1_555
H16 C16 1_555 1_555
H17 C16 1_555 1_555
H18 C17 1_555 1_555
H19 C17 1_555 1_555
H21 C19 1_555 1_555
H22 C21 1_555 1_555
H23 C21 1_555 1_555
H24 C21 1_555 1_555
H25 C22 1_555 1_555
H26 C22 1_555 1_555
H27 C22 1_555 1_555
H28 C24 1_555 1_555
H29 C25 1_555 1_555
H30 C26 1_555 1_555
H31 C27 1_555 1_555
H32 C28 1_555 1_555
H33 C30 1_555 1_555
H34 C31 1_555 1_555
H35 C32 1_555 1_555
H36 C33 1_555 1_555
H37 C34 1_555 1_555
H38 C35 1_555 1_555
H39 C36 1_555 1_555
H40 C36 1_555 1_555
H41 C37 1_555 1_555
H42 C37 1_555 1_555
H43 C38 1_555 1_555
H44 C38 1_555 1_555
H45 C39 1_555 1_555
H46 C39 1_555 1_555
H47 C41 1_555 1_555
H48 C41 1_555 1_555
H49 C43 1_555 1_555
H50 C43 1_555 1_555
H51 C43 1_555 1_555
H52 C44 1_555 1_555
H53 C44 1_555 1_555
H54 C44 1_555 1_555
Sn2A O2 1_555 1_555
O2A Sn2 1_555 1_555
C5 C6 1_555 1_555
C11 C12 1_555 1_555
C16 C17 1_555 1_555
C27 C28 1_555 1_555
C33 C34 1_555 1_555
C38 C39 1_555 1_555

#END
