
#######################################################################
#
#                 Cambridge Crystallographic Data Centre
#                                CCDC 
#
#######################################################################
#
# If this CIF has been generated from an entry in the Cambridge 
# Structural Database, then it will include bibliographic, chemical, 
# crystal, experimental, refinement or atomic coordinate data resulting 
# from the CCDC's data processing and validation procedures.
#
#######################################################################

data_FIWWEO
_symmetry_cell_setting           triclinic
_symmetry_space_group_name_H-M   'P 1'
_symmetry_Int_Tables_number      1
_space_group_name_Hall           'P 1'
loop_
_symmetry_equiv_pos_site_id
_symmetry_equiv_pos_as_xyz
1 x,y,z
_cell_length_a                   12.7880(15)
_cell_length_b                   13.3700(16)
_cell_length_c                   18.480(2)
_cell_angle_alpha                87.563(2)
_cell_angle_beta                 81.393(2)
_cell_angle_gamma                67.574(2)
_cell_volume                     2887.42
loop_
_atom_site_label
_atom_site_type_symbol
_atom_site_fract_x
_atom_site_fract_y
_atom_site_fract_z
Cu1 Cu 0.00000(9) 0.00000(9) 0.00000(6)
S1 S -0.09370(18) 0.16154(17) 0.07067(10)
C1 C -0.2350(8) 0.1975(7) 0.0868(4)
N1 N -0.3331(7) 0.2354(9) 0.0980(5)
P1 P 0.18801(17) -0.02725(15) -0.01228(10)
C2 C 0.2260(7) 0.0855(6) -0.0475(4)
C3 C 0.3363(7) 0.0826(7) -0.0531(5)
C4 C 0.3619(8) 0.1681(8) -0.0840(5)
C5 C 0.2794(10) 0.2559(8) -0.1094(5)
C6 C 0.1712(9) 0.2593(7) -0.1049(5)
C7 C 0.1429(7) 0.1750(7) -0.0727(4)
C8 C 0.2801(7) -0.1327(6) -0.0788(4)
C9 C 0.2719(8) -0.1106(8) -0.1526(5)
C10 C 0.3389(12) -0.1909(11) -0.2061(6)
C11 C 0.4102(12) -0.2893(11) -0.1841(9)
C12 C 0.4185(11) -0.3100(9) -0.1130(9)
C13 C 0.3517(9) -0.2335(7) -0.0609(6)
C14 C 0.2567(6) -0.0709(6) 0.0709(4)
P2 P 0.18064(17) 0.02076(16) 0.14995(10)
C15 C 0.2324(7) 0.1299(7) 0.1332(4)
C16 C 0.3457(9) 0.1143(9) 0.1360(5)
C17 C 0.3831(11) 0.1994(12) 0.1181(6)
C18 C 0.3083(16) 0.2961(11) 0.0975(6)
C19 C 0.1975(12) 0.3122(9) 0.0954(6)
C20 C 0.1592(9) 0.2304(7) 0.1128(5)
C21 C 0.2532(7) -0.0495(7) 0.2263(4)
C22 C 0.3357(9) -0.1531(8) 0.2227(5)
C23 C 0.3819(11) -0.2003(10) 0.2855(8)
C24 C 0.3475(12) -0.1446(14) 0.3503(7)
C25 C 0.2675(11) -0.0400(13) 0.3541(6)
C26 C 0.2212(9) 0.0061(9) 0.2928(5)
P3 P -0.03500(17) -0.14777(16) 0.03879(10)
C27 C -0.1782(7) -0.1449(7) 0.0349(4)
C28 C -0.2575(9) -0.0535(9) 0.0161(9)
C29 C -0.3649(11) -0.0521(12) 0.0061(14)
C30 C -0.3885(10) -0.1416(12) 0.0161(10)
C31 C -0.3139(12) -0.2297(11) 0.0389(8)
C32 C -0.2065(10) -0.2339(9) 0.0482(7)
C33 C 0.0528(7) -0.2666(6) -0.0194(4)
C34 C 0.0756(8) -0.2511(7) -0.0929(5)
C35 C 0.1342(10) -0.3359(8) -0.1411(5)
C36 C 0.1685(13) -0.4368(9) -0.1174(6)
C37 C 0.1554(17) -0.4561(9) -0.0455(7)
C38 C 0.0952(13) -0.3706(8) 0.0039(5)
C39 C -0.0038(7) -0.1941(6) 0.1308(4)
P4 P -0.05690(18) -0.08761(16) 0.20185(10)
C40 C -0.2096(7) -0.0620(7) 0.2247(4)
C41 C -0.2852(8) 0.0441(8) 0.2379(5)
C42 C -0.4006(10) 0.0651(11) 0.2568(7)
C43 C -0.4407(10) -0.0165(14) 0.2623(6)
C44 C -0.3654(12) -0.1204(13) 0.2493(6)
C45 C -0.2490(9) -0.1457(9) 0.2314(5)
C46 C 0.0023(7) -0.1609(7) 0.2820(4)
C47 C 0.049(2) -0.2698(10) 0.2876(8)
C48 C 0.089(2) -0.3187(12) 0.3507(9)
C49 C 0.0866(13) -0.2607(11) 0.4079(6)
C50 C 0.0449(11) -0.1537(10) 0.4019(5)
C51 C 0.0054(10) -0.1067(8) 0.3396(5)
Cu2 Cu -0.01014(9) 0.05806(9) 0.17094(6)
S2 S -0.0986(2) 0.21789(18) 0.24919(11)
C52 C -0.0865(7) 0.1933(7) 0.3369(4)
N2 N -0.0809(7) 0.1802(6) 0.3981(4)
Cu3 Cu -0.12906(9) 0.21601(9) 0.50639(5)
S3 S -0.0290(2) 0.05276(18) 0.56546(11)
C53 C 0.1128(9) 0.0169(7) 0.5545(4)
N3 N 0.2110(7) -0.0224(8) 0.5478(5)
P5 P -0.08474(18) 0.35906(17) 0.53055(11)
C54 C 0.0647(7) 0.3415(7) 0.5048(4)
C55 C 0.1100(10) 0.4139(11) 0.5245(7)
C56 C 0.2206(12) 0.4027(14) 0.4977(8)
C57 C 0.2886(10) 0.3175(13) 0.4520(8)
C58 C 0.2477(10) 0.2431(12) 0.4337(8)
C59 C 0.1342(8) 0.2563(9) 0.4599(6)
C60 C -0.1557(7) 0.4818(7) 0.4810(4)
C61 C -0.1613(14) 0.5829(9) 0.5004(7)
C62 C -0.2102(16) 0.6712(9) 0.4599(8)
C63 C -0.2558(12) 0.6631(10) 0.3986(7)
C64 C -0.2557(11) 0.5660(10) 0.3802(6)
C65 C -0.2034(10) 0.4750(8) 0.4217(6)
C66 C -0.1242(7) 0.4089(6) 0.6262(4)
P6 P -0.07766(17) 0.30382(16) 0.69494(11)
C67 C 0.0707(7) 0.2876(7) 0.6959(4)
C68 C 0.1563(8) 0.1868(8) 0.6823(5)
C69 C 0.2699(9) 0.1751(12) 0.6812(7)
C70 C 0.2949(10) 0.2627(14) 0.6940(6)
C71 C 0.2116(12) 0.3615(12) 0.7080(6)
C72 C 0.0987(8) 0.3744(8) 0.7099(5)
C73 C -0.1501(6) 0.3787(6) 0.7805(4)
C74 C -0.1296(8) 0.3237(7) 0.8449(5)
C75 C -0.1794(10) 0.3739(9) 0.9121(5)
C76 C -0.2489(10) 0.4797(10) 0.9163(5)
C77 C -0.2720(10) 0.5353(9) 0.8533(6)
C78 C -0.2230(9) 0.4865(8) 0.7863(5)
P7 P -0.31666(17) 0.23819(16) 0.53062(10)
C79 C -0.3562(7) 0.1268(6) 0.5072(4)
C80 C -0.4657(8) 0.1283(7) 0.5266(5)
C81 C -0.4941(9) 0.0461(8) 0.5024(6)
C82 C -0.4140(11) -0.0347(8) 0.4564(6)
C83 C -0.3078(11) -0.0353(8) 0.4369(5)
C84 C -0.2764(8) 0.0442(7) 0.4614(4)
C85 C -0.4068(7) 0.3458(6) 0.4776(4)
C86 C -0.3873(8) 0.3292(8) 0.4019(5)
C87 C -0.4489(11) 0.4081(11) 0.3563(6)
C88 C -0.5314(12) 0.5026(11) 0.3862(8)
C89 C -0.5527(10) 0.5207(8) 0.4602(7)
C90 C -0.4913(8) 0.4421(7) 0.5064(5)
C91 C -0.3837(6) 0.2752(6) 0.6258(4)
P8 P -0.30244(17) 0.18483(16) 0.69314(10)
C92 C -0.3434(7) 0.0669(6) 0.6958(4)
C93 C -0.4392(8) 0.0645(8) 0.7409(5)
C94 C -0.4660(10) -0.0273(10) 0.7418(6)
C95 C -0.3998(12) -0.1138(10) 0.6993(7)
C96 C -0.3060(10) -0.1123(7) 0.6536(6)
C97 C -0.2752(8) -0.0222(7) 0.6527(5)
C98 C -0.3758(7) 0.2530(7) 0.7801(4)
C99 C -0.4647(8) 0.3513(8) 0.7883(5)
C100 C -0.5112(11) 0.3984(9) 0.8574(7)
C101 C -0.4712(12) 0.3491(13) 0.9182(6)
C102 C -0.3837(11) 0.2497(13) 0.9116(5)
C103 C -0.3340(8) 0.2019(9) 0.8431(5)
Cu4 Cu -0.11291(9) 0.15391(8) 0.67732(5)
S4 S -0.0211(2) -0.0022(2) 0.74817(12)
C104 C -0.0353(7) 0.0240(6) 0.8364(4)
N4 N -0.0440(6) 0.0370(5) 0.8987(4)
H1 H 0.39626 0.02060 -0.03494
H2 H 0.43935 0.16642 -0.08844
H3 H 0.29739 0.31457 -0.13091
H4 H 0.11279 0.31895 -0.12338
H5 H 0.06348 0.18360 -0.06635
H6 H 0.22024 -0.03770 -0.16722
H7 H 0.33295 -0.17669 -0.25798
H8 H 0.45777 -0.34541 -0.21862
H9 H 0.47215 -0.38063 -0.09555
H10 H 0.35536 -0.24955 -0.00919
H11 H 0.33357 -0.07544 0.06079
H12 H 0.25841 -0.14262 0.08281
H13 H 0.39656 0.04388 0.15055
H14 H 0.46361 0.18518 0.12018
H15 H 0.33840 0.35341 0.08425
H16 H 0.14279 0.38127 0.08108
H17 H 0.08121 0.23901 0.10913
H18 H 0.36272 -0.19314 0.17544
H19 H 0.43521 -0.27385 0.28449
H20 H 0.38031 -0.17350 0.39258
H21 H 0.24184 -0.00188 0.40105
H22 H 0.16010 0.07902 0.29592
H23 H -0.24415 0.01418 0.00944
H24 H -0.42331 0.01878 -0.00280
H25 H -0.46034 -0.14098 0.00420
H26 H -0.33478 -0.29230 0.05297
H27 H -0.14591 -0.30149 0.05974
H28 H 0.04777 -0.17664 -0.11042
H29 H 0.15731 -0.32054 -0.19258
H30 H 0.20031 -0.49394 -0.15204
H31 H 0.18429 -0.53036 -0.02570
H32 H 0.08611 -0.38317 0.05511
H33 H 0.07857 -0.23049 0.12849
H34 H -0.03553 -0.24845 0.14463
H35 H -0.25734 0.10472 0.23196
H36 H -0.45568 0.14090 0.26749
H37 H -0.52112 -0.00189 0.27364
H38 H -0.39310 -0.18127 0.25183
H39 H -0.19444 -0.22021 0.22512
H40 H 0.06772 -0.31754 0.24372
H41 H 0.09746 -0.39238 0.35976
H42 H 0.11352 -0.29325 0.45229
H43 H 0.04132 -0.10844 0.44280
H44 H -0.01885 -0.02875 0.33675
H45 H 0.06131 0.47691 0.55800
H46 H 0.24666 0.46088 0.51000
H47 H 0.36541 0.31553 0.43640
H48 H 0.29358 0.18396 0.39930
H49 H 0.10493 0.20350 0.44630
H50 H -0.12239 0.58841 0.54100
H51 H -0.21791 0.74114 0.47940
H52 H -0.28389 0.72836 0.36890
H53 H -0.29294 0.55452 0.33800
H54 H -0.20148 0.40606 0.40910
H55 H -0.20525 0.44473 0.63580
H56 H -0.09082 0.46135 0.63110
H57 H 0.13918 0.12359 0.67440
H58 H 0.33097 0.10845 0.66850
H59 H 0.37656 0.24661 0.69420
H60 H 0.23258 0.42252 0.71690
H61 H 0.03790 0.44606 0.72080
H62 H -0.08149 0.24578 0.84270
H63 H -0.16587 0.33223 0.95760
H64 H -0.28202 0.51761 0.96380
H65 H -0.32005 0.61385 0.85560
H66 H -0.23731 0.53019 0.74250
H67 H -0.52319 0.18647 0.55740
H68 H -0.57014 0.04558 0.51740
H69 H -0.43515 -0.09027 0.43990
H70 H -0.24897 -0.09222 0.40420
H71 H -0.20012 0.04405 0.44770
H72 H -0.33076 0.26221 0.38030
H73 H -0.43274 0.39383 0.30370
H74 H -0.57148 0.55475 0.35210
H75 H -0.61119 0.58911 0.48230
H76 H -0.50498 0.45244 0.55910
H77 H -0.45882 0.27476 0.63150
H78 H -0.39051 0.34814 0.63510
H79 H -0.48679 0.12665 0.77150
H80 H -0.53265 -0.02748 0.77260
H81 H -0.41730 -0.17956 0.70110
H82 H -0.25964 -0.17554 0.62140
H83 H -0.20630 -0.02070 0.62290
H84 H -0.49728 0.38986 0.74500
H85 H -0.57172 0.46945 0.86200
H86 H -0.50605 0.38651 0.96450
H87 H -0.35503 0.21560 0.95620
H88 H -0.26950 0.13037 0.83860
Cu1_2 Cu 0.00000(9) 0.00000(9) 1.00000(6)
N4_2 N -0.0440(6) 0.0370(5) -0.1013(4)
N5 N -0.4148(11) -0.4119(12) 0.6399(7)
C105 C -0.4564(13) -0.3420(14) 0.6050(8)
C106 C -0.5146(16) -0.2490(15) 0.5623(9)
H89 H -0.57710 -0.19370 0.59460
H90 H -0.46541 -0.21350 0.54080
H91 H -0.55129 -0.26267 0.52390
N6 N -0.016(2) 0.5443(13) 0.1960(9)
C107 C 0.020(2) 0.4824(16) 0.2367(9)
C108 C 0.072(2) 0.3990(18) 0.2905(9)
H92 H 0.09190 0.32319 0.27596
H93 H 0.03024 0.40705 0.33923
H94 H 0.14393 0.40484 0.29454
N7 N 0.301(2) -0.4172(17) 0.6563(15)
C109 C 0.228(3) -0.3423(18) 0.6431(14)
C110 C 0.137(3) -0.253(2) 0.6252(11)
H104 H 0.07780 -0.25620 0.59490
H105 H 0.08140 -0.21290 0.66980
H106 H 0.15610 -0.19450 0.60030
N8 N -0.076(2) -0.3426(16) 0.7051(17)
C111 C -0.117(2) -0.288(2) 0.7513(18)
C112 C -0.169(2) -0.221(2) 0.8138(14)
H95 H -0.15463 -0.14936 0.81400
H96 H -0.15950 -0.24468 0.86340
H97 H -0.25689 -0.18567 0.81740
N9 N 0.311(2) 0.627(2) 0.1162(12)
C113 C 0.374(4) 0.562(2) 0.137(2)
C114 C 0.419(4) 0.477(2) 0.180(2)
H98 H 0.45457 0.50079 0.21201
H99 H 0.47268 0.42388 0.14673
H100 H 0.37391 0.43902 0.21055
N10 N -0.371(3) 0.590(2) 0.1918(19)
C115 C -0.292(3) 0.5282(18) 0.1641(15)
C116 C -0.197(3) 0.4585(16) 0.1240(12)
H101 H -0.21683 0.40629 0.09642
H102 H -0.14254 0.40921 0.15480
H103 H -0.15737 0.48868 0.08996
loop_
_geom_bond_atom_site_label_1
_geom_bond_atom_site_label_2
_geom_bond_site_symmetry_1
_geom_bond_site_symmetry_2
Cu1 S1 1_555 1_555
S1 C1 1_555 1_555
C1 N1 1_555 1_555
P1 Cu1 1_555 1_555
C2 P1 1_555 1_555
C3 C2 1_555 1_555
C4 C3 1_555 1_555
C5 C4 1_555 1_555
C6 C5 1_555 1_555
C7 C2 1_555 1_555
C8 P1 1_555 1_555
C9 C8 1_555 1_555
C10 C9 1_555 1_555
C11 C10 1_555 1_555
C12 C11 1_555 1_555
C13 C8 1_555 1_555
C14 P1 1_555 1_555
P2 C14 1_555 1_555
C15 P2 1_555 1_555
C16 C15 1_555 1_555
C17 C16 1_555 1_555
C18 C17 1_555 1_555
C19 C18 1_555 1_555
C20 C15 1_555 1_555
C21 P2 1_555 1_555
C22 C21 1_555 1_555
C23 C22 1_555 1_555
C24 C23 1_555 1_555
C25 C24 1_555 1_555
C26 C21 1_555 1_555
P3 Cu1 1_555 1_555
C27 P3 1_555 1_555
C28 C27 1_555 1_555
C29 C28 1_555 1_555
C30 C29 1_555 1_555
C31 C30 1_555 1_555
C32 C27 1_555 1_555
C33 P3 1_555 1_555
C34 C33 1_555 1_555
C35 C34 1_555 1_555
C36 C35 1_555 1_555
C37 C36 1_555 1_555
C38 C33 1_555 1_555
C39 P3 1_555 1_555
P4 C39 1_555 1_555
C40 P4 1_555 1_555
C41 C40 1_555 1_555
C42 C41 1_555 1_555
C43 C42 1_555 1_555
C44 C43 1_555 1_555
C45 C40 1_555 1_555
C46 P4 1_555 1_555
C47 C46 1_555 1_555
C48 C47 1_555 1_555
C49 C48 1_555 1_555
C50 C49 1_555 1_555
C51 C46 1_555 1_555
Cu2 S1 1_555 1_555
S2 Cu2 1_555 1_555
C52 S2 1_555 1_555
N2 C52 1_555 1_555
Cu3 N2 1_555 1_555
S3 Cu3 1_555 1_555
C53 S3 1_555 1_555
N3 C53 1_555 1_555
P5 Cu3 1_555 1_555
C54 P5 1_555 1_555
C55 C54 1_555 1_555
C56 C55 1_555 1_555
C57 C56 1_555 1_555
C58 C57 1_555 1_555
C59 C54 1_555 1_555
C60 P5 1_555 1_555
C61 C60 1_555 1_555
C62 C61 1_555 1_555
C63 C62 1_555 1_555
C64 C63 1_555 1_555
C65 C60 1_555 1_555
C66 P5 1_555 1_555
P6 C66 1_555 1_555
C67 P6 1_555 1_555
C68 C67 1_555 1_555
C69 C68 1_555 1_555
C70 C69 1_555 1_555
C71 C70 1_555 1_555
C72 C67 1_555 1_555
C73 P6 1_555 1_555
C74 C73 1_555 1_555
C75 C74 1_555 1_555
C76 C75 1_555 1_555
C77 C76 1_555 1_555
C78 C73 1_555 1_555
P7 Cu3 1_555 1_555
C79 P7 1_555 1_555
C80 C79 1_555 1_555
C81 C80 1_555 1_555
C82 C81 1_555 1_555
C83 C82 1_555 1_555
C84 C79 1_555 1_555
C85 P7 1_555 1_555
C86 C85 1_555 1_555
C87 C86 1_555 1_555
C88 C87 1_555 1_555
C89 C88 1_555 1_555
C90 C85 1_555 1_555
C91 P7 1_555 1_555
P8 C91 1_555 1_555
C92 P8 1_555 1_555
C93 C92 1_555 1_555
C94 C93 1_555 1_555
C95 C94 1_555 1_555
C96 C95 1_555 1_555
C97 C92 1_555 1_555
C98 P8 1_555 1_555
C99 C98 1_555 1_555
C100 C99 1_555 1_555
C101 C100 1_555 1_555
C102 C101 1_555 1_555
C103 C98 1_555 1_555
Cu4 S3 1_555 1_555
S4 Cu4 1_555 1_555
C104 S4 1_555 1_555
N4 C104 1_555 1_555
N5 C105 1_555 1_555
C105 C106 1_555 1_555
C106 H89 1_555 1_555
N6 C107 1_555 1_555
C107 C108 1_555 1_555
C108 H92 1_555 1_555
N7 C109 1_555 1_555
C109 C110 1_555 1_555
C110 H104 1_555 1_555
N8 C111 1_555 1_555
C111 C112 1_555 1_555
C112 H95 1_555 1_555
N9 C113 1_555 1_555
C113 C114 1_555 1_555
C114 H98 1_555 1_555
N10 C115 1_555 1_555
C115 C116 1_555 1_555
C116 H101 1_555 1_555
H1 C3 1_555 1_555
H2 C4 1_555 1_555
H3 C5 1_555 1_555
H4 C6 1_555 1_555
H5 C7 1_555 1_555
H6 C9 1_555 1_555
H7 C10 1_555 1_555
H8 C11 1_555 1_555
H9 C12 1_555 1_555
H10 C13 1_555 1_555
H11 C14 1_555 1_555
H12 C14 1_555 1_555
H13 C16 1_555 1_555
H14 C17 1_555 1_555
H15 C18 1_555 1_555
H16 C19 1_555 1_555
H17 C20 1_555 1_555
H18 C22 1_555 1_555
H19 C23 1_555 1_555
H20 C24 1_555 1_555
H21 C25 1_555 1_555
H22 C26 1_555 1_555
H23 C28 1_555 1_555
H24 C29 1_555 1_555
H25 C30 1_555 1_555
H26 C31 1_555 1_555
H27 C32 1_555 1_555
H28 C34 1_555 1_555
H29 C35 1_555 1_555
H30 C36 1_555 1_555
H31 C37 1_555 1_555
H32 C38 1_555 1_555
H33 C39 1_555 1_555
H34 C39 1_555 1_555
H35 C41 1_555 1_555
H36 C42 1_555 1_555
H37 C43 1_555 1_555
H38 C44 1_555 1_555
H39 C45 1_555 1_555
H40 C47 1_555 1_555
H41 C48 1_555 1_555
H42 C49 1_555 1_555
H43 C50 1_555 1_555
H44 C51 1_555 1_555
H45 C55 1_555 1_555
H46 C56 1_555 1_555
H47 C57 1_555 1_555
H48 C58 1_555 1_555
H49 C59 1_555 1_555
H50 C61 1_555 1_555
H51 C62 1_555 1_555
H52 C63 1_555 1_555
H53 C64 1_555 1_555
H54 C65 1_555 1_555
H55 C66 1_555 1_555
H56 C66 1_555 1_555
H57 C68 1_555 1_555
H58 C69 1_555 1_555
H59 C70 1_555 1_555
H60 C71 1_555 1_555
H61 C72 1_555 1_555
H62 C74 1_555 1_555
H63 C75 1_555 1_555
H64 C76 1_555 1_555
H65 C77 1_555 1_555
H66 C78 1_555 1_555
H67 C80 1_555 1_555
H68 C81 1_555 1_555
H69 C82 1_555 1_555
H70 C83 1_555 1_555
H71 C84 1_555 1_555
H72 C86 1_555 1_555
H73 C87 1_555 1_555
H74 C88 1_555 1_555
H75 C89 1_555 1_555
H76 C90 1_555 1_555
H77 C91 1_555 1_555
H78 C91 1_555 1_555
H79 C93 1_555 1_555
H80 C94 1_555 1_555
H81 C95 1_555 1_555
H82 C96 1_555 1_555
H83 C97 1_555 1_555
H84 C99 1_555 1_555
H85 C100 1_555 1_555
H86 C101 1_555 1_555
H87 C102 1_555 1_555
H88 C103 1_555 1_555
H90 C106 1_555 1_555
H91 C106 1_555 1_555
H93 C108 1_555 1_555
H94 C108 1_555 1_555
H96 C112 1_555 1_555
H97 C112 1_555 1_555
H99 C114 1_555 1_555
H100 C114 1_555 1_555
H102 C116 1_555 1_555
H103 C116 1_555 1_555
H105 C110 1_555 1_555
H106 C110 1_555 1_555
Cu1_2 N4 1_555 1_555
N4_2 Cu1 1_555 1_555
C6 C7 1_555 1_555
C12 C13 1_555 1_555
P2 Cu2 1_555 1_555
C19 C20 1_555 1_555
C25 C26 1_555 1_555
C31 C32 1_555 1_555
C37 C38 1_555 1_555
P4 Cu2 1_555 1_555
C44 C45 1_555 1_555
C50 C51 1_555 1_555
C58 C59 1_555 1_555
C64 C65 1_555 1_555
P6 Cu4 1_555 1_555
C71 C72 1_555 1_555
C77 C78 1_555 1_555
C83 C84 1_555 1_555
C89 C90 1_555 1_555
P8 Cu4 1_555 1_555
C96 C97 1_555 1_555
C102 C103 1_555 1_555

#END
