
#######################################################################
#
#                 Cambridge Crystallographic Data Centre
#                                CCDC 
#
#######################################################################
#
# If this CIF has been generated from an entry in the Cambridge 
# Structural Database, then it will include bibliographic, chemical, 
# crystal, experimental, refinement or atomic coordinate data resulting 
# from the CCDC's data processing and validation procedures.
#
#######################################################################

data_FIXBUL
_symmetry_cell_setting           triclinic
_symmetry_space_group_name_H-M   'P -1'
_symmetry_Int_Tables_number      2
_space_group_name_Hall           '-P 1'
loop_
_symmetry_equiv_pos_site_id
_symmetry_equiv_pos_as_xyz
1 x,y,z
2 -x,-y,-z
_cell_length_a                   6.2396(6)
_cell_length_b                   8.3057(8)
_cell_length_c                   10.5271(11)
_cell_angle_alpha                87.4130(10)
_cell_angle_beta                 88.0800(10)
_cell_angle_gamma                82.8270(10)
_cell_volume                     540.524
loop_
_atom_site_label
_atom_site_type_symbol
_atom_site_fract_x
_atom_site_fract_y
_atom_site_fract_z
Cu1 Cu 0.5000 0.0000 0.5000
O1 O 0.6243(3) 0.17118(18) 0.31637(14)
O2 O 0.3777(2) 0.00134(18) 0.32906(14)
N1 N 0.2789(3) 0.1817(2) 0.55753(16)
N2 N -0.0853(3) 0.5559(2) 0.88082(17)
C1 C -0.1568(4) 0.4136(3) 0.9482(2)
H1 H -0.0662 0.3140 0.9209
H2 H -0.3086 0.4049 0.9279
C2 C 0.4961(3) 0.0873(2) 0.12028(19)
H3 H 0.5124 0.1989 0.0847
C3 C 0.2142(4) 0.4561(3) 0.6216(2)
H4 H 0.2649 0.5588 0.6259
C4 C -0.0548(4) 0.2798(3) 0.6605(2)
H5 H -0.1941 0.2593 0.6912
C5 C -0.1241(4) 0.5640(3) 0.7439(2)
H6 H -0.0931 0.6711 0.7079
H7 H -0.2789 0.5559 0.7312
C6 C 0.0828(4) 0.1583(3) 0.6045(2)
H8 H 0.0364 0.0543 0.5990
C7 C 0.2913(3) 0.0364(3) 0.0686(2)
H9 H 0.1661 0.1154 0.0930
H10 H 0.2674 -0.0713 0.1068
C8 C 0.6934(3) -0.0278(3) 0.0761(2)
H11 H 0.8262 0.0101 0.1065
H12 H 0.6841 -0.1379 0.1143
C9 C 0.1384(4) 0.5699(3) 0.9100(2)
H13 H 0.1859 0.6661 0.8635
H14 H 0.2331 0.4724 0.8824
C10 C 0.4982(3) 0.0904(2) 0.2648(2)
C11 C 0.3413(4) 0.3295(3) 0.5656(2)
H15 H 0.4792 0.3479 0.5311
C12 C 0.0111(4) 0.4320(3) 0.6718(2)
O1A O 0.3757(3) -0.17118(18) -0.31637(14)
O2A O 0.6223(2) -0.00134(18) -0.32906(14)
C2A C 0.5039(3) -0.0873(2) -0.12028(19)
H3A H 0.4876 -0.1989 -0.0847
C7A C 0.7087(3) -0.0364(3) -0.0686(2)
H9A H 0.8339 -0.1154 -0.0930
H10A H 0.7326 0.0713 -0.1068
C8A C 0.3066(3) 0.0278(3) -0.0761(2)
H11A H 0.1738 -0.0101 -0.1065
H12A H 0.3159 0.1379 -0.1143
C10A C 0.5018(3) -0.0904(2) -0.2648(2)
N1A N -0.2789(3) 0.8183(2) 1.44247(16)
N2A N 0.0853(3) 0.4441(2) 1.11918(17)
C1A C 0.1568(4) 0.5864(3) 1.0518(2)
H1A H 0.0662 0.6860 1.0791
H2A H 0.3086 0.5951 1.0721
C3A C -0.2142(4) 0.5439(3) 1.3784(2)
H4A H -0.2649 0.4412 1.3741
C4A C 0.0548(4) 0.7202(3) 1.3395(2)
H5A H 0.1941 0.7407 1.3088
C5A C 0.1241(4) 0.4360(3) 1.2561(2)
H6A H 0.0931 0.3289 1.2921
H7A H 0.2789 0.4441 1.2688
C6A C -0.0828(4) 0.8417(3) 1.3955(2)
H8A H -0.0364 0.9457 1.4010
C9A C -0.1384(4) 0.4301(3) 1.0900(2)
H13A H -0.1859 0.3339 1.1365
H14A H -0.2331 0.5276 1.1176
C11A C -0.3413(4) 0.6705(3) 1.4344(2)
H15A H -0.4792 0.6521 1.4689
C12A C -0.0111(4) 0.5680(3) 1.3282(2)
Cu1_2 Cu -0.5000 1.0000 1.5000
Cu1_3 Cu 0.5000 0.0000 -0.5000
O1A_2 O 0.3757(3) -0.17118(18) 0.68363(14)
O2A_2 O 0.6223(2) -0.00134(18) 0.67094(14)
N1A_2 N 0.7211(3) -0.1817(2) 0.44247(16)
loop_
_geom_bond_atom_site_label_1
_geom_bond_atom_site_label_2
_geom_bond_site_symmetry_1
_geom_bond_site_symmetry_2
Cu1 O1 1_555 1_555
O1 C10 1_555 1_555
O2 Cu1 1_555 1_555
N1 Cu1 1_555 1_555
N2 C1 1_555 1_555
C1 H1 1_555 1_555
H2 C1 1_555 1_555
C2 H3 1_555 1_555
C3 H4 1_555 1_555
C4 H5 1_555 1_555
C5 N2 1_555 1_555
H6 C5 1_555 1_555
H7 C5 1_555 1_555
C6 N1 1_555 1_555
H8 C6 1_555 1_555
C7 C2 1_555 1_555
H9 C7 1_555 1_555
H10 C7 1_555 1_555
C8 C2 1_555 1_555
H11 C8 1_555 1_555
H12 C8 1_555 1_555
C9 N2 1_555 1_555
H13 C9 1_555 1_555
H14 C9 1_555 1_555
C10 O2 1_555 1_555
C11 N1 1_555 1_555
H15 C11 1_555 1_555
C12 C3 1_555 1_555
O1A C10A 1_555 1_555
O2A C10A 1_555 1_555
C2A H3A 1_555 1_555
C7A C8 1_555 1_555
H9A C7A 1_555 1_555
H10A C7A 1_555 1_555
C8A C7 1_555 1_555
H11A C8A 1_555 1_555
H12A C8A 1_555 1_555
C10A C2A 1_555 1_555
N1A C6A 1_555 1_555
N2A C1A 1_555 1_555
C1A C9 1_555 1_555
H1A C1A 1_555 1_555
H2A C1A 1_555 1_555
C3A H4A 1_555 1_555
C4A H5A 1_555 1_555
C5A N2A 1_555 1_555
H6A C5A 1_555 1_555
H7A C5A 1_555 1_555
C6A C4A 1_555 1_555
H8A C6A 1_555 1_555
C9A C1 1_555 1_555
H13A C9A 1_555 1_555
H14A C9A 1_555 1_555
C11A N1A 1_555 1_555
H15A C11A 1_555 1_555
C12A C3A 1_555 1_555
Cu1_2 N1A 1_555 1_555
Cu1_3 O1A 1_555 1_555
O1A_2 Cu1 1_555 1_555
O2A_2 Cu1 1_555 1_555
N1A_2 Cu1 1_555 1_555
C2 C10 1_555 1_555
C3 C11 1_555 1_555
C4 C6 1_555 1_555
C4 C12 1_555 1_555
C5 C12 1_555 1_555
O2A Cu1_3 1_555 1_555
C2A C7A 1_555 1_555
C2A C8A 1_555 1_555
N2A C9A 1_555 1_555
C3A C11A 1_555 1_555
C4A C12A 1_555 1_555
C5A C12A 1_555 1_555

#END
