
#######################################################################
#
#                 Cambridge Crystallographic Data Centre
#                                CCDC 
#
#######################################################################
#
# If this CIF has been generated from an entry in the Cambridge 
# Structural Database, then it will include bibliographic, chemical, 
# crystal, experimental, refinement or atomic coordinate data resulting 
# from the CCDC's data processing and validation procedures.
#
#######################################################################

data_FIXCOG
_symmetry_cell_setting           triclinic
_symmetry_space_group_name_H-M   'P -1'
_symmetry_Int_Tables_number      2
_space_group_name_Hall           '-P 1'
loop_
_symmetry_equiv_pos_site_id
_symmetry_equiv_pos_as_xyz
1 x,y,z
2 -x,-y,-z
_cell_length_a                   9.7307(10)
_cell_length_b                   10.9466(11)
_cell_length_c                   16.0898(17)
_cell_angle_alpha                97.6210(10)
_cell_angle_beta                 99.6030(10)
_cell_angle_gamma                115.6500(10)
_cell_volume                     1482.31
loop_
_atom_site_label
_atom_site_type_symbol
_atom_site_fract_x
_atom_site_fract_y
_atom_site_fract_z
Cu1 Cu 0.70134(4) 0.92436(3) 0.351784(19)
O1 O 0.9412(3) 0.9173(3) 0.37687(16)
H1 H 0.978(5) 0.998(2) 0.409(2)
H2 H 0.944(5) 0.865(3) 0.411(2)
O2 O 1.0216(3) 1.1798(3) 0.4660(2)
O3 O 0.4092(3) 0.8186(2) 0.28218(15)
O4 O 0.2939(3) 0.6401(2) -0.06494(15)
O5 O 0.2210(3) 0.4135(2) -0.10006(14)
H3 H 0.2415 0.4324 -0.1469
O6 O 0.5686(2) 0.72426(19) 0.29228(12)
O7 O 0.7755(2) 1.1202(2) 0.40066(13)
O8 O 1.0194(2) 1.1644(2) 1.02188(12)
O9 O 0.4035(2) 0.6632(2) 0.68666(13)
N1 N 0.6580(3) 0.8742(2) 0.46579(14)
N2 N 0.6290(3) 0.8393(2) 0.77578(14)
N3 N 0.7749(3) 1.0449(2) 0.93101(14)
N4 N 0.7418(3) 0.9747(2) 1.23766(14)
C1 C 0.9406(5) 1.3579(4) 0.4554(3)
H4 H 0.8766 1.3620 0.4013
C2 C 0.8719(5) 1.3899(4) 0.5244(3)
H5 H 0.9206 1.3757 0.5789
H6 H 0.7576 1.3250 0.5091
C3 C 1.1035(6) 1.4615(4) 0.4615(4)
H7 H 1.1324 1.4390 0.4075
H8 H 1.1751 1.4546 0.5100
C4 C 0.2907(3) 0.5697(3) 0.23257(18)
H9 H 0.2536 0.5322 0.2825
C5 C 0.3322(3) 0.4661(3) 0.18306(19)
H10 H 0.4259 0.4676 0.2194
H11 H 0.2436 0.3709 0.1716
C6 C 0.3660(3) 0.4999(3) 0.09727(18)
H12 H 0.3868 0.4283 0.0658
H13 H 0.4607 0.5913 0.1085
C7 C 0.9139(4) 1.2087(3) 0.4404(2)
C8 C 0.1898(3) 0.6123(3) 0.09065(19)
H14 H 0.0989 0.6152 0.0544
H15 H 0.2822 0.7054 0.1028
C9 C 0.8277(3) 1.0749(3) 0.85246(17)
H16 H 0.9417 1.1410 0.8681
H17 H 0.7703 1.1183 0.8218
C10 C 0.6076(3) 0.9470(3) 0.91264(18)
H18 H 0.5443 0.9875 0.8843
H19 H 0.5782 0.9290 0.9675
C11 C 0.7579(3) 1.0956(3) 1.21917(18)
H20 H 0.7423 1.1575 1.2592
C12 C 0.8781(3) 1.0887(3) 1.00890(17)
C13 C 0.6155(3) 0.9348(3) 0.60417(18)
H21 H 0.6112 1.0018 0.6462
C14 C 0.6494(3) 0.9640(3) 0.52732(17)
H22 H 0.6678 1.0528 0.5173
C15 C 0.7582(3) 0.8867(3) 1.17887(18)
H23 H 0.7456 0.8003 1.1909
C16 C 0.7924(3) 0.9151(3) 1.10180(18)
H24 H 0.8002 0.8487 1.0611
C17 C 0.5877(3) 0.8049(3) 0.61903(17)
C18 C 0.5348(3) 0.7631(3) 0.69767(17)
C19 C 0.8153(3) 1.0425(3) 1.08479(17)
C20 C 0.7967(3) 0.9403(3) 0.79398(17)
H25 H 0.8254 0.9586 0.7391
H26 H 0.8621 0.9018 0.8226
C21 C 0.6339(4) 0.7502(3) 0.48130(18)
H27 H 0.6428 0.6863 0.4392
C22 C 0.5731(3) 0.8113(3) 0.85369(17)
H28 H 0.6263 0.7651 0.8847
H29 H 0.4583 0.7480 0.8372
C23 C 0.2511(3) 0.5283(3) -0.04546(19)
C24 C 0.7962(3) 1.1335(3) 1.14472(17)
H30 H 0.8093 1.2209 1.1345
C25 C 0.4305(3) 0.7148(3) 0.27027(17)
C26 C 0.2240(3) 0.5041(3) 0.04173(18)
H31 H 0.1303 0.4110 0.0320
C27 C 0.1534(3) 0.5773(3) 0.1755(2)
H32 H 0.0573 0.4868 0.1631
H33 H 0.1330 0.6494 0.2068
C28 C 0.5967(4) 0.7116(3) 0.55613(18)
H34 H 0.5775 0.6218 0.5643
O2A O 0.9784(3) 1.8202(3) 0.5340(2)
O7A O 1.2245(2) 1.8798(2) 0.59934(13)
C1A C 1.0594(5) 1.6421(4) 0.5446(3)
H4A H 1.1234 1.6380 0.5987
C2A C 1.1281(5) 1.6101(4) 0.4756(3)
H5A H 1.0794 1.6243 0.4211
H6A H 1.2424 1.6750 0.4909
C3A C 0.8965(6) 1.5385(4) 0.5385(4)
H7A H 0.8676 1.5610 0.5925
H8A H 0.8249 1.5454 0.4900
C7A C 1.0861(4) 1.7913(3) 0.5596(2)
Cu1A Cu 1.29866(4) 2.07564(3) 0.648216(19)
O1A O 1.0588(3) 2.0827(3) 0.62313(16)
H1A H 1.022(5) 2.002(2) 0.591(2)
H2A H 1.056(5) 2.135(3) 0.589(2)
O3A O 1.5908(3) 2.1814(2) 0.71782(15)
O4A O 1.7061(3) 2.3599(2) 1.06494(15)
O5A O 1.7790(3) 2.5865(2) 1.10006(14)
H3A H 1.7585 2.5676 1.1469
O6A O 1.4314(2) 2.27574(19) 0.70772(12)
O8A O 0.9806(2) 1.8356(2) -0.02188(12)
O9A O 1.5965(2) 2.3368(2) 0.31334(13)
N1A N 1.3420(3) 2.1258(2) 0.53421(14)
N2A N 1.3710(3) 2.1607(2) 0.22422(14)
N3A N 1.2251(3) 1.9551(2) 0.06899(14)
N4A N 1.2582(3) 2.0253(2) -0.23766(14)
C4A C 1.7093(3) 2.4303(3) 0.76743(18)
H9A H 1.7464 2.4678 0.7175
C5A C 1.6678(3) 2.5339(3) 0.81694(19)
H10A H 1.5741 2.5324 0.7806
H11A H 1.7564 2.6291 0.8284
C6A C 1.6340(3) 2.5001(3) 0.90273(18)
H12A H 1.6132 2.5717 0.9342
H13A H 1.5393 2.4087 0.8915
C8A C 1.8102(3) 2.3877(3) 0.90935(19)
H14A H 1.9011 2.3848 0.9456
H15A H 1.7178 2.2946 0.8972
C9A C 1.1723(3) 1.9251(3) 0.14754(17)
H16A H 1.0583 1.8590 0.1319
H17A H 1.2297 1.8817 0.1782
C10A C 1.3924(3) 2.0530(3) 0.08736(18)
H18A H 1.4557 2.0125 0.1157
H19A H 1.4218 2.0710 0.0325
C11A C 1.2421(3) 1.9044(3) -0.21917(18)
H20A H 1.2577 1.8425 -0.2592
C12A C 1.1219(3) 1.9113(3) -0.00890(17)
C13A C 1.3845(3) 2.0652(3) 0.39583(18)
H21A H 1.3888 1.9982 0.3538
C14A C 1.3506(3) 2.0360(3) 0.47268(17)
H22A H 1.3322 1.9472 0.4827
C15A C 1.2418(3) 2.1133(3) -0.17887(18)
H23A H 1.2544 2.1997 -0.1909
C16A C 1.2076(3) 2.0849(3) -0.10180(18)
H24A H 1.1998 2.1513 -0.0611
C17A C 1.4123(3) 2.1951(3) 0.38097(17)
C18A C 1.4652(3) 2.2369(3) 0.30233(17)
C19A C 1.1847(3) 1.9575(3) -0.08479(17)
C20A C 1.2033(3) 2.0597(3) 0.20602(17)
H25A H 1.1746 2.0414 0.2609
H26A H 1.1379 2.0982 0.1774
C21A C 1.3661(4) 2.2498(3) 0.51870(18)
H27A H 1.3572 2.3137 0.5608
C22A C 1.4269(3) 2.1887(3) 0.14631(17)
H28A H 1.3737 2.2349 0.1153
H29A H 1.5417 2.2520 0.1628
C23A C 1.7489(3) 2.4717(3) 1.04546(19)
C24A C 1.2038(3) 1.8665(3) -0.14472(17)
H30A H 1.1907 1.7791 -0.1345
C25A C 1.5695(3) 2.2852(3) 0.72973(17)
C26A C 1.7760(3) 2.4959(3) 0.95827(18)
H31A H 1.8697 2.5890 0.9680
C27A C 1.8466(3) 2.4227(3) 0.8245(2)
H32A H 1.9427 2.5132 0.8369
H33A H 1.8670 2.3506 0.7932
C28A C 1.4033(4) 2.2884(3) 0.44387(18)
H34A H 1.4225 2.3782 0.4357
Cu1_2 Cu 0.70134(4) 0.92436(3) 1.351784(19)
Cu1A_2 Cu 1.29866(4) 2.07564(3) -0.351784(19)
N4_2 N 0.7418(3) 0.9747(2) 0.23766(14)
N4A_2 N 1.2582(3) 2.0253(2) 0.76234(14)
O10 O 0.7480(3) 0.5793(2) 0.25916(16)
H35 H 0.7026 0.6261 0.2789
H36 H 0.7114 0.4991 0.2732
loop_
_geom_bond_atom_site_label_1
_geom_bond_atom_site_label_2
_geom_bond_site_symmetry_1
_geom_bond_site_symmetry_2
Cu1 O1 1_555 1_555
O1 H1 1_555 1_555
H2 O1 1_555 1_555
O2 C7 1_555 1_555
O3 Cu1 1_555 1_555
O4 C23 1_555 1_555
O5 H3 1_555 1_555
O6 Cu1 1_555 1_555
O7 Cu1 1_555 1_555
O8 C12 1_555 1_555
O9 C18 1_555 1_555
N1 Cu1 1_555 1_555
N2 C18 1_555 1_555
N3 C9 1_555 1_555
N4 C11 1_555 1_555
C1 H4 1_555 1_555
C2 C1 1_555 1_555
H5 C2 1_555 1_555
H6 C2 1_555 1_555
C3 C1 1_555 1_555
H7 C3 1_555 1_555
H8 C3 1_555 1_555
C4 H9 1_555 1_555
C5 C4 1_555 1_555
H10 C5 1_555 1_555
H11 C5 1_555 1_555
C6 C5 1_555 1_555
H12 C6 1_555 1_555
H13 C6 1_555 1_555
C7 O7 1_555 1_555
C8 H14 1_555 1_555
H15 C8 1_555 1_555
C9 H16 1_555 1_555
H17 C9 1_555 1_555
C10 N3 1_555 1_555
H18 C10 1_555 1_555
H19 C10 1_555 1_555
C11 H20 1_555 1_555
C12 N3 1_555 1_555
C13 H21 1_555 1_555
C14 N1 1_555 1_555
H22 C14 1_555 1_555
C15 N4 1_555 1_555
H23 C15 1_555 1_555
C16 C15 1_555 1_555
H24 C16 1_555 1_555
C17 C13 1_555 1_555
C18 C17 1_555 1_555
C19 C12 1_555 1_555
C20 N2 1_555 1_555
H25 C20 1_555 1_555
H26 C20 1_555 1_555
C21 N1 1_555 1_555
H27 C21 1_555 1_555
C22 N2 1_555 1_555
H28 C22 1_555 1_555
H29 C22 1_555 1_555
C23 O5 1_555 1_555
C24 C11 1_555 1_555
H30 C24 1_555 1_555
C25 O3 1_555 1_555
C26 C6 1_555 1_555
H31 C26 1_555 1_555
C27 C4 1_555 1_555
H32 C27 1_555 1_555
H33 C27 1_555 1_555
C28 C17 1_555 1_555
H34 C28 1_555 1_555
O10 H35 1_555 1_555
H36 O10 1_555 1_555
O2A C7A 1_555 1_555
O7A C7A 1_555 1_555
C1A H4A 1_555 1_555
C2A C3 1_555 1_555
H5A C2A 1_555 1_555
H6A C2A 1_555 1_555
C3A C2 1_555 1_555
H7A C3A 1_555 1_555
H8A C3A 1_555 1_555
C7A C1A 1_555 1_555
Cu1A O7A 1_555 1_555
O1A Cu1A 1_555 1_555
H1A O1A 1_555 1_555
H2A O1A 1_555 1_555
O3A Cu1A 1_555 1_555
O4A C23A 1_555 1_555
O5A H3A 1_555 1_555
O6A Cu1A 1_555 1_555
O8A C12A 1_555 1_555
O9A C18A 1_555 1_555
N1A Cu1A 1_555 1_555
N2A C18A 1_555 1_555
N3A C9A 1_555 1_555
N4A C11A 1_555 1_555
C4A H9A 1_555 1_555
C5A C4A 1_555 1_555
H10A C5A 1_555 1_555
H11A C5A 1_555 1_555
C6A C5A 1_555 1_555
H12A C6A 1_555 1_555
H13A C6A 1_555 1_555
C8A H14A 1_555 1_555
H15A C8A 1_555 1_555
C9A H16A 1_555 1_555
H17A C9A 1_555 1_555
C10A N3A 1_555 1_555
H18A C10A 1_555 1_555
H19A C10A 1_555 1_555
C11A H20A 1_555 1_555
C12A N3A 1_555 1_555
C13A H21A 1_555 1_555
C14A N1A 1_555 1_555
H22A C14A 1_555 1_555
C15A N4A 1_555 1_555
H23A C15A 1_555 1_555
C16A C15A 1_555 1_555
H24A C16A 1_555 1_555
C17A C13A 1_555 1_555
C18A C17A 1_555 1_555
C19A C12A 1_555 1_555
C20A N2A 1_555 1_555
H25A C20A 1_555 1_555
H26A C20A 1_555 1_555
C21A N1A 1_555 1_555
H27A C21A 1_555 1_555
C22A N2A 1_555 1_555
H28A C22A 1_555 1_555
H29A C22A 1_555 1_555
C23A O5A 1_555 1_555
C24A C11A 1_555 1_555
H30A C24A 1_555 1_555
C25A O3A 1_555 1_555
C26A C6A 1_555 1_555
H31A C26A 1_555 1_555
C27A C4A 1_555 1_555
H32A C27A 1_555 1_555
H33A C27A 1_555 1_555
C28A C17A 1_555 1_555
H34A C28A 1_555 1_555
Cu1_2 N4 1_555 1_555
Cu1A_2 N4A 1_555 1_555
N4_2 Cu1 1_555 1_555
N4A_2 Cu1A 1_555 1_555
O6 C25 1_555 1_555
C1 C7 1_555 1_555
C4 C25 1_555 1_555
C8 C26 1_555 1_555
C8 C27 1_555 1_555
C9 C20 1_555 1_555
C10 C22 1_555 1_555
C13 C14 1_555 1_555
C16 C19 1_555 1_555
C19 C24 1_555 1_555
C21 C28 1_555 1_555
C23 C26 1_555 1_555
C1A C2A 1_555 1_555
C1A C3A 1_555 1_555
O6A C25A 1_555 1_555
C4A C25A 1_555 1_555
C8A C26A 1_555 1_555
C8A C27A 1_555 1_555
C9A C20A 1_555 1_555
C10A C22A 1_555 1_555
C13A C14A 1_555 1_555
C16A C19A 1_555 1_555
C19A C24A 1_555 1_555
C21A C28A 1_555 1_555
C23A C26A 1_555 1_555

#END
