
#######################################################################
#
#                 Cambridge Crystallographic Data Centre
#                                CCDC 
#
#######################################################################
#
# If this CIF has been generated from an entry in the Cambridge 
# Structural Database, then it will include bibliographic, chemical, 
# crystal, experimental, refinement or atomic coordinate data resulting 
# from the CCDC's data processing and validation procedures.
#
#######################################################################

data_FIXCIA
_symmetry_cell_setting           triclinic
_symmetry_space_group_name_H-M   'P -1'
_symmetry_Int_Tables_number      2
_space_group_name_Hall           '-P 1'
loop_
_symmetry_equiv_pos_site_id
_symmetry_equiv_pos_as_xyz
1 x,y,z
2 -x,-y,-z
_cell_length_a                   8.3944(11)
_cell_length_b                   8.8176(11)
_cell_length_c                   14.9009(19)
_cell_angle_alpha                75.2360(10)
_cell_angle_beta                 79.5590(10)
_cell_angle_gamma                75.3250(10)
_cell_volume                     1023.68
loop_
_atom_site_label
_atom_site_type_symbol
_atom_site_fract_x
_atom_site_fract_y
_atom_site_fract_z
Cu1 Cu 0.03459(5) 0.47630(5) 0.41439(3)
O1 O -0.2430(3) 0.6432(3) 0.53509(18)
O2 O -0.1902(3) 0.6063(4) 0.3893(2)
O3 O -0.9371(4) 0.7114(4) 0.5333(2)
O4 O -0.8868(4) 0.6768(3) 0.3874(2)
N1 N 0.1285(4) 0.4173(4) 0.2787(2)
C1 C -0.8805(4) 0.7492(4) 0.4489(3)
C2 C 0.3337(7) 0.4235(7) 0.1455(3)
H1 H 0.4287 0.4614 0.1122
C3 C -0.7273(5) 0.9225(5) 0.4978(3)
H2 H -0.8093 0.9195 0.5548
H3 H -0.6998 1.0299 0.4798
C4 C -0.5180(5) 0.7605(5) 0.3533(3)
H4 H -0.5460 0.6533 0.3712
H5 H -0.4361 0.7635 0.2964
C5 C 0.1311(8) 0.2717(7) 0.1635(4)
H6 H 0.0835 0.2014 0.1431
C6 C 0.0665(6) 0.3185(7) 0.2465(4)
H7 H -0.0260 0.2789 0.2824
C7 C 0.2623(6) 0.4634(6) 0.2292(3)
H8 H 0.3121 0.5280 0.2531
C8 C -0.5702(4) 0.7937(4) 0.5193(3)
H9 H -0.5999 0.6878 0.5440
H10 H -0.5204 0.8174 0.5682
C9 C 0.3292(7) 0.2914(6) 0.0157(3)
C10 C -0.2802(4) 0.6680(4) 0.4538(3)
C11 C -0.6750(5) 0.8904(5) 0.3325(3)
H11 H -0.6447 0.9963 0.3091
H12 H -0.7241 0.8688 0.2826
C12 C -0.8034(4) 0.8963(4) 0.4188(3)
H13 H -0.8949 0.9922 0.4019
C13 C -0.4426(4) 0.7864(4) 0.4321(3)
H14 H -0.4156 0.8951 0.4103
C14 C 0.2648(6) 0.3274(5) 0.1106(3)
N2 N 0.4481(11) 0.1578(11) 0.0081(6)
C15 C 0.5145(14) 0.1204(12) -0.0840(6)
H15 H 0.6352 0.1167 -0.0963
H16 H 0.4600 0.2053 -0.1335
C16 C 0.5158(13) 0.0363(11) 0.0860(6)
H17 H 0.4626 0.0664 0.1457
H18 H 0.6366 0.0289 0.0813
O5 O 0.3123(13) 0.4004(11) -0.0525(7)
N1A N 0.8715(4) -0.4173(4) -0.2787(2)
C2A C 0.6663(7) -0.4235(7) -0.1455(3)
H1A H 0.5713 -0.4614 -0.1122
C5A C 0.8689(8) -0.2717(7) -0.1635(4)
H6A H 0.9165 -0.2014 -0.1431
C6A C 0.9335(6) -0.3185(7) -0.2465(4)
H7A H 1.0260 -0.2789 -0.2824
C7A C 0.7377(6) -0.4634(6) -0.2292(3)
H8A H 0.6879 -0.5280 -0.2531
C9A C 0.6708(7) -0.2914(6) -0.0157(3)
C14A C 0.7352(6) -0.3274(5) -0.1106(3)
N2A N 0.5519(11) -0.1578(11) -0.0081(6)
C15A C 0.4855(14) -0.1204(12) 0.0840(6)
H15A H 0.3648 -0.1167 0.0963
H16A H 0.5400 -0.2053 0.1335
C16A C 0.4842(13) -0.0363(11) -0.0860(6)
H17A H 0.5374 -0.0664 -0.1457
H18A H 0.3634 -0.0289 -0.0813
O5A O 0.6877(13) -0.4004(11) 0.0525(7)
Cu1A Cu -1.03459(5) 0.52370(5) 0.58561(3)
O1A O -0.7570(3) 0.3568(3) 0.46491(18)
O2A O -0.8098(3) 0.3937(4) 0.6107(2)
O3A O -0.0629(4) 0.2886(4) 0.4667(2)
O4A O -0.1132(4) 0.3232(3) 0.6126(2)
C1A C -0.1195(4) 0.2508(4) 0.5511(3)
C3A C -0.2727(5) 0.0775(5) 0.5022(3)
H2A H -0.1907 0.0805 0.4452
H3A H -0.3002 -0.0299 0.5202
C4A C -0.4820(5) 0.2395(5) 0.6467(3)
H4A H -0.4540 0.3467 0.6288
H5A H -0.5639 0.2365 0.7036
C8A C -0.4298(4) 0.2063(4) 0.4807(3)
H9A H -0.4001 0.3122 0.4560
H10A H -0.4796 0.1826 0.4318
C10A C -0.7198(4) 0.3320(4) 0.5462(3)
C11A C -0.3250(5) 0.1096(5) 0.6675(3)
H11A H -0.3553 0.0037 0.6909
H12A H -0.2759 0.1312 0.7174
C12A C -0.1966(4) 0.1037(4) 0.5812(3)
H13A H -0.1051 0.0078 0.5981
C13A C -0.5574(4) 0.2136(4) 0.5679(3)
H14A H -0.5844 0.1049 0.5897
Cu1_2 Cu -0.96541(5) 0.47630(5) 0.41439(3)
Cu1A_2 Cu -0.03459(5) 0.52370(5) 0.58561(3)
Cu1A_3 Cu 0.96541(5) -0.47630(5) -0.41439(3)
O1_2 O -1.2430(3) 0.6432(3) 0.53509(18)
O1A_2 O 0.2430(3) 0.3568(3) 0.46491(18)
O4_2 O 0.1132(4) 0.6768(3) 0.3874(2)
O4A_2 O -1.1132(4) 0.3232(3) 0.6126(2)
N1A_2 N -1.1285(4) 0.5827(4) 0.7213(2)
O6 O 0.6805(7) 0.4610(6) 0.2576(4)
H19 H 0.715(9) 0.508(8) 0.296(4)
H20 H 0.706(10) 0.508(8) 0.1980(18)
O7 O 0.6828(8) 0.1453(6) 0.2412(3)
H21 H 0.647(10) 0.228(6) 0.265(4)
H22 H 0.681(11) 0.178(8) 0.1823(16)
O8 O 0.7457(8) 0.2842(6) 0.0543(4)
H23 H 0.744(10) 0.379(5) 0.059(6)
H24 H 0.833(6) 0.246(8) 0.020(5)
O9 O 0.0356(11) 0.0946(11) 0.7699(6)
O10 O 0.0123(11) 0.2030(12) 0.9288(6)
O11? O -0.079(2) 0.0842(13) 0.9417(10)
O12? O 0.115(3) 0.120(3) 0.7750(17)
N3? N 0.368(2) 0.1356(19) 0.0115(11)
C17? C 0.414(3) 0.0903(18) -0.0793(11)
H25? H 0.3942 0.1877 -0.1301
H26? H 0.3435 0.0185 -0.0841
C18? C 0.404(3) -0.0045(18) 0.0898(10)
H27? H 0.3333 -0.0804 0.0917
H28? H 0.3756 0.0316 0.1496
O13? O 0.247(3) 0.373(3) -0.0535(17)
loop_
_geom_bond_atom_site_label_1
_geom_bond_atom_site_label_2
_geom_bond_site_symmetry_1
_geom_bond_site_symmetry_2
Cu1 O2 1_555 1_555
O1 C10 1_555 1_555
O2 C10 1_555 1_555
O3 C1 1_555 1_555
O4 C1 1_555 1_555
N1 Cu1 1_555 1_555
C1 C12 1_555 1_555
C2 H1 1_555 1_555
C3 H2 1_555 1_555
H3 C3 1_555 1_555
C4 H4 1_555 1_555
H5 C4 1_555 1_555
C5 H6 1_555 1_555
C6 N1 1_555 1_555
H7 C6 1_555 1_555
C7 N1 1_555 1_555
H8 C7 1_555 1_555
C8 C3 1_555 1_555
H9 C8 1_555 1_555
H10 C8 1_555 1_555
C9 C14 1_555 1_555
C10 C13 1_555 1_555
C11 C4 1_555 1_555
H11 C11 1_555 1_555
H12 C11 1_555 1_555
C12 C3 1_555 1_555
H13 C12 1_555 1_555
C13 C4 1_555 1_555
H14 C13 1_555 1_555
C14 C2 1_555 1_555
N2 C9 1_555 1_555
C15 N2 1_555 1_555
H15 C15 1_555 1_555
H16 C15 1_555 1_555
C16 N2 1_555 1_555
H17 C16 1_555 1_555
H18 C16 1_555 1_555
O5 C9 1_555 1_555
O6 H19 1_555 1_555
H20 O6 1_555 1_555
O7 H21 1_555 1_555
H22 O7 1_555 1_555
O8 H23 1_555 1_555
H24 O8 1_555 1_555
N1A C6A 1_555 1_555
C2A H1A 1_555 1_555
C5A H6A 1_555 1_555
C6A C5A 1_555 1_555
H7A C6A 1_555 1_555
C7A N1A 1_555 1_555
H8A C7A 1_555 1_555
C9A C14A 1_555 1_555
C14A C2A 1_555 1_555
N2A C9A 1_555 1_555
C15A C16 1_555 1_555
H15A C15A 1_555 1_555
H16A C15A 1_555 1_555
C16A C15 1_555 1_555
H17A C16A 1_555 1_555
H18A C16A 1_555 1_555
O5A C9A 1_555 1_555
Cu1A O3 1_555 1_555
O1A C10A 1_555 1_555
O2A Cu1A 1_555 1_555
O3A Cu1 1_555 1_555
O4A C1A 1_555 1_555
C1A O3A 1_555 1_555
C3A H2A 1_555 1_555
H3A C3A 1_555 1_555
C4A H4A 1_555 1_555
H5A C4A 1_555 1_555
C8A C3A 1_555 1_555
H9A C8A 1_555 1_555
H10A C8A 1_555 1_555
C10A O2A 1_555 1_555
C11A C4A 1_555 1_555
H11A C11A 1_555 1_555
H12A C11A 1_555 1_555
C12A C1A 1_555 1_555
H13A C12A 1_555 1_555
C13A C4A 1_555 1_555
H14A C13A 1_555 1_555
Cu1_2 O4 1_555 1_555
Cu1A_2 Cu1 1_555 1_555
Cu1A_3 N1A 1_555 1_555
O1_2 Cu1A 1_555 1_555
O1A_2 Cu1 1_555 1_555
O4_2 Cu1 1_555 1_555
O4A_2 Cu1A 1_555 1_555
N1A_2 Cu1A 1_555 1_555
O1 Cu1A_2 1_555 1_555
C2 C7 1_555 1_555
C5 C6 1_555 1_555
C5 C14 1_555 1_555
C8 C13 1_555 1_555
C11 C12 1_555 1_555
C2A C7A 1_555 1_555
C5A C14A 1_555 1_555
N2A C15A 1_555 1_555
N2A C16A 1_555 1_555
Cu1A Cu1_2 1_555 1_555
O1A Cu1_2 1_555 1_555
O4A Cu1A_2 1_555 1_555
C3A C12A 1_555 1_555
C8A C13A 1_555 1_555
C10A C13A 1_555 1_555
C11A C12A 1_555 1_555

#END
