
#######################################################################
#
#                 Cambridge Crystallographic Data Centre
#                                CCDC 
#
#######################################################################
#
# If this CIF has been generated from an entry in the Cambridge 
# Structural Database, then it will include bibliographic, chemical, 
# crystal, experimental, refinement or atomic coordinate data resulting 
# from the CCDC's data processing and validation procedures.
#
#######################################################################

data_FIXJUS
_symmetry_cell_setting           triclinic
_symmetry_space_group_name_H-M   'P -1'
_symmetry_Int_Tables_number      2
_space_group_name_Hall           '-P 1'
loop_
_symmetry_equiv_pos_site_id
_symmetry_equiv_pos_as_xyz
1 x,y,z
2 -x,-y,-z
_cell_length_a                   10.2280(15)
_cell_length_b                   12.0170(18)
_cell_length_c                   12.6380(19)
_cell_angle_alpha                102.865(19)
_cell_angle_beta                 109.19(2)
_cell_angle_gamma                99.14(2)
_cell_volume                     1384.03
loop_
_atom_site_label
_atom_site_type_symbol
_atom_site_fract_x
_atom_site_fract_y
_atom_site_fract_z
Pt1 Pt 1.0000 1.0000 0.0000
Na1 Na 0.45790(16) 0.71572(13) 0.26318(12)
N1 N 0.6357(4) 0.7024(3) 0.1681(3)
N2 N 0.5906(4) 0.5225(3) -0.1913(3)
O1 O 0.6976(3) 0.8553(2) 0.4481(2)
O2 O 0.5251(3) 0.6653(2) 0.4567(2)
O3 O 0.2630(3) 0.7084(2) 0.3424(2)
O4 O 0.2044(3) 0.6568(2) 0.1027(2)
O5 O 0.3818(3) 0.8237(2) 0.0560(2)
O6 O 0.5018(3) 0.9507(2) 0.3058(2)
S1 S 0.88327(11) 0.92656(8) 0.11009(8)
S2 S 0.84671(11) 0.81860(8) -0.12292(8)
C1 C 0.7448(4) 0.8247(3) 0.5557(3)
H1 H 0.7094 0.8693 0.6107
C2 C 0.9072(4) 0.8510(4) 0.6127(3)
H2 H 0.9482 0.9333 0.6242
H3 H 0.9333 0.8379 0.6891
C3 C 0.9699(5) 0.7748(4) 0.5395(4)
H4 H 1.0722 0.7903 0.5817
H5 H 0.9545 0.7946 0.4667
C4 C 0.9005(5) 0.6448(4) 0.5125(4)
H6 H 0.9381 0.5976 0.4623
H7 H 0.9239 0.6233 0.5848
C5 C 0.7396(4) 0.6185(3) 0.4523(3)
H8 H 0.6979 0.5359 0.4395
H9 H 0.7162 0.6326 0.3764
C6 C 0.6750(4) 0.6942(3) 0.5243(3)
H10 H 0.6893 0.6726 0.5969
C7 C 0.4407(4) 0.7059(4) 0.5173(4)
H11 H 0.4648 0.7914 0.5421
H12 H 0.4577 0.6791 0.5864
C8 C 0.2866(5) 0.6582(4) 0.4363(4)
H13 H 0.2647 0.5729 0.4063
H14 H 0.2252 0.6781 0.4780
C9 C 0.1216(5) 0.6614(4) 0.2565(4)
H15 H 0.0540 0.6881 0.2884
H16 H 0.0983 0.5759 0.2350
C10 C 0.1106(5) 0.7002(4) 0.1515(4)
H17 H 0.0132 0.6709 0.0943
H18 H 0.1350 0.7857 0.1730
C11 C 0.1782(4) 0.6615(3) -0.0152(3)
H19 H 0.0749 0.6360 -0.0606
C12 C 0.2496(5) 0.5742(3) -0.0677(3)
H20 H 0.3508 0.5950 -0.0195
H21 H 0.2082 0.4956 -0.0679
C13 C 0.2308(5) 0.5736(3) -0.1922(3)
H22 H 0.1303 0.5441 -0.2424
H23 H 0.2825 0.5212 -0.2212
C14 C 0.2858(5) 0.6969(4) -0.1971(4)
H24 H 0.2673 0.6951 -0.2779
H25 H 0.3884 0.7232 -0.1537
C15 C 0.2128(4) 0.7826(3) -0.1451(3)
H26 H 0.1113 0.7597 -0.1927
H27 H 0.2516 0.8612 -0.1465
C16 C 0.2344(4) 0.7847(3) -0.0192(3)
H28 H 0.1821 0.8376 0.0100
C17 C 0.4333(5) 0.9479(4) 0.1019(4)
H29 H 0.3802 0.9842 0.0462
H30 H 0.5331 0.9700 0.1121
C18 C 0.4200(5) 0.9931(4) 0.2144(4)
H31 H 0.4505 1.0786 0.2389
H32 H 0.3200 0.9711 0.2036
C19 C 0.6505(5) 0.9982(4) 0.3481(4)
H33 H 0.6710 1.0818 0.3555
H34 H 0.6893 0.9596 0.2936
C20 C 0.7179(5) 0.9794(3) 0.4654(4)
H35 H 0.8192 1.0184 0.4997
H36 H 0.6736 1.0120 0.5181
C21 C 0.7945(4) 0.8028(3) -0.0091(3)
C22 C 0.6999(4) 0.7053(3) -0.0119(3)
C23 C 0.6641(4) 0.7033(3) 0.0879(3)
C24 C 0.6386(4) 0.6049(3) -0.1120(3)
Na1A Na 1.54210(16) 1.28428(13) -0.26318(12)
Na1A_2 Na 0.54210(16) 0.28428(13) -0.26318(12)
Na1_2 Na 1.45790(16) 1.71572(13) 0.26318(12)
N1A N 1.3643(4) 1.2976(3) -0.1681(3)
N2A N 1.4094(4) 1.4775(3) 0.1913(3)
N2A_2 N 0.4094(4) 0.4775(3) 0.1913(3)
N2_2 N 1.5906(4) 1.5225(3) -0.1913(3)
O1A O 1.3024(3) 1.1447(2) -0.4481(2)
O2A O 1.4749(3) 1.3347(2) -0.4567(2)
O3A O 1.7370(3) 1.2916(2) -0.3424(2)
O4A O 1.7956(3) 1.3432(2) -0.1027(2)
O5A O 1.6182(3) 1.1763(2) -0.0560(2)
O6A O 1.4982(3) 1.0493(2) -0.3058(2)
S1A S 1.11673(11) 1.07344(8) -0.11009(8)
S2A S 1.15329(11) 1.18140(8) 0.12292(8)
C1A C 1.2552(4) 1.1753(3) -0.5557(3)
H1A H 1.2906 1.1307 -0.6107
C2A C 1.0928(4) 1.1490(4) -0.6127(3)
H2A H 1.0518 1.0667 -0.6242
H3A H 1.0667 1.1621 -0.6891
C3A C 1.0301(5) 1.2252(4) -0.5395(4)
H4A H 0.9278 1.2097 -0.5817
H5A H 1.0455 1.2054 -0.4667
C4A C 1.0995(5) 1.3552(4) -0.5125(4)
H6A H 1.0619 1.4024 -0.4623
H7A H 1.0761 1.3767 -0.5848
C5A C 1.2604(4) 1.3815(3) -0.4523(3)
H8A H 1.3021 1.4641 -0.4395
H9A H 1.2838 1.3674 -0.3764
C6A C 1.3250(4) 1.3058(3) -0.5243(3)
H10A H 1.3107 1.3274 -0.5969
C7A C 1.5593(4) 1.2941(4) -0.5173(4)
H11A H 1.5352 1.2086 -0.5421
H12A H 1.5423 1.3209 -0.5864
C8A C 1.7134(5) 1.3418(4) -0.4363(4)
H13A H 1.7353 1.4271 -0.4063
H14A H 1.7748 1.3219 -0.4780
C9A C 1.8784(5) 1.3386(4) -0.2565(4)
H15A H 1.9460 1.3119 -0.2884
H16A H 1.9017 1.4241 -0.2350
C10A C 1.8894(5) 1.2998(4) -0.1515(4)
H17A H 1.9868 1.3291 -0.0943
H18A H 1.8650 1.2143 -0.1730
C11A C 1.8218(4) 1.3385(3) 0.0152(3)
H19A H 1.9251 1.3640 0.0606
C12A C 1.7504(5) 1.4258(3) 0.0677(3)
H20A H 1.6492 1.4050 0.0195
H21A H 1.7918 1.5044 0.0679
C13A C 1.7692(5) 1.4264(3) 0.1922(3)
H22A H 1.8697 1.4559 0.2424
H23A H 1.7175 1.4788 0.2212
C14A C 1.7142(5) 1.3031(4) 0.1971(4)
H24A H 1.7327 1.3049 0.2779
H25A H 1.6116 1.2768 0.1537
C15A C 1.7872(4) 1.2174(3) 0.1451(3)
H26A H 1.8887 1.2403 0.1927
H27A H 1.7484 1.1388 0.1465
C16A C 1.7656(4) 1.2153(3) 0.0192(3)
H28A H 1.8179 1.1624 -0.0100
C17A C 1.5667(5) 1.0521(4) -0.1019(4)
H29A H 1.6198 1.0158 -0.0462
H30A H 1.4669 1.0300 -0.1121
C18A C 1.5800(5) 1.0069(4) -0.2144(4)
H31A H 1.5495 0.9214 -0.2389
H32A H 1.6800 1.0289 -0.2036
C19A C 1.3495(5) 1.0018(4) -0.3481(4)
H33A H 1.3290 0.9182 -0.3555
H34A H 1.3107 1.0404 -0.2936
C20A C 1.2821(5) 1.0206(3) -0.4654(4)
H35A H 1.1808 0.9816 -0.4997
H36A H 1.3264 0.9880 -0.5181
C21A C 1.2055(4) 1.1972(3) 0.0091(3)
C22A C 1.3001(4) 1.2947(3) 0.0119(3)
C23A C 1.3359(4) 1.2967(3) -0.0879(3)
C24A C 1.3614(4) 1.3951(3) 0.1120(3)
loop_
_geom_bond_atom_site_label_1
_geom_bond_atom_site_label_2
_geom_bond_site_symmetry_1
_geom_bond_site_symmetry_2
Pt1 S1 1_555 1_555
Na1 N1 1_555 1_555
N1 C23 1_555 1_555
N2 C24 1_555 1_555
O1 Na1 1_555 1_555
O2 Na1 1_555 1_555
O3 Na1 1_555 1_555
O4 Na1 1_555 1_555
O5 Na1 1_555 1_555
O6 Na1 1_555 1_555
S1 C21 1_555 1_555
S2 Pt1 1_555 1_555
C1 O1 1_555 1_555
H1 C1 1_555 1_555
C2 C1 1_555 1_555
H2 C2 1_555 1_555
H3 C2 1_555 1_555
C3 C2 1_555 1_555
H4 C3 1_555 1_555
H5 C3 1_555 1_555
C4 C3 1_555 1_555
H6 C4 1_555 1_555
H7 C4 1_555 1_555
C5 C4 1_555 1_555
H8 C5 1_555 1_555
H9 C5 1_555 1_555
C6 O2 1_555 1_555
H10 C6 1_555 1_555
C7 O2 1_555 1_555
H11 C7 1_555 1_555
H12 C7 1_555 1_555
C8 O3 1_555 1_555
H13 C8 1_555 1_555
H14 C8 1_555 1_555
C9 O3 1_555 1_555
H15 C9 1_555 1_555
H16 C9 1_555 1_555
C10 O4 1_555 1_555
H17 C10 1_555 1_555
H18 C10 1_555 1_555
C11 O4 1_555 1_555
H19 C11 1_555 1_555
C12 C11 1_555 1_555
H20 C12 1_555 1_555
H21 C12 1_555 1_555
C13 C12 1_555 1_555
H22 C13 1_555 1_555
H23 C13 1_555 1_555
C14 C13 1_555 1_555
H24 C14 1_555 1_555
H25 C14 1_555 1_555
C15 C14 1_555 1_555
H26 C15 1_555 1_555
H27 C15 1_555 1_555
C16 O5 1_555 1_555
H28 C16 1_555 1_555
C17 O5 1_555 1_555
H29 C17 1_555 1_555
H30 C17 1_555 1_555
C18 O6 1_555 1_555
H31 C18 1_555 1_555
H32 C18 1_555 1_555
C19 O6 1_555 1_555
H33 C19 1_555 1_555
H34 C19 1_555 1_555
C20 O1 1_555 1_555
H35 C20 1_555 1_555
H36 C20 1_555 1_555
C21 S2 1_555 1_555
C22 C21 1_555 1_555
C23 C22 1_555 1_555
C24 C22 1_555 1_555
Na1A N1A 1_555 1_555
Na1A_2 N2 1_555 1_555
Na1_2 N2A 1_555 1_555
N1A C23A 1_555 1_555
N2A C24A 1_555 1_555
N2A_2 Na1 1_555 1_555
N2_2 Na1A 1_555 1_555
O1A Na1A 1_555 1_555
O2A Na1A 1_555 1_555
O3A Na1A 1_555 1_555
O4A Na1A 1_555 1_555
O5A Na1A 1_555 1_555
O6A Na1A 1_555 1_555
S1A Pt1 1_555 1_555
S2A Pt1 1_555 1_555
C1A O1A 1_555 1_555
H1A C1A 1_555 1_555
C2A C1A 1_555 1_555
H2A C2A 1_555 1_555
H3A C2A 1_555 1_555
C3A C2A 1_555 1_555
H4A C3A 1_555 1_555
H5A C3A 1_555 1_555
C4A C3A 1_555 1_555
H6A C4A 1_555 1_555
H7A C4A 1_555 1_555
C5A C4A 1_555 1_555
H8A C5A 1_555 1_555
H9A C5A 1_555 1_555
C6A O2A 1_555 1_555
H10A C6A 1_555 1_555
C7A O2A 1_555 1_555
H11A C7A 1_555 1_555
H12A C7A 1_555 1_555
C8A O3A 1_555 1_555
H13A C8A 1_555 1_555
H14A C8A 1_555 1_555
C9A O3A 1_555 1_555
H15A C9A 1_555 1_555
H16A C9A 1_555 1_555
C10A O4A 1_555 1_555
H17A C10A 1_555 1_555
H18A C10A 1_555 1_555
C11A O4A 1_555 1_555
H19A C11A 1_555 1_555
C12A C11A 1_555 1_555
H20A C12A 1_555 1_555
H21A C12A 1_555 1_555
C13A C12A 1_555 1_555
H22A C13A 1_555 1_555
H23A C13A 1_555 1_555
C14A C13A 1_555 1_555
H24A C14A 1_555 1_555
H25A C14A 1_555 1_555
C15A C14A 1_555 1_555
H26A C15A 1_555 1_555
H27A C15A 1_555 1_555
C16A O5A 1_555 1_555
H28A C16A 1_555 1_555
C17A O5A 1_555 1_555
H29A C17A 1_555 1_555
H30A C17A 1_555 1_555
C18A O6A 1_555 1_555
H31A C18A 1_555 1_555
H32A C18A 1_555 1_555
C19A O6A 1_555 1_555
H33A C19A 1_555 1_555
H34A C19A 1_555 1_555
C20A O1A 1_555 1_555
H35A C20A 1_555 1_555
H36A C20A 1_555 1_555
C21A S1A 1_555 1_555
C22A C21A 1_555 1_555
C23A C22A 1_555 1_555
C24A C22A 1_555 1_555
C1 C6 1_555 1_555
C5 C6 1_555 1_555
C7 C8 1_555 1_555
C9 C10 1_555 1_555
C11 C16 1_555 1_555
C15 C16 1_555 1_555
C17 C18 1_555 1_555
C19 C20 1_555 1_555
S2A C21A 1_555 1_555
C1A C6A 1_555 1_555
C5A C6A 1_555 1_555
C7A C8A 1_555 1_555
C9A C10A 1_555 1_555
C11A C16A 1_555 1_555
C15A C16A 1_555 1_555
C17A C18A 1_555 1_555
C19A C20A 1_555 1_555

#END
