
#######################################################################
#
#                 Cambridge Crystallographic Data Centre
#                                CCDC 
#
#######################################################################
#
# If this CIF has been generated from an entry in the Cambridge 
# Structural Database, then it will include bibliographic, chemical, 
# crystal, experimental, refinement or atomic coordinate data resulting 
# from the CCDC's data processing and validation procedures.
#
#######################################################################

data_FIXLON
_symmetry_cell_setting           monoclinic
_symmetry_space_group_name_H-M   'P 21/n'
_symmetry_Int_Tables_number      14
_space_group_name_Hall           '-P 2yn'
loop_
_symmetry_equiv_pos_site_id
_symmetry_equiv_pos_as_xyz
1 x,y,z
2 1/2-x,1/2+y,1/2-z
3 -x,-y,-z
4 1/2+x,1/2-y,1/2+z
_cell_length_a                   6.736(1)
_cell_length_b                   25.728(3)
_cell_length_c                   10.011(2)
_cell_angle_alpha                90
_cell_angle_beta                 90.72(2)
_cell_angle_gamma                90
_cell_volume                     1734.81
loop_
_atom_site_label
_atom_site_type_symbol
_atom_site_fract_x
_atom_site_fract_y
_atom_site_fract_z
S1 S 0.6004(2) 0.90300(5) 0.1563(1)
Cd1 Cd 0.09852(5) 0.86687(1) 0.19419(3)
S2 S 0.1994(2) 0.89470(7) 0.4383(1)
O1 O 0.4266(6) 0.8686(2) 0.1441(5)
O2 O 0.7617(6) 0.8735(2) 0.2237(4)
O3 O 0.5561(7) 0.9484(2) 0.2368(4)
O4 O 0.6645(6) 0.9179(2) 0.0210(4)
O5 O 0.0587(6) 0.9429(2) 0.0729(4)
N1 N 0.0897(6) 0.7766(2) 0.2422(5)
N2 N 0.0721(7) 0.8168(2) -0.0066(5)
N3 N -0.1800(7) 0.9244(2) 0.4859(5)
N4 N 0.0313(8) 0.9436(2) 0.6455(5)
C1 C 0.0082(9) 0.9221(2) 0.5231(5)
C2 C -0.2972(9) 0.9560(3) 0.5801(6)
C3 C -0.157(1) 0.9624(3) 0.6961(6)
C4 C 0.0784(8) 0.7431(2) 0.1402(6)
C5 C 0.064(1) 0.6898(2) 0.1641(7)
C6 C 0.064(1) 0.6712(3) 0.2901(8)
C7 C 0.074(1) 0.7067(3) 0.3970(6)
C8 C 0.0852(9) 0.7583(2) 0.3679(5)
C9 C 0.0782(7) 0.7647(2) 0.0031(5)
C10 C 0.0829(9) 0.7336(2) -0.1086(6)
C11 C 0.080(1) 0.7559(3) -0.2335(6)
C12 C 0.072(1) 0.8091(3) -0.2446(6)
C13 C 0.072(1) 0.8380(2) -0.1280(6)
H1 H -0.250 0.929 0.382
H2 H -0.067 0.940 0.036
H3 H 0.117 0.957 -0.021
H6 H 0.157 0.946 0.682
H7 H -0.331 0.982 0.533
H8 H -0.444 0.943 0.582
H9 H -0.152 0.989 0.748
H10 H -0.202 0.943 0.775
H11 H 0.068 0.666 0.077
H12 H 0.054 0.630 0.302
H13 H 0.062 0.697 0.484
H14 H 0.104 0.786 0.427
H15 H 0.084 0.692 -0.098
H16 H 0.131 0.733 -0.300
H17 H 0.049 0.822 -0.342
H18 H 0.070 0.877 -0.136
O2_2 O -0.2383(6) 0.8735(2) 0.2237(4)
Cd1_2 Cd 1.09852(5) 0.86687(1) 0.19419(3)
O6 O 0.1627(6) 0.4563(2) 0.6344(4)
H4 H 0.047 0.450 0.584
H5 H 0.125 0.488 0.668
loop_
_geom_bond_atom_site_label_1
_geom_bond_atom_site_label_2
_geom_bond_site_symmetry_1
_geom_bond_site_symmetry_2
S1 O1 1_555 1_555
Cd1 S2 1_555 1_555
S2 C1 1_555 1_555
O1 Cd1 1_555 1_555
O2 S1 1_555 1_555
O3 S1 1_555 1_555
O4 S1 1_555 1_555
O5 Cd1 1_555 1_555
O6 H4 1_555 1_555
N1 Cd1 1_555 1_555
N2 Cd1 1_555 1_555
N3 C1 1_555 1_555
N4 C1 1_555 1_555
C2 N3 1_555 1_555
C3 N4 1_555 1_555
C4 N1 1_555 1_555
C5 C4 1_555 1_555
C6 C5 1_555 1_555
C7 C6 1_555 1_555
C8 N1 1_555 1_555
C9 N2 1_555 1_555
C10 C9 1_555 1_555
C11 C10 1_555 1_555
C12 C11 1_555 1_555
C13 N2 1_555 1_555
H1 N3 1_555 1_555
H2 O5 1_555 1_555
H3 O5 1_555 1_555
H5 O6 1_555 1_555
H6 N4 1_555 1_555
H7 C2 1_555 1_555
H8 C2 1_555 1_555
H9 C3 1_555 1_555
H10 C3 1_555 1_555
H11 C5 1_555 1_555
H12 C6 1_555 1_555
H13 C7 1_555 1_555
H14 C8 1_555 1_555
H15 C10 1_555 1_555
H16 C11 1_555 1_555
H17 C12 1_555 1_555
H18 C13 1_555 1_555
O2_2 Cd1 1_555 1_555
Cd1_2 O2 1_555 1_555
C2 C3 1_555 1_555
C4 C9 1_555 1_555
C7 C8 1_555 1_555
C12 C13 1_555 1_555

#END
