
#######################################################################
#
#                 Cambridge Crystallographic Data Centre
#                                CCDC 
#
#######################################################################
#
# If this CIF has been generated from an entry in the Cambridge 
# Structural Database, then it will include bibliographic, chemical, 
# crystal, experimental, refinement or atomic coordinate data resulting 
# from the CCDC's data processing and validation procedures.
#
#######################################################################

data_FIYDAT
_symmetry_cell_setting           orthorhombic
_symmetry_space_group_name_H-M   'P b c n'
_symmetry_Int_Tables_number      60
_space_group_name_Hall           '-P 2n 2ab'
loop_
_symmetry_equiv_pos_site_id
_symmetry_equiv_pos_as_xyz
1 x,y,z
2 1/2-x,1/2-y,1/2+z
3 1/2+x,1/2-y,-z
4 -x,y,1/2-z
5 -x,-y,-z
6 1/2+x,1/2+y,1/2-z
7 1/2-x,1/2+y,z
8 x,-y,1/2+z
_cell_length_a                   15.076(4)
_cell_length_b                   9.436(2)
_cell_length_c                   15.828(6)
_cell_angle_alpha                90
_cell_angle_beta                 90
_cell_angle_gamma                90
_cell_volume                     2251.65
loop_
_atom_site_label
_atom_site_type_symbol
_atom_site_fract_x
_atom_site_fract_y
_atom_site_fract_z
Cd1 Cd 0.35543(2) 0.71740(3) 0.21650(2)
S1 S 0.42554(8) 0.74593(12) 0.35852(6)
S2 S 0.41115(8) 0.43288(15) 0.39262(10)
N1 N 0.5575(2) 0.5556(3) 0.3483(2)
C1 C 0.4749(3) 0.5808(4) 0.3637(2)
C2 C 0.5830(3) 0.4081(4) 0.3629(3)
C3 C 0.5050(4) 0.3176(6) 0.3834(4)
S3 S 0.21371(7) 0.57326(11) 0.23870(6)
S4 S 0.20481(8) 0.62022(11) 0.04930(6)
N2 N 0.1553(2) 0.3906(3) 0.1239(2)
C4 C 0.1887(2) 0.5126(4) 0.1396(2)
C5 C 0.1248(3) 0.3755(4) 0.0354(2)
C6 C 0.1830(3) 0.4703(4) -0.0188(2)
H1 H 0.6258 0.4044 0.4112
H2 H 0.6122 0.3704 0.3109
H3 H 0.5151 0.2666 0.4380
H4 H 0.4949 0.2471 0.3373
H5 H 0.0614 0.4055 0.0306
H6 H 0.1308 0.2747 0.0168
H7 H 0.1510 0.5006 -0.0712
H8 H 0.2393 0.4211 -0.0347
Cd1C Cd 0.64457(2) 0.71740(3) 0.28350(2)
Cd1F Cd 0.14457(2) 0.21740(3) 0.21650(2)
N1C N 0.4425(2) 0.5556(3) 0.1517(2)
N2F N 0.3447(2) 0.8906(3) 0.1239(2)
loop_
_geom_bond_atom_site_label_1
_geom_bond_atom_site_label_2
_geom_bond_site_symmetry_1
_geom_bond_site_symmetry_2
Cd1 S1 1_555 1_555
S1 C1 1_555 1_555
S2 C1 1_555 1_555
N1 C1 1_555 1_555
C2 N1 1_555 1_555
C3 S2 1_555 1_555
S3 Cd1 1_555 1_555
S4 C4 1_555 1_555
N2 C4 1_555 1_555
C4 S3 1_555 1_555
C5 N2 1_555 1_555
C6 S4 1_555 1_555
H1 C2 1_555 1_555
H2 C2 1_555 1_555
H3 C3 1_555 1_555
H4 C3 1_555 1_555
H5 C5 1_555 1_555
H6 C5 1_555 1_555
H7 C6 1_555 1_555
H8 C6 1_555 1_555
Cd1C N1 1_555 1_555
Cd1F N2 1_555 1_555
N1C Cd1 1_555 1_555
N2F Cd1 1_555 1_555
C2 C3 1_555 1_555
C5 C6 1_555 1_555

#END
