
#######################################################################
#
#                 Cambridge Crystallographic Data Centre
#                                CCDC 
#
#######################################################################
#
# If this CIF has been generated from an entry in the Cambridge 
# Structural Database, then it will include bibliographic, chemical, 
# crystal, experimental, refinement or atomic coordinate data resulting 
# from the CCDC's data processing and validation procedures.
#
#######################################################################

data_FIYGUP
_symmetry_cell_setting           triclinic
_symmetry_space_group_name_H-M   'P -1'
_symmetry_Int_Tables_number      2
_space_group_name_Hall           '-P 1'
loop_
_symmetry_equiv_pos_site_id
_symmetry_equiv_pos_as_xyz
1 x,y,z
2 -x,-y,-z
_cell_length_a                   8.7667(16)
_cell_length_b                   16.655(4)
_cell_length_c                   5.8447(10)
_cell_angle_alpha                91.406(18)
_cell_angle_beta                 100.571(14)
_cell_angle_gamma                92.525(18)
_cell_volume                     837.621
loop_
_atom_site_label
_atom_site_type_symbol
_atom_site_fract_x
_atom_site_fract_y
_atom_site_fract_z
Cd1 Cd 0.19848(5) 0.25439(3) 0.38640(6)
S1 S 0.0955(2) 0.3829(1) 0.1288(2)
S2 S 0.2822(2) 0.1220(1) -0.3533(3)
N1 N 0.1148(6) 0.3170(3) -0.3065(7)
N2 N 0.2893(5) 0.1913(3) 0.0881(7)
C1 C 0.1087(6) 0.3440(3) -0.1267(9)
C2 C 0.2853(6) 0.1633(3) -0.0954(8)
N3 N 0.4463(5) 0.3213(3) 0.5089(8)
C3 C 0.5023(6) 0.3761(4) 0.3788(9)
C4 C 0.6422(6) 0.4190(3) 0.4442(10)
C5 C 0.7302(7) 0.4019(4) 0.6620(11)
C6 C 0.6752(7) 0.3448(4) 0.7948(10)
C7 C 0.5339(7) 0.3059(4) 0.7145(10)
C8 C 0.6981(8) 0.4829(4) 0.2933(12)
N4 N -0.0485(5) 0.1897(3) 0.2565(8)
C9 C -0.0759(7) 0.1370(4) 0.0798(10)
C10 C -0.2177(7) 0.0960(4) -0.0007(11)
C11 C -0.3340(7) 0.1127(4) 0.1156(14)
C12 C -0.3093(8) 0.1689(5) 0.2969(15)
C13 C -0.1645(7) 0.2053(4) 0.3639(12)
C14 C -0.2379(10) 0.0337(5) -0.2012(14)
H1 H 0.432 0.388 0.209
H2 H 0.843 0.434 0.723
H3 H 0.743 0.332 0.965
H4 H 0.491 0.260 0.821
H5 H 0.021 0.124 -0.010
H6 H -0.447 0.081 0.066
H7 H -0.405 0.183 0.390
H8 H -0.144 0.249 0.511
N1_2 N 0.1148(6) 0.3170(3) 0.6935(7)
Cd1_2 Cd 0.19848(5) 0.25439(3) -0.61360(6)
S2_2 S 0.2822(2) 0.1220(1) 0.6467(3)
loop_
_geom_bond_atom_site_label_1
_geom_bond_atom_site_label_2
_geom_bond_site_symmetry_1
_geom_bond_site_symmetry_2
Cd1 S1 1_555 1_555
S1 C1 1_555 1_555
S2 C2 1_555 1_555
N1 C1 1_555 1_555
N2 Cd1 1_555 1_555
C2 N2 1_555 1_555
N3 Cd1 1_555 1_555
C3 N3 1_555 1_555
C4 C3 1_555 1_555
C5 C4 1_555 1_555
C6 C5 1_555 1_555
C7 N3 1_555 1_555
C8 C4 1_555 1_555
N4 Cd1 1_555 1_555
C9 N4 1_555 1_555
C10 C9 1_555 1_555
C11 C10 1_555 1_555
C12 C11 1_555 1_555
C13 N4 1_555 1_555
C14 C10 1_555 1_555
H1 C3 1_555 1_555
H2 C5 1_555 1_555
H3 C6 1_555 1_555
H4 C7 1_555 1_555
H5 C9 1_555 1_555
H6 C11 1_555 1_555
H7 C12 1_555 1_555
H8 C13 1_555 1_555
N1_2 Cd1 1_555 1_555
Cd1_2 S2 1_555 1_555
S2_2 Cd1 1_555 1_555
N1 Cd1_2 1_555 1_555
C6 C7 1_555 1_555
C12 C13 1_555 1_555

#END
