
#######################################################################
#
#                 Cambridge Crystallographic Data Centre
#                                CCDC 
#
#######################################################################
#
# If this CIF has been generated from an entry in the Cambridge 
# Structural Database, then it will include bibliographic, chemical, 
# crystal, experimental, refinement or atomic coordinate data resulting 
# from the CCDC's data processing and validation procedures.
#
#######################################################################

data_FIYLEE
_symmetry_cell_setting           monoclinic
_symmetry_space_group_name_H-M   'C 2/m'
_symmetry_Int_Tables_number      12
_space_group_name_Hall           '-C 2y'
loop_
_symmetry_equiv_pos_site_id
_symmetry_equiv_pos_as_xyz
1 x,y,z
2 1/2+x,1/2+y,z
3 -x,y,-z
4 1/2-x,1/2+y,-z
5 -x,-y,-z
6 1/2-x,1/2-y,-z
7 x,-y,z
8 1/2+x,1/2-y,z
_cell_length_a                   11.174(2)
_cell_length_b                   17.426(2)
_cell_length_c                   6.560(1)
_cell_angle_alpha                90
_cell_angle_beta                 106.41(2)
_cell_angle_gamma                90
_cell_volume                     1225.32
loop_
_atom_site_label
_atom_site_type_symbol
_atom_site_fract_x
_atom_site_fract_y
_atom_site_fract_z
Sr1 Sr 0.3001(1) 0.0000 0.3398(1)
Br1 Br 0.0948(1) 0.1958(4) 0.8389(1)
O1 O 0.2308(4) 0.0981(2) 0.5763(7)
O2 O 0.3506(4) 0.1424(2) 0.3009(8)
C1 C 0.2361(6) 0.1691(3) 0.5471(10)
C2 C 0.3070(5) 0.1951(4) 0.3874(9)
C3 C 0.1835(6) 0.2263(3) 0.6468(9)
O3 O 0.2350(7) 0.0000 -0.0752(10)
O4 O 0.4744(6) 0.0000 0.7175(10)
O5 O 0.0545(8) 0.0000 0.2378(18)
O1F O 0.2308(4) -0.0981(2) 0.5763(7)
O2F O 0.3506(4) -0.1424(2) 0.3009(8)
O4B O 0.5256(6) 0.0000 0.2825(10)
C3E C 0.3165(6) 0.2737(3) 0.3532(9)
C2E C 0.1930(5) 0.3049(4) 0.6126(9)
Sr1B Sr 0.6999(1) 0.0000 0.6602(1)
Br1E Br 0.4052(1) 0.3042(4) 0.1611(1)
C1E C 0.2639(6) 0.3309(3) 0.4529(10)
O2E O 0.1494(4) 0.3576(2) 0.6991(8)
O1E O 0.2692(4) 0.4019(2) 0.4237(7)
Sr1C Sr 0.1999(1) 0.5000 0.6602(1)
O6 O 0.0000 0.3767(4) 0.0000
loop_
_geom_bond_atom_site_label_1
_geom_bond_atom_site_label_2
_geom_bond_site_symmetry_1
_geom_bond_site_symmetry_2
Sr1 O1 1_555 1_555
Br1 C3 1_555 1_555
O1 C1 1_555 1_555
O2 Sr1 1_555 1_555
C1 C2 1_555 1_555
C2 O2 1_555 1_555
C3 C1 1_555 1_555
O3 Sr1 1_555 1_555
O4 Sr1 1_555 1_555
O5 Sr1 1_555 1_555
O1F Sr1 1_555 1_555
O2F Sr1 1_555 1_555
O4B Sr1 1_555 1_555
C3E C2 1_555 1_555
C2E C3 1_555 1_555
Sr1B O4 1_555 1_555
Br1E C3E 1_555 1_555
C1E C3E 1_555 1_555
O2E C2E 1_555 1_555
O1E C1E 1_555 1_555
Sr1C O2E 1_555 1_555
O4B Sr1B 1_555 1_555
C2E C1E 1_555 1_555
O1E Sr1C 1_555 1_555

#END
