
#######################################################################
#
#                 Cambridge Crystallographic Data Centre
#                                CCDC 
#
#######################################################################
#
# If this CIF has been generated from an entry in the Cambridge 
# Structural Database, then it will include bibliographic, chemical, 
# crystal, experimental, refinement or atomic coordinate data resulting 
# from the CCDC's data processing and validation procedures.
#
#######################################################################

data_FIYMOQ
_symmetry_cell_setting           tetragonal
_symmetry_space_group_name_H-M   'P 43'
_symmetry_Int_Tables_number      78
_space_group_name_Hall           'P 4cw'
loop_
_symmetry_equiv_pos_site_id
_symmetry_equiv_pos_as_xyz
1 x,y,z
2 -x,-y,1/2+z
3 -y,x,3/4+z
4 y,-x,1/4+z
_cell_length_a                   8.4034(4)
_cell_length_b                   8.4034(4)
_cell_length_c                   34.933(3)
_cell_angle_alpha                90
_cell_angle_beta                 90
_cell_angle_gamma                90
_cell_volume                     2466.87
loop_
_atom_site_label
_atom_site_type_symbol
_atom_site_fract_x
_atom_site_fract_y
_atom_site_fract_z
Cd1 Cd -0.46103(4) -0.10215(4) 0.011800(6)
Nb1 Nb -0.46075(5) -0.60405(6) 0.011850(17)
F1 F -0.4716(4) -0.3740(3) 0.00940(14)
F2 F -0.5778(6) -0.5998(5) 0.05878(12)
F3 F -0.6545(4) -0.6126(4) -0.01685(12)
F4 F -0.3432(5) -0.6034(4) -0.03562(11)
F5 F -0.2647(5) -0.5915(5) 0.03908(12)
O1 O -0.4501(4) -0.8314(3) 0.01378(13)
N1 N -0.3943(5) -0.1004(5) -0.05282(12)
N2 N -0.4222(10) 0.1881(9) -0.1297(2)
H1 H -0.4078 0.1981 -0.1546
H2 H -0.4487 0.2715 -0.1159
N3 N -0.2016(5) -0.1296(5) 0.03485(11)
N4 N 0.1089(7) -0.4333(7) 0.0356(2)
H3 H 0.1952 -0.4610 0.0482
H4 H 0.0753 -0.4919 0.0163
N5 N -0.5272(5) -0.0997(5) 0.07675(13)
N6 N -0.5289(9) -0.3930(8) 0.1522(2)
H5 H -0.4997 -0.4774 0.1390
H6 H -0.5515 -0.4020 0.1767
N7 N -0.7203(5) -0.0796(5) -0.01113(12)
N8 N -1.0358(6) 0.2189(6) -0.01399(17)
H7 H -1.1200 0.2455 -0.0275
H8 H -1.0055 0.2787 0.0054
C1 C -0.4224(7) 0.0328(7) -0.07234(16)
H9 H -0.4566 0.1244 -0.0587
C2 C -0.4034(8) 0.0444(7) -0.11281(18)
C3 C -0.3625(9) -0.0908(8) -0.13207(16)
H10 H -0.3547 -0.0901 -0.1592
C4 C -0.3329(8) -0.2269(8) -0.11206(18)
H11 H -0.3015 -0.3206 -0.1252
C5 C -0.3483(7) -0.2290(7) -0.07299(17)
H12 H -0.3258 -0.3249 -0.0596
C6 C -0.1139(6) -0.2579(6) 0.02661(16)
H13 H -0.1486 -0.3258 0.0065
C7 C 0.0262(6) -0.2975(6) 0.04594(17)
C8 C 0.0706(6) -0.1990(8) 0.07572(19)
H14 H 0.1615 -0.2239 0.0908
C9 C -0.0174(7) -0.0645(8) 0.08348(17)
H15 H 0.0158 0.0064 0.1031
C10 C -0.1525(6) -0.0329(6) 0.06305(16)
H16 H -0.2128 0.0596 0.0689
C11 C -0.5036(6) -0.2365(6) 0.09627(14)
H17 H -0.4614 -0.3261 0.0832
C12 C -0.5392(7) -0.2497(7) 0.13479(17)
C13 C -0.5970(7) -0.1170(8) 0.15411(17)
H18 H -0.6229 -0.1232 0.1805
C14 C -0.6163(7) 0.0243(8) 0.13427(18)
H19 H -0.6522 0.1173 0.1471
C15 C -0.5828(6) 0.0287(7) 0.09556(16)
H20 H -0.5994 0.1249 0.0818
C16 C -0.8102(6) 0.0463(6) -0.00364(14)
H21 H -0.7767 0.1160 0.0162
C17 C -0.9515(6) 0.0837(6) -0.02307(16)
C18 C -0.9934(6) -0.0164(8) -0.0535(2)
H22 H -1.0834 0.0069 -0.0689
C19 C -0.9032(7) -0.1479(8) -0.06056(17)
H23 H -0.9345 -0.2194 -0.0802
C20 C -0.7685(6) -0.1788(6) -0.03989(16)
H24 H -0.7074 -0.2709 -0.0456
Cd1_2 Cd -0.46103(4) -1.10215(4) 0.011800(6)
O1_2 O -0.4501(4) 0.1686(3) 0.01378(13)
loop_
_geom_bond_atom_site_label_1
_geom_bond_atom_site_label_2
_geom_bond_site_symmetry_1
_geom_bond_site_symmetry_2
Cd1 F1 1_555 1_555
Nb1 F1 1_555 1_555
F2 Nb1 1_555 1_555
F3 Nb1 1_555 1_555
F4 Nb1 1_555 1_555
F5 Nb1 1_555 1_555
O1 Nb1 1_555 1_555
N1 Cd1 1_555 1_555
N2 H1 1_555 1_555
H2 N2 1_555 1_555
N3 Cd1 1_555 1_555
N4 H3 1_555 1_555
H4 N4 1_555 1_555
N5 Cd1 1_555 1_555
N6 H5 1_555 1_555
H6 N6 1_555 1_555
N7 Cd1 1_555 1_555
N8 H7 1_555 1_555
H8 N8 1_555 1_555
C1 N1 1_555 1_555
H9 C1 1_555 1_555
C2 N2 1_555 1_555
C3 C2 1_555 1_555
H10 C3 1_555 1_555
C4 C3 1_555 1_555
H11 C4 1_555 1_555
C5 N1 1_555 1_555
H12 C5 1_555 1_555
C6 N3 1_555 1_555
H13 C6 1_555 1_555
C7 N4 1_555 1_555
C8 C7 1_555 1_555
H14 C8 1_555 1_555
C9 C8 1_555 1_555
H15 C9 1_555 1_555
C10 N3 1_555 1_555
H16 C10 1_555 1_555
C11 N5 1_555 1_555
H17 C11 1_555 1_555
C12 N6 1_555 1_555
C13 C12 1_555 1_555
H18 C13 1_555 1_555
C14 C13 1_555 1_555
H19 C14 1_555 1_555
C15 N5 1_555 1_555
H20 C15 1_555 1_555
C16 N7 1_555 1_555
H21 C16 1_555 1_555
C17 N8 1_555 1_555
C18 C17 1_555 1_555
H22 C18 1_555 1_555
C19 C18 1_555 1_555
H23 C19 1_555 1_555
C20 N7 1_555 1_555
H24 C20 1_555 1_555
Cd1_2 O1 1_555 1_555
O1_2 Cd1 1_555 1_555
C1 C2 1_555 1_555
C4 C5 1_555 1_555
C6 C7 1_555 1_555
C9 C10 1_555 1_555
C11 C12 1_555 1_555
C14 C15 1_555 1_555
C16 C17 1_555 1_555
C19 C20 1_555 1_555

#END
