
#######################################################################
#
#                 Cambridge Crystallographic Data Centre
#                                CCDC 
#
#######################################################################
#
# If this CIF has been generated from an entry in the Cambridge 
# Structural Database, then it will include bibliographic, chemical, 
# crystal, experimental, refinement or atomic coordinate data resulting 
# from the CCDC's data processing and validation procedures.
#
#######################################################################

data_FIYZET
_symmetry_cell_setting           monoclinic
_symmetry_space_group_name_H-M   'P 21/c'
_symmetry_Int_Tables_number      14
_space_group_name_Hall           '-P 2ybc'
loop_
_symmetry_equiv_pos_site_id
_symmetry_equiv_pos_as_xyz
1 x,y,z
2 -x,1/2+y,1/2-z
3 -x,-y,-z
4 x,1/2-y,1/2+z
_cell_length_a                   8.954(2)
_cell_length_b                   8.220(1)
_cell_length_c                   20.057(3)
_cell_angle_alpha                90
_cell_angle_beta                 105.106(7)
_cell_angle_gamma                90
_cell_volume                     1425.22
loop_
_atom_site_label
_atom_site_type_symbol
_atom_site_fract_x
_atom_site_fract_y
_atom_site_fract_z
Ag1 Ag 0.30058(5) 0.31701(5) 0.89392(2)
O1 O 0.0870(7) 0.4507(7) 0.8187(3)
O2 O 0.425(1) 0.1672(10) 0.8252(5)
C1 C 0.0325(6) 0.2255(6) 1.0018(3)
C2 C 0.1692(6) 0.1954(6) 1.0543(3)
C3 C 0.2913(6) 0.1163(7) 1.0375(3)
C4 C 0.2825(6) 0.0627(7) 0.9709(3)
C5 C 0.1454(6) 0.0879(6) 0.9190(3)
C6 C 0.0244(6) 0.1697(6) 0.9351(3)
C7 C 0.1839(6) 0.2462(8) 1.1282(3)
C8 C -0.1023(6) 0.3056(6) 1.0176(3)
C9 C -0.2279(6) 0.3580(6) 0.9710(3)
C10 C -0.4746(5) 0.5112(6) 0.9348(2)
C11 C -0.3645(5) 0.4279(5) 0.9870(2)
C12 C -0.3932(5) 0.4184(6) 1.0525(2)
H1 H 0.3840 0.0982 1.0727
H2 H 0.3680 0.0096 0.9606
H3 H 0.1357 0.0495 0.8734
H4 H -0.0675 0.1885 0.8996
H5 H 0.2009 0.1528 1.1570
H6 H 0.2686 0.3189 1.1427
H7 H 0.0914 0.2989 1.1312
H8 H -0.0989 0.3209 1.0649
H9 H -0.2288 0.3492 0.9237
H10 H -0.4583 0.5195 0.8900
H11 H -0.3216 0.3632 1.0889
H12 H 0.1222 0.5484 0.8014
H13 H 0.0409 0.3801 0.7808
H14 H 0.4823 0.0803 0.8518
H15 H 0.4937 0.2372 0.8089
Ag1B Ag -1.30058(5) 0.68299(5) 1.10608(2)
Ag1_2 Ag -0.69942(5) 0.31701(5) 0.89392(2)
Ag1B_2 Ag -0.30058(5) 0.68299(5) 1.10608(2)
O1B O -1.0870(7) 0.5493(7) 1.1813(3)
O2B O -1.425(1) 0.8328(10) 1.1748(5)
C1B C -1.0325(6) 0.7745(6) 0.9982(3)
C2B C -1.1692(6) 0.8046(6) 0.9457(3)
C3B C -1.2913(6) 0.8837(7) 0.9625(3)
C4B C -1.2825(6) 0.9373(7) 1.0291(3)
C5B C -1.1454(6) 0.9121(6) 1.0810(3)
C6B C -1.0244(6) 0.8303(6) 1.0649(3)
C7B C -1.1839(6) 0.7538(8) 0.8718(3)
C8B C -0.8977(6) 0.6944(6) 0.9824(3)
C9B C -0.7721(6) 0.6420(6) 1.0290(3)
C10B C -0.5254(5) 0.4888(6) 1.0652(2)
C10_2 C 0.5254(5) 0.5112(6) 0.9348(2)
C10B_2 C -1.5254(5) 0.4888(6) 1.0652(2)
C11B C -0.6355(5) 0.5721(5) 1.0130(2)
C12B C -0.6068(5) 0.5816(6) 0.9475(2)
C12B_2 C 0.3932(5) 0.5816(6) 0.9475(2)
C12_2 C -1.3932(5) 0.4184(6) 1.0525(2)
H1B H -1.3840 0.9018 0.9273
H2B H -1.3680 0.9904 1.0394
H3B H -1.1357 0.9505 1.1266
H4B H -0.9325 0.8115 1.1004
H5B H -1.2009 0.8472 0.8430
H6B H -1.2686 0.6811 0.8573
H7B H -1.0914 0.7011 0.8688
H8B H -0.9011 0.6791 0.9351
H9B H -0.7712 0.6508 1.0763
H10B H -0.5417 0.4805 1.1100
H10_2 H 0.5417 0.5195 0.8900
H10B_2 H -1.5417 0.4805 1.1100
H11B H -0.6784 0.6368 0.9111
H11B_2 H 0.3216 0.6368 0.9111
H11_2 H -1.3216 0.3632 1.0889
H12B H -1.1222 0.4516 1.1986
H13B H -1.0409 0.6199 1.2192
H14B H -1.4823 0.9197 1.1482
H15B H -1.4937 0.7628 1.1911
F1 F -0.3778(6) 0.1287(8) 0.7217(3)
F2 F -0.1380(7) 0.2118(9) 0.7628(4)
F3 F -0.3264(7) 0.3490(7) 0.7914(3)
F4 F -0.300(1) 0.3563(8) 0.6824(3)
B1 B -0.2869(8) 0.265(1) 0.7390(4)
loop_
_geom_bond_atom_site_label_1
_geom_bond_atom_site_label_2
_geom_bond_site_symmetry_1
_geom_bond_site_symmetry_2
Ag1 O1 1_555 1_555
F1 B1 1_555 1_555
F2 B1 1_555 1_555
F3 B1 1_555 1_555
F4 B1 1_555 1_555
O1 H12 1_555 1_555
O2 Ag1 1_555 1_555
C1 C2 1_555 1_555
C2 C3 1_555 1_555
C3 C4 1_555 1_555
C4 Ag1 1_555 1_555
C5 Ag1 1_555 1_555
C6 C1 1_555 1_555
C7 C2 1_555 1_555
C8 C1 1_555 1_555
C9 C8 1_555 1_555
C10 C11 1_555 1_555
C11 C9 1_555 1_555
C12 C11 1_555 1_555
H1 C3 1_555 1_555
H2 C4 1_555 1_555
H3 C5 1_555 1_555
H4 C6 1_555 1_555
H5 C7 1_555 1_555
H6 C7 1_555 1_555
H7 C7 1_555 1_555
H8 C8 1_555 1_555
H9 C9 1_555 1_555
H10 C10 1_555 1_555
H11 C12 1_555 1_555
H13 O1 1_555 1_555
H14 O2 1_555 1_555
H15 O2 1_555 1_555
Ag1B O1B 1_555 1_555
Ag1_2 C10 1_555 1_555
Ag1B_2 C12 1_555 1_555
O1B H12B 1_555 1_555
O2B Ag1B 1_555 1_555
C1B C2B 1_555 1_555
C2B C3B 1_555 1_555
C3B C4B 1_555 1_555
C4B Ag1B 1_555 1_555
C5B Ag1B 1_555 1_555
C6B C1B 1_555 1_555
C7B C2B 1_555 1_555
C8B C1B 1_555 1_555
C9B C8B 1_555 1_555
C10B C12 1_555 1_555
C10_2 Ag1 1_555 1_555
C10B_2 Ag1B 1_555 1_555
C11B C9B 1_555 1_555
C12B C10 1_555 1_555
C12B_2 Ag1 1_555 1_555
C12_2 Ag1B 1_555 1_555
H1B C3B 1_555 1_555
H2B C4B 1_555 1_555
H3B C5B 1_555 1_555
H4B C6B 1_555 1_555
H5B C7B 1_555 1_555
H6B C7B 1_555 1_555
H7B C7B 1_555 1_555
H8B C8B 1_555 1_555
H9B C9B 1_555 1_555
H10B C10B 1_555 1_555
H10_2 C10_2 1_555 1_555
H10B_2 C10B_2 1_555 1_555
H11B C12B 1_555 1_555
H11B_2 C12B_2 1_555 1_555
H11_2 C12_2 1_555 1_555
H13B O1B 1_555 1_555
H14B O2B 1_555 1_555
H15B O2B 1_555 1_555
C4 C5 1_555 1_555
C5 C6 1_555 1_555
Ag1_2 C12B 1_555 1_555
Ag1B_2 C10B 1_555 1_555
C4B C5B 1_555 1_555
C5B C6B 1_555 1_555
C10B C11B 1_555 1_555
C10_2 C12B_2 1_555 1_555
C10B_2 C12_2 1_555 1_555
C11B C12B 1_555 1_555

#END
