
#######################################################################
#
#                 Cambridge Crystallographic Data Centre
#                                CCDC 
#
#######################################################################
#
# If this CIF has been generated from an entry in the Cambridge 
# Structural Database, then it will include bibliographic, chemical, 
# crystal, experimental, refinement or atomic coordinate data resulting 
# from the CCDC's data processing and validation procedures.
#
#######################################################################

data_FIZSUE
_symmetry_cell_setting           orthorhombic
_symmetry_space_group_name_H-M   'P 21 21 21'
_symmetry_Int_Tables_number      19
_space_group_name_Hall           'P 2ac 2ab'
loop_
_symmetry_equiv_pos_site_id
_symmetry_equiv_pos_as_xyz
1 x,y,z
2 1/2-x,-y,1/2+z
3 -x,1/2+y,1/2-z
4 1/2+x,1/2-y,-z
_cell_length_a                   11.7527(2)
_cell_length_b                   11.8972(2)
_cell_length_c                   13.3762(2)
_cell_angle_alpha                90
_cell_angle_beta                 90
_cell_angle_gamma                90
_cell_volume                     1870.32
loop_
_atom_site_label
_atom_site_type_symbol
_atom_site_fract_x
_atom_site_fract_y
_atom_site_fract_z
I1 I 0.33089(8) 0.15954(8) 0.70024(7)
I2 I 0.45367(8) 0.40737(8) 0.93427(7)
I3 I 0.31220(8) 0.08902(8) 1.02379(6)
I4 I 0.64840(7) 0.09159(8) 0.85351(7)
Cu1 Cu 0.5080(2) 0.25723(18) 0.79204(17)
Cu2 Cu 0.3056(2) 0.24792(19) 0.88258(17)
Cu3 Cu 0.4278(2) 0.05271(19) 0.85353(17)
Cu4 Cu 0.5042(2) 0.20111(19) 0.98356(17)
S1 S 0.6017(3) 0.3627(3) 0.6720(3)
C1 C 0.5937(12) 0.2861(13) 0.5554(12)
H1 H 0.5225 0.2418 0.5515
H2 H 0.5972 0.3379 0.4976
C2 C 0.6978(12) 0.2089(14) 0.5578(13)
H3 H 0.7133 0.1776 0.4906
H4 H 0.6858 0.1459 0.6051
C3 C 0.7971(13) 0.2841(13) 0.5928(11)
H5 H 0.8654 0.2383 0.6075
H6 H 0.8167 0.3401 0.5408
C4 C 0.7536(13) 0.3425(13) 0.6878(11)
H7 H 0.7921 0.4158 0.6969
H8 H 0.7689 0.2953 0.7473
S2 S 0.1230(3) 0.3230(3) 0.8815(3)
C5 C 0.0487(14) 0.2920(12) 0.7646(11)
H9 H 0.0794 0.2229 0.7335
H10 H -0.0338 0.2818 0.7766
C6 C 0.0705(14) 0.3945(12) 0.6978(11)
H11 H 0.1482 0.3916 0.6693
H12 H 0.0149 0.3968 0.6422
C7 C 0.0568(14) 0.4977(13) 0.7653(11)
H13 H -0.0239 0.5079 0.7845
H14 H 0.0832 0.5663 0.7306
C8 C 0.1308(14) 0.4739(13) 0.8584(11)
H15 H 0.1015 0.5161 0.9168
H16 H 0.2105 0.4969 0.8461
Cu3B Cu 0.5722(2) 0.55271(19) 0.64647(17)
Cu4C Cu 0.0042(2) 0.29889(19) 1.01644(17)
S1B S 0.3983(3) -0.1373(3) 0.8280(3)
S2C S 0.6230(3) 0.1770(3) 1.1185(3)
loop_
_geom_bond_atom_site_label_1
_geom_bond_atom_site_label_2
_geom_bond_site_symmetry_1
_geom_bond_site_symmetry_2
I1 Cu1 1_555 1_555
I2 Cu1 1_555 1_555
I3 Cu2 1_555 1_555
I4 Cu1 1_555 1_555
Cu1 S1 1_555 1_555
Cu2 I1 1_555 1_555
Cu3 I1 1_555 1_555
Cu4 I2 1_555 1_555
S1 C1 1_555 1_555
C1 H1 1_555 1_555
H2 C1 1_555 1_555
C2 C1 1_555 1_555
H3 C2 1_555 1_555
H4 C2 1_555 1_555
C3 C2 1_555 1_555
H5 C3 1_555 1_555
H6 C3 1_555 1_555
C4 S1 1_555 1_555
H7 C4 1_555 1_555
H8 C4 1_555 1_555
S2 Cu2 1_555 1_555
C5 S2 1_555 1_555
H9 C5 1_555 1_555
H10 C5 1_555 1_555
C6 C5 1_555 1_555
H11 C6 1_555 1_555
H12 C6 1_555 1_555
C7 C6 1_555 1_555
H13 C7 1_555 1_555
H14 C7 1_555 1_555
C8 S2 1_555 1_555
H15 C8 1_555 1_555
H16 C8 1_555 1_555
Cu3B S1 1_555 1_555
Cu4C S2 1_555 1_555
S1B Cu3 1_555 1_555
S2C Cu4 1_555 1_555
I2 Cu2 1_555 1_555
I3 Cu3 1_555 1_555
I3 Cu4 1_555 1_555
I4 Cu3 1_555 1_555
I4 Cu4 1_555 1_555
C3 C4 1_555 1_555
C7 C8 1_555 1_555

#END
