
#######################################################################
#
#                 Cambridge Crystallographic Data Centre
#                                CCDC 
#
#######################################################################
#
# If this CIF has been generated from an entry in the Cambridge 
# Structural Database, then it will include bibliographic, chemical, 
# crystal, experimental, refinement or atomic coordinate data resulting 
# from the CCDC's data processing and validation procedures.
#
#######################################################################

data_FIZTEO
_symmetry_cell_setting           orthorhombic
_symmetry_space_group_name_H-M   'P c a 21'
_symmetry_Int_Tables_number      29
_space_group_name_Hall           'P 2c -2ac'
loop_
_symmetry_equiv_pos_site_id
_symmetry_equiv_pos_as_xyz
1 x,y,z
2 -x,-y,1/2+z
3 1/2-x,y,1/2+z
4 1/2+x,-y,z
_cell_length_a                   7.644(5)
_cell_length_b                   12.638(8)
_cell_length_c                   21.48(1)
_cell_angle_alpha                90
_cell_angle_beta                 90
_cell_angle_gamma                90
_cell_volume                     2075.07
loop_
_atom_site_label
_atom_site_type_symbol
_atom_site_fract_x
_atom_site_fract_y
_atom_site_fract_z
Cd1 Cd 0.41031(8) 0.07767(12) 0.16986(11)
Cl1 Cl 0.4338(4) 0.2632(4) 0.2199(2)
Cl2 Cl 0.1754(3) -0.0066(3) 0.2356(2)
O1 O 0.6000(11) 0.1153(11) 0.0947(5)
O2 O 0.2256(13) 0.1306(11) 0.0893(5)
O3 O -0.0512(12) 0.1017(11) 0.1151(5)
N1 N 0.118(1) 0.2310(9) -0.0193(5)
C1 C 0.066(1) 0.133(2) 0.0772(9)
C2 C 0.0086(12) 0.1528(8) 0.0084(6)
C3 C 0.018(2) 0.0475(13) -0.0300(8)
C4 C -0.022(2) 0.065(1) -0.0979(6)
C5 C 0.088(2) 0.152(2) -0.1202(8)
C6 C 0.081(2) 0.257(1) -0.0851(8)
Cd1C Cd -0.08969(8) -0.07767(12) 0.16986(11)
Cl2C Cl 0.6754(3) 0.0066(3) 0.2356(2)
O3C O 0.4488(12) -0.1017(11) 0.1151(5)
Cd2 Cd -0.42334(8) 0.42202(12) 0.01794(11)
Cl3 Cl -0.4493(5) 0.2391(4) -0.0316(2)
Cl4 Cl -0.1898(4) 0.5056(3) -0.0479(2)
O4 O -0.6149(13) 0.3826(10) 0.0982(6)
O5 O -0.2404(10) 0.3645(9) 0.1002(5)
O6 O 0.0437(13) 0.3954(9) 0.0728(5)
N2 N -0.1388(13) 0.2623(9) 0.2066(6)
C7 C -0.0819(12) 0.376(2) 0.1109(8)
C8 C -0.026(2) 0.3516(11) 0.1763(8)
C9 C -0.035(2) 0.4500(10) 0.2152(6)
C10 C 0.009(2) 0.429(2) 0.2836(9)
C11 C -0.109(2) 0.351(1) 0.3140(8)
C12 C -0.098(2) 0.251(2) 0.2774(7)
Cd2C Cd 0.07666(8) 0.57798(12) 0.01794(11)
Cl4C Cl -0.6898(4) 0.4944(3) -0.0479(2)
O6C O -0.4563(13) 0.6046(9) 0.0728(5)
loop_
_geom_bond_atom_site_label_1
_geom_bond_atom_site_label_2
_geom_bond_site_symmetry_1
_geom_bond_site_symmetry_2
Cd1 Cl1 1_555 1_555
Cd2 Cl3 1_555 1_555
Cl2 Cd1 1_555 1_555
Cl4 Cd2 1_555 1_555
O1 Cd1 1_555 1_555
O2 Cd1 1_555 1_555
O3 C1 1_555 1_555
O4 Cd2 1_555 1_555
O5 Cd2 1_555 1_555
O6 C7 1_555 1_555
N1 C2 1_555 1_555
N2 C8 1_555 1_555
C1 O2 1_555 1_555
C2 C1 1_555 1_555
C3 C2 1_555 1_555
C4 C3 1_555 1_555
C5 C4 1_555 1_555
C6 N1 1_555 1_555
C7 O5 1_555 1_555
C8 C7 1_555 1_555
C9 C8 1_555 1_555
C10 C9 1_555 1_555
C11 C10 1_555 1_555
C12 N2 1_555 1_555
Cd1C Cl2 1_555 1_555
Cd2C Cl4 1_555 1_555
Cl2C Cd1 1_555 1_555
Cl4C Cd2 1_555 1_555
O3C Cd1 1_555 1_555
O6C Cd2 1_555 1_555
O3 Cd1C 1_555 1_555
O6 Cd2C 1_555 1_555
C5 C6 1_555 1_555
C11 C12 1_555 1_555

#END
