
#######################################################################
#
#                 Cambridge Crystallographic Data Centre
#                                CCDC 
#
#######################################################################
#
# If this CIF has been generated from an entry in the Cambridge 
# Structural Database, then it will include bibliographic, chemical, 
# crystal, experimental, refinement or atomic coordinate data resulting 
# from the CCDC's data processing and validation procedures.
#
#######################################################################

data_FIZXIX
_symmetry_cell_setting           orthorhombic
_symmetry_space_group_name_H-M   'P b c n'
_symmetry_Int_Tables_number      60
_space_group_name_Hall           '-P 2n 2ab'
loop_
_symmetry_equiv_pos_site_id
_symmetry_equiv_pos_as_xyz
1 x,y,z
2 1/2-x,1/2-y,1/2+z
3 -x,y,1/2-z
4 1/2+x,1/2-y,-z
5 -x,-y,-z
6 1/2+x,1/2+y,1/2-z
7 x,-y,1/2+z
8 1/2-x,1/2+y,z
_cell_length_a                   24.729(5)
_cell_length_b                   9.3762(19)
_cell_length_c                   22.271(5)
_cell_angle_alpha                90
_cell_angle_beta                 90
_cell_angle_gamma                90
_cell_volume                     5163.84
loop_
_atom_site_label
_atom_site_type_symbol
_atom_site_fract_x
_atom_site_fract_y
_atom_site_fract_z
Mn1 Mn 0.43211(2) 0.97997(6) 1.02088(2)
S1 S 0.42729(4) 0.75314(9) 0.77006(4)
S2 S 0.53124(4) 0.83574(9) 1.10525(4)
O1 O 0.51657(9) 0.9205(2) 1.04979(10)
O2 O 0.49028(10) 0.7254(3) 1.11410(11)
O3 O 0.53163(11) 0.9342(3) 1.15683(11)
O4 O 0.58492(10) 0.7740(3) 1.09633(11)
O5 O 0.39320(10) 0.8754(3) 1.09592(11)
H1 H 0.4148 0.8218 1.1124
O6 O 0.35677(10) 1.0631(3) 0.98325(12)
H2 H 0.3408 0.9990 0.9655
N1 N 0.42308(11) 0.7848(3) 0.96567(13)
N2 N 0.42211(11) 0.6521(3) 0.88380(12)
N3 N 0.43643(11) 0.6771(3) 0.65287(13)
N4 N 0.43643(11) 0.8212(3) 0.57478(12)
C1 C 0.43054(14) 0.7843(4) 0.90709(16)
H3 H 0.4403 0.8639 0.8846
C2 C 0.40921(15) 0.6466(4) 0.98027(16)
H4 H 0.4011 0.6154 1.0189
C3 C 0.40901(14) 0.5623(4) 0.93073(15)
H5 H 0.4017 0.4651 0.9288
C4 C 0.42595(13) 0.6159(4) 0.82209(14)
C5 C 0.42894(14) 0.4855(4) 0.79664(16)
H6 H 0.4289 0.4007 0.8183
C6 C 0.43218(13) 0.4925(4) 0.73280(15)
H7 H 0.4343 0.4130 0.7080
C7 C 0.43187(13) 0.6281(4) 0.71271(15)
C8 C 0.42965(13) 0.8126(4) 0.63335(15)
H8 H 0.4213 0.8896 0.6580
C9 C 0.44878(14) 0.5946(4) 0.60361(15)
H9 H 0.4560 0.4973 0.6031
C10 C 0.44824(14) 0.6845(4) 0.55614(16)
H10 H 0.4549 0.6579 0.5166
H11 H 0.3648(12) 0.823(4) 1.096(2)
H12 H 0.3684(17) 1.114(4) 0.9579(15)
Mn1D Mn 0.56789(2) 1.02003(6) 0.97912(2)
Mn1F Mn 0.43211(2) 1.02003(6) 0.52088(2)
O1D O 0.48343(9) 1.0795(2) 0.95021(10)
N4F N 0.43643(11) 1.1788(3) 1.07478(12)
S3 S 0.28349(4) 0.62981(11) 0.75167(4)
N5 N 0.28583(13) 0.8894(4) 0.92120(15)
N6 N 0.24357(11) 0.7711(3) 0.84965(13)
N7 N 0.25619(12) 0.4418(3) 0.66349(13)
N8 N 0.30562(13) 0.2975(3) 0.60703(14)
C11 C 0.29068(16) 0.7987(5) 0.8769(2)
H13 H 0.3234 0.7578 0.8656
C12 C 0.23212(16) 0.9215(5) 0.92278(18)
H14 H 0.2160 0.9835 0.9500
C13 C 0.20576(16) 0.8504(5) 0.87908(18)
H15 H 0.1690 0.8546 0.8707
C14 C 0.23263(14) 0.6772(4) 0.80142(16)
C15 C 0.18482(15) 0.6161(4) 0.78802(17)
H16 H 0.1532 0.6311 0.8097
C16 C 0.18833(15) 0.5263(4) 0.73699(17)
H17 H 0.1591 0.4761 0.7213
C17 C 0.23822(15) 0.5214(4) 0.71377(17)
C18 C 0.30276(15) 0.3659(4) 0.65821(17)
H18 H 0.3295 0.3629 0.6875
C19 C 0.22704(15) 0.4167(4) 0.61127(17)
H19 H 0.1933 0.4535 0.6013
C20 C 0.25785(16) 0.3279(4) 0.57795(17)
H20 H 0.2481 0.2922 0.5405
O7 O 0.43337(12) 0.8872(4) 0.22515(14)
H21 H 0.4620(14) 0.882(6) 0.204(2)
H22 H 0.446(2) 0.894(6) 0.2608(13)
loop_
_geom_bond_atom_site_label_1
_geom_bond_atom_site_label_2
_geom_bond_site_symmetry_1
_geom_bond_site_symmetry_2
Mn1 O1 1_555 1_555
S1 C4 1_555 1_555
S2 O1 1_555 1_555
O1 Mn1D 1_555 1_555
O2 S2 1_555 1_555
O3 S2 1_555 1_555
O4 S2 1_555 1_555
O5 Mn1 1_555 1_555
H1 O5 1_555 1_555
O6 Mn1 1_555 1_555
H2 O6 1_555 1_555
N1 Mn1 1_555 1_555
N2 C1 1_555 1_555
N3 C7 1_555 1_555
N4 C8 1_555 1_555
C1 N1 1_555 1_555
H3 C1 1_555 1_555
C2 N1 1_555 1_555
H4 C2 1_555 1_555
C3 N2 1_555 1_555
H5 C3 1_555 1_555
C4 N2 1_555 1_555
C5 C4 1_555 1_555
H6 C5 1_555 1_555
C6 C5 1_555 1_555
H7 C6 1_555 1_555
C7 S1 1_555 1_555
C8 N3 1_555 1_555
H8 C8 1_555 1_555
C9 N3 1_555 1_555
H9 C9 1_555 1_555
C10 N4 1_555 1_555
H10 C10 1_555 1_555
H11 O5 1_555 1_555
H12 O6 1_555 1_555
S3 C14 1_555 1_555
N5 C11 1_555 1_555
N6 C11 1_555 1_555
N7 C17 1_555 1_555
N8 C18 1_555 1_555
C11 H13 1_555 1_555
C12 N5 1_555 1_555
H14 C12 1_555 1_555
C13 N6 1_555 1_555
H15 C13 1_555 1_555
C14 N6 1_555 1_555
C15 C14 1_555 1_555
H16 C15 1_555 1_555
C16 C15 1_555 1_555
H17 C16 1_555 1_555
C17 S3 1_555 1_555
C18 N7 1_555 1_555
H18 C18 1_555 1_555
C19 N7 1_555 1_555
H19 C19 1_555 1_555
C20 N8 1_555 1_555
H20 C20 1_555 1_555
O7 H21 1_555 1_555
H22 O7 1_555 1_555
Mn1D O1D 1_555 1_555
Mn1F N4 1_555 1_555
O1D Mn1 1_555 1_555
N4F Mn1 1_555 1_555
C2 C3 1_555 1_555
C6 C7 1_555 1_555
C9 C10 1_555 1_555
C12 C13 1_555 1_555
C16 C17 1_555 1_555
C19 C20 1_555 1_555

#END
