
#######################################################################
#
#                 Cambridge Crystallographic Data Centre
#                                CCDC 
#
#######################################################################
#
# If this CIF has been generated from an entry in the Cambridge 
# Structural Database, then it will include bibliographic, chemical, 
# crystal, experimental, refinement or atomic coordinate data resulting 
# from the CCDC's data processing and validation procedures.
#
#######################################################################

data_FOBFUZ
_symmetry_cell_setting           monoclinic
_symmetry_space_group_name_H-M   'C 2/c'
_symmetry_Int_Tables_number      15
_space_group_name_Hall           '-C 2yn'
loop_
_symmetry_equiv_pos_site_id
_symmetry_equiv_pos_as_xyz
1 x,y,z
2 -x,y,1/2-z
3 1/2+x,1/2+y,z
4 1/2-x,1/2+y,1/2-z
5 -x,-y,-z
6 x,-y,1/2+z
7 1/2-x,1/2-y,-z
8 1/2+x,1/2-y,1/2+z
_cell_length_a                   23.798(8)
_cell_length_b                   19.705(8)
_cell_length_c                   13.445(5)
_cell_angle_alpha                90
_cell_angle_beta                 112.564(8)
_cell_angle_gamma                90
_cell_volume                     5822.26
loop_
_atom_site_label
_atom_site_type_symbol
_atom_site_fract_x
_atom_site_fract_y
_atom_site_fract_z
Zn1 Zn 0.348665(16) 0.34316(2) -0.24999(3)
Zn2 Zn 0.407223(17) 0.18925(2) -0.19783(3)
N1 N 0.57763(12) 0.59356(14) 0.1825(2)
N2 N 0.36211(12) 0.52050(13) -0.0009(2)
N3 N 0.16071(12) 0.62376(15) -0.2159(2)
O1 O 0.34152(11) 0.30931(12) -0.11545(19)
O2 O 0.38723(13) 0.20952(14) -0.0711(2)
O3 O 0.47488(10) 0.12818(14) -0.1422(2)
O4 O 0.53674(13) 0.21658(15) -0.0909(3)
O5 O 0.75655(14) 0.1738(2) 0.1393(3)
O6 O 0.78637(14) 0.0720(2) 0.1895(3)
C1 C 0.57785(14) 0.52593(18) 0.1862(3)
H1 H 0.6150 0.5036 0.2176
C2 C 0.52553(14) 0.48773(16) 0.1457(3)
H2 H 0.5278 0.4406 0.1499
C3 C 0.46958(14) 0.51940(16) 0.0985(3)
C4 C 0.46997(16) 0.58947(17) 0.0924(3)
H3 H 0.4336 0.6129 0.0595
C5 C 0.52367(16) 0.62447(19) 0.1347(3)
H4 H 0.5227 0.6716 0.1300
C6 C 0.41016(14) 0.48317(16) 0.0591(2)
C7 C 0.40418(14) 0.41682(16) 0.0859(3)
H5 H 0.4385 0.3911 0.1239
C8 C 0.34688(14) 0.38868(16) 0.0560(3)
C9 C 0.29753(15) 0.42789(16) -0.0042(3)
H6 H 0.2583 0.4106 -0.0254
C10 C 0.30680(14) 0.49299(16) -0.0328(3)
C11 C 0.15216(15) 0.55674(18) -0.2131(3)
H7 H 0.1136 0.5391 -0.2516
C12 C 0.19781(16) 0.51343(18) -0.1560(3)
H8 H 0.1899 0.4672 -0.1559
C13 C 0.25574(14) 0.53762(16) -0.0984(3)
C14 C 0.26447(15) 0.60682(18) -0.1007(3)
H9 H 0.3027 0.6254 -0.0628
C15 C 0.21664(16) 0.64827(19) -0.1588(4)
H10 H 0.2232 0.6948 -0.1587
C16 C 0.33859(14) 0.31950(16) 0.0942(3)
C17 C 0.32396(19) 0.3158(2) 0.1845(3)
H11 H 0.3177 0.3556 0.2158
C18 C 0.3185(2) 0.2543(2) 0.2286(4)
H12 H 0.3075 0.2525 0.2878
C19 C 0.3297(2) 0.1957(2) 0.1839(4)
H13 H 0.3275 0.1540 0.2146
C20 C 0.34380(19) 0.19842(19) 0.0947(3)
H14 H 0.3510 0.1583 0.0652
C21 C 0.34770(14) 0.25983(16) 0.0472(3)
C22 C 0.35989(14) 0.26017(17) -0.0546(3)
C23 C 0.52691(17) 0.1550(2) -0.0932(3)
C24 C 0.57737(15) 0.10576(19) -0.0358(3)
C25 C 0.56611(16) 0.0367(2) -0.0372(3)
H15 H 0.5271 0.0203 -0.0755
C26 C 0.61211(18) -0.0077(2) 0.0177(3)
H16 H 0.6042 -0.0539 0.0172
C27 C 0.67016(17) 0.0168(2) 0.0737(3)
H17 H 0.7013 -0.0134 0.1105
C28 C 0.68264(16) 0.0852(2) 0.0757(3)
C29 C 0.63629(14) 0.1298(2) 0.0219(3)
H18 H 0.6442 0.1761 0.0239
C30 C 0.74580(17) 0.1124(3) 0.1384(3)
O7 O 0.38929(11) 0.26761(13) -0.2874(2)
H19 H 0.4108(15) 0.268(2) -0.318(3)
Zn1D Zn 0.651335(16) 0.65684(2) 0.24999(3)
Zn1G Zn 0.848665(16) 0.15684(2) 0.25001(3)
Zn2C Zn 0.092777(17) 0.68925(2) -0.30217(3)
N1D N 0.42237(12) 0.40644(14) -0.1825(2)
N3C N 0.33929(12) 0.12376(15) -0.2841(2)
O5G O 0.25655(14) 0.3262(2) -0.3607(3)
O6G O 0.28637(14) 0.4280(2) -0.3105(3)
O8 O 0.5189(5) 0.2917(6) 0.1482(13)
loop_
_geom_bond_atom_site_label_1
_geom_bond_atom_site_label_2
_geom_bond_site_symmetry_1
_geom_bond_site_symmetry_2
Zn1 O1 1_555 1_555
Zn2 O2 1_555 1_555
N1 C1 1_555 1_555
N2 C6 1_555 1_555
N3 C11 1_555 1_555
O1 C22 1_555 1_555
O2 C22 1_555 1_555
O3 Zn2 1_555 1_555
O4 C23 1_555 1_555
O5 C30 1_555 1_555
O6 C30 1_555 1_555
C1 H1 1_555 1_555
C2 C1 1_555 1_555
H2 C2 1_555 1_555
C3 C2 1_555 1_555
C4 C3 1_555 1_555
H3 C4 1_555 1_555
C5 N1 1_555 1_555
H4 C5 1_555 1_555
C6 C3 1_555 1_555
C7 C6 1_555 1_555
H5 C7 1_555 1_555
C8 C7 1_555 1_555
C9 C8 1_555 1_555
H6 C9 1_555 1_555
C10 N2 1_555 1_555
C11 H7 1_555 1_555
C12 C11 1_555 1_555
H8 C12 1_555 1_555
C13 C10 1_555 1_555
C14 C13 1_555 1_555
H9 C14 1_555 1_555
C15 N3 1_555 1_555
H10 C15 1_555 1_555
C16 C8 1_555 1_555
C17 C16 1_555 1_555
H11 C17 1_555 1_555
C18 C17 1_555 1_555
H12 C18 1_555 1_555
C19 C18 1_555 1_555
H13 C19 1_555 1_555
C20 C19 1_555 1_555
H14 C20 1_555 1_555
C21 C16 1_555 1_555
C22 C21 1_555 1_555
C23 O3 1_555 1_555
C24 C23 1_555 1_555
C25 C24 1_555 1_555
H15 C25 1_555 1_555
C26 C25 1_555 1_555
H16 C26 1_555 1_555
C27 C26 1_555 1_555
H17 C27 1_555 1_555
C28 C27 1_555 1_555
C29 C24 1_555 1_555
H18 C29 1_555 1_555
C30 C28 1_555 1_555
O7 Zn1 1_555 1_555
H19 O7 1_555 1_555
Zn1D N1 1_555 1_555
Zn1G O5 1_555 1_555
Zn2C N3 1_555 1_555
N1D Zn1 1_555 1_555
N3C Zn2 1_555 1_555
O5G Zn1 1_555 1_555
O6G Zn1 1_555 1_555
Zn2 O7 1_555 1_555
O6 Zn1G 1_555 1_555
C4 C5 1_555 1_555
C9 C10 1_555 1_555
C12 C13 1_555 1_555
C14 C15 1_555 1_555
C20 C21 1_555 1_555
C28 C29 1_555 1_555

#END
