
#######################################################################
#
#                 Cambridge Crystallographic Data Centre
#                                CCDC 
#
#######################################################################
#
# If this CIF has been generated from an entry in the Cambridge 
# Structural Database, then it will include bibliographic, chemical, 
# crystal, experimental, refinement or atomic coordinate data resulting 
# from the CCDC's data processing and validation procedures.
#
#######################################################################

data_FOBGEK
_symmetry_cell_setting           triclinic
_symmetry_space_group_name_H-M   'P -1'
_symmetry_Int_Tables_number      2
_space_group_name_Hall           '-P 1'
loop_
_symmetry_equiv_pos_site_id
_symmetry_equiv_pos_as_xyz
1 x,y,z
2 -x,-y,-z
_cell_length_a                   12.4642(19)
_cell_length_b                   12.5823(17)
_cell_length_c                   15.269(2)
_cell_angle_alpha                104.357(2)
_cell_angle_beta                 108.967(2)
_cell_angle_gamma                90.771(3)
_cell_volume                     2182.28
loop_
_atom_site_label
_atom_site_type_symbol
_atom_site_fract_x
_atom_site_fract_y
_atom_site_fract_z
Zn1 Zn 0.48459(6) -0.01136(6) 0.39925(5)
Zn2 Zn 0.19540(6) -0.47051(5) -0.09406(5)
N1 N 0.1823(4) -0.3163(4) -0.0105(3)
N2 N 0.1663(4) 0.0869(4) 0.0963(3)
N3 N 0.2073(4) 0.4315(4) -0.0057(3)
N4 N 0.4829(4) -0.0438(4) 0.2622(3)
N5 N 0.3423(4) -0.0866(4) -0.0924(3)
N6 N 0.0698(6) 0.0703(6) -0.3414(6)
O1 O 0.3579(4) 0.0892(4) 0.3975(3)
O2 O 0.3870(4) 0.1022(4) 0.5517(3)
O3 O 0.3112(4) -0.4410(4) -0.1437(3)
O4 O 0.3773(8) -0.5991(6) -0.1517(7)
O5 O 0.5966(4) 0.1264(4) 0.4590(3)
O6 O 0.6345(4) 0.1375(3) 0.6147(3)
O7 O 1.0571(4) 0.5058(4) 0.7958(3)
O8 O 1.0004(6) 0.3602(5) 0.8306(4)
C1 C 0.2217(5) -0.2837(5) 0.0859(4)
H1 H 0.2580 -0.3334 0.1189
C2 C 0.2115(5) -0.1807(4) 0.1387(4)
H2 H 0.2381 -0.1626 0.2054
C3 C 0.1609(5) -0.1043(4) 0.0904(4)
C4 C 0.1217(5) -0.1375(5) -0.0095(4)
H3 H 0.0874 -0.0886 -0.0443
C5 C 0.1335(5) -0.2413(5) -0.0563(4)
H4 H 0.1065 -0.2616 -0.1231
C6 C 0.1576(5) 0.0110(4) 0.1431(4)
C7 C 0.1523(5) 0.0401(4) 0.2361(4)
H5 H 0.1450 -0.0148 0.2655
C8 C 0.1578(5) 0.1491(4) 0.2844(4)
C9 C 0.1667(5) 0.2262(5) 0.2356(4)
H6 H 0.1696 0.3008 0.2652
C10 C 0.1712(5) 0.1940(5) 0.1435(4)
C11 C 0.2518(6) 0.3346(5) -0.0196(4)
H7 H 0.2916 0.3199 -0.0626
C12 C 0.2413(5) 0.2563(5) 0.0262(4)
H8 H 0.2731 0.1902 0.0137
C13 C 0.1834(5) 0.2753(4) 0.0913(4)
C14 C 0.1365(5) 0.3748(5) 0.1055(4)
H9 H 0.0967 0.3914 0.1484
C15 C 0.1493(5) 0.4490(5) 0.0556(4)
H10 H 0.1159 0.5146 0.0651
C16 C 0.1481(5) 0.1897(5) 0.3819(4)
C17 C 0.0533(6) 0.2467(5) 0.3861(5)
H11 H 0.0009 0.2549 0.3294
C18 C 0.0355(7) 0.2909(6) 0.4717(5)
H12 H -0.0285 0.3276 0.4728
C19 C 0.1133(7) 0.2801(6) 0.5550(5)
H13 H 0.1026 0.3106 0.6132
C20 C 0.2071(6) 0.2247(6) 0.5536(5)
H14 H 0.2588 0.2177 0.6111
C21 C 0.2266(6) 0.1787(5) 0.4677(4)
C22 C 0.3319(6) 0.1194(5) 0.4726(5)
C23 C 0.5176(6) -0.1360(5) 0.2219(4)
H15 H 0.5553 -0.1794 0.2611
C24 C 0.5013(5) -0.1715(5) 0.1253(4)
H16 H 0.5280 -0.2370 0.1008
C25 C 0.4447(5) -0.1089(4) 0.0643(4)
C26 C 0.4123(5) -0.0110(4) 0.1074(4)
H17 H 0.3761 0.0351 0.0704
C27 C 0.4332(5) 0.0191(5) 0.2048(4)
H18 H 0.4118 0.0864 0.2320
C28 C 0.4130(5) -0.1468(5) -0.0421(4)
C29 C 0.4532(5) -0.2386(5) -0.0854(4)
H19 H 0.5045 -0.2762 -0.0479
C30 C 0.4182(5) -0.2760(5) -0.1841(4)
C31 C 0.3459(5) -0.2141(5) -0.2359(4)
H20 H 0.3220 -0.2351 -0.3027
C32 C 0.3089(5) -0.1206(5) -0.1889(4)
C33 C 0.0960(7) 0.0836(6) -0.2473(6)
H21 H 0.0614 0.1363 -0.2141
C34 C 0.1724(6) 0.0229(5) -0.1961(5)
H22 H 0.1859 0.0339 -0.1307
C35 C 0.2277(5) -0.0532(5) -0.2418(4)
C36 C 0.2037(6) -0.0642(6) -0.3391(5)
H23 H 0.2409 -0.1123 -0.3735
C37 C 0.1239(8) -0.0029(7) -0.3841(6)
H24 H 0.1069 -0.0140 -0.4499
C38 C 0.4615(5) -0.3751(5) -0.2336(4)
C39 C 0.5228(5) -0.3606(5) -0.2919(5)
H25 H 0.5325 -0.2910 -0.3005
C40 C 0.5692(7) -0.4455(7) -0.3368(6)
H26 H 0.6094 -0.4333 -0.3757
C41 C 0.5569(9) -0.5474(8) -0.3250(7)
H27 H 0.5876 -0.6059 -0.3561
C42 C 0.4981(9) -0.5632(7) -0.2661(7)
H28 H 0.4926 -0.6327 -0.2559
C43 C 0.4470(6) -0.4805(6) -0.2216(5)
C44 C 0.3739(7) -0.5089(6) -0.1669(6)
C45 C 0.6465(5) 0.1708(5) 0.5465(5)
C46 C 0.7289(5) 0.2709(5) 0.5722(4)
C47 C 0.7105(6) 0.3393(5) 0.5113(5)
H29 H 0.6495 0.3218 0.4537
C48 C 0.7838(6) 0.4339(6) 0.5372(5)
H30 H 0.7710 0.4807 0.4971
C49 C 0.8757(6) 0.4599(5) 0.6216(5)
H31 H 0.9253 0.5231 0.6378
C50 C 0.8934(5) 0.3919(5) 0.6817(4)
C51 C 0.8210(5) 0.2995(5) 0.6574(4)
H32 H 0.8335 0.2543 0.6989
C52 C 0.9931(6) 0.4191(6) 0.7751(5)
Zn1A Zn 0.51541(6) 0.01136(6) 0.60075(5)
Zn2_2 Zn 0.19540(6) 0.52949(5) -0.09406(5)
Zn2_3 Zn 1.19540(6) 0.52949(5) 0.90594(5)
N3_2 N 0.2073(4) -0.5685(4) -0.0057(3)
O2A O 0.6130(4) -0.1022(4) 0.4483(3)
O6A O 0.3655(4) -0.1375(3) 0.3853(3)
O7_2 O 0.0571(4) -0.4942(4) -0.2042(3)
loop_
_geom_bond_atom_site_label_1
_geom_bond_atom_site_label_2
_geom_bond_site_symmetry_1
_geom_bond_site_symmetry_2
Zn1 N4 1_555 1_555
Zn2 N1 1_555 1_555
N1 C1 1_555 1_555
N2 C6 1_555 1_555
N3 C11 1_555 1_555
N4 C23 1_555 1_555
N5 C28 1_555 1_555
N6 C33 1_555 1_555
O1 Zn1 1_555 1_555
O2 C22 1_555 1_555
O3 Zn2 1_555 1_555
O4 C44 1_555 1_555
O5 Zn1 1_555 1_555
O6 C45 1_555 1_555
O7 C52 1_555 1_555
O8 C52 1_555 1_555
C1 H1 1_555 1_555
C2 C1 1_555 1_555
H2 C2 1_555 1_555
C3 C2 1_555 1_555
C4 C3 1_555 1_555
H3 C4 1_555 1_555
C5 N1 1_555 1_555
H4 C5 1_555 1_555
C6 C3 1_555 1_555
C7 C6 1_555 1_555
H5 C7 1_555 1_555
C8 C7 1_555 1_555
C9 C8 1_555 1_555
H6 C9 1_555 1_555
C10 N2 1_555 1_555
C11 H7 1_555 1_555
C12 C11 1_555 1_555
H8 C12 1_555 1_555
C13 C10 1_555 1_555
C14 C13 1_555 1_555
H9 C14 1_555 1_555
C15 N3 1_555 1_555
H10 C15 1_555 1_555
C16 C8 1_555 1_555
C17 C16 1_555 1_555
H11 C17 1_555 1_555
C18 C17 1_555 1_555
H12 C18 1_555 1_555
C19 C18 1_555 1_555
H13 C19 1_555 1_555
C20 C19 1_555 1_555
H14 C20 1_555 1_555
C21 C16 1_555 1_555
C22 O1 1_555 1_555
C23 H15 1_555 1_555
C24 C23 1_555 1_555
H16 C24 1_555 1_555
C25 C24 1_555 1_555
C26 C25 1_555 1_555
H17 C26 1_555 1_555
C27 N4 1_555 1_555
H18 C27 1_555 1_555
C28 C25 1_555 1_555
C29 C28 1_555 1_555
H19 C29 1_555 1_555
C30 C29 1_555 1_555
C31 C30 1_555 1_555
H20 C31 1_555 1_555
C32 N5 1_555 1_555
C33 H21 1_555 1_555
C34 C33 1_555 1_555
H22 C34 1_555 1_555
C35 C32 1_555 1_555
C36 C35 1_555 1_555
H23 C36 1_555 1_555
C37 N6 1_555 1_555
H24 C37 1_555 1_555
C38 C30 1_555 1_555
C39 C38 1_555 1_555
H25 C39 1_555 1_555
C40 C39 1_555 1_555
H26 C40 1_555 1_555
C41 C40 1_555 1_555
H27 C41 1_555 1_555
C42 C41 1_555 1_555
H28 C42 1_555 1_555
C43 C38 1_555 1_555
C44 O3 1_555 1_555
C45 O5 1_555 1_555
C46 C45 1_555 1_555
C47 C46 1_555 1_555
H29 C47 1_555 1_555
C48 C47 1_555 1_555
H30 C48 1_555 1_555
C49 C48 1_555 1_555
H31 C49 1_555 1_555
C50 C49 1_555 1_555
C51 C46 1_555 1_555
H32 C51 1_555 1_555
C52 C50 1_555 1_555
Zn1A O2 1_555 1_555
Zn2_2 N3 1_555 1_555
Zn2_3 O7 1_555 1_555
N3_2 Zn2 1_555 1_555
O2A Zn1 1_555 1_555
O6A Zn1 1_555 1_555
O7_2 Zn2 1_555 1_555
O6 Zn1A 1_555 1_555
C4 C5 1_555 1_555
C9 C10 1_555 1_555
C12 C13 1_555 1_555
C14 C15 1_555 1_555
C20 C21 1_555 1_555
C21 C22 1_555 1_555
C26 C27 1_555 1_555
C31 C32 1_555 1_555
C34 C35 1_555 1_555
C36 C37 1_555 1_555
C42 C43 1_555 1_555
C43 C44 1_555 1_555
C50 C51 1_555 1_555

#END
