
#######################################################################
#
#                 Cambridge Crystallographic Data Centre
#                                CCDC 
#
#######################################################################
#
# If this CIF has been generated from an entry in the Cambridge 
# Structural Database, then it will include bibliographic, chemical, 
# crystal, experimental, refinement or atomic coordinate data resulting 
# from the CCDC's data processing and validation procedures.
#
#######################################################################

data_FOBHEL
_symmetry_cell_setting           orthorhombic
_symmetry_space_group_name_H-M   'P c a 21'
_symmetry_Int_Tables_number      29
_space_group_name_Hall           'P 2c -2ac'
loop_
_symmetry_equiv_pos_site_id
_symmetry_equiv_pos_as_xyz
1 x,y,z
2 -x,-y,1/2+z
3 1/2+x,-y,z
4 1/2-x,y,1/2+z
_cell_length_a                   10.6837(9)
_cell_length_b                   5.1842(4)
_cell_length_c                   43.511(4)
_cell_angle_alpha                90
_cell_angle_beta                 90
_cell_angle_gamma                90
_cell_volume                     2409.92
loop_
_atom_site_label
_atom_site_type_symbol
_atom_site_fract_x
_atom_site_fract_y
_atom_site_fract_z
Cd1 Cd 0.25181(8) 0.38684(16) 0.13555(2)
Cd2 Cd -0.03164(8) 0.33502(16) 0.19234(2)
Cd3 Cd -0.08858(10) -0.4443(2) 0.40693(3)
P1 P 0.4541(3) 0.8910(5) 0.11859(7)
P2 P 0.2561(3) 0.1372(6) 0.20545(8)
O1 O 0.3924(8) 0.7449(17) 0.1457(2)
O2 O 0.4173(9) 1.1739(18) 0.1184(2)
O3 O 0.5938(8) 0.8528(15) 0.1153(2)
O4 O 0.0390(11) 1.303(2) -0.0432(3)
O5 O 0.2128(10) 1.165(2) -0.0645(2)
O6 O 0.0951(8) 0.6251(16) 0.15934(18)
H1 H 0.0420 0.7047 0.1439
H2 H 0.1320 0.7607 0.1717
O7 O 0.3296(10) -0.0893(18) 0.2172(2)
O8 O 0.3209(8) 0.3299(16) 0.18582(19)
O9 O 0.1382(9) 0.0553(17) 0.1887(3)
O10 O -0.1384(10) -0.277(2) 0.3578(3)
O11 O 0.0344(10) -0.166(2) 0.3802(3)
O12 O 0.0461(12) -0.755(3) 0.4177(3)
H3 H 0.0505 -0.8579 0.4026
H4 H 0.1178 -0.6890 0.4210
O13 O -0.2247(11) -0.754(3) 0.3983(3)
H5 H -0.2346 -0.8414 0.4146
H6 H -0.2942 -0.6887 0.3929
N1 N 0.2574(9) 0.644(2) 0.0898(2)
N2 N 0.1011(9) 0.4920(19) 0.2331(2)
C1 C 0.3843(12) 0.734(3) 0.0845(3)
H7 H 0.3839 0.8555 0.0675
H8 H 0.4360 0.5885 0.0786
C2 C 0.2119(13) 0.495(3) 0.0626(3)
H9 H 0.1329 0.4130 0.0677
H10 H 0.2717 0.3596 0.0579
C3 C 0.1941(13) 0.661(2) 0.0346(3)
C4 C 0.2688(14) 0.649(3) 0.0093(3)
H11 H 0.3329 0.5283 0.0086
C5 C 0.2511(16) 0.817(4) -0.0160(3)
H12 H 0.3047 0.8109 -0.0328
C6 C 0.1541(14) 0.990(3) -0.0153(3)
C7 C 0.0737(16) 1.002(4) 0.0094(4)
H13 H 0.0067 1.1163 0.0091
C8 C 0.0926(15) 0.845(4) 0.0344(3)
H14 H 0.0397 0.8572 0.0513
C9 C 0.1310(14) 1.158(3) -0.0413(3)
C10 C 0.2017(13) 0.303(3) 0.2393(3)
H15 H 0.1712 0.1768 0.2540
H16 H 0.2717 0.3922 0.2487
C11 C 0.0546(14) 0.615(3) 0.2620(4)
H17 H -0.0191 0.7166 0.2574
H18 H 0.1184 0.7304 0.2699
C12 C 0.0219(13) 0.418(3) 0.2868(4)
C13 C -0.0772(12) 0.245(3) 0.2853(3)
H19 H -0.1300 0.2495 0.2683
C14 C -0.0998(15) 0.067(3) 0.3080(4)
H20 H -0.1687 -0.0427 0.3068
C15 C -0.0182(12) 0.053(2) 0.3328(3)
C16 C 0.0831(14) 0.217(3) 0.3361(4)
H21 H 0.1357 0.2067 0.3530
C17 C 0.1037(13) 0.402(3) 0.3126(3)
H22 H 0.1714 0.5141 0.3140
C18 C -0.0430(14) -0.144(3) 0.3580(3)
Cd1_2 Cd 0.25181(8) 1.38684(16) 0.13555(2)
Cd1B Cd 0.75181(8) 0.61316(16) 0.13555(2)
Cd2B Cd 0.46836(8) -0.33502(16) 0.19234(2)
Cd2B_2 Cd 0.46836(8) 0.66498(16) 0.19234(2)
Cd3A Cd 0.08858(10) 1.4443(2) -0.09307(3)
O1B O -0.1076(8) 0.2551(17) 0.1457(2)
O2_2 O 0.4173(9) 0.1739(18) 0.1184(2)
O3B O 0.0938(8) 0.1472(15) 0.1153(2)
O4A O -0.0390(11) -0.303(2) 0.4568(3)
O5A O -0.2128(10) -0.165(2) 0.4355(2)
O7B O -0.1704(10) 0.0893(18) 0.2172(2)
O8B O -0.1791(8) 0.6701(16) 0.18582(19)
loop_
_geom_bond_atom_site_label_1
_geom_bond_atom_site_label_2
_geom_bond_site_symmetry_1
_geom_bond_site_symmetry_2
Cd1 O1 1_555 1_555
Cd2 O6 1_555 1_555
Cd3 O10 1_555 1_555
P1 O1 1_555 1_555
P2 O7 1_555 1_555
O1 Cd2B_2 1_555 1_555
O2 P1 1_555 1_555
O3 P1 1_555 1_555
O4 C9 1_555 1_555
O5 C9 1_555 1_555
O6 Cd1 1_555 1_555
H1 O6 1_555 1_555
H2 O6 1_555 1_555
O7 Cd2B 1_555 1_555
O8 Cd1 1_555 1_555
O9 Cd2 1_555 1_555
O10 C18 1_555 1_555
O11 Cd3 1_555 1_555
O12 Cd3 1_555 1_555
H3 O12 1_555 1_555
H4 O12 1_555 1_555
O13 Cd3 1_555 1_555
H5 O13 1_555 1_555
H6 O13 1_555 1_555
N1 Cd1 1_555 1_555
N2 Cd2 1_555 1_555
C1 P1 1_555 1_555
H7 C1 1_555 1_555
H8 C1 1_555 1_555
C2 N1 1_555 1_555
H9 C2 1_555 1_555
H10 C2 1_555 1_555
C3 C2 1_555 1_555
C4 C3 1_555 1_555
H11 C4 1_555 1_555
C5 C4 1_555 1_555
H12 C5 1_555 1_555
C6 C5 1_555 1_555
C7 C6 1_555 1_555
H13 C7 1_555 1_555
C8 C3 1_555 1_555
H14 C8 1_555 1_555
C9 C6 1_555 1_555
C10 P2 1_555 1_555
H15 C10 1_555 1_555
H16 C10 1_555 1_555
C11 N2 1_555 1_555
H17 C11 1_555 1_555
H18 C11 1_555 1_555
C12 C11 1_555 1_555
C13 C12 1_555 1_555
H19 C13 1_555 1_555
C14 C13 1_555 1_555
H20 C14 1_555 1_555
C15 C14 1_555 1_555
C16 C15 1_555 1_555
H21 C16 1_555 1_555
C17 C12 1_555 1_555
H22 C17 1_555 1_555
C18 O11 1_555 1_555
Cd1_2 O2 1_555 1_555
Cd1B O3 1_555 1_555
Cd2B_2 O8 1_555 1_555
Cd3A O4 1_555 1_555
O1B Cd2 1_555 1_555
O2_2 Cd1 1_555 1_555
O3B Cd1 1_555 1_555
O4A Cd3 1_555 1_555
O5A Cd3 1_555 1_555
O7B Cd2 1_555 1_555
O8B Cd2 1_555 1_555
P2 O8 1_555 1_555
P2 O9 1_555 1_555
O5 Cd3A 1_555 1_555
N1 C1 1_555 1_555
N2 C10 1_555 1_555
C7 C8 1_555 1_555
C15 C18 1_555 1_555
C16 C17 1_555 1_555

#END
