
#######################################################################
#
#                 Cambridge Crystallographic Data Centre
#                                CCDC 
#
#######################################################################
#
# If this CIF has been generated from an entry in the Cambridge 
# Structural Database, then it will include bibliographic, chemical, 
# crystal, experimental, refinement or atomic coordinate data resulting 
# from the CCDC's data processing and validation procedures.
#
#######################################################################

data_FOBHEK
_symmetry_cell_setting           monoclinic
_symmetry_space_group_name_H-M   'C 2/c'
_symmetry_Int_Tables_number      15
_space_group_name_Hall           '-C 2yn'
loop_
_symmetry_equiv_pos_site_id
_symmetry_equiv_pos_as_xyz
1 x,y,z
2 1/2+x,1/2+y,z
3 -x,y,1/2-z
4 1/2-x,1/2+y,1/2-z
5 -x,-y,-z
6 1/2-x,1/2-y,-z
7 x,-y,1/2+z
8 1/2+x,1/2-y,1/2+z
_cell_length_a                   21.603(3)
_cell_length_b                   14.8505(18)
_cell_length_c                   16.604(2)
_cell_angle_alpha                90
_cell_angle_beta                 125.682(2)
_cell_angle_gamma                90
_cell_volume                     4326.8
loop_
_atom_site_label
_atom_site_type_symbol
_atom_site_fract_x
_atom_site_fract_y
_atom_site_fract_z
Cu1 Cu 0.135200(13) 0.251166(14) 0.621092(16)
Cr1 Cr 0.335441(18) 0.20572(2) 0.77490(2)
Cr2 Cr 0.419807(19) 0.26282(2) 1.00090(2)
O1 O 0.26508(8) 0.27596(11) 0.70369(11)
O2 O 0.31226(10) 0.10670(12) 0.72644(13)
O3 O 0.41134(9) 0.23950(13) 0.78674(13)
O4 O 0.35066(8) 0.19990(11) 0.89264(11)
O5 O 0.39622(11) 0.36783(11) 0.98379(14)
O6 O 0.42047(10) 0.22367(12) 1.09203(12)
O7 O 0.50347(9) 0.25031(10) 1.02384(12)
N1 N 0.12198(9) 0.35858(11) 0.52904(12)
N2 N 0.13276(9) 0.16381(11) 0.52695(12)
N3 N 0.13121(9) -0.14545(11) 0.20216(12)
N4 N 0.14071(9) 0.66020(11) 0.21516(12)
C1 C 0.15453(11) 0.43983(13) 0.56358(14)
H1 H 0.1763 0.4536 0.6310
C2 C 0.15807(11) 0.50457(13) 0.50618(14)
H2 H 0.1796 0.5621 0.5329
C3 C 0.12939(11) 0.48343(13) 0.40829(14)
C4 C 0.09333(11) 0.40042(13) 0.37136(14)
H3 H 0.0721 0.3843 0.3046
C5 C 0.08864(11) 0.34191(13) 0.43209(14)
H4 H 0.0608 0.2876 0.4045
C6 C 0.08085(11) 0.60554(13) 0.18120(14)
H5 H 0.0401 0.6070 0.1126
C7 C 0.07645(11) 0.54754(13) 0.24207(14)
H6 H 0.0337 0.5089 0.2153
C8 C 0.13493(11) 0.54549(13) 0.34331(14)
C9 C 0.19715(11) 0.60211(13) 0.37821(14)
H7 H 0.2383 0.6025 0.4466
C10 C 0.19846(11) 0.65783(13) 0.31234(14)
H8 H 0.2415 0.6955 0.3365
C11 C 0.18575(11) 0.16864(13) 0.50864(14)
H9 H 0.2268 0.2098 0.5459
C12 C 0.18271(11) 0.11611(13) 0.43771(15)
H10 H 0.2198 0.1233 0.4247
C13 C 0.12503(11) 0.05265(13) 0.38557(14)
C14 C 0.06949(12) 0.04895(14) 0.40375(15)
H11 H 0.0284 0.0076 0.3683
C15 C 0.07463(11) 0.10555(13) 0.47342(14)
H12 H 0.0359 0.1033 0.4839
C16 C 0.09949(12) -0.16223(13) 0.25043(15)
H13 H 0.0779 -0.2200 0.2433
C17 C 0.09685(12) -0.09950(13) 0.30989(14)
H14 H 0.0761 -0.1154 0.3450
C18 C 0.12486(11) -0.01267(13) 0.31802(14)
C19 C 0.15445(12) 0.00679(13) 0.26421(15)
H15 H 0.1720 0.0657 0.2651
C20 C 0.15771(11) -0.06132(14) 0.20948(14)
H16 H 0.1798 -0.0480 0.1754
Cu1G Cu 0.635200(13) 0.248834(14) 1.121092(16)
Cu1F Cu 0.135200(13) 0.748834(14) 0.121092(16)
Cu1F_2 Cu 0.135200(13) -0.251166(14) 0.121092(16)
O7G O 0.00347(9) 0.24969(10) 0.52384(12)
N3F N 0.13121(9) 0.14545(11) 0.70216(12)
N4F N 0.14071(9) 0.33980(11) 0.71516(12)
loop_
_geom_bond_atom_site_label_1
_geom_bond_atom_site_label_2
_geom_bond_site_symmetry_1
_geom_bond_site_symmetry_2
Cu1 O1 1_555 1_555
Cr1 O1 1_555 1_555
Cr2 O4 1_555 1_555
O2 Cr1 1_555 1_555
O3 Cr1 1_555 1_555
O4 Cr1 1_555 1_555
O5 Cr2 1_555 1_555
O6 Cr2 1_555 1_555
O7 Cr2 1_555 1_555
N1 Cu1 1_555 1_555
N2 Cu1 1_555 1_555
N3 C16 1_555 1_555
N4 C6 1_555 1_555
C1 N1 1_555 1_555
H1 C1 1_555 1_555
C2 C1 1_555 1_555
H2 C2 1_555 1_555
C3 C2 1_555 1_555
C4 C3 1_555 1_555
H3 C4 1_555 1_555
C5 N1 1_555 1_555
H4 C5 1_555 1_555
C6 H5 1_555 1_555
C7 C6 1_555 1_555
H6 C7 1_555 1_555
C8 C3 1_555 1_555
C9 C8 1_555 1_555
H7 C9 1_555 1_555
C10 N4 1_555 1_555
H8 C10 1_555 1_555
C11 N2 1_555 1_555
H9 C11 1_555 1_555
C12 C11 1_555 1_555
H10 C12 1_555 1_555
C13 C12 1_555 1_555
C14 C13 1_555 1_555
H11 C14 1_555 1_555
C15 N2 1_555 1_555
H12 C15 1_555 1_555
C16 H13 1_555 1_555
C17 C16 1_555 1_555
H14 C17 1_555 1_555
C18 C13 1_555 1_555
C19 C18 1_555 1_555
H15 C19 1_555 1_555
C20 N3 1_555 1_555
H16 C20 1_555 1_555
Cu1G O7 1_555 1_555
Cu1F N4 1_555 1_555
Cu1F_2 N3 1_555 1_555
O7G Cu1 1_555 1_555
N3F Cu1 1_555 1_555
N4F Cu1 1_555 1_555
C4 C5 1_555 1_555
C7 C8 1_555 1_555
C9 C10 1_555 1_555
C14 C15 1_555 1_555
C17 C18 1_555 1_555
C19 C20 1_555 1_555

#END
