
#######################################################################
#
#                 Cambridge Crystallographic Data Centre
#                                CCDC 
#
#######################################################################
#
# If this CIF has been generated from an entry in the Cambridge 
# Structural Database, then it will include bibliographic, chemical, 
# crystal, experimental, refinement or atomic coordinate data resulting 
# from the CCDC's data processing and validation procedures.
#
#######################################################################

data_FOBJUD
_symmetry_cell_setting           monoclinic
_symmetry_space_group_name_H-M   'P 21/c'
_symmetry_Int_Tables_number      14
_space_group_name_Hall           '-P 2ybc'
loop_
_symmetry_equiv_pos_site_id
_symmetry_equiv_pos_as_xyz
1 x,y,z
2 -x,1/2+y,1/2-z
3 -x,-y,-z
4 x,1/2-y,1/2+z
_cell_length_a                   11.7508(4)
_cell_length_b                   15.7702(4)
_cell_length_c                   15.3590(5)
_cell_angle_alpha                90
_cell_angle_beta                 104.7950(10)
_cell_angle_gamma                90
_cell_volume                     2751.85
loop_
_atom_site_label
_atom_site_type_symbol
_atom_site_fract_x
_atom_site_fract_y
_atom_site_fract_z
Gd1 Gd 0.690331(11) 0.016194(9) 0.037162(8)
O1 O 0.8334(3) 0.02757(17) -0.05449(19)
H1 H 0.8846(13) 0.0094(15) -0.0792(19)
H2 H 0.797(2) 0.0657(14) -0.083(2)
O2 O 1.1970(2) -0.34839(15) 0.42258(14)
O3 O 0.9532(2) -0.12444(17) 0.00035(16)
O4 O 0.5886(2) 0.1015(2) -0.08212(18)
O5 O 0.3957(2) 0.08192(19) -0.11504(17)
O6 O 1.1891(3) -0.44159(17) 0.31522(16)
O7 O 0.8347(2) -0.0897(2) 0.08643(18)
O8 O 0.3703(3) 0.4162(2) -0.4226(2)
O9 O 0.5598(3) 0.4025(2) -0.4054(2)
C1 C 0.5379(3) 0.2076(2) -0.4235(2)
H3 H 0.5407 0.2501 -0.4649
C2 C 0.4282(3) 0.3247(2) -0.25021(19)
H4 H 0.3992 0.3780 -0.2412
C3 C 0.4850(3) 0.1151(2) -0.12596(19)
C4 C 0.5069(3) 0.16239(19) -0.27895(18)
C5 C 0.4671(2) 0.31006(19) -0.32529(18)
C6 C 0.9289(3) -0.2755(2) 0.1428(2)
C7 C 0.5051(2) 0.22792(19) -0.34307(17)
C8 C 1.0924(3) -0.3097(2) 0.2731(2)
C9 C 0.9889(3) -0.3356(2) 0.2081(2)
C10 C 0.4726(2) 0.18178(19) -0.19855(17)
C11 C 0.4657(3) 0.3814(2) -0.3902(2)
C12 C 0.9763(3) -0.1939(2) 0.1423(2)
C13 C 0.4313(3) 0.2601(2) -0.18608(18)
H5 H 0.4050 0.2712 -0.1350
C14 C 0.9162(3) -0.1309(2) 0.0712(2)
C15 C 0.5654(4) 0.1260(3) -0.4405(2)
H6 H 0.5834 0.1130 -0.4945
C16 C 1.0771(3) -0.1696(2) 0.2063(2)
H7 H 1.1064 -0.1150 0.2054
C17 C 1.1348(3) -0.2271(2) 0.2721(2)
H8 H 1.2017 -0.2102 0.3155
C18 C 0.5395(3) 0.0792(2) -0.2976(2)
H9 H 0.5423 0.0363 -0.2555
C19 C 0.8424(4) -0.4411(3) 0.1424(4)
H10 H 0.8137 -0.4961 0.1419
C20 C 0.9419(4) -0.4184(3) 0.2057(3)
H11 H 0.9796 -0.4580 0.2482
C21 C 0.8236(3) -0.3010(3) 0.0787(2)
H12 H 0.7825 -0.2618 0.0371
C22 C 0.5667(4) 0.0613(3) -0.3768(3)
H13 H 0.5863 0.0062 -0.3889
C23 C 0.7823(4) -0.3820(3) 0.0775(3)
H14 H 0.7151 -0.3983 0.0341
C24 C 1.1628(3) -0.3700(2) 0.3406(2)
Gd1A Gd 0.309669(11) 0.516194(9) -0.537162(8)
Gd1A_2 Gd 1.309669(11) -0.483806(9) 0.462838(8)
Gd1B Gd 0.309669(11) -0.016194(9) -0.037162(8)
Gd1C Gd 0.690331(11) 0.483806(9) -0.462838(8)
O2A O 0.8030(2) 0.15161(15) 0.07742(14)
O5B O 0.6043(2) -0.08192(19) 0.11504(17)
O6A O 0.8109(3) 0.05841(17) 0.18478(16)
O8A O 0.6297(3) -0.0838(2) -0.0774(2)
O9C O 0.5598(3) 0.0975(2) 0.0946(2)
C25 C 1.0121(3) 0.1489(2) 0.5637(2)
C26 C 0.9047(3) 0.1461(2) 0.4925(2)
C27 C 0.7645(3) 0.1096(3) 0.3780(3)
H15 H 0.7196 0.0780 0.3304
C28 C 0.7379(3) 0.1876(3) 0.4023(2)
H16 H 0.6721 0.2197 0.3750
C29 C 1.1666(4) 0.1150(3) 0.6715(3)
H17 H 1.2229 0.0833 0.7120
C30 C 1.1612(4) 0.2012(3) 0.6652(3)
H18 H 1.2140 0.2392 0.7004
N1 N 0.8279(3) 0.2106(2) 0.47591(19)
N2 N 1.0645(3) 0.2217(2) 0.59795(19)
H19 H 1.0413 0.2721 0.5806
N3 N 1.0722(3) 0.0838(2) 0.6060(2)
H20 H 1.0556 0.0311 0.5947
N4 N 0.8693(3) 0.0845(2) 0.4353(2)
H21 H 0.9048 0.0371 0.4338
loop_
_geom_bond_atom_site_label_1
_geom_bond_atom_site_label_2
_geom_bond_site_symmetry_1
_geom_bond_site_symmetry_2
Gd1 O1 1_555 1_555
O1 H1 1_555 1_555
H2 O1 1_555 1_555
O2 C24 1_555 1_555
O3 C14 1_555 1_555
O4 Gd1 1_555 1_555
O5 C3 1_555 1_555
O6 C24 1_555 1_555
O7 Gd1 1_555 1_555
O8 C11 1_555 1_555
O9 C11 1_555 1_555
C1 H3 1_555 1_555
C2 H4 1_555 1_555
C3 O4 1_555 1_555
C4 C7 1_555 1_555
C5 C2 1_555 1_555
C6 C9 1_555 1_555
C7 C1 1_555 1_555
C8 C9 1_555 1_555
C9 C20 1_555 1_555
C10 C3 1_555 1_555
C11 C5 1_555 1_555
C12 C6 1_555 1_555
C13 C2 1_555 1_555
H5 C13 1_555 1_555
C14 O7 1_555 1_555
C15 C1 1_555 1_555
H6 C15 1_555 1_555
C16 C12 1_555 1_555
H7 C16 1_555 1_555
C17 C8 1_555 1_555
H8 C17 1_555 1_555
C18 C4 1_555 1_555
H9 C18 1_555 1_555
C19 H10 1_555 1_555
C20 C19 1_555 1_555
H11 C20 1_555 1_555
C21 C6 1_555 1_555
H12 C21 1_555 1_555
C22 C15 1_555 1_555
H13 C22 1_555 1_555
C23 C19 1_555 1_555
H14 C23 1_555 1_555
C24 C8 1_555 1_555
C25 C26 1_555 1_555
C26 N1 1_555 1_555
C27 H15 1_555 1_555
C28 C27 1_555 1_555
H16 C28 1_555 1_555
C29 H17 1_555 1_555
C30 C29 1_555 1_555
H18 C30 1_555 1_555
N1 C28 1_555 1_555
N2 C25 1_555 1_555
H19 N2 1_555 1_555
N3 C25 1_555 1_555
H20 N3 1_555 1_555
N4 C26 1_555 1_555
H21 N4 1_555 1_555
Gd1A O8 1_555 1_555
Gd1A_2 O2 1_555 1_555
Gd1B O5 1_555 1_555
Gd1C O9 1_555 1_555
O2A Gd1 1_555 1_555
O5B Gd1 1_555 1_555
O6A Gd1 1_555 1_555
O8A Gd1 1_555 1_555
O9C Gd1 1_555 1_555
O6 Gd1A_2 1_555 1_555
C4 C10 1_555 1_555
C5 C7 1_555 1_555
C10 C13 1_555 1_555
C12 C14 1_555 1_555
C16 C17 1_555 1_555
C18 C22 1_555 1_555
C21 C23 1_555 1_555
C27 N4 1_555 1_555
C29 N3 1_555 1_555
C30 N2 1_555 1_555

#END
