
#######################################################################
#
#                 Cambridge Crystallographic Data Centre
#                                CCDC 
#
#######################################################################
#
# If this CIF has been generated from an entry in the Cambridge 
# Structural Database, then it will include bibliographic, chemical, 
# crystal, experimental, refinement or atomic coordinate data resulting 
# from the CCDC's data processing and validation procedures.
#
#######################################################################

data_FOBKAK
_symmetry_cell_setting           monoclinic
_symmetry_space_group_name_H-M   'P 21/c'
_symmetry_Int_Tables_number      14
_space_group_name_Hall           '-P 2ybc'
loop_
_symmetry_equiv_pos_site_id
_symmetry_equiv_pos_as_xyz
1 x,y,z
2 -x,1/2+y,1/2-z
3 -x,-y,-z
4 x,1/2-y,1/2+z
_cell_length_a                   11.74380(10)
_cell_length_b                   15.74570(10)
_cell_length_c                   15.30420(10)
_cell_angle_alpha                90
_cell_angle_beta                 105.0510(10)
_cell_angle_gamma                90
_cell_volume                     2732.88
loop_
_atom_site_label
_atom_site_type_symbol
_atom_site_fract_x
_atom_site_fract_y
_atom_site_fract_z
Tb1 Tb 0.309544(12) 0.016248(9) 0.962887(8)
O1 O 0.1705(2) 0.02877(17) 1.05659(18)
H1 H 0.137(3) -0.0183(13) 1.057(3)
H2 H 0.121(3) 0.0651(16) 1.042(3)
O2 O 0.1668(2) -0.08995(19) 0.91493(18)
C1 C 0.0238(3) -0.1938(2) 0.8583(2)
O3 O 0.0474(2) -0.12362(16) 0.99990(16)
C2 C -0.0759(3) -0.1707(2) 0.7946(2)
H3 H -0.1063 -0.1163 0.7954
O4 O -0.1875(3) -0.44225(17) 0.68391(16)
C3 C -0.1330(3) -0.2286(2) 0.7278(2)
H4 H -0.1995 -0.2116 0.6836
O5 O -0.1971(2) -0.34832(15) 0.57686(14)
C4 C -0.0920(3) -0.3095(2) 0.7271(2)
O6 O 0.3954(2) -0.08050(17) 0.88490(18)
C5 C 0.0123(3) -0.3365(2) 0.7922(2)
O7 O 0.5874(2) -0.10155(18) 0.91959(18)
C6 C 0.0595(3) -0.4189(3) 0.7950(3)
H5 H 0.0219 -0.4589 0.7526
O8 O 0.3740(3) -0.41775(19) 0.5769(2)
C7 C 0.1592(4) -0.4408(3) 0.8586(3)
H6 H 0.1888 -0.4956 0.8591
O9 O 0.5636(3) -0.40262(19) 0.5971(2)
C8 C 0.2178(4) -0.3825(3) 0.9230(3)
H7 H 0.2853 -0.3988 0.9665
C9 C 0.1764(3) -0.3013(3) 0.9224(2)
H8 H 0.2174 -0.2622 0.9646
C10 C 0.0721(3) -0.2761(2) 0.8584(2)
C11 C 0.0854(3) -0.1305(2) 0.9298(2)
C12 C -0.1624(3) -0.3707(2) 0.6588(2)
C13 C 0.4717(3) -0.1812(2) 0.80131(19)
C14 C 0.4310(3) -0.2599(2) 0.8144(2)
H9 H 0.4049 -0.2711 0.8656
C15 C 0.4284(3) -0.3246(2) 0.7497(2)
H10 H 0.3999 -0.3781 0.7587
C16 C 0.4669(3) -0.31004(19) 0.6747(2)
C17 C 0.5060(3) -0.2273(2) 0.6572(2)
C18 C 0.5385(3) -0.2068(2) 0.5771(2)
H11 H 0.5410 -0.2493 0.5354
C19 C 0.5663(4) -0.1258(2) 0.5604(3)
H12 H 0.5861 -0.1132 0.5068
C20 C 0.5655(4) -0.0607(3) 0.6228(3)
H13 H 0.5837 -0.0054 0.6100
C21 C 0.5383(3) -0.0785(2) 0.7021(2)
H14 H 0.5406 -0.0355 0.7441
C22 C 0.5063(3) -0.1621(2) 0.7212(2)
C23 C 0.4846(3) -0.1153(2) 0.8742(2)
C24 C 0.4693(4) -0.3821(2) 0.6107(2)
Tb1A Tb -0.309544(12) -0.483752(9) 0.537113(8)
Tb1A_2 Tb 0.690456(12) -0.483752(9) 0.537113(8)
Tb1B Tb 0.690456(12) -0.016248(9) 1.037113(8)
Tb1C Tb 0.309544(12) -0.516248(9) 0.462887(8)
O4A O 0.1875(3) 0.05775(17) 0.81609(16)
O5A O 0.1971(2) 0.15168(15) 0.92314(14)
O7B O 0.4126(2) 0.10155(18) 1.08041(18)
O8C O 0.3740(3) -0.08225(19) 1.0769(2)
O9A O 0.4364(3) 0.09738(19) 0.9029(2)
N1 N 0.1745(3) 0.2096(2) 0.52621(19)
H15 H 0.1696 0.2566 0.4969
N2 N 0.1316(3) 0.08277(19) 0.5663(2)
N3 N -0.0721(3) 0.08391(19) 0.3932(2)
H16 H -0.0562 0.0310 0.4038
N4 N -0.0635(3) 0.22163(19) 0.4021(2)
H17 H -0.0401 0.2720 0.4198
C25 C 0.2630(3) 0.1869(3) 0.5988(2)
H18 H 0.3289 0.2192 0.6263
C26 C 0.2365(3) 0.1082(3) 0.6231(3)
H19 H 0.2821 0.0765 0.6708
C27 C 0.0959(3) 0.1459(2) 0.5081(2)
C28 C -0.0115(3) 0.1491(2) 0.4364(2)
C29 C -0.1646(4) 0.1165(3) 0.3287(3)
H20 H -0.2215 0.0851 0.2877
C30 C -0.1594(4) 0.2017(3) 0.3345(3)
H21 H -0.2119 0.2398 0.2988
loop_
_geom_bond_atom_site_label_1
_geom_bond_atom_site_label_2
_geom_bond_site_symmetry_1
_geom_bond_site_symmetry_2
Tb1 O1 1_555 1_555
O1 H1 1_555 1_555
H2 O1 1_555 1_555
O2 Tb1 1_555 1_555
C1 C2 1_555 1_555
O3 C11 1_555 1_555
C2 H3 1_555 1_555
O4 C12 1_555 1_555
C3 C2 1_555 1_555
H4 C3 1_555 1_555
O5 C12 1_555 1_555
C4 C3 1_555 1_555
O6 Tb1 1_555 1_555
C5 C4 1_555 1_555
O7 C23 1_555 1_555
C6 C5 1_555 1_555
H5 C6 1_555 1_555
O8 C24 1_555 1_555
C7 C6 1_555 1_555
H6 C7 1_555 1_555
O9 C24 1_555 1_555
C8 C7 1_555 1_555
H7 C8 1_555 1_555
C9 C8 1_555 1_555
H8 C9 1_555 1_555
C10 C1 1_555 1_555
C11 O2 1_555 1_555
C12 C4 1_555 1_555
C13 C14 1_555 1_555
C14 H9 1_555 1_555
C15 C14 1_555 1_555
H10 C15 1_555 1_555
C16 C15 1_555 1_555
C17 C16 1_555 1_555
C18 C17 1_555 1_555
H11 C18 1_555 1_555
C19 C18 1_555 1_555
H12 C19 1_555 1_555
C20 C19 1_555 1_555
H13 C20 1_555 1_555
C21 C20 1_555 1_555
H14 C21 1_555 1_555
C22 C13 1_555 1_555
C23 O6 1_555 1_555
C24 C16 1_555 1_555
N1 H15 1_555 1_555
N2 C26 1_555 1_555
N3 H16 1_555 1_555
N4 H17 1_555 1_555
C25 N1 1_555 1_555
H18 C25 1_555 1_555
C26 C25 1_555 1_555
H19 C26 1_555 1_555
C27 N1 1_555 1_555
C28 N3 1_555 1_555
C29 N3 1_555 1_555
H20 C29 1_555 1_555
C30 N4 1_555 1_555
H21 C30 1_555 1_555
Tb1A O4 1_555 1_555
Tb1A_2 O9 1_555 1_555
Tb1B O7 1_555 1_555
Tb1C O8 1_555 1_555
O4A Tb1 1_555 1_555
O5A Tb1 1_555 1_555
O7B Tb1 1_555 1_555
O8C Tb1 1_555 1_555
O9A Tb1 1_555 1_555
C1 C11 1_555 1_555
O5 Tb1A 1_555 1_555
C5 C10 1_555 1_555
C9 C10 1_555 1_555
C13 C23 1_555 1_555
C17 C22 1_555 1_555
C21 C22 1_555 1_555
N2 C27 1_555 1_555
N4 C28 1_555 1_555
C27 C28 1_555 1_555
C29 C30 1_555 1_555

#END
