
#######################################################################
#
#                 Cambridge Crystallographic Data Centre
#                                CCDC 
#
#######################################################################
#
# If this CIF has been generated from an entry in the Cambridge 
# Structural Database, then it will include bibliographic, chemical, 
# crystal, experimental, refinement or atomic coordinate data resulting 
# from the CCDC's data processing and validation procedures.
#
#######################################################################

data_FOBXUQ
_symmetry_cell_setting           monoclinic
_symmetry_space_group_name_H-M   'P 21/n'
_symmetry_Int_Tables_number      14
_space_group_name_Hall           '-P 2yn'
loop_
_symmetry_equiv_pos_site_id
_symmetry_equiv_pos_as_xyz
1 x,y,z
2 1/2-x,1/2+y,1/2-z
3 -x,-y,-z
4 1/2+x,1/2-y,1/2+z
_cell_length_a                   10.259(2)
_cell_length_b                   8.775(2)
_cell_length_c                   21.813(4)
_cell_angle_alpha                90
_cell_angle_beta                 101.93(3)
_cell_angle_gamma                90
_cell_volume                     1921.25
loop_
_atom_site_label
_atom_site_type_symbol
_atom_site_fract_x
_atom_site_fract_y
_atom_site_fract_z
Ba1 Ba 0.508805(9) 0.406000(10) 0.760670(10)
S1 S 0.77415(4) 0.54726(5) 0.65836(2)
S2 S 0.32866(4) 0.02221(5) 0.67772(2)
O1 O 0.5262(2) 0.7175(2) 0.76360(10)
O2 O 0.38220(10) 0.1753(2) 0.82910(10)
O3 O 0.7881(2) 0.5805(2) 0.82100(10)
O4 O 0.68610(10) 0.4439(2) 0.68270(10)
O5 O 0.79900(10) 0.6882(2) 0.69410(10)
O6 O 0.89680(10) 0.4716(2) 0.65110(10)
O7 O 0.7675(2) 0.3742(2) 0.42800(10)
O8 O 0.62500(10) 0.5158(2) 0.36040(10)
O9 O 0.43010(10) 0.1386(2) 0.69650(10)
O10 O 0.24610(10) 0.0042(2) 0.72450(10)
O11 O 0.3843(2) -0.1201(2) 0.66110(10)
O12 O 0.2468(2) -0.0768(2) 0.43520(10)
O13 O 0.0792(2) 0.0697(2) 0.38750(10)
C1 C 0.6905(2) 0.6004(2) 0.58170(10)
C2 C 0.7145(2) 0.5200(2) 0.53040(10)
C3 C 0.6487(2) 0.5621(2) 0.47020(10)
C4 C 0.5589(2) 0.6825(2) 0.46220(10)
C5 C 0.5350(2) 0.7612(2) 0.51410(10)
C6 C 0.6011(2) 0.7209(2) 0.57390(10)
C7 C 0.6771(2) 0.4829(2) 0.41400(10)
C8 C 0.2228(2) 0.0913(2) 0.60930(10)
C9 C 0.2271(2) 0.0265(2) 0.55170(10)
C10 C 0.1481(2) 0.0879(2) 0.49770(10)
C11 C 0.0652(2) 0.2107(2) 0.50170(10)
C12 C 0.0615(2) 0.2743(2) 0.55960(10)
C13 C 0.1406(2) 0.2154(2) 0.61340(10)
C14 C 0.1535(2) 0.0264(2) 0.43490(10)
H1 H 0.790(3) 0.346(3) 0.3947(8)
H2 H 0.254(3) -0.094(3) 0.3980(10)
H3 H 0.557(3) 0.782(2) 0.7910(10)
H4 H 0.484(2) 0.763(2) 0.7310(10)
H5 H 0.446(2) 0.111(2) 0.8390(10)
H6 H 0.327(2) 0.139(3) 0.7980(10)
H7 H 0.763(3) 0.655(3) 0.797(2)
H8 H 0.8690(10) 0.560(4) 0.822(2)
H9 H 0.7739 0.4387 0.5361
H10 H 0.5147 0.7104 0.4221
H11 H 0.4744 0.8413 0.5086
H12 H 0.5855 0.7742 0.6086
H13 H 0.2819 -0.0567 0.5492
H14 H 0.0119 0.2505 0.4655
H15 H 0.0058 0.3566 0.5621
H16 H 0.1389 0.2585 0.6522
Ba1A Ba 0.991195(9) 0.906000(10) 0.739330(10)
Ba1B Ba 0.491195(9) 0.594000(10) 0.239330(10)
Ba1A_2 Ba -0.008805(9) -0.094000(10) 0.739330(10)
Ba1C Ba 0.008805(9) 0.094000(10) 0.260670(10)
O5A O 0.70100(10) 0.1882(2) 0.80590(10)
O8B O 0.37500(10) 0.4842(2) 0.63960(10)
O10A O 0.25390(10) 0.5042(2) 0.77550(10)
O13C O 0.5792(2) 0.4303(2) 0.88750(10)
loop_
_geom_bond_atom_site_label_1
_geom_bond_atom_site_label_2
_geom_bond_site_symmetry_1
_geom_bond_site_symmetry_2
Ba1 O1 1_555 1_555
S1 O4 1_555 1_555
S2 O9 1_555 1_555
O1 H3 1_555 1_555
O2 Ba1 1_555 1_555
O3 Ba1 1_555 1_555
O4 Ba1 1_555 1_555
O5 S1 1_555 1_555
O6 S1 1_555 1_555
O7 C7 1_555 1_555
O8 C7 1_555 1_555
O9 Ba1 1_555 1_555
O10 S2 1_555 1_555
O11 S2 1_555 1_555
O12 C14 1_555 1_555
O13 C14 1_555 1_555
C1 S1 1_555 1_555
C2 C1 1_555 1_555
C3 C2 1_555 1_555
C4 C3 1_555 1_555
C5 C4 1_555 1_555
C6 C1 1_555 1_555
C7 C3 1_555 1_555
C8 S2 1_555 1_555
C9 C8 1_555 1_555
C10 C9 1_555 1_555
C11 C10 1_555 1_555
C12 C11 1_555 1_555
C13 C8 1_555 1_555
C14 C10 1_555 1_555
H1 O7 1_555 1_555
H2 O12 1_555 1_555
H4 O1 1_555 1_555
H5 O2 1_555 1_555
H6 O2 1_555 1_555
H7 O3 1_555 1_555
H8 O3 1_555 1_555
H9 C2 1_555 1_555
H10 C4 1_555 1_555
H11 C5 1_555 1_555
H12 C6 1_555 1_555
H13 C9 1_555 1_555
H14 C11 1_555 1_555
H15 C12 1_555 1_555
H16 C13 1_555 1_555
Ba1A O5 1_555 1_555
Ba1B O8 1_555 1_555
Ba1A_2 O10 1_555 1_555
Ba1C O13 1_555 1_555
O5A Ba1 1_555 1_555
O8B Ba1 1_555 1_555
O10A Ba1 1_555 1_555
O13C Ba1 1_555 1_555
C5 C6 1_555 1_555
C12 C13 1_555 1_555

#END
