
#######################################################################
#
#                 Cambridge Crystallographic Data Centre
#                                CCDC 
#
#######################################################################
#
# If this CIF has been generated from an entry in the Cambridge 
# Structural Database, then it will include bibliographic, chemical, 
# crystal, experimental, refinement or atomic coordinate data resulting 
# from the CCDC's data processing and validation procedures.
#
#######################################################################

data_FOBYAX
_symmetry_cell_setting           monoclinic
_symmetry_space_group_name_H-M   'C 2/c'
_symmetry_Int_Tables_number      15
_space_group_name_Hall           '-C 2yn'
loop_
_symmetry_equiv_pos_site_id
_symmetry_equiv_pos_as_xyz
1 x,y,z
2 1/2+x,1/2+y,z
3 -x,y,1/2-z
4 1/2-x,1/2+y,1/2-z
5 -x,-y,-z
6 1/2-x,1/2-y,-z
7 x,-y,1/2+z
8 1/2+x,1/2-y,1/2+z
_cell_length_a                   22.274(4)
_cell_length_b                   5.7150(10)
_cell_length_c                   10.443(2)
_cell_angle_alpha                90
_cell_angle_beta                 92.56(3)
_cell_angle_gamma                90
_cell_volume                     1328.02
loop_
_atom_site_label
_atom_site_type_symbol
_atom_site_fract_x
_atom_site_fract_y
_atom_site_fract_z
Ba1 Ba 0.5000 0.84452(3) 0.7500
S1 S 0.59787(3) 0.68430(10) 0.44019(6)
O1 O 0.45060(10) 1.1768(3) 0.8992(3)
O2 O 0.58070(10) 0.6643(3) 0.5735(2)
O3 O 0.59040(10) 0.9231(3) 0.3917(2)
O4 O 0.56870(10) 0.5113(3) 0.3573(2)
C1 C 0.67620(10) 0.6263(4) 0.4385(2)
C2 C 0.69460(10) 0.4413(4) 0.3665(2)
C3 C 0.75600(10) 0.3975(4) 0.3562(3)
C4 C 0.79830(10) 0.5361(4) 0.4155(2)
C5 C 0.71880(10) 0.7734(4) 0.5061(2)
H1 H 0.436(2) 1.312(4) 0.885(4)
H2 H 0.438(2) 1.122(7) 0.968(3)
H3 H 0.6663 0.3450 0.3247
H4 H 0.7681 0.2710 0.3076
H5 H 0.8388 0.5063 0.4048
Ba1F Ba 0.5000 1.15548(3) 0.2500
Ba1F_2 Ba 0.5000 0.15548(3) 0.2500
Ba1G Ba 1.0000 0.65548(3) 0.2500
Ba1A Ba 1.0000 0.34452(3) 0.7500
Ba1A_2 Ba 1.0000 1.34452(3) 0.7500
S1E S 0.90213(3) 0.81570(10) 0.55981(6)
O1B O 0.54940(10) 1.1768(3) 0.6008(3)
O2E O 0.91930(10) 0.8357(3) 0.4265(2)
O2B O 0.41930(10) 0.6643(3) 0.9265(2)
O3E O 0.90960(10) 0.5769(3) 0.6083(2)
O3F O 0.59040(10) 1.0769(3) 0.8917(2)
O3D O 0.40960(10) 1.0769(3) 0.6083(2)
O4E O 0.93130(10) 0.9887(3) 0.6427(2)
O4F O 0.56870(10) 0.4887(3) 0.8573(2)
O4D O 0.43130(10) 0.4887(3) 0.6427(2)
C1E C 0.82380(10) 0.8737(4) 0.5615(2)
C2E C 0.80540(10) 1.0587(4) 0.6335(2)
C3E C 0.74400(10) 1.1025(4) 0.6438(3)
C4E C 0.70170(10) 0.9639(4) 0.5845(2)
C5E C 0.78120(10) 0.7266(4) 0.4939(2)
H1B H 0.564(2) 1.312(4) 0.615(4)
H2B H 0.562(2) 1.122(7) 0.532(3)
H3E H 0.8337 1.1550 0.6753
H4E H 0.7319 1.2290 0.6924
H5E H 0.6612 0.9937 0.5952
loop_
_geom_bond_atom_site_label_1
_geom_bond_atom_site_label_2
_geom_bond_site_symmetry_1
_geom_bond_site_symmetry_2
Ba1 O1 1_555 1_555
S1 O2 1_555 1_555
O1 H1 1_555 1_555
O2 Ba1 1_555 1_555
O3 S1 1_555 1_555
O4 S1 1_555 1_555
C1 S1 1_555 1_555
C2 C1 1_555 1_555
C3 C2 1_555 1_555
C4 C3 1_555 1_555
C5 C1 1_555 1_555
H2 O1 1_555 1_555
H3 C2 1_555 1_555
H4 C3 1_555 1_555
H5 C4 1_555 1_555
Ba1F O3 1_555 1_555
Ba1F_2 O4 1_555 1_555
Ba1G O2E 1_555 1_555
Ba1A O3E 1_555 1_555
Ba1A_2 O4E 1_555 1_555
S1E O2E 1_555 1_555
O1B Ba1 1_555 1_555
O2B Ba1 1_555 1_555
O3E S1E 1_555 1_555
O3F Ba1 1_555 1_555
O3D Ba1 1_555 1_555
O4E S1E 1_555 1_555
O4F Ba1 1_555 1_555
O4D Ba1 1_555 1_555
C1E S1E 1_555 1_555
C2E C1E 1_555 1_555
C3E C2E 1_555 1_555
C4E C5 1_555 1_555
C5E C4 1_555 1_555
H1B O1B 1_555 1_555
H2B O1B 1_555 1_555
H3E C2E 1_555 1_555
H4E C3E 1_555 1_555
H5E C4E 1_555 1_555
C5 C5E 1_555 1_555
C1E C5E 1_555 1_555
C3E C4E 1_555 1_555

#END
