
#######################################################################
#
#                 Cambridge Crystallographic Data Centre
#                                CCDC 
#
#######################################################################
#
# If this CIF has been generated from an entry in the Cambridge 
# Structural Database, then it will include bibliographic, chemical, 
# crystal, experimental, refinement or atomic coordinate data resulting 
# from the CCDC's data processing and validation procedures.
#
#######################################################################

data_FOCBUW
_symmetry_cell_setting           monoclinic
_symmetry_space_group_name_H-M   'C 2/c'
_symmetry_Int_Tables_number      15
_space_group_name_Hall           '-C 2yn'
loop_
_symmetry_equiv_pos_site_id
_symmetry_equiv_pos_as_xyz
1 x,y,z
2 -x,y,1/2-z
3 1/2+x,1/2+y,z
4 1/2-x,1/2+y,1/2-z
5 -x,-y,-z
6 x,-y,1/2+z
7 1/2-x,1/2-y,-z
8 1/2+x,1/2-y,1/2+z
_cell_length_a                   13.263(3)
_cell_length_b                   22.855(4)
_cell_length_c                   13.483(4)
_cell_angle_alpha                90
_cell_angle_beta                 97.923(3)
_cell_angle_gamma                90
_cell_volume                     4048.03
loop_
_atom_site_label
_atom_site_type_symbol
_atom_site_fract_x
_atom_site_fract_y
_atom_site_fract_z
O1 O 0.8976(2) 0.47756(14) 0.2936(2)
O2 O 0.9448(2) 0.44436(15) 0.5472(3)
O3 O 1.1500(2) 0.33160(14) 0.4180(2)
O4 O 1.0472(2) 0.25830(14) 0.3628(2)
O5 O 0.7802(2) 0.40950(14) 0.2438(2)
O6 O 0.9230(2) 0.37101(14) 0.4396(2)
C1 C 0.8954(4) 0.4007(2) 0.5130(3)
C2 C 0.8087(3) 0.45553(19) 0.2921(3)
C3 C 1.0999(3) 0.28544(19) 0.4337(3)
C4 C 0.8027(3) 0.38083(19) 0.5545(3)
C5 C 0.7338(3) 0.48752(19) 0.3454(3)
C6 C 0.7467(3) 0.3321(2) 0.5162(3)
H1 H 0.7687 0.3103 0.4630
C7 C 0.7652(3) 0.5368(2) 0.4007(4)
H2 H 0.8341 0.5492 0.4061
C8 C 0.5953(4) 0.5502(2) 0.4390(4)
H3 H 0.5473 0.5719 0.4703
C9 C 1.1067(3) 0.2631(2) 0.5383(3)
C10 C 1.0910(4) 0.2034(2) 0.5525(4)
H4 H 1.0757 0.1782 0.4963
C11 C 1.1298(4) 0.2995(2) 0.6200(4)
H5 H 1.1429 0.3399 0.6107
C12 C 0.5646(4) 0.5005(2) 0.3839(4)
H6 H 0.4955 0.4884 0.3775
C13 C 0.6333(4) 0.4688(2) 0.3386(4)
H7 H 0.6123 0.4342 0.3027
C14 C 0.7693(4) 0.4120(2) 0.6328(4)
H8 H 0.8070 0.4448 0.6606
C15 C 0.6811(4) 0.3953(2) 0.6702(4)
H9 H 0.6578 0.4174 0.7223
C16 C 0.6597(4) 0.3151(2) 0.5546(4)
H10 H 0.6225 0.2818 0.5278
C17 C 0.6962(4) 0.5684(2) 0.4483(4)
H11 H 0.7177 0.6021 0.4869
C18 C 0.6269(4) 0.3463(2) 0.6315(4)
H12 H 0.5674 0.3344 0.6581
C19 C 1.0979(4) 0.1808(2) 0.6493(4)
H13 H 1.0885 0.1401 0.6595
C20 C 1.1183(4) 0.2179(3) 0.7303(4)
H14 H 1.1219 0.2027 0.7963
C21 C 1.1336(4) 0.2765(3) 0.7165(4)
H15 H 1.1470 0.3017 0.7728
Pb1 Pb 1.13058(2) 0.31451(2) 0.23046(2)
Pb2 Pb 1.05169(2) 0.43510(2) 0.38302(2)
O7 O 1.0000 0.37131(18) 0.2500
O1A O 1.1024(2) 0.47756(14) 0.2064(2)
O2A O 1.0552(2) 0.44436(15) -0.0472(3)
O3A O 0.8500(2) 0.33160(14) 0.0820(2)
O4A O 0.9528(2) 0.25830(14) 0.1372(2)
O5A O 1.2198(2) 0.40950(14) 0.2562(2)
O6A O 1.0770(2) 0.37101(14) 0.0604(2)
C1A C 1.1046(4) 0.4007(2) -0.0130(3)
C2A C 1.1913(3) 0.45553(19) 0.2079(3)
C3A C 0.9001(3) 0.28544(19) 0.0663(3)
C4A C 1.1973(3) 0.38083(19) -0.0545(3)
C5A C 1.2662(3) 0.48752(19) 0.1546(3)
C6A C 1.2533(3) 0.3321(2) -0.0162(3)
H1A H 1.2313 0.3103 0.0370
C7A C 1.2348(3) 0.5368(2) 0.0993(4)
H2A H 1.1659 0.5492 0.0939
C8A C 1.4047(4) 0.5502(2) 0.0610(4)
H3A H 1.4527 0.5719 0.0297
C9A C 0.8933(3) 0.2631(2) -0.0383(3)
C10A C 0.9090(4) 0.2034(2) -0.0525(4)
H4A H 0.9243 0.1782 0.0037
C11A C 0.8702(4) 0.2995(2) -0.1200(4)
H5A H 0.8571 0.3399 -0.1107
C12A C 1.4354(4) 0.5005(2) 0.1161(4)
H6A H 1.5045 0.4884 0.1225
C13A C 1.3667(4) 0.4688(2) 0.1614(4)
H7A H 1.3877 0.4342 0.1973
C14A C 1.2307(4) 0.4120(2) -0.1328(4)
H8A H 1.1930 0.4448 -0.1606
C15A C 1.3189(4) 0.3953(2) -0.1702(4)
H9A H 1.3422 0.4174 -0.2223
C16A C 1.3403(4) 0.3151(2) -0.0546(4)
H10A H 1.3775 0.2818 -0.0278
C17A C 1.3038(4) 0.5684(2) 0.0517(4)
H11A H 1.2823 0.6021 0.0131
C18A C 1.3731(4) 0.3463(2) -0.1315(4)
H12A H 1.4326 0.3344 -0.1581
C19A C 0.9021(4) 0.1808(2) -0.1493(4)
H13A H 0.9115 0.1401 -0.1595
C20A C 0.8817(4) 0.2179(3) -0.2303(4)
H14A H 0.8781 0.2027 -0.2963
C21A C 0.8664(4) 0.2765(3) -0.2165(4)
H15A H 0.8530 0.3017 -0.2728
Pb1A Pb 0.86942(2) 0.31451(2) 0.26954(2)
Pb2A Pb 0.94831(2) 0.43510(2) 0.11698(2)
O2D O 1.0552(2) 0.55564(15) 0.4528(3)
O2E O 0.9448(2) 0.55564(15) 0.0472(3)
Pb2D Pb 0.94831(2) 0.56490(2) 0.61698(2)
Pb2E Pb 1.05169(2) 0.56490(2) -0.11698(2)
loop_
_geom_bond_atom_site_label_1
_geom_bond_atom_site_label_2
_geom_bond_site_symmetry_1
_geom_bond_site_symmetry_2
O1 C2 1_555 1_555
O2 C1 1_555 1_555
O3 C3 1_555 1_555
O4 C3 1_555 1_555
O5 C2 1_555 1_555
O6 C1 1_555 1_555
C1 C4 1_555 1_555
C2 C5 1_555 1_555
C3 C9 1_555 1_555
C4 C6 1_555 1_555
C5 C7 1_555 1_555
C6 H1 1_555 1_555
C7 H2 1_555 1_555
C8 H3 1_555 1_555
C9 C10 1_555 1_555
C10 H4 1_555 1_555
C11 C9 1_555 1_555
H5 C11 1_555 1_555
C12 C8 1_555 1_555
H6 C12 1_555 1_555
C13 C5 1_555 1_555
H7 C13 1_555 1_555
C14 C4 1_555 1_555
H8 C14 1_555 1_555
C15 C14 1_555 1_555
H9 C15 1_555 1_555
C16 C6 1_555 1_555
H10 C16 1_555 1_555
C17 C7 1_555 1_555
H11 C17 1_555 1_555
C18 C15 1_555 1_555
H12 C18 1_555 1_555
C19 C10 1_555 1_555
H13 C19 1_555 1_555
C20 C19 1_555 1_555
H14 C20 1_555 1_555
C21 C11 1_555 1_555
H15 C21 1_555 1_555
Pb1 O3 1_555 1_555
Pb2 O1 1_555 1_555
O7 Pb1 1_555 1_555
O1A Pb2 1_555 1_555
O2A C1A 1_555 1_555
O3A C3A 1_555 1_555
O4A Pb1 1_555 1_555
O5A Pb1 1_555 1_555
O6A Pb1 1_555 1_555
C1A O6A 1_555 1_555
C2A O1A 1_555 1_555
C3A O4A 1_555 1_555
C4A C1A 1_555 1_555
C5A C2A 1_555 1_555
C6A C4A 1_555 1_555
H1A C6A 1_555 1_555
C7A C5A 1_555 1_555
H2A C7A 1_555 1_555
C8A H3A 1_555 1_555
C9A C3A 1_555 1_555
C10A C9A 1_555 1_555
H4A C10A 1_555 1_555
C11A C9A 1_555 1_555
H5A C11A 1_555 1_555
C12A C8A 1_555 1_555
H6A C12A 1_555 1_555
C13A C5A 1_555 1_555
H7A C13A 1_555 1_555
C14A C4A 1_555 1_555
H8A C14A 1_555 1_555
C15A C14A 1_555 1_555
H9A C15A 1_555 1_555
C16A C6A 1_555 1_555
H10A C16A 1_555 1_555
C17A C7A 1_555 1_555
H11A C17A 1_555 1_555
C18A C15A 1_555 1_555
H12A C18A 1_555 1_555
C19A C10A 1_555 1_555
H13A C19A 1_555 1_555
C20A C19A 1_555 1_555
H14A C20A 1_555 1_555
C21A C11A 1_555 1_555
H15A C21A 1_555 1_555
Pb1A O4 1_555 1_555
Pb2A O1 1_555 1_555
O2D Pb2 1_555 1_555
O2E Pb2A 1_555 1_555
Pb2D O2 1_555 1_555
Pb2E O2A 1_555 1_555
O2 Pb2 1_555 1_555
O3 Pb2 1_555 1_555
O4 Pb1 1_555 1_555
O5 Pb1A 1_555 1_555
O6 Pb2 1_555 1_555
O6 Pb1A 1_555 1_555
C8 C17 1_555 1_555
C12 C13 1_555 1_555
C16 C18 1_555 1_555
C20 C21 1_555 1_555
Pb2 O7 1_555 1_555
O7 Pb1A 1_555 1_555
O7 Pb2A 1_555 1_555
O1A Pb2A 1_555 1_555
O2A Pb2A 1_555 1_555
O3A Pb1A 1_555 1_555
O3A Pb2A 1_555 1_555
O4A Pb1A 1_555 1_555
O5A C2A 1_555 1_555
O6A Pb2A 1_555 1_555
C8A C17A 1_555 1_555
C12A C13A 1_555 1_555
C16A C18A 1_555 1_555
C20A C21A 1_555 1_555
O2D Pb2D 1_555 1_555
O2E Pb2E 1_555 1_555

#END
