
#######################################################################
#
#                 Cambridge Crystallographic Data Centre
#                                CCDC 
#
#######################################################################
#
# If this CIF has been generated from an entry in the Cambridge 
# Structural Database, then it will include bibliographic, chemical, 
# crystal, experimental, refinement or atomic coordinate data resulting 
# from the CCDC's data processing and validation procedures.
#
#######################################################################

data_FOCHEK
_symmetry_cell_setting           triclinic
_symmetry_space_group_name_H-M   'P -1'
_symmetry_Int_Tables_number      2
_space_group_name_Hall           '-P 1'
loop_
_symmetry_equiv_pos_site_id
_symmetry_equiv_pos_as_xyz
1 x,y,z
2 -x,-y,-z
_cell_length_a                   13.470(4)
_cell_length_b                   11.656(5)
_cell_length_c                   10.185(3)
_cell_angle_alpha                104.89(3)
_cell_angle_beta                 107.29(2)
_cell_angle_gamma                104.99(4)
_cell_volume                     1374.89
loop_
_atom_site_label
_atom_site_type_symbol
_atom_site_fract_x
_atom_site_fract_y
_atom_site_fract_z
N12 N 0.084(3) 0.834(3) 0.568(4)
O13 O 0.078(3) 0.853(3) 0.688(4)
O14 O 0.124(3) 0.759(4) 0.520(4)
O15 O -0.001(7) 0.812(8) 0.467(9)
N13 N 0.238(4) 1.168(5) 0.608(6)
O16 O 0.281(3) 1.210(4) 0.562(4)
O17 O 0.239(6) 1.197(6) 0.740(8)
O18 O 0.159(8) 1.072(9) 0.54(1)
Pt1 Pt 0.9193(1) 0.0415(1) 0.8898(1)
Pt2 Pt 0.7571(2) 0.1572(1) 0.8059(1)
Ag1 Ag 0.5882(1) 0.2662(2) 0.7587(2)
Ag2 Ag 0.4081(2) 0.4252(2) 0.2638(3)
N1 N 1.032(2) 0.094(2) 0.803(3)
N2 N 0.863(2) -0.134(2) 0.739(3)
N3 N 0.685(2) 0.048(2) 0.588(3)
N4 N 0.857(2) 0.296(2) 0.762(2)
N5 N 0.836(2) 0.435(2) 1.224(2)
C1 C 0.776(3) 0.514(4) 1.280(4)
C2 C 0.779(2) 0.341(2) 1.082(3)
O1 O 0.678(2) 0.326(2) 1.016(2)
N6 N 0.832(2) 0.272(2) 1.021(2)
C3 C 0.940(2) 0.291(2) 1.102(2)
O2 O 0.990(2) 0.217(2) 1.057(2)
C4 C 1.001(2) 0.392(2) 1.244(3)
C5 C 0.947(2) 0.462(3) 1.296(3)
N7 N 0.480(2) -0.103(2) 0.827(2)
C6 C 0.356(2) -0.143(3) 0.757(3)
C7 C 0.545(2) -0.009(3) 0.797(3)
O3 O 0.501(2) 0.039(2) 0.717(2)
N8 N 0.660(2) 0.018(2) 0.854(2)
C8 C 0.703(2) -0.042(2) 0.932(3)
O4 O 0.809(2) -0.023(2) 0.977(2)
C9 C 0.636(2) -0.134(3) 0.973(3)
C10 C 0.524(3) -0.158(3) 0.919(3)
N9 N 0.196(2) 0.427(3) 0.075(3)
O5 O 0.251(2) 0.505(2) 0.203(3)
O6 O 0.220(2) 0.327(2) 0.044(3)
O7 O 0.114(2) 0.437(2) -0.008(3)
N10 N 0.494(3) 0.290(4) 0.439(4)
O8 O 0.567(3) 0.394(3) 0.454(4)
O9 O 0.393(3) 0.258(3) 0.359(4)
O10 O 0.532(3) 0.216(4) 0.505(5)
N11 N 0.474(4) 0.432(4) 0.880(5)
O11 O 0.474(2) 0.391(2) 0.761(2)
O12 O 0.432(4) 0.373(4) 0.947(5)
Pt1A Pt 1.0807(1) -0.0415(1) 1.1102(1)
O11A O 0.526(2) 0.609(2) 0.239(2)
Ag2A Ag 0.5919(2) 0.5748(2) 0.7362(3)
Pt2A Pt 1.2429(2) -0.1572(1) 1.1941(1)
N1A N 0.968(2) -0.094(2) 1.197(3)
N2A N 1.137(2) 0.134(2) 1.261(3)
O2A O 1.010(2) -0.217(2) 0.943(2)
O4A O 1.191(2) 0.023(2) 1.023(2)
Ag1A Ag 0.4118(1) 0.7338(2) 0.2413(2)
N11A N 0.526(4) 0.568(4) 0.120(5)
O5A O 0.749(2) 0.495(2) 0.797(3)
O6A O 0.780(2) 0.673(2) 0.956(3)
O8A O 0.433(3) 0.606(3) 0.546(4)
O9A O 0.607(3) 0.742(3) 0.641(4)
Ag1A_2 Ag 1.4118(1) -0.2662(2) 1.2413(2)
N3A N 1.315(2) -0.048(2) 1.412(3)
N4A N 1.143(2) -0.296(2) 1.238(2)
N6A N 1.168(2) -0.272(2) 0.979(2)
N8A N 1.340(2) -0.018(2) 1.146(2)
C3A C 1.060(2) -0.291(2) 0.898(2)
C8A C 1.297(2) 0.042(2) 1.068(3)
Pt2A_2 Pt 0.2429(2) 0.8428(1) 0.1941(1)
O1A O 0.322(2) 0.674(2) -0.016(2)
O3A O 0.499(2) 0.961(2) 0.283(2)
O10A O 0.468(3) 0.784(4) 0.495(5)
O12A O 0.568(4) 0.627(4) 0.053(5)
N9A N 0.804(2) 0.573(3) 0.925(3)
N10A N 0.506(3) 0.710(4) 0.561(4)
C2A C 1.221(2) -0.341(2) 0.918(3)
C7A C 1.455(2) 0.009(3) 1.203(3)
C4A C 0.999(2) -0.392(2) 0.756(3)
C9A C 1.364(2) 0.134(3) 1.027(3)
C2A_2 C 0.221(2) 0.659(2) -0.082(3)
C7A_2 C 0.455(2) 1.009(3) 0.203(3)
O7A O 0.886(2) 0.563(2) 1.008(3)
N5A N 1.164(2) -0.435(2) 0.776(2)
O1A_2 O 1.322(2) -0.326(2) 0.984(2)
N7A N 1.520(2) 0.103(2) 1.173(2)
O3A_2 O 1.499(2) -0.039(2) 1.283(2)
C5A C 1.053(2) -0.462(3) 0.704(3)
C10A C 1.476(3) 0.158(3) 1.081(3)
C1A C 1.224(3) -0.514(4) 0.720(4)
C6A C 1.644(2) 0.143(3) 1.243(3)
loop_
_geom_bond_atom_site_label_1
_geom_bond_atom_site_label_2
_geom_bond_site_symmetry_1
_geom_bond_site_symmetry_2
Pt1 Pt2 1_555 1_555
Pt2 Ag1 1_555 1_555
Ag1 O1 1_555 1_555
Ag2 O5 1_555 1_555
N1 Pt1 1_555 1_555
N2 Pt1 1_555 1_555
N3 Pt2 1_555 1_555
N4 Pt2 1_555 1_555
N5 C1 1_555 1_555
C2 N5 1_555 1_555
O1 C2 1_555 1_555
N6 Pt2 1_555 1_555
C3 N6 1_555 1_555
O2 Pt1 1_555 1_555
C4 C3 1_555 1_555
C5 N5 1_555 1_555
N7 C6 1_555 1_555
C7 N7 1_555 1_555
O3 Ag1 1_555 1_555
N8 Pt2 1_555 1_555
C8 N8 1_555 1_555
O4 Pt1 1_555 1_555
C9 C8 1_555 1_555
C10 N7 1_555 1_555
N9 O5 1_555 1_555
O6 Ag2 1_555 1_555
O7 N9 1_555 1_555
N10 O8 1_555 1_555
O8 Ag2 1_555 1_555
O9 Ag2 1_555 1_555
O10 Ag1 1_555 1_555
N11 O11 1_555 1_555
O11 Ag1 1_555 1_555
O12 N11 1_555 1_555
N12 O13 1_555 1_555
O14 N12 1_555 1_555
O15 N12 1_555 1_555
N13 O16 1_555 1_555
O17 N13 1_555 1_555
O18 N13 1_555 1_555
Pt1A Pt1 1_555 1_555
O11A Ag2 1_555 1_555
Ag2A O11 1_555 1_555
Pt2A Pt1A 1_555 1_555
N1A Pt1A 1_555 1_555
N2A Pt1A 1_555 1_555
O2A Pt1A 1_555 1_555
O4A Pt1A 1_555 1_555
Ag1A O11A 1_555 1_555
N11A O11A 1_555 1_555
O5A Ag2A 1_555 1_555
O6A Ag2A 1_555 1_555
O8A Ag2A 1_555 1_555
O9A Ag2A 1_555 1_555
Ag1A_2 Pt2A 1_555 1_555
N3A Pt2A 1_555 1_555
N4A Pt2A 1_555 1_555
N6A Pt2A 1_555 1_555
N8A Pt2A 1_555 1_555
C3A O2A 1_555 1_555
C8A O4A 1_555 1_555
Pt2A_2 Ag1A 1_555 1_555
O1A Ag1A 1_555 1_555
O3A Ag1A 1_555 1_555
O10A Ag1A 1_555 1_555
O12A N11A 1_555 1_555
N9A O5A 1_555 1_555
N10A O8A 1_555 1_555
C2A N6A 1_555 1_555
C7A N8A 1_555 1_555
C4A C3A 1_555 1_555
C9A C8A 1_555 1_555
C2A_2 O1A 1_555 1_555
C7A_2 O3A 1_555 1_555
O7A N9A 1_555 1_555
N5A C2A 1_555 1_555
O1A_2 C2A 1_555 1_555
N7A C7A 1_555 1_555
O3A_2 C7A 1_555 1_555
C5A C4A 1_555 1_555
C10A C9A 1_555 1_555
C1A N5A 1_555 1_555
C6A N7A 1_555 1_555
C2 N6 1_555 1_555
C3 O2 1_555 1_555
C4 C5 1_555 1_555
C7 O3 1_555 1_555
C7 N8 1_555 1_555
C8 O4 1_555 1_555
C9 C10 1_555 1_555
N9 O6 1_555 1_555
N10 O9 1_555 1_555
N10 O10 1_555 1_555
O6A N9A 1_555 1_555
O9A N10A 1_555 1_555
N6A C3A 1_555 1_555
N8A C8A 1_555 1_555
O10A N10A 1_555 1_555
N5A C5A 1_555 1_555
N7A C10A 1_555 1_555

#END
