
#######################################################################
#
#                 Cambridge Crystallographic Data Centre
#                                CCDC 
#
#######################################################################
#
# If this CIF has been generated from an entry in the Cambridge 
# Structural Database, then it will include bibliographic, chemical, 
# crystal, experimental, refinement or atomic coordinate data resulting 
# from the CCDC's data processing and validation procedures.
#
#######################################################################

data_FOCLOZ
_symmetry_cell_setting           monoclinic
_symmetry_space_group_name_H-M   'P 21/c'
_symmetry_Int_Tables_number      14
_space_group_name_Hall           '-P 2ybc'
loop_
_symmetry_equiv_pos_site_id
_symmetry_equiv_pos_as_xyz
1 x,y,z
2 -x,1/2+y,1/2-z
3 -x,-y,-z
4 x,1/2-y,1/2+z
_cell_length_a                   21.855(4)
_cell_length_b                   13.016(3)
_cell_length_c                   23.379(5)
_cell_angle_alpha                90
_cell_angle_beta                 100.46(3)
_cell_angle_gamma                90
_cell_volume                     6539.98
loop_
_atom_site_label
_atom_site_type_symbol
_atom_site_fract_x
_atom_site_fract_y
_atom_site_fract_z
Mo1 Mo 0.08777(4) 0.34167(8) 0.99626(4)
Mo2 Mo 0.13038(4) 0.35434(8) 0.86290(4)
Mo3 Mo 0.18504(5) 0.10287(8) 1.00785(4)
Mo4 Mo 0.24830(5) 0.14336(8) 0.88764(4)
Mo5 Mo 0.34191(5) 0.12067(9) 1.01993(5)
Mo6 Mo 0.14869(5) 0.56196(8) 0.95240(4)
Mo7 Mo 0.20975(4) 0.29858(8) 1.12822(4)
Mo8 Mo 0.25417(5) 0.53923(9) 1.09742(5)
Mo9 Mo 0.29693(4) 0.40821(8) 0.85459(4)
Mo10 Mo 0.40788(5) 0.36720(10) 0.97522(5)
Mo11 Mo 0.36119(5) 0.34725(10) 1.12043(4)
Mo12 Mo 0.32027(5) 0.58556(9) 0.96327(5)
As1 As 0.24959(5) 0.34724(9) 0.98870(5)
Cu1 Cu -0.00518(6) 0.28238(10) 0.75222(6)
Cu2 Cu 0.30784(6) -0.17171(11) 0.75604(7)
Cu3 Cu 0.46773(10) -0.54809(16) 0.86204(9)
O1 O 0.0726(3) 0.3271(6) 0.9087(3)
O2 O 0.2880(3) 0.2556(5) 0.8676(3)
O3 O 0.2121(3) 0.4099(6) 0.8461(3)
O4 O 0.3966(3) 0.3845(6) 1.0568(3)
O5 O 0.3392(4) 0.7095(7) 0.9571(4)
O6 O 0.2275(3) 0.5894(6) 0.9412(3)
O7 O 0.1366(3) 0.3432(5) 1.0677(3)
O8 O 0.1144(4) 0.6769(6) 0.9473(3)
O9 O 0.2388(4) 0.0708(6) 0.8276(3)
O10 O 0.0833(3) 0.4803(6) 0.9833(3)
O11 O 0.1235(3) 0.2014(5) 0.9889(3)
O12 O 0.3019(3) 0.4051(6) 0.9552(3)
O13 O 0.2565(4) 0.6487(7) 1.1357(4)
O14 O 0.0170(3) 0.3114(6) 1.0093(3)
O15 O 0.3137(4) 0.0826(6) 0.9355(3)
O16 O 0.4222(4) 0.3241(8) 1.1734(4)
O17 O 0.2159(3) 0.4508(6) 1.1415(3)
O18 O 0.3506(3) 0.2082(7) 1.0819(3)
O19 O 0.1927(3) 0.0659(6) 0.9338(3)
O20 O 0.4861(3) 0.3624(8) 0.9821(4)
O21 O 0.2061(3) 0.1832(6) 1.0833(3)
O22 O 0.2718(4) 0.0516(6) 1.0332(3)
O23 O 0.1889(4) 0.5574(6) 1.0366(3)
O24 O 0.1781(3) 0.3873(5) 0.9595(3)
O25 O 0.2930(3) 0.2931(6) 1.1594(3)
O26 O 0.3120(3) 0.5425(5) 0.8793(3)
O27 O 0.1715(3) 0.2318(6) 0.8705(3)
O28 O 0.3854(3) 0.2340(6) 0.9832(3)
O29 O 0.3351(4) 0.4747(8) 1.1366(3)
O30 O 0.3962(3) 0.5185(7) 0.9767(3)
O31 O 0.1749(3) 0.2630(6) 1.1828(3)
O32 O 0.3856(3) -0.6231(6) 0.8947(3)
O33 O 0.3058(3) 0.5749(6) 1.0385(3)
O34 O 0.3115(4) 0.4083(6) 0.7872(3)
O35 O 0.0872(3) 0.3498(6) 0.7944(3)
O36 O 0.2538(3) 0.2211(6) 0.9794(3)
O37 O 0.1471(4) 0.0008(5) 1.0302(3)
O38 O 0.2640(3) 0.3734(6) 1.0596(3)
O39 O 0.1199(3) 0.5048(5) 0.8815(3)
O40 O 0.4003(4) 0.0363(7) 1.0394(4)
N1 N 0.0257(4) 0.1474(7) 0.7226(4)
N2 N -0.0068(4) 0.3697(6) 0.6817(4)
N3 N -0.0527(4) 0.2718(7) 0.8151(4)
N4 N 0.2287(4) -0.1468(7) 0.7875(4)
N5 N 0.2968(4) -0.3098(7) 0.7221(4)
N6 N 0.3696(5) -0.0653(9) 0.7806(4)
N7 N 0.4492(4) -0.4109(9) 0.8472(5)
N8 N 0.5258(4) -0.6478(9) 0.8509(5)
C1 C 0.0204(5) 0.0294(8) 0.6441(5)
H1 H 0.0060 0.0151 0.6050
C2 C 0.0067(4) 0.1220(8) 0.6675(5)
H2 H -0.0171 0.1692 0.6432
C3 C 0.0624(5) 0.0804(8) 0.7563(5)
H3 H 0.0787 0.0996 0.7944
C4 C 0.0777(5) -0.0165(8) 0.7377(4)
C5 C 0.1244(5) -0.0791(8) 0.7749(4)
C6 C 0.1185(5) -0.1153(8) 0.8304(5)
C7 C 0.1708(5) -0.1641(8) 0.8638(5)
H4 H 0.1691 -0.1882 0.9009
C8 C 0.2242(5) -0.1759(9) 0.8413(5)
H5 H 0.2587 -0.2054 0.8646
C9 C 0.1803(5) -0.0989(8) 0.7569(5)
H6 H 0.1841 -0.0763 0.7200
C10 C 0.0452(5) 0.3708(8) 0.6593(5)
H7 H 0.0825 0.3568 0.6842
C11 C 0.0476(5) 0.3906(8) 0.6033(5)
H8 H 0.0856 0.3908 0.5906
C12 C -0.0062(6) 0.4103(8) 0.5653(5)
H9 H -0.0058 0.4229 0.5262
C13 C -0.0617(6) 0.4111(9) 0.5867(5)
H10 H -0.0991 0.4256 0.5620
C14 C -0.0608(5) 0.3902(8) 0.6448(5)
C15 C -0.0643(5) 0.1791(9) 0.8354(5)
H11 H -0.0546 0.1212 0.8155
C16 C -0.0901(5) 0.1655(9) 0.8852(5)
H12 H -0.0978 0.0998 0.8979
C17 C -0.1039(5) 0.2492(9) 0.9148(5)
H13 H -0.1220 0.2421 0.9476
C18 C -0.0907(4) 0.3454(8) 0.8953(4)
H14 H -0.0981 0.4037 0.9159
C19 C -0.0666(5) 0.3544(8) 0.8453(4)
C20 C 0.0558(5) -0.0418(8) 0.6793(4)
C21 C 0.2495(6) -0.3690(10) 0.7336(6)
H15 H 0.2276 -0.3487 0.7623
C22 C 0.2334(8) -0.4588(12) 0.7034(7)
H16 H 0.1998 -0.4969 0.7109
C23 C 0.2645(10) -0.4909(14) 0.6649(7)
H17 H 0.2537 -0.5524 0.6454
C24 C 0.3124(9) -0.4351(13) 0.6529(6)
H18 H 0.3343 -0.4568 0.6245
C25 C 0.3287(6) -0.3462(11) 0.6831(5)
C26 C 0.3576(7) 0.0359(10) 0.7748(6)
H19 H 0.3204 0.0555 0.7515
C27 C 0.3962(8) 0.1125(13) 0.8007(7)
H20 H 0.3865 0.1813 0.7931
C28 C 0.4479(9) 0.0853(15) 0.8373(8)
H21 H 0.4731 0.1356 0.8578
C29 C 0.4640(7) -0.0145(14) 0.8447(7)
H22 H 0.5014 -0.0332 0.8681
C30 C 0.4228(6) -0.0905(12) 0.8162(6)
C31 C 0.4518(6) -0.3405(13) 0.8909(6)
H23 H 0.4579 -0.3636 0.9292
C32 C 0.4459(6) -0.2393(13) 0.8807(6)
H24 H 0.4494 -0.1937 0.9118
C33 C 0.4348(5) -0.2027(12) 0.8250(5)
C34 C 0.4318(5) -0.2718(10) 0.7786(5)
C35 C 0.4390(5) -0.3735(11) 0.7911(5)
H25 H 0.4370 -0.4199 0.7606
C36 C 0.5685(7) -0.6855(11) 0.8938(6)
H26 H 0.5670 -0.6671 0.9319
C37 C 0.6137(6) -0.7496(10) 0.8834(6)
H27 H 0.6423 -0.7745 0.9147
C38 C 0.3810(6) -0.2798(9) 0.6730(5)
C39 C 0.4269(6) -0.2399(10) 0.7174(5)
C40 C 0.5289(6) -0.6798(10) 0.7962(6)
H28 H 0.4978 -0.6579 0.7661
Mo1_2 Mo 0.08777(4) -0.65833(8) 0.99626(4)
Mo2_2 Mo 0.13038(4) -0.64566(8) 0.86290(4)
Mo3_2 Mo 0.18504(5) -0.89713(8) 1.00785(4)
Mo4_2 Mo 0.24830(5) -0.85664(8) 0.88764(4)
Mo5_2 Mo 0.34191(5) -0.87933(9) 1.01993(5)
Mo6_2 Mo 0.14869(5) -0.43804(8) 0.95240(4)
Mo7_2 Mo 0.20975(4) -0.70142(8) 1.12822(4)
Mo8_2 Mo 0.25417(5) -0.46077(9) 1.09742(5)
Mo9_2 Mo 0.29693(4) -0.59179(8) 0.85459(4)
Mo10_2 Mo 0.40788(5) -0.63280(10) 0.97522(5)
Mo11_2 Mo 0.36119(5) -0.65275(10) 1.12043(4)
Mo12_2 Mo 0.32027(5) -0.41444(9) 0.96327(5)
As1_2 As 0.24959(5) -0.65276(9) 0.98870(5)
Cu1A Cu 0.00518(6) -0.21762(10) 0.74778(6)
Cu1A_2 Cu 0.00518(6) 0.78238(10) 0.74778(6)
Cu1_2 Cu -0.00518(6) -0.71762(10) 0.75222(6)
Cu2A Cu -0.30784(6) 0.32829(11) 0.74396(7)
Cu2A_2 Cu 0.69216(6) -0.67171(11) 0.74396(7)
Cu3_2 Cu 0.46773(10) 0.45191(16) 0.86204(9)
Cu3A Cu 0.53227(10) -0.04809(16) 0.63796(9)
Cu3A_2 Cu 0.53227(10) -1.04809(16) 0.63796(9)
O1_2 O 0.0726(3) -0.6729(6) 0.9087(3)
O2_2 O 0.2880(3) -0.7444(5) 0.8676(3)
O3_2 O 0.2121(3) -0.5901(6) 0.8461(3)
O4_2 O 0.3966(3) -0.6155(6) 1.0568(3)
O5_2 O 0.3392(4) -0.2905(7) 0.9571(4)
O6_2 O 0.2275(3) -0.4106(6) 0.9412(3)
O7_2 O 0.1366(3) -0.6568(5) 1.0677(3)
O8_2 O 0.1144(4) -0.3231(6) 0.9473(3)
O9_2 O 0.2388(4) -0.9292(6) 0.8276(3)
O10_2 O 0.0833(3) -0.5197(6) 0.9833(3)
O11_2 O 0.1235(3) -0.7986(5) 0.9889(3)
O12_2 O 0.3019(3) -0.5949(6) 0.9552(3)
O13_2 O 0.2565(4) -0.3513(7) 1.1357(4)
O14_2 O 0.0170(3) -0.6886(6) 1.0093(3)
O15_2 O 0.3137(4) -0.9174(6) 0.9355(3)
O16_2 O 0.4222(4) -0.6759(8) 1.1734(4)
O17_2 O 0.2159(3) -0.5492(6) 1.1415(3)
O18_2 O 0.3506(3) -0.7918(7) 1.0819(3)
O19_2 O 0.1927(3) -0.9341(6) 0.9338(3)
O20_2 O 0.4861(3) -0.6376(8) 0.9821(4)
O21_2 O 0.2061(3) -0.8168(6) 1.0833(3)
O22_2 O 0.2718(4) -0.9484(6) 1.0332(3)
O23_2 O 0.1889(4) -0.4426(6) 1.0366(3)
O24_2 O 0.1781(3) -0.6127(5) 0.9595(3)
O25_2 O 0.2930(3) -0.7069(6) 1.1594(3)
O26_2 O 0.3120(3) -0.4575(5) 0.8793(3)
O27_2 O 0.1715(3) -0.7682(6) 0.8705(3)
O28_2 O 0.3854(3) -0.7660(6) 0.9832(3)
O29_2 O 0.3351(4) -0.5253(8) 1.1366(3)
O30_2 O 0.3962(3) -0.4815(7) 0.9767(3)
O31_2 O 0.1749(3) -0.7370(6) 1.1828(3)
O32_2 O 0.3856(3) 0.3769(6) 0.8947(3)
O33_2 O 0.3058(3) -0.4251(6) 1.0385(3)
O34_2 O 0.3115(4) -0.5917(6) 0.7872(3)
O35A O -0.0872(3) -0.1502(6) 0.7056(3)
O35_2 O 0.0872(3) -0.6502(6) 0.7944(3)
O36_2 O 0.2538(3) -0.7789(6) 0.9794(3)
O37_2 O 0.1471(4) -0.9992(5) 1.0302(3)
O38_2 O 0.2640(3) -0.6266(6) 1.0596(3)
O39_2 O 0.1199(3) -0.4952(5) 0.8815(3)
O40_2 O 0.4003(4) -0.9637(7) 1.0394(4)
N1A N -0.0257(4) 0.6474(7) 0.7774(4)
N1A_2 N -0.0257(4) -0.3526(7) 0.7774(4)
N2A N 0.0068(4) -0.1303(6) 0.8183(4)
N3A N 0.0527(4) -0.2282(7) 0.6849(4)
N4A N -0.2287(4) 0.3532(7) 0.7125(4)
N4A_2 N 0.7713(4) -0.6468(7) 0.7125(4)
N5A N 0.7032(4) -0.8098(7) 0.7779(4)
N6A N 0.6304(5) -0.5653(9) 0.7194(4)
N7A N 0.5508(4) -0.9109(9) 0.6528(5)
N7_2 N 0.4492(4) 0.5891(9) 0.8472(5)
N8A N 0.4742(4) -0.1478(9) 0.6491(5)
N8_2 N 0.5258(4) 0.3522(9) 0.8509(5)
C1A C -0.0204(5) 0.5294(8) 0.8559(5)
H1A H -0.0060 0.5151 0.8950
C2A C -0.0067(4) 0.6220(8) 0.8325(5)
H2A H 0.0171 0.6692 0.8568
C3A C -0.0624(5) 0.5804(8) 0.7437(5)
H3A H -0.0787 0.5996 0.7056
C4A C -0.0777(5) 0.4835(8) 0.7623(4)
C5A C -0.1244(5) 0.4209(8) 0.7251(4)
C6A C -0.1185(5) 0.3847(8) 0.6696(5)
C7A C -0.1708(5) 0.3359(8) 0.6362(5)
H4A H -0.1691 0.3118 0.5991
C8A C -0.2242(5) 0.3241(9) 0.6587(5)
H5A H -0.2587 0.2946 0.6354
C9A C -0.1803(5) 0.4011(8) 0.7431(5)
H6A H -0.1841 0.4237 0.7800
C10A C -0.0452(5) -0.1292(8) 0.8407(5)
H7A H -0.0825 -0.1432 0.8158
C11A C -0.0476(5) -0.1094(8) 0.8967(5)
H8A H -0.0856 -0.1092 0.9094
C12A C 0.0062(6) -0.0897(8) 0.9347(5)
H9A H 0.0058 -0.0771 0.9738
C13A C 0.0617(6) -0.0889(9) 0.9133(5)
H10A H 0.0991 -0.0744 0.9380
C14A C 0.0608(5) -0.1098(8) 0.8552(5)
C15A C 0.0643(5) -0.3209(9) 0.6646(5)
H11A H 0.0546 -0.3788 0.6845
C16A C 0.0901(5) -0.3345(9) 0.6148(5)
H12A H 0.0978 -0.4002 0.6021
C17A C 0.1039(5) -0.2508(9) 0.5852(5)
H13A H 0.1220 -0.2579 0.5524
C18A C 0.0907(4) -0.1546(8) 0.6047(4)
H14A H 0.0981 -0.0963 0.5841
C19A C 0.0666(5) -0.1456(8) 0.6547(4)
C20A C -0.0558(5) 0.4582(8) 0.8207(4)
C21A C 0.7505(6) -0.8690(10) 0.7664(6)
H15A H 0.7724 -0.8487 0.7377
C22A C 0.7666(8) -0.9588(12) 0.7966(7)
H16A H 0.8002 -0.9969 0.7891
C23A C 0.7355(10) -0.9909(14) 0.8351(7)
H17A H 0.7463 -1.0524 0.8546
C24A C 0.6876(9) -0.9351(13) 0.8471(6)
H18A H 0.6657 -0.9568 0.8755
C25A C 0.6713(6) -0.8462(11) 0.8169(5)
C26A C 0.6424(7) -0.4641(10) 0.7252(6)
H19A H 0.6796 -0.4445 0.7485
C27A C 0.6038(8) -0.3875(13) 0.6993(7)
H20A H 0.6135 -0.3187 0.7069
C28A C 0.5521(9) -0.4147(15) 0.6627(8)
H21A H 0.5269 -0.3644 0.6422
C29A C 0.5360(7) -0.5145(14) 0.6553(7)
H22A H 0.4986 -0.5332 0.6319
C30A C 0.5772(6) -0.5905(12) 0.6838(6)
C31A C 0.5482(6) -0.8405(13) 0.6091(6)
H23A H 0.5421 -0.8636 0.5708
C32A C 0.5541(6) -0.7393(13) 0.6193(6)
H24A H 0.5506 -0.6937 0.5882
C33A C 0.5652(5) -0.7027(12) 0.6750(5)
C34A C 0.5682(5) -0.7718(10) 0.7214(5)
C35A C 0.5610(5) -0.8735(11) 0.7089(5)
H25A H 0.5630 -0.9199 0.7394
C36A C 0.4315(7) -0.1855(11) 0.6062(6)
H26A H 0.4330 -0.1671 0.5681
C37A C 0.3863(6) -0.2496(10) 0.6166(6)
H27A H 0.3577 -0.2745 0.5853
C38A C 0.6190(6) -0.7798(9) 0.8270(5)
C39A C 0.5731(6) -0.7399(10) 0.7826(5)
C40A C 0.4711(6) -0.1798(10) 0.7038(6)
H28A H 0.5022 -0.1579 0.7339
O41 O 0.4048(9) 0.3931(17) 0.7116(11)
loop_
_geom_bond_atom_site_label_1
_geom_bond_atom_site_label_2
_geom_bond_site_symmetry_1
_geom_bond_site_symmetry_2
Mo1 O1 1_555 1_555
Mo2 O1 1_555 1_555
Mo3 O11 1_555 1_555
Mo4 O2 1_555 1_555
Mo5 O15 1_555 1_555
Mo6 O6 1_555 1_555
Mo7 O7 1_555 1_555
Mo8 O13 1_555 1_555
Mo9 O2 1_555 1_555
Mo10 O4 1_555 1_555
Mo11 O4 1_555 1_555
Mo12 O5 1_555 1_555
As1 O12 1_555 1_555
Cu1 O35 1_555 1_555
Cu2 N4 1_555 1_555
Cu3 O32 1_555 1_555
O3 Mo2 1_555 1_555
O6 Mo12 1_555 1_555
O7 Mo1 1_555 1_555
O8 Mo6 1_555 1_555
O9 Mo4 1_555 1_555
O10 Mo1 1_555 1_555
O11 Mo1 1_555 1_555
O12 Mo9 1_555 1_555
O14 Mo1 1_555 1_555
O15 Mo4 1_555 1_555
O16 Mo11 1_555 1_555
O17 Mo7 1_555 1_555
O18 Mo5 1_555 1_555
O19 Mo3 1_555 1_555
O20 Mo10 1_555 1_555
O21 Mo3 1_555 1_555
O22 Mo3 1_555 1_555
O23 Mo6 1_555 1_555
O24 Mo1 1_555 1_555
O25 Mo7 1_555 1_555
O26 Mo9 1_555 1_555
O27 Mo2 1_555 1_555
O28 Mo5 1_555 1_555
O29 Mo8 1_555 1_555
O30 Mo10 1_555 1_555
O31 Mo7 1_555 1_555
O32 Mo9_2 1_555 1_555
O33 Mo8 1_555 1_555
O34 Mo9 1_555 1_555
O35 Mo2 1_555 1_555
O36 Mo3 1_555 1_555
O37 Mo3 1_555 1_555
O38 Mo7 1_555 1_555
O39 Mo2 1_555 1_555
O40 Mo5 1_555 1_555
N1 Cu1 1_555 1_555
N2 Cu1 1_555 1_555
N3 Cu1 1_555 1_555
N4 C8 1_555 1_555
N5 Cu2 1_555 1_555
N6 Cu2 1_555 1_555
N7 Cu3 1_555 1_555
N8 Cu3 1_555 1_555
C1 H1 1_555 1_555
C2 N1 1_555 1_555
H2 C2 1_555 1_555
C3 N1 1_555 1_555
H3 C3 1_555 1_555
C4 C3 1_555 1_555
C5 C4 1_555 1_555
C6 C5 1_555 1_555
C7 C6 1_555 1_555
H4 C7 1_555 1_555
C8 C7 1_555 1_555
H5 C8 1_555 1_555
C9 N4 1_555 1_555
H6 C9 1_555 1_555
C10 N2 1_555 1_555
H7 C10 1_555 1_555
C11 C10 1_555 1_555
H8 C11 1_555 1_555
C12 C11 1_555 1_555
H9 C12 1_555 1_555
C13 C12 1_555 1_555
H10 C13 1_555 1_555
C14 N2 1_555 1_555
C15 N3 1_555 1_555
H11 C15 1_555 1_555
C16 C15 1_555 1_555
H12 C16 1_555 1_555
C17 C16 1_555 1_555
H13 C17 1_555 1_555
C18 C17 1_555 1_555
H14 C18 1_555 1_555
C19 N3 1_555 1_555
C20 C1 1_555 1_555
C21 N5 1_555 1_555
H15 C21 1_555 1_555
C22 C21 1_555 1_555
H16 C22 1_555 1_555
C23 C22 1_555 1_555
H17 C23 1_555 1_555
C24 C23 1_555 1_555
H18 C24 1_555 1_555
C25 N5 1_555 1_555
C26 N6 1_555 1_555
H19 C26 1_555 1_555
C27 C26 1_555 1_555
H20 C27 1_555 1_555
C28 C27 1_555 1_555
H21 C28 1_555 1_555
C29 C28 1_555 1_555
H22 C29 1_555 1_555
C30 N6 1_555 1_555
C31 N7 1_555 1_555
H23 C31 1_555 1_555
C32 C31 1_555 1_555
H24 C32 1_555 1_555
C33 C30 1_555 1_555
C34 C33 1_555 1_555
C35 N7 1_555 1_555
H25 C35 1_555 1_555
C36 N8 1_555 1_555
H26 C36 1_555 1_555
C37 C36 1_555 1_555
H27 C37 1_555 1_555
C38 C25 1_555 1_555
C39 C34 1_555 1_555
C40 N8 1_555 1_555
H28 C40 1_555 1_555
Mo1_2 O1_2 1_555 1_555
Mo2_2 O1_2 1_555 1_555
Mo3_2 O11_2 1_555 1_555
Mo4_2 O2_2 1_555 1_555
Mo5_2 O15_2 1_555 1_555
Mo6_2 O6_2 1_555 1_555
Mo7_2 O7_2 1_555 1_555
Mo8_2 O13_2 1_555 1_555
Mo9_2 O2_2 1_555 1_555
Mo10_2 O32 1_555 1_555
Mo11_2 O4_2 1_555 1_555
Mo12_2 O5_2 1_555 1_555
As1_2 O12_2 1_555 1_555
Cu1A O35A 1_555 1_555
Cu1A_2 N1A 1_555 1_555
Cu1_2 O35_2 1_555 1_555
Cu2A N4A 1_555 1_555
Cu2A_2 N4A_2 1_555 1_555
Cu3_2 O32_2 1_555 1_555
Cu3A N8A 1_555 1_555
Cu3A_2 N7A 1_555 1_555
O3_2 Mo2_2 1_555 1_555
O4_2 Mo10_2 1_555 1_555
O6_2 Mo12_2 1_555 1_555
O7_2 Mo1_2 1_555 1_555
O8_2 Mo6_2 1_555 1_555
O9_2 Mo4_2 1_555 1_555
O10_2 Mo1_2 1_555 1_555
O11_2 Mo1_2 1_555 1_555
O12_2 Mo9_2 1_555 1_555
O14_2 Mo1_2 1_555 1_555
O15_2 Mo4_2 1_555 1_555
O16_2 Mo11_2 1_555 1_555
O17_2 Mo7_2 1_555 1_555
O18_2 Mo5_2 1_555 1_555
O19_2 Mo3_2 1_555 1_555
O20_2 Mo10_2 1_555 1_555
O21_2 Mo3_2 1_555 1_555
O22_2 Mo3_2 1_555 1_555
O23_2 Mo6_2 1_555 1_555
O24_2 Mo1_2 1_555 1_555
O25_2 Mo7_2 1_555 1_555
O26_2 Mo9_2 1_555 1_555
O27_2 Mo2_2 1_555 1_555
O28_2 Mo5_2 1_555 1_555
O29_2 Mo8_2 1_555 1_555
O30_2 Mo10_2 1_555 1_555
O31_2 Mo7_2 1_555 1_555
O32_2 Mo9 1_555 1_555
O33_2 Mo8_2 1_555 1_555
O34_2 Mo9_2 1_555 1_555
O35_2 Mo2_2 1_555 1_555
O36_2 Mo3_2 1_555 1_555
O37_2 Mo3_2 1_555 1_555
O38_2 Mo7_2 1_555 1_555
O39_2 Mo2_2 1_555 1_555
O40_2 Mo5_2 1_555 1_555
N1A C2A 1_555 1_555
N1A_2 Cu1A 1_555 1_555
N2A Cu1A 1_555 1_555
N3A Cu1A 1_555 1_555
N4A C8A 1_555 1_555
N5A Cu2A_2 1_555 1_555
N6A Cu2A_2 1_555 1_555
N7A C31A 1_555 1_555
N7_2 Cu3_2 1_555 1_555
N8A C36A 1_555 1_555
N8_2 Cu3_2 1_555 1_555
C1A H1A 1_555 1_555
C2A C1A 1_555 1_555
H2A C2A 1_555 1_555
C3A N1A 1_555 1_555
H3A C3A 1_555 1_555
C4A C3A 1_555 1_555
C5A C4A 1_555 1_555
C6A C14 1_555 1_555
C7A C6A 1_555 1_555
H4A C7A 1_555 1_555
C8A C7A 1_555 1_555
H5A C8A 1_555 1_555
C9A N4A 1_555 1_555
H6A C9A 1_555 1_555
C10A N2A 1_555 1_555
H7A C10A 1_555 1_555
C11A C10A 1_555 1_555
H8A C11A 1_555 1_555
C12A C11A 1_555 1_555
H9A C12A 1_555 1_555
C13A C12A 1_555 1_555
H10A C13A 1_555 1_555
C14A C6 1_555 1_555
C15A N3A 1_555 1_555
H11A C15A 1_555 1_555
C16A C15A 1_555 1_555
H12A C16A 1_555 1_555
C17A C16A 1_555 1_555
H13A C17A 1_555 1_555
C18A C17A 1_555 1_555
H14A C18A 1_555 1_555
C19A C20 1_555 1_555
C20A C19 1_555 1_555
C21A N5A 1_555 1_555
H15A C21A 1_555 1_555
C22A C21A 1_555 1_555
H16A C22A 1_555 1_555
C23A C22A 1_555 1_555
H17A C23A 1_555 1_555
C24A C23A 1_555 1_555
H18A C24A 1_555 1_555
C25A N5A 1_555 1_555
C26A N6A 1_555 1_555
H19A C26A 1_555 1_555
C27A C26A 1_555 1_555
H20A C27A 1_555 1_555
C28A C27A 1_555 1_555
H21A C28A 1_555 1_555
C29A C28A 1_555 1_555
H22A C29A 1_555 1_555
C30A N6A 1_555 1_555
C31A H23A 1_555 1_555
C32A C31A 1_555 1_555
H24A C32A 1_555 1_555
C33A C30A 1_555 1_555
C34A C33A 1_555 1_555
C35A N7A 1_555 1_555
H25A C35A 1_555 1_555
C36A H26A 1_555 1_555
C37A C38 1_555 1_555
H27A C37A 1_555 1_555
C38A C37 1_555 1_555
C39A C40 1_555 1_555
C40A C39 1_555 1_555
H28A C40A 1_555 1_555
Mo2 O24 1_555 1_555
Mo4 O19 1_555 1_555
Mo4 O27 1_555 1_555
Mo4 O36 1_555 1_555
Mo5 O22 1_555 1_555
Mo5 O36 1_555 1_555
Mo6 O10 1_555 1_555
Mo6 O24 1_555 1_555
Mo6 O39 1_555 1_555
Mo7 O21 1_555 1_555
Mo8 O17 1_555 1_555
Mo8 O23 1_555 1_555
Mo8 O38 1_555 1_555
Mo9 O3 1_555 1_555
Mo10 O12 1_555 1_555
Mo10 O28 1_555 1_555
Mo10 O32_2 1_555 1_555
Mo11 O18 1_555 1_555
Mo11 O25 1_555 1_555
Mo11 O29 1_555 1_555
Mo11 O38 1_555 1_555
Mo12 O12 1_555 1_555
Mo12 O26 1_555 1_555
Mo12 O30 1_555 1_555
Mo12 O33 1_555 1_555
As1 O24 1_555 1_555
As1 O36 1_555 1_555
As1 O38 1_555 1_555
C1 C2 1_555 1_555
C4 C20 1_555 1_555
C5 C9 1_555 1_555
C13 C14 1_555 1_555
C18 C19 1_555 1_555
C24 C25 1_555 1_555
C29 C30 1_555 1_555
C32 C33 1_555 1_555
C34 C35 1_555 1_555
C38 C39 1_555 1_555
Mo2_2 O24_2 1_555 1_555
Mo4_2 O19_2 1_555 1_555
Mo4_2 O27_2 1_555 1_555
Mo4_2 O36_2 1_555 1_555
Mo5_2 O22_2 1_555 1_555
Mo5_2 O36_2 1_555 1_555
Mo6_2 O10_2 1_555 1_555
Mo6_2 O24_2 1_555 1_555
Mo6_2 O39_2 1_555 1_555
Mo7_2 O21_2 1_555 1_555
Mo8_2 O17_2 1_555 1_555
Mo8_2 O23_2 1_555 1_555
Mo8_2 O38_2 1_555 1_555
Mo9_2 O3_2 1_555 1_555
Mo10_2 O12_2 1_555 1_555
Mo10_2 O28_2 1_555 1_555
Mo11_2 O18_2 1_555 1_555
Mo11_2 O25_2 1_555 1_555
Mo11_2 O29_2 1_555 1_555
Mo11_2 O38_2 1_555 1_555
Mo12_2 O12_2 1_555 1_555
Mo12_2 O26_2 1_555 1_555
Mo12_2 O30_2 1_555 1_555
Mo12_2 O33_2 1_555 1_555
As1_2 O24_2 1_555 1_555
As1_2 O36_2 1_555 1_555
As1_2 O38_2 1_555 1_555
N2A C14A 1_555 1_555
N3A C19A 1_555 1_555
N8A C40A 1_555 1_555
C1A C20A 1_555 1_555
C4A C20A 1_555 1_555
C5A C6A 1_555 1_555
C5A C9A 1_555 1_555
C13A C14A 1_555 1_555
C18A C19A 1_555 1_555
C24A C25A 1_555 1_555
C25A C38A 1_555 1_555
C29A C30A 1_555 1_555
C32A C33A 1_555 1_555
C34A C35A 1_555 1_555
C34A C39A 1_555 1_555
C36A C37A 1_555 1_555
C38A C39A 1_555 1_555

#END
