
#######################################################################
#
#                 Cambridge Crystallographic Data Centre
#                                CCDC 
#
#######################################################################
#
# If this CIF has been generated from an entry in the Cambridge 
# Structural Database, then it will include bibliographic, chemical, 
# crystal, experimental, refinement or atomic coordinate data resulting 
# from the CCDC's data processing and validation procedures.
#
#######################################################################

data_FOCTOI
_symmetry_cell_setting           monoclinic
_symmetry_space_group_name_H-M   'C 2/c'
_symmetry_Int_Tables_number      15
_space_group_name_Hall           '-C 2yn'
loop_
_symmetry_equiv_pos_site_id
_symmetry_equiv_pos_as_xyz
1 x,y,z
2 -x,y,1/2-z
3 1/2+x,1/2+y,z
4 1/2-x,1/2+y,1/2-z
5 -x,-y,-z
6 x,-y,1/2+z
7 1/2-x,1/2-y,-z
8 1/2+x,1/2-y,1/2+z
_cell_length_a                   32.4383(11)
_cell_length_b                   16.1532(4)
_cell_length_c                   14.8332(8)
_cell_angle_alpha                90
_cell_angle_beta                 107.194(3)
_cell_angle_gamma                90
_cell_volume                     7424.98
loop_
_atom_site_label
_atom_site_type_symbol
_atom_site_fract_x
_atom_site_fract_y
_atom_site_fract_z
O5 O 0.4528(8) 0.6086(11) 0.2734(9)
O6 O 0.4380(3) 0.5970(6) 0.0987(7)
N7 N 0.4246(8) 0.5707(18) 0.1833(11)
O7 O 0.4331(5) 0.2710(8) 0.0903(10)
O8 O 0.4191(3) 0.3908(6) 0.1820(8)
N8 N 0.3987(4) 0.3287(12) 0.1047(11)
O9 O 0.4361(2) 0.1013(5) 0.1062(6)
H33 H 0.4478 0.1420 0.0915
H34 H 0.4525 0.0798 0.1534
O10 O 0.3560(2) 0.4205(6) 0.2227(7)
H35 H 0.3701 0.3870 0.1725
H36 H 0.3718 0.4360 0.2740
O11 O 0.5677(6) 0.4744(10) 0.1405(16)
H37 H 0.5855 0.4889 0.1143
H38 H 0.5444 0.4666 0.1007
O12 O 0.5000 0.0255(5) 0.2500
H39 H 0.5168 0.0607 0.2422
H39A H 0.4832 0.0607 0.2578
O13 O 0.5524(10) 0.564(2) -0.016(2)
H40 H 0.5564 0.6005 -0.0517
H41 H 0.5317 0.5359 -0.0444
O14 O 0.5000 0.360(3) 0.2500
Ag1 Ag 0.230310(16) -0.38948(3) -0.18795(3)
O1 O 0.29116(18) -0.3019(3) -0.0791(4)
O2 O 0.2697(3) -0.3927(6) -0.3151(6)
N1 N 0.23679(18) -0.5222(3) -0.1522(4)
N2 N 0.30441(16) 0.2263(3) -0.2587(4)
C1 C 0.3258(2) -0.3067(4) -0.0168(4)
H1 H 0.2570 -0.4339 -0.3575
H2 H 0.2687 -0.3344 -0.3120
C2 C 0.2129(2) -0.5768(4) -0.2124(5)
C3 C 0.2655(2) -0.5503(4) -0.0731(4)
N3 N 0.3470(2) -0.3777(3) 0.0048(4)
C4 C 0.3454(2) -0.2293(4) 0.0361(4)
H3 H 0.1926 -0.5564 -0.2682
C5 C 0.2158(2) -0.6615(4) -0.1986(5)
C6 C 0.2700(2) -0.6351(4) -0.0544(5)
C7 C 0.2922(2) -0.4878(4) -0.0078(4)
H4 H 0.3721 -0.3786 0.0486
C8 C 0.3293(2) -0.4540(4) -0.0425(5)
C9 C 0.3777(2) -0.2296(4) 0.1208(4)
C10 C 0.32869(19) -0.1545(4) -0.0046(4)
H5 H 0.1982 -0.6984 -0.2437
C11 C 0.2454(2) -0.6909(4) -0.1162(5)
H6 H 0.2904 -0.6540 0.0019
H7 H 0.3044 -0.5132 0.0552
H8 H 0.2735 -0.4412 -0.0011
H9 H 0.3525 -0.4961 -0.0311
H10 H 0.3185 -0.4440 -0.1114
H11 H 0.3890 -0.2808 0.1490
C12 C 0.3941(2) -0.1557(4) 0.1654(4)
C13 C 0.34481(19) -0.0798(4) 0.0382(4)
H12 H 0.3060 -0.1543 -0.0622
H13 H 0.2483 -0.7486 -0.1034
C14 C 0.4284(3) -0.1500(5) 0.2587(5)
C15 C 0.3774(2) -0.0811(4) 0.1234(4)
C16 C 0.32522(19) -0.0023(4) -0.0120(4)
O3 O 0.4402(2) -0.0825(4) 0.2937(4)
N4 N 0.4462(3) -0.2193(5) 0.3010(5)
H14 H 0.3885 -0.0305 0.1534
O4 O 0.28996(17) -0.0049(3) -0.0733(4)
N5 N 0.34794(19) 0.0677(3) 0.0129(4)
H15 H 0.4395 -0.2672 0.2719
C17 C 0.4766(5) -0.2163(9) 0.3952(8)
H16 H 0.3715 0.0671 0.0612
C18 C 0.3345(2) 0.1445(4) -0.0382(5)
C19 C 0.5185(4) -0.1809(13) 0.4044(9)
H17 H 0.4631 -0.1844 0.4361
H18 H 0.4809 -0.2735 0.4202
C20 C 0.3510(2) 0.1497(4) -0.1243(5)
H19 H 0.3458 0.1920 0.0041
H20 H 0.3026 0.1479 -0.0588
C21 C 0.5400(6) -0.1782(11) 0.5102(10)
H21 H 0.5157 -0.1245 0.3769
H22 H 0.5351 -0.2159 0.3727
C22 C 0.3379(2) 0.2288(4) -0.1787(5)
H23 H 0.3829 0.1457 -0.1034
H24 H 0.3396 0.1021 -0.1663
N6 N 0.5419(5) -0.1056(9) 0.5523(10)
C23 C 0.5637(6) -0.2456(10) 0.5579(10)
C24 C 0.3587(2) 0.3033(4) -0.1476(5)
Ag2 Ag 0.50684(13) 0.0149(3) 0.4880(5)
C25 C 0.5743(4) -0.0962(9) 0.6315(10)
C26 C 0.5916(4) -0.2351(10) 0.6437(8)
H25 H 0.5601 -0.2988 0.5293
C27 C 0.2924(2) 0.2963(4) -0.3068(5)
C28 C 0.3457(3) 0.3741(4) -0.1968(6)
H26 H 0.3822 0.3046 -0.0913
H27 H 0.5813 -0.0417 0.6548
C29 C 0.5976(3) -0.1593(9) 0.6806(7)
H28 H 0.6069 -0.2810 0.6779
H29 H 0.2697 0.2937 -0.3644
C30 C 0.3108(3) 0.3716(4) -0.2782(6)
H30 H 0.3603 0.4248 -0.1760
H31 H 0.6180 -0.1498 0.7405
H32 H 0.3001 0.4206 -0.3127
Ag1C Ag 0.269690(16) 0.11052(3) -0.31205(3)
N2C N 0.19559(16) -0.2737(3) -0.2413(4)
N6D N 0.4581(5) 0.1056(9) 0.4477(10)
Ag2D Ag 0.49316(13) -0.0149(3) 0.5120(5)
loop_
_geom_bond_atom_site_label_1
_geom_bond_atom_site_label_2
_geom_bond_site_symmetry_1
_geom_bond_site_symmetry_2
Ag1 O1 1_555 1_555
O1 C1 1_555 1_555
O2 Ag1 1_555 1_555
N1 Ag1 1_555 1_555
N2 C22 1_555 1_555
C1 N3 1_555 1_555
H1 O2 1_555 1_555
H2 O2 1_555 1_555
C2 N1 1_555 1_555
C3 N1 1_555 1_555
N3 H4 1_555 1_555
C4 C1 1_555 1_555
H3 C2 1_555 1_555
C5 C2 1_555 1_555
C6 C3 1_555 1_555
C7 C3 1_555 1_555
C8 N3 1_555 1_555
C9 C4 1_555 1_555
C10 C4 1_555 1_555
H5 C5 1_555 1_555
C11 C5 1_555 1_555
H6 C6 1_555 1_555
H7 C7 1_555 1_555
H8 C7 1_555 1_555
H9 C8 1_555 1_555
H10 C8 1_555 1_555
H11 C9 1_555 1_555
C12 C9 1_555 1_555
C13 C10 1_555 1_555
H12 C10 1_555 1_555
H13 C11 1_555 1_555
C14 C12 1_555 1_555
C15 C12 1_555 1_555
C16 C13 1_555 1_555
O3 C14 1_555 1_555
N4 C14 1_555 1_555
H14 C15 1_555 1_555
O4 C16 1_555 1_555
N5 C16 1_555 1_555
H15 N4 1_555 1_555
C17 N4 1_555 1_555
H16 N5 1_555 1_555
C18 N5 1_555 1_555
C19 C17 1_555 1_555
H17 C17 1_555 1_555
H18 C17 1_555 1_555
C20 C18 1_555 1_555
H19 C18 1_555 1_555
H20 C18 1_555 1_555
C21 C19 1_555 1_555
H21 C19 1_555 1_555
H22 C19 1_555 1_555
C22 C20 1_555 1_555
H23 C20 1_555 1_555
H24 C20 1_555 1_555
N6 C21 1_555 1_555
C23 C21 1_555 1_555
C24 C22 1_555 1_555
Ag2 N6 1_555 1_555
C25 N6 1_555 1_555
C26 C23 1_555 1_555
H25 C23 1_555 1_555
C27 N2 1_555 1_555
C28 C24 1_555 1_555
H26 C24 1_555 1_555
H27 C25 1_555 1_555
C29 C25 1_555 1_555
H28 C26 1_555 1_555
H29 C27 1_555 1_555
C30 C27 1_555 1_555
H30 C28 1_555 1_555
H31 C29 1_555 1_555
H32 C30 1_555 1_555
O5 N7 1_555 1_555
O6 N7 1_555 1_555
O7 N8 1_555 1_555
O8 N8 1_555 1_555
O9 H33 1_555 1_555
H34 O9 1_555 1_555
O10 H35 1_555 1_555
H36 O10 1_555 1_555
O11 H37 1_555 1_555
H38 O11 1_555 1_555
O12 H39 1_555 1_555
O13 H40 1_555 1_555
H41 O13 1_555 1_555
Ag1C N2 1_555 1_555
N2C Ag1 1_555 1_555
N6D Ag2 1_555 1_555
Ag2D N6 1_555 1_555
H39A O12 1_555 1_555
C6 C11 1_555 1_555
C7 C8 1_555 1_555
C13 C15 1_555 1_555
Ag2 Ag2D 1_555 1_555
C26 C29 1_555 1_555
C28 C30 1_555 1_555
N6D Ag2D 1_555 1_555

#END
