
#######################################################################
#
#                 Cambridge Crystallographic Data Centre
#                                CCDC 
#
#######################################################################
#
# If this CIF has been generated from an entry in the Cambridge 
# Structural Database, then it will include bibliographic, chemical, 
# crystal, experimental, refinement or atomic coordinate data resulting 
# from the CCDC's data processing and validation procedures.
#
#######################################################################

data_FOCTIC
_symmetry_cell_setting           orthorhombic
_symmetry_space_group_name_H-M   'I b a 2'
_symmetry_Int_Tables_number      45
_space_group_name_Hall           'I 2 -2c'
loop_
_symmetry_equiv_pos_site_id
_symmetry_equiv_pos_as_xyz
1 x,y,z
2 -x,-y,z
3 1/2+x,1/2-y,z
4 1/2-x,1/2+y,z
5 1/2+x,1/2+y,1/2+z
6 1/2-x,1/2-y,1/2+z
7 x,-y,1/2+z
8 -x,y,1/2+z
_cell_length_a                   18.151(3)
_cell_length_b                   26.476(4)
_cell_length_c                   5.9595(10)
_cell_angle_alpha                90
_cell_angle_beta                 90
_cell_angle_gamma                90
_cell_volume                     2863.93
loop_
_atom_site_label
_atom_site_type_symbol
_atom_site_fract_x
_atom_site_fract_y
_atom_site_fract_z
Ag1 Ag 0.077479(18) 0.306836(13) 0.43077(8)
Ag2 Ag 0.091147(17) 0.234040(14) -0.00504(7)
Ag3 Ag 0.24242(2) 0.285300(14) 0.29004(8)
C1 C 0.08655(19) 0.19671(15) 0.4789(8)
C2 C 0.1071(2) 0.14269(16) 0.5283(7)
C3 C 0.0582(3) 0.11198(18) 0.6445(10)
H1 H 0.0131 0.1250 0.6907
C4 C 0.0755(3) 0.0625(2) 0.6926(10)
H2 H 0.0425 0.0426 0.7729
C5 C 0.1421(3) 0.04228(17) 0.6214(9)
H3 H 0.1536 0.0087 0.6513
C6 C 0.1908(2) 0.07256(15) 0.5056(8)
H4 H 0.2354 0.0589 0.4581
C7 C 0.17551(19) 0.12296(14) 0.4578(7)
C8 C 0.30553(19) 0.11569(15) 0.1852(7)
C9 C 0.2836(2) 0.08247(17) 0.0181(8)
H5 H 0.2364 0.0850 -0.0415
C10 C 0.3307(2) 0.04575(16) -0.0609(9)
H6 H 0.3147 0.0228 -0.1686
C11 C 0.4020(2) 0.04309(17) 0.0207(9)
H7 H 0.4341 0.0187 -0.0344
C12 C 0.4256(2) 0.07640(19) 0.1829(9)
H8 H 0.4739 0.0746 0.2341
C13 C 0.3779(2) 0.11311(14) 0.2725(7)
C14 C 0.4062(2) 0.14869(17) 0.4495(9)
O1 O 0.03401(16) 0.20521(12) 0.3487(6)
O2 O 0.12498(16) 0.23139(11) 0.5716(6)
O3 O 0.19476(15) 0.18041(13) 0.0881(5)
O4 O 0.27665(16) 0.20057(11) 0.4258(7)
O5 O 0.3923(2) 0.13896(13) 0.6485(6)
O6 O 0.44430(16) 0.18516(12) 0.3741(6)
P1 P 0.23798(5) 0.16070(4) 0.2874(2)
Ag1B Ag 0.577479(18) 0.193164(13) 0.43077(8)
Ag1E Ag 0.422521(18) 0.193164(13) -0.06923(8)
Ag1E_2 Ag 0.422521(18) 0.193164(13) 0.93077(8)
Ag2_2 Ag 0.091147(17) 0.234040(14) 0.99496(7)
Ag2E Ag 0.408853(17) 0.265960(14) 0.49496(7)
Ag2G Ag -0.091147(17) 0.234040(14) 0.49496(7)
Ag3E Ag 0.25758(2) 0.214700(14) -0.20996(8)
Ag3E_2 Ag 0.25758(2) 0.214700(14) 0.79004(8)
O1G O -0.03401(16) 0.20521(12) -0.1513(6)
O2_2 O 0.12498(16) 0.23139(11) -0.4284(6)
O3E O 0.30524(15) 0.31959(13) 0.5881(5)
O4E O 0.22335(16) 0.29943(11) -0.0742(7)
O5E O 0.1077(2) 0.36104(13) 0.1485(6)
O6B O -0.05570(16) 0.31484(12) 0.3741(6)
O6E O 0.05570(16) 0.31484(12) -0.1259(6)
O6E_2 O 0.05570(16) 0.31484(12) 0.8741(6)
loop_
_geom_bond_atom_site_label_1
_geom_bond_atom_site_label_2
_geom_bond_site_symmetry_1
_geom_bond_site_symmetry_2
Ag1 Ag3 1_555 1_555
Ag2 O1 1_555 1_555
Ag3 O4 1_555 1_555
C1 C2 1_555 1_555
C2 C3 1_555 1_555
C3 H1 1_555 1_555
C4 C3 1_555 1_555
H2 C4 1_555 1_555
C5 C4 1_555 1_555
H3 C5 1_555 1_555
C6 C5 1_555 1_555
H4 C6 1_555 1_555
C7 C2 1_555 1_555
C8 C9 1_555 1_555
C9 H5 1_555 1_555
C10 C9 1_555 1_555
H6 C10 1_555 1_555
C11 C10 1_555 1_555
H7 C11 1_555 1_555
C12 C11 1_555 1_555
H8 C12 1_555 1_555
C13 C8 1_555 1_555
C14 C13 1_555 1_555
O1 C1 1_555 1_555
O2 Ag1 1_555 1_555
O3 Ag2 1_555 1_555
O4 P1 1_555 1_555
O5 C14 1_555 1_555
O6 C14 1_555 1_555
P1 C7 1_555 1_555
Ag1B O6 1_555 1_555
Ag1E O6 1_555 1_555
Ag1E_2 O5 1_555 1_555
Ag2_2 O2 1_555 1_555
Ag2E O6 1_555 1_555
Ag2G O1 1_555 1_555
Ag3E O3 1_555 1_555
Ag3E_2 O4 1_555 1_555
O1G Ag2 1_555 1_555
O2_2 Ag2 1_555 1_555
O3E Ag3 1_555 1_555
O4E Ag3 1_555 1_555
O5E Ag1 1_555 1_555
O6B Ag1 1_555 1_555
O6E Ag2 1_555 1_555
O6E_2 Ag1 1_555 1_555
C1 O2 1_555 1_555
C6 C7 1_555 1_555
C8 P1 1_555 1_555
C12 C13 1_555 1_555
O3 P1 1_555 1_555
Ag1E Ag3E 1_555 1_555
Ag1E_2 Ag3E_2 1_555 1_555
Ag2_2 O6E_2 1_555 1_555
Ag2E O3E 1_555 1_555
Ag2G O6B 1_555 1_555
Ag3E O4E 1_555 1_555

#END
