
#######################################################################
#
#                 Cambridge Crystallographic Data Centre
#                                CCDC 
#
#######################################################################
#
# If this CIF has been generated from an entry in the Cambridge 
# Structural Database, then it will include bibliographic, chemical, 
# crystal, experimental, refinement or atomic coordinate data resulting 
# from the CCDC's data processing and validation procedures.
#
#######################################################################

data_FOCTEY
_symmetry_cell_setting           orthorhombic
_symmetry_space_group_name_H-M   'P b c n'
_symmetry_Int_Tables_number      60
_space_group_name_Hall           '-P 2n 2ab'
loop_
_symmetry_equiv_pos_site_id
_symmetry_equiv_pos_as_xyz
1 x,y,z
2 1/2-x,1/2-y,1/2+z
3 1/2+x,1/2-y,-z
4 -x,y,1/2-z
5 -x,-y,-z
6 1/2+x,1/2+y,1/2-z
7 1/2-x,1/2+y,z
8 x,-y,1/2+z
_cell_length_a                   7.9663(9)
_cell_length_b                   11.4723(13)
_cell_length_c                   14.0805(17)
_cell_angle_alpha                90
_cell_angle_beta                 90
_cell_angle_gamma                90
_cell_volume                     1286.84
loop_
_atom_site_label
_atom_site_type_symbol
_atom_site_fract_x
_atom_site_fract_y
_atom_site_fract_z
Ag1 Ag 0.5000 -0.14547(3) 0.2500
C1 C 0.5965(4) 0.3632(2) 0.1390(2)
C2 C 0.4215(4) 0.3161(3) 0.1289(2)
C3 C 0.3074(4) 0.3796(3) 0.0750(2)
H1 H 0.3403 0.4495 0.0472
C4 C 0.1447(4) 0.3392(3) 0.0622(2)
H2 H 0.0695 0.3814 0.0251
C5 C 0.0946(4) 0.2362(3) 0.1047(2)
H3 H 0.0079 0.1911 0.0718
C6 C 0.2068(4) 0.1742(3) 0.1596(2)
H4 H 0.1714 0.1057 0.1887
C7 C 0.3724(4) 0.2114(3) 0.1725(2)
O1 O 0.6015(3) 0.47785(19) 0.1364(2)
H5 H 0.6984 0.4999 0.1442
O2 O 0.7177(3) 0.30229(19) 0.15004(18)
O3 O 0.3877(3) 0.0464(2) 0.3109(2)
P1 P 0.5000 0.12075(10) 0.2500
C1C C 0.4035(4) 0.3632(2) 0.3610(2)
C2C C 0.5785(4) 0.3161(3) 0.3711(2)
C3C C 0.6926(4) 0.3796(3) 0.4250(2)
H1C H 0.6597 0.4495 0.4528
C4C C 0.8553(4) 0.3392(3) 0.4378(2)
H2C H 0.9305 0.3814 0.4749
C5C C 0.9054(4) 0.2362(3) 0.3953(2)
H3C H 0.9921 0.1911 0.4282
C6C C 0.7932(4) 0.1742(3) 0.3404(2)
H4C H 0.8286 0.1057 0.3113
C7C C 0.6276(4) 0.2114(3) 0.3275(2)
O1C O 0.3985(3) 0.47785(19) 0.3636(2)
H5C H 0.3016 0.4999 0.3558
O2C O 0.2823(3) 0.30229(19) 0.34996(18)
O3C O 0.6123(3) 0.0464(2) 0.1891(2)
Ag1E Ag 0.0000 0.35453(3) 0.2500
Ag1E_2 Ag 1.0000 0.35453(3) 0.2500
C5E C 0.5946(4) -0.2638(3) 0.3953(2)
C5F C 0.4054(4) -0.2638(3) 0.1047(2)
O2E O 0.2177(3) -0.19771(19) 0.34996(18)
O2F O 0.7823(3) -0.19771(19) 0.15004(18)
loop_
_geom_bond_atom_site_label_1
_geom_bond_atom_site_label_2
_geom_bond_site_symmetry_1
_geom_bond_site_symmetry_2
Ag1 O3 1_555 1_555
C1 C2 1_555 1_555
C2 C3 1_555 1_555
C3 H1 1_555 1_555
C4 C3 1_555 1_555
H2 C4 1_555 1_555
C5 C4 1_555 1_555
H3 C5 1_555 1_555
C6 C5 1_555 1_555
H4 C6 1_555 1_555
C7 C2 1_555 1_555
O1 C1 1_555 1_555
H5 O1 1_555 1_555
O2 C1 1_555 1_555
O3 P1 1_555 1_555
P1 C7 1_555 1_555
C1C C2C 1_555 1_555
C2C C3C 1_555 1_555
C3C H1C 1_555 1_555
C4C C3C 1_555 1_555
H2C C4C 1_555 1_555
C5C C4C 1_555 1_555
H3C C5C 1_555 1_555
C6C C5C 1_555 1_555
H4C C6C 1_555 1_555
C7C P1 1_555 1_555
O1C C1C 1_555 1_555
H5C O1C 1_555 1_555
O2C C1C 1_555 1_555
O3C Ag1 1_555 1_555
Ag1E C5 1_555 1_555
Ag1E_2 O2 1_555 1_555
C5E Ag1 1_555 1_555
C5F Ag1 1_555 1_555
O2E Ag1 1_555 1_555
O2F Ag1 1_555 1_555
C6 C7 1_555 1_555
P1 O3C 1_555 1_555
C2C C7C 1_555 1_555
C5C Ag1E_2 1_555 1_555
C6C C7C 1_555 1_555
O2C Ag1E 1_555 1_555

#END
