
#######################################################################
#
#                 Cambridge Crystallographic Data Centre
#                                CCDC 
#
#######################################################################
#
# If this CIF has been generated from an entry in the Cambridge 
# Structural Database, then it will include bibliographic, chemical, 
# crystal, experimental, refinement or atomic coordinate data resulting 
# from the CCDC's data processing and validation procedures.
#
#######################################################################

data_FOCVAW
_symmetry_cell_setting           monoclinic
_symmetry_space_group_name_H-M   'P 21/c'
_symmetry_Int_Tables_number      14
_space_group_name_Hall           '-P 2ybc'
loop_
_symmetry_equiv_pos_site_id
_symmetry_equiv_pos_as_xyz
1 x,y,z
2 -x,1/2+y,1/2-z
3 -x,-y,-z
4 x,1/2-y,1/2+z
_cell_length_a                   14.1583(2)
_cell_length_b                   27.6117(3)
_cell_length_c                   9.64310(10)
_cell_angle_alpha                90
_cell_angle_beta                 94.5260(10)
_cell_angle_gamma                90
_cell_volume                     3758.07
loop_
_atom_site_label
_atom_site_type_symbol
_atom_site_fract_x
_atom_site_fract_y
_atom_site_fract_z
N8 N -0.0304(13) 0.4450(7) 0.1332(17)
O7 O 0.0338(10) 0.4225(6) 0.2305(14)
O8 O -0.1054(9) 0.4644(8) 0.202(3)
O9 O -0.008(4) 0.444(2) -0.0054(16)
O10 O 0.7878(6) 0.7224(2) 0.3758(9)
H31 H 0.7440 0.7044 0.3995
H32 H 0.7655 0.7429 0.3178
O11 O -0.087(4) 0.311(3) 0.119(7)
H33 H -0.1236 0.2892 0.0837
H34 H -0.0313 0.3003 0.1260
O12 O 0.044(2) 0.2299(13) 0.259(4)
H35 H 0.0223 0.2402 0.1806
C31 C 0.048(4) 0.2662(16) 0.351(6)
H36 H 0.0243 0.2972 0.3093
H37 H 0.1114 0.2706 0.3986
C32 C -0.024(5) 0.243(3) 0.446(6)
H38 H 0.0107 0.2271 0.5261
H39 H -0.0625 0.2184 0.3934
H40 H -0.0658 0.2678 0.4797
Ag1 Ag 0.50830(4) 0.61709(2) 0.24243(6)
Ag2 Ag -0.01993(14) 0.50513(13) 0.5022(4)
O1 O 0.4705(4) 0.51935(16) 0.3141(6)
O2 O 0.2033(4) 0.45594(19) 0.5414(6)
O3 O 0.3687(4) 0.26632(16) 0.2822(6)
N1 N 0.6281(5) 0.61895(18) 0.1126(7)
N2 N -0.0802(5) 0.4538(2) 0.6325(6)
N3 N 0.5953(5) 0.13659(19) 0.1109(7)
N4 N 0.5799(4) 0.47067(18) 0.2339(6)
H1 H 0.5978 0.4409 0.2168
N5 N 0.1949(5) 0.3783(3) 0.5972(8)
H2 H 0.2199 0.3492 0.5935
N6 N 0.4871(6) 0.2926(2) 0.1705(11)
H3 H 0.5232 0.3176 0.1549
C1 C 0.6731(7) 0.6620(3) 0.0979(10)
H4 H 0.6513 0.6897 0.1447
C2 C 0.7483(7) 0.6672(3) 0.0188(11)
H5 H 0.7764 0.6981 0.0093
C3 C 0.7828(6) 0.6286(3) -0.0458(10)
H6 H 0.8373 0.6314 -0.0967
C4 C 0.7363(5) 0.5849(3) -0.0356(8)
H7 H 0.7568 0.5573 -0.0840
C5 C 0.6594(5) 0.5811(2) 0.0453(7)
C6 C 0.6090(5) 0.5337(2) 0.0625(7)
H8 H 0.6232 0.5113 -0.0134
H9 H 0.5397 0.5392 0.0563
C7 C 0.6400(5) 0.5110(2) 0.2010(8)
H10 H 0.7062 0.4996 0.1995
H11 H 0.6385 0.5359 0.2748
C8 C 0.4987(4) 0.4783(2) 0.2893(7)
C9 C -0.1521(7) 0.4709(4) 0.6989(11)
H12 H -0.1677 0.5042 0.6877
C10 C -0.2050(6) 0.4434(4) 0.7823(10)
H13 H -0.2571 0.4571 0.8247
C11 C -0.1808(7) 0.3957(5) 0.8031(11)
H14 H -0.2140 0.3761 0.8640
C12 C -0.1082(7) 0.3770(3) 0.7345(11)
H15 H -0.0915 0.3439 0.7466
C13 C -0.0596(5) 0.4052(3) 0.6492(8)
C14 C 0.0207(6) 0.3862(3) 0.5757(9)
H16 H 0.0307 0.4069 0.4942
H17 H 0.0064 0.3530 0.5421
C15 C 0.1116(6) 0.3859(3) 0.6763(10)
H18 H 0.1176 0.4171 0.7268
H19 H 0.1075 0.3596 0.7456
C16 C 0.2321(5) 0.4138(3) 0.5327(7)
C17 C 0.6372(5) 0.1019(3) 0.0411(8)
H20 H 0.6170 0.0694 0.0524
C18 C 0.7063(6) 0.1101(3) -0.0441(9)
H21 H 0.7340 0.0839 -0.0903
C19 C 0.7356(6) 0.1557(3) -0.0632(10)
H22 H 0.7830 0.1625 -0.1249
C20 C 0.6950(7) 0.1929(3) 0.0096(12)
H23 H 0.7135 0.2255 -0.0039
C21 C 0.6280(7) 0.1823(3) 0.1013(10)
C22 C 0.5883(7) 0.2226(3) 0.1879(10)
H24 H 0.5649 0.2090 0.2738
H25 H 0.6383 0.2467 0.2145
C23 C 0.5084(7) 0.2462(3) 0.1007(10)
H26 H 0.5273 0.2524 0.0056
H27 H 0.4519 0.2249 0.0940
C24 C 0.4188(6) 0.2994(2) 0.2534(8)
C25 C 0.4413(4) 0.4348(2) 0.3234(6)
C26 C 0.3659(4) 0.4415(2) 0.4066(6)
H28 H 0.3513 0.4731 0.4371
C27 C 0.3126(5) 0.4029(3) 0.4446(7)
C28 C 0.3323(5) 0.3560(2) 0.3954(8)
H29 H 0.2960 0.3291 0.4219
C29 C 0.4042(4) 0.3494(2) 0.3091(7)
C30 C 0.4600(5) 0.3886(2) 0.2740(7)
H30 H 0.5107 0.3837 0.2165
N7 N 0.3604(7) 0.6301(3) -0.0323(6)
O4 O 0.4553(10) 0.6399(16) 0.010(4)
O5 O 0.2857(8) 0.6051(4) -0.1040(13)
O6 O 0.3054(10) 0.6721(4) -0.0262(19)
Ag1A Ag 0.49170(4) 0.11709(2) 0.25757(6)
Ag2B Ag 0.01993(14) 0.49487(13) 0.4978(4)
N2B N 0.0802(5) 0.5462(2) 0.3675(6)
N3A N 0.4047(5) 0.63659(19) 0.3891(7)
O13? O 0.3770(8) 0.5896(5) 0.0321(13)
O14? O 0.3351(9) 0.6290(4) -0.1753(7)
O15? O 0.3547(13) 0.6734(4) 0.0420(15)
loop_
_geom_bond_atom_site_label_1
_geom_bond_atom_site_label_2
_geom_bond_site_symmetry_1
_geom_bond_site_symmetry_2
Ag1 N1 1_555 1_555
Ag2 N2 1_555 1_555
O1 C8 1_555 1_555
O2 C16 1_555 1_555
O3 C24 1_555 1_555
N1 C1 1_555 1_555
N2 C9 1_555 1_555
N3 C17 1_555 1_555
N4 H1 1_555 1_555
N5 H2 1_555 1_555
N6 H3 1_555 1_555
C1 H4 1_555 1_555
C2 C1 1_555 1_555
H5 C2 1_555 1_555
C3 C2 1_555 1_555
H6 C3 1_555 1_555
C4 C3 1_555 1_555
H7 C4 1_555 1_555
C5 N1 1_555 1_555
C6 C5 1_555 1_555
H8 C6 1_555 1_555
H9 C6 1_555 1_555
C7 N4 1_555 1_555
H10 C7 1_555 1_555
H11 C7 1_555 1_555
C8 N4 1_555 1_555
C9 H12 1_555 1_555
C10 C9 1_555 1_555
H13 C10 1_555 1_555
C11 C10 1_555 1_555
H14 C11 1_555 1_555
C12 C11 1_555 1_555
H15 C12 1_555 1_555
C13 N2 1_555 1_555
C14 C13 1_555 1_555
H16 C14 1_555 1_555
H17 C14 1_555 1_555
C15 N5 1_555 1_555
H18 C15 1_555 1_555
H19 C15 1_555 1_555
C16 N5 1_555 1_555
C17 H20 1_555 1_555
C18 C17 1_555 1_555
H21 C18 1_555 1_555
C19 C18 1_555 1_555
H22 C19 1_555 1_555
C20 C19 1_555 1_555
H23 C20 1_555 1_555
C21 N3 1_555 1_555
C22 C21 1_555 1_555
H24 C22 1_555 1_555
H25 C22 1_555 1_555
C23 N6 1_555 1_555
H26 C23 1_555 1_555
H27 C23 1_555 1_555
C24 N6 1_555 1_555
C25 C8 1_555 1_555
C26 C25 1_555 1_555
H28 C26 1_555 1_555
C27 C16 1_555 1_555
C28 C27 1_555 1_555
H29 C28 1_555 1_555
C29 C24 1_555 1_555
C30 C25 1_555 1_555
H30 C30 1_555 1_555
N7 O4 1_555 1_555
O4 Ag1 1_555 1_555
O5 N7 1_555 1_555
O6 N7 1_555 1_555
N8 O7 1_555 1_555
O8 N8 1_555 1_555
O9 N8 1_555 1_555
O10 H31 1_555 1_555
H32 O10 1_555 1_555
O11 H33 1_555 1_555
H34 O11 1_555 1_555
O12 H35 1_555 1_555
C31 O12 1_555 1_555
H36 C31 1_555 1_555
H37 C31 1_555 1_555
C32 C31 1_555 1_555
H38 C32 1_555 1_555
H39 C32 1_555 1_555
H40 C32 1_555 1_555
Ag1A N3 1_555 1_555
Ag2B Ag2 1_555 1_555
N2B Ag2 1_555 1_555
N3A Ag1 1_555 1_555
N2 Ag2B 1_555 1_555
C4 C5 1_555 1_555
C6 C7 1_555 1_555
C12 C13 1_555 1_555
C14 C15 1_555 1_555
C20 C21 1_555 1_555
C22 C23 1_555 1_555
C26 C27 1_555 1_555
C28 C29 1_555 1_555
C29 C30 1_555 1_555
Ag2B N2B 1_555 1_555

#END
