
#######################################################################
#
#                 Cambridge Crystallographic Data Centre
#                                CCDC 
#
#######################################################################
#
# If this CIF has been generated from an entry in the Cambridge 
# Structural Database, then it will include bibliographic, chemical, 
# crystal, experimental, refinement or atomic coordinate data resulting 
# from the CCDC's data processing and validation procedures.
#
#######################################################################

data_FOCVOJ
_symmetry_cell_setting           orthorhombic
_symmetry_space_group_name_H-M   'P 21 21 21'
_symmetry_Int_Tables_number      19
_space_group_name_Hall           'P 2ac 2ab'
loop_
_symmetry_equiv_pos_site_id
_symmetry_equiv_pos_as_xyz
1 x,y,z
2 1/2-x,-y,1/2+z
3 -x,1/2+y,1/2-z
4 1/2+x,1/2-y,-z
_cell_length_a                   11.2955(13)
_cell_length_b                   16.5633(19)
_cell_length_c                   19.966(2)
_cell_angle_alpha                90
_cell_angle_beta                 90
_cell_angle_gamma                90
_cell_volume                     3735.45
loop_
_atom_site_label
_atom_site_type_symbol
_atom_site_fract_x
_atom_site_fract_y
_atom_site_fract_z
Zn1 Zn -0.44009(9) -0.73010(7) 0.50434(6)
Cl1 Cl -0.5091(3) -0.83530(16) 0.44790(17)
Cl2 Cl -0.3740(3) -0.7359(2) 0.60912(14)
N1 N 0.4291(8) -0.6482(4) 0.5026(6)
N2 N -0.3150(7) -0.6831(6) 0.4430(5)
O1 O 0.1274(7) -0.4378(5) 0.4558(4)
O2 O -0.0279(6) -0.5072(4) 0.3241(4)
C1 C 0.1444(10) -0.4770(6) 0.5164(5)
H1 H 0.0723 -0.5043 0.5300
H2 H 0.1658 -0.4384 0.5509
C2 C 0.2407(9) -0.5361(6) 0.5068(8)
C3 C 0.3067(15) -0.5494(10) 0.5622(9)
H3 H 0.2897 -0.5251 0.6031
C4 C 0.4091(12) -0.6058(10) 0.5534(8)
H4 H 0.4626 -0.6097 0.5886
C5 C 0.3557(12) -0.6339(8) 0.4539(6)
H5 H 0.3674 -0.6624 0.4143
C6 C 0.2604(13) -0.5796(8) 0.4552(7)
H6 H 0.2110 -0.5752 0.4181
C7 C 0.0380(9) -0.3866(6) 0.4470(5)
C8 C 0.0174(10) -0.3626(5) 0.3823(6)
C9 C -0.0813(9) -0.3096(6) 0.3669(6)
C10 C -0.1047(10) -0.2786(7) 0.3016(5)
H7 H -0.0549 -0.2932 0.2665
C11 C -0.1933(11) -0.2306(7) 0.2893(6)
H8 H -0.2062 -0.2112 0.2462
C12 C -0.2706(11) -0.2080(7) 0.3429(8)
H9 H -0.3360 -0.1756 0.3339
C13 C -0.2494(10) -0.2338(8) 0.4084(7)
H10 H -0.2986 -0.2172 0.4431
C14 C -0.1559(9) -0.2837(6) 0.4208(6)
C15 C -0.1344(10) -0.3114(7) 0.4846(6)
H11 H -0.1855 -0.2958 0.5188
C16 C -0.0420(9) -0.3605(6) 0.5001(5)
H12 H -0.0299 -0.3772 0.5440
C17 C -0.0354(9) -0.5928(5) 0.3174(5)
H13 H 0.0389 -0.6178 0.3302
H14 H -0.0525 -0.6073 0.2713
C18 C -0.1339(10) -0.6210(7) 0.3628(5)
C19 C -0.1739(11) -0.5769(7) 0.4175(6)
H15 H -0.1401 -0.5277 0.4294
C20 C -0.2661(12) -0.6100(8) 0.4530(6)
H16 H -0.2979 -0.5788 0.4873
C21 C -0.2693(10) -0.7235(7) 0.3937(7)
H17 H -0.2978 -0.7755 0.3866
C22 C -0.1838(10) -0.6967(7) 0.3516(6)
H18 H -0.1588 -0.7284 0.3158
C23 C 0.0720(10) -0.4698(7) 0.3023(5)
C24 C 0.0976(8) -0.3909(6) 0.3304(5)
C25 C 0.1943(9) -0.3502(7) 0.3075(5)
C26 C 0.2283(11) -0.2736(8) 0.3336(6)
H19 H 0.1788 -0.2481 0.3643
C27 C 0.3315(14) -0.2362(9) 0.3152(7)
H20 H 0.3512 -0.1866 0.3339
C28 C 0.4044(10) -0.2704(9) 0.2704(7)
H21 H 0.4731 -0.2432 0.2582
C29 C 0.3813(10) -0.3445(8) 0.2416(6)
H22 H 0.4329 -0.3664 0.2102
C30 C 0.2790(10) -0.3857(8) 0.2606(5)
C31 C 0.2574(10) -0.4658(7) 0.2356(5)
H23 H 0.3102 -0.4906 0.2064
C32 C 0.1579(10) -0.5038(6) 0.2559(5)
H24 H 0.1434 -0.5552 0.2391
Zn1_2 Zn 0.55991(9) -0.73010(7) 0.50434(6)
N1_2 N -0.5709(8) -0.6482(4) 0.5026(6)
N3 N 0.6318(17) -0.4881(11) 0.2229(15)
O3 O 0.5043(11) -0.5628(7) 0.1600(6)
C33 C 0.709(2) -0.4192(16) 0.222(2)
C34 C 0.587(2) -0.5305(17) 0.2809(14)
C35 C 0.5753(19) -0.5079(11) 0.1672(10)
O4 O 0.5644(18) -0.4220(11) 0.5108(10)
loop_
_geom_bond_atom_site_label_1
_geom_bond_atom_site_label_2
_geom_bond_site_symmetry_1
_geom_bond_site_symmetry_2
Zn1 Cl1 1_555 1_555
Cl2 Zn1 1_555 1_555
N1 C4 1_555 1_555
N2 Zn1 1_555 1_555
O1 C1 1_555 1_555
O2 C17 1_555 1_555
C1 H1 1_555 1_555
H2 C1 1_555 1_555
C2 C1 1_555 1_555
C3 C2 1_555 1_555
H3 C3 1_555 1_555
C4 C3 1_555 1_555
H4 C4 1_555 1_555
C5 N1 1_555 1_555
H5 C5 1_555 1_555
C6 C2 1_555 1_555
H6 C6 1_555 1_555
C7 O1 1_555 1_555
C8 C7 1_555 1_555
C9 C8 1_555 1_555
C10 C9 1_555 1_555
H7 C10 1_555 1_555
C11 C10 1_555 1_555
H8 C11 1_555 1_555
C12 C11 1_555 1_555
H9 C12 1_555 1_555
C13 C12 1_555 1_555
H10 C13 1_555 1_555
C14 C9 1_555 1_555
C15 C14 1_555 1_555
H11 C15 1_555 1_555
C16 C7 1_555 1_555
H12 C16 1_555 1_555
C17 H13 1_555 1_555
H14 C17 1_555 1_555
C18 C17 1_555 1_555
C19 C18 1_555 1_555
H15 C19 1_555 1_555
C20 N2 1_555 1_555
H16 C20 1_555 1_555
C21 N2 1_555 1_555
H17 C21 1_555 1_555
C22 C18 1_555 1_555
H18 C22 1_555 1_555
C23 O2 1_555 1_555
C24 C8 1_555 1_555
C25 C24 1_555 1_555
C26 C25 1_555 1_555
H19 C26 1_555 1_555
C27 C26 1_555 1_555
H20 C27 1_555 1_555
C28 C27 1_555 1_555
H21 C28 1_555 1_555
C29 C28 1_555 1_555
H22 C29 1_555 1_555
C30 C25 1_555 1_555
C31 C30 1_555 1_555
H23 C31 1_555 1_555
C32 C23 1_555 1_555
H24 C32 1_555 1_555
N3 C33 1_555 1_555
O3 C35 1_555 1_555
C34 N3 1_555 1_555
C35 N3 1_555 1_555
Zn1_2 N1 1_555 1_555
N1_2 Zn1 1_555 1_555
C5 C6 1_555 1_555
C13 C14 1_555 1_555
C15 C16 1_555 1_555
C19 C20 1_555 1_555
C21 C22 1_555 1_555
C23 C24 1_555 1_555
C29 C30 1_555 1_555
C31 C32 1_555 1_555

#END
