
#######################################################################
#
#                 Cambridge Crystallographic Data Centre
#                                CCDC 
#
#######################################################################
#
# If this CIF has been generated from an entry in the Cambridge 
# Structural Database, then it will include bibliographic, chemical, 
# crystal, experimental, refinement or atomic coordinate data resulting 
# from the CCDC's data processing and validation procedures.
#
#######################################################################

data_FOCWEA
_symmetry_cell_setting           triclinic
_symmetry_space_group_name_H-M   'P -1'
_symmetry_Int_Tables_number      2
_space_group_name_Hall           '-P 1'
loop_
_symmetry_equiv_pos_site_id
_symmetry_equiv_pos_as_xyz
1 x,y,z
2 -x,-y,-z
_cell_length_a                   9.7539(5)
_cell_length_b                   10.7435(5)
_cell_length_c                   12.8194(6)
_cell_angle_alpha                76.7990(10)
_cell_angle_beta                 76.2250(10)
_cell_angle_gamma                88.2230(10)
_cell_volume                     1269.86
loop_
_atom_site_label
_atom_site_type_symbol
_atom_site_fract_x
_atom_site_fract_y
_atom_site_fract_z
Ca1 Ca 0.30095(3) 0.45404(3) 0.50398(2)
Ca2 Ca 0.0000 0.0000 0.5000
O1 O 0.26244(14) 0.28300(11) 0.42724(10)
O2 O 0.16944(12) 0.13512(11) 0.36590(10)
O3 O 0.23784(11) 0.60229(11) 0.36508(9)
O4 O 0.20153(13) 0.78820(11) 0.25977(10)
O5 O 0.53129(11) 0.45691(11) 0.40182(9)
O6 O -0.74077(12) -0.37153(11) 0.60940(10)
O7 O 0.3174(2) 0.28539(19) 0.65424(15)
O8 O 0.05809(13) 0.44022(14) 0.60479(11)
O9 O -0.12764(15) 0.18259(13) 0.51966(11)
O10 O 0.1127(6) 0.0163(15) 0.6411(9)
N1 N 0.41450(12) 0.45726(11) 0.21692(10)
C1 C 0.27604(14) 0.45031(13) 0.19969(11)
C2 C 0.18146(15) 0.34899(14) 0.26179(11)
C3 C 0.04973(16) 0.34135(16) 0.23781(13)
C4 C 0.09813(17) 0.53739(17) 0.09996(13)
C5 C 0.00572(16) 0.43614(18) 0.15956(13)
C6 C 0.23348(16) 0.54267(14) 0.11749(12)
C7 C 0.20860(15) 0.24872(14) 0.35809(12)
C8 C 0.48704(14) 0.57776(13) 0.18208(11)
C9 C 0.42144(15) 0.69030(13) 0.20641(11)
C10 C 0.49341(16) 0.80814(14) 0.15959(12)
C11 C 0.63019(17) 0.81664(15) 0.09407(13)
C12 C 0.69661(16) 0.70487(16) 0.07391(12)
C13 C 0.62529(15) 0.58742(14) 0.11653(12)
C14 C 0.27676(15) 0.69265(14) 0.28130(12)
C15 C 0.49725(14) 0.34498(13) 0.21681(11)
C16 C 0.59848(15) 0.31258(14) 0.28064(11)
C17 C 0.68059(17) 0.20513(15) 0.26919(14)
C18 C 0.66402(18) 0.12872(17) 0.19883(15)
C19 C 0.56320(17) 0.16054(16) 0.13670(14)
C20 C 0.48182(16) 0.26791(14) 0.14545(12)
C21 C 0.62444(15) 0.38454(13) 0.36246(11)
H1 H -0.015(3) 0.279(2) 0.2792(19)
H2 H -0.090(3) 0.426(3) 0.148(2)
H3 H 0.071(3) 0.599(3) 0.050(2)
H4 H 0.298(2) 0.610(2) 0.0671(19)
H5 H 0.447(3) 0.884(2) 0.175(2)
H6 H 0.682(3) 0.899(2) 0.062(2)
H7 H 0.785(3) 0.708(3) 0.031(2)
H8 H 0.671(2) 0.512(2) 0.0983(19)
H9 H 0.750(3) 0.187(2) 0.316(2)
H10 H 0.721(3) 0.053(3) 0.192(2)
H11 H 0.551(3) 0.114(2) 0.084(2)
H12 H 0.420(3) 0.285(2) 0.102(2)
H13 H 0.351(7) 0.229(6) 0.640(5)
H14 H 0.245(4) 0.245(4) 0.712(3)
H15 H 0.053(4) 0.486(4) 0.652(3)
H16 H -0.020(3) 0.423(3) 0.604(2)
H17 H -0.144(3) 0.195(3) 0.579(3)
H18 H -0.164(3) 0.233(3) 0.487(3)
H19 H 0.172(6) 0.063(6) 0.615(5)
H20 H 0.096(4) 0.064(3) 0.685(3)
Ca1A Ca -0.30095(3) -0.45404(3) 0.49602(2)
Ca1_2 Ca -0.69905(3) -0.54596(3) 0.50398(2)
Ca1A_2 Ca 0.69905(3) 0.54596(3) 0.49602(2)
O1A O -0.26244(14) -0.28300(11) 0.57276(10)
O2A O -0.16944(12) -0.13512(11) 0.63410(10)
O3A O -0.23784(11) -0.60229(11) 0.63492(9)
O4A O -0.20153(13) -0.78820(11) 0.74023(10)
O5A O -0.53129(11) -0.45691(11) 0.59818(9)
O5_2 O -0.46871(11) -0.54309(11) 0.40182(9)
O5A_2 O 0.46871(11) 0.54309(11) 0.59818(9)
O6A O -0.25923(12) -0.62847(11) 0.39060(10)
O6_2 O 0.25923(12) 0.62847(11) 0.60940(10)
O6A_2 O 0.74077(12) 0.37153(11) 0.39060(10)
O7A O -0.3174(2) -0.28539(19) 0.34576(15)
O8A O -0.05809(13) -0.44022(14) 0.39521(11)
O9A O 0.12764(15) -0.18259(13) 0.48034(11)
O10A O -0.1127(6) -0.0163(15) 0.3589(9)
N1A N -0.41450(12) -0.45726(11) 0.78308(10)
C1A C -0.27604(14) -0.45031(13) 0.80031(11)
C2A C -0.18146(15) -0.34899(14) 0.73821(11)
C3A C -0.04973(16) -0.34135(16) 0.76219(13)
C4A C -0.09813(17) -0.53739(17) 0.90004(13)
C5A C -0.00572(16) -0.43614(18) 0.84044(13)
C6A C -0.23348(16) -0.54267(14) 0.88251(12)
C7A C -0.20860(15) -0.24872(14) 0.64191(12)
C8A C -0.48704(14) -0.57776(13) 0.81792(11)
C9A C -0.42144(15) -0.69030(13) 0.79359(11)
C10A C -0.49341(16) -0.80814(14) 0.84041(12)
C11A C -0.63019(17) -0.81664(15) 0.90593(13)
C12A C -0.69661(16) -0.70487(16) 0.92609(12)
C13A C -0.62529(15) -0.58742(14) 0.88347(12)
C14A C -0.27676(15) -0.69265(14) 0.71870(12)
C15A C -0.49725(14) -0.34498(13) 0.78319(11)
C16A C -0.59848(15) -0.31258(14) 0.71936(11)
C17A C -0.68059(17) -0.20513(15) 0.73081(14)
C18A C -0.66402(18) -0.12872(17) 0.80117(15)
C19A C -0.56320(17) -0.16054(16) 0.86330(14)
C20A C -0.48182(16) -0.26791(14) 0.85455(12)
C21A C -0.62444(15) -0.38454(13) 0.63754(11)
H1A H 0.015(3) -0.279(2) 0.7208(19)
H2A H 0.090(3) -0.426(3) 0.852(2)
H3A H -0.071(3) -0.599(3) 0.950(2)
H4A H -0.298(2) -0.610(2) 0.9329(19)
H5A H -0.447(3) -0.884(2) 0.825(2)
H6A H -0.682(3) -0.899(2) 0.938(2)
H7A H -0.785(3) -0.708(3) 0.969(2)
H8A H -0.671(2) -0.512(2) 0.9017(19)
H9A H -0.750(3) -0.187(2) 0.684(2)
H10A H -0.721(3) -0.053(3) 0.808(2)
H11A H -0.551(3) -0.114(2) 0.916(2)
H12A H -0.420(3) -0.285(2) 0.898(2)
H13A H -0.351(7) -0.229(6) 0.360(5)
H14A H -0.245(4) -0.245(4) 0.288(3)
H15A H -0.053(4) -0.486(4) 0.348(3)
H16A H 0.020(3) -0.423(3) 0.396(2)
H17A H 0.144(3) -0.195(3) 0.421(3)
H18A H 0.164(3) -0.233(3) 0.513(3)
H19A H -0.172(6) -0.063(6) 0.385(5)
H20A H -0.096(4) -0.064(3) 0.315(3)
O12 O 0.81173(18) 0.94786(14) 0.83403(12)
H21 H 0.798(4) 1.039(4) 0.807(3)
H22 H 0.820(4) 0.915(3) 0.764(3)
O13 O 0.06499(17) 0.17834(16) 0.79568(12)
H23 H -0.010(4) 0.211(3) 0.780(3)
H24 H 0.039(5) 0.165(4) 0.873(4)
O14 O 0.3953(2) 0.0750(2) 0.53455(19)
C22 C 0.5563(6) 0.1181(6) 0.6042(5)
C23 C 0.5248(8) 0.0744(7) 0.5669(6)
O15 O 0.0090(3) 0.1226(3) 0.0286(2)
H25 H 0.082(6) 0.086(5) 0.094(4)
H26 H 0.017(2) 0.0271(19) 0.0260(15)
O11? O 0.1272(11) 0.060(3) 0.6137(18)
loop_
_geom_bond_atom_site_label_1
_geom_bond_atom_site_label_2
_geom_bond_site_symmetry_1
_geom_bond_site_symmetry_2
Ca1 O1 1_555 1_555
Ca2 O2 1_555 1_555
O1 C7 1_555 1_555
O2 C7 1_555 1_555
O3 Ca1 1_555 1_555
O4 C14 1_555 1_555
O5 Ca1 1_555 1_555
O6 Ca1_2 1_555 1_555
O7 Ca1 1_555 1_555
O8 Ca1 1_555 1_555
O9 Ca2 1_555 1_555
O10 Ca2 1_555 1_555
O12 H21 1_555 1_555
O13 H23 1_555 1_555
O14 C23 1_555 1_555
O15 H25 1_555 1_555
N1 C1 1_555 1_555
C1 C2 1_555 1_555
C2 C3 1_555 1_555
C3 C5 1_555 1_555
C4 C5 1_555 1_555
C5 H2 1_555 1_555
C6 C1 1_555 1_555
C7 C2 1_555 1_555
C8 N1 1_555 1_555
C9 C8 1_555 1_555
C10 C9 1_555 1_555
C11 C10 1_555 1_555
C12 C11 1_555 1_555
C13 C8 1_555 1_555
C14 O3 1_555 1_555
C15 N1 1_555 1_555
C16 C15 1_555 1_555
C17 C16 1_555 1_555
C18 C17 1_555 1_555
C19 C18 1_555 1_555
C20 C15 1_555 1_555
C21 O5 1_555 1_555
C22 C23 1_555 1_555
H1 C3 1_555 1_555
H3 C4 1_555 1_555
H4 C6 1_555 1_555
H5 C10 1_555 1_555
H6 C11 1_555 1_555
H7 C12 1_555 1_555
H8 C13 1_555 1_555
H9 C17 1_555 1_555
H10 C18 1_555 1_555
H11 C19 1_555 1_555
H12 C20 1_555 1_555
H13 O7 1_555 1_555
H14 O7 1_555 1_555
H15 O8 1_555 1_555
H16 O8 1_555 1_555
H17 O9 1_555 1_555
H18 O9 1_555 1_555
H19 O10 1_555 1_555
H20 O10 1_555 1_555
H22 O12 1_555 1_555
H24 O13 1_555 1_555
H26 O15 1_555 1_555
Ca1A O1A 1_555 1_555
Ca1_2 O5A 1_555 1_555
Ca1A_2 O5 1_555 1_555
O1A C7A 1_555 1_555
O2A Ca2 1_555 1_555
O3A Ca1A 1_555 1_555
O4A C14A 1_555 1_555
O5A Ca1A 1_555 1_555
O5_2 Ca1A 1_555 1_555
O5A_2 Ca1 1_555 1_555
O6A Ca1A 1_555 1_555
O6_2 Ca1 1_555 1_555
O6A_2 C21 1_555 1_555
O7A Ca1A 1_555 1_555
O8A Ca1A 1_555 1_555
O9A Ca2 1_555 1_555
O10A Ca2 1_555 1_555
N1A C1A 1_555 1_555
C1A C2A 1_555 1_555
C2A C3A 1_555 1_555
C3A C5A 1_555 1_555
C4A C5A 1_555 1_555
C5A H2A 1_555 1_555
C6A C1A 1_555 1_555
C7A O2A 1_555 1_555
C8A N1A 1_555 1_555
C9A C8A 1_555 1_555
C10A C9A 1_555 1_555
C11A C10A 1_555 1_555
C12A C11A 1_555 1_555
C13A C8A 1_555 1_555
C14A O3A 1_555 1_555
C15A N1A 1_555 1_555
C16A C15A 1_555 1_555
C17A C16A 1_555 1_555
C18A C17A 1_555 1_555
C19A C18A 1_555 1_555
C20A C15A 1_555 1_555
C21A O6 1_555 1_555
H1A C3A 1_555 1_555
H3A C4A 1_555 1_555
H4A C6A 1_555 1_555
H5A C10A 1_555 1_555
H6A C11A 1_555 1_555
H7A C12A 1_555 1_555
H8A C13A 1_555 1_555
H9A C17A 1_555 1_555
H10A C18A 1_555 1_555
H11A C19A 1_555 1_555
H12A C20A 1_555 1_555
H13A O7A 1_555 1_555
H14A O7A 1_555 1_555
H15A O8A 1_555 1_555
H16A O8A 1_555 1_555
H17A O9A 1_555 1_555
H18A O9A 1_555 1_555
H19A O10A 1_555 1_555
H20A O10A 1_555 1_555
C4 C6 1_555 1_555
C9 C14 1_555 1_555
C12 C13 1_555 1_555
C16 C21 1_555 1_555
C19 C20 1_555 1_555
Ca1_2 O5_2 1_555 1_555
Ca1A_2 O5A_2 1_555 1_555
Ca1A_2 O6A_2 1_555 1_555
O5A C21A 1_555 1_555
C2A C7A 1_555 1_555
C4A C6A 1_555 1_555
C9A C14A 1_555 1_555
C12A C13A 1_555 1_555
C16A C21A 1_555 1_555
C19A C20A 1_555 1_555

#END
