
#######################################################################
#
#                 Cambridge Crystallographic Data Centre
#                                CCDC 
#
#######################################################################
#
# If this CIF has been generated from an entry in the Cambridge 
# Structural Database, then it will include bibliographic, chemical, 
# crystal, experimental, refinement or atomic coordinate data resulting 
# from the CCDC's data processing and validation procedures.
#
#######################################################################

data_FOCZOO
_symmetry_cell_setting           monoclinic
_symmetry_space_group_name_H-M   'P 21/c'
_symmetry_Int_Tables_number      14
_space_group_name_Hall           '-P 2ybc'
loop_
_symmetry_equiv_pos_site_id
_symmetry_equiv_pos_as_xyz
1 x,y,z
2 -x,1/2+y,1/2-z
3 -x,-y,-z
4 x,1/2-y,1/2+z
_cell_length_a                   10.1961(14)
_cell_length_b                   9.6050(12)
_cell_length_c                   13.5533(15)
_cell_angle_alpha                90
_cell_angle_beta                 109.4830(10)
_cell_angle_gamma                90
_cell_volume                     1251.32
loop_
_atom_site_label
_atom_site_type_symbol
_atom_site_fract_x
_atom_site_fract_y
_atom_site_fract_z
Zn1 Zn 0.05108(5) 0.42325(6) 0.38745(5)
C1 C 0.2188(5) 0.6408(5) 0.4958(4)
C2 C 0.1093(5) 1.1494(5) 0.4361(4)
C3 C 0.2553(4) 0.7900(5) 0.5187(3)
C4 C 0.1634(4) 0.8958(5) 0.4726(4)
H1 H 0.0739 0.8741 0.4291
C5 C 0.2032(4) 1.0326(5) 0.4907(4)
C6 C 0.3358(4) 1.0642(5) 0.5583(3)
H2 H 0.3617 1.1568 0.5727
C7 C 0.4299(4) 0.9600(5) 0.6046(4)
C8 C 0.3880(4) 0.8245(5) 0.5831(3)
H3 H 0.4507 0.7535 0.6128
C9 C 0.5745(4) 0.9940(5) 0.6757(4)
C10 C 0.6271(4) 1.1262(5) 0.6879(4)
H4 H 0.5711 1.1998 0.6537
C11 C 0.7630(5) 1.1517(5) 0.7509(4)
H5 H 0.7963 1.2426 0.7583
C12 C 0.7972(5) 0.9209(6) 0.7899(4)
H6 H 0.8552 0.8489 0.8247
C13 C 0.6636(4) 0.8889(5) 0.7294(4)
H7 H 0.6327 0.7973 0.7243
N1 N 0.8480(4) 1.0491(4) 0.8014(3)
O1 O 0.3118(3) 0.5500(3) 0.5198(3)
O2 O 0.0908(3) 0.6105(4) 0.4497(3)
O3 O 0.0017(3) 1.1268(3) 0.3615(3)
O4 O 0.1496(3) 1.2699(3) 0.4690(3)
O5 O 0.1312(3) 0.4278(4) 0.2684(3)
H8 H 0.2178 0.4437 0.2797
H9 H 0.0934 0.5021 0.2332
Zn1_2 Zn 0.05108(5) 1.42325(6) 0.38745(5)
Zn1C Zn 1.05108(5) 1.07675(6) 0.88745(5)
N1C N -0.1520(4) 0.4509(4) 0.3014(3)
O4_2 O 0.1496(3) 0.2699(3) 0.4690(3)
O6 O 0.4086(3) 0.5052(5) 0.3548(3)
H10 H 0.4933 0.4803 0.3706
H11 H 0.3886 0.5102 0.4113
loop_
_geom_bond_atom_site_label_1
_geom_bond_atom_site_label_2
_geom_bond_site_symmetry_1
_geom_bond_site_symmetry_2
Zn1 O2 1_555 1_555
C1 C3 1_555 1_555
C2 C5 1_555 1_555
C3 C4 1_555 1_555
C4 H1 1_555 1_555
C5 C4 1_555 1_555
C6 C5 1_555 1_555
H2 C6 1_555 1_555
C7 C6 1_555 1_555
C8 C3 1_555 1_555
H3 C8 1_555 1_555
C9 C7 1_555 1_555
C10 C9 1_555 1_555
H4 C10 1_555 1_555
C11 C10 1_555 1_555
H5 C11 1_555 1_555
C12 H6 1_555 1_555
C13 C9 1_555 1_555
H7 C13 1_555 1_555
N1 C11 1_555 1_555
O1 C1 1_555 1_555
O2 C1 1_555 1_555
O3 C2 1_555 1_555
O4 C2 1_555 1_555
O5 Zn1 1_555 1_555
H8 O5 1_555 1_555
H9 O5 1_555 1_555
O6 H10 1_555 1_555
H11 O6 1_555 1_555
Zn1_2 O4 1_555 1_555
Zn1C N1 1_555 1_555
N1C Zn1 1_555 1_555
O4_2 Zn1 1_555 1_555
C7 C8 1_555 1_555
C12 C13 1_555 1_555
C12 N1 1_555 1_555

#END
