
#######################################################################
#
#                 Cambridge Crystallographic Data Centre
#                                CCDC 
#
#######################################################################
#
# If this CIF has been generated from an entry in the Cambridge 
# Structural Database, then it will include bibliographic, chemical, 
# crystal, experimental, refinement or atomic coordinate data resulting 
# from the CCDC's data processing and validation procedures.
#
#######################################################################

data_FODBOR
_symmetry_cell_setting           monoclinic
_symmetry_space_group_name_H-M   'C 2'
_symmetry_Int_Tables_number      5
_space_group_name_Hall           'C 2y'
loop_
_symmetry_equiv_pos_site_id
_symmetry_equiv_pos_as_xyz
1 x,y,z
2 -x,y,-z
3 1/2+x,1/2+y,z
4 1/2-x,1/2+y,-z
_cell_length_a                   14.6246(8)
_cell_length_b                   12.9505(6)
_cell_length_c                   14.8149(8)
_cell_angle_alpha                90
_cell_angle_beta                 108.622(6)
_cell_angle_gamma                90
_cell_volume                     2658.98
loop_
_atom_site_label
_atom_site_type_symbol
_atom_site_fract_x
_atom_site_fract_y
_atom_site_fract_z
Cd1 Cd 1.0000 0.53504(4) 0.0000
Cd2 Cd 1.12319(3) 0.49841(4) 0.27513(4)
O1 O 1.0188(4) 0.4137(4) 0.1490(4)
O2 O 0.8875(4) 0.4254(5) 0.0246(4)
O3 O 0.6223(3) 0.1705(4) 0.0039(4)
O4 O 0.6008(3) 0.1181(4) 0.1363(4)
O5 O 0.8032(4) 0.2602(5) 0.4451(4)
O6 O 0.7926(4) 0.5047(6) 0.5549(4)
O7 O 0.8626(4) 0.3568(5) 0.6163(4)
N1 N 0.9975(5) 0.5859(6) 0.2917(5)
N2 N 0.8496(5) 0.6423(5) 0.2499(6)
N3 N 0.2629(4) 0.4660(5) 0.2512(5)
N4 N 0.3732(4) 0.4448(6) 0.1809(6)
C1 C 0.9306(5) 0.3936(6) 0.1062(6)
C2 C 0.6469(5) 0.1679(5) 0.0912(5)
C3 C 0.8744(5) 0.3301(6) 0.1544(5)
C4 C 0.7889(4) 0.2817(5) 0.1040(6)
H1 H 0.7675 0.2859 0.0378
C5 C 0.7355(5) 0.2284(6) 0.1482(6)
C6 C 0.7647(5) 0.2265(6) 0.2462(5)
H2 H 0.7266 0.1927 0.2766
C7 C 0.8492(5) 0.2735(6) 0.3008(6)
C8 C 0.9048(5) 0.3245(6) 0.2543(6)
H3 H 0.9626 0.3553 0.2896
C9 C 0.8828(6) 0.2688(7) 0.4078(6)
H4 H 0.9252 0.2099 0.4287
H5 H 0.9194 0.3306 0.4331
C10 C 0.7598(6) 0.3573(8) 0.4530(6)
H6 H 0.7607 0.4031 0.4007
C11 C 0.8102(6) 0.4077(8) 0.5477(7)
C12 C 0.6561(8) 0.3315(10) 0.4467(8)
H7 H 0.6232 0.3021 0.3855
H8 H 0.6236 0.3933 0.4551
H9 H 0.6564 0.2827 0.4956
C13 C 0.9670(6) 0.5785(7) 0.3684(7)
H10 H 1.0025 0.5532 0.4281
C14 C 0.8738(6) 0.6153(8) 0.3424(8)
H11 H 0.8350 0.6204 0.3812
C15 C 0.9253(6) 0.6234(6) 0.2227(7)
H12 H 0.9272 0.6353 0.1614
C16 C 0.7593(6) 0.6877(7) 0.1904(8)
H13 H 0.7671 0.7088 0.1304
H14 H 0.7465 0.7494 0.2216
C17 C 0.6731(6) 0.6175(7) 0.1696(7)
C18 C 0.5820(6) 0.6596(8) 0.1443(8)
H15 H 0.5750 0.7310 0.1405
C19 C 0.5016(7) 0.5988(8) 0.1244(8)
H16 H 0.4413 0.6301 0.1091
C20 C 0.5070(5) 0.4971(8) 0.1264(7)
C21 C 0.5977(6) 0.4532(8) 0.1496(8)
H17 H 0.6035 0.3817 0.1504
C22 C 0.6786(5) 0.5123(7) 0.1711(6)
H18 H 0.7387 0.4805 0.1872
C23 C 0.4176(6) 0.4295(8) 0.1069(8)
H19 H 0.3719 0.4471 0.0453
H20 H 0.4354 0.3576 0.1053
C24 C 0.4174(7) 0.4523(9) 0.2778(8)
H21 H 0.4835 0.4472 0.3085
C25 C 0.3518(6) 0.4680(8) 0.3209(7)
H22 H 0.3635 0.4784 0.3857
C26 C 0.2796(5) 0.4569(7) 0.1706(7)
H23 H 0.2314 0.4586 0.1118
Cd2A Cd 0.87681(3) 0.49841(4) -0.27513(4)
O1A O 0.9812(4) 0.4137(4) -0.1490(4)
O2A O 1.1125(4) 0.4254(5) -0.0246(4)
O3A O 1.3777(3) 0.1705(4) -0.0039(4)
O4A O 1.3992(3) 0.1181(4) -0.1363(4)
O5A O 1.1968(4) 0.2602(5) -0.4451(4)
O6A O 1.2074(4) 0.5047(6) -0.5549(4)
O7A O 1.1374(4) 0.3568(5) -0.6163(4)
N1A N 1.0025(5) 0.5859(6) -0.2917(5)
N2A N 1.1504(5) 0.6423(5) -0.2499(6)
N3A N 1.7371(4) 0.4660(5) -0.2512(5)
N4A N 1.6268(4) 0.4448(6) -0.1809(6)
C1A C 1.0694(5) 0.3936(6) -0.1062(6)
C2A C 1.3531(5) 0.1679(5) -0.0912(5)
C3A C 1.1256(5) 0.3301(6) -0.1544(5)
C4A C 1.2111(4) 0.2817(5) -0.1040(6)
H1A H 1.2325 0.2859 -0.0378
C5A C 1.2645(5) 0.2284(6) -0.1482(6)
C6A C 1.2353(5) 0.2265(6) -0.2462(5)
H2A H 1.2734 0.1927 -0.2766
C7A C 1.1508(5) 0.2735(6) -0.3008(6)
C8A C 1.0952(5) 0.3245(6) -0.2543(6)
H3A H 1.0374 0.3553 -0.2896
C9A C 1.1172(6) 0.2688(7) -0.4078(6)
H4A H 1.0748 0.2099 -0.4287
H5A H 1.0806 0.3306 -0.4331
C10A C 1.2402(6) 0.3573(8) -0.4530(6)
H6A H 1.2393 0.4031 -0.4007
C11A C 1.1898(6) 0.4077(8) -0.5477(7)
C12A C 1.3439(8) 0.3315(10) -0.4467(8)
H7A H 1.3768 0.3021 -0.3855
H8A H 1.3764 0.3933 -0.4551
H9A H 1.3436 0.2827 -0.4956
C13A C 1.0330(6) 0.5785(7) -0.3684(7)
H10A H 0.9975 0.5532 -0.4281
C14A C 1.1262(6) 0.6153(8) -0.3424(8)
H11A H 1.1650 0.6204 -0.3812
C15A C 1.0747(6) 0.6234(6) -0.2227(7)
H12A H 1.0728 0.6353 -0.1614
C16A C 1.2407(6) 0.6877(7) -0.1904(8)
H13A H 1.2329 0.7088 -0.1304
H14A H 1.2535 0.7494 -0.2216
C17A C 1.3269(6) 0.6175(7) -0.1696(7)
C18A C 1.4180(6) 0.6596(8) -0.1443(8)
H15A H 1.4250 0.7310 -0.1405
C19A C 1.4984(7) 0.5988(8) -0.1244(8)
H16A H 1.5587 0.6301 -0.1091
C20A C 1.4930(5) 0.4971(8) -0.1264(7)
C21A C 1.4023(6) 0.4532(8) -0.1496(8)
H17A H 1.3965 0.3817 -0.1504
C22A C 1.3214(5) 0.5123(7) -0.1711(6)
H18A H 1.2613 0.4805 -0.1872
C23A C 1.5824(6) 0.4295(8) -0.1069(8)
H19A H 1.6281 0.4471 -0.0453
H20A H 1.5646 0.3576 -0.1053
C24A C 1.5826(7) 0.4523(9) -0.2778(8)
H21A H 1.5165 0.4472 -0.3085
C25A C 1.6482(6) 0.4680(8) -0.3209(7)
H22A H 1.6365 0.4784 -0.3857
C26A C 1.7204(5) 0.4569(7) -0.1706(7)
H23A H 1.7686 0.4586 -0.1118
Cd1B Cd 0.5000 0.03504(4) 0.0000
Cd1B_2 Cd 1.5000 0.03504(4) 0.0000
Cd2_2 Cd 0.12319(3) 0.49841(4) 0.27513(4)
Cd2_3 Cd 1.12319(3) 0.49841(4) -0.72487(4)
Cd2A_2 Cd 0.87681(3) 0.49841(4) 0.72487(4)
Cd2A_3 Cd 1.87681(3) 0.49841(4) -0.27513(4)
Cd2B Cd 0.62319(3) -0.00159(4) 0.27513(4)
Cd2C Cd 1.37681(3) -0.00159(4) -0.27513(4)
O3B O 1.1223(3) 0.6705(4) 0.0039(4)
O3C O 0.8777(3) 0.6705(4) -0.0039(4)
O4B O 1.1008(3) 0.6181(4) 0.1363(4)
O4C O 0.8992(3) 0.6181(4) -0.1363(4)
O6_2 O 0.7926(4) 0.5047(6) -0.4451(4)
O6A_2 O 1.2074(4) 0.5047(6) 0.4451(4)
O7_2 O 0.8626(4) 0.3568(5) -0.3837(4)
O7A_2 O 1.1374(4) 0.3568(5) 0.3837(4)
N3_2 N 1.2629(4) 0.4660(5) 0.2512(5)
N3A_2 N 0.7371(4) 0.4660(5) -0.2512(5)
O8 O 0.6431(7) 0.6070(9) 0.3998(7)
H24 H 0.6414 0.6725 0.3954
H25 H 0.6626 0.5741 0.4521
loop_
_geom_bond_atom_site_label_1
_geom_bond_atom_site_label_2
_geom_bond_site_symmetry_1
_geom_bond_site_symmetry_2
Cd1 O1 1_555 1_555
Cd2 O1 1_555 1_555
O1 C1 1_555 1_555
O2 Cd1 1_555 1_555
O3 C2 1_555 1_555
O4 C2 1_555 1_555
O5 C9 1_555 1_555
O6 C11 1_555 1_555
O7 C11 1_555 1_555
N1 Cd2 1_555 1_555
N2 C14 1_555 1_555
N3 C25 1_555 1_555
N4 C23 1_555 1_555
C1 O2 1_555 1_555
C2 C5 1_555 1_555
C3 C1 1_555 1_555
C4 C3 1_555 1_555
H1 C4 1_555 1_555
C5 C4 1_555 1_555
C6 C5 1_555 1_555
H2 C6 1_555 1_555
C7 C6 1_555 1_555
C8 C3 1_555 1_555
H3 C8 1_555 1_555
C9 C7 1_555 1_555
H4 C9 1_555 1_555
H5 C9 1_555 1_555
C10 O5 1_555 1_555
H6 C10 1_555 1_555
C11 C10 1_555 1_555
C12 C10 1_555 1_555
H7 C12 1_555 1_555
H8 C12 1_555 1_555
H9 C12 1_555 1_555
C13 N1 1_555 1_555
H10 C13 1_555 1_555
C14 C13 1_555 1_555
H11 C14 1_555 1_555
C15 N1 1_555 1_555
H12 C15 1_555 1_555
C16 N2 1_555 1_555
H13 C16 1_555 1_555
H14 C16 1_555 1_555
C17 C16 1_555 1_555
C18 C17 1_555 1_555
H15 C18 1_555 1_555
C19 C18 1_555 1_555
H16 C19 1_555 1_555
C20 C19 1_555 1_555
C21 C20 1_555 1_555
H17 C21 1_555 1_555
C22 C17 1_555 1_555
H18 C22 1_555 1_555
C23 C20 1_555 1_555
H19 C23 1_555 1_555
H20 C23 1_555 1_555
C24 N4 1_555 1_555
H21 C24 1_555 1_555
C25 C24 1_555 1_555
H22 C25 1_555 1_555
C26 N3 1_555 1_555
H23 C26 1_555 1_555
O8 H24 1_555 1_555
H25 O8 1_555 1_555
Cd2A O1A 1_555 1_555
O1A Cd1 1_555 1_555
O2A Cd1 1_555 1_555
O3A C2A 1_555 1_555
O4A C2A 1_555 1_555
O5A C9A 1_555 1_555
O6A C11A 1_555 1_555
O7A C11A 1_555 1_555
N1A Cd2A 1_555 1_555
N2A C14A 1_555 1_555
N3A C25A 1_555 1_555
N4A C23A 1_555 1_555
C1A O1A 1_555 1_555
C2A C5A 1_555 1_555
C3A C1A 1_555 1_555
C4A C3A 1_555 1_555
H1A C4A 1_555 1_555
C5A C4A 1_555 1_555
C6A C5A 1_555 1_555
H2A C6A 1_555 1_555
C7A C6A 1_555 1_555
C8A C3A 1_555 1_555
H3A C8A 1_555 1_555
C9A C7A 1_555 1_555
H4A C9A 1_555 1_555
H5A C9A 1_555 1_555
C10A O5A 1_555 1_555
H6A C10A 1_555 1_555
C11A C10A 1_555 1_555
C12A C10A 1_555 1_555
H7A C12A 1_555 1_555
H8A C12A 1_555 1_555
H9A C12A 1_555 1_555
C13A N1A 1_555 1_555
H10A C13A 1_555 1_555
C14A C13A 1_555 1_555
H11A C14A 1_555 1_555
C15A N1A 1_555 1_555
H12A C15A 1_555 1_555
C16A N2A 1_555 1_555
H13A C16A 1_555 1_555
H14A C16A 1_555 1_555
C17A C16A 1_555 1_555
C18A C17A 1_555 1_555
H15A C18A 1_555 1_555
C19A C18A 1_555 1_555
H16A C19A 1_555 1_555
C20A C19A 1_555 1_555
C21A C20A 1_555 1_555
H17A C21A 1_555 1_555
C22A C17A 1_555 1_555
H18A C22A 1_555 1_555
C23A C20A 1_555 1_555
H19A C23A 1_555 1_555
H20A C23A 1_555 1_555
C24A N4A 1_555 1_555
H21A C24A 1_555 1_555
C25A C24A 1_555 1_555
H22A C25A 1_555 1_555
C26A N3A 1_555 1_555
H23A C26A 1_555 1_555
Cd1B O3 1_555 1_555
Cd1B_2 O3A 1_555 1_555
Cd2_2 N3 1_555 1_555
Cd2_3 O6A 1_555 1_555
Cd2A_2 O6 1_555 1_555
Cd2A_3 N3A 1_555 1_555
Cd2B O4 1_555 1_555
Cd2C O4A 1_555 1_555
O3B Cd1 1_555 1_555
O3C Cd1 1_555 1_555
O4B Cd1 1_555 1_555
O4C Cd1 1_555 1_555
O6_2 Cd2A 1_555 1_555
O6A_2 Cd2 1_555 1_555
O7_2 Cd2A 1_555 1_555
O7A_2 Cd2 1_555 1_555
N3_2 Cd2 1_555 1_555
N3A_2 Cd2A 1_555 1_555
Cd2 O4B 1_555 1_555
O4 Cd1B 1_555 1_555
O7 Cd2A_2 1_555 1_555
N2 C15 1_555 1_555
N4 C26 1_555 1_555
C7 C8 1_555 1_555
C21 C22 1_555 1_555
Cd2A O4C 1_555 1_555
O2A C1A 1_555 1_555
O4A Cd1B_2 1_555 1_555
O7A Cd2_3 1_555 1_555
N2A C15A 1_555 1_555
N4A C26A 1_555 1_555
C7A C8A 1_555 1_555
C21A C22A 1_555 1_555

#END
