
#######################################################################
#
#                 Cambridge Crystallographic Data Centre
#                                CCDC 
#
#######################################################################
#
# If this CIF has been generated from an entry in the Cambridge 
# Structural Database, then it will include bibliographic, chemical, 
# crystal, experimental, refinement or atomic coordinate data resulting 
# from the CCDC's data processing and validation procedures.
#
#######################################################################

data_FODBUX
_symmetry_cell_setting           monoclinic
_symmetry_space_group_name_H-M   'C 2'
_symmetry_Int_Tables_number      5
_space_group_name_Hall           'C 2y'
loop_
_symmetry_equiv_pos_site_id
_symmetry_equiv_pos_as_xyz
1 x,y,z
2 -x,y,-z
3 1/2+x,1/2+y,z
4 1/2-x,1/2+y,-z
_cell_length_a                   18.7884(8)
_cell_length_b                   10.2572(4)
_cell_length_c                   13.2908(7)
_cell_angle_alpha                90
_cell_angle_beta                 99.863(5)
_cell_angle_gamma                90
_cell_volume                     2523.5
loop_
_atom_site_label
_atom_site_type_symbol
_atom_site_fract_x
_atom_site_fract_y
_atom_site_fract_z
Cd1 Cd 0.5000 -0.00809(7) 0.5000
Cd2 Cd 0.46552(2) -0.22978(5) 0.70072(3)
O1 O 0.3934(2) -0.0635(5) 0.7349(4)
O2 O 0.4774(2) 0.0430(5) 0.6700(3)
O3 O 0.4712(2) 0.5411(6) 0.7041(4)
O4 O 0.3776(3) 0.6292(5) 0.7568(5)
O5 O 0.1544(2) 0.1495(5) 0.7091(4)
O6 O 0.0523(2) 0.3134(4) 0.5976(3)
O7 O 0.1046(2) 0.2869(6) 0.4609(3)
C1 C 0.7211(4) 0.1553(8) 0.5938(6)
H1 H 0.7697 0.1658 0.5894
N1 N 0.6052(3) 0.0967(7) 0.5595(4)
N2 N 0.5399(3) -0.1972(6) 0.8488(4)
C2 C 0.6099(4) -0.2243(11) 1.0014(5)
H2 H 0.6334 -0.2621 1.0616
C3 C 0.4207(3) 0.0390(8) 0.7070(5)
C4 C 0.4096(4) 0.5307(8) 0.7322(5)
C5 C 0.3804(4) 0.1652(7) 0.7207(5)
C6 C 0.4139(3) 0.2864(8) 0.7193(4)
H3 H 0.4614 0.2910 0.7084
C7 C 0.3775(4) 0.3991(8) 0.7340(5)
C8 C 0.3042(4) 0.3884(8) 0.7455(5)
H4 H 0.2783 0.4635 0.7544
C9 C 0.2706(3) 0.2696(9) 0.7438(4)
C10 C 0.3096(3) 0.1585(8) 0.7324(5)
H5 H 0.2874 0.0775 0.7326
C11 C 0.1915(3) 0.2609(9) 0.7559(5)
H6 H 0.1889 0.2598 0.8282
H7 H 0.1667 0.3387 0.7268
C12 C 0.1449(3) 0.1505(7) 0.6014(5)
H8 H 0.1923 0.1578 0.5805
C13 C 0.0964(3) 0.2571(9) 0.5504(5)
C14 C 0.1108(4) 0.0157(9) 0.5652(5)
H9 H 0.1436 -0.0530 0.5911
H10 H 0.1015 0.0127 0.4920
H11 H 0.0663 0.0046 0.5905
C15 C 0.6720(4) 0.0863(9) 0.5294(6)
H12 H 0.6814 0.0390 0.4735
C16 C 0.6167(4) 0.1698(8) 0.6423(6)
H13 H 0.5810 0.1929 0.6794
N3 N 0.6862(3) 0.2071(7) 0.6670(4)
C17 C 0.7184(3) 0.2894(9) 0.7534(5)
H14 H 0.7150 0.3801 0.7327
H15 H 0.7691 0.2677 0.7729
C18 C 0.6815(3) 0.2712(11) 0.8425(5)
C19 C 0.6902(4) 0.1555(9) 0.8993(6)
H16 H 0.7224 0.0932 0.8832
C20 C 0.6530(4) 0.1303(9) 0.9778(6)
C21 C 0.6081(4) 0.2253(9) 1.0043(6)
H17 H 0.5846 0.2123 1.0597
C22 C 0.5974(5) 0.3406(10) 0.9490(6)
H18 H 0.5656 0.4032 0.9655
C23 C 0.6348(4) 0.3617(9) 0.8685(6)
H19 H 0.6278 0.4392 0.8318
C24 C 0.6594(4) 0.0027(9) 1.0314(5)
H20 H 0.7094 -0.0254 1.0423
H21 H 0.6451 0.0128 1.0977
N4 N 0.6140(3) -0.0979(7) 0.9727(5)
C25 C 0.5712(4) -0.0864(9) 0.8815(5)
H22 H 0.5643 -0.0087 0.8451
C26 C 0.5639(4) -0.2858(9) 0.9232(6)
H23 H 0.5514 -0.3736 0.9217
Cd2A Cd 0.53448(2) -0.22978(5) 0.29928(3)
O1A O 0.6066(2) -0.0635(5) 0.2651(4)
O2A O 0.5226(2) 0.0430(5) 0.3300(3)
O3A O 0.5288(2) 0.5411(6) 0.2959(4)
O4A O 0.6224(3) 0.6292(5) 0.2432(5)
O5A O 0.8456(2) 0.1495(5) 0.2909(4)
O6A O 0.9477(2) 0.3134(4) 0.4024(3)
O7A O 0.8954(2) 0.2869(6) 0.5391(3)
C1A C 0.2789(4) 0.1553(8) 0.4062(6)
H1A H 0.2303 0.1658 0.4106
N1A N 0.3948(3) 0.0967(7) 0.4405(4)
N2A N 0.4601(3) -0.1972(6) 0.1512(4)
C2A C 0.3901(4) -0.2243(11) -0.0014(5)
H2A H 0.3666 -0.2621 -0.0616
C3A C 0.5793(3) 0.0390(8) 0.2930(5)
C4A C 0.5904(4) 0.5307(8) 0.2678(5)
C5A C 0.6196(4) 0.1652(7) 0.2793(5)
C6A C 0.5861(3) 0.2864(8) 0.2807(4)
H3A H 0.5386 0.2910 0.2916
C7A C 0.6225(4) 0.3991(8) 0.2660(5)
C8A C 0.6958(4) 0.3884(8) 0.2545(5)
H4A H 0.7217 0.4635 0.2456
C9A C 0.7294(3) 0.2696(9) 0.2562(4)
C10A C 0.6904(3) 0.1585(8) 0.2676(5)
H5A H 0.7126 0.0775 0.2674
C11A C 0.8085(3) 0.2609(9) 0.2441(5)
H6A H 0.8111 0.2598 0.1718
H7A H 0.8333 0.3387 0.2732
C12A C 0.8551(3) 0.1505(7) 0.3986(5)
H8A H 0.8077 0.1578 0.4195
C13A C 0.9036(3) 0.2571(9) 0.4496(5)
C14A C 0.8892(4) 0.0157(9) 0.4348(5)
H9A H 0.8564 -0.0530 0.4089
H10A H 0.8985 0.0127 0.5080
H11A H 0.9337 0.0046 0.4095
C15A C 0.3280(4) 0.0863(9) 0.4706(6)
H12A H 0.3186 0.0390 0.5265
C16A C 0.3833(4) 0.1698(8) 0.3577(6)
H13A H 0.4190 0.1929 0.3206
N3A N 0.3138(3) 0.2071(7) 0.3330(4)
C17A C 0.2816(3) 0.2894(9) 0.2466(5)
H14A H 0.2850 0.3801 0.2673
H15A H 0.2309 0.2677 0.2271
C18A C 0.3185(3) 0.2712(11) 0.1575(5)
C19A C 0.3098(4) 0.1555(9) 0.1007(6)
H16A H 0.2776 0.0932 0.1168
C20A C 0.3470(4) 0.1303(9) 0.0222(6)
C21A C 0.3919(4) 0.2253(9) -0.0043(6)
H17A H 0.4154 0.2123 -0.0597
C22A C 0.4026(5) 0.3406(10) 0.0510(6)
H18A H 0.4344 0.4032 0.0345
C23A C 0.3652(4) 0.3617(9) 0.1315(6)
H19A H 0.3722 0.4392 0.1682
C24A C 0.3406(4) 0.0027(9) -0.0314(5)
H20A H 0.2906 -0.0254 -0.0423
H21A H 0.3549 0.0128 -0.0977
N4A N 0.3860(3) -0.0979(7) 0.0273(5)
C25A C 0.4288(4) -0.0864(9) 0.1185(5)
H22A H 0.4357 -0.0087 0.1549
C26A C 0.4361(4) -0.2858(9) 0.0768(6)
H23A H 0.4486 -0.3736 0.0783
Cd1B Cd 0.0000 0.49191(7) 0.5000
Cd1B_2 Cd 1.0000 0.49191(7) 0.5000
Cd2_2 Cd 0.46552(2) 0.77022(5) 0.70072(3)
Cd2A_2 Cd 0.53448(2) 0.77022(5) 0.29928(3)
Cd2B Cd -0.03448(2) 0.27022(5) 0.70072(3)
Cd2B_2 Cd 0.96552(2) 0.27022(5) 0.70072(3)
Cd2C Cd 0.03448(2) 0.27022(5) 0.29928(3)
Cd2C_2 Cd 1.03448(2) 0.27022(5) 0.29928(3)
O3_2 O 0.4712(2) -0.4589(6) 0.7041(4)
O3A_2 O 0.5288(2) -0.4589(6) 0.2959(4)
O4_2 O 0.3776(3) -0.3708(5) 0.7568(5)
O4A_2 O 0.6224(3) -0.3708(5) 0.2432(5)
O6B O 0.5523(2) -0.1866(4) 0.5976(3)
O6C O 0.4477(2) -0.1866(4) 0.4024(3)
O7B O 0.6046(2) -0.2131(6) 0.4609(3)
O7C O 0.3954(2) -0.2131(6) 0.5391(3)
loop_
_geom_bond_atom_site_label_1
_geom_bond_atom_site_label_2
_geom_bond_site_symmetry_1
_geom_bond_site_symmetry_2
Cd1 O2 1_555 1_555
Cd2 O1 1_555 1_555
O1 C3 1_555 1_555
O2 C3 1_555 1_555
O3 C4 1_555 1_555
O4 C4 1_555 1_555
O5 C11 1_555 1_555
O6 C13 1_555 1_555
O7 C13 1_555 1_555
C1 H1 1_555 1_555
N1 Cd1 1_555 1_555
N2 Cd2 1_555 1_555
C2 H2 1_555 1_555
C3 C5 1_555 1_555
C4 C7 1_555 1_555
C5 C6 1_555 1_555
C6 H3 1_555 1_555
C7 C6 1_555 1_555
C8 C7 1_555 1_555
H4 C8 1_555 1_555
C9 C8 1_555 1_555
C10 C5 1_555 1_555
H5 C10 1_555 1_555
C11 C9 1_555 1_555
H6 C11 1_555 1_555
H7 C11 1_555 1_555
C12 O5 1_555 1_555
H8 C12 1_555 1_555
C13 C12 1_555 1_555
C14 C12 1_555 1_555
H9 C14 1_555 1_555
H10 C14 1_555 1_555
H11 C14 1_555 1_555
C15 C1 1_555 1_555
H12 C15 1_555 1_555
C16 N1 1_555 1_555
H13 C16 1_555 1_555
N3 C1 1_555 1_555
C17 N3 1_555 1_555
H14 C17 1_555 1_555
H15 C17 1_555 1_555
C18 C17 1_555 1_555
C19 C18 1_555 1_555
H16 C19 1_555 1_555
C20 C19 1_555 1_555
C21 C20 1_555 1_555
H17 C21 1_555 1_555
C22 C21 1_555 1_555
H18 C22 1_555 1_555
C23 C18 1_555 1_555
H19 C23 1_555 1_555
C24 C20 1_555 1_555
H20 C24 1_555 1_555
H21 C24 1_555 1_555
N4 C2 1_555 1_555
C25 N2 1_555 1_555
H22 C25 1_555 1_555
C26 N2 1_555 1_555
H23 C26 1_555 1_555
Cd2A O1A 1_555 1_555
O1A C3A 1_555 1_555
O2A Cd1 1_555 1_555
O3A C4A 1_555 1_555
O4A C4A 1_555 1_555
O5A C11A 1_555 1_555
O6A C13A 1_555 1_555
O7A C13A 1_555 1_555
C1A H1A 1_555 1_555
N1A Cd1 1_555 1_555
N2A Cd2A 1_555 1_555
C2A H2A 1_555 1_555
C3A O2A 1_555 1_555
C4A C7A 1_555 1_555
C5A C3A 1_555 1_555
C6A C5A 1_555 1_555
H3A C6A 1_555 1_555
C7A C6A 1_555 1_555
C8A C7A 1_555 1_555
H4A C8A 1_555 1_555
C9A C8A 1_555 1_555
C10A C5A 1_555 1_555
H5A C10A 1_555 1_555
C11A C9A 1_555 1_555
H6A C11A 1_555 1_555
H7A C11A 1_555 1_555
C12A O5A 1_555 1_555
H8A C12A 1_555 1_555
C13A C12A 1_555 1_555
C14A C12A 1_555 1_555
H9A C14A 1_555 1_555
H10A C14A 1_555 1_555
H11A C14A 1_555 1_555
C15A C1A 1_555 1_555
H12A C15A 1_555 1_555
C16A N1A 1_555 1_555
H13A C16A 1_555 1_555
N3A C1A 1_555 1_555
C17A N3A 1_555 1_555
H14A C17A 1_555 1_555
H15A C17A 1_555 1_555
C18A C17A 1_555 1_555
C19A C18A 1_555 1_555
H16A C19A 1_555 1_555
C20A C19A 1_555 1_555
C21A C20A 1_555 1_555
H17A C21A 1_555 1_555
C22A C21A 1_555 1_555
H18A C22A 1_555 1_555
C23A C18A 1_555 1_555
H19A C23A 1_555 1_555
C24A C20A 1_555 1_555
H20A C24A 1_555 1_555
H21A C24A 1_555 1_555
N4A C2A 1_555 1_555
C25A N2A 1_555 1_555
H22A C25A 1_555 1_555
C26A N2A 1_555 1_555
H23A C26A 1_555 1_555
Cd1B O6 1_555 1_555
Cd1B_2 O6A 1_555 1_555
Cd2_2 O3 1_555 1_555
Cd2A_2 O3A 1_555 1_555
Cd2B O6 1_555 1_555
Cd2B_2 O7A 1_555 1_555
Cd2C O7 1_555 1_555
Cd2C_2 O6A 1_555 1_555
O3_2 Cd2 1_555 1_555
O3A_2 Cd2A 1_555 1_555
O4_2 Cd2 1_555 1_555
O4A_2 Cd2A 1_555 1_555
O6B Cd1 1_555 1_555
O6C Cd1 1_555 1_555
O7B Cd2A 1_555 1_555
O7C Cd2 1_555 1_555
Cd2 O6B 1_555 1_555
O4 Cd2_2 1_555 1_555
N1 C15 1_555 1_555
C2 C26 1_555 1_555
C9 C10 1_555 1_555
C16 N3 1_555 1_555
C22 C23 1_555 1_555
C24 N4 1_555 1_555
N4 C25 1_555 1_555
Cd2A O6C 1_555 1_555
O4A Cd2A_2 1_555 1_555
N1A C15A 1_555 1_555
C2A C26A 1_555 1_555
C9A C10A 1_555 1_555
C16A N3A 1_555 1_555
C22A C23A 1_555 1_555
C24A N4A 1_555 1_555
N4A C25A 1_555 1_555

#END
