
#######################################################################
#
#                 Cambridge Crystallographic Data Centre
#                                CCDC 
#
#######################################################################
#
# If this CIF has been generated from an entry in the Cambridge 
# Structural Database, then it will include bibliographic, chemical, 
# crystal, experimental, refinement or atomic coordinate data resulting 
# from the CCDC's data processing and validation procedures.
#
#######################################################################

data_FODCUY
_symmetry_cell_setting           monoclinic
_symmetry_space_group_name_H-M   'P 21/c'
_symmetry_Int_Tables_number      14
_space_group_name_Hall           '-P 2ybc'
loop_
_symmetry_equiv_pos_site_id
_symmetry_equiv_pos_as_xyz
1 x,y,z
2 -x,1/2+y,1/2-z
3 -x,-y,-z
4 x,1/2-y,1/2+z
_cell_length_a                   23.6532(9)
_cell_length_b                   16.1209(6)
_cell_length_c                   13.6472(5)
_cell_angle_alpha                90
_cell_angle_beta                 97.1590(10)
_cell_angle_gamma                90
_cell_volume                     5163.26
loop_
_atom_site_label
_atom_site_type_symbol
_atom_site_fract_x
_atom_site_fract_y
_atom_site_fract_z
Cd1 Cd 0.46771(2) 0.50848(4) 0.86474(4)
Cd2 Cd -0.02705(2) 0.48743(4) 0.85862(5)
O1 O 0.4474(3) 0.4657(4) 1.0230(5)
O2 O 0.0476(3) 0.4387(4) 1.0020(5)
O3 O 0.0551(3) 0.4120(4) 0.8481(5)
O4 O 0.3708(3) 0.4805(4) 0.8015(6)
O5 O 0.4294(3) 0.5155(4) 0.6956(5)
O6 O 0.1074(3) 0.4595(5) 0.2458(6)
O7 O 0.0543(3) 0.5483(5) 0.3140(5)
O8 O 0.4379(2) 0.4456(4) 1.1772(5)
N1 N 0.4972(2) 0.3717(4) 0.8493(5)
N2 N 0.4400(2) 0.6462(4) 0.8860(5)
N3 N 0.0237(3) 0.6076(5) 0.8318(6)
N4 N 0.9165(3) 0.3785(5) 0.9002(5)
N5 N 0.2095(3) 0.7297(4) 0.8369(5)
N6 N 0.2669(3) 0.7029(4) 0.8482(5)
N7 N 0.6686(3) 0.3082(4) 0.8809(5)
N8 N 0.7253(3) 0.2784(4) 0.8949(5)
C1 C 0.4155(6) 0.4510(10) 1.0901(12)
C2 C 0.3543(5) 0.4406(10) 1.0464(11)
H1 H 0.3431 0.4897 1.0049
H2 H 0.3517 0.3916 1.0024
C3 C 0.3140(5) 0.4307(10) 1.1151(10)
H3 H 0.3106 0.4814 1.1549
H4 H 0.3233 0.3827 1.1595
C4 C 0.1429(3) 0.4054(6) 0.9645(7)
C5 C 0.1600(4) 0.3927(6) 1.0646(7)
H5 H 0.1324 0.3809 1.1077
C6 C 0.2174(4) 0.3972(6) 1.1016(5)
H6 H 0.2290 0.3885 1.1699
C7 C 0.2577(3) 0.4145(7) 1.0385(7)
C8 C 0.2406(4) 0.4272(7) 0.9384(7)
H7 H 0.2681 0.4390 0.8953
C9 C 0.1832(4) 0.4226(6) 0.9015(5)
H8 H 0.1715 0.4313 0.8331
C10 C 0.0782(7) 0.4176(9) 0.9360(11)
C11 C 0.3808(6) 0.5000(8) 0.7163(10)
C12 C 0.3303(6) 0.5090(8) 0.6356(10)
C13 C 0.3385(6) 0.5134(8) 0.5433(10)
H9 H 0.3764 0.5122 0.5271
C14 C 0.2919(6) 0.5202(8) 0.4648(10)
H10 H 0.2983 0.5194 0.3975
C15 C 0.2399(6) 0.5275(9) 0.4898(10)
C16 C 0.2286(6) 0.5258(8) 0.5756(10)
H11 H 0.1902 0.5293 0.5889
C17 C 0.2757(5) 0.5183(8) 0.6580(10)
H12 H 0.2682 0.5199 0.7248
C18 C 0.0967(6) 0.5047(9) 0.3174(11)
C19 C 0.1403(6) 0.5076(9) 0.4165(10)
H13 H 0.1422 0.4525 0.4488
H14 H 0.1271 0.5485 0.4628
C20 C 0.1939(6) 0.5299(9) 0.3941(10)
H15 H 0.2056 0.4913 0.3438
H16 H 0.1922 0.5865 0.3658
C21 C 0.4770(3) 0.7095(5) 0.8981(6)
H17 H 0.5166 0.6971 0.9082
C22 C 0.4608(3) 0.7914(5) 0.8966(6)
H18 H 0.4886 0.8342 0.9039
C23 C 0.4034(3) 0.8103(5) 0.8843(6)
H19 H 0.3912 0.8665 0.8830
C24 C 0.3632(3) 0.7455(5) 0.8737(6)
C25 C 0.3837(3) 0.6647(5) 0.8747(6)
H20 H 0.3570 0.6205 0.8672
C26 C 0.3018(3) 0.7616(5) 0.8609(6)
H21 H 0.2883 0.8171 0.8622
C27 C 0.1754(4) 0.6683(5) 0.8333(6)
H22 H 0.1909 0.6138 0.8358
C28 C 0.1137(4) 0.6777(5) 0.8255(6)
C29 C 0.0857(4) 0.7527(5) 0.8143(6)
H23 H 0.1064 0.8027 0.8088
C30 C 0.0271(4) 0.7541(5) 0.8111(6)
H24 H 0.0070 0.8052 0.8030
C31 C -0.0021(4) 0.6813(5) 0.8198(6)
H25 H -0.0424 0.6834 0.8172
C32 C 0.0804(4) 0.6063(5) 0.8338(6)
H26 H 0.0992 0.5542 0.8412
C33 C 0.4586(4) 0.3108(5) 0.8359(6)
H27 H 0.4193 0.3250 0.8268
C34 C 0.4737(3) 0.2283(5) 0.8347(6)
H28 H 0.4450 0.1869 0.8243
C35 C 0.5304(3) 0.2057(5) 0.8486(6)
H29 H 0.5414 0.1490 0.8490
C36 C 0.5523(3) 0.3511(5) 0.8602(6)
H30 H 0.5799 0.3942 0.8670
C37 C 0.5712(3) 0.2686(5) 0.8619(6)
C38 C 0.6330(3) 0.2498(5) 0.8759(6)
H31 H 0.6457 0.1939 0.8810
C39 C 0.7610(4) 0.3378(5) 0.8898(6)
H32 H 0.7473 0.3927 0.8779
C40 C 0.8226(4) 0.3223(5) 0.9018(6)
C41 C 0.8464(4) 0.2434(5) 0.9269(6)
H33 H 0.8227 0.1973 0.9363
C42 C 0.9048(4) 0.2349(5) 0.9375(6)
H34 H 0.9217 0.1825 0.9540
C43 C 0.8598(4) 0.3867(5) 0.8885(6)
H35 H 0.8441 0.4395 0.8700
C44 C 0.9393(4) 0.3035(5) 0.9240(6)
H36 H 0.9795 0.2970 0.9317
Cd1B Cd 0.53229(2) 0.49152(4) 1.13526(4)
Cd2_2 Cd 0.97295(2) 0.48743(4) 0.85862(5)
Cd2B Cd 0.02705(2) 0.51257(4) 0.14138(5)
Cd2B_2 Cd 0.02705(2) 0.51257(4) 1.14138(5)
O1B O 0.5526(3) 0.5343(4) 0.9770(5)
O2B O -0.0476(3) 0.5613(4) 0.9980(5)
O6B O -0.1074(3) 0.5405(5) 0.7542(6)
O7B O -0.0543(3) 0.4517(5) 0.6860(5)
O8B O 0.5621(2) 0.5544(4) 0.8228(5)
N4_2 N -0.0835(3) 0.3785(5) 0.9002(5)
loop_
_geom_bond_atom_site_label_1
_geom_bond_atom_site_label_2
_geom_bond_site_symmetry_1
_geom_bond_site_symmetry_2
Cd1 O1 1_555 1_555
Cd2 O2 1_555 1_555
O1 C1 1_555 1_555
O2 C10 1_555 1_555
O3 Cd2 1_555 1_555
O4 Cd1 1_555 1_555
O5 Cd1 1_555 1_555
O6 C18 1_555 1_555
O7 C18 1_555 1_555
O8 C1 1_555 1_555
N1 Cd1 1_555 1_555
N2 Cd1 1_555 1_555
N3 Cd2 1_555 1_555
N4 C43 1_555 1_555
N5 N6 1_555 1_555
N6 C26 1_555 1_555
N7 N8 1_555 1_555
N8 C39 1_555 1_555
C1 C2 1_555 1_555
C2 H1 1_555 1_555
H2 C2 1_555 1_555
C3 C2 1_555 1_555
H3 C3 1_555 1_555
H4 C3 1_555 1_555
C4 C5 1_555 1_555
C5 H5 1_555 1_555
C6 C5 1_555 1_555
H6 C6 1_555 1_555
C7 C3 1_555 1_555
C8 C7 1_555 1_555
H7 C8 1_555 1_555
C9 C4 1_555 1_555
H8 C9 1_555 1_555
C10 O3 1_555 1_555
C11 O4 1_555 1_555
C12 C11 1_555 1_555
C13 C12 1_555 1_555
H9 C13 1_555 1_555
C14 C13 1_555 1_555
H10 C14 1_555 1_555
C15 C14 1_555 1_555
C16 C15 1_555 1_555
H11 C16 1_555 1_555
C17 C12 1_555 1_555
H12 C17 1_555 1_555
C18 C19 1_555 1_555
C19 H13 1_555 1_555
H14 C19 1_555 1_555
C20 C15 1_555 1_555
H15 C20 1_555 1_555
H16 C20 1_555 1_555
C21 N2 1_555 1_555
H17 C21 1_555 1_555
C22 C21 1_555 1_555
H18 C22 1_555 1_555
C23 C22 1_555 1_555
H19 C23 1_555 1_555
C24 C23 1_555 1_555
C25 N2 1_555 1_555
H20 C25 1_555 1_555
C26 C24 1_555 1_555
H21 C26 1_555 1_555
C27 N5 1_555 1_555
H22 C27 1_555 1_555
C28 C27 1_555 1_555
C29 C28 1_555 1_555
H23 C29 1_555 1_555
C30 C29 1_555 1_555
H24 C30 1_555 1_555
C31 N3 1_555 1_555
H25 C31 1_555 1_555
C32 N3 1_555 1_555
H26 C32 1_555 1_555
C33 N1 1_555 1_555
H27 C33 1_555 1_555
C34 C33 1_555 1_555
H28 C34 1_555 1_555
C35 C34 1_555 1_555
H29 C35 1_555 1_555
C36 N1 1_555 1_555
H30 C36 1_555 1_555
C37 C35 1_555 1_555
C38 N7 1_555 1_555
H31 C38 1_555 1_555
C39 H32 1_555 1_555
C40 C39 1_555 1_555
C41 C40 1_555 1_555
H33 C41 1_555 1_555
C42 C41 1_555 1_555
H34 C42 1_555 1_555
C43 C40 1_555 1_555
H35 C43 1_555 1_555
C44 N4 1_555 1_555
H36 C44 1_555 1_555
Cd1B O1 1_555 1_555
Cd2_2 N4 1_555 1_555
Cd2B O6 1_555 1_555
Cd2B_2 O2 1_555 1_555
O1B Cd1 1_555 1_555
O2B Cd2 1_555 1_555
O6B Cd2 1_555 1_555
O7B Cd2 1_555 1_555
O8B Cd1 1_555 1_555
N4_2 Cd2 1_555 1_555
O5 C11 1_555 1_555
O7 Cd2B 1_555 1_555
O8 Cd1B 1_555 1_555
C4 C10 1_555 1_555
C6 C7 1_555 1_555
C8 C9 1_555 1_555
C16 C17 1_555 1_555
C19 C20 1_555 1_555
C24 C25 1_555 1_555
C28 C32 1_555 1_555
C30 C31 1_555 1_555
C36 C37 1_555 1_555
C37 C38 1_555 1_555
C42 C44 1_555 1_555
Cd1B O1B 1_555 1_555
Cd2B_2 O2B 1_555 1_555

#END
