
#######################################################################
#
#                 Cambridge Crystallographic Data Centre
#                                CCDC 
#
#######################################################################
#
# If this CIF has been generated from an entry in the Cambridge 
# Structural Database, then it will include bibliographic, chemical, 
# crystal, experimental, refinement or atomic coordinate data resulting 
# from the CCDC's data processing and validation procedures.
#
#######################################################################

data_FODDOT
_symmetry_cell_setting           monoclinic
_symmetry_space_group_name_H-M   'P 21/n'
_symmetry_Int_Tables_number      14
_space_group_name_Hall           '-P 2yn'
loop_
_symmetry_equiv_pos_site_id
_symmetry_equiv_pos_as_xyz
1 x,y,z
2 1/2-x,1/2+y,1/2-z
3 -x,-y,-z
4 1/2+x,1/2-y,1/2+z
_cell_length_a                   8.7921(3)
_cell_length_b                   18.1758(6)
_cell_length_c                   8.9442(3)
_cell_angle_alpha                90
_cell_angle_beta                 98.5197(4)
_cell_angle_gamma                90
_cell_volume                     1413.54
loop_
_atom_site_label
_atom_site_type_symbol
_atom_site_fract_x
_atom_site_fract_y
_atom_site_fract_z
C1 C 0.9509(3) 0.39030(17) 0.5383(4)
C2 C 0.9283(3) 0.30841(17) 0.5499(4)
C3 C 0.8487(4) 0.27035(18) 0.4294(4)
H1 H 0.8061 0.2952 0.3422
C4 C 0.8330(4) 0.19449(19) 0.4399(4)
H2 H 0.7836 0.1688 0.3567
C5 C 0.9615(5) 0.19418(19) 0.6844(4)
H3 H 0.9981 0.1687 0.7726
C6 C 0.9859(4) 0.26944(18) 0.6786(4)
H4 H 1.0408 0.2936 0.7611
C7 C 0.5738(4) 0.71584(17) 0.4326(4)
C8 C 0.6291(4) 0.79376(17) 0.4652(4)
C9 C 0.5502(4) 0.85328(19) 0.3936(4)
H5 H 0.4602 0.8460 0.3263
C10 C 0.6072(5) 0.9236(2) 0.4236(4)
H6 H 0.5572 0.9632 0.3719
C11 C 0.7595(4) 0.80704(19) 0.5694(4)
H7 H 0.8156 0.7682 0.6176
C12 C 0.8044(5) 0.8784(2) 0.6002(4)
H8 H 0.8873 0.8872 0.6755
N1 N 0.8864(4) 0.15699(15) 0.5660(3)
N2 N 0.7336(4) 0.93618(17) 0.5261(3)
O1 O 0.7743(3) 0.54431(14) 0.6488(3)
O2 O 0.6307(3) 0.52774(14) 0.2555(3)
O3 O 1.0670(3) 0.41795(13) 0.6188(3)
O4 O 0.4528(3) 0.56465(14) 0.5003(3)
O5 O 0.8526(3) 0.42458(13) 0.4493(3)
O6 O 0.6784(3) 0.66703(14) 0.4467(3)
O7 O 0.4345(3) 0.70585(14) 0.3976(3)
Ag1 Ag 0.82908(5) 0.04329(2) 0.56901(4)
U1 U 0.69782(2) 0.53474(2) 0.45392(2)
H9 H 0.418(6) 0.608(3) 0.467(6)
N2_2 N 0.7336(4) -0.06382(17) 0.5261(3)
O3B O 0.9330(3) 0.58205(13) 0.3812(3)
O4B O 0.5472(3) 0.43535(14) 0.4997(3)
Ag1_2 Ag 0.82908(5) 1.04329(2) 0.56901(4)
U1B U 0.30218(2) 0.46526(2) 0.54608(2)
U1B_2 U 1.30218(2) 0.46526(2) 0.54608(2)
loop_
_geom_bond_atom_site_label_1
_geom_bond_atom_site_label_2
_geom_bond_site_symmetry_1
_geom_bond_site_symmetry_2
C1 C2 1_555 1_555
C2 C3 1_555 1_555
C3 H1 1_555 1_555
C4 C3 1_555 1_555
H2 C4 1_555 1_555
C5 H3 1_555 1_555
C6 C2 1_555 1_555
H4 C6 1_555 1_555
C7 C8 1_555 1_555
C8 C9 1_555 1_555
C9 H5 1_555 1_555
C10 C9 1_555 1_555
H6 C10 1_555 1_555
C11 C8 1_555 1_555
H7 C11 1_555 1_555
C12 C11 1_555 1_555
H8 C12 1_555 1_555
N1 C4 1_555 1_555
N2 C10 1_555 1_555
O1 U1 1_555 1_555
O2 U1 1_555 1_555
O3 C1 1_555 1_555
O4 U1 1_555 1_555
O5 C1 1_555 1_555
O6 C7 1_555 1_555
O7 C7 1_555 1_555
Ag1 N1 1_555 1_555
U1 O5 1_555 1_555
H9 O4 1_555 1_555
N2_2 Ag1 1_555 1_555
O3B U1 1_555 1_555
O4B U1 1_555 1_555
Ag1_2 N2 1_555 1_555
U1B O4 1_555 1_555
U1B_2 O3 1_555 1_555
C5 C6 1_555 1_555
C5 N1 1_555 1_555
C12 N2 1_555 1_555
O6 U1 1_555 1_555
O4B U1B 1_555 1_555

#END
