
#######################################################################
#
#                 Cambridge Crystallographic Data Centre
#                                CCDC 
#
#######################################################################
#
# If this CIF has been generated from an entry in the Cambridge 
# Structural Database, then it will include bibliographic, chemical, 
# crystal, experimental, refinement or atomic coordinate data resulting 
# from the CCDC's data processing and validation procedures.
#
#######################################################################

data_FODFUB
_symmetry_cell_setting           monoclinic
_symmetry_space_group_name_H-M   'P 21/c'
_symmetry_Int_Tables_number      14
_space_group_name_Hall           '-P 2ybc'
loop_
_symmetry_equiv_pos_site_id
_symmetry_equiv_pos_as_xyz
1 x,y,z
2 -x,1/2+y,1/2-z
3 -x,-y,-z
4 x,1/2-y,1/2+z
_cell_length_a                   10.791(2)
_cell_length_b                   17.717(3)
_cell_length_c                   9.7094(19)
_cell_angle_alpha                90
_cell_angle_beta                 92.49(3)
_cell_angle_gamma                90
_cell_volume                     1854.53
loop_
_atom_site_label
_atom_site_type_symbol
_atom_site_fract_x
_atom_site_fract_y
_atom_site_fract_z
Zn1 Zn 0.56874(5) 0.43271(3) -0.14915(4)
N1 N 0.4544(3) 0.34679(19) -0.1023(3)
N2 N 0.9512(3) 0.2597(2) 0.3149(3)
O1 O 0.6820(3) 0.43748(15) 0.0148(3)
O2 O 0.5358(3) 0.47360(17) 0.1561(3)
O3 O 0.6123(3) 0.44414(17) 0.6592(3)
O4 O 0.7184(3) 0.34417(17) 0.7309(3)
O5 O 0.9727(4) 0.21227(19) 0.4040(3)
O6 O 1.0071(3) 0.2648(2) 0.2086(3)
C1 C 0.4767(5) 0.2748(3) -0.1396(6)
H1 H 0.5476 0.2648 -0.1894
C2 C 0.4014(5) 0.2158(3) -0.1086(6)
H2 H 0.4214 0.1665 -0.1359
C3 C 0.2939(4) 0.2289(2) -0.0359(5)
C4 C 0.2734(4) 0.3027(2) 0.0056(5)
H3 H 0.2046 0.3141 0.0581
C5 C 0.3539(4) 0.3594(2) -0.0302(4)
H4 H 0.3371 0.4091 -0.0026
C6 C 0.2040(4) 0.1708(2) -0.0039(5)
H5 H 0.1391 0.1852 0.0519
C7 C 0.2046(5) 0.0989(2) -0.0461(5)
H6 H 0.2728 0.0811 -0.0937
C8 C 0.0868(5) 0.0240(3) -0.2775(5)
H7 H 0.0843 -0.0232 -0.3281
H8 H 0.1713 0.0428 -0.2711
H9 H 0.0339 0.0608 -0.3252
C9 C 0.0416(4) 0.0112(2) -0.1345(4)
C10 C 0.1015(4) 0.0464(2) -0.0202(4)
C11 C 0.0611(4) 0.0345(2) 0.1149(4)
C12 C 0.1317(5) 0.0676(2) 0.2384(5)
H10 H 0.2157 0.0794 0.2139
H11 H 0.1341 0.0313 0.3133
H12 H 0.0908 0.1133 0.2674
C13 C 0.7023(4) 0.4026(2) 0.2495(3)
C14 C 0.7978(4) 0.3523(2) 0.2255(3)
H13 H 0.8248 0.3443 0.1359
C15 C 0.8518(4) 0.3145(2) 0.3371(4)
C16 C 0.8155(4) 0.3250(2) 0.4705(4)
H14 H 0.8529 0.2976 0.5439
C17 C 0.7229(4) 0.3768(2) 0.4937(3)
C18 C 0.6665(4) 0.4154(2) 0.3845(4)
H15 H 0.6036 0.4506 0.4008
C19 C 0.6352(4) 0.4419(2) 0.1320(4)
C20 C 0.6842(5) 0.3884(3) 0.6390(4)
N1B N -0.4544(3) -0.34679(19) 0.1023(3)
C1B C -0.4767(5) -0.2748(3) 0.1396(6)
H1B H -0.5476 -0.2648 0.1894
C2B C -0.4014(5) -0.2158(3) 0.1086(6)
H2B H -0.4214 -0.1665 0.1359
C3B C -0.2939(4) -0.2289(2) 0.0359(5)
C4B C -0.2734(4) -0.3027(2) -0.0056(5)
H3B H -0.2046 -0.3141 -0.0581
C5B C -0.3539(4) -0.3594(2) 0.0302(4)
H4B H -0.3371 -0.4091 0.0026
C6B C -0.2040(4) -0.1708(2) 0.0039(5)
H5B H -0.1391 -0.1852 -0.0519
C7B C -0.2046(5) -0.0989(2) 0.0461(5)
H6B H -0.2728 -0.0811 0.0937
C8B C -0.0868(5) -0.0240(3) 0.2775(5)
H7B H -0.0843 0.0232 0.3281
H8B H -0.1713 -0.0428 0.2711
H9B H -0.0339 -0.0608 0.3252
C9B C -0.0416(4) -0.0112(2) 0.1345(4)
C10B C -0.1015(4) -0.0464(2) 0.0202(4)
C11B C -0.0611(4) -0.0345(2) -0.1149(4)
C12B C -0.1317(5) -0.0676(2) -0.2384(5)
H10B H -0.2157 -0.0794 -0.2139
H11B H -0.1341 -0.0313 -0.3133
H12B H -0.0908 -0.1133 -0.2674
Zn1B Zn -0.56874(5) -0.43271(3) 0.14915(4)
N2B N -0.9512(3) -0.2597(2) -0.3149(3)
O1B O -0.6820(3) -0.43748(15) -0.0148(3)
O2B O -0.5358(3) -0.47360(17) -0.1561(3)
O3B O -0.6123(3) -0.44414(17) -0.6592(3)
O4B O -0.7184(3) -0.34417(17) -0.7309(3)
O5B O -0.9727(4) -0.21227(19) -0.4040(3)
O6B O -1.0071(3) -0.2648(2) -0.2086(3)
C13B C -0.7023(4) -0.4026(2) -0.2495(3)
C14B C -0.7978(4) -0.3523(2) -0.2255(3)
H13B H -0.8248 -0.3443 -0.1359
C15B C -0.8518(4) -0.3145(2) -0.3371(4)
C16B C -0.8155(4) -0.3250(2) -0.4705(4)
H14B H -0.8529 -0.2976 -0.5439
C17B C -0.7229(4) -0.3768(2) -0.4937(3)
C18B C -0.6665(4) -0.4154(2) -0.3845(4)
H15B H -0.6036 -0.4506 -0.4008
C19B C -0.6352(4) -0.4419(2) -0.1320(4)
C20B C -0.6842(5) -0.3884(3) -0.6390(4)
Zn1_2 Zn -0.43126(5) -0.56729(3) -0.14915(4)
Zn1_3 Zn 0.56874(5) 0.43271(3) 0.85085(4)
Zn1B_2 Zn -0.56874(5) -0.43271(3) -0.85085(4)
Zn1B_3 Zn 0.43126(5) 0.56729(3) 0.14915(4)
O2_2 O -0.4642(3) -0.52640(17) 0.1561(3)
O2B_2 O 0.4642(3) 0.52640(17) -0.1561(3)
O3_2 O 0.6123(3) 0.44414(17) -0.3408(3)
O3B_2 O -0.6123(3) -0.44414(17) 0.3408(3)
O4_2 O 0.7184(3) 0.34417(17) -0.2691(3)
O4B_2 O -0.7184(3) -0.34417(17) 0.2691(3)
loop_
_geom_bond_atom_site_label_1
_geom_bond_atom_site_label_2
_geom_bond_site_symmetry_1
_geom_bond_site_symmetry_2
Zn1 N1 1_555 1_555
N1 C1 1_555 1_555
N2 O5 1_555 1_555
O1 Zn1 1_555 1_555
O2 C19 1_555 1_555
O3 C20 1_555 1_555
O4 C20 1_555 1_555
O6 N2 1_555 1_555
C1 H1 1_555 1_555
C2 C1 1_555 1_555
H2 C2 1_555 1_555
C3 C2 1_555 1_555
C4 C3 1_555 1_555
H3 C4 1_555 1_555
C5 N1 1_555 1_555
H4 C5 1_555 1_555
C6 C3 1_555 1_555
H5 C6 1_555 1_555
C7 C6 1_555 1_555
H6 C7 1_555 1_555
C8 H7 1_555 1_555
H8 C8 1_555 1_555
H9 C8 1_555 1_555
C9 C8 1_555 1_555
C10 C7 1_555 1_555
C11 C10 1_555 1_555
C12 C11 1_555 1_555
H10 C12 1_555 1_555
H11 C12 1_555 1_555
H12 C12 1_555 1_555
C13 C14 1_555 1_555
C14 H13 1_555 1_555
C15 N2 1_555 1_555
C16 C15 1_555 1_555
H14 C16 1_555 1_555
C17 C16 1_555 1_555
C18 C13 1_555 1_555
H15 C18 1_555 1_555
C19 O1 1_555 1_555
C20 C17 1_555 1_555
N1B C1B 1_555 1_555
C1B H1B 1_555 1_555
C2B C1B 1_555 1_555
H2B C2B 1_555 1_555
C3B C2B 1_555 1_555
C4B C3B 1_555 1_555
H3B C4B 1_555 1_555
C5B N1B 1_555 1_555
H4B C5B 1_555 1_555
C6B C3B 1_555 1_555
H5B C6B 1_555 1_555
C7B C6B 1_555 1_555
H6B C7B 1_555 1_555
C8B H7B 1_555 1_555
H8B C8B 1_555 1_555
H9B C8B 1_555 1_555
C9B C11 1_555 1_555
C10B C7B 1_555 1_555
C11B C9 1_555 1_555
C12B C11B 1_555 1_555
H10B C12B 1_555 1_555
H11B C12B 1_555 1_555
H12B C12B 1_555 1_555
Zn1B N1B 1_555 1_555
N2B O5B 1_555 1_555
O1B Zn1B 1_555 1_555
O2B C19B 1_555 1_555
O3B C20B 1_555 1_555
O4B C20B 1_555 1_555
O6B N2B 1_555 1_555
C13B C14B 1_555 1_555
C14B H13B 1_555 1_555
C15B N2B 1_555 1_555
C16B C15B 1_555 1_555
H14B C16B 1_555 1_555
C17B C16B 1_555 1_555
C18B C13B 1_555 1_555
H15B C18B 1_555 1_555
C19B O1B 1_555 1_555
C20B C17B 1_555 1_555
Zn1_2 O2B 1_555 1_555
Zn1_3 O3 1_555 1_555
Zn1B_2 O3B 1_555 1_555
Zn1B_3 O2 1_555 1_555
O2_2 Zn1B 1_555 1_555
O2B_2 Zn1 1_555 1_555
O3_2 Zn1 1_555 1_555
O3B_2 Zn1B 1_555 1_555
O4_2 Zn1 1_555 1_555
O4B_2 Zn1B 1_555 1_555
O4 Zn1_3 1_555 1_555
C4 C5 1_555 1_555
C9 C10 1_555 1_555
C13 C19 1_555 1_555
C14 C15 1_555 1_555
C17 C18 1_555 1_555
C4B C5B 1_555 1_555
C8B C9B 1_555 1_555
C9B C10B 1_555 1_555
C10B C11B 1_555 1_555
O4B Zn1B_2 1_555 1_555
C13B C19B 1_555 1_555
C14B C15B 1_555 1_555
C17B C18B 1_555 1_555

#END
