
#######################################################################
#
#                 Cambridge Crystallographic Data Centre
#                                CCDC 
#
#######################################################################
#
# If this CIF has been generated from an entry in the Cambridge 
# Structural Database, then it will include bibliographic, chemical, 
# crystal, experimental, refinement or atomic coordinate data resulting 
# from the CCDC's data processing and validation procedures.
#
#######################################################################

data_FODGEM
_symmetry_cell_setting           monoclinic
_symmetry_space_group_name_H-M   'P 21/c'
_symmetry_Int_Tables_number      14
_space_group_name_Hall           '-P 2ybc'
loop_
_symmetry_equiv_pos_site_id
_symmetry_equiv_pos_as_xyz
1 x,y,z
2 -x,1/2+y,1/2-z
3 -x,-y,-z
4 x,1/2-y,1/2+z
_cell_length_a                   18.621(4)
_cell_length_b                   9.7191(19)
_cell_length_c                   17.267(4)
_cell_angle_alpha                90
_cell_angle_beta                 98.76(3)
_cell_angle_gamma                90
_cell_volume                     3088.52
loop_
_atom_site_label
_atom_site_type_symbol
_atom_site_fract_x
_atom_site_fract_y
_atom_site_fract_z
Zn1 Zn 0.51601(4) 0.41713(9) 0.15570(4)
Zn2 Zn 0.65928(5) 0.61251(10) 0.17833(4)
N1 N 0.4149(3) 0.4906(6) 0.1504(3)
N2 N -0.2572(3) 1.4765(7) 0.1746(3)
O1 O 0.5538(3) 0.4263(5) 0.2711(2)
O2 O 0.6398(3) 0.5893(6) 0.2868(2)
O3 O 0.7251(3) 0.7806(6) 0.5469(3)
O4 O 0.6787(3) 0.6988(5) 0.6494(2)
O5 O 0.5473(2) 0.2673(5) 0.6284(2)
O6 O 0.4913(2) 0.1916(6) 0.5139(2)
O7 O 0.5775(2) 0.5434(6) 0.1121(2)
H1 H 0.5669 0.5891 0.0699
C1 C 0.3642(4) 0.4867(10) 0.0868(4)
H2 H 0.3734 0.4340 0.0438
C2 C 0.3002(4) 0.5548(11) 0.0813(4)
H3 H 0.2661 0.5472 0.0354
C3 C 0.2846(5) 0.6344(11) 0.1416(5)
C4 C 0.3388(5) 0.6464(11) 0.2074(5)
H4 H 0.3322 0.7057 0.2487
C5 C 0.4021(4) 0.5699(9) 0.2110(4)
H5 H 0.4368 0.5734 0.2566
C6 C 0.2186(5) 0.7197(13) 0.1425(5)
H6 H 0.2174 0.7710 0.1884
C7 C 0.1634(4) 0.7329(10) 0.0896(5)
H7 H 0.1617 0.6803 0.0436
C8 C 0.1012(4) 0.8268(9) 0.0962(4)
C9 C 0.1085(4) 0.9701(10) 0.0891(4)
C10 C 0.0517(5) 1.0577(10) 0.0981(5)
C11 C -0.0128(4) 1.0015(9) 0.1150(5)
C12 C -0.0210(4) 0.8609(10) 0.1233(5)
C13 C 0.0354(4) 0.7691(10) 0.1121(5)
C14 C -0.0775(5) 1.0902(10) 0.1225(5)
H8 H -0.1224 1.0608 0.0951
C15 C -0.0781(5) 1.2040(11) 0.1631(5)
H9 H -0.0339 1.2320 0.1925
C16 C -0.1425(4) 1.2929(10) 0.1668(5)
C17 C -0.2125(5) 1.2650(9) 0.1297(5)
H10 H -0.2225 1.1837 0.1006
C18 C -0.2673(4) 1.3588(9) 0.1362(4)
H11 H -0.3146 1.3373 0.1117
C19 C -0.1892(4) 1.5021(9) 0.2104(5)
H12 H -0.1805 1.5847 0.2386
C20 C -0.1325(4) 1.4160(9) 0.2081(5)
H13 H -0.0861 1.4394 0.2344
C21 C 0.1810(5) 1.0317(12) 0.0703(5)
H14 H 0.1726 1.0755 0.0192
H15 H 0.2165 0.9588 0.0702
H16 H 0.1990 1.0994 0.1098
C22 C 0.0606(5) 1.2129(10) 0.0865(5)
H17 H 0.0135 1.2536 0.0684
H18 H 0.0925 1.2285 0.0479
H19 H 0.0814 1.2546 0.1359
C23 C -0.0906(5) 0.8004(11) 0.1454(7)
H20 H -0.1203 0.8738 0.1617
H21 H -0.0785 0.7356 0.1881
H22 H -0.1173 0.7533 0.1005
C24 C 0.0271(5) 0.6175(11) 0.1158(6)
H23 H 0.0704 0.5734 0.1026
H24 H -0.0148 0.5890 0.0789
H25 H 0.0204 0.5910 0.1684
C25 C 0.6026(3) 0.4919(7) 0.3998(3)
C26 C 0.6458(3) 0.5895(6) 0.4470(3)
H26 H 0.6717 0.6575 0.4241
C27 C 0.6490(3) 0.5825(6) 0.5287(3)
C28 C 0.6135(3) 0.4810(7) 0.5613(3)
H27 H 0.6169 0.4768 0.6161
C29 C 0.5721(3) 0.3825(7) 0.5154(3)
C30 C 0.5664(3) 0.3911(6) 0.4338(3)
H28 H 0.5375 0.3273 0.4021
C31 C 0.5984(3) 0.5053(7) 0.3118(3)
C32 C 0.6898(4) 0.6969(7) 0.5768(3)
C33 C 0.5333(3) 0.2732(7) 0.5530(3)
Zn1C Zn 0.51601(4) 0.08287(9) 0.65570(4)
Zn2_2 Zn -0.34072(5) 1.61251(10) 0.17833(4)
Zn2C Zn 0.65928(5) 0.88749(10) 0.67833(4)
N2_2 N 0.7428(3) 0.4765(7) 0.1746(3)
O4C O 0.6787(3) 0.8012(5) 0.1494(2)
O5C O 0.5473(2) 0.2327(5) 0.1284(2)
loop_
_geom_bond_atom_site_label_1
_geom_bond_atom_site_label_2
_geom_bond_site_symmetry_1
_geom_bond_site_symmetry_2
Zn1 N1 1_555 1_555
Zn2 O2 1_555 1_555
N1 C1 1_555 1_555
N2 C18 1_555 1_555
O1 Zn1 1_555 1_555
O2 C31 1_555 1_555
O3 C32 1_555 1_555
O4 C32 1_555 1_555
O5 C33 1_555 1_555
O6 C33 1_555 1_555
O7 Zn1 1_555 1_555
H1 O7 1_555 1_555
C1 H2 1_555 1_555
C2 C1 1_555 1_555
H3 C2 1_555 1_555
C3 C2 1_555 1_555
C4 C3 1_555 1_555
H4 C4 1_555 1_555
C5 N1 1_555 1_555
H5 C5 1_555 1_555
C6 C3 1_555 1_555
H6 C6 1_555 1_555
C7 C6 1_555 1_555
H7 C7 1_555 1_555
C8 C7 1_555 1_555
C9 C8 1_555 1_555
C10 C9 1_555 1_555
C11 C10 1_555 1_555
C12 C11 1_555 1_555
C13 C8 1_555 1_555
C14 C11 1_555 1_555
H8 C14 1_555 1_555
C15 C14 1_555 1_555
H9 C15 1_555 1_555
C16 C15 1_555 1_555
C17 C16 1_555 1_555
H10 C17 1_555 1_555
C18 C17 1_555 1_555
H11 C18 1_555 1_555
C19 N2 1_555 1_555
H12 C19 1_555 1_555
C20 C16 1_555 1_555
H13 C20 1_555 1_555
C21 C9 1_555 1_555
H14 C21 1_555 1_555
H15 C21 1_555 1_555
H16 C21 1_555 1_555
C22 C10 1_555 1_555
H17 C22 1_555 1_555
H18 C22 1_555 1_555
H19 C22 1_555 1_555
C23 C12 1_555 1_555
H20 C23 1_555 1_555
H21 C23 1_555 1_555
H22 C23 1_555 1_555
C24 C13 1_555 1_555
H23 C24 1_555 1_555
H24 C24 1_555 1_555
H25 C24 1_555 1_555
C25 C26 1_555 1_555
C26 H26 1_555 1_555
C27 C26 1_555 1_555
C28 C27 1_555 1_555
H27 C28 1_555 1_555
C29 C28 1_555 1_555
C30 C25 1_555 1_555
H28 C30 1_555 1_555
C31 O1 1_555 1_555
C32 C27 1_555 1_555
C33 C29 1_555 1_555
Zn1C O5 1_555 1_555
Zn2_2 N2 1_555 1_555
Zn2C O4 1_555 1_555
N2_2 Zn2 1_555 1_555
O4C Zn2 1_555 1_555
O5C Zn1 1_555 1_555
Zn2 O7 1_555 1_555
C4 C5 1_555 1_555
C12 C13 1_555 1_555
C19 C20 1_555 1_555
C25 C31 1_555 1_555
C29 C30 1_555 1_555

#END
