
#######################################################################
#
#                 Cambridge Crystallographic Data Centre
#                                CCDC 
#
#######################################################################
#
# If this CIF has been generated from an entry in the Cambridge 
# Structural Database, then it will include bibliographic, chemical, 
# crystal, experimental, refinement or atomic coordinate data resulting 
# from the CCDC's data processing and validation procedures.
#
#######################################################################

data_FODGUC
_symmetry_cell_setting           monoclinic
_symmetry_space_group_name_H-M   'P 21/c'
_symmetry_Int_Tables_number      14
_space_group_name_Hall           '-P 2ybc'
loop_
_symmetry_equiv_pos_site_id
_symmetry_equiv_pos_as_xyz
1 x,y,z
2 -x,1/2+y,1/2-z
3 -x,-y,-z
4 x,1/2-y,1/2+z
_cell_length_a                   12.3259(12)
_cell_length_b                   10.4811(10)
_cell_length_c                   13.9951(14)
_cell_angle_alpha                90
_cell_angle_beta                 93.3790(10)
_cell_angle_gamma                90
_cell_volume                     1804.87
loop_
_atom_site_label
_atom_site_type_symbol
_atom_site_fract_x
_atom_site_fract_y
_atom_site_fract_z
C1 C 0.1407(3) 0.9867(3) -0.1181(3)
C2 C 0.2429(3) 0.9828(3) -0.1719(3)
C3 C 0.3281(3) 1.0614(4) -0.1381(3)
H1 H 0.3197 1.1117 -0.0843
C4 C 0.4241(3) 1.0656(5) -0.1828(3)
H2 H 0.4798 1.1191 -0.1595
C5 C 0.4383(3) 0.9904(5) -0.2625(3)
H3 H 0.5035 0.9927 -0.2927
C6 C 0.3552(3) 0.9123(4) -0.2967(3)
H4 H 0.3653 0.8614 -0.3499
C7 C 0.2562(3) 0.9072(4) -0.2536(3)
C8 C 0.1682(3) 0.8179(3) -0.2924(3)
O1 O 0.0713(2) 1.0677(3) -0.14842(19)
O2 O 0.1361(2) 0.9174(3) -0.04687(19)
O3 O 0.1850(2) 0.7622(3) -0.37091(18)
O4 O 0.0845(2) 0.8032(3) -0.24813(19)
C9 C -0.1964(4) 0.8126(4) -0.2185(3)
H5 H -0.1900 0.7344 -0.2490
C10 C -0.2889(4) 0.8624(4) -0.1855(4)
H6 H -0.3578 0.8259 -0.1885
C11 C -0.2581(3) 0.9790(4) -0.1464(4)
H7 H -0.3048 1.0356 -0.1182
C12 C 0.0481(4) 1.4022(4) 0.1016(3)
H8 H 0.0384 1.4464 0.1581
C13 C 0.1298(4) 1.4195(5) 0.0422(3)
H9 H 0.1869 1.4774 0.0491
C14 C 0.1096(4) 1.3323(4) -0.0311(3)
H10 H 0.1529 1.3221 -0.0828
Cu1 Cu -0.06267(4) 1.13735(4) -0.09660(3)
N1 N -0.1526(3) 0.9992(3) -0.1546(2)
N2 N -0.1167(3) 0.8958(3) -0.1993(2)
H11 H -0.0505 0.8848 -0.2138
N3 N 0.0206(3) 1.2652(3) -0.0181(2)
N4 N -0.0162(3) 1.3099(3) 0.0640(2)
H12 H -0.0738 1.2826 0.0892
O2B O -0.1361(2) 1.0826(3) 0.04687(19)
O3A O -0.1850(2) 1.2622(3) -0.12909(18)
O4A O -0.0845(2) 1.3032(3) -0.25187(19)
Cu1A Cu 0.06267(4) 0.63735(4) -0.40340(3)
Cu1B Cu 0.06267(4) 0.86265(4) 0.09660(3)
C15 C -0.3726(7) 1.2716(7) 0.0537(4)
H13 H -0.3308 1.2510 -0.0008
H14 H -0.3742 1.1961 0.0937
Cl1 Cl -0.50081(17) 1.3072(2) 0.01399(15)
Cl2 Cl -0.30536(14) 1.3952(2) 0.11981(15)
loop_
_geom_bond_atom_site_label_1
_geom_bond_atom_site_label_2
_geom_bond_site_symmetry_1
_geom_bond_site_symmetry_2
C1 C2 1_555 1_555
C2 C3 1_555 1_555
C3 H1 1_555 1_555
C4 C3 1_555 1_555
H2 C4 1_555 1_555
C5 C4 1_555 1_555
H3 C5 1_555 1_555
C6 C5 1_555 1_555
H4 C6 1_555 1_555
C7 C2 1_555 1_555
C8 C7 1_555 1_555
O1 C1 1_555 1_555
O2 C1 1_555 1_555
O3 C8 1_555 1_555
O4 C8 1_555 1_555
C9 H5 1_555 1_555
C10 C9 1_555 1_555
H6 C10 1_555 1_555
C11 C10 1_555 1_555
H7 C11 1_555 1_555
C12 H8 1_555 1_555
C13 C12 1_555 1_555
H9 C13 1_555 1_555
C14 C13 1_555 1_555
H10 C14 1_555 1_555
Cu1 O1 1_555 1_555
N1 C11 1_555 1_555
N2 C9 1_555 1_555
H11 N2 1_555 1_555
N3 C14 1_555 1_555
N4 C12 1_555 1_555
H12 N4 1_555 1_555
C15 H13 1_555 1_555
H14 C15 1_555 1_555
Cl1 C15 1_555 1_555
Cl2 C15 1_555 1_555
O2B Cu1 1_555 1_555
O3A Cu1 1_555 1_555
O4A Cu1 1_555 1_555
Cu1A O3 1_555 1_555
Cu1B O2 1_555 1_555
C6 C7 1_555 1_555
O4 Cu1A 1_555 1_555
Cu1 N1 1_555 1_555
Cu1 N3 1_555 1_555
N1 N2 1_555 1_555
N3 N4 1_555 1_555

#END
