
#######################################################################
#
#                 Cambridge Crystallographic Data Centre
#                                CCDC 
#
#######################################################################
#
# If this CIF has been generated from an entry in the Cambridge 
# Structural Database, then it will include bibliographic, chemical, 
# crystal, experimental, refinement or atomic coordinate data resulting 
# from the CCDC's data processing and validation procedures.
#
#######################################################################

data_FODGUB
_symmetry_cell_setting           monoclinic
_symmetry_space_group_name_H-M   'P 21/c'
_symmetry_Int_Tables_number      14
_space_group_name_Hall           '-P 2ybc'
loop_
_symmetry_equiv_pos_site_id
_symmetry_equiv_pos_as_xyz
1 x,y,z
2 -x,1/2+y,1/2-z
3 -x,-y,-z
4 x,1/2-y,1/2+z
_cell_length_a                   10.491(2)
_cell_length_b                   10.986(2)
_cell_length_c                   8.061(2)
_cell_angle_alpha                90
_cell_angle_beta                 94.76(3)
_cell_angle_gamma                90
_cell_volume                     925.859
loop_
_atom_site_label
_atom_site_type_symbol
_atom_site_fract_x
_atom_site_fract_y
_atom_site_fract_z
Cd1 Cd 0.89842(4) 0.52741(3) 0.15280(5)
Cd2 Cd 0.88872(4) 0.23685(3) -0.00140(5)
O1 O 0.9320(4) 0.3371(3) 0.2525(5)
O2 O 1.0973(4) 0.5699(4) 0.0898(5)
N1 N 0.7004(4) 0.5490(4) 0.2557(6)
C1 C 0.5915(5) 0.4948(5) 0.1988(7)
H1 H 0.5948 0.4308 0.1181
C2 C 0.4740(5) 0.5277(5) 0.2519(7)
H2 H 0.3973 0.4867 0.2095
C3 C 0.4688(5) 0.6193(5) 0.3655(7)
C4 C 0.5813(5) 0.6764(5) 0.4263(7)
H3 H 0.5801 0.7411 0.5062
C5 C 0.6952(5) 0.6375(5) 0.3683(7)
C6 C 0.8212(5) 0.6926(5) 0.4368(7)
C7 C 0.3433(5) 0.6576(5) 0.4272(7)
O3 O 0.9222(4) 0.6432(4) 0.3934(5)
O4 O 0.2460(4) 0.5926(4) 0.3889(5)
O5 O 0.3398(4) 0.7522(4) 0.5125(6)
O6 O 0.8170(5) 0.7792(5) 0.5332(7)
H4 H 1.0182 0.3189 0.2646
H5 H 1.1545 0.5676 0.1672
Cd1B Cd 1.10158(4) 0.47259(3) -0.15280(5)
Cd1C Cd 0.89842(4) 0.97259(3) 0.65280(5)
Cd2C Cd 0.88872(4) 0.26315(3) 0.49860(5)
Cd2B Cd 1.11128(4) 0.76315(3) 0.00140(5)
Cd2A Cd 1.11128(4) 0.73685(3) 0.50140(5)
Cd2A_2 Cd 0.11128(4) 0.73685(3) 0.50140(5)
O1C O 0.9320(4) 0.1629(3) -0.2475(5)
O2B O 0.9027(4) 0.4301(4) -0.0898(5)
O3A O 1.0778(4) 0.1432(4) 0.1066(5)
O4A O 0.7540(4) 0.0926(4) 0.1111(5)
O5A O 0.6602(4) 0.2522(4) -0.0125(6)
O6C O 0.8170(5) 0.7208(5) 0.0332(7)
H4C H 1.0182 0.1811 -0.2354
H5B H 0.8455 0.4324 -0.1672
loop_
_geom_bond_atom_site_label_1
_geom_bond_atom_site_label_2
_geom_bond_site_symmetry_1
_geom_bond_site_symmetry_2
Cd1 O1 1_555 1_555
Cd2 O1 1_555 1_555
O1 H4 1_555 1_555
O2 Cd1 1_555 1_555
N1 Cd1 1_555 1_555
C1 N1 1_555 1_555
H1 C1 1_555 1_555
C2 C1 1_555 1_555
H2 C2 1_555 1_555
C3 C2 1_555 1_555
C4 C3 1_555 1_555
H3 C4 1_555 1_555
C5 N1 1_555 1_555
C6 C5 1_555 1_555
C7 C3 1_555 1_555
O3 Cd1 1_555 1_555
O4 C7 1_555 1_555
O5 C7 1_555 1_555
O6 C6 1_555 1_555
H5 O2 1_555 1_555
Cd1B O2 1_555 1_555
Cd1C O6 1_555 1_555
Cd2C O1 1_555 1_555
Cd2B O2 1_555 1_555
Cd2A O3 1_555 1_555
Cd2A_2 O4 1_555 1_555
O1C Cd2 1_555 1_555
O2B Cd1 1_555 1_555
O3A Cd2 1_555 1_555
O4A Cd2 1_555 1_555
O5A Cd2 1_555 1_555
O6C Cd1 1_555 1_555
H4C O1C 1_555 1_555
H5B O2B 1_555 1_555
Cd2 O2B 1_555 1_555
C4 C5 1_555 1_555
C6 O3 1_555 1_555
O5 Cd2A_2 1_555 1_555
Cd1B O2B 1_555 1_555

#END
