
#######################################################################
#
#                 Cambridge Crystallographic Data Centre
#                                CCDC 
#
#######################################################################
#
# If this CIF has been generated from an entry in the Cambridge 
# Structural Database, then it will include bibliographic, chemical, 
# crystal, experimental, refinement or atomic coordinate data resulting 
# from the CCDC's data processing and validation procedures.
#
#######################################################################

data_FODHOW
_symmetry_cell_setting           monoclinic
_symmetry_space_group_name_H-M   'P 21/m'
_symmetry_Int_Tables_number      11
_space_group_name_Hall           '-P 2yb'
loop_
_symmetry_equiv_pos_site_id
_symmetry_equiv_pos_as_xyz
1 x,y,z
2 -x,1/2+y,-z
3 -x,-y,-z
4 x,1/2-y,z
_cell_length_a                   5.340(1)
_cell_length_b                   21.213(4)
_cell_length_c                   11.630(2)
_cell_angle_alpha                90
_cell_angle_beta                 96.70(3)
_cell_angle_gamma                90
_cell_volume                     1308.42
loop_
_atom_site_label
_atom_site_type_symbol
_atom_site_fract_x
_atom_site_fract_y
_atom_site_fract_z
Cu1 Cu 0.0000 0.5000 0.5000
Cu2 Cu -0.6103(2) 0.49506(5) 0.87783(9)
Cu3 Cu -0.5121(2) 0.43207(5) 0.54059(9)
O1 O -0.116(1) 0.4165(2) 0.4530(5)
O3 O 0.248(1) 0.3648(3) 0.5049(5)
O4 O -0.310(1) 0.3811(3) 0.6575(5)
O5 O -0.533(1) 0.4421(3) 0.7576(5)
O6 O -0.095(1) 0.4729(3) 1.2072(5)
O7 O 0.279(1) 0.4315(3) 1.2301(5)
O8 O -0.338(1) 0.4616(3) 0.9845(5)
O9 O 0.306(1) 0.4901(3) 0.4319(4)
C1 C 0.022(2) 0.3671(4) 0.4612(7)
C2 C 0.014(2) 0.2500 0.457(1)
C3 C -0.103(2) 0.3068(4) 0.4208(7)
C4 C -0.327(2) 0.3065(4) 0.3450(8)
C5 C -0.431(2) 0.2500 0.308(1)
C6 C -0.348(2) 0.4051(4) 0.7547(8)
C7 C -0.163(2) 0.3894(4) 0.8581(7)
C8 C -0.162(2) 0.4186(4) 0.9652(8)
C9 C 0.036(2) 0.4052(4) 1.0553(8)
C10 C 0.220(2) 0.3620(4) 1.0333(8)
C11 C 0.218(2) 0.3325(4) 0.9274(8)
C12 C 0.023(2) 0.3457(4) 0.8406(7)
C13 C 0.071(2) 0.4381(4) 1.1687(8)
H2 H 0.29(2) 0.474(4) 0.365(3)
H3 H 0.1671 0.2500 0.5036
H4 H -0.4037 0.3442 0.3200
H5 H -0.5779 0.2500 0.2564
H6 H 0.3486 0.3526 1.0918
H7 H 0.3447 0.3043 0.9143
H8 H 0.0173 0.3250 0.7699
Cu1C Cu 0.0000 0.0000 0.5000
Cu2C Cu -0.6103(2) 0.00494(5) 0.87783(9)
Cu2B Cu -0.3897(2) 0.50494(5) 1.12217(9)
Cu2A Cu -0.3897(2) -0.00494(5) 1.12217(9)
Cu3C Cu -0.5121(2) 0.06793(5) 0.54059(9)
Cu3_2 Cu 0.4879(2) 0.43207(5) 0.54059(9)
Cu3B Cu 0.5121(2) 0.56793(5) 0.45941(9)
Cu3C_2 Cu 0.4879(2) 0.06793(5) 0.54059(9)
Cu3B_2 Cu -0.4879(2) 0.56793(5) 0.45941(9)
O1C O -0.116(1) 0.0835(2) 0.4530(5)
O1B O 0.116(1) 0.5835(2) 0.5470(5)
O3C O 0.248(1) 0.1352(3) 0.5049(5)
O3_2 O -0.752(1) 0.3648(3) 0.5049(5)
O3C_2 O -0.752(1) 0.1352(3) 0.5049(5)
O4C O -0.310(1) 0.1189(3) 0.6575(5)
O5C O -0.533(1) 0.0579(3) 0.7576(5)
O6C O -0.095(1) 0.0271(3) 1.2072(5)
O6B O -0.905(1) 0.5271(3) 0.7928(5)
O6A O -0.905(1) -0.0271(3) 0.7928(5)
O7C O 0.279(1) 0.0685(3) 1.2301(5)
O8C O -0.338(1) 0.0384(3) 0.9845(5)
O8B O -0.662(1) 0.5384(3) 1.0155(5)
O8A O -0.662(1) -0.0384(3) 1.0155(5)
O9B O -0.306(1) 0.5099(3) 0.5681(4)
O9_2 O -0.694(1) 0.4901(3) 0.4319(4)
O9C O -0.694(1) 0.0099(3) 0.4319(4)
O9A O -0.306(1) -0.0099(3) 0.5681(4)
C1C C 0.022(2) 0.1329(4) 0.4612(7)
C3C C -0.103(2) 0.1932(4) 0.4208(7)
C4C C -0.327(2) 0.1935(4) 0.3450(8)
C6C C -0.348(2) 0.0949(4) 0.7547(8)
C7C C -0.163(2) 0.1106(4) 0.8581(7)
C8C C -0.162(2) 0.0814(4) 0.9652(8)
C9C C 0.036(2) 0.0948(4) 1.0553(8)
C10C C 0.220(2) 0.1380(4) 1.0333(8)
C11C C 0.218(2) 0.1675(4) 0.9274(8)
C12C C 0.023(2) 0.1543(4) 0.8406(7)
C13C C 0.071(2) 0.0619(4) 1.1687(8)
H2B H -0.29(2) 0.526(4) 0.635(3)
H2_2 H -0.71(2) 0.474(4) 0.365(3)
H2C H -0.71(2) 0.026(4) 0.365(3)
H2A H -0.29(2) -0.026(4) 0.635(3)
H4C H -0.4037 0.1558 0.3200
H6C H 0.3486 0.1474 1.0918
H7C H 0.3447 0.1957 0.9143
H8C H 0.0173 0.1750 0.7699
O2 O 0.480(4) 0.2500 0.701(2)
H1 H 0.52(3) 0.287(3) 0.68(1)
H1C H 0.52(3) 0.213(3) 0.68(1)
loop_
_geom_bond_atom_site_label_1
_geom_bond_atom_site_label_2
_geom_bond_site_symmetry_1
_geom_bond_site_symmetry_2
Cu1 O1 1_555 1_555
Cu2 O5 1_555 1_555
Cu3 O1 1_555 1_555
O1 C1 1_555 1_555
O2 H1 1_555 1_555
O3 C1 1_555 1_555
O4 Cu3 1_555 1_555
O5 Cu3 1_555 1_555
O6 C13 1_555 1_555
O7 C13 1_555 1_555
O8 Cu2 1_555 1_555
O9 Cu1 1_555 1_555
C1 C3 1_555 1_555
C2 C3 1_555 1_555
C3 C4 1_555 1_555
C4 C5 1_555 1_555
C5 H5 1_555 1_555
C6 O4 1_555 1_555
C7 C6 1_555 1_555
C8 O8 1_555 1_555
C9 C8 1_555 1_555
C10 C9 1_555 1_555
C11 C10 1_555 1_555
C12 C7 1_555 1_555
C13 C9 1_555 1_555
H2 O9 1_555 1_555
H3 C2 1_555 1_555
H4 C4 1_555 1_555
H6 C10 1_555 1_555
H7 C11 1_555 1_555
H8 C12 1_555 1_555
Cu1C O1C 1_555 1_555
Cu2C O5C 1_555 1_555
Cu2B O6 1_555 1_555
Cu2A O6C 1_555 1_555
Cu3C O1C 1_555 1_555
Cu3_2 O3 1_555 1_555
Cu3B O9 1_555 1_555
Cu3C_2 O3C 1_555 1_555
Cu3B_2 O9B 1_555 1_555
O1C C1C 1_555 1_555
O1B Cu1 1_555 1_555
O3C C1C 1_555 1_555
O3_2 Cu3 1_555 1_555
O3C_2 Cu3C 1_555 1_555
O4C Cu3C 1_555 1_555
O5C Cu3C 1_555 1_555
O6C C13C 1_555 1_555
O6B Cu2 1_555 1_555
O6A Cu2C 1_555 1_555
O7C C13C 1_555 1_555
O8C Cu2C 1_555 1_555
O8B Cu2 1_555 1_555
O8A Cu2C 1_555 1_555
O9B Cu1 1_555 1_555
O9_2 Cu3 1_555 1_555
O9C Cu3C 1_555 1_555
O9A Cu1C 1_555 1_555
C1C C3C 1_555 1_555
C3C C2 1_555 1_555
C4C C5 1_555 1_555
C6C O4C 1_555 1_555
C7C C6C 1_555 1_555
C8C O8C 1_555 1_555
C9C C8C 1_555 1_555
C10C C9C 1_555 1_555
C11C C10C 1_555 1_555
C12C C7C 1_555 1_555
C13C C9C 1_555 1_555
H1C O2 1_555 1_555
H2B O9B 1_555 1_555
H2_2 O9_2 1_555 1_555
H2C O9C 1_555 1_555
H2A O9A 1_555 1_555
H4C C4C 1_555 1_555
H6C C10C 1_555 1_555
H7C C11C 1_555 1_555
H8C C12C 1_555 1_555
Cu3 O9B 1_555 1_555
O5 C6 1_555 1_555
O8 Cu2B 1_555 1_555
O9 Cu3_2 1_555 1_555
C7 C8 1_555 1_555
C11 C12 1_555 1_555
Cu2B O8B 1_555 1_555
Cu2A O8C 1_555 1_555
Cu2A O8A 1_555 1_555
Cu3C O9A 1_555 1_555
Cu3B O1B 1_555 1_555
Cu3B_2 O9_2 1_555 1_555
O5C C6C 1_555 1_555
C3C C4C 1_555 1_555
C7C C8C 1_555 1_555
C11C C12C 1_555 1_555

#END
