
#######################################################################
#
#                 Cambridge Crystallographic Data Centre
#                                CCDC 
#
#######################################################################
#
# If this CIF has been generated from an entry in the Cambridge 
# Structural Database, then it will include bibliographic, chemical, 
# crystal, experimental, refinement or atomic coordinate data resulting 
# from the CCDC's data processing and validation procedures.
#
#######################################################################

data_FODHIQ
_symmetry_cell_setting           monoclinic
_symmetry_space_group_name_H-M   'P 21/c'
_symmetry_Int_Tables_number      14
_space_group_name_Hall           '-P 2ybc'
loop_
_symmetry_equiv_pos_site_id
_symmetry_equiv_pos_as_xyz
1 x,y,z
2 -x,1/2+y,1/2-z
3 -x,-y,-z
4 x,1/2-y,1/2+z
_cell_length_a                   5.029(1)
_cell_length_b                   10.403(2)
_cell_length_c                   15.596(3)
_cell_angle_alpha                90
_cell_angle_beta                 91.97(3)
_cell_angle_gamma                90
_cell_volume                     815.449
loop_
_atom_site_label
_atom_site_type_symbol
_atom_site_fract_x
_atom_site_fract_y
_atom_site_fract_z
Cu1 Cu 0.5000 0.5000 0.5000
Cu2 Cu 0.40435(7) 0.86739(3) 0.48493(2)
O1 O 0.8000(4) 0.5711(2) 0.5842(2)
O2 O 0.5091(4) 0.7107(2) 0.5386(1)
O3 O 0.6854(4) 0.9597(2) 0.5459(1)
O4 O 0.8971(4) 1.2041(2) 0.5713(1)
O5 O 1.2968(4) 1.1995(2) 0.6319(2)
O6 O 0.2930(5) 0.4546(2) 0.5992(2)
C1 C 0.8864(6) 0.7873(3) 0.6257(2)
C2 C 0.8680(6) 0.9190(3) 0.6039(2)
C3 C 1.0538(6) 1.0061(3) 0.6412(2)
C4 C 1.2368(6) 0.9616(3) 0.7034(2)
C5 C 1.2445(7) 0.8343(3) 0.7287(2)
C6 C 1.0744(6) 0.7488(3) 0.6884(2)
C7 C 0.7276(6) 0.6863(3) 0.5815(2)
C8 C 1.0817(6) 1.1439(3) 0.6131(2)
H1 H 0.290(8) 0.374(1) 0.608(3)
H2 H 0.144(4) 0.492(3) 0.596(3)
H3 H 1.3572 1.0193 0.7287
H4 H 1.3627 0.8071 0.7722
H5 H 1.0846 0.6624 0.7034
Cu2B Cu 0.59565(7) 0.13261(3) 0.51507(2)
Cu2B_2 Cu 0.59565(7) 1.13261(3) 0.51507(2)
Cu2B_3 Cu 1.59565(7) 1.13261(3) 0.51507(2)
Cu2_2 Cu 0.40435(7) -0.13261(3) 0.48493(2)
Cu2_3 Cu -0.59565(7) -0.13261(3) 0.48493(2)
O1B O 0.2000(4) 0.4289(2) 0.4158(2)
O2B O 0.4909(4) 0.2893(2) 0.4614(1)
O3B O 0.3146(4) 0.0403(2) 0.4541(1)
O3B_2 O 0.3146(4) 1.0403(2) 0.4541(1)
O3_2 O 0.6854(4) -0.0403(2) 0.5459(1)
O4B O 0.1029(4) -0.2041(2) 0.4287(1)
O4B_2 O 0.1029(4) 0.7959(2) 0.4287(1)
O4_2 O 0.8971(4) 0.2041(2) 0.5713(1)
O5B O -0.2968(4) -0.1995(2) 0.3681(2)
O5B_2 O 0.7032(4) 0.8005(2) 0.3681(2)
O5_2 O 0.2968(4) 0.1995(2) 0.6319(2)
O6B O 0.7070(5) 0.5454(2) 0.4008(2)
C1B C 0.1136(6) 0.2127(3) 0.3743(2)
C2B C 0.1320(6) 0.0810(3) 0.3961(2)
C3B C -0.0538(6) -0.0061(3) 0.3588(2)
C4B C -0.2368(6) 0.0384(3) 0.2966(2)
C5B C -0.2445(7) 0.1657(3) 0.2713(2)
C6B C -0.0744(6) 0.2512(3) 0.3116(2)
C7B C 0.2724(6) 0.3137(3) 0.4185(2)
C8B C -0.0817(6) -0.1439(3) 0.3869(2)
H1B H 0.710(8) 0.626(1) 0.392(3)
H2B H 0.856(4) 0.508(3) 0.404(3)
H3B H -0.3572 -0.0193 0.2713
H4B H -0.3627 0.1929 0.2278
H5B H -0.0846 0.3376 0.2966
loop_
_geom_bond_atom_site_label_1
_geom_bond_atom_site_label_2
_geom_bond_site_symmetry_1
_geom_bond_site_symmetry_2
Cu1 O1 1_555 1_555
Cu2 O2 1_555 1_555
O1 C7 1_555 1_555
O2 Cu1 1_555 1_555
O3 Cu2 1_555 1_555
O4 C8 1_555 1_555
O5 C8 1_555 1_555
O6 Cu1 1_555 1_555
C1 C2 1_555 1_555
C2 O3 1_555 1_555
C3 C2 1_555 1_555
C4 C3 1_555 1_555
C5 C4 1_555 1_555
C6 C1 1_555 1_555
C7 O2 1_555 1_555
C8 C3 1_555 1_555
H1 O6 1_555 1_555
H2 O6 1_555 1_555
H3 C4 1_555 1_555
H4 C5 1_555 1_555
H5 C6 1_555 1_555
Cu2B O2B 1_555 1_555
Cu2B_2 O3 1_555 1_555
Cu2B_3 O5 1_555 1_555
Cu2_2 O3B 1_555 1_555
Cu2_3 O5B 1_555 1_555
O1B Cu1 1_555 1_555
O2B Cu1 1_555 1_555
O3B Cu2B 1_555 1_555
O3B_2 Cu2 1_555 1_555
O3_2 Cu2B 1_555 1_555
O4B Cu2_2 1_555 1_555
O4B_2 Cu2 1_555 1_555
O4_2 Cu2B 1_555 1_555
O5B C8B 1_555 1_555
O5B_2 Cu2 1_555 1_555
O5_2 Cu2B 1_555 1_555
O6B Cu1 1_555 1_555
C1B C2B 1_555 1_555
C2B O3B 1_555 1_555
C3B C2B 1_555 1_555
C4B C3B 1_555 1_555
C5B C4B 1_555 1_555
C6B C1B 1_555 1_555
C7B O1B 1_555 1_555
C8B O4B 1_555 1_555
H1B O6B 1_555 1_555
H2B O6B 1_555 1_555
H3B C4B 1_555 1_555
H4B C5B 1_555 1_555
H5B C6B 1_555 1_555
O4 Cu2B_2 1_555 1_555
C1 C7 1_555 1_555
C5 C6 1_555 1_555
Cu2B_2 O3B_2 1_555 1_555
Cu2_2 O3_2 1_555 1_555
O2B C7B 1_555 1_555
C1B C7B 1_555 1_555
C3B C8B 1_555 1_555
C5B C6B 1_555 1_555

#END
