
#######################################################################
#
#                 Cambridge Crystallographic Data Centre
#                                CCDC 
#
#######################################################################
#
# If this CIF has been generated from an entry in the Cambridge 
# Structural Database, then it will include bibliographic, chemical, 
# crystal, experimental, refinement or atomic coordinate data resulting 
# from the CCDC's data processing and validation procedures.
#
#######################################################################

data_FODHAJ
_symmetry_cell_setting           monoclinic
_symmetry_space_group_name_H-M   'P 21/n'
_symmetry_Int_Tables_number      14
_space_group_name_Hall           '-P 2yn'
loop_
_symmetry_equiv_pos_site_id
_symmetry_equiv_pos_as_xyz
1 x,y,z
2 1/2-x,1/2+y,1/2-z
3 -x,-y,-z
4 1/2+x,1/2-y,1/2+z
_cell_length_a                   14.1787(13)
_cell_length_b                   23.108(2)
_cell_length_c                   26.195(2)
_cell_angle_alpha                90
_cell_angle_beta                 100.7880(10)
_cell_angle_gamma                90
_cell_volume                     8430.88
loop_
_atom_site_label
_atom_site_type_symbol
_atom_site_fract_x
_atom_site_fract_y
_atom_site_fract_z
C1 C 0.3328(4) 0.7968(3) 0.0427(2)
C2 C 0.2938(3) 0.8555(2) 0.0512(2)
C3 C 0.3253(4) 0.8831(3) 0.0987(2)
H1 H 0.3718 0.8651 0.1234
C4 C 0.2897(5) 0.9358(3) 0.1102(3)
H2 H 0.3116 0.9530 0.1423
C5 C 0.2205(5) 0.9633(3) 0.0733(3)
H3 H 0.1948 0.9987 0.0808
C6 C 0.1907(5) 0.9372(3) 0.0257(3)
H4 H 0.1464 0.9561 0.0006
C7 C 0.2251(4) 0.8833(3) 0.0141(2)
C8 C 0.1872(4) 0.8572(3) -0.0385(2)
C9 C -0.2046(4) 0.6851(3) -0.1352(2)
C10 C -0.2408(4) 0.6361(2) -0.1713(2)
C11 C -0.2598(7) 0.5827(3) -0.1528(4)
H5 H -0.2536 0.5769 -0.1172
C12 C -0.2885(9) 0.5368(4) -0.1874(5)
H6 H -0.2996 0.5006 -0.1742
C13 C -0.3003(8) 0.5441(4) -0.2392(5)
H7 H -0.3204 0.5136 -0.2617
C14 C -0.2824(5) 0.5963(3) -0.2575(3)
H8 H -0.2893 0.6014 -0.2933
C15 C -0.2542(4) 0.6427(2) -0.2254(2)
C16 C -0.2443(4) 0.7005(3) -0.2502(2)
C17 C -0.5912(4) 0.8978(3) -0.3476(2)
C18 C -0.6276(4) 0.9263(2) -0.3995(2)
C19 C -0.5885(5) 0.9794(3) -0.4086(3)
H9 H -0.5438 0.9963 -0.3823
C20 C -0.6141(6) 1.0080(3) -0.4557(3)
H10 H -0.5865 1.0434 -0.4612
C21 C -0.6812(6) 0.9829(3) -0.4940(3)
H11 H -0.6988 1.0013 -0.5260
C22 C -0.7224(5) 0.9310(3) -0.4854(2)
H12 H -0.7688 0.9152 -0.5116
C23 C -0.6968(4) 0.9014(2) -0.4389(2)
C24 C -0.7417(4) 0.8434(3) -0.4315(2)
C25 C 0.7524(5) 0.8469(3) 0.1081(3)
H13 H 0.8156 0.8552 0.1235
C26 C 0.6821(5) 0.8862(3) 0.0930(3)
H14 H 0.6867 0.9262 0.0960
C27 C 0.6024(5) 0.8543(3) 0.0724(3)
H15 H 0.5423 0.8697 0.0588
C28 C 0.5694(6) 0.7215(4) 0.2156(3)
H16 H 0.5637 0.7398 0.2465
C29 C 0.5983(6) 0.6671(5) 0.2104(3)
H17 H 0.6161 0.6399 0.2365
C30 C 0.5961(5) 0.6599(3) 0.1574(3)
H18 H 0.6141 0.6262 0.1423
C31 C 0.3348(5) 0.6095(3) -0.0053(3)
H19 H 0.2725 0.6023 -0.0226
C32 C 0.4056(5) 0.5693(3) 0.0083(3)
H20 H 0.4017 0.5296 0.0025
C33 C 0.4843(5) 0.6007(3) 0.0326(3)
H21 H 0.5442 0.5848 0.0459
C34 C 0.5541(6) 0.7387(4) -0.1014(3)
H22 H 0.5812 0.7259 -0.1290
C35 C 0.4848(5) 0.7774(5) -0.1036(3)
H23 H 0.4532 0.7967 -0.1330
C36 C 0.4691(5) 0.7831(4) -0.0538(3)
H24 H 0.4248 0.8082 -0.0436
C37 C -0.2420(5) 0.8329(3) -0.0278(2)
H25 H -0.3009 0.8267 -0.0180
C38 C -0.1885(5) 0.8813(3) -0.0185(3)
H26 H -0.2028 0.9149 -0.0020
C39 C -0.1076(5) 0.8697(3) -0.0392(2)
H27 H -0.0564 0.8951 -0.0380
C40 C -0.1008(7) 0.8777(4) -0.2243(3)
H28 H -0.1400 0.8861 -0.2560
C41 C -0.0352(7) 0.9115(3) -0.1976(3)
H29 H -0.0188 0.9486 -0.2066
C42 C 0.0040(5) 0.8814(3) -0.1542(3)
H30 H 0.0530 0.8951 -0.1284
C43 C 0.2313(6) 0.7115(5) -0.1382(4)
H31 H 0.2967 0.7147 -0.1380
C44 C 0.1758(6) 0.6659(4) -0.1556(4)
H32 H 0.1937 0.6319 -0.1703
C45 C 0.0862(5) 0.6811(3) -0.1468(3)
H33 H 0.0323 0.6576 -0.1546
C46 C 0.1075(4) 0.6747(3) 0.0296(2)
H34 H 0.1611 0.6672 0.0551
C47 C 0.0247(4) 0.6439(3) 0.0207(2)
H35 H 0.0099 0.6113 0.0385
C48 C -0.0333(4) 0.6715(3) -0.0208(2)
H36 H -0.0947 0.6595 -0.0360
C49 C -0.4193(12) 0.9277(5) -0.1823(4)
H37 H -0.4468 0.9606 -0.1708
C50 C -0.3518(8) 0.8963(5) -0.1562(3)
H38 H -0.3196 0.9033 -0.1224
C51 C -0.3356(5) 0.8501(4) -0.1877(3)
H39 H -0.2927 0.8198 -0.1781
C52 C -0.1701(4) 0.8377(3) -0.3593(2)
H40 H -0.1139 0.8253 -0.3693
C53 C -0.2146(4) 0.8894(3) -0.3710(2)
H41 H -0.1952 0.9195 -0.3902
C54 C -0.2954(4) 0.8877(3) -0.3478(2)
H42 H -0.3398 0.9176 -0.3493
C55 C -0.5301(4) 0.7136(3) -0.4258(2)
H43 H -0.5828 0.7082 -0.4524
C56 C -0.4475(4) 0.6825(3) -0.4178(2)
H44 H -0.4325 0.6516 -0.4375
C57 C -0.3907(4) 0.7062(3) -0.3745(2)
H45 H -0.3291 0.6938 -0.3600
C58 C -0.6666(6) 0.7465(5) -0.2576(4)
H46 H -0.7317 0.7521 -0.2579
C59 C -0.6178(6) 0.6989(4) -0.2425(3)
H47 H -0.6406 0.6647 -0.2304
C60 C -0.5240(5) 0.7114(3) -0.2489(3)
H48 H -0.4720 0.6863 -0.2407
Cu1 Cu 0.54229(5) 0.72801(3) 0.05495(3)
Cu2 Cu -0.01712(5) 0.77315(3) -0.09531(3)
Cu3 Cu -0.40964(5) 0.80252(3) -0.29426(3)
N1 N 0.6232(3) 0.7984(2) 0.0745(2)
N2 N 0.7159(3) 0.7949(2) 0.0973(2)
H49 H 0.7473 0.7631 0.1039
N3 N 0.5655(3) 0.7068(2) 0.1315(2)
N4 N 0.5505(4) 0.7448(3) 0.1681(2)
H50 H 0.5311 0.7798 0.1617
N5 N 0.4633(3) 0.6564(2) 0.0345(2)
N6 N 0.3709(3) 0.6608(2) 0.01048(19)
H51 H 0.3393 0.6927 0.0060
N7 N 0.5260(3) 0.7478(3) -0.0223(2)
N8 N 0.5778(4) 0.7216(3) -0.0523(2)
H52 H 0.6217 0.6964 -0.0414
N9 N -0.1124(3) 0.8174(2) -0.06099(18)
N10 N -0.1962(3) 0.7951(2) -0.05354(19)
H53 H -0.2175 0.7614 -0.0638
N11 N -0.0365(3) 0.8306(2) -0.15350(18)
N12 N -0.1005(4) 0.8277(3) -0.1966(2)
H54 H -0.1371 0.7984 -0.2060
N13 N 0.0862(3) 0.7330(2) -0.12593(18)
N14 N 0.1774(4) 0.7512(3) -0.1213(2)
H55 H 0.1980 0.7843 -0.1089
N15 N 0.0104(3) 0.71696(19) -0.03572(16)
N16 N 0.0979(3) 0.7173(2) -0.00468(17)
H56 H 0.1421 0.7422 -0.0069
N17 N -0.3910(3) 0.8565(2) -0.23301(19)
N18 N -0.4415(7) 0.9030(3) -0.2294(3)
H57 H -0.4841 0.9163 -0.2544
N19 N -0.3004(3) 0.8384(2) -0.32376(18)
N20 N -0.2224(3) 0.8080(2) -0.33085(18)
H58 H -0.2082 0.7739 -0.3186
N21 N -0.4372(3) 0.74993(19) -0.35604(16)
N22 N -0.5218(3) 0.7534(2) -0.38850(17)
H59 H -0.5655 0.7783 -0.3856
N23 N -0.5204(3) 0.7631(2) -0.26788(18)
N24 N -0.6079(4) 0.7849(3) -0.2720(3)
H60 H -0.6242 0.8194 -0.2827
O1 O 0.4136(3) 0.7839(2) 0.06791(18)
O2 O 0.2816(3) 0.76348(18) 0.01045(18)
O3 O 0.1037(3) 0.8368(2) -0.04521(16)
O4 O 0.2397(4) 0.8572(3) -0.07196(19)
O5 O -0.1391(3) 0.71598(19) -0.14586(15)
O6 O -0.2418(3) 0.6893(2) -0.09505(17)
O7 O -0.2985(3) 0.73963(18) -0.24083(16)
O8 O -0.1866(3) 0.70406(19) -0.28105(17)
O9 O -0.5135(3) 0.87057(19) -0.34378(16)
O10 O -0.6372(4) 0.9051(2) -0.31237(18)
O11 O -0.6980(3) 0.81080(17) -0.39716(16)
O12 O -0.8203(3) 0.8317(2) -0.46110(16)
Cu1C Cu -0.95771(5) 0.77199(3) -0.44505(3)
O12C O 0.6797(3) 0.6683(2) 0.03890(16)
N25 N 0.0324(4) 0.6342(3) -0.2959(2)
N26 N -0.0374(4) 0.6222(2) -0.2704(2)
H61 H -0.0874 0.6436 -0.2717
C61 C -0.0223(6) 0.5735(3) -0.2424(3)
H62 H -0.0622 0.5575 -0.2218
C62 C 0.0635(7) 0.5520(4) -0.2504(4)
H63 H 0.0944 0.5185 -0.2365
C63 C 0.0943(6) 0.5908(4) -0.2836(3)
H64 H 0.1513 0.5872 -0.2960
N27 N -0.7961(6) 0.9832(4) -0.3307(4)
H65 H -0.7466 0.9611 -0.3271
C64 C -0.8303(9) 1.0130(6) -0.3719(5)
H66 H -0.8040 1.0134 -0.4018
C65 C -0.9197(12) 1.0311(8) -0.3191(8)
H67 H -0.9681 1.0463 -0.3036
C66 C -0.9076(10) 1.0429(7) -0.3659(6)
H68 H -0.9450 1.0670 -0.3901
N28 N -0.8492(10) 0.9920(6) -0.2951(5)
N29 N 0.3912(9) 0.9360(7) -0.0683(7)
H69 H 0.3480 0.9105 -0.0659
N30 N 0.3939(13) 0.9622(8) -0.1105(7)
C67 C 0.4719(14) 0.9959(8) -0.0934(8)
H70 H 0.4949 1.0217 -0.1154
C68 C 0.5148(17) 0.9904(10) -0.0427(9)
H71 H 0.5681 1.0092 -0.0238
C69 C 0.4577(17) 0.9500(11) -0.0282(10)
H72 H 0.4642 0.9342 0.0049
N33 N 0.1585(16) 0.9983(10) -0.1381(9)
H77 H 0.2060 0.9755 -0.1396
N34 N 0.1097(13) 1.0015(8) -0.0973(6)
C73 C 0.0397(14) 1.0413(9) -0.1114(7)
H78 H -0.0042 1.0533 -0.0913
C74 C 0.0441(13) 1.0612(8) -0.1607(8)
H79 H 0.0026 1.0871 -0.1807
C75 C 0.1214(13) 1.0351(8) -0.1738(6)
H80 H 0.1448 1.0424 -0.2041
O13 O 0.2946(13) 0.9195(8) -0.1959(6)
N31? N 0.150(2) 0.9991(13) -0.1235(10)
H73? H 0.1940 0.9781 -0.1052
N32? N 0.079(3) 1.0230(19) -0.1050(11)
C70? C 0.030(2) 1.0577(18) -0.1423(15)
H74? H -0.0222 1.0812 -0.1397
C71? C 0.0729(17) 1.0512(9) -0.1852(9)
H75? H 0.0553 1.0706 -0.2166
C72? C 0.1469(16) 1.0107(12) -0.1737(9)
H76? H 0.1848 0.9956 -0.1958
loop_
_geom_bond_atom_site_label_1
_geom_bond_atom_site_label_2
_geom_bond_site_symmetry_1
_geom_bond_site_symmetry_2
C1 C2 1_555 1_555
C2 C3 1_555 1_555
C3 H1 1_555 1_555
C4 C3 1_555 1_555
H2 C4 1_555 1_555
C5 C4 1_555 1_555
H3 C5 1_555 1_555
C6 C5 1_555 1_555
H4 C6 1_555 1_555
C7 C2 1_555 1_555
C8 C7 1_555 1_555
C9 C10 1_555 1_555
C10 C11 1_555 1_555
C11 H5 1_555 1_555
C12 C11 1_555 1_555
H6 C12 1_555 1_555
C13 C12 1_555 1_555
H7 C13 1_555 1_555
C14 C13 1_555 1_555
H8 C14 1_555 1_555
C15 C10 1_555 1_555
C16 C15 1_555 1_555
C17 C18 1_555 1_555
C18 C19 1_555 1_555
C19 H9 1_555 1_555
C20 C19 1_555 1_555
H10 C20 1_555 1_555
C21 C20 1_555 1_555
H11 C21 1_555 1_555
C22 C21 1_555 1_555
H12 C22 1_555 1_555
C23 C18 1_555 1_555
C24 C23 1_555 1_555
C25 H13 1_555 1_555
C26 C25 1_555 1_555
H14 C26 1_555 1_555
C27 C26 1_555 1_555
H15 C27 1_555 1_555
C28 H16 1_555 1_555
C29 C28 1_555 1_555
H17 C29 1_555 1_555
C30 C29 1_555 1_555
H18 C30 1_555 1_555
C31 H19 1_555 1_555
C32 C31 1_555 1_555
H20 C32 1_555 1_555
C33 C32 1_555 1_555
H21 C33 1_555 1_555
C34 H22 1_555 1_555
C35 C34 1_555 1_555
H23 C35 1_555 1_555
C36 C35 1_555 1_555
H24 C36 1_555 1_555
C37 H25 1_555 1_555
C38 C37 1_555 1_555
H26 C38 1_555 1_555
C39 C38 1_555 1_555
H27 C39 1_555 1_555
C40 H28 1_555 1_555
C41 C40 1_555 1_555
H29 C41 1_555 1_555
C42 C41 1_555 1_555
H30 C42 1_555 1_555
C43 H31 1_555 1_555
C44 C43 1_555 1_555
H32 C44 1_555 1_555
C45 C44 1_555 1_555
H33 C45 1_555 1_555
C46 H34 1_555 1_555
C47 C46 1_555 1_555
H35 C47 1_555 1_555
C48 C47 1_555 1_555
H36 C48 1_555 1_555
C49 H37 1_555 1_555
C50 C49 1_555 1_555
H38 C50 1_555 1_555
C51 C50 1_555 1_555
H39 C51 1_555 1_555
C52 H40 1_555 1_555
C53 C52 1_555 1_555
H41 C53 1_555 1_555
C54 C53 1_555 1_555
H42 C54 1_555 1_555
C55 H43 1_555 1_555
C56 C55 1_555 1_555
H44 C56 1_555 1_555
C57 C56 1_555 1_555
H45 C57 1_555 1_555
C58 H46 1_555 1_555
C59 C58 1_555 1_555
H47 C59 1_555 1_555
C60 C59 1_555 1_555
H48 C60 1_555 1_555
Cu1 N1 1_555 1_555
Cu2 N9 1_555 1_555
Cu3 N17 1_555 1_555
N1 C27 1_555 1_555
N2 C25 1_555 1_555
H49 N2 1_555 1_555
N3 C30 1_555 1_555
N4 C28 1_555 1_555
H50 N4 1_555 1_555
N5 C33 1_555 1_555
N6 C31 1_555 1_555
H51 N6 1_555 1_555
N7 C36 1_555 1_555
N8 C34 1_555 1_555
H52 N8 1_555 1_555
N9 C39 1_555 1_555
N10 C37 1_555 1_555
H53 N10 1_555 1_555
N11 C42 1_555 1_555
N12 C40 1_555 1_555
H54 N12 1_555 1_555
N13 C45 1_555 1_555
N14 C43 1_555 1_555
H55 N14 1_555 1_555
N15 C48 1_555 1_555
N16 C46 1_555 1_555
H56 N16 1_555 1_555
N17 C51 1_555 1_555
N18 C49 1_555 1_555
H57 N18 1_555 1_555
N19 C54 1_555 1_555
N20 C52 1_555 1_555
H58 N20 1_555 1_555
N21 C57 1_555 1_555
N22 C55 1_555 1_555
H59 N22 1_555 1_555
N23 C60 1_555 1_555
N24 C58 1_555 1_555
H60 N24 1_555 1_555
O1 C1 1_555 1_555
O2 C1 1_555 1_555
O3 C8 1_555 1_555
O4 C8 1_555 1_555
O5 C9 1_555 1_555
O6 C9 1_555 1_555
O7 C16 1_555 1_555
O8 C16 1_555 1_555
O9 C17 1_555 1_555
O10 C17 1_555 1_555
O11 C24 1_555 1_555
O12 C24 1_555 1_555
N25 N26 1_555 1_555
N26 H61 1_555 1_555
C61 N26 1_555 1_555
H62 C61 1_555 1_555
C62 C61 1_555 1_555
H63 C62 1_555 1_555
C63 N25 1_555 1_555
H64 C63 1_555 1_555
N27 H65 1_555 1_555
C64 N27 1_555 1_555
H66 C64 1_555 1_555
C65 H67 1_555 1_555
C66 C64 1_555 1_555
H68 C66 1_555 1_555
N28 N27 1_555 1_555
N29 H69 1_555 1_555
N30 N29 1_555 1_555
C67 N30 1_555 1_555
H70 C67 1_555 1_555
C68 C67 1_555 1_555
H71 C68 1_555 1_555
C69 N29 1_555 1_555
H72 C69 1_555 1_555
N33 H77 1_555 1_555
N34 N33 1_555 1_555
C73 N34 1_555 1_555
H78 C73 1_555 1_555
C74 C73 1_555 1_555
H79 C74 1_555 1_555
C75 N33 1_555 1_555
H80 C75 1_555 1_555
Cu1C O12 1_555 1_555
O12C Cu1 1_555 1_555
C6 C7 1_555 1_555
C14 C15 1_555 1_555
C22 C23 1_555 1_555
Cu1 N3 1_555 1_555
Cu1 N5 1_555 1_555
Cu1 N7 1_555 1_555
Cu1 O1 1_555 1_555
Cu2 N11 1_555 1_555
Cu2 N13 1_555 1_555
Cu2 N15 1_555 1_555
Cu2 O3 1_555 1_555
Cu2 O5 1_555 1_555
Cu3 N19 1_555 1_555
Cu3 N21 1_555 1_555
Cu3 N23 1_555 1_555
Cu3 O7 1_555 1_555
Cu3 O9 1_555 1_555
N1 N2 1_555 1_555
N3 N4 1_555 1_555
N5 N6 1_555 1_555
N7 N8 1_555 1_555
N9 N10 1_555 1_555
N11 N12 1_555 1_555
N13 N14 1_555 1_555
N15 N16 1_555 1_555
N17 N18 1_555 1_555
N19 N20 1_555 1_555
N21 N22 1_555 1_555
N23 N24 1_555 1_555
C62 C63 1_555 1_555
C65 C66 1_555 1_555
C65 N28 1_555 1_555
C68 C69 1_555 1_555
C74 C75 1_555 1_555

#END
