
#######################################################################
#
#                 Cambridge Crystallographic Data Centre
#                                CCDC 
#
#######################################################################
#
# If this CIF has been generated from an entry in the Cambridge 
# Structural Database, then it will include bibliographic, chemical, 
# crystal, experimental, refinement or atomic coordinate data resulting 
# from the CCDC's data processing and validation procedures.
#
#######################################################################

data_FODHEM
_symmetry_cell_setting           monoclinic
_symmetry_space_group_name_H-M   'C 2/c'
_symmetry_Int_Tables_number      15
_space_group_name_Hall           '-C 2yn'
loop_
_symmetry_equiv_pos_site_id
_symmetry_equiv_pos_as_xyz
1 x,y,z
2 1/2+x,1/2+y,z
3 -x,y,1/2-z
4 1/2-x,1/2+y,1/2-z
5 -x,-y,-z
6 1/2-x,1/2-y,-z
7 x,-y,1/2+z
8 1/2+x,1/2-y,1/2+z
_cell_length_a                   20.63(2)
_cell_length_b                   6.334(4)
_cell_length_c                   15.050(16)
_cell_angle_alpha                90
_cell_angle_beta                 107.72
_cell_angle_gamma                90
_cell_volume                     1873.29
loop_
_atom_site_label
_atom_site_type_symbol
_atom_site_fract_x
_atom_site_fract_y
_atom_site_fract_z
Mn1 Mn 0.30694(3) 0.10918(9) 0.28940(5)
O1 O 0.29534(13) 0.4716(4) 0.2713(2)
O2 O 0.34941(16) 0.7862(4) 0.3023(2)
O3 O 0.66090(15) 0.4694(5) 0.4288(3)
O4 O 0.60759(16) 0.7828(5) 0.4174(3)
N1 N 0.41207(17) 0.2625(5) 0.3583(3)
C1 C 0.4712(2) 0.1613(6) 0.3983(3)
H1 H 0.4692 0.0151 0.4142
C2 C 0.5354(2) 0.2551(7) 0.4184(3)
H2 H 0.5760 0.1754 0.4468
C3 C 0.5395(2) 0.4691(6) 0.3964(3)
C4 C 0.4783(2) 0.5782(6) 0.3557(3)
H3 H 0.4790 0.7235 0.3378
C5 C 0.4162(2) 0.4736(6) 0.3399(3)
C6 C 0.34882(19) 0.5864(6) 0.3015(3)
C7 C 0.6085(2) 0.5811(6) 0.4149(3)
O5 O 0.28568(16) 0.1030(6) 0.4205(2)
O6 O 0.32451(18) 0.0974(5) 0.1543(2)
H4 H 0.3179 0.1252 0.4679
H5 H 0.3618 0.0979 0.2002
H6 H 0.2448 0.0717 0.4176
H7 H 0.3334 0.1946 0.1199
Mn1C Mn 0.19306(3) 0.60918(9) 0.21060(5)
Mn1_2 Mn 0.30694(3) 1.10918(9) 0.28940(5)
O1C O 0.20466(13) -0.0284(4) 0.2287(2)
O2_2 O 0.34941(16) -0.2138(4) 0.3023(2)
loop_
_geom_bond_atom_site_label_1
_geom_bond_atom_site_label_2
_geom_bond_site_symmetry_1
_geom_bond_site_symmetry_2
Mn1 O1 1_555 1_555
O1 C6 1_555 1_555
O2 C6 1_555 1_555
O3 C7 1_555 1_555
O4 C7 1_555 1_555
N1 Mn1 1_555 1_555
C1 N1 1_555 1_555
H1 C1 1_555 1_555
C2 C1 1_555 1_555
H2 C2 1_555 1_555
C3 C2 1_555 1_555
C4 C3 1_555 1_555
H3 C4 1_555 1_555
C5 N1 1_555 1_555
C6 C5 1_555 1_555
C7 C3 1_555 1_555
O5 Mn1 1_555 1_555
O6 Mn1 1_555 1_555
H4 O5 1_555 1_555
H5 O6 1_555 1_555
H6 O5 1_555 1_555
H7 O6 1_555 1_555
Mn1C O1 1_555 1_555
Mn1_2 O2 1_555 1_555
O1C Mn1 1_555 1_555
O2_2 Mn1 1_555 1_555
C4 C5 1_555 1_555

#END
