
#######################################################################
#
#                 Cambridge Crystallographic Data Centre
#                                CCDC 
#
#######################################################################
#
# If this CIF has been generated from an entry in the Cambridge 
# Structural Database, then it will include bibliographic, chemical, 
# crystal, experimental, refinement or atomic coordinate data resulting 
# from the CCDC's data processing and validation procedures.
#
#######################################################################

data_FODLEQ04
_symmetry_cell_setting           orthorhombic
_symmetry_space_group_name_H-M   'C 2 2 21'
_symmetry_Int_Tables_number      20
_space_group_name_Hall           'C 2n 2'
loop_
_symmetry_equiv_pos_site_id
_symmetry_equiv_pos_as_xyz
1 x,y,z
2 -x,-y,1/2+z
3 x,-y,-z
4 -x,y,1/2-z
5 1/2+x,1/2+y,z
6 1/2-x,1/2-y,1/2+z
7 1/2+x,1/2-y,-z
8 1/2-x,1/2+y,1/2-z
_cell_length_a                   16.562(1)
_cell_length_b                   8.500(1)
_cell_length_c                   24.473(1)
_cell_angle_alpha                90
_cell_angle_beta                 90
_cell_angle_gamma                90
_cell_volume                     3445.24
loop_
_atom_site_label
_atom_site_type_symbol
_atom_site_fract_x
_atom_site_fract_y
_atom_site_fract_z
Cu1 Cu 0.09381(4) 0.75995(7) 0.32886(3)
Cu2 Cu 0.00575(6) 0.5000 0.5000
N1 N 0.0693(3) 0.6509(5) 0.39446(19)
N2 N 0.0477(3) 0.5918(5) 0.43470(18)
N3 N 0.0222(3) 0.7841(4) 0.26926(16)
C1 C 0.3561(3) 1.1005(6) 0.3496(2)
H1 H 0.3869 1.1868 0.3602
C2 C 0.3949(3) 0.9704(6) 0.3290(2)
H2 H 0.4502 0.9674 0.3226
N4 N 0.2131(2) 0.7275(5) 0.31268(15)
C3 C 0.2501(3) 0.5790(6) 0.2944(2)
H3 H 0.2185 0.4907 0.2875
C4 C 0.3350(3) 0.5740(7) 0.2875(2)
H4 H 0.3602 0.4827 0.2753
C5 C 0.3804(3) 0.7088(6) 0.2993(2)
H5 H 0.4360 0.7075 0.2942
C6 C 0.3437(3) 0.8429(6) 0.3184(2)
C7 C 0.2611(3) 0.8535(6) 0.3232(2)
N5 N 0.1407(2) 0.9799(5) 0.34816(16)
C8 C 0.1048(4) 1.1161(5) 0.3674(2)
H6 H 0.0489 1.1178 0.3713
C9 C 0.1471(3) 1.2472(7) 0.3808(2)
H7 H 0.1206 1.3361 0.3938
C10 C 0.2316(3) 1.2469(7) 0.37463(19)
H8 H 0.2613 1.3365 0.3831
C11 C 0.2717(3) 1.1087(6) 0.3554(2)
C12 C 0.2247(3) 0.9759(6) 0.3423(2)
N6 N -0.0973(3) 0.3550(5) 0.47987(16)
C13 C -0.1681(4) 0.4246(6) 0.4872(2)
C14 C -0.2448(3) 0.3548(6) 0.4780(2)
C15 C -0.2376(3) 0.1983(6) 0.4568(2)
H9 H -0.2841 0.1395 0.4508
C16 C -0.1661(4) 0.1350(6) 0.4456(2)
H10 H -0.1638 0.0365 0.4290
C17 C -0.0979(4) 0.2095(6) 0.4574(2)
H11 H -0.0490 0.1602 0.4500
C18 C -0.3187(3) 0.4178(6) 0.4882(2)
H12 H -0.3662 0.3633 0.4812
Cu1B Cu 0.09381(4) 0.24005(7) 0.67114(3)
Cu1C Cu -0.09381(4) 0.75995(7) 0.17114(3)
N1B N 0.0693(3) 0.3491(5) 0.60554(19)
N2B N 0.0477(3) 0.4082(5) 0.56530(18)
N3C N -0.0222(3) 0.7841(4) 0.23074(16)
N3B N 0.0222(3) 0.2159(4) 0.73074(16)
C1B C 0.3561(3) -0.1005(6) 0.6504(2)
H1B H 0.3869 -0.1868 0.6398
C2B C 0.3949(3) 0.0296(6) 0.6710(2)
H2B H 0.4502 0.0326 0.6774
N4B N 0.2131(2) 0.2725(5) 0.68732(15)
C3B C 0.2501(3) 0.4210(6) 0.7056(2)
H3B H 0.2185 0.5093 0.7125
C4B C 0.3350(3) 0.4260(7) 0.7125(2)
H4B H 0.3602 0.5173 0.7247
C5B C 0.3804(3) 0.2912(6) 0.7007(2)
H5B H 0.4360 0.2925 0.7058
C6B C 0.3437(3) 0.1571(6) 0.6816(2)
C7B C 0.2611(3) 0.1465(6) 0.6768(2)
N5B N 0.1407(2) 0.0201(5) 0.65184(16)
C8B C 0.1048(4) -0.1161(5) 0.6326(2)
H6B H 0.0489 -0.1178 0.6287
C9B C 0.1471(3) -0.2472(7) 0.6192(2)
H7B H 0.1206 -0.3361 0.6062
C10B C 0.2316(3) -0.2469(7) 0.62537(19)
H8B H 0.2613 -0.3365 0.6169
C11B C 0.2717(3) -0.1087(6) 0.6446(2)
C12B C 0.2247(3) 0.0241(6) 0.6577(2)
N6B N -0.0973(3) 0.6450(5) 0.52013(16)
C13B C -0.1681(4) 0.5754(6) 0.5128(2)
C14B C -0.2448(3) 0.6452(6) 0.5220(2)
C15B C -0.2376(3) 0.8017(6) 0.5432(2)
H9B H -0.2841 0.8605 0.5492
C16B C -0.1661(4) 0.8650(6) 0.5544(2)
H10B H -0.1638 0.9635 0.5710
C17B C -0.0979(4) 0.7905(6) 0.5426(2)
H11B H -0.0490 0.8398 0.5500
C18B C -0.3187(3) 0.5822(6) 0.5118(2)
H12B H -0.3662 0.6367 0.5188
loop_
_geom_bond_atom_site_label_1
_geom_bond_atom_site_label_2
_geom_bond_site_symmetry_1
_geom_bond_site_symmetry_2
Cu1 N1 1_555 1_555
Cu2 N2 1_555 1_555
N1 N2 1_555 1_555
N3 Cu1 1_555 1_555
C1 H1 1_555 1_555
C2 C1 1_555 1_555
H2 C2 1_555 1_555
N4 Cu1 1_555 1_555
C3 N4 1_555 1_555
H3 C3 1_555 1_555
C4 C3 1_555 1_555
H4 C4 1_555 1_555
C5 C4 1_555 1_555
H5 C5 1_555 1_555
C6 C2 1_555 1_555
C7 N4 1_555 1_555
N5 Cu1 1_555 1_555
C8 N5 1_555 1_555
H6 C8 1_555 1_555
C9 C8 1_555 1_555
H7 C9 1_555 1_555
C10 C9 1_555 1_555
H8 C10 1_555 1_555
C11 C1 1_555 1_555
C12 C7 1_555 1_555
N6 Cu2 1_555 1_555
C13 N6 1_555 1_555
C14 C13 1_555 1_555
C15 C14 1_555 1_555
H9 C15 1_555 1_555
C16 C15 1_555 1_555
H10 C16 1_555 1_555
C17 N6 1_555 1_555
H11 C17 1_555 1_555
C18 C14 1_555 1_555
H12 C18 1_555 1_555
Cu1B N1B 1_555 1_555
Cu1C N3C 1_555 1_555
N1B N2B 1_555 1_555
N2B Cu2 1_555 1_555
N3C N3 1_555 1_555
N3B Cu1B 1_555 1_555
C1B H1B 1_555 1_555
C2B C1B 1_555 1_555
H2B C2B 1_555 1_555
N4B Cu1B 1_555 1_555
C3B N4B 1_555 1_555
H3B C3B 1_555 1_555
C4B C3B 1_555 1_555
H4B C4B 1_555 1_555
C5B C4B 1_555 1_555
H5B C5B 1_555 1_555
C6B C2B 1_555 1_555
C7B N4B 1_555 1_555
N5B Cu1B 1_555 1_555
C8B N5B 1_555 1_555
H6B C8B 1_555 1_555
C9B C8B 1_555 1_555
H7B C9B 1_555 1_555
C10B C9B 1_555 1_555
H8B C10B 1_555 1_555
C11B C1B 1_555 1_555
C12B C7B 1_555 1_555
N6B Cu2 1_555 1_555
C13B C13 1_555 1_555
C14B C13B 1_555 1_555
C15B C14B 1_555 1_555
H9B C15B 1_555 1_555
C16B C15B 1_555 1_555
H10B C16B 1_555 1_555
C17B N6B 1_555 1_555
H11B C17B 1_555 1_555
C18B C18 1_555 1_555
H12B C18B 1_555 1_555
C5 C6 1_555 1_555
C6 C7 1_555 1_555
N5 C12 1_555 1_555
C10 C11 1_555 1_555
C11 C12 1_555 1_555
C16 C17 1_555 1_555
C5B C6B 1_555 1_555
C6B C7B 1_555 1_555
N5B C12B 1_555 1_555
C10B C11B 1_555 1_555
C11B C12B 1_555 1_555
N6B C13B 1_555 1_555
C14B C18B 1_555 1_555
C16B C17B 1_555 1_555

#END
