
#######################################################################
#
#                 Cambridge Crystallographic Data Centre
#                                CCDC 
#
#######################################################################
#
# If this CIF has been generated from an entry in the Cambridge 
# Structural Database, then it will include bibliographic, chemical, 
# crystal, experimental, refinement or atomic coordinate data resulting 
# from the CCDC's data processing and validation procedures.
#
#######################################################################

data_FODLEQ03
_symmetry_cell_setting           trigonal
_symmetry_space_group_name_H-M   'P 31'
_symmetry_Int_Tables_number      144
_space_group_name_Hall           'P 31'
loop_
_symmetry_equiv_pos_site_id
_symmetry_equiv_pos_as_xyz
1 x,y,z
2 -y,x-y,1/3+z
3 -x+y,-x,2/3+z
_cell_length_a                   9.175(5)
_cell_length_b                   9.175(5)
_cell_length_c                   11.753(8)
_cell_angle_alpha                90
_cell_angle_beta                 90
_cell_angle_gamma                120
_cell_volume                     856.824
loop_
_atom_site_label
_atom_site_type_symbol
_atom_site_fract_x
_atom_site_fract_y
_atom_site_fract_z
Cu1 Cu -0.0001(2) 0.1910(1) 0.000
C1 C -0.095(1) 0.048(1) 0.126(1)
N1 N -0.140(1) -0.042(1) 0.203(1)
N2 N -0.160(1) 0.289(2) -0.039(1)
C2 C -0.318(2) 0.206(2) -0.073(1)
C3 C -0.412(2) 0.292(4) -0.088(1)
C4 C -0.329(3) 0.459(4) -0.069(2)
C5 C -0.167(3) 0.553(2) -0.036(1)
C6 C -0.087(2) 0.453(2) -0.020(1)
C7 C -0.087(5) 0.723(3) -0.018(2)
N3 N 0.160(1) 0.447(1) 0.040(1)
C8 C 0.320(2) 0.5252 0.074(1)
C9 C 0.412(3) 0.699(3) 0.091(1)
C10 C 0.340(4) 0.794(3) 0.071(2)
C11 C 0.171(3) 0.718(2) 0.036(1)
C12 C 0.086(2) 0.540(1) 0.019(1)
C13 C 0.081(5) 0.803(3) 0.016(2)
H1 H -0.372 0.086 -0.088
H2 H -0.529 0.240 -0.109
H3 H -0.386 0.523 -0.080
H4 H -0.134 0.788 -0.028
H5 H 0.373 0.453 0.086
H6 H 0.535 0.746 0.116
H7 H 0.415 0.909 0.088
H8 H 0.145 0.929 0.028
N1B N 0.098(1) 0.140(1) -0.130(1)
Cu1A Cu -0.1910(1) -0.1911(2) 0.333333
loop_
_geom_bond_atom_site_label_1
_geom_bond_atom_site_label_2
_geom_bond_site_symmetry_1
_geom_bond_site_symmetry_2
Cu1 C1 1_555 1_555
C1 N1 1_555 1_555
N1 Cu1A 1_555 1_555
N2 Cu1 1_555 1_555
C2 N2 1_555 1_555
C3 C2 1_555 1_555
C4 C3 1_555 1_555
C5 C4 1_555 1_555
C6 N2 1_555 1_555
C7 C5 1_555 1_555
N3 Cu1 1_555 1_555
C8 N3 1_555 1_555
C9 C8 1_555 1_555
C10 C9 1_555 1_555
C11 C10 1_555 1_555
C12 C6 1_555 1_555
C13 C7 1_555 1_555
H1 C2 1_555 1_555
H2 C3 1_555 1_555
H3 C4 1_555 1_555
H4 C7 1_555 1_555
H5 C8 1_555 1_555
H6 C9 1_555 1_555
H7 C10 1_555 1_555
H8 C13 1_555 1_555
N1B Cu1 1_555 1_555
C5 C6 1_555 1_555
N3 C12 1_555 1_555
C11 C13 1_555 1_555
C11 C12 1_555 1_555

#END
