
#######################################################################
#
#                 Cambridge Crystallographic Data Centre
#                                CCDC 
#
#######################################################################
#
# If this CIF has been generated from an entry in the Cambridge 
# Structural Database, then it will include bibliographic, chemical, 
# crystal, experimental, refinement or atomic coordinate data resulting 
# from the CCDC's data processing and validation procedures.
#
#######################################################################

data_FODREX
_symmetry_cell_setting           triclinic
_symmetry_space_group_name_H-M   'P -1'
_symmetry_Int_Tables_number      2
_space_group_name_Hall           '-P 1'
loop_
_symmetry_equiv_pos_site_id
_symmetry_equiv_pos_as_xyz
1 x,y,z
2 -x,-y,-z
_cell_length_a                   9.4813(7)
_cell_length_b                   9.8800(7)
_cell_length_c                   11.0632(10)
_cell_angle_alpha                92.892(6)
_cell_angle_beta                 95.604(7)
_cell_angle_gamma                109.777(6)
_cell_volume                     966.695
loop_
_atom_site_label
_atom_site_type_symbol
_atom_site_fract_x
_atom_site_fract_y
_atom_site_fract_z
Hg1 Hg 0.44540(3) 0.43546(3) 0.76320(3)
N1 N 0.7337(5) 0.2686(5) 1.0024(4)
S1 S 0.4633(2) 0.2879(3) 0.9743(2)
S2 S 0.7068(2) 0.4368(2) 0.82776(19)
S3 S 0.4145(2) 0.5966(2) 0.5843(2)
S4 S 0.1803(2) 0.4622(2) 0.74133(17)
C1 C 0.6427(7) 0.3251(7) 0.9418(6)
C2 C 0.6848(9) 0.1767(8) 1.0996(6)
H1 H 0.5991 0.0936 1.0679
H2 H 0.6574 0.2295 1.1629
H3 H 0.7656 0.1462 1.1323
C3 C 0.8872(7) 0.2919(7) 0.9746(7)
H4 H 0.9551 0.3188 1.0502
H5 H 0.9168 0.3723 0.9245
C4 C 0.9067(7) 0.1621(7) 0.9093(5)
C5 C 1.0494(7) 0.1632(8) 0.8984(6)
H6 H 1.1327 0.2418 0.9322
C6 C 1.0689(10) 0.0494(10) 0.8381(7)
H7 H 1.1673 0.0554 0.8292
N2 N 0.9582(8) -0.0700(7) 0.7907(6)
C7 C 0.8191(9) -0.0735(9) 0.8028(6)
H8 H 0.7385 -0.1559 0.7715
C8 C 0.7875(7) 0.0411(7) 0.8605(6)
H9 H 0.6884 0.0355 0.8657
C9 C 0.2436(7) 0.5788(6) 0.6324(6)
N3 N 0.1591(5) 0.6507(5) 0.5832(4)
C10 C 0.0147(7) 0.6437(7) 0.6253(6)
H10 H -0.0133 0.5701 0.6808
H11 H -0.0620 0.6211 0.5566
H12 H 0.0251 0.7353 0.6660
C11 C 0.2056(8) 0.7473(7) 0.4881(5)
H13 H 0.1201 0.7313 0.4265
H14 H 0.2836 0.7249 0.4494
C12 C 0.2649(7) 0.9036(7) 0.5374(5)
C13 C 0.1943(7) 0.9982(7) 0.5014(6)
H15 H 0.1101 0.9674 0.4428
C14 C 0.2487(8) 1.1383(8) 0.5525(7)
H16 H 0.1987 1.2003 0.5277
N4 N 0.3689(6) 1.1896(5) 0.6353(5)
C15 C 0.4383(7) 1.0981(7) 0.6682(6)
H17 H 0.5235 1.1321 0.7257
C16 C 0.3907(7) 0.9568(7) 0.6219(6)
H18 H 0.4433 0.8971 0.6476
Hg1_2 Hg 0.44540(3) 1.43546(3) 0.76320(3)
N4_2 N 0.3689(6) 0.1896(5) 0.6353(5)
loop_
_geom_bond_atom_site_label_1
_geom_bond_atom_site_label_2
_geom_bond_site_symmetry_1
_geom_bond_site_symmetry_2
Hg1 S1 1_555 1_555
N1 C1 1_555 1_555
S1 C1 1_555 1_555
S2 Hg1 1_555 1_555
S3 Hg1 1_555 1_555
S4 Hg1 1_555 1_555
C1 S2 1_555 1_555
C2 N1 1_555 1_555
H1 C2 1_555 1_555
H2 C2 1_555 1_555
H3 C2 1_555 1_555
C3 N1 1_555 1_555
H4 C3 1_555 1_555
H5 C3 1_555 1_555
C4 C3 1_555 1_555
C5 C4 1_555 1_555
H6 C5 1_555 1_555
C6 C5 1_555 1_555
H7 C6 1_555 1_555
N2 C6 1_555 1_555
C7 N2 1_555 1_555
H8 C7 1_555 1_555
C8 C4 1_555 1_555
H9 C8 1_555 1_555
C9 S3 1_555 1_555
N3 C9 1_555 1_555
C10 N3 1_555 1_555
H10 C10 1_555 1_555
H11 C10 1_555 1_555
H12 C10 1_555 1_555
C11 N3 1_555 1_555
H13 C11 1_555 1_555
H14 C11 1_555 1_555
C12 C11 1_555 1_555
C13 C12 1_555 1_555
H15 C13 1_555 1_555
C14 C13 1_555 1_555
H16 C14 1_555 1_555
N4 C14 1_555 1_555
C15 N4 1_555 1_555
H17 C15 1_555 1_555
C16 C12 1_555 1_555
H18 C16 1_555 1_555
Hg1_2 N4 1_555 1_555
N4_2 Hg1 1_555 1_555
S4 C9 1_555 1_555
C7 C8 1_555 1_555
C15 C16 1_555 1_555

#END
