
#######################################################################
#
#                 Cambridge Crystallographic Data Centre
#                                CCDC 
#
#######################################################################
#
# If this CIF has been generated from an entry in the Cambridge 
# Structural Database, then it will include bibliographic, chemical, 
# crystal, experimental, refinement or atomic coordinate data resulting 
# from the CCDC's data processing and validation procedures.
#
#######################################################################

data_FODRAT
_symmetry_cell_setting           monoclinic
_symmetry_space_group_name_H-M   'P 21/c'
_symmetry_Int_Tables_number      14
_space_group_name_Hall           '-P 2ybc'
loop_
_symmetry_equiv_pos_site_id
_symmetry_equiv_pos_as_xyz
1 x,y,z
2 -x,1/2+y,1/2-z
3 -x,-y,-z
4 x,1/2-y,1/2+z
_cell_length_a                   11.3826(5)
_cell_length_b                   23.7917(6)
_cell_length_c                   11.3950(4)
_cell_angle_alpha                90
_cell_angle_beta                 98.948(4)
_cell_angle_gamma                90
_cell_volume                     3048.34
loop_
_atom_site_label
_atom_site_type_symbol
_atom_site_fract_x
_atom_site_fract_y
_atom_site_fract_z
Hg1 Hg 0.20189(4) 0.051448(14) 0.10540(4)
N1 N 0.3203(6) -0.0827(3) -0.1017(5)
S1 S 0.13817(19) -0.01625(8) -0.07910(19)
S2 S 0.3568(2) -0.02329(10) 0.0995(2)
C1 C 0.2760(7) -0.0449(3) -0.0351(7)
C2 C 0.2566(8) -0.0977(3) -0.2189(7)
H1 H 0.1727 -0.1020 -0.2140
H2 H 0.2858 -0.1336 -0.2426
C3 C 0.2704(6) -0.0543(2) -0.3130(5)
C4 C 0.1800(6) -0.0481(3) -0.4092(7)
H3 H 0.1098 -0.0684 -0.4121
C5 C 0.1946(9) -0.0116(4) -0.5011(6)
H4 H 0.1341 -0.0075 -0.5655
C6 C 0.2996(10) 0.0187(3) -0.4968(6)
H5 H 0.3094 0.0431 -0.5583
N2 N 0.3900(7) 0.0125(3) -0.4005(8)
C7 C 0.3754(5) -0.0240(3) -0.3087(6)
H6 H 0.4359 -0.0282 -0.2443
C8 C 0.4321(7) -0.1128(3) -0.0641(8)
H7 H 0.4767 -0.0940 0.0042
H8 H 0.4796 -0.1120 -0.1278
C9 C 0.4108(7) -0.1726(3) -0.0323(7)
C10 C 0.3567(9) -0.1845(4) 0.0647(8)
H9 H 0.3331 -0.1552 0.1096
C11 C 0.3367(10) -0.2399(4) 0.0970(9)
H10 H 0.3030 -0.2476 0.1646
C12 C 0.3672(9) -0.2821(4) 0.0280(8)
O1 O 0.3528(7) -0.3387(3) 0.0403(7)
C13 C 0.3983(12) -0.3625(4) -0.0591(11)
H11 H 0.4584 -0.3904 -0.0316
H12 H 0.3346 -0.3809 -0.1116
O2 O 0.4482(7) -0.3196(3) -0.1214(6)
C14 C 0.4227(8) -0.2705(3) -0.0676(8)
C15 C 0.4440(7) -0.2164(3) -0.0995(7)
H13 H 0.4804 -0.2093 -0.1656
S3 S 0.0899(2) 0.10966(9) 0.2183(2)
S4 S 0.3508(2) 0.13196(9) 0.2858(2)
N3 N 0.1802(6) 0.1868(2) 0.3724(6)
C16 C 0.2098(7) 0.1464(3) 0.2999(6)
C17 C 0.0568(9) 0.2031(4) 0.3801(8)
H14 H 0.0476 0.2427 0.3601
H15 H 0.0044 0.1823 0.3201
N4 N 0.2533(7) 0.3766(3) 0.4562(6)
C18 C 0.2935(9) 0.3895(4) 0.3588(8)
H16 H 0.2976 0.4273 0.3391
C19 C 0.3302(9) 0.3503(4) 0.2829(8)
H17 H 0.3600 0.3613 0.2149
C20 C 0.3214(8) 0.2943(4) 0.3111(8)
H18 H 0.3443 0.2668 0.2612
C21 C 0.2789(7) 0.2792(3) 0.4127(7)
C22 C 0.2444(7) 0.3223(3) 0.4820(7)
H19 H 0.2134 0.3128 0.5501
C23 C 0.2696(8) 0.2176(3) 0.4525(7)
H20 H 0.3461 0.1994 0.4550
H21 H 0.2492 0.2168 0.5320
C24 C 0.0193(7) 0.1949(4) 0.4871(5)
C25 C -0.0502(8) 0.2343(3) 0.5345(7)
H22 H -0.0672 0.2686 0.4964
C26 C -0.0943(7) 0.2225(4) 0.6390(7)
H23 H -0.1408 0.2489 0.6707
C27 C -0.0688(7) 0.1712(4) 0.6959(6)
C28 C 0.0007(8) 0.1318(3) 0.6485(7)
C29 C 0.0448(6) 0.1436(3) 0.5440(7)
H24 H 0.0913 0.1172 0.5123
C30 C -0.0586(11) 0.1026(5) 0.8253(10)
H25 H -0.0054 0.1020 0.9006
H26 H -0.1217 0.0755 0.8279
O3 O -0.1075(8) 0.1594(4) 0.7986(7)
O4 O 0.0045(9) 0.0912(4) 0.7284(8)
Hg1C Hg 0.20189(4) 0.448552(14) 0.60540(4)
N4C N 0.2533(7) 0.1234(3) -0.0438(6)
loop_
_geom_bond_atom_site_label_1
_geom_bond_atom_site_label_2
_geom_bond_site_symmetry_1
_geom_bond_site_symmetry_2
Hg1 S1 1_555 1_555
N1 C1 1_555 1_555
S1 C1 1_555 1_555
S2 Hg1 1_555 1_555
C1 S2 1_555 1_555
C2 N1 1_555 1_555
H1 C2 1_555 1_555
H2 C2 1_555 1_555
C3 C2 1_555 1_555
C4 C3 1_555 1_555
H3 C4 1_555 1_555
C5 C4 1_555 1_555
H4 C5 1_555 1_555
C6 C5 1_555 1_555
H5 C6 1_555 1_555
N2 C6 1_555 1_555
C7 C3 1_555 1_555
H6 C7 1_555 1_555
C8 N1 1_555 1_555
H7 C8 1_555 1_555
H8 C8 1_555 1_555
C9 C8 1_555 1_555
C10 C9 1_555 1_555
H9 C10 1_555 1_555
C11 C10 1_555 1_555
H10 C11 1_555 1_555
C12 C11 1_555 1_555
O1 C12 1_555 1_555
C13 O1 1_555 1_555
H11 C13 1_555 1_555
H12 C13 1_555 1_555
O2 C13 1_555 1_555
C14 C12 1_555 1_555
C15 C9 1_555 1_555
H13 C15 1_555 1_555
S3 Hg1 1_555 1_555
S4 Hg1 1_555 1_555
N3 C16 1_555 1_555
C16 S3 1_555 1_555
C17 N3 1_555 1_555
H14 C17 1_555 1_555
H15 C17 1_555 1_555
N4 C18 1_555 1_555
C18 H16 1_555 1_555
C19 C18 1_555 1_555
H17 C19 1_555 1_555
C20 C19 1_555 1_555
H18 C20 1_555 1_555
C21 C20 1_555 1_555
C22 N4 1_555 1_555
H19 C22 1_555 1_555
C23 N3 1_555 1_555
H20 C23 1_555 1_555
H21 C23 1_555 1_555
C24 C17 1_555 1_555
C25 C24 1_555 1_555
H22 C25 1_555 1_555
C26 C25 1_555 1_555
H23 C26 1_555 1_555
C27 C26 1_555 1_555
C28 C27 1_555 1_555
C29 C24 1_555 1_555
H24 C29 1_555 1_555
C30 H25 1_555 1_555
H26 C30 1_555 1_555
O3 C27 1_555 1_555
O4 C28 1_555 1_555
Hg1C N4 1_555 1_555
N4C Hg1 1_555 1_555
N2 C7 1_555 1_555
O2 C14 1_555 1_555
C14 C15 1_555 1_555
S4 C16 1_555 1_555
C21 C22 1_555 1_555
C21 C23 1_555 1_555
C28 C29 1_555 1_555
C30 O3 1_555 1_555
C30 O4 1_555 1_555

#END
