
#######################################################################
#
#                 Cambridge Crystallographic Data Centre
#                                CCDC 
#
#######################################################################
#
# If this CIF has been generated from an entry in the Cambridge 
# Structural Database, then it will include bibliographic, chemical, 
# crystal, experimental, refinement or atomic coordinate data resulting 
# from the CCDC's data processing and validation procedures.
#
#######################################################################

data_FODTID01
_symmetry_cell_setting           monoclinic
_symmetry_space_group_name_H-M   'P 2/n'
_symmetry_Int_Tables_number      13
_space_group_name_Hall           '-P 2yac'
loop_
_symmetry_equiv_pos_site_id
_symmetry_equiv_pos_as_xyz
1 x,y,z
2 1/2-x,y,1/2-z
3 -x,-y,-z
4 1/2+x,-y,1/2+z
_cell_length_a                   12.3741(6)
_cell_length_b                   11.3562(5)
_cell_length_c                   13.6838(8)
_cell_angle_alpha                90
_cell_angle_beta                 107.309(2)
_cell_angle_gamma                90
_cell_volume                     1835.81
loop_
_atom_site_label
_atom_site_type_symbol
_atom_site_fract_x
_atom_site_fract_y
_atom_site_fract_z
Co1 Co 0.2500 0.35050(4) 0.2500
N1 N 0.2500 0.5401(3) 0.2500
N2 N 0.2500 1.1621(3) 0.2500
O1 O 0.29078(13) 0.35057(15) 0.41130(13)
O2 O 0.47611(16) 0.3205(3) 0.45565(15)
O3 O 0.16669(18) -0.3588(2) 0.5648(2)
O4 O 0.02757(17) -0.23507(19) 0.56230(19)
H1 H -0.0090 -0.2964 0.5551
O5 O 0.42751(18) 0.12716(18) 0.60203(18)
O6 O 0.07828(14) 0.34230(16) 0.24388(14)
H2 H 0.0343 0.3597 0.1850
H3 H 0.0636 0.3853 0.2891
C1 C 0.3865(2) 0.3332(2) 0.4769(2)
C2 C 0.3895(2) 0.3337(2) 0.5874(2)
C3 C 0.4104(2) 0.2331(3) 0.6464(2)
C4 C 0.4194(3) 0.2373(3) 0.7497(3)
H4 H 0.4347 0.1690 0.7889
C5 C 0.4057(3) 0.3422(4) 0.7938(3)
H5 H 0.4124 0.3451 0.8633
C6 C 0.3823(3) 0.4430(3) 0.7365(3)
H6 H 0.3718 0.5138 0.7666
C7 C 0.3744(2) 0.4393(3) 0.6338(2)
H7 H 0.3588 0.5080 0.5951
C8 C 0.1341(3) -0.2595(3) 0.5699(3)
C9 C 0.2082(2) -0.1546(3) 0.5829(2)
C10 C 0.1695(2) -0.0407(3) 0.5886(3)
H8 H 0.0946 -0.0285 0.5869
C11 C 0.2411(3) 0.0547(3) 0.5968(3)
H9 H 0.2147 0.1307 0.6009
C12 C 0.3521(2) 0.0362(3) 0.5990(2)
C13 C 0.3925(3) -0.0758(3) 0.5945(3)
H10 H 0.4676 -0.0877 0.5967
C14 C 0.3205(2) -0.1703(3) 0.5866(3)
H11 H 0.3477 -0.2461 0.5838
C15 C 0.1880(2) 0.6016(2) 0.1699(2)
H12 H 0.1435 0.5604 0.1135
C16 C 0.1863(2) 0.7225(2) 0.1663(2)
H13 H 0.1428 0.7615 0.1080
C17 C 0.2500 0.7859(3) 0.2500
C18 C 0.2860(3) 1.1013(3) 0.1830(2)
H14 H 0.3124 1.1425 0.1360
C19 C 0.2861(3) 0.9796(3) 0.1794(2)
H15 H 0.3102 0.9406 0.1299
C20 C 0.2500 0.9168(3) 0.2500
C15A C 0.3120(2) 0.6016(2) 0.3301(2)
H12A H 0.3565 0.5604 0.3865
C16A C 0.3137(2) 0.7225(2) 0.3337(2)
H13A H 0.3572 0.7615 0.3920
C18A C 0.2140(3) 1.1013(3) 0.3170(2)
H14A H 0.1876 1.1425 0.3640
C19A C 0.2139(3) 0.9796(3) 0.3206(2)
H15A H 0.1898 0.9406 0.3701
O1A O 0.20922(13) 0.35057(15) 0.08870(13)
O2A O 0.02389(16) 0.3205(3) 0.04435(15)
O3A O 0.33331(18) -0.3588(2) -0.0648(2)
O4A O 0.47243(17) -0.23507(19) -0.06230(19)
H1A H 0.5090 -0.2964 -0.0551
O5A O 0.07249(18) 0.12716(18) -0.10203(18)
O6A O 0.42172(14) 0.34230(16) 0.25612(14)
H2A H 0.4657 0.3597 0.3150
H3A H 0.4364 0.3853 0.2109
C1A C 0.1135(2) 0.3332(2) 0.0231(2)
C2A C 0.1105(2) 0.3337(2) -0.0874(2)
C3A C 0.0896(2) 0.2331(3) -0.1464(2)
C4A C 0.0806(3) 0.2373(3) -0.2497(3)
H4A H 0.0653 0.1690 -0.2889
C5A C 0.0943(3) 0.3422(4) -0.2938(3)
H5A H 0.0876 0.3451 -0.3633
C6A C 0.1177(3) 0.4430(3) -0.2365(3)
H6A H 0.1282 0.5138 -0.2666
C7A C 0.1256(2) 0.4393(3) -0.1338(2)
H7A H 0.1412 0.5080 -0.0951
C8A C 0.3659(3) -0.2595(3) -0.0699(3)
C9A C 0.2918(2) -0.1546(3) -0.0829(2)
C10A C 0.3305(2) -0.0407(3) -0.0886(3)
H8A H 0.4054 -0.0285 -0.0869
C11A C 0.2589(3) 0.0547(3) -0.0968(3)
H9A H 0.2853 0.1307 -0.1009
C12A C 0.1479(2) 0.0362(3) -0.0990(2)
C13A C 0.1075(3) -0.0758(3) -0.0945(3)
H10A H 0.0324 -0.0877 -0.0967
C14A C 0.1795(2) -0.1703(3) -0.0866(3)
H11A H 0.1523 -0.2461 -0.0838
Co1_2 Co 0.2500 1.35050(4) 0.2500
N2_2 N 0.2500 0.1621(3) 0.2500
O7 O 0.59825(15) 0.57321(18) 0.95132(16)
H16 H 0.6566 0.5992 0.9377
H17 H 0.6160 0.5096 0.9850
loop_
_geom_bond_atom_site_label_1
_geom_bond_atom_site_label_2
_geom_bond_site_symmetry_1
_geom_bond_site_symmetry_2
Co1 N1 1_555 1_555
N1 C15 1_555 1_555
N2 C18 1_555 1_555
O1 Co1 1_555 1_555
O2 C1 1_555 1_555
O3 C8 1_555 1_555
O4 H1 1_555 1_555
O5 C3 1_555 1_555
O6 Co1 1_555 1_555
H2 O6 1_555 1_555
H3 O6 1_555 1_555
C1 O1 1_555 1_555
C2 C1 1_555 1_555
C3 C2 1_555 1_555
C4 C3 1_555 1_555
H4 C4 1_555 1_555
C5 C4 1_555 1_555
H5 C5 1_555 1_555
C6 C5 1_555 1_555
H6 C6 1_555 1_555
C7 C2 1_555 1_555
H7 C7 1_555 1_555
C8 O4 1_555 1_555
C9 C8 1_555 1_555
C10 C9 1_555 1_555
H8 C10 1_555 1_555
C11 C10 1_555 1_555
H9 C11 1_555 1_555
C12 O5 1_555 1_555
C13 C12 1_555 1_555
H10 C13 1_555 1_555
C14 C9 1_555 1_555
H11 C14 1_555 1_555
C15 H12 1_555 1_555
C16 C15 1_555 1_555
H13 C16 1_555 1_555
C17 C16 1_555 1_555
C18 H14 1_555 1_555
C19 C18 1_555 1_555
H15 C19 1_555 1_555
C20 C17 1_555 1_555
O7 H16 1_555 1_555
H17 O7 1_555 1_555
C15A N1 1_555 1_555
H12A C15A 1_555 1_555
C16A C17 1_555 1_555
H13A C16A 1_555 1_555
C18A N2 1_555 1_555
H14A C18A 1_555 1_555
C19A C20 1_555 1_555
H15A C19A 1_555 1_555
O1A Co1 1_555 1_555
O2A C1A 1_555 1_555
O3A C8A 1_555 1_555
O4A H1A 1_555 1_555
O5A C3A 1_555 1_555
O6A Co1 1_555 1_555
H2A O6A 1_555 1_555
H3A O6A 1_555 1_555
C1A O1A 1_555 1_555
C2A C1A 1_555 1_555
C3A C2A 1_555 1_555
C4A C3A 1_555 1_555
H4A C4A 1_555 1_555
C5A C4A 1_555 1_555
H5A C5A 1_555 1_555
C6A C5A 1_555 1_555
H6A C6A 1_555 1_555
C7A C2A 1_555 1_555
H7A C7A 1_555 1_555
C8A O4A 1_555 1_555
C9A C8A 1_555 1_555
C10A C9A 1_555 1_555
H8A C10A 1_555 1_555
C11A C10A 1_555 1_555
H9A C11A 1_555 1_555
C12A O5A 1_555 1_555
C13A C12A 1_555 1_555
H10A C13A 1_555 1_555
C14A C9A 1_555 1_555
H11A C14A 1_555 1_555
Co1_2 N2 1_555 1_555
N2_2 Co1 1_555 1_555
C6 C7 1_555 1_555
C11 C12 1_555 1_555
C13 C14 1_555 1_555
C19 C20 1_555 1_555
C15A C16A 1_555 1_555
C18A C19A 1_555 1_555
C6A C7A 1_555 1_555
C11A C12A 1_555 1_555
C13A C14A 1_555 1_555

#END
