
#######################################################################
#
#                 Cambridge Crystallographic Data Centre
#                                CCDC 
#
#######################################################################
#
# If this CIF has been generated from an entry in the Cambridge 
# Structural Database, then it will include bibliographic, chemical, 
# crystal, experimental, refinement or atomic coordinate data resulting 
# from the CCDC's data processing and validation procedures.
#
#######################################################################

data_FODVEA
_symmetry_cell_setting           monoclinic
_symmetry_space_group_name_H-M   'C 2/c'
_symmetry_Int_Tables_number      15
_space_group_name_Hall           '-C 2yn'
loop_
_symmetry_equiv_pos_site_id
_symmetry_equiv_pos_as_xyz
1 x,y,z
2 1/2+x,1/2+y,z
3 -x,y,1/2-z
4 1/2-x,1/2+y,1/2-z
5 -x,-y,-z
6 1/2-x,1/2-y,-z
7 x,-y,1/2+z
8 1/2+x,1/2-y,1/2+z
_cell_length_a                   17.7973(17)
_cell_length_b                   12.0677(12)
_cell_length_c                   9.6736(9)
_cell_angle_alpha                90
_cell_angle_beta                 90.408(11)
_cell_angle_gamma                90
_cell_volume                     2077.57
loop_
_atom_site_label
_atom_site_type_symbol
_atom_site_fract_x
_atom_site_fract_y
_atom_site_fract_z
C1 C 1.0000 0.6390(4) 0.7500
H1 H 1.0000 0.7177 0.7500
C2 C 0.9505(2) 0.5831(3) 0.6656(4)
H2 H 0.9166 0.6220 0.6068
C3 C 0.95169(17) 0.4675(2) 0.6688(4)
C4 C 0.90156(17) 0.3944(2) 0.5823(4)
C5 C 0.8458(2) 0.4472(3) 0.4859(4)
H3 H 0.8695 0.5094 0.4380
H4 H 0.8027 0.4742 0.5387
H5 H 0.8286 0.3924 0.4178
C6 C 0.86986(17) 0.2056(3) 0.5255(4)
H6 H 0.8919 0.1952 0.4327
H7 H 0.8171 0.2298 0.5132
C7 C 0.87176(17) 0.0976(2) 0.6028(4)
H8 H 0.8392 0.1017 0.6852
H9 H 0.8536 0.0366 0.5428
C8 C 0.95985(18) -0.0198(2) 0.7247(5)
H10 H 0.9499 -0.0865 0.6679
H11 H 0.9251 -0.0202 0.8041
C9 C 0.84877(16) 0.2268(2) 0.9465(4)
C10 C 0.76633(17) 0.1719(2) 1.1642(4)
N1 N 1.0000 0.4132(3) 0.7500
N2 N 0.91177(13) 0.29029(19) 0.6000(3)
N3 N 0.90957(13) 0.21525(19) 0.9071(3)
N4 N 0.77408(15) 0.1219(2) 1.2652(4)
O1 O 0.94905(11) 0.07815(15) 0.6440(3)
Ni1 Ni 0.7500 0.2500 1.0000
Mn1 Mn 1.0000 0.22894(4) 0.7500
C2B C 1.0495(2) 0.5831(3) 0.8344(4)
H2B H 1.0834 0.6220 0.8932
C3B C 1.04831(17) 0.4675(2) 0.8312(4)
C4B C 1.09844(17) 0.3944(2) 0.9177(4)
C5B C 1.1542(2) 0.4472(3) 1.0141(4)
H3B H 1.1305 0.5094 1.0620
H4B H 1.1973 0.4742 0.9613
H5B H 1.1714 0.3924 1.0822
C6B C 1.13014(17) 0.2056(3) 0.9745(4)
H6B H 1.1081 0.1952 1.0673
H7B H 1.1829 0.2298 0.9868
C7B C 1.12824(17) 0.0976(2) 0.8972(4)
H8B H 1.1608 0.1017 0.8148
H9B H 1.1464 0.0366 0.9572
C8B C 1.04015(18) -0.0198(2) 0.7753(5)
H10B H 1.0501 -0.0865 0.8321
H11B H 1.0749 -0.0202 0.6959
C9E C 0.65123(16) 0.2732(2) 1.0535(4)
C10E C 0.73367(17) 0.3281(2) 0.8358(4)
N2B N 1.08823(13) 0.29029(19) 0.9000(3)
N3E N 0.59043(13) 0.28475(19) 1.0929(3)
N3B N 1.09043(13) 0.21525(19) 0.5929(3)
N4E N 0.72592(15) 0.3781(2) 0.7348(4)
O1B O 1.05095(11) 0.07815(15) 0.8560(3)
Mn1G Mn 0.5000 0.27106(4) 1.2500
loop_
_geom_bond_atom_site_label_1
_geom_bond_atom_site_label_2
_geom_bond_site_symmetry_1
_geom_bond_site_symmetry_2
C1 H1 1_555 1_555
C2 C1 1_555 1_555
H2 C2 1_555 1_555
C3 C2 1_555 1_555
C4 C3 1_555 1_555
C5 C4 1_555 1_555
H3 C5 1_555 1_555
H4 C5 1_555 1_555
H5 C5 1_555 1_555
C6 H6 1_555 1_555
H7 C6 1_555 1_555
C7 C6 1_555 1_555
H8 C7 1_555 1_555
H9 C7 1_555 1_555
C8 H10 1_555 1_555
H11 C8 1_555 1_555
C9 N3 1_555 1_555
C10 N4 1_555 1_555
N1 C3 1_555 1_555
N2 C4 1_555 1_555
N3 Mn1 1_555 1_555
O1 C7 1_555 1_555
Ni1 C9 1_555 1_555
Mn1 N1 1_555 1_555
C2B C1 1_555 1_555
H2B C2B 1_555 1_555
C3B N1 1_555 1_555
C4B C3B 1_555 1_555
C5B C4B 1_555 1_555
H3B C5B 1_555 1_555
H4B C5B 1_555 1_555
H5B C5B 1_555 1_555
C6B H6B 1_555 1_555
H7B C6B 1_555 1_555
C7B C6B 1_555 1_555
H8B C7B 1_555 1_555
H9B C7B 1_555 1_555
C8B C8 1_555 1_555
H10B C8B 1_555 1_555
H11B C8B 1_555 1_555
C9E Ni1 1_555 1_555
C10E Ni1 1_555 1_555
N2B Mn1 1_555 1_555
N3E C9E 1_555 1_555
N3B Mn1 1_555 1_555
N4E C10E 1_555 1_555
O1B Mn1 1_555 1_555
Mn1G N3E 1_555 1_555
C6 N2 1_555 1_555
C8 O1 1_555 1_555
C10 Ni1 1_555 1_555
N2 Mn1 1_555 1_555
O1 Mn1 1_555 1_555
C2B C3B 1_555 1_555
C4B N2B 1_555 1_555
C6B N2B 1_555 1_555
C7B O1B 1_555 1_555
C8B O1B 1_555 1_555

#END
