
#######################################################################
#
#                 Cambridge Crystallographic Data Centre
#                                CCDC 
#
#######################################################################
#
# If this CIF has been generated from an entry in the Cambridge 
# Structural Database, then it will include bibliographic, chemical, 
# crystal, experimental, refinement or atomic coordinate data resulting 
# from the CCDC's data processing and validation procedures.
#
#######################################################################

data_FODWAX
_symmetry_cell_setting           monoclinic
_symmetry_space_group_name_H-M   'P 21/n'
_symmetry_Int_Tables_number      14
_space_group_name_Hall           '-P 2yn'
loop_
_symmetry_equiv_pos_site_id
_symmetry_equiv_pos_as_xyz
1 x,y,z
2 1/2-x,1/2+y,1/2-z
3 -x,-y,-z
4 1/2+x,1/2-y,1/2+z
_cell_length_a                   16.3916(9)
_cell_length_b                   10.5427(3)
_cell_length_c                   41.450(2)
_cell_angle_alpha                90
_cell_angle_beta                 95.248(4)
_cell_angle_gamma                90
_cell_volume                     7133.02
loop_
_atom_site_label
_atom_site_type_symbol
_atom_site_fract_x
_atom_site_fract_y
_atom_site_fract_z
Fe1 Fe 0.07255(2) 0.20338(4) 0.120433(10)
Mn1 Mn 0.19921(3) 0.58726(4) 0.065909(11)
Mn2 Mn -0.03037(3) -0.17328(4) 0.184963(11)
O1 O 0.20169(12) 0.70924(18) 0.11122(5)
O2 O 0.31140(12) 0.52796(18) 0.09945(5)
O3 O -0.04626(12) -0.29415(18) 0.13854(5)
O4 O -0.14767(12) -0.10940(18) 0.15664(5)
O5 O 0.28688(14) 0.7194(2) 0.04704(6)
H1 H 0.341(3) 0.726(4) 0.0530(10)
H2 H 0.275(2) 0.783(3) 0.0402(9)
O6 O -0.11057(15) -0.3107(2) 0.20802(6)
H3 H -0.156(2) -0.319(3) 0.2025(9)
H4 H -0.093(2) -0.381(4) 0.2163(9)
N1 N 0.09989(14) 0.7327(2) 0.05634(6)
N2 N 0.13787(14) 0.5588(2) 0.01664(6)
N3 N 0.25792(15) 0.4234(2) 0.04321(6)
N4 N 0.12070(15) 0.4587(2) 0.09149(6)
N5 N 0.03620(15) -0.0461(2) 0.15460(6)
N6 N -0.01972(17) 0.3017(2) 0.17742(7)
N7 N -0.08843(17) 0.1577(3) 0.07724(7)
N8 N 0.15871(18) 0.1108(3) 0.06160(7)
N9 N 0.24001(17) 0.2071(3) 0.16127(7)
N10 N 0.06659(14) -0.3242(2) 0.18941(6)
N11 N 0.04536(14) -0.1485(2) 0.23129(6)
N12 N -0.08046(14) -0.0117(2) 0.21163(6)
C1 C 0.07837(18) 0.6380(3) 0.00516(8)
C2 C 0.03905(19) 0.6211(3) -0.02562(8)
H5 H -0.0028 0.6777 -0.0340
C3 C 0.0624(2) 0.5193(3) -0.04391(8)
H6 H 0.0355 0.5050 -0.0649
C4 C 0.1240(2) 0.4389(3) -0.03202(8)
H7 H 0.1405 0.3697 -0.0446
C5 C 0.16165(18) 0.4617(3) -0.00099(8)
C6 C 0.23158(18) 0.3856(3) 0.01492(8)
C7 C 0.2643(2) 0.2779(3) -0.00311(9)
H8 H 0.2461 0.2860 -0.0262
H9 H 0.2440 0.1978 0.0051
H10 H 0.3243 0.2788 -0.0001
C8 C 0.3284(2) 0.3649(3) 0.06140(8)
H11 H 0.3796 0.3969 0.0534
H12 H 0.3265 0.2718 0.0583
C9 C 0.32769(19) 0.3958(3) 0.09710(8)
H13 H 0.2847 0.3460 0.1067
H14 H 0.3813 0.3751 0.1089
C10 C 0.3070(2) 0.5712(3) 0.13207(8)
H15 H 0.3613 0.5641 0.1446
H16 H 0.2671 0.5200 0.1430
C11 C 0.28023(19) 0.7075(3) 0.12968(8)
H17 H 0.2759 0.7432 0.1516
H18 H 0.3202 0.7586 0.1187
C12 C 0.17190(18) 0.8344(3) 0.10278(8)
H19 H 0.2108 0.8788 0.0898
H20 H 0.1659 0.8846 0.1226
C13 C 0.08965(18) 0.8196(3) 0.08337(8)
H21 H 0.0490 0.7849 0.0973
H22 H 0.0698 0.9031 0.0750
C14 C 0.06006(18) 0.7412(3) 0.02840(8)
C15 C -0.0007(2) 0.8409(3) 0.01758(10)
H23 H -0.0173 0.8303 -0.0056
H24 H 0.0240 0.9248 0.0214
H25 H -0.0489 0.8330 0.0298
C16 C 0.09848(16) 0.3667(3) 0.10266(7)
C17 C 0.05197(17) 0.0435(3) 0.14030(7)
C18 C 0.01416(18) 0.2702(3) 0.15570(8)
C19 C -0.02940(18) 0.1793(3) 0.09325(8)
C20 C 0.12715(18) 0.1411(3) 0.08404(8)
C21 C 0.17744(18) 0.2084(3) 0.14644(8)
C22 C 0.02426(18) -0.0605(3) 0.25232(8)
C23 C 0.0688(2) -0.0452(3) 0.28211(8)
H26 H 0.0537 0.0170 0.2970
C24 C 0.1353(2) -0.1224(3) 0.28952(8)
H27 H 0.1662 -0.1138 0.3099
C25 C 0.1581(2) -0.2127(3) 0.26767(8)
H28 H 0.2046 -0.2653 0.2726
C26 C 0.11047(17) -0.2235(3) 0.23828(8)
C27 C 0.12370(18) -0.3183(3) 0.21241(8)
C28 C 0.2002(2) -0.3968(3) 0.21555(9)
H29 H 0.2293 -0.3833 0.2370
H30 H 0.2355 -0.3717 0.1988
H31 H 0.1858 -0.4866 0.2129
C29 C 0.06817(18) -0.4108(3) 0.16192(8)
H32 H 0.0881 -0.4953 0.1695
H33 H 0.1053 -0.3778 0.1464
C30 C -0.01838(18) -0.4209(3) 0.14579(8)
H34 H -0.0190 -0.4715 0.1257
H35 H -0.0544 -0.4627 0.1605
C31 C -0.12943(18) -0.2874(3) 0.12396(8)
H36 H -0.1661 -0.3379 0.1367
H37 H -0.1330 -0.3212 0.1016
C32 C -0.15392(18) -0.1497(3) 0.12371(8)
H38 H -0.1170 -0.0990 0.1112
H39 H -0.2108 -0.1394 0.1138
C33 C -0.16161(18) 0.0246(3) 0.16059(8)
H40 H -0.2170 0.0479 0.1509
H41 H -0.1207 0.0743 0.1498
C34 C -0.15368(18) 0.0515(3) 0.19661(8)
H42 H -0.1495 0.1441 0.2004
H43 H -0.2028 0.0201 0.2063
C35 C -0.04969(18) 0.0155(3) 0.24009(8)
C36 C -0.0811(2) 0.1151(4) 0.26145(10)
H44 H -0.0757 0.0855 0.2840
H45 H -0.1389 0.1320 0.2546
H46 H -0.0493 0.1932 0.2598
Fe2 Fe 0.58329(2) 0.71626(4) 0.130003(10)
Mn3 Mn 0.59238(3) 0.22140(4) 0.129421(11)
O7 O 0.56294(13) 0.20909(19) 0.18177(5)
O8 O 0.70826(12) 0.27861(18) 0.16103(5)
N13 N 0.46846(14) 0.1323(2) 0.12951(6)
N14 N 0.54334(15) 0.1864(2) 0.07884(6)
N15 N 0.68540(15) 0.2836(2) 0.09623(7)
N16 N 0.55198(15) 0.4264(2) 0.13150(6)
N17 N 0.62639(14) 1.0033(2) 0.13040(6)
N18 N 0.70611(17) 0.6429(3) 0.08062(7)
N19 N 0.45157(17) 0.7780(3) 0.17641(7)
N20 N 0.71989(16) 0.6877(2) 0.18629(7)
N21 N 0.45335(17) 0.7476(3) 0.07142(8)
C37 C 0.47238(18) 0.1254(3) 0.07296(8)
C38 C 0.4413(2) 0.0976(3) 0.04145(9)
H47 H 0.3917 0.0512 0.0374
C39 C 0.4838(2) 0.1387(3) 0.01622(9)
H48 H 0.4624 0.1240 -0.0055
C40 C 0.5571(2) 0.2011(3) 0.02248(8)
H49 H 0.5871 0.2288 0.0052
C41 C 0.5868(2) 0.2228(3) 0.05454(8)
C42 C 0.6682(2) 0.2808(3) 0.06561(8)
C43 C 0.7219(2) 0.3289(4) 0.04110(10)
H50 H 0.6942 0.3176 0.0193
H51 H 0.7735 0.2814 0.0429
H52 H 0.7333 0.4191 0.0450
C44 C 0.76370(18) 0.3317(3) 0.11125(9)
H53 H 0.7821 0.4040 0.0985
H54 H 0.8058 0.2642 0.1115
C45 C 0.75374(18) 0.3739(3) 0.14539(8)
H55 H 0.8082 0.3857 0.1574
H56 H 0.7241 0.4558 0.1451
C46 C 0.6891(2) 0.3149(3) 0.19287(8)
H57 H 0.6611 0.3982 0.1921
H58 H 0.7399 0.3217 0.2076
C47 C 0.6343(2) 0.2150(3) 0.20464(8)
H59 H 0.6627 0.1320 0.2059
H60 H 0.6186 0.2371 0.2264
C48 C 0.50900(19) 0.1055(3) 0.18695(8)
H61 H 0.4890 0.1118 0.2087
H62 H 0.5382 0.0238 0.1855
C49 C 0.43805(19) 0.1122(3) 0.16120(8)
H63 H 0.4063 0.0323 0.1610
H64 H 0.4013 0.1828 0.1660
C50 C 0.43093(18) 0.0943(3) 0.10272(8)
C51 C 0.35189(19) 0.0238(3) 0.09914(9)
H65 H 0.3575 -0.0511 0.0855
H66 H 0.3088 0.0790 0.0890
H67 H 0.3374 -0.0028 0.1205
C52 C 0.55984(17) 0.5349(3) 0.13133(8)
C53 C 0.61093(17) 0.8964(3) 0.12981(7)
C54 C 0.66173(18) 0.6718(3) 0.09943(8)
C55 C 0.50093(18) 0.7552(3) 0.15942(8)
C56 C 0.66835(18) 0.6969(3) 0.16570(8)
C57 C 0.50141(18) 0.7381(3) 0.09322(8)
Mn3_2 Mn 0.59238(3) 1.22140(4) 0.129421(11)
N17_2 N 0.62639(14) 0.0033(2) 0.13040(6)
O9 O 0.11973(18) 0.1709(3) 0.22654(7)
H68 H 0.098(3) 0.204(5) 0.2100(14)
H69 H 0.157(4) 0.107(6) 0.2213(14)
O10 O 0.11073(17) 0.3800(3) 0.26788(7)
H70 H 0.095(2) 0.340(4) 0.2835(11)
H71 H 0.121(3) 0.306(5) 0.2552(14)
O11 O 0.26493(17) 0.4834(3) 0.29397(7)
H72 H 0.2611 0.5222 0.3062
H73 H 0.2136 0.4429 0.2849
O12 O 0.24437(17) 0.9462(2) 0.02266(8)
H74 H 0.219(2) 0.991(4) 0.0342(10)
H75 H 0.228(3) 0.958(4) 0.0047(12)
O13 O 0.65300(17) 0.9247(2) 0.05581(7)
H76 H 0.6627 0.8370 0.0644
H77 H 0.6247 0.9499 0.0764
O14 O 0.8080(2) 0.9928(3) 0.03939(7)
H78 H 0.761(2) 1.001(3) 0.0495(9)
H79 H 0.831(5) 1.059(8) 0.054(2)
O15 O 0.54607(16) 0.9531(2) 0.26735(7)
H80 H 0.503(3) 0.939(4) 0.2559(11)
H81 H 0.544(3) 0.902(5) 0.2855(13)
O16 O 0.80443(19) 0.4061(3) 0.26391(8)
H82 H 0.807(3) 0.344(5) 0.2792(13)
H83 H 0.856(4) 0.406(7) 0.2577(17)
O17 O 0.5478(4) 0.5388(7) 0.03096(19)
H84 H 0.5023 0.5013 0.0292
H85 H 0.5636 0.5413 0.0147
loop_
_geom_bond_atom_site_label_1
_geom_bond_atom_site_label_2
_geom_bond_site_symmetry_1
_geom_bond_site_symmetry_2
Fe1 C16 1_555 1_555
Mn1 O1 1_555 1_555
Mn2 O3 1_555 1_555
O1 C11 1_555 1_555
O2 Mn1 1_555 1_555
O3 C30 1_555 1_555
O4 Mn2 1_555 1_555
O5 Mn1 1_555 1_555
H1 O5 1_555 1_555
H2 O5 1_555 1_555
O6 Mn2 1_555 1_555
H3 O6 1_555 1_555
H4 O6 1_555 1_555
N1 Mn1 1_555 1_555
N2 Mn1 1_555 1_555
N3 Mn1 1_555 1_555
N4 Mn1 1_555 1_555
N5 Mn2 1_555 1_555
N6 C18 1_555 1_555
N7 C19 1_555 1_555
N8 C20 1_555 1_555
N9 C21 1_555 1_555
N10 Mn2 1_555 1_555
N11 Mn2 1_555 1_555
N12 Mn2 1_555 1_555
C1 N2 1_555 1_555
C2 C1 1_555 1_555
H5 C2 1_555 1_555
C3 C2 1_555 1_555
H6 C3 1_555 1_555
C4 C3 1_555 1_555
H7 C4 1_555 1_555
C5 N2 1_555 1_555
C6 N3 1_555 1_555
C7 C6 1_555 1_555
H8 C7 1_555 1_555
H9 C7 1_555 1_555
H10 C7 1_555 1_555
C8 N3 1_555 1_555
H11 C8 1_555 1_555
H12 C8 1_555 1_555
C9 O2 1_555 1_555
H13 C9 1_555 1_555
H14 C9 1_555 1_555
C10 O2 1_555 1_555
H15 C10 1_555 1_555
H16 C10 1_555 1_555
C11 C10 1_555 1_555
H17 C11 1_555 1_555
H18 C11 1_555 1_555
C12 O1 1_555 1_555
H19 C12 1_555 1_555
H20 C12 1_555 1_555
C13 N1 1_555 1_555
H21 C13 1_555 1_555
H22 C13 1_555 1_555
C14 N1 1_555 1_555
C15 C14 1_555 1_555
H23 C15 1_555 1_555
H24 C15 1_555 1_555
H25 C15 1_555 1_555
C16 N4 1_555 1_555
C17 Fe1 1_555 1_555
C18 Fe1 1_555 1_555
C19 Fe1 1_555 1_555
C20 Fe1 1_555 1_555
C21 Fe1 1_555 1_555
C22 N11 1_555 1_555
C23 C22 1_555 1_555
H26 C23 1_555 1_555
C24 C23 1_555 1_555
H27 C24 1_555 1_555
C25 C24 1_555 1_555
H28 C25 1_555 1_555
C26 N11 1_555 1_555
C27 N10 1_555 1_555
C28 C27 1_555 1_555
H29 C28 1_555 1_555
H30 C28 1_555 1_555
H31 C28 1_555 1_555
C29 N10 1_555 1_555
H32 C29 1_555 1_555
H33 C29 1_555 1_555
C30 C29 1_555 1_555
H34 C30 1_555 1_555
H35 C30 1_555 1_555
C31 O3 1_555 1_555
H36 C31 1_555 1_555
H37 C31 1_555 1_555
C32 O4 1_555 1_555
H38 C32 1_555 1_555
H39 C32 1_555 1_555
C33 O4 1_555 1_555
H40 C33 1_555 1_555
H41 C33 1_555 1_555
C34 N12 1_555 1_555
H42 C34 1_555 1_555
H43 C34 1_555 1_555
C35 N12 1_555 1_555
C36 C35 1_555 1_555
H44 C36 1_555 1_555
H45 C36 1_555 1_555
H46 C36 1_555 1_555
Fe2 C52 1_555 1_555
Mn3 O7 1_555 1_555
O7 C47 1_555 1_555
O8 Mn3 1_555 1_555
N13 Mn3 1_555 1_555
N14 Mn3 1_555 1_555
N15 Mn3 1_555 1_555
N16 Mn3 1_555 1_555
N17 C53 1_555 1_555
N18 C54 1_555 1_555
N19 C55 1_555 1_555
N20 C56 1_555 1_555
N21 C57 1_555 1_555
C37 N14 1_555 1_555
C38 C37 1_555 1_555
H47 C38 1_555 1_555
C39 C38 1_555 1_555
H48 C39 1_555 1_555
C40 C39 1_555 1_555
H49 C40 1_555 1_555
C41 N14 1_555 1_555
C42 N15 1_555 1_555
C43 C42 1_555 1_555
H50 C43 1_555 1_555
H51 C43 1_555 1_555
H52 C43 1_555 1_555
C44 N15 1_555 1_555
H53 C44 1_555 1_555
H54 C44 1_555 1_555
C45 O8 1_555 1_555
H55 C45 1_555 1_555
H56 C45 1_555 1_555
C46 O8 1_555 1_555
H57 C46 1_555 1_555
H58 C46 1_555 1_555
C47 C46 1_555 1_555
H59 C47 1_555 1_555
H60 C47 1_555 1_555
C48 O7 1_555 1_555
H61 C48 1_555 1_555
H62 C48 1_555 1_555
C49 N13 1_555 1_555
H63 C49 1_555 1_555
H64 C49 1_555 1_555
C50 N13 1_555 1_555
C51 C50 1_555 1_555
H65 C51 1_555 1_555
H66 C51 1_555 1_555
H67 C51 1_555 1_555
C52 N16 1_555 1_555
C53 Fe2 1_555 1_555
C54 Fe2 1_555 1_555
C55 Fe2 1_555 1_555
C56 Fe2 1_555 1_555
C57 Fe2 1_555 1_555
O9 H68 1_555 1_555
H69 O9 1_555 1_555
O10 H70 1_555 1_555
H71 O10 1_555 1_555
O11 H72 1_555 1_555
H73 O11 1_555 1_555
O12 H74 1_555 1_555
H75 O12 1_555 1_555
O13 H76 1_555 1_555
H77 O13 1_555 1_555
O14 H78 1_555 1_555
H79 O14 1_555 1_555
O15 H80 1_555 1_555
H81 O15 1_555 1_555
O16 H82 1_555 1_555
H83 O16 1_555 1_555
O17 H84 1_555 1_555
H85 O17 1_555 1_555
Mn3_2 N17 1_555 1_555
N17_2 Mn3 1_555 1_555
N5 C17 1_555 1_555
C1 C14 1_555 1_555
C4 C5 1_555 1_555
C5 C6 1_555 1_555
C8 C9 1_555 1_555
C12 C13 1_555 1_555
C22 C35 1_555 1_555
C25 C26 1_555 1_555
C26 C27 1_555 1_555
C31 C32 1_555 1_555
C33 C34 1_555 1_555
C37 C50 1_555 1_555
C40 C41 1_555 1_555
C41 C42 1_555 1_555
C44 C45 1_555 1_555
C48 C49 1_555 1_555

#END
