
#######################################################################
#
#                 Cambridge Crystallographic Data Centre
#                                CCDC 
#
#######################################################################
#
# If this CIF has been generated from an entry in the Cambridge 
# Structural Database, then it will include bibliographic, chemical, 
# crystal, experimental, refinement or atomic coordinate data resulting 
# from the CCDC's data processing and validation procedures.
#
#######################################################################

data_FODXAY
_symmetry_cell_setting           orthorhombic
_symmetry_space_group_name_H-M   'P 21 21 21'
_symmetry_Int_Tables_number      19
_space_group_name_Hall           'P 2ac 2ab'
loop_
_symmetry_equiv_pos_site_id
_symmetry_equiv_pos_as_xyz
1 x,y,z
2 1/2-x,-y,1/2+z
3 -x,1/2+y,1/2-z
4 1/2+x,1/2-y,-z
_cell_length_a                   15.565(2)
_cell_length_b                   20.999(3)
_cell_length_c                   28.131(4)
_cell_angle_alpha                90
_cell_angle_beta                 90
_cell_angle_gamma                90
_cell_volume                     9194.6
loop_
_atom_site_label
_atom_site_type_symbol
_atom_site_fract_x
_atom_site_fract_y
_atom_site_fract_z
Ag1 Ag 0.84735(4) 0.61241(2) 0.12944(2)
Ag2 Ag 0.34538(4) 0.37350(3) 0.13544(2)
Ag3 Ag 1.17467(4) 0.64210(2) 0.38190(2)
Ag4 Ag 0.67814(3) 0.37824(3) 0.38159(2)
C1 C 1.1363(5) 0.7724(4) 0.1188(3)
H1 H 1.1460 0.8139 0.1031
H2 H 1.1118 0.7802 0.1508
C2 C 1.0756(5) 0.7315(3) 0.0894(3)
C3 C 1.0118(5) 0.6968(3) 0.1119(3)
H3 H 1.0075 0.6988 0.1456
C4 C 0.9634(6) 0.6571(4) 0.0405(3)
H4 H 0.9237 0.6319 0.0231
C5 C 1.0272(6) 0.6893(4) 0.0162(3)
H5 H 1.0332 0.6844 -0.0172
C6 C 1.0807(6) 0.7278(4) 0.0406(3)
H6 H 1.1221 0.7526 0.0240
C7 C 0.7298(6) 0.7368(4) 0.1249(3)
H7 H 0.7216 0.7226 0.0932
C8 C 0.6797(7) 0.7887(4) 0.1414(3)
H8 H 0.6375 0.8078 0.1216
C9 C 0.6935(6) 0.8103(4) 0.1863(3)
H9 H 0.6606 0.8449 0.1984
C10 C 0.7565(5) 0.7814(3) 0.2149(3)
C11 C 0.8004(5) 0.7300(4) 0.1948(3)
H10 H 0.8431 0.7096 0.2135
C12 C 0.9068(5) 0.4487(4) 0.1395(3)
C13 C 0.9073(5) 0.3874(4) 0.1587(3)
H11 H 0.8632 0.3757 0.1803
C14 C 0.9679(5) 0.3442(4) 0.1476(3)
H12 H 0.9655 0.3022 0.1599
C15 C 1.0372(6) 0.3638(4) 0.1163(3)
H13 H 1.0838 0.3359 0.1099
C16 C 1.0343(6) 0.4218(4) 0.0966(3)
H14 H 1.0767 0.4329 0.0738
C17 C 0.9723(5) 0.4663(3) 0.1080(3)
H15 H 0.9741 0.5079 0.0949
C18 C 0.7894(5) 0.5477(3) 0.2427(3)
H16 H 0.7267 0.5526 0.2378
H17 H 0.8175 0.5891 0.2360
C19 C 0.6602(5) 0.5046(4) 0.1384(3)
H18 H 0.6674 0.5495 0.1285
H19 H 0.6392 0.5040 0.1716
C20 C 0.5976(5) 0.4715(3) 0.1064(3)
C21 C 0.5217(5) 0.4471(3) 0.1254(3)
H20 H 0.5129 0.4505 0.1588
C22 C 0.4751(5) 0.4130(4) 0.0516(3)
H21 H 0.4324 0.3938 0.0323
C23 C 0.5506(5) 0.4340(4) 0.0307(3)
H22 H 0.5602 0.4277 -0.0023
C24 C 0.6121(5) 0.4644(4) 0.0586(3)
H23 H 0.6636 0.4801 0.0447
C25 C 0.2241(5) 0.4964(4) 0.1416(3)
H24 H 0.2138 0.4837 0.1097
C26 C 0.1786(6) 0.5472(4) 0.1589(3)
H25 H 0.1378 0.5686 0.1395
C27 C 0.1931(5) 0.5667(4) 0.2050(3)
H26 H 0.1628 0.6018 0.2180
C28 C 0.2544(5) 0.5332(3) 0.2324(3)
C29 C 0.2954(5) 0.4822(4) 0.2116(3)
H27 H 0.3357 0.4587 0.2300
C30 C 0.6214(5) 0.7028(4) 0.3579(3)
C31 C 0.6216(6) 0.6476(4) 0.3294(3)
H28 H 0.6638 0.6425 0.3053
C32 C 0.5608(6) 0.6014(4) 0.3364(4)
H29 H 0.5619 0.5640 0.3173
C33 C 0.4994(7) 0.6083(4) 0.3699(4)
H30 H 0.4552 0.5773 0.3728
C34 C 0.5007(7) 0.6608(5) 0.4004(4)
H31 H 0.4601 0.6642 0.4255
C35 C 0.5626(6) 0.7084(4) 0.3936(3)
H32 H 0.5635 0.7446 0.4139
C36 C 0.7678(6) 0.7979(4) 0.2656(3)
H33 H 0.8292 0.7951 0.2745
H34 H 0.7477 0.8419 0.2715
C37 C 0.8214(5) 0.6897(3) 0.3761(3)
H35 H 0.8378 0.6784 0.3432
H36 H 0.7816 0.6568 0.3884
C38 C 0.9006(5) 0.6944(4) 0.4076(3)
C39 C 0.9793(5) 0.6775(3) 0.3908(3)
H37 H 0.9825 0.6619 0.3591
C40 C 1.0463(5) 0.7044(4) 0.4597(3)
H38 H 1.0969 0.7072 0.4784
C41 C 0.9692(5) 0.7249(4) 0.4798(3)
H39 H 0.9678 0.7419 0.5111
C42 C 0.8952(5) 0.7199(4) 0.4533(3)
H40 H 0.8416 0.7335 0.4658
C43 C 1.3133(6) 0.7544(4) 0.3726(3)
H41 H 1.3256 0.7422 0.4044
C44 C 1.3634(7) 0.7994(5) 0.3518(4)
H42 H 1.4097 0.8178 0.3690
C45 C 1.3474(6) 0.8184(4) 0.3062(4)
H43 H 1.3824 0.8498 0.2914
C46 C 1.2790(5) 0.7911(4) 0.2819(3)
C47 C 1.2325(5) 0.7454(4) 0.3049(3)
H44 H 1.1869 0.7256 0.2880
C48 C 0.1408(5) 0.4729(3) 0.3909(3)
C49 C 0.1263(5) 0.4146(4) 0.3686(3)
H45 H 0.1555 0.4050 0.3399
C50 C 0.0704(5) 0.3707(4) 0.3877(3)
H46 H 0.0594 0.3320 0.3712
C51 C 0.0297(5) 0.3825(4) 0.4308(3)
H47 H -0.0066 0.3514 0.4449
C52 C 0.0433(6) 0.4407(4) 0.4529(3)
H48 H 0.0146 0.4496 0.4820
C53 C 0.0977(5) 0.4858(4) 0.4336(3)
H49 H 0.1059 0.5254 0.4493
C54 C 0.2731(5) 0.5510(4) 0.2832(3)
H50 H 0.3351 0.5456 0.2898
H51 H 0.2579 0.5962 0.2886
C55 C 0.3339(5) 0.4571(4) 0.4029(3)
H52 H 0.3359 0.4331 0.3726
H53 H 0.2957 0.4342 0.4253
C56 C 0.4234(5) 0.4636(4) 0.4237(3)
C57 C 0.4908(5) 0.4294(3) 0.4032(3)
H54 H 0.4783 0.4016 0.3774
C58 C 0.5898(5) 0.4748(4) 0.4534(3)
H55 H 0.6479 0.4810 0.4627
C59 C 0.5248(6) 0.5089(4) 0.4770(3)
H56 H 0.5382 0.5351 0.5035
C60 C 0.4406(5) 0.5035(4) 0.4611(3)
H57 H 0.3958 0.5271 0.4757
C61 C 0.8357(5) 0.4796(3) 0.3819(3)
H58 H 0.8471 0.4621 0.4125
C62 C 0.8933(6) 0.5211(4) 0.3624(3)
H59 H 0.9418 0.5347 0.3802
C63 C 0.8810(5) 0.5431(4) 0.3170(3)
H60 H 0.9232 0.5693 0.3024
C64 C 0.8078(5) 0.5272(3) 0.2926(3)
C65 C 0.7499(5) 0.4868(3) 0.3154(3)
H61 H 0.6985 0.4758 0.2992
C66 C 1.3791(5) 0.7133(3) 0.1245(3)
C67 C 1.3688(6) 0.6498(4) 0.1344(4)
H62 H 1.3207 0.6361 0.1525
C68 C 1.4280(7) 0.6050(4) 0.1181(4)
H63 H 1.4227 0.5613 0.1263
C69 C 1.4924(6) 0.6254(4) 0.0907(3)
H64 H 1.5301 0.5948 0.0771
C70 C 1.5060(6) 0.6869(5) 0.0818(4)
H65 H 1.5552 0.7001 0.0645
C71 C 1.4484(6) 0.7306(4) 0.0979(4)
H66 H 1.4567 0.7742 0.0904
C72 C 1.2598(6) 0.8080(4) 0.2306(3)
H67 H 1.1970 0.8088 0.2253
H68 H 1.2831 0.8508 0.2232
N1 N 0.9558(4) 0.6604(3) 0.0879(2)
N2 N 0.7867(5) 0.7077(3) 0.1511(2)
N3 N 0.4604(4) 0.4191(3) 0.0991(2)
N4 N 0.2807(4) 0.4641(3) 0.1660(2)
N5 N 1.0535(4) 0.6810(3) 0.4157(2)
N6 N 1.2473(4) 0.7265(3) 0.3501(2)
N7 N 0.5722(4) 0.4340(3) 0.4181(2)
N8 N 0.7627(4) 0.4626(3) 0.3590(2)
O1 O 1.2167(3) 0.7372(2) 0.1225(2)
O2 O 0.7417(3) 0.4709(2) 0.13496(19)
O3 O 0.8237(4) 0.4980(2) 0.21129(18)
O4 O 0.7809(3) 0.7525(2) 0.3774(2)
O5 O 0.7181(4) 0.7535(2) 0.29315(19)
O6 O 0.3023(3) 0.5216(2) 0.39483(18)
O7 O 0.2226(3) 0.5100(2) 0.31524(19)
O8 O 1.2999(3) 0.7601(2) 0.19964(19)
P1 P 0.82643(13) 0.50763(9) 0.15482(7)
P2 P 0.69563(13) 0.76814(9) 0.34817(7)
P3 P 0.21200(12) 0.53440(9) 0.36917(7)
P4 P 1.30051(13) 0.77248(9) 0.14322(8)
Ag2B Ag 0.65462(4) 0.87350(3) 0.36456(2)
Ag3_2 Ag 0.17467(4) 0.64210(2) 0.38190(2)
Ag4B Ag 1.32186(3) 0.87824(3) 0.11841(2)
P2B P 0.30437(13) 0.26814(9) 0.15183(7)
P3_2 P 1.21200(12) 0.53440(9) 0.36917(7)
P4B P 0.69949(13) 0.27248(9) 0.35678(8)
B1 B 0.4838(7) 0.3324(5) 0.7525(4)
F1 F 0.4375(3) 0.3672(2) 0.78631(17)
F2 F 0.5231(3) 0.3727(2) 0.72092(17)
F3 F 0.5465(3) 0.2959(3) 0.77630(18)
F4 F 0.4273(3) 0.2929(2) 0.72776(18)
B2 B 0.7414(6) 0.1448(4) 0.9945(3)
F5 F 0.7807(7) 0.2036(6) 0.9829(4)
F6 F 0.6560(7) 0.1455(5) 1.0099(4)
F7 F 0.7352(7) 0.1166(5) 0.9484(4)
F8 F 0.7966(13) 0.1070(9) 1.0208(8)
B3 B 1.0000(6) 0.5860(5) 0.7693(4)
F9 F 0.9624(4) 0.6295(3) 0.79874(18)
F10 F 1.0601(3) 0.5502(2) 0.79489(17)
F11 F 0.9373(3) 0.5449(3) 0.7501(2)
F12 F 1.0407(3) 0.6166(2) 0.73170(16)
B4 B 0.7791(6) 0.3766(5) 0.5087(3)
F13 F 0.7483(9) 0.3117(6) 0.5070(4)
F14 F 0.8668(8) 0.3721(7) 0.5155(4)
F15 F 0.7648(9) 0.4007(7) 0.4644(4)
F16 F 0.7290(9) 0.4158(7) 0.5376(5)
C73 C 0.7095(9) 0.1613(8) 0.4913(5)
H69 H 0.7252 0.1728 0.5239
H70 H 0.6495 0.1474 0.4905
H71 H 0.7168 0.1984 0.4705
C74 C 0.7654(12) 0.1092(8) 0.4746(6)
N9 N 0.8126(12) 0.0688(7) 0.4609(5)
C75 C 0.3180(9) 0.1489(5) 0.9589(5)
H72 H 0.2940 0.1286 0.9305
H73 H 0.3807 0.1451 0.9585
H74 H 0.3018 0.1940 0.9594
C76 C 0.2844(7) 0.1176(5) 1.0011(4)
N10 N 0.2528(7) 0.0926(5) 1.0314(3)
C77 C 0.9971(7) 0.2817(5) 0.7381(4)
H75 H 0.9851 0.2770 0.7722
H76 H 1.0566 0.2957 0.7337
H77 H 0.9886 0.2407 0.7222
C78 C 0.9377(6) 0.3299(5) 0.7174(4)
N11 N 0.8904(6) 0.3648(4) 0.7029(3)
C79 C 0.5389(6) 0.0423(5) 0.7520(4)
H78 H 0.5031 0.0077 0.7644
H79 H 0.5717 0.0614 0.7781
H80 H 0.5787 0.0254 0.7281
C80 C 0.4846(6) 0.0904(5) 0.7303(4)
N12 N 0.4403(6) 0.1258(4) 0.7113(3)
B5? B 0.7414(6) 0.1448(4) 0.9945(3)
B6? B 0.7791(6) 0.3766(5) 0.5087(3)
F17? F 0.7322(7) 0.1918(6) 1.0306(4)
F18? F 0.6574(7) 0.1275(6) 0.9815(4)
F19? F 0.7896(8) 0.1715(6) 0.9602(4)
F20? F 0.7843(14) 0.0957(10) 1.0160(8)
F21? F 0.7900(9) 0.3142(6) 0.5247(5)
F22? F 0.8655(8) 0.3992(7) 0.4972(4)
F23? F 0.7366(9) 0.3759(7) 0.4683(5)
F24? F 0.7495(10) 0.4027(8) 0.5488(5)
loop_
_geom_bond_atom_site_label_1
_geom_bond_atom_site_label_2
_geom_bond_site_symmetry_1
_geom_bond_site_symmetry_2
Ag1 N1 1_555 1_555
Ag2 N3 1_555 1_555
Ag3 N5 1_555 1_555
Ag4 N7 1_555 1_555
B1 F1 1_555 1_555
B2 F5 1_555 1_555
B3 F9 1_555 1_555
B4 F13 1_555 1_555
C1 H1 1_555 1_555
H2 C1 1_555 1_555
C2 C1 1_555 1_555
C3 C2 1_555 1_555
H3 C3 1_555 1_555
C4 H4 1_555 1_555
C5 C4 1_555 1_555
H5 C5 1_555 1_555
C6 C2 1_555 1_555
H6 C6 1_555 1_555
C7 H7 1_555 1_555
C8 C7 1_555 1_555
H8 C8 1_555 1_555
C9 C8 1_555 1_555
H9 C9 1_555 1_555
C10 C9 1_555 1_555
C11 C10 1_555 1_555
H10 C11 1_555 1_555
C12 C13 1_555 1_555
C13 H11 1_555 1_555
C14 C13 1_555 1_555
H12 C14 1_555 1_555
C15 C14 1_555 1_555
H13 C15 1_555 1_555
C16 C15 1_555 1_555
H14 C16 1_555 1_555
C17 C12 1_555 1_555
H15 C17 1_555 1_555
C18 H16 1_555 1_555
H17 C18 1_555 1_555
C19 H18 1_555 1_555
H19 C19 1_555 1_555
C20 C19 1_555 1_555
C21 C20 1_555 1_555
H20 C21 1_555 1_555
C22 H21 1_555 1_555
C23 C22 1_555 1_555
H22 C23 1_555 1_555
C24 C20 1_555 1_555
H23 C24 1_555 1_555
C25 H24 1_555 1_555
C26 C25 1_555 1_555
H25 C26 1_555 1_555
C27 C26 1_555 1_555
H26 C27 1_555 1_555
C28 C27 1_555 1_555
C29 C28 1_555 1_555
H27 C29 1_555 1_555
C30 C31 1_555 1_555
C31 H28 1_555 1_555
C32 C31 1_555 1_555
H29 C32 1_555 1_555
C33 C32 1_555 1_555
H30 C33 1_555 1_555
C34 C33 1_555 1_555
H31 C34 1_555 1_555
C35 C30 1_555 1_555
H32 C35 1_555 1_555
C36 C10 1_555 1_555
H33 C36 1_555 1_555
H34 C36 1_555 1_555
C37 H35 1_555 1_555
H36 C37 1_555 1_555
C38 C37 1_555 1_555
C39 C38 1_555 1_555
H37 C39 1_555 1_555
C40 H38 1_555 1_555
C41 C40 1_555 1_555
H39 C41 1_555 1_555
C42 C38 1_555 1_555
H40 C42 1_555 1_555
C43 H41 1_555 1_555
C44 C43 1_555 1_555
H42 C44 1_555 1_555
C45 C44 1_555 1_555
H43 C45 1_555 1_555
C46 C45 1_555 1_555
C47 C46 1_555 1_555
H44 C47 1_555 1_555
C48 C49 1_555 1_555
C49 H45 1_555 1_555
C50 C49 1_555 1_555
H46 C50 1_555 1_555
C51 C50 1_555 1_555
H47 C51 1_555 1_555
C52 C51 1_555 1_555
H48 C52 1_555 1_555
C53 C48 1_555 1_555
H49 C53 1_555 1_555
C54 C28 1_555 1_555
H50 C54 1_555 1_555
H51 C54 1_555 1_555
C55 H52 1_555 1_555
H53 C55 1_555 1_555
C56 C55 1_555 1_555
C57 C56 1_555 1_555
H54 C57 1_555 1_555
C58 H55 1_555 1_555
C59 C58 1_555 1_555
H56 C59 1_555 1_555
C60 C56 1_555 1_555
H57 C60 1_555 1_555
C61 H58 1_555 1_555
C62 C61 1_555 1_555
H59 C62 1_555 1_555
C63 C62 1_555 1_555
H60 C63 1_555 1_555
C64 C18 1_555 1_555
C65 C64 1_555 1_555
H61 C65 1_555 1_555
C66 C67 1_555 1_555
C67 H62 1_555 1_555
C68 C67 1_555 1_555
H63 C68 1_555 1_555
C69 C68 1_555 1_555
H64 C69 1_555 1_555
C70 C69 1_555 1_555
H65 C70 1_555 1_555
C71 C66 1_555 1_555
H66 C71 1_555 1_555
C72 C46 1_555 1_555
H67 C72 1_555 1_555
H68 C72 1_555 1_555
C73 H69 1_555 1_555
H70 C73 1_555 1_555
H71 C73 1_555 1_555
C74 C73 1_555 1_555
C75 H72 1_555 1_555
H73 C75 1_555 1_555
H74 C75 1_555 1_555
C76 C75 1_555 1_555
C77 H75 1_555 1_555
H76 C77 1_555 1_555
H77 C77 1_555 1_555
C78 C77 1_555 1_555
C79 H78 1_555 1_555
H79 C79 1_555 1_555
H80 C79 1_555 1_555
C80 C79 1_555 1_555
F2 B1 1_555 1_555
F3 B1 1_555 1_555
F4 B1 1_555 1_555
F6 B2 1_555 1_555
F7 B2 1_555 1_555
F8 B2 1_555 1_555
F10 B3 1_555 1_555
F11 B3 1_555 1_555
F12 B3 1_555 1_555
F14 B4 1_555 1_555
F15 B4 1_555 1_555
F16 B4 1_555 1_555
N1 C3 1_555 1_555
N2 Ag1 1_555 1_555
N3 C21 1_555 1_555
N4 Ag2 1_555 1_555
N5 C39 1_555 1_555
N6 Ag3 1_555 1_555
N7 C57 1_555 1_555
N8 Ag4 1_555 1_555
N9 C74 1_555 1_555
N10 C76 1_555 1_555
N11 C78 1_555 1_555
N12 C80 1_555 1_555
O1 C1 1_555 1_555
O2 C19 1_555 1_555
O3 C18 1_555 1_555
O4 C37 1_555 1_555
O5 C36 1_555 1_555
O6 C55 1_555 1_555
O7 C54 1_555 1_555
O8 C72 1_555 1_555
P1 Ag1 1_555 1_555
P2 C30 1_555 1_555
P3 C48 1_555 1_555
P4 C66 1_555 1_555
Ag2B P2 1_555 1_555
Ag3_2 P3 1_555 1_555
Ag4B P4 1_555 1_555
P2B Ag2 1_555 1_555
P3_2 Ag3 1_555 1_555
P4B Ag4 1_555 1_555
C4 N1 1_555 1_555
C5 C6 1_555 1_555
C7 N2 1_555 1_555
C11 N2 1_555 1_555
C12 P1 1_555 1_555
C16 C17 1_555 1_555
C22 N3 1_555 1_555
C23 C24 1_555 1_555
C25 N4 1_555 1_555
C29 N4 1_555 1_555
C34 C35 1_555 1_555
C40 N5 1_555 1_555
C41 C42 1_555 1_555
C43 N6 1_555 1_555
C47 N6 1_555 1_555
C52 C53 1_555 1_555
C58 N7 1_555 1_555
C59 C60 1_555 1_555
C61 N8 1_555 1_555
C63 C64 1_555 1_555
C65 N8 1_555 1_555
C70 C71 1_555 1_555
O1 P4 1_555 1_555
O2 P1 1_555 1_555
O3 P1 1_555 1_555
O4 P2 1_555 1_555
O5 P2 1_555 1_555
O6 P3 1_555 1_555
O7 P3 1_555 1_555
O8 P4 1_555 1_555

#END
