
#######################################################################
#
#                 Cambridge Crystallographic Data Centre
#                                CCDC 
#
#######################################################################
#
# If this CIF has been generated from an entry in the Cambridge 
# Structural Database, then it will include bibliographic, chemical, 
# crystal, experimental, refinement or atomic coordinate data resulting 
# from the CCDC's data processing and validation procedures.
#
#######################################################################

data_FODZII
_symmetry_cell_setting           orthorhombic
_symmetry_space_group_name_H-M   'P n a 21'
_symmetry_Int_Tables_number      33
_space_group_name_Hall           'P 2c -2n'
loop_
_symmetry_equiv_pos_site_id
_symmetry_equiv_pos_as_xyz
1 x,y,z
2 -x,-y,1/2+z
3 1/2+x,1/2-y,z
4 1/2-x,1/2+y,1/2+z
_cell_length_a                   9.6113(19)
_cell_length_b                   19.691(4)
_cell_length_c                   8.0944(16)
_cell_angle_alpha                90
_cell_angle_beta                 90
_cell_angle_gamma                90
_cell_volume                     1531.91
loop_
_atom_site_label
_atom_site_type_symbol
_atom_site_fract_x
_atom_site_fract_y
_atom_site_fract_z
Ni1 Ni 0.78207(4) 0.65696(2) 0.25017(10)
O1 O 0.9625(4) 0.7011(3) 0.3223(5)
H1 H 1.050(3) 0.704(3) 0.296(9)
H2 H 0.944(6) 0.720(3) 0.414(5)
O2 O 0.6845(3) 0.74491(15) 0.1883(4)
O3 O 0.8371(3) 0.66611(14) -0.0014(4)
H3 H 0.9213 0.6728 -0.0009
O4 O 0.7188(3) 0.65881(15) -0.5082(4)
O5 O 0.8777(3) 0.72538(18) -0.3943(5)
O6 O 0.6104(3) 0.80923(15) -0.0217(4)
N1 N 0.6104(3) 0.59726(17) 0.1823(5)
N2 N 0.8694(3) 0.56141(15) 0.2545(7)
C1 C 1.0001(4) 0.5434(3) 0.2916(7)
H4 H 1.0613 0.5769 0.3267
C2 C 1.0490(4) 0.4770(3) 0.2802(10)
H5 H 1.1402 0.4665 0.3087
C3 C 0.9612(4) 0.4281(2) 0.2270(9)
H6 H 0.9926 0.3835 0.2186
C4 C 0.8239(4) 0.4434(2) 0.1844(7)
C5 C 0.7272(4) 0.3959(2) 0.1258(8)
H7 H 0.7547 0.3510 0.1119
C6 C 0.5945(5) 0.4138(2) 0.0887(7)
H8 H 0.5325 0.3811 0.0509
C7 C 0.5496(4) 0.4816(2) 0.1071(7)
C8 C 0.4107(5) 0.5035(3) 0.0755(7)
H9 H 0.3434 0.4727 0.0410
C9 C 0.3785(4) 0.5695(3) 0.0964(8)
H10 H 0.2888 0.5845 0.0741
C10 C 0.4791(4) 0.6155(2) 0.1514(7)
H11 H 0.4535 0.6606 0.1671
C11 C 0.6434(4) 0.53085(19) 0.1620(6)
C12 C 0.7847(3) 0.5116(2) 0.2014(5)
C13 C 0.6796(4) 0.7616(2) 0.0347(6)
C14 C 0.7689(4) 0.7206(2) -0.0844(6)
H12 H 0.8413 0.7510 -0.1269
C15 C 0.7669(4) 0.6927(2) -0.3900(7)
C16 C 0.6880(3) 0.6949(2) -0.2300(8)
H13 H 0.6068 0.7235 -0.2447
H14 H 0.6554 0.6494 -0.2051
Ni1_2 Ni 0.78207(4) 0.65696(2) -0.74983(10)
O4_2 O 0.7188(3) 0.65881(15) 0.4918(4)
loop_
_geom_bond_atom_site_label_1
_geom_bond_atom_site_label_2
_geom_bond_site_symmetry_1
_geom_bond_site_symmetry_2
Ni1 O1 1_555 1_555
O1 H1 1_555 1_555
H2 O1 1_555 1_555
O2 Ni1 1_555 1_555
O3 Ni1 1_555 1_555
H3 O3 1_555 1_555
O4 C15 1_555 1_555
O5 C15 1_555 1_555
O6 C13 1_555 1_555
N1 Ni1 1_555 1_555
N2 Ni1 1_555 1_555
C1 N2 1_555 1_555
H4 C1 1_555 1_555
C2 C1 1_555 1_555
H5 C2 1_555 1_555
C3 C2 1_555 1_555
H6 C3 1_555 1_555
C4 C3 1_555 1_555
C5 C4 1_555 1_555
H7 C5 1_555 1_555
C6 C5 1_555 1_555
H8 C6 1_555 1_555
C7 C6 1_555 1_555
C8 C7 1_555 1_555
H9 C8 1_555 1_555
C9 C8 1_555 1_555
H10 C9 1_555 1_555
C10 N1 1_555 1_555
H11 C10 1_555 1_555
C11 N1 1_555 1_555
C12 N2 1_555 1_555
C13 O2 1_555 1_555
C14 O3 1_555 1_555
H12 C14 1_555 1_555
C15 C16 1_555 1_555
C16 C14 1_555 1_555
H13 C16 1_555 1_555
H14 C16 1_555 1_555
Ni1_2 O4 1_555 1_555
O4_2 Ni1 1_555 1_555
C4 C12 1_555 1_555
C7 C11 1_555 1_555
C9 C10 1_555 1_555
C11 C12 1_555 1_555
C13 C14 1_555 1_555

#END
