
#######################################################################
#
#                 Cambridge Crystallographic Data Centre
#                                CCDC 
#
#######################################################################
#
# If this CIF has been generated from an entry in the Cambridge 
# Structural Database, then it will include bibliographic, chemical, 
# crystal, experimental, refinement or atomic coordinate data resulting 
# from the CCDC's data processing and validation procedures.
#
#######################################################################

data_FOFQEY
_symmetry_cell_setting           monoclinic
_symmetry_space_group_name_H-M   'C c'
_symmetry_Int_Tables_number      9
_space_group_name_Hall           'C -2yc'
loop_
_symmetry_equiv_pos_site_id
_symmetry_equiv_pos_as_xyz
1 x,y,z
2 x,-y,1/2+z
3 1/2+x,1/2+y,z
4 1/2+x,1/2-y,1/2+z
_cell_length_a                   14.5197(10)
_cell_length_b                   12.4744(8)
_cell_length_c                   9.3796(7)
_cell_angle_alpha                90
_cell_angle_beta                 109.260(8)
_cell_angle_gamma                90
_cell_volume                     1603.79
loop_
_atom_site_label
_atom_site_type_symbol
_atom_site_fract_x
_atom_site_fract_y
_atom_site_fract_z
Fe1 Fe 0.11236(6) 0.37872(4) 0.46823(8)
O1 O 0.1879(3) 0.3911(3) 0.7055(5)
O2 O 0.0293(3) 0.5944(3) 0.7362(4)
O3 O 0.0249(3) 0.4917(3) 0.5395(4)
O4 O 0.1884(3) 0.4869(3) 0.9070(4)
N1 N -0.0718(3) 0.2505(4) 0.3771(5)
N2 N 0.2910(3) 0.2413(4) 0.5608(5)
C1 C 0.0613(4) 0.5216(4) 0.6735(6)
C2 C 0.1546(4) 0.4619(5) 0.7724(6)
N3 N 0.0181(3) 0.2470(4) 0.4713(5)
N4 N -0.1175(3) 0.1613(4) 0.3928(5)
H1 H -0.1772 0.1468 0.3421
N5 N 0.2244(3) 0.2754(4) 0.4360(5)
N6 N 0.3561(3) 0.1818(4) 0.5218(5)
C3 C 0.1130(4) 0.1083(4) 0.6601(6)
H2 H 0.1724 0.1442 0.6936
C4 C 0.3305(4) 0.1765(4) 0.3684(6)
C5 C -0.0574(4) 0.0956(4) 0.4996(6)
C6 C 0.0309(4) 0.1524(4) 0.5492(5)
C7 C 0.0122(5) -0.0454(5) 0.6631(8)
H3 H 0.0081 -0.1123 0.7044
C8 C 0.2404(5) 0.1997(5) 0.0654(7)
H4 H 0.2118 0.2077 -0.0385
C9 C 0.1011(6) 0.0111(6) 0.7152(10)
H5 H 0.1534 -0.0196 0.7902
C10 C -0.0672(4) -0.0062(5) 0.5554(7)
H6 H -0.1252 -0.0447 0.5203
C11 C 0.2464(3) 0.2369(4) 0.3144(5)
C12 C 0.1984(4) 0.2484(5) 0.1580(6)
H7 H 0.1409 0.2874 0.1200
C13 C 0.3245(5) 0.1384(6) 0.1207(7)
H8 H 0.3498 0.1062 0.0523
C14 C 0.3711(5) 0.1237(5) 0.2702(7)
H9 H 0.4266 0.0812 0.3060
Fe1A Fe 0.11236(6) 0.62128(4) 0.96823(8)
O2A O 0.0293(3) 0.4056(3) 0.2362(4)
O4A O 0.1884(3) 0.5131(3) 0.4070(4)
loop_
_geom_bond_atom_site_label_1
_geom_bond_atom_site_label_2
_geom_bond_site_symmetry_1
_geom_bond_site_symmetry_2
Fe1 O1 1_555 1_555
O1 C2 1_555 1_555
O2 C1 1_555 1_555
O3 Fe1 1_555 1_555
O4 C2 1_555 1_555
N1 N3 1_555 1_555
N2 N5 1_555 1_555
C1 O3 1_555 1_555
C2 C1 1_555 1_555
N3 Fe1 1_555 1_555
N4 N1 1_555 1_555
H1 N4 1_555 1_555
N5 Fe1 1_555 1_555
N6 N2 1_555 1_555
C3 H2 1_555 1_555
C4 N6 1_555 1_555
C5 N4 1_555 1_555
C6 N3 1_555 1_555
C7 H3 1_555 1_555
C8 H4 1_555 1_555
C9 C3 1_555 1_555
H5 C9 1_555 1_555
C10 C5 1_555 1_555
H6 C10 1_555 1_555
C11 N5 1_555 1_555
C12 C8 1_555 1_555
H7 C12 1_555 1_555
C13 C8 1_555 1_555
H8 C13 1_555 1_555
C14 C4 1_555 1_555
H9 C14 1_555 1_555
Fe1A O2 1_555 1_555
O2A Fe1 1_555 1_555
O4A Fe1 1_555 1_555
O4 Fe1A 1_555 1_555
C3 C6 1_555 1_555
C4 C11 1_555 1_555
C5 C6 1_555 1_555
C7 C9 1_555 1_555
C7 C10 1_555 1_555
C11 C12 1_555 1_555
C13 C14 1_555 1_555

#END
