
#######################################################################
#
#                 Cambridge Crystallographic Data Centre
#                                CCDC 
#
#######################################################################
#
# If this CIF has been generated from an entry in the Cambridge 
# Structural Database, then it will include bibliographic, chemical, 
# crystal, experimental, refinement or atomic coordinate data resulting 
# from the CCDC's data processing and validation procedures.
#
#######################################################################

data_FOFQAU
_symmetry_cell_setting           monoclinic
_symmetry_space_group_name_H-M   'C 2/c'
_symmetry_Int_Tables_number      15
_space_group_name_Hall           '-C 2yn'
loop_
_symmetry_equiv_pos_site_id
_symmetry_equiv_pos_as_xyz
1 x,y,z
2 -x,y,1/2-z
3 1/2+x,1/2+y,z
4 1/2-x,1/2+y,1/2-z
5 -x,-y,-z
6 x,-y,1/2+z
7 1/2-x,1/2-y,-z
8 1/2+x,1/2-y,1/2+z
_cell_length_a                   14.7204(5)
_cell_length_b                   16.3987(6)
_cell_length_c                   18.7939(7)
_cell_angle_alpha                90
_cell_angle_beta                 103.2590(10)
_cell_angle_gamma                90
_cell_volume                     4415.83
loop_
_atom_site_label
_atom_site_type_symbol
_atom_site_fract_x
_atom_site_fract_y
_atom_site_fract_z
Fe1 Fe 0.0000 0.030124(19) 0.2500
Fe2 Fe -0.5000 0.189073(19) 0.2500
K1 K -0.12594(3) 0.36827(2) 0.27991(2)
O1 O 0.02267(9) 0.12316(7) 0.32077(6)
O2 O -0.44950(8) 0.09470(7) 0.31641(6)
O3 O -0.45123(9) -0.04124(7) 0.32235(7)
O4 O -0.13552(8) 0.01104(8) 0.25022(6)
O5 O -0.41694(9) 0.26639(7) 0.31649(7)
O6 O 0.01572(8) -0.04502(8) 0.33680(7)
O7 O -0.39090(9) 0.19259(7) 0.20064(7)
C1 C -0.47124(10) 0.02362(9) 0.29043(8)
C2 C -0.05922(11) -0.06578(11) 0.35376(9)
C3 C -0.33704(13) 0.28076(10) 0.30266(9)
O8 O -0.06576(9) -0.10604(10) 0.40802(8)
O9 O -0.22485(8) -0.05750(10) 0.31144(7)
O10 O 0.01745(12) 0.25870(9) 0.32561(9)
C4 C 0.01169(12) 0.19443(10) 0.29243(10)
C5 C -0.14945(11) -0.03611(11) 0.30116(9)
O11 O -0.27642(11) 0.32535(10) 0.33707(8)
O12 O -0.24535(11) 0.23976(10) 0.21764(9)
C6 C -0.32059(13) 0.23476(10) 0.23430(10)
O13 O -0.16556(11) 0.52393(9) 0.33471(9)
H1 H -0.2249 0.5357 0.3200
H2 H -0.1333 0.5620 0.3191
O1A O -0.02267(9) 0.12316(7) 0.17923(6)
O10A O -0.01745(12) 0.25870(9) 0.17439(9)
C4A C -0.01169(12) 0.19443(10) 0.20757(10)
O2A O -0.55050(8) 0.09470(7) 0.18359(6)
O3A O -0.54877(9) -0.04124(7) 0.17765(7)
C1A C -0.52876(10) 0.02362(9) 0.20957(8)
K1A K -0.87406(3) 0.36827(2) 0.22009(2)
O5A O -0.58306(9) 0.26639(7) 0.18351(7)
O7A O -0.60910(9) 0.19259(7) 0.29936(7)
C3A C -0.66296(13) 0.28076(10) 0.19734(9)
O11A O -0.72358(11) 0.32535(10) 0.16293(8)
O12A O -0.75465(11) 0.23976(10) 0.28236(9)
C6A C -0.67941(13) 0.23476(10) 0.26570(10)
O13A O -0.83444(11) 0.52393(9) 0.16529(9)
H1A H -0.7751 0.5357 0.1800
H2A H -0.8667 0.5620 0.1809
O4A O 0.13552(8) 0.01104(8) 0.24978(6)
O6A O -0.01572(8) -0.04502(8) 0.16320(7)
C2A C 0.05922(11) -0.06578(11) 0.14624(9)
O8A O 0.06576(9) -0.10604(10) 0.09198(8)
O9A O 0.22485(8) -0.05750(10) 0.18856(7)
C5A C 0.14945(11) -0.03611(11) 0.19884(9)
K1A_2 K 0.12594(3) 0.36827(2) 0.22009(2)
K1B K -0.62594(3) -0.13173(2) 0.27991(2)
K1B_2 K 0.37406(3) -0.13173(2) 0.27991(2)
K1C K -0.37406(3) -0.13173(2) 0.22009(2)
O3B O -0.95123(9) 0.45876(7) 0.32235(7)
O3B_2 O 0.04877(9) 0.45876(7) 0.32235(7)
O3C O -1.04877(9) 0.45876(7) 0.17765(7)
O3C_2 O -0.04877(9) 0.45876(7) 0.17765(7)
O9B O -0.72485(8) 0.44250(10) 0.31144(7)
O9C O -0.27515(8) 0.44250(10) 0.18856(7)
O10_2 O -0.98255(12) 0.25870(9) 0.32561(9)
O10A_2 O -1.01745(12) 0.25870(9) 0.17439(9)
N1 N 0.33973(10) 0.16873(9) 0.49741(8)
N2 N 0.74730(9) 0.09065(9) 0.47878(8)
C7 C 0.32022(13) 0.14722(12) 0.56022(10)
H3 H 0.3614 0.1484 0.6058
N3 N 0.89421(11) 0.11457(11) 0.50186(9)
H4 H 0.9513 0.1209 0.5252
C8 C 0.59522(12) 0.14681(11) 0.48941(10)
H5 H 0.5926 0.1778 0.4450
H6 H 0.6230 0.1810 0.5308
C9 C 0.43229(12) 0.19460(11) 0.48935(11)
H7 H 0.4585 0.2334 0.5275
H8 H 0.4265 0.2215 0.4425
N4 N 0.23198(11) 0.12376(10) 0.54683(9)
H9 H 0.2032 0.1071 0.5791
C10 C 0.49697(12) 0.12177(11) 0.49411(11)
H10 H 0.4717 0.0842 0.4546
H11 H 0.5000 0.0935 0.5399
C11 C 0.65396(12) 0.07107(12) 0.48929(10)
H12 H 0.6599 0.0425 0.5353
H13 H 0.6227 0.0350 0.4504
C12 C 0.82427(12) 0.09506(13) 0.53149(10)
H14 H 0.8282 0.0859 0.5809
C13 C 0.19387(14) 0.13016(12) 0.47365(12)
H15 H 0.1329 0.1174 0.4499
C14 C 0.26093(13) 0.15833(12) 0.44241(10)
H16 H 0.2552 0.1688 0.3930
C15 C 0.86153(15) 0.12318(15) 0.42796(12)
H17 H 0.8964 0.1370 0.3943
C16 C 0.76954(14) 0.10788(14) 0.41341(11)
H18 H 0.7286 0.1088 0.3677
loop_
_geom_bond_atom_site_label_1
_geom_bond_atom_site_label_2
_geom_bond_site_symmetry_1
_geom_bond_site_symmetry_2
Fe1 O1 1_555 1_555
Fe2 O2 1_555 1_555
K1 O10 1_555 1_555
O1 C4 1_555 1_555
O2 C1 1_555 1_555
O3 C1 1_555 1_555
O4 Fe1 1_555 1_555
O5 Fe2 1_555 1_555
O6 Fe1 1_555 1_555
O7 Fe2 1_555 1_555
C1 C1A 1_555 1_555
C2 O6 1_555 1_555
C3 O5 1_555 1_555
O8 C2 1_555 1_555
O9 C5 1_555 1_555
O10 C4 1_555 1_555
C4 C4A 1_555 1_555
C5 O4 1_555 1_555
O11 K1 1_555 1_555
O12 K1 1_555 1_555
C6 O7 1_555 1_555
O13 K1 1_555 1_555
H1 O13 1_555 1_555
H2 O13 1_555 1_555
N1 C7 1_555 1_555
N2 C11 1_555 1_555
C7 H3 1_555 1_555
N3 H4 1_555 1_555
C8 H5 1_555 1_555
H6 C8 1_555 1_555
C9 N1 1_555 1_555
H7 C9 1_555 1_555
H8 C9 1_555 1_555
N4 C7 1_555 1_555
H9 N4 1_555 1_555
C10 C8 1_555 1_555
H10 C10 1_555 1_555
H11 C10 1_555 1_555
C11 C8 1_555 1_555
H12 C11 1_555 1_555
H13 C11 1_555 1_555
C12 N2 1_555 1_555
H14 C12 1_555 1_555
C13 N4 1_555 1_555
H15 C13 1_555 1_555
C14 N1 1_555 1_555
H16 C14 1_555 1_555
C15 N3 1_555 1_555
H17 C15 1_555 1_555
C16 N2 1_555 1_555
H18 C16 1_555 1_555
O1A Fe1 1_555 1_555
O10A K1 1_555 1_555
C4A O1A 1_555 1_555
O2A Fe2 1_555 1_555
O3A C1A 1_555 1_555
C1A O2A 1_555 1_555
K1A O11A 1_555 1_555
O5A Fe2 1_555 1_555
O7A Fe2 1_555 1_555
C3A O5A 1_555 1_555
O11A C3A 1_555 1_555
O12A K1A 1_555 1_555
C6A O7A 1_555 1_555
O13A K1A 1_555 1_555
H1A O13A 1_555 1_555
H2A O13A 1_555 1_555
O4A Fe1 1_555 1_555
O6A Fe1 1_555 1_555
C2A O6A 1_555 1_555
O8A C2A 1_555 1_555
O9A C5A 1_555 1_555
C5A O4A 1_555 1_555
K1A_2 O10 1_555 1_555
K1B O3 1_555 1_555
K1B_2 O9A 1_555 1_555
K1C O3 1_555 1_555
O3B K1A 1_555 1_555
O3B_2 K1 1_555 1_555
O3C K1A 1_555 1_555
O3C_2 K1 1_555 1_555
O9B K1A 1_555 1_555
O9C K1 1_555 1_555
O10_2 K1A 1_555 1_555
O10A_2 K1A 1_555 1_555
C2 C5 1_555 1_555
C3 O11 1_555 1_555
C3 C6 1_555 1_555
O9 K1C 1_555 1_555
O12 C6 1_555 1_555
N3 C12 1_555 1_555
C9 C10 1_555 1_555
C13 C14 1_555 1_555
C15 C16 1_555 1_555
O10A C4A 1_555 1_555
O10A K1A_2 1_555 1_555
O3A K1B 1_555 1_555
O3A K1C 1_555 1_555
C3A C6A 1_555 1_555
O12A C6A 1_555 1_555
C2A C5A 1_555 1_555
K1A_2 O3B_2 1_555 1_555
K1A_2 O3C_2 1_555 1_555

#END
