
#######################################################################
#
#                 Cambridge Crystallographic Data Centre
#                                CCDC 
#
#######################################################################
#
# If this CIF has been generated from an entry in the Cambridge 
# Structural Database, then it will include bibliographic, chemical, 
# crystal, experimental, refinement or atomic coordinate data resulting 
# from the CCDC's data processing and validation procedures.
#
#######################################################################

data_FOGHAM
_symmetry_cell_setting           monoclinic
_symmetry_space_group_name_H-M   'P 21/n'
_symmetry_Int_Tables_number      14
_space_group_name_Hall           '-P 2yn'
loop_
_symmetry_equiv_pos_site_id
_symmetry_equiv_pos_as_xyz
1 x,y,z
2 1/2-x,1/2+y,1/2-z
3 -x,-y,-z
4 1/2+x,1/2-y,1/2+z
_cell_length_a                   8.98163(14)
_cell_length_b                   24.4814(5)
_cell_length_c                   17.3224(3)
_cell_angle_alpha                90
_cell_angle_beta                 99.3878(15)
_cell_angle_gamma                90
_cell_volume                     3757.89
loop_
_atom_site_label
_atom_site_type_symbol
_atom_site_fract_x
_atom_site_fract_y
_atom_site_fract_z
O1 O 0.7053(4) 0.05014(17) 0.4906(2)
Eu1 Eu 1.03542(3) 0.184837(12) 0.569323(16)
Mn1 Mn 1.49812(9) 0.08761(4) 0.41771(5)
Mn2 Mn 0.51546(10) 0.33212(4) 0.50143(5)
O2 O 0.8928(5) 0.17974(17) 0.6778(2)
O3 O 0.8296(5) 0.24812(17) 0.5264(2)
O4 O 1.2627(5) 0.15837(17) 0.6598(2)
O5 O 1.1844(4) 0.13663(16) 0.4837(2)
O6 O 0.9649(5) 0.26895(18) 0.1963(2)
H1 H 0.8989 0.2923 0.1868
O7 O 1.2099(4) 0.25662(17) 0.5449(2)
O8 O 0.7000(5) 0.30564(17) 0.4386(2)
C1 C 1.1615(6) 0.3040(2) 0.6577(3)
O9 O 1.1177(4) 0.39099(17) 0.8231(2)
O10 O 0.8250(4) 0.12844(17) 0.5163(2)
O11 O 1.2703(4) 0.12425(17) 0.3691(2)
C2 C 0.8903(6) 0.2492(2) 0.3973(3)
N1 N 1.0525(5) 0.0869(2) 0.6098(3)
C3 C 1.1774(6) 0.0677(2) 0.6571(3)
N2 N 0.9864(5) 0.2095(2) 0.4235(3)
O12 O 1.0996(5) -0.07650(17) 0.6526(3)
H2 H 1.1891 -0.0846 0.6641
O13 O 1.5376(5) 0.16177(18) 0.4856(3)
C4 C 0.7988(6) 0.2700(2) 0.4578(3)
C5 C 1.1805(7) 0.3482(3) 0.7086(4)
H3 H 1.2448 0.3766 0.7002
O14 O 1.4344(6) 0.0131(2) 0.3533(3)
C6 C 1.0731(6) 0.1889(2) 0.3736(3)
N3 N 1.0726(5) 0.2617(2) 0.6670(3)
C7 C 1.2403(6) 0.2989(2) 0.5869(3)
C8 C 0.9438(6) 0.0518(2) 0.5798(3)
C9 C 0.9537(6) -0.0028(2) 0.5951(3)
H4 H 0.8753 -0.0262 0.5753
C10 C 1.0062(6) 0.3060(2) 0.7809(3)
H5 H 0.9492 0.3054 0.8211
C11 C 0.9687(6) 0.2500(2) 0.2701(3)
C12 C 0.8758(6) 0.2709(3) 0.3214(3)
H6 H 0.8064 0.2985 0.3053
C13 C 0.8992(6) 0.2136(2) 0.7342(3)
C14 C 0.8134(6) 0.0783(2) 0.5248(3)
C15 C 1.1840(6) 0.1466(2) 0.4106(3)
C16 C 1.0864(6) -0.0229(2) 0.6419(4)
C17 C 1.1018(6) 0.3500(2) 0.7732(3)
C18 C 1.1981(6) 0.0137(3) 0.6748(4)
H7 H 1.2840 0.0016 0.7077
O15 O 0.3990(5) 0.25868(18) 0.4439(2)
O16 O 1.3926(5) 0.05683(17) 0.5173(3)
O17 O 1.3289(4) 0.33557(17) 0.5726(2)
O18 O 0.6323(5) 0.29015(19) 0.6059(3)
O19 O 0.8326(5) 0.20864(18) 0.7924(2)
O20 O 0.3852(6) 0.3754(2) 0.4026(3)
C19 C 1.0672(6) 0.2075(2) 0.2973(3)
H8 H 1.1283 0.1919 0.2648
C20 C 0.9973(6) 0.2632(2) 0.7282(3)
O21 O 0.6046(8) 0.4068(3) 0.5461(4)
O22 O 1.4129(5) 0.09773(19) 0.7313(3)
C21 C 1.2959(7) 0.1101(3) 0.6861(3)
H9 H 1.6299(17) 0.1711(15) 0.498(4)
H10 H 1.489(5) 0.1900(9) 0.468(3)
H11 H 1.451(7) -0.0173(8) 0.3770(17)
H12 H 1.456(7) 0.0102(14) 0.3075(15)
H13 H 0.325(4) 0.251(2) 0.467(2)
H14 H 0.365(5) 0.266(2) 0.3964(12)
H15 H 1.363(6) 0.0241(8) 0.512(3)
H16 H 1.322(4) 0.0770(13) 0.528(3)
H17 H 0.574(3) 0.2690(17) 0.626(3)
H18 H 0.707(4) 0.2715(18) 0.595(3)
H19 H 0.330(6) 0.3595(11) 0.365(2)
H20 H 0.360(6) 0.4086(9) 0.406(2)
H21 H 0.629(6) 0.4269(19) 0.5101(18)
H22 H 0.683(4) 0.4018(18) 0.580(3)
O1_2 O 1.7053(4) 0.05014(17) 0.4906(2)
Mn1_2 Mn 0.49812(9) 0.08761(4) 0.41771(5)
Mn1C Mn 0.99812(9) 0.41239(4) 0.91771(5)
Mn2_2 Mn 1.51546(10) 0.33212(4) 0.50143(5)
O9C O 1.6177(4) 0.10901(17) 0.3231(2)
O17_2 O 0.3289(4) 0.33557(17) 0.5726(2)
O23 O 1.2877(6) -0.0906(2) 0.3031(4)
H23 H 1.3783 -0.0970 0.3242
H24 H 1.2327 -0.1178 0.3100
O24 O 0.4046(9) 0.4694(3) 0.3089(5)
H25 H 0.3164 0.4745 0.3193
H26 H 0.4277 0.4954 0.2807
O25 O 0.7197(11) 0.4252(4) 0.7085(5)
O26 O 1.1729(11) 0.4335(4) 0.5398(6)
O28 O 1.3098(12) 0.5295(4) 0.5774(7)
O29 O 1.4755(15) 0.0668(6) 0.8946(7)
O31 O 1.4661(13) 0.0249(5) 0.1767(7)
O27? O 1.211(3) 0.4768(12) 0.5982(18)
O30? O 1.347(4) 0.0883(17) 0.894(2)
O32? O 1.427(4) 0.0557(15) 0.112(2)
O33? O 0.521(4) 0.4977(14) 0.461(2)
O34? O 0.484(3) 0.4407(12) 0.6870(16)
loop_
_geom_bond_atom_site_label_1
_geom_bond_atom_site_label_2
_geom_bond_site_symmetry_1
_geom_bond_site_symmetry_2
O1 C14 1_555 1_555
Eu1 O2 1_555 1_555
Mn1 O11 1_555 1_555
Mn2 O8 1_555 1_555
O2 C13 1_555 1_555
O3 Eu1 1_555 1_555
O4 Eu1 1_555 1_555
O5 Eu1 1_555 1_555
O6 H1 1_555 1_555
O7 Eu1 1_555 1_555
O8 C4 1_555 1_555
C1 C5 1_555 1_555
O9 C17 1_555 1_555
O10 Eu1 1_555 1_555
O11 C15 1_555 1_555
C2 N2 1_555 1_555
N1 Eu1 1_555 1_555
C3 N1 1_555 1_555
N2 Eu1 1_555 1_555
O12 H2 1_555 1_555
O13 Mn1 1_555 1_555
C4 O3 1_555 1_555
C5 H3 1_555 1_555
O14 Mn1 1_555 1_555
C6 N2 1_555 1_555
N3 Eu1 1_555 1_555
C7 O7 1_555 1_555
C8 N1 1_555 1_555
C9 C8 1_555 1_555
H4 C9 1_555 1_555
C10 H5 1_555 1_555
C11 O6 1_555 1_555
C12 C2 1_555 1_555
H6 C12 1_555 1_555
C13 O19 1_555 1_555
C14 O10 1_555 1_555
C15 O5 1_555 1_555
C16 O12 1_555 1_555
C17 C5 1_555 1_555
C18 C3 1_555 1_555
H7 C18 1_555 1_555
O15 Mn2 1_555 1_555
O16 Mn1 1_555 1_555
O17 C7 1_555 1_555
O18 Mn2 1_555 1_555
O20 Mn2 1_555 1_555
C19 C6 1_555 1_555
H8 C19 1_555 1_555
C20 N3 1_555 1_555
O21 Mn2 1_555 1_555
O22 C21 1_555 1_555
C21 O4 1_555 1_555
H9 O13 1_555 1_555
H10 O13 1_555 1_555
H11 O14 1_555 1_555
H12 O14 1_555 1_555
H13 O15 1_555 1_555
H14 O15 1_555 1_555
H15 O16 1_555 1_555
H16 O16 1_555 1_555
H17 O18 1_555 1_555
H18 O18 1_555 1_555
H19 O20 1_555 1_555
H20 O20 1_555 1_555
H21 O21 1_555 1_555
H22 O21 1_555 1_555
O23 H23 1_555 1_555
H24 O23 1_555 1_555
O24 H25 1_555 1_555
H26 O24 1_555 1_555
O1_2 Mn1 1_555 1_555
Mn1_2 O1 1_555 1_555
Mn1C O9 1_555 1_555
Mn2_2 O17 1_555 1_555
O9C Mn1 1_555 1_555
O17_2 Mn2 1_555 1_555
C1 N3 1_555 1_555
C1 C7 1_555 1_555
C2 C4 1_555 1_555
C3 C21 1_555 1_555
C6 C15 1_555 1_555
C8 C14 1_555 1_555
C9 C16 1_555 1_555
C10 C17 1_555 1_555
C10 C20 1_555 1_555
C11 C12 1_555 1_555
C11 C19 1_555 1_555
C13 C20 1_555 1_555
C16 C18 1_555 1_555

#END
