
#######################################################################
#
#                 Cambridge Crystallographic Data Centre
#                                CCDC 
#
#######################################################################
#
# If this CIF has been generated from an entry in the Cambridge 
# Structural Database, then it will include bibliographic, chemical, 
# crystal, experimental, refinement or atomic coordinate data resulting 
# from the CCDC's data processing and validation procedures.
#
#######################################################################

data_FOGHIU
_symmetry_cell_setting           monoclinic
_symmetry_space_group_name_H-M   'P 21/n'
_symmetry_Int_Tables_number      14
_space_group_name_Hall           '-P 2yn'
loop_
_symmetry_equiv_pos_site_id
_symmetry_equiv_pos_as_xyz
1 x,y,z
2 1/2-x,1/2+y,1/2-z
3 -x,-y,-z
4 1/2+x,1/2-y,1/2+z
_cell_length_a                   8.9103(3)
_cell_length_b                   24.1109(8)
_cell_length_c                   17.3062(6)
_cell_angle_alpha                90
_cell_angle_beta                 98.343(3)
_cell_angle_gamma                90
_cell_volume                     3678.64
loop_
_atom_site_label
_atom_site_type_symbol
_atom_site_fract_x
_atom_site_fract_y
_atom_site_fract_z
Eu1 Eu 0.96137(4) 0.187869(17) 0.93588(2)
Mn1 Mn 0.48047(13) 0.33750(6) 1.00348(7)
Mn2 Mn 1.49782(13) 0.08537(5) 1.08701(7)
O1 O 1.1704(6) 0.1306(2) 0.9906(3)
O2 O 0.7411(6) 0.1604(2) 0.8437(3)
O3 O 1.2946(6) 0.3101(2) 1.0648(3)
O4 O 1.1121(6) 0.1827(2) 0.8299(3)
O5 O 1.1644(6) 0.2526(2) 0.9776(3)
O6 O 0.5968(6) 0.2640(2) 1.0632(3)
H1 H 0.6225 0.2702 1.1133
H2 H 0.6795 0.2561 1.0435
O7 O 0.7871(6) 0.2617(2) 0.9613(3)
O8 O 0.7202(5) 0.1243(2) 1.1319(3)
O9 O 0.6702(6) 0.3429(2) 0.9353(3)
O10 O 1.4562(6) 0.1631(2) 1.0219(3)
H3 H 1.4947 0.1914 1.0499
H4 H 1.3586 0.1689 1.0094
O11 O 0.8084(5) 0.1386(2) 1.0187(3)
O12 O 0.3717(7) 0.2923(3) 0.9015(3)
H5 H 0.4382 0.2727 0.8820
H6 H 0.3303 0.3152 0.8662
O13 O 1.2904(6) 0.0499(2) 1.0159(3)
O14 O 1.5657(8) 0.0073(3) 1.1448(4)
H7 H 1.569(11) -0.0258(9) 1.128(2)
O15 O 1.6031(6) 0.0575(2) 0.9849(3)
H8 H 1.6395 0.0237 0.9918
H9 H 1.6784 0.0795 0.9776
O16 O 0.8745(6) 0.3947(2) 0.6805(3)
C1 C 0.8366(8) 0.3097(3) 0.8485(4)
O17 O 0.9129(6) -0.0788(2) 0.8482(3)
H10 H 0.8241 -0.0883 0.8465
N1 N 1.0064(7) 0.2114(3) 1.0787(4)
C2 C 0.8349(8) 0.0685(3) 0.8450(4)
N2 N 0.9276(7) 0.2660(3) 0.8405(4)
N3 N 0.9520(7) 0.0883(3) 0.8937(4)
C3 C 0.9220(8) 0.1891(3) 1.1286(4)
C4 C 0.7571(8) 0.3047(3) 0.9203(4)
C5 C 0.8156(9) 0.0137(3) 0.8263(5)
H11 H 0.7319 0.0017 0.7920
C6 C 1.0025(9) 0.2666(3) 0.7787(4)
C7 C 0.9245(9) -0.0238(3) 0.8601(5)
O18 O 1.1692(6) 0.2114(2) 0.7154(3)
O19 O 0.6216(7) 0.1002(3) 0.7578(4)
O20 O 0.5755(8) 0.3903(3) 1.0991(4)
H12 H 0.6711(14) 0.392(3) 1.116(3)
C8 C 0.9904(8) 0.3086(3) 0.7253(5)
H13 H 1.0462 0.3071 0.6840
C9 C 0.8155(8) 0.3534(3) 0.7984(5)
H14 H 0.7508 0.3823 0.8072
C10 C 1.1837(9) 0.0796(3) 0.9804(5)
C11 C 1.1240(9) 0.2699(3) 1.1815(4)
H15 H 1.1952 0.2971 1.1982
C12 C 0.8083(8) 0.1469(3) 1.0916(4)
C13 C 1.1058(8) 0.2508(3) 1.1064(5)
C14 C 0.9311(8) 0.2057(3) 1.2058(4)
H16 H 0.8703 0.1893 1.2388
C15 C 1.1956(8) 0.2733(3) 1.0450(4)
C16 C 1.0325(9) 0.2472(4) 1.2325(4)
C17 C 1.1033(9) 0.2165(4) 0.7734(5)
C18 C 1.0588(8) 0.0522(3) 0.9248(5)
C19 C 0.8937(8) 0.3544(3) 0.7323(4)
C20 C 0.7215(9) 0.1124(4) 0.8121(5)
O21 O 0.3753(12) 0.4128(3) 0.9552(5)
H17 H 0.368(15) 0.4435(17) 0.979(2)
O22 O 1.0385(6) 0.2648(2) 1.3065(3)
H18 H 1.0924 0.2924 1.3132
C21 C 1.0520(9) -0.0034(3) 0.9072(4)
H19 H 1.1313 -0.0270 0.9265
C22 C 1.6439(12) 0.0091(4) 1.2293(6)
H20 H 1.7474 -0.0027 1.2316
H21 H 1.5923 -0.0152 1.2606
H22 H 1.6413 0.0463 1.2488
C23 C 0.4900(16) 0.4114(6) 1.1574(8)
H23 H 0.4172 0.4380 1.1339
H24 H 0.5577 0.4289 1.1984
H25 H 0.4382 0.3814 1.1786
C24 C 0.327(3) 0.4216(12) 0.8720(14)
H26 H 0.4022 0.4072 0.8430
H27 H 0.3133 0.4605 0.8618
H28 H 0.2323 0.4026 0.8563
Mn1_2 Mn 1.48047(13) 0.33750(6) 1.00348(7)
Mn2_2 Mn 0.49782(13) 0.08537(5) 1.08701(7)
Mn2C Mn 0.99782(13) 0.41463(5) 0.58701(7)
O3_2 O 0.2946(6) 0.3101(2) 1.0648(3)
O8_2 O 1.7202(5) 0.1243(2) 1.1319(3)
O16C O 1.3745(6) 0.1053(2) 1.1805(3)
O23 O 0.8488(10) 0.3687(4) 1.1714(5)
O24 O 1.6346(11) -0.1081(4) 1.1444(6)
O25 O 0.338(3) 0.5115(9) 1.0263(13)
O26 O 0.913(5) 0.4316(19) 1.066(3)
C25 C 1.004(5) 0.415(2) 1.019(3)
O27? O 1.701(3) -0.0952(13) 1.1936(18)
loop_
_geom_bond_atom_site_label_1
_geom_bond_atom_site_label_2
_geom_bond_site_symmetry_1
_geom_bond_site_symmetry_2
Eu1 O1 1_555 1_555
Mn1 O6 1_555 1_555
Mn2 O10 1_555 1_555
O1 C10 1_555 1_555
O2 Eu1 1_555 1_555
O3 C15 1_555 1_555
O4 Eu1 1_555 1_555
O5 Eu1 1_555 1_555
O6 H1 1_555 1_555
H2 O6 1_555 1_555
O7 Eu1 1_555 1_555
O8 C12 1_555 1_555
O9 Mn1 1_555 1_555
O10 H3 1_555 1_555
H4 O10 1_555 1_555
O11 Eu1 1_555 1_555
O12 Mn1 1_555 1_555
H5 O12 1_555 1_555
H6 O12 1_555 1_555
O13 Mn2 1_555 1_555
O14 Mn2 1_555 1_555
H7 O14 1_555 1_555
O15 Mn2 1_555 1_555
H8 O15 1_555 1_555
H9 O15 1_555 1_555
O16 C19 1_555 1_555
C1 N2 1_555 1_555
O17 H10 1_555 1_555
N1 Eu1 1_555 1_555
C2 N3 1_555 1_555
N2 Eu1 1_555 1_555
N3 Eu1 1_555 1_555
C3 N1 1_555 1_555
C4 O7 1_555 1_555
C5 C2 1_555 1_555
H11 C5 1_555 1_555
C6 N2 1_555 1_555
C7 O17 1_555 1_555
O18 C17 1_555 1_555
O19 C20 1_555 1_555
O20 Mn1 1_555 1_555
H12 O20 1_555 1_555
C8 C6 1_555 1_555
H13 C8 1_555 1_555
C9 C1 1_555 1_555
H14 C9 1_555 1_555
C10 O13 1_555 1_555
C11 H15 1_555 1_555
C12 O11 1_555 1_555
C13 N1 1_555 1_555
C14 C3 1_555 1_555
H16 C14 1_555 1_555
C15 O5 1_555 1_555
C16 C11 1_555 1_555
C17 O4 1_555 1_555
C18 N3 1_555 1_555
C19 C8 1_555 1_555
C20 O2 1_555 1_555
O21 Mn1 1_555 1_555
H17 O21 1_555 1_555
O22 C16 1_555 1_555
H18 O22 1_555 1_555
C21 C7 1_555 1_555
H19 C21 1_555 1_555
C22 O14 1_555 1_555
H20 C22 1_555 1_555
H21 C22 1_555 1_555
H22 C22 1_555 1_555
C23 O20 1_555 1_555
H23 C23 1_555 1_555
H24 C23 1_555 1_555
H25 C23 1_555 1_555
C24 O21 1_555 1_555
H26 C24 1_555 1_555
H27 C24 1_555 1_555
H28 C24 1_555 1_555
O26 C25 1_555 1_555
Mn1_2 O3 1_555 1_555
Mn2_2 O8 1_555 1_555
Mn2C O16 1_555 1_555
O3_2 Mn1 1_555 1_555
O8_2 Mn2 1_555 1_555
O16C Mn2 1_555 1_555
O9 C4 1_555 1_555
C1 C4 1_555 1_555
C2 C20 1_555 1_555
C3 C12 1_555 1_555
C5 C7 1_555 1_555
C6 C17 1_555 1_555
C9 C19 1_555 1_555
C10 C18 1_555 1_555
C11 C13 1_555 1_555
C13 C15 1_555 1_555
C14 C16 1_555 1_555
C18 C21 1_555 1_555

#END
