
#######################################################################
#
#                 Cambridge Crystallographic Data Centre
#                                CCDC 
#
#######################################################################
#
# If this CIF has been generated from an entry in the Cambridge 
# Structural Database, then it will include bibliographic, chemical, 
# crystal, experimental, refinement or atomic coordinate data resulting 
# from the CCDC's data processing and validation procedures.
#
#######################################################################

data_FOGNIA
_symmetry_cell_setting           triclinic
_symmetry_space_group_name_H-M   'P -1'
_symmetry_Int_Tables_number      2
_space_group_name_Hall           '-P 1'
loop_
_symmetry_equiv_pos_site_id
_symmetry_equiv_pos_as_xyz
1 x,y,z
2 -x,-y,-z
_cell_length_a                   13.4345(10)
_cell_length_b                   15.2333(13)
_cell_length_c                   17.3649(15)
_cell_angle_alpha                71.703(8)
_cell_angle_beta                 67.541(8)
_cell_angle_gamma                77.475(7)
_cell_volume                     3099.09
loop_
_atom_site_label
_atom_site_type_symbol
_atom_site_fract_x
_atom_site_fract_y
_atom_site_fract_z
Ag1 Ag 0.50000 0.50000 0.50000
Ag2 Ag 0.00000 1.00000 0.50000
Pd1 Pd 0.62664(10) 0.64775(7) 0.36391(8)
Pd2 Pd 0.01251(9) 0.94822(7) 0.34027(7)
N1 N 0.4921(9) 0.7259(8) 0.1702(7)
C1 C 0.5290(14) 0.7774(12) 0.0818(11)
H1 H 0.4712 0.8254 0.0698
H2 H 0.548 0.7352 0.0445
H3 H 0.5928 0.8069 0.0705
C2 C 0.5627(12) 0.7019(9) 0.2143(10)
O1 O 0.6563(8) 0.7239(6) 0.1784(6)
N2 N 0.5257(9) 0.6572(7) 0.3003(7)
C3 C 0.4265(12) 0.6237(9) 0.3400(10)
O2 O 0.3943(7) 0.5839(6) 0.4175(6)
C4 C 0.3566(11) 0.6465(9) 0.2877(8)
C5 C 0.3929(11) 0.6943(9) 0.2073(9)
H4 H 0.3479 0.7076 0.1732
N3 N 0.0757(9) 0.7027(7) 0.5237(7)
C6 C 0.0510(13) 0.6718(10) 0.6169(9)
H5 H 0.078 0.7138 0.6353
H6 H 0.0861 0.6085 0.6322
H7 H -0.0276 0.6725 0.6456
C7 C 0.0305(10) 0.7878(9) 0.4885(8)
O3 O -0.0322(8) 0.8362(6) 0.5379(5)
N4 N 0.0539(9) 0.8157(7) 0.4018(7)
C8 C 0.1166(11) 0.7601(9) 0.3477(9)
O4 O 0.1304(8) 0.7858(6) 0.2708(6)
C9 C 0.1675(10) 0.6710(8) 0.3870(8)
C10 C 0.1451(10) 0.6474(8) 0.4714(8)
H8 H 0.1783 0.5899 0.497
N5 N 0.3724(12) 0.7704(8) 0.5501(8)
C11 C 0.3040(16) 0.7403(10) 0.6356(10)
H9 H 0.2409 0.7867 0.6479
H10 H 0.3435 0.7323 0.6749
H11 H 0.2797 0.6808 0.6435
C12 C 0.4572(13) 0.7075(11) 0.5114(10)
O5 O 0.4678(10) 0.6292(6) 0.5589(7)
N6 N 0.5180(9) 0.7379(8) 0.4271(7)
C13 C 0.5039(13) 0.8277(9) 0.3804(10)
O6 O 0.5661(9) 0.8497(6) 0.3050(7)
C14 C 0.4195(13) 0.8919(9) 0.4195(10)
C15 C 0.3567(14) 0.8610(9) 0.5013(9)
H12 H 0.2989 0.9025 0.5271
N7 N 0.3246(11) 0.9993(9) 0.1746(7)
C16 C 0.3787(14) 1.0219(13) 0.0793(10)
H13 H 0.3821 0.9684 0.0582
H14 H 0.4523 1.0366 0.0647
H15 H 0.3373 1.0757 0.0523
C17 C 0.2186(14) 0.9848(10) 0.2100(10)
O7 O 0.1693(9) 0.9871(7) 0.1610(7)
N8 N 0.1674(9) 0.9703(7) 0.2960(7)
C18 C 0.2203(11) 0.9727(9) 0.3503(9)
O8 O 0.1749(8) 0.9610(7) 0.4281(6)
C19 C 0.3370(14) 0.9864(9) 0.3097(10)
C20 C 0.3844(13) 0.9985(11) 0.2261(11)
H16 H 0.4592 1.0068 0.2003
C21 C 0.2450(11) 0.6125(9) 0.3299(8)
H17 H 0.2166 0.6139 0.2846
H18 H 0.2512 0.5472 0.3642
C22 C 0.3975(12) 0.9876(9) 0.3675(9)
H19 H 0.4669 1.014 0.3317
H20 H 0.3538 1.0277 0.4066
N9 N 0.7344(10) 0.5647(9) 0.2960(8)
N10 N 0.8405(11) 0.5721(9) 0.2639(10)
C23 C 0.8891(15) 0.5185(13) 0.2134(14)
H21 H 0.9651 0.5117 0.1841
C24 C 0.8160(13) 0.4717(11) 0.2073(11)
H22 H 0.8293 0.4286 0.1741
C25 C 0.7198(12) 0.5032(10) 0.2609(10)
H23 H 0.6516 0.4843 0.2721
C26 C 0.8837(15) 0.6394(12) 0.2833(12)
C27 C 1.0051(18) 0.6188(16) 0.2531(15)
H24 H 1.0254 0.5559 0.2843
H25 H 1.0366 0.664 0.264
H26 H 1.0323 0.623 0.1911
C28 C 0.8496(18) 0.7425(14) 0.2391(14)
H27 H 0.7707 0.7565 0.2626
H28 H 0.8719 0.7505 0.1768
H29 H 0.8848 0.7849 0.2503
N11 N 0.7314(12) 0.6404(9) 0.4228(9)
N12 N 0.8407(14) 0.6251(10) 0.3763(11)
C29 C 0.8883(14) 0.6175(11) 0.4419(11)
H30 H 0.9645 0.6113 0.429
C30 C 0.8249(16) 0.6197(13) 0.5132(13)
H31 H 0.8405 0.6142 0.5636
C31 C 0.7181(19) 0.6330(10) 0.5035(13)
H32 H 0.6503 0.6357 0.5484
N13 N -0.1457(10) 0.9294(7) 0.3751(8)
N14 N -0.2046(10) 0.9833(8) 0.3262(9)
C32 C -0.3090(14) 0.9618(11) 0.3706(12)
H33 H -0.3676 0.9861 0.3494
C33 C -0.3175(13) 0.9027(10) 0.4472(10)
H34 H -0.381 0.8802 0.4919
C34 C -0.2091(12) 0.8815(11) 0.4463(11)
H35 H -0.1862 0.8386 0.4911
N15 N -0.0221(11) 1.0800(8) 0.2781(7)
N16 N -0.0970(10) 1.1050(8) 0.2383(7)
C35 C -0.0924(14) 1.1957(9) 0.1936(9)
H36 H -0.1362 1.2301 0.1598
C36 C -0.0156(15) 1.2287(10) 0.2052(10)
H37 H 0.0062 1.2896 0.1816
C37 C 0.0253(12) 1.1531(10) 0.2599(9)
H38 H 0.0804 1.1552 0.2807
C38 C -0.1584(12) 1.0366(10) 0.2367(10)
C39 C -0.0815(15) 0.9736(10) 0.1801(11)
H39 H -0.0235 0.9416 0.2035
H40 H -0.0499 1.0113 0.1213
H41 H -0.1218 0.9275 0.1795
C40 C -0.2474(15) 1.0901(12) 0.1999(11)
H42 H -0.2869 1.1389 0.2297
H43 H -0.2977 1.0473 0.2083
H44 H -0.2148 1.1186 0.1382
Pd1A Pd -0.62664(10) 1.35225(7) 0.63609(8)
Pd2A Pd -0.01251(9) 1.05178(7) 0.65973(7)
N1A N -0.4921(9) 1.2741(8) 0.8298(7)
C1A C -0.5290(14) 1.2226(12) 0.9182(11)
H1A H -0.4712 1.1746 0.9302
H2A H -0.548 1.2648 0.9555
H3A H -0.5928 1.1931 0.9295
C2A C -0.5627(12) 1.2981(9) 0.7857(10)
O1A O -0.6563(8) 1.2761(6) 0.8216(6)
N2A N -0.5257(9) 1.3428(7) 0.6997(7)
C3A C -0.4265(12) 1.3763(9) 0.6600(10)
O2A O -0.3943(7) 1.4161(6) 0.5825(6)
C4A C -0.3566(11) 1.3535(9) 0.7123(8)
C5A C -0.3929(11) 1.3057(9) 0.7927(9)
H4A H -0.3479 1.2924 0.8268
N3A N -0.0757(9) 1.2973(7) 0.4763(7)
C6A C -0.0510(13) 1.3282(10) 0.3831(9)
H5A H -0.078 1.2862 0.3647
H6A H -0.0861 1.3915 0.3678
H7A H 0.0276 1.3275 0.3544
C7A C -0.0305(10) 1.2122(9) 0.5115(8)
O3A O 0.0322(8) 1.1638(6) 0.4621(5)
N4A N -0.0539(9) 1.1843(7) 0.5982(7)
C8A C -0.1166(11) 1.2399(9) 0.6523(9)
O4A O -0.1304(8) 1.2142(6) 0.7292(6)
C9A C -0.1675(10) 1.3290(8) 0.6130(8)
C10A C -0.1451(10) 1.3526(8) 0.5286(8)
H8A H -0.1783 1.4101 0.503
N5A N -0.3724(12) 1.2296(8) 0.4499(8)
C11A C -0.3040(16) 1.2597(10) 0.3644(10)
H9A H -0.2409 1.2133 0.3521
H10A H -0.3435 1.2677 0.3251
H11A H -0.2797 1.3192 0.3565
C12A C -0.4572(13) 1.2925(11) 0.4886(10)
O5A O -0.4678(10) 1.3708(6) 0.4411(7)
N6A N -0.5180(9) 1.2621(8) 0.5729(7)
C13A C -0.5039(13) 1.1723(9) 0.6196(10)
O6A O -0.5661(9) 1.1503(6) 0.6950(7)
C14A C -0.4195(13) 1.1081(9) 0.5805(10)
C15A C -0.3567(14) 1.1390(9) 0.4987(9)
H12A H -0.2989 1.0975 0.4729
N7A N -0.3246(11) 1.0007(9) 0.8254(7)
C16A C -0.3787(14) 0.9781(13) 0.9207(10)
H13A H -0.3821 1.0316 0.9418
H14A H -0.4523 0.9634 0.9353
H15A H -0.3373 0.9243 0.9477
C17A C -0.2186(14) 1.0152(10) 0.7900(10)
O7A O -0.1693(9) 1.0129(7) 0.8390(7)
N8A N -0.1674(9) 1.0297(7) 0.7040(7)
C18A C -0.2203(11) 1.0273(9) 0.6497(9)
O8A O -0.1749(8) 1.0390(7) 0.5719(6)
C19A C -0.3370(14) 1.0136(9) 0.6903(10)
C20A C -0.3844(13) 1.0015(11) 0.7739(11)
H16A H -0.4592 0.9932 0.7997
C21A C -0.2450(11) 1.3875(9) 0.6701(8)
H17A H -0.2166 1.3861 0.7154
H18A H -0.2512 1.4528 0.6358
C22A C -0.3975(12) 1.0124(9) 0.6325(9)
H19A H -0.4669 0.986 0.6683
H20A H -0.3538 0.9723 0.5934
N9A N -0.7344(10) 1.4353(9) 0.7040(8)
N10A N -0.8405(11) 1.4279(9) 0.7361(10)
C23A C -0.8891(15) 1.4815(13) 0.7866(14)
H21A H -0.9651 1.4883 0.8159
C24A C -0.8160(13) 1.5283(11) 0.7927(11)
H22A H -0.8293 1.5714 0.8259
C25A C -0.7198(12) 1.4968(10) 0.7391(10)
H23A H -0.6516 1.5157 0.7279
C26A C -0.8837(15) 1.3606(12) 0.7167(12)
C27A C -1.0051(18) 1.3812(16) 0.7469(15)
H24A H -1.0254 1.4441 0.7157
H25A H -1.0366 1.336 0.736
H26A H -1.0323 1.377 0.8089
C28A C -0.8496(18) 1.2575(14) 0.7609(14)
H27A H -0.7707 1.2435 0.7374
H28A H -0.8719 1.2495 0.8232
H29A H -0.8848 1.2151 0.7497
N11A N -0.7314(12) 1.3596(9) 0.5772(9)
N12A N -0.8407(14) 1.3749(10) 0.6237(11)
C29A C -0.8883(14) 1.3825(11) 0.5581(11)
H30A H -0.9645 1.3887 0.571
C30A C -0.8249(16) 1.3803(13) 0.4868(13)
H31A H -0.8405 1.3858 0.4364
C31A C -0.7181(19) 1.3670(10) 0.4965(13)
H32A H -0.6503 1.3643 0.4516
N13A N 0.1457(10) 1.0706(7) 0.6249(8)
N14A N 0.2046(10) 1.0167(8) 0.6738(9)
C32A C 0.3090(14) 1.0382(11) 0.6294(12)
H33A H 0.3676 1.0139 0.6506
C33A C 0.3175(13) 1.0973(10) 0.5528(10)
H34A H 0.381 1.1198 0.5081
C34A C 0.2091(12) 1.1185(11) 0.5537(11)
H35A H 0.1862 1.1614 0.5089
N15A N 0.0221(11) 0.9200(8) 0.7219(7)
N16A N 0.0970(10) 0.8950(8) 0.7617(7)
C35A C 0.0924(14) 0.8043(9) 0.8064(9)
H36A H 0.1362 0.7699 0.8402
C36A C 0.0156(15) 0.7713(10) 0.7948(10)
H37A H -0.0062 0.7104 0.8184
C37A C -0.0253(12) 0.8469(10) 0.7401(9)
H38A H -0.0804 0.8448 0.7193
C38A C 0.1584(12) 0.9634(10) 0.7633(10)
C39A C 0.0815(15) 1.0264(10) 0.8199(11)
H39A H 0.0235 1.0584 0.7965
H40A H 0.0499 0.9887 0.8787
H41A H 0.1218 1.0725 0.8205
C40A C 0.2474(15) 0.9099(12) 0.8001(11)
H42A H 0.2869 0.8611 0.7703
H43A H 0.2977 0.9527 0.7917
H44A H 0.2148 0.8814 0.8618
Ag1_2 Ag -0.50000 1.50000 0.50000
Pd1A_2 Pd 0.37336(10) 0.35225(7) 0.63609(8)
O2A_2 O 0.6057(7) 0.4161(6) 0.5825(6)
O5A_2 O 0.5322(10) 0.3708(6) 0.4411(7)
N17 N 0.4728(11) 0.2028(8) 0.3268(9)
O9 O 0.3698(14) 0.2328(19) 0.3598(16)
O10 O 0.525(2) 0.148(2) 0.3782(16)
O11 O 0.523(2) 0.226(3) 0.2422(11)
O12 O 0.1902(10) 0.8132(9) 0.0934(7)
O13 O 0.6344(10) 0.1116(9) 0.0443(8)
O14 O 0.1471(11) 0.1164(8) 0.0085(8)
O15 O 0.8111(9) 0.7069(9) 0.0231(10)
O16 O 0.6750(15) 0.9319(9) 0.1306(9)
O17 O 0.5473(15) 0.4920(10) 0.1666(12)
O18 O 0.2302(17) 0.2041(15) 0.3273(13)
O19 O 0.0529(13) 0.8179(13) 0.0062(11)
O20 O 0.4793(15) 0.5826(13) 0.0259(12)
O21 O 0.1660(17) 0.4674(14) 0.1768(13)
O22 O 0.253(2) 0.6390(18) 0.0775(16)
O23 O 0.314(3) 0.418(2) 0.275(2)
O24 O 0.682(2) 0.3468(17) 0.1469(19)
O25 O 0.303(2) 0.2180(18) 0.1607(17)
O26 O 0.975(2) 0.3912(19) 0.0078(18)
loop_
_geom_bond_atom_site_label_1
_geom_bond_atom_site_label_2
_geom_bond_site_symmetry_1
_geom_bond_site_symmetry_2
Ag1 Pd1 1_555 1_555
Ag2 Pd2 1_555 1_555
Pd1 N2 1_555 1_555
Pd2 N4 1_555 1_555
N1 C1 1_555 1_555
C1 H1 1_555 1_555
H2 C1 1_555 1_555
H3 C1 1_555 1_555
C2 N1 1_555 1_555
O1 C2 1_555 1_555
N2 C2 1_555 1_555
C3 N2 1_555 1_555
O2 Ag1 1_555 1_555
C4 C3 1_555 1_555
C5 N1 1_555 1_555
H4 C5 1_555 1_555
N3 C6 1_555 1_555
C6 H5 1_555 1_555
H6 C6 1_555 1_555
H7 C6 1_555 1_555
C7 N3 1_555 1_555
O3 Ag2 1_555 1_555
N4 C7 1_555 1_555
C8 N4 1_555 1_555
O4 C8 1_555 1_555
C9 C8 1_555 1_555
C10 N3 1_555 1_555
H8 C10 1_555 1_555
N5 C11 1_555 1_555
C11 H9 1_555 1_555
H10 C11 1_555 1_555
H11 C11 1_555 1_555
C12 N5 1_555 1_555
O5 Ag1 1_555 1_555
N6 Pd1 1_555 1_555
C13 N6 1_555 1_555
O6 C13 1_555 1_555
C14 C13 1_555 1_555
C15 N5 1_555 1_555
H12 C15 1_555 1_555
N7 C16 1_555 1_555
C16 H13 1_555 1_555
H14 C16 1_555 1_555
H15 C16 1_555 1_555
C17 N7 1_555 1_555
O7 C17 1_555 1_555
N8 Pd2 1_555 1_555
C18 N8 1_555 1_555
O8 Ag2 1_555 1_555
C19 C18 1_555 1_555
C20 N7 1_555 1_555
H16 C20 1_555 1_555
C21 C4 1_555 1_555
H17 C21 1_555 1_555
H18 C21 1_555 1_555
C22 C14 1_555 1_555
H19 C22 1_555 1_555
H20 C22 1_555 1_555
N9 Pd1 1_555 1_555
N10 N9 1_555 1_555
C23 N10 1_555 1_555
H21 C23 1_555 1_555
C24 C23 1_555 1_555
H22 C24 1_555 1_555
C25 N9 1_555 1_555
H23 C25 1_555 1_555
C26 N10 1_555 1_555
C27 C26 1_555 1_555
H24 C27 1_555 1_555
H25 C27 1_555 1_555
H26 C27 1_555 1_555
C28 C26 1_555 1_555
H27 C28 1_555 1_555
H28 C28 1_555 1_555
H29 C28 1_555 1_555
N11 Pd1 1_555 1_555
N12 C26 1_555 1_555
C29 N12 1_555 1_555
H30 C29 1_555 1_555
C30 C29 1_555 1_555
H31 C30 1_555 1_555
C31 N11 1_555 1_555
H32 C31 1_555 1_555
N13 Pd2 1_555 1_555
N14 N13 1_555 1_555
C32 N14 1_555 1_555
H33 C32 1_555 1_555
C33 C32 1_555 1_555
H34 C33 1_555 1_555
C34 N13 1_555 1_555
H35 C34 1_555 1_555
N15 Pd2 1_555 1_555
N16 N15 1_555 1_555
C35 N16 1_555 1_555
H36 C35 1_555 1_555
C36 C35 1_555 1_555
H37 C36 1_555 1_555
C37 N15 1_555 1_555
H38 C37 1_555 1_555
C38 N14 1_555 1_555
C39 C38 1_555 1_555
H39 C39 1_555 1_555
H40 C39 1_555 1_555
H41 C39 1_555 1_555
C40 C38 1_555 1_555
H42 C40 1_555 1_555
H43 C40 1_555 1_555
H44 C40 1_555 1_555
N17 O9 1_555 1_555
O10 N17 1_555 1_555
O11 N17 1_555 1_555
Pd1A N2A 1_555 1_555
Pd2A Ag2 1_555 1_555
N1A C1A 1_555 1_555
C1A H1A 1_555 1_555
H2A C1A 1_555 1_555
H3A C1A 1_555 1_555
C2A N1A 1_555 1_555
O1A C2A 1_555 1_555
N2A C2A 1_555 1_555
C3A N2A 1_555 1_555
O2A C3A 1_555 1_555
C4A C3A 1_555 1_555
C5A N1A 1_555 1_555
H4A C5A 1_555 1_555
N3A C6A 1_555 1_555
C6A H5A 1_555 1_555
H6A C6A 1_555 1_555
H7A C6A 1_555 1_555
C7A N3A 1_555 1_555
O3A Ag2 1_555 1_555
N4A Pd2A 1_555 1_555
C8A N4A 1_555 1_555
O4A C8A 1_555 1_555
C9A C8A 1_555 1_555
C10A N3A 1_555 1_555
H8A C10A 1_555 1_555
N5A C11A 1_555 1_555
C11A H9A 1_555 1_555
H10A C11A 1_555 1_555
H11A C11A 1_555 1_555
C12A N5A 1_555 1_555
O5A C12A 1_555 1_555
N6A Pd1A 1_555 1_555
C13A N6A 1_555 1_555
O6A C13A 1_555 1_555
C14A C13A 1_555 1_555
C15A N5A 1_555 1_555
H12A C15A 1_555 1_555
N7A C16A 1_555 1_555
C16A H13A 1_555 1_555
H14A C16A 1_555 1_555
H15A C16A 1_555 1_555
C17A N7A 1_555 1_555
O7A C17A 1_555 1_555
N8A Pd2A 1_555 1_555
C18A N8A 1_555 1_555
O8A Ag2 1_555 1_555
C19A C18A 1_555 1_555
C20A N7A 1_555 1_555
H16A C20A 1_555 1_555
C21A C4A 1_555 1_555
H17A C21A 1_555 1_555
H18A C21A 1_555 1_555
C22A C14A 1_555 1_555
H19A C22A 1_555 1_555
H20A C22A 1_555 1_555
N9A Pd1A 1_555 1_555
N10A N9A 1_555 1_555
C23A N10A 1_555 1_555
H21A C23A 1_555 1_555
C24A C23A 1_555 1_555
H22A C24A 1_555 1_555
C25A N9A 1_555 1_555
H23A C25A 1_555 1_555
C26A N10A 1_555 1_555
C27A C26A 1_555 1_555
H24A C27A 1_555 1_555
H25A C27A 1_555 1_555
H26A C27A 1_555 1_555
C28A C26A 1_555 1_555
H27A C28A 1_555 1_555
H28A C28A 1_555 1_555
H29A C28A 1_555 1_555
N11A Pd1A 1_555 1_555
N12A C26A 1_555 1_555
C29A N12A 1_555 1_555
H30A C29A 1_555 1_555
C30A C29A 1_555 1_555
H31A C30A 1_555 1_555
C31A N11A 1_555 1_555
H32A C31A 1_555 1_555
N13A Pd2A 1_555 1_555
N14A N13A 1_555 1_555
C32A N14A 1_555 1_555
H33A C32A 1_555 1_555
C33A C32A 1_555 1_555
H34A C33A 1_555 1_555
C34A N13A 1_555 1_555
H35A C34A 1_555 1_555
N15A Pd2A 1_555 1_555
N16A N15A 1_555 1_555
C35A N16A 1_555 1_555
H36A C35A 1_555 1_555
C36A C35A 1_555 1_555
H37A C36A 1_555 1_555
C37A N15A 1_555 1_555
H38A C37A 1_555 1_555
C38A N14A 1_555 1_555
C39A C38A 1_555 1_555
H39A C39A 1_555 1_555
H40A C39A 1_555 1_555
H41A C39A 1_555 1_555
C40A C38A 1_555 1_555
H42A C40A 1_555 1_555
H43A C40A 1_555 1_555
H44A C40A 1_555 1_555
Ag1_2 Pd1A 1_555 1_555
Pd1A_2 Ag1 1_555 1_555
O2A_2 Ag1 1_555 1_555
O5A_2 Ag1 1_555 1_555
C3 O2 1_555 1_555
C4 C5 1_555 1_555
C7 O3 1_555 1_555
C9 C10 1_555 1_555
C9 C21 1_555 1_555
C12 O5 1_555 1_555
C12 N6 1_555 1_555
C14 C15 1_555 1_555
C17 N8 1_555 1_555
C18 O8 1_555 1_555
C19 C20 1_555 1_555
C19 C22 1_555 1_555
C24 C25 1_555 1_555
N11 N12 1_555 1_555
C30 C31 1_555 1_555
C33 C34 1_555 1_555
N16 C38 1_555 1_555
C36 C37 1_555 1_555
O2A Ag1_2 1_555 1_555
C4A C5A 1_555 1_555
C7A O3A 1_555 1_555
C7A N4A 1_555 1_555
C9A C10A 1_555 1_555
C9A C21A 1_555 1_555
C12A N6A 1_555 1_555
O5A Ag1_2 1_555 1_555
C14A C15A 1_555 1_555
C17A N8A 1_555 1_555
C18A O8A 1_555 1_555
C19A C20A 1_555 1_555
C19A C22A 1_555 1_555
C24A C25A 1_555 1_555
N11A N12A 1_555 1_555
C30A C31A 1_555 1_555
C33A C34A 1_555 1_555
N16A C38A 1_555 1_555
C36A C37A 1_555 1_555

#END
