
#######################################################################
#
#                 Cambridge Crystallographic Data Centre
#                                CCDC 
#
#######################################################################
#
# If this CIF has been generated from an entry in the Cambridge 
# Structural Database, then it will include bibliographic, chemical, 
# crystal, experimental, refinement or atomic coordinate data resulting 
# from the CCDC's data processing and validation procedures.
#
#######################################################################

data_FOGPIC
_symmetry_cell_setting           monoclinic
_symmetry_space_group_name_H-M   'P 21/c'
_symmetry_Int_Tables_number      14
_space_group_name_Hall           '-P 2ybc'
loop_
_symmetry_equiv_pos_site_id
_symmetry_equiv_pos_as_xyz
1 x,y,z
2 -x,1/2+y,1/2-z
3 -x,-y,-z
4 x,1/2-y,1/2+z
_cell_length_a                   16.0696(4)
_cell_length_b                   9.4142(3)
_cell_length_c                   19.7622(5)
_cell_angle_alpha                90
_cell_angle_beta                 105.736(3)
_cell_angle_gamma                90
_cell_volume                     2877.63
loop_
_atom_site_label
_atom_site_type_symbol
_atom_site_fract_x
_atom_site_fract_y
_atom_site_fract_z
N1 N 0.38209(15) 0.5812(3) 0.27257(12)
N2 N 0.47845(15) 0.5027(3) 0.21886(12)
C1 C 0.46050(17) 0.5276(3) 0.28134(14)
O1 O 0.81603(16) 0.2735(3) 0.19034(14)
C2 C 0.7976(2) 0.3923(4) 0.16265(16)
C3 C 0.87351(18) 0.4888(3) 0.16163(15)
C4 C 0.91378(18) 0.5832(3) 0.21532(14)
Ag1 Ag 0.686549(15) 0.35810(3) 0.649508(12)
N3 N 0.72900(15) 0.6090(3) 0.47521(12)
N4 N 0.69284(15) 0.4537(3) 0.54723(11)
C5 C 0.55234(18) 0.3745(3) 0.46326(14)
C6 C 0.62908(17) 0.4526(3) 0.48360(13)
C7 C 0.40597(18) 0.5433(3) 0.16593(14)
C8 C 0.65096(17) 0.5500(3) 0.43797(14)
C9 C 0.81459(18) 0.5410(3) 0.36853(15)
H1 H 0.7941 0.4684 0.3916
C10 C 0.84831(18) 0.5086(3) 0.31298(15)
H2 H 0.8500 0.4143 0.2994
C11 C 0.34692(18) 0.5929(3) 0.20047(14)
C12 C 0.81104(18) 0.6801(3) 0.39022(14)
C13 C 0.87956(19) 0.6129(3) 0.27713(15)
C14 C 0.59917(18) 0.5758(3) 0.37042(14)
H3 H 0.6151 0.6399 0.3403
C15 C 0.49965(18) 0.4023(3) 0.39620(15)
H4 H 0.4474 0.3541 0.3810
C16 C 0.52211(17) 0.4999(3) 0.35056(14)
C17 C 0.3879(2) 0.5404(4) 0.09329(16)
H5 H 0.4272 0.5047 0.0706
C18 C 0.75077(18) 0.5479(3) 0.54039(14)
C19 C 0.7726(2) 0.7239(3) 0.44897(16)
H6 H 0.8184 0.7610 0.4876
H7 H 0.7315 0.8001 0.4322
C20 C 0.3084(2) 0.5933(4) 0.05641(16)
H8 H 0.2941 0.5944 0.0076
C21 C 0.52679(19) 0.2696(3) 0.51117(16)
H9 H 0.5744 0.2071 0.5308
H10 H 0.4782 0.2151 0.4850
H11 H 0.5114 0.3194 0.5484
C22 C 0.2674(2) 0.6454(4) 0.16259(17)
H12 H 0.2276 0.6797 0.1851
C23 C 0.9870(2) 0.6571(4) 0.20960(18)
H13 H 1.0153 0.7176 0.2457
C24 C 0.9228(4) 0.3947(8) 0.5609(3)
H14 H 0.8806 0.3791 0.5168
H15 H 0.9152 0.3258 0.5946
H16 H 0.9798 0.3854 0.5547
C25 C 1.0182(2) 0.6420(4) 0.1513(2)
H17 H 1.0676 0.6908 0.1488
C26 C 0.9052(2) 0.4795(4) 0.10280(18)
H18 H 0.8773 0.4204 0.0659
C27 C 0.5559(2) 0.4370(5) 0.20727(19)
H19 H 0.5833 0.5024 0.1828
H20 H 0.5400 0.3524 0.1797
H21 H 0.5953 0.4130 0.2517
C28 C 0.8780(2) 0.7528(3) 0.30028(17)
H22 H 0.9005 0.8248 0.2783
C29 C 0.2494(2) 0.6448(4) 0.09011(18)
H23 H 0.1965 0.6797 0.0634
C30 C 0.9764(2) 0.5550(5) 0.0974(2)
H24 H 0.9960 0.5470 0.0574
C31 C 0.8309(2) 0.5843(4) 0.59703(16)
H25 H 0.8251 0.5484 0.6415
H26 H 0.8360 0.6869 0.6008
C32 C 0.9131(3) 0.5243(7) 0.5841(4)
H27 H 0.9288 0.5891 0.5514
H28 H 0.9574 0.5342 0.6283
C33 C 0.8436(2) 0.7861(4) 0.35539(17)
H29 H 0.8423 0.8803 0.3693
O2 O 0.72356(15) 0.4321(4) 0.13297(15)
N1B N 0.61791(15) 0.4188(3) 0.72743(12)
O1C O 0.81603(16) 0.2265(3) 0.69034(14)
Ag1B Ag 0.313451(15) 0.64190(3) 0.350492(12)
Ag1C Ag 0.686549(15) 0.14190(3) 0.149508(12)
loop_
_geom_bond_atom_site_label_1
_geom_bond_atom_site_label_2
_geom_bond_site_symmetry_1
_geom_bond_site_symmetry_2
N1 C1 1_555 1_555
N2 C1 1_555 1_555
C1 C16 1_555 1_555
O1 C2 1_555 1_555
C2 C3 1_555 1_555
C3 C4 1_555 1_555
C4 C13 1_555 1_555
Ag1 N4 1_555 1_555
N3 C8 1_555 1_555
N4 C6 1_555 1_555
C5 C6 1_555 1_555
C6 C8 1_555 1_555
C7 N2 1_555 1_555
C8 C14 1_555 1_555
C9 H1 1_555 1_555
C10 C9 1_555 1_555
H2 C10 1_555 1_555
C11 N1 1_555 1_555
C12 C9 1_555 1_555
C13 C10 1_555 1_555
C14 H3 1_555 1_555
C15 C5 1_555 1_555
H4 C15 1_555 1_555
C16 C14 1_555 1_555
C17 C7 1_555 1_555
H5 C17 1_555 1_555
C18 N3 1_555 1_555
C19 N3 1_555 1_555
H6 C19 1_555 1_555
H7 C19 1_555 1_555
C20 C17 1_555 1_555
H8 C20 1_555 1_555
C21 C5 1_555 1_555
H9 C21 1_555 1_555
H10 C21 1_555 1_555
H11 C21 1_555 1_555
C22 C11 1_555 1_555
H12 C22 1_555 1_555
C23 C4 1_555 1_555
H13 C23 1_555 1_555
C24 H14 1_555 1_555
H15 C24 1_555 1_555
H16 C24 1_555 1_555
C25 C23 1_555 1_555
H17 C25 1_555 1_555
C26 C3 1_555 1_555
H18 C26 1_555 1_555
C27 N2 1_555 1_555
H19 C27 1_555 1_555
H20 C27 1_555 1_555
H21 C27 1_555 1_555
C28 C13 1_555 1_555
H22 C28 1_555 1_555
C29 C20 1_555 1_555
H23 C29 1_555 1_555
C30 C25 1_555 1_555
H24 C30 1_555 1_555
C31 C18 1_555 1_555
H25 C31 1_555 1_555
H26 C31 1_555 1_555
C32 C24 1_555 1_555
H27 C32 1_555 1_555
H28 C32 1_555 1_555
C33 C12 1_555 1_555
H29 C33 1_555 1_555
O2 C2 1_555 1_555
N1B Ag1 1_555 1_555
O1C Ag1 1_555 1_555
Ag1B N1 1_555 1_555
Ag1C O1 1_555 1_555
N4 C18 1_555 1_555
C7 C11 1_555 1_555
C12 C19 1_555 1_555
C15 C16 1_555 1_555
C22 C29 1_555 1_555
C26 C30 1_555 1_555
C28 C33 1_555 1_555
C31 C32 1_555 1_555

#END
