
#######################################################################
#
#                 Cambridge Crystallographic Data Centre
#                                CCDC 
#
#######################################################################
#
# If this CIF has been generated from an entry in the Cambridge 
# Structural Database, then it will include bibliographic, chemical, 
# crystal, experimental, refinement or atomic coordinate data resulting 
# from the CCDC's data processing and validation procedures.
#
#######################################################################

data_FOGSOL
_symmetry_cell_setting           triclinic
_symmetry_space_group_name_H-M   'P -1'
_symmetry_Int_Tables_number      2
_space_group_name_Hall           '-P 1'
loop_
_symmetry_equiv_pos_site_id
_symmetry_equiv_pos_as_xyz
1 x,y,z
2 -x,-y,-z
_cell_length_a                   8.9485(4)
_cell_length_b                   13.0362(6)
_cell_length_c                   13.0950(6)
_cell_angle_alpha                82.8370(10)
_cell_angle_beta                 71.0060(10)
_cell_angle_gamma                87.4860(10)
_cell_volume                     1433.13
loop_
_atom_site_label
_atom_site_type_symbol
_atom_site_fract_x
_atom_site_fract_y
_atom_site_fract_z
Cd1 Cd 0.0000 1.0000 0.5000
Cd2 Cd 1.0000 0.5000 0.5000
P1 P -0.06798(8) 1.09265(5) 0.73854(5)
P2 P 1.02428(9) 0.58428(6) 0.73411(6)
N1 N 0.2496(3) 0.92717(18) 0.47301(18)
N2 N 0.7758(3) 0.59357(18) 0.5184(2)
C1 C 0.0276(4) 1.1069(2) 0.8383(2)
H1 H 0.0843 1.1720 0.8178
H2 H -0.0538 1.1115 0.9078
C2 C 0.1423(3) 1.0218(2) 0.8538(2)
C3 C 0.1155(3) 0.9181(2) 0.8530(2)
H3 H 0.0225 0.8983 0.8438
C4 C 0.2264(4) 0.8425(2) 0.8658(2)
H4 H 0.2051 0.7733 0.8658
C5 C 0.3677(3) 0.8688(2) 0.8786(2)
C6 C 0.3914(4) 0.9731(2) 0.8818(2)
H5 H 0.4831 0.9933 0.8926
C7 C 0.2808(4) 1.0475(2) 0.8694(2)
H6 H 0.3004 1.1165 0.8717
C8 C 0.4929(3) 0.7913(2) 0.8845(2)
C9 C 0.5012(4) 0.6953(2) 0.8471(3)
H7 H 0.4207 0.6759 0.8231
C10 C 0.6257(4) 0.6279(2) 0.8446(3)
H8 H 0.6279 0.5644 0.8186
C11 C 0.7471(3) 0.6539(2) 0.8803(2)
C12 C 0.7376(3) 0.7478(2) 0.9211(2)
H9 H 0.8160 0.7658 0.9479
C13 C 0.6140(3) 0.8151(2) 0.9227(2)
H10 H 0.6112 0.8779 0.9500
C14 C 0.8901(4) 0.5851(2) 0.8720(2)
H11 H 0.8546 0.5150 0.9012
H12 H 0.9471 0.6081 0.9165
C15 C -0.2993(4) 1.2254(3) 0.8164(3)
H13 H -0.3894 1.2206 0.7915
H14 H -0.3133 1.1750 0.8799
C16 C -0.2941(7) 1.3260(3) 0.8459(4)
H15 H -0.3906 1.3394 0.9020
H16 H -0.2817 1.3762 0.7835
H17 H -0.2065 1.3305 0.8722
C17 C 1.1793(6) 0.4207(4) 0.7837(5)
H18 H 1.1097 0.4049 0.8578
H19 H 1.1383 0.3864 0.7369
C18 C 1.3347(7) 0.3812(6) 0.7760(8)
H20 H 1.3299 0.3075 0.7944
H21 H 1.3733 0.4119 0.8255
H22 H 1.4046 0.3977 0.7031
C19 C 0.3009(3) 0.8867(2) 0.5531(2)
H23 H 0.2374 0.8738 0.6253
N3 N 0.4567(3) 0.86654(17) 0.51668(19)
C20 C 0.5080(3) 0.8954(2) 0.4068(2)
H24 H 0.6105 0.8908 0.3594
C21 C 0.3801(3) 0.9320(2) 0.3812(2)
H25 H 0.3801 0.9568 0.3115
C22 C 0.5532(4) 0.8252(2) 0.5823(3)
H26 H 0.6434 0.8701 0.5673
H27 H 0.4919 0.8244 0.6586
N4 N 0.6085(3) 0.72168(17) 0.56075(19)
C23 C 0.7614(3) 0.6937(2) 0.5213(2)
H28 H 0.8459 0.7395 0.4991
C24 C 0.6248(4) 0.5558(2) 0.5579(3)
H29 H 0.5981 0.4865 0.5652
C25 C 0.5211(4) 0.6334(2) 0.5847(3)
H30 H 0.4117 0.6282 0.6138
O1 O 0.0520(2) 1.08871(14) 0.62790(14)
O2 O -0.1860(2) 1.00748(14) 0.78135(15)
O3 O -0.1555(2) 1.20132(14) 0.73092(15)
O4 O 1.0692(3) 0.69179(16) 0.68104(18)
O5 O 0.9572(3) 0.51566(16) 0.67731(16)
O6 O 1.1791(3) 0.53313(19) 0.7525(2)
O7 O 0.1121(3) 1.13501(15) 0.36031(16)
H31 H 0.062(4) 1.188(2) 0.347(3)
H32 H 0.153(4) 1.109(2) 0.304(2)
O8 O 1.1515(3) 0.65715(16) 0.46108(18)
H33 H 1.131(5) 0.682(3) 0.5217(19)
H34 H 1.142(5) 0.705(2) 0.413(2)
P1A P 0.06798(8) 0.90735(5) 0.26146(5)
P2A P -1.02428(9) 1.41572(6) 0.26589(6)
N1A N -0.2496(3) 1.07283(18) 0.52699(18)
N2A N -0.7758(3) 1.40643(18) 0.4816(2)
C1A C -0.0276(4) 0.8931(2) 0.1617(2)
H1A H -0.0843 0.8280 0.1822
H2A H 0.0538 0.8885 0.0922
C2A C -0.1423(3) 0.9782(2) 0.1462(2)
C3A C -0.1155(3) 1.0819(2) 0.1470(2)
H3A H -0.0225 1.1017 0.1562
C4A C -0.2264(4) 1.1575(2) 0.1342(2)
H4A H -0.2051 1.2267 0.1342
C5A C -0.3677(3) 1.1312(2) 0.1214(2)
C6A C -0.3914(4) 1.0269(2) 0.1182(2)
H5A H -0.4831 1.0067 0.1074
C7A C -0.2808(4) 0.9525(2) 0.1306(2)
H6A H -0.3004 0.8835 0.1283
C8A C -0.4929(3) 1.2087(2) 0.1155(2)
C9A C -0.5012(4) 1.3047(2) 0.1529(3)
H7A H -0.4207 1.3241 0.1769
C10A C -0.6257(4) 1.3721(2) 0.1554(3)
H8A H -0.6279 1.4356 0.1814
C11A C -0.7471(3) 1.3461(2) 0.1197(2)
C12A C -0.7376(3) 1.2522(2) 0.0789(2)
H9A H -0.8160 1.2342 0.0521
C13A C -0.6140(3) 1.1849(2) 0.0773(2)
H10A H -0.6112 1.1221 0.0500
C14A C -0.8901(4) 1.4149(2) 0.1280(2)
H11A H -0.8546 1.4850 0.0988
H12A H -0.9471 1.3919 0.0835
C15A C 0.2993(4) 0.7746(3) 0.1836(3)
H13A H 0.3894 0.7794 0.2085
H14A H 0.3133 0.8250 0.1201
C16A C 0.2941(7) 0.6740(3) 0.1541(4)
H15A H 0.3906 0.6606 0.0980
H16A H 0.2817 0.6238 0.2165
H17A H 0.2065 0.6695 0.1278
C17A C -1.1793(6) 1.5793(4) 0.2163(5)
H18A H -1.1097 1.5951 0.1422
H19A H -1.1383 1.6136 0.2631
C18A C -1.3347(7) 1.6188(6) 0.2240(8)
H20A H -1.3299 1.6925 0.2056
H21A H -1.3733 1.5881 0.1745
H22A H -1.4046 1.6023 0.2969
C19A C -0.3009(3) 1.1133(2) 0.4469(2)
H23A H -0.2374 1.1262 0.3747
N3A N -0.4567(3) 1.13346(17) 0.48332(19)
C20A C -0.5080(3) 1.1046(2) 0.5932(2)
H24A H -0.6105 1.1092 0.6406
C21A C -0.3801(3) 1.0680(2) 0.6188(2)
H25A H -0.3801 1.0432 0.6885
C22A C -0.5532(4) 1.1748(2) 0.4177(3)
H26A H -0.6434 1.1299 0.4327
H27A H -0.4919 1.1756 0.3414
N4A N -0.6085(3) 1.27832(17) 0.43925(19)
C23A C -0.7614(3) 1.3063(2) 0.4787(2)
H28A H -0.8459 1.2605 0.5009
C24A C -0.6248(4) 1.4442(2) 0.4421(3)
H29A H -0.5981 1.5135 0.4348
C25A C -0.5211(4) 1.3666(2) 0.4153(3)
H30A H -0.4117 1.3718 0.3862
O1A O -0.0520(2) 0.91129(14) 0.37210(14)
O2A O 0.1860(2) 0.99252(14) 0.21865(15)
O3A O 0.1555(2) 0.79868(14) 0.26908(15)
O4A O -1.0692(3) 1.30821(16) 0.31896(18)
O5A O -0.9572(3) 1.48434(16) 0.32269(16)
O6A O -1.1791(3) 1.46687(19) 0.2475(2)
O7A O -0.1121(3) 0.86499(15) 0.63969(16)
H31A H -0.062(4) 0.812(2) 0.653(3)
H32A H -0.153(4) 0.891(2) 0.696(2)
O8A O 0.8485(3) 0.34285(16) 0.53892(18)
H33A H 0.869(5) 0.318(3) 0.4783(19)
H34A H 0.858(5) 0.295(2) 0.587(2)
Cd2_2 Cd -1.0000 1.5000 0.5000
N2A_2 N 1.2242(3) 0.40643(18) 0.4816(2)
O5A_2 O 1.0428(3) 0.48434(16) 0.32269(16)
loop_
_geom_bond_atom_site_label_1
_geom_bond_atom_site_label_2
_geom_bond_site_symmetry_1
_geom_bond_site_symmetry_2
Cd1 N1 1_555 1_555
Cd2 N2 1_555 1_555
P1 C1 1_555 1_555
P2 C14 1_555 1_555
N1 C19 1_555 1_555
N2 C23 1_555 1_555
C1 H1 1_555 1_555
H2 C1 1_555 1_555
C2 C1 1_555 1_555
C3 C2 1_555 1_555
H3 C3 1_555 1_555
C4 C3 1_555 1_555
H4 C4 1_555 1_555
C5 C4 1_555 1_555
C6 C5 1_555 1_555
H5 C6 1_555 1_555
C7 C2 1_555 1_555
H6 C7 1_555 1_555
C8 C5 1_555 1_555
C9 C8 1_555 1_555
H7 C9 1_555 1_555
C10 C9 1_555 1_555
H8 C10 1_555 1_555
C11 C10 1_555 1_555
C12 C11 1_555 1_555
H9 C12 1_555 1_555
C13 C8 1_555 1_555
H10 C13 1_555 1_555
C14 C11 1_555 1_555
H11 C14 1_555 1_555
H12 C14 1_555 1_555
C15 H13 1_555 1_555
H14 C15 1_555 1_555
C16 C15 1_555 1_555
H15 C16 1_555 1_555
H16 C16 1_555 1_555
H17 C16 1_555 1_555
C17 H18 1_555 1_555
H19 C17 1_555 1_555
C18 C17 1_555 1_555
H20 C18 1_555 1_555
H21 C18 1_555 1_555
H22 C18 1_555 1_555
C19 H23 1_555 1_555
N3 C19 1_555 1_555
C20 N3 1_555 1_555
H24 C20 1_555 1_555
C21 N1 1_555 1_555
H25 C21 1_555 1_555
C22 N3 1_555 1_555
H26 C22 1_555 1_555
H27 C22 1_555 1_555
N4 C22 1_555 1_555
C23 N4 1_555 1_555
H28 C23 1_555 1_555
C24 N2 1_555 1_555
H29 C24 1_555 1_555
C25 N4 1_555 1_555
H30 C25 1_555 1_555
O1 Cd1 1_555 1_555
O2 P1 1_555 1_555
O3 P1 1_555 1_555
O4 P2 1_555 1_555
O5 Cd2 1_555 1_555
O6 P2 1_555 1_555
O7 Cd1 1_555 1_555
H31 O7 1_555 1_555
H32 O7 1_555 1_555
O8 Cd2 1_555 1_555
H33 O8 1_555 1_555
H34 O8 1_555 1_555
P1A C1A 1_555 1_555
P2A C14A 1_555 1_555
N1A Cd1 1_555 1_555
N2A C23A 1_555 1_555
C1A H1A 1_555 1_555
H2A C1A 1_555 1_555
C2A C1A 1_555 1_555
C3A C2A 1_555 1_555
H3A C3A 1_555 1_555
C4A C3A 1_555 1_555
H4A C4A 1_555 1_555
C5A C4A 1_555 1_555
C6A C5A 1_555 1_555
H5A C6A 1_555 1_555
C7A C2A 1_555 1_555
H6A C7A 1_555 1_555
C8A C5A 1_555 1_555
C9A C8A 1_555 1_555
H7A C9A 1_555 1_555
C10A C9A 1_555 1_555
H8A C10A 1_555 1_555
C11A C10A 1_555 1_555
C12A C11A 1_555 1_555
H9A C12A 1_555 1_555
C13A C8A 1_555 1_555
H10A C13A 1_555 1_555
C14A C11A 1_555 1_555
H11A C14A 1_555 1_555
H12A C14A 1_555 1_555
C15A H13A 1_555 1_555
H14A C15A 1_555 1_555
C16A C15A 1_555 1_555
H15A C16A 1_555 1_555
H16A C16A 1_555 1_555
H17A C16A 1_555 1_555
C17A H18A 1_555 1_555
H19A C17A 1_555 1_555
C18A C17A 1_555 1_555
H20A C18A 1_555 1_555
H21A C18A 1_555 1_555
H22A C18A 1_555 1_555
C19A N1A 1_555 1_555
H23A C19A 1_555 1_555
N3A C19A 1_555 1_555
C20A N3A 1_555 1_555
H24A C20A 1_555 1_555
C21A N1A 1_555 1_555
H25A C21A 1_555 1_555
C22A N3A 1_555 1_555
H26A C22A 1_555 1_555
H27A C22A 1_555 1_555
N4A C22A 1_555 1_555
C23A N4A 1_555 1_555
H28A C23A 1_555 1_555
C24A N2A 1_555 1_555
H29A C24A 1_555 1_555
C25A N4A 1_555 1_555
H30A C25A 1_555 1_555
O1A Cd1 1_555 1_555
O2A P1A 1_555 1_555
O3A P1A 1_555 1_555
O4A P2A 1_555 1_555
O5A P2A 1_555 1_555
O6A P2A 1_555 1_555
O7A Cd1 1_555 1_555
H31A O7A 1_555 1_555
H32A O7A 1_555 1_555
O8A Cd2 1_555 1_555
H33A O8A 1_555 1_555
H34A O8A 1_555 1_555
Cd2_2 N2A 1_555 1_555
N2A_2 Cd2 1_555 1_555
O5A_2 Cd2 1_555 1_555
P1 O1 1_555 1_555
P2 O5 1_555 1_555
C6 C7 1_555 1_555
C12 C13 1_555 1_555
C15 O3 1_555 1_555
C17 O6 1_555 1_555
C20 C21 1_555 1_555
C24 C25 1_555 1_555
P1A O1A 1_555 1_555
C6A C7A 1_555 1_555
C12A C13A 1_555 1_555
C15A O3A 1_555 1_555
C17A O6A 1_555 1_555
C20A C21A 1_555 1_555
C24A C25A 1_555 1_555
O5A Cd2_2 1_555 1_555

#END
