
#######################################################################
#
#                 Cambridge Crystallographic Data Centre
#                                CCDC 
#
#######################################################################
#
# If this CIF has been generated from an entry in the Cambridge 
# Structural Database, then it will include bibliographic, chemical, 
# crystal, experimental, refinement or atomic coordinate data resulting 
# from the CCDC's data processing and validation procedures.
#
#######################################################################

data_FOHCAH
_symmetry_cell_setting           monoclinic
_symmetry_space_group_name_H-M   'P 21/c'
_symmetry_Int_Tables_number      14
_space_group_name_Hall           '-P 2ybc'
loop_
_symmetry_equiv_pos_site_id
_symmetry_equiv_pos_as_xyz
1 x,y,z
2 -x,1/2+y,1/2-z
3 -x,-y,-z
4 x,1/2-y,1/2+z
_cell_length_a                   12.070(2)
_cell_length_b                   7.7088(15)
_cell_length_c                   7.3332(15)
_cell_angle_alpha                90
_cell_angle_beta                 91.42(3)
_cell_angle_gamma                90
_cell_volume                     682.11
loop_
_atom_site_label
_atom_site_type_symbol
_atom_site_fract_x
_atom_site_fract_y
_atom_site_fract_z
Mg1 Mg 0.5000 0.5000 0.0000
O1 O 0.39720(19) 0.4564(3) 0.2107(3)
O2 O 0.46913(18) 0.2463(3) 0.3838(3)
O3 O 0.19968(19) 0.4225(4) 0.3396(3)
O4 O 0.6278(2) 0.3916(3) 0.1577(4)
C1 C 0.3919(3) 0.3474(4) 0.3356(5)
C2 C 0.2849(3) 0.3374(5) 0.4409(5)
C3 C 0.1010(3) 0.4576(5) 0.4257(5)
C4 C 0.0726(3) 0.3898(5) 0.5930(5)
C5 C 0.0284(3) 0.5654(5) 0.3338(6)
C6 C 0.7304(3) 0.3264(6) 0.0986(7)
H1 H 0.2951 0.3926 0.5590
H2 H 0.2649 0.2171 0.4604
H3 H 0.1207 0.3152 0.6556
H4 H 0.0472 0.6093 0.2206
H5 H 0.7198 0.2123 0.0487
H6 H 0.7820 0.3209 0.2002
H7 H 0.7590 0.4017 0.0068
H8 H 0.596(3) 0.321(4) 0.227(5)
Mg1C Mg 0.5000 0.0000 0.5000
Mg1_2 Mg -0.5000 0.5000 1.0000
Mg1C_2 Mg -0.5000 1.0000 0.5000
O1B O -0.39720(19) 0.5436(3) 0.7893(3)
O1B_2 O 0.60280(19) 0.5436(3) -0.2107(3)
O2B O -0.46913(18) 0.7537(3) 0.6162(3)
O2C O 0.46913(18) 0.2537(3) -0.1162(3)
O2A O 0.53087(18) 0.7463(3) 0.1162(3)
O3B O -0.19968(19) 0.5775(4) 0.6604(3)
O4B O 0.3722(2) 0.6084(3) -0.1577(4)
C1B C -0.3919(3) 0.6526(4) 0.6644(5)
C2B C -0.2849(3) 0.6626(5) 0.5591(5)
C3B C -0.1010(3) 0.5424(5) 0.5743(5)
C4B C -0.0726(3) 0.6102(5) 0.4070(5)
C5B C -0.0284(3) 0.4346(5) 0.6662(6)
C6B C 0.2696(3) 0.6736(6) -0.0986(7)
H1B H -0.2951 0.6074 0.4410
H2B H -0.2649 0.7829 0.5396
H3B H -0.1207 0.6848 0.3444
H4B H -0.0472 0.3907 0.7794
H5B H 0.2802 0.7877 -0.0487
H6B H 0.2180 0.6791 -0.2002
H7B H 0.2410 0.5983 -0.0068
H8B H 0.404(3) 0.679(4) -0.227(5)
loop_
_geom_bond_atom_site_label_1
_geom_bond_atom_site_label_2
_geom_bond_site_symmetry_1
_geom_bond_site_symmetry_2
Mg1 O1 1_555 1_555
O1 C1 1_555 1_555
O2 C1 1_555 1_555
O3 C2 1_555 1_555
O4 Mg1 1_555 1_555
C1 C2 1_555 1_555
C2 H1 1_555 1_555
C3 O3 1_555 1_555
C4 C3 1_555 1_555
C5 C3 1_555 1_555
C6 O4 1_555 1_555
H2 C2 1_555 1_555
H3 C4 1_555 1_555
H4 C5 1_555 1_555
H5 C6 1_555 1_555
H6 C6 1_555 1_555
H7 C6 1_555 1_555
H8 O4 1_555 1_555
Mg1C O2 1_555 1_555
Mg1_2 O1B 1_555 1_555
Mg1C_2 O2B 1_555 1_555
O1B C1B 1_555 1_555
O1B_2 Mg1 1_555 1_555
O2B C1B 1_555 1_555
O2C Mg1 1_555 1_555
O2A Mg1 1_555 1_555
O3B C2B 1_555 1_555
O4B Mg1 1_555 1_555
C1B C2B 1_555 1_555
C2B H1B 1_555 1_555
C3B O3B 1_555 1_555
C4B C5 1_555 1_555
C5B C4 1_555 1_555
C6B O4B 1_555 1_555
H2B C2B 1_555 1_555
H3B C4B 1_555 1_555
H4B C5B 1_555 1_555
H5B C6B 1_555 1_555
H6B C6B 1_555 1_555
H7B C6B 1_555 1_555
H8B O4B 1_555 1_555
C3B C4B 1_555 1_555
C3B C5B 1_555 1_555

#END
