
#######################################################################
#
#                 Cambridge Crystallographic Data Centre
#                                CCDC 
#
#######################################################################
#
# If this CIF has been generated from an entry in the Cambridge 
# Structural Database, then it will include bibliographic, chemical, 
# crystal, experimental, refinement or atomic coordinate data resulting 
# from the CCDC's data processing and validation procedures.
#
#######################################################################

data_FOHKIY
_symmetry_cell_setting           monoclinic
_symmetry_space_group_name_H-M   'C 2/c'
_symmetry_Int_Tables_number      15
_space_group_name_Hall           '-C 2yn'
loop_
_symmetry_equiv_pos_site_id
_symmetry_equiv_pos_as_xyz
1 x,y,z
2 -x,y,1/2-z
3 1/2+x,1/2+y,z
4 1/2-x,1/2+y,1/2-z
5 -x,-y,-z
6 x,-y,1/2+z
7 1/2-x,1/2-y,-z
8 1/2+x,1/2-y,1/2+z
_cell_length_a                   14.048(5)
_cell_length_b                   11.828(5)
_cell_length_c                   10.853(5)
_cell_angle_alpha                90
_cell_angle_beta                 111.875(5)
_cell_angle_gamma                90
_cell_volume                     1673.49
loop_
_atom_site_label
_atom_site_type_symbol
_atom_site_fract_x
_atom_site_fract_y
_atom_site_fract_z
Zn1 Zn 1.0000 0.45042(3) 0.2500
O1 O 1.08960(15) 0.57712(17) 0.38648(19)
O2 O 1.10449(16) 0.46204(15) 0.14784(19)
N1 N 0.88048(18) 0.1716(2) -0.0077(2)
O3 O 1.1929(2) 0.6392(2) 0.2869(2)
C1 C 0.8567(2) 0.2423(2) 0.1641(3)
H1 H 0.8356 0.2516 0.2351
C2 C 0.8851(3) 0.0933(3) -0.1104(3)
H2 H 0.9086 0.1338 -0.1715
H3 H 0.8168 0.0645 -0.1602
C3 C 1.1616(2) 0.6386(2) 0.3794(3)
N2 N 0.91347(17) 0.31933(19) 0.1250(2)
C4 C 0.9262(2) 0.2731(2) 0.0213(3)
H4 H 0.9623 0.3067 -0.0256
C5 C 1.2112(2) 0.7170(2) 0.4940(3)
H5 H 1.1850 0.7188 0.5611
C6 C 0.8364(2) 0.1512(2) 0.0835(3)
H6 H 0.7998 0.0871 0.0889
C7 C 0.9555(5) -0.0031(6) -0.0513(5)
H7 H 0.9149 -0.0589 -0.0271
H8 H 0.9712 -0.0360 -0.1235
O1F O 1.41040(15) 0.92288(17) 0.61352(19)
O3F O 1.3071(2) 0.8608(2) 0.7131(2)
C3F C 1.3384(2) 0.8614(2) 0.6206(3)
C5F C 1.2888(2) 0.7830(2) 0.5060(3)
H5F H 1.3150 0.7812 0.4389
N1D N 1.11952(18) -0.1716(2) 0.0077(2)
C1D C 1.1433(2) -0.2423(2) -0.1641(3)
H1D H 1.1644 -0.2516 -0.2351
C2D C 1.1149(3) -0.0933(3) 0.1104(3)
H2D H 1.0914 -0.1338 0.1715
H3D H 1.1832 -0.0645 0.1602
N2D N 1.08653(17) -0.31933(19) -0.1250(2)
C4D C 1.0738(2) -0.2731(2) -0.0213(3)
H4D H 1.0377 -0.3067 0.0256
C6D C 1.1636(2) -0.1512(2) -0.0835(3)
H6D H 1.2002 -0.0871 -0.0889
C7D C 1.0445(5) 0.0031(6) 0.0513(5)
H7D H 1.0851 0.0589 0.0271
H8D H 1.0288 0.0360 0.1235
O2A O 0.89551(16) 0.46204(15) 0.35216(19)
Zn1D Zn 1.0000 -0.45042(3) -0.2500
Zn1F Zn 1.5000 1.04958(3) 0.7500
O1A O 0.91040(15) 0.57712(17) 0.11352(19)
N2A N 1.08653(17) 0.31933(19) 0.3750(2)
loop_
_geom_bond_atom_site_label_1
_geom_bond_atom_site_label_2
_geom_bond_site_symmetry_1
_geom_bond_site_symmetry_2
Zn1 O1 1_555 1_555
O1 C3 1_555 1_555
O2 Zn1 1_555 1_555
N1 C2 1_555 1_555
O3 C3 1_555 1_555
C1 H1 1_555 1_555
C2 H2 1_555 1_555
H3 C2 1_555 1_555
C3 C5 1_555 1_555
N2 Zn1 1_555 1_555
C4 N1 1_555 1_555
H4 C4 1_555 1_555
C5 H5 1_555 1_555
C6 N1 1_555 1_555
H6 C6 1_555 1_555
C7 C2 1_555 1_555
H7 C7 1_555 1_555
H8 C7 1_555 1_555
O1F C3F 1_555 1_555
O3F C3F 1_555 1_555
C3F C5F 1_555 1_555
C5F C5 1_555 1_555
H5F C5F 1_555 1_555
N1D C2D 1_555 1_555
C1D H1D 1_555 1_555
C2D H2D 1_555 1_555
H3D C2D 1_555 1_555
N2D C1D 1_555 1_555
C4D N1D 1_555 1_555
H4D C4D 1_555 1_555
C6D N1D 1_555 1_555
H6D C6D 1_555 1_555
C7D C7 1_555 1_555
H7D C7D 1_555 1_555
H8D C7D 1_555 1_555
O2A Zn1 1_555 1_555
Zn1D N2D 1_555 1_555
Zn1F O1F 1_555 1_555
O1A Zn1 1_555 1_555
N2A Zn1 1_555 1_555
C1 N2 1_555 1_555
C1 C6 1_555 1_555
N2 C4 1_555 1_555
C1D C6D 1_555 1_555
C2D C7D 1_555 1_555
N2D C4D 1_555 1_555

#END
