
#######################################################################
#
#                 Cambridge Crystallographic Data Centre
#                                CCDC 
#
#######################################################################
#
# If this CIF has been generated from an entry in the Cambridge 
# Structural Database, then it will include bibliographic, chemical, 
# crystal, experimental, refinement or atomic coordinate data resulting 
# from the CCDC's data processing and validation procedures.
#
#######################################################################

data_FOHKUJ
_symmetry_cell_setting           monoclinic
_symmetry_space_group_name_H-M   'P 21/c'
_symmetry_Int_Tables_number      14
_space_group_name_Hall           '-P 2ybc'
loop_
_symmetry_equiv_pos_site_id
_symmetry_equiv_pos_as_xyz
1 x,y,z
2 -x,1/2+y,1/2-z
3 -x,-y,-z
4 x,1/2-y,1/2+z
_cell_length_a                   7.1306(14)
_cell_length_b                   16.417(3)
_cell_length_c                   10.200(2)
_cell_angle_alpha                90
_cell_angle_beta                 99.74(3)
_cell_angle_gamma                90
_cell_volume                     1176.83
loop_
_atom_site_label
_atom_site_type_symbol
_atom_site_fract_x
_atom_site_fract_y
_atom_site_fract_z
Cd1 Cd 0.24867(3) 0.380597(11) 0.97233(2)
O1 O 0.3474(3) 0.29464(15) 1.1568(2)
O2 O 0.5660(3) 0.32190(13) 1.0360(2)
O3 O 0.8118(3) 0.20947(12) 1.16797(19)
O4 O 0.6219(3) -0.04709(13) 0.6908(2)
O5 O 0.9266(3) -0.02793(14) 0.6939(2)
O6 O -0.0523(4) 0.36791(15) 1.0265(4)
O7 O 0.1687(3) 0.27052(14) 0.8401(2)
O8 O 0.2659(3) 0.49336(15) 1.1104(3)
C1 C 0.5122(4) 0.28628(16) 1.1310(3)
C2 C 0.6447(4) 0.23062(17) 1.2215(3)
C3 C 0.7903(4) 0.15554(16) 1.0620(3)
C4 C 0.9557(4) 0.14124(18) 1.0090(3)
C5 C 0.6225(4) 0.11774(16) 1.0092(3)
C6 C 0.7770(4) -0.01197(16) 0.7377(3)
C7 C 0.7811(4) 0.04751(15) 0.8498(3)
C8 C 0.9496(4) 0.08731(17) 0.9035(3)
C9 C 0.6188(4) 0.06390(17) 0.9031(3)
H1 H 0.6828 0.2573 1.3068
H2 H 0.5770 0.1812 1.2367
H3 H 1.0686 0.1676 1.0440
H4 H 0.5123 0.1280 1.0439
H5 H 1.0594 0.0776 0.8681
H6 H 0.5051 0.0385 0.8674
H7 H -0.118(4) 0.4108(11) 1.018(4)
H8 H 0.236(3) 0.253(2) 0.786(3)
H9 H 0.376(2) 0.511(2) 1.144(3)
H10 H 0.192(4) 0.499(2) 1.167(3)
H11 H -0.113(4) 0.3295(12) 1.055(4)
H12 H 0.0544(19) 0.277(2) 0.803(3)
Cd1A Cd 0.75133(3) -0.119403(11) 0.52767(2)
O4A O 0.3781(3) 0.45291(13) 0.8092(2)
O5A O 0.0734(3) 0.47207(14) 0.8061(2)
loop_
_geom_bond_atom_site_label_1
_geom_bond_atom_site_label_2
_geom_bond_site_symmetry_1
_geom_bond_site_symmetry_2
Cd1 O1 1_555 1_555
O1 C1 1_555 1_555
O2 Cd1 1_555 1_555
O3 C2 1_555 1_555
O4 C6 1_555 1_555
O5 C6 1_555 1_555
O6 Cd1 1_555 1_555
O7 Cd1 1_555 1_555
O8 Cd1 1_555 1_555
C1 O2 1_555 1_555
C2 C1 1_555 1_555
C3 O3 1_555 1_555
C4 C3 1_555 1_555
C5 C3 1_555 1_555
C6 C7 1_555 1_555
C7 C8 1_555 1_555
C8 C4 1_555 1_555
C9 C5 1_555 1_555
H1 C2 1_555 1_555
H2 C2 1_555 1_555
H3 C4 1_555 1_555
H4 C5 1_555 1_555
H5 C8 1_555 1_555
H6 C9 1_555 1_555
H7 O6 1_555 1_555
H8 O7 1_555 1_555
H9 O8 1_555 1_555
H10 O8 1_555 1_555
H11 O6 1_555 1_555
H12 O7 1_555 1_555
Cd1A O4 1_555 1_555
O4A Cd1 1_555 1_555
O5A Cd1 1_555 1_555
O5 Cd1A 1_555 1_555
C7 C9 1_555 1_555

#END
