
#######################################################################
#
#                 Cambridge Crystallographic Data Centre
#                                CCDC 
#
#######################################################################
#
# If this CIF has been generated from an entry in the Cambridge 
# Structural Database, then it will include bibliographic, chemical, 
# crystal, experimental, refinement or atomic coordinate data resulting 
# from the CCDC's data processing and validation procedures.
#
#######################################################################

data_FOHNAT
_symmetry_cell_setting           monoclinic
_symmetry_space_group_name_H-M   'P 21/c'
_symmetry_Int_Tables_number      14
_space_group_name_Hall           '-P 2ybc'
loop_
_symmetry_equiv_pos_site_id
_symmetry_equiv_pos_as_xyz
1 x,y,z
2 -x,1/2+y,1/2-z
3 -x,-y,-z
4 x,1/2-y,1/2+z
_cell_length_a                   8.1168(12)
_cell_length_b                   16.788(3)
_cell_length_c                   7.9183(12)
_cell_angle_alpha                90
_cell_angle_beta                 98.491(2)
_cell_angle_gamma                90
_cell_volume                     1067.16
loop_
_atom_site_label
_atom_site_type_symbol
_atom_site_fract_x
_atom_site_fract_y
_atom_site_fract_z
Cd1 Cd 0.28978(3) 0.263001(14) 0.12648(3)
O1 O 0.3537(3) 0.31581(14) 0.3912(3)
O2 O 0.5402(3) 0.31019(15) 0.6201(3)
O3 O -0.2016(3) 0.64804(15) 0.2753(3)
O4 O -0.3605(3) 0.62984(14) 0.0205(3)
N1 N 0.0181(3) 0.30365(17) 0.0714(4)
N2 N -0.2125(4) 0.33460(17) -0.1042(4)
H1 H -0.2959 0.3299 -0.1883
C1 C -0.0894(4) 0.2821(2) -0.0627(4)
H2 H -0.0802 0.2340 -0.1236
C2 C -0.0398(4) 0.3771(2) 0.1198(4)
C3 C -0.1849(4) 0.3974(2) 0.0086(4)
C4 C -0.2627(4) 0.4706(2) 0.0163(4)
H3 H -0.3592 0.4845 -0.0611
C5 C -0.1918(4) 0.5227(2) 0.1436(4)
C6 C -0.0524(4) 0.5004(2) 0.2619(4)
H4 H -0.0109 0.5364 0.3506
C7 C 0.0253(4) 0.4281(2) 0.2526(4)
H5 H 0.1191 0.4135 0.3330
C8 C -0.2589(4) 0.6064(2) 0.1473(4)
C9 C 0.4913(4) 0.3388(2) 0.4759(4)
C10 C 0.5893(5) 0.4038(2) 0.4043(5)
H6 H 0.5430 0.4126 0.2829
H7 H 0.7064 0.3863 0.4091
C11 C 0.5855(5) 0.4822(2) 0.5016(6)
H8 H 0.6350 0.4732 0.6220
H9 H 0.6565 0.5213 0.4526
O1B O 0.6463(3) 0.68419(14) 0.6088(3)
O2B O 0.4598(3) 0.68981(15) 0.3799(3)
C9B C 0.5087(4) 0.6612(2) 0.5241(4)
C10B C 0.4107(5) 0.5962(2) 0.5957(5)
H6B H 0.4570 0.5874 0.7171
H7B H 0.2936 0.6137 0.5909
C11B C 0.4145(5) 0.5178(2) 0.4984(6)
H8B H 0.3650 0.5268 0.3780
H9B H 0.3435 0.4787 0.5474
Cd1B Cd -0.28978(3) 0.736999(14) -0.12648(3)
O3B O 0.2016(3) 0.35196(15) -0.2753(3)
O4B O 0.3605(3) 0.37016(14) -0.0205(3)
N1B N -0.0181(3) 0.69635(17) -0.0714(4)
N2B N 0.2125(4) 0.66540(17) 0.1042(4)
H1B H 0.2959 0.6701 0.1883
C1B C 0.0894(4) 0.7179(2) 0.0627(4)
H2B H 0.0802 0.7660 0.1236
C2B C 0.0398(4) 0.6229(2) -0.1198(4)
C3B C 0.1849(4) 0.6026(2) -0.0086(4)
C4B C 0.2627(4) 0.5294(2) -0.0163(4)
H3B H 0.3592 0.5155 0.0611
C5B C 0.1918(4) 0.4773(2) -0.1436(4)
C6B C 0.0524(4) 0.4996(2) -0.2619(4)
H4B H 0.0109 0.4636 -0.3506
C7B C -0.0253(4) 0.5719(2) -0.2526(4)
H5B H -0.1191 0.5865 -0.3330
C8B C 0.2589(4) 0.3936(2) -0.1473(4)
Cd1A Cd -0.28978(3) 0.763001(14) 0.37352(3)
Cd1A_2 Cd 0.71022(3) 0.763001(14) 0.37352(3)
Cd1B_2 Cd 0.71022(3) 0.736999(14) 0.87352(3)
Cd1C Cd 0.28978(3) 0.236999(14) -0.37352(3)
Cd1C_2 Cd 0.28978(3) 0.236999(14) 0.62648(3)
O1A O -0.3537(3) 0.81581(14) 0.1088(3)
O1B_2 O -0.3537(3) 0.68419(14) -0.3912(3)
O1C O 0.3537(3) 0.18419(14) -0.1088(3)
O2A O -0.5402(3) 0.81019(15) -0.1201(3)
O2C O 0.5402(3) 0.18981(15) 0.1201(3)
O3A O 0.2016(3) 0.14804(15) 0.2247(3)
O3C O -0.2016(3) 0.85196(15) -0.2247(3)
loop_
_geom_bond_atom_site_label_1
_geom_bond_atom_site_label_2
_geom_bond_site_symmetry_1
_geom_bond_site_symmetry_2
Cd1 O1 1_555 1_555
O1 C9 1_555 1_555
O2 C9 1_555 1_555
O3 C8 1_555 1_555
O4 C8 1_555 1_555
N1 Cd1 1_555 1_555
N2 H1 1_555 1_555
C1 N1 1_555 1_555
H2 C1 1_555 1_555
C2 N1 1_555 1_555
C3 N2 1_555 1_555
C4 C3 1_555 1_555
H3 C4 1_555 1_555
C5 C4 1_555 1_555
C6 C5 1_555 1_555
H4 C6 1_555 1_555
C7 C2 1_555 1_555
H5 C7 1_555 1_555
C8 C5 1_555 1_555
C9 C10 1_555 1_555
C10 H6 1_555 1_555
H7 C10 1_555 1_555
C11 C10 1_555 1_555
H8 C11 1_555 1_555
H9 C11 1_555 1_555
O1B C9B 1_555 1_555
O2B C9B 1_555 1_555
C9B C10B 1_555 1_555
C10B H6B 1_555 1_555
H7B C10B 1_555 1_555
C11B C11 1_555 1_555
H8B C11B 1_555 1_555
H9B C11B 1_555 1_555
Cd1B O4 1_555 1_555
O3B C8B 1_555 1_555
O4B Cd1 1_555 1_555
N1B Cd1B 1_555 1_555
N2B H1B 1_555 1_555
C1B N1B 1_555 1_555
H2B C1B 1_555 1_555
C2B N1B 1_555 1_555
C3B N2B 1_555 1_555
C4B C3B 1_555 1_555
H3B C4B 1_555 1_555
C5B C4B 1_555 1_555
C6B C5B 1_555 1_555
H4B C6B 1_555 1_555
C7B C2B 1_555 1_555
H5B C7B 1_555 1_555
C8B O4B 1_555 1_555
Cd1A O3 1_555 1_555
Cd1A_2 O1B 1_555 1_555
Cd1B_2 O1B 1_555 1_555
Cd1C O3B 1_555 1_555
Cd1C_2 O1 1_555 1_555
O1A Cd1B 1_555 1_555
O1B_2 Cd1B 1_555 1_555
O1C Cd1 1_555 1_555
O2A Cd1B 1_555 1_555
O2C Cd1 1_555 1_555
O3A Cd1 1_555 1_555
O3C Cd1B 1_555 1_555
O2 Cd1C_2 1_555 1_555
N2 C1 1_555 1_555
C2 C3 1_555 1_555
C6 C7 1_555 1_555
O2B Cd1A_2 1_555 1_555
C10B C11B 1_555 1_555
N2B C1B 1_555 1_555
C2B C3B 1_555 1_555
C5B C8B 1_555 1_555
C6B C7B 1_555 1_555
Cd1A O1A 1_555 1_555
Cd1C O1C 1_555 1_555

#END
