
#######################################################################
#
#                 Cambridge Crystallographic Data Centre
#                                CCDC 
#
#######################################################################
#
# If this CIF has been generated from an entry in the Cambridge 
# Structural Database, then it will include bibliographic, chemical, 
# crystal, experimental, refinement or atomic coordinate data resulting 
# from the CCDC's data processing and validation procedures.
#
#######################################################################

data_FOHROL
_symmetry_cell_setting           triclinic
_symmetry_space_group_name_H-M   'P -1'
_symmetry_Int_Tables_number      2
_space_group_name_Hall           '-P 1'
loop_
_symmetry_equiv_pos_site_id
_symmetry_equiv_pos_as_xyz
1 x,y,z
2 -x,-y,-z
_cell_length_a                   10.193(4)
_cell_length_b                   13.722(5)
_cell_length_c                   14.606(6)
_cell_angle_alpha                107.685(6)
_cell_angle_beta                 102.170(7)
_cell_angle_gamma                111.188(6)
_cell_volume                     1692.48
loop_
_atom_site_label
_atom_site_type_symbol
_atom_site_fract_x
_atom_site_fract_y
_atom_site_fract_z
Co1 Co 0.0000 0.0000 0.5000
Co2 Co 0.23876(8) 1.09423(6) 1.08206(6)
C1 C -0.2486(9) 0.3477(6) 0.4943(7)
H1 H -0.3334 0.3230 0.4375
C2 C -0.1689(8) 0.4606(6) 0.5595(6)
H2 H -0.2030 0.5120 0.5489
C3 C -0.0364(7) 0.5013(5) 0.6425(5)
C4 C 0.0102(7) 0.4233(5) 0.6588(5)
H3 H 0.0987 0.4501 0.7135
C5 C -0.0715(7) 0.3041(5) 0.5955(5)
C6 C -0.2030(8) 0.2669(5) 0.5124(6)
H4 H -0.2604 0.1890 0.4691
C7 C 0.2168(6) 0.6737(5) 0.7422(5)
H5 H 0.2606 0.6290 0.7141
C8 C 0.3068(6) 0.7853(5) 0.8115(4)
C9 C 0.2457(6) 0.8565(5) 0.8506(5)
H6 H 0.3079 0.9326 0.8973
C10 C 0.0869(6) 0.8113(4) 0.8181(5)
C11 C -0.0022(6) 0.6964(5) 0.7477(5)
H7 H -0.1065 0.6677 0.7241
C12 C 0.0570(6) 0.6248(5) 0.7121(5)
C13 C 0.4784(6) 0.8325(5) 0.8465(5)
C14 C -0.0126(7) 0.2228(5) 0.6110(6)
C15 C 0.2217(10) 0.6410(6) 1.1633(7)
H8 H 0.2214 0.6795 1.2277
C16 C 0.2422(10) 0.5416(6) 1.1422(6)
H9 H 0.2471 0.5098 1.1900
C17 C 0.2549(7) 0.4927(5) 1.0500(5)
C18 C 0.2332(10) 0.5313(6) 0.9732(6)
H10 H 0.2337 0.4928 0.9088
C19 C 0.2107(11) 0.6285(7) 0.9945(7)
H11 H 0.2015 0.6581 0.9454
C20 C 0.2019(8) 0.6814(5) 1.0882(5)
C21 C 0.0212(6) 0.8883(4) 0.8655(5)
C22 C 0.0768(8) 0.8001(5) 1.1519(6)
H12 H 0.0154 0.7519 1.1748
C23 C 0.2427(8) 0.8724(5) 1.0884(6)
H13 H 0.3174 0.8823 1.0599
C24 C 0.0847(8) 0.9001(5) 1.1557(6)
H14 H 0.0283 0.9335 1.1820
C25 C 0.2406(7) 0.3175(5) 1.0732(5)
H15 H 0.1904 0.3219 1.1194
C26 C 0.3478(9) 0.2595(6) 0.9742(6)
H16 H 0.3861 0.2149 0.9384
C27 C 0.3487(9) 0.3579(6) 0.9652(7)
H17 H 0.3878 0.3925 0.9248
C28 C -0.4507(8) -0.4123(5) 0.5980(6)
H18 H -0.4192 -0.3546 0.6631
C29 C -0.4675(8) -0.4713(5) 0.4234(6)
H19 H -0.4455 -0.4507 0.3714
C30 C -0.4198(7) -0.3878(5) 0.5202(5)
C31 C -0.2414(8) -0.0805(6) 0.5953(6)
H20 H -0.2241 -0.0051 0.6283
C32 C -0.3342(8) -0.1712(5) 0.6064(6)
H21 H -0.3885 -0.1697 0.6501
C33 C -0.2370(9) -0.2299(6) 0.4937(7)
H22 H -0.2153 -0.2765 0.4444
C34 C 0.2261(14) 0.0301(9) 0.7108(9)
H23 H 0.2270 0.0481 0.7806
H24 H 0.1848 -0.0525 0.6744
C35 C 0.3769(16) 0.0875(15) 0.7118(13)
H25 H 0.4406 0.0616 0.7450
H26 H 0.4165 0.1691 0.7487
H27 H 0.3737 0.0699 0.6423
N1 N 0.2837(6) 0.2383(4) 1.0421(4)
N2 N 0.2786(7) 0.3918(4) 1.0295(5)
N3 N 0.1769(6) 0.7818(4) 1.1076(5)
N4 N 0.1888(6) 0.9473(4) 1.1149(4)
N5 N -0.1772(7) -0.1162(4) 0.5284(5)
N6 N -0.3331(6) -0.2682(4) 0.5394(5)
O1 O 0.1082(4) 0.9896(3) 0.9300(3)
O2 O -0.1219(4) 0.8427(3) 0.8371(3)
O3 O 0.5380(5) 0.7937(4) 0.7855(4)
O4 O 0.5571(4) 0.9086(3) 0.9364(4)
O5 O 0.1000(6) 0.2604(4) 0.6912(4)
O6 O -0.0764(5) 0.1238(4) 0.5416(4)
O7 O 0.1367(7) 0.0731(5) 0.6578(4)
C28A C -0.5493(8) -0.5877(5) 0.4020(6)
H18A H -0.5808 -0.6454 0.3369
C29A C -0.5325(8) -0.5287(5) 0.5766(6)
H19A H -0.5545 -0.5493 0.6286
C30A C -0.5802(7) -0.6122(5) 0.4798(5)
C31A C -0.7586(8) -0.9195(6) 0.4047(6)
H20A H -0.7759 -0.9949 0.3717
C32A C -0.6658(8) -0.8288(5) 0.3936(6)
H21A H -0.6115 -0.8303 0.3499
C33A C -0.7630(9) -0.7701(6) 0.5063(7)
H22A H -0.7847 -0.7235 0.5556
N5A N -0.8228(7) -0.8838(4) 0.4716(5)
N6A N -0.6669(6) -0.7318(4) 0.4606(5)
Co2A Co -0.23876(8) -1.09423(6) -0.08206(6)
C1A C 0.2486(9) -0.3477(6) 0.5057(7)
H1A H 0.3334 -0.3230 0.5625
C2A C 0.1689(8) -0.4606(6) 0.4405(6)
H2A H 0.2030 -0.5120 0.4511
C3A C 0.0364(7) -0.5013(5) 0.3575(5)
C4A C -0.0102(7) -0.4233(5) 0.3412(5)
H3A H -0.0987 -0.4501 0.2865
C5A C 0.0715(7) -0.3041(5) 0.4045(5)
C6A C 0.2030(8) -0.2669(5) 0.4876(6)
H4A H 0.2604 -0.1890 0.5309
C7A C -0.2168(6) -0.6737(5) 0.2578(5)
H5A H -0.2606 -0.6290 0.2859
C8A C -0.3068(6) -0.7853(5) 0.1885(4)
C9A C -0.2457(6) -0.8565(5) 0.1494(5)
H6A H -0.3079 -0.9326 0.1027
C10A C -0.0869(6) -0.8113(4) 0.1819(5)
C11A C 0.0022(6) -0.6964(5) 0.2523(5)
H7A H 0.1065 -0.6677 0.2759
C12A C -0.0570(6) -0.6248(5) 0.2879(5)
C13A C -0.4784(6) -0.8325(5) 0.1535(5)
C14A C 0.0126(7) -0.2228(5) 0.3890(6)
C15A C -0.2217(10) -0.6410(6) -0.1633(7)
H8A H -0.2214 -0.6795 -0.2277
C16A C -0.2422(10) -0.5416(6) -0.1422(6)
H9A H -0.2471 -0.5098 -0.1900
C17A C -0.2549(7) -0.4927(5) -0.0500(5)
C18A C -0.2332(10) -0.5313(6) 0.0268(6)
H10A H -0.2337 -0.4928 0.0912
C19A C -0.2107(11) -0.6285(7) 0.0055(7)
H11A H -0.2015 -0.6581 0.0546
C20A C -0.2019(8) -0.6814(5) -0.0882(5)
C21A C -0.0212(6) -0.8883(4) 0.1345(5)
C22A C -0.0768(8) -0.8001(5) -0.1519(6)
H12A H -0.0154 -0.7519 -0.1748
C23A C -0.2427(8) -0.8724(5) -0.0884(6)
H13A H -0.3174 -0.8823 -0.0599
C24A C -0.0847(8) -0.9001(5) -0.1557(6)
H14A H -0.0283 -0.9335 -0.1820
C25A C -0.2406(7) -0.3175(5) -0.0732(5)
H15A H -0.1904 -0.3219 -0.1194
C26A C -0.3478(9) -0.2595(6) 0.0258(6)
H16A H -0.3861 -0.2149 0.0616
C27A C -0.3487(9) -0.3579(6) 0.0348(7)
H17A H -0.3878 -0.3925 0.0752
N1A N -0.2837(6) -0.2383(4) -0.0421(4)
N2A N -0.2786(7) -0.3918(4) -0.0295(5)
N3A N -0.1769(6) -0.7818(4) -0.1076(5)
N4A N -0.1888(6) -0.9473(4) -0.1149(4)
O1A O -0.1082(4) -0.9896(3) 0.0700(3)
O2A O 0.1219(4) -0.8427(3) 0.1629(3)
O3A O -0.5380(5) -0.7937(4) 0.2145(4)
O4A O -0.5571(4) -0.9086(3) 0.0636(4)
O5A O -0.1000(6) -0.2604(4) 0.3088(4)
O6A O 0.0764(5) -0.1238(4) 0.4584(4)
C34A C -0.2261(14) -0.0301(9) 0.2892(9)
H23A H -0.2270 -0.0481 0.2194
H24A H -0.1848 0.0525 0.3256
C35A C -0.3769(16) -0.0875(15) 0.2882(13)
H25A H -0.4406 -0.0616 0.2550
H26A H -0.4165 -0.1691 0.2513
H27A H -0.3737 -0.0699 0.3577
O7A O -0.1367(7) -0.0731(5) 0.3422(4)
Co1_2 Co -1.0000 -1.0000 0.5000
Co2_2 Co -0.76124(8) -0.90577(6) 0.08206(6)
Co2_3 Co 0.23876(8) -0.90577(6) 0.08206(6)
Co2_4 Co 0.23876(8) 0.09423(6) 1.08206(6)
Co2A_2 Co -0.23876(8) -0.09423(6) -0.08206(6)
Co2A_3 Co -0.23876(8) 0.90577(6) 0.91794(6)
Co2A_4 Co 0.76124(8) 0.90577(6) 0.91794(6)
N1_2 N 0.2837(6) 1.2383(4) 1.0421(4)
N1A_2 N -0.2837(6) -1.2383(4) -0.0421(4)
N5A_2 N 0.1772(7) 0.1162(4) 0.4716(5)
O2_2 O -0.1219(4) -1.1573(3) -0.1629(3)
O2A_2 O 0.1219(4) 1.1573(3) 1.1629(3)
O3_2 O -0.4620(5) -1.2063(4) -0.2145(4)
O3A_2 O 0.4620(5) 1.2063(4) 1.2145(4)
O4_2 O -0.4429(4) -1.0914(3) -0.0636(4)
O4A_2 O 0.4429(4) 1.0914(3) 1.0636(4)
O8 O 0.401(3) 0.4559(18) 0.7777(18)
loop_
_geom_bond_atom_site_label_1
_geom_bond_atom_site_label_2
_geom_bond_site_symmetry_1
_geom_bond_site_symmetry_2
Co1 N5 1_555 1_555
Co2 N4 1_555 1_555
C1 H1 1_555 1_555
C2 C1 1_555 1_555
H2 C2 1_555 1_555
C3 C2 1_555 1_555
C4 C3 1_555 1_555
H3 C4 1_555 1_555
C5 C4 1_555 1_555
C6 C1 1_555 1_555
H4 C6 1_555 1_555
C7 H5 1_555 1_555
C8 C7 1_555 1_555
C9 C8 1_555 1_555
H6 C9 1_555 1_555
C10 C9 1_555 1_555
C11 C10 1_555 1_555
H7 C11 1_555 1_555
C12 C3 1_555 1_555
C13 C8 1_555 1_555
C14 C5 1_555 1_555
C15 H8 1_555 1_555
C16 C15 1_555 1_555
H9 C16 1_555 1_555
C17 C16 1_555 1_555
C18 C17 1_555 1_555
H10 C18 1_555 1_555
C19 C18 1_555 1_555
H11 C19 1_555 1_555
C20 C15 1_555 1_555
C21 C10 1_555 1_555
C22 H12 1_555 1_555
C23 H13 1_555 1_555
C24 C22 1_555 1_555
H14 C24 1_555 1_555
C25 H15 1_555 1_555
C26 H16 1_555 1_555
C27 C26 1_555 1_555
H17 C27 1_555 1_555
C28 H18 1_555 1_555
C29 H19 1_555 1_555
C30 C28 1_555 1_555
C31 H20 1_555 1_555
C32 C31 1_555 1_555
H21 C32 1_555 1_555
C33 H22 1_555 1_555
C34 H23 1_555 1_555
H24 C34 1_555 1_555
C35 C34 1_555 1_555
H25 C35 1_555 1_555
H26 C35 1_555 1_555
H27 C35 1_555 1_555
N1 C25 1_555 1_555
N2 C17 1_555 1_555
N3 C20 1_555 1_555
N4 C23 1_555 1_555
N5 C31 1_555 1_555
N6 C30 1_555 1_555
O1 Co2 1_555 1_555
O2 C21 1_555 1_555
O3 C13 1_555 1_555
O4 C13 1_555 1_555
O5 C14 1_555 1_555
O6 Co1 1_555 1_555
O7 Co1 1_555 1_555
C28A C29 1_555 1_555
H18A C28A 1_555 1_555
C29A C28 1_555 1_555
H19A C29A 1_555 1_555
C30A C28A 1_555 1_555
C31A H20A 1_555 1_555
C32A C31A 1_555 1_555
H21A C32A 1_555 1_555
C33A H22A 1_555 1_555
N5A C31A 1_555 1_555
N6A C30A 1_555 1_555
Co2A N4A 1_555 1_555
C1A H1A 1_555 1_555
C2A C1A 1_555 1_555
H2A C2A 1_555 1_555
C3A C2A 1_555 1_555
C4A C3A 1_555 1_555
H3A C4A 1_555 1_555
C5A C4A 1_555 1_555
C6A C1A 1_555 1_555
H4A C6A 1_555 1_555
C7A H5A 1_555 1_555
C8A C7A 1_555 1_555
C9A C8A 1_555 1_555
H6A C9A 1_555 1_555
C10A C9A 1_555 1_555
C11A C10A 1_555 1_555
H7A C11A 1_555 1_555
C12A C3A 1_555 1_555
C13A C8A 1_555 1_555
C14A C5A 1_555 1_555
C15A H8A 1_555 1_555
C16A C15A 1_555 1_555
H9A C16A 1_555 1_555
C17A C16A 1_555 1_555
C18A C17A 1_555 1_555
H10A C18A 1_555 1_555
C19A C18A 1_555 1_555
H11A C19A 1_555 1_555
C20A C15A 1_555 1_555
C21A C10A 1_555 1_555
C22A H12A 1_555 1_555
C23A H13A 1_555 1_555
C24A C22A 1_555 1_555
H14A C24A 1_555 1_555
C25A H15A 1_555 1_555
C26A H16A 1_555 1_555
C27A C26A 1_555 1_555
H17A C27A 1_555 1_555
N1A C25A 1_555 1_555
N2A C17A 1_555 1_555
N3A C20A 1_555 1_555
N4A C23A 1_555 1_555
O1A Co2A 1_555 1_555
O2A C21A 1_555 1_555
O3A C13A 1_555 1_555
O4A C13A 1_555 1_555
O5A C14A 1_555 1_555
O6A Co1 1_555 1_555
C34A H23A 1_555 1_555
H24A C34A 1_555 1_555
C35A C34A 1_555 1_555
H25A C35A 1_555 1_555
H26A C35A 1_555 1_555
H27A C35A 1_555 1_555
O7A Co1 1_555 1_555
Co1_2 N5A 1_555 1_555
Co2_2 O3A 1_555 1_555
Co2_3 O2A 1_555 1_555
Co2_4 N1 1_555 1_555
Co2A_2 N1A 1_555 1_555
Co2A_3 O2 1_555 1_555
Co2A_4 O3 1_555 1_555
N1_2 Co2 1_555 1_555
N1A_2 Co2A 1_555 1_555
N5A_2 Co1 1_555 1_555
O2_2 Co2A 1_555 1_555
O2A_2 Co2 1_555 1_555
O3_2 Co2A 1_555 1_555
O3A_2 Co2 1_555 1_555
O4_2 Co2A 1_555 1_555
O4A_2 Co2 1_555 1_555
C5 C6 1_555 1_555
C7 C12 1_555 1_555
C11 C12 1_555 1_555
C14 O6 1_555 1_555
C19 C20 1_555 1_555
C21 O1 1_555 1_555
C22 N3 1_555 1_555
C23 N3 1_555 1_555
C24 N4 1_555 1_555
C25 N2 1_555 1_555
C26 N1 1_555 1_555
C27 N2 1_555 1_555
C29 C30 1_555 1_555
C32 N6 1_555 1_555
C33 N5 1_555 1_555
C33 N6 1_555 1_555
C34 O7 1_555 1_555
O4 Co2A_4 1_555 1_555
C29A C30A 1_555 1_555
C32A N6A 1_555 1_555
C33A N5A 1_555 1_555
C33A N6A 1_555 1_555
C5A C6A 1_555 1_555
C7A C12A 1_555 1_555
C11A C12A 1_555 1_555
C14A O6A 1_555 1_555
C19A C20A 1_555 1_555
C21A O1A 1_555 1_555
C22A N3A 1_555 1_555
C23A N3A 1_555 1_555
C24A N4A 1_555 1_555
C25A N2A 1_555 1_555
C26A N1A 1_555 1_555
C27A N2A 1_555 1_555
O4A Co2_2 1_555 1_555
C34A O7A 1_555 1_555

#END
