
#######################################################################
#
#                 Cambridge Crystallographic Data Centre
#                                CCDC 
#
#######################################################################
#
# If this CIF has been generated from an entry in the Cambridge 
# Structural Database, then it will include bibliographic, chemical, 
# crystal, experimental, refinement or atomic coordinate data resulting 
# from the CCDC's data processing and validation procedures.
#
#######################################################################

data_FOJBUD
_symmetry_cell_setting           triclinic
_symmetry_space_group_name_H-M   'P -1'
_symmetry_Int_Tables_number      2
_space_group_name_Hall           '-P 1'
loop_
_symmetry_equiv_pos_site_id
_symmetry_equiv_pos_as_xyz
1 x,y,z
2 -x,-y,-z
_cell_length_a                   10.0501(16)
_cell_length_b                   17.049(3)
_cell_length_c                   18.433(3)
_cell_angle_alpha                104.149(4)
_cell_angle_beta                 93.545(3)
_cell_angle_gamma                90.484(4)
_cell_volume                     3055.81
loop_
_atom_site_label
_atom_site_type_symbol
_atom_site_fract_x
_atom_site_fract_y
_atom_site_fract_z
Cd1 Cd 0.99337(3) 0.49298(2) 1.19960(2)
O1 O 0.8384(3) 0.5752(2) 1.1628(2)
O2 O 0.8764(4) 0.4793(2) 1.0641(2)
O3 O 1.1529(4) 0.5814(2) 1.1849(2)
O4 O 0.8234(3) 0.4051(2) 1.2103(2)
N1 N 1.1043(4) 0.3778(3) 1.1513(2)
O5 O 0.1107(4) 0.4853(2) 0.3186(2)
O6 O -0.0426(4) 0.5766(2) 0.3225(2)
C1 C 0.8125(5) 0.5391(3) 1.0948(3)
H1 H 1.2139(17) 0.5467(19) 1.189(3)
H2 H 1.126(3) 0.572(3) 1.1378(13)
H3 H 0.783(5) 0.397(4) 1.2496(19)
H4 H 0.761(4) 0.403(4) 1.175(2)
C2 C 1.1195(6) 0.3346(4) 1.0813(3)
C3 C 1.1528(5) 0.3305(3) 1.1938(3)
C4 C 0.7023(5) 0.5709(3) 1.0521(3)
N2 N 1.1739(5) 0.2630(3) 1.0768(3)
H5 H 1.0937 0.3535 1.0388
N3 N 1.1956(5) 0.2626(3) 1.1494(3)
H6 H 1.1563 0.3429 1.2465
C5 C 0.6684(5) 0.5343(3) 0.9771(3)
C6 C 0.6338(5) 0.6383(3) 1.0886(3)
C7 C 1.2615(6) 0.1944(4) 1.1726(4)
H7 H 0.7152 0.4891 0.9524
C8 C 0.5641(5) 0.5648(3) 0.9379(3)
C9 C 0.5286(5) 0.6673(3) 1.0501(3)
H8 H 0.6581 0.6641 1.1389
C10 C 1.4106(6) 0.2024(3) 1.1767(4)
H9 H 1.2333 0.1436 1.1366
H10 H 1.2327 0.1919 1.2218
C11 C 0.4941(5) 0.6302(3) 0.9746(3)
C12 C 0.5276(5) 0.5270(3) 0.8565(3)
S1 S 0.44432(13) 0.75436(8) 1.09670(8)
C13 C 1.4863(9) 0.2189(5) 1.2453(4)
C14 C 1.4778(7) 0.1929(5) 1.1128(4)
H11 H 0.4231 0.6499 0.9490
O7 O 0.5997(4) 0.4732(2) 0.8198(2)
O8 O 0.4262(4) 0.5504(3) 0.8270(2)
O9 O 0.4353(5) 0.7489(3) 1.1725(3)
O10 O 0.5237(4) 0.8227(2) 1.0897(3)
O11 O 0.3142(4) 0.7506(3) 1.0561(3)
H12 H 1.4447 0.2262 1.2907
C15 C 1.6261(8) 0.2242(5) 1.2448(5)
C16 C 1.6154(7) 0.2024(5) 1.1165(5)
H13 H 1.4300 0.1797 1.0658
Cd2 Cd 0.46852(4) 0.47587(2) 0.70470(2)
H14 H 1.6768 0.2348 1.2909
C17 C 1.6900(6) 0.2149(4) 1.1822(4)
H15 H 1.6582 0.2002 1.0721
O12 O 0.3101(4) 0.5516(2) 0.6644(2)
O13 O 0.3489(5) 0.4637(3) 0.5613(2)
O14 O 0.3026(4) 0.3800(3) 0.7146(2)
O15 O 0.6268(4) 0.5625(3) 0.6843(3)
N4 N 0.5840(4) 0.3690(3) 0.6440(3)
C18 C 1.8392(7) 0.2177(4) 1.1830(5)
C19 C 0.2888(5) 0.5220(3) 0.5955(3)
H16 H 0.262(3) 0.396(2) 0.678(2)
H17 H 0.364(3) 0.3458(11) 0.695(3)
H18 H 0.677(3) 0.5196(15) 0.668(3)
H19 H 0.617(6) 0.585(3) 0.645(2)
C20 C 0.6529(7) 0.3118(4) 0.6682(4)
C21 C 0.5933(5) 0.3466(3) 0.5707(3)
N5 N 1.8908(5) 0.1354(3) 1.1569(3)
H20 H 1.8670 0.2516 1.1504
H21 H 1.8765 0.2420 1.2341
C22 C 0.1859(5) 0.5621(3) 0.5547(3)
N6 N 0.7051(6) 0.2574(3) 0.6162(4)
H22 H 0.6626 0.3113 0.7192
N7 N 0.6632(5) 0.2804(3) 0.5522(3)
H23 H 0.5553 0.3741 0.5364
N8 N 1.890(2) 0.1015(10) 1.0822(9)
C23 C 1.9063(8) 0.0772(4) 1.1912(4)
C24 C 0.1619(5) 0.5345(3) 0.4766(3)
C25 C 0.1146(5) 0.6269(3) 0.5930(3)
C26 C 0.6945(8) 0.2347(4) 0.4777(4)
C27 C 1.920(3) 0.0260(12) 1.0793(9)
N9 N 1.9414(5) 0.0110(3) 1.1462(3)
H24 H 1.8935 0.0827 1.2423
H25 H 0.2093 0.4906 0.4501
C28 C 0.0691(5) 0.5716(3) 0.4384(3)
C29 C 0.0226(5) 0.6645(3) 0.5545(3)
H26 H 0.1288 0.6453 0.6453
C30 C 0.6180(7) 0.1562(4) 0.4523(4)
H27 H 0.7901 0.2240 0.4780
H28 H 0.6746 0.2677 0.4418
H29 H 1.9251 -0.0135 1.0341
Cd3 Cd 1.95674(4) -0.12158(2) 1.15525(3)
C31 C -0.0017(5) 0.6366(3) 0.4774(3)
C32 C 0.0443(5) 0.5423(3) 0.3543(3)
S2 S -0.06049(15) 0.75139(9) 0.60437(8)
C33 C 0.6845(7) 0.0845(4) 0.4327(4)
C34 C 0.4807(7) 0.1532(4) 0.4476(5)
O16 O 2.0935(5) -0.1537(4) 1.0537(4)
O17 O 1.9441(6) -0.2514(3) 1.1615(4)
O18 O 1.8081(6) -0.0902(3) 1.2459(3)
O19 O 1.7875(4) -0.1519(3) 1.0623(3)
N10 N 0.1518(8) -0.0947(4) 0.2260(5)
H30 H -0.0656 0.6615 0.4517
O20 O -0.1065(10) 0.7314(5) 0.6684(5)
O21 O -0.1600(8) 0.7680(5) 0.5542(5)
O22 O 0.0328(10) 0.8162(5) 0.6219(5)
H31 H 0.7782 0.0856 0.4359
C35 C 0.6156(7) 0.0102(4) 0.4084(4)
C36 C 0.4095(7) 0.0797(4) 0.4228(5)
H32 H 0.4339 0.2015 0.4613
H33 H 2.154(3) -0.159(5) 1.0896(15)
H34 H 2.145(5) -0.148(5) 1.017(3)
H35 H 1.984(8) -0.2381(15) 1.2072(19)
H36 H 1.997(6) -0.287(4) 1.135(3)
H37 H 1.748(5) -0.124(4) 1.256(5)
H38 H 1.763(6) -0.054(4) 1.228(5)
H39 H 1.785(6) -0.194(3) 1.021(3)
H40 H 1.711(4) -0.159(4) 1.081(3)
H41 H 0.6630 -0.0380 0.3958
C37 C 0.4772(6) 0.0077(4) 0.4028(3)
H42 H 0.3158 0.0790 0.4196
C38 C 0.4063(7) -0.0722(4) 0.3769(4)
N11 N 0.3156(7) -0.0749(4) 0.3103(4)
H43 H 0.4717 -0.1150 0.3647
H44 H 0.3550 -0.0823 0.4173
N12 N 0.3635(7) -0.0451(4) 0.2524(4)
C39 C 0.2073(8) -0.1050(5) 0.2827(5)
C40 C 0.2624(9) -0.0576(6) 0.2019(6)
H45 H 0.1641 -0.1388 0.3077
H46 H 0.2632 -0.0437 0.1556
Cd1_2 Cd -0.00663(3) 0.49298(2) 0.19960(2)
O5_2 O 1.1107(4) 0.4853(2) 1.3186(2)
O6_2 O 0.9574(4) 0.5766(2) 1.3225(2)
Cd3_2 Cd -0.04326(4) -0.12158(2) 0.15525(3)
N10_2 N 2.1518(8) -0.0947(4) 1.2260(5)
O23 O 1.3887(5) 0.3565(3) 1.4264(3)
H47 H 1.326(5) 0.319(3) 1.408(3)
H48 H 1.354(6) 0.389(3) 1.465(3)
O24 O 1.1070(4) 0.6407(3) 1.0619(2)
H49 H 1.161(4) 0.683(2) 1.066(3)
H50 H 1.137(6) 0.607(3) 1.021(2)
O25 O 0.6456(6) 0.7962(4) 0.2827(4)
O26 O 0.9880(9) 0.7423(5) 0.3095(6)
O27 O 0.6074(9) 0.0177(5) 0.2159(6)
O28? O -0.169(4) 0.734(3) 0.644(2)
N13? N 1.966(3) 0.1206(11) 1.1038(15)
C41? C 2.002(3) 0.0442(11) 1.0974(14)
H51? H 2.0627 0.0171 1.0634
O29? O 0.5089(18) 0.9779(11) 0.0660(11)
O30? O 0.055(3) 0.7983(15) 0.6561(14)
loop_
_geom_bond_atom_site_label_1
_geom_bond_atom_site_label_2
_geom_bond_site_symmetry_1
_geom_bond_site_symmetry_2
Cd1 O1 1_555 1_555
O1 C1 1_555 1_555
O2 Cd1 1_555 1_555
O3 Cd1 1_555 1_555
O4 Cd1 1_555 1_555
N1 Cd1 1_555 1_555
O5 C32 1_555 1_555
O6 C32 1_555 1_555
C1 O2 1_555 1_555
H1 O3 1_555 1_555
H2 O3 1_555 1_555
H3 O4 1_555 1_555
H4 O4 1_555 1_555
C2 N1 1_555 1_555
C3 N1 1_555 1_555
C4 C1 1_555 1_555
N2 C2 1_555 1_555
H5 C2 1_555 1_555
N3 C3 1_555 1_555
H6 C3 1_555 1_555
C5 C4 1_555 1_555
C6 C4 1_555 1_555
C7 N3 1_555 1_555
H7 C5 1_555 1_555
C8 C5 1_555 1_555
C9 C6 1_555 1_555
H8 C6 1_555 1_555
C10 C7 1_555 1_555
H9 C7 1_555 1_555
H10 C7 1_555 1_555
C11 C8 1_555 1_555
C12 C8 1_555 1_555
S1 C9 1_555 1_555
C13 C10 1_555 1_555
C14 C10 1_555 1_555
H11 C11 1_555 1_555
O7 C12 1_555 1_555
O8 C12 1_555 1_555
O9 S1 1_555 1_555
O10 S1 1_555 1_555
O11 S1 1_555 1_555
H12 C13 1_555 1_555
C15 C13 1_555 1_555
C16 C14 1_555 1_555
H13 C14 1_555 1_555
Cd2 O7 1_555 1_555
H14 C15 1_555 1_555
C17 C15 1_555 1_555
H15 C16 1_555 1_555
O12 Cd2 1_555 1_555
O13 Cd2 1_555 1_555
O14 Cd2 1_555 1_555
O15 Cd2 1_555 1_555
N4 Cd2 1_555 1_555
C18 C17 1_555 1_555
C19 O12 1_555 1_555
H16 O14 1_555 1_555
H17 O14 1_555 1_555
H18 O15 1_555 1_555
H19 O15 1_555 1_555
C20 N4 1_555 1_555
C21 N4 1_555 1_555
N5 C18 1_555 1_555
H20 C18 1_555 1_555
H21 C18 1_555 1_555
C22 C19 1_555 1_555
N6 C20 1_555 1_555
H22 C20 1_555 1_555
N7 C21 1_555 1_555
H23 C21 1_555 1_555
N8 N5 1_555 1_555
C23 N5 1_555 1_555
C24 C22 1_555 1_555
C25 C22 1_555 1_555
C26 N7 1_555 1_555
C27 N8 1_555 1_555
N9 C23 1_555 1_555
H24 C23 1_555 1_555
H25 C24 1_555 1_555
C28 C24 1_555 1_555
C29 C25 1_555 1_555
H26 C25 1_555 1_555
C30 C26 1_555 1_555
H27 C26 1_555 1_555
H28 C26 1_555 1_555
H29 C27 1_555 1_555
Cd3 N9 1_555 1_555
C31 C28 1_555 1_555
C32 C28 1_555 1_555
S2 C29 1_555 1_555
C33 C30 1_555 1_555
C34 C30 1_555 1_555
O16 Cd3 1_555 1_555
O17 Cd3 1_555 1_555
O18 Cd3 1_555 1_555
O19 Cd3 1_555 1_555
N10 C39 1_555 1_555
H30 C31 1_555 1_555
O20 S2 1_555 1_555
O21 S2 1_555 1_555
O22 S2 1_555 1_555
H31 C33 1_555 1_555
C35 C33 1_555 1_555
C36 C34 1_555 1_555
H32 C34 1_555 1_555
H33 O16 1_555 1_555
H34 O16 1_555 1_555
H35 O17 1_555 1_555
H36 O17 1_555 1_555
H37 O18 1_555 1_555
H38 O18 1_555 1_555
H39 O19 1_555 1_555
H40 O19 1_555 1_555
H41 C35 1_555 1_555
C37 C35 1_555 1_555
H42 C36 1_555 1_555
C38 C37 1_555 1_555
N11 C38 1_555 1_555
H43 C38 1_555 1_555
H44 C38 1_555 1_555
N12 N11 1_555 1_555
C39 N11 1_555 1_555
C40 N10 1_555 1_555
H45 C39 1_555 1_555
H46 C40 1_555 1_555
O23 H47 1_555 1_555
H48 O23 1_555 1_555
O24 H49 1_555 1_555
H50 O24 1_555 1_555
Cd1_2 O5 1_555 1_555
O5_2 Cd1 1_555 1_555
O6_2 Cd1 1_555 1_555
Cd3_2 N10 1_555 1_555
N10_2 Cd3 1_555 1_555
O6 Cd1_2 1_555 1_555
N2 N3 1_555 1_555
C9 C11 1_555 1_555
O8 Cd2 1_555 1_555
C16 C17 1_555 1_555
O13 C19 1_555 1_555
N6 N7 1_555 1_555
C27 N9 1_555 1_555
C29 C31 1_555 1_555
C36 C37 1_555 1_555
N12 C40 1_555 1_555

#END
