
#######################################################################
#
#                 Cambridge Crystallographic Data Centre
#                                CCDC 
#
#######################################################################
#
# If this CIF has been generated from an entry in the Cambridge 
# Structural Database, then it will include bibliographic, chemical, 
# crystal, experimental, refinement or atomic coordinate data resulting 
# from the CCDC's data processing and validation procedures.
#
#######################################################################

data_FOJBOW
_symmetry_cell_setting           triclinic
_symmetry_space_group_name_H-M   'P -1'
_symmetry_Int_Tables_number      2
_space_group_name_Hall           '-P 1'
loop_
_symmetry_equiv_pos_site_id
_symmetry_equiv_pos_as_xyz
1 x,y,z
2 -x,-y,-z
_cell_length_a                   10.4706(9)
_cell_length_b                   11.6360(10)
_cell_length_c                   16.4681(15)
_cell_angle_alpha                70.771(2)
_cell_angle_beta                 86.757(2)
_cell_angle_gamma                69.131(2)
_cell_volume                     1765.98
loop_
_atom_site_label
_atom_site_type_symbol
_atom_site_fract_x
_atom_site_fract_y
_atom_site_fract_z
C1 C 0.4601(9) 0.4798(8) 0.4725(5)
H1 H 0.3926 0.5589 0.4318
H2 H 0.4093 0.4281 0.5106
C2 C 0.4442(2) 0.52310(18) 0.03117(11)
H3 H 0.4274 0.4472 0.0729
H4 H 0.3569 0.5840 -0.0023
C3 C 0.8323(2) 0.70784(18) 0.34134(11)
C4 C 0.8726(2) 0.65066(18) 0.42878(11)
H5 H 0.9040 0.5585 0.4546
C5 C 0.8670(2) 0.72827(18) 0.47847(11)
H6 H 0.8945 0.6892 0.5382
C6 C 0.8210(2) 0.86307(18) 0.44072(11)
H7 H 0.8171 0.9161 0.4747
C7 C 0.7807(2) 0.92025(18) 0.35328(11)
H8 H 0.7493 1.0124 0.3275
C8 C 0.7863(2) 0.84264(18) 0.30359(11)
H9 H 0.7588 0.8817 0.2438
C9 C 0.9722(2) 0.24707(18) 0.13327(11)
C10 C 1.0083(2) 0.11271(18) 0.14771(11)
H10 H 1.0004 0.0546 0.2023
C11 C 1.0557(2) 0.06870(18) 0.07887(11)
H11 H 1.0840 -0.0221 0.0884
C12 C 1.0637(2) 0.14767(18) -0.00061(11)
H12 H 1.0936 0.1133 -0.0462
C13 C 1.0281(2) 0.27834(18) -0.01468(11)
H13 H 1.0348 0.3354 -0.0700
C14 C 0.9808(2) 0.32815(18) 0.05422(11)
H14 H 0.9553 0.4188 0.0446
C15 C 0.4648(2) 0.35118(18) 0.34934(11)
C16 C 0.3224(2) 0.38886(18) 0.35292(11)
H15 H 0.2772 0.4346 0.3908
C17 C 0.2469(2) 0.35898(18) 0.30066(11)
H16 H 0.1505 0.3834 0.3037
C18 C 0.3111(2) 0.29521(18) 0.24555(11)
H17 H 0.2588 0.2778 0.2089
C19 C 0.4514(2) 0.25554(18) 0.24246(11)
H18 H 0.4946 0.2084 0.2049
C20 C 0.5308(2) 0.28265(18) 0.29255(11)
H19 H 0.6273 0.2560 0.2891
C21 C 0.6582(2) 0.22569(18) 0.49418(11)
C22 C 0.5810(2) 0.15122(18) 0.53785(11)
H20 H 0.4850 0.1829 0.5245
C23 C 0.6442(2) 0.02990(18) 0.60125(11)
H21 H 0.5924 -0.0221 0.6300
C24 C 0.7862(2) -0.01357(18) 0.62157(11)
H22 H 0.8301 -0.0946 0.6655
C25 C 0.8630(2) 0.06184(18) 0.57743(11)
H23 H 0.9589 0.0315 0.5908
C26 C 0.7986(2) 0.18093(18) 0.51424(11)
H24 H 0.8506 0.2323 0.4845
C27 C 0.3764(2) 0.65899(18) 0.15877(11)
C28 C 0.4073(2) 0.71692(18) 0.21396(11)
H25 H 0.4944 0.7249 0.2145
C29 C 0.3109(2) 0.76185(18) 0.26709(11)
H26 H 0.3318 0.8004 0.3048
C30 C 0.1838(2) 0.75142(18) 0.26607(11)
H27 H 0.1178 0.7828 0.3031
C31 C 0.1521(2) 0.69632(18) 0.21224(11)
H28 H 0.0638 0.6909 0.2114
C32 C 0.2494(2) 0.64786(18) 0.15834(11)
H29 H 0.2282 0.6077 0.1218
C33 C 0.5015(2) 0.75527(18) 0.00741(11)
C34 C 0.3732(2) 0.85171(18) -0.03040(11)
H30 H 0.2901 0.8379 -0.0139
C35 C 0.3726(2) 0.96660(18) -0.09211(11)
H31 H 0.2876 1.0343 -0.1159
C36 C 0.4947(2) 0.98449(18) -0.11999(11)
H32 H 0.4925 1.0642 -0.1619
C37 C 0.6187(2) 0.88587(18) -0.08648(11)
H33 H 0.7008 0.8971 -0.1087
C38 C 0.6271(2) 0.77271(18) -0.02249(11)
H34 H 0.7134 0.7075 0.0015
P1 P 0.5742(2) 0.3839(2) 0.41224(14)
P2 P 0.5093(2) 0.6054(2) 0.08858(14)
S1 S 0.8309(4) 0.6232(4) 0.2732(2)
S2 S 0.9193(3) 0.3055(4) 0.2200(2)
Au1 Au 0.70951(4) 0.49187(4) 0.33958(2)
Au2 Au 0.71426(4) 0.46939(4) 0.15791(2)
C1A C 0.5399(9) 0.5202(8) 0.5275(5)
H1A H 0.6074 0.4411 0.5682
H2A H 0.5907 0.5719 0.4894
C2A C 0.5558(2) 0.47690(18) -0.03117(11)
H3A H 0.5726 0.5528 -0.0729
H4A H 0.6431 0.4160 0.0023
C3A C 0.1677(2) 0.29216(18) 0.65866(11)
C4A C 0.1274(2) 0.34934(18) 0.57122(11)
H5A H 0.0960 0.4415 0.5454
C5A C 0.1330(2) 0.27173(18) 0.52153(11)
H6A H 0.1055 0.3108 0.4618
C6A C 0.1790(2) 0.13693(18) 0.55928(11)
H7A H 0.1829 0.0839 0.5253
C7A C 0.2193(2) 0.07975(18) 0.64672(11)
H8A H 0.2507 -0.0124 0.6725
C8A C 0.2137(2) 0.15736(18) 0.69641(11)
H9A H 0.2412 0.1183 0.7562
C9A C 0.0278(2) 0.75293(18) -0.13327(11)
C10A C -0.0083(2) 0.88729(18) -0.14771(11)
H10A H -0.0004 0.9454 -0.2023
C11A C -0.0557(2) 0.93130(18) -0.07887(11)
H11A H -0.0840 1.0221 -0.0884
C12A C -0.0637(2) 0.85233(18) 0.00061(11)
H12A H -0.0936 0.8867 0.0462
C13A C -0.0281(2) 0.72166(18) 0.01468(11)
H13A H -0.0348 0.6646 0.0700
C14A C 0.0192(2) 0.67185(18) -0.05422(11)
H14A H 0.0447 0.5812 -0.0446
C15A C 0.5352(2) 0.64882(18) 0.65066(11)
C16A C 0.6776(2) 0.61114(18) 0.64708(11)
H15A H 0.7228 0.5654 0.6092
C17A C 0.7531(2) 0.64102(18) 0.69934(11)
H16A H 0.8495 0.6166 0.6963
C18A C 0.6889(2) 0.70479(18) 0.75445(11)
H17A H 0.7412 0.7222 0.7911
C19A C 0.5486(2) 0.74446(18) 0.75754(11)
H18A H 0.5054 0.7916 0.7951
C20A C 0.4692(2) 0.71735(18) 0.70745(11)
H19A H 0.3727 0.7440 0.7109
C21A C 0.3418(2) 0.77431(18) 0.50582(11)
C22A C 0.4190(2) 0.84878(18) 0.46215(11)
H20A H 0.5150 0.8171 0.4755
C23A C 0.3558(2) 0.97010(18) 0.39875(11)
H21A H 0.4076 1.0221 0.3700
C24A C 0.2138(2) 1.01357(18) 0.37843(11)
H22A H 0.1699 1.0946 0.3345
C25A C 0.1370(2) 0.93816(18) 0.42257(11)
H23A H 0.0411 0.9685 0.4092
C26A C 0.2014(2) 0.81907(18) 0.48576(11)
H24A H 0.1494 0.7677 0.5155
C27A C 0.6236(2) 0.34101(18) -0.15877(11)
C28A C 0.5927(2) 0.28308(18) -0.21396(11)
H25A H 0.5056 0.2751 -0.2145
C29A C 0.6891(2) 0.23815(18) -0.26709(11)
H26A H 0.6682 0.1996 -0.3048
C30A C 0.8162(2) 0.24858(18) -0.26607(11)
H27A H 0.8822 0.2172 -0.3031
C31A C 0.8479(2) 0.30368(18) -0.21224(11)
H28A H 0.9362 0.3091 -0.2114
C32A C 0.7506(2) 0.35214(18) -0.15834(11)
H29A H 0.7718 0.3923 -0.1218
C33A C 0.4985(2) 0.24473(18) -0.00741(11)
C34A C 0.6268(2) 0.14829(18) 0.03040(11)
H30A H 0.7099 0.1621 0.0139
C35A C 0.6274(2) 0.03340(18) 0.09211(11)
H31A H 0.7124 -0.0343 0.1159
C36A C 0.5053(2) 0.01551(18) 0.11999(11)
H32A H 0.5075 -0.0642 0.1619
C37A C 0.3813(2) 0.11413(18) 0.08648(11)
H33A H 0.2992 0.1029 0.1087
C38A C 0.3729(2) 0.22729(18) 0.02249(11)
H34A H 0.2866 0.2925 -0.0015
P1A P 0.4258(2) 0.6161(2) 0.58776(14)
P2A P 0.4907(2) 0.3946(2) -0.08858(14)
S1A S 0.1691(4) 0.3768(4) 0.7268(2)
S2A S 0.0807(3) 0.6945(4) -0.2200(2)
Au1A Au 0.29049(4) 0.50813(4) 0.66042(2)
Au1A_2 Au 0.29049(4) 0.50813(4) -0.33958(2)
Au2A Au 0.28574(4) 0.53061(4) -0.15791(2)
Au2A_2 Au 0.28574(4) 0.53061(4) 0.84209(2)
loop_
_geom_bond_atom_site_label_1
_geom_bond_atom_site_label_2
_geom_bond_site_symmetry_1
_geom_bond_site_symmetry_2
C1 H1 1_555 1_555
H2 C1 1_555 1_555
C2 H3 1_555 1_555
H4 C2 1_555 1_555
C3 C4 1_555 1_555
C4 H5 1_555 1_555
C5 C4 1_555 1_555
H6 C5 1_555 1_555
C6 C5 1_555 1_555
H7 C6 1_555 1_555
C7 C6 1_555 1_555
H8 C7 1_555 1_555
C8 C3 1_555 1_555
H9 C8 1_555 1_555
C9 C10 1_555 1_555
C10 H10 1_555 1_555
C11 C10 1_555 1_555
H11 C11 1_555 1_555
C12 C11 1_555 1_555
H12 C12 1_555 1_555
C13 C12 1_555 1_555
H13 C13 1_555 1_555
C14 C9 1_555 1_555
H14 C14 1_555 1_555
C15 C16 1_555 1_555
C16 H15 1_555 1_555
C17 C16 1_555 1_555
H16 C17 1_555 1_555
C18 C17 1_555 1_555
H17 C18 1_555 1_555
C19 C18 1_555 1_555
H18 C19 1_555 1_555
C20 C15 1_555 1_555
H19 C20 1_555 1_555
C21 C22 1_555 1_555
C22 H20 1_555 1_555
C23 C22 1_555 1_555
H21 C23 1_555 1_555
C24 C23 1_555 1_555
H22 C24 1_555 1_555
C25 C24 1_555 1_555
H23 C25 1_555 1_555
C26 C21 1_555 1_555
H24 C26 1_555 1_555
C27 C28 1_555 1_555
C28 H25 1_555 1_555
C29 C28 1_555 1_555
H26 C29 1_555 1_555
C30 C29 1_555 1_555
H27 C30 1_555 1_555
C31 C30 1_555 1_555
H28 C31 1_555 1_555
C32 C27 1_555 1_555
H29 C32 1_555 1_555
C33 C34 1_555 1_555
C34 H30 1_555 1_555
C35 C34 1_555 1_555
H31 C35 1_555 1_555
C36 C35 1_555 1_555
H32 C36 1_555 1_555
C37 C36 1_555 1_555
H33 C37 1_555 1_555
C38 C33 1_555 1_555
H34 C38 1_555 1_555
P1 C1 1_555 1_555
P2 C2 1_555 1_555
S1 C3 1_555 1_555
S2 C9 1_555 1_555
Au1 P1 1_555 1_555
Au2 P2 1_555 1_555
C1A C1 1_555 1_555
H1A C1A 1_555 1_555
H2A C1A 1_555 1_555
C2A C2 1_555 1_555
H3A C2A 1_555 1_555
H4A C2A 1_555 1_555
C3A C4A 1_555 1_555
C4A H5A 1_555 1_555
C5A C4A 1_555 1_555
H6A C5A 1_555 1_555
C6A C5A 1_555 1_555
H7A C6A 1_555 1_555
C7A C6A 1_555 1_555
H8A C7A 1_555 1_555
C8A C3A 1_555 1_555
H9A C8A 1_555 1_555
C9A C10A 1_555 1_555
C10A H10A 1_555 1_555
C11A C10A 1_555 1_555
H11A C11A 1_555 1_555
C12A C11A 1_555 1_555
H12A C12A 1_555 1_555
C13A C12A 1_555 1_555
H13A C13A 1_555 1_555
C14A C9A 1_555 1_555
H14A C14A 1_555 1_555
C15A C16A 1_555 1_555
C16A H15A 1_555 1_555
C17A C16A 1_555 1_555
H16A C17A 1_555 1_555
C18A C17A 1_555 1_555
H17A C18A 1_555 1_555
C19A C18A 1_555 1_555
H18A C19A 1_555 1_555
C20A C15A 1_555 1_555
H19A C20A 1_555 1_555
C21A C22A 1_555 1_555
C22A H20A 1_555 1_555
C23A C22A 1_555 1_555
H21A C23A 1_555 1_555
C24A C23A 1_555 1_555
H22A C24A 1_555 1_555
C25A C24A 1_555 1_555
H23A C25A 1_555 1_555
C26A C21A 1_555 1_555
H24A C26A 1_555 1_555
C27A C28A 1_555 1_555
C28A H25A 1_555 1_555
C29A C28A 1_555 1_555
H26A C29A 1_555 1_555
C30A C29A 1_555 1_555
H27A C30A 1_555 1_555
C31A C30A 1_555 1_555
H28A C31A 1_555 1_555
C32A C27A 1_555 1_555
H29A C32A 1_555 1_555
C33A C34A 1_555 1_555
C34A H30A 1_555 1_555
C35A C34A 1_555 1_555
H31A C35A 1_555 1_555
C36A C35A 1_555 1_555
H32A C36A 1_555 1_555
C37A C36A 1_555 1_555
H33A C37A 1_555 1_555
C38A C33A 1_555 1_555
H34A C38A 1_555 1_555
P1A C1A 1_555 1_555
P2A C2A 1_555 1_555
S1A C3A 1_555 1_555
S2A C9A 1_555 1_555
Au1A P1A 1_555 1_555
Au1A_2 Au2A 1_555 1_555
Au2A P2A 1_555 1_555
Au2A_2 Au1A 1_555 1_555
C7 C8 1_555 1_555
C13 C14 1_555 1_555
C15 P1 1_555 1_555
C19 C20 1_555 1_555
C21 P1 1_555 1_555
C25 C26 1_555 1_555
C27 P2 1_555 1_555
C31 C32 1_555 1_555
C33 P2 1_555 1_555
C37 C38 1_555 1_555
S1 Au1 1_555 1_555
S2 Au2 1_555 1_555
Au1 Au2 1_555 1_555
C7A C8A 1_555 1_555
C13A C14A 1_555 1_555
C15A P1A 1_555 1_555
C19A C20A 1_555 1_555
C21A P1A 1_555 1_555
C25A C26A 1_555 1_555
C27A P2A 1_555 1_555
C31A C32A 1_555 1_555
C33A P2A 1_555 1_555
C37A C38A 1_555 1_555
S1A Au1A 1_555 1_555
S2A Au2A 1_555 1_555

#END
