
#######################################################################
#
#                 Cambridge Crystallographic Data Centre
#                                CCDC 
#
#######################################################################
#
# If this CIF has been generated from an entry in the Cambridge 
# Structural Database, then it will include bibliographic, chemical, 
# crystal, experimental, refinement or atomic coordinate data resulting 
# from the CCDC's data processing and validation procedures.
#
#######################################################################

data_FOJJEV
_symmetry_cell_setting           monoclinic
_symmetry_space_group_name_H-M   'C 2/c'
_symmetry_Int_Tables_number      15
_space_group_name_Hall           '-C 2yn'
loop_
_symmetry_equiv_pos_site_id
_symmetry_equiv_pos_as_xyz
1 x,y,z
2 -x,y,1/2-z
3 1/2+x,1/2+y,z
4 1/2-x,1/2+y,1/2-z
5 -x,-y,-z
6 x,-y,1/2+z
7 1/2-x,1/2-y,-z
8 1/2+x,1/2-y,1/2+z
_cell_length_a                   23.6098(6)
_cell_length_b                   11.3749(2)
_cell_length_c                   13.1550(3)
_cell_angle_alpha                90
_cell_angle_beta                 93.237(2)
_cell_angle_gamma                90
_cell_volume                     3527.26
loop_
_atom_site_label
_atom_site_type_symbol
_atom_site_fract_x
_atom_site_fract_y
_atom_site_fract_z
C1 C 1.10124(10) 0.23816(17) 0.12086(19)
C2 C 1.16426(11) 0.2606(2) 0.1199(2)
C3 C 1.18045(10) 0.39071(19) 0.10538(17)
C4 C 1.17086(14) 0.4296(2) -0.0056(2)
C5 C 1.19009(14) 0.5571(3) -0.0166(3)
C6 C 1.25323(13) 0.5663(3) 0.0131(2)
C7 C 1.26475(11) 0.5295(2) 0.12443(19)
C8 C 1.22906(12) 0.6095(3) 0.1908(3)
C9 C 1.16604(12) 0.5988(2) 0.1607(3)
C10 C 1.14654(12) 0.4717(2) 0.1722(2)
C11 C 1.15544(16) 0.6359(3) 0.0503(3)
C12 C 1.24377(10) 0.4034(2) 0.1367(2)
C13 C 1.32779(11) 0.5441(3) 0.1602(2)
C14 C 1.36897(11) 0.4852(2) 0.0941(2)
C15 C 1.02502(11) -0.02309(19) 0.17845(19)
C16 C 1.02551(11) -0.14418(19) 0.17527(18)
C17 C 1.0000 -0.2073(2) 0.2500
C18 C 1.01736(12) -0.5229(2) 0.33232(19)
C19 C 1.01733(12) -0.4023(2) 0.33576(19)
C20 C 1.0000 -0.3384(2) 0.2500
N1 N 1.0000 0.0385(2) 0.2500
N2 N 1.0000 -0.5851(2) 0.2500
O1 O 1.03229(8) 0.22685(15) 0.40148(13)
O2 O 1.08089(7) 0.23065(13) 0.20684(12)
O3 O 1.07228(7) 0.22947(14) 0.03685(13)
O4 O 1.37173(8) 0.36994(16) 0.10602(15)
O5 O 1.39756(9) 0.53731(16) 0.03509(15)
Ni1 Ni 1.0000 0.22606(3) 0.2500
H1 H 1.1816(10) 0.2374(18) 0.1834(18)
H2 H 1.1799(11) 0.217(2) 0.0672(19)
H3 H 1.1309(11) 0.4232(19) -0.0271(17)
H4 H 1.1942(11) 0.378(2) -0.0462(18)
H5 H 1.1859(14) 0.578(3) -0.080(2)
H6 H 1.2660(11) 0.652(2) 0.0048(17)
H7 H 1.2756(11) 0.517(2) -0.0297(18)
H8 H 1.2396(12) 0.587(2) 0.263(2)
H9 H 1.2423(11) 0.684(2) 0.1846(19)
H10 H 1.1459(12) 0.653(2) 0.203(2)
H11 H 1.1519(10) 0.4479(19) 0.2404(19)
H12 H 1.1080(12) 0.470(2) 0.1511(18)
H13 H 1.1168(14) 0.634(2) 0.030(2)
H14 H 1.1659(14) 0.716(3) 0.043(2)
H15 H 1.2515(10) 0.3789(18) 0.2089(17)
H16 H 1.2642(11) 0.353(2) 0.0971(18)
H17 H 1.3380(12) 0.628(2) 0.1613(19)
H18 H 1.3330(11) 0.509(2) 0.228(2)
H19 H 1.3907(14) 0.345(3) 0.061(2)
H20 H 1.0402(10) 0.0211(19) 0.1277(18)
H21 H 1.0452(9) -0.1808(19) 0.1277(16)
H22 H 1.0302(11) -0.567(2) 0.388(2)
H23 H 1.0300(10) -0.365(2) 0.3936(19)
H24 H 1.0024(14) 0.223(2) 0.440(2)
H25 H 1.0523(13) 0.181(3) 0.417(2)
C15A C 0.97498(11) -0.02309(19) 0.32155(19)
C16A C 0.97449(11) -0.14418(19) 0.32473(18)
H20A H 0.9598(10) 0.0211(19) 0.3723(18)
H21A H 0.9548(9) -0.1808(19) 0.3723(16)
C18A C 0.98264(12) -0.5229(2) 0.16768(19)
C19A C 0.98267(12) -0.4023(2) 0.16424(19)
H22A H 0.9698(11) -0.567(2) 0.112(2)
H23A H 0.9700(10) -0.365(2) 0.1064(19)
C1A C 0.89876(10) 0.23816(17) 0.37914(19)
C2A C 0.83574(11) 0.2606(2) 0.3801(2)
C3A C 0.81955(10) 0.39071(19) 0.39462(17)
C4A C 0.82914(14) 0.4296(2) 0.5056(2)
C5A C 0.80991(14) 0.5571(3) 0.5166(3)
C6A C 0.74677(13) 0.5663(3) 0.4869(2)
C7A C 0.73525(11) 0.5295(2) 0.37557(19)
C8A C 0.77094(12) 0.6095(3) 0.3092(3)
C9A C 0.83396(12) 0.5988(2) 0.3393(3)
C10A C 0.85346(12) 0.4717(2) 0.3278(2)
C11A C 0.84456(16) 0.6359(3) 0.4497(3)
C12A C 0.75623(10) 0.4034(2) 0.3633(2)
C13A C 0.67221(11) 0.5441(3) 0.3398(2)
C14A C 0.63103(11) 0.4852(2) 0.4059(2)
O1A O 0.96771(8) 0.22685(15) 0.09852(13)
O2A O 0.91911(7) 0.23065(13) 0.29316(12)
O3A O 0.92772(7) 0.22947(14) 0.46315(13)
O4A O 0.62827(8) 0.36994(16) 0.39398(15)
O5A O 0.60244(9) 0.53731(16) 0.46491(15)
H1A H 0.8184(10) 0.2374(18) 0.3166(18)
H2A H 0.8201(11) 0.217(2) 0.4328(19)
H3A H 0.8691(11) 0.4232(19) 0.5271(17)
H4A H 0.8058(11) 0.378(2) 0.5462(18)
H5A H 0.8141(14) 0.578(3) 0.580(2)
H6A H 0.7340(11) 0.652(2) 0.4952(17)
H7A H 0.7244(11) 0.517(2) 0.5297(18)
H8A H 0.7604(12) 0.587(2) 0.237(2)
H9A H 0.7577(11) 0.684(2) 0.3154(19)
H10A H 0.8541(12) 0.653(2) 0.297(2)
H11A H 0.8481(10) 0.4479(19) 0.2596(19)
H12A H 0.8920(12) 0.470(2) 0.3489(18)
H13A H 0.8832(14) 0.634(2) 0.470(2)
H14A H 0.8341(14) 0.716(3) 0.457(2)
H15A H 0.7485(10) 0.3789(18) 0.2911(17)
H16A H 0.7358(11) 0.353(2) 0.4029(18)
H17A H 0.6620(12) 0.628(2) 0.3387(19)
H18A H 0.6670(11) 0.509(2) 0.272(2)
H19A H 0.6093(14) 0.345(3) 0.439(2)
H24A H 0.9976(14) 0.223(2) 0.060(2)
H25A H 0.9477(13) 0.181(3) 0.083(2)
N2_2 N 1.0000 0.4149(2) 0.2500
Ni1_2 Ni 1.0000 -0.77394(3) 0.2500
loop_
_geom_bond_atom_site_label_1
_geom_bond_atom_site_label_2
_geom_bond_site_symmetry_1
_geom_bond_site_symmetry_2
C1 C2 1_555 1_555
C2 C3 1_555 1_555
C3 C4 1_555 1_555
C4 C5 1_555 1_555
C5 C6 1_555 1_555
C6 C7 1_555 1_555
C7 C8 1_555 1_555
C8 C9 1_555 1_555
C9 C10 1_555 1_555
C10 C3 1_555 1_555
C11 C5 1_555 1_555
C12 C3 1_555 1_555
C13 C7 1_555 1_555
C14 C13 1_555 1_555
C15 C16 1_555 1_555
C16 C17 1_555 1_555
C17 C20 1_555 1_555
C18 C19 1_555 1_555
C19 C20 1_555 1_555
C20 C19A 1_555 1_555
N1 C15 1_555 1_555
N2 C18 1_555 1_555
O1 Ni1 1_555 1_555
O2 C1 1_555 1_555
O3 C1 1_555 1_555
O4 C14 1_555 1_555
O5 C14 1_555 1_555
Ni1 N1 1_555 1_555
H1 C2 1_555 1_555
H2 C2 1_555 1_555
H3 C4 1_555 1_555
H4 C4 1_555 1_555
H5 C5 1_555 1_555
H6 C6 1_555 1_555
H7 C6 1_555 1_555
H8 C8 1_555 1_555
H9 C8 1_555 1_555
H10 C9 1_555 1_555
H11 C10 1_555 1_555
H12 C10 1_555 1_555
H13 C11 1_555 1_555
H14 C11 1_555 1_555
H15 C12 1_555 1_555
H16 C12 1_555 1_555
H17 C13 1_555 1_555
H18 C13 1_555 1_555
H19 O4 1_555 1_555
H20 C15 1_555 1_555
H21 C16 1_555 1_555
H22 C18 1_555 1_555
H23 C19 1_555 1_555
H24 O1 1_555 1_555
H25 O1 1_555 1_555
C15A N1 1_555 1_555
C16A C17 1_555 1_555
H20A C15A 1_555 1_555
H21A C16A 1_555 1_555
C18A N2 1_555 1_555
C19A C18A 1_555 1_555
H22A C18A 1_555 1_555
H23A C19A 1_555 1_555
C1A C2A 1_555 1_555
C2A C3A 1_555 1_555
C3A C4A 1_555 1_555
C4A C5A 1_555 1_555
C5A C6A 1_555 1_555
C6A C7A 1_555 1_555
C7A C8A 1_555 1_555
C8A C9A 1_555 1_555
C9A C10A 1_555 1_555
C10A C3A 1_555 1_555
C11A C5A 1_555 1_555
C12A C3A 1_555 1_555
C13A C7A 1_555 1_555
C14A C13A 1_555 1_555
O1A Ni1 1_555 1_555
O2A Ni1 1_555 1_555
O3A C1A 1_555 1_555
O4A C14A 1_555 1_555
O5A C14A 1_555 1_555
H1A C2A 1_555 1_555
H2A C2A 1_555 1_555
H3A C4A 1_555 1_555
H4A C4A 1_555 1_555
H5A C5A 1_555 1_555
H6A C6A 1_555 1_555
H7A C6A 1_555 1_555
H8A C8A 1_555 1_555
H9A C8A 1_555 1_555
H10A C9A 1_555 1_555
H11A C10A 1_555 1_555
H12A C10A 1_555 1_555
H13A C11A 1_555 1_555
H14A C11A 1_555 1_555
H15A C12A 1_555 1_555
H16A C12A 1_555 1_555
H17A C13A 1_555 1_555
H18A C13A 1_555 1_555
H19A O4A 1_555 1_555
H24A O1A 1_555 1_555
H25A O1A 1_555 1_555
N2_2 Ni1 1_555 1_555
Ni1_2 N2 1_555 1_555
C7 C12 1_555 1_555
C9 C11 1_555 1_555
O2 Ni1 1_555 1_555
C15A C16A 1_555 1_555
C1A O2A 1_555 1_555
C7A C12A 1_555 1_555
C9A C11A 1_555 1_555

#END
