
#######################################################################
#
#                 Cambridge Crystallographic Data Centre
#                                CCDC 
#
#######################################################################
#
# If this CIF has been generated from an entry in the Cambridge 
# Structural Database, then it will include bibliographic, chemical, 
# crystal, experimental, refinement or atomic coordinate data resulting 
# from the CCDC's data processing and validation procedures.
#
#######################################################################

data_FOJPEA
_symmetry_cell_setting           orthorhombic
_symmetry_space_group_name_H-M   'P c a 21'
_symmetry_Int_Tables_number      29
_space_group_name_Hall           'P 2c -2ac'
loop_
_symmetry_equiv_pos_site_id
_symmetry_equiv_pos_as_xyz
1 x,y,z
2 1/2-x,y,1/2+z
3 1/2+x,-y,z
4 -x,-y,1/2+z
_cell_length_a                   28.386(2)
_cell_length_b                   7.6206(5)
_cell_length_c                   15.1505(12)
_cell_angle_alpha                90
_cell_angle_beta                 90
_cell_angle_gamma                90
_cell_volume                     3277.33
loop_
_atom_site_label
_atom_site_type_symbol
_atom_site_fract_x
_atom_site_fract_y
_atom_site_fract_z
Mo1 Mo 0.15728(2) 0.21235(10) 0.00298(10)
Br1 Br 0.32992(3) 0.2133(2) 0.0107(1)
Br2 Br 0.09461(2) -0.29009(13) -0.00011(12)
Cu1 Cu 0.06570(3) 0.2458(1) 0.0040(1)
Cu2 Cu 0.14836(4) -0.0834(2) 0.09502(10)
Cu3 Cu 0.24971(3) 0.2094(2) 0.0055(2)
Cu4 Cu 0.15097(5) -0.4880(2) -0.08831(10)
S1 S 0.11102(10) 0.1784(4) 0.1215(2)
S2 S 0.20320(8) -0.0260(3) -0.0119(2)
S3 S 0.20393(8) 0.4462(3) 0.0218(2)
S4 S 0.11074(9) 0.2577(4) -0.1147(2)
N1 N -0.0013(2) 0.2853(11) 0.0154(6)
N2 N 0.1616(3) -0.2158(11) 0.2068(5)
N3 N 0.1698(3) -0.3517(11) -0.1934(5)
C1 C -0.0312(3) 0.1566(13) 0.0354(7)
C2 C -0.0788(4) 0.190(2) 0.0505(7)
C3 C -0.0961(4) 0.358(2) 0.0383(7)
C4 C -0.0656(4) 0.489(1) 0.0170(8)
C5 C -0.0176(3) 0.4500(12) 0.0080(8)
C6 C -0.0110(4) -0.026(1) 0.0417(8)
C7 C 0.1877(3) -0.1472(13) 0.2717(7)
C8 C 0.1949(4) -0.240(2) 0.3526(8)
C9 C 0.1753(4) -0.405(2) 0.3609(8)
C10 C 0.1478(4) -0.473(2) 0.2937(8)
C11 C 0.1429(4) -0.375(1) 0.2178(7)
C12 C 0.2078(4) 0.0326(12) 0.2631(8)
C13 C 0.1996(4) -0.4158(13) -0.2548(7)
C14 C 0.2107(4) -0.319(1) -0.3281(7)
C15 C 0.1928(4) -0.155(2) -0.3409(8)
C16 C 0.1615(3) -0.088(1) -0.2798(7)
C17 C 0.1514(4) -0.1907(13) -0.2062(7)
C18 C 0.2192(4) -0.596(1) -0.2395(8)
H1 H -0.0995(4) 0.096(2) 0.0653(7)
H2 H -0.1286(4) 0.382(2) 0.0474(7)
H3 H -0.0767(4) 0.605(1) 0.0074(8)
H4 H 0.0040(3) 0.5423(12) -0.0037(8)
H5 H -0.0351(4) -0.107(1) 0.0574(8)
H6 H 0.0021(4) -0.059(1) -0.0136(8)
H7 H 0.0129(4) -0.027(1) 0.0855(8)
H8 H 0.2127(4) -0.189(2) 0.3989(8)
H9 H 0.1806(4) -0.471(2) 0.4132(8)
H10 H 0.1330(4) -0.584(2) 0.2998(8)
H11 H 0.1253(4) -0.424(1) 0.1705(7)
H12 H 0.2255(4) 0.0593(12) 0.3145(8)
H13 H 0.2279(4) 0.0354(12) 0.2130(8)
H14 H 0.1834(4) 0.1167(12) 0.2561(8)
H15 H 0.2314(4) -0.368(1) -0.3708(7)
H16 H 0.2018(4) -0.086(2) -0.3905(8)
H17 H 0.1473(3) 0.024(1) -0.2874(7)
H18 H 0.1299(4) -0.1462(13) -0.1637(7)
H19 H 0.1941(4) -0.678(1) -0.2362(8)
H20 H 0.2396(4) -0.626(1) -0.2867(8)
H21 H 0.2363(4) -0.597(1) -0.1856(8)
Cu4_2 Cu 0.15097(5) 0.5120(2) -0.08831(10)
S3_2 S 0.20393(8) -0.5538(3) 0.0218(2)
S4_2 S 0.11074(9) -0.7423(4) -0.1147(2)
N4 N 0.0528(4) 0.214(2) 0.3239(8)
C19 C 0.0093(4) 0.218(2) 0.2900(9)
C20 C -0.0160(5) 0.067(2) 0.2711(10)
C21 C 0.0047(5) -0.091(2) 0.2879(10)
C22 C 0.0502(5) -0.098(2) 0.3200(10)
C23 C 0.0714(5) 0.055(2) 0.3380(10)
C24 C -0.0122(7) 0.397(2) 0.2744(13)
H22 H -0.0469(5) 0.075(2) 0.2472(10)
H23 H -0.0128(5) -0.195(2) 0.2775(10)
H24 H 0.0661(5) -0.207(2) 0.3281(10)
H25 H 0.1020(5) 0.051(2) 0.3632(10)
H26 H -0.0149(7) 0.457(2) 0.3290(13)
H27 H 0.0070(7) 0.463(2) 0.2352(13)
H28 H -0.0426(7) 0.382(2) 0.2493(13)
loop_
_geom_bond_atom_site_label_1
_geom_bond_atom_site_label_2
_geom_bond_site_symmetry_1
_geom_bond_site_symmetry_2
Mo1 S1 1_555 1_555
Br1 Cu3 1_555 1_555
Br2 Cu2 1_555 1_555
Cu1 S1 1_555 1_555
Cu2 S1 1_555 1_555
Cu3 S2 1_555 1_555
Cu4 Br2 1_555 1_555
S2 Mo1 1_555 1_555
S3 Mo1 1_555 1_555
S4 Mo1 1_555 1_555
N1 Cu1 1_555 1_555
N2 Cu2 1_555 1_555
N3 Cu4 1_555 1_555
N4 C19 1_555 1_555
C1 N1 1_555 1_555
C2 C1 1_555 1_555
C3 C2 1_555 1_555
C4 C3 1_555 1_555
C5 N1 1_555 1_555
C6 C1 1_555 1_555
C7 N2 1_555 1_555
C8 C7 1_555 1_555
C9 C8 1_555 1_555
C10 C9 1_555 1_555
C11 N2 1_555 1_555
C12 C7 1_555 1_555
C13 N3 1_555 1_555
C14 C13 1_555 1_555
C15 C14 1_555 1_555
C16 C15 1_555 1_555
C17 N3 1_555 1_555
C18 C13 1_555 1_555
C19 C20 1_555 1_555
C20 C21 1_555 1_555
C21 C22 1_555 1_555
C22 C23 1_555 1_555
C23 N4 1_555 1_555
C24 C19 1_555 1_555
H1 C2 1_555 1_555
H2 C3 1_555 1_555
H3 C4 1_555 1_555
H4 C5 1_555 1_555
H5 C6 1_555 1_555
H6 C6 1_555 1_555
H7 C6 1_555 1_555
H8 C8 1_555 1_555
H9 C9 1_555 1_555
H10 C10 1_555 1_555
H11 C11 1_555 1_555
H12 C12 1_555 1_555
H13 C12 1_555 1_555
H14 C12 1_555 1_555
H15 C14 1_555 1_555
H16 C15 1_555 1_555
H17 C16 1_555 1_555
H18 C17 1_555 1_555
H19 C18 1_555 1_555
H20 C18 1_555 1_555
H21 C18 1_555 1_555
H22 C20 1_555 1_555
H23 C21 1_555 1_555
H24 C22 1_555 1_555
H25 C23 1_555 1_555
H26 C24 1_555 1_555
H27 C24 1_555 1_555
H28 C24 1_555 1_555
Cu4_2 S3 1_555 1_555
S3_2 Cu4 1_555 1_555
S4_2 Cu4 1_555 1_555
Cu1 S4 1_555 1_555
Cu2 S2 1_555 1_555
Cu3 S3 1_555 1_555
S4 Cu4_2 1_555 1_555
C4 C5 1_555 1_555
C10 C11 1_555 1_555
C16 C17 1_555 1_555

#END
