
#######################################################################
#
#                 Cambridge Crystallographic Data Centre
#                                CCDC 
#
#######################################################################
#
# If this CIF has been generated from an entry in the Cambridge 
# Structural Database, then it will include bibliographic, chemical, 
# crystal, experimental, refinement or atomic coordinate data resulting 
# from the CCDC's data processing and validation procedures.
#
#######################################################################

data_FOJRAZ
_symmetry_cell_setting           triclinic
_symmetry_space_group_name_H-M   'P -1'
_symmetry_Int_Tables_number      2
_space_group_name_Hall           '-P 1'
loop_
_symmetry_equiv_pos_site_id
_symmetry_equiv_pos_as_xyz
1 x,y,z
2 -x,-y,-z
_cell_length_a                   10.1122(2)
_cell_length_b                   11.5924(3)
_cell_length_c                   20.0483(3)
_cell_angle_alpha                81.7350(10)
_cell_angle_beta                 76.2720(10)
_cell_angle_gamma                75.8840(10)
_cell_volume                     2204.86
loop_
_atom_site_label
_atom_site_type_symbol
_atom_site_fract_x
_atom_site_fract_y
_atom_site_fract_z
Mn1 Mn 0.10856(4) 0.32078(3) 0.260957(19)
F1 F 0.0875(2) -0.00239(17) 0.66690(10)
F2 F 0.4300(2) -0.0667(2) 0.79661(11)
F3 F 0.34610(19) -0.33802(16) 0.18788(11)
F4 F 0.8010(2) -0.3268(3) 0.19007(17)
O1 O 0.2467(2) 0.28791(17) 0.54832(11)
H1 H 0.3274 0.2606 0.5293
O2 O 0.3208(2) -0.02890(18) 0.04407(11)
H2 H 0.3272 0.0226 0.0665
O3 O -0.14017(18) 0.32316(18) 0.27497(10)
O4 O -0.00876(17) 0.37121(18) 0.17652(10)
O5 O -0.6483(2) 0.3290(2) 0.28047(13)
O6 O -0.71019(19) 0.3452(2) 0.18160(12)
O7 O -0.3375(2) 0.5035(3) 0.01092(11)
H3 H -0.2589 0.5153 -0.0049
N1 N -0.0483(2) 0.4922(2) 0.70938(12)
N2 N -0.0228(3) 0.2935(2) 0.72332(13)
N3 N -0.0018(2) 0.33262(19) 0.65556(12)
N4 N 0.1332(2) 0.15648(19) 0.46923(11)
N5 N 0.0003(2) 0.1482(2) 0.47009(13)
N6 N 0.0877(2) 0.2497(2) 0.37248(11)
N7 N 0.1528(2) 0.12821(19) 0.24087(12)
N8 N 0.2379(3) -0.0698(2) 0.24558(13)
N9 N 0.1759(2) -0.03187(19) 0.19069(11)
N10 N 0.0700(3) -0.2165(3) 0.02887(15)
N11 N 0.1972(3) -0.1916(2) 0.00250(13)
N12 N 0.0758(4) -0.1139(3) -0.07575(18)
C1 C 0.3592(3) 0.1559(3) 0.65720(15)
H4 H 0.3932 0.2209 0.6329
C2 C 0.4208(3) 0.0914(3) 0.70950(16)
H5 H 0.4965 0.1118 0.7201
C3 C 0.3689(3) -0.0030(3) 0.74546(17)
C4 C 0.2575(3) -0.0355(3) 0.73236(17)
H6 H 0.2227 -0.0993 0.7578
C5 C 0.1988(3) 0.0306(3) 0.67971(15)
C6 C 0.2458(3) 0.1254(2) 0.63995(14)
C7 C 0.1815(3) 0.1931(2) 0.58014(14)
C8 C 0.0268(3) 0.2512(2) 0.60288(15)
H7 H -0.0071 0.2945 0.5629
H8 H -0.0248 0.1889 0.6202
C9 C -0.0511(3) 0.3925(3) 0.75311(16)
H9 H -0.0715 0.3940 0.8008
C10 C -0.0177(3) 0.4506(2) 0.64864(15)
H10 H -0.0084 0.4972 0.6067
C11 C 0.1995(3) 0.1043(2) 0.52667(14)
H11 H 0.2983 0.0747 0.5090
H12 H 0.1604 0.0367 0.5493
C12 C 0.1824(3) 0.2165(3) 0.41116(14)
H13 H 0.2710 0.2330 0.3992
C13 C -0.0206(3) 0.2051(3) 0.41084(15)
H14 H -0.1036 0.2141 0.3963
C14 C -0.1259(2) 0.3565(2) 0.21192(14)
C15 C -0.2463(2) 0.3777(2) 0.17672(14)
C16 C -0.3733(2) 0.3516(2) 0.21246(15)
H15 H -0.3839 0.3200 0.2583
C17 C -0.4839(2) 0.3732(2) 0.17914(15)
C18 C 0.3096(3) -0.2280(3) 0.03988(16)
H16 H 0.3980 -0.2420 0.0070
H17 H 0.3011 -0.3029 0.0674
C19 C -0.6216(3) 0.3470(3) 0.21687(18)
C20 C -0.4694(3) 0.4226(3) 0.11144(15)
H18 H -0.5436 0.4365 0.0893
C21 C -0.3448(3) 0.4511(3) 0.07680(15)
C22 C -0.2330(3) 0.4267(2) 0.10925(14)
H19 H -0.1482 0.4436 0.0853
C23 C 0.1265(3) 0.0856(2) 0.18921(14)
H20 H 0.0799 0.1313 0.1562
C24 C 0.2210(3) 0.0294(3) 0.27343(16)
H21 H 0.2535 0.0319 0.3128
C25 C 0.1753(3) -0.1136(2) 0.14221(15)
H22 H 0.0976 -0.0811 0.1195
H23 H 0.1615 -0.1892 0.1673
C26 C 0.3106(3) -0.1352(2) 0.08764(15)
C27 C 0.4419(3) -0.1835(3) 0.11759(15)
C28 C 0.5581(3) -0.1333(3) 0.09578(17)
H24 H 0.5544 -0.0661 0.0642
C29 C 0.6798(3) -0.1810(4) 0.1200(2)
H25 H 0.7568 -0.1464 0.1049
C30 C 0.6841(3) -0.2788(4) 0.1660(2)
C31 C 0.5733(4) -0.3320(3) 0.1907(2)
H26 H 0.5772 -0.3976 0.2234
C32 C 0.4551(3) -0.2829(3) 0.16443(17)
C33 C 0.1969(4) -0.1314(3) -0.05872(19)
H27 H 0.2734 -0.1048 -0.0864
C34 C 0.0038(4) -0.1664(4) -0.0208(2)
H28 H -0.0891 -0.1678 -0.0174
Mn1_2 Mn -0.89144(4) 0.32078(3) 0.260957(19)
Mn1A Mn -0.10856(4) 0.67922(3) 0.739043(19)
O6_2 O 0.28981(19) 0.3452(2) 0.18160(12)
N1A N 0.0483(2) 0.5078(2) 0.29062(12)
O8 O 0.3225(3) 0.7277(2) 0.34435(14)
H29 H 0.2982 0.7686 0.3088
H30 H 0.3353 0.6539 0.3393
O9 O 0.3832(3) 0.4827(2) 0.36780(14)
H31 H 0.3698 0.4378 0.3412
H32 H 0.4641 0.4552 0.3763
O10 O 0.7238(3) 0.1179(2) 0.55929(13)
H33 H 0.7058 0.1652 0.5905
H34 H 0.8017 0.1241 0.5330
O11 O 0.5141(3) 0.2041(3) 0.48212(15)
H35 H 0.5718 0.1730 0.5078
H36 H 0.5468 0.2575 0.4539
O12 O 0.6522(3) 0.3834(3) 0.39174(14)
H37 H 0.7151 0.3652 0.3561
H38 H 0.6886 0.4066 0.4201
O13 O 0.3500(3) 0.1948(3) 0.07275(16)
H39 H 0.3500 0.2243 0.1092
H40 H 0.2891 0.2420 0.0531
O14 O 0.2174(4) 0.5361(3) 0.50809(18)
H41 H 0.2189 0.4651 0.5264
H42 H 0.2630 0.5327 0.4667
O15 O 0.9275(4) 0.4712(4) 0.9365(2)
O16? O 0.8668(7) 0.6086(7) 0.9611(3)
loop_
_geom_bond_atom_site_label_1
_geom_bond_atom_site_label_2
_geom_bond_site_symmetry_1
_geom_bond_site_symmetry_2
Mn1 O3 1_555 1_555
F1 C5 1_555 1_555
F2 C3 1_555 1_555
F3 C32 1_555 1_555
F4 C30 1_555 1_555
O1 H1 1_555 1_555
O2 H2 1_555 1_555
O3 C14 1_555 1_555
O4 Mn1 1_555 1_555
O5 C19 1_555 1_555
O6 C19 1_555 1_555
O7 H3 1_555 1_555
N1 C9 1_555 1_555
N2 N3 1_555 1_555
N3 C8 1_555 1_555
N4 N5 1_555 1_555
N5 C13 1_555 1_555
N6 Mn1 1_555 1_555
N7 Mn1 1_555 1_555
N8 N9 1_555 1_555
N9 C23 1_555 1_555
N10 N11 1_555 1_555
N11 C18 1_555 1_555
N12 C33 1_555 1_555
C1 H4 1_555 1_555
C2 C1 1_555 1_555
H5 C2 1_555 1_555
C3 C2 1_555 1_555
C4 C3 1_555 1_555
H6 C4 1_555 1_555
C5 C4 1_555 1_555
C6 C1 1_555 1_555
C7 O1 1_555 1_555
C8 C7 1_555 1_555
H7 C8 1_555 1_555
H8 C8 1_555 1_555
C9 N2 1_555 1_555
H9 C9 1_555 1_555
C10 N1 1_555 1_555
H10 C10 1_555 1_555
C11 N4 1_555 1_555
H11 C11 1_555 1_555
H12 C11 1_555 1_555
C12 N4 1_555 1_555
H13 C12 1_555 1_555
C13 N6 1_555 1_555
H14 C13 1_555 1_555
C14 O4 1_555 1_555
C15 C14 1_555 1_555
C16 C15 1_555 1_555
H15 C16 1_555 1_555
C17 C16 1_555 1_555
C18 H16 1_555 1_555
H17 C18 1_555 1_555
C19 C17 1_555 1_555
C20 C17 1_555 1_555
H18 C20 1_555 1_555
C21 O7 1_555 1_555
C22 C15 1_555 1_555
H19 C22 1_555 1_555
C23 N7 1_555 1_555
H20 C23 1_555 1_555
C24 N7 1_555 1_555
H21 C24 1_555 1_555
C25 N9 1_555 1_555
H22 C25 1_555 1_555
H23 C25 1_555 1_555
C26 O2 1_555 1_555
C27 C26 1_555 1_555
C28 C27 1_555 1_555
H24 C28 1_555 1_555
C29 C28 1_555 1_555
H25 C29 1_555 1_555
C30 C29 1_555 1_555
C31 C30 1_555 1_555
H26 C31 1_555 1_555
C32 C27 1_555 1_555
C33 N11 1_555 1_555
H27 C33 1_555 1_555
C34 N10 1_555 1_555
H28 C34 1_555 1_555
O8 H29 1_555 1_555
H30 O8 1_555 1_555
O9 H31 1_555 1_555
H32 O9 1_555 1_555
O10 H33 1_555 1_555
H34 O10 1_555 1_555
O11 H35 1_555 1_555
H36 O11 1_555 1_555
O12 H37 1_555 1_555
H38 O12 1_555 1_555
O13 H39 1_555 1_555
H40 O13 1_555 1_555
O14 H41 1_555 1_555
H42 O14 1_555 1_555
Mn1_2 O6 1_555 1_555
Mn1A N1 1_555 1_555
O6_2 Mn1 1_555 1_555
N1A Mn1 1_555 1_555
N3 C10 1_555 1_555
N6 C12 1_555 1_555
N8 C24 1_555 1_555
N12 C34 1_555 1_555
C5 C6 1_555 1_555
C6 C7 1_555 1_555
C7 C11 1_555 1_555
C18 C26 1_555 1_555
C20 C21 1_555 1_555
C21 C22 1_555 1_555
C25 C26 1_555 1_555
C31 C32 1_555 1_555

#END
