
#######################################################################
#
#                 Cambridge Crystallographic Data Centre
#                                CCDC 
#
#######################################################################
#
# If this CIF has been generated from an entry in the Cambridge 
# Structural Database, then it will include bibliographic, chemical, 
# crystal, experimental, refinement or atomic coordinate data resulting 
# from the CCDC's data processing and validation procedures.
#
#######################################################################

data_FOJWOS
_symmetry_cell_setting           tetragonal
_symmetry_space_group_name_H-M   'P 42 21 2'
_symmetry_Int_Tables_number      94
_space_group_name_Hall           'P 4n 2n'
loop_
_symmetry_equiv_pos_site_id
_symmetry_equiv_pos_as_xyz
1 x,y,z
2 -x,-y,z
3 1/2-y,1/2+x,1/2+z
4 1/2+y,1/2-x,1/2+z
5 1/2-x,1/2+y,1/2-z
6 1/2+x,1/2-y,1/2-z
7 y,x,-z
8 -y,-x,-z
_cell_length_a                   14.052(2)
_cell_length_b                   14.052(2)
_cell_length_c                   20.056(4)
_cell_angle_alpha                90
_cell_angle_beta                 90
_cell_angle_gamma                90
_cell_volume                     3960.23
loop_
_atom_site_label
_atom_site_type_symbol
_atom_site_fract_x
_atom_site_fract_y
_atom_site_fract_z
Cu1 Cu 1.0000 0.5000 0.701810(19)
N1 N 1.06232(18) 0.42354(18) 0.63041(11)
H1 H 1.1248 0.4445 0.6259
O1 O 1.06436(15) 0.43103(15) 0.77227(8)
C1 C 1.0096(3) 0.4463(3) 0.44307(15)
H2 H 0.9483 0.4116 0.4414
H3 H 1.0465 0.4291 0.4028
C2 C 1.0644(3) 0.4162(3) 0.50484(14)
H4 H 1.1282 0.4462 0.5046
H5 H 1.0729 0.3463 0.5048
C3 C 1.0099(2) 0.4466(2) 0.56751(13)
H6 H 0.9476 0.4123 0.5682
C4 C 1.0642(2) 0.32121(19) 0.64658(15)
H7 H 1.0890 0.2855 0.6078
H8 H 0.9984 0.2991 0.6552
C5 C 1.1248(2) 0.30004(19) 0.70649(14)
C6 C 1.12013(18) 0.35626(18) 0.76562(14)
C7 C 1.1800(2) 0.3318(2) 0.81935(13)
H9 H 1.1799 0.3700 0.8585
C8 C 1.2383(2) 0.2542(3) 0.81604(13)
H10 H 1.2759 0.2381 0.8537
C9 C 1.2440(2) 0.1983(2) 0.75918(14)
C10 C 1.1860(2) 0.22306(19) 0.70375(16)
H11 H 1.1893 0.1861 0.6642
C11 C 1.3111(2) 0.1193(2) 0.75760(15)
O2 O 1.35917(17) 0.09817(16) 0.80592(11)
O3 O 1.31641(16) 0.07203(15) 0.70168(11)
H12 H 1.3562 0.0278 0.7056
N1A N 0.93768(18) 0.57646(18) 0.63041(11)
H1A H 0.8752 0.5555 0.6259
O1A O 0.93564(15) 0.56897(15) 0.77227(8)
C1A C 0.9904(3) 0.5537(3) 0.44307(15)
H2A H 1.0517 0.5884 0.4414
H3A H 0.9535 0.5709 0.4028
C2A C 0.9356(3) 0.5838(3) 0.50484(14)
H4A H 0.8718 0.5538 0.5046
H5A H 0.9271 0.6537 0.5048
C3A C 0.9901(2) 0.5534(2) 0.56751(13)
H6A H 1.0524 0.5877 0.5682
C4A C 0.9358(2) 0.67879(19) 0.64658(15)
H7A H 0.9110 0.7145 0.6078
H8A H 1.0016 0.7009 0.6552
C5A C 0.8752(2) 0.69996(19) 0.70649(14)
C6A C 0.87987(18) 0.64374(18) 0.76562(14)
C7A C 0.8200(2) 0.6682(2) 0.81935(13)
H9A H 0.8201 0.6300 0.8585
C8A C 0.7617(2) 0.7458(3) 0.81604(13)
H10A H 0.7241 0.7619 0.8537
C9A C 0.7560(2) 0.8017(2) 0.75918(14)
C10A C 0.8140(2) 0.77694(19) 0.70375(16)
H11A H 0.8107 0.8139 0.6642
C11A C 0.6889(2) 0.8807(2) 0.75760(15)
O2A O 0.64083(17) 0.90183(16) 0.80592(11)
O3A O 0.68359(16) 0.92797(15) 0.70168(11)
H12A H 0.6438 0.9722 0.7056
Cu1D Cu 0.5000 1.0000 0.798190(19)
Cu1D_2 Cu 1.5000 0.0000 0.798190(19)
O2D O 1.14083(17) 0.59817(16) 0.69408(11)
O2E O 0.85917(17) 0.40183(16) 0.69408(11)
loop_
_geom_bond_atom_site_label_1
_geom_bond_atom_site_label_2
_geom_bond_site_symmetry_1
_geom_bond_site_symmetry_2
Cu1 N1 1_555 1_555
N1 H1 1_555 1_555
O1 Cu1 1_555 1_555
C1 H2 1_555 1_555
H3 C1 1_555 1_555
C2 C1 1_555 1_555
H4 C2 1_555 1_555
H5 C2 1_555 1_555
C3 N1 1_555 1_555
H6 C3 1_555 1_555
C4 N1 1_555 1_555
H7 C4 1_555 1_555
H8 C4 1_555 1_555
C5 C4 1_555 1_555
C6 O1 1_555 1_555
C7 C6 1_555 1_555
H9 C7 1_555 1_555
C8 C7 1_555 1_555
H10 C8 1_555 1_555
C9 C8 1_555 1_555
C10 C5 1_555 1_555
H11 C10 1_555 1_555
C11 C9 1_555 1_555
O2 C11 1_555 1_555
O3 C11 1_555 1_555
H12 O3 1_555 1_555
N1A Cu1 1_555 1_555
H1A N1A 1_555 1_555
O1A Cu1 1_555 1_555
C1A C1 1_555 1_555
H2A C1A 1_555 1_555
H3A C1A 1_555 1_555
C2A C1A 1_555 1_555
H4A C2A 1_555 1_555
H5A C2A 1_555 1_555
C3A C3 1_555 1_555
H6A C3A 1_555 1_555
C4A N1A 1_555 1_555
H7A C4A 1_555 1_555
H8A C4A 1_555 1_555
C5A C4A 1_555 1_555
C6A O1A 1_555 1_555
C7A C6A 1_555 1_555
H9A C7A 1_555 1_555
C8A C7A 1_555 1_555
H10A C8A 1_555 1_555
C9A C8A 1_555 1_555
C10A C5A 1_555 1_555
H11A C10A 1_555 1_555
C11A C9A 1_555 1_555
O2A C11A 1_555 1_555
O3A C11A 1_555 1_555
H12A O3A 1_555 1_555
Cu1D O2A 1_555 1_555
Cu1D_2 O2 1_555 1_555
O2D Cu1 1_555 1_555
O2E Cu1 1_555 1_555
C2 C3 1_555 1_555
C5 C6 1_555 1_555
C9 C10 1_555 1_555
N1A C3A 1_555 1_555
C2A C3A 1_555 1_555
C5A C6A 1_555 1_555
C9A C10A 1_555 1_555

#END
