
#######################################################################
#
#                 Cambridge Crystallographic Data Centre
#                                CCDC 
#
#######################################################################
#
# If this CIF has been generated from an entry in the Cambridge 
# Structural Database, then it will include bibliographic, chemical, 
# crystal, experimental, refinement or atomic coordinate data resulting 
# from the CCDC's data processing and validation procedures.
#
#######################################################################

data_FOJZIP
_symmetry_cell_setting           monoclinic
_symmetry_space_group_name_H-M   'P 21/c'
_symmetry_Int_Tables_number      14
_space_group_name_Hall           '-P 2ybc'
loop_
_symmetry_equiv_pos_site_id
_symmetry_equiv_pos_as_xyz
1 x,y,z
2 -x,1/2+y,1/2-z
3 -x,-y,-z
4 x,1/2-y,1/2+z
_cell_length_a                   14.2172(13)
_cell_length_b                   14.9573(19)
_cell_length_c                   9.7698(9)
_cell_angle_alpha                90
_cell_angle_beta                 104.054(9)
_cell_angle_gamma                90
_cell_volume                     2015.37
loop_
_atom_site_label
_atom_site_type_symbol
_atom_site_fract_x
_atom_site_fract_y
_atom_site_fract_z
Mn1 Mn -0.11158(7) 0.23123(7) 0.56362(9)
Mn2 Mn 0.0000 0.0000 0.5000
C1 C 0.7575(4) 0.1834(4) 1.2589(6)
C2 C 0.6527(4) 0.1702(5) 1.1813(6)
C3 C 0.6239(4) 0.1935(5) 1.0420(6)
H1 H 0.6688 0.2159 0.9957
C4 C 0.5281(4) 0.1835(5) 0.9705(6)
H2 H 0.5089 0.2003 0.8762
C5 C 0.4602(4) 0.1493(5) 1.0360(6)
C6 C 0.4898(4) 0.1216(5) 1.1766(6)
C7 C 0.5855(4) 0.1345(5) 1.2490(6)
H3 H 0.6051 0.1192 1.3440
C8 C 0.3575(4) 0.1495(5) 0.9537(6)
C9 C 0.3282(5) 0.1039(5) 0.8273(7)
H4 H 0.3721 0.0672 0.7973
C10 C 0.2349(5) 0.1120(5) 0.7449(7)
H5 H 0.2164 0.0799 0.6611
C11 C 0.1688(4) 0.1670(5) 0.7852(6)
C12 C 0.1975(5) 0.2121(5) 0.9124(7)
H6 H 0.1537 0.2496 0.9411
C13 C 0.2900(5) 0.2025(5) 0.9973(7)
H7 H 0.3071 0.2317 1.0839
C14 C 0.4175(4) 0.0745(5) 1.2417(7)
C15 C 0.3721(5) -0.0006(5) 1.1776(8)
H8 H 0.3899 -0.0235 1.0991
C16 C 0.3006(6) -0.0431(5) 1.2264(8)
H9 H 0.2736 -0.0959 1.1843
C17 C 0.2691(5) -0.0074(5) 1.3377(6)
C18 C 0.3158(6) 0.0667(6) 1.4024(8)
H10 H 0.2969 0.0914 1.4789
C19 C 0.3899(6) 0.1053(6) 1.3565(8)
H11 H 0.4223 0.1540 1.4055
C20 C 0.1846(5) -0.0481(5) 1.3814(6)
C21 C 0.0708(5) 0.1851(5) 0.6931(6)
O1 O 0.8196(3) 0.1819(3) 1.1865(4)
O2 O 0.7761(3) 0.1940(4) 1.3897(4)
O3 O 0.0371(3) 0.1355(4) 0.5865(4)
O4 O 0.0237(3) 0.2492(4) 0.7182(5)
O5 O 0.1551(3) -0.1233(3) 1.3264(4)
O6 O 0.1467(3) -0.0074(3) 1.4647(5)
O7 O -0.0354(4) 0.0613(4) 0.2925(5)
H12 H 0.0001 0.1043 0.2779
H13 H -0.0803 0.0993 0.2890
O8 O -0.0733(4) 0.3417(4) 0.4510(5)
H14 H -0.0414 0.3885 0.4825
H15 H -0.0644 0.3235 0.3727
Mn1B Mn 0.11158(7) -0.23123(7) 0.43638(9)
C1B C -0.7575(4) -0.1834(4) -0.2589(6)
C2B C -0.6527(4) -0.1702(5) -0.1813(6)
C3B C -0.6239(4) -0.1935(5) -0.0420(6)
H1B H -0.6688 -0.2159 0.0043
C4B C -0.5281(4) -0.1835(5) 0.0295(6)
H2B H -0.5089 -0.2003 0.1238
C5B C -0.4602(4) -0.1493(5) -0.0360(6)
C6B C -0.4898(4) -0.1216(5) -0.1766(6)
C7B C -0.5855(4) -0.1345(5) -0.2490(6)
H3B H -0.6051 -0.1192 -0.3440
C8B C -0.3575(4) -0.1495(5) 0.0463(6)
C9B C -0.3282(5) -0.1039(5) 0.1727(7)
H4B H -0.3721 -0.0672 0.2027
C10B C -0.2349(5) -0.1120(5) 0.2551(7)
H5B H -0.2164 -0.0799 0.3389
C11B C -0.1688(4) -0.1670(5) 0.2148(6)
C12B C -0.1975(5) -0.2121(5) 0.0876(7)
H6B H -0.1537 -0.2496 0.0589
C13B C -0.2900(5) -0.2025(5) 0.0027(7)
H7B H -0.3071 -0.2317 -0.0839
C14B C -0.4175(4) -0.0745(5) -0.2417(7)
C15B C -0.3721(5) 0.0006(5) -0.1776(8)
H8B H -0.3899 0.0235 -0.0991
C16B C -0.3006(6) 0.0431(5) -0.2264(8)
H9B H -0.2736 0.0959 -0.1843
C17B C -0.2691(5) 0.0074(5) -0.3377(6)
C18B C -0.3158(6) -0.0667(6) -0.4024(8)
H10B H -0.2969 -0.0914 -0.4789
C19B C -0.3899(6) -0.1053(6) -0.3565(8)
H11B H -0.4223 -0.1540 -0.4055
C20B C -0.1846(5) 0.0481(5) -0.3814(6)
C21B C -0.0708(5) -0.1851(5) 0.3069(6)
O1B O -0.8196(3) -0.1819(3) -0.1865(4)
O2B O -0.7761(3) -0.1940(4) -0.3897(4)
O3B O -0.0371(3) -0.1355(4) 0.4135(4)
O4B O -0.0237(3) -0.2492(4) 0.2818(5)
O5B O -0.1551(3) 0.1233(3) -0.3264(4)
O6B O -0.1467(3) 0.0074(3) -0.4647(5)
O7B O 0.0354(4) -0.0613(4) 0.7075(5)
H12B H -0.0001 -0.1043 0.7221
H13B H 0.0803 -0.0993 0.7110
O8B O 0.0733(4) -0.3417(4) 0.5490(5)
H14B H 0.0414 -0.3885 0.5175
H15B H 0.0644 -0.3235 0.6273
Mn1_2 Mn -0.11158(7) 0.23123(7) -0.43638(9)
Mn1_3 Mn 0.88842(7) 0.23123(7) 1.56362(9)
Mn1A Mn -0.88842(7) -0.26877(7) -0.06362(9)
Mn1B_2 Mn -0.88842(7) -0.23123(7) -0.56362(9)
Mn1B_3 Mn 0.11158(7) -0.23123(7) 1.43638(9)
Mn1C Mn 0.88842(7) 0.26877(7) 1.06362(9)
Mn2_2 Mn 0.0000 0.0000 -0.5000
Mn2_3 Mn 0.0000 0.0000 1.5000
O1A O 0.1804(3) -0.3181(3) 0.3135(4)
O1C O -0.1804(3) 0.3181(3) 0.6865(4)
O2_2 O -0.2239(3) 0.1940(4) 0.3897(4)
O2B_2 O 0.2239(3) -0.1940(4) 0.6103(4)
O5_2 O 0.1551(3) -0.1233(3) 0.3264(4)
O5B_2 O -0.1551(3) 0.1233(3) 0.6736(4)
O6_2 O 0.1467(3) -0.0074(3) 0.4647(5)
O6B_2 O -0.1467(3) 0.0074(3) 0.5353(5)
O9 O 0.0827(14) 0.4416(16) 0.566(2)
H16 H 0.1096 0.4688 0.5126
H17 H 0.1334 0.4238 0.5910
loop_
_geom_bond_atom_site_label_1
_geom_bond_atom_site_label_2
_geom_bond_site_symmetry_1
_geom_bond_site_symmetry_2
Mn1 O4 1_555 1_555
Mn2 O3 1_555 1_555
C1 C2 1_555 1_555
C2 C3 1_555 1_555
C3 H1 1_555 1_555
C4 C3 1_555 1_555
H2 C4 1_555 1_555
C5 C4 1_555 1_555
C6 C5 1_555 1_555
C7 C2 1_555 1_555
H3 C7 1_555 1_555
C8 C5 1_555 1_555
C9 C8 1_555 1_555
H4 C9 1_555 1_555
C10 C9 1_555 1_555
H5 C10 1_555 1_555
C11 C10 1_555 1_555
C12 C11 1_555 1_555
H6 C12 1_555 1_555
C13 C8 1_555 1_555
H7 C13 1_555 1_555
C14 C6 1_555 1_555
C15 C14 1_555 1_555
H8 C15 1_555 1_555
C16 C15 1_555 1_555
H9 C16 1_555 1_555
C17 C16 1_555 1_555
C18 C17 1_555 1_555
H10 C18 1_555 1_555
C19 C14 1_555 1_555
H11 C19 1_555 1_555
C20 C17 1_555 1_555
C21 C11 1_555 1_555
O1 C1 1_555 1_555
O2 C1 1_555 1_555
O3 C21 1_555 1_555
O4 C21 1_555 1_555
O5 C20 1_555 1_555
O6 C20 1_555 1_555
O7 Mn2 1_555 1_555
H12 O7 1_555 1_555
H13 O7 1_555 1_555
O8 Mn1 1_555 1_555
H14 O8 1_555 1_555
H15 O8 1_555 1_555
O9 H16 1_555 1_555
H17 O9 1_555 1_555
Mn1B O4B 1_555 1_555
C1B C2B 1_555 1_555
C2B C3B 1_555 1_555
C3B H1B 1_555 1_555
C4B C3B 1_555 1_555
H2B C4B 1_555 1_555
C5B C4B 1_555 1_555
C6B C5B 1_555 1_555
C7B C2B 1_555 1_555
H3B C7B 1_555 1_555
C8B C5B 1_555 1_555
C9B C8B 1_555 1_555
H4B C9B 1_555 1_555
C10B C9B 1_555 1_555
H5B C10B 1_555 1_555
C11B C10B 1_555 1_555
C12B C11B 1_555 1_555
H6B C12B 1_555 1_555
C13B C8B 1_555 1_555
H7B C13B 1_555 1_555
C14B C6B 1_555 1_555
C15B C14B 1_555 1_555
H8B C15B 1_555 1_555
C16B C15B 1_555 1_555
H9B C16B 1_555 1_555
C17B C16B 1_555 1_555
C18B C17B 1_555 1_555
H10B C18B 1_555 1_555
C19B C14B 1_555 1_555
H11B C19B 1_555 1_555
C20B C17B 1_555 1_555
C21B C11B 1_555 1_555
O1B C1B 1_555 1_555
O2B C1B 1_555 1_555
O3B Mn2 1_555 1_555
O4B C21B 1_555 1_555
O5B C20B 1_555 1_555
O6B C20B 1_555 1_555
O7B Mn2 1_555 1_555
H12B O7B 1_555 1_555
H13B O7B 1_555 1_555
O8B Mn1B 1_555 1_555
H14B O8B 1_555 1_555
H15B O8B 1_555 1_555
Mn1_2 O5B 1_555 1_555
Mn1_3 O2 1_555 1_555
Mn1A O1B 1_555 1_555
Mn1B_2 O2B 1_555 1_555
Mn1B_3 O5 1_555 1_555
Mn1C O1 1_555 1_555
Mn2_2 O6B 1_555 1_555
Mn2_3 O6 1_555 1_555
O1A Mn1B 1_555 1_555
O1C Mn1 1_555 1_555
O2_2 Mn1 1_555 1_555
O2B_2 Mn1B 1_555 1_555
O5_2 Mn1B 1_555 1_555
O5B_2 Mn1 1_555 1_555
O6_2 Mn2 1_555 1_555
O6B_2 Mn2 1_555 1_555
C6 C7 1_555 1_555
C12 C13 1_555 1_555
C18 C19 1_555 1_555
C6B C7B 1_555 1_555
C12B C13B 1_555 1_555
C18B C19B 1_555 1_555
C21B O3B 1_555 1_555

#END
