
#######################################################################
#
#                 Cambridge Crystallographic Data Centre
#                                CCDC 
#
#######################################################################
#
# If this CIF has been generated from an entry in the Cambridge 
# Structural Database, then it will include bibliographic, chemical, 
# crystal, experimental, refinement or atomic coordinate data resulting 
# from the CCDC's data processing and validation procedures.
#
#######################################################################

data_FOJZEL
_symmetry_cell_setting           triclinic
_symmetry_space_group_name_H-M   'P -1'
_symmetry_Int_Tables_number      2
_space_group_name_Hall           '-P 1'
loop_
_symmetry_equiv_pos_site_id
_symmetry_equiv_pos_as_xyz
1 x,y,z
2 -x,-y,-z
_cell_length_a                   9.868(6)
_cell_length_b                   11.951(7)
_cell_length_c                   13.160(7)
_cell_angle_alpha                113.752(7)
_cell_angle_beta                 93.374(7)
_cell_angle_gamma                108.437(7)
_cell_volume                     1316.26
loop_
_atom_site_label
_atom_site_type_symbol
_atom_site_fract_x
_atom_site_fract_y
_atom_site_fract_z
Zn1 Zn 0.63133(7) 0.98518(6) 0.60320(5)
O1 O 0.9429(5) 1.0384(5) 0.6670(4)
O2 O 0.7326(5) 0.9246(4) 0.6910(4)
O3 O 0.6453(4) 0.6878(4) 0.7121(4)
O4 O 0.6430(4) 0.8588(4) 0.8689(4)
H1 H 0.5541 0.8206 0.8465
O5 O 0.7509(5) 0.6902(6) 0.9307(5)
O6 O 0.9576(5) 0.7304(5) 1.0237(5)
O7 O 0.2862(4) 0.8863(3) 0.4602(3)
O8 O 0.4212(4) 0.8936(4) 0.6055(3)
O9 O 0.3763(4) 0.6424(4) 0.6159(3)
H2 H 0.4537 0.6532 0.6521
O10 O 0.3707(4) 0.7982(4) 0.7826(3)
O11 O 0.1465(6) 0.5454(6) 0.7324(5)
O12 O -0.0776(5) 0.5191(5) 0.7341(5)
N1 N 0.8836(6) 0.7433(5) 0.9565(4)
N2 N 0.0367(6) 0.5609(5) 0.7069(4)
N3 N 0.6239(5) 0.8263(4) 0.4427(4)
N4 N 0.6492(5) 0.1552(4) -0.2410(4)
C1 C 0.9472(6) 0.9332(5) 0.7855(5)
C2 C 0.8729(6) 0.8519(5) 0.8309(5)
C3 C 0.9557(6) 0.8274(5) 0.9039(5)
C4 C 1.1071(6) 0.8805(5) 0.9299(5)
H3 H 1.1593 0.8626 0.9787
C5 C 1.1794(6) 0.9596(6) 0.8832(5)
H4 H 1.2811 0.9948 0.8992
C6 C 1.1007(6) 0.9866(6) 0.8121(5)
H5 H 1.1502 1.0413 0.7813
C7 C 0.8720(7) 0.9704(6) 0.7088(5)
C8 C 0.7069(7) 0.7928(6) 0.8007(5)
C9 C 0.1660(6) 0.7694(5) 0.5563(5)
C10 C 0.1721(6) 0.7064(5) 0.6241(4)
C11 C 0.0387(6) 0.6315(5) 0.6377(5)
C12 C -0.0931(6) 0.6201(5) 0.5868(5)
H6 H -0.1795 0.5699 0.5974
C13 C -0.0976(6) 0.6826(6) 0.5204(5)
H7 H -0.1870 0.6758 0.4862
C14 C 0.0303(6) 0.7555(6) 0.5043(5)
H8 H 0.0266 0.7965 0.4579
C15 C 0.3017(6) 0.8570(5) 0.5396(5)
C16 C 0.3173(6) 0.7179(5) 0.6813(5)
C17 C 0.7334(6) 0.8370(5) 0.3878(5)
H9 H 0.8130 0.9165 0.4183
C18 C 0.7348(6) 0.7365(5) 0.2885(5)
H10 H 0.8145 0.7489 0.2543
C19 C 0.6169(6) 0.6165(5) 0.2394(5)
C20 C 0.5041(7) 0.6063(6) 0.2969(5)
H11 H 0.4223 0.5285 0.2679
C21 C 0.5122(7) 0.7107(5) 0.3967(5)
H12 H 0.4355 0.6999 0.4342
C22 C 0.6034(7) 0.5020(6) 0.1334(5)
H13 H 0.5159 0.4300 0.1087
C23 C 0.7001(7) 0.4892(5) 0.0692(5)
H14 H 0.7885 0.5601 0.0925
C24 C 0.7637(7) 0.2693(6) -0.2028(5)
H15 H 0.8338 0.2758 -0.2466
C25 C 0.7830(7) 0.3769(6) -0.1027(5)
H16 H 0.8655 0.4532 -0.0796
C26 C 0.6799(6) 0.3725(5) -0.0359(5)
C27 C 0.5624(8) 0.2549(6) -0.0749(6)
H17 H 0.4900 0.2461 -0.0335
C28 C 0.5526(8) 0.1505(6) -0.1755(5)
H18 H 0.4732 0.0718 -0.1990
Zn1_2 Zn 0.63133(7) -0.01482(6) -0.39680(5)
Zn1A Zn 0.36867(7) 1.01482(6) 0.39680(5)
O7A O 0.7138(4) 1.1137(3) 0.5398(3)
N4_2 N 0.6492(5) 1.1552(4) 0.7590(4)
loop_
_geom_bond_atom_site_label_1
_geom_bond_atom_site_label_2
_geom_bond_site_symmetry_1
_geom_bond_site_symmetry_2
Zn1 O2 1_555 1_555
O1 C7 1_555 1_555
O2 C7 1_555 1_555
O3 C8 1_555 1_555
O4 H1 1_555 1_555
O5 N1 1_555 1_555
O6 N1 1_555 1_555
O7 C15 1_555 1_555
O8 Zn1 1_555 1_555
O9 H2 1_555 1_555
O10 C16 1_555 1_555
O11 N2 1_555 1_555
O12 N2 1_555 1_555
N1 C3 1_555 1_555
N2 C11 1_555 1_555
N3 Zn1 1_555 1_555
N4 C24 1_555 1_555
C1 C2 1_555 1_555
C2 C3 1_555 1_555
C3 C4 1_555 1_555
C4 H3 1_555 1_555
C5 C4 1_555 1_555
H4 C5 1_555 1_555
C6 C1 1_555 1_555
H5 C6 1_555 1_555
C7 C1 1_555 1_555
C8 O4 1_555 1_555
C9 C10 1_555 1_555
C10 C11 1_555 1_555
C11 C12 1_555 1_555
C12 H6 1_555 1_555
C13 C12 1_555 1_555
H7 C13 1_555 1_555
C14 C9 1_555 1_555
H8 C14 1_555 1_555
C15 O8 1_555 1_555
C16 O9 1_555 1_555
C17 N3 1_555 1_555
H9 C17 1_555 1_555
C18 C17 1_555 1_555
H10 C18 1_555 1_555
C19 C18 1_555 1_555
C20 C19 1_555 1_555
H11 C20 1_555 1_555
C21 N3 1_555 1_555
H12 C21 1_555 1_555
C22 C19 1_555 1_555
H13 C22 1_555 1_555
C23 C22 1_555 1_555
H14 C23 1_555 1_555
C24 H15 1_555 1_555
C25 C24 1_555 1_555
H16 C25 1_555 1_555
C26 C23 1_555 1_555
C27 C26 1_555 1_555
H17 C27 1_555 1_555
C28 N4 1_555 1_555
H18 C28 1_555 1_555
Zn1_2 N4 1_555 1_555
Zn1A O7 1_555 1_555
O7A Zn1 1_555 1_555
N4_2 Zn1 1_555 1_555
C2 C8 1_555 1_555
C5 C6 1_555 1_555
C9 C15 1_555 1_555
C10 C16 1_555 1_555
C13 C14 1_555 1_555
C20 C21 1_555 1_555
C25 C26 1_555 1_555
C27 C28 1_555 1_555

#END
