
#######################################################################
#
#                 Cambridge Crystallographic Data Centre
#                                CCDC 
#
#######################################################################
#
# If this CIF has been generated from an entry in the Cambridge 
# Structural Database, then it will include bibliographic, chemical, 
# crystal, experimental, refinement or atomic coordinate data resulting 
# from the CCDC's data processing and validation procedures.
#
#######################################################################

data_FOKGAP
_symmetry_cell_setting           monoclinic
_symmetry_space_group_name_H-M   'P 2/n'
_symmetry_Int_Tables_number      13
_space_group_name_Hall           '-P 2yac'
loop_
_symmetry_equiv_pos_site_id
_symmetry_equiv_pos_as_xyz
1 x,y,z
2 1/2-x,y,1/2-z
3 -x,-y,-z
4 1/2+x,-y,1/2+z
_cell_length_a                   16.4291(3)
_cell_length_b                   8.02969(11)
_cell_length_c                   17.1014(3)
_cell_angle_alpha                90
_cell_angle_beta                 114.200(2)
_cell_angle_gamma                90
_cell_volume                     2057.77
loop_
_atom_site_label
_atom_site_type_symbol
_atom_site_fract_x
_atom_site_fract_y
_atom_site_fract_z
Ag1 Ag 0.79559(2) 0.47129(5) 0.86570(2)
N1 N 0.6691(2) 0.3362(5) 0.8066(2)
N2 N 0.3990(2) 0.3585(4) 0.4458(2)
N3 N 0.6359(2) 0.2871(5) 0.7266(2)
N4 N 0.4885(2) 0.2106(4) 0.5586(2)
N5 N 0.5654(2) 0.1896(5) 0.7134(2)
C1 C 0.4065(3) 0.2842(5) 0.5174(3)
C2 C 0.4782(3) 0.3260(5) 0.4365(3)
C3 C 0.3349(3) 0.2789(6) 0.5476(3)
C4 C 0.4933(4) 0.0784(10) 0.8089(4)
H1 H 0.4499 0.0104 0.7697
C5 C 0.5029(3) 0.3677(6) 0.3709(3)
H2 H 0.4658 0.4314 0.3246
C6 C 0.5346(3) 0.2332(5) 0.5065(3)
C7 C 0.6207(3) 0.2673(6) 0.8474(3)
C8 C 0.5533(3) 0.1708(6) 0.7875(3)
C9 C 0.5192(3) 0.1020(6) 0.6329(3)
H3 H 0.5591 0.0191 0.6266
H4 H 0.4683 0.0439 0.6348
C10 C 0.2053(6) 0.2817(19) 0.6045(6)
H5 H 0.1620 0.2879 0.6263
C11 C 0.6175(3) 0.1782(6) 0.5136(3)
H6 H 0.6555 0.1179 0.5610
C12 C 0.6287(4) 0.2807(9) 0.9320(3)
H7 H 0.6725 0.3463 0.9724
C13 C 0.5838(3) 0.3124(7) 0.3761(4)
H8 H 0.6014 0.3381 0.3322
C14 C 0.6409(3) 0.2178(7) 0.4463(4)
H9 H 0.6952 0.1811 0.4478
C15 C 0.1817(4) 0.2691(12) 0.5199(5)
H10 H 0.1218 0.2622 0.4825
C16 C 0.5033(5) 0.0955(12) 0.8918(5)
H11 H 0.4641 0.0388 0.9090
C17 C 0.5697(5) 0.1942(11) 0.9520(4)
H12 H 0.5731 0.2001 1.0076
C18 C 0.2958(6) 0.2854(16) 0.6596(5)
H13 H 0.3116 0.2886 0.7184
N6 N 0.3596(4) 0.2845(8) 0.6318(3)
C19 C 0.2468(4) 0.2665(8) 0.4887(4)
H14 H 0.2323 0.2567 0.4303
Ag1C Ag 0.29559(2) 0.52871(5) 0.36570(2)
N2C N 0.8990(2) 0.6415(4) 0.9458(2)
Cl1 Cl 0.7500 0.85588(19) 0.7500
O1 O 0.7843(6) 0.9483(7) 0.8261(4)
O2 O 0.6865(7) 0.7467(16) 0.7531(4)
O1A O 0.7157(6) 0.9483(7) 0.6739(4)
O2A O 0.8135(7) 0.7467(16) 0.7469(4)
Cl2 Cl 0.7500 0.2043(5) 0.2500
O3 O 0.721(2) 0.095(3) 0.2981(18)
O4 O 0.6676(13) 0.293(4) 0.2109(18)
O3A O 0.779(2) 0.095(3) 0.2019(18)
O4A O 0.8324(13) 0.293(4) 0.2891(18)
loop_
_geom_bond_atom_site_label_1
_geom_bond_atom_site_label_2
_geom_bond_site_symmetry_1
_geom_bond_site_symmetry_2
Ag1 N1 1_555 1_555
N1 N3 1_555 1_555
N2 C1 1_555 1_555
N3 N5 1_555 1_555
N4 C1 1_555 1_555
N5 C8 1_555 1_555
C1 C3 1_555 1_555
C2 N2 1_555 1_555
C3 N6 1_555 1_555
C4 H1 1_555 1_555
C5 C2 1_555 1_555
H2 C5 1_555 1_555
C6 N4 1_555 1_555
C7 N1 1_555 1_555
C8 C4 1_555 1_555
C9 N4 1_555 1_555
H3 C9 1_555 1_555
H4 C9 1_555 1_555
C10 H5 1_555 1_555
C11 C6 1_555 1_555
H6 C11 1_555 1_555
C12 C7 1_555 1_555
H7 C12 1_555 1_555
C13 C5 1_555 1_555
H8 C13 1_555 1_555
C14 C11 1_555 1_555
H9 C14 1_555 1_555
C15 C10 1_555 1_555
H10 C15 1_555 1_555
C16 C4 1_555 1_555
H11 C16 1_555 1_555
C17 C12 1_555 1_555
H12 C17 1_555 1_555
C18 C10 1_555 1_555
H13 C18 1_555 1_555
N6 C18 1_555 1_555
C19 C3 1_555 1_555
H14 C19 1_555 1_555
Cl1 O1 1_555 1_555
O2 Cl1 1_555 1_555
Cl2 O3 1_555 1_555
O4 Cl2 1_555 1_555
Ag1C N2 1_555 1_555
N2C Ag1 1_555 1_555
O1A Cl1 1_555 1_555
O2A Cl1 1_555 1_555
O3A Cl2 1_555 1_555
O4A Cl2 1_555 1_555
N5 C9 1_555 1_555
C2 C6 1_555 1_555
C7 C8 1_555 1_555
C13 C14 1_555 1_555
C15 C19 1_555 1_555
C16 C17 1_555 1_555

#END
