
#######################################################################
#
#                 Cambridge Crystallographic Data Centre
#                                CCDC 
#
#######################################################################
#
# If this CIF has been generated from an entry in the Cambridge 
# Structural Database, then it will include bibliographic, chemical, 
# crystal, experimental, refinement or atomic coordinate data resulting 
# from the CCDC's data processing and validation procedures.
#
#######################################################################

data_FOKGET
_symmetry_cell_setting           monoclinic
_symmetry_space_group_name_H-M   'P 21/c'
_symmetry_Int_Tables_number      14
_space_group_name_Hall           '-P 2ybc'
loop_
_symmetry_equiv_pos_site_id
_symmetry_equiv_pos_as_xyz
1 x,y,z
2 -x,1/2+y,1/2-z
3 -x,-y,-z
4 x,1/2-y,1/2+z
_cell_length_a                   11.4884(14)
_cell_length_b                   13.6513(19)
_cell_length_c                   12.7991(17)
_cell_angle_alpha                90
_cell_angle_beta                 100.920(9)
_cell_angle_gamma                90
_cell_volume                     1970.96
loop_
_atom_site_label
_atom_site_type_symbol
_atom_site_fract_x
_atom_site_fract_y
_atom_site_fract_z
C1 C 0.9674(16) -0.0053(11) 0.6975(10)
C2 C 1.1602(13) -0.0792(10) 0.6611(10)
C3 C 1.2156(14) 0.0957(10) 0.5972(11)
C4 C 1.0262(15) 0.1651(11) 0.6391(11)
C5 C 1.1501(14) -0.0346(11) 0.8690(12)
C6 C 1.3223(19) 0.0272(12) 0.7824(12)
C7 C 1.2255(14) 0.1978(11) 0.7925(11)
C8 C 1.0314(15) 0.1276(11) 0.8386(12)
C9 C 0.4671(13) -0.0476(10) 0.5015(10)
Co1 Co 0.69825(18) -0.08438(13) 0.62231(14)
Co2 Co 0.84265(18) 0.21534(13) 0.96639(14)
N1 N 0.8736(12) -0.0351(9) 0.6788(9)
N2 N 1.1711(11) -0.1499(9) 0.6210(9)
N3 N 1.2542(12) 0.1122(9) 0.5268(9)
N4 N 0.9685(11) 0.2170(10) 0.5824(9)
N5 N 1.1565(12) -0.0875(8) 0.9423(9)
N6 N 1.4235(17) 0.0086(12) 0.8003(15)
N7 N 1.2663(11) 0.2727(9) 0.8223(9)
N8 N 0.9740(11) 0.1607(8) 0.8921(9)
O1 O 0.3659(10) -0.0539(7) 0.4447(8)
O2 O 0.6557(9) -0.0396(8) 0.7704(8)
H1 H 0.6741 -0.0847 0.8162
H2 H 0.5818 -0.0278 0.7617
O3 O 0.7195(14) 0.1556(9) 0.8405(11)
H3 H 0.6555 0.1884 0.8326
H4 H 0.7060 0.0963 0.8546
O4 O 0.7090(10) 0.2590(9) 1.0453(10)
H5 H 0.7303 0.2465 1.1112
H6 H 0.6953 0.3199 1.0370
O5 O 0.5183(9) -0.1157(7) 0.5576(8)
W1 W 1.13932(5) 0.06166(4) 0.73581(4)
C9B C 0.5329(13) 0.0476(10) 0.4985(10)
O5B O 0.4817(9) 0.1157(7) 0.4424(8)
O1B O 0.6341(10) 0.0539(7) 0.5553(8)
C1B C 0.0326(16) 0.0053(11) 0.3025(10)
C2B C -0.1602(13) 0.0792(10) 0.3389(10)
C3B C -0.2156(14) -0.0957(10) 0.4028(11)
C4B C -0.0262(15) -0.1651(11) 0.3609(11)
C5B C -0.1501(14) 0.0346(11) 0.1310(12)
C6B C -0.3223(19) -0.0272(12) 0.2176(12)
C7B C -0.2255(14) -0.1978(11) 0.2075(11)
C8B C -0.0314(15) -0.1276(11) 0.1614(12)
Co1B Co 0.30175(18) 0.08438(13) 0.37769(14)
Co2B Co 0.15735(18) -0.21534(13) 0.03361(14)
N1B N 0.1264(12) 0.0351(9) 0.3212(9)
N2B N -0.1711(11) 0.1499(9) 0.3790(9)
N3B N -0.2542(12) -0.1122(9) 0.4732(9)
N4B N 0.0315(11) -0.2170(10) 0.4176(9)
N5B N -0.1565(12) 0.0875(8) 0.0577(9)
N6B N -0.4235(17) -0.0086(12) 0.1997(15)
N7B N -0.2663(11) -0.2727(9) 0.1777(9)
N8B N 0.0260(11) -0.1607(8) 0.1079(9)
O2B O 0.3443(9) 0.0396(8) 0.2296(8)
H1B H 0.3259 0.0847 0.1838
H2B H 0.4182 0.0278 0.2383
O3B O 0.2805(14) -0.1556(9) 0.1595(11)
H3B H 0.3445 -0.1884 0.1674
H4B H 0.2940 -0.0963 0.1454
O4B O 0.2910(10) -0.2590(9) -0.0453(10)
H5B H 0.2697 -0.2465 -0.1112
H6B H 0.3047 -0.3199 -0.0370
W1B W -0.13932(5) -0.06166(4) 0.26419(4)
Co1_2 Co -0.30175(18) -0.08438(13) 0.62231(14)
Co1A Co 1.30175(18) 0.41562(13) 0.87769(14)
Co1B_2 Co 1.30175(18) 0.08438(13) 0.37769(14)
Co1C Co -0.30175(18) -0.41562(13) 0.12231(14)
Co2_2 Co -0.15735(18) 0.21534(13) -0.03361(14)
Co2A Co 0.15735(18) -0.28466(13) 0.53361(14)
Co2A_2 Co 1.15735(18) -0.28466(13) 0.53361(14)
Co2B_2 Co 1.15735(18) -0.21534(13) 1.03361(14)
Co2C Co -0.15735(18) 0.28466(13) 0.46639(14)
Co2C_2 Co 0.84265(18) 0.28466(13) 0.46639(14)
N2A N 0.8289(11) 0.3501(9) 0.8790(9)
N2C N 0.1711(11) -0.3501(9) 0.1210(9)
N3_2 N 0.2542(12) 0.1122(9) 0.5268(9)
N3B_2 N 0.7458(12) -0.1122(9) 0.4732(9)
N4A N 0.0315(11) -0.2830(10) -0.0824(9)
N4C N 0.9685(11) 0.2830(10) 1.0824(9)
N5_2 N 0.1565(12) -0.0875(8) -0.0577(9)
N5B_2 N 0.8435(12) 0.0875(8) 1.0577(9)
N7A N 0.7337(11) -0.2273(9) 0.6777(9)
N7C N 0.2663(11) 0.2273(9) 0.3223(9)
O6 O 0.757(3) 0.8534(17) 0.9365(13)
H7 H 0.6888 0.8778 0.9374
H8 H 0.7548 0.7918 0.9458
O7 O 0.507(2) 0.844(2) 0.9911(19)
H9 H 0.4340 0.8297 0.9837
H10 H 0.5460 0.7913 1.0055
O8 O 0.460(2) 0.7660(16) 0.7550(19)
H11 H 0.3884 0.7478 0.7411
H12 H 0.4714 0.8030 0.8094
loop_
_geom_bond_atom_site_label_1
_geom_bond_atom_site_label_2
_geom_bond_site_symmetry_1
_geom_bond_site_symmetry_2
C1 N1 1_555 1_555
C2 N2 1_555 1_555
C3 N3 1_555 1_555
C4 N4 1_555 1_555
C5 N5 1_555 1_555
C6 N6 1_555 1_555
C7 N7 1_555 1_555
C8 N8 1_555 1_555
C9 O1 1_555 1_555
Co1 N1 1_555 1_555
Co2 N8 1_555 1_555
N2 Co2A_2 1_555 1_555
N3 Co1B_2 1_555 1_555
N4 Co2C_2 1_555 1_555
N5 Co2B_2 1_555 1_555
N7 Co1A 1_555 1_555
O1 Co1B 1_555 1_555
O2 Co1 1_555 1_555
H1 O2 1_555 1_555
H2 O2 1_555 1_555
O3 Co2 1_555 1_555
H3 O3 1_555 1_555
H4 O3 1_555 1_555
O4 Co2 1_555 1_555
H5 O4 1_555 1_555
H6 O4 1_555 1_555
O5 C9 1_555 1_555
W1 C1 1_555 1_555
O6 H7 1_555 1_555
H8 O6 1_555 1_555
O7 H9 1_555 1_555
H10 O7 1_555 1_555
O8 H11 1_555 1_555
H12 O8 1_555 1_555
C9B C9 1_555 1_555
O5B C9B 1_555 1_555
O1B Co1 1_555 1_555
C1B N1B 1_555 1_555
C2B N2B 1_555 1_555
C3B N3B 1_555 1_555
C4B N4B 1_555 1_555
C5B N5B 1_555 1_555
C6B N6B 1_555 1_555
C7B N7B 1_555 1_555
C8B N8B 1_555 1_555
Co1B O5B 1_555 1_555
Co2B N8B 1_555 1_555
N1B Co1B 1_555 1_555
N2B Co2C 1_555 1_555
N3B Co1_2 1_555 1_555
N4B Co2A 1_555 1_555
N5B Co2_2 1_555 1_555
N7B Co1C 1_555 1_555
O2B Co1B 1_555 1_555
H1B O2B 1_555 1_555
H2B O2B 1_555 1_555
O3B Co2B 1_555 1_555
H3B O3B 1_555 1_555
H4B O3B 1_555 1_555
O4B Co2B 1_555 1_555
H5B O4B 1_555 1_555
H6B O4B 1_555 1_555
W1B C1B 1_555 1_555
N2A Co2 1_555 1_555
N2C Co2B 1_555 1_555
N3_2 Co1B 1_555 1_555
N3B_2 Co1 1_555 1_555
N4A Co2B 1_555 1_555
N4C Co2 1_555 1_555
N5_2 Co2B 1_555 1_555
N5B_2 Co2 1_555 1_555
N7A Co1 1_555 1_555
N7C Co1B 1_555 1_555
C2 W1 1_555 1_555
C3 W1 1_555 1_555
C4 W1 1_555 1_555
C5 W1 1_555 1_555
C6 W1 1_555 1_555
C7 W1 1_555 1_555
C8 W1 1_555 1_555
Co1 O5 1_555 1_555
C9B O1B 1_555 1_555
C2B W1B 1_555 1_555
C3B W1B 1_555 1_555
C4B W1B 1_555 1_555
C5B W1B 1_555 1_555
C6B W1B 1_555 1_555
C7B W1B 1_555 1_555
C8B W1B 1_555 1_555

#END
