
#######################################################################
#
#                 Cambridge Crystallographic Data Centre
#                                CCDC 
#
#######################################################################
#
# If this CIF has been generated from an entry in the Cambridge 
# Structural Database, then it will include bibliographic, chemical, 
# crystal, experimental, refinement or atomic coordinate data resulting 
# from the CCDC's data processing and validation procedures.
#
#######################################################################

data_FOKGOD
_symmetry_cell_setting           triclinic
_symmetry_space_group_name_H-M   'P -1'
_symmetry_Int_Tables_number      2
_space_group_name_Hall           '-P 1'
loop_
_symmetry_equiv_pos_site_id
_symmetry_equiv_pos_as_xyz
1 x,y,z
2 -x,-y,-z
_cell_length_a                   9.9156(6)
_cell_length_b                   12.0933(7)
_cell_length_c                   14.5511(9)
_cell_angle_alpha                74.624(5)
_cell_angle_beta                 86.882(5)
_cell_angle_gamma                81.736(5)
_cell_volume                     1664.69
loop_
_atom_site_label
_atom_site_type_symbol
_atom_site_fract_x
_atom_site_fract_y
_atom_site_fract_z
Cd1 Cd 0.0000 0.5000 1.0000
Cd2 Cd 0.37700(2) 0.54802(2) 0.621275(17)
Cd3 Cd 0.36901(2) 0.40774(2) 0.918533(17)
Cl1 Cl 0.17779(9) 0.30613(8) 1.03938(7)
Cl2 Cl 0.52247(9) 0.50499(9) 0.77015(6)
N1 N 0.0470(3) 0.5025(3) 0.84262(19)
N2 N 0.1778(3) 0.4797(2) 0.81687(18)
N3 N 0.1893(3) 0.5108(2) 0.72310(18)
N4 N 0.1735(3) 0.5935(3) 0.53193(19)
N5 N -0.0529(3) 0.6416(2) 0.52936(19)
N6 N 0.4191(3) 0.2787(3) 0.6528(2)
N7 N 0.4403(3) 0.3741(3) 0.5847(2)
N8 N 0.5155(3) 0.3479(2) 0.51407(19)
N9 N 0.6729(3) 0.2477(3) 0.3875(2)
N10 N 0.7087(3) 0.0741(3) 0.4922(2)
N11 N 0.6001(3) 0.3734(2) 0.99656(18)
N12 N 0.6833(3) 0.4381(2) 1.01766(19)
N13 N 0.8142(3) 0.3944(2) 1.00713(19)
N14 N 0.6640(3) 0.1020(2) 0.92214(19)
N15 N 0.4785(3) 0.2327(2) 0.91410(18)
C1 C -0.0246(3) 0.5491(3) 0.7632(2)
H1 H -0.1180 0.5732 0.7600
C2 C 0.0648(3) 0.5548(3) 0.6870(2)
C3 C 0.0590(3) 0.5974(3) 0.5833(2)
C4 C -0.1940(3) 0.6566(4) 0.5623(3)
H2 H -0.1978 0.6309 0.6306
H3 H -0.2462 0.6118 0.5359
H4 H -0.2310 0.7368 0.5422
C5 C -0.0069(3) 0.6690(3) 0.4352(2)
C6 C -0.0745(4) 0.7130(3) 0.3496(2)
H5 H -0.1687 0.7325 0.3473
C7 C 0.0059(4) 0.7262(3) 0.2678(2)
H6 H -0.0358 0.7548 0.2089
C8 C 0.1467(4) 0.6984(3) 0.2705(2)
H7 H 0.1969 0.7099 0.2137
C9 C 0.2130(3) 0.6543(3) 0.3551(2)
H8 H 0.3073 0.6349 0.3568
C10 C 0.1346(3) 0.6397(3) 0.4387(2)
C11 C 0.4846(4) 0.1891(3) 0.6228(3)
H9 H 0.4878 0.1114 0.6553
C12 C 0.5465(4) 0.2316(3) 0.5352(3)
C13 C 0.6387(4) 0.1836(3) 0.4711(3)
C14 C 0.6964(5) -0.0198(4) 0.5780(3)
H10 H 0.6271 0.0053 0.6195
H11 H 0.7819 -0.0408 0.6103
H12 H 0.6722 -0.0855 0.5606
C15 C 0.7987(4) 0.0700(4) 0.4158(3)
C16 C 0.8990(5) -0.0166(4) 0.4008(3)
H13 H 0.9138 -0.0889 0.4442
C17 C 0.9750(5) 0.0110(5) 0.3177(4)
H14 H 1.0440 -0.0441 0.3053
C18 C 0.9525(5) 0.1182(4) 0.2516(4)
H15 H 1.0062 0.1331 0.1964
C19 C 0.8512(4) 0.2028(4) 0.2671(3)
H16 H 0.8346 0.2743 0.2228
C20 C 0.7750(4) 0.1774(3) 0.3509(3)
C21 C 0.8124(3) 0.2983(3) 0.9788(2)
H17 H 0.8884 0.2494 0.9662
C22 C 0.6787(3) 0.2841(3) 0.9715(2)
C23 C 0.6097(3) 0.2061(3) 0.9368(2)
C24 C 0.8039(3) 0.0451(3) 0.9383(3)
H18 H 0.8554 0.0922 0.9627
H19 H 0.8444 0.0345 0.8793
H20 H 0.8040 -0.0289 0.9836
C25 C 0.5616(3) 0.0587(3) 0.8875(2)
C26 C 0.5604(4) -0.0434(3) 0.8608(3)
H21 H 0.6375 -0.0979 0.8642
C27 C 0.4375(4) -0.0586(3) 0.8289(3)
H22 H 0.4321 -0.1252 0.8096
C28 C 0.3216(4) 0.0223(4) 0.8247(3)
H23 H 0.2405 0.0078 0.8038
C29 C 0.3241(4) 0.1227(3) 0.8506(2)
H24 H 0.2469 0.1774 0.8461
C30 C 0.4457(3) 0.1404(3) 0.8837(2)
Cd2A Cd -0.37700(2) 0.45198(2) 1.378725(17)
Cd3A Cd -0.36901(2) 0.59226(2) 1.081467(17)
Cl1A Cl -0.17779(9) 0.69387(8) 0.96062(7)
Cl2A Cl -0.52247(9) 0.49501(9) 1.22985(6)
N1A N -0.0470(3) 0.4975(3) 1.15738(19)
N2A N -0.1778(3) 0.5203(2) 1.18313(18)
N3A N -0.1893(3) 0.4892(2) 1.27690(18)
N4A N -0.1735(3) 0.4065(3) 1.46807(19)
N5A N 0.0529(3) 0.3584(2) 1.47064(19)
N6A N -0.4191(3) 0.7213(3) 1.3472(2)
N7A N -0.4403(3) 0.6259(3) 1.4153(2)
N8A N -0.5155(3) 0.6521(2) 1.48593(19)
N9A N -0.6729(3) 0.7523(3) 1.6125(2)
N10A N -0.7087(3) 0.9259(3) 1.5078(2)
N11A N -0.6001(3) 0.6266(2) 1.00344(18)
N12A N -0.6833(3) 0.5619(2) 0.98234(19)
N13A N -0.8142(3) 0.6056(2) 0.99287(19)
N14A N -0.6640(3) 0.8980(2) 1.07786(19)
N15A N -0.4785(3) 0.7673(2) 1.08590(18)
C1A C 0.0246(3) 0.4509(3) 1.2368(2)
H1A H 0.1180 0.4268 1.2400
C2A C -0.0648(3) 0.4452(3) 1.3130(2)
C3A C -0.0590(3) 0.4026(3) 1.4167(2)
C4A C 0.1940(3) 0.3434(4) 1.4377(3)
H2A H 0.1978 0.3691 1.3694
H3A H 0.2462 0.3882 1.4641
H4A H 0.2310 0.2632 1.4578
C5A C 0.0069(3) 0.3310(3) 1.5648(2)
C6A C 0.0745(4) 0.2870(3) 1.6504(2)
H5A H 0.1687 0.2675 1.6527
C7A C -0.0059(4) 0.2738(3) 1.7322(2)
H6A H 0.0358 0.2452 1.7911
C8A C -0.1467(4) 0.3016(3) 1.7295(2)
H7A H -0.1969 0.2901 1.7863
C9A C -0.2130(3) 0.3457(3) 1.6449(2)
H8A H -0.3073 0.3651 1.6432
C10A C -0.1346(3) 0.3603(3) 1.5613(2)
C11A C -0.4846(4) 0.8109(3) 1.3772(3)
H9A H -0.4878 0.8886 1.3447
C12A C -0.5465(4) 0.7684(3) 1.4648(3)
C13A C -0.6387(4) 0.8164(3) 1.5289(3)
C14A C -0.6964(5) 1.0198(4) 1.4220(3)
H10A H -0.6271 0.9947 1.3805
H11A H -0.7819 1.0408 1.3897
H12A H -0.6722 1.0855 1.4394
C15A C -0.7987(4) 0.9300(4) 1.5842(3)
C16A C -0.8990(5) 1.0166(4) 1.5992(3)
H13A H -0.9138 1.0889 1.5558
C17A C -0.9750(5) 0.9890(5) 1.6823(4)
H14A H -1.0440 1.0441 1.6947
C18A C -0.9525(5) 0.8818(4) 1.7484(4)
H15A H -1.0062 0.8669 1.8036
C19A C -0.8512(4) 0.7972(4) 1.7329(3)
H16A H -0.8346 0.7257 1.7772
C20A C -0.7750(4) 0.8226(3) 1.6491(3)
C21A C -0.8124(3) 0.7017(3) 1.0212(2)
H17A H -0.8884 0.7506 1.0338
C22A C -0.6787(3) 0.7159(3) 1.0285(2)
C23A C -0.6097(3) 0.7939(3) 1.0632(2)
C24A C -0.8039(3) 0.9549(3) 1.0617(3)
H18A H -0.8554 0.9078 1.0373
H19A H -0.8444 0.9655 1.1207
H20A H -0.8040 1.0289 1.0164
C25A C -0.5616(3) 0.9413(3) 1.1125(2)
C26A C -0.5604(4) 1.0434(3) 1.1392(3)
H21A H -0.6375 1.0979 1.1358
C27A C -0.4375(4) 1.0586(3) 1.1711(3)
H22A H -0.4321 1.1252 1.1904
C28A C -0.3216(4) 0.9777(4) 1.1753(3)
H23A H -0.2405 0.9922 1.1962
C29A C -0.3241(4) 0.8773(3) 1.1494(2)
H24A H -0.2469 0.8226 1.1539
C30A C -0.4457(3) 0.8596(3) 1.1163(2)
Cd1_2 Cd -1.0000 0.5000 1.0000
Cd1_3 Cd 1.0000 0.5000 1.0000
Cd2_2 Cd -0.62300(2) 0.54802(2) 1.621275(17)
Cd2A_2 Cd 0.62300(2) 0.45198(2) 0.378725(17)
Cd3_2 Cd -0.63099(2) 0.40774(2) 0.918533(17)
Cd3A_2 Cd 0.63099(2) 0.59226(2) 1.081467(17)
N8_2 N -0.4845(3) 0.3479(2) 1.51407(19)
N8A_2 N 0.4845(3) 0.6521(2) 0.48593(19)
N9_2 N -0.3271(3) 0.2477(3) 1.3875(2)
N9A_2 N 0.3271(3) 0.7523(3) 0.6125(2)
N12_2 N -0.3167(3) 0.4381(2) 1.01766(19)
N12A_2 N 0.3167(3) 0.5619(2) 0.98234(19)
N13_2 N -0.1858(3) 0.3944(2) 1.00713(19)
N13A_2 N 0.1858(3) 0.6056(2) 0.99287(19)
O1 O 0.6618(4) 0.7371(3) 0.7538(3)
loop_
_geom_bond_atom_site_label_1
_geom_bond_atom_site_label_2
_geom_bond_site_symmetry_1
_geom_bond_site_symmetry_2
Cd1 Cl1 1_555 1_555
Cd2 Cl2 1_555 1_555
Cd3 Cl1 1_555 1_555
Cl2 Cd3 1_555 1_555
N1 Cd1 1_555 1_555
N2 Cd3 1_555 1_555
N3 Cd2 1_555 1_555
N4 Cd2 1_555 1_555
N5 C3 1_555 1_555
N6 N7 1_555 1_555
N7 Cd2 1_555 1_555
N8 N7 1_555 1_555
N9 C13 1_555 1_555
N10 C13 1_555 1_555
N11 Cd3 1_555 1_555
N12 N11 1_555 1_555
N13 N12 1_555 1_555
N14 C23 1_555 1_555
N15 Cd3 1_555 1_555
C1 N1 1_555 1_555
H1 C1 1_555 1_555
C2 N3 1_555 1_555
C3 N4 1_555 1_555
C4 N5 1_555 1_555
H2 C4 1_555 1_555
H3 C4 1_555 1_555
H4 C4 1_555 1_555
C5 N5 1_555 1_555
C6 C5 1_555 1_555
H5 C6 1_555 1_555
C7 C6 1_555 1_555
H6 C7 1_555 1_555
C8 C7 1_555 1_555
H7 C8 1_555 1_555
C9 C8 1_555 1_555
H8 C9 1_555 1_555
C10 N4 1_555 1_555
C11 N6 1_555 1_555
H9 C11 1_555 1_555
C12 N8 1_555 1_555
C13 C12 1_555 1_555
C14 N10 1_555 1_555
H10 C14 1_555 1_555
H11 C14 1_555 1_555
H12 C14 1_555 1_555
C15 N10 1_555 1_555
C16 C15 1_555 1_555
H13 C16 1_555 1_555
C17 C16 1_555 1_555
H14 C17 1_555 1_555
C18 C17 1_555 1_555
H15 C18 1_555 1_555
C19 C18 1_555 1_555
H16 C19 1_555 1_555
C20 N9 1_555 1_555
C21 N13 1_555 1_555
H17 C21 1_555 1_555
C22 N11 1_555 1_555
C23 N15 1_555 1_555
C24 N14 1_555 1_555
H18 C24 1_555 1_555
H19 C24 1_555 1_555
H20 C24 1_555 1_555
C25 N14 1_555 1_555
C26 C25 1_555 1_555
H21 C26 1_555 1_555
C27 C26 1_555 1_555
H22 C27 1_555 1_555
C28 C27 1_555 1_555
H23 C28 1_555 1_555
C29 C28 1_555 1_555
H24 C29 1_555 1_555
C30 N15 1_555 1_555
Cd2A Cl2A 1_555 1_555
Cd3A Cl1A 1_555 1_555
Cl1A Cd1 1_555 1_555
Cl2A Cd3A 1_555 1_555
N1A Cd1 1_555 1_555
N2A Cd3A 1_555 1_555
N3A Cd2A 1_555 1_555
N4A Cd2A 1_555 1_555
N5A C3A 1_555 1_555
N6A N7A 1_555 1_555
N7A Cd2A 1_555 1_555
N8A N7A 1_555 1_555
N9A C13A 1_555 1_555
N10A C13A 1_555 1_555
N11A Cd3A 1_555 1_555
N12A N11A 1_555 1_555
N13A N12A 1_555 1_555
N14A C23A 1_555 1_555
N15A Cd3A 1_555 1_555
C1A N1A 1_555 1_555
H1A C1A 1_555 1_555
C2A N3A 1_555 1_555
C3A N4A 1_555 1_555
C4A N5A 1_555 1_555
H2A C4A 1_555 1_555
H3A C4A 1_555 1_555
H4A C4A 1_555 1_555
C5A N5A 1_555 1_555
C6A C5A 1_555 1_555
H5A C6A 1_555 1_555
C7A C6A 1_555 1_555
H6A C7A 1_555 1_555
C8A C7A 1_555 1_555
H7A C8A 1_555 1_555
C9A C8A 1_555 1_555
H8A C9A 1_555 1_555
C10A N4A 1_555 1_555
C11A N6A 1_555 1_555
H9A C11A 1_555 1_555
C12A N8A 1_555 1_555
C13A C12A 1_555 1_555
C14A N10A 1_555 1_555
H10A C14A 1_555 1_555
H11A C14A 1_555 1_555
H12A C14A 1_555 1_555
C15A N10A 1_555 1_555
C16A C15A 1_555 1_555
H13A C16A 1_555 1_555
C17A C16A 1_555 1_555
H14A C17A 1_555 1_555
C18A C17A 1_555 1_555
H15A C18A 1_555 1_555
C19A C18A 1_555 1_555
H16A C19A 1_555 1_555
C20A N9A 1_555 1_555
C21A N13A 1_555 1_555
H17A C21A 1_555 1_555
C22A N11A 1_555 1_555
C23A N15A 1_555 1_555
C24A N14A 1_555 1_555
H18A C24A 1_555 1_555
H19A C24A 1_555 1_555
H20A C24A 1_555 1_555
C25A N14A 1_555 1_555
C26A C25A 1_555 1_555
H21A C26A 1_555 1_555
C27A C26A 1_555 1_555
H22A C27A 1_555 1_555
C28A C27A 1_555 1_555
H23A C28A 1_555 1_555
C29A C28A 1_555 1_555
H24A C29A 1_555 1_555
C30A N15A 1_555 1_555
Cd1_2 N13A 1_555 1_555
Cd1_3 N13 1_555 1_555
Cd2_2 N8A 1_555 1_555
Cd2A_2 N8 1_555 1_555
Cd3_2 N12A 1_555 1_555
Cd3A_2 N12 1_555 1_555
N8_2 Cd2A 1_555 1_555
N8A_2 Cd2 1_555 1_555
N9_2 Cd2A 1_555 1_555
N9A_2 Cd2 1_555 1_555
N12_2 Cd3A 1_555 1_555
N12A_2 Cd3 1_555 1_555
N13_2 Cd1 1_555 1_555
N13A_2 Cd1 1_555 1_555
N1 N2 1_555 1_555
N2 N3 1_555 1_555
N9 Cd2A_2 1_555 1_555
C1 C2 1_555 1_555
C2 C3 1_555 1_555
C5 C10 1_555 1_555
C9 C10 1_555 1_555
C11 C12 1_555 1_555
C15 C20 1_555 1_555
C19 C20 1_555 1_555
C21 C22 1_555 1_555
C22 C23 1_555 1_555
C25 C30 1_555 1_555
C29 C30 1_555 1_555
N1A N2A 1_555 1_555
N2A N3A 1_555 1_555
N9A Cd2_2 1_555 1_555
C1A C2A 1_555 1_555
C2A C3A 1_555 1_555
C5A C10A 1_555 1_555
C9A C10A 1_555 1_555
C11A C12A 1_555 1_555
C15A C20A 1_555 1_555
C19A C20A 1_555 1_555
C21A C22A 1_555 1_555
C22A C23A 1_555 1_555
C25A C30A 1_555 1_555
C29A C30A 1_555 1_555
N12_2 N13_2 1_555 1_555
N12A_2 N13A_2 1_555 1_555

#END
