
#######################################################################
#
#                 Cambridge Crystallographic Data Centre
#                                CCDC 
#
#######################################################################
#
# If this CIF has been generated from an entry in the Cambridge 
# Structural Database, then it will include bibliographic, chemical, 
# crystal, experimental, refinement or atomic coordinate data resulting 
# from the CCDC's data processing and validation procedures.
#
#######################################################################

data_FOKHEU
_symmetry_cell_setting           monoclinic
_symmetry_space_group_name_H-M   'P 21'
_symmetry_Int_Tables_number      4
_space_group_name_Hall           'P 2yb'
loop_
_symmetry_equiv_pos_site_id
_symmetry_equiv_pos_as_xyz
1 x,y,z
2 -x,1/2+y,-z
_cell_length_a                   7.3083(4)
_cell_length_b                   20.4843(12)
_cell_length_c                   8.6739(5)
_cell_angle_alpha                90
_cell_angle_beta                 99.8030(10)
_cell_angle_gamma                90
_cell_volume                     1279.57
loop_
_atom_site_label
_atom_site_type_symbol
_atom_site_fract_x
_atom_site_fract_y
_atom_site_fract_z
C1 C 0.1341(8) 0.0913(3) 0.3417(7)
C2 C 0.2331(8) 0.0967(3) 0.4987(7)
C3 C 0.3073(9) 0.0417(3) 0.5742(8)
H1 H 0.3687 0.0453 0.6770
C4 C 0.2943(10) -0.0195(3) 0.5029(9)
H2 H 0.3471 -0.0562 0.5558
C5 C 0.2026(11) -0.0237(3) 0.3543(9)
H3 H 0.1917 -0.0637 0.3032
C6 C 0.2644(7) 0.1615(3) 0.5774(7)
C7 C 0.2912(8) 0.4515(3) 0.6365(7)
C8 C 0.3052(10) 0.5686(3) 0.6038(8)
H4 H 0.3399 0.6089 0.6490
C9 C 0.2232(11) 0.5649(3) 0.4499(8)
H5 H 0.2011 0.6024 0.3890
C10 C 0.1738(10) 0.5038(3) 0.3870(8)
H6 H 0.1184 0.5009 0.2825
C11 C 0.2039(8) 0.4470(3) 0.4742(7)
C12 C 0.1390(8) 0.3834(3) 0.4035(7)
C13 C 0.2838(8) 0.2631(4) 0.0459(7)
C14 C 0.0922(8) 0.2779(3) -0.0549(6)
C15 C -0.3409(7) 0.3037(3) 0.4511(6)
C16 C -0.2686(7) 0.2425(3) 0.5506(6)
Eu1 Eu 0.00416(3) 0.252092(12) 0.29393(3)
Eu2 Eu 0.37709(3) 0.292327(11) 0.69914(3)
N1 N 0.1265(8) 0.0302(3) 0.2797(6)
H7 H 0.0686 0.0255 0.1855
N2 N 0.3352(7) 0.5137(2) 0.6889(6)
H8 H 0.3867 0.5179 0.7852
O1 O 0.2501(5) 0.2127(2) 0.4938(4)
O2 O 0.3114(7) 0.1652(2) 0.7219(5)
O3 O 0.0493(7) 0.1373(2) 0.2602(6)
O4 O 0.1383(5) 0.3337(2) 0.4919(4)
O5 O 0.0796(7) 0.3780(2) 0.2593(5)
O6 O 0.3284(7) 0.4061(2) 0.7314(5)
O7 O 0.2896(5) 0.2508(3) 0.1859(4)
O8 O 0.4212(5) 0.2659(2) -0.0239(4)
O9 O -0.2589(6) 0.3178(2) 0.3396(5)
O10 O -0.4762(5) 0.3339(2) 0.4890(5)
O11 O -0.0437(5) 0.2750(2) 0.0147(4)
O12 O 0.0909(5) 0.2926(3) -0.1934(4)
O13 O -0.3540(6) 0.22764(19) 0.6586(5)
O14 O -0.1343(5) 0.2136(2) 0.5123(5)
O15 O 0.6627(6) 0.3449(2) 0.8388(5)
H9 H 0.7550 0.3255 0.8923
H10 H 0.6456 0.3802 0.8858
O16 O -0.2848(6) 0.1999(2) 0.1689(5)
H11 H -0.3930 0.2138 0.1319
H12 H -0.2833 0.1590 0.1525
Eu2_2 Eu -0.62291(3) 0.292327(11) 0.69914(3)
Eu2_3 Eu 0.37709(3) 0.292327(11) -0.30086(3)
O8_2 O 0.4212(5) 0.2659(2) 0.9761(4)
O10_2 O 0.5238(5) 0.3339(2) 0.4890(5)
O12_2 O 0.0909(5) 0.2926(3) 0.8066(4)
O13_2 O 0.6460(6) 0.22764(19) 0.6586(5)
O17 O 0.7323(8) 0.1275(3) 0.9037(6)
H13 H 0.8428 0.1219 0.8866
H14 H 0.6708 0.1398 0.8168
O18 O 0.4789(12) 0.0336(4) 1.0022(8)
H15 H 0.5707 0.0171 0.9661
H16 H 0.3907 0.0066 0.9761
O19 O 0.1221(11) 0.0971(4) 0.9265(8)
H17 H 0.2055 0.0680 0.9305
H18 H 0.1402 0.1227 0.8536
O20 O 0.0944(11) 0.4514(3) 0.9722(7)
H19 H 0.1415 0.4313 0.9025
H20 H 0.0865 0.4244 1.0453
O21 O 0.604(3) 0.4116(4) 0.1169(9)
H21 H 0.6261 0.3834 0.1896
H22 H 0.5195 0.3964 0.0468
loop_
_geom_bond_atom_site_label_1
_geom_bond_atom_site_label_2
_geom_bond_site_symmetry_1
_geom_bond_site_symmetry_2
C1 C2 1_555 1_555
C2 C3 1_555 1_555
C3 H1 1_555 1_555
C4 C3 1_555 1_555
H2 C4 1_555 1_555
C5 C4 1_555 1_555
H3 C5 1_555 1_555
C6 C2 1_555 1_555
C7 C11 1_555 1_555
C8 H4 1_555 1_555
C9 C8 1_555 1_555
H5 C9 1_555 1_555
C10 C9 1_555 1_555
H6 C10 1_555 1_555
C11 C10 1_555 1_555
C12 C11 1_555 1_555
C13 C14 1_555 1_555
C14 O11 1_555 1_555
C15 C16 1_555 1_555
C16 O13 1_555 1_555
Eu1 O1 1_555 1_555
Eu2 O1 1_555 1_555
N1 C1 1_555 1_555
H7 N1 1_555 1_555
N2 C7 1_555 1_555
H8 N2 1_555 1_555
O1 C6 1_555 1_555
O2 C6 1_555 1_555
O3 C1 1_555 1_555
O4 C12 1_555 1_555
O5 C12 1_555 1_555
O6 C7 1_555 1_555
O7 C13 1_555 1_555
O8 C13 1_555 1_555
O9 C15 1_555 1_555
O10 C15 1_555 1_555
O11 Eu1 1_555 1_555
O12 C14 1_555 1_555
O13 Eu2_2 1_555 1_555
O14 C16 1_555 1_555
O15 Eu2 1_555 1_555
H9 O15 1_555 1_555
H10 O15 1_555 1_555
O16 Eu1 1_555 1_555
H11 O16 1_555 1_555
H12 O16 1_555 1_555
O17 H13 1_555 1_555
H14 O17 1_555 1_555
O18 H15 1_555 1_555
H16 O18 1_555 1_555
O19 H17 1_555 1_555
H18 O19 1_555 1_555
O20 H19 1_555 1_555
H20 O20 1_555 1_555
O21 H21 1_555 1_555
H22 O21 1_555 1_555
Eu2_2 O10 1_555 1_555
Eu2_3 O8 1_555 1_555
O8_2 Eu2 1_555 1_555
O10_2 Eu2 1_555 1_555
O12_2 Eu2 1_555 1_555
O13_2 Eu2 1_555 1_555
C5 N1 1_555 1_555
C8 N2 1_555 1_555
Eu1 O3 1_555 1_555
Eu1 O4 1_555 1_555
Eu1 O5 1_555 1_555
Eu1 O7 1_555 1_555
Eu1 O9 1_555 1_555
Eu1 O14 1_555 1_555
Eu2 O2 1_555 1_555
Eu2 O4 1_555 1_555
Eu2 O6 1_555 1_555
O12 Eu2_3 1_555 1_555

#END
