
#######################################################################
#
#                 Cambridge Crystallographic Data Centre
#                                CCDC 
#
#######################################################################
#
# If this CIF has been generated from an entry in the Cambridge 
# Structural Database, then it will include bibliographic, chemical, 
# crystal, experimental, refinement or atomic coordinate data resulting 
# from the CCDC's data processing and validation procedures.
#
#######################################################################

data_FOKHIY
_symmetry_cell_setting           monoclinic
_symmetry_space_group_name_H-M   'P 21'
_symmetry_Int_Tables_number      4
_space_group_name_Hall           'P 2yb'
loop_
_symmetry_equiv_pos_site_id
_symmetry_equiv_pos_as_xyz
1 x,y,z
2 -x,1/2+y,-z
_cell_length_a                   7.2845(4)
_cell_length_b                   20.4646(10)
_cell_length_c                   8.6404(4)
_cell_angle_alpha                90
_cell_angle_beta                 99.6610(10)
_cell_angle_gamma                90
_cell_volume                     1269.79
loop_
_atom_site_label
_atom_site_type_symbol
_atom_site_fract_x
_atom_site_fract_y
_atom_site_fract_z
C1 C 0.1345(7) 0.0922(3) 0.3406(7)
C2 C 0.2320(7) 0.0970(3) 0.4991(6)
C3 C 0.3066(8) 0.0420(3) 0.5751(7)
H1 H 0.3684 0.0452 0.6781
C4 C 0.2918(9) -0.0185(3) 0.5016(8)
H2 H 0.3442 -0.0554 0.5543
C5 C 0.2015(9) -0.0232(3) 0.3546(8)
H3 H 0.1902 -0.0635 0.3042
C6 C 0.2637(7) 0.1622(3) 0.5778(6)
C7 C 0.2906(7) 0.4515(3) 0.6356(7)
C8 C 0.3052(8) 0.5683(3) 0.6034(7)
H4 H 0.3394 0.6088 0.6483
C9 C 0.2231(9) 0.5644(3) 0.4499(7)
H5 H 0.2001 0.6018 0.3885
C10 C 0.1748(9) 0.5030(3) 0.3878(7)
H6 H 0.1202 0.4996 0.2829
C11 C 0.2046(7) 0.4478(3) 0.4750(6)
C12 C 0.1393(7) 0.3832(3) 0.4048(6)
C13 C 0.2855(7) 0.2633(3) 0.0456(6)
C14 C 0.0935(7) 0.2775(3) -0.0549(6)
C15 C -0.3408(7) 0.3042(3) 0.4514(6)
C16 C -0.2682(7) 0.2425(3) 0.5506(6)
Gd1 Gd 0.00490(3) 0.252134(12) 0.29450(2)
Gd2 Gd 0.37699(3) 0.292280(10) 0.69890(2)
N1 N 0.1262(7) 0.0310(2) 0.2787(6)
H7 H 0.0687 0.0262 0.1840
N2 N 0.3366(6) 0.5135(2) 0.6900(5)
H8 H 0.3893 0.5175 0.7863
O1 O 0.2518(5) 0.21343(19) 0.4942(4)
O2 O 0.3126(6) 0.1659(2) 0.7234(4)
O3 O 0.0500(6) 0.1382(2) 0.2598(5)
O4 O 0.1389(5) 0.33363(19) 0.4912(4)
O5 O 0.0815(6) 0.3779(2) 0.2591(4)
O6 O 0.3293(6) 0.4056(2) 0.7328(4)
O7 O 0.2904(4) 0.2517(3) 0.1868(4)
O8 O 0.4214(5) 0.2665(2) -0.0252(4)
O9 O -0.2574(5) 0.31817(18) 0.3402(4)
O10 O -0.4757(5) 0.33375(19) 0.4896(4)
O11 O -0.0445(4) 0.27506(19) 0.0155(4)
O12 O 0.0907(4) 0.2927(3) -0.1947(4)
O13 O -0.3541(5) 0.22739(17) 0.6598(4)
O14 O -0.1323(5) 0.21359(18) 0.5122(4)
O15 O 0.6623(5) 0.3453(2) 0.8383(5)
H9 H 0.7546 0.3258 0.8918
H10 H 0.6452 0.3806 0.8853
O16 O -0.2851(5) 0.2002(2) 0.1695(4)
H11 H -0.3933 0.2141 0.1326
H12 H -0.2836 0.1593 0.1532
Gd2_2 Gd -0.62301(3) 0.292280(10) 0.69890(2)
Gd2_3 Gd 0.37699(3) 0.292280(10) -0.30110(2)
O8_2 O 0.4214(5) 0.2665(2) 0.9748(4)
O10_2 O 0.5243(5) 0.33375(19) 0.4896(4)
O12_2 O 0.0907(4) 0.2927(3) 0.8053(4)
O13_2 O 0.6459(5) 0.22739(17) 0.6598(4)
O17 O 0.7302(7) 0.1271(2) 0.9042(5)
H13 H 0.8407 0.1214 0.8870
H14 H 0.6687 0.1394 0.8173
O18 O 0.4745(10) 0.0336(3) 1.0013(6)
H15 H 0.5663 0.0171 0.9653
H16 H 0.3863 0.0066 0.9752
O19 O 0.1223(8) 0.0960(3) 0.9261(7)
H17 H 0.2056 0.0668 0.9301
H18 H 0.1403 0.1215 0.8532
O20 O 0.0953(9) 0.4515(3) 0.9728(6)
H19 H 0.1424 0.4315 0.9032
H20 H 0.0875 0.4246 1.0459
O21 O 0.594(2) 0.4110(4) 0.1189(8)
H21 H 0.6160 0.3828 0.1916
H22 H 0.5094 0.3958 0.0488
loop_
_geom_bond_atom_site_label_1
_geom_bond_atom_site_label_2
_geom_bond_site_symmetry_1
_geom_bond_site_symmetry_2
C1 C2 1_555 1_555
C2 C3 1_555 1_555
C3 H1 1_555 1_555
C4 C3 1_555 1_555
H2 C4 1_555 1_555
C5 C4 1_555 1_555
H3 C5 1_555 1_555
C6 C2 1_555 1_555
C7 C11 1_555 1_555
C8 H4 1_555 1_555
C9 C8 1_555 1_555
H5 C9 1_555 1_555
C10 C9 1_555 1_555
H6 C10 1_555 1_555
C11 C10 1_555 1_555
C12 C11 1_555 1_555
C13 C14 1_555 1_555
C14 O11 1_555 1_555
C15 C16 1_555 1_555
C16 O13 1_555 1_555
Gd1 O1 1_555 1_555
Gd2 O1 1_555 1_555
N1 C1 1_555 1_555
H7 N1 1_555 1_555
N2 C7 1_555 1_555
H8 N2 1_555 1_555
O1 C6 1_555 1_555
O2 C6 1_555 1_555
O3 C1 1_555 1_555
O4 C12 1_555 1_555
O5 C12 1_555 1_555
O6 C7 1_555 1_555
O7 C13 1_555 1_555
O8 C13 1_555 1_555
O9 C15 1_555 1_555
O10 C15 1_555 1_555
O11 Gd1 1_555 1_555
O12 C14 1_555 1_555
O13 Gd2_2 1_555 1_555
O14 C16 1_555 1_555
O15 Gd2 1_555 1_555
H9 O15 1_555 1_555
H10 O15 1_555 1_555
O16 Gd1 1_555 1_555
H11 O16 1_555 1_555
H12 O16 1_555 1_555
O17 H13 1_555 1_555
H14 O17 1_555 1_555
O18 H15 1_555 1_555
H16 O18 1_555 1_555
O19 H17 1_555 1_555
H18 O19 1_555 1_555
O20 H19 1_555 1_555
H20 O20 1_555 1_555
O21 H21 1_555 1_555
H22 O21 1_555 1_555
Gd2_2 O10 1_555 1_555
Gd2_3 O8 1_555 1_555
O8_2 Gd2 1_555 1_555
O10_2 Gd2 1_555 1_555
O12_2 Gd2 1_555 1_555
O13_2 Gd2 1_555 1_555
C5 N1 1_555 1_555
C8 N2 1_555 1_555
Gd1 O3 1_555 1_555
Gd1 O4 1_555 1_555
Gd1 O5 1_555 1_555
Gd1 O7 1_555 1_555
Gd1 O9 1_555 1_555
Gd1 O14 1_555 1_555
Gd2 O2 1_555 1_555
Gd2 O4 1_555 1_555
Gd2 O6 1_555 1_555
O12 Gd2_3 1_555 1_555

#END
