
#######################################################################
#
#                 Cambridge Crystallographic Data Centre
#                                CCDC 
#
#######################################################################
#
# If this CIF has been generated from an entry in the Cambridge 
# Structural Database, then it will include bibliographic, chemical, 
# crystal, experimental, refinement or atomic coordinate data resulting 
# from the CCDC's data processing and validation procedures.
#
#######################################################################

data_FOKMOJ
_symmetry_cell_setting           triclinic
_symmetry_space_group_name_H-M   'P -1'
_symmetry_Int_Tables_number      2
_space_group_name_Hall           '-P 1'
loop_
_symmetry_equiv_pos_site_id
_symmetry_equiv_pos_as_xyz
1 x,y,z
2 -x,-y,-z
_cell_length_a                   10.2812(4)
_cell_length_b                   13.6284(5)
_cell_length_c                   16.8750(7)
_cell_angle_alpha                85.265(2)
_cell_angle_beta                 75.138(2)
_cell_angle_gamma                81.491(2)
_cell_volume                     2257.75
loop_
_atom_site_label
_atom_site_type_symbol
_atom_site_fract_x
_atom_site_fract_y
_atom_site_fract_z
C1 C 0.6799(5) 0.3732(4) 0.1162(3)
C2 C 0.8260(5) 0.3676(4) 0.0674(3)
C3 C 0.9280(5) 0.3809(4) 0.1041(3)
H1 H 0.9066 0.3935 0.1596
C4 C 1.0614(5) 0.3755(4) 0.0586(3)
C5 C 1.0923(5) 0.3558(4) -0.0248(3)
H2 H 1.1814 0.3534 -0.0562
C6 C 0.9921(5) 0.3400(4) -0.0604(3)
C7 C 0.8579(5) 0.3474(4) -0.0146(3)
H3 H 0.7896 0.3388 -0.0394
C8 C 1.1760(5) 0.3857(4) 0.0963(3)
C9 C 0.8171(5) 0.3631(4) 0.3972(3)
C10 C 0.9323(5) 0.3611(4) 0.4371(3)
C11 C 0.9051(5) 0.3543(4) 0.5216(3)
H4 H 0.8176 0.3468 0.5520
C12 C 1.0041(5) 0.3582(4) 0.5615(3)
C13 C 1.1342(5) 0.3692(4) 0.5173(3)
H5 H 1.2013 0.3728 0.5445
C14 C 1.1653(5) 0.3749(4) 0.4322(3)
C15 C 1.0647(4) 0.3704(4) 0.3919(3)
H6 H 1.0854 0.3735 0.3349
C16 C 1.3091(5) 0.3821(4) 0.3852(3)
C17 C 0.4742(5) 0.5950(4) 0.1015(3)
H7 H 0.5323 0.5559 0.0610
C18 C 0.4805(5) 0.6951(4) 0.0964(3)
H8 H 0.5402 0.7232 0.0524
C19 C 0.3969(5) 0.7541(4) 0.1576(3)
C20 C 0.3064(5) 0.7089(4) 0.2198(3)
H9 H 0.2460 0.7461 0.2608
C21 C 0.3072(5) 0.6088(4) 0.2201(3)
H10 H 0.2478 0.5787 0.2631
C22 C 0.3722(5) 1.0078(4) 0.1995(4)
C23 C 0.4464(6) 1.0512(4) 0.1287(3)
H11 H 0.4924 1.0135 0.0840
C24 C 0.4500(6) 1.1519(4) 0.1264(3)
H12 H 0.5018 1.1814 0.0795
C25 C 0.3121(5) 1.1656(4) 0.2560(3)
H13 H 0.2662 1.2047 0.2998
C26 C 0.3035(6) 1.0659(5) 0.2647(4)
H14 H 0.2531 1.0381 0.3128
C27 C 0.6449(5) 0.6061(4) 0.2654(3)
H15 H 0.6932 0.5745 0.2179
C28 C 0.6485(5) 0.7061(4) 0.2689(3)
H16 H 0.6994 0.7408 0.2249
C29 C 0.5759(6) 0.7541(4) 0.3383(3)
C30 C 0.5023(6) 0.7004(4) 0.4019(3)
H17 H 0.4513 0.7309 0.4494
C31 C 0.5055(5) 0.5999(4) 0.3937(3)
H18 H 0.4560 0.5636 0.4372
C32 C 0.6844(5) 1.1632(4) 0.2506(4)
H19 H 0.7351 1.1995 0.2076
C33 C 0.6861(6) 1.0639(5) 0.2419(4)
H20 H 0.7330 1.0349 0.1929
C34 C 0.6183(6) 1.0079(5) 0.3057(4)
C35 C 0.5469(6) 1.0545(5) 0.3767(4)
H21 H 0.4993 1.0187 0.4212
C36 C 0.5476(6) 1.1553(4) 0.3803(3)
H22 H 0.5000 1.1862 0.4283
N1 N 0.3885(4) 0.5516(3) 0.1619(2)
N2 N 0.4092(5) 0.8574(4) 0.1480(3)
N3 N 0.3586(4) 0.9033(4) 0.2101(3)
N4 N 0.3819(4) 1.2102(3) 0.1887(3)
N5 N 0.5754(4) 0.5524(3) 0.3271(2)
N6 N 0.5698(5) 0.8583(4) 0.3533(3)
N7 N 0.6221(5) 0.9033(4) 0.2920(3)
N8 N 0.6139(4) 1.2105(3) 0.3176(3)
O1 O 0.6498(3) 0.3981(3) 0.1887(2)
O2 O 0.5948(3) 0.3535(3) 0.0810(2)
O3 O 1.1497(3) 0.4080(3) 0.1705(2)
O4 O 1.2936(3) 0.3692(3) 0.0548(2)
O5 O 1.0216(4) 0.3109(3) -0.1406(2)
H23 H 1.1038 0.3062 -0.1603
O6 O 0.8347(3) 0.3848(3) 0.3210(2)
O7 O 0.7051(3) 0.3450(3) 0.4388(2)
O8 O 1.3963(3) 0.3818(3) 0.4259(2)
O9 O 1.3392(3) 0.3864(3) 0.30866(19)
O10 O 0.9668(3) 0.3479(3) 0.64551(19)
H24 H 1.0325 0.3509 0.6639
Cd1 Cd 0.59799(3) 0.38043(3) 0.32923(2)
Cd2 Cd 0.38630(3) 0.38178(3) 0.16800(2)
N4_2 N 0.3819(4) 0.2102(3) 0.1887(3)
N8_2 N 0.6139(4) 0.2105(3) 0.3176(3)
O3_2 O 0.1497(3) 0.4080(3) 0.1705(2)
O4_2 O 0.2936(3) 0.3692(3) 0.0548(2)
O8_2 O 0.3963(3) 0.3818(3) 0.4259(2)
O9_2 O 0.3392(3) 0.3864(3) 0.30866(19)
Cd1_2 Cd 0.59799(3) 1.38043(3) 0.32923(2)
Cd1_3 Cd 1.59799(3) 0.38043(3) 0.32923(2)
Cd2_2 Cd 0.38630(3) 1.38178(3) 0.16800(2)
Cd2_3 Cd 1.38630(3) 0.38178(3) 0.16800(2)
C37 C 0.8417(9) -0.0886(7) 0.4771(5)
H25 H 0.8200 -0.1472 0.5065
C38 C 0.9061(8) -0.0938(7) 0.3959(5)
H26 H 0.9298 -0.1548 0.3715
C39 C 0.9356(7) -0.0072(8) 0.3504(5)
C40 C 0.9005(8) 0.0794(7) 0.3894(6)
H27 H 0.9194 0.1392 0.3612
C41 C 0.8366(8) 0.0770(7) 0.4714(6)
H28 H 0.8115 0.1371 0.4971
C42 C 1.0789(7) 0.0111(8) 0.1355(5)
C43 C 1.1143(9) 0.0944(8) 0.0902(7)
H29 H 1.0969 0.1559 0.1136
C44 C 1.1772(8) 0.0838(8) 0.0081(6)
H30 H 1.2025 0.1406 -0.0231
C45 C 1.1668(8) -0.0790(6) 0.0165(5)
H31 H 1.1857 -0.1396 -0.0085
C46 C 1.1012(7) -0.0780(7) 0.0997(5)
H32 H 1.0740 -0.1352 0.1294
N9 N 0.8082(7) -0.0047(6) 0.5165(4)
N10 N 1.0061(7) -0.0366(6) 0.2554(5)
N11 N 1.0084(7) 0.0379(6) 0.2305(7)
N12 N 1.2037(6) 0.0000(6) -0.0292(4)
O11 O 1.0420(4) 0.4574(3) -0.2539(2)
H33 H 1.0955 0.4941 -0.2853
H34 H 0.9674 0.4924 -0.2329
loop_
_geom_bond_atom_site_label_1
_geom_bond_atom_site_label_2
_geom_bond_site_symmetry_1
_geom_bond_site_symmetry_2
C1 C2 1_555 1_555
C2 C3 1_555 1_555
C3 H1 1_555 1_555
C4 C3 1_555 1_555
C5 C4 1_555 1_555
H2 C5 1_555 1_555
C6 C5 1_555 1_555
C7 C2 1_555 1_555
H3 C7 1_555 1_555
C8 C4 1_555 1_555
C9 C10 1_555 1_555
C10 C11 1_555 1_555
C11 H4 1_555 1_555
C12 C11 1_555 1_555
C13 C12 1_555 1_555
H5 C13 1_555 1_555
C14 C13 1_555 1_555
C15 C10 1_555 1_555
H6 C15 1_555 1_555
C16 C14 1_555 1_555
C17 H7 1_555 1_555
C18 C17 1_555 1_555
H8 C18 1_555 1_555
C19 C18 1_555 1_555
C20 C19 1_555 1_555
H9 C20 1_555 1_555
C21 C20 1_555 1_555
H10 C21 1_555 1_555
C22 C23 1_555 1_555
C23 H11 1_555 1_555
C24 C23 1_555 1_555
H12 C24 1_555 1_555
C25 H13 1_555 1_555
C26 C22 1_555 1_555
H14 C26 1_555 1_555
C27 H15 1_555 1_555
C28 C27 1_555 1_555
H16 C28 1_555 1_555
C29 C28 1_555 1_555
C30 C29 1_555 1_555
H17 C30 1_555 1_555
C31 C30 1_555 1_555
H18 C31 1_555 1_555
C32 H19 1_555 1_555
C33 C32 1_555 1_555
H20 C33 1_555 1_555
C34 C33 1_555 1_555
C35 C34 1_555 1_555
H21 C35 1_555 1_555
C36 C35 1_555 1_555
H22 C36 1_555 1_555
N1 C17 1_555 1_555
N2 C19 1_555 1_555
N3 C22 1_555 1_555
N4 C24 1_555 1_555
N5 C27 1_555 1_555
N6 C29 1_555 1_555
N7 C34 1_555 1_555
N8 C32 1_555 1_555
O1 C1 1_555 1_555
O2 C1 1_555 1_555
O3 C8 1_555 1_555
O4 C8 1_555 1_555
O5 C6 1_555 1_555
H23 O5 1_555 1_555
O6 C9 1_555 1_555
O7 C9 1_555 1_555
O8 C16 1_555 1_555
O9 C16 1_555 1_555
O10 C12 1_555 1_555
H24 O10 1_555 1_555
Cd1 N5 1_555 1_555
Cd2 N1 1_555 1_555
C37 H25 1_555 1_555
C38 C37 1_555 1_555
H26 C38 1_555 1_555
C39 C38 1_555 1_555
C40 C39 1_555 1_555
H27 C40 1_555 1_555
C41 C40 1_555 1_555
H28 C41 1_555 1_555
C42 C43 1_555 1_555
C43 H29 1_555 1_555
C44 C43 1_555 1_555
H30 C44 1_555 1_555
C45 H31 1_555 1_555
C46 C42 1_555 1_555
H32 C46 1_555 1_555
N9 C37 1_555 1_555
N10 C39 1_555 1_555
N11 C42 1_555 1_555
N12 C44 1_555 1_555
O11 H33 1_555 1_555
H34 O11 1_555 1_555
N4_2 Cd2 1_555 1_555
N8_2 Cd1 1_555 1_555
O3_2 Cd2 1_555 1_555
O4_2 Cd2 1_555 1_555
O8_2 Cd1 1_555 1_555
O9_2 Cd1 1_555 1_555
Cd1_2 N8 1_555 1_555
Cd1_3 O8 1_555 1_555
Cd2_2 N4 1_555 1_555
Cd2_3 O3 1_555 1_555
C6 C7 1_555 1_555
C14 C15 1_555 1_555
C21 N1 1_555 1_555
C25 C26 1_555 1_555
C25 N4 1_555 1_555
C31 N5 1_555 1_555
C36 N8 1_555 1_555
N2 N3 1_555 1_555
N6 N7 1_555 1_555
O1 Cd1 1_555 1_555
O2 Cd2 1_555 1_555
O4 Cd2_3 1_555 1_555
O6 Cd1 1_555 1_555
O7 Cd1 1_555 1_555
O9 Cd1_3 1_555 1_555
O9 Cd2_3 1_555 1_555
Cd2 O9_2 1_555 1_555
C41 N9 1_555 1_555
C45 C46 1_555 1_555
C45 N12 1_555 1_555
N10 N11 1_555 1_555

#END
