
#######################################################################
#
#                 Cambridge Crystallographic Data Centre
#                                CCDC 
#
#######################################################################
#
# If this CIF has been generated from an entry in the Cambridge 
# Structural Database, then it will include bibliographic, chemical, 
# crystal, experimental, refinement or atomic coordinate data resulting 
# from the CCDC's data processing and validation procedures.
#
#######################################################################

data_FOKPOM
_symmetry_cell_setting           monoclinic
_symmetry_space_group_name_H-M   'P 21/c'
_symmetry_Int_Tables_number      14
_space_group_name_Hall           '-P 2ybc'
loop_
_symmetry_equiv_pos_site_id
_symmetry_equiv_pos_as_xyz
1 x,y,z
2 -x,1/2+y,1/2-z
3 -x,-y,-z
4 x,1/2-y,1/2+z
_cell_length_a                   11.3267(10)
_cell_length_b                   22.611(2)
_cell_length_c                   10.5693(8)
_cell_angle_alpha                90
_cell_angle_beta                 115.899(10)
_cell_angle_gamma                90
_cell_volume                     2435.02
loop_
_atom_site_label
_atom_site_type_symbol
_atom_site_fract_x
_atom_site_fract_y
_atom_site_fract_z
Dy1 Dy 0.86207(2) 0.963832(12) 0.29027(2)
O1 O 1.0500(3) 1.00670(17) 0.2779(3)
O2 O 1.2507(4) 1.04586(19) 0.2240(4)
O3 O 0.8903(4) 0.90713(16) 0.1076(4)
O4 O 0.7895(4) 1.02241(17) 0.0642(4)
O5 O 0.5944(4) 1.0634(2) 0.0212(4)
O6 O 0.9814(4) 0.87886(17) -0.0851(4)
O7 O 0.6343(4) 0.9794(2) 0.2065(4)
H1 H 0.6047 1.0084 0.1492
H2 H 0.5688 0.9579 0.1536
O8 O 0.8550(4) 1.06148(18) 0.3469(4)
O9 O 0.7931(4) 1.0822(2) -0.1577(4)
O10 O 0.7554(4) 0.87076(19) 0.2807(4)
H3 H 0.7511 0.8543 0.3519
H4 H 0.7799 0.8477 0.2318
O11 O 0.8110(6) 0.8155(2) 0.0934(5)
C1 C 0.6910(6) 1.0561(3) -0.0041(5)
C2 C 1.1460(5) 1.0290(2) 0.3792(5)
C3 C 0.6757(7) 1.1614(3) 0.2833(7)
H5 H 0.6393 1.1382 0.2027
C4 C 0.6034(6) 1.1270(3) -0.2151(6)
H6 H 0.5248 1.1392 -0.2156
C5 C 0.6256(8) 1.2153(3) 0.3041(8)
H7 H 0.5502 1.2345 0.2410
C6 C 0.6903(6) 1.0894(3) -0.1246(5)
C7 C 1.2618(6) 1.0471(2) 0.3595(5)
C8 C 0.8737(6) 1.0988(2) 0.4432(5)
C9 C 0.6545(7) 1.1449(3) -0.3109(6)
H8 H 0.6157 1.1709 -0.3861
C10 C 0.7848(6) 1.1493(3) 0.3997(6)
C11 C 1.3689(7) 1.0616(3) 0.2333(7)
H9 H 1.3888 1.0650 0.1571
C12 C 0.8717(6) 0.8544(3) 0.0620(6)
C13 C 0.9277(8) 0.7845(3) -0.0977(8)
H10 H 0.8952 0.7485 -0.0838
C14 C 1.0211(7) 0.8511(3) -0.1748(6)
H11 H 1.0630 0.8699 -0.2224
C15 C 0.9226(7) 0.8357(3) -0.0403(6)
C16 C 1.3847(6) 1.0615(3) 0.4479(6)
H12 H 1.4187 1.0642 0.5453
O12 O 0.8066(5) 1.1941(2) 0.4960(4)
C17 C 0.9924(8) 0.7947(3) -0.1849(7)
H13 H 1.0106 0.7668 -0.2384
C18 C 0.7691(7) 1.1170(3) -0.2714(6)
H14 H 0.8242 1.1207 -0.3152
C19 C 1.4535(7) 1.0717(4) 0.3666(7)
H15 H 1.5407 1.0833 0.3995
C20 C 0.7083(9) 1.2337(3) 0.4331(9)
H16 H 0.6995 1.2688 0.4739
Ba1 Ba 1.0000 1.0000 0.0000
O13 O 1.1525(4) 1.03833(19) 0.4989(3)
O14 O 0.9605(4) 1.09606(18) 0.5682(4)
Dy1B Dy 1.13793(2) 1.036168(12) -0.29027(2)
O1B O 0.9500(3) 0.99330(17) -0.2779(3)
O2B O 0.7493(4) 0.95414(19) -0.2240(4)
O3B O 1.1097(4) 1.09287(16) -0.1076(4)
O4B O 1.2105(4) 0.97759(17) -0.0642(4)
O5B O 1.4056(4) 0.9366(2) -0.0212(4)
O6B O 1.0186(4) 1.12114(17) 0.0851(4)
O7B O 1.3657(4) 1.0206(2) -0.2065(4)
H1B H 1.3953 0.9916 -0.1492
H2B H 1.4312 1.0421 -0.1536
O8B O 1.1450(4) 0.93852(18) -0.3469(4)
O9B O 1.2069(4) 0.9178(2) 0.1577(4)
O10B O 1.2446(4) 1.12924(19) -0.2807(4)
H3B H 1.2489 1.1457 -0.3519
H4B H 1.2201 1.1523 -0.2318
O11B O 1.1890(6) 1.1845(2) -0.0934(5)
C1B C 1.3090(6) 0.9439(3) 0.0041(5)
C2B C 0.8540(5) 0.9710(2) -0.3792(5)
C3B C 1.3243(7) 0.8386(3) -0.2833(7)
H5B H 1.3607 0.8618 -0.2027
C4B C 1.3966(6) 0.8730(3) 0.2151(6)
H6B H 1.4752 0.8608 0.2156
C5B C 1.3744(8) 0.7847(3) -0.3041(8)
H7B H 1.4498 0.7655 -0.2410
C6B C 1.3097(6) 0.9106(3) 0.1246(5)
C7B C 0.7382(6) 0.9529(2) -0.3595(5)
C8B C 1.1263(6) 0.9012(2) -0.4432(5)
C9B C 1.3455(7) 0.8551(3) 0.3109(6)
H8B H 1.3843 0.8291 0.3861
C10B C 1.2152(6) 0.8507(3) -0.3997(6)
C11B C 0.6311(7) 0.9384(3) -0.2333(7)
H9B H 0.6112 0.9350 -0.1571
C12B C 1.1283(6) 1.1456(3) -0.0620(6)
C13B C 1.0723(8) 1.2155(3) 0.0977(8)
H10B H 1.1048 1.2515 0.0838
C14B C 0.9789(7) 1.1489(3) 0.1748(6)
H11B H 0.9370 1.1301 0.2224
C15B C 1.0774(7) 1.1643(3) 0.0403(6)
C16B C 0.6153(6) 0.9385(3) -0.4479(6)
H12B H 0.5813 0.9358 -0.5453
O12B O 1.1934(5) 0.8059(2) -0.4960(4)
C17B C 1.0076(8) 1.2053(3) 0.1849(7)
H13B H 0.9894 1.2332 0.2384
C18B C 1.2309(7) 0.8830(3) 0.2714(6)
H14B H 1.1758 0.8793 0.3152
C19B C 0.5465(7) 0.9283(4) -0.3666(7)
H15B H 0.4593 0.9167 -0.3995
C20B C 1.2917(9) 0.7663(3) -0.4331(9)
H16B H 1.3005 0.7312 -0.4739
O13B O 0.8475(4) 0.96167(19) -0.4989(3)
O14B O 1.0395(4) 0.90394(18) -0.5682(4)
Dy1_2 Dy 0.86207(2) 0.963832(12) -0.70973(2)
Dy1B_2 Dy 1.13793(2) 1.036168(12) 0.70973(2)
O13_2 O 1.1525(4) 1.03833(19) -0.5011(3)
O13B_2 O 0.8475(4) 0.96167(19) 0.5011(3)
O14_2 O 0.9605(4) 1.09606(18) -0.4318(4)
O14B_2 O 1.0395(4) 0.90394(18) 0.4318(4)
O15 O 0.7062(7) 0.7992(3) 0.4785(6)
H17 H 0.7302 0.7640 0.5102
H18 H 0.7285 0.8263 0.5420
loop_
_geom_bond_atom_site_label_1
_geom_bond_atom_site_label_2
_geom_bond_site_symmetry_1
_geom_bond_site_symmetry_2
Dy1 O1 1_555 1_555
O1 C2 1_555 1_555
O2 C7 1_555 1_555
O3 Dy1 1_555 1_555
O4 Dy1 1_555 1_555
O5 C1 1_555 1_555
O6 C14 1_555 1_555
O7 Dy1 1_555 1_555
H1 O7 1_555 1_555
H2 O7 1_555 1_555
O8 Dy1 1_555 1_555
O9 C6 1_555 1_555
O10 Dy1 1_555 1_555
H3 O10 1_555 1_555
H4 O10 1_555 1_555
O11 C12 1_555 1_555
C1 O4 1_555 1_555
C2 C7 1_555 1_555
C3 H5 1_555 1_555
C4 H6 1_555 1_555
C5 C3 1_555 1_555
H7 C5 1_555 1_555
C6 C1 1_555 1_555
C7 C16 1_555 1_555
C8 O8 1_555 1_555
C9 C4 1_555 1_555
H8 C9 1_555 1_555
C10 C3 1_555 1_555
C11 O2 1_555 1_555
H9 C11 1_555 1_555
C12 O3 1_555 1_555
C13 H10 1_555 1_555
C14 H11 1_555 1_555
C15 O6 1_555 1_555
C16 H12 1_555 1_555
O12 C10 1_555 1_555
C17 C13 1_555 1_555
H13 C17 1_555 1_555
C18 O9 1_555 1_555
H14 C18 1_555 1_555
C19 C11 1_555 1_555
H15 C19 1_555 1_555
C20 C5 1_555 1_555
H16 C20 1_555 1_555
Ba1 O1 1_555 1_555
O13 C2 1_555 1_555
O14 C8 1_555 1_555
O15 H17 1_555 1_555
H18 O15 1_555 1_555
Dy1B O1B 1_555 1_555
O1B Ba1 1_555 1_555
O2B Ba1 1_555 1_555
O3B Ba1 1_555 1_555
O4B Ba1 1_555 1_555
O5B C1B 1_555 1_555
O6B Ba1 1_555 1_555
O7B Dy1B 1_555 1_555
H1B O7B 1_555 1_555
H2B O7B 1_555 1_555
O8B Dy1B 1_555 1_555
O9B Ba1 1_555 1_555
O10B Dy1B 1_555 1_555
H3B O10B 1_555 1_555
H4B O10B 1_555 1_555
O11B C12B 1_555 1_555
C1B O4B 1_555 1_555
C2B O1B 1_555 1_555
C3B H5B 1_555 1_555
C4B H6B 1_555 1_555
C5B C3B 1_555 1_555
H7B C5B 1_555 1_555
C6B O9B 1_555 1_555
C7B O2B 1_555 1_555
C8B O8B 1_555 1_555
C9B C4B 1_555 1_555
H8B C9B 1_555 1_555
C10B C3B 1_555 1_555
C11B O2B 1_555 1_555
H9B C11B 1_555 1_555
C12B O3B 1_555 1_555
C13B H10B 1_555 1_555
C14B O6B 1_555 1_555
H11B C14B 1_555 1_555
C15B O6B 1_555 1_555
C16B C7B 1_555 1_555
H12B C16B 1_555 1_555
O12B C10B 1_555 1_555
C17B C13B 1_555 1_555
H13B C17B 1_555 1_555
C18B O9B 1_555 1_555
H14B C18B 1_555 1_555
C19B C11B 1_555 1_555
H15B C19B 1_555 1_555
C20B C5B 1_555 1_555
H16B C20B 1_555 1_555
O13B C2B 1_555 1_555
O14B C8B 1_555 1_555
Dy1_2 O13B 1_555 1_555
Dy1B_2 O13 1_555 1_555
O13_2 Dy1B 1_555 1_555
O13B_2 Dy1 1_555 1_555
O14_2 Dy1B 1_555 1_555
O14B_2 Dy1 1_555 1_555
O2 Ba1 1_555 1_555
O3 Ba1 1_555 1_555
O4 Ba1 1_555 1_555
O6 Ba1 1_555 1_555
O9 Ba1 1_555 1_555
C4 C6 1_555 1_555
C8 C10 1_555 1_555
C9 C18 1_555 1_555
C12 C15 1_555 1_555
C13 C15 1_555 1_555
C14 C17 1_555 1_555
C16 C19 1_555 1_555
O12 C20 1_555 1_555
O14 Dy1B_2 1_555 1_555
Dy1B O3B 1_555 1_555
Dy1B O4B 1_555 1_555
C1B C6B 1_555 1_555
C2B C7B 1_555 1_555
C4B C6B 1_555 1_555
C8B C10B 1_555 1_555
C9B C18B 1_555 1_555
C12B C15B 1_555 1_555
C13B C15B 1_555 1_555
C14B C17B 1_555 1_555
C16B C19B 1_555 1_555
O12B C20B 1_555 1_555
O14B Dy1_2 1_555 1_555

#END
