
#######################################################################
#
#                 Cambridge Crystallographic Data Centre
#                                CCDC 
#
#######################################################################
#
# If this CIF has been generated from an entry in the Cambridge 
# Structural Database, then it will include bibliographic, chemical, 
# crystal, experimental, refinement or atomic coordinate data resulting 
# from the CCDC's data processing and validation procedures.
#
#######################################################################

data_FOKTIK
_symmetry_cell_setting           monoclinic
_symmetry_space_group_name_H-M   'P 21/n'
_symmetry_Int_Tables_number      14
_space_group_name_Hall           '-P 2yn'
loop_
_symmetry_equiv_pos_site_id
_symmetry_equiv_pos_as_xyz
1 x,y,z
2 1/2-x,1/2+y,1/2-z
3 -x,-y,-z
4 1/2+x,1/2-y,1/2+z
_cell_length_a                   11.774(3)
_cell_length_b                   6.5917(15)
_cell_length_c                   21.528(5)
_cell_angle_alpha                90
_cell_angle_beta                 96.144(3)
_cell_angle_gamma                90
_cell_volume                     1661.21
loop_
_atom_site_label
_atom_site_type_symbol
_atom_site_fract_x
_atom_site_fract_y
_atom_site_fract_z
Co1 Co 0.40314(8) 0.61970(13) 0.23694(4)
O1 O 0.5264(4) 0.8207(7) 0.2390(2)
O2 O 0.2728(4) 0.4048(7) 0.2581(2)
N1 N 0.4453(5) 0.5716(8) 0.3284(3)
N2 N 0.4655(5) 0.4201(8) 0.1741(3)
C1 C 0.5735(6) 0.9207(10) 0.2873(4)
C2 C 0.6379(6) 1.1011(11) 0.2747(4)
H1 H 0.6483 1.1332 0.2336
C3 C 0.6831(6) 1.2232(12) 0.3212(5)
H2 H 0.7192 1.3420 0.3109
C4 C 0.6779(6) 1.1783(11) 0.3850(4)
C5 C 0.7230(7) 1.3111(13) 0.4332(6)
H3 H 0.7547 1.4337 0.4224
C6 C 0.7215(8) 1.2650(17) 0.4949(6)
H4 H 0.7496 1.3568 0.5256
C7 C 0.6766(8) 1.0757(15) 0.5117(5)
H5 H 0.6793 1.0364 0.5533
C8 C 0.6282(7) 0.9505(14) 0.4639(4)
H6 H 0.5966 0.8285 0.4753
C9 C 0.6234(6) 0.9937(12) 0.4000(4)
C10 C 0.5693(6) 0.8661(11) 0.3504(4)
C11 C 0.5068(6) 0.6880(11) 0.3665(4)
H7 H 0.5116 0.6541 0.4086
C12 C 0.3884(7) 0.4006(11) 0.3560(4)
H8 H 0.3660 0.4396 0.3964
H9 H 0.4406 0.2867 0.3621
C13 C 0.2830(6) 0.3390(10) 0.3126(3)
C14 C 0.4246(6) 0.2283(11) 0.1638(3)
H10 H 0.3797 0.1734 0.1926
C15 C 0.4455(6) 0.1116(11) 0.1139(3)
H11 H 0.4176 -0.0203 0.1102
C16 C 0.5095(5) 0.1919(10) 0.0681(3)
C17 C 0.5549(6) 0.3872(11) 0.0796(3)
H12 H 0.6002 0.4459 0.0516
C18 C 0.5326(6) 0.4907(11) 0.1319(3)
H13 H 0.5657 0.6179 0.1389
C19 C 0.5263(6) 0.0833(9) 0.0099(3)
H14 H 0.5787 0.1379 -0.0148
O3 O 0.2131(4) 0.2206(7) 0.3348(2)
N2B N 0.5345(5) -0.4201(8) -0.1741(3)
C14B C 0.5754(6) -0.2283(11) -0.1638(3)
H10B H 0.6203 -0.1734 -0.1926
C15B C 0.5545(6) -0.1116(11) -0.1139(3)
H11B H 0.5824 0.0203 -0.1102
C16B C 0.4905(5) -0.1919(10) -0.0681(3)
C17B C 0.4451(6) -0.3872(11) -0.0796(3)
H12B H 0.3998 -0.4459 -0.0516
C18B C 0.4674(6) -0.4907(11) -0.1319(3)
H13B H 0.4343 -0.6179 -0.1389
C19B C 0.4737(6) -0.0833(9) -0.0099(3)
H14B H 0.4213 -0.1379 0.0148
Co1B Co 0.59686(8) -0.61970(13) -0.23694(4)
O1B O 0.4736(4) -0.8207(7) -0.2390(2)
O2B O 0.7272(4) -0.4048(7) -0.2581(2)
N1B N 0.5547(5) -0.5716(8) -0.3284(3)
C1B C 0.4265(6) -0.9207(10) -0.2873(4)
C2B C 0.3621(6) -1.1011(11) -0.2747(4)
H1B H 0.3517 -1.1332 -0.2336
C3B C 0.3169(6) -1.2232(12) -0.3212(5)
H2B H 0.2808 -1.3420 -0.3109
C4B C 0.3221(6) -1.1783(11) -0.3850(4)
C5B C 0.2770(7) -1.3111(13) -0.4332(6)
H3B H 0.2453 -1.4337 -0.4224
C6B C 0.2785(8) -1.2650(17) -0.4949(6)
H4B H 0.2504 -1.3568 -0.5256
C7B C 0.3234(8) -1.0757(15) -0.5117(5)
H5B H 0.3207 -1.0364 -0.5533
C8B C 0.3718(7) -0.9505(14) -0.4639(4)
H6B H 0.4034 -0.8285 -0.4753
C9B C 0.3766(6) -0.9937(12) -0.4000(4)
C10B C 0.4307(6) -0.8661(11) -0.3504(4)
C11B C 0.4932(6) -0.6880(11) -0.3665(4)
H7B H 0.4884 -0.6541 -0.4086
C12B C 0.6116(7) -0.4006(11) -0.3560(4)
H8B H 0.6340 -0.4396 -0.3964
H9B H 0.5594 -0.2867 -0.3621
C13B C 0.7170(6) -0.3390(10) -0.3126(3)
O3B O 0.7869(4) -0.2206(7) -0.3348(2)
Co1A Co 0.09686(8) 0.11970(13) 0.26306(4)
Co1C Co 0.90314(8) -0.11970(13) -0.26306(4)
O3A O 0.2869(4) 0.7206(7) 0.1652(2)
O3C O 0.7131(4) -0.7206(7) -0.1652(2)
loop_
_geom_bond_atom_site_label_1
_geom_bond_atom_site_label_2
_geom_bond_site_symmetry_1
_geom_bond_site_symmetry_2
Co1 O1 1_555 1_555
O1 C1 1_555 1_555
O2 Co1 1_555 1_555
N1 Co1 1_555 1_555
N2 Co1 1_555 1_555
C1 C2 1_555 1_555
C2 H1 1_555 1_555
C3 C2 1_555 1_555
H2 C3 1_555 1_555
C4 C3 1_555 1_555
C5 C4 1_555 1_555
H3 C5 1_555 1_555
C6 C5 1_555 1_555
H4 C6 1_555 1_555
C7 C6 1_555 1_555
H5 C7 1_555 1_555
C8 C7 1_555 1_555
H6 C8 1_555 1_555
C9 C4 1_555 1_555
C10 C1 1_555 1_555
C11 N1 1_555 1_555
H7 C11 1_555 1_555
C12 N1 1_555 1_555
H8 C12 1_555 1_555
H9 C12 1_555 1_555
C13 O2 1_555 1_555
C14 N2 1_555 1_555
H10 C14 1_555 1_555
C15 C14 1_555 1_555
H11 C15 1_555 1_555
C16 C15 1_555 1_555
C17 C16 1_555 1_555
H12 C17 1_555 1_555
C18 N2 1_555 1_555
H13 C18 1_555 1_555
C19 C16 1_555 1_555
H14 C19 1_555 1_555
O3 C13 1_555 1_555
N2B C14B 1_555 1_555
C14B H10B 1_555 1_555
C15B C14B 1_555 1_555
H11B C15B 1_555 1_555
C16B C15B 1_555 1_555
C17B C16B 1_555 1_555
H12B C17B 1_555 1_555
C18B N2B 1_555 1_555
H13B C18B 1_555 1_555
C19B C19 1_555 1_555
H14B C19B 1_555 1_555
Co1B N2B 1_555 1_555
O1B Co1B 1_555 1_555
O2B Co1B 1_555 1_555
N1B Co1B 1_555 1_555
C1B O1B 1_555 1_555
C2B C1B 1_555 1_555
H1B C2B 1_555 1_555
C3B C2B 1_555 1_555
H2B C3B 1_555 1_555
C4B C3B 1_555 1_555
C5B C4B 1_555 1_555
H3B C5B 1_555 1_555
C6B C5B 1_555 1_555
H4B C6B 1_555 1_555
C7B C6B 1_555 1_555
H5B C7B 1_555 1_555
C8B C7B 1_555 1_555
H6B C8B 1_555 1_555
C9B C4B 1_555 1_555
C10B C1B 1_555 1_555
C11B N1B 1_555 1_555
H7B C11B 1_555 1_555
C12B N1B 1_555 1_555
H8B C12B 1_555 1_555
H9B C12B 1_555 1_555
C13B O2B 1_555 1_555
O3B C13B 1_555 1_555
Co1A O3 1_555 1_555
Co1C O3B 1_555 1_555
O3A Co1 1_555 1_555
O3C Co1B 1_555 1_555
C8 C9 1_555 1_555
C9 C10 1_555 1_555
C10 C11 1_555 1_555
C12 C13 1_555 1_555
C17 C18 1_555 1_555
C16B C19B 1_555 1_555
C17B C18B 1_555 1_555
C8B C9B 1_555 1_555
C9B C10B 1_555 1_555
C10B C11B 1_555 1_555
C12B C13B 1_555 1_555

#END
