
#######################################################################
#
#                 Cambridge Crystallographic Data Centre
#                                CCDC 
#
#######################################################################
#
# If this CIF has been generated from an entry in the Cambridge 
# Structural Database, then it will include bibliographic, chemical, 
# crystal, experimental, refinement or atomic coordinate data resulting 
# from the CCDC's data processing and validation procedures.
#
#######################################################################

data_FOKWOT
_symmetry_cell_setting           monoclinic
_symmetry_space_group_name_H-M   'P 21/c'
_symmetry_Int_Tables_number      14
_space_group_name_Hall           '-P 2ybc'
loop_
_symmetry_equiv_pos_site_id
_symmetry_equiv_pos_as_xyz
1 x,y,z
2 -x,1/2+y,1/2-z
3 -x,-y,-z
4 x,1/2-y,1/2+z
_cell_length_a                   8.5614(11)
_cell_length_b                   30.757(2)
_cell_length_c                   9.1898(11)
_cell_angle_alpha                90
_cell_angle_beta                 116.346(16)
_cell_angle_gamma                90
_cell_volume                     2168.53
loop_
_atom_site_label
_atom_site_type_symbol
_atom_site_fract_x
_atom_site_fract_y
_atom_site_fract_z
Cd1 Cd 1.06560(6) 0.958654(13) 0.66012(5)
Cd2 Cd 1.0000 1.0000 1.0000
C1 C 0.2468(8) 0.62216(19) 0.3932(8)
C2 C 0.2592(8) 0.66964(18) 0.4304(8)
C3 C 0.4079(8) 0.68627(19) 0.5585(8)
H1 H 0.5023 0.6684 0.6184
C4 C 0.4118(8) 0.7298(2) 0.5943(7)
C5 C 0.2720(8) 0.75649(19) 0.5124(7)
H2 H 0.2738 0.7854 0.5423
C6 C 0.1278(8) 0.73903(18) 0.3839(7)
C7 C 0.1212(8) 0.69629(19) 0.3388(8)
H3 H 0.0256 0.6856 0.2484
C8 C 0.8048(8) 0.9174(2) 0.7608(8)
C9 C 0.7304(8) 0.8727(2) 0.7464(7)
C10 C 0.7484(9) 0.85044(19) 0.8830(8)
H4 H 0.8002 0.8641 0.9836
C11 C 0.6901(8) 0.80763(19) 0.8726(7)
H5 H 0.7038 0.7927 0.9655
C12 C 0.6129(8) 0.78810(18) 0.7248(8)
C13 C 0.5943(9) 0.8097(2) 0.5847(8)
H6 H 0.5435 0.7959 0.4844
C14 C 0.6521(8) 0.8517(2) 0.5972(7)
H7 H 0.6388 0.8665 0.5040
C15 C 0.0455(8) 0.94598(19) 0.3127(7)
C16 C 0.0328(8) 0.89787(18) 0.3113(7)
C17 C 0.1310(8) 0.8729(2) 0.2583(8)
H8 H 0.2076 0.8864 0.2259
C18 C 0.1172(9) 0.8279(2) 0.2526(8)
H9 H 0.1835 0.8111 0.2168
C19 C 0.0011(8) 0.80859(19) 0.3022(8)
C20 C -0.1002(9) 0.8327(2) 0.3516(8)
H10 H -0.1793 0.8193 0.3811
C21 C -0.0831(9) 0.8780(2) 0.3572(8)
H11 H -0.1502 0.8949 0.3920
O1 O 0.3423(7) 0.59668(14) 0.5106(6)
O2 O 0.1404(6) 0.60963(14) 0.2572(6)
O3 O 0.5628(6) 0.74520(13) 0.7230(5)
O4 O -0.0189(6) 0.76416(13) 0.2952(6)
O5 O 0.8652(6) 0.93504(14) 0.8984(5)
O6 O 0.8059(6) 0.93459(14) 0.6367(5)
O7 O 0.1232(6) 0.96370(13) 0.2403(5)
O8 O -0.0262(6) 0.96754(13) 0.3853(5)
O9 O 1.2145(5) 0.97936(14) 0.9350(5)
H12 H 1.2837 1.0003 0.9467
H13 H 1.2722 0.9582 0.9937
O10 O 1.3366(6) 0.95974(17) 0.6639(6)
H14 H 1.4072 0.9524 0.7599
H15 H 1.3699 0.9840 0.6434
Cd1B Cd -0.06560(6) 1.041346(13) 0.33988(5)
C1B C 0.7532(8) 1.37784(19) 0.6068(8)
C2B C 0.7408(8) 1.33036(18) 0.5696(8)
C3B C 0.5921(8) 1.31373(19) 0.4415(8)
H1B H 0.4977 1.3316 0.3816
C4B C 0.5882(8) 1.2702(2) 0.4057(7)
C5B C 0.7280(8) 1.24351(19) 0.4876(7)
H2B H 0.7262 1.2146 0.4577
C6B C 0.8722(8) 1.26097(18) 0.6161(7)
C7B C 0.8788(8) 1.30371(19) 0.6612(8)
H3B H 0.9744 1.3144 0.7516
C8B C 0.1952(8) 1.0826(2) 0.2392(8)
C9B C 0.2696(8) 1.1273(2) 0.2536(7)
C10B C 0.2516(9) 1.14956(19) 0.1170(8)
H4B H 0.1998 1.1359 0.0164
C11B C 0.3099(8) 1.19237(19) 0.1274(7)
H5B H 0.2962 1.2073 0.0345
C12B C 0.3871(8) 1.21190(18) 0.2752(8)
C13B C 0.4057(9) 1.1903(2) 0.4153(8)
H6B H 0.4565 1.2041 0.5156
C14B C 0.3479(8) 1.1483(2) 0.4028(7)
H7B H 0.3612 1.1335 0.4960
C15B C 0.9545(8) 1.05402(19) 0.6873(7)
C16B C 0.9672(8) 1.10213(18) 0.6887(7)
C17B C 0.8690(8) 1.1271(2) 0.7417(8)
H8B H 0.7924 1.1136 0.7741
C18B C 0.8828(9) 1.1721(2) 0.7474(8)
H9B H 0.8165 1.1889 0.7832
C19B C 0.9989(8) 1.19141(19) 0.6978(8)
C20B C 1.1002(9) 1.1673(2) 0.6484(8)
H10B H 1.1793 1.1807 0.6189
C21B C 1.0831(9) 1.1220(2) 0.6428(8)
H11B H 1.1502 1.1051 0.6080
O1B O 0.6577(7) 1.40332(14) 0.4894(6)
O2B O 0.8596(6) 1.39037(14) 0.7428(6)
O3B O 0.4372(6) 1.25480(13) 0.2770(5)
O4B O 1.0189(6) 1.23584(13) 0.7048(6)
O5B O 0.1348(6) 1.06496(14) 0.1016(5)
O6B O 0.1941(6) 1.06541(14) 0.3633(5)
O7B O 0.8768(6) 1.03630(13) 0.7597(5)
O8B O 1.0262(6) 1.03246(13) 0.6147(5)
O9B O -0.2145(5) 1.02064(14) 0.0650(5)
H12B H -0.2837 0.9997 0.0533
H13B H -0.2722 1.0418 0.0063
O10B O -0.3366(6) 1.04026(17) 0.3361(6)
H14B H -0.4072 1.0476 0.2401
H15B H -0.3699 1.0160 0.3566
Cd1_2 Cd 0.06560(6) 0.958654(13) 0.66012(5)
Cd1A Cd 0.93440(6) 1.458654(13) 0.83988(5)
Cd1B_2 Cd 0.93440(6) 1.041346(13) 0.33988(5)
Cd1C Cd 0.06560(6) 0.541346(13) 0.16012(5)
Cd2_2 Cd 0.0000 1.0000 0.0000
O2A O -0.1404(6) 1.10963(14) 0.2428(6)
O2C O 1.1404(6) 0.89037(14) 0.7572(6)
O5B_2 O 1.1348(6) 1.06496(14) 1.1016(5)
O7_2 O 1.1232(6) 0.96370(13) 1.2403(5)
O8_2 O 0.9738(6) 0.96754(13) 0.3853(5)
O8B_2 O 0.0262(6) 1.03246(13) 0.6147(5)
O9B_2 O 0.7855(5) 1.02064(14) 1.0650(5)
O11 O 0.6096(8) 0.55345(18) 0.5005(9)
O12 O 0.5169(9) 0.9627(2) 0.3556(9)
loop_
_geom_bond_atom_site_label_1
_geom_bond_atom_site_label_2
_geom_bond_site_symmetry_1
_geom_bond_site_symmetry_2
Cd1 O6 1_555 1_555
Cd2 O5 1_555 1_555
C1 C2 1_555 1_555
C2 C3 1_555 1_555
C3 H1 1_555 1_555
C4 C3 1_555 1_555
C5 C4 1_555 1_555
H2 C5 1_555 1_555
C6 C5 1_555 1_555
C7 C2 1_555 1_555
H3 C7 1_555 1_555
C8 C9 1_555 1_555
C9 C10 1_555 1_555
C10 H4 1_555 1_555
C11 C10 1_555 1_555
H5 C11 1_555 1_555
C12 C11 1_555 1_555
C13 C12 1_555 1_555
H6 C13 1_555 1_555
C14 C9 1_555 1_555
H7 C14 1_555 1_555
C15 C16 1_555 1_555
C16 C17 1_555 1_555
C17 H8 1_555 1_555
C18 C17 1_555 1_555
H9 C18 1_555 1_555
C19 C18 1_555 1_555
C20 C19 1_555 1_555
H10 C20 1_555 1_555
C21 C16 1_555 1_555
H11 C21 1_555 1_555
O1 C1 1_555 1_555
O2 C1 1_555 1_555
O3 C4 1_555 1_555
O4 C6 1_555 1_555
O5 C8 1_555 1_555
O6 C8 1_555 1_555
O7 C15 1_555 1_555
O8 C15 1_555 1_555
O9 Cd1 1_555 1_555
H12 O9 1_555 1_555
H13 O9 1_555 1_555
O10 Cd1 1_555 1_555
H14 O10 1_555 1_555
H15 O10 1_555 1_555
Cd1B O8 1_555 1_555
C1B C2B 1_555 1_555
C2B C3B 1_555 1_555
C3B H1B 1_555 1_555
C4B C3B 1_555 1_555
C5B C4B 1_555 1_555
H2B C5B 1_555 1_555
C6B C5B 1_555 1_555
C7B C2B 1_555 1_555
H3B C7B 1_555 1_555
C8B C9B 1_555 1_555
C9B C10B 1_555 1_555
C10B H4B 1_555 1_555
C11B C10B 1_555 1_555
H5B C11B 1_555 1_555
C12B C11B 1_555 1_555
C13B C12B 1_555 1_555
H6B C13B 1_555 1_555
C14B C9B 1_555 1_555
H7B C14B 1_555 1_555
C15B C16B 1_555 1_555
C16B C17B 1_555 1_555
C17B H8B 1_555 1_555
C18B C17B 1_555 1_555
H9B C18B 1_555 1_555
C19B C18B 1_555 1_555
C20B C19B 1_555 1_555
H10B C20B 1_555 1_555
C21B C16B 1_555 1_555
H11B C21B 1_555 1_555
O1B C1B 1_555 1_555
O2B C1B 1_555 1_555
O3B C4B 1_555 1_555
O4B C6B 1_555 1_555
O5B C8B 1_555 1_555
O6B Cd1B 1_555 1_555
O7B Cd2 1_555 1_555
O8B Cd1 1_555 1_555
O9B Cd1B 1_555 1_555
H12B O9B 1_555 1_555
H13B O9B 1_555 1_555
O10B Cd1B 1_555 1_555
H14B O10B 1_555 1_555
H15B O10B 1_555 1_555
Cd1_2 O8 1_555 1_555
Cd1A O2B 1_555 1_555
Cd1B_2 O8B 1_555 1_555
Cd1C O2 1_555 1_555
Cd2_2 O7 1_555 1_555
O2A Cd1B 1_555 1_555
O2C Cd1 1_555 1_555
O5B_2 Cd2 1_555 1_555
O7_2 Cd2 1_555 1_555
O8_2 Cd1 1_555 1_555
O8B_2 Cd1B 1_555 1_555
O9B_2 Cd2 1_555 1_555
Cd2 O9 1_555 1_555
C6 C7 1_555 1_555
C12 O3 1_555 1_555
C13 C14 1_555 1_555
C19 O4 1_555 1_555
C20 C21 1_555 1_555
C6B C7B 1_555 1_555
C8B O6B 1_555 1_555
C12B O3B 1_555 1_555
C13B C14B 1_555 1_555
C15B O7B 1_555 1_555
C15B O8B 1_555 1_555
C19B O4B 1_555 1_555
C20B C21B 1_555 1_555
O5B Cd2_2 1_555 1_555
O9B Cd2_2 1_555 1_555
Cd1_2 O8B_2 1_555 1_555
Cd1B_2 O8_2 1_555 1_555

#END
