
#######################################################################
#
#                 Cambridge Crystallographic Data Centre
#                                CCDC 
#
#######################################################################
#
# If this CIF has been generated from an entry in the Cambridge 
# Structural Database, then it will include bibliographic, chemical, 
# crystal, experimental, refinement or atomic coordinate data resulting 
# from the CCDC's data processing and validation procedures.
#
#######################################################################

data_FOKWAF
_symmetry_cell_setting           monoclinic
_symmetry_space_group_name_H-M   'P 21'
_symmetry_Int_Tables_number      4
_space_group_name_Hall           'P 2yb'
loop_
_symmetry_equiv_pos_site_id
_symmetry_equiv_pos_as_xyz
1 x,y,z
2 -x,1/2+y,-z
_cell_length_a                   11.575(2)
_cell_length_b                   7.1320(10)
_cell_length_c                   17.297(3)
_cell_angle_alpha                90
_cell_angle_beta                 91.110(10)
_cell_angle_gamma                90
_cell_volume                     1427.65
loop_
_atom_site_label
_atom_site_type_symbol
_atom_site_fract_x
_atom_site_fract_y
_atom_site_fract_z
Cu1 Cu 0.69706(8) -0.01089(14) -0.18670(6)
Cu2 Cu 1.26839(8) 0.01382(15) 0.23091(6)
Gd1 Gd 0.75113(3) -0.11160(7) 0.15596(2)
N1 N 0.6301(5) 0.0898(10) -0.2810(4)
N2 N 0.5465(5) 0.0184(10) -0.1507(4)
N3 N 1.1700(5) 0.0356(10) 0.3194(4)
N4 N 1.1320(5) -0.0697(10) 0.1811(4)
O1 O 0.8462(4) -0.0451(8) -0.2257(3)
O2 O 0.7347(4) -0.0798(11) -0.0787(3)
O3 O 0.6523(4) -0.1063(14) 0.0363(3)
O4 O 0.3658(5) 0.1353(8) -0.1741(3)
O5 O 1.4030(5) 0.1004(9) 0.2812(4)
O6 O 1.3369(4) -0.0350(8) 0.1287(3)
O7 O 1.2907(4) -0.1215(14) 0.0098(3)
O8 O 0.9407(4) -0.1370(11) 0.1938(3)
C1 C 0.8790(7) -0.0032(12) -0.2963(5)
C2 C 0.9965(7) -0.0335(12) -0.3145(5)
H1 H 1.0486 -0.0763 -0.2769
C3 C 1.0330(8) 0.0015(14) -0.3893(7)
H2 H 1.1102 -0.0184 -0.4008
C4 C 0.9606(9) 0.0634(16) -0.4459(6)
H3 H 0.9874 0.0821 -0.4957
C5 C 0.8464(8) 0.0985(14) -0.4294(5)
H4 H 0.7971 0.1444 -0.4680
C6 C 0.8037(7) 0.0664(12) -0.3559(5)
C7 C 0.6827(7) 0.1055(11) -0.3451(5)
H5 H 0.6396 0.1452 -0.3880
C8 C 0.5082(6) 0.1362(12) -0.2743(5)
H6 H 0.4630 0.0631 -0.3112
H7 H 0.4964 0.2680 -0.2859
C9 C 0.4693(7) 0.0953(11) -0.1942(4)
C10 C 0.5318(6) -0.0230(13) -0.0687(4)
H8 H 0.4777 -0.1256 -0.0626
H9 H 0.5019 0.0861 -0.0422
C11 C 0.6492(6) -0.0763(13) -0.0353(5)
C12 C 1.4104(7) 0.1547(12) 0.3539(6)
C13 C 1.5169(8) 0.2256(13) 0.3821(6)
H10 H 1.5796 0.2277 0.3493
C14 C 1.5316(9) 0.2918(13) 0.4564(6)
H11 H 1.6033 0.3378 0.4726
C15 C 1.4414(9) 0.2905(13) 0.5068(6)
H12 H 1.4516 0.3334 0.5573
C16 C 1.3358(8) 0.2246(12) 0.4812(5)
H13 H 1.2737 0.2251 0.5145
C17 C 1.3206(8) 0.1565(12) 0.4053(5)
C18 C 1.2018(7) 0.0970(12) 0.3849(5)
H14 H 1.1464 0.1053 0.4229
C19 C 1.0506(6) -0.0213(12) 0.3035(4)
H15 H 0.9988 0.0821 0.3139
H16 H 1.0303 -0.1254 0.3367
C20 C 1.0385(6) -0.0790(14) 0.2199(4)
C21 C 1.1397(5) -0.1151(19) 0.1012(4)
H17 H 1.0889 -0.0342 0.0709
H18 H 1.1159 -0.2440 0.0927
C22 C 1.2644(6) -0.0888(15) 0.0764(5)
N5 N 0.7679(7) 0.0192(17) 0.3152(6)
O9 O 0.5687(4) 0.0541(8) 0.1670(3)
H19 H 0.5566 0.0781 0.2143
H20 H 0.5145 -0.0144 0.1488
O10 O 0.8387(6) -0.3566(10) 0.0807(4)
H21 H 0.8784 -0.4276 0.1103
H22 H 0.7860 -0.4199 0.0578
O11 O 0.8320(6) 0.1433(10) 0.0864(4)
H23 H 0.8620 0.2212 0.1181
H24 H 0.7791 0.1967 0.0598
O12 O 0.7803(6) 0.1333(10) 0.2595(4)
O13 O 0.7344(6) -0.1403(15) 0.2987(4)
O14 O 0.7914(6) 0.0644(14) 0.3821(4)
Gd1A Gd 0.24887(3) 0.38840(7) -0.15596(2)
O4A O 0.6342(5) -0.3647(8) 0.1741(3)
O15 O 0.9790(4) 0.8776(14) 0.9015(3)
H25 H 0.9655 0.8268 0.8578
H26 H 0.9295 0.8398 0.9337
loop_
_geom_bond_atom_site_label_1
_geom_bond_atom_site_label_2
_geom_bond_site_symmetry_1
_geom_bond_site_symmetry_2
Cu1 N1 1_555 1_555
Cu2 N3 1_555 1_555
Gd1 O3 1_555 1_555
N1 C7 1_555 1_555
N2 Cu1 1_555 1_555
N3 C18 1_555 1_555
N4 Cu2 1_555 1_555
O1 Cu1 1_555 1_555
O2 Cu1 1_555 1_555
O3 C11 1_555 1_555
O4 C9 1_555 1_555
O5 Cu2 1_555 1_555
O6 Cu2 1_555 1_555
O7 C22 1_555 1_555
O8 Gd1 1_555 1_555
C1 O1 1_555 1_555
C2 C1 1_555 1_555
H1 C2 1_555 1_555
C3 C2 1_555 1_555
H2 C3 1_555 1_555
C4 C3 1_555 1_555
H3 C4 1_555 1_555
C5 C4 1_555 1_555
H4 C5 1_555 1_555
C6 C1 1_555 1_555
C7 C6 1_555 1_555
H5 C7 1_555 1_555
C8 N1 1_555 1_555
H6 C8 1_555 1_555
H7 C8 1_555 1_555
C9 N2 1_555 1_555
C10 N2 1_555 1_555
H8 C10 1_555 1_555
H9 C10 1_555 1_555
C11 O2 1_555 1_555
C12 O5 1_555 1_555
C13 C12 1_555 1_555
H10 C13 1_555 1_555
C14 C13 1_555 1_555
H11 C14 1_555 1_555
C15 C14 1_555 1_555
H12 C15 1_555 1_555
C16 C15 1_555 1_555
H13 C16 1_555 1_555
C17 C12 1_555 1_555
C18 C17 1_555 1_555
H14 C18 1_555 1_555
C19 N3 1_555 1_555
H15 C19 1_555 1_555
H16 C19 1_555 1_555
C20 N4 1_555 1_555
C21 N4 1_555 1_555
H17 C21 1_555 1_555
H18 C21 1_555 1_555
C22 O6 1_555 1_555
N5 O12 1_555 1_555
O9 Gd1 1_555 1_555
H19 O9 1_555 1_555
H20 O9 1_555 1_555
O10 Gd1 1_555 1_555
H21 O10 1_555 1_555
H22 O10 1_555 1_555
O11 Gd1 1_555 1_555
H23 O11 1_555 1_555
H24 O11 1_555 1_555
O12 Gd1 1_555 1_555
O13 Gd1 1_555 1_555
O14 N5 1_555 1_555
O15 H25 1_555 1_555
H26 O15 1_555 1_555
Gd1A O4 1_555 1_555
O4A Gd1 1_555 1_555
O8 C20 1_555 1_555
C5 C6 1_555 1_555
C8 C9 1_555 1_555
C10 C11 1_555 1_555
C16 C17 1_555 1_555
C19 C20 1_555 1_555
C21 C22 1_555 1_555
N5 O13 1_555 1_555

#END
