
#######################################################################
#
#                 Cambridge Crystallographic Data Centre
#                                CCDC 
#
#######################################################################
#
# If this CIF has been generated from an entry in the Cambridge 
# Structural Database, then it will include bibliographic, chemical, 
# crystal, experimental, refinement or atomic coordinate data resulting 
# from the CCDC's data processing and validation procedures.
#
#######################################################################

data_FOKYAH
_symmetry_cell_setting           orthorhombic
_symmetry_space_group_name_H-M   'P b c a'
_symmetry_Int_Tables_number      61
_space_group_name_Hall           '-P 2ac 2ab'
loop_
_symmetry_equiv_pos_site_id
_symmetry_equiv_pos_as_xyz
1 x,y,z
2 1/2-x,-y,1/2+z
3 1/2+x,1/2-y,-z
4 -x,1/2+y,1/2-z
5 -x,-y,-z
6 1/2+x,y,1/2-z
7 1/2-x,1/2+y,z
8 x,1/2-y,1/2+z
_cell_length_a                   13.2815(17)
_cell_length_b                   18.287(2)
_cell_length_c                   19.155(2)
_cell_angle_alpha                90
_cell_angle_beta                 90
_cell_angle_gamma                90
_cell_volume                     4652.34
loop_
_atom_site_label
_atom_site_type_symbol
_atom_site_fract_x
_atom_site_fract_y
_atom_site_fract_z
Pr1 Pr 0.338206(14) 0.486470(12) 0.502225(9)
O1 O 0.4665(2) 0.44380(14) 0.42483(13)
O2 O 0.62852(19) 0.43414(14) 0.39789(14)
O3 O 0.59764(19) 0.09881(14) 0.05007(14)
O4 O 0.43300(19) 0.09565(14) 0.07689(14)
O5 O 0.2602(2) 0.36898(15) 0.47317(15)
O6 O 0.21293(19) 0.46161(15) 0.59323(14)
O7 O 0.1860(2) 0.56962(19) 0.47275(17)
O8 O 0.2414(3) 0.5074(2) 0.38526(18)
O9 O 0.1294(4) 0.5928(3) 0.3686(2)
N1 N 0.1202(4) 0.3203(3) 0.5176(3)
N2 N 0.1469(3) 0.4505(2) 0.6998(2)
N3 N 0.1840(3) 0.5572(3) 0.4078(2)
C1 C 0.5137(3) 0.36613(19) 0.33049(19)
C2 C 0.4209(3) 0.3270(2) 0.33071(19)
H1 H 0.3721 0.3376 0.3640
C3 C 0.4038(3) 0.2738(2) 0.2818(2)
H2 H 0.3438 0.2476 0.2831
C4 C 0.4761(3) 0.25800(19) 0.2292(2)
C5 C 0.5671(2) 0.30009(18) 0.22666(18)
C6 C 0.5837(3) 0.35314(19) 0.27878(18)
H3 H 0.6431 0.3800 0.2783
C7 C 0.5378(3) 0.41857(19) 0.38811(18)
C8 C 0.4623(3) 0.2016(2) 0.17982(19)
H4 H 0.4024 0.1753 0.1801
C9 C 0.6393(3) 0.28346(19) 0.17487(19)
H5 H 0.6971 0.3119 0.1714
C10 C 0.5353(2) 0.18445(19) 0.13117(18)
C11 C 0.6257(3) 0.22603(19) 0.12963(19)
H6 H 0.6760 0.2143 0.0978
C12 C 0.5208(3) 0.12114(19) 0.08198(19)
C13 C 0.2152(5) 0.3186(4) 0.5091(3)
C14 C 0.2715(4) 0.2556(3) 0.5409(3)
H7 H 0.3420 0.2603 0.5308
H8 H 0.2469 0.2105 0.5216
H9 H 0.2616 0.2555 0.5905
C15 C 0.0637(4) 0.3826(3) 0.4818(3)
H10 H 0.1107 0.4131 0.4572
H11 H 0.0289 0.4112 0.5162
H12 H 0.0158 0.3627 0.4493
C16 C 0.0624(5) 0.2673(3) 0.5575(3)
H13 H 0.1070 0.2313 0.5767
H14 H 0.0144 0.2439 0.5275
H15 H 0.0276 0.2918 0.5947
C17 C 0.1653(3) 0.4883(2) 0.6431(2)
C18 C 0.1271(5) 0.5663(3) 0.6411(3)
H16 H 0.1452 0.5884 0.5974
H17 H 0.1568 0.5936 0.6787
H18 H 0.0552 0.5665 0.6461
C19 C 0.0845(5) 0.4756(3) 0.7585(3)
H19 H 0.0622 0.5247 0.7498
H20 H 0.1234 0.4744 0.8007
H21 H 0.0271 0.4441 0.7633
C20 C 0.1869(5) 0.3760(3) 0.7073(3)
H22 H 0.2273 0.3641 0.6673
H23 H 0.1321 0.3420 0.7109
H24 H 0.2276 0.3732 0.7487
Pr1C Pr 0.661794(14) -0.013530(12) -0.002225(9)
Pr1D Pr 0.661794(14) 0.513530(12) 0.497775(9)
Pr1G Pr 0.338206(14) 0.013530(12) 0.002225(9)
O2D O 0.37148(19) 0.56586(14) 0.60211(14)
O3C O 0.40236(19) 0.59881(14) 0.44993(14)
O4G O 0.43300(19) 0.40435(14) 0.57689(14)
loop_
_geom_bond_atom_site_label_1
_geom_bond_atom_site_label_2
_geom_bond_site_symmetry_1
_geom_bond_site_symmetry_2
Pr1 O1 1_555 1_555
O1 C7 1_555 1_555
O2 C7 1_555 1_555
O3 C12 1_555 1_555
O4 C12 1_555 1_555
O5 Pr1 1_555 1_555
O6 Pr1 1_555 1_555
O7 Pr1 1_555 1_555
O8 Pr1 1_555 1_555
O9 N3 1_555 1_555
N1 C13 1_555 1_555
N2 C17 1_555 1_555
N3 O7 1_555 1_555
C1 C2 1_555 1_555
C2 H1 1_555 1_555
C3 C2 1_555 1_555
H2 C3 1_555 1_555
C4 C3 1_555 1_555
C5 C4 1_555 1_555
C6 C1 1_555 1_555
H3 C6 1_555 1_555
C7 C1 1_555 1_555
C8 C4 1_555 1_555
H4 C8 1_555 1_555
C9 C5 1_555 1_555
H5 C9 1_555 1_555
C10 C8 1_555 1_555
C11 C9 1_555 1_555
H6 C11 1_555 1_555
C12 C10 1_555 1_555
C13 O5 1_555 1_555
C14 C13 1_555 1_555
H7 C14 1_555 1_555
H8 C14 1_555 1_555
H9 C14 1_555 1_555
C15 N1 1_555 1_555
H10 C15 1_555 1_555
H11 C15 1_555 1_555
H12 C15 1_555 1_555
C16 N1 1_555 1_555
H13 C16 1_555 1_555
H14 C16 1_555 1_555
H15 C16 1_555 1_555
C17 O6 1_555 1_555
C18 C17 1_555 1_555
H16 C18 1_555 1_555
H17 C18 1_555 1_555
H18 C18 1_555 1_555
C19 N2 1_555 1_555
H19 C19 1_555 1_555
H20 C19 1_555 1_555
H21 C19 1_555 1_555
C20 N2 1_555 1_555
H22 C20 1_555 1_555
H23 C20 1_555 1_555
H24 C20 1_555 1_555
Pr1C O3 1_555 1_555
Pr1D O2 1_555 1_555
Pr1G O4 1_555 1_555
O2D Pr1 1_555 1_555
O3C Pr1 1_555 1_555
O4G Pr1 1_555 1_555
O8 N3 1_555 1_555
C5 C6 1_555 1_555
C10 C11 1_555 1_555

#END
