
#######################################################################
#
#                 Cambridge Crystallographic Data Centre
#                                CCDC 
#
#######################################################################
#
# If this CIF has been generated from an entry in the Cambridge 
# Structural Database, then it will include bibliographic, chemical, 
# crystal, experimental, refinement or atomic coordinate data resulting 
# from the CCDC's data processing and validation procedures.
#
#######################################################################

data_FOKYAH01
_symmetry_cell_setting           orthorhombic
_symmetry_space_group_name_H-M   'P b c a'
_symmetry_Int_Tables_number      61
_space_group_name_Hall           '-P 2ac 2ab'
loop_
_symmetry_equiv_pos_site_id
_symmetry_equiv_pos_as_xyz
1 x,y,z
2 1/2-x,-y,1/2+z
3 -x,1/2+y,1/2-z
4 1/2+x,1/2-y,-z
5 -x,-y,-z
6 1/2+x,y,1/2-z
7 x,1/2-y,1/2+z
8 1/2-x,1/2+y,z
_cell_length_a                   13.314(2)
_cell_length_b                   18.059(3)
_cell_length_c                   19.220(3)
_cell_angle_alpha                90
_cell_angle_beta                 90
_cell_angle_gamma                90
_cell_volume                     4621.21
loop_
_atom_site_label
_atom_site_type_symbol
_atom_site_fract_x
_atom_site_fract_y
_atom_site_fract_z
Pr1 Pr 0.838430(12) 0.009858(12) 0.502659(6)
O1 O 0.74639(19) -0.01296(13) 0.38735(13)
O2 O 1.11954(14) 0.42984(10) 0.90267(9)
C1 C 1.13102(18) 0.28120(13) 0.67777(12)
H1 H 1.1882 0.3106 0.6747
O3 O 0.95647(14) 0.44070(10) 0.92611(9)
O4 O 0.71649(15) 0.02959(11) 0.59328(10)
O5 O 1.09041(14) 0.09819(10) 0.54973(9)
C2 C 1.00574(18) 0.36071(14) 0.83449(13)
C3 C 1.11724(19) 0.22464(13) 0.63195(12)
H2 H 1.1670 0.2138 0.5995
C4 C 1.05864(18) 0.29567(13) 0.73024(12)
O6 O 0.75495(14) 0.12370(11) 0.47571(11)
O7 O 0.92747(14) 0.09148(10) 0.57731(10)
C5 C 0.95542(18) 0.19698(14) 0.68177(13)
H3 H 0.8962 0.1697 0.6817
C6 C 0.91463(19) 0.32044(14) 0.83478(13)
H4 H 0.8664 0.3298 0.8687
C7 C 1.01448(19) 0.11854(14) 0.58261(13)
C8 C 1.07620(19) 0.34885(14) 0.78296(13)
H5 H 1.1356 0.3760 0.7829
N1 N 0.6432(2) 0.04408(14) 0.69707(13)
C9 C 0.6713(2) 0.00185(16) 0.64410(17)
C10 C 1.0290(2) 0.41439(14) 0.89203(13)
O8 O 0.69312(15) -0.07629(12) 0.47458(12)
C11 C 0.7545(2) 0.24053(16) 0.5413(2)
H6 H 0.8255 0.2370 0.5333
H7 H 0.7415 0.2405 0.5904
H8 H 0.7294 0.2856 0.5212
C12 C 1.02748(19) 0.18195(14) 0.63322(12)
C13 C 0.5611(3) 0.1015(2) 0.4777(2)
H9 H 0.6125 0.0687 0.4613
H10 H 0.5204 0.1174 0.4393
H11 H 0.5199 0.0762 0.5111
N2 N 0.6907(2) -0.06407(16) 0.40955(14)
C14 C 0.6683(3) 0.12274(19) 0.6986(2)
H12 H 0.7093 0.1347 0.6591
H13 H 0.7045 0.1337 0.7406
H14 H 0.6077 0.1515 0.6972
C15 C 0.9690(2) 0.25301(13) 0.73208(14)
N3 N 0.6105(3) 0.1700(3) 0.51263(16)
C16 C 0.5831(3) 0.0175(2) 0.7554(2)
H15 H 0.5742 -0.0351 0.7515
H16 H 0.5187 0.0414 0.7549
H17 H 0.6169 0.0286 0.7983
O9 O 0.6376(2) -0.0998(2) 0.37071(15)
C17 C 0.89752(19) 0.26760(15) 0.78496(13)
H18 H 0.8379 0.2408 0.7859
C18 C 0.7028(3) 0.1756(3) 0.50833(17)
C19 C 0.6486(2) -0.07908(18) 0.64627(18)
H19 H 0.6721 -0.1020 0.6043
H20 H 0.5774 -0.0862 0.6504
H21 H 0.6817 -0.1010 0.6856
C20 C 0.5437(3) 0.2243(2) 0.5459(2)
H22 H 0.5832 0.2621 0.5678
H23 H 0.5032 0.1999 0.5803
H24 H 0.5010 0.2463 0.5114
Pr1B Pr 1.161570(12) 0.509858(12) 0.997341(6)
Pr1D Pr 1.161570(12) -0.009858(12) 0.497341(6)
Pr1F Pr 0.838430(12) 0.490142(12) 1.002659(6)
O2B O 0.88046(14) -0.07016(10) 0.59733(9)
O3F O 0.95647(14) 0.05930(10) 0.42611(9)
O5D O 0.90959(14) -0.09819(10) 0.45027(9)
loop_
_geom_bond_atom_site_label_1
_geom_bond_atom_site_label_2
_geom_bond_site_symmetry_1
_geom_bond_site_symmetry_2
Pr1 O1 1_555 1_555
O1 N2 1_555 1_555
O2 C10 1_555 1_555
C1 H1 1_555 1_555
O3 C10 1_555 1_555
O4 Pr1 1_555 1_555
O5 C7 1_555 1_555
C2 C6 1_555 1_555
C3 C1 1_555 1_555
H2 C3 1_555 1_555
C4 C1 1_555 1_555
O6 Pr1 1_555 1_555
O7 Pr1 1_555 1_555
C5 H3 1_555 1_555
C6 H4 1_555 1_555
C7 O7 1_555 1_555
C8 C2 1_555 1_555
H5 C8 1_555 1_555
N1 C9 1_555 1_555
C9 O4 1_555 1_555
C10 C2 1_555 1_555
O8 Pr1 1_555 1_555
C11 H6 1_555 1_555
H7 C11 1_555 1_555
H8 C11 1_555 1_555
C12 C3 1_555 1_555
C13 H9 1_555 1_555
H10 C13 1_555 1_555
H11 C13 1_555 1_555
N2 O8 1_555 1_555
C14 N1 1_555 1_555
H12 C14 1_555 1_555
H13 C14 1_555 1_555
H14 C14 1_555 1_555
C15 C4 1_555 1_555
N3 C13 1_555 1_555
C16 N1 1_555 1_555
H15 C16 1_555 1_555
H16 C16 1_555 1_555
H17 C16 1_555 1_555
O9 N2 1_555 1_555
C17 C6 1_555 1_555
H18 C17 1_555 1_555
C18 O6 1_555 1_555
C19 C9 1_555 1_555
H19 C19 1_555 1_555
H20 C19 1_555 1_555
H21 C19 1_555 1_555
C20 N3 1_555 1_555
H22 C20 1_555 1_555
H23 C20 1_555 1_555
H24 C20 1_555 1_555
Pr1B O2 1_555 1_555
Pr1D O5 1_555 1_555
Pr1F O3 1_555 1_555
O2B Pr1 1_555 1_555
O3F Pr1 1_555 1_555
O5D Pr1 1_555 1_555
C4 C8 1_555 1_555
C5 C12 1_555 1_555
C5 C15 1_555 1_555
C7 C12 1_555 1_555
C11 C18 1_555 1_555
C15 C17 1_555 1_555
N3 C18 1_555 1_555

#END
