
#######################################################################
#
#                 Cambridge Crystallographic Data Centre
#                                CCDC 
#
#######################################################################
#
# If this CIF has been generated from an entry in the Cambridge 
# Structural Database, then it will include bibliographic, chemical, 
# crystal, experimental, refinement or atomic coordinate data resulting 
# from the CCDC's data processing and validation procedures.
#
#######################################################################

data_FOKZOW
_symmetry_cell_setting           monoclinic
_symmetry_space_group_name_H-M   'C 2/c'
_symmetry_Int_Tables_number      15
_space_group_name_Hall           '-C 2yn'
loop_
_symmetry_equiv_pos_site_id
_symmetry_equiv_pos_as_xyz
1 x,y,z
2 -x,y,1/2-z
3 1/2+x,1/2+y,z
4 1/2-x,1/2+y,1/2-z
5 -x,-y,-z
6 x,-y,1/2+z
7 1/2-x,1/2-y,-z
8 1/2+x,1/2-y,1/2+z
_cell_length_a                   15.063(3)
_cell_length_b                   15.769(3)
_cell_length_c                   16.172(3)
_cell_angle_alpha                90
_cell_angle_beta                 109.54(3)
_cell_angle_gamma                90
_cell_volume                     3620.08
loop_
_atom_site_label
_atom_site_type_symbol
_atom_site_fract_x
_atom_site_fract_y
_atom_site_fract_z
Zn1 Zn 0.0000 0.546727(19) 0.2500
Zn2 Zn 0.143756(16) -0.128918(13) 0.561388(13)
Zn3 Zn -0.075026(14) 0.334860(12) 0.431531(12)
O1 O 0.09991(9) 0.48551(8) 0.34209(8)
O2 O 0.07003(11) 0.37879(9) 0.69555(8)
O3 O -0.02179(9) 0.42211(8) 0.36363(8)
O4 O 0.09412(11) -0.23256(9) 0.50808(10)
O5 O 0.12052(13) -0.00587(9) 0.54068(10)
O6 O -0.02390(9) 0.39679(8) 0.55709(8)
O7 O 0.14205(12) 0.12983(9) 0.18238(9)
O8 O 0.11284(11) 0.26818(9) 0.18887(8)
O9 O -0.19485(12) 0.40682(14) 0.39874(12)
C1 C 0.13230(13) 0.39559(11) 0.46650(11)
H1 H 0.1912 0.3842 0.4566
H2 H 0.1452 0.4354 0.5149
O10 O 0.11562(17) -0.05957(10) 0.41506(12)
O11 O 0.28449(13) -0.13499(13) 0.58189(14)
C2 C 0.11415(14) 0.31044(12) 0.58564(11)
H3 H 0.1787 0.3270 0.6171
H4 H 0.1061 0.2522 0.6011
C3 C 0.04723(13) 0.36745(11) 0.61308(11)
C4 C 0.12048(12) 0.18180(11) 0.31029(11)
C5 C 0.06390(12) 0.43577(10) 0.38487(11)
N1 N 0.09636(11) 0.31615(9) 0.49092(9)
C6 C 0.11483(15) 0.00265(12) 0.46158(13)
C7 C 0.11720(13) 0.10039(11) 0.34200(11)
H5 H 0.1185 0.0533 0.3078
C8 C 0.10969(12) 0.24260(10) 0.44464(11)
C9 C 0.11193(12) 0.09055(11) 0.42556(11)
C10 C 0.11729(12) 0.25224(11) 0.36112(11)
H6 H 0.1202 0.3064 0.3394
C11 C 0.12526(12) 0.19551(11) 0.22004(11)
C12 C 0.10776(13) 0.16063(11) 0.47654(11)
H7 H 0.1037 0.1528 0.5321
H8 H -0.210(3) 0.428(3) 0.353(3)
H9 H -0.232(4) 0.386(3) 0.404(3)
H10 H 0.314(3) -0.177(3) 0.610(3)
H11 H 0.314(4) -0.097(3) 0.591(3)
H12 H 0.093(2) -0.2342(19) 0.4682(19)
Zn2A Zn -0.143756(16) -0.128918(13) -0.061388(13)
Zn3A Zn 0.075026(14) 0.334860(12) 0.068469(12)
O1A O -0.09991(9) 0.48551(8) 0.15791(8)
O2A O -0.07003(11) 0.37879(9) -0.19555(8)
O3A O 0.02179(9) 0.42211(8) 0.13637(8)
O4A O -0.09412(11) -0.23256(9) -0.00808(10)
O5A O -0.12052(13) -0.00587(9) -0.04068(10)
O6A O 0.02390(9) 0.39679(8) -0.05709(8)
O7A O -0.14205(12) 0.12983(9) 0.31762(9)
O8A O -0.11284(11) 0.26818(9) 0.31113(8)
O9A O 0.19485(12) 0.40682(14) 0.10126(12)
C1A C -0.13230(13) 0.39559(11) 0.03350(11)
H1A H -0.1912 0.3842 0.0434
H2A H -0.1452 0.4354 -0.0149
O10A O -0.11562(17) -0.05957(10) 0.08494(12)
O11A O -0.28449(13) -0.13499(13) -0.08189(14)
C2A C -0.11415(14) 0.31044(12) -0.08564(11)
H3A H -0.1787 0.3270 -0.1171
H4A H -0.1061 0.2522 -0.1011
C3A C -0.04723(13) 0.36745(11) -0.11308(11)
C4A C -0.12048(12) 0.18180(11) 0.18971(11)
C5A C -0.06390(12) 0.43577(10) 0.11513(11)
N1A N -0.09636(11) 0.31615(9) 0.00908(9)
C6A C -0.11483(15) 0.00265(12) 0.03842(13)
C7A C -0.11720(13) 0.10039(11) 0.15800(11)
H5A H -0.1185 0.0533 0.1922
C8A C -0.10969(12) 0.24260(10) 0.05536(11)
C9A C -0.11193(12) 0.09055(11) 0.07444(11)
C10A C -0.11729(12) 0.25224(11) 0.13888(11)
H6A H -0.1202 0.3064 0.1606
C11A C -0.12526(12) 0.19551(11) 0.27996(11)
C12A C -0.10776(13) 0.16063(11) 0.02346(11)
H7A H -0.1037 0.1528 -0.0321
H8A H 0.210(3) 0.428(3) 0.147(3)
H9A H 0.232(4) 0.386(3) 0.096(3)
H10A H -0.314(3) -0.177(3) -0.110(3)
H11A H -0.314(4) -0.097(3) -0.091(3)
H12A H -0.093(2) -0.2342(19) 0.0318(19)
Zn1D Zn 0.0000 0.453273(19) -0.2500
Zn1D_2 Zn 0.0000 0.453273(19) 0.7500
Zn2D Zn -0.143756(16) 0.128918(13) 0.438612(13)
Zn2E Zn 0.143756(16) 0.128918(13) 0.061388(13)
Zn3D Zn 0.075026(14) -0.334860(12) 0.568469(12)
Zn3E Zn -0.075026(14) -0.334860(12) -0.068469(12)
O2D O -0.07003(11) 0.62121(9) 0.30445(8)
O2E O 0.07003(11) 0.62121(9) 0.19555(8)
O4D O -0.09412(11) 0.23256(9) 0.49192(10)
O4E O 0.09412(11) 0.23256(9) 0.00808(10)
O7D O -0.14205(12) -0.12983(9) -0.18238(9)
O7E O 0.14205(12) -0.12983(9) 0.68238(9)
O12 O 0.9181(2) 0.87604(16) 0.31432(16)
H13 H 0.975(3) 0.908(3) 0.329(3)
H14 H 0.860(3) 0.920(3) 0.299(3)
O13 O 0.3883(2) 0.73444(19) 0.67159(17)
H15 H 0.360(4) 0.689(4) 0.666(4)
H16 H 0.376(4) 0.723(4) 0.715(3)
O14 O 0.75262(14) 0.47999(15) 0.24036(14)
H17 H 0.743(4) 0.537(4) 0.242(4)
H18 H 0.790(4) 0.464(3) 0.210(3)
loop_
_geom_bond_atom_site_label_1
_geom_bond_atom_site_label_2
_geom_bond_site_symmetry_1
_geom_bond_site_symmetry_2
Zn1 O1 1_555 1_555
Zn2 O4 1_555 1_555
Zn3 O3 1_555 1_555
O1 C5 1_555 1_555
O2 C3 1_555 1_555
O3 C5 1_555 1_555
O4 H12 1_555 1_555
O5 Zn2 1_555 1_555
O6 Zn3 1_555 1_555
O7 C11 1_555 1_555
O8 C11 1_555 1_555
O9 Zn3 1_555 1_555
C1 H1 1_555 1_555
H2 C1 1_555 1_555
O10 Zn2 1_555 1_555
O11 Zn2 1_555 1_555
C2 H3 1_555 1_555
H4 C2 1_555 1_555
C3 O6 1_555 1_555
C4 C7 1_555 1_555
C5 C1 1_555 1_555
N1 Zn3 1_555 1_555
C6 O5 1_555 1_555
C7 H5 1_555 1_555
C8 N1 1_555 1_555
C9 C6 1_555 1_555
C10 C4 1_555 1_555
H6 C10 1_555 1_555
C11 C4 1_555 1_555
C12 C8 1_555 1_555
H7 C12 1_555 1_555
H8 O9 1_555 1_555
H9 O9 1_555 1_555
H10 O11 1_555 1_555
H11 O11 1_555 1_555
O12 H13 1_555 1_555
H14 O12 1_555 1_555
O13 H15 1_555 1_555
H16 O13 1_555 1_555
O14 H17 1_555 1_555
H18 O14 1_555 1_555
Zn2A O4A 1_555 1_555
Zn3A O8 1_555 1_555
O1A Zn1 1_555 1_555
O2A C3A 1_555 1_555
O3A Zn3A 1_555 1_555
O4A H12A 1_555 1_555
O5A Zn2A 1_555 1_555
O6A Zn3A 1_555 1_555
O7A C11A 1_555 1_555
O8A Zn3 1_555 1_555
O9A Zn3A 1_555 1_555
C1A H1A 1_555 1_555
H2A C1A 1_555 1_555
O10A Zn2A 1_555 1_555
O11A Zn2A 1_555 1_555
C2A H3A 1_555 1_555
H4A C2A 1_555 1_555
C3A O6A 1_555 1_555
C4A C7A 1_555 1_555
C5A O1A 1_555 1_555
N1A Zn3A 1_555 1_555
C6A O5A 1_555 1_555
C7A H5A 1_555 1_555
C8A N1A 1_555 1_555
C9A C6A 1_555 1_555
C10A C4A 1_555 1_555
H6A C10A 1_555 1_555
C11A O8A 1_555 1_555
C12A C8A 1_555 1_555
H7A C12A 1_555 1_555
H8A O9A 1_555 1_555
H9A O9A 1_555 1_555
H10A O11A 1_555 1_555
H11A O11A 1_555 1_555
Zn1D O2A 1_555 1_555
Zn1D_2 O2 1_555 1_555
Zn2D O7A 1_555 1_555
Zn2E O7 1_555 1_555
Zn3D O4 1_555 1_555
Zn3E O4A 1_555 1_555
O2D Zn1 1_555 1_555
O2E Zn1 1_555 1_555
O4D Zn3 1_555 1_555
O4E Zn3A 1_555 1_555
O7D Zn2A 1_555 1_555
O7E Zn2 1_555 1_555
C1 N1 1_555 1_555
O10 C6 1_555 1_555
C2 C3 1_555 1_555
C2 N1 1_555 1_555
C7 C9 1_555 1_555
C8 C10 1_555 1_555
C9 C12 1_555 1_555
O3A C5A 1_555 1_555
C1A C5A 1_555 1_555
C1A N1A 1_555 1_555
O10A C6A 1_555 1_555
C2A C3A 1_555 1_555
C2A N1A 1_555 1_555
C4A C11A 1_555 1_555
C7A C9A 1_555 1_555
C8A C10A 1_555 1_555
C9A C12A 1_555 1_555
Zn2D O4D 1_555 1_555
Zn2E O4E 1_555 1_555

#END
