
#######################################################################
#
#                 Cambridge Crystallographic Data Centre
#                                CCDC 
#
#######################################################################
#
# If this CIF has been generated from an entry in the Cambridge 
# Structural Database, then it will include bibliographic, chemical, 
# crystal, experimental, refinement or atomic coordinate data resulting 
# from the CCDC's data processing and validation procedures.
#
#######################################################################

data_FOLLEZ
_symmetry_cell_setting           orthorhombic
_symmetry_space_group_name_H-M   'P n a 21'
_symmetry_Int_Tables_number      33
_space_group_name_Hall           'P 2c -2n'
loop_
_symmetry_equiv_pos_site_id
_symmetry_equiv_pos_as_xyz
1 x,y,z
2 -x,-y,1/2+z
3 1/2+x,1/2-y,z
4 1/2-x,1/2+y,1/2+z
_cell_length_a                   17.6167(11)
_cell_length_b                   9.1946(6)
_cell_length_c                   10.7005(7)
_cell_angle_alpha                90
_cell_angle_beta                 90
_cell_angle_gamma                90
_cell_volume                     1733.25
loop_
_atom_site_label
_atom_site_type_symbol
_atom_site_fract_x
_atom_site_fract_y
_atom_site_fract_z
Cd1 Cd -0.49896(2) 0.78615(3) 0.23900(11)
Mg1 Mg -0.52901(9) 0.62670(18) 0.70723(16)
C1 C -0.3253(3) 0.5597(5) 0.4333(5)
O1 O -0.0695(2) 0.4476(4) 0.6222(4)
C2 C -0.1916(3) 0.4367(6) 0.5260(5)
O2 O -0.0656(2) 0.5153(4) 0.3422(4)
O3 O -0.1244(3) 0.2339(4) 0.6044(5)
C3 C -0.1237(3) 0.3669(6) 0.5860(5)
C4 C -0.3293(3) 0.4521(6) 0.5228(5)
O4 O -0.4355(2) 0.5137(4) 0.6403(4)
C5 C -0.2553(3) 0.6073(6) 0.3920(6)
H1 H -0.2533 0.6807 0.3323
C6 C -0.1875(3) 0.5486(6) 0.4373(5)
C7 C -0.2627(3) 0.3883(6) 0.5654(6)
H2 H -0.2656 0.3114 0.6217
C8 C -0.1150(3) 0.6033(5) 0.3799(5)
O5 O -0.6241(3) 0.7374(5) 0.7531(6)
O6 O -0.1084(2) 0.7384(4) 0.3628(4)
O7 O -0.4917(2) 0.8039(4) 0.6060(5)
H3 H -0.4503 0.7854 0.5747
C9 C -0.4035(3) 0.4125(6) 0.5861(5)
O8 O -0.4029(2) 0.7644(4) 0.3862(4)
C10 C -0.3954(3) 0.6291(6) 0.3767(5)
O9 O -0.4250(2) 0.2838(4) 0.5827(4)
O10 O -0.4436(2) 0.5511(4) 0.3192(4)
O11 O -0.5890(2) 0.5497(4) 0.5545(4)
H4 H -0.5617 0.4956 0.5133
N1 N -0.7168(4) 0.8727(7) 0.8319(8)
C11 C -0.7749(5) 0.7955(10) 0.7656(13)
H5 H -0.8235 0.8369 0.7850
H6 H -0.7743 0.6950 0.7899
H7 H -0.7659 0.8029 0.6773
C12 C -0.6457(4) 0.8334(7) 0.8186(8)
H8 H -0.6094 0.8845 0.8639
C13 C -0.7377(5) 0.9845(10) 0.9241(11)
H9 H -0.7916 1.0002 0.9214
H10 H -0.7119 1.0736 0.9048
H11 H -0.7234 0.9525 1.0061
O12 O -0.4711(3) 0.7196(4) 0.8559(4)
H12 H -0.4274 0.6889 0.8573
Cd1A Cd -0.50104(2) 0.21385(3) 0.73900(11)
Cd1B Cd 0.00104(2) 0.71385(3) 0.23900(11)
Cd1C Cd -0.00104(2) 0.28615(3) 0.73900(11)
Mg1A Mg -0.47099(9) 0.37330(18) 0.20723(16)
O1C O -0.4305(2) 0.9476(4) 0.1222(4)
O2B O -0.5656(2) 0.9847(4) 0.3422(4)
O3C O -0.3756(3) 0.7339(4) 0.1044(5)
O6B O -0.6084(2) 0.7616(4) 0.3628(4)
O9A O -0.5750(2) 0.7162(4) 0.0827(4)
O10A O -0.5564(2) 0.4489(4) 0.8192(4)
loop_
_geom_bond_atom_site_label_1
_geom_bond_atom_site_label_2
_geom_bond_site_symmetry_1
_geom_bond_site_symmetry_2
Cd1 O8 1_555 1_555
Mg1 O4 1_555 1_555
C1 C4 1_555 1_555
O1 C3 1_555 1_555
C2 C3 1_555 1_555
O2 C8 1_555 1_555
O3 C3 1_555 1_555
C4 C7 1_555 1_555
O4 C9 1_555 1_555
C5 C1 1_555 1_555
H1 C5 1_555 1_555
C6 C2 1_555 1_555
C7 C2 1_555 1_555
H2 C7 1_555 1_555
C8 C6 1_555 1_555
O5 Mg1 1_555 1_555
O6 C8 1_555 1_555
O7 Mg1 1_555 1_555
H3 O7 1_555 1_555
C9 C4 1_555 1_555
O8 C10 1_555 1_555
C10 C1 1_555 1_555
O9 C9 1_555 1_555
O10 Cd1 1_555 1_555
O11 Mg1 1_555 1_555
H4 O11 1_555 1_555
N1 C11 1_555 1_555
C11 H5 1_555 1_555
H6 C11 1_555 1_555
H7 C11 1_555 1_555
C12 O5 1_555 1_555
H8 C12 1_555 1_555
C13 N1 1_555 1_555
H9 C13 1_555 1_555
H10 C13 1_555 1_555
H11 C13 1_555 1_555
O12 Mg1 1_555 1_555
H12 O12 1_555 1_555
Cd1A O9 1_555 1_555
Cd1B O2 1_555 1_555
Cd1C O1 1_555 1_555
Mg1A O10 1_555 1_555
O1C Cd1 1_555 1_555
O2B Cd1 1_555 1_555
O3C Cd1 1_555 1_555
O6B Cd1 1_555 1_555
O9A Cd1 1_555 1_555
O10A Mg1 1_555 1_555
O3 Cd1C 1_555 1_555
C5 C6 1_555 1_555
O6 Cd1B 1_555 1_555
C10 O10 1_555 1_555
N1 C12 1_555 1_555
Cd1A O10A 1_555 1_555

#END
