
#######################################################################
#
#                 Cambridge Crystallographic Data Centre
#                                CCDC 
#
#######################################################################
#
# If this CIF has been generated from an entry in the Cambridge 
# Structural Database, then it will include bibliographic, chemical, 
# crystal, experimental, refinement or atomic coordinate data resulting 
# from the CCDC's data processing and validation procedures.
#
#######################################################################

data_FOLXEK
_symmetry_cell_setting           triclinic
_symmetry_space_group_name_H-M   'P -1'
_symmetry_Int_Tables_number      2
_space_group_name_Hall           '-P 1'
loop_
_symmetry_equiv_pos_site_id
_symmetry_equiv_pos_as_xyz
1 x,y,z
2 -x,-y,-z
_cell_length_a                   13.481(12)
_cell_length_b                   14.164(13)
_cell_length_c                   15.710(14)
_cell_angle_alpha                104.889(14)
_cell_angle_beta                 109.358(13)
_cell_angle_gamma                109.323(13)
_cell_volume                     2433.77
loop_
_atom_site_label
_atom_site_type_symbol
_atom_site_fract_x
_atom_site_fract_y
_atom_site_fract_z
Ag1 Ag -0.17632(4) -0.43243(4) -0.38095(3)
P1 P -0.18215(13) -0.57171(12) -0.51476(11)
P2 P 0.34040(14) -0.57827(13) -0.64726(11)
N1 N 0.0157(4) -0.3420(4) -0.2300(3)
N2 N 0.1456(5) -0.3285(4) -0.0773(3)
N3 N 0.1969(4) -0.1800(4) -0.1231(3)
N4 N -0.0315(4) -0.2487(4) -0.3590(3)
N5 N -0.1371(5) -0.5477(4) -0.2676(4)
N6 N 0.4092(5) -0.0713(5) 0.0406(4)
C1 C 0.0953(5) -0.2399(5) -0.2062(4)
C2 C 0.0464(5) -0.3825(5) -0.1625(4)
C3 C 0.2163(5) -0.2283(5) -0.0621(4)
C4 C 0.0708(5) -0.1900(5) -0.2770(4)
C5 C 0.1520(6) -0.0870(5) -0.2570(5)
H1 H 0.2214 -0.0475 -0.1977
C6 C 0.1293(6) -0.0439(6) -0.3252(5)
H2 H 0.1845 0.0238 -0.3145
C7 C 0.0247(6) -0.1018(5) -0.4091(5)
H3 H 0.0056 -0.0732 -0.4558
C8 C -0.0521(6) -0.2029(5) -0.4234(5)
H4 H -0.1229 -0.2423 -0.4816
C9 C -0.0347(6) -0.4966(5) -0.1848(5)
C10 C -0.0053(7) -0.5432(6) -0.1196(5)
H5 H 0.0649 -0.5044 -0.0609
C11 C -0.0826(8) -0.6483(7) -0.1438(7)
H6 H -0.0647 -0.6835 -0.1028
C12 C -0.1864(7) -0.7009(6) -0.2291(6)
H7 H -0.2399 -0.7725 -0.2467
C13 C -0.2111(6) -0.6485(6) -0.2878(5)
H8 H -0.2831 -0.6848 -0.3448
C14 C 0.3299(6) -0.1642(6) 0.0334(4)
C15 C 0.3481(6) -0.2014(6) 0.1044(5)
H9 H 0.2922 -0.2680 0.0952
C16 C 0.4509(7) -0.1389(8) 0.1911(5)
H10 H 0.4646 -0.1617 0.2425
C17 C 0.5334(6) -0.0431(6) 0.2018(5)
H11 H 0.6035 0.0008 0.2602
C18 C 0.5096(6) -0.0147(6) 0.1248(5)
H12 H 0.5671 0.0487 0.1307
C19 C -0.2562(5) -0.5825(5) -0.6381(4)
C20 C -0.2973(6) -0.6758(6) -0.7230(5)
H13 H -0.2869 -0.7357 -0.7162
C21 C -0.3522(7) -0.6810(7) -0.8154(5)
H14 H -0.3814 -0.7443 -0.8714
C22 C -0.3634(8) -0.5899(9) -0.8238(6)
H15 H -0.3976 -0.5912 -0.8864
C23 C -0.3251(8) -0.4969(7) -0.7415(7)
H16 H -0.3347 -0.4366 -0.7481
C24 C -0.2725(6) -0.4956(6) -0.6498(5)
H17 H -0.2471 -0.4337 -0.5939
C25 C -0.2557(5) -0.7093(5) -0.5251(4)
C26 C -0.3713(6) -0.7482(5) -0.5426(5)
H18 H -0.4100 -0.7058 -0.5536
C27 C -0.4308(7) -0.8485(7) -0.5442(5)
H19 H -0.5092 -0.8741 -0.5563
C28 C -0.3738(8) -0.9107(6) -0.5281(5)
H20 H -0.4132 -0.9786 -0.5283
C29 C -0.2581(8) -0.8731(6) -0.5114(6)
H21 H -0.2193 -0.9157 -0.5018
C30 C -0.2010(6) -0.7718(6) -0.5092(5)
H22 H -0.1223 -0.7455 -0.4963
C31 C 0.3392(5) -0.5402(5) -0.7488(4)
C32 C 0.4244(7) -0.4491(6) -0.7406(5)
H23 H 0.4915 -0.4039 -0.6801
C33 C 0.4134(8) -0.4223(7) -0.8203(7)
H24 H 0.4730 -0.3594 -0.8130
C34 C 0.3180(10) -0.4857(9) -0.9081(7)
H25 H 0.3115 -0.4673 -0.9618
C35 C 0.2302(8) -0.5778(8) -0.9186(6)
H26 H 0.1638 -0.6228 -0.9795
C36 C 0.2410(7) -0.6031(6) -0.8384(5)
H27 H 0.1801 -0.6646 -0.8452
C37 C 0.3354(5) -0.7104(5) -0.6899(5)
C38 C 0.3831(7) -0.7387(7) -0.7519(6)
H28 H 0.4240 -0.6863 -0.7694
C39 C 0.3705(10) -0.8442(9) -0.7884(7)
H29 H 0.4018 -0.8615 -0.8313
C40 C 0.3153(9) -0.9212(8) -0.7642(8)
H30 H 0.3075 -0.9916 -0.7904
C41 C 0.2696(9) -0.8968(7) -0.7004(8)
H31 H 0.2319 -0.9499 -0.6820
C42 C 0.2807(7) -0.7879(7) -0.6620(6)
H32 H 0.2505 -0.7704 -0.6182
C43 C -0.0371(5) -0.5556(5) -0.5017(5)
H33 H 0.0046 -0.5616 -0.4414
H34 H -0.0471 -0.6143 -0.5571
C44 C 0.4908(5) -0.4889(5) -0.5459(4)
H35 H 0.4935 -0.5871 -0.4705
H36 H 0.4531 -0.5003 -0.4319
Ag1A Ag 0.17632(4) -0.56757(4) -0.61905(3)
Ag1_2 Ag 0.82368(4) -0.43243(4) -0.38095(3)
P1A P 0.18215(13) -0.42829(12) -0.48524(11)
P2A P -0.34040(14) -0.42173(13) -0.35274(11)
P2A_2 P 0.65960(14) -0.42173(13) -0.35274(11)
N1A N -0.0157(4) -0.6580(4) -0.7700(3)
N2A N -0.1456(5) -0.6715(4) -0.9227(3)
N3A N -0.1969(4) -0.8200(4) -0.8769(3)
N4A N 0.0315(4) -0.7513(4) -0.6410(3)
N5A N 0.1371(5) -0.4523(4) -0.7324(4)
N6A N -0.4092(5) -0.9287(5) -1.0406(4)
C1A C -0.0953(5) -0.7601(5) -0.7938(4)
C2A C -0.0464(5) -0.6175(5) -0.8375(4)
C3A C -0.2163(5) -0.7717(5) -0.9379(4)
C4A C -0.0708(5) -0.8100(5) -0.7230(4)
C5A C -0.1520(6) -0.9130(5) -0.7430(5)
H1A H -0.2214 -0.9525 -0.8023
C6A C -0.1293(6) -0.9561(6) -0.6748(5)
H2A H -0.1845 -1.0238 -0.6855
C7A C -0.0247(6) -0.8982(5) -0.5909(5)
H3A H -0.0056 -0.9268 -0.5442
C8A C 0.0521(6) -0.7971(5) -0.5766(5)
H4A H 0.1229 -0.7577 -0.5184
C9A C 0.0347(6) -0.5034(5) -0.8152(5)
C10A C 0.0053(7) -0.4568(6) -0.8804(5)
H5A H -0.0649 -0.4956 -0.9391
C11A C 0.0826(8) -0.3517(7) -0.8562(7)
H6A H 0.0647 -0.3165 -0.8972
C12A C 0.1864(7) -0.2991(6) -0.7709(6)
H7A H 0.2399 -0.2275 -0.7533
C13A C 0.2111(6) -0.3515(6) -0.7122(5)
H8A H 0.2831 -0.3152 -0.6552
C14A C -0.3299(6) -0.8358(6) -1.0334(4)
C15A C -0.3481(6) -0.7986(6) -1.1044(5)
H9A H -0.2922 -0.7320 -1.0952
C16A C -0.4509(7) -0.8611(8) -1.1911(5)
H10A H -0.4646 -0.8383 -1.2425
C17A C -0.5334(6) -0.9569(6) -1.2018(5)
H11A H -0.6035 -1.0008 -1.2602
C18A C -0.5096(6) -0.9853(6) -1.1248(5)
H12A H -0.5671 -1.0487 -1.1307
C19A C 0.2562(5) -0.4175(5) -0.3619(4)
C20A C 0.2973(6) -0.3242(6) -0.2770(5)
H13A H 0.2869 -0.2643 -0.2838
C21A C 0.3522(7) -0.3190(7) -0.1846(5)
H14A H 0.3814 -0.2557 -0.1286
C22A C 0.3634(8) -0.4101(9) -0.1762(6)
H15A H 0.3976 -0.4088 -0.1136
C23A C 0.3251(8) -0.5031(7) -0.2585(7)
H16A H 0.3347 -0.5634 -0.2519
C24A C 0.2725(6) -0.5044(6) -0.3502(5)
H17A H 0.2471 -0.5663 -0.4061
C25A C 0.2557(5) -0.2907(5) -0.4749(4)
C26A C 0.3713(6) -0.2518(5) -0.4574(5)
H18A H 0.4100 -0.2942 -0.4464
C27A C 0.4308(7) -0.1515(7) -0.4558(5)
H19A H 0.5092 -0.1259 -0.4437
C28A C 0.3738(8) -0.0893(6) -0.4719(5)
H20A H 0.4132 -0.0214 -0.4717
C29A C 0.2581(8) -0.1269(6) -0.4886(6)
H21A H 0.2193 -0.0843 -0.4982
C30A C 0.2010(6) -0.2282(6) -0.4908(5)
H22A H 0.1223 -0.2545 -0.5037
C31A C 0.6608(5) -0.4598(5) -0.2512(4)
C32A C 0.5756(7) -0.5509(6) -0.2594(5)
H23A H 0.5085 -0.5961 -0.3199
C33A C 0.5866(8) -0.5777(7) -0.1797(7)
H24A H 0.5270 -0.6406 -0.1870
C34A C 0.6820(10) -0.5143(9) -0.0919(7)
H25A H 0.6885 -0.5327 -0.0382
C35A C 0.7698(8) -0.4222(8) -0.0814(6)
H26A H 0.8362 -0.3772 -0.0205
C36A C 0.7590(7) -0.3969(6) -0.1616(5)
H27A H 0.8199 -0.3354 -0.1548
C37A C 0.6646(5) -0.2896(5) -0.3101(5)
C38A C 0.6169(7) -0.2613(7) -0.2481(6)
H28A H 0.5760 -0.3137 -0.2306
C39A C 0.6295(10) -0.1558(9) -0.2116(7)
H29A H 0.5982 -0.1385 -0.1687
C40A C 0.6847(9) -0.0788(8) -0.2358(8)
H30A H 0.6925 -0.0084 -0.2096
C41A C 0.7304(9) -0.1032(7) -0.2996(8)
H31A H 0.7681 -0.0501 -0.3180
C42A C 0.7193(7) -0.2121(7) -0.3380(6)
H32A H 0.7495 -0.2296 -0.3818
C43A C 0.0371(5) -0.4444(5) -0.4983(5)
H33A H -0.0046 -0.4384 -0.5586
H34A H 0.0471 -0.3857 -0.4429
C44A C 0.5092(5) -0.5111(5) -0.4541(4)
H35A H 0.5065 -0.4129 -0.5295
H36A H 0.5469 -0.4997 -0.5681
F1 F -0.2074(5) -0.0872(4) -0.5195(5)
F2 F -0.3084(4) -0.2682(4) -0.5835(4)
F3 F -0.4040(7) -0.1735(6) -0.5809(6)
F4 F -0.3326(6) -0.1737(6) -0.6748(5)
B1 B -0.3018(11) -0.1759(9) -0.5878(9)
O1 O 0.1868(13) 0.2175(9) -0.1564(10)
C45 C 0.075(3) 0.2132(19) -0.2588(18)
H37 H 0.0113 0.2131 -0.2442
H38 H 0.0461 0.1478 -0.3161
H39 H 0.1072 0.2764 -0.2714
O2 O 0.0247(12) -0.1471(18) 0.0310(11)
O3? O 0.0180(17) -0.0368(12) -0.0246(17)
C46? C 0.3245(17) 0.2251(18) -0.0711(18)
H40? H 0.3225 0.2288 -0.0098
H41? H 0.3908 0.2895 -0.0587
H42? H 0.3319 0.1610 -0.1003
loop_
_geom_bond_atom_site_label_1
_geom_bond_atom_site_label_2
_geom_bond_site_symmetry_1
_geom_bond_site_symmetry_2
Ag1 P1 1_555 1_555
P1 C19 1_555 1_555
P2 C31 1_555 1_555
F1 B1 1_555 1_555
F2 B1 1_555 1_555
F3 B1 1_555 1_555
F4 B1 1_555 1_555
O1 C45 1_555 1_555
N1 Ag1 1_555 1_555
N2 C2 1_555 1_555
N3 C1 1_555 1_555
N4 Ag1 1_555 1_555
N5 C9 1_555 1_555
N6 C14 1_555 1_555
C1 N1 1_555 1_555
C2 N1 1_555 1_555
C3 N2 1_555 1_555
C4 N4 1_555 1_555
C5 C4 1_555 1_555
H1 C5 1_555 1_555
C6 C5 1_555 1_555
H2 C6 1_555 1_555
C7 C6 1_555 1_555
H3 C7 1_555 1_555
C8 N4 1_555 1_555
H4 C8 1_555 1_555
C9 C2 1_555 1_555
C10 C9 1_555 1_555
H5 C10 1_555 1_555
C11 C10 1_555 1_555
H6 C11 1_555 1_555
C12 C11 1_555 1_555
H7 C12 1_555 1_555
C13 N5 1_555 1_555
H8 C13 1_555 1_555
C14 C3 1_555 1_555
C15 C14 1_555 1_555
H9 C15 1_555 1_555
C16 C15 1_555 1_555
H10 C16 1_555 1_555
C17 C16 1_555 1_555
H11 C17 1_555 1_555
C18 N6 1_555 1_555
H12 C18 1_555 1_555
C19 C20 1_555 1_555
C20 H13 1_555 1_555
C21 C20 1_555 1_555
H14 C21 1_555 1_555
C22 C21 1_555 1_555
H15 C22 1_555 1_555
C23 C22 1_555 1_555
H16 C23 1_555 1_555
C24 C19 1_555 1_555
H17 C24 1_555 1_555
C25 P1 1_555 1_555
C26 C25 1_555 1_555
H18 C26 1_555 1_555
C27 C26 1_555 1_555
H19 C27 1_555 1_555
C28 C27 1_555 1_555
H20 C28 1_555 1_555
C29 C28 1_555 1_555
H21 C29 1_555 1_555
C30 C25 1_555 1_555
H22 C30 1_555 1_555
C31 C32 1_555 1_555
C32 H23 1_555 1_555
C33 C32 1_555 1_555
H24 C33 1_555 1_555
C34 C33 1_555 1_555
H25 C34 1_555 1_555
C35 C34 1_555 1_555
H26 C35 1_555 1_555
C36 C31 1_555 1_555
H27 C36 1_555 1_555
C37 P2 1_555 1_555
C38 C37 1_555 1_555
H28 C38 1_555 1_555
C39 C38 1_555 1_555
H29 C39 1_555 1_555
C40 C39 1_555 1_555
H30 C40 1_555 1_555
C41 C40 1_555 1_555
H31 C41 1_555 1_555
C42 C37 1_555 1_555
H32 C42 1_555 1_555
C43 P1 1_555 1_555
H33 C43 1_555 1_555
H34 C43 1_555 1_555
C44 P2 1_555 1_555
H35 C44A 1_555 1_555
H36 C44A 1_555 1_555
C45 H37 1_555 1_555
H38 C45 1_555 1_555
H39 C45 1_555 1_555
Ag1A P2 1_555 1_555
Ag1_2 P2A_2 1_555 1_555
P1A Ag1A 1_555 1_555
P2A Ag1 1_555 1_555
P2A_2 C31A 1_555 1_555
N1A Ag1A 1_555 1_555
N2A C2A 1_555 1_555
N3A C1A 1_555 1_555
N4A Ag1A 1_555 1_555
N5A C9A 1_555 1_555
N6A C14A 1_555 1_555
C1A N1A 1_555 1_555
C2A N1A 1_555 1_555
C3A N2A 1_555 1_555
C4A N4A 1_555 1_555
C5A C4A 1_555 1_555
H1A C5A 1_555 1_555
C6A C5A 1_555 1_555
H2A C6A 1_555 1_555
C7A C6A 1_555 1_555
H3A C7A 1_555 1_555
C8A N4A 1_555 1_555
H4A C8A 1_555 1_555
C9A C2A 1_555 1_555
C10A C9A 1_555 1_555
H5A C10A 1_555 1_555
C11A C10A 1_555 1_555
H6A C11A 1_555 1_555
C12A C11A 1_555 1_555
H7A C12A 1_555 1_555
C13A N5A 1_555 1_555
H8A C13A 1_555 1_555
C14A C3A 1_555 1_555
C15A C14A 1_555 1_555
H9A C15A 1_555 1_555
C16A C15A 1_555 1_555
H10A C16A 1_555 1_555
C17A C16A 1_555 1_555
H11A C17A 1_555 1_555
C18A N6A 1_555 1_555
H12A C18A 1_555 1_555
C19A P1A 1_555 1_555
C20A C19A 1_555 1_555
H13A C20A 1_555 1_555
C21A C20A 1_555 1_555
H14A C21A 1_555 1_555
C22A C21A 1_555 1_555
H15A C22A 1_555 1_555
C23A C22A 1_555 1_555
H16A C23A 1_555 1_555
C24A C19A 1_555 1_555
H17A C24A 1_555 1_555
C25A P1A 1_555 1_555
C26A C25A 1_555 1_555
H18A C26A 1_555 1_555
C27A C26A 1_555 1_555
H19A C27A 1_555 1_555
C28A C27A 1_555 1_555
H20A C28A 1_555 1_555
C29A C28A 1_555 1_555
H21A C29A 1_555 1_555
C30A C25A 1_555 1_555
H22A C30A 1_555 1_555
C31A C32A 1_555 1_555
C32A H23A 1_555 1_555
C33A C32A 1_555 1_555
H24A C33A 1_555 1_555
C34A C33A 1_555 1_555
H25A C34A 1_555 1_555
C35A C34A 1_555 1_555
H26A C35A 1_555 1_555
C36A C31A 1_555 1_555
H27A C36A 1_555 1_555
C37A P2A_2 1_555 1_555
C38A C37A 1_555 1_555
H28A C38A 1_555 1_555
C39A C38A 1_555 1_555
H29A C39A 1_555 1_555
C40A C39A 1_555 1_555
H30A C40A 1_555 1_555
C41A C40A 1_555 1_555
H31A C41A 1_555 1_555
C42A C37A 1_555 1_555
H32A C42A 1_555 1_555
C43A C43 1_555 1_555
H33A C43A 1_555 1_555
H34A C43A 1_555 1_555
C44A C44 1_555 1_555
H35A C44 1_555 1_555
H36A C44 1_555 1_555
N3 C3 1_555 1_555
C1 C4 1_555 1_555
C7 C8 1_555 1_555
C12 C13 1_555 1_555
C17 C18 1_555 1_555
C23 C24 1_555 1_555
C29 C30 1_555 1_555
C35 C36 1_555 1_555
C41 C42 1_555 1_555
P1A C43A 1_555 1_555
P2A_2 C44A 1_555 1_555
N3A C3A 1_555 1_555
C1A C4A 1_555 1_555
C7A C8A 1_555 1_555
C12A C13A 1_555 1_555
C17A C18A 1_555 1_555
C23A C24A 1_555 1_555
C29A C30A 1_555 1_555
C35A C36A 1_555 1_555
C41A C42A 1_555 1_555

#END
