
#######################################################################
#
#                 Cambridge Crystallographic Data Centre
#                                CCDC 
#
#######################################################################
#
# If this CIF has been generated from an entry in the Cambridge 
# Structural Database, then it will include bibliographic, chemical, 
# crystal, experimental, refinement or atomic coordinate data resulting 
# from the CCDC's data processing and validation procedures.
#
#######################################################################

data_FOLYUB
_symmetry_cell_setting           triclinic
_symmetry_space_group_name_H-M   'P -1'
_symmetry_Int_Tables_number      2
_space_group_name_Hall           '-P 1'
loop_
_symmetry_equiv_pos_site_id
_symmetry_equiv_pos_as_xyz
1 x,y,z
2 -x,-y,-z
_cell_length_a                   6.3151(8)
_cell_length_b                   9.3387(11)
_cell_length_c                   15.4601(19)
_cell_angle_alpha                93.623(2)
_cell_angle_beta                 100.471(2)
_cell_angle_gamma                108.196(2)
_cell_volume                     844.689
loop_
_atom_site_label
_atom_site_type_symbol
_atom_site_fract_x
_atom_site_fract_y
_atom_site_fract_z
Cu1 Cu 0.5000 1.0000 0.0000
Cu2 Cu 0.87185(8) 0.83154(5) 0.01952(3)
N1 N 0.9875(5) 0.6535(3) 0.0180(2)
O1 O 0.4424(5) 0.8837(4) -0.1168(2)
O2 O 0.7160(5) 0.7770(4) -0.1098(2)
O3 O 0.8198(4) 1.0286(3) 0.0253(2)
O4 O 0.8545(5) 0.8261(3) 0.1442(2)
O5 O 0.4816(5) 0.7710(4) 0.0959(2)
C1 C 0.2603(11) 0.7608(8) -0.2931(4)
H1 H 0.1881 0.8180 -0.2659
C2 C 0.1743(14) 0.6995(11) -0.3804(5)
H2 H 0.0473 0.7174 -0.4123
C3 C 0.2771(15) 0.6114(11) -0.4203(5)
H3 H 0.2178 0.5680 -0.4790
C4 C 0.4654(16) 0.5876(12) -0.3739(5)
H4 H 0.5350 0.5286 -0.4012
C5 C 0.5535(13) 0.6507(9) -0.2866(4)
H5 H 0.6821 0.6339 -0.2553
C6 C 0.4510(8) 0.7392(6) -0.2452(3)
C7 C 0.5450(7) 0.8052(4) -0.1498(3)
C8 C 0.6522(7) 0.8008(5) 0.1574(3)
C9 C 0.6318(9) 0.8115(6) 0.2524(3)
C10 C 0.4332(12) 0.8056(11) 0.2759(4)
H6 H 0.3034 0.7926 0.2324
C11 C 0.4236(16) 0.8191(16) 0.3652(5)
H7 H 0.2850 0.8110 0.3805
C12 C 0.6087(16) 0.8434(14) 0.4296(5)
H8 H 0.6003 0.8555 0.4889
C13 C 0.8071(16) 0.8500(14) 0.4070(5)
H9 H 0.9366 0.8649 0.4509
C14 C 0.8193(12) 0.8346(10) 0.3189(4)
H10 H 0.9580 0.8402 0.3043
C15 C 0.8743(8) 0.5254(4) 0.0642(3)
C16 C 1.0028(8) 0.5899(5) -0.0701(3)
H11 H 0.871(9) 0.558(6) 0.119(3)
H12 H 0.732(11) 0.487(7) 0.033(4)
H13 H 1.063(9) 0.666(6) -0.102(3)
H14 H 0.842(9) 0.532(6) -0.108(3)
H15 H 1.128(9) 0.687(5) 0.048(3)
H16 H 0.858(8) 1.051(5) 0.072(3)
Cu2A Cu 0.12815(8) 1.16846(5) -0.01952(3)
Cu2A_2 Cu 1.12815(8) 1.16846(5) -0.01952(3)
Cu2A_3 Cu 1.12815(8) 0.16846(5) -0.01952(3)
Cu2_2 Cu -0.12815(8) 0.83154(5) 0.01952(3)
N1A N 1.0125(5) 0.3465(3) -0.0180(2)
N1A_2 N 0.0125(5) 1.3465(3) -0.0180(2)
O1A O 0.5576(5) 1.1163(4) 0.1168(2)
O2A O 0.2840(5) 1.2230(4) 0.1098(2)
O3A O 0.1802(4) 0.9714(3) -0.0253(2)
O3A_2 O 1.1802(4) 0.9714(3) -0.0253(2)
O3_2 O -0.1802(4) 1.0286(3) 0.0253(2)
O4A O 0.1455(5) 1.1739(3) -0.1442(2)
O5A O 0.5184(5) 1.2290(4) -0.0959(2)
C1A C 0.7397(11) 1.2392(8) 0.2931(4)
H1A H 0.8119 1.1820 0.2659
C2A C 0.8257(14) 1.3005(11) 0.3804(5)
H2A H 0.9527 1.2826 0.4123
C3A C 0.7229(15) 1.3886(11) 0.4203(5)
H3A H 0.7822 1.4320 0.4790
C4A C 0.5346(16) 1.4124(12) 0.3739(5)
H4A H 0.4650 1.4714 0.4012
C5A C 0.4465(13) 1.3493(9) 0.2866(4)
H5A H 0.3179 1.3661 0.2553
C6A C 0.5490(8) 1.2608(6) 0.2452(3)
C7A C 0.4550(7) 1.1948(4) 0.1498(3)
C8A C 0.3478(7) 1.1992(5) -0.1574(3)
C9A C 0.3682(9) 1.1885(6) -0.2524(3)
C10A C 0.5668(12) 1.1944(11) -0.2759(4)
H6A H 0.6966 1.2074 -0.2324
C11A C 0.5764(16) 1.1809(16) -0.3652(5)
H7A H 0.7150 1.1890 -0.3805
C12A C 0.3913(16) 1.1566(14) -0.4296(5)
H8A H 0.3997 1.1445 -0.4889
C13A C 0.1929(16) 1.1500(14) -0.4070(5)
H9A H 0.0634 1.1351 -0.4509
C14A C 0.1807(12) 1.1654(10) -0.3189(4)
H10A H 0.0420 1.1598 -0.3043
C15A C 1.1257(8) 0.4746(4) -0.0642(3)
C16A C 0.9972(8) 0.4101(5) 0.0701(3)
H11A H 1.129(9) 0.442(6) -0.119(3)
H12A H 1.268(11) 0.513(7) -0.033(4)
H13A H 0.937(9) 0.334(6) 0.102(3)
H14A H 1.158(9) 0.468(6) 0.108(3)
H15A H 0.872(9) 0.313(5) -0.048(3)
H15A_2 H -0.128(9) 1.313(5) -0.048(3)
H16A H 0.142(8) 0.949(5) -0.072(3)
H16A_2 H 1.142(8) 0.949(5) -0.072(3)
H16_2 H -0.142(8) 1.051(5) 0.072(3)
loop_
_geom_bond_atom_site_label_1
_geom_bond_atom_site_label_2
_geom_bond_site_symmetry_1
_geom_bond_site_symmetry_2
Cu1 O1 1_555 1_555
Cu2 N1 1_555 1_555
N1 C15 1_555 1_555
O1 C7 1_555 1_555
O2 Cu2 1_555 1_555
O3 Cu1 1_555 1_555
O4 Cu2 1_555 1_555
O5 C8 1_555 1_555
C1 H1 1_555 1_555
C2 C1 1_555 1_555
H2 C2 1_555 1_555
C3 C2 1_555 1_555
H3 C3 1_555 1_555
C4 C3 1_555 1_555
H4 C4 1_555 1_555
C5 C4 1_555 1_555
H5 C5 1_555 1_555
C6 C1 1_555 1_555
C7 O2 1_555 1_555
C8 O4 1_555 1_555
C9 C8 1_555 1_555
C10 C9 1_555 1_555
H6 C10 1_555 1_555
C11 C10 1_555 1_555
H7 C11 1_555 1_555
C12 C11 1_555 1_555
H8 C12 1_555 1_555
C13 C12 1_555 1_555
H9 C13 1_555 1_555
C14 C9 1_555 1_555
H10 C14 1_555 1_555
C15 H11 1_555 1_555
C16 N1 1_555 1_555
H12 C15 1_555 1_555
H13 C16 1_555 1_555
H14 C16 1_555 1_555
H15 N1 1_555 1_555
H16 O3 1_555 1_555
Cu2A N1A_2 1_555 1_555
Cu2A_2 O3 1_555 1_555
Cu2A_3 N1A 1_555 1_555
Cu2_2 O3A 1_555 1_555
N1A C15A 1_555 1_555
N1A_2 H15A_2 1_555 1_555
O1A Cu1 1_555 1_555
O2A Cu2A 1_555 1_555
O3A Cu1 1_555 1_555
O3A_2 Cu2 1_555 1_555
O3_2 Cu2A 1_555 1_555
O4A Cu2A 1_555 1_555
O5A C8A 1_555 1_555
C1A H1A 1_555 1_555
C2A C1A 1_555 1_555
H2A C2A 1_555 1_555
C3A C2A 1_555 1_555
H3A C3A 1_555 1_555
C4A C3A 1_555 1_555
H4A C4A 1_555 1_555
C5A C4A 1_555 1_555
H5A C5A 1_555 1_555
C6A C1A 1_555 1_555
C7A O1A 1_555 1_555
C8A O4A 1_555 1_555
C9A C8A 1_555 1_555
C10A C9A 1_555 1_555
H6A C10A 1_555 1_555
C11A C10A 1_555 1_555
H7A C11A 1_555 1_555
C12A C11A 1_555 1_555
H8A C12A 1_555 1_555
C13A C12A 1_555 1_555
H9A C13A 1_555 1_555
C14A C9A 1_555 1_555
H10A C14A 1_555 1_555
C15A C16 1_555 1_555
C16A C15 1_555 1_555
H11A C15A 1_555 1_555
H12A C15A 1_555 1_555
H13A C16A 1_555 1_555
H14A C16A 1_555 1_555
H15A N1A 1_555 1_555
H16A O3A 1_555 1_555
H16A_2 O3A_2 1_555 1_555
H16_2 O3_2 1_555 1_555
Cu2 O3 1_555 1_555
C5 C6 1_555 1_555
C6 C7 1_555 1_555
C13 C14 1_555 1_555
Cu2A O3A 1_555 1_555
Cu2A_2 O3A_2 1_555 1_555
Cu2_2 O3_2 1_555 1_555
N1A C16A 1_555 1_555
O2A C7A 1_555 1_555
C5A C6A 1_555 1_555
C6A C7A 1_555 1_555
C13A C14A 1_555 1_555

#END
