
#######################################################################
#
#                 Cambridge Crystallographic Data Centre
#                                CCDC 
#
#######################################################################
#
# If this CIF has been generated from an entry in the Cambridge 
# Structural Database, then it will include bibliographic, chemical, 
# crystal, experimental, refinement or atomic coordinate data resulting 
# from the CCDC's data processing and validation procedures.
#
#######################################################################

data_FOLZOW
_symmetry_cell_setting           monoclinic
_symmetry_space_group_name_H-M   'P 21/n'
_symmetry_Int_Tables_number      14
_space_group_name_Hall           '-P 2yn'
loop_
_symmetry_equiv_pos_site_id
_symmetry_equiv_pos_as_xyz
1 x,y,z
2 1/2-x,1/2+y,1/2-z
3 -x,-y,-z
4 1/2+x,1/2-y,1/2+z
_cell_length_a                   11.3221(9)
_cell_length_b                   7.7824(4)
_cell_length_c                   12.6314(11)
_cell_angle_alpha                90
_cell_angle_beta                 116.535(6)
_cell_angle_gamma                90
_cell_volume                     995.751
loop_
_atom_site_label
_atom_site_type_symbol
_atom_site_fract_x
_atom_site_fract_y
_atom_site_fract_z
C1 C 0.4564(2) 0.5245(2) 0.25617(16)
H1 H 0.3831 0.4579 0.2439
C2 C 0.4706(2) 0.5804(2) 0.15966(17)
H2 H 0.4067 0.5546 0.0836
C3 C 0.5804(2) 0.6752(2) 0.17621(17)
C4 C 0.6728(2) 0.7101(2) 0.29081(17)
H3 H 0.7489 0.7716 0.3051
C5 C 0.6507(2) 0.6525(2) 0.38355(17)
H4 H 0.7126 0.6777 0.4604
C6 C 0.5888(2) 0.7436(3) 0.06805(19)
C7 C 0.47616(18) 0.1230(2) 0.46798(14)
C8 C 0.4363(2) -0.0480(2) 0.41775(16)
N1 N 0.54326(16) 0.56161(18) 0.36733(13)
N2 N 0.7076(2) 0.7584(3) 0.0742(2)
O1 O 0.44275(14) 0.27051(14) 0.42443(11)
O2 O 0.35895(16) -0.10482(15) 0.31830(11)
O3 O 0.48704(19) 0.7781(3) -0.01906(14)
O4 O 0.27134(16) 0.60109(19) 0.38144(13)
Cu1 Cu 0.5000 0.5000 0.5000
H5 H 0.774(3) 0.719(3) 0.131(3)
H6 H 0.720(3) 0.792(3) 0.019(3)
H7 H 0.286(3) 0.691(4) 0.347(3)
H8 H 0.235(3) 0.545(3) 0.332(2)
C1B C 0.5436(2) 0.4755(2) 0.74383(16)
H1B H 0.6169 0.5421 0.7561
C2B C 0.5294(2) 0.4196(2) 0.84034(17)
H2B H 0.5933 0.4454 0.9164
C3B C 0.4196(2) 0.3248(2) 0.82379(17)
C4B C 0.3272(2) 0.2899(2) 0.70919(17)
H3B H 0.2511 0.2284 0.6949
C5B C 0.3493(2) 0.3475(2) 0.61645(17)
H4B H 0.2874 0.3223 0.5396
C6B C 0.4112(2) 0.2564(3) 0.93195(19)
C7B C 0.52384(18) -0.1230(2) 0.53202(14)
C8B C 0.5637(2) 0.0480(2) 0.58225(16)
N1B N 0.45674(16) 0.43839(18) 0.63267(13)
N2B N 0.2924(2) 0.2416(3) 0.9258(2)
O1B O 0.55725(14) -0.27051(14) 0.57557(11)
O1B_2 O 0.55725(14) 0.72949(14) 0.57557(11)
O2B O 0.64105(16) 0.10482(15) 0.68170(11)
O3B O 0.51296(19) 0.2219(3) 1.01906(14)
O4B O 0.72866(16) 0.39891(19) 0.61856(13)
Cu1_2 Cu 0.5000 -0.5000 0.5000
H5B H 0.226(3) 0.281(3) 0.869(3)
H6B H 0.280(3) 0.208(3) 0.981(3)
H7B H 0.714(3) 0.309(4) 0.653(3)
H8B H 0.765(3) 0.455(3) 0.668(2)
O5 O 0.5605(2) 0.1112(3) 0.23878(18)
H9 H 0.540(4) 0.141(5) 0.176(4)
H10 H 0.511(5) 0.046(6) 0.243(4)
loop_
_geom_bond_atom_site_label_1
_geom_bond_atom_site_label_2
_geom_bond_site_symmetry_1
_geom_bond_site_symmetry_2
C1 H1 1_555 1_555
C2 C1 1_555 1_555
H2 C2 1_555 1_555
C3 C2 1_555 1_555
C4 C3 1_555 1_555
H3 C4 1_555 1_555
C5 C4 1_555 1_555
H4 C5 1_555 1_555
C6 C3 1_555 1_555
C7 C8 1_555 1_555
C8 O2 1_555 1_555
N1 C1 1_555 1_555
N2 C6 1_555 1_555
O1 C7 1_555 1_555
O3 C6 1_555 1_555
O4 Cu1 1_555 1_555
O5 H9 1_555 1_555
Cu1 N1 1_555 1_555
H5 N2 1_555 1_555
H6 N2 1_555 1_555
H7 O4 1_555 1_555
H8 O4 1_555 1_555
H10 O5 1_555 1_555
C1B H1B 1_555 1_555
C2B C1B 1_555 1_555
H2B C2B 1_555 1_555
C3B C2B 1_555 1_555
C4B C3B 1_555 1_555
H3B C4B 1_555 1_555
C5B C4B 1_555 1_555
H4B C5B 1_555 1_555
C6B C3B 1_555 1_555
C7B C8 1_555 1_555
C8B C7 1_555 1_555
N1B Cu1 1_555 1_555
N2B C6B 1_555 1_555
O1B C7B 1_555 1_555
O1B_2 Cu1 1_555 1_555
O2B C8B 1_555 1_555
O3B C6B 1_555 1_555
O4B Cu1 1_555 1_555
Cu1_2 O1B 1_555 1_555
H5B N2B 1_555 1_555
H6B N2B 1_555 1_555
H7B O4B 1_555 1_555
H8B O4B 1_555 1_555
C5 N1 1_555 1_555
O1 Cu1 1_555 1_555
C1B N1B 1_555 1_555
C5B N1B 1_555 1_555
C7B C8B 1_555 1_555

#END
