
#######################################################################
#
#                 Cambridge Crystallographic Data Centre
#                                CCDC 
#
#######################################################################
#
# If this CIF has been generated from an entry in the Cambridge 
# Structural Database, then it will include bibliographic, chemical, 
# crystal, experimental, refinement or atomic coordinate data resulting 
# from the CCDC's data processing and validation procedures.
#
#######################################################################

data_FOMNOM
_symmetry_cell_setting           triclinic
_symmetry_space_group_name_H-M   'P 1'
_symmetry_Int_Tables_number      1
_space_group_name_Hall           'P 1'
loop_
_symmetry_equiv_pos_site_id
_symmetry_equiv_pos_as_xyz
1 x,y,z
_cell_length_a                   7.9109(5)
_cell_length_b                   7.9252(5)
_cell_length_c                   14.3797(10)
_cell_angle_alpha                88.257(4)
_cell_angle_beta                 83.081(4)
_cell_angle_gamma                74.025(3)
_cell_volume                     860.411
loop_
_atom_site_label
_atom_site_type_symbol
_atom_site_fract_x
_atom_site_fract_y
_atom_site_fract_z
Sn1 Sn 0.91023(4) 0.43316(4) 0.18448(3)
O1 O 0.9986(8) 0.2143(8) 0.2818(5)
C1 C 1.1610(11) 0.1262(9) 0.2700(6)
O2 O 1.2660(7) 0.1658(7) 0.2082(4)
C2 C 1.2162(10) -0.0255(9) 0.3343(6)
H1 H 1.3049 -0.0045 0.3700
H2 H 1.2715 -0.1300 0.2966
C3 C 1.0673(11) -0.0612(11) 0.4024(6)
H3 H 0.9669 -0.0567 0.3688
H4 H 1.1067 -0.1785 0.4276
C4 C 1.0098(12) 0.0683(12) 0.4815(7)
O3 O 1.1132(8) 0.0925(10) 0.5320(5)
N1 N 0.8340(9) 0.1531(9) 0.4952(5)
H5 H 0.7721 0.1355 0.4531
C5 C 0.7405(11) 0.2648(11) 0.5686(7)
C6 C 0.8078(12) 0.2915(12) 0.6482(7)
H6 H 0.9252 0.2361 0.6560
C7 C 0.7011(13) 0.4005(12) 0.7164(7)
C8 C 0.5300(14) 0.4871(13) 0.7069(8)
H7 H 0.4612 0.5628 0.7537
C9 C 0.4589(12) 0.4608(12) 0.6260(8)
H8 H 0.3414 0.5175 0.6191
C10 C 0.5627(11) 0.3511(11) 0.5569(7)
N2 N 0.7733(15) 0.4274(14) 0.8018(7)
O4 O 0.6797(12) 0.5312(11) 0.8593(6)
O5 O 0.9215(13) 0.3448(14) 0.8115(6)
O6 O 0.5107(7) 0.3142(9) 0.4757(5)
C11 C 0.3337(12) 0.3993(14) 0.4585(8)
H9 H 0.2525 0.3679 0.5066
H10 H 0.3137 0.3631 0.3986
H11 H 0.3154 0.5241 0.4588
C12 C 0.9724(10) 0.2699(10) 0.0642(5)
H12 H 0.8862 0.3139 0.0214
H13 H 0.9714 0.1526 0.0824
H14 H 1.0878 0.2692 0.0342
C13 C 1.0766(14) 0.5784(14) 0.2252(9)
H15 H 1.1903 0.5416 0.1886
H16 H 1.0906 0.5585 0.2903
H17 H 1.0247 0.7011 0.2151
C14 C 0.6464(10) 0.4849(12) 0.2511(7)
H18 H 0.5773 0.4379 0.2138
H19 H 0.5959 0.6094 0.2580
H20 H 0.6468 0.4309 0.3118
Sn2 Sn 1.52515(4) 0.02931(5) 0.11023(3)
O7 O 0.7605(7) 0.9208(8) 0.0079(4)
C15 C 0.8475(9) 0.7638(10) 0.0255(6)
O8 O 0.7975(6) 0.6759(7) 0.0885(4)
C16 C 1.0228(9) 0.6928(11) -0.0352(6)
H21 H 1.1157 0.6584 0.0055
H22 H 1.0185 0.5876 -0.0665
C17 C 1.0745(10) 0.8161(12) -0.1090(6)
H23 H 1.0298 0.9357 -0.0857
H24 H 1.2025 0.7889 -0.1196
C18 C 1.0042(11) 0.8041(12) -0.2005(7)
O9 O 1.0989(9) 0.7277(14) -0.2655(5)
N3 N 0.8328(8) 0.8816(9) -0.2031(5)
H25 H 0.7768 0.9378 -0.1534
C19 C 0.7326(10) 0.8821(11) -0.2776(6)
C20 C 0.7998(11) 0.7881(11) -0.3594(6)
H26 H 0.9171 0.7207 -0.3681
C21 C 0.6909(15) 0.7958(13) -0.4273(7)
C22 C 0.5182(15) 0.8909(14) -0.4173(8)
H27 H 0.4483 0.8929 -0.4651
C23 C 0.4479(13) 0.9836(14) -0.3366(8)
H28 H 0.3295 1.0479 -0.3288
C24 C 0.5537(12) 0.9812(12) -0.2665(7)
N4 N 0.7642(18) 0.6984(15) -0.5137(7)
O10 O 0.6721(15) 0.7146(14) -0.5771(7)
O11 O 0.9143(14) 0.5993(13) -0.5195(6)
O12 O 0.4978(7) 1.0659(9) -0.1833(5)
C25 C 0.3188(11) 1.1735(14) -0.1697(8)
H29 H 0.2988 1.2573 -0.2197
H30 H 0.2982 1.2344 -0.1110
H31 H 0.2394 1.1011 -0.1695
C26 C 1.4924(12) 0.2751(12) 0.0429(8)
H32 H 1.5311 0.2572 -0.0228
H33 H 1.5614 0.3397 0.0693
H34 H 1.3697 0.3399 0.0516
C27 C 1.3874(15) -0.1414(14) 0.0651(10)
H35 H 1.3661 -0.2178 0.1156
H36 H 1.4572 -0.2102 0.0131
H37 H 1.2765 -0.0737 0.0462
C28 C 1.6645(9) -0.0048(10) 0.2289(6)
H38 H 1.6119 0.0911 0.2716
H39 H 1.7859 -0.0080 0.2096
H40 H 1.6592 -0.1130 0.2593
Sn2_2 Sn 0.52515(4) 1.02931(5) 0.11023(3)
O7_2 O 1.7605(7) -0.0792(8) 0.0079(4)
loop_
_geom_bond_atom_site_label_1
_geom_bond_atom_site_label_2
_geom_bond_site_symmetry_1
_geom_bond_site_symmetry_2
Sn1 O1 1_555 1_555
O1 C1 1_555 1_555
C1 O2 1_555 1_555
O2 Sn2 1_555 1_555
C2 C1 1_555 1_555
H1 C2 1_555 1_555
H2 C2 1_555 1_555
C3 C2 1_555 1_555
H3 C3 1_555 1_555
H4 C3 1_555 1_555
C4 C3 1_555 1_555
O3 C4 1_555 1_555
N1 C4 1_555 1_555
H5 N1 1_555 1_555
C5 N1 1_555 1_555
C6 C5 1_555 1_555
H6 C6 1_555 1_555
C7 C6 1_555 1_555
C8 C7 1_555 1_555
H7 C8 1_555 1_555
C9 C8 1_555 1_555
H8 C9 1_555 1_555
C10 C5 1_555 1_555
N2 C7 1_555 1_555
O4 N2 1_555 1_555
O5 N2 1_555 1_555
O6 C10 1_555 1_555
C11 O6 1_555 1_555
H9 C11 1_555 1_555
H10 C11 1_555 1_555
H11 C11 1_555 1_555
C12 Sn1 1_555 1_555
H12 C12 1_555 1_555
H13 C12 1_555 1_555
H14 C12 1_555 1_555
C13 Sn1 1_555 1_555
H15 C13 1_555 1_555
H16 C13 1_555 1_555
H17 C13 1_555 1_555
C14 Sn1 1_555 1_555
H18 C14 1_555 1_555
H19 C14 1_555 1_555
H20 C14 1_555 1_555
Sn2 C26 1_555 1_555
O7 C15 1_555 1_555
C15 O8 1_555 1_555
O8 Sn1 1_555 1_555
C16 C15 1_555 1_555
H21 C16 1_555 1_555
H22 C16 1_555 1_555
C17 C16 1_555 1_555
H23 C17 1_555 1_555
H24 C17 1_555 1_555
C18 C17 1_555 1_555
O9 C18 1_555 1_555
N3 C18 1_555 1_555
H25 N3 1_555 1_555
C19 N3 1_555 1_555
C20 C19 1_555 1_555
H26 C20 1_555 1_555
C21 C20 1_555 1_555
C22 C21 1_555 1_555
H27 C22 1_555 1_555
C23 C22 1_555 1_555
H28 C23 1_555 1_555
C24 C19 1_555 1_555
N4 C21 1_555 1_555
O10 N4 1_555 1_555
O11 N4 1_555 1_555
O12 C24 1_555 1_555
C25 O12 1_555 1_555
H29 C25 1_555 1_555
H30 C25 1_555 1_555
H31 C25 1_555 1_555
C26 H32 1_555 1_555
H33 C26 1_555 1_555
H34 C26 1_555 1_555
C27 Sn2 1_555 1_555
H35 C27 1_555 1_555
H36 C27 1_555 1_555
H37 C27 1_555 1_555
C28 Sn2 1_555 1_555
H38 C28 1_555 1_555
H39 C28 1_555 1_555
H40 C28 1_555 1_555
Sn2_2 O7 1_555 1_555
O7_2 Sn2 1_555 1_555
C9 C10 1_555 1_555
C23 C24 1_555 1_555

#END
