
#######################################################################
#
#                 Cambridge Crystallographic Data Centre
#                                CCDC 
#
#######################################################################
#
# If this CIF has been generated from an entry in the Cambridge 
# Structural Database, then it will include bibliographic, chemical, 
# crystal, experimental, refinement or atomic coordinate data resulting 
# from the CCDC's data processing and validation procedures.
#
#######################################################################

data_FOMNIG
_symmetry_cell_setting           monoclinic
_symmetry_space_group_name_H-M   'C 2/c'
_symmetry_Int_Tables_number      15
_space_group_name_Hall           '-C 2yn'
loop_
_symmetry_equiv_pos_site_id
_symmetry_equiv_pos_as_xyz
1 x,y,z
2 -x,y,1/2-z
3 1/2+x,1/2+y,z
4 1/2-x,1/2+y,1/2-z
5 -x,-y,-z
6 x,-y,1/2+z
7 1/2-x,1/2-y,-z
8 1/2+x,1/2-y,1/2+z
_cell_length_a                   25.584(5)
_cell_length_b                   18.908(4)
_cell_length_c                   10.637(2)
_cell_angle_alpha                90
_cell_angle_beta                 90.31(3)
_cell_angle_gamma                90
_cell_volume                     5145.49
loop_
_atom_site_label
_atom_site_type_symbol
_atom_site_fract_x
_atom_site_fract_y
_atom_site_fract_z
Ni1 Ni 0.41410(2) 0.12827(3) 0.02442(5)
Ni2 Ni 0.5000 0.23409(4) 0.2500
O1 O 0.14434(13) 0.63197(18) -0.3937(3)
O2 O 0.11914(14) 0.56585(18) -0.2326(3)
O3 O 0.46872(11) 0.13572(15) 0.1715(3)
O4 O 0.46670(13) 0.04206(18) 0.3296(3)
O5 O 0.46411(12) 0.30295(17) 0.1347(3)
O6 O 0.42563(15) 0.23270(17) -0.0084(3)
O7 O 0.36872(15) 0.5331(2) -0.2307(4)
O8 O 0.46972(13) 0.10724(18) -0.1162(3)
O9 O 0.40734(14) 0.01661(17) 0.0352(3)
S1 S 0.5000 0.08490(8) 0.2500
N1 N 0.35447(14) 0.1442(2) 0.1520(4)
N2 N 0.06301(14) 0.25599(19) 0.6223(4)
C1 C 0.3197(2) 0.1964(3) 0.1365(5)
H1 H 0.3203 0.2225 0.0624
C2 C 0.2826(2) 0.2131(3) 0.2271(5)
H2 H 0.2593 0.2502 0.2135
C3 C 0.28028(19) 0.1747(3) 0.3371(6)
C4 C 0.3134(2) 0.1165(3) 0.3470(6)
H3 H 0.3109 0.0861 0.4154
C5 C 0.3499(2) 0.1043(3) 0.2547(5)
H4 H 0.3726 0.0663 0.2647
C6 C 0.2517(2) 0.1979(3) 0.4529(6)
H5 H 0.235(2) 0.157(3) 0.493(5)
C7 C 0.2130(2) 0.2602(3) 0.4475(6)
H6 H 0.214(2) 0.283(3) 0.365(5)
C8 C 0.15720(19) 0.2492(2) 0.4899(5)
C9 C 0.1186(2) 0.2981(3) 0.4610(5)
H7 H 0.1236 0.3297 0.3951
C10 C 0.0729(2) 0.3004(3) 0.5291(5)
H8 H 0.0480 0.3345 0.5088
C11 C 0.09688(19) 0.2036(3) 0.6403(5)
H9 H 0.0887 0.1686 0.6984
C12 C 0.1435(2) 0.1988(3) 0.5770(5)
H10 H 0.1659 0.1611 0.5932
C13 C 0.15354(19) 0.5914(2) -0.3027(4)
C14 C 0.21032(19) 0.5750(2) -0.2797(4)
C15 C 0.2266(2) 0.5354(3) -0.1766(5)
H11 H 0.2022 0.5191 -0.1191
C16 C 0.2795(2) 0.5201(3) -0.1589(5)
H12 H 0.2904 0.4943 -0.0891
C17 C 0.3153(2) 0.5432(3) -0.2452(6)
C18 C 0.3002(2) 0.5826(3) -0.3477(5)
H13 H 0.3247 0.5987 -0.4052
C19 C 0.2476(2) 0.5980(3) -0.3637(5)
H14 H 0.2371 0.6246 -0.4330
C20 C 0.43883(17) 0.2912(2) 0.0354(5)
C21 C 0.42174(18) 0.3555(2) -0.0389(5)
C22 C 0.3890(2) 0.3475(3) -0.1412(6)
H15 H 0.3789 0.3025 -0.1669
C23 C 0.3710(3) 0.4063(3) -0.2062(7)
H16 H 0.3495 0.4009 -0.2762
C24 C 0.3853(2) 0.4728(3) -0.1661(6)
C25 C 0.4182(2) 0.4820(3) -0.0648(6)
H17 H 0.4281 0.5271 -0.0392
C26 C 0.4363(2) 0.4226(3) -0.0015(6)
H18 H 0.4585 0.4281 0.0672
O3A O 0.53128(11) 0.13572(15) 0.3285(3)
O4A O 0.53330(13) 0.04206(18) 0.1704(3)
N1F N 0.14553(14) 0.3558(2) 0.8480(4)
N2F N 0.43699(14) 0.24401(19) 0.3777(4)
C1F C 0.1803(2) 0.3036(3) 0.8635(5)
H1F H 0.1797 0.2775 0.9376
C2F C 0.2174(2) 0.2869(3) 0.7729(5)
H2F H 0.2407 0.2498 0.7865
C3F C 0.21972(19) 0.3253(3) 0.6629(6)
C4F C 0.1866(2) 0.3835(3) 0.6530(6)
H3F H 0.1891 0.4139 0.5846
C5F C 0.1501(2) 0.3957(3) 0.7453(5)
H4F H 0.1274 0.4337 0.7353
C6F C 0.2483(2) 0.3021(3) 0.5471(6)
H5F H 0.265(2) 0.343(3) 0.507(5)
C7F C 0.2870(2) 0.2398(3) 0.5525(6)
H6F H 0.286(2) 0.217(3) 0.635(5)
C8F C 0.34280(19) 0.2508(2) 0.5101(5)
C9F C 0.3814(2) 0.2019(3) 0.5390(5)
H7F H 0.3764 0.1703 0.6049
C10F C 0.4271(2) 0.1996(3) 0.4709(5)
H8F H 0.4520 0.1655 0.4912
C11F C 0.40312(19) 0.2964(3) 0.3597(5)
H9F H 0.4113 0.3314 0.3016
C12F C 0.3565(2) 0.3012(3) 0.4230(5)
H10F H 0.3341 0.3389 0.4068
Ni1A Ni 0.58590(2) 0.12827(3) 0.47558(5)
O1A O 0.85566(13) 0.63197(18) 0.8937(3)
O2A O 0.88086(14) 0.56585(18) 0.7326(3)
O5A O 0.53589(12) 0.30295(17) 0.3653(3)
O6A O 0.57437(15) 0.23270(17) 0.5084(3)
O7A O 0.63128(15) 0.5331(2) 0.7307(4)
O8A O 0.53028(13) 0.10724(18) 0.6162(3)
O9A O 0.59266(14) 0.01661(17) 0.4648(3)
C13A C 0.84646(19) 0.5914(2) 0.8027(4)
C14A C 0.78968(19) 0.5750(2) 0.7797(4)
C15A C 0.7734(2) 0.5354(3) 0.6766(5)
H11A H 0.7978 0.5191 0.6191
C16A C 0.7205(2) 0.5201(3) 0.6589(5)
H12A H 0.7096 0.4943 0.5891
C17A C 0.6847(2) 0.5432(3) 0.7452(6)
C18A C 0.6998(2) 0.5826(3) 0.8477(5)
H13A H 0.6753 0.5987 0.9052
C19A C 0.7524(2) 0.5980(3) 0.8637(5)
H14A H 0.7629 0.6246 0.9330
C20A C 0.56117(17) 0.2912(2) 0.4646(5)
C21A C 0.57826(18) 0.3555(2) 0.5389(5)
C22A C 0.6110(2) 0.3475(3) 0.6412(6)
H15A H 0.6211 0.3025 0.6669
C23A C 0.6290(3) 0.4063(3) 0.7062(7)
H16A H 0.6505 0.4009 0.7762
C24A C 0.6147(2) 0.4728(3) 0.6661(6)
C25A C 0.5818(2) 0.4820(3) 0.5648(6)
H17A H 0.5719 0.5271 0.5392
C26A C 0.5637(2) 0.4226(3) 0.5015(6)
H18A H 0.5415 0.4281 0.4328
Ni1B Ni 0.91410(2) 0.62827(3) 1.02442(5)
Ni1C Ni 0.08590(2) 0.62827(3) -0.52442(5)
Ni1F Ni 0.08590(2) 0.37173(3) 0.97558(5)
Ni2F Ni 0.0000 0.26591(4) 0.7500
O1B O 0.64434(13) 0.13197(18) 0.6063(3)
O1C O 0.35566(13) 0.13197(18) -0.1063(3)
N1A N 0.64553(14) 0.1442(2) 0.3480(4)
N2G N 0.56301(14) 0.24401(19) 0.1223(4)
loop_
_geom_bond_atom_site_label_1
_geom_bond_atom_site_label_2
_geom_bond_site_symmetry_1
_geom_bond_site_symmetry_2
Ni1 O3 1_555 1_555
Ni2 O3 1_555 1_555
O1 C13 1_555 1_555
O2 C13 1_555 1_555
O3 S1 1_555 1_555
O4 S1 1_555 1_555
O5 Ni2 1_555 1_555
O6 Ni1 1_555 1_555
O7 C17 1_555 1_555
O8 Ni1 1_555 1_555
O9 Ni1 1_555 1_555
S1 O3A 1_555 1_555
N1 Ni1 1_555 1_555
N2 C10 1_555 1_555
C1 N1 1_555 1_555
H1 C1 1_555 1_555
C2 C1 1_555 1_555
H2 C2 1_555 1_555
C3 C2 1_555 1_555
C4 C3 1_555 1_555
H3 C4 1_555 1_555
C5 N1 1_555 1_555
H4 C5 1_555 1_555
C6 C3 1_555 1_555
H5 C6 1_555 1_555
C7 C6 1_555 1_555
H6 C7 1_555 1_555
C8 C7 1_555 1_555
C9 C8 1_555 1_555
H7 C9 1_555 1_555
C10 C9 1_555 1_555
H8 C10 1_555 1_555
C11 N2 1_555 1_555
H9 C11 1_555 1_555
C12 C8 1_555 1_555
H10 C12 1_555 1_555
C13 C14 1_555 1_555
C14 C15 1_555 1_555
C15 H11 1_555 1_555
C16 C15 1_555 1_555
H12 C16 1_555 1_555
C17 C16 1_555 1_555
C18 C17 1_555 1_555
H13 C18 1_555 1_555
C19 C14 1_555 1_555
H14 C19 1_555 1_555
C20 O5 1_555 1_555
C21 C20 1_555 1_555
C22 C21 1_555 1_555
H15 C22 1_555 1_555
C23 C22 1_555 1_555
H16 C23 1_555 1_555
C24 O7 1_555 1_555
C25 C24 1_555 1_555
H17 C25 1_555 1_555
C26 C21 1_555 1_555
H18 C26 1_555 1_555
O3A Ni2 1_555 1_555
O4A S1 1_555 1_555
N1F C1F 1_555 1_555
N2F Ni2 1_555 1_555
C1F H1F 1_555 1_555
C2F C1F 1_555 1_555
H2F C2F 1_555 1_555
C3F C2F 1_555 1_555
C4F C3F 1_555 1_555
H3F C4F 1_555 1_555
C5F N1F 1_555 1_555
H4F C5F 1_555 1_555
C6F C7 1_555 1_555
H5F C6F 1_555 1_555
C7F C6 1_555 1_555
H6F C7F 1_555 1_555
C8F C7F 1_555 1_555
C9F C8F 1_555 1_555
H7F C9F 1_555 1_555
C10F N2F 1_555 1_555
H8F C10F 1_555 1_555
C11F N2F 1_555 1_555
H9F C11F 1_555 1_555
C12F C8F 1_555 1_555
H10F C12F 1_555 1_555
Ni1A O3A 1_555 1_555
O1A C13A 1_555 1_555
O2A C13A 1_555 1_555
O5A Ni2 1_555 1_555
O6A Ni1A 1_555 1_555
O7A C17A 1_555 1_555
O8A Ni1A 1_555 1_555
O9A Ni1A 1_555 1_555
C13A C14A 1_555 1_555
C14A C15A 1_555 1_555
C15A H11A 1_555 1_555
C16A C15A 1_555 1_555
H12A C16A 1_555 1_555
C17A C16A 1_555 1_555
C18A C17A 1_555 1_555
H13A C18A 1_555 1_555
C19A C14A 1_555 1_555
H14A C19A 1_555 1_555
C20A O5A 1_555 1_555
C21A C20A 1_555 1_555
C22A C21A 1_555 1_555
H15A C22A 1_555 1_555
C23A C22A 1_555 1_555
H16A C23A 1_555 1_555
C24A O7A 1_555 1_555
C25A C24A 1_555 1_555
H17A C25A 1_555 1_555
C26A C21A 1_555 1_555
H18A C26A 1_555 1_555
Ni1B O1A 1_555 1_555
Ni1C O1 1_555 1_555
Ni1F N1F 1_555 1_555
Ni2F N2 1_555 1_555
O1B Ni1A 1_555 1_555
O1C Ni1 1_555 1_555
N1A Ni1A 1_555 1_555
N2G Ni2 1_555 1_555
O6 C20 1_555 1_555
C4 C5 1_555 1_555
C11 C12 1_555 1_555
C18 C19 1_555 1_555
C23 C24 1_555 1_555
C25 C26 1_555 1_555
C3F C6F 1_555 1_555
C4F C5F 1_555 1_555
C6F C7F 1_555 1_555
C9F C10F 1_555 1_555
C11F C12F 1_555 1_555
O6A C20A 1_555 1_555
C18A C19A 1_555 1_555
C23A C24A 1_555 1_555
C25A C26A 1_555 1_555

#END
