
#######################################################################
#
#                 Cambridge Crystallographic Data Centre
#                                CCDC 
#
#######################################################################
#
# If this CIF has been generated from an entry in the Cambridge 
# Structural Database, then it will include bibliographic, chemical, 
# crystal, experimental, refinement or atomic coordinate data resulting 
# from the CCDC's data processing and validation procedures.
#
#######################################################################

data_FOMSOQ01
_symmetry_cell_setting           orthorhombic
_symmetry_space_group_name_H-M   'P n m a'
_symmetry_Int_Tables_number      62
_space_group_name_Hall           '-P 2ac 2n'
loop_
_symmetry_equiv_pos_site_id
_symmetry_equiv_pos_as_xyz
1 x,y,z
2 1/2-x,-y,1/2+z
3 1/2+x,1/2-y,1/2-z
4 -x,1/2+y,-z
5 -x,-y,-z
6 1/2+x,y,1/2-z
7 1/2-x,1/2+y,1/2+z
8 x,1/2-y,z
_cell_length_a                   13.4164(4)
_cell_length_b                   13.6031(3)
_cell_length_c                   26.3471(6)
_cell_angle_alpha                90
_cell_angle_beta                 90
_cell_angle_gamma                90
_cell_volume                     4808.47
loop_
_atom_site_label
_atom_site_type_symbol
_atom_site_fract_x
_atom_site_fract_y
_atom_site_fract_z
O1 O 0.2981(3) 0.5357(3) 0.37937(15)
H1 H 0.3153 0.4843 0.3604
H2 H 0.3529 0.5436 0.3910
O2 O 0.0530(4) 0.2500 0.6261(2)
O3 O -0.1308(3) 0.1357(3) 0.63423(12)
H4 H -0.1916 0.1073 0.6301
H5 H -0.0892 0.0900 0.6358
O6 O -0.7136(12) 0.2500 0.5883(6)
H9 H -0.7322 0.2072 0.6100
Zn1 Zn -0.08278(5) 0.2500 0.58746(3)
Cl1 Cl -0.21603(12) 0.2500 0.52949(7)
K1 K -0.4694(2) 0.2500 0.54983(10)
C1 C 0.3398(4) 0.3861(4) 0.47682(18)
C2 C 0.1727(3) 0.3900(4) 0.45124(18)
H10 H 0.1515 0.4095 0.4171
C3 C 0.1944(3) 0.4800(4) 0.4850(2)
H11 H 0.1841 0.5416 0.4664
C4 C 0.0643(3) 0.3896(3) 0.52072(17)
C5 C 0.3558(4) 0.5389(3) 0.5269(2)
H12 H 0.4243 0.5361 0.5153
H13 H 0.3304 0.6040 0.5194
C6 C 0.1139(4) 0.5392(4) 0.5682(2)
H14 H 0.1256 0.6050 0.5554
H15 H 0.0460 0.5369 0.5809
C7 C 0.4284(3) 0.4769(4) 0.6066(2)
C8 C 0.2803(4) 0.5660(4) 0.6144(2)
H16 H 0.2773 0.6378 0.6115
C9 C 0.3149(4) 0.5334(5) 0.6677(2)
H17 H 0.3260 0.5899 0.6901
C10 C 0.1545(4) 0.4724(4) 0.6524(2)
C11 C 0.4672(4) 0.4289(5) 0.6947(2)
H18 H 0.5354 0.4255 0.6826
H19 H 0.4672 0.4661 0.7261
C12 C 0.2261(4) 0.4310(6) 0.7361(2)
H20 H 0.1569 0.4319 0.7468
H21 H 0.2635 0.4722 0.7594
C13 C 0.4769(5) 0.2500 0.6843(3)
C14 C 0.3679(4) 0.3066(6) 0.74717(19)
H22 H 0.3930 0.3331 0.7793
C15 C 0.2863(5) 0.2500 0.4220(2)
H23 H 0.3552 0.2500 0.4108
H24 H 0.2445 0.2500 0.3919
C16 C 0.0443(5) 0.2500 0.4616(2)
H25 H 0.0419 0.2500 0.4248
H26 H -0.0239 0.2500 0.4739
C17 C 0.2046(6) 0.2500 0.7359(3)
N1 N 0.2677(3) 0.3380(3) 0.45022(16)
N2 N 0.2978(3) 0.4671(3) 0.49900(17)
N3 N 0.0931(3) 0.3393(3) 0.47858(14)
N4 N 0.1233(3) 0.4696(3) 0.52635(17)
N5 N 0.3543(3) 0.5247(3) 0.58084(18)
N6 N 0.4074(3) 0.4811(4) 0.65735(19)
N7 N 0.1813(3) 0.5214(3) 0.60997(19)
N8 N 0.2331(3) 0.4722(4) 0.68576(19)
N9 N 0.4328(3) 0.3322(4) 0.70486(15)
N10 N 0.2636(3) 0.3307(5) 0.73963(18)
O7 O 0.4275(2) 0.3619(3) 0.47982(13)
O8 O 0.5021(2) 0.4385(3) 0.58756(13)
O9 O 0.5426(4) 0.2500 0.65223(18)
O10 O -0.0073(2) 0.3692(2) 0.54815(12)
O11 O 0.0726(2) 0.4344(3) 0.66047(14)
O12 O 0.1133(4) 0.2500 0.7308(2)
O3G O -0.1308(3) 0.3643(3) 0.63423(12)
H4G H -0.1916 0.3927 0.6301
H5G H -0.0892 0.4100 0.6358
H9G H -0.7322 0.2928 0.6100
K1_2 K 0.5306(2) 0.2500 0.54983(10)
C1G C 0.3398(4) 0.1139(4) 0.47682(18)
C2G C 0.1727(3) 0.1100(4) 0.45124(18)
H10G H 0.1515 0.0905 0.4171
C3G C 0.1944(3) 0.0200(4) 0.4850(2)
H11G H 0.1841 -0.0416 0.4664
C4G C 0.0643(3) 0.1104(3) 0.52072(17)
C5G C 0.3558(4) -0.0389(3) 0.5269(2)
H12G H 0.4243 -0.0361 0.5153
H13G H 0.3304 -0.1040 0.5194
C6G C 0.1139(4) -0.0392(4) 0.5682(2)
H14G H 0.1256 -0.1050 0.5554
H15G H 0.0460 -0.0369 0.5809
C7G C 0.4284(3) 0.0231(4) 0.6066(2)
C8G C 0.2803(4) -0.0660(4) 0.6144(2)
H16G H 0.2773 -0.1378 0.6115
C9G C 0.3149(4) -0.0334(5) 0.6677(2)
H17G H 0.3260 -0.0899 0.6901
C10G C 0.1545(4) 0.0276(4) 0.6524(2)
C11G C 0.4672(4) 0.0711(5) 0.6947(2)
H18G H 0.5354 0.0745 0.6826
H19G H 0.4672 0.0339 0.7261
C12G C 0.2261(4) 0.0690(6) 0.7361(2)
H20G H 0.1569 0.0681 0.7468
H21G H 0.2635 0.0278 0.7594
C14G C 0.3679(4) 0.1934(6) 0.74717(19)
H22G H 0.3930 0.1669 0.7793
N1G N 0.2677(3) 0.1620(3) 0.45022(16)
N2G N 0.2978(3) 0.0329(3) 0.49900(17)
N3G N 0.0931(3) 0.1607(3) 0.47858(14)
N4G N 0.1233(3) 0.0304(3) 0.52635(17)
N5G N 0.3543(3) -0.0247(3) 0.58084(18)
N6G N 0.4074(3) 0.0189(4) 0.65735(19)
N7G N 0.1813(3) -0.0214(3) 0.60997(19)
N8G N 0.2331(3) 0.0278(4) 0.68576(19)
N9G N 0.4328(3) 0.1678(4) 0.70486(15)
N10G N 0.2636(3) 0.1693(5) 0.73963(18)
O7G O 0.4275(2) 0.1381(3) 0.47982(13)
O7_2 O -0.5725(2) 0.3619(3) 0.47982(13)
O7G_2 O -0.5725(2) 0.1381(3) 0.47982(13)
O8G O 0.5021(2) 0.0615(3) 0.58756(13)
O8_2 O -0.4979(2) 0.4385(3) 0.58756(13)
O8G_2 O -0.4979(2) 0.0615(3) 0.58756(13)
O9_2 O -0.4574(4) 0.2500 0.65223(18)
O10G O -0.0073(2) 0.1308(2) 0.54815(12)
O11G O 0.0726(2) 0.0656(3) 0.66047(14)
O4 O 0.4197(5) 0.7500 0.5830(3)
H6 H 0.4639 0.7893 0.5723
H6G H 0.4639 0.7107 0.5723
O5 O 0.1526(5) 0.6118(4) 0.8146(2)
H7 H 0.2116 0.6416 0.8061
H8 H 0.1339 0.5860 0.8526
Zn2 Zn 0.02096(8) 0.2500 0.29305(4)
Cl2 Cl 0.03294(19) 0.2500 0.20623(8)
Cl3 Cl 0.10307(16) 0.11153(13) 0.31836(7)
Cl4 Cl -0.1341(4) 0.2500 0.3238(3)
Cl3G Cl 0.10307(16) 0.38847(13) 0.31836(7)
H3? H 0.0484 0.2189 0.6462
loop_
_geom_bond_atom_site_label_1
_geom_bond_atom_site_label_2
_geom_bond_site_symmetry_1
_geom_bond_site_symmetry_2
O1 H1 1_555 1_555
H2 O1 1_555 1_555
O2 Zn1 1_555 1_555
O3 H4 1_555 1_555
H5 O3 1_555 1_555
O4 H6 1_555 1_555
O5 H7 1_555 1_555
H8 O5 1_555 1_555
O6 H9 1_555 1_555
Zn1 O3 1_555 1_555
Zn2 Cl2 1_555 1_555
Cl1 Zn1 1_555 1_555
Cl3 Zn2 1_555 1_555
Cl4 Zn2 1_555 1_555
K1 O6 1_555 1_555
C1 N1 1_555 1_555
C2 H10 1_555 1_555
C3 C2 1_555 1_555
H11 C3 1_555 1_555
C4 N3 1_555 1_555
C5 H12 1_555 1_555
H13 C5 1_555 1_555
C6 H14 1_555 1_555
H15 C6 1_555 1_555
C7 N5 1_555 1_555
C8 H16 1_555 1_555
C9 C8 1_555 1_555
H17 C9 1_555 1_555
C10 N7 1_555 1_555
C11 H18 1_555 1_555
H19 C11 1_555 1_555
C12 H20 1_555 1_555
H21 C12 1_555 1_555
C13 N9 1_555 1_555
C14 H22 1_555 1_555
C15 H23 1_555 1_555
H24 C15 1_555 1_555
C16 H25 1_555 1_555
H26 C16 1_555 1_555
C17 N10 1_555 1_555
N1 C2 1_555 1_555
N2 C1 1_555 1_555
N3 C2 1_555 1_555
N4 C3 1_555 1_555
N5 C5 1_555 1_555
N6 C7 1_555 1_555
N7 C6 1_555 1_555
N8 C9 1_555 1_555
N9 C11 1_555 1_555
N10 C12 1_555 1_555
O7 C1 1_555 1_555
O8 C7 1_555 1_555
O9 C13 1_555 1_555
O10 Zn1 1_555 1_555
O11 C10 1_555 1_555
O12 C17 1_555 1_555
O3G Zn1 1_555 1_555
H4G O3G 1_555 1_555
H5G O3G 1_555 1_555
H6G O4 1_555 1_555
H9G O6 1_555 1_555
Cl3G Zn2 1_555 1_555
K1_2 O7 1_555 1_555
C1G N1G 1_555 1_555
C2G H10G 1_555 1_555
C3G C2G 1_555 1_555
H11G C3G 1_555 1_555
C4G N3G 1_555 1_555
C5G H12G 1_555 1_555
H13G C5G 1_555 1_555
C6G H14G 1_555 1_555
H15G C6G 1_555 1_555
C7G N5G 1_555 1_555
C8G H16G 1_555 1_555
C9G C8G 1_555 1_555
H17G C9G 1_555 1_555
C10G N7G 1_555 1_555
C11G H18G 1_555 1_555
H19G C11G 1_555 1_555
C12G H20G 1_555 1_555
H21G C12G 1_555 1_555
C14G C14 1_555 1_555
H22G C14G 1_555 1_555
N1G C15 1_555 1_555
N2G C1G 1_555 1_555
N3G C16 1_555 1_555
N4G C3G 1_555 1_555
N5G C5G 1_555 1_555
N6G C7G 1_555 1_555
N7G C6G 1_555 1_555
N8G C9G 1_555 1_555
N9G C13 1_555 1_555
N10G C17 1_555 1_555
O7G K1_2 1_555 1_555
O7_2 K1 1_555 1_555
O7G_2 K1 1_555 1_555
O8G K1_2 1_555 1_555
O8_2 K1 1_555 1_555
O8G_2 K1 1_555 1_555
O9_2 K1 1_555 1_555
O10G Zn1 1_555 1_555
O11G C10G 1_555 1_555
Cl1 K1 1_555 1_555
C3 N2 1_555 1_555
C4 N4 1_555 1_555
C4 O10 1_555 1_555
C5 N2 1_555 1_555
C6 N4 1_555 1_555
C8 N5 1_555 1_555
C8 N7 1_555 1_555
C9 N6 1_555 1_555
C10 N8 1_555 1_555
C11 N6 1_555 1_555
C12 N8 1_555 1_555
C14 N9 1_555 1_555
C14 N10 1_555 1_555
C15 N1 1_555 1_555
C16 N3 1_555 1_555
O8 K1_2 1_555 1_555
O9 K1_2 1_555 1_555
C1G O7G 1_555 1_555
C2G N1G 1_555 1_555
C2G N3G 1_555 1_555
C3G N2G 1_555 1_555
C4G N4G 1_555 1_555
C4G O10G 1_555 1_555
C5G N2G 1_555 1_555
C6G N4G 1_555 1_555
C7G O8G 1_555 1_555
C8G N5G 1_555 1_555
C8G N7G 1_555 1_555
C9G N6G 1_555 1_555
C10G N8G 1_555 1_555
C11G N6G 1_555 1_555
C11G N9G 1_555 1_555
C12G N8G 1_555 1_555
C12G N10G 1_555 1_555
C14G N9G 1_555 1_555
C14G N10G 1_555 1_555

#END
