
#######################################################################
#
#                 Cambridge Crystallographic Data Centre
#                                CCDC 
#
#######################################################################
#
# If this CIF has been generated from an entry in the Cambridge 
# Structural Database, then it will include bibliographic, chemical, 
# crystal, experimental, refinement or atomic coordinate data resulting 
# from the CCDC's data processing and validation procedures.
#
#######################################################################

data_FOMVAF
_symmetry_cell_setting           monoclinic
_symmetry_space_group_name_H-M   'P 21/n'
_symmetry_Int_Tables_number      14
_space_group_name_Hall           '-P 2yn'
loop_
_symmetry_equiv_pos_site_id
_symmetry_equiv_pos_as_xyz
1 x,y,z
2 1/2-x,1/2+y,1/2-z
3 -x,-y,-z
4 1/2+x,1/2-y,1/2+z
_cell_length_a                   11.332(5)
_cell_length_b                   9.519(5)
_cell_length_c                   23.514(8)
_cell_angle_alpha                90
_cell_angle_beta                 94.735(3)
_cell_angle_gamma                90
_cell_volume                     2527.78
loop_
_atom_site_label
_atom_site_type_symbol
_atom_site_fract_x
_atom_site_fract_y
_atom_site_fract_z
Li1 Li 0.3550(3) 0.1896(4) 0.25179(16)
C1 C 0.48652(17) -0.0847(2) 0.14545(8)
C2 C 0.5376(2) 0.0175(3) 0.11275(10)
H1 H 0.5083 0.1110 0.1126
C3 C 0.6316(2) -0.0165(3) 0.08017(11)
H2 H 0.6645 0.0536 0.0575
C4 C 0.6766(2) -0.1508(3) 0.08084(10)
H3 H 0.7412 -0.1731 0.0592
C5 C 0.6272(2) -0.2529(3) 0.11315(11)
H4 H 0.6572 -0.3460 0.1133
C6 C 0.53338(19) -0.2196(2) 0.14556(9)
H5 H 0.5010 -0.2904 0.1681
C7 C 0.23450(17) -0.0746(2) 0.13237(8)
C8 C 0.24695(19) -0.1202(2) 0.07667(9)
H6 H 0.3237 -0.1370 0.0646
C9 C 0.1472(2) -0.1413(2) 0.03865(10)
H7 H 0.1567 -0.1729 0.0010
C10 C 0.0345(2) -0.1167(3) 0.05530(10)
H8 H -0.0330 -0.1324 0.0294
C11 C 0.0213(2) -0.0688(3) 0.11018(11)
H9 H -0.0556 -0.0501 0.1217
C12 C 0.12069(19) -0.0482(2) 0.14849(9)
H10 H 0.1108 -0.0158 0.1860
C13 C 0.51649(17) -0.0704(2) 0.36183(8)
C14 C 0.5983(2) -0.1660(3) 0.34456(10)
H11 H 0.5812 -0.2180 0.3104
C15 C 0.7062(2) -0.1867(3) 0.37716(12)
H12 H 0.7616 -0.2528 0.3649
C16 C 0.7325(2) -0.1123(3) 0.42662(11)
H13 H 0.8060 -0.1263 0.4484
C17 C 0.6510(2) -0.0164(3) 0.44463(11)
H14 H 0.6683 0.0344 0.4791
C18 C 0.5444(2) 0.0052(2) 0.41235(10)
H15 H 0.4897 0.0721 0.4246
C19 C 0.27435(17) -0.0742(2) 0.37352(8)
C20 C 0.19522(19) 0.0267(2) 0.39091(9)
H16 H 0.1962 0.1188 0.3754
C21 C 0.1150(2) -0.0061(3) 0.43076(9)
H17 H 0.0610 0.0632 0.4418
C22 C 0.1136(2) -0.1389(3) 0.45426(9)
H18 H 0.0588 -0.1611 0.4814
C23 C 0.1924(2) -0.2396(2) 0.43805(9)
H19 H 0.1917 -0.3311 0.4542
C24 C 0.27295(19) -0.2077(2) 0.39812(9)
H20 H 0.3272 -0.2772 0.3876
C25 C 0.5175(2) 0.4012(3) 0.21059(11)
H21 H 0.4475 0.4638 0.2088
H22 H 0.5286 0.3670 0.1716
C26 C 0.6262(2) 0.4782(3) 0.23503(14)
H23 H 0.6043 0.5581 0.2590
H24 H 0.6725 0.5142 0.2042
C27 C 0.6964(2) 0.3694(3) 0.27064(11)
H25 H 0.7720 0.3484 0.2541
H26 H 0.7140 0.4032 0.3102
C28 C 0.6184(2) 0.2402(3) 0.26945(14)
H27 H 0.6482 0.1676 0.2441
H28 H 0.6168 0.2003 0.3083
O1 O 0.50203(13) 0.28570(16) 0.24824(7)
P1 P 0.35909(4) -0.03521(5) 0.18548(2)
P2 P 0.37625(4) -0.02953(5) 0.31951(2)
P3 P 0.34791(5) -0.18855(5) 0.25340(2)
Li1A Li 0.1450(3) -0.3104(4) 0.24821(16)
P3A P 0.15209(5) 0.31145(5) 0.24660(2)
loop_
_geom_bond_atom_site_label_1
_geom_bond_atom_site_label_2
_geom_bond_site_symmetry_1
_geom_bond_site_symmetry_2
Li1 O1 1_555 1_555
C1 C2 1_555 1_555
C2 H1 1_555 1_555
C3 C2 1_555 1_555
H2 C3 1_555 1_555
C4 C3 1_555 1_555
H3 C4 1_555 1_555
C5 C4 1_555 1_555
H4 C5 1_555 1_555
C6 C1 1_555 1_555
H5 C6 1_555 1_555
C7 C8 1_555 1_555
C8 H6 1_555 1_555
C9 C8 1_555 1_555
H7 C9 1_555 1_555
C10 C9 1_555 1_555
H8 C10 1_555 1_555
C11 C10 1_555 1_555
H9 C11 1_555 1_555
C12 C7 1_555 1_555
H10 C12 1_555 1_555
C13 C14 1_555 1_555
C14 H11 1_555 1_555
C15 C14 1_555 1_555
H12 C15 1_555 1_555
C16 C15 1_555 1_555
H13 C16 1_555 1_555
C17 C16 1_555 1_555
H14 C17 1_555 1_555
C18 C13 1_555 1_555
H15 C18 1_555 1_555
C19 C20 1_555 1_555
C20 H16 1_555 1_555
C21 C20 1_555 1_555
H17 C21 1_555 1_555
C22 C21 1_555 1_555
H18 C22 1_555 1_555
C23 C22 1_555 1_555
H19 C23 1_555 1_555
C24 C19 1_555 1_555
H20 C24 1_555 1_555
C25 H21 1_555 1_555
H22 C25 1_555 1_555
C26 C25 1_555 1_555
H23 C26 1_555 1_555
H24 C26 1_555 1_555
C27 C26 1_555 1_555
H25 C27 1_555 1_555
H26 C27 1_555 1_555
C28 C27 1_555 1_555
H27 C28 1_555 1_555
H28 C28 1_555 1_555
O1 C25 1_555 1_555
P1 Li1 1_555 1_555
P2 Li1 1_555 1_555
P3 P1 1_555 1_555
Li1A P3 1_555 1_555
P3A Li1 1_555 1_555
C1 P1 1_555 1_555
C5 C6 1_555 1_555
C7 P1 1_555 1_555
C11 C12 1_555 1_555
C13 P2 1_555 1_555
C17 C18 1_555 1_555
C19 P2 1_555 1_555
C23 C24 1_555 1_555
C28 O1 1_555 1_555
P2 P3 1_555 1_555

#END
