
#######################################################################
#
#                 Cambridge Crystallographic Data Centre
#                                CCDC 
#
#######################################################################
#
# If this CIF has been generated from an entry in the Cambridge 
# Structural Database, then it will include bibliographic, chemical, 
# crystal, experimental, refinement or atomic coordinate data resulting 
# from the CCDC's data processing and validation procedures.
#
#######################################################################

data_FOMXOV
_symmetry_cell_setting           monoclinic
_symmetry_space_group_name_H-M   'P 21/c'
_symmetry_Int_Tables_number      14
_space_group_name_Hall           '-P 2ybc'
loop_
_symmetry_equiv_pos_site_id
_symmetry_equiv_pos_as_xyz
1 x,y,z
2 -x,1/2+y,1/2-z
3 -x,-y,-z
4 x,1/2-y,1/2+z
_cell_length_a                   10.0617(4)
_cell_length_b                   14.6001(6)
_cell_length_c                   7.5491(3)
_cell_angle_alpha                90
_cell_angle_beta                 98.0450(10)
_cell_angle_gamma                90
_cell_volume                     1098.06
loop_
_atom_site_label
_atom_site_type_symbol
_atom_site_fract_x
_atom_site_fract_y
_atom_site_fract_z
Sn1 Sn 0.84024(2) 0.606011(19) 0.40852(4)
O1 O 0.5993(3) 0.5724(2) 0.2929(5)
O2 O 0.6922(3) 0.7089(2) 0.3298(4)
O3 O -0.0175(3) 0.7826(2) -0.0396(4)
O4 O 0.0774(3) 0.9159(2) 0.0258(5)
C1 C 0.7912(5) 0.5785(4) 0.6629(7)
C2 C 0.8780(5) 0.5633(4) 0.1558(6)
C3 C 0.5889(4) 0.6572(3) 0.2815(6)
C4 C 0.4593(4) 0.7024(3) 0.2111(6)
C5 C 0.4474(4) 0.7967(3) 0.2134(6)
C6 C 0.3265(4) 0.8378(3) 0.1480(6)
C7 C 0.2166(4) 0.7844(3) 0.0830(5)
C8 C 0.0869(4) 0.8305(3) 0.0209(6)
C9 C 0.2280(4) 0.6900(3) 0.0812(6)
C10 C 0.3496(4) 0.6497(3) 0.1443(7)
H1 H 0.8712 0.5859 0.7520
H2 H 0.7580 0.5156 0.6668
H3 H 0.7214 0.6212 0.6893
H4 H 0.9745 0.5675 0.1495
H5 H 0.8290 0.6027 0.0639
H6 H 0.8484 0.4998 0.1357
H7 H 0.5223 0.8333 0.2600
H8 H 0.3189 0.9027 0.1476
H9 H 0.1528 0.6531 0.0369
H10 H 0.3580 0.5849 0.1417
Sn1C Sn -0.15976(2) 0.893989(19) -0.09148(4)
O3C O 0.9825(3) 0.7174(2) 0.4604(4)
O4C O 1.0774(3) 0.5841(2) 0.5258(5)
loop_
_geom_bond_atom_site_label_1
_geom_bond_atom_site_label_2
_geom_bond_site_symmetry_1
_geom_bond_site_symmetry_2
Sn1 O1 1_555 1_555
O1 C3 1_555 1_555
O2 Sn1 1_555 1_555
O3 C8 1_555 1_555
O4 C8 1_555 1_555
C1 Sn1 1_555 1_555
C2 Sn1 1_555 1_555
C3 O2 1_555 1_555
C4 C3 1_555 1_555
C5 C4 1_555 1_555
C6 C5 1_555 1_555
C7 C6 1_555 1_555
C8 C7 1_555 1_555
C9 C7 1_555 1_555
C10 C4 1_555 1_555
H1 C1 1_555 1_555
H2 C1 1_555 1_555
H3 C1 1_555 1_555
H4 C2 1_555 1_555
H5 C2 1_555 1_555
H6 C2 1_555 1_555
H7 C5 1_555 1_555
H8 C6 1_555 1_555
H9 C9 1_555 1_555
H10 C10 1_555 1_555
Sn1C O3 1_555 1_555
O3C Sn1 1_555 1_555
O4C Sn1 1_555 1_555
O4 Sn1C 1_555 1_555
C9 C10 1_555 1_555

#END
