
#######################################################################
#
#                 Cambridge Crystallographic Data Centre
#                                CCDC 
#
#######################################################################
#
# If this CIF has been generated from an entry in the Cambridge 
# Structural Database, then it will include bibliographic, chemical, 
# crystal, experimental, refinement or atomic coordinate data resulting 
# from the CCDC's data processing and validation procedures.
#
#######################################################################

data_FONCUH02
_symmetry_cell_setting           monoclinic
_symmetry_space_group_name_H-M   'P 21/c'
_symmetry_Int_Tables_number      14
_space_group_name_Hall           '-P 2ybc'
loop_
_symmetry_equiv_pos_site_id
_symmetry_equiv_pos_as_xyz
1 x,y,z
2 -x,1/2+y,1/2-z
3 -x,-y,-z
4 x,1/2-y,1/2+z
_cell_length_a                   14.029(4)
_cell_length_b                   11.219(3)
_cell_length_c                   12.863(4)
_cell_angle_alpha                90
_cell_angle_beta                 102.292(4)
_cell_angle_gamma                90
_cell_volume                     1978.11
loop_
_atom_site_label
_atom_site_type_symbol
_atom_site_fract_x
_atom_site_fract_y
_atom_site_fract_z
Sm1 Sm 0.270277(15) 0.295824(18) 0.148563(17)
N1 N 0.4498(2) 0.2896(3) 0.1321(3)
N2 N 0.1695(2) 0.4465(3) 0.0190(2)
O1 O 0.34140(19) 0.1001(2) 0.1320(2)
O2 O 0.4668(2) -0.0208(3) 0.1247(3)
O3 O 0.3549(2) 0.4910(2) 0.1356(2)
O4 O 0.4852(2) 0.6004(3) 0.1263(3)
H1 H 0.4463 0.6556 0.1224
O5 O 0.27422(19) 0.2791(2) -0.0455(2)
O6 O 0.2203(2) 0.3298(2) -0.2171(2)
O7 O 0.1578(2) 0.4274(2) 0.2196(2)
O8 O 0.0809(2) 0.6030(3) 0.2169(2)
O9 O 0.3671(2) 0.3457(3) 0.3239(2)
O10 O 0.1271(2) 0.1877(3) 0.0652(3)
C1 C 0.4295(3) 0.0804(4) 0.1287(3)
C2 C 0.4950(3) 0.1862(4) 0.1311(4)
C3 C 0.5943(3) 0.1795(5) 0.1324(5)
H2 H 0.6243 0.1059 0.1298
C4 C 0.6471(4) 0.2825(5) 0.1377(5)
H3 H 0.7140 0.2794 0.1419
C5 C 0.6001(3) 0.3931(5) 0.1369(5)
H4 H 0.6342 0.4645 0.1386
C6 C 0.5017(3) 0.3912(4) 0.1334(4)
C7 C 0.4400(4) 0.4998(4) 0.1318(4)
C8 C 0.2273(3) 0.3443(3) -0.1192(3)
C9 C 0.1751(3) 0.4495(3) -0.0839(3)
C10 C 0.1396(3) 0.5441(4) -0.1503(3)
H5 H 0.1424 0.5433 -0.2219
C11 C 0.0999(3) 0.6402(4) -0.1062(4)
H6 H 0.0778 0.7066 -0.1476
C12 C 0.0932(3) 0.6370(3) -0.0010(3)
H7 H 0.0661 0.7006 0.0290
C13 C 0.1275(3) 0.5379(4) 0.0596(3)
C14 C 0.1215(3) 0.5228(4) 0.1751(3)
H8 H 0.350(3) 0.312(3) 0.374(2)
H9 H 0.4179(19) 0.379(3) 0.342(3)
H10 H 0.112(3) 0.198(4) -0.0006(16)
H11 H 0.082(2) 0.150(3) 0.083(3)
Sm1C Sm 0.270277(15) 0.204176(18) -0.351437(17)
O6C O 0.2203(2) 0.1702(2) 0.2829(2)
O11 O 0.9582(2) 0.8069(3) 0.1478(2)
H12 H 0.997(3) 0.752(4) 0.174(4)
H13 H 0.926(3) 0.825(3) 0.192(3)
O12 O 0.0293(3) 0.5580(3) 0.4028(3)
H14 H 0.011(3) 0.488(2) 0.400(3)
H15 H 0.050(3) 0.573(4) 0.347(3)
O13 O 0.3734(4) 0.7738(4) 0.1138(5)
H16 H 0.3122(15) 0.776(5) 0.109(5)
H17 H 0.395(3) 0.841(3) 0.115(6)
O14 O 0.2005(4) 0.9037(4) 0.0853(5)
H18 H 0.164(5) 0.907(6) 0.022(3)
H19 H 0.238(3) 0.964(4) 0.089(4)
loop_
_geom_bond_atom_site_label_1
_geom_bond_atom_site_label_2
_geom_bond_site_symmetry_1
_geom_bond_site_symmetry_2
Sm1 N1 1_555 1_555
N1 C2 1_555 1_555
N2 Sm1 1_555 1_555
O1 Sm1 1_555 1_555
O2 C1 1_555 1_555
O3 Sm1 1_555 1_555
O4 H1 1_555 1_555
O5 Sm1 1_555 1_555
O6 C8 1_555 1_555
O7 Sm1 1_555 1_555
O8 C14 1_555 1_555
O9 Sm1 1_555 1_555
O10 Sm1 1_555 1_555
C1 O1 1_555 1_555
C2 C1 1_555 1_555
C3 C2 1_555 1_555
H2 C3 1_555 1_555
C4 C3 1_555 1_555
H3 C4 1_555 1_555
C5 C4 1_555 1_555
H4 C5 1_555 1_555
C6 N1 1_555 1_555
C7 O3 1_555 1_555
C8 O5 1_555 1_555
C9 N2 1_555 1_555
C10 C9 1_555 1_555
H5 C10 1_555 1_555
C11 C10 1_555 1_555
H6 C11 1_555 1_555
C12 C11 1_555 1_555
H7 C12 1_555 1_555
C13 N2 1_555 1_555
C14 O7 1_555 1_555
H8 O9 1_555 1_555
H9 O9 1_555 1_555
H10 O10 1_555 1_555
H11 O10 1_555 1_555
O11 H12 1_555 1_555
H13 O11 1_555 1_555
O12 H14 1_555 1_555
H15 O12 1_555 1_555
O13 H16 1_555 1_555
H17 O13 1_555 1_555
O14 H18 1_555 1_555
H19 O14 1_555 1_555
Sm1C O6 1_555 1_555
O6C Sm1 1_555 1_555
O4 C7 1_555 1_555
C5 C6 1_555 1_555
C6 C7 1_555 1_555
C8 C9 1_555 1_555
C12 C13 1_555 1_555
C13 C14 1_555 1_555

#END
