
#######################################################################
#
#                 Cambridge Crystallographic Data Centre
#                                CCDC 
#
#######################################################################
#
# If this CIF has been generated from an entry in the Cambridge 
# Structural Database, then it will include bibliographic, chemical, 
# crystal, experimental, refinement or atomic coordinate data resulting 
# from the CCDC's data processing and validation procedures.
#
#######################################################################

data_FONCUH04
_symmetry_cell_setting           monoclinic
_symmetry_space_group_name_H-M   'P 21/c'
_symmetry_Int_Tables_number      14
_space_group_name_Hall           '-P 2ybc'
loop_
_symmetry_equiv_pos_site_id
_symmetry_equiv_pos_as_xyz
1 x,y,z
2 -x,1/2+y,1/2-z
3 -x,-y,-z
4 x,1/2-y,1/2+z
_cell_length_a                   13.9706(7)
_cell_length_b                   11.1875(6)
_cell_length_c                   12.8305(6)
_cell_angle_alpha                90
_cell_angle_beta                 102.5880(10)
_cell_angle_gamma                90
_cell_volume                     1957.15
loop_
_atom_site_label
_atom_site_type_symbol
_atom_site_fract_x
_atom_site_fract_y
_atom_site_fract_z
Sm1 Sm 0.269246(10) 0.203899(12) 0.149506(11)
O1 O 0.36677(19) 0.1547(3) 0.32600(19)
O2 O 0.21811(15) 0.17003(19) -0.21666(16)
O3 O 0.12538(17) 0.3127(2) 0.06436(18)
O4 O 0.34155(15) 0.40027(19) 0.13272(17)
O5 O 0.46762(18) 0.5205(2) 0.1236(2)
O6 O 0.35266(16) 0.00711(19) 0.13774(17)
O7 O 0.4824(2) -0.1040(2) 0.1270(2)
O8 O 0.27324(16) 0.22056(18) -0.04488(16)
O9 O 0.15573(16) 0.07274(19) 0.22022(16)
O10 O 0.07961(17) -0.1044(2) 0.21685(17)
H1 H 0.0803 -0.0872 0.2792
N1 N 0.44926(19) 0.2086(2) 0.1339(2)
N2 N 0.16742(17) 0.0534(2) 0.01917(18)
C1 C 0.4297(2) 0.4200(3) 0.1289(2)
C2 C 0.4952(2) 0.3119(3) 0.1311(3)
C3 C 0.5941(3) 0.3190(4) 0.1313(4)
H2 H 0.6245 0.3926 0.1290
C4 C 0.6469(3) 0.2132(4) 0.1352(5)
H3 H 0.7137 0.2154 0.1364
C5 C 0.6003(3) 0.1053(4) 0.1371(4)
H4 H 0.6345 0.0337 0.1395
C6 C 0.5009(2) 0.1064(3) 0.1352(3)
C7 C 0.4388(2) -0.0031(3) 0.1335(2)
C8 C 0.2253(2) 0.1557(3) -0.1188(2)
C9 C 0.1733(2) 0.0500(3) -0.0836(2)
C10 C 0.1377(2) -0.0454(3) -0.1500(2)
H5 H 0.1404 -0.0446 -0.2217
C11 C 0.0983(2) -0.1418(3) -0.1063(2)
H6 H 0.0760 -0.2082 -0.1482
C12 C 0.0920(2) -0.1391(3) -0.0003(2)
H7 H 0.0656 -0.2031 0.0301
C13 C 0.1261(2) -0.0388(3) 0.0595(2)
C14 C 0.1200(2) -0.0233(3) 0.1757(2)
H8 H 0.415(3) 0.106(4) 0.341(3)
H9 H 0.346(4) 0.183(4) 0.374(4)
H10 H 0.107(3) 0.302(3) -0.0013(16)
H11 H 0.085(3) 0.357(4) 0.087(3)
Sm1C Sm 0.269246(10) 0.296101(12) -0.350494(11)
O2C O 0.21811(15) 0.32997(19) 0.28334(16)
O11 O 0.3699(3) -0.2771(3) 0.1119(4)
H12 H 0.4294 -0.2956 0.1146
H13 H 0.3503 -0.3118 0.1624
O12 O 0.1972(2) 0.5925(3) 0.0885(3)
H14 H 0.2261 0.6584 0.0834
H15 H 0.1672 0.5966 0.1394
O13 O 0.03056(17) -0.0575(2) 0.40325(18)
H16 H 0.0818 -0.0394 0.4497
H17 H -0.0093 0.0009 0.3951
O14 O 0.04222(16) 0.30800(19) -0.14853(17)
H18 H 0.0227 0.2726 -0.2080
H19 H -0.0059 0.3180 -0.1188
loop_
_geom_bond_atom_site_label_1
_geom_bond_atom_site_label_2
_geom_bond_site_symmetry_1
_geom_bond_site_symmetry_2
Sm1 O1 1_555 1_555
O1 H8 1_555 1_555
O2 C8 1_555 1_555
O3 Sm1 1_555 1_555
O4 Sm1 1_555 1_555
O5 C1 1_555 1_555
O6 Sm1 1_555 1_555
O7 C7 1_555 1_555
O8 Sm1 1_555 1_555
O9 Sm1 1_555 1_555
O10 H1 1_555 1_555
N1 Sm1 1_555 1_555
N2 Sm1 1_555 1_555
C1 O4 1_555 1_555
C2 N1 1_555 1_555
C3 C2 1_555 1_555
H2 C3 1_555 1_555
C4 C3 1_555 1_555
H3 C4 1_555 1_555
C5 C4 1_555 1_555
H4 C5 1_555 1_555
C6 N1 1_555 1_555
C7 O6 1_555 1_555
C8 O8 1_555 1_555
C9 N2 1_555 1_555
C10 C9 1_555 1_555
H5 C10 1_555 1_555
C11 C10 1_555 1_555
H6 C11 1_555 1_555
C12 C11 1_555 1_555
H7 C12 1_555 1_555
C13 N2 1_555 1_555
C14 O9 1_555 1_555
H9 O1 1_555 1_555
H10 O3 1_555 1_555
H11 O3 1_555 1_555
O11 H12 1_555 1_555
H13 O11 1_555 1_555
O12 H14 1_555 1_555
H15 O12 1_555 1_555
O13 H16 1_555 1_555
H17 O13 1_555 1_555
O14 H18 1_555 1_555
H19 O14 1_555 1_555
Sm1C O2 1_555 1_555
O2C Sm1 1_555 1_555
O10 C14 1_555 1_555
C1 C2 1_555 1_555
C5 C6 1_555 1_555
C6 C7 1_555 1_555
C8 C9 1_555 1_555
C12 C13 1_555 1_555
C13 C14 1_555 1_555

#END
