
#######################################################################
#
#                 Cambridge Crystallographic Data Centre
#                                CCDC 
#
#######################################################################
#
# If this CIF has been generated from an entry in the Cambridge 
# Structural Database, then it will include bibliographic, chemical, 
# crystal, experimental, refinement or atomic coordinate data resulting 
# from the CCDC's data processing and validation procedures.
#
#######################################################################

data_FONCUH
_symmetry_cell_setting           monoclinic
_symmetry_space_group_name_H-M   'P 21/c'
_symmetry_Int_Tables_number      14
_space_group_name_Hall           '-P 2ybc'
loop_
_symmetry_equiv_pos_site_id
_symmetry_equiv_pos_as_xyz
1 x,y,z
2 -x,1/2+y,1/2-z
3 -x,-y,-z
4 x,1/2-y,1/2+z
_cell_length_a                   13.973(3)
_cell_length_b                   11.203(2)
_cell_length_c                   12.830(3)
_cell_angle_alpha                90
_cell_angle_beta                 102.367(4)
_cell_angle_gamma                90
_cell_volume                     1961.8
loop_
_atom_site_label
_atom_site_type_symbol
_atom_site_fract_x
_atom_site_fract_y
_atom_site_fract_z
Sm1 Sm 0.73035(3) 0.79558(4) 0.35103(4)
C1 C 0.5056(7) 0.6854(8) 0.3672(7)
C2 C 0.4052(6) 0.6802(7) 0.3677(7)
H1 H 0.3751 0.6067 0.3713
C3 C 0.3525(7) 0.7811(8) 0.3627(7)
H2 H 0.2855 0.7780 0.3597
C4 C 0.4007(6) 0.8927(8) 0.3622(7)
H3 H 0.3662 0.9640 0.3595
C5 C 0.4993(7) 0.8923(7) 0.3658(7)
C6 C 0.5576(6) 1.0028(8) 0.3650(7)
C7 C 0.5712(6) 0.5792(7) 0.3729(7)
C8 C 0.8718(6) 1.0350(7) 0.4407(7)
C9 C 0.9068(6) 1.1357(8) 0.5012(7)
H4 H 0.9326 1.1998 0.4702
C10 C 0.9023(6) 1.1386(8) 0.6083(7)
H5 H 0.9268 1.2036 0.6506
C11 C 0.8614(6) 1.0443(8) 0.6504(7)
H6 H 0.8580 1.0439 0.7220
C12 C 0.8254(7) 0.9501(8) 0.5850(7)
C13 C 0.8788(6) 1.0229(8) 0.3263(7)
C14 C 0.7746(6) 0.8452(7) 0.6197(6)
N1 N 0.5511(5) 0.7895(6) 0.3667(6)
N2 N 0.8310(5) 0.9439(6) 0.4787(6)
O1 O 0.6451(5) 0.9935(5) 0.3632(5)
O2 O 0.5164(5) 1.0995(5) 0.3743(5)
H7 H 0.4741 1.1201 0.3074
O3 O 0.6583(4) 0.6014(5) 0.3678(5)
O4 O 0.5325(4) 0.4797(5) 0.3757(5)
O5 O 0.7810(4) 0.8300(5) 0.7164(5)
O6 O 0.7265(4) 0.7774(5) 0.5461(5)
O7 O 0.8438(4) 0.9274(5) 0.2805(5)
O8 O 0.9176(4) 1.1023(5) 0.2823(5)
O9 O 0.8731(4) 0.6867(5) 0.4348(5)
H8 H 0.8541 0.6143 0.4650
H9 H 0.9109 0.6675 0.3828
O10 O 0.6330(4) 0.8453(5) 0.1765(4)
H10 H 0.6709 0.8575 0.1338
H11 H 0.6000 0.9081 0.1811
Sm1C Sm 0.73035(3) 0.70442(4) 0.85103(4)
O5C O 0.7810(4) 0.6700(5) 0.2164(5)
O11 O 0.9600(4) 0.8069(5) 0.1489(5)
H12 H 0.9372 0.7366 0.1494
H13 H 0.9186 0.8454 0.1757
O12 O 0.8020(4) 0.4057(5) 0.4116(5)
H14 H 0.8158 0.4241 0.4773
H15 H 0.7402 0.3999 0.3905
O13 O 0.6293(4) 0.2760(5) 0.3857(5)
H16 H 0.6327 0.2282 0.4379
H17 H 0.5815 0.3235 0.3834
O14 O 0.9710(4) 0.0574(5) 0.0974(5)
H18 H 0.9546 0.0756 0.1640
H19 H 0.9845 -0.0163 0.0900
loop_
_geom_bond_atom_site_label_1
_geom_bond_atom_site_label_2
_geom_bond_site_symmetry_1
_geom_bond_site_symmetry_2
Sm1 N1 1_555 1_555
C1 C2 1_555 1_555
C2 H1 1_555 1_555
C3 C2 1_555 1_555
H2 C3 1_555 1_555
C4 C3 1_555 1_555
H3 C4 1_555 1_555
C5 C4 1_555 1_555
C6 C5 1_555 1_555
C7 C1 1_555 1_555
C8 C9 1_555 1_555
C9 H4 1_555 1_555
C10 C9 1_555 1_555
H5 C10 1_555 1_555
C11 C10 1_555 1_555
H6 C11 1_555 1_555
C12 C11 1_555 1_555
C13 C8 1_555 1_555
C14 C12 1_555 1_555
N1 C1 1_555 1_555
N2 Sm1 1_555 1_555
O1 Sm1 1_555 1_555
O2 C6 1_555 1_555
H7 O2 1_555 1_555
O3 Sm1 1_555 1_555
O4 C7 1_555 1_555
O5 C14 1_555 1_555
O6 Sm1 1_555 1_555
O7 Sm1 1_555 1_555
O8 C13 1_555 1_555
O9 Sm1 1_555 1_555
H8 O9 1_555 1_555
H9 O9 1_555 1_555
O10 Sm1 1_555 1_555
H10 O10 1_555 1_555
H11 O10 1_555 1_555
O11 H12 1_555 1_555
H13 O11 1_555 1_555
O12 H14 1_555 1_555
H15 O12 1_555 1_555
O13 H16 1_555 1_555
H17 O13 1_555 1_555
O14 H18 1_555 1_555
H19 O14 1_555 1_555
Sm1C O5 1_555 1_555
O5C Sm1 1_555 1_555
C5 N1 1_555 1_555
C6 O1 1_555 1_555
C7 O3 1_555 1_555
C8 N2 1_555 1_555
C12 N2 1_555 1_555
C13 O7 1_555 1_555
C14 O6 1_555 1_555

#END
