
#######################################################################
#
#                 Cambridge Crystallographic Data Centre
#                                CCDC 
#
#######################################################################
#
# If this CIF has been generated from an entry in the Cambridge 
# Structural Database, then it will include bibliographic, chemical, 
# crystal, experimental, refinement or atomic coordinate data resulting 
# from the CCDC's data processing and validation procedures.
#
#######################################################################

data_FONKIE
_symmetry_cell_setting           monoclinic
_symmetry_space_group_name_H-M   'P 2/n'
_symmetry_Int_Tables_number      13
_space_group_name_Hall           '-P 2yac'
loop_
_symmetry_equiv_pos_site_id
_symmetry_equiv_pos_as_xyz
1 x,y,z
2 1/2-x,y,1/2-z
3 -x,-y,-z
4 1/2+x,-y,1/2+z
_cell_length_a                   10.0418(12)
_cell_length_b                   9.7038(12)
_cell_length_c                   26.051(3)
_cell_angle_alpha                90
_cell_angle_beta                 95.109(2)
_cell_angle_gamma                90
_cell_volume                     2528.42
loop_
_atom_site_label
_atom_site_type_symbol
_atom_site_fract_x
_atom_site_fract_y
_atom_site_fract_z
Cd1 Cd 0.2500 0.15097(7) 0.2500
Cd2 Cd 1.06323(5) 0.37816(5) 0.42418(2)
O1 O 0.4442(6) 0.3599(6) 0.25994(19)
N1 N 1.1942(6) 0.5349(6) 0.3852(2)
C1 C 1.2104(7) 0.5721(8) 0.3347(3)
H1 H 1.1689 0.5299 0.3055
N2 N 1.3359(6) 0.7102(6) 0.3864(2)
O2 O 0.3498(5) 0.2524(5) 0.32129(18)
C2 C 1.2972(7) 0.6806(8) 0.3349(3)
H2 H 1.3249 0.7259 0.3062
C3 C 1.2696(7) 0.6187(7) 0.4148(3)
H3 H 1.2769 0.6161 0.4506
N3 N 1.7429(6) 1.0801(6) 0.4561(2)
O3 O 1.0951(7) 0.9579(7) 0.2428(2)
C4 C 1.4337(7) 0.8088(7) 0.4066(3)
O4 O 1.1129(7) 1.0608(7) 0.3148(2)
N4 N 1.9116(6) 1.2250(6) 0.4517(2)
O5 O 0.9418(4) 0.5606(5) 0.44984(18)
C5 C 1.4524(8) 0.9270(8) 0.3778(3)
H4 H 1.3985 0.9443 0.3476
O6 O 0.9608(5) 0.3230(6) 0.3384(2)
H5 H 1.0260 0.3329 0.3138
H6 H 0.9289 0.2297 0.3380
C6 C 1.5517(8) 1.0175(8) 0.3947(3)
H7 H 1.5657 1.0967 0.3758
O7 O 0.7866(5) 0.6015(5) 0.50426(18)
C7 C 1.6322(7) 0.9907(7) 0.4403(3)
O8 O 1.2038(5) 0.1909(5) 0.40432(19)
H8 H 1.2709 0.2086 0.3877
H9 H 1.1821 0.1074 0.3986
C8 C 1.6085(7) 0.8756(7) 0.4698(3)
H10 H 1.6581 0.8607 0.5012
C9 C 1.5110(7) 0.7840(7) 0.4520(3)
H11 H 1.4969 0.7046 0.4708
C10 C 1.8062(8) 1.0917(9) 0.5043(3)
H12 H 1.7832 1.0468 0.5338
C11 C 1.9080(8) 1.1803(8) 0.5013(3)
H13 H 1.9674 1.2072 0.5290
C12 C 1.8096(7) 1.1627(7) 0.4258(3)
H14 H 1.7865 1.1747 0.3907
C13 C 0.8230(7) 0.5664(7) 0.4615(3)
C14 C 0.7137(7) 0.5242(7) 0.4207(3)
C15 C 0.7163(6) 0.5594(7) 0.3677(3)
C16 C 0.6205(7) 0.4998(7) 0.3323(3)
H15 H 0.6216 0.5225 0.2977
C17 C 0.5237(7) 0.4083(7) 0.3463(2)
C18 C 0.5190(7) 0.3826(7) 0.3990(3)
H16 H 0.4527 0.3255 0.4099
C19 C 0.6121(7) 0.4413(8) 0.4352(3)
H17 H 0.6058 0.4243 0.4700
C20 C 0.4325(7) 0.3365(7) 0.3055(3)
C21 C 0.8101(7) 0.6624(7) 0.3483(3)
C22 C 0.8619(8) 0.6439(8) 0.3010(3)
H18 H 0.8421 0.5635 0.2824
C23 C 0.9417(8) 0.7423(8) 0.2812(3)
H19 H 0.9711 0.7292 0.2487
C24 C 0.9789(7) 0.8595(7) 0.3084(3)
C25 C 0.9289(8) 0.8796(7) 0.3561(3)
H20 H 0.9522 0.9586 0.3750
C26 C 0.8453(7) 0.7838(8) 0.3756(3)
H21 H 0.8119 0.7998 0.4072
C27 C 1.0673(7) 0.9673(8) 0.2866(3)
Cd2A Cd -0.56323(5) 0.37816(5) 0.07582(2)
O1A O 0.0558(6) 0.3599(6) 0.24006(19)
N1A N -0.6942(6) 0.5349(6) 0.1148(2)
C1A C -0.7104(7) 0.5721(8) 0.1653(3)
H1A H -0.6689 0.5299 0.1945
N2A N -0.8359(6) 0.7102(6) 0.1136(2)
O2A O 0.1502(5) 0.2524(5) 0.17871(18)
C2A C -0.7972(7) 0.6806(8) 0.1651(3)
H2A H -0.8249 0.7259 0.1938
C3A C -0.7696(7) 0.6187(7) 0.0852(3)
H3A H -0.7769 0.6161 0.0494
N3A N -1.2429(6) 1.0801(6) 0.0439(2)
O3A O -0.5951(7) 0.9579(7) 0.2572(2)
C4A C -0.9337(7) 0.8088(7) 0.0934(3)
O4A O -0.6129(7) 1.0608(7) 0.1852(2)
N4A N -1.4116(6) 1.2250(6) 0.0483(2)
O5A O -0.4418(4) 0.5606(5) 0.05016(18)
C5A C -0.9524(8) 0.9270(8) 0.1222(3)
H4A H -0.8985 0.9443 0.1524
O6A O -0.4608(5) 0.3230(6) 0.1616(2)
H5A H -0.5260 0.3329 0.1862
H6A H -0.4289 0.2297 0.1620
C6A C -1.0517(8) 1.0175(8) 0.1053(3)
H7A H -1.0657 1.0967 0.1242
O7A O -0.2866(5) 0.6015(5) -0.00426(18)
C7A C -1.1322(7) 0.9907(7) 0.0597(3)
O8A O -0.7038(5) 0.1909(5) 0.09568(19)
H8A H -0.7709 0.2086 0.1123
H9A H -0.6821 0.1074 0.1014
C8A C -1.1085(7) 0.8756(7) 0.0302(3)
H10A H -1.1581 0.8607 -0.0012
C9A C -1.0110(7) 0.7840(7) 0.0480(3)
H11A H -0.9969 0.7046 0.0292
C10A C -1.3062(8) 1.0917(9) -0.0043(3)
H12A H -1.2832 1.0468 -0.0338
C11A C -1.4080(8) 1.1803(8) -0.0013(3)
H13A H -1.4674 1.2072 -0.0290
C12A C -1.3096(7) 1.1627(7) 0.0742(3)
H14A H -1.2865 1.1747 0.1093
C13A C -0.3230(7) 0.5664(7) 0.0385(3)
C14A C -0.2137(7) 0.5242(7) 0.0793(3)
C15A C -0.2163(6) 0.5594(7) 0.1323(3)
C16A C -0.1205(7) 0.4998(7) 0.1677(3)
H15A H -0.1216 0.5225 0.2023
C17A C -0.0237(7) 0.4083(7) 0.1537(2)
C18A C -0.0190(7) 0.3826(7) 0.1010(3)
H16A H 0.0473 0.3255 0.0901
C19A C -0.1121(7) 0.4413(8) 0.0648(3)
H17A H -0.1058 0.4243 0.0300
C20A C 0.0675(7) 0.3365(7) 0.1945(3)
C21A C -0.3101(7) 0.6624(7) 0.1517(3)
C22A C -0.3619(8) 0.6439(8) 0.1990(3)
H18A H -0.3421 0.5635 0.2176
C23A C -0.4417(8) 0.7423(8) 0.2188(3)
H19A H -0.4711 0.7292 0.2513
C24A C -0.4789(7) 0.8595(7) 0.1916(3)
C25A C -0.4289(8) 0.8796(7) 0.1439(3)
H20A H -0.4522 0.9586 0.1250
C26A C -0.3453(7) 0.7838(8) 0.1244(3)
H21A H -0.3119 0.7998 0.0928
C27A C -0.5673(7) 0.9673(8) 0.2134(3)
Cd1_2 Cd -0.7500 1.15097(7) 0.2500
Cd1_3 Cd 1.2500 1.15097(7) 0.2500
Cd2_2 Cd 2.06323(5) 1.37816(5) 0.42418(2)
Cd2A_2 Cd -1.56323(5) 1.37816(5) 0.07582(2)
Cd2B Cd 0.93677(5) 0.62184(5) 0.57582(2)
Cd2C Cd -0.43677(5) 0.62184(5) -0.07582(2)
O3_2 O 0.0951(7) -0.0421(7) 0.2428(2)
O3A_2 O 0.4049(7) -0.0421(7) 0.2572(2)
O4_2 O 0.1129(7) 0.0608(7) 0.3148(2)
O4A_2 O 0.3871(7) 0.0608(7) 0.1852(2)
N4_2 N 0.9116(6) 0.2250(6) 0.4517(2)
N4A_2 N -0.4116(6) 0.2250(6) 0.0483(2)
O7B O 1.2134(5) 0.3985(5) 0.49574(18)
O7C O -0.7134(5) 0.3985(5) 0.00426(18)
O9 O 0.6874(18) 0.056(4) 0.2917(7)
H22 H 0.7445 -0.0151 0.2911
H23 H 0.6781 0.1101 0.2635
O10? O 0.726(2) 0.215(5) 0.2851(9)
H24? H 0.6910 0.3003 0.2858
H25? H 0.7625 0.2068 0.2570
loop_
_geom_bond_atom_site_label_1
_geom_bond_atom_site_label_2
_geom_bond_site_symmetry_1
_geom_bond_site_symmetry_2
Cd1 O1 1_555 1_555
Cd2 N1 1_555 1_555
O1 C20 1_555 1_555
N1 C1 1_555 1_555
C1 H1 1_555 1_555
N2 C2 1_555 1_555
O2 Cd1 1_555 1_555
C2 C1 1_555 1_555
H2 C2 1_555 1_555
C3 N1 1_555 1_555
H3 C3 1_555 1_555
N3 C7 1_555 1_555
O3 C27 1_555 1_555
C4 N2 1_555 1_555
O4 C27 1_555 1_555
N4 C11 1_555 1_555
O5 Cd2 1_555 1_555
C5 C4 1_555 1_555
H4 C5 1_555 1_555
O6 Cd2 1_555 1_555
H5 O6 1_555 1_555
H6 O6 1_555 1_555
C6 C5 1_555 1_555
H7 C6 1_555 1_555
O7 C13 1_555 1_555
C7 C6 1_555 1_555
O8 Cd2 1_555 1_555
H8 O8 1_555 1_555
H9 O8 1_555 1_555
C8 C7 1_555 1_555
H10 C8 1_555 1_555
C9 C4 1_555 1_555
H11 C9 1_555 1_555
C10 N3 1_555 1_555
H12 C10 1_555 1_555
C11 C10 1_555 1_555
H13 C11 1_555 1_555
C12 N3 1_555 1_555
H14 C12 1_555 1_555
C13 O5 1_555 1_555
C14 C13 1_555 1_555
C15 C14 1_555 1_555
C16 C15 1_555 1_555
H15 C16 1_555 1_555
C17 C16 1_555 1_555
C18 C17 1_555 1_555
H16 C18 1_555 1_555
C19 C14 1_555 1_555
H17 C19 1_555 1_555
C20 O2 1_555 1_555
C21 C15 1_555 1_555
C22 C21 1_555 1_555
H18 C22 1_555 1_555
C23 C22 1_555 1_555
H19 C23 1_555 1_555
C24 C23 1_555 1_555
C25 C24 1_555 1_555
H20 C25 1_555 1_555
C26 C21 1_555 1_555
H21 C26 1_555 1_555
C27 C24 1_555 1_555
O9 H22 1_555 1_555
H23 O9 1_555 1_555
Cd2A N1A 1_555 1_555
O1A Cd1 1_555 1_555
N1A C1A 1_555 1_555
C1A H1A 1_555 1_555
N2A C2A 1_555 1_555
O2A Cd1 1_555 1_555
C2A C1A 1_555 1_555
H2A C2A 1_555 1_555
C3A N1A 1_555 1_555
H3A C3A 1_555 1_555
N3A C7A 1_555 1_555
O3A C27A 1_555 1_555
C4A N2A 1_555 1_555
O4A C27A 1_555 1_555
N4A C11A 1_555 1_555
O5A Cd2A 1_555 1_555
C5A C4A 1_555 1_555
H4A C5A 1_555 1_555
O6A Cd2A 1_555 1_555
H5A O6A 1_555 1_555
H6A O6A 1_555 1_555
C6A C5A 1_555 1_555
H7A C6A 1_555 1_555
O7A C13A 1_555 1_555
C7A C6A 1_555 1_555
O8A Cd2A 1_555 1_555
H8A O8A 1_555 1_555
H9A O8A 1_555 1_555
C8A C7A 1_555 1_555
H10A C8A 1_555 1_555
C9A C4A 1_555 1_555
H11A C9A 1_555 1_555
C10A N3A 1_555 1_555
H12A C10A 1_555 1_555
C11A C10A 1_555 1_555
H13A C11A 1_555 1_555
C12A N3A 1_555 1_555
H14A C12A 1_555 1_555
C13A O5A 1_555 1_555
C14A C13A 1_555 1_555
C15A C14A 1_555 1_555
C16A C15A 1_555 1_555
H15A C16A 1_555 1_555
C17A C16A 1_555 1_555
C18A C17A 1_555 1_555
H16A C18A 1_555 1_555
C19A C14A 1_555 1_555
H17A C19A 1_555 1_555
C20A O1A 1_555 1_555
C21A C15A 1_555 1_555
C22A C21A 1_555 1_555
H18A C22A 1_555 1_555
C23A C22A 1_555 1_555
H19A C23A 1_555 1_555
C24A C23A 1_555 1_555
C25A C24A 1_555 1_555
H20A C25A 1_555 1_555
C26A C21A 1_555 1_555
H21A C26A 1_555 1_555
C27A C24A 1_555 1_555
Cd1_2 O3A 1_555 1_555
Cd1_3 O3 1_555 1_555
Cd2_2 N4 1_555 1_555
Cd2A_2 N4A 1_555 1_555
Cd2B O7 1_555 1_555
Cd2C O7A 1_555 1_555
O3_2 Cd1 1_555 1_555
O3A_2 Cd1 1_555 1_555
O4_2 Cd1 1_555 1_555
O4A_2 Cd1 1_555 1_555
N4_2 Cd2 1_555 1_555
N4A_2 Cd2A 1_555 1_555
O7B Cd2 1_555 1_555
O7C Cd2A 1_555 1_555
N2 C3 1_555 1_555
O4 Cd1_3 1_555 1_555
N4 C12 1_555 1_555
C8 C9 1_555 1_555
C17 C20 1_555 1_555
C18 C19 1_555 1_555
C25 C26 1_555 1_555
N2A C3A 1_555 1_555
O2A C20A 1_555 1_555
O4A Cd1_2 1_555 1_555
N4A C12A 1_555 1_555
C8A C9A 1_555 1_555
C17A C20A 1_555 1_555
C18A C19A 1_555 1_555
C25A C26A 1_555 1_555

#END
