
#######################################################################
#
#                 Cambridge Crystallographic Data Centre
#                                CCDC 
#
#######################################################################
#
# If this CIF has been generated from an entry in the Cambridge 
# Structural Database, then it will include bibliographic, chemical, 
# crystal, experimental, refinement or atomic coordinate data resulting 
# from the CCDC's data processing and validation procedures.
#
#######################################################################

data_FONNAY
_symmetry_cell_setting           monoclinic
_symmetry_space_group_name_H-M   'C 2/c'
_symmetry_Int_Tables_number      15
_space_group_name_Hall           '-C 2yn'
loop_
_symmetry_equiv_pos_site_id
_symmetry_equiv_pos_as_xyz
1 x,y,z
2 1/2+x,1/2+y,z
3 -x,y,1/2-z
4 1/2-x,1/2+y,1/2-z
5 -x,-y,-z
6 1/2-x,1/2-y,-z
7 x,-y,1/2+z
8 1/2+x,1/2-y,1/2+z
_cell_length_a                   16.1580(10)
_cell_length_b                   19.7620(10)
_cell_length_c                   11.2140(10)
_cell_angle_alpha                90.00
_cell_angle_beta                 111.7440(10)
_cell_angle_gamma                90.00
_cell_volume                     3326.01
loop_
_atom_site_label
_atom_site_type_symbol
_atom_site_fract_x
_atom_site_fract_y
_atom_site_fract_z
C1 C 0.21161(7) 0.27516(6) 0.48606(11)
C2 C 0.18955(9) 0.04958(6) 0.16660(12)
C3 C 0.34030(10) 0.06554(8) 0.23367(15)
C4 C 0.34560(12) 0.03142(9) 0.12868(17)
C5 C 0.26822(13) 0.00475(8) 0.03926(15)
C6 C 0.18940(11) 0.01393(7) 0.05793(13)
C7 C 0.11927(7) 0.20629(6) 0.62707(11)
C8 C 0.10759(11) 0.13982(7) 0.65679(14)
C9 C 0.11431(14) 0.12311(9) 0.78081(16)
C10 C 0.13136(11) 0.17258(8) 0.87368(14)
C11 C 0.14230(11) 0.23902(8) 0.84422(13)
C12 C 0.13678(10) 0.25597(7) 0.72133(12)
C13 C 0.02261(7) 0.29363(6) 0.42120(10)
C14 C -0.06545(8) 0.27221(6) 0.38988(11)
C15 C -0.13423(8) 0.31919(7) 0.35872(12)
C16 C -0.11634(9) 0.38768(8) 0.35832(14)
C17 C -0.02901(10) 0.40923(7) 0.39068(16)
C18 C 0.04060(9) 0.36265(7) 0.42179(15)
N1 N 0.26453(8) 0.07510(6) 0.25429(11)
Au1 Au 0.096655(3) 0.142670(2) 0.329497(4)
P1 P 0.109390(19) 0.229772(15) 0.46618(3)
S1 S 0.08627(2) 0.057827(18) 0.18311(3)
H1 H 0.2227(14) 0.3112(11) 0.549(2)
H2 H 0.2029(13) 0.2980(10) 0.4076(19)
H3 H 0.3908(15) 0.0833(11) 0.294(2)
H4 H 0.3993(15) 0.0318(12) 0.121(2)
H5 H 0.2691(16) -0.0199(12) -0.034(2)
H6 H 0.1365(16) -0.0027(12) -0.002(2)
H7 H 0.0917(15) 0.1096(12) 0.589(2)
H8 H 0.1050(18) 0.0796(15) 0.794(3)
H9 H 0.1343(18) 0.1624(14) 0.955(3)
H10 H 0.1554(14) 0.2739(12) 0.908(2)
H11 H 0.1454(14) 0.2998(11) 0.705(2)
H12 H -0.0785(12) 0.2272(10) 0.3843(18)
H13 H -0.1932(13) 0.3035(10) 0.3409(19)
H14 H -0.1627(14) 0.4180(11) 0.339(2)
H15 H -0.0153(14) 0.4574(11) 0.390(2)
H16 H 0.0989(15) 0.3782(11) 0.442(2)
C1E C 0.28839(7) 0.22484(6) 0.51394(11)
C2E C 0.31045(9) 0.45042(6) 0.83340(12)
C3E C 0.15970(10) 0.43446(8) 0.76633(15)
C4E C 0.15440(12) 0.46858(9) 0.87132(17)
C5E C 0.23178(13) 0.49525(8) 0.96074(15)
C6E C 0.31060(11) 0.48607(7) 0.94207(13)
C7E C 0.38073(7) 0.29371(6) 0.37293(11)
C8E C 0.39241(11) 0.36018(7) 0.34321(14)
C9E C 0.38569(14) 0.37689(9) 0.21919(16)
C10E C 0.36864(11) 0.32742(8) 0.12632(14)
C11E C 0.35770(11) 0.26098(8) 0.15578(13)
C12E C 0.36322(10) 0.24403(7) 0.27867(12)
C13E C 0.47739(7) 0.20637(6) 0.57880(10)
C14E C 0.56545(8) 0.22779(6) 0.61012(11)
C15E C 0.63423(8) 0.18081(7) 0.64128(12)
C16E C 0.61634(9) 0.11232(8) 0.64168(14)
C17E C 0.52901(10) 0.09077(7) 0.60932(16)
C18E C 0.45940(9) 0.13735(7) 0.57821(15)
N1E N 0.23547(8) 0.42490(6) 0.74571(11)
Au1E Au 0.403345(3) 0.357330(2) 0.670503(4)
Au1B Au -0.096655(3) 0.142670(2) 0.170503(4)
Au1G Au 0.596655(3) 0.357330(2) 0.829497(4)
P1E P 0.390610(19) 0.270228(15) 0.53382(3)
S1E S 0.41373(2) 0.442173(18) 0.81689(3)
H1E H 0.2773(14) 0.1888(11) 0.451(2)
H2E H 0.2971(13) 0.2020(10) 0.5924(19)
H3E H 0.1092(15) 0.4167(11) 0.706(2)
H4E H 0.1007(15) 0.4682(12) 0.879(2)
H5E H 0.2309(16) 0.5199(12) 1.034(2)
H6E H 0.3635(16) 0.5027(12) 1.002(2)
H7E H 0.4083(15) 0.3904(12) 0.411(2)
H8E H 0.3950(18) 0.4204(15) 0.206(3)
H9E H 0.3657(18) 0.3376(14) 0.045(3)
H10E H 0.3446(14) 0.2261(12) 0.092(2)
H11E H 0.3546(14) 0.2002(11) 0.295(2)
H12E H 0.5785(12) 0.2728(10) 0.6157(18)
H13E H 0.6932(13) 0.1965(10) 0.6591(19)
H14E H 0.6627(14) 0.0820(11) 0.661(2)
H15E H 0.5153(14) 0.0426(11) 0.610(2)
H16E H 0.4011(15) 0.1218(11) 0.558(2)
loop_
_geom_bond_atom_site_label_1
_geom_bond_atom_site_label_2
_geom_bond_site_symmetry_1
_geom_bond_site_symmetry_2
C1 P1 1_555 1_555
C2 C6 1_555 1_555
C3 C4 1_555 1_555
C4 C5 1_555 1_555
C5 C6 1_555 1_555
C6 H6 1_555 1_555
C7 C8 1_555 1_555
C8 C9 1_555 1_555
C9 C10 1_555 1_555
C10 C11 1_555 1_555
C11 C12 1_555 1_555
C12 C7 1_555 1_555
C13 C14 1_555 1_555
C14 C15 1_555 1_555
C15 C16 1_555 1_555
C16 C17 1_555 1_555
C17 C18 1_555 1_555
C18 C13 1_555 1_555
N1 C2 1_555 1_555
Au1 P1 1_555 1_555
P1 C7 1_555 1_555
S1 C2 1_555 1_555
H1 C1 1_555 1_555
H2 C1 1_555 1_555
H3 C3 1_555 1_555
H4 C4 1_555 1_555
H5 C5 1_555 1_555
H7 C8 1_555 1_555
H8 C9 1_555 1_555
H9 C10 1_555 1_555
H10 C11 1_555 1_555
H11 C12 1_555 1_555
H12 C14 1_555 1_555
H13 C15 1_555 1_555
H14 C16 1_555 1_555
H15 C17 1_555 1_555
H16 C18 1_555 1_555
C1E C1 1_555 1_555
C2E C6E 1_555 1_555
C3E C4E 1_555 1_555
C4E C5E 1_555 1_555
C5E C6E 1_555 1_555
C6E H6E 1_555 1_555
C7E C8E 1_555 1_555
C8E C9E 1_555 1_555
C9E C10E 1_555 1_555
C10E C11E 1_555 1_555
C11E C12E 1_555 1_555
C12E C7E 1_555 1_555
C13E C14E 1_555 1_555
C14E C15E 1_555 1_555
C15E C16E 1_555 1_555
C16E C17E 1_555 1_555
C17E C18E 1_555 1_555
C18E C13E 1_555 1_555
N1E C2E 1_555 1_555
Au1E Au1G 1_555 1_555
Au1B Au1 1_555 1_555
P1E C1E 1_555 1_555
S1E C2E 1_555 1_555
H1E C1E 1_555 1_555
H2E C1E 1_555 1_555
H3E C3E 1_555 1_555
H4E C4E 1_555 1_555
H5E C5E 1_555 1_555
H7E C8E 1_555 1_555
H8E C9E 1_555 1_555
H9E C10E 1_555 1_555
H10E C11E 1_555 1_555
H11E C12E 1_555 1_555
H12E C14E 1_555 1_555
H13E C15E 1_555 1_555
H14E C16E 1_555 1_555
H15E C17E 1_555 1_555
H16E C18E 1_555 1_555
C3 N1 1_555 1_555
C13 P1 1_555 1_555
Au1 S1 1_555 1_555
C3E N1E 1_555 1_555
C7E P1E 1_555 1_555
C13E P1E 1_555 1_555
Au1E P1E 1_555 1_555
Au1E S1E 1_555 1_555

#END
