
#######################################################################
#
#                 Cambridge Crystallographic Data Centre
#                                CCDC 
#
#######################################################################
#
# If this CIF has been generated from an entry in the Cambridge 
# Structural Database, then it will include bibliographic, chemical, 
# crystal, experimental, refinement or atomic coordinate data resulting 
# from the CCDC's data processing and validation procedures.
#
#######################################################################

data_FONQIJ
_symmetry_cell_setting           tetragonal
_symmetry_space_group_name_H-M   'P 43'
_symmetry_Int_Tables_number      78
_space_group_name_Hall           'P 4cw'
loop_
_symmetry_equiv_pos_site_id
_symmetry_equiv_pos_as_xyz
1 x,y,z
2 -y,x,3/4+z
3 -x,-y,1/2+z
4 y,-x,1/4+z
_cell_length_a                   10.8281(19)
_cell_length_b                   10.8281(19)
_cell_length_c                   19.043(4)
_cell_angle_alpha                90
_cell_angle_beta                 90
_cell_angle_gamma                90
_cell_volume                     2232.75
loop_
_atom_site_label
_atom_site_type_symbol
_atom_site_fract_x
_atom_site_fract_y
_atom_site_fract_z
Mn1 Mn 0.60271(4) 0.97710(4) 0.10523(2)
C1 C 0.7912(3) 1.0620(3) 0.19625(17)
C2 C 0.7841(3) 0.9341(3) 0.20842(17)
C3 C 0.8607(3) 0.8796(3) 0.2582(2)
H1 H 0.8562 0.7951 0.2666
C4 C 0.9428(3) 0.9515(4) 0.2948(2)
H2 H 0.9928 0.9157 0.3288
C5 C 0.9517(3) 1.0757(4) 0.2815(2)
H3 H 1.0088 1.1230 0.3061
C6 C 0.8772(3) 1.1312(3) 0.2321(2)
H4 H 0.8849 1.2152 0.2231
N1 N 0.6976(2) 0.8731(2) 0.16533(15)
C7 C 0.6808(3) 0.7520(3) 0.15658(18)
C8 C 0.5867(3) 0.7211(2) 0.1006(2)
O1 O 0.5533(2) 0.83015(18) 0.06273(12)
C9 C 0.4718(4) 0.6670(4) 0.1352(2)
H5 H 0.4370 0.7266 0.1668
H6 H 0.4938 0.5939 0.1608
H7 H 0.4122 0.6465 0.0997
C10 C 0.6424(4) 0.6296(3) 0.0496(2)
H8 H 0.5851 0.6141 0.0122
H9 H 0.6601 0.5537 0.0737
H10 H 0.7175 0.6629 0.0306
O2 O 0.7334(3) 0.6686(2) 0.18993(16)
N2 N 0.7077(2) 1.1028(2) 0.14443(14)
C11 C 0.6955(3) 1.2160(2) 0.11696(18)
C12 C 0.5988(3) 1.2209(3) 0.05795(18)
O3 O 0.5569(2) 1.09977(18) 0.04226(13)
C13 C 0.4894(4) 1.2973(3) 0.0838(3)
H11 H 0.4295 1.3048 0.0468
H12 H 0.5175 1.3779 0.0973
H13 H 0.4523 1.2572 0.1235
C14 C 0.6558(4) 1.2754(4) -0.0066(2)
H14 H 0.7184 1.2207 -0.0241
H15 H 0.6921 1.3538 0.0047
H16 H 0.5933 1.2866 -0.0418
O4 O 0.7520(3) 1.31038(19) 0.13512(14)
O5 O 0.4431(2) 1.0018(3) 0.17732(14)
C15 C 0.3207(4) 0.9913(5) 0.1536(3)
H17 H 0.3150 0.9320 0.1155
H18 H 0.2902 1.0704 0.1372
C16 C 0.2492(7) 0.9485(10) 0.2154(5)
H19 H 0.2223 0.8639 0.2085
H20 H 0.1767 0.9998 0.2218
C17 C 0.3329(8) 0.9569(8) 0.2805(4)
H21 H 0.3005 1.0159 0.3142
H22 H 0.3408 0.8771 0.3032
C18 C 0.4467(5) 0.9965(7) 0.2536(3)
H23 H 0.5112 0.9400 0.2684
H24 H 0.4661 1.0776 0.2721
Na1 Na 0.51840(10) 0.81730(11) -0.05610(7)
O6 O 0.4711(3) 1.0200(3) -0.07889(15)
H25 H 0.4927 1.0439 -0.0399
C19 C 0.3530(4) 1.0670(5) -0.0942(3)
H26 H 0.3041 1.0681 -0.0521
H27 H 0.3138 1.0155 -0.1286
H28 H 0.3605 1.1495 -0.1122
O2A O 0.3314(2) 0.7334(3) -0.06007(16)
O4A O 0.68962(19) 0.7520(3) -0.11488(14)
Na1C Na 0.81730(11) 0.48160(10) 0.19390(7)
Na1C_2 Na 0.81730(11) 1.48160(10) 0.19390(7)
loop_
_geom_bond_atom_site_label_1
_geom_bond_atom_site_label_2
_geom_bond_site_symmetry_1
_geom_bond_site_symmetry_2
Mn1 N1 1_555 1_555
C1 C2 1_555 1_555
C2 C3 1_555 1_555
C3 H1 1_555 1_555
C4 C3 1_555 1_555
H2 C4 1_555 1_555
C5 C4 1_555 1_555
H3 C5 1_555 1_555
C6 C1 1_555 1_555
H4 C6 1_555 1_555
N1 C2 1_555 1_555
C7 N1 1_555 1_555
C8 C7 1_555 1_555
O1 Mn1 1_555 1_555
C9 C8 1_555 1_555
H5 C9 1_555 1_555
H6 C9 1_555 1_555
H7 C9 1_555 1_555
C10 C8 1_555 1_555
H8 C10 1_555 1_555
H9 C10 1_555 1_555
H10 C10 1_555 1_555
O2 C7 1_555 1_555
N2 Mn1 1_555 1_555
C11 N2 1_555 1_555
C12 C11 1_555 1_555
O3 Mn1 1_555 1_555
C13 C12 1_555 1_555
H11 C13 1_555 1_555
H12 C13 1_555 1_555
H13 C13 1_555 1_555
C14 C12 1_555 1_555
H14 C14 1_555 1_555
H15 C14 1_555 1_555
H16 C14 1_555 1_555
O4 C11 1_555 1_555
O5 Mn1 1_555 1_555
C15 O5 1_555 1_555
H17 C15 1_555 1_555
H18 C15 1_555 1_555
C16 C15 1_555 1_555
H19 C16 1_555 1_555
H20 C16 1_555 1_555
C17 C16 1_555 1_555
H21 C17 1_555 1_555
H22 C17 1_555 1_555
C18 O5 1_555 1_555
H23 C18 1_555 1_555
H24 C18 1_555 1_555
Na1 O1 1_555 1_555
O6 Na1 1_555 1_555
H25 O6 1_555 1_555
C19 O6 1_555 1_555
H26 C19 1_555 1_555
H27 C19 1_555 1_555
H28 C19 1_555 1_555
O2A Na1 1_555 1_555
O4A Na1 1_555 1_555
Na1C O2 1_555 1_555
Na1C_2 O4 1_555 1_555
C1 N2 1_555 1_555
C5 C6 1_555 1_555
C8 O1 1_555 1_555
C12 O3 1_555 1_555
C17 C18 1_555 1_555

#END
