
#######################################################################
#
#                 Cambridge Crystallographic Data Centre
#                                CCDC 
#
#######################################################################
#
# If this CIF has been generated from an entry in the Cambridge 
# Structural Database, then it will include bibliographic, chemical, 
# crystal, experimental, refinement or atomic coordinate data resulting 
# from the CCDC's data processing and validation procedures.
#
#######################################################################

data_FONSOR
_symmetry_cell_setting           triclinic
_symmetry_space_group_name_H-M   'P -1'
_symmetry_Int_Tables_number      2
_space_group_name_Hall           '-P 1'
loop_
_symmetry_equiv_pos_site_id
_symmetry_equiv_pos_as_xyz
1 x,y,z
2 -x,-y,-z
_cell_length_a                   9.492(3)
_cell_length_b                   11.595(3)
_cell_length_c                   13.788(4)
_cell_angle_alpha                67.790(4)
_cell_angle_beta                 76.009(4)
_cell_angle_gamma                85.033(4)
_cell_volume                     1363.21
loop_
_atom_site_label
_atom_site_type_symbol
_atom_site_fract_x
_atom_site_fract_y
_atom_site_fract_z
Ag1 Ag 0.0000 -1.0000 0.0000
Ag2 Ag -0.5000 -1.5000 0.5000
N1 N 0.0415(4) -0.8009(3) -0.0491(3)
N2 N -0.6811(5) 0.3777(4) -0.4252(3)
C1 C 0.1681(5) -0.7418(4) -0.1012(4)
H1 H 0.2508 -0.7889 -0.1115
C2 C 0.1814(6) -0.6142(4) -0.1403(4)
H2 H 0.2711 -0.5757 -0.1768
C3 C 0.0582(5) -0.5440(4) -0.1242(4)
H3 H 0.0637 -0.4575 -0.1513
C4 C -0.0717(5) -0.6036(4) -0.0678(4)
C5 C -0.0741(5) -0.7334(4) -0.0316(4)
H4 H -0.1618 -0.7745 0.0070
C6 C -0.2106(5) -0.5425(4) -0.0401(4)
C7 C -0.3513(5) -0.3621(4) -0.0926(4)
H5 H -0.4288 -0.4151 -0.0871
H6 H -0.3693 -0.3455 -0.0268
C8 C -0.3468(5) -0.2446(4) -0.1854(4)
C9 C -0.1729(8) -0.3020(6) -0.3621(5)
C10 C -0.0542(8) -0.1542(6) -0.2512(6)
C11 C -0.2698(7) -0.0416(5) -0.1341(5)
C12 C -0.2172(9) 0.0654(6) -0.3535(6)
C13 C -0.3192(8) -0.0732(6) -0.4648(5)
C14 C -0.4781(9) -0.2886(6) -0.3396(6)
C15 C -0.4308(5) -0.1462(4) -0.2239(4)
C16 C -0.5814(6) -0.1102(4) -0.1859(4)
H7 H -0.5941 -0.1096 -0.1142
H8 H -0.6492 -0.1701 -0.1829
C17 C -0.7491(5) 0.0460(4) -0.2434(4)
C18 C -0.7739(5) 0.1758(4) -0.3118(4)
C19 C -0.6610(5) 0.2587(4) -0.3702(4)
H9 H -0.5664 0.2297 -0.3709
C20 C -0.9146(6) 0.2190(5) -0.3117(4)
H10 H -0.9930 0.1651 -0.2734
C21 C -0.9370(6) 0.3431(5) -0.3693(4)
H11 H -1.0302 0.3746 -0.3712
C22 C -0.8180(6) 0.4175(5) -0.4232(4)
H12 H -0.8327 0.5013 -0.4611
Co1 Co -0.23572(8) -0.08873(6) -0.24672(6)
Co2 Co -0.32776(8) -0.20237(6) -0.33865(6)
O1 O -0.3070(4) -0.5927(3) 0.0340(3)
O2 O -0.2117(3) -0.4239(3) -0.1079(3)
O3 O -0.0768(6) -0.3630(5) -0.3735(4)
O4 O -0.5727(7) -0.3369(5) -0.3396(5)
O5 O -0.3154(7) 0.0117(5) -0.5405(4)
O6 O -0.8444(4) -0.0209(3) -0.1781(3)
O7 O -0.6101(4) 0.0130(3) -0.2594(3)
O8 O -0.2096(9) 0.1586(5) -0.4204(4)
O9 O -0.3001(6) -0.0146(5) -0.0597(4)
O10 O 0.0534(6) -0.2048(5) -0.2502(5)
Ag1_2 Ag -1.0000 0.0000 0.0000
Ag2_2 Ag -0.5000 0.5000 -0.5000
N1A N -0.0415(4) -1.1991(3) 0.0491(3)
N1A_2 N -1.0415(4) -0.1991(3) 0.0491(3)
N2A N -0.3189(5) -1.3777(4) 0.4252(3)
N2_2 N -0.6811(5) -1.6223(4) 0.5748(3)
C1A C -1.1681(5) -0.2582(4) 0.1012(4)
H1A H -1.2508 -0.2111 0.1115
C2A C -1.1814(6) -0.3858(4) 0.1403(4)
H2A H -1.2711 -0.4243 0.1768
C3A C -1.0582(5) -0.4560(4) 0.1242(4)
H3A H -1.0637 -0.5425 0.1513
C4A C -0.9283(5) -0.3964(4) 0.0678(4)
C5A C -0.9259(5) -0.2666(4) 0.0316(4)
H4A H -0.8382 -0.2255 -0.0070
C6A C -0.7894(5) -0.4575(4) 0.0401(4)
C7A C -0.6487(5) -0.6379(4) 0.0926(4)
H5A H -0.5712 -0.5849 0.0871
H6A H -0.6307 -0.6545 0.0268
C8A C -0.6532(5) -0.7554(4) 0.1854(4)
C9A C -0.8271(8) -0.6980(6) 0.3621(5)
C10A C -0.9458(8) -0.8458(6) 0.2512(6)
C11A C -0.7302(7) -0.9584(5) 0.1341(5)
C12A C -0.7828(9) -1.0654(6) 0.3535(6)
C13A C -0.6808(8) -0.9268(6) 0.4648(5)
C14A C -0.5219(9) -0.7114(6) 0.3396(6)
C15A C -0.5692(5) -0.8538(4) 0.2239(4)
C16A C -0.4186(6) -0.8898(4) 0.1859(4)
H7A H -0.4059 -0.8904 0.1142
H8A H -0.3508 -0.8299 0.1829
C17A C -0.2509(5) -1.0460(4) 0.2434(4)
C18A C -0.2261(5) -1.1758(4) 0.3118(4)
C19A C -0.3390(5) -1.2587(4) 0.3702(4)
H9A H -0.4336 -1.2297 0.3709
C20A C -0.0854(6) -1.2190(5) 0.3117(4)
H10A H -0.0070 -1.1651 0.2734
C21A C -0.0630(6) -1.3431(5) 0.3693(4)
H11A H 0.0302 -1.3746 0.3712
C22A C -0.1820(6) -1.4175(5) 0.4232(4)
H12A H -0.1673 -1.5013 0.4611
Co1A Co -0.76428(8) -0.91127(6) 0.24672(6)
Co2A Co -0.67224(8) -0.79763(6) 0.33865(6)
O1A O -0.6930(4) -0.4073(3) -0.0340(3)
O2A O -0.7883(3) -0.5761(3) 0.1079(3)
O3A O -0.9232(6) -0.6370(5) 0.3735(4)
O4A O -0.4273(7) -0.6631(5) 0.3396(5)
O5A O -0.6846(7) -1.0117(5) 0.5405(4)
O6_2 O 0.1556(4) -1.0209(3) -0.1781(3)
O6A O -0.1556(4) -0.9791(3) 0.1781(3)
O7A O -0.3899(4) -1.0130(3) 0.2594(3)
O8A O -0.7904(9) -1.1586(5) 0.4204(4)
O9A O -0.6999(6) -0.9854(5) 0.0597(4)
O10A O -1.0534(6) -0.7952(5) 0.2502(5)
Cl1 Cl 0.37221(17) 0.67251(15) -0.77344(14)
O11 O 0.4174(12) 0.5889(9) -0.8203(9)
O12 O 0.2479(6) 0.7335(6) -0.8011(5)
O13 O 0.3423(9) 0.6163(9) -0.6633(5)
O14 O 0.4820(7) 0.7586(7) -0.8040(7)
loop_
_geom_bond_atom_site_label_1
_geom_bond_atom_site_label_2
_geom_bond_site_symmetry_1
_geom_bond_site_symmetry_2
Ag1 N1 1_555 1_555
Ag2 N2A 1_555 1_555
N1 C1 1_555 1_555
N2 C19 1_555 1_555
C1 H1 1_555 1_555
C2 C1 1_555 1_555
H2 C2 1_555 1_555
C3 C2 1_555 1_555
H3 C3 1_555 1_555
C4 C3 1_555 1_555
C5 N1 1_555 1_555
H4 C5 1_555 1_555
C6 C4 1_555 1_555
C7 H5 1_555 1_555
H6 C7 1_555 1_555
C8 C7 1_555 1_555
C9 Co2 1_555 1_555
C10 Co1 1_555 1_555
C11 Co1 1_555 1_555
C12 Co1 1_555 1_555
C13 Co2 1_555 1_555
C14 Co2 1_555 1_555
C15 C8 1_555 1_555
C16 C15 1_555 1_555
H7 C16 1_555 1_555
H8 C16 1_555 1_555
C17 C18 1_555 1_555
C18 C19 1_555 1_555
C19 H9 1_555 1_555
C20 C18 1_555 1_555
H10 C20 1_555 1_555
C21 C20 1_555 1_555
H11 C21 1_555 1_555
C22 N2 1_555 1_555
H12 C22 1_555 1_555
Co1 C8 1_555 1_555
Co2 C8 1_555 1_555
Cl1 O11 1_555 1_555
O1 C6 1_555 1_555
O2 C6 1_555 1_555
O3 C9 1_555 1_555
O4 C14 1_555 1_555
O5 C13 1_555 1_555
O6 C17 1_555 1_555
O7 C16 1_555 1_555
O8 C12 1_555 1_555
O9 C11 1_555 1_555
O10 C10 1_555 1_555
O12 Cl1 1_555 1_555
O13 Cl1 1_555 1_555
O14 Cl1 1_555 1_555
Ag1_2 O6 1_555 1_555
Ag2_2 N2 1_555 1_555
N1A Ag1 1_555 1_555
N1A_2 Ag1_2 1_555 1_555
N2A C19A 1_555 1_555
N2_2 Ag2 1_555 1_555
C1A N1A_2 1_555 1_555
H1A C1A 1_555 1_555
C2A C1A 1_555 1_555
H2A C2A 1_555 1_555
C3A C2A 1_555 1_555
H3A C3A 1_555 1_555
C4A C3A 1_555 1_555
C5A N1A_2 1_555 1_555
H4A C5A 1_555 1_555
C6A C4A 1_555 1_555
C7A H5A 1_555 1_555
H6A C7A 1_555 1_555
C8A C7A 1_555 1_555
C9A Co2A 1_555 1_555
C10A Co1A 1_555 1_555
C11A Co1A 1_555 1_555
C12A Co1A 1_555 1_555
C13A Co2A 1_555 1_555
C14A Co2A 1_555 1_555
C15A C8A 1_555 1_555
C16A C15A 1_555 1_555
H7A C16A 1_555 1_555
H8A C16A 1_555 1_555
C17A C18A 1_555 1_555
C18A C19A 1_555 1_555
C19A H9A 1_555 1_555
C20A C18A 1_555 1_555
H10A C20A 1_555 1_555
C21A C20A 1_555 1_555
H11A C21A 1_555 1_555
C22A N2A 1_555 1_555
H12A C22A 1_555 1_555
Co1A C8A 1_555 1_555
Co2A C8A 1_555 1_555
O1A C6A 1_555 1_555
O2A C6A 1_555 1_555
O3A C9A 1_555 1_555
O4A C14A 1_555 1_555
O5A C13A 1_555 1_555
O6_2 Ag1 1_555 1_555
O6A Ag1 1_555 1_555
O7A C16A 1_555 1_555
O8A C12A 1_555 1_555
O9A C11A 1_555 1_555
O10A C10A 1_555 1_555
C4 C5 1_555 1_555
C7 O2 1_555 1_555
C15 Co1 1_555 1_555
C15 Co2 1_555 1_555
C17 O7 1_555 1_555
C21 C22 1_555 1_555
Co1 Co2 1_555 1_555
C4A C5A 1_555 1_555
C7A O2A 1_555 1_555
C15A Co1A 1_555 1_555
C15A Co2A 1_555 1_555
C17A O6A 1_555 1_555
C17A O7A 1_555 1_555
C21A C22A 1_555 1_555
Co1A Co2A 1_555 1_555

#END
