
#######################################################################
#
#                 Cambridge Crystallographic Data Centre
#                                CCDC 
#
#######################################################################
#
# If this CIF has been generated from an entry in the Cambridge 
# Structural Database, then it will include bibliographic, chemical, 
# crystal, experimental, refinement or atomic coordinate data resulting 
# from the CCDC's data processing and validation procedures.
#
#######################################################################

data_FONYOY
_symmetry_cell_setting           triclinic
_symmetry_space_group_name_H-M   'P -1'
_symmetry_Int_Tables_number      2
_space_group_name_Hall           '-P 1'
loop_
_symmetry_equiv_pos_site_id
_symmetry_equiv_pos_as_xyz
1 x,y,z
2 -x,-y,-z
_cell_length_a                   9.6297(3)
_cell_length_b                   9.7676(3)
_cell_length_c                   10.3423(3)
_cell_angle_alpha                89.3710(10)
_cell_angle_beta                 78.8390(10)
_cell_angle_gamma                87.604(2)
_cell_volume                     953.55
loop_
_atom_site_label
_atom_site_type_symbol
_atom_site_fract_x
_atom_site_fract_y
_atom_site_fract_z
Mn1 Mn 0.496343(9) 0.003189(9) 0.750387(7)
S1 S 0.295982(15) -0.128985(15) 1.035531(13)
O1 O 0.38781(5) -0.13139(5) 0.90520(4)
O2 O 0.26401(5) -0.26514(5) 1.08594(5)
O3 O 0.34611(5) -0.04031(5) 1.12826(5)
S2 S 0.702282(15) 0.131071(15) 0.468058(13)
O4 O 0.61256(5) 0.13368(5) 0.59920(4)
O5 O 0.65275(5) 0.03926(6) 0.37785(5)
O6 O 0.73078(6) 0.26718(6) 0.41701(6)
C1 C 0.13206(6) -0.05194(6) 1.01404(5)
C2 C 0.08506(6) -0.07489(6) 0.89692(5)
H1 H 0.1418 -0.1247 0.8290
C3 C 0.04807(6) 0.02212(6) 1.11695(5)
H2 H 0.0807 0.0363 1.1945
C4 C 0.86890(6) 0.05609(6) 0.48672(5)
C5 C 0.90918(8) -0.07514(7) 0.44163(8)
H3 H 0.8485 -0.1254 0.4026
C6 C 0.95902(8) 0.13180(8) 0.54506(8)
H4 H 0.9315 0.2200 0.5752
O7 O 0.61777(5) -0.17312(5) 0.66778(5)
C7 C 0.34696(6) 0.29854(6) 0.81596(5)
C8 C 0.46761(7) 0.39371(7) 0.78036(7)
H5 H 0.5100 0.3865 0.6875
H6 H 0.5400 0.3731 0.8319
C9 C 0.39967(8) 0.53665(8) 0.81272(9)
H7 H 0.4340 0.6008 0.7427
H8 H 0.4210 0.5698 0.8945
C10 C 0.24016(7) 0.51993(6) 0.82576(6)
H9 H 0.1874 0.5686 0.9021
H10 H 0.2077 0.5535 0.7477
N1 N 0.74744(7) -0.37207(6) 0.62476(5)
C11 C 0.08755(7) 0.31162(7) 0.86658(7)
H11 H 0.0396 0.3327 0.7952
H12 H 0.0323 0.3479 0.9471
H13 H 0.0998 0.2140 0.8744
O8 O 0.35417(5) 0.17116(5) 0.82176(5)
C12 C 0.68989(6) -0.26906(6) 0.70373(6)
C13 C 0.72327(7) -0.29357(7) 0.83880(6)
H14 H 0.6416 -0.3265 0.8995
H15 H 0.7532 -0.2104 0.8739
C14 C 0.84365(10) -0.40259(9) 0.81514(8)
H16 H 0.8340 -0.4678 0.8874
H17 H 0.9348 -0.3610 0.8059
C15 C 0.82941(8) -0.47297(8) 0.68671(7)
H18 H 0.9215 -0.4926 0.6316
H19 H 0.7798 -0.5576 0.7045
N2 N 0.22453(6) 0.37226(5) 0.84097(5)
C16 C 0.72062(10) -0.39084(9) 0.49339(7)
H20 H 0.8077 -0.3853 0.4305
H21 H 0.6544 -0.3206 0.4750
H22 H 0.6819 -0.4791 0.4875
S1A S -0.295982(15) 0.128985(15) 0.964469(13)
O1A O -0.38781(5) 0.13139(5) 1.09480(4)
O2A O -0.26401(5) 0.26514(5) 0.91406(5)
O3A O -0.34611(5) 0.04031(5) 0.87174(5)
C1A C -0.13206(6) 0.05194(6) 0.98596(5)
C2A C -0.08506(6) 0.07489(6) 1.10308(5)
H1A H -0.1418 0.1247 1.1710
C3A C -0.04807(6) -0.02212(6) 0.88305(5)
H2A H -0.0807 -0.0363 0.8055
S2A S 1.297718(15) -0.131071(15) 0.531942(13)
O4A O 1.38744(5) -0.13368(5) 0.40080(4)
O5A O 1.34725(5) -0.03926(6) 0.62215(5)
O6A O 1.26922(6) -0.26718(6) 0.58299(6)
C4A C 1.13110(6) -0.05609(6) 0.51328(5)
C5A C 1.09082(8) 0.07514(7) 0.55837(8)
H3A H 1.1515 0.1254 0.5974
C6A C 1.04098(8) -0.13180(8) 0.45494(8)
H4A H 1.0685 -0.2200 0.4248
Mn1A Mn -0.496343(9) -0.003189(9) 1.249613(7)
O7A O -0.61777(5) 0.17312(5) 1.33222(5)
C7A C -0.34696(6) -0.29854(6) 1.18404(5)
C8A C -0.46761(7) -0.39371(7) 1.21964(7)
H5A H -0.5100 -0.3865 1.3125
H6A H -0.5400 -0.3731 1.1681
C9A C -0.39967(8) -0.53665(8) 1.18728(9)
H7A H -0.4340 -0.6008 1.2573
H8A H -0.4210 -0.5698 1.1055
C10A C -0.24016(7) -0.51993(6) 1.17424(6)
H9A H -0.1874 -0.5686 1.0979
H10A H -0.2077 -0.5535 1.2523
N1A N -0.74744(7) 0.37207(6) 1.37524(5)
C11A C -0.08755(7) -0.31162(7) 1.13342(7)
H11A H -0.0396 -0.3327 1.2048
H12A H -0.0323 -0.3479 1.0529
H13A H -0.0998 -0.2140 1.1256
O8A O -0.35417(5) -0.17116(5) 1.17824(5)
C12A C -0.68989(6) 0.26906(6) 1.29627(6)
C13A C -0.72327(7) 0.29357(7) 1.16120(6)
H14A H -0.6416 0.3265 1.1005
H15A H -0.7532 0.2104 1.1261
C14A C -0.84365(10) 0.40259(9) 1.18486(8)
H16A H -0.8340 0.4678 1.1126
H17A H -0.9348 0.3610 1.1941
C15A C -0.82941(8) 0.47297(8) 1.31329(7)
H18A H -0.9215 0.4926 1.3684
H19A H -0.7798 0.5576 1.2955
N2A N -0.22453(6) -0.37226(5) 1.15903(5)
C16A C -0.72062(10) 0.39084(9) 1.50661(7)
H20A H -0.8077 0.3853 1.5695
H21A H -0.6544 0.3206 1.5250
H22A H -0.6819 0.4791 1.5125
Mn1_2 Mn -0.503657(9) 0.003189(9) 0.750387(7)
Mn1_3 Mn 1.496343(9) 0.003189(9) 0.750387(7)
Mn1A_2 Mn 0.503657(9) -0.003189(9) 0.249613(7)
Mn1A_3 Mn 0.503657(9) -0.003189(9) 1.249613(7)
Mn1A_4 Mn 1.503657(9) -0.003189(9) 0.249613(7)
O3_2 O -0.65389(5) -0.04031(5) 1.12826(5)
O3A_2 O 0.65389(5) 0.04031(5) 0.87174(5)
O4A_2 O -0.61256(5) -0.13368(5) 1.40080(4)
O5_2 O -0.34725(5) 0.03926(6) 1.37785(5)
O5A_2 O 0.34725(5) -0.03926(6) 0.62215(5)
loop_
_geom_bond_atom_site_label_1
_geom_bond_atom_site_label_2
_geom_bond_site_symmetry_1
_geom_bond_site_symmetry_2
Mn1 O1 1_555 1_555
S1 O1 1_555 1_555
O2 S1 1_555 1_555
O3 S1 1_555 1_555
S2 O4 1_555 1_555
O4 Mn1 1_555 1_555
O5 S2 1_555 1_555
O6 S2 1_555 1_555
C1 S1 1_555 1_555
C2 C1 1_555 1_555
H1 C2 1_555 1_555
C3 C1 1_555 1_555
H2 C3 1_555 1_555
C4 S2 1_555 1_555
C5 C4 1_555 1_555
H3 C5 1_555 1_555
C6 C4 1_555 1_555
H4 C6 1_555 1_555
O7 Mn1 1_555 1_555
C7 C8 1_555 1_555
C8 H5 1_555 1_555
H6 C8 1_555 1_555
C9 C8 1_555 1_555
H7 C9 1_555 1_555
H8 C9 1_555 1_555
C10 C9 1_555 1_555
H9 C10 1_555 1_555
H10 C10 1_555 1_555
N1 C12 1_555 1_555
C11 H11 1_555 1_555
H12 C11 1_555 1_555
H13 C11 1_555 1_555
O8 Mn1 1_555 1_555
C12 O7 1_555 1_555
C13 C12 1_555 1_555
H14 C13 1_555 1_555
H15 C13 1_555 1_555
C14 C13 1_555 1_555
H16 C14 1_555 1_555
H17 C14 1_555 1_555
C15 N1 1_555 1_555
H18 C15 1_555 1_555
H19 C15 1_555 1_555
N2 C7 1_555 1_555
C16 N1 1_555 1_555
H20 C16 1_555 1_555
H21 C16 1_555 1_555
H22 C16 1_555 1_555
S1A O1A 1_555 1_555
O1A Mn1A 1_555 1_555
O2A S1A 1_555 1_555
O3A S1A 1_555 1_555
C1A S1A 1_555 1_555
C2A C3 1_555 1_555
H1A C2A 1_555 1_555
C3A C2 1_555 1_555
H2A C3A 1_555 1_555
S2A O4A 1_555 1_555
O4A Mn1A_4 1_555 1_555
O5A S2A 1_555 1_555
O6A S2A 1_555 1_555
C4A S2A 1_555 1_555
C5A C6 1_555 1_555
H3A C5A 1_555 1_555
C6A C5 1_555 1_555
H4A C6A 1_555 1_555
Mn1A O7A 1_555 1_555
O7A C12A 1_555 1_555
C7A C8A 1_555 1_555
C8A H5A 1_555 1_555
H6A C8A 1_555 1_555
C9A C8A 1_555 1_555
H7A C9A 1_555 1_555
H8A C9A 1_555 1_555
C10A C9A 1_555 1_555
H9A C10A 1_555 1_555
H10A C10A 1_555 1_555
N1A C12A 1_555 1_555
C11A H11A 1_555 1_555
H12A C11A 1_555 1_555
H13A C11A 1_555 1_555
O8A Mn1A 1_555 1_555
C12A C13A 1_555 1_555
C13A H14A 1_555 1_555
H15A C13A 1_555 1_555
C14A C13A 1_555 1_555
H16A C14A 1_555 1_555
H17A C14A 1_555 1_555
C15A N1A 1_555 1_555
H18A C15A 1_555 1_555
H19A C15A 1_555 1_555
N2A C7A 1_555 1_555
C16A N1A 1_555 1_555
H20A C16A 1_555 1_555
H21A C16A 1_555 1_555
H22A C16A 1_555 1_555
Mn1_2 O3A 1_555 1_555
Mn1_3 O5A 1_555 1_555
Mn1A_2 O5 1_555 1_555
Mn1A_3 O3 1_555 1_555
O3_2 Mn1A 1_555 1_555
O3A_2 Mn1 1_555 1_555
O4A_2 Mn1A 1_555 1_555
O5_2 Mn1A 1_555 1_555
O5A_2 Mn1 1_555 1_555
C7 O8 1_555 1_555
C10 N2 1_555 1_555
C11 N2 1_555 1_555
C14 C15 1_555 1_555
C1A C2A 1_555 1_555
C1A C3A 1_555 1_555
C4A C5A 1_555 1_555
C4A C6A 1_555 1_555
C7A O8A 1_555 1_555
C10A N2A 1_555 1_555
C11A N2A 1_555 1_555
C14A C15A 1_555 1_555

#END
