
#######################################################################
#
#                 Cambridge Crystallographic Data Centre
#                                CCDC 
#
#######################################################################
#
# If this CIF has been generated from an entry in the Cambridge 
# Structural Database, then it will include bibliographic, chemical, 
# crystal, experimental, refinement or atomic coordinate data resulting 
# from the CCDC's data processing and validation procedures.
#
#######################################################################

data_FONZUF
_symmetry_cell_setting           monoclinic
_symmetry_space_group_name_H-M   'P 21/c'
_symmetry_Int_Tables_number      14
_space_group_name_Hall           '-P 2ybc'
loop_
_symmetry_equiv_pos_site_id
_symmetry_equiv_pos_as_xyz
1 x,y,z
2 -x,1/2+y,1/2-z
3 -x,-y,-z
4 x,1/2-y,1/2+z
_cell_length_a                   12.993(6)
_cell_length_b                   10.604(4)
_cell_length_c                   12.690(6)
_cell_angle_alpha                90
_cell_angle_beta                 116.119(7)
_cell_angle_gamma                90
_cell_volume                     1569.86
loop_
_atom_site_label
_atom_site_type_symbol
_atom_site_fract_x
_atom_site_fract_y
_atom_site_fract_z
Cd1 Cd 0.77184(3) 0.83076(3) 0.17920(3)
N1 N 1.0868(4) 0.4842(4) 0.3053(4)
C1 C 0.6361(4) 0.8036(5) -0.1864(4)
N2 N 0.6246(4) 0.8005(4) -0.2964(4)
N3 N 0.4735(4) 0.9377(5) -0.2393(4)
C2 C 1.0757(4) 0.5471(5) 0.3914(4)
H1 H 1.1235 0.5263 0.4690
C3 C 1.0152(4) 0.5171(5) 0.1966(4)
H2 H 1.0197 0.4749 0.1345
C4 C 0.5370(5) 0.8662(6) -0.3762(5)
H3 H 0.5262 0.8665 -0.4536
C5 C 0.5606(5) 0.8724(6) -0.1583(5)
H4 H 0.5709 0.8731 -0.0810
C6 C 0.4625(5) 0.9330(6) -0.3474(5)
H5 H 0.4024 0.9764 -0.4062
N4 N 0.7711(3) 0.7303(3) 0.0179(3)
N5 N 0.7896(4) 0.6547(4) -0.1355(4)
C7 C 0.8586(4) 0.6477(4) 0.0507(4)
N6 N 0.8731(4) 0.6002(4) -0.0387(3)
C8 C 0.7313(4) 0.7315(4) -0.0999(4)
C9 C 0.9335(4) 0.6122(4) 0.1713(4)
C10 C 0.9964(5) 0.6411(5) 0.3692(5)
H6 H 0.9923 0.6825 0.4318
N7 N 0.9243(4) 0.6749(4) 0.2586(4)
O1 O 0.6369(4) 0.9810(4) 0.1058(4)
Cd1A Cd 1.22816(3) 0.33076(3) 0.32080(3)
Cd1C Cd 0.77184(3) 0.66924(3) -0.32080(3)
N1A N 0.9132(4) 0.9842(4) 0.1947(4)
N2C N 0.6246(4) 0.6995(4) 0.2036(4)
N5C N 0.7896(4) 0.8453(4) 0.3645(4)
Cl1 Cl 0.7577(2) 0.3511(2) 0.2372(2)
O2 O 0.7440(12) 0.3991(16) 0.1297(8)
O3 O 0.7882(14) 0.4529(11) 0.3149(9)
O4 O 0.6532(15) 0.3200(15) 0.2259(18)
O5 O 0.830(2) 0.280(2) 0.273(2)
O6 O 0.6660(8) 1.1636(6) -0.0254(8)
loop_
_geom_bond_atom_site_label_1
_geom_bond_atom_site_label_2
_geom_bond_site_symmetry_1
_geom_bond_site_symmetry_2
Cd1 N4 1_555 1_555
N1 C2 1_555 1_555
C1 N2 1_555 1_555
N2 C4 1_555 1_555
N3 C5 1_555 1_555
C2 H1 1_555 1_555
C3 N1 1_555 1_555
H2 C3 1_555 1_555
C4 H3 1_555 1_555
C5 C1 1_555 1_555
H4 C5 1_555 1_555
C6 N3 1_555 1_555
H5 C6 1_555 1_555
N4 C7 1_555 1_555
N5 N6 1_555 1_555
C7 N6 1_555 1_555
C8 C1 1_555 1_555
C9 C3 1_555 1_555
C10 C2 1_555 1_555
H6 C10 1_555 1_555
N7 Cd1 1_555 1_555
O1 Cd1 1_555 1_555
Cl1 O2 1_555 1_555
O3 Cl1 1_555 1_555
O4 Cl1 1_555 1_555
O5 Cl1 1_555 1_555
Cd1A N1 1_555 1_555
Cd1C N2 1_555 1_555
N1A Cd1 1_555 1_555
N2C Cd1 1_555 1_555
N5C Cd1 1_555 1_555
C4 C6 1_555 1_555
N4 C8 1_555 1_555
N5 C8 1_555 1_555
N5 Cd1C 1_555 1_555
C7 C9 1_555 1_555
C9 N7 1_555 1_555
C10 N7 1_555 1_555

#END
