
#######################################################################
#
#                 Cambridge Crystallographic Data Centre
#                                CCDC 
#
#######################################################################
#
# If this CIF has been generated from an entry in the Cambridge 
# Structural Database, then it will include bibliographic, chemical, 
# crystal, experimental, refinement or atomic coordinate data resulting 
# from the CCDC's data processing and validation procedures.
#
#######################################################################

data_FOPGUN
_symmetry_cell_setting           rhombohedral
_symmetry_space_group_name_H-M   'R -3'
_symmetry_Int_Tables_number      148
_space_group_name_Hall           '-R 3'
loop_
_symmetry_equiv_pos_site_id
_symmetry_equiv_pos_as_xyz
1 x,y,z
2 -y,x-y,z
3 -x+y,-x,z
4 2/3+x,1/3+y,1/3+z
5 2/3-y,1/3+x-y,1/3+z
6 2/3-x+y,1/3-x,1/3+z
7 1/3+x,2/3+y,2/3+z
8 1/3-y,2/3+x-y,2/3+z
9 1/3-x+y,2/3-x,2/3+z
10 -x,-y,-z
11 y,-x+y,-z
12 x-y,x,-z
13 1/3-x,2/3-y,2/3-z
14 1/3+y,2/3-x+y,2/3-z
15 1/3+x-y,2/3+x,2/3-z
16 2/3-x,1/3-y,1/3-z
17 2/3+y,1/3-x+y,1/3-z
18 2/3+x-y,1/3+x,1/3-z
_cell_length_a                   38.012(1)
_cell_length_b                   38.012(1)
_cell_length_c                   15.523(1)
_cell_angle_alpha                90
_cell_angle_beta                 90
_cell_angle_gamma                120
_cell_volume                     19424.4
loop_
_atom_site_label
_atom_site_type_symbol
_atom_site_fract_x
_atom_site_fract_y
_atom_site_fract_z
P1 P 0.12697(3) -0.10807(4) 0.97827(7)
F1 F 0.14711(9) -0.10729(10) 1.06705(17)
F2 F 0.10707(8) -0.10778(8) 0.88727(16)
F3 F 0.10968(9) -0.08257(10) 1.0202(2)
F4 F 0.14431(10) -0.13452(8) 0.93563(18)
F5 F 0.16731(7) -0.06753(7) 0.94814(16)
F6 F 0.08703(9) -0.14909(9) 1.00389(17)
O3 O 0.0000(6) 0.0000(5) 0.1134(18)
Cu1 Cu 0.247246(12) 0.007668(13) 0.60735(3)
O1 O 0.21152(8) -0.00871(8) 0.49203(16)
H1 H 0.2128(10) 0.0003(11) 0.4333(11)
H2 H 0.1849(5) -0.0200(11) 0.5168(19)
C1 C 0.16371(10) -0.04687(11) 0.7328(2)
H3 H 0.1507 -0.0581 0.7898
N1 N 0.18843(8) -0.06520(8) 0.71472(17)
N2 N 0.21656(8) -0.05276(8) 0.64990(18)
C2 C 0.18601(11) -0.09705(11) 0.7582(2)
H4 H 0.1685 -0.1106 0.8054
C3 C 0.21312(11) -0.10637(11) 0.7222(2)
H5 H 0.2185 -0.1273 0.7391
C4 C 0.23139(10) -0.07841(10) 0.6548(2)
C5 C 0.26335(10) -0.07450(10) 0.5961(2)
C6 C 0.29215(11) -0.08452(11) 0.6259(2)
H6 H 0.2899 -0.0952 0.6823
C7 C 0.32392(11) -0.07877(11) 0.5724(2)
H7 H 0.3435 -0.0855 0.5924
C8 C 0.32722(11) -0.06349(11) 0.4908(2)
H8 H 0.3494 -0.0592 0.4553
C9 C 0.26620(10) -0.06022(10) 0.5127(2)
H9 H 0.2461 -0.0545 0.4919
C10 C 0.29828(11) -0.05407(10) 0.4591(2)
C11 C 0.30366(11) -0.03370(11) 0.3733(2)
H10 H 0.3330 -0.0151 0.3627
H11 H 0.2901 -0.0173 0.3745
S1 S 0.28275(3) -0.07019(3) 0.28592(6)
C12 C 0.29163(11) -0.03546(11) 0.1960(2)
H12 H 0.3214 -0.0183 0.1883
H13 H 0.2807 -0.0520 0.1431
N3 N 0.13033(8) -0.05937(9) 0.67273(19)
N4 N 0.13413(9) -0.05166(9) 0.58629(18)
C13 C 0.09061(11) -0.08008(12) 0.6974(3)
H14 H 0.0807 -0.0885 0.7542
C14 C 0.06803(12) -0.08638(13) 0.6260(3)
H15 H 0.0392 -0.1002 0.6225
C15 C 0.09563(11) -0.06839(11) 0.5579(2)
C16 C 0.08567(11) -0.06704(12) 0.4670(2)
C17 C 0.11388(11) -0.05737(11) 0.4006(2)
H16 H 0.1407 -0.0510 0.4147
C18 C 0.10421(12) -0.05672(12) 0.3158(2)
C19 C 0.13532(12) -0.04739(12) 0.2450(3)
H17 H 0.1250 -0.0705 0.2044
H18 H 0.1609 -0.0436 0.2706
S2 S 0.14532(3) -0.00207(3) 0.18780(8)
C20 C 0.18472(12) 0.00113(13) 0.1163(3)
H19 H 0.1741 -0.0248 0.0847
H20 H 0.1914 0.0228 0.0734
C21 C 0.0455(2) -0.0797(3) 0.4441(6)
H21 H 0.0254 -0.0874 0.4877
C22 C 0.0346(3) -0.0811(2) 0.3582(6)
H22 H 0.0072 -0.0900 0.3435
C23 C 0.0632(4) -0.0699(3) 0.2946(8)
H23 H 0.0555 -0.0708 0.2361
N5 N 0.18743(8) -0.00353(9) 0.74510(18)
N6 N 0.21063(9) 0.02264(9) 0.68225(18)
C27 C 0.18602(12) 0.01621(12) 0.8165(2)
H27 H 0.1715 0.0042 0.8680
C28 C 0.20953(13) 0.05667(12) 0.7999(2)
H28 H 0.2150 0.0784 0.8380
C29 C 0.22393(11) 0.05985(11) 0.7157(2)
C30 C 0.2513(3) 0.0981(4) 0.6712(6)
C31 C 0.2728(3) 0.1352(3) 0.7131(6)
H29 H 0.2707 0.1364 0.7739
C32 C 0.2970(3) 0.1702(3) 0.6681(6)
H30 H 0.3107 0.1955 0.6977
C33 C 0.3015(3) 0.1689(2) 0.5797(6)
H31 H 0.3187 0.1932 0.5490
C34 C 0.2553(3) 0.0975(3) 0.5816(6)
H32 H 0.2399 0.0726 0.5515
C35 C 0.2810(2) 0.1323(3) 0.5358(5)
C36 C 0.2864(3) 0.1312(2) 0.4386(5)
H33 H 0.3133 0.1539 0.4216
H34 H 0.2654 0.1347 0.4085
S3 S 0.28221(6) 0.08359(5) 0.40674(11)
C37 C 0.2997(3) 0.0942(3) 0.2965(7)
H35 H 0.2923 0.1135 0.2712
H36 H 0.3296 0.1070 0.2952
C46 C 0.27396(11) -0.00773(11) 0.2024(2)
C47 C 0.23723(11) -0.01755(11) 0.1639(2)
H45 H 0.2215 -0.0434 0.1375
C48 C 0.22306(11) 0.00988(11) 0.1634(2)
C49 C 0.24535(12) 0.04673(11) 0.2060(2)
H46 H 0.2352 0.0651 0.2079
C50 C 0.28186(12) 0.05734(11) 0.2456(2)
C51 C 0.29630(11) 0.02990(11) 0.2425(2)
H47 H 0.3217 0.0371 0.2681
Cu1E Cu 0.427089(18) 0.086087(12) 0.94068(3)
Cu1G Cu 0.325665(13) -0.093755(18) 0.27402(3)
Cu1G_2 Cu 0.325665(13) -0.093755(18) 1.27402(3)
O1E O 0.44644(11) 0.12181(8) 0.82536(16)
O1G O 0.34204(8) -0.11310(11) 0.15870(16)
H1E H 0.4542(15) 0.1205(10) 0.7666(11)
H1G H 0.3330(11) -0.1208(15) 0.1000(11)
H2E H 0.4618(12) 0.1484(5) 0.8501(19)
H2G H 0.3533(11) -0.1284(12) 0.1835(19)
C1E C 0.45609(15) 0.16962(10) 1.0661(2)
C1G C 0.38020(11) -0.12275(15) 1.3995(2)
H3E H 0.4579 0.1826 1.1231
H3G H 0.3914 -0.1245 1.4565
N1E N 0.41304(11) 0.14490(8) 1.04805(17)
N1G N 0.39853(8) -0.07970(11) 1.38139(17)
N2E N 0.39735(11) 0.11677(8) 0.98323(18)
N2G N 0.38609(8) -0.06401(11) 1.31657(18)
N2G_2 N 0.38609(8) -0.06401(11) 0.31657(18)
C2E C 0.38361(16) 0.14732(11) 1.0915(2)
C2G C 0.43038(11) -0.05027(16) 1.4249(2)
H4E H 0.3876 0.1648 1.1387
H4G H 0.4439 -0.0542 1.4721
C3E C 0.34718(16) 0.12021(11) 1.0555(2)
C3G C 0.43970(11) -0.01384(16) 1.3889(2)
H5E H 0.3209 0.1148 1.0724
H5G H 0.4606 0.0125 1.4058
C4E C 0.35687(14) 0.10194(10) 0.9881(2)
C4G C 0.41174(10) -0.02353(14) 1.3215(2)
C5E C 0.32882(14) 0.06998(10) 0.9294(2)
C5G C 0.40783(10) 0.00452(14) 1.2628(2)
C6E C 0.29000(16) 0.04118(11) 0.9592(2)
C6G C 0.41785(11) 0.04334(16) 1.2926(2)
H6E H 0.2816 0.0434 1.0156
H6G H 0.4285 0.0518 1.3490
C7E C 0.26398(16) 0.00941(11) 0.9057(2)
C7G C 0.41210(11) 0.06936(16) 1.2391(2)
H7E H 0.2377 -0.0102 0.9257
H7G H 0.4188 0.0957 1.2591
C8E C 0.27596(16) 0.00611(11) 0.8241(2)
C8G C 0.39682(11) 0.05738(16) 1.1575(2)
H8E H 0.2581 -0.0161 0.7886
H8G H 0.3925 0.0753 1.1220
C9E C 0.34025(14) 0.06713(10) 0.8460(2)
C9G C 0.39355(10) -0.00691(14) 1.1794(2)
H9E H 0.3661 0.0872 0.8252
H9G H 0.3878 -0.0327 1.1586
C10E C 0.31432(15) 0.03505(11) 0.7924(2)
C10G C 0.38740(10) 0.01902(15) 1.1258(2)
C11E C 0.32931(16) 0.02967(11) 0.7066(2)
C11G C 0.36703(11) 0.00403(16) 1.0400(2)
H10E H 0.3186 0.0003 0.6960
H10G H 0.3484 0.0148 1.0294
H11E H 0.3593 0.0432 0.7078
H11G H 0.3506 -0.0259 1.0412
S1E S 0.31373(4) 0.05058(3) 0.61925(6)
S1G S 0.40352(3) 0.01961(4) 0.95259(6)
C12E C 0.33958(16) 0.04170(11) 0.5293(2)
C12G C 0.36879(11) -0.00624(16) 0.8627(2)
H12E H 0.3270 0.0119 0.5216
H12G H 0.3516 0.0064 0.8550
H13E H 0.3340 0.0526 0.4764
H13G H 0.3853 -0.0006 0.8098
N3E N 0.47697(12) 0.20300(8) 1.00606(19)
N3G N 0.39270(9) -0.14363(12) 1.33940(19)
N4E N 0.48088(13) 0.19920(9) 0.91962(18)
N4G N 0.38499(9) -0.14754(13) 1.25296(18)
C13E C 0.49598(16) 0.24272(11) 1.0307(3)
C13G C 0.41341(12) -0.16264(16) 1.3641(3)
H14E H 0.4975 0.2526 1.0875
H14G H 0.4218 -0.1641 1.4209
C14E C 0.51226(18) 0.26530(12) 0.9593(3)
C14G C 0.41971(13) -0.17892(18) 1.2927(3)
H15E H 0.5273 0.2941 0.9558
H15G H 0.4335 -0.1939 1.2892
C15E C 0.50265(16) 0.23770(11) 0.8912(2)
C15G C 0.40172(11) -0.16931(16) 1.2246(2)
C16E C 0.51396(16) 0.24766(11) 0.8003(2)
C16G C 0.40037(12) -0.18062(16) 1.1337(2)
C17E C 0.49542(16) 0.21945(11) 0.7339(2)
C17G C 0.39070(11) -0.16208(16) 1.0673(2)
H16E H 0.4750 0.1926 0.7480
H16G H 0.3843 -0.1416 1.0814
C18E C 0.50574(17) 0.22912(12) 0.6491(2)
C18G C 0.39005(12) -0.17240(17) 0.9825(2)
C19E C 0.48396(17) 0.19801(12) 0.5783(3)
C19G C 0.38072(12) -0.15062(17) 0.9117(3)
H17E H 0.4712 0.2083 0.5377
H17G H 0.4038 -0.1378 0.8711
H18E H 0.4622 0.1724 0.6039
H18G H 0.3769 -0.1288 0.9373
S2E S 0.51928(4) 0.18801(3) 0.52113(8)
S2G S 0.33540(3) -0.18594(4) 0.85447(8)
C20E C 0.48308(18) 0.14861(12) 0.4496(3)
C20G C 0.33220(13) -0.14974(18) 0.7830(3)
H19E H 0.4678 0.1592 0.4180
H19G H 0.3581 -0.1344 0.7514
H20E H 0.4981 0.1419 0.4067
H20G H 0.3105 -0.1647 0.7401
C21E C 0.5415(4) 0.2878(2) 0.7774(6)
C21G C 0.4130(3) -0.2081(4) 1.1108(6)
H21E H 0.5539 0.3079 0.8210
H21G H 0.4207 -0.2205 1.1544
C22E C 0.5510(4) 0.2987(3) 0.6915(6)
C22G C 0.4144(2) -0.2176(4) 1.0249(6)
H22E H 0.5695 0.3261 0.6768
H22G H 0.4233 -0.2361 1.0102
C23E C 0.5336(5) 0.2701(4) 0.6279(8)
C23G C 0.4032(3) -0.2002(5) 0.9613(8)
H23E H 0.5404 0.2778 0.5694
H23G H 0.4041 -0.2070 0.9028
N5E N 0.47571(12) 0.14590(8) 1.07843(18)
N5G N 0.33686(9) -0.14237(12) 1.41177(18)
N6E N 0.47868(13) 0.12270(9) 1.01558(18)
N6G N 0.31069(9) -0.14534(13) 1.34892(18)
N6G_2 N 0.31069(9) -0.14534(13) 0.34892(18)
C27E C 0.49686(17) 0.14731(12) 1.1498(2)
C27G C 0.31712(12) -0.16352(17) 1.4832(2)
H27E H 0.4994 0.1618 1.2013
H27G H 0.3291 -0.1660 1.5347
C28E C 0.51381(18) 0.12380(13) 1.1332(2)
C28G C 0.27666(12) -0.18047(18) 1.4666(2)
H28E H 0.5301 0.1183 1.1713
H28G H 0.2549 -0.1967 1.5047
C29E C 0.50259(16) 0.10940(11) 1.0490(2)
C29G C 0.27348(11) -0.16925(16) 1.3824(2)
C30E C 0.5135(5) 0.0820(3) 1.0045(6)
C30G C 0.2352(4) -0.1801(5) 1.3379(6)
C31E C 0.5291(4) 0.0605(3) 1.0464(6)
C31G C 0.1981(3) -0.1957(4) 1.3798(6)
H29E H 0.5324 0.0626 1.1072
H29G H 0.1969 -0.1990 1.4406
C32E C 0.5399(4) 0.0363(3) 1.0014(6)
C32G C 0.1631(3) -0.2065(4) 1.3348(6)
H30E H 0.5515 0.0226 1.0310
H30G H 0.1378 -0.2181 1.3644
C33E C 0.5341(4) 0.0318(3) 0.9130(6)
C33G C 0.1644(2) -0.2007(4) 1.2464(6)
H31E H 0.5412 0.0146 0.8823
H31G H 0.1401 -0.2078 1.2157
C34E C 0.5089(4) 0.0780(3) 0.9149(6)
C34G C 0.2358(3) -0.1755(4) 1.2483(6)
H32E H 0.4994 0.0934 0.8848
H32G H 0.2607 -0.1660 1.2182
C35E C 0.5180(4) 0.0523(2) 0.8691(5)
C35G C 0.2010(3) -0.1846(4) 1.2025(5)
C36E C 0.5115(4) 0.0469(3) 0.7719(5)
C36G C 0.2021(2) -0.1781(4) 1.1053(5)
H33E H 0.5073 0.0200 0.7549
H33G H 0.1794 -0.1739 1.0883
H34E H 0.5360 0.0679 0.7418
H34G H 0.1986 -0.2026 1.0752
S3E S 0.46805(8) 0.05112(6) 0.74007(11)
S3G S 0.24974(5) -0.13471(8) 1.07341(11)
C37E C 0.4612(4) 0.0336(3) 0.6298(7)
C37G C 0.2391(3) -0.1278(4) 0.9632(7)
H35E H 0.4879 0.0410 0.6045
H35G H 0.2198 -0.1545 0.9379
H36E H 0.4441 0.0037 0.6285
H36G H 0.2263 -0.1107 0.9619
C46E C 0.38498(16) 0.05937(11) 0.5357(2)
C46G C 0.34106(11) -0.05164(16) 0.8691(2)
C47E C 0.41189(16) 0.09610(11) 0.4972(2)
C47G C 0.35088(11) -0.07855(16) 0.8306(2)
H45E H 0.4018 0.1118 0.4708
H45G H 0.3767 -0.0684 0.8042
C48E C 0.45349(16) 0.11027(11) 0.4967(2)
C48G C 0.32345(11) -0.12015(16) 0.8301(2)
C49E C 0.46805(16) 0.08798(12) 0.5393(2)
C49G C 0.28660(11) -0.13471(16) 0.8727(2)
H46E H 0.4966 0.0981 0.5412
H46G H 0.2682 -0.1632 0.8746
C50E C 0.44215(16) 0.05147(12) 0.5789(2)
C50G C 0.27599(11) -0.10881(16) 0.9123(2)
C51E C 0.40027(16) 0.03703(11) 0.5758(2)
C51G C 0.30343(11) -0.06693(16) 0.9092(2)
H47E H 0.3821 0.0116 0.6014
H47G H 0.2962 -0.0487 0.9348
C24? C 0.0484(4) -0.0695(5) 0.4489(12)
H24? H 0.0296 -0.0740 0.4937
C25? C 0.0397(6) -0.0654(5) 0.3646(12)
H25? H 0.0143 -0.0677 0.3509
C26? C 0.0675(10) -0.0579(8) 0.300(2)
H26? H 0.0614 -0.0535 0.2429
C38? C 0.2443(5) 0.0934(6) 0.6524(12)
C39? C 0.2636(4) 0.1320(5) 0.6875(9)
H37? H 0.2629 0.1356 0.7479
C40? C 0.2844(4) 0.1661(4) 0.6327(10)
H38? H 0.2971 0.1929 0.6550
C41? C 0.2855(4) 0.1588(5) 0.5445(8)
H39? H 0.3007 0.1812 0.5071
C42? C 0.2443(4) 0.0876(4) 0.5658(10)
H40? H 0.2298 0.0609 0.5431
C43? C 0.2653(3) 0.1203(4) 0.5103(7)
C44? C 0.2675(3) 0.1124(4) 0.4151(7)
H41? H 0.2714 0.1359 0.3804
H42? H 0.2421 0.0880 0.3962
S4? S 0.31056(11) 0.10454(11) 0.40175(18)
C45? C 0.3133(4) 0.1008(5) 0.2860(11)
H43? H 0.3084 0.1216 0.2590
H44? H 0.3412 0.1073 0.2705
O2? O 0.1214(3) 0.0946(3) 0.1367(6)
C52? C 0.1031(4) 0.0822(4) 0.0716(10)
C53? C 0.0833(4) 0.1029(4) 0.0293(8)
H48? H 0.0805 0.1207 0.0709
H49? H 0.0564 0.0825 0.0083
H50? H 0.1000 0.1191 -0.0193
C54? C 0.1014(4) 0.0467(4) 0.0207(10)
H51? H 0.1165 0.0569 -0.0332
H52? H 0.0730 0.0267 0.0078
H53? H 0.1135 0.0338 0.0552
loop_
_geom_bond_atom_site_label_1
_geom_bond_atom_site_label_2
_geom_bond_site_symmetry_1
_geom_bond_site_symmetry_2
Cu1 O1 1_555 1_555
O1 H1 1_555 1_555
H2 O1 1_555 1_555
C1 H3 1_555 1_555
N1 C1 1_555 1_555
N2 Cu1 1_555 1_555
C2 N1 1_555 1_555
H4 C2 1_555 1_555
C3 C2 1_555 1_555
H5 C3 1_555 1_555
C4 N2 1_555 1_555
C5 C4 1_555 1_555
C6 C5 1_555 1_555
H6 C6 1_555 1_555
C7 C6 1_555 1_555
H7 C7 1_555 1_555
C8 C7 1_555 1_555
H8 C8 1_555 1_555
C9 C5 1_555 1_555
H9 C9 1_555 1_555
C10 C8 1_555 1_555
C11 C10 1_555 1_555
H10 C11 1_555 1_555
H11 C11 1_555 1_555
S1 C11 1_555 1_555
C12 S1 1_555 1_555
H12 C12 1_555 1_555
H13 C12 1_555 1_555
N3 C1 1_555 1_555
N4 N3 1_555 1_555
C13 N3 1_555 1_555
H14 C13 1_555 1_555
C14 C13 1_555 1_555
H15 C14 1_555 1_555
C15 N4 1_555 1_555
C16 C15 1_555 1_555
C17 C16 1_555 1_555
H16 C17 1_555 1_555
C18 C17 1_555 1_555
C19 C18 1_555 1_555
H17 C19 1_555 1_555
H18 C19 1_555 1_555
S2 C19 1_555 1_555
C20 S2 1_555 1_555
H19 C20 1_555 1_555
H20 C20 1_555 1_555
C21 C16 1_555 1_555
H21 C21 1_555 1_555
C22 C21 1_555 1_555
H22 C22 1_555 1_555
C23 C18 1_555 1_555
H23 C23 1_555 1_555
N5 C1 1_555 1_555
N6 Cu1 1_555 1_555
C27 N5 1_555 1_555
H27 C27 1_555 1_555
C28 C27 1_555 1_555
H28 C28 1_555 1_555
C29 N6 1_555 1_555
C30 C29 1_555 1_555
C31 C30 1_555 1_555
H29 C31 1_555 1_555
C32 C31 1_555 1_555
H30 C32 1_555 1_555
C33 C32 1_555 1_555
H31 C33 1_555 1_555
C34 C30 1_555 1_555
H32 C34 1_555 1_555
C35 C33 1_555 1_555
C36 C35 1_555 1_555
H33 C36 1_555 1_555
H34 C36 1_555 1_555
S3 C36 1_555 1_555
C37 S3 1_555 1_555
H35 C37 1_555 1_555
H36 C37 1_555 1_555
C46 C12 1_555 1_555
C47 C46 1_555 1_555
H45 C47 1_555 1_555
C48 C20 1_555 1_555
C49 C48 1_555 1_555
H46 C49 1_555 1_555
C50 C37 1_555 1_555
C51 C46 1_555 1_555
H47 C51 1_555 1_555
P1 F1 1_555 1_555
F2 P1 1_555 1_555
F3 P1 1_555 1_555
F4 P1 1_555 1_555
F5 P1 1_555 1_555
F6 P1 1_555 1_555
Cu1E O1E 1_555 1_555
Cu1G S1 1_555 1_555
Cu1G_2 N2G 1_555 1_555
O1E H1E 1_555 1_555
O1G Cu1G 1_555 1_555
H1G O1G 1_555 1_555
H2E O1E 1_555 1_555
H2G O1G 1_555 1_555
C1E H3E 1_555 1_555
C1G H3G 1_555 1_555
N1E C1E 1_555 1_555
N1G C1G 1_555 1_555
N2E Cu1E 1_555 1_555
N2G N1G 1_555 1_555
N2G_2 Cu1G 1_555 1_555
C2E N1E 1_555 1_555
C2G N1G 1_555 1_555
H4E C2E 1_555 1_555
H4G C2G 1_555 1_555
C3E C2E 1_555 1_555
C3G C2G 1_555 1_555
H5E C3E 1_555 1_555
H5G C3G 1_555 1_555
C4E N2E 1_555 1_555
C4G N2G 1_555 1_555
C5E C4E 1_555 1_555
C5G C4G 1_555 1_555
C6E C5E 1_555 1_555
C6G C5G 1_555 1_555
H6E C6E 1_555 1_555
H6G C6G 1_555 1_555
C7E C6E 1_555 1_555
C7G C6G 1_555 1_555
H7E C7E 1_555 1_555
H7G C7G 1_555 1_555
C8E C7E 1_555 1_555
C8G C7G 1_555 1_555
H8E C8E 1_555 1_555
H8G C8G 1_555 1_555
C9E C5E 1_555 1_555
C9G C5G 1_555 1_555
H9E C9E 1_555 1_555
H9G C9G 1_555 1_555
C10E C8E 1_555 1_555
C10G C8G 1_555 1_555
C11E C10E 1_555 1_555
C11G C10G 1_555 1_555
H10E C11E 1_555 1_555
H10G C11G 1_555 1_555
H11E C11E 1_555 1_555
H11G C11G 1_555 1_555
S1E Cu1 1_555 1_555
S1G Cu1E 1_555 1_555
C12E S1E 1_555 1_555
C12G S1G 1_555 1_555
H12E C12E 1_555 1_555
H12G C12G 1_555 1_555
H13E C12E 1_555 1_555
H13G C12G 1_555 1_555
N3E C1E 1_555 1_555
N3G C1G 1_555 1_555
N4E N3E 1_555 1_555
N4G N3G 1_555 1_555
C13E N3E 1_555 1_555
C13G N3G 1_555 1_555
H14E C13E 1_555 1_555
H14G C13G 1_555 1_555
C14E C13E 1_555 1_555
C14G C13G 1_555 1_555
H15E C14E 1_555 1_555
H15G C14G 1_555 1_555
C15E N4E 1_555 1_555
C15G N4G 1_555 1_555
C16E C15E 1_555 1_555
C16G C15G 1_555 1_555
C17E C16E 1_555 1_555
C17G C16G 1_555 1_555
H16E C17E 1_555 1_555
H16G C17G 1_555 1_555
C18E C17E 1_555 1_555
C18G C17G 1_555 1_555
C19E C18E 1_555 1_555
C19G C18G 1_555 1_555
H17E C19E 1_555 1_555
H17G C19G 1_555 1_555
H18E C19E 1_555 1_555
H18G C19G 1_555 1_555
S2E C19E 1_555 1_555
S2G C19G 1_555 1_555
C20E S2E 1_555 1_555
C20G S2G 1_555 1_555
H19E C20E 1_555 1_555
H19G C20G 1_555 1_555
H20E C20E 1_555 1_555
H20G C20G 1_555 1_555
C21E C16E 1_555 1_555
C21G C16G 1_555 1_555
H21E C21E 1_555 1_555
H21G C21G 1_555 1_555
C22E C21E 1_555 1_555
C22G C21G 1_555 1_555
H22E C22E 1_555 1_555
H22G C22G 1_555 1_555
C23E C18E 1_555 1_555
C23G C18G 1_555 1_555
H23E C23E 1_555 1_555
H23G C23G 1_555 1_555
N5E C1E 1_555 1_555
N5G C1G 1_555 1_555
N6E Cu1E 1_555 1_555
N6G Cu1G_2 1_555 1_555
N6G_2 Cu1G 1_555 1_555
C27E N5E 1_555 1_555
C27G N5G 1_555 1_555
H27E C27E 1_555 1_555
H27G C27G 1_555 1_555
C28E C27E 1_555 1_555
C28G C27G 1_555 1_555
H28E C28E 1_555 1_555
H28G C28G 1_555 1_555
C29E N6E 1_555 1_555
C29G N6G 1_555 1_555
C30E C29E 1_555 1_555
C30G C29G 1_555 1_555
C31E C30E 1_555 1_555
C31G C30G 1_555 1_555
H29E C31E 1_555 1_555
H29G C31G 1_555 1_555
C32E C31E 1_555 1_555
C32G C31G 1_555 1_555
H30E C32E 1_555 1_555
H30G C32G 1_555 1_555
C33E C32E 1_555 1_555
C33G C32G 1_555 1_555
H31E C33E 1_555 1_555
H31G C33G 1_555 1_555
C34E C30E 1_555 1_555
C34G C30G 1_555 1_555
H32E C34E 1_555 1_555
H32G C34G 1_555 1_555
C35E C33E 1_555 1_555
C35G C33G 1_555 1_555
C36E C35E 1_555 1_555
C36G C35G 1_555 1_555
H33E C36E 1_555 1_555
H33G C36G 1_555 1_555
H34E C36E 1_555 1_555
H34G C36G 1_555 1_555
S3E C36E 1_555 1_555
S3G C36G 1_555 1_555
C37E S3E 1_555 1_555
C37G S3G 1_555 1_555
H35E C37E 1_555 1_555
H35G C37G 1_555 1_555
H36E C37E 1_555 1_555
H36G C37G 1_555 1_555
C46E C12E 1_555 1_555
C46G C12G 1_555 1_555
C47E C46E 1_555 1_555
C47G C46G 1_555 1_555
H45E C47E 1_555 1_555
H45G C47G 1_555 1_555
C48E C20E 1_555 1_555
C48G C20G 1_555 1_555
C49E C48E 1_555 1_555
C49G C48G 1_555 1_555
H46E C49E 1_555 1_555
H46G C49G 1_555 1_555
C50E C37E 1_555 1_555
C50G C37G 1_555 1_555
C51E C46E 1_555 1_555
C51G C46G 1_555 1_555
H47E C51E 1_555 1_555
H47G C51G 1_555 1_555
N1 N2 1_555 1_555
C3 C4 1_555 1_555
C9 C10 1_555 1_555
C14 C15 1_555 1_555
C22 C23 1_555 1_555
N5 N6 1_555 1_555
C28 C29 1_555 1_555
C34 C35 1_555 1_555
C47 C48 1_555 1_555
C49 C50 1_555 1_555
C50 C51 1_555 1_555
N1E N2E 1_555 1_555
C3E C4E 1_555 1_555
C3G C4G 1_555 1_555
C9E C10E 1_555 1_555
C9G C10G 1_555 1_555
C11E S1E 1_555 1_555
C11G S1G 1_555 1_555
C14E C15E 1_555 1_555
C14G C15G 1_555 1_555
C22E C23E 1_555 1_555
C22G C23G 1_555 1_555
N5E N6E 1_555 1_555
N5G N6G 1_555 1_555
C28E C29E 1_555 1_555
C28G C29G 1_555 1_555
C34E C35E 1_555 1_555
C34G C35G 1_555 1_555
C47E C48E 1_555 1_555
C47G C48G 1_555 1_555
C49E C50E 1_555 1_555
C49G C50G 1_555 1_555
C50E C51E 1_555 1_555
C50G C51G 1_555 1_555

#END
