
#######################################################################
#
#                 Cambridge Crystallographic Data Centre
#                                CCDC 
#
#######################################################################
#
# If this CIF has been generated from an entry in the Cambridge 
# Structural Database, then it will include bibliographic, chemical, 
# crystal, experimental, refinement or atomic coordinate data resulting 
# from the CCDC's data processing and validation procedures.
#
#######################################################################

data_FOPJUR
_symmetry_cell_setting           triclinic
_symmetry_space_group_name_H-M   'P -1'
_symmetry_Int_Tables_number      2
_space_group_name_Hall           '-P 1'
loop_
_symmetry_equiv_pos_site_id
_symmetry_equiv_pos_as_xyz
1 x,y,z
2 -x,-y,-z
_cell_length_a                   6.6435(4)
_cell_length_b                   7.1686(4)
_cell_length_c                   12.0760(7)
_cell_angle_alpha                104.205(5)
_cell_angle_beta                 91.214(4)
_cell_angle_gamma                115.964(5)
_cell_volume                     495.77
loop_
_atom_site_label
_atom_site_type_symbol
_atom_site_fract_x
_atom_site_fract_y
_atom_site_fract_z
C1 C 0.5203(2) 0.4300(2) 0.03074(12)
C2 C 0.7362(2) 0.4487(2) 0.05041(13)
H1 H 0.8573 0.5478 0.0249
C3 C 0.7681(3) 0.3170(3) 0.10867(13)
H2 H 0.9109 0.3265 0.1229
C4 C 0.5834(3) 0.1712(2) 0.14530(12)
H3 H 0.6001 0.0816 0.1850
C5 C 0.3725(2) 0.1614(2) 0.12152(12)
C6 C 0.1674(2) 0.0043(2) 0.15857(12)
H4 H 0.1842 -0.1242 0.1567
H5 H 0.0351 -0.0389 0.1039
N1 N 0.3395(2) 0.28777(19) 0.06509(10)
N2 N 0.2486(2) 0.7893(2) 0.50095(13)
N3 N 0.2183(2) 0.4429(2) 0.58847(13)
O1 O 0.09667(19) 0.30522(17) 0.30039(10)
O2 O 0.32063(19) 0.16471(19) 0.37908(9)
O3 O -0.08299(19) -0.06015(18) 0.31937(10)
S1 S 0.12225(6) 0.11286(5) 0.30000(3)
Cu1 Cu 0.0000 0.5000 0.5000
H6 H 0.297(4) 0.792(4) 0.438(2)
H7 H 0.366(5) 0.831(4) 0.548(2)
H8 H 0.208(5) 0.887(5) 0.529(3)
H9 H 0.276(5) 0.378(5) 0.539(3)
H10 H 0.155(5) 0.370(5) 0.638(2)
H11 H 0.340(5) 0.560(5) 0.623(2)
C1A C 0.4797(2) 0.5700(2) -0.03074(12)
C2A C 0.2638(2) 0.5513(2) -0.05041(13)
H1A H 0.1427 0.4522 -0.0249
C3A C 0.2319(3) 0.6830(3) -0.10867(13)
H2A H 0.0891 0.6735 -0.1229
C4A C 0.4166(3) 0.8288(2) -0.14530(12)
H3A H 0.3999 0.9184 -0.1850
C5A C 0.6275(2) 0.8386(2) -0.12152(12)
C6A C 0.8326(2) 0.9957(2) -0.15857(12)
H4A H 0.8158 1.1242 -0.1567
H5A H 0.9649 1.0389 -0.1039
N1A N 0.6605(2) 0.71223(19) -0.06509(10)
O1A O 0.90333(19) 0.69478(17) -0.30039(10)
O2A O 0.67937(19) 0.83529(19) -0.37908(9)
O3A O 1.08299(19) 1.06015(18) -0.31937(10)
S1A S 0.87775(6) 0.88714(5) -0.30000(3)
N2A N -0.2486(2) 0.2107(2) 0.49905(13)
N3A N -0.2183(2) 0.5571(2) 0.41153(13)
H6A H -0.297(4) 0.208(4) 0.562(2)
H7A H -0.366(5) 0.169(4) 0.452(2)
H8A H -0.208(5) 0.113(5) 0.471(3)
H9A H -0.276(5) 0.622(5) 0.461(3)
H10A H -0.155(5) 0.630(5) 0.362(2)
H11A H -0.340(5) 0.440(5) 0.377(2)
O1A_2 O -0.09667(19) 0.69478(17) 0.69961(10)
Cu1_2 Cu 1.0000 0.5000 -0.5000
O4 O 0.4175(3) 0.7283(2) 0.27138(12)
H12 H 0.370(5) 0.606(5) 0.265(3)
H13 H 0.558(5) 0.769(5) 0.271(3)
loop_
_geom_bond_atom_site_label_1
_geom_bond_atom_site_label_2
_geom_bond_site_symmetry_1
_geom_bond_site_symmetry_2
C1 C2 1_555 1_555
C2 H1 1_555 1_555
C3 C2 1_555 1_555
H2 C3 1_555 1_555
C4 C3 1_555 1_555
H3 C4 1_555 1_555
C5 C4 1_555 1_555
C6 C5 1_555 1_555
H4 C6 1_555 1_555
H5 C6 1_555 1_555
N1 C1 1_555 1_555
N2 Cu1 1_555 1_555
N3 Cu1 1_555 1_555
O1 S1 1_555 1_555
O2 S1 1_555 1_555
O3 S1 1_555 1_555
S1 C6 1_555 1_555
Cu1 O1 1_555 1_555
H6 N2 1_555 1_555
H7 N2 1_555 1_555
H8 N2 1_555 1_555
H9 N3 1_555 1_555
H10 N3 1_555 1_555
H11 N3 1_555 1_555
O4 H12 1_555 1_555
H13 O4 1_555 1_555
C1A C1 1_555 1_555
C2A C1A 1_555 1_555
H1A C2A 1_555 1_555
C3A C2A 1_555 1_555
H2A C3A 1_555 1_555
C4A C3A 1_555 1_555
H3A C4A 1_555 1_555
C5A C4A 1_555 1_555
C6A C5A 1_555 1_555
H4A C6A 1_555 1_555
H5A C6A 1_555 1_555
N1A C1A 1_555 1_555
O1A S1A 1_555 1_555
O2A S1A 1_555 1_555
O3A S1A 1_555 1_555
S1A C6A 1_555 1_555
N2A Cu1 1_555 1_555
N3A Cu1 1_555 1_555
H6A N2A 1_555 1_555
H7A N2A 1_555 1_555
H8A N2A 1_555 1_555
H9A N3A 1_555 1_555
H10A N3A 1_555 1_555
H11A N3A 1_555 1_555
O1A_2 Cu1 1_555 1_555
Cu1_2 O1A 1_555 1_555
C5 N1 1_555 1_555
C5A N1A 1_555 1_555

#END
