
#######################################################################
#
#                 Cambridge Crystallographic Data Centre
#                                CCDC 
#
#######################################################################
#
# If this CIF has been generated from an entry in the Cambridge 
# Structural Database, then it will include bibliographic, chemical, 
# crystal, experimental, refinement or atomic coordinate data resulting 
# from the CCDC's data processing and validation procedures.
#
#######################################################################

data_FOPLED
_symmetry_cell_setting           monoclinic
_symmetry_space_group_name_H-M   'P 21/n'
_symmetry_Int_Tables_number      14
_space_group_name_Hall           '-P 2yn'
loop_
_symmetry_equiv_pos_site_id
_symmetry_equiv_pos_as_xyz
1 x,y,z
2 1/2-x,1/2+y,1/2-z
3 -x,-y,-z
4 1/2+x,1/2-y,1/2+z
_cell_length_a                   9.5474(7)
_cell_length_b                   10.5957(3)
_cell_length_c                   15.9142(6)
_cell_angle_alpha                90
_cell_angle_beta                 98.378(6)
_cell_angle_gamma                90
_cell_volume                     1592.72
loop_
_atom_site_label
_atom_site_type_symbol
_atom_site_fract_x
_atom_site_fract_y
_atom_site_fract_z
Cu1 Cu 0.295858(17) 0.740054(14) 0.664403(10)
N1 N 0.48068(12) 0.64493(10) 0.66549(7)
C1 C 0.60427(15) 0.70416(14) 0.69231(9)
H1 H 0.6012 0.7875 0.7139
C2 C 0.73534(15) 0.64945(15) 0.68986(10)
H2 H 0.8194 0.6957 0.7084
C3 C 0.74346(16) 0.52675(16) 0.66015(10)
H3 H 0.8323 0.4871 0.6585
C4 C 0.61838(15) 0.46466(13) 0.63314(9)
C5 C 0.59011(18) 0.33387(14) 0.59770(11)
H4 H 0.6106 0.2695 0.6429
H5 H 0.6487 0.3162 0.5526
C6 C 0.43157(18) 0.33437(13) 0.56124(9)
H6 H 0.3865 0.2541 0.5745
H7 H 0.4187 0.3453 0.4988
C7 C 0.36569(15) 0.44639(12) 0.60366(9)
H8 H 0.2979 0.4931 0.5619
H9 H 0.3162 0.4171 0.6506
C8 C 0.49035(14) 0.52691(12) 0.63642(8)
N2 N 0.17086(12) 0.77150(10) 0.54897(7)
C9 C 0.06302(15) 0.69171(14) 0.52219(9)
H10 H 0.0502 0.6201 0.5562
C10 C -0.02952(17) 0.70897(17) 0.44785(10)
H11 H -0.1017 0.6485 0.4311
C11 C -0.01741(16) 0.81429(17) 0.39752(10)
H12 H -0.0812 0.8284 0.3468
C12 C 0.09096(16) 0.89750(13) 0.42427(9)
C13 C 0.13445(19) 1.01833(14) 0.38554(10)
H13 H 0.0758 1.0901 0.3997
H14 H 0.127 1.0111 0.323
C14 C 0.2896(2) 1.03380(15) 0.42690(10)
H15 H 0.315 1.1242 0.4334
H16 H 0.3543 0.9925 0.3921
C15 C 0.29786(17) 0.96909(13) 0.51470(9)
H17 H 0.3917 0.9298 0.532
H18 H 0.2787 1.0298 0.5589
C16 C 0.18338(14) 0.87114(12) 0.49888(8)
S1 S 0.12383(4) 0.66541(3) 0.74447(2)
C17 C 0.14011(14) 0.51287(12) 0.76434(8)
N3 N 0.15024(14) 0.40614(11) 0.78016(8)
Cu1A Cu 0.204142(17) 0.240054(14) 0.835597(10)
N3A N 0.34976(14) 0.90614(11) 0.71984(8)
loop_
_geom_bond_atom_site_label_1
_geom_bond_atom_site_label_2
_geom_bond_site_symmetry_1
_geom_bond_site_symmetry_2
Cu1 N1 1_555 1_555
N1 C1 1_555 1_555
C1 H1 1_555 1_555
C2 C1 1_555 1_555
H2 C2 1_555 1_555
C3 C2 1_555 1_555
H3 C3 1_555 1_555
C4 C3 1_555 1_555
C5 C4 1_555 1_555
H4 C5 1_555 1_555
H5 C5 1_555 1_555
C6 C5 1_555 1_555
H6 C6 1_555 1_555
H7 C6 1_555 1_555
C7 C6 1_555 1_555
H8 C7 1_555 1_555
H9 C7 1_555 1_555
C8 N1 1_555 1_555
N2 Cu1 1_555 1_555
C9 N2 1_555 1_555
H10 C9 1_555 1_555
C10 C9 1_555 1_555
H11 C10 1_555 1_555
C11 C10 1_555 1_555
H12 C11 1_555 1_555
C12 C11 1_555 1_555
C13 C12 1_555 1_555
H13 C13 1_555 1_555
H14 C13 1_555 1_555
C14 C13 1_555 1_555
H15 C14 1_555 1_555
H16 C14 1_555 1_555
C15 C14 1_555 1_555
H17 C15 1_555 1_555
H18 C15 1_555 1_555
C16 N2 1_555 1_555
S1 Cu1 1_555 1_555
C17 S1 1_555 1_555
N3 C17 1_555 1_555
Cu1A N3 1_555 1_555
N3A Cu1 1_555 1_555
C4 C8 1_555 1_555
C7 C8 1_555 1_555
C12 C16 1_555 1_555
C15 C16 1_555 1_555

#END
