
#######################################################################
#
#                 Cambridge Crystallographic Data Centre
#                                CCDC 
#
#######################################################################
#
# If this CIF has been generated from an entry in the Cambridge 
# Structural Database, then it will include bibliographic, chemical, 
# crystal, experimental, refinement or atomic coordinate data resulting 
# from the CCDC's data processing and validation procedures.
#
#######################################################################

data_FOPNOO01
_symmetry_cell_setting           monoclinic
_symmetry_space_group_name_H-M   'P 21/n'
_symmetry_Int_Tables_number      14
_space_group_name_Hall           '-P 2yn'
loop_
_symmetry_equiv_pos_site_id
_symmetry_equiv_pos_as_xyz
1 x,y,z
2 1/2-x,1/2+y,1/2-z
3 -x,-y,-z
4 1/2+x,1/2-y,1/2+z
_cell_length_a                   10.174(2)
_cell_length_b                   9.1589(18)
_cell_length_c                   10.433(2)
_cell_angle_alpha                90
_cell_angle_beta                 90.750(2)
_cell_angle_gamma                90
_cell_volume                     972.091
loop_
_atom_site_label
_atom_site_type_symbol
_atom_site_fract_x
_atom_site_fract_y
_atom_site_fract_z
Ag1 Ag 0.79522(7) 0.08301(7) 0.37239(6)
Ag2 Ag 0.52885(8) 0.00936(9) 0.24998(6)
N1 N 0.7338(7) 0.2548(10) 0.2455(7)
N2 N 0.8519(6) 0.0502(7) 0.5798(5)
C1 C 0.7968(9) -0.1555(8) 0.3173(8)
C2 C 0.5053(9) 0.0010(9) 0.0545(7)
N3 N 0.5049(8) 0.0022(10) 0.4448(6)
C3 C 0.8406(8) 0.1557(9) 0.6661(7)
C4 C 0.8888(7) -0.0799(8) 0.6246(7)
H1 H 0.8165 0.2481 0.6372
C5 C 0.8623(8) 0.1377(9) 0.7951(7)
C6 C 0.9149(8) -0.1051(9) 0.7534(7)
H2 H 0.8975 -0.1568 0.5671
H3 H 0.8501 0.2160 0.8505
C7 C 0.9018(7) 0.0046(9) 0.8431(7)
H4 H 0.9416 -0.1975 0.7798
C8 C 0.9291(8) -0.0206(11) 0.9827(7)
H5 H 0.9143 -0.1226 1.0030
H6 H 0.8691 0.0376 1.0331
C1A C 0.7032(9) 0.3445(8) 0.1827(8)
C2B C 0.4947(9) -0.0010(9) -0.0545(7)
N3B N 0.4951(8) -0.0022(10) 0.5552(6)
Ag1A Ag 0.70478(7) 0.58301(7) 0.12761(6)
Ag2B Ag 0.47115(8) -0.00936(9) -0.24998(6)
Ag2B_2 Ag 0.47115(8) -0.00936(9) 0.75002(6)
Ag1B Ag 0.20478(7) -0.08301(7) -0.37239(6)
N3B_2 N 0.4951(8) -0.0022(10) -0.4448(6)
N1B N 0.2662(7) -0.2548(10) -0.2455(7)
C1B C 0.2032(9) 0.1555(8) -0.3173(8)
N2B N 0.1481(6) -0.0502(7) -0.5798(5)
C8B C 1.0709(8) 0.0206(11) 1.0173(7)
C1C C 0.2968(9) -0.3445(8) -0.1827(8)
C7B C 1.0982(7) -0.0046(9) 1.1569(7)
H5B H 1.0857 0.1226 0.9970
H6B H 1.1309 -0.0376 0.9669
Ag1C Ag 0.29522(7) -0.58301(7) -0.12761(6)
C5B C 1.1377(8) -0.1377(9) 1.2049(7)
C6B C 1.0851(8) 0.1051(9) 1.2466(7)
C3B C 1.1594(8) -0.1557(9) 1.3339(7)
H3B H 1.1499 -0.2160 1.1495
H4B H 1.0584 0.1975 1.2202
C4B C 1.1112(7) 0.0799(8) 1.3754(7)
H1B H 1.1835 -0.2481 1.3628
N2B_2 N 1.1481(6) -0.0502(7) 1.4202(5)
H2B H 1.1025 0.1568 1.4329
Ag1B_2 Ag 1.20478(7) -0.08301(7) 1.62761(6)
loop_
_geom_bond_atom_site_label_1
_geom_bond_atom_site_label_2
_geom_bond_site_symmetry_1
_geom_bond_site_symmetry_2
Ag1 Ag2 1_555 1_555
Ag2 C2 1_555 1_555
N1 Ag1 1_555 1_555
N2 Ag1 1_555 1_555
C1 Ag1 1_555 1_555
C2 C2B 1_555 1_555
N3 Ag2 1_555 1_555
C3 N2 1_555 1_555
C4 N2 1_555 1_555
H1 C3 1_555 1_555
C5 C3 1_555 1_555
C6 C4 1_555 1_555
H2 C4 1_555 1_555
H3 C5 1_555 1_555
C7 C5 1_555 1_555
H4 C6 1_555 1_555
C8 C7 1_555 1_555
H5 C8 1_555 1_555
H6 C8 1_555 1_555
C1A N1 1_555 1_555
C2B Ag2B 1_555 1_555
N3B N3 1_555 1_555
Ag1A C1A 1_555 1_555
Ag2B Ag1B 1_555 1_555
Ag2B_2 N3B 1_555 1_555
Ag1B N1B 1_555 1_555
N3B_2 Ag2B 1_555 1_555
N1B C1C 1_555 1_555
C1B Ag1B 1_555 1_555
N2B Ag1B 1_555 1_555
C8B C8 1_555 1_555
C1C Ag1C 1_555 1_555
C7B C8B 1_555 1_555
H5B C8B 1_555 1_555
H6B C8B 1_555 1_555
C5B C7B 1_555 1_555
C6B C7B 1_555 1_555
C3B C5B 1_555 1_555
H3B C5B 1_555 1_555
H4B C6B 1_555 1_555
C4B C6B 1_555 1_555
H1B C3B 1_555 1_555
N2B_2 C3B 1_555 1_555
H2B C4B 1_555 1_555
Ag1B_2 N2B_2 1_555 1_555
C6 C7 1_555 1_555
C4B N2B_2 1_555 1_555

#END
