
#######################################################################
#
#                 Cambridge Crystallographic Data Centre
#                                CCDC 
#
#######################################################################
#
# If this CIF has been generated from an entry in the Cambridge 
# Structural Database, then it will include bibliographic, chemical, 
# crystal, experimental, refinement or atomic coordinate data resulting 
# from the CCDC's data processing and validation procedures.
#
#######################################################################

data_FOPPIJ01
_symmetry_cell_setting           monoclinic
_symmetry_space_group_name_H-M   'P 21/c'
_symmetry_Int_Tables_number      14
_space_group_name_Hall           '-P 2ybc'
loop_
_symmetry_equiv_pos_site_id
_symmetry_equiv_pos_as_xyz
1 x,y,z
2 -x,1/2+y,1/2-z
3 -x,-y,-z
4 x,1/2-y,1/2+z
_cell_length_a                   14.036(2)
_cell_length_b                   11.229(3)
_cell_length_c                   12.999(2)
_cell_angle_alpha                90
_cell_angle_beta                 101.983(5)
_cell_angle_gamma                90
_cell_volume                     2004.13
loop_
_atom_site_label
_atom_site_type_symbol
_atom_site_fract_x
_atom_site_fract_y
_atom_site_fract_z
La1 La 0.232887(10) 0.205738(12) 0.350388(10)
O1 O 0.01310(17) -0.10232(19) 0.3705(2)
O2 O 0.14412(14) 0.00707(17) 0.36377(15)
O3 O 0.15353(14) 0.40339(16) 0.37220(15)
O4 O 0.02641(15) 0.52084(18) 0.37669(19)
O5 O 0.42528(15) -0.10893(17) 0.28556(14)
O6 O 0.35281(14) 0.06926(16) 0.28320(14)
O7 O 0.28513(14) 0.16319(17) 0.71551(14)
O8 O 0.23074(15) 0.21588(16) 0.54736(14)
O9 O 0.13837(16) 0.1511(2) 0.17075(16)
O10 O 0.37810(15) 0.32062(18) 0.43996(16)
N1 N 0.33643(16) 0.04899(19) 0.48131(16)
N2 N 0.04732(18) 0.20868(19) 0.36804(19)
C1 C 0.0654(2) 0.4216(2) 0.3739(2)
C2 C 0.0015(2) 0.3122(3) 0.3711(3)
C3 C -0.0964(3) 0.3186(3) 0.3727(5)
H1 H -0.1265 0.3918 0.3764
C4 C -0.1490(3) 0.2134(3) 0.3688(6)
H2 H -0.2154 0.2153 0.3677
C5 C -0.1017(3) 0.1062(3) 0.3664(4)
H3 H -0.1352 0.0346 0.3649
C6 C -0.0032(2) 0.1076(3) 0.3662(3)
C7 C 0.0576(2) -0.0024(3) 0.3665(2)
C8 C 0.38599(19) -0.0274(2) 0.3272(2)
C9 C 0.37797(19) -0.0428(2) 0.44124(19)
C10 C 0.4113(2) -0.1429(2) 0.5002(2)
H4 H 0.4373 -0.2069 0.4699
C11 C 0.4052(2) -0.1456(2) 0.6052(2)
H5 H 0.4277 -0.2114 0.6465
C12 C 0.36532(19) -0.0496(2) 0.64822(19)
H6 H 0.3623 -0.0487 0.7190
C13 C 0.33002(18) 0.0451(2) 0.58262(19)
C14 C 0.27834(19) 0.1504(2) 0.6189(2)
H8 H 0.154(3) 0.180(4) 0.125(4)
H9 H 0.422(3) 0.364(3) 0.420(3)
H10 H 0.398(3) 0.314(3) 0.504(3)
H14 H 0.095(3) 0.100(4) 0.151(3)
La1C La 0.232887(10) 0.294262(12) 0.850388(10)
O7C O 0.28513(14) 0.33681(17) 0.21551(14)
O11 O 0.45930(16) 0.18800(19) 0.14885(16)
H7 H 0.490(3) 0.245(4) 0.171(3)
H12 H 0.429(3) 0.168(3) 0.189(3)
O12 O 0.46587(16) 0.94242(19) 0.09593(16)
H11 H 0.453(2) 0.929(3) 0.151(3)
H13 H 0.480(3) 1.014(4) 0.097(3)
O13 O 0.2943(2) 0.9004(3) 0.9185(3)
H15 H 0.314(4) 0.908(5) 0.984(5)
H16 H 0.261(5) 0.962(7) 0.920(6)
O14 O 0.1211(3) 0.7765(3) 0.8760(5)
H17 H 0.170(5) 0.773(6) 0.911(5)
H18 H 0.094(5) 0.831(6) 0.881(5)
loop_
_geom_bond_atom_site_label_1
_geom_bond_atom_site_label_2
_geom_bond_site_symmetry_1
_geom_bond_site_symmetry_2
La1 O2 1_555 1_555
O1 C7 1_555 1_555
O2 C7 1_555 1_555
O3 La1 1_555 1_555
O4 C1 1_555 1_555
O5 C8 1_555 1_555
O6 La1 1_555 1_555
O7 C14 1_555 1_555
O8 La1 1_555 1_555
O9 La1 1_555 1_555
O10 La1 1_555 1_555
O11 H7 1_555 1_555
O12 H11 1_555 1_555
O13 H15 1_555 1_555
O14 H17 1_555 1_555
N1 La1 1_555 1_555
N2 La1 1_555 1_555
C1 O3 1_555 1_555
C2 N2 1_555 1_555
C3 C2 1_555 1_555
H1 C3 1_555 1_555
C4 C3 1_555 1_555
H2 C4 1_555 1_555
C5 C4 1_555 1_555
H3 C5 1_555 1_555
C6 N2 1_555 1_555
C7 C6 1_555 1_555
C8 O6 1_555 1_555
C9 N1 1_555 1_555
C10 C9 1_555 1_555
H4 C10 1_555 1_555
C11 C10 1_555 1_555
H5 C11 1_555 1_555
C12 C11 1_555 1_555
H6 C12 1_555 1_555
C13 N1 1_555 1_555
C14 O8 1_555 1_555
H8 O9 1_555 1_555
H9 O10 1_555 1_555
H10 O10 1_555 1_555
H12 O11 1_555 1_555
H13 O12 1_555 1_555
H14 O9 1_555 1_555
H16 O13 1_555 1_555
H18 O14 1_555 1_555
La1C O7 1_555 1_555
O7C La1 1_555 1_555
C1 C2 1_555 1_555
C5 C6 1_555 1_555
C8 C9 1_555 1_555
C12 C13 1_555 1_555
C13 C14 1_555 1_555

#END
