
#######################################################################
#
#                 Cambridge Crystallographic Data Centre
#                                CCDC 
#
#######################################################################
#
# If this CIF has been generated from an entry in the Cambridge 
# Structural Database, then it will include bibliographic, chemical, 
# crystal, experimental, refinement or atomic coordinate data resulting 
# from the CCDC's data processing and validation procedures.
#
#######################################################################

data_FOPPIJ02
_symmetry_cell_setting           monoclinic
_symmetry_space_group_name_H-M   'P 21/c'
_symmetry_Int_Tables_number      14
_space_group_name_Hall           '-P 2ybc'
loop_
_symmetry_equiv_pos_site_id
_symmetry_equiv_pos_as_xyz
1 x,y,z
2 -x,1/2+y,1/2-z
3 -x,-y,-z
4 x,1/2-y,1/2+z
_cell_length_a                   14.1450(5)
_cell_length_b                   11.2702(4)
_cell_length_c                   13.0331(4)
_cell_angle_alpha                90
_cell_angle_beta                 101.5620(10)
_cell_angle_gamma                90
_cell_volume                     2035.54
loop_
_atom_site_label
_atom_site_type_symbol
_atom_site_fract_x
_atom_site_fract_y
_atom_site_fract_z
C1 C 0.00111(15) 0.3152(2) 0.37022(18)
C2 C -0.09697(19) 0.3226(3) 0.3680(3)
H1 H -0.1269 0.3958 0.3697
C3 C -0.1494(2) 0.2187(3) 0.3631(3)
H2 H -0.2156 0.2213 0.3599
C4 C -0.10317(19) 0.1116(3) 0.3630(3)
H3 H -0.1371 0.0406 0.3606
C5 C -0.00488(16) 0.1120(2) 0.36653(17)
C6 C 0.06523(15) 0.42351(19) 0.37355(17)
C7 C 0.05534(17) 0.0020(2) 0.36849(17)
C8 C 0.37541(14) -0.04004(18) 0.44142(14)
C9 C 0.41000(16) -0.1386(2) 0.50037(17)
H4 H 0.4369 -0.2018 0.4703
C10 C 0.40387(17) -0.1416(2) 0.60502(17)
H5 H 0.4267 -0.2069 0.6462
C11 C 0.36348(15) -0.04660(19) 0.64779(15)
H6 H 0.3607 -0.0455 0.7185
C12 C 0.32731(13) 0.04682(17) 0.58265(14)
C13 C 0.27577(14) 0.15082(17) 0.61896(14)
C14 C 0.38267(15) -0.02502(19) 0.32748(15)
N1 N 0.04610(12) 0.21190(15) 0.36868(13)
N2 N 0.33328(11) 0.05049(14) 0.48148(12)
O1 O 0.02730(12) 0.52251(15) 0.37588(16)
O2 O 0.15290(10) 0.40427(13) 0.37375(13)
O3 O 0.14090(11) 0.00973(14) 0.36631(13)
O4 O 0.22874(11) 0.21672(13) 0.54848(11)
O5 O 0.28194(11) 0.16348(14) 0.71526(11)
O6 O 0.34892(12) 0.07007(14) 0.28384(11)
O7 O 0.42242(14) -0.10559(16) 0.28654(13)
La1 La 0.231144(7) 0.207241(9) 0.351787(8)
O8 O 0.37713(12) 0.31979(16) 0.43950(12)
H7 H 0.4199(18) 0.360(3) 0.421(2)
H8 H 0.396(2) 0.312(3) 0.5040(13)
O9 O 0.13563(14) 0.15349(19) 0.17285(12)
H9 H 0.152(2) 0.183(3) 0.123(2)
H10 H 0.0908(19) 0.109(3) 0.154(2)
O14 O 0.00935(15) -0.09619(17) 0.37339(17)
H19 H 0.048(2) -0.151(2) 0.374(3)
O5C O 0.28194(11) 0.33652(14) 0.21526(11)
La1C La 0.231144(7) 0.292759(9) 0.851787(8)
O10 O 0.45872(13) 0.30877(16) 0.64881(13)
H11 H 0.427(2) 0.327(3) 0.692(2)
H12 H 0.492(2) 0.253(2) 0.673(2)
O11 O 0.53150(16) 0.44147(18) 0.40096(15)
H13 H 0.544(2) 0.428(3) 0.3431(18)
H14 H 0.518(3) 0.5131(17) 0.399(3)
O12 O 0.11825(19) -0.2713(2) 0.3824(3)
H15 H 0.1788(14) -0.266(4) 0.397(4)
H16 H 0.104(3) -0.340(2) 0.386(4)
O13 O 0.2912(3) -0.3994(3) 0.4222(4)
H17 H 0.3471(18) -0.414(7) 0.451(5)
H18 H 0.263(4) -0.422(7) 0.474(4)
loop_
_geom_bond_atom_site_label_1
_geom_bond_atom_site_label_2
_geom_bond_site_symmetry_1
_geom_bond_site_symmetry_2
C1 C2 1_555 1_555
C2 H1 1_555 1_555
C3 C2 1_555 1_555
H2 C3 1_555 1_555
C4 C3 1_555 1_555
H3 C4 1_555 1_555
C5 C4 1_555 1_555
C6 C1 1_555 1_555
C7 C5 1_555 1_555
C8 C9 1_555 1_555
C9 H4 1_555 1_555
C10 C9 1_555 1_555
H5 C10 1_555 1_555
C11 C10 1_555 1_555
H6 C11 1_555 1_555
C12 C11 1_555 1_555
C13 C12 1_555 1_555
C14 C8 1_555 1_555
N1 C1 1_555 1_555
N2 C8 1_555 1_555
O1 C6 1_555 1_555
O2 C6 1_555 1_555
O3 C7 1_555 1_555
O4 C13 1_555 1_555
O5 C13 1_555 1_555
O6 C14 1_555 1_555
O7 C14 1_555 1_555
La1 N1 1_555 1_555
O8 La1 1_555 1_555
H7 O8 1_555 1_555
H8 O8 1_555 1_555
O9 La1 1_555 1_555
H9 O9 1_555 1_555
H10 O9 1_555 1_555
O10 H11 1_555 1_555
H12 O10 1_555 1_555
O11 H13 1_555 1_555
H14 O11 1_555 1_555
O12 H15 1_555 1_555
H16 O12 1_555 1_555
O13 H17 1_555 1_555
H18 O13 1_555 1_555
O14 C7 1_555 1_555
H19 O14 1_555 1_555
O5C La1 1_555 1_555
La1C O5 1_555 1_555
C5 N1 1_555 1_555
C12 N2 1_555 1_555
N2 La1 1_555 1_555
O2 La1 1_555 1_555
O3 La1 1_555 1_555
O4 La1 1_555 1_555
O6 La1 1_555 1_555

#END
