
#######################################################################
#
#                 Cambridge Crystallographic Data Centre
#                                CCDC 
#
#######################################################################
#
# If this CIF has been generated from an entry in the Cambridge 
# Structural Database, then it will include bibliographic, chemical, 
# crystal, experimental, refinement or atomic coordinate data resulting 
# from the CCDC's data processing and validation procedures.
#
#######################################################################

data_FOPPOQ
_symmetry_cell_setting           orthorhombic
_symmetry_space_group_name_H-M   'P b c a'
_symmetry_Int_Tables_number      61
_space_group_name_Hall           '-P 2ac 2ab'
loop_
_symmetry_equiv_pos_site_id
_symmetry_equiv_pos_as_xyz
1 x,y,z
2 1/2-x,-y,1/2+z
3 -x,1/2+y,1/2-z
4 1/2+x,1/2-y,-z
5 -x,-y,-z
6 1/2+x,y,1/2-z
7 x,1/2-y,1/2+z
8 1/2-x,1/2+y,z
_cell_length_a                   8.9104(7)
_cell_length_b                   13.4625(10)
_cell_length_c                   25.651(2)
_cell_angle_alpha                90
_cell_angle_beta                 90
_cell_angle_gamma                90
_cell_volume                     3077
loop_
_atom_site_label
_atom_site_type_symbol
_atom_site_fract_x
_atom_site_fract_y
_atom_site_fract_z
Ag1 Ag 0.11142(4) 0.33631(3) 0.391405(15)
S1 S 0.03163(14) 0.53079(9) 0.35990(5)
S2 S 0.25814(14) 0.53056(9) 0.27754(5)
N1 N -0.0684(5) 0.6497(3) 0.52280(15)
N2 N 0.0177(4) 0.7420(3) 0.16624(15)
C1 C 0.0613(5) 0.6713(4) 0.49970(19)
H1 H 0.1299 0.7104 0.5177
C2 C 0.0994(5) 0.6387(3) 0.45055(18)
H2 H 0.1920 0.6555 0.4363
C3 C 0.0001(5) 0.5809(3) 0.42229(18)
C4 C -0.1364(5) 0.5605(3) 0.44557(19)
H3 H -0.2087 0.5237 0.4279
C5 C -0.1644(5) 0.5952(3) 0.4951(2)
H4 H -0.2563 0.5795 0.5102
C6 C 0.2188(5) 0.5718(3) 0.34221(16)
H5 H 0.2246 0.6437 0.3439
H6 H 0.2918 0.5444 0.3663
C7 C 0.1634(5) 0.6157(3) 0.23778(18)
C8 C 0.1054(5) 0.7059(4) 0.25271(18)
H7 H 0.1151 0.7272 0.2870
C9 C 0.0326(5) 0.7645(4) 0.2166(2)
H8 H -0.0089 0.8239 0.2282
C10 C 0.0785(5) 0.6549(4) 0.15177(17)
H9 H 0.0713 0.6362 0.1170
C11 C 0.1508(5) 0.5918(3) 0.18573(18)
H10 H 0.1914 0.5326 0.1735
O1 O 0.3539(4) 0.3253(3) 0.36195(13)
C12 C 0.4630(6) 0.3619(4) 0.3857(2)
O2 O 0.4547(4) 0.4255(3) 0.42070(15)
C13 C 0.6180(5) 0.3241(3) 0.37187(19)
H11 H 0.6887 0.3462 0.3976
H12 H 0.6467 0.3493 0.3383
H13 H 0.6170 0.2528 0.3709
Ag1D Ag -0.11142(4) 0.66369(3) 0.608595(15)
Ag1B Ag -0.11142(4) 0.83631(3) 0.108595(15)
N1D N 0.0684(5) 0.3503(3) 0.47720(15)
N2B N -0.0177(4) 0.2420(3) 0.33376(15)
O3 O 0.0434(4) 0.1024(3) 0.47064(17)
loop_
_geom_bond_atom_site_label_1
_geom_bond_atom_site_label_2
_geom_bond_site_symmetry_1
_geom_bond_site_symmetry_2
Ag1 S1 1_555 1_555
S1 C3 1_555 1_555
S2 C6 1_555 1_555
N1 C1 1_555 1_555
N2 C9 1_555 1_555
C1 H1 1_555 1_555
C2 C1 1_555 1_555
H2 C2 1_555 1_555
C3 C2 1_555 1_555
C4 C3 1_555 1_555
H3 C4 1_555 1_555
C5 N1 1_555 1_555
H4 C5 1_555 1_555
C6 S1 1_555 1_555
H5 C6 1_555 1_555
H6 C6 1_555 1_555
C7 S2 1_555 1_555
C8 C7 1_555 1_555
H7 C8 1_555 1_555
C9 C8 1_555 1_555
H8 C9 1_555 1_555
C10 N2 1_555 1_555
H9 C10 1_555 1_555
C11 C7 1_555 1_555
H10 C11 1_555 1_555
O1 Ag1 1_555 1_555
C12 O1 1_555 1_555
O2 C12 1_555 1_555
C13 C12 1_555 1_555
H11 C13 1_555 1_555
H12 C13 1_555 1_555
H13 C13 1_555 1_555
Ag1D N1 1_555 1_555
Ag1B N2 1_555 1_555
N1D Ag1 1_555 1_555
N2B Ag1 1_555 1_555
C4 C5 1_555 1_555
C10 C11 1_555 1_555

#END
