
#######################################################################
#
#                 Cambridge Crystallographic Data Centre
#                                CCDC 
#
#######################################################################
#
# If this CIF has been generated from an entry in the Cambridge 
# Structural Database, then it will include bibliographic, chemical, 
# crystal, experimental, refinement or atomic coordinate data resulting 
# from the CCDC's data processing and validation procedures.
#
#######################################################################

data_FOPPAC
_symmetry_cell_setting           monoclinic
_symmetry_space_group_name_H-M   'P 21/c'
_symmetry_Int_Tables_number      14
_space_group_name_Hall           '-P 2ybc'
loop_
_symmetry_equiv_pos_site_id
_symmetry_equiv_pos_as_xyz
1 x,y,z
2 -x,1/2+y,1/2-z
3 -x,-y,-z
4 x,1/2-y,1/2+z
_cell_length_a                   9.5955(5)
_cell_length_b                   10.4076(6)
_cell_length_c                   19.7752(11)
_cell_angle_alpha                90
_cell_angle_beta                 100.7840(10)
_cell_angle_gamma                90
_cell_volume                     1940
loop_
_atom_site_label
_atom_site_type_symbol
_atom_site_fract_x
_atom_site_fract_y
_atom_site_fract_z
Co1 Co 0.29471(10) -0.10099(10) 0.86633(5)
Co2 Co 0.52788(13) -0.12422(12) 1.02232(6)
O1 O 0.4204(5) -0.2071(5) 0.9426(2)
O2 O 0.2339(6) -0.2805(5) 0.8372(3)
O3 O 0.3037(6) -0.4798(6) 0.8419(3)
O4 O 0.6788(5) -0.2594(5) 1.0126(3)
O5 O 0.8009(6) -0.4046(6) 0.9716(3)
O6 O 0.3486(5) 0.0818(5) 0.8926(2)
O7 O 0.1589(6) -0.0067(5) 0.7905(3)
O8 O 0.1088(6) 0.1847(6) 0.7463(3)
O9 O 0.5606(5) 0.2490(5) 0.9173(3)
O10 O 0.6252(6) 0.3279(7) 0.8265(3)
O11 O 0.3899(5) -0.0027(5) 1.0236(2)
O12 O 0.4487(7) -0.1065(7) 0.8052(3)
O13 O 0.1372(6) -0.0865(6) 0.9305(3)
C1 C 0.3146(8) -0.3702(8) 0.8636(4)
C2 C 0.4242(8) -0.3372(7) 0.9264(4)
H1 H 0.4039 -0.3872 0.9654
C3 C 0.5690(9) -0.3766(8) 0.9131(5)
H2 H 0.5680 -0.4683 0.9044
H3 H 0.5851 -0.3337 0.8717
C4 C 0.6892(8) -0.3472(7) 0.9697(4)
C5 C 0.1787(8) 0.1122(8) 0.7866(4)
C6 C 0.2963(8) 0.1690(8) 0.8406(4)
H4 H 0.2583 0.2436 0.8614
C7 C 0.4133(9) 0.2137(9) 0.8058(4)
H5 H 0.3758 0.2791 0.7725
H6 H 0.4432 0.1419 0.7807
C8 C 0.5411(8) 0.2671(8) 0.8525(4)
H7 H 0.375(7) 0.044(6) 0.988(2)
H8 H 0.514(4) -0.158(5) 0.822(2)
H9 H 0.412(2) -0.129(7) 0.7644(10)
H10 H 0.1855(18) -0.079(7) 0.9710(7)
H11 H 0.097(5) -0.160(3) 0.927(3)
Co2B Co 0.47212(13) 0.12422(12) 0.97768(6)
O6B O 0.6514(5) -0.0818(5) 1.1074(2)
O9B O 0.4394(5) -0.2490(5) 1.0827(3)
O11B O 0.6101(5) 0.0027(5) 0.9764(2)
H7B H 0.625(7) -0.044(6) 1.012(2)
K1 K 0.88964(19) 0.28958(18) 0.80219(10)
K2 K 0.0327(2) 0.2048(2) 0.61146(11)
O14 O 0.2704(7) 0.3836(7) 0.6265(4)
H12 H 0.225(9) 0.414(7) 0.656(3)
H13 H 0.261(9) 0.432(6) 0.592(3)
O15 O 1.0482(7) 0.1571(7) 0.9321(4)
H14 H 0.982(5) 0.197(7) 0.946(5)
H15 H 1.126(4) 0.198(7) 0.944(5)
O16 O 1.0599(7) 0.4536(7) 0.8897(4)
H16 H 1.133(5) 0.472(9) 0.873(3)
H17 H 1.075(8) 0.469(9) 0.9327(11)
O17 O -0.1583(7) 0.1808(7) 0.4714(4)
H18 H -0.243(4) 0.197(6) 0.451(5)
H19 H -0.146(8) 0.1001(16) 0.473(5)
O18 O 0.8575(7) 0.0211(7) 0.7892(3)
H20 H 0.902(9) -0.050(5) 0.794(4)
H21 H 0.819(9) 0.031(7) 0.7473(14)
loop_
_geom_bond_atom_site_label_1
_geom_bond_atom_site_label_2
_geom_bond_site_symmetry_1
_geom_bond_site_symmetry_2
Co1 O1 1_555 1_555
Co2 O1 1_555 1_555
O1 C2 1_555 1_555
O2 Co1 1_555 1_555
O3 C1 1_555 1_555
O4 Co2 1_555 1_555
O5 C4 1_555 1_555
O6 Co1 1_555 1_555
O7 Co1 1_555 1_555
O8 C5 1_555 1_555
O9 C8 1_555 1_555
O10 C8 1_555 1_555
O11 Co2 1_555 1_555
O12 Co1 1_555 1_555
O13 Co1 1_555 1_555
O14 H12 1_555 1_555
O15 H14 1_555 1_555
O16 H16 1_555 1_555
O17 H18 1_555 1_555
O18 H20 1_555 1_555
C1 O2 1_555 1_555
C2 C1 1_555 1_555
H1 C2 1_555 1_555
C3 C2 1_555 1_555
H2 C3 1_555 1_555
H3 C3 1_555 1_555
C4 O4 1_555 1_555
C5 O7 1_555 1_555
C6 O6 1_555 1_555
H4 C6 1_555 1_555
C7 C6 1_555 1_555
H5 C7 1_555 1_555
H6 C7 1_555 1_555
C8 C7 1_555 1_555
H7 O11 1_555 1_555
H8 O12 1_555 1_555
H9 O12 1_555 1_555
H10 O13 1_555 1_555
H11 O13 1_555 1_555
H13 O14 1_555 1_555
H15 O15 1_555 1_555
H17 O16 1_555 1_555
H19 O17 1_555 1_555
H21 O18 1_555 1_555
Co2B O6 1_555 1_555
O6B Co2 1_555 1_555
O9B Co2 1_555 1_555
O11B Co2 1_555 1_555
H7B O11B 1_555 1_555
O9 Co2B 1_555 1_555
O11 Co2B 1_555 1_555
C3 C4 1_555 1_555
C5 C6 1_555 1_555
Co2B O11B 1_555 1_555

#END
