
#######################################################################
#
#                 Cambridge Crystallographic Data Centre
#                                CCDC 
#
#######################################################################
#
# If this CIF has been generated from an entry in the Cambridge 
# Structural Database, then it will include bibliographic, chemical, 
# crystal, experimental, refinement or atomic coordinate data resulting 
# from the CCDC's data processing and validation procedures.
#
#######################################################################

data_FOPVOW
_symmetry_cell_setting           triclinic
_symmetry_space_group_name_H-M   'P -1'
_symmetry_Int_Tables_number      2
_space_group_name_Hall           '-P 1'
loop_
_symmetry_equiv_pos_site_id
_symmetry_equiv_pos_as_xyz
1 x,y,z
2 -x,-y,-z
_cell_length_a                   8.1788(17)
_cell_length_b                   12.952(3)
_cell_length_c                   12.968(3)
_cell_angle_alpha                94.400(3)
_cell_angle_beta                 92.260(4)
_cell_angle_gamma                101.360(4)
_cell_volume                     1340.75
loop_
_atom_site_label
_atom_site_type_symbol
_atom_site_fract_x
_atom_site_fract_y
_atom_site_fract_z
Eu1 Eu 0.73600(3) 0.48126(2) 0.456166(17)
O1 O 0.4568(4) 0.4007(3) 0.5433(3)
O2 O 0.5557(5) 0.3096(3) 0.4185(3)
O3 O 0.9216(5) 0.6051(3) 0.3740(3)
O4 O 1.1918(5) 0.6127(3) 0.4062(3)
O5 O 1.1850(5) 0.3897(4) 0.4020(3)
O6 O 0.9161(5) 0.3861(4) 0.3798(3)
N1 N 0.6157(6) 0.4694(4) 0.2614(3)
C1 C 0.4625(7) 0.3117(4) 0.4921(4)
C2 C 0.3627(7) 0.2113(5) 0.5232(5)
C3 C 0.3584(9) 0.1183(5) 0.4593(6)
C4 C 0.2655(11) 0.0222(6) 0.4900(8)
C5 C 0.2587(14) -0.0791(9) 0.4192(9)
C6 C 0.1827(12) 0.0226(7) 0.5816(9)
C7 C 0.1893(11) 0.1146(7) 0.6440(7)
C8 C 0.2793(9) 0.2109(5) 0.6150(6)
C9 C 0.8629(11) 0.1992(6) 0.2546(6)
C10 C 0.8470(13) 0.1055(8) 0.1842(8)
C11 C 0.9854(13) 0.0768(8) 0.1534(8)
C12 C 1.1432(13) 0.1277(8) 0.1808(8)
C13 C 1.3122(18) 0.0957(11) 0.1472(11)
C14 C 1.1688(11) 0.2231(6) 0.2519(5)
C15 C 1.0251(8) 0.2545(4) 0.2857(4)
C16 C 1.0715(7) 0.6302(4) 0.3526(4)
C17 C 1.1110(8) 0.6845(5) 0.2552(4)
C18 C 1.2756(9) 0.7251(6) 0.2353(5)
C19 C 1.3099(11) 0.7733(7) 0.1421(7)
C20 C 1.4931(17) 0.8170(11) 0.1208(11)
C21 C 1.1848(12) 0.7775(7) 0.0728(7)
C22 C 1.0210(12) 0.7380(8) 0.0905(8)
C23 C 0.9822(10) 0.6896(7) 0.1845(5)
C24 C 0.7087(10) 0.4457(7) 0.1836(5)
C25 C 0.6653(10) 0.4556(7) 0.0797(5)
C26 C 0.5234(8) 0.4923(5) 0.0546(4)
C27 C 0.4246(8) 0.5126(7) 0.1343(4)
C28 C 0.4747(8) 0.5000(7) 0.2355(4)
C29 C 1.0433(7) 0.3499(4) 0.3611(4)
Eu1A Eu 0.26400(3) 0.51874(2) 0.543834(17)
Eu1A_2 Eu 1.26400(3) 0.51874(2) 0.543834(17)
Eu1A_3 Eu 0.26400(3) 0.51874(2) -0.456166(17)
O1A O 0.5432(4) 0.5993(3) 0.4567(3)
O2A O 0.4443(5) 0.6904(3) 0.5815(3)
O3A O 1.0784(5) 0.3949(3) 0.6260(3)
O3A_2 O 0.0784(5) 0.3949(3) 0.6260(3)
O4A O 0.8082(5) 0.3873(3) 0.5938(3)
O4_2 O 0.1918(5) 0.6127(3) 0.4062(3)
O5A O 0.8150(5) 0.6103(4) 0.5980(3)
O5_2 O 0.1850(5) 0.3897(4) 0.4020(3)
O6A O 1.0839(5) 0.6139(4) 0.6202(3)
O6A_2 O 0.0839(5) 0.6139(4) 0.6202(3)
N1A N 0.3843(6) 0.5306(4) -0.2614(3)
N1A_2 N 0.3843(6) 0.5306(4) 0.7386(3)
C1A C 0.5375(7) 0.6883(4) 0.5079(4)
C2A C 0.6373(7) 0.7887(5) 0.4768(5)
C3A C 0.6416(9) 0.8817(5) 0.5407(6)
C4A C 0.7345(11) 0.9778(6) 0.5100(8)
C5A C 0.7413(14) 1.0791(9) 0.5808(9)
C6A C 0.8173(12) 0.9774(7) 0.4184(9)
C7A C 0.8107(11) 0.8854(7) 0.3560(7)
C8A C 0.7207(9) 0.7891(5) 0.3850(6)
C9A C 1.1371(11) 0.8008(6) 0.7454(6)
C10A C 1.1530(13) 0.8945(8) 0.8158(8)
C11A C 1.0146(13) 0.9232(8) 0.8466(8)
C12A C 0.8568(13) 0.8723(8) 0.8192(8)
C13A C 0.6878(18) 0.9043(11) 0.8528(11)
C14A C 0.8312(11) 0.7769(6) 0.7481(5)
C15A C 0.9749(8) 0.7455(4) 0.7143(4)
C16A C 0.9285(7) 0.3698(4) 0.6474(4)
C17A C 0.8890(8) 0.3155(5) 0.7448(4)
C18A C 0.7244(9) 0.2749(6) 0.7647(5)
C19A C 0.6901(11) 0.2267(7) 0.8579(7)
C20A C 0.5069(17) 0.1830(11) 0.8792(11)
C21A C 0.8152(12) 0.2225(7) 0.9272(7)
C22A C 0.9790(12) 0.2620(8) 0.9095(8)
C23A C 1.0178(10) 0.3104(7) 0.8155(5)
C24A C 0.2913(10) 0.5543(7) -0.1836(5)
C25A C 0.3347(10) 0.5444(7) -0.0797(5)
C26A C 0.4766(8) 0.5077(5) -0.0546(4)
C27A C 0.5754(8) 0.4874(7) -0.1343(4)
C28A C 0.5253(8) 0.5000(7) -0.2355(4)
C29A C 0.9567(7) 0.6501(4) 0.6389(4)
loop_
_geom_bond_atom_site_label_1
_geom_bond_atom_site_label_2
_geom_bond_site_symmetry_1
_geom_bond_site_symmetry_2
Eu1 O1 1_555 1_555
O1 C1 1_555 1_555
O2 Eu1 1_555 1_555
O3 Eu1 1_555 1_555
O4 C16 1_555 1_555
O5 C29 1_555 1_555
O6 Eu1 1_555 1_555
N1 Eu1 1_555 1_555
C1 O2 1_555 1_555
C2 C1 1_555 1_555
C3 C2 1_555 1_555
C4 C3 1_555 1_555
C5 C4 1_555 1_555
C6 C4 1_555 1_555
C7 C6 1_555 1_555
C8 C2 1_555 1_555
C9 C10 1_555 1_555
C10 C11 1_555 1_555
C11 C12 1_555 1_555
C12 C13 1_555 1_555
C14 C12 1_555 1_555
C15 C9 1_555 1_555
C16 O3 1_555 1_555
C17 C16 1_555 1_555
C18 C17 1_555 1_555
C19 C18 1_555 1_555
C20 C19 1_555 1_555
C21 C19 1_555 1_555
C22 C21 1_555 1_555
C23 C17 1_555 1_555
C24 N1 1_555 1_555
C25 C24 1_555 1_555
C26 C25 1_555 1_555
C27 C26 1_555 1_555
C28 N1 1_555 1_555
C29 O6 1_555 1_555
Eu1A O1 1_555 1_555
Eu1A_2 O4 1_555 1_555
Eu1A_3 N1A 1_555 1_555
O1A Eu1 1_555 1_555
O2A Eu1A 1_555 1_555
O3A Eu1A_2 1_555 1_555
O3A_2 Eu1A 1_555 1_555
O4A Eu1 1_555 1_555
O4_2 Eu1A 1_555 1_555
O5A Eu1 1_555 1_555
O5_2 Eu1A 1_555 1_555
O6A Eu1A_2 1_555 1_555
O6A_2 Eu1A 1_555 1_555
N1A C24A 1_555 1_555
N1A_2 Eu1A 1_555 1_555
C1A O1A 1_555 1_555
C2A C1A 1_555 1_555
C3A C2A 1_555 1_555
C4A C3A 1_555 1_555
C5A C4A 1_555 1_555
C6A C4A 1_555 1_555
C7A C6A 1_555 1_555
C8A C2A 1_555 1_555
C9A C10A 1_555 1_555
C10A C11A 1_555 1_555
C11A C12A 1_555 1_555
C12A C13A 1_555 1_555
C14A C12A 1_555 1_555
C15A C9A 1_555 1_555
C16A O3A 1_555 1_555
C17A C16A 1_555 1_555
C18A C17A 1_555 1_555
C19A C18A 1_555 1_555
C20A C19A 1_555 1_555
C21A C19A 1_555 1_555
C22A C21A 1_555 1_555
C23A C17A 1_555 1_555
C24A C25A 1_555 1_555
C25A C26A 1_555 1_555
C26A C26 1_555 1_555
C27A C26A 1_555 1_555
C28A N1A 1_555 1_555
C29A O5A 1_555 1_555
O5 Eu1A_2 1_555 1_555
C7 C8 1_555 1_555
C14 C15 1_555 1_555
C15 C29 1_555 1_555
C22 C23 1_555 1_555
C27 C28 1_555 1_555
Eu1A O1A 1_555 1_555
O2A C1A 1_555 1_555
O4A C16A 1_555 1_555
O6A C29A 1_555 1_555
C7A C8A 1_555 1_555
C14A C15A 1_555 1_555
C15A C29A 1_555 1_555
C22A C23A 1_555 1_555
C27A C28A 1_555 1_555

#END
