
#######################################################################
#
#                 Cambridge Crystallographic Data Centre
#                                CCDC 
#
#######################################################################
#
# If this CIF has been generated from an entry in the Cambridge 
# Structural Database, then it will include bibliographic, chemical, 
# crystal, experimental, refinement or atomic coordinate data resulting 
# from the CCDC's data processing and validation procedures.
#
#######################################################################

data_FOPYUG
_symmetry_cell_setting           monoclinic
_symmetry_space_group_name_H-M   'P 21/c'
_symmetry_Int_Tables_number      14
_space_group_name_Hall           '-P 2ybc'
loop_
_symmetry_equiv_pos_site_id
_symmetry_equiv_pos_as_xyz
1 x,y,z
2 -x,1/2+y,1/2-z
3 -x,-y,-z
4 x,1/2-y,1/2+z
_cell_length_a                   12.763(2)
_cell_length_b                   19.971(3)
_cell_length_c                   14.098(3)
_cell_angle_alpha                90
_cell_angle_beta                 95.452(6)
_cell_angle_gamma                90
_cell_volume                     3577.18
loop_
_atom_site_label
_atom_site_type_symbol
_atom_site_fract_x
_atom_site_fract_y
_atom_site_fract_z
O1 O 0.3819(3) 0.80854(17) 0.3693(2)
Cl1 Cl 0.00926(8) 0.97183(5) 0.62176(8)
Cl2 Cl 0.25911(9) 0.95773(6) 0.45730(8)
Cl3 Cl -0.04177(12) 0.83949(6) 0.38518(10)
Cd1 Cd 0.07889(3) 0.918774(16) 0.47729(2)
C1 C 0.2223(3) 0.7850(2) 0.5373(3)
H1 H 0.2530 0.7984 0.4815
C2 C 0.1004(3) 0.8029(2) 0.6439(3)
H2 H 0.0449 0.8291 0.6650
C3 C 0.1331(4) 0.7466(2) 0.6957(3)
H3 H 0.1004 0.7343 0.7509
C4 C 0.2143(4) 0.7084(2) 0.6654(3)
H4 H 0.2374 0.6691 0.6992
C5 C 0.2616(3) 0.7282(2) 0.5850(3)
C6 C 0.3586(4) 0.6942(2) 0.5531(4)
H5 H 0.3735 0.7133 0.4910
H6 H 0.4194 0.7044 0.5997
C7 C 0.4484(3) 0.5899(2) 0.5165(3)
H7 H 0.5067 0.6044 0.5632
H8 H 0.4627 0.6074 0.4533
C8 C 0.4474(3) 0.5139(2) 0.5124(4)
H9 H 0.3911 0.4989 0.4639
H10 H 0.4316 0.4959 0.5749
N1 N 0.1433(3) 0.82211(17) 0.5658(3)
N2 N 0.3487(3) 0.61984(16) 0.5431(3)
H11 H 0.3323 0.6017 0.5999
H12 H 0.2949 0.6098 0.4972
C1B C 0.7777(3) 0.2150(2) 0.4627(3)
H1B H 0.7470 0.2016 0.5185
C2B C 0.8996(3) 0.1971(2) 0.3561(3)
H2B H 0.9551 0.1709 0.3350
C3B C 0.8669(4) 0.2534(2) 0.3043(3)
H3B H 0.8996 0.2657 0.2491
C4B C 0.7857(4) 0.2916(2) 0.3346(3)
H4B H 0.7626 0.3309 0.3008
C5B C 0.7384(3) 0.2718(2) 0.4150(3)
C6B C 0.6414(4) 0.3058(2) 0.4469(4)
H5B H 0.6265 0.2867 0.5090
H6B H 0.5806 0.2956 0.4003
C7B C 0.5516(3) 0.4101(2) 0.4835(3)
H7B H 0.4933 0.3956 0.4368
H8B H 0.5373 0.3926 0.5467
C8B C 0.5526(3) 0.4861(2) 0.4876(4)
H9B H 0.6089 0.5011 0.5361
H10B H 0.5684 0.5041 0.4251
N1B N 0.8567(3) 0.17789(17) 0.4342(3)
N2B N 0.6513(3) 0.38016(16) 0.4569(3)
H11B H 0.6677 0.3983 0.4001
H12B H 0.7051 0.3902 0.5028
Cl1B Cl -0.00926(8) 1.02817(5) 0.37824(8)
Cl2B Cl -0.25911(9) 1.04227(6) 0.54270(8)
Cl3B Cl 0.04177(12) 1.16051(6) 0.61482(10)
Cd1B Cd -0.07889(3) 1.081226(16) 0.52271(2)
Cd1B_2 Cd 0.92111(3) 0.081226(16) 0.52271(2)
N1B_2 N -0.1433(3) 1.17789(17) 0.4342(3)
C9 C 0.1572(3) 1.0137(2) 1.0738(3)
C10 C 0.1651(3) 1.1263(2) 1.1252(3)
C11 C 0.1264(3) 1.1230(2) 1.0163(3)
C12 C 0.2896(3) 1.1794(2) 1.0380(3)
C13 C 0.0877(3) 1.0188(2) 0.9073(3)
H13 H 0.0288 1.0443 0.8737
H14 H 0.0613 0.9733 0.9196
C14 C 0.2159(4) 1.1714(2) 0.8723(3)
H15 H 0.1434 1.1833 0.8465
H16 H 0.2604 1.2116 0.8675
C15 C 0.2183(3) 0.9534(2) 0.8266(3)
C16 C 0.1896(3) 1.0640(2) 0.7758(3)
H17 H 0.1222 1.0801 0.7412
C17 C 0.2601(3) 1.0287(2) 0.7081(3)
H18 H 0.2257 1.0264 0.6414
C18 C 0.3481(4) 1.1235(2) 0.7743(3)
C19 C 0.3227(3) 0.9071(2) 0.7032(3)
H19 H 0.2956 0.8645 0.7272
H20 H 0.3013 0.9095 0.6339
C20 C 0.4354(3) 1.0636(2) 0.6502(3)
H21 H 0.4705 1.1075 0.6454
H22 H 0.4022 1.0518 0.5860
C21 C 0.4895(4) 0.8546(2) 0.7648(3)
C22 C 0.5025(3) 0.9432(2) 0.6574(3)
H23 H 0.4811 0.9354 0.5882
C23 C 0.6141(3) 0.9144(2) 0.6890(3)
H24 H 0.6514 0.8996 0.6334
C24 C 0.6087(3) 1.0277(2) 0.7288(3)
C25 C 0.6727(4) 0.8124(2) 0.7888(3)
H25 H 0.7196 0.8020 0.7388
H26 H 0.6377 0.7702 0.8048
C26 C 0.7809(3) 0.9717(2) 0.7586(3)
H27 H 0.8127 0.9456 0.7090
H28 H 0.8054 1.0185 0.7547
C27 C 0.0885(4) 1.1572(2) 1.1891(3)
H29 H 0.0773 1.2044 1.1723
H30 H 0.1176 1.1538 1.2558
H31 H 0.0212 1.1333 1.1804
C28 C 0.0221(4) 1.1590(2) 0.9860(4)
H32 H 0.0301 1.2070 0.9991
H33 H -0.0334 1.1407 1.0220
H34 H 0.0032 1.1521 0.9177
N3 N 0.1828(3) 1.05530(17) 1.1485(3)
N4 N 0.1180(3) 1.05090(17) 0.9974(3)
N5 N 0.2632(3) 1.16423(17) 1.1269(3)
N6 N 0.2151(3) 1.15350(18) 0.9721(3)
N7 N 0.1715(3) 1.01341(17) 0.8454(3)
N8 N 0.2750(3) 0.96262(17) 0.7502(3)
N9 N 0.2543(3) 1.11904(18) 0.8144(3)
N10 N 0.3541(3) 1.06980(18) 0.7145(3)
N11 N 0.4366(3) 0.90683(17) 0.7183(3)
N12 N 0.5928(3) 0.85938(18) 0.7502(3)
N13 N 0.5145(3) 1.01341(17) 0.6796(3)
N14 N 0.6669(3) 0.97013(17) 0.7392(3)
O2 O 0.1647(2) 0.95261(14) 1.0758(2)
O3 O 0.2106(2) 0.90117(15) 0.8708(2)
O4 O 0.4485(3) 0.81239(16) 0.8112(2)
O5 O 0.3669(3) 1.21130(18) 1.0201(3)
O6 O 0.4142(3) 1.16782(15) 0.7882(2)
O7 O 0.6370(2) 1.08306(14) 0.7597(2)
C9B C 0.8428(3) 0.9863(2) 0.9262(3)
C10B C 0.8349(3) 0.8737(2) 0.8748(3)
C11B C 0.8736(3) 0.8770(2) 0.9837(3)
C12B C 0.7104(3) 0.8206(2) 0.9620(3)
C13B C 0.9123(3) 0.9812(2) 1.0927(3)
H13B H 0.9712 0.9557 1.1263
H14B H 0.9387 1.0267 1.0804
C14B C 0.7841(4) 0.8286(2) 1.1277(3)
H15B H 0.8566 0.8167 1.1535
H16B H 0.7396 0.7884 1.1325
C15B C 0.7817(3) 1.0466(2) 1.1734(3)
C16B C 0.8104(3) 0.9360(2) 1.2242(3)
H17B H 0.8778 0.9199 1.2588
C17B C 0.7399(3) 0.9713(2) 1.2919(3)
H18B H 0.7743 0.9736 1.3586
C18B C 0.6519(4) 0.8765(2) 1.2257(3)
C19B C 0.6773(3) 1.0929(2) 1.2968(3)
H19B H 0.7044 1.1355 1.2728
H20B H 0.6987 1.0905 1.3661
C20B C 0.5646(3) 0.9364(2) 1.3498(3)
H21B H 0.5295 0.8925 1.3546
H22B H 0.5978 0.9482 1.4140
C21B C 0.5105(4) 1.1454(2) 1.2352(3)
C22B C 0.4975(3) 1.0568(2) 1.3426(3)
H23B H 0.5189 1.0646 1.4118
C23B C 0.3859(3) 1.0856(2) 1.3110(3)
H24B H 0.3486 1.1004 1.3666
C24B C 0.3913(3) 0.9723(2) 1.2712(3)
C25B C 0.3273(4) 1.1876(2) 1.2112(3)
H25B H 0.2804 1.1980 1.2612
H26B H 0.3623 1.2298 1.1952
C26B C 0.2191(3) 1.0283(2) 1.2414(3)
H27B H 0.1873 1.0544 1.2910
H28B H 0.1946 0.9815 1.2453
C27B C 0.9115(4) 0.8428(2) 0.8109(3)
H29B H 0.9227 0.7956 0.8277
H30B H 0.8824 0.8462 0.7442
H31B H 0.9788 0.8667 0.8196
C28B C 0.9779(4) 0.8410(2) 1.0140(4)
H32B H 0.9699 0.7930 1.0009
H33B H 1.0334 0.8593 0.9780
H34B H 0.9968 0.8479 1.0823
N3B N 0.8172(3) 0.94470(17) 0.8515(3)
N4B N 0.8820(3) 0.94910(17) 1.0026(3)
N5B N 0.7368(3) 0.83577(17) 0.8731(3)
N6B N 0.7849(3) 0.84650(18) 1.0279(3)
N7B N 0.8285(3) 0.98659(17) 1.1546(3)
N8B N 0.7250(3) 1.03738(17) 1.2498(3)
N9B N 0.7457(3) 0.88096(18) 1.1856(3)
N10B N 0.6459(3) 0.93020(18) 1.2855(3)
N11B N 0.5634(3) 1.09317(17) 1.2817(3)
N12B N 0.4072(3) 1.14062(18) 1.2498(3)
N13B N 0.4855(3) 0.98659(17) 1.3204(3)
N14B N 0.3331(3) 1.02987(17) 1.2608(3)
O2B O 0.8353(2) 1.04739(14) 0.9242(2)
O3B O 0.7894(2) 1.09883(15) 1.1292(2)
O4B O 0.5515(3) 1.18761(16) 1.1888(2)
O5B O 0.6331(3) 0.78870(18) 0.9799(3)
O6B O 0.5858(3) 0.83218(15) 1.2118(2)
O7B O 0.3630(2) 0.91694(14) 1.2403(2)
loop_
_geom_bond_atom_site_label_1
_geom_bond_atom_site_label_2
_geom_bond_site_symmetry_1
_geom_bond_site_symmetry_2
Cl1 Cd1 1_555 1_555
Cl2 Cd1 1_555 1_555
Cl3 Cd1 1_555 1_555
Cd1 N1 1_555 1_555
C1 H1 1_555 1_555
C2 H2 1_555 1_555
C3 C2 1_555 1_555
H3 C3 1_555 1_555
C4 C3 1_555 1_555
H4 C4 1_555 1_555
C5 C1 1_555 1_555
C6 C5 1_555 1_555
H5 C6 1_555 1_555
H6 C6 1_555 1_555
C7 H7 1_555 1_555
H8 C7 1_555 1_555
C8 C7 1_555 1_555
H9 C8 1_555 1_555
H10 C8 1_555 1_555
N1 C1 1_555 1_555
N2 C6 1_555 1_555
H11 N2 1_555 1_555
H12 N2 1_555 1_555
C9 N3 1_555 1_555
C10 C11 1_555 1_555
C11 C28 1_555 1_555
C12 N5 1_555 1_555
C13 H13 1_555 1_555
H14 C13 1_555 1_555
C14 H15 1_555 1_555
H16 C14 1_555 1_555
C15 N7 1_555 1_555
C16 H17 1_555 1_555
C17 C16 1_555 1_555
H18 C17 1_555 1_555
C18 N9 1_555 1_555
C19 H19 1_555 1_555
H20 C19 1_555 1_555
C20 H21 1_555 1_555
H22 C20 1_555 1_555
C21 N11 1_555 1_555
C22 H23 1_555 1_555
C23 C22 1_555 1_555
H24 C23 1_555 1_555
C24 N13 1_555 1_555
C25 H25 1_555 1_555
H26 C25 1_555 1_555
C26 H27 1_555 1_555
H28 C26 1_555 1_555
C27 C10 1_555 1_555
H29 C27 1_555 1_555
H30 C27 1_555 1_555
H31 C27 1_555 1_555
C28 H32 1_555 1_555
H33 C28 1_555 1_555
H34 C28 1_555 1_555
N3 C10 1_555 1_555
N4 C9 1_555 1_555
N5 C10 1_555 1_555
N6 C11 1_555 1_555
N7 C13 1_555 1_555
N8 C15 1_555 1_555
N9 C14 1_555 1_555
N10 C17 1_555 1_555
N11 C19 1_555 1_555
N12 C21 1_555 1_555
N13 C20 1_555 1_555
N14 C23 1_555 1_555
O2 C9 1_555 1_555
O3 C15 1_555 1_555
O4 C21 1_555 1_555
O5 C12 1_555 1_555
O6 C18 1_555 1_555
O7 C24 1_555 1_555
C1B H1B 1_555 1_555
C2B H2B 1_555 1_555
C3B C2B 1_555 1_555
H3B C3B 1_555 1_555
C4B C3B 1_555 1_555
H4B C4B 1_555 1_555
C5B C1B 1_555 1_555
C6B C5B 1_555 1_555
H5B C6B 1_555 1_555
H6B C6B 1_555 1_555
C7B H7B 1_555 1_555
H8B C7B 1_555 1_555
C8B C8 1_555 1_555
H9B C8B 1_555 1_555
H10B C8B 1_555 1_555
N1B C1B 1_555 1_555
N2B C6B 1_555 1_555
H11B N2B 1_555 1_555
H12B N2B 1_555 1_555
Cl1B Cd1 1_555 1_555
Cl2B Cd1B 1_555 1_555
Cl3B Cd1B 1_555 1_555
Cd1B Cl1 1_555 1_555
Cd1B_2 N1B 1_555 1_555
N1B_2 Cd1B 1_555 1_555
C9B N3B 1_555 1_555
C10B C11B 1_555 1_555
C11B C28B 1_555 1_555
C12B N5B 1_555 1_555
C13B H13B 1_555 1_555
H14B C13B 1_555 1_555
C14B H15B 1_555 1_555
H16B C14B 1_555 1_555
C15B N7B 1_555 1_555
C16B H17B 1_555 1_555
C17B C16B 1_555 1_555
H18B C17B 1_555 1_555
C18B N9B 1_555 1_555
C19B H19B 1_555 1_555
H20B C19B 1_555 1_555
C20B H21B 1_555 1_555
H22B C20B 1_555 1_555
C21B N11B 1_555 1_555
C22B H23B 1_555 1_555
C23B C22B 1_555 1_555
H24B C23B 1_555 1_555
C24B N13B 1_555 1_555
C25B N5 1_555 1_555
H25B C25B 1_555 1_555
H26B C25B 1_555 1_555
C26B N3 1_555 1_555
H27B C26B 1_555 1_555
H28B C26B 1_555 1_555
C27B C10B 1_555 1_555
H29B C27B 1_555 1_555
H30B C27B 1_555 1_555
H31B C27B 1_555 1_555
C28B H32B 1_555 1_555
H33B C28B 1_555 1_555
H34B C28B 1_555 1_555
N3B C26 1_555 1_555
N4B C9B 1_555 1_555
N5B C25 1_555 1_555
N6B C11B 1_555 1_555
N7B C13B 1_555 1_555
N8B C15B 1_555 1_555
N9B C14B 1_555 1_555
N10B C17B 1_555 1_555
N11B C19B 1_555 1_555
N12B C21B 1_555 1_555
N13B C20B 1_555 1_555
N14B C23B 1_555 1_555
O2B C9B 1_555 1_555
O3B C15B 1_555 1_555
O4B C21B 1_555 1_555
O5B C12B 1_555 1_555
O6B C18B 1_555 1_555
O7B C24B 1_555 1_555
C2 N1 1_555 1_555
C4 C5 1_555 1_555
C7 N2 1_555 1_555
C11 N4 1_555 1_555
C12 N6 1_555 1_555
C13 N4 1_555 1_555
C14 N6 1_555 1_555
C16 N7 1_555 1_555
C16 N9 1_555 1_555
C17 N8 1_555 1_555
C18 N10 1_555 1_555
C19 N8 1_555 1_555
C20 N10 1_555 1_555
C22 N11 1_555 1_555
C22 N13 1_555 1_555
C23 N12 1_555 1_555
C24 N14 1_555 1_555
C25 N12 1_555 1_555
C26 N14 1_555 1_555
C2B N1B 1_555 1_555
C4B C5B 1_555 1_555
C7B C8B 1_555 1_555
C7B N2B 1_555 1_555
Cl1B Cd1B 1_555 1_555
C10B N3B 1_555 1_555
C10B N5B 1_555 1_555
C11B N4B 1_555 1_555
C12B N6B 1_555 1_555
C13B N4B 1_555 1_555
C14B N6B 1_555 1_555
C16B N7B 1_555 1_555
C16B N9B 1_555 1_555
C17B N8B 1_555 1_555
C18B N10B 1_555 1_555
C19B N8B 1_555 1_555
C20B N10B 1_555 1_555
C22B N11B 1_555 1_555
C22B N13B 1_555 1_555
C23B N12B 1_555 1_555
C24B N14B 1_555 1_555
C25B N12B 1_555 1_555
C26B N14B 1_555 1_555

#END
