
#######################################################################
#
#                 Cambridge Crystallographic Data Centre
#                                CCDC 
#
#######################################################################
#
# If this CIF has been generated from an entry in the Cambridge 
# Structural Database, then it will include bibliographic, chemical, 
# crystal, experimental, refinement or atomic coordinate data resulting 
# from the CCDC's data processing and validation procedures.
#
#######################################################################

data_FOQBAP
_symmetry_cell_setting           triclinic
_symmetry_space_group_name_H-M   'P -1'
_symmetry_Int_Tables_number      2
_space_group_name_Hall           '-P 1'
loop_
_symmetry_equiv_pos_site_id
_symmetry_equiv_pos_as_xyz
1 x,y,z
2 -x,-y,-z
_cell_length_a                   8.1657(12)
_cell_length_b                   10.0247(15)
_cell_length_c                   12.8808(19)
_cell_angle_alpha                96.655(2)
_cell_angle_beta                 99.939(2)
_cell_angle_gamma                92.072(2)
_cell_volume                     1029.88
loop_
_atom_site_label
_atom_site_type_symbol
_atom_site_fract_x
_atom_site_fract_y
_atom_site_fract_z
Co1 Co 1.00632(3) 0.19189(2) 1.100231(16)
O1 O 1.03620(16) 0.41075(12) 1.10209(9)
O2 O 0.95186(16) 0.33241(12) 1.23747(9)
O3 O 0.9845(3) 0.67458(15) 1.55139(11)
H1 H 0.9928 0.7004 1.6150
O4 O 0.8975(2) 0.87970(14) 1.53464(10)
O5 O 0.94213(17) 1.03215(12) 1.17389(9)
O6 O 0.90467(16) 0.87369(12) 1.03473(9)
N1 N 0.76992(18) 0.20777(15) 1.00324(11)
N2 N 0.58407(19) 0.27947(16) 0.88001(12)
N3 N 0.49007(19) 0.17682(18) 0.28584(12)
N4 N 0.25631(18) 0.19864(15) 0.17764(11)
C1 C 0.7264(2) 0.30959(18) 0.95001(13)
H2 H 0.7867 0.3919 0.9598
C2 C 0.6491(2) 0.10692(19) 0.96389(14)
H3 H 0.6469 0.0220 0.9861
C3 C 0.5340(2) 0.1493(2) 0.88828(15)
H4 H 0.4398 0.1004 0.8496
C4 C 0.5159(3) 0.3604(2) 0.79735(15)
H5 H 0.5660 0.4511 0.8152
H6 H 0.3970 0.3651 0.7957
C5 C 0.5450(2) 0.30517(19) 0.68818(15)
C6 C 0.4690(2) 0.3616(2) 0.60025(15)
H7 H 0.4039 0.4347 0.6096
C7 C 0.4882(3) 0.3111(2) 0.49867(16)
H8 H 0.4371 0.3513 0.4409
C8 C 0.5828(2) 0.2012(2) 0.48237(15)
C9 C 0.6608(2) 0.1465(2) 0.57044(16)
H9 H 0.7262 0.0735 0.5611
C10 C 0.6439(2) 0.1979(2) 0.67179(15)
H10 H 0.6994 0.1603 0.7297
C11 C 0.6083(3) 0.1379(2) 0.37461(16)
H11 H 0.7203 0.1629 0.3655
H12 H 0.5991 0.0409 0.3725
C12 C 0.3236(2) 0.1530(2) 0.26552(14)
H13 H 0.2640 0.1096 0.3084
C13 C 0.3872(3) 0.2547(2) 0.14000(15)
H14 H 0.3774 0.2954 0.0781
C14 C 0.5314(3) 0.2422(2) 0.20544(16)
H15 H 0.6374 0.2718 0.1978
C15 C 0.9608(2) 0.57157(16) 1.23319(13)
C16 C 0.9556(2) 0.60443(17) 1.34003(13)
H16 H 0.9651 0.5379 1.3851
C17 C 0.9363(2) 0.73713(17) 1.38017(13)
C18 C 0.9238(2) 0.83740(17) 1.31349(13)
H17 H 0.9129 0.9261 1.3407
C19 C 0.9275(2) 0.80462(16) 1.20566(13)
C20 C 0.9446(2) 0.67134(17) 1.16613(13)
H18 H 0.9451 0.6489 1.0941
C21 C 0.9852(2) 0.43016(16) 1.18866(13)
C22 C 0.9356(2) 0.77368(18) 1.49598(14)
C23 C 0.9250(2) 0.91141(16) 1.13216(12)
Co1_2 Co 1.00632(3) 1.19189(2) 1.100231(16)
Co1A Co 0.99368(3) 0.80811(2) 0.899769(16)
Co1_3 Co 0.00632(3) 0.19189(2) 0.100231(16)
O5_2 O 0.94213(17) 0.03215(12) 1.17389(9)
O6A O 1.09533(16) 0.12631(12) 0.96527(9)
N4_2 N 1.25631(18) 0.19864(15) 1.17764(11)
loop_
_geom_bond_atom_site_label_1
_geom_bond_atom_site_label_2
_geom_bond_site_symmetry_1
_geom_bond_site_symmetry_2
Co1 O1 1_555 1_555
O1 C21 1_555 1_555
O2 Co1 1_555 1_555
O3 H1 1_555 1_555
O4 C22 1_555 1_555
O5 C23 1_555 1_555
O6 C23 1_555 1_555
N1 Co1 1_555 1_555
N2 C1 1_555 1_555
N3 C11 1_555 1_555
N4 C12 1_555 1_555
C1 N1 1_555 1_555
H2 C1 1_555 1_555
C2 N1 1_555 1_555
H3 C2 1_555 1_555
C3 N2 1_555 1_555
H4 C3 1_555 1_555
C4 N2 1_555 1_555
H5 C4 1_555 1_555
H6 C4 1_555 1_555
C5 C4 1_555 1_555
C6 C5 1_555 1_555
H7 C6 1_555 1_555
C7 C6 1_555 1_555
H8 C7 1_555 1_555
C8 C7 1_555 1_555
C9 C8 1_555 1_555
H9 C9 1_555 1_555
C10 C5 1_555 1_555
H10 C10 1_555 1_555
C11 C8 1_555 1_555
H11 C11 1_555 1_555
H12 C11 1_555 1_555
C12 N3 1_555 1_555
H13 C12 1_555 1_555
C13 N4 1_555 1_555
H14 C13 1_555 1_555
C14 N3 1_555 1_555
H15 C14 1_555 1_555
C15 C16 1_555 1_555
C16 H16 1_555 1_555
C17 C16 1_555 1_555
C18 C17 1_555 1_555
H17 C18 1_555 1_555
C19 C18 1_555 1_555
C20 C15 1_555 1_555
H18 C20 1_555 1_555
C21 O2 1_555 1_555
C22 O3 1_555 1_555
C23 C19 1_555 1_555
Co1_2 O5 1_555 1_555
Co1A O6 1_555 1_555
Co1_3 N4 1_555 1_555
O5_2 Co1 1_555 1_555
O6A Co1 1_555 1_555
N4_2 Co1 1_555 1_555
C2 C3 1_555 1_555
C9 C10 1_555 1_555
C13 C14 1_555 1_555
C15 C21 1_555 1_555
C17 C22 1_555 1_555
C19 C20 1_555 1_555

#END
