
#######################################################################
#
#                 Cambridge Crystallographic Data Centre
#                                CCDC 
#
#######################################################################
#
# If this CIF has been generated from an entry in the Cambridge 
# Structural Database, then it will include bibliographic, chemical, 
# crystal, experimental, refinement or atomic coordinate data resulting 
# from the CCDC's data processing and validation procedures.
#
#######################################################################

data_FOQLOM
_symmetry_cell_setting           monoclinic
_symmetry_space_group_name_H-M   'P 21/n'
_symmetry_Int_Tables_number      14
_space_group_name_Hall           '-P 2yn'
loop_
_symmetry_equiv_pos_site_id
_symmetry_equiv_pos_as_xyz
1 x,y,z
2 1/2+x,1/2-y,1/2+z
3 -x,-y,-z
4 1/2-x,1/2+y,1/2-z
_cell_length_a                   8.0610(10)
_cell_length_b                   15.160(2)
_cell_length_c                   9.708(2)
_cell_angle_alpha                90
_cell_angle_beta                 90.939(7)
_cell_angle_gamma                90
_cell_volume                     1186.2
loop_
_atom_site_label
_atom_site_type_symbol
_atom_site_fract_x
_atom_site_fract_y
_atom_site_fract_z
Co1 Co 0.0000 -0.5000 -0.5000
Co2 Co 0.5000 -0.5000 -0.5000
C1 C 0.0014(4) -0.4243(2) -0.2107(3)
C2 C 0.1060(4) -0.3944(2) -0.0887(3)
H1 H 0.1908 -0.3549 -0.1224
H2 H 0.1623 -0.4457 -0.0507
C3 C 0.0175(4) -0.3483(2) 0.0277(3)
H3 H -0.0542 -0.3898 0.0739
H4 H -0.0508 -0.3010 -0.0092
C4 C 0.1438(4) -0.3112(2) 0.1298(3)
H5 H 0.2148 -0.2700 0.0820
H6 H 0.2130 -0.3590 0.1638
C5 C 0.0676(4) -0.2641(2) 0.2524(3)
H7 H 0.1543 -0.2330 0.3030
H8 H -0.0119 -0.2208 0.2189
C6 C -0.0181(4) -0.3270(2) 0.3486(3)
O1 O 0.0822(3) -0.45314(16) -0.3131(2)
O2 O -0.1529(3) -0.41907(17) -0.2097(2)
O3 O 0.0739(3) -0.38372(15) 0.4098(2)
O4 O -0.1712(3) -0.32355(16) 0.3627(2)
O5 O 0.2547(2) -0.55324(14) -0.53370(19)
O6 O 0.4125(3) -0.4625(2) -0.3110(2)
O7 O 0.4126(3) -0.38317(16) -0.5849(2)
H9 H 0.2511 -0.5635 -0.6210
H10 H 0.2470 -0.6036 -0.4913
H11 H 0.2991 -0.4585 -0.3014
H12 H 0.4567 -0.4530 -0.2334
H13 H 0.2978 -0.3759 -0.5941
H14 H 0.4478 -0.3644 -0.6743
O1B O -0.0822(3) -0.54686(16) -0.6869(2)
O3B O -0.0739(3) -0.61628(15) -0.4098(2)
O5B O -0.2547(2) -0.44676(14) -0.46630(19)
O5B_2 O 0.7453(2) -0.44676(14) -0.46630(19)
O6B O 0.5875(3) -0.5375(2) -0.6890(2)
O7B O 0.5874(3) -0.61683(16) -0.4151(2)
O3_2 O 0.0739(3) -0.38372(15) -0.5902(2)
C1B C -0.0014(4) -0.5757(2) -0.7893(3)
H9B H -0.2511 -0.4365 -0.3790
H10B H -0.2470 -0.3964 -0.5087
Co1_2 Co 1.0000 -0.5000 -0.5000
H9B_2 H 0.7489 -0.4365 -0.3790
H10B_2 H 0.7530 -0.3964 -0.5087
H11B H 0.7009 -0.5415 -0.6986
H12B H 0.5433 -0.5470 -0.7666
H13B H 0.7022 -0.6241 -0.4059
H14B H 0.5522 -0.6356 -0.3257
Co1_3 Co 0.0000 -0.5000 0.5000
C2B C -0.1060(4) -0.6056(2) -0.9113(3)
O2B O 0.1529(3) -0.58093(17) -0.7903(2)
H1B H -0.1908 -0.6451 -0.8776
H2B H -0.1623 -0.5543 -0.9493
C3B C -0.0175(4) -0.6517(2) -1.0277(3)
H3B H 0.0542 -0.6102 -1.0739
H4B H 0.0508 -0.6990 -0.9908
C4B C -0.1438(4) -0.6888(2) -1.1298(3)
H5B H -0.2148 -0.7300 -1.0820
H6B H -0.2130 -0.6410 -1.1638
C5B C -0.0676(4) -0.7359(2) -1.2524(3)
H7B H -0.1543 -0.7670 -1.3030
H8B H 0.0119 -0.7792 -1.2189
C6B C 0.0181(4) -0.6730(2) -1.3486(3)
O3B_2 O -0.0739(3) -0.61628(15) -1.4098(2)
O4B O 0.1712(3) -0.67645(16) -1.3627(2)
Co1_4 Co 0.0000 -0.5000 -1.5000
O8 O -0.4343(4) -0.2974(2) -0.8174(3)
H15 H -0.3384 -0.3040 -0.7641
H16 H -0.4362 -0.3344 -0.8857
O9 O -0.4356(3) -0.42097(18) -0.0533(2)
H17 H -0.3344 -0.4187 -0.0783
H18 H -0.4213 -0.4539 -0.0045
loop_
_geom_bond_atom_site_label_1
_geom_bond_atom_site_label_2
_geom_bond_site_symmetry_1
_geom_bond_site_symmetry_2
Co1 O1 1_555 1_555
Co2 O5 1_555 1_555
C1 C2 1_555 1_555
C2 H1 1_555 1_555
H2 C2 1_555 1_555
C3 C2 1_555 1_555
H3 C3 1_555 1_555
H4 C3 1_555 1_555
C4 C3 1_555 1_555
H5 C4 1_555 1_555
H6 C4 1_555 1_555
C5 C4 1_555 1_555
H7 C5 1_555 1_555
H8 C5 1_555 1_555
C6 C5 1_555 1_555
O1 C1 1_555 1_555
O2 C1 1_555 1_555
O3 C6 1_555 1_555
O4 C6 1_555 1_555
O5 Co1 1_555 1_555
O6 Co2 1_555 1_555
O7 Co2 1_555 1_555
O8 H15 1_555 1_555
O9 H17 1_555 1_555
H9 O5 1_555 1_555
H10 O5 1_555 1_555
H11 O6 1_555 1_555
H12 O6 1_555 1_555
H13 O7 1_555 1_555
H14 O7 1_555 1_555
H16 O8 1_555 1_555
H18 O9 1_555 1_555
O1B Co1 1_555 1_555
O3B Co1 1_555 1_555
O5B Co1 1_555 1_555
O5B_2 Co2 1_555 1_555
O6B Co2 1_555 1_555
O7B Co2 1_555 1_555
O3_2 Co1 1_555 1_555
C1B O1B 1_555 1_555
H9B O5B 1_555 1_555
H10B O5B 1_555 1_555
Co1_2 O5B_2 1_555 1_555
H9B_2 O5B_2 1_555 1_555
H10B_2 O5B_2 1_555 1_555
H11B O6B 1_555 1_555
H12B O6B 1_555 1_555
H13B O7B 1_555 1_555
H14B O7B 1_555 1_555
Co1_3 O3 1_555 1_555
C2B C1B 1_555 1_555
O2B C1B 1_555 1_555
H1B C2B 1_555 1_555
H2B C2B 1_555 1_555
C3B C2B 1_555 1_555
H3B C3B 1_555 1_555
H4B C3B 1_555 1_555
C4B C3B 1_555 1_555
H5B C4B 1_555 1_555
H6B C4B 1_555 1_555
C5B C4B 1_555 1_555
H7B C5B 1_555 1_555
H8B C5B 1_555 1_555
C6B C5B 1_555 1_555
O3B_2 C6B 1_555 1_555
O4B C6B 1_555 1_555
Co1_4 O3B_2 1_555 1_555

#END
