
#######################################################################
#
#                 Cambridge Crystallographic Data Centre
#                                CCDC 
#
#######################################################################
#
# If this CIF has been generated from an entry in the Cambridge 
# Structural Database, then it will include bibliographic, chemical, 
# crystal, experimental, refinement or atomic coordinate data resulting 
# from the CCDC's data processing and validation procedures.
#
#######################################################################

data_FOQLAZ
_symmetry_cell_setting           monoclinic
_symmetry_space_group_name_H-M   'P 21/c'
_symmetry_Int_Tables_number      14
_space_group_name_Hall           '-P 2ybc'
loop_
_symmetry_equiv_pos_site_id
_symmetry_equiv_pos_as_xyz
1 x,y,z
2 -x,1/2+y,1/2-z
3 -x,-y,-z
4 x,1/2-y,1/2+z
_cell_length_a                   17.499(5)
_cell_length_b                   10.432(5)
_cell_length_c                   38.525(5)
_cell_angle_alpha                90
_cell_angle_beta                 102.624(5)
_cell_angle_gamma                90
_cell_volume                     6862.71
loop_
_atom_site_label
_atom_site_type_symbol
_atom_site_fract_x
_atom_site_fract_y
_atom_site_fract_z
Ni1 Ni 0.04814(4) 0.15954(7) -0.229240(18)
Br1 Br 0.18066(6) 0.24172(12) -0.60679(2)
Br4 Br -0.18980(6) 0.22593(11) 0.12860(2)
O1 O 0.0035(2) -0.0383(4) -0.24358(9)
O3 O 0.0499(2) -0.2345(3) -0.25088(10)
N3 N 0.1410(3) 0.0452(4) -0.21352(11)
C1 C 0.2037(3) -0.1541(6) -0.21522(15)
H1 H 0.2014 -0.2404 -0.2214
N4 N 0.0688(3) 0.1732(4) -0.28031(12)
O4 O 0.1346(2) 0.2923(3) -0.20609(10)
O6 O 0.2551(3) 0.2981(4) -0.17117(11)
C2 C 0.0895(4) 0.1974(5) -0.35007(15)
N5 N 0.0548(3) 0.1379(5) -0.41201(13)
C3 C 0.1997(4) 0.2421(6) -0.19088(15)
C4 C -0.0691(4) 0.2030(6) -0.08427(16)
C5 C 0.2083(3) 0.1009(6) -0.19765(14)
C6 C 0.2768(4) 0.0324(6) -0.19027(15)
H2 H 0.3239 0.0716 -0.1798
N6 N 0.0082(3) 0.1625(4) -0.18178(12)
C8 C 0.0003(4) 0.2773(5) -0.16782(15)
H3 H 0.0128 0.3496 -0.1796
C9 C 0.0571(4) -0.1198(5) -0.24033(13)
C11 C 0.1271(4) 0.2381(7) -0.49300(16)
C12 C 0.0993(4) 0.2113(6) -0.38685(15)
C13 C -0.0373(4) 0.0691(6) -0.13331(17)
H4 H -0.0497 -0.0048 -0.1222
C14 C 0.1162(4) 0.2334(6) -0.45597(16)
N8 N -0.0550(3) 0.1029(5) -0.06236(13)
C18 C -0.1068(4) 0.2209(6) -0.01842(17)
C20 C -0.1241(4) 0.2249(6) 0.01743(16)
C22 C -0.0443(4) 0.1886(6) -0.11841(15)
C23 C 0.1377(3) -0.0795(5) -0.22205(13)
C25 C -0.1624(4) 0.2275(8) 0.08406(18)
C26 C 0.1526(4) 0.2981(6) -0.39502(16)
H7 H 0.1826 0.3491 -0.3774
C27 C -0.1044(4) 0.3102(6) -0.07524(17)
H8 H -0.1161 0.3773 -0.0914
C29 C 0.2740(4) -0.0973(6) -0.19880(16)
H10 H 0.3195 -0.1463 -0.1935
C30 C 0.0640(4) 0.1514(6) -0.44524(16)
H11 H 0.0326 0.1013 -0.4627
C33 C -0.0253(4) 0.2936(6) -0.13710(15)
H12 H -0.0300 0.3760 -0.1286
C35 C 0.0217(4) 0.1444(6) -0.34296(15)
H14 H -0.0180 0.1160 -0.3615
C39 C 0.1604(4) 0.3075(6) -0.42941(17)
H17 H 0.1964 0.3652 -0.4350
C40 C 0.1453(4) 0.2375(5) -0.32113(16)
H18 H 0.1914 0.2746 -0.3246
C42 C 0.0977(4) 0.1426(7) -0.51810(17)
H20 H 0.0681 0.0762 -0.5117
C43 C -0.0117(4) 0.0612(6) -0.16482(15)
H21 H -0.0083 -0.0195 -0.1746
C48 C 0.1336(4) 0.2233(5) -0.28741(15)
H26 H 0.1730 0.2499 -0.2685
C50 C -0.0740(4) 0.1138(6) -0.03093(17)
H28 H -0.0644 0.0432 -0.0159
C53 C -0.1947(5) 0.3147(7) 0.0587(2)
H30 H -0.2297 0.3755 0.0637
C54 C -0.1763(4) 0.3139(7) 0.02582(18)
H31 H -0.1992 0.3740 0.0089
C55 C 0.0136(4) 0.1342(5) -0.30828(15)
H32 H -0.0322 0.0986 -0.3040
C56 C 0.1844(5) 0.3368(9) -0.5378(2)
H33 H 0.2145 0.4020 -0.5445
C57 C 0.1116(5) 0.1448(8) -0.55180(18)
H34 H 0.0916 0.0804 -0.5679
C61 C -0.1228(4) 0.3210(6) -0.04283(17)
H38 H -0.1462 0.3955 -0.0370
C65 C -0.0921(4) 0.1381(7) 0.04335(18)
H41 H -0.0569 0.0772 0.0386
C67 C -0.1113(5) 0.1394(8) 0.07657(19)
H43 H -0.0889 0.0796 0.0937
C71 C 0.1695(4) 0.3353(8) -0.50458(17)
H46 H 0.1885 0.4019 -0.4890
C73 C 0.1545(5) 0.2411(10) -0.56148(19)
Ni1A Ni -0.04814(4) -0.34046(7) -0.270760(18)
O3A O -0.0499(2) 0.2655(3) -0.24912(10)
Ni2 Ni 0.55466(4) 0.14355(7) -0.237000(19)
Br2 Br 0.30002(5) -0.06130(11) 0.11303(2)
Br3 Br 0.67656(6) 0.01206(10) -0.61575(2)
O2 O 0.5089(2) 0.3375(4) -0.24879(10)
N1 N 0.6462(3) 0.2561(4) -0.21834(12)
N2 N 0.5745(3) 0.1272(4) -0.28855(13)
O5 O 0.5467(2) 0.5439(3) -0.24348(10)
C7 C 0.4645(3) 0.1015(6) -0.12597(15)
C10 C 0.6143(4) 0.0266(6) -0.46460(16)
C15 C 0.6242(4) 0.0181(6) -0.50153(17)
C16 C 0.7034(4) 0.4616(6) -0.20965(16)
H5 H 0.6992 0.5501 -0.2124
C17 C 0.5917(4) 0.0870(6) -0.35837(16)
N7 N 0.5187(3) 0.1382(4) -0.18848(12)
C19 C 0.6501(4) 0.0543(6) -0.32906(16)
H6 H 0.6965 0.0179 -0.3323
C21 C 0.6400(3) 0.3833(5) -0.22143(14)
C24 C 0.7134(3) 0.2004(6) -0.20241(15)
N9 N 0.4532(4) 0.1641(5) -0.06725(15)
C28 C 0.4713(4) 0.2215(6) -0.13984(17)
H9 H 0.4571 0.2935 -0.1285
N10 N 0.5590(4) 0.1397(5) -0.42076(15)
C31 C 0.4360(4) 0.0786(6) -0.09333(16)
C32 C 0.5986(4) 0.0620(6) -0.39550(17)
C34 C 0.5186(4) 0.1611(6) -0.31694(16)
H13 H 0.4733 0.1992 -0.3129
C36 C 0.3714(4) 0.0142(7) 0.00490(17)
C37 C 0.7784(4) 0.2717(6) -0.18945(17)
H15 H 0.8251 0.2332 -0.1781
C38 C 0.5242(4) 0.1431(6) -0.35098(17)
H16 H 0.4834 0.1679 -0.3695
C41 C 0.6524(4) -0.0529(6) -0.43736(17)
H19 H 0.6832 -0.1198 -0.4426
C44 C 0.4989(4) 0.2356(6) -0.17046(16)
H22 H 0.5038 0.3181 -0.1789
C45 C 0.5120(4) 0.0224(6) -0.17557(16)
H23 H 0.5262 -0.0476 -0.1877
C46 C 0.3939(4) 0.0967(7) 0.03325(18)
H24 H 0.4234 0.1690 0.0309
C47 C 0.6457(4) -0.0350(6) -0.40298(18)
H25 H 0.6727 -0.0876 -0.3849
C49 C 0.4854(4) -0.0002(6) -0.14544(16)
H27 H 0.4811 -0.0839 -0.1378
C51 C 0.3926(4) 0.0361(6) -0.02974(17)
C52 C 0.7730(4) 0.4053(7) -0.19372(18)
H29 H 0.8170 0.4560 -0.1857
C58 C 0.6761(5) -0.0691(7) -0.51132(19)
H35 H 0.7018 -0.1274 -0.4945
C59 C 0.3948(5) -0.0276(7) -0.08901(19)
H36 H 0.3819 -0.0864 -0.1075
C60 C 0.6392(4) 0.0759(6) -0.29561(16)
H37 H 0.6794 0.0534 -0.2765
C62 C 0.5875(5) 0.0971(7) -0.52797(19)
H39 H 0.5515 0.1559 -0.5229
C63 C 0.5573(4) 0.4250(6) -0.23955(14)
C64 C 0.4315(5) 0.1407(7) -0.03726(18)
H40 H 0.4442 0.2023 -0.0195
C66 C 0.3280(5) -0.0922(8) 0.0106(2)
H42 H 0.3122 -0.1504 -0.0079
C68 C 0.5674(4) 0.1192(7) -0.45361(19)
H44 H 0.5390 0.1721 -0.4712
C69 C 0.3307(4) -0.0309(9) 0.06976(19)
C70 C 0.3715(5) -0.0502(7) -0.0574(2)
H45 H 0.3420 -0.1223 -0.0549
C72 C 0.6524(5) 0.0126(7) -0.57016(18)
C74 C 0.6008(5) 0.0947(8) -0.5617(2)
H47 H 0.5736 0.1506 -0.5789
C75 C 0.3078(5) -0.1141(9) 0.0423(2)
H48 H 0.2783 -0.1860 0.0451
C76 C 0.6908(5) -0.0724(8) -0.54482(19)
H49 H 0.7263 -0.1311 -0.5504
C77 C 0.3727(5) 0.0727(8) 0.0652(2)
H50 H 0.3880 0.1298 0.0839
C78 C 0.7064(4) 0.0556(6) -0.19973(17)
O9 O 0.6422(2) 0.0084(3) -0.21630(11)
O10 O 0.7615(3) -0.0025(4) -0.18130(12)
Ni2A Ni 0.44534(4) 0.64355(7) -0.263000(19)
O5A O 0.4533(2) 0.0439(3) -0.25652(10)
O7 O 0.1690(3) 0.5393(5) -0.22799(19)
O8 O 0.3336(4) 0.2564(6) -0.2698(4)
loop_
_geom_bond_atom_site_label_1
_geom_bond_atom_site_label_2
_geom_bond_site_symmetry_1
_geom_bond_site_symmetry_2
Ni1 O1 1_555 1_555
Ni2 O2 1_555 1_555
Br1 C73 1_555 1_555
Br2 C69 1_555 1_555
Br3 C72 1_555 1_555
Br4 C25 1_555 1_555
O1 C9 1_555 1_555
O2 C63 1_555 1_555
O3 C9 1_555 1_555
N1 Ni2 1_555 1_555
N2 Ni2 1_555 1_555
N3 Ni1 1_555 1_555
C1 H1 1_555 1_555
N4 Ni1 1_555 1_555
O4 Ni1 1_555 1_555
O5 C63 1_555 1_555
O6 C3 1_555 1_555
C2 C12 1_555 1_555
N5 C12 1_555 1_555
C3 O4 1_555 1_555
C4 N8 1_555 1_555
C5 N3 1_555 1_555
C6 C5 1_555 1_555
H2 C6 1_555 1_555
C7 C28 1_555 1_555
N6 Ni1 1_555 1_555
C8 N6 1_555 1_555
H3 C8 1_555 1_555
C9 C23 1_555 1_555
C10 C15 1_555 1_555
C11 C14 1_555 1_555
C12 C26 1_555 1_555
C13 H4 1_555 1_555
C14 C30 1_555 1_555
C15 C58 1_555 1_555
C16 H5 1_555 1_555
C17 C19 1_555 1_555
N7 Ni2 1_555 1_555
N8 C50 1_555 1_555
C18 C20 1_555 1_555
C19 H6 1_555 1_555
C20 C54 1_555 1_555
C21 N1 1_555 1_555
C22 C4 1_555 1_555
C23 N3 1_555 1_555
C24 N1 1_555 1_555
C25 C53 1_555 1_555
N9 C31 1_555 1_555
C26 H7 1_555 1_555
C27 C4 1_555 1_555
H8 C27 1_555 1_555
C28 H9 1_555 1_555
C29 C1 1_555 1_555
H10 C29 1_555 1_555
C30 N5 1_555 1_555
H11 C30 1_555 1_555
N10 C32 1_555 1_555
C31 C7 1_555 1_555
C32 C17 1_555 1_555
C33 C8 1_555 1_555
H12 C33 1_555 1_555
C34 N2 1_555 1_555
H13 C34 1_555 1_555
C35 C2 1_555 1_555
H14 C35 1_555 1_555
C36 C46 1_555 1_555
C37 C24 1_555 1_555
H15 C37 1_555 1_555
C38 C17 1_555 1_555
H16 C38 1_555 1_555
C39 C14 1_555 1_555
H17 C39 1_555 1_555
C40 C2 1_555 1_555
H18 C40 1_555 1_555
C41 C10 1_555 1_555
H19 C41 1_555 1_555
C42 C11 1_555 1_555
H20 C42 1_555 1_555
C43 N6 1_555 1_555
H21 C43 1_555 1_555
C44 N7 1_555 1_555
H22 C44 1_555 1_555
C45 N7 1_555 1_555
H23 C45 1_555 1_555
C46 H24 1_555 1_555
C47 C32 1_555 1_555
H25 C47 1_555 1_555
C48 N4 1_555 1_555
H26 C48 1_555 1_555
C49 C7 1_555 1_555
H27 C49 1_555 1_555
C50 C18 1_555 1_555
H28 C50 1_555 1_555
C51 C36 1_555 1_555
C52 C16 1_555 1_555
H29 C52 1_555 1_555
C53 H30 1_555 1_555
C54 C53 1_555 1_555
H31 C54 1_555 1_555
C55 N4 1_555 1_555
H32 C55 1_555 1_555
C56 H33 1_555 1_555
C57 C42 1_555 1_555
H34 C57 1_555 1_555
C58 H35 1_555 1_555
C59 C31 1_555 1_555
H36 C59 1_555 1_555
C60 N2 1_555 1_555
H37 C60 1_555 1_555
C61 C18 1_555 1_555
H38 C61 1_555 1_555
C62 C15 1_555 1_555
H39 C62 1_555 1_555
C63 C21 1_555 1_555
C64 N9 1_555 1_555
H40 C64 1_555 1_555
C65 C20 1_555 1_555
H41 C65 1_555 1_555
C66 C36 1_555 1_555
H42 C66 1_555 1_555
C67 C25 1_555 1_555
H43 C67 1_555 1_555
C68 C10 1_555 1_555
H44 C68 1_555 1_555
C69 C75 1_555 1_555
C70 C51 1_555 1_555
H45 C70 1_555 1_555
C71 C11 1_555 1_555
H46 C71 1_555 1_555
C72 C74 1_555 1_555
C73 C56 1_555 1_555
C74 C62 1_555 1_555
H47 C74 1_555 1_555
C75 C66 1_555 1_555
H48 C75 1_555 1_555
C76 C58 1_555 1_555
H49 C76 1_555 1_555
C77 C46 1_555 1_555
H50 C77 1_555 1_555
C78 C24 1_555 1_555
O9 Ni2 1_555 1_555
O10 C78 1_555 1_555
Ni1A O3 1_555 1_555
Ni2A O5 1_555 1_555
O3A Ni1 1_555 1_555
O5A Ni2 1_555 1_555
C1 C23 1_555 1_555
C3 C5 1_555 1_555
C6 C29 1_555 1_555
C13 C22 1_555 1_555
C13 C43 1_555 1_555
C16 C21 1_555 1_555
C19 C60 1_555 1_555
C22 C33 1_555 1_555
C26 C39 1_555 1_555
C27 C61 1_555 1_555
C28 C44 1_555 1_555
N10 C68 1_555 1_555
C34 C38 1_555 1_555
C35 C55 1_555 1_555
C37 C52 1_555 1_555
C40 C48 1_555 1_555
C41 C47 1_555 1_555
C45 C49 1_555 1_555
C51 C64 1_555 1_555
C56 C71 1_555 1_555
C57 C73 1_555 1_555
C59 C70 1_555 1_555
C65 C67 1_555 1_555
C69 C77 1_555 1_555
C72 C76 1_555 1_555
C78 O9 1_555 1_555

#END
