
#######################################################################
#
#                 Cambridge Crystallographic Data Centre
#                                CCDC 
#
#######################################################################
#
# If this CIF has been generated from an entry in the Cambridge 
# Structural Database, then it will include bibliographic, chemical, 
# crystal, experimental, refinement or atomic coordinate data resulting 
# from the CCDC's data processing and validation procedures.
#
#######################################################################

data_FOQMEE
_symmetry_cell_setting           monoclinic
_symmetry_space_group_name_H-M   'P 21/c'
_symmetry_Int_Tables_number      14
_space_group_name_Hall           '-P 2ybc'
loop_
_symmetry_equiv_pos_site_id
_symmetry_equiv_pos_as_xyz
1 x,y,z
2 -x,1/2+y,1/2-z
3 -x,-y,-z
4 x,1/2-y,1/2+z
_cell_length_a                   17.691(4)
_cell_length_b                   18.955(4)
_cell_length_c                   9.7126(19)
_cell_angle_alpha                90
_cell_angle_beta                 93.91(3)
_cell_angle_gamma                90
_cell_volume                     3249.37
loop_
_atom_site_label
_atom_site_type_symbol
_atom_site_fract_x
_atom_site_fract_y
_atom_site_fract_z
Mn1 Mn 0.5000 0.5000 0.5000
Mn2 Mn 0.0000 0.0000 0.5000
O1 O -0.04448(16) -0.03017(14) 0.2986(3)
O2 O -0.03690(16) 0.10285(12) 0.4344(3)
O3 O 0.39631(14) 0.54357(12) 0.5611(2)
O4 O 0.46477(14) 0.54830(12) 0.3061(2)
N1 N 0.1167(2) 0.02347(17) 0.4181(3)
N2 N 0.44117(18) 0.39747(15) 0.4294(3)
C1 C -0.0456(4) 0.2454(3) 0.3919(7)
H1 H -0.0116 0.2279 0.4608
C2 C -0.1043(4) -0.0331(3) 0.0757(5)
H2 H -0.0916 -0.0821 0.0859
H3 H -0.0793 -0.0137 -0.0004
H4 H -0.1581 -0.0282 0.0587
C3 C -0.1371(4) 0.2294(3) 0.2155(6)
H5 H -0.1679 0.2001 0.1591
C4 C 0.3720(3) 0.2712(2) 0.3405(6)
C5 C -0.0916(3) 0.0783(2) 0.2143(4)
H6 H -0.1171 0.0989 0.1376
C6 C 0.3323(3) 0.2034(3) 0.2904(7)
H7 H 0.2829 0.2020 0.3280
H8 H 0.3239 0.2061 0.1908
C7 C 0.3687(3) 0.1400(2) 0.3225(6)
H9 H 0.3743 0.1359 0.4223
H10 H 0.4193 0.1425 0.2899
C8 C 0.1813(3) -0.0007(2) 0.4793(5)
H11 H 0.1791 -0.0293 0.5569
C9 C 0.3422(3) 0.3355(3) 0.3062(6)
H12 H 0.2975 0.3383 0.2503
C10 C 0.2502(3) 0.0147(2) 0.4327(5)
H13 H 0.2936 -0.0037 0.4788
C11 C 0.3319(3) 0.0737(2) 0.2663(5)
H14 H 0.3252 0.0779 0.1666
H15 H 0.3660 0.0346 0.2870
C12 C 0.4455(3) 0.6095(3) -0.1003(4)
H16 H 0.4735 0.5870 -0.1651
C13 C 0.3770(3) 0.3955(2) 0.3527(5)
H17 H 0.3538 0.4382 0.3288
C14 C -0.0786(3) 0.0062(2) 0.2072(4)
C15 C 0.4041(3) 0.6673(3) -0.1365(5)
H18 H 0.4052 0.6855 -0.2253
C16 C 0.4391(3) 0.2724(2) 0.4237(5)
H19 H 0.4622 0.2304 0.4527
C17 C 0.1233(3) 0.0638(2) 0.3086(4)
H20 H 0.0792 0.0816 0.2639
C18 C 0.2769(3) 0.5960(2) 0.5694(4)
H21 H 0.2838 0.5794 0.6628
H22 H 0.2325 0.5746 0.5249
H23 H 0.2709 0.6463 0.5694
C19 C 0.4711(3) 0.3357(2) 0.4631(4)
H24 H 0.5167 0.3351 0.5168
C20 C -0.0709(2) 0.1223(2) 0.3226(4)
C21 C 0.2572(3) 0.0566(2) 0.3198(5)
C22 C 0.1910(3) 0.0810(2) 0.2565(4)
H25 H 0.1918 0.1092 0.1783
C23 C -0.0855(2) 0.2001(2) 0.3090(4)
C24 C 0.4461(2) 0.5836(2) 0.0326(4)
H26 H 0.4764 0.5451 0.0581
C25 C 0.3592(3) 0.6723(2) 0.0883(4)
H27 H 0.3288 0.6934 0.1508
C26 C 0.3454(2) 0.57665(18) 0.4923(4)
C27 C 0.4025(2) 0.61423(18) 0.1272(3)
C28 C 0.3473(2) 0.59628(18) 0.3543(4)
H28 H 0.3052 0.6199 0.3148
C29 C 0.4059(2) 0.58380(17) 0.2714(3)
C30 C 0.3612(3) 0.6990(3) -0.0443(5)
H29 H 0.3329 0.7388 -0.0700
C31 C -0.0544(4) 0.3176(3) 0.3767(9)
H30 H -0.0251 0.3477 0.4339
C32 C -0.1448(5) 0.3014(3) 0.2024(7)
H31 H -0.1797 0.3198 0.1359
C33 C -0.1035(4) 0.3446(3) 0.2828(8)
H32 H -0.1088 0.3932 0.2735
Mn1_2 Mn -0.5000 -0.5000 0.5000
O1B O 0.04448(16) 0.03017(14) 0.7014(3)
O2B O 0.03690(16) -0.10285(12) 0.5656(3)
O3B O 0.60369(14) 0.45643(12) 0.4389(2)
O4B O 0.53523(14) 0.45170(12) 0.6939(2)
N1B N -0.1167(2) -0.02347(17) 0.5819(3)
N2B N -0.44117(18) -0.39747(15) 0.5706(3)
N2B_2 N 0.55883(18) 0.60253(15) 0.5706(3)
C1B C 0.0456(4) -0.2454(3) 0.6081(7)
H1B H 0.0116 -0.2279 0.5392
C2B C 0.1043(4) 0.0331(3) 0.9243(5)
H2B H 0.0916 0.0821 0.9141
H3B H 0.0793 0.0137 1.0004
H4B H 0.1581 0.0282 0.9413
C3B C 0.1371(4) -0.2294(3) 0.7845(6)
H5B H 0.1679 -0.2001 0.8409
C4B C -0.3720(3) -0.2712(2) 0.6595(6)
C5B C 0.0916(3) -0.0783(2) 0.7857(4)
H6B H 0.1171 -0.0989 0.8624
C6B C -0.3323(3) -0.2034(3) 0.7096(7)
H7B H -0.2829 -0.2020 0.6720
H8B H -0.3239 -0.2061 0.8092
C7B C -0.3687(3) -0.1400(2) 0.6775(6)
H9B H -0.3743 -0.1359 0.5777
H10B H -0.4193 -0.1425 0.7101
C8B C -0.1813(3) 0.0007(2) 0.5207(5)
H11B H -0.1791 0.0293 0.4431
C9B C -0.3422(3) -0.3355(3) 0.6938(6)
H12B H -0.2975 -0.3383 0.7497
C10B C -0.2502(3) -0.0147(2) 0.5673(5)
H13B H -0.2936 0.0037 0.5212
C11B C -0.3319(3) -0.0737(2) 0.7337(5)
H14B H -0.3252 -0.0779 0.8334
H15B H -0.3660 -0.0346 0.7130
C12B C 0.5545(3) 0.3905(3) 1.1003(4)
H16B H 0.5265 0.4130 1.1651
C13B C -0.3770(3) -0.3955(2) 0.6473(5)
H17B H -0.3538 -0.4382 0.6712
C14B C 0.0786(3) -0.0062(2) 0.7928(4)
C15B C 0.5959(3) 0.3327(3) 1.1365(5)
H18B H 0.5948 0.3145 1.2253
C16B C -0.4391(3) -0.2724(2) 0.5763(5)
H19B H -0.4622 -0.2304 0.5473
C17B C -0.1233(3) -0.0638(2) 0.6914(4)
H20B H -0.0792 -0.0816 0.7361
C18B C 0.7231(3) 0.4040(2) 0.4306(4)
H21B H 0.7162 0.4206 0.3372
H22B H 0.7675 0.4254 0.4751
H23B H 0.7291 0.3537 0.4306
C19B C -0.4711(3) -0.3357(2) 0.5369(4)
H24B H -0.5167 -0.3351 0.4832
C20B C 0.0709(2) -0.1223(2) 0.6774(4)
C21B C -0.2572(3) -0.0566(2) 0.6802(5)
C22B C -0.1910(3) -0.0810(2) 0.7435(4)
H25B H -0.1918 -0.1092 0.8217
C23B C 0.0855(2) -0.2001(2) 0.6910(4)
C24B C 0.5539(2) 0.4164(2) 0.9674(4)
H26B H 0.5236 0.4549 0.9419
C25B C 0.6408(3) 0.3277(2) 0.9117(4)
H27B H 0.6712 0.3066 0.8492
C26B C 0.6546(2) 0.42335(18) 0.5077(4)
C27B C 0.5975(2) 0.38577(18) 0.8728(3)
C28B C 0.6527(2) 0.40372(18) 0.6457(4)
H28B H 0.6948 0.3801 0.6852
C29B C 0.5941(2) 0.41620(17) 0.7286(3)
C30B C 0.6388(3) 0.3010(3) 1.0443(5)
H29B H 0.6671 0.2612 1.0700
C31B C 0.0544(4) -0.3176(3) 0.6233(9)
H30B H 0.0251 -0.3477 0.5661
C32B C 0.1448(5) -0.3014(3) 0.7976(7)
H31B H 0.1797 -0.3198 0.8641
C33B C 0.1035(4) -0.3446(3) 0.7172(8)
H32B H 0.1088 -0.3932 0.7265
C34 C 0.1470(5) 0.2334(4) 0.5710(8)
C35 C 0.1134(6) 0.1847(5) 0.6560(8)
H33 H 0.0712 0.1627 0.6057
H34 H 0.0960 0.2087 0.7351
H35 H 0.1498 0.1494 0.6858
N3 N 0.1734(4) 0.2720(4) 0.5023(7)
loop_
_geom_bond_atom_site_label_1
_geom_bond_atom_site_label_2
_geom_bond_site_symmetry_1
_geom_bond_site_symmetry_2
Mn1 O3 1_555 1_555
Mn2 O1 1_555 1_555
O1 C14 1_555 1_555
O2 Mn2 1_555 1_555
O3 C26 1_555 1_555
O4 Mn1 1_555 1_555
N1 Mn2 1_555 1_555
N2 Mn1 1_555 1_555
C1 H1 1_555 1_555
C2 H2 1_555 1_555
H3 C2 1_555 1_555
H4 C2 1_555 1_555
C3 H5 1_555 1_555
C4 C6 1_555 1_555
C5 H6 1_555 1_555
C6 H7 1_555 1_555
H8 C6 1_555 1_555
C7 C6 1_555 1_555
H9 C7 1_555 1_555
H10 C7 1_555 1_555
C8 N1 1_555 1_555
H11 C8 1_555 1_555
C9 C4 1_555 1_555
H12 C9 1_555 1_555
C10 C8 1_555 1_555
H13 C10 1_555 1_555
C11 C7 1_555 1_555
H14 C11 1_555 1_555
H15 C11 1_555 1_555
C12 H16 1_555 1_555
C13 N2 1_555 1_555
H17 C13 1_555 1_555
C14 C2 1_555 1_555
C15 C12 1_555 1_555
H18 C15 1_555 1_555
C16 C4 1_555 1_555
H19 C16 1_555 1_555
C17 N1 1_555 1_555
H20 C17 1_555 1_555
C18 H21 1_555 1_555
H22 C18 1_555 1_555
H23 C18 1_555 1_555
C19 N2 1_555 1_555
H24 C19 1_555 1_555
C20 O2 1_555 1_555
C21 C10 1_555 1_555
C22 C17 1_555 1_555
H25 C22 1_555 1_555
C23 C1 1_555 1_555
C24 C12 1_555 1_555
H26 C24 1_555 1_555
C25 H27 1_555 1_555
C26 C18 1_555 1_555
C27 C24 1_555 1_555
C28 C26 1_555 1_555
H28 C28 1_555 1_555
C29 O4 1_555 1_555
C30 C15 1_555 1_555
H29 C30 1_555 1_555
C31 C1 1_555 1_555
H30 C31 1_555 1_555
C32 C3 1_555 1_555
H31 C32 1_555 1_555
C33 C31 1_555 1_555
H32 C33 1_555 1_555
C34 C35 1_555 1_555
C35 H33 1_555 1_555
H34 C35 1_555 1_555
H35 C35 1_555 1_555
N3 C34 1_555 1_555
Mn1_2 N2B 1_555 1_555
O1B Mn2 1_555 1_555
O2B Mn2 1_555 1_555
O3B Mn1 1_555 1_555
O4B Mn1 1_555 1_555
N1B Mn2 1_555 1_555
N2B C13B 1_555 1_555
N2B_2 Mn1 1_555 1_555
C1B H1B 1_555 1_555
C2B H2B 1_555 1_555
H3B C2B 1_555 1_555
H4B C2B 1_555 1_555
C3B H5B 1_555 1_555
C4B C6B 1_555 1_555
C5B H6B 1_555 1_555
C6B H7B 1_555 1_555
H8B C6B 1_555 1_555
C7B C6B 1_555 1_555
H9B C7B 1_555 1_555
H10B C7B 1_555 1_555
C8B N1B 1_555 1_555
H11B C8B 1_555 1_555
C9B C4B 1_555 1_555
H12B C9B 1_555 1_555
C10B C8B 1_555 1_555
H13B C10B 1_555 1_555
C11B C7B 1_555 1_555
H14B C11B 1_555 1_555
H15B C11B 1_555 1_555
C12B H16B 1_555 1_555
C13B C9B 1_555 1_555
H17B C13B 1_555 1_555
C14B O1B 1_555 1_555
C15B C12B 1_555 1_555
H18B C15B 1_555 1_555
C16B C4B 1_555 1_555
H19B C16B 1_555 1_555
C17B N1B 1_555 1_555
H20B C17B 1_555 1_555
C18B H21B 1_555 1_555
H22B C18B 1_555 1_555
H23B C18B 1_555 1_555
C19B N2B 1_555 1_555
H24B C19B 1_555 1_555
C20B O2B 1_555 1_555
C21B C10B 1_555 1_555
C22B C17B 1_555 1_555
H25B C22B 1_555 1_555
C23B C1B 1_555 1_555
C24B C12B 1_555 1_555
H26B C24B 1_555 1_555
C25B H27B 1_555 1_555
C26B O3B 1_555 1_555
C27B C24B 1_555 1_555
C28B C26B 1_555 1_555
H28B C28B 1_555 1_555
C29B O4B 1_555 1_555
C30B C15B 1_555 1_555
H29B C30B 1_555 1_555
C31B C1B 1_555 1_555
H30B C31B 1_555 1_555
C32B C3B 1_555 1_555
H31B C32B 1_555 1_555
C33B C31B 1_555 1_555
H32B C33B 1_555 1_555
C3 C23 1_555 1_555
C5 C14 1_555 1_555
C5 C20 1_555 1_555
C9 C13 1_555 1_555
C11 C21 1_555 1_555
C16 C19 1_555 1_555
C20 C23 1_555 1_555
C21 C22 1_555 1_555
C25 C27 1_555 1_555
C25 C30 1_555 1_555
C27 C29 1_555 1_555
C28 C29 1_555 1_555
C32 C33 1_555 1_555
C2B C14B 1_555 1_555
C3B C23B 1_555 1_555
C5B C14B 1_555 1_555
C5B C20B 1_555 1_555
C11B C21B 1_555 1_555
C16B C19B 1_555 1_555
C18B C26B 1_555 1_555
C20B C23B 1_555 1_555
C21B C22B 1_555 1_555
C25B C27B 1_555 1_555
C25B C30B 1_555 1_555
C27B C29B 1_555 1_555
C28B C29B 1_555 1_555
C32B C33B 1_555 1_555

#END
