
#######################################################################
#
#                 Cambridge Crystallographic Data Centre
#                                CCDC 
#
#######################################################################
#
# If this CIF has been generated from an entry in the Cambridge 
# Structural Database, then it will include bibliographic, chemical, 
# crystal, experimental, refinement or atomic coordinate data resulting 
# from the CCDC's data processing and validation procedures.
#
#######################################################################

data_FOQMAA
_symmetry_cell_setting           monoclinic
_symmetry_space_group_name_H-M   'P 21/c'
_symmetry_Int_Tables_number      14
_space_group_name_Hall           '-P 2ybc'
loop_
_symmetry_equiv_pos_site_id
_symmetry_equiv_pos_as_xyz
1 x,y,z
2 -x,1/2+y,1/2-z
3 -x,-y,-z
4 x,1/2-y,1/2+z
_cell_length_a                   27.557(6)
_cell_length_b                   16.751(3)
_cell_length_c                   11.350(2)
_cell_angle_alpha                90
_cell_angle_beta                 99.21(3)
_cell_angle_gamma                90
_cell_volume                     5171.7
loop_
_atom_site_label
_atom_site_type_symbol
_atom_site_fract_x
_atom_site_fract_y
_atom_site_fract_z
Zn1 Zn 0.479021(14) 0.66431(2) 0.26993(4)
Zn2 Zn -0.025380(14) 0.58017(3) -0.22743(4)
F1 F 0.70712(10) 0.9001(2) 0.8032(2)
F2 F 0.74762(10) 0.8054(2) 0.7384(3)
F3 F 0.78267(9) 0.9164(2) 0.7883(2)
F4 F 0.66806(9) 1.00964(18) 0.6425(3)
F5 F 0.74280(9) 1.04563(18) 0.6854(3)
F6 F 0.70903(10) 1.03506(15) 0.5024(3)
F7 F 0.28566(8) 0.93374(16) -0.2028(2)
F8 F 0.24866(9) 0.83674(17) -0.30270(19)
F9 F 0.21186(9) 0.94708(16) -0.2888(2)
F10 F 0.16458(8) 0.96498(15) -0.1115(2)
F11 F 0.23757(9) 0.99611(13) -0.0297(2)
F12 F 0.19464(8) 0.91389(15) 0.0561(2)
O1 O 0.42063(9) 0.74486(15) 0.2534(3)
O2 O 0.42354(12) 0.6673(2) 0.1040(3)
O3 O 0.05170(12) 0.6029(2) -0.1016(3)
O4 O 0.02448(9) 0.65766(16) -0.2736(3)
O5 O 0.52875(8) 0.71097(14) 0.3998(2)
O6 O 0.54585(8) 0.75398(14) 0.2287(2)
O7 O 0.89863(12) 0.8113(2) 0.2993(4)
O8 O 0.93146(9) 0.9194(2) 0.3888(3)
N1 N 0.44884(10) 0.57440(16) 0.3626(3)
N2 N 0.51119(9) 0.56313(16) 0.2091(3)
N3 N -0.01004(10) 0.46346(18) -0.2575(3)
N4 N -0.06464(9) 0.56466(18) -0.3989(3)
C1 C 0.05634(14) 0.6498(3) -0.1814(4)
C2 C 0.10623(12) 0.7608(3) -0.2533(3)
H1 H 0.0820 0.7662 -0.3200
C3 C 0.41692(14) 0.5841(2) 0.4377(4)
H2 H 0.4055 0.6353 0.4490
C4 C 0.33358(12) 0.7253(2) -0.0197(3)
H3 H 0.3471 0.6811 -0.0522
C5 C 0.35618(11) 0.7558(2) 0.0880(3)
C6 C 0.62938(12) 0.8396(2) 0.3504(3)
H4 H 0.6219 0.8474 0.2684
C7 C 0.10168(12) 0.7026(2) -0.1712(3)
C8 C 0.01749(15) 0.4150(3) -0.1799(4)
H5 H 0.0284 0.4326 -0.1025
C9 C 0.41738(14) 0.4478(2) 0.4828(4)
H6 H 0.4070 0.4048 0.5242
C10 C 0.14631(13) 0.8117(3) -0.2385(3)
H7 H 0.1487 0.8511 -0.2951
C11 C -0.09146(13) 0.6194(2) -0.4659(4)
H8 H -0.0967 0.6685 -0.4317
C12 C 0.81969(13) 0.8200(2) 0.4321(4)
H9 H 0.8231 0.7724 0.3919
C13 C -0.02686(12) 0.4369(2) -0.3677(4)
C14 C 0.54691(13) 0.4224(2) 0.1351(4)
H10 H 0.5592 0.3745 0.1105
C15 C 0.77283(11) 0.9014(2) 0.5452(3)
C16 C -0.10517(14) 0.5342(3) -0.6314(4)
H11 H -0.1192 0.5235 -0.7100
C17 C -0.05765(11) 0.4937(2) -0.4477(3)
C18 C 0.13820(14) 0.6949(3) -0.0740(4)
H12 H 0.1359 0.6551 -0.0179
C19 C 0.02996(18) 0.3395(3) -0.2130(6)
H13 H 0.0491 0.3065 -0.1585
C20 C 0.55551(11) 0.74962(19) 0.3392(3)
C21 C 0.40002(15) 0.5225(3) 0.4993(4)
H14 H 0.3774 0.5314 0.5506
C22 C 0.18297(11) 0.8044(2) -0.1398(3)
C23 C 0.24279(13) 0.8958(3) -0.2283(4)
C24 C 0.20584(14) 0.9354(3) -0.0490(4)
C25 C 0.61181(12) 0.7809(2) 0.5285(3)
H15 H 0.5923 0.7485 0.5681
C26 C 0.29393(12) 0.8567(2) 0.0727(3)
H16 H 0.2809 0.9014 0.1049
C27 C 0.01399(17) 0.3139(3) -0.3262(6)
H17 H 0.0230 0.2637 -0.3501
C28 C -0.01526(14) 0.3620(2) -0.4045(4)
H18 H -0.0272 0.3445 -0.4815
C29 C 0.33575(12) 0.8206(2) 0.1339(3)
H19 H 0.3501 0.8409 0.2075
C30 C 0.71181(14) 1.0016(3) 0.6070(5)
C31 C -0.07791(13) 0.4770(3) -0.5644(4)
H20 H -0.0731 0.4273 -0.5972
C32 C 0.84990(12) 0.9471(2) 0.4972(3)
H21 H 0.8740 0.9864 0.5022
C33 C 0.40290(13) 0.7197(3) 0.1519(4)
C34 C 0.77910(13) 0.8318(2) 0.4868(4)
H22 H 0.7556 0.7917 0.4839
C35 C 0.74105(16) 0.8831(5) 0.7337(4)
C36 C 0.49906(12) 0.49399(19) 0.2571(3)
C37 C 0.29137(12) 0.7592(2) -0.0797(3)
H23 H 0.2761 0.7364 -0.1507
C38 C 0.85542(12) 0.8781(2) 0.4363(4)
C39 C 0.66982(12) 0.8772(2) 0.4149(3)
H24 H 0.6892 0.9099 0.3753
C40 C 0.22559(11) 0.8646(2) -0.1132(3)
C41 C 0.59994(10) 0.79067(19) 0.4069(3)
C42 C -0.11159(14) 0.6064(3) -0.5827(4)
H25 H -0.1293 0.6463 -0.6275
C43 C 0.55816(13) 0.4927(3) 0.0858(4)
H26 H 0.5776 0.4937 0.0260
C44 C 0.65207(12) 0.8184(2) 0.5928(3)
H27 H 0.6592 0.8109 0.6749
C45 C 0.68199(11) 0.8670(2) 0.5373(3)
C46 C 0.89800(14) 0.8666(3) 0.3693(4)
C47 C 0.54013(13) 0.5621(2) 0.1262(4)
H28 H 0.5485 0.6104 0.0942
C48 C 0.80921(12) 0.9592(2) 0.5512(3)
H29 H 0.8061 1.0065 0.5920
C49 C 0.72694(12) 0.9125(2) 0.6056(3)
C50 C 0.46509(11) 0.50022(19) 0.3447(3)
C51 C 0.51721(12) 0.4226(2) 0.2215(3)
H30 H 0.5094 0.3749 0.2558
C52 C 0.45004(13) 0.4360(2) 0.4055(3)
H31 H 0.4620 0.3851 0.3941
C53 C 0.17821(13) 0.7453(2) -0.0585(3)
H32 H 0.2024 0.7392 0.0080
C54 C 0.27120(11) 0.82661(19) -0.0365(3)
Zn2C Zn 0.974620(14) 0.91983(3) 0.27257(4)
O8C O -0.06854(9) 0.5806(2) -0.1112(3)
loop_
_geom_bond_atom_site_label_1
_geom_bond_atom_site_label_2
_geom_bond_site_symmetry_1
_geom_bond_site_symmetry_2
Zn1 O1 1_555 1_555
Zn2 O3 1_555 1_555
F1 C35 1_555 1_555
F2 C35 1_555 1_555
F3 C35 1_555 1_555
F4 C30 1_555 1_555
F5 C30 1_555 1_555
F6 C30 1_555 1_555
F7 C23 1_555 1_555
F8 C23 1_555 1_555
F9 C23 1_555 1_555
F10 C24 1_555 1_555
F11 C24 1_555 1_555
F12 C24 1_555 1_555
O1 C33 1_555 1_555
O2 Zn1 1_555 1_555
O3 C1 1_555 1_555
O4 Zn2 1_555 1_555
O5 Zn1 1_555 1_555
O6 Zn1 1_555 1_555
O7 C46 1_555 1_555
O8 C46 1_555 1_555
N1 Zn1 1_555 1_555
N2 Zn1 1_555 1_555
N3 Zn2 1_555 1_555
N4 Zn2 1_555 1_555
C1 O4 1_555 1_555
C2 H1 1_555 1_555
C3 N1 1_555 1_555
H2 C3 1_555 1_555
C4 H3 1_555 1_555
C5 C4 1_555 1_555
C6 H4 1_555 1_555
C7 C1 1_555 1_555
C8 N3 1_555 1_555
H5 C8 1_555 1_555
C9 H6 1_555 1_555
C10 C2 1_555 1_555
H7 C10 1_555 1_555
C11 N4 1_555 1_555
H8 C11 1_555 1_555
C12 H9 1_555 1_555
C13 N3 1_555 1_555
C14 H10 1_555 1_555
C15 C34 1_555 1_555
C16 H11 1_555 1_555
C17 N4 1_555 1_555
C18 C7 1_555 1_555
H12 C18 1_555 1_555
C19 C8 1_555 1_555
H13 C19 1_555 1_555
C20 O5 1_555 1_555
C21 C3 1_555 1_555
H14 C21 1_555 1_555
C22 C10 1_555 1_555
C23 C40 1_555 1_555
C24 C40 1_555 1_555
C25 H15 1_555 1_555
C26 H16 1_555 1_555
C27 C19 1_555 1_555
H17 C27 1_555 1_555
C28 C13 1_555 1_555
H18 C28 1_555 1_555
C29 C5 1_555 1_555
H19 C29 1_555 1_555
C30 C49 1_555 1_555
C31 C16 1_555 1_555
H20 C31 1_555 1_555
C32 H21 1_555 1_555
C33 O2 1_555 1_555
C34 C12 1_555 1_555
H22 C34 1_555 1_555
C35 C49 1_555 1_555
C36 N2 1_555 1_555
C37 C4 1_555 1_555
H23 C37 1_555 1_555
C38 C12 1_555 1_555
C39 C6 1_555 1_555
H24 C39 1_555 1_555
C40 C22 1_555 1_555
C41 C6 1_555 1_555
C42 C11 1_555 1_555
H25 C42 1_555 1_555
C43 C14 1_555 1_555
H26 C43 1_555 1_555
C44 C25 1_555 1_555
H27 C44 1_555 1_555
C45 C39 1_555 1_555
C46 C38 1_555 1_555
C47 N2 1_555 1_555
H28 C47 1_555 1_555
C48 C15 1_555 1_555
H29 C48 1_555 1_555
C49 C15 1_555 1_555
C50 N1 1_555 1_555
C51 C14 1_555 1_555
H30 C51 1_555 1_555
C52 C9 1_555 1_555
H31 C52 1_555 1_555
C53 C18 1_555 1_555
H32 C53 1_555 1_555
C54 C26 1_555 1_555
Zn2C O8 1_555 1_555
O8C Zn2 1_555 1_555
O6 C20 1_555 1_555
C2 C7 1_555 1_555
C5 C33 1_555 1_555
C9 C21 1_555 1_555
C13 C17 1_555 1_555
C16 C42 1_555 1_555
C17 C31 1_555 1_555
C20 C41 1_555 1_555
C22 C53 1_555 1_555
C25 C41 1_555 1_555
C26 C29 1_555 1_555
C27 C28 1_555 1_555
C32 C38 1_555 1_555
C32 C48 1_555 1_555
C36 C50 1_555 1_555
C36 C51 1_555 1_555
C37 C54 1_555 1_555
C40 C54 1_555 1_555
C43 C47 1_555 1_555
C44 C45 1_555 1_555
C45 C49 1_555 1_555
C50 C52 1_555 1_555

#END
