
#######################################################################
#
#                 Cambridge Crystallographic Data Centre
#                                CCDC 
#
#######################################################################
#
# If this CIF has been generated from an entry in the Cambridge 
# Structural Database, then it will include bibliographic, chemical, 
# crystal, experimental, refinement or atomic coordinate data resulting 
# from the CCDC's data processing and validation procedures.
#
#######################################################################

data_FOQNEF01
_symmetry_cell_setting           orthorhombic
_symmetry_space_group_name_H-M   'P b c n'
_symmetry_Int_Tables_number      60
_space_group_name_Hall           '-P 2n 2ab'
loop_
_symmetry_equiv_pos_site_id
_symmetry_equiv_pos_as_xyz
1 x,y,z
2 1/2-x,1/2-y,1/2+z
3 1/2+x,1/2-y,-z
4 -x,y,1/2-z
5 -x,-y,-z
6 1/2+x,1/2+y,1/2-z
7 1/2-x,1/2+y,z
8 x,-y,1/2+z
_cell_length_a                   25.6990(4)
_cell_length_b                   13.1800(12)
_cell_length_c                   6.939(2)
_cell_angle_alpha                90
_cell_angle_beta                 90
_cell_angle_gamma                90
_cell_volume                     2350.33
loop_
_atom_site_label
_atom_site_type_symbol
_atom_site_fract_x
_atom_site_fract_y
_atom_site_fract_z
Mn1 Mn 0.0000 0.38047(3) 0.7500
O1 O 0.04043(5) 0.37166(9) 1.03470(18)
O2 O 0.06018(5) 0.52584(9) 1.14965(19)
O3 O 0.23528(6) 0.59183(11) 1.3663(2)
O4 O 0.28538(6) 0.46864(13) 1.4544(2)
O5 O 0.10298(5) 0.22520(9) 1.08944(19)
H1 H 0.0753 0.2543 1.0560
N1 N 0.04966(6) 0.24076(11) 0.6827(2)
N2 N 0.24507(6) 0.50077(14) 1.3821(2)
C1 C 0.07043(7) 0.43449(13) 1.1181(2)
C2 C 0.12264(7) 0.39658(13) 1.1799(2)
C3 C 0.15885(7) 0.46351(13) 1.2552(2)
H2 H 0.1505 0.5334 1.2680
C4 C 0.20705(7) 0.42823(15) 1.3116(3)
C5 C 0.22069(8) 0.32639(15) 1.2963(3)
H3 H 0.2539 0.3035 1.3382
C6 C 0.18524(7) 0.25956(14) 1.2194(3)
H4 H 0.1941 0.1899 1.2059
C7 C 0.13617(7) 0.29379(13) 1.1610(3)
C8 C 0.02676(7) 0.14986(13) 0.7194(2)
C9 C 0.05312(8) 0.05687(13) 0.6990(2)
C10 C 0.10573(8) 0.06049(15) 0.6455(3)
H5 H 0.1253 -0.0004 0.6334
C11 C 0.12868(8) 0.15222(15) 0.6109(3)
H6 H 0.1643 0.1558 0.5755
C12 C 0.09905(7) 0.24063(14) 0.6283(3)
H7 H 0.1151 0.3038 0.5997
C13 C 0.02546(8) -0.03635(14) 0.7280(3)
H8 H 0.0434 -0.0991 0.7158
N1C N -0.04966(6) 0.24076(11) 0.8173(2)
C8C C -0.02676(7) 0.14986(13) 0.7806(2)
C9C C -0.05312(8) 0.05687(13) 0.8010(2)
C10C C -0.10573(8) 0.06049(15) 0.8545(3)
H5C H -0.1253 -0.0004 0.8666
C11C C -0.12868(8) 0.15222(15) 0.8891(3)
H6C H -0.1643 0.1558 0.9245
C12C C -0.09905(7) 0.24063(14) 0.8717(3)
H7C H -0.1151 0.3038 0.9003
C13C C -0.02546(8) -0.03635(14) 0.7720(3)
H8C H -0.0434 -0.0991 0.7842
O1C O -0.04043(5) 0.37166(9) 0.46530(18)
O2C O -0.06018(5) 0.52584(9) 0.35035(19)
O3C O -0.23528(6) 0.59183(11) 0.1337(2)
O4C O -0.28538(6) 0.46864(13) 0.0456(2)
O5C O -0.10298(5) 0.22520(9) 0.41056(19)
H1C H -0.0753 0.2543 0.4440
N2C N -0.24507(6) 0.50077(14) 0.1179(2)
C1C C -0.07043(7) 0.43449(13) 0.3819(2)
C2C C -0.12264(7) 0.39658(13) 0.3201(2)
C3C C -0.15885(7) 0.46351(13) 0.2448(2)
H2C H -0.1505 0.5334 0.2320
C4C C -0.20705(7) 0.42823(15) 0.1884(3)
C5C C -0.22069(8) 0.32639(15) 0.2037(3)
H3C H -0.2539 0.3035 0.1618
C6C C -0.18524(7) 0.25956(14) 0.2806(3)
H4C H -0.1941 0.1899 0.2941
C7C C -0.13617(7) 0.29379(13) 0.3390(3)
Mn1D Mn 0.0000 0.61953(3) 0.2500
Mn1D_2 Mn 0.0000 0.61953(3) 1.2500
O2D O -0.06018(5) 0.47416(9) 0.85035(19)
O2G O 0.06018(5) 0.47416(9) 0.64965(19)
loop_
_geom_bond_atom_site_label_1
_geom_bond_atom_site_label_2
_geom_bond_site_symmetry_1
_geom_bond_site_symmetry_2
Mn1 O1 1_555 1_555
O1 C1 1_555 1_555
O2 C1 1_555 1_555
O3 N2 1_555 1_555
O4 N2 1_555 1_555
O5 H1 1_555 1_555
N1 Mn1 1_555 1_555
N2 C4 1_555 1_555
C1 C2 1_555 1_555
C2 C3 1_555 1_555
C3 H2 1_555 1_555
C4 C3 1_555 1_555
C5 C4 1_555 1_555
H3 C5 1_555 1_555
C6 C5 1_555 1_555
H4 C6 1_555 1_555
C7 O5 1_555 1_555
C8 N1 1_555 1_555
C9 C8 1_555 1_555
C10 C9 1_555 1_555
H5 C10 1_555 1_555
C11 C10 1_555 1_555
H6 C11 1_555 1_555
C12 N1 1_555 1_555
H7 C12 1_555 1_555
C13 C9 1_555 1_555
H8 C13 1_555 1_555
N1C Mn1 1_555 1_555
C8C C8 1_555 1_555
C9C C8C 1_555 1_555
C10C C9C 1_555 1_555
H5C C10C 1_555 1_555
C11C C10C 1_555 1_555
H6C C11C 1_555 1_555
C12C N1C 1_555 1_555
H7C C12C 1_555 1_555
C13C C13 1_555 1_555
H8C C13C 1_555 1_555
O1C Mn1 1_555 1_555
O2C C1C 1_555 1_555
O3C N2C 1_555 1_555
O4C N2C 1_555 1_555
O5C H1C 1_555 1_555
N2C C4C 1_555 1_555
C1C O1C 1_555 1_555
C2C C1C 1_555 1_555
C3C C2C 1_555 1_555
H2C C3C 1_555 1_555
C4C C3C 1_555 1_555
C5C C4C 1_555 1_555
H3C C5C 1_555 1_555
C6C C5C 1_555 1_555
H4C C6C 1_555 1_555
C7C O5C 1_555 1_555
Mn1D O2C 1_555 1_555
Mn1D_2 O2 1_555 1_555
O2D Mn1 1_555 1_555
O2G Mn1 1_555 1_555
C2 C7 1_555 1_555
C6 C7 1_555 1_555
C11 C12 1_555 1_555
N1C C8C 1_555 1_555
C9C C13C 1_555 1_555
C11C C12C 1_555 1_555
C2C C7C 1_555 1_555
C6C C7C 1_555 1_555

#END
