
#######################################################################
#
#                 Cambridge Crystallographic Data Centre
#                                CCDC 
#
#######################################################################
#
# If this CIF has been generated from an entry in the Cambridge 
# Structural Database, then it will include bibliographic, chemical, 
# crystal, experimental, refinement or atomic coordinate data resulting 
# from the CCDC's data processing and validation procedures.
#
#######################################################################

data_FOQNEF
_symmetry_cell_setting           orthorhombic
_symmetry_space_group_name_H-M   'P b c n'
_symmetry_Int_Tables_number      60
_space_group_name_Hall           '-P 2n 2ab'
loop_
_symmetry_equiv_pos_site_id
_symmetry_equiv_pos_as_xyz
1 x,y,z
2 1/2-x,1/2-y,1/2+z
3 -x,y,1/2-z
4 1/2+x,1/2-y,-z
5 -x,-y,-z
6 1/2+x,1/2+y,1/2-z
7 x,-y,1/2+z
8 1/2-x,1/2+y,z
_cell_length_a                   25.747(8)
_cell_length_b                   13.220(4)
_cell_length_c                   7.009(3)
_cell_angle_alpha                90
_cell_angle_beta                 90
_cell_angle_gamma                90
_cell_volume                     2385.69
loop_
_atom_site_label
_atom_site_type_symbol
_atom_site_fract_x
_atom_site_fract_y
_atom_site_fract_z
Mn1 Mn 0.5000 0.38139(4) 0.2500
N1 N 0.74486(9) 0.5003(2) 0.1244(3)
N2 N 0.45061(7) 0.24185(14) 0.1827(3)
O1 O 0.55960(7) 0.47558(12) 0.3491(3)
O2 O 0.54029(7) 0.62754(13) 0.4676(3)
O3 O 0.60252(8) 0.77435(13) 0.4113(3)
H1 H 0.5755(8) 0.740(2) 0.435(5)
O4 O 0.73506(8) 0.41013(19) 0.1387(3)
O5 O 0.78539(9) 0.5323(2) 0.0563(4)
C1 C 0.62210(9) 0.60401(18) 0.3220(4)
C2 C 0.63569(9) 0.70604(18) 0.3409(4)
C3 C 0.68450(10) 0.7400(2) 0.2833(4)
H2 H 0.6931 0.8080 0.2955
C4 C 0.71983(10) 0.6737(2) 0.2090(4)
H3 H 0.7523 0.6962 0.1694
C5 C 0.70656(9) 0.5729(2) 0.1935(4)
C6 C 0.65859(9) 0.53745(18) 0.2478(4)
H4 H 0.6506 0.4692 0.2350
C7 C 0.57007(9) 0.56575(18) 0.3823(3)
C8 C 0.40123(10) 0.2411(2) 0.1275(4)
H5 H 0.3855 0.3026 0.0996
C9 C 0.37184(11) 0.1534(2) 0.1090(4)
H6 H 0.3370 0.1569 0.0741
C10 C 0.39482(11) 0.0623(2) 0.1429(4)
H7 H 0.3759 0.0028 0.1298
C11 C 0.44717(11) 0.05874(19) 0.1976(4)
C12 C 0.47330(9) 0.15120(17) 0.2191(3)
C13 C 0.47471(11) -0.03369(19) 0.2267(4)
H8 H 0.4573 -0.0949 0.2131
Mn1D Mn 0.5000 0.61861(4) 0.7500
N1D N 0.25514(9) 0.4997(2) 0.8756(3)
N2B N 0.54939(7) 0.24185(14) 0.3173(3)
O1D O 0.44040(7) 0.52442(12) 0.6509(3)
O1B O 0.44040(7) 0.47558(12) 0.1509(3)
O2D O 0.45971(7) 0.37246(13) 0.5324(3)
O2F O 0.54029(7) 0.37246(13) -0.0324(3)
O3D O 0.39748(8) 0.22565(13) 0.5887(3)
H1D H 0.4245(8) 0.260(2) 0.565(5)
O4D O 0.26494(8) 0.58987(19) 0.8613(3)
O5D O 0.21461(9) 0.4677(2) 0.9437(4)
C1D C 0.37790(9) 0.39599(18) 0.6780(4)
C2D C 0.36431(9) 0.29396(18) 0.6591(4)
C3D C 0.31550(10) 0.2600(2) 0.7167(4)
H2D H 0.3069 0.1920 0.7045
C4D C 0.28017(10) 0.3263(2) 0.7910(4)
H3D H 0.2477 0.3038 0.8306
C5D C 0.29344(9) 0.4271(2) 0.8065(4)
C6D C 0.34141(9) 0.46255(18) 0.7522(4)
H4D H 0.3494 0.5308 0.7650
C7D C 0.42993(9) 0.43425(18) 0.6177(3)
C8B C 0.59877(10) 0.2411(2) 0.3725(4)
H5B H 0.6145 0.3026 0.4004
C9B C 0.62816(11) 0.1534(2) 0.3910(4)
H6B H 0.6630 0.1569 0.4259
C10B C 0.60518(11) 0.0623(2) 0.3571(4)
H7B H 0.6241 0.0028 0.3702
C11B C 0.55283(11) 0.05874(19) 0.3024(4)
C12B C 0.52670(9) 0.15120(17) 0.2809(3)
C13B C 0.52529(11) -0.03369(19) 0.2733(4)
H8B H 0.5427 -0.0949 0.2869
loop_
_geom_bond_atom_site_label_1
_geom_bond_atom_site_label_2
_geom_bond_site_symmetry_1
_geom_bond_site_symmetry_2
Mn1 N2 1_555 1_555
N1 O4 1_555 1_555
N2 C8 1_555 1_555
O1 Mn1 1_555 1_555
O2 C7 1_555 1_555
O3 H1 1_555 1_555
O5 N1 1_555 1_555
C1 C2 1_555 1_555
C2 O3 1_555 1_555
C3 C2 1_555 1_555
H2 C3 1_555 1_555
C4 C3 1_555 1_555
H3 C4 1_555 1_555
C5 N1 1_555 1_555
C6 C1 1_555 1_555
H4 C6 1_555 1_555
C7 O1 1_555 1_555
C8 H5 1_555 1_555
C9 C8 1_555 1_555
H6 C9 1_555 1_555
C10 C9 1_555 1_555
H7 C10 1_555 1_555
C11 C10 1_555 1_555
C12 N2 1_555 1_555
C13 C11 1_555 1_555
H8 C13 1_555 1_555
Mn1D O2 1_555 1_555
N1D O4D 1_555 1_555
N2B Mn1 1_555 1_555
O1D Mn1D 1_555 1_555
O1B Mn1 1_555 1_555
O2D Mn1 1_555 1_555
O2F Mn1 1_555 1_555
O3D H1D 1_555 1_555
O5D N1D 1_555 1_555
C1D C2D 1_555 1_555
C2D O3D 1_555 1_555
C3D C2D 1_555 1_555
H2D C3D 1_555 1_555
C4D C3D 1_555 1_555
H3D C4D 1_555 1_555
C5D N1D 1_555 1_555
C6D C1D 1_555 1_555
H4D C6D 1_555 1_555
C7D O1D 1_555 1_555
C8B N2B 1_555 1_555
H5B C8B 1_555 1_555
C9B C8B 1_555 1_555
H6B C9B 1_555 1_555
C10B C9B 1_555 1_555
H7B C10B 1_555 1_555
C11B C10B 1_555 1_555
C12B C12 1_555 1_555
C13B C13 1_555 1_555
H8B C13B 1_555 1_555
C1 C7 1_555 1_555
C4 C5 1_555 1_555
C5 C6 1_555 1_555
C11 C12 1_555 1_555
N2B C12B 1_555 1_555
O2D C7D 1_555 1_555
C1D C7D 1_555 1_555
C4D C5D 1_555 1_555
C5D C6D 1_555 1_555
C11B C12B 1_555 1_555
C11B C13B 1_555 1_555

#END
