
#######################################################################
#
#                 Cambridge Crystallographic Data Centre
#                                CCDC 
#
#######################################################################
#
# If this CIF has been generated from an entry in the Cambridge 
# Structural Database, then it will include bibliographic, chemical, 
# crystal, experimental, refinement or atomic coordinate data resulting 
# from the CCDC's data processing and validation procedures.
#
#######################################################################

data_FOQQUY01
_symmetry_cell_setting           orthorhombic
_symmetry_space_group_name_H-M   'P b c a'
_symmetry_Int_Tables_number      61
_space_group_name_Hall           '-P 2ac 2ab'
loop_
_symmetry_equiv_pos_site_id
_symmetry_equiv_pos_as_xyz
1 x,y,z
2 1/2-x,-y,1/2+z
3 -x,1/2+y,1/2-z
4 1/2+x,1/2-y,-z
5 -x,-y,-z
6 1/2+x,y,1/2-z
7 x,1/2-y,1/2+z
8 1/2-x,1/2+y,z
_cell_length_a                   11.483(2)
_cell_length_b                   12.083(2)
_cell_length_c                   17.512(4)
_cell_angle_alpha                90
_cell_angle_beta                 90
_cell_angle_gamma                90
_cell_volume                     2429.77
loop_
_atom_site_label
_atom_site_type_symbol
_atom_site_fract_x
_atom_site_fract_y
_atom_site_fract_z
Cd1 Cd 0.138180(17) -0.100420(18) 0.113160(13)
N1 N 0.1517(2) -0.1918(2) 0.23180(17)
O1 O 0.1835(2) -0.2993(2) 0.02841(17)
O2 O 0.1594(2) 0.0220(2) 0.00752(16)
C1 C 0.0785(3) -0.2847(3) 0.01488(19)
O3 O 0.0181(2) -0.2105(2) 0.04609(17)
C2 C 0.0710(3) -0.2666(2) 0.25239(19)
H1 H 0.0023 -0.2704 0.2245
C3 C 0.2663(3) -0.2484(3) 0.3394(2)
H2 H 0.3317 -0.2372 0.3699
C4 C 0.2479(3) -0.1841(3) 0.2760(2)
H3 H 0.3045 -0.1326 0.2628
C5 C 0.0173(2) -0.3585(2) -0.04188(17)
N2 N 0.0773(3) -0.4380(3) -0.0834(2)
C6 C 0.0163(3) -0.5042(3) -0.1343(2)
H4 H 0.0549 -0.5573 -0.1632
N3 N 0.1869(3) -0.3297(3) 0.3575(2)
C7 C 0.0857(3) -0.3386(2) 0.31346(18)
C8 C -0.0048(3) -0.4268(3) 0.33064(19)
O4 O -0.1072(3) -0.4133(2) 0.31172(19)
O5 O 0.0339(2) -0.5128(2) 0.36374(17)
C9 C -0.1017(3) -0.3477(2) -0.05456(18)
H5 H -0.1418 -0.2925 -0.0285
N4 N -0.1618(3) -0.4131(2) -0.10255(17)
C10 C -0.1022(3) -0.4902(3) -0.14123(19)
H6 H -0.1427 -0.5363 -0.1744
H7 H 0.217(3) 0.049(8) -0.016(3)
H8 H 0.100(3) 0.029(5) -0.019(3)
Cd1B Cd -0.138180(17) -0.600420(18) 0.386840(13)
Cd1C Cd -0.361820(17) -0.399580(18) -0.113160(13)
O4B O 0.1072(3) 0.0867(2) 0.18828(19)
O5B O -0.0339(2) -0.0128(2) 0.13626(17)
N4C N 0.3382(3) -0.0869(2) 0.10255(17)
loop_
_geom_bond_atom_site_label_1
_geom_bond_atom_site_label_2
_geom_bond_site_symmetry_1
_geom_bond_site_symmetry_2
Cd1 N1 1_555 1_555
N1 C2 1_555 1_555
O1 C1 1_555 1_555
O2 Cd1 1_555 1_555
C1 O3 1_555 1_555
O3 Cd1 1_555 1_555
C2 H1 1_555 1_555
C3 H2 1_555 1_555
C4 N1 1_555 1_555
H3 C4 1_555 1_555
C5 C1 1_555 1_555
N2 C5 1_555 1_555
C6 N2 1_555 1_555
H4 C6 1_555 1_555
N3 C3 1_555 1_555
C7 C2 1_555 1_555
C8 C7 1_555 1_555
O4 C8 1_555 1_555
O5 C8 1_555 1_555
C9 C5 1_555 1_555
H5 C9 1_555 1_555
N4 C9 1_555 1_555
C10 C6 1_555 1_555
H6 C10 1_555 1_555
H7 O2 1_555 1_555
H8 O2 1_555 1_555
Cd1B O4 1_555 1_555
Cd1C N4 1_555 1_555
O4B Cd1 1_555 1_555
O5B Cd1 1_555 1_555
N4C Cd1 1_555 1_555
C3 C4 1_555 1_555
N3 C7 1_555 1_555
O5 Cd1B 1_555 1_555
N4 C10 1_555 1_555

#END
