
#######################################################################
#
#                 Cambridge Crystallographic Data Centre
#                                CCDC 
#
#######################################################################
#
# If this CIF has been generated from an entry in the Cambridge 
# Structural Database, then it will include bibliographic, chemical, 
# crystal, experimental, refinement or atomic coordinate data resulting 
# from the CCDC's data processing and validation procedures.
#
#######################################################################

data_FORTIR
_symmetry_cell_setting           orthorhombic
_symmetry_space_group_name_H-M   'I 21 21 21'
_symmetry_Int_Tables_number      24
_space_group_name_Hall           'I 2b 2c'
loop_
_symmetry_equiv_pos_site_id
_symmetry_equiv_pos_as_xyz
1 x,y,z
2 -x,1/2-y,z
3 x,-y,1/2-z
4 1/2-x,y,-z
5 1/2+x,1/2+y,1/2+z
6 1/2-x,-y,1/2+z
7 1/2+x,1/2-y,-z
8 -x,1/2+y,1/2-z
_cell_length_a                   17.5150(19)
_cell_length_b                   32.963(4)
_cell_length_c                   38.137(4)
_cell_angle_alpha                90
_cell_angle_beta                 90
_cell_angle_gamma                90
_cell_volume                     22018.3
loop_
_atom_site_label
_atom_site_type_symbol
_atom_site_fract_x
_atom_site_fract_y
_atom_site_fract_z
Cd1 Cd 0.7500 0.55764(7) 0.0000
Cd2 Cd -0.0048(2) 0.5000 0.2500
Zn1 Zn 0.5000 0.7500 0.25235(9)
Zn2 Zn 0.62260(16) 0.69757(6) 0.21173(7)
Zn3 Zn 0.38548(17) 0.80799(7) 0.29198(7)
Zn4 Zn 0.32308(15) 0.73064(7) 0.25697(7)
C1 C 0.712(2) 0.5825(7) 0.0663(7)
C2 C 0.6895(7) 0.5963(3) 0.1015(3)
C3 C 0.6905(10) 0.5710(3) 0.1307(3)
H1 H 0.7024 0.5437 0.1281
C4 C 0.6737(12) 0.5866(4) 0.1636(3)
C5 C 0.6559(14) 0.6275(5) 0.1675(3)
C6 C 0.6549(14) 0.6528(4) 0.1383(4)
C7 C 0.6717(11) 0.6372(3) 0.1053(3)
H2 H 0.6711 0.6541 0.0858
C8 C 0.6740(17) 0.5573(5) 0.1957(5)
C9 C 0.732(2) 0.5693(8) 0.2202(9)
H3 H 0.7319 0.5512 0.2399
H4 H 0.7221 0.5965 0.2281
H5 H 0.7811 0.5684 0.2090
C10 C 0.5950(15) 0.5563(7) 0.2141(6)
H6 H 0.5971 0.5383 0.2338
H7 H 0.5570 0.5470 0.1978
H8 H 0.5821 0.5832 0.2219
C11 C 0.6917(18) 0.5129(6) 0.1855(8)
H9 H 0.6916 0.4963 0.2062
H10 H 0.7409 0.5116 0.1745
H11 H 0.6534 0.5033 0.1695
C12 C 0.6327(15) 0.6958(6) 0.1367(6)
H12 H 0.6304 0.7076 0.1146
C13 C 0.5938(6) 0.7605(2) 0.1590(2)
C14 C 0.5866(9) 0.7834(3) 0.1894(3)
C15 C 0.5670(10) 0.8242(3) 0.1874(3)
C16 C 0.5547(10) 0.8421(3) 0.1549(4)
C17 C 0.5619(11) 0.8193(3) 0.1244(3)
C18 C 0.5815(9) 0.7785(3) 0.1265(2)
H13 H 0.5863 0.7632 0.1061
C19 C 0.545(2) 0.8380(8) 0.0885(7)
H14 H 0.5521 0.8179 0.0706
H15 H 0.5787 0.8604 0.0844
H16 H 0.4929 0.8474 0.0880
C20 C 0.5213(16) 0.8862(6) 0.1491(7)
H17 H 0.5172 0.8916 0.1244
H18 H 0.5546 0.9058 0.1596
H19 H 0.4716 0.8881 0.1596
C21 C 0.5659(6) 0.8501(2) 0.2214(2)
C22 C 0.5111(7) 0.8424(3) 0.2469(3)
C23 C 0.5049(9) 0.8679(4) 0.2758(3)
C24 C 0.5535(11) 0.9010(4) 0.2792(3)
H20 H 0.5493 0.9180 0.2986
C25 C 0.6082(10) 0.9087(3) 0.2537(4)
C26 C 0.6144(7) 0.8832(3) 0.2247(3)
C27 C 0.6827(14) 0.8905(7) 0.1963(7)
H21 H 0.7112 0.9142 0.2027
H22 H 0.6610 0.8941 0.1734
H23 H 0.7160 0.8673 0.1962
C28 C 0.6598(16) 0.9469(6) 0.2605(8)
H24 H 0.6957 0.9498 0.2417
H25 H 0.6869 0.9434 0.2822
H26 H 0.6283 0.9707 0.2619
C29 C 0.4269(16) 0.8831(6) 0.3250(6)
H27 H 0.4553 0.9068 0.3272
C30 C 0.3659(8) 0.8774(3) 0.3507(3)
C31 C 0.3191(9) 0.8437(3) 0.3546(3)
C32 C 0.2631(9) 0.8434(4) 0.3805(4)
C33 C 0.2540(11) 0.8768(5) 0.4023(4)
H28 H 0.2165 0.8765 0.4196
C34 C 0.3008(11) 0.9105(4) 0.3984(4)
C35 C 0.3568(9) 0.9108(3) 0.3725(3)
H29 H 0.3882 0.9334 0.3699
C36 C 0.285(2) 0.9480(6) 0.4196(7)
C37 C 0.2103(18) 0.8055(7) 0.3854(8)
C38 C 0.1528(19) 0.8117(9) 0.4182(8)
H30 H 0.1198 0.7886 0.4201
H31 H 0.1227 0.8357 0.4146
H32 H 0.1819 0.8146 0.4394
C39 C 0.252(2) 0.7679(8) 0.3932(9)
H33 H 0.2166 0.7461 0.3963
H34 H 0.2813 0.7715 0.4143
H35 H 0.2859 0.7617 0.3741
C40 C 0.159(2) 0.8008(11) 0.3525(9)
H36 H 0.1244 0.7784 0.3559
H37 H 0.1901 0.7958 0.3323
H38 H 0.1299 0.8252 0.3490
C41 C 0.0769(16) 0.5660(8) 0.2473(10)
C42 C 0.1189(7) 0.6046(3) 0.2438(4)
C43 C 0.1061(9) 0.6289(4) 0.2146(4)
H39 H 0.0700 0.6212 0.1980
C44 C 0.1472(11) 0.6646(4) 0.2102(5)
C45 C 0.2012(11) 0.6760(4) 0.2350(6)
C46 C 0.2140(10) 0.6518(5) 0.2643(6)
C47 C 0.1729(8) 0.6161(4) 0.2687(4)
H40 H 0.1815 0.5998 0.2882
C48 C 0.1311(16) 0.6912(8) 0.1773(7)
C49 C 0.0712(16) 0.6725(12) 0.1523(9)
H41 H 0.0640 0.6900 0.1325
H42 H 0.0237 0.6693 0.1646
H43 H 0.0888 0.6465 0.1444
C50 C 0.2067(19) 0.6928(12) 0.1546(9)
H44 H 0.2473 0.7041 0.1684
H45 H 0.1985 0.7093 0.1343
H46 H 0.2202 0.6658 0.1474
C51 C 0.106(3) 0.7344(9) 0.1874(12)
H47 H 0.1428 0.7462 0.2028
H48 H 0.0571 0.7332 0.1991
H49 H 0.1011 0.7507 0.1666
C52 C 0.2718(14) 0.6582(6) 0.2918(7)
H50 H 0.2755 0.6385 0.3091
C53 C 0.3740(7) 0.6915(3) 0.3217(3)
C54 C 0.4230(8) 0.7246(3) 0.3206(3)
C55 C 0.4772(9) 0.7300(4) 0.3468(4)
C56 C 0.4823(10) 0.7023(5) 0.3742(4)
C57 C 0.4332(10) 0.6692(5) 0.3753(3)
C58 C 0.3790(8) 0.6638(3) 0.3491(3)
H51 H 0.3462 0.6417 0.3499
C59 C 0.442(2) 0.6357(8) 0.4042(8)
H52 H 0.4033 0.6153 0.4007
H53 H 0.4356 0.6477 0.4269
H54 H 0.4914 0.6236 0.4025
C60 C 0.5394(17) 0.7065(7) 0.4023(6)
H55 H 0.5693 0.7305 0.3984
H56 H 0.5723 0.6832 0.4023
H57 H 0.5139 0.7085 0.4245
N1 N 0.884(3) 0.5557(14) 0.0174(11)
C61 C 0.906(3) 0.5239(16) 0.0390(14)
H58 H 0.8697 0.5073 0.0493
C62 C 0.983(4) 0.517(2) 0.0451(18)
H59 H 0.9984 0.4956 0.0596
C63 C 1.038(3) 0.542(2) 0.030(2)
H60 H 1.0896 0.5371 0.0338
C64 C 1.016(3) 0.574(2) 0.0081(18)
H61 H 1.0521 0.5902 -0.0022
C65 C 0.938(3) 0.5805(16) 0.0020(14)
H62 H 0.9234 0.6018 -0.0125
N2 N -0.0782(11) 0.4814(7) 0.2061(9)
C66 C -0.1179(17) 0.4451(8) 0.2103(11)
H63 H -0.1239 0.4340 0.2325
C67 C -0.149(2) 0.4256(10) 0.1812(13)
H64 H -0.1751 0.4014 0.1840
C68 C -0.140(3) 0.4423(14) 0.1480(11)
H65 H -0.1601 0.4292 0.1286
C69 C -0.100(2) 0.4785(14) 0.1438(9)
H66 H -0.0939 0.4896 0.1216
C70 C -0.0693(17) 0.4980(9) 0.1729(9)
H67 H -0.0427 0.5222 0.1701
N3 N 0.6161(12) 0.7188(4) 0.1633(5)
N4 N 0.4460(13) 0.8594(5) 0.3000(5)
N5 N 0.3171(13) 0.6881(6) 0.2940(5)
O1 O 0.4185(8) 0.7494(4) 0.2921(4)
O2 O 0.6879(8) 0.7080(4) 0.2542(4)
O3 O 0.6430(11) 0.6425(4) 0.1992(4)
O4 O 0.5932(8) 0.7632(3) 0.2201(3)
O5 O 0.4653(8) 0.8091(4) 0.2458(4)
O6 O 0.3232(12) 0.8115(4) 0.3335(4)
O7 O 0.2380(10) 0.7114(5) 0.2298(5)
O8 O 0.724(2) 0.6069(5) 0.0417(5)
O9 O 0.7208(14) 0.5447(5) 0.0613(5)
O10 O 0.3294(15) 0.9785(5) 0.4122(5)
O11 O 0.2336(14) 0.9484(5) 0.4414(5)
O12 O 0.0266(12) 0.5569(6) 0.2247(6)
O13 O 0.0875(13) 0.5438(6) 0.2752(7)
O14 O 0.7500 0.4886(8) 0.0000
C41A C 0.9231(16) 0.9340(8) 0.2473(10)
C42A C 0.8811(7) 0.8954(3) 0.2438(4)
C43A C 0.8939(9) 0.8711(4) 0.2146(4)
H39A H 0.9300 0.8788 0.1980
C44A C 0.8528(11) 0.8354(4) 0.2102(5)
C45A C 0.7988(11) 0.8240(4) 0.2350(6)
C46A C 0.7860(10) 0.8482(5) 0.2643(6)
C47A C 0.8271(8) 0.8839(4) 0.2687(4)
H40A H 0.8185 0.9002 0.2882
C48A C 0.8689(16) 0.8088(8) 0.1773(7)
C49A C 0.9288(16) 0.8275(12) 0.1523(9)
H41A H 0.9360 0.8100 0.1325
H42A H 0.9763 0.8307 0.1646
H43A H 0.9112 0.8535 0.1444
C50A C 0.7933(19) 0.8072(12) 0.1546(9)
H44A H 0.7527 0.7959 0.1684
H45A H 0.8015 0.7907 0.1343
H46A H 0.7798 0.8342 0.1474
C51A C 0.894(3) 0.7656(9) 0.1874(12)
H47A H 0.8572 0.7538 0.2028
H48A H 0.9429 0.7668 0.1991
H49A H 0.8989 0.7493 0.1666
C52A C 0.7282(14) 0.8418(6) 0.2918(7)
H50A H 0.7245 0.8615 0.3091
C53A C 0.6260(7) 0.8085(3) 0.3217(3)
C54A C 0.5770(8) 0.7754(3) 0.3206(3)
C55A C 0.5228(9) 0.7700(4) 0.3468(4)
C56A C 0.5177(10) 0.7977(5) 0.3742(4)
C57A C 0.5668(10) 0.8308(5) 0.3753(3)
C58A C 0.6210(8) 0.8362(3) 0.3491(3)
H51A H 0.6538 0.8583 0.3499
C59A C 0.558(2) 0.8643(8) 0.4042(8)
H52A H 0.5967 0.8847 0.4007
H53A H 0.5644 0.8523 0.4269
H54A H 0.5086 0.8764 0.4025
C60A C 0.4606(17) 0.7935(7) 0.4023(6)
H55A H 0.4307 0.7695 0.3984
H56A H 0.4277 0.8168 0.4023
H57A H 0.4861 0.7915 0.4245
N5A N 0.6829(13) 0.8119(6) 0.2940(5)
O1A O 0.5815(8) 0.7506(4) 0.2921(4)
O7A O 0.7620(10) 0.7886(5) 0.2298(5)
O12A O 0.9734(12) 0.9431(6) 0.2247(6)
O13A O 0.9125(13) 0.9562(6) 0.2752(7)
Zn2A Zn 0.37740(16) 0.80243(6) 0.21173(7)
Zn3A Zn 0.61452(17) 0.69201(7) 0.29198(7)
Zn4A Zn 0.67692(15) 0.76936(7) 0.25697(7)
C1A C 0.288(2) 0.9175(7) 0.0663(7)
C2A C 0.3105(7) 0.9037(3) 0.1015(3)
C3A C 0.3095(10) 0.9290(3) 0.1307(3)
H1A H 0.2976 0.9563 0.1281
C4A C 0.3263(12) 0.9134(4) 0.1636(3)
C5A C 0.3441(14) 0.8725(5) 0.1675(3)
C6A C 0.3451(14) 0.8472(4) 0.1383(4)
C7A C 0.3283(11) 0.8628(3) 0.1053(3)
H2A H 0.3289 0.8459 0.0858
C8A C 0.3260(17) 0.9427(5) 0.1957(5)
C9A C 0.268(2) 0.9307(8) 0.2202(9)
H3A H 0.2681 0.9488 0.2399
H4A H 0.2779 0.9035 0.2281
H5A H 0.2189 0.9316 0.2090
C10A C 0.4050(15) 0.9437(7) 0.2141(6)
H6A H 0.4029 0.9617 0.2338
H7A H 0.4430 0.9530 0.1978
H8A H 0.4179 0.9168 0.2219
C11A C 0.3083(18) 0.9871(6) 0.1855(8)
H9A H 0.3084 1.0037 0.2062
H10A H 0.2591 0.9884 0.1745
H11A H 0.3466 0.9967 0.1695
C12A C 0.3673(15) 0.8042(6) 0.1367(6)
H12A H 0.3696 0.7924 0.1146
C13A C 0.4062(6) 0.7395(2) 0.1590(2)
C14A C 0.4134(9) 0.7166(3) 0.1894(3)
C15A C 0.4330(10) 0.6758(3) 0.1874(3)
C16A C 0.4453(10) 0.6579(3) 0.1549(4)
C17A C 0.4381(11) 0.6807(3) 0.1244(3)
C18A C 0.4185(9) 0.7215(3) 0.1265(2)
H13A H 0.4137 0.7368 0.1061
C19A C 0.455(2) 0.6620(8) 0.0885(7)
H14A H 0.4479 0.6821 0.0706
H15A H 0.4213 0.6396 0.0844
H16A H 0.5071 0.6526 0.0880
C20A C 0.4787(16) 0.6138(6) 0.1491(7)
H17A H 0.4828 0.6084 0.1244
H18A H 0.4454 0.5942 0.1596
H19A H 0.5284 0.6119 0.1596
C21A C 0.4341(6) 0.6499(2) 0.2214(2)
C22A C 0.4889(7) 0.6576(3) 0.2469(3)
C23A C 0.4951(9) 0.6321(4) 0.2758(3)
C24A C 0.4465(11) 0.5990(4) 0.2792(3)
H20A H 0.4507 0.5820 0.2986
C25A C 0.3918(10) 0.5913(3) 0.2537(4)
C26A C 0.3856(7) 0.6168(3) 0.2247(3)
C27A C 0.3173(14) 0.6095(7) 0.1963(7)
H21A H 0.2888 0.5858 0.2027
H22A H 0.3390 0.6059 0.1734
H23A H 0.2840 0.6327 0.1962
C28A C 0.3402(16) 0.5531(6) 0.2605(8)
H24A H 0.3043 0.5502 0.2417
H25A H 0.3131 0.5566 0.2822
H26A H 0.3717 0.5293 0.2619
C29A C 0.5731(16) 0.6169(6) 0.3250(6)
H27A H 0.5447 0.5932 0.3272
C30A C 0.6341(8) 0.6226(3) 0.3507(3)
C31A C 0.6809(9) 0.6563(3) 0.3546(3)
C32A C 0.7369(9) 0.6566(4) 0.3805(4)
C33A C 0.7460(11) 0.6232(5) 0.4023(4)
H28A H 0.7835 0.6235 0.4196
C34A C 0.6992(11) 0.5895(4) 0.3984(4)
C35A C 0.6432(9) 0.5892(3) 0.3725(3)
H29A H 0.6118 0.5666 0.3699
C36A C 0.715(2) 0.5520(6) 0.4196(7)
C37A C 0.7897(18) 0.6945(7) 0.3854(8)
C38A C 0.8472(19) 0.6883(9) 0.4182(8)
H30A H 0.8802 0.7114 0.4201
H31A H 0.8773 0.6643 0.4146
H32A H 0.8181 0.6854 0.4394
C39A C 0.748(2) 0.7321(8) 0.3932(9)
H33A H 0.7834 0.7539 0.3963
H34A H 0.7187 0.7285 0.4143
H35A H 0.7141 0.7383 0.3741
C40A C 0.841(2) 0.6992(11) 0.3525(9)
H36A H 0.8756 0.7216 0.3559
H37A H 0.8099 0.7042 0.3323
H38A H 0.8701 0.6748 0.3490
N3A N 0.3839(12) 0.7812(4) 0.1633(5)
N4A N 0.5540(13) 0.6406(5) 0.3000(5)
O2A O 0.3121(8) 0.7920(4) 0.2542(4)
O3A O 0.3570(11) 0.8575(4) 0.1992(4)
O4A O 0.4068(8) 0.7368(3) 0.2201(3)
O5A O 0.5347(8) 0.6909(4) 0.2458(4)
O6A O 0.6768(12) 0.6885(4) 0.3335(4)
O8A O 0.276(2) 0.8931(5) 0.0417(5)
O9A O 0.2792(14) 0.9553(5) 0.0613(5)
O10A O 0.6706(15) 0.5215(5) 0.4122(5)
O11A O 0.7664(14) 0.5516(5) 0.4414(5)
N1C N 0.616(3) 0.5557(14) -0.0174(11)
C61C C 0.594(3) 0.5239(16) -0.0390(14)
H58C H 0.6303 0.5073 -0.0493
C62C C 0.517(4) 0.517(2) -0.0451(18)
H59C H 0.5016 0.4956 -0.0596
C63C C 0.462(3) 0.542(2) -0.030(2)
H60C H 0.4104 0.5371 -0.0338
C64C C 0.484(3) 0.574(2) -0.0081(18)
H61C H 0.4479 0.5902 0.0022
C65C C 0.562(3) 0.5805(16) -0.0020(14)
H62C H 0.5766 0.6018 0.0125
N2B N -0.0782(11) 0.5186(7) 0.2939(9)
C66B C -0.1179(17) 0.5549(8) 0.2897(11)
H63B H -0.1239 0.5660 0.2675
C67B C -0.149(2) 0.5744(10) 0.3188(13)
H64B H -0.1751 0.5986 0.3160
C68B C -0.140(3) 0.5577(14) 0.3520(11)
H65B H -0.1601 0.5708 0.3714
C69B C -0.100(2) 0.5215(14) 0.3562(9)
H66B H -0.0939 0.5104 0.3784
C70B C -0.0693(17) 0.5020(9) 0.3271(9)
H67B H -0.0427 0.4778 0.3299
Cd1A Cd 0.2500 0.94236(7) 0.0000
Cd2A Cd 1.0048(2) 1.0000 0.2500
O8C O 0.776(2) 0.6069(5) -0.0417(5)
O9C O 0.7792(14) 0.5447(5) -0.0613(5)
O12B O 0.0266(12) 0.4431(6) 0.2753(6)
O13B O 0.0875(13) 0.4562(6) 0.2248(7)
C71 C 0.997(3) -0.0044(15) 0.6299(11)
C72 C 0.938(6) -0.0233(19) 0.5708(19)
C73 C 1.012(3) 0.032(2) 0.5727(16)
N6 N 0.964(2) 0.0086(11) 0.5960(8)
O15 O 0.966(3) -0.0318(11) 0.6493(9)
O16 O 0.225(4) 0.600(2) 0.3646(17)
O17 O 0.214(3) 0.5068(16) 0.1773(13)
O18 O 0.830(2) 0.6705(13) 0.2535(12)
O19 O 0.641(5) 0.731(2) 0.051(2)
O20 O 0.370(8) 0.882(4) 0.487(4)
O21 O 0.461(12) 0.573(6) 0.488(5)
loop_
_geom_bond_atom_site_label_1
_geom_bond_atom_site_label_2
_geom_bond_site_symmetry_1
_geom_bond_site_symmetry_2
Cd1 N1 1_555 1_555
Cd2 N2 1_555 1_555
Zn1 O1 1_555 1_555
Zn2 N3 1_555 1_555
Zn3 N4 1_555 1_555
Zn4 N5 1_555 1_555
C1 C2 1_555 1_555
C2 C3 1_555 1_555
C3 H1 1_555 1_555
C4 C3 1_555 1_555
C5 C4 1_555 1_555
C6 C5 1_555 1_555
C7 C2 1_555 1_555
H2 C7 1_555 1_555
C8 C4 1_555 1_555
C9 C8 1_555 1_555
H3 C9 1_555 1_555
H4 C9 1_555 1_555
H5 C9 1_555 1_555
C10 C8 1_555 1_555
H6 C10 1_555 1_555
H7 C10 1_555 1_555
H8 C10 1_555 1_555
C11 C8 1_555 1_555
H9 C11 1_555 1_555
H10 C11 1_555 1_555
H11 C11 1_555 1_555
C12 C6 1_555 1_555
H12 C12 1_555 1_555
C13 C14 1_555 1_555
C14 C15 1_555 1_555
C15 C16 1_555 1_555
C16 C17 1_555 1_555
C17 C18 1_555 1_555
C18 C13 1_555 1_555
H13 C18 1_555 1_555
C19 C17 1_555 1_555
H14 C19 1_555 1_555
H15 C19 1_555 1_555
H16 C19 1_555 1_555
C20 C16 1_555 1_555
H17 C20 1_555 1_555
H18 C20 1_555 1_555
H19 C20 1_555 1_555
C21 C15 1_555 1_555
C22 C21 1_555 1_555
C23 C22 1_555 1_555
C24 C23 1_555 1_555
H20 C24 1_555 1_555
C25 C24 1_555 1_555
C26 C21 1_555 1_555
C27 C26 1_555 1_555
H21 C27 1_555 1_555
H22 C27 1_555 1_555
H23 C27 1_555 1_555
C28 C25 1_555 1_555
H24 C28 1_555 1_555
H25 C28 1_555 1_555
H26 C28 1_555 1_555
C29 H27 1_555 1_555
C30 C29 1_555 1_555
C31 C30 1_555 1_555
C32 C31 1_555 1_555
C33 C32 1_555 1_555
H28 C33 1_555 1_555
C34 C33 1_555 1_555
C35 C30 1_555 1_555
H29 C35 1_555 1_555
C36 C34 1_555 1_555
C37 C32 1_555 1_555
C38 C37 1_555 1_555
H30 C38 1_555 1_555
H31 C38 1_555 1_555
H32 C38 1_555 1_555
C39 C37 1_555 1_555
H33 C39 1_555 1_555
H34 C39 1_555 1_555
H35 C39 1_555 1_555
C40 C37 1_555 1_555
H36 C40 1_555 1_555
H37 C40 1_555 1_555
H38 C40 1_555 1_555
C41 C42 1_555 1_555
C42 C43 1_555 1_555
C43 H39 1_555 1_555
C44 C43 1_555 1_555
C45 C44 1_555 1_555
C46 C45 1_555 1_555
C47 C42 1_555 1_555
H40 C47 1_555 1_555
C48 C44 1_555 1_555
C49 C48 1_555 1_555
H41 C49 1_555 1_555
H42 C49 1_555 1_555
H43 C49 1_555 1_555
C50 C48 1_555 1_555
H44 C50 1_555 1_555
H45 C50 1_555 1_555
H46 C50 1_555 1_555
C51 C48 1_555 1_555
H47 C51 1_555 1_555
H48 C51 1_555 1_555
H49 C51 1_555 1_555
C52 C46 1_555 1_555
H50 C52 1_555 1_555
C53 C54 1_555 1_555
C54 C55 1_555 1_555
C55 C56 1_555 1_555
C56 C57 1_555 1_555
C57 C58 1_555 1_555
C58 C53 1_555 1_555
H51 C58 1_555 1_555
C59 C57 1_555 1_555
H52 C59 1_555 1_555
H53 C59 1_555 1_555
H54 C59 1_555 1_555
C60 C56 1_555 1_555
H55 C60 1_555 1_555
H56 C60 1_555 1_555
H57 C60 1_555 1_555
N1 C61 1_555 1_555
C61 H58 1_555 1_555
C62 C61 1_555 1_555
H59 C62 1_555 1_555
C63 C62 1_555 1_555
H60 C63 1_555 1_555
C64 C63 1_555 1_555
H61 C64 1_555 1_555
C65 N1 1_555 1_555
H62 C65 1_555 1_555
N2 C66 1_555 1_555
C66 H63 1_555 1_555
C67 C66 1_555 1_555
H64 C67 1_555 1_555
C68 C67 1_555 1_555
H65 C68 1_555 1_555
C69 C68 1_555 1_555
H66 C69 1_555 1_555
C70 N2 1_555 1_555
H67 C70 1_555 1_555
N3 C12 1_555 1_555
N4 C23 1_555 1_555
N5 C52 1_555 1_555
O1 Zn3 1_555 1_555
O2 Zn2 1_555 1_555
O3 Zn2 1_555 1_555
O4 Zn1 1_555 1_555
O5 Zn1 1_555 1_555
O6 Zn3 1_555 1_555
O7 Zn4 1_555 1_555
O8 Cd1 1_555 1_555
O9 Cd1 1_555 1_555
O10 C36 1_555 1_555
O11 C36 1_555 1_555
O12 Cd2 1_555 1_555
O13 Cd2 1_555 1_555
O14 Cd1 1_555 1_555
C71 N6 1_555 1_555
C72 N6 1_555 1_555
C73 N6 1_555 1_555
O15 C71 1_555 1_555
C41A C42A 1_555 1_555
C42A C43A 1_555 1_555
C43A H39A 1_555 1_555
C44A C43A 1_555 1_555
C45A C44A 1_555 1_555
C46A C45A 1_555 1_555
C47A C42A 1_555 1_555
H40A C47A 1_555 1_555
C48A C44A 1_555 1_555
C49A C48A 1_555 1_555
H41A C49A 1_555 1_555
H42A C49A 1_555 1_555
H43A C49A 1_555 1_555
C50A C48A 1_555 1_555
H44A C50A 1_555 1_555
H45A C50A 1_555 1_555
H46A C50A 1_555 1_555
C51A C48A 1_555 1_555
H47A C51A 1_555 1_555
H48A C51A 1_555 1_555
H49A C51A 1_555 1_555
C52A C46A 1_555 1_555
H50A C52A 1_555 1_555
C53A C54A 1_555 1_555
C54A C55A 1_555 1_555
C55A C55 1_555 1_555
C56A C55A 1_555 1_555
C57A C56A 1_555 1_555
C58A C53A 1_555 1_555
H51A C58A 1_555 1_555
C59A C57A 1_555 1_555
H52A C59A 1_555 1_555
H53A C59A 1_555 1_555
H54A C59A 1_555 1_555
C60A C56A 1_555 1_555
H55A C60A 1_555 1_555
H56A C60A 1_555 1_555
H57A C60A 1_555 1_555
N5A C52A 1_555 1_555
O1A Zn1 1_555 1_555
O7A C45A 1_555 1_555
O12A C41A 1_555 1_555
O13A C41A 1_555 1_555
Zn2A O5 1_555 1_555
Zn3A O2 1_555 1_555
Zn4A O2 1_555 1_555
C1A C2A 1_555 1_555
C2A C3A 1_555 1_555
C3A H1A 1_555 1_555
C4A C3A 1_555 1_555
C5A C4A 1_555 1_555
C6A C5A 1_555 1_555
C7A C2A 1_555 1_555
H2A C7A 1_555 1_555
C8A C4A 1_555 1_555
C9A C8A 1_555 1_555
H3A C9A 1_555 1_555
H4A C9A 1_555 1_555
H5A C9A 1_555 1_555
C10A C8A 1_555 1_555
H6A C10A 1_555 1_555
H7A C10A 1_555 1_555
H8A C10A 1_555 1_555
C11A C8A 1_555 1_555
H9A C11A 1_555 1_555
H10A C11A 1_555 1_555
H11A C11A 1_555 1_555
C12A C6A 1_555 1_555
H12A C12A 1_555 1_555
C13A C14A 1_555 1_555
C14A C15A 1_555 1_555
C15A C16A 1_555 1_555
C16A C17A 1_555 1_555
C17A C18A 1_555 1_555
C18A C13A 1_555 1_555
H13A C18A 1_555 1_555
C19A C17A 1_555 1_555
H14A C19A 1_555 1_555
H15A C19A 1_555 1_555
H16A C19A 1_555 1_555
C20A C16A 1_555 1_555
H17A C20A 1_555 1_555
H18A C20A 1_555 1_555
H19A C20A 1_555 1_555
C21A C15A 1_555 1_555
C22A C21A 1_555 1_555
C23A C22A 1_555 1_555
C24A C23A 1_555 1_555
H20A C24A 1_555 1_555
C25A C24A 1_555 1_555
C26A C21A 1_555 1_555
C27A C26A 1_555 1_555
H21A C27A 1_555 1_555
H22A C27A 1_555 1_555
H23A C27A 1_555 1_555
C28A C25A 1_555 1_555
H24A C28A 1_555 1_555
H25A C28A 1_555 1_555
H26A C28A 1_555 1_555
C29A H27A 1_555 1_555
C30A C29A 1_555 1_555
C31A C30A 1_555 1_555
C32A C31A 1_555 1_555
C33A C32A 1_555 1_555
H28A C33A 1_555 1_555
C34A C33A 1_555 1_555
C35A C30A 1_555 1_555
H29A C35A 1_555 1_555
C36A C34A 1_555 1_555
C37A C32A 1_555 1_555
C38A C37A 1_555 1_555
H30A C38A 1_555 1_555
H31A C38A 1_555 1_555
H32A C38A 1_555 1_555
C39A C37A 1_555 1_555
H33A C39A 1_555 1_555
H34A C39A 1_555 1_555
H35A C39A 1_555 1_555
C40A C37A 1_555 1_555
H36A C40A 1_555 1_555
H37A C40A 1_555 1_555
H38A C40A 1_555 1_555
N3A Zn2A 1_555 1_555
N4A Zn3A 1_555 1_555
O2A Zn3 1_555 1_555
O3A Zn2A 1_555 1_555
O4A Zn1 1_555 1_555
O5A Zn1 1_555 1_555
O6A Zn3A 1_555 1_555
O8A C1A 1_555 1_555
O9A C1A 1_555 1_555
O10A C36A 1_555 1_555
O11A C36A 1_555 1_555
N1C Cd1 1_555 1_555
C61C N1C 1_555 1_555
H58C C61C 1_555 1_555
C62C C61C 1_555 1_555
H59C C62C 1_555 1_555
C63C C62C 1_555 1_555
H60C C63C 1_555 1_555
C64C C63C 1_555 1_555
H61C C64C 1_555 1_555
C65C N1C 1_555 1_555
H62C C65C 1_555 1_555
N2B Cd2 1_555 1_555
C66B N2B 1_555 1_555
H63B C66B 1_555 1_555
C67B C66B 1_555 1_555
H64B C67B 1_555 1_555
C68B C67B 1_555 1_555
H65B C68B 1_555 1_555
C69B C68B 1_555 1_555
H66B C69B 1_555 1_555
C70B N2B 1_555 1_555
H67B C70B 1_555 1_555
Cd1A O8A 1_555 1_555
Cd2A O12A 1_555 1_555
O8C Cd1 1_555 1_555
O9C Cd1 1_555 1_555
O12B Cd2 1_555 1_555
O13B Cd2 1_555 1_555
Zn2 O4 1_555 1_555
Zn2 O5A 1_555 1_555
Zn3 O5 1_555 1_555
Zn4 O1 1_555 1_555
Zn4 O2A 1_555 1_555
Zn4 O4A 1_555 1_555
C1 O8 1_555 1_555
C1 O9 1_555 1_555
C5 O3 1_555 1_555
C6 C7 1_555 1_555
C13 N3 1_555 1_555
C14 O4 1_555 1_555
C22 O5 1_555 1_555
C25 C26 1_555 1_555
C29 N4 1_555 1_555
C31 O6 1_555 1_555
C34 C35 1_555 1_555
C41 O12 1_555 1_555
C41 O13 1_555 1_555
C45 O7 1_555 1_555
C46 C47 1_555 1_555
C53 N5 1_555 1_555
C54 O1 1_555 1_555
C64 C65 1_555 1_555
C69 C70 1_555 1_555
O4 Zn4A 1_555 1_555
C46A C47A 1_555 1_555
C53A N5A 1_555 1_555
C54A O1A 1_555 1_555
C57A C58A 1_555 1_555
N5A Zn4A 1_555 1_555
O1A Zn3A 1_555 1_555
O1A Zn4A 1_555 1_555
O7A Zn4A 1_555 1_555
O13A Cd2A 1_555 1_555
Zn2A O2A 1_555 1_555
Zn2A O4A 1_555 1_555
Zn3A O5A 1_555 1_555
C5A O3A 1_555 1_555
C6A C7A 1_555 1_555
C12A N3A 1_555 1_555
C13A N3A 1_555 1_555
C14A O4A 1_555 1_555
C22A O5A 1_555 1_555
C23A N4A 1_555 1_555
C25A C26A 1_555 1_555
C29A N4A 1_555 1_555
C31A O6A 1_555 1_555
C34A C35A 1_555 1_555
O9A Cd1A 1_555 1_555
C64C C65C 1_555 1_555
C69B C70B 1_555 1_555

#END
