
#######################################################################
#
#                 Cambridge Crystallographic Data Centre
#                                CCDC 
#
#######################################################################
#
# If this CIF has been generated from an entry in the Cambridge 
# Structural Database, then it will include bibliographic, chemical, 
# crystal, experimental, refinement or atomic coordinate data resulting 
# from the CCDC's data processing and validation procedures.
#
#######################################################################

data_FORWUF
_symmetry_cell_setting           triclinic
_symmetry_space_group_name_H-M   'P -1'
_symmetry_Int_Tables_number      2
_space_group_name_Hall           '-P 1'
loop_
_symmetry_equiv_pos_site_id
_symmetry_equiv_pos_as_xyz
1 x,y,z
2 -x,-y,-z
_cell_length_a                   5.0776(3)
_cell_length_b                   12.0535(7)
_cell_length_c                   12.3029(7)
_cell_angle_alpha                61.516(1)
_cell_angle_beta                 85.524(1)
_cell_angle_gamma                89.945(1)
_cell_volume                     659.242
loop_
_atom_site_label
_atom_site_type_symbol
_atom_site_fract_x
_atom_site_fract_y
_atom_site_fract_z
Fe1 Fe 0.4599(2) 0.35758(10) 0.60870(10)
Fe2 Fe 0.9547(2) 0.49905(10) 0.61984(10)
O1 O 0.6478(10) 0.2058(5) 0.7449(5)
O2 O 1.0394(10) 0.3085(5) 0.7045(5)
O3 O 0.1693(10) 0.4943(5) 0.7623(5)
O4 O 0.5733(10) 0.4462(5) 0.7184(5)
O5 O 0.0823(11) 0.3243(5) 0.4141(5)
O6 O 0.4076(10) 0.2374(5) 0.5366(5)
O7 O 0.7543(10) 0.4865(5) 0.4939(5)
C1 C 0.8847(15) 0.2094(7) 0.7645(7)
C2 C 1.0040(15) 0.0973(7) 0.8681(7)
H1 H 1.1837 0.0858 0.8363
C3 C 0.8419(15) -0.0252(7) 0.9171(7)
H2 H 0.8338 -0.0485 0.8503
H3 H 0.6592 -0.0136 0.9432
C4 C 1.0353(16) 0.1317(7) 0.9723(7)
H4 H 1.1487 0.2096 0.9391
H5 H 0.8597 0.1488 1.0007
C5 C 0.4103(14) 0.4830(7) 0.7776(7)
C6 C 0.5194(14) 0.5073(8) 0.8763(7)
H6 H 0.7081 0.5380 0.8489
C7 C 0.3716(18) 0.6058(8) 0.8989(8)
H7 H 0.3869 0.6881 0.8219
H8 H 0.1819 0.5798 0.9218
C8 C 0.5130(19) 0.3809(8) 0.9972(8)
H9 H 0.3278 0.3475 1.0239
H10 H 0.6145 0.3192 0.9813
C9 C 0.2283(14) 0.2334(7) 0.4757(7)
C10 C 0.1756(15) 0.1096(7) 0.4749(7)
H11 H 0.3473 0.0810 0.4533
C11 C -0.0184(16) 0.1179(7) 0.3833(7)
H12 H -0.1869 0.1503 0.4006
H13 H 0.0544 0.1781 0.2979
C12 C 0.0715(17) 0.0112(7) 0.6077(7)
H14 H -0.0940 0.0402 0.6322
H15 H 0.2031 0.0034 0.6660
Fe1A Fe 1.5401(2) -0.35758(10) 1.39130(10)
Fe1_2 Fe 1.4599(2) 0.35758(10) 0.60870(10)
Fe1A_2 Fe 0.5401(2) 0.64242(10) 0.39130(10)
Fe1A_3 Fe 0.5401(2) -0.35758(10) 1.39130(10)
Fe1A_4 Fe 0.5401(2) 0.64242(10) 1.39130(10)
Fe1A_5 Fe -0.4599(2) -0.35758(10) 0.39130(10)
Fe2A Fe 1.0453(2) -0.49905(10) 1.38016(10)
Fe2_2 Fe -0.0453(2) 0.49905(10) 0.61984(10)
Fe2A_2 Fe 0.0453(2) 0.50095(10) 0.38016(10)
Fe2A_3 Fe 1.0453(2) 0.50095(10) 0.38016(10)
Fe2A_4 Fe 1.0453(2) 0.50095(10) 1.38016(10)
Fe2A_5 Fe 0.0453(2) 0.50095(10) 1.38016(10)
Fe2_3 Fe -0.0453(2) -0.50095(10) 0.61984(10)
O1A O 1.3522(10) -0.2058(5) 1.2551(5)
O2A O 0.9606(10) -0.3085(5) 1.2955(5)
O2_2 O 0.0394(10) 0.3085(5) 0.7045(5)
O2A_2 O 1.9606(10) -0.3085(5) 1.2955(5)
O3A O 0.8307(10) 0.5057(5) 1.2377(5)
O3_2 O 1.1693(10) 0.4943(5) 0.7623(5)
O3A_2 O 0.8307(10) -0.4943(5) 1.2377(5)
O4A O 0.4267(10) 0.5538(5) 1.2816(5)
O4A_2 O 1.4267(10) -0.4462(5) 1.2816(5)
O5A O -0.0823(11) -0.3243(5) 0.5859(5)
O5A_2 O 0.9177(11) 0.6757(5) 0.5859(5)
O5_2 O 1.0823(11) -0.6757(5) 1.4141(5)
O6A O -0.4076(10) -0.2374(5) 0.4634(5)
O6A_2 O 1.5924(10) -0.2374(5) 1.4634(5)
O7A O 0.2457(10) 0.5135(5) 0.5061(5)
O7A_2 O 1.2457(10) 0.5135(5) 0.5061(5)
O7A_3 O 1.2457(10) -0.4865(5) 1.5061(5)
O7_2 O 1.7543(10) -0.5135(5) 1.4939(5)
O7_3 O 0.7543(10) -0.5135(5) 1.4939(5)
C1A C 1.1153(15) -0.2094(7) 1.2355(7)
C2A C 0.9960(15) -0.0973(7) 1.1319(7)
H1A H 0.8163 -0.0858 1.1637
C3A C 1.1581(15) 0.0252(7) 1.0829(7)
H2A H 1.1662 0.0485 1.1497
H3A H 1.3408 0.0136 1.0568
C4A C 0.9647(16) -0.1317(7) 1.0277(7)
H4A H 0.8513 -0.2096 1.0609
H5A H 1.1403 -0.1488 0.9993
C5A C 0.5897(14) 0.5170(7) 1.2224(7)
C6A C 0.4806(14) 0.4927(8) 1.1237(7)
H6A H 0.2919 0.4620 1.1511
C7A C 0.6284(18) 0.3942(8) 1.1011(8)
H7A H 0.6131 0.3119 1.1781
H8A H 0.8181 0.4202 1.0782
C8A C 0.4870(19) 0.6191(8) 1.0028(8)
H9A H 0.6722 0.6525 0.9761
H10A H 0.3855 0.6808 1.0187
C9A C -0.2283(14) -0.2334(7) 0.5243(7)
C10A C -0.1756(15) -0.1096(7) 0.5251(7)
H11A H -0.3473 -0.0810 0.5467
C11A C 0.0184(16) -0.1179(7) 0.6167(7)
H12A H 0.1869 -0.1503 0.5994
H13A H -0.0544 -0.1781 0.7021
C12A C -0.0715(17) -0.0112(7) 0.3923(7)
H14A H 0.0940 -0.0402 0.3678
H15A H -0.2031 -0.0034 0.3340
loop_
_geom_bond_atom_site_label_1
_geom_bond_atom_site_label_2
_geom_bond_site_symmetry_1
_geom_bond_site_symmetry_2
Fe1 O1 1_555 1_555
Fe2 O2 1_555 1_555
O1 C1 1_555 1_555
O2 C1 1_555 1_555
O3 C5 1_555 1_555
O4 Fe1 1_555 1_555
O5 C9 1_555 1_555
O6 Fe1 1_555 1_555
O7 Fe1 1_555 1_555
C1 C2 1_555 1_555
C2 H1 1_555 1_555
C3 C2 1_555 1_555
H2 C3 1_555 1_555
H3 C3 1_555 1_555
C4 C2 1_555 1_555
H4 C4 1_555 1_555
H5 C4 1_555 1_555
C5 O4 1_555 1_555
C6 C5 1_555 1_555
H6 C6 1_555 1_555
C7 C6 1_555 1_555
H7 C7 1_555 1_555
H8 C7 1_555 1_555
C8 C6 1_555 1_555
H9 C8 1_555 1_555
H10 C8 1_555 1_555
C9 O6 1_555 1_555
C10 C9 1_555 1_555
H11 C10 1_555 1_555
C11 C10 1_555 1_555
H12 C11 1_555 1_555
H13 C11 1_555 1_555
C12 C10 1_555 1_555
H14 C12 1_555 1_555
H15 C12 1_555 1_555
Fe1A O1A 1_555 1_555
Fe1_2 O2 1_555 1_555
Fe1A_2 O7 1_555 1_555
Fe1A_3 O2A 1_555 1_555
Fe1A_4 O4A 1_555 1_555
Fe1A_5 O6A 1_555 1_555
Fe2A O2A 1_555 1_555
Fe2_2 O3 1_555 1_555
Fe2A_2 O5 1_555 1_555
Fe2A_3 O7 1_555 1_555
Fe2A_4 O3A 1_555 1_555
Fe2A_5 O4A 1_555 1_555
Fe2_3 O5A 1_555 1_555
O1A C1A 1_555 1_555
O2A C1A 1_555 1_555
O2_2 Fe1 1_555 1_555
O2A_2 Fe1A 1_555 1_555
O3A C5A 1_555 1_555
O3_2 Fe2 1_555 1_555
O3A_2 Fe2A 1_555 1_555
O4A C5A 1_555 1_555
O4A_2 Fe1A 1_555 1_555
O5A C9A 1_555 1_555
O5A_2 Fe2 1_555 1_555
O5_2 Fe2A 1_555 1_555
O6A C9A 1_555 1_555
O6A_2 Fe1A 1_555 1_555
O7A Fe1 1_555 1_555
O7A_2 Fe2 1_555 1_555
O7A_3 Fe1A 1_555 1_555
O7_2 Fe1A 1_555 1_555
O7_3 Fe1A_3 1_555 1_555
C1A C2A 1_555 1_555
C2A H1A 1_555 1_555
C3A C4 1_555 1_555
H2A C3A 1_555 1_555
H3A C3A 1_555 1_555
C4A C3 1_555 1_555
H4A C4A 1_555 1_555
H5A C4A 1_555 1_555
C5A C6A 1_555 1_555
C6A H6A 1_555 1_555
C7A C8 1_555 1_555
H7A C7A 1_555 1_555
H8A C7A 1_555 1_555
C8A C7 1_555 1_555
H9A C8A 1_555 1_555
H10A C8A 1_555 1_555
C9A C10A 1_555 1_555
C10A H11A 1_555 1_555
C11A C12 1_555 1_555
H12A C11A 1_555 1_555
H13A C11A 1_555 1_555
C12A C11 1_555 1_555
H14A C12A 1_555 1_555
H15A C12A 1_555 1_555
Fe2 O4 1_555 1_555
Fe2 O7 1_555 1_555
Fe1_2 O7A_2 1_555 1_555
Fe1A_2 O7A 1_555 1_555
Fe2A O4A_2 1_555 1_555
Fe2A O7A_3 1_555 1_555
Fe2A O7_3 1_555 1_555
Fe2_2 O2_2 1_555 1_555
Fe2_2 O7A 1_555 1_555
Fe2A_2 O7A 1_555 1_555
Fe2A_3 O7A_2 1_555 1_555
C2A C3A 1_555 1_555
C2A C4A 1_555 1_555
C6A C7A 1_555 1_555
C6A C8A 1_555 1_555
C10A C11A 1_555 1_555
C10A C12A 1_555 1_555

#END
