
#######################################################################
#
#                 Cambridge Crystallographic Data Centre
#                                CCDC 
#
#######################################################################
#
# If this CIF has been generated from an entry in the Cambridge 
# Structural Database, then it will include bibliographic, chemical, 
# crystal, experimental, refinement or atomic coordinate data resulting 
# from the CCDC's data processing and validation procedures.
#
#######################################################################

data_FORWAL
_symmetry_cell_setting           cubic
_symmetry_space_group_name_H-M   'P 21 3'
_symmetry_Int_Tables_number      198
_space_group_name_Hall           'P 2ac 2ab 3'
loop_
_symmetry_equiv_pos_site_id
_symmetry_equiv_pos_as_xyz
1 x,y,z
2 1/2-x,-y,1/2+z
3 -x,1/2+y,1/2-z
4 1/2+x,1/2-y,-z
5 z,x,y
6 1/2+z,1/2-x,-y
7 1/2-z,-x,1/2+y
8 -z,1/2+x,1/2-y
9 y,z,x
10 -y,1/2+z,1/2-x
11 1/2+y,1/2-z,-x
12 1/2-y,-z,1/2+x
_cell_length_a                   15.6019(14)
_cell_length_b                   15.6019(14)
_cell_length_c                   15.6019(14)
_cell_angle_alpha                90
_cell_angle_beta                 90
_cell_angle_gamma                90
_cell_volume                     3797.8
loop_
_atom_site_label
_atom_site_type_symbol
_atom_site_fract_x
_atom_site_fract_y
_atom_site_fract_z
Fe1 Fe 0.39758(4) 0.60242(4) 1.10242(4)
Na1 Na 0.30217(17) 0.19783(17) 0.80217(17)
C1 C 0.2687(3) 0.5037(3) 1.0115(3)
C2 C 0.2703(4) 0.4073(4) 1.0192(3)
H1 H 0.2121 0.3865 1.0264
H2 H 0.3026 0.3914 1.0698
C3 C 0.3104(5) 0.3640(4) 0.9405(4)
H3 H 0.3709 0.3804 0.9364
C4 C 0.2639(4) 0.3929(4) 0.8601(3)
H4 H 0.2047 0.3722 0.8626
C5 C 0.2626(4) 0.4907(4) 0.8511(4)
H5 H 0.2293 0.5058 0.8000
C6 C 0.2194(4) 0.5307(4) 0.9301(4)
H6 H 0.1604 0.5115 0.9338
H7 H 0.2194 0.5927 0.9250
C7 C 0.2235(4) 0.5406(4) 1.0922(4)
O1 O 0.3527(2) 0.5376(2) 1.0078(2)
H8 H 0.3685 0.5400 0.9577
O2 O 0.2716(3) 0.5840(2) 1.1419(2)
O3 O 0.1465(4) 0.5268(3) 1.1040(4)
O4 O 0.3040(5) 0.2723(3) 0.9439(4)
H9 H 0.3209 0.2553 0.9907
O5 O 0.3059(3) 0.3534(3) 0.7881(3)
H10 H 0.2844 0.3709 0.7435
O6 O 0.3488(3) 0.5231(3) 0.8410(3)
H11 H 0.3689 0.5343 0.8882
Na1B Na 0.69783(17) 0.69783(17) 0.69783(17)
Na1C Na 0.80217(17) 0.30217(17) 1.19783(17)
C1F C 0.4885(3) 0.7313(3) 1.0037(3)
C1I C 0.4963(3) 0.5115(3) 1.2313(3)
C2F C 0.4808(3) 0.7297(4) 0.9073(4)
C2I C 0.5927(4) 0.5192(3) 1.2297(4)
H1F H 0.4736 0.7879 0.8865
H1I H 0.6135 0.5264 1.2879
H2F H 0.4302 0.6974 0.8914
H2I H 0.6086 0.5698 1.1974
C3F C 0.5595(4) 0.6896(5) 0.8640(4)
C3I C 0.6360(4) 0.4405(4) 1.1896(5)
H3F H 0.5636 0.6291 0.8804
H3I H 0.6196 0.4364 1.1291
C4F C 0.6399(3) 0.7361(4) 0.8929(4)
C4I C 0.6071(4) 0.3601(3) 1.2361(4)
H4F H 0.6374 0.7953 0.8722
H4I H 0.6278 0.3626 1.2953
C5F C 0.6489(4) 0.7374(4) 0.9907(4)
C5I C 0.5093(4) 0.3511(4) 1.2374(4)
H5F H 0.7000 0.7707 1.0058
H5I H 0.4942 0.3000 1.2707
C6F C 0.5699(4) 0.7806(4) 1.0307(4)
C6I C 0.4693(4) 0.4301(4) 1.2806(4)
H6F H 0.5662 0.8396 1.0115
H6I H 0.4885 0.4338 1.3396
H7F H 0.5750 0.7806 1.0927
H7I H 0.4073 0.4250 1.2806
C7F C 0.4078(4) 0.7765(4) 1.0406(4)
C7I C 0.4594(4) 0.5922(4) 1.2765(4)
O1F O 0.4922(2) 0.6473(2) 1.0376(2)
O1I O 0.4624(2) 0.5078(2) 1.1473(2)
H8F H 0.5423 0.6315 1.0400
H8I H 0.4600 0.4577 1.1315
O2F O 0.3581(2) 0.7284(3) 1.0840(2)
O2I O 0.4160(2) 0.6419(2) 1.2284(3)
O3F O 0.3960(4) 0.8535(4) 1.0268(3)
O3I O 0.4732(3) 0.6040(4) 1.3535(4)
O4F O 0.5561(4) 0.6960(5) 0.7723(3)
O4I O 0.7277(3) 0.4439(4) 1.1960(5)
O4E O 0.4439(4) 0.1960(5) 0.7277(3)
O4K O 0.2277(3) 0.0561(4) 0.8040(5)
H9F H 0.5093 0.6791 0.7553
H9I H 0.7447 0.4907 1.1791
H9E H 0.4907 0.1791 0.7447
H9K H 0.2447 0.0093 0.8209
O5F O 0.7119(3) 0.6941(3) 0.8534(3)
O5I O 0.6466(3) 0.2881(3) 1.1941(3)
O5E O 0.2881(3) 0.1941(3) 0.6466(3)
O5K O 0.1466(3) 0.2119(3) 0.8059(3)
H10F H 0.7565 0.7156 0.8709
H10I H 0.6291 0.2435 1.2156
H10E H 0.2435 0.2156 0.6291
H10K H 0.1291 0.2565 0.7844
O6F O 0.6590(3) 0.6512(3) 1.0231(3)
O6I O 0.4769(3) 0.3410(3) 1.1512(3)
H11F H 0.6118 0.6311 1.0343
H11I H 0.4657 0.3882 1.1311
O7 O 0.3636(7) 0.2123(6) 0.1076(9)
O8 O 0.7995(6) 0.7005(6) 0.2995(6)
O9 O 0.9704(5) 0.5296(5) 0.4704(5)
O10 O 0.8731(16) 0.7019(14) 0.5112(16)
O11 O 0.8894(4) 0.6106(4) 0.3894(4)
loop_
_geom_bond_atom_site_label_1
_geom_bond_atom_site_label_2
_geom_bond_site_symmetry_1
_geom_bond_site_symmetry_2
Fe1 O1 1_555 1_555
Na1 O4 1_555 1_555
C1 C2 1_555 1_555
C2 H1 1_555 1_555
H2 C2 1_555 1_555
C3 C2 1_555 1_555
H3 C3 1_555 1_555
C4 C3 1_555 1_555
H4 C4 1_555 1_555
C5 C4 1_555 1_555
H5 C5 1_555 1_555
C6 C1 1_555 1_555
H6 C6 1_555 1_555
H7 C6 1_555 1_555
C7 C1 1_555 1_555
O1 C1 1_555 1_555
H8 O1 1_555 1_555
O2 Fe1 1_555 1_555
O3 C7 1_555 1_555
O4 C3 1_555 1_555
H9 O4 1_555 1_555
O5 Na1 1_555 1_555
H10 O5 1_555 1_555
O6 C5 1_555 1_555
H11 O6 1_555 1_555
Na1B O4F 1_555 1_555
Na1C O4I 1_555 1_555
C1F C2F 1_555 1_555
C1I C2I 1_555 1_555
C2F H1F 1_555 1_555
C2I H1I 1_555 1_555
H2F C2F 1_555 1_555
H2I C2I 1_555 1_555
C3F C2F 1_555 1_555
C3I C2I 1_555 1_555
H3F C3F 1_555 1_555
H3I C3I 1_555 1_555
C4F C3F 1_555 1_555
C4I C3I 1_555 1_555
H4F C4F 1_555 1_555
H4I C4I 1_555 1_555
C5F C4F 1_555 1_555
C5I C4I 1_555 1_555
H5F C5F 1_555 1_555
H5I C5I 1_555 1_555
C6F C1F 1_555 1_555
C6I C1I 1_555 1_555
H6F C6F 1_555 1_555
H6I C6I 1_555 1_555
H7F C6F 1_555 1_555
H7I C6I 1_555 1_555
C7F C1F 1_555 1_555
C7I C1I 1_555 1_555
O1F Fe1 1_555 1_555
O1I Fe1 1_555 1_555
H8F O1F 1_555 1_555
H8I O1I 1_555 1_555
O2F Fe1 1_555 1_555
O2I Fe1 1_555 1_555
O3F C7F 1_555 1_555
O3I C7I 1_555 1_555
O4F C3F 1_555 1_555
O4I C3I 1_555 1_555
O4E Na1 1_555 1_555
O4K Na1 1_555 1_555
H9F O4F 1_555 1_555
H9I O4I 1_555 1_555
H9E O4E 1_555 1_555
H9K O4K 1_555 1_555
O5F Na1B 1_555 1_555
O5I Na1C 1_555 1_555
O5E Na1 1_555 1_555
O5K Na1 1_555 1_555
H10F O5F 1_555 1_555
H10I O5I 1_555 1_555
H10E O5E 1_555 1_555
H10K O5K 1_555 1_555
O6F C5F 1_555 1_555
O6I C5I 1_555 1_555
H11F O6F 1_555 1_555
H11I O6I 1_555 1_555
C4 O5 1_555 1_555
C5 C6 1_555 1_555
C7 O2 1_555 1_555
C1F O1F 1_555 1_555
C1I O1I 1_555 1_555
C4F O5F 1_555 1_555
C4I O5I 1_555 1_555
C5F C6F 1_555 1_555
C5I C6I 1_555 1_555
C7F O2F 1_555 1_555
C7I O2I 1_555 1_555

#END
