
#######################################################################
#
#                 Cambridge Crystallographic Data Centre
#                                CCDC 
#
#######################################################################
#
# If this CIF has been generated from an entry in the Cambridge 
# Structural Database, then it will include bibliographic, chemical, 
# crystal, experimental, refinement or atomic coordinate data resulting 
# from the CCDC's data processing and validation procedures.
#
#######################################################################

data_FORZIW
_symmetry_cell_setting           orthorhombic
_symmetry_space_group_name_H-M   'C c c a'
_symmetry_Int_Tables_number      68
_space_group_name_Hall           '-C 2b 2bc'
loop_
_symmetry_equiv_pos_site_id
_symmetry_equiv_pos_as_xyz
1 x,y,z
2 1/2-x,-y,z
3 1/2+x,-y,1/2-z
4 -x,y,1/2-z
5 1/2+x,1/2+y,z
6 -x,1/2-y,z
7 x,1/2-y,1/2-z
8 1/2-x,1/2+y,1/2-z
9 -x,-y,-z
10 1/2+x,y,-z
11 1/2-x,y,1/2+z
12 x,-y,1/2+z
13 1/2-x,1/2-y,-z
14 x,1/2+y,-z
15 -x,1/2+y,1/2+z
16 1/2+x,1/2-y,1/2+z
_cell_length_a                   10.831(2)
_cell_length_b                   28.157(6)
_cell_length_c                   25.489(5)
_cell_angle_alpha                90
_cell_angle_beta                 90
_cell_angle_gamma                90
_cell_volume                     7773.34
loop_
_atom_site_label
_atom_site_type_symbol
_atom_site_fract_x
_atom_site_fract_y
_atom_site_fract_z
Sb1 Sb 0.12057(7) 0.10918(3) 0.14366(3)
Br2 Br -0.09505(12) 0.08795(4) 0.09471(6)
Br3 Br 0.33531(13) 0.15321(6) 0.18101(6)
Br4 Br 0.2500 0.0000 0.12376(13)
S1 S 0.0490(3) 0.19114(9) 0.16823(12)
Br5 Br 0.0000 0.08778(18) 0.2500
S2 S 0.2108(4) 0.14169(11) 0.05728(12)
C1 C 0.1396(13) 0.1082(4) 0.0097(4)
N1 N -0.1452(10) 0.2083(3) 0.1054(4)
H1 H -0.0880 0.2136 0.0816
N2 N 0.0678(12) 0.1291(4) -0.0260(5)
C2 C 0.1547(13) 0.0584(4) 0.0066(5)
H2 H 0.2005 0.0425 0.0331
C3 C -0.1086(11) 0.1929(4) 0.1549(5)
C4 C -0.3217(12) 0.1915(5) 0.1778(5)
H3 H -0.3847 0.1849 0.2027
C5 C -0.2616(13) 0.2155(4) 0.0926(5)
H4 H -0.2815 0.2264 0.0583
C6 C -0.3533(13) 0.2076(4) 0.1279(5)
H5 H -0.4372 0.2130 0.1188
C7 C -0.1999(12) 0.1850(4) 0.1913(5)
H6 H -0.1789 0.1751 0.2258
C8 C 0.0158(16) 0.1040(8) -0.0657(7)
H7 H -0.0332 0.1196 -0.0913
C9 C 0.0347(16) 0.0545(8) -0.0687(7)
H8 H -0.0027 0.0366 -0.0960
C10 C 0.1061(15) 0.0329(6) -0.0327(7)
H9 H 0.1219 -0.0002 -0.0351
Sb1A Sb 0.37943(7) -0.10918(3) 0.14366(3)
Sb1C Sb -0.12057(7) 0.10918(3) 0.35634(3)
Br2A Br 0.59505(12) -0.08795(4) 0.09471(6)
Br3A Br 0.16469(13) -0.15321(6) 0.18101(6)
S1A S 0.4510(3) -0.19114(9) 0.16823(12)
Br5A Br 0.5000 -0.08778(18) 0.2500
S2A S 0.2892(4) -0.14169(11) 0.05728(12)
C1A C 0.3604(13) -0.1082(4) 0.0097(4)
N1A N 0.6452(10) -0.2083(3) 0.1054(4)
H1A H 0.5880 -0.2136 0.0816
N2A N 0.4322(12) -0.1291(4) -0.0260(5)
C2A C 0.3453(13) -0.0584(4) 0.0066(5)
H2A H 0.2995 -0.0425 0.0331
C3A C 0.6086(11) -0.1929(4) 0.1549(5)
C4A C 0.8217(12) -0.1915(5) 0.1778(5)
H3A H 0.8847 -0.1849 0.2027
C5A C 0.7616(13) -0.2155(4) 0.0926(5)
H4A H 0.7815 -0.2264 0.0583
C6A C 0.8533(13) -0.2076(4) 0.1279(5)
H5A H 0.9372 -0.2130 0.1188
C7A C 0.6999(12) -0.1850(4) 0.1913(5)
H6A H 0.6789 -0.1751 0.2258
C8A C 0.4842(16) -0.1040(8) -0.0657(7)
H7A H 0.5332 -0.1196 -0.0913
C9A C 0.4653(16) -0.0545(8) -0.0687(7)
H8A H 0.5027 -0.0366 -0.0960
C10A C 0.3939(15) -0.0329(6) -0.0327(7)
H9A H 0.3781 0.0002 -0.0351
Br1 Br 0.0000 0.2500 0.00073(7)
loop_
_geom_bond_atom_site_label_1
_geom_bond_atom_site_label_2
_geom_bond_site_symmetry_1
_geom_bond_site_symmetry_2
Sb1 Br2 1_555 1_555
Br3 Sb1 1_555 1_555
Br4 Sb1 1_555 1_555
S1 Sb1 1_555 1_555
Br5 Sb1 1_555 1_555
S2 Sb1 1_555 1_555
C1 S2 1_555 1_555
N1 H1 1_555 1_555
N2 C1 1_555 1_555
C2 C1 1_555 1_555
H2 C2 1_555 1_555
C3 S1 1_555 1_555
C4 H3 1_555 1_555
C5 N1 1_555 1_555
H4 C5 1_555 1_555
C6 C4 1_555 1_555
H5 C6 1_555 1_555
C7 C3 1_555 1_555
H6 C7 1_555 1_555
C8 N2 1_555 1_555
H7 C8 1_555 1_555
C9 C8 1_555 1_555
H8 C9 1_555 1_555
C10 C2 1_555 1_555
H9 C10 1_555 1_555
Sb1A Br4 1_555 1_555
Sb1C Br5 1_555 1_555
Br2A Sb1A 1_555 1_555
Br3A Sb1A 1_555 1_555
S1A Sb1A 1_555 1_555
Br5A Sb1A 1_555 1_555
S2A Sb1A 1_555 1_555
C1A S2A 1_555 1_555
N1A H1A 1_555 1_555
N2A C1A 1_555 1_555
C2A C1A 1_555 1_555
H2A C2A 1_555 1_555
C3A S1A 1_555 1_555
C4A H3A 1_555 1_555
C5A N1A 1_555 1_555
H4A C5A 1_555 1_555
C6A C4A 1_555 1_555
H5A C6A 1_555 1_555
C7A C3A 1_555 1_555
H6A C7A 1_555 1_555
C8A N2A 1_555 1_555
H7A C8A 1_555 1_555
C9A C8A 1_555 1_555
H8A C9A 1_555 1_555
C10A C2A 1_555 1_555
H9A C10A 1_555 1_555
N1 C3 1_555 1_555
C4 C7 1_555 1_555
C5 C6 1_555 1_555
C9 C10 1_555 1_555
N1A C3A 1_555 1_555
C4A C7A 1_555 1_555
C5A C6A 1_555 1_555
C9A C10A 1_555 1_555

#END
