
#######################################################################
#
#                 Cambridge Crystallographic Data Centre
#                                CCDC 
#
#######################################################################
#
# If this CIF has been generated from an entry in the Cambridge 
# Structural Database, then it will include bibliographic, chemical, 
# crystal, experimental, refinement or atomic coordinate data resulting 
# from the CCDC's data processing and validation procedures.
#
#######################################################################

data_FOSQAG
_symmetry_cell_setting           monoclinic
_symmetry_space_group_name_H-M   'C 2/c'
_symmetry_Int_Tables_number      15
_space_group_name_Hall           '-C 2yn'
loop_
_symmetry_equiv_pos_site_id
_symmetry_equiv_pos_as_xyz
1 x,y,z
2 -x,y,1/2-z
3 1/2+x,1/2+y,z
4 1/2-x,1/2+y,1/2-z
5 -x,-y,-z
6 x,-y,1/2+z
7 1/2-x,1/2-y,-z
8 1/2+x,1/2-y,1/2+z
_cell_length_a                   33.554(15)
_cell_length_b                   11.965(4)
_cell_length_c                   14.577(5)
_cell_angle_alpha                90
_cell_angle_beta                 115.300(4)
_cell_angle_gamma                90
_cell_volume                     5290.94
loop_
_atom_site_label
_atom_site_type_symbol
_atom_site_fract_x
_atom_site_fract_y
_atom_site_fract_z
S1 S 0.188446(13) 0.72746(3) 0.00094(3)
S2 S 0.183380(13) 1.21343(3) 0.03387(3)
O1 O 0.19433(4) 1.21431(10) -0.05195(11)
O2 O 0.19005(4) 0.84901(10) 0.00182(10)
O3 O 0.21454(4) 0.67952(11) 0.10030(10)
O4 O 0.19883(4) 0.68028(10) -0.07857(10)
C1 C 0.12704(5) 1.17649(13) -0.01412(13)
N1 N -0.00703(5) 1.09654(12) -0.13057(13)
O5 O 0.20778(4) 1.12835(10) 0.10840(10)
C2 C -0.14984(5) 0.91515(14) -0.25529(13)
O6 O 0.18698(4) 1.32354(10) 0.07842(12)
C3 C 0.10786(6) 0.75651(14) 0.00318(17)
C4 C -0.08244(6) 0.54536(15) -0.13500(15)
C5 C 0.09562(6) 1.25883(14) -0.03354(16)
C6 C -0.05352(5) 0.48025(13) -0.15795(14)
N2 N -0.18753(5) 0.39708(14) -0.27431(15)
C7 C 0.03929(5) 1.11856(14) -0.09178(14)
C8 C -0.11313(6) 0.35533(14) -0.25341(15)
N3 N -0.01644(5) 0.99584(13) -0.13871(14)
N4 N -0.19655(5) 0.88420(14) -0.29674(13)
N5 N -0.00874(5) 0.50683(12) -0.13028(12)
N6 N 0.00258(5) 0.60324(12) -0.09496(13)
C9 C 0.13308(5) 0.69038(13) -0.02946(13)
C10 C 0.07081(6) 1.03684(14) -0.07464(17)
C11 C 0.11601(6) 0.59257(15) -0.08231(16)
C12 C -0.09452(6) 1.05580(15) -0.19784(16)
C13 C -0.06254(6) 0.97358(14) -0.17771(15)
C14 C -0.14219(5) 0.42103(14) -0.23221(14)
C15 C 0.07332(6) 0.56163(15) -0.10338(16)
C16 C -0.06884(6) 0.38377(13) -0.21525(15)
C17 C 0.11489(6) 1.06505(14) -0.03581(16)
C18 C 0.05144(6) 1.22960(15) -0.07252(17)
C19 C -0.13837(6) 1.02607(15) -0.23686(17)
C20 C 0.04749(5) 0.62859(13) -0.07268(14)
C21 C 0.06471(6) 0.72644(14) -0.01950(17)
C22 C -0.07452(6) 0.86245(15) -0.19540(18)
C23 C -0.12617(6) 0.51555(15) -0.17044(16)
C24 C -0.11876(6) 0.83284(15) -0.23548(17)
Na1 Na 0.25390(2) 0.96306(6) 0.09801(6)
O7 O 0.24623(5) 1.04133(11) -0.05599(11)
O8 O 0.24350(8) 0.87622(17) 0.23034(14)
H1 H -0.1242(7) 0.2884(16) -0.2960(17)
H2 H 0.1042(7) 1.3345(18) -0.0201(17)
H3 H -0.0497(7) 0.3394(17) -0.2344(17)
H4 H -0.2051(7) 0.8778(17) -0.2444(19)
H5 H 0.0490(9) 0.7685(19) 0.006(2)
H6 H 0.0288(9) 1.284(2) -0.087(2)
H7 H 0.1320(8) 0.5464(18) -0.1101(19)
H8 H 0.1370(9) 1.008(2) -0.017(2)
H9 H -0.0544(8) 0.8025(18) -0.1811(19)
H10 H -0.1457(8) 0.5617(19) -0.1538(19)
H11 H -0.0865(7) 1.1303(18) -0.1836(17)
H12 H -0.0726(6) 0.6103(16) -0.0965(16)
H13 H -0.1603(8) 1.0779(19) -0.2499(19)
H14 H 0.0619(8) 0.9614(19) -0.091(2)
H15 H -0.1964(8) 0.399(2) -0.226(2)
H16 H 0.1204(7) 0.8233(18) 0.0437(18)
H17 H -0.1268(8) 0.7562(18) -0.253(2)
H18 H 0.2309(8) 1.101(2) -0.0629(17)
H19 H 0.0594(9) 0.496(2) -0.146(2)
H20 H -0.1940(8) 0.334(2) -0.311(2)
H21 H 0.2691(9) 1.067(2) -0.055(2)
H22 H 0.2673(9) 0.849(2) 0.261(2)
H23 H -0.2158(9) 0.937(2) -0.345(2)
H24 H -0.2002(8) 0.820(2) -0.328(2)
H25 H 0.2348(13) 0.807(3) 0.207(3)
O4F O 0.30117(4) 0.81972(10) 0.07857(10)
N2G N 0.31247(5) 1.10292(14) 0.22569(15)
Na1F Na 0.24610(2) 0.53694(6) -0.09801(6)
Na1G Na -0.24610(2) 0.53694(6) -0.40199(6)
H15G H 0.3036(8) 1.101(2) 0.274(2)
H20G H 0.3060(8) 1.166(2) 0.189(2)
loop_
_geom_bond_atom_site_label_1
_geom_bond_atom_site_label_2
_geom_bond_site_symmetry_1
_geom_bond_site_symmetry_2
S1 O2 1_555 1_555
S2 O1 1_555 1_555
O2 Na1 1_555 1_555
O3 S1 1_555 1_555
O4 S1 1_555 1_555
C1 S2 1_555 1_555
N1 C7 1_555 1_555
O5 S2 1_555 1_555
C2 N4 1_555 1_555
O6 S2 1_555 1_555
C3 C9 1_555 1_555
C4 C6 1_555 1_555
C5 C1 1_555 1_555
C6 N5 1_555 1_555
N2 C14 1_555 1_555
C7 C10 1_555 1_555
C8 C14 1_555 1_555
N3 N1 1_555 1_555
N4 H4 1_555 1_555
N5 N6 1_555 1_555
N6 C20 1_555 1_555
C9 S1 1_555 1_555
C10 C17 1_555 1_555
C11 C9 1_555 1_555
C12 C13 1_555 1_555
C13 N3 1_555 1_555
C14 C23 1_555 1_555
C15 C11 1_555 1_555
C16 C6 1_555 1_555
C17 C1 1_555 1_555
C18 C5 1_555 1_555
C19 C2 1_555 1_555
C20 C15 1_555 1_555
C21 C3 1_555 1_555
C22 C13 1_555 1_555
C23 C4 1_555 1_555
C24 C2 1_555 1_555
Na1 O5 1_555 1_555
O7 Na1 1_555 1_555
O8 Na1 1_555 1_555
H1 C8 1_555 1_555
H2 C5 1_555 1_555
H3 C16 1_555 1_555
H5 C21 1_555 1_555
H6 C18 1_555 1_555
H7 C11 1_555 1_555
H8 C17 1_555 1_555
H9 C22 1_555 1_555
H10 C23 1_555 1_555
H11 C12 1_555 1_555
H12 C4 1_555 1_555
H13 C19 1_555 1_555
H14 C10 1_555 1_555
H15 N2 1_555 1_555
H16 C3 1_555 1_555
H17 C24 1_555 1_555
H18 O7 1_555 1_555
H19 C15 1_555 1_555
H20 N2 1_555 1_555
H21 O7 1_555 1_555
H22 O8 1_555 1_555
H23 N4 1_555 1_555
H24 N4 1_555 1_555
H25 O8 1_555 1_555
O4F Na1 1_555 1_555
N2G Na1 1_555 1_555
Na1F O4 1_555 1_555
Na1G N2 1_555 1_555
H15G N2G 1_555 1_555
H20G N2G 1_555 1_555
C7 C18 1_555 1_555
C8 C16 1_555 1_555
C12 C19 1_555 1_555
C20 C21 1_555 1_555
C22 C24 1_555 1_555

#END
