
#######################################################################
#
#                 Cambridge Crystallographic Data Centre
#                                CCDC 
#
#######################################################################
#
# If this CIF has been generated from an entry in the Cambridge 
# Structural Database, then it will include bibliographic, chemical, 
# crystal, experimental, refinement or atomic coordinate data resulting 
# from the CCDC's data processing and validation procedures.
#
#######################################################################

data_FOTMEI
_symmetry_cell_setting           monoclinic
_symmetry_space_group_name_H-M   'P 21/c'
_symmetry_Int_Tables_number      14
_space_group_name_Hall           '-P 2ybc'
loop_
_symmetry_equiv_pos_site_id
_symmetry_equiv_pos_as_xyz
1 x,y,z
2 -x,1/2+y,1/2-z
3 -x,-y,-z
4 x,1/2-y,1/2+z
_cell_length_a                   19.3369(17)
_cell_length_b                   9.6650(8)
_cell_length_c                   19.1501(18)
_cell_angle_alpha                90
_cell_angle_beta                 90.7050(10)
_cell_angle_gamma                90
_cell_volume                     3578.71
loop_
_atom_site_label
_atom_site_type_symbol
_atom_site_fract_x
_atom_site_fract_y
_atom_site_fract_z
Mn1 Mn 0.24613(4) 0.62147(8) 0.71833(4)
N1 N 0.3083(2) 0.7983(5) 0.7648(2)
N2 N 0.1709(2) 0.8052(5) 0.7346(2)
N3 N 0.1685(2) 0.5307(5) 0.6415(2)
N4 N 0.2690(2) 0.7163(5) 0.6098(2)
O1 O 0.4534(2) 0.6146(5) 0.6319(2)
O2 O 0.4620(2) 0.6460(5) 0.5169(2)
O3 O 0.33368(19) 0.4924(4) 0.72288(19)
O4 O 0.4179(2) 0.3401(4) 0.7114(2)
O5 O 0.0417(3) -0.1816(6) 0.5206(3)
O6 O 0.0326(2) -0.1368(5) 0.4090(3)
H1 H 0.0513 -0.0863 0.3805
O7 O 0.1039(2) -0.0280(6) 0.3194(2)
O8 O 0.2174(2) -0.0261(4) 0.31605(19)
C1 C 0.4380(3) 0.5848(6) 0.5699(3)
C2 C 0.3709(3) 0.4145(6) 0.6869(3)
C3 C 0.3850(3) 0.4742(6) 0.5559(3)
C4 C 0.3544(3) 0.3978(5) 0.6100(3)
C5 C 0.3052(3) 0.2993(6) 0.5932(3)
H2 H 0.2855 0.2485 0.6291
C6 C 0.2838(3) 0.2730(6) 0.5250(3)
C7 C 0.3144(3) 0.3512(6) 0.4728(3)
H3 H 0.3009 0.3372 0.4265
C8 C 0.3638(3) 0.4486(6) 0.4879(3)
H4 H 0.3835 0.4984 0.4517
C9 C 0.0624(3) -0.1213(7) 0.4701(4)
C10 C 0.1617(3) -0.0152(6) 0.3480(3)
C11 C 0.1222(3) -0.0209(6) 0.4774(3)
C12 C 0.1664(3) 0.0262(6) 0.4239(3)
C13 C 0.2190(3) 0.1167(5) 0.4420(3)
H5 H 0.2492 0.1442 0.4073
C14 C 0.2295(3) 0.1689(6) 0.5088(3)
C15 C 0.1854(3) 0.1201(7) 0.5602(3)
H6 H 0.1907 0.1513 0.6059
C16 C 0.1342(3) 0.0270(7) 0.5445(3)
H7 H 0.1065 -0.0054 0.5804
C17 C 0.3745(3) 0.7934(7) 0.7813(3)
H8 H 0.3968 0.7082 0.7812
C18 C 0.4124(4) 0.9109(9) 0.7989(4)
H9 H 0.4590 0.9034 0.8111
C19 C 0.3816(4) 1.0350(8) 0.7983(4)
H10 H 0.4069 1.1142 0.8090
C20 C 0.3113(4) 1.0452(6) 0.7817(3)
C21 C 0.2759(3) 0.9220(6) 0.7657(3)
C22 C 0.2028(3) 0.9264(6) 0.7504(3)
C23 C 0.1671(4) 1.0524(6) 0.7548(3)
C24 C 0.0957(4) 1.0484(8) 0.7427(3)
H11 H 0.0699 1.1293 0.7458
C25 C 0.0639(4) 0.9276(8) 0.7265(3)
H12 H 0.0164 0.9247 0.7185
C26 C 0.1035(3) 0.8083(7) 0.7223(3)
H13 H 0.0815 0.7261 0.7100
C27 C 0.2737(5) 1.1721(7) 0.7828(3)
H14 H 0.2970 1.2542 0.7923
C28 C 0.2062(5) 1.1749(7) 0.7705(3)
H15 H 0.1833 1.2594 0.7722
C29 C 0.1182(3) 0.4446(7) 0.6571(4)
H16 H 0.1130 0.4196 0.7036
C30 C 0.0732(4) 0.3896(8) 0.6088(5)
H17 H 0.0376 0.3314 0.6226
C31 C 0.0813(4) 0.4212(9) 0.5408(5)
H18 H 0.0519 0.3825 0.5073
C32 C 0.1338(4) 0.5119(8) 0.5202(3)
C33 C 0.1770(3) 0.5661(6) 0.5737(3)
C34 C 0.2299(3) 0.6651(6) 0.5560(3)
C35 C 0.2388(4) 0.7058(8) 0.4867(3)
C36 C 0.2905(4) 0.8027(9) 0.4738(4)
H19 H 0.2987 0.8308 0.4282
C37 C 0.3290(4) 0.8564(8) 0.5265(4)
H20 H 0.3630 0.9222 0.5180
C38 C 0.3162(3) 0.8103(7) 0.5939(3)
H21 H 0.3424 0.8479 0.6302
C39 C 0.1457(5) 0.5547(10) 0.4493(4)
H22 H 0.1185 0.5178 0.4134
C40 C 0.1946(5) 0.6456(10) 0.4342(4)
H23 H 0.2004 0.6713 0.3878
Mn1C Mn 0.24613(4) -0.12147(8) 0.21833(4)
O8C O 0.2174(2) 0.5261(4) 0.81605(19)
O9 O 0.4828(4) 0.3548(7) 0.8390(3)
H24 H 0.4598 0.3806 0.8032
H25 H 0.4933 0.2702 0.8334
O10 O 0.5412(3) 0.8810(7) 0.5100(3)
H26 H 0.5181 0.8083 0.5008
H27 H 0.5411 0.8925 0.5540
O11 O 0.4501(5) 0.1026(9) 0.6324(4)
H29 H 0.4446 0.1642 0.6636
H30 H 0.4711 0.0340 0.6505
O12 O 0.9598(5) 0.7255(9) 0.6301(4)
H31 H 0.9856 0.7468 0.5962
H32 H 0.9416 0.7992 0.6456
O13 O 0.3863(12) 0.472(2) 0.8714(9)
H33 H 0.3666 0.4845 0.8320
H34 H 0.4237 0.4283 0.8648
H28? H 0.5216 0.9499 0.4905
loop_
_geom_bond_atom_site_label_1
_geom_bond_atom_site_label_2
_geom_bond_site_symmetry_1
_geom_bond_site_symmetry_2
Mn1 N1 1_555 1_555
N1 C17 1_555 1_555
N2 Mn1 1_555 1_555
N3 Mn1 1_555 1_555
N4 Mn1 1_555 1_555
O1 C1 1_555 1_555
O2 C1 1_555 1_555
O3 Mn1 1_555 1_555
O4 C2 1_555 1_555
O5 C9 1_555 1_555
O6 H1 1_555 1_555
O7 C10 1_555 1_555
O8 C10 1_555 1_555
C1 C3 1_555 1_555
C2 O3 1_555 1_555
C3 C4 1_555 1_555
C4 C2 1_555 1_555
C5 C4 1_555 1_555
H2 C5 1_555 1_555
C6 C5 1_555 1_555
C7 C6 1_555 1_555
H3 C7 1_555 1_555
C8 C3 1_555 1_555
H4 C8 1_555 1_555
C9 O6 1_555 1_555
C10 C12 1_555 1_555
C11 C9 1_555 1_555
C12 C11 1_555 1_555
C13 C12 1_555 1_555
H5 C13 1_555 1_555
C14 C6 1_555 1_555
C15 C14 1_555 1_555
H6 C15 1_555 1_555
C16 C11 1_555 1_555
H7 C16 1_555 1_555
C17 H8 1_555 1_555
C18 C17 1_555 1_555
H9 C18 1_555 1_555
C19 C18 1_555 1_555
H10 C19 1_555 1_555
C20 C19 1_555 1_555
C21 N1 1_555 1_555
C22 N2 1_555 1_555
C23 C22 1_555 1_555
C24 C23 1_555 1_555
H11 C24 1_555 1_555
C25 C24 1_555 1_555
H12 C25 1_555 1_555
C26 N2 1_555 1_555
H13 C26 1_555 1_555
C27 C20 1_555 1_555
H14 C27 1_555 1_555
C28 C23 1_555 1_555
H15 C28 1_555 1_555
C29 N3 1_555 1_555
H16 C29 1_555 1_555
C30 C29 1_555 1_555
H17 C30 1_555 1_555
C31 C30 1_555 1_555
H18 C31 1_555 1_555
C32 C31 1_555 1_555
C33 N3 1_555 1_555
C34 N4 1_555 1_555
C35 C34 1_555 1_555
C36 C35 1_555 1_555
H19 C36 1_555 1_555
C37 C36 1_555 1_555
H20 C37 1_555 1_555
C38 N4 1_555 1_555
H21 C38 1_555 1_555
C39 C32 1_555 1_555
H22 C39 1_555 1_555
C40 C35 1_555 1_555
H23 C40 1_555 1_555
O9 H24 1_555 1_555
H25 O9 1_555 1_555
O10 H26 1_555 1_555
H27 O10 1_555 1_555
O11 H29 1_555 1_555
H30 O11 1_555 1_555
O12 H31 1_555 1_555
H32 O12 1_555 1_555
O13 H33 1_555 1_555
H34 O13 1_555 1_555
Mn1C O8 1_555 1_555
O8C Mn1 1_555 1_555
C7 C8 1_555 1_555
C13 C14 1_555 1_555
C15 C16 1_555 1_555
C20 C21 1_555 1_555
C21 C22 1_555 1_555
C25 C26 1_555 1_555
C27 C28 1_555 1_555
C32 C33 1_555 1_555
C33 C34 1_555 1_555
C37 C38 1_555 1_555
C39 C40 1_555 1_555

#END
