
#######################################################################
#
#                 Cambridge Crystallographic Data Centre
#                                CCDC 
#
#######################################################################
#
# If this CIF has been generated from an entry in the Cambridge 
# Structural Database, then it will include bibliographic, chemical, 
# crystal, experimental, refinement or atomic coordinate data resulting 
# from the CCDC's data processing and validation procedures.
#
#######################################################################

data_FOTNEJ
_symmetry_cell_setting           triclinic
_symmetry_space_group_name_H-M   'P -1'
_symmetry_Int_Tables_number      2
_space_group_name_Hall           '-P 1'
loop_
_symmetry_equiv_pos_site_id
_symmetry_equiv_pos_as_xyz
1 x,y,z
2 -x,-y,-z
_cell_length_a                   7.945(3)
_cell_length_b                   13.041(6)
_cell_length_c                   14.175(6)
_cell_angle_alpha                101.571(5)
_cell_angle_beta                 96.456(5)
_cell_angle_gamma                104.162(5)
_cell_volume                     1374.79
loop_
_atom_site_label
_atom_site_type_symbol
_atom_site_fract_x
_atom_site_fract_y
_atom_site_fract_z
C1 C 0.5059(9) 0.7882(5) 0.5527(4)
H1 H 0.5565 0.8645 0.5636
C2 C 0.4902(9) 0.7233(6) 0.4604(5)
H2 H 0.5324 0.7536 0.4091
C3 C 0.4117(9) 0.6132(6) 0.4450(4)
H3 H 0.3943 0.5667 0.3818
C4 C 0.3580(8) 0.5711(6) 0.5228(4)
H4 H 0.3078 0.4951 0.5138
C5 C 0.3786(8) 0.6413(5) 0.6140(4)
C6 C 0.3280(8) 0.6009(5) 0.6999(4)
C7 C 0.2381(8) 0.4845(5) 0.6869(4)
C8 C 0.0860(8) 0.4338(5) 0.6174(4)
H5 H 0.0348 0.4762 0.5818
C9 C 0.0080(9) 0.3225(6) 0.5992(5)
H6 H -0.0966 0.2896 0.5524
C10 C 0.0840(10) 0.2595(6) 0.6498(5)
H7 H 0.0337 0.1830 0.6365
C11 C 0.2340(9) 0.3095(6) 0.7201(5)
H8 H 0.2841 0.2671 0.7563
C12 C 0.3118(9) 0.4211(6) 0.7382(5)
H9 H 0.4155 0.4541 0.7858
C13 C 0.8551(8) 0.8459(6) 0.9326(5)
H10 H 0.9068 0.8961 0.8968
C14 C 0.9635(9) 0.8205(6) 1.0023(5)
H11 H 1.0867 0.8541 1.0149
C15 C 0.8917(9) 0.7463(6) 1.0533(5)
H12 H 0.9637 0.7245 1.0993
C16 C 0.7108(9) 0.7047(6) 1.0350(5)
H13 H 0.6563 0.6560 1.0713
C17 C 0.6077(7) 0.7329(5) 0.9647(4)
C18 C 0.4147(8) 0.6781(5) 0.9454(4)
C19 C 0.3351(8) 0.6536(5) 1.0307(4)
C20 C 0.3683(9) 0.7327(6) 1.1174(5)
H14 H 0.4387 0.8044 1.1222
C21 C 0.2962(10) 0.7049(6) 1.1977(5)
H15 H 0.3165 0.7586 1.2571
C22 C 0.1964(9) 0.6006(7) 1.1916(5)
H16 H 0.1497 0.5823 1.2468
C23 C 0.1644(10) 0.5228(7) 1.1048(5)
H17 H 0.0956 0.4508 1.1005
C24 C 0.2318(9) 0.5491(6) 1.0242(5)
H18 H 0.2074 0.4955 0.9644
Hg1 Hg 0.52387(3) 0.860415(19) 0.787281(16)
Hg2 Hg 1.04953(4) 0.88667(2) 0.677778(19)
I1 I 0.30768(5) 0.96844(4) 0.87294(3)
I2 I 0.80559(5) 1.01132(3) 0.74562(3)
I3 I 0.89120(6) 0.68340(4) 0.68379(3)
I4 I 1.24967(6) 0.98946(4) 0.56976(4)
N1 N 0.4528(7) 0.7480(4) 0.6271(4)
N2 N 0.3742(7) 0.6724(5) 0.7822(4)
N3 N 0.3091(7) 0.6423(5) 0.8619(4)
N4 N 0.6822(7) 0.8032(4) 0.9134(4)
Hg2_2 Hg 0.04953(4) 0.88667(2) 0.677778(19)
I1_2 I 1.30768(5) 0.96844(4) 0.87294(3)
loop_
_geom_bond_atom_site_label_1
_geom_bond_atom_site_label_2
_geom_bond_site_symmetry_1
_geom_bond_site_symmetry_2
C1 H1 1_555 1_555
C2 C1 1_555 1_555
H2 C2 1_555 1_555
C3 C2 1_555 1_555
H3 C3 1_555 1_555
C4 C3 1_555 1_555
H4 C4 1_555 1_555
C5 C4 1_555 1_555
C6 C5 1_555 1_555
C7 C6 1_555 1_555
C8 C7 1_555 1_555
H5 C8 1_555 1_555
C9 C8 1_555 1_555
H6 C9 1_555 1_555
C10 C9 1_555 1_555
H7 C10 1_555 1_555
C11 C10 1_555 1_555
H8 C11 1_555 1_555
C12 C7 1_555 1_555
H9 C12 1_555 1_555
C13 H10 1_555 1_555
C14 C13 1_555 1_555
H11 C14 1_555 1_555
C15 C14 1_555 1_555
H12 C15 1_555 1_555
C16 C15 1_555 1_555
H13 C16 1_555 1_555
C17 C16 1_555 1_555
C18 C17 1_555 1_555
C19 C18 1_555 1_555
C20 C19 1_555 1_555
H14 C20 1_555 1_555
C21 C20 1_555 1_555
H15 C21 1_555 1_555
C22 C21 1_555 1_555
H16 C22 1_555 1_555
C23 C22 1_555 1_555
H17 C23 1_555 1_555
C24 C19 1_555 1_555
H18 C24 1_555 1_555
Hg1 I1 1_555 1_555
Hg2 I2 1_555 1_555
I1 Hg2_2 1_555 1_555
I2 Hg1 1_555 1_555
I3 Hg2 1_555 1_555
I4 Hg2 1_555 1_555
N1 C1 1_555 1_555
N2 C6 1_555 1_555
N3 C18 1_555 1_555
N4 C13 1_555 1_555
I1_2 Hg2 1_555 1_555
C5 N1 1_555 1_555
C11 C12 1_555 1_555
C17 N4 1_555 1_555
C23 C24 1_555 1_555
Hg1 N1 1_555 1_555
Hg1 N2 1_555 1_555
Hg1 N4 1_555 1_555
N2 N3 1_555 1_555

#END
