
#######################################################################
#
#                 Cambridge Crystallographic Data Centre
#                                CCDC 
#
#######################################################################
#
# If this CIF has been generated from an entry in the Cambridge 
# Structural Database, then it will include bibliographic, chemical, 
# crystal, experimental, refinement or atomic coordinate data resulting 
# from the CCDC's data processing and validation procedures.
#
#######################################################################

data_FOTPIP
_symmetry_cell_setting           triclinic
_symmetry_space_group_name_H-M   'P -1'
_symmetry_Int_Tables_number      2
_space_group_name_Hall           '-P 1'
loop_
_symmetry_equiv_pos_site_id
_symmetry_equiv_pos_as_xyz
1 x,y,z
2 -x,-y,-z
_cell_length_a                   10.4861(5)
_cell_length_b                   13.2319(5)
_cell_length_c                   13.5177(6)
_cell_angle_alpha                99.295(3)
_cell_angle_beta                 95.298(4)
_cell_angle_gamma                93.921(3)
_cell_volume                     1836.43
loop_
_atom_site_label
_atom_site_type_symbol
_atom_site_fract_x
_atom_site_fract_y
_atom_site_fract_z
Cu1 Cu 1.08314(7) 0.43621(5) 0.70879(5)
Cu2 Cu 0.56882(7) 0.11960(5) 0.83716(5)
Cu3 Cu 1.14597(7) 0.40237(5) 0.42064(5)
N1 N 0.9914(5) 0.3571(3) 0.5819(3)
N2 N 0.9293(5) 0.3662(3) 0.7675(4)
N3 N 1.2878(5) 0.4758(4) 0.3604(4)
N4 N 1.0069(5) 0.3413(4) 0.4822(4)
N5 N 1.2323(5) 0.4894(3) 0.5453(4)
N6 N 1.2151(5) 0.5081(3) 0.6443(3)
N7 N 1.4809(6) 0.5971(4) 0.2977(4)
C1 C 1.3106(6) 0.4648(5) 0.2640(5)
H1 H 1.2608 0.4156 0.2165
N8 N 0.7230(5) 0.2445(4) 0.8144(4)
C2 C 0.9007(6) 0.3708(4) 0.8626(4)
H2 H 0.9500 0.4159 0.9142
C3 C 1.3316(6) 0.5543(4) 0.5309(5)
C4 C 1.3623(6) 0.5471(4) 0.4268(5)
C5 C 0.7519(6) 0.2382(5) 0.7205(5)
H3 H 0.7023 0.1925 0.6697
C6 C 0.8910(6) 0.2933(4) 0.5942(4)
C7 C 1.3802(6) 0.6142(4) 0.6214(4)
H4 H 1.4486 0.6647 0.6331
C8 C 0.8557(5) 0.2986(4) 0.6956(4)
C9 C 1.4075(6) 0.5256(5) 0.2336(5)
H5 H 1.4213 0.5160 0.1658
C10 C 1.3057(6) 0.5826(4) 0.6899(5)
H6 H 1.3158 0.6088 0.7586
C11 C 0.7979(6) 0.3089(5) 0.8854(5)
H7 H 0.7812 0.3128 0.9523
C12 C 1.4565(6) 0.6079(5) 0.3941(5)
H8 H 1.5050 0.6585 0.4410
O1 O 0.4686(5) 0.1682(3) 1.4056(4)
C13 C 0.9156(7) 0.2691(5) 0.4349(5)
H9 H 0.9050 0.2447 0.3659
O2 O 1.2367(6) 0.2401(4) 0.4046(4)
H10 H 1.1904 0.1972 0.4310
H11 H 1.3134 0.2477 0.4355
N9 N 0.5198(5) 0.1809(3) 0.9691(3)
N10 N 0.4159(5) 0.1957(3) 0.7893(3)
C14 C 0.3703(6) 0.2006(4) 0.6952(5)
H12 H 0.4053 0.1640 0.6411
C15 C 0.4199(6) 0.2384(4) 0.9649(4)
C16 C 0.2642(6) 0.3119(4) 0.8463(4)
H13 H 0.2298 0.3499 0.9000
C17 C 0.3633(6) 0.2509(4) 0.8655(5)
C18 C 0.3865(6) 0.2712(5) 1.0611(5)
H14 H 0.3205 0.3113 1.0798
N11 N 0.5545(5) 0.1764(3) 1.0670(4)
N12 N 0.2171(5) 0.3169(3) 0.7514(4)
C19 C 0.2694(6) 0.2613(4) 0.6784(5)
H15 H 0.2374 0.2626 0.6122
Cu4 Cu 0.69481(7) 0.09919(5) 1.11616(5)
N13 N 0.7331(5) 0.0288(3) 0.9819(4)
N14 N 0.6951(5) 0.0316(3) 0.8841(4)
N15 N 0.8300(5) 0.0055(3) 1.1597(4)
N16 N 1.0024(5) -0.1392(4) 1.1940(4)
C20 C 0.8220(6) -0.0405(4) 0.9836(4)
C21 C 0.8721(6) -0.0562(4) 1.0819(5)
C22 C 0.8422(6) -0.0825(5) 0.8873(5)
H16 H 0.8977 -0.1321 0.8674
C23 C 0.7619(6) -0.0349(5) 0.8270(5)
H17 H 0.7545 -0.0467 0.7569
C24 C 0.9580(6) -0.1281(5) 1.1008(5)
H18 H 0.9857 -0.1702 1.0463
C25 C 0.4743(6) 0.2301(5) 1.1224(5)
H19 H 0.4774 0.2385 1.1923
C26 C 0.8753(6) -0.0039(5) 1.2531(5)
H20 H 0.8485 0.0379 1.3081
C27 C 0.9625(7) -0.0762(5) 1.2685(5)
H21 H 0.9940 -0.0802 1.3343
O3 O 0.6301(4) 0.1069(3) 1.2495(3)
Mo1 Mo 0.54901(5) 0.06740(4) 1.34795(4)
O4 O 0.4393(4) -0.0421(3) 1.2996(3)
O5 O 0.6603(5) 0.0313(3) 1.4349(4)
C28 C 0.8397(7) 0.2363(5) 0.5035(5)
H22 H 0.7700 0.1870 0.4912
O6 O 1.1169(4) 0.5369(3) 0.8346(3)
Mo2 Mo 1.03461(5) 0.65234(4) 0.83378(4)
O7 O 0.9424(4) 0.6426(3) 0.7153(3)
O8 O 1.1432(4) 0.7609(3) 0.8579(3)
O9 O 0.9320(5) 0.6604(3) 0.9266(3)
Cu1_2 Cu 0.08314(7) 0.43621(5) 0.70879(5)
Cu2A Cu 0.43118(7) -0.11960(5) 1.16284(5)
Cu3A Cu 0.85403(7) 0.59763(5) 0.57936(5)
N12_2 N 1.2171(5) 0.3169(3) 0.7514(4)
Cu4A Cu 1.30519(7) 0.90081(5) 0.88384(5)
O4A O 0.5607(4) 0.0421(3) 0.7004(3)
O7A O 1.0576(4) 0.3574(3) 0.2847(3)
O8A O 0.8568(4) 0.2391(3) 1.1421(3)
O10 O 0.8729(6) 0.9438(5) 0.5172(5)
O11 O 0.3658(13) 0.5363(9) 0.9624(10)
loop_
_geom_bond_atom_site_label_1
_geom_bond_atom_site_label_2
_geom_bond_site_symmetry_1
_geom_bond_site_symmetry_2
Cu1 N1 1_555 1_555
Cu2 N8 1_555 1_555
Cu3 N3 1_555 1_555
N1 N4 1_555 1_555
N2 Cu1 1_555 1_555
N3 C1 1_555 1_555
N4 Cu3 1_555 1_555
N5 Cu3 1_555 1_555
N6 Cu1 1_555 1_555
N7 C9 1_555 1_555
C1 H1 1_555 1_555
N8 C5 1_555 1_555
C2 N2 1_555 1_555
H2 C2 1_555 1_555
C3 N5 1_555 1_555
C4 N3 1_555 1_555
C5 H3 1_555 1_555
C6 N1 1_555 1_555
C7 C3 1_555 1_555
H4 C7 1_555 1_555
C8 N2 1_555 1_555
C9 C1 1_555 1_555
H5 C9 1_555 1_555
C10 N6 1_555 1_555
H6 C10 1_555 1_555
C11 N8 1_555 1_555
H7 C11 1_555 1_555
C12 N7 1_555 1_555
H8 C12 1_555 1_555
O1 Mo1 1_555 1_555
C13 N4 1_555 1_555
H9 C13 1_555 1_555
O2 Cu3 1_555 1_555
H10 O2 1_555 1_555
H11 O2 1_555 1_555
N9 Cu2 1_555 1_555
N10 Cu2 1_555 1_555
C14 N10 1_555 1_555
H12 C14 1_555 1_555
C15 N9 1_555 1_555
C16 H13 1_555 1_555
C17 N10 1_555 1_555
C18 C15 1_555 1_555
H14 C18 1_555 1_555
N11 N9 1_555 1_555
N12 C16 1_555 1_555
C19 C14 1_555 1_555
H15 C19 1_555 1_555
Cu4 N11 1_555 1_555
N13 Cu4 1_555 1_555
N14 Cu2 1_555 1_555
N15 Cu4 1_555 1_555
N16 C24 1_555 1_555
C20 N13 1_555 1_555
C21 N15 1_555 1_555
C22 C20 1_555 1_555
H16 C22 1_555 1_555
C23 N14 1_555 1_555
H17 C23 1_555 1_555
C24 C21 1_555 1_555
H18 C24 1_555 1_555
C25 C18 1_555 1_555
H19 C25 1_555 1_555
C26 N15 1_555 1_555
H20 C26 1_555 1_555
C27 N16 1_555 1_555
H21 C27 1_555 1_555
O3 Cu4 1_555 1_555
Mo1 O3 1_555 1_555
O4 Mo1 1_555 1_555
O5 Mo1 1_555 1_555
C28 C6 1_555 1_555
H22 C28 1_555 1_555
O6 Cu1 1_555 1_555
Mo2 O6 1_555 1_555
O7 Mo2 1_555 1_555
O8 Mo2 1_555 1_555
O9 Mo2 1_555 1_555
Cu1_2 N12 1_555 1_555
Cu2A O4 1_555 1_555
Cu3A O7 1_555 1_555
N12_2 Cu1 1_555 1_555
Cu4A O8 1_555 1_555
O4A Cu2 1_555 1_555
O7A Cu3 1_555 1_555
O8A Cu4 1_555 1_555
N5 N6 1_555 1_555
C2 C11 1_555 1_555
C3 C4 1_555 1_555
C4 C12 1_555 1_555
C5 C8 1_555 1_555
C6 C8 1_555 1_555
C7 C10 1_555 1_555
C13 C28 1_555 1_555
C15 C17 1_555 1_555
C16 C17 1_555 1_555
N11 C25 1_555 1_555
N12 C19 1_555 1_555
N13 N14 1_555 1_555
C20 C21 1_555 1_555
C22 C23 1_555 1_555
C26 C27 1_555 1_555

#END
