
#######################################################################
#
#                 Cambridge Crystallographic Data Centre
#                                CCDC 
#
#######################################################################
#
# If this CIF has been generated from an entry in the Cambridge 
# Structural Database, then it will include bibliographic, chemical, 
# crystal, experimental, refinement or atomic coordinate data resulting 
# from the CCDC's data processing and validation procedures.
#
#######################################################################

data_FOWCIE
_symmetry_cell_setting           orthorhombic
_symmetry_space_group_name_H-M   'P n a 21'
_symmetry_Int_Tables_number      33
_space_group_name_Hall           'P 2c -2n'
loop_
_symmetry_equiv_pos_site_id
_symmetry_equiv_pos_as_xyz
1 x,y,z
2 -x,-y,1/2+z
3 1/2+x,1/2-y,z
4 1/2-x,1/2+y,1/2+z
_cell_length_a                   9.763(2)
_cell_length_b                   9.1970(18)
_cell_length_c                   29.352(6)
_cell_angle_alpha                90
_cell_angle_beta                 90
_cell_angle_gamma                90
_cell_volume                     2635.53
loop_
_atom_site_label
_atom_site_type_symbol
_atom_site_fract_x
_atom_site_fract_y
_atom_site_fract_z
Ni1 Ni 0.31148(9) 1.09616(9) 0.84957(7)
C11 C 0.5767(6) 1.2152(8) 0.8712(2)
C12 C 0.5476(8) 1.2747(8) 0.8228(3)
C13 C 0.1336(9) 0.9194(11) 0.9256(3)
H7 H 0.1073 1.0111 0.9357
C14 C 0.0855(11) 0.7996(12) 0.9485(3)
H8 H 0.0292 0.8096 0.9738
C15 C 0.1225(10) 0.6663(12) 0.9331(4)
H9 H 0.0937 0.5844 0.9490
C16 C 0.1990(10) 0.6493(10) 0.8960(4)
H10 H 0.2158 0.5570 0.8843
C17 C 0.2534(9) 0.7723(8) 0.8749(3)
C18 C 0.3377(9) 0.7695(8) 0.8356(3)
C19 C 0.3938(12) 0.6511(11) 0.8106(4)
H11 H 0.3789 0.5526 0.8157
C20 C 0.4713(14) 0.7090(12) 0.7784(5)
H12 H 0.5256 0.6582 0.7579
N1 N 0.2170(6) 0.9107(6) 0.8890(2)
N2 N 0.3773(6) 0.8926(7) 0.8146(2)
N3 N 0.4576(7) 0.8577(8) 0.7808(2)
O1 O 0.4923(5) 1.1355(5) 0.88962(16)
O2 O 0.6957(5) 1.2463(5) 0.8884(3)
O3 O 0.4389(5) 1.2387(5) 0.8069(2)
O4 O 0.6367(5) 1.3553(5) 0.80613(16)
H19 H 0.490(5) 0.935(4) 0.7611(14)
Ni1B Ni 0.81148(9) 1.40384(9) 0.84957(7)
O2B O 0.1957(5) 1.2537(5) 0.8884(3)
O4B O 0.1367(5) 1.1447(5) 0.80613(16)
Ni2 Ni 0.55514(8) -0.09515(9) 0.08796(7)
C1 C 0.3921(9) 0.0950(8) 0.0119(3)
H1 H 0.3731 0.0049 -0.0010
C2 C 0.3379(10) 0.2187(11) -0.0082(4)
H2 H 0.2809 0.2111 -0.0335
C3 C 0.3688(12) 0.3506(12) 0.0094(3)
H3 H 0.3325 0.4349 -0.0033
C4 C 0.4564(11) 0.3578(10) 0.0472(4)
H4 H 0.4850 0.4472 0.0585
C5 C 0.4996(10) 0.2304(8) 0.0671(3)
C6 C 0.5898(9) 0.2314(8) 0.1082(3)
C7 C 0.6452(10) 0.3438(9) 0.1323(4)
H5 H 0.6355 0.4430 0.1270
C8 C 0.7179(10) 0.2767(11) 0.1658(4)
H6 H 0.7664 0.3233 0.1888
C9 C 0.3240(8) -0.2826(8) 0.0649(3)
C10 C 0.2918(7) -0.2229(7) 0.1133(3)
N4 N 0.4710(6) 0.1009(6) 0.0492(2)
N5 N 0.6263(6) 0.1013(7) 0.1239(2)
N6 N 0.7085(8) 0.1366(9) 0.1604(2)
O5 O 0.2318(4) -0.3592(5) 0.04713(16)
O6 O 0.4326(5) -0.2429(5) 0.0479(3)
O7 O 0.1787(6) -0.2608(6) 0.1324(2)
O8 O 0.3784(4) -0.1410(5) 0.13145(17)
H20 H 0.71(3) 0.069(18) 0.186(5)
Ni2B Ni 0.05514(8) -0.40485(9) 0.08796(7)
O5B O 0.7318(4) -0.1408(5) 0.04713(16)
O7B O 0.6787(6) -0.2392(6) 0.1324(2)
O9 O 0.6278(8) 0.6448(6) 0.2198(2)
H14 H 0.632(6) 0.689(6) 0.1956(11)
H15 H 0.672(16) 0.569(10) 0.221(3)
O10 O 0.8552(8) 0.9517(8) 0.2145(2)
H16 H 0.860(5) 0.989(8) 0.2399(12)
H17 H 0.927(3) 0.918(7) 0.2051(17)
O11 O 0.3970(8) 0.9636(7) 0.2236(2)
H13 H 0.412(4) 0.905(5) 0.2033(15)
H18 H 0.321(4) 0.957(7) 0.235(3)
loop_
_geom_bond_atom_site_label_1
_geom_bond_atom_site_label_2
_geom_bond_site_symmetry_1
_geom_bond_site_symmetry_2
Ni1 N1 1_555 1_555
Ni2 N4 1_555 1_555
C1 H1 1_555 1_555
C2 C1 1_555 1_555
H2 C2 1_555 1_555
C3 C2 1_555 1_555
H3 C3 1_555 1_555
C4 C3 1_555 1_555
H4 C4 1_555 1_555
C5 C4 1_555 1_555
C6 C5 1_555 1_555
C7 C6 1_555 1_555
H5 C7 1_555 1_555
C8 C7 1_555 1_555
H6 C8 1_555 1_555
C9 C10 1_555 1_555
C10 O7 1_555 1_555
C11 C12 1_555 1_555
C12 O3 1_555 1_555
C13 H7 1_555 1_555
C14 C13 1_555 1_555
H8 C14 1_555 1_555
C15 C14 1_555 1_555
H9 C15 1_555 1_555
C16 C15 1_555 1_555
H10 C16 1_555 1_555
C17 C16 1_555 1_555
C18 C17 1_555 1_555
C19 C18 1_555 1_555
H11 C19 1_555 1_555
C20 C19 1_555 1_555
H12 C20 1_555 1_555
N1 C13 1_555 1_555
N2 Ni1 1_555 1_555
N3 C20 1_555 1_555
N4 C1 1_555 1_555
N5 Ni2 1_555 1_555
N6 C8 1_555 1_555
O1 Ni1 1_555 1_555
O2 C11 1_555 1_555
O3 Ni1 1_555 1_555
O4 C12 1_555 1_555
O5 C9 1_555 1_555
O6 Ni2 1_555 1_555
O7 Ni2B 1_555 1_555
O8 Ni2 1_555 1_555
O9 H14 1_555 1_555
O10 H16 1_555 1_555
O11 H13 1_555 1_555
H15 O9 1_555 1_555
H17 O10 1_555 1_555
H18 O11 1_555 1_555
H19 N3 1_555 1_555
H20 N6 1_555 1_555
Ni1B O2 1_555 1_555
Ni2B O5 1_555 1_555
O2B Ni1 1_555 1_555
O4B Ni1 1_555 1_555
O5B Ni2 1_555 1_555
O7B Ni2 1_555 1_555
C5 N4 1_555 1_555
C6 N5 1_555 1_555
C9 O6 1_555 1_555
C10 O8 1_555 1_555
C11 O1 1_555 1_555
C17 N1 1_555 1_555
C18 N2 1_555 1_555
N2 N3 1_555 1_555
N5 N6 1_555 1_555
O4 Ni1B 1_555 1_555

#END
