
#######################################################################
#
#                 Cambridge Crystallographic Data Centre
#                                CCDC 
#
#######################################################################
#
# If this CIF has been generated from an entry in the Cambridge 
# Structural Database, then it will include bibliographic, chemical, 
# crystal, experimental, refinement or atomic coordinate data resulting 
# from the CCDC's data processing and validation procedures.
#
#######################################################################

data_FOWFON
_symmetry_cell_setting           triclinic
_symmetry_space_group_name_H-M   'P -1'
_symmetry_Int_Tables_number      2
_space_group_name_Hall           '-P 1'
loop_
_symmetry_equiv_pos_site_id
_symmetry_equiv_pos_as_xyz
1 x,y,z
2 -x,-y,-z
_cell_length_a                   7.96070(10)
_cell_length_b                   14.9527(2)
_cell_length_c                   26.5320(4)
_cell_angle_alpha                103.4710(10)
_cell_angle_beta                 90.3480(10)
_cell_angle_gamma                105.4290(10)
_cell_volume                     2952.82
loop_
_atom_site_label
_atom_site_type_symbol
_atom_site_fract_x
_atom_site_fract_y
_atom_site_fract_z
Li1 Li 1.4484(4) 0.4845(2) 0.21870(13)
Li2 Li 1.9517(4) 0.5029(3) 0.27808(13)
O1 O 1.4132(2) 0.35616(11) 0.17852(6)
O2 O 1.6215(2) 0.30183(12) 0.20755(6)
N1 N 1.0252(2) 0.06256(12) -0.06878(7)
N2 N 1.1522(2) 0.05002(12) -0.03866(6)
C1 C 1.0440(3) -0.07475(16) -0.13585(8)
H1 H 1.1124 -0.0906 -0.1126
C2 C 1.0046(3) -0.13031(18) -0.18655(9)
H2 H 1.0475 -0.1833 -0.1972
C3 C 0.9028(3) -0.10783(19) -0.22109(9)
H3 H 0.8780 -0.1449 -0.2551
C4 C 0.8374(4) -0.0297(2) -0.20491(10)
H4 H 0.7666 -0.0151 -0.2280
C5 C 0.8762(3) 0.02741(18) -0.15462(9)
H5 H 0.8329 0.0803 -0.1441
C6 C 0.9805(3) 0.00437(15) -0.12024(8)
C7 C 0.9607(3) 0.13500(15) -0.04342(9)
H6 H 0.8740 0.1563 -0.0565
C8 C 1.0462(3) 0.17068(15) 0.00468(9)
H7 H 1.0301 0.2204 0.0309
C9 C 1.1647(3) 0.11558(14) 0.00604(8)
C10 C 1.2922(3) 0.12322(15) 0.04811(8)
C11 C 1.3292(3) 0.20125(14) 0.09116(8)
H8 H 1.2711 0.2483 0.0937
C12 C 1.4534(3) 0.20890(15) 0.13040(8)
C13 C 1.5398(3) 0.13848(17) 0.12752(9)
H9 H 1.6220 0.1438 0.1539
C14 C 1.5021(3) 0.06018(17) 0.08493(9)
H10 H 1.5593 0.0128 0.0827
C15 C 1.3794(3) 0.05260(16) 0.04567(8)
H11 H 1.3547 -0.0001 0.0173
C16 C 1.4931(3) 0.29600(15) 0.17435(8)
O3 O 2.0385(2) 0.63497(11) 0.31587(6)
O4 O 2.3177(2) 0.67241(11) 0.29641(6)
N3 N 1.9371(2) 0.93770(12) 0.56028(7)
N4 N 2.0854(2) 0.93899(12) 0.53531(6)
C17 C 2.1010(3) 1.06570(16) 0.63134(8)
H12 H 2.2014 1.0670 0.6135
C18 C 2.1088(3) 1.12830(17) 0.67979(8)
H13 H 2.2148 1.1709 0.6945
C19 C 1.9589(3) 1.12698(18) 0.70596(9)
H14 H 1.9640 1.1687 0.7383
C20 C 1.8006(3) 1.06335(18) 0.68384(9)
H15 H 1.6997 1.0633 0.7013
C21 C 1.7918(3) 0.99997(16) 0.63590(9)
H16 H 1.6858 0.9570 0.6214
C22 C 1.9428(3) 1.00136(15) 0.60980(8)
C23 C 1.7971(3) 0.87027(16) 0.53268(9)
H17 H 1.6828 0.8567 0.5424
C24 C 1.8557(3) 0.82614(16) 0.48798(9)
H18 H 1.7903 0.7769 0.4612
C25 C 2.0358(3) 0.87105(14) 0.49110(8)
C26 C 2.1659(3) 0.84961(14) 0.45499(8)
C27 C 2.1187(3) 0.78132(14) 0.40765(7)
H19 H 2.0014 0.7500 0.3980
C28 C 2.2456(3) 0.75986(14) 0.37487(8)
C29 C 2.4212(3) 0.80507(17) 0.38890(9)
H20 H 2.5058 0.7904 0.3670
C30 C 2.4695(3) 0.87257(18) 0.43609(9)
H21 H 2.5869 0.9033 0.4458
C31 C 2.3434(3) 0.89403(16) 0.46862(9)
H22 H 2.3773 0.9389 0.5002
C32 C 2.1898(3) 0.68338(14) 0.32605(7)
O5 O 1.45630(18) 0.48572(11) 0.29247(5)
O6 O 1.70998(17) 0.44937(10) 0.28620(5)
N5 N 1.3491(2) 0.71485(12) 0.55515(6)
N6 N 1.4858(2) 0.68099(12) 0.53726(6)
C33 C 1.4597(3) 0.75143(15) 0.64512(8)
H23 H 1.5194 0.7050 0.6362
C34 C 1.4694(3) 0.80360(16) 0.69617(8)
H24 H 1.5379 0.7929 0.7215
C35 C 1.3778(3) 0.87166(16) 0.70978(8)
H25 H 1.3828 0.9054 0.7442
C36 C 1.2791(3) 0.88917(17) 0.67205(9)
H26 H 1.2180 0.9349 0.6812
C37 C 1.2709(3) 0.83868(16) 0.62051(8)
H27 H 1.2063 0.8514 0.5950
C38 C 1.3598(3) 0.76925(14) 0.60752(7)
C39 C 1.2168(3) 0.69150(15) 0.51775(8)
H28 H 1.1113 0.7072 0.5214
C40 C 1.2681(3) 0.64053(15) 0.47366(8)
H29 H 1.2055 0.6145 0.4415
C41 C 1.4369(3) 0.63602(14) 0.48750(7)
C42 C 1.5541(2) 0.58987(14) 0.45517(7)
C43 C 1.5233(3) 0.56048(14) 0.40109(7)
H30 H 1.4279 0.5709 0.3853
C44 C 1.6337(2) 0.51578(13) 0.37057(7)
C45 C 1.7780(3) 0.50106(14) 0.39425(7)
H31 H 1.8530 0.4719 0.3742
C46 C 1.8087(3) 0.53019(14) 0.44790(8)
H32 H 1.9046 0.5202 0.4637
C47 C 1.6984(3) 0.57396(14) 0.47825(7)
H33 H 1.7203 0.5929 0.5142
C48 C 1.5968(2) 0.48180(14) 0.31252(7)
O7 O 0.96510(18) 0.49718(11) 0.20445(5)
O8 O 1.25582(18) 0.53777(10) 0.21192(5)
N7 N 0.6220(2) 0.27979(12) -0.05822(6)
N8 N 0.7938(2) 0.31606(12) -0.04095(6)
C49 C 0.6886(3) 0.25619(15) -0.14861(8)
H34 H 0.7943 0.3030 -0.1389
C50 C 0.6411(3) 0.20990(16) -0.20067(8)
H35 H 0.7164 0.2257 -0.2259
C51 C 0.4833(3) 0.14069(16) -0.21533(8)
H36 H 0.4521 0.1107 -0.2502
C52 C 0.3723(3) 0.11638(16) -0.17781(9)
H37 H 0.2660 0.0700 -0.1876
C53 C 0.4182(3) 0.16084(15) -0.12542(8)
H38 H 0.3446 0.1436 -0.1002
C54 C 0.5760(3) 0.23139(14) -0.11147(7)
C55 C 0.5147(3) 0.29660(16) -0.01962(8)
H39 H 0.3932 0.2783 -0.0227
C56 C 0.6191(3) 0.34543(15) 0.02464(8)
H40 H 0.5838 0.3673 0.0575
C57 C 0.7913(3) 0.35560(14) 0.00984(7)
C58 C 0.9570(3) 0.40278(13) 0.04207(7)
C59 C 0.9577(3) 0.42900(14) 0.09619(7)
H41 H 0.8527 0.4164 0.1119
C60 C 1.1138(3) 0.47380(13) 0.12698(7)
C61 C 1.2705(3) 0.49167(14) 0.10350(7)
H42 H 1.3750 0.5209 0.1238
C62 C 1.2716(3) 0.46595(14) 0.04972(8)
H43 H 1.3769 0.4779 0.0341
C63 C 1.1159(3) 0.42249(14) 0.01917(7)
H44 H 1.1175 0.4064 -0.0168
C64 C 1.1096(3) 0.50458(14) 0.18509(7)
O9 O 2.1049(2) 0.44372(11) 0.30900(6)
C65 C 2.0641(3) 0.34913(16) 0.31647(10)
H45 H 2.1206 0.3108 0.2912
H46 H 1.9389 0.3204 0.3106
C66 C 2.1228(3) 0.34828(19) 0.37057(11)
H47 H 2.0993 0.2834 0.3735
H48 H 2.0606 0.3821 0.3955
H49 H 2.2460 0.3788 0.3770
O10 O 1.6609(2) 0.54954(11) 0.19115(6)
C67 C 1.7212(3) 0.64612(18) 0.18609(11)
H50 H 1.8151 0.6818 0.2125
H51 H 1.6266 0.6761 0.1918
C68 C 1.7857(4) 0.6501(2) 0.13303(13)
H52 H 1.8269 0.7156 0.1311
H53 H 1.6919 0.6168 0.1069
H54 H 1.8795 0.6205 0.1273
H55 H 1.642(4) 0.357(2) 0.2328(11)
H56 H 2.276(4) 0.623(2) 0.2673(12)
H57 H 2.215(4) 0.460(2) 0.3076(11)
H58 H 1.750(4) 0.5287(19) 0.1914(10)
Li2_2 Li 0.9517(4) 0.5029(3) 0.27808(13)
O7_2 O 1.96510(18) 0.49718(11) 0.20445(5)
loop_
_geom_bond_atom_site_label_1
_geom_bond_atom_site_label_2
_geom_bond_site_symmetry_1
_geom_bond_site_symmetry_2
Li1 O1 1_555 1_555
Li2 O3 1_555 1_555
O1 C16 1_555 1_555
O2 C16 1_555 1_555
N1 N2 1_555 1_555
N2 C9 1_555 1_555
C1 H1 1_555 1_555
C2 C1 1_555 1_555
H2 C2 1_555 1_555
C3 C2 1_555 1_555
H3 C3 1_555 1_555
C4 C3 1_555 1_555
H4 C4 1_555 1_555
C5 C4 1_555 1_555
H5 C5 1_555 1_555
C6 N1 1_555 1_555
C7 N1 1_555 1_555
H6 C7 1_555 1_555
C8 C7 1_555 1_555
H7 C8 1_555 1_555
C9 C8 1_555 1_555
C10 C9 1_555 1_555
C11 C10 1_555 1_555
H8 C11 1_555 1_555
C12 C11 1_555 1_555
C13 C12 1_555 1_555
H9 C13 1_555 1_555
C14 C13 1_555 1_555
H10 C14 1_555 1_555
C15 C10 1_555 1_555
H11 C15 1_555 1_555
C16 C12 1_555 1_555
O3 C32 1_555 1_555
O4 C32 1_555 1_555
N3 N4 1_555 1_555
N4 C25 1_555 1_555
C17 H12 1_555 1_555
C18 C17 1_555 1_555
H13 C18 1_555 1_555
C19 C18 1_555 1_555
H14 C19 1_555 1_555
C20 C19 1_555 1_555
H15 C20 1_555 1_555
C21 C20 1_555 1_555
H16 C21 1_555 1_555
C22 N3 1_555 1_555
C23 N3 1_555 1_555
H17 C23 1_555 1_555
C24 C23 1_555 1_555
H18 C24 1_555 1_555
C25 C24 1_555 1_555
C26 C25 1_555 1_555
C27 C26 1_555 1_555
H19 C27 1_555 1_555
C28 C27 1_555 1_555
C29 C28 1_555 1_555
H20 C29 1_555 1_555
C30 C29 1_555 1_555
H21 C30 1_555 1_555
C31 C26 1_555 1_555
H22 C31 1_555 1_555
C32 C28 1_555 1_555
O5 Li1 1_555 1_555
O6 Li2 1_555 1_555
N5 N6 1_555 1_555
N6 C41 1_555 1_555
C33 H23 1_555 1_555
C34 C33 1_555 1_555
H24 C34 1_555 1_555
C35 C34 1_555 1_555
H25 C35 1_555 1_555
C36 C35 1_555 1_555
H26 C36 1_555 1_555
C37 C36 1_555 1_555
H27 C37 1_555 1_555
C38 N5 1_555 1_555
C39 N5 1_555 1_555
H28 C39 1_555 1_555
C40 C39 1_555 1_555
H29 C40 1_555 1_555
C41 C40 1_555 1_555
C42 C41 1_555 1_555
C43 C42 1_555 1_555
H30 C43 1_555 1_555
C44 C43 1_555 1_555
C45 C44 1_555 1_555
H31 C45 1_555 1_555
C46 C45 1_555 1_555
H32 C46 1_555 1_555
C47 C42 1_555 1_555
H33 C47 1_555 1_555
C48 O5 1_555 1_555
O7 C64 1_555 1_555
O8 Li1 1_555 1_555
N7 N8 1_555 1_555
N8 C57 1_555 1_555
C49 H34 1_555 1_555
C50 C49 1_555 1_555
H35 C50 1_555 1_555
C51 C50 1_555 1_555
H36 C51 1_555 1_555
C52 C51 1_555 1_555
H37 C52 1_555 1_555
C53 C52 1_555 1_555
H38 C53 1_555 1_555
C54 N7 1_555 1_555
C55 N7 1_555 1_555
H39 C55 1_555 1_555
C56 C55 1_555 1_555
H40 C56 1_555 1_555
C57 C56 1_555 1_555
C58 C57 1_555 1_555
C59 C58 1_555 1_555
H41 C59 1_555 1_555
C60 C59 1_555 1_555
C61 C60 1_555 1_555
H42 C61 1_555 1_555
C62 C61 1_555 1_555
H43 C62 1_555 1_555
C63 C58 1_555 1_555
H44 C63 1_555 1_555
C64 O8 1_555 1_555
O9 Li2 1_555 1_555
C65 O9 1_555 1_555
H45 C65 1_555 1_555
H46 C65 1_555 1_555
C66 C65 1_555 1_555
H47 C66 1_555 1_555
H48 C66 1_555 1_555
H49 C66 1_555 1_555
O10 Li1 1_555 1_555
C67 O10 1_555 1_555
H50 C67 1_555 1_555
H51 C67 1_555 1_555
C68 C67 1_555 1_555
H52 C68 1_555 1_555
H53 C68 1_555 1_555
H54 C68 1_555 1_555
H55 O2 1_555 1_555
H56 O4 1_555 1_555
H57 O9 1_555 1_555
H58 O10 1_555 1_555
Li2_2 O7 1_555 1_555
O7_2 Li2 1_555 1_555
C1 C6 1_555 1_555
C5 C6 1_555 1_555
C14 C15 1_555 1_555
C17 C22 1_555 1_555
C21 C22 1_555 1_555
C30 C31 1_555 1_555
O6 C48 1_555 1_555
C33 C38 1_555 1_555
C37 C38 1_555 1_555
C44 C48 1_555 1_555
C46 C47 1_555 1_555
C49 C54 1_555 1_555
C53 C54 1_555 1_555
C60 C64 1_555 1_555
C62 C63 1_555 1_555

#END
