
#######################################################################
#
#                 Cambridge Crystallographic Data Centre
#                                CCDC 
#
#######################################################################
#
# If this CIF has been generated from an entry in the Cambridge 
# Structural Database, then it will include bibliographic, chemical, 
# crystal, experimental, refinement or atomic coordinate data resulting 
# from the CCDC's data processing and validation procedures.
#
#######################################################################

data_FOWGUU
_symmetry_cell_setting           monoclinic
_symmetry_space_group_name_H-M   'C 2/c'
_symmetry_Int_Tables_number      15
_space_group_name_Hall           '-C 2yn'
loop_
_symmetry_equiv_pos_site_id
_symmetry_equiv_pos_as_xyz
1 x,y,z
2 -x,y,1/2-z
3 1/2+x,1/2+y,z
4 1/2-x,1/2+y,1/2-z
5 -x,-y,-z
6 x,-y,1/2+z
7 1/2-x,1/2-y,-z
8 1/2+x,1/2-y,1/2+z
_cell_length_a                   22.3785(15)
_cell_length_b                   13.7662(9)
_cell_length_c                   19.8482(14)
_cell_angle_alpha                90
_cell_angle_beta                 99.9480(10)
_cell_angle_gamma                90
_cell_volume                     6022.64
loop_
_atom_site_label
_atom_site_type_symbol
_atom_site_fract_x
_atom_site_fract_y
_atom_site_fract_z
Ag1 Ag 0.183850(14) 0.187891(18) 0.197856(15)
N1 N 0.20655(13) 0.32823(17) 0.15519(13)
N2 N 0.33194(14) 0.3474(2) 0.02005(14)
N3 N 0.37007(13) 0.3480(2) -0.02752(14)
N4 N 0.61376(15) 0.2368(3) -0.23488(16)
N5 N 0.17227(13) 0.03059(19) 0.20139(13)
N6 N 0.26690(13) -0.16253(19) 0.09119(14)
N7 N 0.30676(13) -0.2188(2) 0.06251(14)
N8 N 0.5343(2) -0.4267(3) -0.1374(2)
O1 O 0.29409(11) 0.49652(17) -0.01123(12)
O2 O 0.25137(12) -0.28036(16) 0.16611(13)
C1 C 0.19143(15) 0.4121(2) 0.18267(16)
H1 H 0.1669 0.4098 0.2172
C2 C 0.21021(17) 0.5008(2) 0.16271(17)
H2 H 0.1992 0.5585 0.1838
C3 C 0.24503(16) 0.5056(2) 0.11201(16)
H3 H 0.2582 0.5665 0.0975
C4 C 0.26041(14) 0.4200(2) 0.08263(15)
C5 C 0.24032(15) 0.3332(2) 0.10548(16)
H4 H 0.2508 0.2745 0.0852
C6 C 0.29680(15) 0.4257(2) 0.02645(15)
C7 C 0.40093(16) 0.2709(3) -0.02952(17)
H5 H 0.3955 0.2179 -0.0005
C8 C 0.44496(15) 0.2627(3) -0.07618(16)
C9 C 0.46234(17) 0.3429(3) -0.11026(18)
H6 H 0.4440 0.4042 -0.1055
C10 C 0.50556(18) 0.3345(3) -0.15064(18)
H7 H 0.5178 0.3901 -0.1732
C11 C 0.53175(15) 0.2446(3) -0.15883(16)
C12 C 0.51410(18) 0.1635(3) -0.1266(2)
H8 H 0.5312 0.1018 -0.1330
C13 C 0.47112(18) 0.1734(3) -0.0847(2)
H9 H 0.4594 0.1181 -0.0615
C14 C 0.57804(17) 0.2385(3) -0.20097(18)
C15 C 0.13563(17) -0.0091(2) 0.24079(17)
H10 H 0.1117 0.0327 0.2633
C16 C 0.13129(18) -0.1077(3) 0.24988(19)
H11 H 0.1051 -0.1333 0.2784
C17 C 0.16547(17) -0.1682(2) 0.21708(18)
H12 H 0.1633 -0.2366 0.2228
C18 C 0.20314(14) -0.1297(2) 0.17564(15)
C19 C 0.20477(15) -0.0293(2) 0.16906(15)
H13 H 0.2301 -0.0021 0.1402
C20 C 0.24264(15) -0.1984(2) 0.14389(16)
C21 C 0.33262(17) -0.1765(2) 0.01809(18)
H14 H 0.3241 -0.1102 0.0072
C22 C 0.37552(16) -0.2300(3) -0.01634(17)
C23 C 0.38639(17) -0.3282(3) -0.00388(19)
H15 H 0.3654 -0.3614 0.0269
C24 C 0.42693(18) -0.3782(3) -0.03525(19)
H16 H 0.4341 -0.4453 -0.0260
C25 C 0.45761(17) -0.3300(3) -0.0808(2)
C26 C 0.44726(19) -0.2317(3) -0.0942(2)
H17 H 0.4682 -0.1987 -0.1251
C27 C 0.40629(19) -0.1822(3) -0.0622(2)
H18 H 0.3990 -0.1152 -0.0715
C28 C 0.5002(2) -0.3825(3) -0.1133(2)
H19 H 0.3375(17) 0.306(2) 0.0537(14)
H20 H 0.2555(17) -0.1086(19) 0.0702(18)
Ag1G Ag 0.683850(14) 0.312109(18) -0.302144(15)
N4G N 0.11376(15) 0.2632(3) 0.26512(16)
As1 As 0.377276(19) 0.09939(3) 0.14799(2)
F1 F 0.38907(15) 0.21973(18) 0.13618(16)
F2 F 0.36110(16) -0.01902(19) 0.1542(2)
F3 F 0.3247(3) 0.1084(5) 0.0751(3)
F4 F 0.3208(3) 0.1242(3) 0.1925(3)
F5 F 0.4252(4) 0.0990(7) 0.2174(5)
F6 F 0.4308(3) 0.0776(4) 0.1007(5)
F7? F 0.3034(4) 0.1259(9) 0.1417(10)
F8? F 0.3871(8) 0.1196(8) 0.2320(4)
F9? F 0.4516(4) 0.0732(7) 0.1563(8)
F10? F 0.3710(9) 0.0775(9) 0.0641(5)
loop_
_geom_bond_atom_site_label_1
_geom_bond_atom_site_label_2
_geom_bond_site_symmetry_1
_geom_bond_site_symmetry_2
Ag1 N1 1_555 1_555
N1 C1 1_555 1_555
N2 N3 1_555 1_555
N3 C7 1_555 1_555
N4 C14 1_555 1_555
N5 Ag1 1_555 1_555
N6 N7 1_555 1_555
N7 C21 1_555 1_555
N8 C28 1_555 1_555
O1 C6 1_555 1_555
O2 C20 1_555 1_555
C1 H1 1_555 1_555
C2 C1 1_555 1_555
H2 C2 1_555 1_555
C3 C2 1_555 1_555
H3 C3 1_555 1_555
C4 C3 1_555 1_555
C5 N1 1_555 1_555
H4 C5 1_555 1_555
C6 N2 1_555 1_555
C7 H5 1_555 1_555
C8 C7 1_555 1_555
C9 C8 1_555 1_555
H6 C9 1_555 1_555
C10 C9 1_555 1_555
H7 C10 1_555 1_555
C11 C10 1_555 1_555
C12 C11 1_555 1_555
H8 C12 1_555 1_555
C13 C8 1_555 1_555
H9 C13 1_555 1_555
C14 C11 1_555 1_555
C15 N5 1_555 1_555
H10 C15 1_555 1_555
C16 C15 1_555 1_555
H11 C16 1_555 1_555
C17 C16 1_555 1_555
H12 C17 1_555 1_555
C18 C17 1_555 1_555
C19 N5 1_555 1_555
H13 C19 1_555 1_555
C20 N6 1_555 1_555
C21 H14 1_555 1_555
C22 C21 1_555 1_555
C23 C22 1_555 1_555
H15 C23 1_555 1_555
C24 C23 1_555 1_555
H16 C24 1_555 1_555
C25 C24 1_555 1_555
C26 C25 1_555 1_555
H17 C26 1_555 1_555
C27 C22 1_555 1_555
H18 C27 1_555 1_555
C28 C25 1_555 1_555
As1 F1 1_555 1_555
F2 As1 1_555 1_555
H19 N2 1_555 1_555
H20 N6 1_555 1_555
F3 As1 1_555 1_555
F4 As1 1_555 1_555
F5 As1 1_555 1_555
F6 As1 1_555 1_555
Ag1G N4 1_555 1_555
N4G Ag1 1_555 1_555
C4 C5 1_555 1_555
C4 C6 1_555 1_555
C12 C13 1_555 1_555
C18 C19 1_555 1_555
C18 C20 1_555 1_555
C26 C27 1_555 1_555

#END
