
#######################################################################
#
#                 Cambridge Crystallographic Data Centre
#                                CCDC 
#
#######################################################################
#
# If this CIF has been generated from an entry in the Cambridge 
# Structural Database, then it will include bibliographic, chemical, 
# crystal, experimental, refinement or atomic coordinate data resulting 
# from the CCDC's data processing and validation procedures.
#
#######################################################################

data_FOWJIL
_symmetry_cell_setting           monoclinic
_symmetry_space_group_name_H-M   'C 2/c'
_symmetry_Int_Tables_number      15
_space_group_name_Hall           '-C 2yn'
loop_
_symmetry_equiv_pos_site_id
_symmetry_equiv_pos_as_xyz
1 x,y,z
2 -x,y,1/2-z
3 1/2+x,1/2+y,z
4 1/2-x,1/2+y,1/2-z
5 -x,-y,-z
6 x,-y,1/2+z
7 1/2-x,1/2-y,-z
8 1/2+x,1/2-y,1/2+z
_cell_length_a                   25.818(4)
_cell_length_b                   7.4077(10)
_cell_length_c                   11.0276(15)
_cell_angle_alpha                90
_cell_angle_beta                 113.843(2)
_cell_angle_gamma                90
_cell_volume                     1929.06
loop_
_atom_site_label
_atom_site_type_symbol
_atom_site_fract_x
_atom_site_fract_y
_atom_site_fract_z
C1 C 0.43493(9) 0.3626(3) 0.9002(2)
H1 H 0.4636 0.3440 0.9838
C2 C 0.39121(9) 0.3614(3) 0.6932(2)
H2 H 0.3808 0.3457 0.6027
C3 C 0.43726(8) 0.1295(3) 0.4171(2)
C4 C 0.30256(8) 0.5013(3) 0.68395(18)
C5 C 0.27688(11) 0.5921(3) 0.7544(2)
H3 H 0.2974 0.6177 0.8437
C6 C 0.22301(10) 0.5174(4) 0.4984(2)
H4 H 0.2029 0.4949 0.4084
C7 C 0.19638(11) 0.6044(3) 0.5671(3)
H5 H 0.1586 0.6371 0.5226
Cd1 Cd 0.5000 0.10030(3) 0.7500
N1 N 0.43983(7) 0.3119(2) 0.78646(17)
N2 N 0.44450(9) 0.1113(3) 0.52590(19)
N3 N 0.35900(7) 0.4377(2) 0.74783(16)
N4 N 0.38687(8) 0.4394(2) 0.88241(17)
N5 N 0.27701(8) 0.4642(3) 0.55708(17)
N6 N 0.22297(9) 0.6433(3) 0.6954(2)
S1 S 0.42760(3) 0.15916(10) 0.26218(5)
C1A C 0.56507(9) 0.3626(3) 0.5998(2)
H1A H 0.5364 0.3440 0.5162
C2A C 0.60879(9) 0.3614(3) 0.8068(2)
H2A H 0.6192 0.3457 0.8973
C3A C 0.56274(8) 0.1295(3) 1.0829(2)
C4A C 0.69744(8) 0.5013(3) 0.81605(18)
C5A C 0.72312(11) 0.5921(3) 0.7456(2)
H3A H 0.7026 0.6177 0.6563
C6A C 0.77699(10) 0.5174(4) 1.0016(2)
H4A H 0.7971 0.4949 1.0916
C7A C 0.80362(11) 0.6044(3) 0.9329(3)
H5A H 0.8414 0.6371 0.9774
Cd1D Cd 0.5000 -0.10030(3) 0.2500
Cd1D_2 Cd 0.5000 -0.10030(3) 1.2500
N1A N 0.56017(7) 0.3119(2) 0.71354(17)
N2A N 0.55550(9) 0.1113(3) 0.97410(19)
N3A N 0.64100(7) 0.4377(2) 0.75217(16)
N4A N 0.61313(8) 0.4394(2) 0.61759(17)
N5A N 0.72299(8) 0.4642(3) 0.94292(17)
N6A N 0.77703(9) 0.6433(3) 0.8046(2)
S1A S 0.57240(3) 0.15916(10) 1.23782(5)
S1E S 0.42760(3) -0.15916(10) 0.76218(5)
S1D S 0.57240(3) -0.15916(10) 0.73782(5)
loop_
_geom_bond_atom_site_label_1
_geom_bond_atom_site_label_2
_geom_bond_site_symmetry_1
_geom_bond_site_symmetry_2
C1 H1 1_555 1_555
C2 H2 1_555 1_555
C3 N2 1_555 1_555
C4 C5 1_555 1_555
C5 H3 1_555 1_555
C6 H4 1_555 1_555
C7 C6 1_555 1_555
H5 C7 1_555 1_555
Cd1 N1 1_555 1_555
N1 C1 1_555 1_555
N2 Cd1 1_555 1_555
N3 C2 1_555 1_555
N4 C1 1_555 1_555
N5 C4 1_555 1_555
N6 C5 1_555 1_555
S1 C3 1_555 1_555
C1A H1A 1_555 1_555
C2A H2A 1_555 1_555
C3A N2A 1_555 1_555
C4A C5A 1_555 1_555
C5A H3A 1_555 1_555
C6A H4A 1_555 1_555
C7A C6A 1_555 1_555
H5A C7A 1_555 1_555
Cd1D S1 1_555 1_555
Cd1D_2 S1A 1_555 1_555
N1A Cd1 1_555 1_555
N2A Cd1 1_555 1_555
N3A C2A 1_555 1_555
N4A C1A 1_555 1_555
N5A C4A 1_555 1_555
N6A C5A 1_555 1_555
S1A C3A 1_555 1_555
S1E Cd1 1_555 1_555
S1D Cd1 1_555 1_555
C2 N1 1_555 1_555
C4 N3 1_555 1_555
C6 N5 1_555 1_555
C7 N6 1_555 1_555
N3 N4 1_555 1_555
C1A N1A 1_555 1_555
C2A N1A 1_555 1_555
C4A N3A 1_555 1_555
C6A N5A 1_555 1_555
C7A N6A 1_555 1_555
N3A N4A 1_555 1_555

#END
