
#######################################################################
#
#                 Cambridge Crystallographic Data Centre
#                                CCDC 
#
#######################################################################
#
# If this CIF has been generated from an entry in the Cambridge 
# Structural Database, then it will include bibliographic, chemical, 
# crystal, experimental, refinement or atomic coordinate data resulting 
# from the CCDC's data processing and validation procedures.
#
#######################################################################

data_FOWKEI
_symmetry_cell_setting           triclinic
_symmetry_space_group_name_H-M   'P -1'
_symmetry_Int_Tables_number      2
_space_group_name_Hall           '-P 1'
loop_
_symmetry_equiv_pos_site_id
_symmetry_equiv_pos_as_xyz
1 x,y,z
2 -x,-y,-z
_cell_length_a                   8.959(5)
_cell_length_b                   11.505(5)
_cell_length_c                   11.691(5)
_cell_angle_alpha                67.219(5)
_cell_angle_beta                 76.434(5)
_cell_angle_gamma                89.555(5)
_cell_volume                     1075.38
loop_
_atom_site_label
_atom_site_type_symbol
_atom_site_fract_x
_atom_site_fract_y
_atom_site_fract_z
Zn1 Zn 0.22324(4) 0.16358(3) 0.84090(3)
O1 O 0.1608(2) -0.02160(18) 0.87917(19)
O2 O 0.1060(3) 0.0767(2) 1.1643(2)
O3 O -0.0271(2) 0.20043(17) 0.88909(18)
O4 O 0.1579(2) 0.3439(2) 0.8484(2)
O5 O 0.3082(3) 0.1033(2) 0.99979(18)
N1 N 0.1984(3) 0.2138(2) 0.6449(2)
N2 N 0.4515(3) 0.2360(2) 0.7226(2)
C1 C 0.0755(4) 0.1957(3) 0.6072(3)
H1 H -0.0132 0.1519 0.6694
C2 C 0.4100(3) 0.0176(2) 1.4115(3)
C3 C -0.5257(3) 0.3825(2) 1.0003(3)
H2 H -0.5435 0.3024 1.0014
C4 C 0.3274(3) 0.2775(2) 0.5531(2)
C5 C 0.5967(4) 0.3587(3) 0.5039(3)
C6 C 0.3323(4) 0.3264(3) 0.4225(3)
C7 C -0.3744(3) 0.4296(2) 0.9805(2)
C8 C 0.7138(4) 0.3119(3) 0.6779(4)
H3 H 0.7988 0.3171 0.7092
C9 C 0.3115(4) 0.0349(3) 1.3225(3)
H4 H 0.2058 0.0276 1.3575
C10 C 0.3556(4) 0.0593(3) 1.1999(3)
H5 H 0.4604 0.0638 1.1629
C11 C -0.2477(3) 0.3549(2) 0.9552(3)
H6 H -0.2753 0.2706 0.9736
C12 C 0.5685(4) 0.0473(3) 1.3708(3)
H7 H 0.6161 0.0793 1.2835
C13 C 0.3435(4) -0.0305(3) 1.5437(3)
H8 H 0.2376 -0.0515 1.5741
C14 C -0.3509(3) 0.5488(2) 0.9820(2)
H9 H -0.2517 0.5818 0.9709
C15 C 0.4611(3) 0.2916(2) 0.5953(2)
C16 C 0.7236(4) 0.3696(3) 0.5503(4)
H10 H 0.8145 0.4161 0.4941
C17 C -0.0978(3) 0.3927(3) 0.9090(3)
H11 H -0.0641 0.4748 0.8939
C18 C 0.2003(4) 0.3045(3) 0.3869(3)
H12 H 0.1996 0.3345 0.3009
C19 C 0.0726(4) 0.2386(3) 0.4800(3)
H13 H -0.0160 0.2227 0.4578
C20 C 0.2466(4) 0.0804(2) 1.1161(3)
C21 C 0.0161(3) 0.3079(3) 0.8811(3)
C22 C 0.5968(4) 0.4111(3) 0.3712(3)
H14 H 0.6851 0.4579 0.3107
C23 C 0.4736(4) 0.3944(3) 0.3323(3)
H15 H 0.4788 0.4273 0.2450
C24 C 0.5761(4) 0.2450(3) 0.7616(3)
H16 H 0.5717 0.2052 0.8486
H19 H 0.073(4) -0.019(4) 0.863(4)
H20 H 0.144(4) -0.074(3) 0.958(2)
Zn1A Zn -1.22324(4) 0.83642(3) 1.15910(3)
Zn1A_2 Zn 0.77676(4) -0.16358(3) 2.15910(3)
O1A O -1.1608(2) 1.02160(18) 1.12083(19)
O2A O 0.8940(3) -0.0767(2) 1.8357(2)
O3A O -0.9729(2) 0.79957(17) 1.11091(18)
O4A O -1.1579(2) 0.6561(2) 1.1516(2)
O5A O 0.6918(3) -0.1033(2) 2.00021(18)
O5A_2 O -1.3082(3) 0.8967(2) 1.00021(18)
N1A N -1.1984(3) 0.7862(2) 1.3551(2)
N2A N -1.4515(3) 0.7640(2) 1.2774(2)
C1A C -1.0755(4) 0.8043(3) 1.3928(3)
H1A H -0.9868 0.8481 1.3306
C2A C 0.5900(3) -0.0176(2) 1.5885(3)
C3A C -0.4743(3) 0.6175(2) 0.9997(3)
H2A H -0.4565 0.6976 0.9986
C4A C -1.3274(3) 0.7225(2) 1.4469(2)
C5A C -1.5967(4) 0.6413(3) 1.4961(3)
C6A C -1.3323(4) 0.6736(3) 1.5775(3)
C7A C -0.6256(3) 0.5704(2) 1.0195(2)
C8A C -1.7138(4) 0.6881(3) 1.3221(4)
H3A H -1.7988 0.6829 1.2908
C9A C 0.6885(4) -0.0349(3) 1.6775(3)
H4A H 0.7942 -0.0276 1.6425
C10A C 0.6444(4) -0.0593(3) 1.8001(3)
H5A H 0.5396 -0.0638 1.8371
C11A C -0.7523(3) 0.6451(2) 1.0448(3)
H6A H -0.7247 0.7294 1.0264
C12A C 0.4315(4) -0.0473(3) 1.6292(3)
H7A H 0.3839 -0.0793 1.7165
C13A C 0.6565(4) 0.0305(3) 1.4563(3)
H8A H 0.7624 0.0515 1.4259
C14A C -0.6491(3) 0.4512(2) 1.0180(2)
H9A H -0.7483 0.4182 1.0291
C15A C -1.4611(3) 0.7084(2) 1.4047(2)
C16A C -1.7236(4) 0.6304(3) 1.4497(4)
H10A H -1.8145 0.5839 1.5059
C17A C -0.9022(3) 0.6073(3) 1.0910(3)
H11A H -0.9359 0.5252 1.1061
C18A C -1.2003(4) 0.6955(3) 1.6131(3)
H12A H -1.1996 0.6655 1.6991
C19A C -1.0726(4) 0.7614(3) 1.5200(3)
H13A H -0.9840 0.7773 1.5422
C20A C 0.7534(4) -0.0804(2) 1.8839(3)
C21A C -1.0161(3) 0.6921(3) 1.1189(3)
C22A C -1.5968(4) 0.5889(3) 1.6288(3)
H14A H -1.6851 0.5421 1.6893
C23A C -1.4736(4) 0.6056(3) 1.6677(3)
H15A H -1.4788 0.5727 1.7550
C24A C -1.5761(4) 0.7550(3) 1.2384(3)
H16A H -1.5717 0.7948 1.1514
H19A H -1.073(4) 1.019(4) 1.137(4)
H20A H -1.144(4) 1.074(3) 1.042(2)
O6 O -0.0410(4) 0.2769(3) 1.2193(3)
H17 H -0.121(4) 0.275(5) 1.198(6)
H18 H 0.008(5) 0.223(4) 1.202(6)
loop_
_geom_bond_atom_site_label_1
_geom_bond_atom_site_label_2
_geom_bond_site_symmetry_1
_geom_bond_site_symmetry_2
Zn1 O1 1_555 1_555
O1 H19 1_555 1_555
O2 C20 1_555 1_555
O3 Zn1 1_555 1_555
O4 Zn1 1_555 1_555
O5 Zn1 1_555 1_555
N1 Zn1 1_555 1_555
N2 Zn1 1_555 1_555
C1 N1 1_555 1_555
H1 C1 1_555 1_555
C2 C9 1_555 1_555
C3 H2 1_555 1_555
C4 N1 1_555 1_555
C5 C15 1_555 1_555
C6 C4 1_555 1_555
C7 C3 1_555 1_555
C8 H3 1_555 1_555
C9 H4 1_555 1_555
C10 C9 1_555 1_555
H5 C10 1_555 1_555
C11 C7 1_555 1_555
H6 C11 1_555 1_555
C12 C2 1_555 1_555
H7 C12 1_555 1_555
C13 C2 1_555 1_555
H8 C13 1_555 1_555
C14 C7 1_555 1_555
H9 C14 1_555 1_555
C15 N2 1_555 1_555
C16 C5 1_555 1_555
H10 C16 1_555 1_555
C17 C11 1_555 1_555
H11 C17 1_555 1_555
C18 C6 1_555 1_555
H12 C18 1_555 1_555
C19 C1 1_555 1_555
H13 C19 1_555 1_555
C20 O5 1_555 1_555
C21 O3 1_555 1_555
C22 C5 1_555 1_555
H14 C22 1_555 1_555
C23 C6 1_555 1_555
H15 C23 1_555 1_555
C24 N2 1_555 1_555
H16 C24 1_555 1_555
O6 H17 1_555 1_555
H18 O6 1_555 1_555
H20 O1 1_555 1_555
Zn1A O1A 1_555 1_555
Zn1A_2 O5A 1_555 1_555
O1A H19A 1_555 1_555
O2A C20A 1_555 1_555
O3A Zn1A 1_555 1_555
O4A Zn1A 1_555 1_555
O5A C20A 1_555 1_555
O5A_2 Zn1A 1_555 1_555
N1A Zn1A 1_555 1_555
N2A Zn1A 1_555 1_555
C1A N1A 1_555 1_555
H1A C1A 1_555 1_555
C2A C9A 1_555 1_555
C3A C14 1_555 1_555
H2A C3A 1_555 1_555
C4A N1A 1_555 1_555
C5A C15A 1_555 1_555
C6A C4A 1_555 1_555
C7A C3A 1_555 1_555
C8A H3A 1_555 1_555
C9A H4A 1_555 1_555
C10A C9A 1_555 1_555
H5A C10A 1_555 1_555
C11A C7A 1_555 1_555
H6A C11A 1_555 1_555
C12A C13 1_555 1_555
H7A C12A 1_555 1_555
C13A C12 1_555 1_555
H8A C13A 1_555 1_555
C14A C3 1_555 1_555
H9A C14A 1_555 1_555
C15A N2A 1_555 1_555
C16A C5A 1_555 1_555
H10A C16A 1_555 1_555
C17A C11A 1_555 1_555
H11A C17A 1_555 1_555
C18A C6A 1_555 1_555
H12A C18A 1_555 1_555
C19A C1A 1_555 1_555
H13A C19A 1_555 1_555
C20A C10A 1_555 1_555
C21A O3A 1_555 1_555
C22A C5A 1_555 1_555
H14A C22A 1_555 1_555
C23A C6A 1_555 1_555
H15A C23A 1_555 1_555
C24A N2A 1_555 1_555
H16A C24A 1_555 1_555
H20A O1A 1_555 1_555
O4 C21 1_555 1_555
C4 C15 1_555 1_555
C8 C16 1_555 1_555
C8 C24 1_555 1_555
C10 C20 1_555 1_555
C17 C21 1_555 1_555
C18 C19 1_555 1_555
C22 C23 1_555 1_555
O4A C21A 1_555 1_555
C2A C12A 1_555 1_555
C2A C13A 1_555 1_555
C4A C15A 1_555 1_555
C7A C14A 1_555 1_555
C8A C16A 1_555 1_555
C8A C24A 1_555 1_555
C17A C21A 1_555 1_555
C18A C19A 1_555 1_555
C22A C23A 1_555 1_555

#END
