
#######################################################################
#
#                 Cambridge Crystallographic Data Centre
#                                CCDC 
#
#######################################################################
#
# If this CIF has been generated from an entry in the Cambridge 
# Structural Database, then it will include bibliographic, chemical, 
# crystal, experimental, refinement or atomic coordinate data resulting 
# from the CCDC's data processing and validation procedures.
#
#######################################################################

data_FOWTIW
_symmetry_cell_setting           monoclinic
_symmetry_space_group_name_H-M   'C 2/c'
_symmetry_Int_Tables_number      15
_space_group_name_Hall           '-C 2yn'
loop_
_symmetry_equiv_pos_site_id
_symmetry_equiv_pos_as_xyz
1 x,y,z
2 1/2+x,1/2+y,z
3 -x,y,1/2-z
4 1/2-x,1/2+y,1/2-z
5 -x,-y,-z
6 1/2-x,1/2-y,-z
7 x,-y,1/2+z
8 1/2+x,1/2-y,1/2+z
_cell_length_a                   24.4454(4)
_cell_length_b                   6.47485(9)
_cell_length_c                   11.0557(2)
_cell_angle_alpha                90
_cell_angle_beta                 109.823(2)
_cell_angle_gamma                90
_cell_volume                     1646.21
loop_
_atom_site_label
_atom_site_type_symbol
_atom_site_fract_x
_atom_site_fract_y
_atom_site_fract_z
S1 S 0.411980(9) 0.95018(3) 0.627264(19)
O1 O 0.40794(3) 0.75985(12) 0.69346(7)
O2 O 0.45398(3) 0.94146(12) 0.56078(8)
Na1 Na 0.485690(18) 0.74043(6) 0.40959(4)
O3 O 0.41776(3) 1.13151(12) 0.70739(7)
O4 O 0.56959(3) 0.56208(12) 0.56113(8)
H1 H 0.5790(11) 0.637(4) 0.627(2)
H2 H 0.5982(12) 0.558(4) 0.539(3)
O5 O 0.5000 0.52272(17) 0.2500
H3 H 0.4683(12) 0.440(4) 0.217(3)
C1 C 0.34452(4) 0.97447(14) 0.50290(9)
O6 O 0.29659(3) 0.99024(11) 0.53857(7)
C2 C 0.25063(4) 1.00929(15) 0.42517(9)
C3 C 0.26944(4) 1.00467(17) 0.32227(9)
C4 C 0.33100(5) 0.98073(17) 0.37310(9)
H4 H 0.3570(12) 0.971(3) 0.335(2)
H5 H 0.2458(12) 1.009(3) 0.234(2)
C5 C 0.19245(4) 1.03254(15) 0.42864(10)
O7 O 0.17991(4) 1.02764(13) 0.52673(8)
H6 H 0.1623(12) 1.062(4) 0.348(3)
H3B H 0.5317(12) 0.440(4) 0.283(3)
S1D S 0.588020(9) 0.04982(3) 0.372736(19)
O1D O 0.59206(3) 0.24015(12) 0.30654(7)
O2D O 0.54602(3) 0.05854(12) 0.43922(8)
Na1D Na 0.514310(18) 0.25957(6) 0.59041(4)
O3D O 0.58224(3) -0.13151(12) 0.29261(7)
O4D O 0.43041(3) 0.43792(12) 0.43887(8)
H1D H 0.4210(11) 0.363(4) 0.373(2)
H2D H 0.4018(12) 0.442(4) 0.461(3)
C1D C 0.65548(4) 0.02553(14) 0.49710(9)
O6D O 0.70341(3) 0.00976(11) 0.46143(7)
C2D C 0.74937(4) -0.00929(15) 0.57483(9)
C3D C 0.73056(4) -0.00467(17) 0.67773(9)
C4D C 0.66900(5) 0.01927(17) 0.62690(9)
H4D H 0.6430(12) 0.029(3) 0.665(2)
H5D H 0.7542(12) -0.009(3) 0.766(2)
C5D C 0.80755(4) -0.03254(15) 0.57136(10)
O7D O 0.82009(4) -0.02764(13) 0.47327(8)
H6D H 0.8377(12) -0.062(4) 0.652(3)
O2_2 O 0.45398(3) -0.05854(12) 0.56078(8)
O2D_2 O 0.54602(3) 1.05854(12) 0.43922(8)
Na1_2 Na 0.485690(18) -0.25957(6) 0.40959(4)
Na1D_2 Na 0.514310(18) 1.25957(6) 0.59041(4)
Na1F Na 0.485690(18) 1.25957(6) 0.90959(4)
Na1B Na 0.514310(18) -0.25957(6) 0.09041(4)
Na1B_2 Na 0.514310(18) 0.74043(6) 0.09041(4)
O3F O 0.41776(3) 0.86849(12) 0.20739(7)
O3B O 0.58224(3) 0.13151(12) 0.79261(7)
O5D O 0.5000 0.47728(17) 0.7500
loop_
_geom_bond_atom_site_label_1
_geom_bond_atom_site_label_2
_geom_bond_site_symmetry_1
_geom_bond_site_symmetry_2
S1 O1 1_555 1_555
O2 S1 1_555 1_555
Na1 O2 1_555 1_555
O3 S1 1_555 1_555
O4 Na1 1_555 1_555
H1 O4 1_555 1_555
H2 O4 1_555 1_555
O5 Na1 1_555 1_555
H3 O5 1_555 1_555
C1 S1 1_555 1_555
O6 C1 1_555 1_555
C2 O6 1_555 1_555
C3 C2 1_555 1_555
C4 C1 1_555 1_555
H4 C4 1_555 1_555
H5 C3 1_555 1_555
C5 C2 1_555 1_555
O7 C5 1_555 1_555
H6 C5 1_555 1_555
H3B O5 1_555 1_555
S1D O1D 1_555 1_555
O2D S1D 1_555 1_555
Na1D O4 1_555 1_555
O3D S1D 1_555 1_555
O4D Na1 1_555 1_555
H1D O4D 1_555 1_555
H2D O4D 1_555 1_555
C1D S1D 1_555 1_555
O6D C1D 1_555 1_555
C2D O6D 1_555 1_555
C3D C2D 1_555 1_555
C4D C1D 1_555 1_555
H4D C4D 1_555 1_555
H5D C3D 1_555 1_555
C5D C2D 1_555 1_555
O7D C5D 1_555 1_555
H6D C5D 1_555 1_555
O2_2 Na1D 1_555 1_555
O2D_2 Na1 1_555 1_555
Na1_2 O2D 1_555 1_555
Na1D_2 O2 1_555 1_555
Na1F O3 1_555 1_555
Na1B O3D 1_555 1_555
Na1B_2 O5 1_555 1_555
O3F Na1 1_555 1_555
O3B Na1D 1_555 1_555
O5D Na1D 1_555 1_555
C3 C4 1_555 1_555
O2D Na1D 1_555 1_555
Na1D O4D 1_555 1_555
C3D C4D 1_555 1_555
O2_2 Na1_2 1_555 1_555
O2D_2 Na1D_2 1_555 1_555

#END
