
#######################################################################
#
#                 Cambridge Crystallographic Data Centre
#                                CCDC 
#
#######################################################################
#
# If this CIF has been generated from an entry in the Cambridge 
# Structural Database, then it will include bibliographic, chemical, 
# crystal, experimental, refinement or atomic coordinate data resulting 
# from the CCDC's data processing and validation procedures.
#
#######################################################################

data_FOWWIZ
_symmetry_cell_setting           monoclinic
_symmetry_space_group_name_H-M   'C 2/c'
_symmetry_Int_Tables_number      15
_space_group_name_Hall           '-C 2yn'
loop_
_symmetry_equiv_pos_site_id
_symmetry_equiv_pos_as_xyz
1 x,y,z
2 -x,y,1/2-z
3 1/2+x,1/2+y,z
4 1/2-x,1/2+y,1/2-z
5 -x,-y,-z
6 x,-y,1/2+z
7 1/2-x,1/2-y,-z
8 1/2+x,1/2-y,1/2+z
_cell_length_a                   22.957(2)
_cell_length_b                   13.3907(14)
_cell_length_c                   23.079(3)
_cell_angle_alpha                90
_cell_angle_beta                 113.7370(10)
_cell_angle_gamma                90
_cell_volume                     6494.53
loop_
_atom_site_label
_atom_site_type_symbol
_atom_site_fract_x
_atom_site_fract_y
_atom_site_fract_z
Pr1 Pr 0.733716(12) 0.206335(18) 0.231717(12)
O1 O 0.73470(17) 0.2480(3) 0.33390(17)
O2 O 0.7122(3) 0.2302(4) 0.4173(3)
O3 O 0.30637(16) -0.3543(2) 0.18567(15)
O4 O 0.39724(18) -0.4283(3) 0.19901(19)
O5 O 0.74604(16) 0.3887(2) 0.25008(15)
O6 O 0.72210(16) 0.5460(2) 0.21787(16)
O7 O 0.4365(2) 0.8865(4) -0.0563(2)
O8 O 0.34289(17) 0.8742(2) -0.13804(16)
N1 N 0.65513(19) 0.1012(3) 0.2723(2)
N2 N 0.3571(2) -0.2691(3) 0.2992(2)
N3 N 0.72363(19) 0.3254(3) 0.13444(19)
N4 N 0.38285(19) 0.7169(3) -0.18438(19)
C1 C 0.6205(3) 0.0225(4) 0.2445(3)
H1 H 0.6147 0.0081 0.2031
C2 C 0.5920(3) -0.0403(4) 0.2738(3)
H2 H 0.5683 -0.0951 0.2522
C3 C 0.5990(3) -0.0210(4) 0.3346(3)
C4 C 0.6349(3) 0.0618(4) 0.3631(3)
H3 H 0.6403 0.0792 0.4040
C5 C 0.6630(2) 0.1194(4) 0.3314(3)
C6 C 0.7061(3) 0.2070(4) 0.3628(3)
C7 C 0.5706(3) -0.0866(4) 0.3701(3)
H4 H 0.5833 -0.0609 0.4127
H5 H 0.5246 -0.0830 0.3493
C8 C 0.5907(3) -0.1929(4) 0.3735(3)
H6 H 0.6364 -0.1966 0.3968
H7 H 0.5808 -0.2167 0.3309
C9 C 0.5590(3) -0.2624(5) 0.4050(3)
H8 H 0.5765 -0.3290 0.4078
H9 H 0.5689 -0.2391 0.4477
C10 C 0.3832(3) -0.2210(4) 0.3546(3)
H10 H 0.3565 -0.1879 0.3698
C11 C 0.4483(3) -0.2184(4) 0.3904(3)
H11 H 0.4643 -0.1836 0.4285
C12 C 0.4892(3) -0.2669(4) 0.3700(3)
C13 C 0.4614(3) -0.3185(4) 0.3137(3)
H12 H 0.4870 -0.3546 0.2986
C14 C 0.3969(2) -0.3179(3) 0.2794(2)
C15 C 0.3650(3) -0.3721(4) 0.2164(3)
C16 C 0.7152(2) 0.4235(3) 0.1412(2)
C17 C 0.6966(2) 0.4898(4) 0.0923(2)
H13 H 0.6895 0.5563 0.0991
C18 C 0.6881(2) 0.4578(4) 0.0318(2)
C19 C 0.6991(2) 0.3574(4) 0.0261(2)
H14 H 0.6949 0.3320 -0.0129
C20 C 0.7162(3) 0.2952(4) 0.0773(3)
H15 H 0.7229 0.2281 0.0716
C21 C 0.7287(2) 0.4557(3) 0.2087(2)
C22 C 0.6669(2) 0.5280(4) -0.0241(3)
H16 H 0.6937 0.5869 -0.0126
H17 H 0.6731 0.4955 -0.0588
C23 C 0.5984(2) 0.5601(4) -0.0468(2)
H18 H 0.5923 0.5969 -0.0135
H19 H 0.5713 0.5015 -0.0565
C24 C 0.5795(3) 0.6249(5) -0.1051(3)
H20 H 0.6058 0.6844 -0.0945
H21 H 0.5882 0.5888 -0.1372
C25 C 0.4255(2) 0.7611(4) -0.1327(2)
C26 C 0.4891(3) 0.7332(4) -0.1060(3)
H22 H 0.5173 0.7661 -0.0702
C27 C 0.5107(2) 0.6560(4) -0.1326(2)
C28 C 0.4663(3) 0.6101(4) -0.1848(2)
H23 H 0.4782 0.5573 -0.2039
C29 C 0.4041(3) 0.6421(4) -0.2089(2)
H24 H 0.3751 0.6097 -0.2444
C30 C 0.3999(3) 0.8474(4) -0.1063(3)
Pr1B Pr 0.233716(12) -0.293665(18) 0.231717(12)
Pr1C Pr 0.766284(12) 0.706335(18) 0.268283(12)
Pr1D Pr 0.266284(12) 0.793665(18) -0.231717(12)
O3B O 0.80637(16) 0.1457(2) 0.18567(15)
O6C O 0.77790(16) 0.0460(2) 0.28213(16)
O8D O 0.65711(17) 0.1258(2) 0.13804(16)
N2B N 0.8571(2) 0.2309(3) 0.2992(2)
N4D N 0.61715(19) 0.2831(3) 0.18438(19)
O9 O 0.8182(6) 0.3555(9) 0.4827(6)
O11 O 0.4385(13) 0.983(2) 0.4730(13)
N5 N 0.7533(3) 0.4640(3) 0.3702(2)
H25 H 0.7199 0.5035 0.3569
H26 H 0.7877 0.4986 0.3930
H27 H 0.7478 0.4165 0.3941
H28 H 0.7584 0.4364 0.3383
O10? O 0.8346(7) 0.2913(9) 0.4889(6)
O12? O 0.3486(15) 0.987(2) 0.4691(13)
loop_
_geom_bond_atom_site_label_1
_geom_bond_atom_site_label_2
_geom_bond_site_symmetry_1
_geom_bond_site_symmetry_2
Pr1 O1 1_555 1_555
O1 C6 1_555 1_555
O2 C6 1_555 1_555
O3 C15 1_555 1_555
O4 C15 1_555 1_555
O5 Pr1 1_555 1_555
O6 C21 1_555 1_555
O7 C30 1_555 1_555
O8 C30 1_555 1_555
N1 Pr1 1_555 1_555
N2 C10 1_555 1_555
N3 Pr1 1_555 1_555
N4 C25 1_555 1_555
C1 N1 1_555 1_555
H1 C1 1_555 1_555
C2 C1 1_555 1_555
H2 C2 1_555 1_555
C3 C2 1_555 1_555
C4 C3 1_555 1_555
H3 C4 1_555 1_555
C5 N1 1_555 1_555
C6 C5 1_555 1_555
C7 C3 1_555 1_555
H4 C7 1_555 1_555
H5 C7 1_555 1_555
C8 C7 1_555 1_555
H6 C8 1_555 1_555
H7 C8 1_555 1_555
C9 C8 1_555 1_555
H8 C9 1_555 1_555
H9 C9 1_555 1_555
C10 H10 1_555 1_555
C11 C10 1_555 1_555
H11 C11 1_555 1_555
C12 C9 1_555 1_555
C13 C12 1_555 1_555
H12 C13 1_555 1_555
C14 N2 1_555 1_555
C15 C14 1_555 1_555
C16 N3 1_555 1_555
C17 C16 1_555 1_555
H13 C17 1_555 1_555
C18 C17 1_555 1_555
C19 C18 1_555 1_555
H14 C19 1_555 1_555
C20 N3 1_555 1_555
H15 C20 1_555 1_555
C21 O5 1_555 1_555
C22 C18 1_555 1_555
H16 C22 1_555 1_555
H17 C22 1_555 1_555
C23 C22 1_555 1_555
H18 C23 1_555 1_555
H19 C23 1_555 1_555
C24 C23 1_555 1_555
H20 C24 1_555 1_555
H21 C24 1_555 1_555
C25 C26 1_555 1_555
C26 H22 1_555 1_555
C27 C24 1_555 1_555
C28 C27 1_555 1_555
H23 C28 1_555 1_555
C29 N4 1_555 1_555
H24 C29 1_555 1_555
C30 C25 1_555 1_555
N5 H25 1_555 1_555
H26 N5 1_555 1_555
H27 N5 1_555 1_555
H28 N5 1_555 1_555
Pr1B O3 1_555 1_555
Pr1C O6 1_555 1_555
Pr1D O8 1_555 1_555
O3B Pr1 1_555 1_555
O6C Pr1 1_555 1_555
O8D Pr1 1_555 1_555
N2B Pr1 1_555 1_555
N4D Pr1 1_555 1_555
N2 Pr1B 1_555 1_555
N4 Pr1D 1_555 1_555
C4 C5 1_555 1_555
C11 C12 1_555 1_555
C13 C14 1_555 1_555
C16 C21 1_555 1_555
C19 C20 1_555 1_555
C26 C27 1_555 1_555
C28 C29 1_555 1_555

#END
