
#######################################################################
#
#                 Cambridge Crystallographic Data Centre
#                                CCDC 
#
#######################################################################
#
# If this CIF has been generated from an entry in the Cambridge 
# Structural Database, then it will include bibliographic, chemical, 
# crystal, experimental, refinement or atomic coordinate data resulting 
# from the CCDC's data processing and validation procedures.
#
#######################################################################

data_FOWXOG
_symmetry_cell_setting           monoclinic
_symmetry_space_group_name_H-M   'C 2/c'
_symmetry_Int_Tables_number      15
_space_group_name_Hall           '-C 2yn'
loop_
_symmetry_equiv_pos_site_id
_symmetry_equiv_pos_as_xyz
1 x,y,z
2 -x,y,1/2-z
3 1/2+x,1/2+y,z
4 1/2-x,1/2+y,1/2-z
5 -x,-y,-z
6 x,-y,1/2+z
7 1/2-x,1/2-y,-z
8 1/2+x,1/2-y,1/2+z
_cell_length_a                   20.6176(10)
_cell_length_b                   13.5558(7)
_cell_length_c                   15.5707(7)
_cell_angle_alpha                90
_cell_angle_beta                 123.3990(10)
_cell_angle_gamma                90
_cell_volume                     3633.15
loop_
_atom_site_label
_atom_site_type_symbol
_atom_site_fract_x
_atom_site_fract_y
_atom_site_fract_z
I1 I 0.59212(3) 0.62565(3) 0.41866(3)
I2 I 0.41579(2) 0.39206(3) 0.29529(3)
Br1 Br 0.63642(5) -0.12692(5) 0.71046(7)
Br2 Br 0.64422(5) -0.11101(5) 0.45615(7)
Cu1 Cu 0.44519(5) 0.58499(7) 0.26907(7)
Cu2 Cu 0.56148(5) 0.43788(6) 0.35025(7)
S1 S 0.64337(10) 0.34757(12) 0.70031(12)
S2 S 0.64863(9) 0.36066(12) 0.50566(13)
C1 C 0.5933(4) 0.3750(5) 0.5646(5)
H1 H 0.5745 0.4440 0.5540
H2 H 0.5469 0.3320 0.5274
C2 C 0.6398(4) 0.2160(5) 0.7026(5)
C3 C 0.7063(4) 0.1661(5) 0.7763(6)
H3 H 0.7520 0.2018 0.8239
C4 C 0.7058(4) 0.0635(6) 0.7803(6)
H4 H 0.7508 0.0288 0.8311
C5 C 0.6392(4) 0.0128(5) 0.7097(6)
C6 C 0.5725(4) 0.0625(5) 0.6368(6)
H5 H 0.5270 0.0265 0.5888
C7 C 0.5719(4) 0.1646(5) 0.6338(6)
H6 H 0.5258 0.1992 0.5854
C8 C 0.6472(4) 0.2305(5) 0.4892(5)
C9 C 0.7113(4) 0.1755(5) 0.5603(6)
H7 H 0.7556 0.2077 0.6159
C10 C 0.7115(4) 0.0730(5) 0.5509(6)
H8 H 0.7551 0.0350 0.6001
C11 C 0.6466(4) 0.0279(5) 0.4680(6)
C12 C 0.5830(4) 0.0826(5) 0.3948(5)
H9 H 0.5397 0.0506 0.3377
C13 C 0.5830(4) 0.1843(5) 0.4054(5)
H10 H 0.5395 0.2222 0.3558
I1A I 0.40788(3) 0.62565(3) 0.08134(3)
I2A I 0.58421(2) 0.39206(3) 0.20471(3)
Cu1A Cu 0.55481(5) 0.58499(7) 0.23093(7)
Cu1D Cu 0.55481(5) 0.41501(7) 0.73093(7)
Cu2A Cu 0.43852(5) 0.43788(6) 0.14975(7)
S1D S 0.35663(10) 0.65243(12) 0.29969(12)
loop_
_geom_bond_atom_site_label_1
_geom_bond_atom_site_label_2
_geom_bond_site_symmetry_1
_geom_bond_site_symmetry_2
I1 Cu1 1_555 1_555
I2 Cu1 1_555 1_555
Br1 C5 1_555 1_555
Br2 C11 1_555 1_555
Cu1 I1A 1_555 1_555
Cu2 I1 1_555 1_555
S1 C1 1_555 1_555
S2 Cu2 1_555 1_555
C1 S2 1_555 1_555
H1 C1 1_555 1_555
H2 C1 1_555 1_555
C2 S1 1_555 1_555
C3 C2 1_555 1_555
H3 C3 1_555 1_555
C4 C3 1_555 1_555
H4 C4 1_555 1_555
C5 C4 1_555 1_555
C6 C5 1_555 1_555
H5 C6 1_555 1_555
C7 C2 1_555 1_555
H6 C7 1_555 1_555
C8 S2 1_555 1_555
C9 C8 1_555 1_555
H7 C9 1_555 1_555
C10 C9 1_555 1_555
H8 C10 1_555 1_555
C11 C10 1_555 1_555
C12 C11 1_555 1_555
H9 C12 1_555 1_555
C13 C8 1_555 1_555
H10 C13 1_555 1_555
I1A Cu1A 1_555 1_555
I2A Cu2 1_555 1_555
Cu1A I1 1_555 1_555
Cu1D S1 1_555 1_555
Cu2A I2 1_555 1_555
S1D Cu1 1_555 1_555
I2 Cu2 1_555 1_555
C6 C7 1_555 1_555
C12 C13 1_555 1_555
I1A Cu2A 1_555 1_555
I2A Cu1A 1_555 1_555
I2A Cu2A 1_555 1_555

#END
