
#######################################################################
#
#                 Cambridge Crystallographic Data Centre
#                                CCDC 
#
#######################################################################
#
# If this CIF has been generated from an entry in the Cambridge 
# Structural Database, then it will include bibliographic, chemical, 
# crystal, experimental, refinement or atomic coordinate data resulting 
# from the CCDC's data processing and validation procedures.
#
#######################################################################

data_FOWZAU
_symmetry_cell_setting           orthorhombic
_symmetry_space_group_name_H-M   'P c a 21'
_symmetry_Int_Tables_number      29
_space_group_name_Hall           'P 2c -2ac'
loop_
_symmetry_equiv_pos_site_id
_symmetry_equiv_pos_as_xyz
1 x,y,z
2 -x,-y,1/2+z
3 1/2-x,y,1/2+z
4 1/2+x,-y,z
_cell_length_a                   15.46176(17)
_cell_length_b                   11.47353(13)
_cell_length_c                   40.5252(5)
_cell_angle_alpha                90
_cell_angle_beta                 90
_cell_angle_gamma                90
_cell_volume                     7189.21
loop_
_atom_site_label
_atom_site_type_symbol
_atom_site_fract_x
_atom_site_fract_y
_atom_site_fract_z
C1 C 0.9534(3) 1.2846(5) 0.43370(14)
C2 C 0.9508(3) 1.3604(5) 0.46049(16)
H1 H 0.9294 1.3358 0.4813
C3 C 0.9804(4) 1.4721(5) 0.45569(17)
H2 H 0.9781 1.5258 0.4735
C4 C 1.0134(4) 1.5085(5) 0.42580(16)
H3 H 1.0327 1.5866 0.4233
C5 C 1.0185(3) 1.4324(5) 0.39962(15)
C6 C 0.9880(3) 1.3195(5) 0.40381(13)
H4 H 0.9909 1.2659 0.3860
C7 C 1.0582(4) 1.4693(5) 0.36718(17)
H5 H 1.0500 1.4074 0.3508
H6 H 1.1202 1.4835 0.3702
H7 H 1.0302 1.5408 0.3594
C8 C 0.7326(3) 1.3443(4) 0.43505(14)
C9 C 0.7098(3) 1.4127(5) 0.46145(17)
H8 H 0.6858 1.3787 0.4808
C10 C 0.7222(4) 1.5322(5) 0.45946(17)
H9 H 0.7079 1.5805 0.4777
C11 C 0.7550(4) 1.5808(5) 0.43124(16)
H10 H 0.7620 1.6630 0.4301
C12 C 0.7780(3) 1.5144(5) 0.40461(15)
C13 C 0.7665(3) 1.3948(4) 0.40657(14)
H11 H 0.7820 1.3469 0.3884
C14 C 0.8148(4) 1.5680(5) 0.37364(17)
H12 H 0.8596 1.6247 0.3796
H13 H 0.7686 1.6074 0.3614
H14 H 0.8402 1.5068 0.3598
C15 C 0.8171(3) 1.1467(4) 0.45908(16)
H15 H 0.8253 1.2022 0.4775
H16 H 0.8058 1.0692 0.4689
C16 C 0.8922(3) 0.6493(5) 0.56027(15)
C17 C 0.8602(4) 0.5851(5) 0.53415(17)
H17 H 0.8440 0.6222 0.5141
C18 C 0.8521(4) 0.4656(6) 0.53769(18)
H18 H 0.8284 0.4202 0.5203
C19 C 0.8782(4) 0.4132(5) 0.56627(18)
H19 H 0.8722 0.3311 0.5683
C20 C 0.9131(4) 0.4756(6) 0.59232(18)
C21 C 0.9181(4) 0.5964(5) 0.58891(17)
H20 H 0.9397 0.6423 0.6066
C22 C 0.9459(4) 0.4179(6) 0.6227(2)
H21 H 0.9993 0.3756 0.6176
H22 H 0.9023 0.3631 0.6309
H23 H 0.9577 0.4769 0.6396
C23 C 0.6735(3) 0.7002(4) 0.56456(15)
C24 C 0.6263(3) 0.6497(5) 0.53906(15)
H24 H 0.6110 0.6937 0.5201
C25 C 0.6023(4) 0.5348(5) 0.54191(16)
H25 H 0.5691 0.4992 0.5249
C26 C 0.6263(4) 0.4703(5) 0.56955(17)
H26 H 0.6112 0.3901 0.5707
C27 C 0.6722(4) 0.5209(5) 0.59551(16)
C28 C 0.6950(3) 0.6364(5) 0.59244(16)
H27 H 0.7261 0.6732 0.6098
C29 C 0.6977(4) 0.4504(5) 0.62488(18)
H28 H 0.6490 0.4459 0.6403
H29 H 0.7471 0.4873 0.6358
H30 H 0.7138 0.3716 0.6178
C30 C 0.8020(3) 0.8474(4) 0.53846(16)
H31 H 0.8108 0.9262 0.5291
H32 H 0.7938 0.7932 0.5197
Cu1 Cu 1.11970(4) 0.87619(6) 0.47358(2)
Cu2 Cu 1.00310(4) 0.87640(6) 0.523616(19)
Cu3 Cu 1.00239(4) 1.04309(6) 0.474625(18)
Cu4 Cu 1.11803(4) 1.05236(6) 0.524318(19)
I1 I 0.95814(2) 0.81990(3) 0.462460(9)
I2 I 1.16155(2) 1.10938(3) 0.462458(9)
I3 I 1.16656(2) 0.83333(3) 0.536065(9)
I4 I 0.95606(2) 1.10560(3) 0.535344(10)
S1 S 0.91671(8) 1.13842(12) 0.43652(4)
S2 S 0.72186(8) 1.19031(11) 0.43651(4)
S3 S 0.89979(8) 0.80587(12) 0.55988(4)
S4 S 0.70361(8) 0.84922(11) 0.56218(4)
Cu1C Cu 0.61970(4) 1.12381(6) 0.47358(2)
Cu4C Cu 0.61803(4) 0.94764(6) 0.524318(19)
S2C S 1.22186(8) 0.80969(11) 0.43651(4)
S4C S 1.20361(8) 1.15078(11) 0.56218(4)
C31 C 0.9426(3) 0.8011(5) 0.18334(15)
C32 C 0.9882(3) 0.8523(5) 0.20886(16)
H33 H 1.0022 0.8090 0.2281
C33 C 1.0127(4) 0.9663(5) 0.20593(17)
H34 H 1.0429 1.0031 0.2235
C34 C 0.9943(4) 1.0275(5) 0.17801(15)
H35 H 1.0121 1.1066 0.1765
C35 C 0.9510(3) 0.9782(5) 0.15209(17)
C36 C 0.9240(3) 0.8634(5) 0.15476(15)
H36 H 0.8930 0.8277 0.1372
C37 C 0.9303(4) 1.0473(5) 0.12104(17)
H37 H 0.9650 1.1188 0.1207
H38 H 0.8687 1.0674 0.1208
H39 H 0.9440 1.0001 0.1016
C38 C 0.7220(3) 0.8548(5) 0.18441(15)
C39 C 0.7509(4) 0.9218(5) 0.21102(17)
H40 H 0.7642 0.8873 0.2317
C40 C 0.7594(4) 1.0407(5) 0.20591(16)
H41 H 0.7807 1.0880 0.2234
C41 C 0.7381(4) 1.0920(5) 0.17669(17)
H42 H 0.7462 1.1734 0.1738
C42 C 0.7051(3) 1.0258(5) 0.15138(16)
C43 C 0.6990(3) 0.9065(5) 0.15519(16)
H43 H 0.6786 0.8599 0.1374
C44 C 0.6767(5) 1.0832(5) 0.11939(18)
H44 H 0.7184 1.1438 0.1133
H45 H 0.6195 1.1184 0.1224
H46 H 0.6739 1.0245 0.1019
C45 C 0.8104(3) 0.6572(5) 0.20974(15)
H47 H 0.8186 0.7124 0.2282
H48 H 0.8004 0.5790 0.2194
C46 C 0.8790(3) 0.1548(4) 0.31132(14)
C47 C 0.9023(3) 0.0850(5) 0.28413(15)
H49 H 0.9258 0.1189 0.2647
C48 C 0.8903(4) -0.0327(5) 0.28639(17)
H50 H 0.9053 -0.0813 0.2683
C49 C 0.8563(4) -0.0821(5) 0.31490(16)
H51 H 0.8480 -0.1641 0.3157
C50 C 0.8340(3) -0.0157(5) 0.34205(15)
C51 C 0.8465(3) 0.1052(5) 0.33974(15)
H52 H 0.8324 0.1535 0.3580
C52 C 0.7982(4) -0.0688(5) 0.37285(17)
H53 H 0.8458 -0.0887 0.3878
H54 H 0.7659 -0.1395 0.3673
H55 H 0.7596 -0.0130 0.3837
C53 C 0.6593(3) 0.2163(5) 0.31297(15)
C54 C 0.6611(3) 0.1415(5) 0.28656(16)
H56 H 0.6813 0.1675 0.2657
C55 C 0.6332(4) 0.0277(5) 0.29053(15)
H57 H 0.6370 -0.0262 0.2728
C56 C 0.5993(4) -0.0066(5) 0.32086(16)
H58 H 0.5797 -0.0845 0.3235
C57 C 0.5936(4) 0.0695(5) 0.34722(16)
C58 C 0.6259(3) 0.1820(5) 0.34307(14)
H59 H 0.6249 0.2353 0.3610
C59 C 0.5556(4) 0.0322(5) 0.37907(16)
H60 H 0.6015 0.0256 0.3957
H61 H 0.5273 -0.0436 0.3763
H62 H 0.5130 0.0899 0.3863
C60 C 0.7951(3) 0.3531(4) 0.28657(15)
H63 H 0.8065 0.4302 0.2765
H64 H 0.7860 0.2968 0.2684
Cu5 Cu 1.10995(4) 0.37271(6) 0.222622(19)
Cu6 Cu 0.99308(4) 0.37471(6) 0.272239(19)
Cu7 Cu 0.99505(4) 0.55188(6) 0.222628(19)
Cu8 Cu 1.11116(4) 0.54093(6) 0.272306(18)
I5 I 1.15413(2) 0.31769(3) 0.284266(10)
I6 I 0.94678(2) 0.33332(3) 0.209576(9)
I7 I 1.15829(2) 0.60170(3) 0.211661(9)
I8 I 0.95194(2) 0.60793(3) 0.284463(9)
S5 S 0.90930(8) 0.65276(11) 0.18555(4)
S6 S 0.71364(8) 0.70015(12) 0.18682(4)
S7 S 0.89120(8) 0.30876(12) 0.30975(4)
S8 S 0.69662(8) 0.36275(11) 0.31027(4)
Cu5C Cu 0.60995(4) 0.62729(6) 0.222622(19)
Cu8C Cu 0.61116(4) 0.45907(6) 0.272306(18)
S6C S 1.21364(8) 0.29985(12) 0.18682(4)
S8C S 1.19662(8) 0.63725(11) 0.31027(4)
loop_
_geom_bond_atom_site_label_1
_geom_bond_atom_site_label_2
_geom_bond_site_symmetry_1
_geom_bond_site_symmetry_2
C1 C2 1_555 1_555
C2 H1 1_555 1_555
C3 C2 1_555 1_555
H2 C3 1_555 1_555
C4 C3 1_555 1_555
H3 C4 1_555 1_555
C5 C4 1_555 1_555
C6 C1 1_555 1_555
H4 C6 1_555 1_555
C7 C5 1_555 1_555
H5 C7 1_555 1_555
H6 C7 1_555 1_555
H7 C7 1_555 1_555
C8 C9 1_555 1_555
C9 H8 1_555 1_555
C10 C9 1_555 1_555
H9 C10 1_555 1_555
C11 C10 1_555 1_555
H10 C11 1_555 1_555
C12 C11 1_555 1_555
C13 C8 1_555 1_555
H11 C13 1_555 1_555
C14 C12 1_555 1_555
H12 C14 1_555 1_555
H13 C14 1_555 1_555
H14 C14 1_555 1_555
C15 H15 1_555 1_555
H16 C15 1_555 1_555
C16 C17 1_555 1_555
C17 H17 1_555 1_555
C18 C17 1_555 1_555
H18 C18 1_555 1_555
C19 C18 1_555 1_555
H19 C19 1_555 1_555
C20 C19 1_555 1_555
C21 C16 1_555 1_555
H20 C21 1_555 1_555
C22 C20 1_555 1_555
H21 C22 1_555 1_555
H22 C22 1_555 1_555
H23 C22 1_555 1_555
C23 C24 1_555 1_555
C24 H24 1_555 1_555
C25 C24 1_555 1_555
H25 C25 1_555 1_555
C26 C25 1_555 1_555
H26 C26 1_555 1_555
C27 C26 1_555 1_555
C28 C23 1_555 1_555
H27 C28 1_555 1_555
C29 C27 1_555 1_555
H28 C29 1_555 1_555
H29 C29 1_555 1_555
H30 C29 1_555 1_555
C30 H31 1_555 1_555
H32 C30 1_555 1_555
Cu1 I1 1_555 1_555
Cu2 I1 1_555 1_555
Cu3 I1 1_555 1_555
Cu4 I2 1_555 1_555
I2 Cu1 1_555 1_555
I3 Cu1 1_555 1_555
I4 Cu2 1_555 1_555
S1 C1 1_555 1_555
S2 C8 1_555 1_555
S3 C16 1_555 1_555
S4 C23 1_555 1_555
C31 C32 1_555 1_555
C32 H33 1_555 1_555
C33 C32 1_555 1_555
H34 C33 1_555 1_555
C34 C33 1_555 1_555
H35 C34 1_555 1_555
C35 C34 1_555 1_555
C36 C31 1_555 1_555
H36 C36 1_555 1_555
C37 C35 1_555 1_555
H37 C37 1_555 1_555
H38 C37 1_555 1_555
H39 C37 1_555 1_555
C38 C39 1_555 1_555
C39 H40 1_555 1_555
C40 C39 1_555 1_555
H41 C40 1_555 1_555
C41 C40 1_555 1_555
H42 C41 1_555 1_555
C42 C41 1_555 1_555
C43 C38 1_555 1_555
H43 C43 1_555 1_555
C44 C42 1_555 1_555
H44 C44 1_555 1_555
H45 C44 1_555 1_555
H46 C44 1_555 1_555
C45 H47 1_555 1_555
H48 C45 1_555 1_555
C46 C47 1_555 1_555
C47 H49 1_555 1_555
C48 C47 1_555 1_555
H50 C48 1_555 1_555
C49 C48 1_555 1_555
H51 C49 1_555 1_555
C50 C49 1_555 1_555
C51 C46 1_555 1_555
H52 C51 1_555 1_555
C52 C50 1_555 1_555
H53 C52 1_555 1_555
H54 C52 1_555 1_555
H55 C52 1_555 1_555
C53 C54 1_555 1_555
C54 H56 1_555 1_555
C55 C54 1_555 1_555
H57 C55 1_555 1_555
C56 C55 1_555 1_555
H58 C56 1_555 1_555
C57 C56 1_555 1_555
C58 C53 1_555 1_555
H59 C58 1_555 1_555
C59 C57 1_555 1_555
H60 C59 1_555 1_555
H61 C59 1_555 1_555
H62 C59 1_555 1_555
C60 H63 1_555 1_555
H64 C60 1_555 1_555
Cu5 I5 1_555 1_555
Cu6 I5 1_555 1_555
Cu7 I6 1_555 1_555
Cu8 I5 1_555 1_555
I6 Cu5 1_555 1_555
I7 Cu5 1_555 1_555
I8 Cu6 1_555 1_555
S5 C31 1_555 1_555
S6 C38 1_555 1_555
S7 C46 1_555 1_555
S8 C53 1_555 1_555
Cu1C S2 1_555 1_555
Cu4C S4 1_555 1_555
S2C Cu1 1_555 1_555
S4C Cu4 1_555 1_555
Cu5C S6 1_555 1_555
Cu8C S8 1_555 1_555
S6C Cu5 1_555 1_555
S8C Cu8 1_555 1_555
C5 C6 1_555 1_555
C12 C13 1_555 1_555
C15 S1 1_555 1_555
C15 S2 1_555 1_555
C20 C21 1_555 1_555
C27 C28 1_555 1_555
C30 S3 1_555 1_555
C30 S4 1_555 1_555
Cu2 I3 1_555 1_555
Cu2 S3 1_555 1_555
Cu3 I2 1_555 1_555
Cu3 I4 1_555 1_555
Cu3 S1 1_555 1_555
Cu4 I3 1_555 1_555
Cu4 I4 1_555 1_555
C35 C36 1_555 1_555
C42 C43 1_555 1_555
C45 S5 1_555 1_555
C45 S6 1_555 1_555
C50 C51 1_555 1_555
C57 C58 1_555 1_555
C60 S7 1_555 1_555
C60 S8 1_555 1_555
Cu6 I6 1_555 1_555
Cu6 S7 1_555 1_555
Cu7 I7 1_555 1_555
Cu7 I8 1_555 1_555
Cu7 S5 1_555 1_555
Cu8 I7 1_555 1_555
Cu8 I8 1_555 1_555

#END
