
#######################################################################
#
#                 Cambridge Crystallographic Data Centre
#                                CCDC 
#
#######################################################################
#
# If this CIF has been generated from an entry in the Cambridge 
# Structural Database, then it will include bibliographic, chemical, 
# crystal, experimental, refinement or atomic coordinate data resulting 
# from the CCDC's data processing and validation procedures.
#
#######################################################################

data_FOXHIJ10
_symmetry_cell_setting           monoclinic
_symmetry_space_group_name_H-M   'C 2/c'
_symmetry_Int_Tables_number      15
_space_group_name_Hall           '-C 2yn'
loop_
_symmetry_equiv_pos_site_id
_symmetry_equiv_pos_as_xyz
1 x,y,z
2 1/2+x,1/2+y,z
3 -x,y,1/2-z
4 1/2-x,1/2+y,1/2-z
5 -x,-y,-z
6 1/2-x,1/2-y,-z
7 x,-y,1/2+z
8 1/2+x,1/2-y,1/2+z
_cell_length_a                   17.392(4)
_cell_length_b                   14.138(3)
_cell_length_c                   10.453(3)
_cell_angle_alpha                90
_cell_angle_beta                 96.26(2)
_cell_angle_gamma                90
_cell_volume                     2554.94
loop_
_atom_site_label
_atom_site_type_symbol
_atom_site_fract_x
_atom_site_fract_y
_atom_site_fract_z
Co1 Co 0.0000 0.0000 0.5000
Co2 Co 0.0000 0.1237(1) 0.2500
O1 O -0.0189(1) 0.1341(2) -0.0574(2)
O2 O -0.0887(1) 0.0071(2) 0.1216(2)
O3 O -0.0348(2) 0.2164(2) 0.1201(2)
O4 O 0.0788(1) 0.0418(2) 0.1731(2)
C1 C -0.0368(2) 0.2078(2) -0.0020(3)
C2 C -0.1109(2) -0.0045(2) 0.2309(3)
C3 C -0.0632(2) 0.2928(2) -0.0773(3)
C4 C -0.0673(3) 0.3797(3) -0.0194(4)
C5 C -0.0928(3) 0.4584(3) -0.0895(5)
C6 C -0.1154(3) 0.4494(3) -0.2199(5)
C7 C -0.1113(3) 0.3642(3) -0.2775(4)
C8 C -0.0844(3) 0.2850(3) -0.209(4)
C9 C -0.1767(2) -0.0684(2) 0.2451(3)
C10 C -0.2129(2) -0.1160(3) 0.1394(4)
C11 C -0.2719(3) -0.1789(3) 0.1545(5)
C12 C -0.2950(3) -0.1948(3) 0.2746(5)
C13 C -0.2593(2) -0.1479(3) 0.3784(4)
C14 C -0.2010(2) -0.0838(3) 0.3656(4)
H1 H -0.0518 0.3852 0.0723
H2 H -0.0953 0.5196 -0.0471
H3 H -0.1337 0.5042 -0.2703
H4 H -0.1280 0.3582 -0.3686
H5 H -0.0794 0.2248 -0.2531
H6 H -0.1962 -0.1047 0.0553
H7 H -0.2972 -0.2116 0.0799
H8 H -0.3364 -0.2386 0.2849
H9 H -0.2753 -0.1598 0.4630
H10 H -0.1766 -0.0494 0.4398
Co1B Co 0.0000 0.0000 0.0000
O1D O 0.0189(1) -0.1341(2) 0.0574(2)
O1B O 0.0189(1) 0.1341(2) 0.5574(2)
O1F O -0.0189(1) -0.1341(2) 0.4426(2)
O2D O 0.0887(1) -0.0071(2) -0.1216(2)
O2B O 0.0887(1) 0.0071(2) 0.3784(2)
O2F O -0.0887(1) -0.0071(2) 0.6216(2)
O3B O 0.0348(2) 0.2164(2) 0.3799(2)
O4B O -0.0788(1) 0.0418(2) 0.3269(2)
O4F O 0.0788(1) -0.0418(2) 0.6731(2)
O4D O -0.0788(1) -0.0418(2) -0.1731(2)
C1B C 0.0368(2) 0.2078(2) 0.5020(3)
C2B C 0.1109(2) -0.0045(2) 0.2691(3)
C3B C 0.0632(2) 0.2928(2) 0.5773(3)
C4B C 0.0673(3) 0.3797(3) 0.5194(4)
C5B C 0.0928(3) 0.4584(3) 0.5895(5)
C6B C 0.1154(3) 0.4494(3) 0.7199(5)
C7B C 0.1113(3) 0.3642(3) 0.7775(4)
C8B C 0.0844(3) 0.2850(3) 0.709(4)
C9B C 0.1767(2) -0.0684(2) 0.2549(3)
C10B C 0.2129(2) -0.1160(3) 0.3606(4)
C11B C 0.2719(3) -0.1789(3) 0.3455(5)
C12B C 0.2950(3) -0.1948(3) 0.2254(5)
C13B C 0.2593(2) -0.1479(3) 0.1216(4)
C14B C 0.2010(2) -0.0838(3) 0.1344(4)
H1B H 0.0518 0.3852 0.4277
H2B H 0.0953 0.5196 0.5471
H3B H 0.1337 0.5042 0.7703
H4B H 0.1280 0.3582 0.8686
H5B H 0.0794 0.2248 0.7531
H6B H 0.1962 -0.1047 0.4447
H7B H 0.2972 -0.2116 0.4201
H8B H 0.3364 -0.2386 0.2151
H9B H 0.2753 -0.1598 0.0370
H10B H 0.1766 -0.0494 0.0602
loop_
_geom_bond_atom_site_label_1
_geom_bond_atom_site_label_2
_geom_bond_site_symmetry_1
_geom_bond_site_symmetry_2
Co1 O1B 1_555 1_555
Co2 O2 1_555 1_555
O1 C1 1_555 1_555
O2 C2 1_555 1_555
O3 Co2 1_555 1_555
O4 Co2 1_555 1_555
C1 O3 1_555 1_555
C2 C9 1_555 1_555
C3 C1 1_555 1_555
C4 C3 1_555 1_555
C5 C4 1_555 1_555
C6 C5 1_555 1_555
C7 C6 1_555 1_555
C8 C3 1_555 1_555
C9 C10 1_555 1_555
C10 C11 1_555 1_555
C11 C12 1_555 1_555
C12 C13 1_555 1_555
C13 C14 1_555 1_555
C14 C9 1_555 1_555
H1 C4 1_555 1_555
H2 C5 1_555 1_555
H3 C6 1_555 1_555
H4 C7 1_555 1_555
H5 C8 1_555 1_555
H6 C10 1_555 1_555
H7 C11 1_555 1_555
H8 C12 1_555 1_555
H9 C13 1_555 1_555
H10 C14 1_555 1_555
Co1B O1 1_555 1_555
O1D Co1B 1_555 1_555
O1B C1B 1_555 1_555
O1F Co1 1_555 1_555
O2D Co1B 1_555 1_555
O2B Co1 1_555 1_555
O2F Co1 1_555 1_555
O3B Co2 1_555 1_555
O4B Co1 1_555 1_555
O4F Co1 1_555 1_555
O4D Co1B 1_555 1_555
C1B O3B 1_555 1_555
C2B O4 1_555 1_555
C3B C1B 1_555 1_555
C4B C3B 1_555 1_555
C5B C4B 1_555 1_555
C6B C5B 1_555 1_555
C7B C6B 1_555 1_555
C8B C3B 1_555 1_555
C9B C2B 1_555 1_555
C10B C9B 1_555 1_555
C11B C10B 1_555 1_555
C12B C11B 1_555 1_555
C13B C12B 1_555 1_555
C14B C9B 1_555 1_555
H1B C4B 1_555 1_555
H2B C5B 1_555 1_555
H3B C6B 1_555 1_555
H4B C7B 1_555 1_555
H5B C8B 1_555 1_555
H6B C10B 1_555 1_555
H7B C11B 1_555 1_555
H8B C12B 1_555 1_555
H9B C13B 1_555 1_555
H10B C14B 1_555 1_555
Co2 O2B 1_555 1_555
Co2 O4B 1_555 1_555
O2 Co1B 1_555 1_555
O4 Co1B 1_555 1_555
C2 O4B 1_555 1_555
C7 C8 1_555 1_555
O2B C2B 1_555 1_555
C7B C8B 1_555 1_555
C13B C14B 1_555 1_555

#END
