
#######################################################################
#
#                 Cambridge Crystallographic Data Centre
#                                CCDC 
#
#######################################################################
#
# If this CIF has been generated from an entry in the Cambridge 
# Structural Database, then it will include bibliographic, chemical, 
# crystal, experimental, refinement or atomic coordinate data resulting 
# from the CCDC's data processing and validation procedures.
#
#######################################################################

data_FOXHEG
_symmetry_cell_setting           monoclinic
_symmetry_space_group_name_H-M   'P 21/c'
_symmetry_Int_Tables_number      14
_space_group_name_Hall           '-P 2ybc'
loop_
_symmetry_equiv_pos_site_id
_symmetry_equiv_pos_as_xyz
1 x,y,z
2 -x,1/2+y,1/2-z
3 -x,-y,-z
4 x,1/2-y,1/2+z
_cell_length_a                   12.193(3)
_cell_length_b                   15.085(4)
_cell_length_c                   16.506(4)
_cell_angle_alpha                90
_cell_angle_beta                 98.613(5)
_cell_angle_gamma                90
_cell_volume                     3001.73
loop_
_atom_site_label
_atom_site_type_symbol
_atom_site_fract_x
_atom_site_fract_y
_atom_site_fract_z
Zn1 Zn 0.25496(2) 0.010432(18) 0.513355(17)
O1 O 0.11818(14) 0.00613(10) 0.43493(10)
O2 O 0.63099(13) 0.06577(11) 0.52059(10)
N1 N -0.20701(16) 0.03707(13) 0.38347(11)
N2 N -0.07728(16) 0.07832(13) 0.30910(12)
N3 N 0.32299(15) 0.13206(12) 0.51165(12)
N4 N 0.46639(17) 0.22220(13) 0.50566(13)
C1 C 0.06134(19) -0.06805(15) 0.42205(14)
C2 C 0.1073(2) -0.15217(17) 0.44520(16)
H1 H 0.1816 -0.1559 0.4682
C3 C 0.0450(2) -0.22844(17) 0.43462(17)
H2 H 0.0777 -0.2824 0.4513
C4 C -0.0647(2) -0.22624(17) 0.39975(18)
H3 H -0.1062 -0.2781 0.3929
C5 C -0.1120(2) -0.14596(16) 0.37519(15)
H4 H -0.1862 -0.1441 0.3515
C6 C -0.05110(19) -0.06713(15) 0.38501(14)
C7 C -0.1098(2) 0.01634(15) 0.36080(14)
C8 C -0.2398(2) 0.11723(16) 0.34474(14)
C9 C -0.3351(2) 0.16793(19) 0.34648(17)
H5 H -0.3898 0.1505 0.3768
C10 C -0.3443(3) 0.2447(2) 0.30151(19)
H6 H -0.4069 0.2800 0.3013
C11 C -0.2622(3) 0.2714(2) 0.25591(19)
H7 H -0.2715 0.3241 0.2265
C12 C -0.1682(3) 0.22174(19) 0.25346(17)
H8 H -0.1137 0.2395 0.2231
C13 C -0.1587(2) 0.14386(16) 0.29854(15)
C14 C 0.59365(19) 0.05334(15) 0.59044(15)
C15 C 0.6467(2) -0.00137(16) 0.65336(16)
H9 H 0.7128 -0.0291 0.6466
C16 C 0.6031(2) -0.01498(19) 0.72494(18)
H10 H 0.6395 -0.0528 0.7647
C17 C 0.5064(2) 0.0266(2) 0.73847(17)
H11 H 0.4782 0.0181 0.7872
C18 C 0.4527(2) 0.08119(18) 0.67787(16)
H12 H 0.3871 0.1090 0.6860
C19 C 0.49452(18) 0.09525(15) 0.60519(14)
C20 C 0.42873(19) 0.14923(16) 0.54121(15)
C21 C 0.2901(2) 0.19811(15) 0.45390(15)
C22 C 0.1885(2) 0.21129(18) 0.40401(16)
H13 H 0.1280 0.1746 0.4073
C23 C 0.1819(3) 0.28114(19) 0.34970(18)
H14 H 0.1156 0.2914 0.3151
C24 C 0.2724(3) 0.33700(19) 0.34542(18)
H15 H 0.2645 0.3836 0.3081
C25 C 0.3727(2) 0.32520(18) 0.39448(18)
H16 H 0.4328 0.3623 0.3914
C26 C 0.3790(2) 0.25434(16) 0.44914(16)
C27 C 0.0143(2) 0.06887(18) 0.26174(15)
H17 H 0.0791 0.0466 0.2972
H18 H 0.0327 0.1266 0.2417
C28 C -0.0144(3) 0.0064(2) 0.1898(2)
H19 H -0.0397 -0.0493 0.2098
H20 H -0.0755 0.0315 0.1524
C29 C 0.0784(4) -0.0120(3) 0.1437(3)
H21 H 0.1438 -0.0274 0.1822
H22 H 0.0951 0.0415 0.1153
C30 C 0.0538(4) -0.0865(3) 0.0816(3)
H23 H 0.1167 -0.0953 0.0538
H24 H -0.0097 -0.0712 0.0424
H25 H 0.0390 -0.1401 0.1093
C31 C 0.5733(2) 0.26725(17) 0.52716(19)
H26 H 0.6006 0.2848 0.4773
H27 H 0.6264 0.2261 0.5562
C32 C 0.5655(2) 0.34826(19) 0.57987(19)
H28 H 0.5556 0.3298 0.6346
H29 H 0.5012 0.3830 0.5572
C33 C 0.6698(3) 0.4057(2) 0.5848(2)
H30 H 0.6702 0.4482 0.6290
H31 H 0.7347 0.3683 0.5979
C34 C 0.6775(3) 0.4551(3) 0.5063(3)
H32 H 0.7442 0.4899 0.5128
H33 H 0.6144 0.4934 0.4935
H34 H 0.6789 0.4135 0.4625
Zn1B Zn 0.74504(2) -0.010432(18) 0.486645(17)
Zn1B_2 Zn -0.25496(2) -0.010432(18) 0.486645(17)
O2B O 0.36901(13) -0.06577(11) 0.47941(10)
N1B N 0.20701(16) -0.03707(13) 0.61653(11)
loop_
_geom_bond_atom_site_label_1
_geom_bond_atom_site_label_2
_geom_bond_site_symmetry_1
_geom_bond_site_symmetry_2
Zn1 O1 1_555 1_555
O1 C1 1_555 1_555
O2 C14 1_555 1_555
N1 C7 1_555 1_555
N2 C7 1_555 1_555
N3 Zn1 1_555 1_555
N4 C20 1_555 1_555
C1 C2 1_555 1_555
C2 H1 1_555 1_555
C3 C2 1_555 1_555
H2 C3 1_555 1_555
C4 C3 1_555 1_555
H3 C4 1_555 1_555
C5 C4 1_555 1_555
H4 C5 1_555 1_555
C6 C1 1_555 1_555
C7 C6 1_555 1_555
C8 N1 1_555 1_555
C9 C8 1_555 1_555
H5 C9 1_555 1_555
C10 C9 1_555 1_555
H6 C10 1_555 1_555
C11 C10 1_555 1_555
H7 C11 1_555 1_555
C12 C11 1_555 1_555
H8 C12 1_555 1_555
C13 N2 1_555 1_555
C14 C15 1_555 1_555
C15 H9 1_555 1_555
C16 C15 1_555 1_555
H10 C16 1_555 1_555
C17 C16 1_555 1_555
H11 C17 1_555 1_555
C18 C17 1_555 1_555
H12 C18 1_555 1_555
C19 C14 1_555 1_555
C20 N3 1_555 1_555
C21 N3 1_555 1_555
C22 C21 1_555 1_555
H13 C22 1_555 1_555
C23 C22 1_555 1_555
H14 C23 1_555 1_555
C24 C23 1_555 1_555
H15 C24 1_555 1_555
C25 C24 1_555 1_555
H16 C25 1_555 1_555
C26 N4 1_555 1_555
C27 N2 1_555 1_555
H17 C27 1_555 1_555
H18 C27 1_555 1_555
C28 C27 1_555 1_555
H19 C28 1_555 1_555
H20 C28 1_555 1_555
C29 C28 1_555 1_555
H21 C29 1_555 1_555
H22 C29 1_555 1_555
C30 C29 1_555 1_555
H23 C30 1_555 1_555
H24 C30 1_555 1_555
H25 C30 1_555 1_555
C31 N4 1_555 1_555
H26 C31 1_555 1_555
H27 C31 1_555 1_555
C32 C31 1_555 1_555
H28 C32 1_555 1_555
H29 C32 1_555 1_555
C33 C32 1_555 1_555
H30 C33 1_555 1_555
H31 C33 1_555 1_555
C34 C33 1_555 1_555
H32 C34 1_555 1_555
H33 C34 1_555 1_555
H34 C34 1_555 1_555
Zn1B O2 1_555 1_555
Zn1B_2 N1 1_555 1_555
O2B Zn1 1_555 1_555
N1B Zn1 1_555 1_555
C5 C6 1_555 1_555
C8 C13 1_555 1_555
C12 C13 1_555 1_555
C18 C19 1_555 1_555
C19 C20 1_555 1_555
C21 C26 1_555 1_555
C25 C26 1_555 1_555

#END
