
#######################################################################
#
#                 Cambridge Crystallographic Data Centre
#                                CCDC 
#
#######################################################################
#
# If this CIF has been generated from an entry in the Cambridge 
# Structural Database, then it will include bibliographic, chemical, 
# crystal, experimental, refinement or atomic coordinate data resulting 
# from the CCDC's data processing and validation procedures.
#
#######################################################################

data_FOXKOU
_symmetry_cell_setting           monoclinic
_symmetry_space_group_name_H-M   'P 21/c'
_symmetry_Int_Tables_number      14
_space_group_name_Hall           '-P 2ybc'
loop_
_symmetry_equiv_pos_site_id
_symmetry_equiv_pos_as_xyz
1 x,y,z
2 -x,1/2+y,1/2-z
3 -x,-y,-z
4 x,1/2-y,1/2+z
_cell_length_a                   11.5400(3)
_cell_length_b                   12.0576(4)
_cell_length_c                   22.8377(5)
_cell_angle_alpha                90
_cell_angle_beta                 92.783(2)
_cell_angle_gamma                90
_cell_volume                     3174
loop_
_atom_site_label
_atom_site_type_symbol
_atom_site_fract_x
_atom_site_fract_y
_atom_site_fract_z
Mg1 Mg 0.11626(4) 0.47699(4) 0.03106(2)
Mg2 Mg -0.02915(4) 0.23206(4) 0.02155(2)
Mg3 Mg 0.10864(4) -0.00928(4) 0.04320(2)
O1 O 0.05132(10) 0.45849(10) 0.11324(4)
O2 O -0.02233(10) 0.28748(10) 0.10826(4)
O3 O 0.09253(12) 0.21319(12) 0.39740(5)
O4 O -0.03560(9) 0.33591(9) 0.42756(4)
O5 O 0.21158(10) 0.33740(10) 0.04465(5)
O6 O 0.15002(9) 0.16721(9) 0.02418(4)
O7 O 0.78891(9) 0.23814(9) 0.02317(5)
O8 O 0.74065(9) 0.08136(10) -0.02399(5)
O9 O -0.01425(8) 0.38705(9) -0.01261(4)
H1 H 0.0137 0.3691 -0.0450
O10 O -0.04706(8) 0.06478(9) 0.04005(4)
H2 H -0.0931 0.0539 0.0674
O11 O 0.19931(10) 0.50809(12) -0.05058(5)
H3 H 0.1637 0.4780 -0.0799
H4 H 0.2090 0.5775 -0.0546
N1 N 0.27266(12) 0.56541(12) 0.06839(6)
N2 N 0.82224(12) 0.52930(12) 0.36839(5)
C1 C 0.01625(13) 0.37063(14) 0.13614(6)
C2 C 0.01745(14) 0.36346(14) 0.20262(6)
C3 C -0.06798(14) 0.30264(15) 0.22681(7)
H5 H -0.1255 0.2708 0.2023
C4 C -0.07157(15) 0.28673(16) 0.28764(7)
H6 H -0.1325 0.2470 0.3026
C5 C 0.01350(14) 0.32890(14) 0.32509(6)
C6 C 0.10285(14) 0.39483(14) 0.30236(6)
C7 C 0.10477(13) 0.41470(14) 0.24058(6)
C8 C 0.19637(15) 0.48060(16) 0.22057(7)
H7 H 0.2009 0.4932 0.1806
C9 C 0.27817(16) 0.52615(17) 0.25847(8)
H8 H 0.3359 0.5710 0.2441
C10 C 0.27608(15) 0.50605(16) 0.31889(8)
H9 H 0.3324 0.5370 0.3444
C11 C 0.19156(14) 0.44131(15) 0.33996(7)
H10 H 0.1917 0.4270 0.3800
C12 C 0.02441(14) 0.29088(14) 0.38847(6)
C13 C 0.22923(13) 0.23700(14) 0.03664(6)
C14 C 0.35457(13) 0.20239(13) 0.03911(6)
C15 C 0.39203(13) 0.14000(14) -0.00598(7)
H11 H 0.3383 0.1063 -0.0319
C16 C 0.51121(13) 0.12626(14) -0.01349(6)
H12 H 0.5350 0.0840 -0.0448
C17 C 0.59315(12) 0.17319(13) 0.02385(6)
C18 C 0.55773(13) 0.22984(13) 0.07507(6)
C19 C 0.43662(13) 0.24475(14) 0.08256(6)
C20 C 0.40163(14) 0.29808(16) 0.13397(7)
H13 H 0.3231 0.3096 0.1391
C21 C 0.48093(15) 0.33283(17) 0.17605(7)
H14 H 0.4562 0.3681 0.2094
C22 C 0.59963(15) 0.31587(17) 0.16940(7)
H15 H 0.6531 0.3383 0.1988
C23 C 0.63712(14) 0.26686(15) 0.12027(7)
H16 H 0.7163 0.2574 0.1162
C24 C 0.71807(13) 0.16420(14) 0.00709(6)
C25 C 0.26351(16) 0.65269(16) 0.10322(7)
H17 H 0.1895 0.6758 0.1121
C26 C 0.35701(17) 0.71139(16) 0.12708(8)
H18 H 0.3452 0.7708 0.1521
C27 C 0.46841(16) 0.68153(17) 0.11371(7)
C28 C 0.47926(16) 0.59039(18) 0.07779(8)
H19 H 0.5523 0.5665 0.0677
C29 C 0.38107(15) 0.53493(17) 0.05698(8)
H20 H 0.3906 0.4727 0.0337
C30 C 0.57216(18) 0.74716(19) 0.13702(9)
H21 H 0.5504 0.8246 0.1398
H22 H 0.6332 0.7418 0.1094
C31 C 0.61906(18) 0.70771(18) 0.19671(8)
H23 H 0.6715 0.7634 0.2135
H24 H 0.5551 0.7000 0.2225
C32 C 0.6827(2) 0.59804(19) 0.19407(8)
H25 H 0.6296 0.5404 0.1801
H26 H 0.7446 0.6036 0.1669
C33 C 0.73274(17) 0.56845(16) 0.25413(7)
C34 C 0.84566(17) 0.59538(17) 0.27111(7)
H27 H 0.8942 0.6270 0.2444
C35 C 0.88601(15) 0.57532(16) 0.32769(7)
H28 H 0.9621 0.5949 0.3382
C36 C 0.71251(15) 0.50360(17) 0.35183(7)
H29 H 0.6657 0.4719 0.3793
C37 C 0.66567(17) 0.52185(18) 0.29601(8)
H30 H 0.5889 0.5028 0.2866
Mg1B Mg -0.11626(4) 0.52301(4) -0.03106(2)
Mg2_2 Mg 0.97085(4) 0.23206(4) 0.02155(2)
Mg2C Mg -0.02915(4) 0.26794(4) 0.52155(2)
Mg3A Mg -0.10864(4) 0.49072(4) 0.45680(2)
Mg3A_2 Mg 0.89136(4) 0.49072(4) 0.45680(2)
Mg3B Mg -0.10864(4) 0.00928(4) -0.04320(2)
Mg3B_2 Mg 0.89136(4) 0.00928(4) -0.04320(2)
O4A O 0.03560(9) -0.16409(9) 0.07244(4)
O4C O -0.03560(9) 0.16409(9) -0.07244(4)
O7_2 O -0.21109(9) 0.23814(9) 0.02317(5)
O8B O 0.25935(9) -0.08136(10) 0.02399(5)
O9B O 0.01425(8) 0.61295(9) 0.01261(4)
O10B O 0.04706(8) -0.06478(9) -0.04005(4)
N2A N 0.17776(12) 0.02930(12) 0.13161(5)
loop_
_geom_bond_atom_site_label_1
_geom_bond_atom_site_label_2
_geom_bond_site_symmetry_1
_geom_bond_site_symmetry_2
Mg1 O1 1_555 1_555
Mg2 O2 1_555 1_555
Mg3 O6 1_555 1_555
O1 C1 1_555 1_555
O2 C1 1_555 1_555
O3 C12 1_555 1_555
O4 C12 1_555 1_555
O5 Mg1 1_555 1_555
O6 Mg2 1_555 1_555
O7 C24 1_555 1_555
O8 C24 1_555 1_555
O9 Mg1 1_555 1_555
H1 O9 1_555 1_555
O10 Mg2 1_555 1_555
H2 O10 1_555 1_555
O11 Mg1 1_555 1_555
H3 O11 1_555 1_555
H4 O11 1_555 1_555
N1 Mg1 1_555 1_555
N2 C35 1_555 1_555
C1 C2 1_555 1_555
C2 C3 1_555 1_555
C3 H5 1_555 1_555
C4 C3 1_555 1_555
H6 C4 1_555 1_555
C5 C4 1_555 1_555
C6 C5 1_555 1_555
C7 C2 1_555 1_555
C8 C7 1_555 1_555
H7 C8 1_555 1_555
C9 C8 1_555 1_555
H8 C9 1_555 1_555
C10 C9 1_555 1_555
H9 C10 1_555 1_555
C11 C6 1_555 1_555
H10 C11 1_555 1_555
C12 C5 1_555 1_555
C13 O5 1_555 1_555
C14 C13 1_555 1_555
C15 C14 1_555 1_555
H11 C15 1_555 1_555
C16 C15 1_555 1_555
H12 C16 1_555 1_555
C17 C16 1_555 1_555
C18 C17 1_555 1_555
C19 C14 1_555 1_555
C20 C19 1_555 1_555
H13 C20 1_555 1_555
C21 C20 1_555 1_555
H14 C21 1_555 1_555
C22 C21 1_555 1_555
H15 C22 1_555 1_555
C23 C18 1_555 1_555
H16 C23 1_555 1_555
C24 C17 1_555 1_555
C25 N1 1_555 1_555
H17 C25 1_555 1_555
C26 C25 1_555 1_555
H18 C26 1_555 1_555
C27 C26 1_555 1_555
C28 C27 1_555 1_555
H19 C28 1_555 1_555
C29 N1 1_555 1_555
H20 C29 1_555 1_555
C30 C27 1_555 1_555
H21 C30 1_555 1_555
H22 C30 1_555 1_555
C31 C30 1_555 1_555
H23 C31 1_555 1_555
H24 C31 1_555 1_555
C32 C31 1_555 1_555
H25 C32 1_555 1_555
H26 C32 1_555 1_555
C33 C32 1_555 1_555
C34 C33 1_555 1_555
H27 C34 1_555 1_555
C35 C34 1_555 1_555
H28 C35 1_555 1_555
C36 N2 1_555 1_555
H29 C36 1_555 1_555
C37 C33 1_555 1_555
H30 C37 1_555 1_555
Mg1B O9 1_555 1_555
Mg2_2 O7 1_555 1_555
Mg2C O4 1_555 1_555
Mg3A O4 1_555 1_555
Mg3A_2 N2 1_555 1_555
Mg3B O10 1_555 1_555
Mg3B_2 O8 1_555 1_555
O4A Mg3 1_555 1_555
O4C Mg2 1_555 1_555
O7_2 Mg2 1_555 1_555
O8B Mg3 1_555 1_555
O9B Mg1 1_555 1_555
O10B Mg3 1_555 1_555
N2A Mg3 1_555 1_555
Mg2 O9 1_555 1_555
Mg3 O10 1_555 1_555
O6 C13 1_555 1_555
C6 C7 1_555 1_555
C10 C11 1_555 1_555
C18 C19 1_555 1_555
C22 C23 1_555 1_555
C28 C29 1_555 1_555
C36 C37 1_555 1_555
Mg1B O9B 1_555 1_555
Mg3B O4C 1_555 1_555
Mg3B O10B 1_555 1_555

#END
