
#######################################################################
#
#                 Cambridge Crystallographic Data Centre
#                                CCDC 
#
#######################################################################
#
# If this CIF has been generated from an entry in the Cambridge 
# Structural Database, then it will include bibliographic, chemical, 
# crystal, experimental, refinement or atomic coordinate data resulting 
# from the CCDC's data processing and validation procedures.
#
#######################################################################

data_FOXNEM
_symmetry_cell_setting           monoclinic
_symmetry_space_group_name_H-M   'P 21'
_symmetry_Int_Tables_number      4
_space_group_name_Hall           'P 2yb'
loop_
_symmetry_equiv_pos_site_id
_symmetry_equiv_pos_as_xyz
1 x,y,z
2 -x,1/2+y,-z
_cell_length_a                   9.56440(10)
_cell_length_b                   7.84380(10)
_cell_length_c                   15.51580(10)
_cell_angle_alpha                90
_cell_angle_beta                 102.0100(10)
_cell_angle_gamma                90
_cell_volume                     1138.54
loop_
_atom_site_label
_atom_site_type_symbol
_atom_site_fract_x
_atom_site_fract_y
_atom_site_fract_z
C1 C 0.0557(7) 0.1610(8) 0.1721(4)
C2 C 0.1556(8) 0.1512(9) 0.2616(4)
C3 C 0.2457(8) 0.2867(10) 0.2883(5)
H1 H 0.2462 0.3792 0.2509
C4 C 0.3358(9) 0.2858(10) 0.3707(5)
H2 H 0.3997 0.3746 0.3886
C5 C 0.3279(8) 0.1484(10) 0.4258(4)
C6 C 0.1573(7) 0.0139(9) 0.3188(4)
H3 H 0.1005 -0.0808 0.3003
C7 C 0.4114(9) 0.1371(10) 0.5201(5)
C8 C 0.0995(8) -0.4531(9) 0.4713(5)
C9 C 0.1768(8) -0.4541(9) 0.5670(4)
C10 C 0.1619(8) -0.5775(9) 0.6262(4)
H4 H 0.1098 -0.6758 0.6080
C11 C 0.2272(8) -0.5534(9) 0.7160(4)
H5 H 0.2181 -0.6357 0.7576
C12 C 0.3037(8) -0.4082(8) 0.7409(4)
C13 C 0.3171(8) -0.2893(9) 0.6764(4)
H6 H 0.3707 -0.1911 0.6923
C14 C 0.3669(8) -0.3632(9) 0.8358(4)
Cu1 Cu 0.25270(11) -0.15456(14) 0.49445(5)
Gd1 Gd 0.01649(3) 0.50259(3) 0.036766(16)
Gd2 Gd 0.48934(3) -0.00921(3) 0.958390(16)
C15 C 0.2670(6) 0.7127(7) 0.0446(4)
C16 C -0.2443(6) 0.6867(8) 0.0194(4)
N1 N 0.2397(6) 0.0164(8) 0.3998(3)
N2 N 0.2541(6) -0.3140(7) 0.5919(3)
O1 O 0.3812(5) 0.7867(6) 0.0378(3)
O2 O 0.2731(5) 0.5504(5) 0.0668(3)
O3 O 0.1432(5) 0.7808(6) 0.0295(3)
O4 O -0.3728(6) 0.7339(6) -0.0118(3)
O5 O -0.2251(4) 0.5532(5) 0.0701(3)
O6 O -0.1347(6) 0.7518(6) -0.0012(3)
O7 O 0.0172(6) 0.3077(6) 0.1499(3)
O8 O 0.0207(5) 0.0282(6) 0.1283(3)
O9 O 0.5092(6) 0.2386(8) 0.5464(3)
O10 O 0.3736(5) 0.0168(7) 0.5651(3)
O11 O 0.1345(6) -0.3283(7) 0.4262(3)
O12 O 0.0111(7) -0.5621(8) 0.4447(3)
O13 O 0.3967(6) -0.2091(6) 0.8493(3)
O14 O 0.3828(5) -0.4825(7) 0.8910(3)
O15 O 0.0609(6) 0.6663(7) 0.1790(3)
O16 O 0.4288(7) 0.1359(8) 0.8175(4)
H9 H 0.468(12) 0.184(11) 0.782(6)
H12 H -0.003(8) 0.610(11) 0.194(8)
H13 H 0.022(10) 0.758(7) 0.164(7)
H14 H 0.422(13) 0.037(4) 0.800(7)
Cu1A Cu 0.74730(11) 0.34544(14) 0.50555(5)
Gd1A Gd -0.01649(3) 1.00259(3) -0.036766(16)
Gd1A_2 Gd -0.01649(3) 0.00259(3) -0.036766(16)
Gd2A Gd 0.51066(3) 0.49079(3) 0.041610(16)
Gd2_2 Gd 0.48934(3) 0.99079(3) -0.041610(16)
Gd2_3 Gd -0.51066(3) 0.99079(3) -0.041610(16)
Gd2A_2 Gd -0.48934(3) 0.49079(3) 0.041610(16)
Gd2A_3 Gd 0.51066(3) -0.50921(3) 1.041610(16)
O1A O 0.6188(5) 0.2867(6) 0.9622(3)
O1_2 O 0.3812(5) -0.2133(6) 1.0378(3)
O2A O 0.7269(5) 0.0504(5) 0.9332(3)
O3A O -0.1432(5) 0.2808(6) -0.0295(3)
O4_2 O 0.6272(6) -0.2661(6) 0.9882(3)
O4A O 0.3728(6) 0.2339(6) 1.0118(3)
O5A O 0.2251(4) 0.0532(5) 0.9299(3)
O6A O 0.1347(6) 0.2518(6) 0.0012(3)
O8A O -0.0207(5) 0.5282(6) -0.1283(3)
O9A O 0.4908(6) -0.2614(8) 0.4536(3)
O14A O 0.6172(5) 0.0175(7) 1.1090(3)
O17 O 0.8689(6) 0.5385(7) 0.2716(3)
H7 H 0.917(9) 0.485(11) 0.319(4)
H8 H 0.803(9) 0.463(10) 0.248(6)
O18 O 0.3686(8) 0.7070(13) 0.2727(4)
H10 H 0.403(11) 0.810(7) 0.289(8)
H11 H 0.283(6) 0.708(14) 0.287(8)
loop_
_geom_bond_atom_site_label_1
_geom_bond_atom_site_label_2
_geom_bond_site_symmetry_1
_geom_bond_site_symmetry_2
C1 C2 1_555 1_555
C2 C3 1_555 1_555
C3 H1 1_555 1_555
C4 C3 1_555 1_555
H2 C4 1_555 1_555
C5 C4 1_555 1_555
C6 C2 1_555 1_555
H3 C6 1_555 1_555
C7 C5 1_555 1_555
C8 C9 1_555 1_555
C9 C10 1_555 1_555
C10 H4 1_555 1_555
C11 C10 1_555 1_555
H5 C11 1_555 1_555
C12 C11 1_555 1_555
C13 C12 1_555 1_555
H6 C13 1_555 1_555
C14 C12 1_555 1_555
Cu1 N1 1_555 1_555
Gd1 O2 1_555 1_555
Gd2 O13 1_555 1_555
C15 O1 1_555 1_555
C16 O4 1_555 1_555
N1 C5 1_555 1_555
N2 C9 1_555 1_555
O1 Gd2A 1_555 1_555
O2 C15 1_555 1_555
O3 Gd1 1_555 1_555
O4 Gd2_3 1_555 1_555
O5 Gd1 1_555 1_555
O6 Gd1 1_555 1_555
O7 C1 1_555 1_555
O8 C1 1_555 1_555
O9 C7 1_555 1_555
O10 C7 1_555 1_555
O11 C8 1_555 1_555
O12 C8 1_555 1_555
O13 C14 1_555 1_555
O14 C14 1_555 1_555
O15 Gd1 1_555 1_555
O16 Gd2 1_555 1_555
O17 H7 1_555 1_555
O18 H10 1_555 1_555
H8 O17 1_555 1_555
H9 O16 1_555 1_555
H11 O18 1_555 1_555
H12 O15 1_555 1_555
H13 O15 1_555 1_555
H14 O16 1_555 1_555
Cu1A O9 1_555 1_555
Gd1A O3 1_555 1_555
Gd1A_2 O8 1_555 1_555
Gd2A O2 1_555 1_555
Gd2_2 O1 1_555 1_555
Gd2A_2 O4 1_555 1_555
Gd2A_3 O14 1_555 1_555
O1A Gd2 1_555 1_555
O1_2 Gd2 1_555 1_555
O2A Gd2 1_555 1_555
O3A Gd1 1_555 1_555
O4_2 Gd2 1_555 1_555
O4A Gd2 1_555 1_555
O5A Gd2 1_555 1_555
O6A Gd1 1_555 1_555
O8A Gd1 1_555 1_555
O9A Cu1 1_555 1_555
O14A Gd2 1_555 1_555
C6 N1 1_555 1_555
C13 N2 1_555 1_555
Cu1 N2 1_555 1_555
Cu1 O10 1_555 1_555
Cu1 O11 1_555 1_555
Gd1 O7 1_555 1_555
C15 O3 1_555 1_555
C16 O5 1_555 1_555
C16 O6 1_555 1_555
O5 Gd2A_2 1_555 1_555
O6 Gd1A 1_555 1_555
Gd1A_2 O3A 1_555 1_555
Gd1A_2 O6A 1_555 1_555
Gd2A_3 O1_2 1_555 1_555
Gd2A_3 O4_2 1_555 1_555

#END
