
#######################################################################
#
#                 Cambridge Crystallographic Data Centre
#                                CCDC 
#
#######################################################################
#
# If this CIF has been generated from an entry in the Cambridge 
# Structural Database, then it will include bibliographic, chemical, 
# crystal, experimental, refinement or atomic coordinate data resulting 
# from the CCDC's data processing and validation procedures.
#
#######################################################################

data_FOXQIT
_symmetry_cell_setting           monoclinic
_symmetry_space_group_name_H-M   'C 2/c'
_symmetry_Int_Tables_number      15
_space_group_name_Hall           '-C 2yn'
loop_
_symmetry_equiv_pos_site_id
_symmetry_equiv_pos_as_xyz
1 x,y,z
2 -x,y,1/2-z
3 1/2+x,1/2+y,z
4 1/2-x,1/2+y,1/2-z
5 -x,-y,-z
6 x,-y,1/2+z
7 1/2-x,1/2-y,-z
8 1/2+x,1/2-y,1/2+z
_cell_length_a                   22.681(9)
_cell_length_b                   9.333(4)
_cell_length_c                   21.170(7)
_cell_angle_alpha                90
_cell_angle_beta                 111.906(18)
_cell_angle_gamma                90
_cell_volume                     4157.74
loop_
_atom_site_label
_atom_site_type_symbol
_atom_site_fract_x
_atom_site_fract_y
_atom_site_fract_z
Cd1 Cd 0.0000 0.0000 0.0000
C1 C 0.1746(2) 0.5584(5) 0.1030(2)
C2 C 0.1992(2) 0.4561(5) 0.1541(3)
H1 H 0.1717 0.3941 0.1639
C3 C 0.2644(2) 0.4457(5) 0.1906(2)
C4 C 0.3050(2) 0.5391(5) 0.1758(2)
H2 H 0.3486 0.5329 0.2001
C5 C 0.28155(19) 0.6413(5) 0.1254(2)
C6 C 0.2164(2) 0.6494(5) 0.0897(2)
H3 H 0.2005 0.7182 0.0558
C7 C 0.1038(2) 0.5702(5) 0.0637(3)
H4 H 0.0826 0.5820 0.0956
H5 H 0.0952 0.6549 0.0352
C8 C 0.0770(3) 0.4165(6) -0.0428(3)
H6 H 0.0923 0.4759 -0.0685
C9 C 0.0505(2) 0.2871(6) -0.0609(3)
H7 H 0.0443 0.2412 -0.1019
C10 C 0.05075(19) 0.3310(5) 0.0378(2)
H8 H 0.0449 0.3224 0.0788
C11 C 0.2905(2) 0.3360(5) 0.2472(2)
H9 H 0.2559 0.2787 0.2500
H10 H 0.3195 0.2724 0.2370
C12 C 0.2978(2) 0.5009(5) 0.3447(3)
H11 H 0.2556 0.5302 0.3298
C13 C 0.3460(2) 0.5428(6) 0.4023(2)
H12 H 0.3421 0.6078 0.4338
C14 C 0.38581(19) 0.3944(5) 0.3522(2)
H13 H 0.4142 0.3360 0.3417
C15 C 0.3237(2) 0.7508(5) 0.1108(3)
H14 H 0.3007 0.7931 0.0665
H15 H 0.3328 0.8265 0.1444
C16 C 0.4433(2) 0.7158(7) 0.1607(3)
H16 H 0.4528 0.7684 0.2006
C17 C 0.4842(2) 0.6472(7) 0.1395(3)
H17 H 0.5278 0.6437 0.1634
C18 C 0.3932(2) 0.6133(5) 0.0631(2)
H18 H 0.3604 0.5832 0.0237
N1 N 0.07723(16) 0.4445(4) 0.0209(2)
N2 N 0.03384(16) 0.2330(4) -0.00990(19)
N3 N 0.32397(16) 0.4069(4) 0.31300(18)
N4 N 0.40161(18) 0.4747(4) 0.4072(2)
N5 N 0.38437(16) 0.6926(4) 0.11128(18)
N6 N 0.45315(17) 0.5826(4) 0.07757(19)
Cd1C Cd 0.5000 0.5000 0.5000
Cd1B Cd 0.5000 0.5000 0.0000
Cd1C_2 Cd -0.5000 -0.5000 -0.5000
Cd1B_2 Cd -0.5000 -0.5000 0.0000
C1D C -0.1746(2) -0.5584(5) -0.1030(2)
C2D C -0.1992(2) -0.4561(5) -0.1541(3)
H1D H -0.1717 -0.3941 -0.1639
C3D C -0.2644(2) -0.4457(5) -0.1906(2)
C4D C -0.3050(2) -0.5391(5) -0.1758(2)
H2D H -0.3486 -0.5329 -0.2001
C5D C -0.28155(19) -0.6413(5) -0.1254(2)
C6D C -0.2164(2) -0.6494(5) -0.0897(2)
H3D H -0.2005 -0.7182 -0.0558
C7D C -0.1038(2) -0.5702(5) -0.0637(3)
H4D H -0.0826 -0.5820 -0.0956
H5D H -0.0952 -0.6549 -0.0352
C8D C -0.0770(3) -0.4165(6) 0.0428(3)
H6D H -0.0923 -0.4759 0.0685
C9D C -0.0505(2) -0.2871(6) 0.0609(3)
H7D H -0.0443 -0.2412 0.1019
C10D C -0.05075(19) -0.3310(5) -0.0378(2)
H8D H -0.0449 -0.3224 -0.0788
C11D C -0.2905(2) -0.3360(5) -0.2472(2)
H9D H -0.2559 -0.2787 -0.2500
H10D H -0.3195 -0.2724 -0.2370
C12D C -0.2978(2) -0.5009(5) -0.3447(3)
H11D H -0.2556 -0.5302 -0.3298
C13D C -0.3460(2) -0.5428(6) -0.4023(2)
H12D H -0.3421 -0.6078 -0.4338
C14D C -0.38581(19) -0.3944(5) -0.3522(2)
H13D H -0.4142 -0.3360 -0.3417
C15D C -0.3237(2) -0.7508(5) -0.1108(3)
H14D H -0.3007 -0.7931 -0.0665
H15D H -0.3328 -0.8265 -0.1444
C16D C -0.4433(2) -0.7158(7) -0.1607(3)
H16D H -0.4528 -0.7684 -0.2006
C17D C -0.4842(2) -0.6472(7) -0.1395(3)
H17D H -0.5278 -0.6437 -0.1634
C18D C -0.3932(2) -0.6133(5) -0.0631(2)
H18D H -0.3604 -0.5832 -0.0237
N1D N -0.07723(16) -0.4445(4) -0.0209(2)
N2D N -0.03384(16) -0.2330(4) 0.00990(19)
N3D N -0.32397(16) -0.4069(4) -0.31300(18)
N4D N -0.40161(18) -0.4747(4) -0.4072(2)
N4C N 0.09839(18) -0.0253(4) 0.0928(2)
N4G N -0.09839(18) 0.0253(4) -0.0928(2)
N5D N -0.38437(16) -0.6926(4) -0.11128(18)
N6D N -0.45315(17) -0.5826(4) -0.07757(19)
N6B N -0.04685(17) 0.0826(4) 0.07757(19)
N6F N 0.04685(17) -0.0826(4) -0.07757(19)
N7 N 0.0997(4) 0.5068(15) 0.2431(5)
O1 O 0.1019(6) 0.3761(14) 0.2297(5)
O2 O 0.1325(4) 0.5475(9) 0.2978(5)
O3 O 0.0672(5) 0.5874(17) 0.2011(6)
O5 O 0.0569(8) 0.806(2) 0.2759(9)
O4? O 0.2702(8) 0.240(2) 0.0369(7)
loop_
_geom_bond_atom_site_label_1
_geom_bond_atom_site_label_2
_geom_bond_site_symmetry_1
_geom_bond_site_symmetry_2
Cd1 N2 1_555 1_555
C1 C2 1_555 1_555
C2 H1 1_555 1_555
C3 C2 1_555 1_555
C4 C3 1_555 1_555
H2 C4 1_555 1_555
C5 C4 1_555 1_555
C6 C1 1_555 1_555
H3 C6 1_555 1_555
C7 C1 1_555 1_555
H4 C7 1_555 1_555
H5 C7 1_555 1_555
C8 H6 1_555 1_555
C9 C8 1_555 1_555
H7 C9 1_555 1_555
C10 H8 1_555 1_555
C11 C3 1_555 1_555
H9 C11 1_555 1_555
H10 C11 1_555 1_555
C12 H11 1_555 1_555
C13 C12 1_555 1_555
H12 C13 1_555 1_555
C14 H13 1_555 1_555
C15 C5 1_555 1_555
H14 C15 1_555 1_555
H15 C15 1_555 1_555
C16 H16 1_555 1_555
C17 C16 1_555 1_555
H17 C17 1_555 1_555
C18 H18 1_555 1_555
N1 C7 1_555 1_555
N2 C9 1_555 1_555
N3 C11 1_555 1_555
N4 C13 1_555 1_555
N5 C15 1_555 1_555
N6 C17 1_555 1_555
N7 O1 1_555 1_555
O2 N7 1_555 1_555
O3 N7 1_555 1_555
Cd1C N4 1_555 1_555
Cd1B N6 1_555 1_555
Cd1C_2 N4D 1_555 1_555
Cd1B_2 N6D 1_555 1_555
C1D C2D 1_555 1_555
C2D H1D 1_555 1_555
C3D C2D 1_555 1_555
C4D C3D 1_555 1_555
H2D C4D 1_555 1_555
C5D C4D 1_555 1_555
C6D C1D 1_555 1_555
H3D C6D 1_555 1_555
C7D C1D 1_555 1_555
H4D C7D 1_555 1_555
H5D C7D 1_555 1_555
C8D H6D 1_555 1_555
C9D C8D 1_555 1_555
H7D C9D 1_555 1_555
C10D H8D 1_555 1_555
C11D C3D 1_555 1_555
H9D C11D 1_555 1_555
H10D C11D 1_555 1_555
C12D H11D 1_555 1_555
C13D C12D 1_555 1_555
H12D C13D 1_555 1_555
C14D H13D 1_555 1_555
C15D C5D 1_555 1_555
H14D C15D 1_555 1_555
H15D C15D 1_555 1_555
C16D H16D 1_555 1_555
C17D C16D 1_555 1_555
H17D C17D 1_555 1_555
C18D H18D 1_555 1_555
N1D C7D 1_555 1_555
N2D Cd1 1_555 1_555
N3D C11D 1_555 1_555
N4D C13D 1_555 1_555
N4C Cd1 1_555 1_555
N4G Cd1 1_555 1_555
N5D C15D 1_555 1_555
N6D C17D 1_555 1_555
N6B Cd1 1_555 1_555
N6F Cd1 1_555 1_555
C5 C6 1_555 1_555
C8 N1 1_555 1_555
C10 N1 1_555 1_555
C10 N2 1_555 1_555
C12 N3 1_555 1_555
C14 N3 1_555 1_555
C14 N4 1_555 1_555
C16 N5 1_555 1_555
C18 N5 1_555 1_555
C18 N6 1_555 1_555
C5D C6D 1_555 1_555
C8D N1D 1_555 1_555
C9D N2D 1_555 1_555
C10D N1D 1_555 1_555
C10D N2D 1_555 1_555
C12D N3D 1_555 1_555
C14D N3D 1_555 1_555
C14D N4D 1_555 1_555
C16D N5D 1_555 1_555
C18D N5D 1_555 1_555
C18D N6D 1_555 1_555

#END
