
#######################################################################
#
#                 Cambridge Crystallographic Data Centre
#                                CCDC 
#
#######################################################################
#
# If this CIF has been generated from an entry in the Cambridge 
# Structural Database, then it will include bibliographic, chemical, 
# crystal, experimental, refinement or atomic coordinate data resulting 
# from the CCDC's data processing and validation procedures.
#
#######################################################################

data_FOXQEP
_symmetry_cell_setting           monoclinic
_symmetry_space_group_name_H-M   'P 21/c'
_symmetry_Int_Tables_number      14
_space_group_name_Hall           '-P 2ybc'
loop_
_symmetry_equiv_pos_site_id
_symmetry_equiv_pos_as_xyz
1 x,y,z
2 -x,1/2+y,1/2-z
3 -x,-y,-z
4 x,1/2-y,1/2+z
_cell_length_a                   8.808(2)
_cell_length_b                   9.541(3)
_cell_length_c                   23.753(8)
_cell_angle_alpha                90
_cell_angle_beta                 101.340(13)
_cell_angle_gamma                90
_cell_volume                     1957.16
loop_
_atom_site_label
_atom_site_type_symbol
_atom_site_fract_x
_atom_site_fract_y
_atom_site_fract_z
Cu1 Cu 0.39729(2) 0.91932(2) 0.101896(8)
Cl1 Cl 0.42532(5) 1.12413(4) 0.052135(19)
Cl2 Cl 0.27605(5) 0.94294(6) 0.186797(18)
N1 N 0.51407(15) 0.49539(15) 0.12815(6)
N2 N 0.44224(17) 0.70875(15) 0.10040(6)
N3 N 0.97095(16) 0.17318(16) 0.02852(6)
N4 N 0.80470(16) 0.12434(15) -0.05081(6)
N5 N 1.20654(16) 0.51670(15) 0.27901(6)
N6 N 1.39360(16) 0.44714(15) 0.34879(6)
C1 C 0.76662(18) 0.38265(17) 0.15934(7)
C2 C 0.82542(18) 0.28496(18) 0.12633(7)
H1 H 0.7585 0.2168 0.1054
C3 C 0.98242(19) 0.28552(19) 0.12345(7)
C4 C 1.07897(19) 0.3852(2) 0.15453(7)
H2 H 1.1858 0.3863 0.1528
C5 C 1.02158(19) 0.48366(18) 0.18823(7)
C6 C 0.86551(19) 0.48214(18) 0.19011(7)
H3 H 0.8253 0.5497 0.2127
C7 C 0.59746(18) 0.38170(17) 0.16278(7)
H4 H 0.5511 0.2905 0.1488
H5 H 0.5870 0.3929 0.2033
C8 C 0.50657(19) 0.62963(18) 0.14400(7)
H6 H 0.5430 0.6634 0.1819
C9 C 0.4078(2) 0.6201(2) 0.05410(8)
H7 H 0.3596 0.6473 0.0163
C10 C 0.4527(2) 0.4883(2) 0.07044(8)
H8 H 0.4436 0.4073 0.0468
C11 C 1.0471(2) 0.1745(2) 0.08933(7)
H9 H 1.1593 0.1912 0.0922
H10 H 1.0345 0.0815 0.1063
C12 C 0.84179(19) 0.10250(17) 0.00518(7)
H11 H 0.7848 0.0446 0.0261
C13 C 0.9154(2) 0.2133(2) -0.06370(8)
H12 H 0.9191 0.2480 -0.1009
C14 C 1.0187(2) 0.2440(2) -0.01488(8)
H13 H 1.1069 0.3030 -0.0116
C15 C 1.1281(2) 0.58514(19) 0.22580(8)
H14 H 1.2064 0.6208 0.2046
H15 H 1.0674 0.6660 0.2353
C16 C 1.36017(18) 0.51451(18) 0.29953(7)
H16 H 1.4349 0.5562 0.2809
C17 C 1.2543(2) 0.4037(2) 0.36062(8)
H17 H 1.2415 0.3523 0.3936
C18 C 1.1375(2) 0.4461(2) 0.31758(8)
H18 H 1.0298 0.4300 0.3148
Cu1B Cu 0.60271(2) 0.08068(2) -0.101896(8)
Cu1A Cu 1.60271(2) 0.41932(2) 0.398104(8)
Cu1C Cu -0.60271(2) 0.58068(2) -0.398104(8)
Cl1B Cl 0.57468(5) -0.12413(4) -0.052135(19)
Cl2B Cl 0.72395(5) 0.05706(6) -0.186797(18)
N1B N 0.48593(15) 0.50461(15) -0.12815(6)
N2B N 0.55776(17) 0.29125(15) -0.10040(6)
N3B N 0.02905(16) 0.82682(16) -0.02852(6)
N4B N 0.19530(16) 0.87566(15) 0.05081(6)
N5B N -0.20654(16) 0.48330(15) -0.27901(6)
N6B N -0.39360(16) 0.55286(15) -0.34879(6)
N6A N 0.60640(16) 0.94714(15) 0.15121(6)
N6C N 0.39360(16) 0.05286(15) -0.15121(6)
C1B C 0.23338(18) 0.61735(17) -0.15934(7)
C2B C 0.17458(18) 0.71504(18) -0.12633(7)
H1B H 0.2415 0.7832 -0.1054
C3B C 0.01758(19) 0.71448(19) -0.12345(7)
C4B C -0.07897(19) 0.6148(2) -0.15453(7)
H2B H -0.1858 0.6137 -0.1528
C5B C -0.02158(19) 0.51634(18) -0.18823(7)
C6B C 0.13449(19) 0.51786(18) -0.19011(7)
H3B H 0.1747 0.4503 -0.2127
C7B C 0.40254(18) 0.61830(17) -0.16278(7)
H4B H 0.4489 0.7095 -0.1488
H5B H 0.4130 0.6071 -0.2033
C8B C 0.49343(19) 0.37037(18) -0.14400(7)
H6B H 0.4570 0.3366 -0.1819
C9B C 0.5922(2) 0.3799(2) -0.05410(8)
H7B H 0.6404 0.3527 -0.0163
C10B C 0.5473(2) 0.5117(2) -0.07044(8)
H8B H 0.5564 0.5927 -0.0468
C11B C -0.0471(2) 0.8255(2) -0.08933(7)
H9B H -0.1593 0.8088 -0.0922
H10B H -0.0345 0.9185 -0.1063
C12B C 0.15821(19) 0.89750(17) -0.00518(7)
H11B H 0.2152 0.9554 -0.0261
C13B C 0.0846(2) 0.7867(2) 0.06370(8)
H12B H 0.0809 0.7520 0.1009
C14B C -0.0187(2) 0.7560(2) 0.01488(8)
H13B H -0.1069 0.6970 0.0116
C15B C -0.1281(2) 0.41486(19) -0.22580(8)
H14B H -0.2064 0.3792 -0.2046
H15B H -0.0674 0.3340 -0.2353
C16B C -0.36017(18) 0.48549(18) -0.29953(7)
H16B H -0.4349 0.4438 -0.2809
C17B C -0.2543(2) 0.5963(2) -0.36062(8)
H17B H -0.2415 0.6477 -0.3936
C18B C -0.1375(2) 0.5539(2) -0.31758(8)
H18B H -0.0298 0.5700 -0.3148
loop_
_geom_bond_atom_site_label_1
_geom_bond_atom_site_label_2
_geom_bond_site_symmetry_1
_geom_bond_site_symmetry_2
Cu1 Cl1 1_555 1_555
Cl2 Cu1 1_555 1_555
N1 C7 1_555 1_555
N2 Cu1 1_555 1_555
N3 C11 1_555 1_555
N4 C12 1_555 1_555
N5 C15 1_555 1_555
N6 C16 1_555 1_555
C1 C2 1_555 1_555
C2 H1 1_555 1_555
C3 C2 1_555 1_555
C4 C3 1_555 1_555
H2 C4 1_555 1_555
C5 C4 1_555 1_555
C6 C1 1_555 1_555
H3 C6 1_555 1_555
C7 C1 1_555 1_555
H4 C7 1_555 1_555
H5 C7 1_555 1_555
C8 N1 1_555 1_555
H6 C8 1_555 1_555
C9 N2 1_555 1_555
H7 C9 1_555 1_555
C10 N1 1_555 1_555
H8 C10 1_555 1_555
C11 C3 1_555 1_555
H9 C11 1_555 1_555
H10 C11 1_555 1_555
C12 N3 1_555 1_555
H11 C12 1_555 1_555
C13 N4 1_555 1_555
H12 C13 1_555 1_555
C14 N3 1_555 1_555
H13 C14 1_555 1_555
C15 C5 1_555 1_555
H14 C15 1_555 1_555
H15 C15 1_555 1_555
C16 N5 1_555 1_555
H16 C16 1_555 1_555
C17 N6 1_555 1_555
H17 C17 1_555 1_555
C18 N5 1_555 1_555
H18 C18 1_555 1_555
Cu1B N4 1_555 1_555
Cu1A N6 1_555 1_555
Cu1C N6B 1_555 1_555
Cl1B Cu1B 1_555 1_555
Cl2B Cu1B 1_555 1_555
N1B C7B 1_555 1_555
N2B Cu1B 1_555 1_555
N3B C11B 1_555 1_555
N4B Cu1 1_555 1_555
N5B C15B 1_555 1_555
N6B C16B 1_555 1_555
N6A Cu1 1_555 1_555
N6C Cu1B 1_555 1_555
C1B C2B 1_555 1_555
C2B H1B 1_555 1_555
C3B C2B 1_555 1_555
C4B C3B 1_555 1_555
H2B C4B 1_555 1_555
C5B C4B 1_555 1_555
C6B C1B 1_555 1_555
H3B C6B 1_555 1_555
C7B C1B 1_555 1_555
H4B C7B 1_555 1_555
H5B C7B 1_555 1_555
C8B N1B 1_555 1_555
H6B C8B 1_555 1_555
C9B N2B 1_555 1_555
H7B C9B 1_555 1_555
C10B N1B 1_555 1_555
H8B C10B 1_555 1_555
C11B C3B 1_555 1_555
H9B C11B 1_555 1_555
H10B C11B 1_555 1_555
C12B N3B 1_555 1_555
H11B C12B 1_555 1_555
C13B N4B 1_555 1_555
H12B C13B 1_555 1_555
C14B N3B 1_555 1_555
H13B C14B 1_555 1_555
C15B C5B 1_555 1_555
H14B C15B 1_555 1_555
H15B C15B 1_555 1_555
C16B N5B 1_555 1_555
H16B C16B 1_555 1_555
C17B N6B 1_555 1_555
H17B C17B 1_555 1_555
C18B N5B 1_555 1_555
H18B C18B 1_555 1_555
N2 C8 1_555 1_555
C5 C6 1_555 1_555
C9 C10 1_555 1_555
C13 C14 1_555 1_555
C17 C18 1_555 1_555
N2B C8B 1_555 1_555
N4B C12B 1_555 1_555
C5B C6B 1_555 1_555
C9B C10B 1_555 1_555
C13B C14B 1_555 1_555
C17B C18B 1_555 1_555

#END
