
#######################################################################
#
#                 Cambridge Crystallographic Data Centre
#                                CCDC 
#
#######################################################################
#
# If this CIF has been generated from an entry in the Cambridge 
# Structural Database, then it will include bibliographic, chemical, 
# crystal, experimental, refinement or atomic coordinate data resulting 
# from the CCDC's data processing and validation procedures.
#
#######################################################################

data_FOXZAU
_symmetry_cell_setting           triclinic
_symmetry_space_group_name_H-M   'P -1'
_symmetry_Int_Tables_number      2
_space_group_name_Hall           '-P 1'
loop_
_symmetry_equiv_pos_site_id
_symmetry_equiv_pos_as_xyz
1 x,y,z
2 -x,-y,-z
_cell_length_a                   10.494(2)
_cell_length_b                   11.215(2)
_cell_length_c                   13.497(3)
_cell_angle_alpha                110.08(3)
_cell_angle_beta                 101.27(3)
_cell_angle_gamma                107.82(3)
_cell_volume                     1337.72
loop_
_atom_site_label
_atom_site_type_symbol
_atom_site_fract_x
_atom_site_fract_y
_atom_site_fract_z
Tb1 Tb 0.500638(12) 1.416405(12) 0.620634(9)
O1 O 0.3103(3) 1.2033(2) 0.6114(2)
H1 H 0.3367 1.1397 0.6165
H2 H 0.2647 1.1538 0.5444
O3 O 0.4903(3) 1.0863(3) 0.6680(3)
O4 O 0.6108(3) 1.2936(2) 0.6787(2)
O5 O 0.5663(3) 0.7797(2) 0.55246(19)
O6 O 0.5415(3) 0.6375(2) 0.6335(2)
O7 O 0.2809(2) 1.3981(2) 0.52381(19)
O8 O 0.2864(2) 1.5092(2) 0.41403(19)
N1 N 0.8774(3) 1.0272(3) 0.6848(2)
N2 N 0.7412(3) 1.1180(3) 0.8772(2)
N3 N -0.1685(3) 1.3606(3) 0.4107(3)
N4 N 0.6779(3) 1.5704(3) 0.8226(2)
N5 N 0.3941(3) 1.4941(3) 0.7774(2)
C1 C 0.7664(3) 1.0582(3) 0.6977(2)
C2 C 0.9465(4) 1.0768(4) 0.6241(3)
H3 H 1.0238 1.0561 0.6144
C3 C 0.9101(4) 1.1557(4) 0.5757(3)
H4 H 0.9608 1.1868 0.5338
C4 C 0.7961(5) 1.1887(4) 0.5904(3)
H5 H 0.7702 1.2438 0.5595
C5 C 0.7208(3) 1.1385(3) 0.6518(3)
C6 C 0.5957(4) 1.1726(3) 0.6669(3)
C7 C 0.7037(3) 1.0137(3) 0.7760(2)
C8 C 0.6206(3) 0.8758(3) 0.7496(2)
C9 C 0.5767(4) 0.8484(3) 0.8327(3)
H6 H 0.5194 0.7582 0.8174
C10 C 0.6172(5) 0.9540(4) 0.9379(3)
H7 H 0.5904 0.9363 0.9949
C11 C 0.6986(4) 1.0867(4) 0.9556(3)
H8 H 0.7255 1.1586 1.0262
C12 C 0.5738(3) 0.7562(3) 0.6365(3)
C13 C -0.0269(3) 1.4295(3) 0.4528(2)
C14 C 0.0640(3) 1.3714(3) 0.4130(2)
C15 C 0.0022(4) 1.2374(3) 0.3267(3)
H9 H 0.0593 1.1954 0.2986
C16 C -0.1432(4) 1.1674(4) 0.2832(3)
H10 H -0.1861 1.0788 0.2243
C17 C -0.2237(4) 1.2326(4) 0.3297(4)
H11 H -0.3219 1.1840 0.3027
C18 C 0.2246(3) 1.4364(3) 0.4567(2)
C19 C 0.2560(4) 1.4581(4) 0.7560(3)
H12 H 0.1959 1.4028 0.6822
C20 C 0.1956(5) 1.4987(5) 0.8383(4)
H13 H 0.0976 1.4704 0.8193
C21 C 0.2813(6) 1.5800(5) 0.9465(4)
H14 H 0.2425 1.6075 1.0023
C22 C 0.4291(5) 1.6223(4) 0.9734(3)
C23 C 0.5264(7) 1.7106(4) 1.0855(3)
H15 H 0.4918 1.7401 1.1437
C24 C 0.6681(7) 1.7511(4) 1.1070(3)
H16 H 0.7296 1.8096 1.1799
C25 C 0.7257(5) 1.7062(4) 1.0205(3)
C26 C 0.8698(6) 1.7435(5) 1.0385(4)
H17 H 0.9353 1.8032 1.1099
C27 C 0.9156(5) 1.6927(6) 0.9519(4)
H18 H 1.0120 1.7154 0.9640
C28 C 0.8151(4) 1.6051(5) 0.8434(4)
H19 H 0.8472 1.5708 0.7847
C29 C 0.6311(4) 1.6167(3) 0.9088(3)
C30 C 0.4813(4) 1.5755(3) 0.8859(3)
Tb1A Tb 0.499362(12) 0.583595(12) 0.379366(9)
Tb1_2 Tb 0.500638(12) 0.416405(12) 0.620634(9)
Tb1A_2 Tb 0.499362(12) 1.583595(12) 0.379366(9)
Tb1A_3 Tb -0.500638(12) 1.583595(12) 0.379366(9)
Tb1_3 Tb -0.499362(12) 1.416405(12) 0.620634(9)
O1A O 0.6897(3) 0.7967(2) 0.3886(2)
H1A H 0.6633 0.8603 0.3835
H2A H 0.7353 0.8462 0.4556
O3A O 0.5097(3) 0.9137(3) 0.3320(3)
O4A O 0.3892(3) 0.7064(2) 0.3213(2)
O5A O 0.4337(3) 1.2203(2) 0.44754(19)
O6A O 0.4585(3) 1.3625(2) 0.3665(2)
O6_2 O 0.5415(3) 1.6375(2) 0.6335(2)
O6A_2 O 0.4585(3) 0.3625(2) 0.3665(2)
O7A O -0.2809(2) 1.6019(2) 0.47619(19)
O7A_2 O 0.7191(2) 0.6019(2) 0.47619(19)
O8A O -0.2864(2) 1.4908(2) 0.58597(19)
O8A_2 O 0.7136(2) 1.4908(2) 0.58597(19)
O8_2 O 0.2864(2) 0.5092(2) 0.41403(19)
N1A N 0.1226(3) 0.9728(3) 0.3152(2)
N2A N 0.2588(3) 0.8820(3) 0.1228(2)
N3A N 0.1685(3) 1.6394(3) 0.5893(3)
N4A N 0.3221(3) 0.4296(3) 0.1774(2)
N5A N 0.6059(3) 0.5059(3) 0.2226(2)
C1A C 0.2336(3) 0.9418(3) 0.3023(2)
C2A C 0.0535(4) 0.9232(4) 0.3759(3)
H3A H -0.0238 0.9439 0.3856
C3A C 0.0899(4) 0.8443(4) 0.4243(3)
H4A H 0.0392 0.8132 0.4662
C4A C 0.2039(5) 0.8113(4) 0.4096(3)
H5A H 0.2298 0.7562 0.4405
C5A C 0.2792(3) 0.8615(3) 0.3482(3)
C6A C 0.4043(4) 0.8274(3) 0.3331(3)
C7A C 0.2963(3) 0.9863(3) 0.2240(2)
C8A C 0.3794(3) 1.1242(3) 0.2504(2)
C9A C 0.4233(4) 1.1516(3) 0.1673(3)
H6A H 0.4806 1.2418 0.1826
C10A C 0.3828(5) 1.0460(4) 0.0621(3)
H7A H 0.4096 1.0637 0.0051
C11A C 0.3014(4) 0.9133(4) 0.0444(3)
H8A H 0.2745 0.8414 -0.0262
C12A C 0.4262(3) 1.2438(3) 0.3635(3)
C13A C 0.0269(3) 1.5705(3) 0.5472(2)
C14A C -0.0640(3) 1.6286(3) 0.5870(2)
C15A C -0.0022(4) 1.7626(3) 0.6733(3)
H9A H -0.0593 1.8046 0.7014
C16A C 0.1432(4) 1.8326(4) 0.7168(3)
H10A H 0.1861 1.9212 0.7757
C17A C 0.2237(4) 1.7674(4) 0.6703(4)
H11A H 0.3219 1.8160 0.6973
C18A C -0.2246(3) 1.5636(3) 0.5433(2)
C19A C 0.7440(4) 0.5419(4) 0.2440(3)
H12A H 0.8041 0.5972 0.3178
C20A C 0.8044(5) 0.5013(5) 0.1617(4)
H13A H 0.9024 0.5296 0.1807
C21A C 0.7187(6) 0.4200(5) 0.0535(4)
H14A H 0.7575 0.3925 -0.0023
C22A C 0.5709(5) 0.3777(4) 0.0266(3)
C23A C 0.4736(7) 0.2894(4) -0.0855(3)
H15A H 0.5082 0.2599 -0.1437
C24A C 0.3319(7) 0.2489(4) -0.1070(3)
H16A H 0.2704 0.1904 -0.1799
C25A C 0.2743(5) 0.2938(4) -0.0205(3)
C26A C 0.1302(6) 0.2565(5) -0.0385(4)
H17A H 0.0647 0.1968 -0.1099
C27A C 0.0844(5) 0.3073(6) 0.0481(4)
H18A H -0.0120 0.2846 0.0360
C28A C 0.1849(4) 0.3949(5) 0.1566(4)
H19A H 0.1528 0.4292 0.2153
C29A C 0.3689(4) 0.3833(3) 0.0912(3)
C30A C 0.5187(4) 0.4245(3) 0.1141(3)
O2 O 0.146(18) 1.645(18) 1.187(11)
loop_
_geom_bond_atom_site_label_1
_geom_bond_atom_site_label_2
_geom_bond_site_symmetry_1
_geom_bond_site_symmetry_2
Tb1 O1 1_555 1_555
O1 H1 1_555 1_555
H2 O1 1_555 1_555
O3 C6 1_555 1_555
O4 Tb1 1_555 1_555
O5 C12 1_555 1_555
O6 C12 1_555 1_555
O7 Tb1 1_555 1_555
O8 C18 1_555 1_555
N1 C1 1_555 1_555
N2 C7 1_555 1_555
N3 C13 1_555 1_555
N4 Tb1 1_555 1_555
N5 Tb1 1_555 1_555
C1 C5 1_555 1_555
C2 N1 1_555 1_555
H3 C2 1_555 1_555
C3 C2 1_555 1_555
H4 C3 1_555 1_555
C4 C3 1_555 1_555
H5 C4 1_555 1_555
C5 C4 1_555 1_555
C6 O4 1_555 1_555
C7 C1 1_555 1_555
C8 C7 1_555 1_555
C9 C8 1_555 1_555
H6 C9 1_555 1_555
C10 C9 1_555 1_555
H7 C10 1_555 1_555
C11 N2 1_555 1_555
H8 C11 1_555 1_555
C12 C8 1_555 1_555
C13 C14 1_555 1_555
C14 C15 1_555 1_555
C15 H9 1_555 1_555
C16 C15 1_555 1_555
H10 C16 1_555 1_555
C17 N3 1_555 1_555
H11 C17 1_555 1_555
C18 O7 1_555 1_555
C19 N5 1_555 1_555
H12 C19 1_555 1_555
C20 C19 1_555 1_555
H13 C20 1_555 1_555
C21 C20 1_555 1_555
H14 C21 1_555 1_555
C22 C21 1_555 1_555
C23 C22 1_555 1_555
H15 C23 1_555 1_555
C24 C23 1_555 1_555
H16 C24 1_555 1_555
C25 C24 1_555 1_555
C26 C25 1_555 1_555
H17 C26 1_555 1_555
C27 C26 1_555 1_555
H18 C27 1_555 1_555
C28 N4 1_555 1_555
H19 C28 1_555 1_555
C29 N4 1_555 1_555
C30 N5 1_555 1_555
Tb1A O5 1_555 1_555
Tb1_2 O6 1_555 1_555
Tb1A_2 O8 1_555 1_555
Tb1A_3 O7A 1_555 1_555
Tb1_3 O8A 1_555 1_555
O1A Tb1A 1_555 1_555
H1A O1A 1_555 1_555
H2A O1A 1_555 1_555
O3A C6A 1_555 1_555
O4A Tb1A 1_555 1_555
O5A Tb1 1_555 1_555
O6A Tb1A_2 1_555 1_555
O6_2 Tb1 1_555 1_555
O6A_2 Tb1A 1_555 1_555
O7A C18A 1_555 1_555
O7A_2 Tb1A 1_555 1_555
O8A C18A 1_555 1_555
O8A_2 Tb1 1_555 1_555
O8_2 Tb1A 1_555 1_555
N1A C1A 1_555 1_555
N2A C7A 1_555 1_555
N3A C13A 1_555 1_555
N4A Tb1A 1_555 1_555
N5A Tb1A 1_555 1_555
C1A C5A 1_555 1_555
C2A N1A 1_555 1_555
H3A C2A 1_555 1_555
C3A C2A 1_555 1_555
H4A C3A 1_555 1_555
C4A C3A 1_555 1_555
H5A C4A 1_555 1_555
C5A C4A 1_555 1_555
C6A O4A 1_555 1_555
C7A C1A 1_555 1_555
C8A C7A 1_555 1_555
C9A C8A 1_555 1_555
H6A C9A 1_555 1_555
C10A C9A 1_555 1_555
H7A C10A 1_555 1_555
C11A N2A 1_555 1_555
H8A C11A 1_555 1_555
C12A O5A 1_555 1_555
C13A C13 1_555 1_555
C14A C13A 1_555 1_555
C15A C14A 1_555 1_555
H9A C15A 1_555 1_555
C16A C15A 1_555 1_555
H10A C16A 1_555 1_555
C17A N3A 1_555 1_555
H11A C17A 1_555 1_555
C18A C14A 1_555 1_555
C19A N5A 1_555 1_555
H12A C19A 1_555 1_555
C20A C19A 1_555 1_555
H13A C20A 1_555 1_555
C21A C20A 1_555 1_555
H14A C21A 1_555 1_555
C22A C21A 1_555 1_555
C23A C22A 1_555 1_555
H15A C23A 1_555 1_555
C24A C23A 1_555 1_555
H16A C24A 1_555 1_555
C25A C24A 1_555 1_555
C26A C25A 1_555 1_555
H17A C26A 1_555 1_555
C27A C26A 1_555 1_555
H18A C27A 1_555 1_555
C28A N4A 1_555 1_555
H19A C28A 1_555 1_555
C29A N4A 1_555 1_555
C30A N5A 1_555 1_555
C5 C6 1_555 1_555
C10 C11 1_555 1_555
C14 C18 1_555 1_555
C16 C17 1_555 1_555
C22 C30 1_555 1_555
C25 C29 1_555 1_555
C27 C28 1_555 1_555
C29 C30 1_555 1_555
O6A C12A 1_555 1_555
C5A C6A 1_555 1_555
C8A C12A 1_555 1_555
C10A C11A 1_555 1_555
C16A C17A 1_555 1_555
C22A C30A 1_555 1_555
C25A C29A 1_555 1_555
C27A C28A 1_555 1_555
C29A C30A 1_555 1_555

#END
