
#######################################################################
#
#                 Cambridge Crystallographic Data Centre
#                                CCDC 
#
#######################################################################
#
# If this CIF has been generated from an entry in the Cambridge 
# Structural Database, then it will include bibliographic, chemical, 
# crystal, experimental, refinement or atomic coordinate data resulting 
# from the CCDC's data processing and validation procedures.
#
#######################################################################

data_FOXZEZ
_symmetry_cell_setting           monoclinic
_symmetry_space_group_name_H-M   'P 21/c'
_symmetry_Int_Tables_number      14
_space_group_name_Hall           '-P 2ybc'
loop_
_symmetry_equiv_pos_site_id
_symmetry_equiv_pos_as_xyz
1 x,y,z
2 -x,1/2+y,1/2-z
3 -x,-y,-z
4 x,1/2-y,1/2+z
_cell_length_a                   13.3821(4)
_cell_length_b                   18.2812(3)
_cell_length_c                   18.9510(5)
_cell_angle_alpha                90
_cell_angle_beta                 103.948(2)
_cell_angle_gamma                90
_cell_volume                     4499.49
loop_
_atom_site_label
_atom_site_type_symbol
_atom_site_fract_x
_atom_site_fract_y
_atom_site_fract_z
Ca1 Ca 0.66808(3) 0.19711(2) 0.23478(3)
K1 K 0.52134(4) 0.02138(3) 0.25569(3)
Si1 Si 0.77891(5) 0.32193(4) 0.36227(4)
Si2 Si 0.88439(5) 0.29976(4) 0.24046(4)
Si3 Si 0.66098(5) 0.05828(3) 0.11378(4)
Si4 Si 0.79856(5) 0.03746(3) 0.26514(3)
O1 O 0.50510(11) 0.16427(8) 0.25131(8)
N1 N 0.35655(13) 0.23380(10) 0.21401(10)
N2 N 0.30668(15) 0.17184(10) 0.31460(10)
N3 N 0.23369(13) 0.13737(10) 0.20328(10)
N4 N 0.51929(13) 0.27056(10) 0.19614(10)
N5 N 0.70079(13) 0.07679(10) 0.20319(10)
N6 N 0.79638(14) 0.27872(10) 0.28806(11)
C1 C 0.30565(16) 0.18399(12) 0.24328(12)
C2 C 0.19297(19) 0.09505(14) 0.25075(15)
H1 H 0.1433 0.0587 0.2376
C3 C 0.2373(2) 0.11557(14) 0.31767(15)
H2 H 0.2246 0.0958 0.3599
C4 C 0.3655(2) 0.21025(13) 0.38237(13)
C5 C 0.4063(3) 0.28353(15) 0.36426(15)
H3 H 0.3498 0.3137 0.3398
H4 H 0.4525 0.2761 0.3333
H5 H 0.4423 0.3072 0.4083
C6 C 0.2917(2) 0.2236(2) 0.43123(16)
H6 H 0.2364 0.2547 0.4065
H7 H 0.3281 0.2468 0.4754
H8 H 0.2641 0.1778 0.4424
C7 C 0.4526(2) 0.16117(15) 0.42107(14)
H9 H 0.4250 0.1153 0.4324
H10 H 0.4893 0.1843 0.4652
H11 H 0.4987 0.1527 0.3902
C8 C 0.19928(18) 0.13629(14) 0.12179(13)
C9 C 0.1192(2) 0.07597(15) 0.09859(16)
H12 H 0.0611 0.0855 0.1186
H13 H 0.1491 0.0297 0.1160
H14 H 0.0972 0.0748 0.0465
C10 C 0.1497(2) 0.21027(14) 0.09632(15)
H15 H 0.0925 0.2184 0.1176
H16 H 0.1261 0.2102 0.0443
H17 H 0.1996 0.2485 0.1111
C11 C 0.2909(2) 0.12069(15) 0.08949(14)
H18 H 0.3201 0.0741 0.1065
H19 H 0.3419 0.1582 0.1042
H20 H 0.2685 0.1199 0.0374
C12 C 0.45740(16) 0.22278(12) 0.22041(12)
C13 C 0.7155(3) 0.25920(18) 0.41662(17)
H21 H 0.6527 0.2405 0.3861
H22 H 0.7003 0.2857 0.4565
H23 H 0.7609 0.2193 0.4350
C14 C 0.6883(2) 0.40219(15) 0.33974(16)
H24 H 0.7158 0.4372 0.3117
H25 H 0.6806 0.4246 0.3839
H26 H 0.6224 0.3856 0.3121
C15 C 0.9005(2) 0.35546(18) 0.42603(17)
H27 H 0.9359 0.3879 0.4005
H28 H 0.9440 0.3145 0.4443
H29 H 0.8836 0.3811 0.4659
C16 C 0.8904(2) 0.40019(14) 0.22045(18)
H30 H 0.9082 0.4270 0.2653
H31 H 0.8245 0.4163 0.1923
H32 H 0.9416 0.4085 0.1935
C17 C 1.02084(19) 0.27301(16) 0.28589(18)
H33 H 1.0232 0.2219 0.2978
H34 H 1.0442 0.3011 0.3296
H35 H 1.0645 0.2824 0.2535
C18 C 0.8492(2) 0.25265(15) 0.14925(14)
H36 H 0.8446 0.2009 0.1563
H37 H 0.9010 0.2624 0.1232
H38 H 0.7840 0.2707 0.1218
C19 C 0.7667(3) 0.03277(18) 0.06851(16)
H39 H 0.8029 -0.0092 0.0923
H40 H 0.8137 0.0730 0.0718
H41 H 0.7374 0.0215 0.0183
C20 C 0.5926(2) 0.14036(13) 0.06481(13)
H42 H 0.5379 0.1545 0.0867
H43 H 0.5646 0.1283 0.0146
H44 H 0.6405 0.1801 0.0682
C21 C 0.5651(2) -0.01885(15) 0.09579(15)
H45 H 0.5095 -0.0081 0.1181
H46 H 0.5982 -0.0634 0.1158
H47 H 0.5385 -0.0245 0.0443
C22 C 0.7930(2) 0.07511(14) 0.35668(13)
H48 H 0.7267 0.0648 0.3656
H49 H 0.8036 0.1271 0.3573
H50 H 0.8457 0.0527 0.3938
C23 C 0.93023(18) 0.06020(14) 0.25351(16)
H51 H 0.9374 0.0421 0.2074
H52 H 0.9812 0.0379 0.2919
H53 H 0.9395 0.1123 0.2553
C24 C 0.79372(19) -0.06570(12) 0.26720(14)
H54 H 0.7967 -0.0847 0.2205
H55 H 0.7308 -0.0811 0.2785
H56 H 0.8512 -0.0838 0.3036
C25 C 0.48731(16) 0.33526(12) 0.15900(11)
C26 C 0.56697(18) 0.38003(12) 0.14534(13)
H57 H 0.6350 0.3654 0.1628
C27 C 0.5467(2) 0.44452(13) 0.10695(13)
H58 H 0.6011 0.4722 0.0989
C28 C 0.4469(2) 0.46889(13) 0.08020(13)
H59 H 0.4335 0.5124 0.0543
C29 C 0.36760(19) 0.42645(13) 0.09323(12)
H60 H 0.2999 0.4417 0.0753
C30 C 0.38658(17) 0.36146(12) 0.13245(12)
H61 H 0.3315 0.3349 0.1412
K1A K 0.47866(4) 0.52138(3) 0.24431(3)
C27A C 0.4533(2) -0.05548(13) 0.39305(13)
C28A C 0.5531(2) -0.03111(13) 0.41980(13)
C29A C 0.63240(19) -0.07355(13) 0.40677(12)
loop_
_geom_bond_atom_site_label_1
_geom_bond_atom_site_label_2
_geom_bond_site_symmetry_1
_geom_bond_site_symmetry_2
Ca1 O1 1_555 1_555
K1 O1 1_555 1_555
Si1 N6 1_555 1_555
Si2 N6 1_555 1_555
Si3 N5 1_555 1_555
Si4 N5 1_555 1_555
O1 C12 1_555 1_555
N1 C1 1_555 1_555
N2 C1 1_555 1_555
N3 C1 1_555 1_555
N4 Ca1 1_555 1_555
N5 Ca1 1_555 1_555
N6 Ca1 1_555 1_555
C2 N3 1_555 1_555
H1 C2 1_555 1_555
C3 N2 1_555 1_555
H2 C3 1_555 1_555
C4 N2 1_555 1_555
C5 C4 1_555 1_555
H3 C5 1_555 1_555
H4 C5 1_555 1_555
H5 C5 1_555 1_555
C6 C4 1_555 1_555
H6 C6 1_555 1_555
H7 C6 1_555 1_555
H8 C6 1_555 1_555
C7 C4 1_555 1_555
H9 C7 1_555 1_555
H10 C7 1_555 1_555
H11 C7 1_555 1_555
C8 N3 1_555 1_555
C9 C8 1_555 1_555
H12 C9 1_555 1_555
H13 C9 1_555 1_555
H14 C9 1_555 1_555
C10 C8 1_555 1_555
H15 C10 1_555 1_555
H16 C10 1_555 1_555
H17 C10 1_555 1_555
C11 C8 1_555 1_555
H18 C11 1_555 1_555
H19 C11 1_555 1_555
H20 C11 1_555 1_555
C12 N1 1_555 1_555
C13 Si1 1_555 1_555
H21 C13 1_555 1_555
H22 C13 1_555 1_555
H23 C13 1_555 1_555
C14 Si1 1_555 1_555
H24 C14 1_555 1_555
H25 C14 1_555 1_555
H26 C14 1_555 1_555
C15 Si1 1_555 1_555
H27 C15 1_555 1_555
H28 C15 1_555 1_555
H29 C15 1_555 1_555
C16 Si2 1_555 1_555
H30 C16 1_555 1_555
H31 C16 1_555 1_555
H32 C16 1_555 1_555
C17 Si2 1_555 1_555
H33 C17 1_555 1_555
H34 C17 1_555 1_555
H35 C17 1_555 1_555
C18 Si2 1_555 1_555
H36 C18 1_555 1_555
H37 C18 1_555 1_555
H38 C18 1_555 1_555
C19 Si3 1_555 1_555
H39 C19 1_555 1_555
H40 C19 1_555 1_555
H41 C19 1_555 1_555
C20 Si3 1_555 1_555
H42 C20 1_555 1_555
H43 C20 1_555 1_555
H44 C20 1_555 1_555
C21 Si3 1_555 1_555
H45 C21 1_555 1_555
H46 C21 1_555 1_555
H47 C21 1_555 1_555
C22 Si4 1_555 1_555
H48 C22 1_555 1_555
H49 C22 1_555 1_555
H50 C22 1_555 1_555
C23 Si4 1_555 1_555
H51 C23 1_555 1_555
H52 C23 1_555 1_555
H53 C23 1_555 1_555
C24 Si4 1_555 1_555
H54 C24 1_555 1_555
H55 C24 1_555 1_555
H56 C24 1_555 1_555
C25 N4 1_555 1_555
C26 C25 1_555 1_555
H57 C26 1_555 1_555
C27 C26 1_555 1_555
H58 C27 1_555 1_555
C28 C27 1_555 1_555
H59 C28 1_555 1_555
C29 C28 1_555 1_555
H60 C29 1_555 1_555
C30 C25 1_555 1_555
H61 C30 1_555 1_555
K1A C27 1_555 1_555
C27A K1 1_555 1_555
C28A K1 1_555 1_555
C29A K1 1_555 1_555
K1 N5 1_555 1_555
N4 C12 1_555 1_555
C2 C3 1_555 1_555
C28 K1A 1_555 1_555
C29 C30 1_555 1_555
C29 K1A 1_555 1_555
C27A C28A 1_555 1_555
C28A C29A 1_555 1_555

#END
