
#######################################################################
#
#                 Cambridge Crystallographic Data Centre
#                                CCDC 
#
#######################################################################
#
# If this CIF has been generated from an entry in the Cambridge 
# Structural Database, then it will include bibliographic, chemical, 
# crystal, experimental, refinement or atomic coordinate data resulting 
# from the CCDC's data processing and validation procedures.
#
#######################################################################

data_FOYMAI
_symmetry_cell_setting           monoclinic
_symmetry_space_group_name_H-M   'C 2/c'
_symmetry_Int_Tables_number      15
_space_group_name_Hall           '-C 2yn'
loop_
_symmetry_equiv_pos_site_id
_symmetry_equiv_pos_as_xyz
1 x,y,z
2 -x,y,1/2-z
3 1/2+x,1/2+y,z
4 1/2-x,1/2+y,1/2-z
5 -x,-y,-z
6 x,-y,1/2+z
7 1/2-x,1/2-y,-z
8 1/2+x,1/2-y,1/2+z
_cell_length_a                   22.747(5)
_cell_length_b                   19.587(4)
_cell_length_c                   12.074(2)
_cell_angle_alpha                90
_cell_angle_beta                 99.59(3)
_cell_angle_gamma                90
_cell_volume                     5304.34
loop_
_atom_site_label
_atom_site_type_symbol
_atom_site_fract_x
_atom_site_fract_y
_atom_site_fract_z
Ni1 Ni -0.04438(5) 0.78811(6) 0.61143(12)
S1 S -0.32851(12) 1.12822(15) 0.7467(3)
S2 S -0.19970(13) 0.99687(15) 0.7407(3)
O1 O 0.0000 0.8421(4) 0.7500
O2 O -0.1156(3) 0.8556(4) 0.5999(7)
O3 O -0.4754(3) 1.2215(4) 0.6134(7)
O4 O -0.4160(3) 1.2293(4) 0.7833(7)
C1 C -0.2612(5) 0.9980(5) 0.5427(10)
C2 C -0.3883(4) 1.1558(5) 0.6501(10)
N1 N -0.0943(4) 0.7323(4) 0.4814(7)
C3 C -0.4300(5) 1.2074(6) 0.6863(12)
N2 N -0.0051(5) 0.8494(5) 0.5028(8)
C4 C -0.3058(5) 1.0754(5) 0.6489(9)
C5 C -0.3431(5) 1.0794(5) 0.5456(9)
C6 C -0.1793(5) 0.9427(5) 0.6378(10)
C7 C -0.3899(5) 1.1266(6) 0.5479(11)
H1 H -0.4188 1.1366 0.4859
C8 C -0.2151(5) 0.9496(5) 0.5394(10)
H2 H -0.2104 0.9253 0.4753
C9 C -0.1258(5) 0.8996(5) 0.6732(12)
C10 C -0.2589(4) 1.0277(5) 0.6461(9)
C11 C -0.0702(5) 0.6944(6) 0.4112(10)
H3 H -0.0293 0.6966 0.4121
S3 S -0.32101(15) 1.02738(18) 0.4442(3)
O5 O -0.0938(3) 0.9112(4) 0.7648(8)
C12 C -0.1523(5) 0.7272(5) 0.4783(9)
H4 H -0.1705 0.7534 0.5273
C13 C -0.1881(5) 0.6822(7) 0.4006(11)
H5 H -0.2291 0.6790 0.3992
C14 C -0.1625(7) 0.6462(7) 0.3327(11)
H6 H -0.1855 0.6171 0.2822
C15 C -0.1058(7) 0.6493(6) 0.3328(9)
H7 H -0.0883 0.6229 0.2832
C16 C 0.0518(5) 0.8486(6) 0.4938(10)
H8 H 0.0765 0.8148 0.5301
C17 C -0.0389(5) 0.8973(7) 0.4493(11)
H9 H -0.0792 0.8986 0.4544
C18 C 0.0764(6) 0.8996(8) 0.4283(12)
H10 H 0.1168 0.8993 0.4232
C19 C 0.0415(8) 0.9457(8) 0.3768(12)
H11 H 0.0573 0.9783 0.3340
C20 C -0.0148(8) 0.9481(7) 0.3830(11)
H12 H -0.0392 0.9818 0.3454
Ni1B Ni 0.45562(5) 0.28811(6) 0.61143(12)
Ni1A Ni 0.04438(5) 0.78811(6) 0.88857(12)
Ni1B_2 Ni -0.54438(5) 1.28811(6) 0.61143(12)
Ni1C Ni -0.45562(5) 1.28811(6) 0.88857(12)
S1B S 0.17149(12) 0.62822(15) 0.7467(3)
S2B S 0.30030(13) 0.49687(15) 0.7407(3)
O1B O 0.5000 0.3421(4) 0.7500
O2B O 0.3844(3) 0.3556(4) 0.5999(7)
O3B O 0.0246(3) 0.7215(4) 0.6134(7)
O3_2 O 0.5246(3) 0.2215(4) 0.6134(7)
O4B O 0.0840(3) 0.7293(4) 0.7833(7)
O4C O -0.0840(3) 0.7293(4) 0.7167(7)
O4A O 0.4160(3) 0.2293(4) 0.7167(7)
C1B C 0.2388(5) 0.4980(5) 0.5427(10)
C2B C 0.1117(4) 0.6558(5) 0.6501(10)
N1B N 0.4057(4) 0.2323(4) 0.4814(7)
C3B C 0.0700(5) 0.7074(6) 0.6863(12)
N2B N 0.4949(5) 0.3494(5) 0.5028(8)
C4B C 0.1942(5) 0.5754(5) 0.6489(9)
C5B C 0.1569(5) 0.5794(5) 0.5456(9)
C6B C 0.3207(5) 0.4427(5) 0.6378(10)
C7B C 0.1101(5) 0.6266(6) 0.5479(11)
H1B H 0.0812 0.6366 0.4859
C8B C 0.2849(5) 0.4496(5) 0.5394(10)
H2B H 0.2896 0.4253 0.4753
C9B C 0.3742(5) 0.3996(5) 0.6732(12)
C10B C 0.2411(4) 0.5277(5) 0.6461(9)
C11B C 0.4298(5) 0.1944(6) 0.4112(10)
H3B H 0.4707 0.1966 0.4121
S3B S 0.17899(15) 0.52738(18) 0.4442(3)
O5B O 0.4062(3) 0.4112(4) 0.7648(8)
C12B C 0.3477(5) 0.2272(5) 0.4783(9)
H4B H 0.3295 0.2534 0.5273
C13B C 0.3119(5) 0.1822(7) 0.4006(11)
H5B H 0.2709 0.1790 0.3992
C14B C 0.3375(7) 0.1462(7) 0.3327(11)
H6B H 0.3145 0.1171 0.2822
C15B C 0.3942(7) 0.1493(6) 0.3328(9)
H7B H 0.4117 0.1229 0.2832
C16B C 0.5518(5) 0.3486(6) 0.4938(10)
H8B H 0.5765 0.3148 0.5301
C17B C 0.4611(5) 0.3973(7) 0.4493(11)
H9B H 0.4208 0.3986 0.4544
C18B C 0.5764(6) 0.3996(8) 0.4283(12)
H10B H 0.6168 0.3993 0.4232
C19B C 0.5415(8) 0.4457(8) 0.3768(12)
H11B H 0.5573 0.4783 0.3340
C20B C 0.4852(8) 0.4481(7) 0.3830(11)
H12B H 0.4608 0.4818 0.3454
O6 O 0.0251(13) 0.4462(10) 0.363(2)
O7 O 0.271(4) 0.738(5) 0.583(4)
O8? O 0.0322(6) 0.4923(5) 0.250(2)
O9? O 0.2152(19) 0.801(3) 0.533(13)
O10? O 0.0192(11) 0.5574(11) 0.3145(16)
loop_
_geom_bond_atom_site_label_1
_geom_bond_atom_site_label_2
_geom_bond_site_symmetry_1
_geom_bond_site_symmetry_2
Ni1 O1 1_555 1_555
S1 C2 1_555 1_555
S2 C6 1_555 1_555
O1 Ni1A 1_555 1_555
O2 Ni1 1_555 1_555
O3 C3 1_555 1_555
O4 C3 1_555 1_555
C1 C8 1_555 1_555
C2 C3 1_555 1_555
N1 Ni1 1_555 1_555
N2 Ni1 1_555 1_555
C4 S1 1_555 1_555
C5 C4 1_555 1_555
C6 C8 1_555 1_555
C7 C2 1_555 1_555
H1 C7 1_555 1_555
C8 H2 1_555 1_555
C9 O2 1_555 1_555
C10 S2 1_555 1_555
C11 N1 1_555 1_555
H3 C11 1_555 1_555
S3 C1 1_555 1_555
O5 C9 1_555 1_555
C12 N1 1_555 1_555
H4 C12 1_555 1_555
C13 C12 1_555 1_555
H5 C13 1_555 1_555
C14 C13 1_555 1_555
H6 C14 1_555 1_555
C15 C11 1_555 1_555
H7 C15 1_555 1_555
C16 N2 1_555 1_555
H8 C16 1_555 1_555
C17 N2 1_555 1_555
H9 C17 1_555 1_555
C18 C16 1_555 1_555
H10 C18 1_555 1_555
C19 C18 1_555 1_555
H11 C19 1_555 1_555
C20 C17 1_555 1_555
H12 C20 1_555 1_555
Ni1B O1B 1_555 1_555
Ni1A O4B 1_555 1_555
Ni1B_2 O3 1_555 1_555
Ni1C O4 1_555 1_555
S1B C2B 1_555 1_555
S2B C6B 1_555 1_555
O2B Ni1B 1_555 1_555
O3B Ni1 1_555 1_555
O3_2 Ni1B 1_555 1_555
O4B C3B 1_555 1_555
O4C Ni1 1_555 1_555
O4A Ni1B 1_555 1_555
C1B C8B 1_555 1_555
C2B C3B 1_555 1_555
N1B Ni1B 1_555 1_555
C3B O3B 1_555 1_555
N2B Ni1B 1_555 1_555
C4B S1B 1_555 1_555
C5B C4B 1_555 1_555
C6B C8B 1_555 1_555
C7B C2B 1_555 1_555
H1B C7B 1_555 1_555
C8B H2B 1_555 1_555
C9B O2B 1_555 1_555
C10B S2B 1_555 1_555
C11B N1B 1_555 1_555
H3B C11B 1_555 1_555
S3B C1B 1_555 1_555
O5B C9B 1_555 1_555
C12B N1B 1_555 1_555
H4B C12B 1_555 1_555
C13B C12B 1_555 1_555
H5B C13B 1_555 1_555
C14B C13B 1_555 1_555
H6B C14B 1_555 1_555
C15B C11B 1_555 1_555
H7B C15B 1_555 1_555
C16B N2B 1_555 1_555
H8B C16B 1_555 1_555
C17B N2B 1_555 1_555
H9B C17B 1_555 1_555
C18B C16B 1_555 1_555
H10B C18B 1_555 1_555
C19B C18B 1_555 1_555
H11B C19B 1_555 1_555
C20B C17B 1_555 1_555
H12B C20B 1_555 1_555
C1 C10 1_555 1_555
C4 C10 1_555 1_555
C5 C7 1_555 1_555
C5 S3 1_555 1_555
C6 C9 1_555 1_555
C14 C15 1_555 1_555
C19 C20 1_555 1_555
C1B C10B 1_555 1_555
C4B C10B 1_555 1_555
C5B C7B 1_555 1_555
C5B S3B 1_555 1_555
C6B C9B 1_555 1_555
C14B C15B 1_555 1_555
C19B C20B 1_555 1_555

#END
