
#######################################################################
#
#                 Cambridge Crystallographic Data Centre
#                                CCDC 
#
#######################################################################
#
# If this CIF has been generated from an entry in the Cambridge 
# Structural Database, then it will include bibliographic, chemical, 
# crystal, experimental, refinement or atomic coordinate data resulting 
# from the CCDC's data processing and validation procedures.
#
#######################################################################

data_FOZPEQ
_symmetry_cell_setting           monoclinic
_symmetry_space_group_name_H-M   'P 21/c'
_symmetry_Int_Tables_number      14
_space_group_name_Hall           '-P 2ybc'
loop_
_symmetry_equiv_pos_site_id
_symmetry_equiv_pos_as_xyz
1 x,y,z
2 -x,1/2+y,1/2-z
3 -x,-y,-z
4 x,1/2-y,1/2+z
_cell_length_a                   23.278(5)
_cell_length_b                   15.790(4)
_cell_length_c                   36.322(8)
_cell_angle_alpha                90
_cell_angle_beta                 105.695(4)
_cell_angle_gamma                90
_cell_volume                     12852.7
loop_
_atom_site_label
_atom_site_type_symbol
_atom_site_fract_x
_atom_site_fract_y
_atom_site_fract_z
Mo1 Mo -0.02157(6) 0.26499(11) 0.49840(4)
Mo2 Mo 0.29478(5) 0.24868(10) 0.56237(4)
Mo3 Mo 0.20856(7) 0.30618(10) 0.62951(4)
Mo4 Mo 0.05673(6) 0.31815(10) 0.59923(4)
Mo5 Mo 0.20521(6) 0.08792(9) 0.59417(4)
Mo6 Mo 0.22626(6) 0.40596(9) 0.50147(4)
Mo7 Mo 0.14281(6) 0.46567(9) 0.56955(4)
Mo8 Mo 0.05227(6) 0.09726(9) 0.56673(4)
Mo9 Mo 0.06254(6) 0.41614(9) 0.46972(4)
Mo10 Mo 0.05900(6) 0.21276(9) 0.43664(4)
Mo11 Mo 0.22178(6) 0.20047(9) 0.47030(4)
Mo12 Mo 0.12910(6) 0.04264(9) 0.50177(4)
P1 P 0.13628(15) 0.2551(2) 0.53332(10)
O1 O 0.1936(4) 0.2700(6) 0.5224(3)
O2 O 0.0767(4) 0.1121(6) 0.4655(2)
O3 O 0.0406(4) 0.5029(6) 0.4442(3)
O4 O 0.2018(4) 0.4515(6) 0.5436(2)
O5 O 0.1923(4) 0.1020(6) 0.4875(3)
O6 O 0.2887(4) 0.1982(6) 0.5137(3)
O7 O 0.1411(4) 0.2218(6) 0.4419(3)
O8 O 0.1459(4) 0.4189(6) 0.4732(2)
O9 O 0.2928(4) 0.3551(6) 0.5386(2)
O10 O 0.2360(4) 0.3215(6) 0.4671(3)
O11 O 0.2013(4) 0.1870(6) 0.6228(3)
O12 O 0.0517(4) 0.3327(6) 0.4305(2)
O13 O 0.0870(4) 0.4590(6) 0.5207(2)
O14 O 0.1254(4) 0.0593(6) 0.5985(2)
O15 O 0.1466(4) 0.5687(6) 0.5790(3)
O16 O 0.1260(4) -0.0494(6) 0.4795(2)
O17 O -0.0944(4) 0.2658(7) 0.4907(3)
O18 O 0.0805(4) 0.4317(6) 0.5920(3)
O19 O 0.0663(4) 0.0267(6) 0.5265(2)
O20 O 0.0559(4) 0.1977(6) 0.5951(3)
O21 O 0.2612(4) 0.1430(6) 0.5759(3)
O22 O 0.0324(4) 0.1787(6) 0.3921(3)
O23 O 0.1976(4) 0.4236(6) 0.6150(3)
O24 O 0.2653(4) 0.2984(6) 0.6011(3)
O25 O 0.1357(4) 0.3113(6) 0.5677(3)
O26 O 0.2604(4) 0.4885(6) 0.4874(3)
O27 O 0.0821(4) 0.2782(6) 0.4997(3)
O28 O 0.0007(4) 0.1643(6) 0.5248(3)
O29 O 0.0106(4) 0.3346(6) 0.6263(3)
O30 O 0.2526(4) 0.3147(7) 0.6742(3)
O31 O 0.1319(4) 0.1619(6) 0.5436(2)
O32 O 0.3666(4) 0.2378(7) 0.5838(3)
O33 O 0.0029(4) 0.0420(6) 0.5824(3)
O34 O 0.1849(4) 0.0174(6) 0.5497(3)
O35 O 0.0047(4) 0.3167(6) 0.5488(3)
O36 O 0.2460(4) 0.0223(6) 0.6271(3)
O37 O 0.2526(4) 0.1658(6) 0.4372(3)
O38 O -0.0145(4) 0.2181(6) 0.4521(3)
O39 O -0.0097(4) 0.3779(6) 0.4789(3)
O40 O 0.1307(4) 0.3088(7) 0.6376(3)
Mo13 Mo 0.30868(5) 0.19300(8) 0.30903(4)
Mo14 Mo 0.14225(5) 0.20149(8) 0.29090(4)
Mo15 Mo -0.02120(5) 0.20763(7) 0.26311(4)
Mo16 Mo -0.19256(5) 0.22309(8) 0.22878(3)
Mo17 Mo -0.34652(5) 0.31563(8) 0.21214(3)
Mo18 Mo -0.28820(5) 0.25672(8) 0.13217(3)
Mo19 Mo -0.39516(5) 0.23547(8) 0.03542(4)
Mo20 Mo 0.52115(6) 0.24313(11) 0.43279(4)
Mo21 Mo 0.56331(8) 0.25470(13) 0.28016(5)
V1 V 0.45772(9) 0.28724(16) 0.33355(7)
O41 O 0.3967(4) 0.2262(6) 0.3210(3)
O42 O 0.5077(6) 0.2633(12) 0.3085(4)
O43 O 0.4938(7) 0.2683(11) 0.3781(5)
O44 O 0.4401(7) 0.3726(12) 0.3260(6)
O45 O 0.2264(4) 0.2109(6) 0.3008(3)
O46 O 0.3126(4) 0.1458(7) 0.2675(3)
O47 O 0.3203(4) 0.1172(7) 0.3429(3)
O48 O 0.0575(3) 0.2365(6) 0.2806(3)
O49 O 0.1390(4) 0.1438(7) 0.3296(4)
O50 O 0.1263(4) 0.1349(6) 0.2529(3)
O51 O -0.0232(4) 0.1414(6) 0.2258(3)
O52 O -0.0360(4) 0.1466(6) 0.2982(3)
O53 O -0.1150(4) 0.2296(6) 0.2414(2)
O54 O -0.2845(3) 0.2477(5) 0.2286(2)
O55 O -0.2137(3) 0.2599(5) 0.1804(2)
O56 O -0.2064(4) 0.1177(6) 0.2270(3)
O57 O -0.3894(4) 0.2918(7) 0.2448(3)
O58 O -0.3252(3) 0.3173(5) 0.1608(2)
O59 O -0.3229(3) 0.4140(6) 0.2243(3)
O60 O -0.3352(4) 0.2736(6) 0.0856(2)
O61 O -0.2996(4) 0.1543(6) 0.1407(3)
O62 O -0.4333(4) 0.2373(6) -0.0160(2)
O63 O -0.3702(4) 0.1342(6) 0.0413(3)
O64 O -0.4532(4) 0.2428(6) 0.0559(3)
O65 O 0.4534(4) 0.2397(8) 0.4416(4)
O66 O 0.5435(6) 0.1430(9) 0.4291(5)
O67 O 0.5394(5) 0.1643(9) 0.2551(4)
O68 O 0.6268(6) 0.2299(9) 0.3155(4)
N1 N 0.3132(5) 0.3006(8) 0.3530(4)
N2 N 0.3007(5) 0.3232(8) 0.2800(4)
N3 N 0.1370(4) 0.3159(7) 0.2490(3)
N4 N 0.1447(5) 0.3302(8) 0.3219(3)
N5 N -0.0306(4) 0.3232(7) 0.2232(3)
N6 N -0.0374(4) 0.3292(7) 0.2941(3)
N7 N -0.1842(4) 0.2169(7) 0.2936(3)
N8 N -0.1927(4) 0.3570(6) 0.2534(3)
N9 N -0.4242(5) 0.3811(7) 0.1698(3)
N10 N -0.4096(4) 0.2167(7) 0.1772(3)
N11 N -0.2382(4) 0.3749(7) 0.1215(3)
N12 N -0.2157(5) 0.2161(8) 0.1052(3)
N13 N -0.3138(5) 0.2762(8) 0.0141(3)
N14 N -0.3915(5) 0.3815(8) 0.0295(3)
N15 N 0.5256(6) 0.3903(9) 0.4372(4)
N16 N 0.6085(5) 0.2976(11) 0.4211(3)
N17 N 0.5772(9) 0.3978(12) 0.2897(5)
N18 N 0.4925(7) 0.3317(15) 0.2356(5)
C1 C 0.3221(6) 0.2823(12) 0.3901(6)
H1 H 0.3279 0.2248 0.3979
C2 C 0.3234(7) 0.3440(16) 0.4175(6)
H2 H 0.3285 0.3286 0.4435
C3 C 0.3172(7) 0.4254(14) 0.4069(6)
H3 H 0.3200 0.4688 0.4254
C4 C 0.3065(7) 0.4458(11) 0.3677(6)
H4 H 0.2999 0.5030 0.3595
C5 C 0.3055(6) 0.3810(10) 0.3409(5)
C6 C 0.2992(6) 0.3943(9) 0.3000(5)
C7 C 0.2897(7) 0.4721(9) 0.2836(6)
H5 H 0.2869 0.5201 0.2988
C8 C 0.2842(7) 0.4816(14) 0.2452(6)
H6 H 0.2800 0.5360 0.2336
C9 C 0.2849(7) 0.4097(15) 0.2241(6)
H7 H 0.2789 0.4140 0.1972
C10 C 0.2941(7) 0.3315(13) 0.2413(5)
H8 H 0.2958 0.2827 0.2264
C11 C 0.1380(6) 0.3041(11) 0.2130(4)
H9 H 0.1496 0.2501 0.2060
C12 C 0.1229(7) 0.3658(14) 0.1854(5)
H10 H 0.1221 0.3547 0.1596
C13 C 0.1090(7) 0.4449(12) 0.1971(5)
H11 H 0.0986 0.4899 0.1792
C14 C 0.1101(6) 0.4580(10) 0.2342(4)
H12 H 0.1003 0.5122 0.2420
C15 C 0.1253(5) 0.3940(8) 0.2603(4)
C16 C 0.1269(6) 0.4002(9) 0.3017(4)
C17 C 0.1088(6) 0.4704(10) 0.3163(5)
H13 H 0.0954 0.5187 0.3009
C18 C 0.1103(8) 0.4699(14) 0.3543(6)
H14 H 0.0958 0.5174 0.3652
C19 C 0.1319(7) 0.4029(15) 0.3762(5)
H15 H 0.1349 0.4039 0.4028
C20 C 0.1499(6) 0.3319(13) 0.3598(5)
H16 H 0.1658 0.2843 0.3752
C21 C -0.0260(6) 0.3156(10) 0.1866(4)
H17 H -0.0184 0.2618 0.1772
C22 C -0.0322(6) 0.3855(12) 0.1635(4)
H18 H -0.0286 0.3794 0.1382
C23 C -0.0435(6) 0.4644(11) 0.1761(5)
H19 H -0.0475 0.5127 0.1601
C24 C -0.0486(6) 0.4706(11) 0.2123(5)
H20 H -0.0571 0.5242 0.2215
C25 C -0.0417(5) 0.4014(9) 0.2358(4)
C26 C -0.0442(5) 0.4046(8) 0.2751(4)
C27 C -0.0508(5) 0.4774(9) 0.2942(4)
H21 H -0.0568 0.5298 0.2809
C28 C -0.0488(7) 0.4753(11) 0.3329(5)
H22 H -0.0530 0.5254 0.3464
C29 C -0.0406(6) 0.3987(12) 0.3504(5)
H23 H -0.0383 0.3956 0.3769
C30 C -0.0356(6) 0.3274(10) 0.3316(4)
H24 H -0.0308 0.2748 0.3448
C31 C -0.1738(6) 0.1442(10) 0.3120(4)
H25 H -0.1773 0.0937 0.2974
C32 C -0.1581(7) 0.1375(13) 0.3515(5)
H26 H -0.1487 0.0845 0.3641
C33 C -0.1568(8) 0.2116(16) 0.3714(5)
H27 H -0.1473 0.2107 0.3985
C34 C -0.1689(7) 0.2859(13) 0.3524(5)
H28 H -0.1691 0.3369 0.3663
C35 C -0.1809(6) 0.2885(10) 0.3135(4)
C36 C -0.1922(5) 0.3683(9) 0.2896(4)
C37 C -0.1994(6) 0.4454(10) 0.3049(5)
H29 H -0.1980 0.4517 0.3311
C38 C -0.2088(7) 0.5138(12) 0.2801(6)
H30 H -0.2153 0.5685 0.2891
C39 C -0.2088(6) 0.5031(10) 0.2439(6)
H31 H -0.2154 0.5501 0.2270
C40 C -0.1994(5) 0.4253(9) 0.2313(4)
H32 H -0.1976 0.4191 0.2056
C41 C -0.4250(7) 0.4650(10) 0.1658(5)
H33 H -0.3955 0.4983 0.1829
C42 C -0.4677(8) 0.5040(11) 0.1374(6)
H34 H -0.4680 0.5640 0.1352
C43 C -0.5102(7) 0.4565(12) 0.1120(5)
H35 H -0.5398 0.4832 0.0922
C44 C -0.5093(6) 0.3704(11) 0.1158(4)
H36 H -0.5381 0.3360 0.0988
C45 C -0.4643(6) 0.3340(10) 0.1457(4)
C46 C -0.4596(6) 0.2429(10) 0.1517(4)
C47 C -0.5030(8) 0.1862(12) 0.1346(6)
H37 H -0.5390 0.2057 0.1174
C48 C -0.4947(8) 0.1007(13) 0.1421(5)
H38 H -0.5233 0.0603 0.1291
C49 C -0.4428(8) 0.0752(11) 0.1696(5)
H39 H -0.4357 0.0173 0.1763
C50 C -0.4025(7) 0.1369(10) 0.1865(4)
H40 H -0.3680 0.1205 0.2059
C51 C -0.2544(6) 0.4534(11) 0.1279(4)
H41 H -0.2878 0.4608 0.1379
C52 C -0.2250(7) 0.5237(9) 0.1205(4)
H42 H -0.2374 0.5786 0.1259
C53 C -0.1773(6) 0.5141(10) 0.1054(4)
H43 H -0.1557 0.5619 0.1006
C54 C -0.1622(6) 0.4357(11) 0.0976(4)
H44 H -0.1307 0.4283 0.0859
C55 C -0.1917(6) 0.3648(9) 0.1062(4)
C56 C -0.1795(6) 0.2760(10) 0.0972(4)
C57 C -0.1351(6) 0.2552(10) 0.0806(4)
H45 H -0.1096 0.2982 0.0758
C58 C -0.1271(6) 0.1728(10) 0.0710(4)
H46 H -0.0957 0.1577 0.0602
C59 C -0.1660(7) 0.1133(11) 0.0775(4)
H47 H -0.1633 0.0562 0.0699
C60 C -0.2086(6) 0.1365(9) 0.0949(4)
H48 H -0.2343 0.0940 0.1000
C61 C -0.2779(6) 0.2160(10) 0.0063(4)
H49 H -0.2848 0.1582 0.0110
C62 C -0.2311(6) 0.2377(11) -0.0084(4)
H50 H -0.2045 0.1955 -0.0128
C63 C -0.2233(7) 0.3207(14) -0.0167(5)
H51 H -0.1920 0.3362 -0.0276
C64 C -0.2607(8) 0.3810(12) -0.0094(5)
H52 H -0.2560 0.4385 -0.0156
C65 C -0.3064(6) 0.3575(10) 0.0077(5)
C66 C -0.3480(7) 0.4192(10) 0.0167(4)
C67 C -0.3432(8) 0.5037(13) 0.0153(6)
H53 H -0.3119 0.5284 0.0067
C68 C -0.3832(10) 0.5543(12) 0.0261(6)
H54 H -0.3797 0.6141 0.0253
C69 C -0.4265(8) 0.5198(11) 0.0376(6)
H55 H -0.4554 0.5549 0.0442
C70 C -0.4304(7) 0.4347(11) 0.0401(5)
H56 H -0.4612 0.4112 0.0496
C71 C 0.4805(9) 0.4351(15) 0.4443(6)
H57 H 0.4442 0.4077 0.4442
C72 C 0.4869(11) 0.5206(16) 0.4515(7)
H58 H 0.4533 0.5527 0.4532
C73 C 0.5398(12) 0.5599(16) 0.4561(7)
H59 H 0.5456 0.6171 0.4643
C74 C 0.5853(11) 0.5125(16) 0.4483(6)
H60 H 0.6228 0.5383 0.4500
C75 C 0.5768(8) 0.4289(13) 0.4380(5)
C76 C 0.6216(7) 0.3804(12) 0.4270(5)
C77 C 0.6740(7) 0.4115(13) 0.4217(5)
H61 H 0.6833 0.4695 0.4270
C78 C 0.7126(9) 0.363(2) 0.4094(7)
H62 H 0.7491 0.3854 0.4068
C79 C 0.6971(9) 0.2786(18) 0.4006(5)
H63 H 0.7211 0.2437 0.3895
C80 C 0.6435(8) 0.2444(14) 0.4087(5)
H64 H 0.6339 0.1859 0.4051
C81 C 0.6277(11) 0.4242(17) 0.3162(7)
H65 H 0.6510 0.3846 0.3337
C82 C 0.6453(11) 0.510(2) 0.3176(8)
H66 H 0.6778 0.5302 0.3376
C83 C 0.6144(11) 0.5633(16) 0.2896(8)
H67 H 0.6270 0.6202 0.2886
C84 C 0.5643(9) 0.5331(18) 0.2625(6)
H68 H 0.5416 0.5694 0.2431
C85 C 0.5484(10) 0.4511(17) 0.2644(8)
C86 C 0.4968(9) 0.417(2) 0.2359(7)
C87 C 0.4531(9) 0.4648(17) 0.2110(7)
H69 H 0.4552 0.5248 0.2122
C88 C 0.4055(9) 0.4253(14) 0.1837(6)
H70 H 0.3763 0.4574 0.1658
C89 C 0.4036(10) 0.3414(16) 0.1844(7)
H71 H 0.3716 0.3129 0.1669
C90 C 0.4478(10) 0.2928(15) 0.2103(6)
H72 H 0.4456 0.2327 0.2098
Mo20C Mo -0.47885(6) 0.25687(11) -0.06721(4)
Mo21_2 Mo -0.43669(8) 0.25470(13) 0.28016(5)
O57_2 O 0.6106(4) 0.2918(7) 0.2448(3)
O62C O 0.5667(4) 0.2627(6) 0.4840(2)
loop_
_geom_bond_atom_site_label_1
_geom_bond_atom_site_label_2
_geom_bond_site_symmetry_1
_geom_bond_site_symmetry_2
Mo1 O17 1_555 1_555
Mo2 O1 1_555 1_555
Mo3 O11 1_555 1_555
Mo4 O18 1_555 1_555
Mo5 O11 1_555 1_555
Mo6 O1 1_555 1_555
Mo7 O4 1_555 1_555
Mo8 O14 1_555 1_555
Mo9 O3 1_555 1_555
Mo10 O2 1_555 1_555
Mo11 O1 1_555 1_555
Mo12 O2 1_555 1_555
P1 O1 1_555 1_555
O4 Mo6 1_555 1_555
O5 Mo11 1_555 1_555
O6 Mo2 1_555 1_555
O7 Mo10 1_555 1_555
O8 Mo6 1_555 1_555
O9 Mo2 1_555 1_555
O10 Mo6 1_555 1_555
O12 Mo9 1_555 1_555
O13 Mo7 1_555 1_555
O14 Mo5 1_555 1_555
O15 Mo7 1_555 1_555
O16 Mo12 1_555 1_555
O18 Mo7 1_555 1_555
O19 Mo8 1_555 1_555
O20 Mo4 1_555 1_555
O21 Mo2 1_555 1_555
O22 Mo10 1_555 1_555
O23 Mo3 1_555 1_555
O24 Mo2 1_555 1_555
O25 Mo3 1_555 1_555
O26 Mo6 1_555 1_555
O27 Mo1 1_555 1_555
O28 Mo1 1_555 1_555
O29 Mo4 1_555 1_555
O30 Mo3 1_555 1_555
O31 Mo5 1_555 1_555
O32 Mo2 1_555 1_555
O33 Mo8 1_555 1_555
O34 Mo5 1_555 1_555
O35 Mo1 1_555 1_555
O36 Mo5 1_555 1_555
O37 Mo11 1_555 1_555
O38 Mo1 1_555 1_555
O39 Mo1 1_555 1_555
O40 Mo3 1_555 1_555
Mo13 O41 1_555 1_555
Mo14 O45 1_555 1_555
Mo15 O48 1_555 1_555
Mo16 O53 1_555 1_555
Mo17 O54 1_555 1_555
Mo18 O55 1_555 1_555
Mo19 O60 1_555 1_555
Mo20 O43 1_555 1_555
Mo21 O42 1_555 1_555
V1 O41 1_555 1_555
O42 V1 1_555 1_555
O43 V1 1_555 1_555
O44 V1 1_555 1_555
O45 Mo13 1_555 1_555
O46 Mo13 1_555 1_555
O47 Mo13 1_555 1_555
O48 Mo14 1_555 1_555
O49 Mo14 1_555 1_555
O50 Mo14 1_555 1_555
O51 Mo15 1_555 1_555
O52 Mo15 1_555 1_555
O53 Mo15 1_555 1_555
O54 Mo16 1_555 1_555
O55 Mo16 1_555 1_555
O56 Mo16 1_555 1_555
O57 Mo17 1_555 1_555
O58 Mo17 1_555 1_555
O59 Mo17 1_555 1_555
O60 Mo18 1_555 1_555
O61 Mo18 1_555 1_555
O62 Mo19 1_555 1_555
O63 Mo19 1_555 1_555
O64 Mo19 1_555 1_555
O65 Mo20 1_555 1_555
O66 Mo20 1_555 1_555
O67 Mo21 1_555 1_555
O68 Mo21 1_555 1_555
N1 Mo13 1_555 1_555
N2 Mo13 1_555 1_555
N3 Mo14 1_555 1_555
N4 Mo14 1_555 1_555
N5 Mo15 1_555 1_555
N6 Mo15 1_555 1_555
N7 Mo16 1_555 1_555
N8 Mo16 1_555 1_555
N9 Mo17 1_555 1_555
N10 Mo17 1_555 1_555
N11 Mo18 1_555 1_555
N12 Mo18 1_555 1_555
N13 Mo19 1_555 1_555
N14 Mo19 1_555 1_555
N15 Mo20 1_555 1_555
N16 Mo20 1_555 1_555
N17 Mo21 1_555 1_555
N18 Mo21 1_555 1_555
C1 N1 1_555 1_555
H1 C1 1_555 1_555
C2 C1 1_555 1_555
H2 C2 1_555 1_555
C3 C2 1_555 1_555
H3 C3 1_555 1_555
C4 C3 1_555 1_555
H4 C4 1_555 1_555
C5 N1 1_555 1_555
C6 N2 1_555 1_555
C7 C6 1_555 1_555
H5 C7 1_555 1_555
C8 C7 1_555 1_555
H6 C8 1_555 1_555
C9 C8 1_555 1_555
H7 C9 1_555 1_555
C10 N2 1_555 1_555
H8 C10 1_555 1_555
C11 N3 1_555 1_555
H9 C11 1_555 1_555
C12 C11 1_555 1_555
H10 C12 1_555 1_555
C13 C12 1_555 1_555
H11 C13 1_555 1_555
C14 C13 1_555 1_555
H12 C14 1_555 1_555
C15 N3 1_555 1_555
C16 N4 1_555 1_555
C17 C16 1_555 1_555
H13 C17 1_555 1_555
C18 C17 1_555 1_555
H14 C18 1_555 1_555
C19 C18 1_555 1_555
H15 C19 1_555 1_555
C20 N4 1_555 1_555
H16 C20 1_555 1_555
C21 N5 1_555 1_555
H17 C21 1_555 1_555
C22 C21 1_555 1_555
H18 C22 1_555 1_555
C23 C22 1_555 1_555
H19 C23 1_555 1_555
C24 C23 1_555 1_555
H20 C24 1_555 1_555
C25 N5 1_555 1_555
C26 N6 1_555 1_555
C27 C26 1_555 1_555
H21 C27 1_555 1_555
C28 C27 1_555 1_555
H22 C28 1_555 1_555
C29 C28 1_555 1_555
H23 C29 1_555 1_555
C30 N6 1_555 1_555
H24 C30 1_555 1_555
C31 N7 1_555 1_555
H25 C31 1_555 1_555
C32 C31 1_555 1_555
H26 C32 1_555 1_555
C33 C32 1_555 1_555
H27 C33 1_555 1_555
C34 C33 1_555 1_555
H28 C34 1_555 1_555
C35 N7 1_555 1_555
C36 N8 1_555 1_555
C37 C36 1_555 1_555
H29 C37 1_555 1_555
C38 C37 1_555 1_555
H30 C38 1_555 1_555
C39 C38 1_555 1_555
H31 C39 1_555 1_555
C40 N8 1_555 1_555
H32 C40 1_555 1_555
C41 N9 1_555 1_555
H33 C41 1_555 1_555
C42 C41 1_555 1_555
H34 C42 1_555 1_555
C43 C42 1_555 1_555
H35 C43 1_555 1_555
C44 C43 1_555 1_555
H36 C44 1_555 1_555
C45 N9 1_555 1_555
C46 N10 1_555 1_555
C47 C46 1_555 1_555
H37 C47 1_555 1_555
C48 C47 1_555 1_555
H38 C48 1_555 1_555
C49 C48 1_555 1_555
H39 C49 1_555 1_555
C50 N10 1_555 1_555
H40 C50 1_555 1_555
C51 N11 1_555 1_555
H41 C51 1_555 1_555
C52 C51 1_555 1_555
H42 C52 1_555 1_555
C53 C52 1_555 1_555
H43 C53 1_555 1_555
C54 C53 1_555 1_555
H44 C54 1_555 1_555
C55 N11 1_555 1_555
C56 N12 1_555 1_555
C57 C56 1_555 1_555
H45 C57 1_555 1_555
C58 C57 1_555 1_555
H46 C58 1_555 1_555
C59 C58 1_555 1_555
H47 C59 1_555 1_555
C60 N12 1_555 1_555
H48 C60 1_555 1_555
C61 N13 1_555 1_555
H49 C61 1_555 1_555
C62 C61 1_555 1_555
H50 C62 1_555 1_555
C63 C62 1_555 1_555
H51 C63 1_555 1_555
C64 C63 1_555 1_555
H52 C64 1_555 1_555
C65 N13 1_555 1_555
C66 N14 1_555 1_555
C67 C66 1_555 1_555
H53 C67 1_555 1_555
C68 C67 1_555 1_555
H54 C68 1_555 1_555
C69 C68 1_555 1_555
H55 C69 1_555 1_555
C70 N14 1_555 1_555
H56 C70 1_555 1_555
C71 N15 1_555 1_555
H57 C71 1_555 1_555
C72 C71 1_555 1_555
H58 C72 1_555 1_555
C73 C72 1_555 1_555
H59 C73 1_555 1_555
C74 C73 1_555 1_555
H60 C74 1_555 1_555
C75 N15 1_555 1_555
C76 N16 1_555 1_555
C77 C76 1_555 1_555
H61 C77 1_555 1_555
C78 C77 1_555 1_555
H62 C78 1_555 1_555
C79 C78 1_555 1_555
H63 C79 1_555 1_555
C80 N16 1_555 1_555
H64 C80 1_555 1_555
C81 N17 1_555 1_555
H65 C81 1_555 1_555
C82 C81 1_555 1_555
H66 C82 1_555 1_555
C83 C82 1_555 1_555
H67 C83 1_555 1_555
C84 C83 1_555 1_555
H68 C84 1_555 1_555
C85 N17 1_555 1_555
C86 N18 1_555 1_555
C87 C86 1_555 1_555
H69 C87 1_555 1_555
C88 C87 1_555 1_555
H70 C88 1_555 1_555
C89 C88 1_555 1_555
H71 C89 1_555 1_555
C90 N18 1_555 1_555
H72 C90 1_555 1_555
Mo20C O62 1_555 1_555
Mo21_2 O57 1_555 1_555
O57_2 Mo21 1_555 1_555
O62C Mo20 1_555 1_555
Mo3 O24 1_555 1_555
Mo4 O25 1_555 1_555
Mo4 O35 1_555 1_555
Mo4 O40 1_555 1_555
Mo5 O21 1_555 1_555
Mo6 O9 1_555 1_555
Mo7 O23 1_555 1_555
Mo7 O25 1_555 1_555
Mo8 O20 1_555 1_555
Mo8 O28 1_555 1_555
Mo8 O31 1_555 1_555
Mo9 O8 1_555 1_555
Mo9 O13 1_555 1_555
Mo9 O27 1_555 1_555
Mo9 O39 1_555 1_555
Mo10 O12 1_555 1_555
Mo10 O27 1_555 1_555
Mo10 O38 1_555 1_555
Mo11 O6 1_555 1_555
Mo11 O7 1_555 1_555
Mo11 O10 1_555 1_555
Mo12 O5 1_555 1_555
Mo12 O19 1_555 1_555
Mo12 O31 1_555 1_555
Mo12 O34 1_555 1_555
P1 O25 1_555 1_555
P1 O27 1_555 1_555
P1 O31 1_555 1_555
Mo18 O58 1_555 1_555
C4 C5 1_555 1_555
C5 C6 1_555 1_555
C9 C10 1_555 1_555
C14 C15 1_555 1_555
C15 C16 1_555 1_555
C19 C20 1_555 1_555
C24 C25 1_555 1_555
C25 C26 1_555 1_555
C29 C30 1_555 1_555
C34 C35 1_555 1_555
C35 C36 1_555 1_555
C39 C40 1_555 1_555
C44 C45 1_555 1_555
C45 C46 1_555 1_555
C49 C50 1_555 1_555
C54 C55 1_555 1_555
C55 C56 1_555 1_555
C59 C60 1_555 1_555
C64 C65 1_555 1_555
C65 C66 1_555 1_555
C69 C70 1_555 1_555
C74 C75 1_555 1_555
C75 C76 1_555 1_555
C79 C80 1_555 1_555
C84 C85 1_555 1_555
C85 C86 1_555 1_555
C89 C90 1_555 1_555

#END
