
#######################################################################
#
#                 Cambridge Crystallographic Data Centre
#                                CCDC 
#
#######################################################################
#
# If this CIF has been generated from an entry in the Cambridge 
# Structural Database, then it will include bibliographic, chemical, 
# crystal, experimental, refinement or atomic coordinate data resulting 
# from the CCDC's data processing and validation procedures.
#
#######################################################################

data_FOZSOE
_symmetry_cell_setting           monoclinic
_symmetry_space_group_name_H-M   'P 21/c'
_symmetry_Int_Tables_number      14
_space_group_name_Hall           '-P 2ybc'
loop_
_symmetry_equiv_pos_site_id
_symmetry_equiv_pos_as_xyz
1 x,y,z
2 -x,1/2+y,1/2-z
3 -x,-y,-z
4 x,1/2-y,1/2+z
_cell_length_a                   26.374(5)
_cell_length_b                   15.514(5)
_cell_length_c                   23.053(5)
_cell_angle_alpha                90
_cell_angle_beta                 109.561(5)
_cell_angle_gamma                90
_cell_volume                     8888.12
loop_
_atom_site_label
_atom_site_type_symbol
_atom_site_fract_x
_atom_site_fract_y
_atom_site_fract_z
C1 C -0.1189(11) 0.582(2) 0.9532(11)
H1 H -0.0951 0.5988 0.9314
H2 H -0.1250 0.5213 0.9494
H3 H -0.1030 0.5973 0.9958
C2 C -0.1640(13) 0.7183(18) 0.9169(12)
H4 H -0.1360 0.7418 0.9515
H5 H -0.1972 0.7477 0.9120
H6 H -0.1547 0.7256 0.8803
C3 C -0.1702(8) 0.6275(12) 0.9270(9)
C4 C -0.1972(10) 0.6180(13) 0.9754(8)
H7 H -0.1752 0.6443 1.0131
H8 H -0.2018 0.5580 0.9824
H9 H -0.2318 0.6458 0.9614
C5 C -0.2095(9) 0.5896(14) 0.8641(8)
C6 C -0.1920(9) 0.5209(14) 0.8365(9)
H10 H -0.1582 0.4968 0.8554
C7 C -0.2261(8) 0.4884(14) 0.7797(9)
C8 C -0.2783(8) 0.5232(13) 0.7522(9)
H11 H -0.3019 0.5001 0.7160
C9 C -0.2927(8) 0.5905(12) 0.7800(8)
C10 C -0.2599(9) 0.6225(13) 0.8356(8)
H12 H -0.2722 0.6673 0.8541
C11 C -0.2032(9) 0.4215(13) 0.7483(9)
C12 C -0.1982(9) 0.3763(13) 0.6509(9)
C13 C -0.1724(9) 0.2997(13) 0.6672(8)
H13 H -0.1678 0.2745 0.7052
C14 C -0.1533(10) 0.2611(12) 0.6252(9)
H14 H -0.1346 0.2098 0.6373
C15 C -0.1860(8) 0.3615(13) 0.5547(8)
H15 H -0.1909 0.3850 0.5161
C16 C -0.2071(8) 0.4040(12) 0.5916(9)
H16 H -0.2280 0.4528 0.5770
C17 C -0.3478(8) 0.6307(14) 0.7555(10)
C18 C -0.4275(8) 0.6335(11) 0.6653(8)
C19 C -0.5040(8) 0.6211(11) 0.5725(8)
H17 H -0.5209 0.5905 0.5364
C20 C -0.5049(8) 0.7303(12) 0.6367(9)
H18 H -0.5220 0.7774 0.6470
C21 C -0.4541(9) 0.7040(12) 0.6779(9)
H19 H -0.4384 0.7348 0.7141
C22 C -0.4549(8) 0.5921(11) 0.6106(9)
H20 H -0.4398 0.5435 0.5994
C23 C -0.0245(9) 0.2494(12) 0.6252(9)
H21 H -0.0434 0.2084 0.6392
C24 C 0.0281(8) 0.2661(12) 0.6637(8)
H22 H 0.0439 0.2363 0.7003
C25 C 0.0555(9) 0.3296(11) 0.6439(8)
C26 C 0.0272(8) 0.3704(10) 0.5882(8)
H23 H 0.0437 0.4143 0.5735
C27 C -0.0226(8) 0.3472(10) 0.5561(9)
H24 H -0.0396 0.3769 0.5197
C28 C 0.1403(9) 0.3231(13) 0.7333(10)
C29 C 0.1966(7) 0.3507(10) 0.7581(8)
C30 C 0.2263(9) 0.3154(11) 0.8152(9)
H25 H 0.2094 0.2787 0.8348
C31 C 0.2798(9) 0.3338(11) 0.8429(8)
C32 C 0.3041(8) 0.3880(12) 0.8138(8)
H26 H 0.3405 0.4007 0.8322
C33 C 0.2753(8) 0.4256(11) 0.7560(8)
C34 C 0.2227(8) 0.4037(10) 0.7304(9)
H27 H 0.2034 0.4262 0.6919
C35 C 0.3073(12) 0.1945(17) 0.8961(12)
H28 H 0.3239 0.1670 0.9352
H29 H 0.3266 0.1796 0.8688
H30 H 0.2707 0.1756 0.8788
C36 C 0.3086(13) 0.293(2) 0.9050(12)
C37 C 0.2879(12) 0.3193(17) 0.9530(10)
H31 H 0.2493 0.3180 0.9375
H32 H 0.2999 0.3768 0.9659
H33 H 0.3009 0.2808 0.9874
C38 C 0.3678(12) 0.3154(18) 0.9267(10)
H34 H 0.3853 0.2897 0.9663
H35 H 0.3718 0.3769 0.9300
H36 H 0.3837 0.2942 0.8977
C39 C 0.3049(9) 0.4879(12) 0.7311(11)
C40 C 0.3047(8) 0.5717(13) 0.6425(9)
C41 C 0.2901(7) 0.5665(11) 0.5804(9)
H37 H 0.2622 0.5300 0.5588
C42 C 0.3162(8) 0.6146(12) 0.5490(8)
H38 H 0.3039 0.6102 0.5063
C43 C 0.3708(7) 0.6712(11) 0.6350(8)
H39 H 0.3998 0.7062 0.6557
C44 C 0.3460(8) 0.6287(11) 0.6710(8)
H40 H 0.3567 0.6381 0.7133
C45 C -0.0511(7) 0.1415(11) 0.4689(8)
H41 H -0.0428 0.1180 0.5081
C46 C -0.0289(8) 0.1052(10) 0.4295(9)
H42 H -0.0066 0.0574 0.4412
C47 C -0.0404(8) 0.1413(12) 0.3707(8)
C48 C -0.0722(8) 0.2127(11) 0.3568(8)
H43 H -0.0807 0.2388 0.3184
C49 C -0.0909(7) 0.2446(10) 0.3995(8)
H44 H -0.1102 0.2959 0.3901
C50 C -0.0313(9) 0.1159(16) 0.2703(10)
C51 C -0.0114(9) 0.0481(14) 0.2359(9)
C52 C 0.0406(8) 0.0271(11) 0.2538(8)
H45 H 0.0654 0.0540 0.2874
C53 C 0.0566(7) -0.0360(11) 0.2210(8)
C54 C 0.0212(8) -0.0771(11) 0.1732(7)
H46 H 0.0338 -0.1183 0.1521
C55 C -0.0330(9) -0.0604(13) 0.1546(8)
C56 C -0.0514(10) 0.0068(15) 0.1860(10)
H47 H -0.0874 0.0223 0.1743
C57 C -0.0761(13) -0.1970(19) 0.1235(11)
H48 H -0.1000 -0.1985 0.1470
H49 H -0.0410 -0.2161 0.1487
H50 H -0.0895 -0.2344 0.0885
C58 C -0.0727(9) -0.1118(14) 0.1033(9)
C59 C -0.0526(12) -0.113(2) 0.0488(10)
H51 H -0.0217 -0.1504 0.0580
H52 H -0.0428 -0.0561 0.0409
H53 H -0.0805 -0.1348 0.0132
C60 C -0.1240(12) -0.068(2) 0.0768(12)
H54 H -0.1489 -0.1045 0.0474
H55 H -0.1188 -0.0158 0.0566
H56 H -0.1382 -0.0531 0.1089
C61 C 0.2285(9) -0.0337(11) 0.3805(9)
H57 H 0.2113 0.0031 0.3999
C62 C 0.2796(9) -0.0604(12) 0.4097(10)
H58 H 0.2965 -0.0387 0.4490
C63 C 0.2823(8) -0.1382(11) 0.3308(9)
H59 H 0.3008 -0.1745 0.3127
C64 C 0.2308(8) -0.1150(10) 0.2957(8)
H60 H 0.2157 -0.1346 0.2554
C65 C 0.2024(7) -0.0631(10) 0.3209(9)
C66 C 0.1150(8) -0.0665(10) 0.2365(10)
C67 C 0.4144(7) 0.7662(10) 0.4067(8)
H61 H 0.3863 0.7275 0.3903
C68 C 0.4776(8) 0.8281(10) 0.4898(8)
H62 H 0.4942 0.8330 0.5322
C69 C 0.4982(8) 0.8738(10) 0.4525(8)
H63 H 0.5271 0.9108 0.4699
C70 C 0.4758(8) 0.8658(10) 0.3862(8)
C71 C 0.4332(7) 0.8096(11) 0.3671(8)
H64 H 0.4165 0.8010 0.3250
C72 C 0.4863(7) 0.9075(11) 0.2902(9)
C73 C 0.5070(8) 0.9772(9) 0.2583(7)
C74 C 0.4716(7) 1.0111(10) 0.2056(8)
H65 H 0.4370 0.9884 0.1902
C75 C 0.4859(7) 1.0790(9) 0.1742(8)
C76 C 0.5376(8) 1.1110(10) 0.2000(8)
H66 H 0.5486 1.1563 0.1806
C77 C 0.5737(7) 1.0774(10) 0.2540(8)
C78 C 0.5578(8) 1.0102(10) 0.2838(8)
H67 H 0.5813 0.9879 0.3204
C79 C 0.6274(8) 1.1202(13) 0.2770(10)
C80 C 0.7094(7) 1.1374(11) 0.3727(8)
C81 C 0.7306(7) 1.1092(11) 0.4341(8)
H68 H 0.7130 1.0676 0.4493
C82 C 0.7375(7) 1.1972(10) 0.3522(8)
H69 H 0.7248 1.2156 0.3115
C83 C 0.4451(7) 1.1233(9) 0.1178(7)
C84 C 0.3933(8) 1.0735(10) 0.0940(7)
H70 H 0.3771 1.0700 0.1255
H71 H 0.4005 1.0165 0.0826
H72 H 0.3692 1.1024 0.0586
C85 C 0.4338(7) 1.2111(9) 0.1355(7)
H73 H 0.4089 1.2394 0.1004
H74 H 0.4667 1.2435 0.1497
H75 H 0.4185 1.2073 0.1678
C86 C 0.4698(8) 1.1252(10) 0.0662(7)
H76 H 0.4473 1.1585 0.0323
H77 H 0.4728 1.0675 0.0527
H78 H 0.5050 1.1509 0.0814
C87 C 0.7777(7) 1.1444(11) 0.4703(8)
H79 H 0.7913 1.1266 0.5111
C88 C 0.7843(8) 1.2294(11) 0.3920(9)
H80 H 0.8022 1.2715 0.3775
Cu1 Cu -0.12173(9) 0.24621(13) 0.51233(9)
Cu2 Cu 0.39935(10) 0.72423(14) 0.52551(10)
N1 N 0.8061(6) 1.2041(8) 0.4508(6)
N2 N -0.3790(5) 0.6014(7) 0.6987(6)
H81 H -0.3667 0.5592 0.6832
N3 N -0.2184(7) 0.4209(9) 0.6894(6)
H82 H -0.2455 0.4535 0.6713
N4 N -0.1588(5) 0.2892(9) 0.5688(6)
N5 N -0.0845(6) 0.2100(9) 0.4542(7)
N6 N -0.0191(6) 0.0985(8) 0.3306(7)
H83 H 0.0037 0.0579 0.3457
N7 N 0.1490(6) -0.0421(8) 0.2933(7)
H84 H 0.1353 -0.0096 0.3144
N8 N 0.3080(6) -0.1132(9) 0.3885(7)
N9 N -0.0505(6) 0.2849(8) 0.5717(6)
N10 N 0.1084(7) 0.3548(8) 0.6767(7)
H85 H 0.1224 0.3936 0.6601
N11 N 0.2806(6) 0.5199(9) 0.6736(7)
H86 H 0.2474 0.5064 0.6552
N12 N 0.3582(6) 0.6677(8) 0.5751(7)
N13 N 0.4339(6) 0.7754(8) 0.4681(7)
N14 N 0.4965(5) 0.9163(7) 0.3526(6)
H87 H 0.5178 0.9571 0.3713
N15 N 0.6597(6) 1.1008(8) 0.3362(7)
H88 H 0.6479 1.0602 0.3537
N16 N -0.5287(6) 0.6898(10) 0.5839(7)
N17 N 0.4068(8) 0.9252(14) 0.5716(8)
O1 O -0.3607(6) 0.6844(11) 0.7832(6)
O2 O -0.1722(10) 0.3706(15) 0.7786(8)
O3 O 0.1212(7) 0.2763(12) 0.7613(6)
O4 O 0.3526(6) 0.5040(9) 0.7588(6)
O5 O 0.4603(5) 0.8466(7) 0.2593(5)
O6 O 0.6434(5) 1.1737(7) 0.2477(5)
O7 O -0.0561(7) 0.1798(11) 0.2445(6)
O8 O 0.1303(5) -0.1061(8) 0.2010(6)
O9 O 0.3286(5) 0.7502(8) 0.4632(5)
O10 O 0.3878(6) 0.8560(9) 0.5644(6)
O11 O 0.3818(6) 0.9939(9) 0.5680(6)
O12 O 0.4588(7) 0.9289(8) 0.5909(6)
O13 O 0.3165(8) 0.6167(14) 0.3907(9)
O14 O 0.3912(5) 0.5771(7) 0.4625(6)
O15 O 0.3350(9) 0.4981(11) 0.3990(8)
N18 N 0.3550(7) 0.5573(11) 0.4146(8)
N19 N -0.0905(6) 0.0440(11) 0.5901(7)
O16 O -0.1179(5) 0.1068(8) 0.5657(5)
O17 O -0.1105(5) -0.0224(8) 0.6054(5)
O18 O -0.0396(5) 0.0456(6) 0.6032(5)
Cu1_2 Cu 0.87827(9) 1.24621(13) 0.51233(9)
Cu2_2 Cu -0.60065(10) 0.72423(14) 0.52551(10)
N1_2 N -0.1939(6) 0.2041(8) 0.4508(6)
N16_2 N 0.4713(6) 0.6898(10) 0.5839(7)
N20 N 0.8620(9) 0.0408(13) 0.9242(7)
O19 O 0.8384(6) -0.0271(9) 0.9031(6)
O20 O 0.8439(6) 0.1035(8) 0.9393(6)
O21 O 0.9118(7) 0.0421(8) 0.9328(6)
loop_
_geom_bond_atom_site_label_1
_geom_bond_atom_site_label_2
_geom_bond_site_symmetry_1
_geom_bond_site_symmetry_2
C1 H1 1_555 1_555
H2 C1 1_555 1_555
H3 C1 1_555 1_555
C2 H4 1_555 1_555
H5 C2 1_555 1_555
H6 C2 1_555 1_555
C3 C1 1_555 1_555
C4 C3 1_555 1_555
H7 C4 1_555 1_555
H8 C4 1_555 1_555
H9 C4 1_555 1_555
C5 C3 1_555 1_555
C6 C5 1_555 1_555
H10 C6 1_555 1_555
C7 C6 1_555 1_555
C8 C7 1_555 1_555
H11 C8 1_555 1_555
C9 C8 1_555 1_555
C10 C5 1_555 1_555
H12 C10 1_555 1_555
C11 C7 1_555 1_555
C12 C13 1_555 1_555
C13 H13 1_555 1_555
C14 C13 1_555 1_555
H14 C14 1_555 1_555
C15 H15 1_555 1_555
C16 C12 1_555 1_555
H16 C16 1_555 1_555
C17 C9 1_555 1_555
C18 C21 1_555 1_555
C19 H17 1_555 1_555
C20 H18 1_555 1_555
C21 C20 1_555 1_555
H19 C21 1_555 1_555
C22 C18 1_555 1_555
H20 C22 1_555 1_555
C23 H21 1_555 1_555
C24 C23 1_555 1_555
H22 C24 1_555 1_555
C25 C24 1_555 1_555
C26 C25 1_555 1_555
H23 C26 1_555 1_555
C27 C26 1_555 1_555
H24 C27 1_555 1_555
C28 C29 1_555 1_555
C29 C30 1_555 1_555
C30 H25 1_555 1_555
C31 C30 1_555 1_555
C32 C31 1_555 1_555
H26 C32 1_555 1_555
C33 C32 1_555 1_555
C34 C29 1_555 1_555
H27 C34 1_555 1_555
C35 H28 1_555 1_555
H29 C35 1_555 1_555
H30 C35 1_555 1_555
C36 C31 1_555 1_555
C37 C36 1_555 1_555
H31 C37 1_555 1_555
H32 C37 1_555 1_555
H33 C37 1_555 1_555
C38 C36 1_555 1_555
H34 C38 1_555 1_555
H35 C38 1_555 1_555
H36 C38 1_555 1_555
C39 C33 1_555 1_555
C40 C41 1_555 1_555
C41 H37 1_555 1_555
C42 C41 1_555 1_555
H38 C42 1_555 1_555
C43 H39 1_555 1_555
C44 C40 1_555 1_555
H40 C44 1_555 1_555
C45 H41 1_555 1_555
C46 C45 1_555 1_555
H42 C46 1_555 1_555
C47 C46 1_555 1_555
C48 C47 1_555 1_555
H43 C48 1_555 1_555
C49 C48 1_555 1_555
H44 C49 1_555 1_555
C50 C51 1_555 1_555
C51 C52 1_555 1_555
C52 H45 1_555 1_555
C53 C52 1_555 1_555
C54 C53 1_555 1_555
H46 C54 1_555 1_555
C55 C54 1_555 1_555
C56 C51 1_555 1_555
H47 C56 1_555 1_555
C57 H48 1_555 1_555
H49 C57 1_555 1_555
H50 C57 1_555 1_555
C58 C55 1_555 1_555
C59 C58 1_555 1_555
H51 C59 1_555 1_555
H52 C59 1_555 1_555
H53 C59 1_555 1_555
C60 C58 1_555 1_555
H54 C60 1_555 1_555
H55 C60 1_555 1_555
H56 C60 1_555 1_555
C61 H57 1_555 1_555
C62 C61 1_555 1_555
H58 C62 1_555 1_555
C63 H59 1_555 1_555
C64 C63 1_555 1_555
H60 C64 1_555 1_555
C65 C61 1_555 1_555
C66 C53 1_555 1_555
C67 H61 1_555 1_555
C68 H62 1_555 1_555
C69 C68 1_555 1_555
H63 C69 1_555 1_555
C70 C69 1_555 1_555
C71 C67 1_555 1_555
H64 C71 1_555 1_555
C72 C73 1_555 1_555
C73 C74 1_555 1_555
C74 H65 1_555 1_555
C75 C74 1_555 1_555
C76 C75 1_555 1_555
H66 C76 1_555 1_555
C77 C76 1_555 1_555
C78 C73 1_555 1_555
H67 C78 1_555 1_555
C79 C77 1_555 1_555
C80 C81 1_555 1_555
C81 H68 1_555 1_555
C82 C80 1_555 1_555
H69 C82 1_555 1_555
C83 C75 1_555 1_555
C84 C83 1_555 1_555
H70 C84 1_555 1_555
H71 C84 1_555 1_555
H72 C84 1_555 1_555
C85 C83 1_555 1_555
H73 C85 1_555 1_555
H74 C85 1_555 1_555
H75 C85 1_555 1_555
C86 C83 1_555 1_555
H76 C86 1_555 1_555
H77 C86 1_555 1_555
H78 C86 1_555 1_555
C87 C81 1_555 1_555
H79 C87 1_555 1_555
C88 C82 1_555 1_555
H80 C88 1_555 1_555
Cu1 N4 1_555 1_555
Cu2 N12 1_555 1_555
N1 C87 1_555 1_555
N2 C17 1_555 1_555
H81 N2 1_555 1_555
N3 C11 1_555 1_555
H82 N3 1_555 1_555
N4 C14 1_555 1_555
N5 C45 1_555 1_555
N6 C47 1_555 1_555
H83 N6 1_555 1_555
N7 C65 1_555 1_555
H84 N7 1_555 1_555
N8 C62 1_555 1_555
N9 C23 1_555 1_555
N10 C25 1_555 1_555
H85 N10 1_555 1_555
N11 C39 1_555 1_555
H86 N11 1_555 1_555
N12 C42 1_555 1_555
N13 C67 1_555 1_555
N14 C70 1_555 1_555
H87 N14 1_555 1_555
N15 C79 1_555 1_555
H88 N15 1_555 1_555
N16 C19 1_555 1_555
N17 O10 1_555 1_555
O1 C17 1_555 1_555
O2 C11 1_555 1_555
O3 C28 1_555 1_555
O4 C39 1_555 1_555
O5 C72 1_555 1_555
O6 C79 1_555 1_555
O7 C50 1_555 1_555
O8 C66 1_555 1_555
O9 Cu2 1_555 1_555
O10 Cu2 1_555 1_555
O11 N17 1_555 1_555
O12 N17 1_555 1_555
O13 N18 1_555 1_555
O14 Cu2 1_555 1_555
O15 N18 1_555 1_555
N18 O14 1_555 1_555
N19 O16 1_555 1_555
O16 Cu1 1_555 1_555
O17 N19 1_555 1_555
O18 N19 1_555 1_555
N20 O19 1_555 1_555
O20 N20 1_555 1_555
O21 N20 1_555 1_555
Cu1_2 N1 1_555 1_555
Cu2_2 N16 1_555 1_555
N1_2 Cu1 1_555 1_555
N16_2 Cu2 1_555 1_555
C2 C3 1_555 1_555
C9 C10 1_555 1_555
C12 N3 1_555 1_555
C15 C16 1_555 1_555
C15 N4 1_555 1_555
C18 N2 1_555 1_555
C19 C22 1_555 1_555
C20 N16 1_555 1_555
C27 N9 1_555 1_555
C28 N10 1_555 1_555
C33 C34 1_555 1_555
C35 C36 1_555 1_555
C40 N11 1_555 1_555
C43 C44 1_555 1_555
C43 N12 1_555 1_555
C49 N5 1_555 1_555
C50 N6 1_555 1_555
C55 C56 1_555 1_555
C57 C58 1_555 1_555
C63 N8 1_555 1_555
C64 C65 1_555 1_555
C66 N7 1_555 1_555
C68 N13 1_555 1_555
C70 C71 1_555 1_555
C72 N14 1_555 1_555
C77 C78 1_555 1_555
C80 N15 1_555 1_555
C88 N1 1_555 1_555
Cu1 N5 1_555 1_555
Cu1 N9 1_555 1_555
Cu2 N13 1_555 1_555

#END
