
#######################################################################
#
#                 Cambridge Crystallographic Data Centre
#                                CCDC 
#
#######################################################################
#
# If this CIF has been generated from an entry in the Cambridge 
# Structural Database, then it will include bibliographic, chemical, 
# crystal, experimental, refinement or atomic coordinate data resulting 
# from the CCDC's data processing and validation procedures.
#
#######################################################################

data_FUBFEP
_symmetry_cell_setting           triclinic
_symmetry_space_group_name_H-M   'P -1'
_symmetry_Int_Tables_number      2
_space_group_name_Hall           '-P 1'
loop_
_symmetry_equiv_pos_site_id
_symmetry_equiv_pos_as_xyz
1 x,y,z
2 -x,-y,-z
_cell_length_a                   8.534(5)
_cell_length_b                   9.108(5)
_cell_length_c                   19.640(5)
_cell_angle_alpha                95.412(5)
_cell_angle_beta                 99.680(5)
_cell_angle_gamma                107.109(5)
_cell_volume                     1421.39
loop_
_atom_site_label
_atom_site_type_symbol
_atom_site_fract_x
_atom_site_fract_y
_atom_site_fract_z
Cd1 Cd 0.34274(4) 0.37288(4) 0.304405(15)
C1 C 0.4165(5) 0.1833(6) 0.3947(2)
C2 C 0.4567(5) 0.0861(5) 0.4491(2)
C3 C 0.5154(6) -0.0366(6) 0.4318(2)
H1 H 0.5253 -0.0618 0.3860
C4 C 0.4406(6) 0.1220(6) 0.5174(2)
H2 H 0.4004 0.2034 0.5291
C5 C -0.3517(6) -0.2491(6) -0.1466(2)
H3 H -0.2400 -0.1891 -0.1407
C6 C -0.6008(7) -0.3487(7) -0.1261(3)
H4 H -0.6927 -0.3722 -0.1048
C7 C -0.3818(6) -0.1643(6) -0.0279(2)
C8 C -0.4444(6) -0.2228(7) 0.0273(3)
H5 H -0.5319 -0.3159 0.0198
C9 C -0.3761(6) -0.1419(7) 0.0944(3)
H6 H -0.4186 -0.1813 0.1319
C10 C -0.2470(6) -0.0050(6) 0.1062(2)
C11 C -0.1892(7) 0.0543(7) 0.0491(3)
H7 H -0.1035 0.1485 0.0562
C12 C -0.0787(5) 0.1711(5) 0.2871(2)
C13 C -0.1534(6) 0.0765(6) 0.1762(2)
C14 C -0.0912(5) 0.2157(5) 0.3598(2)
C15 C -0.1819(5) 0.3150(5) 0.3727(2)
H8 H -0.2344 0.3515 0.3357
C16 C -0.1951(5) 0.3601(5) 0.4398(2)
H9 H -0.2547 0.4283 0.4480
C17 C -0.1201(5) 0.3044(5) 0.4949(2)
C18 C -0.0255(6) 0.2074(5) 0.4831(2)
H10 H 0.0284 0.1726 0.5204
C19 C -0.0120(6) 0.1628(5) 0.4153(2)
H11 H 0.0505 0.0972 0.4071
C20 C -0.0637(7) 0.3154(6) 0.6254(2)
H12 H 0.0087 0.2564 0.6304
C21 C -0.1150(7) 0.3849(7) 0.6769(2)
H13 H -0.0825 0.3822 0.7242
C22 C -0.2312(6) 0.4380(5) 0.5817(2)
H14 H -0.2936 0.4788 0.5496
C23 C -0.5963(6) -0.4043(7) -0.1916(2)
H15 H -0.6865 -0.4742 -0.2235
C24 C -0.2571(7) -0.0243(7) -0.0173(3)
H16 H -0.2186 0.0172 -0.0551
N1 N -0.4389(5) -0.3423(5) -0.20409(19)
N2 N -0.4429(5) -0.2506(5) -0.09730(19)
N3 N 0.0559(5) 0.2065(5) 0.26044(19)
N4 N 0.0090(5) 0.1456(5) 0.1900(2)
N5 N -0.2134(4) 0.0899(4) 0.23572(18)
N6 N -0.3839(4) 0.0274(5) 0.23956(19)
H17 H -0.4031 -0.0566 0.2607
H18 H -0.4067 0.0961 0.2668
N7 N -0.1394(4) 0.3489(4) 0.56382(17)
N8 N -0.2229(5) 0.4609(4) 0.64909(18)
N9 N 0.6228(5) 0.6899(5) 0.3169(2)
O1 O 0.4157(4) 0.1428(4) 0.33228(17)
O2 O 0.3874(4) 0.3059(4) 0.41524(18)
O3 O 0.6156(4) 0.5730(4) 0.34727(18)
O4 O 0.5016(5) 0.6863(5) 0.2713(2)
O5 O 0.7484(5) 0.8063(5) 0.3328(3)
C1A C 0.5835(5) -0.1833(6) 0.6053(2)
C2A C 0.5433(5) -0.0861(5) 0.5509(2)
C3A C 0.4846(6) 0.0366(6) 0.5682(2)
H1A H 0.4747 0.0618 0.6140
C4A C 0.5594(6) -0.1220(6) 0.4826(2)
H2A H 0.5996 -0.2034 0.4709
O1A O 0.5843(4) -0.1428(4) 0.66772(17)
O2A O 0.6126(4) -0.3059(4) 0.58476(18)
Cd1A Cd -0.34274(4) -0.37288(4) -0.304405(15)
C5A C 0.3517(6) 0.2491(6) 0.1466(2)
H3A H 0.2400 0.1891 0.1407
C6A C 0.6008(7) 0.3487(7) 0.1261(3)
H4A H 0.6927 0.3722 0.1048
C7A C 0.3818(6) 0.1643(6) 0.0279(2)
C8A C 0.4444(6) 0.2228(7) -0.0273(3)
H5A H 0.5319 0.3159 -0.0198
C9A C 0.3761(6) 0.1419(7) -0.0944(3)
H6A H 0.4186 0.1813 -0.1319
C10A C 0.2470(6) 0.0050(6) -0.1062(2)
C11A C 0.1892(7) -0.0543(7) -0.0491(3)
H7A H 0.1035 -0.1485 -0.0562
C12A C 0.0787(5) -0.1711(5) -0.2871(2)
C13A C 0.1534(6) -0.0765(6) -0.1762(2)
C14A C 0.0912(5) -0.2157(5) -0.3598(2)
C15A C 0.1819(5) -0.3150(5) -0.3727(2)
H8A H 0.2344 -0.3515 -0.3357
C16A C 0.1951(5) -0.3601(5) -0.4398(2)
H9A H 0.2547 -0.4283 -0.4480
C17A C 0.1201(5) -0.3044(5) -0.4949(2)
C18A C 0.0255(6) -0.2074(5) -0.4831(2)
H10A H -0.0284 -0.1726 -0.5204
C19A C 0.0120(6) -0.1628(5) -0.4153(2)
H11A H -0.0505 -0.0972 -0.4071
C20A C 0.0637(7) -0.3154(6) -0.6254(2)
H12A H -0.0087 -0.2564 -0.6304
C21A C 0.1150(7) -0.3849(7) -0.6769(2)
H13A H 0.0825 -0.3822 -0.7242
C22A C 0.2312(6) -0.4380(5) -0.5817(2)
H14A H 0.2936 -0.4788 -0.5496
C23A C 0.5963(6) 0.4043(7) 0.1916(2)
H15A H 0.6865 0.4742 0.2235
C24A C 0.2571(7) 0.0243(7) 0.0173(3)
H16A H 0.2186 -0.0172 0.0551
N1A N 0.4389(5) 0.3423(5) 0.20409(19)
N2A N 0.4429(5) 0.2506(5) 0.09730(19)
N3A N -0.0559(5) -0.2065(5) -0.26044(19)
N4A N -0.0090(5) -0.1456(5) -0.1900(2)
N5A N 0.2134(4) -0.0899(4) -0.23572(18)
N6A N 0.3839(4) -0.0274(5) -0.23956(19)
H17A H 0.4031 0.0566 -0.2607
H18A H 0.4067 -0.0961 -0.2668
N7A N 0.1394(4) -0.3489(4) -0.56382(17)
N8A N 0.2229(5) -0.4609(4) -0.64909(18)
N9A N -0.6228(5) -0.6899(5) -0.3169(2)
O3A O -0.6156(4) -0.5730(4) -0.34727(18)
O4A O -0.5016(5) -0.6863(5) -0.2713(2)
O5A O -0.7484(5) -0.8063(5) -0.3328(3)
Cd1_2 Cd 0.34274(4) -0.62712(4) -0.695595(15)
Cd1A_2 Cd -0.34274(4) 0.62712(4) 0.695595(15)
Cd1A_3 Cd 0.65726(4) -0.37288(4) 0.695595(15)
N8_2 N -0.2229(5) -0.5391(4) -0.35091(18)
N8A_2 N 0.2229(5) 0.5391(4) 0.35091(18)
O1A_2 O -0.4157(4) -0.1428(4) -0.33228(17)
O2A_2 O -0.3874(4) -0.3059(4) -0.41524(18)
C25 C -0.0481(12) -0.3190(14) 0.0967(7)
H19 H -0.1151 -0.3105 0.1312
C26 C 0.2047(15) -0.1766(14) 0.1787(7)
H20 H 0.3090 -0.1902 0.1989
H21 H 0.1481 -0.1565 0.2151
H22 H 0.2259 -0.0904 0.1532
C27 C 0.159(2) -0.4496(18) 0.1248(7)
H23 H 0.0772 -0.5343 0.0927
H24 H 0.1787 -0.4812 0.1699
H25 H 0.2613 -0.4206 0.1081
N10 N 0.0975(9) -0.3205(11) 0.1303(5)
O6 O -0.1295(16) -0.451(2) 0.0488(7)
loop_
_geom_bond_atom_site_label_1
_geom_bond_atom_site_label_2
_geom_bond_site_symmetry_1
_geom_bond_site_symmetry_2
Cd1 N3 1_555 1_555
C1 C2 1_555 1_555
C2 C3 1_555 1_555
C3 H1 1_555 1_555
C4 C2 1_555 1_555
H2 C4 1_555 1_555
C5 H3 1_555 1_555
C6 H4 1_555 1_555
C7 C8 1_555 1_555
C8 H5 1_555 1_555
C9 C8 1_555 1_555
H6 C9 1_555 1_555
C10 C9 1_555 1_555
C11 C10 1_555 1_555
H7 C11 1_555 1_555
C12 C14 1_555 1_555
C13 C10 1_555 1_555
C14 C15 1_555 1_555
C15 H8 1_555 1_555
C16 C15 1_555 1_555
H9 C16 1_555 1_555
C17 C16 1_555 1_555
C18 C17 1_555 1_555
H10 C18 1_555 1_555
C19 C14 1_555 1_555
H11 C19 1_555 1_555
C20 H12 1_555 1_555
C21 C20 1_555 1_555
H13 C21 1_555 1_555
C22 H14 1_555 1_555
C23 C6 1_555 1_555
H15 C23 1_555 1_555
C24 C7 1_555 1_555
H16 C24 1_555 1_555
N1 C5 1_555 1_555
N2 C5 1_555 1_555
N3 C12 1_555 1_555
N4 C13 1_555 1_555
N5 C12 1_555 1_555
N6 N5 1_555 1_555
H17 N6 1_555 1_555
H18 N6 1_555 1_555
N7 C17 1_555 1_555
N8 C21 1_555 1_555
N9 O3 1_555 1_555
O1 Cd1 1_555 1_555
O2 Cd1 1_555 1_555
O3 Cd1 1_555 1_555
O4 N9 1_555 1_555
O5 N9 1_555 1_555
C25 H19 1_555 1_555
C26 H20 1_555 1_555
H21 C26 1_555 1_555
H22 C26 1_555 1_555
C27 H23 1_555 1_555
H24 C27 1_555 1_555
H25 C27 1_555 1_555
N10 C25 1_555 1_555
O6 C25 1_555 1_555
C1A C2A 1_555 1_555
C2A C3A 1_555 1_555
C3A C4 1_555 1_555
H1A C3A 1_555 1_555
C4A C3 1_555 1_555
H2A C4A 1_555 1_555
O1A C1A 1_555 1_555
O2A C1A 1_555 1_555
Cd1A N1 1_555 1_555
C5A H3A 1_555 1_555
C6A H4A 1_555 1_555
C7A C8A 1_555 1_555
C8A H5A 1_555 1_555
C9A C8A 1_555 1_555
H6A C9A 1_555 1_555
C10A C9A 1_555 1_555
C11A C10A 1_555 1_555
H7A C11A 1_555 1_555
C12A C14A 1_555 1_555
C13A C10A 1_555 1_555
C14A C15A 1_555 1_555
C15A H8A 1_555 1_555
C16A C15A 1_555 1_555
H9A C16A 1_555 1_555
C17A C16A 1_555 1_555
C18A C17A 1_555 1_555
H10A C18A 1_555 1_555
C19A C14A 1_555 1_555
H11A C19A 1_555 1_555
C20A H12A 1_555 1_555
C21A C20A 1_555 1_555
H13A C21A 1_555 1_555
C22A H14A 1_555 1_555
C23A C6A 1_555 1_555
H15A C23A 1_555 1_555
C24A C7A 1_555 1_555
H16A C24A 1_555 1_555
N1A Cd1 1_555 1_555
N2A C5A 1_555 1_555
N3A Cd1A 1_555 1_555
N4A C13A 1_555 1_555
N5A C12A 1_555 1_555
N6A N5A 1_555 1_555
H17A N6A 1_555 1_555
H18A N6A 1_555 1_555
N7A C17A 1_555 1_555
N8A C21A 1_555 1_555
N9A O3A 1_555 1_555
O3A Cd1A 1_555 1_555
O4A N9A 1_555 1_555
O5A N9A 1_555 1_555
Cd1_2 N8A 1_555 1_555
Cd1A_2 N8 1_555 1_555
Cd1A_3 O1A 1_555 1_555
N8_2 Cd1A 1_555 1_555
N8A_2 Cd1 1_555 1_555
O1A_2 Cd1A 1_555 1_555
O2A_2 Cd1A 1_555 1_555
C1 O1 1_555 1_555
C1 O2 1_555 1_555
C6 N2 1_555 1_555
C7 N2 1_555 1_555
C11 C24 1_555 1_555
C13 N5 1_555 1_555
C18 C19 1_555 1_555
C20 N7 1_555 1_555
C22 N7 1_555 1_555
C22 N8 1_555 1_555
C23 N1 1_555 1_555
N3 N4 1_555 1_555
C26 N10 1_555 1_555
C27 N10 1_555 1_555
C2A C4A 1_555 1_555
O2A Cd1A_3 1_555 1_555
C5A N1A 1_555 1_555
C6A N2A 1_555 1_555
C7A N2A 1_555 1_555
C11A C24A 1_555 1_555
C12A N3A 1_555 1_555
C13A N5A 1_555 1_555
C18A C19A 1_555 1_555
C20A N7A 1_555 1_555
C22A N7A 1_555 1_555
C22A N8A 1_555 1_555
C23A N1A 1_555 1_555
N3A N4A 1_555 1_555

#END
