
#######################################################################
#
#                 Cambridge Crystallographic Data Centre
#                                CCDC 
#
#######################################################################
#
# If this CIF has been generated from an entry in the Cambridge 
# Structural Database, then it will include bibliographic, chemical, 
# crystal, experimental, refinement or atomic coordinate data resulting 
# from the CCDC's data processing and validation procedures.
#
#######################################################################

data_FUBZAF
_symmetry_cell_setting           orthorhombic
_symmetry_space_group_name_H-M   'P b c m'
_symmetry_Int_Tables_number      57
_space_group_name_Hall           '-P 2c 2b'
loop_
_symmetry_equiv_pos_site_id
_symmetry_equiv_pos_as_xyz
1 x,y,z
2 -x,-y,1/2+z
3 x,1/2-y,-z
4 -x,1/2+y,1/2-z
5 -x,-y,-z
6 x,y,1/2-z
7 -x,1/2+y,z
8 x,1/2-y,1/2+z
_cell_length_a                   6.1365(15)
_cell_length_b                   18.763(4)
_cell_length_c                   20.057(5)
_cell_angle_alpha                90
_cell_angle_beta                 90
_cell_angle_gamma                90
_cell_volume                     2309.35
loop_
_atom_site_label
_atom_site_type_symbol
_atom_site_fract_x
_atom_site_fract_y
_atom_site_fract_z
Zn1 Zn 0.18868(9) 0.7500 0.5000
O1 O -0.0294(4) 0.74212(14) 0.57193(13)
O2 O 0.2612(5) 0.70467(17) 0.62678(14)
N1 N 0.3890(5) 0.66879(15) 0.47387(15)
N2 N 0.3250(5) 0.61989(19) 0.42605(19)
N3 N 0.6368(5) 0.58566(16) 0.47028(16)
C1 C 0.8244(6) 0.5428(2) 0.4853(2)
C2 C 0.9384(7) 0.5536(2) 0.5431(2)
H1 H 0.8969 0.5896 0.5723
C3 C 0.8851(7) 0.4891(2) 0.4421(2)
H2 H 0.8070 0.4817 0.4029
C4 C 0.5737(6) 0.6476(2) 0.49917(18)
H3 H 0.6509 0.6715 0.5322
C5 C 0.4759(7) 0.5711(2) 0.4256(2)
H4 H 0.4740 0.5312 0.3982
C6 C -0.0531(6) 0.73414(17) 0.68980(17)
C7 C 0.0501(8) 0.7216(3) 0.7500
H5 H 0.1922 0.7044 0.7500
C8 C -0.2700(6) 0.7570(2) 0.6901(2)
H6 H -0.3425 0.7648 0.6500
C9 C -0.3769(9) 0.7681(3) 0.7500
H7 H -0.5213 0.7831 0.7500
C10 C 0.0705(6) 0.72522(19) 0.62598(18)
O1E O -0.0294(4) 0.74212(14) 0.92807(13)
O2E O 0.2612(5) 0.70467(17) 0.87322(14)
C6E C -0.0531(6) 0.73414(17) 0.81020(17)
C8E C -0.2700(6) 0.7570(2) 0.8099(2)
H6E H -0.3425 0.7648 0.8500
C10E C 0.0705(6) 0.72522(19) 0.87402(18)
N1D N 1.6110(5) 0.33121(15) 0.52613(15)
N2D N 1.6750(5) 0.38011(19) 0.57395(19)
N3D N 1.3632(5) 0.41434(16) 0.52972(16)
C1D C 1.1756(6) 0.4572(2) 0.5147(2)
C2D C 1.0616(7) 0.4464(2) 0.4569(2)
H1D H 1.1031 0.4104 0.4277
C3D C 1.1149(7) 0.5109(2) 0.5579(2)
H2D H 1.1930 0.5183 0.5971
C4D C 1.4263(6) 0.3524(2) 0.50083(18)
H3D H 1.3491 0.3285 0.4678
C5D C 1.5241(7) 0.4289(2) 0.5744(2)
H4D H 1.5260 0.4688 0.6018
Zn1F Zn 1.81132(9) 0.2500 0.5000
Zn1G Zn 0.18868(9) 0.7500 1.0000
O1B O -0.0294(4) 0.75788(14) 0.42807(13)
N1B N 0.3890(5) 0.83121(15) 0.52613(15)
O3 O 0.1981(9) 1.0622(3) 0.7500
N4 N -0.0391(9) 0.9721(3) 0.7500
C11 C 0.0174(14) 1.0396(4) 0.7500
H8 H -0.119(7) 1.065(4) 0.7500
C12 C -0.2675(15) 0.9492(5) 0.7500
H9 H -0.3605 0.9904 0.7500
H10 H -0.2957 0.9212 0.7891
C13 C 0.1260(16) 0.9175(5) 0.7500
H11 H 0.2675 0.9393 0.7500
H12 H 0.1102 0.8884 0.7109
H10E H -0.2957 0.9212 0.7109
H12E H 0.1102 0.8884 0.7891
O4 O 0.5058(8) 0.5835(2) 0.6491(2)
H15 H 0.605(8) 0.586(3) 0.682(2)
H16 H 0.433(8) 0.625(2) 0.652(3)
H13? H -0.2958 0.9212 0.7891
H14? H 0.1102 0.8884 0.7109
loop_
_geom_bond_atom_site_label_1
_geom_bond_atom_site_label_2
_geom_bond_site_symmetry_1
_geom_bond_site_symmetry_2
Zn1 O1 1_555 1_555
O1 C10 1_555 1_555
O2 C10 1_555 1_555
N1 Zn1 1_555 1_555
N2 N1 1_555 1_555
N3 C1 1_555 1_555
C1 C2 1_555 1_555
C2 H1 1_555 1_555
C3 C1 1_555 1_555
H2 C3 1_555 1_555
C4 N1 1_555 1_555
H3 C4 1_555 1_555
C5 N2 1_555 1_555
H4 C5 1_555 1_555
C6 C7 1_555 1_555
C7 H5 1_555 1_555
C8 C6 1_555 1_555
H6 C8 1_555 1_555
C9 C8 1_555 1_555
H7 C9 1_555 1_555
C10 C6 1_555 1_555
O3 C11 1_555 1_555
N4 C11 1_555 1_555
C11 H8 1_555 1_555
C12 N4 1_555 1_555
H9 C12 1_555 1_555
H10 C12 1_555 1_555
C13 N4 1_555 1_555
H11 C13 1_555 1_555
H12 C13 1_555 1_555
O4 H15 1_555 1_555
H16 O4 1_555 1_555
O1E C10E 1_555 1_555
O2E C10E 1_555 1_555
C6E C7 1_555 1_555
C8E C9 1_555 1_555
H6E C8E 1_555 1_555
C10E C6E 1_555 1_555
N1D N2D 1_555 1_555
N2D C5D 1_555 1_555
N3D C1D 1_555 1_555
C1D C2D 1_555 1_555
C2D C3 1_555 1_555
H1D C2D 1_555 1_555
C3D C2 1_555 1_555
H2D C3D 1_555 1_555
C4D N1D 1_555 1_555
H3D C4D 1_555 1_555
C5D N3D 1_555 1_555
H4D C5D 1_555 1_555
Zn1F N1D 1_555 1_555
Zn1G O1E 1_555 1_555
O1B Zn1 1_555 1_555
N1B Zn1 1_555 1_555
H10E C12 1_555 1_555
H12E C13 1_555 1_555
N3 C4 1_555 1_555
N3 C5 1_555 1_555
C6E C8E 1_555 1_555
N3D C4D 1_555 1_555
C1D C3D 1_555 1_555

#END
