
#######################################################################
#
#                 Cambridge Crystallographic Data Centre
#                                CCDC 
#
#######################################################################
#
# If this CIF has been generated from an entry in the Cambridge 
# Structural Database, then it will include bibliographic, chemical, 
# crystal, experimental, refinement or atomic coordinate data resulting 
# from the CCDC's data processing and validation procedures.
#
#######################################################################

data_FUDGIW
_symmetry_cell_setting           monoclinic
_symmetry_space_group_name_H-M   'C 2/c'
_symmetry_Int_Tables_number      15
_space_group_name_Hall           '-C 2yn'
loop_
_symmetry_equiv_pos_site_id
_symmetry_equiv_pos_as_xyz
1 x,y,z
2 -x,y,1/2-z
3 1/2+x,1/2+y,z
4 1/2-x,1/2+y,1/2-z
5 -x,-y,-z
6 x,-y,1/2+z
7 1/2-x,1/2-y,-z
8 1/2+x,1/2-y,1/2+z
_cell_length_a                   19.005(4)
_cell_length_b                   13.683(3)
_cell_length_c                   14.521(3)
_cell_angle_alpha                90
_cell_angle_beta                 119.11(3)
_cell_angle_gamma                90
_cell_volume                     3299.15
loop_
_atom_site_label
_atom_site_type_symbol
_atom_site_fract_x
_atom_site_fract_y
_atom_site_fract_z
Zn1 Zn -0.192510(18) 1.14234(2) -0.75831(2)
Zn2 Zn -0.207620(17) 1.146176(19) -0.11898(2)
O1 O -0.15472(13) 1.04657(13) -0.64049(14)
O2 O -0.16070(12) 0.96092(12) -0.51603(14)
O3 O -0.18632(17) 1.15514(15) -0.2362(2)
O4 O -0.21997(13) 1.31066(15) -0.28062(17)
O5 O 0.17992(11) 1.60910(15) -0.18563(16)
O6 O 0.12353(12) 1.74313(14) -0.28115(17)
O7 O -0.16443(13) 1.74123(14) -0.52771(16)
O8 O -0.22388(11) 1.59996(15) -0.60233(15)
O9 O -0.00774(11) 1.34627(12) -0.41170(16)
O10 O -0.10758(16) 1.0723(2) -0.7963(2)
C1 C -0.06709(15) 1.28301(17) -0.41962(19)
C2 C -0.08186(16) 1.20149(18) -0.4832(2)
H1 H -0.0570 1.1948 -0.5245
C3 C -0.13432(17) 1.12971(17) -0.4845(2)
C4 C -0.17009(17) 1.13879(18) -0.4211(2)
H2 H -0.2031 1.0894 -0.4196
C5 C -0.15612(16) 1.22251(18) -0.3598(2)
C6 C -0.10545(16) 1.29570(18) -0.3602(2)
H3 H -0.0974 1.3524 -0.3210
C7 C -0.15131(15) 1.04164(18) -0.5525(2)
C8 C -0.19108(16) 1.23124(19) -0.2871(2)
C9 C -0.01708(15) 1.44603(17) -0.40211(19)
C10 C 0.05169(15) 1.49699(17) -0.33376(19)
H4 H 0.0997 1.4640 -0.2922
C11 C 0.04798(15) 1.59838(17) -0.32815(19)
C12 C -0.02357(15) 1.64728(17) -0.3908(2)
H5 H -0.0257 1.7149 -0.3866
C13 C -0.09187(15) 1.59589(17) -0.45951(19)
C14 C -0.08904(15) 1.49393(18) -0.46483(19)
H6 H -0.1349 1.4588 -0.5099
C15 C 0.12305(16) 1.65443(18) -0.2592(2)
C16 C -0.16607(16) 1.64955(18) -0.5352(2)
Zn1C Zn -0.307490(18) 1.64234(2) -0.74169(2)
Zn1D Zn 0.192510(18) 1.85766(2) -0.24169(2)
Zn1F Zn -0.307490(18) 1.35766(2) -0.24169(2)
Zn2B Zn 0.292380(17) 1.646176(19) -0.11898(2)
Zn2E Zn -0.207620(17) 0.853824(19) -0.61898(2)
Zn2E_2 Zn -0.207620(17) 1.853824(19) -0.61898(2)
O2E O -0.16070(12) 1.03908(12) -0.01603(14)
O4F O -0.28003(13) 1.18934(15) -0.71938(17)
O5B O -0.32008(11) 1.10910(15) -0.18563(16)
O6D O -0.12353(12) 1.25687(14) -0.71885(17)
O7E O -0.16443(13) 1.25877(14) -0.02771(16)
O8C O -0.27612(11) 1.09996(15) -0.89767(15)
loop_
_geom_bond_atom_site_label_1
_geom_bond_atom_site_label_2
_geom_bond_site_symmetry_1
_geom_bond_site_symmetry_2
Zn1 O1 1_555 1_555
Zn2 O3 1_555 1_555
O1 C7 1_555 1_555
O2 C7 1_555 1_555
O3 C8 1_555 1_555
O4 C8 1_555 1_555
O5 C15 1_555 1_555
O6 C15 1_555 1_555
O7 C16 1_555 1_555
O8 C16 1_555 1_555
O9 C1 1_555 1_555
O10 Zn1 1_555 1_555
C1 C2 1_555 1_555
C2 H1 1_555 1_555
C3 C2 1_555 1_555
C4 C3 1_555 1_555
H2 C4 1_555 1_555
C5 C4 1_555 1_555
C6 C1 1_555 1_555
H3 C6 1_555 1_555
C7 C3 1_555 1_555
C8 C5 1_555 1_555
C9 O9 1_555 1_555
C10 C9 1_555 1_555
H4 C10 1_555 1_555
C11 C10 1_555 1_555
C12 C11 1_555 1_555
H5 C12 1_555 1_555
C13 C12 1_555 1_555
C14 C9 1_555 1_555
H6 C14 1_555 1_555
C15 C11 1_555 1_555
C16 C13 1_555 1_555
Zn1C O8 1_555 1_555
Zn1D O6 1_555 1_555
Zn1F O4 1_555 1_555
Zn2B O5 1_555 1_555
Zn2E O2 1_555 1_555
Zn2E_2 O7 1_555 1_555
O2E Zn2 1_555 1_555
O4F Zn1 1_555 1_555
O5B Zn2 1_555 1_555
O6D Zn1 1_555 1_555
O7E Zn2 1_555 1_555
O8C Zn1 1_555 1_555
C5 C6 1_555 1_555
C13 C14 1_555 1_555

#END
