
#######################################################################
#
#                 Cambridge Crystallographic Data Centre
#                                CCDC 
#
#######################################################################
#
# If this CIF has been generated from an entry in the Cambridge 
# Structural Database, then it will include bibliographic, chemical, 
# crystal, experimental, refinement or atomic coordinate data resulting 
# from the CCDC's data processing and validation procedures.
#
#######################################################################

data_FUDPOK
_symmetry_cell_setting           triclinic
_symmetry_space_group_name_H-M   'P -1'
_symmetry_Int_Tables_number      2
_space_group_name_Hall           '-P 1'
loop_
_symmetry_equiv_pos_site_id
_symmetry_equiv_pos_as_xyz
1 x,y,z
2 -x,-y,-z
_cell_length_a                   7.583(3)
_cell_length_b                   7.936(4)
_cell_length_c                   10.134(5)
_cell_angle_alpha                76.489(5)
_cell_angle_beta                 76.103(5)
_cell_angle_gamma                70.856(5)
_cell_volume                     551.228
loop_
_atom_site_label
_atom_site_type_symbol
_atom_site_fract_x
_atom_site_fract_y
_atom_site_fract_z
Cu1 Cu 0.5000 0.5000 0.5000
C1 C 0.1547(3) 0.5076(3) 0.7052(2)
C2 C 0.0724(3) 0.5030(3) 0.8585(2)
C3 C 0.0905(3) 0.3400(3) 0.9495(2)
C4 C -0.0193(3) 0.6628(3) 0.9100(2)
C5 C 0.6306(5) 0.0441(4) 0.5508(4)
H1 H 0.5830 0.0345 0.6493
H2 H 0.7484 0.0758 0.5324
C6 C 0.6698(4) -0.1351(4) 0.5095(3)
H3 H 0.7502 -0.2274 0.5683
H4 H 0.7383 -0.1320 0.4154
Cl1 Cl 0.20164(11) 0.13997(9) 0.88587(7)
Cl2 Cl -0.04410(11) 0.86692(9) 0.79755(6)
O1 O 0.0494(2) 0.5206(3) 0.62620(17)
O2 O 0.3294(2) 0.4980(3) 0.67679(16)
O3 O 0.4983(3) 0.1827(3) 0.4809(2)
O4 O 0.2902(2) 0.5915(2) 0.39382(16)
H9 H 0.2044 0.5764 0.4378
H10 H 0.3095 0.5633 0.3196
Cu1_2 Cu -0.5000 0.5000 1.5000
Cu1_3 Cu 0.5000 -0.5000 0.5000
C1A C -0.1547(3) 0.4924(3) 1.2948(2)
C2A C -0.0724(3) 0.4970(3) 1.1415(2)
C3A C -0.0905(3) 0.6600(3) 1.0505(2)
C4A C 0.0193(3) 0.3372(3) 1.0900(2)
C5A C 0.3694(5) -0.0441(4) 0.4492(4)
H1A H 0.4170 -0.0345 0.3507
H2A H 0.2516 -0.0758 0.4676
C6A C 0.3302(4) 0.1351(4) 0.4905(3)
H3A H 0.2498 0.2274 0.4317
H4A H 0.2617 0.1320 0.5846
Cl1A Cl -0.20164(11) 0.86003(9) 1.11413(7)
Cl2A Cl 0.04410(11) 0.13308(9) 1.20245(6)
O1A O -0.0494(2) 0.4794(3) 1.37380(17)
O2A O -0.3294(2) 0.5020(3) 1.32321(16)
O2A_2 O 0.6706(2) 0.5020(3) 0.32321(16)
O3A O 0.5017(3) -0.1827(3) 0.5191(2)
O3A_2 O 0.5017(3) 0.8173(3) 0.5191(2)
O4A O 0.7098(2) 0.4085(2) 0.60618(16)
H9A H 0.7956 0.4236 0.5622
H10A H 0.6905 0.4367 0.6804
C7 C 0.5780(4) 0.3375(4) -0.0511(3)
H5 H 0.6824 0.2285 -0.0624
H6 H 0.4761 0.3316 -0.0906
C8 C 0.5098(4) 0.3462(4) 0.1003(3)
H7 H 0.4649 0.2422 0.1455
H8 H 0.6150 0.3411 0.1414
O5 O 0.6392(3) 0.4922(3) -0.12252(18)
C7A C 0.4220(4) 0.6625(4) 0.0511(3)
H5A H 0.3176 0.7715 0.0624
H6A H 0.5239 0.6684 0.0906
C8A C 0.4902(4) 0.6538(4) -0.1003(3)
H7A H 0.5351 0.7578 -0.1455
H8A H 0.3850 0.6589 -0.1414
O5A O 0.3608(3) 0.5078(3) 0.12252(18)
loop_
_geom_bond_atom_site_label_1
_geom_bond_atom_site_label_2
_geom_bond_site_symmetry_1
_geom_bond_site_symmetry_2
Cu1 O2 1_555 1_555
C1 C2 1_555 1_555
C2 C3 1_555 1_555
C3 Cl1 1_555 1_555
C4 C2 1_555 1_555
C5 H1 1_555 1_555
H2 C5 1_555 1_555
C6 C5 1_555 1_555
H3 C6 1_555 1_555
H4 C6 1_555 1_555
C7 H5 1_555 1_555
H6 C7 1_555 1_555
C8 C7 1_555 1_555
H7 C8 1_555 1_555
H8 C8 1_555 1_555
Cl2 C4 1_555 1_555
O1 C1 1_555 1_555
O2 C1 1_555 1_555
O3 Cu1 1_555 1_555
O4 Cu1 1_555 1_555
H9 O4 1_555 1_555
H10 O4 1_555 1_555
O5 C7 1_555 1_555
Cu1_2 O2A 1_555 1_555
Cu1_3 O3A 1_555 1_555
C1A C2A 1_555 1_555
C2A C3A 1_555 1_555
C3A C4 1_555 1_555
C4A C3 1_555 1_555
C5A H1A 1_555 1_555
H2A C5A 1_555 1_555
C6A O3 1_555 1_555
H3A C6A 1_555 1_555
H4A C6A 1_555 1_555
C7A H5A 1_555 1_555
H6A C7A 1_555 1_555
C8A O5 1_555 1_555
H7A C8A 1_555 1_555
H8A C8A 1_555 1_555
Cl1A C3A 1_555 1_555
Cl2A C4A 1_555 1_555
O1A C1A 1_555 1_555
O2A C1A 1_555 1_555
O2A_2 Cu1 1_555 1_555
O3A C6 1_555 1_555
O3A_2 Cu1 1_555 1_555
O4A Cu1 1_555 1_555
H9A O4A 1_555 1_555
H10A O4A 1_555 1_555
O5A C8 1_555 1_555
C5 O3 1_555 1_555
C2A C4A 1_555 1_555
C5A C6A 1_555 1_555
C5A O3A 1_555 1_555
C7A C8A 1_555 1_555
C7A O5A 1_555 1_555

#END
