
#######################################################################
#
#                 Cambridge Crystallographic Data Centre
#                                CCDC 
#
#######################################################################
#
# If this CIF has been generated from an entry in the Cambridge 
# Structural Database, then it will include bibliographic, chemical, 
# crystal, experimental, refinement or atomic coordinate data resulting 
# from the CCDC's data processing and validation procedures.
#
#######################################################################

data_FUDPUQ
_symmetry_cell_setting           triclinic
_symmetry_space_group_name_H-M   'P -1'
_symmetry_Int_Tables_number      2
_space_group_name_Hall           '-P 1'
loop_
_symmetry_equiv_pos_site_id
_symmetry_equiv_pos_as_xyz
1 x,y,z
2 -x,-y,-z
_cell_length_a                   9.9291(13)
_cell_length_b                   10.2915(13)
_cell_length_c                   21.886(3)
_cell_angle_alpha                79.664(2)
_cell_angle_beta                 79.563(2)
_cell_angle_gamma                83.743(2)
_cell_volume                     2156.96
loop_
_atom_site_label
_atom_site_type_symbol
_atom_site_fract_x
_atom_site_fract_y
_atom_site_fract_z
Cu1 Cu 0.06841(4) 0.09401(4) -0.207932(17)
Cu2 Cu 0.08860(4) 0.05999(4) 0.294067(17)
Cl1 Cl 0.34018(10) -0.08994(10) -0.03509(4)
Cl2 Cl 0.34801(10) -0.07800(10) 0.10658(4)
Cl3 Cl -0.03771(11) 0.32533(10) -0.04181(4)
Cl4 Cl -0.03004(10) 0.33886(9) 0.09851(4)
Cl5 Cl 0.34002(10) -0.04920(10) -0.52689(4)
Cl6 Cl 0.32528(10) -0.01298(10) -0.38688(4)
Cl7 Cl -0.07926(11) 0.32288(10) -0.55058(4)
Cl8 Cl -0.08854(10) 0.36616(9) -0.41159(4)
O1 O 0.2373(3) 0.2016(3) -0.13794(11)
O2 O 0.0769(2) 0.0569(2) -0.11794(10)
O3 O 0.2378(3) 0.2149(3) 0.17540(12)
O4 O 0.0792(2) 0.0678(2) 0.20431(10)
O5 O 0.2203(3) 0.2103(3) -0.63870(12)
O6 O 0.0842(2) 0.0436(2) -0.61544(10)
O7 O 0.1846(3) 0.2778(3) -0.32872(12)
O8 O 0.0470(2) 0.1125(2) -0.29693(10)
O9 O -0.0699(3) 0.2393(2) -0.19030(11)
O10 O 0.2392(2) -0.0167(2) -0.22876(11)
O11 O 0.2569(2) -0.0588(2) 0.28103(11)
O12 O -0.0573(3) 0.2038(2) 0.30260(12)
C1 C -0.0637(4) 0.3093(4) 0.26467(17)
H3 H 0.0071 0.3227 0.2306
N1 N -0.2147(3) 0.4183(3) -0.21467(15)
N2 N 0.3937(3) -0.1859(3) -0.20071(15)
N3 N 0.4203(3) -0.2096(3) 0.31600(15)
N4 N -0.1640(3) 0.4024(3) 0.26983(15)
C2 C 0.1529(3) 0.1200(3) -0.03165(15)
C3 C 0.2372(4) 0.0284(3) 0.00228(15)
C4 C 0.2410(3) 0.0331(3) 0.06553(15)
C5 C 0.1592(3) 0.1287(3) 0.09581(14)
C6 C 0.0730(4) 0.2174(3) 0.06186(15)
C7 C 0.0687(4) 0.2130(3) -0.00094(15)
C8 C 0.1583(4) 0.1270(3) -0.10193(15)
C9 C 0.1629(3) 0.1391(3) 0.16378(15)
C10 C 0.1304(4) 0.1410(3) -0.53207(15)
C11 C 0.2185(3) 0.0640(3) -0.49455(15)
C12 C 0.2141(3) 0.0799(3) -0.43244(15)
C13 C 0.1199(3) 0.1740(3) -0.40624(15)
C14 C 0.0305(3) 0.2491(3) -0.44315(15)
C15 C 0.0340(4) 0.2316(3) -0.50530(15)
C16 C 0.1473(4) 0.1321(3) -0.60153(15)
C17 C 0.1192(3) 0.1925(3) -0.33891(15)
C18 C -0.1692(5) 0.5222(4) 0.22258(19)
H4 H -0.0880 0.5212 0.1912
H5 H -0.1742 0.5988 0.2425
H6 H -0.2488 0.5253 0.2030
C19 C -0.2767(5) 0.3928(4) 0.3226(2)
H7 H -0.2634 0.3111 0.3507
H8 H -0.3618 0.3950 0.3074
H9 H -0.2792 0.4659 0.3447
C20 C 0.5022(4) -0.2118(4) 0.2535(2)
H10 H 0.5009 -0.2970 0.2417
H11 H 0.5952 -0.1954 0.2543
H12 H 0.4644 -0.1445 0.2235
C21 C 0.4698(4) -0.2980(4) 0.3682(2)
H13 H 0.4120 -0.2834 0.4070
H14 H 0.5623 -0.2809 0.3695
H15 H 0.4677 -0.3882 0.3627
C22 C 0.3058(4) -0.1335(3) 0.32449(16)
H16 H 0.2584 -0.1354 0.3653
C23 C -0.2659(4) 0.4344(4) -0.15001(19)
H17 H -0.2216 0.3669 -0.1224
H18 H -0.3633 0.4269 -0.1411
H19 H -0.2469 0.5201 -0.1437
C24 C -0.2705(6) 0.5145(5) -0.2632(2)
H20 H -0.2266 0.4966 -0.3040
H21 H -0.2539 0.6022 -0.2588
H22 H -0.3676 0.5077 -0.2587
C25 C -0.1224(4) 0.3210(4) -0.22895(18)
H23 H -0.0954 0.3141 -0.2713
C26 C 0.2772(4) -0.1136(3) -0.19021(17)
H24 H 0.2193 -0.1353 -0.1520
C27 C 0.4932(4) -0.1568(4) -0.25860(18)
H25 H 0.4967 -0.2251 -0.2837
H26 H 0.5823 -0.1532 -0.2481
H27 H 0.4656 -0.0730 -0.2820
C28 C 0.4302(5) -0.2979(4) -0.1537(2)
H28 H 0.3587 -0.3049 -0.1176
H29 H 0.5148 -0.2844 -0.1413
H30 H 0.4410 -0.3781 -0.1714
Cu1A Cu -0.06841(4) -0.09401(4) 0.207932(17)
Cu2_2 Cu 0.08860(4) 0.05999(4) -0.705933(17)
Cu2A Cu -0.08860(4) -0.05999(4) -0.294067(17)
O4A O -0.0792(2) -0.0678(2) -0.20431(10)
O6_2 O 0.0842(2) 0.0436(2) 0.38456(10)
O8A O -0.0470(2) -0.1125(2) 0.29693(10)
O13 O 0.6039(4) 0.6211(4) 0.10964(17)
H1 H 0.6593 0.6696 0.1152
C29 C 0.6144(7) 0.6196(6) 0.0461(3)
H31 H 0.5946 0.7077 0.0247
H32 H 0.5500 0.5623 0.0396
H33 H 0.7059 0.5877 0.0297
O14 O 0.3840(4) 0.3835(4) 0.39211(16)
H2 H 0.3312 0.3320 0.3869
C30 C 0.4111(7) 0.3533(6) 0.4536(3)
H34 H 0.4788 0.4087 0.4586
H35 H 0.4451 0.2620 0.4620
H36 H 0.3281 0.3683 0.4825
loop_
_geom_bond_atom_site_label_1
_geom_bond_atom_site_label_2
_geom_bond_site_symmetry_1
_geom_bond_site_symmetry_2
Cu1 O2 1_555 1_555
Cu2 O4 1_555 1_555
Cl1 C3 1_555 1_555
Cl2 C4 1_555 1_555
Cl3 C7 1_555 1_555
Cl4 C6 1_555 1_555
Cl5 C11 1_555 1_555
Cl6 C12 1_555 1_555
Cl7 C15 1_555 1_555
Cl8 C14 1_555 1_555
O1 C8 1_555 1_555
O2 C8 1_555 1_555
O3 C9 1_555 1_555
O4 C9 1_555 1_555
O5 C16 1_555 1_555
O6 C16 1_555 1_555
O7 C17 1_555 1_555
O8 Cu1 1_555 1_555
O9 Cu1 1_555 1_555
O10 Cu1 1_555 1_555
O11 Cu2 1_555 1_555
O12 Cu2 1_555 1_555
O13 H1 1_555 1_555
O14 H2 1_555 1_555
C1 O12 1_555 1_555
H3 C1 1_555 1_555
N1 C23 1_555 1_555
N2 C26 1_555 1_555
N3 C20 1_555 1_555
N4 C1 1_555 1_555
C2 C3 1_555 1_555
C3 C4 1_555 1_555
C4 C5 1_555 1_555
C5 C6 1_555 1_555
C6 C7 1_555 1_555
C7 C2 1_555 1_555
C8 C2 1_555 1_555
C9 C5 1_555 1_555
C10 C11 1_555 1_555
C11 C12 1_555 1_555
C12 C13 1_555 1_555
C13 C14 1_555 1_555
C14 C15 1_555 1_555
C15 C10 1_555 1_555
C16 C10 1_555 1_555
C17 O8 1_555 1_555
C18 N4 1_555 1_555
H4 C18 1_555 1_555
H5 C18 1_555 1_555
H6 C18 1_555 1_555
C19 N4 1_555 1_555
H7 C19 1_555 1_555
H8 C19 1_555 1_555
H9 C19 1_555 1_555
C20 H10 1_555 1_555
H11 C20 1_555 1_555
H12 C20 1_555 1_555
C21 N3 1_555 1_555
H13 C21 1_555 1_555
H14 C21 1_555 1_555
H15 C21 1_555 1_555
C22 O11 1_555 1_555
H16 C22 1_555 1_555
C23 H17 1_555 1_555
H18 C23 1_555 1_555
H19 C23 1_555 1_555
C24 N1 1_555 1_555
H20 C24 1_555 1_555
H21 C24 1_555 1_555
H22 C24 1_555 1_555
C25 O9 1_555 1_555
H23 C25 1_555 1_555
C26 O10 1_555 1_555
H24 C26 1_555 1_555
C27 N2 1_555 1_555
H25 C27 1_555 1_555
H26 C27 1_555 1_555
H27 C27 1_555 1_555
C28 N2 1_555 1_555
H28 C28 1_555 1_555
H29 C28 1_555 1_555
H30 C28 1_555 1_555
C29 O13 1_555 1_555
H31 C29 1_555 1_555
H32 C29 1_555 1_555
H33 C29 1_555 1_555
C30 O14 1_555 1_555
H34 C30 1_555 1_555
H35 C30 1_555 1_555
H36 C30 1_555 1_555
Cu1A O4 1_555 1_555
Cu2_2 O6 1_555 1_555
Cu2A O8 1_555 1_555
O4A Cu1 1_555 1_555
O6_2 Cu2 1_555 1_555
O8A Cu2 1_555 1_555
N1 C25 1_555 1_555
N3 C22 1_555 1_555
C13 C17 1_555 1_555
Cu1A O8A 1_555 1_555
Cu2A O4A 1_555 1_555

#END
