
#######################################################################
#
#                 Cambridge Crystallographic Data Centre
#                                CCDC 
#
#######################################################################
#
# If this CIF has been generated from an entry in the Cambridge 
# Structural Database, then it will include bibliographic, chemical, 
# crystal, experimental, refinement or atomic coordinate data resulting 
# from the CCDC's data processing and validation procedures.
#
#######################################################################

data_FUDYUA
_symmetry_cell_setting           monoclinic
_symmetry_space_group_name_H-M   'P 21'
_symmetry_Int_Tables_number      4
_space_group_name_Hall           'P 2yb'
loop_
_symmetry_equiv_pos_site_id
_symmetry_equiv_pos_as_xyz
1 x,y,z
2 -x,1/2+y,-z
_cell_length_a                   11.488(3)
_cell_length_b                   9.184(3)
_cell_length_c                   16.993(5)
_cell_angle_alpha                90
_cell_angle_beta                 99.116(4)
_cell_angle_gamma                90
_cell_volume                     1770.22
loop_
_atom_site_label
_atom_site_type_symbol
_atom_site_fract_x
_atom_site_fract_y
_atom_site_fract_z
Cu1 Cu 0.94826(10) 0.80474(11) 0.52114(6)
Cu2 Cu 0.57342(11) 0.19842(12) 0.97390(7)
O1 O 0.5275(6) 0.4398(7) 0.9596(4)
O2 O 0.4795(6) 0.6691(7) 0.9242(4)
O3 O 0.8926(6) 0.7814(8) 0.6220(4)
O4 O 0.7860(6) 0.5798(7) 0.5879(4)
O5 O 1.0092(6) 0.7855(8) 0.4198(4)
O6 O 1.0267(6) 0.5544(7) 0.4588(4)
O7 O 1.2901(6) 0.4672(7) 0.0910(4)
O8 O 1.3670(6) 0.6829(8) 0.1266(4)
O9 O 0.5222(6) 0.9010(8) 0.6217(4)
O10 O 0.0004(6) 0.2660(8) 0.8695(4)
N1 N 0.7845(7) 0.8308(9) 0.4601(5)
N2 N 0.4139(7) 0.9866(10) 0.5091(5)
H1 H 0.3442 0.9938 0.4792
N3 N 0.1158(7) 0.7788(9) 0.5797(5)
N4 N 0.4102(7) 0.1567(9) 0.9165(5)
N5 N 0.1079(7) 0.3731(10) 0.9762(5)
H2 H 0.1767 0.3843 1.0068
N6 N -0.2608(7) 0.2382(9) 1.0328(5)
C1 C 0.5178(8) 0.5428(11) 0.9102(5)
C2 C 0.5552(8) 0.5206(10) 0.8305(5)
H3 H 0.5726 0.4161 0.8243
H4 H 0.4887 0.5466 0.7884
C3 C 0.6603(9) 0.6071(13) 0.8183(6)
H5 H 0.7304 0.5683 0.8535
H6 H 0.6491 0.7092 0.8343
C4 C 0.6835(9) 0.6048(11) 0.7319(6)
H7 H 0.6813 0.5026 0.7133
H8 H 0.6190 0.6578 0.6982
C5 C 0.7977(9) 0.6705(12) 0.7205(5)
H9 H 0.8614 0.6147 0.7534
H10 H 0.8004 0.7707 0.7422
C6 C 0.8269(8) 0.6790(11) 0.6358(5)
C7 C 1.0399(8) 0.6549(10) 0.4093(5)
C8 C 1.0964(9) 0.6221(11) 0.3381(6)
H11 H 1.0408 0.6477 0.2894
H12 H 1.1117 0.5161 0.3364
C9 C 1.2116(8) 0.7032(13) 0.3372(5)
H13 H 1.2741 0.6548 0.3751
H14 H 1.2028 0.8034 0.3569
C10 C 1.2521(9) 0.7121(11) 0.2564(5)
H15 H 1.1977 0.7770 0.2215
H16 H 1.3313 0.7574 0.2635
C11 C 1.2579(9) 0.5669(11) 0.2145(6)
H17 H 1.3066 0.4993 0.2514
H18 H 1.1773 0.5259 0.2032
C12 C 1.3075(8) 0.5719(11) 0.1378(6)
C13 C 0.7423(9) 0.7545(11) 0.3932(6)
H19 H 0.7940 0.6905 0.3715
C14 C 0.6287(10) 0.7662(13) 0.3560(7)
H20 H 0.6016 0.7095 0.3100
C15 C 0.5550(9) 0.8588(12) 0.3849(6)
H21 H 0.4756 0.8669 0.3593
C16 C 0.5946(8) 0.9434(11) 0.4527(6)
C17 C 0.7104(8) 0.9215(11) 0.4884(6)
H22 H 0.7387 0.9741 0.5357
C18 C 0.5166(9) 1.0517(12) 0.4837(7)
H23 H 0.5625 1.1038 0.5294
H24 H 0.4904 1.1242 0.4415
C19 C 0.4266(10) 0.9138(12) 0.5799(6)
C20 C 0.2052(8) 0.8549(10) 0.5602(5)
H25 H 0.1899 0.9230 0.5177
C21 C 0.3203(8) 0.8391(11) 0.5993(5)
C22 C 0.3402(9) 0.7341(12) 0.6607(6)
H26 H 0.4171 0.7197 0.6897
C23 C 0.2465(10) 0.6530(12) 0.6779(6)
H27 H 0.2591 0.5788 0.7173
C24 C 0.1359(9) 0.6796(11) 0.6384(5)
H28 H 0.0714 0.6266 0.6527
C25 C 0.3908(9) 0.0488(11) 0.8627(6)
H29 H 0.4564 -0.0057 0.8512
C26 C 0.2800(10) 0.0134(12) 0.8235(6)
H30 H 0.2688 -0.0641 0.7860
C27 C 0.1876(10) 0.0928(12) 0.8402(6)
H31 H 0.1106 0.0723 0.8131
C28 C 0.2036(8) 0.2026(12) 0.8958(5)
C29 C 0.3184(8) 0.2301(11) 0.9322(6)
H32 H 0.3313 0.3061 0.9705
C30 C 0.0960(9) 0.2836(11) 0.9119(6)
C31 C 0.0053(10) 0.4492(12) 0.9929(7)
H33 H -0.0400 0.4854 0.9423
H34 H 0.0306 0.5345 1.0269
C32 C -0.1884(9) 0.3255(10) 0.9981(6)
H35 H -0.2170 0.3680 0.9478
C33 C -0.0734(9) 0.3550(11) 1.0341(6)
C34 C -0.0314(9) 0.2866(11) 1.1075(6)
H36 H 0.0473 0.3014 1.1332
C35 C -0.1058(9) 0.1994(14) 1.1404(6)
H37 H -0.0794 0.1538 1.1903
C36 C -0.2185(9) 0.1762(12) 1.1027(6)
H38 H -0.2686 0.1140 1.1270
Cu1_2 Cu -0.05174(10) 0.80474(11) 0.52114(6)
Cu1A Cu 1.05174(10) 0.30474(11) 0.47886(6)
Cu2_2 Cu -0.42658(11) 0.19842(12) 0.97390(7)
Cu2A Cu 0.42658(11) 0.69842(12) 1.02610(7)
Cu2A_2 Cu 1.42658(11) 0.69842(12) 0.02610(7)
O2A O 0.5205(6) 0.1691(7) 1.0758(4)
O6A O 0.9733(6) 1.0544(7) 0.5412(4)
O8A O 0.6330(6) 0.1829(8) 0.8734(4)
N3_2 N 1.1158(7) 0.7788(9) 0.5797(5)
N6_2 N 0.7392(7) 0.2382(9) 1.0328(5)
O11 O 0.0527(9) 0.4269(10) 0.7312(5)
H39 H 0.0459 0.4467 0.6806
H40 H -0.0094 0.3795 0.7403
loop_
_geom_bond_atom_site_label_1
_geom_bond_atom_site_label_2
_geom_bond_site_symmetry_1
_geom_bond_site_symmetry_2
Cu1 O3 1_555 1_555
Cu2 O1 1_555 1_555
O1 C1 1_555 1_555
O2 C1 1_555 1_555
O3 C6 1_555 1_555
O4 C6 1_555 1_555
O5 Cu1 1_555 1_555
O6 Cu1 1_555 1_555
O7 C12 1_555 1_555
O8 C12 1_555 1_555
O9 C19 1_555 1_555
O10 C30 1_555 1_555
N1 Cu1 1_555 1_555
N2 H1 1_555 1_555
N3 C20 1_555 1_555
N4 Cu2 1_555 1_555
N5 H2 1_555 1_555
N6 C32 1_555 1_555
C1 C2 1_555 1_555
C2 H3 1_555 1_555
H4 C2 1_555 1_555
C3 C2 1_555 1_555
H5 C3 1_555 1_555
H6 C3 1_555 1_555
C4 C3 1_555 1_555
H7 C4 1_555 1_555
H8 C4 1_555 1_555
C5 C4 1_555 1_555
H9 C5 1_555 1_555
H10 C5 1_555 1_555
C6 C5 1_555 1_555
C7 O5 1_555 1_555
C8 C7 1_555 1_555
H11 C8 1_555 1_555
H12 C8 1_555 1_555
C9 C8 1_555 1_555
H13 C9 1_555 1_555
H14 C9 1_555 1_555
C10 C9 1_555 1_555
H15 C10 1_555 1_555
H16 C10 1_555 1_555
C11 C10 1_555 1_555
H17 C11 1_555 1_555
H18 C11 1_555 1_555
C12 C11 1_555 1_555
C13 N1 1_555 1_555
H19 C13 1_555 1_555
C14 C13 1_555 1_555
H20 C14 1_555 1_555
C15 C14 1_555 1_555
H21 C15 1_555 1_555
C16 C15 1_555 1_555
C17 N1 1_555 1_555
H22 C17 1_555 1_555
C18 N2 1_555 1_555
H23 C18 1_555 1_555
H24 C18 1_555 1_555
C19 N2 1_555 1_555
C20 H25 1_555 1_555
C21 C19 1_555 1_555
C22 C21 1_555 1_555
H26 C22 1_555 1_555
C23 C22 1_555 1_555
H27 C23 1_555 1_555
C24 N3 1_555 1_555
H28 C24 1_555 1_555
C25 N4 1_555 1_555
H29 C25 1_555 1_555
C26 C25 1_555 1_555
H30 C26 1_555 1_555
C27 C26 1_555 1_555
H31 C27 1_555 1_555
C28 C27 1_555 1_555
C29 N4 1_555 1_555
H32 C29 1_555 1_555
C30 N5 1_555 1_555
C31 N5 1_555 1_555
H33 C31 1_555 1_555
H34 C31 1_555 1_555
C32 H35 1_555 1_555
C33 C31 1_555 1_555
C34 C33 1_555 1_555
H36 C34 1_555 1_555
C35 C34 1_555 1_555
H37 C35 1_555 1_555
C36 N6 1_555 1_555
H38 C36 1_555 1_555
O11 H39 1_555 1_555
H40 O11 1_555 1_555
Cu1_2 N3 1_555 1_555
Cu1A O6 1_555 1_555
Cu2_2 N6 1_555 1_555
Cu2A O2 1_555 1_555
Cu2A_2 O8 1_555 1_555
O2A Cu2 1_555 1_555
O6A Cu1 1_555 1_555
O8A Cu2 1_555 1_555
N3_2 Cu1 1_555 1_555
N6_2 Cu2 1_555 1_555
O6 C7 1_555 1_555
C16 C17 1_555 1_555
C16 C18 1_555 1_555
C20 C21 1_555 1_555
C23 C24 1_555 1_555
C28 C29 1_555 1_555
C28 C30 1_555 1_555
C32 C33 1_555 1_555
C35 C36 1_555 1_555

#END
