
#######################################################################
#
#                 Cambridge Crystallographic Data Centre
#                                CCDC 
#
#######################################################################
#
# If this CIF has been generated from an entry in the Cambridge 
# Structural Database, then it will include bibliographic, chemical, 
# crystal, experimental, refinement or atomic coordinate data resulting 
# from the CCDC's data processing and validation procedures.
#
#######################################################################

data_FUDYAG
_symmetry_cell_setting           triclinic
_symmetry_space_group_name_H-M   'P -1'
_symmetry_Int_Tables_number      2
_space_group_name_Hall           '-P 1'
loop_
_symmetry_equiv_pos_site_id
_symmetry_equiv_pos_as_xyz
1 x,y,z
2 -x,-y,-z
_cell_length_a                   6.646(4)
_cell_length_b                   10.451(6)
_cell_length_c                   15.661(9)
_cell_angle_alpha                105.483(6)
_cell_angle_beta                 92.571(7)
_cell_angle_gamma                101.665(7)
_cell_volume                     1021
loop_
_atom_site_label
_atom_site_type_symbol
_atom_site_fract_x
_atom_site_fract_y
_atom_site_fract_z
Cu1 Cu 0.5095(2) 0.12593(15) 0.99439(9)
Cu2 Cu 0.0759(2) 0.12457(14) 0.49455(9)
O1 O 0.7527(11) 0.1987(8) 1.0841(5)
O2 O 0.7348(11) -0.0127(9) 1.0914(5)
O3 O 1.3290(12) 0.1269(8) 1.0901(5)
O4 O 1.3046(11) -0.0848(9) 1.0983(5)
O5 O 0.7520(11) -0.0414(9) 0.5941(5)
O6 O 0.1493(12) -0.0845(8) 0.6029(5)
O7 O 0.8808(12) 0.1692(8) 0.5860(6)
O8 O 0.2764(12) 0.1211(8) 0.5890(5)
O9 O 0.6418(16) 0.4888(10) 0.7767(7)
N1 N 0.4078(15) 0.2952(10) 0.9604(6)
N2 N 0.3676(15) 0.5805(10) 0.7690(6)
H1 H 0.2542 0.5925 0.7909
N3 N 0.1864(13) 0.3373(9) 0.5049(6)
C1 C 1.2607(19) 0.0316(15) 1.1222(8)
C2 C 1.1123(17) 0.0524(12) 1.1927(7)
H2 H 1.1898 0.0784 1.2510
H3 H 1.0156 -0.0335 1.1862
C3 C 0.9907(16) 0.1600(12) 1.1889(7)
H4 H 0.9363 0.1887 1.2456
H5 H 1.0841 0.2388 1.1803
C4 C 0.8148(18) 0.1122(15) 1.1160(8)
C5 C 0.212(2) 0.2987(12) 0.9778(8)
H6 H 0.1542 0.2523 1.0171
C6 C 0.093(2) 0.3661(16) 0.9411(10)
H7 H -0.0404 0.3673 0.9564
C7 C 0.174(2) 0.4337(14) 0.8802(9)
H8 H 0.0930 0.4754 0.8512
C8 C 0.3757(19) 0.4374(12) 0.8640(8)
C9 C 0.4813(18) 0.3639(12) 0.9050(8)
H9 H 0.6164 0.3632 0.8921
C10 C 0.476(2) 0.5045(13) 0.7999(8)
C11 C 0.4333(19) 0.6428(13) 0.7005(9)
H10 H 0.5824 0.6573 0.7020
H11 H 0.3983 0.7312 0.7133
C12 C 0.3346(17) 0.5569(12) 0.6051(7)
C13 C 0.3230(18) 0.6176(13) 0.5377(9)
H12 H 0.3729 0.7108 0.5482
C14 C 0.2371(18) 0.5382(13) 0.4557(8)
H13 H 0.2225 0.5764 0.4092
C15 C 0.1726(18) 0.4012(13) 0.4426(8)
H14 H 0.1145 0.3485 0.3859
C16 C 0.2637(18) 0.4175(11) 0.5863(8)
H15 H 0.2700 0.3777 0.6326
C17 C 0.2787(16) 0.0276(13) 0.6231(7)
C18 C 0.4442(15) 0.0508(11) 0.6978(7)
H16 H 0.4739 -0.0361 0.6984
H17 H 0.3926 0.0880 0.7540
C19 C 0.6446(15) 0.1474(11) 0.6905(7)
H18 H 0.7314 0.1744 0.7466
H19 H 0.6119 0.2289 0.6803
C20 C 0.7661(17) 0.0844(14) 0.6153(8)
Cu1_2 Cu 1.5095(2) 0.12593(15) 0.99439(9)
Cu1A Cu 0.4905(2) -0.12593(15) 1.00561(9)
Cu1A_2 Cu 1.4905(2) -0.12593(15) 1.00561(9)
Cu2_2 Cu 1.0759(2) 0.12457(14) 0.49455(9)
Cu2A Cu -0.0759(2) -0.12457(14) 0.50545(9)
Cu2A_2 Cu 0.9241(2) -0.12457(14) 0.50545(9)
O2A O 0.2652(11) 0.0127(9) 0.9086(5)
O3_2 O 0.3290(12) 0.1269(8) 1.0901(5)
O4A O 0.6954(11) 0.0848(9) 0.9017(5)
O5A O 0.2480(11) 0.0414(9) 0.4059(5)
O6A O -0.1493(12) 0.0845(8) 0.3971(5)
O7_2 O -0.1192(12) 0.1692(8) 0.5860(6)
loop_
_geom_bond_atom_site_label_1
_geom_bond_atom_site_label_2
_geom_bond_site_symmetry_1
_geom_bond_site_symmetry_2
Cu1 O1 1_555 1_555
Cu2 O8 1_555 1_555
O1 C4 1_555 1_555
O2 C4 1_555 1_555
O3 C1 1_555 1_555
O4 C1 1_555 1_555
O5 C20 1_555 1_555
O6 C17 1_555 1_555
O7 C20 1_555 1_555
O8 C17 1_555 1_555
O9 C10 1_555 1_555
N1 Cu1 1_555 1_555
N2 H1 1_555 1_555
N3 Cu2 1_555 1_555
C1 C2 1_555 1_555
C2 H2 1_555 1_555
H3 C2 1_555 1_555
C3 C2 1_555 1_555
H4 C3 1_555 1_555
H5 C3 1_555 1_555
C4 C3 1_555 1_555
C5 N1 1_555 1_555
H6 C5 1_555 1_555
C6 C5 1_555 1_555
H7 C6 1_555 1_555
C7 C6 1_555 1_555
H8 C7 1_555 1_555
C8 C7 1_555 1_555
C9 N1 1_555 1_555
H9 C9 1_555 1_555
C10 N2 1_555 1_555
C11 N2 1_555 1_555
H10 C11 1_555 1_555
H11 C11 1_555 1_555
C12 C11 1_555 1_555
C13 C12 1_555 1_555
H12 C13 1_555 1_555
C14 C13 1_555 1_555
H13 C14 1_555 1_555
C15 N3 1_555 1_555
H14 C15 1_555 1_555
C16 N3 1_555 1_555
H15 C16 1_555 1_555
C17 C18 1_555 1_555
C18 H16 1_555 1_555
H17 C18 1_555 1_555
C19 C18 1_555 1_555
H18 C19 1_555 1_555
H19 C19 1_555 1_555
C20 C19 1_555 1_555
Cu1_2 O3 1_555 1_555
Cu1A Cu1 1_555 1_555
Cu1A_2 O4 1_555 1_555
Cu2_2 O7 1_555 1_555
Cu2A Cu2 1_555 1_555
Cu2A_2 O5 1_555 1_555
O2A Cu1 1_555 1_555
O3_2 Cu1 1_555 1_555
O4A Cu1 1_555 1_555
O5A Cu2 1_555 1_555
O6A Cu2 1_555 1_555
O7_2 Cu2 1_555 1_555
O2 Cu1A 1_555 1_555
O6 Cu2A 1_555 1_555
C8 C9 1_555 1_555
C8 C10 1_555 1_555
C12 C16 1_555 1_555
C14 C15 1_555 1_555
Cu1_2 Cu1A_2 1_555 1_555
Cu2_2 Cu2A_2 1_555 1_555

#END
