
#######################################################################
#
#                 Cambridge Crystallographic Data Centre
#                                CCDC 
#
#######################################################################
#
# If this CIF has been generated from an entry in the Cambridge 
# Structural Database, then it will include bibliographic, chemical, 
# crystal, experimental, refinement or atomic coordinate data resulting 
# from the CCDC's data processing and validation procedures.
#
#######################################################################

data_FUDZEK
_symmetry_cell_setting           orthorhombic
_symmetry_space_group_name_H-M   'P 21 21 21'
_symmetry_Int_Tables_number      19
_space_group_name_Hall           'P 2ac 2ab'
loop_
_symmetry_equiv_pos_site_id
_symmetry_equiv_pos_as_xyz
1 x,y,z
2 1/2-x,-y,1/2+z
3 -x,1/2+y,1/2-z
4 1/2+x,1/2-y,-z
_cell_length_a                   14.1150(8)
_cell_length_b                   14.7916(7)
_cell_length_c                   15.1031(8)
_cell_angle_alpha                90
_cell_angle_beta                 90
_cell_angle_gamma                90
_cell_volume                     3153.28
loop_
_atom_site_label
_atom_site_type_symbol
_atom_site_fract_x
_atom_site_fract_y
_atom_site_fract_z
Zn1 Zn 1.45616(3) 0.96140(3) 0.94707(3)
Zn2 Zn 1.29688(3) 0.80936(3) 0.80389(3)
O1 O 1.29020(18) 0.82230(16) 0.94378(16)
O2 O 0.95082(16) 0.69784(16) 1.18893(16)
N1 N 1.6459(2) 0.6779(2) 0.1984(2)
O3 O 1.02129(17) 0.65463(17) 1.06312(18)
O4 O 1.19226(16) 1.04465(16) 1.28976(16)
O5 O 1.05855(16) 0.97698(17) 1.33368(16)
N2 N 1.3082(2) 0.8014(2) 0.6643(2)
C1 C 1.0091(2) 0.7082(2) 1.1282(2)
C2 C 1.1421(2) 0.8015(2) 1.0647(2)
H1 H 1.1451 0.7612 1.0175
C3 C 1.2051(2) 0.8735(2) 1.0682(2)
C4 C 1.0704(2) 0.8496(2) 1.2007(2)
H2 H 1.0260 0.8410 1.2453
O6 O 1.33492(18) 0.95107(17) 1.00833(18)
C5 C 1.2367(3) 0.8443(3) 0.4384(3)
H3 H 1.2632 0.9020 0.4203
H4 H 1.1695 0.8530 0.4487
C6 C 1.1285(2) 0.9876(2) 1.2812(2)
C7 C 1.2815(2) 0.8825(2) 1.0002(2)
C8 C 1.0745(2) 0.7886(2) 1.1306(2)
N3 N 1.2027(2) 0.3330(2) 0.3246(2)
C9 C 1.3198(3) 0.7886(2) 0.2996(3)
N4 N 1.2820(2) 0.8156(2) 0.5211(2)
C10 C 1.3261(3) 0.7291(3) 0.2286(3)
N5 N 1.4925(2) 0.7011(2) 0.1851(2)
C11 C 1.1889(3) 0.7004(3) 0.3600(3)
C12 C 1.1285(3) 0.5624(3) 0.2796(3)
H5 H 1.0711 0.5755 0.3125
H6 H 1.1112 0.5546 0.2179
C13 C 1.5037(3) 0.6200(3) 0.2276(4)
H7 H 1.4560 0.5820 0.2480
C14 C 1.2634(3) 0.6559(3) 0.2213(2)
C15 C 1.1953(3) 0.6418(2) 0.2876(3)
C16 C 1.5795(3) 0.7335(3) 0.1712(3)
H8 H 1.5917 0.7893 0.1451
C17 C 1.2499(3) 0.7765(3) 0.3640(3)
C18 C 1.2477(3) 0.8274(3) 0.6027(3)
H9 H 1.1881 0.8512 0.6147
C19 C 1.4023(3) 0.7437(3) 0.1585(3)
H10 H 1.3814 0.7180 0.1027
H11 H 1.4121 0.8080 0.1498
C20 C 1.1223(3) 0.6848(4) 0.4359(4)
H12 H 1.0860 0.6310 0.4251
H13 H 1.0804 0.7355 0.4415
H14 H 1.1580 0.6777 0.4895
Cl1 Cl 1.54316(12) 1.05405(10) 1.03007(11)
C21 C 1.2340(5) 0.3771(3) 0.3980(3)
H15 H 1.2633 0.3493 0.4460
C22 C 1.3909(4) 0.8650(3) 0.3078(4)
H16 H 1.4330 0.8639 0.2579
H17 H 1.4268 0.8576 0.3613
H18 H 1.3580 0.9218 0.3094
C23 C 1.3692(3) 0.7783(4) 0.5303(3)
H19 H 1.4104 0.7612 0.4852
C24 C 1.2685(4) 0.5894(4) 0.1448(3)
H20 H 1.3185 0.6070 0.1052
H21 H 1.2093 0.5893 0.1135
H22 H 1.2811 0.5299 0.1673
C25 C 1.3843(3) 0.7708(4) 0.6194(3)
H23 H 1.4391 0.7480 0.6453
C26 C 1.5981(3) 0.6066(3) 0.2339(4)
H24 H 1.6264 0.5559 0.2589
C27 C 1.2166(4) 0.4663(4) 0.3917(4)
H25 H 1.2329 0.5108 0.4324
C28 C 1.1657(3) 0.3970(3) 0.2745(3)
H26 H 1.1396 0.3866 0.2189
N6 N 1.1698(2) 0.4781(2) 0.3127(2)
C29 C 1.1319(2) 0.9234(2) 1.2050(2)
C30 C 1.1993(2) 0.9345(2) 1.1386(2)
H27 H 1.2410 0.9831 1.1412
Zn1C Zn 0.95616(3) 0.53860(3) 1.05293(3)
Zn1A Zn 1.04384(3) 1.03860(3) 1.44707(3)
Zn2C Zn 0.79688(3) 0.69064(3) 1.19611(3)
Zn2C_2 Zn 1.79688(3) 0.69064(3) 0.19611(3)
Zn2A Zn 1.20312(3) 1.19064(3) 1.30389(3)
Zn2A_2 Zn 1.20312(3) 0.19064(3) 0.30389(3)
O2C O 1.45082(16) 0.80216(16) 0.81107(16)
N1C N 1.1459(2) 0.8221(2) 0.8016(2)
O3C O 1.52129(17) 0.84537(17) 0.93688(18)
O4A O 1.30774(16) 0.95535(16) 0.78976(16)
O5A O 1.44145(16) 1.02302(17) 0.83368(16)
N3A N 1.2973(2) 0.6670(2) 0.8246(2)
loop_
_geom_bond_atom_site_label_1
_geom_bond_atom_site_label_2
_geom_bond_site_symmetry_1
_geom_bond_site_symmetry_2
Zn1 O6 1_555 1_555
Zn2 O1 1_555 1_555
O1 C7 1_555 1_555
O2 C1 1_555 1_555
N1 C16 1_555 1_555
O3 C1 1_555 1_555
O4 C6 1_555 1_555
O5 C6 1_555 1_555
N2 Zn2 1_555 1_555
C1 C8 1_555 1_555
C2 H1 1_555 1_555
C3 C2 1_555 1_555
C4 H2 1_555 1_555
O6 C7 1_555 1_555
C5 H3 1_555 1_555
H4 C5 1_555 1_555
C6 C29 1_555 1_555
C7 C3 1_555 1_555
C8 C2 1_555 1_555
N3 C21 1_555 1_555
C9 C10 1_555 1_555
N4 C5 1_555 1_555
C10 C14 1_555 1_555
N5 C13 1_555 1_555
C11 C15 1_555 1_555
C12 H5 1_555 1_555
H6 C12 1_555 1_555
C13 H7 1_555 1_555
C14 C15 1_555 1_555
C15 C12 1_555 1_555
C16 N5 1_555 1_555
H8 C16 1_555 1_555
C17 C5 1_555 1_555
C18 N2 1_555 1_555
H9 C18 1_555 1_555
C19 C10 1_555 1_555
H10 C19 1_555 1_555
H11 C19 1_555 1_555
C20 C11 1_555 1_555
H12 C20 1_555 1_555
H13 C20 1_555 1_555
H14 C20 1_555 1_555
Cl1 Zn1 1_555 1_555
C21 H15 1_555 1_555
C22 C9 1_555 1_555
H16 C22 1_555 1_555
H17 C22 1_555 1_555
H18 C22 1_555 1_555
C23 N4 1_555 1_555
H19 C23 1_555 1_555
C24 C14 1_555 1_555
H20 C24 1_555 1_555
H21 C24 1_555 1_555
H22 C24 1_555 1_555
C25 N2 1_555 1_555
H23 C25 1_555 1_555
C26 N1 1_555 1_555
H24 C26 1_555 1_555
C27 C21 1_555 1_555
H25 C27 1_555 1_555
C28 N3 1_555 1_555
H26 C28 1_555 1_555
N6 C12 1_555 1_555
C29 C4 1_555 1_555
C30 C3 1_555 1_555
H27 C30 1_555 1_555
Zn1C O3 1_555 1_555
Zn1A O5 1_555 1_555
Zn2C O2 1_555 1_555
Zn2C_2 N1 1_555 1_555
Zn2A O4 1_555 1_555
Zn2A_2 N3 1_555 1_555
O2C Zn2 1_555 1_555
N1C Zn2 1_555 1_555
O3C Zn1 1_555 1_555
O4A Zn2 1_555 1_555
O5A Zn1 1_555 1_555
N3A Zn2 1_555 1_555
C4 C8 1_555 1_555
C9 C17 1_555 1_555
N4 C18 1_555 1_555
N5 C19 1_555 1_555
C11 C17 1_555 1_555
C13 C26 1_555 1_555
C23 C25 1_555 1_555
C27 N6 1_555 1_555
C28 N6 1_555 1_555
C29 C30 1_555 1_555

#END
