
#######################################################################
#
#                 Cambridge Crystallographic Data Centre
#                                CCDC 
#
#######################################################################
#
# If this CIF has been generated from an entry in the Cambridge 
# Structural Database, then it will include bibliographic, chemical, 
# crystal, experimental, refinement or atomic coordinate data resulting 
# from the CCDC's data processing and validation procedures.
#
#######################################################################

data_FUDZEK01
_symmetry_cell_setting           orthorhombic
_symmetry_space_group_name_H-M   'P 21 21 21'
_symmetry_Int_Tables_number      19
_space_group_name_Hall           'P 2ac 2ab'
loop_
_symmetry_equiv_pos_site_id
_symmetry_equiv_pos_as_xyz
1 x,y,z
2 1/2-x,-y,1/2+z
3 -x,1/2+y,1/2-z
4 1/2+x,1/2-y,-z
_cell_length_a                   14.1294(13)
_cell_length_b                   14.7927(14)
_cell_length_c                   15.0679(14)
_cell_angle_alpha                90
_cell_angle_beta                 90
_cell_angle_gamma                90
_cell_volume                     3149.37
loop_
_atom_site_label
_atom_site_type_symbol
_atom_site_fract_x
_atom_site_fract_y
_atom_site_fract_z
Zn1 Zn 0.95551(3) 0.04044(2) 0.05350(2)
Zn2 Zn 0.79708(3) 0.19212(3) 0.19646(2)
N1 N 0.6468(2) 0.17892(19) 0.1971(2)
N2 N 0.4945(2) 0.2012(2) 0.1833(2)
N3 N 0.30930(19) 0.3010(2) 0.66365(17)
N4 N 0.2838(2) 0.3158(2) 0.52032(17)
N5 N 0.2022(2) -0.16568(19) 0.32423(17)
N6 N 0.1704(2) -0.02090(19) 0.3132(2)
O1 O 0.79046(16) 0.17795(14) 0.05548(14)
O2 O 0.83499(16) 0.04858(16) -0.00908(15)
O3 O 0.69157(15) -0.04574(15) -0.28957(14)
O4 O 0.55802(15) 0.02214(15) -0.33333(14)
O5 O 0.45122(15) 0.30087(15) -0.18892(14)
O6 O 0.52152(16) 0.34409(16) -0.06274(15)
Cl1 Cl 1.04405(12) -0.05330(11) -0.03037(11)
C1 C 0.7049(2) 0.1258(2) -0.06826(19)
C2 C 0.6417(2) 0.1976(2) -0.0650(2)
H1 H 0.6447 0.2380 -0.0178
C3 C 0.5744(2) 0.2104(2) -0.1303(2)
C4 C 0.5706(2) 0.1498(2) -0.2005(2)
H2 H 0.5265 0.1586 -0.2456
C5 C 0.6317(2) 0.0760(2) -0.2045(2)
C6 C 0.6987(2) 0.0649(2) -0.13828(18)
H3 H 0.7400 0.0161 -0.1407
C7 C 0.7822(2) 0.1173(2) -0.0001(2)
C8 C 0.5097(2) 0.2905(2) -0.1277(2)
C9 C 0.6273(2) 0.0115(2) -0.2810(2)
C10 C 0.5991(3) 0.1062(3) 0.2321(3)
H4 H 0.6274 0.0555 0.2572
C11 C 0.5063(3) 0.1194(3) 0.2244(3)
H5 H 0.4586 0.0806 0.2434
C12 C 0.5809(3) 0.2342(3) 0.1707(2)
H6 H 0.5929 0.2906 0.1458
C13 C 0.2494(3) 0.3267(2) 0.6021(2)
H7 H 0.1896 0.3498 0.6141
C14 C 0.3851(3) 0.2692(4) 0.6180(3)
H8 H 0.4391 0.2446 0.6437
C15 C 0.3710(3) 0.2784(4) 0.5306(3)
H9 H 0.4128 0.2622 0.4856
C16 C 0.2326(4) -0.1212(3) 0.3986(3)
H10 H 0.2622 -0.1486 0.4468
C17 C 0.2139(4) -0.0330(3) 0.3923(3)
H11 H 0.2280 0.0113 0.4340
C18 C 0.1654(3) -0.1018(2) 0.2750(2)
H12 H 0.1387 -0.1118 0.2194
C19 C 0.1296(3) 0.0639(2) 0.2784(3)
H13 H 0.0715 0.0772 0.3101
H14 H 0.1138 0.0557 0.2162
C20 C 0.1243(3) 0.1860(3) 0.4349(3)
H15 H 0.0814 0.1379 0.4202
H16 H 0.0891 0.2402 0.4464
H17 H 0.1598 0.1698 0.4869
C21 C 0.2391(3) 0.3450(2) 0.4373(2)
H18 H 0.2660 0.4025 0.4193
H19 H 0.1719 0.3540 0.4474
C22 C 0.3929(3) 0.3653(3) 0.3056(3)
H20 H 0.4552 0.3426 0.2935
H21 H 0.3909 0.3897 0.3646
H22 H 0.3775 0.4119 0.2636
C23 C 0.4040(3) 0.2420(3) 0.1568(3)
H23 H 0.3835 0.2154 0.1012
H24 H 0.4131 0.3063 0.1471
C24 C 0.2709(3) 0.0890(3) 0.1438(3)
H25 H 0.3288 0.0980 0.1117
H26 H 0.2181 0.0983 0.1048
H27 H 0.2691 0.0284 0.1667
C25 C 0.1964(2) 0.1428(2) 0.2874(2)
C26 C 0.1911(2) 0.2017(2) 0.3588(2)
C27 C 0.2525(2) 0.2762(2) 0.3622(2)
C28 C 0.3216(2) 0.2888(2) 0.2977(2)
C29 C 0.3270(2) 0.2283(2) 0.2267(2)
C30 C 0.2657(2) 0.1559(2) 0.2205(2)
Zn1A Zn 0.54449(3) -0.04044(2) -0.44650(2)
Zn1C Zn 0.45551(3) 0.45956(2) -0.05350(2)
Zn2A Zn 0.70292(3) -0.19212(3) -0.30354(2)
Zn2B Zn 0.20292(3) -0.30788(3) 0.30354(2)
Zn2C Zn 0.29708(3) 0.30788(3) -0.19646(2)
Zn2C_2 Zn 0.29708(3) 0.30788(3) 0.80354(2)
N3C N 0.80930(19) 0.1990(2) 0.33635(17)
N5B N 0.7978(2) 0.33432(19) 0.17577(17)
O3A O 0.80843(15) 0.04574(15) 0.21043(14)
O4A O 0.94198(15) -0.02214(15) 0.16667(14)
O5C O 0.95122(15) 0.19913(15) 0.18892(14)
O6C O 1.02152(16) 0.15591(16) 0.06274(15)
loop_
_geom_bond_atom_site_label_1
_geom_bond_atom_site_label_2
_geom_bond_site_symmetry_1
_geom_bond_site_symmetry_2
Zn1 O2 1_555 1_555
Zn2 N1 1_555 1_555
N1 C10 1_555 1_555
N2 C11 1_555 1_555
N3 C13 1_555 1_555
N4 C13 1_555 1_555
N5 C16 1_555 1_555
N6 C17 1_555 1_555
O1 Zn2 1_555 1_555
O2 C7 1_555 1_555
O3 C9 1_555 1_555
O4 C9 1_555 1_555
O5 C8 1_555 1_555
O6 C8 1_555 1_555
Cl1 Zn1 1_555 1_555
C1 C2 1_555 1_555
C2 H1 1_555 1_555
C3 C2 1_555 1_555
C4 C3 1_555 1_555
H2 C4 1_555 1_555
C5 C4 1_555 1_555
C6 C1 1_555 1_555
H3 C6 1_555 1_555
C7 O1 1_555 1_555
C8 C3 1_555 1_555
C9 C5 1_555 1_555
C10 H4 1_555 1_555
C11 C10 1_555 1_555
H5 C11 1_555 1_555
C12 N1 1_555 1_555
H6 C12 1_555 1_555
C13 H7 1_555 1_555
C14 N3 1_555 1_555
H8 C14 1_555 1_555
C15 N4 1_555 1_555
H9 C15 1_555 1_555
C16 H10 1_555 1_555
C17 C16 1_555 1_555
H11 C17 1_555 1_555
C18 N5 1_555 1_555
H12 C18 1_555 1_555
C19 N6 1_555 1_555
H13 C19 1_555 1_555
H14 C19 1_555 1_555
C20 H15 1_555 1_555
H16 C20 1_555 1_555
H17 C20 1_555 1_555
C21 N4 1_555 1_555
H18 C21 1_555 1_555
H19 C21 1_555 1_555
C22 H20 1_555 1_555
H21 C22 1_555 1_555
H22 C22 1_555 1_555
C23 N2 1_555 1_555
H23 C23 1_555 1_555
H24 C23 1_555 1_555
C24 H25 1_555 1_555
H26 C24 1_555 1_555
H27 C24 1_555 1_555
C25 C19 1_555 1_555
C26 C20 1_555 1_555
C27 C21 1_555 1_555
C28 C22 1_555 1_555
C29 C23 1_555 1_555
C30 C24 1_555 1_555
Zn1A O4 1_555 1_555
Zn1C O6 1_555 1_555
Zn2A O3 1_555 1_555
Zn2B N5 1_555 1_555
Zn2C O5 1_555 1_555
Zn2C_2 N3 1_555 1_555
N3C Zn2 1_555 1_555
N5B Zn2 1_555 1_555
O3A Zn2 1_555 1_555
O4A Zn1 1_555 1_555
O5C Zn2 1_555 1_555
O6C Zn1 1_555 1_555
N2 C12 1_555 1_555
N6 C18 1_555 1_555
C1 C7 1_555 1_555
C5 C6 1_555 1_555
C14 C15 1_555 1_555
C25 C26 1_555 1_555
C25 C30 1_555 1_555
C26 C27 1_555 1_555
C27 C28 1_555 1_555
C28 C29 1_555 1_555
C29 C30 1_555 1_555

#END
