
#######################################################################
#
#                 Cambridge Crystallographic Data Centre
#                                CCDC 
#
#######################################################################
#
# If this CIF has been generated from an entry in the Cambridge 
# Structural Database, then it will include bibliographic, chemical, 
# crystal, experimental, refinement or atomic coordinate data resulting 
# from the CCDC's data processing and validation procedures.
#
#######################################################################

data_FUDZAG
_symmetry_cell_setting           orthorhombic
_symmetry_space_group_name_H-M   'P 21 21 21'
_symmetry_Int_Tables_number      19
_space_group_name_Hall           'P 2ac 2ab'
loop_
_symmetry_equiv_pos_site_id
_symmetry_equiv_pos_as_xyz
1 x,y,z
2 1/2-x,-y,1/2+z
3 -x,1/2+y,1/2-z
4 1/2+x,1/2-y,-z
_cell_length_a                   14.1833(6)
_cell_length_b                   15.0437(6)
_cell_length_c                   15.3021(6)
_cell_angle_alpha                90
_cell_angle_beta                 90
_cell_angle_gamma                90
_cell_volume                     3265
loop_
_atom_site_label
_atom_site_type_symbol
_atom_site_fract_x
_atom_site_fract_y
_atom_site_fract_z
Cd1 Cd 0.30800(2) 0.68072(2) 0.816553(19)
Cd2 Cd 0.46925(2) 0.530018(19) 0.956993(17)
O1 O 0.4734(2) 0.6786(2) 0.82454(19)
O2 O 0.6762(2) 1.0260(2) 0.68959(19)
O3 O 0.8179(2) 0.8388(2) 1.03432(18)
O4 O 0.5429(2) 0.9536(2) 0.66234(18)
N1 N 0.3156(3) 0.6891(3) 0.6666(2)
O5 O 0.8386(2) 0.9680(2) 0.9672(2)
N2 N 0.4923(3) 0.8078(3) 0.1856(3)
N3 N 0.6453(3) 0.8330(3) 0.1826(3)
N4 N 0.1906(3) 1.1676(3) 0.3389(2)
N5 N 0.1675(3) 1.0244(3) 0.3252(3)
N6 N 0.2883(3) 0.6850(3) 0.5253(2)
C1 C 0.6598(3) 0.8023(3) 0.9300(2)
H1 H 0.6702 0.7656 0.9780
O6 O 0.5498(2) 0.6530(2) 0.9493(2)
C2 C 0.7152(3) 0.8779(3) 0.9181(2)
C3 C 0.6993(3) 0.9314(3) 0.8464(2)
H2 H 0.7361 0.9820 0.8384
C4 C 0.6169(3) 0.9691(3) 0.7079(2)
C5 C 0.3235(3) 0.7201(3) 0.3067(3)
C6 C 0.1278(4) 0.8174(5) 0.4447(4)
H3 H 0.0909 0.8700 0.4353
H4 H 0.1632 0.8235 0.4979
H5 H 0.0867 0.7668 0.4492
C7 C 0.1991(3) 0.8632(3) 0.2994(3)
C8 C 0.5756(3) 0.8356(3) 0.7981(2)
H6 H 0.5297 0.8208 0.7572
C9 C 0.1948(3) 0.8044(3) 0.3688(3)
C10 C 0.7951(3) 0.8961(3) 0.9788(3)
C11 C 0.1290(3) 0.9390(3) 0.2922(3)
H7 H 0.1109 0.9462 0.2315
H8 H 0.0728 0.9240 0.3252
C12 C 0.5896(3) 0.7815(3) 0.8709(2)
C13 C 0.1556(4) 1.1039(3) 0.2899(3)
H9 H 0.1259 1.1135 0.2365
C14 C 0.2556(3) 0.7302(3) 0.3714(3)
C15 C 0.3943(4) 0.6460(4) 0.3112(4)
H10 H 0.4359 0.6496 0.2618
H11 H 0.3620 0.5899 0.3105
H12 H 0.4302 0.6512 0.3641
C16 C 0.2711(4) 0.9190(4) 0.1593(3)
H13 H 0.3211 0.9028 0.1202
H14 H 0.2827 0.9774 0.1822
H15 H 0.2122 0.9186 0.1283
C17 C 0.5310(3) 0.6991(3) 0.8819(3)
C18 C 0.6301(3) 0.9114(3) 0.7865(2)
C19 C 0.5768(4) 0.7801(4) 0.1596(4)
H16 H 0.5861 0.7280 0.1281
C20 C 0.4007(3) 0.7667(4) 0.1657(3)
H17 H 0.4096 0.7035 0.1565
H18 H 0.3763 0.7919 0.1120
C21 C 0.3297(3) 0.7804(3) 0.2376(3)
C22 C 0.2421(4) 0.6614(3) 0.4415(3)
H19 H 0.1751 0.6535 0.4517
H20 H 0.2672 0.6052 0.4211
C23 C 0.6009(4) 0.8996(4) 0.2269(5)
H21 H 0.6311 0.9483 0.2517
C24 C 0.2556(4) 0.6655(3) 0.6046(3)
H22 H 0.1977 0.6387 0.6151
C25 C 0.2668(3) 0.8532(3) 0.2334(3)
C26 C 0.2179(6) 1.0355(4) 0.4000(4)
H23 H 0.2400 0.9915 0.4375
C27 C 0.2287(6) 1.1240(4) 0.4079(4)
H24 H 0.2584 1.1517 0.4548
C28 C 0.5078(4) 0.8850(4) 0.2297(4)
H25 H 0.4626 0.9206 0.2565
C29 C 0.3731(4) 0.7234(5) 0.5363(4)
H26 H 0.4126 0.7453 0.4929
C30 C 0.3893(4) 0.7237(6) 0.6233(4)
H27 H 0.4439 0.7449 0.6496
Cl1 Cl 0.56175(19) 0.43106(16) 1.04732(15)
Cd1A Cd 0.19200(2) 1.31928(2) 0.316553(19)
Cd1B Cd 0.69200(2) 1.18072(2) 0.683447(19)
Cd1C Cd 0.80800(2) 0.81928(2) 0.183447(19)
Cd1C_2 Cd 0.80800(2) 0.81928(2) 1.183447(19)
Cd2B Cd 0.53075(2) 1.030018(19) 0.543007(17)
Cd2C Cd 0.96925(2) 0.969982(19) 1.043007(17)
O2B O 0.3238(2) 0.5260(2) 0.81041(19)
O3C O 0.3179(2) 0.6612(2) 0.96568(18)
O4B O 0.4571(2) 0.4536(2) 0.83766(18)
O5C O 0.3386(2) 0.5320(2) 1.0328(2)
N3C N 0.1453(3) 0.6670(3) 0.8174(3)
N4A N 0.3094(3) 0.8324(3) 0.8389(2)
loop_
_geom_bond_atom_site_label_1
_geom_bond_atom_site_label_2
_geom_bond_site_symmetry_1
_geom_bond_site_symmetry_2
Cd1 O1 1_555 1_555
Cd2 O6 1_555 1_555
O1 C17 1_555 1_555
O2 C4 1_555 1_555
O3 C10 1_555 1_555
O4 C4 1_555 1_555
N1 Cd1 1_555 1_555
O5 C10 1_555 1_555
N2 C19 1_555 1_555
N3 C19 1_555 1_555
N4 C13 1_555 1_555
N5 C11 1_555 1_555
N6 C22 1_555 1_555
C1 H1 1_555 1_555
O6 C17 1_555 1_555
C2 C1 1_555 1_555
C3 C2 1_555 1_555
H2 C3 1_555 1_555
C4 C18 1_555 1_555
C5 C14 1_555 1_555
C6 H3 1_555 1_555
H4 C6 1_555 1_555
H5 C6 1_555 1_555
C7 C9 1_555 1_555
C8 H6 1_555 1_555
C9 C6 1_555 1_555
C10 C2 1_555 1_555
C11 C7 1_555 1_555
H7 C11 1_555 1_555
H8 C11 1_555 1_555
C12 C1 1_555 1_555
C13 N5 1_555 1_555
H9 C13 1_555 1_555
C14 C9 1_555 1_555
C15 C5 1_555 1_555
H10 C15 1_555 1_555
H11 C15 1_555 1_555
H12 C15 1_555 1_555
C16 H13 1_555 1_555
H14 C16 1_555 1_555
H15 C16 1_555 1_555
C17 C12 1_555 1_555
C18 C3 1_555 1_555
C19 H16 1_555 1_555
C20 N2 1_555 1_555
H17 C20 1_555 1_555
H18 C20 1_555 1_555
C21 C5 1_555 1_555
C22 C14 1_555 1_555
H19 C22 1_555 1_555
H20 C22 1_555 1_555
C23 N3 1_555 1_555
H21 C23 1_555 1_555
C24 N1 1_555 1_555
H22 C24 1_555 1_555
C25 C7 1_555 1_555
C26 N5 1_555 1_555
H23 C26 1_555 1_555
C27 N4 1_555 1_555
H24 C27 1_555 1_555
C28 N2 1_555 1_555
H25 C28 1_555 1_555
C29 N6 1_555 1_555
H26 C29 1_555 1_555
C30 N1 1_555 1_555
H27 C30 1_555 1_555
Cl1 Cd2 1_555 1_555
Cd1A N4 1_555 1_555
Cd1B O2 1_555 1_555
Cd1C N3 1_555 1_555
Cd1C_2 O3 1_555 1_555
Cd2B O4 1_555 1_555
Cd2C O5 1_555 1_555
O2B Cd1 1_555 1_555
O3C Cd1 1_555 1_555
O4B Cd2 1_555 1_555
O5C Cd2 1_555 1_555
N3C Cd1 1_555 1_555
N4A Cd1 1_555 1_555
N6 C24 1_555 1_555
C8 C12 1_555 1_555
C8 C18 1_555 1_555
C16 C25 1_555 1_555
C20 C21 1_555 1_555
C21 C25 1_555 1_555
C23 C28 1_555 1_555
C26 C27 1_555 1_555
C29 C30 1_555 1_555

#END
