
#######################################################################
#
#                 Cambridge Crystallographic Data Centre
#                                CCDC 
#
#######################################################################
#
# If this CIF has been generated from an entry in the Cambridge 
# Structural Database, then it will include bibliographic, chemical, 
# crystal, experimental, refinement or atomic coordinate data resulting 
# from the CCDC's data processing and validation procedures.
#
#######################################################################

data_FUFBIT
_symmetry_cell_setting           triclinic
_symmetry_space_group_name_H-M   'P -1'
_symmetry_Int_Tables_number      2
_space_group_name_Hall           '-P 1'
loop_
_symmetry_equiv_pos_site_id
_symmetry_equiv_pos_as_xyz
1 x,y,z
2 -x,-y,-z
_cell_length_a                   9.8764(5)
_cell_length_b                   9.9547(5)
_cell_length_c                   13.5467(7)
_cell_angle_alpha                68.736(5)
_cell_angle_beta                 82.259(4)
_cell_angle_gamma                87.525(4)
_cell_volume                     1229.86
loop_
_atom_site_label
_atom_site_type_symbol
_atom_site_fract_x
_atom_site_fract_y
_atom_site_fract_z
In1 In 1.63099(4) 0.27844(3) 0.24812(3)
O1 O 1.6565(4) 0.2014(3) 0.1137(3)
O2 O 1.6371(4) 0.0281(3) 0.2676(3)
O3 O 1.6213(5) -0.4880(4) 0.2661(4)
O4 O 1.6440(4) -0.5149(3) 0.1157(3)
O5 O 0.7463(3) 0.2138(4) 0.3862(3)
O6 O 0.8718(4) 0.2828(4) 0.2341(3)
O7 O 1.4676(3) 0.2207(4) 0.3837(3)
O8 O 1.3925(4) 0.2708(4) 0.2318(3)
N1 N 1.7001(6) -0.0207(5) -0.1665(4)
H1 H 1.7053 -0.0787 -0.2009
H2 H 1.7086 0.0707 -0.2007
N2 N 1.0634(5) 0.0906(5) 0.6668(4)
H3 H 1.1334 0.0742 0.7009
H4 H 0.9824 0.0773 0.7013
C1 C 1.6491(5) 0.0685(5) 0.1682(4)
C2 C 1.6567(5) -0.0355(5) 0.1109(4)
C3 C 1.6723(5) 0.0170(5) 0.0019(4)
H5 H 1.6792 0.1161 -0.0347
C4 C 1.6781(6) -0.0745(5) -0.0558(5)
C5 C 1.6642(6) -0.2201(5) 0.0009(5)
H6 H 1.6669 -0.2834 -0.0356
C6 C 1.6463(5) -0.2745(5) 0.1121(5)
C7 C 1.6433(5) -0.1818(5) 0.1678(4)
H7 H 1.6323 -0.2173 0.2420
C8 C 1.6355(6) -0.4344(5) 0.1692(5)
C9 C 0.8631(5) 0.2393(5) 0.3315(5)
C10 C 0.9865(5) 0.2127(5) 0.3895(4)
C11 C 0.9692(5) 0.1665(5) 0.4995(4)
H8 H 0.8814 0.1538 0.5365
C12 C 1.0812(5) 0.1386(5) 0.5554(4)
C13 C 1.2101(5) 0.1605(5) 0.4987(4)
H9 H 1.2861 0.1415 0.5352
C14 C 1.2282(5) 0.2100(5) 0.3886(4)
C15 C 1.1151(5) 0.2366(5) 0.3333(4)
H10 H 1.1265 0.2702 0.2590
C16 C 1.3686(5) 0.2355(5) 0.3314(5)
In1_2 In 0.63099(4) 0.27844(3) 0.24812(3)
In1_3 In 1.63099(4) -0.72156(3) 0.24812(3)
O3_2 O 1.6213(5) 0.5120(4) 0.2661(4)
O4_2 O 1.6440(4) 0.4851(3) 0.1157(3)
O5_2 O 1.7463(3) 0.2138(4) 0.3862(3)
O6_2 O 1.8718(4) 0.2828(4) 0.2341(3)
O9 O 0.5993(6) 0.1383(6) 0.6016(4)
loop_
_geom_bond_atom_site_label_1
_geom_bond_atom_site_label_2
_geom_bond_site_symmetry_1
_geom_bond_site_symmetry_2
In1 O1 1_555 1_555
O1 C1 1_555 1_555
O2 In1 1_555 1_555
O3 C8 1_555 1_555
O4 C8 1_555 1_555
O5 C9 1_555 1_555
O6 C9 1_555 1_555
O7 In1 1_555 1_555
O8 In1 1_555 1_555
N1 H1 1_555 1_555
H2 N1 1_555 1_555
N2 H3 1_555 1_555
H4 N2 1_555 1_555
C1 O2 1_555 1_555
C2 C1 1_555 1_555
C3 C2 1_555 1_555
H5 C3 1_555 1_555
C4 N1 1_555 1_555
C5 C4 1_555 1_555
H6 C5 1_555 1_555
C6 C5 1_555 1_555
C7 C2 1_555 1_555
H7 C7 1_555 1_555
C8 C6 1_555 1_555
C9 C10 1_555 1_555
C10 C11 1_555 1_555
C11 H8 1_555 1_555
C12 N2 1_555 1_555
C13 C12 1_555 1_555
H9 C13 1_555 1_555
C14 C13 1_555 1_555
C15 C10 1_555 1_555
H10 C15 1_555 1_555
C16 O7 1_555 1_555
In1_2 O5 1_555 1_555
In1_3 O3 1_555 1_555
O3_2 In1 1_555 1_555
O4_2 In1 1_555 1_555
O5_2 In1 1_555 1_555
O6_2 In1 1_555 1_555
O4 In1_3 1_555 1_555
O6 In1_2 1_555 1_555
O8 C16 1_555 1_555
C3 C4 1_555 1_555
C6 C7 1_555 1_555
C11 C12 1_555 1_555
C14 C15 1_555 1_555
C14 C16 1_555 1_555

#END
