
#######################################################################
#
#                 Cambridge Crystallographic Data Centre
#                                CCDC 
#
#######################################################################
#
# If this CIF has been generated from an entry in the Cambridge 
# Structural Database, then it will include bibliographic, chemical, 
# crystal, experimental, refinement or atomic coordinate data resulting 
# from the CCDC's data processing and validation procedures.
#
#######################################################################

data_FUFNUQ
_symmetry_cell_setting           monoclinic
_symmetry_space_group_name_H-M   'P 21/c'
_symmetry_Int_Tables_number      14
_space_group_name_Hall           '-P 2ybc'
loop_
_symmetry_equiv_pos_site_id
_symmetry_equiv_pos_as_xyz
1 x,y,z
2 -x,1/2+y,1/2-z
3 -x,-y,-z
4 x,1/2-y,1/2+z
_cell_length_a                   9.2459(11)
_cell_length_b                   19.326(2)
_cell_length_c                   12.4653(14)
_cell_angle_alpha                90
_cell_angle_beta                 100.741(2)
_cell_angle_gamma                90
_cell_volume                     2188.35
loop_
_atom_site_label
_atom_site_type_symbol
_atom_site_fract_x
_atom_site_fract_y
_atom_site_fract_z
Gd1 Gd 0.29284(4) 0.553891(17) 0.65534(3)
Gd2 Gd -0.15626(4) 0.742944(17) 0.82874(3)
P1 P 0.3351(2) 0.39290(9) 0.82387(15)
O1 O 0.3308(5) 0.4649(2) 0.7823(4)
O2 O 0.2206(5) 0.3424(2) 0.7724(4)
O3 O 0.3435(6) 0.3994(3) 0.9508(4)
H1 H 0.2773 0.3765 0.9688
O4 O 0.9353(6) 0.4343(3) 0.9114(4)
O5 O 0.1050(6) 0.5634(2) 0.7653(4)
O6 O -0.0653(6) 0.6301(2) 0.8175(4)
O7 O 0.0105(5) 0.7350(2) 0.7026(4)
O8 O 0.2062(5) 0.6757(2) 0.6712(4)
O9 O 0.6780(5) 0.7009(3) 0.6653(4)
O10 O 0.4755(5) 0.6381(2) 0.6031(4)
O11 O 0.4570(5) 0.6063(2) 0.8104(4)
O12 O 0.6277(6) 0.6866(3) 0.8682(4)
O13 O 0.3271(5) 0.5390(3) 0.4666(4)
O14 O 0.4830(5) 0.5084(3) 0.3581(4)
O15 O 0.1469(5) 0.4533(2) 0.5737(4)
O16 O -0.0627(5) 0.4163(2) 0.4702(4)
O17 O -0.0852(6) 0.6914(3) 1.0101(4)
H2 H -0.0385 0.6540 1.0049
H3 H -0.0301 0.7194 1.0516
O18 O -0.2470(6) 0.8217(2) 0.9531(4)
H4 H -0.2909 0.8553 0.9169
H5 H -0.3070 0.8003 0.9853
O19 O 0.0688(6) 0.7999(3) 0.9094(4)
H6 H 0.0910 0.8295 0.8647
H7 H 0.0571 0.8202 0.9677
N1 N 0.6344(6) 0.4047(3) 0.8195(4)
H10 H 0.6039 0.4433 0.7799
C1 C 0.5084(8) 0.3552(4) 0.8031(6)
H11 H 0.5329 0.3168 0.8532
H12 H 0.4952 0.3370 0.7295
C2 C 0.6827(9) 0.4270(4) 0.9367(6)
H13 H 0.6049 0.4538 0.9593
H14 H 0.7003 0.3865 0.9831
C3 C 0.8201(9) 0.4697(4) 0.9503(7)
H15 H 0.7991 0.5128 0.9106
H16 H 0.8522 0.4808 1.0269
C4 C 0.7614(8) 0.3747(4) 0.7744(6)
H17 H 0.7876 0.3299 0.8072
H18 H 0.7324 0.3684 0.6961
C5 C 0.8924(9) 0.4224(4) 0.7980(6)
H19 H 0.9739 0.4020 0.7701
H20 H 0.8681 0.4661 0.7608
C6 C 0.0393(8) 0.6189(4) 0.7692(6)
C7 C 0.0919(8) 0.6821(3) 0.7097(5)
C8 C 0.5695(8) 0.6636(4) 0.6767(5)
C9 C 0.5487(8) 0.6504(4) 0.7955(5)
C10 C 0.4453(8) 0.5137(4) 0.4494(6)
C11 C 0.0255(8) 0.4624(3) 0.5127(5)
Gd1B Gd 0.70716(4) 0.446109(17) 0.34466(3)
Gd1B_2 Gd -0.29284(4) 0.446109(17) 0.34466(3)
Gd1A Gd -0.29284(4) 1.053891(17) 0.84466(3)
Gd1_2 Gd -0.70716(4) 0.553891(17) 0.65534(3)
Gd2A Gd 0.15626(4) 0.242944(17) 0.67126(3)
Gd2_2 Gd 0.84374(4) 0.742944(17) 0.82874(3)
Gd2B Gd 1.15626(4) 0.257056(17) 0.17126(3)
P1A P -0.3351(2) 0.89290(9) 0.67613(15)
O1A O -0.3308(5) 0.9649(2) 0.7177(4)
O1B O 0.6692(5) 0.5351(2) 0.2177(4)
O2A O -0.2206(5) 0.8424(2) 0.7276(4)
O3A O -0.3435(6) 0.8994(3) 0.5492(4)
H1A H -0.2773 0.8765 0.5312
O4A O -0.9353(6) 0.9343(3) 0.5886(4)
O5B O 0.8950(6) 0.4366(2) 0.2347(4)
O6B O 1.0653(6) 0.3699(2) 0.1825(4)
O6A O 0.0653(6) 0.1301(2) 0.6825(4)
O7B O 0.9895(5) 0.2650(2) 0.2974(4)
O7A O -0.0105(5) 0.2350(2) 0.7974(4)
O8B O 0.7938(5) 0.3243(2) 0.3288(4)
O9_2 O -0.3220(5) 0.7009(3) 0.6653(4)
O9A O 0.3220(5) 0.2009(3) 0.8347(4)
O10_2 O -0.5245(5) 0.6381(2) 0.6031(4)
O10B O 0.5245(5) 0.3619(2) 0.3969(4)
O11_2 O -0.5430(5) 0.6063(2) 0.8104(4)
O11B O 0.5430(5) 0.3937(2) 0.1896(4)
O12_2 O -0.3723(6) 0.6866(3) 0.8682(4)
O12A O 0.3723(6) 0.1866(3) 0.6318(4)
O13B O 0.6729(5) 0.4610(3) 0.5334(4)
O14B O 0.5170(5) 0.4916(3) 0.6419(4)
O15B O -0.1469(5) 0.5467(2) 0.4263(4)
O15B_2 O 0.8531(5) 0.5467(2) 0.4263(4)
O16B O 0.0627(5) 0.5837(2) 0.5298(4)
O16_2 O 0.9373(5) 0.4163(2) 0.4702(4)
O17A O 0.0852(6) 0.1914(3) 0.4899(4)
H2A H 0.0385 0.1540 0.4951
H3A H 0.0301 0.2194 0.4484
O18A O 0.2470(6) 0.3217(2) 0.5469(4)
H4A H 0.2909 0.3553 0.5831
H5A H 0.3070 0.3003 0.5147
O19A O -0.0688(6) 0.2999(3) 0.5906(4)
H6A H -0.0910 0.3295 0.6353
H7A H -0.0571 0.3202 0.5323
N1A N -0.6344(6) 0.9047(3) 0.6805(4)
H10A H -0.6039 0.9433 0.7201
C1A C -0.5084(8) 0.8552(4) 0.6969(6)
H11A H -0.5329 0.8168 0.6468
H12A H -0.4952 0.8370 0.7705
C2A C -0.6827(9) 0.9270(4) 0.5633(6)
H13A H -0.6049 0.9538 0.5407
H14A H -0.7003 0.8865 0.5169
C3A C -0.8201(9) 0.9697(4) 0.5497(7)
H15A H -0.7991 1.0128 0.5894
H16A H -0.8522 0.9808 0.4731
C4A C -0.7614(8) 0.8747(4) 0.7256(6)
H17A H -0.7876 0.8299 0.6928
H18A H -0.7324 0.8684 0.8039
C5A C -0.8924(9) 0.9224(4) 0.7020(6)
H19A H -0.9739 0.9020 0.7299
H20A H -0.8681 0.9661 0.7392
C6B C 0.9607(8) 0.3811(4) 0.2308(6)
C7B C 0.9081(8) 0.3179(3) 0.2903(5)
C8_2 C -0.4305(8) 0.6636(4) 0.6767(5)
C9_2 C -0.4513(8) 0.6504(4) 0.7955(5)
C10B C 0.5547(8) 0.4863(4) 0.5506(6)
C11B C -0.0255(8) 0.5376(3) 0.4873(5)
O20 O 0.3620(7) 0.7572(3) 0.9498(5)
H8 H 0.3081 0.7493 0.9967
H9 H 0.4517 0.7590 0.9816
loop_
_geom_bond_atom_site_label_1
_geom_bond_atom_site_label_2
_geom_bond_site_symmetry_1
_geom_bond_site_symmetry_2
Gd1 O1 1_555 1_555
Gd2 O6 1_555 1_555
P1 O1 1_555 1_555
O2 P1 1_555 1_555
O3 P1 1_555 1_555
H1 O3 1_555 1_555
O4 C3 1_555 1_555
O5 Gd1 1_555 1_555
O6 C6 1_555 1_555
O7 Gd2 1_555 1_555
O8 Gd1 1_555 1_555
O9 C8 1_555 1_555
O10 Gd1 1_555 1_555
O11 Gd1 1_555 1_555
O12 C9 1_555 1_555
O13 Gd1 1_555 1_555
O14 C10 1_555 1_555
O15 Gd1 1_555 1_555
O16 C11 1_555 1_555
O17 Gd2 1_555 1_555
H2 O17 1_555 1_555
H3 O17 1_555 1_555
O18 Gd2 1_555 1_555
H4 O18 1_555 1_555
H5 O18 1_555 1_555
O19 Gd2 1_555 1_555
H6 O19 1_555 1_555
H7 O19 1_555 1_555
O20 H8 1_555 1_555
H9 O20 1_555 1_555
N1 H10 1_555 1_555
C1 P1 1_555 1_555
H11 C1 1_555 1_555
H12 C1 1_555 1_555
C2 N1 1_555 1_555
H13 C2 1_555 1_555
H14 C2 1_555 1_555
C3 C2 1_555 1_555
H15 C3 1_555 1_555
H16 C3 1_555 1_555
C4 N1 1_555 1_555
H17 C4 1_555 1_555
H18 C4 1_555 1_555
C5 O4 1_555 1_555
H19 C5 1_555 1_555
H20 C5 1_555 1_555
C6 O5 1_555 1_555
C7 O7 1_555 1_555
C8 O10 1_555 1_555
C9 O11 1_555 1_555
C10 O13 1_555 1_555
C11 O15 1_555 1_555
Gd1B O14 1_555 1_555
Gd1B_2 O16 1_555 1_555
Gd1A O1A 1_555 1_555
Gd1_2 O10_2 1_555 1_555
Gd2A O2 1_555 1_555
Gd2_2 O9 1_555 1_555
Gd2B O6B 1_555 1_555
P1A O1A 1_555 1_555
O1B Gd1B 1_555 1_555
O2A Gd2 1_555 1_555
O3A P1A 1_555 1_555
H1A O3A 1_555 1_555
O4A C3A 1_555 1_555
O5B Gd1B 1_555 1_555
O6B C6B 1_555 1_555
O6A Gd2A 1_555 1_555
O7B Gd2B 1_555 1_555
O7A Gd2A 1_555 1_555
O8B Gd1B 1_555 1_555
O9_2 Gd2 1_555 1_555
O9A Gd2A 1_555 1_555
O10_2 C8_2 1_555 1_555
O10B Gd1B 1_555 1_555
O11_2 Gd1_2 1_555 1_555
O11B Gd1B 1_555 1_555
O12_2 Gd2 1_555 1_555
O12A Gd2A 1_555 1_555
O13B Gd1B 1_555 1_555
O14B Gd1 1_555 1_555
O15B Gd1B_2 1_555 1_555
O15B_2 Gd1B 1_555 1_555
O16B Gd1 1_555 1_555
O16_2 Gd1B 1_555 1_555
O17A Gd2A 1_555 1_555
H2A O17A 1_555 1_555
H3A O17A 1_555 1_555
O18A Gd2A 1_555 1_555
H4A O18A 1_555 1_555
H5A O18A 1_555 1_555
O19A Gd2A 1_555 1_555
H6A O19A 1_555 1_555
H7A O19A 1_555 1_555
N1A H10A 1_555 1_555
C1A P1A 1_555 1_555
H11A C1A 1_555 1_555
H12A C1A 1_555 1_555
C2A N1A 1_555 1_555
H13A C2A 1_555 1_555
H14A C2A 1_555 1_555
C3A C2A 1_555 1_555
H15A C3A 1_555 1_555
H16A C3A 1_555 1_555
C4A N1A 1_555 1_555
H17A C4A 1_555 1_555
H18A C4A 1_555 1_555
C5A O4A 1_555 1_555
H19A C5A 1_555 1_555
H20A C5A 1_555 1_555
C6B O5B 1_555 1_555
C7B O7B 1_555 1_555
C8_2 O9_2 1_555 1_555
C9_2 O11_2 1_555 1_555
C10B C10 1_555 1_555
C11B C11 1_555 1_555
O8 C7 1_555 1_555
O12 Gd2_2 1_555 1_555
N1 C1 1_555 1_555
C4 C5 1_555 1_555
C6 C7 1_555 1_555
C8 C9 1_555 1_555
P1A O2A 1_555 1_555
O8B C7B 1_555 1_555
O12_2 C9_2 1_555 1_555
O13B C10B 1_555 1_555
O14B C10B 1_555 1_555
O15B C11B 1_555 1_555
O16B C11B 1_555 1_555
N1A C1A 1_555 1_555
C4A C5A 1_555 1_555
C6B C7B 1_555 1_555
C8_2 C9_2 1_555 1_555

#END
