
#######################################################################
#
#                 Cambridge Crystallographic Data Centre
#                                CCDC 
#
#######################################################################
#
# If this CIF has been generated from an entry in the Cambridge 
# Structural Database, then it will include bibliographic, chemical, 
# crystal, experimental, refinement or atomic coordinate data resulting 
# from the CCDC's data processing and validation procedures.
#
#######################################################################

data_FUFQED
_symmetry_cell_setting           monoclinic
_symmetry_space_group_name_H-M   'P 21/n'
_symmetry_Int_Tables_number      14
_space_group_name_Hall           '-P 2yn'
loop_
_symmetry_equiv_pos_site_id
_symmetry_equiv_pos_as_xyz
1 x,y,z
2 1/2-x,1/2+y,1/2-z
3 -x,-y,-z
4 1/2+x,1/2-y,1/2+z
_cell_length_a                   9.321(3)
_cell_length_b                   11.980(4)
_cell_length_c                   15.456(5)
_cell_angle_alpha                90
_cell_angle_beta                 91.99(3)
_cell_angle_gamma                90
_cell_volume                     1724.86
loop_
_atom_site_label
_atom_site_type_symbol
_atom_site_fract_x
_atom_site_fract_y
_atom_site_fract_z
Cu1 Cu 0.15199(4) 0.59171(3) 0.02451(2)
Cl1 Cl 0.18421(9) 0.77520(7) -0.72286(5)
N1 N 0.0657(3) 0.56594(19) -0.09710(16)
N2 N -0.0491(3) 0.4938(2) -0.11577(16)
N3 N 0.0179(3) 0.57118(19) -0.23623(15)
N4 N 0.0115(3) 0.5935(2) -0.32563(15)
C1 C 0.1220(3) 0.6424(2) -0.3535(2)
H1 H 0.1992 0.6597 -0.3141
C2 C 0.1330(3) 0.6725(2) -0.44474(19)
C3 C 0.0215(3) 0.6558(3) -0.50669(19)
H2 H -0.0654 0.6219 -0.4899
C4 C 0.0362(3) 0.6879(3) -0.5914(2)
H3 H -0.0403 0.6775 -0.6328
C5 C 0.1649(3) 0.7358(2) -0.61526(19)
C6 C 0.2782(3) 0.7514(2) -0.5564(2)
H4 H 0.3661 0.7828 -0.5741
C7 C 0.2608(3) 0.7201(2) -0.4710(2)
H5 H 0.3373 0.7312 -0.4297
C8 C 0.1030(3) 0.6105(2) -0.17031(18)
H6 H 0.1788 0.6627 -0.1763
C9 C -0.0750(3) 0.5000(2) -0.1998(2)
H7 H -0.1486 0.4602 -0.2305
N5 N 0.1554(3) 0.7509(2) 0.05435(16)
C10 C 0.1571(3) 0.8440(3) 0.0690(2)
C11 C 0.1603(4) 0.9630(3) 0.0888(2)
H8 H 0.1076 0.9769 0.1415
H9 H 0.1153 1.0047 0.0405
H10 H 0.2601 0.9874 0.0977
N6 N 0.3585(3) 0.5354(2) 0.01132(16)
C12 C 0.3944(3) 0.4727(2) -0.0560(2)
H11 H 0.3217 0.4516 -0.0975
C13 C 0.4664(3) 0.5627(2) 0.0675(2)
H12 H 0.4463 0.6075 0.1164
Cu1B Cu -0.15199(4) 0.40829(3) -0.02451(2)
Cu1B_2 Cu 0.84801(4) 0.40829(3) -0.02451(2)
Cl1B Cl -0.18421(9) 0.22480(7) 0.72286(5)
N1B N -0.0657(3) 0.43406(19) 0.09710(16)
N2B N 0.0491(3) 0.5062(2) 0.11577(16)
N3B N -0.0179(3) 0.42882(19) 0.23623(15)
N4B N -0.0115(3) 0.4065(2) 0.32563(15)
C1B C -0.1220(3) 0.3576(2) 0.3535(2)
H1B H -0.1992 0.3403 0.3141
C2B C -0.1330(3) 0.3275(2) 0.44474(19)
C3B C -0.0215(3) 0.3442(3) 0.50669(19)
H2B H 0.0654 0.3781 0.4899
C4B C -0.0362(3) 0.3121(3) 0.5914(2)
H3B H 0.0403 0.3225 0.6328
C5B C -0.1649(3) 0.2642(2) 0.61526(19)
C6B C -0.2782(3) 0.2486(2) 0.5564(2)
H4B H -0.3661 0.2172 0.5741
C7B C -0.2608(3) 0.2799(2) 0.4710(2)
H5B H -0.3373 0.2688 0.4297
C8B C -0.1030(3) 0.3895(2) 0.17031(18)
H6B H -0.1788 0.3373 0.1763
C9B C 0.0750(3) 0.5000(2) 0.1998(2)
H7B H 0.1486 0.5398 0.2305
N5B N -0.1554(3) 0.2491(2) -0.05435(16)
C10B C -0.1571(3) 0.1560(3) -0.0690(2)
C11B C -0.1603(4) 0.0370(3) -0.0888(2)
H8B H -0.1076 0.0231 -0.1415
H9B H -0.1153 -0.0047 -0.0405
H10B H -0.2601 0.0126 -0.0977
N6B N 0.6415(3) 0.4646(2) -0.01132(16)
N6B_2 N -0.3585(3) 0.4646(2) -0.01132(16)
C12B C 0.6056(3) 0.5273(2) 0.0560(2)
H11B H 0.6783 0.5484 0.0975
C13B C 0.5336(3) 0.4373(2) -0.0675(2)
H12B H 0.5537 0.3925 -0.1164
Cl2 Cl -0.35527(8) 0.58661(7) -0.70650(5)
O1 O -0.2393(2) 0.63650(18) -0.75313(15)
O2 O -0.3151(3) 0.5810(2) -0.61601(14)
O3 O -0.3827(2) 0.47546(17) -0.73914(15)
O4 O -0.4833(3) 0.65304(18) -0.71898(16)
loop_
_geom_bond_atom_site_label_1
_geom_bond_atom_site_label_2
_geom_bond_site_symmetry_1
_geom_bond_site_symmetry_2
Cu1 N1 1_555 1_555
Cl1 C5 1_555 1_555
N1 N2 1_555 1_555
N2 C9 1_555 1_555
N3 N4 1_555 1_555
N4 C1 1_555 1_555
Cl2 O1 1_555 1_555
O2 Cl2 1_555 1_555
O3 Cl2 1_555 1_555
O4 Cl2 1_555 1_555
C1 H1 1_555 1_555
C2 C1 1_555 1_555
C3 C2 1_555 1_555
H2 C3 1_555 1_555
C4 C3 1_555 1_555
H3 C4 1_555 1_555
C5 C4 1_555 1_555
C6 C5 1_555 1_555
H4 C6 1_555 1_555
C7 C2 1_555 1_555
H5 C7 1_555 1_555
C8 N1 1_555 1_555
H6 C8 1_555 1_555
C9 N3 1_555 1_555
H7 C9 1_555 1_555
N5 Cu1 1_555 1_555
C10 N5 1_555 1_555
C11 C10 1_555 1_555
H8 C11 1_555 1_555
H9 C11 1_555 1_555
H10 C11 1_555 1_555
N6 Cu1 1_555 1_555
C12 N6 1_555 1_555
H11 C12 1_555 1_555
C13 N6 1_555 1_555
H12 C13 1_555 1_555
Cu1B N2 1_555 1_555
Cu1B_2 N6B 1_555 1_555
Cl1B C5B 1_555 1_555
N1B Cu1B 1_555 1_555
N2B Cu1 1_555 1_555
N3B N4B 1_555 1_555
N4B C1B 1_555 1_555
C1B H1B 1_555 1_555
C2B C1B 1_555 1_555
C3B C2B 1_555 1_555
H2B C3B 1_555 1_555
C4B C3B 1_555 1_555
H3B C4B 1_555 1_555
C5B C4B 1_555 1_555
C6B C5B 1_555 1_555
H4B C6B 1_555 1_555
C7B C2B 1_555 1_555
H5B C7B 1_555 1_555
C8B N1B 1_555 1_555
H6B C8B 1_555 1_555
C9B N2B 1_555 1_555
H7B C9B 1_555 1_555
N5B Cu1B 1_555 1_555
C10B N5B 1_555 1_555
C11B C10B 1_555 1_555
H8B C11B 1_555 1_555
H9B C11B 1_555 1_555
H10B C11B 1_555 1_555
N6B C12B 1_555 1_555
N6B_2 Cu1B 1_555 1_555
C12B C13 1_555 1_555
H11B C12B 1_555 1_555
C13B C12 1_555 1_555
H12B C13B 1_555 1_555
N3 C8 1_555 1_555
C6 C7 1_555 1_555
N1B N2B 1_555 1_555
N3B C8B 1_555 1_555
N3B C9B 1_555 1_555
C6B C7B 1_555 1_555
N6B C13B 1_555 1_555

#END
