
#######################################################################
#
#                 Cambridge Crystallographic Data Centre
#                                CCDC 
#
#######################################################################
#
# If this CIF has been generated from an entry in the Cambridge 
# Structural Database, then it will include bibliographic, chemical, 
# crystal, experimental, refinement or atomic coordinate data resulting 
# from the CCDC's data processing and validation procedures.
#
#######################################################################

data_FUFSUW
_symmetry_cell_setting           monoclinic
_symmetry_space_group_name_H-M   'P 2/c'
_symmetry_Int_Tables_number      13
_space_group_name_Hall           '-P 2yc'
loop_
_symmetry_equiv_pos_site_id
_symmetry_equiv_pos_as_xyz
1 x,y,z
2 -x,y,1/2-z
3 -x,-y,-z
4 x,-y,1/2+z
_cell_length_a                   16.7488(9)
_cell_length_b                   12.8214(9)
_cell_length_c                   30.458(2)
_cell_angle_alpha                90
_cell_angle_beta                 116.084(4)
_cell_angle_gamma                90
_cell_volume                     5874.48
loop_
_atom_site_label
_atom_site_type_symbol
_atom_site_fract_x
_atom_site_fract_y
_atom_site_fract_z
Mn1 Mn 0.5000 0.0000 0.5000
Mn2 Mn 0.61678(6) -0.03509(9) 0.63630(4)
Mn3 Mn -0.15536(6) 1.06531(10) 0.20871(4)
C1 C 0.4448(4) 0.0892(6) 0.5758(3)
C2 C 0.3873(4) 0.1572(6) 0.5881(2)
C3 C 0.3992(5) 0.1655(6) 0.6355(2)
H1 H 0.4436 0.1274 0.6602
C4 C 0.3446(5) 0.2309(7) 0.6463(3)
H2 H 0.3530 0.2366 0.6785
C5 C 0.2788(5) 0.2871(7) 0.6109(3)
H3 H 0.2433 0.3321 0.6186
C6 C 0.2657(4) 0.2754(6) 0.5622(2)
C7 C 0.3202(4) 0.2123(5) 0.5516(2)
H4 H 0.3122 0.2063 0.5195
C8 C 0.1380(4) 0.3861(5) 0.5317(2)
H5 H 0.1671 0.4382 0.5568
H6 H 0.1026 0.3413 0.5419
C9 C 0.2855(4) 0.0299(5) 0.4136(2)
C10 C 0.2248(4) 0.0438(6) 0.4373(2)
C11 C 0.2328(5) -0.0197(6) 0.4753(3)
H7 H 0.2776 -0.0695 0.4874
C12 C 0.1731(5) -0.0085(6) 0.4953(3)
H8 H 0.1764 -0.0530 0.5201
C13 C 0.1092(5) 0.0679(6) 0.4785(3)
H9 H 0.0685 0.0736 0.4916
C14 C 0.1048(4) 0.1354(6) 0.4429(2)
C15 C 0.1621(4) 0.1200(5) 0.4220(2)
H10 H 0.1576 0.1633 0.3966
C16 C 0.0078(5) 0.2624(6) 0.4529(3)
H11 H 0.0396 0.2425 0.4870
H12 H -0.0537 0.2407 0.4408
C17 C -0.3213(7) 0.1304(10) 0.2274(4)
C18 C -0.3178(6) 0.1712(13) 0.2746(4)
C19 C -0.3753(7) 0.1226(11) 0.2947(4)
H13 H -0.4171 0.0722 0.2771
C20 C -0.3640(8) 0.1566(11) 0.3427(5)
H14 H -0.3995 0.1285 0.3561
C21 C -0.3006(7) 0.2307(12) 0.3682(5)
H15 H -0.2910 0.2498 0.3996
C22 C -0.2476(6) 0.2798(11) 0.3452(4)
C23 C -0.2537(5) 0.2443(9) 0.3002(3)
H16 H -0.2154 0.2695 0.2880
C24 C -0.1102(4) 0.3620(7) 0.3635(3)
H17 H -0.1278 0.3950 0.3319
H18 H -0.0858 0.2938 0.3625
C25 C -0.2634(6) 0.8664(7) 0.2071(3)
C26 C -0.2756(5) 0.7697(7) 0.2316(3)
C27 C -0.3550(6) 0.7154(8) 0.2106(4)
H19 H -0.4003 0.7405 0.1818
C28 C -0.3693(8) 0.6275(9) 0.2303(4)
H20 H -0.4242 0.5942 0.2161
C29 C -0.3012(8) 0.5878(8) 0.2719(4)
H21 H -0.3082 0.5246 0.2848
C30 C -0.2226(7) 0.6426(9) 0.2943(3)
C31 C -0.2075(6) 0.7323(8) 0.2748(3)
H22 H -0.1534 0.7672 0.2899
C32 C -0.0861(5) 0.5774(8) 0.3419(3)
H23 H -0.0566 0.6376 0.3364
H24 H -0.0947 0.5258 0.3170
C33 C -0.0043(5) 1.0216(6) 0.3120(2)
C34 C -0.0409(4) 0.9763(6) 0.3448(2)
C35 C -0.1180(5) 1.0139(6) 0.3439(3)
H25 H -0.1485 1.0683 0.3231
C36 C -0.1503(6) 0.9691(7) 0.3747(3)
H26 H -0.2012 0.9961 0.3755
C37 C -0.1085(6) 0.8874(6) 0.4031(3)
H27 H -0.1311 0.8580 0.4233
C38 C -0.0340(5) 0.8475(6) 0.4028(3)
C39 C 0.0012(4) 0.8936(5) 0.3746(2)
H28 H 0.0541 0.8686 0.3756
C40 C 0.0577(5) 0.6959(6) 0.4210(3)
H29 H 0.1195 0.7132 0.4415
H30 H 0.0464 0.7040 0.3871
C41 C 0.4982(6) 0.8064(7) 0.5646(4)
C42 C 0.4502(5) 0.7132(6) 0.5699(3)
C43 C 0.4917(6) 0.6491(8) 0.6086(4)
H31 H 0.5488 0.6654 0.6320
C44 C 0.4506(8) 0.5592(11) 0.6141(5)
H32 H 0.4800 0.5156 0.6408
C45 C 0.3690(9) 0.5358(9) 0.5808(5)
H33 H 0.3411 0.4766 0.5850
C46 C 0.3252(6) 0.5969(8) 0.5406(4)
C47 C 0.3645(5) 0.6864(7) 0.5346(3)
H34 H 0.3348 0.7286 0.5074
C48 C 0.1696(5) 0.6026(6) 0.5117(3)
H35 H 0.1587 0.6769 0.5063
H36 H 0.1795 0.5859 0.5447
C49 C 0.0802(4) 0.4377(6) 0.4837(2)
C50 C 0.0136(4) 0.3777(6) 0.4471(3)
C51 C -0.0415(4) 0.4268(7) 0.4025(3)
C52 C -0.0276(5) 0.5300(7) 0.3949(3)
C53 C 0.0405(5) 0.5863(6) 0.4300(3)
C54 C 0.0928(4) 0.5399(6) 0.4745(2)
O1 O 0.4465(3) 0.0991(4) 0.53522(18)
O2 O 0.4898(3) 0.0215(5) 0.6069(2)
O3 O -0.1106(5) 1.2249(6) 0.1975(3)
O4 O 0.2013(3) 0.3270(4) 0.52373(16)
O5 O 0.3593(3) -0.0120(4) 0.43483(16)
O6 O 0.2596(3) 0.0676(4) 0.37077(15)
O7 O 0.0478(3) 0.2158(4) 0.42473(18)
O8 O -0.2546(4) 0.1435(5) 0.2210(2)
O9 O -0.3892(5) 0.0839(8) 0.1999(3)
O10 O -0.1846(3) 0.3510(6) 0.3731(2)
O11 O -0.1926(4) 0.9169(4) 0.22673(19)
O12 O -0.3277(4) 0.8902(5) 0.1675(2)
O13 O -0.1580(5) 0.6031(6) 0.3402(2)
O14 O 0.0691(3) 0.9912(4) 0.31633(17)
O15 O -0.0514(3) 1.0910(4) 0.28233(17)
O16 O 0.0024(4) 0.7632(4) 0.43149(19)
O17 O 0.5729(3) 0.8238(5) 0.5992(3)
O18 O 0.2408(4) 0.5724(5) 0.5035(2)
O19 O 0.4585(4) 0.8580(5) 0.5245(2)
H37 H 0.477(6) 0.893(6) 0.505(3)
Mn2A Mn -0.61678(6) -0.03509(9) -0.13630(4)
Mn3A Mn 0.15536(6) 1.06531(10) 0.29129(4)
C1A C -0.4448(4) 0.0892(6) -0.0758(3)
C2A C -0.3873(4) 0.1572(6) -0.0881(2)
C3A C -0.3992(5) 0.1655(6) -0.1355(2)
H1A H -0.4436 0.1274 -0.1602
C4A C -0.3446(5) 0.2309(7) -0.1463(3)
H2A H -0.3530 0.2366 -0.1785
C5A C -0.2788(5) 0.2871(7) -0.1109(3)
H3A H -0.2433 0.3321 -0.1186
C6A C -0.2657(4) 0.2754(6) -0.0622(2)
C7A C -0.3202(4) 0.2123(5) -0.0516(2)
H4A H -0.3122 0.2063 -0.0195
C8A C -0.1380(4) 0.3861(5) -0.0317(2)
H5A H -0.1671 0.4382 -0.0568
H6A H -0.1026 0.3413 -0.0419
C9A C -0.2855(4) 0.0299(5) 0.0864(2)
C10A C -0.2248(4) 0.0438(6) 0.0627(2)
C11A C -0.2328(5) -0.0197(6) 0.0247(3)
H7A H -0.2776 -0.0695 0.0126
C12A C -0.1731(5) -0.0085(6) 0.0047(3)
H8A H -0.1764 -0.0530 -0.0201
C13A C -0.1092(5) 0.0679(6) 0.0215(3)
H9A H -0.0685 0.0736 0.0084
C14A C -0.1048(4) 0.1354(6) 0.0571(2)
C15A C -0.1621(4) 0.1200(5) 0.0780(2)
H10A H -0.1576 0.1633 0.1034
C16A C -0.0078(5) 0.2624(6) 0.0471(3)
H11A H -0.0396 0.2425 0.0130
H12A H 0.0537 0.2407 0.0592
C17A C 0.3213(7) 0.1304(10) 0.2726(4)
C18A C 0.3178(6) 0.1712(13) 0.2254(4)
C19A C 0.3753(7) 0.1226(11) 0.2053(4)
H13A H 0.4171 0.0722 0.2229
C20A C 0.3640(8) 0.1566(11) 0.1573(5)
H14A H 0.3995 0.1285 0.1439
C21A C 0.3006(7) 0.2307(12) 0.1318(5)
H15A H 0.2910 0.2498 0.1004
C22A C 0.2476(6) 0.2798(11) 0.1548(4)
C23A C 0.2537(5) 0.2443(9) 0.1998(3)
H16A H 0.2154 0.2695 0.2120
C24A C 0.1102(4) 0.3620(7) 0.1365(3)
H17A H 0.1278 0.3950 0.1681
H18A H 0.0858 0.2938 0.1375
C25A C 0.2634(6) 0.8664(7) 0.2929(3)
C26A C 0.2756(5) 0.7697(7) 0.2684(3)
C27A C 0.3550(6) 0.7154(8) 0.2894(4)
H19A H 0.4003 0.7405 0.3182
C28A C 0.3693(8) 0.6275(9) 0.2697(4)
H20A H 0.4242 0.5942 0.2839
C29A C 0.3012(8) 0.5878(8) 0.2281(4)
H21A H 0.3082 0.5246 0.2152
C30A C 0.2226(7) 0.6426(9) 0.2057(3)
C31A C 0.2075(6) 0.7323(8) 0.2252(3)
H22A H 0.1534 0.7672 0.2101
C32A C 0.0861(5) 0.5774(8) 0.1581(3)
H23A H 0.0566 0.6376 0.1636
H24A H 0.0947 0.5258 0.1830
C33A C 0.0043(5) 1.0216(6) 0.1880(2)
C34A C 0.0409(4) 0.9763(6) 0.1552(2)
C35A C 0.1180(5) 1.0139(6) 0.1561(3)
H25A H 0.1485 1.0683 0.1769
C36A C 0.1503(6) 0.9691(7) 0.1253(3)
H26A H 0.2012 0.9961 0.1245
C37A C 0.1085(6) 0.8874(6) 0.0969(3)
H27A H 0.1311 0.8580 0.0767
C38A C 0.0340(5) 0.8475(6) 0.0972(3)
C39A C -0.0012(4) 0.8936(5) 0.1254(2)
H28A H -0.0541 0.8686 0.1244
C40A C -0.0577(5) 0.6959(6) 0.0790(3)
H29A H -0.1195 0.7132 0.0585
H30A H -0.0464 0.7040 0.1129
C41A C -0.4982(6) 0.8064(7) -0.0646(4)
C42A C -0.4502(5) 0.7132(6) -0.0699(3)
C43A C -0.4917(6) 0.6491(8) -0.1086(4)
H31A H -0.5488 0.6654 -0.1320
C44A C -0.4506(8) 0.5592(11) -0.1141(5)
H32A H -0.4800 0.5156 -0.1408
C45A C -0.3690(9) 0.5358(9) -0.0808(5)
H33A H -0.3411 0.4766 -0.0850
C46A C -0.3252(6) 0.5969(8) -0.0406(4)
C47A C -0.3645(5) 0.6864(7) -0.0346(3)
H34A H -0.3348 0.7286 -0.0074
C48A C -0.1696(5) 0.6026(6) -0.0117(3)
H35A H -0.1587 0.6769 -0.0063
H36A H -0.1795 0.5859 -0.0447
C49A C -0.0802(4) 0.4377(6) 0.0163(2)
C50A C -0.0136(4) 0.3777(6) 0.0529(3)
C51A C 0.0415(4) 0.4268(7) 0.0975(3)
C52A C 0.0276(5) 0.5300(7) 0.1051(3)
C53A C -0.0405(5) 0.5863(6) 0.0700(3)
C54A C -0.0928(4) 0.5399(6) 0.0255(2)
O1A O -0.4465(3) 0.0991(4) -0.03522(18)
O2A O -0.4898(3) 0.0215(5) -0.1069(2)
O3A O 0.1106(5) 1.2249(6) 0.3025(3)
O4A O -0.2013(3) 0.3270(4) -0.02373(16)
O5A O -0.3593(3) -0.0120(4) 0.06517(16)
O6A O -0.2596(3) 0.0676(4) 0.12923(15)
O7A O -0.0478(3) 0.2158(4) 0.07527(18)
O8A O 0.2546(4) 0.1435(5) 0.2790(2)
O9A O 0.3892(5) 0.0839(8) 0.3001(3)
O10A O 0.1846(3) 0.3510(6) 0.1269(2)
O11A O 0.1926(4) 0.9169(4) 0.27327(19)
O12A O 0.3277(4) 0.8902(5) 0.3325(2)
O13A O 0.1580(5) 0.6031(6) 0.1598(2)
O14A O -0.0691(3) 0.9912(4) 0.18367(17)
O15A O 0.0514(3) 1.0910(4) 0.21767(17)
O16A O -0.0024(4) 0.7632(4) 0.06851(19)
O17A O -0.5729(3) 0.8238(5) -0.0992(3)
O18A O -0.2408(4) 0.5724(5) -0.0035(2)
O19A O -0.4585(4) 0.8580(5) -0.0245(2)
H37A H -0.477(6) 0.893(6) -0.005(3)
Mn1_2 Mn 0.5000 1.0000 0.5000
Mn1A Mn -0.5000 0.0000 0.0000
Mn1A_2 Mn -0.5000 1.0000 0.0000
Mn2_2 Mn 0.61678(6) 0.96491(9) 0.63630(4)
Mn2A_2 Mn -0.61678(6) 0.96491(9) -0.13630(4)
Mn2B Mn 0.38322(6) 0.03509(9) 0.36370(4)
Mn2B_2 Mn 0.38322(6) 1.03509(9) 0.36370(4)
Mn2C Mn -0.38322(6) 0.03509(9) 0.13630(4)
Mn2C_2 Mn -0.38322(6) 1.03509(9) 0.13630(4)
Mn3_2 Mn -0.15536(6) 0.06531(10) 0.20871(4)
Mn3A_2 Mn 0.15536(6) 0.06531(10) 0.29129(4)
O1B O 0.5535(3) -0.0991(4) 0.46478(18)
O5B O 0.6407(3) 0.0120(4) 0.56517(16)
O5C O -0.6407(3) 0.0120(4) -0.06517(16)
O6_2 O 0.2596(3) 1.0676(4) 0.37077(15)
O6A_2 O -0.2596(3) 1.0676(4) 0.12923(15)
O6B O 0.7404(3) -0.0676(4) 0.62923(15)
O6C O -0.7404(3) -0.0676(4) -0.12923(15)
O8_2 O -0.2546(4) 1.1435(5) 0.2210(2)
O8A_2 O 0.2546(4) 1.1435(5) 0.2790(2)
O9B O -0.6108(5) -0.0839(8) -0.1999(3)
O9C O 0.6108(5) -0.0839(8) 0.6999(3)
O12B O -0.6723(4) 0.1098(5) -0.1675(2)
O12C O 0.6723(4) 0.1098(5) 0.6675(2)
O17_2 O 0.5729(3) -0.1762(5) 0.5992(3)
O17A_2 O -0.5729(3) -0.1762(5) -0.0992(3)
O19_2 O 0.4585(4) -0.1420(5) 0.5245(2)
O19B O 0.5415(4) 0.1420(5) 0.4755(2)
loop_
_geom_bond_atom_site_label_1
_geom_bond_atom_site_label_2
_geom_bond_site_symmetry_1
_geom_bond_site_symmetry_2
Mn1 O1 1_555 1_555
Mn2 O2 1_555 1_555
Mn3 O3 1_555 1_555
C1 C2 1_555 1_555
C2 C3 1_555 1_555
C3 H1 1_555 1_555
C4 C3 1_555 1_555
H2 C4 1_555 1_555
C5 C4 1_555 1_555
H3 C5 1_555 1_555
C6 C5 1_555 1_555
C7 C2 1_555 1_555
H4 C7 1_555 1_555
C8 H5 1_555 1_555
H6 C8 1_555 1_555
C9 C10 1_555 1_555
C10 C11 1_555 1_555
C11 H7 1_555 1_555
C12 C11 1_555 1_555
H8 C12 1_555 1_555
C13 C12 1_555 1_555
H9 C13 1_555 1_555
C14 C13 1_555 1_555
C15 C10 1_555 1_555
H10 C15 1_555 1_555
C16 H11 1_555 1_555
H12 C16 1_555 1_555
C17 C18 1_555 1_555
C18 C19 1_555 1_555
C19 H13 1_555 1_555
C20 C19 1_555 1_555
H14 C20 1_555 1_555
C21 C20 1_555 1_555
H15 C21 1_555 1_555
C22 C21 1_555 1_555
C23 C18 1_555 1_555
H16 C23 1_555 1_555
C24 H17 1_555 1_555
H18 C24 1_555 1_555
C25 C26 1_555 1_555
C26 C27 1_555 1_555
C27 H19 1_555 1_555
C28 C27 1_555 1_555
H20 C28 1_555 1_555
C29 C28 1_555 1_555
H21 C29 1_555 1_555
C30 C29 1_555 1_555
C31 C26 1_555 1_555
H22 C31 1_555 1_555
C32 H23 1_555 1_555
H24 C32 1_555 1_555
C33 C34 1_555 1_555
C34 C35 1_555 1_555
C35 H25 1_555 1_555
C36 C35 1_555 1_555
H26 C36 1_555 1_555
C37 C36 1_555 1_555
H27 C37 1_555 1_555
C38 C37 1_555 1_555
C39 C34 1_555 1_555
H28 C39 1_555 1_555
C40 H29 1_555 1_555
H30 C40 1_555 1_555
C41 C42 1_555 1_555
C42 C43 1_555 1_555
C43 H31 1_555 1_555
C44 C43 1_555 1_555
H32 C44 1_555 1_555
C45 C44 1_555 1_555
H33 C45 1_555 1_555
C46 C45 1_555 1_555
C47 C42 1_555 1_555
H34 C47 1_555 1_555
C48 H35 1_555 1_555
H36 C48 1_555 1_555
C49 C8 1_555 1_555
C50 C16 1_555 1_555
C51 C24 1_555 1_555
C52 C32 1_555 1_555
C53 C40 1_555 1_555
C54 C48 1_555 1_555
O1 C1 1_555 1_555
O2 C1 1_555 1_555
O4 C6 1_555 1_555
O5 Mn1 1_555 1_555
O6 C9 1_555 1_555
O7 C14 1_555 1_555
O8 C17 1_555 1_555
O9 C17 1_555 1_555
O10 C22 1_555 1_555
O11 Mn3 1_555 1_555
O12 C25 1_555 1_555
O13 C30 1_555 1_555
O14 C33 1_555 1_555
O15 Mn3 1_555 1_555
O16 C38 1_555 1_555
O17 C41 1_555 1_555
O18 C46 1_555 1_555
O19 C41 1_555 1_555
H37 O19 1_555 1_555
Mn2A O2A 1_555 1_555
Mn3A O14 1_555 1_555
C1A C2A 1_555 1_555
C2A C3A 1_555 1_555
C3A H1A 1_555 1_555
C4A C3A 1_555 1_555
H2A C4A 1_555 1_555
C5A C4A 1_555 1_555
H3A C5A 1_555 1_555
C6A C5A 1_555 1_555
C7A C2A 1_555 1_555
H4A C7A 1_555 1_555
C8A H5A 1_555 1_555
H6A C8A 1_555 1_555
C9A C10A 1_555 1_555
C10A C11A 1_555 1_555
C11A H7A 1_555 1_555
C12A C11A 1_555 1_555
H8A C12A 1_555 1_555
C13A C12A 1_555 1_555
H9A C13A 1_555 1_555
C14A C13A 1_555 1_555
C15A C10A 1_555 1_555
H10A C15A 1_555 1_555
C16A H11A 1_555 1_555
H12A C16A 1_555 1_555
C17A C18A 1_555 1_555
C18A C19A 1_555 1_555
C19A H13A 1_555 1_555
C20A C19A 1_555 1_555
H14A C20A 1_555 1_555
C21A C20A 1_555 1_555
H15A C21A 1_555 1_555
C22A C21A 1_555 1_555
C23A C18A 1_555 1_555
H16A C23A 1_555 1_555
C24A H17A 1_555 1_555
H18A C24A 1_555 1_555
C25A C26A 1_555 1_555
C26A C27A 1_555 1_555
C27A H19A 1_555 1_555
C28A C27A 1_555 1_555
H20A C28A 1_555 1_555
C29A C28A 1_555 1_555
H21A C29A 1_555 1_555
C30A C29A 1_555 1_555
C31A C26A 1_555 1_555
H22A C31A 1_555 1_555
C32A H23A 1_555 1_555
H24A C32A 1_555 1_555
C33A C34A 1_555 1_555
C34A C35A 1_555 1_555
C35A H25A 1_555 1_555
C36A C35A 1_555 1_555
H26A C36A 1_555 1_555
C37A C36A 1_555 1_555
H27A C37A 1_555 1_555
C38A C37A 1_555 1_555
C39A C34A 1_555 1_555
H28A C39A 1_555 1_555
C40A H29A 1_555 1_555
H30A C40A 1_555 1_555
C41A C42A 1_555 1_555
C42A C43A 1_555 1_555
C43A H31A 1_555 1_555
C44A C43A 1_555 1_555
H32A C44A 1_555 1_555
C45A C44A 1_555 1_555
H33A C45A 1_555 1_555
C46A C45A 1_555 1_555
C47A C42A 1_555 1_555
H34A C47A 1_555 1_555
C48A H35A 1_555 1_555
H36A C48A 1_555 1_555
C49A C8A 1_555 1_555
C50A C16A 1_555 1_555
C51A C24A 1_555 1_555
C52A C32A 1_555 1_555
C53A C40A 1_555 1_555
C54A C48A 1_555 1_555
O1A C1A 1_555 1_555
O2A C1A 1_555 1_555
O3A Mn3A 1_555 1_555
O4A C6A 1_555 1_555
O5A C9A 1_555 1_555
O6A C9A 1_555 1_555
O7A C14A 1_555 1_555
O8A C17A 1_555 1_555
O9A C17A 1_555 1_555
O10A C22A 1_555 1_555
O11A Mn3A 1_555 1_555
O12A C25A 1_555 1_555
O13A C30A 1_555 1_555
O14A Mn3 1_555 1_555
O15A Mn3A 1_555 1_555
O16A C38A 1_555 1_555
O17A C41A 1_555 1_555
O18A C46A 1_555 1_555
O19A C41A 1_555 1_555
H37A O19A 1_555 1_555
Mn1_2 O19 1_555 1_555
Mn1A O1A 1_555 1_555
Mn1A_2 O19A 1_555 1_555
Mn2_2 O17 1_555 1_555
Mn2A_2 O17A 1_555 1_555
Mn2B O5 1_555 1_555
Mn2B_2 O12A 1_555 1_555
Mn2C O9 1_555 1_555
Mn2C_2 O12 1_555 1_555
Mn3_2 O8 1_555 1_555
Mn3A_2 O6 1_555 1_555
O1B Mn1 1_555 1_555
O5B Mn1 1_555 1_555
O5C Mn2A 1_555 1_555
O6_2 Mn3A 1_555 1_555
O6A_2 Mn3 1_555 1_555
O6B Mn2 1_555 1_555
O6C Mn2A 1_555 1_555
O8_2 Mn3 1_555 1_555
O8A_2 Mn3A 1_555 1_555
O9B Mn2A 1_555 1_555
O9C Mn2 1_555 1_555
O12B Mn2A 1_555 1_555
O12C Mn2 1_555 1_555
O17_2 Mn2 1_555 1_555
O17A_2 Mn2A 1_555 1_555
O19_2 Mn1 1_555 1_555
O19B Mn1 1_555 1_555
Mn2 O5B 1_555 1_555
C6 C7 1_555 1_555
C8 O4 1_555 1_555
C9 O5 1_555 1_555
C14 C15 1_555 1_555
C16 O7 1_555 1_555
C22 C23 1_555 1_555
C24 O10 1_555 1_555
C25 O11 1_555 1_555
C30 C31 1_555 1_555
C32 O13 1_555 1_555
C33 O15 1_555 1_555
C38 C39 1_555 1_555
C40 O16 1_555 1_555
C46 C47 1_555 1_555
C48 O18 1_555 1_555
C49 C50 1_555 1_555
C49 C54 1_555 1_555
C50 C51 1_555 1_555
C51 C52 1_555 1_555
C52 C53 1_555 1_555
C53 C54 1_555 1_555
O6 Mn2B 1_555 1_555
C6A C7A 1_555 1_555
C8A O4A 1_555 1_555
C14A C15A 1_555 1_555
C16A O7A 1_555 1_555
C22A C23A 1_555 1_555
C24A O10A 1_555 1_555
C25A O11A 1_555 1_555
C30A C31A 1_555 1_555
C32A O13A 1_555 1_555
C33A O14A 1_555 1_555
C33A O15A 1_555 1_555
C38A C39A 1_555 1_555
C40A O16A 1_555 1_555
C46A C47A 1_555 1_555
C48A O18A 1_555 1_555
C49A C50A 1_555 1_555
C49A C54A 1_555 1_555
C50A C51A 1_555 1_555
C51A C52A 1_555 1_555
C52A C53A 1_555 1_555
C53A C54A 1_555 1_555
O5A Mn1A 1_555 1_555
O5A Mn2C 1_555 1_555
O6A Mn2C 1_555 1_555
O6A Mn3_2 1_555 1_555
O8A Mn3A_2 1_555 1_555
O9A Mn2B 1_555 1_555
Mn1A O5C 1_555 1_555
Mn2B_2 O6_2 1_555 1_555
Mn2C_2 O6A_2 1_555 1_555

#END
