
#######################################################################
#
#                 Cambridge Crystallographic Data Centre
#                                CCDC 
#
#######################################################################
#
# If this CIF has been generated from an entry in the Cambridge 
# Structural Database, then it will include bibliographic, chemical, 
# crystal, experimental, refinement or atomic coordinate data resulting 
# from the CCDC's data processing and validation procedures.
#
#######################################################################

data_FUFVEJ
_symmetry_cell_setting           monoclinic
_symmetry_space_group_name_H-M   'C 2/c'
_symmetry_Int_Tables_number      15
_space_group_name_Hall           '-C 2yn'
loop_
_symmetry_equiv_pos_site_id
_symmetry_equiv_pos_as_xyz
1 x,y,z
2 -x,y,1/2-z
3 1/2+x,1/2+y,z
4 1/2-x,1/2+y,1/2-z
5 -x,-y,-z
6 x,-y,1/2+z
7 1/2-x,1/2-y,-z
8 1/2+x,1/2-y,1/2+z
_cell_length_a                   32.9860(17)
_cell_length_b                   17.3230(15)
_cell_length_c                   28.3820(17)
_cell_angle_alpha                90
_cell_angle_beta                 148.758(14)
_cell_angle_gamma                90
_cell_volume                     8411.5
loop_
_atom_site_label
_atom_site_type_symbol
_atom_site_fract_x
_atom_site_fract_y
_atom_site_fract_z
Cu1 Cu 0.24802(12) 1.00024(12) 0.37389(16)
N1 N 0.1579(5) 0.9991(7) 0.2373(6)
C1 C 0.0916(7) 1.0423(7) 0.1817(9)
H1 H 0.0894 1.0713 0.2070
C2 C 0.0285(6) 1.0421(7) 0.0881(8)
H2 H -0.0158 1.0710 0.0509
C3 C 0.0318(6) 0.9987(8) 0.0502(6)
C4 C 0.0981(7) 0.9554(7) 0.1059(8)
H3 H 0.1002 0.9264 0.0805
C5 C 0.1611(6) 0.9556(7) 0.1994(8)
H4 H 0.2055 0.9267 0.2366
C6 C 0.3786(9) 0.9366(8) 0.4478(12)
H5 H 0.3584 0.8900 0.4387
C7 C 0.4400(8) 0.9337(8) 0.4791(10)
H6 H 0.4639 0.8866 0.4965
C8 C 0.4668(7) 0.9982(8) 0.4850(9)
C9 C 0.4306(9) 1.0677(8) 0.4638(11)
H7 H 0.4464 1.1149 0.4670
C10 C 0.3739(9) 1.0642(8) 0.4392(10)
H8 H 0.3524 1.1107 0.4279
N2 N 0.2460(9) 1.0965(5) 0.4145(10)
C11 C 0.3176(6) 1.1243(6) 0.5014(9)
H9 H 0.3638 1.1033 0.5357
C12 C 0.3201(5) 1.1834(7) 0.5370(7)
H10 H 0.3680 1.2019 0.5952
C13 C 0.2510(7) 1.2147(5) 0.4857(9)
C14 C 0.1794(6) 1.1869(7) 0.3987(8)
H11 H 0.1332 1.2079 0.3644
C15 C 0.1769(6) 1.1278(7) 0.3631(7)
H12 H 0.1290 1.1093 0.3050
N3 N 0.2480(7) 0.9073(5) 0.4183(9)
C16 C 0.2891(6) 0.9120(6) 0.5013(9)
H13 H 0.3165 0.9568 0.5360
C17 C 0.2893(7) 0.8499(8) 0.5325(7)
H14 H 0.3168 0.8531 0.5880
C18 C 0.2483(7) 0.7831(6) 0.4807(10)
C19 C 0.2072(7) 0.7783(5) 0.3977(9)
H15 H 0.1798 0.7336 0.3630
C20 C 0.2070(7) 0.8404(7) 0.3665(8)
H16 H 0.1795 0.8372 0.3110
N4 N 0.3454(6) 1.0002(7) 0.4295(8)
N1D N -0.1579(5) 1.0009(7) -0.2373(6)
C1D C -0.0916(7) 0.9577(7) -0.1817(9)
H1D H -0.0894 0.9287 -0.2070
C2D C -0.0285(6) 0.9579(7) -0.0881(8)
H2D H 0.0158 0.9290 -0.0509
C3D C -0.0318(6) 1.0013(8) -0.0502(6)
C4D C -0.0981(7) 1.0446(7) -0.1059(8)
H3D H -0.1002 1.0736 -0.0805
C5D C -0.1611(6) 1.0444(7) -0.1994(8)
H4D H -0.2055 1.0733 -0.2366
C6D C 0.6214(9) 1.0634(8) 0.5522(12)
H5D H 0.6416 1.1100 0.5613
C7D C 0.5600(8) 1.0663(8) 0.5209(10)
H6D H 0.5361 1.1134 0.5035
C8D C 0.5332(7) 1.0018(8) 0.5150(9)
C9D C 0.5694(9) 0.9323(8) 0.5362(11)
H7D H 0.5536 0.8851 0.5330
C10D C 0.6261(9) 0.9358(8) 0.5608(10)
H8D H 0.6476 0.8893 0.5721
N4D N 0.6546(6) 0.9998(7) 0.5705(8)
N2F N 0.2540(9) 1.4035(5) 0.5855(10)
C11F C 0.1824(6) 1.3757(6) 0.4986(9)
H9F H 0.1362 1.3967 0.4643
C12F C 0.1799(5) 1.3166(7) 0.4630(7)
H10F H 0.1320 1.2981 0.4048
C13F C 0.2490(7) 1.2853(5) 0.5143(9)
C14F C 0.3206(6) 1.3131(7) 0.6013(8)
H11F H 0.3668 1.2921 0.6356
C15F C 0.3231(6) 1.3722(7) 0.6369(7)
H12F H 0.3710 1.3907 0.6950
N3F N 0.2520(7) 0.5927(5) 0.5817(9)
C16F C 0.2109(6) 0.5880(6) 0.4987(9)
H13F H 0.1835 0.5432 0.4640
C17F C 0.2107(7) 0.6501(8) 0.4675(7)
H14F H 0.1832 0.6469 0.4120
C18F C 0.2517(7) 0.7169(6) 0.5193(10)
C19F C 0.2928(7) 0.7217(5) 0.6023(9)
H15F H 0.3202 0.7664 0.6370
C20F C 0.2930(7) 0.6596(7) 0.6335(8)
H16F H 0.3205 0.6628 0.6890
Cu1D Cu -0.24802(12) 0.99976(12) -0.37389(16)
Cu1D_2 Cu 0.75198(12) 0.99976(12) 0.62611(16)
Cu1F Cu 0.25198(12) 0.49976(12) 0.62611(16)
Cu1F_2 Cu 0.25198(12) 1.49976(12) 0.62611(16)
N2D N -0.2460(9) 0.9035(5) -0.4145(10)
N3D N -0.2480(7) 1.0927(5) -0.4183(9)
N4D_2 N -0.3454(6) 0.9998(7) -0.4295(8)
C21 C 0.0099(9) 0.8747(8) 0.2834(10)
C22 C 0.0159(11) 0.8043(12) 0.3187(13)
C23 C 0.0040(8) 0.7325(7) 0.2777(9)
C24 C 0.0173(11) 0.9520(9) 0.3164(12)
H17 H -0.0166 0.9909 0.2691
H18 H 0.0065 0.9471 0.3391
C25 C 0.0029(10) 0.8066(8) 0.3598(13)
H19 H -0.0191 0.8551 0.3487
H20 H -0.0279 0.7636 0.3407
C26 C 0.0047(11) 0.6609(7) 0.3088(12)
H21 H 0.0143 0.6155 0.2993
H22 H 0.0455 0.6645 0.3730
C27 C 0.1293(14) 1.0305(11) 0.4413(17)
C28 C 0.2130(17) 1.0376(14) 0.5214(19)
H23 H 0.2428 1.0011 0.5351
C29 C 0.2473(12) 1.1001(18) 0.5768(15)
H24 H 0.3006 1.1078 0.6257
C30 C 0.2042(14) 1.1547(11) 0.5627(15)
H25 H 0.2292 1.1950 0.6031
C31 C 0.1215(12) 1.1438(9) 0.4840(14)
C32 C 0.0854(9) 1.0846(8) 0.4247(12)
H26 H 0.0314 1.0796 0.3727
C33 C 0.0793(13) 1.2019(9) 0.4679(16)
C34 C 0.0789(13) 0.7899(11) 0.4968(16)
C35 C 0.0159(11) 0.7867(9) 0.4647(13)
H27 H -0.0354 0.7916 0.4033
C36 C 0.0357(15) 0.7750(11) 0.5354(17)
H28 H -0.0036 0.7746 0.5190
C37 C 0.1130(15) 0.7649(12) 0.6253(18)
H29 H 0.1255 0.7551 0.6691
C38 C 0.1706(13) 0.7691(10) 0.6498(14)
C39 C 0.1511(11) 0.7800(9) 0.5808(14)
H30 H 0.1903 0.7799 0.5971
C40 C 0.2561(17) 0.7560(12) 0.750(2)
C41 C -0.0829(10) 0.5910(11) 0.2717(12)
C42 C -0.1349(11) 0.6056(12) 0.2572(13)
H31 H -0.1542 0.6550 0.2435
C43 C -0.1562(11) 0.5451(11) 0.2637(13)
H32 H -0.1911 0.5527 0.2537
C44 C -0.1273(9) 0.4749(10) 0.2842(11)
H33 H -0.1441 0.4333 0.2857
C45 C -0.0720(8) 0.4634(8) 0.3036(10)
C46 C -0.0497(9) 0.5227(8) 0.2979(11)
H34 H -0.0121 0.5158 0.3119
C47 C -0.0429(8) 0.3842(9) 0.3216(9)
O1 O 0.0975(10) 0.9682(7) 0.3873(11)
O2 O 0.1057(6) 1.2441(6) 0.5245(7)
O3 O 0.0761(9) 0.8000(7) 0.4418(9)
O4 O 0.2593(7) 0.7538(7) 0.7976(8)
O5 O 0.3070(9) 0.7506(8) 0.7731(11)
O6 O -0.0674(9) 0.6559(8) 0.2584(10)
O7 O -0.0581(6) 0.3304(6) 0.3366(8)
O8 O -0.0038(6) 0.3733(5) 0.3260(8)
O9 O 0.0084(8) 1.2056(6) 0.3854(10)
H35 H -0.046(10) 1.212(10) 0.340(12)
C21A C -0.0099(9) 0.8747(8) 0.2166(10)
C22A C -0.0159(11) 0.8043(12) 0.1813(13)
C23A C -0.0040(8) 0.7325(7) 0.2223(9)
C24A C -0.0173(11) 0.9520(9) 0.1836(12)
H17A H 0.0166 0.9909 0.2309
H18A H -0.0065 0.9471 0.1609
C25A C -0.0029(10) 0.8066(8) 0.1402(13)
H19A H 0.0191 0.8551 0.1513
H20A H 0.0279 0.7636 0.1593
C26A C -0.0047(11) 0.6609(7) 0.1912(12)
H21A H -0.0143 0.6155 0.2007
H22A H -0.0455 0.6645 0.1270
C27A C -0.1293(14) 1.0305(11) 0.0587(17)
C28A C -0.2130(17) 1.0376(14) -0.0214(19)
H23A H -0.2428 1.0011 -0.0351
C29A C -0.2473(12) 1.1001(18) -0.0768(15)
H24A H -0.3006 1.1078 -0.1257
C30A C -0.2042(14) 1.1547(11) -0.0627(15)
H25A H -0.2292 1.1950 -0.1031
C31A C -0.1215(12) 1.1438(9) 0.0160(14)
C32A C -0.0854(9) 1.0846(8) 0.0753(12)
H26A H -0.0314 1.0796 0.1273
C33A C -0.0793(13) 1.2019(9) 0.0321(16)
C34A C -0.0789(13) 0.7899(11) 0.0032(16)
C35A C -0.0159(11) 0.7867(9) 0.0353(13)
H27A H 0.0354 0.7916 0.0967
C36A C -0.0357(15) 0.7750(11) -0.0354(17)
H28A H 0.0036 0.7746 -0.0190
C37A C -0.1130(15) 0.7649(12) -0.1253(18)
H29A H -0.1255 0.7551 -0.1691
C38A C -0.1706(13) 0.7691(10) -0.1498(14)
C39A C -0.1511(11) 0.7800(9) -0.0808(14)
H30A H -0.1903 0.7799 -0.0971
C40A C -0.2561(17) 0.7560(12) -0.250(2)
C41A C 0.0829(10) 0.5910(11) 0.2283(12)
C42A C 0.1349(11) 0.6056(12) 0.2428(13)
H31A H 0.1542 0.6550 0.2565
C43A C 0.1562(11) 0.5451(11) 0.2363(13)
H32A H 0.1911 0.5527 0.2463
C44A C 0.1273(9) 0.4749(10) 0.2158(11)
H33A H 0.1441 0.4333 0.2143
C45A C 0.0720(8) 0.4634(8) 0.1964(10)
C46A C 0.0497(9) 0.5227(8) 0.2021(11)
H34A H 0.0121 0.5158 0.1881
C47A C 0.0429(8) 0.3842(9) 0.1784(9)
O1A O -0.0975(10) 0.9682(7) 0.1127(11)
O2A O -0.1057(6) 1.2441(6) -0.0245(7)
O3A O -0.0761(9) 0.8000(7) 0.0582(9)
O4A O -0.2593(7) 0.7538(7) -0.2976(8)
O5A O -0.3070(9) 0.7506(8) -0.2731(11)
O6A O 0.0674(9) 0.6559(8) 0.2416(10)
O7A O 0.0581(6) 0.3304(6) 0.1634(8)
O8A O 0.0038(6) 0.3733(5) 0.1740(8)
O9A O -0.0084(8) 1.2056(6) 0.1146(10)
H35A H 0.046(10) 1.212(10) 0.160(12)
O10 O 0.5000 1.246(2) 0.7500
loop_
_geom_bond_atom_site_label_1
_geom_bond_atom_site_label_2
_geom_bond_site_symmetry_1
_geom_bond_site_symmetry_2
Cu1 N1 1_555 1_555
N1 C1 1_555 1_555
C1 H1 1_555 1_555
C2 C1 1_555 1_555
H2 C2 1_555 1_555
C3 C2 1_555 1_555
C4 C3 1_555 1_555
H3 C4 1_555 1_555
C5 N1 1_555 1_555
H4 C5 1_555 1_555
C6 H5 1_555 1_555
C7 C6 1_555 1_555
H6 C7 1_555 1_555
C8 C7 1_555 1_555
C9 C8 1_555 1_555
H7 C9 1_555 1_555
C10 C9 1_555 1_555
H8 C10 1_555 1_555
N2 Cu1 1_555 1_555
C11 N2 1_555 1_555
H9 C11 1_555 1_555
C12 C11 1_555 1_555
H10 C12 1_555 1_555
C13 C12 1_555 1_555
C14 C13 1_555 1_555
H11 C14 1_555 1_555
C15 N2 1_555 1_555
H12 C15 1_555 1_555
N3 Cu1 1_555 1_555
C16 N3 1_555 1_555
H13 C16 1_555 1_555
C17 C16 1_555 1_555
H14 C17 1_555 1_555
C18 C17 1_555 1_555
C19 C18 1_555 1_555
H15 C19 1_555 1_555
C20 N3 1_555 1_555
H16 C20 1_555 1_555
N4 Cu1 1_555 1_555
C21 C22 1_555 1_555
C22 C23 1_555 1_555
C23 C26 1_555 1_555
C24 C21 1_555 1_555
H17 C24 1_555 1_555
H18 C24 1_555 1_555
C25 C22 1_555 1_555
H19 C25 1_555 1_555
H20 C25 1_555 1_555
C26 H21 1_555 1_555
H22 C26 1_555 1_555
C27 C28 1_555 1_555
C28 H23 1_555 1_555
C29 C28 1_555 1_555
H24 C29 1_555 1_555
C30 C29 1_555 1_555
H25 C30 1_555 1_555
C31 C30 1_555 1_555
C32 C27 1_555 1_555
H26 C32 1_555 1_555
C33 C31 1_555 1_555
C34 C35 1_555 1_555
C35 H27 1_555 1_555
C36 C35 1_555 1_555
H28 C36 1_555 1_555
C37 C36 1_555 1_555
H29 C37 1_555 1_555
C38 C37 1_555 1_555
C39 C34 1_555 1_555
H30 C39 1_555 1_555
C40 C38 1_555 1_555
C41 C42 1_555 1_555
C42 H31 1_555 1_555
C43 C42 1_555 1_555
H32 C43 1_555 1_555
C44 C43 1_555 1_555
H33 C44 1_555 1_555
C45 C44 1_555 1_555
C46 C41 1_555 1_555
H34 C46 1_555 1_555
C47 C45 1_555 1_555
O1 C24 1_555 1_555
O2 C33 1_555 1_555
O3 C25 1_555 1_555
O4 C40 1_555 1_555
O5 C40 1_555 1_555
O6 C26 1_555 1_555
O7 C47 1_555 1_555
O8 C47 1_555 1_555
O9 C33 1_555 1_555
H35 O9 1_555 1_555
N1D C1D 1_555 1_555
C1D H1D 1_555 1_555
C2D C1D 1_555 1_555
H2D C2D 1_555 1_555
C3D C3 1_555 1_555
C4D C3D 1_555 1_555
H3D C4D 1_555 1_555
C5D N1D 1_555 1_555
H4D C5D 1_555 1_555
C6D H5D 1_555 1_555
C7D C6D 1_555 1_555
H6D C7D 1_555 1_555
C8D C8 1_555 1_555
C9D C8D 1_555 1_555
H7D C9D 1_555 1_555
C10D C9D 1_555 1_555
H8D C10D 1_555 1_555
N4D C6D 1_555 1_555
N2F C11F 1_555 1_555
C11F H9F 1_555 1_555
C12F C11F 1_555 1_555
H10F C12F 1_555 1_555
C13F C13 1_555 1_555
C14F C13F 1_555 1_555
H11F C14F 1_555 1_555
C15F N2F 1_555 1_555
H12F C15F 1_555 1_555
N3F C16F 1_555 1_555
C16F H13F 1_555 1_555
C17F C16F 1_555 1_555
H14F C17F 1_555 1_555
C18F C18 1_555 1_555
C19F C18F 1_555 1_555
H15F C19F 1_555 1_555
C20F N3F 1_555 1_555
H16F C20F 1_555 1_555
Cu1D N1D 1_555 1_555
Cu1D_2 N4D 1_555 1_555
Cu1F N3F 1_555 1_555
Cu1F_2 N2F 1_555 1_555
N2D Cu1D 1_555 1_555
N3D Cu1D 1_555 1_555
N4D_2 Cu1D 1_555 1_555
C21A C21 1_555 1_555
C22A C21A 1_555 1_555
C23A C23 1_555 1_555
C24A C21A 1_555 1_555
H17A C24A 1_555 1_555
H18A C24A 1_555 1_555
C25A C22A 1_555 1_555
H19A C25A 1_555 1_555
H20A C25A 1_555 1_555
C26A C23A 1_555 1_555
H21A C26A 1_555 1_555
H22A C26A 1_555 1_555
C27A C28A 1_555 1_555
C28A H23A 1_555 1_555
C29A C28A 1_555 1_555
H24A C29A 1_555 1_555
C30A C29A 1_555 1_555
H25A C30A 1_555 1_555
C31A C30A 1_555 1_555
C32A C27A 1_555 1_555
H26A C32A 1_555 1_555
C33A C31A 1_555 1_555
C34A C35A 1_555 1_555
C35A H27A 1_555 1_555
C36A C35A 1_555 1_555
H28A C36A 1_555 1_555
C37A C36A 1_555 1_555
H29A C37A 1_555 1_555
C38A C37A 1_555 1_555
C39A C34A 1_555 1_555
H30A C39A 1_555 1_555
C40A C38A 1_555 1_555
C41A C42A 1_555 1_555
C42A H31A 1_555 1_555
C43A C42A 1_555 1_555
H32A C43A 1_555 1_555
C44A C43A 1_555 1_555
H33A C44A 1_555 1_555
C45A C44A 1_555 1_555
C46A C41A 1_555 1_555
H34A C46A 1_555 1_555
C47A C45A 1_555 1_555
O1A C24A 1_555 1_555
O2A C33A 1_555 1_555
O3A C25A 1_555 1_555
O4A C40A 1_555 1_555
O5A C40A 1_555 1_555
O6A C26A 1_555 1_555
O7A C47A 1_555 1_555
O8A C47A 1_555 1_555
O9A C33A 1_555 1_555
H35A O9A 1_555 1_555
C4 C5 1_555 1_555
C6 N4 1_555 1_555
C10 N4 1_555 1_555
C14 C15 1_555 1_555
C19 C20 1_555 1_555
C27 O1 1_555 1_555
C31 C32 1_555 1_555
C34 O3 1_555 1_555
C38 C39 1_555 1_555
C41 O6 1_555 1_555
C45 C46 1_555 1_555
C2D C3D 1_555 1_555
C4D C5D 1_555 1_555
C7D C8D 1_555 1_555
C10D N4D 1_555 1_555
C12F C13F 1_555 1_555
C14F C15F 1_555 1_555
C17F C18F 1_555 1_555
C19F C20F 1_555 1_555
C22A C23A 1_555 1_555
C27A O1A 1_555 1_555
C31A C32A 1_555 1_555
C34A O3A 1_555 1_555
C38A C39A 1_555 1_555
C41A O6A 1_555 1_555
C45A C46A 1_555 1_555

#END
