
#######################################################################
#
#                 Cambridge Crystallographic Data Centre
#                                CCDC 
#
#######################################################################
#
# If this CIF has been generated from an entry in the Cambridge 
# Structural Database, then it will include bibliographic, chemical, 
# crystal, experimental, refinement or atomic coordinate data resulting 
# from the CCDC's data processing and validation procedures.
#
#######################################################################

data_FUFWOT01
_symmetry_cell_setting           monoclinic
_symmetry_space_group_name_H-M   'P 21'
_symmetry_Int_Tables_number      4
_space_group_name_Hall           'P 2yb'
loop_
_symmetry_equiv_pos_site_id
_symmetry_equiv_pos_as_xyz
1 x,y,z
2 -x,1/2+y,-z
_cell_length_a                   10.823(2)
_cell_length_b                   10.750(2)
_cell_length_c                   13.582(3)
_cell_angle_alpha                90
_cell_angle_beta                 94.64(3)
_cell_angle_gamma                90
_cell_volume                     1575.05
loop_
_atom_site_label
_atom_site_type_symbol
_atom_site_fract_x
_atom_site_fract_y
_atom_site_fract_z
Ni1 Ni 0.75633(6) 0.59340(7) 0.11824(5)
Ni2 Ni 0.30590(6) 0.32669(7) 0.47871(5)
O1 O 0.7304(3) 0.5807(4) 0.2726(2)
O2 O 0.6349(3) 0.4622(4) 0.3804(3)
O3 O 0.5093(3) 0.1784(4) 0.3445(3)
O4 O 0.3785(3) 0.3426(4) 0.3396(3)
O5 O 0.3729(3) 0.2346(4) -0.0970(3)
O6 O 0.5622(3) 0.1458(4) -0.0781(3)
O7 O 0.5957(4) 0.4345(4) -0.1364(3)
O8 O 0.7206(3) 0.5513(4) -0.0349(3)
O9 O 0.4673(3) 0.4138(4) 0.5272(3)
H1 H 0.5133 0.4388 0.4838
H2 H 0.5043 0.3846 0.5798
O10 O 0.3805(5) 0.1562(5) 0.4980(4)
H3 H 0.3964 0.1018 0.5422
H4 H 0.4279 0.1571 0.4510
O11 O 0.2502(3) 0.3176(4) 0.6241(3)
H5 H 0.2524 0.2444 0.6471
H6 H 0.2880 0.3731 0.6602
N1 N 0.6353(4) 0.4556(5) 0.1206(3)
N2 N 0.9132(4) 0.4780(5) 0.1208(3)
N3 N 0.8946(4) 0.7212(5) 0.1295(3)
N4 N 0.2112(4) 0.4899(5) 0.4527(3)
N5 N 0.1385(4) 0.2585(5) 0.4169(4)
C1 C 0.6591(4) 0.4919(6) 0.2942(4)
C2 C 0.5992(5) 0.4186(6) 0.2081(4)
C3 C 0.5141(4) 0.3216(6) 0.2128(3)
C4 C 0.4740(5) 0.2630(5) 0.1255(4)
H7 H 0.4189 0.1968 0.1269
C5 C 0.5143(4) 0.3008(5) 0.0360(4)
C6 C 0.5947(5) 0.4016(6) 0.0365(4)
C7 C 0.6416(5) 0.4645(6) -0.0536(4)
C8 C 0.4652(5) 0.2784(6) 0.3079(4)
C9 C 0.4805(5) 0.2216(6) -0.0547(4)
C10 C 0.9148(5) 0.3523(7) 0.1061(4)
H8 H 0.8402 0.3091 0.0991
C11 C 1.0239(6) 0.2881(6) 0.1014(5)
H9 H 1.0220 0.2025 0.0913
C12 C 1.1346(5) 0.3484(7) 0.1113(5)
H10 H 1.2085 0.3046 0.1094
C13 C 1.1357(6) 0.4773(7) 0.1243(5)
H11 H 1.2101 0.5209 0.1300
C14 C 1.0232(5) 0.5392(6) 0.1285(4)
C15 C 1.0126(5) 0.6765(6) 0.1380(4)
C16 C 1.1149(5) 0.7538(7) 0.1546(4)
H12 H 1.1947 0.7211 0.1617
C17 C 1.0950(5) 0.8816(6) 0.1605(5)
H13 H 1.1613 0.9359 0.1727
C18 C 0.9735(5) 0.9266(7) 0.1475(4)
H14 H 0.9576 1.0116 0.1480
C19 C 0.8769(5) 0.8412(7) 0.1337(4)
H15 H 0.7959 0.8709 0.1272
C20 C 0.2546(5) 0.6051(6) 0.4706(4)
H16 H 0.3346 0.6138 0.5005
C21 C 0.1880(6) 0.7106(7) 0.4475(5)
H17 H 0.2214 0.7889 0.4618
C22 C 0.0687(6) 0.6977(7) 0.4020(5)
H18 H 0.0210 0.7676 0.3850
C23 C 0.0228(5) 0.5818(7) 0.3827(4)
H19 H -0.0568 0.5720 0.3524
C24 C 0.0945(5) 0.4780(6) 0.4082(4)
C25 C 0.0541(5) 0.3488(6) 0.3896(4)
C26 C -0.0629(5) 0.3178(9) 0.3468(4)
H20 H -0.1208 0.3792 0.3286
C27 C -0.0910(7) 0.1932(9) 0.3321(5)
H21 H -0.1684 0.1705 0.3028
C28 C -0.0061(7) 0.1030(9) 0.3602(5)
H22 H -0.0257 0.0192 0.3520
C29 C 0.1094(7) 0.1390(7) 0.4008(5)
H23 H 0.1686 0.0784 0.4175
Ni1A Ni 0.24367(6) 0.09340(7) -0.11824(5)
O5A O 0.6271(3) 0.7346(4) 0.0970(3)
O12 O 0.3773(4) 0.6002(5) 0.2668(3)
H24 H 0.3743 0.5239 0.2853
H25 H 0.4250 0.6152 0.2218
O13 O 0.6345(3) -0.0067(4) 0.2477(3)
H26 H 0.6248 0.0647 0.2746
H27 H 0.5725 -0.0343 0.2126
O14 O 0.6227(4) 0.3470(5) 0.6759(3)
H28 H 0.6088 0.2681 0.6816
H29 H 0.6235 0.3865 0.7308
O15 O 0.7461(3) 0.1134(5) 0.0835(3)
H30 H 0.6886 0.0917 0.0379
H31 H 0.7350 0.0440 0.1179
loop_
_geom_bond_atom_site_label_1
_geom_bond_atom_site_label_2
_geom_bond_site_symmetry_1
_geom_bond_site_symmetry_2
Ni1 O1 1_555 1_555
Ni2 O4 1_555 1_555
O1 C1 1_555 1_555
O2 C1 1_555 1_555
O3 C8 1_555 1_555
O4 C8 1_555 1_555
O5 C9 1_555 1_555
O6 C9 1_555 1_555
O7 C7 1_555 1_555
O8 Ni1 1_555 1_555
O9 Ni2 1_555 1_555
H1 O9 1_555 1_555
H2 O9 1_555 1_555
O10 Ni2 1_555 1_555
H3 O10 1_555 1_555
H4 O10 1_555 1_555
O11 Ni2 1_555 1_555
H5 O11 1_555 1_555
H6 O11 1_555 1_555
N1 Ni1 1_555 1_555
N2 Ni1 1_555 1_555
N3 Ni1 1_555 1_555
N4 Ni2 1_555 1_555
N5 Ni2 1_555 1_555
C1 C2 1_555 1_555
C2 N1 1_555 1_555
C3 C2 1_555 1_555
C4 C3 1_555 1_555
H7 C4 1_555 1_555
C5 C4 1_555 1_555
C6 N1 1_555 1_555
C7 O8 1_555 1_555
C8 C3 1_555 1_555
C9 C5 1_555 1_555
C10 N2 1_555 1_555
H8 C10 1_555 1_555
C11 C10 1_555 1_555
H9 C11 1_555 1_555
C12 C11 1_555 1_555
H10 C12 1_555 1_555
C13 C12 1_555 1_555
H11 C13 1_555 1_555
C14 N2 1_555 1_555
C15 N3 1_555 1_555
C16 C15 1_555 1_555
H12 C16 1_555 1_555
C17 C16 1_555 1_555
H13 C17 1_555 1_555
C18 C17 1_555 1_555
H14 C18 1_555 1_555
C19 N3 1_555 1_555
H15 C19 1_555 1_555
C20 N4 1_555 1_555
H16 C20 1_555 1_555
C21 C20 1_555 1_555
H17 C21 1_555 1_555
C22 C21 1_555 1_555
H18 C22 1_555 1_555
C23 C22 1_555 1_555
H19 C23 1_555 1_555
C24 N4 1_555 1_555
C25 N5 1_555 1_555
C26 C25 1_555 1_555
H20 C26 1_555 1_555
C27 C26 1_555 1_555
H21 C27 1_555 1_555
C28 C27 1_555 1_555
H22 C28 1_555 1_555
C29 N5 1_555 1_555
H23 C29 1_555 1_555
O12 H24 1_555 1_555
H25 O12 1_555 1_555
O13 H26 1_555 1_555
H27 O13 1_555 1_555
O14 H28 1_555 1_555
H29 O14 1_555 1_555
O15 H30 1_555 1_555
H31 O15 1_555 1_555
Ni1A O5 1_555 1_555
O5A Ni1 1_555 1_555
C5 C6 1_555 1_555
C6 C7 1_555 1_555
C13 C14 1_555 1_555
C14 C15 1_555 1_555
C18 C19 1_555 1_555
C23 C24 1_555 1_555
C24 C25 1_555 1_555
C28 C29 1_555 1_555

#END
