
#######################################################################
#
#                 Cambridge Crystallographic Data Centre
#                                CCDC 
#
#######################################################################
#
# If this CIF has been generated from an entry in the Cambridge 
# Structural Database, then it will include bibliographic, chemical, 
# crystal, experimental, refinement or atomic coordinate data resulting 
# from the CCDC's data processing and validation procedures.
#
#######################################################################

data_FUFYEL01
_symmetry_cell_setting           monoclinic
_symmetry_space_group_name_H-M   'P 21/n'
_symmetry_Int_Tables_number      14
_space_group_name_Hall           '-P 2yn'
loop_
_symmetry_equiv_pos_site_id
_symmetry_equiv_pos_as_xyz
1 x,y,z
2 1/2-x,1/2+y,1/2-z
3 -x,-y,-z
4 1/2+x,1/2-y,1/2+z
_cell_length_a                   8.2873(16)
_cell_length_b                   5.0188(10)
_cell_length_c                   12.307(3)
_cell_angle_alpha                90
_cell_angle_beta                 91.238(3)
_cell_angle_gamma                90
_cell_volume                     511.757
loop_
_atom_site_label
_atom_site_type_symbol
_atom_site_fract_x
_atom_site_fract_y
_atom_site_fract_z
N1 N 0.27802(18) 0.0733(3) 0.57926(12)
N2 N 0.05683(18) -0.0118(3) 0.66991(13)
C1 C 0.2082(2) -0.0901(4) 0.64831(15)
H1 H 0.2576 -0.2403 0.6782
C2 C 0.1647(2) 0.2655(4) 0.55593(16)
H2 H 0.1797 0.4091 0.5095
C3 C 0.0271(2) 0.2150(4) 0.61081(16)
H3 H -0.0677 0.3142 0.6086
C4 C -0.0720(2) -0.0120(3) 0.85393(15)
C5 C -0.0539(2) -0.1448(4) 0.74257(15)
H4 H -0.0170 -0.3264 0.7538
H5 H -0.1594 -0.1534 0.7071
O1 O -0.11556(15) -0.1675(3) 0.92788(11)
O2 O -0.05439(15) 0.2346(2) 0.86121(10)
Co1 Co 0.0000 -0.5000 1.0000
N1B N -0.27802(18) -1.0733(3) 1.42074(12)
N1A N 0.22198(18) -0.4267(3) 0.92074(12)
N1C N -0.22198(18) -0.5733(3) 1.07926(12)
N2B N -0.05683(18) -0.9882(3) 1.33009(13)
C1B C -0.2082(2) -0.9099(4) 1.35169(15)
H1B H -0.2576 -0.7597 1.3218
C2B C -0.1647(2) -1.2655(4) 1.44407(16)
H2B H -0.1797 -1.4091 1.4905
C3B C -0.0271(2) -1.2150(4) 1.38919(16)
H3B H 0.0677 -1.3142 1.3914
C4B C 0.0720(2) -0.9880(3) 1.14607(15)
C5B C 0.0539(2) -0.8552(4) 1.25743(15)
H4B H 0.0170 -0.6736 1.2462
H5B H 0.1594 -0.8466 1.2929
O1B O 0.11556(15) -0.8325(3) 1.07212(11)
O2B O 0.05439(15) -1.2346(2) 1.13879(10)
O2_2 O -0.05439(15) -0.7654(2) 0.86121(10)
O2B_2 O 0.05439(15) -0.2346(2) 1.13879(10)
Co1_2 Co 0.0000 -1.5000 1.0000
Co1_3 Co 0.0000 0.5000 1.0000
Co1A Co -0.5000 -1.0000 1.5000
Co1A_2 Co 0.5000 0.0000 0.5000
loop_
_geom_bond_atom_site_label_1
_geom_bond_atom_site_label_2
_geom_bond_site_symmetry_1
_geom_bond_site_symmetry_2
N1 C1 1_555 1_555
N2 C1 1_555 1_555
C1 H1 1_555 1_555
C2 N1 1_555 1_555
H2 C2 1_555 1_555
C3 N2 1_555 1_555
H3 C3 1_555 1_555
C4 C5 1_555 1_555
C5 N2 1_555 1_555
H4 C5 1_555 1_555
H5 C5 1_555 1_555
O1 C4 1_555 1_555
O2 C4 1_555 1_555
Co1 O1 1_555 1_555
N1B C1B 1_555 1_555
N1A Co1 1_555 1_555
N1C Co1 1_555 1_555
N2B C1B 1_555 1_555
C1B H1B 1_555 1_555
C2B N1B 1_555 1_555
H2B C2B 1_555 1_555
C3B N2B 1_555 1_555
H3B C3B 1_555 1_555
C4B C5B 1_555 1_555
C5B N2B 1_555 1_555
H4B C5B 1_555 1_555
H5B C5B 1_555 1_555
O1B Co1 1_555 1_555
O2B C4B 1_555 1_555
O2_2 Co1 1_555 1_555
O2B_2 Co1 1_555 1_555
Co1_2 O2B 1_555 1_555
Co1_3 O2 1_555 1_555
Co1A N1B 1_555 1_555
Co1A_2 N1 1_555 1_555
C2 C3 1_555 1_555
C2B C3B 1_555 1_555
C4B O1B 1_555 1_555

#END
