
#######################################################################
#
#                 Cambridge Crystallographic Data Centre
#                                CCDC 
#
#######################################################################
#
# If this CIF has been generated from an entry in the Cambridge 
# Structural Database, then it will include bibliographic, chemical, 
# crystal, experimental, refinement or atomic coordinate data resulting 
# from the CCDC's data processing and validation procedures.
#
#######################################################################

data_FUGBAK
_symmetry_cell_setting           monoclinic
_symmetry_space_group_name_H-M   'C 2/c'
_symmetry_Int_Tables_number      15
_space_group_name_Hall           '-C 2yn'
loop_
_symmetry_equiv_pos_site_id
_symmetry_equiv_pos_as_xyz
1 x,y,z
2 1/2+x,1/2+y,z
3 -x,y,1/2-z
4 1/2-x,1/2+y,1/2-z
5 -x,-y,-z
6 1/2-x,1/2-y,-z
7 x,-y,1/2+z
8 1/2+x,1/2-y,1/2+z
_cell_length_a                   14.431(5)
_cell_length_b                   13.250(4)
_cell_length_c                   8.000(3)
_cell_angle_alpha                90
_cell_angle_beta                 92.84(3)
_cell_angle_gamma                90
_cell_volume                     1527.81
loop_
_atom_site_label
_atom_site_type_symbol
_atom_site_fract_x
_atom_site_fract_y
_atom_site_fract_z
Pb1 Pb 0.0000 0.06393(7) 0.2500
Cl1 Cl 0.1186(3) 0.0716(4) -0.0263(5)
N1 N 0.089(1) 0.219(1) 0.373(1)
C1 C 0.093(1) 0.241(1) 0.538(2)
C2 C 0.136(1) 0.324(1) 0.606(2)
C3 C 0.187(1) 0.382(1) 0.500(2)
C4 C 0.187(1) 0.360(1) 0.333(2)
C5 C 0.133(2) 0.278(2) 0.274(2)
C6 C 0.134(2) 0.344(2) 0.796(2)
H1 H 0.062 0.193 0.613
H2 H 0.224 0.440 0.546
H3 H 0.224 0.400 0.257
H4 H 0.130 0.263 0.154
H5 H 0.091 0.302 0.897
H6 H 0.197 0.338 0.840
H7 H 0.117 0.414 0.809
Cl1D Cl -0.1186(3) -0.0716(4) 0.0263(5)
Cl1B Cl -0.1186(3) 0.0716(4) 0.5263(5)
Cl1F Cl 0.1186(3) -0.0716(4) 0.4737(5)
N1B N -0.089(1) 0.219(1) 0.127(1)
Pb1D Pb 0.0000 -0.06393(7) -0.2500
Pb1D_2 Pb 0.0000 -0.06393(7) 0.7500
C1B C -0.093(1) 0.241(1) -0.038(2)
C5B C -0.133(2) 0.278(2) 0.226(2)
Cl1B_2 Cl -0.1186(3) 0.0716(4) -0.4737(5)
Cl1F_2 Cl 0.1186(3) -0.0716(4) -0.5263(5)
N1D N -0.089(1) -0.219(1) -0.373(1)
N1F N 0.089(1) -0.219(1) -0.127(1)
C2B C -0.136(1) 0.324(1) -0.106(2)
H1B H -0.062 0.193 -0.113
C4B C -0.187(1) 0.360(1) 0.167(2)
H4B H -0.130 0.263 0.346
C1D C -0.093(1) -0.241(1) -0.538(2)
C5D C -0.133(2) -0.278(2) -0.274(2)
C1F C 0.093(1) -0.241(1) 0.038(2)
C5F C 0.133(2) -0.278(2) -0.226(2)
C3B C -0.187(1) 0.382(1) 0.000(2)
C6B C -0.134(2) 0.344(2) -0.296(2)
H3B H -0.224 0.400 0.243
C2D C -0.136(1) -0.324(1) -0.606(2)
H1D H -0.062 -0.193 -0.613
C4D C -0.187(1) -0.360(1) -0.333(2)
H4D H -0.130 -0.263 -0.154
C2F C 0.136(1) -0.324(1) 0.106(2)
H1F H 0.062 -0.193 0.113
C4F C 0.187(1) -0.360(1) -0.167(2)
H4F H 0.130 -0.263 -0.346
H2B H -0.224 0.440 -0.046
H5B H -0.091 0.302 -0.397
H6B H -0.197 0.338 -0.340
H7B H -0.117 0.414 -0.309
C3D C -0.187(1) -0.382(1) -0.500(2)
C6D C -0.134(2) -0.344(2) -0.796(2)
H3D H -0.224 -0.400 -0.257
C3F C 0.187(1) -0.382(1) 0.000(2)
C6F C 0.134(2) -0.344(2) 0.296(2)
H3F H 0.224 -0.400 -0.243
H2D H -0.224 -0.440 -0.546
H5D H -0.091 -0.302 -0.897
H6D H -0.197 -0.338 -0.840
H7D H -0.117 -0.414 -0.809
H2F H 0.224 -0.440 0.046
H5F H 0.091 -0.302 0.397
H6F H 0.197 -0.338 0.340
H7F H 0.117 -0.414 0.309
loop_
_geom_bond_atom_site_label_1
_geom_bond_atom_site_label_2
_geom_bond_site_symmetry_1
_geom_bond_site_symmetry_2
Pb1 Cl1 1_555 1_555
Cl1 Pb1D 1_555 1_555
N1 Pb1 1_555 1_555
C1 N1 1_555 1_555
C2 C1 1_555 1_555
C3 C2 1_555 1_555
C4 C3 1_555 1_555
C5 N1 1_555 1_555
C6 C2 1_555 1_555
H1 C1 1_555 1_555
H2 C3 1_555 1_555
H3 C4 1_555 1_555
H4 C5 1_555 1_555
H5 C6 1_555 1_555
H6 C6 1_555 1_555
H7 C6 1_555 1_555
Cl1D Pb1 1_555 1_555
Cl1B Pb1 1_555 1_555
Cl1F Pb1 1_555 1_555
N1B Pb1 1_555 1_555
Pb1D Cl1D 1_555 1_555
Pb1D_2 Cl1B 1_555 1_555
C1B N1B 1_555 1_555
C5B N1B 1_555 1_555
Cl1B_2 Pb1D 1_555 1_555
Cl1F_2 Pb1D 1_555 1_555
N1D Pb1D 1_555 1_555
N1F Pb1D 1_555 1_555
C2B C1B 1_555 1_555
H1B C1B 1_555 1_555
C4B C5B 1_555 1_555
H4B C5B 1_555 1_555
C1D N1D 1_555 1_555
C5D N1D 1_555 1_555
C1F N1F 1_555 1_555
C5F N1F 1_555 1_555
C3B C2B 1_555 1_555
C6B C2B 1_555 1_555
H3B C4B 1_555 1_555
C2D C1D 1_555 1_555
H1D C1D 1_555 1_555
C4D C5D 1_555 1_555
H4D C5D 1_555 1_555
C2F C1F 1_555 1_555
H1F C1F 1_555 1_555
C4F C5F 1_555 1_555
H4F C5F 1_555 1_555
H2B C3B 1_555 1_555
H5B C6B 1_555 1_555
H6B C6B 1_555 1_555
H7B C6B 1_555 1_555
C3D C2D 1_555 1_555
C6D C2D 1_555 1_555
H3D C4D 1_555 1_555
C3F C2F 1_555 1_555
C6F C2F 1_555 1_555
H3F C4F 1_555 1_555
H2D C3D 1_555 1_555
H5D C6D 1_555 1_555
H6D C6D 1_555 1_555
H7D C6D 1_555 1_555
H2F C3F 1_555 1_555
H5F C6F 1_555 1_555
H6F C6F 1_555 1_555
H7F C6F 1_555 1_555
C4 C5 1_555 1_555
Cl1F Pb1D_2 1_555 1_555
C4B C3B 1_555 1_555
C4D C3D 1_555 1_555
C4F C3F 1_555 1_555

#END
