
#######################################################################
#
#                 Cambridge Crystallographic Data Centre
#                                CCDC 
#
#######################################################################
#
# If this CIF has been generated from an entry in the Cambridge 
# Structural Database, then it will include bibliographic, chemical, 
# crystal, experimental, refinement or atomic coordinate data resulting 
# from the CCDC's data processing and validation procedures.
#
#######################################################################

data_FUGGEV
_symmetry_cell_setting           triclinic
_symmetry_space_group_name_H-M   'P -1'
_symmetry_Int_Tables_number      2
_space_group_name_Hall           '-P 1'
loop_
_symmetry_equiv_pos_site_id
_symmetry_equiv_pos_as_xyz
1 x,y,z
2 -x,-y,-z
_cell_length_a                   7.777(4)
_cell_length_b                   7.829(4)
_cell_length_c                   12.840(7)
_cell_angle_alpha                77.065(6)
_cell_angle_beta                 79.414(6)
_cell_angle_gamma                88.173(7)
_cell_volume                     748.937
loop_
_atom_site_label
_atom_site_type_symbol
_atom_site_fract_x
_atom_site_fract_y
_atom_site_fract_z
Mn1 Mn 0.62093(5) -0.30976(5) 0.46647(3)
C1 C 0.9351(3) -0.2090(3) 0.55660(19)
C2 C 1.0126(3) -0.1955(3) 0.65491(18)
H1 H 1.0993 -0.2865 0.6655
H2 H 1.0729 -0.0835 0.6390
C3 C 0.7905(3) -0.0716(3) 0.7763(2)
H3 H 0.7982 0.0319 0.7232
C4 C 0.6816(4) -0.0834(4) 0.8740(2)
H4 H 0.6155 0.0128 0.8878
C5 C 0.6691(3) -0.2372(4) 0.9524(2)
H5 H 0.5951 -0.2439 1.0189
C6 C 0.7666(3) -0.3827(3) 0.93252(19)
C7 C 0.8754(3) -0.3629(3) 0.83205(19)
H6 H 0.9424 -0.4572 0.8159
C8 C 0.7572(3) -0.5531(3) 1.01237(19)
C9 C 0.6774(3) -0.5675(4) 1.1207(2)
H7 H 0.6335 -0.4678 1.1439
C10 C 0.6627(3) -0.7277(4) 1.1940(2)
H8 H 0.6062 -0.7353 1.2653
C11 C 0.7319(3) -0.8779(3) 1.16163(19)
C12 C 0.8136(3) -0.8627(3) 1.0542(2)
H9 H 0.8607 -0.9618 1.0315
C13 C 0.8261(3) -0.7045(3) 0.98105(19)
H10 H 0.8813 -0.6980 0.9096
C14 C 0.7224(3) -1.0558(3) 1.23733(19)
O1 O 0.7726(2) -0.2221(3) 0.56827(14)
O2 O 1.0459(2) -0.2043(3) 0.47280(14)
O3 O 0.6595(2) -1.0672(2) 1.33697(13)
O4 O 0.7804(3) -1.1822(3) 1.19795(15)
O5 O 0.3900(2) -0.1721(3) 0.52596(16)
H11 H 0.4166 -0.1057 0.5617
H12 H 0.320(5) -0.184(5) 0.505(3)
O6 O 0.8595(3) -0.4077(3) 0.37071(17)
H13 H 0.8698 -0.3572 0.3066
H14 H 0.929(5) -0.361(5) 0.387(3)
N1 N 0.8867(3) -0.2110(3) 0.75750(16)
N2 N 0.4451(3) -0.4520(3) 0.39828(17)
N3 N 0.3758(3) -0.3982(3) 0.32306(18)
N4 N 0.3081(4) -0.3443(4) 0.2497(2)
Mn1_2 Mn 0.62093(5) -1.30976(5) 1.46647(3)
Mn1A Mn 0.37907(5) -0.69024(5) 0.53353(3)
O3_2 O 0.6595(2) -0.0672(2) 0.33697(13)
N2A N 0.5549(3) -0.5480(3) 0.60172(17)
loop_
_geom_bond_atom_site_label_1
_geom_bond_atom_site_label_2
_geom_bond_site_symmetry_1
_geom_bond_site_symmetry_2
Mn1 O1 1_555 1_555
C1 C2 1_555 1_555
C2 H1 1_555 1_555
H2 C2 1_555 1_555
C3 H3 1_555 1_555
C4 C3 1_555 1_555
H4 C4 1_555 1_555
C5 C4 1_555 1_555
H5 C5 1_555 1_555
C6 C5 1_555 1_555
C7 C6 1_555 1_555
H6 C7 1_555 1_555
C8 C6 1_555 1_555
C9 C8 1_555 1_555
H7 C9 1_555 1_555
C10 C9 1_555 1_555
H8 C10 1_555 1_555
C11 C10 1_555 1_555
C12 C11 1_555 1_555
H9 C12 1_555 1_555
C13 C8 1_555 1_555
H10 C13 1_555 1_555
C14 C11 1_555 1_555
O1 C1 1_555 1_555
O2 C1 1_555 1_555
O3 C14 1_555 1_555
O4 C14 1_555 1_555
O5 Mn1 1_555 1_555
H11 O5 1_555 1_555
H12 O5 1_555 1_555
O6 Mn1 1_555 1_555
H13 O6 1_555 1_555
H14 O6 1_555 1_555
N1 C2 1_555 1_555
N2 Mn1 1_555 1_555
N3 N2 1_555 1_555
N4 N3 1_555 1_555
Mn1_2 O3 1_555 1_555
Mn1A N2 1_555 1_555
O3_2 Mn1 1_555 1_555
N2A Mn1 1_555 1_555
C3 N1 1_555 1_555
C7 N1 1_555 1_555
C12 C13 1_555 1_555
Mn1A N2A 1_555 1_555

#END
