
#######################################################################
#
#                 Cambridge Crystallographic Data Centre
#                                CCDC 
#
#######################################################################
#
# If this CIF has been generated from an entry in the Cambridge 
# Structural Database, then it will include bibliographic, chemical, 
# crystal, experimental, refinement or atomic coordinate data resulting 
# from the CCDC's data processing and validation procedures.
#
#######################################################################

data_FUGGAR
_symmetry_cell_setting           triclinic
_symmetry_space_group_name_H-M   'P -1'
_symmetry_Int_Tables_number      2
_space_group_name_Hall           '-P 1'
loop_
_symmetry_equiv_pos_site_id
_symmetry_equiv_pos_as_xyz
1 x,y,z
2 -x,-y,-z
_cell_length_a                   7.6273(6)
_cell_length_b                   7.7408(6)
_cell_length_c                   12.9230(10)
_cell_angle_alpha                76.308(2)
_cell_angle_beta                 79.828(2)
_cell_angle_gamma                88.463(2)
_cell_volume                     729.568
loop_
_atom_site_label
_atom_site_type_symbol
_atom_site_fract_x
_atom_site_fract_y
_atom_site_fract_z
Co1 Co 0.61423(4) -0.31270(4) 0.47013(2)
C1 C 0.9281(3) -0.2082(3) 0.55685(19)
C2 C 1.0113(3) -0.1972(3) 0.65426(19)
H1 H 1.0975 -0.2913 0.6650
H2 H 1.0757 -0.0848 0.6374
C3 C 0.7941(4) -0.0680(3) 0.7747(2)
H3 H 0.8035 0.0369 0.7210
C4 C 0.6871(4) -0.0769(4) 0.8726(2)
H4 H 0.6229 0.0219 0.8856
C5 C 0.6744(4) -0.2337(4) 0.9527(2)
H5 H 0.6033 -0.2388 1.0197
C6 C 0.7670(3) -0.3828(3) 0.93328(19)
C7 C 0.8732(3) -0.3648(3) 0.8324(2)
H6 H 0.9376 -0.4620 0.8168
C8 C 0.7559(3) -0.5559(3) 1.01451(19)
C9 C 0.6736(4) -0.5698(3) 1.1220(2)
H7 H 0.6285 -0.4687 1.1437
C10 C 0.6584(4) -0.7319(4) 1.1964(2)
H8 H 0.6016 -0.7386 1.2671
C11 C 0.7268(3) -0.8850(3) 1.16716(19)
C12 C 0.8115(4) -0.8708(3) 1.0608(2)
H9 H 0.8599 -0.9716 1.0401
C13 C 0.8250(4) -0.7098(4) 0.9855(2)
H10 H 0.8808 -0.7040 0.9146
C14 C 0.7160(3) -1.0663(3) 1.2446(2)
O1 O 0.7627(2) -0.2183(2) 0.56812(14)
O2 O 1.0412(2) -0.2046(2) 0.47372(14)
O3 O 0.6531(2) -1.0758(2) 1.34340(13)
O4 O 0.7731(3) -1.1945(3) 1.20658(16)
O5 O 0.3925(2) -0.1801(2) 0.52816(15)
H11 H 0.4218 -0.1144 0.5637
H12 H 0.318(5) -0.197(5) 0.505(3)
O6 O 0.8443(3) -0.4127(2) 0.38530(16)
H13 H 0.8569 -0.3636 0.3208
H14 H 0.929(5) -0.361(5) 0.404(3)
N1 N 0.8857(3) -0.2116(3) 0.75669(16)
N2 N 0.4438(3) -0.4526(3) 0.40333(17)
N3 N 0.3727(3) -0.4013(3) 0.32713(18)
N4 N 0.3045(4) -0.3508(4) 0.2533(2)
Co1_2 Co 0.61423(4) -1.31270(4) 1.47013(2)
Co1A Co 0.38577(4) -0.68730(4) 0.52987(2)
O3_2 O 0.6531(2) -0.0758(2) 0.34340(13)
N2A N 0.5562(3) -0.5474(3) 0.59667(17)
loop_
_geom_bond_atom_site_label_1
_geom_bond_atom_site_label_2
_geom_bond_site_symmetry_1
_geom_bond_site_symmetry_2
Co1 O1 1_555 1_555
C1 C2 1_555 1_555
C2 H1 1_555 1_555
H2 C2 1_555 1_555
C3 H3 1_555 1_555
C4 C3 1_555 1_555
H4 C4 1_555 1_555
C5 C4 1_555 1_555
H5 C5 1_555 1_555
C6 C5 1_555 1_555
C7 C6 1_555 1_555
H6 C7 1_555 1_555
C8 C6 1_555 1_555
C9 C8 1_555 1_555
H7 C9 1_555 1_555
C10 C9 1_555 1_555
H8 C10 1_555 1_555
C11 C10 1_555 1_555
C12 C11 1_555 1_555
H9 C12 1_555 1_555
C13 C8 1_555 1_555
H10 C13 1_555 1_555
C14 C11 1_555 1_555
O1 C1 1_555 1_555
O2 C1 1_555 1_555
O3 C14 1_555 1_555
O4 C14 1_555 1_555
O5 Co1 1_555 1_555
H11 O5 1_555 1_555
H12 O5 1_555 1_555
O6 Co1 1_555 1_555
H13 O6 1_555 1_555
H14 O6 1_555 1_555
N1 C2 1_555 1_555
N2 Co1 1_555 1_555
N3 N2 1_555 1_555
N4 N3 1_555 1_555
Co1_2 O3 1_555 1_555
Co1A N2 1_555 1_555
O3_2 Co1 1_555 1_555
N2A Co1 1_555 1_555
C3 N1 1_555 1_555
C7 N1 1_555 1_555
C12 C13 1_555 1_555
Co1A N2A 1_555 1_555

#END
