
#######################################################################
#
#                 Cambridge Crystallographic Data Centre
#                                CCDC 
#
#######################################################################
#
# If this CIF has been generated from an entry in the Cambridge 
# Structural Database, then it will include bibliographic, chemical, 
# crystal, experimental, refinement or atomic coordinate data resulting 
# from the CCDC's data processing and validation procedures.
#
#######################################################################

data_FUGKOI
_symmetry_cell_setting           monoclinic
_symmetry_space_group_name_H-M   'P 21/n'
_symmetry_Int_Tables_number      14
_space_group_name_Hall           '-P 2yn'
loop_
_symmetry_equiv_pos_site_id
_symmetry_equiv_pos_as_xyz
1 x,y,z
2 1/2-x,1/2+y,1/2-z
3 -x,-y,-z
4 1/2+x,1/2-y,1/2+z
_cell_length_a                   13.3143(2)
_cell_length_b                   6.78570(10)
_cell_length_c                   21.3927(3)
_cell_angle_alpha                90
_cell_angle_beta                 91.4580(10)
_cell_angle_gamma                90
_cell_volume                     1932.14
loop_
_atom_site_label
_atom_site_type_symbol
_atom_site_fract_x
_atom_site_fract_y
_atom_site_fract_z
Zn1 Zn 0.816160(13) 0.51300(2) 0.187880(8)
O1 O 0.95052(8) 0.60767(16) 0.20123(5)
O2 O 1.00643(8) 0.55706(16) 0.10502(5)
O3 O 0.77863(8) 0.37932(15) 0.26575(5)
O4 O 0.79259(8) 0.17550(14) 0.34596(5)
O5 O 0.83582(11) -0.07543(19) -0.07713(6)
O6 O 1.49773(9) 0.61367(17) 0.23858(5)
O7 O 1.10801(11) 0.97953(16) 0.45862(6)
N1 N 0.81632(9) 0.29546(17) 0.12295(6)
N2 N 0.91501(11) -0.28715(18) -0.01158(6)
H1 H 0.9269 -0.3695 -0.0410
H2 H 0.9348 -0.3125 0.0262
C1 C 1.02044(11) 0.5821(2) 0.16202(7)
C2 C 1.12564(11) 0.5862(2) 0.18971(7)
C3 C 1.14051(12) 0.5879(2) 0.25423(7)
H3 H 1.0857 0.5867 0.2803
C4 C 1.23802(12) 0.5913(2) 0.27978(7)
H4 H 1.2487 0.5906 0.3229
C5 C 1.31866(11) 0.5957(2) 0.24033(7)
C6 C 1.30379(12) 0.5942(2) 0.17551(7)
H5 H 1.3585 0.5979 0.1494
C7 C 1.20746(12) 0.5872(2) 0.15043(7)
H6 H 1.1971 0.5832 0.1073
C8 C 0.81930(11) 0.3293(2) 0.31722(7)
C9 C 0.89783(12) 0.4527(2) 0.34954(7)
C10 C 0.96360(12) 0.3649(2) 0.39317(7)
H7 H 0.9603 0.2299 0.4004
C11 C 1.03354(13) 0.4785(2) 0.42548(8)
H8 H 1.0792 0.4188 0.4531
C12 C 1.03609(12) 0.6823(2) 0.41700(7)
C13 C 0.97104(12) 0.7698(2) 0.37288(7)
H9 H 0.9730 0.9053 0.3666
C14 C 0.90409(12) 0.6556(2) 0.33872(7)
H10 H 0.8627 0.7138 0.3083
C15 C 0.86757(11) 0.1289(2) 0.13520(7)
H11 H 0.8924 0.1074 0.1757
C16 C 0.88489(13) -0.0119(2) 0.09003(8)
H12 H 0.9213 -0.1251 0.1000
C17 C 0.84719(12) 0.0179(2) 0.02948(8)
C18 C 0.79165(12) 0.1872(2) 0.01756(7)
H13 H 0.7639 0.2097 -0.0221
C19 C 0.77770(12) 0.3220(2) 0.06473(7)
H14 H 0.7404 0.4350 0.0561
C20 C 0.86597(12) -0.1204(2) -0.02441(7)
C21 C 1.42128(13) 0.6036(2) 0.26818(8)
H15 H 1.4266(13) 0.600(3) 0.3157(9)
C22 C 1.10601(13) 0.8010(2) 0.45686(8)
H16 H 1.1561(13) 0.714(3) 0.4842(9)
Zn1A Zn 0.683840(13) 0.01300(2) 0.312120(8)
O4A O 0.70741(8) 0.67550(14) 0.15404(5)
loop_
_geom_bond_atom_site_label_1
_geom_bond_atom_site_label_2
_geom_bond_site_symmetry_1
_geom_bond_site_symmetry_2
Zn1 O1 1_555 1_555
O1 C1 1_555 1_555
O2 C1 1_555 1_555
O3 Zn1 1_555 1_555
O4 C8 1_555 1_555
O5 C20 1_555 1_555
O6 C21 1_555 1_555
O7 C22 1_555 1_555
N1 Zn1 1_555 1_555
N2 H1 1_555 1_555
H2 N2 1_555 1_555
C1 C2 1_555 1_555
C2 C3 1_555 1_555
C3 H3 1_555 1_555
C4 C3 1_555 1_555
H4 C4 1_555 1_555
C5 C4 1_555 1_555
C6 C5 1_555 1_555
H5 C6 1_555 1_555
C7 C2 1_555 1_555
H6 C7 1_555 1_555
C8 O3 1_555 1_555
C9 C8 1_555 1_555
C10 C9 1_555 1_555
H7 C10 1_555 1_555
C11 C10 1_555 1_555
H8 C11 1_555 1_555
C12 C11 1_555 1_555
C13 C12 1_555 1_555
H9 C13 1_555 1_555
C14 C9 1_555 1_555
H10 C14 1_555 1_555
C15 N1 1_555 1_555
H11 C15 1_555 1_555
C16 C15 1_555 1_555
H12 C16 1_555 1_555
C17 C16 1_555 1_555
C18 C17 1_555 1_555
H13 C18 1_555 1_555
C19 N1 1_555 1_555
H14 C19 1_555 1_555
C20 N2 1_555 1_555
C21 C5 1_555 1_555
H15 C21 1_555 1_555
C22 C12 1_555 1_555
H16 C22 1_555 1_555
Zn1A O4 1_555 1_555
O4A Zn1 1_555 1_555
C6 C7 1_555 1_555
C13 C14 1_555 1_555
C17 C20 1_555 1_555
C18 C19 1_555 1_555

#END
