
#######################################################################
#
#                 Cambridge Crystallographic Data Centre
#                                CCDC 
#
#######################################################################
#
# If this CIF has been generated from an entry in the Cambridge 
# Structural Database, then it will include bibliographic, chemical, 
# crystal, experimental, refinement or atomic coordinate data resulting 
# from the CCDC's data processing and validation procedures.
#
#######################################################################

data_FUHHUN
_symmetry_cell_setting           triclinic
_symmetry_space_group_name_H-M   'P -1'
_symmetry_Int_Tables_number      2
_space_group_name_Hall           '-P 1'
loop_
_symmetry_equiv_pos_site_id
_symmetry_equiv_pos_as_xyz
1 x,y,z
2 -x,-y,-z
_cell_length_a                   8.8072(10)
_cell_length_b                   8.9158(11)
_cell_length_c                   11.1345(13)
_cell_angle_alpha                67.889(5)
_cell_angle_beta                 69.643(5)
_cell_angle_gamma                62.584(5)
_cell_volume                     702.658
loop_
_atom_site_label
_atom_site_type_symbol
_atom_site_fract_x
_atom_site_fract_y
_atom_site_fract_z
O3 O 0.6611(4) 0.2586(4) 1.0014(3)
H14 H 0.615(7) 0.331(5) 0.933(3)
H15 H 0.620(7) 0.320(6) 1.059(4)
O4 O 0.4245(4) 0.0325(4) 0.8968(3)
H16 H 0.465(6) -0.0806(17) 0.910(6)
H17 H 0.315(2) 0.054(7) 0.903(6)
O5 O 0.9485(8) 0.9247(10) 0.0372(7)
H18 H 1.006(12) 0.832(10) 0.092(9)
H19 H 1.033(10) 0.960(15) -0.012(12)
O5A O 1.0515(8) 1.0753(10) -0.0372(7)
H18A H 0.994(12) 1.168(10) -0.092(9)
H19A H 0.967(10) 1.040(15) 0.012(12)
C1 C 0.3019(3) 0.2337(4) 0.6003(3)
H1 H 0.2761 0.2292 0.6915
C2 C 0.2559(3) 0.1416(3) 0.5520(3)
C3 C 0.3169(4) 0.1882(4) 0.4182(3)
H2 H 0.3070 0.1481 0.3544
C4 C 0.1614(3) 0.0189(4) 0.6296(3)
H3 H 0.1838 -0.0317 0.7205
H4 H 0.2099 -0.0784 0.5876
C5 C -0.0331(3) 0.1047(3) 0.6385(3)
C6 C -0.1265(3) 0.2537(4) 0.5544(3)
H5 H -0.0741 0.3235 0.4794
C7 C -0.1600(4) 0.0484(4) 0.7300(3)
H6 H -0.1415 -0.0519 0.8034
C8 C 0.3129(3) 0.5288(4) 0.7991(3)
C9 C 0.1416(3) 0.5502(4) 0.9008(3)
H7 H 0.0951 0.6715 0.9106
C10 C 0.0015(4) 0.5410(5) 0.8594(3)
H8 H 0.0429 0.4243 0.8446
H9 H -0.0196 0.6297 0.7744
C11 C 0.1686(4) 0.4280(4) 1.0385(3)
H10 H 0.2199 0.3049 1.0338
H11 H 0.2523 0.4471 1.0661
Co1 Co 0.5000 0.5000 0.5000
N1 N 0.3866(3) 0.3297(3) 0.5037(2)
N2 N 0.3931(3) 0.3000(3) 0.3921(2)
H12 H 0.4413 0.3480 0.3120
N3 N -0.2976(3) 0.2889(3) 0.5897(2)
N4 N -0.3147(3) 0.1596(3) 0.6979(2)
H13 H -0.4152 0.1490 0.7425
O1 O 0.3254(2) 0.5114(3) 0.68972(17)
O2 O 0.4337(3) 0.5365(3) 0.83106(19)
C8A C -0.3129(3) 0.4712(4) 1.2009(3)
C9A C -0.1416(3) 0.4498(4) 1.0992(3)
H7A H -0.0951 0.3285 1.0894
C10A C -0.0015(4) 0.4590(5) 1.1406(3)
H8A H -0.0429 0.5757 1.1554
H9A H 0.0196 0.3703 1.2256
C11A C -0.1686(4) 0.5720(4) 0.9615(3)
H10A H -0.2199 0.6951 0.9662
H11A H -0.2523 0.5529 0.9339
O1A O -0.3254(2) 0.4886(3) 1.31028(17)
O2A O -0.4337(3) 0.4635(3) 1.16894(19)
C1A C -0.3019(3) 0.7663(4) 0.3997(3)
H1A H -0.2761 0.7708 0.3085
C2A C -0.2559(3) 0.8584(3) 0.4480(3)
C3A C -0.3169(4) 0.8118(4) 0.5818(3)
H2A H -0.3070 0.8519 0.6456
C4A C -0.1614(3) 0.9811(4) 0.3704(3)
H3A H -0.1838 1.0317 0.2795
H4A H -0.2099 1.0784 0.4124
C5A C 0.0331(3) 0.8953(3) 0.3615(3)
C6A C 0.1265(3) 0.7463(4) 0.4456(3)
H5A H 0.0741 0.6765 0.5206
C7A C 0.1600(4) 0.9516(4) 0.2700(3)
H6A H 0.1415 1.0519 0.1966
N1A N -0.3866(3) 0.6703(3) 0.4963(2)
N2A N -0.3931(3) 0.7000(3) 0.6079(2)
H12A H -0.4413 0.6520 0.6880
N3A N 0.2976(3) 0.7111(3) 0.4103(2)
N4A N 0.3147(3) 0.8404(3) 0.3021(2)
H13A H 0.4152 0.8510 0.2575
Co1_2 Co -0.5000 0.5000 0.5000
Co1_3 Co -0.5000 0.5000 1.5000
N1A_2 N 0.6134(3) 0.6703(3) 0.4963(2)
N3_2 N 0.7024(3) 0.2889(3) 0.5897(2)
O1A_2 O 0.6746(2) 0.4886(3) 0.31028(17)
loop_
_geom_bond_atom_site_label_1
_geom_bond_atom_site_label_2
_geom_bond_site_symmetry_1
_geom_bond_site_symmetry_2
C1 H1 1_555 1_555
C2 C1 1_555 1_555
C3 C2 1_555 1_555
H2 C3 1_555 1_555
C4 C2 1_555 1_555
H3 C4 1_555 1_555
H4 C4 1_555 1_555
C5 C4 1_555 1_555
C6 C5 1_555 1_555
H5 C6 1_555 1_555
C7 C5 1_555 1_555
H6 C7 1_555 1_555
C8 C9 1_555 1_555
C9 H7 1_555 1_555
C10 C9 1_555 1_555
H8 C10 1_555 1_555
H9 C10 1_555 1_555
C11 C9 1_555 1_555
H10 C11 1_555 1_555
H11 C11 1_555 1_555
Co1 N1 1_555 1_555
N1 C1 1_555 1_555
N2 C3 1_555 1_555
H12 N2 1_555 1_555
N3 C6 1_555 1_555
N4 C7 1_555 1_555
H13 N4 1_555 1_555
O1 C8 1_555 1_555
O2 C8 1_555 1_555
O3 H14 1_555 1_555
H15 O3 1_555 1_555
O4 H16 1_555 1_555
H17 O4 1_555 1_555
O5 H18 1_555 1_555
H19 O5 1_555 1_555
C8A C9A 1_555 1_555
C9A H7A 1_555 1_555
C10A C11 1_555 1_555
H8A C10A 1_555 1_555
H9A C10A 1_555 1_555
C11A C10 1_555 1_555
H10A C11A 1_555 1_555
H11A C11A 1_555 1_555
O1A C8A 1_555 1_555
O2A C8A 1_555 1_555
C1A H1A 1_555 1_555
C2A C1A 1_555 1_555
C3A C2A 1_555 1_555
H2A C3A 1_555 1_555
C4A C2A 1_555 1_555
H3A C4A 1_555 1_555
H4A C4A 1_555 1_555
C5A C4A 1_555 1_555
C6A C5A 1_555 1_555
H5A C6A 1_555 1_555
C7A C5A 1_555 1_555
H6A C7A 1_555 1_555
N1A C1A 1_555 1_555
N2A C3A 1_555 1_555
H12A N2A 1_555 1_555
N3A Co1 1_555 1_555
N4A C7A 1_555 1_555
H13A N4A 1_555 1_555
Co1_2 N3 1_555 1_555
Co1_3 O1A 1_555 1_555
N1A_2 Co1 1_555 1_555
N3_2 Co1 1_555 1_555
O1A_2 Co1 1_555 1_555
O5A O5 1_555 1_555
H18A O5A 1_555 1_555
H19A O5 1_555 1_555
Co1 O1 1_555 1_555
N1 N2 1_555 1_555
N3 N4 1_555 1_555
H19 O5A 1_555 1_555
C9A C10A 1_555 1_555
C9A C11A 1_555 1_555
C6A N3A 1_555 1_555
N1A N2A 1_555 1_555
N1A Co1_2 1_555 1_555
N3A N4A 1_555 1_555
O5A H19A 1_555 1_555

#END
