
#######################################################################
#
#                 Cambridge Crystallographic Data Centre
#                                CCDC 
#
#######################################################################
#
# If this CIF has been generated from an entry in the Cambridge 
# Structural Database, then it will include bibliographic, chemical, 
# crystal, experimental, refinement or atomic coordinate data resulting 
# from the CCDC's data processing and validation procedures.
#
#######################################################################

data_FUHMOM
_symmetry_cell_setting           monoclinic
_symmetry_space_group_name_H-M   'P 21/n'
_symmetry_Int_Tables_number      14
_space_group_name_Hall           '-P 2yn'
loop_
_symmetry_equiv_pos_site_id
_symmetry_equiv_pos_as_xyz
1 x,y,z
2 1/2-x,1/2+y,1/2-z
3 -x,-y,-z
4 1/2+x,1/2-y,1/2+z
_cell_length_a                   11.1577(4)
_cell_length_b                   17.4945(6)
_cell_length_c                   13.0419(5)
_cell_angle_alpha                90
_cell_angle_beta                 102.316(4)
_cell_angle_gamma                90
_cell_volume                     2487.17
loop_
_atom_site_label
_atom_site_type_symbol
_atom_site_fract_x
_atom_site_fract_y
_atom_site_fract_z
Zn1 Zn -0.63198(3) -1.05992(2) -0.35464(3)
Ca1 Ca -0.55375(7) -0.86821(4) -0.42559(6)
C1 C -0.2550(3) -1.09963(18) 0.1523(2)
C2 C -0.2159(3) -1.17503(18) 0.1559(2)
H1 H -0.2112 -1.2034 0.2169
C3 C -0.1838(3) -1.20846(19) 0.0691(2)
C4 C -0.1914(3) -1.1664(2) -0.0228(3)
H2 H -0.1688 -1.1881 -0.0810
C5 C -0.2331(3) -1.0917(2) -0.0259(2)
C6 C -0.2637(3) -1.05785(19) 0.0607(3)
H3 H -0.2899 -1.0073 0.0576
C7 C -0.2950(3) -1.06442(18) 0.2452(3)
C8 C -0.1458(3) -1.29150(19) 0.0731(2)
C9 C -0.1851(3) -1.04705(18) -0.1889(3)
C10 C -0.2456(3) -1.02803(17) -0.2900(2)
C11 C -0.1763(3) -1.0163(2) -0.3662(3)
C12 C -0.0492(3) -1.0239(2) -0.3400(3)
H4 H -0.0030 -1.0154 -0.3904
C13 C 0.0080(3) -1.0440(2) -0.2392(3)
H5 H 0.0927 -1.0500 -0.2225
C14 C -0.0591(3) -1.0553(2) -0.1626(3)
H6 H -0.0199 -1.0683 -0.0946
C15 C -0.3820(3) -1.01399(19) -0.3125(2)
C16 C -0.2379(3) -0.9911(2) -0.4748(3)
C17 C -0.6740(4) -0.7737(3) -0.6378(4)
H7 H -0.6873 -0.8118 -0.6886
C18 C -0.6259(6) -0.6421(3) -0.5971(5)
H8 H -0.6294 -0.6595 -0.5280
H9 H -0.6863 -0.6030 -0.6186
H10 H -0.5457 -0.6219 -0.5965
C19 C -0.6467(7) -0.6872(4) -0.7776(4)
H11 H -0.6635 -0.7327 -0.8194
H12 H -0.5670 -0.6681 -0.7808
H13 H -0.7075 -0.6492 -0.8039
C20 C -0.5152(8) -0.7404(5) -0.2165(9)
H14 H -0.5523 -0.6926 -0.2277
C21 C -0.5034(8) -0.7139(6) -0.0355(7)
H15 H -0.4768 -0.7369 0.0323
H16 H -0.5891 -0.7019 -0.0467
H17 H -0.4575 -0.6679 -0.0390
C22 C -0.4353(7) -0.8350(5) -0.0940(10)
H18 H -0.4299 -0.8599 -0.1585
H19 H -0.4865 -0.8646 -0.0585
H20 H -0.3548 -0.8305 -0.0501
O1 O -0.3187(2) -0.99338(13) 0.23860(18)
O2 O -0.3033(2) -1.10649(14) 0.32034(18)
O3 O -0.1646(2) -1.32918(13) 0.15081(18)
O4 O -0.1013(2) -1.31831(14) 0.00080(19)
O5 O -0.2591(3) -1.04783(16) -0.1166(2)
O6 O -0.1814(3) -0.95255(17) -0.5276(2)
O7 O -0.3501(2) -1.00916(16) -0.50868(18)
O8 O -0.4179(2) -0.94698(13) -0.31594(18)
O9 O -0.4505(2) -1.07178(15) -0.3249(2)
O10 O -0.6806(3) -0.7927(2) -0.5491(3)
O11 O -0.4987(4) -0.7759(3) -0.2948(4)
N1 N -0.6501(4) -0.7050(2) -0.6692(3)
N2 N -0.4835(5) -0.7659(4) -0.1147(5)
Zn1B Zn -0.36802(3) -0.94008(2) -0.64536(3)
Zn1B_2 Zn -0.36802(3) -0.94008(2) 0.35464(3)
Zn1C Zn -0.13198(3) -1.44008(2) 0.14536(3)
Ca1A Ca 0.05375(7) -1.36821(4) -0.07441(6)
Ca1B Ca -0.44625(7) -1.13179(4) -0.57441(6)
Ca1B_2 Ca -0.44625(7) -1.13179(4) 0.42559(6)
O1B O -0.6813(2) -1.00662(13) -0.23860(18)
O2B O -0.6967(2) -0.89351(14) -0.32034(18)
O3C O -0.6646(2) -1.17082(13) -0.34919(18)
O4A O -0.3987(2) -0.81831(14) -0.50080(19)
O6B O -0.8186(3) -1.04745(17) -0.4724(2)
O7B O -0.6499(2) -0.99084(16) -0.49132(18)
loop_
_geom_bond_atom_site_label_1
_geom_bond_atom_site_label_2
_geom_bond_site_symmetry_1
_geom_bond_site_symmetry_2
Zn1 O9 1_555 1_555
Ca1 O8 1_555 1_555
C1 C2 1_555 1_555
C2 H1 1_555 1_555
C3 C2 1_555 1_555
C4 C3 1_555 1_555
H2 C4 1_555 1_555
C5 C4 1_555 1_555
C6 C1 1_555 1_555
H3 C6 1_555 1_555
C7 C1 1_555 1_555
C8 C3 1_555 1_555
C9 C10 1_555 1_555
C10 C11 1_555 1_555
C11 C12 1_555 1_555
C12 H4 1_555 1_555
C13 C12 1_555 1_555
H5 C13 1_555 1_555
C14 C9 1_555 1_555
H6 C14 1_555 1_555
C15 C10 1_555 1_555
C16 C11 1_555 1_555
C17 H7 1_555 1_555
C18 H8 1_555 1_555
H9 C18 1_555 1_555
H10 C18 1_555 1_555
C19 H11 1_555 1_555
H12 C19 1_555 1_555
H13 C19 1_555 1_555
C20 H14 1_555 1_555
C21 H15 1_555 1_555
H16 C21 1_555 1_555
H17 C21 1_555 1_555
C22 H18 1_555 1_555
H19 C22 1_555 1_555
H20 C22 1_555 1_555
O1 C7 1_555 1_555
O2 C7 1_555 1_555
O3 C8 1_555 1_555
O4 C8 1_555 1_555
O5 C5 1_555 1_555
O6 C16 1_555 1_555
O7 C16 1_555 1_555
O8 C15 1_555 1_555
O9 C15 1_555 1_555
O10 Ca1 1_555 1_555
O11 Ca1 1_555 1_555
N1 C17 1_555 1_555
N2 C20 1_555 1_555
Zn1B O6 1_555 1_555
Zn1B_2 O1 1_555 1_555
Zn1C O3 1_555 1_555
Ca1A O4 1_555 1_555
Ca1B O7 1_555 1_555
Ca1B_2 O2 1_555 1_555
O1B Zn1 1_555 1_555
O2B Ca1 1_555 1_555
O3C Zn1 1_555 1_555
O4A Ca1 1_555 1_555
O6B Zn1 1_555 1_555
O7B Zn1 1_555 1_555
Ca1 O7B 1_555 1_555
C5 C6 1_555 1_555
C9 O5 1_555 1_555
C13 C14 1_555 1_555
C17 O10 1_555 1_555
C18 N1 1_555 1_555
C19 N1 1_555 1_555
C20 O11 1_555 1_555
C21 N2 1_555 1_555
C22 N2 1_555 1_555
O7 Zn1B 1_555 1_555

#END
