
#######################################################################
#
#                 Cambridge Crystallographic Data Centre
#                                CCDC 
#
#######################################################################
#
# If this CIF has been generated from an entry in the Cambridge 
# Structural Database, then it will include bibliographic, chemical, 
# crystal, experimental, refinement or atomic coordinate data resulting 
# from the CCDC's data processing and validation procedures.
#
#######################################################################

data_FUHNED
_symmetry_cell_setting           monoclinic
_symmetry_space_group_name_H-M   'P 21/n'
_symmetry_Int_Tables_number      14
_space_group_name_Hall           '-P 2yn'
loop_
_symmetry_equiv_pos_site_id
_symmetry_equiv_pos_as_xyz
1 x,y,z
2 1/2-x,1/2+y,1/2-z
3 -x,-y,-z
4 1/2+x,1/2-y,1/2+z
_cell_length_a                   12.8210(3)
_cell_length_b                   11.0944(3)
_cell_length_c                   19.2042(5)
_cell_angle_alpha                90
_cell_angle_beta                 103.325(2)
_cell_angle_gamma                90
_cell_volume                     2658.09
loop_
_atom_site_label
_atom_site_type_symbol
_atom_site_fract_x
_atom_site_fract_y
_atom_site_fract_z
Zn1 Zn 1.16322(3) -0.17938(3) -0.028314(18)
Ba1 Ba 0.870837(14) -0.042638(19) -0.112676(10)
N1 N 0.9009(4) 0.0237(3) -0.3508(2)
N2 N 0.5108(3) -0.1502(4) -0.1525(2)
O1 O 1.01797(16) -0.1378(2) 0.01030(11)
O2 O 1.07605(17) -0.3247(2) 0.01603(12)
O3 O 0.70975(17) -0.1506(2) 0.13134(12)
O4 O 0.65138(15) -0.2534(2) 0.37561(11)
O5 O 0.47319(16) -0.2594(2) 0.35948(11)
O6 O 0.24508(17) -0.1577(2) 0.11748(12)
O7 O 0.31278(17) -0.2162(2) 0.02647(11)
O8 O 0.93361(17) -0.0221(2) 0.12720(11)
O9 O 0.81239(16) -0.0058(2) 0.02395(11)
O10 O 0.8423(2) 0.0014(3) -0.25143(14)
O11 O 0.6867(2) -0.1629(3) -0.14287(17)
C1 C 1.0087(2) -0.2501(3) 0.02565(15)
C2 C 0.9153(2) -0.2866(3) 0.05548(16)
C3 C 0.8963(3) -0.4096(3) 0.06254(18)
H1 H 0.9401 -0.4663 0.0478
C4 C 0.8126(3) -0.4469(3) 0.0914(2)
H2 H 0.7998 -0.5288 0.0956
C5 C 0.7471(3) -0.3626(3) 0.11416(18)
H3 H 0.6910 -0.3879 0.1339
C6 C 0.7663(2) -0.2404(3) 0.10718(16)
C7 C 0.8496(2) -0.2011(3) 0.07704(15)
C8 C 0.6212(2) -0.1798(3) 0.15898(17)
C9 C 0.6343(2) -0.1959(3) 0.23138(16)
H4 H 0.7024 -0.1947 0.2614
C10 C 0.5446(2) -0.2140(3) 0.25940(16)
C11 C 0.4428(2) -0.2101(3) 0.21377(16)
H5 H 0.3824 -0.2168 0.2326
C12 C 0.4308(2) -0.1963(3) 0.14072(16)
C13 C 0.5213(2) -0.1838(3) 0.11296(16)
H6 H 0.5145 -0.1781 0.0638
C14 C 0.5559(2) -0.2435(3) 0.33739(16)
C15 C 0.3211(2) -0.1901(3) 0.09172(17)
C16 C 0.8677(2) -0.0656(3) 0.07630(16)
C17 C 0.8235(4) 0.0176(4) -0.3167(2)
C18 C 0.7082(4) 0.0313(4) -0.3611(3)
H7 H 0.6593 0.0258 -0.3302
H8 H 0.6929 -0.0317 -0.3963
H9 H 0.7002 0.1082 -0.3846
C19 C 0.8823(6) 0.0313(5) -0.4290(2)
H10 H 0.8067 0.0360 -0.4495
H11 H 0.9111 -0.0392 -0.4468
H12 H 0.9170 0.1018 -0.4418
C20 C 1.0121(4) 0.0153(4) -0.3092(3)
H13 H 1.0130 0.0109 -0.2591
H14 H 1.0512 0.0852 -0.3181
H15 H 1.0449 -0.0558 -0.3231
C21 C 0.5926(4) -0.1639(4) -0.1813(3)
C22 C 0.5715(5) -0.1849(6) -0.2604(2)
H16 H 0.6385 -0.1932 -0.2743
H17 H 0.5325 -0.1178 -0.2852
H18 H 0.5301 -0.2572 -0.2724
C23 C 0.3994(4) -0.1479(5) -0.1921(3)
H19 H 0.3957 -0.1625 -0.2419
H20 H 0.3690 -0.0703 -0.1866
H21 H 0.3599 -0.2092 -0.1739
C24 C 0.5335(5) -0.1303(5) -0.0738(3)
H22 H 0.6094 -0.1341 -0.0543
H23 H 0.4984 -0.1915 -0.0522
H24 H 0.5072 -0.0525 -0.0643
Zn1_2 Zn 0.16322(3) -0.17938(3) -0.028314(18)
Zn1B Zn 0.83678(3) 0.17938(3) 0.028314(18)
Zn1C Zn 0.66322(3) -0.32062(3) 0.471686(18)
Ba1B Ba 0.129163(14) 0.042638(19) 0.112676(10)
Ba1B_2 Ba 1.129163(14) 0.042638(19) 0.112676(10)
Ba1C Ba 0.370837(14) -0.457362(19) 0.387324(10)
O1B O 0.98203(16) 0.1378(2) -0.01030(11)
O4C O 1.15138(15) -0.2466(2) -0.12439(11)
O5C O 0.97319(16) -0.2406(2) -0.14052(11)
O6B O 0.75492(17) 0.1577(2) -0.11748(12)
O7_2 O 1.31278(17) -0.2162(2) 0.02647(11)
O8B O 1.06639(17) 0.0221(2) -0.12720(11)
O9B O 1.18761(16) 0.0058(2) -0.02395(11)
loop_
_geom_bond_atom_site_label_1
_geom_bond_atom_site_label_2
_geom_bond_site_symmetry_1
_geom_bond_site_symmetry_2
Zn1 O1 1_555 1_555
Ba1 O1 1_555 1_555
N1 C17 1_555 1_555
N2 C21 1_555 1_555
O1 C1 1_555 1_555
O2 Zn1 1_555 1_555
O3 C6 1_555 1_555
O4 C14 1_555 1_555
O5 C14 1_555 1_555
O6 C15 1_555 1_555
O7 C15 1_555 1_555
O8 C16 1_555 1_555
O9 Ba1 1_555 1_555
O10 Ba1 1_555 1_555
O11 Ba1 1_555 1_555
C1 O2 1_555 1_555
C2 C1 1_555 1_555
C3 C2 1_555 1_555
H1 C3 1_555 1_555
C4 C3 1_555 1_555
H2 C4 1_555 1_555
C5 C4 1_555 1_555
H3 C5 1_555 1_555
C6 C5 1_555 1_555
C7 C2 1_555 1_555
C8 O3 1_555 1_555
C9 C8 1_555 1_555
H4 C9 1_555 1_555
C10 C9 1_555 1_555
C11 C10 1_555 1_555
H5 C11 1_555 1_555
C12 C11 1_555 1_555
C13 C8 1_555 1_555
H6 C13 1_555 1_555
C14 C10 1_555 1_555
C15 C12 1_555 1_555
C16 O9 1_555 1_555
C17 O10 1_555 1_555
C18 C17 1_555 1_555
H7 C18 1_555 1_555
H8 C18 1_555 1_555
H9 C18 1_555 1_555
C19 N1 1_555 1_555
H10 C19 1_555 1_555
H11 C19 1_555 1_555
H12 C19 1_555 1_555
C20 N1 1_555 1_555
H13 C20 1_555 1_555
H14 C20 1_555 1_555
H15 C20 1_555 1_555
C21 O11 1_555 1_555
C22 C21 1_555 1_555
H16 C22 1_555 1_555
H17 C22 1_555 1_555
H18 C22 1_555 1_555
C23 N2 1_555 1_555
H19 C23 1_555 1_555
H20 C23 1_555 1_555
H21 C23 1_555 1_555
C24 N2 1_555 1_555
H22 C24 1_555 1_555
H23 C24 1_555 1_555
H24 C24 1_555 1_555
Zn1_2 O7 1_555 1_555
Zn1B O9 1_555 1_555
Zn1C O4 1_555 1_555
Ba1B O6 1_555 1_555
Ba1B_2 O1 1_555 1_555
Ba1C O5 1_555 1_555
O1B Ba1 1_555 1_555
O4C Zn1 1_555 1_555
O5C Ba1 1_555 1_555
O6B Ba1 1_555 1_555
O7_2 Zn1 1_555 1_555
O8B Ba1 1_555 1_555
O9B Zn1 1_555 1_555
O8 Ba1B_2 1_555 1_555
C6 C7 1_555 1_555
C7 C16 1_555 1_555
C12 C13 1_555 1_555
Zn1B O1B 1_555 1_555
Ba1B_2 O1B 1_555 1_555
Ba1B_2 O9B 1_555 1_555

#END
