
#######################################################################
#
#                 Cambridge Crystallographic Data Centre
#                                CCDC 
#
#######################################################################
#
# If this CIF has been generated from an entry in the Cambridge 
# Structural Database, then it will include bibliographic, chemical, 
# crystal, experimental, refinement or atomic coordinate data resulting 
# from the CCDC's data processing and validation procedures.
#
#######################################################################

data_FUHYAK
_symmetry_cell_setting           monoclinic
_symmetry_space_group_name_H-M   'P 21/n'
_symmetry_Int_Tables_number      14
_space_group_name_Hall           '-P 2yn'
loop_
_symmetry_equiv_pos_site_id
_symmetry_equiv_pos_as_xyz
1 x,y,z
2 1/2-x,1/2+y,1/2-z
3 -x,-y,-z
4 1/2+x,1/2-y,1/2+z
_cell_length_a                   9.5651(6)
_cell_length_b                   7.0159(6)
_cell_length_c                   27.861(2)
_cell_angle_alpha                90
_cell_angle_beta                 93.478(7)
_cell_angle_gamma                90
_cell_volume                     1866.25
loop_
_atom_site_label
_atom_site_type_symbol
_atom_site_fract_x
_atom_site_fract_y
_atom_site_fract_z
Pb1 Pb 0.35718(4) 0.30329(7) 0.189971(17)
C1 C 0.8312(13) 0.376(2) 0.3946(5)
H1 H 0.9244 0.3554 0.4048
C2 C 0.7928(12) 0.3619(19) 0.3471(5)
H2 H 0.8590 0.3335 0.3250
C3 C 0.6561(12) 0.390(2) 0.3318(4)
C4 C 0.5579(12) 0.4322(18) 0.3651(4)
H3 H 0.4645 0.4507 0.3549
N1 N 0.5981(11) 0.4461(17) 0.4119(4)
C5 C 0.7357(13) 0.420(2) 0.4284(5)
H4 H 0.7632 0.4305 0.4609
C6 C 0.5985(11) 0.3810(18) 0.2796(4)
O1 O 0.4694(8) 0.3667(13) 0.2709(3)
N2 N 0.6934(10) 0.3748(16) 0.2463(4)
H5 H 0.7839 0.3932 0.2536
N3 N 0.6436(10) 0.3610(15) 0.1976(3)
C7 C 0.7456(12) 0.387(2) 0.1697(5)
H6 H 0.8336 0.4107 0.1846
C8 C 0.7356(11) 0.384(2) 0.1179(5)
C9 C 0.6167(13) 0.3505(18) 0.0863(5)
C10 C 0.6261(15) 0.353(2) 0.0376(6)
H7 H 0.5461 0.3264 0.0180
C11 C 0.7503(15) 0.392(3) 0.0158(6)
H8 H 0.7545 0.3944 -0.0175
C12 C 0.8694(15) 0.429(2) 0.0469(5)
H9 H 0.9546 0.4558 0.0340
C13 C 0.8619(12) 0.426(2) 0.0955(5)
H10 H 0.9423 0.4520 0.1148
O2 O 0.4947(9) 0.3016(15) 0.1063(3)
N4 N 0.4213(9) -0.0782(15) 0.2598(4)
O3 O 0.5208(8) -0.0122(13) 0.2378(3)
O4 O 0.2990(8) -0.0178(14) 0.2513(3)
O5 O 0.4415(9) -0.2120(13) 0.2911(4)
N5 N 0.3119(12) 0.7020(17) 0.1510(5)
O6 O 0.2134(11) 0.5969(17) 0.1406(4)
O7 O 0.3182(16) 0.870(2) 0.1359(5)
O8 O 0.4120(10) 0.6421(14) 0.1782(4)
Pb1A Pb 0.14282(4) -0.19671(7) 0.310029(17)
O4A O 0.2010(8) 0.4822(14) 0.2487(3)
N6 N 0.2071(11) 0.1293(17) 0.0579(4)
O9 O 0.1776(10) 0.1964(15) 0.0952(4)
O10 O 0.1165(10) 0.033(2) 0.0331(3)
O11 O 0.3268(10) 0.147(2) 0.0421(4)
loop_
_geom_bond_atom_site_label_1
_geom_bond_atom_site_label_2
_geom_bond_site_symmetry_1
_geom_bond_site_symmetry_2
Pb1 O1 1_555 1_555
C1 H1 1_555 1_555
C2 C1 1_555 1_555
H2 C2 1_555 1_555
C3 C2 1_555 1_555
C4 C3 1_555 1_555
H3 C4 1_555 1_555
N1 C4 1_555 1_555
C5 C1 1_555 1_555
H4 C5 1_555 1_555
C6 C3 1_555 1_555
O1 C6 1_555 1_555
N2 C6 1_555 1_555
H5 N2 1_555 1_555
N3 Pb1 1_555 1_555
C7 N3 1_555 1_555
H6 C7 1_555 1_555
C8 C7 1_555 1_555
C9 C8 1_555 1_555
C10 C9 1_555 1_555
H7 C10 1_555 1_555
C11 C10 1_555 1_555
H8 C11 1_555 1_555
C12 C11 1_555 1_555
H9 C12 1_555 1_555
C13 C8 1_555 1_555
H10 C13 1_555 1_555
O2 Pb1 1_555 1_555
N4 O3 1_555 1_555
O4 Pb1 1_555 1_555
O5 N4 1_555 1_555
N5 O6 1_555 1_555
O6 Pb1 1_555 1_555
O7 N5 1_555 1_555
O8 Pb1 1_555 1_555
N6 O9 1_555 1_555
O10 N6 1_555 1_555
O11 N6 1_555 1_555
Pb1A O4 1_555 1_555
O4A Pb1 1_555 1_555
N1 C5 1_555 1_555
N2 N3 1_555 1_555
C9 O2 1_555 1_555
C12 C13 1_555 1_555
N4 O4 1_555 1_555
N5 O8 1_555 1_555

#END
