
#######################################################################
#
#                 Cambridge Crystallographic Data Centre
#                                CCDC 
#
#######################################################################
#
# If this CIF has been generated from an entry in the Cambridge 
# Structural Database, then it will include bibliographic, chemical, 
# crystal, experimental, refinement or atomic coordinate data resulting 
# from the CCDC's data processing and validation procedures.
#
#######################################################################

data_FUJCAQ
_symmetry_cell_setting           monoclinic
_symmetry_space_group_name_H-M   'P 21/c'
_symmetry_Int_Tables_number      14
_space_group_name_Hall           '-P 2ybc'
loop_
_symmetry_equiv_pos_site_id
_symmetry_equiv_pos_as_xyz
1 x,y,z
2 -x,1/2+y,1/2-z
3 -x,-y,-z
4 x,1/2-y,1/2+z
_cell_length_a                   11.769(5)
_cell_length_b                   12.083(5)
_cell_length_c                   16.236(7)
_cell_angle_alpha                90
_cell_angle_beta                 105.628(7)
_cell_angle_gamma                90
_cell_volume                     2223.48
loop_
_atom_site_label
_atom_site_type_symbol
_atom_site_fract_x
_atom_site_fract_y
_atom_site_fract_z
Zn1 Zn 0.80843(6) 1.20856(5) 1.08927(4)
N1 N 0.9613(4) 1.1044(4) 1.1431(3)
N2 N 0.7753(4) 1.0655(3) 1.0161(2)
N3 N 0.6398(4) 1.2410(4) 0.9931(3)
O1 O 0.7571(3) 0.2781(3) 0.6959(2)
O2 O 0.6727(4) 0.4400(3) 0.6617(2)
O3 O 0.5785(3) 0.4415(3) 0.7955(2)
O4 O 0.8731(4) 1.3591(3) 1.0901(3)
O5 O 0.9285(4) 1.2998(3) 0.9778(3)
C1 C 1.0507(6) 1.1282(5) 1.2094(4)
H1 H 1.0541 1.1985 1.2333
C2 C 1.1393(6) 1.0543(6) 1.2449(4)
H2 H 1.1987 1.0728 1.2936
C3 C 1.1379(6) 0.9525(5) 1.2068(4)
H3 H 1.1980 0.9017 1.2283
C4 C 1.0474(6) 0.9265(5) 1.1371(4)
H4 H 1.0453 0.8582 1.1102
C5 C 0.9587(5) 1.0034(4) 1.1069(3)
C6 C 0.8526(5) 0.9800(4) 1.0361(3)
C7 C 0.8250(5) 0.8797(4) 0.9944(3)
H5 H 0.8787 0.8217 1.0079
C8 C 0.7193(5) 0.8643(4) 0.9333(3)
C9 C 0.6399(5) 0.9541(4) 0.9139(3)
H6 H 0.5682 0.9473 0.8725
C10 C 0.6712(5) 1.0531(4) 0.9581(3)
C11 C 0.5930(5) 1.1520(4) 0.9463(3)
C12 C 0.4794(5) 1.1526(5) 0.8933(4)
H7 H 0.4480 1.0896 0.8627
C13 C 0.4134(6) 1.2482(5) 0.8865(4)
H8 H 0.3364 1.2506 0.8517
C14 C 0.4637(6) 1.3397(5) 0.9323(4)
H9 H 0.4220 1.4058 0.9278
C15 C 0.5749(6) 1.3321(4) 0.9841(4)
H10 H 0.6076 1.3945 1.0151
C16 C 0.6847(5) 0.7553(4) 0.8919(3)
C17 C 0.7683(5) 0.6798(4) 0.8806(3)
H11 H 0.8475 0.7000 0.8959
C18 C 0.7371(5) 0.5752(4) 0.8470(4)
H12 H 0.7945 0.5264 0.8395
C19 C 0.6206(5) 0.5442(4) 0.8251(3)
C20 C 0.5352(5) 0.6192(4) 0.8343(3)
H13 H 0.4560 0.5993 0.8179
C21 C 0.5674(5) 0.7226(4) 0.8676(3)
H14 H 0.5095 0.7717 0.8739
C22 C 0.6617(5) 0.3579(4) 0.7915(3)
H15 H 0.6273 0.2860 0.7963
H16 H 0.7307 0.3663 0.8397
C23 C 0.6997(5) 0.3614(4) 0.7094(3)
C24 C 0.9201(5) 1.3715(5) 1.0294(4)
C25 C 0.9696(5) 1.4872(5) 1.0268(4)
H17 H 0.959(4) 1.548(3) 1.075(3)
O4B O 1.1269(4) 1.6409(3) 0.9099(3)
O5B O 1.0715(4) 1.7002(3) 1.0222(3)
C24B C 1.0799(5) 1.6285(5) 0.9706(4)
C25B C 1.0304(5) 1.5128(5) 0.9732(4)
H17B H 1.041(4) 1.452(3) 0.925(3)
Zn1B Zn 1.19157(6) 1.79144(5) 0.91073(4)
N1B N 1.0387(4) 1.8956(4) 0.8569(3)
N2B N 1.2247(4) 1.9345(3) 0.9839(2)
N3B N 1.3602(4) 1.7590(4) 1.0069(3)
O1B O 1.2429(3) 2.7219(3) 1.3041(2)
O2B O 1.3273(4) 2.5600(3) 1.3383(2)
O3B O 1.4215(3) 2.5585(3) 1.2045(2)
C1B C 0.9493(6) 1.8718(5) 0.7906(4)
H1B H 0.9459 1.8015 0.7667
C2B C 0.8607(6) 1.9457(6) 0.7551(4)
H2B H 0.8013 1.9272 0.7064
C3B C 0.8621(6) 2.0475(5) 0.7932(4)
H3B H 0.8020 2.0983 0.7717
C4B C 0.9526(6) 2.0735(5) 0.8629(4)
H4B H 0.9547 2.1418 0.8898
C5B C 1.0413(5) 1.9966(4) 0.8931(3)
C6B C 1.1474(5) 2.0200(4) 0.9639(3)
C7B C 1.1750(5) 2.1203(4) 1.0056(3)
H5B H 1.1213 2.1783 0.9921
C8B C 1.2807(5) 2.1357(4) 1.0667(3)
C9B C 1.3601(5) 2.0459(4) 1.0861(3)
H6B H 1.4318 2.0527 1.1275
C10B C 1.3288(5) 1.9469(4) 1.0419(3)
C11B C 1.4070(5) 1.8480(4) 1.0537(3)
C12B C 1.5206(5) 1.8474(5) 1.1067(4)
H7B H 1.5520 1.9104 1.1373
C13B C 1.5866(6) 1.7518(5) 1.1135(4)
H8B H 1.6636 1.7494 1.1483
C14B C 1.5363(6) 1.6603(5) 1.0677(4)
H9B H 1.5780 1.5942 1.0722
C15B C 1.4251(6) 1.6679(4) 1.0159(4)
H10B H 1.3924 1.6055 0.9849
C16B C 1.3153(5) 2.2447(4) 1.1081(3)
C17B C 1.2317(5) 2.3202(4) 1.1194(3)
H11B H 1.1525 2.3000 1.1041
C18B C 1.2629(5) 2.4248(4) 1.1530(4)
H12B H 1.2055 2.4736 1.1605
C19B C 1.3794(5) 2.4558(4) 1.1749(3)
C20B C 1.4648(5) 2.3808(4) 1.1657(3)
H13B H 1.5440 2.4007 1.1821
C21B C 1.4326(5) 2.2774(4) 1.1324(3)
H14B H 1.4905 2.2283 1.1261
C22B C 1.3383(5) 2.6421(4) 1.2085(3)
H15B H 1.3727 2.7140 1.2037
H16B H 1.2693 2.6337 1.1603
C23B C 1.3003(5) 2.6386(4) 1.2906(3)
Zn1A Zn 1.19157(6) 2.70856(5) 1.41073(4)
Zn1C Zn 0.80843(6) 0.29144(5) 0.58927(4)
O1A O 1.2429(3) 1.7781(3) 0.8041(2)
O1C O 0.7571(3) 1.2219(3) 1.1959(2)
loop_
_geom_bond_atom_site_label_1
_geom_bond_atom_site_label_2
_geom_bond_site_symmetry_1
_geom_bond_site_symmetry_2
Zn1 N1 1_555 1_555
N1 C1 1_555 1_555
N2 Zn1 1_555 1_555
N3 Zn1 1_555 1_555
O1 C23 1_555 1_555
O2 C23 1_555 1_555
O3 C19 1_555 1_555
O4 Zn1 1_555 1_555
O5 C24 1_555 1_555
C1 H1 1_555 1_555
C2 C1 1_555 1_555
H2 C2 1_555 1_555
C3 C2 1_555 1_555
H3 C3 1_555 1_555
C4 C3 1_555 1_555
H4 C4 1_555 1_555
C5 N1 1_555 1_555
C6 N2 1_555 1_555
C7 C6 1_555 1_555
H5 C7 1_555 1_555
C8 C7 1_555 1_555
C9 C8 1_555 1_555
H6 C9 1_555 1_555
C10 N2 1_555 1_555
C11 N3 1_555 1_555
C12 C11 1_555 1_555
H7 C12 1_555 1_555
C13 C12 1_555 1_555
H8 C13 1_555 1_555
C14 C13 1_555 1_555
H9 C14 1_555 1_555
C15 N3 1_555 1_555
H10 C15 1_555 1_555
C16 C8 1_555 1_555
C17 C16 1_555 1_555
H11 C17 1_555 1_555
C18 C17 1_555 1_555
H12 C18 1_555 1_555
C19 C18 1_555 1_555
C20 C19 1_555 1_555
H13 C20 1_555 1_555
C21 C16 1_555 1_555
H14 C21 1_555 1_555
C22 O3 1_555 1_555
H15 C22 1_555 1_555
H16 C22 1_555 1_555
C23 C22 1_555 1_555
C24 O4 1_555 1_555
C25 C24 1_555 1_555
H17 C25 1_555 1_555
O4B C24B 1_555 1_555
O5B C24B 1_555 1_555
C24B C25B 1_555 1_555
C25B C25 1_555 1_555
H17B C25B 1_555 1_555
Zn1B O4B 1_555 1_555
N1B Zn1B 1_555 1_555
N2B Zn1B 1_555 1_555
N3B Zn1B 1_555 1_555
O1B C23B 1_555 1_555
O2B C23B 1_555 1_555
O3B C19B 1_555 1_555
C1B N1B 1_555 1_555
H1B C1B 1_555 1_555
C2B C1B 1_555 1_555
H2B C2B 1_555 1_555
C3B C2B 1_555 1_555
H3B C3B 1_555 1_555
C4B C3B 1_555 1_555
H4B C4B 1_555 1_555
C5B N1B 1_555 1_555
C6B N2B 1_555 1_555
C7B C6B 1_555 1_555
H5B C7B 1_555 1_555
C8B C7B 1_555 1_555
C9B C8B 1_555 1_555
H6B C9B 1_555 1_555
C10B N2B 1_555 1_555
C11B N3B 1_555 1_555
C12B C11B 1_555 1_555
H7B C12B 1_555 1_555
C13B C12B 1_555 1_555
H8B C13B 1_555 1_555
C14B C13B 1_555 1_555
H9B C14B 1_555 1_555
C15B N3B 1_555 1_555
H10B C15B 1_555 1_555
C16B C8B 1_555 1_555
C17B C16B 1_555 1_555
H11B C17B 1_555 1_555
C18B C17B 1_555 1_555
H12B C18B 1_555 1_555
C19B C18B 1_555 1_555
C20B C19B 1_555 1_555
H13B C20B 1_555 1_555
C21B C16B 1_555 1_555
H14B C21B 1_555 1_555
C22B O3B 1_555 1_555
H15B C22B 1_555 1_555
H16B C22B 1_555 1_555
C23B C22B 1_555 1_555
Zn1A O1B 1_555 1_555
Zn1C O1 1_555 1_555
O1A Zn1B 1_555 1_555
O1C Zn1 1_555 1_555
C4 C5 1_555 1_555
C5 C6 1_555 1_555
C9 C10 1_555 1_555
C10 C11 1_555 1_555
C14 C15 1_555 1_555
C20 C21 1_555 1_555
C4B C5B 1_555 1_555
C5B C6B 1_555 1_555
C9B C10B 1_555 1_555
C10B C11B 1_555 1_555
C14B C15B 1_555 1_555
C20B C21B 1_555 1_555

#END
