
#######################################################################
#
#                 Cambridge Crystallographic Data Centre
#                                CCDC 
#
#######################################################################
#
# If this CIF has been generated from an entry in the Cambridge 
# Structural Database, then it will include bibliographic, chemical, 
# crystal, experimental, refinement or atomic coordinate data resulting 
# from the CCDC's data processing and validation procedures.
#
#######################################################################

data_FUJGUO
_symmetry_cell_setting           orthorhombic
_symmetry_space_group_name_H-M   'P n m a'
_symmetry_Int_Tables_number      62
_space_group_name_Hall           '-P 2ac 2n'
loop_
_symmetry_equiv_pos_site_id
_symmetry_equiv_pos_as_xyz
1 x,y,z
2 1/2-x,-y,1/2+z
3 1/2+x,1/2-y,1/2-z
4 -x,1/2+y,-z
5 -x,-y,-z
6 1/2+x,y,1/2-z
7 1/2-x,1/2+y,1/2+z
8 x,1/2-y,z
_cell_length_a                   7.2919(15)
_cell_length_b                   37.309(8)
_cell_length_c                   9.0444(18)
_cell_angle_alpha                90
_cell_angle_beta                 90
_cell_angle_gamma                90
_cell_volume                     2460.56
loop_
_atom_site_label
_atom_site_type_symbol
_atom_site_fract_x
_atom_site_fract_y
_atom_site_fract_z
Sr1 Sr 0.73665(8) -0.2500 0.15532(7)
O1 O 0.8171(5) -0.31979(9) 0.0727(4)
O2 O 1.0338(5) -0.29052(8) 0.1919(4)
N1 N 0.9435(6) -0.41690(11) -0.3576(4)
N2 N 0.8072(6) -0.46733(11) -0.2373(5)
N3 N 0.8678(6) -0.43088(10) 0.0376(4)
N4 N 0.9263(6) -0.40746(11) 0.1384(4)
N5 N 1.0133(5) -0.38204(9) 0.0635(4)
N6 N 1.0121(5) -0.38709(9) -0.0814(4)
C1 C 0.8883(6) -0.43519(12) -0.2390(5)
C2 C 0.9111(7) -0.43322(16) -0.4888(6)
H1 H 0.9462 -0.4217 -0.5755
C3 C 0.8285(9) -0.46600(17) -0.4980(7)
H2 H 0.8077 -0.4769 -0.5890
C4 C 0.7783(8) -0.48206(17) -0.3705(8)
H3 H 0.7212 -0.5043 -0.3752
C5 C 0.9215(6) -0.41767(11) -0.0945(5)
C6 C 1.0936(7) -0.35108(12) 0.1346(5)
H4 H 1.2088 -0.3454 0.0863
H5 H 1.1204 -0.3570 0.2368
C7 C 0.9699(4) -0.31775(8) 0.1310(3)
O3 O 0.3822(4) -0.25000(8) 0.0520(3)
O4 O 0.8066(4) -0.25000(8) -0.1195(3)
H6 H 0.846(11) -0.2678(14) -0.168(7)
H7 H 0.386(10) -0.2675(14) -0.008(7)
H7G H 0.386(10) -0.2325(14) -0.008(7)
H6G H 0.846(11) -0.2322(14) -0.168(7)
O1G O 0.8171(5) -0.18021(9) 0.0727(4)
O2G O 1.0338(5) -0.20948(8) 0.1919(4)
N1G N 0.9435(6) -0.08310(11) -0.3576(4)
N2G N 0.8072(6) -0.03267(11) -0.2373(5)
N3G N 0.8678(6) -0.06912(10) 0.0376(4)
N4G N 0.9263(6) -0.09254(11) 0.1384(4)
N5G N 1.0133(5) -0.11796(9) 0.0635(4)
N6G N 1.0121(5) -0.11291(9) -0.0814(4)
C1G C 0.8883(6) -0.06481(12) -0.2390(5)
C2G C 0.9111(7) -0.06678(16) -0.4888(6)
H1G H 0.9462 -0.0783 -0.5755
C3G C 0.8285(9) -0.03400(17) -0.4980(7)
H2G H 0.8077 -0.0231 -0.5890
C4G C 0.7783(8) -0.01794(17) -0.3705(8)
H3G H 0.7212 0.0043 -0.3752
C5G C 0.9215(6) -0.08233(11) -0.0945(5)
C6G C 1.0936(7) -0.14892(12) 0.1346(5)
H4G H 1.2088 -0.1546 0.0863
H5G H 1.1204 -0.1430 0.2368
C7G C 0.9699(4) -0.18225(8) 0.1310(3)
Sr1B Sr 0.23665(8) -0.2500 0.34468(7)
Sr1B_2 Sr 1.23665(8) -0.2500 0.34468(7)
O2B O 0.5338(5) -0.20948(8) 0.3081(4)
O2E O 0.5338(5) -0.29052(8) 0.3081(4)
O3B O 0.8822(4) -0.25000(8) 0.4480(3)
O5 O 0.2664(4) -0.30382(8) -0.1592(3)
H8 H 0.3638 -0.3162 -0.1695
H9 H 0.192(5) -0.3117(18) -0.223(8)
O6 O 0.0566(4) -0.34373(8) -0.3857(3)
H10 H 0.1295 -0.3359 -0.4546
H11 H 0.0800 -0.3659 -0.3766
loop_
_geom_bond_atom_site_label_1
_geom_bond_atom_site_label_2
_geom_bond_site_symmetry_1
_geom_bond_site_symmetry_2
Sr1 O1 1_555 1_555
O1 C7 1_555 1_555
O2 Sr1 1_555 1_555
N1 C1 1_555 1_555
N2 C1 1_555 1_555
N3 N4 1_555 1_555
N4 N5 1_555 1_555
N5 N6 1_555 1_555
N6 C5 1_555 1_555
C1 C5 1_555 1_555
C2 N1 1_555 1_555
H1 C2 1_555 1_555
C3 C2 1_555 1_555
H2 C3 1_555 1_555
C4 N2 1_555 1_555
H3 C4 1_555 1_555
C5 N3 1_555 1_555
C6 N5 1_555 1_555
H4 C6 1_555 1_555
H5 C6 1_555 1_555
C7 O2 1_555 1_555
O3 Sr1 1_555 1_555
O4 Sr1 1_555 1_555
H6 O4 1_555 1_555
H7 O3 1_555 1_555
O5 H8 1_555 1_555
H9 O5 1_555 1_555
O6 H10 1_555 1_555
H11 O6 1_555 1_555
H7G O3 1_555 1_555
H6G O4 1_555 1_555
O1G Sr1 1_555 1_555
O2G Sr1 1_555 1_555
N1G C1G 1_555 1_555
N2G C1G 1_555 1_555
N3G N4G 1_555 1_555
N4G N5G 1_555 1_555
N5G N6G 1_555 1_555
N6G C5G 1_555 1_555
C1G C5G 1_555 1_555
C2G N1G 1_555 1_555
H1G C2G 1_555 1_555
C3G C2G 1_555 1_555
H2G C3G 1_555 1_555
C4G N2G 1_555 1_555
H3G C4G 1_555 1_555
C5G N3G 1_555 1_555
C6G N5G 1_555 1_555
H4G C6G 1_555 1_555
H5G C6G 1_555 1_555
C7G O1G 1_555 1_555
Sr1B O3 1_555 1_555
Sr1B_2 O2 1_555 1_555
O2B Sr1 1_555 1_555
O2E Sr1 1_555 1_555
O3B Sr1 1_555 1_555
C3 C4 1_555 1_555
C6 C7 1_555 1_555
O2G C7G 1_555 1_555
O2G Sr1B_2 1_555 1_555
C3G C4G 1_555 1_555
C6G C7G 1_555 1_555
Sr1B O2B 1_555 1_555
Sr1B O2E 1_555 1_555
Sr1B_2 O3B 1_555 1_555

#END
