
#######################################################################
#
#                 Cambridge Crystallographic Data Centre
#                                CCDC 
#
#######################################################################
#
# If this CIF has been generated from an entry in the Cambridge 
# Structural Database, then it will include bibliographic, chemical, 
# crystal, experimental, refinement or atomic coordinate data resulting 
# from the CCDC's data processing and validation procedures.
#
#######################################################################

data_FUJKUS
_symmetry_cell_setting           triclinic
_symmetry_space_group_name_H-M   'P -1'
_symmetry_Int_Tables_number      2
_space_group_name_Hall           '-P 1'
loop_
_symmetry_equiv_pos_site_id
_symmetry_equiv_pos_as_xyz
1 x,y,z
2 -x,-y,-z
_cell_length_a                   6.6374(3)
_cell_length_b                   9.5714(4)
_cell_length_c                   19.8900(8)
_cell_angle_alpha                85.190(3)
_cell_angle_beta                 82.971(4)
_cell_angle_gamma                88.016(4)
_cell_volume                     1249.3
loop_
_atom_site_label
_atom_site_type_symbol
_atom_site_fract_x
_atom_site_fract_y
_atom_site_fract_z
C1 C 0.2570(5) 0.4341(3) 1.02687(16)
C2 C 0.3815(5) 0.3317(3) 0.93172(16)
C3 C 0.3638(5) 0.2099(3) 1.03473(16)
C4 C 0.1236(5) 0.5871(3) 1.12037(16)
C5 C 0.1227(5) 0.4914(3) 1.17759(16)
H1 H 0.1566 0.3954 1.1722
C6 C 0.0727(5) 0.5362(3) 1.24194(17)
H2 H 0.0739 0.4706 1.2805
C7 C 0.0203(5) 0.6764(3) 1.25123(16)
C8 C 0.0195(6) 0.7714(3) 1.19362(17)
H3 H -0.0173 0.8670 1.1991
C9 C 0.0713(6) 0.7284(3) 1.12929(17)
H4 H 0.0716 0.7944 1.0908
C10 C -0.0325(5) 0.7268(4) 1.32034(17)
C11 C 0.4168(5) 0.4403(3) 0.81161(16)
C12 C 0.3596(6) 0.5784(3) 0.82269(17)
H5 H 0.3304 0.6060 0.8677
C13 C 0.3452(5) 0.6760(3) 0.76747(16)
H6 H 0.3005 0.7693 0.7752
C14 C 0.3951(5) 0.6394(3) 0.70102(16)
C15 C 0.4592(5) 0.5026(3) 0.68988(16)
H7 H 0.4976 0.4770 0.6449
C16 C 0.4670(5) 0.4030(3) 0.74483(15)
H8 H 0.5068 0.3089 0.7370
C17 C 0.3737(5) 0.7492(3) 0.64413(16)
C18 C 0.3769(6) 0.0709(3) 1.14538(16)
C19 C 0.5287(6) -0.0033(3) 1.17699(16)
H9 H 0.6480 -0.0346 1.1505
C20 C 0.5060(5) -0.0316(3) 1.24713(16)
H10 H 0.6087 -0.0839 1.2682
C21 C 0.3336(6) 0.0162(3) 1.28681(16)
C22 C 0.1860(6) 0.0946(3) 1.25515(16)
H11 H 0.0709 0.1311 1.2819
C23 C 0.2053(5) 0.1199(3) 1.18496(16)
H12 H 0.1013 0.1707 1.1638
C24 C 0.3069(5) -0.0201(3) 1.36226(16)
N1 N 0.3041(4) 0.4474(3) 0.95891(13)
N2 N 0.4180(5) 0.2068(3) 0.96769(13)
N3 N 0.2794(5) 0.3176(3) 1.06759(13)
N4 N 0.1809(5) 0.5540(3) 1.05349(13)
H13 H 0.1646 0.6240 1.0228
N5 N 0.4335(4) 0.3327(3) 0.86361(13)
H14 H 0.4862 0.2531 0.8496
N6 N 0.4040(5) 0.0896(3) 1.07362(13)
H15 H 0.4512 0.0168 1.0518
O1 O 0.4847(4) 0.7418(2) 0.58804(11)
O2 O 0.2413(4) 0.8439(2) 0.65671(12)
O3 O 0.4523(4) -0.0847(2) 1.38781(11)
O4 O 0.1408(4) 0.0150(2) 1.39699(11)
O5 O -0.1146(4) 0.8488(2) 1.32159(11)
O6 O 0.0025(4) 0.6521(2) 1.37280(11)
O7 O 0.7036(4) 0.9690(2) 0.48234(11)
H16 H 0.787(5) 0.956(4) 0.5106(17)
O8 O 0.6293(4) 0.6626(3) 0.46064(12)
H17 H 0.733(4) 0.666(5) 0.4316(18)
H18 H 0.673(7) 0.622(4) 0.4952(15)
O9 O 0.1867(4) 0.7342(3) 0.48856(13)
H19 H 0.108(6) 0.702(5) 0.5220(15)
H20 H 0.162(7) 0.703(5) 0.4523(13)
Co1 Co 0.45159(8) 0.84145(5) 0.49075(2)
Co2 Co 0.84424(9) 0.98186(5) 0.39089(2)
O2A O 0.7587(4) 1.1561(2) 0.34329(12)
O3_2 O 0.4523(4) 0.9153(2) 0.38781(11)
O4_2 O 1.1408(4) 1.0150(2) 0.39699(11)
O5_2 O 0.8854(4) 0.8488(2) 0.32159(11)
O7A O 0.2964(4) 1.0310(2) 0.51766(11)
Co1_2 Co 0.45159(8) -0.15855(5) 1.49075(2)
Co1A Co 0.54841(8) 1.15855(5) 0.50925(2)
Co2_2 Co -0.15576(9) -0.01814(5) 1.39089(2)
Co2_3 Co -0.15576(9) 0.98186(5) 1.39089(2)
Co2A Co 0.15576(9) 1.01814(5) 0.60911(2)
O10 O 0.8838(5) 0.6121(3) 0.57528(14)
H21 H 0.783(5) 0.651(5) 0.596(2)
H22 H 0.904(8) 0.539(3) 0.600(2)
O11 O 0.1296(13) 0.8044(8) 0.9531(4)
O12? O 0.079(3) 0.9351(19) 0.9723(9)
loop_
_geom_bond_atom_site_label_1
_geom_bond_atom_site_label_2
_geom_bond_site_symmetry_1
_geom_bond_site_symmetry_2
C1 N1 1_555 1_555
C2 N1 1_555 1_555
C3 N2 1_555 1_555
C4 C5 1_555 1_555
C5 H1 1_555 1_555
C6 C5 1_555 1_555
H2 C6 1_555 1_555
C7 C6 1_555 1_555
C8 C7 1_555 1_555
H3 C8 1_555 1_555
C9 C4 1_555 1_555
H4 C9 1_555 1_555
C10 C7 1_555 1_555
C11 C12 1_555 1_555
C12 H5 1_555 1_555
C13 C12 1_555 1_555
H6 C13 1_555 1_555
C14 C13 1_555 1_555
C15 C14 1_555 1_555
H7 C15 1_555 1_555
C16 C11 1_555 1_555
H8 C16 1_555 1_555
C17 C14 1_555 1_555
C18 C19 1_555 1_555
C19 H9 1_555 1_555
C20 C19 1_555 1_555
H10 C20 1_555 1_555
C21 C20 1_555 1_555
C22 C21 1_555 1_555
H11 C22 1_555 1_555
C23 C18 1_555 1_555
H12 C23 1_555 1_555
C24 C21 1_555 1_555
N2 C2 1_555 1_555
N3 C1 1_555 1_555
N4 C1 1_555 1_555
H13 N4 1_555 1_555
N5 C2 1_555 1_555
H14 N5 1_555 1_555
N6 C3 1_555 1_555
H15 N6 1_555 1_555
O1 C17 1_555 1_555
O2 C17 1_555 1_555
O3 C24 1_555 1_555
O4 C24 1_555 1_555
O5 C10 1_555 1_555
O6 C10 1_555 1_555
O7 H16 1_555 1_555
O8 H17 1_555 1_555
H18 O8 1_555 1_555
O9 H19 1_555 1_555
H20 O9 1_555 1_555
Co1 O1 1_555 1_555
Co2 O7 1_555 1_555
O10 H21 1_555 1_555
H22 O10 1_555 1_555
O2A Co2 1_555 1_555
O3_2 Co1 1_555 1_555
O4_2 Co2 1_555 1_555
O5_2 Co2 1_555 1_555
O7A Co1 1_555 1_555
Co1_2 O3 1_555 1_555
Co1A O7 1_555 1_555
Co2_2 O4 1_555 1_555
Co2_3 O5 1_555 1_555
Co2A O2 1_555 1_555
C3 N3 1_555 1_555
C4 N4 1_555 1_555
C8 C9 1_555 1_555
C11 N5 1_555 1_555
C15 C16 1_555 1_555
C18 N6 1_555 1_555
C22 C23 1_555 1_555
O7 Co1 1_555 1_555
O8 Co1 1_555 1_555
O9 Co1 1_555 1_555
O7A Co1A 1_555 1_555
O7A Co2A 1_555 1_555

#END
