
#######################################################################
#
#                 Cambridge Crystallographic Data Centre
#                                CCDC 
#
#######################################################################
#
# If this CIF has been generated from an entry in the Cambridge 
# Structural Database, then it will include bibliographic, chemical, 
# crystal, experimental, refinement or atomic coordinate data resulting 
# from the CCDC's data processing and validation procedures.
#
#######################################################################

data_FUJMUU
_symmetry_cell_setting           monoclinic
_symmetry_space_group_name_H-M   'P 21/c'
_symmetry_Int_Tables_number      14
_space_group_name_Hall           '-P 2ybc'
loop_
_symmetry_equiv_pos_site_id
_symmetry_equiv_pos_as_xyz
1 x,y,z
2 -x,1/2+y,1/2-z
3 -x,-y,-z
4 x,1/2-y,1/2+z
_cell_length_a                   11.1911(5)
_cell_length_b                   8.5189(3)
_cell_length_c                   13.6449(6)
_cell_angle_alpha                90
_cell_angle_beta                 111.538(6)
_cell_angle_gamma                90
_cell_volume                     1210.02
loop_
_atom_site_label
_atom_site_type_symbol
_atom_site_fract_x
_atom_site_fract_y
_atom_site_fract_z
Pb1 Pb 0.12959(3) -0.59295(3) 0.39718(2)
N1 N 0.2472(6) -0.0855(7) 0.8154(5)
C1 C 0.1915(8) -0.1536(9) 0.7218(6)
H1 H 0.1056 -0.1317 0.6832
C2 C 0.2568(8) -0.2569(8) 0.6790(6)
C3 C 0.3846(8) -0.2829(11) 0.7362(7)
H2 H 0.4315 -0.3508 0.7107
C4 C 0.4428(8) -0.2084(12) 0.8309(7)
H3 H 0.5301 -0.2224 0.8689
C5 C 0.3712(9) -0.1130(10) 0.8689(7)
H4 H 0.4106 -0.0660 0.9344
C6 C 0.1913(8) -0.3342(9) 0.5758(6)
C7 C -0.0907(7) -0.3142(8) 0.3677(6)
H5 H -0.1212 -0.2292 0.3944
O1 O 0.2567(6) -0.4325(7) 0.5461(5)
N2 N 0.0710(6) -0.2950(7) 0.5244(5)
N3 N 0.0170(7) -0.3693(7) 0.4270(5)
C8 C -0.1716(8) -0.3669(8) 0.2644(6)
C9 C -0.1332(8) -0.4786(9) 0.2036(6)
C10 C -0.2184(9) -0.5060(9) 0.1002(7)
H6 H -0.1935 -0.5734 0.0576
C11 C -0.3348(9) -0.4380(10) 0.0607(7)
H7 H -0.3894 -0.4622 -0.0075
C12 C -0.3749(8) -0.3333(10) 0.1193(7)
H8 H -0.4556 -0.2866 0.0914
C13 C -0.2936(8) -0.2998(10) 0.2191(7)
H9 H -0.3204 -0.2292 0.2589
O2 O -0.0229(6) -0.5531(6) 0.2388(5)
Pb1C Pb 0.12959(3) 0.09295(3) 0.89718(2)
N1C N 0.2472(6) -0.4145(7) 0.3154(5)
loop_
_geom_bond_atom_site_label_1
_geom_bond_atom_site_label_2
_geom_bond_site_symmetry_1
_geom_bond_site_symmetry_2
Pb1 O1 1_555 1_555
N1 C1 1_555 1_555
C1 H1 1_555 1_555
C2 C1 1_555 1_555
C3 C2 1_555 1_555
H2 C3 1_555 1_555
C4 C3 1_555 1_555
H3 C4 1_555 1_555
C5 N1 1_555 1_555
H4 C5 1_555 1_555
C6 C2 1_555 1_555
C7 H5 1_555 1_555
O1 C6 1_555 1_555
N2 C6 1_555 1_555
N3 Pb1 1_555 1_555
C8 C7 1_555 1_555
C9 C8 1_555 1_555
C10 C9 1_555 1_555
H6 C10 1_555 1_555
C11 C10 1_555 1_555
H7 C11 1_555 1_555
C12 C11 1_555 1_555
H8 C12 1_555 1_555
C13 C8 1_555 1_555
H9 C13 1_555 1_555
O2 Pb1 1_555 1_555
Pb1C N1 1_555 1_555
N1C Pb1 1_555 1_555
C4 C5 1_555 1_555
C7 N3 1_555 1_555
N2 N3 1_555 1_555
C9 O2 1_555 1_555
C12 C13 1_555 1_555

#END
