
#######################################################################
#
#                 Cambridge Crystallographic Data Centre
#                                CCDC 
#
#######################################################################
#
# If this CIF has been generated from an entry in the Cambridge 
# Structural Database, then it will include bibliographic, chemical, 
# crystal, experimental, refinement or atomic coordinate data resulting 
# from the CCDC's data processing and validation procedures.
#
#######################################################################

data_FUJVEN
_symmetry_cell_setting           monoclinic
_symmetry_space_group_name_H-M   'P 21/a'
_symmetry_Int_Tables_number      14
_space_group_name_Hall           '-P 2yab'
loop_
_symmetry_equiv_pos_site_id
_symmetry_equiv_pos_as_xyz
1 x,y,z
2 1/2-x,1/2+y,-z
3 -x,-y,-z
4 1/2+x,1/2-y,z
_cell_length_a                   11.1101(8)
_cell_length_b                   17.9059(13)
_cell_length_c                   14.2992(10)
_cell_angle_alpha                90
_cell_angle_beta                 102.8280(10)
_cell_angle_gamma                90
_cell_volume                     2773.63
loop_
_atom_site_label
_atom_site_type_symbol
_atom_site_fract_x
_atom_site_fract_y
_atom_site_fract_z
Zn1 Zn 0.57623(4) 1.01227(3) 0.28354(3)
Zn2 Zn 0.54096(4) 0.83555(3) 0.37881(3)
Cl1 Cl 0.71654(11) 1.06438(7) 0.21286(8)
N1 N 0.4325(3) 0.89164(19) 0.4557(2)
O1 O 0.5987(2) 0.90695(15) 0.29980(19)
H1 H 0.6766 0.9018 0.3147
N2 N 0.4905(3) 0.90628(19) 0.5468(2)
N3 N 0.6860(3) 0.80560(19) 0.4844(2)
C1 C 0.3183(3) 0.9209(2) 0.4442(3)
C2 C 0.2188(3) 0.9212(2) 0.3578(3)
C3 C 0.6895(5) 0.7448(3) 0.5389(3)
H2 H 0.6279 0.7089 0.5221
C4 C 1.0693(4) 0.7323(3) 0.8978(3)
C5 C 0.2325(4) 0.8974(3) 0.2695(3)
H3 H 0.3081 0.8779 0.2634
C6 C 0.8773(4) 0.7855(3) 0.6471(3)
C7 C 0.7838(5) 0.7337(3) 0.6206(3)
H4 H 0.7835 0.6910 0.6576
C8 C 0.8746(4) 0.8453(3) 0.5879(3)
H5 H 0.9377 0.8805 0.6008
C9 C 0.0095(4) 0.9524(3) 0.2856(4)
H6 H -0.0666 0.9707 0.2919
C10 C 0.9803(4) 0.7347(3) 0.8043(3)
H7 H 0.9187 0.6986 0.7943
C11 C 0.1042(4) 0.9474(3) 0.3651(3)
H8 H 0.0914 0.9618 0.4246
C12 C 1.1723(5) 0.7781(3) 0.9219(3)
H9 H 1.1891 0.8120 0.8771
C13 C 1.0493(4) 0.6822(3) 0.9657(3)
H10 H 0.9826 0.6497 0.9501
C14 C 0.0248(4) 0.9306(3) 0.1961(3)
C15 C 0.7792(4) 0.8540(3) 0.5093(3)
H11 H 0.7794 0.8960 0.4711
C16 C 0.9779(5) 0.7805(3) 0.7358(3)
H12 H 1.0439 0.8133 0.7413
C17 C 0.1368(4) 0.9015(3) 0.1894(3)
H13 H 0.1483 0.8845 0.1306
C18 C 1.2265(4) 0.7249(2) 1.0799(3)
C19 C -0.0866(4) 0.9236(3) 0.0228(3)
H14 H -0.0205 0.8992 0.0060
C20 C 1.1247(4) 0.6789(3) 1.0557(3)
H15 H 1.1070 0.6455 1.1007
C21 C 1.2503(4) 0.7741(3) 1.0119(3)
H16 H 1.3193 0.8048 1.0267
C22 C -0.0781(4) 0.9411(3) 0.1141(3)
H17 H -0.1480 0.9632 0.1278
N4 N 1.4038(3) 0.7699(2) 1.2027(2)
C23 C 1.3059(4) 0.7247(2) 1.1771(3)
N5 N 1.2853(3) 0.6854(2) 1.2513(2)
C24 C -0.2154(4) 0.9077(3) -0.1424(3)
H18 H -0.1566 0.8751 -0.1563
C25 C -0.2865(4) 0.9905(3) -0.0392(3)
H19 H -0.2769 1.0156 0.0190
C26 C -0.1964(4) 0.9409(2) -0.0536(3)
N6 N 1.4423(3) 0.75689(19) 1.2977(2)
N7 N 0.3049(3) 0.9528(2) 0.5250(2)
N8 N 0.4130(3) 0.94248(19) 0.5859(2)
N9 N 1.3724(3) 0.7076(2) 1.3273(2)
C27 C -0.3213(4) 0.9225(2) -0.2108(3)
H20 H -0.3321 0.8989 -0.2700
C28 C -0.3892(4) 1.0028(3) -0.1101(3)
H21 H -0.4485 1.0359 -0.0983
N10 N -0.4086(3) 0.9690(2) -0.1962(2)
Zn1B Zn -0.57623(4) 0.98773(3) -0.28354(3)
Zn1B_2 Zn 0.42377(4) 0.98773(3) 0.71646(3)
Zn2_2 Zn 1.54096(4) 0.83555(3) 1.37881(3)
N6_2 N 0.4423(3) 0.75689(19) 0.2977(2)
N8B N 0.5870(3) 1.05752(19) 0.4141(2)
N10B N 0.4086(3) 1.0310(2) 0.1962(2)
loop_
_geom_bond_atom_site_label_1
_geom_bond_atom_site_label_2
_geom_bond_site_symmetry_1
_geom_bond_site_symmetry_2
Zn1 Cl1 1_555 1_555
Zn2 N1 1_555 1_555
N1 N2 1_555 1_555
O1 Zn1 1_555 1_555
H1 O1 1_555 1_555
N2 N8 1_555 1_555
N3 Zn2 1_555 1_555
C1 N1 1_555 1_555
C2 C1 1_555 1_555
C3 N3 1_555 1_555
H2 C3 1_555 1_555
C4 C10 1_555 1_555
C5 C2 1_555 1_555
H3 C5 1_555 1_555
C6 C7 1_555 1_555
C7 C3 1_555 1_555
H4 C7 1_555 1_555
C8 C6 1_555 1_555
H5 C8 1_555 1_555
C9 H6 1_555 1_555
C10 H7 1_555 1_555
C11 C2 1_555 1_555
H8 C11 1_555 1_555
C12 C4 1_555 1_555
H9 C12 1_555 1_555
C13 C4 1_555 1_555
H10 C13 1_555 1_555
C14 C9 1_555 1_555
C15 N3 1_555 1_555
H11 C15 1_555 1_555
C16 C6 1_555 1_555
H12 C16 1_555 1_555
C17 C5 1_555 1_555
H13 C17 1_555 1_555
C18 C20 1_555 1_555
C19 H14 1_555 1_555
C20 C13 1_555 1_555
H15 C20 1_555 1_555
C21 C12 1_555 1_555
H16 C21 1_555 1_555
C22 C14 1_555 1_555
H17 C22 1_555 1_555
N4 C23 1_555 1_555
C23 C18 1_555 1_555
N5 C23 1_555 1_555
C24 H18 1_555 1_555
C25 H19 1_555 1_555
C26 C19 1_555 1_555
N6 N4 1_555 1_555
N7 C1 1_555 1_555
N8 N7 1_555 1_555
N9 N5 1_555 1_555
C27 C24 1_555 1_555
H20 C27 1_555 1_555
C28 C25 1_555 1_555
H21 C28 1_555 1_555
N10 C27 1_555 1_555
Zn1B N10 1_555 1_555
Zn1B_2 N8 1_555 1_555
Zn2_2 N6 1_555 1_555
N6_2 Zn2 1_555 1_555
N8B Zn1 1_555 1_555
N10B Zn1 1_555 1_555
Zn2 O1 1_555 1_555
C8 C15 1_555 1_555
C9 C11 1_555 1_555
C10 C16 1_555 1_555
C14 C17 1_555 1_555
C18 C21 1_555 1_555
C19 C22 1_555 1_555
C24 C26 1_555 1_555
C25 C26 1_555 1_555
N6 N9 1_555 1_555
C28 N10 1_555 1_555

#END
