
#######################################################################
#
#                 Cambridge Crystallographic Data Centre
#                                CCDC 
#
#######################################################################
#
# If this CIF has been generated from an entry in the Cambridge 
# Structural Database, then it will include bibliographic, chemical, 
# crystal, experimental, refinement or atomic coordinate data resulting 
# from the CCDC's data processing and validation procedures.
#
#######################################################################

data_FUJWAK
_symmetry_cell_setting           monoclinic
_symmetry_space_group_name_H-M   'P 21/c'
_symmetry_Int_Tables_number      14
_space_group_name_Hall           '-P 2ybc'
loop_
_symmetry_equiv_pos_site_id
_symmetry_equiv_pos_as_xyz
1 x,y,z
2 -x,1/2+y,1/2-z
3 -x,-y,-z
4 x,1/2-y,1/2+z
_cell_length_a                   14.0528(6)
_cell_length_b                   17.8524(7)
_cell_length_c                   11.2380(5)
_cell_angle_alpha                90
_cell_angle_beta                 102.949(5)
_cell_angle_gamma                90
_cell_volume                     2747.65
loop_
_atom_site_label
_atom_site_type_symbol
_atom_site_fract_x
_atom_site_fract_y
_atom_site_fract_z
Zn1 Zn 0.12336(4) 0.66248(3) -0.03821(6)
Zn2 Zn 0.21538(4) 0.48513(3) -0.08927(6)
Cl1 Cl 0.29553(12) 0.43797(9) -0.22309(14)
N1 N 0.0510(3) 0.6099(2) 0.0801(4)
N2 N -0.0425(3) 0.5962(2) 0.0257(4)
O1 O 0.1985(3) 0.5910(2) -0.1036(4)
N3 N -0.0175(3) 0.5509(2) 0.2104(4)
N4 N 0.2995(3) 0.4638(3) 0.0782(4)
N5 N 0.2986(3) 0.7361(2) 0.0892(4)
N6 N 0.2020(3) 0.7467(2) 0.0484(4)
C1 C 0.0652(4) 0.5813(3) 0.1951(5)
C2 C 0.3289(4) 0.5946(3) 0.3628(6)
H1 H 0.3858 0.6190 0.3557
N7 N 0.1693(4) 0.7980(3) 0.1139(5)
C3 C 0.4509(4) 0.4901(4) 0.2179(6)
H2 H 0.5111 0.5141 0.2327
C4 C 0.4203(4) 0.7839(3) 0.2642(5)
C5 C 0.3877(4) 0.4966(4) 0.1058(6)
H3 H 0.4069 0.5252 0.0461
C6 C 0.3232(4) 0.7834(3) 0.1830(5)
C7 C 0.1562(4) 0.5771(3) 0.2890(5)
C8 C 0.4264(4) 0.5059(4) 0.5227(5)
H4 H 0.4147 0.4788 0.5938
N8 N 0.2451(4) 0.8220(3) 0.1992(5)
C9 C 0.3319(4) 0.5442(4) 0.4565(5)
C10 C 0.2424(4) 0.6095(3) 0.2789(6)
H5 H 0.2429 0.6422 0.2146
C11 C 0.4775(4) 0.4497(4) 0.4405(5)
H6 H 0.4849 0.3992 0.4755
C12 C 0.6019(5) 0.7729(4) 0.4274(6)
C13 C 0.3365(4) 0.4107(3) 0.2760(5)
H7 H 0.3180 0.3782 0.3314
C14 C 0.5307(5) 0.8227(4) 0.4465(6)
H8 H 0.5440 0.8537 0.5147
C15 C 0.4246(4) 0.4477(3) 0.3088(5)
C16 C 0.2764(4) 0.4207(3) 0.1648(5)
H9 H 0.2162 0.3965 0.1479
C17 C 0.2443(5) 0.5177(4) 0.4724(6)
H10 H 0.2432 0.4874 0.5393
C18 C 0.4422(4) 0.8270(4) 0.3680(6)
H11 H 0.3954 0.8597 0.3848
C19 C 0.1568(5) 0.5349(4) 0.3914(6)
H12 H 0.0982 0.5178 0.4066
C20 C 0.5803(5) 0.7295(4) 0.3220(7)
H13 H 0.6267 0.6962 0.3060
C21 C 0.4914(5) 0.7352(4) 0.2412(6)
H14 H 0.4786 0.7063 0.1706
C22 C 0.6939(6) 0.7708(4) 0.5244(8)
N9 N -0.0822(3) 0.5611(2) 0.1043(4)
C23 C 0.7603(6) 0.7267(4) 0.5233(7)
H15 H 0.7548 0.6963 0.4549
C24 C 0.8524(5) 0.7179(4) 0.6266(7)
C25 C 0.9123(5) 0.6599(4) 0.6283(7)
H16 H 0.9011 0.6263 0.5634
C26 C 0.8751(5) 0.7669(4) 0.7242(7)
H17 H 0.8358 0.8084 0.7267
C27 C 0.9899(5) 0.6492(4) 0.7241(6)
H18 H 1.0287 0.6073 0.7213
C28 C 0.9586(5) 0.7541(4) 0.8214(7)
H19 H 0.9742 0.7882 0.8855
N10 N 1.0146(3) 0.6934(3) 0.8208(4)
H20 H 0.212(4) 0.604(3) -0.155(5)
N1B N 0.9490(3) 0.3901(2) 0.9199(4)
N2B N 1.0425(3) 0.4038(2) 0.9743(4)
N3B N 1.0175(3) 0.4491(2) 0.7896(4)
N4B N 0.7005(3) 0.5362(3) 0.9218(4)
C1B C 0.9348(4) 0.4187(3) 0.8049(5)
C2B C 0.6711(4) 0.4054(3) 0.6372(6)
H1B H 0.6142 0.3810 0.6443
C3B C 0.5491(4) 0.5099(4) 0.7821(6)
H2B H 0.4889 0.4859 0.7673
C5B C 0.6123(4) 0.5034(4) 0.8942(6)
H3B H 0.5931 0.4748 0.9539
C7B C 0.8438(4) 0.4229(3) 0.7110(5)
C8B C 0.5736(4) 0.4941(4) 0.4773(5)
H4B H 0.5853 0.5212 0.4062
C9B C 0.6681(4) 0.4558(4) 0.5435(5)
C10B C 0.7576(4) 0.3905(3) 0.7211(6)
H5B H 0.7571 0.3578 0.7854
C11B C 0.5225(4) 0.5503(4) 0.5595(5)
H6B H 0.5151 0.6008 0.5245
C13B C 0.6635(4) 0.5893(3) 0.7240(5)
H7B H 0.6820 0.6218 0.6686
C15B C 0.5754(4) 0.5523(3) 0.6912(5)
C16B C 0.7236(4) 0.5793(3) 0.8352(5)
H9B H 0.7838 0.6035 0.8521
C17B C 0.7557(5) 0.4823(4) 0.5276(6)
H10B H 0.7568 0.5126 0.4607
C19B C 0.8432(5) 0.4651(4) 0.6086(6)
H12B H 0.9018 0.4822 0.5934
N9B N 1.0822(3) 0.4389(2) 0.8957(4)
Zn1B Zn -0.12336(4) 0.33752(3) 0.03821(6)
Zn2B Zn -0.21538(4) 0.51487(3) 0.08927(6)
Cl1B Cl -0.29553(12) 0.56203(9) 0.22309(14)
O1B O -0.1985(3) 0.4090(2) 0.1036(4)
N5B N -0.2986(3) 0.2639(2) -0.0892(4)
N6B N -0.2020(3) 0.2533(2) -0.0484(4)
N7B N -0.1693(4) 0.2020(3) -0.1139(5)
C4B C -0.4203(4) 0.2161(3) -0.2642(5)
C6B C -0.3232(4) 0.2166(3) -0.1830(5)
N8B N -0.2451(4) 0.1780(3) -0.1992(5)
C12B C -0.6019(5) 0.2271(4) -0.4274(6)
C14B C -0.5307(5) 0.1773(4) -0.4465(6)
H8B H -0.5440 0.1463 -0.5147
C18B C -0.4422(4) 0.1730(4) -0.3680(6)
H11B H -0.3954 0.1403 -0.3848
C20B C -0.5803(5) 0.2705(4) -0.3220(7)
H13B H -0.6267 0.3038 -0.3060
C21B C -0.4914(5) 0.2648(4) -0.2412(6)
H14B H -0.4786 0.2937 -0.1706
C22B C -0.6939(6) 0.2292(4) -0.5244(8)
C23B C -0.7603(6) 0.2733(4) -0.5233(7)
H15B H -0.7548 0.3037 -0.4549
C24B C -0.8524(5) 0.2821(4) -0.6266(7)
C25B C -0.9123(5) 0.3401(4) -0.6283(7)
H16B H -0.9011 0.3737 -0.5634
C26B C -0.8751(5) 0.2331(4) -0.7242(7)
H17B H -0.8358 0.1916 -0.7267
C27B C -0.9899(5) 0.3508(4) -0.7241(6)
H18B H -1.0287 0.3927 -0.7213
C28B C -0.9586(5) 0.2459(4) -0.8214(7)
H19B H -0.9742 0.2118 -0.8855
N10B N -1.0146(3) 0.3066(3) -0.8208(4)
H20B H -0.212(4) 0.396(3) 0.155(5)
Zn1_2 Zn 1.12336(4) 0.66248(3) 0.96179(6)
Zn1B_2 Zn -1.12336(4) 0.33752(3) -0.96179(6)
Zn1B_3 Zn 0.87664(4) 0.33752(3) 1.03821(6)
Zn2_2 Zn 1.21538(4) 0.48513(3) 0.91073(6)
Zn2B_2 Zn 0.78462(4) 0.51487(3) 1.08927(6)
N1B_2 N -0.0510(3) 0.3901(2) -0.0801(4)
N4B_2 N -0.2995(3) 0.5362(3) -0.0782(4)
N9B_2 N 0.0822(3) 0.4389(2) -0.1043(4)
N10_2 N 0.0146(3) 0.6934(3) -0.1792(4)
N10B_2 N -0.0146(3) 0.3066(3) 0.1792(4)
loop_
_geom_bond_atom_site_label_1
_geom_bond_atom_site_label_2
_geom_bond_site_symmetry_1
_geom_bond_site_symmetry_2
Zn1 N1 1_555 1_555
Zn2 Cl1 1_555 1_555
N1 N2 1_555 1_555
N2 N9 1_555 1_555
O1 Zn1 1_555 1_555
N3 C1 1_555 1_555
N4 Zn2 1_555 1_555
N5 N6 1_555 1_555
N6 Zn1 1_555 1_555
C1 N1 1_555 1_555
C2 H1 1_555 1_555
N7 N6 1_555 1_555
C3 H2 1_555 1_555
C4 C6 1_555 1_555
C5 N4 1_555 1_555
H3 C5 1_555 1_555
C6 N5 1_555 1_555
C7 C1 1_555 1_555
C8 H4 1_555 1_555
N8 N7 1_555 1_555
C9 C2 1_555 1_555
C10 C2 1_555 1_555
H5 C10 1_555 1_555
C11 C8 1_555 1_555
H6 C11 1_555 1_555
C12 C14 1_555 1_555
C13 H7 1_555 1_555
C14 H8 1_555 1_555
C15 C3 1_555 1_555
C16 N4 1_555 1_555
H9 C16 1_555 1_555
C17 C9 1_555 1_555
H10 C17 1_555 1_555
C18 C4 1_555 1_555
H11 C18 1_555 1_555
C19 C7 1_555 1_555
H12 C19 1_555 1_555
C20 C12 1_555 1_555
H13 C20 1_555 1_555
C21 C4 1_555 1_555
H14 C21 1_555 1_555
C22 C12 1_555 1_555
N9 N3 1_555 1_555
C23 C22 1_555 1_555
H15 C23 1_555 1_555
C24 C23 1_555 1_555
C25 C24 1_555 1_555
H16 C25 1_555 1_555
C26 C24 1_555 1_555
H17 C26 1_555 1_555
C27 C25 1_555 1_555
H18 C27 1_555 1_555
C28 C26 1_555 1_555
H19 C28 1_555 1_555
N10 C27 1_555 1_555
H20 O1 1_555 1_555
N1B N2B 1_555 1_555
N2B N9B 1_555 1_555
N3B C1B 1_555 1_555
N4B C5B 1_555 1_555
C1B N1B 1_555 1_555
C2B H1B 1_555 1_555
C3B H2B 1_555 1_555
C5B C3B 1_555 1_555
H3B C5B 1_555 1_555
C7B C1B 1_555 1_555
C8B C11 1_555 1_555
H4B C8B 1_555 1_555
C9B C2B 1_555 1_555
C10B C2B 1_555 1_555
H5B C10B 1_555 1_555
C11B C8 1_555 1_555
H6B C11B 1_555 1_555
C13B H7B 1_555 1_555
C15B C3B 1_555 1_555
C16B N4B 1_555 1_555
H9B C16B 1_555 1_555
C17B C9B 1_555 1_555
H10B C17B 1_555 1_555
C19B C7B 1_555 1_555
H12B C19B 1_555 1_555
N9B N3B 1_555 1_555
Zn1B O1B 1_555 1_555
Zn2B N9 1_555 1_555
Cl1B Zn2B 1_555 1_555
O1B Zn2B 1_555 1_555
N5B N6B 1_555 1_555
N6B Zn1B 1_555 1_555
N7B N6B 1_555 1_555
C4B C6B 1_555 1_555
C6B N5B 1_555 1_555
N8B N7B 1_555 1_555
C12B C14B 1_555 1_555
C14B H8B 1_555 1_555
C18B C4B 1_555 1_555
H11B C18B 1_555 1_555
C20B C12B 1_555 1_555
H13B C20B 1_555 1_555
C21B C4B 1_555 1_555
H14B C21B 1_555 1_555
C22B C12B 1_555 1_555
C23B C22B 1_555 1_555
H15B C23B 1_555 1_555
C24B C23B 1_555 1_555
C25B C24B 1_555 1_555
H16B C25B 1_555 1_555
C26B C24B 1_555 1_555
H17B C26B 1_555 1_555
C27B C25B 1_555 1_555
H18B C27B 1_555 1_555
C28B C26B 1_555 1_555
H19B C28B 1_555 1_555
N10B C27B 1_555 1_555
H20B O1B 1_555 1_555
Zn1_2 N10 1_555 1_555
Zn1B_2 N10B 1_555 1_555
Zn1B_3 N1B 1_555 1_555
Zn2_2 N9B 1_555 1_555
Zn2B_2 N4B 1_555 1_555
N1B_2 Zn1B 1_555 1_555
N4B_2 Zn2B 1_555 1_555
N9B_2 Zn2 1_555 1_555
N10_2 Zn1 1_555 1_555
N10B_2 Zn1B 1_555 1_555
Zn2 O1 1_555 1_555
C3 C5 1_555 1_555
C6 N8 1_555 1_555
C7 C10 1_555 1_555
C8 C9 1_555 1_555
C11 C15 1_555 1_555
C13 C15 1_555 1_555
C13 C16 1_555 1_555
C14 C18 1_555 1_555
C17 C19 1_555 1_555
C20 C21 1_555 1_555
C28 N10 1_555 1_555
C7B C10B 1_555 1_555
C8B C9B 1_555 1_555
C8B C11B 1_555 1_555
C11B C15B 1_555 1_555
C13B C15B 1_555 1_555
C13B C16B 1_555 1_555
C17B C19B 1_555 1_555
C6B N8B 1_555 1_555
C14B C18B 1_555 1_555
C20B C21B 1_555 1_555
C28B N10B 1_555 1_555

#END
