
#######################################################################
#
#                 Cambridge Crystallographic Data Centre
#                                CCDC 
#
#######################################################################
#
# If this CIF has been generated from an entry in the Cambridge 
# Structural Database, then it will include bibliographic, chemical, 
# crystal, experimental, refinement or atomic coordinate data resulting 
# from the CCDC's data processing and validation procedures.
#
#######################################################################

data_FULLOO
_symmetry_cell_setting           monoclinic
_symmetry_space_group_name_H-M   'C 2/m'
_symmetry_Int_Tables_number      12
_space_group_name_Hall           '-C 2y'
loop_
_symmetry_equiv_pos_site_id
_symmetry_equiv_pos_as_xyz
1 x,y,z
2 -x,y,-z
3 1/2+x,1/2+y,z
4 1/2-x,1/2+y,-z
5 -x,-y,-z
6 x,-y,z
7 1/2-x,1/2-y,-z
8 1/2+x,1/2-y,z
_cell_length_a                   6.6959(9)
_cell_length_b                   7.6783(13)
_cell_length_c                   7.7467(11)
_cell_angle_alpha                90
_cell_angle_beta                 111.919(17)
_cell_angle_gamma                90
_cell_volume                     369.491
loop_
_atom_site_label
_atom_site_type_symbol
_atom_site_fract_x
_atom_site_fract_y
_atom_site_fract_z
O1 O 0.95129 0.19763 0.30905
C1 C 1.02417 0.08853 0.17646
Ni1 Ni 1.00000 0.00000 0.50000
O3 O 0.66459 0.00000 0.37060
C2 C 1.00000 0.16257 0.00000
O1A O 1.04871 0.19763 -0.30905
O1D O 1.04871 -0.19763 -0.30905
O1E O 0.95129 -0.19763 0.30905
O1A_2 O 1.04871 0.19763 0.69095
O1D_2 O 1.04871 -0.19763 0.69095
C1A C 0.97583 0.08853 -0.17646
C1D C 0.97583 -0.08853 -0.17646
C1E C 1.02417 -0.08853 0.17646
Ni1_2 Ni 1.00000 0.00000 -0.50000
O3A O 1.33541 0.00000 0.62940
C2D C 1.00000 -0.16257 0.00000
O2 O -0.12064 0.50000 0.20472
loop_
_geom_bond_atom_site_label_1
_geom_bond_atom_site_label_2
_geom_bond_site_symmetry_1
_geom_bond_site_symmetry_2
O1 C1 1_555 1_555
C1 C2 1_555 1_555
Ni1 O1 1_555 1_555
O3 Ni1 1_555 1_555
C2 C1A 1_555 1_555
O1A C1A 1_555 1_555
O1D C1D 1_555 1_555
O1E Ni1 1_555 1_555
O1A_2 Ni1 1_555 1_555
O1D_2 Ni1 1_555 1_555
C1A C1D 1_555 1_555
C1D C2D 1_555 1_555
C1E C1 1_555 1_555
Ni1_2 O1A 1_555 1_555
O3A Ni1 1_555 1_555
C2D C1E 1_555 1_555
O1D Ni1_2 1_555 1_555
O1E C1E 1_555 1_555

#END
