
#######################################################################
#
#                 Cambridge Crystallographic Data Centre
#                                CCDC 
#
#######################################################################
#
# If this CIF has been generated from an entry in the Cambridge 
# Structural Database, then it will include bibliographic, chemical, 
# crystal, experimental, refinement or atomic coordinate data resulting 
# from the CCDC's data processing and validation procedures.
#
#######################################################################

data_FULLII
_symmetry_cell_setting           monoclinic
_symmetry_space_group_name_H-M   'C 2/m'
_symmetry_Int_Tables_number      12
_space_group_name_Hall           '-C 2y'
loop_
_symmetry_equiv_pos_site_id
_symmetry_equiv_pos_as_xyz
1 x,y,z
2 -x,y,-z
3 1/2+x,1/2+y,z
4 1/2-x,1/2+y,-z
5 -x,-y,-z
6 x,-y,z
7 1/2-x,1/2-y,-z
8 1/2+x,1/2-y,z
_cell_length_a                   6.8309(3)
_cell_length_b                   7.7450(3)
_cell_length_c                   7.8372(3)
_cell_angle_alpha                90
_cell_angle_beta                 112.817(4)
_cell_angle_gamma                90
_cell_volume                     382.184
loop_
_atom_site_label
_atom_site_type_symbol
_atom_site_fract_x
_atom_site_fract_y
_atom_site_fract_z
O1 O 1.00598 0.16994 0.30325
C1 C 1.00113 0.09781 0.14458
H1 H 0.59979 -0.11000 0.33394
Zn1 Zn 1.00000 0.00000 0.50000
O2 O 0.66212 0.00000 0.39089
C2 C 1.00000 0.20015 0.00000
H2 H 1.00000 0.31545 0.00000
O1A O 0.99402 0.16994 -0.30325
O1D O 0.99402 -0.16994 -0.30325
O1E O 1.00598 -0.16994 0.30325
O1A_2 O 0.99402 0.16994 0.69675
O1D_2 O 0.99402 -0.16994 0.69675
C1A C 0.99887 0.09781 -0.14458
C1D C 0.99887 -0.09781 -0.14458
C1E C 1.00113 -0.09781 0.14458
H1E H 0.59979 0.11000 0.33394
H1A H 1.40021 -0.11000 0.66606
H1D H 1.40021 0.11000 0.66606
Zn1_2 Zn 1.00000 0.00000 -0.50000
O2A O 1.33788 0.00000 0.60911
C2D C 1.00000 -0.20015 0.00000
H2D H 1.00000 -0.31545 0.00000
loop_
_geom_bond_atom_site_label_1
_geom_bond_atom_site_label_2
_geom_bond_site_symmetry_1
_geom_bond_site_symmetry_2
O1 C1 1_555 1_555
C1 C2 1_555 1_555
H1 O2 1_555 1_555
Zn1 O1 1_555 1_555
O2 Zn1 1_555 1_555
C2 H2 1_555 1_555
O1A C1A 1_555 1_555
O1D C1D 1_555 1_555
O1E Zn1 1_555 1_555
O1A_2 Zn1 1_555 1_555
O1D_2 Zn1 1_555 1_555
C1A C2 1_555 1_555
C1D C1A 1_555 1_555
C1E C1 1_555 1_555
H1E O2 1_555 1_555
H1A O2A 1_555 1_555
H1D O2A 1_555 1_555
Zn1_2 O1A 1_555 1_555
O2A Zn1 1_555 1_555
C2D C1D 1_555 1_555
H2D C2D 1_555 1_555
O1D Zn1_2 1_555 1_555
O1E C1E 1_555 1_555
C1E C2D 1_555 1_555

#END
