
#######################################################################
#
#                 Cambridge Crystallographic Data Centre
#                                CCDC 
#
#######################################################################
#
# If this CIF has been generated from an entry in the Cambridge 
# Structural Database, then it will include bibliographic, chemical, 
# crystal, experimental, refinement or atomic coordinate data resulting 
# from the CCDC's data processing and validation procedures.
#
#######################################################################

data_FULNOQ
_symmetry_cell_setting           orthorhombic
_symmetry_space_group_name_H-M   'P b c n'
_symmetry_Int_Tables_number      60
_space_group_name_Hall           '-P 2n 2ab'
loop_
_symmetry_equiv_pos_site_id
_symmetry_equiv_pos_as_xyz
1 x,y,z
2 1/2-x,1/2-y,1/2+z
3 -x,y,1/2-z
4 1/2+x,1/2-y,-z
5 -x,-y,-z
6 1/2+x,1/2+y,1/2-z
7 x,-y,1/2+z
8 1/2-x,1/2+y,z
_cell_length_a                   21.1071(16)
_cell_length_b                   10.5494(6)
_cell_length_c                   14.9173(9)
_cell_angle_alpha                90
_cell_angle_beta                 90
_cell_angle_gamma                90
_cell_volume                     3321.59
loop_
_atom_site_label
_atom_site_type_symbol
_atom_site_fract_x
_atom_site_fract_y
_atom_site_fract_z
P1 P 0.6547(3) 1.4201(4) -0.0448(3)
F1 F 0.7247(7) 1.4765(13) -0.0476(7)
F2 F 0.5899(6) 1.3579(11) -0.0402(9)
F3 F 0.6657(5) 1.4086(11) 0.0550(6)
F4 F 0.6852(6) 1.2852(10) -0.0573(7)
F5 F 0.6283(7) 1.5496(10) -0.0457(10)
F6 F 0.6559(6) 1.4123(12) -0.1476(7)
Ag1 Ag 0.37825(3) 0.96805(7) 0.29862(4)
Ag2 Ag 0.5000 0.87171(8) 0.7500
Ag3 Ag 0.5000 1.15030(8) 0.7500
C1 C 0.4432(4) 0.8291(9) 0.4674(6)
H1 H 0.4487 0.7650 0.4234
C2 C 0.4651(5) 0.8133(10) 0.5534(7)
H2 H 0.4859 0.7360 0.5676
C3 C 0.4288(4) 1.0090(9) 0.5991(6)
C4 C 0.4063(4) 1.0267(9) 0.5081(6)
H3 H 0.3859 1.1039 0.4925
C5 C 0.2502(5) 0.8195(10) 0.2426(7)
H4 H 0.2533 0.8821 0.1969
C6 C 0.2011(5) 0.7289(10) 0.2418(7)
C7 C 0.2361(4) 0.6403(9) 0.3682(6)
H5 H 0.2328 0.5790 0.4146
C8 C 0.2848(5) 0.7262(9) 0.3710(7)
H6 H 0.3143 0.7218 0.4191
C9 C 0.5458(5) 0.4423(9) 0.7148(8)
C10 C 0.5481(6) 0.5763(10) 0.7122(8)
H7 H 0.5826 0.6192 0.6847
N1 N 0.4134(3) 0.9397(7) 0.4475(5)
N2 N 0.4591(4) 0.8995(7) 0.6181(4)
N3 N 0.4182(3) 1.0969(7) 0.6624(4)
H8 H 0.3971 1.1674 0.6400
N4 N 0.2923(4) 0.8149(8) 0.3092(6)
N5 N 0.1929(3) 0.6400(7) 0.3018(5)
N6 N 0.1606(6) 0.7372(12) 0.1722(8)
H9 H 0.1290 0.6832 0.1675
H10 H 0.1658 0.7967 0.1315
N7 N 0.5873(10) 0.389(2) 0.6863(14)
H11 H 0.5880 0.3059 0.6882
H12 H 0.6190 0.4311 0.6620
N8 N 0.5000 0.3756(10) 0.7500
N9 N 0.5000 0.6412(11) 0.7500
Ag1B Ag 0.62175(3) 0.96805(7) 1.20138(4)
Ag1F Ag 0.37825(3) 1.03195(7) 0.79862(4)
Ag1G Ag 0.12175(3) 0.46805(7) 0.29862(4)
Ag1D Ag 0.62175(3) 1.03195(7) 0.70138(4)
Ag1G_2 Ag 0.12175(3) 1.46805(7) 0.29862(4)
Ag3_2 Ag 0.5000 0.15030(8) 0.7500
C1B C 0.5568(4) 0.8291(9) 1.0326(6)
H1B H 0.5513 0.7650 1.0766
C2B C 0.5349(5) 0.8133(10) 0.9466(7)
H2B H 0.5141 0.7360 0.9324
C3B C 0.5712(4) 1.0090(9) 0.9009(6)
C4B C 0.5937(4) 1.0267(9) 0.9919(6)
H3B H 0.6141 1.1039 1.0075
C5G C 0.2498(5) 1.3195(10) 0.2426(7)
H4G H 0.2467 1.3821 0.1969
C6G C 0.2989(5) 1.2289(10) 0.2418(7)
C7G C 0.2639(4) 1.1403(9) 0.3682(6)
H5G H 0.2672 1.0790 0.4146
C8G C 0.2152(5) 1.2262(9) 0.3710(7)
H6G H 0.1857 1.2218 0.4191
C9B C 0.4542(5) 0.4423(9) 0.7852(8)
C10B C 0.4519(6) 0.5763(10) 0.7878(8)
H7B H 0.4174 0.6192 0.8153
N1B N 0.5866(3) 0.9397(7) 1.0525(5)
N2B N 0.5409(4) 0.8995(7) 0.8819(4)
N3B N 0.5818(3) 1.0969(7) 0.8376(4)
N3F N 0.4182(3) 0.9031(7) 0.1624(4)
N3D N 0.5818(3) 0.9031(7) 1.3376(4)
H8B H 0.6029 1.1674 0.8600
H8F H 0.3971 0.8326 0.1400
H8D H 0.6029 0.8326 1.3600
N4G N 0.2077(4) 1.3149(8) 0.3092(6)
N4B N 0.7077(4) 0.8149(8) 1.1908(6)
N5G N 0.3071(3) 1.1400(7) 0.3018(5)
N5E N 0.6929(3) 1.1400(7) 1.1982(5)
N6G N 0.3394(6) 1.2372(12) 0.1722(8)
H9G H 0.3710 1.1832 0.1675
H10G H 0.3342 1.2967 0.1315
N7B N 0.4127(10) 0.389(2) 0.8137(14)
H11B H 0.4120 0.3059 0.8118
H12B H 0.3810 0.4311 0.8380
N8_2 N 0.5000 1.3756(10) 0.7500
loop_
_geom_bond_atom_site_label_1
_geom_bond_atom_site_label_2
_geom_bond_site_symmetry_1
_geom_bond_site_symmetry_2
Ag1 N1 1_555 1_555
Ag2 N2 1_555 1_555
Ag3 N3 1_555 1_555
P1 F1 1_555 1_555
F2 P1 1_555 1_555
F3 P1 1_555 1_555
F4 P1 1_555 1_555
F5 P1 1_555 1_555
F6 P1 1_555 1_555
C1 H1 1_555 1_555
C2 C1 1_555 1_555
H2 C2 1_555 1_555
C3 C4 1_555 1_555
C4 H3 1_555 1_555
C5 H4 1_555 1_555
C6 C5 1_555 1_555
C7 H5 1_555 1_555
C8 C7 1_555 1_555
H6 C8 1_555 1_555
C9 C10 1_555 1_555
C10 H7 1_555 1_555
N1 C1 1_555 1_555
N2 C2 1_555 1_555
N3 C3 1_555 1_555
H8 N3 1_555 1_555
N4 Ag1 1_555 1_555
N5 C6 1_555 1_555
N6 C6 1_555 1_555
H9 N6 1_555 1_555
H10 N6 1_555 1_555
N7 C9 1_555 1_555
H11 N7 1_555 1_555
H12 N7 1_555 1_555
N8 C9 1_555 1_555
N9 Ag2 1_555 1_555
Ag1B N1B 1_555 1_555
Ag1F N3 1_555 1_555
Ag1G N5 1_555 1_555
Ag1D N3B 1_555 1_555
Ag1G_2 N4G 1_555 1_555
Ag3_2 N8 1_555 1_555
C1B H1B 1_555 1_555
C2B C1B 1_555 1_555
H2B C2B 1_555 1_555
C3B C4B 1_555 1_555
C4B H3B 1_555 1_555
C5G H4G 1_555 1_555
C6G C5G 1_555 1_555
C7G H5G 1_555 1_555
C8G C7G 1_555 1_555
H6G C8G 1_555 1_555
C9B N8 1_555 1_555
C10B N9 1_555 1_555
H7B C10B 1_555 1_555
N1B C1B 1_555 1_555
N2B Ag2 1_555 1_555
N3B Ag3 1_555 1_555
N3F Ag1 1_555 1_555
N3D Ag1B 1_555 1_555
H8B N3B 1_555 1_555
H8F N3F 1_555 1_555
H8D N3D 1_555 1_555
N4G C5G 1_555 1_555
N4B Ag1B 1_555 1_555
N5G Ag1 1_555 1_555
N5E Ag1B 1_555 1_555
N6G C6G 1_555 1_555
H9G N6G 1_555 1_555
H10G N6G 1_555 1_555
N7B C9B 1_555 1_555
H11B N7B 1_555 1_555
H12B N7B 1_555 1_555
N8_2 Ag3 1_555 1_555
C3 N2 1_555 1_555
C4 N1 1_555 1_555
C5 N4 1_555 1_555
C7 N5 1_555 1_555
C8 N4 1_555 1_555
C10 N9 1_555 1_555
C2B N2B 1_555 1_555
C3B N2B 1_555 1_555
C3B N3B 1_555 1_555
C4B N1B 1_555 1_555
C6G N5G 1_555 1_555
C7G N5G 1_555 1_555
C8G N4G 1_555 1_555
C9B C10B 1_555 1_555

#END
