
#######################################################################
#
#                 Cambridge Crystallographic Data Centre
#                                CCDC 
#
#######################################################################
#
# If this CIF has been generated from an entry in the Cambridge 
# Structural Database, then it will include bibliographic, chemical, 
# crystal, experimental, refinement or atomic coordinate data resulting 
# from the CCDC's data processing and validation procedures.
#
#######################################################################

data_FULVAK
_symmetry_cell_setting           triclinic
_symmetry_space_group_name_H-M   'P -1'
_symmetry_Int_Tables_number      2
_space_group_name_Hall           '-P 1'
loop_
_symmetry_equiv_pos_site_id
_symmetry_equiv_pos_as_xyz
1 x,y,z
2 -x,-y,-z
_cell_length_a                   12.847(4)
_cell_length_b                   14.519(5)
_cell_length_c                   14.741(5)
_cell_angle_alpha                105.293(12)
_cell_angle_beta                 114.991(7)
_cell_angle_gamma                90.503(14)
_cell_volume                     2381.06
loop_
_atom_site_label
_atom_site_type_symbol
_atom_site_fract_x
_atom_site_fract_y
_atom_site_fract_z
Eu1 Eu 0.077719(19) -0.035198(15) 0.146692(18)
Eu2 Eu 0.504527(19) 0.437980(15) 0.863219(18)
Br1 Br 0.74228(5) 0.09853(4) 0.51841(4)
Br2 Br 0.64581(5) 0.19767(5) 0.30424(5)
Br3 Br -0.01040(6) 0.35365(4) 0.45936(4)
O1 O 0.2809(3) -0.0331(2) 0.2677(3)
O2 O 0.1838(3) 0.0774(2) 0.3200(3)
O3 O 0.3908(3) 0.3104(2) 0.6882(3)
O4 O 0.5827(3) 0.3271(2) 0.7655(3)
O5 O 0.1883(3) 0.0677(3) 0.1105(3)
O6 O 0.1037(3) 0.1270(2) -0.0246(3)
O7 O 0.4443(4) 0.2818(2) -0.1153(3)
O8 O 0.4545(3) 0.4107(2) 0.0065(3)
O9 O -0.0379(3) 0.0866(2) 0.1152(3)
O10 O -0.1254(3) 0.1429(2) -0.0221(3)
O11 O -0.3215(3) 0.5036(2) 0.1674(3)
O12 O -0.3252(3) 0.4253(2) 0.0117(2)
N1 N 0.0862(3) -0.1963(3) 0.1922(3)
N2 N -0.0466(4) -0.0664(3) 0.2408(4)
N3 N 0.4514(4) 0.5079(3) 0.7047(3)
N4 N 0.6718(4) 0.5460(3) 0.8620(3)
C1 C 0.3881(4) 0.0940(3) 0.4259(4)
C2 C 0.3830(4) 0.1624(3) 0.5103(4)
H1 H 0.3101 0.1756 0.5089
C3 C 0.4859(4) 0.2113(3) 0.5968(4)
C4 C 0.5924(4) 0.1922(3) 0.5979(4)
H2 H 0.6626 0.2252 0.6563
C5 C 0.5950(4) 0.1245(3) 0.5131(4)
C6 C 0.4942(4) 0.0745(3) 0.4274(4)
H3 H 0.4977 0.0276 0.3704
C7 C 0.2765(4) 0.0422(3) 0.3328(4)
C8 C 0.4847(4) 0.2868(3) 0.6884(4)
C9 C 0.3079(4) 0.1611(3) 0.0728(4)
C10 C 0.3184(4) 0.2123(3) 0.0086(4)
H4 H 0.2520 0.2149 -0.0520
C11 C 0.4255(4) 0.2596(3) 0.0330(4)
C12 C 0.5237(5) 0.2558(4) 0.1220(4)
H5 H 0.5972 0.2885 0.1398
C13 C 0.5114(4) 0.2028(4) 0.1839(4)
C14 C 0.4050(4) 0.1546(3) 0.1604(4)
H6 H 0.3987 0.1181 0.2032
C15 C 0.1909(4) 0.1147(3) 0.0504(4)
C16 C 0.4419(4) 0.3196(3) -0.0306(4)
C17 C -0.1101(4) 0.2351(3) 0.1419(4)
C18 C -0.1831(4) 0.2980(3) 0.0971(4)
H7 H -0.2190 0.2854 0.0231
C19 C -0.2040(4) 0.3795(3) 0.1602(4)
C20 C -0.1512(4) 0.3964(3) 0.2692(4)
H8 H -0.1651 0.4505 0.3134
C21 C -0.0788(4) 0.3336(4) 0.3116(4)
C22 C -0.0569(4) 0.2545(3) 0.2507(4)
H9 H -0.0059 0.2132 0.2823
C23 C -0.0906(4) 0.1476(3) 0.0729(4)
C24 C -0.2902(4) 0.4419(3) 0.1091(4)
C25 C 0.1544(4) -0.2593(3) 0.1729(4)
H10 H 0.2069 -0.2406 0.1489
C26 C 0.1535(5) -0.3512(4) 0.1859(5)
H11 H 0.2049 -0.3932 0.1720
C27 C 0.0771(5) -0.3796(4) 0.2189(5)
H12 H 0.0735 -0.4424 0.2264
C28 C 0.0041(4) -0.3157(4) 0.2416(4)
C29 C -0.0791(5) -0.3403(4) 0.2760(5)
H13 H -0.0855 -0.4025 0.2843
C30 C -0.1474(5) -0.2780(4) 0.2966(4)
H14 H -0.2022 -0.2968 0.3181
C31 C -0.1393(5) -0.1819(4) 0.2867(4)
C32 C -0.2137(6) -0.1171(4) 0.3035(5)
H15 H -0.2704 -0.1341 0.3238
C33 C -0.2025(7) -0.0296(5) 0.2901(6)
H16 H -0.2509 0.0164 0.3021
C34 C -0.1186(6) -0.0068(4) 0.2584(6)
H17 H -0.1132 0.0550 0.2489
C35 C -0.0588(4) -0.1550(4) 0.2522(4)
C36 C 0.0118(4) -0.2233(3) 0.2283(4)
C37 C 0.3442(5) 0.4897(4) 0.6273(4)
H18 H 0.2877 0.4510 0.6319
C38 C 0.3093(6) 0.5232(5) 0.5405(5)
H19 H 0.2317 0.5075 0.4872
C39 C 0.3907(6) 0.5800(5) 0.5342(5)
H20 H 0.3694 0.6047 0.4761
C40 C 0.5039(6) 0.6014(4) 0.6123(5)
C41 C 0.5919(7) 0.6610(5) 0.6100(6)
H21 H 0.5729 0.6874 0.5533
C42 C 0.7000(7) 0.6797(4) 0.6863(6)
H22 H 0.7563 0.7200 0.6833
C43 C 0.7339(5) 0.6403(4) 0.7738(5)
C44 C 0.8461(6) 0.6589(4) 0.8559(5)
H23 H 0.9061 0.6965 0.8546
C45 C 0.8684(5) 0.6227(4) 0.9374(5)
H24 H 0.9441 0.6353 0.9936
C46 C 0.7797(5) 0.5666(4) 0.9386(4)
H25 H 0.7973 0.5422 0.9965
C47 C 0.6483(5) 0.5828(4) 0.7794(4)
C48 C 0.5323(5) 0.5625(4) 0.6972(4)
Eu1A Eu -0.077719(19) 0.035198(15) -0.146692(18)
Eu2_2 Eu 0.504527(19) 0.437980(15) -0.136781(18)
Eu2A Eu 0.495473(19) 0.562020(15) 0.136781(18)
Eu2A_2 Eu -0.504527(19) 0.562020(15) 0.136781(18)
Eu2_3 Eu -0.495473(19) 0.437980(15) -0.136781(18)
O6A O -0.1037(3) -0.1270(2) 0.0246(3)
O7_2 O 0.4443(4) 0.2818(2) 0.8847(3)
O8_2 O 0.4545(3) 0.4107(2) 1.0065(3)
O8A O 0.5455(3) 0.5893(2) 0.9935(3)
O10A O 0.1254(3) -0.1429(2) 0.0221(3)
O11A O 0.3215(3) 0.4964(2) 0.8326(3)
O12_2 O 0.6748(3) 0.4253(2) 1.0117(2)
O13 O 0.4651(8) 0.9053(5) 0.1924(7)
O14 O 0.590(4) 0.021(3) 0.091(4)
O15? O 0.654(3) 0.0681(19) 0.029(2)
loop_
_geom_bond_atom_site_label_1
_geom_bond_atom_site_label_2
_geom_bond_site_symmetry_1
_geom_bond_site_symmetry_2
Eu1 O1 1_555 1_555
Eu2 O3 1_555 1_555
Br1 C5 1_555 1_555
Br2 C13 1_555 1_555
Br3 C21 1_555 1_555
O1 C7 1_555 1_555
O2 Eu1 1_555 1_555
O3 C8 1_555 1_555
O4 Eu2 1_555 1_555
O5 Eu1 1_555 1_555
O6 C15 1_555 1_555
O7 C16 1_555 1_555
O8 C16 1_555 1_555
O9 Eu1 1_555 1_555
O10 C23 1_555 1_555
O11 C24 1_555 1_555
O12 C24 1_555 1_555
N1 Eu1 1_555 1_555
N2 Eu1 1_555 1_555
N3 Eu2 1_555 1_555
N4 Eu2 1_555 1_555
C1 C2 1_555 1_555
C2 H1 1_555 1_555
C3 C2 1_555 1_555
C4 C3 1_555 1_555
H2 C4 1_555 1_555
C5 C4 1_555 1_555
C6 C1 1_555 1_555
H3 C6 1_555 1_555
C7 O2 1_555 1_555
C8 O4 1_555 1_555
C9 C10 1_555 1_555
C10 H4 1_555 1_555
C11 C10 1_555 1_555
C12 C11 1_555 1_555
H5 C12 1_555 1_555
C13 C12 1_555 1_555
C14 C9 1_555 1_555
H6 C14 1_555 1_555
C15 O5 1_555 1_555
C16 C11 1_555 1_555
C17 C18 1_555 1_555
C18 H7 1_555 1_555
C19 C18 1_555 1_555
C20 C19 1_555 1_555
H8 C20 1_555 1_555
C21 C20 1_555 1_555
C22 C17 1_555 1_555
H9 C22 1_555 1_555
C23 O9 1_555 1_555
C24 C19 1_555 1_555
C25 N1 1_555 1_555
H10 C25 1_555 1_555
C26 C25 1_555 1_555
H11 C26 1_555 1_555
C27 C26 1_555 1_555
H12 C27 1_555 1_555
C28 C27 1_555 1_555
C29 C28 1_555 1_555
H13 C29 1_555 1_555
C30 C29 1_555 1_555
H14 C30 1_555 1_555
C31 C30 1_555 1_555
C32 C31 1_555 1_555
H15 C32 1_555 1_555
C33 C32 1_555 1_555
H16 C33 1_555 1_555
C34 N2 1_555 1_555
H17 C34 1_555 1_555
C35 N2 1_555 1_555
C36 N1 1_555 1_555
C37 N3 1_555 1_555
H18 C37 1_555 1_555
C38 C37 1_555 1_555
H19 C38 1_555 1_555
C39 C38 1_555 1_555
H20 C39 1_555 1_555
C40 C39 1_555 1_555
C41 C40 1_555 1_555
H21 C41 1_555 1_555
C42 C41 1_555 1_555
H22 C42 1_555 1_555
C43 C42 1_555 1_555
C44 C43 1_555 1_555
H23 C44 1_555 1_555
C45 C44 1_555 1_555
H24 C45 1_555 1_555
C46 N4 1_555 1_555
H25 C46 1_555 1_555
C47 N4 1_555 1_555
C48 N3 1_555 1_555
Eu1A O6 1_555 1_555
Eu2_2 O7 1_555 1_555
Eu2A O8 1_555 1_555
Eu2A_2 O11 1_555 1_555
Eu2_3 O12 1_555 1_555
O6A Eu1 1_555 1_555
O7_2 Eu2 1_555 1_555
O8_2 Eu2 1_555 1_555
O8A Eu2 1_555 1_555
O10A Eu1 1_555 1_555
O11A Eu2 1_555 1_555
O12_2 Eu2 1_555 1_555
O8 Eu2_2 1_555 1_555
O10 Eu1A 1_555 1_555
C1 C7 1_555 1_555
C3 C8 1_555 1_555
C5 C6 1_555 1_555
C9 C15 1_555 1_555
C13 C14 1_555 1_555
C17 C23 1_555 1_555
C21 C22 1_555 1_555
C28 C36 1_555 1_555
C31 C35 1_555 1_555
C33 C34 1_555 1_555
C35 C36 1_555 1_555
C40 C48 1_555 1_555
C43 C47 1_555 1_555
C45 C46 1_555 1_555
C47 C48 1_555 1_555

#END
