
#######################################################################
#
#                 Cambridge Crystallographic Data Centre
#                                CCDC 
#
#######################################################################
#
# If this CIF has been generated from an entry in the Cambridge 
# Structural Database, then it will include bibliographic, chemical, 
# crystal, experimental, refinement or atomic coordinate data resulting 
# from the CCDC's data processing and validation procedures.
#
#######################################################################

data_FULVEP
_symmetry_cell_setting           monoclinic
_symmetry_space_group_name_H-M   'P 21/c'
_symmetry_Int_Tables_number      14
_space_group_name_Hall           '-P 2ybc'
loop_
_symmetry_equiv_pos_site_id
_symmetry_equiv_pos_as_xyz
1 x,y,z
2 -x,1/2+y,1/2-z
3 -x,-y,-z
4 x,1/2-y,1/2+z
_cell_length_a                   12.449(7)
_cell_length_b                   22.819(14)
_cell_length_c                   8.120(5)
_cell_angle_alpha                90
_cell_angle_beta                 106.509(7)
_cell_angle_gamma                90
_cell_volume                     2211.59
loop_
_atom_site_label
_atom_site_type_symbol
_atom_site_fract_x
_atom_site_fract_y
_atom_site_fract_z
Ni1 Ni 0.06643(5) 0.39542(3) 0.46502(8)
S1 S 0.50506(11) 0.42727(7) 0.35899(18)
S2 S 0.66996(11) 0.43271(7) 0.35898(17)
O1 O 0.1237(3) 0.47556(18) 0.3946(5)
H1 H 0.186(6) 0.466(3) 0.407(8)
H2 H 0.124(6) 0.498(3) 0.466(9)
O2 O 0.3132(4) 0.4244(2) 0.4168(7)
O3 O 0.2013(3) 0.35025(18) 0.4336(6)
O4 O 0.8975(3) 0.43160(15) 0.3896(4)
O5 O 0.9691(3) 0.38988(16) 0.2007(5)
N1 N -0.0018(4) 0.3172(2) 0.5189(7)
N2 N -0.0159(6) 0.2274(3) 0.6008(9)
H3 H 0.0022 0.1918 0.6315
N3 N 0.1250(4) 0.4150(2) 0.7217(6)
N4 N 0.1264(5) 0.4304(3) 0.9888(7)
H4 H 0.1026 0.4352 1.0775
C1 C 0.2901(4) 0.3711(3) 0.4152(7)
C2 C 0.3770(4) 0.3294(3) 0.3872(7)
C3 C 0.3574(5) 0.2693(3) 0.3883(9)
H5 H 0.2904 0.2563 0.4045
C4 C 0.4339(6) 0.2284(3) 0.3663(11)
H6 H 0.4190 0.1885 0.3674
C5 C 0.5342(6) 0.2486(3) 0.3422(11)
H7 H 0.5876 0.2219 0.3290
C6 C 0.5550(5) 0.3080(3) 0.3380(9)
H8 H 0.6216 0.3206 0.3195
C7 C 0.4779(4) 0.3496(3) 0.3609(7)
C8 C 0.6730(4) 0.4243(2) 0.1424(7)
C9 C 0.5737(5) 0.4262(3) 0.0061(8)
H9 H 0.5055 0.4324 0.0291
C10 C 0.5765(5) 0.4191(4) -0.1627(8)
H10 H 0.5109 0.4223 -0.2524
C11 C 0.6770(6) 0.4072(4) -0.1969(8)
H11 H 0.6784 0.3996 -0.3088
C12 C 0.7741(6) 0.4066(4) -0.0660(8)
H12 H 0.8416 0.4005 -0.0910
C13 C 0.7745(4) 0.4149(2) 0.1045(7)
C14 C 0.8862(4) 0.4130(2) 0.2386(7)
C15 C 0.0507(6) 0.2675(3) 0.5600(9)
H13 H 0.1245 0.2609 0.5609
C16 C -0.1166(7) 0.2526(4) 0.5852(12)
H14 H -0.1794 0.2351 0.6044
C17 C -0.1071(6) 0.3080(3) 0.5365(10)
H15 H -0.1634 0.3361 0.5174
C18 C 0.0661(6) 0.4199(5) 0.8308(9)
H16 H -0.0115 0.4161 0.7994
C19 C 0.2327(6) 0.4321(4) 0.9831(8)
H17 H 0.2958 0.4383 1.0756
C20 C 0.2314(5) 0.4234(4) 0.8207(9)
H18 H 0.2945 0.4231 0.7809
Ni1_2 Ni 1.06643(5) 0.39542(3) 0.46502(8)
O4_2 O -0.1025(3) 0.43160(15) 0.3896(4)
O5_2 O -0.0309(3) 0.38988(16) 0.2007(5)
loop_
_geom_bond_atom_site_label_1
_geom_bond_atom_site_label_2
_geom_bond_site_symmetry_1
_geom_bond_site_symmetry_2
Ni1 O1 1_555 1_555
S1 S2 1_555 1_555
S2 C8 1_555 1_555
O1 H1 1_555 1_555
H2 O1 1_555 1_555
O2 C1 1_555 1_555
O3 Ni1 1_555 1_555
O4 C14 1_555 1_555
O5 C14 1_555 1_555
N1 Ni1 1_555 1_555
N2 H3 1_555 1_555
N3 Ni1 1_555 1_555
N4 H4 1_555 1_555
C1 O3 1_555 1_555
C2 C1 1_555 1_555
C3 C2 1_555 1_555
H5 C3 1_555 1_555
C4 C3 1_555 1_555
H6 C4 1_555 1_555
C5 C4 1_555 1_555
H7 C5 1_555 1_555
C6 C5 1_555 1_555
H8 C6 1_555 1_555
C7 S1 1_555 1_555
C8 C9 1_555 1_555
C9 H9 1_555 1_555
C10 C9 1_555 1_555
H10 C10 1_555 1_555
C11 C10 1_555 1_555
H11 C11 1_555 1_555
C12 C11 1_555 1_555
H12 C12 1_555 1_555
C13 C8 1_555 1_555
C14 C13 1_555 1_555
C15 N1 1_555 1_555
H13 C15 1_555 1_555
C16 N2 1_555 1_555
H14 C16 1_555 1_555
C17 N1 1_555 1_555
H15 C17 1_555 1_555
C18 N3 1_555 1_555
H16 C18 1_555 1_555
C19 N4 1_555 1_555
H17 C19 1_555 1_555
C20 N3 1_555 1_555
H18 C20 1_555 1_555
Ni1_2 O4 1_555 1_555
O4_2 Ni1 1_555 1_555
O5_2 Ni1 1_555 1_555
O5 Ni1_2 1_555 1_555
N2 C15 1_555 1_555
N4 C18 1_555 1_555
C2 C7 1_555 1_555
C6 C7 1_555 1_555
C12 C13 1_555 1_555
C16 C17 1_555 1_555
C19 C20 1_555 1_555

#END
