
#######################################################################
#
#                 Cambridge Crystallographic Data Centre
#                                CCDC 
#
#######################################################################
#
# If this CIF has been generated from an entry in the Cambridge 
# Structural Database, then it will include bibliographic, chemical, 
# crystal, experimental, refinement or atomic coordinate data resulting 
# from the CCDC's data processing and validation procedures.
#
#######################################################################

data_FULYOC
_symmetry_cell_setting           triclinic
_symmetry_space_group_name_H-M   'P -1'
_symmetry_Int_Tables_number      2
_space_group_name_Hall           '-P 1'
loop_
_symmetry_equiv_pos_site_id
_symmetry_equiv_pos_as_xyz
1 x,y,z
2 -x,-y,-z
_cell_length_a                   9.6673(19)
_cell_length_b                   13.451(3)
_cell_length_c                   13.820(3)
_cell_angle_alpha                77.12(3)
_cell_angle_beta                 76.93(3)
_cell_angle_gamma                82.02(3)
_cell_volume                     1699.07
loop_
_atom_site_label
_atom_site_type_symbol
_atom_site_fract_x
_atom_site_fract_y
_atom_site_fract_z
Cu1 Cu 0.5000 0.5000 0.5000
Cu2 Cu 1.0000 0.0000 0.0000
Cr1 Cr 0.73661(3) 0.30466(2) 0.20939(2)
O1 O 0.99174(18) 0.52019(12) 0.21369(14)
O2 O 0.69587(17) 0.05647(13) 0.44388(12)
N1 N 0.4887(2) 0.43068(15) 0.34959(14)
N2 N 0.9506(2) 0.17089(15) 0.05856(15)
N3 N 0.57867(18) 0.20676(13) 0.22562(13)
N4 N 0.77566(19) 0.20118(13) 0.32823(13)
N5 N 0.89041(19) 0.36729(13) 0.23953(14)
N6 N 0.75226(19) 0.43491(13) 0.09431(13)
N7 N 0.71765(19) 0.47317(14) 0.46554(13)
H1 H 0.7403 0.4527 0.4050
N8 N 0.49606(19) 0.64069(13) 0.41278(13)
H2 H 0.5071 0.6323 0.3478
N9 N 1.03445(19) -0.07336(14) 0.13808(14)
H3 H 1.0505 -0.1413 0.1366
N10 N 0.79373(18) -0.02937(14) 0.03205(14)
H4 H 0.7932 -0.0951 0.0253
C1 C 0.5758(2) 0.38799(15) 0.29732(15)
C2 C 0.8754(2) 0.22084(16) 0.11004(15)
C3 C 0.4814(2) 0.21215(16) 0.16836(16)
H5 H 0.4864 0.2612 0.1088
C4 C 0.3737(2) 0.14669(18) 0.19546(17)
H6 H 0.3085 0.1515 0.1541
C5 C 0.3645(2) 0.07432(17) 0.28459(17)
H7 H 0.2915 0.0312 0.3050
C6 C 0.4662(2) 0.06711(17) 0.34308(16)
H8 H 0.4630 0.0185 0.4029
C7 C 0.5724(2) 0.13344(16) 0.31092(15)
C8 C 0.6893(2) 0.12627(16) 0.36934(15)
C9 C 0.8982(2) 0.21365(16) 0.36306(16)
C10 C 0.9609(2) 0.14431(18) 0.43546(17)
H9 H 0.9188 0.0847 0.4692
C11 C 1.0863(3) 0.16448(19) 0.45712(18)
H10 H 1.1288 0.1176 0.5047
C12 C 1.1488(3) 0.25403(19) 0.40831(19)
H11 H 1.2336 0.2660 0.4229
C13 C 1.0866(2) 0.32584(18) 0.33802(18)
H12 H 1.1277 0.3865 0.3071
C14 C 0.9612(2) 0.30612(16) 0.31397(16)
C15 C 0.9159(2) 0.46447(16) 0.19290(17)
C16 C 0.8401(2) 0.49975(16) 0.10562(17)
C17 C 0.8668(3) 0.59047(17) 0.03704(19)
H13 H 0.9258 0.6346 0.0471
C18 C 0.8041(3) 0.61419(18) -0.04658(19)
H14 H 0.8211 0.6745 -0.0939
C19 C 0.7164(3) 0.54808(19) -0.05949(18)
H15 H 0.6749 0.5626 -0.1162
C20 C 0.6905(2) 0.45934(18) 0.01308(17)
H16 H 0.6290 0.4157 0.0053
C21 C 0.8024(3) 0.55964(18) 0.45547(18)
H17 H 0.9025 0.5385 0.4329
H18 H 0.7910 0.5772 0.5214
C22 C 0.7584(3) 0.65374(18) 0.38114(18)
H19 H 0.7646 0.6344 0.3166
H20 H 0.8262 0.7039 0.3705
C23 C 0.6093(2) 0.70409(17) 0.41354(18)
H21 H 0.5988 0.7168 0.4813
H22 H 0.5975 0.7697 0.3683
C24 C 0.35118(17) 0.69325(12) 0.43965(12)
H23 H 0.3342 0.7500 0.3852
H24 H 0.3426 0.7200 0.5006
C25 C 0.24354(17) 0.61614(12) 0.45693(12)
H25 H 0.1483 0.6465 0.4807
H26 H 0.2452 0.5946 0.3942
C26 C 0.7114(2) -0.02182(18) 0.13418(18)
H27 H 0.6152 -0.0392 0.1407
H28 H 0.7054 0.0482 0.1432
C27 C 0.7792(3) -0.09277(18) 0.21622(18)
H29 H 0.7125 -0.0953 0.2805
H30 H 0.7950 -0.1613 0.2018
C28 C 0.9192(3) -0.06259(18) 0.22709(17)
H31 H 0.9064 0.0080 0.2357
H32 H 0.9469 -0.1053 0.2874
C29 C 1.1693(3) -0.04090(18) 0.14856(18)
H33 H 1.2077 -0.0892 0.2016
H34 H 1.1524 0.0260 0.1667
C30 C 0.7256(2) 0.03671(18) -0.04794(18)
H35 H 0.7002 0.1050 -0.0336
H36 H 0.6394 0.0091 -0.0507
N7A N 0.28235(19) 0.52683(14) 0.53446(13)
H1A H 0.2597 0.5473 0.5950
N8A N 0.50394(19) 0.35931(13) 0.58722(13)
H2A H 0.4929 0.3677 0.6522
C21A C 0.1976(3) 0.44036(18) 0.54453(18)
H17A H 0.0975 0.4615 0.5671
H18A H 0.2090 0.4228 0.4786
C22A C 0.2416(3) 0.34626(18) 0.61886(18)
H19A H 0.2354 0.3656 0.6834
H20A H 0.1738 0.2961 0.6295
C23A C 0.3907(2) 0.29591(17) 0.58646(18)
H21A H 0.4012 0.2832 0.5187
H22A H 0.4025 0.2303 0.6317
C24A C 0.64882(17) 0.30675(12) 0.56035(12)
H23A H 0.6658 0.2500 0.6148
H24A H 0.6574 0.2800 0.4994
C25A C 0.75646(17) 0.38386(12) 0.54307(12)
H25A H 0.8517 0.3535 0.5193
H26A H 0.7548 0.4054 0.6058
N9A N 0.96555(19) 0.07336(14) -0.13808(14)
H3A H 0.9495 0.1413 -0.1366
N10A N 1.20627(18) 0.02937(14) -0.03205(14)
H4A H 1.2068 0.0951 -0.0253
C26A C 1.2886(2) 0.02182(18) -0.13418(18)
H27A H 1.3848 0.0392 -0.1407
H28A H 1.2946 -0.0482 -0.1432
C27A C 1.2208(3) 0.09277(18) -0.21622(18)
H29A H 1.2875 0.0953 -0.2805
H30A H 1.2050 0.1613 -0.2018
C28A C 1.0808(3) 0.06259(18) -0.22709(17)
H31A H 1.0936 -0.0080 -0.2357
H32A H 1.0531 0.1053 -0.2874
C29A C 0.8307(3) 0.04090(18) -0.14856(18)
H33A H 0.7923 0.0892 -0.2016
H34A H 0.8476 -0.0260 -0.1667
C30A C 1.2744(2) -0.03671(18) 0.04794(18)
H35A H 1.2998 -0.1050 0.0336
H36A H 1.3606 -0.0091 0.0507
Cr1A Cr 0.26339(3) 0.69534(2) 0.79061(2)
O1A O 0.00826(18) 0.47981(12) 0.78631(14)
O2A O 0.30413(17) 0.94353(13) 0.55612(12)
N1A N 0.5113(2) 0.56932(15) 0.65041(14)
N2A N 0.0494(2) 0.82911(15) 0.94144(15)
N3A N 0.42133(18) 0.79324(13) 0.77438(13)
N4A N 0.22434(19) 0.79882(13) 0.67177(13)
N5A N 0.10959(19) 0.63271(13) 0.76047(14)
N6A N 0.24774(19) 0.56509(13) 0.90569(13)
C1A C 0.4242(2) 0.61201(15) 0.70268(15)
C2A C 0.1246(2) 0.77916(16) 0.88996(15)
C3A C 0.5186(2) 0.78785(16) 0.83164(16)
H5A H 0.5136 0.7388 0.8912
C4A C 0.6263(2) 0.85331(18) 0.80454(17)
H6A H 0.6915 0.8485 0.8459
C5A C 0.6355(2) 0.92568(17) 0.71541(17)
H7A H 0.7085 0.9688 0.6950
C6A C 0.5338(2) 0.93289(17) 0.65692(16)
H8A H 0.5370 0.9815 0.5971
C7A C 0.4276(2) 0.86656(16) 0.68908(15)
C8A C 0.3107(2) 0.87373(16) 0.63066(15)
C9A C 0.1018(2) 0.78635(16) 0.63694(16)
C10A C 0.0391(2) 0.85569(18) 0.56454(17)
H9A H 0.0812 0.9153 0.5308
C11A C -0.0863(3) 0.83552(19) 0.54288(18)
H10A H -0.1288 0.8824 0.4953
C12A C -0.1488(3) 0.74597(19) 0.59169(19)
H11A H -0.2336 0.7340 0.5771
C13A C -0.0866(2) 0.67416(18) 0.66198(18)
H12A H -0.1277 0.6135 0.6929
C14A C 0.0388(2) 0.69388(16) 0.68603(16)
C15A C 0.0841(2) 0.53553(16) 0.80710(17)
C16A C 0.1599(2) 0.50025(16) 0.89438(17)
C17A C 0.1332(3) 0.40953(17) 0.96296(19)
H13A H 0.0742 0.3654 0.9529
C18A C 0.1959(3) 0.38581(18) 1.04658(19)
H14A H 0.1789 0.3255 1.0939
C19A C 0.2836(3) 0.45192(19) 1.05949(18)
H15A H 0.3251 0.4374 1.1162
C20A C 0.3095(2) 0.54066(18) 0.98692(17)
H16A H 0.3710 0.5843 0.9947
Cu2_2 Cu 0.0000 1.0000 1.0000
N2A_2 N 1.0494(2) -0.17089(15) -0.05856(15)
O3 O 0.1091(2) 0.70520(13) 0.20365(16)
H37 H 0.1926 0.6991 0.1678
H38 H 0.0675 0.6532 0.2045
Cl1 Cl 0.51885(5) 0.74024(4) 0.13115(4)
O4 O 0.5928(2) 0.65283(14) 0.18473(13)
O5 O 0.45054(18) 0.80689(13) 0.19967(13)
O6 O 0.61690(18) 0.79443(13) 0.04834(12)
O7 O 0.4120(2) 0.70725(16) 0.08993(15)
loop_
_geom_bond_atom_site_label_1
_geom_bond_atom_site_label_2
_geom_bond_site_symmetry_1
_geom_bond_site_symmetry_2
Cu1 N1 1_555 1_555
Cu2 N2 1_555 1_555
Cr1 N3 1_555 1_555
O1 C15 1_555 1_555
O2 C8 1_555 1_555
N1 C1 1_555 1_555
N2 C2 1_555 1_555
N3 C3 1_555 1_555
N4 Cr1 1_555 1_555
N5 Cr1 1_555 1_555
N6 Cr1 1_555 1_555
N7 Cu1 1_555 1_555
H1 N7 1_555 1_555
N8 Cu1 1_555 1_555
H2 N8 1_555 1_555
N9 Cu2 1_555 1_555
H3 N9 1_555 1_555
N10 Cu2 1_555 1_555
H4 N10 1_555 1_555
C1 Cr1 1_555 1_555
C2 Cr1 1_555 1_555
C3 H5 1_555 1_555
C4 C3 1_555 1_555
H6 C4 1_555 1_555
C5 C4 1_555 1_555
H7 C5 1_555 1_555
C6 C5 1_555 1_555
H8 C6 1_555 1_555
C7 N3 1_555 1_555
C8 N4 1_555 1_555
C9 N4 1_555 1_555
C10 C9 1_555 1_555
H9 C10 1_555 1_555
C11 C10 1_555 1_555
H10 C11 1_555 1_555
C12 C11 1_555 1_555
H11 C12 1_555 1_555
C13 C12 1_555 1_555
H12 C13 1_555 1_555
C14 N5 1_555 1_555
C15 N5 1_555 1_555
C16 N6 1_555 1_555
C17 C16 1_555 1_555
H13 C17 1_555 1_555
C18 C17 1_555 1_555
H14 C18 1_555 1_555
C19 C18 1_555 1_555
H15 C19 1_555 1_555
C20 N6 1_555 1_555
H16 C20 1_555 1_555
C21 N7 1_555 1_555
H17 C21 1_555 1_555
H18 C21 1_555 1_555
C22 C21 1_555 1_555
H19 C22 1_555 1_555
H20 C22 1_555 1_555
C23 N8 1_555 1_555
H21 C23 1_555 1_555
H22 C23 1_555 1_555
C24 N8 1_555 1_555
H23 C24 1_555 1_555
H24 C24 1_555 1_555
C25 C24 1_555 1_555
H25 C25 1_555 1_555
H26 C25 1_555 1_555
C26 N10 1_555 1_555
H27 C26 1_555 1_555
H28 C26 1_555 1_555
C27 C26 1_555 1_555
H29 C27 1_555 1_555
H30 C27 1_555 1_555
C28 N9 1_555 1_555
H31 C28 1_555 1_555
H32 C28 1_555 1_555
C29 N9 1_555 1_555
H33 C29 1_555 1_555
H34 C29 1_555 1_555
C30 N10 1_555 1_555
H35 C30 1_555 1_555
H36 C30 1_555 1_555
O3 H37 1_555 1_555
H38 O3 1_555 1_555
Cl1 O4 1_555 1_555
O5 Cl1 1_555 1_555
O6 Cl1 1_555 1_555
O7 Cl1 1_555 1_555
N7A Cu1 1_555 1_555
H1A N7A 1_555 1_555
N8A Cu1 1_555 1_555
H2A N8A 1_555 1_555
C21A N7A 1_555 1_555
H17A C21A 1_555 1_555
H18A C21A 1_555 1_555
C22A C21A 1_555 1_555
H19A C22A 1_555 1_555
H20A C22A 1_555 1_555
C23A N8A 1_555 1_555
H21A C23A 1_555 1_555
H22A C23A 1_555 1_555
C24A N8A 1_555 1_555
H23A C24A 1_555 1_555
H24A C24A 1_555 1_555
C25A N7 1_555 1_555
H25A C25A 1_555 1_555
H26A C25A 1_555 1_555
N9A Cu2 1_555 1_555
H3A N9A 1_555 1_555
N10A Cu2 1_555 1_555
H4A N10A 1_555 1_555
C26A N10A 1_555 1_555
H27A C26A 1_555 1_555
H28A C26A 1_555 1_555
C27A C26A 1_555 1_555
H29A C27A 1_555 1_555
H30A C27A 1_555 1_555
C28A N9A 1_555 1_555
H31A C28A 1_555 1_555
H32A C28A 1_555 1_555
C29A C30 1_555 1_555
H33A C29A 1_555 1_555
H34A C29A 1_555 1_555
C30A C29 1_555 1_555
H35A C30A 1_555 1_555
H36A C30A 1_555 1_555
Cr1A N3A 1_555 1_555
O1A C15A 1_555 1_555
O2A C8A 1_555 1_555
N1A Cu1 1_555 1_555
N2A C2A 1_555 1_555
N3A C3A 1_555 1_555
N4A Cr1A 1_555 1_555
N5A Cr1A 1_555 1_555
N6A Cr1A 1_555 1_555
C1A Cr1A 1_555 1_555
C2A Cr1A 1_555 1_555
C3A H5A 1_555 1_555
C4A C3A 1_555 1_555
H6A C4A 1_555 1_555
C5A C4A 1_555 1_555
H7A C5A 1_555 1_555
C6A C5A 1_555 1_555
H8A C6A 1_555 1_555
C7A N3A 1_555 1_555
C8A N4A 1_555 1_555
C9A N4A 1_555 1_555
C10A C9A 1_555 1_555
H9A C10A 1_555 1_555
C11A C10A 1_555 1_555
H10A C11A 1_555 1_555
C12A C11A 1_555 1_555
H11A C12A 1_555 1_555
C13A C12A 1_555 1_555
H12A C13A 1_555 1_555
C14A N5A 1_555 1_555
C15A N5A 1_555 1_555
C16A N6A 1_555 1_555
C17A C16A 1_555 1_555
H13A C17A 1_555 1_555
C18A C17A 1_555 1_555
H14A C18A 1_555 1_555
C19A C18A 1_555 1_555
H15A C19A 1_555 1_555
C20A N6A 1_555 1_555
H16A C20A 1_555 1_555
Cu2_2 N2A 1_555 1_555
N2A_2 Cu2 1_555 1_555
C6 C7 1_555 1_555
C7 C8 1_555 1_555
C9 C14 1_555 1_555
C13 C14 1_555 1_555
C15 C16 1_555 1_555
C19 C20 1_555 1_555
C22 C23 1_555 1_555
C25 N7A 1_555 1_555
C27 C28 1_555 1_555
C22A C23A 1_555 1_555
C24A C25A 1_555 1_555
N9A C29A 1_555 1_555
N10A C30A 1_555 1_555
C27A C28A 1_555 1_555
N1A C1A 1_555 1_555
C6A C7A 1_555 1_555
C7A C8A 1_555 1_555
C9A C14A 1_555 1_555
C13A C14A 1_555 1_555
C15A C16A 1_555 1_555
C19A C20A 1_555 1_555

#END
