
#######################################################################
#
#                 Cambridge Crystallographic Data Centre
#                                CCDC 
#
#######################################################################
#
# If this CIF has been generated from an entry in the Cambridge 
# Structural Database, then it will include bibliographic, chemical, 
# crystal, experimental, refinement or atomic coordinate data resulting 
# from the CCDC's data processing and validation procedures.
#
#######################################################################

data_FUMGAV
_symmetry_cell_setting           monoclinic
_symmetry_space_group_name_H-M   'P 21/n'
_symmetry_Int_Tables_number      14
_space_group_name_Hall           '-P 2yn'
loop_
_symmetry_equiv_pos_site_id
_symmetry_equiv_pos_as_xyz
1 x,y,z
2 1/2-x,1/2+y,1/2-z
3 -x,-y,-z
4 1/2+x,1/2-y,1/2+z
_cell_length_a                   5.931(1)
_cell_length_b                   23.591(3)
_cell_length_c                   11.687(1)
_cell_angle_alpha                90
_cell_angle_beta                 96.42(1)
_cell_angle_gamma                90
_cell_volume                     1624.97
loop_
_atom_site_label
_atom_site_type_symbol
_atom_site_fract_x
_atom_site_fract_y
_atom_site_fract_z
Zn1 Zn -1.1384(1) -0.16185(2) -0.41980(3)
Zn2 Zn -0.5997(1) -0.45341(2) -0.28607(4)
O1 O -0.4428(5) -0.5047(1) -0.1534(3)
O2 O -0.8951(5) -0.4462(1) -0.1968(3)
O3 O -0.7416(6) -0.5263(1) -0.3670(3)
O4 O -0.7697(7) -0.4025(2) -0.4073(3)
O6 O -0.3088(6) -0.4696(1) -0.3833(3)
O8 O -0.5243(4) -0.3781(1) -0.0494(2)
O9 O -0.4180(5) -0.3839(1) -0.2243(2)
O10 O -0.0139(4) -0.3547(1) -0.0440(2)
O11 O 0.1509(4) -0.2761(1) 0.0261(2)
O12 O -0.2497(4) -0.1069(1) -0.3108(2)
O13 O -0.2627(5) -0.0819(1) -0.1301(2)
O14 O -0.8783(4) -0.2020(1) -0.3427(2)
O15 O -0.7387(4) -0.1197(1) -0.2737(2)
C1 C -0.3970(6) -0.2940(1) -0.1409(3)
C2 C -0.1971(6) -0.2680(1) -0.0948(3)
C3 C -0.1676(6) -0.2102(1) -0.1133(3)
C4 C -0.3343(6) -0.1786(1) -0.1780(3)
C5 C -0.5378(6) -0.2046(1) -0.2202(3)
C6 C -0.5661(6) -0.2620(1) -0.2015(3)
C7 C -0.4450(5) -0.3569(1) -0.1343(3)
C8 C -0.0100(6) -0.3023(1) -0.0332(3)
C9 C -0.2832(5) -0.1178(1) -0.2072(3)
C10 C -0.7303(6) -0.1719(1) -0.2832(3)
H1 H -0.0348(65) -0.1958(16) -0.0865(31)
H2 H -0.7057(61) -0.2785(15) -0.2282(29)
H3 H -0.3688(78) -0.5360(21) -0.1686(39)
H4 H -0.3675(89) -0.4916(23) -0.1057(46)
H5 H -0.891(13) -0.4700(29) -0.1495(57)
H6 H -0.9149(95) -0.4178(26) -0.1685(49)
H7 H -0.761(10) -0.5542(27) -0.3327(55)
H8 H -0.7386(93) -0.5352(24) -0.4350(52)
H9 H -0.7663(90) -0.4029(22) -0.4784(50)
H10 H -0.8723(88) -0.3810(22) -0.3981(43)
H13 H -0.212(10) -0.4562(28) -0.3569(56)
H14 H -0.281(11) -0.5032(30) -0.3748(57)
Zn1C Zn 0.3616(1) -0.33815(2) 0.08020(3)
Zn1_2 Zn -0.1384(1) -0.16185(2) -0.41980(3)
Zn1C_2 Zn -0.6384(1) -0.33815(2) 0.08020(3)
O8C O -1.0243(4) -0.1219(1) -0.5494(2)
O11C O -1.3491(4) -0.2239(1) -0.4739(2)
O12_2 O -1.2497(4) -0.1069(1) -0.3108(2)
O5 O -0.1657(7) -0.4630(1) 0.0444(3)
H11 H -0.083(11) -0.4368(31) 0.0408(60)
H12 H -0.243(10) -0.4533(27) 0.0735(54)
O7 O -0.3778(11) -0.8340(2) 0.8752(6)
H15 H -0.293(12) -0.8463(32) 0.8394(65)
H16 H -0.354(16) -0.8040(40) 0.8873(81)
loop_
_geom_bond_atom_site_label_1
_geom_bond_atom_site_label_2
_geom_bond_site_symmetry_1
_geom_bond_site_symmetry_2
Zn1 O14 1_555 1_555
Zn2 O1 1_555 1_555
O1 H3 1_555 1_555
O2 Zn2 1_555 1_555
O3 Zn2 1_555 1_555
O4 Zn2 1_555 1_555
O5 H11 1_555 1_555
O6 Zn2 1_555 1_555
O7 H15 1_555 1_555
O8 C7 1_555 1_555
O9 Zn2 1_555 1_555
O10 C8 1_555 1_555
O11 C8 1_555 1_555
O12 C9 1_555 1_555
O13 C9 1_555 1_555
O14 C10 1_555 1_555
O15 C10 1_555 1_555
C1 C2 1_555 1_555
C2 C3 1_555 1_555
C3 C4 1_555 1_555
C4 C5 1_555 1_555
C5 C6 1_555 1_555
C6 C1 1_555 1_555
C7 O9 1_555 1_555
C8 C2 1_555 1_555
C9 C4 1_555 1_555
C10 C5 1_555 1_555
H1 C3 1_555 1_555
H2 C6 1_555 1_555
H4 O1 1_555 1_555
H5 O2 1_555 1_555
H6 O2 1_555 1_555
H7 O3 1_555 1_555
H8 O3 1_555 1_555
H9 O4 1_555 1_555
H10 O4 1_555 1_555
H12 O5 1_555 1_555
H13 O6 1_555 1_555
H14 O6 1_555 1_555
H16 O7 1_555 1_555
Zn1C O11 1_555 1_555
Zn1_2 O12 1_555 1_555
Zn1C_2 O8 1_555 1_555
O8C Zn1 1_555 1_555
O11C Zn1 1_555 1_555
O12_2 Zn1 1_555 1_555
C1 C7 1_555 1_555

#END
