
#######################################################################
#
#                 Cambridge Crystallographic Data Centre
#                                CCDC 
#
#######################################################################
#
# If this CIF has been generated from an entry in the Cambridge 
# Structural Database, then it will include bibliographic, chemical, 
# crystal, experimental, refinement or atomic coordinate data resulting 
# from the CCDC's data processing and validation procedures.
#
#######################################################################

data_FUMHIG
_symmetry_cell_setting           orthorhombic
_symmetry_space_group_name_H-M   'P b c a'
_symmetry_Int_Tables_number      61
_space_group_name_Hall           '-P 2ac 2ab'
loop_
_symmetry_equiv_pos_site_id
_symmetry_equiv_pos_as_xyz
1 x,y,z
2 1/2-x,-y,1/2+z
3 1/2+x,1/2-y,-z
4 -x,1/2+y,1/2-z
5 -x,-y,-z
6 1/2+x,y,1/2-z
7 1/2-x,1/2+y,z
8 x,1/2-y,1/2+z
_cell_length_a                   16.791(5)
_cell_length_b                   17.185(5)
_cell_length_c                   19.340(5)
_cell_angle_alpha                90
_cell_angle_beta                 90
_cell_angle_gamma                90
_cell_volume                     5580.62
loop_
_atom_site_label
_atom_site_type_symbol
_atom_site_fract_x
_atom_site_fract_y
_atom_site_fract_z
Cd1 Cd 0.832452(14) 0.195329(13) 1.057965(12)
N1 N 1.18144(17) 0.56452(15) 1.03341(14)
N2 N 1.14228(18) 0.58420(17) 1.36716(14)
N3 N 1.05877(17) 0.31975(16) 1.09854(14)
O1 O 0.75074(15) -0.23444(14) 0.65709(12)
N4 N 1.12208(16) 0.51172(15) 1.27444(13)
O2 O 0.86183(18) -0.09079(17) 0.70489(16)
O3 O 0.80296(17) -0.17295(17) 0.56744(13)
N5 N 1.1954(2) 0.67428(17) 0.97566(15)
C1 C 0.8268(2) 0.0886(2) 0.79654(18)
C2 C 0.84071(19) 0.06754(19) 0.86491(17)
C3 C 1.16272(19) 0.57359(19) 1.30195(17)
C4 C 1.12427(18) 0.48719(17) 1.20392(15)
N6 N 0.96133(19) 0.23715(17) 1.07855(17)
C5 C 1.0728(2) 0.4825(2) 1.32601(18)
C6 C 1.15451(19) 0.53660(18) 1.15389(17)
O4 O 0.8624(2) 0.10704(17) 0.97894(13)
O5 O 0.8001(2) 0.18958(15) 0.91118(15)
C7 C 1.1268(2) 0.43905(18) 1.06599(16)
C8 C 1.0960(2) 0.39174(17) 1.11767(17)
C9 C 1.2292(3) 0.6146(2) 0.93850(18)
C10 C 1.0954(2) 0.41336(19) 1.18678(16)
C11 C 1.1673(2) 0.6419(2) 1.03246(19)
C12 C 1.15470(18) 0.51196(18) 1.08523(16)
C13 C 0.9141(2) -0.1529(2) 0.7023(2)
C14 C 1.0374(2) -0.2183(3) 0.7227(2)
C15 C 0.8087(2) -0.20569(19) 0.62528(18)
C16 C 1.2216(3) 0.5468(2) 0.97301(18)
C17 C 0.8898(2) -0.21101(19) 0.65803(17)
C18 C 1.0923(2) 0.2589(2) 1.0619(2)
C19 C 0.8700(2) -0.0643(2) 0.8281(2)
C20 C 1.0865(2) 0.5277(2) 1.38251(18)
C21 C 0.8591(2) -0.0406(2) 0.7603(2)
C22 C 0.8372(2) 0.0348(2) 0.7435(2)
C23 C 0.8335(2) 0.1262(2) 0.92200(18)
C24 C 0.8620(2) -0.0091(2) 0.87997(19)
C25 C 1.0309(3) 0.2084(2) 1.0505(2)
C26 C 0.9805(2) 0.3043(2) 1.1074(2)
C27 C 0.9399(2) -0.2732(2) 0.6451(2)
C28 C 0.9875(2) -0.1551(2) 0.7355(2)
C29 C 1.0140(3) -0.2765(3) 0.6774(2)
Cd1A Cd 0.667548(14) -0.195329(13) 0.557965(12)
Cd1C Cd 1.167548(14) 0.695329(13) 1.442035(12)
Cd1D Cd 1.167548(14) 0.804671(13) 0.942035(12)
N2C N 0.85772(18) 0.08420(17) 1.13284(14)
O1A O 0.74926(15) 0.23444(14) 1.15709(12)
O3A O 0.69704(17) 0.17295(17) 1.06744(13)
N5D N 0.8046(2) 0.32572(17) 1.02434(15)
O6 O 0.7526(2) 0.29157(16) 0.80577(16)
loop_
_geom_bond_atom_site_label_1
_geom_bond_atom_site_label_2
_geom_bond_site_symmetry_1
_geom_bond_site_symmetry_2
Cd1 N6 1_555 1_555
N1 C11 1_555 1_555
N2 C3 1_555 1_555
N3 C8 1_555 1_555
O1 C15 1_555 1_555
N4 C3 1_555 1_555
O2 C13 1_555 1_555
O3 C15 1_555 1_555
N5 C9 1_555 1_555
C1 C2 1_555 1_555
C2 C23 1_555 1_555
C4 N4 1_555 1_555
N6 C25 1_555 1_555
C5 N4 1_555 1_555
C6 C4 1_555 1_555
O4 Cd1 1_555 1_555
O5 C23 1_555 1_555
C7 C8 1_555 1_555
C8 C10 1_555 1_555
C9 C16 1_555 1_555
C10 C4 1_555 1_555
C11 N5 1_555 1_555
C12 N1 1_555 1_555
C13 C17 1_555 1_555
C14 C28 1_555 1_555
C15 C17 1_555 1_555
C16 N1 1_555 1_555
C17 C27 1_555 1_555
C18 N3 1_555 1_555
C19 C21 1_555 1_555
C20 N2 1_555 1_555
C21 O2 1_555 1_555
C22 C1 1_555 1_555
C23 O4 1_555 1_555
C24 C2 1_555 1_555
C25 C18 1_555 1_555
C26 N3 1_555 1_555
C27 C29 1_555 1_555
C28 C13 1_555 1_555
C29 C14 1_555 1_555
Cd1A O1 1_555 1_555
Cd1C N2 1_555 1_555
Cd1D N5 1_555 1_555
N2C Cd1 1_555 1_555
O1A Cd1 1_555 1_555
O3A Cd1 1_555 1_555
N5D Cd1 1_555 1_555
O3 Cd1A 1_555 1_555
N6 C26 1_555 1_555
C5 C20 1_555 1_555
C6 C12 1_555 1_555
C7 C12 1_555 1_555
C19 C24 1_555 1_555
C21 C22 1_555 1_555

#END
