
#######################################################################
#
#                 Cambridge Crystallographic Data Centre
#                                CCDC 
#
#######################################################################
#
# If this CIF has been generated from an entry in the Cambridge 
# Structural Database, then it will include bibliographic, chemical, 
# crystal, experimental, refinement or atomic coordinate data resulting 
# from the CCDC's data processing and validation procedures.
#
#######################################################################

data_FUNDOH10
_symmetry_cell_setting           monoclinic
_symmetry_space_group_name_H-M   'P 21/c'
_symmetry_Int_Tables_number      14
_space_group_name_Hall           '-P 2ybc'
loop_
_symmetry_equiv_pos_site_id
_symmetry_equiv_pos_as_xyz
1 x,y,z
2 -x,1/2+y,1/2-z
3 -x,-y,-z
4 x,1/2-y,1/2+z
_cell_length_a                   8.614(2)
_cell_length_b                   17.800(1)
_cell_length_c                   18.133(2)
_cell_angle_alpha                90
_cell_angle_beta                 98.65(1)
_cell_angle_gamma                90
_cell_volume                     2748.69
loop_
_atom_site_label
_atom_site_type_symbol
_atom_site_fract_x
_atom_site_fract_y
_atom_site_fract_z
Rh1 Rh -0.0801 -0.3855 0.3033
Rh2 Rh -0.1052 -0.2667 0.2378
O1 O -0.2003(6) -0.4345(2) 0.2118(3)
O2 O 0.0394(5) -0.3306(3) 0.3919(2)
O3 O 0.1181(5) -0.4044(2) 0.2572(2)
O4 O -0.2812(5) -0.3605(2) 0.3442(2)
O5 O -0.3072(5) -0.2502(2) 0.2807(2)
O6 O 0.0100(5) -0.2186(2) 0.3321(2)
O7 O 0.0979(5) -0.2910(2) 0.1983(2)
O8 O -0.2177(6) -0.3246(3) 0.1483(2)
C1 C -0.2356(9) -0.3946(5) 0.1552(4)
C2 C -0.3035(15) -0.4354(6) 0.0852(5)
C3 C 0.0524(9) -0.2614(5) 0.3874(4)
C4 C 0.1250(14) -0.2205(6) 0.4577(5)
C5 C 0.1581(9) -0.3545(4) 0.2147(4)
C6 C 0.2969(11) -0.3761(5) 0.1742(5)
C7 C -0.3432(8) -0.2990(4) 0.3255(4)
C8 C -0.4832(10) -0.2750(6) 0.3639(5)
F1 F -0.4058(9) -0.3956(4) 0.0428(3)
F2 F -0.3841(9) -0.4938(4) 0.0959(3)
F3 F -0.2053(8) -0.4563(5) 0.0471(4)
F4 F 0.2208(8) -0.2628(4) 0.4999(3)
F5 F 0.0240(7) -0.2012(5) 0.4966(3)
F6 F 0.2039(9) -0.1624(4) 0.4464(3)
F7 F 0.4113(5) -0.4061(3) 0.2203(3)
F8 F 0.3577(6) -0.3172(3) 0.1472(3)
F9 F 0.2558(7) -0.4220(4) 0.1224(3)
F10 F -0.5435(7) -0.3312(3) 0.3953(4)
F11 F -0.5916(6) -0.2440(4) 0.3221(3)
F12 F -0.4372(6) -0.2305(4) 0.4178(3)
O9 O 0.0495(6) 0.0045(2) 0.1272(2)
N1 N -0.1184(7) -0.1569(3) 0.1831(3)
N2 N -0.0444(7) -0.0480(3) 0.1387(3)
C9 C -0.0028(9) -0.1111(4) 0.1812(4)
C10 C 0.1630(8) -0.1168(4) 0.2175(4)
C11 C -0.2047(9) -0.0597(4) 0.0943(4)
C12 C -0.2667(9) -0.1179(4) 0.1460(4)
C13 C -0.2930(9) 0.0144(4) 0.0824(4)
C14 C -0.1776(11) -0.0918(5) 0.0201(4)
C15 C -0.3839(9) -0.1725(4) 0.1050(4)
C16 C -0.3385(9) -0.0792(4) 0.2101(4)
O9A O -0.0495(6) -0.4955(2) 0.3728(2)
Rh1A Rh 0.0801 0.1145 0.1967
loop_
_geom_bond_atom_site_label_1
_geom_bond_atom_site_label_2
_geom_bond_site_symmetry_1
_geom_bond_site_symmetry_2
Rh1 Rh2 1_555 1_555
Rh2 O5 1_555 1_555
O1 Rh1 1_555 1_555
O2 Rh1 1_555 1_555
O3 Rh1 1_555 1_555
O4 Rh1 1_555 1_555
O5 C7 1_555 1_555
O6 Rh2 1_555 1_555
O7 Rh2 1_555 1_555
O8 Rh2 1_555 1_555
C1 O1 1_555 1_555
C2 C1 1_555 1_555
C3 O2 1_555 1_555
C4 C3 1_555 1_555
C5 O3 1_555 1_555
C6 C5 1_555 1_555
C7 O4 1_555 1_555
C8 C7 1_555 1_555
F1 C2 1_555 1_555
F2 C2 1_555 1_555
F3 C2 1_555 1_555
F4 C4 1_555 1_555
F5 C4 1_555 1_555
F6 C4 1_555 1_555
F7 C6 1_555 1_555
F8 C6 1_555 1_555
F9 C6 1_555 1_555
F10 C8 1_555 1_555
F11 C8 1_555 1_555
F12 C8 1_555 1_555
O9 N2 1_555 1_555
N1 Rh2 1_555 1_555
N2 C9 1_555 1_555
C9 N1 1_555 1_555
C10 C9 1_555 1_555
C11 N2 1_555 1_555
C12 N1 1_555 1_555
C13 C11 1_555 1_555
C14 C11 1_555 1_555
C15 C12 1_555 1_555
C16 C12 1_555 1_555
O9A Rh1 1_555 1_555
Rh1A O9 1_555 1_555
O6 C3 1_555 1_555
O7 C5 1_555 1_555
O8 C1 1_555 1_555
C11 C12 1_555 1_555

#END
