
#######################################################################
#
#                 Cambridge Crystallographic Data Centre
#                                CCDC 
#
#######################################################################
#
# If this CIF has been generated from an entry in the Cambridge 
# Structural Database, then it will include bibliographic, chemical, 
# crystal, experimental, refinement or atomic coordinate data resulting 
# from the CCDC's data processing and validation procedures.
#
#######################################################################

data_FUPYOG
_symmetry_cell_setting           triclinic
_symmetry_space_group_name_H-M   'P -1'
_symmetry_Int_Tables_number      2
_space_group_name_Hall           '-P 1'
loop_
_symmetry_equiv_pos_site_id
_symmetry_equiv_pos_as_xyz
1 x,y,z
2 -x,-y,-z
_cell_length_a                   10.970(7)
_cell_length_b                   12.495(8)
_cell_length_c                   13.287(8)
_cell_angle_alpha                86.549(6)
_cell_angle_beta                 73.839(6)
_cell_angle_gamma                68.911(5)
_cell_volume                     1630.5
loop_
_atom_site_label
_atom_site_type_symbol
_atom_site_fract_x
_atom_site_fract_y
_atom_site_fract_z
Cu1 Cu 0.32436(18) 0.71417(15) 0.57528(17)
Cu2 Cu 0.39748(18) 0.94978(14) 0.58689(17)
Cu3 Cu 0.4703(2) 0.74061(17) 0.75553(17)
N1 N 0.2066(12) 0.6420(10) 0.5381(11)
C1 C 0.2493(15) 0.5660(13) 0.4609(14)
H1 H 0.3368 0.5493 0.4169
C2 C 0.0422(14) 0.5317(12) 0.5081(13)
C3 C -0.0042(16) 0.6117(15) 0.5861(15)
H2 H -0.0923 0.6313 0.6297
C4 C 0.1707(16) 0.5098(13) 0.4418(15)
H3 H 0.2037 0.4576 0.3848
C5 C 0.0820(17) 0.6650(15) 0.6007(17)
H4 H 0.0510 0.7185 0.6564
N2 N 0.2903(14) 0.9394(11) 0.4984(12)
N3 N 0.2606(15) 0.8413(10) 0.4933(12)
C6 C 0.239(2) 1.0100(15) 0.4330(17)
H5 H 0.2504 1.0799 0.4176
C7 C 0.181(2) 0.8659(16) 0.4300(18)
H6 H 0.1421 0.8155 0.4167
O1 O 0.4327(9) 0.7866(7) 0.6191(8)
H7 H 0.523(2) 0.7498(18) 0.5709(16)
N4 N 0.3916(13) 0.5858(9) 0.6589(11)
N5 N 0.4424(13) 0.5990(11) 0.7354(13)
C8 C 0.4680(19) 0.5062(14) 0.7883(15)
H8 H 0.5053 0.4939 0.8448
N6 N 0.4426(13) 0.9759(11) 0.7080(10)
N7 N 0.4632(14) 0.8916(11) 0.7793(12)
O2 O 0.5232(14) 0.6890(10) 0.8826(10)
O3 O 0.3948(10) 1.1012(8) 0.5372(8)
C9 C 0.460(2) 1.0656(15) 0.7433(19)
H9 H 0.4569 1.1327 0.7079
C10 C 0.656(3) 0.6555(17) 0.8568(19)
O4 O 0.7220(14) 0.6484(12) 0.7664(13)
C11 C 0.3104(17) 1.2006(13) 0.5632(14)
C12 C 0.1744(18) 1.2109(16) 0.6391(16)
H10 H 0.1079 1.2263 0.5997
H11 H 0.1826 1.1377 0.6711
C13 C 0.123(2) 1.3011(17) 0.7232(16)
H12 H 0.1918 1.2852 0.7602
H13 H 0.1168 1.3732 0.6895
O5 O 0.3338(11) 1.2867(8) 0.5304(9)
C14 C 0.3822(19) 0.4777(14) 0.6645(16)
H14 H 0.3497 0.4461 0.6208
C15 C 0.720(2) 0.6190(19) 0.945(2)
H15 H 0.6561 0.6612 1.0085
H16 H 0.7350 0.5382 0.9551
C16 C 0.484(2) 0.9353(16) 0.8628(15)
H17 H 0.4952 0.8984 0.9243
C17 C 0.845(3) 0.753(2) 0.922(2)
H18 H 0.7913 0.7958 0.9881
H19 H 0.8023 0.7892 0.8681
C18 C 0.851(3) 0.636(2) 0.931(2)
H20 H 0.8859 0.6040 0.9897
H21 H 0.9150 0.5925 0.8680
C19 C 0.990(4) 0.758(3) 0.895(2)
H22 H 1.0302 0.7280 0.9522
H23 H 1.0467 0.7095 0.8326
C20 C 0.988(3) 0.876(3) 0.877(3)
H24 H 0.9357 0.9083 0.8269
H25 H 0.9394 0.9210 0.9421
C21 C 1.123(3) 0.892(3) 0.837(3)
H26 H 1.1427 0.9212 0.8929
H27 H 1.1184 0.9455 0.7816
H28 H 1.1926 0.8196 0.8099
C22 C 0.1615(19) 0.9649(17) 0.3874(18)
H29 H 0.1111 0.9978 0.3402
C23 C 0.429(2) 0.4277(18) 0.7446(17)
H30 H 0.4345 0.3547 0.7675
C24 C 0.484(2) 1.0440(18) 0.839(2)
H31 H 0.4983 1.0934 0.8804
C25 C -0.009(2) 1.321(2) 0.803(2)
H32 H -0.0673 1.3988 0.7972
H33 H 0.0088 1.3177 0.8714
C26 C -0.218(3) 1.279(3) 0.887(2)
H34 H -0.2716 1.3589 0.8808
H35 H -0.2020 1.2722 0.9559
C27 C -0.088(3) 1.248(2) 0.807(2)
H36 H -0.1048 1.2486 0.7392
H37 H -0.0331 1.1703 0.8176
C28 C -0.299(3) 1.208(3) 0.881(2)
H38 H -0.2821 1.1847 0.8094
H39 H -0.3944 1.2512 0.9094
H40 H -0.2740 1.1404 0.9212
N1A N -0.2066(12) 0.3580(10) 0.4619(11)
C1A C -0.2493(15) 0.4340(13) 0.5391(14)
H1A H -0.3368 0.4507 0.5831
C2A C -0.0422(14) 0.4683(12) 0.4919(13)
C3A C 0.0042(16) 0.3883(15) 0.4139(15)
H2A H 0.0923 0.3687 0.3703
C4A C -0.1707(16) 0.4902(13) 0.5582(15)
H3A H -0.2037 0.5424 0.6152
C5A C -0.0820(17) 0.3350(15) 0.3993(17)
H4A H -0.0510 0.2815 0.3436
Cu1A Cu -0.32436(18) 0.28583(15) 0.42472(17)
Cu2A Cu -0.39748(18) 0.05022(14) 0.41311(17)
Cu3A Cu -0.4703(2) 0.25939(17) 0.24447(17)
N2A N -0.2903(14) 0.0606(11) 0.5016(12)
N3A N -0.2606(15) 0.1587(10) 0.5067(12)
C6A C -0.239(2) -0.0100(15) 0.5670(17)
H5A H -0.2504 -0.0799 0.5824
C7A C -0.181(2) 0.1341(16) 0.5700(18)
H6A H -0.1421 0.1845 0.5833
O1A O -0.4327(9) 0.2134(7) 0.3809(8)
H7A H -0.523(2) 0.2502(18) 0.4291(16)
N4A N -0.3916(13) 0.4142(9) 0.3411(11)
N5A N -0.4424(13) 0.4010(11) 0.2646(13)
C8A C -0.4680(19) 0.4938(14) 0.2117(15)
H8A H -0.5053 0.5061 0.1552
N6A N -0.4426(13) 0.0241(11) 0.2920(10)
N7A N -0.4632(14) 0.1084(11) 0.2207(12)
O2A O -0.5232(14) 0.3110(10) 0.1174(10)
O3A O -0.3948(10) -0.1012(8) 0.4628(8)
C9A C -0.460(2) -0.0656(15) 0.2567(19)
H9A H -0.4569 -0.1327 0.2921
C10A C -0.656(3) 0.3445(17) 0.1432(19)
O4A O -0.7220(14) 0.3516(12) 0.2336(13)
C11A C -0.3104(17) -0.2006(13) 0.4368(14)
C12A C -0.1744(18) -0.2109(16) 0.3609(16)
H10A H -0.1079 -0.2263 0.4003
H11A H -0.1826 -0.1377 0.3289
C13A C -0.123(2) -0.3011(17) 0.2768(16)
H12A H -0.1918 -0.2852 0.2398
H13A H -0.1168 -0.3732 0.3105
O5A O -0.3338(11) -0.2867(8) 0.4696(9)
C14A C -0.3822(19) 0.5223(14) 0.3355(16)
H14A H -0.3497 0.5539 0.3792
C15A C -0.720(2) 0.3810(19) 0.055(2)
H15A H -0.6561 0.3388 -0.0085
H16A H -0.7350 0.4618 0.0449
C16A C -0.484(2) 0.0647(16) 0.1372(15)
H17A H -0.4952 0.1016 0.0757
C17A C -0.845(3) 0.247(2) 0.078(2)
H18A H -0.7913 0.2042 0.0119
H19A H -0.8023 0.2108 0.1319
C18A C -0.851(3) 0.364(2) 0.069(2)
H20A H -0.8859 0.3960 0.0103
H21A H -0.9150 0.4075 0.1320
C19A C -0.990(4) 0.242(3) 0.105(2)
H22A H -1.0302 0.2720 0.0478
H23A H -1.0467 0.2905 0.1674
C20A C -0.988(3) 0.124(3) 0.123(3)
H24A H -0.9357 0.0917 0.1731
H25A H -0.9394 0.0790 0.0579
C21A C -1.123(3) 0.108(3) 0.163(3)
H26A H -1.1427 0.0788 0.1071
H27A H -1.1184 0.0545 0.2184
H28A H -1.1926 0.1804 0.1901
C22A C -0.1615(19) 0.0351(17) 0.6126(18)
H29A H -0.1111 0.0022 0.6598
C23A C -0.429(2) 0.5723(18) 0.2554(17)
H30A H -0.4345 0.6453 0.2325
C24A C -0.484(2) -0.0440(18) 0.161(2)
H31A H -0.4983 -0.0934 0.1196
C25A C 0.009(2) -0.321(2) 0.197(2)
H32A H 0.0673 -0.3988 0.2028
H33A H -0.0088 -0.3177 0.1286
C26A C 0.218(3) -0.279(3) 0.113(2)
H34A H 0.2716 -0.3589 0.1192
H35A H 0.2020 -0.2722 0.0441
C27A C 0.088(3) -0.248(2) 0.193(2)
H36A H 0.1048 -0.2486 0.2608
H37A H 0.0331 -0.1703 0.1824
C28A C 0.299(3) -0.208(3) 0.119(2)
H38A H 0.2821 -0.1847 0.1906
H39A H 0.3944 -0.2512 0.0906
H40A H 0.2740 -0.1404 0.0788
Cu2_2 Cu -0.60252(18) -0.05022(14) 0.58689(17)
Cu2A_2 Cu 0.60252(18) 1.05022(14) 0.41311(17)
O3_2 O -0.6052(10) 0.1012(8) 0.5372(8)
O3A_2 O 0.6052(10) 0.8988(8) 0.4628(8)
loop_
_geom_bond_atom_site_label_1
_geom_bond_atom_site_label_2
_geom_bond_site_symmetry_1
_geom_bond_site_symmetry_2
Cu1 N1 1_555 1_555
Cu2 N2 1_555 1_555
Cu3 O1 1_555 1_555
N1 C1 1_555 1_555
C1 H1 1_555 1_555
C2 C3 1_555 1_555
C3 H2 1_555 1_555
C4 C1 1_555 1_555
H3 C4 1_555 1_555
C5 N1 1_555 1_555
H4 C5 1_555 1_555
N2 N3 1_555 1_555
N3 Cu1 1_555 1_555
C6 N2 1_555 1_555
H5 C6 1_555 1_555
C7 N3 1_555 1_555
H6 C7 1_555 1_555
O1 Cu1 1_555 1_555
H7 O1 1_555 1_555
N4 Cu1 1_555 1_555
N5 Cu3 1_555 1_555
C8 N5 1_555 1_555
H8 C8 1_555 1_555
N6 Cu2 1_555 1_555
N7 Cu3 1_555 1_555
O2 Cu3 1_555 1_555
O3 Cu2 1_555 1_555
C9 N6 1_555 1_555
H9 C9 1_555 1_555
C10 O2 1_555 1_555
O4 Cu3 1_555 1_555
C11 O3 1_555 1_555
C12 C11 1_555 1_555
H10 C12 1_555 1_555
H11 C12 1_555 1_555
C13 C12 1_555 1_555
H12 C13 1_555 1_555
H13 C13 1_555 1_555
O5 C11 1_555 1_555
C14 N4 1_555 1_555
H14 C14 1_555 1_555
C15 C10 1_555 1_555
H15 C15 1_555 1_555
H16 C15 1_555 1_555
C16 N7 1_555 1_555
H17 C16 1_555 1_555
C17 H18 1_555 1_555
H19 C17 1_555 1_555
C18 C15 1_555 1_555
H20 C18 1_555 1_555
H21 C18 1_555 1_555
C19 C17 1_555 1_555
H22 C19 1_555 1_555
H23 C19 1_555 1_555
C20 C19 1_555 1_555
H24 C20 1_555 1_555
H25 C20 1_555 1_555
C21 C20 1_555 1_555
H26 C21 1_555 1_555
H27 C21 1_555 1_555
H28 C21 1_555 1_555
C22 C6 1_555 1_555
H29 C22 1_555 1_555
C23 C8 1_555 1_555
H30 C23 1_555 1_555
C24 C9 1_555 1_555
H31 C24 1_555 1_555
C25 C13 1_555 1_555
H32 C25 1_555 1_555
H33 C25 1_555 1_555
C26 H34 1_555 1_555
H35 C26 1_555 1_555
C27 C25 1_555 1_555
H36 C27 1_555 1_555
H37 C27 1_555 1_555
C28 C26 1_555 1_555
H38 C28 1_555 1_555
H39 C28 1_555 1_555
H40 C28 1_555 1_555
N1A C1A 1_555 1_555
C1A H1A 1_555 1_555
C2A C2 1_555 1_555
C3A C2A 1_555 1_555
H2A C3A 1_555 1_555
C4A C1A 1_555 1_555
H3A C4A 1_555 1_555
C5A N1A 1_555 1_555
H4A C5A 1_555 1_555
Cu1A N1A 1_555 1_555
Cu2A N2A 1_555 1_555
Cu3A O1A 1_555 1_555
N2A N3A 1_555 1_555
N3A Cu1A 1_555 1_555
C6A N2A 1_555 1_555
H5A C6A 1_555 1_555
C7A N3A 1_555 1_555
H6A C7A 1_555 1_555
O1A Cu1A 1_555 1_555
H7A O1A 1_555 1_555
N4A Cu1A 1_555 1_555
N5A Cu3A 1_555 1_555
C8A N5A 1_555 1_555
H8A C8A 1_555 1_555
N6A Cu2A 1_555 1_555
N7A Cu3A 1_555 1_555
O2A Cu3A 1_555 1_555
O3A Cu2A 1_555 1_555
C9A N6A 1_555 1_555
H9A C9A 1_555 1_555
C10A O2A 1_555 1_555
O4A Cu3A 1_555 1_555
C11A O3A 1_555 1_555
C12A C11A 1_555 1_555
H10A C12A 1_555 1_555
H11A C12A 1_555 1_555
C13A C12A 1_555 1_555
H12A C13A 1_555 1_555
H13A C13A 1_555 1_555
O5A C11A 1_555 1_555
C14A N4A 1_555 1_555
H14A C14A 1_555 1_555
C15A C10A 1_555 1_555
H15A C15A 1_555 1_555
H16A C15A 1_555 1_555
C16A N7A 1_555 1_555
H17A C16A 1_555 1_555
C17A H18A 1_555 1_555
H19A C17A 1_555 1_555
C18A C15A 1_555 1_555
H20A C18A 1_555 1_555
H21A C18A 1_555 1_555
C19A C17A 1_555 1_555
H22A C19A 1_555 1_555
H23A C19A 1_555 1_555
C20A C19A 1_555 1_555
H24A C20A 1_555 1_555
H25A C20A 1_555 1_555
C21A C20A 1_555 1_555
H26A C21A 1_555 1_555
H27A C21A 1_555 1_555
H28A C21A 1_555 1_555
C22A C6A 1_555 1_555
H29A C22A 1_555 1_555
C23A C8A 1_555 1_555
H30A C23A 1_555 1_555
C24A C9A 1_555 1_555
H31A C24A 1_555 1_555
C25A C13A 1_555 1_555
H32A C25A 1_555 1_555
H33A C25A 1_555 1_555
C26A H34A 1_555 1_555
H35A C26A 1_555 1_555
C27A C25A 1_555 1_555
H36A C27A 1_555 1_555
H37A C27A 1_555 1_555
C28A C26A 1_555 1_555
H38A C28A 1_555 1_555
H39A C28A 1_555 1_555
H40A C28A 1_555 1_555
Cu2_2 O3A 1_555 1_555
Cu2A_2 O3 1_555 1_555
O3_2 Cu2A 1_555 1_555
O3A_2 Cu2 1_555 1_555
Cu2 O1 1_555 1_555
C2 C4 1_555 1_555
C3 C5 1_555 1_555
C7 C22 1_555 1_555
N4 N5 1_555 1_555
N6 N7 1_555 1_555
C10 O4 1_555 1_555
C14 C23 1_555 1_555
C16 C24 1_555 1_555
C17 C18 1_555 1_555
C26 C27 1_555 1_555
C2A C4A 1_555 1_555
C3A C5A 1_555 1_555
Cu2A O1A 1_555 1_555
C7A C22A 1_555 1_555
N4A N5A 1_555 1_555
N6A N7A 1_555 1_555
C10A O4A 1_555 1_555
C14A C23A 1_555 1_555
C16A C24A 1_555 1_555
C17A C18A 1_555 1_555
C26A C27A 1_555 1_555
Cu2_2 O3_2 1_555 1_555
Cu2A_2 O3A_2 1_555 1_555

#END
