
#######################################################################
#
#                 Cambridge Crystallographic Data Centre
#                                CCDC 
#
#######################################################################
#
# If this CIF has been generated from an entry in the Cambridge 
# Structural Database, then it will include bibliographic, chemical, 
# crystal, experimental, refinement or atomic coordinate data resulting 
# from the CCDC's data processing and validation procedures.
#
#######################################################################

data_FURFEF
_symmetry_cell_setting           tetragonal
_symmetry_space_group_name_H-M   'P 4/n c c'
_symmetry_Int_Tables_number      130
_space_group_name_Hall           '-P 4a 2ac'
loop_
_symmetry_equiv_pos_site_id
_symmetry_equiv_pos_as_xyz
1 x,y,z
2 1/2-x,1/2-y,z
3 1/2-y,x,z
4 y,1/2-x,z
5 -x,1/2+y,1/2-z
6 1/2+x,-y,1/2-z
7 1/2+y,1/2+x,1/2-z
8 -y,-x,1/2-z
9 -x,-y,-z
10 1/2+x,1/2+y,-z
11 1/2+y,-x,-z
12 -y,1/2+x,-z
13 x,1/2-y,1/2+z
14 1/2-x,y,1/2+z
15 1/2-y,1/2-x,1/2+z
16 y,x,1/2+z
_cell_length_a                   23.5008(5)
_cell_length_b                   23.5008(5)
_cell_length_c                   15.7514(7)
_cell_angle_alpha                90
_cell_angle_beta                 90
_cell_angle_gamma                90
_cell_volume                     8699.3
loop_
_atom_site_label
_atom_site_type_symbol
_atom_site_fract_x
_atom_site_fract_y
_atom_site_fract_z
Er1 Er 0.7500 0.2500 1.0000
Er2 Er 0.61757(3) 0.38243(3) 0.7500
C1 C 0.7451(8) 0.4346(7) 0.7313(9)
C2 C 0.7194(7) 0.3708(7) 0.8965(10)
C3 C 0.7422(6) 0.4638(6) 0.8204(9)
C4 C 0.7497(7) 0.5211(7) 0.8248(11)
H1 H 0.7572 0.5410 0.7749
C5 C 0.7465(7) 0.5522(7) 0.9022(11)
C6 C 0.7509(8) 0.6108(7) 0.9081(15)
H2 H 0.7548 0.6318 0.8584
C7 C 0.7496(9) 0.6381(8) 0.9814(18)
H3 H 0.7532 0.6775 0.9836
C8 C 0.7426(11) 0.6049(11) 1.0586(17)
H4 H 0.7412 0.6235 1.1107
C9 C 0.7380(9) 0.5470(8) 1.0564(12)
H5 H 0.7335 0.5268 1.1067
C10 C 0.7400(6) 0.5188(6) 0.9816(9)
C11 C 0.7322(7) 0.4607(7) 0.9725(9)
H6 H 0.7270 0.4392 1.0214
C12 C 0.7318(7) 0.4327(7) 0.8959(10)
C13 C 0.6180(8) 0.5256(8) 0.7114(14)
H7 H 0.6254 0.5121 0.6570
C14 C 0.6211(9) 0.5841(9) 0.7259(15)
H8 H 0.6316 0.6086 0.6824
C15 C 0.6087(10) 0.6048(11) 0.8042(18)
H9 H 0.6093 0.6439 0.8139
C16 C 0.5949(10) 0.5670(9) 0.8716(16)
C17 C 0.5855(13) 0.5835(13) 0.9563(19)
H10 H 0.5848 0.6220 0.9696
C18 C 0.5776(11) 0.5460(13) 1.017(2)
H11 H 0.5696 0.5585 1.0719
C19 C 0.5811(10) 0.4860(11) 0.9999(15)
C20 C 0.5712(10) 0.4463(13) 1.0641(15)
H12 H 0.5616 0.4580 1.1186
C21 C 0.5762(11) 0.3891(11) 1.0444(13)
H13 H 0.5738 0.3616 1.0867
C22 C 0.5850(9) 0.3736(9) 0.9593(12)
H14 H 0.5864 0.3352 0.9454
C23 C 0.5873(7) 0.4671(8) 0.9175(10)
C24 C 0.5946(8) 0.5077(8) 0.8528(12)
N1 N 0.6048(7) 0.4882(6) 0.7716(9)
N2 N 0.5914(7) 0.4121(6) 0.8974(8)
O1 O 0.6977(5) 0.4243(5) 0.6969(7)
O2 O 0.7918(5) 0.4241(6) 0.7002(8)
O3 O 0.6918(5) 0.3501(4) 0.8340(6)
O4 O 0.7365(5) 0.3418(4) 0.9581(6)
O5 O 0.6932(4) 0.2364(4) 0.8735(5)
H15 H 0.6819 0.2650 0.8453
H16 H 0.6845 0.2030 0.8573
Er2A Er 0.88243(3) 0.11757(3) 0.7500
C1A C 0.7549(8) 0.0654(7) 0.7313(9)
C2A C 0.7806(7) 0.1292(7) 0.8965(10)
C3A C 0.7578(6) 0.0362(6) 0.8204(9)
C4A C 0.7503(7) -0.0211(7) 0.8248(11)
H1A H 0.7428 -0.0410 0.7749
C5A C 0.7535(7) -0.0522(7) 0.9022(11)
C6A C 0.7491(8) -0.1108(7) 0.9081(15)
H2A H 0.7452 -0.1318 0.8584
C7A C 0.7504(9) -0.1381(8) 0.9814(18)
H3A H 0.7468 -0.1775 0.9836
C8A C 0.7574(11) -0.1049(11) 1.0586(17)
H4A H 0.7588 -0.1235 1.1107
C9A C 0.7620(9) -0.0470(8) 1.0564(12)
H5A H 0.7665 -0.0268 1.1067
C10A C 0.7600(6) -0.0188(6) 0.9816(9)
C11A C 0.7678(7) 0.0393(7) 0.9725(9)
H6A H 0.7730 0.0608 1.0214
C12A C 0.7682(7) 0.0673(7) 0.8959(10)
C13A C 0.8820(8) -0.0256(8) 0.7114(14)
H7A H 0.8746 -0.0121 0.6570
C14A C 0.8789(9) -0.0841(9) 0.7259(15)
H8A H 0.8684 -0.1086 0.6824
C15A C 0.8913(10) -0.1048(11) 0.8042(18)
H9A H 0.8907 -0.1439 0.8139
C16A C 0.9051(10) -0.0670(9) 0.8716(16)
C17A C 0.9145(13) -0.0835(13) 0.9563(19)
H10A H 0.9152 -0.1220 0.9696
C18A C 0.9224(11) -0.0460(13) 1.017(2)
H11A H 0.9304 -0.0585 1.0719
C19A C 0.9189(10) 0.0140(11) 0.9999(15)
C20A C 0.9288(10) 0.0537(13) 1.0641(15)
H12A H 0.9384 0.0420 1.1186
C21A C 0.9238(11) 0.1109(11) 1.0444(13)
H13A H 0.9262 0.1384 1.0867
C22A C 0.9150(9) 0.1264(9) 0.9593(12)
H14A H 0.9136 0.1648 0.9454
C23A C 0.9127(7) 0.0329(8) 0.9175(10)
C24A C 0.9054(8) -0.0077(8) 0.8528(12)
N1A N 0.8952(7) 0.0118(6) 0.7716(9)
N2A N 0.9086(7) 0.0879(6) 0.8974(8)
O1A O 0.8023(5) 0.0757(5) 0.6969(7)
O2A O 0.7082(5) 0.0759(6) 0.7002(8)
O3A O 0.8082(5) 0.1499(4) 0.8340(6)
O4A O 0.7635(5) 0.1582(4) 0.9581(6)
O5A O 0.8068(4) 0.2636(4) 0.8735(5)
H15A H 0.8181 0.2350 0.8453
H16A H 0.8155 0.2970 0.8573
C1F C 0.9346(7) 0.2451(8) 0.7687(9)
C2F C 0.8708(7) 0.2194(7) 0.6035(10)
C3F C 0.9638(6) 0.2422(6) 0.6796(9)
C4F C 1.0211(7) 0.2497(7) 0.6752(11)
H1F H 1.0410 0.2572 0.7251
C5F C 1.0522(7) 0.2465(7) 0.5978(11)
C6F C 1.1108(7) 0.2509(8) 0.5919(15)
H2F H 1.1318 0.2548 0.6416
C7F C 1.1381(8) 0.2496(9) 0.5186(18)
H3F H 1.1775 0.2532 0.5164
C8F C 1.1049(11) 0.2426(11) 0.4414(17)
H4F H 1.1235 0.2412 0.3893
C9F C 1.0470(8) 0.2380(9) 0.4436(12)
H5F H 1.0268 0.2335 0.3933
C10F C 1.0188(6) 0.2400(6) 0.5184(9)
C11F C 0.9607(7) 0.2322(7) 0.5275(9)
H6F H 0.9392 0.2270 0.4786
C12F C 0.9327(7) 0.2318(7) 0.6041(10)
C13F C 1.0256(8) 0.1180(8) 0.7886(14)
H7F H 1.0121 0.1254 0.8430
C14F C 1.0841(9) 0.1211(9) 0.7741(15)
H8F H 1.1086 0.1316 0.8176
C15F C 1.1048(11) 0.1087(10) 0.6958(18)
H9F H 1.1439 0.1093 0.6861
C16F C 1.0670(9) 0.0949(10) 0.6284(16)
C17F C 1.0835(13) 0.0855(13) 0.5437(19)
H10F H 1.1220 0.0848 0.5304
C18F C 1.0460(13) 0.0776(11) 0.483(2)
H11F H 1.0585 0.0696 0.4281
C19F C 0.9860(11) 0.0811(10) 0.5001(15)
C20F C 0.9463(13) 0.0712(10) 0.4359(15)
H12F H 0.9580 0.0616 0.3814
C21F C 0.8891(11) 0.0762(11) 0.4556(13)
H13F H 0.8616 0.0738 0.4133
C22F C 0.8736(9) 0.0850(9) 0.5407(12)
H14F H 0.8352 0.0864 0.5546
C23F C 0.9671(8) 0.0873(7) 0.5825(10)
C24F C 1.0077(8) 0.0946(8) 0.6472(12)
N1F N 0.9882(6) 0.1048(7) 0.7284(9)
N2F N 0.9121(6) 0.0914(7) 0.6026(8)
O1F O 0.9243(5) 0.1977(5) 0.8031(7)
O2F O 0.9241(6) 0.2918(5) 0.7998(8)
O3F O 0.8501(4) 0.1918(5) 0.6660(6)
O4F O 0.8418(4) 0.2365(5) 0.5419(6)
C1G C 0.5654(7) 0.2549(8) 0.7687(9)
C2G C 0.6292(7) 0.2806(7) 0.6035(10)
C3G C 0.5362(6) 0.2578(6) 0.6796(9)
C4G C 0.4789(7) 0.2503(7) 0.6752(11)
H1G H 0.4590 0.2428 0.7251
C5G C 0.4478(7) 0.2535(7) 0.5978(11)
C6G C 0.3892(7) 0.2491(8) 0.5919(15)
H2G H 0.3682 0.2452 0.6416
C7G C 0.3619(8) 0.2504(9) 0.5186(18)
H3G H 0.3225 0.2468 0.5164
C8G C 0.3951(11) 0.2574(11) 0.4414(17)
H4G H 0.3765 0.2588 0.3893
C9G C 0.4530(8) 0.2620(9) 0.4436(12)
H5G H 0.4732 0.2665 0.3933
C10G C 0.4812(6) 0.2600(6) 0.5184(9)
C11G C 0.5393(7) 0.2678(7) 0.5275(9)
H6G H 0.5608 0.2730 0.4786
C12G C 0.5673(7) 0.2682(7) 0.6041(10)
C13G C 0.4744(8) 0.3820(8) 0.7886(14)
H7G H 0.4879 0.3746 0.8430
C14G C 0.4159(9) 0.3789(9) 0.7741(15)
H8G H 0.3914 0.3684 0.8176
C15G C 0.3952(11) 0.3913(10) 0.6958(18)
H9G H 0.3561 0.3907 0.6861
C16G C 0.4330(9) 0.4051(10) 0.6284(16)
C17G C 0.4165(13) 0.4145(13) 0.5437(19)
H10G H 0.3780 0.4152 0.5304
C18G C 0.4540(13) 0.4224(11) 0.483(2)
H11G H 0.4415 0.4304 0.4281
C19G C 0.5140(11) 0.4189(10) 0.5001(15)
C20G C 0.5537(13) 0.4288(10) 0.4359(15)
H12G H 0.5420 0.4384 0.3814
C21G C 0.6109(11) 0.4238(11) 0.4556(13)
H13G H 0.6384 0.4262 0.4133
C22G C 0.6264(9) 0.4150(9) 0.5407(12)
H14G H 0.6648 0.4136 0.5546
C23G C 0.5329(8) 0.4127(7) 0.5825(10)
C24G C 0.4923(8) 0.4054(8) 0.6472(12)
N1G N 0.5118(6) 0.3952(7) 0.7284(9)
N2G N 0.5879(6) 0.4086(7) 0.6026(8)
O1G O 0.5757(5) 0.3023(5) 0.8031(7)
O2G O 0.5759(6) 0.2082(5) 0.7998(8)
O3G O 0.6499(4) 0.3082(5) 0.6660(6)
O4G O 0.6582(4) 0.2635(5) 0.5419(6)
O5J O 0.7364(4) 0.3068(4) 1.1265(5)
H15J H 0.7650 0.3181 1.1547
H16J H 0.7030 0.3155 1.1427
O5K O 0.7636(4) 0.1932(4) 1.1265(5)
H15K H 0.7350 0.1819 1.1547
H16K H 0.7970 0.1845 1.1427
Er1F Er 0.7500 0.2500 0.5000
O4J O 0.8418(4) 0.2635(5) 1.0419(6)
O4K O 0.6582(4) 0.2365(5) 1.0419(6)
O6 O 0.5983(11) 0.0983(11) 0.7500
H17 H 0.5973 0.0628 0.7730
H17F H 0.5628 0.0973 0.7270
Cl1 Cl 0.750(2) 0.7427(10) 0.7275(8)
O7 O 0.748(5) 0.7753(12) 0.6498(13)
O8B O 0.7195(13) 0.754(4) 0.7988(14)
O9B O 0.7912(19) 0.6996(17) 0.734(5)
O10C O 0.7059(19) 0.7006(17) 0.726(5)
O8 O 0.754(4) 0.7805(13) 0.7988(14)
O9 O 0.6996(17) 0.7088(19) 0.734(5)
O10A O 0.7006(17) 0.7941(19) 0.726(5)
Cl1C Cl 0.7427(10) 0.750(2) 0.7275(8)
O7C O 0.7753(12) 0.752(5) 0.6498(13)
O10 O 0.7994(17) 0.7059(19) 0.726(5)
O8A O 0.746(4) 0.7195(13) 0.7988(14)
O9A O 0.8004(17) 0.7912(19) 0.734(5)
Cl1B Cl 0.7573(10) 0.750(2) 0.7275(8)
O7B O 0.7247(12) 0.748(5) 0.6498(13)
Cl1A Cl 0.750(2) 0.7573(10) 0.7275(8)
O7A O 0.752(5) 0.7247(12) 0.6498(13)
O10B O 0.7941(19) 0.7994(17) 0.726(5)
O8C O 0.7805(13) 0.746(4) 0.7988(14)
O9C O 0.7088(19) 0.8004(17) 0.734(5)
loop_
_geom_bond_atom_site_label_1
_geom_bond_atom_site_label_2
_geom_bond_site_symmetry_1
_geom_bond_site_symmetry_2
Er1 O4 1_555 1_555
Er2 N1 1_555 1_555
C1 C3 1_555 1_555
C2 C12 1_555 1_555
C3 C4 1_555 1_555
C4 H1 1_555 1_555
C5 C4 1_555 1_555
C6 C5 1_555 1_555
H2 C6 1_555 1_555
C7 C6 1_555 1_555
H3 C7 1_555 1_555
C8 C7 1_555 1_555
H4 C8 1_555 1_555
C9 C8 1_555 1_555
H5 C9 1_555 1_555
C10 C5 1_555 1_555
C11 C10 1_555 1_555
H6 C11 1_555 1_555
C12 C3 1_555 1_555
C13 H7 1_555 1_555
C14 C13 1_555 1_555
H8 C14 1_555 1_555
C15 C14 1_555 1_555
H9 C15 1_555 1_555
C16 C15 1_555 1_555
C17 C16 1_555 1_555
H10 C17 1_555 1_555
C18 C17 1_555 1_555
H11 C18 1_555 1_555
C19 C18 1_555 1_555
C20 C19 1_555 1_555
H12 C20 1_555 1_555
C21 C20 1_555 1_555
H13 C21 1_555 1_555
C22 C21 1_555 1_555
H14 C22 1_555 1_555
C23 C19 1_555 1_555
C24 C16 1_555 1_555
N1 C13 1_555 1_555
N2 Er2 1_555 1_555
O1 Er2 1_555 1_555
O2 C1 1_555 1_555
O3 Er2 1_555 1_555
O4 C2 1_555 1_555
O5 Er1 1_555 1_555
H15 O5 1_555 1_555
H16 O5 1_555 1_555
O6 H17 1_555 1_555
Cl1 O7 1_555 1_555
O8 Cl1C 1_555 1_555
O9 Cl1C 1_555 1_555
O10 Cl1B 1_555 1_555
Er2A N1A 1_555 1_555
C1A C3A 1_555 1_555
C2A C12A 1_555 1_555
C3A C4A 1_555 1_555
C4A H1A 1_555 1_555
C5A C4A 1_555 1_555
C6A C5A 1_555 1_555
H2A C6A 1_555 1_555
C7A C6A 1_555 1_555
H3A C7A 1_555 1_555
C8A C7A 1_555 1_555
H4A C8A 1_555 1_555
C9A C8A 1_555 1_555
H5A C9A 1_555 1_555
C10A C5A 1_555 1_555
C11A C10A 1_555 1_555
H6A C11A 1_555 1_555
C12A C3A 1_555 1_555
C13A H7A 1_555 1_555
C14A C13A 1_555 1_555
H8A C14A 1_555 1_555
C15A C14A 1_555 1_555
H9A C15A 1_555 1_555
C16A C15A 1_555 1_555
C17A C16A 1_555 1_555
H10A C17A 1_555 1_555
C18A C17A 1_555 1_555
H11A C18A 1_555 1_555
C19A C18A 1_555 1_555
C20A C19A 1_555 1_555
H12A C20A 1_555 1_555
C21A C20A 1_555 1_555
H13A C21A 1_555 1_555
C22A C21A 1_555 1_555
H14A C22A 1_555 1_555
C23A C19A 1_555 1_555
C24A C16A 1_555 1_555
N1A C13A 1_555 1_555
N2A Er2A 1_555 1_555
O1A Er2A 1_555 1_555
O2A C1A 1_555 1_555
O3A Er2A 1_555 1_555
O4A Er1 1_555 1_555
O5A Er1 1_555 1_555
H15A O5A 1_555 1_555
H16A O5A 1_555 1_555
C1F C3F 1_555 1_555
C2F C12F 1_555 1_555
C3F C4F 1_555 1_555
C4F H1F 1_555 1_555
C5F C4F 1_555 1_555
C6F C5F 1_555 1_555
H2F C6F 1_555 1_555
C7F C6F 1_555 1_555
H3F C7F 1_555 1_555
C8F C7F 1_555 1_555
H4F C8F 1_555 1_555
C9F C8F 1_555 1_555
H5F C9F 1_555 1_555
C10F C5F 1_555 1_555
C11F C10F 1_555 1_555
H6F C11F 1_555 1_555
C12F C3F 1_555 1_555
C13F H7F 1_555 1_555
C14F C13F 1_555 1_555
H8F C14F 1_555 1_555
C15F C14F 1_555 1_555
H9F C15F 1_555 1_555
C16F C15F 1_555 1_555
C17F C16F 1_555 1_555
H10F C17F 1_555 1_555
C18F C17F 1_555 1_555
H11F C18F 1_555 1_555
C19F C18F 1_555 1_555
C20F C19F 1_555 1_555
H12F C20F 1_555 1_555
C21F C20F 1_555 1_555
H13F C21F 1_555 1_555
C22F C21F 1_555 1_555
H14F C22F 1_555 1_555
C23F C19F 1_555 1_555
C24F C16F 1_555 1_555
N1F Er2A 1_555 1_555
N2F Er2A 1_555 1_555
O1F Er2A 1_555 1_555
O2F C1F 1_555 1_555
O3F Er2A 1_555 1_555
O4F C2F 1_555 1_555
C1G C3G 1_555 1_555
C2G C12G 1_555 1_555
C3G C4G 1_555 1_555
C4G H1G 1_555 1_555
C5G C4G 1_555 1_555
C6G C5G 1_555 1_555
H2G C6G 1_555 1_555
C7G C6G 1_555 1_555
H3G C7G 1_555 1_555
C8G C7G 1_555 1_555
H4G C8G 1_555 1_555
C9G C8G 1_555 1_555
H5G C9G 1_555 1_555
C10G C5G 1_555 1_555
C11G C10G 1_555 1_555
H6G C11G 1_555 1_555
C12G C3G 1_555 1_555
C13G H7G 1_555 1_555
C14G C13G 1_555 1_555
H8G C14G 1_555 1_555
C15G C14G 1_555 1_555
H9G C15G 1_555 1_555
C16G C15G 1_555 1_555
C17G C16G 1_555 1_555
H10G C17G 1_555 1_555
C18G C17G 1_555 1_555
H11G C18G 1_555 1_555
C19G C18G 1_555 1_555
C20G C19G 1_555 1_555
H12G C20G 1_555 1_555
C21G C20G 1_555 1_555
H13G C21G 1_555 1_555
C22G C21G 1_555 1_555
H14G C22G 1_555 1_555
C23G C19G 1_555 1_555
C24G C16G 1_555 1_555
N1G Er2 1_555 1_555
N2G Er2 1_555 1_555
O1G Er2 1_555 1_555
O2G C1G 1_555 1_555
O3G Er2 1_555 1_555
O4G C2G 1_555 1_555
O5J Er1 1_555 1_555
H15J O5J 1_555 1_555
H16J O5J 1_555 1_555
O5K Er1 1_555 1_555
H15K O5K 1_555 1_555
H16K O5K 1_555 1_555
Er1F O4F 1_555 1_555
O4J Er1 1_555 1_555
O4K Er1 1_555 1_555
H17F O6 1_555 1_555
O8B Cl1 1_555 1_555
O9B Cl1 1_555 1_555
O10C Cl1 1_555 1_555
O10A Cl1C 1_555 1_555
Cl1C O7C 1_555 1_555
O8A Cl1B 1_555 1_555
O9A Cl1B 1_555 1_555
Cl1B O7B 1_555 1_555
Cl1A O7A 1_555 1_555
O10B Cl1A 1_555 1_555
O8C Cl1A 1_555 1_555
O9C Cl1A 1_555 1_555
C1 O1 1_555 1_555
C2 O3 1_555 1_555
C9 C10 1_555 1_555
C11 C12 1_555 1_555
C22 N2 1_555 1_555
C23 C24 1_555 1_555
C23 N2 1_555 1_555
C24 N1 1_555 1_555
C1A O1A 1_555 1_555
C2A O3A 1_555 1_555
C2A O4A 1_555 1_555
C9A C10A 1_555 1_555
C11A C12A 1_555 1_555
C22A N2A 1_555 1_555
C23A C24A 1_555 1_555
C23A N2A 1_555 1_555
C24A N1A 1_555 1_555
C1F O1F 1_555 1_555
C2F O3F 1_555 1_555
C9F C10F 1_555 1_555
C11F C12F 1_555 1_555
C13F N1F 1_555 1_555
C22F N2F 1_555 1_555
C23F C24F 1_555 1_555
C23F N2F 1_555 1_555
C24F N1F 1_555 1_555
C1G O1G 1_555 1_555
C2G O3G 1_555 1_555
C9G C10G 1_555 1_555
C11G C12G 1_555 1_555
C13G N1G 1_555 1_555
C22G N2G 1_555 1_555
C23G C24G 1_555 1_555
C23G N2G 1_555 1_555
C24G N1G 1_555 1_555
O4G Er1F 1_555 1_555

#END
