
#######################################################################
#
#                 Cambridge Crystallographic Data Centre
#                                CCDC 
#
#######################################################################
#
# If this CIF has been generated from an entry in the Cambridge 
# Structural Database, then it will include bibliographic, chemical, 
# crystal, experimental, refinement or atomic coordinate data resulting 
# from the CCDC's data processing and validation procedures.
#
#######################################################################

data_FURYIB
_symmetry_cell_setting           monoclinic
_symmetry_space_group_name_H-M   'P 21/c'
_symmetry_Int_Tables_number      14
_space_group_name_Hall           '-P 2ybc'
loop_
_symmetry_equiv_pos_site_id
_symmetry_equiv_pos_as_xyz
1 x,y,z
2 -x,1/2+y,1/2-z
3 -x,-y,-z
4 x,1/2-y,1/2+z
_cell_length_a                   8.6890(4)
_cell_length_b                   8.9998(3)
_cell_length_c                   7.6978(3)
_cell_angle_alpha                90
_cell_angle_beta                 111.448(5)
_cell_angle_gamma                90
_cell_volume                     560.276
loop_
_atom_site_label
_atom_site_type_symbol
_atom_site_fract_x
_atom_site_fract_y
_atom_site_fract_z
Cu1 Cu 1.0000 0.0000 1.0000
O1 O 0.97625(19) -0.25972(19) 1.0581(2)
O2 O 0.97420(19) -0.43739(19) 1.2462(2)
N1 N 1.4830(2) -0.4177(2) 1.7070(2)
N2 N 1.3616(2) -0.50035(19) 1.7138(3)
N3 N 1.4453(2) -0.3298(2) 1.5576(3)
N4 N 1.0518(2) -0.3281(2) 1.2056(2)
N5 N 1.2026(2) -0.2872(2) 1.3032(2)
N6 N 1.2340(2) -0.4666(2) 1.5591(3)
C1 C 1.6455(3) -0.4158(3) 1.8574(3)
C2 C 1.2861(3) -0.3624(2) 1.4661(3)
H1 H 1.673(4) -0.516(3) 1.909(4)
H2 H 1.718(3) -0.401(3) 1.807(4)
H3 H 1.645(3) -0.347(3) 1.941(4)
Cu1A Cu 1.0000 -0.5000 1.5000
Cu1A_2 Cu 1.0000 0.5000 1.5000
O1A O 1.02375(19) 0.24028(19) 1.4419(2)
O1B O 1.02375(19) 0.25972(19) 0.9419(2)
O2A O 1.02580(19) 0.06261(19) 1.2538(2)
O2C O 0.97420(19) -0.06261(19) 0.7462(2)
N1A N 0.5170(2) 0.0823(2) 0.7930(2)
N2A N 0.6384(2) -0.00035(19) 0.7862(3)
N3A N 0.5547(2) 0.1702(2) 0.9424(3)
N4A N 0.9482(2) 0.1719(2) 1.2944(2)
N5A N 0.7974(2) 0.2128(2) 1.1968(2)
N6A N 0.7660(2) 0.0334(2) 0.9409(3)
N6C N 1.2340(2) -0.0334(2) 1.0591(3)
C1A C 0.3545(3) 0.0842(3) 0.6426(3)
C2A C 0.7139(3) 0.1376(2) 1.0339(3)
H1A H 0.327(4) -0.016(3) 0.591(4)
H2A H 0.282(3) 0.099(3) 0.693(4)
H3A H 0.355(3) 0.153(3) 0.559(4)
loop_
_geom_bond_atom_site_label_1
_geom_bond_atom_site_label_2
_geom_bond_site_symmetry_1
_geom_bond_site_symmetry_2
Cu1 O1 1_555 1_555
O1 N4 1_555 1_555
O2 N4 1_555 1_555
N1 N2 1_555 1_555
N2 N6 1_555 1_555
N3 N1 1_555 1_555
N4 N5 1_555 1_555
N5 C2 1_555 1_555
N6 C2 1_555 1_555
C1 N1 1_555 1_555
C2 N3 1_555 1_555
H1 C1 1_555 1_555
H2 C1 1_555 1_555
H3 C1 1_555 1_555
Cu1A O2 1_555 1_555
Cu1A_2 O1A 1_555 1_555
O1A N4A 1_555 1_555
O1B Cu1 1_555 1_555
O2A Cu1 1_555 1_555
O2C Cu1 1_555 1_555
N1A N2A 1_555 1_555
N2A N6A 1_555 1_555
N3A N1A 1_555 1_555
N4A O2A 1_555 1_555
N5A N4A 1_555 1_555
N6A Cu1 1_555 1_555
N6C Cu1 1_555 1_555
C1A N1A 1_555 1_555
C2A N3A 1_555 1_555
H1A C1A 1_555 1_555
H2A C1A 1_555 1_555
H3A C1A 1_555 1_555
N6 Cu1A 1_555 1_555
N5A C2A 1_555 1_555
N6A C2A 1_555 1_555

#END
