
#######################################################################
#
#                 Cambridge Crystallographic Data Centre
#                                CCDC 
#
#######################################################################
#
# If this CIF has been generated from an entry in the Cambridge 
# Structural Database, then it will include bibliographic, chemical, 
# crystal, experimental, refinement or atomic coordinate data resulting 
# from the CCDC's data processing and validation procedures.
#
#######################################################################

data_FUSMAI
_symmetry_cell_setting           monoclinic
_symmetry_space_group_name_H-M   'P 21'
_symmetry_Int_Tables_number      4
_space_group_name_Hall           'P 2yb'
loop_
_symmetry_equiv_pos_site_id
_symmetry_equiv_pos_as_xyz
1 x,y,z
2 -x,1/2+y,-z
_cell_length_a                   13.1340(8)
_cell_length_b                   7.2566(4)
_cell_length_c                   16.4929(10)
_cell_angle_alpha                90
_cell_angle_beta                 106.0710(10)
_cell_angle_gamma                90
_cell_volume                     1510.48
loop_
_atom_site_label
_atom_site_type_symbol
_atom_site_fract_x
_atom_site_fract_y
_atom_site_fract_z
Cu1 Cu 1.42140(4) 0.94284(7) 0.46661(3)
Cu2 Cu 1.91747(4) 1.03958(7) 0.96918(3)
N1 N 1.3955(3) 0.8622(7) 0.5761(2)
N2 N 1.2751(3) 0.8724(6) 0.4168(2)
N3 N 1.8929(3) 1.1504(7) 1.0751(2)
N4 N 1.7658(3) 1.0727(6) 0.9219(2)
O1 O 1.4442(2) 1.0217(6) 0.36140(17)
O2 O 1.0607(3) 0.9829(7) 0.03286(18)
O3 O 1.1533(3) 1.2081(6) -0.0045(2)
O4 O 1.9408(2) 0.9591(6) 0.86553(16)
O5 O 1.5652(2) 1.0045(6) 0.53067(18)
O6 O 1.6516(3) 0.7658(6) 0.4990(2)
C1 C 1.2787(3) 0.8666(8) 0.5637(3)
H1 H 1.2571 0.9959 0.5632
C2 C 1.2424(4) 0.7686(11) 0.6320(3)
H2 H 1.2755 0.8248 0.6862
H3 H 1.2639 0.6404 0.6346
C3 C 1.1223(4) 0.7803(10) 0.6135(3)
H4 H 1.1015 0.9078 0.6167
H5 H 1.0997 0.7109 0.6557
C4 C 1.0674(4) 0.7031(10) 0.5253(3)
H6 H 1.0819 0.5722 0.5242
H7 H 0.9913 0.7188 0.5137
C5 C 1.1050(4) 0.7990(9) 0.4572(3)
H8 H 1.0840 0.9275 0.4538
H9 H 1.0726 0.7419 0.4030
C6 C 1.2249(3) 0.7851(6) 0.4775(2)
H10 H 1.2428 0.6537 0.4799
C7 C 1.2236(4) 0.8909(7) 0.3389(3)
H11 H 1.1536 0.8511 0.3225
C8 C 1.2665(3) 0.9692(8) 0.2745(3)
C9 C 1.3724(3) 1.0296(8) 0.2879(3)
C10 C 1.3993(3) 1.0998(7) 0.2178(3)
H12 H 1.4691 1.1354 0.2241
C11 C 1.3281(3) 1.1188(7) 0.1404(3)
H13 H 1.3496 1.1709 0.0963
C12 C 1.2238(3) 1.0609(7) 0.1269(3)
C13 C 1.1951(3) 0.9841(7) 0.1933(3)
H14 H 1.1264 0.9404 0.1845
C14 C 1.1397(4) 1.0874(7) 0.0453(3)
C15 C 1.7847(3) 1.2244(7) 1.0555(3)
H15 H 1.7855 1.3469 1.0307
C16 C 1.7426(4) 1.2457(10) 1.1323(3)
H16 H 1.7419 1.1266 1.1589
H17 H 1.7887 1.3271 1.1730
C17 C 1.6310(4) 1.3248(9) 1.1057(3)
H18 H 1.6332 1.4490 1.0844
H19 H 1.6033 1.3315 1.1544
C18 C 1.5574(4) 1.2064(9) 1.0375(3)
H20 H 1.5479 1.0875 1.0613
H21 H 1.4885 1.2654 1.0189
C19 C 1.6007(3) 1.1777(9) 0.9617(3)
H22 H 1.5552 1.0928 0.9225
H23 H 1.6005 1.2942 0.9329
C20 C 1.7121(3) 1.1017(6) 0.9883(2)
H24 H 1.7086 0.9817 1.0146
C21 C 1.7161(3) 1.0580(7) 0.8441(3)
H25 H 1.6442 1.0860 0.8287
C22 C 1.7611(3) 1.0021(6) 0.7776(3)
C23 C 1.8688(3) 0.9490(9) 0.7919(2)
C24 C 1.8992(3) 0.8787(8) 0.7228(3)
H26 H 1.9696 0.8456 0.7299
C25 C 1.8271(4) 0.8575(8) 0.6442(3)
H27 H 1.8488 0.8048 0.6004
C26 C 1.7218(3) 0.9147(7) 0.6302(3)
C27 C 1.6927(3) 0.9871(7) 0.6969(3)
H28 H 1.6234 1.0287 0.6877
C28 C 1.6425(4) 0.8907(7) 0.5468(3)
Cu2_2 Cu 0.91747(4) 1.03958(7) -0.03082(3)
O2_2 O 2.0607(3) 0.9829(7) 1.03286(18)
O7 O 0.5841(4) 0.7308(9) 0.3250(3)
O8 O 0.9113(4) 0.7558(11) 0.1751(3)
O9 O 0.8110(10) 0.771(3) 0.3106(8)
O10 O 0.6979(12) 0.769(3) 0.1990(10)
loop_
_geom_bond_atom_site_label_1
_geom_bond_atom_site_label_2
_geom_bond_site_symmetry_1
_geom_bond_site_symmetry_2
Cu1 N1 1_555 1_555
Cu2 N3 1_555 1_555
N1 C1 1_555 1_555
N2 Cu1 1_555 1_555
N3 C15 1_555 1_555
N4 Cu2 1_555 1_555
O1 Cu1 1_555 1_555
O2 C14 1_555 1_555
O3 C14 1_555 1_555
O4 Cu2 1_555 1_555
O5 Cu1 1_555 1_555
O6 C28 1_555 1_555
C1 H1 1_555 1_555
C2 C1 1_555 1_555
H2 C2 1_555 1_555
H3 C2 1_555 1_555
C3 C2 1_555 1_555
H4 C3 1_555 1_555
H5 C3 1_555 1_555
C4 C3 1_555 1_555
H6 C4 1_555 1_555
H7 C4 1_555 1_555
C5 C4 1_555 1_555
H8 C5 1_555 1_555
H9 C5 1_555 1_555
C6 N2 1_555 1_555
H10 C6 1_555 1_555
C7 N2 1_555 1_555
H11 C7 1_555 1_555
C8 C7 1_555 1_555
C9 O1 1_555 1_555
C10 C9 1_555 1_555
H12 C10 1_555 1_555
C11 C10 1_555 1_555
H13 C11 1_555 1_555
C12 C11 1_555 1_555
C13 C8 1_555 1_555
H14 C13 1_555 1_555
C14 C12 1_555 1_555
C15 H15 1_555 1_555
C16 C15 1_555 1_555
H16 C16 1_555 1_555
H17 C16 1_555 1_555
C17 C16 1_555 1_555
H18 C17 1_555 1_555
H19 C17 1_555 1_555
C18 C17 1_555 1_555
H20 C18 1_555 1_555
H21 C18 1_555 1_555
C19 C18 1_555 1_555
H22 C19 1_555 1_555
H23 C19 1_555 1_555
C20 N4 1_555 1_555
H24 C20 1_555 1_555
C21 N4 1_555 1_555
H25 C21 1_555 1_555
C22 C21 1_555 1_555
C23 O4 1_555 1_555
C24 C23 1_555 1_555
H26 C24 1_555 1_555
C25 C24 1_555 1_555
H27 C25 1_555 1_555
C26 C25 1_555 1_555
C27 C22 1_555 1_555
H28 C27 1_555 1_555
C28 O5 1_555 1_555
Cu2_2 O2 1_555 1_555
O2_2 Cu2 1_555 1_555
C1 C6 1_555 1_555
C5 C6 1_555 1_555
C8 C9 1_555 1_555
C12 C13 1_555 1_555
C15 C20 1_555 1_555
C19 C20 1_555 1_555
C22 C23 1_555 1_555
C26 C27 1_555 1_555
C26 C28 1_555 1_555

#END
