
#######################################################################
#
#                 Cambridge Crystallographic Data Centre
#                                CCDC 
#
#######################################################################
#
# If this CIF has been generated from an entry in the Cambridge 
# Structural Database, then it will include bibliographic, chemical, 
# crystal, experimental, refinement or atomic coordinate data resulting 
# from the CCDC's data processing and validation procedures.
#
#######################################################################

data_FUSMUC
_symmetry_cell_setting           rhombohedral
_symmetry_space_group_name_H-M   'R -3'
_symmetry_Int_Tables_number      148
_space_group_name_Hall           '-R 3'
loop_
_symmetry_equiv_pos_site_id
_symmetry_equiv_pos_as_xyz
1 x,y,z
2 -y,x-y,z
3 -x+y,-x,z
4 2/3+x,1/3+y,1/3+z
5 2/3-y,1/3+x-y,1/3+z
6 2/3-x+y,1/3-x,1/3+z
7 1/3+x,2/3+y,2/3+z
8 1/3-y,2/3+x-y,2/3+z
9 1/3-x+y,2/3-x,2/3+z
10 -x,-y,-z
11 y,-x+y,-z
12 x-y,x,-z
13 1/3-x,2/3-y,2/3-z
14 1/3+y,2/3-x+y,2/3-z
15 1/3+x-y,2/3+x,2/3-z
16 2/3-x,1/3-y,1/3-z
17 2/3+y,1/3-x+y,1/3-z
18 2/3+x-y,1/3+x,1/3-z
_cell_length_a                   33.856(2)
_cell_length_b                   33.856(2)
_cell_length_c                   8.4224(12)
_cell_angle_alpha                90
_cell_angle_beta                 90
_cell_angle_gamma                120
_cell_volume                     8360.61
loop_
_atom_site_label
_atom_site_type_symbol
_atom_site_fract_x
_atom_site_fract_y
_atom_site_fract_z
Ag1 Ag 0.14736(2) 0.32092(2) 0.50424(7)
O1 O 0.33504(17) 0.32901(17) 0.7864(6)
N1 N 0.2062(2) 0.3407(2) 0.6593(7)
N2 N 0.2775(2) 0.1961(2) 0.6149(8)
C1 C 0.2194(2) 0.3766(2) 0.7617(9)
H1 H 0.2029 0.3924 0.7616
C2 C 0.2555(3) 0.3906(3) 0.8645(9)
H2 H 0.2638 0.4158 0.9333
C3 C 0.2792(2) 0.3677(3) 0.8659(9)
H3 H 0.3046 0.3774 0.9348
C4 C 0.2664(2) 0.3305(2) 0.7670(8)
C5 C 0.2294(2) 0.3181(2) 0.6657(8)
H4 H 0.2201 0.2925 0.5981
C6 C 0.2934(3) 0.3069(3) 0.7629(8)
C7 C 0.2703(2) 0.2573(2) 0.7289(8)
C8 C 0.2274(3) 0.2268(3) 0.7852(10)
H5 H 0.2101 0.2369 0.8436
C9 C 0.2103(3) 0.1810(3) 0.7538(11)
H6 H 0.1809 0.1591 0.7913
C10 C 0.2358(3) 0.1672(3) 0.6687(9)
H7 H 0.2232 0.1356 0.6471
C11 C 0.2948(3) 0.2410(2) 0.6462(8)
H8 H 0.3247 0.2621 0.6104
Ag1J Ag 0.32092(2) 0.17356(3) 0.49576(7)
N2K N 0.0814(3) 0.2775(2) 0.3851(8)
C12 C 0.1539(3) 0.4126(3) 0.4589(11)
O2 O 0.1532(2) 0.3916(2) 0.3364(8)
O3 O 0.1486(2) 0.4013(3) 0.5949(9)
C13 C 0.1642(3) 0.4618(3) 0.4228(13)
F1 F 0.1551(2) 0.48167(18) 0.5408(7)
F2 F 0.2085(2) 0.4887(2) 0.3899(10)
F3 F 0.1402(3) 0.4629(3) 0.2971(8)
C14 C 0.1219(5) 0.0699(6) 0.2154(19)
H9 H 0.1141 0.0923 0.1689
Cl1 Cl 0.1696(5) 0.0755(3) 0.141(3)
Cl2 Cl 0.1322(5) 0.0776(4) 0.4102(13)
Cl3 Cl 0.0809(5) 0.0172(5) 0.1931(17)
loop_
_geom_bond_atom_site_label_1
_geom_bond_atom_site_label_2
_geom_bond_site_symmetry_1
_geom_bond_site_symmetry_2
Ag1 N1 1_555 1_555
O1 C6 1_555 1_555
N1 C1 1_555 1_555
N2 C10 1_555 1_555
C1 H1 1_555 1_555
C2 C1 1_555 1_555
H2 C2 1_555 1_555
C3 C2 1_555 1_555
H3 C3 1_555 1_555
C4 C3 1_555 1_555
C5 N1 1_555 1_555
H4 C5 1_555 1_555
C6 C4 1_555 1_555
C7 C6 1_555 1_555
C8 C7 1_555 1_555
H5 C8 1_555 1_555
C9 C8 1_555 1_555
H6 C9 1_555 1_555
C10 C9 1_555 1_555
H7 C10 1_555 1_555
C11 N2 1_555 1_555
H8 C11 1_555 1_555
C12 O2 1_555 1_555
O3 C12 1_555 1_555
C13 C12 1_555 1_555
F1 C13 1_555 1_555
F2 C13 1_555 1_555
F3 C13 1_555 1_555
C14 H9 1_555 1_555
Cl1 C14 1_555 1_555
Cl2 C14 1_555 1_555
Cl3 C14 1_555 1_555
Ag1J N2 1_555 1_555
N2K Ag1 1_555 1_555
C4 C5 1_555 1_555
C7 C11 1_555 1_555

#END
