
#######################################################################
#
#                 Cambridge Crystallographic Data Centre
#                                CCDC 
#
#######################################################################
#
# If this CIF has been generated from an entry in the Cambridge 
# Structural Database, then it will include bibliographic, chemical, 
# crystal, experimental, refinement or atomic coordinate data resulting 
# from the CCDC's data processing and validation procedures.
#
#######################################################################

data_FUSMOW
_symmetry_cell_setting           rhombohedral
_symmetry_space_group_name_H-M   'R -3'
_symmetry_Int_Tables_number      148
_space_group_name_Hall           '-R 3'
loop_
_symmetry_equiv_pos_site_id
_symmetry_equiv_pos_as_xyz
1 x,y,z
2 -y,x-y,z
3 -x+y,-x,z
4 2/3+x,1/3+y,1/3+z
5 2/3-y,1/3+x-y,1/3+z
6 2/3-x+y,1/3-x,1/3+z
7 1/3+x,2/3+y,2/3+z
8 1/3-y,2/3+x-y,2/3+z
9 1/3-x+y,2/3-x,2/3+z
10 -x,-y,-z
11 y,-x+y,-z
12 x-y,x,-z
13 1/3-x,2/3-y,2/3-z
14 1/3+y,2/3-x+y,2/3-z
15 1/3+x-y,2/3+x,2/3-z
16 2/3-x,1/3-y,1/3-z
17 2/3+y,1/3-x+y,1/3-z
18 2/3+x-y,1/3+x,1/3-z
_cell_length_a                   34.1447(14)
_cell_length_b                   34.1447(14)
_cell_length_c                   8.3594(7)
_cell_angle_alpha                90
_cell_angle_beta                 90
_cell_angle_gamma                120
_cell_volume                     8440.19
loop_
_atom_site_label
_atom_site_type_symbol
_atom_site_fract_x
_atom_site_fract_y
_atom_site_fract_z
Ag1 Ag 0.147114(9) 0.320138(9) 0.50711(3)
O1 O 0.33472(8) 0.32830(8) 0.7758(3)
N1 N 0.20603(9) 0.33960(9) 0.6612(3)
N2 N 0.27764(10) 0.19651(10) 0.6094(3)
C1 C 0.21966(12) 0.37535(12) 0.7596(4)
H1 H 0.2031 0.3910 0.7606
C2 C 0.25698(12) 0.39028(11) 0.8596(4)
H2 H 0.2658 0.4157 0.9275
C3 C 0.28109(12) 0.36768(11) 0.8589(4)
H3 H 0.3069 0.3775 0.9252
C4 C 0.26696(11) 0.33031(11) 0.7598(4)
C5 C 0.22933(11) 0.31740(11) 0.6630(4)
H4 H 0.2197 0.2918 0.5954
C6 C 0.29392(11) 0.30693(11) 0.7531(4)
C7 C 0.27079(11) 0.25735(11) 0.7212(4)
C8 C 0.22820(12) 0.22737(12) 0.7817(4)
H5 H 0.2114 0.2379 0.8402
C9 C 0.21096(13) 0.18141(12) 0.7536(5)
H6 H 0.1820 0.1598 0.7935
C10 C 0.23631(13) 0.16772(12) 0.6673(4)
H7 H 0.2240 0.1363 0.6477
C11 C 0.29427(12) 0.24057(11) 0.6384(4)
H8 H 0.3237 0.2614 0.6001
Ag1J Ag 0.320138(9) 0.173024(13) 0.49289(3)
N2K N 0.08113(14) 0.27764(10) 0.3906(3)
C12 C 0.15298(11) 0.41045(13) 0.4648(5)
O2 O 0.15351(10) 0.38954(10) 0.3442(4)
O3 O 0.14637(11) 0.39825(10) 0.6040(4)
C13 C 0.16362(15) 0.45894(15) 0.4298(5)
F1 F 0.15380(9) 0.47818(8) 0.5503(3)
F2 F 0.20734(11) 0.48575(10) 0.3975(5)
F3 F 0.14003(14) 0.46042(13) 0.3027(3)
C14 C 0.1097(9) 0.0644(9) 0.405(3)
C15 C 0.1176(9) 0.0682(7) 0.225(3)
C17 C 0.0752(11) 0.0435(8) 0.120(3)
H14 H 0.0840 0.0412 0.0106
H15 H 0.0590 0.0605 0.1198
H16 H 0.0554 0.0132 0.1632
O4 O 0.0616(9) 0.0388(12) 0.439(3)
C20 C 0.1423(11) 0.0700(9) 0.045(3)
H21 H 0.1733 0.0754 0.0534
H22 H 0.1428 0.0989 0.0498
H23 H 0.1293 0.0552 -0.0578
H9? H 0.1088 0.0932 0.4049
H10? H 0.1272 0.1007 0.2045
C16? C 0.1574(12) 0.0649(9) 0.158(4)
H11? H 0.1808 0.0741 0.2397
H12? H 0.1698 0.0848 0.0644
H13? H 0.1470 0.0336 0.1253
H17? H 0.0546 0.0124 0.4676
C18? C 0.1391(8) 0.0598(10) 0.340(3)
H18? H 0.1307 0.0816 0.3843
H19? H 0.1316 0.0358 0.4210
C19? C 0.1132(7) 0.0391(8) 0.184(3)
H20? H 0.1156 0.0112 0.1706
C21? C 0.0624(7) 0.0205(11) 0.207(4)
H24? H 0.0529 0.0051 0.3105
H25? H 0.0457 -0.0011 0.1210
H26? H 0.0560 0.0454 0.2035
O5? O 0.1876(7) 0.0830(7) 0.302(3)
H27? H 0.2026 0.0959 0.3849
H28? H 0.1471 0.0892 0.5874
O6? O 0.1520(11) 0.0860(15) 0.491(4)
loop_
_geom_bond_atom_site_label_1
_geom_bond_atom_site_label_2
_geom_bond_site_symmetry_1
_geom_bond_site_symmetry_2
Ag1 N1 1_555 1_555
O1 C6 1_555 1_555
N1 C1 1_555 1_555
N2 C10 1_555 1_555
C1 H1 1_555 1_555
C2 C1 1_555 1_555
H2 C2 1_555 1_555
C3 C2 1_555 1_555
H3 C3 1_555 1_555
C4 C3 1_555 1_555
C5 N1 1_555 1_555
H4 C5 1_555 1_555
C6 C4 1_555 1_555
C7 C6 1_555 1_555
C8 C7 1_555 1_555
H5 C8 1_555 1_555
C9 C8 1_555 1_555
H6 C9 1_555 1_555
C10 C9 1_555 1_555
H7 C10 1_555 1_555
C11 N2 1_555 1_555
H8 C11 1_555 1_555
C12 O2 1_555 1_555
O3 C12 1_555 1_555
C13 C12 1_555 1_555
F1 C13 1_555 1_555
F2 C13 1_555 1_555
F3 C13 1_555 1_555
C14 C15 1_555 1_555
C15 C17 1_555 1_555
C17 H14 1_555 1_555
H15 C17 1_555 1_555
H16 C17 1_555 1_555
O4 C14 1_555 1_555
C20 C15 1_555 1_555
H21 C20 1_555 1_555
H22 C20 1_555 1_555
H23 C20 1_555 1_555
Ag1J N2 1_555 1_555
N2K Ag1 1_555 1_555
C4 C5 1_555 1_555
C7 C11 1_555 1_555

#END
