
#######################################################################
#
#                 Cambridge Crystallographic Data Centre
#                                CCDC 
#
#######################################################################
#
# If this CIF has been generated from an entry in the Cambridge 
# Structural Database, then it will include bibliographic, chemical, 
# crystal, experimental, refinement or atomic coordinate data resulting 
# from the CCDC's data processing and validation procedures.
#
#######################################################################

data_FUSMIQ
_symmetry_cell_setting           rhombohedral
_symmetry_space_group_name_H-M   'R -3'
_symmetry_Int_Tables_number      148
_space_group_name_Hall           '-R 3'
loop_
_symmetry_equiv_pos_site_id
_symmetry_equiv_pos_as_xyz
1 x,y,z
2 -y,x-y,z
3 -x+y,-x,z
4 2/3+x,1/3+y,1/3+z
5 2/3-y,1/3+x-y,1/3+z
6 2/3-x+y,1/3-x,1/3+z
7 1/3+x,2/3+y,2/3+z
8 1/3-y,2/3+x-y,2/3+z
9 1/3-x+y,2/3-x,2/3+z
10 -x,-y,-z
11 y,-x+y,-z
12 x-y,x,-z
13 1/3-x,2/3-y,2/3-z
14 1/3+y,2/3-x+y,2/3-z
15 1/3+x-y,2/3+x,2/3-z
16 2/3-x,1/3-y,1/3-z
17 2/3+y,1/3-x+y,1/3-z
18 2/3+x-y,1/3+x,1/3-z
_cell_length_a                   34.0297(16)
_cell_length_b                   34.0297(16)
_cell_length_c                   8.3643(8)
_cell_angle_alpha                90
_cell_angle_beta                 90
_cell_angle_gamma                120
_cell_volume                     8388.35
loop_
_atom_site_label
_atom_site_type_symbol
_atom_site_fract_x
_atom_site_fract_y
_atom_site_fract_z
Ag1 Ag 0.147856(14) 0.320770(15) 0.50677(5)
O1 O 0.33501(12) 0.32789(12) 0.7796(4)
N1 N 0.20660(14) 0.33997(15) 0.6616(5)
N2 N 0.27824(15) 0.19639(15) 0.6113(5)
C1 C 0.22036(18) 0.37545(18) 0.7608(6)
H1 H 0.2039 0.3913 0.7613
C2 C 0.25715(19) 0.39023(18) 0.8623(7)
H2 H 0.2654 0.4153 0.9315
C3 C 0.28159(18) 0.36796(18) 0.8612(6)
H3 H 0.3077 0.3780 0.9267
C4 C 0.26699(16) 0.33006(17) 0.7611(6)
C5 C 0.22959(17) 0.31716(17) 0.6650(6)
H4 H 0.2196 0.2912 0.5986
C6 C 0.29437(17) 0.30682(17) 0.7558(6)
C7 C 0.27121(18) 0.25724(18) 0.7239(6)
C8 C 0.22811(19) 0.22701(19) 0.7808(7)
H5 H 0.2109 0.2374 0.8382
C9 C 0.2108(2) 0.18096(19) 0.7512(7)
H6 H 0.1815 0.1592 0.7887
C10 C 0.23688(19) 0.16719(19) 0.6666(7)
H7 H 0.2248 0.1357 0.6471
C11 C 0.29508(18) 0.24043(17) 0.6406(6)
H8 H 0.3247 0.2613 0.6029
Ag1J Ag 0.320770(15) 0.172914(21) 0.49323(5)
N2K N 0.08185(21) 0.27824(15) 0.3887(5)
C12 C 0.15382(18) 0.4119(2) 0.4653(7)
O2 O 0.15369(15) 0.39106(16) 0.3440(6)
O3 O 0.14724(17) 0.39880(17) 0.6045(6)
C13 C 0.1658(2) 0.4613(2) 0.4337(9)
F1 F 0.15529(15) 0.47982(14) 0.5555(5)
F2 F 0.1434(2) 0.4642(2) 0.3070(6)
F3 F 0.20947(17) 0.48733(15) 0.4071(8)
O4 O 0.1819(10) 0.0817(8) 0.313(4)
H9 H 0.1837 0.0641 0.3792
C14 C 0.1227(14) 0.0826(13) 0.462(5)
H10 H 0.1345 0.1154 0.4688
H11 H 0.1359 0.0732 0.5474
H12 H 0.0896 0.0665 0.4730
C15 C 0.1352(11) 0.0713(8) 0.301(4)
H13 H 0.1332 0.0913 0.2173
C16 C 0.1072(11) 0.0221(9) 0.247(5)
H14 H 0.1221 0.0176 0.1530
H15 H 0.1074 0.0024 0.3340
C17 C 0.0582(11) 0.0069(13) 0.205(5)
H16 H 0.0380 -0.0153 0.2837
H17 H 0.0514 -0.0071 0.0984
H18 H 0.0538 0.0332 0.2044
C18? C 0.1029(13) 0.0541(16) 0.031(4)
C19? C 0.1238(11) 0.0450(9) 0.176(4)
C20? C 0.1059(11) 0.0468(14) 0.341(4)
C21? C 0.0551(12) 0.0202(15) 0.370(5)
H19? H 0.1158 0.0491 -0.0662
H20? H 0.1093 0.0856 0.0339
H21? H 0.0700 0.0335 0.0322
H22? H 0.1221 0.0150 0.1630
H23? H 0.1165 0.0791 0.3651
H24? H 0.1204 0.0363 0.4192
H25? H 0.0480 0.0311 0.4688
H26? H 0.0452 -0.0121 0.3811
H27? H 0.0392 0.0246 0.2802
H28? H 0.1840 0.0784 0.0947
O5? O 0.1711(10) 0.0805(10) 0.177(4)
loop_
_geom_bond_atom_site_label_1
_geom_bond_atom_site_label_2
_geom_bond_site_symmetry_1
_geom_bond_site_symmetry_2
Ag1 N1 1_555 1_555
O1 C6 1_555 1_555
N1 C1 1_555 1_555
N2 C10 1_555 1_555
C1 H1 1_555 1_555
C2 C1 1_555 1_555
H2 C2 1_555 1_555
C3 C2 1_555 1_555
H3 C3 1_555 1_555
C4 C3 1_555 1_555
C5 N1 1_555 1_555
H4 C5 1_555 1_555
C6 C4 1_555 1_555
C7 C6 1_555 1_555
C8 C7 1_555 1_555
H5 C8 1_555 1_555
C9 C8 1_555 1_555
H6 C9 1_555 1_555
C10 C9 1_555 1_555
H7 C10 1_555 1_555
C11 N2 1_555 1_555
H8 C11 1_555 1_555
C12 O2 1_555 1_555
O3 C12 1_555 1_555
C13 C12 1_555 1_555
F1 C13 1_555 1_555
F2 C13 1_555 1_555
F3 C13 1_555 1_555
O4 H9 1_555 1_555
C14 H10 1_555 1_555
H11 C14 1_555 1_555
H12 C14 1_555 1_555
C15 O4 1_555 1_555
H13 C15 1_555 1_555
C16 C15 1_555 1_555
H14 C16 1_555 1_555
H15 C16 1_555 1_555
C17 C16 1_555 1_555
H16 C17 1_555 1_555
H17 C17 1_555 1_555
H18 C17 1_555 1_555
Ag1J N2 1_555 1_555
N2K Ag1 1_555 1_555
C4 C5 1_555 1_555
C7 C11 1_555 1_555
C14 C15 1_555 1_555

#END
