
#######################################################################
#
#                 Cambridge Crystallographic Data Centre
#                                CCDC 
#
#######################################################################
#
# If this CIF has been generated from an entry in the Cambridge 
# Structural Database, then it will include bibliographic, chemical, 
# crystal, experimental, refinement or atomic coordinate data resulting 
# from the CCDC's data processing and validation procedures.
#
#######################################################################

data_FUSNEN
_symmetry_cell_setting           rhombohedral
_symmetry_space_group_name_H-M   'R -3'
_symmetry_Int_Tables_number      148
_space_group_name_Hall           '-R 3'
loop_
_symmetry_equiv_pos_site_id
_symmetry_equiv_pos_as_xyz
1 x,y,z
2 -y,x-y,z
3 -x+y,-x,z
4 2/3+x,1/3+y,1/3+z
5 2/3-y,1/3+x-y,1/3+z
6 2/3-x+y,1/3-x,1/3+z
7 1/3+x,2/3+y,2/3+z
8 1/3-y,2/3+x-y,2/3+z
9 1/3-x+y,2/3-x,2/3+z
10 -x,-y,-z
11 y,-x+y,-z
12 x-y,x,-z
13 1/3-x,2/3-y,2/3-z
14 1/3+y,2/3-x+y,2/3-z
15 1/3+x-y,2/3+x,2/3-z
16 2/3-x,1/3-y,1/3-z
17 2/3+y,1/3-x+y,1/3-z
18 2/3+x-y,1/3+x,1/3-z
_cell_length_a                   34.533(6)
_cell_length_b                   34.533(6)
_cell_length_c                   8.473(3)
_cell_angle_alpha                90
_cell_angle_beta                 90
_cell_angle_gamma                120
_cell_volume                     8750.57
loop_
_atom_site_label
_atom_site_type_symbol
_atom_site_fract_x
_atom_site_fract_y
_atom_site_fract_z
Ag1 Ag 0.14518(2) 0.31774(3) 0.50581(9)
O1 O 0.33328(18) 0.3288(2) 0.7516(7)
N1 N 0.2047(2) 0.3378(2) 0.6547(7)
N2 N 0.2765(2) 0.1975(2) 0.6036(8)
C1 C 0.2181(3) 0.3728(3) 0.7508(10)
H1 H 0.2015 0.3874 0.7542
C2 C 0.2555(3) 0.3884(3) 0.8456(11)
H2 H 0.2638 0.4128 0.9118
C3 C 0.2800(3) 0.3675(3) 0.8408(9)
H3 H 0.3057 0.3779 0.9016
C4 C 0.2660(2) 0.3301(2) 0.7438(7)
C5 C 0.2280(2) 0.3171(3) 0.6528(8)
H4 H 0.2184 0.2924 0.5871
C6 C 0.2928(3) 0.3074(3) 0.7344(8)
C7 C 0.2705(3) 0.2585(3) 0.7086(8)
C8 C 0.2284(3) 0.2288(3) 0.7744(11)
H5 H 0.2125 0.2392 0.8317
C9 C 0.2118(4) 0.1840(3) 0.7508(15)
H6 H 0.1840 0.1633 0.7916
C10 C 0.2365(3) 0.1694(3) 0.6662(12)
H7 H 0.2247 0.1389 0.6521
C11 C 0.2933(3) 0.2412(3) 0.6286(9)
H8 H 0.3217 0.2609 0.5902
Ag1J Ag 0.31774(3) 0.17256(4) 0.49419(9)
N2K N 0.0790(3) 0.2765(2) 0.3964(8)
C12 C 0.1536(3) 0.4097(4) 0.4639(13)
O2 O 0.1444(4) 0.3962(4) 0.5952(11)
O3 O 0.1554(3) 0.3884(3) 0.3489(12)
C13 C 0.1630(5) 0.4565(6) 0.4334(18)
F1 F 0.2029(5) 0.4816(4) 0.390(2)
F2 F 0.1363(6) 0.4555(6) 0.3100(12)
F3 F 0.1529(4) 0.4753(3) 0.5423(12)
O4 O 0.1719(18) 0.0810(17) 0.180(6)
O5? O 0.114(3) 0.044(3) 0.293(10)
O6? O 0.136(3) 0.062(3) 0.118(9)
O7? O 0.151(3) 0.081(3) 0.331(11)
loop_
_geom_bond_atom_site_label_1
_geom_bond_atom_site_label_2
_geom_bond_site_symmetry_1
_geom_bond_site_symmetry_2
Ag1 N1 1_555 1_555
O1 C6 1_555 1_555
N1 C1 1_555 1_555
N2 C10 1_555 1_555
C1 H1 1_555 1_555
C2 C1 1_555 1_555
H2 C2 1_555 1_555
C3 C2 1_555 1_555
H3 C3 1_555 1_555
C4 C3 1_555 1_555
C5 N1 1_555 1_555
H4 C5 1_555 1_555
C6 C4 1_555 1_555
C7 C6 1_555 1_555
C8 C7 1_555 1_555
H5 C8 1_555 1_555
C9 C8 1_555 1_555
H6 C9 1_555 1_555
C10 C9 1_555 1_555
H7 C10 1_555 1_555
C11 N2 1_555 1_555
H8 C11 1_555 1_555
C12 O2 1_555 1_555
O3 C12 1_555 1_555
C13 C12 1_555 1_555
F1 C13 1_555 1_555
F2 C13 1_555 1_555
F3 C13 1_555 1_555
Ag1J N2 1_555 1_555
N2K Ag1 1_555 1_555
C4 C5 1_555 1_555
C7 C11 1_555 1_555

#END
