
#######################################################################
#
#                 Cambridge Crystallographic Data Centre
#                                CCDC 
#
#######################################################################
#
# If this CIF has been generated from an entry in the Cambridge 
# Structural Database, then it will include bibliographic, chemical, 
# crystal, experimental, refinement or atomic coordinate data resulting 
# from the CCDC's data processing and validation procedures.
#
#######################################################################

data_FUSRER
_symmetry_cell_setting           monoclinic
_symmetry_space_group_name_H-M   'P 21/c'
_symmetry_Int_Tables_number      14
_space_group_name_Hall           '-P 2ybc'
loop_
_symmetry_equiv_pos_site_id
_symmetry_equiv_pos_as_xyz
1 x,y,z
2 -x,1/2+y,1/2-z
3 -x,-y,-z
4 x,1/2-y,1/2+z
_cell_length_a                   8.10830(10)
_cell_length_b                   11.7568(2)
_cell_length_c                   9.29830(10)
_cell_angle_alpha                90
_cell_angle_beta                 108.5190(10)
_cell_angle_gamma                90
_cell_volume                     840.487
loop_
_atom_site_label
_atom_site_type_symbol
_atom_site_fract_x
_atom_site_fract_y
_atom_site_fract_z
Eu1 Eu 0.87814(3) 0.59014(2) 0.16032(3)
S1 S 1.21888(17) 0.37039(11) 0.21210(14)
O1 O 1.0763(6) 0.4507(4) 0.1395(5)
O2 O 1.2650(6) 0.3195(4) 0.0855(5)
O3 O 1.3658(7) 0.4300(4) 0.3148(6)
O4 O 1.1561(6) 0.2828(4) 0.2921(5)
O5 O 0.5688(5) 0.6114(4) 0.1297(5)
O6 O 0.3007(5) 0.5632(3) -0.0164(4)
O7 O 0.8263(6) 0.4577(5) 0.3455(5)
O8 O 0.9196(6) 0.3881(4) 0.5811(5)
O9 O 1.1326(6) 0.6913(3) 0.1364(5)
H1 H 1.1010 0.7555 0.0945
H2 H 1.1786 0.6522 0.0822
C1 C 0.4639(7) 0.5504(5) 0.0337(6)
C2 C 0.9259(8) 0.4562(5) 0.4786(6)
Eu1B Eu 1.12186(3) 0.40986(2) -0.16032(3)
Eu1A Eu 1.12186(3) 0.09014(2) 0.33968(3)
Eu1B_2 Eu 0.12186(3) 0.40986(2) -0.16032(3)
Eu1B_3 Eu 1.12186(3) 0.40986(2) 0.83968(3)
Eu1C Eu 0.87814(3) 0.90986(2) -0.33968(3)
S1B S 0.78112(17) 0.62961(11) -0.21210(14)
O1B O 0.9237(6) 0.5493(4) -0.1395(5)
O2B O 0.7350(6) 0.6805(4) -0.0855(5)
O3B O 0.6342(7) 0.5700(4) -0.3148(6)
O4B O 0.8439(6) 0.7172(4) -0.2921(5)
O4A O 0.8439(6) 0.7828(4) 0.2079(5)
O4C O 1.1561(6) 0.2172(4) -0.2079(5)
O5B O 0.4312(5) 0.3886(4) -0.1297(5)
O5B_2 O 1.4312(5) 0.3886(4) -0.1297(5)
O6B O 0.6993(5) 0.4368(3) 0.0164(4)
O6_2 O 1.3007(5) 0.5632(3) -0.0164(4)
O7B O 1.1737(6) 0.5423(5) 0.6545(5)
O7B_2 O 1.1737(6) 0.5423(5) -0.3455(5)
O8B O 1.0804(6) 0.6119(4) 0.4189(5)
O8_2 O 0.9196(6) 0.3881(4) -0.4189(5)
O9B O 0.8674(6) 0.3087(3) -0.1364(5)
H1B H 0.8990 0.2445 -0.0945
H2B H 0.8214 0.3478 -0.0822
C1B C 0.5361(7) 0.4496(5) -0.0337(6)
C2B C 1.0741(8) 0.5438(5) 0.5214(6)
N1 N 0.4510(8) 0.6631(5) -0.5962(6)
loop_
_geom_bond_atom_site_label_1
_geom_bond_atom_site_label_2
_geom_bond_site_symmetry_1
_geom_bond_site_symmetry_2
Eu1 O1 1_555 1_555
S1 O1 1_555 1_555
O2 S1 1_555 1_555
O3 S1 1_555 1_555
O4 S1 1_555 1_555
O5 Eu1 1_555 1_555
O6 C1 1_555 1_555
O7 Eu1 1_555 1_555
O8 C2 1_555 1_555
O9 Eu1 1_555 1_555
H1 O9 1_555 1_555
H2 O9 1_555 1_555
C1 O5 1_555 1_555
C2 O7 1_555 1_555
Eu1B O2 1_555 1_555
Eu1A O4 1_555 1_555
Eu1B_2 O6 1_555 1_555
Eu1B_3 O8 1_555 1_555
Eu1C O4B 1_555 1_555
S1B O1B 1_555 1_555
O1B Eu1B 1_555 1_555
O2B Eu1 1_555 1_555
O3B S1B 1_555 1_555
O4B S1B 1_555 1_555
O4A Eu1 1_555 1_555
O4C Eu1B 1_555 1_555
O5B Eu1B_2 1_555 1_555
O5B_2 Eu1B 1_555 1_555
O6B Eu1 1_555 1_555
O6_2 Eu1B 1_555 1_555
O7B Eu1B_3 1_555 1_555
O7B_2 Eu1B 1_555 1_555
O8B Eu1 1_555 1_555
O8_2 Eu1B 1_555 1_555
O9B Eu1B 1_555 1_555
H1B O9B 1_555 1_555
H2B O9B 1_555 1_555
C1B C1 1_555 1_555
C2B C2 1_555 1_555
S1B O2B 1_555 1_555
O5B C1B 1_555 1_555
O6B C1B 1_555 1_555
O7B C2B 1_555 1_555
O8B C2B 1_555 1_555

#END
