
#######################################################################
#
#                 Cambridge Crystallographic Data Centre
#                                CCDC 
#
#######################################################################
#
# If this CIF has been generated from an entry in the Cambridge 
# Structural Database, then it will include bibliographic, chemical, 
# crystal, experimental, refinement or atomic coordinate data resulting 
# from the CCDC's data processing and validation procedures.
#
#######################################################################

data_FUSRIV
_symmetry_cell_setting           monoclinic
_symmetry_space_group_name_H-M   'P 21/c'
_symmetry_Int_Tables_number      14
_space_group_name_Hall           '-P 2ybc'
loop_
_symmetry_equiv_pos_site_id
_symmetry_equiv_pos_as_xyz
1 x,y,z
2 -x,1/2+y,1/2-z
3 -x,-y,-z
4 x,1/2-y,1/2+z
_cell_length_a                   8.0845(7)
_cell_length_b                   11.75440(10)
_cell_length_c                   9.33230(10)
_cell_angle_alpha                90
_cell_angle_beta                 108.8460(10)
_cell_angle_gamma                90
_cell_volume                     839.291
loop_
_atom_site_label
_atom_site_type_symbol
_atom_site_fract_x
_atom_site_fract_y
_atom_site_fract_z
Gd1 Gd 0.87722(4) 0.09095(3) 0.16291(4)
S1 S 1.2182(2) -0.12840(13) 0.21251(18)
O1 O 1.0746(7) -0.0477(5) 0.1442(7)
O2 O 1.2616(8) -0.1777(5) 0.0840(6)
O3 O 1.3678(8) -0.0698(6) 0.3142(8)
O4 O 1.1568(8) -0.2169(5) 0.2914(7)
O5 O 0.5674(7) 0.1119(4) 0.1296(6)
O6 O 0.2984(6) 0.0618(4) -0.0178(6)
O7 O 0.8227(8) -0.0399(6) 0.3455(6)
O8 O 0.9211(8) -0.1132(5) 0.5791(6)
O9 O 1.1305(7) 0.1905(4) 0.1360(6)
H1 H 1.0990 0.2303 0.0556
H2 H 1.2065 0.1421 0.1308
C1 C 0.4625(9) 0.0505(6) 0.0335(8)
C2 C 0.9248(9) -0.0436(6) 0.4776(8)
Gd1B Gd 1.12278(4) -0.09095(3) -0.16291(4)
Gd1A Gd 1.12278(4) -0.40905(3) 0.33709(4)
Gd1B_2 Gd 0.12278(4) -0.09095(3) -0.16291(4)
Gd1B_3 Gd 1.12278(4) -0.09095(3) 0.83709(4)
Gd1C Gd 0.87722(4) 0.40905(3) -0.33709(4)
S1B S 0.7818(2) 0.12840(13) -0.21251(18)
O1B O 0.9254(7) 0.0477(5) -0.1442(7)
O2B O 0.7384(8) 0.1777(5) -0.0840(6)
O3B O 0.6322(8) 0.0698(6) -0.3142(8)
O4B O 0.8432(8) 0.2169(5) -0.2914(7)
O4A O 0.8432(8) 0.2831(5) 0.2086(7)
O4C O 1.1568(8) -0.2831(5) -0.2086(7)
O5B O 0.4326(7) -0.1119(4) -0.1296(6)
O5B_2 O 1.4326(7) -0.1119(4) -0.1296(6)
O6B O 0.7016(6) -0.0618(4) 0.0178(6)
O6_2 O 1.2984(6) 0.0618(4) -0.0178(6)
O7B O 1.1773(8) 0.0399(6) 0.6545(6)
O7B_2 O 1.1773(8) 0.0399(6) -0.3455(6)
O8B O 1.0789(8) 0.1132(5) 0.4209(6)
O8_2 O 0.9211(8) -0.1132(5) -0.4209(6)
O9B O 0.8695(7) -0.1905(4) -0.1360(6)
H1B H 0.9010 -0.2303 -0.0556
H2B H 0.7935 -0.1421 -0.1308
C1B C 0.5375(9) -0.0505(6) -0.0335(8)
C2B C 1.0752(9) 0.0436(6) 0.5224(8)
N1 N 0.4524(10) 0.1641(7) 0.4030(8)
loop_
_geom_bond_atom_site_label_1
_geom_bond_atom_site_label_2
_geom_bond_site_symmetry_1
_geom_bond_site_symmetry_2
Gd1 O1 1_555 1_555
S1 O1 1_555 1_555
O2 S1 1_555 1_555
O3 S1 1_555 1_555
O4 S1 1_555 1_555
O5 Gd1 1_555 1_555
O6 C1 1_555 1_555
O7 Gd1 1_555 1_555
O8 C2 1_555 1_555
O9 Gd1 1_555 1_555
H1 O9 1_555 1_555
H2 O9 1_555 1_555
C1 O5 1_555 1_555
C2 O7 1_555 1_555
Gd1B O2 1_555 1_555
Gd1A O4 1_555 1_555
Gd1B_2 O6 1_555 1_555
Gd1B_3 O8 1_555 1_555
Gd1C O4B 1_555 1_555
S1B O1B 1_555 1_555
O1B Gd1B 1_555 1_555
O2B Gd1 1_555 1_555
O3B S1B 1_555 1_555
O4B S1B 1_555 1_555
O4A Gd1 1_555 1_555
O4C Gd1B 1_555 1_555
O5B Gd1B_2 1_555 1_555
O5B_2 Gd1B 1_555 1_555
O6B Gd1 1_555 1_555
O6_2 Gd1B 1_555 1_555
O7B Gd1B_3 1_555 1_555
O7B_2 Gd1B 1_555 1_555
O8B Gd1 1_555 1_555
O8_2 Gd1B 1_555 1_555
O9B Gd1B 1_555 1_555
H1B O9B 1_555 1_555
H2B O9B 1_555 1_555
C1B C1 1_555 1_555
C2B C2 1_555 1_555
S1B O2B 1_555 1_555
O5B C1B 1_555 1_555
O6B C1B 1_555 1_555
O7B C2B 1_555 1_555
O8B C2B 1_555 1_555

#END
