
#######################################################################
#
#                 Cambridge Crystallographic Data Centre
#                                CCDC 
#
#######################################################################
#
# If this CIF has been generated from an entry in the Cambridge 
# Structural Database, then it will include bibliographic, chemical, 
# crystal, experimental, refinement or atomic coordinate data resulting 
# from the CCDC's data processing and validation procedures.
#
#######################################################################

data_FUSSES
_symmetry_cell_setting           monoclinic
_symmetry_space_group_name_H-M   'P 21/n'
_symmetry_Int_Tables_number      14
_space_group_name_Hall           '-P 2yn'
loop_
_symmetry_equiv_pos_site_id
_symmetry_equiv_pos_as_xyz
1 x,y,z
2 1/2-x,1/2+y,1/2-z
3 -x,-y,-z
4 1/2+x,1/2-y,1/2+z
_cell_length_a                   6.4884(5)
_cell_length_b                   8.4666(6)
_cell_length_c                   13.6830(10)
_cell_angle_alpha                90
_cell_angle_beta                 92.6630(10)
_cell_angle_gamma                90
_cell_volume                     750.86
loop_
_atom_site_label
_atom_site_type_symbol
_atom_site_fract_x
_atom_site_fract_y
_atom_site_fract_z
Yb1 Yb 0.24567(3) 0.24019(3) 0.908906(18)
S1 S 0.2414(2) -0.16651(16) 0.97457(10)
O1 O 0.2480(6) 0.0069(5) 0.9901(3)
O2 O 0.4412(7) -0.2372(5) 1.0047(4)
O3 O 0.1947(8) -0.2001(6) 0.8719(4)
O4 O 0.0819(7) -0.2350(5) 1.0350(4)
O5 O 0.4490(7) 0.4406(5) 0.8392(3)
O6 O 0.0427(6) 0.4399(5) 0.8270(3)
O7 O 0.0441(6) 0.6049(5) 0.6997(3)
O8 O 0.4559(6) 0.6175(5) 0.7182(3)
O9 O 0.2380(7) 0.4233(6) 1.0377(3)
H1 H 0.2055 0.3766 1.0888
H2 H 0.3551 0.4663 1.0454
C1 C 0.3661(9) 0.5293(7) 0.7754(4)
C2 C 0.1303(9) 0.5251(7) 0.7666(4)
Yb1B Yb 0.75433(3) -0.24019(3) 1.091094(18)
Yb1B_2 Yb -0.24567(3) -0.24019(3) 1.091094(18)
Yb1A Yb 0.25433(3) 0.74019(3) 0.591094(18)
O2B O 0.5588(7) 0.2372(5) 0.9953(4)
O4B O -0.0819(7) 0.2350(5) 0.9650(4)
O7A O 0.4559(6) 0.1049(5) 0.8003(3)
O8A O 0.0441(6) 0.1175(5) 0.7818(3)
N1 N 0.7349(8) 0.3359(7) 0.6890(4)
loop_
_geom_bond_atom_site_label_1
_geom_bond_atom_site_label_2
_geom_bond_site_symmetry_1
_geom_bond_site_symmetry_2
Yb1 O1 1_555 1_555
S1 O1 1_555 1_555
O2 S1 1_555 1_555
O3 S1 1_555 1_555
O4 S1 1_555 1_555
O5 Yb1 1_555 1_555
O6 Yb1 1_555 1_555
O7 C2 1_555 1_555
O8 C1 1_555 1_555
O9 Yb1 1_555 1_555
H1 O9 1_555 1_555
H2 O9 1_555 1_555
C1 O5 1_555 1_555
C2 O6 1_555 1_555
Yb1B O2 1_555 1_555
Yb1B_2 O4 1_555 1_555
Yb1A O7 1_555 1_555
O2B Yb1 1_555 1_555
O4B Yb1 1_555 1_555
O7A Yb1 1_555 1_555
O8A Yb1 1_555 1_555
O8 Yb1A 1_555 1_555
C1 C2 1_555 1_555

#END
