
#######################################################################
#
#                 Cambridge Crystallographic Data Centre
#                                CCDC 
#
#######################################################################
#
# If this CIF has been generated from an entry in the Cambridge 
# Structural Database, then it will include bibliographic, chemical, 
# crystal, experimental, refinement or atomic coordinate data resulting 
# from the CCDC's data processing and validation procedures.
#
#######################################################################

data_FUSVIZ
_symmetry_cell_setting           triclinic
_symmetry_space_group_name_H-M   'P -1'
_symmetry_Int_Tables_number      2
_space_group_name_Hall           '-P 1'
loop_
_symmetry_equiv_pos_site_id
_symmetry_equiv_pos_as_xyz
1 x,y,z
2 -x,-y,-z
_cell_length_a                   9.577(6)
_cell_length_b                   11.739(8)
_cell_length_c                   7.765(5)
_cell_angle_alpha                72.00(3)
_cell_angle_beta                 75.60(3)
_cell_angle_gamma                70.83(3)
_cell_volume                     773.608
loop_
_atom_site_label
_atom_site_type_symbol
_atom_site_fract_x
_atom_site_fract_y
_atom_site_fract_z
Cu1 Cu 0.5000 0.5000 0.5000
Cu2 Cu 0.32877(6) 0.02289(5) 0.55089(7)
Cu3 Cu 0.48544(6) 0.25667(5) 0.36696(8)
O1 O 0.4371(3) 0.4353(3) 0.3437(4)
O2 O 0.4862(3) 0.0820(2) 0.3482(3)
N1 N 0.3924(3) 0.3094(3) 0.1560(4)
O3 O 0.3465(3) 0.6571(3) 0.4288(4)
O4 O 0.4158(3) 0.8221(2) 0.4230(4)
O5 O 0.1824(3) -0.0313(3) 0.7529(4)
O6 O 0.2821(4) -0.2362(3) 0.8103(5)
O7 O 0.1689(3) 0.1378(3) 0.4198(4)
C1 C 0.3443(5) 0.5094(4) 0.2107(6)
C2 C 0.3340(4) 0.4315(4) 0.0926(6)
C3 C 0.2700(5) 0.4744(4) -0.0644(6)
C4 C 0.2654(5) 0.3889(4) -0.1495(6)
C5 C 0.3257(5) 0.2621(4) -0.0799(6)
C6 C 0.3921(4) 0.2243(4) 0.0743(5)
C7 C 0.4709(5) 0.0927(4) 0.1650(5)
C8 C 0.3313(4) 0.7718(4) 0.3884(5)
C9 C 0.2021(6) 0.8572(5) 0.2947(8)
H1 H 0.1361 0.9094 0.3722
H2 H 0.1486 0.8087 0.2712
H3 H 0.2389 0.9081 0.1807
C10 C 0.1773(5) -0.1438(4) 0.8268(5)
C11 C 0.0288(5) -0.1607(4) 0.9369(6)
H4 H -0.0362 -0.1536 0.8555
H5 H -0.0161 -0.0978 1.0042
H6 H 0.0440 -0.2415 1.0210
O8 O 0.2189(4) 0.2511(3) 0.5633(5)
C12 C 0.1446(4) 0.2395(4) 0.4649(6)
C13 C 0.0204(6) 0.3472(5) 0.3871(8)
H7 H 0.0389 0.3629 0.2557
H8 H 0.0167 0.4200 0.4216
H9 H -0.0736 0.3271 0.4345
H10 H 0.250(5) 0.548(4) 0.271(6)
H11 H 0.385(5) 0.573(5) 0.132(7)
H12 H 0.233(6) 0.560(6) -0.105(7)
H13 H 0.235(5) 0.415(5) -0.272(7)
H14 H 0.321(6) 0.200(5) -0.138(7)
H15 H 0.415(5) 0.043(5) 0.178(6)
H16 H 0.572(6) 0.074(4) 0.088(6)
Cu2A Cu 0.67123(6) 0.97711(5) 0.44911(7)
Cu2A_2 Cu 0.67123(6) -0.02289(5) 0.44911(7)
Cu2_2 Cu 0.32877(6) 1.02289(5) 0.55089(7)
Cu3A Cu 0.51456(6) 0.74333(5) 0.63304(8)
Cu3A_2 Cu 0.51456(6) -0.25667(5) 0.63304(8)
O1A O 0.5629(3) 0.5647(3) 0.6563(4)
O2A O 0.5138(3) 0.9180(2) 0.6518(3)
O2A_2 O 0.5138(3) -0.0820(2) 0.6518(3)
O2_2 O 0.4862(3) 1.0820(2) 0.3482(3)
N1A N 0.6076(3) 0.6906(3) 0.8440(4)
O3A O 0.6535(3) 0.3429(3) 0.5712(4)
O4A O 0.5842(3) 0.1779(2) 0.5770(4)
O4_2 O 0.4158(3) -0.1779(2) 0.4230(4)
O4A_2 O 0.5842(3) 1.1779(2) 0.5770(4)
O5A O 0.8176(3) 0.0313(3) 0.2471(4)
O5A_2 O 0.8176(3) 1.0313(3) 0.2471(4)
O6A O 0.7179(4) 0.2362(3) 0.1897(5)
O6_2 O 0.2821(4) 0.7638(3) 0.8103(5)
O7A O 0.8311(3) 0.8622(3) 0.5802(4)
C1A C 0.6557(5) 0.4906(4) 0.7893(6)
C2A C 0.6660(4) 0.5685(4) 0.9074(6)
C3A C 0.7300(5) 0.5256(4) 1.0644(6)
C4A C 0.7346(5) 0.6111(4) 1.1495(6)
C5A C 0.6743(5) 0.7379(4) 1.0799(6)
C6A C 0.6079(4) 0.7757(4) 0.9257(5)
C7A C 0.5291(5) 0.9073(4) 0.8350(5)
C8A C 0.6687(4) 0.2282(4) 0.6116(5)
C9A C 0.7979(6) 0.1428(5) 0.7053(8)
H1A H 0.8639 0.0906 0.6278
H2A H 0.8514 0.1913 0.7288
H3A H 0.7611 0.0919 0.8193
C10A C 0.8227(5) 0.1438(4) 0.1732(5)
C11A C 0.9712(5) 0.1607(4) 0.0631(6)
H4A H 1.0362 0.1536 0.1445
H5A H 1.0161 0.0978 -0.0042
H6A H 0.9560 0.2415 -0.0210
O8A O 0.7811(4) 0.7489(3) 0.4367(5)
C12A C 0.8554(4) 0.7605(4) 0.5351(6)
C13A C 0.9796(6) 0.6528(5) 0.6129(8)
H7A H 0.9611 0.6371 0.7443
H8A H 0.9833 0.5800 0.5784
H9A H 1.0736 0.6729 0.5655
H10A H 0.750(5) 0.452(4) 0.729(6)
H11A H 0.615(5) 0.427(5) 0.868(7)
H12A H 0.767(6) 0.440(6) 1.105(7)
H13A H 0.765(5) 0.585(5) 1.272(7)
H14A H 0.679(6) 0.800(5) 1.138(7)
H15A H 0.585(5) 0.957(5) 0.822(6)
H16A H 0.428(6) 0.926(4) 0.912(6)
loop_
_geom_bond_atom_site_label_1
_geom_bond_atom_site_label_2
_geom_bond_site_symmetry_1
_geom_bond_site_symmetry_2
Cu1 O1 1_555 1_555
Cu2 O2 1_555 1_555
Cu3 O1 1_555 1_555
O1 C1 1_555 1_555
O2 Cu3 1_555 1_555
N1 Cu3 1_555 1_555
O3 Cu1 1_555 1_555
O4 C8 1_555 1_555
O5 Cu2 1_555 1_555
O6 C10 1_555 1_555
O7 Cu2 1_555 1_555
C1 C2 1_555 1_555
C2 N1 1_555 1_555
C3 C2 1_555 1_555
C4 C3 1_555 1_555
C5 C4 1_555 1_555
C6 N1 1_555 1_555
C7 O2 1_555 1_555
C8 O3 1_555 1_555
C9 C8 1_555 1_555
H1 C9 1_555 1_555
H2 C9 1_555 1_555
H3 C9 1_555 1_555
C10 O5 1_555 1_555
C11 C10 1_555 1_555
H4 C11 1_555 1_555
H5 C11 1_555 1_555
H6 C11 1_555 1_555
O8 Cu2 1_555 1_555
C12 O7 1_555 1_555
C13 C12 1_555 1_555
H7 C13 1_555 1_555
H8 C13 1_555 1_555
H9 C13 1_555 1_555
H10 C1 1_555 1_555
H11 C1 1_555 1_555
H12 C3 1_555 1_555
H13 C4 1_555 1_555
H14 C5 1_555 1_555
H15 C7 1_555 1_555
H16 C7 1_555 1_555
Cu2A O2A 1_555 1_555
Cu2A_2 O2 1_555 1_555
Cu2_2 O4 1_555 1_555
Cu3A O4 1_555 1_555
Cu3A_2 O6 1_555 1_555
O1A Cu1 1_555 1_555
O2A Cu2_2 1_555 1_555
O2A_2 Cu2 1_555 1_555
O2_2 Cu2A 1_555 1_555
N1A Cu3A 1_555 1_555
O3A Cu1 1_555 1_555
O4A Cu3 1_555 1_555
O4_2 Cu2 1_555 1_555
O4A_2 Cu2A 1_555 1_555
O5A Cu2A_2 1_555 1_555
O5A_2 Cu2A 1_555 1_555
O6A Cu3 1_555 1_555
O6_2 Cu3A 1_555 1_555
O7A Cu2A 1_555 1_555
C1A O1A 1_555 1_555
C2A N1A 1_555 1_555
C3A C2A 1_555 1_555
C4A C3A 1_555 1_555
C5A C4A 1_555 1_555
C6A N1A 1_555 1_555
C7A O2A 1_555 1_555
C8A O3A 1_555 1_555
C9A C8A 1_555 1_555
H1A C9A 1_555 1_555
H2A C9A 1_555 1_555
H3A C9A 1_555 1_555
C10A O5A 1_555 1_555
C11A C10A 1_555 1_555
H4A C11A 1_555 1_555
H5A C11A 1_555 1_555
H6A C11A 1_555 1_555
O8A Cu2A 1_555 1_555
C12A O7A 1_555 1_555
C13A C12A 1_555 1_555
H7A C13A 1_555 1_555
H8A C13A 1_555 1_555
H9A C13A 1_555 1_555
H10A C1A 1_555 1_555
H11A C1A 1_555 1_555
H12A C3A 1_555 1_555
H13A C4A 1_555 1_555
H14A C5A 1_555 1_555
H15A C7A 1_555 1_555
H16A C7A 1_555 1_555
Cu3 O8 1_555 1_555
C5 C6 1_555 1_555
C6 C7 1_555 1_555
O8 C12 1_555 1_555
Cu2A_2 O2A_2 1_555 1_555
Cu2A_2 O4A 1_555 1_555
Cu2_2 O2_2 1_555 1_555
Cu3A O1A 1_555 1_555
Cu3A O2A 1_555 1_555
Cu3A O8A 1_555 1_555
Cu3A_2 O2A_2 1_555 1_555
Cu3A_2 O4_2 1_555 1_555
O4A C8A 1_555 1_555
O6A C10A 1_555 1_555
C1A C2A 1_555 1_555
C5A C6A 1_555 1_555
C6A C7A 1_555 1_555
O8A C12A 1_555 1_555

#END
