
#######################################################################
#
#                 Cambridge Crystallographic Data Centre
#                                CCDC 
#
#######################################################################
#
# If this CIF has been generated from an entry in the Cambridge 
# Structural Database, then it will include bibliographic, chemical, 
# crystal, experimental, refinement or atomic coordinate data resulting 
# from the CCDC's data processing and validation procedures.
#
#######################################################################

data_FUTQES
_symmetry_cell_setting           monoclinic
_symmetry_space_group_name_H-M   'P 21/n'
_symmetry_Int_Tables_number      14
_space_group_name_Hall           '-P 2yn'
loop_
_symmetry_equiv_pos_site_id
_symmetry_equiv_pos_as_xyz
1 x,y,z
2 1/2-x,1/2+y,1/2-z
3 -x,-y,-z
4 1/2+x,1/2-y,1/2+z
_cell_length_a                   16.4108(10)
_cell_length_b                   12.3632(8)
_cell_length_c                   32.3951(19)
_cell_angle_alpha                90
_cell_angle_beta                 90.0100(10)
_cell_angle_gamma                90
_cell_volume                     6572.64
loop_
_atom_site_label
_atom_site_type_symbol
_atom_site_fract_x
_atom_site_fract_y
_atom_site_fract_z
Sr1 Sr 0.50066(4) 0.76434(4) 0.372010(15)
Sr2 Sr 0.48585(4) 0.43083(4) 0.332723(17)
Sr3 Sr 0.50763(4) 1.09749(4) 0.342826(16)
V1 V 0.61124(7) 0.74213(8) 0.46678(3)
V2 V 0.75384(6) 0.51447(7) 0.31702(3)
V3 V 0.23924(7) 1.01007(9) 0.31577(3)
O1 O 0.4642(3) 0.7514(3) 0.45657(13)
O2 O 0.5898(3) 0.8587(3) 0.50893(13)
O3 O 0.7077(3) 0.7378(4) 0.46656(15)
O4 O 0.6946(3) 0.5208(4) 0.25173(13)
O5 O 0.7912(3) 0.5090(4) 0.36206(15)
O6 O 0.5740(3) 1.0286(3) 0.52932(13)
O7 O 0.5928(3) 0.8563(3) 0.42370(12)
O8 O 0.3180(4) 0.9983(4) 0.25815(17)
O9 O 0.1874(3) 1.0158(4) 0.35706(16)
O10 O 0.6032(3) 1.0177(3) 0.39562(14)
O11 O 0.5854(3) 0.6282(3) 0.50827(13)
O12 O 0.5843(3) 0.4606(3) 0.53182(14)
O13 O 0.5832(3) 0.6343(3) 0.42178(12)
O14 O 0.5618(3) 0.4672(4) 0.39958(13)
O15 O 0.6561(3) 0.4171(3) 0.32326(12)
O16 O 0.5888(3) 0.2678(3) 0.33397(15)
O17 O 0.8120(3) 0.3914(3) 0.29066(15)
O18 O 0.8302(3) 0.2250(4) 0.26957(17)
O19 O 0.8299(3) 0.6136(3) 0.28835(15)
O20 O 0.8881(5) 0.7624(4) 0.2674(2)
O21 O 0.6808(3) 0.6419(3) 0.32569(13)
O22 O 0.6414(3) 0.8089(3) 0.33412(14)
O23 O 0.3325(3) 1.1090(3) 0.32967(14)
O24 O 0.3986(3) 1.2625(3) 0.33283(16)
O25 O 0.1902(3) 1.1289(4) 0.28400(16)
O26 O 0.1594(4) 1.2968(5) 0.2671(2)
O27 O 0.1736(4) 0.8966(5) 0.28474(16)
O28 O 0.1500(4) 0.7261(6) 0.2645(2)
O29 O 0.3125(3) 0.8903(4) 0.33251(15)
O30 O 0.3492(3) 0.7251(4) 0.3498(2)
C1 C 0.5982(4) 0.9600(5) 0.50358(18)
C2 C 0.6410(5) 1.0035(6) 0.4654(2)
H1 H 0.6270 1.0822 0.4645
C3 C 0.6102(4) 0.9581(5) 0.42500(17)
C4 C 0.7303(5) 0.9995(7) 0.4682(3)
H2 H 0.7538 1.0340 0.4433
H3 H 0.7480 0.9230 0.4685
C5 C 0.7646(8) 1.0576(13) 0.5074(3)
H4 H 0.7495 1.1351 0.5071
H5 H 0.7419 1.0242 0.5327
C6 C 0.8544(9) 1.0456(15) 0.5068(4)
H6 H 0.8771 1.0888 0.4838
H7 H 0.8686 0.9688 0.5019
C7 C 0.8911(10) 1.0819(14) 0.5462(4)
H8 H 0.9506 1.0773 0.5442
H9 H 0.8719 1.0354 0.5687
H10 H 0.8751 1.1569 0.5516
C8 C 0.5978(4) 0.5273(5) 0.50354(18)
C9 C 0.6313(5) 0.4853(7) 0.4630(2)
H11 H 0.6157 0.4071 0.4632
C10 C 0.7183(7) 0.4823(12) 0.4600(4)
H12 H 0.7406 0.5543 0.4671
H13 H 0.7341 0.4655 0.4312
C11 C 0.5875(4) 0.5296(5) 0.42496(18)
C12 C 0.7563(9) 0.3936(16) 0.4902(5)
H14 H 0.7409 0.4046 0.5195
H15 H 0.7444 0.3185 0.4815
C13 C 0.8396(12) 0.4267(13) 0.4812(7)
H16 H 0.8452 0.4248 0.4508
H17 H 0.8436 0.5037 0.4894
C14 C 0.9002(13) 0.3825(16) 0.4951(11)
H18 H 0.9491 0.4198 0.4851
H19 H 0.9014 0.3069 0.4860
H20 H 0.8988 0.3851 0.5253
C15 C 0.6557(4) 0.3149(5) 0.32674(17)
C16 C 0.7314(4) 0.2477(5) 0.3227(2)
H21 H 0.7149 0.1739 0.3132
C17 C 0.7945(4) 0.2919(5) 0.29206(19)
C18 C 0.7711(5) 0.2364(7) 0.3659(2)
H22 H 0.7835 0.3094 0.3767
H23 H 0.7316 0.2020 0.3849
C19 C 0.8479(7) 0.1706(12) 0.3651(4)
H24 H 0.8320 0.0943 0.3695
H25 H 0.8701 0.1754 0.3367
C20 C 0.9158(11) 0.1934(17) 0.3935(9)
H26 H 0.8985 0.1808 0.4224
H27 H 0.9331 0.2698 0.3908
C21 C 0.9858(11) 0.1188(17) 0.3825(12)
H28 H 1.0326 0.1350 0.4003
H29 H 1.0010 0.1298 0.3536
H30 H 0.9691 0.0435 0.3867
C22 C 0.8338(5) 0.7147(6) 0.2881(2)
C23 C 0.7772(4) 0.7871(5) 0.3120(2)
H31 H 0.7647 0.8487 0.2931
C24 C 0.6950(4) 0.7426(5) 0.3249(2)
C25 C 0.8220(5) 0.8385(8) 0.3492(3)
H32 H 0.8712 0.8763 0.3390
H33 H 0.7859 0.8934 0.3619
C26 C 0.8463(6) 0.7604(9) 0.3809(3)
H34 H 0.8780 0.7013 0.3680
H35 H 0.7970 0.7282 0.3935
C27 C 0.8979(8) 0.8140(10) 0.4146(4)
H36 H 0.9486 0.8424 0.4021
H37 H 0.8674 0.8759 0.4263
C28 C 0.9196(8) 0.7357(11) 0.4491(4)
H38 H 0.9515 0.7736 0.4702
H39 H 0.9517 0.6758 0.4379
H40 H 0.8695 0.7073 0.4616
C29 C 0.3338(4) 1.2122(5) 0.3281(2)
C30 C 0.2545(5) 1.2756(5) 0.3214(2)
H41 H 0.2691 1.3514 0.3137
C31 C 0.1993(5) 1.2307(7) 0.2883(3)
C32 C 0.2067(5) 1.2791(7) 0.3617(2)
H42 H 0.1908 1.2043 0.3691
H43 H 0.1560 1.3207 0.3570
C33 C 0.2530(6) 1.3299(9) 0.3988(3)
H44 H 0.3055 1.2917 0.4025
H45 H 0.2652 1.4066 0.3925
C34 C 0.2056(7) 1.3241(12) 0.4381(3)
H46 H 0.2411 1.3515 0.4605
H47 H 0.1592 1.3749 0.4357
C35 C 0.1757(19) 1.228(2) 0.4503(6)
H48 H 0.1434 1.2383 0.4755
H49 H 0.2208 1.1786 0.4559
H50 H 0.1411 1.1985 0.4285
C36 C 0.1761(5) 0.7949(7) 0.2896(2)
C37 C 0.2117(7) 0.7502(8) 0.3293(4)
H51 H 0.2199 0.6718 0.3229
C38 C 0.2968(5) 0.7898(6) 0.3369(3)
C39 C 0.1629(7) 0.7478(10) 0.3623(4)
H52 H 0.1424 0.8218 0.3676
H53 H 0.1951 0.7252 0.3866
C40 C 0.0857(6) 0.6669(13) 0.3572(4)
H54 H 0.0479 0.6865 0.3797
H55 H 0.0586 0.6895 0.3313
C41 C 0.0857(9) 0.5522(16) 0.3561(6)
H56 H 0.1237 0.5250 0.3775
H57 H 0.1063 0.5280 0.3289
C42 C 0.0024(10) 0.5026(10) 0.3633(6)
H58 H 0.0065 0.4236 0.3618
H59 H -0.0356 0.5285 0.3422
H60 H -0.0176 0.5235 0.3907
O31 O 0.4754(2) 0.9008(3) 0.31092(12)
O32 O 0.4072(4) 0.5496(6) 0.38507(16)
O33 O 0.4905(4) 1.1338(4) 0.26381(13)
O34 O 0.4285(3) 0.9547(3) 0.38989(12)
O35 O 0.6346(3) 1.0198(3) 0.30356(14)
O36 O 0.4877(4) 1.2148(5) 0.41337(16)
O37 O 0.5239(4) 0.4279(4) 0.25466(15)
O38 O 0.5234(3) 0.6251(3) 0.31489(13)
O39 O 0.3626(4) 0.5079(5) 0.29256(19)
Sr2_2 Sr 0.48585(4) 1.43083(4) 0.332723(17)
Sr3_2 Sr 0.50763(4) 0.09749(4) 0.342826(16)
O16_2 O 0.5888(3) 1.2678(3) 0.33397(15)
O24_2 O 0.3986(3) 0.2625(3) 0.33283(16)
O40 O 1.0093(5) 0.1786(8) 0.2628(2)
O41 O 0.9731(5) 0.4169(7) 0.2676(2)
loop_
_geom_bond_atom_site_label_1
_geom_bond_atom_site_label_2
_geom_bond_site_symmetry_1
_geom_bond_site_symmetry_2
Sr1 O1 1_555 1_555
Sr2 O14 1_555 1_555
Sr3 O10 1_555 1_555
V1 O1 1_555 1_555
V2 O4 1_555 1_555
V3 O8 1_555 1_555
O2 V1 1_555 1_555
O3 V1 1_555 1_555
O5 V2 1_555 1_555
O6 C1 1_555 1_555
O7 Sr1 1_555 1_555
O9 V3 1_555 1_555
O10 C3 1_555 1_555
O11 V1 1_555 1_555
O12 C8 1_555 1_555
O13 Sr1 1_555 1_555
O14 C11 1_555 1_555
O15 Sr2 1_555 1_555
O16 Sr2 1_555 1_555
O17 V2 1_555 1_555
O18 C17 1_555 1_555
O19 V2 1_555 1_555
O20 C22 1_555 1_555
O21 V2 1_555 1_555
O22 Sr1 1_555 1_555
O23 Sr3 1_555 1_555
O24 Sr3 1_555 1_555
O25 V3 1_555 1_555
O26 C31 1_555 1_555
O27 V3 1_555 1_555
O28 C36 1_555 1_555
O29 V3 1_555 1_555
O30 Sr1 1_555 1_555
C1 O2 1_555 1_555
C2 C1 1_555 1_555
H1 C2 1_555 1_555
C3 O7 1_555 1_555
C4 C2 1_555 1_555
H2 C4 1_555 1_555
H3 C4 1_555 1_555
C5 C4 1_555 1_555
H4 C5 1_555 1_555
H5 C5 1_555 1_555
C6 C5 1_555 1_555
H6 C6 1_555 1_555
H7 C6 1_555 1_555
C7 C6 1_555 1_555
H8 C7 1_555 1_555
H9 C7 1_555 1_555
H10 C7 1_555 1_555
C8 O11 1_555 1_555
C9 C8 1_555 1_555
H11 C9 1_555 1_555
C10 C9 1_555 1_555
H12 C10 1_555 1_555
H13 C10 1_555 1_555
C11 O13 1_555 1_555
C12 C10 1_555 1_555
H14 C12 1_555 1_555
H15 C12 1_555 1_555
C13 C12 1_555 1_555
H16 C13 1_555 1_555
H17 C13 1_555 1_555
C14 C13 1_555 1_555
H18 C14 1_555 1_555
H19 C14 1_555 1_555
H20 C14 1_555 1_555
C15 O15 1_555 1_555
C16 C15 1_555 1_555
H21 C16 1_555 1_555
C17 O17 1_555 1_555
C18 C16 1_555 1_555
H22 C18 1_555 1_555
H23 C18 1_555 1_555
C19 C18 1_555 1_555
H24 C19 1_555 1_555
H25 C19 1_555 1_555
C20 C19 1_555 1_555
H26 C20 1_555 1_555
H27 C20 1_555 1_555
C21 C20 1_555 1_555
H28 C21 1_555 1_555
H29 C21 1_555 1_555
H30 C21 1_555 1_555
C22 O19 1_555 1_555
C23 C22 1_555 1_555
H31 C23 1_555 1_555
C24 O21 1_555 1_555
C25 C23 1_555 1_555
H32 C25 1_555 1_555
H33 C25 1_555 1_555
C26 C25 1_555 1_555
H34 C26 1_555 1_555
H35 C26 1_555 1_555
C27 C26 1_555 1_555
H36 C27 1_555 1_555
H37 C27 1_555 1_555
C28 C27 1_555 1_555
H38 C28 1_555 1_555
H39 C28 1_555 1_555
H40 C28 1_555 1_555
C29 O23 1_555 1_555
C30 C29 1_555 1_555
H41 C30 1_555 1_555
C31 O25 1_555 1_555
C32 C30 1_555 1_555
H42 C32 1_555 1_555
H43 C32 1_555 1_555
C33 C32 1_555 1_555
H44 C33 1_555 1_555
H45 C33 1_555 1_555
C34 C33 1_555 1_555
H46 C34 1_555 1_555
H47 C34 1_555 1_555
C35 C34 1_555 1_555
H48 C35 1_555 1_555
H49 C35 1_555 1_555
H50 C35 1_555 1_555
C36 O27 1_555 1_555
C37 C36 1_555 1_555
H51 C37 1_555 1_555
C38 O29 1_555 1_555
C39 C37 1_555 1_555
H52 C39 1_555 1_555
H53 C39 1_555 1_555
C40 C39 1_555 1_555
H54 C40 1_555 1_555
H55 C40 1_555 1_555
C41 C40 1_555 1_555
H56 C41 1_555 1_555
H57 C41 1_555 1_555
C42 C41 1_555 1_555
H58 C42 1_555 1_555
H59 C42 1_555 1_555
H60 C42 1_555 1_555
O31 Sr1 1_555 1_555
O32 Sr2 1_555 1_555
O33 Sr3 1_555 1_555
O34 Sr1 1_555 1_555
O35 Sr3 1_555 1_555
O36 Sr3 1_555 1_555
O37 Sr2 1_555 1_555
O38 Sr1 1_555 1_555
O39 Sr2 1_555 1_555
Sr2_2 O24 1_555 1_555
Sr3_2 O16 1_555 1_555
O16_2 Sr3 1_555 1_555
O24_2 Sr2 1_555 1_555
Sr2 O38 1_555 1_555
Sr3 O31 1_555 1_555
Sr3 O34 1_555 1_555
V1 O7 1_555 1_555
V1 O13 1_555 1_555
V2 O15 1_555 1_555
V3 O23 1_555 1_555
O16 C15 1_555 1_555
O22 C24 1_555 1_555
O24 C29 1_555 1_555
O30 C38 1_555 1_555
C2 C3 1_555 1_555
C9 C11 1_555 1_555
C16 C17 1_555 1_555
C23 C24 1_555 1_555
C30 C31 1_555 1_555
C37 C38 1_555 1_555
Sr2_2 O16_2 1_555 1_555
Sr3_2 O24_2 1_555 1_555

#END
