
#######################################################################
#
#                 Cambridge Crystallographic Data Centre
#                                CCDC 
#
#######################################################################
#
# If this CIF has been generated from an entry in the Cambridge 
# Structural Database, then it will include bibliographic, chemical, 
# crystal, experimental, refinement or atomic coordinate data resulting 
# from the CCDC's data processing and validation procedures.
#
#######################################################################

data_FUTVUL
_symmetry_cell_setting           orthorhombic
_symmetry_space_group_name_H-M   'P 21 21 21'
_symmetry_Int_Tables_number      19
_space_group_name_Hall           'P 2ac 2ab'
loop_
_symmetry_equiv_pos_site_id
_symmetry_equiv_pos_as_xyz
1 x,y,z
2 1/2-x,-y,1/2+z
3 1/2+x,1/2-y,-z
4 -x,1/2+y,1/2-z
_cell_length_a                   10.508(3)
_cell_length_b                   7.395(2)
_cell_length_c                   18.708(4)
_cell_angle_alpha                90
_cell_angle_beta                 90
_cell_angle_gamma                90
_cell_volume                     1453.74
loop_
_atom_site_label
_atom_site_type_symbol
_atom_site_fract_x
_atom_site_fract_y
_atom_site_fract_z
Ho1 Ho 0.02976(4) 0.25651(7) 0.58300(2)
O1 O -0.1346(7) 0.2153(11) 0.4996(4)
O2 O 0.2419(8) 0.3462(13) 0.5910(4)
O3 O 0.1239(7) 0.2039(12) 0.4672(4)
O4 O 0.0775(8) 0.2389(17) 0.7045(4)
O5 O -0.1300(14) 0.4398(15) 0.6376(6)
O6 O -0.1208(13) 0.0473(13) 0.6352(6)
O7 O 0.0437(10) 0.5502(12) 0.5352(5)
O8 O 0.1317(12) -0.0247(13) 0.5859(5)
N1 N -0.0778(10) -0.0040(14) 0.3312(5)
C1 C -0.1554(10) 0.1496(15) 0.4392(5)
C2 C -0.0434(10) 0.0607(15) 0.4035(5)
C3 C 0.0710(11) 0.1924(17) 0.3975(6)
C4 C 0.0340(17) 0.3797(20) 0.3695(7)
H1 H -0.02717 -0.05275 0.42838
H2 H 0.13236 0.14800 0.36121
H3 H 0.20125 0.23974 0.46224
H4 H -0.12356 -0.11631 0.33422
H5 H -0.12549 0.07671 0.31046
H6 H -0.00270 -0.02355 0.30271
H7 H -0.02778 0.41667 0.38889
H8 H 0.01773 0.37731 0.31793
H9 H 0.10340 0.46769 0.37914
H10 H 0.13889 0.25000 0.72222
H11 H 0.02510 0.25053 0.74793
H12 H -0.18647 0.45573 0.67534
H13 H -0.16667 0.54167 0.61111
H14 H -0.17307 -0.04275 0.63137
H15 H -0.13889 0.08333 0.68056
H16 H 0.03363 0.67164 0.55254
H17 H 0.08333 0.58333 0.50000
H18 H 0.15118 -0.06943 0.62614
H19 H 0.15358 -0.09146 0.55404
C1B C 0.3446(10) 0.3504(15) 0.5608(5)
O2B O -0.2581(8) 0.1538(13) 0.4090(4)
O1B O 0.3654(7) 0.2847(11) 0.5004(4)
C2B C 0.4566(10) 0.4393(15) 0.5965(5)
Ho1B Ho -0.47024(4) 0.24349(7) 0.41700(2)
Ho1B_2 Ho 0.52976(4) 0.24349(7) 0.41700(2)
N1B N 0.4222(10) 0.5040(14) 0.6688(5)
C3B C 0.5710(11) 0.3076(17) 0.6025(6)
H1B H 0.47283 0.55275 0.57162
O1B_2 O -0.6346(7) 0.2847(11) 0.5004(4)
O3B O -0.3761(7) 0.2961(12) 0.5328(4)
O4B O -0.4225(8) 0.2611(17) 0.2955(4)
O5B O -0.6300(14) 0.0602(15) 0.3624(6)
O6B O -0.6208(13) 0.4527(13) 0.3648(6)
O7B O -0.4563(10) -0.0502(12) 0.4648(5)
O8B O -0.3683(12) 0.5247(13) 0.4141(5)
H4B H 0.37644 0.61631 0.66578
H5B H 0.37451 0.42329 0.68954
H6B H 0.49730 0.52355 0.69729
O3B_2 O 0.6239(7) 0.2961(12) 0.5328(4)
C4B C 0.5340(17) 0.1203(20) 0.6305(7)
H2B H 0.63236 0.35200 0.63879
C3B_2 C -0.4290(11) 0.3076(17) 0.6025(6)
H3B H -0.29875 0.26026 0.53776
H10B H -0.36111 0.25000 0.27778
H11B H -0.47490 0.24947 0.25207
H12B H -0.68647 0.04427 0.32466
H13B H -0.66667 -0.04167 0.38889
H14B H -0.67307 0.54275 0.36863
H15B H -0.63889 0.41667 0.31944
H16B H -0.46637 -0.17164 0.44746
H17B H -0.41667 -0.08333 0.50000
H18B H -0.34882 0.56943 0.37386
H19B H -0.34642 0.59146 0.44596
H7B H 0.47222 0.08333 0.61111
H8B H 0.51773 0.12269 0.68207
H9B H 0.60340 0.03231 0.62086
Cl1 Cl 0.2084(3) 0.2528(6) -0.0201(2)
Cl2 Cl 0.3304(3) 0.2225(5) 0.7871(2)
Cl3 Cl 0.3143(4) 0.2627(6) 0.2177(2)
loop_
_geom_bond_atom_site_label_1
_geom_bond_atom_site_label_2
_geom_bond_site_symmetry_1
_geom_bond_site_symmetry_2
Ho1 O1 1_555 1_555
O1 C1 1_555 1_555
O2 Ho1 1_555 1_555
O3 Ho1 1_555 1_555
O4 Ho1 1_555 1_555
O5 Ho1 1_555 1_555
O6 Ho1 1_555 1_555
O7 Ho1 1_555 1_555
O8 Ho1 1_555 1_555
N1 C2 1_555 1_555
C1 C2 1_555 1_555
C2 C3 1_555 1_555
C3 O3 1_555 1_555
C4 C3 1_555 1_555
H1 C2 1_555 1_555
H2 C3 1_555 1_555
H3 O3 1_555 1_555
H4 N1 1_555 1_555
H5 N1 1_555 1_555
H6 N1 1_555 1_555
H7 C4 1_555 1_555
H8 C4 1_555 1_555
H9 C4 1_555 1_555
H10 O4 1_555 1_555
H11 O4 1_555 1_555
H12 O5 1_555 1_555
H13 O5 1_555 1_555
H14 O6 1_555 1_555
H15 O6 1_555 1_555
H16 O7 1_555 1_555
H17 O7 1_555 1_555
H18 O8 1_555 1_555
H19 O8 1_555 1_555
C1B O2 1_555 1_555
O2B C1 1_555 1_555
O1B C1B 1_555 1_555
C2B C1B 1_555 1_555
Ho1B O2B 1_555 1_555
Ho1B_2 O1B 1_555 1_555
N1B C2B 1_555 1_555
C3B C2B 1_555 1_555
H1B C2B 1_555 1_555
O1B_2 Ho1B 1_555 1_555
O3B Ho1B 1_555 1_555
O4B Ho1B 1_555 1_555
O5B Ho1B 1_555 1_555
O6B Ho1B 1_555 1_555
O7B Ho1B 1_555 1_555
O8B Ho1B 1_555 1_555
H4B N1B 1_555 1_555
H5B N1B 1_555 1_555
H6B N1B 1_555 1_555
O3B_2 C3B 1_555 1_555
C4B C3B 1_555 1_555
H2B C3B 1_555 1_555
C3B_2 O3B 1_555 1_555
H3B O3B 1_555 1_555
H10B O4B 1_555 1_555
H11B O4B 1_555 1_555
H12B O5B 1_555 1_555
H13B O5B 1_555 1_555
H14B O6B 1_555 1_555
H15B O6B 1_555 1_555
H16B O7B 1_555 1_555
H17B O7B 1_555 1_555
H18B O8B 1_555 1_555
H19B O8B 1_555 1_555
H7B C4B 1_555 1_555
H8B C4B 1_555 1_555
H9B C4B 1_555 1_555

#END
