
#######################################################################
#
#                 Cambridge Crystallographic Data Centre
#                                CCDC 
#
#######################################################################
#
# If this CIF has been generated from an entry in the Cambridge 
# Structural Database, then it will include bibliographic, chemical, 
# crystal, experimental, refinement or atomic coordinate data resulting 
# from the CCDC's data processing and validation procedures.
#
#######################################################################

data_FUXBIL
_symmetry_cell_setting           triclinic
_symmetry_space_group_name_H-M   'P -1'
_symmetry_Int_Tables_number      2
_space_group_name_Hall           '-P 1'
loop_
_symmetry_equiv_pos_site_id
_symmetry_equiv_pos_as_xyz
1 x,y,z
2 -x,-y,-z
_cell_length_a                   8.7110(4)
_cell_length_b                   9.0430(4)
_cell_length_c                   15.2389(8)
_cell_angle_alpha                93.498(2)
_cell_angle_beta                 103.642(2)
_cell_angle_gamma                115.033(1)
_cell_volume                     1039.2
loop_
_atom_site_label
_atom_site_type_symbol
_atom_site_fract_x
_atom_site_fract_y
_atom_site_fract_z
Cs1 Cs 1.29245(2) 0.21194(2) 1.04688(2)
O1 O 0.9299(2) 0.1318(2) 0.91267(13)
N1 N 1.3157(3) 0.5784(3) 0.96479(16)
C1 C 1.1651(4) 0.5042(3) 0.93281(18)
O2 O 1.2531(4) -0.0820(3) 0.90805(18)
O3 O 0.9037(2) 0.6290(2) 0.85256(13)
O4 O 0.5019(2) -0.0902(2) 0.79907(12)
C2 C 0.8826(3) 0.2393(3) 0.89142(17)
C3 C 0.9793(3) 0.4106(3) 0.89508(17)
H1 H 1.151(5) -0.170(5) 0.896(3)
H2 H 1.311(5) -0.104(4) 0.888(2)
C4 C 0.6871(3) 0.2004(3) 0.85364(17)
C5 C 0.8653(3) 0.4813(3) 0.85656(17)
N2 N 0.6938(3) 0.3514(2) 0.82204(14)
C6 C 0.5856(3) 0.0438(3) 0.77980(18)
H3 H 0.6321 0.1834 0.9052
C7 C 0.5373(3) 0.3714(3) 0.79031(17)
N3 N 0.6028(3) 0.0645(3) 0.69554(16)
C8 C 0.5344(3) 0.4917(3) 0.73921(18)
C9 C 0.3804(3) 0.2632(3) 0.80724(18)
C10 C 0.5215(4) -0.0701(3) 0.61855(18)
H4 H 0.662(4) 0.160(4) 0.689(2)
H5 H 0.6387 0.5626 0.7248
C11 C 0.3817(3) 0.5106(3) 0.70851(18)
H6 H 0.3787 0.1768 0.8401
C12 C 0.2282(3) 0.2811(3) 0.77644(18)
C13 C 0.3464(4) -0.1211(3) 0.56824(18)
C14 C 0.6224(4) -0.1452(3) 0.59684(19)
C15 C 0.2289(3) 0.4063(3) 0.72827(18)
H7 H 0.3822 0.5948 0.6741
H8 H 0.1223 0.2072 0.7883
C16 C 0.2380(4) -0.0427(4) 0.5951(2)
C17 C 0.2729(4) -0.2494(4) 0.4924(2)
C18 C 0.5437(4) -0.2722(3) 0.5215(2)
C19 C 0.8112(4) -0.0874(4) 0.6539(2)
O5 O 0.0719(2) 0.4177(2) 0.70265(13)
H9 H 0.2178 -0.0703 0.6538
H10 H 0.1240 -0.0850 0.5477
H11 H 0.3017 0.0781 0.6011
C20 C 0.3714(4) -0.3239(4) 0.4697(2)
H12 H 0.1543 -0.2858 0.4561
H13 H 0.6096 -0.3249 0.5052
H14 H 0.8841 0.0259 0.6468
H15 H 0.8566 -0.1615 0.6334
H16 H 0.8154 -0.0891 0.7187
C21 C 0.0852(4) 0.5738(3) 0.6818(2)
H17 H 0.3200 -0.4113 0.4181
H18 H 0.0969 0.5817 0.6197
H19 H 0.1893 0.6639 0.7261
H20 H -0.0215 0.5828 0.6854
Cs1A Cs 0.70755(2) -0.21194(2) 0.95312(2)
Cs1A_2 Cs 0.70755(2) 0.78806(2) 0.95312(2)
Cs1A_3 Cs 1.70755(2) 0.78806(2) 0.95312(2)
O1A O 1.0701(2) -0.1318(2) 1.08733(13)
N1A N 1.6843(3) 0.4216(3) 1.03521(16)
O3A O 1.0963(2) 0.3710(2) 1.14744(13)
O4A O 1.4981(2) 0.0902(2) 1.20093(12)
loop_
_geom_bond_atom_site_label_1
_geom_bond_atom_site_label_2
_geom_bond_site_symmetry_1
_geom_bond_site_symmetry_2
Cs1 O1 1_555 1_555
O1 C2 1_555 1_555
N1 C1 1_555 1_555
C1 C3 1_555 1_555
O2 Cs1 1_555 1_555
O3 C5 1_555 1_555
O4 C6 1_555 1_555
C2 C3 1_555 1_555
C3 C5 1_555 1_555
H1 O2 1_555 1_555
H2 O2 1_555 1_555
C4 C2 1_555 1_555
C5 N2 1_555 1_555
N2 C4 1_555 1_555
C6 C4 1_555 1_555
H3 C4 1_555 1_555
C7 N2 1_555 1_555
N3 C6 1_555 1_555
C8 C7 1_555 1_555
C9 C7 1_555 1_555
C10 N3 1_555 1_555
H4 N3 1_555 1_555
H5 C8 1_555 1_555
C11 C8 1_555 1_555
H6 C9 1_555 1_555
C12 C9 1_555 1_555
C13 C10 1_555 1_555
C14 C10 1_555 1_555
C15 C11 1_555 1_555
H7 C11 1_555 1_555
H8 C12 1_555 1_555
C16 C13 1_555 1_555
C17 C13 1_555 1_555
C18 C14 1_555 1_555
C19 C14 1_555 1_555
O5 C15 1_555 1_555
H9 C16 1_555 1_555
H10 C16 1_555 1_555
H11 C16 1_555 1_555
C20 C17 1_555 1_555
H12 C17 1_555 1_555
H13 C18 1_555 1_555
H14 C19 1_555 1_555
H15 C19 1_555 1_555
H16 C19 1_555 1_555
C21 O5 1_555 1_555
H17 C20 1_555 1_555
H18 C21 1_555 1_555
H19 C21 1_555 1_555
H20 C21 1_555 1_555
Cs1A O1 1_555 1_555
Cs1A_2 O3 1_555 1_555
Cs1A_3 N1 1_555 1_555
O1A Cs1 1_555 1_555
N1A Cs1 1_555 1_555
O3A Cs1 1_555 1_555
O4A Cs1 1_555 1_555
O4 Cs1A 1_555 1_555
C12 C15 1_555 1_555
C18 C20 1_555 1_555
Cs1A O1A 1_555 1_555

#END
