
#######################################################################
#
#                 Cambridge Crystallographic Data Centre
#                                CCDC 
#
#######################################################################
#
# If this CIF has been generated from an entry in the Cambridge 
# Structural Database, then it will include bibliographic, chemical, 
# crystal, experimental, refinement or atomic coordinate data resulting 
# from the CCDC's data processing and validation procedures.
#
#######################################################################

data_FUXCEI
_symmetry_cell_setting           triclinic
_symmetry_space_group_name_H-M   'P 1'
_symmetry_Int_Tables_number      1
_space_group_name_Hall           'P 1'
loop_
_symmetry_equiv_pos_site_id
_symmetry_equiv_pos_as_xyz
1 x,y,z
_cell_length_a                   11.685(3)
_cell_length_b                   12.440(4)
_cell_length_c                   13.933(4)
_cell_angle_alpha                80.464(4)
_cell_angle_beta                 77.996(4)
_cell_angle_gamma                64.417(4)
_cell_volume                     1780.2
loop_
_atom_site_label
_atom_site_type_symbol
_atom_site_fract_x
_atom_site_fract_y
_atom_site_fract_z
Ag1 Ag -2.67211(5) 0.13588(5) -1.67850(4)
S1 S -2.92000(15) 0.42553(13) -2.00706(11)
S2 S -3.19248(14) 0.75889(12) -2.13222(10)
S3 S -3.29844(16) 0.81489(14) -2.42323(11)
S4 S -2.75127(19) -0.08683(16) -1.73924(14)
N1 N -2.7668(6) 0.2800(5) -1.7820(4)
N2 N -3.5351(7) 1.0310(6) -2.5851(5)
C1 C -2.8337(6) 0.3531(6) -1.8291(5)
C2 C -2.9167(6) 0.4453(5) -1.8880(4)
C3 C -2.9993(7) 0.5570(6) -1.8624(5)
H1 H -3.0103 0.5841 -1.7999
C4 C -3.0663(6) 0.6273(5) -1.9389(5)
H2 H -3.1279 0.7076 -1.9337
C5 C -3.0339(5) 0.5684(5) -2.0228(4)
C6 C -3.0827(5) 0.6128(5) -2.1143(4)
C7 C -3.0536(6) 0.5530(6) -2.1965(4)
H3 H -2.9946 0.4717 -2.2010
C8 C -3.1205(7) 0.6250(6) -2.2737(5)
H4 H -3.1109 0.5974 -2.3357
C9 C -3.2006(6) 0.7387(5) -2.2494(4)
C10 C -3.2873(6) 0.8365(6) -2.3069(4)
C11 C -3.3707(7) 0.9483(6) -2.2817(5)
H5 H -3.3774 0.9770 -2.2207
C12 C -3.4460(6) 1.0172(6) -2.3552(5)
H6 H -3.5086 1.0970 -2.3494
C13 C -3.4191(6) 0.9568(6) -2.4349(4)
C14 C -3.4804(7) 0.9961(6) -2.5185(5)
C15 C -2.8367(11) -0.1354(9) -1.6297(7)
O1 O -2.7891(6) 0.0367(5) -1.7282(5)
O2 O -2.6197(6) -0.1589(7) -1.7325(5)
O3 O -2.8019(9) -0.1056(7) -1.8171(5)
F1 F -2.8124(10) -0.2485(6) -1.6289(7)
F2 F -2.8017(7) -0.1233(8) -1.5494(4)
F3 F -2.9636(6) -0.0695(7) -1.6232(5)
Ag1_2 Ag -3.67211(5) 1.13588(5) -2.67850(4)
N2_2 N -2.5351(7) 0.0310(6) -1.5851(5)
Ag2 Ag -1.90745(6) 0.14195(5) -1.41977(4)
S5 S -1.59622(15) -0.15604(13) -1.12561(11)
S6 S -1.31619(14) -0.49262(13) -1.01100(10)
S7 S -1.21744(15) -0.57166(14) -0.71565(10)
N3 N -1.7590(6) -0.0003(6) -1.3475(4)
N4 N -1.0111(7) -0.8046(5) -0.5457(4)
C16 C -1.6914(6) -0.0770(6) -1.3004(5)
C17 C -1.6050(6) -0.1725(5) -1.2444(4)
C18 C -1.5271(6) -0.2835(6) -1.2718(4)
H7 H -1.5201 -0.3084 -1.3345
C19 C -1.4577(6) -0.3579(6) -1.1973(4)
H8 H -1.3981 -0.4386 -1.2045
C20 C -1.4848(6) -0.3020(5) -1.1133(4)
C21 C -1.4342(5) -0.3498(5) -1.0213(4)
C22 C -1.4689(6) -0.2979(6) -0.9346(5)
H9 H -1.5337 -0.2196 -0.9254
C23 C -1.3987(6) -0.3726(6) -0.8603(4)
H10 H -1.4098 -0.3494 -0.7962
C24 C -1.3131(5) -0.4822(5) -0.8902(4)
C25 C -1.2248(5) -0.5828(5) -0.8348(4)
C26 C -1.1391(7) -0.6937(6) -0.8654(4)
H11 H -1.1293 -0.7163 -0.9295
C27 C -1.0685(7) -0.7689(6) -0.7932(5)
H12 H -1.0060 -0.8481 -0.8023
C28 C -1.0995(6) -0.7156(6) -0.7075(4)
C29 C -1.0486(6) -0.7660(6) -0.6191(5)
S8 S -1.8348(2) 0.37447(18) -1.46586(15)
C30 C -1.9169(9) 0.4936(7) -1.5575(6)
O4 O -1.9401(8) 0.3561(6) -1.4008(5)
O5 O -1.7548(8) 0.2777(6) -1.5235(6)
O6 O -1.7746(11) 0.4282(9) -1.4234(7)
F4 F -1.9843(7) 0.4577(7) -1.6025(5)
F5 F -1.9974(7) 0.5904(5) -1.5176(5)
F6 F -1.8341(6) 0.5171(6) -1.6267(5)
Ag2_2 Ag -0.90745(6) -0.85805(5) -0.41977(4)
N4_2 N -2.0111(7) 0.1954(5) -1.5457(4)
Ag3 Ag -2.17514(5) 0.06458(5) -1.43676(4)
S9 S -2.52708(16) 0.39961(15) -1.70580(11)
S10 S -2.61658(14) 0.45549(13) -2.00308(10)
S11 S -2.88316(14) 0.78211(13) -2.14160(11)
S12 S -2.1555(2) 0.12555(16) -1.22001(14)
N5 N -2.3050(6) 0.1623(6) -1.5399(5)
N6 N -3.0303(6) 0.9094(6) -2.3741(4)
C31 C -2.3559(7) 0.2052(6) -1.6063(5)
C32 C -2.4149(6) 0.2565(6) -1.6914(4)
C33 C -2.3824(7) 0.1972(6) -1.7749(5)
H13 H -2.3211 0.1168 -1.7806
C34 C -2.4500(7) 0.2688(6) -1.8493(5)
H14 H -2.4398 0.2423 -1.9119
C35 C -2.5329(6) 0.3815(5) -1.8241(4)
C36 C -2.6149(6) 0.4783(5) -1.8843(4)
C37 C -2.6962(6) 0.5935(6) -1.8634(5)
H15 H -2.7088 0.6235 -1.8019
C38 C -2.7589(6) 0.6624(6) -1.9434(5)
H16 H -2.8173 0.7442 -1.9415
C39 C -2.7271(5) 0.5998(5) -2.0238(4)
C40 C -2.7718(5) 0.6390(5) -2.1185(4)
C41 C -2.7377(6) 0.5721(6) -2.1981(5)
H17 H -2.6777 0.4908 -2.1990
C42 C -2.8020(7) 0.6385(6) -2.2776(5)
H18 H -2.7902 0.6071 -2.3383
C43 C -2.8833(6) 0.7529(6) -2.2577(4)
C44 C -2.9634(6) 0.8398(6) -2.3228(5)
C45 C -2.2186(11) 0.2554(9) -1.1517(7)
O7 O -2.1401(15) 0.1730(8) -1.3177(6)
O8 O -2.2392(16) 0.0751(14) -1.1858(11)
O9 O -2.0429(12) 0.0490(9) -1.1815(9)
F7 F -2.1493(14) 0.3180(9) -1.1802(9)
F8 F -2.2168(13) 0.2261(7) -1.0593(5)
F9 F -2.3247(10) 0.3360(8) -1.1723(7)
Ag3_2 Ag -3.17514(5) 1.06458(5) -2.43676(4)
N6_2 N -2.0303(6) -0.0906(6) -1.3741(4)
C46 C -2.3403(13) -0.0796(12) -1.8627(15)
H19 H -2.4213 -0.0689 -1.8759
C47 C -2.2661(18) -0.0455(10) -1.9268(10)
H20 H -2.2931 -0.0107 -1.9887
C48 C -2.1502(15) -0.0553(10) -1.9128(11)
H21 H -2.0987 -0.0280 -1.9639
C49 C -2.1091(11) -0.1041(11) -1.8259(14)
H22 H -2.0292 -0.1102 -1.8141
C50 C -2.185(2) -0.1447(11) -1.7551(9)
H23 H -2.1584 -0.1812 -1.6933
C51 C -2.3023(18) -0.1311(11) -1.7759(14)
H24 H -2.3563 -0.1589 -1.7277
C52 C -1.453(2) -0.3710(11) -0.5414(8)
H25 H -1.4811 -0.2993 -0.5836
C53 C -1.336(2) -0.414(2) -0.5134(16)
H26 H -1.2833 -0.3723 -0.5348
C54 C -1.2955(13) -0.516(2) -0.4558(16)
H27 H -1.2127 -0.5478 -0.4369
C55 C -1.3709(19) -0.5715(12) -0.4257(10)
H28 H -1.3416 -0.6440 -0.3845
C56 C -1.4916(15) -0.5286(14) -0.4513(11)
H29 H -1.5450 -0.5702 -0.4273
C57 C -1.5314(12) -0.4302(15) -0.5090(11)
H30 H -1.6137 -0.3998 -0.5284
C58 C -2.6335(16) 0.1523(12) -2.0419(14)
H31 H -2.5726 0.1430 -2.0019
C59 C -2.6294(15) 0.2059(11) -2.1378(14)
H32 H -2.5645 0.2333 -2.1663
C60 C -2.720(2) 0.2173(14) -2.1877(9)
H33 H -2.7194 0.2542 -2.2531
C61 C -2.8072(16) 0.180(2) -2.150(2)
H34 H -2.8687 0.1913 -2.1905
C62 C -2.819(2) 0.131(2) -2.069(3)
H35 H -2.8864 0.1060 -2.0471
C63 C -2.729(3) 0.1134(12) -2.0077(11)
H36 H -2.7345 0.0747 -1.9432
loop_
_geom_bond_atom_site_label_1
_geom_bond_atom_site_label_2
_geom_bond_site_symmetry_1
_geom_bond_site_symmetry_2
Ag1 N1 1_555 1_555
S1 C2 1_555 1_555
S2 C6 1_555 1_555
S3 C10 1_555 1_555
S4 C15 1_555 1_555
N1 C1 1_555 1_555
N2 C14 1_555 1_555
C1 C2 1_555 1_555
C2 C3 1_555 1_555
C3 H1 1_555 1_555
C4 C3 1_555 1_555
H2 C4 1_555 1_555
C5 S1 1_555 1_555
C6 C5 1_555 1_555
C7 C6 1_555 1_555
H3 C7 1_555 1_555
C8 C7 1_555 1_555
H4 C8 1_555 1_555
C9 S2 1_555 1_555
C10 C9 1_555 1_555
C11 C10 1_555 1_555
H5 C11 1_555 1_555
C12 C11 1_555 1_555
H6 C12 1_555 1_555
C13 S3 1_555 1_555
C14 C13 1_555 1_555
C15 F1 1_555 1_555
O1 Ag1 1_555 1_555
O2 S4 1_555 1_555
O3 S4 1_555 1_555
F2 C15 1_555 1_555
F3 C15 1_555 1_555
Ag2 N3 1_555 1_555
S5 C17 1_555 1_555
S6 C21 1_555 1_555
S7 C25 1_555 1_555
N3 C16 1_555 1_555
N4 C29 1_555 1_555
C16 C17 1_555 1_555
C17 C18 1_555 1_555
C18 H7 1_555 1_555
C19 C18 1_555 1_555
H8 C19 1_555 1_555
C20 S5 1_555 1_555
C21 C20 1_555 1_555
C22 C21 1_555 1_555
H9 C22 1_555 1_555
C23 C22 1_555 1_555
H10 C23 1_555 1_555
C24 S6 1_555 1_555
C25 C24 1_555 1_555
C26 C25 1_555 1_555
H11 C26 1_555 1_555
C27 C26 1_555 1_555
H12 C27 1_555 1_555
C28 S7 1_555 1_555
C29 C28 1_555 1_555
S8 C30 1_555 1_555
C30 F4 1_555 1_555
O4 Ag2 1_555 1_555
O5 S8 1_555 1_555
O6 S8 1_555 1_555
F5 C30 1_555 1_555
F6 C30 1_555 1_555
Ag3 N5 1_555 1_555
S9 C32 1_555 1_555
S10 C36 1_555 1_555
S11 C40 1_555 1_555
S12 C45 1_555 1_555
N5 C31 1_555 1_555
N6 C44 1_555 1_555
C31 C32 1_555 1_555
C32 C33 1_555 1_555
C33 H13 1_555 1_555
C34 C33 1_555 1_555
H14 C34 1_555 1_555
C35 S9 1_555 1_555
C36 C35 1_555 1_555
C37 C36 1_555 1_555
H15 C37 1_555 1_555
C38 C37 1_555 1_555
H16 C38 1_555 1_555
C39 S10 1_555 1_555
C40 C39 1_555 1_555
C41 C40 1_555 1_555
H17 C41 1_555 1_555
C42 C41 1_555 1_555
H18 C42 1_555 1_555
C43 S11 1_555 1_555
C44 C43 1_555 1_555
C45 F7 1_555 1_555
O7 Ag3 1_555 1_555
O8 S12 1_555 1_555
O9 S12 1_555 1_555
F8 C45 1_555 1_555
F9 C45 1_555 1_555
C46 H19 1_555 1_555
C47 C46 1_555 1_555
H20 C47 1_555 1_555
C48 C47 1_555 1_555
H21 C48 1_555 1_555
C49 C48 1_555 1_555
H22 C49 1_555 1_555
C50 C49 1_555 1_555
H23 C50 1_555 1_555
C51 C46 1_555 1_555
H24 C51 1_555 1_555
C52 H25 1_555 1_555
C53 C52 1_555 1_555
H26 C53 1_555 1_555
C54 C53 1_555 1_555
H27 C54 1_555 1_555
C55 C54 1_555 1_555
H28 C55 1_555 1_555
C56 C55 1_555 1_555
H29 C56 1_555 1_555
C57 C52 1_555 1_555
H30 C57 1_555 1_555
C58 H31 1_555 1_555
C59 C58 1_555 1_555
H32 C59 1_555 1_555
C60 C59 1_555 1_555
H33 C60 1_555 1_555
C61 C60 1_555 1_555
H34 C61 1_555 1_555
C62 C61 1_555 1_555
H35 C62 1_555 1_555
C63 C58 1_555 1_555
H36 C63 1_555 1_555
Ag1_2 N2 1_555 1_555
N2_2 Ag1 1_555 1_555
Ag2_2 N4 1_555 1_555
N4_2 Ag2 1_555 1_555
Ag3_2 N6 1_555 1_555
N6_2 Ag3 1_555 1_555
S4 O1 1_555 1_555
C4 C5 1_555 1_555
C8 C9 1_555 1_555
C12 C13 1_555 1_555
C19 C20 1_555 1_555
C23 C24 1_555 1_555
C27 C28 1_555 1_555
S8 O4 1_555 1_555
S12 O7 1_555 1_555
C34 C35 1_555 1_555
C38 C39 1_555 1_555
C42 C43 1_555 1_555
C50 C51 1_555 1_555
C56 C57 1_555 1_555
C62 C63 1_555 1_555

#END
