
#######################################################################
#
#                 Cambridge Crystallographic Data Centre
#                                CCDC 
#
#######################################################################
#
# If this CIF has been generated from an entry in the Cambridge 
# Structural Database, then it will include bibliographic, chemical, 
# crystal, experimental, refinement or atomic coordinate data resulting 
# from the CCDC's data processing and validation procedures.
#
#######################################################################

data_FUXKUF
_symmetry_cell_setting           monoclinic
_symmetry_space_group_name_H-M   'P 21'
_symmetry_Int_Tables_number      4
_space_group_name_Hall           'P 2yb'
loop_
_symmetry_equiv_pos_site_id
_symmetry_equiv_pos_as_xyz
1 x,y,z
2 -x,1/2+y,-z
_cell_length_a                   12.941(1)
_cell_length_b                   32.046(2)
_cell_length_c                   6.1025(4)
_cell_angle_alpha                90
_cell_angle_beta                 97.429(4)
_cell_angle_gamma                90
_cell_volume                     2509.51
loop_
_atom_site_label
_atom_site_type_symbol
_atom_site_fract_x
_atom_site_fract_y
_atom_site_fract_z
Zn1 Zn 0.15862 -0.28518 -1.78908
Cl1 Cl 0.30896 -0.28861 -1.91144
Cl2 Cl -0.00351 -0.28424 -1.96255
N1 N 0.17124 -0.32400 -1.50822
N2 N 0.15448 -0.23502 -1.57906
C1 C 0.25440 -0.34627 -1.44401
C2 C 0.08821 -0.33108 -1.39969
C3 C 0.23965 -0.21472 -1.50591
C4 C 0.07089 -0.22856 -1.47149
C5 C 0.26278 -0.37330 -1.27118
C6 C 0.08665 -0.36076 -1.23162
C7 C 0.24740 -0.19066 -1.32161
C8 C 0.07139 -0.20464 -1.28747
C9 C 0.17788 -0.38188 -1.16674
C10 C 0.16269 -0.18480 -1.21208
C11 C 0.19050 -0.41040 -0.97003
C12 C 0.17359 -0.15885 -1.01476
N3 N 0.28781 -0.42571 -0.90630
N4 N 0.10546 -0.41929 -0.87049
N5 N 0.26903 -0.14658 -0.94063
N6 N 0.08880 -0.14879 -0.92813
C13 C 0.29629 -0.44950 -0.72006
C14 C 0.12925 -0.44212 -0.68227
C15 C 0.28094 -0.12572 -0.75293
C16 C 0.11019 -0.12607 -0.74168
C17 C 0.39826 -0.46470 -0.62366
N7 N 0.22084 -0.45741 -0.60024
C18 C 0.04697 -0.45111 -0.54754
C19 C 0.38676 -0.11616 -0.65224
N8 N 0.20545 -0.11416 -0.64026
C20 C 0.02496 -0.11520 -0.61830
C21 C 0.40889 -0.48191 -0.41663
C22 C 0.48446 -0.46131 -0.73113
C23 C -0.05669 -0.43913 -0.61994
C24 C 0.07604 -0.46578 -0.33076
C25 C 0.40178 -0.09718 -0.44202
C26 C 0.47582 -0.12995 -0.74237
C27 C -0.07190 -0.13236 -0.67056
C28 C 0.04598 -0.08899 -0.44039
C29 C 0.50519 -0.49329 -0.31179
C30 C 0.58050 -0.47228 -0.61219
C31 C -0.12781 -0.44479 -0.47719
C32 C -0.00001 -0.46869 -0.19805
C33 C 0.50335 -0.08935 -0.34011
C34 C 0.57364 -0.12150 -0.62353
C35 C -0.14520 -0.12063 -0.54227
C36 C -0.03310 -0.07835 -0.32509
N9 N 0.59358 -0.48756 -0.40396
N10 N -0.10090 -0.46044 -0.27233
N11 N 0.58942 -0.10058 -0.42958
N12 N -0.12769 -0.09336 -0.38190
Zn2 Zn 0.72792 -0.47450 -0.18585
Zn3 Zn 0.73487 -0.10118 -0.23568
Br1 Br 0.69110 -0.40430 -0.10122
Br2 Br 0.76224 -0.52569 0.09820
Br3 Br 0.73550 -0.16154 -0.00857
Br4 Br 0.77644 -0.04187 -0.00908
N10_2 N 0.89910 -0.46044 -0.27233
N12_2 N 0.87231 -0.09336 -0.38190
Zn2_2 Zn -0.27208 -0.47450 -0.18585
Zn3_2 Zn -0.26513 -0.10118 -0.23568
N13 N 0.66494 0.71020 -0.64484
C37 C 0.58672 0.69352 -0.52417
O1 O 0.69186 0.74591 -0.60710
O2 O 0.71799 0.68651 -0.73590
C38 C 0.56648 0.71561 -0.34187
C39 C 0.54009 0.65629 -0.58907
C40 C 0.49950 0.69766 -0.21375
C41 C 0.46634 0.63998 -0.46980
C42 C 0.44910 0.66114 -0.28353
loop_
_geom_bond_atom_site_label_1
_geom_bond_atom_site_label_2
_geom_bond_site_symmetry_1
_geom_bond_site_symmetry_2
Zn1 Cl1 1_555 1_555
Cl2 Zn1 1_555 1_555
N1 Zn1 1_555 1_555
N2 Zn1 1_555 1_555
C1 N1 1_555 1_555
C2 N1 1_555 1_555
C3 N2 1_555 1_555
C4 N2 1_555 1_555
C5 C1 1_555 1_555
C6 C2 1_555 1_555
C7 C3 1_555 1_555
C8 C4 1_555 1_555
C9 C5 1_555 1_555
C10 C7 1_555 1_555
C11 C9 1_555 1_555
C12 C10 1_555 1_555
N3 C11 1_555 1_555
N4 C11 1_555 1_555
N5 C12 1_555 1_555
N6 C12 1_555 1_555
C13 N3 1_555 1_555
C14 N4 1_555 1_555
C15 N5 1_555 1_555
C16 N6 1_555 1_555
C17 C13 1_555 1_555
N7 C13 1_555 1_555
C18 C14 1_555 1_555
C19 C15 1_555 1_555
N8 C15 1_555 1_555
C20 C16 1_555 1_555
C21 C17 1_555 1_555
C22 C17 1_555 1_555
C23 C18 1_555 1_555
C24 C18 1_555 1_555
C25 C19 1_555 1_555
C26 C19 1_555 1_555
C27 C20 1_555 1_555
C28 C20 1_555 1_555
C29 C21 1_555 1_555
C30 C22 1_555 1_555
C31 C23 1_555 1_555
C32 C24 1_555 1_555
C33 C25 1_555 1_555
C34 C26 1_555 1_555
C35 C27 1_555 1_555
C36 C28 1_555 1_555
N9 C29 1_555 1_555
N10 C31 1_555 1_555
N11 C33 1_555 1_555
N12 C35 1_555 1_555
Zn2 N9 1_555 1_555
Zn3 N11 1_555 1_555
Br1 Zn2 1_555 1_555
Br2 Zn2 1_555 1_555
Br3 Zn3 1_555 1_555
Br4 Zn3 1_555 1_555
N13 C37 1_555 1_555
C37 C38 1_555 1_555
O1 N13 1_555 1_555
O2 N13 1_555 1_555
C38 C40 1_555 1_555
C39 C37 1_555 1_555
C40 C42 1_555 1_555
C41 C39 1_555 1_555
C42 C41 1_555 1_555
N10_2 Zn2 1_555 1_555
N12_2 Zn3 1_555 1_555
Zn2_2 N10 1_555 1_555
Zn3_2 N12 1_555 1_555
C6 C9 1_555 1_555
C8 C10 1_555 1_555
C14 N7 1_555 1_555
C16 N8 1_555 1_555
C30 N9 1_555 1_555
C32 N10 1_555 1_555
C34 N11 1_555 1_555
C36 N12 1_555 1_555

#END
