
#######################################################################
#
#                 Cambridge Crystallographic Data Centre
#                                CCDC 
#
#######################################################################
#
# If this CIF has been generated from an entry in the Cambridge 
# Structural Database, then it will include bibliographic, chemical, 
# crystal, experimental, refinement or atomic coordinate data resulting 
# from the CCDC's data processing and validation procedures.
#
#######################################################################

data_FUXLUF
_symmetry_cell_setting           monoclinic
_symmetry_space_group_name_H-M   'P 2/c'
_symmetry_Int_Tables_number      13
_space_group_name_Hall           '-P 2yc'
loop_
_symmetry_equiv_pos_site_id
_symmetry_equiv_pos_as_xyz
1 x,y,z
2 -x,y,1/2-z
3 -x,-y,-z
4 x,-y,1/2+z
_cell_length_a                   5.726(1)
_cell_length_b                   8.806(2)
_cell_length_c                   12.866(4)
_cell_angle_alpha                90
_cell_angle_beta                 101.12(1)
_cell_angle_gamma                90
_cell_volume                     636.564
loop_
_atom_site_label
_atom_site_type_symbol
_atom_site_fract_x
_atom_site_fract_y
_atom_site_fract_z
Cu1 Cu 0.50000 0.45689(7) 0.25000
O1 O 0.2908(6) 0.2995(4) 0.1749(2)
O2 O 0.4642(5) 0.2937(4) 0.0355(2)
O3 O 0.1672(5) 0.4808(4) 0.3659(2)
N1 N 0.6661(6) 0.6251(4) 0.3407(3)
C1 C 0.6273(8) 0.7675(5) 0.2800(3)
C2 C 0.3168(6) 0.2479(4) 0.0860(3)
C3 C 0.1507(6) 0.1202(4) 0.0417(3)
C4 C 0.1922(6) 0.0385(4) -0.0463(3)
C5 C -0.0433(6) 0.0804(4) 0.0880(3)
H1 H 0.011 0.534 0.345
H2 H 0.172 0.437 0.437
H3 H 0.599 0.634 0.408
H4 H 0.843 0.602 0.361
H5 H 0.659 0.865 0.333
H6 H 0.749 0.774 0.225
H7 H 0.343 0.069 -0.083
H8 H -0.077 0.143 0.157
O1A O 0.7092(6) 0.2995(4) 0.3251(2)
O3A O 0.8328(5) 0.4808(4) 0.1341(2)
N1A N 0.3339(6) 0.6251(4) 0.1593(3)
C1A C 0.3727(8) 0.7675(5) 0.2200(3)
C5B C 0.0433(6) -0.0804(4) -0.0880(3)
C4B C -0.1922(6) -0.0385(4) 0.0463(3)
C2A C 0.6832(6) 0.2479(4) 0.4140(3)
H1A H 0.989 0.534 0.155
H2A H 0.828 0.437 0.063
H3A H 0.401 0.634 0.092
H4A H 0.157 0.602 0.139
H5A H 0.341 0.865 0.167
H6A H 0.251 0.774 0.275
C3B C -0.1507(6) -0.1202(4) -0.0417(3)
H8B H 0.077 -0.143 -0.157
H7B H -0.343 -0.069 0.083
O2A O 0.5358(5) 0.2937(4) 0.4645(2)
C3A C 0.8493(6) 0.1202(4) 0.4583(3)
C2B C -0.3168(6) -0.2479(4) -0.0860(3)
C4A C 0.8078(6) 0.0385(4) 0.5463(3)
C5A C 1.0433(6) 0.0804(4) 0.4120(3)
O1B O -0.2908(6) -0.2995(4) -0.1749(2)
O2B O -0.4642(5) -0.2937(4) -0.0355(2)
C5C C 0.9567(6) -0.0804(4) 0.5880(3)
H7A H 0.657 0.069 0.583
C4C C 1.1922(6) -0.0385(4) 0.4537(3)
H8A H 1.077 0.143 0.343
Cu1B Cu -0.50000 -0.45689(7) -0.25000
C3C C 1.1507(6) -0.1202(4) 0.5417(3)
H8C H 0.923 -0.143 0.657
H7C H 1.343 -0.069 0.417
O1C O -0.7092(6) -0.2995(4) -0.3251(2)
O3B O -0.1672(5) -0.4808(4) -0.3659(2)
O3C O -0.8328(5) -0.4808(4) -0.1341(2)
N1B N -0.6661(6) -0.6251(4) -0.3407(3)
N1C N -0.3339(6) -0.6251(4) -0.1593(3)
C2C C 1.3168(6) -0.2479(4) 0.5860(3)
H1B H -0.011 -0.534 -0.345
H2B H -0.172 -0.437 -0.437
H1C H -0.989 -0.534 -0.155
H2C H -0.828 -0.437 -0.063
C1B C -0.6273(8) -0.7675(5) -0.2800(3)
H3B H -0.599 -0.634 -0.408
H4B H -0.843 -0.602 -0.361
C1C C -0.3727(8) -0.7675(5) -0.2200(3)
H3C H -0.401 -0.634 -0.092
H4C H -0.157 -0.602 -0.139
O1C_2 O 1.2908(6) -0.2995(4) 0.6749(2)
O2C O 1.4642(5) -0.2937(4) 0.5355(2)
H5B H -0.659 -0.865 -0.333
H6B H -0.749 -0.774 -0.225
H5C H -0.341 -0.865 -0.167
H6C H -0.251 -0.774 -0.275
Cu1B_2 Cu 1.50000 -0.45689(7) 0.75000
loop_
_geom_bond_atom_site_label_1
_geom_bond_atom_site_label_2
_geom_bond_site_symmetry_1
_geom_bond_site_symmetry_2
Cu1 O1 1_555 1_555
O1 C2 1_555 1_555
O2 C2 1_555 1_555
O3 Cu1 1_555 1_555
N1 Cu1 1_555 1_555
C1 N1 1_555 1_555
C2 C3 1_555 1_555
C3 C4 1_555 1_555
C4 H7 1_555 1_555
C5 C3 1_555 1_555
H1 O3 1_555 1_555
H2 O3 1_555 1_555
H3 N1 1_555 1_555
H4 N1 1_555 1_555
H5 C1 1_555 1_555
H6 C1 1_555 1_555
H8 C5 1_555 1_555
O1A Cu1 1_555 1_555
O3A Cu1 1_555 1_555
N1A Cu1 1_555 1_555
C1A C1 1_555 1_555
C5B C4 1_555 1_555
C4B C5 1_555 1_555
C2A O1A 1_555 1_555
H1A O3A 1_555 1_555
H2A O3A 1_555 1_555
H3A N1A 1_555 1_555
H4A N1A 1_555 1_555
H5A C1A 1_555 1_555
H6A C1A 1_555 1_555
C3B C5B 1_555 1_555
H8B C5B 1_555 1_555
H7B C4B 1_555 1_555
O2A C2A 1_555 1_555
C3A C2A 1_555 1_555
C2B C3B 1_555 1_555
C4A C3A 1_555 1_555
C5A C3A 1_555 1_555
O1B C2B 1_555 1_555
O2B C2B 1_555 1_555
C5C C4A 1_555 1_555
H7A C4A 1_555 1_555
C4C C5A 1_555 1_555
H8A C5A 1_555 1_555
Cu1B O1B 1_555 1_555
C3C C5C 1_555 1_555
H8C C5C 1_555 1_555
H7C C4C 1_555 1_555
O1C Cu1B 1_555 1_555
O3B Cu1B 1_555 1_555
O3C Cu1B 1_555 1_555
N1B Cu1B 1_555 1_555
N1C Cu1B 1_555 1_555
C2C C3C 1_555 1_555
H1B O3B 1_555 1_555
H2B O3B 1_555 1_555
H1C O3C 1_555 1_555
H2C O3C 1_555 1_555
C1B N1B 1_555 1_555
H3B N1B 1_555 1_555
H4B N1B 1_555 1_555
C1C N1C 1_555 1_555
H3C N1C 1_555 1_555
H4C N1C 1_555 1_555
O1C_2 C2C 1_555 1_555
O2C C2C 1_555 1_555
H5B C1B 1_555 1_555
H6B C1B 1_555 1_555
H5C C1C 1_555 1_555
H6C C1C 1_555 1_555
Cu1B_2 O1C_2 1_555 1_555
N1A C1A 1_555 1_555
C4B C3B 1_555 1_555
C4C C3C 1_555 1_555
C1B C1C 1_555 1_555

#END
