
#######################################################################
#
#                 Cambridge Crystallographic Data Centre
#                                CCDC 
#
#######################################################################
#
# If this CIF has been generated from an entry in the Cambridge 
# Structural Database, then it will include bibliographic, chemical, 
# crystal, experimental, refinement or atomic coordinate data resulting 
# from the CCDC's data processing and validation procedures.
#
#######################################################################

data_FUYXUT
_symmetry_cell_setting           triclinic
_symmetry_space_group_name_H-M   'P -1'
_symmetry_Int_Tables_number      2
_space_group_name_Hall           '-P 1'
loop_
_symmetry_equiv_pos_site_id
_symmetry_equiv_pos_as_xyz
1 x,y,z
2 -x,-y,-z
_cell_length_a                   11.44060(10)
_cell_length_b                   12.6869(2)
_cell_length_c                   22.7121(3)
_cell_angle_alpha                84.4530(10)
_cell_angle_beta                 87.9390(10)
_cell_angle_gamma                84.3140(10)
_cell_volume                     3263.83
loop_
_atom_site_label
_atom_site_type_symbol
_atom_site_fract_x
_atom_site_fract_y
_atom_site_fract_z
Zn1 Zn -0.09372(3) 0.91977(3) 0.146024(13)
Zn2 Zn 0.5000 0.5000 0.5000
N1 N 0.0915(2) 0.8747(2) 0.40959(11)
N2 N -0.0261(2) 0.9203(2) 0.23430(10)
N3 N 0.3633(2) 0.6365(2) 0.45702(11)
N4 N 0.0590(2) 0.86996(19) 0.10094(10)
N5 N -0.1344(2) 0.76248(19) 0.15642(10)
N6 N -0.2679(2) 0.96714(19) 0.16512(10)
N7 N -0.0734(2) 1.07275(19) 0.10914(11)
N8 N 0.6372(2) 0.5968(2) 0.49664(12)
N9 N 0.5560(2) 0.4436(2) 0.42100(11)
C1 C 0.0430(3) 0.9387(3) 0.45496(13)
C2 C 0.0145(3) 0.8907(3) 0.51011(14)
H1 H 0.0246 0.8170 0.5171
C3 C 0.0288(3) 1.0488(3) 0.44485(14)
H2 H 0.0484 1.0819 0.4080
C4 C 0.0839(3) 0.8798(2) 0.24728(13)
H3 H 0.1346 0.8615 0.2162
C5 C 0.1260(3) 0.8637(2) 0.30373(13)
H4 H 0.2031 0.8350 0.3101
C6 C 0.0522(3) 0.8907(2) 0.35154(13)
C7 C -0.0614(3) 0.9347(3) 0.33837(14)
H5 H -0.1135 0.9556 0.3684
C8 C -0.0955(3) 0.9470(3) 0.28039(14)
H6 H -0.1721 0.9757 0.2727
C9 C 0.2746(3) 0.6172(3) 0.42450(14)
H7 H 0.2740 0.5493 0.4124
C10 C 0.1832(3) 0.6926(3) 0.40782(13)
H8 H 0.1228 0.6754 0.3852
C11 C 0.1832(3) 0.7942(2) 0.42535(12)
C12 C 0.2741(3) 0.8153(3) 0.45972(14)
H9 H 0.2766 0.8823 0.4728
C13 C 0.3611(3) 0.7339(3) 0.47415(15)
H10 H 0.4218 0.7484 0.4974
C14 C 0.1405(3) 0.9336(2) 0.07502(13)
C15 C 0.2383(3) 0.8682(3) 0.05152(14)
H11 H 0.3049 0.8920 0.0319
C16 C 0.2149(3) 0.7660(3) 0.06338(14)
H12 H 0.2626 0.7061 0.0537
C17 C 0.1020(3) 0.7668(2) 0.09394(12)
C18 C 0.0459(3) 0.6755(2) 0.11232(12)
C19 C -0.0649(3) 0.6743(2) 0.14089(12)
C20 C -0.1241(3) 0.5804(2) 0.15648(14)
H13 H -0.0953 0.5108 0.1509
C21 C -0.2297(3) 0.6125(3) 0.18080(14)
H14 H -0.2871 0.5690 0.1952
C22 C -0.2367(3) 0.7264(2) 0.18037(12)
C23 C -0.3375(2) 0.7914(2) 0.19623(12)
C24 C -0.3515(2) 0.9029(2) 0.18813(12)
C25 C -0.4576(3) 0.9686(3) 0.20150(13)
H15 H -0.5268 0.9449 0.2183
C26 C -0.4383(3) 1.0704(3) 0.18522(14)
H16 H -0.4917 1.1300 0.1883
C27 C -0.3191(3) 1.0696(2) 0.16212(12)
C28 C -0.2657(3) 1.1611(2) 0.13887(13)
C29 C -0.1502(3) 1.1608(2) 0.11578(13)
C30 C -0.0932(3) 1.2555(3) 0.09686(17)
H17 H -0.1265 1.3254 0.0971
C31 C 0.0168(3) 1.2240(3) 0.07885(16)
H18 H 0.0742 1.2679 0.0648
C32 C 0.0291(3) 1.1092(2) 0.08554(13)
C33 C 0.1298(3) 1.0449(2) 0.06963(13)
C34 C 0.1113(3) 0.5729(2) 0.09814(13)
C35 C 0.1170(3) 0.5441(3) 0.04066(15)
H19 H 0.0728 0.5850 0.0117
C36 C 0.1881(3) 0.4551(3) 0.02599(17)
H20 H 0.1911 0.4370 -0.0128
C37 C 0.2538(3) 0.3936(3) 0.06790(19)
H21 H 0.3025 0.3346 0.0577
C38 C 0.2468(4) 0.4203(3) 0.1252(2)
H22 H 0.2904 0.3785 0.1541
C39 C 0.1756(3) 0.5089(3) 0.14038(16)
H23 H 0.1711 0.5254 0.1795
C40 C -0.4429(3) 0.7365(2) 0.21901(13)
C41 C -0.4410(3) 0.6728(3) 0.27252(14)
H24 H -0.3725 0.6622 0.2940
C42 C -0.5396(3) 0.6249(3) 0.29434(16)
H25 H -0.5372 0.5834 0.3304
C43 C -0.6411(3) 0.6390(3) 0.26232(17)
H26 H -0.7077 0.6077 0.2770
C44 C -0.6436(3) 0.6997(3) 0.20832(16)
H27 H -0.7115 0.7078 0.1863
C45 C -0.5454(3) 0.7487(3) 0.18686(14)
H28 H -0.5481 0.7899 0.1507
C46 C -0.3372(3) 1.2662(3) 0.13656(14)
C47 C -0.3616(3) 1.3239(3) 0.08250(16)
H29 H -0.3353 1.2954 0.0476
C48 C -0.4241(3) 1.4227(3) 0.07975(19)
H30 H -0.4390 1.4605 0.0432
C49 C -0.4647(3) 1.4658(3) 0.1310(2)
H31 H -0.5075 1.5322 0.1291
C50 C -0.4415(3) 1.4099(3) 0.18476(19)
H32 H -0.4688 1.4388 0.2194
C51 C -0.3779(3) 1.3112(3) 0.18787(16)
H33 H -0.3622 1.2744 0.2246
C52 C 0.2328(3) 1.0977(2) 0.04241(13)
C53 C 0.3417(3) 1.0816(3) 0.06944(14)
H34 H 0.3489 1.0411 0.1057
C54 C 0.4388(3) 1.1250(3) 0.04313(15)
H35 H 0.5110 1.1126 0.0614
C55 C 0.4290(3) 1.1869(3) -0.01034(14)
H36 H 0.4943 1.2166 -0.0280
C56 C 0.3216(3) 1.2042(3) -0.03741(14)
H37 H 0.3146 1.2460 -0.0733
C57 C 0.2241(3) 1.1596(3) -0.01127(13)
H38 H 0.1523 1.1714 -0.0299
C58 C 0.5989(3) 0.6757(3) 0.59161(15)
C59 C 0.6668(3) 0.6565(3) 0.54006(15)
C60 C 0.7827(3) 0.6905(3) 0.52690(18)
H39 H 0.8227 0.7326 0.5490
C61 C 0.8215(3) 0.6493(3) 0.47642(17)
H40 H 0.8935 0.6580 0.4572
C62 C 0.7311(3) 0.5896(3) 0.45766(15)
C63 C 0.7426(3) 0.5280(3) 0.40927(14)
C64 C 0.6613(3) 0.4607(3) 0.39292(14)
C65 C 0.6778(3) 0.3960(3) 0.34377(15)
H41 H 0.7415 0.3936 0.3171
C66 C 0.5839(3) 0.3397(3) 0.34363(15)
H42 H 0.5711 0.2909 0.3171
C67 C 0.4928(3) 0.6309(3) 0.60771(14)
C68 C 0.6425(3) 0.7482(3) 0.63224(16)
C69 C 0.6643(4) 0.8520(3) 0.61242(19)
H43 H 0.6516 0.8771 0.5731
C70 C 0.7047(4) 0.9178(4) 0.6506(2)
H44 H 0.7182 0.9871 0.6368
C71 C 0.7251(6) 0.8824(5) 0.7082(2)
H45 H 0.7531 0.9269 0.7336
C72 C 0.7039(6) 0.7801(5) 0.7286(2)
H46 H 0.7172 0.7558 0.7679
C73 C 0.6629(4) 0.7131(4) 0.69105(18)
H47 H 0.6491 0.6441 0.7054
C74 C 0.8553(4) 0.5270(5) 0.3740(2)
C75 C 0.9363(4) 0.4369(5) 0.3812(2)
H48 H 0.9205 0.3821 0.4097
C76 C 1.0392(4) 0.4263(5) 0.3472(2)
H49 H 1.0906 0.3647 0.3521
C77 C 1.0629(4) 0.5060(5) 0.3074(2)
H50 H 1.1325 0.4995 0.2850
C78 C 0.9900(4) 0.5955(5) 0.2984(2)
H51 H 1.0093 0.6495 0.2702
C79 C 0.8812(4) 0.6072(5) 0.3329(2)
H52 H 0.8300 0.6687 0.3271
Zn1A Zn 0.09372(3) 1.08023(3) 0.853976(13)
Zn2_2 Zn -0.5000 1.5000 0.5000
N1A N -0.0915(2) 1.1253(2) 0.59041(11)
N2A N 0.0261(2) 1.0797(2) 0.76570(10)
N3A N -0.3633(2) 1.3635(2) 0.54298(11)
N3A_2 N 0.6367(2) 0.3635(2) 0.54298(11)
N4A N -0.0590(2) 1.13004(19) 0.89906(10)
N5A N 0.1344(2) 1.23752(19) 0.84358(10)
N6A N 0.2679(2) 1.03286(19) 0.83488(10)
N7A N 0.0734(2) 0.92725(19) 0.89086(11)
N8A N 0.3628(2) 0.4032(2) 0.50336(12)
N9A N 0.4440(2) 0.5564(2) 0.57900(11)
C1A C -0.0430(3) 1.0613(3) 0.54504(13)
C2A C -0.0145(3) 1.1093(3) 0.48989(14)
H1A H -0.0246 1.1830 0.4829
C3A C -0.0288(3) 0.9512(3) 0.55515(14)
H2A H -0.0484 0.9181 0.5920
C4A C -0.0839(3) 1.1202(2) 0.75272(13)
H3A H -0.1346 1.1385 0.7838
C5A C -0.1260(3) 1.1363(2) 0.69627(13)
H4A H -0.2031 1.1650 0.6899
C6A C -0.0522(3) 1.1093(2) 0.64846(13)
C7A C 0.0614(3) 1.0653(3) 0.66163(14)
H5A H 0.1135 1.0444 0.6316
C8A C 0.0955(3) 1.0530(3) 0.71961(14)
H6A H 0.1721 1.0243 0.7273
C9A C -0.2746(3) 1.3828(3) 0.57550(14)
H7A H -0.2740 1.4507 0.5876
C10A C -0.1832(3) 1.3074(3) 0.59218(13)
H8A H -0.1228 1.3246 0.6148
C11A C -0.1832(3) 1.2058(2) 0.57465(12)
C12A C -0.2741(3) 1.1847(3) 0.54028(14)
H9A H -0.2766 1.1177 0.5272
C13A C -0.3611(3) 1.2661(3) 0.52585(15)
H10A H -0.4218 1.2516 0.5026
C14A C -0.1405(3) 1.0664(2) 0.92498(13)
C15A C -0.2383(3) 1.1318(3) 0.94848(14)
H11A H -0.3049 1.1080 0.9681
C16A C -0.2149(3) 1.2340(3) 0.93662(14)
H12A H -0.2626 1.2939 0.9463
C17A C -0.1020(3) 1.2332(2) 0.90606(12)
C18A C -0.0459(3) 1.3245(2) 0.88768(12)
C19A C 0.0649(3) 1.3257(2) 0.85911(12)
C20A C 0.1241(3) 1.4196(2) 0.84352(14)
H13A H 0.0953 1.4892 0.8491
C21A C 0.2297(3) 1.3875(3) 0.81920(14)
H14A H 0.2871 1.4310 0.8048
C22A C 0.2367(3) 1.2736(2) 0.81963(12)
C23A C 0.3375(2) 1.2086(2) 0.80377(12)
C24A C 0.3515(2) 1.0971(2) 0.81187(12)
C25A C 0.4576(3) 1.0314(3) 0.79850(13)
H15A H 0.5268 1.0551 0.7817
C26A C 0.4383(3) 0.9296(3) 0.81478(14)
H16A H 0.4917 0.8700 0.8117
C27A C 0.3191(3) 0.9304(2) 0.83788(12)
C28A C 0.2657(3) 0.8389(2) 0.86113(13)
C29A C 0.1502(3) 0.8392(2) 0.88422(13)
C30A C 0.0932(3) 0.7445(3) 0.90314(17)
H17A H 0.1265 0.6746 0.9029
C31A C -0.0168(3) 0.7760(3) 0.92115(16)
H18A H -0.0742 0.7321 0.9352
C32A C -0.0291(3) 0.8908(2) 0.91446(13)
C33A C -0.1298(3) 0.9551(2) 0.93037(13)
C34A C -0.1113(3) 1.4271(2) 0.90186(13)
C35A C -0.1170(3) 1.4559(3) 0.95934(15)
H19A H -0.0728 1.4150 0.9883
C36A C -0.1881(3) 1.5449(3) 0.97401(17)
H20A H -0.1911 1.5630 1.0128
C37A C -0.2538(3) 1.6064(3) 0.93210(19)
H21A H -0.3025 1.6654 0.9423
C38A C -0.2468(4) 1.5797(3) 0.8748(2)
H22A H -0.2904 1.6215 0.8459
C39A C -0.1756(3) 1.4911(3) 0.85962(16)
H23A H -0.1711 1.4746 0.8205
C40A C 0.4429(3) 1.2635(2) 0.78099(13)
C41A C 0.4410(3) 1.3272(3) 0.72748(14)
H24A H 0.3725 1.3378 0.7060
C42A C 0.5396(3) 1.3751(3) 0.70566(16)
H25A H 0.5372 1.4166 0.6696
C43A C 0.6411(3) 1.3610(3) 0.73768(17)
H26A H 0.7077 1.3923 0.7230
C44A C 0.6436(3) 1.3003(3) 0.79168(16)
H27A H 0.7115 1.2922 0.8137
C45A C 0.5454(3) 1.2513(3) 0.81314(14)
H28A H 0.5481 1.2101 0.8493
C46A C 0.3372(3) 0.7338(3) 0.86344(14)
C47A C 0.3616(3) 0.6761(3) 0.91750(16)
H29A H 0.3353 0.7046 0.9524
C48A C 0.4241(3) 0.5773(3) 0.92025(19)
H30A H 0.4390 0.5395 0.9568
C49A C 0.4647(3) 0.5342(3) 0.8690(2)
H31A H 0.5075 0.4678 0.8709
C50A C 0.4415(3) 0.5901(3) 0.81524(19)
H32A H 0.4688 0.5612 0.7806
C51A C 0.3779(3) 0.6888(3) 0.81213(16)
H33A H 0.3622 0.7256 0.7754
C52A C -0.2328(3) 0.9023(2) 0.95759(13)
C53A C -0.3417(3) 0.9184(3) 0.93056(14)
H34A H -0.3489 0.9589 0.8943
C54A C -0.4388(3) 0.8750(3) 0.95687(15)
H35A H -0.5110 0.8874 0.9386
C55A C -0.4290(3) 0.8131(3) 1.01034(14)
H36A H -0.4943 0.7834 1.0280
C56A C -0.3216(3) 0.7958(3) 1.03741(14)
H37A H -0.3146 0.7540 1.0733
C57A C -0.2241(3) 0.8404(3) 1.01127(13)
H38A H -0.1523 0.8286 1.0299
C58A C 0.4011(3) 0.3243(3) 0.40839(15)
C59A C 0.3332(3) 0.3435(3) 0.45994(15)
C60A C 0.2173(3) 0.3095(3) 0.47310(18)
H39A H 0.1773 0.2674 0.4510
C61A C 0.1785(3) 0.3507(3) 0.52358(17)
H40A H 0.1065 0.3420 0.5428
C62A C 0.2689(3) 0.4104(3) 0.54234(15)
C63A C 0.2574(3) 0.4720(3) 0.59073(14)
C64A C 0.3387(3) 0.5393(3) 0.60708(14)
C65A C 0.3222(3) 0.6040(3) 0.65623(15)
H41A H 0.2585 0.6064 0.6829
C66A C 0.4161(3) 0.6603(3) 0.65637(15)
H42A H 0.4289 0.7091 0.6829
C67A C 0.5072(3) 0.3691(3) 0.39229(14)
C68A C 0.3575(3) 0.2518(3) 0.36776(16)
C69A C 0.3357(4) 0.1480(3) 0.38758(19)
H43A H 0.3484 0.1229 0.4269
C70A C 0.2953(4) 0.0822(4) 0.3494(2)
H44A H 0.2818 0.0129 0.3632
C71A C 0.2749(6) 0.1176(5) 0.2918(2)
H45A H 0.2469 0.0731 0.2664
C72A C 0.2961(6) 0.2199(5) 0.2714(2)
H46A H 0.2828 0.2442 0.2321
C73A C 0.3371(4) 0.2869(4) 0.30895(18)
H47A H 0.3509 0.3559 0.2946
C74A C 0.1447(4) 0.4730(5) 0.6260(2)
C75A C 0.0637(4) 0.5631(5) 0.6188(2)
H48A H 0.0795 0.6179 0.5903
C76A C -0.0392(4) 0.5737(5) 0.6528(2)
H49A H -0.0906 0.6353 0.6479
C77A C -0.0629(4) 0.4940(5) 0.6926(2)
H50A H -0.1325 0.5005 0.7150
C78A C 0.0100(4) 0.4045(5) 0.7016(2)
H51A H -0.0093 0.3505 0.7298
C79A C 0.1188(4) 0.3928(5) 0.6671(2)
H52A H 0.1700 0.3313 0.6729
N10 N 0.6157(3) 0.9493(3) 0.39200(15)
O1 O 0.706(3) 0.9781(10) 0.4734(6)
C80 C 0.663(2) 0.9191(13) 0.4443(7)
H53 H 0.6620 0.8482 0.4591
C81 C 0.5783(6) 0.8676(5) 0.3597(3)
H54 H 0.6296 0.8587 0.3258
H55 H 0.4994 0.8874 0.3470
H56 H 0.5810 0.8020 0.3847
C82 C 0.6259(5) 1.0518(4) 0.3622(3)
H57 H 0.6768 1.0892 0.3837
H58 H 0.5497 1.0909 0.3598
H59 H 0.6582 1.0446 0.3230
C83? C 0.597(2) 0.9388(16) 0.4528(8)
H60? H 0.5776 0.8732 0.4702
O2? O 0.604(2) 1.0087(11) 0.4852(5)
loop_
_geom_bond_atom_site_label_1
_geom_bond_atom_site_label_2
_geom_bond_site_symmetry_1
_geom_bond_site_symmetry_2
Zn1 N2 1_555 1_555
Zn2 N3 1_555 1_555
N1 C1 1_555 1_555
N2 C4 1_555 1_555
N3 C9 1_555 1_555
N4 Zn1 1_555 1_555
N5 Zn1 1_555 1_555
N6 Zn1 1_555 1_555
N7 Zn1 1_555 1_555
N8 Zn2 1_555 1_555
N9 Zn2 1_555 1_555
N10 C80 1_555 1_555
O1 C80 1_555 1_555
C1 C2 1_555 1_555
C2 H1 1_555 1_555
C3 C1 1_555 1_555
H2 C3 1_555 1_555
C4 H3 1_555 1_555
C5 C4 1_555 1_555
H4 C5 1_555 1_555
C6 N1 1_555 1_555
C7 C6 1_555 1_555
H5 C7 1_555 1_555
C8 N2 1_555 1_555
H6 C8 1_555 1_555
C9 H7 1_555 1_555
C10 C9 1_555 1_555
H8 C10 1_555 1_555
C11 N1 1_555 1_555
C12 C11 1_555 1_555
H9 C12 1_555 1_555
C13 N3 1_555 1_555
H10 C13 1_555 1_555
C14 N4 1_555 1_555
C15 C14 1_555 1_555
H11 C15 1_555 1_555
C16 C15 1_555 1_555
H12 C16 1_555 1_555
C17 N4 1_555 1_555
C18 C17 1_555 1_555
C19 N5 1_555 1_555
C20 C19 1_555 1_555
H13 C20 1_555 1_555
C21 C20 1_555 1_555
H14 C21 1_555 1_555
C22 N5 1_555 1_555
C23 C22 1_555 1_555
C24 N6 1_555 1_555
C25 C24 1_555 1_555
H15 C25 1_555 1_555
C26 C25 1_555 1_555
H16 C26 1_555 1_555
C27 N6 1_555 1_555
C28 C27 1_555 1_555
C29 N7 1_555 1_555
C30 C29 1_555 1_555
H17 C30 1_555 1_555
C31 C30 1_555 1_555
H18 C31 1_555 1_555
C32 N7 1_555 1_555
C33 C14 1_555 1_555
C34 C18 1_555 1_555
C35 C34 1_555 1_555
H19 C35 1_555 1_555
C36 C35 1_555 1_555
H20 C36 1_555 1_555
C37 C36 1_555 1_555
H21 C37 1_555 1_555
C38 C37 1_555 1_555
H22 C38 1_555 1_555
C39 C34 1_555 1_555
H23 C39 1_555 1_555
C40 C23 1_555 1_555
C41 C40 1_555 1_555
H24 C41 1_555 1_555
C42 C41 1_555 1_555
H25 C42 1_555 1_555
C43 C42 1_555 1_555
H26 C43 1_555 1_555
C44 C43 1_555 1_555
H27 C44 1_555 1_555
C45 C40 1_555 1_555
H28 C45 1_555 1_555
C46 C28 1_555 1_555
C47 C46 1_555 1_555
H29 C47 1_555 1_555
C48 C47 1_555 1_555
H30 C48 1_555 1_555
C49 C48 1_555 1_555
H31 C49 1_555 1_555
C50 C49 1_555 1_555
H32 C50 1_555 1_555
C51 C46 1_555 1_555
H33 C51 1_555 1_555
C52 C33 1_555 1_555
C53 C52 1_555 1_555
H34 C53 1_555 1_555
C54 C53 1_555 1_555
H35 C54 1_555 1_555
C55 C54 1_555 1_555
H36 C55 1_555 1_555
C56 C55 1_555 1_555
H37 C56 1_555 1_555
C57 C52 1_555 1_555
H38 C57 1_555 1_555
C58 C59 1_555 1_555
C59 N8 1_555 1_555
C60 C59 1_555 1_555
H39 C60 1_555 1_555
C61 C60 1_555 1_555
H40 C61 1_555 1_555
C62 N8 1_555 1_555
C63 C62 1_555 1_555
C64 N9 1_555 1_555
C65 C64 1_555 1_555
H41 C65 1_555 1_555
C66 C65 1_555 1_555
H42 C66 1_555 1_555
C67 C58 1_555 1_555
C68 C58 1_555 1_555
C69 C68 1_555 1_555
H43 C69 1_555 1_555
C70 C69 1_555 1_555
H44 C70 1_555 1_555
C71 C70 1_555 1_555
H45 C71 1_555 1_555
C72 C71 1_555 1_555
H46 C72 1_555 1_555
C73 C68 1_555 1_555
H47 C73 1_555 1_555
C74 C63 1_555 1_555
C75 C74 1_555 1_555
H48 C75 1_555 1_555
C76 C75 1_555 1_555
H49 C76 1_555 1_555
C77 C76 1_555 1_555
H50 C77 1_555 1_555
C78 C77 1_555 1_555
H51 C78 1_555 1_555
C79 C74 1_555 1_555
H52 C79 1_555 1_555
C80 H53 1_555 1_555
C81 N10 1_555 1_555
H54 C81 1_555 1_555
H55 C81 1_555 1_555
H56 C81 1_555 1_555
C82 N10 1_555 1_555
H57 C82 1_555 1_555
H58 C82 1_555 1_555
H59 C82 1_555 1_555
Zn1A N2A 1_555 1_555
Zn2_2 N3A 1_555 1_555
N1A C1A 1_555 1_555
N2A C4A 1_555 1_555
N3A C9A 1_555 1_555
N3A_2 Zn2 1_555 1_555
N4A Zn1A 1_555 1_555
N5A Zn1A 1_555 1_555
N6A Zn1A 1_555 1_555
N7A Zn1A 1_555 1_555
N8A Zn2 1_555 1_555
N9A Zn2 1_555 1_555
C1A C2A 1_555 1_555
C2A C3 1_555 1_555
H1A C2A 1_555 1_555
C3A C2 1_555 1_555
H2A C3A 1_555 1_555
C4A H3A 1_555 1_555
C5A C4A 1_555 1_555
H4A C5A 1_555 1_555
C6A N1A 1_555 1_555
C7A C6A 1_555 1_555
H5A C7A 1_555 1_555
C8A N2A 1_555 1_555
H6A C8A 1_555 1_555
C9A H7A 1_555 1_555
C10A C9A 1_555 1_555
H8A C10A 1_555 1_555
C11A N1A 1_555 1_555
C12A C11A 1_555 1_555
H9A C12A 1_555 1_555
C13A N3A 1_555 1_555
H10A C13A 1_555 1_555
C14A N4A 1_555 1_555
C15A C14A 1_555 1_555
H11A C15A 1_555 1_555
C16A C15A 1_555 1_555
H12A C16A 1_555 1_555
C17A N4A 1_555 1_555
C18A C17A 1_555 1_555
C19A N5A 1_555 1_555
C20A C19A 1_555 1_555
H13A C20A 1_555 1_555
C21A C20A 1_555 1_555
H14A C21A 1_555 1_555
C22A N5A 1_555 1_555
C23A C22A 1_555 1_555
C24A N6A 1_555 1_555
C25A C24A 1_555 1_555
H15A C25A 1_555 1_555
C26A C25A 1_555 1_555
H16A C26A 1_555 1_555
C27A N6A 1_555 1_555
C28A C27A 1_555 1_555
C29A N7A 1_555 1_555
C30A C29A 1_555 1_555
H17A C30A 1_555 1_555
C31A C30A 1_555 1_555
H18A C31A 1_555 1_555
C32A N7A 1_555 1_555
C33A C14A 1_555 1_555
C34A C18A 1_555 1_555
C35A C34A 1_555 1_555
H19A C35A 1_555 1_555
C36A C35A 1_555 1_555
H20A C36A 1_555 1_555
C37A C36A 1_555 1_555
H21A C37A 1_555 1_555
C38A C37A 1_555 1_555
H22A C38A 1_555 1_555
C39A C34A 1_555 1_555
H23A C39A 1_555 1_555
C40A C23A 1_555 1_555
C41A C40A 1_555 1_555
H24A C41A 1_555 1_555
C42A C41A 1_555 1_555
H25A C42A 1_555 1_555
C43A C42A 1_555 1_555
H26A C43A 1_555 1_555
C44A C43A 1_555 1_555
H27A C44A 1_555 1_555
C45A C40A 1_555 1_555
H28A C45A 1_555 1_555
C46A C28A 1_555 1_555
C47A C46A 1_555 1_555
H29A C47A 1_555 1_555
C48A C47A 1_555 1_555
H30A C48A 1_555 1_555
C49A C48A 1_555 1_555
H31A C49A 1_555 1_555
C50A C49A 1_555 1_555
H32A C50A 1_555 1_555
C51A C46A 1_555 1_555
H33A C51A 1_555 1_555
C52A C33A 1_555 1_555
C53A C52A 1_555 1_555
H34A C53A 1_555 1_555
C54A C53A 1_555 1_555
H35A C54A 1_555 1_555
C55A C54A 1_555 1_555
H36A C55A 1_555 1_555
C56A C55A 1_555 1_555
H37A C56A 1_555 1_555
C57A C52A 1_555 1_555
H38A C57A 1_555 1_555
C58A C59A 1_555 1_555
C59A N8A 1_555 1_555
C60A C59A 1_555 1_555
H39A C60A 1_555 1_555
C61A C60A 1_555 1_555
H40A C61A 1_555 1_555
C62A N8A 1_555 1_555
C63A C62A 1_555 1_555
C64A N9A 1_555 1_555
C65A C64A 1_555 1_555
H41A C65A 1_555 1_555
C66A C67 1_555 1_555
H42A C66A 1_555 1_555
C67A N9 1_555 1_555
C68A C58A 1_555 1_555
C69A C68A 1_555 1_555
H43A C69A 1_555 1_555
C70A C69A 1_555 1_555
H44A C70A 1_555 1_555
C71A C70A 1_555 1_555
H45A C71A 1_555 1_555
C72A C71A 1_555 1_555
H46A C72A 1_555 1_555
C73A C68A 1_555 1_555
H47A C73A 1_555 1_555
C74A C63A 1_555 1_555
C75A C74A 1_555 1_555
H48A C75A 1_555 1_555
C76A C75A 1_555 1_555
H49A C76A 1_555 1_555
C77A C76A 1_555 1_555
H50A C77A 1_555 1_555
C78A C77A 1_555 1_555
H51A C78A 1_555 1_555
C79A C74A 1_555 1_555
H52A C79A 1_555 1_555
C5 C6 1_555 1_555
C7 C8 1_555 1_555
C10 C11 1_555 1_555
C12 C13 1_555 1_555
C16 C17 1_555 1_555
C18 C19 1_555 1_555
C21 C22 1_555 1_555
C23 C24 1_555 1_555
C26 C27 1_555 1_555
C28 C29 1_555 1_555
C31 C32 1_555 1_555
C32 C33 1_555 1_555
C38 C39 1_555 1_555
C44 C45 1_555 1_555
C50 C51 1_555 1_555
C56 C57 1_555 1_555
C61 C62 1_555 1_555
C63 C64 1_555 1_555
C66 C67A 1_555 1_555
C67 N9A 1_555 1_555
C72 C73 1_555 1_555
C78 C79 1_555 1_555
C1A C3A 1_555 1_555
C5A C6A 1_555 1_555
C7A C8A 1_555 1_555
C10A C11A 1_555 1_555
C12A C13A 1_555 1_555
C16A C17A 1_555 1_555
C18A C19A 1_555 1_555
C21A C22A 1_555 1_555
C23A C24A 1_555 1_555
C26A C27A 1_555 1_555
C28A C29A 1_555 1_555
C31A C32A 1_555 1_555
C32A C33A 1_555 1_555
C38A C39A 1_555 1_555
C44A C45A 1_555 1_555
C50A C51A 1_555 1_555
C56A C57A 1_555 1_555
C58A C67A 1_555 1_555
C61A C62A 1_555 1_555
C63A C64A 1_555 1_555
C65A C66A 1_555 1_555
C72A C73A 1_555 1_555
C78A C79A 1_555 1_555

#END
