
#######################################################################
#
#                 Cambridge Crystallographic Data Centre
#                                CCDC 
#
#######################################################################
#
# If this CIF has been generated from an entry in the Cambridge 
# Structural Database, then it will include bibliographic, chemical, 
# crystal, experimental, refinement or atomic coordinate data resulting 
# from the CCDC's data processing and validation procedures.
#
#######################################################################

data_FUYXON
_symmetry_cell_setting           monoclinic
_symmetry_space_group_name_H-M   'P 21/c'
_symmetry_Int_Tables_number      14
_space_group_name_Hall           '-P 2ybc'
loop_
_symmetry_equiv_pos_site_id
_symmetry_equiv_pos_as_xyz
1 x,y,z
2 -x,1/2+y,1/2-z
3 -x,-y,-z
4 x,1/2-y,1/2+z
_cell_length_a                   13.869(2)
_cell_length_b                   11.316(3)
_cell_length_c                   29.256(2)
_cell_angle_alpha                90
_cell_angle_beta                 103.035(4)
_cell_angle_gamma                90
_cell_volume                     4473.17
loop_
_atom_site_label
_atom_site_type_symbol
_atom_site_fract_x
_atom_site_fract_y
_atom_site_fract_z
Zn1 Zn 1.04390(4) 0.38086(4) 0.421273(18)
Zn2 Zn 0.64812(4) 0.10307(5) 0.223190(17)
Zn3 Zn 1.22006(4) 0.49134(4) 0.360520(17)
C1 C 0.2710(8) 0.1136(7) 0.5373(5)
C2 C 0.3698(5) 0.1366(5) 0.5258(3)
C3 C 0.3839(4) 0.1423(5) 0.4806(2)
H1 H 0.3298 0.1378 0.4552
C4 C 0.4778(4) 0.1548(5) 0.47293(19)
C5 C 0.5577(4) 0.1608(5) 0.51093(19)
C6 C 0.5425(5) 0.1588(5) 0.5561(2)
H2 H 0.5959 0.1653 0.5817
C7 C 0.4493(6) 0.1473(6) 0.5629(2)
H3 H 0.4395 0.1467 0.5933
C8 C 0.4350(4) 0.1744(6) 0.39045(19)
H4 H 0.4004 0.2490 0.3902
H5 H 0.3870 0.1108 0.3871
C9 C 0.4883(4) 0.1706(5) 0.35145(18)
C10 C 0.4515(5) 0.2211(6) 0.3088(2)
H6 H 0.3931 0.2645 0.3041
C11 C 0.4994(4) 0.2089(6) 0.2724(2)
H7 H 0.4725 0.2448 0.2438
C12 C 0.6179(5) 0.0998(7) 0.3199(2)
H8 H 0.6777 0.0592 0.3250
C13 C 0.5713(5) 0.1074(6) 0.35612(19)
H9 H 0.5973 0.0684 0.3842
C14 C 0.7346(4) 0.1935(5) 0.53271(18)
H10 H 0.7573 0.1231 0.5509
H11 H 0.7227 0.2550 0.5538
C15 C 0.8095(4) 0.2328(4) 0.50686(17)
C16 C 0.7922(4) 0.2321(7) 0.4598(2)
H12 H 0.7311 0.2068 0.4424
C17 C 0.8637(4) 0.2683(7) 0.4371(2)
H13 H 0.8508 0.2614 0.4046
C18 C 0.9645(4) 0.3200(5) 0.50564(18)
H14 H 1.0229 0.3540 0.5223
C19 C 0.8966(5) 0.2794(5) 0.53002(19)
H15 H 0.9109 0.2841 0.5626
C20 C 0.9872(4) 0.5484(4) 0.36217(17)
C21 C 0.9355(3) 0.6444(4) 0.33079(17)
C22 C 0.8517(4) 0.6951(6) 0.3394(2)
H16 H 0.8263 0.6681 0.3643
C23 C 0.8045(5) 0.7857(6) 0.3115(2)
H17 H 0.7476 0.8194 0.3177
C24 C 0.8418(3) 0.8265(4) 0.27432(15)
C25 C 0.9259(4) 0.7759(5) 0.26593(16)
H18 H 0.9518 0.8035 0.2412
C26 C 0.9728(3) 0.6848(5) 0.29352(16)
H19 H 1.0293 0.6505 0.2871
C27 C 0.7900(4) 0.9240(4) 0.24370(16)
C28 C 1.2360(4) -0.2479(4) 0.32284(17)
C29 C 1.2023(4) -0.1239(4) 0.32965(16)
C30 C 1.2380(4) -0.0289(4) 0.3097(2)
H20 H 1.2779 -0.0415 0.2885
C31 C 1.2157(4) 0.0864(4) 0.3206(2)
H21 H 1.2413 0.1501 0.3072
C32 C 1.1557(4) 0.1054(4) 0.35148(17)
C33 C 1.1137(4) 0.0100(4) 0.36911(19)
H22 H 1.0694 0.0223 0.3882
C34 C 1.1375(5) -0.1045(4) 0.35831(19)
H23 H 1.1094 -0.1685 0.3705
C35 C 1.1410(4) 0.2285(4) 0.36777(18)
C36 C 1.5469(4) 0.4780(4) 0.63741(16)
C37 C 1.4608(3) 0.4866(4) 0.59618(15)
C38 C 1.3712(4) 0.4302(5) 0.59625(16)
H24 H 1.3619 0.3939 0.6235
C39 C 1.2963(3) 0.4281(5) 0.55605(16)
H25 H 1.2368 0.3903 0.5562
C40 C 1.3097(3) 0.4822(4) 0.51565(15)
C41 C 1.3959(3) 0.5434(4) 0.51590(15)
H26 H 1.4035 0.5833 0.4891
C42 C 1.4721(3) 0.5453(5) 0.55660(15)
H27 H 1.5303 0.5863 0.5568
C43 C 1.2332(3) 0.4704(4) 0.46965(16)
N1 N 0.5828(3) 0.1474(4) 0.27707(14)
N2 N 0.9495(3) 0.3122(4) 0.45911(14)
O1 O 0.2013(5) 0.0975(6) 0.5005(3)
H28 H 0.1490 0.0854 0.5083
O2 O 0.2643(5) 0.1081(6) 0.5794(3)
O3 O 0.5046(3) 0.1621(4) 0.43090(12)
O4 O 0.6470(3) 0.1691(4) 0.49834(12)
O5 O 0.9468(3) 0.5069(3) 0.39279(15)
O6 O 1.0670(3) 0.5117(4) 0.35883(14)
O7 O 0.7120(3) 0.9615(3) 0.25299(12)
O8 O 0.8272(3) 0.9647(3) 0.21201(12)
O9 O 1.2737(3) -0.2631(3) 0.28708(13)
O10 O 1.2280(3) -0.3245(3) 0.35222(11)
O11 O 1.2046(2) 0.3047(3) 0.36517(14)
O12 O 1.0658(3) 0.2429(3) 0.38492(13)
O13 O 1.5344(3) 0.4148(4) 0.67174(11)
O14 O 1.6257(2) 0.5296(3) 0.63667(11)
O15 O 1.1543(2) 0.4195(3) 0.47255(11)
O16 O 1.2539(3) 0.5113(3) 0.43353(10)
Zn2_2 Zn 0.64812(4) 1.10307(5) 0.223190(17)
Zn2A Zn 1.35188(4) -0.39693(5) 0.276810(17)
Zn2C Zn 1.64812(4) 0.39693(5) 0.723190(17)
Zn3A Zn 0.77994(4) 0.99134(4) 0.139480(17)
Zn3_2 Zn 1.22006(4) -0.50866(4) 0.360520(17)
Zn3B Zn 1.77994(4) 0.50866(4) 0.639480(17)
O7_2 O 0.7120(3) -0.0385(3) 0.25299(12)
O8A O 1.1728(3) 0.4647(3) 0.28799(12)
O9A O 0.7263(3) 0.2369(3) 0.21292(13)
O10_2 O 1.2280(3) 0.6755(3) 0.35222(11)
O13C O 0.5344(3) 0.0852(4) 0.17174(11)
O14B O 1.3743(2) 0.4704(3) 0.36333(11)
loop_
_geom_bond_atom_site_label_1
_geom_bond_atom_site_label_2
_geom_bond_site_symmetry_1
_geom_bond_site_symmetry_2
Zn1 N2 1_555 1_555
Zn2 N1 1_555 1_555
Zn3 O6 1_555 1_555
C1 C2 1_555 1_555
C2 C3 1_555 1_555
C3 H1 1_555 1_555
C4 C3 1_555 1_555
C5 C4 1_555 1_555
C6 C5 1_555 1_555
H2 C6 1_555 1_555
C7 C2 1_555 1_555
H3 C7 1_555 1_555
C8 H4 1_555 1_555
H5 C8 1_555 1_555
C9 C8 1_555 1_555
C10 C9 1_555 1_555
H6 C10 1_555 1_555
C11 C10 1_555 1_555
H7 C11 1_555 1_555
C12 H8 1_555 1_555
C13 C9 1_555 1_555
H9 C13 1_555 1_555
C14 H10 1_555 1_555
H11 C14 1_555 1_555
C15 C14 1_555 1_555
C16 C15 1_555 1_555
H12 C16 1_555 1_555
C17 C16 1_555 1_555
H13 C17 1_555 1_555
C18 H14 1_555 1_555
C19 C15 1_555 1_555
H15 C19 1_555 1_555
C20 C21 1_555 1_555
C21 C22 1_555 1_555
C22 H16 1_555 1_555
C23 C22 1_555 1_555
H17 C23 1_555 1_555
C24 C23 1_555 1_555
C25 C24 1_555 1_555
H18 C25 1_555 1_555
C26 C21 1_555 1_555
H19 C26 1_555 1_555
C27 C24 1_555 1_555
C28 C29 1_555 1_555
C29 C30 1_555 1_555
C30 H20 1_555 1_555
C31 C30 1_555 1_555
H21 C31 1_555 1_555
C32 C31 1_555 1_555
C33 C32 1_555 1_555
H22 C33 1_555 1_555
C34 C29 1_555 1_555
H23 C34 1_555 1_555
C35 C32 1_555 1_555
C36 C37 1_555 1_555
C37 C38 1_555 1_555
C38 H24 1_555 1_555
C39 C38 1_555 1_555
H25 C39 1_555 1_555
C40 C39 1_555 1_555
C41 C40 1_555 1_555
H26 C41 1_555 1_555
C42 C37 1_555 1_555
H27 C42 1_555 1_555
C43 C40 1_555 1_555
N1 C11 1_555 1_555
N2 C17 1_555 1_555
O1 C1 1_555 1_555
H28 O1 1_555 1_555
O2 C1 1_555 1_555
O3 C4 1_555 1_555
O4 C5 1_555 1_555
O5 Zn1 1_555 1_555
O6 Zn1 1_555 1_555
O7 C27 1_555 1_555
O8 C27 1_555 1_555
O9 C28 1_555 1_555
O10 C28 1_555 1_555
O11 Zn3 1_555 1_555
O12 Zn1 1_555 1_555
O13 C36 1_555 1_555
O14 C36 1_555 1_555
O15 Zn1 1_555 1_555
O16 Zn3 1_555 1_555
Zn2_2 O7 1_555 1_555
Zn2A O9 1_555 1_555
Zn2C O13 1_555 1_555
Zn3A O8 1_555 1_555
Zn3_2 O10 1_555 1_555
Zn3B O14 1_555 1_555
O7_2 Zn2 1_555 1_555
O8A Zn3 1_555 1_555
O9A Zn2 1_555 1_555
O10_2 Zn3 1_555 1_555
O13C Zn2 1_555 1_555
O14B Zn3 1_555 1_555
C6 C7 1_555 1_555
C8 O3 1_555 1_555
C12 C13 1_555 1_555
C12 N1 1_555 1_555
C14 O4 1_555 1_555
C18 C19 1_555 1_555
C18 N2 1_555 1_555
C20 O5 1_555 1_555
C20 O6 1_555 1_555
C25 C26 1_555 1_555
C33 C34 1_555 1_555
C35 O11 1_555 1_555
C35 O12 1_555 1_555
C41 C42 1_555 1_555
C43 O15 1_555 1_555
C43 O16 1_555 1_555

#END
