
#######################################################################
#
#                 Cambridge Crystallographic Data Centre
#                                CCDC 
#
#######################################################################
#
# If this CIF has been generated from an entry in the Cambridge 
# Structural Database, then it will include bibliographic, chemical, 
# crystal, experimental, refinement or atomic coordinate data resulting 
# from the CCDC's data processing and validation procedures.
#
#######################################################################

data_FUZBAE
_symmetry_cell_setting           monoclinic
_symmetry_space_group_name_H-M   'P 21/c'
_symmetry_Int_Tables_number      14
_space_group_name_Hall           '-P 2ybc'
loop_
_symmetry_equiv_pos_site_id
_symmetry_equiv_pos_as_xyz
1 x,y,z
2 -x,1/2+y,1/2-z
3 -x,-y,-z
4 x,1/2-y,1/2+z
_cell_length_a                   24.801(3)
_cell_length_b                   14.7820(17)
_cell_length_c                   14.3961(18)
_cell_angle_alpha                90
_cell_angle_beta                 90.427(3)
_cell_angle_gamma                90
_cell_volume                     5277.58
loop_
_atom_site_label
_atom_site_type_symbol
_atom_site_fract_x
_atom_site_fract_y
_atom_site_fract_z
Cu1 Cu 0.920796(10) 0.416230(17) 0.701009(17)
N1 N 0.95382(7) 0.28926(13) 0.70735(14)
N2 N 0.92287(8) 0.41320(13) 0.84313(13)
N3 N 0.85392(8) 0.49651(13) 0.71516(14)
N4 N 1.00745(9) 0.49860(14) 0.32000(14)
N5 N 0.91264(9) 0.41137(15) 0.56391(14)
N6 N 0.93463(8) 0.41677(15) 0.39948(13)
C1 C 0.99674(11) 0.27265(19) 0.6377(2)
H1 H 1.0242 0.3201 0.6427
H2 H 0.9809 0.2733 0.5752
H3 H 1.0134 0.2136 0.6495
C2 C 0.91028(10) 0.22211(16) 0.69178(19)
H4 H 0.8953 0.2297 0.6291
H5 H 0.8818 0.2313 0.7376
H6 H 0.9250 0.1609 0.6984
C3 C 0.97755(10) 0.28231(16) 0.80131(19)
H7 H 1.0115 0.3174 0.8045
H8 H 0.9859 0.2183 0.8156
C4 C 0.93796(11) 0.31885(17) 0.87133(17)
H9 H 0.9054 0.2801 0.8730
H10 H 0.9546 0.3193 0.9341
C5 C 0.96252(10) 0.47793(17) 0.88262(17)
H11 H 0.9557 0.5384 0.8573
H12 H 0.9991 0.4587 0.8664
H13 H 0.9590 0.4795 0.9504
C6 C 0.86764(11) 0.4374(2) 0.87262(18)
H14 H 0.8677 0.4531 0.9395
H15 H 0.8431 0.3854 0.8630
C7 C 0.84857(12) 0.5170(2) 0.8160(2)
H16 H 0.8104 0.5302 0.8305
H17 H 0.8703 0.5710 0.8319
C8 C 0.85636(14) 0.58267(19) 0.6631(2)
H18 H 0.8604 0.5699 0.5967
H19 H 0.8872 0.6183 0.6852
H20 H 0.8230 0.6169 0.6730
C9 C 0.80695(10) 0.44311(19) 0.6825(2)
H21 H 0.7739 0.4781 0.6917
H22 H 0.8049 0.3866 0.7178
H23 H 0.8110 0.4293 0.6163
C10 C 0.97444(9) 0.46263(15) 0.36227(15)
C11 C 0.92528(9) 0.41697(15) 0.48765(15)
Cu1B Cu 1.079204(10) 0.583770(17) 0.298991(17)
N1B N 1.04618(7) 0.71074(13) 0.29265(14)
N2B N 1.07713(8) 0.58680(13) 0.15687(13)
N3B N 1.14608(8) 0.50349(13) 0.28484(14)
N4B N 0.99255(9) 0.50140(14) 0.68000(14)
N5B N 1.08736(9) 0.58863(15) 0.43609(14)
N6B N 1.06537(8) 0.58323(15) 0.60052(13)
C1B C 1.00326(11) 0.72735(19) 0.3623(2)
H1B H 0.9758 0.6799 0.3573
H2B H 1.0191 0.7267 0.4248
H3B H 0.9866 0.7864 0.3505
C2B C 1.08972(10) 0.77789(16) 0.30822(19)
H4B H 1.1047 0.7703 0.3709
H5B H 1.1182 0.7687 0.2624
H6B H 1.0750 0.8391 0.3016
C3B C 1.02245(10) 0.71769(16) 0.19869(19)
H7B H 0.9885 0.6826 0.1955
H8B H 1.0141 0.7817 0.1844
C4B C 1.06204(11) 0.68115(17) 0.12867(17)
H9B H 1.0946 0.7199 0.1270
H10B H 1.0454 0.6807 0.0659
C5B C 1.03748(10) 0.52207(17) 0.11738(17)
H11B H 1.0443 0.4616 0.1427
H12B H 1.0009 0.5413 0.1336
H13B H 1.0410 0.5205 0.0496
C6B C 1.13236(11) 0.5626(2) 0.12738(18)
H14B H 1.1323 0.5469 0.0605
H15B H 1.1569 0.6146 0.1370
C7B C 1.15143(12) 0.4830(2) 0.1840(2)
H16B H 1.1896 0.4698 0.1695
H17B H 1.1297 0.4290 0.1681
C8B C 1.14364(14) 0.41733(19) 0.3369(2)
H18B H 1.1396 0.4301 0.4033
H19B H 1.1128 0.3817 0.3148
H20B H 1.1770 0.3831 0.3270
C9B C 1.19305(10) 0.55689(19) 0.3175(2)
H21B H 1.2261 0.5219 0.3083
H22B H 1.1951 0.6134 0.2822
H23B H 1.1890 0.5707 0.3837
C10B C 1.02556(9) 0.53737(15) 0.63773(15)
C11B C 1.07472(9) 0.58303(15) 0.51235(15)
Cu2 Cu 0.258505(10) 0.395481(17) 0.763263(17)
Cu3 Cu 0.401692(10) -0.068444(16) 0.775398(17)
N7 N 0.31220(7) 0.35047(13) 0.86502(12)
N8 N 0.24005(7) 0.49640(11) 0.85414(12)
N9 N 0.18521(8) 0.42487(13) 0.70135(13)
N10 N 0.31328(9) 0.47023(17) 0.67794(15)
N11 N 0.37158(9) 0.55511(17) 0.57272(14)
N12 N 0.26485(9) 0.28003(14) 0.69591(14)
N13 N 0.27416(8) 0.12198(13) 0.64885(14)
N14 N 0.33894(8) 0.01069(12) 0.70948(14)
N15 N 0.37838(10) 0.54894(16) 0.40344(15)
N16 N 0.36841(9) -0.19589(13) 0.7763(2)
N17 N 0.43998(9) -0.10811(19) 0.65720(14)
N18 N 0.46123(8) 0.02696(15) 0.78888(15)
C12 C 0.29248(10) 0.26731(16) 0.91144(16)
H24 H 0.2912 0.2176 0.8665
H25 H 0.2563 0.2781 0.9359
H26 H 0.3170 0.2514 0.9626
C13 C 0.36669(9) 0.3322(2) 0.82688(17)
H27 H 0.3913 0.3155 0.8776
H28 H 0.3802 0.3867 0.7959
H29 H 0.3645 0.2825 0.7820
C14 C 0.31560(9) 0.42563(17) 0.93386(16)
H30 H 0.3408 0.4726 0.9115
H31 H 0.3294 0.4023 0.9940
C15 C 0.26006(9) 0.46608(15) 0.94661(14)
H32 H 0.2353 0.4203 0.9729
H33 H 0.2620 0.5180 0.9899
C16 C 0.26439(12) 0.58556(16) 0.82997(17)
H34 H 0.2525 0.6035 0.7676
H35 H 0.3038 0.5806 0.8314
H36 H 0.2529 0.6312 0.8750
C17 C 0.18057(9) 0.50460(15) 0.85029(15)
H37 H 0.1690 0.5609 0.8817
H38 H 0.1637 0.4526 0.8823
C18 C 0.16315(10) 0.50639(17) 0.74910(16)
H39 H 0.1233 0.5065 0.7446
H40 H 0.1768 0.5620 0.7189
C19 C 0.19027(13) 0.4422(2) 0.60053(17)
H41 H 0.2063 0.3893 0.5704
H42 H 0.2133 0.4951 0.5907
H43 H 0.1545 0.4537 0.5737
C20 C 0.14801(11) 0.3474(2) 0.7155(2)
H44 H 0.1124 0.3624 0.6898
H45 H 0.1449 0.3349 0.7821
H46 H 0.1622 0.2938 0.6839
C21 C 0.33937(10) 0.50716(19) 0.62417(16)
C22 C 0.27139(9) 0.20542(15) 0.67632(14)
C23 C 0.31006(8) 0.06647(14) 0.68414(15)
C24 C 0.37265(11) 0.54810(19) 0.48279(18)
C25 C 0.30876(12) -0.1917(2) 0.7867(3)
H47 H 0.2933 -0.1536 0.7376
H48 H 0.3000 -0.1659 0.8475
H49 H 0.2937 -0.2529 0.7821
C26 C 0.39167(13) -0.24995(18) 0.8540(3)
H50 H 0.3814 -0.2227 0.9133
H51 H 0.4311 -0.2508 0.8491
H52 H 0.3779 -0.3120 0.8507
C27 C 0.38205(16) -0.2375(2) 0.6863(3)
H53 H 0.3557 -0.2182 0.6382
H54 H 0.3805 -0.3042 0.6915
C28 C 0.43791(16) -0.2086(3) 0.6590(2)
H55 H 0.4647 -0.2323 0.7042
H56 H 0.4467 -0.2331 0.5969
C29 C 0.41496(15) -0.0726(3) 0.56914(18)
H57 H 0.4365 -0.0920 0.5159
H58 H 0.4139 -0.0063 0.5713
H59 H 0.3782 -0.0961 0.5627
C30 C 0.49570(11) -0.0700(3) 0.6675(2)
H60 H 0.5142 -0.0711 0.6068
H61 H 0.5169 -0.1069 0.7119
C31 C 0.49169(11) 0.0263(3) 0.7023(2)
H62 H 0.5282 0.0512 0.7133
H63 H 0.4733 0.0644 0.6553
C32 C 0.49700(13) 0.0029(2) 0.8691(2)
H64 H 0.5119 -0.0578 0.8597
H65 H 0.4761 0.0039 0.9266
H66 H 0.5265 0.0468 0.8737
C33 C 0.43810(14) 0.11874(17) 0.8064(2)
H67 H 0.4674 0.1625 0.8144
H68 H 0.4163 0.1172 0.8629
H69 H 0.4154 0.1367 0.7535
Cu3C Cu 0.401692(10) 0.568444(16) 0.275398(17)
N15C N 0.37838(10) -0.04894(16) 0.90344(15)
Cl1 Cl 0.22758(2) 0.74032(4) 0.55297(4)
O1 O 0.18670(9) 0.76111(18) 0.48572(15)
O2 O 0.26371(10) 0.81512(18) 0.55730(18)
O3 O 0.20378(8) 0.72755(15) 0.64271(14)
O4 O 0.25558(14) 0.6610(2) 0.5280(2)
Cl2 Cl 0.55962(2) 0.75588(4) 0.92593(4)
O5 O 0.60452(12) 0.6983(2) 0.90737(19)
O6 O 0.57979(13) 0.83280(16) 0.96946(19)
O7 O 0.53346(8) 0.77893(15) 0.83988(12)
O12 O 0.5202(4) 0.7330(18) 0.9940(5)
Cl3 Cl 0.10396(2) 0.29596(4) 0.97870(4)
O8 O 0.08114(7) 0.37495(14) 0.93482(15)
O9 O 0.15725(8) 0.28042(14) 0.94356(18)
O10 O 0.07041(8) 0.21945(14) 0.96011(15)
O11 O 0.10600(9) 0.31164(14) 1.07730(14)
O13? O 0.5283(4) 0.6847(6) 0.9615(12)
loop_
_geom_bond_atom_site_label_1
_geom_bond_atom_site_label_2
_geom_bond_site_symmetry_1
_geom_bond_site_symmetry_2
Cu1 N1 1_555 1_555
Cu2 N7 1_555 1_555
Cu3 N14 1_555 1_555
Cl1 O1 1_555 1_555
Cl2 O5 1_555 1_555
Cl3 O8 1_555 1_555
N1 C1 1_555 1_555
N2 Cu1 1_555 1_555
N3 Cu1 1_555 1_555
N4 C10 1_555 1_555
N5 Cu1 1_555 1_555
N6 C10 1_555 1_555
N7 C12 1_555 1_555
N8 Cu2 1_555 1_555
N9 Cu2 1_555 1_555
N10 Cu2 1_555 1_555
N11 C21 1_555 1_555
N12 Cu2 1_555 1_555
N13 C22 1_555 1_555
N14 C23 1_555 1_555
N15 C24 1_555 1_555
N16 Cu3 1_555 1_555
N17 Cu3 1_555 1_555
N18 Cu3 1_555 1_555
O2 Cl1 1_555 1_555
O3 Cl1 1_555 1_555
O4 Cl1 1_555 1_555
O6 Cl2 1_555 1_555
O7 Cl2 1_555 1_555
O9 Cl3 1_555 1_555
O10 Cl3 1_555 1_555
O11 Cl3 1_555 1_555
O12 Cl2 1_555 1_555
C1 H1 1_555 1_555
H2 C1 1_555 1_555
H3 C1 1_555 1_555
C2 N1 1_555 1_555
H4 C2 1_555 1_555
H5 C2 1_555 1_555
H6 C2 1_555 1_555
C3 N1 1_555 1_555
H7 C3 1_555 1_555
H8 C3 1_555 1_555
C4 N2 1_555 1_555
H9 C4 1_555 1_555
H10 C4 1_555 1_555
C5 N2 1_555 1_555
H11 C5 1_555 1_555
H12 C5 1_555 1_555
H13 C5 1_555 1_555
C6 N2 1_555 1_555
H14 C6 1_555 1_555
H15 C6 1_555 1_555
C7 N3 1_555 1_555
H16 C7 1_555 1_555
H17 C7 1_555 1_555
C8 N3 1_555 1_555
H18 C8 1_555 1_555
H19 C8 1_555 1_555
H20 C8 1_555 1_555
C9 N3 1_555 1_555
H21 C9 1_555 1_555
H22 C9 1_555 1_555
H23 C9 1_555 1_555
C11 N5 1_555 1_555
C12 H24 1_555 1_555
H25 C12 1_555 1_555
H26 C12 1_555 1_555
C13 N7 1_555 1_555
H27 C13 1_555 1_555
H28 C13 1_555 1_555
H29 C13 1_555 1_555
C14 N7 1_555 1_555
H30 C14 1_555 1_555
H31 C14 1_555 1_555
C15 N8 1_555 1_555
H32 C15 1_555 1_555
H33 C15 1_555 1_555
C16 N8 1_555 1_555
H34 C16 1_555 1_555
H35 C16 1_555 1_555
H36 C16 1_555 1_555
C17 N8 1_555 1_555
H37 C17 1_555 1_555
H38 C17 1_555 1_555
C18 N9 1_555 1_555
H39 C18 1_555 1_555
H40 C18 1_555 1_555
C19 N9 1_555 1_555
H41 C19 1_555 1_555
H42 C19 1_555 1_555
H43 C19 1_555 1_555
C20 N9 1_555 1_555
H44 C20 1_555 1_555
H45 C20 1_555 1_555
H46 C20 1_555 1_555
C21 N10 1_555 1_555
C22 N12 1_555 1_555
C23 N13 1_555 1_555
C24 N11 1_555 1_555
C25 N16 1_555 1_555
H47 C25 1_555 1_555
H48 C25 1_555 1_555
H49 C25 1_555 1_555
C26 N16 1_555 1_555
H50 C26 1_555 1_555
H51 C26 1_555 1_555
H52 C26 1_555 1_555
C27 N16 1_555 1_555
H53 C27 1_555 1_555
H54 C27 1_555 1_555
C28 N17 1_555 1_555
H55 C28 1_555 1_555
H56 C28 1_555 1_555
C29 N17 1_555 1_555
H57 C29 1_555 1_555
H58 C29 1_555 1_555
H59 C29 1_555 1_555
C30 N17 1_555 1_555
H60 C30 1_555 1_555
H61 C30 1_555 1_555
C31 N18 1_555 1_555
H62 C31 1_555 1_555
H63 C31 1_555 1_555
C32 N18 1_555 1_555
H64 C32 1_555 1_555
H65 C32 1_555 1_555
H66 C32 1_555 1_555
C33 N18 1_555 1_555
H67 C33 1_555 1_555
H68 C33 1_555 1_555
H69 C33 1_555 1_555
Cu1B N4 1_555 1_555
Cu3C N15 1_555 1_555
N1B Cu1B 1_555 1_555
N2B Cu1B 1_555 1_555
N3B Cu1B 1_555 1_555
N4B Cu1 1_555 1_555
N5B Cu1B 1_555 1_555
N6B C10B 1_555 1_555
N15C Cu3 1_555 1_555
C1B N1B 1_555 1_555
H1B C1B 1_555 1_555
H2B C1B 1_555 1_555
H3B C1B 1_555 1_555
C2B N1B 1_555 1_555
H4B C2B 1_555 1_555
H5B C2B 1_555 1_555
H6B C2B 1_555 1_555
C3B N1B 1_555 1_555
H7B C3B 1_555 1_555
H8B C3B 1_555 1_555
C4B N2B 1_555 1_555
H9B C4B 1_555 1_555
H10B C4B 1_555 1_555
C5B N2B 1_555 1_555
H11B C5B 1_555 1_555
H12B C5B 1_555 1_555
H13B C5B 1_555 1_555
C6B N2B 1_555 1_555
H14B C6B 1_555 1_555
H15B C6B 1_555 1_555
C7B N3B 1_555 1_555
H16B C7B 1_555 1_555
H17B C7B 1_555 1_555
C8B N3B 1_555 1_555
H18B C8B 1_555 1_555
H19B C8B 1_555 1_555
H20B C8B 1_555 1_555
C9B N3B 1_555 1_555
H21B C9B 1_555 1_555
H22B C9B 1_555 1_555
H23B C9B 1_555 1_555
C10B N4B 1_555 1_555
C11B N5B 1_555 1_555
N6 C11 1_555 1_555
C3 C4 1_555 1_555
C6 C7 1_555 1_555
C14 C15 1_555 1_555
C17 C18 1_555 1_555
C27 C28 1_555 1_555
C30 C31 1_555 1_555
N6B C11B 1_555 1_555
C3B C4B 1_555 1_555
C6B C7B 1_555 1_555

#END
