
#######################################################################
#
#                 Cambridge Crystallographic Data Centre
#                                CCDC 
#
#######################################################################
#
# If this CIF has been generated from an entry in the Cambridge 
# Structural Database, then it will include bibliographic, chemical, 
# crystal, experimental, refinement or atomic coordinate data resulting 
# from the CCDC's data processing and validation procedures.
#
#######################################################################

data_FUZDIO
_symmetry_cell_setting           monoclinic
_symmetry_space_group_name_H-M   'P 21/n'
_symmetry_Int_Tables_number      14
_space_group_name_Hall           '-P 2yn'
loop_
_symmetry_equiv_pos_site_id
_symmetry_equiv_pos_as_xyz
1 x,y,z
2 1/2-x,1/2+y,1/2-z
3 -x,-y,-z
4 1/2+x,1/2-y,1/2+z
_cell_length_a                   7.0547(2)
_cell_length_b                   15.0393(4)
_cell_length_c                   15.5866(5)
_cell_angle_alpha                90
_cell_angle_beta                 101.908(3)
_cell_angle_gamma                90
_cell_volume                     1618.12
loop_
_atom_site_label
_atom_site_type_symbol
_atom_site_fract_x
_atom_site_fract_y
_atom_site_fract_z
Cu1 Cu 0.23431(4) 0.221688(18) 0.984061(17)
S1 S -0.25435(8) 0.27548(4) 0.94775(4)
S2 S -0.20487(9) 0.43233(4) 1.07260(4)
O1 O -0.0736(2) 0.24432(11) 1.00138(11)
C1 C -0.2603(3) 0.39315(16) 0.96231(13)
H1 H -0.1695 0.4199 0.9310
H2 H -0.3886 0.4142 0.9351
O2 O -0.2705(3) 0.52344(12) 1.06643(12)
O3 O 0.1957(3) 0.30585(12) 0.88446(11)
O4 O -0.3150(2) 0.37666(12) 1.12094(9)
N1 N 0.1618(3) 0.11507(13) 0.90804(11)
C2 C 0.0264(4) 0.03842(19) 0.77688(16)
H3 H -0.0358 0.0405 0.7182
O5 O 0.0016(2) 0.42480(12) 1.10354(10)
O6 O 0.3002(2) 0.31810(12) 1.07218(11)
O7 O -0.4198(2) 0.23848(11) 0.97689(11)
O8 O -0.2648(3) 0.26462(13) 0.85441(11)
C3 C 0.4340(4) 0.06976(19) 1.21670(16)
H4 H 0.4797 0.0800 1.2762
C4 C 0.2921(3) 0.04377(16) 1.04292(14)
C5 C 0.0715(4) 0.11553(17) 0.82350(15)
H5 H 0.0385 0.1697 0.7957
C6 C 0.2045(3) 0.03663(15) 0.94860(14)
C7 C 0.4216(4) -0.01509(19) 1.18444(17)
H6 H 0.4612 -0.0631 1.2214
C8 C 0.3787(4) 0.13931(18) 1.16065(15)
H7 H 0.3899 0.1969 1.1829
C9 C 0.3500(4) -0.02823(17) 1.09697(17)
H8 H 0.3404 -0.0855 1.0739
N2 N 0.3087(3) 0.12745(13) 1.07443(11)
C10 C 0.1628(4) -0.04302(17) 0.90480(16)
H9 H 0.1943 -0.0968 0.9337
C11 C 0.0733(4) -0.04143(18) 0.81724(16)
H10 H 0.0453 -0.0942 0.7861
H11 H 0.211(5) 0.349(2) 1.078(2)
H12 H 0.404(5) 0.335(2) 1.076(2)
H13 H 0.225(5) 0.364(2) 0.9022(19)
H14 H 0.239(5) 0.297(2) 0.845(2)
Cu1_2 Cu -0.76569(4) 0.221688(18) 0.984061(17)
O7_2 O 0.5802(2) 0.23848(11) 0.97689(11)
O9 O 0.3641(3) 0.25425(16) 0.75207(14)
H15 H 0.471(5) 0.251(2) 0.766(2)
H16 H 0.340(5) 0.225(3) 0.716(2)
loop_
_geom_bond_atom_site_label_1
_geom_bond_atom_site_label_2
_geom_bond_site_symmetry_1
_geom_bond_site_symmetry_2
Cu1 O1 1_555 1_555
S1 O1 1_555 1_555
S2 C1 1_555 1_555
C1 S1 1_555 1_555
H1 C1 1_555 1_555
H2 C1 1_555 1_555
O2 S2 1_555 1_555
O3 Cu1 1_555 1_555
O4 S2 1_555 1_555
N1 Cu1 1_555 1_555
C2 H3 1_555 1_555
O5 S2 1_555 1_555
O6 Cu1 1_555 1_555
O7 S1 1_555 1_555
O8 S1 1_555 1_555
C3 H4 1_555 1_555
C4 C6 1_555 1_555
C5 N1 1_555 1_555
H5 C5 1_555 1_555
C6 N1 1_555 1_555
C7 C3 1_555 1_555
H6 C7 1_555 1_555
C8 C3 1_555 1_555
H7 C8 1_555 1_555
C9 C4 1_555 1_555
H8 C9 1_555 1_555
N2 Cu1 1_555 1_555
C10 C6 1_555 1_555
H9 C10 1_555 1_555
C11 C2 1_555 1_555
H10 C11 1_555 1_555
H11 O6 1_555 1_555
H12 O6 1_555 1_555
H13 O3 1_555 1_555
H14 O3 1_555 1_555
O9 H15 1_555 1_555
H16 O9 1_555 1_555
Cu1_2 O7 1_555 1_555
O7_2 Cu1 1_555 1_555
C2 C5 1_555 1_555
C4 N2 1_555 1_555
C7 C9 1_555 1_555
C8 N2 1_555 1_555
C10 C11 1_555 1_555

#END
