
#######################################################################
#
#                 Cambridge Crystallographic Data Centre
#                                CCDC 
#
#######################################################################
#
# If this CIF has been generated from an entry in the Cambridge 
# Structural Database, then it will include bibliographic, chemical, 
# crystal, experimental, refinement or atomic coordinate data resulting 
# from the CCDC's data processing and validation procedures.
#
#######################################################################

data_FUZYUV
_symmetry_cell_setting           triclinic
_symmetry_space_group_name_H-M   'P -1'
_symmetry_Int_Tables_number      2
_space_group_name_Hall           '-P 1'
loop_
_symmetry_equiv_pos_site_id
_symmetry_equiv_pos_as_xyz
1 x,y,z
2 -x,-y,-z
_cell_length_a                   9.4246(12)
_cell_length_b                   9.7442(12)
_cell_length_c                   10.8537(13)
_cell_angle_alpha                87.707(2)
_cell_angle_beta                 73.272(2)
_cell_angle_gamma                69.644(2)
_cell_volume                     892.95
loop_
_atom_site_label
_atom_site_type_symbol
_atom_site_fract_x
_atom_site_fract_y
_atom_site_fract_z
Cd1 Cd 0.649501(16) 0.575474(15) 0.155545(14)
N1 N 0.5910(2) 0.3829(2) 0.25613(18)
O1 O 0.4977(2) 0.81325(19) 0.1423(2)
O2 O 0.3876(2) 0.65566(17) 0.12533(18)
O3 O 0.05639(19) 0.78266(17) 0.20115(15)
O4 O -0.0902(2) 0.5879(2) 0.16731(15)
O5 O -0.3033(2) 0.6378(2) 0.33055(17)
O6 O 0.77300(19) 0.49025(19) -0.04587(16)
H1 H 0.7280 0.4516 -0.0844
H2 H 0.8724 0.4498 -0.0790
C1 C 0.6190(3) 0.3468(3) 0.3692(2)
H3 H 0.6581 0.4043 0.4069
C2 C 0.5930(3) 0.2296(3) 0.4321(2)
H4 H 0.6131 0.2095 0.5112
C3 C 0.5366(3) 0.1405(3) 0.3778(2)
C4 C 0.5088(3) 0.1775(3) 0.2609(2)
H5 H 0.4723 0.1205 0.2200
C5 C 0.5352(3) 0.2988(3) 0.2048(2)
H6 H 0.5129 0.3232 0.1270
C6 C 0.5044(3) 0.0142(3) 0.4393(2)
H7 H 0.4889 -0.0513 0.3891
C7 C 0.3824(3) 0.7850(2) 0.1314(2)
C8 C 0.2393(3) 0.9115(2) 0.1257(2)
C9 C 0.2594(3) 1.0418(3) 0.0797(2)
H8 H 0.3607 1.0462 0.0534
C10 C 0.1343(3) 1.1625(3) 0.0725(2)
H9 H 0.1508 1.2473 0.0401
C11 C -0.0164(3) 1.1583(3) 0.1132(2)
H10 H -0.1021 1.2407 0.1092
C12 C -0.0407(3) 1.0328(3) 0.1598(2)
H11 H -0.1428 1.0306 0.1882
C13 C 0.0866(3) 0.9097(2) 0.1645(2)
C14 C 0.0084(2) 0.7619(2) 0.3305(2)
C15 C 0.0590(3) 0.8166(3) 0.4185(2)
H12 H 0.1255 0.8705 0.3914
C16 C 0.0103(3) 0.7909(3) 0.5468(3)
H13 H 0.0442 0.8276 0.6064
C17 C -0.0880(3) 0.7114(3) 0.5877(2)
H14 H -0.1183 0.6923 0.6741
C18 C -0.1411(3) 0.6603(3) 0.5003(2)
H15 H -0.2102 0.6092 0.5286
C19 C -0.0929(2) 0.6838(2) 0.3697(2)
C20 C -0.1630(3) 0.6326(2) 0.2815(2)
Cd1A Cd 0.350499(16) -0.575474(15) 0.844455(14)
Cd1_2 Cd -0.350499(16) 0.575474(15) 0.155545(14)
Cd1A_2 Cd 1.350499(16) -0.575474(15) 0.844455(14)
N1A N 0.4090(2) -0.3829(2) 0.74387(18)
O1A O 0.5023(2) -0.81325(19) 0.8577(2)
O2A O 0.6124(2) -0.65566(17) 0.87467(18)
O3A O 0.94361(19) -0.78266(17) 0.79885(15)
O4A O 1.0902(2) -0.5879(2) 0.83269(15)
O4_2 O 0.9098(2) 0.5879(2) 0.16731(15)
O4A_2 O 0.0902(2) -0.5879(2) 0.83269(15)
O5A O 1.3033(2) -0.6378(2) 0.66945(17)
O5_2 O 0.6967(2) 0.6378(2) 0.33055(17)
O5A_2 O 0.3033(2) -0.6378(2) 0.66945(17)
O6A O 0.22700(19) -0.49025(19) 1.04587(16)
H1A H 0.2720 -0.4516 1.0844
H2A H 0.1276 -0.4498 1.0790
C1A C 0.3810(3) -0.3468(3) 0.6308(2)
H3A H 0.3419 -0.4043 0.5931
C2A C 0.4070(3) -0.2296(3) 0.5679(2)
H4A H 0.3869 -0.2095 0.4888
C3A C 0.4634(3) -0.1405(3) 0.6222(2)
C4A C 0.4912(3) -0.1775(3) 0.7391(2)
H5A H 0.5277 -0.1205 0.7800
C5A C 0.4648(3) -0.2988(3) 0.7952(2)
H6A H 0.4871 -0.3232 0.8730
C6A C 0.4956(3) -0.0142(3) 0.5607(2)
H7A H 0.5111 0.0513 0.6109
C7A C 0.6176(3) -0.7850(2) 0.8686(2)
C8A C 0.7607(3) -0.9115(2) 0.8743(2)
C9A C 0.7406(3) -1.0418(3) 0.9203(2)
H8A H 0.6393 -1.0462 0.9466
C10A C 0.8657(3) -1.1625(3) 0.9275(2)
H9A H 0.8492 -1.2473 0.9599
C11A C 1.0164(3) -1.1583(3) 0.8868(2)
H10A H 1.1021 -1.2407 0.8908
C12A C 1.0407(3) -1.0328(3) 0.8402(2)
H11A H 1.1428 -1.0306 0.8118
C13A C 0.9134(3) -0.9097(2) 0.8355(2)
C14A C 0.9916(2) -0.7619(2) 0.6695(2)
C15A C 0.9410(3) -0.8166(3) 0.5815(2)
H12A H 0.8745 -0.8705 0.6086
C16A C 0.9897(3) -0.7909(3) 0.4532(3)
H13A H 0.9558 -0.8276 0.3936
C17A C 1.0880(3) -0.7114(3) 0.4123(2)
H14A H 1.1183 -0.6923 0.3259
C18A C 1.1411(3) -0.6603(3) 0.4997(2)
H15A H 1.2102 -0.6092 0.4714
C19A C 1.0929(2) -0.6838(2) 0.6303(2)
C20A C 1.1630(3) -0.6326(2) 0.7185(2)
C20_2 C 0.8370(3) 0.6326(2) 0.2815(2)
C20A_2 C 0.1630(3) -0.6326(2) 0.7185(2)
loop_
_geom_bond_atom_site_label_1
_geom_bond_atom_site_label_2
_geom_bond_site_symmetry_1
_geom_bond_site_symmetry_2
Cd1 N1 1_555 1_555
N1 C1 1_555 1_555
O1 Cd1 1_555 1_555
O2 Cd1 1_555 1_555
O3 C13 1_555 1_555
O4 C20 1_555 1_555
O5 C20 1_555 1_555
O6 Cd1 1_555 1_555
H1 O6 1_555 1_555
H2 O6 1_555 1_555
C1 H3 1_555 1_555
C2 C1 1_555 1_555
H4 C2 1_555 1_555
C3 C2 1_555 1_555
C4 C3 1_555 1_555
H5 C4 1_555 1_555
C5 N1 1_555 1_555
H6 C5 1_555 1_555
C6 C3 1_555 1_555
H7 C6 1_555 1_555
C7 O1 1_555 1_555
C8 C7 1_555 1_555
C9 C8 1_555 1_555
H8 C9 1_555 1_555
C10 C9 1_555 1_555
H9 C10 1_555 1_555
C11 C10 1_555 1_555
H10 C11 1_555 1_555
C12 C11 1_555 1_555
H11 C12 1_555 1_555
C13 C8 1_555 1_555
C14 O3 1_555 1_555
C15 C14 1_555 1_555
H12 C15 1_555 1_555
C16 C15 1_555 1_555
H13 C16 1_555 1_555
C17 C16 1_555 1_555
H14 C17 1_555 1_555
C18 C17 1_555 1_555
H15 C18 1_555 1_555
C19 C14 1_555 1_555
C20 C19 1_555 1_555
Cd1A N1A 1_555 1_555
Cd1_2 O4 1_555 1_555
Cd1A_2 O4A 1_555 1_555
N1A C1A 1_555 1_555
O1A Cd1A 1_555 1_555
O2A Cd1A 1_555 1_555
O3A C13A 1_555 1_555
O4A C20A 1_555 1_555
O4_2 Cd1 1_555 1_555
O4A_2 Cd1A 1_555 1_555
O5A Cd1A_2 1_555 1_555
O5_2 Cd1 1_555 1_555
O5A_2 Cd1A 1_555 1_555
O6A Cd1A 1_555 1_555
H1A O6A 1_555 1_555
H2A O6A 1_555 1_555
C1A H3A 1_555 1_555
C2A C1A 1_555 1_555
H4A C2A 1_555 1_555
C3A C2A 1_555 1_555
C4A C3A 1_555 1_555
H5A C4A 1_555 1_555
C5A N1A 1_555 1_555
H6A C5A 1_555 1_555
C6A C6 1_555 1_555
H7A C6A 1_555 1_555
C7A O1A 1_555 1_555
C8A C7A 1_555 1_555
C9A C8A 1_555 1_555
H8A C9A 1_555 1_555
C10A C9A 1_555 1_555
H9A C10A 1_555 1_555
C11A C10A 1_555 1_555
H10A C11A 1_555 1_555
C12A C11A 1_555 1_555
H11A C12A 1_555 1_555
C13A C8A 1_555 1_555
C14A O3A 1_555 1_555
C15A C14A 1_555 1_555
H12A C15A 1_555 1_555
C16A C15A 1_555 1_555
H13A C16A 1_555 1_555
C17A C16A 1_555 1_555
H14A C17A 1_555 1_555
C18A C17A 1_555 1_555
H15A C18A 1_555 1_555
C19A C14A 1_555 1_555
C20A O5A 1_555 1_555
C20_2 O4_2 1_555 1_555
C20A_2 O4A_2 1_555 1_555
O2 C7 1_555 1_555
O5 Cd1_2 1_555 1_555
C4 C5 1_555 1_555
C12 C13 1_555 1_555
C18 C19 1_555 1_555
O2A C7A 1_555 1_555
O5_2 C20_2 1_555 1_555
O5A_2 C20A_2 1_555 1_555
C3A C6A 1_555 1_555
C4A C5A 1_555 1_555
C12A C13A 1_555 1_555
C18A C19A 1_555 1_555
C19A C20A 1_555 1_555

#END
