
#######################################################################
#
#                 Cambridge Crystallographic Data Centre
#                                CCDC 
#
#######################################################################
#
# If this CIF has been generated from an entry in the Cambridge 
# Structural Database, then it will include bibliographic, chemical, 
# crystal, experimental, refinement or atomic coordinate data resulting 
# from the CCDC's data processing and validation procedures.
#
#######################################################################

data_GABDAP
_symmetry_cell_setting           rhombohedral
_symmetry_space_group_name_H-M   'R -3 m'
_symmetry_Int_Tables_number      166
_space_group_name_Hall           '-R 3 2"'
loop_
_symmetry_equiv_pos_site_id
_symmetry_equiv_pos_as_xyz
1 x,y,z
2 -y,x-y,z
3 y,x,-z
4 -x+y,-x,z
5 x,x-y,z
6 -x+y,y,z
7 2/3+x,1/3+y,1/3+z
8 1/3+x,2/3+y,2/3+z
9 2/3-y,1/3+x-y,1/3+z
10 2/3+y,1/3+x,1/3-z
11 1/3+y,2/3+x,2/3-z
12 2/3-x+y,1/3-x,1/3+z
13 2/3+y,1/3-x+y,1/3-z
14 2/3+x-y,1/3+x,1/3-z
15 2/3+x,1/3+x-y,1/3+z
16 1/3+x,2/3+x-y,2/3+z
17 2/3-x+y,1/3+y,1/3+z
18 1/3-x+y,2/3+y,2/3+z
19 -x,-y,-z
20 y,-x+y,-z
21 -y,-x,z
22 x-y,x,-z
23 -x,-x+y,-z
24 x-y,-y,-z
25 1/3-x,2/3-y,2/3-z
26 2/3-x,1/3-y,1/3-z
27 1/3+y,2/3-x+y,2/3-z
28 1/3-y,2/3-x,2/3+z
29 2/3-y,1/3-x,1/3+z
30 1/3+x-y,2/3+x,2/3-z
31 1/3-y,2/3+x-y,2/3+z
32 1/3-x+y,2/3-x,2/3+z
33 1/3-x,2/3-x+y,2/3-z
34 2/3-x,1/3-x+y,1/3-z
35 1/3+x-y,2/3-y,2/3-z
36 2/3+x-y,1/3-y,1/3-z
_cell_length_a                   11.178(2)
_cell_length_b                   11.178(2)
_cell_length_c                   16.471(2)
_cell_angle_alpha                90
_cell_angle_beta                 90
_cell_angle_gamma                120.0000
_cell_volume                     1782.29
loop_
_atom_site_label
_atom_site_type_symbol
_atom_site_fract_x
_atom_site_fract_y
_atom_site_fract_z
Ag1 Ag 0.66670 0.33330 0.22217(4)
Cl1 Cl 0.66670 0.33330 -0.02152(13)
O1 O 0.66670 0.33330 0.0656(5)
O2 O 0.5975(4) 0.1949(9) -0.0451(5)
S1 S 0.79249(6) 0.20751(6) 0.26020(6)
C1 C 0.9603(4) 0.2885(4) 0.2123(2)
H1 H 1.01291 0.38023 0.23209
H2 H 1.00494 0.23787 0.22658
O2A O 0.8051(9) 0.4026(10) -0.0451(5)
O2C O 0.5974(10) 0.4025(4) -0.0451(5)
C1I C 0.9552(4) 0.2936(4) 0.1210(2)
S1I S 0.87418(6) 0.12582(6) 0.07313(6)
C1Y C 0.7064(4) 0.0448(4) 0.1210(2)
C1T C 0.7115(4) 0.0397(4) 0.2123(2)
H1T H 0.61977 -0.01291 0.23209
H2T H 0.76213 -0.00494 0.22658
H1Y H 0.65376 -0.04690 0.10124
H2Y H 0.66173 0.09546 0.10675
H1I H 1.04690 0.34624 0.10124
H2I H 0.90454 0.33827 0.10675
S1A S 0.79249(6) 0.58498(8) 0.26020(6)
C1A C 0.7115(4) 0.6718(6) 0.2123(2)
H1A H 0.61977 0.63268 0.23209
H2A H 0.76213 0.76707 0.22658
C1GA C 0.7064(4) 0.6615(6) 0.1210(2)
S1GA S 0.87418(6) 0.74835(8) 0.07313(6)
C1L C 0.9552(4) 0.6615(6) 0.1210(2)
C1D C 0.9603(4) 0.6718(6) 0.2123(2)
H1D H 1.01291 0.63268 0.23209
H2D H 1.00494 0.76707 0.22658
H1L H 1.04690 0.70065 0.10124
H2L H 0.90454 0.56626 0.10675
H1GA H 0.65376 0.70065 0.10124
H2GA H 0.66173 0.56626 0.10675
S1C S 0.41502(8) 0.20751(6) 0.26020(6)
C1C C 0.3282(6) 0.0397(4) 0.2123(2)
H1C H 0.36732 -0.01291 0.23209
H2C H 0.23293 -0.00494 0.22658
C1IA C 0.3385(6) 0.0448(4) 0.1210(2)
S1IA S 0.25165(8) 0.12582(6) 0.07313(6)
C1M C 0.3385(6) 0.2936(4) 0.1210(2)
C1E C 0.3282(6) 0.2885(4) 0.2123(2)
H1E H 0.36732 0.38023 0.23209
H2E H 0.23293 0.23787 0.22658
H1M H 0.29935 0.34624 0.10124
H2M H 0.43374 0.33827 0.10675
H1IA H 0.29935 -0.04690 0.10124
H2IA H 0.43374 0.09546 0.10675
Ag1I Ag 0.99997 0.00003 0.11116(4)
Ag1GA Ag 0.99997 0.99993 0.11116(4)
Ag1IA Ag 0.00007 0.00003 0.11116(4)
Cl1I Cl 0.99997 0.00003 0.35485(13)
O1I O 0.99997 0.00003 0.2677(5)
O2I O 0.8616(9) -0.0692(4) 0.3784(5)
O2IA O 1.0693(10) 0.1384(9) 0.3784(5)
O2GA O 1.0692(4) -0.0693(10) 0.3784(5)
S1IA_2 S 1.25165(8) 0.12582(6) 0.07313(6)
S1GA_2 S 0.87418(6) -0.25165(8) 0.07313(6)
loop_
_geom_bond_atom_site_label_1
_geom_bond_atom_site_label_2
_geom_bond_site_symmetry_1
_geom_bond_site_symmetry_2
Ag1 O1 1_555 1_555
Cl1 O1 1_555 1_555
O2 Cl1 1_555 1_555
S1 Ag1 1_555 1_555
C1 S1 1_555 1_555
H1 C1 1_555 1_555
H2 C1 1_555 1_555
O2A Cl1 1_555 1_555
O2C Cl1 1_555 1_555
C1I C1 1_555 1_555
S1I C1I 1_555 1_555
C1Y S1I 1_555 1_555
C1T S1 1_555 1_555
H1T C1T 1_555 1_555
H2T C1T 1_555 1_555
H1Y C1Y 1_555 1_555
H2Y C1Y 1_555 1_555
H1I C1I 1_555 1_555
H2I C1I 1_555 1_555
S1A Ag1 1_555 1_555
C1A S1A 1_555 1_555
H1A C1A 1_555 1_555
H2A C1A 1_555 1_555
C1GA C1A 1_555 1_555
S1GA C1GA 1_555 1_555
C1L S1GA 1_555 1_555
C1D S1A 1_555 1_555
H1D C1D 1_555 1_555
H2D C1D 1_555 1_555
H1L C1L 1_555 1_555
H2L C1L 1_555 1_555
H1GA C1GA 1_555 1_555
H2GA C1GA 1_555 1_555
S1C Ag1 1_555 1_555
C1C S1C 1_555 1_555
H1C C1C 1_555 1_555
H2C C1C 1_555 1_555
C1IA C1C 1_555 1_555
S1IA C1IA 1_555 1_555
C1M S1IA 1_555 1_555
C1E S1C 1_555 1_555
H1E C1E 1_555 1_555
H2E C1E 1_555 1_555
H1M C1M 1_555 1_555
H2M C1M 1_555 1_555
H1IA C1IA 1_555 1_555
H2IA C1IA 1_555 1_555
Ag1I S1I 1_555 1_555
Ag1GA S1GA 1_555 1_555
Ag1IA S1IA 1_555 1_555
Cl1I O1I 1_555 1_555
O1I Ag1I 1_555 1_555
O2I Cl1I 1_555 1_555
O2IA Cl1I 1_555 1_555
O2GA Cl1I 1_555 1_555
S1IA_2 Ag1I 1_555 1_555
S1GA_2 Ag1I 1_555 1_555
C1Y C1T 1_555 1_555
C1L C1D 1_555 1_555
C1M C1E 1_555 1_555

#END
