
#######################################################################
#
#                 Cambridge Crystallographic Data Centre
#                                CCDC 
#
#######################################################################
#
# If this CIF has been generated from an entry in the Cambridge 
# Structural Database, then it will include bibliographic, chemical, 
# crystal, experimental, refinement or atomic coordinate data resulting 
# from the CCDC's data processing and validation procedures.
#
#######################################################################

data_GABHOH
_symmetry_cell_setting           orthorhombic
_symmetry_space_group_name_H-M   'P 21 21 21'
_symmetry_Int_Tables_number      19
_space_group_name_Hall           'P 2ac 2ab'
loop_
_symmetry_equiv_pos_site_id
_symmetry_equiv_pos_as_xyz
1 x,y,z
2 1/2-x,-y,1/2+z
3 -x,1/2+y,1/2-z
4 1/2+x,1/2-y,-z
_cell_length_a                   4.1830(6)
_cell_length_b                   10.8138(8)
_cell_length_c                   17.961(4)
_cell_angle_alpha                90
_cell_angle_beta                 90
_cell_angle_gamma                90
_cell_volume                     812.45
loop_
_atom_site_label
_atom_site_type_symbol
_atom_site_fract_x
_atom_site_fract_y
_atom_site_fract_z
I1 I 0.36209(9) 0.64229(3) 0.587354(17)
Cu1 Cu 0.3590(2) 0.72009(5) 0.44878(4)
N1 N 0.3743(15) 0.5659(3) 0.3808(2)
C1 C 0.2640(13) 0.4571(5) 0.4040(3)
H1 H 0.1706 0.4498 0.4508
C2 C 0.2895(13) 0.3542(4) 0.3577(3)
N2 N 0.4153(16) 0.3570(4) 0.2921(2)
C3 C 0.520(2) 0.4686(6) 0.2696(4)
H2 H 0.6084 0.4762 0.2223
C4 C 0.5006(17) 0.5712(5) 0.3137(3)
H3 H 0.5782 0.6463 0.2961
I2 I 0.11441(13) 0.18161(3) 0.39453(2)
Cu1C Cu -0.1410(2) 0.77991(5) 0.55122(4)
Cu1C_2 Cu 0.8590(2) 0.77991(5) 0.55122(4)
I1C I -0.13791(9) 0.85771(3) 0.412646(17)
I1C_2 I 0.86209(9) 0.85771(3) 0.412646(17)
loop_
_geom_bond_atom_site_label_1
_geom_bond_atom_site_label_2
_geom_bond_site_symmetry_1
_geom_bond_site_symmetry_2
I1 Cu1 1_555 1_555
Cu1 N1 1_555 1_555
N1 C1 1_555 1_555
C1 H1 1_555 1_555
C2 C1 1_555 1_555
N2 C2 1_555 1_555
C3 N2 1_555 1_555
H2 C3 1_555 1_555
C4 N1 1_555 1_555
H3 C4 1_555 1_555
I2 C2 1_555 1_555
Cu1C I1 1_555 1_555
Cu1C_2 I1 1_555 1_555
I1C Cu1 1_555 1_555
I1C_2 Cu1 1_555 1_555
C3 C4 1_555 1_555
Cu1C I1C 1_555 1_555
Cu1C_2 I1C_2 1_555 1_555

#END
