
#######################################################################
#
#                 Cambridge Crystallographic Data Centre
#                                CCDC 
#
#######################################################################
#
# If this CIF has been generated from an entry in the Cambridge 
# Structural Database, then it will include bibliographic, chemical, 
# crystal, experimental, refinement or atomic coordinate data resulting 
# from the CCDC's data processing and validation procedures.
#
#######################################################################

data_GABRUY
_symmetry_cell_setting           orthorhombic
_symmetry_space_group_name_H-M   'P b c a'
_symmetry_Int_Tables_number      61
_space_group_name_Hall           '-P 2ac 2ab'
loop_
_symmetry_equiv_pos_site_id
_symmetry_equiv_pos_as_xyz
1 x,y,z
2 1/2-x,-y,1/2+z
3 -x,1/2+y,1/2-z
4 1/2+x,1/2-y,-z
5 -x,-y,-z
6 1/2+x,y,1/2-z
7 x,1/2-y,1/2+z
8 1/2-x,1/2+y,z
_cell_length_a                   7.4114(14)
_cell_length_b                   17.663(3)
_cell_length_c                   25.148(5)
_cell_angle_alpha                90
_cell_angle_beta                 90
_cell_angle_gamma                90
_cell_volume                     3292.06
loop_
_atom_site_label
_atom_site_type_symbol
_atom_site_fract_x
_atom_site_fract_y
_atom_site_fract_z
C1 C 0.2374(4) 0.52849(15) 0.48429(10)
H1 H 0.1550 0.5385 0.5113
C2 C 0.3597(4) 0.57879(16) 0.46493(10)
H2 H 0.3759 0.6285 0.4761
C3 C 0.3851(3) 0.47149(13) 0.42339(9)
C4 C 0.5998(4) 0.57340(16) 0.39321(12)
H3 H 0.6791 0.5325 0.3823
H4 H 0.6702 0.6088 0.4142
C5 C 0.5292(6) 0.6128(2) 0.34494(15)
H5 H 0.4611 0.5778 0.3238
H6 H 0.6284 0.6321 0.3244
H7 H 0.4527 0.6540 0.3556
C6 C 0.4393(3) 0.29696(13) 0.36065(9)
C7 C 0.4173(4) 0.22401(14) 0.37981(10)
H8 H 0.3739 0.2168 0.4141
C8 C 0.4581(5) 0.16229(15) 0.34915(13)
H9 H 0.4451 0.1136 0.3626
C9 C 0.5187(4) 0.17370(16) 0.29802(12)
H10 H 0.5443 0.1321 0.2767
C10 C 0.5422(4) 0.24543(15) 0.27795(10)
H11 H 0.5842 0.2513 0.2433
C11 C 0.5043(3) 0.30962(14) 0.30833(10)
C12 C 0.5261(4) 0.38500(15) 0.21122(9)
H12 H 0.6332 0.3573 0.2006
H13 H 0.4207 0.3559 0.2011
C13 C 0.5225(4) 0.46186(16) 0.18485(11)
H14 H 0.4128 0.4876 0.1941
H15 H 0.5284 0.4557 0.1470
H16 H 0.6240 0.4911 0.1967
C14 C -0.1816(3) 0.26117(15) 0.45886(9)
Cu1 Cu 0.17787(5) 0.347807(18) 0.456473(14)
N1 N 0.2536(3) 0.46088(12) 0.45803(7)
N2 N 0.4541(3) 0.41889(11) 0.38820(7)
N3 N 0.3842(3) 0.35399(11) 0.39616(8)
N4 N 0.4541(3) 0.54260(12) 0.42608(8)
N5 N -0.2472(4) 0.21791(13) 0.48692(9)
S1 S -0.09405(11) 0.32299(4) 0.41700(3)
S2 S 0.52752(9) 0.40114(4) 0.28230(2)
Cu1C Cu -0.32213(5) 0.152193(18) 0.543527(14)
N5C N 0.2528(4) 0.28209(13) 0.51308(9)
loop_
_geom_bond_atom_site_label_1
_geom_bond_atom_site_label_2
_geom_bond_site_symmetry_1
_geom_bond_site_symmetry_2
C1 H1 1_555 1_555
C2 C1 1_555 1_555
H2 C2 1_555 1_555
C3 N1 1_555 1_555
C4 H3 1_555 1_555
H4 C4 1_555 1_555
C5 C4 1_555 1_555
H5 C5 1_555 1_555
H6 C5 1_555 1_555
H7 C5 1_555 1_555
C6 C7 1_555 1_555
C7 H8 1_555 1_555
C8 C7 1_555 1_555
H9 C8 1_555 1_555
C9 C8 1_555 1_555
H10 C9 1_555 1_555
C10 C9 1_555 1_555
H11 C10 1_555 1_555
C11 C6 1_555 1_555
C12 H12 1_555 1_555
H13 C12 1_555 1_555
C13 C12 1_555 1_555
H14 C13 1_555 1_555
H15 C13 1_555 1_555
H16 C13 1_555 1_555
C14 N5 1_555 1_555
Cu1 N1 1_555 1_555
N1 C1 1_555 1_555
N2 C3 1_555 1_555
N3 C6 1_555 1_555
N4 C2 1_555 1_555
N5 Cu1C 1_555 1_555
S1 C14 1_555 1_555
S2 C11 1_555 1_555
N5C Cu1 1_555 1_555
C3 N4 1_555 1_555
C4 N4 1_555 1_555
C10 C11 1_555 1_555
C12 S2 1_555 1_555
Cu1 N3 1_555 1_555
Cu1 S1 1_555 1_555
N2 N3 1_555 1_555

#END
