
#######################################################################
#
#                 Cambridge Crystallographic Data Centre
#                                CCDC 
#
#######################################################################
#
# If this CIF has been generated from an entry in the Cambridge 
# Structural Database, then it will include bibliographic, chemical, 
# crystal, experimental, refinement or atomic coordinate data resulting 
# from the CCDC's data processing and validation procedures.
#
#######################################################################

data_GACHEX
_symmetry_cell_setting           triclinic
_symmetry_space_group_name_H-M   'P -1'
_symmetry_Int_Tables_number      2
_space_group_name_Hall           '-P 1'
loop_
_symmetry_equiv_pos_site_id
_symmetry_equiv_pos_as_xyz
1 x,y,z
2 -x,-y,-z
_cell_length_a                   8.316(2)
_cell_length_b                   10.138(2)
_cell_length_c                   15.441(3)
_cell_angle_alpha                92.82(2)
_cell_angle_beta                 92.29(2)
_cell_angle_gamma                102.99(2)
_cell_volume                     1265.2
loop_
_atom_site_label
_atom_site_type_symbol
_atom_site_fract_x
_atom_site_fract_y
_atom_site_fract_z
Ho1 Ho 0.0496(1) 0.1483(1) 0.2883(1)
N1 N -0.0704(5) 0.3491(4) 0.1947(3)
O1 O -0.0108(6) 0.3726(4) 0.2713(2)
O2 O -0.0726(5) 0.2336(3) 0.1620(2)
O3 O -0.1183(5) 0.4344(4) 0.1546(3)
N2 N 0.3599(5) 0.2787(4) 0.2193(3)
O4 O 0.3195(5) 0.3095(4) 0.2951(3)
O5 O 0.2598(4) 0.1850(4) 0.1787(2)
O6 O 0.4879(5) 0.3354(5) 0.1889(3)
N3 N 0.1416(6) -0.0676(4) 0.3738(3)
O7 O -0.0046(4) -0.0546(3) 0.3754(2)
O8 O 0.2438(4) 0.0243(3) 0.3404(2)
O9 O 0.1869(6) -0.1651(4) 0.4031(3)
O10 O -0.2336(4) 0.0989(4) 0.3078(2)
C1 C -0.3206(7) 0.0969(9) 0.3830(4)
N4 N 0.1438(5) 0.3975(4) 0.5423(2)
C2 C 0.1770(5) 0.2995(4) 0.4853(3)
O11 O 0.0726(4) 0.2501(3) 0.4244(2)
C3 C 0.3284(6) 0.2623(5) 0.4998(3)
C4 C 0.4365(7) 0.3235(6) 0.5665(3)
C5 C 0.3999(7) 0.4208(6) 0.6198(3)
C6 C 0.2541(7) 0.4566(5) 0.6069(3)
C7 C -0.0115(6) 0.4413(5) 0.5292(3)
N5 N -0.0828(4) -0.1542(3) 0.0622(2)
C8 C -0.1006(5) -0.1327(4) 0.1493(3)
O12 O -0.0154(4) -0.0253(3) 0.1871(2)
C9 C -0.2122(5) -0.2338(4) 0.1889(3)
C10 C -0.3010(5) -0.3430(4) 0.1438(3)
C11 C -0.2821(5) -0.3606(4) 0.0540(3)
C12 C -0.1731(5) -0.2665(4) 0.0163(3)
C13 C 0.0390(5) -0.0551(4) 0.0173(3)
H1 H -0.2867(46) 0.0716(42) 0.2560(13)
H2 H -0.2450 0.1312 0.4317
H3 H -0.3996 0.1524 0.3774
H4 H -0.3773 0.0053 0.3917
H5 H 0.3552 0.1937 0.4616
H6 H 0.5394 0.2969 0.5754
H7 H 0.4766 0.4654 0.6660
H8 H 0.2265 0.5243 0.6455
H9 H -0.0464 0.4691 0.5844
H10 H -0.0960 0.3672 0.5039
H11 H -0.2248 -0.2233 0.2502
H12 H -0.3771 -0.4104 0.1725
H13 H -0.3467 -0.4385 0.0210
H14 H -0.1580 -0.2779 -0.0447
H15 H 0.0804 -0.1008 -0.0299
H16 H 0.1304 -0.0142 0.0570
C7A C 0.0115(6) 0.5587(5) 0.4708(3)
N4A N -0.1438(5) 0.6025(4) 0.4577(2)
C2A C -0.1770(5) 0.7005(4) 0.5147(3)
O11A O -0.0726(4) 0.7499(3) 0.5756(2)
Ho1A Ho -0.0496(1) 0.8517(1) 0.7117(1)
C3A C -0.3284(6) 0.7377(5) 0.5002(3)
C4A C -0.4365(7) 0.6765(6) 0.4335(3)
C5A C -0.3999(7) 0.5792(6) 0.3802(3)
C6A C -0.2541(7) 0.5434(5) 0.3931(3)
H8A H -0.2265 0.4757 0.3545
H7A H -0.4766 0.5346 0.3340
H6A H -0.5394 0.7031 0.4246
H5A H -0.3552 0.8063 0.5384
H9A H 0.0464 0.5309 0.4156
H10A H 0.0960 0.6328 0.4961
C13A C -0.0390(5) 0.0551(4) -0.0173(3)
N5A N 0.0828(4) 0.1542(3) -0.0622(2)
C8A C 0.1006(5) 0.1327(4) -0.1493(3)
O12A O 0.0154(4) 0.0253(3) -0.1871(2)
Ho1A_2 Ho -0.0496(1) -0.1483(1) -0.2883(1)
O1A O 0.0108(6) -0.3726(4) -0.2713(2)
N1A N 0.0704(5) -0.3491(4) -0.1947(3)
O2A O 0.0726(5) -0.2336(3) -0.1620(2)
O4A O -0.3195(5) -0.3095(4) -0.2951(3)
N2A N -0.3599(5) -0.2787(4) -0.2193(3)
O5A O -0.2598(4) -0.1850(4) -0.1787(2)
O7A O 0.0046(4) 0.0546(3) -0.3754(2)
N3A N -0.1416(6) 0.0676(4) -0.3738(3)
O8A O -0.2438(4) -0.0243(3) -0.3404(2)
O10A O 0.2336(4) -0.0989(4) -0.3078(2)
C1A C 0.3206(7) -0.0969(9) -0.3830(4)
H2A H 0.2450 -0.1312 -0.4317
H3A H 0.3996 -0.1524 -0.3774
H4A H 0.3773 -0.0053 -0.3917
H1A H 0.2867(46) -0.0716(42) -0.2560(13)
O11A_2 O -0.0726(4) -0.2501(3) -0.4244(2)
O9A O -0.1869(6) 0.1651(4) -0.4031(3)
O6A O -0.4879(5) -0.3354(5) -0.1889(3)
O3A O 0.1183(5) -0.4344(4) -0.1546(3)
C9A C 0.2122(5) 0.2338(4) -0.1889(3)
C10A C 0.3010(5) 0.3430(4) -0.1438(3)
C11A C 0.2821(5) 0.3606(4) -0.0540(3)
C12A C 0.1731(5) 0.2665(4) -0.0163(3)
H14A H 0.1580 0.2779 0.0447
H13A H 0.3467 0.4385 -0.0210
H12A H 0.3771 0.4104 -0.1725
H11A H 0.2248 0.2233 -0.2502
H15A H -0.0804 0.1008 0.0299
H16A H -0.1304 0.0142 -0.0570
N6 N -0.5713(4) -0.1484(4) 0.0667(2)
C14 C -0.5441(5) -0.1105(5) 0.1548(3)
O13 O -0.4368(4) -0.0089(3) 0.1777(2)
C15 C -0.6421(7) -0.1955(6) 0.2112(3)
C16 C -0.7600(7) -0.3067(5) 0.1791(4)
C17 C -0.7818(7) -0.3402(5) 0.0877(4)
C18 C -0.6892(6) -0.2610(5) 0.0362(3)
C19 C -0.4696(6) -0.0642(5) 0.0064(3)
H17 H -0.6272 -0.1747 0.2727
H18 H -0.8265 -0.3633 0.2184
H19 H -0.8640 -0.4180 0.0652
H20 H -0.7026 -0.2829 -0.0252
H21 H -0.4748 -0.1142 -0.0485
H22 H -0.3566 -0.0411 0.0285
C19A C -0.5304(6) 0.0642(5) -0.0064(3)
N6A N -0.4287(4) 0.1484(4) -0.0667(2)
C14A C -0.4559(5) 0.1105(5) -0.1548(3)
O13A O -0.5632(4) 0.0089(3) -0.1777(2)
C15A C -0.3579(7) 0.1955(6) -0.2112(3)
C16A C -0.2400(7) 0.3067(5) -0.1791(4)
C17A C -0.2182(7) 0.3402(5) -0.0877(4)
C18A C -0.3108(6) 0.2610(5) -0.0362(3)
H20A H -0.2974 0.2829 0.0252
H19A H -0.1360 0.4180 -0.0652
H18A H -0.1735 0.3633 -0.2184
H17A H -0.3728 0.1747 -0.2727
H21A H -0.5252 0.1142 0.0485
H22A H -0.6434 0.0411 -0.0285
O14 O -0.4487(20) 0.1480(18) 0.2839(11)
loop_
_geom_bond_atom_site_label_1
_geom_bond_atom_site_label_2
_geom_bond_site_symmetry_1
_geom_bond_site_symmetry_2
Ho1 O1 1_555 1_555
N1 O1 1_555 1_555
O2 Ho1 1_555 1_555
O3 N1 1_555 1_555
N2 O4 1_555 1_555
O4 Ho1 1_555 1_555
O5 Ho1 1_555 1_555
O6 N2 1_555 1_555
N3 O7 1_555 1_555
O7 Ho1 1_555 1_555
O8 Ho1 1_555 1_555
O9 N3 1_555 1_555
O10 Ho1 1_555 1_555
C1 O10 1_555 1_555
N4 C2 1_555 1_555
C2 O11 1_555 1_555
O11 Ho1 1_555 1_555
C3 C2 1_555 1_555
C4 C3 1_555 1_555
C5 C4 1_555 1_555
C6 N4 1_555 1_555
C7 N4 1_555 1_555
N5 C8 1_555 1_555
C8 O12 1_555 1_555
O12 Ho1 1_555 1_555
C9 C8 1_555 1_555
C10 C9 1_555 1_555
C11 C10 1_555 1_555
C12 N5 1_555 1_555
C13 N5 1_555 1_555
N6 C14 1_555 1_555
C14 O13 1_555 1_555
C15 C14 1_555 1_555
C16 C15 1_555 1_555
C17 C16 1_555 1_555
C18 N6 1_555 1_555
C19 N6 1_555 1_555
H1 O10 1_555 1_555
H2 C1 1_555 1_555
H3 C1 1_555 1_555
H4 C1 1_555 1_555
H5 C3 1_555 1_555
H6 C4 1_555 1_555
H7 C5 1_555 1_555
H8 C6 1_555 1_555
H9 C7 1_555 1_555
H10 C7 1_555 1_555
H11 C9 1_555 1_555
H12 C10 1_555 1_555
H13 C11 1_555 1_555
H14 C12 1_555 1_555
H15 C13 1_555 1_555
H16 C13 1_555 1_555
H17 C15 1_555 1_555
H18 C16 1_555 1_555
H19 C17 1_555 1_555
H20 C18 1_555 1_555
H21 C19 1_555 1_555
H22 C19 1_555 1_555
C7A C7 1_555 1_555
N4A C7A 1_555 1_555
C2A N4A 1_555 1_555
O11A C2A 1_555 1_555
Ho1A O11A 1_555 1_555
C3A C2A 1_555 1_555
C4A C3A 1_555 1_555
C5A C4A 1_555 1_555
C6A N4A 1_555 1_555
H8A C6A 1_555 1_555
H7A C5A 1_555 1_555
H6A C4A 1_555 1_555
H5A C3A 1_555 1_555
H9A C7A 1_555 1_555
H10A C7A 1_555 1_555
C13A C13 1_555 1_555
N5A C13A 1_555 1_555
C8A N5A 1_555 1_555
O12A C8A 1_555 1_555
Ho1A_2 O12A 1_555 1_555
O1A Ho1A_2 1_555 1_555
N1A O1A 1_555 1_555
O2A Ho1A_2 1_555 1_555
O4A Ho1A_2 1_555 1_555
N2A O4A 1_555 1_555
O5A Ho1A_2 1_555 1_555
O7A Ho1A_2 1_555 1_555
N3A O7A 1_555 1_555
O8A Ho1A_2 1_555 1_555
O10A Ho1A_2 1_555 1_555
C1A O10A 1_555 1_555
H2A C1A 1_555 1_555
H3A C1A 1_555 1_555
H4A C1A 1_555 1_555
H1A O10A 1_555 1_555
O11A_2 Ho1A_2 1_555 1_555
O9A N3A 1_555 1_555
O6A N2A 1_555 1_555
O3A N1A 1_555 1_555
C9A C8A 1_555 1_555
C10A C9A 1_555 1_555
C11A C10A 1_555 1_555
C12A N5A 1_555 1_555
H14A C12A 1_555 1_555
H13A C11A 1_555 1_555
H12A C10A 1_555 1_555
H11A C9A 1_555 1_555
H15A C13A 1_555 1_555
H16A C13A 1_555 1_555
C19A C19 1_555 1_555
N6A C19A 1_555 1_555
C14A N6A 1_555 1_555
O13A C14A 1_555 1_555
C15A C14A 1_555 1_555
C16A C15A 1_555 1_555
C17A C16A 1_555 1_555
C18A N6A 1_555 1_555
H20A C18A 1_555 1_555
H19A C17A 1_555 1_555
H18A C16A 1_555 1_555
H17A C15A 1_555 1_555
H21A C19A 1_555 1_555
H22A C19A 1_555 1_555
N1 O2 1_555 1_555
N2 O5 1_555 1_555
N3 O8 1_555 1_555
C5 C6 1_555 1_555
C11 C12 1_555 1_555
C17 C18 1_555 1_555
C5A C6A 1_555 1_555
N1A O2A 1_555 1_555
N2A O5A 1_555 1_555
N3A O8A 1_555 1_555
C11A C12A 1_555 1_555
C17A C18A 1_555 1_555

#END
