
#######################################################################
#
#                 Cambridge Crystallographic Data Centre
#                                CCDC 
#
#######################################################################
#
# If this CIF has been generated from an entry in the Cambridge 
# Structural Database, then it will include bibliographic, chemical, 
# crystal, experimental, refinement or atomic coordinate data resulting 
# from the CCDC's data processing and validation procedures.
#
#######################################################################

data_GACMON
_symmetry_cell_setting           orthorhombic
_symmetry_space_group_name_H-M   'P n a 21'
_symmetry_Int_Tables_number      33
_space_group_name_Hall           'P 2c -2n'
loop_
_symmetry_equiv_pos_site_id
_symmetry_equiv_pos_as_xyz
1 x,y,z
2 -x,-y,1/2+z
3 1/2+x,1/2-y,z
4 1/2-x,1/2+y,1/2+z
_cell_length_a                   17.1250(5)
_cell_length_b                   12.3036(7)
_cell_length_c                   23.8803(10)
_cell_angle_alpha                90
_cell_angle_beta                 90
_cell_angle_gamma                90
_cell_volume                     5031.56
loop_
_atom_site_label
_atom_site_type_symbol
_atom_site_fract_x
_atom_site_fract_y
_atom_site_fract_z
Th1 Th 0.117949(14) -0.63925(2) 0.25270(8)
O1 O 0.0902(3) -0.8392(4) 0.2504(10)
O2 O -0.0199(3) -0.6913(4) 0.2555(8)
O3 O -0.2543(4) -0.7856(6) 0.2598(12)
N1 N 0.0008(3) -0.9790(5) 0.2551(13)
N2 N -0.1690(4) -0.6436(7) 0.2309(4)
H1 H -0.1223 -0.6216 0.2378
C1 C 0.0606(5) -1.0589(8) 0.2641(9)
H2 H 0.1102 -1.0233 0.2677
H3 H 0.0620 -1.1081 0.2329
H4 H 0.0495 -1.0986 0.2978
C2 C 0.0167(4) -0.8695(8) 0.2491(13)
C3 C -0.0416(4) -0.7890(6) 0.2454(7)
C4 C -0.1194(4) -0.8253(5) 0.2419(4)
C5 C -0.1348(4) -0.9381(6) 0.2424(5)
H5 H -0.1848 -0.9627 0.2341
C6 C -0.0782(5) -1.0111(7) 0.2549(12)
H6 H -0.0915 -1.0825 0.2633
C7 C -0.1855(5) -0.7495(7) 0.2385(5)
C8 C -0.2245(7) -0.5668(10) 0.2122(5)
H7 H -0.2109 -0.4965 0.2277
H8 H -0.2751 -0.5868 0.2272
C9 C -0.2321(8) -0.5552(11) 0.1503(6)
H9 H -0.1805 -0.5405 0.1355
H10 H -0.2481 -0.6253 0.1356
C10 C -0.2840(11) -0.4752(15) 0.1277(8)
H11 H -0.2821 -0.4777 0.0875
H12 H -0.2684 -0.4044 0.1403
H13 H -0.3363 -0.4898 0.1401
O4 O 0.1962(8) -0.5210(11) 0.1934(5)
O5 O 0.1075(4) -0.6836(6) 0.1611(3)
O6 O 0.1335(9) -0.7924(16) -0.0075(7)
N3 N 0.2361(11) -0.4887(12) 0.1039(9)
N4 N 0.0738(14) -0.8134(17) 0.0779(10)
H14 H 0.0568 -0.7840 0.1082
C11 C 0.2756(16) -0.380(2) 0.1177(11)
H15 H 0.2637 -0.3603 0.1556
H16 H 0.2569 -0.3252 0.0927
H17 H 0.3311 -0.3878 0.1136
C12 C 0.1904(11) -0.5400(17) 0.1416(8)
C13 C 0.1485(8) -0.6354(13) 0.1221(6)
C14 C 0.1582(11) -0.6673(16) 0.0693(10)
C15 C 0.206(2) -0.616(3) 0.0266(15)
H18 H 0.2148 -0.6428 -0.0092
C16 C 0.2383(14) -0.513(3) 0.0499(13)
H19 H 0.2609 -0.4630 0.0254
C17 C 0.1242(10) -0.7680(15) 0.0380(8)
C18 C 0.0558(12) -0.9275(17) 0.0552(9)
H20 H 0.0422 -0.9281 0.0158
H21 H 0.0966 -0.9801 0.0630
C19 C -0.0109(12) -0.9378(16) 0.0918(9)
H22 H 0.0098 -0.9561 0.1284
H23 H -0.0393 -1.0013 0.0790
C20 C -0.0703(16) -0.853(2) 0.1015(10)
H24 H -0.1105 -0.8804 0.1255
H25 H -0.0927 -0.8311 0.0663
H26 H -0.0462 -0.7907 0.1189
O7 O 0.0494(5) -0.5577(6) 0.3406(3)
O8 O 0.0401(3) -0.4803(5) 0.2456(10)
O9 O -0.1383(6) -0.2549(8) 0.2052(4)
N5 N -0.0414(6) -0.4332(9) 0.3747(5)
N6 N -0.0334(7) -0.3510(11) 0.1701(5)
C21 C -0.0265(9) -0.4813(14) 0.4322(5)
H27 H 0.0083 -0.5421 0.4289
H28 H -0.0750 -0.5051 0.4482
H29 H -0.0034 -0.4271 0.4560
C22 C -0.0008(7) -0.4814(13) 0.3323(6)
C23 C -0.0084(6) -0.4424(8) 0.2767(5)
C24 C -0.0694(9) -0.3621(12) 0.263(2)
C25 C -0.1028(17) -0.3243(18) 0.3109(10)
H30 H -0.1352 -0.2644 0.3063
C26 C -0.0964(8) -0.3597(12) 0.3631(8)
H31 H -0.1295 -0.3339 0.3909
C27 C -0.0872(17) -0.307(2) 0.2154(14)
C28 C -0.0477(15) -0.3178(19) 0.1133(9)
H32 H -0.0982 -0.3449 0.1014
H33 H -0.0490 -0.2391 0.1114
C29 C 0.0096(12) -0.357(2) 0.0776(9)
H34 H -0.0085 -0.3571 0.0391
H35 H 0.0254 -0.4295 0.0880
C30 C 0.0793(18) -0.273(3) 0.0858(13)
H36 H 0.1208 -0.2902 0.0603
H37 H 0.0981 -0.2768 0.1236
H38 H 0.0609 -0.2004 0.0783
O10 O 0.2000(10) -0.5206(15) 0.3177(7)
O11 O 0.1575(6) -0.7168(7) 0.3472(5)
O12 O 0.1291(9) -0.7847(16) 0.5145(8)
N7 N 0.2447(10) -0.4852(16) 0.4030(9)
N8 N 0.0956(17) -0.8394(19) 0.4316(10)
H39 H 0.1115 -0.8476 0.3977
C31 C 0.2846(13) -0.390(2) 0.3769(9)
H40 H 0.2789 -0.3937 0.3369
H41 H 0.3391 -0.3915 0.3863
H42 H 0.2616 -0.3241 0.3905
C32 C 0.2129(12) -0.5591(19) 0.3667(11)
C33 C 0.1823(9) -0.6536(17) 0.3852(9)
C34 C 0.1800(13) -0.677(2) 0.4452(9)
C35 C 0.2105(9) -0.5970(15) 0.4782(7)
H43 H 0.2034 -0.6026 0.5167
C36 C 0.2494(11) -0.513(2) 0.4592(9)
H44 H 0.2801 -0.4714 0.4834
C37 C 0.130(2) -0.782(4) 0.4576(16)
C38 C 0.0221(8) -0.9076(11) 0.4486(6)
H45 H 0.0397 -0.9816 0.4548
H46 H 0.0043 -0.8801 0.4844
C39 C -0.0492(9) -0.9136(14) 0.4102(6)
H47 H -0.0318 -0.9203 0.3717
H48 H -0.0791 -0.9782 0.4193
C40 C -0.1004(12) -0.8175(16) 0.4151(9)
H49 H -0.1476 -0.8297 0.3943
H50 H -0.0740 -0.7549 0.4003
H51 H -0.1129 -0.8054 0.4538
O3B O 0.2457(4) -0.7144(6) 0.2598(12)
Th1B Th -0.382051(14) -0.86075(2) 0.25270(8)
O13 O -0.3092(5) -0.2329(7) 0.2570(12)
loop_
_geom_bond_atom_site_label_1
_geom_bond_atom_site_label_2
_geom_bond_site_symmetry_1
_geom_bond_site_symmetry_2
Th1 O1 1_555 1_555
O1 C2 1_555 1_555
O2 Th1 1_555 1_555
O3 C7 1_555 1_555
N1 C1 1_555 1_555
N2 H1 1_555 1_555
C1 H2 1_555 1_555
H3 C1 1_555 1_555
H4 C1 1_555 1_555
C2 N1 1_555 1_555
C3 O2 1_555 1_555
C4 C3 1_555 1_555
C5 C4 1_555 1_555
H5 C5 1_555 1_555
C6 N1 1_555 1_555
H6 C6 1_555 1_555
C7 N2 1_555 1_555
C8 N2 1_555 1_555
H7 C8 1_555 1_555
H8 C8 1_555 1_555
C9 C8 1_555 1_555
H9 C9 1_555 1_555
H10 C9 1_555 1_555
C10 C9 1_555 1_555
H11 C10 1_555 1_555
H12 C10 1_555 1_555
H13 C10 1_555 1_555
O4 Th1 1_555 1_555
O5 Th1 1_555 1_555
O6 C17 1_555 1_555
N3 C11 1_555 1_555
N4 H14 1_555 1_555
C11 H15 1_555 1_555
H16 C11 1_555 1_555
H17 C11 1_555 1_555
C12 O4 1_555 1_555
C13 O5 1_555 1_555
C14 C13 1_555 1_555
C15 C14 1_555 1_555
H18 C15 1_555 1_555
C16 N3 1_555 1_555
H19 C16 1_555 1_555
C17 N4 1_555 1_555
C18 N4 1_555 1_555
H20 C18 1_555 1_555
H21 C18 1_555 1_555
C19 C18 1_555 1_555
H22 C19 1_555 1_555
H23 C19 1_555 1_555
C20 C19 1_555 1_555
H24 C20 1_555 1_555
H25 C20 1_555 1_555
H26 C20 1_555 1_555
O7 Th1 1_555 1_555
O8 Th1 1_555 1_555
O9 C27 1_555 1_555
N5 C21 1_555 1_555
N6 C27 1_555 1_555
C21 H27 1_555 1_555
H28 C21 1_555 1_555
H29 C21 1_555 1_555
C22 O7 1_555 1_555
C23 O8 1_555 1_555
C24 C23 1_555 1_555
C25 C24 1_555 1_555
H30 C25 1_555 1_555
C26 N5 1_555 1_555
H31 C26 1_555 1_555
C27 C24 1_555 1_555
C28 N6 1_555 1_555
H32 C28 1_555 1_555
H33 C28 1_555 1_555
C29 C28 1_555 1_555
H34 C29 1_555 1_555
H35 C29 1_555 1_555
C30 C29 1_555 1_555
H36 C30 1_555 1_555
H37 C30 1_555 1_555
H38 C30 1_555 1_555
O10 Th1 1_555 1_555
O11 Th1 1_555 1_555
O12 C37 1_555 1_555
N7 C31 1_555 1_555
N8 H39 1_555 1_555
C31 H40 1_555 1_555
H41 C31 1_555 1_555
H42 C31 1_555 1_555
C32 O10 1_555 1_555
C33 O11 1_555 1_555
C34 C33 1_555 1_555
C35 C34 1_555 1_555
H43 C35 1_555 1_555
C36 N7 1_555 1_555
H44 C36 1_555 1_555
C37 N8 1_555 1_555
C38 N8 1_555 1_555
H45 C38 1_555 1_555
H46 C38 1_555 1_555
C39 C38 1_555 1_555
H47 C39 1_555 1_555
H48 C39 1_555 1_555
C40 C39 1_555 1_555
H49 C40 1_555 1_555
H50 C40 1_555 1_555
H51 C40 1_555 1_555
O3B Th1 1_555 1_555
Th1B O3 1_555 1_555
C2 C3 1_555 1_555
C4 C7 1_555 1_555
C5 C6 1_555 1_555
N3 C12 1_555 1_555
C12 C13 1_555 1_555
C14 C17 1_555 1_555
C15 C16 1_555 1_555
N5 C22 1_555 1_555
C22 C23 1_555 1_555
C25 C26 1_555 1_555
N7 C32 1_555 1_555
C32 C33 1_555 1_555
C34 C37 1_555 1_555
C35 C36 1_555 1_555

#END
