
#######################################################################
#
#                 Cambridge Crystallographic Data Centre
#                                CCDC 
#
#######################################################################
#
# If this CIF has been generated from an entry in the Cambridge 
# Structural Database, then it will include bibliographic, chemical, 
# crystal, experimental, refinement or atomic coordinate data resulting 
# from the CCDC's data processing and validation procedures.
#
#######################################################################

data_GACQOR
_symmetry_cell_setting           orthorhombic
_symmetry_space_group_name_H-M   'P m m n'
_symmetry_Int_Tables_number      59
_space_group_name_Hall           '-P 2ab 2a'
loop_
_symmetry_equiv_pos_site_id
_symmetry_equiv_pos_as_xyz
1 x,y,z
2 1/2+x,1/2+y,-z
3 1/2-x,y,z
4 x,1/2-y,z
5 -x,-y,-z
6 1/2-x,1/2-y,z
7 1/2+x,-y,-z
8 -x,1/2+y,-z
_cell_length_a                   14.80(2)
_cell_length_b                   14.54(2)
_cell_length_c                   7.325(10)
_cell_angle_alpha                90
_cell_angle_beta                 90
_cell_angle_gamma                90
_cell_volume                     1576.28
loop_
_atom_site_label
_atom_site_type_symbol
_atom_site_fract_x
_atom_site_fract_y
_atom_site_fract_z
Cu1 Cu 0.7500 0.04983(12) 0.92980(19)
Cu2 Cu 0.55084(10) 0.2500 0.56375(19)
O1 O 0.6179(4) 0.0448(5) 0.9084(7)
C1 C 0.5784(6) 0.0968(7) 0.7897(10)
O2 O 0.6173(4) 0.1574(4) 0.7035(8)
C2 C 0.4767(7) 0.0796(8) 0.7614(12)
H1 H 0.4629 0.0180 0.8042
H2 H 0.4436 0.1224 0.8379
C3 C 0.4419(6) 0.0887(8) 0.5685(12)
O3 O 0.3809(5) 0.0357(5) 0.5178(11)
O4 O 0.4698(4) 0.1568(4) 0.4661(8)
O5 O 0.7500 -0.0544(7) 1.1585(13)
O6 O 0.7500 -0.0471(7) 0.7354(13)
N1 N 0.7500 0.1645(7) 1.1061(12)
C4 C 0.6685(6) 0.1678(6) 1.2298(11)
H3 H 0.6141 0.1667 1.1559
H4 H 0.6682 0.1135 1.3069
N2 N 0.6675(6) 0.2500 1.3453(13)
C5 C 0.7500 0.2500 1.462(2)
H5 H 0.7500 0.1960 1.5400
H6 H 0.7500 0.3040 1.5400
C6 C 0.7500 0.2500 0.992(2)
H7 H 0.6970 0.2500 0.9142
H8 H 0.8030 0.2500 0.9142
C4C C 0.6685(6) 0.3322(6) 1.2298(11)
N1C N 0.7500 0.3355(7) 1.1061(12)
C4E C 0.8315(6) 0.3322(6) 1.2298(11)
H3E H 0.8859 0.3333 1.1559
H4E H 0.8318 0.3865 1.3069
N2E N 0.8325(6) 0.2500 1.3453(13)
C4B C 0.8315(6) 0.1678(6) 1.2298(11)
H3B H 0.8859 0.1667 1.1559
H4B H 0.8318 0.1135 1.3069
H3C H 0.6141 0.3333 1.1559
H4C H 0.6682 0.3865 1.3069
O1B O 0.8821(4) 0.0448(5) 0.9084(7)
C1B C 0.9216(6) 0.0968(7) 0.7897(10)
O2B O 0.8827(4) 0.1574(4) 0.7035(8)
C2B C 1.0233(7) 0.0796(8) 0.7614(12)
H1B H 1.0371 0.0180 0.8042
H2B H 1.0564 0.1224 0.8379
C3B C 1.0581(6) 0.0887(8) 0.5685(12)
O3B O 1.1191(5) 0.0357(5) 0.5178(11)
O4B O 1.0302(4) 0.1568(4) 0.4661(8)
Cu1C Cu 0.7500 0.45017(12) 0.92980(19)
Cu2B Cu 0.94916(10) 0.2500 0.56375(19)
O1C O 0.6179(4) 0.4552(5) 0.9084(7)
C1C C 0.5784(6) 0.4032(7) 0.7897(10)
O2C O 0.6173(4) 0.3426(4) 0.7035(8)
C2C C 0.4767(7) 0.4204(8) 0.7614(12)
H1C H 0.4629 0.4820 0.8042
H2C H 0.4436 0.3776 0.8379
C3C C 0.4419(6) 0.4113(8) 0.5685(12)
O3C O 0.3809(5) 0.4643(5) 0.5178(11)
O4C O 0.4698(4) 0.3432(4) 0.4661(8)
O1E O 0.8821(4) 0.4552(5) 0.9084(7)
C1E C 0.9216(6) 0.4032(7) 0.7897(10)
O2E O 0.8827(4) 0.3426(4) 0.7035(8)
C2E C 1.0233(7) 0.4204(8) 0.7614(12)
H1E H 1.0371 0.4820 0.8042
H2E H 1.0564 0.3776 0.8379
C3E C 1.0581(6) 0.4113(8) 0.5685(12)
O3E O 1.1191(5) 0.4643(5) 0.5178(11)
O4E O 1.0302(4) 0.3432(4) 0.4661(8)
O5C O 0.7500 0.5544(7) 1.1585(13)
O6C O 0.7500 0.5471(7) 0.7354(13)
N2_2 N 0.6675(6) 0.2500 0.3453(13)
Cu2_2 Cu 0.55084(10) 0.2500 1.56375(19)
Cu2B_2 Cu 0.94916(10) 0.2500 1.56375(19)
N2B N 0.8325(6) 0.2500 0.3453(13)
O7 O 0.4238(11) 0.2500 0.1292(18)
O8 O 0.7500 -0.2500 1.045(3)
loop_
_geom_bond_atom_site_label_1
_geom_bond_atom_site_label_2
_geom_bond_site_symmetry_1
_geom_bond_site_symmetry_2
Cu1 O1 1_555 1_555
Cu2 O2 1_555 1_555
O1 C1 1_555 1_555
C1 O2 1_555 1_555
C2 C1 1_555 1_555
H1 C2 1_555 1_555
H2 C2 1_555 1_555
C3 C2 1_555 1_555
O3 C3 1_555 1_555
O4 Cu2 1_555 1_555
O5 Cu1 1_555 1_555
O6 Cu1 1_555 1_555
N1 Cu1 1_555 1_555
C4 N1 1_555 1_555
H3 C4 1_555 1_555
H4 C4 1_555 1_555
N2 C4 1_555 1_555
C5 N2 1_555 1_555
H5 C5 1_555 1_555
H6 C5 1_555 1_555
C6 N1 1_555 1_555
H7 C6 1_555 1_555
H8 C6 1_555 1_555
C4C N2 1_555 1_555
N1C C6 1_555 1_555
C4E N1C 1_555 1_555
H3E C4E 1_555 1_555
H4E C4E 1_555 1_555
N2E C5 1_555 1_555
C4B N1 1_555 1_555
H3B C4B 1_555 1_555
H4B C4B 1_555 1_555
H3C C4C 1_555 1_555
H4C C4C 1_555 1_555
O1B Cu1 1_555 1_555
C1B O1B 1_555 1_555
O2B C1B 1_555 1_555
C2B C1B 1_555 1_555
H1B C2B 1_555 1_555
H2B C2B 1_555 1_555
C3B C2B 1_555 1_555
O3B C3B 1_555 1_555
O4B C3B 1_555 1_555
Cu1C N1C 1_555 1_555
Cu2B O2B 1_555 1_555
O1C Cu1C 1_555 1_555
C1C O1C 1_555 1_555
O2C Cu2 1_555 1_555
C2C C1C 1_555 1_555
H1C C2C 1_555 1_555
H2C C2C 1_555 1_555
C3C C2C 1_555 1_555
O3C C3C 1_555 1_555
O4C Cu2 1_555 1_555
O1E Cu1C 1_555 1_555
C1E O1E 1_555 1_555
O2E Cu2B 1_555 1_555
C2E C1E 1_555 1_555
H1E C2E 1_555 1_555
H2E C2E 1_555 1_555
C3E C2E 1_555 1_555
O3E C3E 1_555 1_555
O4E Cu2B 1_555 1_555
O5C Cu1C 1_555 1_555
O6C Cu1C 1_555 1_555
N2_2 Cu2 1_555 1_555
Cu2_2 N2 1_555 1_555
Cu2B_2 N2E 1_555 1_555
N2B Cu2B 1_555 1_555
C3 O4 1_555 1_555
C4C N1C 1_555 1_555
C4E N2E 1_555 1_555
N2E C4B 1_555 1_555
O4B Cu2B 1_555 1_555
C1C O2C 1_555 1_555
C3C O4C 1_555 1_555
C1E O2E 1_555 1_555
C3E O4E 1_555 1_555

#END
