
#######################################################################
#
#                 Cambridge Crystallographic Data Centre
#                                CCDC 
#
#######################################################################
#
# If this CIF has been generated from an entry in the Cambridge 
# Structural Database, then it will include bibliographic, chemical, 
# crystal, experimental, refinement or atomic coordinate data resulting 
# from the CCDC's data processing and validation procedures.
#
#######################################################################

data_GACTUA
_symmetry_cell_setting           monoclinic
_symmetry_space_group_name_H-M   'C 2/c'
_symmetry_Int_Tables_number      15
_space_group_name_Hall           '-C 2yn'
loop_
_symmetry_equiv_pos_site_id
_symmetry_equiv_pos_as_xyz
1 x,y,z
2 1/2+x,1/2+y,z
3 -x,y,1/2-z
4 1/2-x,1/2+y,1/2-z
5 -x,-y,-z
6 1/2-x,1/2-y,-z
7 x,-y,1/2+z
8 1/2+x,1/2-y,1/2+z
_cell_length_a                   15.0691(4)
_cell_length_b                   7.8290(3)
_cell_length_c                   17.4369(4)
_cell_angle_alpha                90
_cell_angle_beta                 96.088(2)
_cell_angle_gamma                90
_cell_volume                     2045.53
loop_
_atom_site_label
_atom_site_type_symbol
_atom_site_fract_x
_atom_site_fract_y
_atom_site_fract_z
Mn1 Mn 0.11158(2) 0.13528(4) 0.268636(19)
N1 N 0.18314(13) 0.3118(3) 0.35887(11)
N2 N 0.04154(12) 0.4044(2) 0.27167(11)
N3 N -0.01186(13) 0.0766(3) 0.33005(11)
N4 N -0.01918(13) 0.1379(3) 0.39286(12)
N5 N -0.02532(18) 0.1959(4) 0.45251(14)
N6 N 0.1750(2) -0.0948(4) 0.30956(17)
N7 N 0.23456(15) -0.1862(3) 0.30652(12)
N8 N 0.29151(19) -0.2835(4) 0.30735(16)
C1 C 0.26570(17) 0.2844(4) 0.39230(14)
H1 H 0.2968 0.1907 0.3763
C2 C 0.30733(19) 0.3874(4) 0.44922(16)
H2 H 0.3661 0.3674 0.4691
C3 C 0.2600(2) 0.5194(4) 0.47565(15)
H3 H 0.2852 0.5867 0.5162
C4 C 0.17412(18) 0.5533(3) 0.44193(14)
H4 H 0.1409 0.6425 0.4595
C5 C 0.13930(15) 0.4507(3) 0.38137(13)
C6 C 0.05281(15) 0.4872(3) 0.33521(13)
C7 C -0.0127(2) 0.6112(4) 0.36153(18)
H5 H -0.0641 0.6170 0.3240
H6 H 0.0144 0.7221 0.3674
H7 H -0.0306 0.5744 0.4101
N2B N -0.04154(12) 0.4044(2) 0.22833(11)
C6B C -0.05281(15) 0.4872(3) 0.16479(13)
C5B C -0.13930(15) 0.4507(3) 0.11863(13)
N1B N -0.18314(13) 0.3118(3) 0.14113(11)
C1B C -0.26570(17) 0.2844(4) 0.10770(14)
H1B H -0.2968 0.1907 0.1237
C2B C -0.30733(19) 0.3874(4) 0.05078(16)
H2B H -0.3661 0.3674 0.0309
C3B C -0.2600(2) 0.5194(4) 0.02435(15)
H3B H -0.2852 0.5867 -0.0162
C4B C -0.17412(18) 0.5533(3) 0.05807(14)
H4B H -0.1409 0.6425 0.0405
C7B C 0.0127(2) 0.6112(4) 0.13847(18)
H5B H 0.0641 0.6170 0.1760
H6B H -0.0144 0.7221 0.1326
H7B H 0.0306 0.5744 0.0899
N3B N 0.01186(13) 0.0766(3) 0.16995(11)
N4B N 0.01918(13) 0.1379(3) 0.10714(12)
N5B N 0.02532(18) 0.1959(4) 0.04749(14)
N6C N 0.3250(2) 0.4052(4) 0.19044(17)
N7C N 0.26544(15) 0.3138(3) 0.19348(12)
N8C N 0.20849(19) 0.2165(4) 0.19265(16)
Mn1B Mn -0.11158(2) 0.13528(4) 0.231364(19)
Mn1C Mn 0.38842(2) -0.36472(4) 0.231364(19)
Mn1C_2 Mn 0.38842(2) 0.63528(4) 0.231364(19)
N6B N -0.1750(2) -0.0948(4) 0.19044(17)
N8A N -0.20849(19) 0.2165(4) 0.30735(16)
loop_
_geom_bond_atom_site_label_1
_geom_bond_atom_site_label_2
_geom_bond_site_symmetry_1
_geom_bond_site_symmetry_2
Mn1 N1 1_555 1_555
N1 C1 1_555 1_555
N2 Mn1 1_555 1_555
N3 Mn1 1_555 1_555
N4 N3 1_555 1_555
N5 N4 1_555 1_555
N6 Mn1 1_555 1_555
N7 N6 1_555 1_555
N8 N7 1_555 1_555
C1 H1 1_555 1_555
C2 C1 1_555 1_555
H2 C2 1_555 1_555
C3 C2 1_555 1_555
H3 C3 1_555 1_555
C4 C3 1_555 1_555
H4 C4 1_555 1_555
C5 N1 1_555 1_555
C6 N2 1_555 1_555
C7 C6 1_555 1_555
H5 C7 1_555 1_555
H6 C7 1_555 1_555
H7 C7 1_555 1_555
N2B N2 1_555 1_555
C6B N2B 1_555 1_555
C5B C6B 1_555 1_555
N1B C5B 1_555 1_555
C1B N1B 1_555 1_555
H1B C1B 1_555 1_555
C2B C1B 1_555 1_555
H2B C2B 1_555 1_555
C3B C2B 1_555 1_555
H3B C3B 1_555 1_555
C4B C5B 1_555 1_555
H4B C4B 1_555 1_555
C7B C6B 1_555 1_555
H5B C7B 1_555 1_555
H6B C7B 1_555 1_555
H7B C7B 1_555 1_555
N3B Mn1 1_555 1_555
N4B N3B 1_555 1_555
N5B N4B 1_555 1_555
N6C N7C 1_555 1_555
N7C N8C 1_555 1_555
N8C Mn1 1_555 1_555
Mn1B N3 1_555 1_555
Mn1C N8 1_555 1_555
Mn1C_2 N6C 1_555 1_555
N6B Mn1B 1_555 1_555
N8A Mn1B 1_555 1_555
C4 C5 1_555 1_555
C5 C6 1_555 1_555
N2B Mn1B 1_555 1_555
N1B Mn1B 1_555 1_555
C3B C4B 1_555 1_555
N3B Mn1B 1_555 1_555

#END
