
#######################################################################
#
#                 Cambridge Crystallographic Data Centre
#                                CCDC 
#
#######################################################################
#
# If this CIF has been generated from an entry in the Cambridge 
# Structural Database, then it will include bibliographic, chemical, 
# crystal, experimental, refinement or atomic coordinate data resulting 
# from the CCDC's data processing and validation procedures.
#
#######################################################################

data_GADKOM
_symmetry_cell_setting           orthorhombic
_symmetry_space_group_name_H-M   'P b c a'
_symmetry_Int_Tables_number      61
_space_group_name_Hall           '-P 2ac 2ab'
loop_
_symmetry_equiv_pos_site_id
_symmetry_equiv_pos_as_xyz
1 x,y,z
2 1/2+x,y,1/2-z
3 x,1/2-y,1/2+z
4 1/2-x,1/2+y,z
5 -x,-y,-z
6 1/2-x,-y,1/2+z
7 -x,1/2+y,1/2-z
8 1/2+x,1/2-y,-z
_cell_length_a                   19.406(4)
_cell_length_b                   18.466(4)
_cell_length_c                   21.579(4)
_cell_angle_alpha                90
_cell_angle_beta                 90
_cell_angle_gamma                90
_cell_volume                     7732.86
loop_
_atom_site_label
_atom_site_type_symbol
_atom_site_fract_x
_atom_site_fract_y
_atom_site_fract_z
Ni1 Ni 0.14359(3) 0.83834(3) 0.04007(3)
Ni2 Ni -0.01434(3) 0.83357(3) 0.04184(3)
Ni3 Ni -0.15380(3) 0.86535(3) 0.00678(3)
Ni4 Ni -0.28336(3) 0.76039(4) 0.05397(3)
Ni5 Ni -0.07683(3) 1.01097(3) 0.01988(3)
O1 O -0.05231(19) 0.84999(19) -0.04869(19)
O2 O 0.02150(17) 1.03417(18) 0.05755(17)
O3 O 0.0077(2) 0.8192(2) 0.1321(2)
O4 O 0.1227(2) 0.8230(2) 0.1307(2)
O5 O -0.10729(19) 0.77424(18) 0.04352(19)
O6 O -0.19560(19) 0.7080(2) 0.0773(2)
O7 O 0.06430(18) 0.76412(19) 0.0152(2)
O8 O -0.3749(2) 0.8104(2) 0.0437(2)
O9 O 0.2087(2) 0.92376(19) 0.0580(2)
O10 O -0.16501(17) 0.97275(19) -0.02170(19)
O11 O -0.23744(19) 0.86036(19) 0.06028(19)
O12 O -0.2800(2) 0.8133(2) 0.1443(2)
O13 O 0.16758(19) 0.83791(19) -0.05383(18)
O14 O -0.12273(19) 1.06056(19) 0.09198(19)
O15 O -0.19774(19) 0.8160(2) -0.06452(18)
O16 O 0.22291(19) 0.76462(19) 0.03704(18)
O17 O 0.06390(16) 0.90354(18) 0.03379(17)
O18 O -0.08371(17) 0.91405(17) 0.06190(17)
C1 C -0.0399(3) 0.9058(3) -0.0810(3)
C2 C -0.0508(3) 0.9008(4) -0.1480(3)
C3 C -0.0141(4) 0.9552(5) -0.1892(3)
C4 C -0.0897(5) 0.9631(5) -0.1783(4)
C5 C 0.0653(3) 0.8191(4) 0.1569(3)
C6 C 0.0687(5) 0.8148(8) 0.2250(4)
C7 C 0.0093(7) 0.7867(10) 0.2594(6)
C8 C 0.0152(12) 0.8715(10) 0.2569(8)
C9 C -0.1332(3) 0.7213(3) 0.0741(3)
C10 C -0.0832(4) 0.6745(3) 0.1078(4)
C11 C -0.1047(6) 0.6470(6) 0.1707(5)
C12 C -0.1047(5) 0.5970(4) 0.1207(6)
C13 C 0.0700(3) 0.7107(3) -0.0211(3)
C14 C 0.0065(4) 0.6694(4) -0.0359(4)
C15 C 0.0086(7) 0.5891(6) -0.0217(8)
C16 C 0.0086(5) 0.6135(6) -0.0851(6)
C17 C 0.2133(3) 0.9894(3) 0.0474(3)
C18 C 0.2770(3) 1.0281(4) 0.0647(4)
C19 C 0.3403(5) 0.9863(6) 0.0729(9)
C20 C 0.3081(10) 1.0079(9) 0.1252(8)
C21 C -0.2495(3) 0.8645(3) 0.1187(3)
C22 C -0.2273(4) 0.9302(4) 0.1530(4)
C23 C -0.1921(13) 0.9194(10) 0.2124(6)
C24 C -0.2592(10) 0.9433(11) 0.2133(8)
C25 C 0.1530(3) 0.8801(3) -0.0987(3)
C26 C 0.1743(5) 0.8585(4) -0.1627(4)
C27 C -0.2333(3) 0.7618(3) -0.0761(3)
C28 C -0.2262(3) 0.7240(3) -0.1352(3)
C29 C -0.2028(4) 0.7686(5) -0.1903(3)
C30 C -0.1532(4) 0.7196(4) -0.1603(4)
O13G O -0.33242(19) 0.66209(19) 0.05383(18)
O16G O -0.27709(19) 0.73538(19) -0.03704(18)
O2D O -0.02150(17) 0.96583(18) -0.05755(17)
O17D O -0.06390(16) 1.09646(18) -0.03379(17)
C1D C 0.0399(3) 1.0942(3) 0.0810(3)
Ni5D Ni 0.07683(3) 0.98903(3) -0.01988(3)
C13G C -0.4300(3) 0.7893(3) 0.0211(3)
C17D C -0.2133(3) 1.0106(3) -0.0474(3)
Ni4G Ni 0.21664(3) 0.73961(4) -0.05397(3)
C25D C -0.1530(3) 1.1199(3) 0.0987(3)
C27G C 0.2667(3) 0.7382(3) 0.0761(3)
O8G O 0.1251(2) 0.6896(2) -0.0437(2)
O10D O 0.16501(17) 1.02725(19) 0.02170(19)
O14D O 0.12273(19) 0.93944(19) -0.09198(19)
loop_
_geom_bond_atom_site_label_1
_geom_bond_atom_site_label_2
_geom_bond_site_symmetry_1
_geom_bond_site_symmetry_2
Ni1 O4 1_555 1_555
Ni2 O1 1_555 1_555
Ni3 O1 1_555 1_555
Ni4 O6 1_555 1_555
Ni5 O2 1_555 1_555
O1 C1 1_555 1_555
O2 C1D 1_555 1_555
O3 Ni2 1_555 1_555
O4 C5 1_555 1_555
O5 Ni2 1_555 1_555
O6 C9 1_555 1_555
O7 Ni1 1_555 1_555
O8 Ni4 1_555 1_555
O9 Ni1 1_555 1_555
O10 Ni3 1_555 1_555
O11 Ni3 1_555 1_555
O12 Ni4 1_555 1_555
O13 Ni1 1_555 1_555
O14 Ni5 1_555 1_555
O15 Ni3 1_555 1_555
O16 Ni1 1_555 1_555
O17 Ni1 1_555 1_555
O18 Ni2 1_555 1_555
C1 C2 1_555 1_555
C2 C3 1_555 1_555
C3 C4 1_555 1_555
C4 C2 1_555 1_555
C5 O3 1_555 1_555
C6 C5 1_555 1_555
C7 C6 1_555 1_555
C8 C6 1_555 1_555
C9 O5 1_555 1_555
C10 C9 1_555 1_555
C11 C10 1_555 1_555
C12 C10 1_555 1_555
C13 O7 1_555 1_555
C14 C13 1_555 1_555
C15 C14 1_555 1_555
C16 C14 1_555 1_555
C17 O9 1_555 1_555
C18 C17 1_555 1_555
C19 C18 1_555 1_555
C20 C18 1_555 1_555
C21 O11 1_555 1_555
C22 C21 1_555 1_555
C23 C22 1_555 1_555
C24 C22 1_555 1_555
C25 O13 1_555 1_555
C26 C25 1_555 1_555
C27 O15 1_555 1_555
C28 C27 1_555 1_555
C29 C28 1_555 1_555
C30 C28 1_555 1_555
O13G Ni4 1_555 1_555
O16G Ni4 1_555 1_555
O2D Ni5 1_555 1_555
O17D Ni5 1_555 1_555
Ni5D O2 1_555 1_555
C13G O8 1_555 1_555
C17D O10 1_555 1_555
Ni4G O13 1_555 1_555
C25D O14 1_555 1_555
C27G O16 1_555 1_555
O8G C13 1_555 1_555
O10D C17 1_555 1_555
O14D C25 1_555 1_555
Ni2 O7 1_555 1_555
Ni2 O17 1_555 1_555
Ni3 O5 1_555 1_555
Ni3 O18 1_555 1_555
Ni4 O11 1_555 1_555
Ni5 O10 1_555 1_555
Ni5 O18 1_555 1_555
O12 C21 1_555 1_555
O16 Ni4G 1_555 1_555
O17 Ni5D 1_555 1_555
C1 O2D 1_555 1_555
C7 C8 1_555 1_555
C11 C12 1_555 1_555
C15 C16 1_555 1_555
C19 C20 1_555 1_555
C23 C24 1_555 1_555
C27 O16G 1_555 1_555
C29 C30 1_555 1_555
O2D Ni5D 1_555 1_555
Ni5D O10D 1_555 1_555
Ni5D O14D 1_555 1_555
Ni4G O8G 1_555 1_555

#END
