
#######################################################################
#
#                 Cambridge Crystallographic Data Centre
#                                CCDC 
#
#######################################################################
#
# If this CIF has been generated from an entry in the Cambridge 
# Structural Database, then it will include bibliographic, chemical, 
# crystal, experimental, refinement or atomic coordinate data resulting 
# from the CCDC's data processing and validation procedures.
#
#######################################################################

data_GADQAF
_symmetry_cell_setting           monoclinic
_symmetry_space_group_name_H-M   'P 21/c'
_symmetry_Int_Tables_number      14
_space_group_name_Hall           '-P 2ybc'
loop_
_symmetry_equiv_pos_site_id
_symmetry_equiv_pos_as_xyz
1 x,y,z
2 -x,1/2+y,1/2-z
3 -x,-y,-z
4 x,1/2-y,1/2+z
_cell_length_a                   20.229(4)
_cell_length_b                   26.431(5)
_cell_length_c                   10.763(2)
_cell_angle_alpha                90
_cell_angle_beta                 103.057(3)
_cell_angle_gamma                90
_cell_volume                     5605.9
loop_
_atom_site_label
_atom_site_type_symbol
_atom_site_fract_x
_atom_site_fract_y
_atom_site_fract_z
C1 C 0.15767(18) 1.74505(14) 0.9100(3)
C2 C 0.18602(18) 1.71517(14) 1.0140(3)
H1 H 0.2134 1.7298 1.0862
C3 C 0.17367(17) 1.66302(14) 1.0106(3)
C4 C 0.13618(18) 1.64131(14) 0.8982(3)
H2 H 0.1289 1.6065 0.8949
C5 C 0.10938(17) 1.67061(14) 0.7906(3)
C6 C 0.11990(18) 1.72295(14) 0.7990(3)
H3 H 0.1014 1.7433 0.7294
C7 C 0.07101(17) 1.64869(13) 0.6659(3)
H4 H 0.0256 1.6629 0.6460
H5 H 0.0933 1.6590 0.5991
C8 C 0.06548(18) 1.59138(14) 0.6646(3)
C9 C 0.12093(18) 1.56086(13) 0.6616(3)
H6 H 0.1619 1.5757 0.6565
C10 C 0.11626(18) 1.50805(14) 0.6661(3)
C11 C 0.05482(19) 1.48684(14) 0.6732(3)
H7 H 0.0512 1.4518 0.6762
C12 C -0.00080(19) 1.51578(14) 0.6760(3)
C13 C 0.00449(19) 1.56878(14) 0.6678(3)
H8 H -0.0337 1.5888 0.6644
C14 C 0.17192(17) 1.80117(14) 0.9145(3)
C15 C 0.19998(18) 1.63122(13) 1.1263(3)
C16 C 0.17700(18) 1.47643(13) 0.6601(3)
C17 C -0.06545(16) 1.49299(13) 0.6955(3)
C18 C 0.32739(18) 1.16385(14) 0.4678(3)
C19 C 0.36341(17) 1.14307(14) 0.5817(3)
H9 H 0.3708 1.1083 0.5863
C20 C 0.38835(18) 1.17202(14) 0.6873(3)
C21 C 0.37757(17) 1.22507(13) 0.6795(3)
H10 H 0.3954 1.2456 0.7492
C22 C 0.34071(17) 1.24601(13) 0.5686(3)
C23 C 0.31393(17) 1.21557(14) 0.4635(3)
H11 H 0.2870 1.2298 0.3903
C24 C 0.42472(19) 1.15008(14) 0.8148(3)
H12 H 0.4005 1.1605 0.8786
H13 H 0.4697 1.1649 0.8379
C25 C 0.43232(17) 1.09273(13) 0.8213(3)
C26 C 0.49455(18) 1.07037(14) 0.8292(3)
H14 H 0.5325 1.0906 0.8328
C27 C 0.50161(18) 1.01750(14) 0.8320(3)
C28 C 0.44579(17) 0.98816(13) 0.8335(3)
H15 H 0.4501 0.9531 0.8384
C29 C 0.38252(19) 1.01059(14) 0.8277(3)
C30 C 0.37629(18) 1.06251(13) 0.8204(3)
H16 H 0.3341 1.0774 0.8149
C31 C 0.30244(17) 1.13228(13) 0.3520(3)
C32 C 0.32526(17) 1.30182(13) 0.5610(3)
C33 C 0.56761(18) 0.99408(14) 0.8256(3)
C34 C 0.32152(19) 0.97678(14) 0.8255(3)
C35 C 0.33097(19) 1.56251(13) 0.8973(3)
H17 H 0.2914 1.5763 0.8478
C36 C 0.4104(2) 1.51230(15) 0.9740(3)
H18 H 0.4370 1.4832 0.9874
C37 C 0.4243(2) 1.55549(15) 1.0439(3)
H19 H 0.4613 1.5615 1.1112
C38 C 0.3658(2) 1.63902(15) 1.0374(4)
H20 H 0.3316 1.6559 0.9729
H21 H 0.3494 1.6380 1.1154
C39 C 0.4303(2) 1.66940(14) 1.0605(3)
H22 H 0.4200 1.7035 1.0839
H23 H 0.4618 1.6549 1.1332
C40 C 0.4656(2) 1.67293(16) 0.9512(4)
H24 H 0.5095 1.6887 0.9823
H25 H 0.4736 1.6389 0.9243
C41 C 0.4279(2) 1.70225(14) 0.8351(3)
H26 H 0.3846 1.6860 0.8012
H27 H 0.4540 1.7011 0.7697
C42 C 0.3549(2) 1.77566(16) 0.8652(4)
H28 H 0.3142 1.7578 0.8475
C43 C 0.4627(2) 1.79302(14) 0.8955(3)
H29 H 0.5092 1.7903 0.9021
C44 C 0.42851(18) 1.83560(15) 0.9151(3)
H30 H 0.4481 1.8670 0.9386
C45 C 0.14568(19) 1.27860(14) 0.6359(4)
H31 H 0.1863 1.2607 0.6516
C46 C 0.07208(18) 1.33625(14) 0.5819(3)
H32 H 0.0518 1.3668 0.5522
C47 C 0.03903(16) 1.29626(13) 0.6180(3)
H33 H -0.0067 1.2943 0.6191
C48 C 0.0768(2) 1.20871(14) 0.6976(3)
H34 H 0.1206 1.1951 0.7401
H35 H 0.0492 1.2108 0.7603
C49 C 0.0438(2) 1.17269(16) 0.5943(4)
H36 H 0.0460 1.1390 0.6306
H37 H -0.0038 1.1817 0.5673
C50 C 0.0731(2) 1.17064(17) 0.4779(4)
H38 H 0.1215 1.1769 0.5037
H39 H 0.0533 1.1977 0.4207
C51 C 0.0621(2) 1.12159(16) 0.4059(4)
H40 H 0.0696 1.1268 0.3209
H41 H 0.0154 1.1109 0.3973
C52 C 0.1697(2) 1.07584(15) 0.4542(4)
H42 H 0.1902 1.0938 0.3986
C53 C 0.1987(2) 1.03867(15) 0.5347(4)
H43 H 0.2432 1.0274 0.5454
C54 C 0.09710(18) 1.04754(14) 0.5530(3)
H44 H 0.0561 1.0433 0.5770
N1 N 0.35295(16) 1.51740(12) 0.8825(3)
N2 N 0.37395(15) 1.58746(11) 0.9961(3)
N3 N 0.41621(15) 1.75516(12) 0.8645(3)
N4 N 0.36051(15) 1.82468(12) 0.8947(3)
N5 N 0.13875(15) 1.32557(11) 0.5950(3)
N6 N 0.08656(15) 1.25967(11) 0.6523(3)
N7 N 0.10708(18) 1.08197(13) 0.4691(3)
N8 N 0.15168(15) 1.01998(11) 0.5987(3)
Ni1 Ni 0.21711(2) 1.372070(16) 0.58271(4)
Ni2 Ni 0.28137(2) 1.872110(17) 0.89543(4)
Ni3 Ni -0.17115(2) 1.468100(17) 0.75750(4)
Ni4 Ni 0.32673(2) 1.467480(17) 0.73445(4)
O1 O 0.12525(11) 1.83023(9) 0.8667(2)
O2 O 0.23125(12) 1.81429(9) 0.9718(2)
O3 O 0.18426(12) 1.58487(9) 1.1181(2)
O4 O 0.23598(13) 1.65329(9) 1.2208(2)
O5 O 0.23371(12) 1.49814(10) 0.6764(2)
O6 O 0.16663(12) 1.42963(9) 0.6436(2)
O7 O -0.06281(13) 1.45509(10) 0.7671(2)
O8 O -0.12201(12) 1.51316(8) 0.6456(2)
O9 O 0.26427(13) 1.15298(9) 0.2575(2)
O10 O 0.32014(12) 1.08627(9) 0.3603(2)
O11 O 0.26551(12) 1.31430(9) 0.5049(2)
O12 O 0.37199(12) 1.33251(9) 0.6080(2)
O13 O 0.56662(12) 0.95413(10) 0.7627(2)
O14 O 0.62291(12) 1.01604(9) 0.8723(2)
O15 O 0.33242(12) 0.93012(9) 0.8366(2)
O16 O 0.26478(12) 0.99794(9) 0.8118(2)
O17 O 0.17152(12) 1.39359(9) 0.3989(2)
H45 H 0.2011 1.3941 0.3541
H46 H 0.1546 1.4217 0.3995
O18 O 0.32347(14) 1.89423(10) 1.0796(2)
H47 H 0.2925 1.8960 1.1213
H48 H 0.3418 1.9219 1.0796
O21 O 0.30551(12) 1.41631(9) 0.5808(2)
H53 H 0.3395 1.4090 0.5502
H54 H 0.2759 1.4358 0.5363
O22 O 0.1988(7) 1.9217(4) 0.8988(14)
H55 H 0.1652 1.9019 0.8921
H56 H 0.2037 1.9376 0.9690
N8A N -0.15168(15) 1.51998(11) 0.9013(3)
Ni1C Ni 0.21711(2) 1.127930(16) 0.08271(4)
Ni2C Ni 0.28137(2) 1.627890(17) 1.39543(4)
Ni2_2 Ni 0.28137(2) 0.872110(17) 0.89543(4)
Ni3A Ni 0.17115(2) 0.968100(17) 0.74250(4)
Ni3B Ni 0.17115(2) 1.531900(17) 1.24250(4)
Ni3A_2 Ni 0.17115(2) 1.968100(17) 0.74250(4)
Ni4C Ni 0.32673(2) 1.032520(17) 0.23445(4)
Ni4A Ni 0.67327(2) 0.967480(17) 0.76555(4)
O3B O -0.18426(12) 1.41513(9) 0.8819(2)
O4C O 0.23598(13) 1.84671(9) 0.7208(2)
O9C O 0.26427(13) 1.34702(9) 0.7575(2)
O10C O 0.32014(12) 1.41373(9) 0.8603(2)
O13A O 0.43338(12) 1.45413(10) 0.7373(2)
O14A O 0.37709(12) 1.51604(9) 0.6277(2)
O15_2 O 0.33242(12) 1.93012(9) 0.8366(2)
O16A O -0.26478(12) 1.49794(9) 0.6882(2)
O22A O -0.1988(7) 1.4217(4) 0.6012(14)
H55A H -0.1652 1.4019 0.6079
H56A H -0.2037 1.4376 0.5310
O19 O 0.2610(2) 0.67130(17) 0.7345(4)
H49 H 0.2515 0.6763 0.6545
H50 H 0.2419 0.6938 0.7707
O20 O 0.2339(2) 0.33703(19) 0.2414(4)
H51 H 0.2579 0.3618 0.2272
H52 H 0.2423 0.3113 0.2001
H57? H 0.1512 0.6113 0.3831
H58? H 0.1896 0.5756 0.4600
O23? O 0.1848(7) 0.5914(5) 0.3897(15)
loop_
_geom_bond_atom_site_label_1
_geom_bond_atom_site_label_2
_geom_bond_site_symmetry_1
_geom_bond_site_symmetry_2
C1 C2 1_555 1_555
C2 H1 1_555 1_555
C3 C2 1_555 1_555
C4 C3 1_555 1_555
H2 C4 1_555 1_555
C5 C4 1_555 1_555
C6 C1 1_555 1_555
H3 C6 1_555 1_555
C7 C5 1_555 1_555
H4 C7 1_555 1_555
H5 C7 1_555 1_555
C8 C7 1_555 1_555
C9 C8 1_555 1_555
H6 C9 1_555 1_555
C10 C9 1_555 1_555
C11 C10 1_555 1_555
H7 C11 1_555 1_555
C12 C11 1_555 1_555
C13 C8 1_555 1_555
H8 C13 1_555 1_555
C14 C1 1_555 1_555
C15 C3 1_555 1_555
C16 C10 1_555 1_555
C17 C12 1_555 1_555
C18 C19 1_555 1_555
C19 H9 1_555 1_555
C20 C19 1_555 1_555
C21 C20 1_555 1_555
H10 C21 1_555 1_555
C22 C21 1_555 1_555
C23 C18 1_555 1_555
H11 C23 1_555 1_555
C24 C20 1_555 1_555
H12 C24 1_555 1_555
H13 C24 1_555 1_555
C25 C24 1_555 1_555
C26 C25 1_555 1_555
H14 C26 1_555 1_555
C27 C26 1_555 1_555
C28 C27 1_555 1_555
H15 C28 1_555 1_555
C29 C28 1_555 1_555
C30 C25 1_555 1_555
H16 C30 1_555 1_555
C31 C18 1_555 1_555
C32 C22 1_555 1_555
C33 C27 1_555 1_555
C34 C29 1_555 1_555
C35 H17 1_555 1_555
C36 H18 1_555 1_555
C37 C36 1_555 1_555
H19 C37 1_555 1_555
C38 H20 1_555 1_555
H21 C38 1_555 1_555
C39 C38 1_555 1_555
H22 C39 1_555 1_555
H23 C39 1_555 1_555
C40 C39 1_555 1_555
H24 C40 1_555 1_555
H25 C40 1_555 1_555
C41 C40 1_555 1_555
H26 C41 1_555 1_555
H27 C41 1_555 1_555
C42 H28 1_555 1_555
C43 H29 1_555 1_555
C44 C43 1_555 1_555
H30 C44 1_555 1_555
C45 H31 1_555 1_555
C46 H32 1_555 1_555
C47 C46 1_555 1_555
H33 C47 1_555 1_555
C48 H34 1_555 1_555
H35 C48 1_555 1_555
C49 C48 1_555 1_555
H36 C49 1_555 1_555
H37 C49 1_555 1_555
C50 C49 1_555 1_555
H38 C50 1_555 1_555
H39 C50 1_555 1_555
C51 C50 1_555 1_555
H40 C51 1_555 1_555
H41 C51 1_555 1_555
C52 H42 1_555 1_555
C53 C52 1_555 1_555
H43 C53 1_555 1_555
C54 H44 1_555 1_555
N1 C35 1_555 1_555
N2 C35 1_555 1_555
N3 C41 1_555 1_555
N4 C42 1_555 1_555
N5 C45 1_555 1_555
N6 C45 1_555 1_555
N7 C51 1_555 1_555
N8 C53 1_555 1_555
Ni1 N5 1_555 1_555
Ni2 N4 1_555 1_555
Ni3 O7 1_555 1_555
Ni4 N1 1_555 1_555
O1 C14 1_555 1_555
O2 C14 1_555 1_555
O3 C15 1_555 1_555
O4 C15 1_555 1_555
O5 C16 1_555 1_555
O6 C16 1_555 1_555
O7 C17 1_555 1_555
O8 C17 1_555 1_555
O9 C31 1_555 1_555
O10 C31 1_555 1_555
O11 C32 1_555 1_555
O12 C32 1_555 1_555
O13 C33 1_555 1_555
O14 C33 1_555 1_555
O15 C34 1_555 1_555
O16 C34 1_555 1_555
O17 Ni1 1_555 1_555
H45 O17 1_555 1_555
H46 O17 1_555 1_555
O18 Ni2 1_555 1_555
H47 O18 1_555 1_555
H48 O18 1_555 1_555
O19 H49 1_555 1_555
H50 O19 1_555 1_555
O20 H51 1_555 1_555
H52 O20 1_555 1_555
O21 Ni1 1_555 1_555
H53 O21 1_555 1_555
H54 O21 1_555 1_555
O22 Ni2 1_555 1_555
H55 O22 1_555 1_555
H56 O22 1_555 1_555
N8A Ni3 1_555 1_555
Ni1C O9 1_555 1_555
Ni2C O4 1_555 1_555
Ni2_2 O15 1_555 1_555
Ni3A N8 1_555 1_555
Ni3B O3 1_555 1_555
Ni3A_2 O22 1_555 1_555
Ni4C O10 1_555 1_555
Ni4A O13 1_555 1_555
O3B Ni3 1_555 1_555
O4C Ni2 1_555 1_555
O9C Ni1 1_555 1_555
O10C Ni4 1_555 1_555
O13A Ni4 1_555 1_555
O14A Ni4 1_555 1_555
O15_2 Ni2 1_555 1_555
O16A Ni3 1_555 1_555
O22A Ni3 1_555 1_555
H55A O22A 1_555 1_555
H56A O22A 1_555 1_555
C5 C6 1_555 1_555
C12 C13 1_555 1_555
C22 C23 1_555 1_555
C29 C30 1_555 1_555
C36 N1 1_555 1_555
C37 N2 1_555 1_555
C38 N2 1_555 1_555
C42 N3 1_555 1_555
C43 N3 1_555 1_555
C44 N4 1_555 1_555
C46 N5 1_555 1_555
C47 N6 1_555 1_555
C48 N6 1_555 1_555
C52 N7 1_555 1_555
C54 N7 1_555 1_555
C54 N8 1_555 1_555
Ni1 O6 1_555 1_555
Ni1 O11 1_555 1_555
Ni2 O2 1_555 1_555
Ni3 O8 1_555 1_555
Ni4 O5 1_555 1_555
Ni4 O21 1_555 1_555
O14 Ni4A 1_555 1_555
O16 Ni3A 1_555 1_555

#END
