
#######################################################################
#
#                 Cambridge Crystallographic Data Centre
#                                CCDC 
#
#######################################################################
#
# If this CIF has been generated from an entry in the Cambridge 
# Structural Database, then it will include bibliographic, chemical, 
# crystal, experimental, refinement or atomic coordinate data resulting 
# from the CCDC's data processing and validation procedures.
#
#######################################################################

data_GADSAH
_symmetry_cell_setting           monoclinic
_symmetry_space_group_name_H-M   'P 21/c'
_symmetry_Int_Tables_number      14
_space_group_name_Hall           '-P 2ybc'
loop_
_symmetry_equiv_pos_site_id
_symmetry_equiv_pos_as_xyz
1 x,y,z
2 -x,1/2+y,1/2-z
3 -x,-y,-z
4 x,1/2-y,1/2+z
_cell_length_a                   12.7574(18)
_cell_length_b                   15.598(2)
_cell_length_c                   17.352(3)
_cell_angle_alpha                90
_cell_angle_beta                 104.505(2)
_cell_angle_gamma                90
_cell_volume                     3342.82
loop_
_atom_site_label
_atom_site_type_symbol
_atom_site_fract_x
_atom_site_fract_y
_atom_site_fract_z
C1 C 1.0540(3) 0.2552(2) 1.7342(2)
C2 C 1.0066(3) 0.2585(3) 1.6461(2)
C3 C 0.9135(3) 0.3063(2) 1.6151(2)
H1 H 0.8808 0.3356 1.6495
C4 C 0.8690(3) 0.3119(3) 1.5335(2)
H2 H 0.8056 0.3430 1.5140
C5 C 0.9185(3) 0.2688(3) 1.4826(2)
C6 C 1.0138(3) 0.2251(2) 1.5122(2)
H3 H 1.0484 0.1976 1.4778
C7 C 1.0556(3) 0.2195(3) 1.5933(2)
H4 H 1.1188 0.1883 1.6130
C8 C 0.7864(3) 0.2934(2) 1.3491(2)
C9 C 0.6890(3) 0.2823(3) 1.2051(2)
C10 C 0.6374(3) 0.3594(3) 1.1858(2)
H5 H 0.6626 0.4079 1.2159
C11 C 0.5483(3) 0.3648(3) 1.1236(2)
H6 H 0.5132 0.4172 1.1116
C12 C 0.5095(3) 0.2938(3) 1.07647(19)
C13 C 0.5659(3) 0.2177(3) 1.0942(2)
H7 H 0.5435 0.1696 1.0626
C14 C 0.6559(3) 0.2122(2) 1.1587(2)
H8 H 0.6924 0.1603 1.1701
C15 C 0.4100(3) 0.3002(2) 1.0082(2)
C16 C 0.0866(3) 0.0916(2) 0.8722(2)
H9 H 0.0734 0.0977 0.8173
C17 C 0.0217(3) 0.0379(3) 0.9018(2)
H10 H -0.0345 0.0092 0.8668
C18 C 0.0353(3) 0.0278(2) 0.9828(2)
C19 C 0.1230(3) 0.0714(2) 1.0298(2)
H11 H 0.1397 0.0650 1.0848
C20 C 0.1867(3) 0.1230(3) 0.9965(2)
H12 H 0.2446 0.1513 1.0301
C21 C 0.3041(3) 0.3629(2) 0.7544(2)
H13 H 0.2290 0.3653 0.7376
C22 C 0.3625(3) 0.4200(2) 0.7217(2)
H14 H 0.3272 0.4581 0.6826
C23 C 0.4741(3) 0.4214(2) 0.7472(2)
C24 C 0.5208(3) 0.3598(2) 0.8029(2)
H15 H 0.5958 0.3568 0.8211
C25 C 0.4561(3) 0.3034(2) 0.8303(2)
H16 H 0.4896 0.2619 0.8667
C26 C 0.6824(3) 0.5892(2) 0.7447(2)
H17 H 0.7392 0.6155 0.7813
C27 C 0.6264(3) 0.5253(2) 0.7706(2)
H18 H 0.6464 0.5083 0.8237
C28 C 0.5405(3) 0.4858(2) 0.7187(2)
C29 C 0.5178(3) 0.5130(3) 0.6394(2)
H19 H 0.4610 0.4880 0.6018
C30 C 0.5798(3) 0.5748(2) 0.6183(2)
H20 H 0.5644 0.5902 0.5649
N1 N 0.8842(2) 0.2686(2) 1.40225(17)
H25 H 0.9329 0.2490 1.3769
N2 N 0.7793(2) 0.2730(2) 1.26757(16)
H26 H 0.8409 0.2537 1.2572
N3 N 0.3501(2) 0.30455(19) 0.80873(17)
N4 N 0.6602(2) 0.61548(18) 0.66876(17)
N5 N 0.1694(2) 0.13509(18) 0.91823(17)
Ni1 Ni 0.25864(3) 0.22096(3) 0.86522(2)
O1 O 1.14502(18) 0.21877(16) 1.75801(13)
O2 O 1.00020(18) 0.28411(16) 1.77999(13)
O3 O 0.37742(18) 0.23194(16) 0.97105(14)
O4 O 0.3687(2) 0.37222(17) 0.99116(15)
O5 O 0.18294(19) 0.32417(16) 0.90166(14)
H27 H 0.2347 0.3516 0.9247
H28 H 0.1409 0.3472 0.8686
S1 S 0.68514(8) 0.34109(7) 1.37588(6)
C1_2 C 0.0540(3) 0.2552(2) 0.7342(2)
C2_2 C 0.0066(3) 0.2585(3) 0.6461(2)
C3_2 C -0.0865(3) 0.3063(2) 0.6151(2)
H1_2 H -0.1192 0.3356 0.6495
C4_2 C -0.1310(3) 0.3119(3) 0.5335(2)
H2_2 H -0.1944 0.3430 0.5140
C5_2 C -0.0815(3) 0.2688(3) 0.4826(2)
C6_2 C 0.0138(3) 0.2251(2) 0.5122(2)
H3_2 H 0.0484 0.1976 0.4778
C7_2 C 0.0556(3) 0.2195(3) 0.5933(2)
H4_2 H 0.1188 0.1883 0.6130
C8_2 C -0.2136(3) 0.2934(2) 0.3491(2)
C9_2 C -0.3110(3) 0.2823(3) 0.2051(2)
C10_2 C -0.3626(3) 0.3594(3) 0.1858(2)
H5_2 H -0.3374 0.4079 0.2159
C11_2 C -0.4517(3) 0.3648(3) 0.1236(2)
H6_2 H -0.4868 0.4172 0.1116
C12_2 C -0.4905(3) 0.2938(3) 0.07647(19)
C13_2 C -0.4341(3) 0.2177(3) 0.0942(2)
H7_2 H -0.4565 0.1696 0.0626
C14_2 C -0.3441(3) 0.2122(2) 0.1587(2)
H8_2 H -0.3076 0.1603 0.1701
C15_2 C -0.5900(3) 0.3002(2) 0.0082(2)
C16B C -0.0866(3) -0.0916(2) 1.1278(2)
H9B H -0.0734 -0.0977 1.1827
C17B C -0.0217(3) -0.0379(3) 1.0982(2)
H10B H 0.0345 -0.0092 1.1332
C18B C -0.0353(3) -0.0278(2) 1.0172(2)
C19B C -0.1230(3) -0.0714(2) 0.9702(2)
H11B H -0.1397 -0.0650 0.9152
C20B C -0.1867(3) -0.1230(3) 1.0035(2)
H12B H -0.2446 -0.1513 0.9699
C21A C 0.6959(3) -0.1371(2) 0.7456(2)
H13A H 0.7710 -0.1347 0.7624
C22A C 0.6375(3) -0.0800(2) 0.7783(2)
H14A H 0.6728 -0.0419 0.8174
C23A C 0.5259(3) -0.0786(2) 0.7528(2)
C24A C 0.4792(3) -0.1402(2) 0.6971(2)
H15A H 0.4042 -0.1432 0.6789
C25A C 0.5439(3) -0.1966(2) 0.6697(2)
H16A H 0.5104 -0.2381 0.6333
C26A C 0.3176(3) 0.0892(2) 0.7553(2)
H17A H 0.2608 0.1155 0.7187
C27A C 0.3736(3) 0.0253(2) 0.7294(2)
H18A H 0.3536 0.0083 0.6763
C28A C 0.4595(3) -0.0142(2) 0.7813(2)
C29A C 0.4822(3) 0.0130(3) 0.8606(2)
H19A H 0.5390 -0.0120 0.8982
C30A C 0.4202(3) 0.0748(2) 0.8817(2)
H20A H 0.4356 0.0902 0.9351
N1_2 N -0.1158(2) 0.2686(2) 0.40225(17)
H25_2 H -0.0671 0.2490 0.3769
N2_2 N -0.2207(2) 0.2730(2) 0.26757(16)
H26_2 H -0.1591 0.2537 0.2572
N3A N 0.6499(2) -0.19545(19) 0.69127(17)
N3_2 N -0.6499(2) 0.30455(19) -0.19127(17)
N4A N 0.3398(2) 0.11548(18) 0.83124(17)
N4A_2 N -0.6602(2) 0.11548(18) -0.16876(17)
N5B N -0.1694(2) -0.13509(18) 1.08177(17)
N5_2 N -0.8306(2) 0.13509(18) -0.08177(17)
Ni1_2 Ni -0.74136(3) 0.22096(3) -0.13478(2)
Ni1A Ni 0.74136(3) 0.72096(3) 0.63478(2)
Ni1_3 Ni 1.25864(3) 0.22096(3) 1.86522(2)
Ni1B Ni -0.25864(3) -0.22096(3) 1.13478(2)
Ni1A_2 Ni 0.74136(3) -0.27904(3) 0.63478(2)
O1_2 O 0.14502(18) 0.21877(16) 0.75801(13)
O1_3 O -0.85498(18) 0.21877(16) -0.24199(13)
O2_2 O 0.00020(18) 0.28411(16) 0.77999(13)
O3_2 O -0.62258(18) 0.23194(16) -0.02895(14)
O4_2 O -0.6313(2) 0.37222(17) -0.00884(15)
O5_2 O -0.81706(19) 0.32417(16) -0.09834(14)
H27_2 H -0.7653 0.3516 -0.0753
H28_2 H -0.8591 0.3472 -0.1314
S1_2 S -0.31486(8) 0.34109(7) 0.37588(6)
C31 C -0.0507(3) 0.4773(3) 0.8175(2)
H21 H -0.1026 0.4548 0.7749
C32 C -0.0679(3) 0.4733(2) 0.8930(2)
H22 H -0.1335 0.4527 0.8997
C33 C 0.0084(3) 0.5017(3) 0.9585(2)
C34 C 0.1061(3) 0.5362(3) 0.9456(2)
H23 H 0.1610 0.5569 0.9873
C35 C 0.1149(3) 0.5371(2) 0.8646(2)
H24 H 0.1772 0.5605 0.8547
N6 N 0.0415(3) 0.5072(2) 0.80423(19)
C31B C 0.0507(3) 0.5227(3) 1.1825(2)
H21B H 0.1026 0.5452 1.2251
C32B C 0.0679(3) 0.5267(2) 1.1070(2)
H22B H 0.1335 0.5473 1.1003
C33B C -0.0084(3) 0.4983(3) 1.0415(2)
C34B C -0.1061(3) 0.4638(3) 1.0544(2)
H23B H -0.1610 0.4431 1.0127
C35B C -0.1149(3) 0.4629(2) 1.1354(2)
H24B H -0.1772 0.4395 1.1453
N6B N -0.0415(3) 0.4928(2) 1.19577(19)
O6 O 0.3655(4) 0.9588(3) 0.5382(3)
H29 H 0.3442 0.9108 0.5516
H30 H 0.4034 0.9508 0.5049
loop_
_geom_bond_atom_site_label_1
_geom_bond_atom_site_label_2
_geom_bond_site_symmetry_1
_geom_bond_site_symmetry_2
C1 C2 1_555 1_555
C2 C3 1_555 1_555
C3 H1 1_555 1_555
C4 C3 1_555 1_555
H2 C4 1_555 1_555
C5 C4 1_555 1_555
C6 C5 1_555 1_555
H3 C6 1_555 1_555
C7 C2 1_555 1_555
H4 C7 1_555 1_555
C8 N1 1_555 1_555
C9 C10 1_555 1_555
C10 H5 1_555 1_555
C11 C10 1_555 1_555
H6 C11 1_555 1_555
C12 C11 1_555 1_555
C13 C12 1_555 1_555
H7 C13 1_555 1_555
C14 C9 1_555 1_555
H8 C14 1_555 1_555
C15 C12 1_555 1_555
C16 H9 1_555 1_555
C17 C16 1_555 1_555
H10 C17 1_555 1_555
C18 C17 1_555 1_555
C19 C18 1_555 1_555
H11 C19 1_555 1_555
C20 C19 1_555 1_555
H12 C20 1_555 1_555
C21 H13 1_555 1_555
C22 C21 1_555 1_555
H14 C22 1_555 1_555
C23 C22 1_555 1_555
C24 C23 1_555 1_555
H15 C24 1_555 1_555
C25 C24 1_555 1_555
H16 C25 1_555 1_555
C26 H17 1_555 1_555
C27 C26 1_555 1_555
H18 C27 1_555 1_555
C28 C23 1_555 1_555
C29 C28 1_555 1_555
H19 C29 1_555 1_555
C30 C29 1_555 1_555
H20 C30 1_555 1_555
C31 H21 1_555 1_555
C32 C31 1_555 1_555
H22 C32 1_555 1_555
C33 C32 1_555 1_555
C34 C33 1_555 1_555
H23 C34 1_555 1_555
C35 C34 1_555 1_555
H24 C35 1_555 1_555
N1 C5 1_555 1_555
H25 N1 1_555 1_555
N2 C8 1_555 1_555
H26 N2 1_555 1_555
N3 C21 1_555 1_555
N4 C26 1_555 1_555
N5 C16 1_555 1_555
N6 C31 1_555 1_555
Ni1 N3 1_555 1_555
O1 C1 1_555 1_555
O2 C1 1_555 1_555
O3 C15 1_555 1_555
O4 C15 1_555 1_555
O5 Ni1 1_555 1_555
H27 O5 1_555 1_555
H28 O5 1_555 1_555
O6 H29 1_555 1_555
H30 O6 1_555 1_555
S1 C8 1_555 1_555
C1_2 C2_2 1_555 1_555
C2_2 C3_2 1_555 1_555
C3_2 H1_2 1_555 1_555
C4_2 C3_2 1_555 1_555
H2_2 C4_2 1_555 1_555
C5_2 C4_2 1_555 1_555
C6_2 C5_2 1_555 1_555
H3_2 C6_2 1_555 1_555
C7_2 C2_2 1_555 1_555
H4_2 C7_2 1_555 1_555
C8_2 N1_2 1_555 1_555
C9_2 C10_2 1_555 1_555
C10_2 H5_2 1_555 1_555
C11_2 C10_2 1_555 1_555
H6_2 C11_2 1_555 1_555
C12_2 C11_2 1_555 1_555
C13_2 C12_2 1_555 1_555
H7_2 C13_2 1_555 1_555
C14_2 C9_2 1_555 1_555
H8_2 C14_2 1_555 1_555
C15_2 C12_2 1_555 1_555
C16B H9B 1_555 1_555
C17B C16B 1_555 1_555
H10B C17B 1_555 1_555
C18B C18 1_555 1_555
C19B C18B 1_555 1_555
H11B C19B 1_555 1_555
C20B C19B 1_555 1_555
H12B C20B 1_555 1_555
C21A H13A 1_555 1_555
C22A C21A 1_555 1_555
H14A C22A 1_555 1_555
C23A C22A 1_555 1_555
C24A C23A 1_555 1_555
H15A C24A 1_555 1_555
C25A C24A 1_555 1_555
H16A C25A 1_555 1_555
C26A H17A 1_555 1_555
C27A C26A 1_555 1_555
H18A C27A 1_555 1_555
C28A C23A 1_555 1_555
C29A C28A 1_555 1_555
H19A C29A 1_555 1_555
C30A C29A 1_555 1_555
H20A C30A 1_555 1_555
C31B H21B 1_555 1_555
C32B C31B 1_555 1_555
H22B C32B 1_555 1_555
C33B C33 1_555 1_555
C34B C33B 1_555 1_555
H23B C34B 1_555 1_555
C35B C34B 1_555 1_555
H24B C35B 1_555 1_555
N1_2 C5_2 1_555 1_555
H25_2 N1_2 1_555 1_555
N2_2 C8_2 1_555 1_555
H26_2 N2_2 1_555 1_555
N3A C21A 1_555 1_555
N3_2 Ni1_2 1_555 1_555
N4A Ni1 1_555 1_555
N4A_2 Ni1_2 1_555 1_555
N5B C16B 1_555 1_555
N5_2 Ni1_2 1_555 1_555
N6B C31B 1_555 1_555
Ni1_2 O1_3 1_555 1_555
Ni1A N4 1_555 1_555
Ni1_3 O1 1_555 1_555
Ni1B N5B 1_555 1_555
Ni1A_2 N3A 1_555 1_555
O1_2 Ni1 1_555 1_555
O2_2 C1_2 1_555 1_555
O3_2 C15_2 1_555 1_555
O4_2 C15_2 1_555 1_555
O5_2 Ni1_2 1_555 1_555
H27_2 O5_2 1_555 1_555
H28_2 O5_2 1_555 1_555
S1_2 C8_2 1_555 1_555
C6 C7 1_555 1_555
C9 N2 1_555 1_555
C13 C14 1_555 1_555
C20 N5 1_555 1_555
C25 N3 1_555 1_555
C27 C28 1_555 1_555
C30 N4 1_555 1_555
C35 N6 1_555 1_555
N5 Ni1 1_555 1_555
Ni1 O3 1_555 1_555
C1_2 O1_2 1_555 1_555
C6_2 C7_2 1_555 1_555
C9_2 N2_2 1_555 1_555
C13_2 C14_2 1_555 1_555
C17B C18B 1_555 1_555
C20B N5B 1_555 1_555
C25A N3A 1_555 1_555
C26A N4A 1_555 1_555
C27A C28A 1_555 1_555
C30A N4A 1_555 1_555
C32B C33B 1_555 1_555
C35B N6B 1_555 1_555
Ni1_2 O3_2 1_555 1_555

#END
