
#######################################################################
#
#                 Cambridge Crystallographic Data Centre
#                                CCDC 
#
#######################################################################
#
# If this CIF has been generated from an entry in the Cambridge 
# Structural Database, then it will include bibliographic, chemical, 
# crystal, experimental, refinement or atomic coordinate data resulting 
# from the CCDC's data processing and validation procedures.
#
#######################################################################

data_GADSEL
_symmetry_cell_setting           triclinic
_symmetry_space_group_name_H-M   'P -1'
_symmetry_Int_Tables_number      2
_space_group_name_Hall           '-P 1'
loop_
_symmetry_equiv_pos_site_id
_symmetry_equiv_pos_as_xyz
1 x,y,z
2 -x,-y,-z
_cell_length_a                   8.6410(15)
_cell_length_b                   8.8913(16)
_cell_length_c                   10.1381(17)
_cell_angle_alpha                97.255(3)
_cell_angle_beta                 108.827(3)
_cell_angle_gamma                99.449(3)
_cell_volume                     713.7
loop_
_atom_site_label
_atom_site_type_symbol
_atom_site_fract_x
_atom_site_fract_y
_atom_site_fract_z
Cu1 Cu 1.73371(4) 0.77346(3) -0.08398(3)
K1 K 1.63817(8) 0.69139(7) -0.46775(7)
K2 K 1.0000 0.5000 -0.5000
O1 O 1.5749(2) 0.5885(2) -0.23121(18)
O2 O 1.3179(2) 0.4409(2) -0.2911(2)
O3 O 1.0085(2) 0.5293(2) -0.2029(2)
O4 O 1.1229(2) 0.3604(2) -0.08136(19)
O5 O 1.3748(2) 1.0683(2) 0.26396(19)
O6 O 1.5112(3) 0.9178(2) 0.39697(18)
O7 O 1.7432(2) 1.0901(2) 0.2432(2)
O8 O 1.8217(2) 0.9651(2) 0.07789(18)
O9 O 1.9115(2) 0.7899(2) -0.16079(18)
H2 H 1.9459 0.7060 -0.1683
H3 H 1.9872 0.8735 -0.1296
N1 N 1.5484(2) 0.7564(2) -0.0191(2)
C1 C 1.4344(3) 0.5459(3) -0.2146(3)
C2 C 1.4171(3) 0.6402(3) -0.0853(2)
C3 C 1.2828(3) 0.6185(3) -0.0373(2)
C4 C 1.1258(3) 0.4905(3) -0.1133(3)
C5 C 1.2945(3) 0.7225(3) 0.0825(3)
H4 H 1.2075 0.7101 0.1181
C6 C 1.4329(3) 0.8442(3) 0.1500(2)
C7 C 1.4397(3) 0.9566(3) 0.2786(3)
C8 C 1.5605(3) 0.8588(3) 0.0941(2)
C9 C 1.7212(3) 0.9826(3) 0.1455(3)
O10 O 0.9485(3) 0.8076(3) -0.4542(2)
H5 H 1.0355 0.8368 -0.3785
H6 H 0.9655 0.8299 -0.5291
O12 O 1.2847(6) 0.6183(10) -0.5668(13)
H9 H 1.2628 0.5610 -0.6471
H10 H 1.2642 0.7047 -0.5863
Cu1A Cu 0.26629(4) 0.22654(3) -0.91602(3)
Cu1A_2 Cu 1.26629(4) 0.22654(3) 0.08398(3)
Cu1_2 Cu 0.73371(4) 0.77346(3) -1.08398(3)
K1A K 0.36183(8) 0.30861(7) -0.53225(7)
K1A_2 K 1.36183(8) 0.30861(7) -0.53225(7)
K1A_3 K 1.36183(8) 1.30861(7) 0.46775(7)
K1_2 K 1.63817(8) 0.69139(7) 0.53225(7)
K1_3 K 0.63817(8) 0.69139(7) -0.46775(7)
K1_4 K 0.63817(8) -0.30861(7) -1.46775(7)
K1A_4 K 0.36183(8) 0.30861(7) -1.53225(7)
O1A O 0.4251(2) 0.4115(2) -0.76879(18)
O2A O 0.6821(2) 0.5591(2) -0.7089(2)
O2A_2 O 1.6821(2) 0.5591(2) -0.7089(2)
O2_2 O 0.3179(2) 0.4409(2) -0.2911(2)
O3A O 0.9915(2) 0.4707(2) -0.7971(2)
O4A O 0.8771(2) 0.6396(2) -0.91864(19)
O4A_2 O 1.8771(2) 0.6396(2) 0.08136(19)
O4_2 O 0.1229(2) 0.3604(2) -1.08136(19)
O5A O 0.6252(2) -0.0683(2) -1.26396(19)
O5A_2 O 1.6252(2) 0.9317(2) -0.26396(19)
O5_2 O 0.3748(2) 0.0683(2) -0.73604(19)
O6A O 0.4888(3) 0.0822(2) -1.39697(18)
O6_2 O 1.5112(3) 0.9178(2) -0.60303(18)
O6A_2 O 0.4888(3) 0.0822(2) -0.39697(18)
O7A O 0.2568(2) -0.0901(2) -1.2432(2)
O8A O 0.1783(2) 0.0349(2) -1.07789(18)
O9A O 0.0885(2) 0.2101(2) -0.83921(18)
H2A H 0.0541 0.2940 -0.8317
H3A H 0.0128 0.1265 -0.8704
N1A N 0.4516(2) 0.2436(2) -0.9809(2)
C1A C 0.5656(3) 0.4541(3) -0.7854(3)
C2A C 0.5829(3) 0.3598(3) -0.9147(2)
C3A C 0.7172(3) 0.3815(3) -0.9627(2)
C4A C 0.8742(3) 0.5095(3) -0.8867(3)
C5A C 0.7055(3) 0.2775(3) -1.0825(3)
H4A H 0.7925 0.2899 -1.1181
C6A C 0.5671(3) 0.1558(3) -1.1500(2)
C7A C 0.5603(3) 0.0434(3) -1.2786(3)
C8A C 0.4395(3) 0.1412(3) -1.0941(2)
C9A C 0.2788(3) 0.0174(3) -1.1455(3)
O10A O 1.0515(3) 0.1924(3) -0.5458(2)
O10_2 O 1.9485(3) 0.8076(3) -0.4542(2)
O10A_2 O 0.0515(3) 0.1924(3) -0.5458(2)
H5A H 0.9645 0.1632 -0.6215
H5_2 H 2.0355 0.8368 -0.3785
H5A_2 H -0.0355 0.1632 -0.6215
H6A H 1.0345 0.1701 -0.4709
H6_2 H 1.9655 0.8299 -0.5291
H6A_2 H 0.0345 0.1701 -0.4709
O12A O 0.7153(6) 0.3817(10) -0.4332(13)
O12A_2 O 1.7153(6) 0.3817(10) -0.4332(13)
O12_2 O 0.2847(6) 0.6183(10) -0.5668(13)
H9A H 0.7372 0.4390 -0.3529
H9A_2 H 1.7372 0.4390 -0.3529
H9_2 H 0.2628 0.5610 -0.6471
H10A H 0.7358 0.2953 -0.4137
H10A_2 H 1.7358 0.2953 -0.4137
H10_2 H 0.2642 0.7047 -0.5863
O13 O 0.0843(3) 0.8481(3) 0.3312(2)
H11 H 0.0201 0.7911 0.2526
H12 H 0.0992 0.9450 0.3369
H1? H 0.5178 0.9828 0.4684
O11? O 0.2974(8) 0.6796(15) 0.5084(15)
H7? H 0.2629 0.7156 0.4330
H8? H 0.3110 0.7548 0.5748
loop_
_geom_bond_atom_site_label_1
_geom_bond_atom_site_label_2
_geom_bond_site_symmetry_1
_geom_bond_site_symmetry_2
Cu1 O1 1_555 1_555
K1 O1 1_555 1_555
K2 O3 1_555 1_555
O1 C1 1_555 1_555
O2 C1 1_555 1_555
O3 C4 1_555 1_555
O4 C4 1_555 1_555
O5 C7 1_555 1_555
O6 C7 1_555 1_555
O7 C9 1_555 1_555
O8 Cu1 1_555 1_555
O9 Cu1 1_555 1_555
H2 O9 1_555 1_555
H3 O9 1_555 1_555
N1 Cu1 1_555 1_555
C1 C2 1_555 1_555
C2 N1 1_555 1_555
C3 C2 1_555 1_555
C4 C3 1_555 1_555
C5 C3 1_555 1_555
H4 C5 1_555 1_555
C6 C5 1_555 1_555
C7 C6 1_555 1_555
C8 N1 1_555 1_555
C9 O8 1_555 1_555
O10 K2 1_555 1_555
H5 O10 1_555 1_555
H6 O10 1_555 1_555
O12 K1 1_555 1_555
H9 O12 1_555 1_555
H10 O12 1_555 1_555
O13 H11 1_555 1_555
H12 O13 1_555 1_555
Cu1A O1A 1_555 1_555
Cu1A_2 O4 1_555 1_555
Cu1_2 O4A 1_555 1_555
K1A O1A 1_555 1_555
K1A_2 O2 1_555 1_555
K1A_3 O5 1_555 1_555
K1_2 O6 1_555 1_555
K1_3 O10 1_555 1_555
K1_4 O5A 1_555 1_555
K1A_4 O6A 1_555 1_555
O1A C1A 1_555 1_555
O2A K1_3 1_555 1_555
O2A_2 K1 1_555 1_555
O2_2 K1A 1_555 1_555
O3A K2 1_555 1_555
O4A C4A 1_555 1_555
O4A_2 Cu1 1_555 1_555
O4_2 Cu1A 1_555 1_555
O5A C7A 1_555 1_555
O5A_2 K1 1_555 1_555
O5_2 K1A 1_555 1_555
O6A C7A 1_555 1_555
O6_2 K1 1_555 1_555
O6A_2 K1A 1_555 1_555
O7A C9A 1_555 1_555
O8A Cu1A 1_555 1_555
O9A Cu1A 1_555 1_555
H2A O9A 1_555 1_555
H3A O9A 1_555 1_555
N1A Cu1A 1_555 1_555
C1A O2A 1_555 1_555
C2A N1A 1_555 1_555
C3A C2A 1_555 1_555
C4A O3A 1_555 1_555
C5A C3A 1_555 1_555
H4A C5A 1_555 1_555
C6A C5A 1_555 1_555
C7A C6A 1_555 1_555
C8A N1A 1_555 1_555
C9A O8A 1_555 1_555
O10A K2 1_555 1_555
O10_2 K1 1_555 1_555
O10A_2 K1A 1_555 1_555
H5A O10A 1_555 1_555
H5_2 O10_2 1_555 1_555
H5A_2 O10A_2 1_555 1_555
H6A O10A 1_555 1_555
H6_2 O10_2 1_555 1_555
H6A_2 O10A_2 1_555 1_555
O12A K2 1_555 1_555
O12A_2 K1 1_555 1_555
O12_2 K1A 1_555 1_555
H9A O12A 1_555 1_555
H9A_2 O12A_2 1_555 1_555
H9_2 O12_2 1_555 1_555
H10A O12A 1_555 1_555
H10A_2 O12A_2 1_555 1_555
H10_2 O12_2 1_555 1_555
K2 O12 1_555 1_555
C6 C8 1_555 1_555
C8 C9 1_555 1_555
O12 K1A_2 1_555 1_555
K1A O12A 1_555 1_555
K1A_2 O10A 1_555 1_555
K1A_2 O12A_2 1_555 1_555
K1_3 O12A 1_555 1_555
K1_3 O12_2 1_555 1_555
C1A C2A 1_555 1_555
C3A C4A 1_555 1_555
C6A C8A 1_555 1_555
C8A C9A 1_555 1_555

#END
