
#######################################################################
#
#                 Cambridge Crystallographic Data Centre
#                                CCDC 
#
#######################################################################
#
# If this CIF has been generated from an entry in the Cambridge 
# Structural Database, then it will include bibliographic, chemical, 
# crystal, experimental, refinement or atomic coordinate data resulting 
# from the CCDC's data processing and validation procedures.
#
#######################################################################

data_GAFFEZ
_symmetry_cell_setting           monoclinic
_symmetry_space_group_name_H-M   'P 21/c'
_symmetry_Int_Tables_number      14
_space_group_name_Hall           '-P 2ybc'
loop_
_symmetry_equiv_pos_site_id
_symmetry_equiv_pos_as_xyz
1 x,y,z
2 x,1/2-y,1/2+z
3 -x,-y,-z
4 -x,1/2+y,1/2-z
_cell_length_a                   19.693(9)
_cell_length_b                   8.996(5)
_cell_length_c                   20.591(8)
_cell_angle_alpha                90
_cell_angle_beta                 97.57(3)
_cell_angle_gamma                90
_cell_volume                     3616.07
loop_
_atom_site_label
_atom_site_type_symbol
_atom_site_fract_x
_atom_site_fract_y
_atom_site_fract_z
Cu1 Cu -0.26692(3) 0.38822(7) 0.40755(2)
N1 N -0.31875(19) -0.3363(4) 0.25119(16)
N2 N -0.27726(19) -0.4972(4) 0.32454(16)
N3 N -0.42855(19) 0.1432(4) 0.31469(15)
N4 N -0.34850(19) 0.2649(4) 0.37714(15)
N5 N -0.3989(2) -0.1649(5) 0.00984(16)
N6 N -0.3203(2) -0.0681(4) -0.04234(17)
N7 N 0.0279(2) 0.2675(5) 0.80986(17)
N8 N 0.0582(3) 0.3325(6) 0.9110(2)
N9 N -0.21288(19) 0.2235(5) 0.59117(17)
N10 N -0.2466(2) 0.2687(4) 0.48867(17)
N11 N 0.0805(2) 0.3976(5) 0.57432(16)
N12 N 0.1703(2) 0.5392(5) 0.57729(16)
C1 C -0.3657(2) -0.2341(5) 0.21788(19)
C2 C -0.3930(2) -0.1254(5) 0.2527(2)
H1 H -0.3790 -0.1158 0.2984
C3 C -0.4409(2) -0.0296(5) 0.2211(2)
C4 C -0.4610(2) -0.0487(5) 0.1549(2)
H2 H -0.4953 0.0145 0.1330
C5 C -0.4328(2) -0.1565(5) 0.12024(19)
C6 C -0.3847(2) -0.2510(5) 0.15157(19)
H3 H -0.3649 -0.3268 0.1280
C7 C -0.3286(2) -0.4100(5) 0.30507(19)
H4 H -0.3682 -0.4002 0.3266
C8 C -0.2316(3) -0.4776(6) 0.2808(2)
H5 H -0.1888 -0.5267 0.2822
C9 C -0.2569(2) -0.3784(6) 0.2359(2)
H6 H -0.2355 -0.3439 0.2000
C10 C -0.4724(2) 0.0914(5) 0.25664(19)
H7 H -0.4832 0.1763 0.2264
H8 H -0.5160 0.0549 0.2698
C11 C -0.3767(2) 0.2380(5) 0.31645(19)
H9 H -0.3618 0.2813 0.2787
C12 C -0.3857(2) 0.1815(5) 0.4152(2)
H10 H -0.3781 0.1778 0.4617
C13 C -0.4341(2) 0.1062(6) 0.3778(2)
H11 H -0.4664 0.0395 0.3924
C14 C -0.4549(2) -0.1751(5) 0.04770(19)
H12 H -0.4891 -0.0976 0.0327
H13 H -0.4773 -0.2731 0.0398
C15 C 0.1480(2) 0.4026(6) 0.5771(2)
H14 H 0.1766 0.3174 0.5787
C16 C 0.1132(2) 0.6253(6) 0.5743(2)
H15 H 0.1131 0.7309 0.5736
C17 C 0.0573(3) 0.5400(6) 0.5726(2)
H16 H 0.0111 0.5723 0.5707
C18 C -0.0071(3) 0.2650(6) 0.7442(2)
C19 C -0.0773(3) 0.2569(5) 0.7343(2)
H17 H -0.1029 0.2535 0.7703
C20 C -0.1098(2) 0.2538(6) 0.6704(2)
C21 C -0.0718(3) 0.2577(6) 0.6199(2)
H18 H -0.0944 0.2564 0.5763
C22 C -0.0020(3) 0.2633(5) 0.6303(2)
C23 C 0.0308(3) 0.2679(6) 0.6937(2)
H19 H 0.0794 0.2730 0.7020
C24 C 0.0120(3) 0.3528(6) 0.8586(2)
H20 H -0.0263 0.4177 0.8562
C25 C 0.1037(3) 0.2334(8) 0.8935(2)
H21 H 0.1425 0.1974 0.9213
C26 C 0.0861(3) 0.1939(7) 0.8320(2)
H22 H 0.1099 0.1262 0.8077
C27 C -0.1869(3) 0.2530(7) 0.6588(2)
H23 H -0.2042 0.1762 0.6868
H24 H -0.2042 0.3506 0.6716
C28 C -0.2322(2) 0.3262(6) 0.5468(2)
H25 H -0.2352 0.4292 0.5561
C29 C -0.2371(3) 0.1196(6) 0.4963(2)
H26 H -0.2448 0.0472 0.4625
C30 C -0.2149(3) 0.0922(7) 0.5599(2)
H27 H -0.2029 -0.0019 0.5790
C31 C 0.0384(3) 0.2646(6) 0.5741(2)
H28 H 0.0068 0.2598 0.5326
H29 H 0.0682 0.1756 0.5764
C32 C -0.3685(2) -0.0417(6) -0.0064(2)
H30 H -0.3806 0.0550 0.0067
C33 C -0.3192(3) -0.2198(6) -0.0482(2)
H31 H -0.2883 -0.2745 -0.0706
C34 C -0.3684(3) -0.2788(6) -0.0174(2)
H32 H -0.3797 -0.3812 -0.0152
N6A N -0.3203(2) 0.5681(4) 0.45766(17)
N12B N -0.1703(2) 0.4608(5) 0.42271(16)
Cu1B Cu 0.26692(3) 0.61178(7) 0.59245(2)
N2_2 N -0.27726(19) 0.5028(4) 0.32454(16)
Cu1_2 Cu -0.26692(3) -0.61178(7) 0.40755(2)
Cu1A Cu -0.26692(3) 0.11178(7) -0.09245(2)
Cl1 Cl -0.41152(9) 0.16300(16) 0.61014(6)
O1 O -0.4243(3) 0.0459(5) 0.5620(2)
O3 O -0.3833(4) 0.2855(7) 0.5863(3)
O5 O -0.4813(3) 0.2048(9) 0.6198(5)
O7 O -0.3834(6) 0.1104(9) 0.6686(3)
Cl2 Cl -0.19967(8) 0.49060(17) 0.82217(7)
O9 O -0.2494(6) 0.5678(15) 0.8510(7)
O11 O -0.1372(3) 0.5035(8) 0.8666(4)
O13 O -0.1898(5) 0.5465(7) 0.7610(3)
O15 O -0.2147(5) 0.3378(6) 0.8170(5)
O17 O -0.0620(7) 0.0427(14) 0.4881(6)
O18 O -0.7616(7) 0.316(2) 0.4041(8)
O2? O -0.3591(9) 0.0761(16) 0.5865(10)
O4? O -0.3549(9) 0.261(3) 0.6363(10)
O6? O -0.4512(15) 0.266(2) 0.5761(10)
O8? O -0.4336(13) 0.121(3) 0.6662(7)
O10? O -0.2497(13) 0.573(4) 0.8489(18)
O12? O -0.1374(11) 0.560(3) 0.819(2)
O14? O -0.2383(15) 0.497(4) 0.7569(8)
O16? O -0.199(2) 0.3391(19) 0.8375(18)
loop_
_geom_bond_atom_site_label_1
_geom_bond_atom_site_label_2
_geom_bond_site_symmetry_1
_geom_bond_site_symmetry_2
Cu1 N4 1_555 1_555
Cl1 O1 1_555 1_555
Cl2 O9 1_555 1_555
O3 Cl1 1_555 1_555
O5 Cl1 1_555 1_555
O7 Cl1 1_555 1_555
O11 Cl2 1_555 1_555
O13 Cl2 1_555 1_555
O15 Cl2 1_555 1_555
N1 C1 1_555 1_555
N2 C7 1_555 1_555
N3 C10 1_555 1_555
N4 C11 1_555 1_555
N5 C14 1_555 1_555
N6 C32 1_555 1_555
N7 C18 1_555 1_555
N8 C24 1_555 1_555
N9 C27 1_555 1_555
N10 Cu1 1_555 1_555
N11 C15 1_555 1_555
N12 C15 1_555 1_555
C1 C2 1_555 1_555
C2 H1 1_555 1_555
C3 C2 1_555 1_555
C4 C3 1_555 1_555
H2 C4 1_555 1_555
C5 C4 1_555 1_555
C6 C1 1_555 1_555
H3 C6 1_555 1_555
C7 N1 1_555 1_555
H4 C7 1_555 1_555
C8 N2 1_555 1_555
H5 C8 1_555 1_555
C9 N1 1_555 1_555
H6 C9 1_555 1_555
C10 C3 1_555 1_555
H7 C10 1_555 1_555
H8 C10 1_555 1_555
C11 N3 1_555 1_555
H9 C11 1_555 1_555
C12 N4 1_555 1_555
H10 C12 1_555 1_555
C13 N3 1_555 1_555
H11 C13 1_555 1_555
C14 C5 1_555 1_555
H12 C14 1_555 1_555
H13 C14 1_555 1_555
C15 H14 1_555 1_555
C16 N12 1_555 1_555
H15 C16 1_555 1_555
C17 N11 1_555 1_555
H16 C17 1_555 1_555
C18 C19 1_555 1_555
C19 H17 1_555 1_555
C20 C19 1_555 1_555
C21 C20 1_555 1_555
H18 C21 1_555 1_555
C22 C21 1_555 1_555
C23 C18 1_555 1_555
H19 C23 1_555 1_555
C24 N7 1_555 1_555
H20 C24 1_555 1_555
C25 N8 1_555 1_555
H21 C25 1_555 1_555
C26 N7 1_555 1_555
H22 C26 1_555 1_555
C27 C20 1_555 1_555
H23 C27 1_555 1_555
H24 C27 1_555 1_555
C28 N9 1_555 1_555
H25 C28 1_555 1_555
C29 N10 1_555 1_555
H26 C29 1_555 1_555
C30 N9 1_555 1_555
H27 C30 1_555 1_555
C31 N11 1_555 1_555
H28 C31 1_555 1_555
H29 C31 1_555 1_555
C32 N5 1_555 1_555
H30 C32 1_555 1_555
C33 N6 1_555 1_555
H31 C33 1_555 1_555
C34 N5 1_555 1_555
H32 C34 1_555 1_555
N6A Cu1 1_555 1_555
N12B Cu1 1_555 1_555
Cu1B N12 1_555 1_555
N2_2 Cu1 1_555 1_555
Cu1_2 N2 1_555 1_555
Cu1A N6 1_555 1_555
N10 C28 1_555 1_555
C5 C6 1_555 1_555
C8 C9 1_555 1_555
C12 C13 1_555 1_555
C16 C17 1_555 1_555
C22 C23 1_555 1_555
C22 C31 1_555 1_555
C25 C26 1_555 1_555
C29 C30 1_555 1_555
C33 C34 1_555 1_555

#END
