
#######################################################################
#
#                 Cambridge Crystallographic Data Centre
#                                CCDC 
#
#######################################################################
#
# If this CIF has been generated from an entry in the Cambridge 
# Structural Database, then it will include bibliographic, chemical, 
# crystal, experimental, refinement or atomic coordinate data resulting 
# from the CCDC's data processing and validation procedures.
#
#######################################################################

data_GAFMIK
_symmetry_cell_setting           monoclinic
_symmetry_space_group_name_H-M   'P 21/c'
_symmetry_Int_Tables_number      14
_space_group_name_Hall           '-P 2ybc'
loop_
_symmetry_equiv_pos_site_id
_symmetry_equiv_pos_as_xyz
1 x,y,z
2 x,1/2-y,1/2+z
3 -x,-y,-z
4 -x,1/2+y,1/2-z
_cell_length_a                   13.308(4)
_cell_length_b                   9.283(3)
_cell_length_c                   18.453(6)
_cell_angle_alpha                90
_cell_angle_beta                 122.878(4)
_cell_angle_gamma                90
_cell_volume                     1914.51
loop_
_atom_site_label
_atom_site_type_symbol
_atom_site_fract_x
_atom_site_fract_y
_atom_site_fract_z
Zn1 Zn -0.00605(6) -0.35992(7) 0.09847(4)
S1 S 0.24362(13) -0.67419(18) 0.46750(10)
S2 S 0.49376(13) -0.04184(17) 0.22567(10)
S3 S -0.23382(14) -0.08012(17) -0.27962(10)
S4 S -0.47895(14) -0.74630(19) -0.04910(11)
N1 N 0.0778(4) -0.4840(5) 0.2063(3)
N2 N 0.2746(4) -0.3737(5) 0.2775(3)
C1 C 0.1930(5) -0.4583(6) 0.2751(4)
C2 C 0.0210(5) -0.5850(6) 0.2265(3)
N3 N -0.0878(4) -0.6387(5) 0.1776(3)
C3 C -0.1614(5) -0.6047(6) 0.0954(4)
N4 N -0.1409(4) -0.5110(5) 0.0458(3)
C4 C -0.2394(5) -0.5056(6) -0.0375(4)
N5 N -0.2562(4) -0.4269(5) -0.1037(3)
C5 C -0.3311(5) -0.5986(6) -0.0427(4)
C6 C -0.2830(5) -0.6597(6) 0.0397(4)
N6 N -0.3563(5) -0.7433(6) 0.0475(3)
N7 N -0.4420(4) -0.6376(6) -0.1010(3)
C7 C 0.3480(5) -0.1959(6) 0.2180(4)
C8 C 0.2936(5) -0.1201(6) 0.1403(4)
N8 N 0.3638(4) -0.0267(5) 0.1335(3)
N9 N 0.4622(4) -0.1642(5) 0.2743(3)
C9 C 0.1708(5) -0.1712(6) 0.0862(4)
N10 N 0.1530(4) -0.2707(5) 0.1345(3)
N11 N 0.0932(4) -0.1309(5) 0.0054(3)
C10 C -0.0152(5) -0.1887(6) -0.0456(4)
C11 C -0.0978(5) -0.1489(6) -0.1353(4)
N12 N -0.1026(5) -0.0534(6) -0.1905(3)
N13 N -0.2849(4) -0.2141(5) -0.2500(3)
C12 C -0.1993(5) -0.2385(6) -0.1684(3)
C13 C -0.1780(5) -0.3311(6) -0.0977(4)
N14 N -0.0675(4) -0.2967(5) -0.0262(3)
C14 C 0.1044(5) -0.6220(6) 0.3177(4)
C15 C 0.2112(5) -0.5442(6) 0.3469(3)
N15 N 0.1094(4) -0.7033(5) 0.3793(3)
N16 N 0.2979(4) -0.5629(5) 0.4298(3)
C16 C 0.2570(5) -0.2898(6) 0.2136(4)
N15C N -0.1094(4) -0.2033(5) 0.1207(3)
Zn1C Zn 0.00605(6) -0.85992(7) 0.40153(4)
loop_
_geom_bond_atom_site_label_1
_geom_bond_atom_site_label_2
_geom_bond_site_symmetry_1
_geom_bond_site_symmetry_2
Zn1 N1 1_555 1_555
S1 N15 1_555 1_555
S2 N8 1_555 1_555
S3 N12 1_555 1_555
S4 N6 1_555 1_555
N1 C1 1_555 1_555
N2 C1 1_555 1_555
C1 C15 1_555 1_555
C2 N1 1_555 1_555
N3 C2 1_555 1_555
C3 N3 1_555 1_555
N4 Zn1 1_555 1_555
C4 N4 1_555 1_555
N5 C4 1_555 1_555
C5 C4 1_555 1_555
C6 C3 1_555 1_555
N6 C6 1_555 1_555
N7 S4 1_555 1_555
C7 C8 1_555 1_555
C8 N8 1_555 1_555
N9 S2 1_555 1_555
C9 C8 1_555 1_555
N10 Zn1 1_555 1_555
N11 C9 1_555 1_555
C10 N11 1_555 1_555
C11 C10 1_555 1_555
N12 C11 1_555 1_555
N13 S3 1_555 1_555
C12 C11 1_555 1_555
C13 N5 1_555 1_555
N14 Zn1 1_555 1_555
C14 C2 1_555 1_555
C15 C14 1_555 1_555
N15 C14 1_555 1_555
N16 S1 1_555 1_555
C16 N2 1_555 1_555
N15C Zn1 1_555 1_555
Zn1C N15 1_555 1_555
C3 N4 1_555 1_555
C5 C6 1_555 1_555
C5 N7 1_555 1_555
C7 C16 1_555 1_555
C7 N9 1_555 1_555
C9 N10 1_555 1_555
N10 C16 1_555 1_555
C10 N14 1_555 1_555
N13 C12 1_555 1_555
C12 C13 1_555 1_555
C13 N14 1_555 1_555
C15 N16 1_555 1_555

#END
