
#######################################################################
#
#                 Cambridge Crystallographic Data Centre
#                                CCDC 
#
#######################################################################
#
# If this CIF has been generated from an entry in the Cambridge 
# Structural Database, then it will include bibliographic, chemical, 
# crystal, experimental, refinement or atomic coordinate data resulting 
# from the CCDC's data processing and validation procedures.
#
#######################################################################

data_GAFNUY
_symmetry_cell_setting           monoclinic
_symmetry_space_group_name_H-M   'C 2/c'
_symmetry_Int_Tables_number      15
_space_group_name_Hall           '-C 2yn'
loop_
_symmetry_equiv_pos_site_id
_symmetry_equiv_pos_as_xyz
1 x,y,z
2 -x,y,1/2-z
3 1/2+x,1/2+y,z
4 1/2-x,1/2+y,1/2-z
5 -x,-y,-z
6 x,-y,1/2+z
7 1/2-x,1/2-y,-z
8 1/2+x,1/2-y,1/2+z
_cell_length_a                   24.565(2)
_cell_length_b                   6.7033(6)
_cell_length_c                   16.7768(15)
_cell_angle_alpha                90
_cell_angle_beta                 128.8270(10)
_cell_angle_gamma                90
_cell_volume                     2152.17
loop_
_atom_site_label
_atom_site_type_symbol
_atom_site_fract_x
_atom_site_fract_y
_atom_site_fract_z
La1 La 0.161382(10) 0.43398(3) 0.872689(15)
S1 S 0.22232(6) 0.93209(12) 0.85449(8)
S2 S 0.0000 0.7532(2) 0.7500
N1 N 0.05757(18) -0.0188(6) 0.9968(3)
O1 O 0.10312(15) 0.2002(5) 0.9201(2)
O2 O 0.18688(15) 0.7817(4) 0.8708(2)
O3 O 0.29265(15) 0.9689(5) 0.9519(2)
O4 O 0.21220(16) 0.0994(5) 1.0257(2)
O5 O 0.16487(18) 0.4972(6) 0.7242(2)
O6 O 0.18114(15) 1.1160(5) 0.8169(2)
O7 O 0.04607(17) 0.2868(6) 0.7120(2)
O8 O 0.22866(16) 0.8579(5) 0.7780(2)
O9 O 0.05695(15) 0.6241(5) 0.8320(2)
O10 O 0.02511(16) 0.8769(6) 0.7069(2)
C1 C 0.1500(2) 0.0950(6) 0.9915(3)
C2 C 0.1312(2) -0.0488(6) 1.0403(3)
H1 H 0.1377 -0.1848 1.0280
H2 H 0.1617 -0.0271 1.1136
C3 C 0.0278(2) -0.1969(7) 1.0110(3)
H3 H 0.0536 -0.2219 1.0835
H4 H 0.0322 -0.3134 0.9811
C4 C 0.0482(2) 0.1608(7) 1.0395(4)
H5 H 0.0670 0.2766 1.0295
H6 H 0.0741 0.1431 1.1124
H7 H 0.047(3) 0.151(9) 0.727(4)
H8 H 0.187(3) 0.598(9) 0.743(4)
H9 H 0.009(3) 0.353(10) 0.689(4)
H10 H 0.034(2) -0.024(7) 0.931(4)
H11 H 0.188(3) 0.432(8) 0.718(4)
La1D La -0.161382(10) -0.43398(3) 1.127311(15)
La1F La 0.338618(10) 1.06602(3) 1.127311(15)
La1F_2 La 0.338618(10) 0.06602(3) 1.127311(15)
La1_2 La 0.161382(10) 1.43398(3) 0.872689(15)
La1A La -0.161382(10) 0.43398(3) 0.627311(15)
La1B La -0.338618(10) -0.06602(3) 0.872689(15)
S1F S 0.27768(6) 0.56791(12) 1.14551(8)
N1D N -0.05757(18) 0.0188(6) 1.0032(3)
O1D O -0.10312(15) -0.2002(5) 1.0799(2)
O2F O 0.31312(15) 0.7183(4) 1.1292(2)
O2D O -0.18688(15) -0.7817(4) 1.1292(2)
O3F O 0.20735(15) 0.5311(5) 1.0481(2)
O3B O -0.20735(15) -0.5311(5) 0.9519(2)
O4D O -0.21220(16) -0.0994(5) 0.9743(2)
O4F O 0.28780(16) 0.4006(5) 0.9743(2)
O4B O -0.28780(16) -0.4006(5) 1.0257(2)
O5D O -0.16487(18) -0.4972(6) 1.2758(2)
O6F O 0.31886(15) 0.3840(5) 1.1831(2)
O6_2 O 0.18114(15) 0.1160(5) 0.8169(2)
O6D O -0.18114(15) -0.1160(5) 1.1831(2)
O7D O -0.04607(17) -0.2868(6) 1.2880(2)
O8F O 0.27134(16) 0.6421(5) 1.2220(2)
O9A O -0.05695(15) 0.6241(5) 0.6680(2)
O9D O -0.05695(15) -0.6241(5) 1.1680(2)
O10A O -0.02511(16) 0.8769(6) 0.7931(2)
C1D C -0.1500(2) -0.0950(6) 1.0085(3)
C2D C -0.1312(2) 0.0488(6) 0.9597(3)
H1D H -0.1377 0.1848 0.9720
H2D H -0.1617 0.0271 0.8864
C3D C -0.0278(2) 0.1969(7) 0.9890(3)
H3D H -0.0536 0.2219 0.9165
H4D H -0.0322 0.3134 1.0189
C4D C -0.0482(2) -0.1608(7) 0.9605(4)
H5D H -0.0670 -0.2766 0.9705
H6D H -0.0741 -0.1431 0.8876
H7D H -0.047(3) -0.151(9) 1.273(4)
H8D H -0.187(3) -0.598(9) 1.257(4)
H9D H -0.009(3) -0.353(10) 1.311(4)
H10D H -0.034(2) 0.024(7) 1.069(4)
H11D H -0.188(3) -0.432(8) 1.282(4)
loop_
_geom_bond_atom_site_label_1
_geom_bond_atom_site_label_2
_geom_bond_site_symmetry_1
_geom_bond_site_symmetry_2
La1 O1 1_555 1_555
S1 O2 1_555 1_555
S2 O9 1_555 1_555
N1 C2 1_555 1_555
O1 C1 1_555 1_555
O2 La1 1_555 1_555
O3 S1 1_555 1_555
O4 C1 1_555 1_555
O5 La1 1_555 1_555
O6 S1 1_555 1_555
O7 La1 1_555 1_555
O8 S1 1_555 1_555
O9 La1 1_555 1_555
O10 S2 1_555 1_555
C1 C2 1_555 1_555
C2 H1 1_555 1_555
H2 C2 1_555 1_555
C3 N1 1_555 1_555
H3 C3 1_555 1_555
H4 C3 1_555 1_555
C4 N1 1_555 1_555
H5 C4 1_555 1_555
H6 C4 1_555 1_555
H7 O7 1_555 1_555
H8 O5 1_555 1_555
H9 O7 1_555 1_555
H10 N1 1_555 1_555
H11 O5 1_555 1_555
La1D O1D 1_555 1_555
La1F O3 1_555 1_555
La1F_2 O4 1_555 1_555
La1_2 O6 1_555 1_555
La1A O9A 1_555 1_555
La1B O4D 1_555 1_555
S1F O2F 1_555 1_555
N1D C2D 1_555 1_555
O1D C1D 1_555 1_555
O2F La1F 1_555 1_555
O2D La1D 1_555 1_555
O3F La1 1_555 1_555
O3B La1D 1_555 1_555
O4D C1D 1_555 1_555
O4F La1 1_555 1_555
O4B La1D 1_555 1_555
O5D La1D 1_555 1_555
O6F La1F_2 1_555 1_555
O6_2 La1 1_555 1_555
O6D La1D 1_555 1_555
O7D La1D 1_555 1_555
O8F S1F 1_555 1_555
O9A S2 1_555 1_555
O9D La1D 1_555 1_555
O10A S2 1_555 1_555
C1D C2D 1_555 1_555
C2D H1D 1_555 1_555
H2D C2D 1_555 1_555
C3D C4 1_555 1_555
H3D C3D 1_555 1_555
H4D C3D 1_555 1_555
C4D C3 1_555 1_555
H5D C4D 1_555 1_555
H6D C4D 1_555 1_555
H7D O7D 1_555 1_555
H8D O5D 1_555 1_555
H9D O7D 1_555 1_555
H10D N1D 1_555 1_555
H11D O5D 1_555 1_555
S1F O3F 1_555 1_555
S1F O6F 1_555 1_555
N1D C3D 1_555 1_555
N1D C4D 1_555 1_555

#END
