
#######################################################################
#
#                 Cambridge Crystallographic Data Centre
#                                CCDC 
#
#######################################################################
#
# If this CIF has been generated from an entry in the Cambridge 
# Structural Database, then it will include bibliographic, chemical, 
# crystal, experimental, refinement or atomic coordinate data resulting 
# from the CCDC's data processing and validation procedures.
#
#######################################################################

data_GAFPAG
_symmetry_cell_setting           monoclinic
_symmetry_space_group_name_H-M   'C 2/c'
_symmetry_Int_Tables_number      15
_space_group_name_Hall           '-C 2yn'
loop_
_symmetry_equiv_pos_site_id
_symmetry_equiv_pos_as_xyz
1 x,y,z
2 -x,y,1/2-z
3 1/2+x,1/2+y,z
4 1/2-x,1/2+y,1/2-z
5 -x,-y,-z
6 x,-y,1/2+z
7 1/2-x,1/2-y,-z
8 1/2+x,1/2-y,1/2+z
_cell_length_a                   24.436(4)
_cell_length_b                   6.6606(11)
_cell_length_c                   16.737(3)
_cell_angle_alpha                90
_cell_angle_beta                 128.881(6)
_cell_angle_gamma                90
_cell_volume                     2120.57
loop_
_atom_site_label
_atom_site_type_symbol
_atom_site_fract_x
_atom_site_fract_y
_atom_site_fract_z
Pr1 Pr 0.160968(10) 0.43406(3) 0.872308(14)
S1 S 0.27772(5) 0.56789(13) 1.14357(7)
S2 S 0.0000 0.75146(19) 0.7500
C1 C 0.1517(2) 0.0946(5) 0.9928(3)
C2 C 0.1323(2) -0.0511(6) 1.0408(3)
H1 H 0.1388 -0.1877 1.0280
H2 H 0.1628 -0.0303 1.1145
C3 C 0.0278(2) -0.1994(6) 1.0107(3)
H3 H 0.0542 -0.2253 1.0834
H4 H 0.0318 -0.3164 0.9801
C4 C 0.0484(2) 0.1626(6) 1.0389(3)
H5 H 0.0670 0.2786 1.0281
H6 H 0.0750 0.1460 1.1123
N1 N 0.05751(17) -0.0198(5) 0.9963(2)
H7 H 0.028(2) -0.001(7) 0.922(3)
O1 O 0.10475(13) 0.2015(4) 0.92043(19)
O2 O 0.21459(14) 0.0980(4) 1.0286(2)
O3 O 0.20731(13) 0.5310(4) 1.04618(19)
O4 O 0.31364(14) 0.7213(4) 1.12843(18)
O5 O 0.27102(14) 0.6407(4) 1.22020(19)
O6 O 0.31964(14) 0.3825(4) 1.1814(2)
O7 O 0.05707(14) 0.6207(4) 0.8321(2)
O8 O 0.02507(15) 0.8765(4) 0.7068(2)
O9 O 0.04637(13) 0.2882(4) 0.71234(19)
H8 H 0.0531 0.1518 0.7337
H9 H 0.0114 0.3829 0.6958
O10 O 0.16490(15) 0.4962(4) 0.7262(2)
H10 H 0.1898 0.4154 0.7116
H11 H 0.1892 0.6184 0.7382
Pr1D Pr -0.160968(10) -0.43406(3) 1.127692(14)
Pr1F Pr 0.339032(10) 0.06594(3) 1.127692(14)
Pr1F_2 Pr 0.339032(10) 1.06594(3) 1.127692(14)
Pr1A Pr -0.160968(10) 0.43406(3) 0.627692(14)
Pr1B Pr -0.339032(10) -0.06594(3) 0.872308(14)
Pr1_2 Pr 0.160968(10) 1.43406(3) 0.872308(14)
S1F S 0.22228(5) 0.93211(13) 0.85643(7)
C1D C -0.1517(2) -0.0946(5) 1.0072(3)
C2D C -0.1323(2) 0.0511(6) 0.9592(3)
H1D H -0.1388 0.1877 0.9720
H2D H -0.1628 0.0303 0.8855
C3D C -0.0278(2) 0.1994(6) 0.9893(3)
H3D H -0.0542 0.2253 0.9166
H4D H -0.0318 0.3164 1.0199
C4D C -0.0484(2) -0.1626(6) 0.9611(3)
H5D H -0.0670 -0.2786 0.9719
H6D H -0.0750 -0.1460 0.8877
N1D N -0.05751(17) 0.0198(5) 1.0037(2)
H7D H -0.028(2) 0.001(7) 1.078(3)
O1D O -0.10475(13) -0.2015(4) 1.07957(19)
O2D O -0.21459(14) -0.0980(4) 0.9714(2)
O2F O 0.28541(14) 0.4020(4) 0.9714(2)
O2B O -0.28541(14) -0.4020(4) 1.0286(2)
O3F O 0.29269(13) 0.9690(4) 0.95382(19)
O3D O -0.20731(13) -0.5310(4) 0.95382(19)
O4F O 0.18636(14) 0.7787(4) 0.87157(18)
O4B O -0.18636(14) -0.7787(4) 1.12843(18)
O5F O 0.22898(14) 0.8593(4) 0.77980(19)
O6F O 0.18036(14) 1.1175(4) 0.8186(2)
O6F_2 O 0.18036(14) 0.1175(4) 0.8186(2)
O6B O -0.18036(14) -0.1175(4) 1.1814(2)
O7A O -0.05707(14) 0.6207(4) 0.6679(2)
O7D O -0.05707(14) -0.6207(4) 1.1679(2)
O8A O -0.02507(15) 0.8765(4) 0.7932(2)
O9D O -0.04637(13) -0.2882(4) 1.28766(19)
H8D H -0.0531 -0.1518 1.2663
H9D H -0.0114 -0.3829 1.3042
O10D O -0.16490(15) -0.4962(4) 1.2738(2)
H10D H -0.1898 -0.4154 1.2884
H11D H -0.1892 -0.6184 1.2618
loop_
_geom_bond_atom_site_label_1
_geom_bond_atom_site_label_2
_geom_bond_site_symmetry_1
_geom_bond_site_symmetry_2
Pr1 O1 1_555 1_555
S1 O3 1_555 1_555
S2 O7 1_555 1_555
C1 C2 1_555 1_555
C2 H1 1_555 1_555
H2 C2 1_555 1_555
C3 H3 1_555 1_555
H4 C3 1_555 1_555
C4 H5 1_555 1_555
H6 C4 1_555 1_555
N1 C2 1_555 1_555
H7 N1 1_555 1_555
O1 C1 1_555 1_555
O2 C1 1_555 1_555
O3 Pr1 1_555 1_555
O4 S1 1_555 1_555
O5 S1 1_555 1_555
O6 S1 1_555 1_555
O7 Pr1 1_555 1_555
O8 S2 1_555 1_555
O9 Pr1 1_555 1_555
H8 O9 1_555 1_555
H9 O9 1_555 1_555
O10 Pr1 1_555 1_555
H10 O10 1_555 1_555
H11 O10 1_555 1_555
Pr1D O1D 1_555 1_555
Pr1F O2 1_555 1_555
Pr1F_2 O4 1_555 1_555
Pr1A O7A 1_555 1_555
Pr1B O2D 1_555 1_555
Pr1_2 O6F 1_555 1_555
S1F O3F 1_555 1_555
C1D C2D 1_555 1_555
C2D H1D 1_555 1_555
H2D C2D 1_555 1_555
C3D C4 1_555 1_555
H3D C3D 1_555 1_555
H4D C3D 1_555 1_555
C4D C3 1_555 1_555
H5D C4D 1_555 1_555
H6D C4D 1_555 1_555
N1D C2D 1_555 1_555
H7D N1D 1_555 1_555
O1D C1D 1_555 1_555
O2D C1D 1_555 1_555
O2F Pr1 1_555 1_555
O2B Pr1D 1_555 1_555
O3F Pr1F_2 1_555 1_555
O3D Pr1D 1_555 1_555
O4F Pr1 1_555 1_555
O4B Pr1D 1_555 1_555
O5F S1F 1_555 1_555
O6F S1F 1_555 1_555
O6F_2 Pr1 1_555 1_555
O6B Pr1D 1_555 1_555
O7A S2 1_555 1_555
O7D Pr1D 1_555 1_555
O8A S2 1_555 1_555
O9D Pr1D 1_555 1_555
H8D O9D 1_555 1_555
H9D O9D 1_555 1_555
O10D Pr1D 1_555 1_555
H10D O10D 1_555 1_555
H11D O10D 1_555 1_555
C3 N1 1_555 1_555
C4 N1 1_555 1_555
O6 Pr1F 1_555 1_555
S1F O4F 1_555 1_555
C3D N1D 1_555 1_555
C4D N1D 1_555 1_555

#END
