
#######################################################################
#
#                 Cambridge Crystallographic Data Centre
#                                CCDC 
#
#######################################################################
#
# If this CIF has been generated from an entry in the Cambridge 
# Structural Database, then it will include bibliographic, chemical, 
# crystal, experimental, refinement or atomic coordinate data resulting 
# from the CCDC's data processing and validation procedures.
#
#######################################################################

data_GAFXOB
_symmetry_cell_setting           monoclinic
_symmetry_space_group_name_H-M   'C 2/c'
_symmetry_Int_Tables_number      15
_space_group_name_Hall           '-C 2yn'
loop_
_symmetry_equiv_pos_site_id
_symmetry_equiv_pos_as_xyz
1 x,y,z
2 1/2+x,1/2+y,z
3 x,-y,1/2+z
4 1/2+x,1/2-y,1/2+z
5 -x,-y,-z
6 1/2-x,1/2-y,-z
7 -x,y,1/2-z
8 1/2-x,1/2+y,1/2-z
_cell_length_a                   20.373(2)
_cell_length_b                   8.0582(9)
_cell_length_c                   13.9916(15)
_cell_angle_alpha                90
_cell_angle_beta                 121.694(2)
_cell_angle_gamma                90
_cell_volume                     1954.44
loop_
_atom_site_label
_atom_site_type_symbol
_atom_site_fract_x
_atom_site_fract_y
_atom_site_fract_z
La1 La 0.268155(18) 0.21411(4) 0.22933(3)
O1 O 0.1932(3) 0.2422(6) 0.3280(4)
O2 O 0.1810(3) 0.5139(6) 0.3443(4)
O3 O 0.1860(2) 0.5163(5) 0.6291(3)
O4 O 0.1642(3) 0.7302(6) 0.5210(3)
O5 O 0.1725(2) -0.0196(5) 0.1563(3)
O6 O 0.0911(2) -0.2239(6) 0.1143(4)
O7 O 0.3341(3) 0.3901(6) 0.1474(4)
C1 C 0.1685(3) 0.3642(10) 0.3559(5)
C2 C 0.1211(4) 0.3283(8) 0.4077(5)
H1 H 0.1528 0.2669 0.4769
H2 H 0.0781 0.2578 0.3570
C3 C 0.0893(3) 0.4840(8) 0.4339(5)
H3 H 0.0645 0.5544 0.3678
H4 H 0.0503 0.4502 0.4498
C4 C 0.1498(3) 0.5834(9) 0.5313(5)
C5 C 0.1033(3) -0.0781(9) 0.1041(5)
C6 C 0.0392(3) 0.0409(8) 0.0327(6)
H5 H 0.0500 0.0945 -0.0197
H6 H 0.0379 0.1264 0.0805
H7 H 0.326(5) 0.501(13) 0.123(7)
H8 H 0.320(4) 0.357(11) 0.066(7)
C6D C -0.0392(3) -0.0409(8) -0.0327(6)
C5D C -0.1033(3) 0.0781(9) -0.1041(5)
O5D O -0.1725(2) 0.0196(5) -0.1563(3)
O6D O -0.0911(2) 0.2239(6) -0.1143(4)
H5D H -0.0500 -0.0945 0.0197
H6D H -0.0379 -0.1264 -0.0805
O1G O 0.3068(3) -0.2578(6) 0.1720(4)
O2G O 0.3190(3) 0.0139(6) 0.1557(4)
O3G O 0.3140(2) 0.0163(5) -0.1291(3)
O4G O 0.3358(3) 0.2302(6) -0.0210(3)
C1G C 0.3315(3) -0.1358(10) 0.1441(5)
C2G C 0.3789(4) -0.1717(8) 0.0923(5)
H1G H 0.3472 -0.2331 0.0231
H2G H 0.4219 -0.2422 0.1430
C3G C 0.4107(3) -0.0160(8) 0.0661(5)
H3G H 0.4355 0.0544 0.1322
H4G H 0.4497 -0.0498 0.0502
C4G C 0.3502(3) 0.0834(9) -0.0313(5)
La1G La 0.231845(18) -0.28589(4) 0.27067(3)
O7G O 0.1659(3) -0.1099(6) 0.3526(4)
H7G H 0.174(5) 0.001(13) 0.377(7)
H8G H 0.180(4) -0.143(11) 0.434(7)
O3B O 0.1860(2) 0.4837(5) 0.1291(3)
O3E O 0.3140(2) -0.0163(5) 0.3709(3)
O4B O 0.1642(3) 0.2698(6) 0.0210(3)
O5G O 0.3275(2) 0.4804(5) 0.3437(3)
O6G O 0.4089(2) 0.2761(6) 0.3857(4)
La1G_2 La 0.231845(18) 0.71411(4) 0.27067(3)
La1B La 0.268155(18) 0.78589(4) 0.72933(3)
La1E La 0.231845(18) 0.28589(4) 0.77067(3)
La1C La -0.231845(18) 0.28589(4) -0.27067(3)
La1D La -0.268155(18) -0.21411(4) -0.22933(3)
La1B_2 La 0.268155(18) -0.21411(4) -0.27067(3)
La1E_2 La 0.231845(18) 0.28589(4) -0.22933(3)
O2_2 O 0.1810(3) -0.4861(6) 0.3443(4)
O3B_2 O 0.1860(2) -0.5163(5) 0.1291(3)
O4E O 0.3358(3) -0.2302(6) 0.4790(3)
O5G_2 O 0.3275(2) -0.5196(5) 0.3437(3)
O8 O 0.5000 0.473(3) 0.2500
loop_
_geom_bond_atom_site_label_1
_geom_bond_atom_site_label_2
_geom_bond_site_symmetry_1
_geom_bond_site_symmetry_2
La1 O1 1_555 1_555
O1 C1 1_555 1_555
O2 C1 1_555 1_555
O3 C4 1_555 1_555
O4 C4 1_555 1_555
O5 La1 1_555 1_555
O6 C5 1_555 1_555
O7 La1 1_555 1_555
C1 C2 1_555 1_555
C2 H1 1_555 1_555
H2 C2 1_555 1_555
C3 C2 1_555 1_555
H3 C3 1_555 1_555
H4 C3 1_555 1_555
C4 C3 1_555 1_555
C5 O5 1_555 1_555
C6 C5 1_555 1_555
H5 C6 1_555 1_555
H6 C6 1_555 1_555
H7 O7 1_555 1_555
H8 O7 1_555 1_555
C6D C6 1_555 1_555
C5D C6D 1_555 1_555
O5D C5D 1_555 1_555
O6D C5D 1_555 1_555
H5D C6D 1_555 1_555
H6D C6D 1_555 1_555
O1G C1G 1_555 1_555
O2G La1 1_555 1_555
O3G C4G 1_555 1_555
O4G C4G 1_555 1_555
C1G O2G 1_555 1_555
C2G C1G 1_555 1_555
H1G C2G 1_555 1_555
H2G C2G 1_555 1_555
C3G C2G 1_555 1_555
H3G C3G 1_555 1_555
H4G C3G 1_555 1_555
C4G C3G 1_555 1_555
La1G O5 1_555 1_555
O7G La1G 1_555 1_555
H7G O7G 1_555 1_555
H8G O7G 1_555 1_555
O3B La1 1_555 1_555
O3E La1 1_555 1_555
O4B La1 1_555 1_555
O5G La1 1_555 1_555
O6G La1 1_555 1_555
La1G_2 O2 1_555 1_555
La1B O3 1_555 1_555
La1E O3 1_555 1_555
La1C O5D 1_555 1_555
La1D O5D 1_555 1_555
La1B_2 O3G 1_555 1_555
La1E_2 O3G 1_555 1_555
O2_2 La1G 1_555 1_555
O3B_2 La1G 1_555 1_555
O4E La1G 1_555 1_555
O5G_2 La1G 1_555 1_555
O4 La1B 1_555 1_555
O6 La1G 1_555 1_555
O6D La1C 1_555 1_555
O1G La1G 1_555 1_555
O4G La1E_2 1_555 1_555
La1G O3E 1_555 1_555
O3B La1G_2 1_555 1_555
O5G La1G_2 1_555 1_555

#END
