
#######################################################################
#
#                 Cambridge Crystallographic Data Centre
#                                CCDC 
#
#######################################################################
#
# If this CIF has been generated from an entry in the Cambridge 
# Structural Database, then it will include bibliographic, chemical, 
# crystal, experimental, refinement or atomic coordinate data resulting 
# from the CCDC's data processing and validation procedures.
#
#######################################################################

data_GAGCOI
_symmetry_cell_setting           triclinic
_symmetry_space_group_name_H-M   'P -1'
_symmetry_Int_Tables_number      2
_space_group_name_Hall           '-P 1'
loop_
_symmetry_equiv_pos_site_id
_symmetry_equiv_pos_as_xyz
1 x,y,z
2 -x,-y,-z
_cell_length_a                   11.9283(2)
_cell_length_b                   12.3814(2)
_cell_length_c                   14.0917(3)
_cell_angle_alpha                74.705(1)
_cell_angle_beta                 87.240(1)
_cell_angle_gamma                61.448(1)
_cell_volume                     1755.86
loop_
_atom_site_label
_atom_site_type_symbol
_atom_site_fract_x
_atom_site_fract_y
_atom_site_fract_z
Pb1 Pb 0.8375(1) 0.5586(1) 0.6322(1)
S1 S 0.8658(2) 0.6276(3) 0.4081(2)
S2 S 0.5929(1) 0.7132(2) 0.5104(1)
S3 S 0.9832(2) 0.4507(2) 0.8319(1)
S4 S 0.6640(2) 0.6215(2) 0.7763(1)
P1 P 0.6798(2) 0.7365(2) 0.3894(1)
P2 P 0.8139(2) 0.5535(2) 0.8777(1)
N1 N 0.8202(6) 0.3484(5) 0.6398(5)
N2 N 0.8415(5) -0.2254(5) 0.6228(5)
C1 C 0.7404(7) 0.3484(6) 0.5772(6)
C2 C 0.7450(7) 0.2382(6) 0.5680(6)
C3 C 0.8344(5) 0.1214(5) 0.6273(5)
C4 C 0.9165(7) 0.1216(6) 0.6944(7)
C5 C 0.9058(7) 0.2360(7) 0.6974(7)
C6 C 0.7325(6) -0.1181(6) 0.6145(5)
C7 C 0.7276(6) -0.0048(5) 0.6133(5)
C8 C 0.8392(6) 0.0008(5) 0.6236(5)
C9 C 0.9535(7) -0.1115(7) 0.6324(8)
C10 C 0.9491(7) -0.2203(7) 0.6310(9)
C11 C 0.6366(8) 0.9135(9) 0.3577(7)
C12 C 0.7246(10) 0.9502(10) 0.3031(8)
C13 C 0.6929(13) 1.0827(12) 0.3119(11)
C14 C 0.7365(16) 0.9443(16) 0.1980(9)
C15 C 0.6001(9) 0.7278(10) 0.2867(6)
C16 C 0.5759(10) 0.6133(10) 0.3003(6)
C17 C 0.4729(15) 0.6470(16) 0.2230(9)
C18 C 0.6940(16) 0.4978(15) 0.2976(13)
C19 C 0.7919(9) 0.4653(9) 0.9938(5)
C20 C 0.7930(20) 0.3437(13) 0.9864(11)
C21 C 0.6770(20) 0.3300(30) 1.0140(30)
C22 C 0.8830(20) 0.2280(20) 1.0620(20)
C23 C 0.8198(7) 0.6906(8) 0.9026(5)
C24 C 0.6972(10) 0.8098(9) 0.9040(6)
C25 C 0.7265(17) 0.9155(12) 0.9081(10)
C26 C 0.6181(13) 0.7933(13) 0.9868(11)
Pb1_2 Pb 0.8375(1) -0.4414(1) 0.6322(1)
N2_2 N 0.8415(5) 0.7746(5) 0.6228(5)
loop_
_geom_bond_atom_site_label_1
_geom_bond_atom_site_label_2
_geom_bond_site_symmetry_1
_geom_bond_site_symmetry_2
Pb1 S1 1_555 1_555
S1 P1 1_555 1_555
S2 Pb1 1_555 1_555
S3 Pb1 1_555 1_555
S4 Pb1 1_555 1_555
P1 S2 1_555 1_555
P2 S3 1_555 1_555
N1 Pb1 1_555 1_555
N2 C6 1_555 1_555
C1 N1 1_555 1_555
C2 C1 1_555 1_555
C3 C2 1_555 1_555
C4 C3 1_555 1_555
C5 N1 1_555 1_555
C6 C7 1_555 1_555
C7 C8 1_555 1_555
C8 C3 1_555 1_555
C9 C8 1_555 1_555
C10 N2 1_555 1_555
C11 P1 1_555 1_555
C12 C11 1_555 1_555
C13 C12 1_555 1_555
C14 C12 1_555 1_555
C15 P1 1_555 1_555
C16 C15 1_555 1_555
C17 C16 1_555 1_555
C18 C16 1_555 1_555
C19 P2 1_555 1_555
C20 C19 1_555 1_555
C21 C20 1_555 1_555
C22 C20 1_555 1_555
C23 P2 1_555 1_555
C24 C23 1_555 1_555
C25 C24 1_555 1_555
C26 C24 1_555 1_555
Pb1_2 N2 1_555 1_555
N2_2 Pb1 1_555 1_555
S4 P2 1_555 1_555
C4 C5 1_555 1_555
C9 C10 1_555 1_555

#END
