
#######################################################################
#
#                 Cambridge Crystallographic Data Centre
#                                CCDC 
#
#######################################################################
#
# If this CIF has been generated from an entry in the Cambridge 
# Structural Database, then it will include bibliographic, chemical, 
# crystal, experimental, refinement or atomic coordinate data resulting 
# from the CCDC's data processing and validation procedures.
#
#######################################################################

data_GAGWOB
_symmetry_cell_setting           orthorhombic
_symmetry_space_group_name_H-M   'P 21 21 21'
_symmetry_Int_Tables_number      19
_space_group_name_Hall           'P 2ac 2ab'
loop_
_symmetry_equiv_pos_site_id
_symmetry_equiv_pos_as_xyz
1 x,y,z
2 1/2-x,-y,1/2+z
3 -x,1/2+y,1/2-z
4 1/2+x,1/2-y,-z
_cell_length_a                   6.7145(5)
_cell_length_b                   13.0147(9)
_cell_length_c                   13.2121(9)
_cell_angle_alpha                90
_cell_angle_beta                 90
_cell_angle_gamma                90
_cell_volume                     1154.57
loop_
_atom_site_label
_atom_site_type_symbol
_atom_site_fract_x
_atom_site_fract_y
_atom_site_fract_z
Co1 Co -0.05862(4) -0.11847(2) 0.01714(2)
O1 O -0.0414(3) -0.25299(12) 0.10243(11)
O2 O -0.2651(2) -0.36062(13) 0.03497(11)
O3 O 0.0027(3) -0.08384(13) 0.55227(13)
O4 O -0.0595(3) -0.12716(13) 0.71250(11)
O5 O -0.3524(3) -0.10338(13) 0.06732(14)
H1 H -0.414(4) -0.0483(13) 0.057(2)
H2 H -0.443(4) -0.148(2) 0.073(3)
O6 O -0.1304(3) -0.20732(14) -0.11067(13)
H3 H -0.110(5) -0.187(2) -0.1699(9)
H4 H -0.2534(9) -0.219(2) -0.113(2)
N1 N -0.0392(3) -0.53403(14) 0.35497(14)
C1 C -0.0835(4) -0.57197(17) 0.26362(17)
H5 H -0.0896 -0.6445 0.2564
C2 C -0.1211(4) -0.51219(18) 0.17872(17)
H6 H -0.1549 -0.5426 0.1157
C3 C -0.1076(3) -0.40597(17) 0.18941(16)
C4 C -0.0616(3) -0.36585(16) 0.28424(15)
H7 H -0.0513 -0.2936 0.2932
C5 C -0.0307(3) -0.43107(16) 0.36562(16)
C6 C 0.0099(3) -0.39286(17) 0.46907(15)
C7 C -0.0081(3) -0.29020(17) 0.49522(15)
H8 H -0.0388 -0.2407 0.4448
C8 C 0.0187(3) -0.25945(17) 0.59494(16)
C9 C 0.0705(4) -0.33383(17) 0.66532(16)
H9 H 0.0899 -0.3157 0.7343
C10 C 0.0938(4) -0.43493(18) 0.63422(17)
H10 H 0.1348 -0.4847 0.6825
N2 N 0.0608(3) -0.46534(14) 0.53849(13)
C11 C -0.1442(3) -0.33489(17) 0.10164(16)
C12 C -0.0156(3) -0.14699(17) 0.62251(16)
O2C O 0.2349(2) -0.13938(13) -0.03497(11)
N1B N 0.0392(3) -0.03403(14) 0.14503(14)
N2B N -0.0608(3) 0.03466(14) -0.03849(13)
Co1C Co -0.55862(4) -0.38153(2) -0.01714(2)
Co1B Co 0.05862(4) -0.61847(2) 0.48286(2)
loop_
_geom_bond_atom_site_label_1
_geom_bond_atom_site_label_2
_geom_bond_site_symmetry_1
_geom_bond_site_symmetry_2
Co1 O1 1_555 1_555
O1 C11 1_555 1_555
O2 C11 1_555 1_555
O3 C12 1_555 1_555
O4 C12 1_555 1_555
O5 Co1 1_555 1_555
H1 O5 1_555 1_555
H2 O5 1_555 1_555
O6 Co1 1_555 1_555
H3 O6 1_555 1_555
H4 O6 1_555 1_555
N1 C1 1_555 1_555
C1 H5 1_555 1_555
C2 C1 1_555 1_555
H6 C2 1_555 1_555
C3 C2 1_555 1_555
C4 C3 1_555 1_555
H7 C4 1_555 1_555
C5 N1 1_555 1_555
C6 C5 1_555 1_555
C7 C6 1_555 1_555
H8 C7 1_555 1_555
C8 C7 1_555 1_555
C9 C8 1_555 1_555
H9 C9 1_555 1_555
C10 C9 1_555 1_555
H10 C10 1_555 1_555
N2 C6 1_555 1_555
C11 C3 1_555 1_555
C12 C8 1_555 1_555
O2C Co1 1_555 1_555
N1B Co1 1_555 1_555
N2B Co1 1_555 1_555
Co1C O2 1_555 1_555
Co1B N1 1_555 1_555
C4 C5 1_555 1_555
C10 N2 1_555 1_555
N2 Co1B 1_555 1_555

#END
