
#######################################################################
#
#                 Cambridge Crystallographic Data Centre
#                                CCDC 
#
#######################################################################
#
# If this CIF has been generated from an entry in the Cambridge 
# Structural Database, then it will include bibliographic, chemical, 
# crystal, experimental, refinement or atomic coordinate data resulting 
# from the CCDC's data processing and validation procedures.
#
#######################################################################

data_GAGXIW
_symmetry_cell_setting           triclinic
_symmetry_space_group_name_H-M   'P -1'
_symmetry_Int_Tables_number      2
_space_group_name_Hall           '-P 1'
loop_
_symmetry_equiv_pos_site_id
_symmetry_equiv_pos_as_xyz
1 x,y,z
2 -x,-y,-z
_cell_length_a                   11.2560(12)
_cell_length_b                   12.3676(13)
_cell_length_c                   21.812(2)
_cell_angle_alpha                94.508(2)
_cell_angle_beta                 96.628(2)
_cell_angle_gamma                116.2050(10)
_cell_volume                     2677.4
loop_
_atom_site_label
_atom_site_type_symbol
_atom_site_fract_x
_atom_site_fract_y
_atom_site_fract_z
Pb1 Pb 0.93354(3) 0.62689(3) 0.040758(17)
S1 S 0.8146(3) 0.7322(2) 0.09831(12)
S2 S 0.8191(3) 0.6663(2) -0.05950(12)
N1 N 1.1651(9) 0.8519(7) 0.0539(4)
N2 N 1.7191(8) 1.4160(7) 0.0389(4)
C1 C 0.8143(10) 0.6762(10) 0.1714(4)
C2 C 0.6938(11) 0.5897(11) 0.1860(5)
C3 C 0.6968(15) 0.5499(14) 0.2432(6)
H1 H 0.6159 0.4907 0.2536
C4 C 0.8140(17) 0.5938(15) 0.2856(6)
H2 H 0.8137 0.5634 0.3243
C5 C 0.9300(14) 0.6805(13) 0.2721(6)
H3 H 1.0101 0.7119 0.3020
C6 C 0.9330(11) 0.7235(11) 0.2155(5)
C7 C 0.5628(13) 0.5434(16) 0.1422(6)
H4 H 0.5383 0.6098 0.1387
H5 H 0.4925 0.4771 0.1584
H6 H 0.5721 0.5133 0.1010
C8 C 1.0632(12) 0.8225(13) 0.2023(7)
H7 H 1.1325 0.8491 0.2395
H8 H 1.0491 0.8919 0.1913
H9 H 1.0921 0.7907 0.1675
C9 C 0.9078(9) 0.6476(8) -0.1190(4)
C10 C 1.0014(10) 0.7504(10) -0.1412(5)
C11 C 1.0630(11) 0.7335(12) -0.1898(5)
H10 H 1.1237 0.8025 -0.2057
C12 C 1.0379(11) 0.6174(12) -0.2159(5)
H11 H 1.0828 0.6074 -0.2485
C13 C 0.9467(10) 0.5170(11) -0.1936(5)
H12 H 0.9294 0.4375 -0.2110
C14 C 0.8801(9) 0.5311(9) -0.1460(5)
C15 C 1.0321(14) 0.8771(10) -0.1153(6)
H13 H 1.0948 0.9350 -0.1385
H14 H 1.0729 0.8942 -0.0712
H15 H 0.9489 0.8851 -0.1192
C16 C 0.7767(10) 0.4185(9) -0.1258(6)
H16 H 0.7728 0.3459 -0.1494
H17 H 0.6886 0.4172 -0.1335
H18 H 0.8016 0.4190 -0.0811
C17 C 1.5982(9) 1.3822(8) 0.0057(5)
H19 H 1.5882 1.4343 -0.0219
C18 C 1.4863(10) 1.2751(8) 0.0095(5)
H20 H 1.4015 1.2549 -0.0146
C19 C 1.5011(9) 1.1970(8) 0.0496(5)
C20 C 1.6266(10) 1.2322(9) 0.0834(5)
H21 H 1.6399 1.1812 0.1109
C21 C 1.7338(10) 1.3416(9) 0.0776(5)
H22 H 1.8195 1.3645 0.1015
C22 C 1.3838(9) 1.0798(8) 0.0532(5)
C23 C 1.2547(10) 1.0658(9) 0.0499(5)
H23 H 1.2383 1.1344 0.0471
C24 C 1.1507(10) 0.9546(9) 0.0504(6)
H24 H 1.0631 0.9485 0.0483
C25 C 1.2883(10) 0.8661(9) 0.0584(5)
H25 H 1.3014 0.7959 0.0616
C26 C 1.3998(11) 0.9743(9) 0.0588(5)
H26 H 1.4865 0.9779 0.0629
N2_2 N 0.7191(8) 0.4160(7) 0.0389(4)
Pb1_2 Pb 1.93354(3) 1.62689(3) 0.040758(17)
Pb2 Pb 0.67862(3) 1.11135(3) 0.458954(17)
S3 S 0.8715(3) 1.1859(2) 0.39359(13)
S4 S 0.8615(2) 1.2133(2) 0.55828(12)
N3 N 0.7048(9) 0.9089(7) 0.4623(4)
N4 N 0.6830(8) 0.3274(7) 0.4519(4)
C27 C 0.7863(10) 1.0907(9) 0.3210(5)
C28 C 0.6931(10) 1.1096(10) 0.2817(5)
C29 C 0.6294(12) 1.0342(13) 0.2250(6)
H27 H 0.5644 1.0465 0.1987
C30 C 0.6608(15) 0.9407(13) 0.2068(7)
H28 H 0.6184 0.8901 0.1678
C31 C 0.7537(15) 0.9218(11) 0.2456(7)
H29 H 0.7733 0.8569 0.2332
C32 C 0.8196(12) 0.9962(11) 0.3029(6)
C33 C 0.6601(13) 1.2142(11) 0.2990(6)
H30 H 0.6165 1.2298 0.2616
H31 H 0.7431 1.2877 0.3168
H32 H 0.5994 1.1922 0.3298
C34 C 0.9209(16) 0.9729(14) 0.3424(7)
H33 H 0.8870 0.9438 0.3804
H34 H 1.0050 1.0486 0.3537
H35 H 0.9372 0.9111 0.3191
C35 C 0.7647(9) 1.2218(9) 0.6162(4)
C36 C 0.6903(9) 1.1184(9) 0.6422(5)
C37 C 0.6183(11) 1.1265(11) 0.6885(5)
H36 H 0.5667 1.0555 0.7058
C38 C 0.6202(12) 1.2344(13) 0.7097(6)
H37 H 0.5697 1.2383 0.7410
C39 C 0.6960(12) 1.3371(12) 0.6851(5)
H38 H 0.6991 1.4126 0.7003
C40 C 0.7682(11) 1.3324(9) 0.6384(5)
C41 C 0.6903(11) 0.9977(10) 0.6238(6)
H39 H 0.6571 0.9711 0.5790
H40 H 0.6317 0.9366 0.6471
H41 H 0.7819 1.0072 0.6335
C42 C 0.8574(14) 1.4518(10) 0.6162(6)
H42 H 0.8440 1.5181 0.6365
H43 H 0.8335 1.4443 0.5708
H44 H 0.9517 1.4695 0.6269
C43 C 0.6067(12) 0.8125(10) 0.4251(6)
H45 H 0.5365 0.8222 0.4015
C44 C 0.6031(12) 0.6999(9) 0.4198(7)
H46 H 0.5327 0.6343 0.3917
C45 C 0.7004(10) 0.6808(9) 0.4544(5)
C46 C 0.8035(10) 0.7807(8) 0.4927(5)
H47 H 0.8745 0.7731 0.5168
C47 C 0.8012(10) 0.8916(9) 0.4951(5)
H48 H 0.8721 0.9595 0.5216
C48 C 0.6964(10) 0.5583(8) 0.4515(5)
C49 C 0.8105(9) 0.5427(8) 0.4559(5)
H49 H 0.8962 0.6111 0.4595
C50 C 0.7996(10) 0.4275(8) 0.4549(5)
H50 H 0.8793 0.4183 0.4564
C51 C 0.5734(11) 0.3444(9) 0.4460(6)
H51 H 0.4885 0.2748 0.4419
C52 C 0.5759(11) 0.4555(9) 0.4456(7)
H52 H 0.4943 0.4618 0.4413
N4_2 N 0.6830(8) 1.3274(7) 0.4519(4)
Pb2_2 Pb 0.67862(3) 0.11135(3) 0.458954(17)
C53 C 0.227(4) 0.259(3) 0.2636(16)
H53 H 0.2236 0.3276 0.2442
H54 H 0.1332 0.1944 0.2593
Cl1 Cl 0.3126(10) 0.2024(11) 0.2205(5)
Cl2 Cl 0.2830(15) 0.3050(10) 0.3356(5)
loop_
_geom_bond_atom_site_label_1
_geom_bond_atom_site_label_2
_geom_bond_site_symmetry_1
_geom_bond_site_symmetry_2
Pb1 S1 1_555 1_555
S1 C1 1_555 1_555
S2 Pb1 1_555 1_555
N1 Pb1 1_555 1_555
N2 C17 1_555 1_555
C1 C2 1_555 1_555
C2 C3 1_555 1_555
C3 H1 1_555 1_555
C4 C3 1_555 1_555
H2 C4 1_555 1_555
C5 C4 1_555 1_555
H3 C5 1_555 1_555
C6 C1 1_555 1_555
C7 C2 1_555 1_555
H4 C7 1_555 1_555
H5 C7 1_555 1_555
H6 C7 1_555 1_555
C8 C6 1_555 1_555
H7 C8 1_555 1_555
H8 C8 1_555 1_555
H9 C8 1_555 1_555
C9 S2 1_555 1_555
C10 C9 1_555 1_555
C11 C10 1_555 1_555
H10 C11 1_555 1_555
C12 C11 1_555 1_555
H11 C12 1_555 1_555
C13 C12 1_555 1_555
H12 C13 1_555 1_555
C14 C9 1_555 1_555
C15 C10 1_555 1_555
H13 C15 1_555 1_555
H14 C15 1_555 1_555
H15 C15 1_555 1_555
C16 C14 1_555 1_555
H16 C16 1_555 1_555
H17 C16 1_555 1_555
H18 C16 1_555 1_555
C17 H19 1_555 1_555
C18 C17 1_555 1_555
H20 C18 1_555 1_555
C19 C18 1_555 1_555
C20 C19 1_555 1_555
H21 C20 1_555 1_555
C21 N2 1_555 1_555
H22 C21 1_555 1_555
C22 C19 1_555 1_555
C23 C22 1_555 1_555
H23 C23 1_555 1_555
C24 N1 1_555 1_555
H24 C24 1_555 1_555
C25 N1 1_555 1_555
H25 C25 1_555 1_555
C26 C22 1_555 1_555
H26 C26 1_555 1_555
Pb2 S3 1_555 1_555
S3 C27 1_555 1_555
S4 Pb2 1_555 1_555
N3 Pb2 1_555 1_555
N4 C50 1_555 1_555
C27 C28 1_555 1_555
C28 C29 1_555 1_555
C29 H27 1_555 1_555
C30 C29 1_555 1_555
H28 C30 1_555 1_555
C31 C30 1_555 1_555
H29 C31 1_555 1_555
C32 C27 1_555 1_555
C33 C28 1_555 1_555
H30 C33 1_555 1_555
H31 C33 1_555 1_555
H32 C33 1_555 1_555
C34 C32 1_555 1_555
H33 C34 1_555 1_555
H34 C34 1_555 1_555
H35 C34 1_555 1_555
C35 S4 1_555 1_555
C36 C35 1_555 1_555
C37 C36 1_555 1_555
H36 C37 1_555 1_555
C38 C37 1_555 1_555
H37 C38 1_555 1_555
C39 C38 1_555 1_555
H38 C39 1_555 1_555
C40 C35 1_555 1_555
C41 C36 1_555 1_555
H39 C41 1_555 1_555
H40 C41 1_555 1_555
H41 C41 1_555 1_555
C42 C40 1_555 1_555
H42 C42 1_555 1_555
H43 C42 1_555 1_555
H44 C42 1_555 1_555
C43 N3 1_555 1_555
H45 C43 1_555 1_555
C44 C43 1_555 1_555
H46 C44 1_555 1_555
C45 C44 1_555 1_555
C46 C45 1_555 1_555
H47 C46 1_555 1_555
C47 N3 1_555 1_555
H48 C47 1_555 1_555
C48 C45 1_555 1_555
C49 C48 1_555 1_555
H49 C49 1_555 1_555
C50 C49 1_555 1_555
H50 C50 1_555 1_555
C51 N4 1_555 1_555
H51 C51 1_555 1_555
C52 C48 1_555 1_555
H52 C52 1_555 1_555
C53 H53 1_555 1_555
H54 C53 1_555 1_555
Cl1 C53 1_555 1_555
Cl2 C53 1_555 1_555
N2_2 Pb1 1_555 1_555
Pb1_2 N2 1_555 1_555
N4_2 Pb2 1_555 1_555
Pb2_2 N4 1_555 1_555
C5 C6 1_555 1_555
C13 C14 1_555 1_555
C20 C21 1_555 1_555
C23 C24 1_555 1_555
C25 C26 1_555 1_555
C31 C32 1_555 1_555
C39 C40 1_555 1_555
C46 C47 1_555 1_555
C51 C52 1_555 1_555

#END
