
#######################################################################
#
#                 Cambridge Crystallographic Data Centre
#                                CCDC 
#
#######################################################################
#
# If this CIF has been generated from an entry in the Cambridge 
# Structural Database, then it will include bibliographic, chemical, 
# crystal, experimental, refinement or atomic coordinate data resulting 
# from the CCDC's data processing and validation procedures.
#
#######################################################################

data_GAHKIJ02
_symmetry_cell_setting           tetragonal
_symmetry_space_group_name_H-M   'I 41/a'
_symmetry_Int_Tables_number      88
_space_group_name_Hall           '-I 4ad'
loop_
_symmetry_equiv_pos_site_id
_symmetry_equiv_pos_as_xyz
1 x,y,z
2 1/2+x,1/2+y,1/2+z
3 3/4-y,1/4+x,1/4+z
4 1/4-y,3/4+x,3/4+z
5 1/2-x,-y,1/2+z
6 -x,1/2-y,z
7 3/4+y,3/4-x,3/4+z
8 1/4+y,1/4-x,1/4+z
9 -x,-y,-z
10 1/2-x,1/2-y,1/2-z
11 1/4+y,3/4-x,3/4-z
12 3/4+y,1/4-x,1/4-z
13 1/2+x,y,1/2-z
14 x,1/2+y,-z
15 1/4-y,1/4+x,1/4-z
16 3/4-y,3/4+x,3/4-z
_cell_length_a                   21.559(7)
_cell_length_b                   21.559(7)
_cell_length_c                   3.823(1)
_cell_angle_alpha                90
_cell_angle_beta                 90
_cell_angle_gamma                90
_cell_volume                     1776.89
loop_
_atom_site_label
_atom_site_type_symbol
_atom_site_fract_x
_atom_site_fract_y
_atom_site_fract_z
Cu1 Cu 0.0000 0.2500 0.125
N1 N 0.0727(2) 0.2137(2) -0.1075(12)
N2 N 0.1727(2) 0.1787(2) -0.3473(12)
C1 C 0.2089(2) 0.2145(2) -0.5451(12)
C2 C 0.1947(2) 0.2772(2) -0.6392(12)
C3 C 0.2668(2) 0.1881(2) -0.6688(12)
C4 C 0.2840(1) 0.1159(1) -0.5658(7)
C5 C 0.1201(2) 0.2003(2) -0.2282(14)
H1 H 0.159(2) 0.296(2) -0.544(16)
H2 H 0.313(6) 0.102(6) -0.638(37)
H3 H 0.247(6) 0.089(5) -0.596(36)
H4 H 0.304(6) 0.115(6) -0.415(42)
N1E N -0.0727(2) 0.2863(2) -0.1075(12)
N1K N -0.0363(2) 0.1773(2) 0.3575(12)
N1N N 0.0363(2) 0.3227(2) 0.3575(12)
C3I C 0.2332(2) 0.3119(2) -0.8312(12)
C2I C 0.3053(2) 0.2228(2) -0.8608(12)
C1I C 0.2911(2) 0.2855(2) -0.9549(12)
C4I C 0.2160(1) 0.3841(1) -0.9342(7)
H1I H 0.341(2) 0.204(2) -0.956(16)
N2I N 0.3273(2) 0.3213(2) -1.1527(12)
H2I H 0.187(6) 0.398(6) -0.862(37)
H3I H 0.253(6) 0.411(5) -0.904(36)
H4I H 0.196(6) 0.385(6) -1.085(42)
C5I C 0.3799(2) 0.2997(2) -1.2718(14)
N1I N 0.4273(2) 0.2863(2) -1.3925(12)
Cu1B Cu 0.5000 0.2500 -1.625
C5K C -0.0497(2) 0.1299(2) 0.4782(14)
N2K N -0.0713(2) 0.0773(2) 0.5973(12)
C1K C -0.0355(2) 0.0411(2) 0.7951(12)
C2K C 0.0272(2) 0.0553(2) 0.8892(12)
C3K C -0.0619(2) -0.0168(2) 0.9188(12)
C3C C 0.0619(2) 0.0168(2) 1.0812(12)
H1K H 0.046(2) 0.091(2) 0.794(16)
C2C C -0.0272(2) -0.0553(2) 1.1108(12)
C4K C -0.1341(1) -0.0340(1) 0.8158(7)
C1C C 0.0355(2) -0.0411(2) 1.2049(12)
C4C C 0.1341(1) 0.0340(1) 1.1842(7)
H1C H -0.046(2) -0.091(2) 1.206(16)
H2K H -0.148(6) -0.063(6) 0.888(37)
H3K H -0.161(5) 0.003(6) 0.846(36)
H4K H -0.135(6) -0.054(6) 0.665(42)
N2C N 0.0713(2) -0.0773(2) 1.4027(12)
H2C H 0.148(6) 0.063(6) 1.112(37)
H3C H 0.161(5) -0.003(6) 1.154(36)
H4C H 0.135(6) 0.054(6) 1.335(42)
C5C C 0.0497(2) -0.1299(2) 1.5218(14)
N1C N 0.0363(2) -0.1773(2) 1.6425(12)
Cu1C Cu 0.0000 -0.2500 1.875
loop_
_geom_bond_atom_site_label_1
_geom_bond_atom_site_label_2
_geom_bond_site_symmetry_1
_geom_bond_site_symmetry_2
Cu1 N1 1_555 1_555
N1 C5 1_555 1_555
N2 C1 1_555 1_555
C1 C2 1_555 1_555
C2 H1 1_555 1_555
C3 C1 1_555 1_555
C4 C3 1_555 1_555
C5 N2 1_555 1_555
H2 C4 1_555 1_555
H3 C4 1_555 1_555
H4 C4 1_555 1_555
N1E Cu1 1_555 1_555
N1K Cu1 1_555 1_555
N1N Cu1 1_555 1_555
C3I C2 1_555 1_555
C2I C3 1_555 1_555
C1I C3I 1_555 1_555
C4I C3I 1_555 1_555
H1I C2I 1_555 1_555
N2I C1I 1_555 1_555
H2I C4I 1_555 1_555
H3I C4I 1_555 1_555
H4I C4I 1_555 1_555
C5I N2I 1_555 1_555
N1I C5I 1_555 1_555
Cu1B N1I 1_555 1_555
C5K N1K 1_555 1_555
N2K C5K 1_555 1_555
C1K N2K 1_555 1_555
C2K C1K 1_555 1_555
C3K C1K 1_555 1_555
C3C C2K 1_555 1_555
H1K C2K 1_555 1_555
C2C C3K 1_555 1_555
C4K C3K 1_555 1_555
C1C C3C 1_555 1_555
C4C C3C 1_555 1_555
H1C C2C 1_555 1_555
H2K C4K 1_555 1_555
H3K C4K 1_555 1_555
H4K C4K 1_555 1_555
N2C C1C 1_555 1_555
H2C C4C 1_555 1_555
H3C C4C 1_555 1_555
H4C C4C 1_555 1_555
C5C N2C 1_555 1_555
N1C C5C 1_555 1_555
Cu1C N1C 1_555 1_555
C2I C1I 1_555 1_555
C2C C1C 1_555 1_555

#END
