
#######################################################################
#
#                 Cambridge Crystallographic Data Centre
#                                CCDC 
#
#######################################################################
#
# If this CIF has been generated from an entry in the Cambridge 
# Structural Database, then it will include bibliographic, chemical, 
# crystal, experimental, refinement or atomic coordinate data resulting 
# from the CCDC's data processing and validation procedures.
#
#######################################################################

data_GAHXOE
_symmetry_cell_setting           triclinic
_symmetry_space_group_name_H-M   'P -1'
_symmetry_Int_Tables_number      2
_space_group_name_Hall           '-P 1'
loop_
_symmetry_equiv_pos_site_id
_symmetry_equiv_pos_as_xyz
1 x,y,z
2 -x,-y,-z
_cell_length_a                   11.7416(10)
_cell_length_b                   11.9663(10)
_cell_length_c                   12.9264(11)
_cell_angle_alpha                69.0420(10)
_cell_angle_beta                 89.5550(10)
_cell_angle_gamma                67.9040(10)
_cell_volume                     1554.52
loop_
_atom_site_label
_atom_site_type_symbol
_atom_site_fract_x
_atom_site_fract_y
_atom_site_fract_z
Mn1 Mn 0.69708(4) 0.94493(4) 0.47305(4)
S1 S 0.84388(8) 1.30961(9) 0.62560(10)
O1 O 0.5818(2) 1.0619(2) 0.5528(2)
O2 O 0.3866(2) 1.1669(2) 0.5683(2)
O3 O 0.9161(2) 1.1906(3) 0.6132(3)
O4 O 0.8419(3) 1.4220(4) 0.5399(5)
O5 O 0.8781(3) 1.3076(5) 0.7321(4)
O6 O 0.8525(2) 1.0001(2) 0.5088(2)
O7 O 0.8373(2) 0.8432(3) 0.3896(3)
N1 N 0.6105(3) 1.1181(3) 0.3064(2)
N2 N 0.0715(3) 1.8254(4) -0.3200(3)
N3 N 0.7692(3) 0.7895(3) 0.6469(2)
C1 C 0.5953(4) 1.0931(4) 0.2164(3)
H1 H 0.6359 1.0078 0.2208
C2 C 0.5228(4) 1.1863(4) 0.1171(3)
H2 H 0.5159 1.1631 0.0567
C3 C 0.4601(3) 1.3141(4) 0.1069(3)
C4 C 0.4795(4) 1.3403(4) 0.1990(3)
H3 H 0.4420 1.4253 0.1960
C5 C 0.5538(4) 1.2421(4) 0.2954(3)
H4 H 0.5649 1.2635 0.3559
C6 C 0.3779(4) 1.4109(4) 0.0021(3)
H5 H 0.3734 1.3814 -0.0546
C7 C 0.3115(4) 1.5324(4) -0.0194(3)
H6 H 0.3173 1.5619 0.0371
C8 C 0.2275(3) 1.6297(4) -0.1229(3)
C9 C 0.2004(4) 1.6013(4) -0.2127(4)
H7 H 0.2338 1.5157 -0.2087
C10 C 0.1232(4) 1.7012(4) -0.3084(3)
H8 H 0.1068 1.6800 -0.3676
C11 C 0.1722(4) 1.7582(4) -0.1348(4)
H9 H 0.1863 1.7825 -0.0770
C12 C 0.0960(4) 1.8508(4) -0.2326(4)
H10 H 0.0593 1.9367 -0.2378
C13 C 0.8116(4) 0.6620(3) 0.6658(3)
H11 H 0.7970 0.6383 0.6077
C14 C 0.8753(4) 0.5650(3) 0.7663(3)
H12 H 0.9017 0.4780 0.7753
C15 C 0.9005(3) 0.5960(3) 0.8546(3)
C16 C 0.8517(4) 0.7278(3) 0.8371(3)
H13 H 0.8622 0.7539 0.8947
C17 C 0.7877(3) 0.8192(3) 0.7339(3)
H14 H 0.7555 0.9068 0.7242
C18 C 0.9767(3) 0.4921(4) 0.9587(3)
H15 H 0.9936 0.4067 0.9669
C25 C 0.4985(3) 1.1500(3) 0.5721(2)
C26 C 0.5344(3) 1.2444(3) 0.6020(3)
C27 C 0.6565(3) 1.2346(3) 0.6007(3)
H21 H 0.7157 1.1689 0.5833
C28 C 0.6891(3) 1.3223(3) 0.6252(3)
C29 C 0.6012(4) 1.4214(4) 0.6493(4)
H22 H 0.6234 1.4816 0.6642
C30 C 0.4808(4) 1.4309(5) 0.6513(5)
H23 H 0.4220 1.4969 0.6685
C31 C 0.4467(3) 1.3425(4) 0.6278(4)
H24 H 0.3653 1.3491 0.6293
H25 H 0.9107(15) 0.840(3) 0.391(3)
H26 H 0.870(3) 1.059(3) 0.463(2)
H27 H 0.912(2) 0.951(3) 0.562(2)
H28 H 0.839(3) 0.771(2) 0.391(3)
Mn1A Mn 0.30292(4) 1.05507(4) 0.52695(4)
Mn1A_2 Mn 1.30292(4) 0.05507(4) 1.52695(4)
S1A S 0.15612(8) 0.69039(9) 0.37440(10)
O1A O 0.4182(2) 0.9381(2) 0.4472(2)
O2A O 0.6134(2) 0.8331(2) 0.4317(2)
O3A O 0.0839(2) 0.8094(3) 0.3868(3)
O4A O 0.1581(3) 0.5780(4) 0.4601(5)
O5A O 0.1219(3) 0.6924(5) 0.2679(4)
O6A O 0.1475(2) 0.9999(2) 0.4912(2)
O7A O 0.1627(2) 1.1568(3) 0.6104(3)
N1A N 0.3895(3) 0.8819(3) 0.6936(2)
N2A N 0.9285(3) 0.1746(4) 1.3200(3)
N3A N 1.2308(3) 0.2105(3) 1.3531(2)
N3A_2 N 0.2308(3) 1.2105(3) 0.3531(2)
C1A C 0.4047(4) 0.9069(4) 0.7836(3)
H1A H 0.3641 0.9922 0.7792
C2A C 0.4772(4) 0.8137(4) 0.8829(3)
H2A H 0.4841 0.8369 0.9433
C3A C 0.5399(3) 0.6859(4) 0.8931(3)
C4A C 0.5205(4) 0.6597(4) 0.8010(3)
H3A H 0.5580 0.5747 0.8040
C5A C 0.4462(4) 0.7579(4) 0.7046(3)
H4A H 0.4351 0.7365 0.6441
C6A C 0.6221(4) 0.5891(4) 0.9979(3)
H5A H 0.6266 0.6186 1.0546
C7A C 0.6885(4) 0.4676(4) 1.0194(3)
H6A H 0.6827 0.4381 0.9629
C8A C 0.7725(3) 0.3703(4) 1.1229(3)
C9A C 0.7996(4) 0.3987(4) 1.2127(4)
H7A H 0.7662 0.4843 1.2087
C10A C 0.8768(4) 0.2988(4) 1.3084(3)
H8A H 0.8932 0.3200 1.3676
C11A C 0.8278(4) 0.2418(4) 1.1348(4)
H9A H 0.8137 0.2175 1.0770
C12A C 0.9040(4) 0.1492(4) 1.2326(4)
H10A H 0.9407 0.0633 1.2378
C13A C 1.1884(4) 0.3380(3) 1.3342(3)
H11A H 1.2030 0.3617 1.3923
C14A C 1.1247(4) 0.4350(3) 1.2337(3)
H12A H 1.0983 0.5220 1.2247
C15A C 1.0995(3) 0.4040(3) 1.1454(3)
C16A C 1.1483(4) 0.2722(3) 1.1629(3)
H13A H 1.1378 0.2461 1.1053
C17A C 1.2123(3) 0.1808(3) 1.2661(3)
H14A H 1.2445 0.0932 1.2758
C18A C 1.0233(3) 0.5079(4) 1.0413(3)
H15A H 1.0064 0.5933 1.0331
C25A C 0.5015(3) 0.8500(3) 0.4279(2)
C26A C 0.4656(3) 0.7556(3) 0.3980(3)
C27A C 0.3435(3) 0.7654(3) 0.3993(3)
H21A H 0.2843 0.8311 0.4167
C28A C 0.3109(3) 0.6777(3) 0.3748(3)
C29A C 0.3988(4) 0.5786(4) 0.3507(4)
H22A H 0.3766 0.5184 0.3358
C30A C 0.5192(4) 0.5691(5) 0.3487(5)
H23A H 0.5780 0.5031 0.3315
C31A C 0.5533(3) 0.6575(4) 0.3722(4)
H24A H 0.6347 0.6509 0.3707
H25A H 0.0893(15) 1.160(3) 0.609(3)
H26A H 0.130(3) 0.941(3) 0.537(2)
H27A H 0.088(2) 1.049(3) 0.438(2)
H28A H 0.161(3) 1.229(2) 0.609(3)
N4 N 0.6576(4) 0.8822(4) 1.0282(3)
C19 C 0.7615(5) 0.8254(5) 1.1007(4)
H16 H 0.7693 0.7542 1.1652
C20 C 0.8581(4) 0.8651(5) 1.0864(4)
H17 H 0.9287 0.8211 1.1401
C21 C 0.8497(4) 0.9715(4) 0.9911(4)
C22 C 0.7412(4) 1.0308(5) 0.9165(4)
H18 H 0.7299 1.1030 0.8516
C23 C 0.6502(4) 0.9837(5) 0.9379(4)
H19 H 0.5786 1.0256 0.8856
C24 C 0.9470(4) 1.0221(5) 0.9678(4)
H20 H 0.9322 1.0928 0.9007
N4A N 1.3424(4) 1.1178(4) 0.9718(3)
C19A C 1.2385(5) 1.1746(5) 0.8993(4)
H16A H 1.2307 1.2458 0.8348
C20A C 1.1419(4) 1.1349(5) 0.9136(4)
H17A H 1.0713 1.1789 0.8599
C21A C 1.1503(4) 1.0285(4) 1.0089(4)
C22A C 1.2588(4) 0.9692(5) 1.0835(4)
H18A H 1.2701 0.8970 1.1484
C23A C 1.3498(4) 1.0163(5) 1.0621(4)
H19A H 1.4214 0.9744 1.1144
C24A C 1.0530(4) 0.9779(5) 1.0322(4)
H20A H 1.0678 0.9072 1.0993
O8 O 0.8885(3) 1.6046(3) 0.3670(3)
H29 H 0.877(4) 1.542(3) 0.416(3)
H30 H 0.9660(13) 1.584(4) 0.368(4)
loop_
_geom_bond_atom_site_label_1
_geom_bond_atom_site_label_2
_geom_bond_site_symmetry_1
_geom_bond_site_symmetry_2
Mn1 O1 1_555 1_555
S1 O3 1_555 1_555
O1 C25 1_555 1_555
O2 C25 1_555 1_555
O4 S1 1_555 1_555
O5 S1 1_555 1_555
O6 Mn1 1_555 1_555
O7 Mn1 1_555 1_555
N1 Mn1 1_555 1_555
N2 C10 1_555 1_555
N3 Mn1 1_555 1_555
N4 C19 1_555 1_555
C1 N1 1_555 1_555
H1 C1 1_555 1_555
C2 C1 1_555 1_555
H2 C2 1_555 1_555
C3 C2 1_555 1_555
C4 C3 1_555 1_555
H3 C4 1_555 1_555
C5 N1 1_555 1_555
H4 C5 1_555 1_555
C6 C3 1_555 1_555
H5 C6 1_555 1_555
C7 C6 1_555 1_555
H6 C7 1_555 1_555
C8 C7 1_555 1_555
C9 C8 1_555 1_555
H7 C9 1_555 1_555
C10 C9 1_555 1_555
H8 C10 1_555 1_555
C11 C8 1_555 1_555
H9 C11 1_555 1_555
C12 N2 1_555 1_555
H10 C12 1_555 1_555
C13 N3 1_555 1_555
H11 C13 1_555 1_555
C14 C13 1_555 1_555
H12 C14 1_555 1_555
C15 C14 1_555 1_555
C16 C15 1_555 1_555
H13 C16 1_555 1_555
C17 N3 1_555 1_555
H14 C17 1_555 1_555
C18 C15 1_555 1_555
H15 C18 1_555 1_555
C19 H16 1_555 1_555
C20 C19 1_555 1_555
H17 C20 1_555 1_555
C21 C20 1_555 1_555
C22 C21 1_555 1_555
H18 C22 1_555 1_555
C23 N4 1_555 1_555
H19 C23 1_555 1_555
C24 C21 1_555 1_555
H20 C24 1_555 1_555
C25 C26 1_555 1_555
C26 C27 1_555 1_555
C27 H21 1_555 1_555
C28 S1 1_555 1_555
C29 C28 1_555 1_555
H22 C29 1_555 1_555
C30 C29 1_555 1_555
H23 C30 1_555 1_555
C31 C26 1_555 1_555
H24 C31 1_555 1_555
O8 H29 1_555 1_555
H25 O7 1_555 1_555
H26 O6 1_555 1_555
H27 O6 1_555 1_555
H28 O7 1_555 1_555
H30 O8 1_555 1_555
Mn1A O2 1_555 1_555
Mn1A_2 N3A 1_555 1_555
S1A O3A 1_555 1_555
O1A Mn1A 1_555 1_555
O2A Mn1 1_555 1_555
O4A S1A 1_555 1_555
O5A S1A 1_555 1_555
O6A Mn1A 1_555 1_555
O7A Mn1A 1_555 1_555
N1A Mn1A 1_555 1_555
N2A C10A 1_555 1_555
N3A C13A 1_555 1_555
N3A_2 Mn1A 1_555 1_555
N4A C19A 1_555 1_555
C1A N1A 1_555 1_555
H1A C1A 1_555 1_555
C2A C1A 1_555 1_555
H2A C2A 1_555 1_555
C3A C2A 1_555 1_555
C4A C3A 1_555 1_555
H3A C4A 1_555 1_555
C5A N1A 1_555 1_555
H4A C5A 1_555 1_555
C6A C3A 1_555 1_555
H5A C6A 1_555 1_555
C7A C6A 1_555 1_555
H6A C7A 1_555 1_555
C8A C7A 1_555 1_555
C9A C8A 1_555 1_555
H7A C9A 1_555 1_555
C10A C9A 1_555 1_555
H8A C10A 1_555 1_555
C11A C8A 1_555 1_555
H9A C11A 1_555 1_555
C12A N2A 1_555 1_555
H10A C12A 1_555 1_555
C13A H11A 1_555 1_555
C14A C13A 1_555 1_555
H12A C14A 1_555 1_555
C15A C14A 1_555 1_555
C16A C15A 1_555 1_555
H13A C16A 1_555 1_555
C17A N3A 1_555 1_555
H14A C17A 1_555 1_555
C18A C18 1_555 1_555
H15A C18A 1_555 1_555
C19A H16A 1_555 1_555
C20A C19A 1_555 1_555
H17A C20A 1_555 1_555
C21A C20A 1_555 1_555
C22A C21A 1_555 1_555
H18A C22A 1_555 1_555
C23A N4A 1_555 1_555
H19A C23A 1_555 1_555
C24A C24 1_555 1_555
H20A C24A 1_555 1_555
C25A O1A 1_555 1_555
C26A C25A 1_555 1_555
C27A C26A 1_555 1_555
H21A C27A 1_555 1_555
C28A S1A 1_555 1_555
C29A C28A 1_555 1_555
H22A C29A 1_555 1_555
C30A C29A 1_555 1_555
H23A C30A 1_555 1_555
C31A C26A 1_555 1_555
H24A C31A 1_555 1_555
H25A O7A 1_555 1_555
H26A O6A 1_555 1_555
H27A O6A 1_555 1_555
H28A O7A 1_555 1_555
C4 C5 1_555 1_555
C11 C12 1_555 1_555
C16 C17 1_555 1_555
C22 C23 1_555 1_555
C27 C28 1_555 1_555
C30 C31 1_555 1_555
O2A C25A 1_555 1_555
C4A C5A 1_555 1_555
C11A C12A 1_555 1_555
C15A C18A 1_555 1_555
C16A C17A 1_555 1_555
C21A C24A 1_555 1_555
C22A C23A 1_555 1_555
C27A C28A 1_555 1_555
C30A C31A 1_555 1_555

#END
