
#######################################################################
#
#                 Cambridge Crystallographic Data Centre
#                                CCDC 
#
#######################################################################
#
# If this CIF has been generated from an entry in the Cambridge 
# Structural Database, then it will include bibliographic, chemical, 
# crystal, experimental, refinement or atomic coordinate data resulting 
# from the CCDC's data processing and validation procedures.
#
#######################################################################

data_GAJBUQ
_symmetry_cell_setting           monoclinic
_symmetry_space_group_name_H-M   'P 21/n'
_symmetry_Int_Tables_number      14
_space_group_name_Hall           '-P 2yn'
loop_
_symmetry_equiv_pos_site_id
_symmetry_equiv_pos_as_xyz
1 x,y,z
2 1/2-x,1/2+y,1/2-z
3 -x,-y,-z
4 1/2+x,1/2-y,1/2+z
_cell_length_a                   9.8451(13)
_cell_length_b                   14.9205(19)
_cell_length_c                   22.721(3)
_cell_angle_alpha                90
_cell_angle_beta                 97.076(4)
_cell_angle_gamma                90
_cell_volume                     3312.15
loop_
_atom_site_label
_atom_site_type_symbol
_atom_site_fract_x
_atom_site_fract_y
_atom_site_fract_z
Cu1 Cu 0.0000 0.0000 0.0000
N1 N 0.0490(2) 0.10265(16) 0.05172(9)
C1 C 0.0523(2) 0.17329(19) 0.07105(11)
S1 S 0.05551(11) 0.27352(7) 0.09733(5)
N2 N 0.1756(2) -0.09039(15) 0.06169(9)
N3 N 0.3300(2) -0.08586(17) 0.21656(9)
H1 H 0.4150 -0.0882 0.2308
C2 C 0.2933(2) -0.11730(19) 0.15837(11)
C3 C 0.2183(2) -0.06390(18) 0.11676(11)
H2 H 0.1964 -0.0062 0.1278
C4 C 0.2144(3) -0.1710(2) 0.04573(13)
H3 H 0.1859 -0.1907 0.0074
C5 C 0.2943(3) -0.2262(2) 0.08328(15)
H4 H 0.3228 -0.2812 0.0700
C6 C 0.3324(3) -0.1998(2) 0.14107(14)
H5 H 0.3837 -0.2376 0.1677
N4 N 0.1501(2) 0.03551(15) 0.94779(8)
N5 N 0.1794(2) 0.06170(15) 0.79129(8)
H6 H 0.0933 0.0536 0.7808
C7 C 0.2218(2) 0.06050(17) 0.85220(10)
C8 C 0.1248(2) 0.03807(17) 0.88886(10)
H7 H 0.0369 0.0240 0.8714
C9 C 0.2769(3) 0.0547(2) 0.97258(11)
H8 H 0.2961 0.0538 1.0137
C10 C 0.3793(3) 0.0756(2) 0.93941(12)
H9 H 0.4670 0.0873 0.9580
C11 C 0.3530(3) 0.0795(2) 0.87840(12)
H10 H 0.4217 0.0945 0.8555
O1 O 0.11849(17) -0.04968(16) 0.23520(8)
O2 O 0.37895(18) 0.08930(17) 0.75565(8)
C12 C 0.2411(3) -0.05232(19) 0.25147(11)
C13 C 0.3061(3) -0.0195(2) 0.31042(12)
H11 H 0.3419 0.0402 0.3053
H12 H 0.3832 -0.0580 0.3236
C14 C 0.2147(3) -0.01580(19) 0.35850(11)
H13 H 0.1747 -0.0745 0.3627
H14 H 0.1407 0.0260 0.3471
C15 C 0.2902(3) 0.01277(19) 0.41763(11)
H15 H 0.3631 -0.0298 0.4291
H16 H 0.3322 0.0707 0.4128
C16 C 0.2011(3) 0.01929(19) 0.46698(11)
H17 H 0.1555 -0.0377 0.4706
H18 H 0.1311 0.0642 0.4565
C17 C 0.2797(3) 0.0434(2) 0.52656(11)
H19 H 0.3462 -0.0034 0.5380
H20 H 0.3296 0.0986 0.5224
C18 C 0.1902(3) 0.0551(2) 0.57542(11)
H21 H 0.1287 0.0043 0.5751
H22 H 0.1347 0.1085 0.5674
C19 C 0.2705(3) 0.06322(19) 0.63663(11)
H23 H 0.3279 0.1162 0.6378
H24 H 0.3300 0.0115 0.6438
C20 C 0.1789(2) 0.06942(18) 0.68547(11)
H25 H 0.1218 0.1223 0.6790
H26 H 0.1192 0.0175 0.6832
C21 C 0.2568(2) 0.07411(17) 0.74643(11)
Cu1_2 Cu 0.0000 0.0000 1.0000
Cu1_3 Cu 0.0000 0.0000 -1.0000
N1B N -0.0490(2) -0.10265(16) -0.05172(9)
C1B C -0.0523(2) -0.17329(19) -0.07105(11)
S1B S -0.05551(11) -0.27352(7) -0.09733(5)
N2B N -0.1756(2) 0.09039(15) -0.06169(9)
N3B N -0.3300(2) 0.08586(17) -0.21656(9)
H1B H -0.4150 0.0882 -0.2308
C2B C -0.2933(2) 0.11730(19) -0.15837(11)
C3B C -0.2183(2) 0.06390(18) -0.11676(11)
H2B H -0.1964 0.0062 -0.1278
C4B C -0.2144(3) 0.1710(2) -0.04573(13)
H3B H -0.1859 0.1907 -0.0074
C5B C -0.2943(3) 0.2262(2) -0.08328(15)
H4B H -0.3228 0.2812 -0.0700
C6B C -0.3324(3) 0.1998(2) -0.14107(14)
H5B H -0.3837 0.2376 -0.1677
N4B N -0.1501(2) -0.03551(15) -0.94779(8)
N4_2 N 0.1501(2) 0.03551(15) -0.05221(8)
N4B_2 N -0.1501(2) -0.03551(15) 0.05221(8)
N5B N -0.1794(2) -0.06170(15) -0.79129(8)
H6B H -0.0933 -0.0536 -0.7808
C7B C -0.2218(2) -0.06050(17) -0.85220(10)
C8B C -0.1248(2) -0.03807(17) -0.88886(10)
H7B H -0.0369 -0.0240 -0.8714
C9B C -0.2769(3) -0.0547(2) -0.97258(11)
H8B H -0.2961 -0.0538 -1.0137
C10B C -0.3793(3) -0.0756(2) -0.93941(12)
H9B H -0.4670 -0.0873 -0.9580
C11B C -0.3530(3) -0.0795(2) -0.87840(12)
H10B H -0.4217 -0.0945 -0.8555
O1B O -0.11849(17) 0.04968(16) -0.23520(8)
O2B O -0.37895(18) -0.08930(17) -0.75565(8)
C12B C -0.2411(3) 0.05232(19) -0.25147(11)
C13B C -0.3061(3) 0.0195(2) -0.31042(12)
H11B H -0.3419 -0.0402 -0.3053
H12B H -0.3832 0.0580 -0.3236
C14B C -0.2147(3) 0.01580(19) -0.35850(11)
H13B H -0.1747 0.0745 -0.3627
H14B H -0.1407 -0.0260 -0.3471
C15B C -0.2902(3) -0.01277(19) -0.41763(11)
H15B H -0.3631 0.0298 -0.4291
H16B H -0.3322 -0.0707 -0.4128
C16B C -0.2011(3) -0.01929(19) -0.46698(11)
H17B H -0.1555 0.0377 -0.4706
H18B H -0.1311 -0.0642 -0.4565
C17B C -0.2797(3) -0.0434(2) -0.52656(11)
H19B H -0.3462 0.0034 -0.5380
H20B H -0.3296 -0.0986 -0.5224
C18B C -0.1902(3) -0.0551(2) -0.57542(11)
H21B H -0.1287 -0.0043 -0.5751
H22B H -0.1347 -0.1085 -0.5674
C19B C -0.2705(3) -0.06322(19) -0.63663(11)
H23B H -0.3279 -0.1162 -0.6378
H24B H -0.3300 -0.0115 -0.6438
C20B C -0.1789(2) -0.06942(18) -0.68547(11)
H25B H -0.1218 -0.1223 -0.6790
H26B H -0.1192 -0.0175 -0.6832
C21B C -0.2568(2) -0.07411(17) -0.74643(11)
O3 O 0.4947(3) 0.6545(2) 0.23093(13)
C22 C 0.6675(5) 0.6798(2) 0.14054(19)
H27 H 0.5770 0.6678 0.1456
C23 C 0.7001(6) 0.6898(3) 0.0852(2)
H28 H 0.6327 0.6843 0.0530
C24 C 0.8369(8) 0.7088(3) 0.0758(3)
H29 H 0.8592 0.7164 0.0375
C25 C 0.9338(6) 0.7157(3) 0.1224(3)
H30 H 1.0231 0.7283 0.1157
C26 C 1.0853(5) 0.7073(3) 0.3365(3)
H31 H 1.1747 0.7175 0.3289
C27 C 1.0590(5) 0.6997(4) 0.3923(3)
H32 H 1.1296 0.7042 0.4233
C28 C 0.9249(5) 0.6849(3) 0.4042(2)
H33 H 0.9075 0.6800 0.4434
C29 C 0.8196(4) 0.6774(2) 0.36000(18)
H34 H 0.7315 0.6676 0.3694
C30 C 1.0054(4) 0.7103(3) 0.2303(3)
H35 H 1.0949 0.7216 0.2234
C31 C 0.7373(3) 0.67864(19) 0.25081(16)
C32 C 0.9049(5) 0.7045(2) 0.1819(2)
C33 C 0.7664(4) 0.6868(2) 0.19177(18)
C34 C 0.9791(4) 0.7000(2) 0.2885(2)
C35 C 0.8417(3) 0.6843(2) 0.29957(17)
C36 C 0.5958(4) 0.6667(3) 0.26338(18)
H36 H 0.5840 0.6693 0.3033
loop_
_geom_bond_atom_site_label_1
_geom_bond_atom_site_label_2
_geom_bond_site_symmetry_1
_geom_bond_site_symmetry_2
Cu1 N1 1_555 1_555
N1 C1 1_555 1_555
C1 S1 1_555 1_555
N2 Cu1 1_555 1_555
N3 H1 1_555 1_555
C2 N3 1_555 1_555
C3 N2 1_555 1_555
H2 C3 1_555 1_555
C4 N2 1_555 1_555
H3 C4 1_555 1_555
C5 C4 1_555 1_555
H4 C5 1_555 1_555
C6 C2 1_555 1_555
H5 C6 1_555 1_555
N4 C8 1_555 1_555
N5 H6 1_555 1_555
C7 N5 1_555 1_555
C8 C7 1_555 1_555
H7 C8 1_555 1_555
C9 N4 1_555 1_555
H8 C9 1_555 1_555
C10 C9 1_555 1_555
H9 C10 1_555 1_555
C11 C7 1_555 1_555
H10 C11 1_555 1_555
O1 C12 1_555 1_555
O2 C21 1_555 1_555
C12 N3 1_555 1_555
C13 C12 1_555 1_555
H11 C13 1_555 1_555
H12 C13 1_555 1_555
C14 C13 1_555 1_555
H13 C14 1_555 1_555
H14 C14 1_555 1_555
C15 C14 1_555 1_555
H15 C15 1_555 1_555
H16 C15 1_555 1_555
C16 C15 1_555 1_555
H17 C16 1_555 1_555
H18 C16 1_555 1_555
C17 C16 1_555 1_555
H19 C17 1_555 1_555
H20 C17 1_555 1_555
C18 C17 1_555 1_555
H21 C18 1_555 1_555
H22 C18 1_555 1_555
C19 C18 1_555 1_555
H23 C19 1_555 1_555
H24 C19 1_555 1_555
C20 C19 1_555 1_555
H25 C20 1_555 1_555
H26 C20 1_555 1_555
C21 N5 1_555 1_555
O3 C36 1_555 1_555
C22 H27 1_555 1_555
C23 C22 1_555 1_555
H28 C23 1_555 1_555
C24 C23 1_555 1_555
H29 C24 1_555 1_555
C25 C24 1_555 1_555
H30 C25 1_555 1_555
C26 H31 1_555 1_555
C27 C26 1_555 1_555
H32 C27 1_555 1_555
C28 C27 1_555 1_555
H33 C28 1_555 1_555
C29 C28 1_555 1_555
H34 C29 1_555 1_555
C30 H35 1_555 1_555
C31 C33 1_555 1_555
C32 C25 1_555 1_555
C33 C22 1_555 1_555
C34 C26 1_555 1_555
C35 C29 1_555 1_555
C36 C31 1_555 1_555
H36 C36 1_555 1_555
Cu1_2 N4 1_555 1_555
Cu1_3 N4B 1_555 1_555
N1B Cu1 1_555 1_555
C1B N1B 1_555 1_555
S1B C1B 1_555 1_555
N2B Cu1 1_555 1_555
N3B H1B 1_555 1_555
C2B N3B 1_555 1_555
C3B N2B 1_555 1_555
H2B C3B 1_555 1_555
C4B N2B 1_555 1_555
H3B C4B 1_555 1_555
C5B C4B 1_555 1_555
H4B C5B 1_555 1_555
C6B C2B 1_555 1_555
H5B C6B 1_555 1_555
N4B C8B 1_555 1_555
N4_2 Cu1 1_555 1_555
N4B_2 Cu1 1_555 1_555
N5B H6B 1_555 1_555
C7B N5B 1_555 1_555
C8B C7B 1_555 1_555
H7B C8B 1_555 1_555
C9B N4B 1_555 1_555
H8B C9B 1_555 1_555
C10B C9B 1_555 1_555
H9B C10B 1_555 1_555
C11B C7B 1_555 1_555
H10B C11B 1_555 1_555
O1B C12B 1_555 1_555
O2B C21B 1_555 1_555
C12B N3B 1_555 1_555
C13B C12B 1_555 1_555
H11B C13B 1_555 1_555
H12B C13B 1_555 1_555
C14B C13B 1_555 1_555
H13B C14B 1_555 1_555
H14B C14B 1_555 1_555
C15B C14B 1_555 1_555
H15B C15B 1_555 1_555
H16B C15B 1_555 1_555
C16B C15B 1_555 1_555
H17B C16B 1_555 1_555
H18B C16B 1_555 1_555
C17B C16B 1_555 1_555
H19B C17B 1_555 1_555
H20B C17B 1_555 1_555
C18B C17B 1_555 1_555
H21B C18B 1_555 1_555
H22B C18B 1_555 1_555
C19B C18B 1_555 1_555
H23B C19B 1_555 1_555
H24B C19B 1_555 1_555
C20B C19B 1_555 1_555
H25B C20B 1_555 1_555
H26B C20B 1_555 1_555
C21B N5B 1_555 1_555
C2 C3 1_555 1_555
C5 C6 1_555 1_555
C10 C11 1_555 1_555
C20 C21 1_555 1_555
C30 C32 1_555 1_555
C30 C34 1_555 1_555
C31 C35 1_555 1_555
C32 C33 1_555 1_555
C34 C35 1_555 1_555
C2B C3B 1_555 1_555
C5B C6B 1_555 1_555
C10B C11B 1_555 1_555
C20B C21B 1_555 1_555

#END
