
#######################################################################
#
#                 Cambridge Crystallographic Data Centre
#                                CCDC 
#
#######################################################################
#
# If this CIF has been generated from an entry in the Cambridge 
# Structural Database, then it will include bibliographic, chemical, 
# crystal, experimental, refinement or atomic coordinate data resulting 
# from the CCDC's data processing and validation procedures.
#
#######################################################################

data_GAJQUF
_symmetry_cell_setting           monoclinic
_symmetry_space_group_name_H-M   'P 21/c'
_symmetry_Int_Tables_number      14
_space_group_name_Hall           '-P 2ybc'
loop_
_symmetry_equiv_pos_site_id
_symmetry_equiv_pos_as_xyz
1 x,y,z
2 -x,1/2+y,1/2-z
3 -x,-y,-z
4 x,1/2-y,1/2+z
_cell_length_a                   12.5383(12)
_cell_length_b                   20.0524(15)
_cell_length_c                   11.2219(11)
_cell_angle_alpha                90
_cell_angle_beta                 104.795(8)
_cell_angle_gamma                90
_cell_volume                     2727.9
loop_
_atom_site_label
_atom_site_type_symbol
_atom_site_fract_x
_atom_site_fract_y
_atom_site_fract_z
C1 C -0.0830(2) 0.35469(16) 0.0620(3)
C2 C -0.0982(2) 0.40224(14) 0.2506(3)
C3 C 0.0245(2) 0.41631(14) 0.2939(2)
C4 C 0.0885(2) 0.39030(14) 0.2058(2)
C5 C 0.0413(3) 0.49332(17) 0.3036(4)
H1 H -0.0009 0.5108 0.3580
H2 H 0.1185 0.5023 0.3415
C6 C 0.0082(4) 0.5305(2) 0.1829(5)
H3 H 0.0489 0.5135 0.1278
H4 H 0.0239 0.5771 0.1972
H5 H -0.0693 0.5245 0.1469
C7 C 0.0700(3) 0.3857(2) 0.4216(3)
H6 H 0.1489 0.3935 0.4471
H7 H 0.0371 0.4084 0.4797
C8 C 0.0490(4) 0.3119(3) 0.4276(5)
H8 H -0.0290 0.3037 0.4053
H9 H 0.0802 0.2961 0.5100
H10 H 0.0824 0.2888 0.3715
C9 C -0.5492(2) 0.36558(13) 0.1183(3)
C10 C -0.7218(2) 0.34301(14) -0.0374(2)
C11 C -0.6573(2) 0.32705(15) -0.1313(2)
C12 C -0.5336(2) 0.33568(14) -0.0808(3)
C13 C -0.6985(3) 0.3737(2) -0.2421(3)
H11 H -0.6634 0.3612 -0.3064
H12 H -0.7774 0.3674 -0.2741
C14 C -0.6762(5) 0.4469(3) -0.2122(5)
H13 H -0.7109 0.4599 -0.1488
H14 H -0.7054 0.4731 -0.2848
H15 H -0.5980 0.4541 -0.1841
C15 C -0.6790(3) 0.25388(18) -0.1706(3)
H16 H -0.7576 0.2479 -0.2053
H17 H -0.6423 0.2442 -0.2349
C16 C -0.6403(4) 0.20446(18) -0.0669(4)
H18 H -0.5620 0.2084 -0.0346
H19 H -0.6581 0.1600 -0.0976
H20 H -0.6764 0.2135 -0.0028
C17 C -0.2867(3) 0.18710(15) 0.0091(2)
H21 H -0.3322 0.2222 0.0298
H22 H -0.2103 0.1985 0.0466
C18 C -0.3131(2) 0.12247(13) 0.0650(2)
C19 C -0.3357(3) 0.06355(15) 0.0010(3)
H23 H -0.3337 0.0616 -0.0812
C20 C -0.3611(3) 0.00775(16) 0.0581(4)
H24 H -0.3765 -0.0323 0.0154
C21 C -0.3635(3) 0.01164(17) 0.1787(4)
H25 H -0.3822 -0.0254 0.2190
C22 C -0.3379(3) 0.07095(18) 0.2391(3)
H26 H -0.3377 0.0730 0.3220
N1 N -0.14413(17) 0.37471(13) 0.1398(2)
N2 N 0.03048(18) 0.36339(13) 0.0986(2)
H27 H 0.0674 0.3504 0.0480
N3 N -0.48799(17) 0.35285(12) 0.0361(2)
N4 N -0.66323(18) 0.36130(12) 0.0765(2)
H28 H -0.7005 0.3714 0.1285
N5 N -0.30353(19) 0.18596(12) -0.12439(19)
H29 H -0.3703 0.1683 -0.1586
H30 H -0.2527 0.1589 -0.1427
N6 N -0.3130(2) 0.12656(12) 0.1844(2)
O1 O -0.12361(18) 0.32922(15) -0.0384(2)
O2 O 0.18847(14) 0.39451(12) 0.22994(19)
O3 O -0.15655(16) 0.41777(11) 0.3196(2)
O4 O -0.50857(16) 0.38040(12) 0.22534(19)
O5 O -0.82139(15) 0.33882(12) -0.06324(19)
O6 O -0.47538(18) 0.32471(14) -0.1524(2)
Ag1 Ag -0.315686(15) 0.362447(12) 0.08792(2)
Ag2 Ag -0.29351(2) 0.282359(13) -0.20731(2)
N6C N -0.3130(2) 0.37344(12) -0.3156(2)
Ag2C Ag -0.29351(2) 0.217641(13) 0.29269(2)
loop_
_geom_bond_atom_site_label_1
_geom_bond_atom_site_label_2
_geom_bond_site_symmetry_1
_geom_bond_site_symmetry_2
C1 N1 1_555 1_555
C2 C3 1_555 1_555
C3 C4 1_555 1_555
C4 N2 1_555 1_555
C5 C3 1_555 1_555
H1 C5 1_555 1_555
H2 C5 1_555 1_555
C6 C5 1_555 1_555
H3 C6 1_555 1_555
H4 C6 1_555 1_555
H5 C6 1_555 1_555
C7 C3 1_555 1_555
H6 C7 1_555 1_555
H7 C7 1_555 1_555
C8 C7 1_555 1_555
H8 C8 1_555 1_555
H9 C8 1_555 1_555
H10 C8 1_555 1_555
C9 N3 1_555 1_555
C10 C11 1_555 1_555
C11 C12 1_555 1_555
C12 N3 1_555 1_555
C13 C11 1_555 1_555
H11 C13 1_555 1_555
H12 C13 1_555 1_555
C14 C13 1_555 1_555
H13 C14 1_555 1_555
H14 C14 1_555 1_555
H15 C14 1_555 1_555
C15 C11 1_555 1_555
H16 C15 1_555 1_555
H17 C15 1_555 1_555
C16 C15 1_555 1_555
H18 C16 1_555 1_555
H19 C16 1_555 1_555
H20 C16 1_555 1_555
C17 H21 1_555 1_555
H22 C17 1_555 1_555
C18 C17 1_555 1_555
C19 C18 1_555 1_555
H23 C19 1_555 1_555
C20 C19 1_555 1_555
H24 C20 1_555 1_555
C21 C20 1_555 1_555
H25 C21 1_555 1_555
C22 C21 1_555 1_555
H26 C22 1_555 1_555
N1 C2 1_555 1_555
N2 C1 1_555 1_555
H27 N2 1_555 1_555
N3 Ag1 1_555 1_555
N4 C9 1_555 1_555
H28 N4 1_555 1_555
N5 C17 1_555 1_555
H29 N5 1_555 1_555
H30 N5 1_555 1_555
N6 C18 1_555 1_555
O1 C1 1_555 1_555
O2 C4 1_555 1_555
O3 C2 1_555 1_555
O4 C9 1_555 1_555
O5 C10 1_555 1_555
O6 C12 1_555 1_555
Ag1 N1 1_555 1_555
Ag2 N5 1_555 1_555
N6C Ag2 1_555 1_555
Ag2C N6 1_555 1_555
C10 N4 1_555 1_555
C22 N6 1_555 1_555
O1 Ag2 1_555 1_555
O6 Ag2 1_555 1_555

#END
