
#######################################################################
#
#                 Cambridge Crystallographic Data Centre
#                                CCDC 
#
#######################################################################
#
# If this CIF has been generated from an entry in the Cambridge 
# Structural Database, then it will include bibliographic, chemical, 
# crystal, experimental, refinement or atomic coordinate data resulting 
# from the CCDC's data processing and validation procedures.
#
#######################################################################

data_GAJTUI
_symmetry_cell_setting           monoclinic
_symmetry_space_group_name_H-M   'C 2/c'
_symmetry_Int_Tables_number      15
_space_group_name_Hall           '-C 2yn'
loop_
_symmetry_equiv_pos_site_id
_symmetry_equiv_pos_as_xyz
1 x,y,z
2 -x,y,1/2-z
3 1/2+x,1/2+y,z
4 1/2-x,1/2+y,1/2-z
5 -x,-y,-z
6 x,-y,1/2+z
7 1/2-x,1/2-y,-z
8 1/2+x,1/2-y,1/2+z
_cell_length_a                   21.8113(12)
_cell_length_b                   13.5543(7)
_cell_length_c                   34.8725(19)
_cell_angle_alpha                90
_cell_angle_beta                 98.9540(10)
_cell_angle_gamma                90
_cell_volume                     10184
loop_
_atom_site_label
_atom_site_type_symbol
_atom_site_fract_x
_atom_site_fract_y
_atom_site_fract_z
Tb1 Tb 0.282864(10) 0.079212(16) 0.441157(6)
Tb2 Tb 0.239839(9) 0.109620(16) 0.315859(6)
C1 C 0.1480(2) 0.0340(3) 0.38027(14)
C2 C 0.0809(2) 0.0084(3) 0.38080(13)
C3 C 0.0599(2) -0.0298(4) 0.41307(15)
H1 H 0.0870 -0.0398 0.4361
C4 C -0.0026(2) -0.0528(4) 0.41029(16)
H2 H -0.0182 -0.0798 0.4313
C5 C -0.0406(2) -0.0351(4) 0.37628(17)
C6 C 0.0384(2) 0.0226(4) 0.34794(15)
H3 H 0.0525 0.0490 0.3263
C7 C -0.1739(2) 0.1245(4) 0.34296(15)
C8 C -0.2025(2) 0.1894(4) 0.31562(15)
H4 H -0.2157 0.1692 0.2902
C9 C -0.2112(2) 0.2840(4) 0.32661(14)
H5 H -0.2303 0.3293 0.3086
C10 C -0.1914(2) 0.3128(3) 0.36471(13)
C11 C -0.1633(2) 0.2420(3) 0.39013(13)
H6 H -0.1501 0.2605 0.4158
C12 C -0.2002(2) 0.4156(4) 0.37806(15)
C13 C 0.3425(2) -0.0998(4) 0.75264(13)
C14 C 0.3811(2) -0.0228(3) 0.73731(12)
C15 C 0.4286(2) -0.0461(4) 0.71636(14)
H7 H 0.4383 -0.1118 0.7126
C16 C 0.4612(2) 0.0274(4) 0.70125(14)
H8 H 0.4924 0.0125 0.6868
C17 C 0.4462(2) 0.1242(4) 0.70829(13)
C18 C 0.3703(2) 0.0769(4) 0.74263(13)
H9 H 0.3394 0.0943 0.7570
C19 C 0.4943(2) 0.1628(4) 0.61232(14)
C20 C 0.5136(3) 0.0958(4) 0.58794(16)
H10 H 0.5507 0.0615 0.5947
C21 C 0.4764(3) 0.0801(5) 0.55258(18)
H11 H 0.4878 0.0334 0.5355
C22 C 0.4226(2) 0.1333(4) 0.54265(14)
C23 C 0.4087(3) 0.2026(5) 0.56914(15)
H12 H 0.3733 0.2410 0.5626
C24 C 0.3791(2) 0.1164(4) 0.50555(14)
C25 C 0.2292(2) 0.2795(4) 0.38518(15)
C26 C 0.2177(2) 0.3860(3) 0.39153(13)
C27 C 0.1935(2) 0.4475(4) 0.36096(14)
H13 H 0.1836 0.4224 0.3359
C28 C 0.1844(3) 0.5452(4) 0.36805(14)
H14 H 0.1689 0.5878 0.3480
C29 C 0.1988(2) 0.5794(3) 0.40586(14)
C30 C 0.2305(2) 0.4278(4) 0.42789(13)
H15 H 0.2466 0.3874 0.4486
C31 C 0.0621(2) 0.7312(3) 0.37571(16)
C32 C 0.0454(2) 0.6928(4) 0.40817(16)
H16 H 0.0745 0.6823 0.4302
C33 C -0.0156(2) 0.6700(4) 0.40770(16)
H17 H -0.0283 0.6444 0.4299
C34 C -0.0585(2) 0.6840(3) 0.37507(13)
C35 C -0.1256(2) 0.6582(3) 0.37503(14)
C36 C -0.0385(2) 0.7222(4) 0.34261(15)
H18 H -0.0670 0.7310 0.3201
N1 N 0.40161(19) 0.1491(3) 0.72842(11)
N2 N 0.4441(2) 0.2173(4) 0.60412(13)
N3 N -0.02210(19) 0.0010(3) 0.34477(13)
N4 N -0.1540(2) 0.1483(3) 0.38009(12)
N5 N 0.2212(2) 0.5222(3) 0.43522(11)
N6 N 0.0222(2) 0.7477(3) 0.34257(14)
O1 O 0.16169(16) 0.0581(3) 0.34830(10)
O2 O 0.18527(16) 0.0277(3) 0.41145(10)
O3 O -0.21711(17) 0.4801(3) 0.35320(11)
O4 O -0.19013(18) 0.4318(3) 0.41378(11)
O5 O 0.22072(18) 0.2491(3) 0.35087(12)
O6 O 0.24607(19) 0.2274(3) 0.41445(12)
O7 O -0.16103(16) 0.6640(3) 0.34352(11)
O8 O -0.14059(16) 0.6327(3) 0.40666(10)
O9 O 0.20747(17) 0.1408(3) 0.48194(10)
O10 O 0.2614(2) -0.0525(3) 0.48444(10)
O11 O 0.15159(15) 0.1620(2) 0.27081(9)
O12 O 0.26631(19) 0.2756(3) 0.28199(12)
O13 O 0.19268(17) -0.0369(3) 0.27962(10)
O14 O 0.29589(16) -0.0688(3) 0.76676(10)
O15 O 0.35669(19) -0.1882(3) 0.74998(12)
O16 O 0.33621(17) 0.1768(3) 0.49466(10)
O17 O 0.3852(2) 0.0411(3) 0.48556(11)
S1 S -0.12085(6) -0.06949(10) 0.37393(6)
S2 S -0.16442(6) 0.00183(11) 0.32675(5)
S3 S 0.19063(6) 0.70438(10) 0.41972(4)
S4 S 0.14014(6) 0.76735(10) 0.37250(5)
S5 S 0.48306(7) 0.23091(10) 0.69277(4)
S6 S 0.54291(6) 0.17865(12) 0.65864(4)
Tb1B Tb -0.217136(10) 0.579212(16) 0.441157(6)
Tb2B Tb -0.260161(9) 0.609620(16) 0.315859(6)
Tb2E Tb 0.239839(9) -0.109620(16) 0.815859(6)
O3B O 0.28289(17) -0.0199(3) 0.35320(11)
O4B O 0.30987(18) -0.0682(3) 0.41378(11)
O7B O 0.33897(16) 0.1640(3) 0.34352(11)
O8B O 0.35941(16) 0.1327(3) 0.40666(10)
O14E O 0.29589(16) 0.0688(3) 0.26676(10)
O18 O 0.4161(3) 0.3456(4) 0.22336(17)
O19 O 0.44152(19) 0.5305(4) 0.26201(13)
O20 O 0.5153(4) 0.3246(6) 0.5106(3)
O21 O 0.4091(3) 0.8399(5) 0.5031(3)
O22 O 0.3206(5) 0.7003(10) 0.4964(3)
O23 O 0.0996(4) 0.1152(8) 0.5157(3)
O24 O 0.8835(3) 0.0695(5) 0.45677(18)
loop_
_geom_bond_atom_site_label_1
_geom_bond_atom_site_label_2
_geom_bond_site_symmetry_1
_geom_bond_site_symmetry_2
Tb1 O2 1_555 1_555
Tb2 O1 1_555 1_555
C1 C2 1_555 1_555
C2 C3 1_555 1_555
C3 H1 1_555 1_555
C4 C3 1_555 1_555
H2 C4 1_555 1_555
C5 C4 1_555 1_555
C6 C2 1_555 1_555
H3 C6 1_555 1_555
C7 C8 1_555 1_555
C8 H4 1_555 1_555
C9 C8 1_555 1_555
H5 C9 1_555 1_555
C10 C9 1_555 1_555
C11 C10 1_555 1_555
H6 C11 1_555 1_555
C12 C10 1_555 1_555
C13 C14 1_555 1_555
C14 C15 1_555 1_555
C15 H7 1_555 1_555
C16 C15 1_555 1_555
H8 C16 1_555 1_555
C17 C16 1_555 1_555
C18 C14 1_555 1_555
H9 C18 1_555 1_555
C19 C20 1_555 1_555
C20 H10 1_555 1_555
C21 C20 1_555 1_555
H11 C21 1_555 1_555
C22 C21 1_555 1_555
C23 C22 1_555 1_555
H12 C23 1_555 1_555
C24 C22 1_555 1_555
C25 C26 1_555 1_555
C26 C27 1_555 1_555
C27 H13 1_555 1_555
C28 C27 1_555 1_555
H14 C28 1_555 1_555
C29 C28 1_555 1_555
C30 C26 1_555 1_555
H15 C30 1_555 1_555
C31 C32 1_555 1_555
C32 H16 1_555 1_555
C33 C32 1_555 1_555
H17 C33 1_555 1_555
C34 C33 1_555 1_555
C35 C34 1_555 1_555
C36 C34 1_555 1_555
H18 C36 1_555 1_555
N1 C17 1_555 1_555
N2 C19 1_555 1_555
N3 C5 1_555 1_555
N4 C7 1_555 1_555
N5 C29 1_555 1_555
N6 C31 1_555 1_555
O1 C1 1_555 1_555
O2 C1 1_555 1_555
O3 C12 1_555 1_555
O4 C12 1_555 1_555
O5 Tb2 1_555 1_555
O6 Tb1 1_555 1_555
O7 C35 1_555 1_555
O8 C35 1_555 1_555
O9 Tb1 1_555 1_555
O10 Tb1 1_555 1_555
O11 Tb2 1_555 1_555
O12 Tb2 1_555 1_555
O13 Tb2 1_555 1_555
O14 C13 1_555 1_555
O15 C13 1_555 1_555
O16 Tb1 1_555 1_555
O17 Tb1 1_555 1_555
S1 C5 1_555 1_555
S2 C7 1_555 1_555
S3 C29 1_555 1_555
S4 C31 1_555 1_555
S5 C17 1_555 1_555
S6 C19 1_555 1_555
Tb1B O4 1_555 1_555
Tb2B O3 1_555 1_555
Tb2E O14 1_555 1_555
O3B Tb2 1_555 1_555
O4B Tb1 1_555 1_555
O7B Tb2 1_555 1_555
O8B Tb1 1_555 1_555
O14E Tb2 1_555 1_555
C6 N3 1_555 1_555
C11 N4 1_555 1_555
C18 N1 1_555 1_555
C23 N2 1_555 1_555
C24 O16 1_555 1_555
C24 O17 1_555 1_555
C25 O5 1_555 1_555
C25 O6 1_555 1_555
C30 N5 1_555 1_555
C36 N6 1_555 1_555
O7 Tb2B 1_555 1_555
O8 Tb1B 1_555 1_555
S1 S2 1_555 1_555
S3 S4 1_555 1_555
S5 S6 1_555 1_555

#END
