
#######################################################################
#
#                 Cambridge Crystallographic Data Centre
#                                CCDC 
#
#######################################################################
#
# If this CIF has been generated from an entry in the Cambridge 
# Structural Database, then it will include bibliographic, chemical, 
# crystal, experimental, refinement or atomic coordinate data resulting 
# from the CCDC's data processing and validation procedures.
#
#######################################################################

data_GAJVAQ
_symmetry_cell_setting           monoclinic
_symmetry_space_group_name_H-M   'C 2/c'
_symmetry_Int_Tables_number      15
_space_group_name_Hall           '-C 2yn'
loop_
_symmetry_equiv_pos_site_id
_symmetry_equiv_pos_as_xyz
1 x,y,z
2 -x,y,1/2-z
3 1/2+x,1/2+y,z
4 1/2-x,1/2+y,1/2-z
5 -x,-y,-z
6 x,-y,1/2+z
7 1/2-x,1/2-y,-z
8 1/2+x,1/2-y,1/2+z
_cell_length_a                   21.7268(14)
_cell_length_b                   13.5549(9)
_cell_length_c                   34.635(2)
_cell_angle_alpha                90
_cell_angle_beta                 98.9380(10)
_cell_angle_gamma                90
_cell_volume                     10076.3
loop_
_atom_site_label
_atom_site_type_symbol
_atom_site_fract_x
_atom_site_fract_y
_atom_site_fract_z
Er1 Er 0.717181(14) 0.57963(2) 0.059030(8)
Er2 Er 0.759667(14) 0.60811(2) 0.183843(8)
C1 C 0.6992(3) 0.4170(5) 0.1217(2)
C2 C 0.6906(3) 0.3131(5) 0.13454(18)
C3 C 0.6633(3) 0.2436(5) 0.10941(19)
H1 H 0.6499 0.2628 0.0837
C4 C 0.6738(3) 0.1252(5) 0.1560(2)
C5 C 0.7022(3) 0.1890(6) 0.1838(2)
H2 H 0.7156 0.1684 0.2093
C6 C 0.7100(3) 0.2833(6) 0.1727(2)
H3 H 0.7287 0.3287 0.1910
C7 C 0.5398(3) -0.0356(5) 0.1226(2)
C8 C 0.5018(4) -0.0524(6) 0.0886(2)
H4 H 0.5172 -0.0777 0.0671
C9 C 0.4391(4) -0.0309(5) 0.0867(2)
H5 H 0.4117 -0.0426 0.0637
C10 C 0.4173(3) 0.0079(5) 0.1187(2)
C11 C 0.4617(3) 0.0227(5) 0.1520(2)
H6 H 0.4483 0.0499 0.1739
C12 C 0.3507(3) 0.0340(5) 0.1199(2)
C13 C 0.6273(3) 0.6579(5) 0.1250(2)
C14 C 0.5589(3) 0.6837(5) 0.1245(2)
C15 C 0.5159(3) 0.6696(6) 0.0921(2)
H7 H 0.5287 0.6440 0.0697
C16 C 0.4557(3) 0.6914(5) 0.0915(2)
H8 H 0.4267 0.6798 0.0692
C17 C 0.4380(3) 0.7305(5) 0.1239(2)
C18 C 0.5382(3) 0.7231(5) 0.1570(2)
H9 H 0.5668 0.7332 0.1795
C19 C 0.3017(3) 0.5759(5) 0.0942(2)
C20 C 0.3162(4) 0.5422(5) 0.1322(2)
H10 H 0.3317 0.5851 0.1524
C21 C 0.3075(3) 0.4444(5) 0.1395(2)
H11 H 0.3176 0.4195 0.1647
C22 C 0.2832(3) 0.3827(5) 0.10878(19)
C23 C 0.2693(4) 0.4246(5) 0.0724(2)
H12 H 0.2525 0.3844 0.0517
C24 C 0.2720(3) 0.2769(5) 0.1165(3)
C25 C 0.6579(3) 0.3990(5) -0.2531(2)
C26 C 0.6196(3) 0.4764(5) -0.23783(19)
C27 C 0.5714(3) 0.4538(5) -0.2165(2)
H13 H 0.5614 0.3883 -0.2125
C28 C 0.5390(3) 0.5281(5) -0.2016(2)
H14 H 0.5077 0.5134 -0.1871
C29 C 0.5539(3) 0.6254(5) -0.2087(2)
C30 C 0.6317(3) 0.5756(5) -0.2432(2)
H15 H 0.6633 0.5924 -0.2572
C31 C 0.5058(3) 0.6635(6) -0.1121(2)
C32 C 0.4881(4) 0.5969(6) -0.0876(2)
H16 H 0.4513 0.5619 -0.0947
C33 C 0.5237(4) 0.5804(6) -0.0525(2)
H17 H 0.5119 0.5332 -0.0356
C34 C 0.5782(3) 0.6349(5) -0.0420(2)
C35 C 0.5930(4) 0.7047(6) -0.0681(2)
H18 H 0.6287 0.7427 -0.0615
C36 C 0.6225(4) 0.6174(6) -0.0047(2)
N1 N 0.6543(3) 0.1492(4) 0.11868(17)
N2 N 0.5212(3) 0.0007(4) 0.15456(19)
N3 N 0.2785(3) 0.5192(4) 0.06501(17)
N4 N 0.4782(3) 0.7472(5) 0.1573(2)
N5 N 0.5997(3) 0.6489(4) -0.22892(16)
N6 N 0.5557(3) 0.7194(5) -0.10384(19)
O1 O 0.7158(2) 0.4804(4) 0.14736(15)
O2 O 0.6904(2) 0.4344(4) 0.08567(15)
O3 O 0.3375(2) 0.0584(4) 0.15189(15)
O4 O 0.3139(2) 0.0288(4) 0.08843(14)
O5 O 0.6622(2) 0.6634(4) 0.15670(15)
O6 O 0.6420(2) 0.6311(4) 0.09300(15)
O7 O 0.2797(3) 0.2475(4) 0.15048(18)
O8 O 0.2544(3) 0.2241(4) 0.08655(18)
O9 O 0.6431(3) 0.3104(4) -0.25012(16)
O10 O 0.7038(2) 0.4286(3) -0.26753(14)
O11 O 0.6166(3) 0.5412(4) 0.01488(16)
O12 O 0.6651(2) 0.6772(4) 0.00653(15)
O13 O 0.7384(3) 0.4506(4) 0.01605(15)
O14 O 0.7931(3) 0.6406(4) 0.01876(15)
O15 O 0.8076(2) 0.4657(3) 0.22050(15)
O16 O 0.8455(2) 0.6630(3) 0.22873(14)
O17 O 0.7315(3) 0.7810(5) 0.2183(2)
S1 S 0.66442(9) 0.00232(15) 0.17229(7)
S2 S 0.62072(10) -0.06887(14) 0.12470(8)
S3 S 0.35914(9) 0.76525(14) 0.12662(7)
S4 S 0.30892(9) 0.70073(14) 0.07954(7)
S5 S 0.45787(9) 0.68037(17) -0.15885(6)
S6 S 0.51806(9) 0.73149(14) -0.19303(5)
Er1B Er 0.217181(14) 0.07963(2) 0.059030(8)
Er2B Er 0.259667(14) 0.10811(2) 0.183843(8)
Er2E Er 0.759667(14) 0.39189(2) -0.316157(8)
O3B O 0.8375(2) 0.5584(4) 0.15189(15)
O4B O 0.8139(2) 0.5288(4) 0.08843(14)
O7B O 0.7797(3) 0.7475(4) 0.15048(18)
O8B O 0.7544(3) 0.7241(4) 0.08655(18)
O10E O 0.7038(2) 0.5714(3) 0.23247(14)
O18 O 0.5936(5) 0.3386(6) 0.9982(3)
O19 O 0.6171(5) 0.0685(7) 0.0419(3)
O20 O 0.4414(3) 0.0330(5) 0.26197(17)
O21 O 0.5842(4) 0.8480(5) 0.2769(2)
O22 O 0.4854(5) 0.8256(8) 0.9897(4)
O23 O 0.8220(6) 0.3048(13) 0.9980(4)
O24 O 0.8993(6) 0.6133(10) 0.9856(4)
loop_
_geom_bond_atom_site_label_1
_geom_bond_atom_site_label_2
_geom_bond_site_symmetry_1
_geom_bond_site_symmetry_2
Er1 O2 1_555 1_555
Er2 O1 1_555 1_555
C1 C2 1_555 1_555
C2 C3 1_555 1_555
C3 H1 1_555 1_555
C4 C5 1_555 1_555
C5 H2 1_555 1_555
C6 C2 1_555 1_555
H3 C6 1_555 1_555
C7 C8 1_555 1_555
C8 H4 1_555 1_555
C9 C8 1_555 1_555
H5 C9 1_555 1_555
C10 C9 1_555 1_555
C11 C10 1_555 1_555
H6 C11 1_555 1_555
C12 C10 1_555 1_555
C13 C14 1_555 1_555
C14 C15 1_555 1_555
C15 H7 1_555 1_555
C16 C15 1_555 1_555
H8 C16 1_555 1_555
C17 C16 1_555 1_555
C18 C14 1_555 1_555
H9 C18 1_555 1_555
C19 C20 1_555 1_555
C20 H10 1_555 1_555
C21 C20 1_555 1_555
H11 C21 1_555 1_555
C22 C21 1_555 1_555
C23 C22 1_555 1_555
H12 C23 1_555 1_555
C24 C22 1_555 1_555
C25 C26 1_555 1_555
C26 C27 1_555 1_555
C27 H13 1_555 1_555
C28 C27 1_555 1_555
H14 C28 1_555 1_555
C29 C28 1_555 1_555
C30 C26 1_555 1_555
H15 C30 1_555 1_555
C31 C32 1_555 1_555
C32 H16 1_555 1_555
C33 C32 1_555 1_555
H17 C33 1_555 1_555
C34 C33 1_555 1_555
C35 C34 1_555 1_555
H18 C35 1_555 1_555
C36 C34 1_555 1_555
N1 C3 1_555 1_555
N2 C7 1_555 1_555
N3 C19 1_555 1_555
N4 C17 1_555 1_555
N5 C29 1_555 1_555
N6 C31 1_555 1_555
O1 C1 1_555 1_555
O2 C1 1_555 1_555
O3 C12 1_555 1_555
O4 C12 1_555 1_555
O5 Er2 1_555 1_555
O6 Er1 1_555 1_555
O7 C24 1_555 1_555
O8 C24 1_555 1_555
O9 C25 1_555 1_555
O10 C25 1_555 1_555
O11 Er1 1_555 1_555
O12 Er1 1_555 1_555
O13 Er1 1_555 1_555
O14 Er1 1_555 1_555
O15 Er2 1_555 1_555
O16 Er2 1_555 1_555
O17 Er2 1_555 1_555
S1 C4 1_555 1_555
S2 C7 1_555 1_555
S3 C17 1_555 1_555
S4 C19 1_555 1_555
S5 C31 1_555 1_555
S6 C29 1_555 1_555
Er1B O4 1_555 1_555
Er2B O3 1_555 1_555
Er2E O10 1_555 1_555
O3B Er2 1_555 1_555
O4B Er1 1_555 1_555
O7B Er2 1_555 1_555
O8B Er1 1_555 1_555
O10E Er2 1_555 1_555
C4 N1 1_555 1_555
C5 C6 1_555 1_555
C11 N2 1_555 1_555
C13 O5 1_555 1_555
C13 O6 1_555 1_555
C18 N4 1_555 1_555
C23 N3 1_555 1_555
C30 N5 1_555 1_555
C35 N6 1_555 1_555
C36 O11 1_555 1_555
C36 O12 1_555 1_555
O7 Er2B 1_555 1_555
O8 Er1B 1_555 1_555
S1 S2 1_555 1_555
S3 S4 1_555 1_555
S5 S6 1_555 1_555

#END
