
#######################################################################
#
#                 Cambridge Crystallographic Data Centre
#                                CCDC 
#
#######################################################################
#
# If this CIF has been generated from an entry in the Cambridge 
# Structural Database, then it will include bibliographic, chemical, 
# crystal, experimental, refinement or atomic coordinate data resulting 
# from the CCDC's data processing and validation procedures.
#
#######################################################################

data_GAJWAR
_symmetry_cell_setting           triclinic
_symmetry_space_group_name_H-M   'P -1'
_symmetry_Int_Tables_number      2
_space_group_name_Hall           '-P 1'
loop_
_symmetry_equiv_pos_site_id
_symmetry_equiv_pos_as_xyz
1 x,y,z
2 -x,-y,-z
_cell_length_a                   9.6481(9)
_cell_length_b                   11.2186(10)
_cell_length_c                   14.1622(13)
_cell_angle_alpha                112.023(1)
_cell_angle_beta                 91.681(2)
_cell_angle_gamma                101.926(2)
_cell_volume                     1380.69
loop_
_atom_site_label
_atom_site_type_symbol
_atom_site_fract_x
_atom_site_fract_y
_atom_site_fract_z
I1 I 0.96944(4) 0.71897(4) 0.94421(3)
Cd1 Cd 0.72297(4) 0.65692(3) 0.81793(3)
N1 N 0.5431(5) 0.5232(4) 0.8522(3)
I2 I 0.75179(4) 0.58557(3) 0.61385(2)
C1 C 0.4158(6) 0.5452(5) 0.8872(4)
H1 H 0.3865 0.6259 0.9045
C2 C 0.3385(6) 0.4329(6) 0.8933(4)
H2 H 0.2461 0.4197 0.9147
N2 N 0.4208(5) 0.3430(4) 0.8623(3)
H3 H 0.3973 0.2611 0.8587
C3 C 0.5430(6) 0.3998(5) 0.8383(4)
S1 S 0.68646(15) 0.32646(12) 0.80186(10)
C4 C 0.6339(6) 0.2317(5) 0.6635(4)
H4 H 0.6100 0.2918 0.6324
H5 H 0.7165 0.1999 0.6321
C5 C 0.5085(5) 0.1145(5) 0.6373(3)
C6 C 0.3744(5) 0.1219(5) 0.6049(4)
C7 C 0.3473(6) 0.2429(5) 0.5930(4)
H6 H 0.3589 0.3151 0.6607
H7 H 0.2499 0.2232 0.5601
H8 H 0.4154 0.2695 0.5505
C8 C 0.2607(5) 0.0108(5) 0.5809(4)
H9 H 0.1689 0.0150 0.5583
C9 C 0.2774(5) -0.1040(5) 0.5888(4)
C10 C 0.1497(5) -0.2193(5) 0.5630(4)
H10 H 0.0645 -0.1948 0.5440
H11 H 0.1358 -0.2424 0.6229
H12 H 0.1661 -0.2955 0.5055
C11 C 0.4134(5) -0.1114(5) 0.6196(3)
C12 C 0.5305(5) -0.0019(5) 0.6444(4)
C13 C 0.6792(5) -0.0081(5) 0.6749(4)
H13 H 0.7411 0.0022 0.6235
H14 H 0.6764 -0.0936 0.6794
H15 H 0.7168 0.0633 0.7418
C14 C 0.4302(6) -0.2390(5) 0.6272(4)
H16 H 0.5300 -0.2462 0.6186
H17 H 0.3677 -0.3144 0.5701
S2 S 0.38639(14) -0.25214(13) 0.74928(10)
C15 C 0.5254(5) -0.1325(5) 0.8356(4)
N3 N 0.6448(4) -0.1537(4) 0.8698(3)
C16 C 0.7233(5) -0.0325(5) 0.9359(4)
H18 H 0.8136 -0.0169 0.9727
C17 C 0.6527(6) 0.0613(5) 0.9409(4)
H19 H 0.6839 0.1538 0.9798
N4 N 0.5271(5) -0.0040(4) 0.8784(3)
H20 H 0.4588 0.0326 0.8683
Cd1_2 Cd 0.72297(4) -0.34308(3) 0.81793(3)
N3_2 N 0.6448(4) 0.8463(4) 0.8698(3)
N5 N 0.2719(5) 0.0817(4) 0.8450(3)
C18 C 0.1551(6) 0.0386(5) 0.8151(4)
C19 C 0.0043(6) -0.0165(6) 0.7780(4)
H21 H -0.0525 0.0325 0.8281
H22 H -0.0207 -0.1098 0.7686
H23 H -0.0155 -0.0093 0.7123
N6 N 0.0012(6) 0.2283(7) 0.6948(6)
C20 C 0.0380(6) 0.3282(6) 0.6921(5)
C21 C 0.0875(7) 0.4572(6) 0.6871(5)
H24 H 0.1185 0.4456 0.6196
H25 H 0.1678 0.5096 0.7404
H26 H 0.0097 0.5031 0.6980
loop_
_geom_bond_atom_site_label_1
_geom_bond_atom_site_label_2
_geom_bond_site_symmetry_1
_geom_bond_site_symmetry_2
I1 Cd1 1_555 1_555
Cd1 N1 1_555 1_555
N1 C1 1_555 1_555
I2 Cd1 1_555 1_555
C1 H1 1_555 1_555
C2 C1 1_555 1_555
H2 C2 1_555 1_555
N2 C2 1_555 1_555
H3 N2 1_555 1_555
C3 N1 1_555 1_555
S1 C3 1_555 1_555
C4 S1 1_555 1_555
H4 C4 1_555 1_555
H5 C4 1_555 1_555
C5 C4 1_555 1_555
C6 C5 1_555 1_555
C7 C6 1_555 1_555
H6 C7 1_555 1_555
H7 C7 1_555 1_555
H8 C7 1_555 1_555
C8 C6 1_555 1_555
H9 C8 1_555 1_555
C9 C8 1_555 1_555
C10 C9 1_555 1_555
H10 C10 1_555 1_555
H11 C10 1_555 1_555
H12 C10 1_555 1_555
C11 C9 1_555 1_555
C12 C5 1_555 1_555
C13 C12 1_555 1_555
H13 C13 1_555 1_555
H14 C13 1_555 1_555
H15 C13 1_555 1_555
C14 C11 1_555 1_555
H16 C14 1_555 1_555
H17 C14 1_555 1_555
S2 C14 1_555 1_555
C15 S2 1_555 1_555
N3 C15 1_555 1_555
C16 N3 1_555 1_555
H18 C16 1_555 1_555
C17 C16 1_555 1_555
H19 C17 1_555 1_555
N4 C15 1_555 1_555
H20 N4 1_555 1_555
N5 C18 1_555 1_555
C18 C19 1_555 1_555
C19 H21 1_555 1_555
H22 C19 1_555 1_555
H23 C19 1_555 1_555
N6 C20 1_555 1_555
C20 C21 1_555 1_555
C21 H24 1_555 1_555
H25 C21 1_555 1_555
H26 C21 1_555 1_555
Cd1_2 N3 1_555 1_555
N3_2 Cd1 1_555 1_555
N2 C3 1_555 1_555
C11 C12 1_555 1_555
C17 N4 1_555 1_555

#END
