
#######################################################################
#
#                 Cambridge Crystallographic Data Centre
#                                CCDC 
#
#######################################################################
#
# If this CIF has been generated from an entry in the Cambridge 
# Structural Database, then it will include bibliographic, chemical, 
# crystal, experimental, refinement or atomic coordinate data resulting 
# from the CCDC's data processing and validation procedures.
#
#######################################################################

data_GAJWEV
_symmetry_cell_setting           monoclinic
_symmetry_space_group_name_H-M   'C 2/c'
_symmetry_Int_Tables_number      15
_space_group_name_Hall           '-C 2yn'
loop_
_symmetry_equiv_pos_site_id
_symmetry_equiv_pos_as_xyz
1 x,y,z
2 -x,y,1/2-z
3 1/2+x,1/2+y,z
4 1/2-x,1/2+y,1/2-z
5 -x,-y,-z
6 x,-y,1/2+z
7 1/2-x,1/2-y,-z
8 1/2+x,1/2-y,1/2+z
_cell_length_a                   32.585(4)
_cell_length_b                   10.2983(14)
_cell_length_c                   19.944(3)
_cell_angle_alpha                90
_cell_angle_beta                 125.829(2)
_cell_angle_gamma                90
_cell_volume                     5426.15
loop_
_atom_site_label
_atom_site_type_symbol
_atom_site_fract_x
_atom_site_fract_y
_atom_site_fract_z
I1 I 0.674872(17) 0.48600(4) 1.12176(3)
Cd1 Cd 0.611342(18) 0.57528(5) 0.96210(3)
N1 N 0.65236(19) 0.7513(5) 0.9665(3)
I2 I 0.59174(2) 0.42531(5) 0.83273(3)
C1 C 0.7030(2) 0.7763(7) 1.0218(4)
H1 H 0.7266 0.7206 1.0659
C2 C 0.7142(3) 0.8915(7) 1.0044(4)
H2 H 0.7466 0.9314 1.0332
N2 N 0.6701(2) 0.9395(5) 0.9373(3)
H3 H 0.6661 1.0139 0.9125
C3 C 0.6336(2) 0.8523(6) 0.9158(4)
S1 S 0.56983(6) 0.87226(17) 0.83368(10)
C4 C 0.5693(2) 0.8063(6) 0.7476(4)
H4 H 0.5830 0.7168 0.7616
H5 H 0.5338 0.8014 0.6978
C5 C 0.5994(2) 0.8851(6) 0.7277(3)
C6 C 0.6466(2) 0.8376(6) 0.7499(3)
C7 C 0.6674(2) 0.7076(6) 0.7924(4)
H6 H 0.7004 0.6925 0.8029
H7 H 0.6439 0.6384 0.7567
H8 H 0.6712 0.7076 0.8449
C8 C 0.6746(2) 0.9114(6) 0.7314(4)
H9 H 0.7062 0.8789 0.7462
C9 C 0.6579(3) 1.0306(6) 0.6920(4)
C10 C 0.6895(3) 1.1043(7) 0.6713(4)
H10 H 0.6695 1.1190 0.6114
H11 H 0.7197 1.0534 0.6889
H12 H 0.6998 1.1880 0.7001
C11 C 0.6113(2) 1.0790(6) 0.6704(4)
C12 C 0.5821(2) 1.0066(6) 0.6885(4)
C13 C 0.5327(2) 1.0611(6) 0.6648(4)
H13 H 0.5129 0.9925 0.6678
H14 H 0.5137 1.0951 0.6082
H15 H 0.5390 1.1314 0.7029
C14 C 0.5914(2) 1.2048(6) 0.6240(4)
H16 H 0.6196 1.2634 0.6388
H17 H 0.5698 1.2489 0.6370
S2 S 0.55412(6) 1.16184(16) 0.51360(10)
C15 C 0.5211(2) 1.3040(6) 0.4641(4)
N3 N 0.53557(19) 1.3980(5) 0.4365(3)
C16 C 0.4967(3) 1.4852(6) 0.3960(4)
H18 H 0.4965 1.5628 0.3700
C17 C 0.4583(3) 1.4423(7) 0.3992(4)
H19 H 0.4266 1.4837 0.3763
N4 N 0.47420(19) 1.3288(5) 0.4417(3)
H20 H 0.4567 1.2797 0.4527
Cd1E Cd 0.611342(18) 1.42472(5) 0.46210(3)
N3E N 0.53557(19) 0.6020(5) 0.9365(3)
O1 O 0.4157(3) 1.1672(9) 0.4612(5)
C18 C 0.3975(9) 1.154(2) 0.5051(9)
H21 H 0.4255 1.1486 0.5640
H22 H 0.3771 1.0747 0.4882
H23 H 0.3763 1.2292 0.4958
H28 H 0.3964 1.1370 0.4091
O2 O 0.6804(2) 1.1835(5) 0.8977(4)
C19 C 0.7138(3) 1.2235(8) 0.8779(6)
H24 H 0.7322 1.1480 0.8782
H25 H 0.7380 1.2868 0.9190
H26 H 0.6943 1.2635 0.8229
H27 H 0.6568 1.2507 0.8757
C20? C 0.3900(8) 1.1485(16) 0.5074(8)
H29? H 0.3928 1.3120 0.4713
H30? H 0.4044 1.1654 0.5656
H31? H 0.3986 1.0600 0.5016
H32? H 0.3531 1.1579 0.4740
O3? O 0.4101(5) 1.2384(13) 0.4798(8)
loop_
_geom_bond_atom_site_label_1
_geom_bond_atom_site_label_2
_geom_bond_site_symmetry_1
_geom_bond_site_symmetry_2
I1 Cd1 1_555 1_555
Cd1 N1 1_555 1_555
N1 C1 1_555 1_555
I2 Cd1 1_555 1_555
C1 H1 1_555 1_555
C2 C1 1_555 1_555
H2 C2 1_555 1_555
N2 C2 1_555 1_555
H3 N2 1_555 1_555
C3 N1 1_555 1_555
S1 C3 1_555 1_555
C4 S1 1_555 1_555
H4 C4 1_555 1_555
H5 C4 1_555 1_555
C5 C4 1_555 1_555
C6 C5 1_555 1_555
C7 C6 1_555 1_555
H6 C7 1_555 1_555
H7 C7 1_555 1_555
H8 C7 1_555 1_555
C8 C6 1_555 1_555
H9 C8 1_555 1_555
C9 C8 1_555 1_555
C10 C9 1_555 1_555
H10 C10 1_555 1_555
H11 C10 1_555 1_555
H12 C10 1_555 1_555
C11 C9 1_555 1_555
C12 C5 1_555 1_555
C13 C12 1_555 1_555
H13 C13 1_555 1_555
H14 C13 1_555 1_555
H15 C13 1_555 1_555
C14 C11 1_555 1_555
H16 C14 1_555 1_555
H17 C14 1_555 1_555
S2 C14 1_555 1_555
C15 S2 1_555 1_555
N3 C15 1_555 1_555
C16 N3 1_555 1_555
H18 C16 1_555 1_555
C17 C16 1_555 1_555
H19 C17 1_555 1_555
N4 C15 1_555 1_555
H20 N4 1_555 1_555
O1 C18 1_555 1_555
C18 H21 1_555 1_555
H22 C18 1_555 1_555
H23 C18 1_555 1_555
O2 C19 1_555 1_555
C19 H24 1_555 1_555
H25 C19 1_555 1_555
H26 C19 1_555 1_555
H27 O2 1_555 1_555
H28 O1 1_555 1_555
Cd1E N3 1_555 1_555
N3E Cd1 1_555 1_555
N2 C3 1_555 1_555
C11 C12 1_555 1_555
C17 N4 1_555 1_555

#END
