
#######################################################################
#
#                 Cambridge Crystallographic Data Centre
#                                CCDC 
#
#######################################################################
#
# If this CIF has been generated from an entry in the Cambridge 
# Structural Database, then it will include bibliographic, chemical, 
# crystal, experimental, refinement or atomic coordinate data resulting 
# from the CCDC's data processing and validation procedures.
#
#######################################################################

data_GAJWIZ
_symmetry_cell_setting           monoclinic
_symmetry_space_group_name_H-M   'P 21/c'
_symmetry_Int_Tables_number      14
_space_group_name_Hall           '-P 2ybc'
loop_
_symmetry_equiv_pos_site_id
_symmetry_equiv_pos_as_xyz
1 x,y,z
2 -x,1/2+y,1/2-z
3 -x,-y,-z
4 x,1/2-y,1/2+z
_cell_length_a                   10.642(2)
_cell_length_b                   25.648(5)
_cell_length_c                   9.4569(19)
_cell_angle_alpha                90
_cell_angle_beta                 97.89(3)
_cell_angle_gamma                90
_cell_volume                     2556.79
loop_
_atom_site_label
_atom_site_type_symbol
_atom_site_fract_x
_atom_site_fract_y
_atom_site_fract_z
Ag1 Ag 0.20587(4) 0.39351(2) 1.23329(6)
C1 C 0.4834(5) 0.4185(4) 1.1898(8)
C2 C 0.3522(7) 0.4601(4) 0.9997(8)
C3 C 0.2270(7) 0.4663(4) 0.9117(8)
C4 C 0.1853(8) 0.4305(3) 0.8047(11)
H1 H 0.2330 0.4007 0.7938
C5 C 0.0726(8) 0.4390(3) 0.7141(9)
H2 H 0.0451 0.4148 0.6432
C6 C 0.0019(6) 0.4830(3) 0.7288(7)
C7 C 0.0441(6) 0.5170(3) 0.8346(7)
H3 H -0.0036 0.5466 0.8470
C8 C 0.1565(7) 0.5088(4) 0.9247(8)
H4 H 0.1833 0.5332 0.9952
C9 C -0.1165(6) 0.4915(3) 0.6324(7)
C10 C -0.2638(7) 0.4693(3) 0.4523(8)
H5 H -0.2545 0.4748 0.3528
H6 H -0.3277 0.4427 0.4582
C11 C -0.2990(7) 0.5190(3) 0.5202(9)
H7 H -0.3776 0.5150 0.5602
H8 H -0.3088 0.5472 0.4511
C12 C 0.4972(6) 0.3633(3) 1.2395(7)
H9 H 0.5815 0.3584 1.2913
H10 H 0.4885 0.3404 1.1571
C13 C 0.4023(7) 0.2921(3) 1.3514(8)
H11 H 0.3925 0.2756 1.2583
H12 H 0.4839 0.2815 1.4018
C14 C 0.3002(6) 0.2725(3) 1.4319(6)
C15 C 0.2296(7) 0.3028(3) 1.5131(7)
H13 H 0.2448 0.3384 1.5200
C16 C 0.1374(7) 0.2812(3) 1.5839(7)
H14 H 0.0894 0.3023 1.6360
C17 C 0.1168(6) 0.2283(3) 1.5771(6)
C18 C 0.1852(7) 0.1983(3) 1.4945(7)
H15 H 0.1689 0.1627 1.4857
C19 C 0.2766(8) 0.2198(3) 1.4254(7)
H16 H 0.3237 0.1985 1.3728
C20 C 0.0257(6) 0.2037(3) 1.6606(7)
C21 C -0.1419(8) 0.2026(4) 1.7765(13)
H17 H -0.1398 0.2175 1.8711
H18 H -0.2294 0.1999 1.7323
C22 C -0.0774(8) 0.1498(4) 1.7837(11)
H19 H -0.1340 0.1233 1.7376
H20 H -0.0505 0.1396 1.8819
N1 N 0.4030(5) 0.3488(2) 1.3319(5)
H21 H 0.4288 0.3632 1.4191
N2 N -0.1916(5) 0.5294(2) 0.6340(6)
N3 N 0.0320(5) 0.1573(2) 1.7074(6)
O1 O -0.1445(5) 0.45441(19) 0.5336(5)
O2 O -0.0697(5) 0.2335(2) 1.6912(7)
N4 N 0.3632(7) 0.4150(4) 1.0872(9)
H22 H 0.3686 0.3881 1.0292
H23 H 0.4760 0.4418 1.2677
H24 H 0.5530 0.4291 1.1422
H25 H 0.4178 0.4619 0.9443
H26 H 0.3638 0.4916 1.0655
Ag1B Ag -0.20587(4) 0.60649(2) 0.76671(6)
Ag1C Ag 0.20587(4) 0.10649(2) 1.73329(6)
N2B N 0.1916(5) 0.4706(2) 1.3660(6)
N3C N 0.0320(5) 0.3427(2) 1.2074(6)
C23 C 0.6858(17) 0.1598(10) 0.263(4)
F1 F 0.6496(16) 0.2064(5) 0.230(2)
F2 F 0.732(2) 0.1670(11) 0.392(3)
F3 F 0.7712(18) 0.1506(6) 0.188(3)
O3 O 0.4730(13) 0.1354(4) 0.3193(16)
O4 O 0.5309(12) 0.1128(4) 0.1128(11)
O5 O 0.6328(11) 0.0694(4) 0.2951(12)
S1 S 0.5710(2) 0.11444(9) 0.2505(3)
H27? H 0.3605 0.0253 0.7032
H28? H 0.5298 0.0607 0.7635
H29? H 0.5272 0.0789 0.6082
H30? H 0.4023 0.0622 0.4580
H31? H 0.3928 0.0049 0.5049
N5? N 0.3564(13) 0.0544(10) 0.6478(14)
loop_
_geom_bond_atom_site_label_1
_geom_bond_atom_site_label_2
_geom_bond_site_symmetry_1
_geom_bond_site_symmetry_2
Ag1 N1 1_555 1_555
C1 C12 1_555 1_555
C2 C3 1_555 1_555
C3 C4 1_555 1_555
C4 H1 1_555 1_555
C5 C4 1_555 1_555
H2 C5 1_555 1_555
C6 C5 1_555 1_555
C7 C6 1_555 1_555
H3 C7 1_555 1_555
C8 C3 1_555 1_555
H4 C8 1_555 1_555
C9 C6 1_555 1_555
C10 H5 1_555 1_555
H6 C10 1_555 1_555
C11 C10 1_555 1_555
H7 C11 1_555 1_555
H8 C11 1_555 1_555
C12 H9 1_555 1_555
H10 C12 1_555 1_555
C13 H11 1_555 1_555
H12 C13 1_555 1_555
C14 C13 1_555 1_555
C15 C14 1_555 1_555
H13 C15 1_555 1_555
C16 C15 1_555 1_555
H14 C16 1_555 1_555
C17 C16 1_555 1_555
C18 C17 1_555 1_555
H15 C18 1_555 1_555
C19 C14 1_555 1_555
H16 C19 1_555 1_555
C20 C17 1_555 1_555
C21 H17 1_555 1_555
H18 C21 1_555 1_555
C22 C21 1_555 1_555
H19 C22 1_555 1_555
H20 C22 1_555 1_555
C23 F1 1_555 1_555
F2 C23 1_555 1_555
F3 C23 1_555 1_555
N1 C12 1_555 1_555
H21 N1 1_555 1_555
N2 C9 1_555 1_555
N3 C20 1_555 1_555
O1 C9 1_555 1_555
O2 C20 1_555 1_555
O3 S1 1_555 1_555
O4 S1 1_555 1_555
O5 S1 1_555 1_555
S1 C23 1_555 1_555
N4 Ag1 1_555 1_555
H22 N4 1_555 1_555
H23 C1 1_555 1_555
H24 C1 1_555 1_555
H25 C2 1_555 1_555
H26 C2 1_555 1_555
Ag1B N2 1_555 1_555
Ag1C N3 1_555 1_555
N2B Ag1 1_555 1_555
N3C Ag1 1_555 1_555
C1 N4 1_555 1_555
C2 N4 1_555 1_555
C7 C8 1_555 1_555
C10 O1 1_555 1_555
C11 N2 1_555 1_555
C13 N1 1_555 1_555
C18 C19 1_555 1_555
C21 O2 1_555 1_555
C22 N3 1_555 1_555

#END
