
#######################################################################
#
#                 Cambridge Crystallographic Data Centre
#                                CCDC 
#
#######################################################################
#
# If this CIF has been generated from an entry in the Cambridge 
# Structural Database, then it will include bibliographic, chemical, 
# crystal, experimental, refinement or atomic coordinate data resulting 
# from the CCDC's data processing and validation procedures.
#
#######################################################################

data_GAJXAS
_symmetry_cell_setting           monoclinic
_symmetry_space_group_name_H-M   'C 2/c'
_symmetry_Int_Tables_number      15
_space_group_name_Hall           '-C 2yn'
loop_
_symmetry_equiv_pos_site_id
_symmetry_equiv_pos_as_xyz
1 x,y,z
2 -x,y,1/2-z
3 1/2+x,1/2+y,z
4 1/2-x,1/2+y,1/2-z
5 -x,-y,-z
6 x,-y,1/2+z
7 1/2-x,1/2-y,-z
8 1/2+x,1/2-y,1/2+z
_cell_length_a                   14.0161(8)
_cell_length_b                   8.7983(5)
_cell_length_c                   40.648(2)
_cell_angle_alpha                90
_cell_angle_beta                 98.399(1)
_cell_angle_gamma                90
_cell_volume                     4958.86
loop_
_atom_site_label
_atom_site_type_symbol
_atom_site_fract_x
_atom_site_fract_y
_atom_site_fract_z
N5 N 0.5000 0.2106(12) 0.2500
O3 O 0.5000 0.0742(12) 0.2500
O4 O 0.4389(8) 0.2876(11) 0.2595(3)
O4A O 0.5611(8) 0.2876(11) 0.2405(3)
C23 C 0.4301(14) -0.417(2) 0.2443(8)
O5 O 0.5000 -0.331(2) 0.2500
C23A C 0.5699(14) -0.417(2) 0.2557(8)
N6 N 0.816(2) 0.591(3) -0.0074(5)
O6 O 0.7378(17) 0.642(3) -0.0178(6)
O7 O 0.867(2) 0.659(3) 0.0136(6)
O8 O 0.841(3) 0.469(3) -0.0164(6)
Ag1 Ag 0.75293(4) 0.41950(6) 0.137217(12)
O1 O 1.0265(4) 0.9468(6) 0.04965(12)
O2 O 0.4566(4) -0.2269(6) 0.07029(12)
N1 N 0.8092(4) 0.5993(5) 0.17974(13)
H1 H 0.8729 0.5810 0.1865
N2 N 0.7031(4) 0.3066(5) 0.18577(12)
H2 H 0.6397 0.3288 0.1858
N3 N 1.1447(4) 1.0042(7) 0.09089(13)
N4 N 0.3456(4) -0.2122(6) 0.10420(13)
C1 C 0.7573(6) 0.5582(8) 0.20676(18)
H3 H 0.6908 0.5909 0.2014
H4 H 0.7855 0.6112 0.2268
C2 C 0.7598(6) 0.3893(8) 0.21334(16)
H5 H 0.8261 0.3540 0.2161
H6 H 0.7341 0.3688 0.2338
C3 C 0.7982(5) 0.7613(7) 0.17138(19)
H7 H 0.8102 0.8208 0.1916
H8 H 0.7324 0.7804 0.1611
C4 C 0.7156(5) 0.1417(7) 0.18968(17)
H9 H 0.7095 0.1134 0.2123
H10 H 0.7798 0.1138 0.1856
C5 C 0.8663(5) 0.8119(7) 0.14803(17)
C6 C 0.8557(6) 0.7621(8) 0.11534(19)
H11 H 0.8046 0.6977 0.1077
C7 C 0.9173(6) 0.8043(8) 0.09408(18)
H12 H 0.9090 0.7671 0.0724
C8 C 0.9925(5) 0.9028(7) 0.10483(16)
C9 C 1.0028(5) 0.9564(7) 0.13708(17)
H13 H 1.0522 1.0243 0.1444
C10 C 0.9405(5) 0.9104(8) 0.15872(18)
H14 H 0.9489 0.9463 0.1805
C11 C 1.0598(5) 0.9539(7) 0.08272(16)
C12 C 1.1787(6) 1.0538(10) 0.05993(18)
H15 H 1.2419 1.0119 0.0584
H16 H 1.1824 1.1638 0.0590
C13 C 1.1052(7) 0.9943(14) 0.03250(19)
H17 H 1.0845 1.0731 0.0163
H18 H 1.1305 0.9093 0.0213
C14 C 0.6418(5) 0.0563(6) 0.16598(17)
C15 C 0.5699(5) -0.0279(7) 0.17758(16)
H19 H 0.5671 -0.0314 0.2003
C16 C 0.5035(5) -0.1052(7) 0.15627(16)
H20 H 0.4559 -0.1606 0.1646
C17 C 0.5055(5) -0.1030(7) 0.12231(16)
C18 C 0.5779(5) -0.0211(8) 0.11042(17)
H21 H 0.5811 -0.0184 0.0877
C19 C 0.6449(5) 0.0563(7) 0.13238(18)
H22 H 0.6936 0.1100 0.1242
C20 C 0.4311(5) -0.1826(7) 0.09927(15)
C21 C 0.3007(6) -0.3048(9) 0.07581(18)
H23 H 0.2367 -0.2679 0.0673
H24 H 0.2965 -0.4108 0.0820
C22 C 0.3690(6) -0.2841(10) 0.05066(19)
H25 H 0.3807 -0.3799 0.0401
H26 H 0.3434 -0.2116 0.0336
Ag1B Ag 0.25293(4) -0.08050(6) 0.137217(12)
Ag1B_2 Ag 1.25293(4) 0.91950(6) 0.137217(12)
N3B N 0.6447(4) 0.5042(7) 0.09089(13)
N4B N 0.8456(4) 0.2878(6) 0.10420(13)
loop_
_geom_bond_atom_site_label_1
_geom_bond_atom_site_label_2
_geom_bond_site_symmetry_1
_geom_bond_site_symmetry_2
Ag1 N1 1_555 1_555
O1 C11 1_555 1_555
O2 C20 1_555 1_555
N1 H1 1_555 1_555
N2 Ag1 1_555 1_555
H2 N2 1_555 1_555
N3 C11 1_555 1_555
N4 C20 1_555 1_555
C1 N1 1_555 1_555
H3 C1 1_555 1_555
H4 C1 1_555 1_555
C2 N2 1_555 1_555
H5 C2 1_555 1_555
H6 C2 1_555 1_555
C3 N1 1_555 1_555
H7 C3 1_555 1_555
H8 C3 1_555 1_555
C4 N2 1_555 1_555
H9 C4 1_555 1_555
H10 C4 1_555 1_555
C5 C3 1_555 1_555
C6 C5 1_555 1_555
H11 C6 1_555 1_555
C7 C6 1_555 1_555
H12 C7 1_555 1_555
C8 C7 1_555 1_555
C9 C8 1_555 1_555
H13 C9 1_555 1_555
C10 C5 1_555 1_555
H14 C10 1_555 1_555
C11 C8 1_555 1_555
C12 N3 1_555 1_555
H15 C12 1_555 1_555
H16 C12 1_555 1_555
C13 O1 1_555 1_555
H17 C13 1_555 1_555
H18 C13 1_555 1_555
C14 C4 1_555 1_555
C15 C14 1_555 1_555
H19 C15 1_555 1_555
C16 C15 1_555 1_555
H20 C16 1_555 1_555
C17 C16 1_555 1_555
C18 C17 1_555 1_555
H21 C18 1_555 1_555
C19 C14 1_555 1_555
H22 C19 1_555 1_555
C20 C17 1_555 1_555
C21 N4 1_555 1_555
H23 C21 1_555 1_555
H24 C21 1_555 1_555
C22 O2 1_555 1_555
H25 C22 1_555 1_555
H26 C22 1_555 1_555
N5 O3 1_555 1_555
O4 N5 1_555 1_555
C23 O5 1_555 1_555
O5 C23A 1_555 1_555
N6 O6 1_555 1_555
O7 N6 1_555 1_555
O8 N6 1_555 1_555
Ag1B N4 1_555 1_555
Ag1B_2 N3 1_555 1_555
N3B Ag1 1_555 1_555
N4B Ag1 1_555 1_555
O4A N5 1_555 1_555
C1 C2 1_555 1_555
C9 C10 1_555 1_555
C12 C13 1_555 1_555
C18 C19 1_555 1_555
C21 C22 1_555 1_555

#END
