
#######################################################################
#
#                 Cambridge Crystallographic Data Centre
#                                CCDC 
#
#######################################################################
#
# If this CIF has been generated from an entry in the Cambridge 
# Structural Database, then it will include bibliographic, chemical, 
# crystal, experimental, refinement or atomic coordinate data resulting 
# from the CCDC's data processing and validation procedures.
#
#######################################################################

data_GAKNAI
_symmetry_cell_setting           triclinic
_symmetry_space_group_name_H-M   'P -1'
_symmetry_Int_Tables_number      2
_space_group_name_Hall           '-P 1'
loop_
_symmetry_equiv_pos_site_id
_symmetry_equiv_pos_as_xyz
1 x,y,z
2 -x,-y,-z
_cell_length_a                   9.6864(13)
_cell_length_b                   9.9047(14)
_cell_length_c                   10.8332(15)
_cell_angle_alpha                66.933(2)
_cell_angle_beta                 77.581(2)
_cell_angle_gamma                64.206(2)
_cell_volume                     859.725
loop_
_atom_site_label
_atom_site_type_symbol
_atom_site_fract_x
_atom_site_fract_y
_atom_site_fract_z
Cu1 Cu 0.20602(3) 0.38133(3) 0.28437(2)
S1 S 0.55033(6) 0.06834(6) 0.25252(5)
N1 N 0.23917(19) 0.4372(2) 0.08402(17)
N2 N 0.0879(2) 0.2704(2) 0.25975(17)
O1 O 0.25624(19) -0.44568(19) 0.27723(15)
O2 O 0.2270(2) -0.4693(2) 0.49445(16)
O3 O 0.68912(17) -0.02625(18) 0.32696(16)
O4 O 0.5783(2) 0.1307(2) 0.10938(16)
O5 O 0.44336(18) 0.19119(18) 0.30901(15)
O6 O 0.16085(19) 0.31496(19) 0.47950(15)
C1 C 0.2645(2) -0.4086(2) 0.3749(2)
C2 C 0.3274(2) -0.2830(2) 0.3406(2)
C3 C 0.3442(2) -0.1880(3) 0.2091(2)
H1 H 0.3117 -0.1980 0.1396
C4 C 0.4087(2) -0.0788(3) 0.1807(2)
H2 H 0.4186 -0.0148 0.0924
C5 C 0.4589(2) -0.0646(2) 0.2841(2)
C6 C 0.4403(3) -0.1569(3) 0.4164(2)
H3 H 0.4718 -0.1458 0.4859
C7 C 0.3749(3) -0.2647(3) 0.4438(2)
H4 H 0.3620 -0.3263 0.5325
C8 C 0.3173(2) 0.5213(3) -0.0013(2)
H5 H 0.3522 0.5758 0.0295
C9 C 0.3486(3) 0.5304(3) -0.1359(2)
H6 H 0.4054 0.5885 -0.1927
C10 C 0.2958(3) 0.4539(3) -0.1838(2)
H7 H 0.3163 0.4595 -0.2732
C11 C 0.2099(2) 0.3667(3) -0.0967(2)
C12 C 0.1441(3) 0.2860(3) -0.1365(2)
H8 H 0.1597 0.2876 -0.2248
C13 C 0.0594(3) 0.2074(3) -0.0471(3)
H9 H 0.0157 0.1586 -0.0760
C14 C 0.0357(2) 0.1978(3) 0.0905(2)
C15 C -0.0512(3) 0.1194(3) 0.1886(3)
H10 H -0.0981 0.0683 0.1662
C16 C -0.0661(3) 0.1191(3) 0.3168(2)
H11 H -0.1235 0.0676 0.3821
C17 C 0.0044(3) 0.1955(3) 0.3502(2)
H12 H -0.0072 0.1943 0.4381
C18 C 0.1867(2) 0.3607(2) 0.0369(2)
C19 C 0.1012(2) 0.2731(2) 0.1318(2)
H13 H 0.217(3) 0.2227(18) 0.526(2)
H14 H 0.180(3) 0.378(3) 0.501(3)
O1_2 O 0.25624(19) 0.55432(19) 0.27723(15)
Cu1_2 Cu 0.20602(3) -0.61867(3) 0.28437(2)
loop_
_geom_bond_atom_site_label_1
_geom_bond_atom_site_label_2
_geom_bond_site_symmetry_1
_geom_bond_site_symmetry_2
Cu1 N1 1_555 1_555
S1 O3 1_555 1_555
N1 C8 1_555 1_555
N2 Cu1 1_555 1_555
O1 C1 1_555 1_555
O2 C1 1_555 1_555
O4 S1 1_555 1_555
O5 Cu1 1_555 1_555
O6 Cu1 1_555 1_555
C1 C2 1_555 1_555
C2 C3 1_555 1_555
C3 H1 1_555 1_555
C4 C3 1_555 1_555
H2 C4 1_555 1_555
C5 S1 1_555 1_555
C6 C5 1_555 1_555
H3 C6 1_555 1_555
C7 C2 1_555 1_555
H4 C7 1_555 1_555
C8 H5 1_555 1_555
C9 C8 1_555 1_555
H6 C9 1_555 1_555
C10 C9 1_555 1_555
H7 C10 1_555 1_555
C11 C10 1_555 1_555
C12 C11 1_555 1_555
H8 C12 1_555 1_555
C13 C12 1_555 1_555
H9 C13 1_555 1_555
C14 C13 1_555 1_555
C15 C14 1_555 1_555
H10 C15 1_555 1_555
C16 C15 1_555 1_555
H11 C16 1_555 1_555
C17 N2 1_555 1_555
H12 C17 1_555 1_555
C18 N1 1_555 1_555
C19 N2 1_555 1_555
H13 O6 1_555 1_555
H14 O6 1_555 1_555
O1_2 Cu1 1_555 1_555
Cu1_2 O1 1_555 1_555
S1 O5 1_555 1_555
C4 C5 1_555 1_555
C6 C7 1_555 1_555
C11 C18 1_555 1_555
C14 C19 1_555 1_555
C16 C17 1_555 1_555
C18 C19 1_555 1_555

#END
