
#######################################################################
#
#                 Cambridge Crystallographic Data Centre
#                                CCDC 
#
#######################################################################
#
# If this CIF has been generated from an entry in the Cambridge 
# Structural Database, then it will include bibliographic, chemical, 
# crystal, experimental, refinement or atomic coordinate data resulting 
# from the CCDC's data processing and validation procedures.
#
#######################################################################

data_GAKSIV
_symmetry_cell_setting           monoclinic
_symmetry_space_group_name_H-M   'P 21/n'
_symmetry_Int_Tables_number      14
_space_group_name_Hall           '-P 2yn'
loop_
_symmetry_equiv_pos_site_id
_symmetry_equiv_pos_as_xyz
1 x,y,z
2 1/2+x,1/2-y,1/2+z
3 -x,-y,-z
4 1/2-x,1/2+y,1/2-z
_cell_length_a                   7.3032(9)
_cell_length_b                   14.0380(12)
_cell_length_c                   24.1952(18)
_cell_angle_alpha                90
_cell_angle_beta                 91.812(4)
_cell_angle_gamma                90
_cell_volume                     2479.31
loop_
_atom_site_label
_atom_site_type_symbol
_atom_site_fract_x
_atom_site_fract_y
_atom_site_fract_z
Cu1 Cu 0.49565(4) 0.21655(2) 0.250261(12)
O1 O 0.6207(2) 0.16477(12) 0.31890(6)
O2 O 0.8491(2) 0.19458(13) 0.26335(7)
O3 O 1.1837(2) 0.17869(13) 0.30168(7)
H1 H 1.0867 0.1989 0.2802
O4 O 0.4135(2) 0.26405(13) 0.17731(7)
O5 O 0.1259(3) 0.28394(15) 0.20165(8)
O6 O -0.1256(3) 0.3192(2) 0.12855(13)
H2 H -0.0660 0.3031 0.1610
N1 N 0.4673(3) -0.07259(16) 0.22141(9)
H3 H 0.4457 -0.1289 0.2336
N2 N 0.4931(3) 0.08398(15) 0.22048(8)
N3 N 0.5212(3) 0.50478(16) 0.27998(9)
H4 H 0.5402 0.5614 0.2678
N4 N 0.4996(3) 0.34802(14) 0.28054(8)
C1 C 0.7884(3) 0.16193(16) 0.30773(9)
C2 C 0.2460(4) 0.27998(17) 0.16642(10)
C3 C 0.9198(3) 0.11529(17) 0.34758(9)
C4 C 1.1095(3) 0.12609(16) 0.34239(9)
C5 C 1.2298(3) 0.08195(19) 0.38008(10)
H5 H 1.3555 0.0907 0.3775
C6 C 1.1627(4) 0.0254(2) 0.42109(11)
H6 H 1.2435 -0.0038 0.4463
C7 C 0.9768(4) 0.0115(2) 0.42537(11)
H7 H 0.9327 -0.0282 0.4527
C8 C 0.8572(4) 0.0566(2) 0.38917(10)
H8 H 0.7318 0.0477 0.3925
C9 C 0.1901(4) 0.29381(18) 0.10707(11)
C10 C 0.0074(5) 0.3131(2) 0.09180(15)
C11 C -0.0400(7) 0.3254(3) 0.0361(2)
H9 H -0.1608 0.3388 0.0255
C12 C 0.0879(9) 0.3180(3) -0.00300(18)
H10 H 0.0536 0.3270 -0.0400
C13 C 0.2663(7) 0.2976(3) 0.01085(13)
H11 H 0.3524 0.2913 -0.0164
C14 C 0.3168(5) 0.2864(2) 0.06603(11)
H12 H 0.4386 0.2736 0.0757
C15 C 0.4502(4) 0.00860(19) 0.24930(11)
H13 H 0.4117 0.0115 0.2855
C16 C 0.6029(3) 0.0958(2) 0.12218(11)
H14 H 0.6187 0.1616 0.1216
C17 C 0.6384(4) 0.0400(2) 0.07688(12)
H15 H 0.6755 0.0691 0.0446
C18 C 0.6204(4) -0.0590(2) 0.07795(13)
H16 H 0.6458 -0.0938 0.0464
C19 C 0.5665(4) -0.1063(2) 0.12417(12)
H17 H 0.5574 -0.1723 0.1252
C20 C 0.5260(3) -0.04988(19) 0.16937(11)
C21 C 0.5420(3) 0.04869(18) 0.16892(10)
C22 C 0.5371(3) 0.42397(19) 0.25137(11)
H18 H 0.5712 0.4218 0.2147
C23 C 0.4115(4) 0.3345(2) 0.38109(10)
H19 H 0.4052 0.2683 0.3824
C24 C 0.3755(4) 0.3894(2) 0.42652(12)
H20 H 0.3460 0.3594 0.4593
C25 C 0.3818(4) 0.4884(2) 0.42507(12)
H21 H 0.3532 0.5228 0.4565
C26 C 0.4292(4) 0.5361(2) 0.37842(12)
H22 H 0.4349 0.6023 0.3774
C27 C 0.4685(3) 0.48120(18) 0.33261(11)
C28 C 0.4578(3) 0.38193(17) 0.33303(10)
O3_2 O 0.1837(2) 0.17869(13) 0.30168(7)
Cu1_2 Cu 1.49565(4) 0.21655(2) 0.250261(12)
H1_2 H 0.0867 0.1989 0.2802
loop_
_geom_bond_atom_site_label_1
_geom_bond_atom_site_label_2
_geom_bond_site_symmetry_1
_geom_bond_site_symmetry_2
Cu1 O1 1_555 1_555
O1 C1 1_555 1_555
O2 Cu1 1_555 1_555
O3 H1 1_555 1_555
O4 Cu1 1_555 1_555
O5 C2 1_555 1_555
O6 H2 1_555 1_555
N1 H3 1_555 1_555
N2 Cu1 1_555 1_555
N3 H4 1_555 1_555
N4 Cu1 1_555 1_555
C1 O2 1_555 1_555
C2 O4 1_555 1_555
C3 C1 1_555 1_555
C4 O3 1_555 1_555
C5 C4 1_555 1_555
H5 C5 1_555 1_555
C6 C5 1_555 1_555
H6 C6 1_555 1_555
C7 C6 1_555 1_555
H7 C7 1_555 1_555
C8 C3 1_555 1_555
H8 C8 1_555 1_555
C9 C2 1_555 1_555
C10 O6 1_555 1_555
C11 C10 1_555 1_555
H9 C11 1_555 1_555
C12 C11 1_555 1_555
H10 C12 1_555 1_555
C13 C12 1_555 1_555
H11 C13 1_555 1_555
C14 C9 1_555 1_555
H12 C14 1_555 1_555
C15 N1 1_555 1_555
H13 C15 1_555 1_555
C16 H14 1_555 1_555
C17 C16 1_555 1_555
H15 C17 1_555 1_555
C18 C17 1_555 1_555
H16 C18 1_555 1_555
C19 C18 1_555 1_555
H17 C19 1_555 1_555
C20 N1 1_555 1_555
C21 N2 1_555 1_555
C22 N3 1_555 1_555
H18 C22 1_555 1_555
C23 H19 1_555 1_555
C24 C23 1_555 1_555
H20 C24 1_555 1_555
C25 C24 1_555 1_555
H21 C25 1_555 1_555
C26 C25 1_555 1_555
H22 C26 1_555 1_555
C27 N3 1_555 1_555
C28 N4 1_555 1_555
O3_2 Cu1 1_555 1_555
Cu1_2 O3 1_555 1_555
H1_2 O3_2 1_555 1_555
N2 C15 1_555 1_555
N4 C22 1_555 1_555
C3 C4 1_555 1_555
C7 C8 1_555 1_555
C9 C10 1_555 1_555
C13 C14 1_555 1_555
C16 C21 1_555 1_555
C19 C20 1_555 1_555
C20 C21 1_555 1_555
C23 C28 1_555 1_555
C26 C27 1_555 1_555
C27 C28 1_555 1_555

#END
