
#######################################################################
#
#                 Cambridge Crystallographic Data Centre
#                                CCDC 
#
#######################################################################
#
# If this CIF has been generated from an entry in the Cambridge 
# Structural Database, then it will include bibliographic, chemical, 
# crystal, experimental, refinement or atomic coordinate data resulting 
# from the CCDC's data processing and validation procedures.
#
#######################################################################

data_GALCUT
_symmetry_cell_setting           orthorhombic
_symmetry_space_group_name_H-M   'C m c 21'
_symmetry_Int_Tables_number      36
_space_group_name_Hall           'C 2n -2'
loop_
_symmetry_equiv_pos_site_id
_symmetry_equiv_pos_as_xyz
1 x,y,z
2 -x,-y,1/2+z
3 -x,y,z
4 x,-y,1/2+z
5 1/2+x,1/2+y,z
6 1/2-x,1/2-y,1/2+z
7 1/2-x,1/2+y,z
8 1/2+x,1/2-y,1/2+z
_cell_length_a                   26.283(6)
_cell_length_b                   26.418(6)
_cell_length_c                   10.625(2)
_cell_angle_alpha                90
_cell_angle_beta                 90
_cell_angle_gamma                90
_cell_volume                     7377.41
loop_
_atom_site_label
_atom_site_type_symbol
_atom_site_fract_x
_atom_site_fract_y
_atom_site_fract_z
Ag1 Ag 1.0000 0.70449(7) 0.73327(18)
S1 S 0.73210(13) 0.73699(16) 0.9136(4)
N1 N 0.9192(3) 0.7193(4) 0.7387(13)
C1 C 0.8886(6) 0.6918(6) 0.6602(15)
H1 H 0.9022 0.6693 0.6018
Ag2 Ag 1.0000 0.52096(7) 0.79349(18)
S2 S 0.72542(17) 0.62622(17) 0.8227(4)
N2 N 0.9181(3) 0.5168(4) 0.7929(12)
C2 C 0.8345(4) 0.6990(6) 0.6716(13)
H2 H 0.8126 0.6795 0.6231
S3 S 0.72539(12) 0.51661(14) 0.9204(4)
N3 N 0.7401(5) 0.6552(5) 1.0410(15)
C3 C 0.8154(4) 0.7335(4) 0.7508(13)
N4 N 0.7399(6) 0.6009(6) 1.0458(14)
C4 C 0.8506(5) 0.7617(5) 0.8260(12)
H3 H 0.8392 0.7870 0.8803
C5 C 0.8987(5) 0.7512(5) 0.8164(14)
H4 H 0.9206 0.7682 0.8706
O6 O 1.0000 0.6121(10) 0.631(2)
C6 C 0.7583(4) 0.7456(5) 0.7472(18)
H5 H 0.7410 0.7230 0.6893
H6 H 0.7530 0.7801 0.7191
O7 O 1.0000 0.5528(7) 0.501(2)
C7 C 0.7344(4) 0.6710(5) 0.9326(12)
O8 O 1.0000 0.6284(12) 0.438(3)
C8 C 0.7349(4) 0.5811(6) 0.9426(12)
C9 C 0.7562(4) 0.5038(5) 0.7764(13)
H7 H 0.7480 0.4694 0.7511
H8 H 0.7427 0.5264 0.7127
C10 C 0.8137(4) 0.5094(5) 0.7794(13)
N11 N 1.0000 0.5989(6) 0.5249(16)
C11 C 0.8419(4) 0.4814(5) 0.8652(14)
H9 H 0.8265 0.4587 0.9202
C12 C 0.8917(5) 0.4885(5) 0.8652(15)
H10 H 0.9099 0.4705 0.9257
C13 C 0.8906(7) 0.5453(7) 0.7164(17)
H11 H 0.9078 0.5694 0.6689
C14 C 0.8411(4) 0.5426(6) 0.7020(19)
H12 H 0.8246 0.5622 0.6418
S1B S 1.26790(13) 0.73699(16) 0.9136(4)
N1B N 1.0808(3) 0.7193(4) 0.7387(13)
C1B C 1.1114(6) 0.6918(6) 0.6602(15)
H1B H 1.0978 0.6693 0.6018
S2B S 1.27458(17) 0.62622(17) 0.8227(4)
N2B N 1.0819(3) 0.5168(4) 0.7929(12)
C2B C 1.1655(4) 0.6990(6) 0.6716(13)
H2B H 1.1874 0.6795 0.6231
S3B S 1.27461(12) 0.51661(14) 0.9204(4)
N3B N 1.2599(5) 0.6552(5) 1.0410(15)
C3B C 1.1846(4) 0.7335(4) 0.7508(13)
N4B N 1.2601(6) 0.6009(6) 1.0458(14)
C4B C 1.1494(5) 0.7617(5) 0.8260(12)
H3B H 1.1608 0.7870 0.8803
C5B C 1.1013(5) 0.7512(5) 0.8164(14)
H4B H 1.0794 0.7682 0.8706
C6B C 1.2417(4) 0.7456(5) 0.7472(18)
H5B H 1.2590 0.7230 0.6893
H6B H 1.2470 0.7801 0.7191
C7B C 1.2656(4) 0.6710(5) 0.9326(12)
C8B C 1.2651(4) 0.5811(6) 0.9426(12)
C9B C 1.2438(4) 0.5038(5) 0.7764(13)
H7B H 1.2520 0.4694 0.7511
H8B H 1.2573 0.5264 0.7127
C10B C 1.1863(4) 0.5094(5) 0.7794(13)
C11B C 1.1581(4) 0.4814(5) 0.8652(14)
H9B H 1.1735 0.4587 0.9202
C12B C 1.1083(5) 0.4885(5) 0.8652(15)
H10B H 1.0901 0.4705 0.9257
C13B C 1.1094(7) 0.5453(7) 0.7164(17)
H11B H 1.0922 0.5694 0.6689
C14B C 1.1589(4) 0.5426(6) 0.7020(19)
H12B H 1.1754 0.5622 0.6418
O1 O 0.5000 0.6275(10) 0.640(3)
O2 O 0.5408(7) 0.6559(9) 0.4785(16)
Ag3 Ag 0.58223(4) 0.62866(3) 0.76203(12)
S4 S 0.6123(3) 0.8920(2) 0.5505(8)
S5 S 0.5000 0.9024(4) 0.6445(11)
N5 N 0.5953(3) 0.5475(3) 0.7626(11)
S6 S 0.61086(11) 0.35767(12) 0.5932(3)
N6 N 0.5979(4) 0.7092(4) 0.7463(12)
S7 S 0.5000 0.3603(2) 0.6908(4)
N7 N 0.5286(10) 0.8693(8) 0.443(2)
N8 N 0.5254(3) 0.3645(4) 0.4598(8)
N9 N 0.5000 0.6441(8) 0.5344(17)
C15 C 0.5444(4) 0.3621(4) 0.5723(11)
C16 C 0.6196(5) 0.3856(4) 0.7492(13)
H13 H 0.5965 0.3693 0.8077
H14 H 0.6540 0.3789 0.7775
C17 C 0.6102(3) 0.4432(4) 0.7522(11)
C18 C 0.5815(5) 0.4638(5) 0.8361(13)
H15 H 0.5646 0.4430 0.8931
C19 C 0.5747(5) 0.5172(5) 0.8448(15)
H16 H 0.5552 0.5306 0.9099
C20 C 0.6238(5) 0.5272(5) 0.6753(15)
H17 H 0.6400 0.5483 0.6178
C21 C 0.6309(5) 0.4739(4) 0.6651(12)
H18 H 0.6497 0.4604 0.5989
C22 C 0.6271(5) 0.7275(5) 0.6585(12)
H19 H 0.6418 0.7045 0.6033
C23 C 0.6379(5) 0.7770(5) 0.6403(14)
H20 H 0.6595 0.7866 0.5752
C24 C 0.6178(6) 0.8116(5) 0.7151(15)
C25 C 0.5780(9) 0.7935(6) 0.801(2)
H21 H 0.5553 0.8153 0.8408
C26 C 0.5769(7) 0.7417(8) 0.8185(19)
H22 H 0.5594 0.7295 0.8884
C27 C 0.6255(11) 0.8682(5) 0.7110(18)
H23 H 0.6602 0.8763 0.7344
H24 H 0.6028 0.8844 0.7707
C28 C 0.5447(6) 0.8857(5) 0.5387(16)
O2B O 0.4592(7) 0.6559(9) 0.4785(16)
Ag3B Ag 0.41777(4) 0.62866(3) 0.76203(12)
Ag3C Ag 0.58223(4) 0.37134(3) 0.26203(12)
Ag3A Ag 0.41777(4) 0.37134(3) 0.26203(12)
S4B S 0.3877(3) 0.8920(2) 0.5505(8)
N5B N 0.4047(3) 0.5475(3) 0.7626(11)
S6B S 0.38914(11) 0.35767(12) 0.5932(3)
N6B N 0.4021(4) 0.7092(4) 0.7463(12)
N7B N 0.4714(10) 0.8693(8) 0.443(2)
N8B N 0.4746(3) 0.3645(4) 0.4598(8)
N8C N 0.5254(3) 0.6355(4) 0.9598(8)
N8A N 0.4746(3) 0.6355(4) 0.9598(8)
C15B C 0.4556(4) 0.3621(4) 0.5723(11)
C16B C 0.3804(5) 0.3856(4) 0.7492(13)
H13B H 0.4035 0.3693 0.8077
H14B H 0.3460 0.3789 0.7775
C17B C 0.3898(3) 0.4432(4) 0.7522(11)
C18B C 0.4185(5) 0.4638(5) 0.8361(13)
H15B H 0.4354 0.4430 0.8931
C19B C 0.4253(5) 0.5172(5) 0.8448(15)
H16B H 0.4448 0.5306 0.9099
C20B C 0.3762(5) 0.5272(5) 0.6753(15)
H17B H 0.3600 0.5483 0.6178
C21B C 0.3691(5) 0.4739(4) 0.6651(12)
H18B H 0.3503 0.4604 0.5989
C22B C 0.3729(5) 0.7275(5) 0.6585(12)
H19B H 0.3582 0.7045 0.6033
C23B C 0.3621(5) 0.7770(5) 0.6403(14)
H20B H 0.3405 0.7866 0.5752
C24B C 0.3822(6) 0.8116(5) 0.7151(15)
C25B C 0.4220(9) 0.7935(6) 0.801(2)
H21B H 0.4447 0.8153 0.8408
C26B C 0.4231(7) 0.7417(8) 0.8185(19)
H22B H 0.4406 0.7295 0.8884
C27B C 0.3745(11) 0.8682(5) 0.7110(18)
H23B H 0.3398 0.8763 0.7344
H24B H 0.3972 0.8844 0.7707
C28B C 0.4553(6) 0.8857(5) 0.5387(16)
O3 O 0.7709(9) 0.6104(9) 0.512(3)
O4 O 0.7354(8) 0.6335(11) 0.361(2)
O5 O 0.6898(7) 0.6327(7) 0.5114(14)
N10 N 0.7323(5) 0.6244(5) 0.4711(12)
loop_
_geom_bond_atom_site_label_1
_geom_bond_atom_site_label_2
_geom_bond_site_symmetry_1
_geom_bond_site_symmetry_2
Ag1 N1 1_555 1_555
S1 C6 1_555 1_555
O1 Ag3 1_555 1_555
N1 C1 1_555 1_555
C1 H1 1_555 1_555
Ag2 N2 1_555 1_555
S2 C7 1_555 1_555
O2 N9 1_555 1_555
N2 C12 1_555 1_555
C2 C1 1_555 1_555
H2 C2 1_555 1_555
Ag3 N5 1_555 1_555
S3 C8 1_555 1_555
O3 N10 1_555 1_555
N3 N4 1_555 1_555
C3 C2 1_555 1_555
S4 C27 1_555 1_555
O4 N10 1_555 1_555
N4 C8 1_555 1_555
C4 C3 1_555 1_555
H3 C4 1_555 1_555
S5 C28 1_555 1_555
O5 N10 1_555 1_555
N5 C19 1_555 1_555
C5 N1 1_555 1_555
H4 C5 1_555 1_555
S6 C15 1_555 1_555
O6 Ag1 1_555 1_555
N6 Ag3 1_555 1_555
C6 C3 1_555 1_555
H5 C6 1_555 1_555
H6 C6 1_555 1_555
S7 C15 1_555 1_555
O7 N11 1_555 1_555
N7 C28 1_555 1_555
C7 S1 1_555 1_555
O8 N11 1_555 1_555
N8 C15 1_555 1_555
C8 S2 1_555 1_555
N9 O1 1_555 1_555
C9 S3 1_555 1_555
H7 C9 1_555 1_555
H8 C9 1_555 1_555
C10 C9 1_555 1_555
N11 O6 1_555 1_555
C11 C10 1_555 1_555
H9 C11 1_555 1_555
C12 C11 1_555 1_555
H10 C12 1_555 1_555
C13 N2 1_555 1_555
H11 C13 1_555 1_555
C14 C10 1_555 1_555
H12 C14 1_555 1_555
C16 S6 1_555 1_555
H13 C16 1_555 1_555
H14 C16 1_555 1_555
C17 C16 1_555 1_555
C18 C17 1_555 1_555
H15 C18 1_555 1_555
C19 C18 1_555 1_555
H16 C19 1_555 1_555
C20 N5 1_555 1_555
H17 C20 1_555 1_555
C21 C17 1_555 1_555
H18 C21 1_555 1_555
C22 N6 1_555 1_555
H19 C22 1_555 1_555
C23 C22 1_555 1_555
H20 C23 1_555 1_555
C24 C23 1_555 1_555
C25 C24 1_555 1_555
H21 C25 1_555 1_555
C26 N6 1_555 1_555
H22 C26 1_555 1_555
C27 C24 1_555 1_555
H23 C27 1_555 1_555
H24 C27 1_555 1_555
C28 S4 1_555 1_555
S1B C6B 1_555 1_555
N1B Ag1 1_555 1_555
C1B N1B 1_555 1_555
H1B C1B 1_555 1_555
S2B C7B 1_555 1_555
O2B N9 1_555 1_555
N2B Ag2 1_555 1_555
C2B C1B 1_555 1_555
H2B C2B 1_555 1_555
Ag3B O1 1_555 1_555
Ag3C N8 1_555 1_555
Ag3A N8B 1_555 1_555
S3B C8B 1_555 1_555
N3B N4B 1_555 1_555
C3B C2B 1_555 1_555
S4B C27B 1_555 1_555
N4B C8B 1_555 1_555
C4B C3B 1_555 1_555
H3B C4B 1_555 1_555
N5B Ag3B 1_555 1_555
C5B N1B 1_555 1_555
H4B C5B 1_555 1_555
S6B C15B 1_555 1_555
N6B Ag3B 1_555 1_555
C6B C3B 1_555 1_555
H5B C6B 1_555 1_555
H6B C6B 1_555 1_555
N7B N7 1_555 1_555
C7B S1B 1_555 1_555
N8B N8 1_555 1_555
N8C Ag3 1_555 1_555
N8A Ag3B 1_555 1_555
C8B S2B 1_555 1_555
C9B S3B 1_555 1_555
H7B C9B 1_555 1_555
H8B C9B 1_555 1_555
C10B C9B 1_555 1_555
C11B C10B 1_555 1_555
H9B C11B 1_555 1_555
C12B N2B 1_555 1_555
H10B C12B 1_555 1_555
C13B N2B 1_555 1_555
H11B C13B 1_555 1_555
C14B C10B 1_555 1_555
H12B C14B 1_555 1_555
C15B S7 1_555 1_555
C16B S6B 1_555 1_555
H13B C16B 1_555 1_555
H14B C16B 1_555 1_555
C17B C16B 1_555 1_555
C18B C17B 1_555 1_555
H15B C18B 1_555 1_555
C19B N5B 1_555 1_555
H16B C19B 1_555 1_555
C20B N5B 1_555 1_555
H17B C20B 1_555 1_555
C21B C17B 1_555 1_555
H18B C21B 1_555 1_555
C22B N6B 1_555 1_555
H19B C22B 1_555 1_555
C23B C22B 1_555 1_555
H20B C23B 1_555 1_555
C24B C23B 1_555 1_555
C25B C24B 1_555 1_555
H21B C25B 1_555 1_555
C26B N6B 1_555 1_555
H22B C26B 1_555 1_555
C27B C24B 1_555 1_555
H23B C27B 1_555 1_555
H24B C27B 1_555 1_555
C28B S5 1_555 1_555
N3 C7 1_555 1_555
C4 C5 1_555 1_555
C13 C14 1_555 1_555
C20 C21 1_555 1_555
C25 C26 1_555 1_555
N3B C7B 1_555 1_555
S4B C28B 1_555 1_555
C4B C5B 1_555 1_555
N7B C28B 1_555 1_555
N8B C15B 1_555 1_555
N8C N8A 1_555 1_555
C11B C12B 1_555 1_555
C13B C14B 1_555 1_555
C18B C19B 1_555 1_555
C20B C21B 1_555 1_555
C25B C26B 1_555 1_555

#END
