
#######################################################################
#
#                 Cambridge Crystallographic Data Centre
#                                CCDC 
#
#######################################################################
#
# If this CIF has been generated from an entry in the Cambridge 
# Structural Database, then it will include bibliographic, chemical, 
# crystal, experimental, refinement or atomic coordinate data resulting 
# from the CCDC's data processing and validation procedures.
#
#######################################################################

data_GALFEF
_symmetry_cell_setting           orthorhombic
_symmetry_space_group_name_H-M   'P n m a'
_symmetry_Int_Tables_number      62
_space_group_name_Hall           '-P 2ac 2n'
loop_
_symmetry_equiv_pos_site_id
_symmetry_equiv_pos_as_xyz
1 x,y,z
2 1/2-x,-y,1/2+z
3 1/2+x,1/2-y,1/2-z
4 -x,1/2+y,-z
5 -x,-y,-z
6 1/2+x,y,1/2-z
7 1/2-x,1/2+y,1/2+z
8 x,1/2-y,z
_cell_length_a                   5.5447(5)
_cell_length_b                   14.5664(15)
_cell_length_c                   22.6241(22)
_cell_angle_alpha                90
_cell_angle_beta                 90
_cell_angle_gamma                90
_cell_volume                     1827.27
loop_
_atom_site_label
_atom_site_type_symbol
_atom_site_fract_x
_atom_site_fract_y
_atom_site_fract_z
Ag1 Ag 0.0000 0.5000 0.0000
S1 S 0.8978(3) 0.55852(13) 0.19343(8)
O1 O 0.7010(12) 0.7500 0.2027(3)
N1 N 0.3009(12) 0.5160(5) 0.0591(3)
C1 C 0.3395(15) 0.4587(7) 0.1039(4)
H1 H 0.2384 0.4082 0.1080
C2 C 0.5213(14) 0.4706(6) 0.1444(4)
H2 H 0.5419 0.4284 0.1749
C3 C 0.6733(12) 0.5453(5) 0.1398(3)
C4 C 0.6364(12) 0.6052(5) 0.0920(3)
H3 H 0.7369 0.6556 0.0866
C5 C 0.4511(13) 0.5888(6) 0.0535(3)
H4 H 0.4275 0.6292 0.0222
C6 C 1.0473(12) 0.6619(5) 0.1725(3)
H5 H 1.2001 0.6653 0.1933
H6 H 1.0820 0.6594 0.1305
C7 C 0.9018(18) 0.7500 0.1856(3)
Ag1G Ag 0.0000 1.0000 0.0000
S1G S 0.8978(3) 0.94148(13) 0.19343(8)
N1G N 0.3009(12) 0.9840(5) 0.0591(3)
N1D N -0.3009(12) 0.4840(5) -0.0591(3)
C1G C 0.3395(15) 1.0413(7) 0.1039(4)
H1G H 0.2384 1.0918 0.1080
C2G C 0.5213(14) 1.0294(6) 0.1444(4)
H2G H 0.5419 1.0716 0.1749
C3G C 0.6733(12) 0.9547(5) 0.1398(3)
C4G C 0.6364(12) 0.8948(5) 0.0920(3)
H3G H 0.7369 0.8444 0.0866
C5G C 0.4511(13) 0.9112(6) 0.0535(3)
H4G H 0.4275 0.8708 0.0222
C6G C 1.0473(12) 0.8381(5) 0.1725(3)
H5G H 1.2001 0.8347 0.1933
H6G H 1.0820 0.8406 0.1305
O2 O 0.0415(19) 0.7500 0.0326(5)
O3 O 0.083(2) 0.8222(6) -0.0511(4)
N2 N 0.029(2) 0.7500 -0.0204(7)
O3G O 0.083(2) 0.6778(6) -0.0511(4)
loop_
_geom_bond_atom_site_label_1
_geom_bond_atom_site_label_2
_geom_bond_site_symmetry_1
_geom_bond_site_symmetry_2
Ag1 N1 1_555 1_555
S1 C3 1_555 1_555
O1 C7 1_555 1_555
O2 N2 1_555 1_555
O3 N2 1_555 1_555
N1 C1 1_555 1_555
N2 O3G 1_555 1_555
C1 H1 1_555 1_555
C2 C1 1_555 1_555
H2 C2 1_555 1_555
C3 C2 1_555 1_555
C4 C3 1_555 1_555
H3 C4 1_555 1_555
C5 N1 1_555 1_555
H4 C5 1_555 1_555
C6 S1 1_555 1_555
H5 C6 1_555 1_555
H6 C6 1_555 1_555
C7 C6 1_555 1_555
Ag1G N1G 1_555 1_555
S1G C3G 1_555 1_555
N1G C1G 1_555 1_555
N1D Ag1 1_555 1_555
C1G H1G 1_555 1_555
C2G C1G 1_555 1_555
H2G C2G 1_555 1_555
C3G C2G 1_555 1_555
C4G C3G 1_555 1_555
H3G C4G 1_555 1_555
C5G N1G 1_555 1_555
H4G C5G 1_555 1_555
C6G C7 1_555 1_555
H5G C6G 1_555 1_555
H6G C6G 1_555 1_555
C4 C5 1_555 1_555
S1G C6G 1_555 1_555
C4G C5G 1_555 1_555

#END
