
#######################################################################
#
#                 Cambridge Crystallographic Data Centre
#                                CCDC 
#
#######################################################################
#
# If this CIF has been generated from an entry in the Cambridge 
# Structural Database, then it will include bibliographic, chemical, 
# crystal, experimental, refinement or atomic coordinate data resulting 
# from the CCDC's data processing and validation procedures.
#
#######################################################################

data_GALHUY
_symmetry_cell_setting           orthorhombic
_symmetry_space_group_name_H-M   'F d d d'
_symmetry_Int_Tables_number      70
_space_group_name_Hall           '-F 2uv 2vw'
loop_
_symmetry_equiv_pos_site_id
_symmetry_equiv_pos_as_xyz
1 x,y,z
2 3/4-x,3/4-y,z
3 3/4-x,y,3/4-z
4 x,3/4-y,3/4-z
5 x,1/2+y,1/2+z
6 3/4-x,1/4-y,1/2+z
7 3/4-x,1/2+y,1/4-z
8 x,1/4-y,1/4-z
9 1/2+x,y,1/2+z
10 1/4-x,3/4-y,1/2+z
11 1/4-x,y,1/4-z
12 1/2+x,3/4-y,1/4-z
13 1/2+x,1/2+y,z
14 1/4-x,1/4-y,z
15 1/4-x,1/2+y,3/4-z
16 1/2+x,1/4-y,3/4-z
17 -x,-y,-z
18 1/4+x,1/4+y,-z
19 1/4+x,-y,1/4+z
20 -x,1/4+y,1/4+z
21 -x,1/2-y,1/2-z
22 1/4+x,3/4+y,1/2-z
23 1/4+x,1/2-y,3/4+z
24 -x,3/4+y,3/4+z
25 1/2-x,-y,1/2-z
26 3/4+x,1/4+y,1/2-z
27 3/4+x,-y,3/4+z
28 1/2-x,1/4+y,3/4+z
29 1/2-x,1/2-y,-z
30 3/4+x,3/4+y,-z
31 3/4+x,1/2-y,1/4+z
32 1/2-x,3/4+y,1/4+z
_cell_length_a                   23.088(3)
_cell_length_b                   39.262(5)
_cell_length_c                   41.133(5)
_cell_angle_alpha                90
_cell_angle_beta                 90
_cell_angle_gamma                90
_cell_volume                     37286.3
loop_
_atom_site_label
_atom_site_type_symbol
_atom_site_fract_x
_atom_site_fract_y
_atom_site_fract_z
In1 In 0.1250 0.490528(15) 0.1250
O1 O 0.1375(2) 0.45049(13) 0.08550(12)
O2 O 0.0508(2) 0.46450(12) 0.09992(11)
O3 O -0.1356(3) 0.27883(16) -0.08316(14)
O4 O -0.0500(3) 0.26976(14) -0.10280(13)
C1 C 0.0834(4) 0.44766(18) 0.08239(18)
C2 C 0.0609(4) 0.42398(18) 0.05759(18)
C3 C 0.0954(4) 0.4111(2) 0.0318(2)
H1 H 0.1336 0.4183 0.0298
C4 C 0.0734(4) 0.3881(2) 0.0098(2)
H2 H 0.0977 0.3787 -0.0059
C5 C 0.0147(4) 0.3787(2) 0.01054(18)
C6 C -0.0193(4) 0.39179(19) 0.0350(2)
H3 H -0.0580 0.3854 0.0361
C7 C 0.0026(4) 0.41463(19) 0.05817(17)
H4 H -0.0218 0.4236 0.0740
C8 C -0.0106(4) 0.3542(2) -0.01307(19)
C9 C -0.0644(5) 0.3463(3) -0.0139(3)
H5 H -0.0890 0.3565 0.0012
C10 C -0.0880(5) 0.3238(3) -0.0356(3)
H6 H -0.1273 0.3187 -0.0342
C11 C -0.0568(5) 0.3091(2) -0.0584(2)
C12 C 0.0007(6) 0.3147(3) -0.0567(2)
H7 H 0.0255 0.3032 -0.0708
C13 C 0.0228(5) 0.3372(3) -0.0344(2)
H8 H 0.0626 0.3409 -0.0341
C14 C -0.0821(5) 0.2843(2) -0.0835(2)
In1U In 0.3750 0.240528(15) 0.3750
In1W In -0.1250 0.240528(15) -0.1250
O1J O 0.1125(2) 0.45049(13) 0.16450(12)
O2J O 0.1992(2) 0.46450(12) 0.15008(11)
O3J O 0.3856(3) 0.27883(16) 0.33316(14)
O3Q O 0.1144(3) 0.52883(16) 0.08316(14)
O3S O 0.1356(3) 0.52883(16) 0.16684(14)
O4J O 0.3000(3) 0.26976(14) 0.35280(13)
O4Q O 0.2000(3) 0.51976(14) 0.10280(13)
O4S O 0.0500(3) 0.51976(14) 0.14720(13)
C1J C 0.1666(4) 0.44766(18) 0.16761(18)
C2J C 0.1891(4) 0.42398(18) 0.19241(18)
C3J C 0.1546(4) 0.4111(2) 0.2182(2)
H1J H 0.1164 0.4183 0.2202
C4J C 0.1766(4) 0.3881(2) 0.2402(2)
H2J H 0.1523 0.3787 0.2559
C5J C 0.2353(4) 0.3787(2) 0.23946(18)
C6J C 0.2693(4) 0.39179(19) 0.2150(2)
H3J H 0.3080 0.3854 0.2139
C7J C 0.2474(4) 0.41463(19) 0.19183(17)
H4J H 0.2718 0.4236 0.1760
C8J C 0.2606(4) 0.3542(2) 0.26307(19)
C9J C 0.3144(5) 0.3463(3) 0.2639(3)
H5J H 0.3390 0.3565 0.2488
C10J C 0.3380(5) 0.3238(3) 0.2856(3)
H6J H 0.3773 0.3187 0.2842
C11J C 0.3068(5) 0.3091(2) 0.3084(2)
C12J C 0.2493(6) 0.3147(3) 0.3067(2)
H7J H 0.2245 0.3032 0.3208
C13J C 0.2272(5) 0.3372(3) 0.2844(2)
H8J H 0.1874 0.3409 0.2841
C14J C 0.3321(5) 0.2843(2) 0.3335(2)
In2 In 0.8750 0.3750 0.139063(15)
O5 O 0.7938(2) 0.39944(14) 0.11578(12)
O6 O 0.8789(3) 0.41514(14) 0.10028(12)
O7 O 0.6931(2) 0.59520(12) -0.08641(12)
O8 O 0.6063(3) 0.58573(14) -0.06869(13)
C15 C 0.8228(5) 0.4173(2) 0.0986(2)
C16 C 0.7995(4) 0.4421(2) 0.07430(19)
C17 C 0.7411(4) 0.4437(2) 0.0697(2)
H9 H 0.7162 0.4299 0.0816
C18 C 0.7197(4) 0.4660(2) 0.0472(2)
H10 H 0.6797 0.4669 0.0446
C19 C 0.7525(4) 0.4869(2) 0.0283(2)
C20 C 0.8111(5) 0.4855(3) 0.0328(2)
H11 H 0.8352 0.4998 0.0209
C21 C 0.8357(4) 0.4620(3) 0.0559(2)
H12 H 0.8757 0.4603 0.0584
C22 C 0.7280(4) 0.5111(2) 0.00344(19)
C23 C 0.6714(4) 0.5222(2) 0.0055(2)
H13 H 0.6479 0.5146 0.0224
C24 C 0.6497(4) 0.5445(2) -0.0172(2)
H14 H 0.6115 0.5517 -0.0155
C25 C 0.6838(4) 0.5563(2) -0.04270(18)
C26 C 0.7400(4) 0.5463(2) -0.04411(19)
H15 H 0.7637 0.5545 -0.0607
C27 C 0.7626(4) 0.52407(19) -0.0210(2)
H16 H 0.8014 0.5179 -0.0221
C28 C 0.6600(5) 0.5802(2) -0.0670(2)
In2V In 1.1250 0.1250 -0.110937(15)
In2Z In 0.6250 0.6250 -0.110937(15)
O5A O 0.9562(2) 0.35056(14) 0.11578(12)
O6A O 0.8711(3) 0.33486(14) 0.10028(12)
O7A O 1.0569(2) 0.15480(12) -0.08641(12)
O7R O 0.9431(2) 0.40480(12) 0.16359(12)
O7EA O 0.8069(2) 0.34520(12) 0.16359(12)
O8A O 1.1437(3) 0.16427(14) -0.06869(13)
O8R O 0.8563(3) 0.41427(14) 0.18131(13)
O8EA O 0.8937(3) 0.33573(14) 0.18131(13)
C15A C 0.9272(5) 0.3327(2) 0.0986(2)
C16A C 0.9505(4) 0.3079(2) 0.07430(19)
C17A C 1.0089(4) 0.3063(2) 0.0697(2)
H9A H 1.0338 0.3201 0.0816
C18A C 1.0303(4) 0.2840(2) 0.0472(2)
H10A H 1.0703 0.2831 0.0446
C19A C 0.9975(4) 0.2631(2) 0.0283(2)
C20A C 0.9389(5) 0.2645(3) 0.0328(2)
H11A H 0.9148 0.2502 0.0209
C21A C 0.9143(4) 0.2880(3) 0.0559(2)
H12A H 0.8743 0.2897 0.0584
C22A C 1.0220(4) 0.2389(2) 0.00344(19)
C23A C 1.0786(4) 0.2278(2) 0.0055(2)
H13A H 1.1021 0.2354 0.0224
C24A C 1.1003(4) 0.2055(2) -0.0172(2)
H14A H 1.1385 0.1983 -0.0155
C25A C 1.0662(4) 0.1937(2) -0.04270(18)
C26A C 1.0100(4) 0.2037(2) -0.04411(19)
H15A H 0.9863 0.1955 -0.0607
C27A C 0.9874(4) 0.22593(19) -0.0210(2)
H16A H 0.9486 0.2321 -0.0221
C28A C 1.0900(5) 0.1698(2) -0.0670(2)
loop_
_geom_bond_atom_site_label_1
_geom_bond_atom_site_label_2
_geom_bond_site_symmetry_1
_geom_bond_site_symmetry_2
In1 O1 1_555 1_555
In2 O5 1_555 1_555
O1 C1 1_555 1_555
O2 In1 1_555 1_555
O3 C14 1_555 1_555
O4 C14 1_555 1_555
C1 O2 1_555 1_555
C2 C1 1_555 1_555
C3 C2 1_555 1_555
H1 C3 1_555 1_555
C4 C3 1_555 1_555
H2 C4 1_555 1_555
C5 C4 1_555 1_555
C6 C5 1_555 1_555
H3 C6 1_555 1_555
C7 C2 1_555 1_555
H4 C7 1_555 1_555
C8 C5 1_555 1_555
C9 C8 1_555 1_555
H5 C9 1_555 1_555
C10 C9 1_555 1_555
H6 C10 1_555 1_555
C11 C10 1_555 1_555
C12 C11 1_555 1_555
H7 C12 1_555 1_555
C13 C8 1_555 1_555
H8 C13 1_555 1_555
C14 C11 1_555 1_555
O5 C15 1_555 1_555
O6 In2 1_555 1_555
O7 C28 1_555 1_555
O8 C28 1_555 1_555
C15 O6 1_555 1_555
C16 C15 1_555 1_555
C17 C16 1_555 1_555
H9 C17 1_555 1_555
C18 C17 1_555 1_555
H10 C18 1_555 1_555
C19 C18 1_555 1_555
C20 C19 1_555 1_555
H11 C20 1_555 1_555
C21 C16 1_555 1_555
H12 C21 1_555 1_555
C22 C19 1_555 1_555
C23 C22 1_555 1_555
H13 C23 1_555 1_555
C24 C23 1_555 1_555
H14 C24 1_555 1_555
C25 C24 1_555 1_555
C26 C25 1_555 1_555
H15 C26 1_555 1_555
C27 C22 1_555 1_555
H16 C27 1_555 1_555
C28 C25 1_555 1_555
In1U O3J 1_555 1_555
In1W O3 1_555 1_555
In2V O7A 1_555 1_555
In2Z O7 1_555 1_555
O1J In1 1_555 1_555
O2J In1 1_555 1_555
O3J C14J 1_555 1_555
O3Q In1 1_555 1_555
O3S In1 1_555 1_555
O4J In1U 1_555 1_555
O4Q In1 1_555 1_555
O4S In1 1_555 1_555
C1J O1J 1_555 1_555
C2J C1J 1_555 1_555
C3J C2J 1_555 1_555
H1J C3J 1_555 1_555
C4J C3J 1_555 1_555
H2J C4J 1_555 1_555
C5J C4J 1_555 1_555
C6J C5J 1_555 1_555
H3J C6J 1_555 1_555
C7J C2J 1_555 1_555
H4J C7J 1_555 1_555
C8J C5J 1_555 1_555
C9J C8J 1_555 1_555
H5J C9J 1_555 1_555
C10J C9J 1_555 1_555
H6J C10J 1_555 1_555
C11J C10J 1_555 1_555
C12J C11J 1_555 1_555
H7J C12J 1_555 1_555
C13J C8J 1_555 1_555
H8J C13J 1_555 1_555
C14J O4J 1_555 1_555
O5A In2 1_555 1_555
O6A In2 1_555 1_555
O7A C28A 1_555 1_555
O7R In2 1_555 1_555
O7EA In2 1_555 1_555
O8A In2V 1_555 1_555
O8R In2 1_555 1_555
O8EA In2 1_555 1_555
C15A O5A 1_555 1_555
C16A C15A 1_555 1_555
C17A C16A 1_555 1_555
H9A C17A 1_555 1_555
C18A C17A 1_555 1_555
H10A C18A 1_555 1_555
C19A C18A 1_555 1_555
C20A C19A 1_555 1_555
H11A C20A 1_555 1_555
C21A C16A 1_555 1_555
H12A C21A 1_555 1_555
C22A C19A 1_555 1_555
C23A C22A 1_555 1_555
H13A C23A 1_555 1_555
C24A C23A 1_555 1_555
H14A C24A 1_555 1_555
C25A C24A 1_555 1_555
C26A C25A 1_555 1_555
H15A C26A 1_555 1_555
C27A C22A 1_555 1_555
H16A C27A 1_555 1_555
C28A O8A 1_555 1_555
O4 In1W 1_555 1_555
C6 C7 1_555 1_555
C12 C13 1_555 1_555
O8 In2Z 1_555 1_555
C20 C21 1_555 1_555
C26 C27 1_555 1_555
O2J C1J 1_555 1_555
C6J C7J 1_555 1_555
C11J C14J 1_555 1_555
C12J C13J 1_555 1_555
O6A C15A 1_555 1_555
C20A C21A 1_555 1_555
C25A C28A 1_555 1_555
C26A C27A 1_555 1_555

#END
