
#######################################################################
#
#                 Cambridge Crystallographic Data Centre
#                                CCDC 
#
#######################################################################
#
# If this CIF has been generated from an entry in the Cambridge 
# Structural Database, then it will include bibliographic, chemical, 
# crystal, experimental, refinement or atomic coordinate data resulting 
# from the CCDC's data processing and validation procedures.
#
#######################################################################

data_GALHEI
_symmetry_cell_setting           monoclinic
_symmetry_space_group_name_H-M   'P 21/c'
_symmetry_Int_Tables_number      14
_space_group_name_Hall           '-P 2ybc'
loop_
_symmetry_equiv_pos_site_id
_symmetry_equiv_pos_as_xyz
1 x,y,z
2 -x,1/2+y,1/2-z
3 -x,-y,-z
4 x,1/2-y,1/2+z
_cell_length_a                   13.6410(3)
_cell_length_b                   7.65426(19)
_cell_length_c                   14.7589(3)
_cell_angle_alpha                90
_cell_angle_beta                 96.6889(19)
_cell_angle_gamma                90
_cell_volume                     1530.51
loop_
_atom_site_label
_atom_site_type_symbol
_atom_site_fract_x
_atom_site_fract_y
_atom_site_fract_z
O1 O 0.02366(16) 0.5088(3) 0.14166(14)
O2 O -0.01261(14) 0.2339(3) 0.00546(15)
C1 C -0.4630(2) 0.5395(4) 0.0261(2)
H6 H -0.0672(16) 0.185(4) -0.002(2)
H7 H -0.002(2) 0.450(4) 0.1800(18)
H9 H 0.0310(19) 0.188(4) 0.042(2)
H12 H 0.035(3) 0.604(3) 0.169(2)
H14 H -0.476(3) 0.616(5) 0.067(3)
Ni1 Ni 0.0000 0.5000 0.0000
N2 N -0.15444(16) 0.5250(3) 0.00187(16)
C9 C -0.31970(19) 0.4384(4) -0.05377(19)
H16 H -0.3611 0.3760 -0.0967
C10 C -0.35881(19) 0.5310(3) 0.0138(2)
C11 C -0.21840(19) 0.4388(4) -0.05759(18)
H17 H -0.1938 0.3758 -0.1039
C12 C -0.1931(2) 0.6165(4) 0.06573(19)
H18 H -0.1504 0.6797 0.1072
C13 C -0.2914(2) 0.6231(4) 0.07401(18)
H19 H -0.3138 0.6896 0.1202
O1B O -0.02366(16) 0.4912(3) -0.14166(14)
O2B O 0.01261(14) 0.7661(3) -0.00546(15)
C1B C -0.5370(2) 0.4605(4) -0.0261(2)
H6B H 0.0672(16) 0.815(4) 0.002(2)
H7B H 0.002(2) 0.550(4) -0.1800(18)
H9B H -0.0310(19) 0.812(4) -0.042(2)
H12B H -0.035(3) 0.396(3) -0.169(2)
H14B H -0.524(3) 0.384(5) -0.067(3)
Ni1_2 Ni -1.0000 0.5000 0.0000
N2B N -0.84556(16) 0.4750(3) -0.00187(16)
N2B_2 N 0.15444(16) 0.4750(3) -0.00187(16)
C9B C -0.68030(19) 0.5616(4) 0.05377(19)
H16B H -0.6389 0.6240 0.0967
C10B C -0.64119(19) 0.4690(3) -0.0138(2)
C11B C -0.78160(19) 0.5612(4) 0.05759(18)
H17B H -0.8062 0.6242 0.1039
C12B C -0.8069(2) 0.3835(4) -0.06573(19)
H18B H -0.8496 0.3203 -0.1072
C13B C -0.7086(2) 0.3769(4) -0.07401(18)
H19B H -0.6862 0.3104 -0.1202
O3 O 0.2336(2) -0.1119(3) -0.16046(17)
H8 H 0.230(3) -0.085(6) -0.1051(14)
H11 H 0.244(3) -0.007(3) -0.176(3)
O4 O -0.07753(19) 0.3075(3) 0.25669(16)
H10 H -0.092(3) 0.386(5) 0.294(3)
H13 H -0.131(2) 0.277(5) 0.226(2)
C2 C 0.29912(19) 0.1015(3) 0.12041(16)
C3 C 0.40715(19) 0.2860(3) 0.22164(18)
H1 H 0.4152 0.3687 0.2680
C4 C 0.48976(18) 0.2224(3) 0.18440(17)
C5 C 0.3821(2) 0.0400(3) 0.08383(18)
H2 H 0.3741 -0.0423 0.0372
C6 C 0.4761(2) 0.0976(4) 0.11478(17)
H3 H 0.5302 0.0535 0.0893
N1 N 0.5822(2) 0.2813(5) 0.2160(2)
H4 H 0.589(3) 0.370(5) 0.246(2)
H5 H 0.624(3) 0.258(6) 0.195(3)
O5 O 0.23639(14) 0.2956(3) 0.22866(13)
H15 H 0.1848 0.2515 0.2051
O6 O 0.12791(13) 0.0858(3) 0.13056(13)
O7 O 0.18666(15) -0.0539(3) 0.01605(14)
C7 C 0.31387(19) 0.2271(3) 0.19020(17)
C8 C 0.1986(2) 0.0398(3) 0.08518(18)
loop_
_geom_bond_atom_site_label_1
_geom_bond_atom_site_label_2
_geom_bond_site_symmetry_1
_geom_bond_site_symmetry_2
O1 H7 1_555 1_555
O2 H6 1_555 1_555
C1 H14 1_555 1_555
O3 H8 1_555 1_555
O4 H10 1_555 1_555
C2 C5 1_555 1_555
C3 H1 1_555 1_555
C4 C3 1_555 1_555
C5 H2 1_555 1_555
C6 C4 1_555 1_555
H3 C6 1_555 1_555
N1 C4 1_555 1_555
H4 N1 1_555 1_555
H5 N1 1_555 1_555
H9 O2 1_555 1_555
H11 O3 1_555 1_555
H12 O1 1_555 1_555
H13 O4 1_555 1_555
Ni1 O1 1_555 1_555
O5 H15 1_555 1_555
O6 C8 1_555 1_555
O7 C8 1_555 1_555
N2 Ni1 1_555 1_555
C7 C2 1_555 1_555
C8 C2 1_555 1_555
C9 H16 1_555 1_555
C10 C1 1_555 1_555
C11 N2 1_555 1_555
H17 C11 1_555 1_555
C12 N2 1_555 1_555
H18 C12 1_555 1_555
C13 C10 1_555 1_555
H19 C13 1_555 1_555
O1B Ni1 1_555 1_555
O2B Ni1 1_555 1_555
C1B C1 1_555 1_555
H6B O2B 1_555 1_555
H7B O1B 1_555 1_555
H9B O2B 1_555 1_555
H12B O1B 1_555 1_555
H14B C1B 1_555 1_555
Ni1_2 N2B 1_555 1_555
N2B C11B 1_555 1_555
N2B_2 Ni1 1_555 1_555
C9B H16B 1_555 1_555
C10B C1B 1_555 1_555
C11B C9B 1_555 1_555
H17B C11B 1_555 1_555
C12B N2B 1_555 1_555
H18B C12B 1_555 1_555
C13B C10B 1_555 1_555
H19B C13B 1_555 1_555
O2 Ni1 1_555 1_555
C3 C7 1_555 1_555
C5 C6 1_555 1_555
O5 C7 1_555 1_555
C9 C10 1_555 1_555
C9 C11 1_555 1_555
C12 C13 1_555 1_555
C9B C10B 1_555 1_555
C12B C13B 1_555 1_555

#END
