
#######################################################################
#
#                 Cambridge Crystallographic Data Centre
#                                CCDC 
#
#######################################################################
#
# If this CIF has been generated from an entry in the Cambridge 
# Structural Database, then it will include bibliographic, chemical, 
# crystal, experimental, refinement or atomic coordinate data resulting 
# from the CCDC's data processing and validation procedures.
#
#######################################################################

data_GALLAG
_symmetry_cell_setting           triclinic
_symmetry_space_group_name_H-M   'P -1'
_symmetry_Int_Tables_number      2
_space_group_name_Hall           '-P 1'
loop_
_symmetry_equiv_pos_site_id
_symmetry_equiv_pos_as_xyz
1 x,y,z
2 -x,-y,-z
_cell_length_a                   8.244(1)
_cell_length_b                   9.440(1)
_cell_length_c                   15.992(2)
_cell_angle_alpha                96.00(1)
_cell_angle_beta                 99.04(1)
_cell_angle_gamma                100.92(1)
_cell_volume                     1195.21
loop_
_atom_site_label
_atom_site_type_symbol
_atom_site_fract_x
_atom_site_fract_y
_atom_site_fract_z
Cu1 Cu 0.5012(1) 0.2515(1) 0.2514(1)
N1 N 0.7447(3) 0.3054(3) 0.3095(2)
C1 C 0.8377(4) 0.4365(4) 0.3375(2)
N2 N 0.9925(3) 0.4284(3) 0.3732(2)
C2 C 0.9997(5) 0.2860(5) 0.3687(3)
C3 C 0.8457(5) 0.2094(4) 0.3289(2)
C4 C 1.1300(5) 0.5541(5) 0.4109(3)
N3 N 0.5687(3) 0.2909(3) 0.1391(2)
C5 C 0.6531(4) 0.4122(4) 0.1207(2)
N4 N 0.6684(4) 0.3992(3) 0.0379(2)
C6 C 0.5887(5) 0.2609(4) 0.0017(2)
C7 C 0.5267(5) 0.1953(4) 0.0645(2)
C8 C 0.7545(5) 0.5130(5) -0.0057(3)
N5 N 0.2585(3) 0.1974(3) 0.1928(2)
C9 C 0.1661(4) 0.0665(4) 0.1640(2)
N6 N 0.0106(3) 0.0750(3) 0.1282(2)
C10 C 0.0043(5) 0.2187(5) 0.1342(3)
C11 C 0.1577(5) 0.2939(4) 0.1745(2)
C12 C -0.1278(5) -0.0489(5) 0.0897(3)
N7 N 0.4339(3) 0.2077(3) 0.3632(2)
C13 C 0.3469(4) 0.0862(4) 0.3795(2)
N8 N 0.3281(4) 0.0959(3) 0.4616(2)
C14 C 0.4085(5) 0.2336(4) 0.4997(2)
C15 C 0.4736(5) 0.3011(4) 0.4385(2)
C16 C 0.2392(6) -0.0195(5) 0.5028(3)
H1 H 0.7992 0.5257 0.3329
H2 H 1.0951 0.2468 0.3896
H3 H 0.8131 0.1052 0.3164
H4 H 0.6981 0.4989 0.1609
H5 H 0.5787 0.2188 -0.0567
H6 H 0.4631 0.0973 0.0580
H7 H 0.2048 -0.0227 0.1682
H8 H -0.0906 0.2589 0.1138
H9 H 0.1905 0.3979 0.1880
H10 H 0.3022 0.0009 0.3380
H11 H 0.4168 0.2738 0.5583
H12 H 0.5376 0.3992 0.4465
Cu2 Cu 0.3580(1) 0.7247(1) 0.2335(1)
Cl1 Cl 0.5230(1) 0.9368(1) 0.2180(1)
Cl2 Cl 0.0804(1) 0.6796(1) 0.1928(1)
Cl3 Cl 0.4898(1) 0.5587(1) 0.2887(1)
O1 O 0.8897(5) 0.8295(4) 0.3240(3)
loop_
_geom_bond_atom_site_label_1
_geom_bond_atom_site_label_2
_geom_bond_site_symmetry_1
_geom_bond_site_symmetry_2
Cu1 N1 1_555 1_555
N1 C1 1_555 1_555
C1 N2 1_555 1_555
N2 C2 1_555 1_555
C2 C3 1_555 1_555
C3 N1 1_555 1_555
C4 N2 1_555 1_555
N3 Cu1 1_555 1_555
C5 N3 1_555 1_555
N4 C5 1_555 1_555
C6 N4 1_555 1_555
C7 N3 1_555 1_555
C8 N4 1_555 1_555
N5 Cu1 1_555 1_555
C9 N5 1_555 1_555
N6 C9 1_555 1_555
C10 N6 1_555 1_555
C11 N5 1_555 1_555
C12 N6 1_555 1_555
N7 Cu1 1_555 1_555
C13 N7 1_555 1_555
N8 C13 1_555 1_555
C14 N8 1_555 1_555
C15 N7 1_555 1_555
C16 N8 1_555 1_555
Cu2 Cl1 1_555 1_555
Cl2 Cu2 1_555 1_555
Cl3 Cu2 1_555 1_555
H1 C1 1_555 1_555
H2 C2 1_555 1_555
H3 C3 1_555 1_555
H4 C5 1_555 1_555
H5 C6 1_555 1_555
H6 C7 1_555 1_555
H7 C9 1_555 1_555
H8 C10 1_555 1_555
H9 C11 1_555 1_555
H10 C13 1_555 1_555
H11 C14 1_555 1_555
H12 C15 1_555 1_555
C6 C7 1_555 1_555
C10 C11 1_555 1_555
C14 C15 1_555 1_555

#END
