
#######################################################################
#
#                 Cambridge Crystallographic Data Centre
#                                CCDC 
#
#######################################################################
#
# If this CIF has been generated from an entry in the Cambridge 
# Structural Database, then it will include bibliographic, chemical, 
# crystal, experimental, refinement or atomic coordinate data resulting 
# from the CCDC's data processing and validation procedures.
#
#######################################################################

data_GALLUC02
_symmetry_cell_setting           monoclinic
_symmetry_space_group_name_H-M   'P 21/c'
_symmetry_Int_Tables_number      14
_space_group_name_Hall           '-P 2ybc'
loop_
_symmetry_equiv_pos_site_id
_symmetry_equiv_pos_as_xyz
1 x,y,z
2 -x,1/2+y,1/2-z
3 -x,-y,-z
4 x,1/2-y,1/2+z
_cell_length_a                   8.3136(19)
_cell_length_b                   14.719(4)
_cell_length_c                   11.526(3)
_cell_angle_alpha                90
_cell_angle_beta                 90.807(5)
_cell_angle_gamma                90
_cell_volume                     1410.27
loop_
_atom_site_label
_atom_site_type_symbol
_atom_site_fract_x
_atom_site_fract_y
_atom_site_fract_z
C1 C -0.2323(18) 0.3683(10) -0.2149(12)
H1 H -0.2282 0.4141 -0.2704
C2 C -0.1404(16) 0.3774(9) -0.1159(11)
H2 H -0.0731 0.4274 -0.1068
C3 C -0.1475(14) 0.3130(8) -0.0301(10)
C4 C -0.2446(15) 0.2357(8) -0.0536(11)
H3 H -0.2485 0.1879 -0.0009
C5 C -0.3334(16) 0.2324(9) -0.1558(12)
H4 H -0.4004 0.1828 -0.1693
C6 C -0.0567(16) 0.3192(8) 0.0808(10)
C7 C -0.0041(14) 0.3759(8) 0.2538(10)
C8 C 0.0730(14) 0.2944(7) 0.2394(10)
C9 C -0.0357(14) 0.4366(7) 0.3550(10)
C10 C 0.1808(12) 0.2386(7) 0.3150(10)
C11 C 0.5270(15) -0.0028(7) 0.0643(9)
Tb1 Tb 0.22247(7) 0.13243(3) 0.06694(4)
N1 N 0.0384(11) 0.2593(6) 0.1293(8)
N2 N -0.0877(11) 0.3904(6) 0.1519(8)
H5 H -0.1484 0.4361 0.1360
N3 N -0.3266(13) 0.2973(8) -0.2354(9)
O1 O 0.2294(10) 0.1658(5) 0.2685(6)
O2 O 0.2199(9) 0.2626(5) 0.4146(7)
O3 O 0.0090(10) 0.4106(5) 0.4533(7)
O4 O -0.1128(11) 0.5073(5) 0.3317(7)
O5 O 0.4427(10) 0.2334(5) 0.0957(7)
H6 H 0.4189 0.2894 0.0895
H7 H 0.5131 0.2194 0.1469
O6 O 0.6462(10) -0.0524(5) 0.0876(6)
O7 O 0.4459(10) 0.0420(5) 0.1359(6)
C1B C 1.2323(18) -0.3683(10) 0.2149(12)
H1B H 1.2282 -0.4141 0.2704
C2B C 1.1404(16) -0.3774(9) 0.1159(11)
H2B H 1.0731 -0.4274 0.1068
C3B C 1.1475(14) -0.3130(8) 0.0301(10)
C4B C 1.2446(15) -0.2357(8) 0.0536(11)
H3B H 1.2485 -0.1879 0.0009
C5B C 1.3334(16) -0.2324(9) 0.1558(12)
H4B H 1.4004 -0.1828 0.1693
C6B C 1.0567(16) -0.3192(8) -0.0808(10)
C7B C 1.0041(14) -0.3759(8) -0.2538(10)
C8B C 0.9270(14) -0.2944(7) -0.2394(10)
C9B C 1.0357(14) -0.4366(7) -0.3550(10)
C10B C 0.8192(12) -0.2386(7) -0.3150(10)
C11B C 0.4730(15) 0.0028(7) -0.0643(9)
Tb1B Tb 0.77753(7) -0.13243(3) -0.06694(4)
Tb1A Tb -0.22247(7) 0.63243(3) 0.43306(4)
Tb1A_2 Tb 0.77753(7) -0.36757(3) -0.56694(4)
Tb1C Tb 0.22247(7) 0.36757(3) 0.56694(4)
Tb1C_2 Tb 1.22247(7) -0.63243(3) -0.43306(4)
N1B N 0.9616(11) -0.2593(6) -0.1293(8)
N2B N 1.0877(11) -0.3904(6) -0.1519(8)
H5B H 1.1484 -0.4361 -0.1360
N3B N 1.3266(13) -0.2973(8) 0.2354(9)
O1B O 0.7706(10) -0.1658(5) -0.2685(6)
O2B O 0.7801(9) -0.2626(5) -0.4146(7)
O2A O 0.7801(9) -0.2374(5) 0.0854(7)
O2C O 0.2199(9) 0.2374(5) -0.0854(7)
O3B O 0.9910(10) -0.4106(5) -0.4533(7)
O3A O 0.9910(10) -0.0894(5) 0.0467(7)
O3C O 0.0090(10) 0.0894(5) -0.0467(7)
O4B O 1.1128(11) -0.5073(5) -0.3317(7)
O4A O 0.1128(11) 0.0073(5) 0.1683(7)
O4C O 0.8872(11) -0.0073(5) -0.1683(7)
O5B O 0.5573(10) -0.2334(5) -0.0957(7)
H6B H 0.5811 -0.2894 -0.0895
H7B H 0.4869 -0.2194 -0.1469
O6B O 0.3538(10) 0.0524(5) -0.0876(6)
O7B O 0.5541(10) -0.0420(5) -0.1359(6)
O8 O 0.6895(10) 0.5263(5) 0.0856(7)
H8 H 0.7243 0.5661 0.1330
H9 H 0.6730 0.5438 0.0162
O9 O 0.4163(12) 0.4239(6) 0.1444(8)
H10 H 0.4994 0.4547 0.1278
H11 H 0.3779 0.4296 0.2120
loop_
_geom_bond_atom_site_label_1
_geom_bond_atom_site_label_2
_geom_bond_site_symmetry_1
_geom_bond_site_symmetry_2
C1 H1 1_555 1_555
C2 C1 1_555 1_555
H2 C2 1_555 1_555
C3 C2 1_555 1_555
C4 C3 1_555 1_555
H3 C4 1_555 1_555
C5 C4 1_555 1_555
H4 C5 1_555 1_555
C6 C3 1_555 1_555
C7 C8 1_555 1_555
C8 C10 1_555 1_555
C9 C7 1_555 1_555
C10 O1 1_555 1_555
C11 O6 1_555 1_555
Tb1 N1 1_555 1_555
N1 C6 1_555 1_555
N2 C6 1_555 1_555
H5 N2 1_555 1_555
N3 C1 1_555 1_555
O1 Tb1 1_555 1_555
O2 C10 1_555 1_555
O3 C9 1_555 1_555
O4 C9 1_555 1_555
O5 Tb1 1_555 1_555
H6 O5 1_555 1_555
H7 O5 1_555 1_555
O6 Tb1B 1_555 1_555
O7 C11 1_555 1_555
O8 H8 1_555 1_555
H9 O8 1_555 1_555
O9 H10 1_555 1_555
H11 O9 1_555 1_555
C1B H1B 1_555 1_555
C2B C1B 1_555 1_555
H2B C2B 1_555 1_555
C3B C2B 1_555 1_555
C4B C3B 1_555 1_555
H3B C4B 1_555 1_555
C5B C4B 1_555 1_555
H4B C5B 1_555 1_555
C6B C3B 1_555 1_555
C7B C8B 1_555 1_555
C8B C10B 1_555 1_555
C9B C7B 1_555 1_555
C10B O1B 1_555 1_555
C11B C11 1_555 1_555
Tb1B N1B 1_555 1_555
Tb1A O4 1_555 1_555
Tb1A_2 O2B 1_555 1_555
Tb1C O2 1_555 1_555
Tb1C_2 O4B 1_555 1_555
N1B C6B 1_555 1_555
N2B C6B 1_555 1_555
H5B N2B 1_555 1_555
N3B C1B 1_555 1_555
O1B Tb1B 1_555 1_555
O2B C10B 1_555 1_555
O2A Tb1B 1_555 1_555
O2C Tb1 1_555 1_555
O3B C9B 1_555 1_555
O3A Tb1B 1_555 1_555
O3C Tb1 1_555 1_555
O4B C9B 1_555 1_555
O4A Tb1 1_555 1_555
O4C Tb1B 1_555 1_555
O5B Tb1B 1_555 1_555
H6B O5B 1_555 1_555
H7B O5B 1_555 1_555
O6B Tb1 1_555 1_555
O7B C11B 1_555 1_555
C5 N3 1_555 1_555
C7 N2 1_555 1_555
C8 N1 1_555 1_555
Tb1 O7 1_555 1_555
O3 Tb1C 1_555 1_555
C5B N3B 1_555 1_555
C7B N2B 1_555 1_555
C8B N1B 1_555 1_555
C11B O6B 1_555 1_555
Tb1B O7B 1_555 1_555
Tb1A_2 O3B 1_555 1_555

#END
