
#######################################################################
#
#                 Cambridge Crystallographic Data Centre
#                                CCDC 
#
#######################################################################
#
# If this CIF has been generated from an entry in the Cambridge 
# Structural Database, then it will include bibliographic, chemical, 
# crystal, experimental, refinement or atomic coordinate data resulting 
# from the CCDC's data processing and validation procedures.
#
#######################################################################

data_GALLOW01
_symmetry_cell_setting           monoclinic
_symmetry_space_group_name_H-M   'P 21/c'
_symmetry_Int_Tables_number      14
_space_group_name_Hall           '-P 2ybc'
loop_
_symmetry_equiv_pos_site_id
_symmetry_equiv_pos_as_xyz
1 x,y,z
2 -x,1/2+y,1/2-z
3 -x,-y,-z
4 x,1/2-y,1/2+z
_cell_length_a                   8.2862(17)
_cell_length_b                   14.865(3)
_cell_length_c                   11.559(2)
_cell_angle_alpha                90
_cell_angle_beta                 90.870(3)
_cell_angle_gamma                90
_cell_volume                     1423.61
loop_
_atom_site_label
_atom_site_type_symbol
_atom_site_fract_x
_atom_site_fract_y
_atom_site_fract_z
C1 C -0.2370(10) 0.3672(5) -0.2151(6)
H1 H -0.2348 0.4124 -0.2707
C2 C -0.1440(9) 0.3776(5) -0.1148(6)
H2 H -0.0793 0.4282 -0.1046
C3 C -0.1489(8) 0.3121(5) -0.0310(5)
C4 C -0.2442(9) 0.2377(5) -0.0511(6)
H3 H -0.2487 0.1915 0.0030
C5 C -0.3332(9) 0.2329(5) -0.1532(7)
H4 H -0.3995 0.1833 -0.1653
C6 C -0.0622(8) 0.3205(5) 0.0810(6)
C7 C -0.0078(8) 0.3754(4) 0.2538(5)
C8 C 0.0709(8) 0.2944(4) 0.2385(5)
C9 C -0.0360(8) 0.4349(5) 0.3536(6)
C10 C 0.1786(7) 0.2389(4) 0.3152(5)
C11 C 0.5252(8) -0.0019(5) 0.0627(6)
Eu1 Eu 0.21980(4) 0.13185(2) 0.06767(3)
N1 N 0.0356(6) 0.2603(4) 0.1304(4)
N2 N -0.0888(7) 0.3909(4) 0.1518(4)
H5 H -0.1466 0.4374 0.1356
N3 N -0.3285(8) 0.2958(5) -0.2347(5)
O1 O 0.2252(5) 0.1664(3) 0.2702(4)
O2 O 0.2174(6) 0.2644(3) 0.4140(4)
O3 O 0.0043(6) 0.4103(3) 0.4527(4)
O4 O -0.1076(7) 0.5078(3) 0.3294(4)
O5 O 0.4398(6) 0.2352(3) 0.0980(4)
H6 H 0.4162 0.2906 0.0918
H7 H 0.5097 0.2213 0.1488
O6 O 0.6456(6) -0.0514(4) 0.0872(4)
O7 O 0.4478(7) 0.0425(4) 0.1338(4)
C1B C 1.2370(10) -0.3672(5) 0.2151(6)
H1B H 1.2348 -0.4124 0.2707
C2B C 1.1440(9) -0.3776(5) 0.1148(6)
H2B H 1.0793 -0.4282 0.1046
C3B C 1.1489(8) -0.3121(5) 0.0310(5)
C4B C 1.2442(9) -0.2377(5) 0.0511(6)
H3B H 1.2487 -0.1915 -0.0030
C5B C 1.3332(9) -0.2329(5) 0.1532(7)
H4B H 1.3995 -0.1833 0.1653
C6B C 1.0622(8) -0.3205(5) -0.0810(6)
C7B C 1.0078(8) -0.3754(4) -0.2538(5)
C8B C 0.9291(8) -0.2944(4) -0.2385(5)
C9B C 1.0360(8) -0.4349(5) -0.3536(6)
C10B C 0.8214(7) -0.2389(4) -0.3152(5)
C11B C 0.4748(8) 0.0019(5) -0.0627(6)
Eu1B Eu 0.78020(4) -0.13185(2) -0.06767(3)
Eu1A Eu -0.21980(4) 0.63185(2) 0.43233(3)
Eu1A_2 Eu 0.78020(4) -0.36815(2) -0.56767(3)
Eu1C Eu 0.21980(4) 0.36815(2) 0.56767(3)
Eu1C_2 Eu 1.21980(4) -0.63185(2) -0.43233(3)
N1B N 0.9644(6) -0.2603(4) -0.1304(4)
N2B N 1.0888(7) -0.3909(4) -0.1518(4)
H5B H 1.1466 -0.4374 -0.1356
N3B N 1.3285(8) -0.2958(5) 0.2347(5)
O1B O 0.7748(5) -0.1664(3) -0.2702(4)
O2B O 0.7826(6) -0.2644(3) -0.4140(4)
O2A O 0.7826(6) -0.2356(3) 0.0860(4)
O2C O 0.2174(6) 0.2356(3) -0.0860(4)
O3B O 0.9957(6) -0.4103(3) -0.4527(4)
O3A O 0.9957(6) -0.0897(3) 0.0473(4)
O3C O 0.0043(6) 0.0897(3) -0.0473(4)
O4B O 1.1076(7) -0.5078(3) -0.3294(4)
O4A O 0.1076(7) 0.0078(3) 0.1706(4)
O4C O 0.8924(7) -0.0078(3) -0.1706(4)
O5B O 0.5602(6) -0.2352(3) -0.0980(4)
H6B H 0.5838 -0.2906 -0.0918
H7B H 0.4903 -0.2213 -0.1488
O6B O 0.3544(6) 0.0514(4) -0.0872(4)
O7B O 0.5522(7) -0.0425(4) -0.1338(4)
O8 O 0.6943(7) 0.5273(3) 0.0846(4)
H8 H 0.7288 0.5668 0.1316
H9 H 0.6779 0.5448 0.0155
O9 O 0.4201(8) 0.4246(4) 0.1448(5)
H10 H 0.5029 0.4553 0.1282
H11 H 0.3821 0.4302 0.2118
loop_
_geom_bond_atom_site_label_1
_geom_bond_atom_site_label_2
_geom_bond_site_symmetry_1
_geom_bond_site_symmetry_2
C1 H1 1_555 1_555
C2 C1 1_555 1_555
H2 C2 1_555 1_555
C3 C2 1_555 1_555
C4 C3 1_555 1_555
H3 C4 1_555 1_555
C5 C4 1_555 1_555
H4 C5 1_555 1_555
C6 C3 1_555 1_555
C7 C8 1_555 1_555
C8 C10 1_555 1_555
C9 C7 1_555 1_555
C10 O1 1_555 1_555
C11 O6 1_555 1_555
Eu1 N1 1_555 1_555
N1 C6 1_555 1_555
N2 C6 1_555 1_555
H5 N2 1_555 1_555
N3 C1 1_555 1_555
O1 Eu1 1_555 1_555
O2 C10 1_555 1_555
O3 C9 1_555 1_555
O4 C9 1_555 1_555
O5 Eu1 1_555 1_555
H6 O5 1_555 1_555
H7 O5 1_555 1_555
O6 Eu1B 1_555 1_555
O7 C11 1_555 1_555
O8 H8 1_555 1_555
H9 O8 1_555 1_555
O9 H10 1_555 1_555
H11 O9 1_555 1_555
C1B H1B 1_555 1_555
C2B C1B 1_555 1_555
H2B C2B 1_555 1_555
C3B C2B 1_555 1_555
C4B C3B 1_555 1_555
H3B C4B 1_555 1_555
C5B C4B 1_555 1_555
H4B C5B 1_555 1_555
C6B C3B 1_555 1_555
C7B C8B 1_555 1_555
C8B C10B 1_555 1_555
C9B C7B 1_555 1_555
C10B O1B 1_555 1_555
C11B C11 1_555 1_555
Eu1B N1B 1_555 1_555
Eu1A O4 1_555 1_555
Eu1A_2 O2B 1_555 1_555
Eu1C O2 1_555 1_555
Eu1C_2 O4B 1_555 1_555
N1B C6B 1_555 1_555
N2B C6B 1_555 1_555
H5B N2B 1_555 1_555
N3B C1B 1_555 1_555
O1B Eu1B 1_555 1_555
O2B C10B 1_555 1_555
O2A Eu1B 1_555 1_555
O2C Eu1 1_555 1_555
O3B C9B 1_555 1_555
O3A Eu1B 1_555 1_555
O3C Eu1 1_555 1_555
O4B C9B 1_555 1_555
O4A Eu1 1_555 1_555
O4C Eu1B 1_555 1_555
O5B Eu1B 1_555 1_555
H6B O5B 1_555 1_555
H7B O5B 1_555 1_555
O6B Eu1 1_555 1_555
O7B C11B 1_555 1_555
C5 N3 1_555 1_555
C7 N2 1_555 1_555
C8 N1 1_555 1_555
Eu1 O7 1_555 1_555
O3 Eu1C 1_555 1_555
C5B N3B 1_555 1_555
C7B N2B 1_555 1_555
C8B N1B 1_555 1_555
C11B O6B 1_555 1_555
Eu1B O7B 1_555 1_555
Eu1A_2 O3B 1_555 1_555

#END
