
#######################################################################
#
#                 Cambridge Crystallographic Data Centre
#                                CCDC 
#
#######################################################################
#
# If this CIF has been generated from an entry in the Cambridge 
# Structural Database, then it will include bibliographic, chemical, 
# crystal, experimental, refinement or atomic coordinate data resulting 
# from the CCDC's data processing and validation procedures.
#
#######################################################################

data_GALTUJ
_symmetry_cell_setting           monoclinic
_symmetry_space_group_name_H-M   'C c'
_symmetry_Int_Tables_number      9
_space_group_name_Hall           'C -2yc'
loop_
_symmetry_equiv_pos_site_id
_symmetry_equiv_pos_as_xyz
1 x,y,z
2 x,-y,1/2+z
3 1/2+x,1/2+y,z
4 1/2+x,1/2-y,1/2+z
_cell_length_a                   13.3720(18)
_cell_length_b                   10.296(2)
_cell_length_c                   9.080(3)
_cell_angle_alpha                90.00
_cell_angle_beta                 97.673(18)
_cell_angle_gamma                90.00
_cell_volume                     1238.92
loop_
_atom_site_label
_atom_site_type_symbol
_atom_site_fract_x
_atom_site_fract_y
_atom_site_fract_z
Co1 Co -0.4801(6) 0.15166(6) 0.0957(7)
C1 C -0.3911(10) 0.3696(19) -0.0710(16)
H1 H -0.4521 0.4030 -0.1168
C2 C -0.2879(12) 0.4096(15) -0.0998(11)
H2 H -0.2645 0.4345 -0.1875
C3 C -0.2901(9) 0.3116(13) 0.1054(10)
H3 H -0.2657 0.2758 0.1972
C4 C -0.5835(11) 0.3448(13) 0.3009(13)
H4 H -0.5487 0.3209 0.3924
C5 C -0.6511(19) 0.447(2) 0.263(2)
H5 H -0.6493 0.5302 0.3031
C6 C -0.6688(6) 0.3174(12) 0.0914(8)
H6 H -0.6938 0.2823 -0.0006
C7 C -0.5306(11) 0.0401(13) -0.1876(13)
C8 C -0.4337(11) -0.0323(11) -0.1156(14)
O1 O -0.3952(8) -0.0008(10) 0.0130(11)
O2 O -0.5608(9) 0.0004(11) -0.3155(11)
O3 O -0.5626(10) 0.1222(10) -0.1170(12)
O4 O -0.3944(10) -0.1224(10) -0.1938(13)
N1 N -0.5838(13) 0.2888(15) 0.1590(17)
N2 N -0.7178(12) 0.3980(10) 0.1585(18)
H7 H -0.7809 0.4167 0.1398
N3 N -0.3795(12) 0.2797(13) 0.0296(14)
N4 N -0.2396(12) 0.3990(14) 0.0378(16)
H8 H -0.1864 0.4405 0.0751
Co1A Co -0.4801(6) -0.15166(6) -0.4043(7)
O2A O -0.5608(9) -0.0004(11) 0.1845(11)
O4A O -0.3944(10) 0.1224(10) 0.3062(13)
loop_
_geom_bond_atom_site_label_1
_geom_bond_atom_site_label_2
_geom_bond_site_symmetry_1
_geom_bond_site_symmetry_2
Co1 O1 1_555 1_555
C1 H1 1_555 1_555
C2 C1 1_555 1_555
H2 C2 1_555 1_555
C3 H3 1_555 1_555
C4 H4 1_555 1_555
C5 C4 1_555 1_555
H5 C5 1_555 1_555
C6 H6 1_555 1_555
C7 C8 1_555 1_555
C8 O1 1_555 1_555
O2 C7 1_555 1_555
O3 Co1 1_555 1_555
O4 C8 1_555 1_555
N1 Co1 1_555 1_555
N2 C5 1_555 1_555
H7 N2 1_555 1_555
N3 Co1 1_555 1_555
N4 C2 1_555 1_555
H8 N4 1_555 1_555
Co1A O2 1_555 1_555
O2A Co1 1_555 1_555
O4A Co1 1_555 1_555
C1 N3 1_555 1_555
C3 N3 1_555 1_555
C3 N4 1_555 1_555
C4 N1 1_555 1_555
C6 N1 1_555 1_555
C6 N2 1_555 1_555
C7 O3 1_555 1_555
O4 Co1A 1_555 1_555

#END
