
#######################################################################
#
#                 Cambridge Crystallographic Data Centre
#                                CCDC 
#
#######################################################################
#
# If this CIF has been generated from an entry in the Cambridge 
# Structural Database, then it will include bibliographic, chemical, 
# crystal, experimental, refinement or atomic coordinate data resulting 
# from the CCDC's data processing and validation procedures.
#
#######################################################################

data_GALVEV
_symmetry_cell_setting           orthorhombic
_symmetry_space_group_name_H-M   'P b c a'
_symmetry_Int_Tables_number      61
_space_group_name_Hall           '-P 2ac 2ab'
loop_
_symmetry_equiv_pos_site_id
_symmetry_equiv_pos_as_xyz
1 x,y,z
2 1/2-x,-y,1/2+z
3 -x,1/2+y,1/2-z
4 1/2+x,1/2-y,-z
5 -x,-y,-z
6 1/2+x,y,1/2-z
7 x,1/2-y,1/2+z
8 1/2-x,1/2+y,z
_cell_length_a                   14.6893(19)
_cell_length_b                   13.8818(19)
_cell_length_c                   18.173(2)
_cell_angle_alpha                90
_cell_angle_beta                 90
_cell_angle_gamma                90
_cell_volume                     3705.73
loop_
_atom_site_label
_atom_site_type_symbol
_atom_site_fract_x
_atom_site_fract_y
_atom_site_fract_z
Sn1 Sn -0.26561(4) 0.08442(5) 0.35038(4)
S1 S -0.33166(17) -0.0129(2) 0.51326(14)
N1 N -0.3481(4) 0.1644(5) 0.2547(4)
O1 O -0.4127(4) 0.0513(5) 0.3601(4)
O2 O -0.5433(5) 0.0283(5) 0.3004(4)
O3 O -0.6503(4) 0.1712(5) 0.2129(4)
O4 O -0.6008(4) 0.0729(5) 0.1268(4)
O5 O -0.2649(4) -0.0203(5) 0.4489(3)
C1 C -0.3144(6) 0.2302(7) 0.2084(5)
H1 H -0.2549 0.2516 0.2145
C2 C -0.3658(6) 0.2666(8) 0.1524(5)
H2 H -0.3418 0.3129 0.1208
C3 C -0.4530(6) 0.2342(7) 0.1431(5)
H3 H -0.4878 0.2582 0.1045
C4 C -0.4909(6) 0.1653(7) 0.1910(5)
C5 C -0.4349(5) 0.1344(7) 0.2479(5)
C6 C -0.4683(7) 0.0641(7) 0.3061(5)
C7 C -0.5869(6) 0.1332(8) 0.1786(6)
C8 C -0.2734(6) 0.2032(8) 0.4227(6)
H4 H -0.2600 0.2613 0.3963
H5 H -0.3336 0.2071 0.4430
H6 H -0.2301 0.1951 0.4618
C9 C -0.2444(6) -0.0371(7) 0.2836(6)
H7 H -0.2413 -0.0937 0.3139
H8 H -0.2938 -0.0434 0.2495
H9 H -0.1883 -0.0299 0.2571
C10 C -0.2745(8) -0.0742(10) 0.5854(6)
H10 H -0.2171 -0.0435 0.5947
H11 H -0.3111 -0.0722 0.6292
H12 H -0.2644 -0.1400 0.5714
C11 C -0.4164(7) -0.1032(8) 0.4972(6)
H13 H -0.3873 -0.1633 0.4858
H14 H -0.4532 -0.1107 0.5405
H15 H -0.4542 -0.0840 0.4566
Sn1E Sn -0.76561(4) 0.08442(5) 0.14962(4)
O3E O -0.1503(4) 0.1712(5) 0.2871(4)
O4E O -0.1008(4) 0.0729(5) 0.3732(4)
S2 S -0.4213(2) 0.9001(3) 0.1053(2)
O6 O -0.3413(5) 0.8362(7) 0.0884(5)
C12 C -0.5083(7) 0.8795(9) 0.0385(6)
C13 C -0.4767(8) 0.8525(10) 0.1858(5)
S3? S -0.4402(8) 0.8070(12) 0.1002(7)
loop_
_geom_bond_atom_site_label_1
_geom_bond_atom_site_label_2
_geom_bond_site_symmetry_1
_geom_bond_site_symmetry_2
Sn1 N1 1_555 1_555
S1 O5 1_555 1_555
N1 C1 1_555 1_555
O1 Sn1 1_555 1_555
O2 C6 1_555 1_555
O3 C7 1_555 1_555
O4 C7 1_555 1_555
O5 Sn1 1_555 1_555
C1 H1 1_555 1_555
C2 C1 1_555 1_555
H2 C2 1_555 1_555
C3 C2 1_555 1_555
H3 C3 1_555 1_555
C4 C3 1_555 1_555
C5 N1 1_555 1_555
C6 O1 1_555 1_555
C7 C4 1_555 1_555
C8 Sn1 1_555 1_555
H4 C8 1_555 1_555
H5 C8 1_555 1_555
H6 C8 1_555 1_555
C9 Sn1 1_555 1_555
H7 C9 1_555 1_555
H8 C9 1_555 1_555
H9 C9 1_555 1_555
C10 S1 1_555 1_555
H10 C10 1_555 1_555
H11 C10 1_555 1_555
H12 C10 1_555 1_555
C11 S1 1_555 1_555
H13 C11 1_555 1_555
H14 C11 1_555 1_555
H15 C11 1_555 1_555
S2 O6 1_555 1_555
C12 S2 1_555 1_555
C13 S2 1_555 1_555
Sn1E O3 1_555 1_555
O3E Sn1 1_555 1_555
O4E Sn1 1_555 1_555
O4 Sn1E 1_555 1_555
C4 C5 1_555 1_555
C5 C6 1_555 1_555

#END
