
#######################################################################
#
#                 Cambridge Crystallographic Data Centre
#                                CCDC 
#
#######################################################################
#
# If this CIF has been generated from an entry in the Cambridge 
# Structural Database, then it will include bibliographic, chemical, 
# crystal, experimental, refinement or atomic coordinate data resulting 
# from the CCDC's data processing and validation procedures.
#
#######################################################################

data_GALXIC
_symmetry_cell_setting           monoclinic
_symmetry_space_group_name_H-M   'C 2/c'
_symmetry_Int_Tables_number      15
_space_group_name_Hall           '-C 2yn'
loop_
_symmetry_equiv_pos_site_id
_symmetry_equiv_pos_as_xyz
1 x,y,z
2 -x,y,1/2-z
3 1/2+x,1/2+y,z
4 1/2-x,1/2+y,1/2-z
5 -x,-y,-z
6 x,-y,1/2+z
7 1/2-x,1/2-y,-z
8 1/2+x,1/2-y,1/2+z
_cell_length_a                   31.746(5)
_cell_length_b                   8.750(5)
_cell_length_c                   16.279(5)
_cell_angle_alpha                90
_cell_angle_beta                 91.348(5)
_cell_angle_gamma                90
_cell_volume                     4520.69
loop_
_atom_site_label
_atom_site_type_symbol
_atom_site_fract_x
_atom_site_fract_y
_atom_site_fract_z
Co1 Co 0.870113(17) 0.33692(7) 0.16107(4)
O1 O 0.89400(13) 0.5494(5) 0.1470(3)
O2 O 0.84877(17) 0.5228(8) 0.0508(3)
O3 O 0.85404(12) 1.1359(4) 0.1017(2)
O4 O 0.91419(12) 1.2224(4) 0.0610(2)
N1 N 0.91371(11) 0.2905(4) 0.2548(2)
N2 N 0.81656(11) 0.3642(4) 0.2256(2)
N3 N 0.96906(11) 0.3428(4) 0.3370(2)
N4 N 0.77497(12) 0.3935(5) 0.3328(2)
C1 C 0.93735(14) 0.3978(6) 0.2888(2)
H1 H 0.9327 0.5017 0.2805
C2 C 0.93088(13) 0.1551(5) 0.2841(2)
C3 C 0.91945(17) 0.0053(6) 0.2691(3)
H2 H 0.8961 -0.0181 0.2358
C4 C 0.9432(2) -0.1067(7) 0.3043(4)
H3 H 0.9360 -0.2082 0.2943
C5 C 0.9780(2) -0.0746(7) 0.3548(4)
H4 H 0.9933 -0.1550 0.3779
C6 C 0.99021(16) 0.0713(6) 0.3714(3)
H5 H 1.0136 0.0930 0.4048
C7 C 0.96588(14) 0.1860(5) 0.3358(2)
C8 C 0.99827(14) 0.4373(6) 0.3864(3)
H6 H 0.9990 0.5396 0.3635
H7 H 1.0264 0.3947 0.3838
C9 C 0.98539(14) 0.4458(6) 0.4753(3)
H8 H 0.9866 0.3445 0.4995
H9 H 0.9566 0.4820 0.4779
C10 C 0.75391(15) 0.2473(6) 0.4538(2)
H10 H 0.7776 0.1805 0.4438
H11 H 0.7294 0.2043 0.4257
C11 C 0.76276(16) 0.4020(6) 0.4188(3)
H12 H 0.7378 0.4653 0.4228
H13 H 0.7852 0.4501 0.4509
C12 C 0.81470(14) 0.3887(6) 0.3048(3)
H14 H 0.8385 0.4016 0.3385
C13 C 0.74857(14) 0.3677(6) 0.2652(3)
C14 C 0.70549(17) 0.3556(8) 0.2579(3)
H15 H 0.6883 0.3641 0.3032
C15 C 0.68912(18) 0.3301(10) 0.1800(4)
H16 H 0.6600 0.3246 0.1720
C16 C 0.71476(19) 0.3127(8) 0.1134(3)
H17 H 0.7025 0.2928 0.0621
C17 C 0.75788(16) 0.3237(6) 0.1206(3)
H18 H 0.7749 0.3136 0.0753
C18 C 0.77477(13) 0.3506(5) 0.1986(3)
C19 C 0.8760(2) 0.6025(8) 0.0887(6)
C20 C 0.8907(2) 0.7708(9) 0.0743(4)
H19 H 0.8865 0.8281 0.1245
H20 H 0.9207 0.7698 0.0642
C21 C 0.8705(3) 0.8479(8) 0.0100(5)
H21 H 0.8408 0.8580 0.0221
H22 H 0.8725 0.7872 -0.0396
C22 C 0.8880(2) 1.0012(6) -0.0054(3)
H23 H 0.8745 1.0387 -0.0556
H24 H 0.9175 0.9873 -0.0172
C23 C 0.88563(15) 1.1268(5) 0.0564(3)
Co1_2 Co 0.870113(17) -0.66308(7) 0.16107(4)
Co1_3 Co 0.870113(17) 1.33692(7) 0.16107(4)
Co1D Co 1.129887(17) 0.66308(7) 0.83893(4)
Co1F Co 0.629887(17) 0.16308(7) 0.83893(4)
O1_2 O 0.89400(13) -0.4506(5) 0.1470(3)
O2_2 O 0.84877(17) -0.4772(8) 0.0508(3)
O3_2 O 0.85404(12) 0.1359(4) 0.1017(2)
O3_3 O 0.85404(12) -0.8641(4) 0.1017(2)
O4_2 O 0.91419(12) 0.2224(4) 0.0610(2)
O4_3 O 0.91419(12) -0.7776(4) 0.0610(2)
N1D N 1.08629(11) 0.7095(4) 0.7452(2)
N1_2 N 0.91371(11) -0.7095(4) 0.2548(2)
N2F N 0.68344(11) 0.1358(4) 0.7744(2)
N2_2 N 0.81656(11) -0.6358(4) 0.2256(2)
N3D N 1.03094(11) 0.6572(4) 0.6630(2)
N4F N 0.72503(12) 0.1065(5) 0.6672(2)
C1D C 1.06265(14) 0.6022(6) 0.7112(2)
H1D H 1.0673 0.4983 0.7195
C2D C 1.06912(13) 0.8449(5) 0.7159(2)
C3D C 1.08055(17) 0.9947(6) 0.7309(3)
H2D H 1.1039 1.0181 0.7642
C4D C 1.0568(2) 1.1067(7) 0.6957(4)
H3D H 1.0640 1.2082 0.7057
C5D C 1.0220(2) 1.0746(7) 0.6452(4)
H4D H 1.0067 1.1550 0.6221
C6D C 1.00979(16) 0.9287(6) 0.6286(3)
H5D H 0.9864 0.9070 0.5952
C7D C 1.03412(14) 0.8140(5) 0.6642(2)
C8D C 1.00173(14) 0.5627(6) 0.6136(3)
H6D H 1.0010 0.4604 0.6365
H7D H 0.9736 0.6053 0.6162
C9D C 1.01461(14) 0.5542(6) 0.5247(3)
H8D H 1.0134 0.6555 0.5005
H9D H 1.0434 0.5180 0.5221
C10F C 0.74609(15) 0.2527(6) 0.5462(2)
H10F H 0.7224 0.3195 0.5562
H11F H 0.7706 0.2957 0.5743
C11F C 0.73724(16) 0.0980(6) 0.5812(3)
H12F H 0.7622 0.0347 0.5772
H13F H 0.7148 0.0499 0.5491
C12F C 0.68530(14) 0.1113(6) 0.6952(3)
H14F H 0.6615 0.0984 0.6615
C13F C 0.75143(14) 0.1323(6) 0.7348(3)
C14F C 0.79451(17) 0.1444(8) 0.7421(3)
H15F H 0.8117 0.1359 0.6968
C15F C 0.81088(18) 0.1699(10) 0.8200(4)
H16F H 0.8400 0.1754 0.8280
C16F C 0.78524(19) 0.1873(8) 0.8866(3)
H17F H 0.7975 0.2072 0.9379
C17F C 0.74212(16) 0.1763(6) 0.8794(3)
H18F H 0.7251 0.1864 0.9247
C18F C 0.72523(13) 0.1494(5) 0.8014(3)
C19_2 C 0.8760(2) -0.3975(8) 0.0887(6)
C20_2 C 0.8907(2) -0.2292(9) 0.0743(4)
H19_2 H 0.8865 -0.1719 0.1245
H20_2 H 0.9207 -0.2302 0.0642
C21_2 C 0.8705(3) -0.1521(8) 0.0100(5)
H21_2 H 0.8408 -0.1420 0.0221
H22_2 H 0.8725 -0.2128 -0.0396
C22_2 C 0.8880(2) 0.0012(6) -0.0054(3)
H23_2 H 0.8745 0.0387 -0.0556
H24_2 H 0.9175 -0.0127 -0.0172
C23_2 C 0.88563(15) 0.1268(5) 0.0564(3)
O5 O 0.88791(19) 0.4040(7) -0.0855(3)
H25 H 0.9066 0.3515 -0.0602
H26 H 0.8683 0.3411 -0.0978
loop_
_geom_bond_atom_site_label_1
_geom_bond_atom_site_label_2
_geom_bond_site_symmetry_1
_geom_bond_site_symmetry_2
Co1 O1 1_555 1_555
O1 C19 1_555 1_555
O2 C19 1_555 1_555
O3 C23 1_555 1_555
O4 C23 1_555 1_555
N1 Co1 1_555 1_555
N2 Co1 1_555 1_555
N3 C1 1_555 1_555
N4 C11 1_555 1_555
C1 N1 1_555 1_555
H1 C1 1_555 1_555
C2 N1 1_555 1_555
C3 C2 1_555 1_555
H2 C3 1_555 1_555
C4 C3 1_555 1_555
H3 C4 1_555 1_555
C5 C4 1_555 1_555
H4 C5 1_555 1_555
C6 C5 1_555 1_555
H5 C6 1_555 1_555
C7 N3 1_555 1_555
C8 N3 1_555 1_555
H6 C8 1_555 1_555
H7 C8 1_555 1_555
C9 C8 1_555 1_555
H8 C9 1_555 1_555
H9 C9 1_555 1_555
C10 H10 1_555 1_555
H11 C10 1_555 1_555
C11 C10 1_555 1_555
H12 C11 1_555 1_555
H13 C11 1_555 1_555
C12 N2 1_555 1_555
H14 C12 1_555 1_555
C13 N4 1_555 1_555
C14 C13 1_555 1_555
H15 C14 1_555 1_555
C15 C14 1_555 1_555
H16 C15 1_555 1_555
C16 C15 1_555 1_555
H17 C16 1_555 1_555
C17 C16 1_555 1_555
H18 C17 1_555 1_555
C18 N2 1_555 1_555
C19 C20 1_555 1_555
C20 H19 1_555 1_555
H20 C20 1_555 1_555
C21 C20 1_555 1_555
H21 C21 1_555 1_555
H22 C21 1_555 1_555
C22 C21 1_555 1_555
H23 C22 1_555 1_555
H24 C22 1_555 1_555
C23 C22 1_555 1_555
O5 H25 1_555 1_555
H26 O5 1_555 1_555
Co1_2 O1_2 1_555 1_555
Co1_3 O3 1_555 1_555
Co1D N1D 1_555 1_555
Co1F N2F 1_555 1_555
O1_2 C19_2 1_555 1_555
O2_2 C19_2 1_555 1_555
O3_2 Co1 1_555 1_555
O3_3 Co1_2 1_555 1_555
O4_2 Co1 1_555 1_555
O4_3 Co1_2 1_555 1_555
N1D C1D 1_555 1_555
N1_2 Co1_2 1_555 1_555
N2F C12F 1_555 1_555
N2_2 Co1_2 1_555 1_555
N3D C1D 1_555 1_555
N4F C11F 1_555 1_555
C1D H1D 1_555 1_555
C2D N1D 1_555 1_555
C3D C2D 1_555 1_555
H2D C3D 1_555 1_555
C4D C3D 1_555 1_555
H3D C4D 1_555 1_555
C5D C4D 1_555 1_555
H4D C5D 1_555 1_555
C6D C5D 1_555 1_555
H5D C6D 1_555 1_555
C7D N3D 1_555 1_555
C8D N3D 1_555 1_555
H6D C8D 1_555 1_555
H7D C8D 1_555 1_555
C9D C9 1_555 1_555
H8D C9D 1_555 1_555
H9D C9D 1_555 1_555
C10F C10 1_555 1_555
H10F C10F 1_555 1_555
H11F C10F 1_555 1_555
C11F C10F 1_555 1_555
H12F C11F 1_555 1_555
H13F C11F 1_555 1_555
C12F N4F 1_555 1_555
H14F C12F 1_555 1_555
C13F N4F 1_555 1_555
C14F C13F 1_555 1_555
H15F C14F 1_555 1_555
C15F C14F 1_555 1_555
H16F C15F 1_555 1_555
C16F C15F 1_555 1_555
H17F C16F 1_555 1_555
C17F C16F 1_555 1_555
H18F C17F 1_555 1_555
C18F N2F 1_555 1_555
C19_2 C20_2 1_555 1_555
C20_2 H19_2 1_555 1_555
H20_2 C20_2 1_555 1_555
C21_2 C20_2 1_555 1_555
H21_2 C21_2 1_555 1_555
H22_2 C21_2 1_555 1_555
C22_2 C21_2 1_555 1_555
H23_2 C22_2 1_555 1_555
H24_2 C22_2 1_555 1_555
C23_2 O3_2 1_555 1_555
O4 Co1_3 1_555 1_555
N4 C12 1_555 1_555
C2 C7 1_555 1_555
C6 C7 1_555 1_555
C13 C18 1_555 1_555
C17 C18 1_555 1_555
O4_2 C23_2 1_555 1_555
C2D C7D 1_555 1_555
C6D C7D 1_555 1_555
C8D C9D 1_555 1_555
C13F C18F 1_555 1_555
C17F C18F 1_555 1_555
C22_2 C23_2 1_555 1_555

#END
