
#######################################################################
#
#                 Cambridge Crystallographic Data Centre
#                                CCDC 
#
#######################################################################
#
# If this CIF has been generated from an entry in the Cambridge 
# Structural Database, then it will include bibliographic, chemical, 
# crystal, experimental, refinement or atomic coordinate data resulting 
# from the CCDC's data processing and validation procedures.
#
#######################################################################

data_GALXUO
_symmetry_cell_setting           monoclinic
_symmetry_space_group_name_H-M   'P 21/n'
_symmetry_Int_Tables_number      14
_space_group_name_Hall           '-P 2yn'
loop_
_symmetry_equiv_pos_site_id
_symmetry_equiv_pos_as_xyz
1 x,y,z
2 1/2-x,1/2+y,1/2-z
3 -x,-y,-z
4 1/2+x,1/2-y,1/2+z
_cell_length_a                   7.2124(2)
_cell_length_b                   7.9270(2)
_cell_length_c                   13.8959(4)
_cell_angle_alpha                90
_cell_angle_beta                 94.1500(10)
_cell_angle_gamma                90
_cell_volume                     792.383
loop_
_atom_site_label
_atom_site_type_symbol
_atom_site_fract_x
_atom_site_fract_y
_atom_site_fract_z
W1 W 0.0000 0.5000 0.0000
Ag1 Ag 0.57081(4) 1.26779(4) -0.01174(2)
Cu1 Cu 0.0000 1.0000 0.0000
O1 O 0.2648(4) 1.0569(4) 0.02345(19)
O2 O 0.4592(4) 1.1865(4) 0.1326(2)
C1 C 0.3085(5) 1.1193(5) 0.1070(3)
F1 F 0.0691(4) 0.7227(3) 0.0331(2)
N1 N -0.0043(4) 1.0502(4) 0.1398(2)
C2 C -0.1466(5) 1.0456(6) 0.1953(3)
O3 O 0.2495(4) 0.4424(4) -0.0032(2)
F2 F 0.0066(4) 0.4442(4) 0.13273(19)
N2 N 0.0382(5) 1.1640(5) 0.3281(2)
C3 C 0.1807(5) 1.1662(5) 0.2714(3)
C4 C -0.1246(6) 1.1040(6) 0.2899(3)
C5 C 0.1593(5) 1.1101(4) 0.1766(2)
H1 H 0.298(10) 1.200(9) 0.299(5)
H2 H -0.223(10) 1.100(9) 0.330(5)
H3 H -0.262(10) 1.009(8) 0.169(5)
Ag1B Ag -0.57081(4) 0.73221(4) 0.01174(2)
Ag1C Ag 0.07081(4) 1.23221(4) 0.48826(2)
Ag1A Ag -0.07081(4) 0.76779(4) -0.48826(2)
Cu1_2 Cu 0.0000 0.0000 0.0000
O1B O -0.2648(4) 0.9431(4) -0.02345(19)
O2B O -0.4592(4) 0.8135(4) -0.1326(2)
C1B C -0.3085(5) 0.8807(5) -0.1070(3)
F1B F -0.0691(4) 0.2773(3) -0.0331(2)
F1B_2 F -0.0691(4) 1.2773(3) -0.0331(2)
N1B N 0.0043(4) 0.9498(4) -0.1398(2)
C2B C 0.1466(5) 0.9544(6) -0.1953(3)
O3B O -0.2495(4) 0.5576(4) 0.0032(2)
F2B F -0.0066(4) 0.5558(4) -0.13273(19)
N2B N -0.0382(5) 0.8360(5) -0.3281(2)
N2C N 0.5382(5) 1.3360(5) -0.1719(2)
N2A N -0.5382(5) 0.6640(5) 0.1719(2)
C3B C -0.1807(5) 0.8338(5) -0.2714(3)
C4B C 0.1246(6) 0.8960(6) -0.2899(3)
C5B C -0.1593(5) 0.8899(4) -0.1766(2)
H1B H -0.298(10) 0.800(9) -0.299(5)
H2B H 0.223(10) 0.900(9) -0.330(5)
H3B H 0.262(10) 0.991(8) -0.169(5)
loop_
_geom_bond_atom_site_label_1
_geom_bond_atom_site_label_2
_geom_bond_site_symmetry_1
_geom_bond_site_symmetry_2
W1 F1 1_555 1_555
Ag1 O2 1_555 1_555
Cu1 O1 1_555 1_555
O1 C1 1_555 1_555
O2 C1 1_555 1_555
C1 C5 1_555 1_555
F1 Cu1 1_555 1_555
N1 Cu1 1_555 1_555
C2 N1 1_555 1_555
O3 W1 1_555 1_555
F2 W1 1_555 1_555
N2 C3 1_555 1_555
C3 C5 1_555 1_555
C4 C2 1_555 1_555
C5 N1 1_555 1_555
H1 C3 1_555 1_555
H2 C4 1_555 1_555
H3 C2 1_555 1_555
Ag1B O2B 1_555 1_555
Ag1C N2 1_555 1_555
Ag1A N2B 1_555 1_555
Cu1_2 F1B 1_555 1_555
O1B Cu1 1_555 1_555
O2B C1B 1_555 1_555
C1B O1B 1_555 1_555
F1B W1 1_555 1_555
F1B_2 Cu1 1_555 1_555
N1B Cu1 1_555 1_555
C2B N1B 1_555 1_555
O3B W1 1_555 1_555
F2B W1 1_555 1_555
N2B C3B 1_555 1_555
N2C Ag1 1_555 1_555
N2A Ag1B 1_555 1_555
C3B C5B 1_555 1_555
C4B C2B 1_555 1_555
C5B C1B 1_555 1_555
H1B C3B 1_555 1_555
H2B C4B 1_555 1_555
H3B C2B 1_555 1_555
N2 C4 1_555 1_555
N1B C5B 1_555 1_555
N2B C4B 1_555 1_555

#END
