
#######################################################################
#
#                 Cambridge Crystallographic Data Centre
#                                CCDC 
#
#######################################################################
#
# If this CIF has been generated from an entry in the Cambridge 
# Structural Database, then it will include bibliographic, chemical, 
# crystal, experimental, refinement or atomic coordinate data resulting 
# from the CCDC's data processing and validation procedures.
#
#######################################################################

data_GALXEY
_symmetry_cell_setting           orthorhombic
_symmetry_space_group_name_H-M   'P b c a'
_symmetry_Int_Tables_number      61
_space_group_name_Hall           '-P 2ac 2ab'
loop_
_symmetry_equiv_pos_site_id
_symmetry_equiv_pos_as_xyz
1 x,y,z
2 1/2-x,-y,1/2+z
3 1/2+x,1/2-y,-z
4 -x,1/2+y,1/2-z
5 -x,-y,-z
6 1/2+x,y,1/2-z
7 1/2-x,1/2+y,z
8 x,1/2-y,1/2+z
_cell_length_a                   11.324(5)
_cell_length_b                   20.242(5)
_cell_length_c                   27.061(5)
_cell_angle_alpha                90
_cell_angle_beta                 90
_cell_angle_gamma                90
_cell_volume                     6202.93
loop_
_atom_site_label
_atom_site_type_symbol
_atom_site_fract_x
_atom_site_fract_y
_atom_site_fract_z
Ni1 Ni 0.84775(5) 0.16095(3) 0.79649(2)
O1 O 0.7812(3) 0.15672(15) 0.72621(12)
O2 O 0.9542(3) 0.20340(18) 0.73424(11)
O3 O 0.9554(3) 0.1513(2) 0.85738(14)
O4 O 0.9543(3) 0.0720(2) 0.80285(14)
N1 N 0.7051(3) 0.11511(19) 0.82780(13)
N2 N 0.2181(3) -0.2480(2) 0.69237(15)
N3 N 0.5368(3) 0.05868(18) 0.82773(15)
N4 N 0.3375(4) -0.1626(2) 0.70555(19)
C1 C 0.6665(4) 0.1100(2) 0.87571(16)
C2 C 0.7126(5) 0.1338(3) 0.91885(18)
H1 H 0.7846 0.1559 0.9196
C3 C 0.6471(6) 0.1234(4) 0.9618(2)
H2 H 0.6746 0.1410 0.9913
C4 C 0.5432(8) 0.0880(3) 0.9622(2)
H3 H 0.5047 0.0808 0.9921
C5 C 0.4960(5) 0.0636(3) 0.9201(2)
H4 H 0.4250 0.0405 0.9199
C6 C 0.5603(4) 0.0751(2) 0.87670(17)
C7 C 0.6257(4) 0.0840(3) 0.80072(17)
H5 H 0.6308 0.0799 0.7666
C8 C 0.4389(5) 0.0205(3) 0.8082(2)
H6 H 0.4003 0.0454 0.7821
H7 H 0.3816 0.0128 0.8342
C9 C 0.4800(7) -0.0433(4) 0.7884(3)
H8 H 0.5123 -0.0694 0.8152
H9 H 0.5428 -0.0353 0.7648
C10 C 0.3848(6) -0.0812(5) 0.7640(4)
H10 H 0.3391 -0.1046 0.7888
H11 H 0.3322 -0.0510 0.7469
C11 C 0.4337(6) -0.1286(3) 0.7286(3)
H12 H 0.4803 -0.1057 0.7039
H13 H 0.4844 -0.1599 0.7456
C12 C 0.2649(5) -0.1449(3) 0.6670(2)
C13 C 0.2625(8) -0.0880(4) 0.6406(3)
H14 H 0.3133 -0.0530 0.6472
C14 C 0.1816(11) -0.0856(5) 0.6043(4)
H15 H 0.1754 -0.0475 0.5854
C15 C 0.1078(10) -0.1377(6) 0.5944(3)
H16 H 0.0557 -0.1340 0.5680
C16 C 0.1070(6) -0.1959(4) 0.6219(2)
H17 H 0.0548 -0.2304 0.6159
C17 C 0.1913(5) -0.1977(3) 0.6592(2)
C18 C 0.3058(5) -0.2249(3) 0.7193(2)
H18 H 0.3419 -0.2483 0.7447
C19 C 0.8429(6) 0.2495(4) 0.5580(2)
H19 H 0.8360 0.2626 0.5252
C20 C 0.7475(6) 0.2200(4) 0.5809(2)
H20 H 0.6784 0.2121 0.5633
C21 C 0.7553(5) 0.2026(4) 0.6292(2)
H21 H 0.6897 0.1849 0.6451
C22 C 0.8583(4) 0.2108(2) 0.65492(17)
C23 C 0.9539(4) 0.2395(2) 0.63168(17)
H22 H 1.0238 0.2454 0.6492
C24 C 0.9479(5) 0.2601(3) 0.58235(18)
C25 C 1.0511(6) 0.2919(3) 0.5570(2)
H23 H 1.0303 0.3021 0.5234
H24 H 1.1171 0.2622 0.5573
H25 H 1.0718 0.3319 0.5740
C26 C 0.8673(4) 0.1898(3) 0.70820(17)
C27 C 0.9865(4) 0.0923(4) 0.8430(3)
C28 C 1.0583(3) 0.0501(3) 0.87735(17)
C29 C 1.1075(4) -0.0086(3) 0.86039(16)
H26 H 1.0978 -0.0211 0.8276
C30 C 1.1713(4) -0.0486(3) 0.8925(2)
H27 H 1.2042 -0.0879 0.8811
C31 C 1.1857(4) -0.0300(3) 0.9416(2)
H28 H 1.2284 -0.0568 0.9630
C32 C 1.1365(5) 0.0287(4) 0.95851(15)
C33 C 1.0727(4) 0.0687(3) 0.92641(19)
H29 H 1.0398 0.1080 0.9378
C34 C 1.1585(12) 0.0358(8) 1.0028(5)
H30 H 1.2053 -0.0006 1.0142
H31 H 1.0859 0.0375 1.0211
H32 H 1.2013 0.0763 1.0076
Ni1C Ni 0.15225(5) -0.33905(3) 0.70351(2)
N2C N 0.7819(3) 0.2520(2) 0.80763(15)
loop_
_geom_bond_atom_site_label_1
_geom_bond_atom_site_label_2
_geom_bond_site_symmetry_1
_geom_bond_site_symmetry_2
Ni1 O1 1_555 1_555
O1 C26 1_555 1_555
O2 Ni1 1_555 1_555
O3 Ni1 1_555 1_555
O4 Ni1 1_555 1_555
N1 Ni1 1_555 1_555
N2 C17 1_555 1_555
N3 C6 1_555 1_555
N4 C11 1_555 1_555
C1 N1 1_555 1_555
C2 C1 1_555 1_555
H1 C2 1_555 1_555
C3 C2 1_555 1_555
H2 C3 1_555 1_555
C4 C3 1_555 1_555
H3 C4 1_555 1_555
C5 C4 1_555 1_555
H4 C5 1_555 1_555
C6 C1 1_555 1_555
C7 N1 1_555 1_555
H5 C7 1_555 1_555
C8 N3 1_555 1_555
H6 C8 1_555 1_555
H7 C8 1_555 1_555
C9 C8 1_555 1_555
H8 C9 1_555 1_555
H9 C9 1_555 1_555
C10 C9 1_555 1_555
H10 C10 1_555 1_555
H11 C10 1_555 1_555
C11 C10 1_555 1_555
H12 C11 1_555 1_555
H13 C11 1_555 1_555
C12 N4 1_555 1_555
C13 C12 1_555 1_555
H14 C13 1_555 1_555
C14 C13 1_555 1_555
H15 C14 1_555 1_555
C15 C14 1_555 1_555
H16 C15 1_555 1_555
C16 C15 1_555 1_555
H17 C16 1_555 1_555
C17 C12 1_555 1_555
C18 N2 1_555 1_555
H18 C18 1_555 1_555
C19 H19 1_555 1_555
C20 C19 1_555 1_555
H20 C20 1_555 1_555
C21 C20 1_555 1_555
H21 C21 1_555 1_555
C22 C21 1_555 1_555
C23 C22 1_555 1_555
H22 C23 1_555 1_555
C24 C19 1_555 1_555
C25 C24 1_555 1_555
H23 C25 1_555 1_555
H24 C25 1_555 1_555
H25 C25 1_555 1_555
C26 O2 1_555 1_555
C27 O3 1_555 1_555
C28 C27 1_555 1_555
C29 C28 1_555 1_555
H26 C29 1_555 1_555
C30 C29 1_555 1_555
H27 C30 1_555 1_555
C31 C30 1_555 1_555
H28 C31 1_555 1_555
C32 C31 1_555 1_555
C33 C28 1_555 1_555
H29 C33 1_555 1_555
C34 C32 1_555 1_555
H30 C34 1_555 1_555
H31 C34 1_555 1_555
H32 C34 1_555 1_555
Ni1C N2 1_555 1_555
N2C Ni1 1_555 1_555
O4 C27 1_555 1_555
N3 C7 1_555 1_555
N4 C18 1_555 1_555
C5 C6 1_555 1_555
C16 C17 1_555 1_555
C22 C26 1_555 1_555
C23 C24 1_555 1_555
C32 C33 1_555 1_555

#END
