
#######################################################################
#
#                 Cambridge Crystallographic Data Centre
#                                CCDC 
#
#######################################################################
#
# If this CIF has been generated from an entry in the Cambridge 
# Structural Database, then it will include bibliographic, chemical, 
# crystal, experimental, refinement or atomic coordinate data resulting 
# from the CCDC's data processing and validation procedures.
#
#######################################################################

data_GAMLEL
_symmetry_cell_setting           monoclinic
_symmetry_space_group_name_H-M   'P 21/n'
_symmetry_Int_Tables_number      14
_space_group_name_Hall           '-P 2yn'
loop_
_symmetry_equiv_pos_site_id
_symmetry_equiv_pos_as_xyz
1 x,y,z
2 1/2-x,1/2+y,1/2-z
3 -x,-y,-z
4 1/2+x,1/2-y,1/2+z
_cell_length_a                   10.336(2)
_cell_length_b                   17.924(2)
_cell_length_c                   11.543(2)
_cell_angle_alpha                90
_cell_angle_beta                 111.9(3)
_cell_angle_gamma                90
_cell_volume                     1984.16
loop_
_atom_site_label
_atom_site_type_symbol
_atom_site_fract_x
_atom_site_fract_y
_atom_site_fract_z
Mn1 Mn -0.0540(3) 0.5406(3) -0.2690(3)
O9 O -0.015(1) 0.4395(6) -0.373(1)
O10 O -0.196(1) 0.5714(8) -0.174(1)
O11 O -0.113(1) 0.5060(7) 0.097(1)
O12 O 0.066(1) 0.3769(7) -0.589(1)
C1 C -0.036(2) 0.3768(8) -0.342(2)
C2 C 0.017(2) 0.308(1) -0.391(2)
C3 C 0.165(2) 0.319(1) -0.385(2)
C4 C 0.163(2) 0.373(1) -0.488(2)
C5 C -0.175(2) 0.621(1) -0.102(2)
C6 C -0.269(2) 0.637(1) -0.028(2)
C7 C -0.336(2) 0.564(1) -0.007(2)
C8 C -0.235(2) 0.520(1) 0.093(1)
N1 N -0.092(2) 0.3648(8) -0.256(1)
N2 N -0.149(1) 0.4288(8) -0.220(1)
N3 N 0.286(2) 0.459(1) -0.559(2)
N4 N 0.281(2) 0.415(2) -0.459(2)
N5 N -0.058(2) 0.669(1) -0.071(2)
N6 N 0.017(2) 0.6594(8) -0.151(2)
N7 N -0.185(2) 0.449(1) 0.271(2)
N8 N -0.274(1) 0.493(1) 0.184(1)
O12B O -0.066(1) 0.6231(7) -0.411(1)
O11B O 0.113(1) 0.4940(7) -0.097(1)
Mn1B Mn 0.0540(3) 0.4594(3) -0.7310(3)
N3B N -0.286(2) 0.541(1) -0.441(2)
Mn1B_2 Mn 0.0540(3) 0.4594(3) 0.2690(3)
N7B N 0.185(2) 0.551(1) -0.271(2)
Cl1 Cl 0.5805(4) 0.3414(2) -0.1457(5)
O1 O 0.462(1) 0.297(1) -0.153(2)
O2 O 0.660(2) 0.296(1) -0.199(3)
O3 O 0.661(2) 0.358(1) -0.021(2)
O4 O 0.536(2) 0.409(1) -0.213(1)
Cl2 Cl 0.5731(4) 0.3449(2) -0.6060(4)
O5 O 0.454(2) 0.300(1) -0.644(3)
O6 O 0.543(2) 0.416(1) -0.658(3)
O7 O 0.661(4) 0.317(1) -0.648(5)
O8 O 0.633(3) 0.349(2) -0.481(3)
loop_
_geom_bond_atom_site_label_1
_geom_bond_atom_site_label_2
_geom_bond_site_symmetry_1
_geom_bond_site_symmetry_2
Mn1 O9 1_555 1_555
Cl1 O1 1_555 1_555
Cl2 O5 1_555 1_555
O2 Cl1 1_555 1_555
O3 Cl1 1_555 1_555
O4 Cl1 1_555 1_555
O6 Cl2 1_555 1_555
O7 Cl2 1_555 1_555
O8 Cl2 1_555 1_555
O9 C1 1_555 1_555
O10 Mn1 1_555 1_555
O11 C8 1_555 1_555
O12 C4 1_555 1_555
C1 C2 1_555 1_555
C2 C3 1_555 1_555
C3 C4 1_555 1_555
C4 N4 1_555 1_555
C5 O10 1_555 1_555
C6 C5 1_555 1_555
C7 C6 1_555 1_555
C8 C7 1_555 1_555
N1 C1 1_555 1_555
N2 Mn1 1_555 1_555
N3 N4 1_555 1_555
N5 C5 1_555 1_555
N6 Mn1 1_555 1_555
N7 N8 1_555 1_555
N8 C8 1_555 1_555
O12B Mn1 1_555 1_555
O11B Mn1 1_555 1_555
Mn1B O12 1_555 1_555
N3B Mn1 1_555 1_555
Mn1B_2 O11 1_555 1_555
N7B Mn1 1_555 1_555
N1 N2 1_555 1_555
N3 Mn1B 1_555 1_555
N5 N6 1_555 1_555
N7 Mn1B_2 1_555 1_555

#END
