
#######################################################################
#
#                 Cambridge Crystallographic Data Centre
#                                CCDC 
#
#######################################################################
#
# If this CIF has been generated from an entry in the Cambridge 
# Structural Database, then it will include bibliographic, chemical, 
# crystal, experimental, refinement or atomic coordinate data resulting 
# from the CCDC's data processing and validation procedures.
#
#######################################################################

data_GAMQAN
_symmetry_cell_setting           triclinic
_symmetry_space_group_name_H-M   'P -1'
_symmetry_Int_Tables_number      2
_space_group_name_Hall           '-P 1'
loop_
_symmetry_equiv_pos_site_id
_symmetry_equiv_pos_as_xyz
1 x,y,z
2 -x,-y,-z
_cell_length_a                   12.400(9)
_cell_length_b                   16.827(12)
_cell_length_c                   17.196(11)
_cell_angle_alpha                66.35(5)
_cell_angle_beta                 76.66(5)
_cell_angle_gamma                71.03(6)
_cell_volume                     3087.26
loop_
_atom_site_label
_atom_site_type_symbol
_atom_site_fract_x
_atom_site_fract_y
_atom_site_fract_z
Mn1 Mn 0.0000 0.0000 1.0000
Mn2 Mn 0.11054(8) 0.17581(6) 0.65224(5)
Mn3 Mn 0.39663(8) 0.27651(6) 0.34160(6)
Mn4 Mn 0.5000 0.5000 0.0000
O1 O 0.0254(3) 0.0767(3) 0.8639(2)
O2 O 0.0704(3) 0.2040(3) 0.7714(2)
O3 O 0.0731(3) 0.1070(3) 0.9935(2)
O4 O 0.1371(4) 0.2264(3) 0.8991(3)
O5 O 0.1739(3) 0.1455(2) 0.5342(2)
O6 O 0.2992(3) 0.1772(2) 0.4161(2)
O7 O 0.2113(3) 0.2730(2) 0.5765(2)
O8 O 0.3495(3) 0.2951(3) 0.4649(2)
O9 O 0.4266(3) 0.2772(3) 0.2101(2)
O10 O 0.4609(3) 0.3686(2) 0.0746(2)
O11 O 0.4854(3) 0.3836(2) 0.2666(2)
O12 O 0.5181(3) 0.4756(3) 0.1321(2)
O13 O 0.0262(3) 0.0666(2) 0.7135(2)
N1 N -0.3479(4) 0.1879(3) 0.9687(3)
N2 N -0.1829(4) 0.0880(3) 1.0061(3)
N3 N -0.2285(4) 0.3383(3) 0.5869(3)
N4 N -0.0450(4) 0.2769(3) 0.6037(3)
N5 N -0.5519(4) 0.0503(3) 0.7456(3)
N6 N -0.7222(4) 0.0876(3) 0.7049(3)
N7 N 0.0412(4) 0.4228(3) 0.3036(3)
N8 N 0.2269(4) 0.3774(3) 0.3120(3)
N9 N -0.2536(4) 0.1284(3) 0.3868(3)
N10 N -0.4397(4) 0.1821(3) 0.3821(3)
N11 N -0.1338(4) 0.3587(3) 0.0096(3)
N12 N -0.3127(4) 0.4334(3) -0.0200(3)
C1 C -0.4341(5) 0.2423(4) 0.8354(4)
C2 C -0.3981(5) 0.2994(4) 0.7566(4)
C3 C -0.3921(5) 0.2808(4) 0.6823(3)
C4 C -0.4116(5) 0.2006(4) 0.6885(4)
C5 C -0.4444(5) 0.1424(4) 0.7690(4)
C6 C -0.4602(5) 0.1655(4) 0.8417(4)
C7 C -0.4357(5) 0.2594(4) 0.9162(4)
H1 H -0.4203 0.3184 0.9006
H2 H -0.5125 0.2610 0.9495
C8 C -0.2411(6) 0.1511(4) 0.9422(4)
H3 H -0.2093 0.1679 0.8839
C9 C -0.2587(6) 0.0842(4) 1.0789(4)
H4 H -0.2427 0.0454 1.1353
C10 C -0.3608(6) 0.1453(4) 1.0570(4)
H5 H -0.4280 0.1566 1.0950
C11 C -0.3663(5) 0.3838(4) 0.7472(3)
H6 H -0.4092 0.4054 0.7935
H7 H -0.3855 0.4306 0.6921
H8 H -0.2837 0.3693 0.7500
C12 C -0.3517(5) 0.3428(4) 0.5961(3)
H9 H -0.3656 0.3266 0.5505
H10 H -0.3974 0.4054 0.5882
C13 C -0.1474(6) 0.2614(4) 0.6239(4)
H11 H -0.1626 0.2050 0.6589
C14 C -0.0609(5) 0.3660(4) 0.5506(4)
H12 H -0.0015 0.3960 0.5256
C15 C -0.1755(6) 0.4053(4) 0.5392(4)
H13 H -0.2098 0.4655 0.5057
C16 C -0.3955(5) 0.1779(4) 0.6083(4)
H14 H -0.4039 0.1171 0.6245
H15 H -0.3187 0.1808 0.5780
H16 H -0.4535 0.2212 0.5708
C17 C -0.4508(5) 0.0501(4) 0.7785(4)
H17 H -0.3801 0.0223 0.7479
H18 H -0.4522 0.0118 0.8398
C18 C -0.6539(5) 0.1096(4) 0.7369(4)
H19 H -0.6751 0.1616 0.7518
C19 C -0.6579(6) 0.0098(4) 0.6921(4)
H20 H -0.6834 -0.0230 0.6692
C20 C -0.5526(6) -0.0135(4) 0.7168(4)
H21 H -0.4915 -0.0644 0.7144
C21 C -0.5070(6) 0.1061(4) 0.9284(4)
H22 H -0.5670 0.0848 0.9205
H23 H -0.5392 0.1409 0.9662
H24 H -0.4446 0.0544 0.9540
C22 C -0.0763(5) 0.3505(4) 0.2652(4)
C23 C -0.0959(5) 0.2700(4) 0.3240(4)
C24 C -0.1039(5) 0.2062(4) 0.2944(4)
C25 C -0.0881(5) 0.2199(4) 0.2075(4)
C26 C -0.0602(5) 0.2983(4) 0.1508(4)
C27 C -0.0536(5) 0.3633(4) 0.1786(4)
C28 C -0.0758(5) 0.4241(4) 0.2942(4)
H25 H -0.1242 0.4178 0.3498
H26 H -0.1104 0.4830 0.2523
C29 C 0.1377(6) 0.3605(4) 0.2968(4)
H27 H 0.1424 0.3102 0.2828
C30 C 0.1807(6) 0.4546(4) 0.3294(4)
H28 H 0.2234 0.4843 0.3428
C31 C 0.0671(6) 0.4835(4) 0.3250(4)
H29 H 0.0157 0.5354 0.3347
C32 C -0.1140(5) 0.2510(4) 0.4223(3)
H30 H -0.1946 0.2523 0.4441
H31 H -0.0651 0.1917 0.4515
H32 H -0.0935 0.2971 0.4329
C33 C -0.1269(5) 0.1181(4) 0.3591(4)
H33 H -0.0866 0.0990 0.4097
H34 H -0.0964 0.0710 0.3333
C34 C -0.3381(6) 0.1926(4) 0.3454(4)
H35 H -0.3259 0.2412 0.2945
C35 C -0.4195(6) 0.1038(4) 0.4539(4)
H36 H -0.4770 0.0778 0.4933
C36 C -0.3038(6) 0.0704(4) 0.4587(4)
H37 H -0.2659 0.0188 0.5018
C37 C -0.1086(5) 0.1551(4) 0.1747(4)
H38 H -0.0350 0.1222 0.1529
H39 H -0.1463 0.1124 0.2214
H40 H -0.1578 0.1888 0.1285
C38 C -0.0328(5) 0.3092(4) 0.0553(3)
H41 H -0.0032 0.2490 0.0503
H42 H 0.0281 0.3414 0.0285
C39 C -0.2421(5) 0.3930(4) 0.0400(4)
H43 H -0.2651 0.3888 0.0979
C40 C -0.2443(6) 0.4255(4) -0.0929(4)
H44 H -0.2694 0.4495 -0.1479
C41 C -0.1353(6) 0.3783(4) -0.0751(4)
H45 H -0.0724 0.3621 -0.1142
C42 C -0.0252(6) 0.4497(4) 0.1134(4)
H46 H 0.0482 0.4346 0.0792
H47 H -0.0859 0.4833 0.0758
H48 H -0.0195 0.4866 0.1435
C43 C 0.0590(5) 0.1457(4) 0.8458(4)
C44 C 0.0929(6) 0.1636(5) 0.9184(4)
C45 C 0.2455(5) 0.1875(4) 0.4861(4)
C46 C 0.2708(5) 0.2584(4) 0.5110(4)
C47 C 0.4544(5) 0.3468(4) 0.1545(4)
C48 C 0.4896(5) 0.4064(4) 0.1875(4)
Mn2A Mn -0.11054(8) -0.17581(6) 1.34776(5)
Mn2_2 Mn -0.88946(8) 0.17581(6) 0.65224(5)
Mn2A_2 Mn 0.88946(8) -0.17581(6) 1.34776(5)
Mn3A Mn -0.39663(8) -0.27651(6) 1.65840(6)
Mn3_2 Mn -0.60337(8) 0.27651(6) 0.34160(6)
Mn3_3 Mn 1.39663(8) 0.27651(6) 0.34160(6)
Mn4_2 Mn -0.5000 0.5000 0.0000
Mn4_3 Mn -0.5000 -0.5000 2.0000
O1A O -0.0254(3) -0.0767(3) 1.1361(2)
O2A O -0.0704(3) -0.2040(3) 1.2286(2)
O3A O -0.0731(3) -0.1070(3) 1.0065(2)
O4A O -0.1371(4) -0.2264(3) 1.1009(3)
O5A O -0.1739(3) -0.1455(2) 1.4658(2)
O6A O -0.2992(3) -0.1772(2) 1.5839(2)
O7A O -0.2113(3) -0.2730(2) 1.4235(2)
O8A O -0.3495(3) -0.2951(3) 1.5351(2)
O9A O -0.4266(3) -0.2772(3) 1.7899(2)
O10A O -0.4609(3) -0.3686(2) 1.9254(2)
O10A_2 O 0.5391(3) 0.6314(2) -0.0746(2)
O11A O -0.4854(3) -0.3836(2) 1.7334(2)
O12A O -0.5181(3) -0.4756(3) 1.8679(2)
O12A_2 O 0.4819(3) 0.5244(3) -0.1321(2)
O13A O -0.0262(3) -0.0666(2) 1.2865(2)
N1A N 0.3479(4) -0.1879(3) 1.0313(3)
N2A N 0.1829(4) -0.0880(3) 0.9939(3)
N3A N 0.2285(4) -0.3383(3) 1.4131(3)
N4A N 0.0450(4) -0.2769(3) 1.3963(3)
N5A N 0.5519(4) -0.0503(3) 1.2544(3)
N6A N 0.7222(4) -0.0876(3) 1.2951(3)
N6_2 N 0.2778(4) 0.0876(3) 0.7049(3)
N6A_2 N -0.2778(4) -0.0876(3) 1.2951(3)
N7_2 N 1.0412(4) 0.4228(3) 0.3036(3)
N8_2 N 1.2269(4) 0.3774(3) 0.3120(3)
N8A N -0.2269(4) -0.3774(3) 1.6880(3)
N9_2 N 0.7464(4) 0.1284(3) 0.3868(3)
N10_2 N 0.5603(4) 0.1821(3) 0.3821(3)
N10A N -0.5603(4) -0.1821(3) 1.6179(3)
N11_2 N 0.8662(4) 0.3587(3) 0.0096(3)
N12_2 N 0.6873(4) 0.4334(3) -0.0200(3)
N12A N 0.3127(4) 0.5666(3) 0.0200(3)
C1A C 0.4341(5) -0.2423(4) 1.1646(4)
C2A C 0.3981(5) -0.2994(4) 1.2434(4)
C3A C 0.3921(5) -0.2808(4) 1.3177(3)
C4A C 0.4116(5) -0.2006(4) 1.3115(4)
C5A C 0.4444(5) -0.1424(4) 1.2310(4)
C6A C 0.4602(5) -0.1655(4) 1.1583(4)
C7A C 0.4357(5) -0.2594(4) 1.0838(4)
H1A H 0.4203 -0.3184 1.0994
H2A H 0.5125 -0.2610 1.0505
C8A C 0.2411(6) -0.1511(4) 1.0578(4)
H3A H 0.2093 -0.1679 1.1161
C9A C 0.2587(6) -0.0842(4) 0.9211(4)
H4A H 0.2427 -0.0454 0.8647
C10A C 0.3608(6) -0.1453(4) 0.9430(4)
H5A H 0.4280 -0.1566 0.9050
C11A C 0.3663(5) -0.3838(4) 1.2528(3)
H6A H 0.4092 -0.4054 1.2065
H7A H 0.3855 -0.4306 1.3079
H8A H 0.2837 -0.3693 1.2500
C12A C 0.3517(5) -0.3428(4) 1.4039(3)
H9A H 0.3656 -0.3266 1.4495
H10A H 0.3974 -0.4054 1.4118
C13A C 0.1474(6) -0.2614(4) 1.3761(4)
H11A H 0.1626 -0.2050 1.3411
C14A C 0.0609(5) -0.3660(4) 1.4494(4)
H12A H 0.0015 -0.3960 1.4744
C15A C 0.1755(6) -0.4053(4) 1.4608(4)
H13A H 0.2098 -0.4655 1.4943
C16A C 0.3955(5) -0.1779(4) 1.3917(4)
H14A H 0.4039 -0.1171 1.3755
H15A H 0.3187 -0.1808 1.4220
H16A H 0.4535 -0.2212 1.4292
C17A C 0.4508(5) -0.0501(4) 1.2215(4)
H17A H 0.3801 -0.0223 1.2521
H18A H 0.4522 -0.0118 1.1602
C18A C 0.6539(5) -0.1096(4) 1.2631(4)
H19A H 0.6751 -0.1616 1.2482
C19A C 0.6579(6) -0.0098(4) 1.3079(4)
H20A H 0.6834 0.0230 1.3308
C20A C 0.5526(6) 0.0135(4) 1.2832(4)
H21A H 0.4915 0.0644 1.2856
C21A C 0.5070(6) -0.1061(4) 1.0716(4)
H22A H 0.5670 -0.0848 1.0795
H23A H 0.5392 -0.1409 1.0338
H24A H 0.4446 -0.0544 1.0460
C22_2 C 0.9237(5) 0.3505(4) 0.2652(4)
C23_2 C 0.9041(5) 0.2700(4) 0.3240(4)
C24_2 C 0.8961(5) 0.2062(4) 0.2944(4)
C25_2 C 0.9119(5) 0.2199(4) 0.2075(4)
C26_2 C 0.9398(5) 0.2983(4) 0.1508(4)
C27_2 C 0.9464(5) 0.3633(4) 0.1786(4)
C28_2 C 0.9242(5) 0.4241(4) 0.2942(4)
H25_2 H 0.8758 0.4178 0.3498
H26_2 H 0.8896 0.4830 0.2523
C29_2 C 1.1377(6) 0.3605(4) 0.2968(4)
H27_2 H 1.1424 0.3102 0.2828
C30_2 C 1.1807(6) 0.4546(4) 0.3294(4)
H28_2 H 1.2234 0.4843 0.3428
C31_2 C 1.0671(6) 0.4835(4) 0.3250(4)
H29_2 H 1.0157 0.5354 0.3347
C32_2 C 0.8860(5) 0.2510(4) 0.4223(3)
H30_2 H 0.8054 0.2523 0.4441
H31_2 H 0.9349 0.1917 0.4515
H32_2 H 0.9065 0.2971 0.4329
C33_2 C 0.8731(5) 0.1181(4) 0.3591(4)
H33_2 H 0.9134 0.0990 0.4097
H34_2 H 0.9036 0.0710 0.3333
C34_2 C 0.6619(6) 0.1926(4) 0.3454(4)
H35_2 H 0.6741 0.2412 0.2945
C35_2 C 0.5805(6) 0.1038(4) 0.4539(4)
H36_2 H 0.5230 0.0778 0.4933
C36_2 C 0.6962(6) 0.0704(4) 0.4587(4)
H37_2 H 0.7341 0.0188 0.5018
C37_2 C 0.8914(5) 0.1551(4) 0.1747(4)
H38_2 H 0.9650 0.1222 0.1529
H39_2 H 0.8537 0.1124 0.2214
H40_2 H 0.8422 0.1888 0.1285
C38_2 C 0.9672(5) 0.3092(4) 0.0553(3)
H41_2 H 0.9968 0.2490 0.0503
H42_2 H 1.0281 0.3414 0.0285
C39_2 C 0.7579(5) 0.3930(4) 0.0400(4)
H43_2 H 0.7349 0.3888 0.0979
C40_2 C 0.7557(6) 0.4255(4) -0.0929(4)
H44_2 H 0.7306 0.4495 -0.1479
C41_2 C 0.8647(6) 0.3783(4) -0.0751(4)
H45_2 H 0.9276 0.3621 -0.1142
C42_2 C 0.9748(6) 0.4497(4) 0.1134(4)
H46_2 H 1.0482 0.4346 0.0792
H47_2 H 0.9141 0.4833 0.0758
H48_2 H 0.9805 0.4866 0.1435
C43A C -0.0590(5) -0.1457(4) 1.1542(4)
C44A C -0.0929(6) -0.1636(5) 1.0816(4)
C45A C -0.2455(5) -0.1875(4) 1.5139(4)
C46A C -0.2708(5) -0.2584(4) 1.4890(4)
C47A C -0.4544(5) -0.3468(4) 1.8455(4)
C48A C -0.4896(5) -0.4064(4) 1.8125(4)
O14 O 0.2145(5) 0.1121(3) 0.3190(3)
O15 O 0.3447(4) 0.4348(3) -0.3356(3)
O16 O 0.3319(4) 0.4434(3) -0.1654(3)
O17 O 0.6055(4) 0.4015(3) 0.3837(2)
O18 O 0.5904(3) 0.5818(3) 0.4977(3)
O19 O 0.8201(4) 0.6542(3) 0.2836(3)
O20 O 0.1566(3) 0.9807(3) 0.2894(3)
O21 O 0.2225(4) 1.0641(3) 0.1161(3)
O22 O 0.3001(5) 1.2074(4) 0.1472(4)
O23 O 0.2425(4) 1.2961(4) -0.0252(3)
loop_
_geom_bond_atom_site_label_1
_geom_bond_atom_site_label_2
_geom_bond_site_symmetry_1
_geom_bond_site_symmetry_2
Mn1 O1 1_555 1_555
Mn2 O2 1_555 1_555
Mn3 O6 1_555 1_555
Mn4 O10 1_555 1_555
O1 C43 1_555 1_555
O2 C43 1_555 1_555
O3 Mn1 1_555 1_555
O4 C44 1_555 1_555
O5 Mn2 1_555 1_555
O6 C45 1_555 1_555
O7 Mn2 1_555 1_555
O8 Mn3 1_555 1_555
O9 Mn3 1_555 1_555
O10 C47 1_555 1_555
O11 Mn3 1_555 1_555
O12 Mn4 1_555 1_555
O13 Mn2 1_555 1_555
N1 C7 1_555 1_555
N2 Mn1 1_555 1_555
N3 C12 1_555 1_555
N4 Mn2 1_555 1_555
N5 C17 1_555 1_555
N6 C18 1_555 1_555
N7 C28 1_555 1_555
N8 Mn3 1_555 1_555
N9 C33 1_555 1_555
N10 C34 1_555 1_555
N11 C38 1_555 1_555
N12 C39 1_555 1_555
C1 C2 1_555 1_555
C2 C3 1_555 1_555
C3 C4 1_555 1_555
C4 C5 1_555 1_555
C5 C6 1_555 1_555
C6 C1 1_555 1_555
C7 C1 1_555 1_555
H1 C7 1_555 1_555
H2 C7 1_555 1_555
C8 N1 1_555 1_555
H3 C8 1_555 1_555
C9 N2 1_555 1_555
H4 C9 1_555 1_555
C10 N1 1_555 1_555
H5 C10 1_555 1_555
C11 C2 1_555 1_555
H6 C11 1_555 1_555
H7 C11 1_555 1_555
H8 C11 1_555 1_555
C12 C3 1_555 1_555
H9 C12 1_555 1_555
H10 C12 1_555 1_555
C13 N3 1_555 1_555
H11 C13 1_555 1_555
C14 N4 1_555 1_555
H12 C14 1_555 1_555
C15 N3 1_555 1_555
H13 C15 1_555 1_555
C16 C4 1_555 1_555
H14 C16 1_555 1_555
H15 C16 1_555 1_555
H16 C16 1_555 1_555
C17 C5 1_555 1_555
H17 C17 1_555 1_555
H18 C17 1_555 1_555
C18 N5 1_555 1_555
H19 C18 1_555 1_555
C19 N6 1_555 1_555
H20 C19 1_555 1_555
C20 N5 1_555 1_555
H21 C20 1_555 1_555
C21 C6 1_555 1_555
H22 C21 1_555 1_555
H23 C21 1_555 1_555
H24 C21 1_555 1_555
C22 C23 1_555 1_555
C23 C24 1_555 1_555
C24 C25 1_555 1_555
C25 C26 1_555 1_555
C26 C27 1_555 1_555
C27 C22 1_555 1_555
C28 C22 1_555 1_555
H25 C28 1_555 1_555
H26 C28 1_555 1_555
C29 N7 1_555 1_555
H27 C29 1_555 1_555
C30 N8 1_555 1_555
H28 C30 1_555 1_555
C31 N7 1_555 1_555
H29 C31 1_555 1_555
C32 C23 1_555 1_555
H30 C32 1_555 1_555
H31 C32 1_555 1_555
H32 C32 1_555 1_555
C33 C24 1_555 1_555
H33 C33 1_555 1_555
H34 C33 1_555 1_555
C34 N9 1_555 1_555
H35 C34 1_555 1_555
C35 N10 1_555 1_555
H36 C35 1_555 1_555
C36 N9 1_555 1_555
H37 C36 1_555 1_555
C37 C25 1_555 1_555
H38 C37 1_555 1_555
H39 C37 1_555 1_555
H40 C37 1_555 1_555
C38 C26 1_555 1_555
H41 C38 1_555 1_555
H42 C38 1_555 1_555
C39 N11 1_555 1_555
H43 C39 1_555 1_555
C40 N12 1_555 1_555
H44 C40 1_555 1_555
C41 N11 1_555 1_555
H45 C41 1_555 1_555
C42 C27 1_555 1_555
H46 C42 1_555 1_555
H47 C42 1_555 1_555
H48 C42 1_555 1_555
C43 C44 1_555 1_555
C44 O3 1_555 1_555
C45 O5 1_555 1_555
C46 O7 1_555 1_555
C47 O9 1_555 1_555
C48 O11 1_555 1_555
Mn2A O2A 1_555 1_555
Mn2_2 N6 1_555 1_555
Mn2A_2 N6A 1_555 1_555
Mn3A O6A 1_555 1_555
Mn3_2 N10 1_555 1_555
Mn3_3 N8_2 1_555 1_555
Mn4_2 N12 1_555 1_555
Mn4_3 O10A 1_555 1_555
O1A Mn1 1_555 1_555
O2A C43A 1_555 1_555
O3A Mn1 1_555 1_555
O4A C44A 1_555 1_555
O5A Mn2A 1_555 1_555
O6A C45A 1_555 1_555
O7A Mn2A 1_555 1_555
O8A Mn3A 1_555 1_555
O9A Mn3A 1_555 1_555
O10A C47A 1_555 1_555
O10A_2 Mn4 1_555 1_555
O11A Mn3A 1_555 1_555
O12A Mn4_3 1_555 1_555
O12A_2 Mn4 1_555 1_555
O13A Mn2A 1_555 1_555
N1A C7A 1_555 1_555
N2A Mn1 1_555 1_555
N3A C12A 1_555 1_555
N4A Mn2A 1_555 1_555
N5A C17A 1_555 1_555
N6A C18A 1_555 1_555
N6_2 Mn2 1_555 1_555
N6A_2 Mn2A 1_555 1_555
N7_2 C28_2 1_555 1_555
N8_2 C29_2 1_555 1_555
N8A Mn3A 1_555 1_555
N9_2 C33_2 1_555 1_555
N10_2 Mn3 1_555 1_555
N10A Mn3A 1_555 1_555
N11_2 C38_2 1_555 1_555
N12_2 Mn4 1_555 1_555
N12A Mn4 1_555 1_555
C1A C2A 1_555 1_555
C2A C3A 1_555 1_555
C3A C4A 1_555 1_555
C4A C5A 1_555 1_555
C5A C6A 1_555 1_555
C6A C1A 1_555 1_555
C7A C1A 1_555 1_555
H1A C7A 1_555 1_555
H2A C7A 1_555 1_555
C8A N1A 1_555 1_555
H3A C8A 1_555 1_555
C9A N2A 1_555 1_555
H4A C9A 1_555 1_555
C10A N1A 1_555 1_555
H5A C10A 1_555 1_555
C11A C2A 1_555 1_555
H6A C11A 1_555 1_555
H7A C11A 1_555 1_555
H8A C11A 1_555 1_555
C12A C3A 1_555 1_555
H9A C12A 1_555 1_555
H10A C12A 1_555 1_555
C13A N3A 1_555 1_555
H11A C13A 1_555 1_555
C14A N4A 1_555 1_555
H12A C14A 1_555 1_555
C15A N3A 1_555 1_555
H13A C15A 1_555 1_555
C16A C4A 1_555 1_555
H14A C16A 1_555 1_555
H15A C16A 1_555 1_555
H16A C16A 1_555 1_555
C17A C5A 1_555 1_555
H17A C17A 1_555 1_555
H18A C17A 1_555 1_555
C18A N5A 1_555 1_555
H19A C18A 1_555 1_555
C19A N6A 1_555 1_555
H20A C19A 1_555 1_555
C20A N5A 1_555 1_555
H21A C20A 1_555 1_555
C21A C6A 1_555 1_555
H22A C21A 1_555 1_555
H23A C21A 1_555 1_555
H24A C21A 1_555 1_555
C22_2 C23_2 1_555 1_555
C23_2 C24_2 1_555 1_555
C24_2 C25_2 1_555 1_555
C25_2 C26_2 1_555 1_555
C26_2 C27_2 1_555 1_555
C27_2 C22_2 1_555 1_555
C28_2 C22_2 1_555 1_555
H25_2 C28_2 1_555 1_555
H26_2 C28_2 1_555 1_555
C29_2 N7_2 1_555 1_555
H27_2 C29_2 1_555 1_555
C30_2 N8_2 1_555 1_555
H28_2 C30_2 1_555 1_555
C31_2 N7_2 1_555 1_555
H29_2 C31_2 1_555 1_555
C32_2 C23_2 1_555 1_555
H30_2 C32_2 1_555 1_555
H31_2 C32_2 1_555 1_555
H32_2 C32_2 1_555 1_555
C33_2 C24_2 1_555 1_555
H33_2 C33_2 1_555 1_555
H34_2 C33_2 1_555 1_555
C34_2 N9_2 1_555 1_555
H35_2 C34_2 1_555 1_555
C35_2 N10_2 1_555 1_555
H36_2 C35_2 1_555 1_555
C36_2 N9_2 1_555 1_555
H37_2 C36_2 1_555 1_555
C37_2 C25_2 1_555 1_555
H38_2 C37_2 1_555 1_555
H39_2 C37_2 1_555 1_555
H40_2 C37_2 1_555 1_555
C38_2 C26_2 1_555 1_555
H41_2 C38_2 1_555 1_555
H42_2 C38_2 1_555 1_555
C39_2 N11_2 1_555 1_555
H43_2 C39_2 1_555 1_555
C40_2 N12_2 1_555 1_555
H44_2 C40_2 1_555 1_555
C41_2 N11_2 1_555 1_555
H45_2 C41_2 1_555 1_555
C42_2 C27_2 1_555 1_555
H46_2 C42_2 1_555 1_555
H47_2 C42_2 1_555 1_555
H48_2 C42_2 1_555 1_555
C43A O1A 1_555 1_555
C44A O3A 1_555 1_555
C45A O5A 1_555 1_555
C46A O7A 1_555 1_555
C47A O9A 1_555 1_555
C48A O11A 1_555 1_555
O8 C46 1_555 1_555
O12 C48 1_555 1_555
N2 C8 1_555 1_555
N4 C13 1_555 1_555
N8 C29 1_555 1_555
C9 C10 1_555 1_555
C14 C15 1_555 1_555
C19 C20 1_555 1_555
C30 C31 1_555 1_555
C35 C36 1_555 1_555
C40 C41 1_555 1_555
C45 C46 1_555 1_555
C47 C48 1_555 1_555
O8A C46A 1_555 1_555
O12A C48A 1_555 1_555
N2A C8A 1_555 1_555
N4A C13A 1_555 1_555
N10_2 C34_2 1_555 1_555
N12_2 C39_2 1_555 1_555
C9A C10A 1_555 1_555
C14A C15A 1_555 1_555
C19A C20A 1_555 1_555
C30_2 C31_2 1_555 1_555
C35_2 C36_2 1_555 1_555
C40_2 C41_2 1_555 1_555
C43A C44A 1_555 1_555
C45A C46A 1_555 1_555
C47A C48A 1_555 1_555

#END
