
#######################################################################
#
#                 Cambridge Crystallographic Data Centre
#                                CCDC 
#
#######################################################################
#
# If this CIF has been generated from an entry in the Cambridge 
# Structural Database, then it will include bibliographic, chemical, 
# crystal, experimental, refinement or atomic coordinate data resulting 
# from the CCDC's data processing and validation procedures.
#
#######################################################################

data_GAMSET
_symmetry_cell_setting           monoclinic
_symmetry_space_group_name_H-M   'P 2/c'
_symmetry_Int_Tables_number      13
_space_group_name_Hall           '-P 2yc'
loop_
_symmetry_equiv_pos_site_id
_symmetry_equiv_pos_as_xyz
1 x,y,z
2 -x,y,1/2-z
3 -x,-y,-z
4 x,-y,1/2+z
_cell_length_a                   16.309(3)
_cell_length_b                   14.636(3)
_cell_length_c                   13.941(4)
_cell_angle_alpha                90
_cell_angle_beta                 93.67(3)
_cell_angle_gamma                90
_cell_volume                     3320.87
loop_
_atom_site_label
_atom_site_type_symbol
_atom_site_fract_x
_atom_site_fract_y
_atom_site_fract_z
C1 C 0.2425(8) 0.5744(9) 0.7690(10)
H1 H 0.2905 0.5455 0.7921
C2 C 0.2405(8) 0.6681(9) 0.7664(10)
H2 H 0.2867 0.7008 0.7888
C3 C 0.1070(7) 0.6619(9) 0.6999(9)
H3 H 0.0593 0.6904 0.6751
C4 C 0.1086(7) 0.5682(8) 0.7027(8)
C5 C 0.0357(7) 0.5096(8) 0.6606(9)
H4 H 0.0527 0.4757 0.6054
H5 H -0.0092 0.5494 0.6388
C6 C 0.1006(8) 0.1635(9) 0.8179(9)
H6 H 0.0523 0.1900 0.8367
C7 C 0.1067(8) 0.0679(8) 0.8133(9)
C8 C 0.2328(8) 0.1758(10) 0.7685(11)
H7 H 0.2779 0.2109 0.7540
C9 C 0.2379(8) 0.0820(9) 0.7621(10)
H8 H 0.2859 0.0557 0.7423
C10 C 0.0368(8) 0.0073(8) 0.8437(10)
H9 H -0.0087 0.0458 0.8602
H10 H 0.0554 -0.0264 0.9009
C11 C 0.2353(10) 0.4925(11) 1.0062(11)
C12 C 0.2953(12) 0.5566(14) 1.0478(14)
H11 H 0.2676 0.6045 1.0799
H12 H 0.3259 0.5823 0.9978
H13 H 0.3321 0.5253 1.0932
C15 C 0.1655(9) 0.8740(11) 0.5477(13)
H17 H 0.1136 0.8537 0.5618
C16 C 0.1817(11) 0.9599(19) 0.5465(12)
H18 H 0.1388 1.0004 0.5548
C17 C 0.2599(14) 0.9970(15) 0.5335(13)
H19 H 0.2686 1.0598 0.5348
C18 C 0.3230(13) 0.9372(18) 0.5187(16)
H20 H 0.3749 0.9605 0.5092
C19 C 0.3119(16) 0.8464(17) 0.5177(16)
H21 H 0.3556 0.8066 0.5110
C20 C 0.227(2) 0.8115(15) 0.5277(13)
H22 H 0.2147 0.7496 0.5207
C21 C 0.4614(15) 0.8744(17) 0.898(2)
H23 H 0.4955 0.9229 0.8765
H24 H 0.4889 0.8170 0.8908
H25 H 0.4510 0.8837 0.9640
C22 C 0.3838(13) 0.8737(11) 0.8398(16)
N1 N 0.1764(6) 0.5222(7) 0.7387(8)
N2 N 0.1714(7) 0.7150(7) 0.7315(8)
N3 N 0.1647(7) 0.2184(7) 0.7950(8)
N4 N 0.1745(6) 0.0269(7) 0.7839(8)
N5 N 0.1867(10) 0.4421(10) 0.9720(10)
N7 N 0.3233(9) 0.8736(10) 0.7965(13)
S1 S 0.0000 0.4294(3) 0.7500
S2 S 0.0000 -0.0740(3) 0.7500
Ag1 Ag 0.15842(7) 0.37415(6) 0.81177(9)
Ag2 Ag 0.17471(7) 0.87265(7) 0.73846(9)
C1A C -0.2425(8) 0.5744(9) 0.7310(10)
H1A H -0.2905 0.5455 0.7079
C2A C -0.2405(8) 0.6681(9) 0.7336(10)
H2A H -0.2867 0.7008 0.7112
C3A C -0.1070(7) 0.6619(9) 0.8001(9)
H3A H -0.0593 0.6904 0.8249
C4A C -0.1086(7) 0.5682(8) 0.7973(8)
C5A C -0.0357(7) 0.5096(8) 0.8394(9)
H4A H -0.0527 0.4757 0.8946
H5A H 0.0092 0.5494 0.8612
C6A C -0.1006(8) 0.1635(9) 0.6821(9)
H6A H -0.0523 0.1900 0.6633
C7A C -0.1067(8) 0.0679(8) 0.6867(9)
C8A C -0.2328(8) 0.1758(10) 0.7315(11)
H7A H -0.2779 0.2109 0.7460
C9A C -0.2379(8) 0.0820(9) 0.7379(10)
H8A H -0.2859 0.0557 0.7577
C10A C -0.0368(8) 0.0073(8) 0.6563(10)
H9A H 0.0087 0.0458 0.6398
H10A H -0.0554 -0.0264 0.5991
C11A C -0.2353(10) 0.4925(11) 0.4938(11)
C12A C -0.2953(12) 0.5566(14) 0.4522(14)
H11A H -0.2676 0.6045 0.4201
H12A H -0.3259 0.5823 0.5022
H13A H -0.3321 0.5253 0.4068
C15A C -0.1655(9) 0.8740(11) 0.9523(13)
H17A H -0.1136 0.8537 0.9382
C16A C -0.1817(11) 0.9599(19) 0.9535(12)
H18A H -0.1388 1.0004 0.9452
C17A C -0.2599(14) 0.9970(15) 0.9665(13)
H19A H -0.2686 1.0598 0.9652
C18A C -0.3230(13) 0.9372(18) 0.9813(16)
H20A H -0.3749 0.9605 0.9908
C19A C -0.3119(16) 0.8464(17) 0.9823(16)
H21A H -0.3556 0.8066 0.9890
C20A C -0.227(2) 0.8115(15) 0.9723(13)
H22A H -0.2147 0.7496 0.9793
C21A C -0.4614(15) 0.8744(17) 0.602(2)
H23A H -0.4955 0.9229 0.6235
H24A H -0.4889 0.8170 0.6092
H25A H -0.4510 0.8837 0.5360
C22A C -0.3838(13) 0.8737(11) 0.6602(16)
N1A N -0.1764(6) 0.5222(7) 0.7613(8)
N2A N -0.1714(7) 0.7150(7) 0.7685(8)
N3A N -0.1647(7) 0.2184(7) 0.7050(8)
N4A N -0.1745(6) 0.0269(7) 0.7161(8)
N4_2 N 0.1745(6) 1.0269(7) 0.7839(8)
N4A_2 N -0.1745(6) 1.0269(7) 0.7161(8)
N5A N -0.1867(10) 0.4421(10) 0.5280(10)
N7A N -0.3233(9) 0.8736(10) 0.7035(13)
S2_2 S 0.0000 0.9260(3) 0.7500
Ag1A Ag -0.15842(7) 0.37415(6) 0.68823(9)
Ag2A Ag -0.17471(7) 0.87265(7) 0.76154(9)
Ag2_2 Ag 0.17471(7) -0.12735(7) 0.73846(9)
Ag2A_2 Ag -0.17471(7) -0.12735(7) 0.76154(9)
C13 C 0.6100(11) 0.3693(10) 0.6338(12)
C14 C 0.5293(13) 0.3660(14) 0.5827(14)
H14 H 0.4986 0.4195 0.5978
H15 H 0.5005 0.3125 0.6020
H16 H 0.5356 0.3638 0.5148
N6 N 0.6725(9) 0.3716(9) 0.6755(14)
F1 F 0.9485(8) 0.2077(8) 1.0848(9)
F2 F 0.8602(10) 0.3147(9) 0.9061(8)
F3 F 0.9908(7) 0.2996(8) 0.9682(10)
F4 F 0.9153(7) 0.1697(7) 0.9285(8)
F5 F 0.8901(6) 0.3470(6) 1.0621(7)
F6 F 0.8176(7) 0.2191(8) 1.0235(10)
P1 P 0.9028(2) 0.2580(2) 0.9952(2)
F7 F 0.5563(12) 0.6856(17) 0.8005(18)
F8 F 0.5558(10) 0.5404(16) 0.7997(14)
F9 F 0.4410(7) 0.6148(11) 0.8369(9)
P2 P 0.5000 0.6137(4) 0.7500
F7A F 0.4437(12) 0.6856(17) 0.6995(18)
F8A F 0.4442(10) 0.5404(16) 0.7003(14)
F9A F 0.5590(7) 0.6148(11) 0.6631(9)
F10 F 0.4402(12) 0.2055(15) 0.7108(17)
F11 F 0.5609(9) 0.0557(15) 0.7894(16)
F12 F 0.5470(10) 0.1301(12) 0.6528(12)
P3 P 0.5000 0.1290(5) 0.7500
F10A F 0.5598(12) 0.2055(15) 0.7892(17)
F11A F 0.4391(9) 0.0557(15) 0.7106(16)
F12A F 0.4530(10) 0.1301(12) 0.8472(12)
loop_
_geom_bond_atom_site_label_1
_geom_bond_atom_site_label_2
_geom_bond_site_symmetry_1
_geom_bond_site_symmetry_2
C1 H1 1_555 1_555
C2 C1 1_555 1_555
H2 C2 1_555 1_555
C3 H3 1_555 1_555
C4 C3 1_555 1_555
C5 C4 1_555 1_555
H4 C5 1_555 1_555
H5 C5 1_555 1_555
C6 H6 1_555 1_555
C7 C6 1_555 1_555
C8 H7 1_555 1_555
C9 C8 1_555 1_555
H8 C9 1_555 1_555
C10 C7 1_555 1_555
H9 C10 1_555 1_555
H10 C10 1_555 1_555
C11 C12 1_555 1_555
C12 H11 1_555 1_555
H12 C12 1_555 1_555
H13 C12 1_555 1_555
C13 C14 1_555 1_555
C14 H14 1_555 1_555
H15 C14 1_555 1_555
H16 C14 1_555 1_555
C15 H17 1_555 1_555
C16 C15 1_555 1_555
H18 C16 1_555 1_555
C17 C16 1_555 1_555
H19 C17 1_555 1_555
C18 C17 1_555 1_555
H20 C18 1_555 1_555
C19 C18 1_555 1_555
H21 C19 1_555 1_555
C20 C15 1_555 1_555
H22 C20 1_555 1_555
C21 H23 1_555 1_555
H24 C21 1_555 1_555
H25 C21 1_555 1_555
C22 C21 1_555 1_555
N1 C1 1_555 1_555
N2 C2 1_555 1_555
N3 C6 1_555 1_555
N4 C7 1_555 1_555
N5 C11 1_555 1_555
N6 C13 1_555 1_555
N7 C22 1_555 1_555
F1 P1 1_555 1_555
F2 P1 1_555 1_555
F3 P1 1_555 1_555
F4 P1 1_555 1_555
F5 P1 1_555 1_555
F6 P1 1_555 1_555
F7 P2 1_555 1_555
F8 P2 1_555 1_555
F9 P2 1_555 1_555
F10 P3 1_555 1_555
F11 P3 1_555 1_555
F12 P3 1_555 1_555
P2 F7A 1_555 1_555
P3 F10A 1_555 1_555
S1 C5 1_555 1_555
S2 C10 1_555 1_555
Ag1 N1 1_555 1_555
Ag2 C15 1_555 1_555
C1A H1A 1_555 1_555
C2A C1A 1_555 1_555
H2A C2A 1_555 1_555
C3A H3A 1_555 1_555
C4A C3A 1_555 1_555
C5A S1 1_555 1_555
H4A C5A 1_555 1_555
H5A C5A 1_555 1_555
C6A H6A 1_555 1_555
C7A C6A 1_555 1_555
C8A H7A 1_555 1_555
C9A C8A 1_555 1_555
H8A C9A 1_555 1_555
C10A S2 1_555 1_555
H9A C10A 1_555 1_555
H10A C10A 1_555 1_555
C11A C12A 1_555 1_555
C12A H11A 1_555 1_555
H12A C12A 1_555 1_555
H13A C12A 1_555 1_555
C15A H17A 1_555 1_555
C16A C15A 1_555 1_555
H18A C16A 1_555 1_555
C17A C16A 1_555 1_555
H19A C17A 1_555 1_555
C18A C17A 1_555 1_555
H20A C18A 1_555 1_555
C19A C18A 1_555 1_555
H21A C19A 1_555 1_555
C20A C15A 1_555 1_555
H22A C20A 1_555 1_555
C21A H23A 1_555 1_555
H24A C21A 1_555 1_555
H25A C21A 1_555 1_555
C22A C21A 1_555 1_555
N1A C1A 1_555 1_555
N2A C2A 1_555 1_555
N3A C6A 1_555 1_555
N4A C7A 1_555 1_555
N4_2 Ag2 1_555 1_555
N4A_2 Ag2A 1_555 1_555
N5A C11A 1_555 1_555
N7A C22A 1_555 1_555
F8A P2 1_555 1_555
F9A P2 1_555 1_555
F11A P3 1_555 1_555
F12A P3 1_555 1_555
S2_2 Ag2 1_555 1_555
Ag1A S1 1_555 1_555
Ag2A C15A 1_555 1_555
Ag2_2 N4 1_555 1_555
Ag2A_2 S2 1_555 1_555
C3 N2 1_555 1_555
C4 N1 1_555 1_555
C8 N3 1_555 1_555
C9 N4 1_555 1_555
C19 C20 1_555 1_555
N2 Ag2 1_555 1_555
N3 Ag1 1_555 1_555
N5 Ag1 1_555 1_555
N7 Ag2 1_555 1_555
S1 Ag1 1_555 1_555
S2 Ag2_2 1_555 1_555
C3A N2A 1_555 1_555
C4A C5A 1_555 1_555
C4A N1A 1_555 1_555
C7A C10A 1_555 1_555
C8A N3A 1_555 1_555
C9A N4A 1_555 1_555
C19A C20A 1_555 1_555
N1A Ag1A 1_555 1_555
N2A Ag2A 1_555 1_555
N3A Ag1A 1_555 1_555
N4A Ag2A_2 1_555 1_555
N5A Ag1A 1_555 1_555
N7A Ag2A 1_555 1_555
S2_2 Ag2A 1_555 1_555

#END
