
#######################################################################
#
#                 Cambridge Crystallographic Data Centre
#                                CCDC 
#
#######################################################################
#
# If this CIF has been generated from an entry in the Cambridge 
# Structural Database, then it will include bibliographic, chemical, 
# crystal, experimental, refinement or atomic coordinate data resulting 
# from the CCDC's data processing and validation procedures.
#
#######################################################################

data_GAMWUN
_symmetry_cell_setting           orthorhombic
_symmetry_space_group_name_H-M   'P n a 21'
_symmetry_Int_Tables_number      33
_space_group_name_Hall           'P 2c -2n'
loop_
_symmetry_equiv_pos_site_id
_symmetry_equiv_pos_as_xyz
1 x,y,z
2 -x,-y,1/2+z
3 1/2-x,1/2+y,1/2+z
4 1/2+x,1/2-y,z
_cell_length_a                   7.549(3)
_cell_length_b                   12.059(4)
_cell_length_c                   14.631(5)
_cell_angle_alpha                90
_cell_angle_beta                 90
_cell_angle_gamma                90
_cell_volume                     1331.91
loop_
_atom_site_label
_atom_site_type_symbol
_atom_site_fract_x
_atom_site_fract_y
_atom_site_fract_z
Mn1 Mn 0.65318(4) 0.96601(3) 0.52224(3)
N1 N 0.5195(3) 1.07289(16) 0.62529(14)
N2 N 0.6649(3) 1.14005(18) 0.46256(15)
C1 C 0.4382(4) 1.0666(2) 0.70900(19)
H1 H 0.4199 1.0015 0.7418
C2 C 0.3886(4) 1.1687(2) 0.73657(19)
H2 H 0.3307 1.1868 0.7907
N3 N 0.4401(3) 1.23990(16) 0.66960(14)
H3 H 0.4249 1.3106 0.6693
C3 C 0.5188(3) 1.17983(17) 0.60398(16)
C4 C 0.5955(3) 1.21467(17) 0.5188(2)
N4 N 0.6088(3) 1.31769(18) 0.48299(16)
H4 H 0.5747 1.3784 0.5083
C5 C 0.6863(4) 1.3072(3) 0.3996(2)
H5 H 0.7107 1.3640 0.3585
C6 C 0.7208(4) 1.1987(2) 0.38811(19)
H6 H 0.7748 1.1681 0.3369
N5 N 0.6479(3) 0.8190(2) 0.6068(2)
N6 N 0.5945(5) 0.6404(2) 0.67893(19)
N7 N 0.4438(4) 0.48086(17) 0.61099(19)
N8 N 0.8511(3) 0.9097(3) 0.4245(2)
N9 N 1.1478(3) 0.8880(3) 0.3618(2)
N10 N 1.4210(3) 0.9187(2) 0.4460(2)
C7 C 0.6183(4) 0.7334(2) 0.6372(2)
C8 C 0.5145(4) 0.5582(2) 0.64017(19)
C9 C 0.9933(4) 0.8999(3) 0.3990(2)
C10 C 1.2901(4) 0.9033(2) 0.4102(2)
Mn1_2 Mn 1.65318(4) 0.96601(3) 0.52224(3)
N10_2 N 0.4210(3) 0.9187(2) 0.4460(2)
loop_
_geom_bond_atom_site_label_1
_geom_bond_atom_site_label_2
_geom_bond_site_symmetry_1
_geom_bond_site_symmetry_2
Mn1 N1 1_555 1_555
N1 C1 1_555 1_555
N2 Mn1 1_555 1_555
C1 H1 1_555 1_555
C2 C1 1_555 1_555
H2 C2 1_555 1_555
N3 C2 1_555 1_555
H3 N3 1_555 1_555
C3 N1 1_555 1_555
C4 N2 1_555 1_555
N4 C4 1_555 1_555
H4 N4 1_555 1_555
C5 N4 1_555 1_555
H5 C5 1_555 1_555
C6 N2 1_555 1_555
H6 C6 1_555 1_555
N5 Mn1 1_555 1_555
N6 C7 1_555 1_555
N7 C8 1_555 1_555
N8 Mn1 1_555 1_555
N9 C9 1_555 1_555
N10 C10 1_555 1_555
C7 N5 1_555 1_555
C8 N6 1_555 1_555
C9 N8 1_555 1_555
C10 N9 1_555 1_555
Mn1_2 N10 1_555 1_555
N10_2 Mn1 1_555 1_555
N3 C3 1_555 1_555
C3 C4 1_555 1_555
C5 C6 1_555 1_555

#END
