
#######################################################################
#
#                 Cambridge Crystallographic Data Centre
#                                CCDC 
#
#######################################################################
#
# If this CIF has been generated from an entry in the Cambridge 
# Structural Database, then it will include bibliographic, chemical, 
# crystal, experimental, refinement or atomic coordinate data resulting 
# from the CCDC's data processing and validation procedures.
#
#######################################################################

data_GANGUZ
_symmetry_cell_setting           orthorhombic
_symmetry_space_group_name_H-M   'P n n m'
_symmetry_Int_Tables_number      58
_space_group_name_Hall           '-P 2 2n'
loop_
_symmetry_equiv_pos_site_id
_symmetry_equiv_pos_as_xyz
1 x,y,z
2 -x,-y,z
3 1/2-x,1/2+y,1/2-z
4 1/2+x,1/2-y,1/2-z
5 -x,-y,-z
6 x,y,-z
7 1/2+x,1/2-y,1/2+z
8 1/2-x,1/2+y,1/2+z
_cell_length_a                   13.3270(10)
_cell_length_b                   6.5394(4)
_cell_length_c                   10.0679(6)
_cell_angle_alpha                90
_cell_angle_beta                 90
_cell_angle_gamma                90
_cell_volume                     877.423
loop_
_atom_site_label
_atom_site_type_symbol
_atom_site_fract_x
_atom_site_fract_y
_atom_site_fract_z
Y1 Y 0.30224(2) 0.14452(5) 0.5000
C1 C 0.39887(16) 0.0831(3) 0.7509(2)
C2 C 0.45111(15) 0.0402(3) 0.8804(2)
C3 C 0.4022(2) 0.0794(5) 1.0000
C4 C 0.2913(2) 0.1346(5) 1.0000
O1 O 0.36320(13) 0.2567(3) 0.72873(17)
O2 O 0.39119(11) -0.0591(2) 0.66564(15)
O3 O 0.23144(17) -0.0140(3) 1.0000
O4 O 0.26681(17) 0.3173(3) 1.0000
O5 O 0.16880(12) 0.1278(2) 0.34591(18)
H1 H 0.1575 0.2103 0.2825
H2 H 0.1516 0.0081 0.3220
O6 O 0.47316(17) 0.2813(4) 0.5000
H3 H 0.5145 0.2848 0.4358
Y1_2 Y 0.30224(2) 0.14452(5) 1.5000
Y1B Y 0.19776(2) -0.35548(5) 1.0000
Y1B_2 Y 0.19776(2) 0.64452(5) 1.0000
Y1A Y 0.69776(2) -0.14452(5) 1.5000
Y1A_2 Y 0.69776(2) -0.14452(5) 0.5000
Y1C Y 0.80224(2) 0.35548(5) 1.0000
Y1C_2 Y 0.80224(2) -0.64452(5) 1.0000
C1E C 0.39887(16) 0.0831(3) 1.2491(2)
C1D C 0.60113(16) -0.0831(3) 1.2491(2)
C1A C 0.60113(16) -0.0831(3) 0.7509(2)
C2E C 0.45111(15) 0.0402(3) 1.1196(2)
C2D C 0.54889(15) -0.0402(3) 1.1196(2)
C2A C 0.54889(15) -0.0402(3) 0.8804(2)
C3A C 0.5978(2) -0.0794(5) 1.0000
C4A C 0.7087(2) -0.1346(5) 1.0000
O1E O 0.36320(13) 0.2567(3) 1.27127(17)
O1D O 0.63680(13) -0.2567(3) 1.27127(17)
O1A O 0.63680(13) -0.2567(3) 0.72873(17)
O1E_2 O 0.36320(13) 0.2567(3) 0.27127(17)
O1_2 O 0.36320(13) 0.2567(3) 1.72873(17)
O2E O 0.39119(11) -0.0591(2) 1.33436(15)
O2D O 0.60881(11) 0.0591(2) 1.33436(15)
O2A O 0.60881(11) 0.0591(2) 0.66564(15)
O2E_2 O 0.39119(11) -0.0591(2) 0.33436(15)
O2_2 O 0.39119(11) -0.0591(2) 1.66564(15)
O3A O 0.76856(17) 0.0140(3) 1.0000
O3B O 0.26856(17) 0.4860(3) 0.5000
O3B_2 O 0.26856(17) 0.4860(3) 1.5000
O4A O 0.73319(17) -0.3173(3) 1.0000
O4B O 0.23319(17) -0.1827(3) 0.5000
O4B_2 O 0.23319(17) -0.1827(3) 1.5000
O5E O 0.16880(12) 0.1278(2) 0.65409(18)
O5E_2 O 0.16880(12) 0.1278(2) 1.65409(18)
O5_2 O 0.16880(12) 0.1278(2) 1.34591(18)
H1E H 0.1575 0.2103 0.7175
H1E_2 H 0.1575 0.2103 1.7175
H1_2 H 0.1575 0.2103 1.2825
H2E H 0.1516 0.0081 0.6780
H2E_2 H 0.1516 0.0081 1.6780
H2_2 H 0.1516 0.0081 1.3220
O6_2 O 0.47316(17) 0.2813(4) 1.5000
H3E H 0.5145 0.2848 0.5642
H3E_2 H 0.5145 0.2848 1.5642
H3_2 H 0.5145 0.2848 1.4358
loop_
_geom_bond_atom_site_label_1
_geom_bond_atom_site_label_2
_geom_bond_site_symmetry_1
_geom_bond_site_symmetry_2
Y1 O1 1_555 1_555
C1 C2 1_555 1_555
C2 C3 1_555 1_555
C3 C4 1_555 1_555
C4 O3 1_555 1_555
O1 C1 1_555 1_555
O2 Y1 1_555 1_555
O3 Y1B 1_555 1_555
O4 C4 1_555 1_555
O5 Y1 1_555 1_555
H1 O5 1_555 1_555
H2 O5 1_555 1_555
O6 Y1 1_555 1_555
H3 O6 1_555 1_555
Y1_2 O1E 1_555 1_555
Y1B_2 O4 1_555 1_555
Y1A O1D 1_555 1_555
Y1A_2 O1A 1_555 1_555
Y1C O3A 1_555 1_555
Y1C_2 O4A 1_555 1_555
C1E C2E 1_555 1_555
C1D C2D 1_555 1_555
C1A C2A 1_555 1_555
C2E C3 1_555 1_555
C2D C2E 1_555 1_555
C2A C2 1_555 1_555
C3A C2D 1_555 1_555
C4A C3A 1_555 1_555
O1E C1E 1_555 1_555
O1D C1D 1_555 1_555
O1A C1A 1_555 1_555
O1E_2 Y1 1_555 1_555
O1_2 Y1_2 1_555 1_555
O2E Y1_2 1_555 1_555
O2D Y1A 1_555 1_555
O2A Y1A_2 1_555 1_555
O2E_2 Y1 1_555 1_555
O2_2 Y1_2 1_555 1_555
O3A C4A 1_555 1_555
O3B Y1 1_555 1_555
O3B_2 Y1_2 1_555 1_555
O4A C4A 1_555 1_555
O4B Y1 1_555 1_555
O4B_2 Y1_2 1_555 1_555
O5E Y1 1_555 1_555
O5E_2 Y1_2 1_555 1_555
O5_2 Y1_2 1_555 1_555
H1E O5E 1_555 1_555
H1E_2 O5E_2 1_555 1_555
H1_2 O5_2 1_555 1_555
H2E O5E 1_555 1_555
H2E_2 O5E_2 1_555 1_555
H2_2 O5_2 1_555 1_555
O6_2 Y1_2 1_555 1_555
H3E O6 1_555 1_555
H3E_2 O6_2 1_555 1_555
H3_2 O6_2 1_555 1_555
C1 O2 1_555 1_555
C1E O2E 1_555 1_555
C1D O2D 1_555 1_555
C1A O2A 1_555 1_555
C2A C3A 1_555 1_555

#END
