
#######################################################################
#
#                 Cambridge Crystallographic Data Centre
#                                CCDC 
#
#######################################################################
#
# If this CIF has been generated from an entry in the Cambridge 
# Structural Database, then it will include bibliographic, chemical, 
# crystal, experimental, refinement or atomic coordinate data resulting 
# from the CCDC's data processing and validation procedures.
#
#######################################################################

data_GANKEM
_symmetry_cell_setting           monoclinic
_symmetry_space_group_name_H-M   'P 21/c'
_symmetry_Int_Tables_number      14
_space_group_name_Hall           '-P 2ybc'
loop_
_symmetry_equiv_pos_site_id
_symmetry_equiv_pos_as_xyz
1 x,y,z
2 -x,1/2+y,1/2-z
3 -x,-y,-z
4 x,1/2-y,1/2+z
_cell_length_a                   12.6554(18)
_cell_length_b                   6.9146(10)
_cell_length_c                   7.6681(11)
_cell_angle_alpha                90
_cell_angle_beta                 103.053(2)
_cell_angle_gamma                90
_cell_volume                     653.675
loop_
_atom_site_label
_atom_site_type_symbol
_atom_site_fract_x
_atom_site_fract_y
_atom_site_fract_z
Cu1 Cu 0.0000 0.0000 1.0000
Br1 Br 0.07787(3) 0.21187(6) 0.80933(5)
N1 N -0.1396(3) 0.1434(5) 0.9332(4)
N2 N -0.2360(3) 0.0619(6) 0.8596(6)
N3 N -0.3094(3) 0.1937(6) 0.8300(7)
N4 N -0.2599(3) 0.3626(5) 0.8842(5)
C1 C -0.3203(5) 0.5453(9) 0.8780(11)
H1 H -0.408(2) 0.553(4) 0.916(4)
H2 H -0.270(6) 0.652(10) 0.915(9)
C2 C -0.3922(9) 0.5778(15) 0.7162(15)
H3 H -0.4279 0.6996 0.7203
H4 H -0.4452 0.4761 0.6939
H5 H -0.3534 0.5802 0.6221
C3 C -0.1568(4) 0.3263(7) 0.9451(6)
H6 H -0.111(4) 0.419(7) 0.997(6)
Cu1C Cu 0.0000 0.5000 0.5000
Cu1C_2 Cu 0.0000 0.5000 1.5000
Br1C Br 0.07787(3) 0.28813(6) 1.30933(5)
Br1B Br -0.07787(3) -0.21187(6) 1.19067(5)
Br1A Br -0.07787(3) -0.28813(6) 0.69067(5)
N1B N 0.1396(3) -0.1434(5) 1.0668(4)
N2B N 0.2360(3) -0.0619(6) 1.1404(6)
N3B N 0.3094(3) -0.1937(6) 1.1700(7)
N4B N 0.2599(3) -0.3626(5) 1.1158(5)
C1B C 0.3203(5) -0.5453(9) 1.1220(11)
H1B H 0.408(2) -0.553(4) 1.084(4)
H2B H 0.270(6) -0.652(10) 1.085(9)
C2B C 0.3922(9) -0.5778(15) 1.2838(15)
H3B H 0.4279 -0.6996 1.2797
H4B H 0.4452 -0.4761 1.3061
H5B H 0.3534 -0.5802 1.3779
C3B C 0.1568(4) -0.3263(7) 1.0549(6)
H6B H 0.111(4) -0.419(7) 1.003(6)
loop_
_geom_bond_atom_site_label_1
_geom_bond_atom_site_label_2
_geom_bond_site_symmetry_1
_geom_bond_site_symmetry_2
Cu1 Br1 1_555 1_555
Br1 Cu1C 1_555 1_555
N1 Cu1 1_555 1_555
N2 N1 1_555 1_555
N3 N2 1_555 1_555
N4 N3 1_555 1_555
C1 N4 1_555 1_555
H1 C1 1_555 1_555
H2 C1 1_555 1_555
C2 C1 1_555 1_555
H3 C2 1_555 1_555
H4 C2 1_555 1_555
H5 C2 1_555 1_555
C3 N1 1_555 1_555
H6 C3 1_555 1_555
Cu1C_2 Br1C 1_555 1_555
Br1C Cu1 1_555 1_555
Br1B Cu1 1_555 1_555
Br1A Cu1 1_555 1_555
N1B Cu1 1_555 1_555
N2B N1B 1_555 1_555
N3B N2B 1_555 1_555
N4B N3B 1_555 1_555
C1B N4B 1_555 1_555
H1B C1B 1_555 1_555
H2B C1B 1_555 1_555
C2B C1B 1_555 1_555
H3B C2B 1_555 1_555
H4B C2B 1_555 1_555
H5B C2B 1_555 1_555
C3B N1B 1_555 1_555
H6B C3B 1_555 1_555
N4 C3 1_555 1_555
N4B C3B 1_555 1_555

#END
