
#######################################################################
#
#                 Cambridge Crystallographic Data Centre
#                                CCDC 
#
#######################################################################
#
# If this CIF has been generated from an entry in the Cambridge 
# Structural Database, then it will include bibliographic, chemical, 
# crystal, experimental, refinement or atomic coordinate data resulting 
# from the CCDC's data processing and validation procedures.
#
#######################################################################

data_GANLEO
_symmetry_cell_setting           monoclinic
_symmetry_space_group_name_H-M   'P 21/c'
_symmetry_Int_Tables_number      14
_space_group_name_Hall           '-P 2ybc'
loop_
_symmetry_equiv_pos_site_id
_symmetry_equiv_pos_as_xyz
1 x,y,z
2 -x,1/2+y,1/2-z
3 -x,-y,-z
4 x,1/2-y,1/2+z
_cell_length_a                   9.0746(2)
_cell_length_b                   7.0262(2)
_cell_length_c                   22.6919(6)
_cell_angle_alpha                90
_cell_angle_beta                 93.185(3)
_cell_angle_gamma                90
_cell_volume                     1444.6
loop_
_atom_site_label
_atom_site_type_symbol
_atom_site_fract_x
_atom_site_fract_y
_atom_site_fract_z
Pb1 Pb 0.513121(14) 0.057458(17) 0.305356(5)
O1 O 0.5980(3) 0.4114(3) 0.30020(11)
O2 O 0.4886(3) 0.6925(3) 0.31117(10)
O3 O 0.6052(3) 0.7915(4) 0.59124(11)
O4 O 0.4185(3) 0.8397(4) 0.52393(12)
H1 H 0.365(6) 0.890(8) 0.549(2)
O5 O 0.6896(3) 0.0346(3) 0.38285(11)
N1 N 0.7528(4) -0.0485(4) 0.27073(13)
C1 C 0.5716(4) 0.5570(5) 0.33079(16)
C2 C 0.6368(4) 0.5693(4) 0.39260(16)
C3 C 0.7672(4) 0.4692(5) 0.40797(16)
H2 H 0.8141 0.3966 0.3791
C4 C 0.8270(4) 0.4767(5) 0.46522(17)
H3 H 0.9160 0.4104 0.4754
C5 C 0.7586(4) 0.5801(5) 0.50806(17)
H4 H 0.8006 0.5848 0.5473
C6 C 0.6275(4) 0.6774(5) 0.49317(15)
C7 C 0.5672(4) 0.6744(5) 0.43551(15)
H5 H 0.4794 0.7432 0.4253
C8 C 0.5498(4) 0.7761(5) 0.54049(16)
C9 C 0.7848(4) -0.0880(5) 0.21594(16)
H6 H 0.7081 -0.0799 0.1858
C10 C 0.9255(4) -0.1409(5) 0.19995(17)
H7 H 0.9432 -0.1670 0.1599
C11 C 1.0383(4) -0.1548(5) 0.24300(16)
H8 H 1.1352 -0.1870 0.2327
C12 C 1.0090(4) -0.1206(5) 0.30261(16)
C13 C 1.1178(4) -0.1327(5) 0.34965(17)
H9 H 1.2155 -0.1707 0.3422
C14 C 1.0821(4) -0.0899(5) 0.40557(18)
H10 H 1.1558 -0.0983 0.4369
C15 C 0.9372(4) -0.0329(5) 0.41800(18)
H11 H 0.9155 -0.0037 0.4575
C16 C 0.8271(4) -0.0193(5) 0.37373(17)
C17 C 0.8635(4) -0.0657(4) 0.31489(16)
Pb1A Pb 0.486879(14) 0.557458(17) 0.194644(5)
Pb1_2 Pb 0.513121(14) 1.057458(17) 0.305356(5)
Pb1B Pb 0.486879(14) 0.942542(17) 0.694644(5)
O1A O 0.4020(3) -0.0886(3) 0.19980(11)
O2_2 O 0.4886(3) -0.3075(3) 0.31117(10)
O2A O 0.5114(3) 0.1925(3) 0.18883(10)
O3B O 0.3948(3) 0.2085(4) 0.40876(11)
loop_
_geom_bond_atom_site_label_1
_geom_bond_atom_site_label_2
_geom_bond_site_symmetry_1
_geom_bond_site_symmetry_2
Pb1 O1 1_555 1_555
O1 C1 1_555 1_555
O2 C1 1_555 1_555
O3 C8 1_555 1_555
O4 H1 1_555 1_555
O5 Pb1 1_555 1_555
N1 Pb1 1_555 1_555
C1 C2 1_555 1_555
C2 C3 1_555 1_555
C3 H2 1_555 1_555
C4 C3 1_555 1_555
H3 C4 1_555 1_555
C5 C4 1_555 1_555
H4 C5 1_555 1_555
C6 C5 1_555 1_555
C7 C2 1_555 1_555
H5 C7 1_555 1_555
C8 O4 1_555 1_555
C9 N1 1_555 1_555
H6 C9 1_555 1_555
C10 C9 1_555 1_555
H7 C10 1_555 1_555
C11 C10 1_555 1_555
H8 C11 1_555 1_555
C12 C11 1_555 1_555
C13 C12 1_555 1_555
H9 C13 1_555 1_555
C14 C13 1_555 1_555
H10 C14 1_555 1_555
C15 C14 1_555 1_555
H11 C15 1_555 1_555
C16 O5 1_555 1_555
C17 N1 1_555 1_555
Pb1A O1 1_555 1_555
Pb1_2 O2 1_555 1_555
Pb1B O3 1_555 1_555
O1A Pb1 1_555 1_555
O2_2 Pb1 1_555 1_555
O2A Pb1 1_555 1_555
O3B Pb1 1_555 1_555
O2 Pb1A 1_555 1_555
C6 C7 1_555 1_555
C6 C8 1_555 1_555
C12 C17 1_555 1_555
C15 C16 1_555 1_555
C16 C17 1_555 1_555
Pb1A O2A 1_555 1_555

#END
