
#######################################################################
#
#                 Cambridge Crystallographic Data Centre
#                                CCDC 
#
#######################################################################
#
# If this CIF has been generated from an entry in the Cambridge 
# Structural Database, then it will include bibliographic, chemical, 
# crystal, experimental, refinement or atomic coordinate data resulting 
# from the CCDC's data processing and validation procedures.
#
#######################################################################

data_GANPOC
_symmetry_cell_setting           monoclinic
_symmetry_space_group_name_H-M   'P 21/c'
_symmetry_Int_Tables_number      14
_space_group_name_Hall           '-P 2ybc'
loop_
_symmetry_equiv_pos_site_id
_symmetry_equiv_pos_as_xyz
1 x,y,z
2 -x,1/2+y,1/2-z
3 -x,-y,-z
4 x,1/2-y,1/2+z
_cell_length_a                   17.0586(8)
_cell_length_b                   8.5289(4)
_cell_length_c                   24.8249(12)
_cell_angle_alpha                90
_cell_angle_beta                 101.4310(10)
_cell_angle_gamma                90
_cell_volume                     3540.16
loop_
_atom_site_label
_atom_site_type_symbol
_atom_site_fract_x
_atom_site_fract_y
_atom_site_fract_z
Cu1 Cu 0.493960(16) -0.48264(4) -0.400800(11)
O1 O 0.38597(10) -0.5661(2) -0.41566(7)
O2 O 0.36751(10) -0.3917(2) -0.48368(8)
O3 O -0.09251(12) -0.8786(3) -0.50096(9)
O4 O -0.21233(15) -0.6806(4) -0.64681(11)
O5 O 0.60299(10) -0.4094(2) -0.38366(7)
O6 O 0.58603(12) -0.2588(2) -0.45819(8)
O7 O 1.06507(12) 0.0617(3) -0.37313(9)
O8 O 1.18499(14) -0.1316(3) -0.22743(11)
O9 O 0.47008(12) -0.1514(2) -0.18023(7)
O10 O 0.52061(10) -0.6361(2) -0.45372(7)
H1 H 0.5605(14) -0.617(4) -0.4678(14)
H2 H 0.4840(13) -0.667(4) -0.4790(9)
N1 N 0.02254(12) -0.7067(3) -0.51815(9)
H3 H 0.0014(18) -0.770(3) -0.4972(11)
N2 N -0.02628(12) -0.6553(3) -0.56197(9)
N3 N 0.94860(12) -0.1041(3) -0.35387(9)
H4 H 0.9672(16) -0.032(3) -0.3730(10)
N4 N 0.99542(13) -0.1448(3) -0.30829(9)
N5 N 0.45847(12) -0.3032(2) -0.35739(8)
N6 N 0.38353(12) -0.3543(2) -0.19844(8)
C1 C 0.34316(14) -0.4984(3) -0.45702(10)
C2 C 0.25803(14) -0.5518(3) -0.47343(10)
C3 C 0.20856(15) -0.4890(3) -0.51930(10)
H5 H 0.2287 -0.4132 -0.5398
C4 C 0.13017(15) -0.5361(3) -0.53530(10)
H6 H 0.0973 -0.4922 -0.5660
C5 C 0.10120(14) -0.6508(3) -0.50461(10)
C6 C 0.14959(15) -0.7147(3) -0.45856(10)
H7 H 0.1295 -0.7904 -0.4380
C7 C 0.22789(14) -0.6655(3) -0.44318(10)
H8 H 0.2606 -0.7090 -0.4124
C8 C -0.22150(17) -0.8679(4) -0.55635(15)
H9 H -0.2343 -0.9325 -0.5276
H10 H -0.2309 -0.9257 -0.5902
H11 H -0.2545 -0.7759 -0.5605
C9 C -0.13527(16) -0.8207(3) -0.54188(12)
C10 C -0.10051(15) -0.7068(3) -0.57505(11)
C11 C -0.14498(19) -0.6370(4) -0.62677(12)
C12 C -0.1043(2) -0.5150(4) -0.65505(14)
H12 H -0.1396 -0.4822 -0.6882
H13 H -0.0565 -0.5582 -0.6639
H14 H -0.0908 -0.4264 -0.6311
C13 C 0.62698(14) -0.3116(3) -0.41563(11)
C14 C 0.71265(14) -0.2585(3) -0.39830(10)
C15 C 0.74303(15) -0.1475(3) -0.42914(11)
H15 H 0.7104 -0.1061 -0.4604
C16 C 0.82117(15) -0.0975(3) -0.41407(11)
H16 H 0.8413 -0.0231 -0.4351
C17 C 0.86936(14) -0.1588(3) -0.36733(10)
C18 C 0.83995(15) -0.2704(3) -0.33623(11)
H17 H 0.8726 -0.3118 -0.3050
C19 C 0.76182(15) -0.3198(3) -0.35189(11)
H18 H 0.7419 -0.3951 -0.3311
C20 C 1.18795(18) 0.0784(4) -0.31177(14)
H19 H 1.1998 0.1489 -0.3392
H20 H 1.2250 -0.0075 -0.3073
H21 H 1.1924 0.1332 -0.2775
C21 C 1.10464(16) 0.0172(3) -0.32939(12)
C22 C 1.06958(15) -0.0916(3) -0.29522(11)
C23 C 1.11461(18) -0.1556(4) -0.24274(13)
C24 C 1.0711(3) -0.2526(6) -0.20768(17)
H22 H 1.1056 -0.2718 -0.1728
H23 H 1.0557 -0.3507 -0.2256
H24 H 1.0243 -0.1974 -0.2022
C25 C 0.44230(16) -0.1607(3) -0.37908(11)
H25 H 0.4471 -0.1437 -0.4153
C26 C 0.41883(17) -0.0381(3) -0.34991(12)
H26 H 0.4089 0.0603 -0.3660
C27 C 0.41020(15) -0.0634(3) -0.29643(11)
H27 H 0.3941 0.0176 -0.2760
C28 C 0.42588(14) -0.2116(3) -0.27346(10)
C29 C 0.44957(14) -0.3274(3) -0.30584(10)
H28 H 0.4598 -0.4271 -0.2909
C30 C 0.42650(14) -0.2373(3) -0.21330(10)
C31 C 0.32376(16) -0.4452(4) -0.23645(12)
H29 H 0.3136 -0.3940 -0.2720
H30 H 0.2741 -0.4455 -0.2230
C32 C 0.3491(2) -0.6144(4) -0.24355(15)
H31 H 0.3077 -0.6675 -0.2688
H32 H 0.3579 -0.6668 -0.2087
H33 H 0.3976 -0.6153 -0.2577
C33 C 0.38618(16) -0.3805(3) -0.13947(10)
H34 H 0.4378 -0.3471 -0.1188
H35 H 0.3807 -0.4918 -0.1330
C34 C 0.32118(18) -0.2931(4) -0.11902(12)
H36 H 0.3255 -0.3129 -0.0805
H37 H 0.2699 -0.3280 -0.1386
H38 H 0.3267 -0.1828 -0.1249
Cu1A Cu 0.506040(16) 0.01736(4) -0.099200(11)
O9A O 0.52992(12) -0.6514(2) -0.31977(7)
loop_
_geom_bond_atom_site_label_1
_geom_bond_atom_site_label_2
_geom_bond_site_symmetry_1
_geom_bond_site_symmetry_2
Cu1 O1 1_555 1_555
O1 C1 1_555 1_555
O2 C1 1_555 1_555
O3 C9 1_555 1_555
O4 C11 1_555 1_555
O5 Cu1 1_555 1_555
O6 C13 1_555 1_555
O7 C21 1_555 1_555
O8 C23 1_555 1_555
O9 C30 1_555 1_555
O10 Cu1 1_555 1_555
H1 O10 1_555 1_555
H2 O10 1_555 1_555
N1 H3 1_555 1_555
N2 N1 1_555 1_555
N3 H4 1_555 1_555
N4 N3 1_555 1_555
N5 Cu1 1_555 1_555
N6 C30 1_555 1_555
C1 C2 1_555 1_555
C2 C3 1_555 1_555
C3 H5 1_555 1_555
C4 C3 1_555 1_555
H6 C4 1_555 1_555
C5 N1 1_555 1_555
C6 C5 1_555 1_555
H7 C6 1_555 1_555
C7 C2 1_555 1_555
H8 C7 1_555 1_555
C8 H9 1_555 1_555
H10 C8 1_555 1_555
H11 C8 1_555 1_555
C9 C8 1_555 1_555
C10 N2 1_555 1_555
C11 C10 1_555 1_555
C12 C11 1_555 1_555
H12 C12 1_555 1_555
H13 C12 1_555 1_555
H14 C12 1_555 1_555
C13 O5 1_555 1_555
C14 C13 1_555 1_555
C15 C14 1_555 1_555
H15 C15 1_555 1_555
C16 C15 1_555 1_555
H16 C16 1_555 1_555
C17 N3 1_555 1_555
C18 C17 1_555 1_555
H17 C18 1_555 1_555
C19 C14 1_555 1_555
H18 C19 1_555 1_555
C20 H19 1_555 1_555
H20 C20 1_555 1_555
H21 C20 1_555 1_555
C21 C20 1_555 1_555
C22 N4 1_555 1_555
C23 C22 1_555 1_555
C24 C23 1_555 1_555
H22 C24 1_555 1_555
H23 C24 1_555 1_555
H24 C24 1_555 1_555
C25 N5 1_555 1_555
H25 C25 1_555 1_555
C26 C25 1_555 1_555
H26 C26 1_555 1_555
C27 C26 1_555 1_555
H27 C27 1_555 1_555
C28 C27 1_555 1_555
C29 N5 1_555 1_555
H28 C29 1_555 1_555
C30 C28 1_555 1_555
C31 N6 1_555 1_555
H29 C31 1_555 1_555
H30 C31 1_555 1_555
C32 C31 1_555 1_555
H31 C32 1_555 1_555
H32 C32 1_555 1_555
H33 C32 1_555 1_555
C33 N6 1_555 1_555
H34 C33 1_555 1_555
H35 C33 1_555 1_555
C34 C33 1_555 1_555
H36 C34 1_555 1_555
H37 C34 1_555 1_555
H38 C34 1_555 1_555
Cu1A O9 1_555 1_555
O9A Cu1 1_555 1_555
C4 C5 1_555 1_555
C6 C7 1_555 1_555
C9 C10 1_555 1_555
C16 C17 1_555 1_555
C18 C19 1_555 1_555
C21 C22 1_555 1_555
C28 C29 1_555 1_555

#END
