
#######################################################################
#
#                 Cambridge Crystallographic Data Centre
#                                CCDC 
#
#######################################################################
#
# If this CIF has been generated from an entry in the Cambridge 
# Structural Database, then it will include bibliographic, chemical, 
# crystal, experimental, refinement or atomic coordinate data resulting 
# from the CCDC's data processing and validation procedures.
#
#######################################################################

data_GANQOD
_symmetry_cell_setting           monoclinic
_symmetry_space_group_name_H-M   'C 2/c'
_symmetry_Int_Tables_number      15
_space_group_name_Hall           '-C 2yn'
loop_
_symmetry_equiv_pos_site_id
_symmetry_equiv_pos_as_xyz
1 x,y,z
2 -x,y,1/2-z
3 1/2+x,1/2+y,z
4 1/2-x,1/2+y,1/2-z
5 -x,-y,-z
6 x,-y,1/2+z
7 1/2-x,1/2-y,-z
8 1/2+x,1/2-y,1/2+z
_cell_length_a                   20.5440(12)
_cell_length_b                   7.5708(3)
_cell_length_c                   13.4274(7)
_cell_angle_alpha                90
_cell_angle_beta                 95.176(5)
_cell_angle_gamma                90
_cell_volume                     2079.91
loop_
_atom_site_label
_atom_site_type_symbol
_atom_site_fract_x
_atom_site_fract_y
_atom_site_fract_z
Co1 Co 0.2500 0.2500 0.5000
N1 N 0.30569(8) 0.4522(2) 0.44450(13)
C1 C 0.33565(9) 0.5317(3) 0.39083(14)
S1 S 0.37746(3) 0.64359(9) 0.31502(4)
N2 N 0.16009(7) 0.3899(2) 0.45687(11)
C2 C 0.10533(9) 0.3059(3) 0.42263(15)
H1 H 0.1051 0.1831 0.4236
C3 C 0.04904(9) 0.3927(3) 0.38589(15)
H2 H 0.0123 0.3283 0.3625
C4 C 0.04733(9) 0.5744(3) 0.38384(14)
C5 C 0.10384(10) 0.6616(3) 0.42123(17)
H3 H 0.1050 0.7844 0.4224
C6 C 0.15805(10) 0.5664(3) 0.45640(16)
H4 H 0.1952 0.6279 0.4812
C7 C -0.01223(10) 0.6752(4) 0.34160(16)
H5 H -0.0263 0.7532 0.3928
H6 H -0.0474 0.5923 0.3238
C8 C 0.0000 0.7841(4) 0.2500
H7 H 0.0375 0.8597 0.2666
O1 O 0.24410(8) 0.1222(3) 0.35756(11)
H8 H 0.2117(13) 0.118(4) 0.328(2)
C9 C 0.29545(11) 0.1156(4) 0.29272(18)
H9 H 0.2931 0.2178 0.2502
H10 H 0.2909 0.0109 0.2524
H11 H 0.3369 0.1138 0.3319
Co1A Co -0.2500 0.2500 0.0000
N1F N 0.19431(8) 0.0478(2) 0.55550(13)
C1F C 0.16435(9) -0.0317(3) 0.60917(14)
S1F S 0.12254(3) -0.14359(9) 0.68498(4)
N2A N -0.16009(7) 0.3899(2) 0.04313(11)
N2F N 0.33991(7) 0.1101(2) 0.54313(11)
C2A C -0.10533(9) 0.3059(3) 0.07737(15)
H1A H -0.1051 0.1831 0.0764
C3A C -0.04904(9) 0.3927(3) 0.11411(15)
H2A H -0.0123 0.3283 0.1375
C4A C -0.04733(9) 0.5744(3) 0.11616(14)
C5A C -0.10384(10) 0.6616(3) 0.07877(17)
H3A H -0.1050 0.7844 0.0776
C6A C -0.15805(10) 0.5664(3) 0.04360(16)
H4A H -0.1952 0.6279 0.0188
C7A C 0.01223(10) 0.6752(4) 0.15840(16)
H5A H 0.0263 0.7532 0.1072
H6A H 0.0474 0.5923 0.1762
H7A H -0.0375 0.8597 0.2334
O1F O 0.25590(8) 0.3778(3) 0.64244(11)
H8F H 0.2883(13) 0.382(4) 0.672(2)
C9F C 0.20455(11) 0.3844(4) 0.70728(18)
H9F H 0.2069 0.2822 0.7498
H10F H 0.2091 0.4891 0.7476
H11F H 0.1631 0.3862 0.6681
loop_
_geom_bond_atom_site_label_1
_geom_bond_atom_site_label_2
_geom_bond_site_symmetry_1
_geom_bond_site_symmetry_2
Co1 N1 1_555 1_555
N1 C1 1_555 1_555
C1 S1 1_555 1_555
N2 Co1 1_555 1_555
C2 N2 1_555 1_555
H1 C2 1_555 1_555
C3 C2 1_555 1_555
H2 C3 1_555 1_555
C4 C3 1_555 1_555
C5 C4 1_555 1_555
H3 C5 1_555 1_555
C6 N2 1_555 1_555
H4 C6 1_555 1_555
C7 C4 1_555 1_555
H5 C7 1_555 1_555
H6 C7 1_555 1_555
C8 C7 1_555 1_555
H7 C8 1_555 1_555
O1 Co1 1_555 1_555
H8 O1 1_555 1_555
C9 O1 1_555 1_555
H9 C9 1_555 1_555
H10 C9 1_555 1_555
H11 C9 1_555 1_555
Co1A N2A 1_555 1_555
N1F Co1 1_555 1_555
C1F N1F 1_555 1_555
S1F C1F 1_555 1_555
N2A C2A 1_555 1_555
N2F Co1 1_555 1_555
C2A H1A 1_555 1_555
C3A C2A 1_555 1_555
H2A C3A 1_555 1_555
C4A C3A 1_555 1_555
C5A C4A 1_555 1_555
H3A C5A 1_555 1_555
C6A N2A 1_555 1_555
H4A C6A 1_555 1_555
C7A C8 1_555 1_555
H5A C7A 1_555 1_555
H6A C7A 1_555 1_555
H7A C8 1_555 1_555
O1F Co1 1_555 1_555
H8F O1F 1_555 1_555
C9F O1F 1_555 1_555
H9F C9F 1_555 1_555
H10F C9F 1_555 1_555
H11F C9F 1_555 1_555
C5 C6 1_555 1_555
C4A C7A 1_555 1_555
C5A C6A 1_555 1_555

#END
