
#######################################################################
#
#                 Cambridge Crystallographic Data Centre
#                                CCDC 
#
#######################################################################
#
# If this CIF has been generated from an entry in the Cambridge 
# Structural Database, then it will include bibliographic, chemical, 
# crystal, experimental, refinement or atomic coordinate data resulting 
# from the CCDC's data processing and validation procedures.
#
#######################################################################

data_GAPDAE
_symmetry_cell_setting           triclinic
_symmetry_space_group_name_H-M   'P -1'
_symmetry_Int_Tables_number      2
_space_group_name_Hall           '-P 1'
loop_
_symmetry_equiv_pos_site_id
_symmetry_equiv_pos_as_xyz
1 x,y,z
2 -x,-y,-z
_cell_length_a                   7.6518(3)
_cell_length_b                   11.3553(5)
_cell_length_c                   13.5294(6)
_cell_angle_alpha                77.2436(14)
_cell_angle_beta                 85.6236(13)
_cell_angle_gamma                73.3105(13)
_cell_volume                     1098.13
loop_
_atom_site_label
_atom_site_type_symbol
_atom_site_fract_x
_atom_site_fract_y
_atom_site_fract_z
Zn1 Zn 0.63992(3) 0.83763(2) 0.070119(16)
Zn2 Zn 0.26901(4) 0.60896(2) 0.918931(17)
O1 O 0.54606(19) 0.99522(13) 0.12262(11)
O2 O 0.3096(2) 1.16123(14) 0.07830(10)
O3 O 0.1731(2) 1.04925(14) 0.55209(10)
O4 O 0.1231(2) 0.89307(14) 0.90191(11)
O5 O 0.2209(2) 0.75470(14) 0.80329(11)
O6 O 0.5517(2) 0.57863(14) 0.89038(11)
O7 O 0.7337(2) 0.38375(14) 0.93679(10)
O8 O 0.8141(2) 0.43774(14) 0.46231(10)
O9 O 0.7217(2) 0.55924(13) 0.10884(11)
O10 O 0.7013(2) 0.70540(13) 0.19529(11)
O11 O 0.9003(2) 0.86744(15) 0.07296(12)
H1 H 0.959(3) 0.860(2) 0.0192(13)
H2 H 0.888(4) 0.9382(14) 0.0853(18)
O12 O 0.3716(2) 0.83032(16) 0.06475(12)
H3 H 0.328(4) 0.870(2) 0.0085(12)
H4 H 0.361(4) 0.7572(12) 0.077(2)
O13 O -0.0265(2) 0.62923(17) 0.93647(14)
H5 H -0.105(3) 0.6968(18) 0.9157(19)
H6 H -0.048(4) 0.600(3) 0.9969(10)
C1 C 0.4045(3) 1.07348(18) 0.14434(14)
C2 C 0.3465(3) 1.06585(18) 0.25246(14)
C3 C 0.2374(3) 1.17051(19) 0.28675(15)
H7 H 0.1999 1.2472 0.2413
C4 C 0.1841(3) 1.16205(19) 0.38719(15)
H8 H 0.1133 1.2332 0.4092
C5 C 0.2360(3) 1.0472(2) 0.45583(15)
C6 C 0.3438(3) 0.9416(2) 0.42285(16)
H9 H 0.3781 0.8646 0.4681
C7 C 0.4005(3) 0.9514(2) 0.32176(16)
H10 H 0.4751 0.8810 0.3002
C8 C 0.2217(3) 0.93520(19) 0.62779(15)
H11 H 0.3531 0.9033 0.6343
H12 H 0.1750 0.8713 0.6108
C9 C 0.1340(3) 0.97182(19) 0.72457(15)
H13 H 0.1824 1.0365 0.7386
H14 H 0.0040 1.0082 0.7139
C10 C 0.1618(3) 0.86549(19) 0.81669(14)
C11 C 0.6559(3) 0.4798(2) 0.86980(15)
C12 C 0.6964(3) 0.46932(19) 0.76157(14)
C13 C 0.6249(3) 0.57192(19) 0.68433(15)
H15 H 0.5507 0.6458 0.7007
C14 C 0.6621(3) 0.5661(2) 0.58321(15)
H16 H 0.6153 0.6361 0.5324
C15 C 0.7701(3) 0.4548(2) 0.55855(15)
C16 C 0.8419(3) 0.3509(2) 0.63521(16)
H17 H 0.9131 0.2762 0.6187
C17 C 0.8074(3) 0.3587(2) 0.73571(15)
H18 H 0.8584 0.2899 0.7866
C18 C 0.7454(3) 0.54209(19) 0.38040(14)
H19 H 0.7940 0.6114 0.3831
H20 H 0.6133 0.5708 0.3838
C19 C 0.8078(3) 0.49400(19) 0.28414(14)
H21 H 0.9401 0.4677 0.2815
H22 H 0.7653 0.4210 0.2854
C20 C 0.7379(3) 0.59226(18) 0.18999(14)
Zn1A Zn 0.36008(3) 1.16237(2) -0.070119(16)
Zn2A Zn 0.73099(4) 0.39104(2) 1.081069(17)
Zn2A_2 Zn 0.73099(4) 0.39104(2) 0.081069(17)
O2A O 0.6904(2) 0.83877(14) -0.07830(10)
O7A O 0.2663(2) 0.61625(14) 1.06321(10)
O9A O 0.2783(2) 0.44076(13) 0.89116(11)
loop_
_geom_bond_atom_site_label_1
_geom_bond_atom_site_label_2
_geom_bond_site_symmetry_1
_geom_bond_site_symmetry_2
Zn1 O1 1_555 1_555
Zn2 O5 1_555 1_555
O1 C1 1_555 1_555
O2 C1 1_555 1_555
O3 C5 1_555 1_555
O4 C10 1_555 1_555
O5 C10 1_555 1_555
O6 Zn2 1_555 1_555
O7 C11 1_555 1_555
O8 C15 1_555 1_555
O9 C20 1_555 1_555
O10 Zn1 1_555 1_555
O11 Zn1 1_555 1_555
H1 O11 1_555 1_555
H2 O11 1_555 1_555
O12 Zn1 1_555 1_555
H3 O12 1_555 1_555
H4 O12 1_555 1_555
O13 Zn2 1_555 1_555
H5 O13 1_555 1_555
H6 O13 1_555 1_555
C1 C2 1_555 1_555
C2 C3 1_555 1_555
C3 H7 1_555 1_555
C4 C3 1_555 1_555
H8 C4 1_555 1_555
C5 C4 1_555 1_555
C6 C5 1_555 1_555
H9 C6 1_555 1_555
C7 C2 1_555 1_555
H10 C7 1_555 1_555
C8 O3 1_555 1_555
H11 C8 1_555 1_555
H12 C8 1_555 1_555
C9 C8 1_555 1_555
H13 C9 1_555 1_555
H14 C9 1_555 1_555
C10 C9 1_555 1_555
C11 O6 1_555 1_555
C12 C11 1_555 1_555
C13 C12 1_555 1_555
H15 C13 1_555 1_555
C14 C13 1_555 1_555
H16 C14 1_555 1_555
C15 C14 1_555 1_555
C16 C15 1_555 1_555
H17 C16 1_555 1_555
C17 C12 1_555 1_555
H18 C17 1_555 1_555
C18 O8 1_555 1_555
H19 C18 1_555 1_555
H20 C18 1_555 1_555
C19 C18 1_555 1_555
H21 C19 1_555 1_555
H22 C19 1_555 1_555
C20 O10 1_555 1_555
Zn1A O2 1_555 1_555
Zn2A O7 1_555 1_555
Zn2A_2 O9 1_555 1_555
O2A Zn1 1_555 1_555
O7A Zn2 1_555 1_555
O9A Zn2 1_555 1_555
C6 C7 1_555 1_555
C16 C17 1_555 1_555
C19 C20 1_555 1_555

#END
