
#######################################################################
#
#                 Cambridge Crystallographic Data Centre
#                                CCDC 
#
#######################################################################
#
# If this CIF has been generated from an entry in the Cambridge 
# Structural Database, then it will include bibliographic, chemical, 
# crystal, experimental, refinement or atomic coordinate data resulting 
# from the CCDC's data processing and validation procedures.
#
#######################################################################

data_GAPQOE
_symmetry_cell_setting           monoclinic
_symmetry_space_group_name_H-M   'P 21/c'
_symmetry_Int_Tables_number      14
_space_group_name_Hall           '-P 2ybc'
loop_
_symmetry_equiv_pos_site_id
_symmetry_equiv_pos_as_xyz
1 x,y,z
2 -x,1/2+y,1/2-z
3 -x,-y,-z
4 x,1/2-y,1/2+z
_cell_length_a                   12.4417(18)
_cell_length_b                   8.5081(12)
_cell_length_c                   22.708(3)
_cell_angle_alpha                90
_cell_angle_beta                 90.995(2)
_cell_angle_gamma                90
_cell_volume                     2403.4
loop_
_atom_site_label
_atom_site_type_symbol
_atom_site_fract_x
_atom_site_fract_y
_atom_site_fract_z
O7 O 0.4505(6) -0.5559(18) 0.9400(6)
H31 H 0.4446 -0.6489 0.9263
H32 H 0.4475 -0.4992 0.9641
Ag1 Ag 0.19909(3) 0.13347(4) 0.156180(15)
N1 N 0.2462(3) 0.3245(5) 0.03765(19)
O1 O 0.1835(3) 0.3549(4) 0.07817(16)
O2 O 0.2465(3) 0.4117(6) -0.00687(19)
O3 O 0.3067(3) 0.2080(5) 0.04110(18)
C1 C 0.1774(3) -0.2711(5) 0.29518(18)
C2 C 0.0751(3) -0.1991(5) 0.29152(17)
C3 C 0.0367(3) -0.1218(5) 0.34110(19)
H1 H -0.0308 -0.0748 0.3392
C4 C 0.0964(4) -0.1130(5) 0.39308(19)
H2 H 0.0696 -0.0597 0.4254
C5 C 0.1968(4) -0.1847(6) 0.39644(19)
H3 H 0.2374 -0.1797 0.4312
C6 C 0.2360(3) -0.2633(5) 0.34816(19)
H4 H 0.3028 -0.3120 0.3510
C7 C 0.2254(3) -0.3515(5) 0.2429(2)
H5 H 0.2941 -0.3979 0.2540
H6 H 0.1781 -0.4348 0.2291
O4 O 0.2398(2) -0.2393(4) 0.19748(13)
C8 C 0.2832(3) -0.3081(5) 0.14562(18)
H7 H 0.2465 -0.4059 0.1366
H8 H 0.3590 -0.3305 0.1518
C9 C 0.2684(3) -0.1936(6) 0.09517(19)
H9 H 0.3035 -0.0952 0.1053
H10 H 0.3029 -0.2355 0.0606
C10 C 0.1517(4) -0.1622(5) 0.08076(18)
C11 C 0.0935(4) -0.2688(5) 0.04596(18)
H11 H 0.1267 -0.3585 0.0315
C12 C -0.0140(4) -0.2402(6) 0.03307(19)
H12 H -0.0534 -0.3093 0.0094
C13 C -0.0617(4) -0.1076(6) 0.0558(2)
H13 H -0.1338 -0.0862 0.0480
C14 C -0.0003(4) -0.0070(5) 0.09067(18)
H14 H -0.0327 0.0822 0.1061
N2 N 0.1054(3) -0.0334(4) 0.10319(15)
C15 C 0.0094(3) -0.1974(6) 0.23519(18)
H15 H 0.0064 -0.0914 0.2195
H16 H 0.0427 -0.2646 0.2062
O5 O -0.0970(2) -0.2519(4) 0.24647(12)
C16 C -0.1593(3) -0.2519(5) 0.19312(18)
H17 H -0.1181 -0.2986 0.1618
H18 H -0.1765 -0.1446 0.1820
C17 C -0.2631(3) -0.3448(5) 0.2012(2)
H19 H -0.2934 -0.3697 0.1627
H20 H -0.2458 -0.4433 0.2207
C18 C -0.3470(3) -0.2605(5) 0.2364(2)
C19 C -0.4340(3) -0.1883(6) 0.2083(2)
H21 H -0.4403 -0.1895 0.1674
C20 C -0.5117(4) -0.1142(5) 0.2419(3)
H22 H -0.5711 -0.0674 0.2237
C21 C -0.4999(4) -0.1110(6) 0.3017(3)
H23 H -0.5500 -0.0600 0.3248
C22 C -0.4107(3) -0.1860(6) 0.3273(2)
H24 H -0.4029 -0.1851 0.3681
N3 N -0.3356(3) -0.2593(4) 0.29537(17)
Ag1A Ag -0.19909(3) -0.36653(4) 0.343820(15)
N3A N 0.3356(3) 0.2407(4) 0.20463(17)
C23? C 0.4925(9) -0.9302(16) -0.0261(5)
O6? O 0.4976(7) -0.8282(13) -0.0639(4)
C24? C 0.5532(6) -0.9131(11) 0.0351(3)
H25? H 0.5409 -1.0030 0.0593
H26? H 0.6299 -0.9031 0.0287
H27? H 0.5292 -0.8198 0.0551
H28? H 0.5905 -0.9081 0.0729
H29? H 0.6044 -0.8905 0.0048
H30? H 0.4977 -0.8354 0.0341
loop_
_geom_bond_atom_site_label_1
_geom_bond_atom_site_label_2
_geom_bond_site_symmetry_1
_geom_bond_site_symmetry_2
Ag1 O1 1_555 1_555
N1 O1 1_555 1_555
O2 N1 1_555 1_555
O3 N1 1_555 1_555
C1 C2 1_555 1_555
C2 C3 1_555 1_555
C3 H1 1_555 1_555
C4 C3 1_555 1_555
H2 C4 1_555 1_555
C5 C4 1_555 1_555
H3 C5 1_555 1_555
C6 C1 1_555 1_555
H4 C6 1_555 1_555
C7 C1 1_555 1_555
H5 C7 1_555 1_555
H6 C7 1_555 1_555
O4 C7 1_555 1_555
C8 O4 1_555 1_555
H7 C8 1_555 1_555
H8 C8 1_555 1_555
C9 C8 1_555 1_555
H9 C9 1_555 1_555
H10 C9 1_555 1_555
C10 C9 1_555 1_555
C11 C10 1_555 1_555
H11 C11 1_555 1_555
C12 C11 1_555 1_555
H12 C12 1_555 1_555
C13 C12 1_555 1_555
H13 C13 1_555 1_555
C14 C13 1_555 1_555
H14 C14 1_555 1_555
N2 Ag1 1_555 1_555
C15 C2 1_555 1_555
H15 C15 1_555 1_555
H16 C15 1_555 1_555
O5 C15 1_555 1_555
C16 O5 1_555 1_555
H17 C16 1_555 1_555
H18 C16 1_555 1_555
C17 C16 1_555 1_555
H19 C17 1_555 1_555
H20 C17 1_555 1_555
C18 C17 1_555 1_555
C19 C18 1_555 1_555
H21 C19 1_555 1_555
C20 C19 1_555 1_555
H22 C20 1_555 1_555
C21 C20 1_555 1_555
H23 C21 1_555 1_555
C22 C21 1_555 1_555
H24 C22 1_555 1_555
N3 C18 1_555 1_555
O7 H31 1_555 1_555
H32 O7 1_555 1_555
Ag1A N3 1_555 1_555
N3A Ag1 1_555 1_555
C5 C6 1_555 1_555
C10 N2 1_555 1_555
C14 N2 1_555 1_555
C22 N3 1_555 1_555

#END
