
#######################################################################
#
#                 Cambridge Crystallographic Data Centre
#                                CCDC 
#
#######################################################################
#
# If this CIF has been generated from an entry in the Cambridge 
# Structural Database, then it will include bibliographic, chemical, 
# crystal, experimental, refinement or atomic coordinate data resulting 
# from the CCDC's data processing and validation procedures.
#
#######################################################################

data_GAPQEU
_symmetry_cell_setting           monoclinic
_symmetry_space_group_name_H-M   'P 21/c'
_symmetry_Int_Tables_number      14
_space_group_name_Hall           '-P 2ybc'
loop_
_symmetry_equiv_pos_site_id
_symmetry_equiv_pos_as_xyz
1 x,y,z
2 -x,1/2+y,1/2-z
3 -x,-y,-z
4 x,1/2-y,1/2+z
_cell_length_a                   27.947(9)
_cell_length_b                   20.367(6)
_cell_length_c                   15.730(5)
_cell_angle_alpha                90
_cell_angle_beta                 90.572(5)
_cell_angle_gamma                90
_cell_volume                     8953.02
loop_
_atom_site_label
_atom_site_type_symbol
_atom_site_fract_x
_atom_site_fract_y
_atom_site_fract_z
Ho1 Ho 1.206855(14) 0.27889(2) 0.49684(2)
Ho2 Ho 1.242784(13) 0.250237(19) 0.73325(2)
Ho3 Ho 1.218430(15) 0.069020(19) 0.16096(2)
Ho4 Ho 0.733949(13) 0.192412(18) 0.66139(2)
Ho5 Ho 0.726875(13) 0.232878(19) 0.92785(2)
O1 O 1.1728(2) 0.2399(3) 0.6533(5)
O2 O 1.1599(2) 0.1877(3) 0.5341(4)
O3 O 0.9908(3) 0.0705(4) 0.7489(6)
O4 O 0.7918(2) 0.2234(3) 0.7536(4)
O5 O 0.7967(2) 0.1818(3) 0.8827(4)
O6 O 1.1864(2) 0.2375(3) 0.3581(4)
O7 O 1.1955(2) 0.1546(3) 0.2716(4)
O8 O 0.9931(2) 0.0741(3) 0.4148(5)
O9 O 0.7843(2) 0.1894(3) 0.4406(4)
O10 O 0.7959(2) 0.1619(3) 0.5749(4)
O11 O 1.1939(3) 0.3748(3) 0.4113(4)
O12 O 1.2181(3) 0.4420(4) 0.5170(4)
O13 O 1.0778(2) 0.6396(4) 0.3327(5)
O14 O 0.8582(2) 0.5913(4) 0.3754(5)
O15 O 0.8663(2) 0.6752(3) 0.4663(4)
O16 O 1.2948(2) 0.3041(4) 0.3250(5)
O17 O 1.2825(2) 0.3150(4) 0.4623(5)
O18 O 1.4955(2) 0.4103(4) 0.4624(5)
O19 O 1.6620(2) 0.3602(3) 0.2012(4)
O20 O 1.7007(2) 0.3351(3) 0.3185(3)
O21 O 1.2872(2) 0.4183(3) 0.7331(5)
O22 O 1.3104(2) 0.3148(3) 0.7491(5)
O23 O 1.5081(2) 0.4692(3) 0.7445(5)
O24 O 1.6838(2) 0.2748(3) 0.7012(4)
O25 O 1.6924(2) 0.3039(3) 0.8369(4)
O26 O 1.2433(2) -0.0859(3) 0.2950(4)
O27 O 1.2022(2) 0.0058(3) 0.2761(4)
O28 O 1.2597(3) 0.0339(3) 0.6658(4)
O29 O 1.2480(2) -0.2095(3) 0.9233(4)
O30 O 1.2733(2) -0.1291(3) 1.0046(3)
O31 O 1.68648(19) 0.1877(3) 0.5369(3)
O32 O 1.6480(2) 0.2706(3) 0.4813(4)
O33 O 1.4729(2) 0.0777(4) 0.5255(6)
O34 O 1.2617(3) 0.1900(4) 0.4914(6)
O35 O 1.2751(3) 0.1966(4) 0.6269(5)
O36 O 1.2462(3) -0.0375(3) 0.1315(4)
O37 O 1.2126(3) 0.1412(3) 0.7495(4)
O38 O 1.2419(2) 0.3274(3) 0.6163(3)
C1 C 1.1495(3) 0.1980(4) 0.6109(6)
C2 C 1.1087(3) 0.1620(4) 0.6485(6)
C3 C 1.0865(3) 0.1112(5) 0.6059(7)
H1 H 1.0985 0.0972 0.5541
C4 C 1.0470(4) 0.0810(5) 0.6389(7)
H2 H 1.0324 0.0464 0.6102
C5 C 1.0295(4) 0.1028(5) 0.7147(7)
C6 C 1.0512(4) 0.1526(6) 0.7587(8)
H3 H 1.0390 0.1664 0.8105
C7 C 1.0910(4) 0.1820(6) 0.7259(7)
H4 H 1.1062 0.2155 0.7560
C8 C 0.9498(4) 0.1060(5) 0.7646(7)
C9 C 0.9340(4) 0.1563(6) 0.7143(7)
H5 H 0.9530 0.1714 0.6702
C10 C 0.8902(4) 0.1850(5) 0.7279(7)
H6 H 0.8796 0.2188 0.6927
C11 C 0.8619(3) 0.1638(4) 0.7938(6)
C12 C 0.8139(3) 0.1912(4) 0.8116(6)
C13 C 0.8784(5) 0.1157(7) 0.8432(9)
H7 H 0.8594 0.1006 0.8872
C14 C 0.9225(5) 0.0875(7) 0.8315(10)
H8 H 0.9336 0.0558 0.8693
C15 C 1.1694(3) 0.1838(4) 0.3267(5)
C16 C 1.1216(3) 0.1585(4) 0.3472(5)
C17 C 1.0877(3) 0.1964(4) 0.3907(5)
H9 H 1.0953 0.2393 0.4060
C18 C 1.0440(3) 0.1717(5) 0.4109(6)
H10 H 1.0216 0.1976 0.4386
C19 C 1.0336(3) 0.1077(4) 0.3897(6)
C20 C 1.0656(3) 0.0697(4) 0.3468(6)
H11 H 1.0578 0.0268 0.3319
C21 C 1.1093(3) 0.0952(4) 0.3258(6)
H12 H 1.1311 0.0692 0.2967
C22 C 0.9500(3) 0.1035(5) 0.4361(6)
C23 C 0.9274(4) 0.1486(5) 0.3847(7)
H13 H 0.9425 0.1654 0.3370
C24 C 0.8814(4) 0.1685(5) 0.4060(6)
H14 H 0.8653 0.1983 0.3713
C25 C 0.8592(3) 0.1447(4) 0.4773(5)
C26 C 0.8088(3) 0.1672(4) 0.4999(5)
C27 C 0.8837(3) 0.1009(5) 0.5288(6)
H15 H 0.8695 0.0857 0.5783
C28 C 0.9287(4) 0.0796(5) 0.5079(7)
H16 H 0.9446 0.0492 0.5422
C29 C 1.1939(4) 0.4305(5) 0.4495(7)
C30 C 1.1644(4) 0.4856(5) 0.4131(6)
C31 C 1.1388(4) 0.4801(6) 0.3370(8)
H17 H 1.1404 0.4417 0.3053
C32 C 1.1106(4) 0.5330(6) 0.3081(8)
H18 H 1.0946 0.5302 0.2560
C33 C 1.1066(4) 0.5871(6) 0.3557(7)
C34 C 1.1339(4) 0.5953(5) 0.4294(8)
H19 H 1.1329 0.6347 0.4591
C35 C 1.1627(4) 0.5441(5) 0.4583(7)
C36 C 1.0310(4) 0.6352(5) 0.3580(7)
C37 C 1.0060(6) 0.5839(9) 0.3473(13)
H20 H 1.0196 0.5467 0.3233
C38 C 0.9582(6) 0.5831(9) 0.3717(13)
H21 H 0.9418 0.5436 0.3676
C39 C 0.9351(3) 0.6338(5) 0.3996(6)
C40 C 0.8829(3) 0.6339(5) 0.4146(6)
C41 C 0.9629(6) 0.6875(8) 0.4082(11)
H22 H 0.9490 0.7260 0.4277
C42 C 1.0113(6) 0.6880(8) 0.3892(12)
H23 H 1.0296 0.7256 0.3987
C43 C 1.3078(3) 0.3188(5) 0.3971(6)
C44 C 1.3583(3) 0.3427(4) 0.4122(6)
C45 C 1.3806(4) 0.3317(6) 0.4893(7)
H24 H 1.3643 0.3099 0.5322
C46 C 1.4269(4) 0.3526(6) 0.5034(7)
H25 H 1.4422 0.3435 0.5549
C47 C 1.4505(3) 0.3868(5) 0.4417(7)
C48 C 1.4286(4) 0.3995(5) 0.3649(7)
H26 H 1.4443 0.4242 0.3240
C49 C 1.3829(3) 0.3752(5) 0.3486(6)
H27 H 1.3689 0.3808 0.2952
C50 C 1.5352(3) 0.3930(5) 0.4145(6)
C51 C 1.5779(3) 0.4201(5) 0.4431(6)
H28 H 1.5785 0.4479 0.4899
C52 C 1.6196(3) 0.4050(5) 0.4013(6)
H29 H 1.6487 0.4207 0.4220
C53 C 1.6185(3) 0.3667(4) 0.3285(5)
C54 C 1.6626(3) 0.3541(4) 0.2798(5)
C55 C 1.5759(3) 0.3410(5) 0.3012(6)
H30 H 1.5751 0.3150 0.2525
C56 C 1.5338(3) 0.3527(5) 0.3446(6)
H31 H 1.5051 0.3337 0.3266
C57 C 1.3192(3) 0.3760(5) 0.7435(6)
C58 C 1.3692(3) 0.3973(5) 0.7466(6)
C59 C 1.4069(3) 0.3532(5) 0.7498(6)
H32 H 1.4004 0.3084 0.7517
C60 C 1.4537(3) 0.3741(5) 0.7503(7)
H33 H 1.4787 0.3440 0.7530
C61 C 1.4631(3) 0.4410(4) 0.7467(6)
C62 C 1.4262(3) 0.4856(5) 0.7462(6)
H34 H 1.4326 0.5304 0.7462
C63 C 1.3796(3) 0.4630(5) 0.7458(6)
H35 H 1.3547 0.4932 0.7449
C64 C 1.5484(3) 0.4279(4) 0.7480(6)
C65 C 1.5748(3) 0.4269(5) 0.8221(6)
H36 H 1.5657 0.4521 0.8684
C66 C 1.6146(3) 0.3881(5) 0.8265(6)
H37 H 1.6324 0.3866 0.8768
C67 C 1.6289(3) 0.3510(4) 0.7575(5)
C68 C 1.6710(3) 0.3067(4) 0.7667(5)
C69 C 1.6025(3) 0.3547(5) 0.6819(6)
H38 H 1.6123 0.3310 0.6347
C70 C 1.5625(4) 0.3928(5) 0.6769(7)
H39 H 1.5449 0.3952 0.6265
C71 C 1.2262(3) -0.0317(4) 0.3229(5)
C72 C 1.2357(3) -0.0130(4) 0.4125(5)
C73 C 1.2747(3) -0.0391(5) 0.4556(6)
H40 H 1.2956 -0.0667 0.4271
C74 C 1.2830(4) -0.0249(5) 0.5405(6)
H41 H 1.3091 -0.0430 0.5693
C75 C 1.2523(4) 0.0162(4) 0.5814(6)
C76 C 1.2141(4) 0.0431(5) 0.5397(6)
H42 H 1.1931 0.0706 0.5684
C77 C 1.2065(4) 0.0290(5) 0.4537(6)
H43 H 1.1812 0.0487 0.4245
C78 C 1.2589(3) -0.0140(4) 0.7272(5)
C79 C 1.2838(3) 0.0004(4) 0.8010(6)
H44 H 1.3007 0.0396 0.8059
C80 C 1.2833(3) -0.0432(4) 0.8666(6)
H45 H 1.2994 -0.0332 0.9169
C81 C 1.2589(3) -0.1025(4) 0.8591(5)
C82 C 1.2604(3) -0.1501(4) 0.9323(5)
C83 C 1.2340(3) -0.1168(4) 0.7836(5)
H46 H 1.2173 -0.1561 0.7781
C84 C 1.2344(3) -0.0725(5) 0.7174(6)
H47 H 1.2184 -0.0818 0.6668
C85 C 1.6475(3) 0.2164(4) 0.5161(5)
C86 C 1.6008(3) 0.1814(4) 0.5266(5)
C87 C 1.5985(3) 0.1168(5) 0.5500(6)
H48 H 1.6263 0.0946 0.5658
C88 C 1.5555(3) 0.0847(5) 0.5505(6)
H49 H 1.5545 0.0406 0.5654
C89 C 1.5141(3) 0.1160(5) 0.5294(7)
C90 C 1.5146(4) 0.1813(6) 0.5072(8)
H50 H 1.4865 0.2035 0.4938
C91 C 1.5590(3) 0.2130(5) 0.5054(7)
H51 H 1.5602 0.2570 0.4894
C92 C 1.4281(3) 0.1060(5) 0.5311(7)
C93 C 1.3962(4) 0.0998(6) 0.4657(7)
H52 H 1.4054 0.0787 0.4161
C94 C 1.3506(4) 0.1242(5) 0.4719(6)
H53 H 1.3293 0.1203 0.4265
C95 C 1.3368(3) 0.1543(4) 0.5455(6)
C96 C 1.2879(4) 0.1819(5) 0.5527(7)
C97 C 1.3691(4) 0.1594(6) 0.6110(7)
H54 H 1.3601 0.1795 0.6615
C98 C 1.4151(5) 0.1351(7) 0.6029(8)
H55 H 1.4369 0.1391 0.6477
Ho1B Ho 0.793145(14) 0.72111(2) 0.50316(2)
Ho2C Ho 1.242784(13) 0.249763(19) 0.23325(2)
Ho3C Ho 1.218430(15) 0.430980(19) 0.66096(2)
Ho3A Ho 0.781570(15) 0.569020(19) 0.33904(2)
Ho4C Ho 1.733949(13) 0.307588(18) 0.16139(2)
Ho4_2 Ho 1.733949(13) 0.192412(18) 0.66139(2)
Ho4B Ho 1.266051(13) -0.192412(18) 0.33861(2)
Ho4A Ho 1.266051(13) -0.307588(18) 0.83861(2)
Ho5C Ho 0.726875(13) 0.267122(19) 0.42785(2)
Ho5C_2 Ho 1.726875(13) 0.267122(19) 0.42785(2)
Ho5_2 Ho 1.726875(13) 0.232878(19) 0.92785(2)
Ho5B Ho 1.273125(13) -0.232878(19) 1.07215(2)
O6C O 1.1864(2) 0.2625(3) 0.8581(4)
O7C O 1.1955(2) 0.3454(3) 0.7716(4)
O9C O 0.7843(2) 0.3106(3) 0.9406(4)
O12C O 1.2181(3) 0.0580(4) 0.0170(4)
O14A O 1.1418(2) 0.0913(4) 0.1246(5)
O15B O 1.1337(2) 0.3248(3) 0.5337(4)
O16C O 1.2948(2) 0.1959(4) 0.8250(5)
O19C O 0.6620(2) 0.1398(3) 0.7012(4)
O20C O 0.7007(2) 0.1649(3) 0.8185(3)
O21C O 1.2872(2) 0.0817(3) 0.2331(5)
O24_2 O 0.6838(2) 0.2748(3) 0.7012(4)
O25_2 O 0.6924(2) 0.3039(3) 0.8369(4)
O26B O 0.7567(2) 0.0859(3) 0.7050(4)
O29A O 0.7520(2) 0.2905(3) 0.5767(4)
O29B O 0.7520(2) 0.2095(3) 1.0767(4)
O30B O 0.7267(2) 0.1291(3) 0.9954(3)
O31_2 O 0.68648(19) 0.1877(3) 0.5369(3)
O31C O 0.68648(19) 0.3123(3) 1.0369(3)
O32C O 0.6480(2) 0.2294(3) 0.9813(4)
O38C O 1.2419(2) 0.1726(3) 0.1163(3)
O39 O 1.3040(9) 0.4344(12) 0.5717(16)
loop_
_geom_bond_atom_site_label_1
_geom_bond_atom_site_label_2
_geom_bond_site_symmetry_1
_geom_bond_site_symmetry_2
Ho1 O1 1_555 1_555
Ho2 O1 1_555 1_555
Ho3 O7 1_555 1_555
Ho4 O4 1_555 1_555
Ho5 O5 1_555 1_555
O1 C1 1_555 1_555
O2 Ho1 1_555 1_555
O3 C5 1_555 1_555
O4 C12 1_555 1_555
O5 C12 1_555 1_555
O6 Ho1 1_555 1_555
O7 C15 1_555 1_555
O8 C19 1_555 1_555
O9 C26 1_555 1_555
O10 Ho4 1_555 1_555
O11 Ho1 1_555 1_555
O12 C29 1_555 1_555
O13 C33 1_555 1_555
O14 C40 1_555 1_555
O15 C40 1_555 1_555
O16 C43 1_555 1_555
O17 Ho1 1_555 1_555
O18 C47 1_555 1_555
O19 C54 1_555 1_555
O20 C54 1_555 1_555
O21 C57 1_555 1_555
O22 Ho2 1_555 1_555
O23 C61 1_555 1_555
O24 C68 1_555 1_555
O25 C68 1_555 1_555
O26 C71 1_555 1_555
O27 Ho3 1_555 1_555
O28 C75 1_555 1_555
O29 C82 1_555 1_555
O30 C82 1_555 1_555
O31 C85 1_555 1_555
O32 C85 1_555 1_555
O33 C89 1_555 1_555
O34 Ho1 1_555 1_555
O35 Ho2 1_555 1_555
O36 Ho3 1_555 1_555
O37 Ho2 1_555 1_555
O38 Ho1 1_555 1_555
C1 O2 1_555 1_555
C2 C1 1_555 1_555
C3 C2 1_555 1_555
H1 C3 1_555 1_555
C4 C3 1_555 1_555
H2 C4 1_555 1_555
C5 C4 1_555 1_555
C6 C5 1_555 1_555
H3 C6 1_555 1_555
C7 C2 1_555 1_555
H4 C7 1_555 1_555
C8 O3 1_555 1_555
C9 C8 1_555 1_555
H5 C9 1_555 1_555
C10 C9 1_555 1_555
H6 C10 1_555 1_555
C11 C10 1_555 1_555
C12 C11 1_555 1_555
C13 C11 1_555 1_555
H7 C13 1_555 1_555
C14 C8 1_555 1_555
H8 C14 1_555 1_555
C15 O6 1_555 1_555
C16 C15 1_555 1_555
C17 C16 1_555 1_555
H9 C17 1_555 1_555
C18 C17 1_555 1_555
H10 C18 1_555 1_555
C19 C18 1_555 1_555
C20 C19 1_555 1_555
H11 C20 1_555 1_555
C21 C16 1_555 1_555
H12 C21 1_555 1_555
C22 O8 1_555 1_555
C23 C22 1_555 1_555
H13 C23 1_555 1_555
C24 C23 1_555 1_555
H14 C24 1_555 1_555
C25 C24 1_555 1_555
C26 O10 1_555 1_555
C27 C25 1_555 1_555
H15 C27 1_555 1_555
C28 C22 1_555 1_555
H16 C28 1_555 1_555
C29 O11 1_555 1_555
C30 C29 1_555 1_555
C31 C30 1_555 1_555
H17 C31 1_555 1_555
C32 C31 1_555 1_555
H18 C32 1_555 1_555
C33 C32 1_555 1_555
C34 C33 1_555 1_555
H19 C34 1_555 1_555
C35 C30 1_555 1_555
C36 O13 1_555 1_555
C37 C36 1_555 1_555
H20 C37 1_555 1_555
C38 C37 1_555 1_555
H21 C38 1_555 1_555
C39 C38 1_555 1_555
C40 C39 1_555 1_555
C41 C39 1_555 1_555
H22 C41 1_555 1_555
C42 C36 1_555 1_555
H23 C42 1_555 1_555
C43 O17 1_555 1_555
C44 C43 1_555 1_555
C45 C44 1_555 1_555
H24 C45 1_555 1_555
C46 C45 1_555 1_555
H25 C46 1_555 1_555
C47 C46 1_555 1_555
C48 C47 1_555 1_555
H26 C48 1_555 1_555
C49 C44 1_555 1_555
H27 C49 1_555 1_555
C50 O18 1_555 1_555
C51 C50 1_555 1_555
H28 C51 1_555 1_555
C52 C51 1_555 1_555
H29 C52 1_555 1_555
C53 C52 1_555 1_555
C54 C53 1_555 1_555
C55 C53 1_555 1_555
H30 C55 1_555 1_555
C56 C50 1_555 1_555
H31 C56 1_555 1_555
C57 O22 1_555 1_555
C58 C57 1_555 1_555
C59 C58 1_555 1_555
H32 C59 1_555 1_555
C60 C59 1_555 1_555
H33 C60 1_555 1_555
C61 C60 1_555 1_555
C62 C61 1_555 1_555
H34 C62 1_555 1_555
C63 C58 1_555 1_555
H35 C63 1_555 1_555
C64 O23 1_555 1_555
C65 C64 1_555 1_555
H36 C65 1_555 1_555
C66 C65 1_555 1_555
H37 C66 1_555 1_555
C67 C66 1_555 1_555
C68 C67 1_555 1_555
C69 C67 1_555 1_555
H38 C69 1_555 1_555
C70 C64 1_555 1_555
H39 C70 1_555 1_555
C71 O27 1_555 1_555
C72 C71 1_555 1_555
C73 C72 1_555 1_555
H40 C73 1_555 1_555
C74 C73 1_555 1_555
H41 C74 1_555 1_555
C75 C74 1_555 1_555
C76 C75 1_555 1_555
H42 C76 1_555 1_555
C77 C72 1_555 1_555
H43 C77 1_555 1_555
C78 O28 1_555 1_555
C79 C78 1_555 1_555
H44 C79 1_555 1_555
C80 C79 1_555 1_555
H45 C80 1_555 1_555
C81 C80 1_555 1_555
C82 C81 1_555 1_555
C83 C81 1_555 1_555
H46 C83 1_555 1_555
C84 C78 1_555 1_555
H47 C84 1_555 1_555
C85 C86 1_555 1_555
C86 C87 1_555 1_555
C87 H48 1_555 1_555
C88 C87 1_555 1_555
H49 C88 1_555 1_555
C89 C88 1_555 1_555
C90 C89 1_555 1_555
H50 C90 1_555 1_555
C91 C86 1_555 1_555
H51 C91 1_555 1_555
C92 O33 1_555 1_555
C93 C92 1_555 1_555
H52 C93 1_555 1_555
C94 C93 1_555 1_555
H53 C94 1_555 1_555
C95 C94 1_555 1_555
C96 O34 1_555 1_555
C97 C95 1_555 1_555
H54 C97 1_555 1_555
C98 C92 1_555 1_555
H55 C98 1_555 1_555
Ho1B O15 1_555 1_555
Ho2C O6 1_555 1_555
Ho3C O12 1_555 1_555
Ho3A O14 1_555 1_555
Ho4C O19 1_555 1_555
Ho4_2 O24 1_555 1_555
Ho4B O26 1_555 1_555
Ho4A O29 1_555 1_555
Ho5C O9 1_555 1_555
Ho5C_2 O20 1_555 1_555
Ho5_2 O25 1_555 1_555
Ho5B O29 1_555 1_555
O6C Ho2 1_555 1_555
O7C Ho2 1_555 1_555
O9C Ho5 1_555 1_555
O12C Ho3 1_555 1_555
O14A Ho3 1_555 1_555
O15B Ho1 1_555 1_555
O16C Ho2 1_555 1_555
O19C Ho4 1_555 1_555
O20C Ho4 1_555 1_555
O21C Ho3 1_555 1_555
O24_2 Ho4 1_555 1_555
O25_2 Ho5 1_555 1_555
O26B Ho4 1_555 1_555
O29A Ho4 1_555 1_555
O29B Ho5 1_555 1_555
O30B Ho5 1_555 1_555
O31_2 Ho4 1_555 1_555
O31C Ho5 1_555 1_555
O32C Ho5 1_555 1_555
O38C Ho3 1_555 1_555
Ho2 O38 1_555 1_555
Ho5 O20C 1_555 1_555
O7 Ho2C 1_555 1_555
O16 Ho2C 1_555 1_555
O20 Ho4C 1_555 1_555
O21 Ho3C 1_555 1_555
O30 Ho5B 1_555 1_555
O31 Ho4_2 1_555 1_555
O31 Ho5C_2 1_555 1_555
O32 Ho5C_2 1_555 1_555
O35 C96 1_555 1_555
O38 Ho3C 1_555 1_555
C6 C7 1_555 1_555
C13 C14 1_555 1_555
C20 C21 1_555 1_555
C25 C26 1_555 1_555
C27 C28 1_555 1_555
C34 C35 1_555 1_555
C41 C42 1_555 1_555
C48 C49 1_555 1_555
C55 C56 1_555 1_555
C62 C63 1_555 1_555
C69 C70 1_555 1_555
C76 C77 1_555 1_555
C83 C84 1_555 1_555
C90 C91 1_555 1_555
C95 C96 1_555 1_555
C97 C98 1_555 1_555
Ho2C O38C 1_555 1_555
Ho3C O7C 1_555 1_555
Ho5C O29A 1_555 1_555
Ho5C O31_2 1_555 1_555

#END
