
#######################################################################
#
#                 Cambridge Crystallographic Data Centre
#                                CCDC 
#
#######################################################################
#
# If this CIF has been generated from an entry in the Cambridge 
# Structural Database, then it will include bibliographic, chemical, 
# crystal, experimental, refinement or atomic coordinate data resulting 
# from the CCDC's data processing and validation procedures.
#
#######################################################################

data_GAQVUP
_symmetry_cell_setting           orthorhombic
_symmetry_space_group_name_H-M   'I b c a'
_symmetry_Int_Tables_number      73
_space_group_name_Hall           '-I 2b 2c'
loop_
_symmetry_equiv_pos_site_id
_symmetry_equiv_pos_as_xyz
1 x,y,z
2 -x,1/2-y,z
3 x,-y,1/2-z
4 -x,1/2+y,1/2-z
5 1/2+x,1/2+y,1/2+z
6 1/2-x,-y,1/2+z
7 1/2+x,1/2-y,-z
8 1/2-x,y,-z
9 -x,-y,-z
10 x,1/2+y,-z
11 -x,y,1/2+z
12 x,1/2-y,1/2+z
13 1/2-x,1/2-y,1/2-z
14 1/2+x,y,1/2-z
15 1/2-x,1/2+y,z
16 1/2+x,-y,z
_cell_length_a                   7.026(1)
_cell_length_b                   20.721(3)
_cell_length_c                   22.260(2)
_cell_angle_alpha                90
_cell_angle_beta                 90
_cell_angle_gamma                90
_cell_volume                     3240.74
loop_
_atom_site_label
_atom_site_type_symbol
_atom_site_fract_x
_atom_site_fract_y
_atom_site_fract_z
Ni1 Ni 0.34204(10) 0.00000 0.25000
Mn1 Mn 0.25000 0.10583(3) 0.00000
S1 S 0.34420(16) 0.09762(4) 0.21374(4)
S2 S 0.33660(14) -0.04273(4) 0.16068(3)
O1 O 0.3188(4) 0.13349(11) 0.10177(10)
O2 O 0.3057(3) 0.01540(11) 0.05763(9)
O3 O 0.25000 0.20912(16) 0.00000
O4 O -0.0444(4) 0.10410(11) 0.02160(12)
C1 C 0.3256(5) 0.08842(16) 0.13811(14)
C2 C 0.3200(5) 0.02057(16) 0.11293(13)
H1 H 0.2548 0.2328 0.0286
H2 H -0.1048 0.1322 0.0397
H3 H -0.0812 0.0756 0.0303
S1B S 0.34420(16) -0.09762(4) 0.28626(4)
S2B S 0.33660(14) 0.04273(4) 0.33932(3)
O1G O 0.1812(4) 0.13349(11) -0.10177(10)
O2G O 0.1943(3) 0.01540(11) -0.05763(9)
O4G O 0.5444(4) 0.10410(11) -0.02160(12)
H1G H 0.2452 0.2328 -0.0286
C1B C 0.3256(5) -0.08842(16) 0.36189(14)
C2B C 0.3200(5) -0.02057(16) 0.38707(13)
H2G H 0.6048 0.1322 -0.0397
H3G H 0.5812 0.0756 -0.0303
O1B O 0.3188(4) -0.13349(11) 0.39823(10)
O2B O 0.3057(3) -0.01540(11) 0.44237(9)
Mn1B Mn 0.25000 -0.10583(3) 0.50000
O5 O 0.2786(5) 0.30683(15) 0.08394(15)
H4 H 0.3406 0.2890 0.1171
H5 H 0.1363 0.2896 0.0991
O6 O 0.1929(15) 0.2488(4) 0.1930(3)
H6 H 0.2079 0.2292 0.1439
H7 H 0.1704 0.2914 0.2048
loop_
_geom_bond_atom_site_label_1
_geom_bond_atom_site_label_2
_geom_bond_site_symmetry_1
_geom_bond_site_symmetry_2
Ni1 S1 1_555 1_555
Mn1 O1 1_555 1_555
S1 C1 1_555 1_555
S2 Ni1 1_555 1_555
O1 C1 1_555 1_555
O2 Mn1 1_555 1_555
O3 Mn1 1_555 1_555
O4 Mn1 1_555 1_555
C1 C2 1_555 1_555
C2 S2 1_555 1_555
O5 H4 1_555 1_555
O6 H6 1_555 1_555
H1 O3 1_555 1_555
H2 O4 1_555 1_555
H3 O4 1_555 1_555
H5 O5 1_555 1_555
H7 O6 1_555 1_555
S1B Ni1 1_555 1_555
S2B Ni1 1_555 1_555
O1G Mn1 1_555 1_555
O2G Mn1 1_555 1_555
O4G Mn1 1_555 1_555
H1G O3 1_555 1_555
C1B S1B 1_555 1_555
C2B S2B 1_555 1_555
H2G O4G 1_555 1_555
H3G O4G 1_555 1_555
O1B C1B 1_555 1_555
O2B C2B 1_555 1_555
Mn1B O1B 1_555 1_555
O2 C2 1_555 1_555
C1B C2B 1_555 1_555
O2B Mn1B 1_555 1_555

#END
