
#######################################################################
#
#                 Cambridge Crystallographic Data Centre
#                                CCDC 
#
#######################################################################
#
# If this CIF has been generated from an entry in the Cambridge 
# Structural Database, then it will include bibliographic, chemical, 
# crystal, experimental, refinement or atomic coordinate data resulting 
# from the CCDC's data processing and validation procedures.
#
#######################################################################

data_GARCEI
_symmetry_cell_setting           triclinic
_symmetry_space_group_name_H-M   'P -1'
_symmetry_Int_Tables_number      2
_space_group_name_Hall           '-P 1'
loop_
_symmetry_equiv_pos_site_id
_symmetry_equiv_pos_as_xyz
1 x,y,z
2 -x,-y,-z
_cell_length_a                   11.456(3)
_cell_length_b                   15.090(4)
_cell_length_c                   18.440(4)
_cell_angle_alpha                94.674(6)
_cell_angle_beta                 104.391(6)
_cell_angle_gamma                101.276(5)
_cell_volume                     2999.59
loop_
_atom_site_label
_atom_site_type_symbol
_atom_site_fract_x
_atom_site_fract_y
_atom_site_fract_z
Cu1 Cu 0.58802(4) 0.87443(3) 0.36266(2)
Cu2 Cu 0.13444(4) 0.83617(3) 0.27062(3)
Cu3 Cu 0.84598(4) 1.04063(3) 0.21604(2)
P1 P 0.67512(8) 0.79655(6) 0.45170(5)
P2 P 0.04010(9) 0.68811(7) 0.22804(6)
P3 P 0.83954(8) 1.14440(6) 0.13817(5)
N1 N 0.3100(3) 0.85379(19) 0.32113(19)
N2 N -0.0156(3) 0.9807(2) 0.23932(18)
N3 N 0.6725(3) 0.9453(2) 0.29978(18)
C1 C 0.8445(3) 0.8325(2) 0.48762(16)
H1 H 0.8592 0.8963 0.5097
C2 C 0.9087(2) 0.8368(2) 0.42522(18)
H2 H 0.8701 0.8717 0.3881
H3 H 0.8978 0.7754 0.4002
C3 C 1.0463(3) 0.8800(2) 0.4539(2)
H4 H 1.0841 0.8729 0.4128
H5 H 1.0568 0.9448 0.4688
C4 C 1.1127(3) 0.8397(3) 0.51966(19)
H6 H 1.1188 0.7788 0.5023
H7 H 1.1959 0.8766 0.5403
C5 C 1.0469(3) 0.8352(3) 0.5800(2)
H8 H 1.0537 0.8967 0.6032
H9 H 1.0870 0.8028 0.6187
C6 C 0.9108(3) 0.7880(3) 0.5505(2)
H10 H 0.9036 0.7245 0.5323
H11 H 0.8719 0.7899 0.5916
C7 C 0.6202(3) 0.80069(19) 0.53667(16)
H12 H 0.6554 0.7586 0.5688
C8 C 0.4788(2) 0.7714(2) 0.51728(17)
H13 H 0.4426 0.8105 0.4832
H14 H 0.4523 0.7093 0.4914
C9 C 0.4322(3) 0.7766(2) 0.58714(18)
H15 H 0.4642 0.7348 0.6200
H16 H 0.3426 0.7580 0.5725
C10 C 0.4720(3) 0.8726(2) 0.6298(2)
H17 H 0.4357 0.9140 0.5983
H18 H 0.4431 0.8739 0.6750
C11 C 0.6112(3) 0.9027(2) 0.65130(18)
H19 H 0.6468 0.8646 0.6865
H20 H 0.6359 0.9652 0.6763
C12 C 0.6602(3) 0.8964(2) 0.58203(18)
H21 H 0.7498 0.9139 0.5980
H22 H 0.6310 0.9394 0.5495
C13 C 0.6437(3) 0.67499(19) 0.41366(15)
H23 H 0.7132 0.6699 0.3927
C14 C 0.6435(3) 0.60487(17) 0.46806(17)
H24 H 0.7227 0.6191 0.5060
H25 H 0.5801 0.6091 0.4938
C15 C 0.6205(3) 0.5084(2) 0.42990(19)
H26 H 0.6920 0.5011 0.4128
H27 H 0.6114 0.4668 0.4666
C16 C 0.5093(4) 0.4832(2) 0.36461(19)
H28 H 0.4360 0.4802 0.3825
H29 H 0.5049 0.4232 0.3393
C17 C 0.5117(4) 0.55056(19) 0.30967(19)
H30 H 0.4340 0.5355 0.2705
H31 H 0.5773 0.5463 0.2858
C18 C 0.5321(3) 0.64714(19) 0.34696(17)
H32 H 0.5406 0.6883 0.3099
H33 H 0.4596 0.6536 0.3633
C19 C 0.0270(3) 0.6216(2) 0.30602(18)
H34 H -0.0217 0.6516 0.3328
C20 C 0.1484(3) 0.6302(2) 0.36378(18)
H35 H 0.1874 0.6944 0.3791
H36 H 0.2020 0.6022 0.3407
C21 C 0.1362(4) 0.5863(2) 0.4337(2)
H37 H 0.2180 0.5894 0.4664
H38 H 0.0933 0.6200 0.4613
C22 C 0.0666(3) 0.4880(2) 0.4135(2)
H39 H 0.1153 0.4522 0.3928
H40 H 0.0533 0.4641 0.4588
C23 C -0.0556(4) 0.4795(3) 0.35696(19)
H41 H -0.1080 0.5084 0.3805
H42 H -0.0955 0.4154 0.3422
C24 C -0.0437(4) 0.5227(2) 0.28634(18)
H43 H -0.0012 0.4884 0.2588
H44 H -0.1255 0.5196 0.2537
C25 C 0.1220(3) 0.6306(2) 0.1713(2)
H45 H 0.1703 0.6062 0.2136
C26 C 0.2253(3) 0.6856(3) 0.1555(3)
H46 H 0.2790 0.7188 0.2031
H47 H 0.1954 0.7304 0.1253
C27 C 0.3031(3) 0.6425(3) 0.1161(2)
H48 H 0.3359 0.6853 0.0857
H49 H 0.3727 0.6317 0.1539
C28 C 0.2400(4) 0.5568(3) 0.0674(3)
H50 H 0.2070 0.5716 0.0173
H51 H 0.3023 0.5227 0.0639
C29 C 0.1421(4) 0.4966(3) 0.0859(2)
H52 H 0.1775 0.4555 0.1181
H53 H 0.0885 0.4599 0.0396
C30 C 0.0652(3) 0.5417(2) 0.12454(19)
H54 H -0.0059 0.5493 0.0861
H55 H 0.0342 0.5001 0.1564
C31 C -0.1195(3) 0.6703(2) 0.16755(16)
H56 H -0.1513 0.6050 0.1496
C32 C -0.1233(3) 0.7217(3) 0.09916(18)
H57 H -0.0829 0.7853 0.1163
H58 H -0.0780 0.6966 0.0676
C33 C -0.2559(3) 0.7150(3) 0.0523(2)
H59 H -0.2552 0.7507 0.0110
H60 H -0.2941 0.6520 0.0310
C34 C -0.3309(3) 0.7498(3) 0.10104(19)
H61 H -0.2959 0.8140 0.1192
H62 H -0.4150 0.7437 0.0706
C35 C -0.3325(3) 0.6982(3) 0.1676(2)
H63 H -0.3752 0.6351 0.1498
H64 H -0.3766 0.7246 0.1992
C36 C -0.2008(3) 0.7023(3) 0.21382(18)
H65 H -0.2038 0.6647 0.2539
H66 H -0.1630 0.7646 0.2373
C37 C 0.8051(3) 1.0867(2) 0.04352(18)
H67 H 0.8715 1.0540 0.0449
C38 C 0.6891(4) 1.0129(3) 0.0237(2)
H68 H 0.6184 1.0406 0.0193
H69 H 0.6915 0.9754 0.0641
C39 C 0.6728(5) 0.9519(3) -0.0513(2)
H70 H 0.7433 0.9241 -0.0471
H71 H 0.5993 0.9034 -0.0607
C40 C 0.6617(5) 1.0056(3) -0.1157(2)
H72 H 0.5946 1.0371 -0.1195
H73 H 0.6482 0.9670 -0.1631
C41 C 0.7858(5) 1.0725(3) -0.0952(2)
H74 H 0.7910 1.1084 -0.1361
H75 H 0.8513 1.0393 -0.0884
C42 C 0.8031(4) 1.1369(3) -0.02137(19)
H76 H 0.8800 1.1822 -0.0114
H77 H 0.7361 1.1687 -0.0280
C43 C 0.7283(3) 1.21762(19) 0.13811(16)
H78 H 0.6552 1.1826 0.0993
C44 C 0.7482(3) 1.30777(19) 0.10954(19)
H79 H 0.8244 1.3465 0.1416
H80 H 0.7585 1.2983 0.0590
C45 C 0.6457(3) 1.3565(2) 0.10697(19)
H81 H 0.6745 1.4190 0.0994
H82 H 0.5775 1.3281 0.0634
C46 C 0.5994(3) 1.3576(2) 0.1738(2)
H83 H 0.5222 1.3777 0.1621
H84 H 0.6581 1.4019 0.2139
C47 C 0.5784(3) 1.2682(2) 0.2020(2)
H85 H 0.5030 1.2293 0.1691
H86 H 0.5664 1.2774 0.2520
C48 C 0.6820(3) 1.2202(2) 0.20573(18)
H87 H 0.7501 1.2500 0.2489
H88 H 0.6543 1.1581 0.2145
C49 C 0.9902(2) 1.2239(2) 0.15419(15)
H89 H 0.9792 1.2732 0.1235
C50 C 1.0372(3) 1.2649(2) 0.23677(17)
H90 H 1.0463 1.2164 0.2677
H91 H 0.9768 1.2952 0.2502
C51 C 1.1623(3) 1.3340(2) 0.2540(2)
H92 H 1.1518 1.3857 0.2270
H93 H 1.1906 1.3563 0.3076
C52 C 1.2565(3) 1.2913(3) 0.23115(19)
H94 H 1.2745 1.2446 0.2626
H95 H 1.3324 1.3372 0.2389
C53 C 1.2115(3) 1.2493(3) 0.1490(2)
H96 H 1.2728 1.2195 0.1362
H97 H 1.2007 1.2968 0.1173
C54 C 1.0881(3) 1.1792(2) 0.1341(2)
H98 H 1.0605 1.1534 0.0811
H99 H 1.0998 1.1301 0.1639
C55 C 0.4165(3) 0.8633(2) 0.3409(2)
C56 C 0.0492(3) 0.9293(2) 0.2522(2)
C57 C 0.7311(3) 0.9864(2) 0.26446(19)
Cu3_2 Cu -0.15402(4) 1.04063(3) 0.21604(2)
N2_2 N 0.9844(3) 0.9807(2) 0.23932(18)
loop_
_geom_bond_atom_site_label_1
_geom_bond_atom_site_label_2
_geom_bond_site_symmetry_1
_geom_bond_site_symmetry_2
Cu1 P1 1_555 1_555
Cu2 P2 1_555 1_555
Cu3 P3 1_555 1_555
P1 C1 1_555 1_555
P2 C19 1_555 1_555
P3 C37 1_555 1_555
N1 Cu2 1_555 1_555
N2 C56 1_555 1_555
N3 Cu1 1_555 1_555
C1 H1 1_555 1_555
C2 C1 1_555 1_555
H2 C2 1_555 1_555
H3 C2 1_555 1_555
C3 C2 1_555 1_555
H4 C3 1_555 1_555
H5 C3 1_555 1_555
C4 C3 1_555 1_555
H6 C4 1_555 1_555
H7 C4 1_555 1_555
C5 C4 1_555 1_555
H8 C5 1_555 1_555
H9 C5 1_555 1_555
C6 C1 1_555 1_555
H10 C6 1_555 1_555
H11 C6 1_555 1_555
C7 P1 1_555 1_555
H12 C7 1_555 1_555
C8 C7 1_555 1_555
H13 C8 1_555 1_555
H14 C8 1_555 1_555
C9 C8 1_555 1_555
H15 C9 1_555 1_555
H16 C9 1_555 1_555
C10 C9 1_555 1_555
H17 C10 1_555 1_555
H18 C10 1_555 1_555
C11 C10 1_555 1_555
H19 C11 1_555 1_555
H20 C11 1_555 1_555
C12 C7 1_555 1_555
H21 C12 1_555 1_555
H22 C12 1_555 1_555
C13 P1 1_555 1_555
H23 C13 1_555 1_555
C14 C13 1_555 1_555
H24 C14 1_555 1_555
H25 C14 1_555 1_555
C15 C14 1_555 1_555
H26 C15 1_555 1_555
H27 C15 1_555 1_555
C16 C15 1_555 1_555
H28 C16 1_555 1_555
H29 C16 1_555 1_555
C17 C16 1_555 1_555
H30 C17 1_555 1_555
H31 C17 1_555 1_555
C18 C13 1_555 1_555
H32 C18 1_555 1_555
H33 C18 1_555 1_555
C19 H34 1_555 1_555
C20 C19 1_555 1_555
H35 C20 1_555 1_555
H36 C20 1_555 1_555
C21 C20 1_555 1_555
H37 C21 1_555 1_555
H38 C21 1_555 1_555
C22 C21 1_555 1_555
H39 C22 1_555 1_555
H40 C22 1_555 1_555
C23 C22 1_555 1_555
H41 C23 1_555 1_555
H42 C23 1_555 1_555
C24 C19 1_555 1_555
H43 C24 1_555 1_555
H44 C24 1_555 1_555
C25 P2 1_555 1_555
H45 C25 1_555 1_555
C26 C25 1_555 1_555
H46 C26 1_555 1_555
H47 C26 1_555 1_555
C27 C26 1_555 1_555
H48 C27 1_555 1_555
H49 C27 1_555 1_555
C28 C27 1_555 1_555
H50 C28 1_555 1_555
H51 C28 1_555 1_555
C29 C28 1_555 1_555
H52 C29 1_555 1_555
H53 C29 1_555 1_555
C30 C25 1_555 1_555
H54 C30 1_555 1_555
H55 C30 1_555 1_555
C31 P2 1_555 1_555
H56 C31 1_555 1_555
C32 C31 1_555 1_555
H57 C32 1_555 1_555
H58 C32 1_555 1_555
C33 C32 1_555 1_555
H59 C33 1_555 1_555
H60 C33 1_555 1_555
C34 C33 1_555 1_555
H61 C34 1_555 1_555
H62 C34 1_555 1_555
C35 C34 1_555 1_555
H63 C35 1_555 1_555
H64 C35 1_555 1_555
C36 C31 1_555 1_555
H65 C36 1_555 1_555
H66 C36 1_555 1_555
C37 H67 1_555 1_555
C38 C37 1_555 1_555
H68 C38 1_555 1_555
H69 C38 1_555 1_555
C39 C38 1_555 1_555
H70 C39 1_555 1_555
H71 C39 1_555 1_555
C40 C39 1_555 1_555
H72 C40 1_555 1_555
H73 C40 1_555 1_555
C41 C40 1_555 1_555
H74 C41 1_555 1_555
H75 C41 1_555 1_555
C42 C37 1_555 1_555
H76 C42 1_555 1_555
H77 C42 1_555 1_555
C43 P3 1_555 1_555
H78 C43 1_555 1_555
C44 C43 1_555 1_555
H79 C44 1_555 1_555
H80 C44 1_555 1_555
C45 C44 1_555 1_555
H81 C45 1_555 1_555
H82 C45 1_555 1_555
C46 C45 1_555 1_555
H83 C46 1_555 1_555
H84 C46 1_555 1_555
C47 C46 1_555 1_555
H85 C47 1_555 1_555
H86 C47 1_555 1_555
C48 C43 1_555 1_555
H87 C48 1_555 1_555
H88 C48 1_555 1_555
C49 P3 1_555 1_555
H89 C49 1_555 1_555
C50 C49 1_555 1_555
H90 C50 1_555 1_555
H91 C50 1_555 1_555
C51 C50 1_555 1_555
H92 C51 1_555 1_555
H93 C51 1_555 1_555
C52 C51 1_555 1_555
H94 C52 1_555 1_555
H95 C52 1_555 1_555
C53 C52 1_555 1_555
H96 C53 1_555 1_555
H97 C53 1_555 1_555
C54 C49 1_555 1_555
H98 C54 1_555 1_555
H99 C54 1_555 1_555
C55 Cu1 1_555 1_555
C56 Cu2 1_555 1_555
C57 Cu3 1_555 1_555
Cu3_2 N2 1_555 1_555
N2_2 Cu3 1_555 1_555
N1 C55 1_555 1_555
N3 C57 1_555 1_555
C5 C6 1_555 1_555
C11 C12 1_555 1_555
C17 C18 1_555 1_555
C23 C24 1_555 1_555
C29 C30 1_555 1_555
C35 C36 1_555 1_555
C41 C42 1_555 1_555
C47 C48 1_555 1_555
C53 C54 1_555 1_555

#END
