
#######################################################################
#
#                 Cambridge Crystallographic Data Centre
#                                CCDC 
#
#######################################################################
#
# If this CIF has been generated from an entry in the Cambridge 
# Structural Database, then it will include bibliographic, chemical, 
# crystal, experimental, refinement or atomic coordinate data resulting 
# from the CCDC's data processing and validation procedures.
#
#######################################################################

data_GARCAE
_symmetry_cell_setting           triclinic
_symmetry_space_group_name_H-M   'P -1'
_symmetry_Int_Tables_number      2
_space_group_name_Hall           '-P 1'
loop_
_symmetry_equiv_pos_site_id
_symmetry_equiv_pos_as_xyz
1 x,y,z
2 -x,-y,-z
_cell_length_a                   10.939(3)
_cell_length_b                   12.686(3)
_cell_length_c                   12.851(4)
_cell_angle_alpha                96.118(6)
_cell_angle_beta                 113.275(5)
_cell_angle_gamma                109.545(5)
_cell_volume                     1483.95
loop_
_atom_site_label
_atom_site_type_symbol
_atom_site_fract_x
_atom_site_fract_y
_atom_site_fract_z
Ag1 Ag 0.49164(2) 1.026294(17) 0.888882(17)
Ag2 Ag 1.0000 1.0000 1.0000
P1 P 0.41473(6) 0.82130(5) 0.80961(5)
P2 P 0.52698(6) 0.79213(5) 1.06463(5)
C1 C 0.8559(3) 1.0726(3) 0.9923(3)
C2 C 0.4520(2) 0.7880(2) 0.6843(2)
H1 H 0.4230 0.7038 0.6607
C3 C 0.3645(3) 0.8214(3) 0.5788(2)
H2 H 0.3850 0.9032 0.6024
H3 H 0.2611 0.7767 0.5520
C4 C 0.4004(3) 0.7998(3) 0.4780(3)
H4 H 0.3709 0.7170 0.4491
H5 H 0.3457 0.8255 0.4138
C5 C 0.5608(3) 0.8631(3) 0.5159(3)
H6 H 0.5889 0.9464 0.5383
H7 H 0.5807 0.8449 0.4507
C6 C 0.6490(3) 0.8284(3) 0.6188(3)
H8 H 0.7522 0.8735 0.6452
H9 H 0.6283 0.7468 0.5939
C7 C 0.6139(3) 0.8485(3) 0.7201(2)
H10 H 0.6466 0.9314 0.7514
H11 H 0.6676 0.8205 0.7825
C8 C 0.2222(2) 0.7315(2) 0.7657(2)
H12 H 0.2168 0.7286 0.8398
C9 C 0.1153(3) 0.7834(2) 0.7011(2)
H13 H 0.1488 0.8626 0.7464
H14 H 0.1121 0.7857 0.6249
C10 C -0.0368(3) 0.7108(3) 0.6843(3)
H15 H -0.0351 0.7164 0.7608
H16 H -0.1038 0.7423 0.6393
C11 C -0.0921(3) 0.5846(3) 0.6215(3)
H17 H -0.1074 0.5777 0.5409
H18 H -0.1854 0.5410 0.6190
C12 C 0.0141(3) 0.5330(3) 0.6821(3)
H19 H -0.0205 0.4542 0.6353
H20 H 0.0182 0.5291 0.7583
C13 C 0.1668(3) 0.6045(2) 0.6990(3)
H21 H 0.1651 0.6010 0.6226
H22 H 0.2331 0.5718 0.7425
C14 C 0.3693(2) 0.6715(2) 1.0571(2)
H23 H 0.2836 0.6700 0.9906
C15 C 0.3445(3) 0.6940(3) 1.1651(2)
H24 H 0.4237 0.6924 1.2339
H25 H 0.3441 0.7704 1.1796
C16 C 0.1996(3) 0.6018(3) 1.1455(3)
H26 H 0.1199 0.6082 1.0813
H27 H 0.1876 0.6151 1.2160
C17 C 0.1936(3) 0.4798(3) 1.1166(3)
H28 H 0.2667 0.4709 1.1843
H29 H 0.0985 0.4228 1.1002
C18 C 0.2205(3) 0.4572(3) 1.0117(3)
H30 H 0.1409 0.4569 0.9420
H31 H 0.2222 0.3811 0.9992
C19 C 0.3653(3) 0.5497(2) 1.0294(3)
H32 H 0.4459 0.5444 1.0938
H33 H 0.3762 0.5356 0.9586
C20 C 0.6947(2) 0.7787(2) 1.1650(2)
H34 H 0.6778 0.6965 1.1466
C21 C 0.8268(3) 0.8485(3) 1.1502(2)
H35 H 0.8396 0.9290 1.1611
H36 H 0.8094 0.8188 1.0706
C22 C 0.9664(3) 0.8431(3) 1.2375(3)
H37 H 0.9582 0.7640 1.2202
H38 H 1.0483 0.8927 1.2278
C23 C 0.9958(3) 0.8810(3) 1.3629(3)
H39 H 1.0809 0.8704 1.4148
H40 H 1.0166 0.9631 1.3837
C24 C 0.8669(3) 0.8120(3) 1.3794(3)
H41 H 0.8854 0.8421 1.4593
H42 H 0.8541 0.7315 1.3685
C25 C 0.7279(3) 0.8178(3) 1.2932(2)
H43 H 0.7369 0.8971 1.3107
H44 H 0.6466 0.7689 1.3040
C26 C 0.5179(2) 0.7600(2) 0.91754(19)
H45 H 0.6169 0.7888 0.9272
H46 H 0.4744 0.6762 0.8852
N2 N 0.7664(2) 1.1032(2) 0.9836(2)
Ag1A Ag 1.50836(2) 0.973706(17) 1.111118(17)
Ag1A_2 Ag 0.50836(2) 0.973706(17) 1.111118(17)
Ag1_2 Ag 1.49164(2) 1.026294(17) 0.888882(17)
P1A P 0.58527(6) 1.17870(5) 1.19039(5)
P1A_2 P 1.58527(6) 1.17870(5) 1.19039(5)
P2A P 0.47302(6) 1.20787(5) 0.93537(5)
P2_2 P 1.52698(6) 0.79213(5) 1.06463(5)
C1A C 1.1441(3) 0.9274(3) 1.0077(3)
C2A C 0.5480(2) 1.2120(2) 1.3157(2)
H1A H 0.5770 1.2962 1.3393
C3A C 0.6355(3) 1.1786(3) 1.4212(2)
H2A H 0.6150 1.0968 1.3976
H3A H 0.7389 1.2233 1.4480
C4A C 0.5996(3) 1.2002(3) 1.5220(3)
H4A H 0.6291 1.2830 1.5509
H5A H 0.6543 1.1745 1.5862
C5A C 0.4392(3) 1.1369(3) 1.4841(3)
H6A H 0.4111 1.0536 1.4617
H7A H 0.4193 1.1551 1.5493
C6A C 0.3510(3) 1.1716(3) 1.3812(3)
H8A H 0.2478 1.1265 1.3548
H9A H 0.3717 1.2532 1.4061
C7A C 0.3861(3) 1.1515(3) 1.2799(2)
H10A H 0.3534 1.0686 1.2486
H11A H 0.3324 1.1795 1.2175
C8A C 0.7778(2) 1.2685(2) 1.2343(2)
H12A H 0.7832 1.2714 1.1602
C9A C 0.8847(3) 1.2166(2) 1.2989(2)
H13A H 0.8512 1.1374 1.2536
H14A H 0.8879 1.2143 1.3751
C10A C 1.0368(3) 1.2892(3) 1.3157(3)
H15A H 1.0351 1.2836 1.2392
H16A H 1.1038 1.2577 1.3607
C11A C 1.0921(3) 1.4154(3) 1.3785(3)
H17A H 1.1074 1.4223 1.4591
H18A H 1.1854 1.4590 1.3810
C12A C 0.9859(3) 1.4670(3) 1.3179(3)
H19A H 1.0205 1.5458 1.3647
H20A H 0.9818 1.4709 1.2417
C13A C 0.8332(3) 1.3955(2) 1.3010(3)
H21A H 0.8349 1.3990 1.3774
H22A H 0.7669 1.4282 1.2575
C14A C 0.6307(2) 1.3285(2) 0.9429(2)
H23A H 0.7164 1.3300 1.0094
C15A C 0.6555(3) 1.3060(3) 0.8349(2)
H24A H 0.5763 1.3076 0.7661
H25A H 0.6559 1.2296 0.8204
C16A C 0.8004(3) 1.3982(3) 0.8545(3)
H26A H 0.8801 1.3918 0.9187
H27A H 0.8124 1.3849 0.7840
C17A C 0.8064(3) 1.5202(3) 0.8834(3)
H28A H 0.7333 1.5291 0.8157
H29A H 0.9015 1.5772 0.8998
C18A C 0.7795(3) 1.5428(3) 0.9883(3)
H30A H 0.8591 1.5431 1.0580
H31A H 0.7778 1.6189 1.0008
C19A C 0.6347(3) 1.4503(2) 0.9706(3)
H32A H 0.5541 1.4556 0.9062
H33A H 0.6238 1.4644 1.0414
C20A C 0.3053(2) 1.2213(2) 0.8350(2)
H34A H 0.3222 1.3035 0.8534
C21A C 0.1732(3) 1.1515(3) 0.8498(2)
H35A H 0.1604 1.0710 0.8389
H36A H 0.1906 1.1812 0.9294
C22A C 0.0336(3) 1.1569(3) 0.7625(3)
H37A H 0.0418 1.2360 0.7798
H38A H -0.0483 1.1073 0.7722
C23A C 0.0042(3) 1.1190(3) 0.6371(3)
H39A H -0.0809 1.1296 0.5852
H40A H -0.0166 1.0369 0.6163
C24A C 0.1331(3) 1.1880(3) 0.6206(3)
H41A H 0.1146 1.1579 0.5407
H42A H 0.1459 1.2685 0.6315
C25A C 0.2721(3) 1.1822(3) 0.7068(2)
H43A H 0.2631 1.1029 0.6893
H44A H 0.3534 1.2311 0.6960
C26A C 0.4821(2) 1.2400(2) 1.08246(19)
H45A H 0.3831 1.2112 1.0728
H46A H 0.5256 1.3238 1.1148
N2A N 1.2336(2) 0.8968(2) 1.0164(2)
Ag3 Ag 0.5000 0.5000 0.5000
N1 N 0.5899(3) 0.5172(3) 0.2929(3)
C27 C 0.5574(3) 0.5128(3) 0.3673(3)
N1A N 0.4101(3) 0.4828(3) 0.7071(3)
C27A C 0.4426(3) 0.4872(3) 0.6327(3)
loop_
_geom_bond_atom_site_label_1
_geom_bond_atom_site_label_2
_geom_bond_site_symmetry_1
_geom_bond_site_symmetry_2
Ag1 P1 1_555 1_555
Ag2 C1 1_555 1_555
Ag3 C27 1_555 1_555
P1 C2 1_555 1_555
P2 C14 1_555 1_555
C1 N2 1_555 1_555
N1 C27 1_555 1_555
C2 H1 1_555 1_555
C3 C2 1_555 1_555
H2 C3 1_555 1_555
H3 C3 1_555 1_555
C4 C3 1_555 1_555
H4 C4 1_555 1_555
H5 C4 1_555 1_555
C5 C4 1_555 1_555
H6 C5 1_555 1_555
H7 C5 1_555 1_555
C6 C5 1_555 1_555
H8 C6 1_555 1_555
H9 C6 1_555 1_555
C7 C2 1_555 1_555
H10 C7 1_555 1_555
H11 C7 1_555 1_555
C8 P1 1_555 1_555
H12 C8 1_555 1_555
C9 C8 1_555 1_555
H13 C9 1_555 1_555
H14 C9 1_555 1_555
C10 C9 1_555 1_555
H15 C10 1_555 1_555
H16 C10 1_555 1_555
C11 C10 1_555 1_555
H17 C11 1_555 1_555
H18 C11 1_555 1_555
C12 C11 1_555 1_555
H19 C12 1_555 1_555
H20 C12 1_555 1_555
C13 C8 1_555 1_555
H21 C13 1_555 1_555
H22 C13 1_555 1_555
C14 H23 1_555 1_555
C15 C14 1_555 1_555
H24 C15 1_555 1_555
H25 C15 1_555 1_555
C16 C15 1_555 1_555
H26 C16 1_555 1_555
H27 C16 1_555 1_555
C17 C16 1_555 1_555
H28 C17 1_555 1_555
H29 C17 1_555 1_555
C18 C17 1_555 1_555
H30 C18 1_555 1_555
H31 C18 1_555 1_555
C19 C14 1_555 1_555
H32 C19 1_555 1_555
H33 C19 1_555 1_555
C20 P2 1_555 1_555
H34 C20 1_555 1_555
C21 C20 1_555 1_555
H35 C21 1_555 1_555
H36 C21 1_555 1_555
C22 C21 1_555 1_555
H37 C22 1_555 1_555
H38 C22 1_555 1_555
C23 C22 1_555 1_555
H39 C23 1_555 1_555
H40 C23 1_555 1_555
C24 C23 1_555 1_555
H41 C24 1_555 1_555
H42 C24 1_555 1_555
C25 C20 1_555 1_555
H43 C25 1_555 1_555
H44 C25 1_555 1_555
C26 P1 1_555 1_555
H45 C26 1_555 1_555
H46 C26 1_555 1_555
N2 Ag1 1_555 1_555
Ag1A Ag1_2 1_555 1_555
Ag1A_2 Ag1 1_555 1_555
P1A Ag1A_2 1_555 1_555
P1A_2 Ag1A 1_555 1_555
P2A Ag1 1_555 1_555
P2_2 Ag1A 1_555 1_555
C1A Ag2 1_555 1_555
N1A C27A 1_555 1_555
C2A P1A 1_555 1_555
H1A C2A 1_555 1_555
C3A C2A 1_555 1_555
H2A C3A 1_555 1_555
H3A C3A 1_555 1_555
C4A C3A 1_555 1_555
H4A C4A 1_555 1_555
H5A C4A 1_555 1_555
C5A C4A 1_555 1_555
H6A C5A 1_555 1_555
H7A C5A 1_555 1_555
C6A C5A 1_555 1_555
H8A C6A 1_555 1_555
H9A C6A 1_555 1_555
C7A C2A 1_555 1_555
H10A C7A 1_555 1_555
H11A C7A 1_555 1_555
C8A P1A 1_555 1_555
H12A C8A 1_555 1_555
C9A C8A 1_555 1_555
H13A C9A 1_555 1_555
H14A C9A 1_555 1_555
C10A C9A 1_555 1_555
H15A C10A 1_555 1_555
H16A C10A 1_555 1_555
C11A C10A 1_555 1_555
H17A C11A 1_555 1_555
H18A C11A 1_555 1_555
C12A C11A 1_555 1_555
H19A C12A 1_555 1_555
H20A C12A 1_555 1_555
C13A C8A 1_555 1_555
H21A C13A 1_555 1_555
H22A C13A 1_555 1_555
C14A P2A 1_555 1_555
H23A C14A 1_555 1_555
C15A C14A 1_555 1_555
H24A C15A 1_555 1_555
H25A C15A 1_555 1_555
C16A C15A 1_555 1_555
H26A C16A 1_555 1_555
H27A C16A 1_555 1_555
C17A C16A 1_555 1_555
H28A C17A 1_555 1_555
H29A C17A 1_555 1_555
C18A C17A 1_555 1_555
H30A C18A 1_555 1_555
H31A C18A 1_555 1_555
C19A C14A 1_555 1_555
H32A C19A 1_555 1_555
H33A C19A 1_555 1_555
C20A P2A 1_555 1_555
H34A C20A 1_555 1_555
C21A C20A 1_555 1_555
H35A C21A 1_555 1_555
H36A C21A 1_555 1_555
C22A C21A 1_555 1_555
H37A C22A 1_555 1_555
H38A C22A 1_555 1_555
C23A C22A 1_555 1_555
H39A C23A 1_555 1_555
H40A C23A 1_555 1_555
C24A C23A 1_555 1_555
H41A C24A 1_555 1_555
H42A C24A 1_555 1_555
C25A C20A 1_555 1_555
H43A C25A 1_555 1_555
H44A C25A 1_555 1_555
C26A P1A 1_555 1_555
H45A C26A 1_555 1_555
H46A C26A 1_555 1_555
N2A Ag1A 1_555 1_555
C27A Ag3 1_555 1_555
P2 C26 1_555 1_555
P2 Ag1A_2 1_555 1_555
C6 C7 1_555 1_555
C12 C13 1_555 1_555
C18 C19 1_555 1_555
C24 C25 1_555 1_555
P2A C26A 1_555 1_555
C1A N2A 1_555 1_555
C6A C7A 1_555 1_555
C12A C13A 1_555 1_555
C18A C19A 1_555 1_555
C24A C25A 1_555 1_555

#END
