
#######################################################################
#
#                 Cambridge Crystallographic Data Centre
#                                CCDC 
#
#######################################################################
#
# If this CIF has been generated from an entry in the Cambridge 
# Structural Database, then it will include bibliographic, chemical, 
# crystal, experimental, refinement or atomic coordinate data resulting 
# from the CCDC's data processing and validation procedures.
#
#######################################################################

data_GARMES01
_symmetry_cell_setting           triclinic
_symmetry_space_group_name_H-M   'P -1'
_symmetry_Int_Tables_number      2
_space_group_name_Hall           '-P 1'
loop_
_symmetry_equiv_pos_site_id
_symmetry_equiv_pos_as_xyz
1 x,y,z
2 -x,-y,-z
_cell_length_a                   9.6724(6)
_cell_length_b                   10.2243(6)
_cell_length_c                   14.8205(9)
_cell_angle_alpha                88.927(5)
_cell_angle_beta                 71.664(6)
_cell_angle_gamma                75.767(5)
_cell_volume                     1345.79
loop_
_atom_site_label
_atom_site_type_symbol
_atom_site_fract_x
_atom_site_fract_y
_atom_site_fract_z
Cd1 Cd 0.03535(2) 0.900961(18) 0.197234(14)
O1 O 0.0583(2) 0.66964(19) 0.19109(15)
O2 O -0.0909(3) 0.79819(19) 0.12078(16)
O3 O 0.1908(2) 0.8980(2) 0.28593(15)
O4 O -0.1395(2) 0.92215(19) 0.35650(14)
O5 O -0.0866(2) 1.10392(19) 0.17250(16)
N1 N 0.2467(3) 0.8976(2) 0.06906(17)
C1 C 0.2274(3) 0.9279(3) 0.35395(19)
Cd2 Cd -0.08943(2) 1.105177(18) 0.413974(14)
C2 C -0.0747(3) 1.2093(3) 0.2079(2)
C3 C 0.3722(4) 0.7997(3) 0.0595(2)
C4 C 0.2448(4) 0.9742(3) -0.0046(2)
O6 O 0.1396(2) 1.00555(19) 0.42646(14)
C5 C 0.3863(3) 0.8667(3) 0.35125(18)
O7 O -0.0324(3) 1.2161(2) 0.27990(15)
C6 C -0.1114(3) 1.3375(3) 0.1599(2)
C7 C 0.4950(4) 0.7760(3) -0.0215(2)
H1 H 0.3763 0.7453 0.1100
H2 H 0.1588 1.0428 0.0004
C8 C 0.3644(4) 0.9564(3) -0.0879(2)
C9 C 0.4709(3) 0.9446(3) 0.37421(19)
C10 C 0.4513(3) 0.7318(3) 0.3213(2)
C11 C -0.0562(3) 1.4466(3) 0.1730(2)
C12 C -0.2015(4) 1.3488(3) 0.1015(2)
H3 H 0.5799 0.7072 -0.0245
C13 C 0.4931(3) 0.8542(3) -0.0988(2)
H4 H 0.3585 1.0135 -0.1369
H5 H 0.4263 1.0342 0.3969
C14 C 0.6225(3) 0.8890(3) 0.36346(19)
H6 H 0.3959 0.6804 0.3036
C15 C 0.5978(3) 0.6731(3) 0.3175(2)
C16 C -0.0921(3) 1.5664(3) 0.1297(2)
H7 H 0.0052 1.4394 0.2111
C17 C -0.2399(4) 1.4683(3) 0.0601(3)
H8 H -0.2359 1.2753 0.0905
C18 C 0.6233(4) 0.8262(3) -0.1900(2)
C19 C 0.7180(3) 0.9763(3) 0.37804(19)
C20 C 0.6842(3) 0.7519(3) 0.3375(2)
H9 H 0.6387 0.5810 0.3016
C21 C -0.1855(4) 1.5775(3) 0.0739(2)
C22 C -0.0366(3) 1.6851(3) 0.1468(2)
H10 H -0.3025 1.4758 0.0227
H11 H 0.6148 0.9045 -0.2278
C23 C 0.6307(4) 0.7023(3) -0.2488(2)
H12 H 0.7163 0.8128 -0.1750
O8 O 0.6627(2) 1.0958(2) 0.41038(15)
H13 H 0.7836 0.7127 0.3336
H14 H -0.2116 1.6580 0.0459
C24 C 0.7560(4) 0.6844(3) -0.3441(2)
H15 H 0.6483 0.6224 -0.2135
H16 H 0.5351 0.7120 -0.2597
C25 C 0.7862(3) 0.5522(3) -0.3992(2)
H17 H 0.8478 0.6906 -0.3329
H18 H 0.7296 0.7581 -0.3827
N2 N 0.8542(3) 1.3049(2) 0.49668(17)
C26 C 0.7144(4) 0.5367(3) -0.4650(2)
C27 C 0.8905(3) 0.4386(3) -0.3868(2)
C28 C 0.7514(4) 0.4141(3) -0.5150(2)
H19 H 0.6420 0.6088 -0.4751
C29 C 0.9219(3) 0.3197(3) -0.4395(2)
H20 H 0.9394 0.4432 -0.3424
H21 H 0.7030 0.4061 -0.5590
H22 H 0.9935 0.2459 -0.4304
Cd2A Cd 0.08943(2) 0.894823(18) 0.586026(14)
O4_2 O 0.8605(2) 0.92215(19) 0.35650(14)
O1_2 O 0.0583(2) 1.66964(19) 0.19109(15)
O2_2 O -0.0909(3) 1.79819(19) 0.12078(16)
Cd2_2 Cd 0.91057(2) 1.105177(18) 0.413974(14)
Cd1_2 Cd 1.03535(2) 0.900961(18) 0.197234(14)
Cd1_3 Cd 0.03535(2) 1.900961(18) 0.197234(14)
O7_2 O 0.9676(3) 1.2161(2) 0.27990(15)
O6_2 O 1.1396(2) 1.00555(19) 0.42646(14)
O6A O 0.8604(2) 0.99445(19) 0.57354(14)
N2_2 N 0.8542(3) 0.3049(2) -0.50332(17)
Cd2_3 Cd 0.91057(2) 0.105177(18) -0.586026(14)
loop_
_geom_bond_atom_site_label_1
_geom_bond_atom_site_label_2
_geom_bond_site_symmetry_1
_geom_bond_site_symmetry_2
Cd1 O1 1_555 1_555
O2 Cd1 1_555 1_555
O3 Cd1 1_555 1_555
O4 Cd1 1_555 1_555
O5 Cd1 1_555 1_555
N1 Cd1 1_555 1_555
C1 O3 1_555 1_555
Cd2 O4 1_555 1_555
C2 O5 1_555 1_555
C3 N1 1_555 1_555
C4 N1 1_555 1_555
O6 C1 1_555 1_555
C5 C1 1_555 1_555
O7 Cd2 1_555 1_555
C6 C2 1_555 1_555
C7 C3 1_555 1_555
H1 C3 1_555 1_555
H2 C4 1_555 1_555
C8 C4 1_555 1_555
C9 C5 1_555 1_555
C10 C5 1_555 1_555
C11 C6 1_555 1_555
C12 C6 1_555 1_555
H3 C7 1_555 1_555
C13 C7 1_555 1_555
H4 C8 1_555 1_555
H5 C9 1_555 1_555
C14 C9 1_555 1_555
H6 C10 1_555 1_555
C15 C10 1_555 1_555
C16 C11 1_555 1_555
H7 C11 1_555 1_555
C17 C12 1_555 1_555
H8 C12 1_555 1_555
C18 C13 1_555 1_555
C19 C14 1_555 1_555
C20 C14 1_555 1_555
H9 C15 1_555 1_555
C21 C16 1_555 1_555
C22 C16 1_555 1_555
H10 C17 1_555 1_555
H11 C18 1_555 1_555
C23 C18 1_555 1_555
H12 C18 1_555 1_555
O8 C19 1_555 1_555
H13 C20 1_555 1_555
H14 C21 1_555 1_555
C24 C23 1_555 1_555
H15 C23 1_555 1_555
H16 C23 1_555 1_555
C25 C24 1_555 1_555
H17 C24 1_555 1_555
H18 C24 1_555 1_555
N2 Cd2_2 1_555 1_555
C26 C25 1_555 1_555
C27 C25 1_555 1_555
C28 C26 1_555 1_555
H19 C26 1_555 1_555
C29 C27 1_555 1_555
H20 C27 1_555 1_555
H21 C28 1_555 1_555
H22 C29 1_555 1_555
Cd2A O6 1_555 1_555
O4_2 C19 1_555 1_555
O1_2 C22 1_555 1_555
O2_2 C22 1_555 1_555
Cd2_2 O8 1_555 1_555
Cd1_2 O4_2 1_555 1_555
Cd1_3 O1_2 1_555 1_555
O7_2 Cd2_2 1_555 1_555
O6_2 Cd2_2 1_555 1_555
O6A Cd2_2 1_555 1_555
N2_2 C28 1_555 1_555
Cd2_3 N2_2 1_555 1_555
Cd2 O6 1_555 1_555
C2 O7 1_555 1_555
C8 C13 1_555 1_555
C15 C20 1_555 1_555
C17 C21 1_555 1_555
C29 N2_2 1_555 1_555
O4_2 Cd2_2 1_555 1_555
O2_2 Cd1_3 1_555 1_555

#END
