
#######################################################################
#
#                 Cambridge Crystallographic Data Centre
#                                CCDC 
#
#######################################################################
#
# If this CIF has been generated from an entry in the Cambridge 
# Structural Database, then it will include bibliographic, chemical, 
# crystal, experimental, refinement or atomic coordinate data resulting 
# from the CCDC's data processing and validation procedures.
#
#######################################################################

data_GARQEW
_symmetry_cell_setting           monoclinic
_symmetry_space_group_name_H-M   'P 21'
_symmetry_Int_Tables_number      4
_space_group_name_Hall           'P 2yb'
loop_
_symmetry_equiv_pos_site_id
_symmetry_equiv_pos_as_xyz
1 x,y,z
2 -x,1/2+y,-z
_cell_length_a                   13.353(10)
_cell_length_b                   12.995(11)
_cell_length_c                   20.948(16)
_cell_angle_alpha                90
_cell_angle_beta                 96.22(4)
_cell_angle_gamma                90
_cell_volume                     3613.55
loop_
_atom_site_label
_atom_site_type_symbol
_atom_site_fract_x
_atom_site_fract_y
_atom_site_fract_z
Cu1 Cu 0.7816(2) 1.0372(2) -0.00295(13)
Cl1 Cl 0.6911(5) 0.9362(6) -0.0767(3)
O1 O 0.9464(17) 1.015(3) -0.0241(12)
H1 H 0.9931 1.0061 -0.0516
H2 H 0.9860 1.0475 0.0069
N1 N 0.7707(13) 1.1401(17) 0.0730(9)
C1 C 0.6595(15) 1.1662(17) 0.0716(9)
H5 H 0.6382 1.1975 0.0308
C2 C 0.6424(18) 1.247(2) 0.1242(11)
H6 H 0.7035 1.2849 0.1348
H7 H 0.6280 1.2102 0.1620
N2 N 0.5540(14) 1.3224(18) 0.1050(8)
C3 C 0.598(2) 1.072(3) 0.0771(13)
H8 H 0.6094 1.0249 0.0434
H9 H 0.6168 1.0406 0.1180
H10 H 0.5278 1.0903 0.0735
N3 N 0.7795(17) 1.1697(19) -0.0528(10)
C4 C 0.8156(19) 1.252(2) -0.0139(11)
C5 C 0.833(2) 1.339(3) -0.0407(13)
H11 H 0.8554 1.3965 -0.0142
C6 C 0.818(4) 1.352(3) -0.1086(18)
H12 H 0.8297 1.4172 -0.1283
C7 C 0.787(3) 1.271(3) -0.1437(17)
H13 H 0.7801 1.2762 -0.1897
C8 C 0.765(3) 1.176(3) -0.1159(11)
H14 H 0.7381 1.1186 -0.1412
C9 C 0.835(2) 1.221(2) 0.0568(13)
H15 H 0.9037 1.1988 0.0657
H16 H 0.8259 1.2799 0.0834
N4 N 0.8128(16) 0.9380(17) 0.0638(9)
C10 C 0.8252(19) 0.973(2) 0.1275(14)
C11 C 0.854(2) 0.910(2) 0.1779(12)
H17 H 0.8604 0.9347 0.2213
C12 C 0.876(2) 0.808(2) 0.1639(16)
H18 H 0.9004 0.7623 0.1979
C13 C 0.863(3) 0.772(2) 0.1031(19)
H19 H 0.8766 0.7019 0.0933
C14 C 0.830(2) 0.839(2) 0.0559(15)
H20 H 0.8162 0.8121 0.0131
C15 C 0.8113(17) 1.085(3) 0.1335(11)
H21 H 0.7658 1.0963 0.1652
H22 H 0.8749 1.1147 0.1494
Cu2 Cu 0.5817(2) 0.7475(2) -0.08097(13)
Cl2 Cl 0.6997(5) 0.6288(6) -0.0545(4)
N5 N 0.4561(15) 1.2735(18) -0.0075(8)
C16 C 0.531(2) 1.343(2) -0.0112(11)
C17 C 0.565(2) 1.370(3) -0.0698(11)
H23 H 0.6179 1.4196 -0.0720
C18 C 0.517(3) 1.323(3) -0.1246(15)
H24 H 0.5348 1.3443 -0.1657
C19 C 0.447(3) 1.250(4) -0.1222(13)
H25 H 0.4214 1.2148 -0.1609
C20 C 0.411(2) 1.223(3) -0.0631(12)
H26 H 0.3591 1.1728 -0.0607
C21 C 0.5728(18) 1.3895(18) 0.0518(11)
H27 H 0.6439 1.4005 0.0521
H28 H 0.5415 1.4550 0.0569
N6 N 0.4132(14) 1.247(2) 0.1758(9)
C22 C 0.4775(15) 1.318(2) 0.2056(9)
C23 C 0.480(2) 1.329(2) 0.2730(10)
H29 H 0.5235 1.3796 0.2954
C24 C 0.419(3) 1.267(3) 0.3063(16)
H30 H 0.4185 1.2749 0.3518
C25 C 0.364(3) 1.200(4) 0.2762(15)
H31 H 0.3250 1.1543 0.2999
C26 C 0.357(2) 1.188(2) 0.2100(15)
H32 H 0.3119 1.1386 0.1880
C27 C 0.5412(15) 1.3851(19) 0.1651(10)
H33 H 0.5078 1.4491 0.1542
H34 H 0.6056 1.3993 0.1884
N2A N 0.4460(14) 0.8224(18) -0.1050(8)
Cu2A Cu 0.4183(2) 1.2475(2) 0.08097(13)
N5A N 0.5439(15) 0.7735(18) 0.0075(8)
N6A N 0.5868(14) 0.747(2) -0.1758(9)
O2 O 1.0661(16) 1.116(3) 0.0682(12)
H3 H 1.0626 1.0967 0.1092
H4 H 1.1323 1.1192 0.0639
Cu3 Cu 0.7174(2) 0.5973(2) 0.47125(13)
Cl3 Cl 0.7804(6) 0.7043(6) 0.5542(3)
O3 O 0.5551(17) 0.632(3) 0.4675(13)
H35 H 0.5275 0.6182 0.4273
H36 H 0.5234 0.5983 0.4968
N7 N 0.7511(14) 0.4945(17) 0.4010(8)
C28 C 0.8609(15) 0.466(2) 0.4144(10)
H41 H 0.8704 0.4343 0.4561
C29 C 0.8921(17) 0.3844(19) 0.3646(10)
H42 H 0.9078 0.4211 0.3272
H43 H 0.8344 0.3421 0.3519
N8 N 0.9779(14) 0.3158(17) 0.3859(9)
C30 C 0.9276(19) 0.5611(17) 0.4159(13)
H44 H 0.9078 0.6091 0.4470
H45 H 0.9965 0.5415 0.4271
H46 H 0.9205 0.5926 0.3742
N9 N 0.7048(15) 0.4718(15) 0.5206(9)
C31 C 0.6908(16) 0.385(2) 0.4834(13)
C32 C 0.671(2) 0.292(2) 0.5082(15)
H47 H 0.6541 0.2339 0.4812
C33 C 0.676(3) 0.284(3) 0.5791(16)
H48 H 0.6702 0.2181 0.5989
C34 C 0.688(3) 0.366(3) 0.6137(15)
H49 H 0.6855 0.3620 0.6593
C35 C 0.706(3) 0.459(3) 0.5859(13)
H50 H 0.7213 0.5180 0.6128
C36 C 0.6823(18) 0.405(2) 0.4125(11)
H51 H 0.7019 0.3452 0.3902
H52 H 0.6140 0.4220 0.3970
N10 N 0.7146(17) 0.6960(15) 0.4004(9)
C37 C 0.7237(18) 0.659(2) 0.3402(12)
C38 C 0.719(2) 0.724(2) 0.2874(11)
H53 H 0.7273 0.6964 0.2458
C39 C 0.701(2) 0.821(2) 0.2942(13)
H54 H 0.6971 0.8644 0.2570
C40 C 0.689(3) 0.866(3) 0.3528(17)
H55 H 0.6726 0.9375 0.3578
C41 C 0.701(2) 0.794(3) 0.4044(13)
H56 H 0.6999 0.8212 0.4468
C42 C 0.7269(19) 0.549(2) 0.3366(10)
H57 H 0.6630 0.5241 0.3171
H58 H 0.7769 0.5293 0.3092
Cu4 Cu 0.8908(2) 0.8855(3) 0.57681(13)
Cl4 Cl 0.7775(5) 1.0076(6) 0.5414(3)
N11 N 1.0511(17) 0.365(2) 0.5088(10)
C43 C 0.9769(19) 0.2952(18) 0.5034(10)
C44 C 0.932(2) 0.267(2) 0.5605(13)
H59 H 0.8852 0.2115 0.5610
C45 C 0.964(3) 0.328(4) 0.6141(12)
H60 H 0.9283 0.3183 0.6512
C46 C 1.041(3) 0.399(4) 0.6172(14)
H61 H 1.0654 0.4318 0.6569
C47 C 1.078(2) 0.417(3) 0.5646(13)
H62 H 1.1264 0.4711 0.5640
C48 C 0.9469(17) 0.244(2) 0.4389(9)
H63 H 0.9798 0.1786 0.4370
H64 H 0.8754 0.2329 0.4334
N12 N 1.1326(15) 0.3867(19) 0.3316(8)
C49 C 1.078(3) 0.322(3) 0.2948(13)
C50 C 1.076(2) 0.309(3) 0.2287(13)
H65 H 1.0293 0.2658 0.2035
C51 C 1.148(2) 0.369(3) 0.2025(12)
H66 H 1.1552 0.3640 0.1574
C52 C 1.208(3) 0.433(3) 0.2379(18)
H67 H 1.2588 0.4702 0.2186
C53 C 1.204(2) 0.445(3) 0.3053(13)
H68 H 1.2468 0.4920 0.3309
C54 C 1.0071(18) 0.256(2) 0.3302(12)
H69 H 0.9485 0.2359 0.3023
H70 H 1.0421 0.1949 0.3458
N8A N 1.0221(14) 0.8158(17) 0.6141(9)
Cu4A Cu 1.1092(2) 0.3855(3) 0.42319(13)
N11A N 0.9489(17) 0.865(2) 0.4912(10)
N12A N 0.8674(15) 0.8867(19) 0.6684(8)
O4 O 0.461(3) 0.528(4) 0.557(2)
H37 H 0.4205 0.5628 0.5813
H38 H 0.4549 0.4768 0.5285
O5 O 0.441(3) 0.378(5) 0.466(3)
H39 H 0.3826 0.4126 0.4637
H40 H 0.4425 0.3136 0.4829
Cl5 Cl 0.7104(6) 1.1389(6) 0.3036(3)
O6 O 0.650(2) 1.078(2) 0.2604(12)
O7 O 0.676(3) 1.146(3) 0.3653(10)
O8 O 0.7213(18) 1.235(2) 0.2780(10)
O9 O 0.801(2) 1.088(2) 0.3091(17)
Cl6 Cl 1.1133(7) 0.0020(7) 0.2467(3)
O10 O 1.0847(18) -0.099(2) 0.2464(9)
O11 O 1.208(4) 0.004(5) 0.222(2)
O12 O 1.122(3) 0.052(3) 0.3053(13)
O13 O 1.052(5) 0.053(4) 0.202(2)
Cl7 Cl 0.8494(6) 0.4925(7) 0.1666(3)
O14 O 0.895(2) 0.562(3) 0.2140(15)
O15 O 0.836(2) 0.401(2) 0.1927(13)
O16 O 0.899(4) 0.488(4) 0.1137(16)
O17 O 0.756(3) 0.537(4) 0.1536(15)
Cl8 Cl 0.4380(6) 0.6415(8) 0.2860(4)
O18 O 0.467(3) 0.587(4) 0.3417(11)
O19 O 0.484(3) 0.592(2) 0.2392(15)
O20 O 0.471(2) 0.740(2) 0.293(2)
O21 O 0.331(2) 0.651(4) 0.2779(14)
loop_
_geom_bond_atom_site_label_1
_geom_bond_atom_site_label_2
_geom_bond_site_symmetry_1
_geom_bond_site_symmetry_2
Cu1 Cl1 1_555 1_555
Cl1 Cu2 1_555 1_555
O1 Cu1 1_555 1_555
H1 O1 1_555 1_555
H2 O1 1_555 1_555
O2 H3 1_555 1_555
H4 O2 1_555 1_555
N1 Cu1 1_555 1_555
C1 N1 1_555 1_555
H5 C1 1_555 1_555
C2 C1 1_555 1_555
H6 C2 1_555 1_555
H7 C2 1_555 1_555
N2 C2 1_555 1_555
C3 C1 1_555 1_555
H8 C3 1_555 1_555
H9 C3 1_555 1_555
H10 C3 1_555 1_555
N3 Cu1 1_555 1_555
C4 N3 1_555 1_555
C5 C4 1_555 1_555
H11 C5 1_555 1_555
C6 C5 1_555 1_555
H12 C6 1_555 1_555
C7 C6 1_555 1_555
H13 C7 1_555 1_555
C8 N3 1_555 1_555
H14 C8 1_555 1_555
C9 N1 1_555 1_555
H15 C9 1_555 1_555
H16 C9 1_555 1_555
N4 Cu1 1_555 1_555
C10 N4 1_555 1_555
C11 C10 1_555 1_555
H17 C11 1_555 1_555
C12 C11 1_555 1_555
H18 C12 1_555 1_555
C13 C12 1_555 1_555
H19 C13 1_555 1_555
C14 N4 1_555 1_555
H20 C14 1_555 1_555
C15 N1 1_555 1_555
H21 C15 1_555 1_555
H22 C15 1_555 1_555
Cu2 Cl2 1_555 1_555
N5 C16 1_555 1_555
C16 C17 1_555 1_555
C17 H23 1_555 1_555
C18 C17 1_555 1_555
H24 C18 1_555 1_555
C19 C18 1_555 1_555
H25 C19 1_555 1_555
C20 N5 1_555 1_555
H26 C20 1_555 1_555
C21 N2 1_555 1_555
H27 C21 1_555 1_555
H28 C21 1_555 1_555
N6 C22 1_555 1_555
C22 C23 1_555 1_555
C23 H29 1_555 1_555
C24 C23 1_555 1_555
H30 C24 1_555 1_555
C25 C24 1_555 1_555
H31 C25 1_555 1_555
C26 N6 1_555 1_555
H32 C26 1_555 1_555
C27 N2 1_555 1_555
H33 C27 1_555 1_555
H34 C27 1_555 1_555
Cu3 Cl3 1_555 1_555
Cl3 Cu4 1_555 1_555
O3 Cu3 1_555 1_555
H35 O3 1_555 1_555
H36 O3 1_555 1_555
O4 H37 1_555 1_555
H38 O4 1_555 1_555
O5 H39 1_555 1_555
H40 O5 1_555 1_555
N7 Cu3 1_555 1_555
C28 N7 1_555 1_555
H41 C28 1_555 1_555
C29 C28 1_555 1_555
H42 C29 1_555 1_555
H43 C29 1_555 1_555
N8 C29 1_555 1_555
C30 C28 1_555 1_555
H44 C30 1_555 1_555
H45 C30 1_555 1_555
H46 C30 1_555 1_555
N9 Cu3 1_555 1_555
C31 N9 1_555 1_555
C32 C31 1_555 1_555
H47 C32 1_555 1_555
C33 C32 1_555 1_555
H48 C33 1_555 1_555
C34 C33 1_555 1_555
H49 C34 1_555 1_555
C35 N9 1_555 1_555
H50 C35 1_555 1_555
C36 N7 1_555 1_555
H51 C36 1_555 1_555
H52 C36 1_555 1_555
N10 Cu3 1_555 1_555
C37 N10 1_555 1_555
C38 C37 1_555 1_555
H53 C38 1_555 1_555
C39 C38 1_555 1_555
H54 C39 1_555 1_555
C40 C39 1_555 1_555
H55 C40 1_555 1_555
C41 N10 1_555 1_555
H56 C41 1_555 1_555
C42 N7 1_555 1_555
H57 C42 1_555 1_555
H58 C42 1_555 1_555
Cu4 Cl4 1_555 1_555
N11 C43 1_555 1_555
C43 C44 1_555 1_555
C44 H59 1_555 1_555
C45 C44 1_555 1_555
H60 C45 1_555 1_555
C46 C45 1_555 1_555
H61 C46 1_555 1_555
C47 N11 1_555 1_555
H62 C47 1_555 1_555
C48 N8 1_555 1_555
H63 C48 1_555 1_555
H64 C48 1_555 1_555
N12 C49 1_555 1_555
C49 C50 1_555 1_555
C50 H65 1_555 1_555
C51 C50 1_555 1_555
H66 C51 1_555 1_555
C52 C51 1_555 1_555
H67 C52 1_555 1_555
C53 N12 1_555 1_555
H68 C53 1_555 1_555
C54 N8 1_555 1_555
H69 C54 1_555 1_555
H70 C54 1_555 1_555
Cl5 O6 1_555 1_555
O7 Cl5 1_555 1_555
O8 Cl5 1_555 1_555
O9 Cl5 1_555 1_555
Cl6 O10 1_555 1_555
O11 Cl6 1_555 1_555
O12 Cl6 1_555 1_555
O13 Cl6 1_555 1_555
Cl7 O14 1_555 1_555
O15 Cl7 1_555 1_555
O16 Cl7 1_555 1_555
O17 Cl7 1_555 1_555
Cl8 O18 1_555 1_555
O19 Cl8 1_555 1_555
O20 Cl8 1_555 1_555
O21 Cl8 1_555 1_555
N2A Cu2 1_555 1_555
Cu2A N2 1_555 1_555
N5A Cu2 1_555 1_555
N6A Cu2 1_555 1_555
N8A Cu4 1_555 1_555
Cu4A N8 1_555 1_555
N11A Cu4 1_555 1_555
N12A Cu4 1_555 1_555
C4 C9 1_555 1_555
C7 C8 1_555 1_555
C10 C15 1_555 1_555
C13 C14 1_555 1_555
N5 Cu2A 1_555 1_555
C16 C21 1_555 1_555
C19 C20 1_555 1_555
N6 Cu2A 1_555 1_555
C22 C27 1_555 1_555
C25 C26 1_555 1_555
C31 C36 1_555 1_555
C34 C35 1_555 1_555
C37 C42 1_555 1_555
C40 C41 1_555 1_555
N11 Cu4A 1_555 1_555
C43 C48 1_555 1_555
C46 C47 1_555 1_555
N12 Cu4A 1_555 1_555
C49 C54 1_555 1_555
C52 C53 1_555 1_555

#END
