
#######################################################################
#
#                 Cambridge Crystallographic Data Centre
#                                CCDC 
#
#######################################################################
#
# If this CIF has been generated from an entry in the Cambridge 
# Structural Database, then it will include bibliographic, chemical, 
# crystal, experimental, refinement or atomic coordinate data resulting 
# from the CCDC's data processing and validation procedures.
#
#######################################################################

data_GARSID01
_symmetry_cell_setting           monoclinic
_symmetry_space_group_name_H-M   'P 21/n'
_symmetry_Int_Tables_number      14
_space_group_name_Hall           '-P 2yn'
loop_
_symmetry_equiv_pos_site_id
_symmetry_equiv_pos_as_xyz
1 x,y,z
2 1/2-x,1/2+y,1/2-z
3 -x,-y,-z
4 1/2+x,1/2-y,1/2+z
_cell_length_a                   7.5454(16)
_cell_length_b                   11.323(3)
_cell_length_c                   12.532(3)
_cell_angle_alpha                90
_cell_angle_beta                 104.885(10)
_cell_angle_gamma                90
_cell_volume                     1034.76
loop_
_atom_site_label
_atom_site_type_symbol
_atom_site_fract_x
_atom_site_fract_y
_atom_site_fract_z
C1 C 0.9677(6) 0.8674(4) 0.3861(4)
C2 C 0.9652(6) 0.8013(4) 0.4849(4)
C3 C 0.4507(6) 0.5085(4) 0.6285(3)
H1 H 0.3256 0.5178 0.6210
C4 C 0.7081(6) 0.3933(4) 0.6777(4)
C5 C 1.2377(6) 0.8747(4) 0.6424(4)
C6 C 0.8152(6) 0.4841(4) 0.6569(4)
H2 H 0.9410 0.4731 0.6694
C7 C 1.0733(6) 0.8041(4) 0.5912(3)
C8 C 0.7366(6) 0.5924(4) 0.6169(3)
C9 C 0.8494(6) 0.6855(4) 0.5841(3)
C10 C 0.5488(6) 0.6049(4) 0.6048(4)
H3 H 0.4903 0.6762 0.5815
N1 N 0.8209(5) 0.7259(3) 0.4812(3)
N2 N 0.5256(5) 0.4044(3) 0.6611(3)
N3 N 1.0001(5) 0.7320(3) 0.6545(3)
Ni1 Ni 1.13951(8) 0.76320(5) 0.82049(5)
O1 O 1.1100(5) 0.9330(3) 0.3871(3)
O2 O 0.8355(5) 0.8611(3) 0.3047(3)
O3 O 1.3118(5) 0.9332(3) 0.5780(3)
H4 H 1.3492 0.8797 0.5286
O4 O 0.9935(4) 0.6367(3) 0.8827(3)
H5 H 0.8657 0.6571 0.8614
H6 H 1.0105 0.5604 0.8535
O5 O 1.2918(4) 0.8733(3) 0.7453(3)
N1C N 1.3209(5) 0.7741(3) 0.9812(3)
N2A N 0.9744(5) 0.9044(3) 0.8389(3)
Ni1A Ni 0.36049(8) 0.26320(5) 0.67951(5)
Ni1C Ni 0.63951(8) 0.73680(5) 0.32049(5)
O2C O 1.3355(5) 0.6389(3) 0.8047(3)
loop_
_geom_bond_atom_site_label_1
_geom_bond_atom_site_label_2
_geom_bond_site_symmetry_1
_geom_bond_site_symmetry_2
C1 C2 1_555 1_555
C2 C7 1_555 1_555
C3 H1 1_555 1_555
C4 C6 1_555 1_555
C5 C7 1_555 1_555
C6 H2 1_555 1_555
C7 N3 1_555 1_555
C8 C6 1_555 1_555
C9 C8 1_555 1_555
C10 C3 1_555 1_555
H3 C10 1_555 1_555
N1 C2 1_555 1_555
N2 C3 1_555 1_555
N3 C9 1_555 1_555
Ni1 N3 1_555 1_555
O1 C1 1_555 1_555
O2 C1 1_555 1_555
O3 C5 1_555 1_555
H4 O3 1_555 1_555
O4 Ni1 1_555 1_555
H5 O4 1_555 1_555
H6 O4 1_555 1_555
O5 C5 1_555 1_555
N1C Ni1 1_555 1_555
N2A Ni1 1_555 1_555
Ni1A N2 1_555 1_555
Ni1C N1 1_555 1_555
O2C Ni1 1_555 1_555
C4 N2 1_555 1_555
C8 C10 1_555 1_555
C9 N1 1_555 1_555
Ni1 O5 1_555 1_555
O2 Ni1C 1_555 1_555

#END
