
#######################################################################
#
#                 Cambridge Crystallographic Data Centre
#                                CCDC 
#
#######################################################################
#
# If this CIF has been generated from an entry in the Cambridge 
# Structural Database, then it will include bibliographic, chemical, 
# crystal, experimental, refinement or atomic coordinate data resulting 
# from the CCDC's data processing and validation procedures.
#
#######################################################################

data_GARTEA
_symmetry_cell_setting           monoclinic
_symmetry_space_group_name_H-M   'P 21/n'
_symmetry_Int_Tables_number      14
_space_group_name_Hall           '-P 2yn'
loop_
_symmetry_equiv_pos_site_id
_symmetry_equiv_pos_as_xyz
1 x,y,z
2 1/2-x,1/2+y,1/2-z
3 -x,-y,-z
4 1/2+x,1/2-y,1/2+z
_cell_length_a                   14.39240(10)
_cell_length_b                   9.6206(2)
_cell_length_c                   17.4245(3)
_cell_angle_alpha                90
_cell_angle_beta                 105.8400(10)
_cell_angle_gamma                90
_cell_volume                     2321.04
loop_
_atom_site_label
_atom_site_type_symbol
_atom_site_fract_x
_atom_site_fract_y
_atom_site_fract_z
Er1 Er 0.605750(18) 0.47360(3) 0.260342(15)
S1 S 0.36918(11) 0.32578(18) 0.16175(9)
O1 O 0.4701(3) 0.3319(5) 0.2100(3)
O2 O 0.3281(4) 0.4647(6) 0.1432(3)
O3 O 0.3114(4) 0.2373(7) 0.1977(3)
O4 O 0.4072(4) 0.4853(5) -0.1229(3)
O5 O 0.3523(3) 0.3144(4) -0.2054(2)
O6 O 0.2667(3) 0.0313(4) -0.1963(3)
O7 O 0.4246(3) -0.0030(5) -0.1691(3)
O8 O 0.6548(3) 0.2506(5) 0.2388(3)
H1 H 0.7135(16) 0.234(7) 0.260(4)
H2 H 0.628(4) 0.181(5) 0.213(4)
O9 O 0.4707(4) 0.6125(5) 0.2474(3)
H3 H 0.421(4) 0.582(7) 0.215(4)
H4 H 0.471(5) 0.6997(12) 0.245(5)
N1 N 0.5895(4) 0.3629(6) 0.3847(3)
N2 N 0.6445(4) 0.6325(6) 0.3796(3)
C1 C 0.5629(6) 0.2322(8) 0.3879(4)
H9 H 0.5473 0.1810 0.3408
C2 C 0.5567(7) 0.1661(9) 0.4578(5)
H10 H 0.5377 0.0735 0.4568
C3 C 0.5786(6) 0.2385(10) 0.5265(5)
H11 H 0.5750 0.1959 0.5735
C4 C 0.6070(5) 0.3794(9) 0.5274(4)
C5 C 0.6311(6) 0.4650(10) 0.5974(4)
H12 H 0.6265 0.4279 0.6456
C6 C 0.6601(6) 0.5979(10) 0.5955(4)
H13 H 0.6758 0.6503 0.6421
C7 C 0.6671(5) 0.6591(9) 0.5224(4)
C8 C 0.6992(6) 0.7949(10) 0.5171(5)
H14 H 0.7183 0.8497 0.5627
C9 C 0.7025(7) 0.8470(9) 0.4456(5)
H15 H 0.7233 0.9376 0.4418
C10 C 0.6744(6) 0.7634(8) 0.3780(5)
H16 H 0.6766 0.8008 0.3293
C11 C 0.6411(5) 0.5800(8) 0.4513(4)
C12 C 0.6118(4) 0.4375(7) 0.4544(4)
C13 C 0.3714(4) 0.2483(7) 0.0701(3)
C14 C 0.3788(4) 0.3306(7) 0.0066(4)
H17 H 0.3870 0.4262 0.0132
C15 C 0.3741(4) 0.2703(6) -0.0666(3)
C16 C 0.3647(4) 0.1252(6) -0.0760(3)
C17 C 0.3641(5) 0.0436(6) -0.0099(4)
H18 H 0.3625 -0.0528 -0.0144
C18 C 0.3657(5) 0.1048(7) 0.0627(4)
H19 H 0.3630 0.0500 0.1060
C19 C 0.3780(4) 0.3614(7) -0.1350(3)
C20 C 0.3527(4) 0.0479(6) -0.1535(4)
Er1B Er 0.394250(18) 0.52640(3) -0.260342(15)
Er1A Er 0.894250(18) 0.97360(3) 0.239658(15)
Er1C Er 0.105750(18) 0.02640(3) -0.239658(15)
S1B S 0.63082(11) 0.67422(18) -0.16175(9)
O1B O 0.5299(3) 0.6681(5) -0.2100(3)
O2B O 0.6719(4) 0.5353(6) -0.1432(3)
O3B O 0.6886(4) 0.7627(7) -0.1977(3)
O4B O 0.5928(4) 0.5147(5) 0.1229(3)
O5B O 0.6477(3) 0.6856(4) 0.2054(2)
O6B O 0.7333(3) 0.9687(4) 0.1963(3)
O6A O 0.2333(3) 0.5313(4) -0.3037(3)
O6C O 0.7667(3) 0.4687(4) 0.3037(3)
O7B O 0.5754(3) 1.0030(5) 0.1691(3)
O8B O 0.3452(3) 0.7494(5) -0.2388(3)
H1B H 0.2865(16) 0.766(7) -0.260(4)
H2B H 0.372(4) 0.819(5) -0.213(4)
O9B O 0.5293(4) 0.3875(5) -0.2474(3)
H3B H 0.579(4) 0.418(7) -0.215(4)
H4B H 0.529(5) 0.3003(12) -0.245(5)
N1B N 0.4105(4) 0.6371(6) -0.3847(3)
N2B N 0.3555(4) 0.3675(6) -0.3796(3)
C1B C 0.4371(6) 0.7678(8) -0.3879(4)
H9B H 0.4527 0.8190 -0.3408
C2B C 0.4433(7) 0.8339(9) -0.4578(5)
H10B H 0.4623 0.9265 -0.4568
C3B C 0.4214(6) 0.7615(10) -0.5265(5)
H11B H 0.4250 0.8041 -0.5735
C4B C 0.3930(5) 0.6206(9) -0.5274(4)
C5B C 0.3689(6) 0.5350(10) -0.5974(4)
H12B H 0.3735 0.5721 -0.6456
C6B C 0.3399(6) 0.4021(10) -0.5955(4)
H13B H 0.3242 0.3497 -0.6421
C7B C 0.3329(5) 0.3409(9) -0.5224(4)
C8B C 0.3008(6) 0.2051(10) -0.5171(5)
H14B H 0.2817 0.1503 -0.5627
C9B C 0.2975(7) 0.1530(9) -0.4456(5)
H15B H 0.2767 0.0624 -0.4418
C10B C 0.3256(6) 0.2366(8) -0.3780(5)
H16B H 0.3234 0.1992 -0.3293
C11B C 0.3589(5) 0.4200(8) -0.4513(4)
C12B C 0.3882(4) 0.5625(7) -0.4544(4)
C13B C 0.6286(4) 0.7517(7) -0.0701(3)
C14B C 0.6212(4) 0.6694(7) -0.0066(4)
H17B H 0.6130 0.5738 -0.0132
C15B C 0.6259(4) 0.7297(6) 0.0666(3)
C16B C 0.6353(4) 0.8748(6) 0.0760(3)
C17B C 0.6359(5) 0.9564(6) 0.0099(4)
H18B H 0.6375 1.0528 0.0144
C18B C 0.6343(5) 0.8952(7) -0.0627(4)
H19B H 0.6370 0.9500 -0.1060
C19B C 0.6220(4) 0.6386(7) 0.1350(3)
C20B C 0.6473(4) 0.9521(6) 0.1535(4)
O10 O 0.4830(11) 0.8838(11) 0.2752(10)
H5 H 0.491(5) 0.915(11) 0.2327(18)
H6 H 0.524(9) 0.918(16) 0.314(2)
O11 O 0.3479(5) 1.0333(8) 0.3134(5)
H7 H 0.293(4) 1.015(11) 0.320(8)
H8 H 0.362(8) 0.972(9) 0.284(7)
H20? H 0.491(5) 0.915(11) 0.2327(18)
H21? H 0.421(13) 0.86(3) 0.173(4)
O12? O 0.4387(18) 0.872(2) 0.2221(18)
loop_
_geom_bond_atom_site_label_1
_geom_bond_atom_site_label_2
_geom_bond_site_symmetry_1
_geom_bond_site_symmetry_2
Er1 O1 1_555 1_555
S1 O1 1_555 1_555
O2 S1 1_555 1_555
O3 S1 1_555 1_555
O4 C19 1_555 1_555
O5 C19 1_555 1_555
O6 C20 1_555 1_555
O7 C20 1_555 1_555
O8 Er1 1_555 1_555
H1 O8 1_555 1_555
H2 O8 1_555 1_555
O9 Er1 1_555 1_555
H3 O9 1_555 1_555
H4 O9 1_555 1_555
O10 H5 1_555 1_555
H6 O10 1_555 1_555
O11 H7 1_555 1_555
H8 O11 1_555 1_555
N1 Er1 1_555 1_555
N2 Er1 1_555 1_555
C1 N1 1_555 1_555
H9 C1 1_555 1_555
C2 C1 1_555 1_555
H10 C2 1_555 1_555
C3 C2 1_555 1_555
H11 C3 1_555 1_555
C4 C3 1_555 1_555
C5 C4 1_555 1_555
H12 C5 1_555 1_555
C6 C5 1_555 1_555
H13 C6 1_555 1_555
C7 C6 1_555 1_555
C8 C7 1_555 1_555
H14 C8 1_555 1_555
C9 C8 1_555 1_555
H15 C9 1_555 1_555
C10 N2 1_555 1_555
H16 C10 1_555 1_555
C11 N2 1_555 1_555
C12 N1 1_555 1_555
C13 S1 1_555 1_555
C14 C13 1_555 1_555
H17 C14 1_555 1_555
C15 C14 1_555 1_555
C16 C15 1_555 1_555
C17 C16 1_555 1_555
H18 C17 1_555 1_555
C18 C13 1_555 1_555
H19 C18 1_555 1_555
C19 C15 1_555 1_555
C20 C16 1_555 1_555
Er1B O4 1_555 1_555
Er1A O6B 1_555 1_555
Er1C O6 1_555 1_555
S1B O1B 1_555 1_555
O1B Er1B 1_555 1_555
O2B S1B 1_555 1_555
O3B S1B 1_555 1_555
O4B Er1 1_555 1_555
O5B Er1 1_555 1_555
O6B C20B 1_555 1_555
O6A Er1B 1_555 1_555
O6C Er1 1_555 1_555
O7B C20B 1_555 1_555
O8B Er1B 1_555 1_555
H1B O8B 1_555 1_555
H2B O8B 1_555 1_555
O9B Er1B 1_555 1_555
H3B O9B 1_555 1_555
H4B O9B 1_555 1_555
N1B Er1B 1_555 1_555
N2B Er1B 1_555 1_555
C1B N1B 1_555 1_555
H9B C1B 1_555 1_555
C2B C1B 1_555 1_555
H10B C2B 1_555 1_555
C3B C2B 1_555 1_555
H11B C3B 1_555 1_555
C4B C3B 1_555 1_555
C5B C4B 1_555 1_555
H12B C5B 1_555 1_555
C6B C5B 1_555 1_555
H13B C6B 1_555 1_555
C7B C6B 1_555 1_555
C8B C7B 1_555 1_555
H14B C8B 1_555 1_555
C9B C8B 1_555 1_555
H15B C9B 1_555 1_555
C10B N2B 1_555 1_555
H16B C10B 1_555 1_555
C11B N2B 1_555 1_555
C12B N1B 1_555 1_555
C13B S1B 1_555 1_555
C14B C13B 1_555 1_555
H17B C14B 1_555 1_555
C15B C14B 1_555 1_555
C16B C15B 1_555 1_555
C17B C16B 1_555 1_555
H18B C17B 1_555 1_555
C18B C13B 1_555 1_555
H19B C18B 1_555 1_555
C19B O4B 1_555 1_555
C20B C16B 1_555 1_555
O5 Er1B 1_555 1_555
C4 C12 1_555 1_555
C7 C11 1_555 1_555
C9 C10 1_555 1_555
C11 C12 1_555 1_555
C17 C18 1_555 1_555
O5B C19B 1_555 1_555
C4B C12B 1_555 1_555
C7B C11B 1_555 1_555
C9B C10B 1_555 1_555
C11B C12B 1_555 1_555
C15B C19B 1_555 1_555
C17B C18B 1_555 1_555

#END
