
#######################################################################
#
#                 Cambridge Crystallographic Data Centre
#                                CCDC 
#
#######################################################################
#
# If this CIF has been generated from an entry in the Cambridge 
# Structural Database, then it will include bibliographic, chemical, 
# crystal, experimental, refinement or atomic coordinate data resulting 
# from the CCDC's data processing and validation procedures.
#
#######################################################################

data_GARTAV
_symmetry_cell_setting           triclinic
_symmetry_space_group_name_H-M   'P -1'
_symmetry_Int_Tables_number      2
_space_group_name_Hall           '-P 1'
loop_
_symmetry_equiv_pos_site_id
_symmetry_equiv_pos_as_xyz
1 x,y,z
2 -x,-y,-z
_cell_length_a                   12.961(8)
_cell_length_b                   13.587(8)
_cell_length_c                   14.243(9)
_cell_angle_alpha                75.775(9)
_cell_angle_beta                 88.547(9)
_cell_angle_gamma                65.194(10)
_cell_volume                     2198.34
loop_
_atom_site_label
_atom_site_type_symbol
_atom_site_fract_x
_atom_site_fract_y
_atom_site_fract_z
Cu1 Cu 0.98543(8) 0.09960(8) 0.44955(6)
Cu2 Cu 0.99062(9) 0.46327(8) 0.09183(6)
Fe1 Fe 0.70077(10) 0.63880(12) 0.47072(10)
O1 O 1.1044(4) 0.0813(4) 0.5435(4)
O2 O 0.8675(5) 0.1470(5) 0.5398(4)
O3 O 1.1271(5) -0.0924(5) 0.6321(4)
O4 O 0.8946(5) -0.0228(5) 0.6278(4)
O5 O 0.8956(5) 0.6240(5) 0.0808(4)
O6 O 1.1310(5) 0.4771(6) 0.1182(5)
O7 O 0.9125(5) 0.6867(5) -0.0765(4)
O8 O 1.1412(5) 0.5453(6) -0.0415(4)
N1 N 0.9599(5) 0.2732(5) 0.3793(4)
N2 N 0.9653(5) 0.4121(5) 0.2461(4)
C1 C 0.9811(6) 0.3077(6) 0.2898(5)
C2 C 0.9207(6) 0.3483(6) 0.4318(5)
C3 C 0.9023(6) 0.4589(6) 0.3956(5)
C4 C 0.9248(6) 0.4883(6) 0.3008(5)
C5 C 0.8653(6) 0.5390(6) 0.4558(5)
C6 C 0.8416(7) 0.5160(7) 0.5551(6)
C7 C 0.8073(7) 0.6176(8) 0.5827(7)
C8 C 0.8069(7) 0.7018(7) 0.5095(7)
C9 C 0.8433(7) 0.6542(7) 0.4275(6)
C10 C 0.5971(13) 0.633(2) 0.379(2)
C11 C 0.592(2) 0.565(2) 0.462(3)
C12 C 0.545(2) 0.664(3) 0.510(2)
C13 C 0.5713(13) 0.740(2) 0.3674(13)
C14 C 1.1482(7) -0.0064(8) 0.6151(6)
C15 C 1.2458(7) -0.0134(9) 0.6798(7)
C16 C 1.3586(8) -0.0527(9) 0.6390(6)
C17 C 1.4565(8) -0.0694(9) 0.7030(7)
C18 C 1.5681(10) -0.1058(12) 0.6591(9)
C19 C 1.6672(11) -0.1251(13) 0.7220(10)
C21 C 0.8748(8) 0.6999(7) 0.0034(7)
C22 C 0.7944(9) 0.8182(8) 0.0073(8)
C23 C 0.699(2) 0.8274(12) 0.0707(12)
C24 C 1.1801(8) 0.5167(8) 0.0405(10)
C25 C 1.2841(10) 0.5276(13) 0.0664(9)
C26 C 1.3623(12) 0.4472(13) 0.1437(12)
C27 C 1.473(1) 0.461(2) 0.1603(13)
C28 C 0.8453(7) 0.0821(9) 0.6072(6)
C29 C 0.7507(8) 0.1339(10) 0.6663(8)
C30 C 0.608(2) 0.795(3) 0.022(2)
C31 C 1.556(2) 0.384(2) 0.215(2)
C32 C 1.6639(12) 0.390(2) 0.2349(12)
C33 C 0.736(2) 0.234(2) 0.684(2)
C34 C 0.814(2) 0.245(2) 0.758(2)
C35 C 0.922(2) 0.195(2) 0.750(2)
C37 C 0.5395(13) 0.757(2) 0.454(2)
C38 C 0.982(2) 0.241(2) 0.8053(13)
C39 C 0.496(8) 0.845(4) 0.080(4)
C40 C 0.473(3) 0.783(3) 0.048(3)
H1 H 1.0102 0.2537 0.2530
H2 H 0.9047 0.3246 0.4967
H3 H 0.9119 0.5639 0.2722
H4 H 0.8483 0.4460 0.5950
H5 H 0.7837 0.6262 0.6450
H6 H 0.7871 0.7770 0.5113
H7 H 0.8513 0.6937 0.3648
H8 H 0.6282 0.6010 0.3263
H9 H 0.5994 0.4898 0.4807
H10 H 0.5261 0.6564 0.5753
H11 H 0.5714 0.7940 0.3102
H12 H 1.2522 -0.0640 0.7410
H13 H 1.2269 0.0591 0.6884
H14 H 1.3534 0.0013 0.5803
H15 H 1.3740 -0.1223 0.6254
H16 H 1.4635 -0.1250 0.7610
H17 H 1.4407 -0.0004 0.7181
H18 H 1.5611 -0.0494 0.6017
H19 H 1.5828 -0.1739 0.6427
H20 H 1.7000 -0.1997 0.7623
H21 H 1.7233 -0.1131 0.6827
H22 H 1.6394 -0.0738 0.7614
H26 H 0.8382 0.8500 0.0303
H27 H 0.7619 0.8602 -0.0570
H28 H 0.7289 0.7774 0.1331
H29 H 0.6614 0.9022 0.0767
H30 H 1.2592 0.5979 0.0815
H31 H 1.3249 0.5283 0.0101
H32 H 1.3841 0.3755 0.1319
H33 H 1.3245 0.4499 0.2017
H34 H 1.4512 0.5247 0.1857
H35 H 1.4998 0.4761 0.0981
H36 H 0.7637 0.0810 0.7275
H37 H 0.6817 0.1464 0.6335
H38 H 0.5926 0.8295 -0.0462
H39 H 0.6361 0.7158 0.0323
H40 H 1.5771 0.3208 0.1888
H41 H 1.5281 0.3691 0.2765
H42 H 1.6586 0.4110 0.2945
H43 H 1.7260 0.3192 0.2400
H44 H 1.6724 0.4461 0.1844
H45 H 0.6613 0.2636 0.7055
H46 H 0.7380 0.2804 0.6234
H47 H 0.7995 0.2156 0.8216
H48 H 0.7946 0.3231 0.7481
H49 H 0.9373 0.2089 0.6835
H50 H 0.9487 0.1162 0.7769
H51 H 0.5147 0.8263 0.4707
H52 H 1.0017 0.1962 0.8706
H53 H 1.0491 0.2386 0.7757
H54 H 0.9317 0.3158 0.8045
H55 H 0.5089 0.8268 0.1491
H56 H 0.4480 0.9230 0.0566
H57 H 0.4312 0.8312 -0.0122
H58 H 0.4288 0.7550 0.0912
H59 H 0.5367 0.7209 0.0360
Cu1A Cu 1.01457(8) -0.09960(8) 0.55045(6)
Cu2A Cu 1.00938(9) 0.53673(8) -0.09183(6)
O3A O 0.8729(5) 0.0924(5) 0.3679(4)
O4A O 1.1054(5) 0.0228(5) 0.3722(4)
O7A O 1.0875(5) 0.3133(5) 0.0765(4)
O8A O 0.8588(5) 0.4547(6) 0.0415(4)
N3 N 0.829(3) 0.073(3) 0.038(2)
C20 C 0.935(2) 0.146(1) 0.1201(12)
C36 C 0.879(2) 0.105(2) 0.075(1)
H23 H 0.9850 0.1648 0.0770
H24 H 0.9773 0.0914 0.1773
H25 H 0.8812 0.2120 0.1358
loop_
_geom_bond_atom_site_label_1
_geom_bond_atom_site_label_2
_geom_bond_site_symmetry_1
_geom_bond_site_symmetry_2
Cu1 O1 1_555 1_555
Cu2 O5 1_555 1_555
Fe1 C5 1_555 1_555
O1 C14 1_555 1_555
O2 Cu1 1_555 1_555
O3 C14 1_555 1_555
O4 C28 1_555 1_555
O5 C21 1_555 1_555
O6 Cu2 1_555 1_555
O7 C21 1_555 1_555
O8 C24 1_555 1_555
N1 Cu1 1_555 1_555
N2 Cu2 1_555 1_555
N3 C36 1_555 1_555
C1 N1 1_555 1_555
C2 N1 1_555 1_555
C3 C2 1_555 1_555
C4 N2 1_555 1_555
C5 C3 1_555 1_555
C6 Fe1 1_555 1_555
C7 Fe1 1_555 1_555
C8 Fe1 1_555 1_555
C9 Fe1 1_555 1_555
C10 Fe1 1_555 1_555
C11 Fe1 1_555 1_555
C12 Fe1 1_555 1_555
C13 Fe1 1_555 1_555
C14 C15 1_555 1_555
C15 C16 1_555 1_555
C16 C17 1_555 1_555
C17 C18 1_555 1_555
C18 C19 1_555 1_555
C19 H20 1_555 1_555
C20 C36 1_555 1_555
C21 C22 1_555 1_555
C22 C23 1_555 1_555
C23 C30 1_555 1_555
C24 O6 1_555 1_555
C25 C24 1_555 1_555
C26 C25 1_555 1_555
C27 C26 1_555 1_555
C28 O2 1_555 1_555
C29 C28 1_555 1_555
C30 C39 1_555 1_555
C31 C27 1_555 1_555
C32 C31 1_555 1_555
C33 C29 1_555 1_555
C34 C33 1_555 1_555
C35 C34 1_555 1_555
C37 Fe1 1_555 1_555
C38 C35 1_555 1_555
C39 C40 1_555 1_555
C40 H57 1_555 1_555
H1 C1 1_555 1_555
H2 C2 1_555 1_555
H3 C4 1_555 1_555
H4 C6 1_555 1_555
H5 C7 1_555 1_555
H6 C8 1_555 1_555
H7 C9 1_555 1_555
H8 C10 1_555 1_555
H9 C11 1_555 1_555
H10 C12 1_555 1_555
H11 C13 1_555 1_555
H12 C15 1_555 1_555
H13 C15 1_555 1_555
H14 C16 1_555 1_555
H15 C16 1_555 1_555
H16 C17 1_555 1_555
H17 C17 1_555 1_555
H18 C18 1_555 1_555
H19 C18 1_555 1_555
H21 C19 1_555 1_555
H22 C19 1_555 1_555
H23 C20 1_555 1_555
H24 C20 1_555 1_555
H25 C20 1_555 1_555
H26 C22 1_555 1_555
H27 C22 1_555 1_555
H28 C23 1_555 1_555
H29 C23 1_555 1_555
H30 C25 1_555 1_555
H31 C25 1_555 1_555
H32 C26 1_555 1_555
H33 C26 1_555 1_555
H34 C27 1_555 1_555
H35 C27 1_555 1_555
H36 C29 1_555 1_555
H37 C29 1_555 1_555
H38 C30 1_555 1_555
H39 C30 1_555 1_555
H40 C31 1_555 1_555
H41 C31 1_555 1_555
H42 C32 1_555 1_555
H43 C32 1_555 1_555
H44 C32 1_555 1_555
H45 C33 1_555 1_555
H46 C33 1_555 1_555
H47 C34 1_555 1_555
H48 C34 1_555 1_555
H49 C35 1_555 1_555
H50 C35 1_555 1_555
H51 C37 1_555 1_555
H52 C38 1_555 1_555
H53 C38 1_555 1_555
H54 C38 1_555 1_555
H55 C39 1_555 1_555
H56 C39 1_555 1_555
H58 C40 1_555 1_555
H59 C40 1_555 1_555
Cu1A O3 1_555 1_555
Cu2A O7 1_555 1_555
O3A Cu1 1_555 1_555
O4A Cu1 1_555 1_555
O7A Cu2 1_555 1_555
O8A Cu2 1_555 1_555
O4 Cu1A 1_555 1_555
O8 Cu2A 1_555 1_555
N2 C1 1_555 1_555
C3 C4 1_555 1_555
C5 C6 1_555 1_555
C5 C9 1_555 1_555
C6 C7 1_555 1_555
C7 C8 1_555 1_555
C8 C9 1_555 1_555
C10 C11 1_555 1_555
C10 C13 1_555 1_555
C11 C12 1_555 1_555
C12 C37 1_555 1_555
C13 C37 1_555 1_555

#END
