
#######################################################################
#
#                 Cambridge Crystallographic Data Centre
#                                CCDC 
#
#######################################################################
#
# If this CIF has been generated from an entry in the Cambridge 
# Structural Database, then it will include bibliographic, chemical, 
# crystal, experimental, refinement or atomic coordinate data resulting 
# from the CCDC's data processing and validation procedures.
#
#######################################################################

data_GASPEW
_symmetry_cell_setting           monoclinic
_symmetry_space_group_name_H-M   'P 21'
_symmetry_Int_Tables_number      4
_space_group_name_Hall           'P 2yb'
loop_
_symmetry_equiv_pos_site_id
_symmetry_equiv_pos_as_xyz
1 x,y,z
2 -x,1/2+y,-z
_cell_length_a                   11.9892(2)
_cell_length_b                   6.85890(10)
_cell_length_c                   13.2344(2)
_cell_angle_alpha                90
_cell_angle_beta                 93.2820(10)
_cell_angle_gamma                90
_cell_volume                     1086.52
loop_
_atom_site_label
_atom_site_type_symbol
_atom_site_fract_x
_atom_site_fract_y
_atom_site_fract_z
Cu1 Cu -0.529200(15) 0.23523(2) 0.155210(15)
N1 N -0.62836(13) 0.4714(3) 0.14286(15)
H1 H -0.6317(19) 0.535(5) 0.199(2)
H2 H -0.6016(18) 0.541(4) 0.0997(18)
N2 N -0.67362(13) 0.0849(3) 0.14558(14)
H3 H -0.664(2) -0.025(4) 0.188(2)
H4 H -0.6888(17) 0.034(4) 0.0870(18)
C1 C -0.74321(12) 0.4085(3) 0.11071(14)
H5 H -0.7449 0.3774 0.0384
C2 C -0.76509(12) 0.2213(3) 0.16819(14)
H6 H -0.7597 0.2501 0.2408
C3 C -0.88164(14) 0.1392(3) 0.14059(16)
H7 H -0.8952 0.0273 0.1829
H8 H -0.8857 0.0964 0.0706
C4 C -0.97126(13) 0.2945(3) 0.15532(17)
H9 H -1.0439 0.2432 0.1328
H10 H -0.9731 0.3258 0.2267
C5 C -0.94780(14) 0.4790(3) 0.09611(17)
H11 H -1.0043 0.5759 0.1084
H12 H -0.9520 0.4497 0.0243
C6 C -0.83242(16) 0.5617(4) 0.12667(17)
H13 H -0.8184 0.6761 0.0863
H14 H -0.8297 0.6004 0.1973
N3 N -0.39197(12) 0.3922(3) 0.18830(13)
N4 N -0.32266(12) 0.4065(3) 0.12679(12)
N5 N -0.25385(13) 0.4227(5) 0.06985(14)
N6 N -0.43597(13) -0.0105(3) 0.15586(14)
N7 N -0.46045(12) -0.1302(3) 0.09211(14)
N8 N -0.48293(13) -0.2476(4) 0.03157(12)
Cu2 Cu -0.468730(15) -0.06370(2) 0.347710(16)
N9 N -0.32571(13) 0.0912(3) 0.36785(15)
H15 H -0.3178(14) 0.159(3) 0.3083(16)
H16 H -0.3282(18) 0.172(4) 0.4110(18)
N10 N -0.36624(13) -0.2964(3) 0.34686(15)
H17 H -0.3846(15) -0.381(4) 0.2964(17)
H18 H -0.3662(17) -0.342(4) 0.3971(18)
C7 C -0.23206(12) -0.0440(3) 0.39344(14)
H19 H -0.2350 -0.0793 0.4650
C8 C -0.25105(13) -0.2279(3) 0.33111(15)
H20 H -0.2473 -0.1929 0.2596
C9 C -0.16029(15) -0.3793(4) 0.35661(17)
H21 H -0.1710 -0.4912 0.3123
H22 H -0.1656 -0.4234 0.4258
C10 C -0.04387(14) -0.2907(3) 0.34383(17)
H23 H 0.0129 -0.3852 0.3650
H24 H -0.0356 -0.2617 0.2729
C11 C -0.02623(14) -0.1057(3) 0.40536(18)
H25 H 0.0461 -0.0503 0.3925
H26 H -0.0265 -0.1367 0.4769
C12 C -0.11793(15) 0.0445(4) 0.37836(18)
H27 H -0.1072 0.1587 0.4210
H28 H -0.1136 0.0848 0.3084
N11 N -0.56073(13) 0.1840(3) 0.34529(13)
N12 N -0.53652(12) 0.3029(3) 0.40819(14)
N13 N -0.51391(13) 0.4218(4) 0.46878(12)
N14 N -0.60551(12) -0.2231(3) 0.31199(13)
N15 N -0.67711(13) -0.2159(3) 0.37215(13)
N16 N -0.74701(14) -0.2127(4) 0.42858(15)
Cu1A Cu -0.470800(15) -0.26477(2) -0.155210(15)
N8A N -0.51707(13) 0.2524(4) -0.03157(12)
Cu2A Cu -0.531270(15) 0.43630(2) 0.652290(16)
N13A N -0.48609(13) -0.0782(4) 0.53122(12)
loop_
_geom_bond_atom_site_label_1
_geom_bond_atom_site_label_2
_geom_bond_site_symmetry_1
_geom_bond_site_symmetry_2
Cu1 N1 1_555 1_555
N1 H1 1_555 1_555
H2 N1 1_555 1_555
N2 Cu1 1_555 1_555
H3 N2 1_555 1_555
H4 N2 1_555 1_555
C1 N1 1_555 1_555
H5 C1 1_555 1_555
C2 N2 1_555 1_555
H6 C2 1_555 1_555
C3 C2 1_555 1_555
H7 C3 1_555 1_555
H8 C3 1_555 1_555
C4 C3 1_555 1_555
H9 C4 1_555 1_555
H10 C4 1_555 1_555
C5 C4 1_555 1_555
H11 C5 1_555 1_555
H12 C5 1_555 1_555
C6 C1 1_555 1_555
H13 C6 1_555 1_555
H14 C6 1_555 1_555
N3 Cu1 1_555 1_555
N4 N3 1_555 1_555
N5 N4 1_555 1_555
N6 Cu1 1_555 1_555
N7 N6 1_555 1_555
N8 N7 1_555 1_555
Cu2 N6 1_555 1_555
N9 Cu2 1_555 1_555
H15 N9 1_555 1_555
H16 N9 1_555 1_555
N10 Cu2 1_555 1_555
H17 N10 1_555 1_555
H18 N10 1_555 1_555
C7 N9 1_555 1_555
H19 C7 1_555 1_555
C8 N10 1_555 1_555
H20 C8 1_555 1_555
C9 C8 1_555 1_555
H21 C9 1_555 1_555
H22 C9 1_555 1_555
C10 C9 1_555 1_555
H23 C10 1_555 1_555
H24 C10 1_555 1_555
C11 C10 1_555 1_555
H25 C11 1_555 1_555
H26 C11 1_555 1_555
C12 C7 1_555 1_555
H27 C12 1_555 1_555
H28 C12 1_555 1_555
N11 Cu1 1_555 1_555
N12 N11 1_555 1_555
N13 N12 1_555 1_555
N14 Cu2 1_555 1_555
N15 N14 1_555 1_555
N16 N15 1_555 1_555
Cu1A N8 1_555 1_555
N8A Cu1 1_555 1_555
Cu2A N13 1_555 1_555
N13A Cu2 1_555 1_555
C1 C2 1_555 1_555
C5 C6 1_555 1_555
Cu2 N11 1_555 1_555
C7 C8 1_555 1_555
C11 C12 1_555 1_555

#END
