
#######################################################################
#
#                 Cambridge Crystallographic Data Centre
#                                CCDC 
#
#######################################################################
#
# If this CIF has been generated from an entry in the Cambridge 
# Structural Database, then it will include bibliographic, chemical, 
# crystal, experimental, refinement or atomic coordinate data resulting 
# from the CCDC's data processing and validation procedures.
#
#######################################################################

data_GASTUP
_symmetry_cell_setting           monoclinic
_symmetry_space_group_name_H-M   'C 2/c'
_symmetry_Int_Tables_number      15
_space_group_name_Hall           '-C 2yn'
loop_
_symmetry_equiv_pos_site_id
_symmetry_equiv_pos_as_xyz
1 x,y,z
2 1/2+x,1/2+y,z
3 -x,y,1/2-z
4 1/2-x,1/2+y,1/2-z
5 -x,-y,-z
6 1/2-x,1/2-y,-z
7 x,-y,1/2+z
8 1/2+x,1/2-y,1/2+z
_cell_length_a                   31.098(9)
_cell_length_b                   3.897(1)
_cell_length_c                   12.995(3)
_cell_angle_alpha                90
_cell_angle_beta                 102.29(4)
_cell_angle_gamma                90
_cell_volume                     1538.76
loop_
_atom_site_label
_atom_site_type_symbol
_atom_site_fract_x
_atom_site_fract_y
_atom_site_fract_z
K1 K 0.4562(1) -0.2029(4) -0.4149(1)
C1 C 0.3817(2) -0.6828(13) -0.2873(3)
C2 C 0.3965(2) -0.5212(14) -0.1824(3)
C3 C 0.3672(2) -0.4909(14) -0.1112(3)
C4 C 0.3266(2) -0.6146(14) -0.1401(3)
C5 C 0.3110(2) -0.7850(16) -0.2392(3)
C6 C 0.3373(2) -0.8182(14) -0.3080(3)
N1 N 0.4388(1) -0.4168(12) -0.1606(3)
O1 O 0.4056(1) -0.7034(9) -0.3535(2)
O2 O 0.4539(1) -0.2819(10) -0.0701(2)
O3 O 0.5000 1.1834(15) -0.2500
Cl1 Cl 0.2892(1) -0.5789(5) -0.0581(1)
H1 H 0.3771 -0.3798 -0.0412
H2 H 0.3255 -0.9423 -0.3760
H3 H 0.2806 -0.8793 -0.2572
H4 H 0.5207 1.3384 -0.2631
H4B H 0.4793 0.3384 -0.2369
C1_2 C 0.3817(2) 0.3172(13) -0.2873(3)
C2_2 C 0.3965(2) 0.4788(14) -0.1824(3)
C3_2 C 0.3672(2) 0.5091(14) -0.1112(3)
C4_2 C 0.3266(2) 0.3854(14) -0.1401(3)
C5_2 C 0.3110(2) 0.2150(16) -0.2392(3)
C6_2 C 0.3373(2) 0.1818(14) -0.3080(3)
N1_2 N 0.4388(1) 0.5832(12) -0.1606(3)
O1_2 O 0.4056(1) 0.2966(9) -0.3535(2)
O2_2 O 0.4539(1) 0.7181(10) -0.0701(2)
Cl1_2 Cl 0.2892(1) 0.4211(5) -0.0581(1)
H1_2 H 0.3771 0.6202 -0.0412
H2_2 H 0.3255 0.0577 -0.3760
H3_2 H 0.2806 0.1207 -0.2572
K1_2 K 0.4562(1) 0.7971(4) -0.4149(1)
O2B O 0.5461(1) -0.2819(10) -0.4299(2)
O2F O 0.4539(1) -0.7181(10) -0.5701(2)
O2F_2 O 0.4539(1) 0.2819(10) -0.5701(2)
K1_3 K 0.4562(1) -1.2029(4) -0.4149(1)
K1B K 0.5438(1) -0.2029(4) -0.0851(1)
K1F K 0.4562(1) -0.7971(4) 0.0851(1)
K1F_2 K 0.4562(1) 0.2029(4) 0.0851(1)
K1B_2 K 0.5438(1) 0.7971(4) -0.0851(1)
K1F_3 K 0.4562(1) 1.2029(4) 0.0851(1)
O1_3 O 0.4056(1) 1.2966(9) -0.3535(2)
O2B_2 O 0.5461(1) 0.7181(10) -0.4299(2)
O2F_3 O 0.4539(1) 1.2819(10) -0.5701(2)
O3_2 O 0.5000 0.1834(15) -0.2500
H4_2 H 0.5207 0.3384 -0.2631
H4B_2 H 0.4793 1.3384 -0.2369
loop_
_geom_bond_atom_site_label_1
_geom_bond_atom_site_label_2
_geom_bond_site_symmetry_1
_geom_bond_site_symmetry_2
K1 O1 1_555 1_555
C1 C2 1_555 1_555
C2 C3 1_555 1_555
C3 C4 1_555 1_555
C4 C5 1_555 1_555
C5 C6 1_555 1_555
C6 C1 1_555 1_555
N1 C2 1_555 1_555
O1 C1 1_555 1_555
O2 N1 1_555 1_555
O3 H4 1_555 1_555
Cl1 C4 1_555 1_555
H1 C3 1_555 1_555
H2 C6 1_555 1_555
H3 C5 1_555 1_555
H4B O3_2 1_555 1_555
C1_2 C2_2 1_555 1_555
C2_2 C3_2 1_555 1_555
C3_2 C4_2 1_555 1_555
C4_2 C5_2 1_555 1_555
C5_2 C6_2 1_555 1_555
C6_2 C1_2 1_555 1_555
N1_2 C2_2 1_555 1_555
O1_2 K1 1_555 1_555
O2_2 N1_2 1_555 1_555
Cl1_2 C4_2 1_555 1_555
H1_2 C3_2 1_555 1_555
H2_2 C6_2 1_555 1_555
H3_2 C5_2 1_555 1_555
K1_2 O3 1_555 1_555
O2B K1 1_555 1_555
O2F K1 1_555 1_555
O2F_2 K1 1_555 1_555
K1_3 O1 1_555 1_555
K1B O2 1_555 1_555
K1F O2 1_555 1_555
K1F_2 O2 1_555 1_555
K1B_2 O3 1_555 1_555
K1F_3 O2_2 1_555 1_555
O1_3 K1_2 1_555 1_555
O2B_2 K1_2 1_555 1_555
O2F_3 K1_2 1_555 1_555
O3_2 K1 1_555 1_555
H4_2 O3_2 1_555 1_555
H4B_2 O3 1_555 1_555
C1_2 O1_2 1_555 1_555
O1_2 K1_2 1_555 1_555
O2_2 K1B_2 1_555 1_555
O2_2 K1F_2 1_555 1_555
K1_2 O2F_2 1_555 1_555
O2F K1_3 1_555 1_555
K1B O3_2 1_555 1_555

#END
