
#######################################################################
#
#                 Cambridge Crystallographic Data Centre
#                                CCDC 
#
#######################################################################
#
# If this CIF has been generated from an entry in the Cambridge 
# Structural Database, then it will include bibliographic, chemical, 
# crystal, experimental, refinement or atomic coordinate data resulting 
# from the CCDC's data processing and validation procedures.
#
#######################################################################

data_GATKUJ
_symmetry_cell_setting           triclinic
_symmetry_space_group_name_H-M   'P -1'
_symmetry_Int_Tables_number      2
_space_group_name_Hall           '-P 1'
loop_
_symmetry_equiv_pos_site_id
_symmetry_equiv_pos_as_xyz
1 x,y,z
2 -x,-y,-z
_cell_length_a                   8.5674(2)
_cell_length_b                   9.0807(3)
_cell_length_c                   11.8239(3)
_cell_angle_alpha                98.756(3)
_cell_angle_beta                 96.802(2)
_cell_angle_gamma                113.050(3)
_cell_volume                     820.384
loop_
_atom_site_label
_atom_site_type_symbol
_atom_site_fract_x
_atom_site_fract_y
_atom_site_fract_z
Ba1 Ba -0.29458(3) -0.58871(3) -0.54352(2)
Cl1 Cl 0.0197(2) -0.15570(18) -0.91942(12)
Cl2 Cl -0.59773(19) -0.8399(2) -0.06349(14)
O1 O -0.0010(3) -0.4154(4) -0.3602(2)
O2 O -0.5044(4) -0.1821(4) -0.5877(3)
O3 O 0.1929(4) -0.4330(5) -0.2340(3)
O4 O -0.3607(4) -0.3012(4) -0.5044(3)
N1 N -0.2482(4) -0.1345(4) -0.6273(3)
N2 N 0.0427(4) -0.4416(4) -0.2617(3)
N3 N 0.0345(4) -0.0686(4) -0.6527(3)
O5 O -0.4425(5) -0.8999(5) -0.6856(4)
N4 N -0.3687(4) -0.2072(4) -0.5724(3)
N5 N -0.3202(4) -0.5110(5) -0.1343(3)
N6 N -0.0573(4) -0.4778(5) -0.1856(3)
N7 N -0.3016(4) -0.4491(4) -0.3035(3)
C1 C 0.0478(6) 0.0564(5) -0.7204(4)
H1 H 0.1136 0.1666 -0.6691
H2 H -0.0695 0.0464 -0.7509
N8 N -0.4681(4) -0.4990(5) -0.1734(3)
N9 N -0.4555(4) -0.4605(4) -0.2738(3)
C2 C -0.2931(6) -0.5628(6) -0.0251(4)
H3 H -0.3489 -0.5195 0.0319
H4 H -0.1676 -0.5157 0.0077
N10 N -0.0554(4) -0.2628(4) -0.5569(3)
C3 C -0.2191(5) -0.4792(5) -0.2146(3)
N11 N 0.1668(4) -0.1108(4) -0.6254(3)
N12 N 0.1121(4) -0.2253(4) -0.5686(3)
C4 C -0.1006(5) -0.1619(5) -0.6095(4)
C5 C 0.1373(6) 0.0386(6) -0.8214(4)
H5 H 0.2552 0.0503 -0.7909
H6 H 0.1481 0.1269 -0.8638
C6 C -0.3662(7) -0.7471(7) -0.0425(5)
H7 H -0.3172 -0.7760 0.0265
H8 H -0.3304 -0.7922 -0.1113
H9 H -0.392(11) -0.910(10) -0.727(7)
H10 H -0.464(14) -0.973(14) -0.648(10)
Ba1A Ba 0.29458(3) -0.41129(3) -0.45648(2)
Ba1A_2 Ba -0.70542(3) -0.41129(3) -0.45648(2)
O1A O 0.0010(3) -0.5846(4) -0.6398(2)
O2A O -0.4956(4) -0.8179(4) -0.4123(3)
O3A O -0.1929(4) -0.5670(5) -0.7660(3)
O4A O -0.6393(4) -0.6988(4) -0.4956(3)
N9A N -0.5445(4) -0.5395(4) -0.7262(3)
N12A N -0.1121(4) -0.7747(4) -0.4314(3)
loop_
_geom_bond_atom_site_label_1
_geom_bond_atom_site_label_2
_geom_bond_site_symmetry_1
_geom_bond_site_symmetry_2
Ba1 O1 1_555 1_555
Cl1 C5 1_555 1_555
Cl2 C6 1_555 1_555
O1 N2 1_555 1_555
O2 N4 1_555 1_555
O3 N2 1_555 1_555
O4 Ba1 1_555 1_555
N1 N4 1_555 1_555
N2 N6 1_555 1_555
N3 C1 1_555 1_555
O5 Ba1 1_555 1_555
N4 O4 1_555 1_555
N5 N8 1_555 1_555
N6 C3 1_555 1_555
N7 Ba1 1_555 1_555
C1 H1 1_555 1_555
H2 C1 1_555 1_555
N8 N9 1_555 1_555
N9 N7 1_555 1_555
C2 N5 1_555 1_555
H3 C2 1_555 1_555
H4 C2 1_555 1_555
N10 Ba1 1_555 1_555
C3 N5 1_555 1_555
N11 N3 1_555 1_555
N12 N10 1_555 1_555
C4 N1 1_555 1_555
C5 C1 1_555 1_555
H5 C5 1_555 1_555
H6 C5 1_555 1_555
C6 C2 1_555 1_555
H7 C6 1_555 1_555
H8 C6 1_555 1_555
H9 O5 1_555 1_555
H10 O5 1_555 1_555
Ba1A O1 1_555 1_555
Ba1A_2 O2 1_555 1_555
O1A Ba1 1_555 1_555
O2A Ba1 1_555 1_555
O3A Ba1 1_555 1_555
O4A Ba1 1_555 1_555
N9A Ba1 1_555 1_555
N12A Ba1 1_555 1_555
O3 Ba1A 1_555 1_555
O4 Ba1A_2 1_555 1_555
N3 C4 1_555 1_555
N7 C3 1_555 1_555
N9 Ba1A_2 1_555 1_555
N10 C4 1_555 1_555
N11 N12 1_555 1_555
N12 Ba1A 1_555 1_555
Ba1A O1A 1_555 1_555
Ba1A_2 O4A 1_555 1_555

#END
