
#######################################################################
#
#                 Cambridge Crystallographic Data Centre
#                                CCDC 
#
#######################################################################
#
# If this CIF has been generated from an entry in the Cambridge 
# Structural Database, then it will include bibliographic, chemical, 
# crystal, experimental, refinement or atomic coordinate data resulting 
# from the CCDC's data processing and validation procedures.
#
#######################################################################

data_GATTAX
_symmetry_cell_setting           monoclinic
_symmetry_space_group_name_H-M   'P 21/c'
_symmetry_Int_Tables_number      14
_space_group_name_Hall           '-P 2ybc'
loop_
_symmetry_equiv_pos_site_id
_symmetry_equiv_pos_as_xyz
1 x,y,z
2 -x,1/2+y,1/2-z
3 -x,-y,-z
4 x,1/2-y,1/2+z
_cell_length_a                   11.2159(12)
_cell_length_b                   11.7722(12)
_cell_length_c                   13.2758(13)
_cell_angle_alpha                90
_cell_angle_beta                 93.454(4)
_cell_angle_gamma                90
_cell_volume                     1749.7
loop_
_atom_site_label
_atom_site_type_symbol
_atom_site_fract_x
_atom_site_fract_y
_atom_site_fract_z
Ag1 Ag 0.325590(10) 0.947725(10) 0.188911(8)
N1 N 0.35986(12) 0.91617(12) 0.02107(10)
N2 N 0.52797(13) 1.00178(13) -0.31077(10)
N3 N 0.20622(12) 0.79975(11) 0.24512(9)
H1 H 0.5632(19) 0.9920(18) -0.3657(16)
H2 H 0.477(2) 1.0542(17) -0.3197(16)
N4 N -0.17845(13) 0.59671(13) 0.31536(11)
H3 H -0.1894(19) 0.6531(19) 0.3543(17)
H4 H -0.186(2) 0.6213(19) 0.2568(18)
C1 C 0.31165(14) 0.98434(14) -0.05217(12)
H5 H 0.2540 1.0389 -0.0347
C2 C 0.34203(14) 0.97866(14) -0.15173(12)
H6 H 0.3051 1.0279 -0.2009
C3 C 0.42717(13) 0.90006(13) -0.17898(11)
C4 C 0.47605(15) 0.82922(13) -0.10382(12)
H7 H 0.5337 0.7738 -0.1193
C5 C 0.44040(15) 0.83972(14) -0.00629(12)
H8 H 0.4748 0.7902 0.0439
C6 C 0.46796(15) 0.89406(14) -0.28526(11)
H9 H 0.5240 0.8298 -0.2910
H10 H 0.3983 0.8810 -0.3333
C7 C 0.16049(14) 0.72139(14) 0.18014(12)
H11 H 0.1862 0.7215 0.1132
C8 C 0.07777(15) 0.64028(14) 0.20551(13)
H12 H 0.0487 0.5861 0.1570
C9 C 0.03794(14) 0.63912(14) 0.30258(13)
C10 C 0.08518(14) 0.71997(14) 0.37056(12)
H13 H 0.0607 0.7218 0.4378
C11 C 0.16816(14) 0.79770(13) 0.33932(12)
H14 H 0.1996 0.8521 0.3866
C12 C -0.05550(17) 0.55443(15) 0.33177(16)
H15 H -0.0470 0.4841 0.2920
H16 H -0.0407 0.5347 0.4039
Ag1B Ag 0.674410(10) 1.052275(10) -0.188911(8)
Ag1A Ag -0.325590(10) 0.447725(10) 0.311089(8)
N2B N 0.47203(13) 0.99822(13) 0.31077(10)
H1B H 0.4368(19) 1.0080(18) 0.3657(16)
H2B H 0.523(2) 0.9458(17) 0.3197(16)
N4A N 0.17845(13) 1.09671(13) 0.18464(11)
H3A H 0.1894(19) 1.1531(19) 0.1457(17)
H4A H 0.186(2) 1.1213(19) 0.2432(18)
P1 P 0.76423(4) 0.61349(3) 0.98117(3)
F1 F 0.80689(12) 0.58093(10) 1.09465(8)
F2 F 0.73258(12) 0.48271(9) 0.95928(9)
F3 F 0.63127(11) 0.63246(13) 1.01491(10)
F4 F 0.71793(10) 0.64614(9) 0.86741(7)
F5 F 0.79576(14) 0.74397(9) 1.00225(8)
F6 F 0.89449(11) 0.59366(12) 0.94598(11)
loop_
_geom_bond_atom_site_label_1
_geom_bond_atom_site_label_2
_geom_bond_site_symmetry_1
_geom_bond_site_symmetry_2
Ag1 N1 1_555 1_555
N1 C1 1_555 1_555
N2 H1 1_555 1_555
N3 Ag1 1_555 1_555
H2 N2 1_555 1_555
N4 H3 1_555 1_555
H4 N4 1_555 1_555
P1 F1 1_555 1_555
F2 P1 1_555 1_555
F3 P1 1_555 1_555
F4 P1 1_555 1_555
F5 P1 1_555 1_555
F6 P1 1_555 1_555
C1 H5 1_555 1_555
C2 C1 1_555 1_555
H6 C2 1_555 1_555
C3 C2 1_555 1_555
C4 C3 1_555 1_555
H7 C4 1_555 1_555
C5 N1 1_555 1_555
H8 C5 1_555 1_555
C6 N2 1_555 1_555
H9 C6 1_555 1_555
H10 C6 1_555 1_555
C7 N3 1_555 1_555
H11 C7 1_555 1_555
C8 C7 1_555 1_555
H12 C8 1_555 1_555
C9 C8 1_555 1_555
C10 C9 1_555 1_555
H13 C10 1_555 1_555
C11 N3 1_555 1_555
H14 C11 1_555 1_555
C12 N4 1_555 1_555
H15 C12 1_555 1_555
H16 C12 1_555 1_555
Ag1B N2 1_555 1_555
Ag1A N4 1_555 1_555
N2B Ag1 1_555 1_555
H1B N2B 1_555 1_555
H2B N2B 1_555 1_555
N4A Ag1 1_555 1_555
H3A N4A 1_555 1_555
H4A N4A 1_555 1_555
C3 C6 1_555 1_555
C4 C5 1_555 1_555
C9 C12 1_555 1_555
C10 C11 1_555 1_555

#END
