
#######################################################################
#
#                 Cambridge Crystallographic Data Centre
#                                CCDC 
#
#######################################################################
#
# If this CIF has been generated from an entry in the Cambridge 
# Structural Database, then it will include bibliographic, chemical, 
# crystal, experimental, refinement or atomic coordinate data resulting 
# from the CCDC's data processing and validation procedures.
#
#######################################################################

data_GAVDOX
_symmetry_cell_setting           monoclinic
_symmetry_space_group_name_H-M   'P 21/n'
_symmetry_Int_Tables_number      14
_space_group_name_Hall           '-P 2yn'
loop_
_symmetry_equiv_pos_site_id
_symmetry_equiv_pos_as_xyz
1 x,y,z
2 1/2-x,1/2+y,1/2-z
3 -x,-y,-z
4 1/2+x,1/2-y,1/2+z
_cell_length_a                   14.177(5)
_cell_length_b                   12.967(4)
_cell_length_c                   18.885(6)
_cell_angle_alpha                90
_cell_angle_beta                 106.237(5)
_cell_angle_gamma                90
_cell_volume                     3333.22
loop_
_atom_site_label
_atom_site_type_symbol
_atom_site_fract_x
_atom_site_fract_y
_atom_site_fract_z
Pb1 Pb 0.486276(15) 0.886729(16) 0.238646(13)
Pd1 Pd 0.47460(3) 0.38702(3) 0.21000(2)
N1 N 0.5352(4) 0.6980(4) 0.2576(3)
N2 N 0.2280(4) 0.5468(5) 0.1276(4)
N3 N 0.5102(5) 1.0778(4) 0.1630(3)
N4 N 0.5141(4) 0.3061(4) 0.4312(3)
O1 O 0.3032(2) 0.8176(3) 0.1839(2)
O2 O 0.3997(3) 0.8635(2) 0.0847(2)
O3 O 0.6012(3) 0.8499(3) 0.1486(2)
O4 O 0.6883(3) 0.9153(3) 0.2958(2)
O5 O 0.5760(3) 0.8747(3) 0.3854(2)
O6 O 0.3866(3) 0.8178(3) 0.3326(2)
O7 O 0.4030(3) 1.0402(3) 0.2853(3)
S1 S 0.50877(13) 0.50134(11) 0.30794(10)
S2 S 0.41945(11) 0.51371(11) 0.12009(10)
S3 S 0.43701(13) 1.27301(12) 0.11076(10)
S4 S 0.53623(11) 0.25512(10) 0.29195(10)
C1 C 0.2480(4) 0.8563(4) 0.1142(4)
H1 H 0.1834 0.8230 0.1012
C2 C 0.2328(4) 0.9712(4) 0.1160(4)
H2 H 0.1964 0.9870 0.1512
H3 H 0.2961 1.0052 0.1323
C3 C 0.1778(5) 1.0120(5) 0.0417(5)
H4 H 0.1726 1.0864 0.0438
H5 H 0.1119 0.9834 0.0272
C4 C 0.2316(5) 0.9824(5) -0.0141(4)
H6 H 0.1945 1.0069 -0.0624
H7 H 0.2951 1.0164 -0.0014
C5 C 0.2465(5) 0.8680(5) -0.0177(4)
H8 H 0.2844 0.8534 -0.0520
H9 H 0.1832 0.8343 -0.0356
C6 C 0.2996(4) 0.8256(4) 0.0576(4)
H10 H 0.3011 0.7502 0.0548
C7 C 0.4643(4) 0.8139(4) 0.0488(4)
H11 H 0.4376 0.8189 -0.0043
H12 H 0.4711 0.7415 0.0622
C8 C 0.5604(4) 0.8647(4) 0.0721(4)
H13 H 0.6036 0.8357 0.0455
H14 H 0.5530 0.9378 0.0611
C9 C 0.6970(5) 0.8936(6) 0.1734(4)
H15 H 0.6929 0.9681 0.1684
H16 H 0.7374 0.8681 0.1433
C10 C 0.7421(4) 0.8659(5) 0.2510(4)
H17 H 0.7407 0.7917 0.2570
H18 H 0.8101 0.8883 0.2662
C11 C 0.7351(4) 0.8997(5) 0.3736(4)
H19 H 0.7485 0.8260 0.3827
C12 C 0.8307(4) 0.9597(5) 0.4026(4)
H20 H 0.8596 0.9432 0.4542
H21 H 0.8767 0.9390 0.3757
C13 C 0.8140(5) 1.0737(5) 0.3945(4)
H22 H 0.7890 1.0913 0.3427
H23 H 0.8756 1.1099 0.4144
C14 C 0.7412(5) 1.1064(5) 0.4350(4)
H24 H 0.7286 1.1798 0.4279
H25 H 0.7689 1.0940 0.4874
C15 C 0.6454(4) 1.0479(4) 0.4078(4)
H26 H 0.6016 1.0671 0.4370
H27 H 0.6138 1.0662 0.3569
C16 C 0.6634(4) 0.9337(4) 0.4136(3)
H28 H 0.6907 0.9164 0.4658
C17 C 0.5141(4) 0.8703(5) 0.4341(3)
H29 H 0.4832 0.9366 0.4359
H30 H 0.5525 0.8522 0.4836
C18 C 0.4382(5) 0.7899(5) 0.4040(4)
H31 H 0.4694 0.7234 0.4037
H32 H 0.3937 0.7847 0.4346
C19 C 0.3063(5) 0.7515(5) 0.3003(4)
H33 H 0.2682 0.7393 0.3349
H34 H 0.3304 0.6858 0.2881
C20 C 0.2445(4) 0.7999(5) 0.2335(4)
H35 H 0.1896 0.7552 0.2105
H36 H 0.2187 0.8647 0.2457
C21 C 0.5227(4) 0.6158(4) 0.2743(3)
C22 C 0.3060(5) 0.5326(4) 0.1262(4)
C23 C 0.4806(5) 1.1568(5) 0.1431(4)
C24 C 0.5233(4) 0.2888(4) 0.3732(4)
H37 H 0.370(4) 1.037(3) 0.319(3)
H38 H 0.418(4) 1.1042(19) 0.279(3)
Pd1_2 Pd 0.47460(3) 1.38702(3) 0.21000(2)
S3_2 S 0.43701(13) 0.27301(12) 0.11076(10)
loop_
_geom_bond_atom_site_label_1
_geom_bond_atom_site_label_2
_geom_bond_site_symmetry_1
_geom_bond_site_symmetry_2
Pb1 N1 1_555 1_555
Pd1 S1 1_555 1_555
N1 C21 1_555 1_555
N2 C22 1_555 1_555
N3 Pb1 1_555 1_555
N4 C24 1_555 1_555
O1 Pb1 1_555 1_555
O2 Pb1 1_555 1_555
O3 Pb1 1_555 1_555
O4 Pb1 1_555 1_555
O5 Pb1 1_555 1_555
O6 Pb1 1_555 1_555
O7 Pb1 1_555 1_555
S1 C21 1_555 1_555
S2 Pd1 1_555 1_555
S3 C23 1_555 1_555
S4 Pd1 1_555 1_555
C1 O1 1_555 1_555
H1 C1 1_555 1_555
C2 C1 1_555 1_555
H2 C2 1_555 1_555
H3 C2 1_555 1_555
C3 C2 1_555 1_555
H4 C3 1_555 1_555
H5 C3 1_555 1_555
C4 C3 1_555 1_555
H6 C4 1_555 1_555
H7 C4 1_555 1_555
C5 C4 1_555 1_555
H8 C5 1_555 1_555
H9 C5 1_555 1_555
C6 O2 1_555 1_555
H10 C6 1_555 1_555
C7 O2 1_555 1_555
H11 C7 1_555 1_555
H12 C7 1_555 1_555
C8 O3 1_555 1_555
H13 C8 1_555 1_555
H14 C8 1_555 1_555
C9 O3 1_555 1_555
H15 C9 1_555 1_555
H16 C9 1_555 1_555
C10 O4 1_555 1_555
H17 C10 1_555 1_555
H18 C10 1_555 1_555
C11 O4 1_555 1_555
H19 C11 1_555 1_555
C12 C11 1_555 1_555
H20 C12 1_555 1_555
H21 C12 1_555 1_555
C13 C12 1_555 1_555
H22 C13 1_555 1_555
H23 C13 1_555 1_555
C14 C13 1_555 1_555
H24 C14 1_555 1_555
H25 C14 1_555 1_555
C15 C14 1_555 1_555
H26 C15 1_555 1_555
H27 C15 1_555 1_555
C16 O5 1_555 1_555
H28 C16 1_555 1_555
C17 O5 1_555 1_555
H29 C17 1_555 1_555
H30 C17 1_555 1_555
C18 O6 1_555 1_555
H31 C18 1_555 1_555
H32 C18 1_555 1_555
C19 O6 1_555 1_555
H33 C19 1_555 1_555
H34 C19 1_555 1_555
C20 O1 1_555 1_555
H35 C20 1_555 1_555
H36 C20 1_555 1_555
C22 S2 1_555 1_555
C23 N3 1_555 1_555
C24 S4 1_555 1_555
H37 O7 1_555 1_555
H38 O7 1_555 1_555
Pd1_2 S3 1_555 1_555
S3_2 Pd1 1_555 1_555
C1 C6 1_555 1_555
C5 C6 1_555 1_555
C7 C8 1_555 1_555
C9 C10 1_555 1_555
C11 C16 1_555 1_555
C15 C16 1_555 1_555
C17 C18 1_555 1_555
C19 C20 1_555 1_555

#END
