
#######################################################################
#
#                 Cambridge Crystallographic Data Centre
#                                CCDC 
#
#######################################################################
#
# If this CIF has been generated from an entry in the Cambridge 
# Structural Database, then it will include bibliographic, chemical, 
# crystal, experimental, refinement or atomic coordinate data resulting 
# from the CCDC's data processing and validation procedures.
#
#######################################################################

data_GAVLIZ
_symmetry_cell_setting           orthorhombic
_symmetry_space_group_name_H-M   'P b c a'
_symmetry_Int_Tables_number      61
_space_group_name_Hall           '-P 2ac 2ab'
loop_
_symmetry_equiv_pos_site_id
_symmetry_equiv_pos_as_xyz
1 x,y,z
2 1/2-x,-y,1/2+z
3 -x,1/2+y,1/2-z
4 1/2+x,1/2-y,-z
5 -x,-y,-z
6 1/2+x,y,1/2-z
7 x,1/2-y,1/2+z
8 1/2-x,1/2+y,z
_cell_length_a                   13.9094(9)
_cell_length_b                   6.8497(5)
_cell_length_c                   21.8148(14)
_cell_angle_alpha                90
_cell_angle_beta                 90
_cell_angle_gamma                90
_cell_volume                     2078.41
loop_
_atom_site_label
_atom_site_type_symbol
_atom_site_fract_x
_atom_site_fract_y
_atom_site_fract_z
Gd1 Gd 0.668579(7) 1.018944(17) 0.445098(5)
O1 O 0.63763(14) 1.0395(3) 0.54989(7)
O2 O 0.49125(11) 0.9254(3) 0.56752(7)
C1 C 0.57532(16) 0.9673(3) 0.58438(9)
C2 C 0.60219(16) 0.9255(3) 0.64988(9)
C3 C 0.6938(2) 0.9715(4) 0.67113(12)
H1 H 0.7385 1.0279 0.6448
C4 C 0.71870(19) 0.9335(4) 0.73139(11)
H2 H 0.7799 0.9647 0.7455
C5 C 0.65238(17) 0.8490(4) 0.77075(10)
C6 C 0.68016(17) 0.7996(3) 0.83575(10)
C7 C 0.56094(19) 0.8020(4) 0.74966(11)
H3 H 0.5166 0.7448 0.7760
C8 C 0.53602(18) 0.8402(4) 0.68954(10)
H4 H 0.4748 0.8087 0.6755
O3 O 0.75919(13) 0.8626(3) 0.85568(7)
O4 O 0.62256(13) 0.6967(3) 0.86624(7)
O5 O 0.83402(11) 0.8733(3) 0.45344(8)
O6 O 0.82508(11) 1.1769(2) 0.48268(8)
C9 C 0.87523(18) 1.0307(3) 0.46824(12)
C10 C 0.98359(19) 1.0427(4) 0.46936(12)
H5 H 1.0043 1.1774 0.4657
H6 H 1.0107 0.9687 0.4356
Gd1D Gd 0.331421(7) 0.981056(17) 0.554902(5)
Gd1A Gd 0.831421(7) 0.981056(17) 0.945098(5)
Gd1F Gd 0.668579(7) 0.481056(17) 0.945098(5)
Gd1G Gd 0.831421(7) 0.518944(17) 0.445098(5)
Gd1G_2 Gd 0.831421(7) 1.518944(17) 0.445098(5)
Gd1D_2 Gd 1.331421(7) 0.981056(17) 0.554902(5)
Gd1C Gd 1.168579(7) 1.481056(17) 0.554902(5)
Gd1C_2 Gd 1.168579(7) 0.481056(17) 0.554902(5)
Gd1E Gd 0.168579(7) 1.018944(17) 0.054902(5)
Gd1B Gd 0.331421(7) 1.518944(17) 0.054902(5)
O1D O 0.36237(14) 0.9605(3) 0.45011(7)
O2D O 0.50875(11) 1.0746(3) 0.43248(7)
C1D C 0.42468(16) 1.0327(3) 0.41562(9)
C2D C 0.39781(16) 1.0745(3) 0.35012(9)
C3D C 0.3062(2) 1.0285(4) 0.32887(12)
H1D H 0.2615 0.9721 0.3552
C4D C 0.28130(19) 1.0665(4) 0.26861(11)
H2D H 0.2201 1.0353 0.2545
C5D C 0.34762(17) 1.1510(4) 0.22925(10)
C6D C 0.31984(17) 1.2004(3) 0.16425(10)
C7D C 0.43906(19) 1.1980(4) 0.25034(11)
H3D H 0.4834 1.2552 0.2240
C8D C 0.46398(18) 1.1598(4) 0.31046(10)
H4D H 0.5252 1.1913 0.3245
O3D O 0.24081(13) 1.1374(3) 0.14432(7)
O3A O 0.74081(13) 1.1374(3) 0.35568(7)
O3E O 0.25919(13) 0.8626(3) 0.64432(7)
O4D O 0.37744(13) 1.3033(3) 0.13376(7)
O4F O 0.62256(13) 0.8033(3) 0.36624(7)
O4B O 0.37744(13) 1.1967(3) 0.63376(7)
O5D O 1.16598(11) 1.1267(3) 0.54656(8)
O5G O 0.66598(11) 1.3733(3) 0.45344(8)
O5D_2 O 0.16598(11) 1.1267(3) 0.54656(8)
O5C O 0.33402(11) 0.6267(3) 0.54656(8)
O6D O 1.17492(11) 0.8231(2) 0.51732(8)
O6G O 0.67492(11) 0.6769(2) 0.48268(8)
O6D_2 O 0.17492(11) 0.8231(2) 0.51732(8)
O6C O 0.32508(11) 1.3231(2) 0.51732(8)
C9D C 1.12477(18) 0.9693(3) 0.53176(12)
C10D C 1.01641(19) 0.9573(4) 0.53064(12)
H5D H 0.9957 0.8226 0.5343
H6D H 0.9893 1.0313 0.5644
loop_
_geom_bond_atom_site_label_1
_geom_bond_atom_site_label_2
_geom_bond_site_symmetry_1
_geom_bond_site_symmetry_2
Gd1 O1 1_555 1_555
O1 C1 1_555 1_555
O2 C1 1_555 1_555
C1 C2 1_555 1_555
C2 C3 1_555 1_555
C3 H1 1_555 1_555
C4 C3 1_555 1_555
H2 C4 1_555 1_555
C5 C4 1_555 1_555
C6 C5 1_555 1_555
C7 C5 1_555 1_555
H3 C7 1_555 1_555
C8 C2 1_555 1_555
H4 C8 1_555 1_555
O3 C6 1_555 1_555
O4 C6 1_555 1_555
O5 Gd1 1_555 1_555
O6 Gd1 1_555 1_555
C9 O5 1_555 1_555
C10 C9 1_555 1_555
H5 C10 1_555 1_555
H6 C10 1_555 1_555
Gd1D O2 1_555 1_555
Gd1A O3 1_555 1_555
Gd1F O4 1_555 1_555
Gd1G O5 1_555 1_555
Gd1G_2 O6 1_555 1_555
Gd1D_2 O5D 1_555 1_555
Gd1C O5D 1_555 1_555
Gd1C_2 O6D 1_555 1_555
Gd1E O3D 1_555 1_555
Gd1B O4D 1_555 1_555
O1D Gd1D 1_555 1_555
O2D Gd1 1_555 1_555
C1D O1D 1_555 1_555
C2D C1D 1_555 1_555
C3D C2D 1_555 1_555
H1D C3D 1_555 1_555
C4D C3D 1_555 1_555
H2D C4D 1_555 1_555
C5D C4D 1_555 1_555
C6D C5D 1_555 1_555
C7D C5D 1_555 1_555
H3D C7D 1_555 1_555
C8D C2D 1_555 1_555
H4D C8D 1_555 1_555
O3D C6D 1_555 1_555
O3A Gd1 1_555 1_555
O3E Gd1D 1_555 1_555
O4D C6D 1_555 1_555
O4F Gd1 1_555 1_555
O4B Gd1D 1_555 1_555
O5D C9D 1_555 1_555
O5G Gd1 1_555 1_555
O5D_2 Gd1D 1_555 1_555
O5C Gd1D 1_555 1_555
O6D Gd1D_2 1_555 1_555
O6G Gd1 1_555 1_555
O6D_2 Gd1D 1_555 1_555
O6C Gd1D 1_555 1_555
C9D O6D 1_555 1_555
C10D C10 1_555 1_555
H5D C10D 1_555 1_555
H6D C10D 1_555 1_555
C7 C8 1_555 1_555
O6 C9 1_555 1_555
Gd1G O6G 1_555 1_555
Gd1G_2 O5G 1_555 1_555
O2D C1D 1_555 1_555
C7D C8D 1_555 1_555
C9D C10D 1_555 1_555

#END
