
#######################################################################
#
#                 Cambridge Crystallographic Data Centre
#                                CCDC 
#
#######################################################################
#
# If this CIF has been generated from an entry in the Cambridge 
# Structural Database, then it will include bibliographic, chemical, 
# crystal, experimental, refinement or atomic coordinate data resulting 
# from the CCDC's data processing and validation procedures.
#
#######################################################################

data_GAVMAR
_symmetry_cell_setting           triclinic
_symmetry_space_group_name_H-M   'P -1'
_symmetry_Int_Tables_number      2
_space_group_name_Hall           '-P 1'
loop_
_symmetry_equiv_pos_site_id
_symmetry_equiv_pos_as_xyz
1 x,y,z
2 -x,-y,-z
_cell_length_a                   12.513(8)
_cell_length_b                   13.67(1)
_cell_length_c                   8.699(8)
_cell_angle_alpha                100.50(8)
_cell_angle_beta                 90.54(7)
_cell_angle_gamma                92.43(7)
_cell_volume                     1461.53
loop_
_atom_site_label
_atom_site_type_symbol
_atom_site_fract_x
_atom_site_fract_y
_atom_site_fract_z
Mn1 Mn 0.3942(1) 0.0658(1) 0.0009(2)
N1 N 0.3244(8) 0.0839(7) -0.220(1)
N2 N 0.2450(8) 0.0033(8) 0.080(1)
O1 O 0.5337(6) 0.0283(6) -0.1332(9)
O2 O 0.198(2) 0.187(2) 0.009(3)
C1 C 0.5665(9) 0.0658(7) -0.254(1)
C2 C 0.4974(9) 0.1056(8) -0.352(1)
C3 C 0.533(1) 0.142(1) -0.484(1)
C4 C 0.645(1) 0.1438(9) -0.521(1)
C5 C 0.715(1) 0.1064(9) -0.417(1)
C6 C 0.6798(9) 0.0671(8) -0.294(1)
C7 C 0.685(1) 0.182(1) -0.669(1)
C8 C 0.380(1) 0.1055(9) -0.333(1)
C9 C 0.2359(9) -0.036(1) 0.204(1)
C10 C 0.204(1) 0.084(1) -0.241(2)
C11 C 0.150(1) 0.106(1) -0.083(2)
C12 C 0.139(1) 0.016(1) 0.003(2)
Mn2 Mn 0.5733(2) 0.4808(1) 0.3428(2)
N3 N 0.5811(8) 0.5932(7) 0.195(1)
N4 N 0.7461(8) 0.4824(7) 0.375(1)
O3 O 0.4322(6) 0.5503(6) 0.4300(8)
O4 O 0.762(2) 0.686(2) 0.345(2)
C13 C 0.360(1) 0.5868(9) 0.346(1)
C14 C 0.391(1) 0.6307(8) 0.216(1)
C15 C 0.316(1) 0.6711(9) 0.130(1)
C16 C 0.205(1) 0.666(1) 0.167(2)
C17 C 0.179(1) 0.624(1) 0.294(2)
C18 C 0.251(1) 0.5805(9) 0.383(1)
C19 C 0.125(1) 0.711(1) 0.071(2)
C20 C 0.503(1) 0.642(1) 0.165(1)
C21 C 0.796(1) 0.4549(9) 0.486(1)
C22 C 0.682(1) 0.609(1) 0.110(2)
C23 C 0.782(1) 0.620(1) 0.213(2)
C24 C 0.816(1) 0.519(1) 0.252(2)
C25 C 0.444(1) 0.282(1) 0.200(1)
C26 C 0.354(1) 0.301(1) 0.313(2)
O5 O 0.4490(8) 0.2042(6) 0.105(1)
O6 O 0.5168(7) 0.3522(6) 0.2032(8)
O1A O 0.4663(6) -0.0283(6) 0.1332(9)
Mn1A Mn 0.6058(1) -0.0658(1) -0.0009(2)
C9A C 0.7641(9) 0.036(1) -0.204(1)
C6A C 0.3202(9) -0.0671(8) 0.294(1)
O3A O 0.5678(6) 0.4497(6) 0.5700(8)
Mn2A Mn 0.4267(2) 0.5192(1) 0.6572(2)
C21A C 0.204(1) 0.5451(9) 0.514(1)
C18A C 0.749(1) 0.4195(9) 0.617(1)
C1A C 0.4335(9) -0.0658(7) 0.254(1)
N1A N 0.6756(8) -0.0839(7) 0.220(1)
N2A N 0.7550(8) -0.0033(8) -0.080(1)
O5A O 0.5510(8) -0.2042(6) -0.105(1)
C5A C 0.285(1) -0.1064(9) 0.417(1)
C13A C 0.640(1) 0.4132(9) 0.654(1)
N3A N 0.4189(8) 0.4068(7) 0.805(1)
N4A N 0.2539(8) 0.5176(7) 0.625(1)
O6A O 0.4832(7) 0.6478(6) 0.7968(8)
C17A C 0.821(1) 0.376(1) 0.706(2)
C2A C 0.5026(9) -0.1056(8) 0.352(1)
C8A C 0.620(1) -0.1055(9) 0.333(1)
C10A C 0.796(1) -0.084(1) 0.241(2)
C12A C 0.861(1) -0.016(1) -0.003(2)
C25A C 0.556(1) -0.282(1) -0.200(1)
C4A C 0.355(1) -0.1438(9) 0.521(1)
C14A C 0.609(1) 0.3693(8) 0.784(1)
C20A C 0.497(1) 0.358(1) 0.835(1)
C22A C 0.318(1) 0.391(1) 0.890(2)
C24A C 0.184(1) 0.481(1) 0.748(2)
C25A_2 C 0.556(1) 0.718(1) 0.800(1)
C16A C 0.795(1) 0.334(1) 0.833(2)
C3A C 0.467(1) -0.142(1) 0.484(1)
C11A C 0.850(1) -0.106(1) 0.083(2)
C26A C 0.646(1) -0.301(1) -0.313(2)
O6A_2 O 0.4832(7) -0.3522(6) -0.2032(8)
C7A C 0.315(1) -0.182(1) 0.669(1)
C15A C 0.684(1) 0.3289(9) 0.870(1)
C23A C 0.218(1) 0.380(1) 0.787(2)
C19A C 0.875(1) 0.289(1) 0.929(2)
O2A O 0.802(2) -0.187(2) -0.009(3)
O4A O 0.238(2) 0.314(2) 0.655(2)
loop_
_geom_bond_atom_site_label_1
_geom_bond_atom_site_label_2
_geom_bond_site_symmetry_1
_geom_bond_site_symmetry_2
Mn1 N1 1_555 1_555
N1 C8 1_555 1_555
N2 Mn1 1_555 1_555
O1 Mn1 1_555 1_555
O2 C11 1_555 1_555
C1 O1 1_555 1_555
C2 C1 1_555 1_555
C3 C2 1_555 1_555
C4 C3 1_555 1_555
C5 C4 1_555 1_555
C6 C1 1_555 1_555
C7 C4 1_555 1_555
C8 C2 1_555 1_555
C9 N2 1_555 1_555
C10 N1 1_555 1_555
C11 C10 1_555 1_555
C12 N2 1_555 1_555
Mn2 N3 1_555 1_555
N3 C20 1_555 1_555
N4 Mn2 1_555 1_555
O3 Mn2 1_555 1_555
O4 C23 1_555 1_555
C13 O3 1_555 1_555
C14 C13 1_555 1_555
C15 C14 1_555 1_555
C16 C15 1_555 1_555
C17 C16 1_555 1_555
C18 C13 1_555 1_555
C19 C16 1_555 1_555
C20 C14 1_555 1_555
C21 N4 1_555 1_555
C22 N3 1_555 1_555
C23 C22 1_555 1_555
C24 N4 1_555 1_555
C25 C26 1_555 1_555
O5 Mn1 1_555 1_555
O6 Mn2 1_555 1_555
O1A Mn1 1_555 1_555
Mn1A O1 1_555 1_555
C9A C6 1_555 1_555
C6A C9 1_555 1_555
O3A Mn2 1_555 1_555
Mn2A O3 1_555 1_555
C21A C18 1_555 1_555
C18A C21 1_555 1_555
C1A O1A 1_555 1_555
N1A Mn1A 1_555 1_555
N2A Mn1A 1_555 1_555
O5A Mn1A 1_555 1_555
C5A C6A 1_555 1_555
C13A O3A 1_555 1_555
N3A Mn2A 1_555 1_555
N4A Mn2A 1_555 1_555
O6A Mn2A 1_555 1_555
C17A C18A 1_555 1_555
C2A C1A 1_555 1_555
C8A N1A 1_555 1_555
C10A N1A 1_555 1_555
C12A N2A 1_555 1_555
C25A O5A 1_555 1_555
C4A C5A 1_555 1_555
C14A C13A 1_555 1_555
C20A N3A 1_555 1_555
C22A N3A 1_555 1_555
C24A N4A 1_555 1_555
C25A_2 O6A 1_555 1_555
C16A C17A 1_555 1_555
C3A C2A 1_555 1_555
C11A C10A 1_555 1_555
C26A C25A 1_555 1_555
O6A_2 C25A 1_555 1_555
C7A C4A 1_555 1_555
C15A C14A 1_555 1_555
C23A C22A 1_555 1_555
C19A C16A 1_555 1_555
O2A C11A 1_555 1_555
O4A C23A 1_555 1_555
C5 C6 1_555 1_555
C11 C12 1_555 1_555
C17 C18 1_555 1_555
C23 C24 1_555 1_555
C25 O5 1_555 1_555
C25 O6 1_555 1_555
O1A Mn1A 1_555 1_555
C9A N2A 1_555 1_555
C6A C1A 1_555 1_555
O3A Mn2A 1_555 1_555
C21A N4A 1_555 1_555
C18A C13A 1_555 1_555
C2A C8A 1_555 1_555
C12A C11A 1_555 1_555
C4A C3A 1_555 1_555
C14A C20A 1_555 1_555
C24A C23A 1_555 1_555
C16A C15A 1_555 1_555

#END
