
#######################################################################
#
#                 Cambridge Crystallographic Data Centre
#                                CCDC 
#
#######################################################################
#
# If this CIF has been generated from an entry in the Cambridge 
# Structural Database, then it will include bibliographic, chemical, 
# crystal, experimental, refinement or atomic coordinate data resulting 
# from the CCDC's data processing and validation procedures.
#
#######################################################################

data_GAWHAP
_symmetry_cell_setting           monoclinic
_symmetry_space_group_name_H-M   'P 21'
_symmetry_Int_Tables_number      4
_space_group_name_Hall           'P 2yb'
loop_
_symmetry_equiv_pos_site_id
_symmetry_equiv_pos_as_xyz
1 x,y,z
2 -x,1/2+y,-z
_cell_length_a                   8.1370(16)
_cell_length_b                   15.175(3)
_cell_length_c                   9.941(2)
_cell_angle_alpha                90
_cell_angle_beta                 101.88(3)
_cell_angle_gamma                90
_cell_volume                     1201.21
loop_
_atom_site_label
_atom_site_type_symbol
_atom_site_fract_x
_atom_site_fract_y
_atom_site_fract_z
K1 K 1.11677(9) 0.14346(6) 0.93958(7)
O1 O 0.8523(6) 0.1131(3) 1.0729(7)
O2 O 1.1450(7) 0.1989(4) 1.2103(4)
O3 O 1.3354(6) 0.2830(3) 1.0467(4)
O4 O 1.3598(4) 0.1963(3) 0.7992(4)
O5 O 1.0852(6) 0.0950(2) 0.6630(3)
O6 O 0.8562(5) 0.0284(3) 0.8158(6)
C1 C 0.9191(12) 0.1145(9) 1.2265(10)
H1 H 0.8262 0.1099 1.2735
H2 H 0.9920 0.0641 1.2526
C2 C 1.0111(16) 0.1941(8) 1.2682(9)
H3 H 0.9390 0.2447 1.2410
H4 H 1.0470 0.1950 1.3675
C3 C 1.2511(15) 0.2746(5) 1.2548(6)
H5 H 1.2921 0.2719 1.3534
H6 H 1.1858 0.3282 1.2339
C4 C 1.3929(12) 0.2765(5) 1.1859(8)
H7 H 1.4645 0.3265 1.2184
H8 H 1.4589 0.2232 1.2070
C5 C 1.4710(8) 0.2907(5) 0.9708(11)
H9 H 1.5266 0.3472 0.9910
H10 H 1.5532 0.2447 1.0001
C6 C 1.4070(9) 0.2836(5) 0.8272(9)
H11 H 1.3109 0.3222 0.7997
H12 H 1.4924 0.3004 0.7769
C7 C 1.3162(9) 0.1806(7) 0.6546(7)
H13 H 1.4159 0.1854 0.6159
H14 H 1.2367 0.2250 0.6116
C8 C 1.2426(12) 0.0936(6) 0.6252(7)
H15 H 1.2293 0.0802 0.5282
H16 H 1.3142 0.0491 0.6775
C9 C 0.9835(18) 0.0167(4) 0.6309(6)
H17 H 1.0431 -0.0340 0.6762
H18 H 0.9602 0.0063 0.5325
C10 C 0.8186(14) 0.0299(5) 0.6802(13)
H19 H 0.7679 0.0859 0.6477
H20 H 0.7400 -0.0169 0.6455
C11 C 0.7024(8) 0.0453(5) 0.8813(17)
H21 H 0.6522 0.1017 0.8507
H22 H 0.6189 -0.0002 0.8530
C12 C 0.7572(14) 0.0452(9) 1.034(2)
H23 H 0.6596 0.0474 1.0763
H24 H 0.8185 -0.0085 1.0643
N1 N 0.7643(4) 0.3467(2) 0.6233(3)
N2 N 0.8150(4) 0.3928(2) 0.8533(3)
N3 N 0.4195(6) 0.6010(3) 0.6132(4)
O7 O 0.9484(5) 0.2743(2) 0.7888(4)
O8 O 0.6863(4) 0.5144(2) 0.9182(3)
O9 O 0.5718(4) 0.41594(19) 0.4595(3)
C13 C 0.8484(5) 0.3351(3) 0.7559(4)
C14 C 0.6450(5) 0.4134(2) 0.5800(4)
C15 C 0.6227(4) 0.4729(2) 0.6844(4)
C16 C 0.7049(4) 0.4653(2) 0.8241(4)
C17 C 0.8012(7) 0.2853(3) 0.5187(5)
H25 H 0.8827 0.2429 0.5617
H26 H 0.8448 0.3176 0.4508
H27 H 0.6999 0.2555 0.4756
C18 C 0.5088(5) 0.5434(3) 0.6457(4)
C19 C 0.8980(6) 0.3762(4) 0.9961(4)
H28 H 0.9135 0.3139 1.0104
H29 H 0.8298 0.3987 1.0564
H30 H 1.0053 0.4051 1.0153
K1A K 0.88323(9) 0.64346(6) 1.06042(7)
O8A O 1.3137(4) 0.0144(2) 1.0818(3)
loop_
_geom_bond_atom_site_label_1
_geom_bond_atom_site_label_2
_geom_bond_site_symmetry_1
_geom_bond_site_symmetry_2
K1 O1 1_555 1_555
O1 C1 1_555 1_555
O2 K1 1_555 1_555
O3 K1 1_555 1_555
O4 K1 1_555 1_555
O5 K1 1_555 1_555
O6 K1 1_555 1_555
C1 H1 1_555 1_555
H2 C1 1_555 1_555
C2 O2 1_555 1_555
H3 C2 1_555 1_555
H4 C2 1_555 1_555
C3 O2 1_555 1_555
H5 C3 1_555 1_555
H6 C3 1_555 1_555
C4 O3 1_555 1_555
H7 C4 1_555 1_555
H8 C4 1_555 1_555
C5 O3 1_555 1_555
H9 C5 1_555 1_555
H10 C5 1_555 1_555
C6 O4 1_555 1_555
H11 C6 1_555 1_555
H12 C6 1_555 1_555
C7 O4 1_555 1_555
H13 C7 1_555 1_555
H14 C7 1_555 1_555
C8 O5 1_555 1_555
H15 C8 1_555 1_555
H16 C8 1_555 1_555
C9 O5 1_555 1_555
H17 C9 1_555 1_555
H18 C9 1_555 1_555
C10 O6 1_555 1_555
H19 C10 1_555 1_555
H20 C10 1_555 1_555
C11 O6 1_555 1_555
H21 C11 1_555 1_555
H22 C11 1_555 1_555
C12 O1 1_555 1_555
H23 C12 1_555 1_555
H24 C12 1_555 1_555
N1 C13 1_555 1_555
N2 C13 1_555 1_555
N3 C18 1_555 1_555
O7 K1 1_555 1_555
O8 C16 1_555 1_555
O9 C14 1_555 1_555
C13 O7 1_555 1_555
C14 N1 1_555 1_555
C15 C14 1_555 1_555
C16 N2 1_555 1_555
C17 N1 1_555 1_555
H25 C17 1_555 1_555
H26 C17 1_555 1_555
H27 C17 1_555 1_555
C18 C15 1_555 1_555
C19 N2 1_555 1_555
H28 C19 1_555 1_555
H29 C19 1_555 1_555
H30 C19 1_555 1_555
K1A O8 1_555 1_555
O8A K1 1_555 1_555
C1 C2 1_555 1_555
C3 C4 1_555 1_555
C5 C6 1_555 1_555
C7 C8 1_555 1_555
C9 C10 1_555 1_555
C11 C12 1_555 1_555
C15 C16 1_555 1_555

#END
