
#######################################################################
#
#                 Cambridge Crystallographic Data Centre
#                                CCDC 
#
#######################################################################
#
# If this CIF has been generated from an entry in the Cambridge 
# Structural Database, then it will include bibliographic, chemical, 
# crystal, experimental, refinement or atomic coordinate data resulting 
# from the CCDC's data processing and validation procedures.
#
#######################################################################

data_GAWJAR
_symmetry_cell_setting           triclinic
_symmetry_space_group_name_H-M   'P -1'
_symmetry_Int_Tables_number      2
_space_group_name_Hall           '-P 1'
loop_
_symmetry_equiv_pos_site_id
_symmetry_equiv_pos_as_xyz
1 x,y,z
2 -x,-y,-z
_cell_length_a                   11.3653(8)
_cell_length_b                   12.0336(8)
_cell_length_c                   12.6387(9)
_cell_angle_alpha                116.209(2)
_cell_angle_beta                 103.700(2)
_cell_angle_gamma                103.481(2)
_cell_volume                     1389.02
loop_
_atom_site_label
_atom_site_type_symbol
_atom_site_fract_x
_atom_site_fract_y
_atom_site_fract_z
Ag1 Ag 0.12798(7) 0.68210(8) 0.01561(7)
Ag2 Ag -0.25100(7) 0.07870(8) -0.27189(7)
C1 C -0.0933(9) 0.3892(9) -0.2232(8)
C2 C -0.0762(10) 0.2270(10) -0.3926(9)
C3 C 0.0980(9) 0.4235(10) -0.2511(9)
C4 C -0.1359(11) 0.0914(11) -0.5116(10)
H1 H -0.0723 0.0484 -0.5149
H2 H -0.1600 0.1003 -0.5864
H3 H -0.2145 0.0363 -0.5118
C5 C -0.2941(10) -0.2209(10) -0.5128(9)
C6 C -0.4770(11) -0.3752(11) -0.6922(10)
C7 C -0.4904(9) -0.1947(9) -0.5359(9)
C8 C -0.5416(12) -0.5011(12) -0.8233(12)
H4 H -0.6300 -0.5095 -0.8662
H5 H -0.4893 -0.4963 -0.8739
H6 H -0.5474 -0.5793 -0.8152
C9 C 0.4314(9) 0.8296(9) 0.1243(9)
C10 C 0.5643(9) 0.8332(9) 0.1169(9)
C11 C 0.6460(10) 0.8268(10) 0.2091(9)
H7 H 0.6192 0.8254 0.2744
C12 C 0.7709(10) 0.8220(10) 0.2123(9)
H8 H 0.8257 0.8172 0.2785
C13 C 0.8118(9) 0.8245(9) 0.1181(9)
C14 C 0.7275(10) 0.8333(9) 0.0202(9)
C15 C 0.7677(11) 0.8367(11) -0.0769(11)
H9 H 0.8503 0.8335 -0.0774
C16 C 0.6855(13) 0.8448(13) -0.1704(11)
H10 H 0.7112 0.8448 -0.2366
C17 C 0.5648(13) 0.8529(12) -0.1696(11)
H11 H 0.5114 0.8626 -0.2326
C18 C 0.5233(10) 0.8470(10) -0.0779(10)
H12 H 0.4400 0.8498 -0.0799
C19 C 0.6020(10) 0.8367(9) 0.0190(9)
C20 C 0.9448(10) 0.8199(10) 0.1271(10)
N1 N 0.0307(8) 0.4733(7) -0.1799(7)
N2 N -0.1499(8) 0.2623(8) -0.3263(8)
N3 N 0.0462(8) 0.3016(8) -0.3622(7)
N4 N 0.2203(8) 0.4968(9) -0.2161(8)
H23 H 0.2579 0.5777 -0.1467
H24 H 0.2652 0.4653 -0.2618
N5 N -0.1706(8) 0.4275(9) -0.1579(8)
H25 H -0.1389 0.5073 -0.0876
H26 H -0.2522 0.3724 -0.1860
N6 N -0.3585(8) -0.1446(8) -0.4643(7)
N7 N -0.3506(9) -0.3407(9) -0.6254(8)
N8 N -0.5519(8) -0.3089(8) -0.6529(8)
N9 N -0.5626(8) -0.1322(9) -0.4902(8)
H27 H -0.6475 -0.1647 -0.5351
H28 H -0.5265 -0.0576 -0.4144
N10 N -0.1674(9) -0.1814(9) -0.4477(9)
H29 H -0.1262 -0.1055 -0.3731
H30 H -0.1243 -0.2312 -0.4790
O1 O 0.4292(6) 0.8942(7) 0.2327(6)
O2 O 0.3306(7) 0.7565(7) 0.0205(7)
O3 O 1.0412(7) 0.9146(8) 0.2164(7)
O4 O 0.9439(7) 0.7173(8) 0.0343(7)
Ag1A Ag -0.12798(7) 0.31790(8) -0.01561(7)
Ag1_2 Ag 1.12798(7) 0.68210(8) 0.01561(7)
Ag2A Ag 0.25100(7) 0.92130(8) 0.27189(7)
Ag2A_2 Ag 1.25100(7) 0.92130(8) 0.27189(7)
N5A N 0.1706(8) 0.5725(9) 0.1579(8)
H25A H 0.1389 0.4927 0.0876
H26A H 0.2522 0.6276 0.1860
O1A O -0.4292(6) 0.1058(7) -0.2327(6)
O3A O -0.0412(7) 0.0854(8) -0.2164(7)
O4_2 O -0.0561(7) 0.7173(8) 0.0343(7)
C21 C -0.263(2) 0.453(3) 0.508(3)
H13 H -0.3222 0.3610 0.4779
H14 H -0.2802 0.4636 0.4330
C22 C -0.296(2) 0.543(3) 0.596(3)
H15 H -0.3919 0.5131 0.5648
H16 H -0.2576 0.6314 0.6080
H17 H -0.2624 0.5477 0.6772
O5 O -0.1365(12) 0.4634(12) 0.5490(11)
H31 H -0.0865 0.5446 0.6005
C23 C -0.1460(15) 0.2222(15) 0.2500(13)
H18 H -0.1933 0.2741 0.2295
H19 H -0.2111 0.1405 0.2352
C24 C -0.070(2) 0.1856(17) 0.1704(16)
H20 H -0.1296 0.1310 0.0799
H21 H -0.0243 0.1339 0.1915
H22 H -0.0057 0.2673 0.1866
O6 O -0.0541(11) 0.3016(10) 0.3796(9)
H32 H -0.0867 0.3485 0.4259
loop_
_geom_bond_atom_site_label_1
_geom_bond_atom_site_label_2
_geom_bond_site_symmetry_1
_geom_bond_site_symmetry_2
Ag1 N1 1_555 1_555
Ag2 N2 1_555 1_555
C1 N1 1_555 1_555
C2 C4 1_555 1_555
C3 N1 1_555 1_555
C4 H1 1_555 1_555
H2 C4 1_555 1_555
H3 C4 1_555 1_555
C5 N6 1_555 1_555
C6 C8 1_555 1_555
C7 N6 1_555 1_555
C8 H4 1_555 1_555
H5 C8 1_555 1_555
H6 C8 1_555 1_555
C9 C10 1_555 1_555
C10 C11 1_555 1_555
C11 H7 1_555 1_555
C12 C11 1_555 1_555
H8 C12 1_555 1_555
C13 C12 1_555 1_555
C14 C13 1_555 1_555
C15 C14 1_555 1_555
H9 C15 1_555 1_555
C16 C15 1_555 1_555
H10 C16 1_555 1_555
C17 C16 1_555 1_555
H11 C17 1_555 1_555
C18 C17 1_555 1_555
H12 C18 1_555 1_555
C19 C10 1_555 1_555
C20 C13 1_555 1_555
C21 H13 1_555 1_555
H14 C21 1_555 1_555
C22 C21 1_555 1_555
H15 C22 1_555 1_555
H16 C22 1_555 1_555
H17 C22 1_555 1_555
C23 H18 1_555 1_555
H19 C23 1_555 1_555
C24 C23 1_555 1_555
H20 C24 1_555 1_555
H21 C24 1_555 1_555
H22 C24 1_555 1_555
N2 C1 1_555 1_555
N3 C2 1_555 1_555
N4 C3 1_555 1_555
H23 N4 1_555 1_555
H24 N4 1_555 1_555
N5 C1 1_555 1_555
H25 N5 1_555 1_555
H26 N5 1_555 1_555
N6 Ag2 1_555 1_555
N7 C5 1_555 1_555
N8 C6 1_555 1_555
N9 C7 1_555 1_555
H27 N9 1_555 1_555
H28 N9 1_555 1_555
N10 C5 1_555 1_555
H29 N10 1_555 1_555
H30 N10 1_555 1_555
O1 C9 1_555 1_555
O2 Ag1 1_555 1_555
O3 C20 1_555 1_555
O4 C20 1_555 1_555
O5 C21 1_555 1_555
H31 O5 1_555 1_555
O6 C23 1_555 1_555
H32 O6 1_555 1_555
Ag1A Ag2 1_555 1_555
Ag1_2 O4 1_555 1_555
Ag2A Ag1 1_555 1_555
Ag2A_2 O3 1_555 1_555
N5A Ag1 1_555 1_555
H25A N5A 1_555 1_555
H26A N5A 1_555 1_555
O1A Ag2 1_555 1_555
O3A Ag2 1_555 1_555
O4_2 Ag1 1_555 1_555
C2 N2 1_555 1_555
C3 N3 1_555 1_555
C6 N7 1_555 1_555
C7 N8 1_555 1_555
C9 O2 1_555 1_555
C14 C19 1_555 1_555
C18 C19 1_555 1_555
N5 Ag1A 1_555 1_555
O1 Ag2A 1_555 1_555
Ag1_2 Ag2A_2 1_555 1_555

#END
