
#######################################################################
#
#                 Cambridge Crystallographic Data Centre
#                                CCDC 
#
#######################################################################
#
# If this CIF has been generated from an entry in the Cambridge 
# Structural Database, then it will include bibliographic, chemical, 
# crystal, experimental, refinement or atomic coordinate data resulting 
# from the CCDC's data processing and validation procedures.
#
#######################################################################

data_GAWKAS
_symmetry_cell_setting           monoclinic
_symmetry_space_group_name_H-M   'P 21/c'
_symmetry_Int_Tables_number      14
_space_group_name_Hall           '-P 2ybc'
loop_
_symmetry_equiv_pos_site_id
_symmetry_equiv_pos_as_xyz
1 x,y,z
2 -x,1/2+y,1/2-z
3 -x,-y,-z
4 x,1/2-y,1/2+z
_cell_length_a                   18.156(4)
_cell_length_b                   23.801(5)
_cell_length_c                   13.932(3)
_cell_angle_alpha                90
_cell_angle_beta                 99.42(3)
_cell_angle_gamma                90
_cell_volume                     5939.26
loop_
_atom_site_label
_atom_site_type_symbol
_atom_site_fract_x
_atom_site_fract_y
_atom_site_fract_z
Sm1 Sm 0.01943(4) 0.59342(3) 0.85740(5)
Sm2 Sm -0.01490(4) 0.39761(3) 0.63607(5)
Cu1 Cu -0.45653(10) 0.51177(9) 0.93460(16)
Cu2 Cu 0.44580(10) 0.42025(9) 0.83675(16)
Cu3 Cu 0.55583(11) 0.31106(10) 0.87593(15)
Cu4 Cu 0.42931(12) 0.25113(8) 0.85880(17)
Cu5 Cu 0.44646(11) 0.68803(10) 0.62466(15)
Cu6 Cu -0.44043(10) 0.57923(8) 0.66162(16)
Cu7 Cu -0.54032(10) 0.48951(9) 0.56950(15)
Br1 Br -0.49463(11) 0.49849(7) 0.75079(10)
Br2 Br -0.47112(8) 0.41297(6) 1.00017(10)
Br3 Br 0.45173(8) 0.32910(6) 0.74796(11)
Br4 Br 0.44057(10) 0.74951(5) 0.48719(12)
Br5 Br 0.55274(8) 0.67003(6) 0.75052(11)
Br6 Br -0.52820(8) 0.58718(6) 0.50176(10)
O1 O -0.0760(5) 0.5236(4) 0.9013(7)
O2 O -0.0998(5) 0.6133(4) 0.9149(8)
O3 O 0.0873(5) 0.5120(4) 0.8606(7)
O4 O 0.0565(5) 0.4314(4) 0.7867(7)
O5 O -0.1472(5) 0.3597(5) 0.6254(7)
O6 O -0.0886(5) 0.3739(4) 0.7756(7)
O7 O 0.0959(7) 0.2517(4) 1.0525(9)
O8 O 0.1784(7) 0.2309(6) 1.1846(8)
O9 O 0.0921(5) 0.6196(4) 0.7254(7)
O10 O 0.1488(5) 0.6370(4) 0.8742(7)
O11 O -0.0827(5) 0.4813(4) 0.6455(7)
O12 O -0.0512(5) 0.5651(4) 0.7129(7)
O13 O 0.1042(6) 0.3809(4) 0.5766(8)
O14 O 0.0783(5) 0.4693(4) 0.5990(8)
O15 O 0.0569(5) 0.5832(4) 1.0327(7)
H1 H 0.0716 0.5947 1.0903
H2 H 0.0620 0.5477 1.0394
O16 O -0.0090(7) 0.6882(5) 0.8291(11)
H3 H -0.0269 0.7210 0.8183
H4 H 0.0008 0.6962 0.7729
O17 O -0.0298(6) 0.3136(5) 0.5223(8)
H5 H -0.0620 0.2915 0.4914
H6 H 0.0102 0.2993 0.5078
O18 O 0.0428(5) 0.3140(4) 0.7207(8)
H7 H 0.0851 0.3052 0.7066
H8 H 0.0364 0.3187 0.7794
O19 O -0.0580(5) 0.4250(4) 0.4703(7)
H9 H -0.0622 0.4581 0.4473
H10 H -0.0611 0.3926 0.4449
N1 N -0.3493(7) 0.5279(5) 0.9296(8)
N2 N 0.3369(6) 0.4351(5) 0.8244(8)
N3 N -0.3495(7) 0.3288(5) 0.8270(9)
N4 N 0.3458(7) 0.2513(4) 0.9387(10)
N5 N 0.3508(6) 0.6695(5) 0.6735(9)
N6 N -0.3311(6) 0.5618(5) 0.6723(8)
N7 N 0.3530(6) 0.4709(5) 0.5706(9)
C1 C -0.3031(9) 0.4885(7) 0.9115(10)
H17 H -0.3220 0.4522 0.9013
C2 C -0.2278(8) 0.4968(6) 0.9064(10)
H18 H -0.1978 0.4673 0.8919
C3 C -0.2002(6) 0.5486(6) 0.9232(8)
C4 C -0.2472(8) 0.5932(6) 0.9410(11)
H19 H -0.2298 0.6298 0.9501
C5 C -0.3221(7) 0.5791(6) 0.9441(9)
H20 H -0.3542 0.6075 0.9571
C6 C -0.1201(8) 0.5638(7) 0.9144(10)
C7 C 0.2855(7) 0.3953(6) 0.8044(9)
H21 H 0.3017 0.3596 0.7906
C8 C 0.2085(7) 0.4028(6) 0.8024(10)
H22 H 0.1749 0.3734 0.7866
C9 C 0.1845(8) 0.4563(6) 0.8252(9)
C10 C 0.2356(7) 0.4991(5) 0.8429(9)
H23 H 0.2208 0.5354 0.8553
C11 C 0.3108(7) 0.4862(6) 0.8415(10)
H24 H 0.3452 0.5154 0.8534
C12 C 0.1014(7) 0.4667(6) 0.8233(8)
C13 C -0.3497(8) 0.3437(7) 0.7343(12)
H25 H -0.3951 0.3472 0.6928
C14 C -0.2838(7) 0.3543(7) 0.6981(11)
H26 H -0.2861 0.3652 0.6336
C15 C -0.2172(7) 0.3488(5) 0.7554(9)
C16 C -0.2161(8) 0.3338(7) 0.8521(11)
H27 H -0.1710 0.3305 0.8943
C17 C -0.2824(9) 0.3239(8) 0.8847(12)
H28 H -0.2809 0.3134 0.9493
C18 C -0.1467(9) 0.3619(6) 0.7154(12)
C19 C 0.2757(10) 0.2508(5) 0.8886(11)
H29 H 0.2675 0.2521 0.8210
C20 C 0.2149(10) 0.2483(5) 0.9396(12)
H30 H 0.1665 0.2472 0.9054
C21 C 0.2262(9) 0.2474(6) 1.0366(13)
C22 C 0.3003(9) 0.2488(5) 1.0868(12)
H31 H 0.3119 0.2486 1.1544
C23 C 0.3560(9) 0.2505(5) 1.0255(18)
H32 H 0.4054 0.2510 1.0565
C24 C 0.1626(10) 0.2435(6) 1.0972(13)
C25 C 0.2846(8) 0.6682(7) 0.6160(12)
H33 H 0.2826 0.6749 0.5498
C26 C 0.2214(9) 0.6580(7) 0.6490(11)
H34 H 0.1767 0.6576 0.6054
C27 C 0.2202(8) 0.6478(6) 0.7469(11)
C28 C 0.2890(8) 0.6476(6) 0.8092(10)
H35 H 0.2918 0.6401 0.8752
C29 C 0.3527(8) 0.6590(8) 0.7700(11)
H36 H 0.3986 0.6595 0.8111
C30 C 0.1489(8) 0.6344(6) 0.7849(10)
C31 C -0.3084(8) 0.5111(6) 0.6539(10)
H37 H -0.3434 0.4824 0.6408
C32 C -0.2334(8) 0.4989(5) 0.6535(10)
H38 H -0.2189 0.4629 0.6384
C33 C -0.1798(7) 0.5416(5) 0.6761(9)
C34 C -0.2055(8) 0.5942(6) 0.6934(10)
H39 H -0.1720 0.6239 0.7068
C35 C -0.2800(9) 0.6034(6) 0.6911(10)
H40 H -0.2962 0.6394 0.7029
C36 C -0.0973(8) 0.5289(6) 0.6811(10)
C37 C 0.3271(9) 0.4191(7) 0.5577(12)
H41 H 0.3602 0.3906 0.5481
C38 C 0.2521(8) 0.4049(6) 0.5577(10)
H42 H 0.2358 0.3681 0.5459
C39 C 0.2025(8) 0.4466(6) 0.5757(10)
C40 C 0.2292(8) 0.5004(6) 0.5913(10)
H43 H 0.1975 0.5294 0.6030
C41 C 0.3040(8) 0.5109(7) 0.5893(12)
H44 H 0.3215 0.5473 0.6015
C42 C 0.1239(7) 0.4303(6) 0.5845(9)
Cu1B Cu -0.54347(10) 0.48823(9) 1.06540(16)
Cu2_2 Cu -0.55420(10) 0.42025(9) 0.83675(16)
Cu3A Cu 0.44417(11) 0.81106(10) 0.62407(15)
Cu3_2 Cu -0.44417(11) 0.31106(10) 0.87593(15)
Cu4A Cu 0.57069(12) 0.75113(8) 0.64120(17)
Cu6_2 Cu 0.55957(10) 0.57923(8) 0.66162(16)
Cu7B Cu -0.45968(10) 0.51049(9) 0.43050(15)
Cu7_2 Cu 0.45968(10) 0.48951(9) 0.56950(15)
Br1_2 Br 0.50537(11) 0.49849(7) 0.75079(10)
Br2B Br -0.52888(8) 0.58703(6) 0.99983(10)
Br2_2 Br 0.52888(8) 0.41297(6) 1.00017(10)
Br4A Br 0.55943(10) 0.24951(5) 1.01281(12)
Br5A Br 0.44726(8) 0.17003(6) 0.74948(11)
Br5_2 Br -0.44726(8) 0.67003(6) 0.75052(11)
Br6B Br -0.47180(8) 0.41282(6) 0.49824(10)
N3_2 N 0.6505(7) 0.3288(5) 0.8270(9)
N7_2 N -0.6470(6) 0.4709(5) 0.5706(9)
O20 O 0.0410(7) 0.3219(5) 0.9114(8)
H11 H 0.0572 0.3036 0.9630
H12 H 0.0695 0.3234 0.8693
O21 O 0.0657(8) 0.7408(5) 0.6933(10)
H13 H 0.0238 0.7510 0.6615
H14 H 0.0581 0.7281 0.7479
O22 O -0.1536(8) 0.2494(4) 0.5424(10)
H15 H -0.1587 0.2807 0.5698
H16 H -0.1767 0.2251 0.5709
loop_
_geom_bond_atom_site_label_1
_geom_bond_atom_site_label_2
_geom_bond_site_symmetry_1
_geom_bond_site_symmetry_2
Sm1 O1 1_555 1_555
Sm2 O4 1_555 1_555
Cu1 Br1 1_555 1_555
Cu2 Br3 1_555 1_555
Cu3 Br3 1_555 1_555
Cu4 Br3 1_555 1_555
Cu5 Br4 1_555 1_555
Cu6 Br1 1_555 1_555
Cu7 Br1 1_555 1_555
Br1 Cu2_2 1_555 1_555
Br2 Cu1 1_555 1_555
Br4 Cu3A 1_555 1_555
Br5 Cu5 1_555 1_555
Br6 Cu6 1_555 1_555
O1 C6 1_555 1_555
O2 Sm1 1_555 1_555
O3 Sm1 1_555 1_555
O4 C12 1_555 1_555
O5 Sm2 1_555 1_555
O6 Sm2 1_555 1_555
O7 C24 1_555 1_555
O8 C24 1_555 1_555
O9 Sm1 1_555 1_555
O10 Sm1 1_555 1_555
O11 Sm2 1_555 1_555
O12 Sm1 1_555 1_555
O13 Sm2 1_555 1_555
O14 Sm2 1_555 1_555
O15 Sm1 1_555 1_555
H1 O15 1_555 1_555
H2 O15 1_555 1_555
O16 Sm1 1_555 1_555
H3 O16 1_555 1_555
H4 O16 1_555 1_555
O17 Sm2 1_555 1_555
H5 O17 1_555 1_555
H6 O17 1_555 1_555
O18 Sm2 1_555 1_555
H7 O18 1_555 1_555
H8 O18 1_555 1_555
O19 Sm2 1_555 1_555
H9 O19 1_555 1_555
H10 O19 1_555 1_555
O20 H11 1_555 1_555
H12 O20 1_555 1_555
O21 H13 1_555 1_555
H14 O21 1_555 1_555
O22 H15 1_555 1_555
H16 O22 1_555 1_555
N1 Cu1 1_555 1_555
N2 Cu2 1_555 1_555
N3 C13 1_555 1_555
N4 Cu4 1_555 1_555
N5 Cu5 1_555 1_555
N6 Cu6 1_555 1_555
N7 C37 1_555 1_555
C1 N1 1_555 1_555
H17 C1 1_555 1_555
C2 C1 1_555 1_555
H18 C2 1_555 1_555
C3 C2 1_555 1_555
C4 C3 1_555 1_555
H19 C4 1_555 1_555
C5 N1 1_555 1_555
H20 C5 1_555 1_555
C6 O2 1_555 1_555
C7 N2 1_555 1_555
H21 C7 1_555 1_555
C8 C7 1_555 1_555
H22 C8 1_555 1_555
C9 C8 1_555 1_555
C10 C9 1_555 1_555
H23 C10 1_555 1_555
C11 N2 1_555 1_555
H24 C11 1_555 1_555
C12 O3 1_555 1_555
C13 H25 1_555 1_555
C14 C13 1_555 1_555
H26 C14 1_555 1_555
C15 C14 1_555 1_555
C16 C15 1_555 1_555
H27 C16 1_555 1_555
C17 N3 1_555 1_555
H28 C17 1_555 1_555
C18 O5 1_555 1_555
C19 N4 1_555 1_555
H29 C19 1_555 1_555
C20 C19 1_555 1_555
H30 C20 1_555 1_555
C21 C20 1_555 1_555
C22 C21 1_555 1_555
H31 C22 1_555 1_555
C23 N4 1_555 1_555
H32 C23 1_555 1_555
C24 C21 1_555 1_555
C25 N5 1_555 1_555
H33 C25 1_555 1_555
C26 C25 1_555 1_555
H34 C26 1_555 1_555
C27 C26 1_555 1_555
C28 C27 1_555 1_555
H35 C28 1_555 1_555
C29 N5 1_555 1_555
H36 C29 1_555 1_555
C30 O9 1_555 1_555
C31 N6 1_555 1_555
H37 C31 1_555 1_555
C32 C31 1_555 1_555
H38 C32 1_555 1_555
C33 C32 1_555 1_555
C34 C33 1_555 1_555
H39 C34 1_555 1_555
C35 N6 1_555 1_555
H40 C35 1_555 1_555
C36 O11 1_555 1_555
C37 H41 1_555 1_555
C38 C37 1_555 1_555
H42 C38 1_555 1_555
C39 C38 1_555 1_555
C40 C39 1_555 1_555
H43 C40 1_555 1_555
C41 N7 1_555 1_555
H44 C41 1_555 1_555
C42 O13 1_555 1_555
Cu1B Br2 1_555 1_555
Cu2_2 Br2 1_555 1_555
Cu3_2 N3 1_555 1_555
Cu4A Br5 1_555 1_555
Cu6_2 Br5 1_555 1_555
Cu7B Br6 1_555 1_555
Cu7_2 N7 1_555 1_555
Br1_2 Cu2 1_555 1_555
Br2B Cu1 1_555 1_555
Br2_2 Cu2 1_555 1_555
Br4A Cu3 1_555 1_555
Br5A Cu4 1_555 1_555
Br5_2 Cu6 1_555 1_555
Br6B Cu7 1_555 1_555
N3_2 Cu3 1_555 1_555
N7_2 Cu7 1_555 1_555
Cu7 Br6 1_555 1_555
O6 C18 1_555 1_555
O10 C30 1_555 1_555
O12 C36 1_555 1_555
O14 C42 1_555 1_555
C3 C6 1_555 1_555
C4 C5 1_555 1_555
C9 C12 1_555 1_555
C10 C11 1_555 1_555
C15 C18 1_555 1_555
C16 C17 1_555 1_555
C22 C23 1_555 1_555
C27 C30 1_555 1_555
C28 C29 1_555 1_555
C33 C36 1_555 1_555
C34 C35 1_555 1_555
C39 C42 1_555 1_555
C40 C41 1_555 1_555
Cu1B Br2B 1_555 1_555
Cu6_2 Br1_2 1_555 1_555
Cu7B Br6B 1_555 1_555
Cu7_2 Br1_2 1_555 1_555

#END
