
#######################################################################
#
#                 Cambridge Crystallographic Data Centre
#                                CCDC 
#
#######################################################################
#
# If this CIF has been generated from an entry in the Cambridge 
# Structural Database, then it will include bibliographic, chemical, 
# crystal, experimental, refinement or atomic coordinate data resulting 
# from the CCDC's data processing and validation procedures.
#
#######################################################################

data_GAWMAU
_symmetry_cell_setting           monoclinic
_symmetry_space_group_name_H-M   'P 21/n'
_symmetry_Int_Tables_number      14
_space_group_name_Hall           '-P 2yn'
loop_
_symmetry_equiv_pos_site_id
_symmetry_equiv_pos_as_xyz
1 x,y,z
2 1/2-x,1/2+y,1/2-z
3 -x,-y,-z
4 1/2+x,1/2-y,1/2+z
_cell_length_a                   12.0864(14)
_cell_length_b                   21.578(3)
_cell_length_c                   12.9662(16)
_cell_angle_alpha                90
_cell_angle_beta                 115.309(2)
_cell_angle_gamma                90
_cell_volume                     3057.01
loop_
_atom_site_label
_atom_site_type_symbol
_atom_site_fract_x
_atom_site_fract_y
_atom_site_fract_z
Cu1 Cu -0.01725(6) 0.90619(3) -0.10985(5)
Cu2 Cu 0.72830(7) 0.71100(4) 0.30502(8)
Cu3 Cu 0.84672(7) 1.00473(3) 0.42030(6)
C1 C 0.4746(5) 0.9506(2) 0.2638(5)
C2 C 0.4778(5) 1.0540(2) 0.2642(5)
C3 C 0.6029(5) 1.0021(3) 0.4199(5)
C4 C 0.3567(5) 0.8964(3) 0.0854(5)
H1 H 0.3670 0.8566 0.0556
H2 H 0.3895 0.9278 0.0527
C5 C 0.2220(5) 0.9081(2) 0.0452(5)
C6 C 0.4581(5) 0.8377(2) 0.2691(5)
H3 H 0.3868 0.8110 0.2368
H4 H 0.4756 0.8449 0.3484
C7 C 0.5666(5) 0.8045(3) 0.2635(5)
C8 C 0.3493(5) 1.1075(3) 0.0913(5)
H5 H 0.3764 1.0776 0.0510
H6 H 0.3486 1.1479 0.0584
C9 C 0.2207(5) 1.0914(2) 0.0720(5)
C10 C 0.4829(5) 1.1669(3) 0.2651(5)
H7 H 0.5012 1.1632 0.3454
H8 H 0.4187 1.1976 0.2321
C11 C 0.5962(6) 1.1899(3) 0.2550(6)
C12 C 0.7353(6) 1.0626(3) 0.5854(5)
H9 H 0.7843 1.0544 0.6658
H10 H 0.6613 1.0834 0.5786
C13 C 0.8064(6) 1.1070(3) 0.5447(5)
C14 C 0.7494(5) 0.9481(3) 0.5913(5)
H11 H 0.7024 0.9128 0.5483
H12 H 0.7390 0.9506 0.6613
C15 C 0.8845(6) 0.9367(3) 0.6215(5)
C16 C 0.7311(6) 0.9771(3) 0.1838(6)
H13 H 0.7254 0.9866 0.1086
H14 H 0.6512 0.9638 0.1759
C17 C 0.8243(7) 0.9265(3) 0.2387(6)
H15 H 0.7968 0.8880 0.1972
H16 H 0.9022 0.9378 0.2392
N1 N 0.4320(4) 1.0024(2) 0.2052(4)
N2 N 0.5639(4) 1.0572(2) 0.3731(4)
N3 N 0.5618(4) 0.9465(2) 0.3728(4)
N4 N 0.4295(4) 0.8962(2) 0.2094(4)
N5 N 0.4374(4) 1.1084(2) 0.2107(4)
N6 N 0.7007(4) 1.0035(2) 0.5259(4)
N7 N 0.7717(5) 1.0329(2) 0.2585(4)
H17 H 0.7073 1.0577 0.2458
H18 H 0.8268 1.0544 0.2432
N8 N 0.8368(6) 0.9199(2) 0.3559(5)
H19 H 0.9049 0.8982 0.3983
H20 H 0.7718 0.8995 0.3559
O1 O 0.1601(4) 0.9056(2) -0.0633(3)
O2 O 0.1775(4) 0.9186(2) 0.1134(4)
O3 O 0.5922(4) 0.75194(18) 0.3167(4)
O4 O 0.6231(4) 0.8255(2) 0.2138(5)
O5 O 0.1485(4) 1.0757(2) -0.0258(4)
O6 O 0.1915(4) 1.0973(2) 0.1534(3)
O7 O 0.6371(4) 1.1597(2) 0.1977(4)
O8 O 0.6438(5) 1.2388(3) 0.3046(5)
O9 O 0.8504(4) 1.08901(19) 0.4775(4)
O10 O 0.8197(6) 1.1602(2) 0.5818(5)
O11 O 0.9379(4) 0.9696(2) 0.5753(3)
O12 O 0.9365(4) 0.8952(2) 0.6924(3)
O13 O -0.0264(4) 0.99595(17) -0.1359(3)
H21 H 0.0291 1.0210 -0.1052
H22 H -0.0898 1.0086 -0.1348
O14 O -0.0053(4) 0.8177(2) -0.0742(5)
H23 H -0.0592 0.8028 -0.0594
H24 H 0.0249 0.7926 -0.1022
O15 O 0.6096(4) 0.6682(2) 0.1697(4)
H25 H 0.5483 0.6512 0.1683
H26 H 0.6290 0.6528 0.1220
O16 O 0.8395(5) 0.7525(3) 0.4434(5)
H27 H 0.8201 0.7625 0.4945
H28 H 0.9131 0.7454 0.4694
Cu1B Cu 0.01725(6) 1.09381(3) 0.10985(5)
Cu1_2 Cu 0.98275(6) 0.90619(3) 0.89015(5)
Cu2A Cu 0.77170(7) 1.21100(4) 0.19498(8)
Cu3B Cu 1.15328(7) 0.99527(3) 0.57970(6)
O6B O -0.1915(4) 0.9027(2) -0.1534(3)
O7A O 0.8629(4) 0.6597(2) 0.3023(4)
O8A O 0.8562(5) 0.7388(3) 0.1954(5)
O11B O 1.0621(4) 1.0304(2) 0.4247(3)
O12_2 O -0.0635(4) 0.8952(2) -0.3076(3)
O17 O 0.9269(5) 1.2601(3) 0.5085(5)
H29 H 0.9026 1.2251 0.4850
H30 H 0.9136 1.2780 0.4486
O18 O 0.2651(6) 0.7121(3) 0.1051(5)
H31 H 0.3054 0.6898 0.1595
H32 H 0.2289 0.7386 0.1242
O19 O 0.1427(7) 0.7942(3) 0.1905(6)
H33 H 0.1525 0.8067 0.2535
H34 H 0.1518 0.8287 0.1686
O20 O -0.1614(6) 0.7616(3) -0.0208(6)
H35 H -0.2026 0.7333 -0.0612
H36 H -0.1560 0.7549 0.0434
O21 O 0.540(3) 1.3118(12) 0.123(3)
H37 H 0.5728 1.2890 0.1788
H38 H 0.4693 1.3208 0.1091
loop_
_geom_bond_atom_site_label_1
_geom_bond_atom_site_label_2
_geom_bond_site_symmetry_1
_geom_bond_site_symmetry_2
Cu1 O1 1_555 1_555
Cu2 O3 1_555 1_555
Cu3 N6 1_555 1_555
C1 N1 1_555 1_555
C2 N1 1_555 1_555
C3 N2 1_555 1_555
C4 H1 1_555 1_555
H2 C4 1_555 1_555
C5 C4 1_555 1_555
C6 H3 1_555 1_555
H4 C6 1_555 1_555
C7 C6 1_555 1_555
C8 H5 1_555 1_555
H6 C8 1_555 1_555
C9 C8 1_555 1_555
C10 H7 1_555 1_555
H8 C10 1_555 1_555
C11 C10 1_555 1_555
C12 H9 1_555 1_555
H10 C12 1_555 1_555
C13 C12 1_555 1_555
C14 H11 1_555 1_555
H12 C14 1_555 1_555
C15 C14 1_555 1_555
C16 H13 1_555 1_555
H14 C16 1_555 1_555
C17 C16 1_555 1_555
H15 C17 1_555 1_555
H16 C17 1_555 1_555
N2 C2 1_555 1_555
N3 C1 1_555 1_555
N4 C1 1_555 1_555
N5 C2 1_555 1_555
N6 C3 1_555 1_555
N7 Cu3 1_555 1_555
H17 N7 1_555 1_555
H18 N7 1_555 1_555
N8 Cu3 1_555 1_555
H19 N8 1_555 1_555
H20 N8 1_555 1_555
O1 C5 1_555 1_555
O2 C5 1_555 1_555
O3 C7 1_555 1_555
O4 Cu2 1_555 1_555
O5 C9 1_555 1_555
O6 C9 1_555 1_555
O7 C11 1_555 1_555
O8 C11 1_555 1_555
O9 Cu3 1_555 1_555
O10 C13 1_555 1_555
O11 Cu3 1_555 1_555
O12 C15 1_555 1_555
O13 Cu1 1_555 1_555
H21 O13 1_555 1_555
H22 O13 1_555 1_555
O14 Cu1 1_555 1_555
H23 O14 1_555 1_555
H24 O14 1_555 1_555
O15 Cu2 1_555 1_555
H25 O15 1_555 1_555
H26 O15 1_555 1_555
O16 Cu2 1_555 1_555
H27 O16 1_555 1_555
H28 O16 1_555 1_555
O17 H29 1_555 1_555
H30 O17 1_555 1_555
O18 H31 1_555 1_555
H32 O18 1_555 1_555
O19 H33 1_555 1_555
H34 O19 1_555 1_555
O20 H35 1_555 1_555
H36 O20 1_555 1_555
O21 H37 1_555 1_555
H38 O21 1_555 1_555
Cu1B O6 1_555 1_555
Cu1_2 O12 1_555 1_555
Cu2A O7 1_555 1_555
Cu3B O11 1_555 1_555
O6B Cu1 1_555 1_555
O7A Cu2 1_555 1_555
O8A Cu2 1_555 1_555
O11B Cu3 1_555 1_555
O12_2 Cu1 1_555 1_555
C3 N3 1_555 1_555
C4 N4 1_555 1_555
C6 N4 1_555 1_555
C7 O4 1_555 1_555
C8 N5 1_555 1_555
C10 N5 1_555 1_555
C12 N6 1_555 1_555
C13 O9 1_555 1_555
C14 N6 1_555 1_555
C15 O11 1_555 1_555
C16 N7 1_555 1_555
C17 N8 1_555 1_555
O8 Cu2A 1_555 1_555
Cu3B O11B 1_555 1_555

#END
