
#######################################################################
#
#                 Cambridge Crystallographic Data Centre
#                                CCDC 
#
#######################################################################
#
# If this CIF has been generated from an entry in the Cambridge 
# Structural Database, then it will include bibliographic, chemical, 
# crystal, experimental, refinement or atomic coordinate data resulting 
# from the CCDC's data processing and validation procedures.
#
#######################################################################

data_GAWRON
_symmetry_cell_setting           triclinic
_symmetry_space_group_name_H-M   'P -1'
_symmetry_Int_Tables_number      2
_space_group_name_Hall           '-P 1'
loop_
_symmetry_equiv_pos_site_id
_symmetry_equiv_pos_as_xyz
1 x,y,z
2 -x,-y,-z
_cell_length_a                   9.616(4)
_cell_length_b                   12.934(6)
_cell_length_c                   13.637(6)
_cell_angle_alpha                91.961(6)
_cell_angle_beta                 95.844(6)
_cell_angle_gamma                105.413(6)
_cell_volume                     1623.26
loop_
_atom_site_label
_atom_site_type_symbol
_atom_site_fract_x
_atom_site_fract_y
_atom_site_fract_z
Co1 Co 0.0000 0.5000 1.0000
Co2 Co 0.5000 0.0000 0.5000
O1 O 0.5376(5) -0.1327(4) 0.5559(3)
O2 O -0.0862(5) 0.4296(4) 1.1168(4)
N1 N 0.2877(6) -0.0994(4) 0.4263(4)
N2 N 0.0732(6) 0.3593(4) 0.9621(4)
N3 N 0.2091(6) 0.5648(4) 1.0946(4)
O3 O 0.1889(6) 0.0132(4) 0.9449(4)
F1 F 0.4801(5) 0.5404(5) 1.1918(4)
F2 F -0.0508(5) 0.3264(5) 1.3478(4)
N4 N 0.3959(6) 0.0278(4) 0.6293(4)
F3 F 0.0266(6) 0.1548(4) 0.2015(4)
F4 F 0.4225(6) 0.6756(4) 1.2544(4)
F5 F -0.2058(6) 0.2622(4) 1.2217(4)
N5 N 0.2076(6) 0.0879(4) 0.8833(4)
F6 F -0.0099(5) -0.2225(5) 0.4174(5)
F7 F 0.4400(5) -0.4093(4) 0.5818(4)
F8 F 0.6484(6) -0.3066(4) 0.5606(4)
F9 F 0.3883(5) 0.5314(5) 1.3287(4)
F10 F 0.0553(6) -0.3674(4) 0.4096(5)
F11 F 0.5527(7) -0.2851(4) 0.6912(4)
F12 F -0.2056(6) 0.4105(5) 1.2960(4)
F13 F 0.5674(6) 0.8813(5) 0.9108(4)
C1 C -0.0206(8) 0.4162(6) 1.1984(5)
C2 C 0.3220(8) 0.1027(6) 0.6324(5)
H1 H 0.3156 0.1428 0.5759
C3 C 0.1725(8) 0.3658(6) 0.8992(5)
H2 H 0.2097 0.4328 0.8719
C4 C 0.0223(8) 0.2641(6) 0.9995(5)
H3 H -0.0460 0.2584 1.0461
F14 F 0.0848(7) -0.2637(5) 0.2907(4)
C5 C 0.2699(7) 0.0697(5) 0.7963(5)
C6 C 0.1657(7) 0.1809(5) 0.9083(5)
C7 C 0.4548(8) -0.2281(6) 0.5445(5)
C8 C 0.2553(7) 0.1250(6) 0.7117(5)
H4 H 0.2008 0.1765 0.7089
C9 C 0.2129(7) -0.0423(6) 0.3672(5)
C10 C 0.2240(7) 0.2803(6) 0.8719(5)
H5 H 0.2977 0.2892 0.8290
C11 C 0.3086(8) 0.6438(6) 1.0555(6)
C12 C 0.1287(8) 0.0150(6) 0.4080(6)
H6 H 0.1152 0.0096 0.4758
C13 C 0.4014(8) 0.6195(7) 0.9911(6)
H7 H 0.4034 0.5470 0.9801
C14 C 0.4034(8) -0.0274(6) 0.7105(5)
H8 H 0.4531 -0.0817 0.7101
C15 C 0.2328(8) -0.0341(6) 0.2683(5)
H9 H 0.2916 -0.0726 0.2396
C16 C -0.1178(9) 0.3526(7) 1.2666(7)
C17 C 0.3098(8) 0.7506(6) 1.0721(6)
H10 H 0.2496 0.7693 1.1169
C18 C 0.3179(8) -0.2647(6) 0.4941(6)
H11 H 0.2691 -0.3386 0.4971
C19 C 0.0643(8) 0.1741(6) 0.9738(5)
H12 H 0.0237 0.1077 1.0012
C20 C 0.3423(8) -0.0089(6) 0.7944(5)
H13 H 0.3501 -0.0499 0.8502
C21 C 0.0639(8) 0.0797(6) 0.3526(6)
H14 H 0.0037 0.1174 0.3806
C22 C 0.0883(9) 0.0881(7) 0.2566(6)
C23 C 0.5243(9) -0.3086(7) 0.5942(6)
C24 C 0.1268(8) 0.4548(7) 1.2315(6)
H15 H 0.1611 0.4311 1.2922
C25 C 0.2293(9) 0.5269(6) 1.1810(6)
C26 C 0.1671(9) 0.0304(7) 0.2110(6)
H16 H 0.1764 0.0344 0.1425
C27 C 0.2446(8) -0.2024(6) 0.4389(6)
C28 C 0.4889(8) 0.6981(7) 0.9440(6)
H17 H 0.5530 0.6814 0.9012
C29 C 0.3982(9) 0.8300(7) 1.0234(6)
H18 H 0.3996 0.9031 1.0347
C30 C 0.4825(9) 0.8019(7) 0.9599(7)
C31 C 0.0923(10) -0.2643(7) 0.3884(8)
C32 C 0.3821(9) 0.5701(8) 1.2396(7)
Co2_2 Co -0.5000 1.0000 1.5000
O1A O 0.4624(5) 0.1327(4) 0.4441(3)
O2A O 0.0862(5) 0.5704(4) 0.8832(4)
N1A N 0.7123(6) 0.0994(4) 0.5737(4)
N2A N -0.0732(6) 0.6407(4) 1.0379(4)
N3A N -0.2091(6) 0.4352(4) 0.9054(4)
O3A O -0.1889(6) 0.9868(4) 1.0551(4)
F1A F -0.4801(5) 0.4596(5) 0.8082(4)
F2A F 0.0508(5) 0.6736(5) 0.6522(4)
N4A N -0.3959(6) 0.9722(4) 1.3707(4)
N4A_2 N 0.6041(6) -0.0278(4) 0.3707(4)
F3A F 0.9734(6) -0.1548(4) 0.7985(4)
F4A F -0.4225(6) 0.3244(4) 0.7456(4)
F5A F 0.2058(6) 0.7378(4) 0.7783(4)
N5A N -0.2076(6) 0.9121(4) 1.1167(4)
F6A F 1.0099(5) 0.2225(5) 0.5826(5)
F7A F 0.5600(5) 0.4093(4) 0.4182(4)
F8A F 0.3516(6) 0.3066(4) 0.4394(4)
F9A F -0.3883(5) 0.4686(5) 0.6713(4)
F10A F 0.9447(6) 0.3674(4) 0.5904(5)
F11A F 0.4473(7) 0.2851(4) 0.3088(4)
F12A F 0.2056(6) 0.5895(5) 0.7040(4)
F13A F -0.5674(6) 0.1187(5) 1.0892(4)
C1A C 0.0206(8) 0.5838(6) 0.8016(5)
C2A C -0.3220(8) 0.8973(6) 1.3676(5)
H1A H -0.3156 0.8572 1.4241
C3A C -0.1725(8) 0.6342(6) 1.1008(5)
H2A H -0.2097 0.5672 1.1281
C4A C -0.0223(8) 0.7359(6) 1.0005(5)
H3A H 0.0460 0.7416 0.9539
F14A F 0.9152(7) 0.2637(5) 0.7093(4)
C5A C -0.2699(7) 0.9303(5) 1.2037(5)
C6A C -0.1657(7) 0.8191(5) 1.0917(5)
C7A C 0.5452(8) 0.2281(6) 0.4555(5)
C8A C -0.2553(7) 0.8750(6) 1.2883(5)
H4A H -0.2008 0.8235 1.2911
C9A C 0.7871(7) 0.0423(6) 0.6328(5)
C10A C -0.2240(7) 0.7197(6) 1.1281(5)
H5A H -0.2977 0.7108 1.1710
C11A C -0.3086(8) 0.3562(6) 0.9445(6)
C12A C 0.8713(8) -0.0150(6) 0.5920(6)
H6A H 0.8848 -0.0096 0.5242
C13A C -0.4014(8) 0.3805(7) 1.0089(6)
H7A H -0.4034 0.4530 1.0199
C14A C -0.4034(8) 1.0274(6) 1.2895(5)
H8A H -0.4531 1.0817 1.2899
C15A C 0.7672(8) 0.0341(6) 0.7317(5)
H9A H 0.7084 0.0726 0.7604
C16A C 0.1178(9) 0.6474(7) 0.7334(7)
C17A C -0.3098(8) 0.2494(6) 0.9279(6)
H10A H -0.2496 0.2307 0.8831
C18A C 0.6821(8) 0.2647(6) 0.5059(6)
H11A H 0.7309 0.3386 0.5029
C19A C -0.0643(8) 0.8259(6) 1.0262(5)
H12A H -0.0237 0.8923 0.9988
C20A C -0.3423(8) 1.0089(6) 1.2056(5)
H13A H -0.3501 1.0499 1.1498
C21A C 0.9361(8) -0.0797(6) 0.6474(6)
H14A H 0.9963 -0.1174 0.6194
C22A C 0.9117(9) -0.0881(7) 0.7434(6)
C23A C 0.4757(9) 0.3086(7) 0.4058(6)
C24A C -0.1268(8) 0.5452(7) 0.7685(6)
H15A H -0.1611 0.5689 0.7078
C25A C -0.2293(9) 0.4731(6) 0.8190(6)
C26A C 0.8329(9) -0.0304(7) 0.7890(6)
H16A H 0.8236 -0.0344 0.8575
C27A C 0.7554(8) 0.2024(6) 0.5611(6)
C28A C -0.4889(8) 0.3019(7) 1.0560(6)
H17A H -0.5530 0.3186 1.0988
C29A C -0.3982(9) 0.1700(7) 0.9766(6)
H18A H -0.3996 0.0969 0.9653
C30A C -0.4825(9) 0.1981(7) 1.0401(7)
C31A C 0.9077(10) 0.2643(7) 0.6116(8)
C32A C -0.3821(9) 0.4299(8) 0.7604(7)
loop_
_geom_bond_atom_site_label_1
_geom_bond_atom_site_label_2
_geom_bond_site_symmetry_1
_geom_bond_site_symmetry_2
Co1 O2 1_555 1_555
Co2 O1 1_555 1_555
O1 C7 1_555 1_555
O2 C1 1_555 1_555
N1 Co2 1_555 1_555
N2 Co1 1_555 1_555
N3 Co1 1_555 1_555
O3 N5 1_555 1_555
F1 C32 1_555 1_555
F2 C16 1_555 1_555
N4 Co2 1_555 1_555
F3 C22 1_555 1_555
F4 C32 1_555 1_555
F5 C16 1_555 1_555
N5 C5 1_555 1_555
F6 C31 1_555 1_555
F7 C23 1_555 1_555
F8 C23 1_555 1_555
F9 C32 1_555 1_555
F10 C31 1_555 1_555
F11 C23 1_555 1_555
F12 C16 1_555 1_555
F13 C30 1_555 1_555
C1 C16 1_555 1_555
C2 N4 1_555 1_555
H1 C2 1_555 1_555
C3 N2 1_555 1_555
H2 C3 1_555 1_555
C4 N2 1_555 1_555
H3 C4 1_555 1_555
F14 C31 1_555 1_555
C5 C8 1_555 1_555
C6 N5 1_555 1_555
C7 C18 1_555 1_555
C8 C2 1_555 1_555
H4 C8 1_555 1_555
C9 N1 1_555 1_555
C10 C3 1_555 1_555
H5 C10 1_555 1_555
C11 N3 1_555 1_555
C12 C9 1_555 1_555
H6 C12 1_555 1_555
C13 C11 1_555 1_555
H7 C13 1_555 1_555
C14 N4 1_555 1_555
H8 C14 1_555 1_555
C15 C9 1_555 1_555
H9 C15 1_555 1_555
C17 C11 1_555 1_555
H10 C17 1_555 1_555
C18 H11 1_555 1_555
C19 C4 1_555 1_555
H12 C19 1_555 1_555
C20 C5 1_555 1_555
H13 C20 1_555 1_555
C21 C12 1_555 1_555
H14 C21 1_555 1_555
C22 C21 1_555 1_555
C23 C7 1_555 1_555
C24 C1 1_555 1_555
H15 C24 1_555 1_555
C25 N3 1_555 1_555
C26 C15 1_555 1_555
H16 C26 1_555 1_555
C27 N1 1_555 1_555
C28 C13 1_555 1_555
H17 C28 1_555 1_555
C29 C17 1_555 1_555
H18 C29 1_555 1_555
C30 C28 1_555 1_555
C31 C27 1_555 1_555
C32 C25 1_555 1_555
Co2_2 N4A 1_555 1_555
O1A Co2 1_555 1_555
O2A Co1 1_555 1_555
N1A Co2 1_555 1_555
N2A Co1 1_555 1_555
N3A Co1 1_555 1_555
O3A N5A 1_555 1_555
F1A C32A 1_555 1_555
F2A C16A 1_555 1_555
N4A C2A 1_555 1_555
N4A_2 Co2 1_555 1_555
F3A C22A 1_555 1_555
F4A C32A 1_555 1_555
F5A C16A 1_555 1_555
N5A C5A 1_555 1_555
F6A C31A 1_555 1_555
F7A C23A 1_555 1_555
F8A C23A 1_555 1_555
F9A C32A 1_555 1_555
F10A C31A 1_555 1_555
F11A C23A 1_555 1_555
F12A C16A 1_555 1_555
F13A C30A 1_555 1_555
C1A O2A 1_555 1_555
C2A H1A 1_555 1_555
C3A N2A 1_555 1_555
H2A C3A 1_555 1_555
C4A N2A 1_555 1_555
H3A C4A 1_555 1_555
F14A C31A 1_555 1_555
C5A C8A 1_555 1_555
C6A N5A 1_555 1_555
C7A O1A 1_555 1_555
C8A C2A 1_555 1_555
H4A C8A 1_555 1_555
C9A N1A 1_555 1_555
C10A C3A 1_555 1_555
H5A C10A 1_555 1_555
C11A N3A 1_555 1_555
C12A C9A 1_555 1_555
H6A C12A 1_555 1_555
C13A C11A 1_555 1_555
H7A C13A 1_555 1_555
C14A N4A 1_555 1_555
H8A C14A 1_555 1_555
C15A C9A 1_555 1_555
H9A C15A 1_555 1_555
C16A C1A 1_555 1_555
C17A C11A 1_555 1_555
H10A C17A 1_555 1_555
C18A C7A 1_555 1_555
H11A C18A 1_555 1_555
C19A C4A 1_555 1_555
H12A C19A 1_555 1_555
C20A C5A 1_555 1_555
H13A C20A 1_555 1_555
C21A C12A 1_555 1_555
H14A C21A 1_555 1_555
C22A C21A 1_555 1_555
C23A C7A 1_555 1_555
C24A C1A 1_555 1_555
H15A C24A 1_555 1_555
C25A N3A 1_555 1_555
C26A C15A 1_555 1_555
H16A C26A 1_555 1_555
C27A N1A 1_555 1_555
C28A C13A 1_555 1_555
H17A C28A 1_555 1_555
C29A C17A 1_555 1_555
H18A C29A 1_555 1_555
C30A C28A 1_555 1_555
C31A C27A 1_555 1_555
C32A C25A 1_555 1_555
C6 C10 1_555 1_555
C6 C19 1_555 1_555
C14 C20 1_555 1_555
C18 C27 1_555 1_555
C22 C26 1_555 1_555
C24 C25 1_555 1_555
C29 C30 1_555 1_555
C6A C10A 1_555 1_555
C6A C19A 1_555 1_555
C14A C20A 1_555 1_555
C18A C27A 1_555 1_555
C22A C26A 1_555 1_555
C24A C25A 1_555 1_555
C29A C30A 1_555 1_555

#END
