
#######################################################################
#
#                 Cambridge Crystallographic Data Centre
#                                CCDC 
#
#######################################################################
#
# If this CIF has been generated from an entry in the Cambridge 
# Structural Database, then it will include bibliographic, chemical, 
# crystal, experimental, refinement or atomic coordinate data resulting 
# from the CCDC's data processing and validation procedures.
#
#######################################################################

data_GAXDEO01
_symmetry_cell_setting           monoclinic
_symmetry_space_group_name_H-M   'C 2/m'
_symmetry_Int_Tables_number      12
_space_group_name_Hall           '-C 2y'
loop_
_symmetry_equiv_pos_site_id
_symmetry_equiv_pos_as_xyz
1 x,y,z
2 -x,y,-z
3 1/2+x,1/2+y,z
4 1/2-x,1/2+y,-z
5 -x,-y,-z
6 x,-y,z
7 1/2-x,1/2-y,-z
8 1/2+x,1/2-y,z
_cell_length_a                   20.589(2)
_cell_length_b                   9.172(2)
_cell_length_c                   14.891(6)
_cell_angle_alpha                90
_cell_angle_beta                 111.56(3)
_cell_angle_gamma                90
_cell_volume                     2615.3
loop_
_atom_site_label
_atom_site_type_symbol
_atom_site_fract_x
_atom_site_fract_y
_atom_site_fract_z
Cd1 Cd 0.14455(3) 0.0000 0.08551(5)
Cd2 Cd 0.03061(4) 0.0000 0.36536(5)
Cd3 Cd 0.43352(3) 0.0000 0.15054(5)
N1 N 0.3156(4) 0.0000 0.1253(6)
C1 C 0.2589(5) 0.0000 0.1137(7)
N2 N 0.1258(5) 0.0000 0.5991(6)
C2 C 0.0930(5) 0.0000 0.5191(6)
N3 N 0.1046(5) 0.0000 0.2820(7)
C3 C 0.1233(6) 0.0000 0.2191(8)
N4 N 0.4606(3) 0.1867(7) 0.2619(4)
C4 C -0.0186(4) -0.2084(8) 0.3016(5)
N5 N 0.4111(3) 0.1858(7) 0.0298(4)
C5 C 0.1043(3) -0.2053(7) 0.0072(5)
N6 N 0.5487(4) 0.0000 0.1565(6)
C6 C 0.6040(6) 0.0000 0.2499(8)
C7 C 0.6755(7) 0.048(2) 0.2590(9)
C8 C 0.7049(6) 0.034(2) 0.1970(9)
N7 N 0.7786(4) 0.0000 0.2103(6)
C9 C 0.7965(7) 0.132(2) 0.1679(9)
C5E C 0.1043(3) 0.2053(7) 0.0072(5)
C4E C -0.0186(4) 0.2084(8) 0.3016(5)
N4E N 0.4606(3) -0.1867(7) 0.2619(4)
N5E N 0.4111(3) -0.1858(7) 0.0298(4)
C4B C 0.4814(4) 0.2916(8) 0.3016(5)
N4B N -0.0394(3) -0.3133(7) 0.2619(4)
C5C C 0.3957(3) 0.2947(7) -0.0072(5)
N5C N 0.0889(3) -0.3142(7) -0.0298(4)
C7E C 0.6755(7) -0.048(2) 0.2590(9)
C8E C 0.7049(6) -0.034(2) 0.1970(9)
C9E C 0.7965(7) -0.132(2) 0.1679(9)
C10 C 0.264(1) 0.0000 0.452(2)
C11 C 0.410(1) 0.0000 0.446(2)
C12 C 0.306(1) 0.118(2) 0.458(2)
C13 C 0.3636(9) 0.106(2) 0.425(1)
F1 F 0.251(2) 0.198(3) 0.453(3)
C12E C 0.306(1) -0.118(2) 0.458(2)
C13E C 0.3636(9) -0.106(2) 0.425(1)
loop_
_geom_bond_atom_site_label_1
_geom_bond_atom_site_label_2
_geom_bond_site_symmetry_1
_geom_bond_site_symmetry_2
Cd1 C1 1_555 1_555
Cd2 C2 1_555 1_555
Cd3 N1 1_555 1_555
N1 C1 1_555 1_555
N2 C2 1_555 1_555
N3 Cd2 1_555 1_555
C3 Cd1 1_555 1_555
N4 Cd3 1_555 1_555
C4 Cd2 1_555 1_555
N5 Cd3 1_555 1_555
C5 Cd1 1_555 1_555
N6 Cd3 1_555 1_555
C6 N6 1_555 1_555
C7 C6 1_555 1_555
C8 C7 1_555 1_555
N7 C8 1_555 1_555
C9 N7 1_555 1_555
C10 C12 1_555 1_555
C11 C13 1_555 1_555
C12 C13 1_555 1_555
F1 C12 1_555 1_555
C5E Cd1 1_555 1_555
C4E Cd2 1_555 1_555
N4E Cd3 1_555 1_555
N5E Cd3 1_555 1_555
C4B N4 1_555 1_555
N4B C4 1_555 1_555
C5C N5 1_555 1_555
N5C C5 1_555 1_555
C7E C6 1_555 1_555
C8E C7 1_555 1_555
C9E N7 1_555 1_555
C12E C10 1_555 1_555
C13E C11 1_555 1_555
N3 C3 1_555 1_555
C7 C7E 1_555 1_555
C8 C7E 1_555 1_555
C8 C8E 1_555 1_555
N7 C8E 1_555 1_555
C7E C8E 1_555 1_555
C12E C13E 1_555 1_555

#END
