
#######################################################################
#
#                 Cambridge Crystallographic Data Centre
#                                CCDC 
#
#######################################################################
#
# If this CIF has been generated from an entry in the Cambridge 
# Structural Database, then it will include bibliographic, chemical, 
# crystal, experimental, refinement or atomic coordinate data resulting 
# from the CCDC's data processing and validation procedures.
#
#######################################################################

data_GAXHOE
_symmetry_cell_setting           monoclinic
_symmetry_space_group_name_H-M   'C 2/c'
_symmetry_Int_Tables_number      15
_space_group_name_Hall           '-C 2yn'
loop_
_symmetry_equiv_pos_site_id
_symmetry_equiv_pos_as_xyz
1 x,y,z
2 -x,y,1/2-z
3 1/2+x,1/2+y,z
4 1/2-x,1/2+y,1/2-z
5 -x,-y,-z
6 x,-y,1/2+z
7 1/2-x,1/2-y,-z
8 1/2+x,1/2-y,1/2+z
_cell_length_a                   36.215(4)
_cell_length_b                   13.9659(14)
_cell_length_c                   28.036(5)
_cell_angle_alpha                90
_cell_angle_beta                 125.048(4)
_cell_angle_gamma                90
_cell_volume                     11608.7
loop_
_atom_site_label
_atom_site_type_symbol
_atom_site_fract_x
_atom_site_fract_y
_atom_site_fract_z
Cu1 Cu 0.100001(16) 0.30712(3) 0.47908(2)
Cu2 Cu 0.090180(17) 0.50104(3) 0.47625(2)
Cu3 Cu 0.156027(17) 0.42372(3) 0.47042(2)
Cu4 Cu 0.160671(17) 0.41856(3) 0.57287(2)
I1 I 0.076434(9) 0.395645(16) 0.541750(12)
I2 I 0.070139(8) 0.398029(16) 0.379479(11)
I3 I 0.171120(9) 0.583518(16) 0.531167(11)
I4 I 0.190255(8) 0.275657(17) 0.543008(11)
S1 S 0.07079(3) 0.15468(6) 0.45759(4)
S2 S 0.04232(3) -0.37011(6) 0.43573(4)
S3 S 0.18886(3) 0.45038(7) 0.42237(4)
S4 S 0.20050(3) 0.55302(7) 0.17217(4)
O1 O -0.04640(11) -0.24350(19) 0.36609(13)
O2 O -0.03113(10) 0.04358(18) 0.42137(14)
O3 O 0.28379(11) 0.5537(2) 0.30928(13)
O4 O 0.26315(12) 0.5988(2) 0.43844(16)
C1 C -0.05660(14) -0.1447(3) 0.36553(19)
H1 H -0.0893 -0.1330 0.3369
H2 H -0.0397 -0.1046 0.3552
C2 C -0.04278(16) -0.1220(3) 0.4259(2)
H3 H -0.0096 -0.1287 0.4533
H4 H -0.0569 -0.1688 0.4374
C3 C -0.05630(16) -0.0219(3) 0.4306(2)
H5 H -0.0890 -0.0122 0.4010
H6 H -0.0499 -0.0119 0.4697
C4 C -0.04152(13) 0.1385(3) 0.41700(18)
C5 C -0.07312(14) 0.1759(3) 0.4253(2)
H7 H -0.0890 0.1348 0.4346
C6 C -0.08112(15) 0.2727(3) 0.4198(2)
H8 H -0.1023 0.2980 0.4262
C7 C -0.05931(15) 0.3339(3) 0.4052(2)
H9 H -0.0655 0.4007 0.4011
C8 C -0.02848(15) 0.2965(3) 0.3968(2)
H10 H -0.0130 0.3383 0.3871
C9 C -0.01919(13) 0.1992(3) 0.40196(19)
C10 C 0.01366(13) 0.1594(3) 0.39090(19)
H11 H 0.0135 0.1999 0.3618
H12 H 0.0041 0.0941 0.3745
C11 C 0.09773(14) 0.0930(2) 0.4277(2)
H13 H 0.0884 0.1234 0.3905
H14 H 0.1309 0.0993 0.4551
C12 C 0.08526(13) -0.0114(3) 0.41750(18)
C13 C 0.05632(15) -0.0488(3) 0.36189(19)
H15 H 0.0430 -0.0072 0.3292
C14 C 0.10346(15) -0.0727(3) 0.4644(2)
H16 H 0.1229 -0.0482 0.5028
C15 C 0.04655(14) -0.1460(3) 0.35338(17)
H17 H 0.0267 -0.1704 0.3150
C16 C 0.09373(14) -0.1698(3) 0.45611(18)
H18 H 0.1065 -0.2109 0.4890
C17 C 0.06582(12) -0.2078(2) 0.40088(17)
C18 C 0.05878(13) -0.3142(2) 0.39173(17)
H19 H 0.0871 -0.3442 0.4013
H20 H 0.0351 -0.3268 0.3501
C19 C -0.01317(13) -0.4240(3) 0.38213(19)
H21 H -0.0087 -0.4923 0.3773
H22 H -0.0315 -0.4215 0.3980
C20 C -0.03904(13) -0.3776(3) 0.32374(19)
C21 C -0.04647(14) -0.4252(3) 0.2753(2)
H23 H -0.0354 -0.4886 0.2796
C22 C -0.06949(16) -0.3824(4) 0.2215(2)
H24 H -0.0749 -0.4166 0.1887
C23 C -0.08460(15) -0.2901(4) 0.2151(2)
H25 H -0.0998 -0.2602 0.1780
C24 C -0.07796(15) -0.2394(3) 0.2626(2)
H26 H -0.0887 -0.1756 0.2579
C25 C -0.05553(13) -0.2837(3) 0.31617(19)
C26 C 0.29013(17) 0.5666(3) 0.3638(2)
H27 H 0.3226 0.5746 0.3951
H28 H 0.2790 0.5098 0.3731
C27 C 0.26476(17) 0.6534(3) 0.3601(2)
H29 H 0.2320 0.6415 0.3325
H30 H 0.2728 0.7076 0.3450
C28 C 0.27513(18) 0.6795(3) 0.4189(3)
H31 H 0.3076 0.6943 0.4467
H32 H 0.2575 0.7364 0.4155
C29 C 0.27860(16) 0.5943(4) 0.4955(2)
C30 C 0.29959(19) 0.6702(5) 0.5349(3)
H33 H 0.3035 0.7304 0.5226
C31 C 0.3145(2) 0.6559(7) 0.5922(3)
H34 H 0.3279 0.7078 0.6188
C32 C 0.3107(2) 0.5716(7) 0.6111(3)
H35 H 0.3222 0.5631 0.6510
C33 C 0.28929(17) 0.4952(5) 0.5715(2)
H36 H 0.2862 0.4352 0.5848
C34 C 0.27276(14) 0.5065(4) 0.5136(2)
C35 C 0.24942(14) 0.4277(3) 0.4705(2)
H37 H 0.2549 0.3664 0.4913
H38 H 0.2619 0.4221 0.4471
C36 C 0.17254(16) 0.3532(3) 0.37097(19)
H39 H 0.1915 0.2966 0.3922
H40 H 0.1408 0.3358 0.3541
C37 C 0.17714(14) 0.3772(3) 0.32214(18)
C38 C 0.15338(16) 0.4537(4) 0.2851(2)
H41 H 0.1359 0.4934 0.2924
C39 C 0.20270(14) 0.3213(3) 0.31056(18)
H42 H 0.2195 0.2690 0.3354
C40 C 0.15485(16) 0.4726(3) 0.2385(2)
H43 H 0.1383 0.5254 0.2140
C41 C 0.20403(13) 0.3407(3) 0.26308(17)
H44 H 0.2217 0.3013 0.2559
C42 C 0.17997(13) 0.4168(3) 0.22573(17)
C43 C 0.17888(14) 0.4354(3) 0.17254(17)
H45 H 0.1474 0.4296 0.1378
H46 H 0.1970 0.3857 0.1696
C44 C 0.25845(14) 0.5278(3) 0.19593(19)
H47 H 0.2576 0.5067 0.1616
H48 H 0.2759 0.5882 0.2101
C45 C 0.28328(13) 0.4533(3) 0.24293(18)
C46 C 0.29355(15) 0.3660(3) 0.2294(2)
H49 H 0.2845 0.3544 0.1907
C47 C 0.31679(17) 0.2952(3) 0.2714(2)
H50 H 0.3236 0.2359 0.2615
C48 C 0.32986(15) 0.3125(3) 0.3277(2)
H51 H 0.3457 0.2645 0.3566
C49 C 0.32028(14) 0.3976(3) 0.3420(2)
H52 H 0.3299 0.4089 0.3810
C50 C 0.29625(13) 0.4684(3) 0.29956(18)
Cu2_2 Cu 0.090180(17) -0.49896(3) 0.47625(2)
Cu4E Cu 0.160671(17) 0.58144(3) 0.07287(2)
S2_2 S 0.04232(3) 0.62989(6) 0.43573(4)
S4E S 0.20050(3) 0.44698(7) 0.67217(4)
Cl1 Cl -0.11289(19) 1.0586(2) 0.26607(16)
Cl2 Cl -0.06813(14) 1.1989(5) 0.23438(16)
C51 C -0.1064(3) 1.1688(6) 0.2531(4)
H53 H -0.0973 1.2067 0.2881
H54 H -0.1365 1.1924 0.2211
loop_
_geom_bond_atom_site_label_1
_geom_bond_atom_site_label_2
_geom_bond_site_symmetry_1
_geom_bond_site_symmetry_2
Cu1 I1 1_555 1_555
Cu2 I1 1_555 1_555
Cu3 I2 1_555 1_555
Cu4 I1 1_555 1_555
I2 Cu1 1_555 1_555
I3 Cu2 1_555 1_555
I4 Cu1 1_555 1_555
S1 Cu1 1_555 1_555
S2 C18 1_555 1_555
S3 Cu3 1_555 1_555
S4 C43 1_555 1_555
O1 C1 1_555 1_555
O2 C3 1_555 1_555
O3 C26 1_555 1_555
O4 C28 1_555 1_555
C1 H1 1_555 1_555
H2 C1 1_555 1_555
C2 C1 1_555 1_555
H3 C2 1_555 1_555
H4 C2 1_555 1_555
C3 C2 1_555 1_555
H5 C3 1_555 1_555
H6 C3 1_555 1_555
C4 O2 1_555 1_555
C5 C4 1_555 1_555
H7 C5 1_555 1_555
C6 C5 1_555 1_555
H8 C6 1_555 1_555
C7 C6 1_555 1_555
H9 C7 1_555 1_555
C8 C7 1_555 1_555
H10 C8 1_555 1_555
C9 C4 1_555 1_555
C10 S1 1_555 1_555
H11 C10 1_555 1_555
H12 C10 1_555 1_555
C11 S1 1_555 1_555
H13 C11 1_555 1_555
H14 C11 1_555 1_555
C12 C11 1_555 1_555
C13 C12 1_555 1_555
H15 C13 1_555 1_555
C14 C12 1_555 1_555
H16 C14 1_555 1_555
C15 C13 1_555 1_555
H17 C15 1_555 1_555
C16 C14 1_555 1_555
H18 C16 1_555 1_555
C17 C15 1_555 1_555
C18 C17 1_555 1_555
H19 C18 1_555 1_555
H20 C18 1_555 1_555
C19 S2 1_555 1_555
H21 C19 1_555 1_555
H22 C19 1_555 1_555
C20 C19 1_555 1_555
C21 C20 1_555 1_555
H23 C21 1_555 1_555
C22 C21 1_555 1_555
H24 C22 1_555 1_555
C23 C22 1_555 1_555
H25 C23 1_555 1_555
C24 C23 1_555 1_555
H26 C24 1_555 1_555
C25 O1 1_555 1_555
C26 H27 1_555 1_555
H28 C26 1_555 1_555
C27 C26 1_555 1_555
H29 C27 1_555 1_555
H30 C27 1_555 1_555
C28 C27 1_555 1_555
H31 C28 1_555 1_555
H32 C28 1_555 1_555
C29 O4 1_555 1_555
C30 C29 1_555 1_555
H33 C30 1_555 1_555
C31 C30 1_555 1_555
H34 C31 1_555 1_555
C32 C31 1_555 1_555
H35 C32 1_555 1_555
C33 C32 1_555 1_555
H36 C33 1_555 1_555
C34 C29 1_555 1_555
C35 S3 1_555 1_555
H37 C35 1_555 1_555
H38 C35 1_555 1_555
C36 S3 1_555 1_555
H39 C36 1_555 1_555
H40 C36 1_555 1_555
C37 C36 1_555 1_555
C38 C37 1_555 1_555
H41 C38 1_555 1_555
C39 C37 1_555 1_555
H42 C39 1_555 1_555
C40 C38 1_555 1_555
H43 C40 1_555 1_555
C41 C39 1_555 1_555
H44 C41 1_555 1_555
C42 C40 1_555 1_555
C43 C42 1_555 1_555
H45 C43 1_555 1_555
H46 C43 1_555 1_555
C44 S4 1_555 1_555
H47 C44 1_555 1_555
H48 C44 1_555 1_555
C45 C44 1_555 1_555
C46 C45 1_555 1_555
H49 C46 1_555 1_555
C47 C46 1_555 1_555
H50 C47 1_555 1_555
C48 C47 1_555 1_555
H51 C48 1_555 1_555
C49 C48 1_555 1_555
H52 C49 1_555 1_555
C50 O3 1_555 1_555
Cl1 C51 1_555 1_555
Cl2 C51 1_555 1_555
C51 H53 1_555 1_555
H54 C51 1_555 1_555
Cu2_2 S2 1_555 1_555
Cu4E S4 1_555 1_555
S2_2 Cu2 1_555 1_555
S4E Cu4 1_555 1_555
Cu2 I2 1_555 1_555
Cu3 I3 1_555 1_555
Cu3 I4 1_555 1_555
Cu4 I3 1_555 1_555
Cu4 I4 1_555 1_555
C8 C9 1_555 1_555
C9 C10 1_555 1_555
C16 C17 1_555 1_555
C20 C25 1_555 1_555
C24 C25 1_555 1_555
C33 C34 1_555 1_555
C34 C35 1_555 1_555
C41 C42 1_555 1_555
C45 C50 1_555 1_555
C49 C50 1_555 1_555

#END
