
#######################################################################
#
#                 Cambridge Crystallographic Data Centre
#                                CCDC 
#
#######################################################################
#
# If this CIF has been generated from an entry in the Cambridge 
# Structural Database, then it will include bibliographic, chemical, 
# crystal, experimental, refinement or atomic coordinate data resulting 
# from the CCDC's data processing and validation procedures.
#
#######################################################################

data_GAXHEU
_symmetry_cell_setting           monoclinic
_symmetry_space_group_name_H-M   'P 21/c'
_symmetry_Int_Tables_number      14
_space_group_name_Hall           '-P 2ybc'
loop_
_symmetry_equiv_pos_site_id
_symmetry_equiv_pos_as_xyz
1 x,y,z
2 -x,1/2+y,1/2-z
3 -x,-y,-z
4 x,1/2-y,1/2+z
_cell_length_a                   11.6776(6)
_cell_length_b                   18.6014(10)
_cell_length_c                   13.2518(7)
_cell_angle_alpha                90
_cell_angle_beta                 108.458(3)
_cell_angle_gamma                90
_cell_volume                     2730.47
loop_
_atom_site_label
_atom_site_type_symbol
_atom_site_fract_x
_atom_site_fract_y
_atom_site_fract_z
Cu1 Cu 0.306675(18) 0.085680(13) 0.754742(17)
Cl1 Cl 0.30917(4) 0.05906(3) 0.92225(4)
Cl2 Cl 0.30832(5) 0.02359(3) 0.60865(4)
S1 S 0.51628(4) 0.10228(3) 0.79508(4)
S2 S 1.09422(4) 0.09165(3) 0.70917(4)
O1 O 0.90273(13) 0.21222(8) 0.60523(12)
O2 O 0.69969(13) 0.23377(8) 0.85552(13)
C1 C 0.85968(19) 0.26741(12) 0.65925(18)
H1 H 0.8037 0.3000 0.6076
H2 H 0.9278 0.2961 0.7052
C2 C 0.79525(19) 0.22851(12) 0.72520(19)
H3 H 0.8519 0.1944 0.7732
H4 H 0.7278 0.2003 0.6775
C3 C 0.7461(2) 0.27889(12) 0.79085(18)
H5 H 0.8109 0.3103 0.8355
H6 H 0.6814 0.3095 0.7443
C4 C 0.62409(17) 0.26222(11) 0.90521(16)
C5 C 0.60890(19) 0.33509(12) 0.91834(18)
H7 H 0.6520 0.3695 0.8915
C6 C 0.5291(2) 0.35720(13) 0.97165(18)
H8 H 0.5182 0.4071 0.9812
C7 C 0.4659(2) 0.30749(14) 1.01057(19)
H9 H 0.4113 0.3230 1.0462
C8 C 0.48267(18) 0.23491(13) 0.99719(17)
H10 H 0.4395 0.2007 1.0243
C9 C 0.56134(17) 0.21120(11) 0.94498(15)
C10 C 0.58299(17) 0.13284(11) 0.93256(15)
H11 H 0.5482 0.1047 0.9792
H12 H 0.6710 0.1237 0.9557
C11 C 0.58095(16) 0.01263(10) 0.80801(16)
H13 H 0.5907 -0.0060 0.8802
H14 H 0.5249 -0.0198 0.7561
C12 C 0.70170(16) 0.01213(10) 0.78933(15)
C13 C 0.70707(17) 0.00783(11) 0.68601(16)
H15 H 0.6343 0.0078 0.6277
C14 C 0.81729(17) 0.00359(11) 0.66682(16)
H16 H 0.8190 0.0002 0.5958
C15 C 0.92452(16) 0.00433(10) 0.75052(15)
C16 C 0.91914(16) 0.00964(11) 0.85343(15)
H17 H 0.9920 0.0110 0.9115
C17 C 0.80910(17) 0.01293(11) 0.87303(15)
H18 H 0.8075 0.0157 0.9441
C18 C 1.04467(16) 0.00145(11) 0.73108(16)
H19 H 1.0378 -0.0289 0.6680
H20 H 1.1054 -0.0207 0.7932
C19 C 1.02582(18) 0.09831(11) 0.56495(16)
H21 H 1.0633 0.0625 0.5299
H22 H 0.9385 0.0874 0.5454
C20 C 1.04245(16) 0.17224(11) 0.52629(15)
C21 C 1.12004(18) 0.18485(13) 0.46766(16)
H23 H 1.1629 0.1458 0.4505
C22 C 1.1360(2) 0.25322(14) 0.43386(18)
H24 H 1.1889 0.2611 0.3933
C23 C 1.0744(2) 0.30990(14) 0.45959(19)
H25 H 1.0860 0.3571 0.4371
C24 C 0.99564(19) 0.29932(13) 0.51782(18)
H26 H 0.9536 0.3388 0.5351
C25 C 0.97927(17) 0.23019(12) 0.55036(16)
N1 N 0.29745(14) 0.20188(10) 0.72607(14)
C26 C 0.30001(18) 0.26228(12) 0.71571(17)
C27 C 0.3039(3) 0.34005(13) 0.7029(2)
Cu1_2 Cu 1.306675(18) 0.085680(13) 0.754742(17)
S2_2 S 0.09422(4) 0.09165(3) 0.70917(4)
loop_
_geom_bond_atom_site_label_1
_geom_bond_atom_site_label_2
_geom_bond_site_symmetry_1
_geom_bond_site_symmetry_2
Cu1 Cl1 1_555 1_555
Cl2 Cu1 1_555 1_555
S1 Cu1 1_555 1_555
S2 C18 1_555 1_555
O1 C1 1_555 1_555
O2 C3 1_555 1_555
C1 H1 1_555 1_555
H2 C1 1_555 1_555
C2 C1 1_555 1_555
H3 C2 1_555 1_555
H4 C2 1_555 1_555
C3 C2 1_555 1_555
H5 C3 1_555 1_555
H6 C3 1_555 1_555
C4 O2 1_555 1_555
C5 C4 1_555 1_555
H7 C5 1_555 1_555
C6 C5 1_555 1_555
H8 C6 1_555 1_555
C7 C6 1_555 1_555
H9 C7 1_555 1_555
C8 C7 1_555 1_555
H10 C8 1_555 1_555
C9 C4 1_555 1_555
C10 S1 1_555 1_555
H11 C10 1_555 1_555
H12 C10 1_555 1_555
C11 S1 1_555 1_555
H13 C11 1_555 1_555
H14 C11 1_555 1_555
C12 C11 1_555 1_555
C13 C12 1_555 1_555
H15 C13 1_555 1_555
C14 C13 1_555 1_555
H16 C14 1_555 1_555
C15 C14 1_555 1_555
C16 C15 1_555 1_555
H17 C16 1_555 1_555
C17 C12 1_555 1_555
H18 C17 1_555 1_555
C18 C15 1_555 1_555
H19 C18 1_555 1_555
H20 C18 1_555 1_555
C19 S2 1_555 1_555
H21 C19 1_555 1_555
H22 C19 1_555 1_555
C20 C19 1_555 1_555
C21 C20 1_555 1_555
H23 C21 1_555 1_555
C22 C21 1_555 1_555
H24 C22 1_555 1_555
C23 C22 1_555 1_555
H25 C23 1_555 1_555
C24 C23 1_555 1_555
H26 C24 1_555 1_555
C25 O1 1_555 1_555
N1 Cu1 1_555 1_555
C26 N1 1_555 1_555
C27 C26 1_555 1_555
Cu1_2 S2 1_555 1_555
S2_2 Cu1 1_555 1_555
C8 C9 1_555 1_555
C9 C10 1_555 1_555
C16 C17 1_555 1_555
C20 C25 1_555 1_555
C24 C25 1_555 1_555

#END
