
#######################################################################
#
#                 Cambridge Crystallographic Data Centre
#                                CCDC 
#
#######################################################################
#
# If this CIF has been generated from an entry in the Cambridge 
# Structural Database, then it will include bibliographic, chemical, 
# crystal, experimental, refinement or atomic coordinate data resulting 
# from the CCDC's data processing and validation procedures.
#
#######################################################################

data_GAXQUT
_symmetry_cell_setting           monoclinic
_symmetry_space_group_name_H-M   'P 21/n'
_symmetry_Int_Tables_number      14
_space_group_name_Hall           '-P 2yn'
loop_
_symmetry_equiv_pos_site_id
_symmetry_equiv_pos_as_xyz
1 x,y,z
2 1/2-x,1/2+y,1/2-z
3 -x,-y,-z
4 1/2+x,1/2-y,1/2+z
_cell_length_a                   17.680(4)
_cell_length_b                   12.222(2)
_cell_length_c                   20.171(4)
_cell_angle_alpha                90
_cell_angle_beta                 95.86(3)
_cell_angle_gamma                90
_cell_volume                     4335.87
loop_
_atom_site_label
_atom_site_type_symbol
_atom_site_fract_x
_atom_site_fract_y
_atom_site_fract_z
N1 N 0.5140(2) 0.2533(3) 0.5260(2)
C1 C 0.5435(3) 0.2007(4) 0.4764(3)
H1 H 0.5316 0.1272 0.4693
C2 C 0.5340(3) 0.3578(4) 0.5353(3)
H2 H 0.5157 0.3954 0.5706
O1 O 0.54492(19) 0.7096(3) 0.34066(16)
C3 C 0.4886(3) 0.6963(4) 0.2983(2)
N2 N 0.7587(2) 0.7905(4) -0.1729(2)
C4 C 0.6965(3) 0.7406(5) -0.1546(3)
H3 H 0.6796 0.6772 -0.1768
C5 C 0.7805(3) 0.8822(5) -0.1406(3)
H4 H 0.8234 0.9183 -0.1523
C6 C 0.7425(3) 0.9259(5) -0.0908(3)
H5 H 0.7592 0.9909 -0.0702
Co1 Co 0.93053(3) 0.32695(5) 0.08514(3)
Co2 Co 0.31839(4) 0.77128(7) 0.24658(3)
O2 O 0.84802(18) 0.2268(3) 0.03790(16)
O3 O 0.8583(2) 0.5153(4) -0.08104(18)
O4 O 0.91150(19) 0.4365(3) 0.00996(18)
O5 O 1.01706(19) 0.4267(3) 0.13209(17)
O6 O 0.42376(18) 0.7352(3) 0.30408(17)
C7 C 0.5035(3) 0.6316(4) 0.2372(2)
N3 N 0.8515(2) 0.3879(3) 0.1551(2)
N4 N 0.6861(3) 0.3659(4) 0.3478(2)
C8 C 0.7766(3) 0.4558(4) -0.0039(2)
O7 O 0.3180(2) 0.6134(4) 0.2090(2)
N5 N 0.3861(2) 0.8400(4) 0.1755(2)
C9 C 0.7583(3) 0.3338(4) 0.2271(3)
H6 H 0.7240 0.2812 0.2385
O8 O 0.7425(2) 0.1708(3) -0.0174(2)
N6 N 0.6739(2) 0.5214(4) 0.3987(2)
N7 N 0.6502(3) 1.0059(4) 0.0154(2)
O9 O 0.3065(2) 0.9325(3) 0.28947(19)
N8 N 0.7181(2) 0.5434(3) 0.3492(2)
O10 O 0.5109(2) 0.3793(4) 0.0447(2)
C10 C 0.7238(3) 0.4476(4) 0.3203(3)
C11 C 0.7451(3) 0.3560(4) 0.0132(2)
C12 C 0.6799(3) 0.8733(4) -0.0716(3)
C13 C 0.8547(3) 0.4679(4) -0.0272(2)
N9 N 0.6019(3) 1.0155(4) 0.0629(2)
C14 C 0.6330(3) 0.4533(4) 0.0416(2)
C15 C 0.8008(3) 0.3165(4) 0.1742(2)
H7 H 0.7937 0.2514 0.1506
C16 C 0.6723(3) 0.3569(4) 0.0341(2)
H8 H 0.6494 0.2908 0.0433
C17 C 0.5627(3) 0.9234(5) 0.0566(3)
C18 C 0.4491(3) 0.5672(4) 0.2016(2)
C19 C 0.6082(3) 0.3607(4) 0.4433(3)
C20 C 0.6645(3) 0.5516(4) 0.0240(3)
H9 H 0.6385 0.6169 0.0285
C21 C 0.6555(3) 0.4148(4) 0.3970(3)
C22 C 0.5799(3) 0.4130(4) 0.4958(3)
H10 H 0.5920 0.4860 0.5046
N10 N 0.5824(3) 0.8563(4) 0.0078(2)
C23 C 0.5571(3) 0.4463(5) 0.0682(3)
C24 C 0.4551(3) 0.8062(5) 0.0817(3)
H11 H 0.4623 0.7632 0.0448
C25 C 0.7673(3) 0.4298(4) 0.2624(3)
C26 C 0.8189(3) 0.5056(4) 0.2427(3)
H12 H 0.8263 0.5719 0.2651
C27 C 0.5014(3) 0.8963(5) 0.0977(3)
C28 C 0.4870(3) 0.9580(5) 0.1527(3)
H13 H 0.5157 1.0201 0.1643
C29 C 0.3706(4) 0.5486(5) 0.2231(3)
C30 C 0.6380(3) 0.9109(4) -0.0170(3)
C31 C 0.5397(3) 0.5165(4) 0.1254(2)
C32 C 0.4673(3) 0.5107(4) 0.1462(2)
H14 H 0.4305 0.4679 0.1224
O11 O 0.2190(2) 0.8060(5) 0.1860(2)
H15 H 0.2090 0.8803 0.1802
C33 C 0.7349(3) 0.5519(4) -0.0002(3)
H16 H 0.7548 0.6174 -0.0143
O12 O 0.3644(3) 0.4613(4) 0.2537(3)
C34 C 0.5940(3) 0.5791(5) 0.1617(3)
H17 H 0.6430 0.5828 0.1489
C35 C 0.8591(3) 0.4811(4) 0.1894(3)
H18 H 0.8935 0.5327 0.1767
C36 C 0.7814(3) 0.2442(4) 0.0098(2)
C37 C 0.5761(3) 0.6361(5) 0.2167(3)
H19 H 0.6132 0.6783 0.2406
C38 C 0.5908(3) 0.2508(5) 0.4354(3)
H20 H 0.6111 0.2106 0.4023
C39 C 0.4299(3) 0.9262(6) 0.1897(3)
H21 H 0.4215 0.9677 0.2269
C40 C 0.6567(3) 0.7789(5) -0.1045(3)
H22 H 0.6143 0.7412 -0.0929
C41 C 0.3989(3) 0.7821(5) 0.1211(3)
H23 H 0.3678 0.7223 0.1097
C42 C 0.0947(7) 0.6834(11) 0.1836(6)
H24 H 0.1120 0.6355 0.2197
H25 H 0.0668 0.6420 0.1488
H26 H 0.0624 0.7387 0.1993
C43 C 0.1679(8) 0.7413(13) 0.1547(7)
H27 H 0.1966 0.6817 0.1377
H28 H 0.1471 0.7824 0.1159
H29 H 0.6617 0.5748 0.4208
H30 H 0.6734 1.0552 0.0089
H31 H 0.3186 0.9322 0.3296
H32 H 0.2722 0.9702 0.2806
H33 H 1.0475 0.4550 0.1056
H34 H 1.0429 0.3863 0.1594
N1C N 1.0140(2) 0.2467(3) 0.0260(2)
O1A O 0.95508(19) 0.2096(3) 0.15934(16)
N2C N 0.2587(2) 0.7095(4) 0.3271(2)
Co1A Co 0.56947(3) 0.82695(5) 0.41486(3)
Co1C Co 0.43053(3) 0.17305(5) 0.58514(3)
Co2C Co 0.81839(4) 0.72872(7) -0.25342(3)
O13 O 0.5724(8) 0.2028(11) 0.1415(7)
H35 H 0.5795 0.1524 0.1178
H36 H 0.5548 0.2521 0.1140
O14 O 0.5412(10) 0.2421(15) 0.2567(8)
H37 H 0.5034 0.2265 0.2733
H38 H 0.5506 0.2303 0.2193
loop_
_geom_bond_atom_site_label_1
_geom_bond_atom_site_label_2
_geom_bond_site_symmetry_1
_geom_bond_site_symmetry_2
N1 C1 1_555 1_555
C1 H1 1_555 1_555
C2 N1 1_555 1_555
H2 C2 1_555 1_555
O1 C3 1_555 1_555
C3 O6 1_555 1_555
N2 C4 1_555 1_555
C4 H3 1_555 1_555
C5 N2 1_555 1_555
H4 C5 1_555 1_555
C6 C5 1_555 1_555
H5 C6 1_555 1_555
Co1 O2 1_555 1_555
Co2 O6 1_555 1_555
O2 C36 1_555 1_555
O3 C13 1_555 1_555
O4 Co1 1_555 1_555
O5 Co1 1_555 1_555
C7 C3 1_555 1_555
N3 Co1 1_555 1_555
N4 C10 1_555 1_555
C8 C11 1_555 1_555
O7 Co2 1_555 1_555
N5 Co2 1_555 1_555
C9 H6 1_555 1_555
O8 C36 1_555 1_555
N6 N8 1_555 1_555
N7 N9 1_555 1_555
O9 Co2 1_555 1_555
N8 C10 1_555 1_555
O10 C23 1_555 1_555
C10 C25 1_555 1_555
C11 C16 1_555 1_555
C12 C6 1_555 1_555
C13 O4 1_555 1_555
N9 C17 1_555 1_555
C14 C16 1_555 1_555
C15 N3 1_555 1_555
H7 C15 1_555 1_555
C16 H8 1_555 1_555
C17 N10 1_555 1_555
C18 C7 1_555 1_555
C19 C21 1_555 1_555
C20 C14 1_555 1_555
H9 C20 1_555 1_555
C21 N4 1_555 1_555
C22 C2 1_555 1_555
H10 C22 1_555 1_555
N10 C30 1_555 1_555
C23 C14 1_555 1_555
C24 H11 1_555 1_555
C25 C9 1_555 1_555
C26 C25 1_555 1_555
H12 C26 1_555 1_555
C27 C17 1_555 1_555
C28 C27 1_555 1_555
H13 C28 1_555 1_555
C29 O7 1_555 1_555
C30 N7 1_555 1_555
C31 C23 1_555 1_555
C32 C18 1_555 1_555
H14 C32 1_555 1_555
O11 Co2 1_555 1_555
H15 O11 1_555 1_555
C33 C8 1_555 1_555
H16 C33 1_555 1_555
O12 C29 1_555 1_555
C34 C31 1_555 1_555
H17 C34 1_555 1_555
C35 N3 1_555 1_555
H18 C35 1_555 1_555
C36 C11 1_555 1_555
C37 C7 1_555 1_555
H19 C37 1_555 1_555
C38 C1 1_555 1_555
H20 C38 1_555 1_555
C39 N5 1_555 1_555
H21 C39 1_555 1_555
C40 C4 1_555 1_555
H22 C40 1_555 1_555
C41 N5 1_555 1_555
H23 C41 1_555 1_555
C42 H24 1_555 1_555
H25 C42 1_555 1_555
H26 C42 1_555 1_555
C43 O11 1_555 1_555
H27 C43 1_555 1_555
H28 C43 1_555 1_555
O13 H35 1_555 1_555
O14 H37 1_555 1_555
H29 N6 1_555 1_555
H30 N7 1_555 1_555
H31 O9 1_555 1_555
H32 O9 1_555 1_555
H33 O5 1_555 1_555
H34 O5 1_555 1_555
H36 O13 1_555 1_555
H38 O14 1_555 1_555
N1C Co1 1_555 1_555
O1A Co1 1_555 1_555
N2C Co2 1_555 1_555
Co1A O1 1_555 1_555
Co1C N1 1_555 1_555
Co2C N2 1_555 1_555
C8 C13 1_555 1_555
C9 C15 1_555 1_555
N6 C21 1_555 1_555
C12 C30 1_555 1_555
C12 C40 1_555 1_555
C18 C29 1_555 1_555
C19 C22 1_555 1_555
C19 C38 1_555 1_555
C20 C33 1_555 1_555
C24 C27 1_555 1_555
C24 C41 1_555 1_555
C26 C35 1_555 1_555
C28 C39 1_555 1_555
C31 C32 1_555 1_555
C34 C37 1_555 1_555
C42 C43 1_555 1_555

#END
