
#######################################################################
#
#                 Cambridge Crystallographic Data Centre
#                                CCDC 
#
#######################################################################
#
# If this CIF has been generated from an entry in the Cambridge 
# Structural Database, then it will include bibliographic, chemical, 
# crystal, experimental, refinement or atomic coordinate data resulting 
# from the CCDC's data processing and validation procedures.
#
#######################################################################

data_GAXQAZ
_symmetry_cell_setting           monoclinic
_symmetry_space_group_name_H-M   'C c'
_symmetry_Int_Tables_number      9
_space_group_name_Hall           'C -2yc'
loop_
_symmetry_equiv_pos_site_id
_symmetry_equiv_pos_as_xyz
1 x,y,z
2 x,-y,1/2+z
3 1/2+x,1/2+y,z
4 1/2+x,1/2-y,1/2+z
_cell_length_a                   7.7981(6)
_cell_length_b                   16.0351(14)
_cell_length_c                   16.4278(13)
_cell_angle_alpha                90
_cell_angle_beta                 103.2430(10)
_cell_angle_gamma                90
_cell_volume                     1999.56
loop_
_atom_site_label
_atom_site_type_symbol
_atom_site_fract_x
_atom_site_fract_y
_atom_site_fract_z
Zn1 Zn 1.12709(7) 0.18669(4) 0.44747(6)
O1 O 0.9840(6) 0.2843(4) 0.4090(5)
O2 O 0.7675(13) 0.2143(8) 0.3628(13)
O3 O -0.0285(8) 0.3676(4) 0.0523(4)
O4 O -0.2003(6) 0.2578(3) 0.0347(4)
N1 N 1.0126(6) 0.0855(3) 0.4856(3)
N2 N 0.8233(6) -0.0048(3) 0.5122(3)
N3 N 0.3844(6) -0.0823(3) 0.7755(3)
N4 N 0.2173(6) -0.1321(3) 0.8551(3)
C1 C 0.8498(7) 0.0737(4) 0.4948(4)
H1 H 0.7652 0.1155 0.4896
C2 C 1.0905(9) 0.0083(5) 0.4986(5)
H2 H 1.2058 -0.0040 0.4961
C3 C 0.9761(10) -0.0456(5) 0.5153(5)
H3 H 0.9967 -0.1019 0.5272
C4 C 0.6641(9) -0.0385(4) 0.5353(4)
H4 H 0.6396 -0.0939 0.5118
H5 H 0.5638 -0.0032 0.5120
C5 C 0.6896(9) -0.0426(4) 0.6290(4)
H6 H 0.7354 0.0104 0.6531
H7 H 0.7758 -0.0853 0.6510
C6 C 0.5193(9) -0.0618(5) 0.6546(5)
H8 H 0.4315 -0.0205 0.6306
H9 H 0.4761 -0.1160 0.6326
C7 C 0.5444(8) -0.0621(5) 0.7475(4)
H10 H 0.6350 -0.1024 0.7711
H11 H 0.5857 -0.0076 0.7689
C8 C 0.3774(8) -0.1310(4) 0.8403(4)
H12 H 0.4729 -0.1606 0.8714
C9 C 0.1183(8) -0.0805(4) 0.7952(4)
H13 H -0.0008 -0.0691 0.7895
C10 C 0.2177(8) -0.0495(4) 0.7469(4)
H14 H 0.1821 -0.0128 0.7024
C11 C 0.8362(9) 0.2775(6) 0.3706(5)
C12 C 0.7440(9) 0.3533(5) 0.3265(6)
H15 H 0.8148 0.3758 0.2902
H16 H 0.7375 0.3954 0.3681
C13 C 0.5586(9) 0.3371(4) 0.2744(5)
C14 C 0.5310(11) 0.3045(5) 0.1961(6)
H17 H 0.6253 0.2980 0.1708
C15 C 0.3583(12) 0.2804(5) 0.1524(5)
H18 H 0.3409 0.2575 0.0991
C16 C 0.2183(10) 0.2907(4) 0.1885(6)
C17 C 0.2500(9) 0.3253(5) 0.2642(6)
H19 H 0.1559 0.3338 0.2893
C18 C 0.4154(9) 0.3490(5) 0.3069(5)
H20 H 0.4297 0.3738 0.3592
C19 C 0.0411(11) 0.2565(6) 0.1496(7)
H21 H -0.0306 0.2597 0.1906
H22 H 0.0548 0.1979 0.1378
C20 C -0.0612(10) 0.2983(4) 0.0687(5)
Zn1A Zn 0.12709(7) -0.18669(4) 0.94747(6)
Zn1C Zn -0.37291(7) 0.31331(4) -0.05253(6)
O4C O 1.2997(6) 0.2422(3) 0.5347(4)
N4A N 1.2173(6) 0.1321(3) 0.3551(3)
loop_
_geom_bond_atom_site_label_1
_geom_bond_atom_site_label_2
_geom_bond_site_symmetry_1
_geom_bond_site_symmetry_2
Zn1 O1 1_555 1_555
O1 C11 1_555 1_555
O2 C11 1_555 1_555
O3 C20 1_555 1_555
O4 C20 1_555 1_555
N1 Zn1 1_555 1_555
N2 C1 1_555 1_555
N3 C7 1_555 1_555
N4 C8 1_555 1_555
C1 N1 1_555 1_555
H1 C1 1_555 1_555
C2 N1 1_555 1_555
H2 C2 1_555 1_555
C3 N2 1_555 1_555
H3 C3 1_555 1_555
C4 N2 1_555 1_555
H4 C4 1_555 1_555
H5 C4 1_555 1_555
C5 C4 1_555 1_555
H6 C5 1_555 1_555
H7 C5 1_555 1_555
C6 C5 1_555 1_555
H8 C6 1_555 1_555
H9 C6 1_555 1_555
C7 C6 1_555 1_555
H10 C7 1_555 1_555
H11 C7 1_555 1_555
C8 N3 1_555 1_555
H12 C8 1_555 1_555
C9 N4 1_555 1_555
H13 C9 1_555 1_555
C10 N3 1_555 1_555
H14 C10 1_555 1_555
C11 C12 1_555 1_555
C12 H15 1_555 1_555
H16 C12 1_555 1_555
C13 C12 1_555 1_555
C14 C13 1_555 1_555
H17 C14 1_555 1_555
C15 C14 1_555 1_555
H18 C15 1_555 1_555
C16 C15 1_555 1_555
C17 C16 1_555 1_555
H19 C17 1_555 1_555
C18 C13 1_555 1_555
H20 C18 1_555 1_555
C19 C16 1_555 1_555
H21 C19 1_555 1_555
H22 C19 1_555 1_555
C20 C19 1_555 1_555
Zn1A N4 1_555 1_555
Zn1C O4 1_555 1_555
O4C Zn1 1_555 1_555
N4A Zn1 1_555 1_555
C2 C3 1_555 1_555
C9 C10 1_555 1_555
C17 C18 1_555 1_555

#END
