
#######################################################################
#
#                 Cambridge Crystallographic Data Centre
#                                CCDC 
#
#######################################################################
#
# If this CIF has been generated from an entry in the Cambridge 
# Structural Database, then it will include bibliographic, chemical, 
# crystal, experimental, refinement or atomic coordinate data resulting 
# from the CCDC's data processing and validation procedures.
#
#######################################################################

data_GAXWAF
_symmetry_cell_setting           monoclinic
_symmetry_space_group_name_H-M   'P 21/n'
_symmetry_Int_Tables_number      14
_space_group_name_Hall           '-P 2yn'
loop_
_symmetry_equiv_pos_site_id
_symmetry_equiv_pos_as_xyz
1 x,y,z
2 1/2-x,1/2+y,1/2-z
3 -x,-y,-z
4 1/2+x,1/2-y,1/2+z
_cell_length_a                   10.4064(5)
_cell_length_b                   18.5332(9)
_cell_length_c                   14.4984(8)
_cell_angle_alpha                90
_cell_angle_beta                 100.153(5)
_cell_angle_gamma                90
_cell_volume                     2752.43
loop_
_atom_site_label
_atom_site_type_symbol
_atom_site_fract_x
_atom_site_fract_y
_atom_site_fract_z
Sr1 Sr 1.10654(3) 0.69530(2) 0.31751(3)
Zn1 Zn 1.19417(4) 0.81875(2) 0.55600(3)
C1 C 1.3167(4) 0.9716(2) 0.7708(3)
C2 C 1.3766(5) 0.9729(2) 0.8631(3)
H1 H 1.4161 0.9313 0.8907
C3 C 1.3787(4) 1.0353(2) 0.9151(3)
H2 H 1.4154 1.0346 0.9784
C4 C 1.3271(4) 1.0984(2) 0.8744(3)
C5 C 1.2668(5) 1.0974(2) 0.7818(3)
H3 H 1.2298 1.1393 0.7534
C6 C 1.2613(4) 1.0338(2) 0.7313(3)
H4 H 1.2191 1.0333 0.6692
C7 C 1.3126(4) 0.9027(2) 0.7145(3)
C8 C 1.3377(4) 1.1669(2) 0.9313(3)
C9 C 0.7967(4) 0.8105(2) 0.4389(3)
C10 C 0.7222(4) 0.7643(2) 0.3760(3)
H5 H 0.7609 0.7381 0.3335
C11 C 0.5892(4) 0.7572(3) 0.3765(3)
H6 H 0.5401 0.7251 0.3353
C12 C 0.5293(4) 0.7968(2) 0.4369(3)
C13 C 0.6026(4) 0.8432(3) 0.4983(3)
H7 H 0.5628 0.8706 0.5390
C14 C 0.7372(4) 0.8498(3) 0.5000(3)
H8 H 0.7864 0.8808 0.5427
C15 C 0.9414(4) 0.8158(2) 0.4409(3)
C16 C 0.3852(4) 0.7877(3) 0.4373(3)
C17 C 1.2384(11) 0.5348(5) 0.2179(6)
C18 C 1.1246(6) 0.4795(4) 0.1641(6)
H9 H 1.1636 0.4449 0.1281
H10 H 1.0596 0.5067 0.1232
H11 H 1.0844 0.4547 0.2098
C19 C 1.4440(6) 0.5765(4) 0.2517(6)
H12 H 1.4048 0.6103 0.2886
H13 H 1.4828 0.6021 0.2060
H14 H 1.5100 0.5494 0.2918
C20 C 1.3794(7) 0.4666(4) 0.1392(6)
H15 H 1.3092 0.4362 0.1099
H16 H 1.4444 0.4376 0.1775
H17 H 1.4176 0.4905 0.0919
C21 C 1.2047(9) 0.8147(4) 0.1443(5)
C22 C 1.3571(7) 0.8079(4) 0.1481(6)
H18 H 1.3857 0.8447 0.1098
H19 H 1.3768 0.7613 0.1252
H20 H 1.4014 0.8135 0.2116
C23 C 1.0053(7) 0.8686(6) 0.0939(7)
H21 H 0.9773 0.8309 0.1313
H22 H 0.9617 0.8634 0.0301
H23 H 0.9842 0.9147 0.1175
C24 C 1.2109(11) 0.9166(5) 0.0420(7)
H24 H 1.3026 0.9063 0.0500
H25 H 1.1985 0.9646 0.0635
H26 H 1.1727 0.9126 -0.0231
O1 O 1.3924(3) 0.85425(16) 0.7419(2)
O2 O 1.2242(3) 0.89956(16) 0.6434(2)
O3 O 1.2946(3) 1.22341(15) 0.8874(2)
O4 O 1.3902(3) 1.16426(17) 1.0153(2)
O5 O 1.0091(2) 0.84043(17) 0.5156(2)
O6 O 0.9870(3) 0.79585(16) 0.3711(2)
O7 O 0.3353(3) 0.83251(18) 0.4872(2)
O8 O 0.3260(3) 0.7401(2) 0.3899(3)
O9 O 1.2021(4) 0.5829(2) 0.2678(3)
O10 O 1.1489(5) 0.7711(3) 0.1899(3)
N1 N 1.3294(9) 0.5201(4) 0.1973(5)
N2 N 1.1465(7) 0.8636(4) 0.0979(5)
Sr1_2 Sr 0.10654(3) 0.69530(2) 0.31751(3)
Sr1A Sr 1.39346(3) 1.19530(2) 1.18249(3)
Sr1C Sr 1.60654(3) 0.80470(2) 0.81751(3)
Zn1_2 Zn 0.19417(4) 0.81875(2) 0.55600(3)
Zn1A Zn 1.30583(4) 1.31875(2) 0.94400(3)
O1C O 0.8924(3) 0.64575(16) 0.2419(2)
O3A O 1.2054(3) 0.72341(15) 0.6126(2)
O4A O 1.1098(3) 0.66426(17) 0.4847(2)
O7_2 O 1.3353(3) 0.83251(18) 0.4872(2)
O8_2 O 1.3260(3) 0.7401(2) 0.3899(3)
loop_
_geom_bond_atom_site_label_1
_geom_bond_atom_site_label_2
_geom_bond_site_symmetry_1
_geom_bond_site_symmetry_2
Sr1 O6 1_555 1_555
Zn1 O2 1_555 1_555
C1 C2 1_555 1_555
C2 H1 1_555 1_555
C3 C2 1_555 1_555
H2 C3 1_555 1_555
C4 C3 1_555 1_555
C5 C4 1_555 1_555
H3 C5 1_555 1_555
C6 C1 1_555 1_555
H4 C6 1_555 1_555
C7 C1 1_555 1_555
C8 C4 1_555 1_555
C9 C10 1_555 1_555
C10 H5 1_555 1_555
C11 C10 1_555 1_555
H6 C11 1_555 1_555
C12 C11 1_555 1_555
C13 C12 1_555 1_555
H7 C13 1_555 1_555
C14 C9 1_555 1_555
H8 C14 1_555 1_555
C15 C9 1_555 1_555
C16 C12 1_555 1_555
C17 C18 1_555 1_555
C18 H9 1_555 1_555
H10 C18 1_555 1_555
H11 C18 1_555 1_555
C19 H12 1_555 1_555
H13 C19 1_555 1_555
H14 C19 1_555 1_555
C20 H15 1_555 1_555
H16 C20 1_555 1_555
H17 C20 1_555 1_555
C21 C22 1_555 1_555
C22 H18 1_555 1_555
H19 C22 1_555 1_555
H20 C22 1_555 1_555
C23 H21 1_555 1_555
H22 C23 1_555 1_555
H23 C23 1_555 1_555
C24 H24 1_555 1_555
H25 C24 1_555 1_555
H26 C24 1_555 1_555
O1 C7 1_555 1_555
O2 C7 1_555 1_555
O3 C8 1_555 1_555
O4 C8 1_555 1_555
O5 Zn1 1_555 1_555
O6 C15 1_555 1_555
O7 C16 1_555 1_555
O8 C16 1_555 1_555
O9 Sr1 1_555 1_555
O10 Sr1 1_555 1_555
N1 C17 1_555 1_555
N2 C21 1_555 1_555
Sr1_2 O8 1_555 1_555
Sr1A O4 1_555 1_555
Sr1C O1 1_555 1_555
Zn1_2 O7 1_555 1_555
Zn1A O3 1_555 1_555
O1C Sr1 1_555 1_555
O3A Zn1 1_555 1_555
O4A Sr1 1_555 1_555
O7_2 Zn1 1_555 1_555
O8_2 Sr1 1_555 1_555
C5 C6 1_555 1_555
C13 C14 1_555 1_555
C15 O5 1_555 1_555
C17 O9 1_555 1_555
C19 N1 1_555 1_555
C20 N1 1_555 1_555
C21 O10 1_555 1_555
C23 N2 1_555 1_555
C24 N2 1_555 1_555

#END
