
#######################################################################
#
#                 Cambridge Crystallographic Data Centre
#                                CCDC 
#
#######################################################################
#
# If this CIF has been generated from an entry in the Cambridge 
# Structural Database, then it will include bibliographic, chemical, 
# crystal, experimental, refinement or atomic coordinate data resulting 
# from the CCDC's data processing and validation procedures.
#
#######################################################################

data_GAXXAG
_symmetry_cell_setting           monoclinic
_symmetry_space_group_name_H-M   'P 21/c'
_symmetry_Int_Tables_number      14
_space_group_name_Hall           '-P 2ybc'
loop_
_symmetry_equiv_pos_site_id
_symmetry_equiv_pos_as_xyz
1 x,y,z
2 -x,1/2+y,1/2-z
3 -x,-y,-z
4 x,1/2-y,1/2+z
_cell_length_a                   10.9008(2)
_cell_length_b                   24.1824(5)
_cell_length_c                   20.8565(6)
_cell_angle_alpha                90
_cell_angle_beta                 91.678(2)
_cell_angle_gamma                90
_cell_volume                     5495.57
loop_
_atom_site_label
_atom_site_type_symbol
_atom_site_fract_x
_atom_site_fract_y
_atom_site_fract_z
Pb1 Pb 0.98332(3) 0.567280(15) 0.561277(19)
Pb2 Pb 0.65964(3) 0.546940(14) 0.477260(19)
Cu1 Cu 0.71625(10) 1.05036(4) 0.49769(6)
O1 O 0.7956(7) 0.6438(3) 0.5197(4)
O2 O 0.9811(6) 0.6631(3) 0.5583(4)
O3 O 1.2790(7) 1.0433(3) 0.1338(4)
O4 O 1.1066(8) 1.0460(3) 0.0781(4)
O5 O 0.7622(6) 1.4540(3) 0.4884(4)
O6 O 0.5655(6) 1.4544(3) 0.4594(4)
O7 O 0.1242(7) 1.0804(3) 0.8444(3)
O8 O 0.2596(7) 1.0320(3) 0.9007(4)
O9 O 1.1421(7) 0.5881(4) 0.6395(4)
O10 O 0.4811(9) 0.5913(6) 0.3900(8)
N1 N 0.8252(6) 0.9955(3) 0.4558(4)
N2 N 0.7629(6) 1.1071(3) 0.4335(4)
N3 N 0.6241(6) 1.1073(3) 0.5457(4)
N4 N 0.6564(6) 0.9917(3) 0.5566(4)
N5 N 1.2018(9) 0.6315(4) 0.7306(6)
C1 C 0.8762(11) 0.6764(4) 0.5370(6)
C2 C 0.8473(9) 0.7380(4) 0.5327(5)
C3 C 0.9355(9) 0.7760(4) 0.5511(5)
H1 H 1.0115 0.7640 0.5672
C4 C 0.9112(8) 0.8321(4) 0.5457(5)
H2 H 0.9728 0.8574 0.5564
C5 C 0.7981(8) 0.8514(4) 0.5249(5)
C6 C 0.7096(9) 0.8126(4) 0.5069(5)
H3 H 0.6328 0.8245 0.4920
C7 C 0.7339(9) 0.7568(4) 0.5107(5)
H4 H 0.6734 0.7315 0.4984
C8 C 0.7739(8) 0.9125(4) 0.5174(4)
C9 C 0.8434(8) 0.9420(4) 0.4733(5)
C10 C 0.9384(8) 0.9184(4) 0.4339(5)
H5 H 0.9707 0.8829 0.4370
C11 C 0.9698(9) 0.9575(4) 0.3928(5)
H6 H 1.0289 0.9542 0.3617
C12 C 0.8990(8) 1.0049(4) 0.4041(5)
C13 C 0.8956(8) 1.0513(3) 0.3650(5)
C14 C 0.9668(9) 1.0507(3) 0.3047(5)
C15 C 1.0954(9) 1.0494(4) 0.3067(5)
H7 H 1.1387 1.0497 0.3458
C16 C 1.1563(10) 1.0476(4) 0.2502(6)
H8 H 1.2416 1.0463 0.2515
C17 C 1.0941(10) 1.0478(4) 0.1910(5)
C18 C 1.1626(12) 1.0460(4) 0.1299(7)
C19 C 0.9693(9) 1.0510(4) 0.1899(5)
H9 H 0.9259 1.0533 0.1510
C20 C 0.9069(9) 1.0509(4) 0.2471(5)
H10 H 0.8215 1.0510 0.2456
C21 C 0.8294(8) 1.0988(4) 0.3800(5)
C22 C 0.8335(9) 1.1494(4) 0.3442(5)
H11 H 0.8704 1.1544 0.3049
C23 C 0.7745(8) 1.1885(4) 0.3775(5)
H12 H 0.7647 1.2255 0.3664
C24 C 0.7303(8) 1.1617(4) 0.4330(5)
C25 C 0.6749(8) 1.1903(4) 0.4837(5)
C26 C 0.6685(8) 1.2512(3) 0.4798(4)
C27 C 0.7591(9) 1.2821(4) 0.5067(6)
H13 H 0.8247 1.2641 0.5272
C28 C 0.7592(10) 1.3388(4) 0.5053(6)
H14 H 0.8247 1.3582 0.5241
C29 C 0.6633(8) 1.3675(4) 0.4763(5)
C30 C 0.6630(9) 1.4290(4) 0.4747(5)
C31 C 0.5664(9) 1.3370(4) 0.4484(5)
H15 H 0.4993 1.3547 0.4290
C32 C 0.5730(9) 1.2791(4) 0.4502(6)
H16 H 0.5100 1.2588 0.4306
C33 C 0.6252(8) 1.1643(4) 0.5355(5)
C34 C 0.5639(8) 1.1911(4) 0.5865(5)
H17 H 0.5551 1.2291 0.5918
C35 C 0.5215(9) 1.1521(4) 0.6253(5)
H18 H 0.4763 1.1580 0.6618
C36 C 0.5579(8) 1.0992(4) 0.6006(5)
C37 C 0.5296(8) 1.0483(4) 0.6274(5)
C38 C 0.4508(9) 1.0490(4) 0.6848(5)
C39 C 0.3308(8) 1.0673(4) 0.6806(5)
H19 H 0.2967 1.0781 0.6412
C40 C 0.2618(9) 1.0696(4) 0.7344(5)
H20 H 0.1817 1.0827 0.7307
C41 C 0.3065(9) 1.0535(4) 0.7928(5)
C42 C 0.2254(11) 1.0555(4) 0.8511(6)
C43 C 0.4258(9) 1.0351(5) 0.7986(6)
H21 H 0.4593 1.0246 0.8383
C44 C 0.4949(10) 1.0328(5) 0.7437(6)
H22 H 0.5750 1.0196 0.7473
C45 C 0.5707(8) 0.9983(4) 0.6028(5)
C46 C 0.5379(10) 0.9454(4) 0.6282(6)
H23 H 0.4822 0.9384 0.6602
C47 C 0.6043(9) 0.9082(4) 0.5963(5)
H24 H 0.6002 0.8701 0.6014
C48 C 0.6818(8) 0.9365(4) 0.5537(5)
C49 C 1.1292(15) 0.5977(7) 0.6927(9)
H25 H 1.0630 0.5809 0.7121
C50 C 1.3039(17) 0.6580(8) 0.7092(10)
H26 H 1.3154 0.6487 0.6650
H27 H 1.3746 0.6465 0.7344
H28 H 1.2935 0.6972 0.7133
C51 C 1.1777(18) 0.6372(8) 0.8004(10)
H29 H 1.1025 0.6186 0.8099
H30 H 1.1708 0.6756 0.8112
H31 H 1.2441 0.6209 0.8251
Pb1A Pb 0.01668(3) 1.067280(15) 0.938723(19)
Pb2A Pb 1.34036(3) 1.046940(14) 0.022740(19)
Pb2_2 Pb 0.65964(3) 1.546940(14) 0.477260(19)
Pb2B Pb 0.34036(3) 1.453060(14) 0.522740(19)
Pb2A_2 Pb 0.34036(3) 1.046940(14) 1.022740(19)
O3A O 0.7210(7) 0.5433(3) 0.3662(4)
O4A O 0.8934(8) 0.5460(3) 0.4219(4)
O5_2 O 0.7622(6) 0.4540(3) 0.4884(4)
O6_2 O 0.5655(6) 0.4544(3) 0.4594(4)
O6B O 0.4345(6) 0.5456(3) 0.5406(4)
O7A O 0.8758(7) 0.5804(3) 0.6556(3)
O8A O 0.7404(7) 0.5320(3) 0.5993(4)
loop_
_geom_bond_atom_site_label_1
_geom_bond_atom_site_label_2
_geom_bond_site_symmetry_1
_geom_bond_site_symmetry_2
Pb1 O1 1_555 1_555
Pb2 O1 1_555 1_555
Cu1 N1 1_555 1_555
O1 C1 1_555 1_555
O2 Pb1 1_555 1_555
O3 C18 1_555 1_555
O4 C18 1_555 1_555
O5 C30 1_555 1_555
O6 C30 1_555 1_555
O7 C42 1_555 1_555
O8 C42 1_555 1_555
O9 Pb1 1_555 1_555
O10 Pb2 1_555 1_555
N1 C9 1_555 1_555
N2 Cu1 1_555 1_555
N3 Cu1 1_555 1_555
N4 Cu1 1_555 1_555
N5 C49 1_555 1_555
C1 O2 1_555 1_555
C2 C1 1_555 1_555
C3 C2 1_555 1_555
H1 C3 1_555 1_555
C4 C3 1_555 1_555
H2 C4 1_555 1_555
C5 C4 1_555 1_555
C6 C5 1_555 1_555
H3 C6 1_555 1_555
C7 C2 1_555 1_555
H4 C7 1_555 1_555
C8 C5 1_555 1_555
C9 C8 1_555 1_555
C10 C9 1_555 1_555
H5 C10 1_555 1_555
C11 C10 1_555 1_555
H6 C11 1_555 1_555
C12 N1 1_555 1_555
C13 C12 1_555 1_555
C14 C13 1_555 1_555
C15 C14 1_555 1_555
H7 C15 1_555 1_555
C16 C15 1_555 1_555
H8 C16 1_555 1_555
C17 C16 1_555 1_555
C18 C17 1_555 1_555
C19 C17 1_555 1_555
H9 C19 1_555 1_555
C20 C14 1_555 1_555
H10 C20 1_555 1_555
C21 N2 1_555 1_555
C22 C21 1_555 1_555
H11 C22 1_555 1_555
C23 C22 1_555 1_555
H12 C23 1_555 1_555
C24 N2 1_555 1_555
C25 C24 1_555 1_555
C26 C25 1_555 1_555
C27 C26 1_555 1_555
H13 C27 1_555 1_555
C28 C27 1_555 1_555
H14 C28 1_555 1_555
C29 C28 1_555 1_555
C30 C29 1_555 1_555
C31 C29 1_555 1_555
H15 C31 1_555 1_555
C32 C26 1_555 1_555
H16 C32 1_555 1_555
C33 N3 1_555 1_555
C34 C33 1_555 1_555
H17 C34 1_555 1_555
C35 C34 1_555 1_555
H18 C35 1_555 1_555
C36 N3 1_555 1_555
C37 C36 1_555 1_555
C38 C37 1_555 1_555
C39 C38 1_555 1_555
H19 C39 1_555 1_555
C40 C39 1_555 1_555
H20 C40 1_555 1_555
C41 C40 1_555 1_555
C42 C41 1_555 1_555
C43 C41 1_555 1_555
H21 C43 1_555 1_555
C44 C38 1_555 1_555
H22 C44 1_555 1_555
C45 N4 1_555 1_555
C46 C45 1_555 1_555
H23 C46 1_555 1_555
C47 C46 1_555 1_555
H24 C47 1_555 1_555
C48 N4 1_555 1_555
C49 O9 1_555 1_555
H25 C49 1_555 1_555
C50 N5 1_555 1_555
H26 C50 1_555 1_555
H27 C50 1_555 1_555
H28 C50 1_555 1_555
C51 N5 1_555 1_555
H29 C51 1_555 1_555
H30 C51 1_555 1_555
H31 C51 1_555 1_555
Pb1A O7 1_555 1_555
Pb2A O3 1_555 1_555
Pb2_2 O5 1_555 1_555
Pb2B O6 1_555 1_555
Pb2A_2 O8 1_555 1_555
O3A Pb2 1_555 1_555
O4A Pb2 1_555 1_555
O5_2 Pb2 1_555 1_555
O6_2 Pb2 1_555 1_555
O6B Pb2 1_555 1_555
O7A Pb1 1_555 1_555
O8A Pb1 1_555 1_555
Pb2 O8A 1_555 1_555
O4 Pb2A 1_555 1_555
O6 Pb2_2 1_555 1_555
O8 Pb1A 1_555 1_555
C6 C7 1_555 1_555
C8 C48 1_555 1_555
C11 C12 1_555 1_555
C13 C21 1_555 1_555
C19 C20 1_555 1_555
C23 C24 1_555 1_555
C25 C33 1_555 1_555
C31 C32 1_555 1_555
C35 C36 1_555 1_555
C37 C45 1_555 1_555
C43 C44 1_555 1_555
C47 C48 1_555 1_555

#END
