
#######################################################################
#
#                 Cambridge Crystallographic Data Centre
#                                CCDC 
#
#######################################################################
#
# If this CIF has been generated from an entry in the Cambridge 
# Structural Database, then it will include bibliographic, chemical, 
# crystal, experimental, refinement or atomic coordinate data resulting 
# from the CCDC's data processing and validation procedures.
#
#######################################################################

data_GAZKOJ
_symmetry_cell_setting           cubic
_symmetry_space_group_name_H-M   'P 21 3'
_symmetry_Int_Tables_number      198
_space_group_name_Hall           'P 2ac 2ab 3'
loop_
_symmetry_equiv_pos_site_id
_symmetry_equiv_pos_as_xyz
1 x,y,z
2 1/2-x,-y,1/2+z
3 -x,1/2+y,1/2-z
4 1/2+x,1/2-y,-z
5 z,x,y
6 1/2+z,1/2-x,-y
7 1/2-z,-x,1/2+y
8 -z,1/2+x,1/2-y
9 y,z,x
10 -y,1/2+z,1/2-x
11 1/2+y,1/2-z,-x
12 1/2-y,-z,1/2+x
_cell_length_a                   15.3148(19)
_cell_length_b                   15.3148(19)
_cell_length_c                   15.3148(19)
_cell_angle_alpha                90
_cell_angle_beta                 90
_cell_angle_gamma                90
_cell_volume                     3591.98
loop_
_atom_site_label
_atom_site_type_symbol
_atom_site_fract_x
_atom_site_fract_y
_atom_site_fract_z
Co1 Co 0.157254(18) 0.342746(18) 0.657254(18)
K1 K -0.26247(3) 0.26247(3) 0.76247(3)
C1 C 0.03656(14) 0.21021(15) 0.74482(15)
C2 C 0.00396(17) 0.12466(16) 0.70461(17)
H1 H -0.0574 0.1171 0.7183
H2 H 0.0096 0.1277 0.6416
C3 C 0.05508(17) 0.04636(16) 0.73853(18)
H3 H 0.0296 -0.0073 0.7148
C4 C 0.05302(17) 0.04247(16) 0.83876(18)
H4 H -0.0069 0.0306 0.8580
C5 C 0.08378(16) 0.12726(16) 0.87945(15)
H5 H 0.1450 0.1357 0.8629
C6 C 0.03197(16) 0.20486(16) 0.84431(17)
H6 H 0.0550 0.2584 0.8692
H7 H -0.0285 0.1994 0.8622
C7 C -0.01623(16) 0.28926(17) 0.71206(16)
O1 O 0.12612(11) 0.22502(12) 0.71895(12)
O2 O 0.14282(13) 0.05561(12) 0.70679(13)
H8 H 0.1730 0.0157 0.7259
O3 O 0.10871(15) -0.02547(13) 0.86931(14)
H9 H 0.0887 -0.0729 0.8547
O4 O 0.07978(14) 0.12366(14) 0.97283(11)
H10 H 0.0291 0.1158 0.9882
O5 O 0.02519(10) 0.35135(11) 0.67684(11)
O6 O -0.09610(12) 0.28870(14) 0.72269(15)
O7 O -0.2710(2) 0.2971(2) 0.94899(18)
C8 C -0.2042(4) 0.3480(5) 0.9880(3)
H11 H -0.2315 0.4002 1.0112
H12 H -0.1821 0.3152 1.0375
C9 C -0.1369(4) 0.3730(5) 0.9425(4)
H13 H -0.0995 0.4084 0.9783
H14 H -0.1564 0.4065 0.8932
H15 H -0.1054 0.3227 0.9225
H16 H 0.147(3) 0.186(2) 0.710(2)
H17 H -0.306(3) 0.302(4) 0.960(4)
K1B K 0.26247(3) 0.76247(3) 0.73753(3)
K1C K 0.23753(3) 0.23753(3) 0.23753(3)
C1E C 0.24482(15) 0.46344(14) 0.78979(15)
C1K C 0.28979(15) 0.25518(15) 0.53656(14)
C2E C 0.20461(17) 0.49604(17) 0.87534(16)
C2K C 0.37534(16) 0.29539(17) 0.50396(17)
H1E H 0.2183 0.5574 0.8829
H1K H 0.3829 0.2817 0.4426
H2E H 0.1416 0.4904 0.8723
H2K H 0.3723 0.3584 0.5096
C3E C 0.23853(18) 0.44492(17) 0.95364(16)
C3K C 0.45364(16) 0.26147(18) 0.55508(17)
H3E H 0.2148 0.4704 1.0073
H3K H 0.5073 0.2852 0.5296
C4E C 0.33876(18) 0.44698(17) 0.95753(16)
C4K C 0.45753(16) 0.16124(18) 0.55302(17)
H4E H 0.3580 0.5069 0.9694
H4K H 0.4694 0.1420 0.4931
C5E C 0.37945(15) 0.41622(16) 0.87274(16)
C5K C 0.37274(16) 0.12055(15) 0.58378(16)
H5E H 0.3629 0.3550 0.8643
H5K H 0.3643 0.1371 0.6450
C6E C 0.34431(17) 0.46803(16) 0.79514(16)
C6K C 0.29514(16) 0.15569(17) 0.53197(16)
H6E H 0.3692 0.4450 0.7416
H6K H 0.2416 0.1308 0.5550
H7E H 0.3622 0.5285 0.8006
H7K H 0.3006 0.1378 0.4715
C7E C 0.21206(16) 0.51623(16) 0.71074(17)
C7K C 0.21074(17) 0.28794(16) 0.48377(16)
O1E O 0.21895(12) 0.37388(11) 0.77498(12)
O1K O 0.27498(12) 0.28105(12) 0.62612(11)
O2E O 0.20679(13) 0.35718(13) 0.94439(12)
O2K O 0.44439(12) 0.29321(13) 0.64282(13)
H8E H 0.2259 0.3270 0.9843
H8K H 0.4843 0.2741 0.6730
O3E O 0.36931(14) 0.39129(15) 1.02547(13)
O3K O 0.52547(13) 0.13069(14) 0.60871(15)
H9E H 0.3547 0.4113 1.0729
H9K H 0.5729 0.1453 0.5887
O4E O 0.47283(11) 0.42022(14) 0.87634(14)
O4K O 0.37634(14) 0.02717(11) 0.57978(14)
H10E H 0.4882 0.4709 0.8842
H10K H 0.3842 0.0118 0.5291
O5E O 0.17684(11) 0.47481(10) 0.64865(11)
O5K O 0.14865(11) 0.32316(11) 0.52519(10)
O6E O 0.22269(15) 0.59610(12) 0.71130(14)
O6K O 0.21130(14) 0.27731(15) 0.40390(12)
O6F O -0.22269(15) 0.09610(12) 0.78870(14)
O6I O -0.28870(14) 0.22269(15) 0.59610(12)
O7F O -0.44899(18) 0.2710(2) 0.7971(2)
O7I O -0.2971(2) 0.44899(18) 0.7710(2)
C8F C -0.4880(3) 0.2042(4) 0.8480(5)
C8I C -0.3480(5) 0.4880(3) 0.7042(4)
H11F H -0.5112 0.2315 0.9002
H11I H -0.4002 0.5112 0.7315
H12F H -0.5375 0.1821 0.8152
H12I H -0.3152 0.5375 0.6821
C9F C -0.4425(4) 0.1369(4) 0.8730(5)
C9I C -0.3730(5) 0.4425(4) 0.6369(4)
H13F H -0.4783 0.0995 0.9084
H13I H -0.4084 0.4783 0.5995
H14F H -0.3932 0.1564 0.9065
H14I H -0.4065 0.3932 0.6564
H15F H -0.4225 0.1054 0.8227
H15I H -0.3227 0.4225 0.6054
H16E H 0.210(2) 0.353(3) 0.814(2)
H16K H 0.314(2) 0.290(2) 0.647(3)
H17F H -0.460(4) 0.306(3) 0.802(4)
H17I H -0.302(4) 0.460(4) 0.806(3)
loop_
_geom_bond_atom_site_label_1
_geom_bond_atom_site_label_2
_geom_bond_site_symmetry_1
_geom_bond_site_symmetry_2
Co1 O1 1_555 1_555
K1 O6 1_555 1_555
C1 C2 1_555 1_555
C2 H1 1_555 1_555
H2 C2 1_555 1_555
C3 C2 1_555 1_555
H3 C3 1_555 1_555
C4 C3 1_555 1_555
H4 C4 1_555 1_555
C5 C4 1_555 1_555
H5 C5 1_555 1_555
C6 C1 1_555 1_555
H6 C6 1_555 1_555
H7 C6 1_555 1_555
C7 C1 1_555 1_555
O1 C1 1_555 1_555
O2 C3 1_555 1_555
H8 O2 1_555 1_555
O3 C4 1_555 1_555
H9 O3 1_555 1_555
O4 C5 1_555 1_555
H10 O4 1_555 1_555
O5 Co1 1_555 1_555
O6 C7 1_555 1_555
O7 K1 1_555 1_555
C8 O7 1_555 1_555
H11 C8 1_555 1_555
H12 C8 1_555 1_555
C9 C8 1_555 1_555
H13 C9 1_555 1_555
H14 C9 1_555 1_555
H15 C9 1_555 1_555
H16 O1 1_555 1_555
H17 O7 1_555 1_555
K1B O6E 1_555 1_555
K1C O6K 1_555 1_555
C1E C2E 1_555 1_555
C1K C2K 1_555 1_555
C2E H1E 1_555 1_555
C2K H1K 1_555 1_555
H2E C2E 1_555 1_555
H2K C2K 1_555 1_555
C3E C2E 1_555 1_555
C3K C2K 1_555 1_555
H3E C3E 1_555 1_555
H3K C3K 1_555 1_555
C4E C3E 1_555 1_555
C4K C3K 1_555 1_555
H4E C4E 1_555 1_555
H4K C4K 1_555 1_555
C5E C4E 1_555 1_555
C5K C4K 1_555 1_555
H5E C5E 1_555 1_555
H5K C5K 1_555 1_555
C6E C1E 1_555 1_555
C6K C1K 1_555 1_555
H6E C6E 1_555 1_555
H6K C6K 1_555 1_555
H7E C6E 1_555 1_555
H7K C6K 1_555 1_555
C7E C1E 1_555 1_555
C7K C1K 1_555 1_555
O1E Co1 1_555 1_555
O1K Co1 1_555 1_555
O2E C3E 1_555 1_555
O2K C3K 1_555 1_555
H8E O2E 1_555 1_555
H8K O2K 1_555 1_555
O3E C4E 1_555 1_555
O3K C4K 1_555 1_555
H9E O3E 1_555 1_555
H9K O3K 1_555 1_555
O4E C5E 1_555 1_555
O4K C5K 1_555 1_555
H10E O4E 1_555 1_555
H10K O4K 1_555 1_555
O5E Co1 1_555 1_555
O5K Co1 1_555 1_555
O6E C7E 1_555 1_555
O6K C7K 1_555 1_555
O6F K1 1_555 1_555
O6I K1 1_555 1_555
O7F K1 1_555 1_555
O7I K1 1_555 1_555
C8F O7F 1_555 1_555
C8I O7I 1_555 1_555
H11F C8F 1_555 1_555
H11I C8I 1_555 1_555
H12F C8F 1_555 1_555
H12I C8I 1_555 1_555
C9F C8F 1_555 1_555
C9I C8I 1_555 1_555
H13F C9F 1_555 1_555
H13I C9I 1_555 1_555
H14F C9F 1_555 1_555
H14I C9I 1_555 1_555
H15F C9F 1_555 1_555
H15I C9I 1_555 1_555
H16E O1E 1_555 1_555
H16K O1K 1_555 1_555
H17F O7F 1_555 1_555
H17I O7I 1_555 1_555
C5 C6 1_555 1_555
C7 O5 1_555 1_555
C1E O1E 1_555 1_555
C1K O1K 1_555 1_555
C5E C6E 1_555 1_555
C5K C6K 1_555 1_555
C7E O5E 1_555 1_555
C7K O5K 1_555 1_555

#END
