
#######################################################################
#
#                 Cambridge Crystallographic Data Centre
#                                CCDC 
#
#######################################################################
#
# If this CIF has been generated from an entry in the Cambridge 
# Structural Database, then it will include bibliographic, chemical, 
# crystal, experimental, refinement or atomic coordinate data resulting 
# from the CCDC's data processing and validation procedures.
#
#######################################################################

data_GAZSUX
_symmetry_cell_setting           triclinic
_symmetry_space_group_name_H-M   'P -1'
_symmetry_Int_Tables_number      2
_space_group_name_Hall           '-P 1'
loop_
_symmetry_equiv_pos_site_id
_symmetry_equiv_pos_as_xyz
1 x,y,z
2 -x,-y,-z
_cell_length_a                   10.119(2)
_cell_length_b                   12.370(3)
_cell_length_c                   12.962(3)
_cell_angle_alpha                103.19(3)
_cell_angle_beta                 111.06(3)
_cell_angle_gamma                109.30(3)
_cell_volume                     1313.47
loop_
_atom_site_label
_atom_site_type_symbol
_atom_site_fract_x
_atom_site_fract_y
_atom_site_fract_z
Cu1 Cu 0.12838(4) 0.11542(3) 0.55936(3)
I1 I 0.16886(2) -0.088121(18) 0.525253(17)
N1 N 0.2335(2) 0.2142(2) 0.47963(19)
N2 N 0.2392(2) 0.2159(2) -0.25863(18)
C1 C 0.1806(3) 0.2869(3) 0.4334(2)
H5 H 0.0904 0.2906 0.4359
C2 C 0.2516(3) 0.3564(3) 0.3825(2)
H6 H 0.2099 0.4064 0.3517
C3 C 0.3832(3) 0.3537(3) 0.3761(2)
C4 C 0.4388(3) 0.2798(3) 0.4240(3)
H7 H 0.5290 0.2752 0.4225
C5 C 0.3627(3) 0.2122(3) 0.4745(3)
H8 H 0.4033 0.1624 0.5067
C6 C 0.4599(3) 0.4264(3) 0.3173(2)
H9 H 0.5734 0.4486 0.3545
H10 H 0.4496 0.5038 0.3306
C7 C 0.3836(3) 0.3514(3) 0.1819(2)
H11 H 0.3917 0.2731 0.1683
H12 H 0.2706 0.3309 0.1441
C8 C 0.4653(3) 0.4253(3) 0.1244(2)
H13 H 0.4597 0.5046 0.1402
H14 H 0.5777 0.4440 0.1611
C9 C 0.3894(3) 0.3545(2) -0.0094(2)
C10 C 0.2509(3) 0.3513(3) -0.0877(2)
H15 H 0.2045 0.3961 -0.0577
C11 C 0.1810(3) 0.2830(3) -0.2091(2)
H16 H 0.0877 0.2833 -0.2600
C12 C 0.3738(3) 0.2198(3) -0.1833(2)
H17 H 0.4183 0.1746 -0.2155
C13 C 0.4503(3) 0.2868(3) -0.0610(2)
H18 H 0.5447 0.2864 -0.0121
Cu1A Cu -0.12838(4) -0.11542(3) 0.44064(3)
Cu1_2 Cu 0.12838(4) 0.11542(3) -0.44064(3)
I1A I -0.16886(2) 0.088121(18) 0.474747(17)
N2_2 N 0.2392(2) 0.2159(2) 0.74137(18)
N3 N 0.6196(3) 0.0763(3) 0.6833(2)
H1 H 0.5229 0.0300 0.6308
H2 H 0.6728 0.0711 0.6461
C14 C 0.8776(5) 0.0338(4) 1.1368(3)
H19 H 0.8277 0.0606 1.1819
H20 H 0.9912 0.0879 1.1804
H21 H 0.8579 -0.0513 1.1263
C15 C 0.8089(4) 0.0401(3) 1.0147(3)
C16 C 0.6472(4) -0.0072(3) 0.9443(3)
H22 H 0.5784 -0.0469 0.9718
C17 C 0.5829(3) 0.0019(3) 0.8347(3)
H23 H 0.4722 -0.0308 0.7894
C18 C 0.6813(3) 0.0591(3) 0.7911(3)
C19 C 0.8437(3) 0.1052(3) 0.8603(3)
H24 H 0.9128 0.1436 0.8325
C20 C 0.9056(4) 0.0953(3) 0.9703(3)
H25 H 1.0163 0.1269 1.0156
N4 N 0.7464(3) 0.3720(3) 0.8151(3)
H3 H 0.6988 0.2968 0.7651
H4 H 0.7689 0.3886 0.8885
C21 C 1.2184(4) 0.6757(4) 0.7226(4)
H26 H 1.2222 0.6258 0.6551
H27 H 1.3227 0.7178 0.7925
H28 H 1.1864 0.7371 0.7025
C22 C 1.1001(3) 0.5926(3) 0.7498(3)
C23 C 1.0926(4) 0.6355(3) 0.8554(3)
H29 H 1.1671 0.7164 0.9130
C24 C 0.9796(4) 0.5630(3) 0.8778(3)
H30 H 0.9776 0.5954 0.9500
C25 C 0.8679(4) 0.4427(3) 0.7958(3)
C26 C 0.8753(4) 0.3982(3) 0.6914(3)
H31 H 0.8017 0.3167 0.6346
C27 C 0.9899(4) 0.4719(3) 0.6690(3)
H32 H 0.9927 0.4392 0.5973
loop_
_geom_bond_atom_site_label_1
_geom_bond_atom_site_label_2
_geom_bond_site_symmetry_1
_geom_bond_site_symmetry_2
Cu1 I1 1_555 1_555
I1 Cu1A 1_555 1_555
N1 Cu1 1_555 1_555
N2 C11 1_555 1_555
N3 H1 1_555 1_555
H2 N3 1_555 1_555
N4 H3 1_555 1_555
H4 N4 1_555 1_555
C1 N1 1_555 1_555
H5 C1 1_555 1_555
C2 C1 1_555 1_555
H6 C2 1_555 1_555
C3 C2 1_555 1_555
C4 C3 1_555 1_555
H7 C4 1_555 1_555
C5 N1 1_555 1_555
H8 C5 1_555 1_555
C6 C3 1_555 1_555
H9 C6 1_555 1_555
H10 C6 1_555 1_555
C7 C6 1_555 1_555
H11 C7 1_555 1_555
H12 C7 1_555 1_555
C8 C7 1_555 1_555
H13 C8 1_555 1_555
H14 C8 1_555 1_555
C9 C8 1_555 1_555
C10 C9 1_555 1_555
H15 C10 1_555 1_555
C11 C10 1_555 1_555
H16 C11 1_555 1_555
C12 N2 1_555 1_555
H17 C12 1_555 1_555
C13 C9 1_555 1_555
H18 C13 1_555 1_555
C14 H19 1_555 1_555
H20 C14 1_555 1_555
H21 C14 1_555 1_555
C15 C14 1_555 1_555
C16 C15 1_555 1_555
H22 C16 1_555 1_555
C17 C16 1_555 1_555
H23 C17 1_555 1_555
C18 N3 1_555 1_555
C19 C18 1_555 1_555
H24 C19 1_555 1_555
C20 C15 1_555 1_555
H25 C20 1_555 1_555
C21 H26 1_555 1_555
H27 C21 1_555 1_555
H28 C21 1_555 1_555
C22 C21 1_555 1_555
C23 C22 1_555 1_555
H29 C23 1_555 1_555
C24 C23 1_555 1_555
H30 C24 1_555 1_555
C25 N4 1_555 1_555
C26 C25 1_555 1_555
H31 C26 1_555 1_555
C27 C22 1_555 1_555
H32 C27 1_555 1_555
Cu1A I1A 1_555 1_555
Cu1_2 N2 1_555 1_555
I1A Cu1 1_555 1_555
N2_2 Cu1 1_555 1_555
C4 C5 1_555 1_555
C12 C13 1_555 1_555
C17 C18 1_555 1_555
C19 C20 1_555 1_555
C24 C25 1_555 1_555
C26 C27 1_555 1_555

#END
