
#######################################################################
#
#                 Cambridge Crystallographic Data Centre
#                                CCDC 
#
#######################################################################
#
# If this CIF has been generated from an entry in the Cambridge 
# Structural Database, then it will include bibliographic, chemical, 
# crystal, experimental, refinement or atomic coordinate data resulting 
# from the CCDC's data processing and validation procedures.
#
#######################################################################

data_GAZVAE
_symmetry_cell_setting           monoclinic
_symmetry_space_group_name_H-M   'P 1 1 21/n'
_symmetry_Int_Tables_number      14
_space_group_name_Hall           '-P 2n'
loop_
_symmetry_equiv_pos_site_id
_symmetry_equiv_pos_as_xyz
1 x,y,z
2 1/2-x,1/2-y,1/2+z
3 -x,-y,-z
4 1/2+x,1/2+y,1/2-z
_cell_length_a                   16.798(4)
_cell_length_b                   10.692(4)
_cell_length_c                   11.760(5)
_cell_angle_alpha                90
_cell_angle_beta                 90
_cell_angle_gamma                94.80(1)
_cell_volume                     2104.74
loop_
_atom_site_label
_atom_site_type_symbol
_atom_site_fract_x
_atom_site_fract_y
_atom_site_fract_z
Zn1 Zn 0.3149(1) 0.4605(1) -0.0691(1)
Zn2 Zn 0.2951(1) 0.2483(1) 0.1073(1)
S1 S 0.3674(2) 0.7523(3) -0.3487(3)
O1 O 0.3490(4) 0.4179(5) 0.0983(5)
O2 O 0.3306(4) 0.2826(5) -0.0874(5)
O3 O 0.2006(4) 0.4588(6) -0.0227(6)
O4 O 0.2476(6) 0.2692(7) -0.2291(6)
O5 O 0.1830(4) 0.2657(6) 0.0473(6)
O6 O 0.3233(4) 0.0728(6) 0.1083(6)
O7 O 0.4420(5) 0.1636(7) 0.1436(7)
N1 N 0.4004(4) 0.6131(7) -0.0483(6)
N2 N 0.4067(5) 0.6869(7) -0.1459(7)
N3 N 0.3095(5) 0.5526(7) -0.2157(7)
C1 C 0.3245(10) 0.7274(14) -0.5728(12)
C2 C 0.3109(12) 0.6564(17) -0.4610(14)
C3 C 0.3568(6) 0.6491(9) -0.2329(8)
C4 C 0.4509(5) 0.6418(8) 0.0314(9)
C5 C 0.4524(5) 0.5792(8) 0.1409(8)
C6 C 0.5081(6) 0.6279(9) 0.2184(9)
C7 C 0.5202(7) 0.5786(11) 0.3236(11)
C8 C 0.4712(7) 0.4704(10) 0.3520(9)
C9 C 0.4150(6) 0.4170(9) 0.2771(8)
C10 C 0.4036(5) 0.4710(8) 0.1687(8)
C11 C 0.1587(6) 0.3652(9) 0.0069(9)
C12 C 0.0685(8) 0.3680(15) -0.0099(15)
C13 C 0.2932(6) 0.2174(9) -0.1675(8)
C14 C 0.3055(9) 0.0842(10) -0.1879(11)
C15 C 0.3953(7) 0.0671(9) 0.1331(9)
C16 C 0.4300(10) -0.0594(15) 0.1412(19)
O4A O 0.2524(6) 0.2308(7) 0.2709(6)
Zn2A Zn 0.2049(1) 0.2517(1) -0.3927(1)
loop_
_geom_bond_atom_site_label_1
_geom_bond_atom_site_label_2
_geom_bond_site_symmetry_1
_geom_bond_site_symmetry_2
Zn1 O1 1_555 1_555
Zn2 O1 1_555 1_555
S1 C2 1_555 1_555
O1 C10 1_555 1_555
O2 Zn1 1_555 1_555
O3 Zn1 1_555 1_555
O4 C13 1_555 1_555
O5 Zn2 1_555 1_555
O6 Zn2 1_555 1_555
O7 C15 1_555 1_555
N1 Zn1 1_555 1_555
N2 N1 1_555 1_555
N3 Zn1 1_555 1_555
C1 C2 1_555 1_555
C3 S1 1_555 1_555
C4 N1 1_555 1_555
C5 C4 1_555 1_555
C6 C5 1_555 1_555
C7 C6 1_555 1_555
C8 C7 1_555 1_555
C9 C8 1_555 1_555
C10 C5 1_555 1_555
C11 O3 1_555 1_555
C12 C11 1_555 1_555
C13 O2 1_555 1_555
C14 C13 1_555 1_555
C15 O6 1_555 1_555
C16 C15 1_555 1_555
O4A Zn2 1_555 1_555
Zn2A O4 1_555 1_555
Zn2 O2 1_555 1_555
O5 C11 1_555 1_555
N2 C3 1_555 1_555
N3 C3 1_555 1_555
C9 C10 1_555 1_555

#END
