
#######################################################################
#
#                 Cambridge Crystallographic Data Centre
#                                CCDC 
#
#######################################################################
#
# If this CIF has been generated from an entry in the Cambridge 
# Structural Database, then it will include bibliographic, chemical, 
# crystal, experimental, refinement or atomic coordinate data resulting 
# from the CCDC's data processing and validation procedures.
#
#######################################################################

data_GEBZEU
_symmetry_cell_setting           tetragonal
_symmetry_space_group_name_H-M   'I -4'
_symmetry_Int_Tables_number      82
_space_group_name_Hall           'I -4'
loop_
_symmetry_equiv_pos_site_id
_symmetry_equiv_pos_as_xyz
1 x,y,z
2 -x,-y,z
3 y,-x,-z
4 -y,x,-z
5 1/2+x,1/2+y,1/2+z
6 1/2-x,1/2-y,1/2+z
7 1/2+y,1/2-x,1/2-z
8 1/2-y,1/2+x,1/2-z
_cell_length_a                   25.3340(8)
_cell_length_b                   25.3340(8)
_cell_length_c                   12.8789(8)
_cell_angle_alpha                90
_cell_angle_beta                 90
_cell_angle_gamma                90
_cell_volume                     8265.83
loop_
_atom_site_label
_atom_site_type_symbol
_atom_site_fract_x
_atom_site_fract_y
_atom_site_fract_z
Mn1 Mn 0.252023(9) 0.267190(9) 0.177777(18)
Mn2 Mn 0.181956(9) 0.255961(9) -0.072122(17)
O1 O 0.20116(4) 0.33209(5) 0.14544(9)
O2 O 0.13999(4) 0.30724(5) 0.02929(9)
O3 O 0.18615(5) 0.21338(5) 0.19860(9)
O4 O 0.17460(5) 0.19262(5) 0.03254(9)
O5 O 0.31832(4) 0.31963(4) 0.20097(9)
O6 O 0.36910(4) 0.28427(5) 0.32518(9)
O7 O 0.30516(5) 0.20104(5) 0.16447(9)
O8 O 0.31199(5) 0.17587(5) 0.32989(9)
O9 O 0.26378(4) 0.27107(4) -0.00196(8)
O10 O 0.25684(4) 0.22458(4) -0.14546(8)
C1 C 0.15895(6) 0.33852(6) 0.09628(12)
C2 C 0.12818(6) 0.38818(6) 0.11863(12)
C3 C 0.14361(7) 0.42113(7) 0.19933(13)
H1 H 0.1731 0.4120 0.2411
C4 C 0.11613(7) 0.46728(7) 0.21903(14)
H2 H 0.1266 0.4894 0.2750
C5 C 0.07354(7) 0.48144(7) 0.15780(14)
H3 H 0.0552 0.5135 0.1708
C6 C 0.05783(7) 0.44873(7) 0.07755(15)
H4 H 0.0286 0.4583 0.0354
C7 C 0.08467(7) 0.40181(7) 0.05831(13)
H5 H 0.0733 0.3791 0.0040
C8 C 0.16134(7) 0.19149(6) 0.12697(13)
C9 C 0.11234(7) 0.16022(7) 0.15294(13)
C10 C 0.09394(7) 0.15732(7) 0.25507(15)
H6 H 0.1131 0.1738 0.3096
C11 C 0.04778(8) 0.13043(8) 0.27629(18)
H7 H 0.0353 0.1284 0.3457
C12 C 0.01972(9) 0.10648(9) 0.1979(2)
H8 H -0.0122 0.0883 0.2133
C13 C 0.03768(9) 0.10877(9) 0.0978(2)
H9 H 0.0183 0.0920 0.0439
C14 C 0.08416(8) 0.13554(8) 0.07452(17)
H10 H 0.0966 0.1369 0.0050
C15 C 0.36022(6) 0.31614(6) 0.25209(12)
C16 C 0.40462(7) 0.35295(6) 0.22252(13)
C17 C 0.45163(7) 0.35374(7) 0.28039(15)
H11 H 0.4553 0.3317 0.3396
C18 C 0.49265(8) 0.38670(8) 0.25101(17)
H12 H 0.5243 0.3873 0.2906
C19 C 0.48799(8) 0.41856(8) 0.16519(17)
H13 H 0.5165 0.4407 0.1451
C20 C 0.44201(9) 0.41834(8) 0.10842(17)
H14 H 0.4387 0.4406 0.0494
C21 C 0.40019(8) 0.38561(7) 0.13718(14)
H15 H 0.3685 0.3858 0.0978
C22 C 0.32206(7) 0.17112(6) 0.23341(13)
C23 C 0.35589(7) 0.12498(6) 0.20260(13)
C24 C 0.37510(7) 0.09049(7) 0.27766(14)
H16 H 0.3675 0.0966 0.3489
C25 C 0.40522(7) 0.04740(8) 0.24919(16)
H17 H 0.4180 0.0238 0.3007
C26 C 0.41674(8) 0.03866(8) 0.14561(17)
H18 H 0.4371 0.0088 0.1259
C27 C 0.39862(9) 0.07321(8) 0.07101(17)
H19 H 0.4072 0.0675 0.0001
C28 C 0.36796(7) 0.11634(7) 0.09875(14)
H20 H 0.3553 0.1398 0.0470
C29 C 0.28492(6) 0.24422(6) -0.07422(12)
C30 C 0.34320(6) 0.23510(7) -0.07351(13)
C31 C 0.37563(7) 0.26466(8) -0.00952(13)
H21 H 0.3610 0.2913 0.0337
C32 C 0.42938(7) 0.25523(9) -0.00871(14)
H22 H 0.4519 0.2763 0.0333
C33 C 0.45057(7) 0.21534(10) -0.06869(16)
H23 H 0.4873 0.2081 -0.0657
C34 C 0.41819(8) 0.18585(9) -0.13339(15)
H24 H 0.4328 0.1588 -0.1755
C35 C 0.36439(7) 0.19600(8) -0.13651(13)
H25 H 0.3422 0.1763 -0.1815
Mn1E Mn 0.247977(9) 0.232810(9) -0.322223(18)
Mn2E Mn 0.318044(9) 0.244039(9) 0.427878(17)
O6E O 0.13090(4) 0.21573(5) -0.17482(9)
O8E O 0.18801(5) 0.32413(5) -0.17011(9)
O10E O 0.24316(4) 0.27542(4) 0.35454(8)
N1 N 0.74599(6) 0.95225(6) 0.18294(13)
C36 C 0.72654(7) 1.00259(7) 0.17035(15)
C37 C 0.72474(7) 1.02300(7) 0.07285(15)
H26 H 0.7115 1.0577 0.0629
C38 C 0.74196(7) 0.99393(7) -0.01366(14)
C39 C 0.74121(7) 1.01405(7) -0.11615(15)
H27 H 0.7292 1.0490 -0.1290
C40 C 0.75779(7) 0.98327(8) -0.19611(16)
H28 H 0.7578 0.9974 -0.2644
C41 C 0.77493(8) 0.93108(8) -0.18081(17)
H29 H 0.7855 0.9104 -0.2387
C42 C 0.77642(8) 0.91007(7) -0.08377(16)
H30 H 0.7882 0.8749 -0.0734
C43 C 0.76014(7) 0.94140(7) 0.00188(15)
C44 C 0.76130(8) 0.92274(7) 0.10390(16)
H31 H 0.7734 0.8879 0.1168
C45 C 0.70944(9) 1.03064(8) 0.26654(16)
H32 H 0.7336 1.0600 0.2806
H33 H 0.7099 1.0060 0.3252
H34 H 0.6736 1.0443 0.2570
O11 O 0.24683(6) 0.41059(6) 0.87799(12)
H35 H 0.2280 0.3833 0.8794
C46 C 0.28908(11) 0.40490(10) 0.9479(2)
H36 H 0.3098 0.4375 0.9493
H37 H 0.3116 0.3756 0.9256
H38 H 0.2753 0.3976 1.0175
loop_
_geom_bond_atom_site_label_1
_geom_bond_atom_site_label_2
_geom_bond_site_symmetry_1
_geom_bond_site_symmetry_2
Mn1 O1 1_555 1_555
Mn2 O2 1_555 1_555
O1 C1 1_555 1_555
O2 C1 1_555 1_555
O3 Mn1 1_555 1_555
O4 Mn2 1_555 1_555
O5 Mn1 1_555 1_555
O6 C15 1_555 1_555
O7 Mn1 1_555 1_555
O8 C22 1_555 1_555
O9 Mn1 1_555 1_555
O10 Mn2 1_555 1_555
N1 C36 1_555 1_555
C1 C2 1_555 1_555
C2 C3 1_555 1_555
C3 H1 1_555 1_555
C4 C3 1_555 1_555
H2 C4 1_555 1_555
C5 C4 1_555 1_555
H3 C5 1_555 1_555
C6 C5 1_555 1_555
H4 C6 1_555 1_555
C7 C2 1_555 1_555
H5 C7 1_555 1_555
C8 O3 1_555 1_555
C9 C8 1_555 1_555
C10 C9 1_555 1_555
H6 C10 1_555 1_555
C11 C10 1_555 1_555
H7 C11 1_555 1_555
C12 C11 1_555 1_555
H8 C12 1_555 1_555
C13 C12 1_555 1_555
H9 C13 1_555 1_555
C14 C9 1_555 1_555
H10 C14 1_555 1_555
C15 O5 1_555 1_555
C16 C15 1_555 1_555
C17 C16 1_555 1_555
H11 C17 1_555 1_555
C18 C17 1_555 1_555
H12 C18 1_555 1_555
C19 C18 1_555 1_555
H13 C19 1_555 1_555
C20 C19 1_555 1_555
H14 C20 1_555 1_555
C21 C16 1_555 1_555
H15 C21 1_555 1_555
C22 O7 1_555 1_555
C23 C22 1_555 1_555
C24 C23 1_555 1_555
H16 C24 1_555 1_555
C25 C24 1_555 1_555
H17 C25 1_555 1_555
C26 C25 1_555 1_555
H18 C26 1_555 1_555
C27 C26 1_555 1_555
H19 C27 1_555 1_555
C28 C23 1_555 1_555
H20 C28 1_555 1_555
C29 O9 1_555 1_555
C30 C29 1_555 1_555
C31 C30 1_555 1_555
H21 C31 1_555 1_555
C32 C31 1_555 1_555
H22 C32 1_555 1_555
C33 C32 1_555 1_555
H23 C33 1_555 1_555
C34 C33 1_555 1_555
H24 C34 1_555 1_555
C35 C30 1_555 1_555
H25 C35 1_555 1_555
C36 C37 1_555 1_555
C37 H26 1_555 1_555
C38 C37 1_555 1_555
C39 C38 1_555 1_555
H27 C39 1_555 1_555
C40 C39 1_555 1_555
H28 C40 1_555 1_555
C41 C40 1_555 1_555
H29 C41 1_555 1_555
C42 C41 1_555 1_555
H30 C42 1_555 1_555
C43 C38 1_555 1_555
C44 N1 1_555 1_555
H31 C44 1_555 1_555
C45 C36 1_555 1_555
H32 C45 1_555 1_555
H33 C45 1_555 1_555
H34 C45 1_555 1_555
O11 H35 1_555 1_555
C46 O11 1_555 1_555
H36 C46 1_555 1_555
H37 C46 1_555 1_555
H38 C46 1_555 1_555
Mn1E O10 1_555 1_555
Mn2E O6 1_555 1_555
O6E Mn2 1_555 1_555
O8E Mn2 1_555 1_555
O10E Mn1 1_555 1_555
Mn2 O9 1_555 1_555
O4 C8 1_555 1_555
O8 Mn2E 1_555 1_555
O10 C29 1_555 1_555
C6 C7 1_555 1_555
C13 C14 1_555 1_555
C20 C21 1_555 1_555
C27 C28 1_555 1_555
C34 C35 1_555 1_555
C42 C43 1_555 1_555
C43 C44 1_555 1_555
Mn2E O10E 1_555 1_555

#END
