
#######################################################################
#
#                 Cambridge Crystallographic Data Centre
#                                CCDC 
#
#######################################################################
#
# If this CIF has been generated from an entry in the Cambridge 
# Structural Database, then it will include bibliographic, chemical, 
# crystal, experimental, refinement or atomic coordinate data resulting 
# from the CCDC's data processing and validation procedures.
#
#######################################################################

data_GEBZAQ
_symmetry_cell_setting           monoclinic
_symmetry_space_group_name_H-M   'P 2/n'
_symmetry_Int_Tables_number      13
_space_group_name_Hall           '-P 2yac'
loop_
_symmetry_equiv_pos_site_id
_symmetry_equiv_pos_as_xyz
1 x,y,z
2 1/2-x,y,1/2-z
3 -x,-y,-z
4 1/2+x,-y,1/2+z
_cell_length_a                   13.013(2)
_cell_length_b                   10.9422(18)
_cell_length_c                   14.304(2)
_cell_angle_alpha                90
_cell_angle_beta                 94.946(3)
_cell_angle_gamma                90
_cell_volume                     2029.17
loop_
_atom_site_label
_atom_site_type_symbol
_atom_site_fract_x
_atom_site_fract_y
_atom_site_fract_z
Mn1 Mn 0.7500 0.75755(4) 0.7500
N1 N 0.66141(14) 0.90134(16) 0.82952(13)
N2 N 0.68909(15) 1.60685(17) 0.84475(13)
S1 S 0.47099(5) 1.20476(5) 0.95018(4)
S2 S 0.56779(5) 1.31224(5) 1.03341(4)
C1 C 0.70857(18) 0.9914(2) 0.87942(17)
H1 H 0.7817 0.9897 0.8885
C2 C 0.65759(19) 1.0870(2) 0.91878(17)
H2 H 0.6949 1.1497 0.9528
C3 C 0.55063(18) 1.0890(2) 0.90734(15)
C4 C 0.50027(18) 0.9951(2) 0.85739(15)
H3 H 0.4271 0.9935 0.8489
C5 C 0.55724(18) 0.9041(2) 0.82014(15)
H4 H 0.5216 0.8402 0.7862
C6 C 0.61111(18) 1.4252(2) 0.95610(16)
C7 C 0.58850(19) 1.4254(2) 0.85989(16)
H5 H 0.5461 1.3635 0.8303
C8 C 0.62831(18) 1.5169(2) 0.80750(16)
H6 H 0.6119 1.5163 0.7415
C9 C 0.70963(18) 1.6055(2) 0.93852(16)
H7 H 0.7518 1.6688 0.9665
C10 C 0.67327(18) 1.5180(2) 0.99657(16)
H8 H 0.6902 1.5208 1.0625
O1 O 0.87082(12) 0.78033(15) 0.86159(11)
O2 O 1.00519(14) 0.67288(16) 0.82147(12)
C11 C 0.95893(18) 0.7315(2) 0.87948(17)
C12 C 1.00982(17) 0.7469(2) 0.97716(16)
C13 C 1.0865(2) 0.6672(2) 1.01324(18)
H9 H 1.1065 0.6009 0.9759
C14 C 1.1338(2) 0.6830(3) 1.10248(18)
H10 H 1.1853 0.6270 1.1265
C15 C 1.1069(2) 0.7794(3) 1.15672(19)
H11 H 1.1396 0.7903 1.2182
C16 C 1.0326(2) 0.8599(3) 1.12150(19)
H12 H 1.0146 0.9276 1.1584
C17 C 0.9836(2) 0.8433(2) 1.03264(17)
H13 H 0.9313 0.8988 1.0096
Mn1_2 Mn 0.7500 1.75755(4) 0.7500
N1A N 0.83859(14) 0.90134(16) 0.67048(13)
N2A N 0.81091(15) 1.60685(17) 0.65525(13)
N2_2 N 0.68909(15) 0.60685(17) 0.84475(13)
N2A_2 N 0.81091(15) 0.60685(17) 0.65525(13)
S1A S 1.02901(5) 1.20476(5) 0.54982(4)
S2A S 0.93221(5) 1.31224(5) 0.46659(4)
C1A C 0.79143(18) 0.9914(2) 0.62058(17)
H1A H 0.7183 0.9897 0.6115
C2A C 0.84241(19) 1.0870(2) 0.58122(17)
H2A H 0.8051 1.1497 0.5472
C3A C 0.94937(18) 1.0890(2) 0.59266(15)
C4A C 0.99973(18) 0.9951(2) 0.64261(15)
H3A H 1.0729 0.9935 0.6511
C5A C 0.94276(18) 0.9041(2) 0.67986(15)
H4A H 0.9784 0.8402 0.7138
C6A C 0.88889(18) 1.4252(2) 0.54390(16)
C7A C 0.91150(19) 1.4254(2) 0.64011(16)
H5A H 0.9539 1.3635 0.6697
C8A C 0.87169(18) 1.5169(2) 0.69250(16)
H6A H 0.8881 1.5163 0.7585
C9A C 0.79037(18) 1.6055(2) 0.56148(16)
H7A H 0.7482 1.6688 0.5335
C10A C 0.82673(18) 1.5180(2) 0.50343(16)
H8A H 0.8098 1.5208 0.4375
O1A O 0.62918(12) 0.78033(15) 0.63841(11)
O2A O 0.49481(14) 0.67288(16) 0.67853(12)
C11A C 0.54107(18) 0.7315(2) 0.62052(17)
C12A C 0.49018(17) 0.7469(2) 0.52284(16)
C13A C 0.4135(2) 0.6672(2) 0.48676(18)
H9A H 0.3935 0.6009 0.5241
C14A C 0.3662(2) 0.6830(3) 0.39752(18)
H10A H 0.3147 0.6270 0.3735
C15A C 0.3931(2) 0.7794(3) 0.34328(19)
H11A H 0.3604 0.7903 0.2818
C16A C 0.4674(2) 0.8599(3) 0.37850(19)
H12A H 0.4854 0.9276 0.3416
C17A C 0.5164(2) 0.8433(2) 0.46736(17)
H13A H 0.5687 0.8988 0.4904
O3 O 0.2040(3) 0.2926(2) 0.81222(18)
C18 C 0.2500 0.2395(4) 0.7500
C19 C 0.2500 0.1036(3) 0.7500
C20 C 0.2147(2) 0.0398(3) 0.8249(2)
H14 H 0.1909 0.0831 0.8764
C21 C 0.2142(2) -0.0861(3) 0.8245(2)
H15 H 0.1893 -0.1297 0.8754
C22 C 0.2500 -0.1490(4) 0.7500
H16 H 0.2500 -0.2358 0.7500
O3A O 0.2960(3) 0.2926(2) 0.68778(18)
C20A C 0.2853(2) 0.0398(3) 0.6751(2)
H14A H 0.3091 0.0831 0.6236
C21A C 0.2858(2) -0.0861(3) 0.6755(2)
H15A H 0.3107 -0.1297 0.6246
O4 O 0.1678(3) 0.5302(3) 0.7946(3)
loop_
_geom_bond_atom_site_label_1
_geom_bond_atom_site_label_2
_geom_bond_site_symmetry_1
_geom_bond_site_symmetry_2
Mn1 N1 1_555 1_555
N1 C1 1_555 1_555
N2 C8 1_555 1_555
S1 S2 1_555 1_555
S2 C6 1_555 1_555
C1 H1 1_555 1_555
C2 C1 1_555 1_555
H2 C2 1_555 1_555
C3 S1 1_555 1_555
C4 C3 1_555 1_555
H3 C4 1_555 1_555
C5 N1 1_555 1_555
H4 C5 1_555 1_555
C6 C7 1_555 1_555
C7 H5 1_555 1_555
C8 C7 1_555 1_555
H6 C8 1_555 1_555
C9 N2 1_555 1_555
H7 C9 1_555 1_555
C10 C6 1_555 1_555
H8 C10 1_555 1_555
O1 Mn1 1_555 1_555
O2 C11 1_555 1_555
C11 O1 1_555 1_555
C12 C11 1_555 1_555
C13 C12 1_555 1_555
H9 C13 1_555 1_555
C14 C13 1_555 1_555
H10 C14 1_555 1_555
C15 C14 1_555 1_555
H11 C15 1_555 1_555
C16 C15 1_555 1_555
H12 C16 1_555 1_555
C17 C12 1_555 1_555
H13 C17 1_555 1_555
O3 C18 1_555 1_555
C18 C19 1_555 1_555
C19 C20 1_555 1_555
C20 H14 1_555 1_555
C21 C20 1_555 1_555
H15 C21 1_555 1_555
C22 C21 1_555 1_555
H16 C22 1_555 1_555
Mn1_2 N2 1_555 1_555
N1A Mn1 1_555 1_555
N2A Mn1_2 1_555 1_555
N2_2 Mn1 1_555 1_555
N2A_2 Mn1 1_555 1_555
S1A S2A 1_555 1_555
S2A C6A 1_555 1_555
C1A N1A 1_555 1_555
H1A C1A 1_555 1_555
C2A C1A 1_555 1_555
H2A C2A 1_555 1_555
C3A S1A 1_555 1_555
C4A C3A 1_555 1_555
H3A C4A 1_555 1_555
C5A N1A 1_555 1_555
H4A C5A 1_555 1_555
C6A C7A 1_555 1_555
C7A H5A 1_555 1_555
C8A N2A 1_555 1_555
H6A C8A 1_555 1_555
C9A N2A 1_555 1_555
H7A C9A 1_555 1_555
C10A C6A 1_555 1_555
H8A C10A 1_555 1_555
O1A Mn1 1_555 1_555
O2A C11A 1_555 1_555
C11A O1A 1_555 1_555
C12A C11A 1_555 1_555
C13A C12A 1_555 1_555
H9A C13A 1_555 1_555
C14A C13A 1_555 1_555
H10A C14A 1_555 1_555
C15A C14A 1_555 1_555
H11A C15A 1_555 1_555
C16A C15A 1_555 1_555
H12A C16A 1_555 1_555
C17A C12A 1_555 1_555
H13A C17A 1_555 1_555
O3A C18 1_555 1_555
C20A C19 1_555 1_555
H14A C20A 1_555 1_555
C21A C22 1_555 1_555
H15A C21A 1_555 1_555
C2 C3 1_555 1_555
C4 C5 1_555 1_555
C9 C10 1_555 1_555
C16 C17 1_555 1_555
C2A C3A 1_555 1_555
C4A C5A 1_555 1_555
C7A C8A 1_555 1_555
C9A C10A 1_555 1_555
C16A C17A 1_555 1_555
C20A C21A 1_555 1_555

#END
