
#######################################################################
#
#                 Cambridge Crystallographic Data Centre
#                                CCDC 
#
#######################################################################
#
# If this CIF has been generated from an entry in the Cambridge 
# Structural Database, then it will include bibliographic, chemical, 
# crystal, experimental, refinement or atomic coordinate data resulting 
# from the CCDC's data processing and validation procedures.
#
#######################################################################

data_GECRUB
_symmetry_cell_setting           monoclinic
_symmetry_space_group_name_H-M   'P 21/c'
_symmetry_Int_Tables_number      14
_space_group_name_Hall           '-P 2ybc'
loop_
_symmetry_equiv_pos_site_id
_symmetry_equiv_pos_as_xyz
1 x,y,z
2 -x,1/2+y,1/2-z
3 -x,-y,-z
4 x,1/2-y,1/2+z
_cell_length_a                   9.990(3)
_cell_length_b                   28.51(2)
_cell_length_c                   14.828(9)
_cell_angle_alpha                90
_cell_angle_beta                 94.50(5)
_cell_angle_gamma                90
_cell_volume                     4210.22
loop_
_atom_site_label
_atom_site_type_symbol
_atom_site_fract_x
_atom_site_fract_y
_atom_site_fract_z
Ni1 Ni 0.2706(2) 0.3916(1) 0.2313(1)
P1 P 0.2101(3) 0.4366(1) 0.1136(2)
C1 C 0.0856(14) 0.4056(4) 0.0361(8)
C2 C 0.1634(13) 0.4986(4) 0.1110(9)
C3 C 0.0387(14) 0.5094(5) 0.1636(9)
C4 C 0.3714(12) 0.4353(5) 0.0567(8)
C5 C 0.3445(13) 0.4436(6) -0.0470(10)
O1 O -0.0438(9) 0.4779(3) 0.1751(7)
O2 O 0.0247(10) 0.5517(3) 0.1880(7)
O3 O 0.3799(11) 0.4102(4) -0.0929(7)
O4 O 0.2914(10) 0.4806(4) -0.0741(6)
P2 P 0.1653(3) 0.3345(1) 0.1521(2)
C6 C 0.1223(15) 0.3533(5) 0.0350(9)
C7 C 0.0023(12) 0.3300(5) 0.2045(9)
C8 C -0.1092(15) 0.3105(6) 0.1357(11)
C9 C 0.2188(12) 0.2727(4) 0.1382(9)
C10 C 0.3554(14) 0.2698(5) 0.1012(9)
O5 O -0.1018(9) 0.2699(4) 0.1074(7)
O6 O -0.2004(12) 0.3387(4) 0.1110(8)
O7 O 0.4018(11) 0.2282(4) 0.0993(9)
O8 O 0.4121(10) 0.3039(4) 0.0743(7)
P3 P 0.3992(3) 0.3471(1) 0.3249(2)
C11 C 0.4412(14) 0.3768(5) 0.4351(8)
C12 C 0.5618(12) 0.3459(5) 0.2701(9)
C13 C 0.6754(15) 0.3309(6) 0.3370(10)
C14 C 0.3643(13) 0.2854(5) 0.3572(10)
C15 C 0.2199(16) 0.2816(5) 0.3895(10)
O9 O 0.6791(10) 0.2893(3) 0.3654(7)
O10 O 0.7595(11) 0.3617(4) 0.3644(8)
O11 O 0.1682(10) 0.3170(4) 0.4180(8)
O12 O 0.1702(11) 0.2425(4) 0.3856(8)
P4 P 0.3131(3) 0.4472(1) 0.3335(2)
C16 C 0.4521(13) 0.4299(5) 0.4149(8)
C17 C 0.1560(13) 0.4437(5) 0.3943(8)
C18 C 0.1806(15) 0.4614(5) 0.4913(11)
C19 C 0.3395(14) 0.5106(5) 0.3202(9)
C20 C 0.4666(12) 0.5246(5) 0.2744(8)
O13 O 0.1740(12) 0.4306(4) 0.5532(7)
O14 O 0.2004(14) 0.5033(4) 0.5063(7)
O15 O 0.4957(10) 0.5674(3) 0.2776(7)
O16 O 0.5333(9) 0.4925(3) 0.2371(6)
Mn1 Mn 0.3494(2) 0.3871(1) -0.2288(1)
Mn2 Mn -0.2557(2) 0.4866(1) 0.2039(1)
Mn3 Mn -0.2173(2) 0.2420(1) -0.0158(2)
O17 O 0.1974(10) 0.4443(3) -0.2710(6)
O18 O 0.3171(13) 0.3568(4) -0.3609(8)
O19 O 0.1830(11) 0.3424(4) -0.1904(7)
O20 O 0.4966(13) 0.3306(4) -0.1930(8)
O21 O -0.2997(10) 0.4225(4) 0.1287(7)
O22 O -0.2071(13) 0.4528(4) 0.3331(7)
O23 O -0.3697(11) 0.3013(3) -0.0219(7)
O24 O -0.3505(14) 0.2050(4) 0.0637(10)
O25 O -0.0718(10) 0.1821(3) -0.0111(7)
O26 O -0.0894(11) 0.2816(4) -0.1011(9)
Mn2B Mn 0.2557(2) 0.5134(1) -0.2039(1)
Mn3C Mn 0.7827(2) 0.2580(1) 0.4842(2)
Mn1B Mn 0.6506(2) 0.6129(1) 0.2288(1)
Mn2_2 Mn 0.7443(2) 0.4866(1) 0.2039(1)
O15B O 0.5043(10) 0.4326(3) -0.2776(7)
O4B O -0.2914(10) 0.5194(4) 0.0741(6)
O16_2 O -0.4667(9) 0.4925(3) 0.2371(6)
O17B O -0.1974(10) 0.5557(3) 0.2710(6)
O9C O -0.3209(10) 0.2107(3) -0.1346(7)
O27 O -0.0192(16) 0.1796(5) 0.1829(11)
O28 O 0.6719(34) 0.2250(11) 0.2442(22)
O29 O 0.6590(14) 0.4151(5) -0.0512(10)
O30 O 0.1094(17) 0.5786(7) 0.4125(13)
O31 O 0.3015(17) 0.6257(5) 0.3452(12)
O32 O 0.1668(14) 0.6309(5) 0.1590(10)
loop_
_geom_bond_atom_site_label_1
_geom_bond_atom_site_label_2
_geom_bond_site_symmetry_1
_geom_bond_site_symmetry_2
Ni1 P1 1_555 1_555
P1 C1 1_555 1_555
C1 C6 1_555 1_555
C2 P1 1_555 1_555
C3 C2 1_555 1_555
C4 P1 1_555 1_555
C5 C4 1_555 1_555
O1 C3 1_555 1_555
O2 C3 1_555 1_555
O3 C5 1_555 1_555
O4 C5 1_555 1_555
P2 Ni1 1_555 1_555
C6 P2 1_555 1_555
C7 P2 1_555 1_555
C8 C7 1_555 1_555
C9 P2 1_555 1_555
C10 C9 1_555 1_555
O5 C8 1_555 1_555
O6 C8 1_555 1_555
O7 C10 1_555 1_555
O8 C10 1_555 1_555
P3 Ni1 1_555 1_555
C11 P3 1_555 1_555
C12 P3 1_555 1_555
C13 C12 1_555 1_555
C14 P3 1_555 1_555
C15 C14 1_555 1_555
O9 C13 1_555 1_555
O10 C13 1_555 1_555
O11 C15 1_555 1_555
O12 C15 1_555 1_555
P4 Ni1 1_555 1_555
C16 C11 1_555 1_555
C17 P4 1_555 1_555
C18 C17 1_555 1_555
C19 P4 1_555 1_555
C20 C19 1_555 1_555
O13 C18 1_555 1_555
O14 C18 1_555 1_555
O15 C20 1_555 1_555
O16 C20 1_555 1_555
Mn1 O3 1_555 1_555
Mn2 O1 1_555 1_555
Mn3 O5 1_555 1_555
O17 Mn1 1_555 1_555
O18 Mn1 1_555 1_555
O19 Mn1 1_555 1_555
O20 Mn1 1_555 1_555
O21 Mn2 1_555 1_555
O22 Mn2 1_555 1_555
O23 Mn3 1_555 1_555
O24 Mn3 1_555 1_555
O25 Mn3 1_555 1_555
O26 Mn3 1_555 1_555
Mn2B O4 1_555 1_555
Mn3C O9 1_555 1_555
Mn1B O15 1_555 1_555
Mn2_2 O16 1_555 1_555
O15B Mn1 1_555 1_555
O4B Mn2 1_555 1_555
O16_2 Mn2 1_555 1_555
O17B Mn2 1_555 1_555
O9C Mn3 1_555 1_555
P4 C16 1_555 1_555
O17 Mn2B 1_555 1_555

#END
