
#######################################################################
#
#                 Cambridge Crystallographic Data Centre
#                                CCDC 
#
#######################################################################
#
# If this CIF has been generated from an entry in the Cambridge 
# Structural Database, then it will include bibliographic, chemical, 
# crystal, experimental, refinement or atomic coordinate data resulting 
# from the CCDC's data processing and validation procedures.
#
#######################################################################

data_GECXUH02
_symmetry_cell_setting           monoclinic
_symmetry_space_group_name_H-M   'P 21/n'
_symmetry_Int_Tables_number      14
_space_group_name_Hall           '-P 2yn'
loop_
_symmetry_equiv_pos_site_id
_symmetry_equiv_pos_as_xyz
1 x,y,z
2 1/2-x,1/2+y,1/2-z
3 -x,-y,-z
4 1/2+x,1/2-y,1/2+z
_cell_length_a                   6.6456(2)
_cell_length_b                   15.2232(5)
_cell_length_c                   12.6148(4)
_cell_angle_alpha                90
_cell_angle_beta                 104.110(2)
_cell_angle_gamma                90
_cell_volume                     1237.7
loop_
_atom_site_label
_atom_site_type_symbol
_atom_site_fract_x
_atom_site_fract_y
_atom_site_fract_z
Zn1 Zn -0.20502(3) 0.494610(13) 0.423127(17)
O2 O -0.2156(3) 0.41623(17) 0.55431(19)
O3 O 0.0901(4) 0.41874(19) 0.66788(17)
O4 O -0.5674(4) 0.10600(18) 0.86533(19)
O5 O -0.4959(2) 0.48173(10) 0.34310(12)
C3 C -0.0303(3) 0.28928(13) 0.79975(17)
H7 H 0.1082 0.3064 0.8180
C4 C -0.0990(3) 0.22609(13) 0.86227(17)
H8 H -0.0063 0.2003 0.9213
C5 C -0.3080(3) 0.20153(12) 0.83604(16)
C6 C -0.0914(3) 0.39240(12) 0.63888(16)
C7 C -0.3848(3) 0.12955(12) 0.89753(16)
C8 C -0.1675(3) 0.32738(12) 0.70964(16)
C9 C -0.4464(3) 0.24146(13) 0.74805(16)
H9 H -0.5862 0.2263 0.7318
C10 C -0.3771(3) 0.30368(13) 0.68445(16)
H10 H -0.4698 0.3294 0.6254
O6 O -0.2595(3) 0.09650(15) 0.9769(2)
H12 H -0.553(5) 0.489(2) 0.2655(5)
H13 H -0.606(3) 0.484(2) 0.381(2)
O3B O -0.0901(4) 0.58126(19) 0.33212(17)
O4C O -0.0674(4) 0.39400(18) 0.36533(19)
O6A O -0.2405(3) 0.59650(15) 0.5231(2)
Zn1B Zn 0.20502(3) 0.505390(13) 0.576873(17)
Zn1C Zn -0.70502(3) 0.005390(13) 0.923127(17)
Zn1A Zn -0.29498(3) -0.005390(13) 1.076873(17)
O1 O 0.6526(3) 0.49261(12) -0.13607(13)
C1 C 0.8296(4) 0.43645(18) 0.0762(2)
H1 H 0.9462 0.4003 0.0728
H2 H 0.8144 0.4378 0.1499
H3 H 0.8518 0.4950 0.0531
C2 C 0.5407(4) 0.32747(16) 0.0447(2)
H4 H 0.4168 0.3120 -0.0091
H5 H 0.5056 0.3443 0.1112
H6 H 0.6328 0.2779 0.0583
N1 N 0.6421(3) 0.40037(13) 0.00454(15)
C11 C 0.5713(4) 0.43187(15) -0.09603(18)
H11 H 0.4521 0.4065 -0.1394
loop_
_geom_bond_atom_site_label_1
_geom_bond_atom_site_label_2
_geom_bond_site_symmetry_1
_geom_bond_site_symmetry_2
Zn1 O2 1_555 1_555
O1 C11 1_555 1_555
O2 C6 1_555 1_555
O3 C6 1_555 1_555
C1 H1 1_555 1_555
H2 C1 1_555 1_555
H3 C1 1_555 1_555
C2 H4 1_555 1_555
H5 C2 1_555 1_555
H6 C2 1_555 1_555
N1 C1 1_555 1_555
O4 C7 1_555 1_555
O5 Zn1 1_555 1_555
C3 H7 1_555 1_555
C4 C3 1_555 1_555
H8 C4 1_555 1_555
C5 C4 1_555 1_555
C6 C8 1_555 1_555
C7 C5 1_555 1_555
C8 C3 1_555 1_555
C9 C5 1_555 1_555
H9 C9 1_555 1_555
C10 C8 1_555 1_555
H10 C10 1_555 1_555
O6 C7 1_555 1_555
C11 N1 1_555 1_555
H11 C11 1_555 1_555
H12 O5 1_555 1_555
H13 O5 1_555 1_555
O3B Zn1 1_555 1_555
O4C Zn1 1_555 1_555
O6A Zn1 1_555 1_555
Zn1B O3 1_555 1_555
Zn1C O4 1_555 1_555
Zn1A O6 1_555 1_555
C2 N1 1_555 1_555
C9 C10 1_555 1_555

#END
