
#######################################################################
#
#                 Cambridge Crystallographic Data Centre
#                                CCDC 
#
#######################################################################
#
# If this CIF has been generated from an entry in the Cambridge 
# Structural Database, then it will include bibliographic, chemical, 
# crystal, experimental, refinement or atomic coordinate data resulting 
# from the CCDC's data processing and validation procedures.
#
#######################################################################

data_GECZUJ
_symmetry_cell_setting           monoclinic
_symmetry_space_group_name_H-M   'C 2/c'
_symmetry_Int_Tables_number      15
_space_group_name_Hall           '-C 2yn'
loop_
_symmetry_equiv_pos_site_id
_symmetry_equiv_pos_as_xyz
1 x,y,z
2 1/2+x,1/2+y,z
3 -x,y,1/2-z
4 1/2-x,1/2+y,1/2-z
5 -x,-y,-z
6 1/2-x,1/2-y,-z
7 x,-y,1/2+z
8 1/2+x,1/2-y,1/2+z
_cell_length_a                   39.71(2)
_cell_length_b                   5.268(2)
_cell_length_c                   21.68(1)
_cell_angle_alpha                90
_cell_angle_beta                 114.66(2)
_cell_angle_gamma                90
_cell_volume                     4121.67
loop_
_atom_site_label
_atom_site_type_symbol
_atom_site_fract_x
_atom_site_fract_y
_atom_site_fract_z
Cu1 Cu 0.0116(1) 0.2113(3) 0.0323(1)
C1 C 0.1562(5) -0.3488(36) 0.3316(10)
C2 C 0.1739(7) -0.1530(52) 0.3152(12)
C3 C 0.1997(7) 0.0037(55) 0.3630(15)
C4 C 0.2111(7) -0.0456(60) 0.4308(15)
C5 C 0.1947(7) -0.2251(57) 0.4507(12)
C6 C 0.1664(6) -0.3866(45) 0.4008(12)
S1 S 0.1220(2) -0.5393(14) 0.2771(3)
C7 C 0.0934(5) -0.2764(42) 0.2171(10)
C8 C 0.0600(5) -0.3931(31) 0.1755(8)
C9 C 0.0335(5) -0.4646(33) 0.2056(8)
C10 C 0.0388(4) -0.2457(36) 0.1101(9)
O1 O 0.0398(3) -0.0068(19) 0.1107(5)
O2 O 0.0207(3) -0.3673(16) 0.0579(5)
C11 C -0.1646(5) 0.1010(38) -0.1021(9)
C12 C -0.1974(6) 0.1260(42) -0.1019(10)
C13 C -0.2290(6) -0.0088(48) -0.1423(11)
C14 C -0.2230(6) -0.2166(46) -0.1791(11)
C15 C -0.1893(7) -0.2501(47) -0.1786(11)
C16 C -0.1605(5) -0.1006(41) -0.1413(10)
S2 S -0.1260(2) 0.3032(13) -0.0561(3)
C17 C -0.1097(6) 0.2207(46) 0.0294(11)
C18 C -0.0869(5) -0.0099(34) 0.0510(9)
C19 C -0.0705(5) -0.0730(38) 0.1296(10)
C20 C -0.0540(5) -0.0058(43) 0.0301(10)
O3 O -0.0320(3) 0.1693(22) 0.0528(5)
O4 O -0.0521(3) -0.1872(23) -0.0042(6)
Cu1D Cu -0.0116(1) -0.2113(3) -0.0323(1)
O2_2 O 0.0207(3) 0.6327(16) 0.0579(5)
O2D O -0.0207(3) 0.3673(16) -0.0579(5)
O4D O 0.0521(3) 0.1872(23) 0.0042(6)
Cu1_2 Cu 0.0116(1) -0.7887(3) 0.0323(1)
loop_
_geom_bond_atom_site_label_1
_geom_bond_atom_site_label_2
_geom_bond_site_symmetry_1
_geom_bond_site_symmetry_2
Cu1 O1 1_555 1_555
C1 C2 1_555 1_555
C2 C3 1_555 1_555
C3 C4 1_555 1_555
C4 C5 1_555 1_555
C5 C6 1_555 1_555
C6 C1 1_555 1_555
S1 C1 1_555 1_555
C7 S1 1_555 1_555
C8 C7 1_555 1_555
C9 C8 1_555 1_555
C10 C8 1_555 1_555
O1 C10 1_555 1_555
O2 C10 1_555 1_555
C11 C12 1_555 1_555
C12 C13 1_555 1_555
C13 C14 1_555 1_555
C14 C15 1_555 1_555
C15 C16 1_555 1_555
C16 C11 1_555 1_555
S2 C11 1_555 1_555
C17 S2 1_555 1_555
C18 C17 1_555 1_555
C19 C18 1_555 1_555
C20 C18 1_555 1_555
O3 Cu1 1_555 1_555
O4 C20 1_555 1_555
Cu1D Cu1 1_555 1_555
O2_2 Cu1 1_555 1_555
O2D Cu1 1_555 1_555
O4D Cu1 1_555 1_555
Cu1_2 O2 1_555 1_555
O2 Cu1D 1_555 1_555
C20 O3 1_555 1_555
O4 Cu1D 1_555 1_555

#END
