
#######################################################################
#
#                 Cambridge Crystallographic Data Centre
#                                CCDC 
#
#######################################################################
#
# If this CIF has been generated from an entry in the Cambridge 
# Structural Database, then it will include bibliographic, chemical, 
# crystal, experimental, refinement or atomic coordinate data resulting 
# from the CCDC's data processing and validation procedures.
#
#######################################################################

data_GEDROX
_symmetry_cell_setting           triclinic
_symmetry_space_group_name_H-M   'P -1'
_symmetry_Int_Tables_number      2
_space_group_name_Hall           '-P 1'
loop_
_symmetry_equiv_pos_site_id
_symmetry_equiv_pos_as_xyz
1 x,y,z
2 -x,-y,-z
_cell_length_a                   7.522(3)
_cell_length_b                   8.600(3)
_cell_length_c                   11.011(4)
_cell_angle_alpha                88.20(3)
_cell_angle_beta                 80.66(3)
_cell_angle_gamma                83.95(3)
_cell_volume                     698.861
loop_
_atom_site_label
_atom_site_type_symbol
_atom_site_fract_x
_atom_site_fract_y
_atom_site_fract_z
Co1 Co 0.5000 0.5000 0.5000
N1 N 0.2620(3) 0.6231(3) 0.5177(2)
N2 N 0.1759(3) 0.6134(3) 0.4360(2)
N3 N 0.0886(4) 0.6044(5) 0.3609(3)
O1 O 0.5120(2) 0.4835(2) 0.3278(2)
O2 O 0.4652(2) 0.3219(2) 0.1838(2)
O3 O 0.4514(3) -0.0449(2) 0.2136(2)
O4 O 0.1713(3) 0.0650(2) 0.2072(2)
N4 N 0.3872(3) 0.3081(2) 0.5076(2)
C1 C 0.3815(3) 0.2519(3) 0.3950(2)
C2 C 0.3108(3) 0.1128(3) 0.3798(2)
C3 C 0.2442(3) 0.0294(3) 0.4866(2)
H1 H 0.1958 -0.0646 0.4804
C4 C 0.2513(3) 0.0879(3) 0.6007(2)
H2 H 0.2075 0.0336 0.6717
C5 C 0.3242(3) 0.2286(3) 0.6090(2)
H3 H 0.3290 0.2678 0.6860
C6 C 0.4580(3) 0.3564(3) 0.2920(2)
C7 C 0.3119(3) 0.0411(3) 0.2551(2)
Na1 Na 0.74941(13) 0.28904(12) 0.04976(9)
O5 O 0.5637(3) 0.3194(2) -0.1021(2)
O6 O 0.7524(3) 0.0095(2) 0.0477(2)
O7 O 0.7987(3) 0.5579(2) 0.0029(2)
O8 O 1.0025(3) 0.2240(4) -0.1150(2)
O9 O 0.9103(4) 0.3089(3) 0.2173(3)
Na2 Na -0.0112(3) 0.5481(2) 0.1701(2)
H4 H 0.5609 0.2393 -0.1401
H5 H 0.5556 0.3958 -0.1480
H6 H 0.7548 -0.0181 -0.0233
H7 H 0.6552 -0.0097 0.0884
H8 H 0.6988 0.6081 0.0128
H9 H 0.8578 0.5828 -0.0624
H10 H 1.0659 0.1446 -0.1002
H11 H 0.9806 0.2216 -0.1852
H12 H 0.9865 0.2340 0.2199
H13 H 0.8783 0.3460 0.2859
N1A N 0.7380(3) 0.3769(3) 0.4823(2)
N2A N 0.8241(3) 0.3866(3) 0.5640(2)
N3A N 0.9114(4) 0.3956(5) 0.6391(3)
O1A O 0.4880(2) 0.5165(2) 0.6722(2)
O2A O 0.5348(2) 0.6781(2) 0.8162(2)
O3A O 0.5486(3) 1.0449(2) 0.7864(2)
O4A O 0.8287(3) 0.9350(2) 0.7928(2)
N4A N 0.6128(3) 0.6919(2) 0.4924(2)
C1A C 0.6185(3) 0.7481(3) 0.6050(2)
C2A C 0.6892(3) 0.8872(3) 0.6202(2)
C3A C 0.7558(3) 0.9706(3) 0.5134(2)
H1A H 0.8042 1.0646 0.5196
C4A C 0.7487(3) 0.9121(3) 0.3993(2)
H2A H 0.7925 0.9664 0.3283
C5A C 0.6758(3) 0.7714(3) 0.3910(2)
H3A H 0.6710 0.7322 0.3140
C6A C 0.5420(3) 0.6436(3) 0.7080(2)
C7A C 0.6881(3) 0.9589(3) 0.7449(2)
Na1A Na 0.25059(13) 0.71096(12) 0.95024(9)
Na1_2 Na -0.25059(13) 0.28904(12) 0.04976(9)
Na1A_2 Na 0.25059(13) 0.71096(12) -0.04976(9)
O5A O 0.4363(3) 0.6806(2) 1.1021(2)
O6A O 0.2476(3) 0.9905(2) 0.9523(2)
O7_2 O -0.2013(3) 0.5579(2) 0.0029(2)
O7A O 0.2013(3) 0.4421(2) -0.0029(2)
O7A_2 O 0.2013(3) 0.4421(2) 0.9971(2)
O7_3 O 0.7987(3) 0.5579(2) 1.0029(2)
O7A_3 O 1.2013(3) 0.4421(2) 0.9971(2)
O8A O -0.0025(3) 0.7760(4) 0.1150(2)
O8A_2 O -0.0025(3) 0.7760(4) 1.1150(2)
O8_2 O 1.0025(3) 0.2240(4) 0.8850(2)
O9_2 O -0.0897(4) 0.3089(3) 0.2173(3)
O9A O 0.0897(4) 0.6911(3) 0.7827(3)
O9A_2 O 1.0897(4) 0.6911(3) 0.7827(3)
Na2A Na 1.0112(3) 0.4519(2) 0.8299(2)
Na2_2 Na 0.9888(3) 0.5481(2) 0.1701(2)
Na2A_2 Na 1.0112(3) 0.4519(2) -0.1701(2)
Na2A_3 Na 0.0112(3) 0.4519(2) -0.1701(2)
H4A H 0.4391 0.7607 1.1401
H5A H 0.4444 0.6042 1.1480
H6A H 0.2452 1.0181 1.0233
H7A H 0.3448 1.0097 0.9116
H8_2 H -0.3012 0.6081 0.0128
H8A H 0.3012 0.3919 -0.0128
H8A_2 H 0.3012 0.3919 0.9872
H8_3 H 0.6988 0.6081 1.0128
H8A_3 H 1.3012 0.3919 0.9872
H9_2 H -0.1422 0.5828 -0.0624
H9A H 0.1422 0.4172 0.0624
H9_3 H 0.8578 0.5828 0.9376
H9A_2 H 0.1422 0.4172 1.0624
H9A_3 H 1.1422 0.4172 1.0624
H10A H -0.0659 0.8554 0.1002
H10A_2 H -0.0659 0.8554 1.1002
H10_2 H 1.0659 0.1446 0.8998
H11A H 0.0194 0.7784 0.1852
H11A_2 H 0.0194 0.7784 1.1852
H11_2 H 0.9806 0.2216 0.8148
H12_2 H -0.0135 0.2340 0.2199
H12A H 0.0135 0.7660 0.7801
H12A_2 H 1.0135 0.7660 0.7801
H13_2 H -0.1217 0.3460 0.2859
H13A H 0.1217 0.6540 0.7141
H13A_2 H 1.1217 0.6540 0.7141
loop_
_geom_bond_atom_site_label_1
_geom_bond_atom_site_label_2
_geom_bond_site_symmetry_1
_geom_bond_site_symmetry_2
Co1 N1 1_555 1_555
N1 N2 1_555 1_555
N2 N3 1_555 1_555
N3 Na2 1_555 1_555
O1 Co1 1_555 1_555
O2 C6 1_555 1_555
O3 C7 1_555 1_555
O4 C7 1_555 1_555
N4 Co1 1_555 1_555
C1 N4 1_555 1_555
C2 C1 1_555 1_555
C3 C2 1_555 1_555
H1 C3 1_555 1_555
C4 C3 1_555 1_555
H2 C4 1_555 1_555
C5 N4 1_555 1_555
H3 C5 1_555 1_555
C6 O1 1_555 1_555
C7 C2 1_555 1_555
Na1 O2 1_555 1_555
O5 Na1 1_555 1_555
O6 Na1 1_555 1_555
O7 Na1 1_555 1_555
O8 Na1 1_555 1_555
O9 Na1 1_555 1_555
Na2 O7_2 1_555 1_555
H4 O5 1_555 1_555
H5 O5 1_555 1_555
H6 O6 1_555 1_555
H7 O6 1_555 1_555
H8 O7 1_555 1_555
H9 O7 1_555 1_555
H10 O8 1_555 1_555
H11 O8 1_555 1_555
H12 O9 1_555 1_555
H13 O9 1_555 1_555
N1A Co1 1_555 1_555
N2A N1A 1_555 1_555
N3A N2A 1_555 1_555
O1A Co1 1_555 1_555
O2A C6A 1_555 1_555
O3A C7A 1_555 1_555
O4A C7A 1_555 1_555
N4A Co1 1_555 1_555
C1A N4A 1_555 1_555
C2A C1A 1_555 1_555
C3A C2A 1_555 1_555
H1A C3A 1_555 1_555
C4A C3A 1_555 1_555
H2A C4A 1_555 1_555
C5A N4A 1_555 1_555
H3A C5A 1_555 1_555
C6A O1A 1_555 1_555
C7A C2A 1_555 1_555
Na1A O2A 1_555 1_555
Na1_2 O7_2 1_555 1_555
Na1A_2 O7A 1_555 1_555
O5A Na1A 1_555 1_555
O6A Na1A 1_555 1_555
O7_2 Na2A_3 1_555 1_555
O7A Na2 1_555 1_555
O7A_2 Na1A 1_555 1_555
O7_3 Na2A 1_555 1_555
O7A_3 Na2A 1_555 1_555
O8A Na2 1_555 1_555
O8A_2 Na1A 1_555 1_555
O8_2 Na2A 1_555 1_555
O9_2 Na2 1_555 1_555
O9A Na1A 1_555 1_555
O9A_2 Na2A 1_555 1_555
Na2A N3A 1_555 1_555
Na2_2 O7 1_555 1_555
Na2A_2 O7 1_555 1_555
Na2A_3 O7A 1_555 1_555
H4A O5A 1_555 1_555
H5A O5A 1_555 1_555
H6A O6A 1_555 1_555
H7A O6A 1_555 1_555
H8_2 O7_2 1_555 1_555
H8A O7A 1_555 1_555
H8A_2 O7A_2 1_555 1_555
H8_3 O7_3 1_555 1_555
H8A_3 O7A_3 1_555 1_555
H9_2 O7_2 1_555 1_555
H9A O7A 1_555 1_555
H9_3 O7_3 1_555 1_555
H9A_2 O7A_2 1_555 1_555
H9A_3 O7A_3 1_555 1_555
H10A O8A 1_555 1_555
H10A_2 O8A_2 1_555 1_555
H10_2 O8_2 1_555 1_555
H11A O8A 1_555 1_555
H11A_2 O8A_2 1_555 1_555
H11_2 O8_2 1_555 1_555
H12_2 O9_2 1_555 1_555
H12A O9A 1_555 1_555
H12A_2 O9A_2 1_555 1_555
H13_2 O9_2 1_555 1_555
H13A O9A 1_555 1_555
H13A_2 O9A_2 1_555 1_555
C1 C6 1_555 1_555
C4 C5 1_555 1_555
O8 Na2A_2 1_555 1_555
O9 Na2_2 1_555 1_555
C1A C6A 1_555 1_555
C4A C5A 1_555 1_555
Na1_2 O9_2 1_555 1_555
Na1A_2 O8A 1_555 1_555

#END
