
#######################################################################
#
#                 Cambridge Crystallographic Data Centre
#                                CCDC 
#
#######################################################################
#
# If this CIF has been generated from an entry in the Cambridge 
# Structural Database, then it will include bibliographic, chemical, 
# crystal, experimental, refinement or atomic coordinate data resulting 
# from the CCDC's data processing and validation procedures.
#
#######################################################################

data_GEDRIS
_symmetry_cell_setting           monoclinic
_symmetry_space_group_name_H-M   'C 2/c'
_symmetry_Int_Tables_number      15
_space_group_name_Hall           '-C 2yn'
loop_
_symmetry_equiv_pos_site_id
_symmetry_equiv_pos_as_xyz
1 x,y,z
2 -x,y,1/2-z
3 1/2+x,1/2+y,z
4 1/2-x,1/2+y,1/2-z
5 -x,-y,-z
6 x,-y,1/2+z
7 1/2-x,1/2-y,-z
8 1/2+x,1/2-y,1/2+z
_cell_length_a                   28.6180(12)
_cell_length_b                   14.0687(6)
_cell_length_c                   13.2796(7)
_cell_angle_alpha                90
_cell_angle_beta                 102.717(5)
_cell_angle_gamma                90
_cell_volume                     5215.45
loop_
_atom_site_label
_atom_site_type_symbol
_atom_site_fract_x
_atom_site_fract_y
_atom_site_fract_z
Nd1 Nd 0.182125(11) 0.20347(2) 0.43996(3)
O1 O 0.10872(16) 0.1559(4) 0.5052(4)
O2 O 0.1120(2) 0.3028(4) 0.4555(7)
O3 O -0.19292(18) 0.2578(4) 0.8808(4)
O4 O -0.26452(18) 0.3261(4) 0.8275(4)
O5 O -0.22958(16) 0.6538(3) 0.5423(4)
O6 O -0.29055(16) 0.5594(3) 0.5443(4)
N1 N -0.0911(2) 0.4147(5) 0.6501(5)
N2 N 0.1461(5) 0.2804(8) 0.2662(8)
N3 N 0.1068(9) 0.3771(16) 0.1343(19)
N4 N 0.1450(3) 0.0634(6) 0.3230(5)
N5 N 0.1292(3) -0.0362(6) 0.1855(8)
C1 C 0.0937(2) 0.2396(6) 0.4984(6)
C2 C 0.0516(3) 0.2652(6) 0.5449(7)
C3 C 0.0238(4) 0.1957(7) 0.5740(11)
H1 H 0.0328 0.1324 0.5710
C4 C -0.0175(4) 0.2175(7) 0.6077(12)
H2 H -0.0371 0.1693 0.6232
C5 C -0.0293(3) 0.3120(6) 0.6180(8)
C6 C -0.0014(3) 0.3824(6) 0.5906(7)
H3 H -0.0093 0.4459 0.5972
C7 C 0.0389(3) 0.3587(6) 0.5527(7)
H4 H 0.0574 0.4066 0.5325
C8 C -0.0747(3) 0.3341(7) 0.6480(8)
C9 C -0.2214(3) 0.3152(6) 0.8267(6)
C10 C -0.2016(2) 0.3776(5) 0.7531(5)
C11 C -0.1550(3) 0.3682(5) 0.7405(6)
H5 H -0.1350 0.3226 0.7783
C12 C -0.1379(2) 0.4258(5) 0.6727(6)
C13 C -0.1665(2) 0.4972(5) 0.6203(6)
H6 H -0.1542 0.5391 0.5785
C14 C -0.2133(2) 0.5059(5) 0.6303(5)
C15 C -0.2309(2) 0.4455(5) 0.6960(5)
H7 H -0.2626 0.4509 0.7015
C16 C -0.2471(2) 0.5769(5) 0.5685(5)
C17 C 0.1047(7) 0.321(2) 0.216(2)
H8 H 0.0762 0.3116 0.2370
C18 C 0.1711(11) 0.313(2) 0.198(2)
H9 H 0.2027 0.2942 0.2053
C19 C 0.1521(10) 0.373(2) 0.120(2)
H10 H 0.1661 0.4024 0.0712
C20 C 0.1417(3) 0.0517(5) 0.2217(5)
H11 H 0.1475 0.1009 0.1792
C21 C 0.1243(8) -0.083(3) 0.2711(19)
H12 H 0.1158 -0.1470 0.2734
C22 C 0.1338(7) -0.0238(12) 0.353(3)
H13 H 0.1327 -0.0405 0.4199
H14 H -0.095(3) 0.274(6) 0.655(6)
Nd1A Nd -0.182125(11) 0.20347(2) 1.06004(3)
Nd1G Nd -0.317875(11) 0.29653(2) 0.93996(3)
Nd1B Nd -0.317875(11) 0.70347(2) 0.43996(3)
Nd1D Nd -0.182125(11) 0.79653(2) 0.56004(3)
O3A O 0.19292(18) 0.2578(4) 0.6192(4)
O4G O 0.23548(18) 0.1739(4) 0.3275(4)
O5B O 0.27042(16) 0.1538(3) 0.5423(4)
O5D O 0.22958(16) 0.3462(3) 0.4577(4)
O6B O 0.20945(16) 0.0594(3) 0.5443(4)
loop_
_geom_bond_atom_site_label_1
_geom_bond_atom_site_label_2
_geom_bond_site_symmetry_1
_geom_bond_site_symmetry_2
Nd1 O1 1_555 1_555
O1 C1 1_555 1_555
O2 Nd1 1_555 1_555
O3 C9 1_555 1_555
O4 C9 1_555 1_555
O5 C16 1_555 1_555
O6 C16 1_555 1_555
N1 C8 1_555 1_555
N2 Nd1 1_555 1_555
N3 C17 1_555 1_555
N4 Nd1 1_555 1_555
N5 C20 1_555 1_555
C1 O2 1_555 1_555
C2 C1 1_555 1_555
C3 C2 1_555 1_555
H1 C3 1_555 1_555
C4 C3 1_555 1_555
H2 C4 1_555 1_555
C5 C4 1_555 1_555
C6 C5 1_555 1_555
H3 C6 1_555 1_555
C7 C2 1_555 1_555
H4 C7 1_555 1_555
C8 C5 1_555 1_555
C9 C10 1_555 1_555
C10 C11 1_555 1_555
C11 H5 1_555 1_555
C12 N1 1_555 1_555
C13 C12 1_555 1_555
H6 C13 1_555 1_555
C14 C13 1_555 1_555
C15 C10 1_555 1_555
H7 C15 1_555 1_555
C16 C14 1_555 1_555
C17 N2 1_555 1_555
H8 C17 1_555 1_555
C18 N2 1_555 1_555
H9 C18 1_555 1_555
C19 N3 1_555 1_555
H10 C19 1_555 1_555
C20 N4 1_555 1_555
H11 C20 1_555 1_555
C21 N5 1_555 1_555
H12 C21 1_555 1_555
C22 N4 1_555 1_555
H13 C22 1_555 1_555
H14 C8 1_555 1_555
Nd1A O3 1_555 1_555
Nd1G O4 1_555 1_555
Nd1B O5 1_555 1_555
Nd1D O5 1_555 1_555
O3A Nd1 1_555 1_555
O4G Nd1 1_555 1_555
O5B Nd1 1_555 1_555
O5D Nd1 1_555 1_555
O6B Nd1 1_555 1_555
O6 Nd1B 1_555 1_555
C6 C7 1_555 1_555
C11 C12 1_555 1_555
C14 C15 1_555 1_555
C18 C19 1_555 1_555
C21 C22 1_555 1_555

#END
