
#######################################################################
#
#                 Cambridge Crystallographic Data Centre
#                                CCDC 
#
#######################################################################
#
# If this CIF has been generated from an entry in the Cambridge 
# Structural Database, then it will include bibliographic, chemical, 
# crystal, experimental, refinement or atomic coordinate data resulting 
# from the CCDC's data processing and validation procedures.
#
#######################################################################

data_GEDSEP
_symmetry_cell_setting           monoclinic
_symmetry_space_group_name_H-M   'C 2/c'
_symmetry_Int_Tables_number      15
_space_group_name_Hall           '-C 2yn'
loop_
_symmetry_equiv_pos_site_id
_symmetry_equiv_pos_as_xyz
1 x,y,z
2 -x,y,1/2-z
3 1/2+x,1/2+y,z
4 1/2-x,1/2+y,1/2-z
5 -x,-y,-z
6 x,-y,1/2+z
7 1/2-x,1/2-y,-z
8 1/2+x,1/2-y,1/2+z
_cell_length_a                   28.9274(17)
_cell_length_b                   13.8282(7)
_cell_length_c                   13.1654(11)
_cell_angle_alpha                90
_cell_angle_beta                 102.340(7)
_cell_angle_gamma                90
_cell_volume                     5144.67
loop_
_atom_site_label
_atom_site_type_symbol
_atom_site_fract_x
_atom_site_fract_y
_atom_site_fract_z
Nd1 Nd 0.818126(9) 0.293134(18) 0.05933(2)
O1 O 0.88740(17) 0.1959(3) 0.0366(5)
O2 O 0.88881(12) 0.3464(3) -0.0143(3)
O3 O 1.29164(13) -0.0539(2) -0.0346(3)
O4 O 1.23066(13) -0.1501(2) -0.0338(3)
O5 O 1.26772(14) 0.1815(3) -0.3198(4)
O6 O 1.19636(14) 0.2502(3) -0.3771(3)
O7 O 0.8563(2) 0.2059(4) 0.2278(5)
N1 N 1.09427(19) 0.0958(4) -0.1445(5)
N2 N 0.86168(17) 0.4306(3) 0.1825(4)
N3 N 0.8856(2) 0.5864(4) 0.2096(5)
N4 N 0.87396(19) 0.5478(4) 0.2983(4)
N5 N 0.8510(2) 0.3986(4) 0.3576(5)
C1 C 0.9060(2) 0.2630(4) -0.0066(5)
C2 C 0.9496(2) 0.2416(4) -0.0455(6)
C3 C 0.9637(3) 0.1462(5) -0.0527(9)
H1 H 0.9450 0.0961 -0.0365
C4 C 1.0056(3) 0.1254(5) -0.0839(9)
H2 H 1.0157 0.0617 -0.0856
C5 C 1.0322(3) 0.1992(4) -0.1124(7)
C6 C 1.0168(3) 0.2931(4) -0.1104(7)
H3 H 1.0343 0.3430 -0.1309
C7 C 0.9757(2) 0.3136(5) -0.0781(6)
H4 H 0.9654 0.3773 -0.0783
C8 C 1.0782(3) 0.1809(5) -0.1409(7)
C9 C 1.24791(18) -0.0713(4) -0.0591(4)
C10 C 1.21544(18) 0.0019(4) -0.1202(4)
C11 C 1.1686(2) 0.0123(4) -0.1112(5)
H5 H 1.1560 -0.0302 -0.0696
C12 C 1.1407(2) 0.0856(4) -0.1637(6)
C13 C 1.15810(19) 0.1445(4) -0.2334(5)
H6 H 1.1390 0.1919 -0.2712
C14 C 1.20415(19) 0.1314(4) -0.2455(5)
C15 C 1.23328(18) 0.0620(4) -0.1870(4)
H7 H 1.2646 0.0559 -0.1929
C16 C 1.2240(2) 0.1927(4) -0.3211(5)
C17 C 0.8604(2) 0.4567(4) 0.2795(5)
C18 C 0.8776(2) 0.5136(5) 0.1447(5)
H8 H 0.8824 0.5180 0.0772
H9 H 1.093(3) 0.229(6) -0.162(7)
H10 H 0.881(3) 0.586(5) 0.364(3)
Nd1B Nd 1.318126(9) -0.206866(18) 0.05933(2)
Nd1D Nd 1.181874(9) -0.293134(18) -0.05933(2)
Nd1G Nd 1.318126(9) 0.206866(18) -0.44067(2)
Nd1A Nd 1.181874(9) 0.293134(18) -0.55933(2)
O3B O 0.79164(13) 0.4461(2) -0.0346(3)
O4B O 0.73066(13) 0.3499(2) -0.0338(3)
O4D O 0.76934(13) 0.1501(2) 0.0338(3)
O5G O 0.76772(14) 0.3185(3) 0.1802(4)
O6A O 0.80364(14) 0.2502(3) -0.1229(3)
loop_
_geom_bond_atom_site_label_1
_geom_bond_atom_site_label_2
_geom_bond_site_symmetry_1
_geom_bond_site_symmetry_2
Nd1 O1 1_555 1_555
O1 C1 1_555 1_555
O2 Nd1 1_555 1_555
O3 C9 1_555 1_555
O4 C9 1_555 1_555
O5 C16 1_555 1_555
O6 C16 1_555 1_555
O7 Nd1 1_555 1_555
N1 C8 1_555 1_555
N2 Nd1 1_555 1_555
N3 N4 1_555 1_555
N4 C17 1_555 1_555
N5 C17 1_555 1_555
C1 O2 1_555 1_555
C2 C1 1_555 1_555
C3 C2 1_555 1_555
H1 C3 1_555 1_555
C4 C3 1_555 1_555
H2 C4 1_555 1_555
C5 C4 1_555 1_555
C6 C5 1_555 1_555
H3 C6 1_555 1_555
C7 C2 1_555 1_555
H4 C7 1_555 1_555
C8 C5 1_555 1_555
C9 C10 1_555 1_555
C10 C11 1_555 1_555
C11 H5 1_555 1_555
C12 N1 1_555 1_555
C13 C12 1_555 1_555
H6 C13 1_555 1_555
C14 C13 1_555 1_555
C15 C10 1_555 1_555
H7 C15 1_555 1_555
C16 C14 1_555 1_555
C17 N2 1_555 1_555
C18 N2 1_555 1_555
H8 C18 1_555 1_555
H9 C8 1_555 1_555
H10 N4 1_555 1_555
Nd1B O3 1_555 1_555
Nd1D O4 1_555 1_555
Nd1G O5 1_555 1_555
Nd1A O6 1_555 1_555
O3B Nd1 1_555 1_555
O4B Nd1 1_555 1_555
O4D Nd1 1_555 1_555
O5G Nd1 1_555 1_555
O6A Nd1 1_555 1_555
O4 Nd1B 1_555 1_555
N3 C18 1_555 1_555
C6 C7 1_555 1_555
C11 C12 1_555 1_555
C14 C15 1_555 1_555

#END
