
#######################################################################
#
#                 Cambridge Crystallographic Data Centre
#                                CCDC 
#
#######################################################################
#
# If this CIF has been generated from an entry in the Cambridge 
# Structural Database, then it will include bibliographic, chemical, 
# crystal, experimental, refinement or atomic coordinate data resulting 
# from the CCDC's data processing and validation procedures.
#
#######################################################################

data_GEFDIE
_symmetry_cell_setting           monoclinic
_symmetry_space_group_name_H-M   'C 2/c'
_symmetry_Int_Tables_number      15
_space_group_name_Hall           '-C 2yn'
loop_
_symmetry_equiv_pos_site_id
_symmetry_equiv_pos_as_xyz
1 x,y,z
2 1/2+x,1/2+y,z
3 -x,y,1/2-z
4 1/2-x,1/2+y,1/2-z
5 -x,-y,-z
6 1/2-x,1/2-y,-z
7 x,-y,1/2+z
8 1/2+x,1/2-y,1/2+z
_cell_length_a                   20.76(4)
_cell_length_b                   6.422(7)
_cell_length_c                   20.69(2)
_cell_angle_alpha                90
_cell_angle_beta                 96.9(1)
_cell_angle_gamma                90
_cell_volume                     2738.43
loop_
_atom_site_label
_atom_site_type_symbol
_atom_site_fract_x
_atom_site_fract_y
_atom_site_fract_z
Ag1 Ag 0.26766(4) 0.4646(1) 0.30927(4)
N1 N 0.3675(4) 0.651(1) 0.3282(4)
C1 C 0.3895(6) 0.703(2) 0.3942(6)
C2 C 0.4062(7) 0.513(3) 0.4327(5)
C3 C 0.4582(6) 0.389(2) 0.4039(7)
C4 C 0.4398(5) 0.355(1) 0.3335(6)
C5 C 0.4193(6) 0.554(2) 0.2980(6)
Cl1 Cl 0.2670(1) 0.0720(3) 0.3146(1)
N2 N 0.1918(5) 0.647(1) 0.3631(6)
C6 C 0.1241(8) 0.615(3) 0.3377(7)
C7 C 0.1034(7) 0.408(3) 0.3554(10)
C8 C 0.1130(10) 0.382(3) 0.4246(10)
C9 C 0.1803(10) 0.422(4) 0.4518(7)
C10 C 0.1965(8) 0.631(4) 0.4306(10)
H1 H 0.357 0.792 0.307
H2 H 0.356 0.762 0.418
H3 H 0.430 0.785 0.395
H4 H 0.422 0.550 0.478
H5 H 0.369 0.430 0.433
H6 H 0.472 0.246 0.427
H7 H 0.499 0.475 0.407
H8 H 0.469 0.294 0.307
H9 H 0.402 0.267 0.330
H10 H 0.408 0.500 0.250
H11 H 0.457 0.648 0.303
H12 H 0.204 0.785 0.351
H13 H 0.094 0.753 0.356
H14 H 0.120 0.617 0.290
H15 H 0.059 0.380 0.342
H16 H 0.129 0.296 0.336
H17 H 0.083 0.476 0.455
H18 H 0.105 0.234 0.434
H19 H 0.184 0.413 0.499
H20 H 0.210 0.321 0.438
H21 H 0.168 0.724 0.449
H22 H 0.240 0.658 0.450
Cl1C Cl 0.2330(1) 0.5720(3) 0.1854(1)
Ag1C Ag 0.23234(4) -0.0354(1) 0.19073(4)
Ag1C_2 Ag 0.23234(4) 0.9646(1) 0.19073(4)
N1C N 0.1325(4) 0.151(1) 0.1718(4)
Cl1C_2 Cl 0.2330(1) -0.4280(3) 0.1854(1)
N2C N 0.3082(5) 0.147(1) 0.1369(6)
C1C C 0.1105(6) 0.203(2) 0.1058(6)
C5C C 0.0807(6) 0.054(2) 0.2020(6)
H1C H 0.143 0.292 0.193
C6C C 0.3759(8) 0.115(3) 0.1623(7)
C10C C 0.3035(8) 0.131(4) 0.0694(10)
H12C H 0.296 0.285 0.149
C2C C 0.0938(7) 0.013(3) 0.0673(5)
H2C H 0.144 0.262 0.082
H3C H 0.070 0.285 0.105
C4C C 0.0602(5) -0.145(1) 0.1665(6)
H10C H 0.092 0.000 0.250
H11C H 0.043 0.148 0.197
C7C C 0.3966(7) -0.092(3) 0.1446(10)
H13C H 0.406 0.253 0.144
H14C H 0.380 0.117 0.210
C9C C 0.3197(10) -0.078(4) 0.0482(7)
H21C H 0.332 0.224 0.051
H22C H 0.260 0.158 0.050
C3C C 0.0418(6) -0.111(2) 0.0961(7)
H4C H 0.078 0.050 0.022
H5C H 0.131 -0.070 0.067
H8C H 0.031 -0.206 0.193
H9C H 0.098 -0.233 0.170
C8C C 0.3870(10) -0.118(3) 0.0754(10)
H15C H 0.441 -0.120 0.158
H16C H 0.371 -0.204 0.164
H19C H 0.316 -0.087 0.001
H20C H 0.290 -0.179 0.062
H6C H 0.028 -0.254 0.073
H7C H 0.001 -0.025 0.093
H17C H 0.417 -0.024 0.045
H18C H 0.395 -0.266 0.066
loop_
_geom_bond_atom_site_label_1
_geom_bond_atom_site_label_2
_geom_bond_site_symmetry_1
_geom_bond_site_symmetry_2
Ag1 N1 1_555 1_555
N1 C1 1_555 1_555
C1 C2 1_555 1_555
C2 C3 1_555 1_555
C3 C4 1_555 1_555
C4 C5 1_555 1_555
C5 N1 1_555 1_555
Cl1 Ag1 1_555 1_555
N2 Ag1 1_555 1_555
C6 N2 1_555 1_555
C7 C6 1_555 1_555
C8 C7 1_555 1_555
C9 C8 1_555 1_555
C10 N2 1_555 1_555
H1 N1 1_555 1_555
H2 C1 1_555 1_555
H3 C1 1_555 1_555
H4 C2 1_555 1_555
H5 C2 1_555 1_555
H6 C3 1_555 1_555
H7 C3 1_555 1_555
H8 C4 1_555 1_555
H9 C4 1_555 1_555
H10 C5 1_555 1_555
H11 C5 1_555 1_555
H12 N2 1_555 1_555
H13 C6 1_555 1_555
H14 C6 1_555 1_555
H15 C7 1_555 1_555
H16 C7 1_555 1_555
H17 C8 1_555 1_555
H18 C8 1_555 1_555
H19 C9 1_555 1_555
H20 C9 1_555 1_555
H21 C10 1_555 1_555
H22 C10 1_555 1_555
Cl1C Ag1 1_555 1_555
Ag1C Cl1 1_555 1_555
Ag1C_2 Cl1C 1_555 1_555
N1C Ag1C 1_555 1_555
Cl1C_2 Ag1C 1_555 1_555
N2C Ag1C 1_555 1_555
C1C N1C 1_555 1_555
C5C N1C 1_555 1_555
H1C N1C 1_555 1_555
C6C N2C 1_555 1_555
C10C N2C 1_555 1_555
H12C N2C 1_555 1_555
C2C C1C 1_555 1_555
H2C C1C 1_555 1_555
H3C C1C 1_555 1_555
C4C C5C 1_555 1_555
H10C C5C 1_555 1_555
H11C C5C 1_555 1_555
C7C C6C 1_555 1_555
H13C C6C 1_555 1_555
H14C C6C 1_555 1_555
C9C C10C 1_555 1_555
H21C C10C 1_555 1_555
H22C C10C 1_555 1_555
C3C C2C 1_555 1_555
H4C C2C 1_555 1_555
H5C C2C 1_555 1_555
H8C C4C 1_555 1_555
H9C C4C 1_555 1_555
C8C C7C 1_555 1_555
H15C C7C 1_555 1_555
H16C C7C 1_555 1_555
H19C C9C 1_555 1_555
H20C C9C 1_555 1_555
H6C C3C 1_555 1_555
H7C C3C 1_555 1_555
H17C C8C 1_555 1_555
H18C C8C 1_555 1_555
C9 C10 1_555 1_555
C4C C3C 1_555 1_555
C9C C8C 1_555 1_555

#END
