
#######################################################################
#
#                 Cambridge Crystallographic Data Centre
#                                CCDC 
#
#######################################################################
#
# If this CIF has been generated from an entry in the Cambridge 
# Structural Database, then it will include bibliographic, chemical, 
# crystal, experimental, refinement or atomic coordinate data resulting 
# from the CCDC's data processing and validation procedures.
#
#######################################################################

data_GEFFAZ
_symmetry_cell_setting           monoclinic
_symmetry_space_group_name_H-M   'P 2/c'
_symmetry_Int_Tables_number      13
_space_group_name_Hall           '-P 2yc'
loop_
_symmetry_equiv_pos_site_id
_symmetry_equiv_pos_as_xyz
1 x,y,z
2 -x,y,1/2-z
3 -x,-y,-z
4 x,-y,1/2+z
_cell_length_a                   8.5796(19)
_cell_length_b                   11.138(3)
_cell_length_c                   18.588(4)
_cell_angle_alpha                90
_cell_angle_beta                 104.259(9)
_cell_angle_gamma                90
_cell_volume                     1721.54
loop_
_atom_site_label
_atom_site_type_symbol
_atom_site_fract_x
_atom_site_fract_y
_atom_site_fract_z
C1 C 1.1242(7) 0.8593(5) 0.9437(3)
H1 H 1.1569 0.7831 0.9618
C2 C 1.2022(7) 0.9562(5) 0.9808(3)
H2 H 1.2853 0.9469 1.0233
C3 C 1.1533(6) 1.0688(5) 0.9537(3)
H3 H 1.2048 1.1364 0.9777
C4 C 1.0279(6) 1.0803(5) 0.8909(3)
H4 H 0.9940 1.1560 0.8725
C5 C 0.9562(7) 0.9772(5) 0.8563(3)
C6 C 0.8220(7) 0.9803(5) 0.7880(3)
C7 C 0.7566(6) 1.0859(5) 0.7553(3)
H5 H 0.7966 1.1596 0.7752
C8 C 0.6334(7) 1.0807(6) 0.6935(3)
H6 H 0.5887 1.1511 0.6704
C9 C 0.5740(8) 0.9725(6) 0.6650(3)
H7 H 0.4892 0.9683 0.6229
C10 C 0.6435(7) 0.8705(6) 0.6998(3)
H8 H 0.6036 0.7964 0.6808
C11 C 0.7402(7) 0.6424(5) 0.9397(3)
C12 C 0.6798(6) 0.6187(5) 1.0065(3)
C13 C 0.5455(6) 0.6788(5) 1.0156(3)
H9 H 0.4938 0.7328 0.9793
C14 C 0.4866(6) 0.6612(5) 1.0776(3)
C15 C 0.5649(6) 0.5825(5) 1.1320(3)
H10 H 0.5275 0.5713 1.1744
C16 C 0.6994(6) 0.5191(5) 1.1237(3)
C17 C 0.7557(6) 0.5372(4) 1.0602(3)
H11 H 0.8444 0.4942 1.0539
C18 C 0.7821(7) 0.4340(5) 1.1821(3)
Cd1 Cd 0.86581(5) 0.70236(4) 0.82386(2)
N1 N 1.0046(5) 0.8690(4) 0.8825(2)
N2 N 0.7640(5) 0.8751(4) 0.7598(2)
O1 O 0.8628(5) 0.5883(3) 0.93043(19)
O2 O 0.6720(5) 0.7211(4) 0.8943(2)
O3 O 0.8763(5) 0.3585(3) 1.1680(2)
O4 O 0.7477(4) 0.4392(3) 1.24416(19)
O6 O 0.3589(4) 0.7285(3) 1.0834(2)
H14 H 0.3154 0.6963 1.1130
Cd1B Cd 1.13419(5) 0.29764(4) 1.17614(2)
Cd1C Cd 0.86581(5) 0.29764(4) 1.32386(2)
O3B O 1.1237(5) 0.6415(3) 0.8320(2)
O4C O 0.7477(4) 0.5608(3) 0.74416(19)
O5 O 0.1577(4) 0.3718(3) 0.65646(18)
H12 H 0.1955 0.4261 0.6846
H13 H 0.1161 0.4159 0.6223
loop_
_geom_bond_atom_site_label_1
_geom_bond_atom_site_label_2
_geom_bond_site_symmetry_1
_geom_bond_site_symmetry_2
C1 H1 1_555 1_555
C2 C1 1_555 1_555
H2 C2 1_555 1_555
C3 C2 1_555 1_555
H3 C3 1_555 1_555
C4 C3 1_555 1_555
H4 C4 1_555 1_555
C5 C4 1_555 1_555
C6 C5 1_555 1_555
C7 C6 1_555 1_555
H5 C7 1_555 1_555
C8 C7 1_555 1_555
H6 C8 1_555 1_555
C9 C8 1_555 1_555
H7 C9 1_555 1_555
C10 C9 1_555 1_555
H8 C10 1_555 1_555
C11 C12 1_555 1_555
C12 C13 1_555 1_555
C13 H9 1_555 1_555
C14 C13 1_555 1_555
C15 C14 1_555 1_555
H10 C15 1_555 1_555
C16 C15 1_555 1_555
C17 C12 1_555 1_555
H11 C17 1_555 1_555
C18 C16 1_555 1_555
Cd1 N1 1_555 1_555
N1 C1 1_555 1_555
N2 C6 1_555 1_555
O1 C11 1_555 1_555
O2 C11 1_555 1_555
O3 C18 1_555 1_555
O4 C18 1_555 1_555
O5 H12 1_555 1_555
H13 O5 1_555 1_555
O6 C14 1_555 1_555
H14 O6 1_555 1_555
Cd1B O3 1_555 1_555
Cd1C O4 1_555 1_555
O3B Cd1 1_555 1_555
O4C Cd1 1_555 1_555
C5 N1 1_555 1_555
C10 N2 1_555 1_555
C16 C17 1_555 1_555
Cd1 N2 1_555 1_555
Cd1 O1 1_555 1_555
Cd1 O2 1_555 1_555

#END
