
#######################################################################
#
#                 Cambridge Crystallographic Data Centre
#                                CCDC 
#
#######################################################################
#
# If this CIF has been generated from an entry in the Cambridge 
# Structural Database, then it will include bibliographic, chemical, 
# crystal, experimental, refinement or atomic coordinate data resulting 
# from the CCDC's data processing and validation procedures.
#
#######################################################################

data_GEFFED
_symmetry_cell_setting           monoclinic
_symmetry_space_group_name_H-M   'P 21/c'
_symmetry_Int_Tables_number      14
_space_group_name_Hall           '-P 2ybc'
loop_
_symmetry_equiv_pos_site_id
_symmetry_equiv_pos_as_xyz
1 x,y,z
2 -x,1/2+y,1/2-z
3 -x,-y,-z
4 x,1/2-y,1/2+z
_cell_length_a                   7.3278(2)
_cell_length_b                   21.8954(8)
_cell_length_c                   11.7204(4)
_cell_angle_alpha                90
_cell_angle_beta                 97.01
_cell_angle_gamma                90
_cell_volume                     1866.42
loop_
_atom_site_label
_atom_site_type_symbol
_atom_site_fract_x
_atom_site_fract_y
_atom_site_fract_z
Co1 Co 0.23212(11) 0.38156(4) 0.39297(7)
C1 C 0.4451(8) 0.2992(3) 0.4706(5)
C2 C 0.5829(8) 0.2568(3) 0.5300(5)
C3 C 0.5292(8) 0.2153(3) 0.6110(5)
H1 H 0.4054 0.2111 0.6198
C4 C 0.6594(8) 0.1807(3) 0.6776(5)
H2 H 0.6235 0.1543 0.7330
C5 C 0.8447(8) 0.1852(3) 0.6617(5)
C6 C 0.8971(8) 0.2235(3) 0.5760(5)
H3 H 1.0192 0.2248 0.5619
C7 C 0.7665(8) 0.2598(3) 0.5119(5)
H4 H 0.8024 0.2862 0.4566
C8 C 0.9905(9) 0.1532(3) 0.7403(5)
C9 C 0.3103(8) 0.5131(3) 0.2690(5)
C10 C 0.3374(9) 0.5010(3) 0.1554(5)
H5 H 0.3309 0.4614 0.1263
C11 C 0.3741(9) 0.5499(3) 0.0883(6)
H6 H 0.3936 0.5430 0.0124
C12 C 0.3830(9) 0.6097(3) 0.1307(6)
H7 H 0.4051 0.6415 0.0818
C13 C 0.3598(9) 0.6226(3) 0.2432(6)
H8 H 0.3687 0.6622 0.2720
C14 C 0.3222(8) 0.5732(3) 0.3112(5)
C15 C 0.2616(7) 0.5097(2) 0.4470(5)
C16 C 0.2245(8) 0.4817(3) 0.5526(5)
C17 C 0.1804(8) 0.4066(3) 0.6670(5)
C18 C 0.1607(9) 0.3498(3) 0.7174(6)
H9 H 0.1706 0.3137 0.6767
C19 C 0.1256(10) 0.3493(4) 0.8310(6)
H10 H 0.1111 0.3122 0.8675
C20 C 0.1117(10) 0.4043(4) 0.8920(6)
H11 H 0.0894 0.4024 0.9684
C21 C 0.1296(9) 0.4600(4) 0.8430(6)
H12 H 0.1181 0.4960 0.8837
C22 C 0.1663(8) 0.4607(3) 0.7285(5)
N1 N 0.2158(7) 0.4208(2) 0.5564(4)
N2 N 0.2730(7) 0.4742(2) 0.3564(4)
N3 N 0.2912(7) 0.5697(2) 0.4255(4)
H13 H 0.2908 0.5995 0.4732
N4 N 0.1974(7) 0.5075(2) 0.6541(4)
H14 H 0.1992 0.5459 0.6695
O1 O 0.2754(5) 0.28964(19) 0.4658(4)
O2 O 0.5030(5) 0.34909(18) 0.4280(3)
O3 O 1.1551(6) 0.1561(2) 0.7235(4)
O4 O 0.9445(5) 0.12502(19) 0.8276(3)
Co1C Co 1.23212(11) 0.11844(4) 0.89297(7)
O3C O 0.1551(6) 0.3439(2) 0.2235(4)
O4C O -0.0555(5) 0.37498(19) 0.3276(3)
loop_
_geom_bond_atom_site_label_1
_geom_bond_atom_site_label_2
_geom_bond_site_symmetry_1
_geom_bond_site_symmetry_2
Co1 N1 1_555 1_555
C1 C2 1_555 1_555
C2 C3 1_555 1_555
C3 H1 1_555 1_555
C4 C3 1_555 1_555
H2 C4 1_555 1_555
C5 C4 1_555 1_555
C6 C5 1_555 1_555
H3 C6 1_555 1_555
C7 C2 1_555 1_555
H4 C7 1_555 1_555
C8 C5 1_555 1_555
C9 C10 1_555 1_555
C10 H5 1_555 1_555
C11 C10 1_555 1_555
H6 C11 1_555 1_555
C12 C11 1_555 1_555
H7 C12 1_555 1_555
C13 C12 1_555 1_555
H8 C13 1_555 1_555
C14 C9 1_555 1_555
C15 C16 1_555 1_555
C16 N1 1_555 1_555
C17 C18 1_555 1_555
C18 H9 1_555 1_555
C19 C18 1_555 1_555
H10 C19 1_555 1_555
C20 C19 1_555 1_555
H11 C20 1_555 1_555
C21 C20 1_555 1_555
H12 C21 1_555 1_555
C22 C17 1_555 1_555
N1 C17 1_555 1_555
N2 Co1 1_555 1_555
N3 C14 1_555 1_555
H13 N3 1_555 1_555
N4 C16 1_555 1_555
H14 N4 1_555 1_555
O1 Co1 1_555 1_555
O2 Co1 1_555 1_555
O3 C8 1_555 1_555
O4 C8 1_555 1_555
Co1C O3 1_555 1_555
O3C Co1 1_555 1_555
O4C Co1 1_555 1_555
C1 O1 1_555 1_555
C1 O2 1_555 1_555
C6 C7 1_555 1_555
C9 N2 1_555 1_555
C13 C14 1_555 1_555
C15 N2 1_555 1_555
C15 N3 1_555 1_555
C21 C22 1_555 1_555
C22 N4 1_555 1_555
O4 Co1C 1_555 1_555

#END
