
#######################################################################
#
#                 Cambridge Crystallographic Data Centre
#                                CCDC 
#
#######################################################################
#
# If this CIF has been generated from an entry in the Cambridge 
# Structural Database, then it will include bibliographic, chemical, 
# crystal, experimental, refinement or atomic coordinate data resulting 
# from the CCDC's data processing and validation procedures.
#
#######################################################################

data_GEFWUL
_symmetry_cell_setting           monoclinic
_symmetry_space_group_name_H-M   'P 21/c'
_symmetry_Int_Tables_number      14
_space_group_name_Hall           '-P 2ybc'
loop_
_symmetry_equiv_pos_site_id
_symmetry_equiv_pos_as_xyz
1 x,y,z
2 -x,1/2+y,1/2-z
3 -x,-y,-z
4 x,1/2-y,1/2+z
_cell_length_a                   13.9371(2)
_cell_length_b                   10.41910(10)
_cell_length_c                   12.8607(2)
_cell_angle_alpha                90
_cell_angle_beta                 101.2110(10)
_cell_angle_gamma                90
_cell_volume                     1831.89
loop_
_atom_site_label
_atom_site_type_symbol
_atom_site_fract_x
_atom_site_fract_y
_atom_site_fract_z
C1 C 0.56527(18) 0.5529(2) 0.16235(18)
C2 C 0.6382(2) 0.4569(2) 0.0451(2)
H1 H 0.6599 0.3840 0.0149
C3 C 0.58209(16) 0.6732(2) 0.12563(18)
C4 C 0.62936(17) 0.6895(2) 0.03912(18)
C5 C 0.50438(17) 0.6943(2) 0.25190(18)
H2 H 0.4725 0.7312 0.3016
C6 C 0.81219(17) 0.3214(2) 0.62074(19)
H3 H 0.7954 0.3323 0.6867
C7 C 0.74809(16) 0.3602(2) 0.53049(18)
C8 C 1.05970(19) 0.2106(3) 0.4303(2)
C9 C 0.65246(17) 0.4202(2) 0.5364(2)
C10 C 0.8628(2) 0.2870(3) 0.4246(2)
C11 C 0.92586(18) 0.2502(3) 0.5163(2)
C12 C 1.21923(18) 0.2684(3) 0.1842(2)
C13 C 1.1354(2) 0.3489(3) 0.3229(2)
H4 H 1.1523 0.4311 0.3047
C14 C 0.90089(18) 0.2667(3) 0.6141(2)
H5 H 0.9437 0.2411 0.6753
C15 C 1.16168(18) 0.2443(3) 0.2687(2)
C16 C 0.77354(18) 0.3418(3) 0.4319(2)
H6 H 0.7304 0.3665 0.3706
C17 C 1.1367(2) 0.1237(3) 0.2962(2)
H7 H 1.1550 0.0529 0.2606
C18 C 1.0840(2) 0.1058(3) 0.3770(2)
H8 H 1.0657 0.0238 0.3943
C19 C 1.0841(2) 0.3326(3) 0.4044(2)
H9 H 1.0666 0.4032 0.4408
H10 H 0.687(2) 0.579(3) -0.040(2)
H11 H 1.278(2) 0.180(3) 0.106(3)
N1 N 0.51470(15) 0.56618(17) 0.24306(16)
N2 N 0.54338(14) 0.76364(17) 0.18391(15)
N3 N 0.59347(17) 0.43956(18) 0.12383(18)
N4 N 0.65604(17) 0.5716(2) 0.00334(18)
O1 O 0.63861(13) 0.45244(16) 0.62695(14)
O2 O 0.59284(14) 0.4348(2) 0.45221(17)
O3 O 1.01384(14) 0.1897(2) 0.51558(15)
O4 O 1.23837(15) 0.37563(19) 0.15822(16)
O5 O 1.24585(16) 0.1628(2) 0.14259(16)
O6 O 0.64623(14) 0.79132(16) -0.00238(14)
Zn1 Zn 0.472332(18) 0.44856(2) 0.347543(19)
N2A N 0.45662(14) 0.26364(17) 0.31609(15)
O1B O 0.36139(13) 0.54756(16) 0.37305(14)
Zn1A Zn 0.527668(18) 0.94856(2) 0.152457(19)
Zn1B Zn 0.527668(18) 0.55144(2) 0.652457(19)
loop_
_geom_bond_atom_site_label_1
_geom_bond_atom_site_label_2
_geom_bond_site_symmetry_1
_geom_bond_site_symmetry_2
C1 C3 1_555 1_555
C2 H1 1_555 1_555
C3 C4 1_555 1_555
C4 N4 1_555 1_555
C5 H2 1_555 1_555
C6 H3 1_555 1_555
C7 C6 1_555 1_555
C8 C18 1_555 1_555
C9 C7 1_555 1_555
C10 C11 1_555 1_555
C11 C14 1_555 1_555
C12 C15 1_555 1_555
C13 H4 1_555 1_555
C14 C6 1_555 1_555
H5 C14 1_555 1_555
C15 C13 1_555 1_555
C16 C7 1_555 1_555
H6 C16 1_555 1_555
C17 C15 1_555 1_555
H7 C17 1_555 1_555
C18 C17 1_555 1_555
H8 C18 1_555 1_555
C19 C8 1_555 1_555
H9 C19 1_555 1_555
H10 N4 1_555 1_555
H11 O5 1_555 1_555
N1 C1 1_555 1_555
N2 C3 1_555 1_555
N3 C1 1_555 1_555
N4 C2 1_555 1_555
O1 C9 1_555 1_555
O2 C9 1_555 1_555
O3 C8 1_555 1_555
O4 C12 1_555 1_555
O5 C12 1_555 1_555
O6 C4 1_555 1_555
Zn1 N1 1_555 1_555
N2A Zn1 1_555 1_555
O1B Zn1 1_555 1_555
Zn1A N2 1_555 1_555
Zn1B O1 1_555 1_555
C2 N3 1_555 1_555
C5 N1 1_555 1_555
C5 N2 1_555 1_555
C10 C16 1_555 1_555
C11 O3 1_555 1_555
C13 C19 1_555 1_555
O2 Zn1 1_555 1_555

#END
