
#######################################################################
#
#                 Cambridge Crystallographic Data Centre
#                                CCDC 
#
#######################################################################
#
# If this CIF has been generated from an entry in the Cambridge 
# Structural Database, then it will include bibliographic, chemical, 
# crystal, experimental, refinement or atomic coordinate data resulting 
# from the CCDC's data processing and validation procedures.
#
#######################################################################

data_GEGHAD
_symmetry_cell_setting           monoclinic
_symmetry_space_group_name_H-M   'P 21/c'
_symmetry_Int_Tables_number      14
_space_group_name_Hall           '-P 2ybc'
loop_
_symmetry_equiv_pos_site_id
_symmetry_equiv_pos_as_xyz
1 x,y,z
2 -x,1/2+y,1/2-z
3 -x,-y,-z
4 x,1/2-y,1/2+z
_cell_length_a                   13.5204(7)
_cell_length_b                   10.7639(5)
_cell_length_c                   14.6348(7)
_cell_angle_alpha                90
_cell_angle_beta                 110.5320(10)
_cell_angle_gamma                90
_cell_volume                     1994.54
loop_
_atom_site_label
_atom_site_type_symbol
_atom_site_fract_x
_atom_site_fract_y
_atom_site_fract_z
Ni1 Ni 0.41060(3) 0.90524(4) 0.46182(3)
Ni2 Ni 0.50346(3) 1.01181(4) 0.29197(3)
O1 O 0.30576(17) 1.0326(2) 0.37520(16)
O2 O 0.39079(17) 1.1364(2) 0.29150(16)
O3 O 0.38686(19) 1.4056(2) 0.23922(18)
O4 O 0.3137(2) 1.2850(2) 0.10846(18)
O5 O -0.38071(18) 1.1468(2) 0.33959(16)
O6 O -0.28712(18) 1.1513(2) 0.50044(15)
O7 O -0.36526(18) 1.2786(2) 0.15272(15)
O8 O -0.37213(17) 1.3970(2) 0.27729(15)
O9 O 0.53693(16) 0.96086(18) 0.43051(14)
C3 C 0.3137(2) 1.1184(3) 0.3202(2)
C4 C 0.2256(2) 1.2103(3) 0.2862(2)
C5 C 0.1407(2) 1.1963(3) 0.3186(2)
H9 H 0.1412 1.1307 0.3601
C6 C 0.0553(2) 1.2775(3) 0.2907(2)
C7 C 0.0578(3) 1.3760(3) 0.2294(3)
H10 H 0.0023 1.4326 0.2103
C8 C 0.1415(3) 1.3905(3) 0.1968(3)
H11 H 0.1410 1.4565 0.1556
C9 C 0.2263(2) 1.3086(3) 0.2243(2)
C10 C 0.3170(3) 1.3328(3) 0.1876(2)
C11 C -0.0346(2) 1.2590(3) 0.3262(2)
C12 C -0.0182(2) 1.2030(3) 0.4168(2)
H12 H 0.0499 1.1825 0.4571
C13 C -0.1025(2) 1.1779(3) 0.4470(2)
H13 H -0.0904 1.1400 0.5070
C14 C -0.2044(2) 1.2086(3) 0.3887(2)
C15 C -0.2214(2) 1.2712(3) 0.3006(2)
C16 C -0.1370(2) 1.2943(3) 0.2696(2)
H14 H -0.1490 1.3340 0.2102
C17 C -0.2984(2) 1.1651(3) 0.4118(2)
C18 C -0.3293(2) 1.3176(3) 0.2389(2)
O10 O 0.4826(2) 1.0929(3) 0.15112(17)
O11 O 0.4964(2) 0.7425(2) 0.53917(17)
Ni1B Ni -0.41060(3) 1.09476(4) 0.53818(3)
Ni1A Ni -0.41060(3) 1.40524(4) 0.03818(3)
Ni1B_2 Ni 0.58940(3) 1.09476(4) 0.53818(3)
Ni2A Ni 0.49654(3) 1.51181(4) 0.20803(3)
Ni2_2 Ni -0.49654(3) 1.01181(4) 0.29197(3)
Ni2A_2 Ni -0.50346(3) 1.51181(4) 0.20803(3)
O3A O 0.61314(19) 0.9056(2) 0.26078(18)
O5_2 O 0.61929(18) 1.1468(2) 0.33959(16)
O6B O 0.28712(18) 0.8487(2) 0.49956(15)
O7A O 0.36526(18) 0.7786(2) 0.34728(15)
O8A O 0.37213(17) 0.8970(2) 0.22271(15)
O9B O 0.46307(16) 1.03914(18) 0.56949(14)
N1 N 0.2529(3) 0.0389(4) 0.0552(3)
H1 H 0.2910 -0.0072 0.1069
H2 H 0.2723 0.1187 0.0687
C1 C 0.1409(4) 0.0267(5) 0.0418(5)
H3 H 0.1297 0.0529 0.1001
H4 H 0.1198 -0.0585 0.0285
H5 H 0.0998 0.0776 -0.0119
C2 C 0.2785(5) -0.0013(6) -0.0327(4)
H6 H 0.3529 0.0079 -0.0192
H7 H 0.2401 0.0494 -0.0876
H8 H 0.2588 -0.0867 -0.0471
loop_
_geom_bond_atom_site_label_1
_geom_bond_atom_site_label_2
_geom_bond_site_symmetry_1
_geom_bond_site_symmetry_2
Ni1 O1 1_555 1_555
Ni2 O2 1_555 1_555
N1 H1 1_555 1_555
H2 N1 1_555 1_555
O1 C3 1_555 1_555
O2 C3 1_555 1_555
O3 C10 1_555 1_555
O4 C10 1_555 1_555
O5 C17 1_555 1_555
O6 C17 1_555 1_555
O7 C18 1_555 1_555
O8 C18 1_555 1_555
O9 Ni1 1_555 1_555
C1 N1 1_555 1_555
H3 C1 1_555 1_555
H4 C1 1_555 1_555
H5 C1 1_555 1_555
C2 N1 1_555 1_555
H6 C2 1_555 1_555
H7 C2 1_555 1_555
H8 C2 1_555 1_555
C3 C4 1_555 1_555
C4 C5 1_555 1_555
C5 H9 1_555 1_555
C6 C5 1_555 1_555
C7 C6 1_555 1_555
H10 C7 1_555 1_555
C8 C7 1_555 1_555
H11 C8 1_555 1_555
C9 C4 1_555 1_555
C10 C9 1_555 1_555
C11 C6 1_555 1_555
C12 C11 1_555 1_555
H12 C12 1_555 1_555
C13 C12 1_555 1_555
H13 C13 1_555 1_555
C14 C13 1_555 1_555
C15 C14 1_555 1_555
C16 C11 1_555 1_555
H14 C16 1_555 1_555
C17 C14 1_555 1_555
C18 C15 1_555 1_555
O10 Ni2 1_555 1_555
O11 Ni1 1_555 1_555
Ni1B O6 1_555 1_555
Ni1A O7 1_555 1_555
Ni1B_2 O9 1_555 1_555
Ni2A O3 1_555 1_555
Ni2_2 O5 1_555 1_555
Ni2A_2 O8 1_555 1_555
O3A Ni2 1_555 1_555
O5_2 Ni2 1_555 1_555
O6B Ni1 1_555 1_555
O7A Ni1 1_555 1_555
O8A Ni2 1_555 1_555
O9B Ni1 1_555 1_555
Ni2 O9 1_555 1_555
C8 C9 1_555 1_555
C15 C16 1_555 1_555
Ni1B_2 O9B 1_555 1_555

#END
