
#######################################################################
#
#                 Cambridge Crystallographic Data Centre
#                                CCDC 
#
#######################################################################
#
# If this CIF has been generated from an entry in the Cambridge 
# Structural Database, then it will include bibliographic, chemical, 
# crystal, experimental, refinement or atomic coordinate data resulting 
# from the CCDC's data processing and validation procedures.
#
#######################################################################

data_GEGLUA
_symmetry_cell_setting           monoclinic
_symmetry_space_group_name_H-M   'P 21/n'
_symmetry_Int_Tables_number      14
_space_group_name_Hall           '-P 2yn'
loop_
_symmetry_equiv_pos_site_id
_symmetry_equiv_pos_as_xyz
1 x,y,z
2 1/2-x,1/2+y,1/2-z
3 -x,-y,-z
4 1/2+x,1/2-y,1/2+z
_cell_length_a                   6.6018(14)
_cell_length_b                   9.2559(19)
_cell_length_c                   7.9097(16)
_cell_angle_alpha                90
_cell_angle_beta                 113.56(3)
_cell_angle_gamma                90
_cell_volume                     443.038
loop_
_atom_site_label
_atom_site_type_symbol
_atom_site_fract_x
_atom_site_fract_y
_atom_site_fract_z
Se1 Se 0.19375(6) 0.40444(4) 0.42124(5)
Co1 Co 0.17364(7) 0.23158(5) 0.10870(6)
O1 O 0.0125(6) 0.3002(4) 0.2584(5)
O2 O 0.1434(6) 0.5625(3) 0.3138(5)
O3 O 0.4183(5) 0.3456(3) 0.3970(4)
N1 N 0.2831(6) 0.3613(4) -0.0372(5)
C1 C 0.4675(7) 0.4564(5) 0.0637(6)
H1 H 0.5925 0.3989 0.1424
H2 H 0.4262 0.5203 0.1418
H3 H 0.319(7) 0.299(7) -0.109(5)
H4 H 0.163(10) 0.404(6) -0.114(8)
Se1A Se 0.30625(6) -0.09556(4) 0.07876(5)
Co1A Co 0.32636(7) -0.26842(5) 0.39130(6)
Co1A_2 Co 0.32636(7) 0.73158(5) 0.39130(6)
Co1C Co 0.67364(7) 0.26842(5) 0.60870(6)
Co1B Co 0.82636(7) 0.76842(5) -0.10870(6)
Co1B_2 Co -0.17364(7) -0.23158(5) -0.10870(6)
O1A O 0.4875(6) -0.1998(4) 0.2416(5)
O2A O 0.3566(6) 0.0625(3) 0.1862(5)
O2_2 O 0.1434(6) -0.4375(3) 0.3138(5)
O3A O 0.0817(5) -0.1544(3) 0.1030(4)
O3C O -0.0817(5) 0.1544(3) -0.1030(4)
O3B O 0.5817(5) -0.3456(3) 0.6030(4)
N1B N 0.7169(6) 0.6387(4) 0.0372(5)
N1A N 0.2169(6) -0.1387(4) 0.5372(5)
C1B C 0.5325(7) 0.5436(5) -0.0637(6)
H1B H 0.4075 0.6011 -0.1424
H2B H 0.5738 0.4797 -0.1418
H3B H 0.681(7) 0.701(7) 0.109(5)
H3A H 0.181(7) -0.201(7) 0.609(5)
H4B H 0.837(10) 0.596(6) 0.114(8)
H4A H 0.337(10) -0.096(6) 0.614(8)
loop_
_geom_bond_atom_site_label_1
_geom_bond_atom_site_label_2
_geom_bond_site_symmetry_1
_geom_bond_site_symmetry_2
Se1 O1 1_555 1_555
Co1 O1 1_555 1_555
O2 Se1 1_555 1_555
O3 Se1 1_555 1_555
N1 Co1 1_555 1_555
C1 N1 1_555 1_555
H1 C1 1_555 1_555
H2 C1 1_555 1_555
H3 N1 1_555 1_555
H4 N1 1_555 1_555
Se1A O1A 1_555 1_555
Co1A O1A 1_555 1_555
Co1A_2 O2 1_555 1_555
Co1C O3 1_555 1_555
Co1B N1B 1_555 1_555
Co1B_2 O3A 1_555 1_555
O2A Co1 1_555 1_555
O2_2 Co1A 1_555 1_555
O3A Se1A 1_555 1_555
O3C Co1 1_555 1_555
O3B Co1A 1_555 1_555
N1B C1B 1_555 1_555
N1A Co1A 1_555 1_555
C1B C1 1_555 1_555
H1B C1B 1_555 1_555
H2B C1B 1_555 1_555
H3B N1B 1_555 1_555
H3A N1A 1_555 1_555
H4B N1B 1_555 1_555
H4A N1A 1_555 1_555
Se1A O2A 1_555 1_555

#END
