
#######################################################################
#
#                 Cambridge Crystallographic Data Centre
#                                CCDC 
#
#######################################################################
#
# If this CIF has been generated from an entry in the Cambridge 
# Structural Database, then it will include bibliographic, chemical, 
# crystal, experimental, refinement or atomic coordinate data resulting 
# from the CCDC's data processing and validation procedures.
#
#######################################################################

data_GEGWEV
_symmetry_cell_setting           monoclinic
_symmetry_space_group_name_H-M   'C 2/c'
_symmetry_Int_Tables_number      15
_space_group_name_Hall           '-C 2yn'
loop_
_symmetry_equiv_pos_site_id
_symmetry_equiv_pos_as_xyz
1 x,y,z
2 1/2+x,1/2+y,z
3 -x,y,1/2-z
4 1/2-x,1/2+y,1/2-z
5 -x,-y,-z
6 1/2-x,1/2-y,-z
7 x,-y,1/2+z
8 1/2+x,1/2-y,1/2+z
_cell_length_a                   31.208(5)
_cell_length_b                   21.048(3)
_cell_length_c                   21.988(3)
_cell_angle_alpha                90
_cell_angle_beta                 109.780(6)
_cell_angle_gamma                90
_cell_volume                     13591
loop_
_atom_site_label
_atom_site_type_symbol
_atom_site_fract_x
_atom_site_fract_y
_atom_site_fract_z
Ag1 Ag 0.223948(16) 0.28901(2) 0.283180(18)
C1 C 0.04646(12) 0.05315(17) 0.00523(16)
C2 C 0.05215(12) 0.05761(18) 0.07196(17)
H1 H 0.0436 0.0950 0.0873
C3 C 0.07015(12) 0.00782(18) 0.11567(16)
C4 C 0.08543(13) -0.04773(17) 0.09104(18)
C5 C 0.08026(13) -0.05223(18) 0.02620(18)
H2 H 0.0906 -0.0885 0.0114
C6 C 0.05967(12) -0.00328(17) -0.01830(16)
C7 C 0.05101(13) -0.01528(18) -0.09042(16)
H3 H 0.0248 0.0096 -0.1153
H4 H 0.0432 -0.0597 -0.0995
C8 C 0.09086(13) 0.00055(17) -0.11436(16)
C9 C 0.12514(13) -0.04650(18) -0.10456(16)
H5 H 0.1230 -0.0835 -0.0827
C10 C 0.16232(14) -0.03941(18) -0.12661(16)
C11 C 0.16461(14) 0.01709(19) -0.16022(17)
C12 C 0.13152(13) 0.06411(19) -0.16939(17)
H6 H 0.1339 0.1011 -0.1912
C13 C 0.09412(13) 0.05747(17) -0.14652(15)
C14 C 0.06060(13) 0.11315(18) -0.15583(16)
H7 H 0.0307 0.0968 -0.1598
H8 H 0.0581 0.1353 -0.1956
C15 C 0.07620(13) 0.16012(17) -0.09885(17)
C16 C 0.10875(15) 0.20691(18) -0.09926(19)
H9 H 0.1181 0.2095 -0.1351
C17 C 0.12758(15) 0.2498(2) -0.0478(2)
C18 C 0.11256(15) 0.24413(19) 0.00623(18)
C19 C 0.07998(15) 0.20004(18) 0.00674(18)
H10 H 0.0701 0.1986 0.0422
C20 C 0.06093(12) 0.15649(17) -0.04514(17)
C21 C 0.02535(13) 0.10993(17) -0.03797(17)
H11 H 0.0071 0.0945 -0.0804
H12 H 0.0052 0.1322 -0.0199
C22 C 0.06282(13) 0.06423(19) 0.21161(17)
H13 H 0.0599 0.0517 0.2525
H14 H 0.0337 0.0814 0.1849
N1 N 0.07185(11) 0.00807(15) 0.18048(13)
H15 H 0.0785 -0.0266 0.2023
O1 O 0.10317(10) -0.09502(12) 0.13689(12)
C23 C 0.1243(3) -0.1471(2) 0.1178(2)
H16 H 0.1024 -0.1688 0.0824
H17 H 0.1362 -0.1757 0.1535
H18 H 0.1488 -0.1319 0.1044
C24 C 0.19205(16) -0.1493(2) -0.0974(2)
H19 H 0.2086 -0.1771 -0.1167
H20 H 0.1601 -0.1609 -0.1150
N2 N 0.19695(12) -0.08442(17) -0.11653(15)
H21 H 0.2220 -0.0734 -0.1219
O2 O 0.20107(10) 0.02016(14) -0.18265(13)
C25 C 0.20387(17) 0.0745(2) -0.2203(2)
H22 H 0.1762 0.0784 -0.2565
H23 H 0.2291 0.0696 -0.2356
H24 H 0.2082 0.1120 -0.1941
C26 C 0.1568(2) 0.3266(2) -0.1084(3)
H25 H 0.1668 0.3703 -0.0995
H26 H 0.1250 0.3275 -0.1355
N3 N 0.16006(14) 0.29627(17) -0.04719(18)
H27 H 0.1812 0.3066 -0.0119
O3 O 0.13238(12) 0.28851(14) 0.05501(15)
C27 C 0.1136(2) 0.2919(3) 0.1062(2)
H28 H 0.0818 0.3022 0.0885
H29 H 0.1292 0.3242 0.1365
H30 H 0.1172 0.2517 0.1279
N4 N 0.16489(13) 0.21493(18) 0.25306(16)
C28 C 0.17334(15) 0.1563(2) 0.23459(19)
H31 H 0.2019 0.1484 0.2317
C29 C 0.14185(14) 0.1076(2) 0.21979(18)
H32 H 0.1492 0.0683 0.2066
C30 C 0.09856(13) 0.11759(19) 0.22476(16)
C31 C 0.08977(15) 0.1776(2) 0.24328(18)
H33 H 0.0615 0.1869 0.2464
C32 C 0.12297(18) 0.2234(2) 0.2570(2)
H34 H 0.1162 0.2631 0.2700
N5 N 0.24230(15) -0.1891(2) 0.10907(18)
C33 C 0.2576(2) -0.1394(3) 0.0834(2)
H35 H 0.2802 -0.1137 0.1109
C34 C 0.24137(19) -0.1247(2) 0.0181(2)
H36 H 0.2528 -0.0895 0.0032
C35 C 0.20862(15) -0.1614(2) -0.02485(19)
C36 C 0.19323(17) -0.2134(2) 0.0009(2)
H37 H 0.1708 -0.2397 -0.0258
C37 C 0.21144(19) -0.2260(3) 0.0668(3)
H38 H 0.2016 -0.2622 0.0824
N6 N 0.23383(16) 0.2444(2) -0.22016(18)
C38 C 0.24628(18) 0.2356(2) -0.1555(2)
H39 H 0.2725 0.2121 -0.1354
C39 C 0.22283(19) 0.2589(2) -0.1172(2)
H40 H 0.2327 0.2503 -0.0731
C40 C 0.1835(2) 0.2962(2) -0.1462(2)
C41 C 0.1699(2) 0.3051(3) -0.2132(3)
H41 H 0.1438 0.3284 -0.2346
C42 C 0.1953(2) 0.2789(3) -0.2470(2)
H42 H 0.1855 0.2853 -0.2914
N7 N 0.18559(19) 0.3872(3) 0.2515(3)
C43 C 0.1714(3) 0.4371(4) 0.2394(4)
C44 C 0.1540(6) 0.5096(7) 0.2320(8)
H43 H 0.1346 0.5176 0.2574
H44 H 0.1795 0.5389 0.2453
C45 C 0.1301(8) 0.5153(11) 0.1669(10)
H45 H 0.1112 0.5531 0.1602
H46 H 0.1100 0.4790 0.1534
C46 C 0.1612(8) 0.5200(10) 0.1206(10)
H47 H 0.1856 0.4893 0.1370
H48 H 0.1425 0.5052 0.0782
C47 C 0.1826(6) 0.5803(8) 0.1108(8)
N8 N 0.2101(3) 0.6167(4) 0.1348(4)
Ag1C Ag 0.276052(16) -0.21099(2) 0.216820(18)
Ag1E Ag 0.276052(16) 0.21099(2) -0.283180(18)
N5C N 0.25770(15) 0.3109(2) 0.39093(18)
N6E N 0.26617(16) 0.2556(2) 0.22016(18)
N9 N 0.2331(3) 0.0332(4) 0.1727(4)
C48 C 0.2064(3) 0.0474(4) 0.1237(4)
C49 C 0.1741(3) 0.0717(4) 0.0623(5)
H49 H 0.1544 0.0371 0.0403
H50 H 0.1550 0.1036 0.0722
C50 C 0.1944(3) 0.0993(4) 0.0182(4)
H51 H 0.2088 0.1392 0.0360
H52 H 0.1706 0.1085 -0.0225
C51 C 0.2311(3) 0.0545(4) 0.0051(3)
H53 H 0.2514 0.0388 0.0462
H54 H 0.2155 0.0181 -0.0197
C52 C 0.2571(4) 0.0829(5) -0.0276(3)
N10 N 0.2781(3) 0.0984(4) -0.0566(4)
P1 P 0.04326(8) -0.24152(10) -0.09624(12)
F1 F 0.0792(3) -0.2759(3) -0.1209(4)
F2 F 0.0085(3) -0.2027(3) -0.0772(5)
F3 F 0.0238(4) -0.3076(3) -0.0903(6)
F4 F 0.0700(5) -0.2582(8) -0.0252(4)
F5 F 0.0745(3) -0.1882(3) -0.0794(5)
F6 F 0.0190(3) -0.2328(8) -0.1667(4)
loop_
_geom_bond_atom_site_label_1
_geom_bond_atom_site_label_2
_geom_bond_site_symmetry_1
_geom_bond_site_symmetry_2
Ag1 N4 1_555 1_555
C1 C2 1_555 1_555
C2 H1 1_555 1_555
C3 C2 1_555 1_555
C4 C3 1_555 1_555
C5 C4 1_555 1_555
H2 C5 1_555 1_555
C6 C1 1_555 1_555
C7 C6 1_555 1_555
H3 C7 1_555 1_555
H4 C7 1_555 1_555
C8 C7 1_555 1_555
C9 C8 1_555 1_555
H5 C9 1_555 1_555
C10 C9 1_555 1_555
C11 C10 1_555 1_555
C12 C11 1_555 1_555
H6 C12 1_555 1_555
C13 C8 1_555 1_555
C14 C13 1_555 1_555
H7 C14 1_555 1_555
H8 C14 1_555 1_555
C15 C14 1_555 1_555
C16 C15 1_555 1_555
H9 C16 1_555 1_555
C17 C16 1_555 1_555
C18 C17 1_555 1_555
C19 C18 1_555 1_555
H10 C19 1_555 1_555
C20 C15 1_555 1_555
C21 C1 1_555 1_555
H11 C21 1_555 1_555
H12 C21 1_555 1_555
C22 H13 1_555 1_555
H14 C22 1_555 1_555
N1 C3 1_555 1_555
H15 N1 1_555 1_555
O1 C4 1_555 1_555
C23 O1 1_555 1_555
H16 C23 1_555 1_555
H17 C23 1_555 1_555
H18 C23 1_555 1_555
C24 H19 1_555 1_555
H20 C24 1_555 1_555
N2 C10 1_555 1_555
H21 N2 1_555 1_555
O2 C11 1_555 1_555
C25 O2 1_555 1_555
H22 C25 1_555 1_555
H23 C25 1_555 1_555
H24 C25 1_555 1_555
C26 H25 1_555 1_555
H26 C26 1_555 1_555
N3 C17 1_555 1_555
H27 N3 1_555 1_555
O3 C18 1_555 1_555
C27 O3 1_555 1_555
H28 C27 1_555 1_555
H29 C27 1_555 1_555
H30 C27 1_555 1_555
N4 C28 1_555 1_555
C28 H31 1_555 1_555
C29 C28 1_555 1_555
H32 C29 1_555 1_555
C30 C22 1_555 1_555
C31 C30 1_555 1_555
H33 C31 1_555 1_555
C32 N4 1_555 1_555
H34 C32 1_555 1_555
N5 C33 1_555 1_555
C33 H35 1_555 1_555
C34 C33 1_555 1_555
H36 C34 1_555 1_555
C35 C24 1_555 1_555
C36 C35 1_555 1_555
H37 C36 1_555 1_555
C37 N5 1_555 1_555
H38 C37 1_555 1_555
N6 C38 1_555 1_555
C38 H39 1_555 1_555
C39 C38 1_555 1_555
H40 C39 1_555 1_555
C40 C26 1_555 1_555
C41 C40 1_555 1_555
H41 C41 1_555 1_555
C42 N6 1_555 1_555
H42 C42 1_555 1_555
N7 Ag1 1_555 1_555
C43 N7 1_555 1_555
C44 C43 1_555 1_555
H43 C44 1_555 1_555
H44 C44 1_555 1_555
C45 C44 1_555 1_555
H45 C45 1_555 1_555
H46 C45 1_555 1_555
C46 C45 1_555 1_555
H47 C46 1_555 1_555
H48 C46 1_555 1_555
C47 C46 1_555 1_555
N8 C47 1_555 1_555
N9 C48 1_555 1_555
C48 C49 1_555 1_555
C49 H49 1_555 1_555
H50 C49 1_555 1_555
C50 C49 1_555 1_555
H51 C50 1_555 1_555
H52 C50 1_555 1_555
C51 C50 1_555 1_555
H53 C51 1_555 1_555
H54 C51 1_555 1_555
C52 C51 1_555 1_555
N10 C52 1_555 1_555
P1 F1 1_555 1_555
F2 P1 1_555 1_555
F3 P1 1_555 1_555
F4 P1 1_555 1_555
F5 P1 1_555 1_555
F6 P1 1_555 1_555
Ag1C N5 1_555 1_555
Ag1E N6 1_555 1_555
N5C Ag1 1_555 1_555
N6E Ag1 1_555 1_555
C5 C6 1_555 1_555
C12 C13 1_555 1_555
C19 C20 1_555 1_555
C20 C21 1_555 1_555
C22 N1 1_555 1_555
C24 N2 1_555 1_555
C26 N3 1_555 1_555
C29 C30 1_555 1_555
C31 C32 1_555 1_555
C34 C35 1_555 1_555
C36 C37 1_555 1_555
C39 C40 1_555 1_555
C41 C42 1_555 1_555

#END
