
#######################################################################
#
#                 Cambridge Crystallographic Data Centre
#                                CCDC 
#
#######################################################################
#
# If this CIF has been generated from an entry in the Cambridge 
# Structural Database, then it will include bibliographic, chemical, 
# crystal, experimental, refinement or atomic coordinate data resulting 
# from the CCDC's data processing and validation procedures.
#
#######################################################################

data_GEHMOW
_symmetry_cell_setting           monoclinic
_symmetry_space_group_name_H-M   'P 2/c'
_symmetry_Int_Tables_number      13
_space_group_name_Hall           '-P 2yc'
loop_
_symmetry_equiv_pos_site_id
_symmetry_equiv_pos_as_xyz
1 x,y,z
2 -x,y,1/2-z
3 -x,-y,-z
4 x,-y,1/2+z
_cell_length_a                   8.528(2)
_cell_length_b                   6.2456(13)
_cell_length_c                   10.059(2)
_cell_angle_alpha                90
_cell_angle_beta                 105.462(19)
_cell_angle_gamma                90
_cell_volume                     516.376
loop_
_atom_site_label
_atom_site_type_symbol
_atom_site_fract_x
_atom_site_fract_y
_atom_site_fract_z
Cu1 Cu 0.0000 -0.22216(9) 0.2500
Cl1 Cl 0.0000 -0.56720(16) 0.2500
N1 N -0.2954(3) -0.2175(4) 0.5122(2)
N2 N -0.3871(3) -0.1853(5) 0.5996(3)
N3 N -0.3228(3) -0.0283(5) 0.6807(3)
N4 N -0.1884(3) 0.0435(4) 0.6468(2)
C1 C -0.1739(3) -0.0766(4) 0.5430(2)
C2 C -0.3235(5) -0.3960(6) 0.4155(4)
H1 H -0.2992 -0.3524 0.3317
H2 H -0.4353 -0.4397 0.3958
H3 H -0.2545 -0.5137 0.4555
N5 N -0.0532(2) -0.0702(3) 0.47406(19)
Cu1C Cu 0.0000 0.22216(9) 0.7500
N1B N 0.2954(3) 0.2175(4) 0.4878(2)
N2B N 0.3871(3) 0.1853(5) 0.4004(3)
N3B N 0.3228(3) 0.0283(5) 0.3193(3)
N4C N -0.1884(3) -0.0435(4) 0.1468(2)
N4B N 0.1884(3) -0.0435(4) 0.3532(2)
C1B C 0.1739(3) 0.0766(4) 0.4570(2)
C2B C 0.3235(5) 0.3960(6) 0.5845(4)
H1B H 0.2992 0.3524 0.6683
H2B H 0.4353 0.4397 0.6042
H3B H 0.2545 0.5137 0.5445
N5A N 0.0532(2) -0.0702(3) 0.02594(19)
N5B N 0.0532(2) 0.0702(3) 0.52594(19)
loop_
_geom_bond_atom_site_label_1
_geom_bond_atom_site_label_2
_geom_bond_site_symmetry_1
_geom_bond_site_symmetry_2
Cu1 Cl1 1_555 1_555
N1 N2 1_555 1_555
N2 N3 1_555 1_555
N3 N4 1_555 1_555
N4 C1 1_555 1_555
C1 N1 1_555 1_555
C2 N1 1_555 1_555
H1 C2 1_555 1_555
H2 C2 1_555 1_555
H3 C2 1_555 1_555
N5 Cu1 1_555 1_555
Cu1C N4 1_555 1_555
N1B N2B 1_555 1_555
N2B N3B 1_555 1_555
N3B N4B 1_555 1_555
N4C Cu1 1_555 1_555
N4B Cu1 1_555 1_555
C1B N1B 1_555 1_555
C2B N1B 1_555 1_555
H1B C2B 1_555 1_555
H2B C2B 1_555 1_555
H3B C2B 1_555 1_555
N5A Cu1 1_555 1_555
N5B N5 1_555 1_555
C1 N5 1_555 1_555
Cu1C N5B 1_555 1_555
N4B C1B 1_555 1_555
C1B N5B 1_555 1_555

#END
