
#######################################################################
#
#                 Cambridge Crystallographic Data Centre
#                                CCDC 
#
#######################################################################
#
# If this CIF has been generated from an entry in the Cambridge 
# Structural Database, then it will include bibliographic, chemical, 
# crystal, experimental, refinement or atomic coordinate data resulting 
# from the CCDC's data processing and validation procedures.
#
#######################################################################

data_GEHQAL
_symmetry_cell_setting           monoclinic
_symmetry_space_group_name_H-M   'C 2/c'
_symmetry_Int_Tables_number      15
_space_group_name_Hall           '-C 2yn'
loop_
_symmetry_equiv_pos_site_id
_symmetry_equiv_pos_as_xyz
1 x,y,z
2 1/2+x,1/2+y,z
3 x,-y,1/2+z
4 1/2+x,1/2-y,1/2+z
5 -x,-y,-z
6 1/2-x,1/2-y,-z
7 -x,y,1/2-z
8 1/2-x,1/2+y,1/2-z
_cell_length_a                   21.126(3)
_cell_length_b                   10.511(2)
_cell_length_c                   23.643(3)
_cell_angle_alpha                90
_cell_angle_beta                 94.21(2)
_cell_angle_gamma                90
_cell_volume                     5235.89
loop_
_atom_site_label
_atom_site_type_symbol
_atom_site_fract_x
_atom_site_fract_y
_atom_site_fract_z
Ag1 Ag 0.246130(14) -0.69935(3) 0.747900(12)
N1 N 0.29432(16) -0.5821(3) 0.82061(14)
C1 C 1.17575(19) -0.0017(4) 1.16366(15)
C2 C 1.13712(19) -0.1106(3) 1.14403(15)
H1 H 1.1107 -0.1358 1.1740
H2 H 1.1651 -0.1813 1.1372
C3 C 1.09513(17) -0.0863(3) 1.09080(14)
H3 H 1.1209 -0.0553 1.0614
H4 H 1.0646 -0.0205 1.0982
C4 C 1.05946(18) -0.2063(3) 1.06947(15)
H5 H 1.0899 -0.2739 1.0648
H6 H 1.0315 -0.2337 1.0979
C5 C 1.02058(18) -0.1863(3) 1.01369(15)
H7 H 1.0483 -0.1546 0.9859
H8 H 0.9889 -0.1214 1.0190
C6 C 0.98715(17) -0.3064(3) 0.99011(15)
H9 H 1.0188 -0.3710 0.9842
H10 H 0.9596 -0.3387 1.0179
C7 C 0.94806(17) -0.2829(3) 0.93469(15)
H11 H 0.9758 -0.2509 0.9071
H12 H 0.9169 -0.2174 0.9407
C8 C 0.91359(16) -0.4001(3) 0.91015(14)
H13 H 0.9443 -0.4660 0.9036
H14 H 0.8853 -0.4324 0.9373
C9 C 0.87566(18) -0.3694(3) 0.85496(16)
H15 H 0.8453 -0.3031 0.8620
H16 H 0.9043 -0.3361 0.8283
C10 C 0.84148(18) -0.4781(4) 0.82891(16)
N2 N 0.18488(17) -0.5625(3) 0.69127(15)
N3 N 0.68923(18) -0.8091(3) 0.80600(18)
C11 C 0.6600(2) -0.8617(5) 0.8358(2)
C12 C 0.6211(3) -0.9306(6) 0.8749(2)
H17 H 0.5874 -0.8746 0.8853
H18 H 0.6474 -0.9496 0.9092
C13 C 0.5926(3) -1.0492(5) 0.8531(2)
H19 H 0.6265 -1.1104 0.8497
H20 H 0.5657 -1.0818 0.8814
C14 C 0.5544(3) -1.0452(5) 0.7982(2)
H21 H 0.5834 -1.0257 0.7695
H22 H 0.5260 -0.9730 0.7998
C15 C 0.5167(3) -1.1507(6) 0.7775(3)
H23 H 0.4556 -1.2244 0.7210
H24 H 0.5146 -1.1657 0.6952
N4 N 0.18284(17) -0.8479(4) 0.78749(15)
C16 C 0.83308(19) -0.9155(4) 0.67856(17)
C17 C 0.8499(2) -0.9941(4) 0.63159(16)
H25 H 0.8919 -1.0296 0.6401
H26 H 0.8201 -1.0641 0.6266
C18 C 0.84920(19) -0.9179(4) 0.57696(16)
H27 H 0.8594 -0.9740 0.5463
H28 H 0.8818 -0.8529 0.5810
C19 C 0.78567(18) -0.8550(4) 0.56146(15)
H29 H 0.7762 -0.7981 0.5920
H30 H 0.7532 -0.9203 0.5588
C20 C 0.7817(2) -0.7812(4) 0.50727(18)
H31 H 0.6858 -0.7841 0.4902
H32 H 0.7092 -0.6620 0.5234
Ag1E Ag 1.253870(14) 0.19935(3) 1.252100(12)
N1E N 1.20568(16) 0.0821(3) 1.17939(14)
N2F N 0.81512(17) -0.5625(3) 0.80873(15)
Ag1F Ag 0.753870(14) -0.69935(3) 0.752100(12)
N1F N 0.70568(16) -0.5821(3) 0.67939(14)
C1C C 0.67575(19) -0.4983(4) 0.66366(15)
C2C C 0.63712(19) -0.3894(3) 0.64403(15)
H1C H 0.6107 -0.3642 0.6740
H2C H 0.6651 -0.3187 0.6372
C3C C 0.59513(17) -0.4137(3) 0.59080(14)
H3C H 0.6209 -0.4447 0.5614
H4C H 0.5646 -0.4795 0.5982
C4C C 0.55946(18) -0.2937(3) 0.56947(15)
H5C H 0.5899 -0.2261 0.5648
H6C H 0.5315 -0.2663 0.5979
C5C C 0.52058(18) -0.3137(3) 0.51369(15)
H7C H 0.5483 -0.3454 0.4859
H8C H 0.4889 -0.3786 0.5190
C6C C 0.48715(17) -0.1936(3) 0.49011(15)
H9C H 0.5188 -0.1290 0.4842
H10C H 0.4596 -0.1613 0.5179
C7C C 0.44806(17) -0.2171(3) 0.43469(15)
H11C H 0.4758 -0.2491 0.4071
H12C H 0.4169 -0.2826 0.4407
C8C C 0.41359(16) -0.0999(3) 0.41015(14)
H13C H 0.4443 -0.0340 0.4036
H14C H 0.3853 -0.0676 0.4373
C9C C 0.37566(18) -0.1306(3) 0.35496(16)
H15C H 0.3453 -0.1969 0.3620
H16C H 0.4043 -0.1639 0.3283
C10C C 0.34148(18) -0.0219(4) 0.32891(16)
N2E N 0.31512(17) 0.0625(3) 0.30873(15)
Ag1E_2 Ag 0.253870(14) 0.19935(3) 0.252100(12)
C15F C 0.4833(3) -1.1507(6) 0.7225(3)
C14F C 0.4456(3) -1.0452(5) 0.7018(2)
C13F C 0.4074(3) -1.0492(5) 0.6469(2)
C12F C 0.3789(3) -0.9306(6) 0.6251(2)
C11F C 0.3400(2) -0.8617(5) 0.6642(2)
N3F N 0.31077(18) -0.8091(3) 0.69400(18)
H17F H 0.4126 -0.8746 0.6147
H18F H 0.3526 -0.9496 0.5908
H19F H 0.3735 -1.1104 0.6503
H20F H 0.4343 -1.0818 0.6186
H21F H 0.4166 -1.0257 0.7305
H22F H 0.4740 -0.9730 0.7002
H23F H 0.5444 -1.2244 0.7790
H24F H 0.4854 -1.1657 0.8048
N4F N 0.81716(17) -0.8479(4) 0.71251(15)
C20E C 0.7183(2) -0.7188(4) 0.49273(18)
C19E C 0.71433(18) -0.6450(4) 0.43854(15)
C18E C 0.65080(19) -0.5821(4) 0.42304(16)
C17E C 0.6501(2) -0.5059(4) 0.36841(16)
C16E C 0.66692(19) -0.5845(4) 0.32144(17)
N4C N 0.68284(17) -0.6521(4) 0.28749(15)
Ag1C Ag 0.746130(14) -0.80065(3) 0.247900(12)
H25E H 0.6081 -0.4704 0.3599
H26E H 0.6799 -0.4359 0.3734
H27E H 0.6406 -0.5260 0.4537
H28E H 0.6182 -0.6471 0.4190
H29E H 0.7238 -0.7019 0.4080
H30E H 0.7468 -0.5797 0.4412
H31E H 0.8142 -0.7159 0.5098
H32E H 0.7908 -0.8380 0.4766
P1 P 0.2500 0.7500 0.0000
F1 F 0.24458(16) 0.8790(3) 0.03334(13)
F2 F 0.31900(14) 0.7247(3) 0.02835(14)
F3 F 0.22167(17) 0.6788(3) 0.05018(16)
F1E F 0.25542(16) 0.6210(3) -0.03334(13)
F2E F 0.18100(14) 0.7753(3) -0.02835(14)
F3E F 0.27833(17) 0.8212(3) -0.05018(16)
P2 P 0.0000 0.10905(15) 0.2500
F4 F 0.0079(3) 0.2088(6) 0.2960(3)
F5 F 0.07370(15) 0.1069(6) 0.24664(18)
F6 F 0.0079(3) 0.0010(6) 0.2948(3)
F4F F -0.0079(3) 0.2088(6) 0.2040(3)
F5F F -0.07370(15) 0.1069(6) 0.25336(18)
F6F F -0.0079(3) 0.0010(6) 0.2052(3)
F7? F 0.0469(9) 0.2175(14) 0.2549(8)
F8? F -0.0010(5) 0.1106(13) 0.1852(4)
F9? F 0.0494(8) 0.0048(13) 0.2532(6)
loop_
_geom_bond_atom_site_label_1
_geom_bond_atom_site_label_2
_geom_bond_site_symmetry_1
_geom_bond_site_symmetry_2
Ag1 N1 1_555 1_555
C1 C2 1_555 1_555
C2 H1 1_555 1_555
H2 C2 1_555 1_555
C3 C2 1_555 1_555
H3 C3 1_555 1_555
H4 C3 1_555 1_555
C4 C3 1_555 1_555
H5 C4 1_555 1_555
H6 C4 1_555 1_555
C5 C4 1_555 1_555
H7 C5 1_555 1_555
H8 C5 1_555 1_555
C6 C5 1_555 1_555
H9 C6 1_555 1_555
H10 C6 1_555 1_555
C7 C6 1_555 1_555
H11 C7 1_555 1_555
H12 C7 1_555 1_555
C8 C7 1_555 1_555
H13 C8 1_555 1_555
H14 C8 1_555 1_555
C9 C8 1_555 1_555
H15 C9 1_555 1_555
H16 C9 1_555 1_555
C10 C9 1_555 1_555
N2 Ag1 1_555 1_555
N3 C11 1_555 1_555
C11 C12 1_555 1_555
C12 H17 1_555 1_555
H18 C12 1_555 1_555
C13 C12 1_555 1_555
H19 C13 1_555 1_555
H20 C13 1_555 1_555
C14 C13 1_555 1_555
H21 C14 1_555 1_555
H22 C14 1_555 1_555
C15 C14 1_555 1_555
H23 C15F 1_555 1_555
H24 C15F 1_555 1_555
N4 Ag1 1_555 1_555
C16 C17 1_555 1_555
C17 H25 1_555 1_555
H26 C17 1_555 1_555
C18 C17 1_555 1_555
H27 C18 1_555 1_555
H28 C18 1_555 1_555
C19 C18 1_555 1_555
H29 C19 1_555 1_555
H30 C19 1_555 1_555
C20 C19 1_555 1_555
H31 C20E 1_555 1_555
H32 C20E 1_555 1_555
P1 F1 1_555 1_555
F2 P1 1_555 1_555
F3 P1 1_555 1_555
P2 F4 1_555 1_555
F5 P2 1_555 1_555
F6 P2 1_555 1_555
Ag1E N1E 1_555 1_555
N1E C1 1_555 1_555
N2F C10 1_555 1_555
Ag1F N3 1_555 1_555
N1F Ag1F 1_555 1_555
C1C N1F 1_555 1_555
C2C C1C 1_555 1_555
H1C C2C 1_555 1_555
H2C C2C 1_555 1_555
C3C C2C 1_555 1_555
H3C C3C 1_555 1_555
H4C C3C 1_555 1_555
C4C C3C 1_555 1_555
H5C C4C 1_555 1_555
H6C C4C 1_555 1_555
C5C C4C 1_555 1_555
H7C C5C 1_555 1_555
H8C C5C 1_555 1_555
C6C C5C 1_555 1_555
H9C C6C 1_555 1_555
H10C C6C 1_555 1_555
C7C C6C 1_555 1_555
H11C C7C 1_555 1_555
H12C C7C 1_555 1_555
C8C C7C 1_555 1_555
H13C C8C 1_555 1_555
H14C C8C 1_555 1_555
C9C C8C 1_555 1_555
H15C C9C 1_555 1_555
H16C C9C 1_555 1_555
C10C C9C 1_555 1_555
N2E C10C 1_555 1_555
Ag1E_2 N2E 1_555 1_555
C15F C15 1_555 1_555
C14F C15F 1_555 1_555
C13F C14F 1_555 1_555
C12F C13F 1_555 1_555
C11F C12F 1_555 1_555
N3F Ag1 1_555 1_555
H17F C12F 1_555 1_555
H18F C12F 1_555 1_555
H19F C13F 1_555 1_555
H20F C13F 1_555 1_555
H21F C14F 1_555 1_555
H22F C14F 1_555 1_555
H23F C15 1_555 1_555
H24F C15 1_555 1_555
N4F C16 1_555 1_555
C20E C20 1_555 1_555
C19E C20E 1_555 1_555
C18E C19E 1_555 1_555
C17E C18E 1_555 1_555
C16E C17E 1_555 1_555
N4C C16E 1_555 1_555
Ag1C N4C 1_555 1_555
H25E C17E 1_555 1_555
H26E C17E 1_555 1_555
H27E C18E 1_555 1_555
H28E C18E 1_555 1_555
H29E C19E 1_555 1_555
H30E C19E 1_555 1_555
H31E C20 1_555 1_555
H32E C20 1_555 1_555
F1E P1 1_555 1_555
F2E P1 1_555 1_555
F3E P1 1_555 1_555
F4F P2 1_555 1_555
F5F P2 1_555 1_555
F6F P2 1_555 1_555
N2F Ag1F 1_555 1_555
Ag1F N4F 1_555 1_555
C11F N3F 1_555 1_555

#END
