
#######################################################################
#
#                 Cambridge Crystallographic Data Centre
#                                CCDC 
#
#######################################################################
#
# If this CIF has been generated from an entry in the Cambridge 
# Structural Database, then it will include bibliographic, chemical, 
# crystal, experimental, refinement or atomic coordinate data resulting 
# from the CCDC's data processing and validation procedures.
#
#######################################################################

data_GEHQIT
_symmetry_cell_setting           trigonal
_symmetry_space_group_name_H-M   'P -3 c 1'
_symmetry_Int_Tables_number      165
_space_group_name_Hall           '-P 3 2"c'
loop_
_symmetry_equiv_pos_site_id
_symmetry_equiv_pos_as_xyz
1 x,y,z
2 -y,x-y,z
3 -x+y,-x,z
4 y,x,1/2-z
5 -x+y,y,1/2+z
6 x,x-y,1/2+z
7 -x,-y,-z
8 y,-x+y,-z
9 x-y,x,-z
10 -y,-x,1/2+z
11 x-y,-y,1/2-z
12 -x,-x+y,1/2-z
_cell_length_a                   9.9000(10)
_cell_length_b                   9.9000(10)
_cell_length_c                   28.019(2)
_cell_angle_alpha                90
_cell_angle_beta                 90
_cell_angle_gamma                120
_cell_volume                     2378.23
loop_
_atom_site_label
_atom_site_type_symbol
_atom_site_fract_x
_atom_site_fract_y
_atom_site_fract_z
Ag1 Ag 0.78195(11) 0.0000 0.2500
N1 N 0.8706(9) 0.1234(9) 0.1866(2)
C1 C 0.9325(11) 0.2064(10) 0.1570(3)
C2 C 1.0076(11) 0.3152(10) 0.1169(3)
H1 H 1.1192 0.3752 0.1224
H2 H 0.9903 0.2561 0.0877
C3 C 0.9465(11) 0.4227(11) 0.1111(3)
H3 H 0.9673 0.4842 0.1399
H4 H 0.8343 0.3624 0.1068
C4 C 1.0185(12) 0.5324(10) 0.0685(3)
H5 H 0.9878 0.6113 0.0697
H6 H 1.1312 0.5849 0.0712
C5 C 0.9714(14) 0.4514(11) 0.0214(3)
H7 H 1.0065 0.3759 0.0202
H8 H 0.8584 0.3937 0.0200
C5F C 1.0286(14) 0.5486(11) -0.0214(3)
C4F C 0.9815(12) 0.4676(10) -0.0685(3)
C3F C 1.0535(11) 0.5773(11) -0.1111(3)
C2F C 0.9924(11) 0.6848(10) -0.1169(3)
C1F C 1.0675(11) 0.7936(10) -0.1570(3)
N1F N 1.1294(9) 0.8766(9) -0.1866(2)
Ag1F Ag 1.21805(11) 1.0000 -0.2500
N1D N 1.2528(13) 1.1234(9) -0.3134(2)
C1D C 1.2739(15) 1.2064(10) -0.3430(3)
C2D C 1.3076(15) 1.3152(10) -0.3831(3)
H1D H 1.2560 1.3752 -0.3776
H2D H 1.2658 1.2561 -0.4123
C3D C 1.4762(16) 1.4227(11) -0.3889(3)
H3D H 1.5169 1.4842 -0.3601
H4D H 1.5281 1.3624 -0.3932
C4D C 1.5139(16) 1.5324(10) -0.4315(3)
H5D H 1.6235 1.6113 -0.4303
H6D H 1.4537 1.5849 -0.4288
C5D C 1.4800(18) 1.4514(11) -0.4786(3)
C5J C 1.5200(18) 1.5486(11) -0.5214(3)
C4J C 1.4861(16) 1.4676(10) -0.5685(3)
C3J C 1.5238(16) 1.5773(11) -0.6111(3)
C2J C 1.6924(15) 1.6848(10) -0.6169(3)
C1J C 1.7261(15) 1.7936(10) -0.6570(3)
N1J N 1.7472(13) 1.8766(9) -0.6866(2)
Ag1J Ag 1.78195(11) 2.0000 -0.7500
H1J H 1.7440 1.6248 -0.6224
H2J H 1.7342 1.7439 -0.5877
H3J H 1.4831 1.5158 -0.6399
H4J H 1.4719 1.6376 -0.6068
H5J H 1.3765 1.3887 -0.5697
H6J H 1.5463 1.4151 -0.5712
H7J H 1.6306 1.6241 -0.5202
H8J H 1.4647 1.6063 -0.5200
H7D H 1.3694 1.3759 -0.4798
H8D H 1.5353 1.3937 -0.4800
H1F H 0.8808 0.6248 -0.1224
H2F H 1.0097 0.7439 -0.0877
H3F H 1.0327 0.5158 -0.1399
H4F H 1.1657 0.6376 -0.1068
H5F H 1.0122 0.3887 -0.0697
H6F H 0.8688 0.4151 -0.0712
H7F H 0.9935 0.6241 -0.0202
H8F H 1.1416 0.6063 -0.0200
N1J_2 N 0.7472(13) -0.1234(9) 0.3134(2)
As1 As 1.0000 0.0000 0.5000
F1 F 0.9964(8) 0.1388(7) 0.5334(3)
F1A F 0.8612(7) -0.1424(11) 0.5334(3)
F1B F 1.1424(11) 0.0036(8) 0.5334(3)
F1F F 1.0036(8) -0.1388(7) 0.4666(3)
F1G F 1.1388(7) 0.1424(11) 0.4666(3)
F1H F 0.8576(11) -0.0036(8) 0.4666(3)
As2 As 0.6667 0.3333 0.27924(6)
F4 F 0.812(3) 0.289(4) 0.2812(5)
F6 F 0.523(3) 0.377(4) 0.2801(5)
F4A F 0.711(4) 0.523(5) 0.2812(5)
F4B F 0.477(5) 0.188(3) 0.2812(5)
F6A F 0.623(4) 0.146(5) 0.2801(5)
F6B F 0.854(5) 0.477(3) 0.2801(5)
F2? F 0.6667 0.3333 0.3414(3)
F3? F 0.6667 0.3333 0.2206(3)
F5? F 0.532(3) 0.1409(17) 0.2789(5)
F7? F 0.723(4) 0.202(3) 0.2870(4)
loop_
_geom_bond_atom_site_label_1
_geom_bond_atom_site_label_2
_geom_bond_site_symmetry_1
_geom_bond_site_symmetry_2
Ag1 N1 1_555 1_555
N1 C1 1_555 1_555
C1 C2 1_555 1_555
C2 H1 1_555 1_555
H2 C2 1_555 1_555
C3 C2 1_555 1_555
H3 C3 1_555 1_555
H4 C3 1_555 1_555
C4 C3 1_555 1_555
H5 C4 1_555 1_555
H6 C4 1_555 1_555
C5 C4 1_555 1_555
H7 C5 1_555 1_555
H8 C5 1_555 1_555
As1 F1 1_555 1_555
As2 F4 1_555 1_555
F6 As2 1_555 1_555
C5F C5 1_555 1_555
C4F C5F 1_555 1_555
C3F C4F 1_555 1_555
C2F C3F 1_555 1_555
C1F C2F 1_555 1_555
N1F C1F 1_555 1_555
Ag1F N1F 1_555 1_555
N1D Ag1F 1_555 1_555
C1D N1D 1_555 1_555
C2D C1D 1_555 1_555
H1D C2D 1_555 1_555
H2D C2D 1_555 1_555
C3D C2D 1_555 1_555
H3D C3D 1_555 1_555
H4D C3D 1_555 1_555
C4D C3D 1_555 1_555
H5D C4D 1_555 1_555
H6D C4D 1_555 1_555
C5D C4D 1_555 1_555
C5J C5D 1_555 1_555
C4J C5J 1_555 1_555
C3J C4J 1_555 1_555
C2J C3J 1_555 1_555
C1J C2J 1_555 1_555
N1J C1J 1_555 1_555
Ag1J N1J 1_555 1_555
H1J C2J 1_555 1_555
H2J C2J 1_555 1_555
H3J C3J 1_555 1_555
H4J C3J 1_555 1_555
H5J C4J 1_555 1_555
H6J C4J 1_555 1_555
H7J C5J 1_555 1_555
H8J C5J 1_555 1_555
H7D C5D 1_555 1_555
H8D C5D 1_555 1_555
H1F C2F 1_555 1_555
H2F C2F 1_555 1_555
H3F C3F 1_555 1_555
H4F C3F 1_555 1_555
H5F C4F 1_555 1_555
H6F C4F 1_555 1_555
H7F C5F 1_555 1_555
H8F C5F 1_555 1_555
N1J_2 Ag1 1_555 1_555
F1A As1 1_555 1_555
F1B As1 1_555 1_555
F1F As1 1_555 1_555
F1G As1 1_555 1_555
F1H As1 1_555 1_555
F4A As2 1_555 1_555
F4B As2 1_555 1_555
F6A As2 1_555 1_555
F6B As2 1_555 1_555

#END
