
#######################################################################
#
#                 Cambridge Crystallographic Data Centre
#                                CCDC 
#
#######################################################################
#
# If this CIF has been generated from an entry in the Cambridge 
# Structural Database, then it will include bibliographic, chemical, 
# crystal, experimental, refinement or atomic coordinate data resulting 
# from the CCDC's data processing and validation procedures.
#
#######################################################################

data_GEHREQ
_symmetry_cell_setting           orthorhombic
_symmetry_space_group_name_H-M   'P n n a'
_symmetry_Int_Tables_number      52
_space_group_name_Hall           '-P 2a 2bc'
loop_
_symmetry_equiv_pos_site_id
_symmetry_equiv_pos_as_xyz
1 x,y,z
2 -x,1/2+y,1/2+z
3 1/2+x,1/2-y,1/2+z
4 1/2-x,-y,z
5 -x,-y,-z
6 x,1/2-y,1/2-z
7 1/2-x,1/2+y,1/2-z
8 1/2+x,y,-z
_cell_length_a                   11.269(3)
_cell_length_b                   9.198(2)
_cell_length_c                   12.104(3)
_cell_angle_alpha                90
_cell_angle_beta                 90
_cell_angle_gamma                90
_cell_volume                     1254.61
loop_
_atom_site_label
_atom_site_type_symbol
_atom_site_fract_x
_atom_site_fract_y
_atom_site_fract_z
Tl1 Tl 0.23597(9) 0.2500 0.2500
I1 I 0.1050(2) 0.3492(2) 0.0781(1)
Br1 Br 0.4735(2) 0.2500 0.2500
O1 O 0.25000 0.5000 0.344(2)
N1 N 0.25000 0.5000 0.453(2)
C1 C 0.343(2) 0.440(3) 0.510(2)
C2 C 0.347(2) 0.443(3) 0.624(2)
C3 C 0.25000 0.5000 0.683(3)
C4 C 0.25000 0.5000 0.809(3)
C2C C 0.153(2) 0.557(3) 0.624(2)
C1C C 0.157(2) 0.560(3) 0.510(2)
I1E I 0.1050(2) 0.1508(2) 0.4219(1)
O1E O 0.25000 0.0000 0.156(2)
Tl1C Tl 0.26403(9) 0.7500 0.2500
loop_
_geom_bond_atom_site_label_1
_geom_bond_atom_site_label_2
_geom_bond_site_symmetry_1
_geom_bond_site_symmetry_2
Tl1 I1 1_555 1_555
Br1 Tl1 1_555 1_555
O1 Tl1 1_555 1_555
N1 O1 1_555 1_555
C1 N1 1_555 1_555
C2 C1 1_555 1_555
C3 C2 1_555 1_555
C4 C3 1_555 1_555
C2C C3 1_555 1_555
C1C N1 1_555 1_555
I1E Tl1 1_555 1_555
O1E Tl1 1_555 1_555
Tl1C O1 1_555 1_555
C2C C1C 1_555 1_555

#END
