
#######################################################################
#
#                 Cambridge Crystallographic Data Centre
#                                CCDC 
#
#######################################################################
#
# If this CIF has been generated from an entry in the Cambridge 
# Structural Database, then it will include bibliographic, chemical, 
# crystal, experimental, refinement or atomic coordinate data resulting 
# from the CCDC's data processing and validation procedures.
#
#######################################################################

data_GEHSAN
_symmetry_cell_setting           monoclinic
_symmetry_space_group_name_H-M   'B 1 1 2/b'
_symmetry_Int_Tables_number      15
_space_group_name_Hall           '-B 2n'
loop_
_symmetry_equiv_pos_site_id
_symmetry_equiv_pos_as_xyz
1 x,y,z
2 1/2+x,y,1/2+z
3 -x,1/2-y,z
4 1/2-x,1/2-y,1/2+z
5 -x,-y,-z
6 1/2-x,-y,1/2-z
7 x,1/2+y,-z
8 1/2+x,1/2+y,1/2-z
_cell_length_a                   11.302(4)
_cell_length_b                   13.735(4)
_cell_length_c                   13.530(4)
_cell_angle_alpha                90
_cell_angle_beta                 90
_cell_angle_gamma                97.17
_cell_volume                     2083.88
loop_
_atom_site_label
_atom_site_type_symbol
_atom_site_fract_x
_atom_site_fract_y
_atom_site_fract_z
Fe1 Fe 0.2500 0.5000 0.2500
C1 C 0.0806(4) 0.4785(3) 0.2707(3)
C2 C 0.2581(4) 0.3618(3) 0.2755(3)
C3 C 0.2361(3) 0.4704(3) 0.1101(3)
N1 N -0.0216(3) 0.4661(3) 0.2878(3)
N2 N 0.2612(4) 0.2791(3) 0.2916(3)
N3 N 0.2350(3) 0.4505(3) 0.0263(3)
N4 N -0.0775(3) 0.3064(2) 0.4538(3)
N5 N 0.0782(3) 0.3198(3) 0.5813(3)
C4 C 0.0017(4) 0.3736(3) 0.5174(3)
C5 C -0.1521(4) 0.2363(3) 0.5180(3)
C6 C 0.0000 0.2500 0.6429(4)
C7 C 0.0000 0.2500 0.3926(4)
Ca1 Ca -0.2251(1) 0.3960(1) 0.3492(1)
O1 O -0.2555(3) 0.5700(2) 0.3274(2)
O2 O -0.4428(4) 0.3631(4) 0.3604(4)
H1 H 0.0295 0.4462 0.4886
H2 H -0.0380 0.3794 0.5894
H3 H -0.1542 0.2922 0.5739
H4 H -0.2422 0.2072 0.4983
H5 H 0.0554 0.2122 0.6930
H6 H -0.0567 0.1919 0.3571
H7 H -0.3259 0.5921 0.3631
H8 H -0.1846 0.6079 0.3485
C1E C 0.4194(4) 0.5215(3) 0.2293(3)
C2E C 0.2419(4) 0.6382(3) 0.2245(3)
C3E C 0.2639(3) 0.5296(3) 0.3899(3)
Ca1B Ca 0.2251(1) 0.1040(1) 0.3492(1)
Ca1A Ca 0.2749(1) 0.3960(1) -0.1508(1)
C5B C 0.1521(4) 0.2637(3) 0.5180(3)
N5B N -0.0782(3) 0.1802(3) 0.5813(3)
H5B H -0.0554 0.2878 0.6930
H6B H 0.0567 0.3081 0.3571
N4B N 0.0775(3) 0.1936(2) 0.4538(3)
O1E O -0.2445(3) 0.4300(2) 0.1726(2)
N2B N -0.2612(4) 0.2209(3) 0.2916(3)
N3A N -0.2650(3) 0.4505(3) 0.5263(3)
Ca1E Ca -0.2749(1) 0.6040(1) 0.1508(1)
N1E N 0.5216(3) 0.5339(3) 0.2122(3)
N2E N 0.2388(4) 0.7209(3) 0.2084(3)
N3E N 0.2650(3) 0.5495(3) 0.4737(3)
H3B H 0.1542 0.2078 0.5739
H4B H 0.2422 0.2928 0.4983
C4B C -0.0017(4) 0.1264(3) 0.5174(3)
H7E H -0.1741 0.4079 0.1369
H8E H -0.3154 0.3921 0.1515
Ca1E_2 Ca 0.7251(1) 0.6040(1) 0.1508(1)
Ca1G Ca 0.2749(1) 0.8960(1) 0.1508(1)
Ca1D Ca 0.2251(1) 0.6040(1) 0.6508(1)
H1B H -0.0295 0.0538 0.4886
H2B H 0.0380 0.1206 0.5894
N1G N 0.4784(3) 0.9661(3) 0.2122(3)
N3F N 0.2350(3) 0.9505(3) -0.0263(3)
N4G N 0.4225(3) 0.8064(2) 0.0462(3)
O1B O 0.2555(3) 0.9300(2) 0.3274(2)
O1G O 0.2445(3) 1.0700(2) 0.1726(2)
O2G O 0.0572(4) 0.8631(4) 0.1396(4)
H7G H 0.1741 1.0921 0.1369
H8G H 0.3154 1.1079 0.1515
H7B H 0.3259 0.9079 0.3631
H8B H 0.1846 0.8921 0.3485
O3 O 0.4621(5) 0.8631(5) 0.4319(5)
H9 H 0.4398 0.9328 0.4706
H10 H 0.4979 0.8004 0.3954
loop_
_geom_bond_atom_site_label_1
_geom_bond_atom_site_label_2
_geom_bond_site_symmetry_1
_geom_bond_site_symmetry_2
Fe1 C1 1_555 1_555
C1 N1 1_555 1_555
C2 Fe1 1_555 1_555
C3 Fe1 1_555 1_555
N1 Ca1 1_555 1_555
N2 C2 1_555 1_555
N3 C3 1_555 1_555
N4 C4 1_555 1_555
N5 C4 1_555 1_555
C4 H1 1_555 1_555
C5 N4 1_555 1_555
C6 N5 1_555 1_555
C7 N4 1_555 1_555
Ca1 N4 1_555 1_555
O1 Ca1 1_555 1_555
O2 Ca1 1_555 1_555
O3 H9 1_555 1_555
H2 C4 1_555 1_555
H3 C5 1_555 1_555
H4 C5 1_555 1_555
H5 C6 1_555 1_555
H6 C7 1_555 1_555
H7 O1 1_555 1_555
H8 O1 1_555 1_555
H10 O3 1_555 1_555
C1E Fe1 1_555 1_555
C2E Fe1 1_555 1_555
C3E Fe1 1_555 1_555
Ca1B N2 1_555 1_555
Ca1A N3 1_555 1_555
C5B N5 1_555 1_555
N5B C5 1_555 1_555
H5B C6 1_555 1_555
H6B C7 1_555 1_555
N4B C7 1_555 1_555
O1E Ca1 1_555 1_555
N2B Ca1 1_555 1_555
N3A Ca1 1_555 1_555
Ca1E O1 1_555 1_555
N1E C1E 1_555 1_555
N2E C2E 1_555 1_555
N3E C3E 1_555 1_555
H3B C5B 1_555 1_555
H4B C5B 1_555 1_555
C4B N5B 1_555 1_555
H7E O1E 1_555 1_555
H8E O1E 1_555 1_555
Ca1E_2 N1E 1_555 1_555
Ca1G N2E 1_555 1_555
Ca1D N3E 1_555 1_555
H1B C4B 1_555 1_555
H2B C4B 1_555 1_555
N1G Ca1G 1_555 1_555
N3F Ca1G 1_555 1_555
N4G Ca1G 1_555 1_555
O1B Ca1G 1_555 1_555
O1G Ca1G 1_555 1_555
O2G Ca1G 1_555 1_555
H7G O1G 1_555 1_555
H8G O1G 1_555 1_555
H7B O1B 1_555 1_555
H8B O1B 1_555 1_555
C6 N5B 1_555 1_555
Ca1B N4B 1_555 1_555
C5B N4B 1_555 1_555
N4B C4B 1_555 1_555
O1E Ca1E 1_555 1_555

#END
