
#######################################################################
#
#                 Cambridge Crystallographic Data Centre
#                                CCDC 
#
#######################################################################
#
# If this CIF has been generated from an entry in the Cambridge 
# Structural Database, then it will include bibliographic, chemical, 
# crystal, experimental, refinement or atomic coordinate data resulting 
# from the CCDC's data processing and validation procedures.
#
#######################################################################

data_GEJRIW
_symmetry_cell_setting           orthorhombic
_symmetry_space_group_name_H-M   'P n a 21'
_symmetry_Int_Tables_number      33
_space_group_name_Hall           'P 2c -2n'
loop_
_symmetry_equiv_pos_site_id
_symmetry_equiv_pos_as_xyz
1 x,y,z
2 -x,-y,1/2+z
3 1/2-x,1/2+y,1/2+z
4 1/2+x,1/2-y,z
_cell_length_a                   9.511(1)
_cell_length_b                   23.636(2)
_cell_length_c                   8.146(1)
_cell_angle_alpha                90
_cell_angle_beta                 90
_cell_angle_gamma                90
_cell_volume                     1831.24
loop_
_atom_site_label
_atom_site_type_symbol
_atom_site_fract_x
_atom_site_fract_y
_atom_site_fract_z
P1 P 1.0794(1) 0.4657 1.0000
C1 C 1.0834(4) 0.3915(1) 1.0618(4)
C2 C 1.1892(3) 0.3516(1) 1.0201(5)
C3 C 1.1797(4) 0.2959(1) 1.0735(5)
C4 C 1.0691(4) 0.2766(1) 1.1677(4)
C5 C 0.9657(4) 0.3149(1) 1.2072(5)
C6 C 0.9697(3) 0.3711(1) 1.1579(4)
C7 C 1.3144(5) 0.3680(2) 0.9156(7)
C8 C 1.0600(5) 0.2155(2) 1.2246(7)
C9 C 0.8522(4) 0.4103(2) 1.2084(7)
O1 O 0.8348(3) 0.3947(1) 0.7078(4)
C10 C 0.9473(5) 0.3582(2) 0.6576(6)
C11 C 0.9002(7) 0.2991(2) 0.7042(8)
C12 C 0.7446(7) 0.3034(2) 0.7030(8)
C13 C 0.7167(6) 0.3620(2) 0.7607(8)
C14 C 0.5843(4) 0.5099(2) 0.7998(6)
O2 O 0.7171(3) 0.5029(1) 0.8831(3)
C15 C 0.5281(5) 0.5668(2) 0.8488(7)
C16 C 0.6467(6) 0.5957(2) 0.9350(7)
C17 C 0.7386(5) 0.5497(2) 0.9924(8)
Li1 Li 0.8848(6) 0.4730(2) 0.7700(7)
H1 H 0.9638(5) 0.3612(2) 0.5268(6)
H2 H 1.0432(5) 0.3692(2) 0.7210(6)
H3 H 0.9384(7) 0.2877(2) 0.8245(8)
H4 H 0.9362(7) 0.2684(2) 0.6155(8)
H5 H 0.7037(7) 0.2972(2) 0.5807(8)
H6 H 0.6983(7) 0.2728(2) 0.7851(8)
H7 H 0.7080(6) 0.3630(2) 0.8928(8)
H8 H 0.6209(6) 0.3781(2) 0.7068(8)
H9 H 0.5995(4) 0.5082(2) 0.6685(6)
H10 H 0.5120(4) 0.4771(2) 0.8365(6)
H11 H 0.4392(5) 0.5621(2) 0.9300(7)
H12 H 0.4968(5) 0.5906(2) 0.7417(7)
H13 H 0.6080(6) 0.6201(2) 1.0375(7)
H14 H 0.7028(6) 0.6231(2) 0.8517(7)
H15 H 0.7107(5) 0.5377(2) 1.1162(8)
H16 H 0.8472(5) 0.5630(2) 0.9892(8)
H17 H 1.289(4) 0.388(2) 0.821(5)
H18 H 1.369(4) 0.336(2) 0.889(5)
H19 H 1.376(5) 0.399(2) 0.956(6)
H20 H 0.964(7) 0.203(2) 1.244(7)
H21 H 1.111(5) 0.194(2) 1.152(7)
H22 H 1.113(7) 0.208(3) 1.34(1)
H23 H 0.891(4) 0.446(2) 1.272(5)
H24 H 0.815(4) 0.427(2) 1.118(5)
H25 H 0.782(4) 0.391(2) 1.274(5)
H26 H 1.252(3) 0.270(1) 1.042(4)
H27 H 0.889(4) 0.304(2) 1.267(5)
H28 H 1.212(3) 0.467(1) 0.928(4)
Li1A Li 1.1152(6) 0.5270(2) 1.2700(7)
P1A P 0.9206(1) 0.5343 0.5000
P1A_2 P 0.9206(1) 0.5343 1.5000
O1A O 1.1652(3) 0.6053(1) 1.2078(4)
O2A O 1.2829(3) 0.4971(1) 1.3831(3)
C1A C 0.9166(4) 0.6085(1) 0.5618(4)
Li1A_2 Li 1.1152(6) 0.5270(2) 0.2700(7)
H28A H 0.788(3) 0.533(1) 0.428(4)
C10A C 1.0527(5) 0.6418(2) 1.1576(6)
C13A C 1.2833(6) 0.6380(2) 1.2607(8)
C14A C 1.4157(4) 0.4901(2) 1.2998(6)
C17A C 1.2614(5) 0.4503(2) 1.4924(8)
C2A C 0.8108(3) 0.6484(1) 0.5201(5)
C6A C 1.0303(3) 0.6289(1) 0.6579(4)
C11A C 1.0998(7) 0.7009(2) 1.2042(8)
H1A H 1.0362(5) 0.6388(2) 1.0268(6)
H2A H 0.9568(5) 0.6308(2) 1.2210(6)
C12A C 1.2554(7) 0.6966(2) 1.2030(8)
H7A H 1.2920(6) 0.6370(2) 1.3928(8)
H8A H 1.3791(6) 0.6219(2) 1.2068(8)
C15A C 1.4719(5) 0.4332(2) 1.3488(7)
H9A H 1.4005(4) 0.4918(2) 1.1685(6)
H10A H 1.4880(4) 0.5229(2) 1.3365(6)
C16A C 1.3533(6) 0.4043(2) 1.4350(7)
H15A H 1.2893(5) 0.4623(2) 1.6162(8)
H16A H 1.1528(5) 0.4370(2) 1.4892(8)
C3A C 0.8203(4) 0.7041(1) 0.5735(5)
C7A C 0.6856(5) 0.6320(2) 0.4156(7)
C5A C 1.0343(4) 0.6851(1) 0.7072(5)
C9A C 1.1478(4) 0.5897(2) 0.7084(7)
H3A H 1.0616(7) 0.7123(2) 1.3245(8)
H4A H 1.0638(7) 0.7316(2) 1.1155(8)
H5A H 1.2963(7) 0.7028(2) 1.0807(8)
H6A H 1.3017(7) 0.7272(2) 1.2851(8)
H11A H 1.5608(5) 0.4379(2) 1.4300(7)
H12A H 1.5032(5) 0.4094(2) 1.2417(7)
H13A H 1.3920(6) 0.3799(2) 1.5375(7)
H14A H 1.2972(6) 0.3769(2) 1.3517(7)
C4A C 0.9309(4) 0.7234(1) 0.6677(4)
H26A H 0.748(3) 0.730(1) 0.542(4)
H17A H 0.711(4) 0.612(2) 0.321(5)
H18A H 0.631(4) 0.664(2) 0.389(5)
H19A H 0.624(5) 0.601(2) 0.456(6)
H27A H 1.111(4) 0.696(2) 0.767(5)
H23A H 1.109(4) 0.554(2) 0.772(5)
H24A H 1.185(4) 0.573(2) 0.618(5)
H25A H 1.218(4) 0.609(2) 0.774(5)
C8A C 0.9400(5) 0.7845(2) 0.7246(7)
H20A H 1.036(7) 0.797(2) 0.744(7)
H21A H 0.889(5) 0.806(2) 0.652(7)
H22A H 0.887(7) 0.792(3) 0.84(1)
loop_
_geom_bond_atom_site_label_1
_geom_bond_atom_site_label_2
_geom_bond_site_symmetry_1
_geom_bond_site_symmetry_2
P1 C1 1_555 1_555
C1 C2 1_555 1_555
C2 C3 1_555 1_555
C3 C4 1_555 1_555
C4 C5 1_555 1_555
C5 C6 1_555 1_555
C6 C1 1_555 1_555
C7 C2 1_555 1_555
C8 C4 1_555 1_555
C9 C6 1_555 1_555
O1 C10 1_555 1_555
C10 C11 1_555 1_555
C11 C12 1_555 1_555
C12 C13 1_555 1_555
C13 O1 1_555 1_555
C14 O2 1_555 1_555
O2 C17 1_555 1_555
C15 C14 1_555 1_555
C16 C15 1_555 1_555
C17 C16 1_555 1_555
Li1 P1 1_555 1_555
H1 C10 1_555 1_555
H2 C10 1_555 1_555
H3 C11 1_555 1_555
H4 C11 1_555 1_555
H5 C12 1_555 1_555
H6 C12 1_555 1_555
H7 C13 1_555 1_555
H8 C13 1_555 1_555
H9 C14 1_555 1_555
H10 C14 1_555 1_555
H11 C15 1_555 1_555
H12 C15 1_555 1_555
H13 C16 1_555 1_555
H14 C16 1_555 1_555
H15 C17 1_555 1_555
H16 C17 1_555 1_555
H17 C7 1_555 1_555
H18 C7 1_555 1_555
H19 C7 1_555 1_555
H20 C8 1_555 1_555
H21 C8 1_555 1_555
H22 C8 1_555 1_555
H23 C9 1_555 1_555
H24 C9 1_555 1_555
H25 C9 1_555 1_555
H26 C3 1_555 1_555
H27 C5 1_555 1_555
H28 P1 1_555 1_555
Li1A P1 1_555 1_555
P1A Li1 1_555 1_555
P1A_2 Li1A 1_555 1_555
O1A Li1A 1_555 1_555
O2A Li1A 1_555 1_555
C1A P1A 1_555 1_555
Li1A_2 P1A 1_555 1_555
H28A P1A 1_555 1_555
C10A O1A 1_555 1_555
C13A O1A 1_555 1_555
C14A O2A 1_555 1_555
C17A O2A 1_555 1_555
C2A C1A 1_555 1_555
C6A C1A 1_555 1_555
C11A C10A 1_555 1_555
H1A C10A 1_555 1_555
H2A C10A 1_555 1_555
C12A C13A 1_555 1_555
H7A C13A 1_555 1_555
H8A C13A 1_555 1_555
C15A C14A 1_555 1_555
H9A C14A 1_555 1_555
H10A C14A 1_555 1_555
C16A C17A 1_555 1_555
H15A C17A 1_555 1_555
H16A C17A 1_555 1_555
C3A C2A 1_555 1_555
C7A C2A 1_555 1_555
C5A C6A 1_555 1_555
C9A C6A 1_555 1_555
H3A C11A 1_555 1_555
H4A C11A 1_555 1_555
H5A C12A 1_555 1_555
H6A C12A 1_555 1_555
H11A C15A 1_555 1_555
H12A C15A 1_555 1_555
H13A C16A 1_555 1_555
H14A C16A 1_555 1_555
C4A C3A 1_555 1_555
H26A C3A 1_555 1_555
H17A C7A 1_555 1_555
H18A C7A 1_555 1_555
H19A C7A 1_555 1_555
H27A C5A 1_555 1_555
H23A C9A 1_555 1_555
H24A C9A 1_555 1_555
H25A C9A 1_555 1_555
C8A C4A 1_555 1_555
H20A C8A 1_555 1_555
H21A C8A 1_555 1_555
H22A C8A 1_555 1_555
O1 Li1 1_555 1_555
O2 Li1 1_555 1_555
C11A C12A 1_555 1_555
C15A C16A 1_555 1_555
C5A C4A 1_555 1_555

#END
