
#######################################################################
#
#                 Cambridge Crystallographic Data Centre
#                                CCDC 
#
#######################################################################
#
# If this CIF has been generated from an entry in the Cambridge 
# Structural Database, then it will include bibliographic, chemical, 
# crystal, experimental, refinement or atomic coordinate data resulting 
# from the CCDC's data processing and validation procedures.
#
#######################################################################

data_GEJTOG
_symmetry_cell_setting           monoclinic
_symmetry_space_group_name_H-M   'P 21/c'
_symmetry_Int_Tables_number      14
_space_group_name_Hall           '-P 2ybc'
loop_
_symmetry_equiv_pos_site_id
_symmetry_equiv_pos_as_xyz
1 x,y,z
2 -x,1/2+y,1/2-z
3 -x,-y,-z
4 x,1/2-y,1/2+z
_cell_length_a                   13.191(7)
_cell_length_b                   7.605(4)
_cell_length_c                   22.570(12)
_cell_angle_alpha                90
_cell_angle_beta                 99.129(6)
_cell_angle_gamma                90
_cell_volume                     2235.49
loop_
_atom_site_label
_atom_site_type_symbol
_atom_site_fract_x
_atom_site_fract_y
_atom_site_fract_z
Pb1 Pb 0.364310(12) 0.65626(2) 0.028205(8)
O1 O 0.3008(2) 0.4447(4) 0.10816(13)
O2 O 0.1109(3) 0.8362(5) 0.20071(15)
N1 N 0.1713(3) 0.7114(5) 0.03386(15)
N2 N 0.0247(3) 0.7030(5) 0.07215(15)
N3 N 0.2626(2) 0.5258(5) 0.14964(14)
N4 N 0.1721(3) 0.7120(5) 0.19349(16)
N5 N 0.2894(3) 0.4935(6) -0.0653(2)
N6 N 0.3584(5) 0.2095(6) -0.0908(2)
N7 N 0.3394(4) -0.0592(6) -0.0343(2)
N8 N 0.4802(3) 0.3489(6) 0.0427(2)
N9 N 0.4777(3) 0.1357(5) 0.12359(18)
N10 N 0.3608(4) -0.1136(7) 0.1214(2)
C1 C 0.0899(3) 0.7523(6) -0.01082(19)
C2 C 0.0887(4) 0.7972(6) -0.0712(2)
H1 H 0.1488 0.8003 -0.0878
C3 C -0.0047(4) 0.8365(7) -0.1047(2)
H2 H -0.0076 0.8684 -0.1447
C4 C -0.0957(4) 0.8299(7) -0.0803(2)
H3 H -0.1575 0.8570 -0.1046
C5 C -0.0963(3) 0.7845(7) -0.0216(2)
H4 H -0.1568 0.7782 -0.0055
C6 C -0.0013(3) 0.7486(6) 0.01242(19)
C7 C 0.1291(3) 0.6850(5) 0.08223(18)
C8 C -0.0483(3) 0.6679(7) 0.1130(2)
H5 H -0.0162 0.5958 0.1456
H6 H -0.1071 0.6077 0.0918
H7 H -0.0697 0.7770 0.1285
C9 C 0.1858(3) 0.6399(6) 0.14112(18)
C10 C 0.3054(4) 0.4997(7) 0.21491(19)
C11 C 0.2415(4) 0.6318(8) 0.2456(2)
C12 C 0.4191(4) 0.5411(11) 0.2225(3)
H8 H 0.4522 0.4601 0.1991
H9 H 0.4486 0.5304 0.2640
H10 H 0.4285 0.6589 0.2091
C13 C 0.2903(7) 0.3087(8) 0.2294(3)
H11 H 0.2184 0.2810 0.2218
H12 H 0.3167 0.2876 0.2710
H13 H 0.3262 0.2361 0.2048
C14 C 0.3041(7) 0.7845(12) 0.2770(4)
H14 H 0.3464 0.8344 0.2505
H15 H 0.3467 0.7420 0.3126
H16 H 0.2583 0.8729 0.2878
C15 C 0.1733(7) 0.5529(16) 0.2855(4)
H17 H 0.1328 0.6438 0.2998
H18 H 0.2146 0.4965 0.3190
H19 H 0.1288 0.4678 0.2633
C16 C 0.3216(4) 0.3576(7) -0.0755(2)
C17 C 0.3466(4) 0.0688(7) -0.0592(2)
C18 C 0.4753(3) 0.2444(7) 0.0794(2)
C19 C 0.4140(4) 0.0054(7) 0.1198(2)
Pb1_2 Pb 0.364310(12) -0.34374(2) 0.028205(8)
Pb1B Pb 0.635690(12) 0.34374(2) -0.028205(8)
N7_2 N 0.3394(4) 0.9408(6) -0.0343(2)
N8B N 0.5198(3) 0.6511(6) -0.0427(2)
N10_2 N 0.3608(4) 0.8864(7) 0.1214(2)
loop_
_geom_bond_atom_site_label_1
_geom_bond_atom_site_label_2
_geom_bond_site_symmetry_1
_geom_bond_site_symmetry_2
Pb1 O1 1_555 1_555
O1 N3 1_555 1_555
O2 N4 1_555 1_555
N1 Pb1 1_555 1_555
N2 C6 1_555 1_555
N3 C9 1_555 1_555
N4 C9 1_555 1_555
N5 Pb1 1_555 1_555
N6 C16 1_555 1_555
N7 C17 1_555 1_555
N8 Pb1 1_555 1_555
N9 C18 1_555 1_555
N10 C19 1_555 1_555
C1 N1 1_555 1_555
C2 C1 1_555 1_555
H1 C2 1_555 1_555
C3 C2 1_555 1_555
H2 C3 1_555 1_555
C4 C3 1_555 1_555
H3 C4 1_555 1_555
C5 C4 1_555 1_555
H4 C5 1_555 1_555
C6 C1 1_555 1_555
C7 N1 1_555 1_555
C8 N2 1_555 1_555
H5 C8 1_555 1_555
H6 C8 1_555 1_555
H7 C8 1_555 1_555
C9 C7 1_555 1_555
C10 N3 1_555 1_555
C11 N4 1_555 1_555
C12 C10 1_555 1_555
H8 C12 1_555 1_555
H9 C12 1_555 1_555
H10 C12 1_555 1_555
C13 C10 1_555 1_555
H11 C13 1_555 1_555
H12 C13 1_555 1_555
H13 C13 1_555 1_555
C14 C11 1_555 1_555
H14 C14 1_555 1_555
H15 C14 1_555 1_555
H16 C14 1_555 1_555
C15 C11 1_555 1_555
H17 C15 1_555 1_555
H18 C15 1_555 1_555
H19 C15 1_555 1_555
C16 N5 1_555 1_555
C17 N6 1_555 1_555
C18 N8 1_555 1_555
C19 N9 1_555 1_555
Pb1_2 N7 1_555 1_555
Pb1B N8 1_555 1_555
N7_2 Pb1 1_555 1_555
N8B Pb1 1_555 1_555
N10_2 Pb1 1_555 1_555
N2 C7 1_555 1_555
N10 Pb1_2 1_555 1_555
C5 C6 1_555 1_555
C10 C11 1_555 1_555
Pb1B N8B 1_555 1_555

#END
