
#######################################################################
#
#                 Cambridge Crystallographic Data Centre
#                                CCDC 
#
#######################################################################
#
# If this CIF has been generated from an entry in the Cambridge 
# Structural Database, then it will include bibliographic, chemical, 
# crystal, experimental, refinement or atomic coordinate data resulting 
# from the CCDC's data processing and validation procedures.
#
#######################################################################

data_GEKHIN
_symmetry_cell_setting           triclinic
_symmetry_space_group_name_H-M   'P -1'
_symmetry_Int_Tables_number      2
_space_group_name_Hall           '-P 1'
loop_
_symmetry_equiv_pos_site_id
_symmetry_equiv_pos_as_xyz
1 x,y,z
2 -x,-y,-z
_cell_length_a                   14.319(6)
_cell_length_b                   7.912(5)
_cell_length_c                   4.558(2)
_cell_angle_alpha                114.69(4)
_cell_angle_beta                 90.47(4)
_cell_angle_gamma                90.36(4)
_cell_volume                     469.135
loop_
_atom_site_label
_atom_site_type_symbol
_atom_site_fract_x
_atom_site_fract_y
_atom_site_fract_z
Mn1 Mn 0.0000 0.0000 0.0000
O1 O 0.1379(2) 0.0898(4) -0.1028(7)
C1 C -0.2576(3) 0.3964(6) -0.1085(10)
C2 C -0.3253(3) 0.4666(6) 0.1329(11)
C3 C -0.4097(4) 0.3710(8) 0.1073(16)
C4 C -0.4268(4) 0.2083(9) -0.1539(19)
C5 C -0.3597(4) 0.1373(8) -0.3904(17)
C6 C -0.2755(3) 0.2303(6) -0.3695(12)
O2 O -0.1778(2) 0.4966(3) -0.0781(7)
C7 C -0.1083(3) 0.4234(5) -0.3226(9)
C8 C -0.0525(3) 0.2647(5) -0.3040(8)
O3 O -0.0730(2) 0.2105(4) -0.0927(6)
O4 O 0.0129(2) 0.2050(3) -0.5029(6)
N1 N -0.3112(3) 0.6351(5) 0.4252(9)
O5 O -0.3664(4) 0.6788(8) 0.6553(15)
O6 O -0.2332(4) 0.7087(8) 0.4940(13)
H1 H -0.4542 0.3851 0.2561
H2 H -0.5011 0.1969 -0.1058
H3 H -0.3640 0.0083 -0.5881
H4 H -0.2317 0.2140 -0.5684
H5 H -0.1379 0.3662 -0.5199
H6 H -0.0590 0.5494 -0.2754
H7 H 0.1687 0.1191 0.0386
H8 H 0.1193 0.1348 -0.2300
O1A O -0.1379(2) -0.0898(4) 0.1028(7)
H7A H -0.1687 -0.1191 -0.0386
H8A H -0.1193 -0.1348 0.2300
C1A C 0.2576(3) -0.3964(6) 0.1085(10)
C2A C 0.3253(3) -0.4666(6) -0.1329(11)
C3A C 0.4097(4) -0.3710(8) -0.1073(16)
C4A C 0.4268(4) -0.2083(9) 0.1539(19)
C5A C 0.3597(4) -0.1373(8) 0.3904(17)
C6A C 0.2755(3) -0.2303(6) 0.3695(12)
O2A O 0.1778(2) -0.4966(3) 0.0781(7)
C7A C 0.1083(3) -0.4234(5) 0.3226(9)
C8A C 0.0525(3) -0.2647(5) 0.3040(8)
O3A O 0.0730(2) -0.2105(4) 0.0927(6)
O4A O -0.0129(2) -0.2050(3) 0.5029(6)
N1A N 0.3112(3) -0.6351(5) -0.4252(9)
O5A O 0.3664(4) -0.6788(8) -0.6553(15)
O6A O 0.2332(4) -0.7087(8) -0.4940(13)
H1A H 0.4542 -0.3851 -0.2561
H2A H 0.5011 -0.1969 0.1058
H3A H 0.3640 -0.0083 0.5881
H4A H 0.2317 -0.2140 0.5684
H5A H 0.1379 -0.3662 0.5199
H6A H 0.0590 -0.5494 0.2754
O4_2 O 0.0129(2) 0.2050(3) 0.4971(6)
O4A_2 O -0.0129(2) -0.2050(3) -0.4971(6)
Mn1_2 Mn 0.0000 0.0000 -1.0000
Mn1_3 Mn 0.0000 0.0000 1.0000
loop_
_geom_bond_atom_site_label_1
_geom_bond_atom_site_label_2
_geom_bond_site_symmetry_1
_geom_bond_site_symmetry_2
Mn1 O1 1_555 1_555
O1 H7 1_555 1_555
C1 C2 1_555 1_555
C2 C3 1_555 1_555
C3 C4 1_555 1_555
C4 C5 1_555 1_555
C5 C6 1_555 1_555
C6 C1 1_555 1_555
O2 C1 1_555 1_555
C7 O2 1_555 1_555
C8 C7 1_555 1_555
O3 Mn1 1_555 1_555
O4 C8 1_555 1_555
N1 C2 1_555 1_555
O5 N1 1_555 1_555
O6 N1 1_555 1_555
H1 C3 1_555 1_555
H2 C4 1_555 1_555
H3 C5 1_555 1_555
H4 C6 1_555 1_555
H5 C7 1_555 1_555
H6 C7 1_555 1_555
H8 O1 1_555 1_555
O1A Mn1 1_555 1_555
H7A O1A 1_555 1_555
H8A O1A 1_555 1_555
C1A C2A 1_555 1_555
C2A C3A 1_555 1_555
C3A C4A 1_555 1_555
C4A C5A 1_555 1_555
C5A C6A 1_555 1_555
C6A C1A 1_555 1_555
O2A C1A 1_555 1_555
C7A O2A 1_555 1_555
C8A C7A 1_555 1_555
O3A Mn1 1_555 1_555
O4A C8A 1_555 1_555
N1A C2A 1_555 1_555
O5A N1A 1_555 1_555
O6A N1A 1_555 1_555
H1A C3A 1_555 1_555
H2A C4A 1_555 1_555
H3A C5A 1_555 1_555
H4A C6A 1_555 1_555
H5A C7A 1_555 1_555
H6A C7A 1_555 1_555
O4_2 Mn1 1_555 1_555
O4A_2 Mn1 1_555 1_555
Mn1_2 O4 1_555 1_555
Mn1_3 O4A 1_555 1_555
C8 O3 1_555 1_555
C8A O3A 1_555 1_555

#END
