
#######################################################################
#
#                 Cambridge Crystallographic Data Centre
#                                CCDC 
#
#######################################################################
#
# If this CIF has been generated from an entry in the Cambridge 
# Structural Database, then it will include bibliographic, chemical, 
# crystal, experimental, refinement or atomic coordinate data resulting 
# from the CCDC's data processing and validation procedures.
#
#######################################################################

data_GEKQUI02
_symmetry_cell_setting           monoclinic
_symmetry_space_group_name_H-M   'C 2/c'
_symmetry_Int_Tables_number      15
_space_group_name_Hall           '-C 2yn'
loop_
_symmetry_equiv_pos_site_id
_symmetry_equiv_pos_as_xyz
1 x,y,z
2 -x,y,1/2-z
3 1/2+x,1/2+y,z
4 1/2-x,1/2+y,1/2-z
5 -x,-y,-z
6 x,-y,1/2+z
7 1/2-x,1/2-y,-z
8 1/2+x,1/2-y,1/2+z
_cell_length_a                   20.747(6)
_cell_length_b                   12.292(3)
_cell_length_c                   7.198(2)
_cell_angle_alpha                90
_cell_angle_beta                 109.656(3)
_cell_angle_gamma                90
_cell_volume                     1728.68
loop_
_atom_site_label
_atom_site_type_symbol
_atom_site_fract_x
_atom_site_fract_y
_atom_site_fract_z
K1 K 0.5000 0.12884(4) 0.2500
K2 K 0.5000 0.35369(5) -0.2500
C1 C 0.36354(7) 0.25601(12) -0.1177(2)
O1 O 0.42585(5) 0.27633(9) -0.03003(18)
C2 C 0.33746(7) 0.15762(11) -0.2260(2)
N1 N 0.38297(6) 0.07463(10) -0.24982(18)
O2 O 0.44348(6) 0.07524(12) -0.14797(19)
O3 O 0.36000(6) 0.00321(10) -0.3737(2)
C3 C 0.26822(7) 0.13804(12) -0.3158(2)
H1 H 0.2532 0.0730 -0.3824
C4 C 0.22191(7) 0.21541(12) -0.3057(2)
N2 N 0.15048(6) 0.19435(13) -0.4009(2)
O4 O 0.10912(6) 0.26651(12) -0.4025(2)
O5 O 0.13239(7) 0.10634(12) -0.4822(3)
C5 C 0.24366(8) 0.31488(14) -0.2105(2)
H2 H 0.2118 0.3677 -0.2081
C6 C 0.31136(8) 0.33355(13) -0.1219(2)
H3 H 0.3248 0.4003 -0.0603
O6 O 0.5000 0.56718(19) -0.2500
H4 H 0.5297(14) 0.605(2) -0.169(4)
H4A H 0.4703(14) 0.605(2) -0.331(4)
C1A C 0.63646(7) 0.25601(12) -0.3823(2)
O1A O 0.57415(5) 0.27633(9) -0.46997(18)
C2A C 0.66254(7) 0.15762(11) -0.2740(2)
N1A N 0.61703(6) 0.07463(10) -0.25018(18)
O2A O 0.55652(6) 0.07524(12) -0.35203(19)
O3A O 0.64000(6) 0.00321(10) -0.1263(2)
C3A C 0.73178(7) 0.13804(12) -0.1842(2)
H1A H 0.7468 0.0730 -0.1176
C4A C 0.77809(7) 0.21541(12) -0.1943(2)
N2A N 0.84952(6) 0.19435(13) -0.0991(2)
O4A O 0.89088(6) 0.26651(12) -0.0975(2)
O5A O 0.86761(7) 0.10634(12) -0.0178(3)
C5A C 0.75634(8) 0.31488(14) -0.2895(2)
H2A H 0.7882 0.3677 -0.2919
C6A C 0.68864(8) 0.33355(13) -0.3781(2)
H3A H 0.6752 0.4003 -0.4397
K1_2 K 0.5000 0.12884(4) -0.7500
K1D K 0.5000 -0.12884(4) -0.2500
K1F K 0.0000 0.37116(4) -0.2500
K1F_2 K 1.0000 0.37116(4) -0.2500
K2F K 0.0000 0.14631(5) -0.7500
K2F_2 K 1.0000 0.14631(5) 0.2500
O1A_2 O 0.57415(5) 0.27633(9) 0.53003(18)
O2A_2 O 0.55652(6) 0.07524(12) 0.64797(19)
O2D O 0.55652(6) -0.07524(12) 0.14797(19)
O2E O 0.44348(6) -0.07524(12) 0.35203(19)
O3D O 0.64000(6) -0.00321(10) 0.3737(2)
O3E O 0.36000(6) -0.00321(10) 0.1263(2)
O4F O 0.39088(6) 0.23349(12) -0.5975(2)
O4F_2 O 0.39088(6) 0.23349(12) 0.4025(2)
O4G O 0.60912(6) 0.23349(12) 0.0975(2)
O5F O 0.36761(7) 0.39366(12) -0.5178(3)
O5G O 0.63239(7) 0.39366(12) 0.0178(3)
loop_
_geom_bond_atom_site_label_1
_geom_bond_atom_site_label_2
_geom_bond_site_symmetry_1
_geom_bond_site_symmetry_2
K1 O1 1_555 1_555
K2 O1 1_555 1_555
C1 O1 1_555 1_555
C2 C1 1_555 1_555
N1 C2 1_555 1_555
O2 K1 1_555 1_555
O3 N1 1_555 1_555
C3 C2 1_555 1_555
H1 C3 1_555 1_555
C4 C3 1_555 1_555
N2 C4 1_555 1_555
O4 N2 1_555 1_555
O5 N2 1_555 1_555
C5 C4 1_555 1_555
H2 C5 1_555 1_555
C6 C1 1_555 1_555
H3 C6 1_555 1_555
O6 K2 1_555 1_555
H4 O6 1_555 1_555
H4A O6 1_555 1_555
C1A O1A 1_555 1_555
O1A K2 1_555 1_555
C2A C1A 1_555 1_555
N1A C2A 1_555 1_555
O2A N1A 1_555 1_555
O3A N1A 1_555 1_555
C3A C2A 1_555 1_555
H1A C3A 1_555 1_555
C4A C3A 1_555 1_555
N2A C4A 1_555 1_555
O4A N2A 1_555 1_555
O5A N2A 1_555 1_555
C5A C4A 1_555 1_555
H2A C5A 1_555 1_555
C6A C1A 1_555 1_555
H3A C6A 1_555 1_555
K1_2 O1A 1_555 1_555
K1D O2 1_555 1_555
K1F O4 1_555 1_555
K1F_2 O4A 1_555 1_555
K2F O4 1_555 1_555
K2F_2 O4A 1_555 1_555
O1A_2 K1 1_555 1_555
O2A_2 K1 1_555 1_555
O2D K1 1_555 1_555
O2E K1 1_555 1_555
O3D K1 1_555 1_555
O3E K1 1_555 1_555
O4F K2 1_555 1_555
O4F_2 K1 1_555 1_555
O4G K1 1_555 1_555
O5F K2 1_555 1_555
O5G K2 1_555 1_555
K2 O4G 1_555 1_555
N1 O2 1_555 1_555
O3 K1D 1_555 1_555
O5 K2F 1_555 1_555
C5 C6 1_555 1_555
O2A K1_2 1_555 1_555
O2A K1D 1_555 1_555
O3A K1D 1_555 1_555
O5A K2F_2 1_555 1_555
C5A C6A 1_555 1_555
K1_2 O4F 1_555 1_555
K1D O2D 1_555 1_555

#END
