
#######################################################################
#
#                 Cambridge Crystallographic Data Centre
#                                CCDC 
#
#######################################################################
#
# If this CIF has been generated from an entry in the Cambridge 
# Structural Database, then it will include bibliographic, chemical, 
# crystal, experimental, refinement or atomic coordinate data resulting 
# from the CCDC's data processing and validation procedures.
#
#######################################################################

data_GEKQUI01
_symmetry_cell_setting           monoclinic
_symmetry_space_group_name_H-M   'C 2/c'
_symmetry_Int_Tables_number      15
_space_group_name_Hall           '-C 2yn'
loop_
_symmetry_equiv_pos_site_id
_symmetry_equiv_pos_as_xyz
1 x,y,z
2 1/2+x,1/2+y,z
3 -x,y,1/2-z
4 1/2-x,1/2+y,1/2-z
5 -x,-y,-z
6 1/2-x,1/2-y,-z
7 x,-y,1/2+z
8 1/2+x,1/2-y,1/2+z
_cell_length_a                   20.789(3)
_cell_length_b                   12.311(2)
_cell_length_c                   7.203(1)
_cell_angle_alpha                90
_cell_angle_beta                 109.611(15)
_cell_angle_gamma                90
_cell_volume                     1736.55
loop_
_atom_site_label
_atom_site_type_symbol
_atom_site_fract_x
_atom_site_fract_y
_atom_site_fract_z
K1 K 0.0000 0.37115(6) 0.2500
K2 K 0.0000 0.14628(7) -0.2500
O1 O -0.07426(8) 0.22343(13) -0.0305(3)
O2 O -0.05675(8) 0.42447(16) -0.1485(3)
O3 O -0.13986(9) 0.49707(14) -0.3732(3)
O4 O -0.36771(9) 0.39342(17) -0.4819(3)
O5 O -0.39088(9) 0.23351(17) -0.4023(3)
O6 O 0.0000 -0.0672(3) -0.2500
N1 N -0.11702(9) 0.42554(16) -0.2497(3)
N2 N -0.34942(10) 0.30614(19) -0.4012(3)
C1 C -0.13662(12) 0.24374(18) -0.1185(3)
C2 C -0.16225(11) 0.34238(17) -0.2260(3)
C3 C -0.23164(11) 0.36170(19) -0.3157(3)
H1 H -0.2467 0.4265 -0.3824
C4 C -0.27762(11) 0.2846(2) -0.3050(3)
C5 C -0.25623(12) 0.1855(2) -0.2101(4)
H2 H -0.2881 0.1330 -0.2078
C6 C -0.18875(12) 0.1665(2) -0.1216(4)
H3 H -0.1754 0.1000 -0.0595
H4 H -0.0281(18) -0.106(3) -0.332(5)
K1F K 0.0000 0.62885(6) -0.2500
K1G K -0.5000 0.12885(6) -0.2500
K1F_2 K 0.0000 0.62885(6) 0.7500
K1G_2 K 0.5000 0.12885(6) 0.7500
K2G K -0.5000 0.35372(7) -0.7500
K2_2 K 0.0000 0.14628(7) 0.7500
K2G_2 K 0.5000 0.35372(7) 1.2500
O1B O 0.07426(8) 0.22343(13) 0.5305(3)
O1B_2 O 0.07426(8) 0.22343(13) -0.4695(3)
O2B O 0.05675(8) 0.42447(16) 0.6485(3)
O2F O -0.05675(8) 0.57553(16) 0.3515(3)
O2D O 0.05675(8) 0.57553(16) 0.1485(3)
O3B O 0.13986(9) 0.49707(14) 0.8732(3)
O3F O -0.13986(9) 0.50293(14) 0.1268(3)
O3D O 0.13986(9) 0.50293(14) 0.3732(3)
O4B O 0.36771(9) 0.39342(17) 0.9819(3)
O4G O 0.13229(9) 0.10658(17) 0.0181(3)
O4E O -0.13229(9) 0.10658(17) -0.5181(3)
O5B O 0.39088(9) 0.23351(17) 0.9023(3)
O5G O 0.10912(9) 0.26649(17) 0.0977(3)
O5E O -0.10912(9) 0.26649(17) 0.4023(3)
O5E_2 O -0.10912(9) 0.26649(17) -0.5977(3)
N1B N 0.11702(9) 0.42554(16) 0.7497(3)
N2B N 0.34942(10) 0.30614(19) 0.9012(3)
C1B C 0.13662(12) 0.24374(18) 0.6185(3)
C2B C 0.16225(11) 0.34238(17) 0.7260(3)
C3B C 0.23164(11) 0.36170(19) 0.8157(3)
H1B H 0.2467 0.4265 0.8824
C4B C 0.27762(11) 0.2846(2) 0.8050(3)
C5B C 0.25623(12) 0.1855(2) 0.7101(4)
H2B H 0.2881 0.1330 0.7078
C6B C 0.18875(12) 0.1665(2) 0.6216(4)
H3B H 0.1754 0.1000 0.5595
H4B H 0.0281(18) -0.106(3) -0.168(5)
loop_
_geom_bond_atom_site_label_1
_geom_bond_atom_site_label_2
_geom_bond_site_symmetry_1
_geom_bond_site_symmetry_2
K1 O1 1_555 1_555
K2 O1 1_555 1_555
O1 C1 1_555 1_555
O2 K1 1_555 1_555
O3 N1 1_555 1_555
O4 N2 1_555 1_555
O5 N2 1_555 1_555
O6 K2 1_555 1_555
N1 O2 1_555 1_555
N2 C4 1_555 1_555
C1 C2 1_555 1_555
C2 N1 1_555 1_555
C3 C2 1_555 1_555
H1 C3 1_555 1_555
C4 C3 1_555 1_555
C5 C4 1_555 1_555
H2 C5 1_555 1_555
C6 C1 1_555 1_555
H3 C6 1_555 1_555
H4 O6 1_555 1_555
K1F O2 1_555 1_555
K1G O5 1_555 1_555
K1F_2 O2B 1_555 1_555
K1G_2 O5B 1_555 1_555
K2G O4 1_555 1_555
K2_2 O1B 1_555 1_555
K2G_2 O4B 1_555 1_555
O1B K1 1_555 1_555
O1B_2 K2 1_555 1_555
O2B K1 1_555 1_555
O2F K1 1_555 1_555
O2D K1 1_555 1_555
O3B K1F_2 1_555 1_555
O3F K1 1_555 1_555
O3D K1 1_555 1_555
O4B N2B 1_555 1_555
O4G K2 1_555 1_555
O4E K2 1_555 1_555
O5B K2G_2 1_555 1_555
O5G K1 1_555 1_555
O5E K1 1_555 1_555
O5E_2 K2 1_555 1_555
N1B O2B 1_555 1_555
N2B O5B 1_555 1_555
C1B O1B 1_555 1_555
C2B N1B 1_555 1_555
C3B C2B 1_555 1_555
H1B C3B 1_555 1_555
C4B N2B 1_555 1_555
C5B C4B 1_555 1_555
H2B C5B 1_555 1_555
C6B C1B 1_555 1_555
H3B C6B 1_555 1_555
H4B O6 1_555 1_555
K2 O5G 1_555 1_555
O3 K1F 1_555 1_555
O5 K2G 1_555 1_555
C5 C6 1_555 1_555
K1F O2D 1_555 1_555
K1F_2 O2F 1_555 1_555
K2_2 O5E 1_555 1_555
O3B N1B 1_555 1_555
C1B C2B 1_555 1_555
C3B C4B 1_555 1_555
C5B C6B 1_555 1_555

#END
