
#######################################################################
#
#                 Cambridge Crystallographic Data Centre
#                                CCDC 
#
#######################################################################
#
# If this CIF has been generated from an entry in the Cambridge 
# Structural Database, then it will include bibliographic, chemical, 
# crystal, experimental, refinement or atomic coordinate data resulting 
# from the CCDC's data processing and validation procedures.
#
#######################################################################

data_GEKXUQ
_symmetry_cell_setting           rhombohedral
_symmetry_space_group_name_H-M   'R -3'
_symmetry_Int_Tables_number      148
_space_group_name_Hall           '-R 3'
loop_
_symmetry_equiv_pos_site_id
_symmetry_equiv_pos_as_xyz
1 x,y,z
2 -y,x-y,z
3 -x+y,-x,z
4 2/3+x,1/3+y,1/3+z
5 2/3-y,1/3+x-y,1/3+z
6 2/3-x+y,1/3-x,1/3+z
7 1/3+x,2/3+y,2/3+z
8 1/3-y,2/3+x-y,2/3+z
9 1/3-x+y,2/3-x,2/3+z
10 -x,-y,-z
11 y,-x+y,-z
12 x-y,x,-z
13 1/3-x,2/3-y,2/3-z
14 1/3+y,2/3-x+y,2/3-z
15 1/3+x-y,2/3+x,2/3-z
16 2/3-x,1/3-y,1/3-z
17 2/3+y,1/3-x+y,1/3-z
18 2/3+x-y,1/3+x,1/3-z
_cell_length_a                   16.1706(10)
_cell_length_b                   16.1706(10)
_cell_length_c                   16.606(2)
_cell_angle_alpha                90
_cell_angle_beta                 90
_cell_angle_gamma                120.00
_cell_volume                     3760.52
loop_
_atom_site_label
_atom_site_type_symbol
_atom_site_fract_x
_atom_site_fract_y
_atom_site_fract_z
Co1 Co 0.3333 -0.3333 1.6667
Co2 Co 0.3333 -0.3333 1.45314(8)
O1 O 0.2134(3) -0.3366(3) 1.4763(3)
O2 O 0.2759(3) -0.2693(3) 1.5954(2)
C1 C 0.2070(4) -0.3066(4) 1.5467(4)
C2 C 0.1134(4) -0.3166(5) 1.5683(4)
C3 C 0.1085(5) -0.2598(6) 1.6298(5)
H1 H 0.1642 -0.2147 1.6566
C4 C 0.0201(6) -0.2711(8) 1.6509(6)
H2 H 0.0167 -0.2323 1.6914
C5 C -0.0627(5) -0.3383(7) 1.6133(6)
C6 C -0.0568(5) -0.3932(6) 1.5516(5)
H3 H -0.1126 -0.4392 1.5255
C7 C 0.0319(5) -0.3801(5) 1.5284(5)
H4 H 0.0359 -0.4151 1.4849
C8 C -0.1567(5) -0.3544(7) 1.6359(6)
H5 H -0.2087 -0.3984 1.6047
O3 O 0.3333 -0.3333 1.3340(11)
N1 N 0.3194(19) -0.435(2) 1.2191(16)
C9 C 0.345(3) -0.398(3) 1.2923(19)
C10 C 0.221(2) -0.475(4) 1.193(2)
C11 C 0.379(2) -0.463(3) 1.175(2)
Co1_2 Co -0.6667 -0.3333 1.6667
Co1_3 Co 0.3333 -1.3333 1.6667
Co1_4 Co 1.3333 0.6667 1.6667
Co2O Co -0.6666 -0.3334 1.88019(8)
Co2P Co 0.3334 -0.3333 0.88019(8)
Co2P_2 Co 0.3334 -1.3333 1.88019(8)
Co2P_3 Co 1.3334 0.6667 1.88019(8)
O1O O -0.5467(3) -0.3301(3) 1.8570(3)
O1A O 0.3366(3) -0.4500(4) 1.4763(3)
O1P O 0.3301(3) -1.2167(4) 1.8570(3)
O1B O 0.4500(4) -0.2134(3) 1.4763(3)
O1Q O 1.2167(4) 0.5467(3) 1.8570(3)
O1P_2 O -0.6699(3) -0.2167(4) 1.8570(3)
O1Q_2 O -0.7833(4) -0.4533(3) 1.8570(3)
O2O O -0.6092(3) -0.3974(3) 1.7379(2)
O2A O 0.2693(3) -0.4548(4) 1.5954(2)
O2P O 0.3974(3) -1.2119(4) 1.7379(2)
O2B O 0.4548(4) -0.2759(3) 1.5954(2)
O2Q O 1.2119(4) 0.6092(3) 1.7379(2)
O2P_2 O 0.3974(3) -0.2119(4) 1.7379(2)
O2Q_2 O 0.2119(4) -0.3908(3) 1.7379(2)
O2O_2 O 0.3908(3) -0.3974(3) 1.7379(2)
C1O C -0.5403(4) -0.3601(4) 1.7866(4)
C1A C 0.3066(4) -0.4864(6) 1.5467(4)
C1P C 0.3601(4) -1.1803(6) 1.7866(4)
C1B C 0.4864(6) -0.2070(4) 1.5467(4)
C1Q C 1.1803(6) 0.5403(4) 1.7866(4)
C2O C -0.4467(4) -0.3501(5) 1.7650(4)
C2A C 0.3166(5) -0.5700(6) 1.5683(4)
C2P C 0.3501(5) -1.0967(6) 1.7650(4)
C2B C 0.5700(6) -0.1134(4) 1.5683(4)
C2Q C 1.0967(6) 0.4467(4) 1.7650(4)
C3O C -0.4418(5) -0.4069(6) 1.7035(5)
C3A C 0.2598(6) -0.6317(8) 1.6298(5)
C3P C 0.4069(6) -1.0350(8) 1.7035(5)
C3B C 0.6317(8) -0.1085(5) 1.6298(5)
C3Q C 1.0350(8) 0.4418(5) 1.7035(5)
H1O H -0.4975 -0.4520 1.6767
H1A H 0.2147 -0.6211 1.6566
H1P H 0.4520 -1.0456 1.6767
H1B H 0.6211 -0.1642 1.6566
H1Q H 1.0456 0.4975 1.6767
C4O C -0.3534(6) -0.3956(8) 1.6824(6)
C4A C 0.2711(8) -0.7088(10) 1.6509(6)
C4P C 0.3956(8) -0.9579(10) 1.6824(6)
C4B C 0.7088(10) -0.0201(6) 1.6509(6)
C4Q C 0.9579(10) 0.3534(6) 1.6824(6)
H2O H -0.3500 -0.4344 1.6419
H2A H 0.2323 -0.7510 1.6914
H2P H 0.4344 -0.9157 1.6419
H2B H 0.7510 -0.0167 1.6914
H2Q H 0.9157 0.3500 1.6419
C5O C -0.2706(5) -0.3284(7) 1.7200(6)
C5A C 0.3383(7) -0.7244(9) 1.6133(6)
C5P C 0.3284(7) -0.9423(9) 1.7200(6)
C5B C 0.7244(9) 0.0627(5) 1.6133(6)
C5Q C 0.9423(9) 0.2706(5) 1.7200(6)
C6O C -0.2765(5) -0.2735(6) 1.7817(5)
C6A C 0.3932(6) -0.6636(8) 1.5516(5)
C6P C 0.2735(6) -1.0031(8) 1.7817(5)
C6B C 0.6636(8) 0.0568(5) 1.5516(5)
C6Q C 1.0031(8) 0.2765(5) 1.7817(5)
H3O H -0.2207 -0.2275 1.8078
H3A H 0.4392 -0.6734 1.5255
H3P H 0.2275 -0.9933 1.8078
H3B H 0.6734 0.1126 1.5255
H3Q H 0.9933 0.2207 1.8078
C7O C -0.3652(5) -0.2866(5) 1.8049(5)
C7A C 0.3801(5) -0.5880(7) 1.5284(5)
C7P C 0.2866(5) -1.0787(7) 1.8049(5)
C7B C 0.5880(7) -0.0319(5) 1.5284(5)
C7Q C 1.0787(7) 0.3652(5) 1.8049(5)
H4O H -0.3692 -0.2516 1.8484
H4A H 0.4151 -0.5490 1.4849
H4P H 0.2516 -1.1177 1.8484
H4B H 0.5490 -0.0359 1.4849
H4Q H 1.1177 0.3692 1.8484
C8O C -0.1766(5) -0.3123(7) 1.6974(6)
C8A C 0.3544(7) -0.8023(9) 1.6359(6)
C8P C 0.3123(7) -0.8644(9) 1.6974(6)
C8B C 0.8023(9) 0.1567(5) 1.6359(6)
C8Q C 0.8644(9) 0.1766(5) 1.6974(6)
H5O H -0.1246 -0.2683 1.7286
H5A H 0.3984 -0.8103 1.6047
H5P H 0.2683 -0.8564 1.7286
H5B H 0.8103 0.2087 1.6047
H5Q H 0.8564 0.1246 1.7286
O3P O 0.3334 -0.3333 0.9993(11)
O3P_2 O -0.6666 -0.3333 1.9993(11)
N1P N 0.232(2) -0.4211(28) 1.1142(16)
N1Q N 0.4211(28) -0.3473(19) 1.1142(16)
N1A N 0.435(2) -0.2456(28) 1.2191(16)
N1B N 0.2456(28) -0.3194(19) 1.2191(16)
N1O N 0.3473(19) -0.232(2) 1.1142(16)
N1Q_2 N -0.5789(28) -0.3473(19) 2.1142(16)
N1P_2 N -0.768(2) -0.4211(28) 2.1142(16)
N1O_2 N -0.6527(19) -0.232(2) 2.1142(16)
C9P C 0.269(3) -0.410(4) 1.0410(19)
C9Q C 0.410(4) -0.322(3) 1.0410(19)
C9A C 0.398(3) -0.257(4) 1.2923(19)
C9B C 0.257(4) -0.345(3) 1.2923(19)
C9O C 0.322(3) -0.269(3) 1.0410(19)
C9P_2 C -0.731(3) -0.410(4) 2.0410(19)
C9Q_2 C -0.590(4) -0.322(3) 2.0410(19)
C9O_2 C -0.678(3) -0.269(3) 2.0410(19)
C10Q C 0.363(4) -0.446(2) 1.140(2)
C10A C 0.475(4) -0.304(4) 1.193(2)
C10B C 0.304(4) -0.221(2) 1.193(2)
C10O C 0.446(2) -0.192(4) 1.140(2)
C10P C 0.192(4) -0.363(4) 1.140(2)
C10A_2 C -0.525(4) -0.304(4) 2.193(2)
C10Q_2 C -0.637(4) -0.446(2) 2.140(2)
C10_2 C -0.779(2) -0.475(4) 2.193(2)
C10P_2 C -0.808(4) -0.363(4) 2.140(2)
C10B_2 C -0.696(4) -0.221(2) 2.193(2)
C10O_2 C -0.554(2) -0.192(4) 2.140(2)
C11A C 0.463(3) -0.158(4) 1.175(2)
C11O C 0.288(2) -0.204(3) 1.158(2)
C11P C 0.204(3) -0.509(4) 1.158(2)
C11B C 0.158(4) -0.379(2) 1.175(2)
C11Q C 0.509(4) -0.288(2) 1.158(2)
C11Q_2 C -0.491(4) -0.288(2) 2.158(2)
C11P_2 C -0.796(3) -0.509(4) 2.158(2)
C11O_2 C -0.712(2) -0.204(3) 2.158(2)
loop_
_geom_bond_atom_site_label_1
_geom_bond_atom_site_label_2
_geom_bond_site_symmetry_1
_geom_bond_site_symmetry_2
Co1 O2 1_555 1_555
Co2 O1 1_555 1_555
O1 C1 1_555 1_555
O2 C1 1_555 1_555
C1 C2 1_555 1_555
C2 C3 1_555 1_555
C3 H1 1_555 1_555
C4 C3 1_555 1_555
H2 C4 1_555 1_555
C5 C4 1_555 1_555
C6 C5 1_555 1_555
H3 C6 1_555 1_555
C7 C2 1_555 1_555
H4 C7 1_555 1_555
C8 C5 1_555 1_555
H5 C8 1_555 1_555
O3 Co2 1_555 1_555
N1 C9 1_555 1_555
C9 O3 1_555 1_555
C10 N1 1_555 1_555
C11 N1 1_555 1_555
Co1_2 O2O 1_555 1_555
Co1_3 O2P 1_555 1_555
Co1_4 O2Q 1_555 1_555
Co2O O1O 1_555 1_555
Co2P O3P 1_555 1_555
Co2P_2 O1P 1_555 1_555
Co2P_3 O1Q 1_555 1_555
O1O C1O 1_555 1_555
O1A Co2 1_555 1_555
O1P C1P 1_555 1_555
O1B Co2 1_555 1_555
O1Q C1Q 1_555 1_555
O1P_2 Co2O 1_555 1_555
O1Q_2 Co2O 1_555 1_555
O2O C1O 1_555 1_555
O2A Co1 1_555 1_555
O2P C1P 1_555 1_555
O2B Co1 1_555 1_555
O2Q C1Q 1_555 1_555
O2P_2 Co1 1_555 1_555
O2Q_2 Co1 1_555 1_555
O2O_2 Co1 1_555 1_555
C1O C2O 1_555 1_555
C1A O1A 1_555 1_555
C1P C2P 1_555 1_555
C1B O1B 1_555 1_555
C1Q C2Q 1_555 1_555
C2O C3O 1_555 1_555
C2A C1A 1_555 1_555
C2P C3P 1_555 1_555
C2B C1B 1_555 1_555
C2Q C3Q 1_555 1_555
C3O H1O 1_555 1_555
C3A C2A 1_555 1_555
C3P H1P 1_555 1_555
C3B C2B 1_555 1_555
C3Q H1Q 1_555 1_555
H1A C3A 1_555 1_555
H1B C3B 1_555 1_555
C4O C3O 1_555 1_555
C4A C3A 1_555 1_555
C4P C3P 1_555 1_555
C4B C3B 1_555 1_555
C4Q C3Q 1_555 1_555
H2O C4O 1_555 1_555
H2A C4A 1_555 1_555
H2P C4P 1_555 1_555
H2B C4B 1_555 1_555
H2Q C4Q 1_555 1_555
C5O C4O 1_555 1_555
C5A C4A 1_555 1_555
C5P C4P 1_555 1_555
C5B C4B 1_555 1_555
C5Q C4Q 1_555 1_555
C6O C5O 1_555 1_555
C6A C5A 1_555 1_555
C6P C5P 1_555 1_555
C6B C5B 1_555 1_555
C6Q C5Q 1_555 1_555
H3O C6O 1_555 1_555
H3A C6A 1_555 1_555
H3P C6P 1_555 1_555
H3B C6B 1_555 1_555
H3Q C6Q 1_555 1_555
C7O C2O 1_555 1_555
C7A C2A 1_555 1_555
C7P C2P 1_555 1_555
C7B C2B 1_555 1_555
C7Q C2Q 1_555 1_555
H4O C7O 1_555 1_555
H4A C7A 1_555 1_555
H4P C7P 1_555 1_555
H4B C7B 1_555 1_555
H4Q C7Q 1_555 1_555
C8O C8 1_555 1_555
C8A C5A 1_555 1_555
C8P C5P 1_555 1_555
C8B C5B 1_555 1_555
C8Q C5Q 1_555 1_555
H5O C8O 1_555 1_555
H5A C8A 1_555 1_555
H5P C8P 1_555 1_555
H5B C8B 1_555 1_555
H5Q C8Q 1_555 1_555
O3P C9P 1_555 1_555
O3P_2 Co2O 1_555 1_555
N1P C10 1_555 1_555
N1Q C9Q 1_555 1_555
N1A C9A 1_555 1_555
N1B C9B 1_555 1_555
N1O C9O 1_555 1_555
N1Q_2 C9Q_2 1_555 1_555
N1P_2 C9P_2 1_555 1_555
N1O_2 C9O_2 1_555 1_555
C9P N1P 1_555 1_555
C9Q O3P 1_555 1_555
C9A O3 1_555 1_555
C9B O3 1_555 1_555
C9O O3P 1_555 1_555
C9P_2 O3P_2 1_555 1_555
C9Q_2 O3P_2 1_555 1_555
C9O_2 O3P_2 1_555 1_555
C10Q N1 1_555 1_555
C10A N1Q 1_555 1_555
C10B N1B 1_555 1_555
C10O N1A 1_555 1_555
C10P N1P 1_555 1_555
C10A_2 N1Q_2 1_555 1_555
C10Q_2 N1Q_2 1_555 1_555
C10_2 N1P_2 1_555 1_555
C10P_2 N1P_2 1_555 1_555
C10B_2 N1O_2 1_555 1_555
C10O_2 N1O_2 1_555 1_555
C11A N1A 1_555 1_555
C11O N1O 1_555 1_555
C11P C10 1_555 1_555
C11B N1B 1_555 1_555
C11Q N1Q 1_555 1_555
C11Q_2 N1Q_2 1_555 1_555
C11P_2 N1P_2 1_555 1_555
C11O_2 N1O_2 1_555 1_555
C6 C7 1_555 1_555
C11 C10Q 1_555 1_555
O2A C1A 1_555 1_555
O2B C1B 1_555 1_555
C5O C8O 1_555 1_555
C6O C7O 1_555 1_555
C6A C7A 1_555 1_555
C6P C7P 1_555 1_555
C6B C7B 1_555 1_555
C6Q C7Q 1_555 1_555
C8A C8P 1_555 1_555
C8B C8Q 1_555 1_555
N1P C11P 1_555 1_555
N1Q C10Q 1_555 1_555
N1A C10A 1_555 1_555
N1B C10P 1_555 1_555
N1O C10B 1_555 1_555
N1O C10O 1_555 1_555
C10A C11Q 1_555 1_555
C10B C11O 1_555 1_555
C10O C11A 1_555 1_555
C10P C11B 1_555 1_555

#END
