
#######################################################################
#
#                 Cambridge Crystallographic Data Centre
#                                CCDC 
#
#######################################################################
#
# If this CIF has been generated from an entry in the Cambridge 
# Structural Database, then it will include bibliographic, chemical, 
# crystal, experimental, refinement or atomic coordinate data resulting 
# from the CCDC's data processing and validation procedures.
#
#######################################################################

data_GEKYEA01
_symmetry_cell_setting           monoclinic
_symmetry_space_group_name_H-M   'P 21'
_symmetry_Int_Tables_number      4
_space_group_name_Hall           'P 2yb'
loop_
_symmetry_equiv_pos_site_id
_symmetry_equiv_pos_as_xyz
1 x,y,z
2 -x,1/2+y,-z
_cell_length_a                   9.329(1)
_cell_length_b                   13.312(2)
_cell_length_c                   10.186(2)
_cell_angle_alpha                90
_cell_angle_beta                 90.36(3)
_cell_angle_gamma                90
_cell_volume                     1264.95
loop_
_atom_site_label
_atom_site_type_symbol
_atom_site_fract_x
_atom_site_fract_y
_atom_site_fract_z
Cu1 Cu 0.26220(6) 0.33630(5) 0.49448(5)
P1 P 0.48143(14) 0.43932(10) 0.67525(12)
P2 P -0.00213(14) 0.25591(10) 0.33995(12)
O1 O 0.4144(4) 0.3438(3) 0.6296(3)
O2 O 0.6339(4) 0.4227(3) 0.7405(3)
O3 O 0.4010(4) 0.4929(3) 0.7906(3)
O4 O 0.3582(4) 0.4394(3) 0.3877(3)
O5 O 0.1095(4) 0.3346(4) 0.3627(3)
O6 O -0.1523(4) 0.3108(3) 0.3423(4)
O7 O -0.0013(4) 0.2083(3) 0.1976(3)
O8 O 0.1671(4) 0.2384(3) 0.6048(3)
N1 N 0.6236(6) 0.6939(4) 0.6069(5)
N2 N -0.1307(6) -0.0058(4) 0.4039(5)
C1 C 0.4968(5) 0.5272(4) 0.5485(5)
C2 C 0.4341(6) 0.5148(5) 0.4217(5)
C3 C 0.4594(6) 0.5938(4) 0.3193(5)
H1 H 0.4099 0.5749 0.2378
H2 H 0.5625 0.5996 0.3028
H3 H 0.4224 0.6584 0.3503
C4 C 0.5684(6) 0.6184(5) 0.5785(5)
C5 C 0.7549(6) 0.3878(5) 0.6619(6)
H4 H 0.7896 0.4425 0.6044
H5 H 0.7255 0.3305 0.6060
C6 C 0.8717(6) 0.3560(5) 0.7564(6)
H6 H 0.8853 0.4096 0.8228
H7 H 0.9626 0.3490 0.7076
C7 C 0.8406(8) 0.2579(6) 0.8265(7)
H8 H 0.9198 0.2421 0.8867
H9 H 0.8303 0.2039 0.7618
H10 H 0.7515 0.2644 0.8764
C8 C 0.3125(6) 0.4398(5) 0.8860(5)
H11 H 0.3734 0.4000 0.9466
H12 H 0.2450 0.3938 0.8407
C9 C 0.2314(7) 0.5195(5) 0.9606(5)
H13 H 0.1736 0.5597 0.8979
H14 H 0.3007 0.5653 1.0038
C10 C 0.1319(7) 0.4748(6) 1.0649(6)
H15 H 0.0829 0.5292 1.1113
H16 H 0.1886 0.4353 1.1276
H17 H 0.0608 0.4313 1.0223
C11 C 0.0068(6) 0.1567(4) 0.4538(5)
C12 C 0.0911(6) 0.1637(5) 0.5713(5)
C13 C 0.0981(7) 0.0734(5) 0.6614(5)
H18 H 0.1596 0.0888 0.7371
H19 H 0.1377 0.0160 0.6136
H20 H 0.0015 0.0569 0.6918
C14 C -0.0691(6) 0.0668(5) 0.4270(5)
C15 C -0.2885(6) 0.2608(5) 0.3181(5)
H21 H -0.3627 0.2905 0.3754
H22 H -0.2795 0.1887 0.3407
C16 C -0.3351(8) 0.2706(6) 0.1766(6)
H23 H -0.4288 0.2369 0.1648
H24 H -0.2648 0.2357 0.1203
C17 C -0.3484(10) 0.3801(7) 0.1310(7)
H25 H -0.3793 0.3817 0.0389
H26 H -0.2553 0.4135 0.1399
H27 H -0.4192 0.4150 0.1852
C18 C 0.1197(6) 0.1476(5) 0.1533(5)
H28 H 0.0836 0.0910 0.0995
H29 H 0.1703 0.1193 0.2306
C19 C 0.2230(6) 0.2092(5) 0.0736(6)
H30 H 0.2700 0.2595 0.1311
H31 H 0.1696 0.2458 0.0042
C20 C 0.3371(7) 0.1429(6) 0.0105(6)
H32 H 0.4027 0.1848 -0.0405
H33 H 0.2908 0.0939 -0.0476
H34 H 0.3910 0.1075 0.0792
N1A N 0.3764(6) 0.1939(4) 0.3931(5)
N2A N 0.1307(6) 0.4942(4) 0.5961(5)
Cu1A Cu 0.73780(6) 0.83630(5) 0.50552(5)
Cu1A_2 Cu -0.26220(6) -0.16370(5) 0.50552(5)
loop_
_geom_bond_atom_site_label_1
_geom_bond_atom_site_label_2
_geom_bond_site_symmetry_1
_geom_bond_site_symmetry_2
Cu1 O1 1_555 1_555
P1 O1 1_555 1_555
P2 O5 1_555 1_555
O2 P1 1_555 1_555
O3 P1 1_555 1_555
O4 Cu1 1_555 1_555
O5 Cu1 1_555 1_555
O6 P2 1_555 1_555
O7 P2 1_555 1_555
O8 Cu1 1_555 1_555
N1 C4 1_555 1_555
N2 C14 1_555 1_555
C1 P1 1_555 1_555
C2 O4 1_555 1_555
C3 C2 1_555 1_555
H1 C3 1_555 1_555
H2 C3 1_555 1_555
H3 C3 1_555 1_555
C4 C1 1_555 1_555
C5 O2 1_555 1_555
H4 C5 1_555 1_555
H5 C5 1_555 1_555
C6 C5 1_555 1_555
H6 C6 1_555 1_555
H7 C6 1_555 1_555
C7 C6 1_555 1_555
H8 C7 1_555 1_555
H9 C7 1_555 1_555
H10 C7 1_555 1_555
C8 O3 1_555 1_555
H11 C8 1_555 1_555
H12 C8 1_555 1_555
C9 C8 1_555 1_555
H13 C9 1_555 1_555
H14 C9 1_555 1_555
C10 C9 1_555 1_555
H15 C10 1_555 1_555
H16 C10 1_555 1_555
H17 C10 1_555 1_555
C11 P2 1_555 1_555
C12 O8 1_555 1_555
C13 C12 1_555 1_555
H18 C13 1_555 1_555
H19 C13 1_555 1_555
H20 C13 1_555 1_555
C14 C11 1_555 1_555
C15 O6 1_555 1_555
H21 C15 1_555 1_555
H22 C15 1_555 1_555
C16 C15 1_555 1_555
H23 C16 1_555 1_555
H24 C16 1_555 1_555
C17 C16 1_555 1_555
H25 C17 1_555 1_555
H26 C17 1_555 1_555
H27 C17 1_555 1_555
C18 O7 1_555 1_555
H28 C18 1_555 1_555
H29 C18 1_555 1_555
C19 C18 1_555 1_555
H30 C19 1_555 1_555
H31 C19 1_555 1_555
C20 C19 1_555 1_555
H32 C20 1_555 1_555
H33 C20 1_555 1_555
H34 C20 1_555 1_555
N1A Cu1 1_555 1_555
N2A Cu1 1_555 1_555
Cu1A N1 1_555 1_555
Cu1A_2 N2 1_555 1_555
C1 C2 1_555 1_555
C11 C12 1_555 1_555

#END
