
#######################################################################
#
#                 Cambridge Crystallographic Data Centre
#                                CCDC 
#
#######################################################################
#
# If this CIF has been generated from an entry in the Cambridge 
# Structural Database, then it will include bibliographic, chemical, 
# crystal, experimental, refinement or atomic coordinate data resulting 
# from the CCDC's data processing and validation procedures.
#
#######################################################################

data_GEKZUS
_symmetry_cell_setting           hexagonal
_symmetry_space_group_name_H-M   'P 65'
_symmetry_Int_Tables_number      170
_space_group_name_Hall           'P 65'
loop_
_symmetry_equiv_pos_site_id
_symmetry_equiv_pos_as_xyz
1 x,y,z
2 -y,x-y,2/3+z
3 -x+y,-x,1/3+z
4 -x,-y,1/2+z
5 y,-x+y,1/6+z
6 x-y,x,5/6+z
_cell_length_a                   12.651(3)
_cell_length_b                   12.651(3)
_cell_length_c                   19.219(10)
_cell_angle_alpha                90
_cell_angle_beta                 90
_cell_angle_gamma                120
_cell_volume                     2663.86
loop_
_atom_site_label
_atom_site_type_symbol
_atom_site_fract_x
_atom_site_fract_y
_atom_site_fract_z
Sr1 Sr 0.82563(7) 0.00124(7) 0.50576(4)
O1 O 0.9910(5) 0.1985(5) 0.5409(3)
O2 O 0.7775(5) 0.0431(5) 0.6486(3)
O3 O 0.9512(4) -0.0268(5) 0.6034(3)
N1 N 1.1251(6) 0.3768(6) 0.5899(4)
N2 N 0.6252(6) -0.0380(6) 0.5703(4)
N3 N 0.9316(7) -0.2040(6) 0.5651(4)
C1 C 1.0603(8) 0.3179(8) 0.5337(5)
C2 C 1.0644(8) 0.3761(8) 0.4714(5)
H1 H 1.0179 0.3313 0.4322
C3 C 1.1383(9) 0.5006(8) 0.4689(5)
H2 H 1.1419 0.5437 0.4277
C4 C 1.2078(8) 0.5637(7) 0.5262(5)
H3 H 1.2612 0.6495 0.5242
C5 C 1.1981(7) 0.4993(8) 0.5867(5)
C6 C 1.2672(9) 0.5607(8) 0.6515(6)
H4 H 1.2097 0.5440 0.6897
H5 H 1.3156 0.6489 0.6437
H6 H 1.3217 0.5292 0.6636
C7 C 0.6720(8) 0.0273(8) 0.6299(5)
C8 C 0.6079(7) 0.0737(8) 0.6653(5)
H7 H 0.6420 0.1224 0.7057
C9 C 0.4963(8) 0.0489(9) 0.6419(5)
H8 H 0.4526 0.0800 0.6665
C10 C 0.4459(8) -0.0202(8) 0.5832(5)
H9 H 0.3667 -0.0400 0.5679
C11 C 0.5141(8) -0.0603(8) 0.5470(5)
C12 C 0.4745(9) -0.1280(9) 0.4798(5)
H10 H 0.5169 -0.0718 0.4412
H11 H 0.3862 -0.1631 0.4743
H12 H 0.4944 -0.1936 0.4797
C13 C 0.9883(8) -0.1036(8) 0.6058(5)
C14 C 1.0860(8) -0.0908(7) 0.6461(6)
H13 H 1.1278 -0.0223 0.6760
C15 C 1.1216(9) -0.1760(9) 0.6428(5)
H14 H 1.1873 -0.1674 0.6708
C16 C 1.0609(9) -0.2770(8) 0.5978(5)
H15 H 1.0861 -0.3361 0.5947
C17 C 0.9665(9) -0.2889(8) 0.5590(5)
C18 C 0.8942(12) -0.3894(10) 0.5076(6)
H16 H 0.8087 -0.4352 0.5225
H17 H 0.9276 -0.4444 0.5053
H18 H 0.8991 -0.3539 0.4615
H19 H 0.876(11) -0.215(11) 0.533(7)
Sr1D Sr 1.00124(7) 0.17561(10) 0.67243(4)
O1E O 0.7925(7) -0.0090(5) 0.3742(3)
O2E O 0.7344(7) -0.2225(5) 0.4819(3)
O3E O 0.9780(6) -0.0488(4) 0.4367(3)
N1E N 0.7483(8) 0.1251(6) 0.4232(4)
loop_
_geom_bond_atom_site_label_1
_geom_bond_atom_site_label_2
_geom_bond_site_symmetry_1
_geom_bond_site_symmetry_2
Sr1 O1 1_555 1_555
O1 C1 1_555 1_555
O2 Sr1 1_555 1_555
O3 Sr1 1_555 1_555
N1 C1 1_555 1_555
N2 Sr1 1_555 1_555
N3 C13 1_555 1_555
C1 C2 1_555 1_555
C2 H1 1_555 1_555
C3 C2 1_555 1_555
H2 C3 1_555 1_555
C4 C3 1_555 1_555
H3 C4 1_555 1_555
C5 N1 1_555 1_555
C6 C5 1_555 1_555
H4 C6 1_555 1_555
H5 C6 1_555 1_555
H6 C6 1_555 1_555
C7 O2 1_555 1_555
C8 C7 1_555 1_555
H7 C8 1_555 1_555
C9 C8 1_555 1_555
H8 C9 1_555 1_555
C10 C9 1_555 1_555
H9 C10 1_555 1_555
C11 N2 1_555 1_555
C12 C11 1_555 1_555
H10 C12 1_555 1_555
H11 C12 1_555 1_555
H12 C12 1_555 1_555
C13 O3 1_555 1_555
C14 C13 1_555 1_555
H13 C14 1_555 1_555
C15 C14 1_555 1_555
H14 C15 1_555 1_555
C16 C15 1_555 1_555
H15 C16 1_555 1_555
C17 N3 1_555 1_555
C18 C17 1_555 1_555
H16 C18 1_555 1_555
H17 C18 1_555 1_555
H18 C18 1_555 1_555
H19 N3 1_555 1_555
Sr1D O1 1_555 1_555
O1E Sr1 1_555 1_555
O2E Sr1 1_555 1_555
O3E Sr1 1_555 1_555
N1E Sr1 1_555 1_555
O2 Sr1D 1_555 1_555
O3 Sr1D 1_555 1_555
N1 Sr1D 1_555 1_555
N2 C7 1_555 1_555
C4 C5 1_555 1_555
C10 C11 1_555 1_555
C16 C17 1_555 1_555

#END
