
#######################################################################
#
#                 Cambridge Crystallographic Data Centre
#                                CCDC 
#
#######################################################################
#
# If this CIF has been generated from an entry in the Cambridge 
# Structural Database, then it will include bibliographic, chemical, 
# crystal, experimental, refinement or atomic coordinate data resulting 
# from the CCDC's data processing and validation procedures.
#
#######################################################################

data_GELFIO
_symmetry_cell_setting           orthorhombic
_symmetry_space_group_name_H-M   'P b c 21'
_symmetry_Int_Tables_number      29
_space_group_name_Hall           'P 2c -2b'
loop_
_symmetry_equiv_pos_site_id
_symmetry_equiv_pos_as_xyz
1 x,y,z
2 -x,-y,1/2+z
3 -x,1/2+y,z
4 x,1/2-y,1/2+z
_cell_length_a                   16.1731(4)
_cell_length_b                   23.0182(6)
_cell_length_c                   23.6110(6)
_cell_angle_alpha                90
_cell_angle_beta                 90
_cell_angle_gamma                90
_cell_volume                     8789.8
loop_
_atom_site_label
_atom_site_type_symbol
_atom_site_fract_x
_atom_site_fract_y
_atom_site_fract_z
Ni1 Ni 0.03698(6) -0.48894(4) -0.31796(5)
Ni4 Ni 0.05921(7) -0.54551(4) -0.23242(5)
Ni5 Ni 0.01312(8) -0.43549(5) -0.40432(5)
O3 O 0.0680(4) -0.6021(3) -0.1685(3)
N3 N 0.1834(4) -0.5287(3) -0.2515(3)
N4 N 0.0610(4) -0.6146(3) -0.2908(4)
C3 C 0.0173(6) -0.4190(4) -0.2200(4)
N5 N -0.0089(4) -0.4288(3) -0.2751(4)
O5 O 0.1570(5) -0.5770(3) -0.1015(4)
N10 N 0.0857(5) -0.5481(3) -0.3619(4)
C7 C -0.1014(5) -0.5333(4) -0.3788(4)
N13 N 0.0490(4) -0.4635(3) -0.1929(3)
C10 C 0.0423(7) -0.3566(4) -0.1402(5)
H5 H 0.0426 -0.3199 -0.1236
C11 C 0.0181(7) -0.3629(4) -0.1941(5)
H6 H 0.0017 -0.3305 -0.2148
C12 C -0.1906(6) -0.5421(4) -0.1732(5)
H7 H -0.2147 -0.5449 -0.1376
N14 N 0.0467(9) -0.7235(4) -0.0169(5)
N16 N 0.1131(5) -0.4843(3) -0.4338(3)
C15 C 0.3485(6) -0.5139(5) -0.2782(6)
H10 H 0.4040 -0.5092 -0.2874
C17 C -0.1055(7) -0.5045(5) -0.4733(5)
H12 H -0.0831 -0.4827 -0.5027
C18 C 0.0949(6) -0.6679(4) -0.0950(4)
C19 C 0.2109(6) -0.3577(4) -0.3056(5)
H13 H 0.2524 -0.3710 -0.2816
C22 C 0.1635(6) -0.4643(5) -0.4761(5)
H14 H 0.1466 -0.4319 -0.4967
N18 N 0.1427(4) -0.4537(3) -0.3098(3)
C25 C -0.1068(6) -0.5489(4) -0.1798(5)
H17 H -0.0749 -0.5543 -0.1475
C26 C -0.2378(6) -0.5313(4) -0.2197(5)
H18 H -0.2948 -0.5274 -0.2166
C27 C -0.1646(6) -0.5746(5) -0.3895(5)
H19 H -0.1827 -0.5990 -0.3607
C32 C -0.1372(6) -0.3699(4) -0.2653(5)
H24 H -0.1363 -0.3723 -0.2260
C33 C 0.1469(6) -0.2803(4) -0.3568(5)
H25 H 0.1429 -0.2410 -0.3657
C36 C 0.2073(7) -0.5619(5) -0.4205(5)
H28 H 0.2202 -0.5964 -0.4020
C38 C 0.3246(5) -0.5557(4) -0.2400(6)
H30 H 0.3639 -0.5795 -0.2230
C39 C 0.0631(8) -0.7066(5) -0.3670(5)
H31 H 0.0651 -0.7371 -0.3927
C40 C -0.1989(6) -0.3399(4) -0.2915(5)
H32 H -0.2386 -0.3204 -0.2704
N21 N -0.0806(5) -0.3954(3) -0.3554(4)
C41 C 0.0946(6) -0.3208(4) -0.3799(4)
H33 H 0.0553 -0.3082 -0.4059
C42 C 0.2897(6) -0.4795(4) -0.3025(5)
H34 H 0.3047 -0.4514 -0.3289
N22 N -0.0733(5) -0.4996(3) -0.4211(3)
N23 N 0.1298(6) -0.7141(4) -0.1194(4)
C44 C -0.1985(6) -0.5259(4) -0.2727(5)
H36 H -0.2297 -0.5180 -0.3049
C46 C 0.2068(7) -0.3016(4) -0.3191(5)
H38 H 0.2445 -0.2759 -0.3032
C47 C 0.0667(7) -0.4043(5) -0.1094(5)
H39 H 0.0780 -0.4019 -0.0709
C50 C 0.0440(5) -0.6703(4) -0.2744(4)
H40 H 0.0309 -0.6769 -0.2366
C51 C 0.1072(7) -0.6091(4) -0.1235(5)
N25 N 0.0969(5) -0.3791(3) -0.3669(3)
C54 C 0.0451(6) -0.7175(4) -0.3106(5)
H43 H 0.0341 -0.7549 -0.2977
C56 C 0.2593(8) -0.5411(5) -0.4617(6)
H45 H 0.3080 -0.5604 -0.4710
C58 C 0.1361(5) -0.5324(4) -0.4063(4)
C60 C -0.1709(8) -0.5411(6) -0.4844(6)
H48 H -0.1968 -0.5413 -0.5196
C62 C -0.0751(5) -0.3969(3) -0.2971(4)
C63 C 0.0758(6) -0.6063(4) -0.3459(5)
C64 C -0.2016(7) -0.3391(5) -0.3490(6)
H50 H -0.2439 -0.3197 -0.3678
C65 C 0.2420(6) -0.5621(4) -0.2270(5)
H51 H 0.2263 -0.5901 -0.2008
C66 C -0.1136(6) -0.5326(4) -0.2769(4)
C70 C 0.0736(6) -0.4563(4) -0.1388(4)
H54 H 0.0964 -0.4880 -0.1200
C72 C 0.2052(5) -0.4868(4) -0.2870(4)
C73 C -0.1973(7) -0.5783(6) -0.4402(6)
H55 H -0.2383 -0.6057 -0.4472
C74 C 0.0484(7) -0.6723(4) -0.0448(4)
C79 C 0.0779(7) -0.6523(4) -0.3846(5)
H59 H 0.0895 -0.6451 -0.4225
C80 C 0.1524(5) -0.3968(3) -0.3277(4)
C81 C 0.2360(7) -0.4893(5) -0.4895(6)
H60 H 0.2704 -0.4727 -0.5166
C84 C -0.1403(7) -0.3676(5) -0.3792(5)
H62 H -0.1424 -0.3666 -0.4186
C86 C 0.1253(10) -0.7634(6) -0.0931(6)
H64 H 0.1480 -0.7962 -0.1099
C89 C 0.0888(11) -0.7684(5) -0.0419(6)
H67 H 0.0922 -0.8037 -0.0229
O7 O -0.0188(8) -0.5854(5) -0.0532(5)
C92 C 0.0086(7) -0.6220(5) -0.0177(7)
O8 O 0.0120(5) -0.6188(3) 0.0331(4)
N27 N -0.0680(4) -0.5481(3) -0.2301(4)
N28 N -0.0647(5) -0.5214(3) -0.3252(3)
Ni5A Ni -0.01312(8) -0.56451(5) 0.09568(5)
O8A O -0.0120(5) -0.3812(3) -0.4669(4)
Ni2 Ni 0.43736(7) -0.19431(4) -0.23304(5)
Ni3 Ni 0.45935(6) -0.25121(5) -0.14789(6)
Ni6 Ni 0.48481(8) -0.30441(5) -0.06129(5)
N1 N 0.5648(4) -0.1978(3) -0.2363(4)
C1 C 0.5010(6) -0.1348(5) -0.4458(5)
O1 O 0.5026(5) -0.1410(3) -0.4966(4)
N2 N 0.3994(5) -0.3612(3) -0.0985(4)
O2 O 0.4302(4) -0.1371(3) -0.2968(3)
C2 C 0.2907(5) -0.2532(4) -0.1776(4)
O4 O 0.3356(4) -0.1602(3) -0.3616(3)
N6 N 0.5756(5) -0.3430(3) -0.1109(4)
C4 C 0.4811(6) -0.3762(4) -0.2718(5)
H1 H 0.5011 -0.4083 -0.2521
N7 N 0.5655(4) -0.2150(3) -0.1402(4)
N8 N 0.4375(4) -0.1251(3) -0.1748(3)
N9 N 0.4456(4) -0.2753(3) -0.2731(3)
N11 N 0.5053(4) -0.3124(3) -0.1911(4)
C5 C 0.4609(6) -0.0241(4) -0.1554(5)
H2 H 0.4761 0.0126 -0.1683
N12 N 0.3531(4) -0.2862(3) -0.1553(3)
O6 O 0.5165(10) -0.1719(5) -0.4119(5)
C6 C 0.4165(7) -0.0765(4) -0.3755(4)
C8 C 0.4238(6) -0.0894(4) -0.0792(5)
H3 H 0.4127 -0.0964 -0.0411
C9 C 0.2545(5) -0.1756(4) -0.2358(5)
H4 H 0.2710 -0.1463 -0.2605
C13 C 0.4562(5) -0.0702(4) -0.1919(5)
H8 H 0.4662 -0.0637 -0.2302
N15 N 0.3821(6) -0.0266(4) -0.3566(4)
C14 C 0.4424(7) -0.0335(4) -0.0986(5)
H9 H 0.4425 -0.0025 -0.0733
N17 N 0.5648(6) -0.2354(3) -0.0457(4)
C16 C 0.6400(6) -0.3688(4) -0.0846(6)
H11 H 0.6426 -0.3674 -0.0453
C20 C 0.3429(5) -0.3426(3) -0.1366(4)
C21 C 0.6103(5) -0.2072(3) -0.1894(4)
C23 C 0.2856(7) -0.4382(4) -0.1406(6)
H15 H 0.2478 -0.4644 -0.1556
C24 C 0.4242(7) -0.3332(5) -0.3555(5)
H16 H 0.4086 -0.3355 -0.3933
N19 N 0.4114(5) -0.1917(3) -0.1043(3)
C28 C 0.1493(6) -0.2225(4) -0.1858(6)
H20 H 0.0939 -0.2267 -0.1762
C29 C 0.6050(7) -0.1908(4) -0.2857(5)
H21 H 0.5746 -0.1815 -0.3178
C30 C 0.2088(5) -0.2588(4) -0.1608(6)
H22 H 0.1936 -0.2861 -0.1336
N20 N 0.3851(5) -0.2564(3) -0.0311(4)
C31 C 0.6964(7) -0.3975(4) -0.1710(6)
H23 H 0.7371 -0.4169 -0.1915
C34 C 0.2848(6) -0.3816(4) -0.1577(5)
H26 H 0.2452 -0.3690 -0.1835
C35 C 0.1724(5) -0.1813(4) -0.2240(6)
H27 H 0.1333 -0.1578 -0.2414
C37 C 0.4193(7) -0.2810(4) -0.3266(4)
H29 H 0.3969 -0.2488 -0.3450
C43 C 0.6884(7) -0.1968(4) -0.2907(6)
H35 H 0.7140 -0.1946 -0.3259
N24 N 0.3138(4) -0.2111(3) -0.2131(4)
C45 C 0.6953(6) -0.2116(4) -0.1928(6)
H37 H 0.7261 -0.2183 -0.1602
C48 C 0.3611(6) -0.2067(4) -0.0584(5)
C49 C 0.4222(5) -0.1348(4) -0.1190(4)
C52 C 0.6724(9) -0.1473(6) -0.0225(7)
H41 H 0.7101 -0.1179 -0.0148
C53 C 0.6331(6) -0.3707(4) -0.1995(5)
H42 H 0.6312 -0.3706 -0.2389
C55 C 0.3965(7) -0.4176(4) -0.0827(5)
H44 H 0.4357 -0.4306 -0.0568
N26 N 0.4816(7) -0.0297(4) -0.4537(4)
C57 C 0.3414(7) -0.4560(4) -0.1018(5)
H46 H 0.3413 -0.4941 -0.0887
C59 C 0.4534(6) -0.3829(4) -0.3268(5)
H47 H 0.4539 -0.4191 -0.3444
C61 C 0.7334(6) -0.2061(4) -0.2428(6)
H49 H 0.7907 -0.2087 -0.2449
C67 C 0.5708(5) -0.3430(3) -0.1669(4)
C68 C 0.6507(7) -0.1588(5) -0.0774(5)
H52 H 0.6716 -0.1366 -0.1070
C69 C 0.7008(7) -0.3965(5) -0.1129(6)
H53 H 0.7442 -0.4143 -0.0938
C71 C 0.4795(5) -0.3213(4) -0.2449(4)
C75 C 0.3970(9) 0.0207(5) -0.3881(6)
H56 H 0.3739 0.0562 -0.3777
C76 C 0.2701(9) -0.2467(5) 0.0302(6)
H57 H 0.2408 -0.2602 0.0615
C77 C 0.3930(6) -0.1296(4) -0.3416(5)
C78 C 0.2909(8) -0.1774(5) -0.0403(7)
H58 H 0.2753 -0.1430 -0.0579
C82 C 0.4455(11) 0.0175(5) -0.4348(7)
H61 H 0.4538 0.0516 -0.4551
C83 C 0.5968(6) -0.2044(4) -0.0874(5)
C85 C 0.6396(9) -0.1783(6) 0.0206(6)
H63 H 0.6525 -0.1698 0.0580
C87 C 0.2452(10) -0.1986(5) 0.0027(7)
H65 H 0.1966 -0.1800 0.0133
C88 C 0.3392(7) -0.2757(4) 0.0115(5)
H66 H 0.3543 -0.3101 0.0293
C90 C 0.4680(7) -0.0790(5) -0.4241(5)
C91 C 0.5877(9) -0.2220(5) 0.0074(5)
H68 H 0.5665 -0.2443 0.0369
Ni6C Ni 0.48481(8) -0.19559(5) -0.56129(5)
O1C O 0.5026(5) -0.3590(3) 0.0034(4)
loop_
_geom_bond_atom_site_label_1
_geom_bond_atom_site_label_2
_geom_bond_site_symmetry_1
_geom_bond_site_symmetry_2
Ni1 Ni4 1_555 1_555
Ni2 Ni3 1_555 1_555
Ni3 Ni6 1_555 1_555
Ni4 O3 1_555 1_555
Ni5 Ni1 1_555 1_555
Ni6 N2 1_555 1_555
N1 Ni2 1_555 1_555
C1 O1 1_555 1_555
O1 Ni6C 1_555 1_555
N2 C20 1_555 1_555
O2 Ni2 1_555 1_555
O3 C51 1_555 1_555
N3 Ni4 1_555 1_555
C2 N12 1_555 1_555
N4 Ni4 1_555 1_555
O4 C77 1_555 1_555
C3 N5 1_555 1_555
N5 Ni1 1_555 1_555
N6 Ni6 1_555 1_555
C4 H1 1_555 1_555
O5 C51 1_555 1_555
N7 Ni3 1_555 1_555
N8 Ni2 1_555 1_555
N9 Ni2 1_555 1_555
N10 Ni1 1_555 1_555
N11 Ni3 1_555 1_555
C5 H2 1_555 1_555
N12 Ni3 1_555 1_555
O6 C1 1_555 1_555
C6 N15 1_555 1_555
C7 C27 1_555 1_555
N13 Ni4 1_555 1_555
C8 H3 1_555 1_555
C9 H4 1_555 1_555
C10 H5 1_555 1_555
C11 C3 1_555 1_555
H6 C11 1_555 1_555
C12 H7 1_555 1_555
C13 N8 1_555 1_555
H8 C13 1_555 1_555
N14 C74 1_555 1_555
N15 C75 1_555 1_555
C14 C5 1_555 1_555
H9 C14 1_555 1_555
N16 Ni5 1_555 1_555
C15 H10 1_555 1_555
N17 Ni6 1_555 1_555
C16 N6 1_555 1_555
H11 C16 1_555 1_555
C17 H12 1_555 1_555
C18 N23 1_555 1_555
C19 H13 1_555 1_555
C20 N12 1_555 1_555
C21 N1 1_555 1_555
C22 N16 1_555 1_555
H14 C22 1_555 1_555
C23 H15 1_555 1_555
C24 H16 1_555 1_555
N18 Ni1 1_555 1_555
C25 C12 1_555 1_555
H17 C25 1_555 1_555
C26 C12 1_555 1_555
H18 C26 1_555 1_555
C27 H19 1_555 1_555
N19 Ni3 1_555 1_555
C28 H20 1_555 1_555
C29 N1 1_555 1_555
H21 C29 1_555 1_555
C30 C2 1_555 1_555
H22 C30 1_555 1_555
N20 Ni6 1_555 1_555
C31 H23 1_555 1_555
C32 H24 1_555 1_555
C33 H25 1_555 1_555
C34 C20 1_555 1_555
H26 C34 1_555 1_555
C35 C9 1_555 1_555
H27 C35 1_555 1_555
C36 H28 1_555 1_555
C37 N9 1_555 1_555
H29 C37 1_555 1_555
C38 C15 1_555 1_555
H30 C38 1_555 1_555
C39 H31 1_555 1_555
C40 C32 1_555 1_555
H32 C40 1_555 1_555
N21 Ni5 1_555 1_555
C41 C33 1_555 1_555
H33 C41 1_555 1_555
C42 C15 1_555 1_555
H34 C42 1_555 1_555
N22 Ni5 1_555 1_555
C43 C29 1_555 1_555
H35 C43 1_555 1_555
N23 C86 1_555 1_555
C44 C26 1_555 1_555
H36 C44 1_555 1_555
N24 Ni2 1_555 1_555
C45 C21 1_555 1_555
H37 C45 1_555 1_555
C46 C19 1_555 1_555
H38 C46 1_555 1_555
C47 C10 1_555 1_555
H39 C47 1_555 1_555
C48 N19 1_555 1_555
C49 N8 1_555 1_555
C50 N4 1_555 1_555
H40 C50 1_555 1_555
C51 C18 1_555 1_555
N25 Ni5 1_555 1_555
C52 H41 1_555 1_555
C53 C31 1_555 1_555
H42 C53 1_555 1_555
C54 C39 1_555 1_555
H43 C54 1_555 1_555
C55 N2 1_555 1_555
H44 C55 1_555 1_555
C56 C36 1_555 1_555
H45 C56 1_555 1_555
N26 C82 1_555 1_555
C57 C23 1_555 1_555
H46 C57 1_555 1_555
C58 N10 1_555 1_555
C59 C4 1_555 1_555
H47 C59 1_555 1_555
C60 C17 1_555 1_555
H48 C60 1_555 1_555
C61 C43 1_555 1_555
H49 C61 1_555 1_555
C62 N5 1_555 1_555
C63 N4 1_555 1_555
C64 C40 1_555 1_555
H50 C64 1_555 1_555
C65 N3 1_555 1_555
H51 C65 1_555 1_555
C66 C44 1_555 1_555
C67 N6 1_555 1_555
C68 C52 1_555 1_555
H52 C68 1_555 1_555
C69 C16 1_555 1_555
H53 C69 1_555 1_555
C70 N13 1_555 1_555
H54 C70 1_555 1_555
C71 C4 1_555 1_555
C72 N3 1_555 1_555
C73 C27 1_555 1_555
H55 C73 1_555 1_555
C74 C18 1_555 1_555
C75 H56 1_555 1_555
C76 H57 1_555 1_555
C77 O2 1_555 1_555
C78 C48 1_555 1_555
H58 C78 1_555 1_555
C79 C39 1_555 1_555
H59 C79 1_555 1_555
C80 C19 1_555 1_555
C81 C22 1_555 1_555
H60 C81 1_555 1_555
C82 C75 1_555 1_555
H61 C82 1_555 1_555
C83 N7 1_555 1_555
C84 N21 1_555 1_555
H62 C84 1_555 1_555
C85 C52 1_555 1_555
H63 C85 1_555 1_555
C86 H64 1_555 1_555
C87 C76 1_555 1_555
H65 C87 1_555 1_555
C88 N20 1_555 1_555
H66 C88 1_555 1_555
C89 N14 1_555 1_555
H67 C89 1_555 1_555
C90 C1 1_555 1_555
C91 N17 1_555 1_555
H68 C91 1_555 1_555
O7 C92 1_555 1_555
C92 C74 1_555 1_555
O8 C92 1_555 1_555
N27 Ni4 1_555 1_555
N28 Ni1 1_555 1_555
Ni5A O8 1_555 1_555
O1C Ni6 1_555 1_555
O8A Ni5 1_555 1_555
C2 N24 1_555 1_555
C3 N13 1_555 1_555
N7 C21 1_555 1_555
N9 C71 1_555 1_555
N10 C63 1_555 1_555
N11 C67 1_555 1_555
N11 C71 1_555 1_555
C5 C13 1_555 1_555
C6 C77 1_555 1_555
C6 C90 1_555 1_555
C7 N22 1_555 1_555
C7 N28 1_555 1_555
C8 C14 1_555 1_555
C8 C49 1_555 1_555
C9 N24 1_555 1_555
C10 C11 1_555 1_555
N16 C58 1_555 1_555
N17 C83 1_555 1_555
C17 N22 1_555 1_555
C23 C34 1_555 1_555
C24 C37 1_555 1_555
C24 C59 1_555 1_555
N18 C72 1_555 1_555
N18 C80 1_555 1_555
C25 N27 1_555 1_555
N19 C49 1_555 1_555
C28 C30 1_555 1_555
C28 C35 1_555 1_555
N20 C48 1_555 1_555
C31 C69 1_555 1_555
C32 C62 1_555 1_555
C33 C46 1_555 1_555
C36 C58 1_555 1_555
C38 C65 1_555 1_555
N21 C62 1_555 1_555
C41 N25 1_555 1_555
C42 C72 1_555 1_555
C45 C61 1_555 1_555
C47 C70 1_555 1_555
C50 C54 1_555 1_555
N25 C80 1_555 1_555
C53 C67 1_555 1_555
C55 C57 1_555 1_555
C56 C81 1_555 1_555
N26 C90 1_555 1_555
C60 C73 1_555 1_555
C63 C79 1_555 1_555
C64 C84 1_555 1_555
C66 N27 1_555 1_555
C66 N28 1_555 1_555
C68 C83 1_555 1_555
C76 C88 1_555 1_555
C78 C87 1_555 1_555
C85 C91 1_555 1_555
C86 C89 1_555 1_555

#END
