
#######################################################################
#
#                 Cambridge Crystallographic Data Centre
#                                CCDC 
#
#######################################################################
#
# If this CIF has been generated from an entry in the Cambridge 
# Structural Database, then it will include bibliographic, chemical, 
# crystal, experimental, refinement or atomic coordinate data resulting 
# from the CCDC's data processing and validation procedures.
#
#######################################################################

data_GELHUB
_symmetry_cell_setting           orthorhombic
_symmetry_space_group_name_H-M   'P b c n'
_symmetry_Int_Tables_number      60
_space_group_name_Hall           '-P 2n 2ab'
loop_
_symmetry_equiv_pos_site_id
_symmetry_equiv_pos_as_xyz
1 x,y,z
2 1/2-x,1/2-y,1/2+z
3 -x,y,1/2-z
4 1/2+x,1/2-y,-z
5 -x,-y,-z
6 1/2+x,1/2+y,1/2-z
7 x,-y,1/2+z
8 1/2-x,1/2+y,z
_cell_length_a                   9.209(2)
_cell_length_b                   21.472(5)
_cell_length_c                   33.808(7)
_cell_angle_alpha                90
_cell_angle_beta                 90
_cell_angle_gamma                90
_cell_volume                     6685.05
loop_
_atom_site_label
_atom_site_type_symbol
_atom_site_fract_x
_atom_site_fract_y
_atom_site_fract_z
Cu1 Cu 0.14454(8) 0.30063(3) 0.11939(2)
N1 N -0.0344(5) 0.6785(2) 0.09119(15)
N2 N -0.2095(6) 0.6719(2) 0.04455(17)
N3 N -0.1436(6) 0.6157(2) 0.05047(15)
N4 N -0.1181(5) 0.5102(2) 0.04060(15)
N5 N -0.0803(6) 0.4043(2) 0.03642(14)
N6 N -0.1153(6) 0.3460(3) 0.02298(16)
N7 N 0.0410(6) 0.3406(2) 0.07383(15)
C1 C -0.1390(7) 0.7074(3) 0.0697(2)
H1 H -0.1596 0.7501 0.0726
C2 C -0.0405(7) 0.6206(3) 0.07803(18)
H2 H 0.0189 0.5877 0.0868
C3 C -0.1875(7) 0.5618(3) 0.02927(17)
C4 C -0.2909(7) 0.5639(3) -0.00010(19)
H3 H -0.3377 0.6013 -0.0069
C5 C -0.3226(8) 0.5085(3) -0.01918(19)
H4 H -0.3917 0.5079 -0.0396
C6 C -0.2533(7) 0.4544(3) -0.00836(18)
H5 H -0.2733 0.4164 -0.0211
C7 C -0.1539(7) 0.4581(3) 0.02177(17)
C8 C 0.0125(7) 0.4000(3) 0.06687(18)
H6 H 0.0512 0.4338 0.0810
C9 C -0.0403(7) 0.3104(3) 0.04642(19)
H7 H -0.0423 0.2667 0.0445
Cu2 Cu 0.10592(8) 0.71573(3) 0.12916(2)
N8 N 0.0014(5) 0.3350(2) 0.15788(15)
N9 N -0.1656(6) 0.3342(2) 0.20615(17)
N10 N -0.1139(5) 0.3929(2) 0.20013(15)
N11 N -0.1143(5) 0.4985(2) 0.20853(15)
N12 N -0.1067(5) 0.6060(2) 0.21112(14)
N13 N -0.1575(6) 0.6624(2) 0.22376(15)
N14 N 0.0047(6) 0.6738(2) 0.17453(15)
C10 C -0.0928(7) 0.3017(3) 0.1802(2)
H8 H -0.1048 0.2585 0.1773
C11 C -0.0141(7) 0.3923(3) 0.17120(19)
H9 H 0.0368 0.4273 0.1619
C12 C -0.1678(7) 0.4450(3) 0.22146(18)
C13 C -0.2670(7) 0.4384(3) 0.25144(17)
H10 H -0.3014 0.3990 0.2592
C14 C -0.3141(8) 0.4924(3) 0.26966(19)
H11 H -0.3819 0.4902 0.2904
C15 C -0.2616(7) 0.5495(3) 0.25743(19)
H12 H -0.2916 0.5868 0.2695
C16 C -0.1635(7) 0.5493(3) 0.22680(18)
C17 C -0.0103(7) 0.6139(3) 0.18217(18)
H13 H 0.0395 0.5816 0.1692
C18 C -0.0866(7) 0.7014(3) 0.20067(19)
H14 H -0.0984 0.7448 0.2022
O1 O 0.5351(5) 0.3119(2) 0.14285(16)
O2 O 0.3441(5) 0.3888(2) 0.13107(17)
O3 O 0.5405(6) 0.4117(2) 0.17592(15)
S1 S 0.49183(18) 0.37623(7) 0.14291(5)
C19 C 0.5979(9) 0.4066(4) 0.1016(2)
F1 F 0.5690(7) 0.3755(3) 0.06871(14)
F2 F 0.7371(5) 0.4007(3) 0.10935(17)
F3 F 0.5712(6) 0.4655(2) 0.09440(15)
O4 O 0.2035(5) 0.1264(2) 0.11848(17)
O5 O 0.0077(5) 0.2004(2) 0.10467(15)
O6 O 0.0090(6) 0.0982(2) 0.07465(15)
S2 S 0.05377(18) 0.13658(7) 0.10654(5)
C20 C -0.0479(9) 0.1077(4) 0.1486(2)
F4 F -0.0151(6) 0.0491(2) 0.15734(14)
F5 F -0.0238(6) 0.1413(2) 0.18072(14)
F6 F -0.1901(5) 0.1094(3) 0.14126(16)
O7 O 0.2944(4) 0.2624(2) 0.08893(11)
C21 C 0.3014(9) 0.2556(4) 0.0485(2)
H15 H 0.3907 0.2344 0.0414
H16 H 0.2993 0.2963 0.0361
H17 H 0.2190 0.2313 0.0394
O8 O 0.2452(5) 0.25484(19) 0.15980(12)
C22 C 0.2472(8) 0.2655(4) 0.2004(2)
H18 H 0.1580 0.2861 0.2083
H19 H 0.3294 0.2918 0.2070
H20 H 0.2556 0.2261 0.2143
Cu2G Cu 0.39408(8) 0.21573(3) 0.12916(2)
O1G O -0.0351(5) 0.8119(2) 0.14285(16)
O4G O 0.2965(5) 0.6264(2) 0.11848(17)
O7G O 0.2056(4) 0.7624(2) 0.08893(11)
O8G O 0.2548(5) 0.75484(19) 0.15980(12)
O9 O 0.3163(5) 0.0024(2) 0.12465(14)
loop_
_geom_bond_atom_site_label_1
_geom_bond_atom_site_label_2
_geom_bond_site_symmetry_1
_geom_bond_site_symmetry_2
Cu1 N7 1_555 1_555
N1 C1 1_555 1_555
N2 N3 1_555 1_555
N3 C2 1_555 1_555
N4 C3 1_555 1_555
N5 N6 1_555 1_555
N6 C9 1_555 1_555
N7 C8 1_555 1_555
C1 N2 1_555 1_555
H1 C1 1_555 1_555
C2 N1 1_555 1_555
H2 C2 1_555 1_555
C3 N3 1_555 1_555
C4 C3 1_555 1_555
H3 C4 1_555 1_555
C5 C4 1_555 1_555
H4 C5 1_555 1_555
C6 C5 1_555 1_555
H5 C6 1_555 1_555
C7 N4 1_555 1_555
C8 N5 1_555 1_555
H6 C8 1_555 1_555
C9 N7 1_555 1_555
H7 C9 1_555 1_555
Cu2 N1 1_555 1_555
N8 Cu1 1_555 1_555
N9 N10 1_555 1_555
N10 C11 1_555 1_555
N11 C12 1_555 1_555
N12 N13 1_555 1_555
N13 C18 1_555 1_555
N14 Cu2 1_555 1_555
C10 N8 1_555 1_555
H8 C10 1_555 1_555
C11 N8 1_555 1_555
H9 C11 1_555 1_555
C12 N10 1_555 1_555
C13 C12 1_555 1_555
H10 C13 1_555 1_555
C14 C13 1_555 1_555
H11 C14 1_555 1_555
C15 C14 1_555 1_555
H12 C15 1_555 1_555
C16 N11 1_555 1_555
C17 N12 1_555 1_555
H13 C17 1_555 1_555
C18 N14 1_555 1_555
H14 C18 1_555 1_555
O1 S1 1_555 1_555
O2 Cu1 1_555 1_555
O3 S1 1_555 1_555
S1 O2 1_555 1_555
C19 S1 1_555 1_555
F1 C19 1_555 1_555
F2 C19 1_555 1_555
F3 C19 1_555 1_555
O4 S2 1_555 1_555
O5 Cu1 1_555 1_555
O6 S2 1_555 1_555
S2 O5 1_555 1_555
C20 S2 1_555 1_555
F4 C20 1_555 1_555
F5 C20 1_555 1_555
F6 C20 1_555 1_555
O7 Cu1 1_555 1_555
C21 O7 1_555 1_555
H15 C21 1_555 1_555
H16 C21 1_555 1_555
H17 C21 1_555 1_555
O8 Cu1 1_555 1_555
C22 O8 1_555 1_555
H18 C22 1_555 1_555
H19 C22 1_555 1_555
H20 C22 1_555 1_555
Cu2G O1 1_555 1_555
O1G Cu2 1_555 1_555
O4G Cu2 1_555 1_555
O7G Cu2 1_555 1_555
O8G Cu2 1_555 1_555
N5 C7 1_555 1_555
C6 C7 1_555 1_555
N9 C10 1_555 1_555
N12 C16 1_555 1_555
N14 C17 1_555 1_555
C15 C16 1_555 1_555
O4 Cu2G 1_555 1_555
O7 Cu2G 1_555 1_555
O8 Cu2G 1_555 1_555

#END
