
#######################################################################
#
#                 Cambridge Crystallographic Data Centre
#                                CCDC 
#
#######################################################################
#
# If this CIF has been generated from an entry in the Cambridge 
# Structural Database, then it will include bibliographic, chemical, 
# crystal, experimental, refinement or atomic coordinate data resulting 
# from the CCDC's data processing and validation procedures.
#
#######################################################################

data_GELMAM
_symmetry_cell_setting           orthorhombic
_symmetry_space_group_name_H-M   'P c a 21'
_symmetry_Int_Tables_number      29
_space_group_name_Hall           'P 2c -2ac'
loop_
_symmetry_equiv_pos_site_id
_symmetry_equiv_pos_as_xyz
1 x,y,z
2 -x,-y,1/2+z
3 1/2-x,y,1/2+z
4 1/2+x,-y,z
_cell_length_a                   31.855(6)
_cell_length_b                   10.205(2)
_cell_length_c                   25.904(5)
_cell_angle_alpha                90
_cell_angle_beta                 90
_cell_angle_gamma                90
_cell_volume                     8420.88
loop_
_atom_site_label
_atom_site_type_symbol
_atom_site_fract_x
_atom_site_fract_y
_atom_site_fract_z
Ga1 Ga 0.785008(18) 0.38586(6) 0.73655(2)
Ga2 Ga 0.506642(17) 0.19203(6) 0.92973(2)
V1 V 0.75365(3) 0.16540(10) 0.73749(4)
V2 V 0.97442(3) 0.41775(10) 0.45358(4)
K1 K 0.83086(4) 0.23080(14) 0.54227(5)
K2 K 0.59939(4) 0.36621(15) 0.78078(5)
O1 O 0.79360(15) 0.2214(5) 0.63244(15)
O2 O 0.68335(18) 0.0831(7) 0.6634(2)
O3 O 0.68240(14) 0.3626(5) 0.75676(17)
O4 O 0.97099(13) 0.3962(5) 0.33566(15)
O5 O 0.89174(14) 0.5369(5) 0.4184(2)
O6 O 0.90982(14) 0.2341(5) 0.50296(15)
N1 N 0.79868(15) 0.5250(5) 0.69081(16)
N2 N 0.80578(15) 0.4926(5) 0.79004(16)
N3 N 0.76765(18) 0.0468(7) 0.5115(2)
N4 N 0.84560(18) -0.0278(6) 0.5740(2)
N5 N 0.47059(14) 0.0681(5) 0.96025(16)
N6 N 0.52140(14) 0.0585(5) 0.88238(15)
N7 N 0.58030(18) 0.4324(6) 0.6780(2)
N8 N 0.5902(2) 0.6349(6) 0.7620(2)
C1 C 0.81568(19) 0.6297(6) 0.7191(2)
H1 H 0.8250 0.7078 0.7027
C2 C 0.81819(18) 0.6135(6) 0.7709(2)
H2 H 0.8279 0.6814 0.7929
C3 C 0.80732(17) 0.5258(6) 0.63636(19)
C4 C 0.77526(18) 0.5392(6) 0.6010(2)
C5 C 0.78510(19) 0.5441(6) 0.5482(2)
H3 H 0.7631 0.5493 0.5235
C6 C 0.82638(19) 0.5414(6) 0.5316(2)
H4 H 0.8328 0.5509 0.4960
C7 C 0.85825(19) 0.5247(6) 0.5671(2)
H5 H 0.8864 0.5193 0.5553
C8 C 0.85020(17) 0.5157(6) 0.6197(2)
C9 C 0.72967(19) 0.5530(7) 0.6194(2)
H6 H 0.7255 0.4905 0.6487
C10 C 0.7217(2) 0.6900(8) 0.6397(3)
H7 H 0.7447 0.7155 0.6628
H8 H 0.6951 0.6915 0.6587
H9 H 0.7203 0.7515 0.6107
C11 C 0.6976(2) 0.5185(9) 0.5774(2)
H10 H 0.6998 0.5816 0.5490
H11 H 0.6692 0.5219 0.5920
H12 H 0.7032 0.4301 0.5644
C12 C 0.88564(18) 0.4873(7) 0.6570(2)
H13 H 0.8734 0.4853 0.6925
C13 C 0.9186(2) 0.5973(8) 0.6559(3)
H14 H 0.9320 0.5998 0.6218
H15 H 0.9399 0.5805 0.6824
H16 H 0.9050 0.6815 0.6628
C14 C 0.9053(2) 0.3536(8) 0.6470(3)
H17 H 0.8835 0.2859 0.6488
H18 H 0.9268 0.3361 0.6730
H19 H 0.9180 0.3529 0.6126
C15 C 0.81598(18) 0.4554(6) 0.8421(2)
C16 C 0.85559(18) 0.4049(7) 0.8536(2)
C17 C 0.8637(2) 0.3608(7) 0.9036(2)
H20 H 0.8901 0.3225 0.9117
C18 C 0.8331(2) 0.3730(7) 0.9419(2)
H21 H 0.8389 0.3446 0.9761
C19 C 0.7945(2) 0.4262(7) 0.9303(2)
H22 H 0.7738 0.4328 0.9566
C20 C 0.78485(19) 0.4707(7) 0.8802(2)
C21 C 0.8898(2) 0.3919(7) 0.8125(2)
H23 H 0.8760 0.3985 0.7779
C22 C 0.9209(3) 0.4993(10) 0.8161(4)
H24 H 0.9351 0.4954 0.8496
H25 H 0.9065 0.5838 0.8125
H26 H 0.9417 0.4900 0.7884
C23 C 0.9119(4) 0.2622(12) 0.8148(5)
H27 H 0.9230 0.2405 0.7806
H28 H 0.8920 0.1942 0.8256
H29 H 0.9350 0.2670 0.8396
C24 C 0.7423(2) 0.5279(7) 0.8688(2)
H30 H 0.7399 0.5376 0.8305
C25 C 0.7372(2) 0.6647(8) 0.8927(3)
H31 H 0.7416 0.6594 0.9301
H32 H 0.7088 0.6974 0.8856
H33 H 0.7579 0.7245 0.8776
C26 C 0.7070(2) 0.4370(8) 0.8865(3)
H34 H 0.7119 0.3487 0.8728
H35 H 0.6801 0.4701 0.8737
H36 H 0.7065 0.4337 0.9243
C27 C 0.7899(3) 0.1255(8) 0.8110(3)
H37 H 0.8028 0.1941 0.8300
C28 C 0.7496(3) 0.0728(12) 0.8163(3)
H38 H 0.7300 0.0996 0.8418
C29 C 0.7423(4) -0.0159(11) 0.7826(4)
H39 H 0.7162 -0.0596 0.7784
C30 C 0.7745(4) -0.0371(9) 0.7558(4)
H40 H 0.7763 -0.1029 0.7299
C31 C 0.8070(3) 0.0478(12) 0.7687(4)
H41 H 0.8340 0.0538 0.7535
C32 C 0.7790(2) 0.2047(6) 0.6732(2)
C33 C 0.7099(2) 0.1120(8) 0.6911(3)
C34 C 0.7108(2) 0.2919(7) 0.7495(2)
C35 C 0.7329(3) 0.0957(10) 0.5406(4)
H42 H 0.7246 0.1816 0.5272
H43 H 0.7410 0.1043 0.5770
H44 H 0.7092 0.0348 0.5377
C36 C 0.7538(2) 0.0408(9) 0.4566(3)
H45 H 0.7325 -0.0278 0.4527
H46 H 0.7779 0.0208 0.4345
H47 H 0.7418 0.1255 0.4465
C37 C 0.7835(3) -0.0886(8) 0.5272(3)
H48 H 0.7590 -0.1481 0.5293
H49 H 0.8018 -0.1217 0.4992
C38 C 0.8066(3) -0.0985(9) 0.5756(3)
H50 H 0.7891 -0.0636 0.6039
H51 H 0.8124 -0.1919 0.5830
C39 C 0.8611(3) -0.0273(10) 0.6287(3)
H52 H 0.8696 -0.1162 0.6385
H53 H 0.8387 0.0029 0.6516
H54 H 0.8853 0.0317 0.6316
C40 C 0.8781(2) -0.0865(8) 0.5415(3)
H55 H 0.8844 -0.1750 0.5540
H56 H 0.9035 -0.0327 0.5430
H57 H 0.8680 -0.0911 0.5058
C41 C 0.47385(18) -0.0512(6) 0.9360(2)
H58 H 0.4584 -0.1254 0.9474
C42 C 0.50023(18) -0.0578(6) 0.8950(2)
H59 H 0.5042 -0.1364 0.8760
C43 C 0.43971(17) 0.0840(6) 1.0000(2)
C44 C 0.39894(19) 0.1252(6) 0.9880(2)
C45 C 0.3699(2) 0.1397(7) 1.0286(3)
H60 H 0.3422 0.1690 1.0213
C46 C 0.3809(2) 0.1124(8) 1.0778(3)
H61 H 0.3605 0.1209 1.1045
C47 C 0.4210(2) 0.0726(7) 1.0903(2)
H62 H 0.4281 0.0544 1.1252
C48 C 0.45097(18) 0.0590(6) 1.0519(2)
C49 C 0.38578(19) 0.1565(8) 0.9331(3)
H63 H 0.4114 0.1872 0.9144
C50 C 0.3530(3) 0.2672(9) 0.9297(4)
H64 H 0.3256 0.2340 0.9409
H65 H 0.3511 0.2981 0.8940
H66 H 0.3615 0.3398 0.9522
C51 C 0.3702(3) 0.0387(11) 0.9057(3)
H67 H 0.3901 -0.0334 0.9103
H68 H 0.3672 0.0583 0.8689
H69 H 0.3428 0.0134 0.9199
C52 C 0.4952(2) 0.0193(8) 1.0660(2)
H70 H 0.5122 0.0184 1.0335
C53 C 0.4975(2) -0.1165(7) 1.0897(3)
H71 H 0.4844 -0.1153 1.1239
H72 H 0.5270 -0.1430 1.0929
H73 H 0.4827 -0.1790 1.0675
C54 C 0.5145(3) 0.1199(8) 1.1023(3)
H74 H 0.5164 0.2048 1.0847
H75 H 0.5427 0.0912 1.1124
H76 H 0.4969 0.1287 1.1331
C55 C 0.54452(18) 0.0607(6) 0.83506(19)
C56 C 0.58818(18) 0.0590(6) 0.8359(2)
C57 C 0.6099(2) 0.0632(6) 0.7893(2)
H77 H 0.6397 0.0649 0.7897
C58 C 0.5895(2) 0.0651(6) 0.7431(2)
H78 H 0.6050 0.0648 0.7117
C59 C 0.5460(2) 0.0675(6) 0.7422(2)
H79 H 0.5320 0.0707 0.7098
C60 C 0.5223(2) 0.0655(6) 0.7872(2)
C61 C 0.61269(19) 0.0470(7) 0.8864(2)
H80 H 0.5919 0.0459 0.9153
C62 C 0.6369(2) -0.0814(8) 0.8883(3)
H81 H 0.6170 -0.1549 0.8880
H82 H 0.6537 -0.0847 0.9199
H83 H 0.6554 -0.0875 0.8581
C63 C 0.6414(2) 0.1661(8) 0.8945(3)
H84 H 0.6591 0.1516 0.9249
H85 H 0.6242 0.2446 0.8998
H86 H 0.6591 0.1781 0.8640
C64 C 0.4745(2) 0.0635(7) 0.7848(2)
H87 H 0.4646 0.0131 0.8156
C65 C 0.4563(2) -0.0045(9) 0.7373(3)
H88 H 0.4258 -0.0109 0.7407
H89 H 0.4683 -0.0926 0.7343
H90 H 0.4633 0.0464 0.7064
C66 C 0.4563(3) 0.1964(10) 0.7889(5)
H91 H 0.4659 0.2376 0.8210
H92 H 0.4256 0.1904 0.7891
H93 H 0.4654 0.2493 0.7594
C67 C 1.0189(3) 0.5911(8) 0.4578(3)
H94 H 1.0222 0.6499 0.4297
C68 C 1.0418(2) 0.4809(7) 0.4663(3)
H95 H 1.0636 0.4490 0.4445
C69 C 1.0285(2) 0.4222(7) 0.5118(3)
H96 H 1.0398 0.3452 0.5270
C70 C 0.9955(2) 0.4970(10) 0.5311(3)
H97 H 0.9798 0.4792 0.5616
C71 C 0.9894(3) 0.6031(8) 0.4976(4)
H98 H 0.9691 0.6706 0.5013
C72 C 0.97371(18) 0.3988(6) 0.3806(2)
C73 C 0.92332(19) 0.4939(6) 0.4332(3)
C74 C 0.93569(19) 0.2993(6) 0.4828(2)
C75 C 0.5346(2) 0.4169(9) 0.6742(3)
H99 H 0.5209 0.4726 0.7000
H100 H 0.5271 0.3251 0.6804
H101 H 0.5252 0.4427 0.6396
C76 C 0.6009(3) 0.3470(9) 0.6407(3)
H102 H 0.5934 0.3744 0.6057
H103 H 0.5918 0.2564 0.6463
H104 H 0.6314 0.3527 0.6452
C77 C 0.5935(3) 0.5664(8) 0.6695(3)
H105 H 0.5839 0.5940 0.6348
H106 H 0.6245 0.5692 0.6696
C78 C 0.5774(3) 0.6644(8) 0.7088(3)
H107 H 0.5878 0.7527 0.6995
H108 H 0.5463 0.6665 0.7071
C79 C 0.5618(3) 0.7022(8) 0.7982(3)
H109 H 0.5626 0.7968 0.7916
H110 H 0.5709 0.6850 0.8337
H111 H 0.5331 0.6698 0.7934
C80 C 0.6342(3) 0.6757(9) 0.7712(3)
H112 H 0.6374 0.7683 0.7619
H113 H 0.6530 0.6224 0.7499
H114 H 0.6411 0.6636 0.8077
Ga2B Ga 0.993358(17) 0.19203(6) 0.42973(2)
V2B V 0.52558(3) 0.41775(10) 0.95358(4)
K2B K 0.90061(4) 0.36621(15) 0.28078(5)
O4B O 0.52901(13) 0.3962(5) 0.83566(15)
loop_
_geom_bond_atom_site_label_1
_geom_bond_atom_site_label_2
_geom_bond_site_symmetry_1
_geom_bond_site_symmetry_2
Ga1 V1 1_555 1_555
Ga2 N5 1_555 1_555
V1 C27 1_555 1_555
V2 C67 1_555 1_555
K1 O1 1_555 1_555
K2 O3 1_555 1_555
O1 C32 1_555 1_555
O2 C33 1_555 1_555
O3 C34 1_555 1_555
O4 C72 1_555 1_555
O5 C73 1_555 1_555
O6 K1 1_555 1_555
N1 Ga1 1_555 1_555
N2 Ga1 1_555 1_555
N3 K1 1_555 1_555
N4 K1 1_555 1_555
N5 C41 1_555 1_555
N6 Ga2 1_555 1_555
N7 K2 1_555 1_555
N8 K2 1_555 1_555
C1 N1 1_555 1_555
H1 C1 1_555 1_555
C2 N2 1_555 1_555
H2 C2 1_555 1_555
C3 N1 1_555 1_555
C4 C3 1_555 1_555
C5 C4 1_555 1_555
H3 C5 1_555 1_555
C6 K1 1_555 1_555
H4 C6 1_555 1_555
C7 K1 1_555 1_555
H5 C7 1_555 1_555
C8 C3 1_555 1_555
C9 C4 1_555 1_555
H6 C9 1_555 1_555
C10 C9 1_555 1_555
H7 C10 1_555 1_555
H8 C10 1_555 1_555
H9 C10 1_555 1_555
C11 C9 1_555 1_555
H10 C11 1_555 1_555
H11 C11 1_555 1_555
H12 C11 1_555 1_555
C12 C8 1_555 1_555
H13 C12 1_555 1_555
C13 C12 1_555 1_555
H14 C13 1_555 1_555
H15 C13 1_555 1_555
H16 C13 1_555 1_555
C14 C12 1_555 1_555
H17 C14 1_555 1_555
H18 C14 1_555 1_555
H19 C14 1_555 1_555
C15 N2 1_555 1_555
C16 C15 1_555 1_555
C17 C16 1_555 1_555
H20 C17 1_555 1_555
C18 C17 1_555 1_555
H21 C18 1_555 1_555
C19 C18 1_555 1_555
H22 C19 1_555 1_555
C20 C15 1_555 1_555
C21 C16 1_555 1_555
H23 C21 1_555 1_555
C22 C21 1_555 1_555
H24 C22 1_555 1_555
H25 C22 1_555 1_555
H26 C22 1_555 1_555
C23 C21 1_555 1_555
H27 C23 1_555 1_555
H28 C23 1_555 1_555
H29 C23 1_555 1_555
C24 C20 1_555 1_555
H30 C24 1_555 1_555
C25 C24 1_555 1_555
H31 C25 1_555 1_555
H32 C25 1_555 1_555
H33 C25 1_555 1_555
C26 C24 1_555 1_555
H34 C26 1_555 1_555
H35 C26 1_555 1_555
H36 C26 1_555 1_555
C27 H37 1_555 1_555
C28 V1 1_555 1_555
H38 C28 1_555 1_555
C29 V1 1_555 1_555
H39 C29 1_555 1_555
C30 V1 1_555 1_555
H40 C30 1_555 1_555
C31 V1 1_555 1_555
H41 C31 1_555 1_555
C32 V1 1_555 1_555
C33 V1 1_555 1_555
C34 V1 1_555 1_555
C35 N3 1_555 1_555
H42 C35 1_555 1_555
H43 C35 1_555 1_555
H44 C35 1_555 1_555
C36 N3 1_555 1_555
H45 C36 1_555 1_555
H46 C36 1_555 1_555
H47 C36 1_555 1_555
C37 N3 1_555 1_555
H48 C37 1_555 1_555
H49 C37 1_555 1_555
C38 N4 1_555 1_555
H50 C38 1_555 1_555
H51 C38 1_555 1_555
C39 N4 1_555 1_555
H52 C39 1_555 1_555
H53 C39 1_555 1_555
H54 C39 1_555 1_555
C40 N4 1_555 1_555
H55 C40 1_555 1_555
H56 C40 1_555 1_555
H57 C40 1_555 1_555
C41 H58 1_555 1_555
C42 N6 1_555 1_555
H59 C42 1_555 1_555
C43 N5 1_555 1_555
C44 C43 1_555 1_555
C45 C44 1_555 1_555
H60 C45 1_555 1_555
C46 C45 1_555 1_555
H61 C46 1_555 1_555
C47 C46 1_555 1_555
H62 C47 1_555 1_555
C48 C43 1_555 1_555
C49 C44 1_555 1_555
H63 C49 1_555 1_555
C50 C49 1_555 1_555
H64 C50 1_555 1_555
H65 C50 1_555 1_555
H66 C50 1_555 1_555
C51 C49 1_555 1_555
H67 C51 1_555 1_555
H68 C51 1_555 1_555
H69 C51 1_555 1_555
C52 C48 1_555 1_555
H70 C52 1_555 1_555
C53 C52 1_555 1_555
H71 C53 1_555 1_555
H72 C53 1_555 1_555
H73 C53 1_555 1_555
C54 C52 1_555 1_555
H74 C54 1_555 1_555
H75 C54 1_555 1_555
H76 C54 1_555 1_555
C55 N6 1_555 1_555
C56 C55 1_555 1_555
C57 K2 1_555 1_555
H77 C57 1_555 1_555
C58 K2 1_555 1_555
H78 C58 1_555 1_555
C59 C58 1_555 1_555
H79 C59 1_555 1_555
C60 C55 1_555 1_555
C61 C56 1_555 1_555
H80 C61 1_555 1_555
C62 C61 1_555 1_555
H81 C62 1_555 1_555
H82 C62 1_555 1_555
H83 C62 1_555 1_555
C63 C61 1_555 1_555
H84 C63 1_555 1_555
H85 C63 1_555 1_555
H86 C63 1_555 1_555
C64 C60 1_555 1_555
H87 C64 1_555 1_555
C65 C64 1_555 1_555
H88 C65 1_555 1_555
H89 C65 1_555 1_555
H90 C65 1_555 1_555
C66 C64 1_555 1_555
H91 C66 1_555 1_555
H92 C66 1_555 1_555
H93 C66 1_555 1_555
C67 H94 1_555 1_555
C68 V2 1_555 1_555
H95 C68 1_555 1_555
C69 V2 1_555 1_555
H96 C69 1_555 1_555
C70 V2 1_555 1_555
H97 C70 1_555 1_555
C71 V2 1_555 1_555
H98 C71 1_555 1_555
C72 V2 1_555 1_555
C73 V2 1_555 1_555
C74 V2 1_555 1_555
C75 N7 1_555 1_555
H99 C75 1_555 1_555
H100 C75 1_555 1_555
H101 C75 1_555 1_555
C76 N7 1_555 1_555
H102 C76 1_555 1_555
H103 C76 1_555 1_555
H104 C76 1_555 1_555
C77 N7 1_555 1_555
H105 C77 1_555 1_555
H106 C77 1_555 1_555
C78 N8 1_555 1_555
H107 C78 1_555 1_555
H108 C78 1_555 1_555
C79 N8 1_555 1_555
H109 C79 1_555 1_555
H110 C79 1_555 1_555
H111 C79 1_555 1_555
C80 N8 1_555 1_555
H112 C80 1_555 1_555
H113 C80 1_555 1_555
H114 C80 1_555 1_555
Ga2B V2 1_555 1_555
V2B Ga2 1_555 1_555
K2B O4 1_555 1_555
O4B K2 1_555 1_555
O6 C74 1_555 1_555
C1 C2 1_555 1_555
C5 C6 1_555 1_555
C6 C7 1_555 1_555
C7 C8 1_555 1_555
C19 C20 1_555 1_555
C27 C28 1_555 1_555
C27 C31 1_555 1_555
C28 C29 1_555 1_555
C29 C30 1_555 1_555
C30 C31 1_555 1_555
C37 C38 1_555 1_555
C41 C42 1_555 1_555
C47 C48 1_555 1_555
C56 C57 1_555 1_555
C57 C58 1_555 1_555
C59 C60 1_555 1_555
C67 C68 1_555 1_555
C67 C71 1_555 1_555
C68 C69 1_555 1_555
C69 C70 1_555 1_555
C70 C71 1_555 1_555
C77 C78 1_555 1_555

#END
