
#######################################################################
#
#                 Cambridge Crystallographic Data Centre
#                                CCDC 
#
#######################################################################
#
# If this CIF has been generated from an entry in the Cambridge 
# Structural Database, then it will include bibliographic, chemical, 
# crystal, experimental, refinement or atomic coordinate data resulting 
# from the CCDC's data processing and validation procedures.
#
#######################################################################

data_GELPES
_symmetry_cell_setting           monoclinic
_symmetry_space_group_name_H-M   'C 2/c'
_symmetry_Int_Tables_number      15
_space_group_name_Hall           '-C 2yn'
loop_
_symmetry_equiv_pos_site_id
_symmetry_equiv_pos_as_xyz
1 x,y,z
2 1/2+x,1/2+y,z
3 -x,y,1/2-z
4 1/2-x,1/2+y,1/2-z
5 -x,-y,-z
6 1/2-x,1/2-y,-z
7 x,-y,1/2+z
8 1/2+x,1/2-y,1/2+z
_cell_length_a                   21.99(1)
_cell_length_b                   15.109(6)
_cell_length_c                   15.286(9)
_cell_angle_alpha                90
_cell_angle_beta                 125.63(4)
_cell_angle_gamma                90
_cell_volume                     4127.97
loop_
_atom_site_label
_atom_site_type_symbol
_atom_site_fract_x
_atom_site_fract_y
_atom_site_fract_z
I1 I 0.43909(4) 0.58681(5) 0.85300(6)
I2 I 0.45572(4) 0.29498(6) 0.84748(6)
I3 I 0.35469(4) 0.45653(6) 0.55158(6)
I4 I 0.34564(4) 0.15965(5) 0.56135(6)
Cu1 Cu 0.37463(8) 0.43892(11) 0.74664(13)
Cu2 Cu 0.52425(9) 0.44727(11) 0.95145(12)
Cu3 Cu 0.42064(9) 0.30537(11) 0.64919(12)
Cu4 Cu 0.27774(9) 0.30511(11) 0.45102(11)
N1 N 0.2774(5) 0.4319(6) 0.7235(7)
C1 C 0.1418(6) 0.4380(8) 0.6762(8)
C2 C 0.0939(8) 0.3671(9) 0.6242(11)
C3 C 0.0217(7) 0.3749(9) 0.5948(11)
C4 C 0.0006(7) 0.4520(11) 0.6200(11)
C5 C 0.0480(8) 0.5201(10) 0.6708(12)
C6 C 0.1200(7) 0.5129(8) 0.6996(11)
C7 C 0.2172(6) 0.4338(7) 0.7029(8)
N2 N 0.2552(5) 0.2992(7) 0.3074(7)
C8 C 0.2020(6) 0.2936(8) 0.1039(8)
C9 C 0.1594(8) 0.2224(9) 0.0425(11)
C10 C 0.1292(7) 0.2224(10) -0.0663(11)
C11 C 0.1405(7) 0.2930(10) -0.1115(9)
C12 C 0.1821(8) 0.3621(10) -0.0506(11)
C13 C 0.2131(7) 0.3633(8) 0.0591(11)
C14 C 0.2312(6) 0.2950(8) 0.2158(10)
H1 H 0.110(6) 0.335(8) 0.611(9)
H2 H -0.009(6) 0.330(8) 0.555(9)
H3 H -0.051(6) 0.458(8) 0.588(9)
H4 H 0.024(6) 0.570(9) 0.681(9)
H5 H 0.150(6) 0.560(8) 0.731(9)
H6 H 0.147(7) 0.185(8) 0.054(10)
H7 H 0.097(6) 0.194(8) -0.106(9)
H8 H 0.125(6) 0.281(8) -0.173(9)
H9 H 0.194(6) 0.421(8) -0.075(9)
H10 H 0.251(6) 0.403(8) 0.101(9)
Cu2D Cu 0.47575(9) 0.55273(11) 1.04855(12)
Cu3B Cu 0.57936(9) 0.30537(11) 0.85081(12)
Cu2B Cu 0.47575(9) 0.44727(11) 0.54855(12)
Cu4E Cu 0.22226(9) 0.19489(11) 0.54898(11)
I1D I 0.56091(4) 0.41319(5) 1.14700(6)
I3B I 0.64531(4) 0.45653(6) 0.94842(6)
I2B I 0.54428(4) 0.29498(6) 0.65252(6)
I4E I 0.15436(4) 0.34035(5) 0.43865(6)
loop_
_geom_bond_atom_site_label_1
_geom_bond_atom_site_label_2
_geom_bond_site_symmetry_1
_geom_bond_site_symmetry_2
I1 Cu1 1_555 1_555
I2 Cu1 1_555 1_555
I3 Cu1 1_555 1_555
I4 Cu3 1_555 1_555
Cu1 N1 1_555 1_555
Cu2 I1 1_555 1_555
Cu3 I2 1_555 1_555
Cu4 I3 1_555 1_555
N1 C7 1_555 1_555
C1 C2 1_555 1_555
C2 C3 1_555 1_555
C3 C4 1_555 1_555
C4 C5 1_555 1_555
C5 C6 1_555 1_555
C6 C1 1_555 1_555
C7 C1 1_555 1_555
N2 Cu4 1_555 1_555
C8 C9 1_555 1_555
C9 C10 1_555 1_555
C10 C11 1_555 1_555
C11 C12 1_555 1_555
C12 C13 1_555 1_555
C13 C8 1_555 1_555
C14 N2 1_555 1_555
H1 C2 1_555 1_555
H2 C3 1_555 1_555
H3 C4 1_555 1_555
H4 C5 1_555 1_555
H5 C6 1_555 1_555
H6 C9 1_555 1_555
H7 C10 1_555 1_555
H8 C11 1_555 1_555
H9 C12 1_555 1_555
H10 C13 1_555 1_555
Cu2D I1 1_555 1_555
Cu3B I2 1_555 1_555
Cu2B I3 1_555 1_555
Cu4E I4 1_555 1_555
I1D Cu2 1_555 1_555
I3B Cu2 1_555 1_555
I2B Cu3 1_555 1_555
I4E Cu4 1_555 1_555
I2 Cu2 1_555 1_555
I3 Cu3 1_555 1_555
I4 Cu4 1_555 1_555
C8 C14 1_555 1_555
Cu2D I1D 1_555 1_555
Cu3B I2B 1_555 1_555
Cu3B I3B 1_555 1_555
Cu2B I2B 1_555 1_555
Cu4E I4E 1_555 1_555

#END
