
#######################################################################
#
#                 Cambridge Crystallographic Data Centre
#                                CCDC 
#
#######################################################################
#
# If this CIF has been generated from an entry in the Cambridge 
# Structural Database, then it will include bibliographic, chemical, 
# crystal, experimental, refinement or atomic coordinate data resulting 
# from the CCDC's data processing and validation procedures.
#
#######################################################################

data_GELVOK
_symmetry_cell_setting           triclinic
_symmetry_space_group_name_H-M   'P -1'
_symmetry_Int_Tables_number      2
_space_group_name_Hall           '-P 1'
loop_
_symmetry_equiv_pos_site_id
_symmetry_equiv_pos_as_xyz
1 x,y,z
2 -x,-y,-z
_cell_length_a                   10.157(3)
_cell_length_b                   10.552(3)
_cell_length_c                   13.195(4)
_cell_angle_alpha                75.792(4)
_cell_angle_beta                 89.533(4)
_cell_angle_gamma                85.630(4)
_cell_volume                     1366.87
loop_
_atom_site_label
_atom_site_type_symbol
_atom_site_fract_x
_atom_site_fract_y
_atom_site_fract_z
Co1 Co 0.15078(4) 0.03302(4) 0.61534(3)
O1 O 0.35574(19) 0.0470(2) 0.61882(16)
N1 N -0.1764(2) 0.7134(3) 0.18379(19)
C1 C 0.3782(3) -0.0709(3) 0.6702(2)
O2 O 0.28716(19) -0.1447(2) 0.69629(16)
N2 N -0.0103(2) 0.3977(2) 0.41422(19)
C2 C 0.5468(3) -0.2300(3) 0.7793(2)
H1 H 0.4791 -0.2760 0.8152
O3 O 0.83471(19) 0.0423(2) 0.51978(15)
N3 N 0.1071(2) 0.2257(2) 0.51503(18)
C3 C 0.6776(3) -0.2706(3) 0.8042(2)
O4 O 0.97500(19) -0.0434(2) 0.65442(15)
N4 N -0.1402(2) 0.8829(2) 0.24990(19)
C4 C 0.7814(3) -0.2059(3) 0.7535(2)
H2 H 0.8683 -0.2352 0.7732
O5 O 0.6191(3) -0.4464(3) 0.9341(3)
C5 C 0.7528(3) -0.0960(3) 0.6724(2)
O6 O 0.8237(2) -0.4224(3) 0.91301(19)
C6 C 0.8619(3) -0.0259(3) 0.6095(2)
C7 C 0.6218(3) -0.0531(3) 0.6465(2)
H3 H 0.6027 0.0213 0.5926
C8 C 0.5193(3) -0.1191(3) 0.6995(2)
N5 N 0.7095(3) -0.3893(3) 0.8897(2)
C9 C -0.0404(3) 0.8688(3) 0.1783(2)
C10 C -0.2161(3) 0.7880(3) 0.2493(2)
H4 H -0.2909 0.7736 0.2905
C11 C -0.0117(3) 0.2790(3) 0.4813(2)
H5 H -0.0889 0.2382 0.5019
C12 C 0.1933(3) 0.3190(3) 0.4637(2)
C13 C 0.3313(3) 0.3161(3) 0.4650(2)
H6 H 0.3816 0.2453 0.5065
C14 C 0.3910(3) 0.4207(3) 0.4034(2)
C15 C 0.5388(3) 0.4156(4) 0.3989(3)
H7 H 0.5755 0.3414 0.4511
H8 H 0.5685 0.4945 0.4117
H9 H 0.5671 0.4077 0.3310
C16 C 0.3796(4) 0.6478(4) 0.2751(3)
H10 H 0.4335 0.6196 0.2234
H11 H 0.4337 0.6839 0.3186
H12 H 0.3128 0.7133 0.2410
C17 C 0.3144(3) 0.5311(3) 0.3421(3)
C18 C 0.1779(3) 0.5341(3) 0.3404(2)
H13 H 0.1271 0.6054 0.2999
C19 C 0.1195(3) 0.4264(3) 0.4016(2)
C20 C -0.1223(3) 0.4790(3) 0.3613(2)
H14 H -0.1136 0.5691 0.3638
H15 H -0.2023 0.4510 0.3979
C21 C -0.1349(3) 0.4728(3) 0.2476(2)
H16 H -0.1701 0.3907 0.2453
H17 H -0.0479 0.4744 0.2167
C22 C -0.2244(3) 0.5862(3) 0.1832(2)
H18 H -0.2289 0.5780 0.1117
H19 H -0.3129 0.5818 0.2114
C23 C -0.0622(3) 0.7631(3) 0.1372(2)
C24 C 0.0218(3) 0.7256(3) 0.0645(2)
H20 H 0.0060 0.6540 0.0381
C25 C 0.1292(4) 0.7970(3) 0.0322(2)
C26 C 0.2224(4) 0.7589(4) -0.0478(3)
H21 H 0.1960 0.6804 -0.0637
H22 H 0.3107 0.7437 -0.0198
H23 H 0.2193 0.8285 -0.1104
C27 C 0.2721(4) 0.9830(4) 0.0394(3)
H24 H 0.3512 0.9261 0.0573
H25 H 0.2725 1.0528 0.0743
H26 H 0.2682 1.0191 -0.0348
C28 C 0.1525(3) 0.9056(3) 0.0733(2)
C29 C 0.0666(3) 0.9426(3) 0.1450(2)
H27 H 0.0804 1.0154 0.1704
Co1A Co 0.84922(4) -0.03302(4) 0.38466(3)
Co1_2 Co 1.15078(4) 0.03302(4) 0.61534(3)
Co1A_2 Co -0.15078(4) 0.96698(4) 0.38466(3)
O3A O 0.16529(19) -0.0423(2) 0.48022(15)
O4_2 O -0.02500(19) -0.0434(2) 0.65442(15)
N4A N 0.1402(2) 0.1171(2) 0.75010(19)
loop_
_geom_bond_atom_site_label_1
_geom_bond_atom_site_label_2
_geom_bond_site_symmetry_1
_geom_bond_site_symmetry_2
Co1 O1 1_555 1_555
O1 C1 1_555 1_555
N1 C10 1_555 1_555
C1 O2 1_555 1_555
O2 Co1 1_555 1_555
N2 C11 1_555 1_555
C2 H1 1_555 1_555
O3 C6 1_555 1_555
N3 Co1 1_555 1_555
C3 C2 1_555 1_555
O4 C6 1_555 1_555
N4 C9 1_555 1_555
C4 C3 1_555 1_555
H2 C4 1_555 1_555
O5 N5 1_555 1_555
C5 C4 1_555 1_555
O6 N5 1_555 1_555
C6 C5 1_555 1_555
C7 C5 1_555 1_555
H3 C7 1_555 1_555
C8 C1 1_555 1_555
N5 C3 1_555 1_555
C9 C23 1_555 1_555
C10 N4 1_555 1_555
H4 C10 1_555 1_555
C11 N3 1_555 1_555
H5 C11 1_555 1_555
C12 N3 1_555 1_555
C13 C12 1_555 1_555
H6 C13 1_555 1_555
C14 C13 1_555 1_555
C15 C14 1_555 1_555
H7 C15 1_555 1_555
H8 C15 1_555 1_555
H9 C15 1_555 1_555
C16 H10 1_555 1_555
H11 C16 1_555 1_555
H12 C16 1_555 1_555
C17 C14 1_555 1_555
C18 C17 1_555 1_555
H13 C18 1_555 1_555
C19 N2 1_555 1_555
C20 N2 1_555 1_555
H14 C20 1_555 1_555
H15 C20 1_555 1_555
C21 C20 1_555 1_555
H16 C21 1_555 1_555
H17 C21 1_555 1_555
C22 N1 1_555 1_555
H18 C22 1_555 1_555
H19 C22 1_555 1_555
C23 N1 1_555 1_555
C24 C23 1_555 1_555
H20 C24 1_555 1_555
C25 C24 1_555 1_555
C26 C25 1_555 1_555
H21 C26 1_555 1_555
H22 C26 1_555 1_555
H23 C26 1_555 1_555
C27 H24 1_555 1_555
H25 C27 1_555 1_555
H26 C27 1_555 1_555
C28 C25 1_555 1_555
C29 C9 1_555 1_555
H27 C29 1_555 1_555
Co1A O3 1_555 1_555
Co1_2 O4 1_555 1_555
Co1A_2 N4 1_555 1_555
O3A Co1 1_555 1_555
O4_2 Co1 1_555 1_555
N4A Co1 1_555 1_555
C2 C8 1_555 1_555
C7 C8 1_555 1_555
C12 C19 1_555 1_555
C16 C17 1_555 1_555
C18 C19 1_555 1_555
C21 C22 1_555 1_555
C27 C28 1_555 1_555
C28 C29 1_555 1_555

#END
