
#######################################################################
#
#                 Cambridge Crystallographic Data Centre
#                                CCDC 
#
#######################################################################
#
# If this CIF has been generated from an entry in the Cambridge 
# Structural Database, then it will include bibliographic, chemical, 
# crystal, experimental, refinement or atomic coordinate data resulting 
# from the CCDC's data processing and validation procedures.
#
#######################################################################

data_GELXEC
_symmetry_cell_setting           triclinic
_symmetry_space_group_name_H-M   'P -1'
_symmetry_Int_Tables_number      2
_space_group_name_Hall           '-P 1'
loop_
_symmetry_equiv_pos_site_id
_symmetry_equiv_pos_as_xyz
1 x,y,z
2 -x,-y,-z
_cell_length_a                   6.2566(4)
_cell_length_b                   7.5975(6)
_cell_length_c                   11.1251(8)
_cell_angle_alpha                90.896(6)
_cell_angle_beta                 92.827(5)
_cell_angle_gamma                94.340(5)
_cell_volume                     526.569
loop_
_atom_site_label
_atom_site_type_symbol
_atom_site_fract_x
_atom_site_fract_y
_atom_site_fract_z
Cu1 Cu -0.40765(8) 0.24515(7) 0.32605(5)
Cu2 Cu 0.22063(7) 0.22907(6) 0.14249(4)
Cl1 Cl -0.14240(14) 0.25661(13) 0.16448(8)
Cl2 Cl -0.61171(15) 0.48436(13) 0.27683(9)
Cl3 Cl -0.66485(14) 0.01679(12) 0.27456(9)
N1 N -0.1793(6) 0.2501(5) 0.4506(3)
N2 N 0.0568(5) 0.3320(4) 0.7628(3)
H1 H -0.0746 0.3356 0.7266
H2 H 0.1250 0.4401 0.7585
C1 C -0.0165(7) 0.2508(6) 0.4992(4)
C2 C 0.1933(6) 0.2527(6) 0.5645(3)
H3 H 0.2658 0.3697 0.5603
H4 H 0.2799 0.1705 0.5252
C3 C 0.1776(6) 0.2035(5) 0.6964(3)
H5 H 0.1059 0.0862 0.7014
H6 H 0.3208 0.2011 0.7337
C4 C 0.0326(6) 0.2878(6) 0.8940(3)
H7 H -0.0693 0.3618 0.9283
H8 H -0.0223 0.1656 0.9002
C5 C 0.2454(6) 0.3166(5) 0.9626(3)
H9 H 0.2901 0.4295 0.9917
C6 C 0.3745(6) 0.1842(6) 0.9837(4)
H10 H 0.3324 0.0704 0.9552
H11 H 0.5053 0.2069 1.0265
Cu2_2 Cu -0.77937(7) 0.22907(6) 0.14249(4)
Cu2_3 Cu 0.22063(7) 0.22907(6) 1.14249(4)
Cl2_2 Cl 0.38829(15) 0.48436(13) 0.27683(9)
Cl3_2 Cl 0.33515(14) 0.01679(12) 0.27456(9)
C5_2 C 0.2454(6) 0.3166(5) -0.0374(3)
H9_2 H 0.2901 0.4295 -0.0083
C6_2 C 0.3745(6) 0.1842(6) -0.0163(4)
H10_2 H 0.3324 0.0704 -0.0448
H11_2 H 0.5053 0.2069 0.0265
loop_
_geom_bond_atom_site_label_1
_geom_bond_atom_site_label_2
_geom_bond_site_symmetry_1
_geom_bond_site_symmetry_2
Cu1 Cl1 1_555 1_555
Cu2 Cl1 1_555 1_555
Cl2 Cu1 1_555 1_555
Cl3 Cu1 1_555 1_555
N1 Cu1 1_555 1_555
N2 H1 1_555 1_555
H2 N2 1_555 1_555
C1 N1 1_555 1_555
C2 C1 1_555 1_555
H3 C2 1_555 1_555
H4 C2 1_555 1_555
C3 N2 1_555 1_555
H5 C3 1_555 1_555
H6 C3 1_555 1_555
C4 N2 1_555 1_555
H7 C4 1_555 1_555
H8 C4 1_555 1_555
C5 C4 1_555 1_555
H9 C5 1_555 1_555
C6 C5 1_555 1_555
H10 C6 1_555 1_555
H11 C6 1_555 1_555
Cu2_2 Cl2 1_555 1_555
Cu2_3 C5 1_555 1_555
Cl2_2 Cu2 1_555 1_555
Cl3_2 Cu2 1_555 1_555
C5_2 Cu2 1_555 1_555
H9_2 C5_2 1_555 1_555
C6_2 Cu2 1_555 1_555
H10_2 C6_2 1_555 1_555
H11_2 C6_2 1_555 1_555
Cl3 Cu2_2 1_555 1_555
C2 C3 1_555 1_555
C6 Cu2_3 1_555 1_555
C5_2 C6_2 1_555 1_555

#END
