
#######################################################################
#
#                 Cambridge Crystallographic Data Centre
#                                CCDC 
#
#######################################################################
#
# If this CIF has been generated from an entry in the Cambridge 
# Structural Database, then it will include bibliographic, chemical, 
# crystal, experimental, refinement or atomic coordinate data resulting 
# from the CCDC's data processing and validation procedures.
#
#######################################################################

data_GEMDUY
_symmetry_cell_setting           triclinic
_symmetry_space_group_name_H-M   'P -1'
_symmetry_Int_Tables_number      2
_space_group_name_Hall           '-P 1'
loop_
_symmetry_equiv_pos_site_id
_symmetry_equiv_pos_as_xyz
1 x,y,z
2 -x,-y,-z
_cell_length_a                   10.0330(8)
_cell_length_b                   10.2394(8)
_cell_length_c                   10.9499(8)
_cell_angle_alpha                104.260(2)
_cell_angle_beta                 100.719(2)
_cell_angle_gamma                118.6960(10)
_cell_volume                     892.992
loop_
_atom_site_label
_atom_site_type_symbol
_atom_site_fract_x
_atom_site_fract_y
_atom_site_fract_z
Ag1 Ag 0.76278(3) 0.76211(3) 0.52522(3)
N1 N 0.6678(3) 0.5154(3) 0.5013(3)
C1 C 0.6794(4) 0.4767(4) 0.6087(4)
H1 H 0.7284 0.5595 0.6948
C2 C 0.6229(5) 0.3209(4) 0.5995(4)
H2 H 0.6323 0.2993 0.6782
C3 C 0.5518(4) 0.1957(4) 0.4733(4)
C4 C 0.5387(4) 0.2372(4) 0.3620(4)
H3 H 0.4897 0.1572 0.2744
C5 C 0.5973(4) 0.3948(4) 0.3802(4)
H4 H 0.5873 0.4196 0.3032
N2 N 0.8415(3) 0.9978(3) 0.5249(3)
C6 C 0.8317(5) 1.0298(5) 0.4143(4)
H5 H 0.7875 0.9442 0.3306
C7 C 0.8827(5) 1.1818(5) 0.4154(4)
H6 H 0.8743 1.1980 0.3342
C8 C 0.9467(4) 1.3108(4) 0.5373(4)
C9 C 0.9560(5) 1.2770(5) 0.6519(4)
H7 H 0.9985 1.3598 0.7369
C10 C 0.9033(5) 1.1230(4) 0.6418(4)
H8 H 0.9108 1.1036 0.7216
C11 C 0.4936(4) 0.0274(4) 0.4514(4)
H9 H 0.4430 -0.0479 0.3616
C12 C 1.0013(5) 1.4766(5) 0.5510(4)
H10 H 1.0407 1.5545 0.6381
O3 O 0.8877(5) 0.8753(4) 0.7901(3)
H11 H 0.960(4) 0.860(5) 0.8344(15)
H12 H 0.862(4) 0.933(5) 0.8452(14)
Ag1A Ag 0.23722(3) -0.76211(3) 0.47478(3)
Ag1A_2 Ag 1.23722(3) 2.23789(3) 0.47478(3)
N1A N 0.3322(3) -0.5154(3) 0.4987(3)
C1A C 0.3206(4) -0.4767(4) 0.3913(4)
H1A H 0.2716 -0.5595 0.3052
C2A C 0.3771(5) -0.3209(4) 0.4005(4)
H2A H 0.3677 -0.2993 0.3218
C3A C 0.4482(4) -0.1957(4) 0.5267(4)
C4A C 0.4613(4) -0.2372(4) 0.6380(4)
H3A H 0.5103 -0.1572 0.7256
C5A C 0.4027(4) -0.3948(4) 0.6198(4)
H4A H 0.4127 -0.4196 0.6968
N2A N 1.1585(3) 2.0022(3) 0.4751(3)
N2A_2 N 0.1585(3) -0.9978(3) 0.4751(3)
C6A C 1.1683(5) 1.9702(5) 0.5857(4)
H5A H 1.2125 2.0558 0.6694
C7A C 1.1173(5) 1.8182(5) 0.5846(4)
H6A H 1.1257 1.8020 0.6658
C8A C 1.0533(4) 1.6892(4) 0.4627(4)
C9A C 1.0440(5) 1.7230(5) 0.3481(4)
H7A H 1.0015 1.6402 0.2631
C10A C 1.0967(5) 1.8770(4) 0.3582(4)
H8A H 1.0892 1.8964 0.2784
C11A C 0.5064(4) -0.0274(4) 0.5486(4)
H9A H 0.5570 0.0479 0.6384
C12A C 0.9987(5) 1.5234(5) 0.4490(4)
H10A H 0.9593 1.4455 0.3619
O3A O 0.1123(5) -0.8753(4) 0.2099(3)
H11A H 0.040(4) -0.860(5) 0.1656(15)
H12A H 0.138(4) -0.933(5) 0.1548(14)
O1 O 1.0795(5) 0.7707(5) 0.8744(3)
O2 O 1.2102(5) 0.9351(5) 1.0898(3)
C13 C 1.1813(5) 0.8316(6) 0.9871(4)
C14 C 1.2818(6) 0.7598(6) 1.0017(4)
F1 F 1.3141(8) 0.7146(9) 0.8930(5)
F2 F 1.1962(9) 0.6170(8) 1.0184(10)
F3 F 1.4159(7) 0.8428(8) 1.1043(4)
N3 N 0.6317(6) 0.6251(5) 0.1911(4)
C15 C 0.6776(6) 0.6638(5) 0.1117(5)
C16 C 0.7384(7) 0.7146(8) 0.0111(6)
H13 H 0.8409 0.7233 0.0219
H14 H 0.7550 0.8188 0.0220
H15 H 0.6601 0.6357 -0.0781
F4? F 1.262(2) 0.6590(18) 0.8941(14)
F5? F 1.2600(18) 0.6911(17) 1.0878(13)
F6? F 1.4422(12) 0.8796(16) 1.0572(14)
loop_
_geom_bond_atom_site_label_1
_geom_bond_atom_site_label_2
_geom_bond_site_symmetry_1
_geom_bond_site_symmetry_2
Ag1 N1 1_555 1_555
N1 C1 1_555 1_555
C1 H1 1_555 1_555
C2 C1 1_555 1_555
H2 C2 1_555 1_555
C3 C2 1_555 1_555
C4 C3 1_555 1_555
H3 C4 1_555 1_555
C5 N1 1_555 1_555
H4 C5 1_555 1_555
N2 Ag1 1_555 1_555
C6 N2 1_555 1_555
H5 C6 1_555 1_555
C7 C6 1_555 1_555
H6 C7 1_555 1_555
C8 C7 1_555 1_555
C9 C8 1_555 1_555
H7 C9 1_555 1_555
C10 N2 1_555 1_555
H8 C10 1_555 1_555
C11 C3 1_555 1_555
H9 C11 1_555 1_555
C12 C8 1_555 1_555
H10 C12 1_555 1_555
O1 C13 1_555 1_555
O2 C13 1_555 1_555
C13 C14 1_555 1_555
C14 F1 1_555 1_555
F2 C14 1_555 1_555
F3 C14 1_555 1_555
O3 Ag1 1_555 1_555
H11 O3 1_555 1_555
H12 O3 1_555 1_555
N3 C15 1_555 1_555
C15 C16 1_555 1_555
C16 H13 1_555 1_555
H14 C16 1_555 1_555
H15 C16 1_555 1_555
Ag1A N1A 1_555 1_555
Ag1A_2 N2A 1_555 1_555
N1A C1A 1_555 1_555
C1A H1A 1_555 1_555
C2A C1A 1_555 1_555
H2A C2A 1_555 1_555
C3A C2A 1_555 1_555
C4A C3A 1_555 1_555
H3A C4A 1_555 1_555
C5A N1A 1_555 1_555
H4A C5A 1_555 1_555
N2A C6A 1_555 1_555
N2A_2 Ag1A 1_555 1_555
C6A H5A 1_555 1_555
C7A C6A 1_555 1_555
H6A C7A 1_555 1_555
C8A C7A 1_555 1_555
C9A C8A 1_555 1_555
H7A C9A 1_555 1_555
C10A N2A 1_555 1_555
H8A C10A 1_555 1_555
C11A C11 1_555 1_555
H9A C11A 1_555 1_555
C12A C12 1_555 1_555
H10A C12A 1_555 1_555
O3A Ag1A 1_555 1_555
H11A O3A 1_555 1_555
H12A O3A 1_555 1_555
C4 C5 1_555 1_555
C9 C10 1_555 1_555
C3A C11A 1_555 1_555
C4A C5A 1_555 1_555
C8A C12A 1_555 1_555
C9A C10A 1_555 1_555

#END
