
#######################################################################
#
#                 Cambridge Crystallographic Data Centre
#                                CCDC 
#
#######################################################################
#
# If this CIF has been generated from an entry in the Cambridge 
# Structural Database, then it will include bibliographic, chemical, 
# crystal, experimental, refinement or atomic coordinate data resulting 
# from the CCDC's data processing and validation procedures.
#
#######################################################################

data_GENBIM
_symmetry_cell_setting           triclinic
_symmetry_space_group_name_H-M   'P -1'
_symmetry_Int_Tables_number      2
_space_group_name_Hall           '-P 1'
loop_
_symmetry_equiv_pos_site_id
_symmetry_equiv_pos_as_xyz
1 x,y,z
2 -x,-y,-z
_cell_length_a                   9.9630(12)
_cell_length_b                   11.4996(13)
_cell_length_c                   14.542(2)
_cell_angle_alpha                72.007(10)
_cell_angle_beta                 73.271(10)
_cell_angle_gamma                88.712(9)
_cell_volume                     1513.5
loop_
_atom_site_label
_atom_site_type_symbol
_atom_site_fract_x
_atom_site_fract_y
_atom_site_fract_z
Cu1 Cu 0.0000 0.0000 0.0000
O1 O -0.0465(7) 0.5492(5) -0.6281(5)
C1 C -0.1519(11) 0.5408(10) -0.7490(9)
F1 F -0.1446(9) 0.6623(6) -0.7906(5)
F2 F -0.2676(6) 0.4987(6) -0.7615(5)
F3 F -0.0420(7) 0.5005(7) -0.8038(5)
C2 C -0.1552(12) 0.5066(9) -0.6390(9)
C3 C -0.2712(11) 0.4401(10) -0.5644(9)
H1 H -0.3441 0.4103 -0.5832
C4 C -0.2838(10) 0.4159(9) -0.4627(8)
C5 C -0.4183(10) 0.3488(9) -0.3848(9)
F4 F -0.4699(7) 0.4101(7) -0.3189(6)
F5 F -0.3943(7) 0.2382(6) -0.3328(5)
F6 F -0.5202(6) 0.3378(6) -0.4246(5)
O2 O -0.1918(7) 0.4393(6) -0.4241(5)
Cu2 Cu 0.0000 0.5000 -0.5000
O3 O 0.1212(7) -0.1239(6) -0.0415(5)
C6 C 0.1991(13) -0.2839(10) -0.1079(9)
F7 F 0.3210(8) -0.2511(7) -0.1042(7)
F8 F 0.1703(8) -0.4048(6) -0.0580(6)
F9 F 0.2054(8) -0.2675(7) -0.2031(5)
C7 C 0.0779(12) -0.2106(9) -0.0616(8)
C8 C -0.0598(12) -0.2492(10) -0.0495(9)
H2 H -0.0759 -0.3185 -0.0684
C9 C -0.1719(11) -0.1900(10) -0.0113(9)
C10 C -0.3187(13) -0.2357(11) 0.0008(11)
F10 F -0.3722(10) -0.1626(9) -0.0638(8)
F11 F -0.3251(9) -0.3432(8) -0.0116(9)
F12 F -0.4027(8) -0.2479(10) 0.0916(7)
O4 O -0.1689(7) -0.0947(6) 0.0158(5)
O5 O 0.0191(7) 0.3095(6) -0.5269(5)
N1 N 0.1221(8) 0.2378(7) -0.5334(6)
C11 C 0.2029(11) 0.2196(9) -0.6310(8)
C12 C 0.2453(12) 0.3458(10) -0.7130(8)
H3 H 0.1612 0.3825 -0.7281
H4 H 0.2915 0.3994 -0.6886
H5 H 0.3102 0.3357 -0.7746
C13 C 0.0990(12) 0.1471(11) -0.6568(9)
H6 H 0.0282 0.2009 -0.6778
H7 H 0.1499 0.1164 -0.7120
H8 H 0.0526 0.0779 -0.5970
C14 C 0.3222(11) 0.1467(9) -0.5983(8)
C15 C 0.3710(12) 0.0488(11) -0.6489(10)
H9 H 0.2891 -0.0011 -0.6438
H10 H 0.4224 0.0882 -0.7203
H11 H 0.4327 -0.0037 -0.6149
C16 C 0.4492(11) 0.2283(11) -0.6104(9)
H12 H 0.5208 0.1769 -0.5878
H13 H 0.4884 0.2772 -0.6817
H14 H 0.4199 0.2830 -0.5694
N2 N 0.2529(9) 0.0893(8) -0.4884(6)
O6 O 0.2974(8) -0.0050(7) -0.4368(6)
C17 C 0.1471(10) 0.1544(9) -0.4520(8)
C18 C 0.0709(11) 0.1358(9) -0.3490(8)
C19 C 0.1171(11) 0.0965(9) -0.2601(8)
C20 C 0.2605(11) 0.0698(10) -0.2537(8)
H15 H 0.2603 0.0471 -0.1829
H16 H 0.2915 0.0018 -0.2802
H17 H 0.3248 0.1427 -0.2938
N3 N 0.0114(8) 0.0942(7) -0.1789(7)
N4 N -0.1028(8) 0.1298(7) -0.2149(6)
C21 C -0.2342(10) 0.1545(9) -0.1480(8)
H18 H -0.3145 0.1325 -0.1681
H19 H -0.2451 0.1023 -0.0776
C22 C -0.2368(12) 0.2879(10) -0.1523(9)
H20 H -0.3236 0.2997 -0.1043
H21 H -0.1557 0.3108 -0.1345
H22 H -0.2326 0.3395 -0.2209
C23 C -0.0711(10) 0.1589(8) -0.3139(8)
H23 H -0.1322 0.1895 -0.3540
O1A O 0.0465(7) 0.4508(5) -0.3719(5)
C1A C 0.1519(11) 0.4592(10) -0.2510(9)
F1A F 0.1446(9) 0.3377(6) -0.2094(5)
F2A F 0.2676(6) 0.5013(6) -0.2385(5)
F3A F 0.0420(7) 0.4995(7) -0.1962(5)
C2A C 0.1552(12) 0.4934(9) -0.3610(9)
C3A C 0.2712(11) 0.5599(10) -0.4356(9)
H1A H 0.3441 0.5897 -0.4168
C4A C 0.2838(10) 0.5841(9) -0.5373(8)
C5A C 0.4183(10) 0.6512(9) -0.6152(9)
F4A F 0.4699(7) 0.5899(7) -0.6811(6)
F5A F 0.3943(7) 0.7618(6) -0.6672(5)
F6A F 0.5202(6) 0.6622(6) -0.5754(5)
O2A O 0.1918(7) 0.5607(6) -0.5759(5)
Cu2_2 Cu 0.0000 -0.5000 0.5000
O3A O -0.1212(7) 0.1239(6) 0.0415(5)
C6A C -0.1991(13) 0.2839(10) 0.1079(9)
F7A F -0.3210(8) 0.2511(7) 0.1042(7)
F8A F -0.1703(8) 0.4048(6) 0.0580(6)
F9A F -0.2054(8) 0.2675(7) 0.2031(5)
C7A C -0.0779(12) 0.2106(9) 0.0616(8)
C8A C 0.0598(12) 0.2492(10) 0.0495(9)
H2A H 0.0759 0.3185 0.0684
C9A C 0.1719(11) 0.1900(10) 0.0113(9)
C10A C 0.3187(13) 0.2357(11) -0.0008(11)
F10A F 0.3722(10) 0.1626(9) 0.0638(8)
F11A F 0.3251(9) 0.3432(8) 0.0116(9)
F12A F 0.4027(8) 0.2479(10) -0.0916(7)
O4A O 0.1689(7) 0.0947(6) -0.0158(5)
O5A O -0.0191(7) -0.3095(6) 0.5269(5)
O5A_2 O -0.0191(7) 0.6905(6) -0.4731(5)
N1A N -0.1221(8) -0.2378(7) 0.5334(6)
C11A C -0.2029(11) -0.2196(9) 0.6310(8)
C12A C -0.2453(12) -0.3458(10) 0.7130(8)
H3A H -0.1612 -0.3825 0.7281
H4A H -0.2915 -0.3994 0.6886
H5A H -0.3102 -0.3357 0.7746
C13A C -0.0990(12) -0.1471(11) 0.6568(9)
H6A H -0.0282 -0.2009 0.6778
H7A H -0.1499 -0.1164 0.7120
H8A H -0.0526 -0.0779 0.5970
C14A C -0.3222(11) -0.1467(9) 0.5983(8)
C15A C -0.3710(12) -0.0488(11) 0.6489(10)
H9A H -0.2891 0.0011 0.6438
H10A H -0.4224 -0.0882 0.7203
H11A H -0.4327 0.0037 0.6149
C16A C -0.4492(11) -0.2283(11) 0.6104(9)
H12A H -0.5208 -0.1769 0.5878
H13A H -0.4884 -0.2772 0.6817
H14A H -0.4199 -0.2830 0.5694
N2A N -0.2529(9) -0.0893(8) 0.4884(6)
O6A O -0.2974(8) 0.0050(7) 0.4368(6)
C17A C -0.1471(10) -0.1544(9) 0.4520(8)
C18A C -0.0709(11) -0.1358(9) 0.3490(8)
C19A C -0.1171(11) -0.0965(9) 0.2601(8)
C20A C -0.2605(11) -0.0698(10) 0.2537(8)
H15A H -0.2603 -0.0471 0.1829
H16A H -0.2915 -0.0018 0.2802
H17A H -0.3248 -0.1427 0.2938
N3A N -0.0114(8) -0.0942(7) 0.1789(7)
N4A N 0.1028(8) -0.1298(7) 0.2149(6)
C21A C 0.2342(10) -0.1545(9) 0.1480(8)
H18A H 0.3145 -0.1325 0.1681
H19A H 0.2451 -0.1023 0.0776
C22A C 0.2368(12) -0.2879(10) 0.1523(9)
H20A H 0.3236 -0.2997 0.1043
H21A H 0.1557 -0.3108 0.1345
H22A H 0.2326 -0.3395 0.2209
C23A C 0.0711(10) -0.1589(8) 0.3139(8)
H23A H 0.1322 -0.1895 0.3540
loop_
_geom_bond_atom_site_label_1
_geom_bond_atom_site_label_2
_geom_bond_site_symmetry_1
_geom_bond_site_symmetry_2
Cu1 O3 1_555 1_555
O1 C2 1_555 1_555
C1 F1 1_555 1_555
F2 C1 1_555 1_555
F3 C1 1_555 1_555
C2 C1 1_555 1_555
C3 C2 1_555 1_555
H1 C3 1_555 1_555
C4 C3 1_555 1_555
C5 C4 1_555 1_555
F4 C5 1_555 1_555
F5 C5 1_555 1_555
F6 C5 1_555 1_555
O2 C4 1_555 1_555
Cu2 O1 1_555 1_555
O3 C7 1_555 1_555
C6 F7 1_555 1_555
F8 C6 1_555 1_555
F9 C6 1_555 1_555
C7 C6 1_555 1_555
C8 C7 1_555 1_555
H2 C8 1_555 1_555
C9 C8 1_555 1_555
C10 C9 1_555 1_555
F10 C10 1_555 1_555
F11 C10 1_555 1_555
F12 C10 1_555 1_555
O4 Cu1 1_555 1_555
O5 Cu2 1_555 1_555
N1 O5 1_555 1_555
C11 N1 1_555 1_555
C12 C11 1_555 1_555
H3 C12 1_555 1_555
H4 C12 1_555 1_555
H5 C12 1_555 1_555
C13 C11 1_555 1_555
H6 C13 1_555 1_555
H7 C13 1_555 1_555
H8 C13 1_555 1_555
C14 C11 1_555 1_555
C15 C14 1_555 1_555
H9 C15 1_555 1_555
H10 C15 1_555 1_555
H11 C15 1_555 1_555
C16 C14 1_555 1_555
H12 C16 1_555 1_555
H13 C16 1_555 1_555
H14 C16 1_555 1_555
N2 C14 1_555 1_555
O6 N2 1_555 1_555
C17 N1 1_555 1_555
C18 C17 1_555 1_555
C19 C18 1_555 1_555
C20 C19 1_555 1_555
H15 C20 1_555 1_555
H16 C20 1_555 1_555
H17 C20 1_555 1_555
N3 Cu1 1_555 1_555
N4 N3 1_555 1_555
C21 N4 1_555 1_555
H18 C21 1_555 1_555
H19 C21 1_555 1_555
C22 C21 1_555 1_555
H20 C22 1_555 1_555
H21 C22 1_555 1_555
H22 C22 1_555 1_555
C23 C18 1_555 1_555
H23 C23 1_555 1_555
O1A Cu2 1_555 1_555
C1A F1A 1_555 1_555
F2A C1A 1_555 1_555
F3A C1A 1_555 1_555
C2A O1A 1_555 1_555
C3A C2A 1_555 1_555
H1A C3A 1_555 1_555
C4A C3A 1_555 1_555
C5A C4A 1_555 1_555
F4A C5A 1_555 1_555
F5A C5A 1_555 1_555
F6A C5A 1_555 1_555
O2A Cu2 1_555 1_555
Cu2_2 O5A 1_555 1_555
O3A Cu1 1_555 1_555
C6A F7A 1_555 1_555
F8A C6A 1_555 1_555
F9A C6A 1_555 1_555
C7A O3A 1_555 1_555
C8A C7A 1_555 1_555
H2A C8A 1_555 1_555
C9A C8A 1_555 1_555
C10A C9A 1_555 1_555
F10A C10A 1_555 1_555
F11A C10A 1_555 1_555
F12A C10A 1_555 1_555
O4A Cu1 1_555 1_555
O5A N1A 1_555 1_555
O5A_2 Cu2 1_555 1_555
N1A C11A 1_555 1_555
C11A C12A 1_555 1_555
C12A H3A 1_555 1_555
H4A C12A 1_555 1_555
H5A C12A 1_555 1_555
C13A C11A 1_555 1_555
H6A C13A 1_555 1_555
H7A C13A 1_555 1_555
H8A C13A 1_555 1_555
C14A C11A 1_555 1_555
C15A C14A 1_555 1_555
H9A C15A 1_555 1_555
H10A C15A 1_555 1_555
H11A C15A 1_555 1_555
C16A C14A 1_555 1_555
H12A C16A 1_555 1_555
H13A C16A 1_555 1_555
H14A C16A 1_555 1_555
N2A C14A 1_555 1_555
O6A N2A 1_555 1_555
C17A N1A 1_555 1_555
C18A C17A 1_555 1_555
C19A C18A 1_555 1_555
C20A C19A 1_555 1_555
H15A C20A 1_555 1_555
H16A C20A 1_555 1_555
H17A C20A 1_555 1_555
N3A Cu1 1_555 1_555
N4A N3A 1_555 1_555
C21A N4A 1_555 1_555
H18A C21A 1_555 1_555
H19A C21A 1_555 1_555
C22A C21A 1_555 1_555
H20A C22A 1_555 1_555
H21A C22A 1_555 1_555
H22A C22A 1_555 1_555
C23A C18A 1_555 1_555
H23A C23A 1_555 1_555
O2 Cu2 1_555 1_555
C9 O4 1_555 1_555
N2 C17 1_555 1_555
C19 N3 1_555 1_555
N4 C23 1_555 1_555
C1A C2A 1_555 1_555
C4A O2A 1_555 1_555
C6A C7A 1_555 1_555
C9A O4A 1_555 1_555
N2A C17A 1_555 1_555
C19A N3A 1_555 1_555
N4A C23A 1_555 1_555

#END
