
#######################################################################
#
#                 Cambridge Crystallographic Data Centre
#                                CCDC 
#
#######################################################################
#
# If this CIF has been generated from an entry in the Cambridge 
# Structural Database, then it will include bibliographic, chemical, 
# crystal, experimental, refinement or atomic coordinate data resulting 
# from the CCDC's data processing and validation procedures.
#
#######################################################################

data_GENFEM
_symmetry_cell_setting           monoclinic
_symmetry_space_group_name_H-M   'P 21/c'
_symmetry_Int_Tables_number      14
_space_group_name_Hall           '-P 2ybc'
loop_
_symmetry_equiv_pos_site_id
_symmetry_equiv_pos_as_xyz
1 x,y,z
2 -x,1/2+y,1/2-z
3 -x,-y,-z
4 x,1/2-y,1/2+z
_cell_length_a                   12.8660(2)
_cell_length_b                   15.1682(2)
_cell_length_c                   13.6899(2)
_cell_angle_alpha                90
_cell_angle_beta                 105.550(2)
_cell_angle_gamma                90
_cell_volume                     2573.85
loop_
_atom_site_label
_atom_site_type_symbol
_atom_site_fract_x
_atom_site_fract_y
_atom_site_fract_z
Tb1 Tb 0.281403(13) 0.183139(9) 0.308523(10)
Pt1 Pt 0.359477(10) 0.512623(7) 0.487824(8)
C1 C 0.3510(3) 0.39692(19) 0.4182(2)
C2 C 0.3306(3) 0.04815(18) 0.1070(2)
C3 C 0.3602(3) 0.6299(2) 0.5539(2)
C4 C 0.3884(3) 0.57440(19) 0.3691(2)
C5 C 0.4677(3) 0.1890(2) 0.5417(2)
H1 H 0.4789 0.2438 0.5159
C6 C 0.5253(3) 0.1684(2) 0.6394(2)
H2 H 0.5753 0.2078 0.6777
C7 C 0.5071(4) 0.0884(3) 0.6785(3)
H3 H 0.5428 0.0730 0.7448
C8 C 0.4361(4) 0.0323(2) 0.6186(3)
H4 H 0.4234 -0.0226 0.6436
C9 C 0.3821(3) 0.0557(2) 0.5206(2)
C10 C 0.3033(3) -0.00402(19) 0.4530(2)
C11 C 0.2941(3) -0.0923(2) 0.4775(3)
H5 H 0.3389 -0.1161 0.5365
C12 C 0.2184(4) -0.1432(3) 0.4135(3)
H6 H 0.2126 -0.2026 0.4279
C13 C 0.1505(4) -0.1072(2) 0.3277(3)
H7 H 0.0978 -0.1413 0.2844
C14 C 0.1627(3) -0.0185(2) 0.3073(3)
C15 C 0.0862(3) 0.0270(2) 0.2218(2)
C16 C -0.0018(3) -0.0151(3) 0.1597(3)
H8 H -0.0133 -0.0747 0.1688
C17 C -0.0721(4) 0.0309(3) 0.0848(3)
H9 H -0.1310 0.0025 0.0421
C18 C -0.0561(3) 0.1179(3) 0.0724(3)
H10 H -0.1040 0.1506 0.0225
C19 C 0.0337(3) 0.1564(3) 0.1365(2)
H11 H 0.0455 0.2160 0.1279
N1 N 0.3419(2) 0.32927(17) 0.38054(18)
N2 N 0.3142(2) 0.08401(16) 0.17478(18)
N3 N 0.3607(3) 0.69733(18) 0.5903(2)
N4 N 0.4066(3) 0.61092(17) 0.30322(19)
N5 N 0.1143(3) 0.25578(18) 0.3922(2)
N6 N 0.3970(2) 0.13481(16) 0.48255(17)
N7 N 0.2401(2) 0.03147(15) 0.36755(19)
N8 N 0.1046(2) 0.11338(17) 0.21005(19)
O1 O 0.1182(2) 0.28076(15) 0.30526(16)
O2 O 0.1829(2) 0.20411(15) 0.43825(16)
O3 O 0.0397(3) 0.2818(2) 0.4259(2)
O4 O 0.46323(18) 0.19329(12) 0.30465(14)
H15 H 0.5080 0.2333 0.3317
H16 H 0.4921 0.1620 0.2675
O5 O 0.2459(2) 0.27587(13) 0.16194(14)
H17 H 0.2178 0.3264 0.1634
H18 H 0.2449 0.2566 0.1034
Pt1C Pt 0.359477(10) -0.012623(7) -0.012176(8)
C2C C 0.3306(3) 0.45185(18) 0.6070(2)
C20 C 0.1438(5) 0.5203(4) 0.1478(5)
C21 C 0.1238(6) 0.6156(4) 0.1549(5)
H12 H 0.0678 0.6338 0.0968
H13 H 0.1888 0.6476 0.1570
H14 H 0.1020 0.6273 0.2154
N9 N 0.1609(5) 0.4490(3) 0.1447(4)
loop_
_geom_bond_atom_site_label_1
_geom_bond_atom_site_label_2
_geom_bond_site_symmetry_1
_geom_bond_site_symmetry_2
Tb1 N1 1_555 1_555
Pt1 C1 1_555 1_555
C1 N1 1_555 1_555
C2 N2 1_555 1_555
C3 Pt1 1_555 1_555
C4 Pt1 1_555 1_555
C5 H1 1_555 1_555
C6 C5 1_555 1_555
H2 C6 1_555 1_555
C7 C6 1_555 1_555
H3 C7 1_555 1_555
C8 C7 1_555 1_555
H4 C8 1_555 1_555
C9 C8 1_555 1_555
C10 C9 1_555 1_555
C11 C10 1_555 1_555
H5 C11 1_555 1_555
C12 C11 1_555 1_555
H6 C12 1_555 1_555
C13 C12 1_555 1_555
H7 C13 1_555 1_555
C14 C13 1_555 1_555
C15 C14 1_555 1_555
C16 C15 1_555 1_555
H8 C16 1_555 1_555
C17 C16 1_555 1_555
H9 C17 1_555 1_555
C18 C17 1_555 1_555
H10 C18 1_555 1_555
C19 C18 1_555 1_555
H11 C19 1_555 1_555
C20 C21 1_555 1_555
C21 H12 1_555 1_555
H13 C21 1_555 1_555
H14 C21 1_555 1_555
N2 Tb1 1_555 1_555
N3 C3 1_555 1_555
N4 C4 1_555 1_555
N5 O1 1_555 1_555
N6 Tb1 1_555 1_555
N7 Tb1 1_555 1_555
N8 Tb1 1_555 1_555
N9 C20 1_555 1_555
O1 Tb1 1_555 1_555
O2 Tb1 1_555 1_555
O3 N5 1_555 1_555
O4 Tb1 1_555 1_555
H15 O4 1_555 1_555
H16 O4 1_555 1_555
O5 Tb1 1_555 1_555
H17 O5 1_555 1_555
H18 O5 1_555 1_555
Pt1C C2 1_555 1_555
C2C Pt1 1_555 1_555
C5 N6 1_555 1_555
C9 N6 1_555 1_555
C10 N7 1_555 1_555
C14 N7 1_555 1_555
C15 N8 1_555 1_555
C19 N8 1_555 1_555
N5 O2 1_555 1_555

#END
