
#######################################################################
#
#                 Cambridge Crystallographic Data Centre
#                                CCDC 
#
#######################################################################
#
# If this CIF has been generated from an entry in the Cambridge 
# Structural Database, then it will include bibliographic, chemical, 
# crystal, experimental, refinement or atomic coordinate data resulting 
# from the CCDC's data processing and validation procedures.
#
#######################################################################

data_GENQEX
_symmetry_cell_setting           monoclinic
_symmetry_space_group_name_H-M   'P 21/c'
_symmetry_Int_Tables_number      14
_space_group_name_Hall           '-P 2ybc'
loop_
_symmetry_equiv_pos_site_id
_symmetry_equiv_pos_as_xyz
1 x,y,z
2 -x,1/2+y,1/2-z
3 -x,-y,-z
4 x,1/2-y,1/2+z
_cell_length_a                   10.5146(12)
_cell_length_b                   25.643(3)
_cell_length_c                   13.6739(16)
_cell_angle_alpha                90
_cell_angle_beta                 107.448(7)
_cell_angle_gamma                90
_cell_volume                     3517.2
loop_
_atom_site_label
_atom_site_type_symbol
_atom_site_fract_x
_atom_site_fract_y
_atom_site_fract_z
Cu1 Cu 0.63053(8) 0.87960(3) 0.67809(5)
Cu2 Cu 0.99522(7) 0.80750(3) 1.21426(5)
O1 O 0.5830(4) 0.91305(16) 0.5352(3)
O2 O 0.7984(4) 0.92213(17) 0.5991(3)
O3 O 0.6938(5) 0.95576(17) 0.4513(3)
O4 O 0.9458(4) 0.87163(15) 1.1250(3)
O5 O 1.1578(5) 0.86057(18) 1.1437(3)
O6 O 1.0518(5) 0.92545(19) 1.0540(4)
O10 O 0.6531(4) 0.81471(16) 0.6137(3)
H1 H 0.6747 0.7906 0.6570
H2 H 0.5954 0.8052 0.5593
O11 O 0.4140(5) 0.8648(2) 0.6609(4)
H3 H 0.4003 0.8846 0.7079
N1 N 0.8319(5) 0.80644(18) 0.9615(4)
H4 H 0.8409 0.8331 1.0011
N2 N 0.8662(5) 0.71705(18) 0.9413(3)
N3 N 0.7568(5) 0.77097(18) 0.7970(4)
N4 N 0.7274(5) 0.85884(19) 0.8207(4)
N5 N 0.9375(5) 0.75512(18) 1.1023(4)
N6 N 0.7994(5) 0.68459(17) 0.7763(4)
H5 H 0.7233 0.6864 0.7258
N7 N 0.6230(5) 0.94848(19) 0.7409(4)
N8 N 1.0758(5) 0.74597(19) 1.2988(4)
N9 N 1.0559(5) 0.64093(19) 0.8311(4)
N10 N 0.6942(5) 0.93094(19) 0.5283(4)
N11 N 1.0571(6) 0.8866(2) 1.1072(4)
C1 C 0.7703(6) 0.8125(2) 0.8577(5)
C2 C 0.8793(6) 0.7586(2) 1.0032(4)
C3 C 0.8077(6) 0.7261(2) 0.8419(4)
C4 C 0.7485(7) 0.9017(2) 0.8930(5)
H6 H 0.8434 0.9066 0.9249
H7 H 0.7086 0.8933 0.9464
C5 C 0.6886(6) 0.9515(2) 0.8411(5)
C6 C 0.6981(8) 0.9975(2) 0.8945(5)
H8 H 0.7464 0.9988 0.9637
C7 C 0.6368(7) 1.0415(3) 0.8462(6)
H9 H 0.6408 1.0726 0.8818
C8 C 0.5679(7) 1.0383(3) 0.7417(6)
H10 H 0.5269 1.0676 0.7060
C9 C 0.5617(7) 0.9922(2) 0.6932(5)
H11 H 0.5133 0.9902 0.6241
C10 C 0.9760(6) 0.7017(2) 1.1376(5)
H12 H 1.0337 0.6876 1.1005
H13 H 0.8968 0.6801 1.1227
C11 C 1.0466(6) 0.7000(2) 1.2499(5)
C12 C 1.0847(7) 0.6536(2) 1.3011(5)
H14 H 1.0640 0.6221 1.2663
C13 C 1.1528(7) 0.6541(3) 1.4033(5)
H15 H 1.1773 0.6229 1.4388
C14 C 1.1848(7) 0.7009(3) 1.4533(5)
H16 H 1.2332 0.7020 1.5225
C15 C 1.1446(7) 0.7458(3) 1.3999(5)
H17 H 1.1650 0.7775 1.4340
C16 C 0.8217(6) 0.6316(2) 0.8202(4)
H18 H 0.7822 0.6066 0.7664
H19 H 0.7758 0.6284 0.8717
C17 C 0.9641(6) 0.6178(2) 0.8674(4)
C18 C 1.0032(7) 0.5804(3) 0.9439(5)
H20 H 0.9400 0.5648 0.9696
C19 C 1.1342(7) 0.5665(3) 0.9813(5)
H21 H 1.1606 0.5413 1.0324
C20 C 1.2270(7) 0.5901(3) 0.9428(5)
H22 H 1.3166 0.5810 0.9667
C21 C 1.1838(7) 0.6270(3) 0.8691(5)
H23 H 1.2463 0.6434 0.8438
C22 C 0.3673(9) 0.8140(3) 0.6766(7)
H24 H 0.4126 0.7882 0.6484
H25 H 0.2731 0.8118 0.6431
H26 H 0.3850 0.8078 0.7487
Cu2C Cu 0.99522(7) 0.69250(3) 0.71426(5)
N6C N 0.7994(5) 0.81541(17) 1.2763(4)
H5C H 0.7233 0.8136 1.2258
N9C N 1.0559(5) 0.85907(19) 1.3311(4)
O7 O 0.5597(6) 0.7975(2) 0.1065(4)
O8 O 0.5983(8) 0.8761(3) 0.0744(5)
O9 O 0.4939(6) 0.8242(2) -0.0504(5)
N12 N 0.5518(7) 0.8335(3) 0.0451(5)
C23 C 0.4809(9) 0.8021(3) 0.3472(7)
H27 H 0.5058 0.8382 0.3527
H28 H 0.3994 0.7976 0.2926
H29 H 0.5501 0.7818 0.3332
O12 O 0.4621(5) 0.7851(2) 0.4413(4)
H30 H 0.4579 0.7516 0.4439
C24 C 1.0024(10) 1.0001(3) 0.7769(6)
H31 H 1.0750 1.0225 0.8120
H32 H 0.9862 0.9753 0.8244
H33 H 0.9238 1.0207 0.7484
O13 O 1.0359(6) 0.9729(2) 0.6960(5)
H34 H 0.9597 0.9625 0.6499
C25 C 0.3512(11) 0.9516(6) 0.8490(7)
H35 H 0.3943 0.9849 0.8538
H36 H 0.4152 0.9257 0.8828
H37 H 0.2818 0.9534 0.8813
O14 O 0.2936(9) 0.9376(3) 0.7415(7)
H38 H 0.2388 0.9649 0.7289
loop_
_geom_bond_atom_site_label_1
_geom_bond_atom_site_label_2
_geom_bond_site_symmetry_1
_geom_bond_site_symmetry_2
Cu1 O1 1_555 1_555
Cu2 O4 1_555 1_555
O1 N10 1_555 1_555
O2 Cu1 1_555 1_555
O3 N10 1_555 1_555
O4 N11 1_555 1_555
O5 Cu2 1_555 1_555
O6 N11 1_555 1_555
O7 N12 1_555 1_555
O8 N12 1_555 1_555
O9 N12 1_555 1_555
O10 Cu1 1_555 1_555
H1 O10 1_555 1_555
H2 O10 1_555 1_555
O11 Cu1 1_555 1_555
H3 O11 1_555 1_555
N1 H4 1_555 1_555
N2 C2 1_555 1_555
N3 C1 1_555 1_555
N4 Cu1 1_555 1_555
N5 Cu2 1_555 1_555
N6 H5 1_555 1_555
N7 Cu1 1_555 1_555
N8 Cu2 1_555 1_555
N9 C17 1_555 1_555
N10 O2 1_555 1_555
N11 O5 1_555 1_555
C1 N1 1_555 1_555
C2 N1 1_555 1_555
C3 N2 1_555 1_555
C4 N4 1_555 1_555
H6 C4 1_555 1_555
H7 C4 1_555 1_555
C5 N7 1_555 1_555
C6 C5 1_555 1_555
H8 C6 1_555 1_555
C7 C6 1_555 1_555
H9 C7 1_555 1_555
C8 C7 1_555 1_555
H10 C8 1_555 1_555
C9 N7 1_555 1_555
H11 C9 1_555 1_555
C10 N5 1_555 1_555
H12 C10 1_555 1_555
H13 C10 1_555 1_555
C11 N8 1_555 1_555
C12 C11 1_555 1_555
H14 C12 1_555 1_555
C13 C12 1_555 1_555
H15 C13 1_555 1_555
C14 C13 1_555 1_555
H16 C14 1_555 1_555
C15 N8 1_555 1_555
H17 C15 1_555 1_555
C16 N6 1_555 1_555
H18 C16 1_555 1_555
H19 C16 1_555 1_555
C17 C16 1_555 1_555
C18 C17 1_555 1_555
H20 C18 1_555 1_555
C19 C18 1_555 1_555
H21 C19 1_555 1_555
C20 C19 1_555 1_555
H22 C20 1_555 1_555
C21 N9 1_555 1_555
H23 C21 1_555 1_555
C22 O11 1_555 1_555
H24 C22 1_555 1_555
H25 C22 1_555 1_555
H26 C22 1_555 1_555
C23 H27 1_555 1_555
H28 C23 1_555 1_555
H29 C23 1_555 1_555
O12 C23 1_555 1_555
H30 O12 1_555 1_555
C24 H31 1_555 1_555
H32 C24 1_555 1_555
H33 C24 1_555 1_555
O13 C24 1_555 1_555
H34 O13 1_555 1_555
C25 H35 1_555 1_555
H36 C25 1_555 1_555
H37 C25 1_555 1_555
O14 C25 1_555 1_555
H38 O14 1_555 1_555
Cu2C N6 1_555 1_555
N6C Cu2 1_555 1_555
H5C N6C 1_555 1_555
N9C Cu2 1_555 1_555
N3 C3 1_555 1_555
N4 C1 1_555 1_555
N5 C2 1_555 1_555
N6 C3 1_555 1_555
N9 Cu2C 1_555 1_555
C4 C5 1_555 1_555
C8 C9 1_555 1_555
C10 C11 1_555 1_555
C14 C15 1_555 1_555
C20 C21 1_555 1_555

#END
