
#######################################################################
#
#                 Cambridge Crystallographic Data Centre
#                                CCDC 
#
#######################################################################
#
# If this CIF has been generated from an entry in the Cambridge 
# Structural Database, then it will include bibliographic, chemical, 
# crystal, experimental, refinement or atomic coordinate data resulting 
# from the CCDC's data processing and validation procedures.
#
#######################################################################

data_GENRUO
_symmetry_cell_setting           orthorhombic
_symmetry_space_group_name_H-M   'P n a 21'
_symmetry_Int_Tables_number      33
_space_group_name_Hall           'P 2c -2n'
loop_
_symmetry_equiv_pos_site_id
_symmetry_equiv_pos_as_xyz
1 x,y,z
2 -x,-y,1/2+z
3 1/2-x,1/2+y,1/2+z
4 1/2+x,1/2-y,z
_cell_length_a                   8.5228(7)
_cell_length_b                   18.950(3)
_cell_length_c                   9.0507(12)
_cell_angle_alpha                90
_cell_angle_beta                 90
_cell_angle_gamma                90
_cell_volume                     1461.75
loop_
_atom_site_label
_atom_site_type_symbol
_atom_site_fract_x
_atom_site_fract_y
_atom_site_fract_z
Bi1 Bi -0.42088(2) -0.532179(10) -0.44067(6)
S1 S -0.39345(19) -0.37759(9) -0.2287(2)
F1 F -0.1472(6) -0.3411(3) -0.0760(6)
F2 F -0.2696(7) -0.2547(3) -0.1847(7)
F3 F -0.1261(6) -0.3252(3) -0.3114(7)
O1 O -0.3281(6) -0.4484(3) -0.2412(7)
O2 O -0.4842(6) -0.3688(3) -0.0946(6)
O3 O -0.4665(6) -0.3500(3) -0.3584(6)
C1 C -0.1360(9) -0.7218(4) -0.1653(9)
H1 H -0.0792 -0.7577 -0.1151
C2 C -0.8348(10) -0.5931(5) -0.1610(10)
H2 H -0.8649 -0.6331 -0.1043
C3 C -0.2450(9) -0.6806(4) -0.0884(8)
H3 H -0.2638 -0.6886 0.0137
C4 C -0.7421(9) -0.4754(4) -0.3177(9)
H4 H -0.7102 -0.4344 -0.3701
C5 C -0.1111(9) -0.7106(4) -0.3133(11)
H5 H -0.0379 -0.7393 -0.3648
C6 C -0.9283(10) -0.5343(6) -0.1609(14)
H6 H -1.0235 -0.5342 -0.1062
C7 C -0.6482(8) -0.5353(4) -0.3183(8)
C8 C -0.1895(8) -0.6588(4) -0.3879(9)
H7 H -0.1692 -0.6512 -0.4899
C9 C -0.3251(8) -0.6280(4) -0.1637(8)
H8 H -0.3979 -0.5991 -0.1119
C10 C -0.3004(8) -0.6167(3) -0.3136(8)
C11 C -0.8854(10) -0.4757(5) -0.2389(12)
H9 H -0.9515 -0.4353 -0.2402
C12 C -0.2227(9) -0.3215(4) -0.1969(10)
C13 C -0.6990(9) -0.5954(4) -0.2416(10)
H10 H -0.6391 -0.6376 -0.2455
Bi1A Bi -0.57912(2) -0.467821(10) 0.05933(6)
O2A O -0.5158(6) -0.6312(3) -0.5946(6)
loop_
_geom_bond_atom_site_label_1
_geom_bond_atom_site_label_2
_geom_bond_site_symmetry_1
_geom_bond_site_symmetry_2
Bi1 O1 1_555 1_555
S1 O1 1_555 1_555
F1 C12 1_555 1_555
F2 C12 1_555 1_555
F3 C12 1_555 1_555
O2 S1 1_555 1_555
O3 S1 1_555 1_555
C1 H1 1_555 1_555
C2 H2 1_555 1_555
C3 C1 1_555 1_555
H3 C3 1_555 1_555
C4 H4 1_555 1_555
C5 C1 1_555 1_555
H5 C5 1_555 1_555
C6 C2 1_555 1_555
H6 C6 1_555 1_555
C7 Bi1 1_555 1_555
C8 C5 1_555 1_555
H7 C8 1_555 1_555
C9 C3 1_555 1_555
H8 C9 1_555 1_555
C10 Bi1 1_555 1_555
C11 C4 1_555 1_555
H9 C11 1_555 1_555
C12 S1 1_555 1_555
C13 C2 1_555 1_555
H10 C13 1_555 1_555
Bi1A O2 1_555 1_555
O2A Bi1 1_555 1_555
C4 C7 1_555 1_555
C6 C11 1_555 1_555
C7 C13 1_555 1_555
C8 C10 1_555 1_555
C9 C10 1_555 1_555

#END
