
#######################################################################
#
#                 Cambridge Crystallographic Data Centre
#                                CCDC 
#
#######################################################################
#
# If this CIF has been generated from an entry in the Cambridge 
# Structural Database, then it will include bibliographic, chemical, 
# crystal, experimental, refinement or atomic coordinate data resulting 
# from the CCDC's data processing and validation procedures.
#
#######################################################################

data_GENZUU
_symmetry_cell_setting           triclinic
_symmetry_space_group_name_H-M   'P -1'
_symmetry_Int_Tables_number      2
_space_group_name_Hall           '-P 1'
loop_
_symmetry_equiv_pos_site_id
_symmetry_equiv_pos_as_xyz
1 x,y,z
2 -x,-y,-z
_cell_length_a                   13.174(2)
_cell_length_b                   13.364(2)
_cell_length_c                   9.995(1)
_cell_angle_alpha                96.05(3)
_cell_angle_beta                 110.23(3)
_cell_angle_gamma                104.54(2)
_cell_volume                     1562.06
loop_
_atom_site_label
_atom_site_type_symbol
_atom_site_fract_x
_atom_site_fract_y
_atom_site_fract_z
Mn1 Mn 0.0215(2) 0.0081(2) 0.2388(3)
P1 P 0.1809(4) 0.0071(4) 0.6060(5)
P2 P 0.0473(4) 0.1988(4) 0.0441(5)
O1 O 0.123(1) 0.014(1) 0.452(1)
O2 O 0.124(1) 0.0035(9) 0.714(1)
O3 O 0.013(1) 0.1423(9) 0.151(1)
O4 O 0.039(1) 0.1360(9) -0.094(1)
O5 O 0.190(1) 0.039(1) 0.207(2)
C1 C 0.313(2) 0.120(1) 0.688(2)
C2 C 0.361(2) 0.157(1) 0.837(2)
C3 C 0.463(2) 0.243(2) 0.895(3)
C4 C 0.504(2) 0.289(2) 0.801(2)
C5 C 0.458(2) 0.255(2) 0.654(3)
C6 C 0.354(2) 0.168(2) 0.591(2)
C7 C 0.234(2) -0.108(1) 0.601(2)
C8 C 0.262(2) -0.137(2) 0.488(3)
C9 C 0.302(2) -0.227(2) 0.488(3)
C10 C 0.308(2) -0.280(2) 0.593(3)
C11 C 0.284(2) -0.255(2) 0.704(3)
C12 C 0.239(2) -0.163(2) 0.715(3)
C13 C 0.191(1) 0.286(1) 0.138(2)
C14 C 0.229(2) 0.332(2) 0.282(2)
C15 C 0.340(2) 0.408(2) 0.354(3)
C16 C 0.403(2) 0.430(2) 0.273(3)
C17 C 0.370(2) 0.392(2) 0.129(3)
C18 C 0.253(2) 0.317(2) 0.059(2)
C19 C -0.039(1) 0.285(1) -0.006(2)
C20 C -0.048(2) 0.325(2) -0.133(2)
C21 C -0.113(2) 0.396(2) -0.172(2)
C22 C -0.159(2) 0.425(2) -0.084(2)
C23 C -0.152(2) 0.391(2) 0.040(3)
C24 C -0.086(2) 0.320(2) 0.083(2)
C25 C 0.235(2) -0.010(2) 0.156(2)
N1 N 0.339(2) 0.009(1) 0.175(2)
C26 C 0.393(4) -0.062(3) 0.135(5)
C27 C 0.419(3) 0.120(3) 0.249(4)
H1 H 0.323 0.121 0.906
H2 H 0.507 0.271 1.012
H3 H 0.579 0.357 0.848
H4 H 0.498 0.292 0.586
H5 H 0.310 0.141 0.474
H6 H 0.254 -0.093 0.402
H7 H 0.327 -0.253 0.401
H8 H 0.334 -0.350 0.586
H9 H 0.297 -0.299 0.789
H10 H 0.212 -0.141 0.802
H11 H 0.176 0.310 0.342
H12 H 0.372 0.447 0.467
H13 H 0.488 0.484 0.329
H14 H 0.424 0.415 0.070
H15 H 0.218 0.287 -0.058
H16 H -0.005 0.302 -0.200
H17 H -0.123 0.426 -0.271
H18 H -0.207 0.479 -0.112
H19 H -0.194 0.417 0.106
H20 H -0.075 0.294 0.185
O2A O -0.124(1) -0.0035(9) 0.286(1)
O4A O -0.039(1) -0.1360(9) 0.094(1)
Mn1A Mn -0.0215(2) -0.0081(2) 0.7612(3)
Mn1A_2 Mn -0.0215(2) -0.0081(2) -0.2388(3)
O6 O 0.312(2) 0.490(2) 0.744(2)
C28 C 0.255(2) 0.395(2) 0.703(3)
N2 N 0.145(2) 0.361(1) 0.617(2)
C29 C 0.081(3) 0.430(2) 0.546(3)
C30 C 0.082(2) 0.247(2) 0.578(3)
loop_
_geom_bond_atom_site_label_1
_geom_bond_atom_site_label_2
_geom_bond_site_symmetry_1
_geom_bond_site_symmetry_2
Mn1 O1 1_555 1_555
P1 O1 1_555 1_555
P2 O3 1_555 1_555
O2 P1 1_555 1_555
O3 Mn1 1_555 1_555
O4 P2 1_555 1_555
O5 Mn1 1_555 1_555
C1 P1 1_555 1_555
C2 C1 1_555 1_555
C3 C2 1_555 1_555
C4 C3 1_555 1_555
C5 C4 1_555 1_555
C6 C1 1_555 1_555
C7 P1 1_555 1_555
C8 C7 1_555 1_555
C9 C8 1_555 1_555
C10 C9 1_555 1_555
C11 C10 1_555 1_555
C12 C7 1_555 1_555
C13 P2 1_555 1_555
C14 C13 1_555 1_555
C15 C14 1_555 1_555
C16 C15 1_555 1_555
C17 C16 1_555 1_555
C18 C13 1_555 1_555
C19 P2 1_555 1_555
C20 C19 1_555 1_555
C21 C20 1_555 1_555
C22 C21 1_555 1_555
C23 C22 1_555 1_555
C24 C19 1_555 1_555
C25 O5 1_555 1_555
N1 C25 1_555 1_555
C26 N1 1_555 1_555
C27 N1 1_555 1_555
O6 C28 1_555 1_555
C28 N2 1_555 1_555
N2 C29 1_555 1_555
C30 N2 1_555 1_555
H1 C2 1_555 1_555
H2 C3 1_555 1_555
H3 C4 1_555 1_555
H4 C5 1_555 1_555
H5 C6 1_555 1_555
H6 C8 1_555 1_555
H7 C9 1_555 1_555
H8 C10 1_555 1_555
H9 C11 1_555 1_555
H10 C12 1_555 1_555
H11 C14 1_555 1_555
H12 C15 1_555 1_555
H13 C16 1_555 1_555
H14 C17 1_555 1_555
H15 C18 1_555 1_555
H16 C20 1_555 1_555
H17 C21 1_555 1_555
H18 C22 1_555 1_555
H19 C23 1_555 1_555
H20 C24 1_555 1_555
O2A Mn1 1_555 1_555
O4A Mn1 1_555 1_555
Mn1A O2 1_555 1_555
Mn1A_2 O4 1_555 1_555
C5 C6 1_555 1_555
C11 C12 1_555 1_555
C17 C18 1_555 1_555
C23 C24 1_555 1_555

#END
