
#######################################################################
#
#                 Cambridge Crystallographic Data Centre
#                                CCDC 
#
#######################################################################
#
# If this CIF has been generated from an entry in the Cambridge 
# Structural Database, then it will include bibliographic, chemical, 
# crystal, experimental, refinement or atomic coordinate data resulting 
# from the CCDC's data processing and validation procedures.
#
#######################################################################

data_GEPBIO
_symmetry_cell_setting           monoclinic
_symmetry_space_group_name_H-M   'P 21/c'
_symmetry_Int_Tables_number      14
_space_group_name_Hall           '-P 2ybc'
loop_
_symmetry_equiv_pos_site_id
_symmetry_equiv_pos_as_xyz
1 x,y,z
2 -x,1/2+y,1/2-z
3 -x,-y,-z
4 x,1/2-y,1/2+z
_cell_length_a                   10.972(3)
_cell_length_b                   19.559(5)
_cell_length_c                   15.531(4)
_cell_angle_alpha                90
_cell_angle_beta                 99.767(3)
_cell_angle_gamma                90
_cell_volume                     3284.66
loop_
_atom_site_label
_atom_site_type_symbol
_atom_site_fract_x
_atom_site_fract_y
_atom_site_fract_z
Co1 Co 0.0000 0.0000 0.0000
Co2 Co -0.7127 -0.0759 -0.9113
Co3 Co -0.5000 0.0000 -1.0000
O1 O -0.4095(2) -0.0314(1) -0.8852(2)
O2 O -0.5510(2) -0.0887(2) -0.8259(2)
O3 O 0.3291(2) 0.0256(1) 0.0506(2)
O4 O 0.1435(2) 0.0665(2) -0.0100(2)
O5 O 0.6218(2) 0.0922(1) 0.0222(2)
O6 O 0.7825(3) 0.1273(2) 0.1204(2)
O7 O -0.7295(3) -0.1833(2) -0.8818(2)
H1 H -0.7705 -0.1821 -0.8400
H2 H -0.6650 -0.2051 -0.8591
O8 O 0.1127(2) -0.0899(1) 0.0043(2)
H3 H 0.0763 -0.1157 0.0359
H4 H 0.1089 -0.1145 -0.0411
O9 O -0.0871(3) -0.1124(2) -0.5226(2)
O10 O -0.0326(3) -0.0147(2) -0.1314(2)
O11 O -0.2016(3) 0.0448(2) -0.1876(2)
C1 C -0.4444(3) -0.0658(2) -0.8249(2)
C2 C -0.3493(3) -0.0797(2) -0.7461(2)
C3 C -0.2282(4) -0.0571(2) -0.7405(2)
H5 H -0.2043 -0.0352 -0.7881
C4 C -0.1420(4) -0.0669(2) -0.6648(3)
H6 H -0.0617 -0.0505 -0.6612
C5 C -0.1764(4) -0.1007(2) -0.5962(2)
C6 C -0.2954(4) -0.1248(3) -0.6006(3)
H7 H -0.3177 -0.1479 -0.5533
C7 C -0.3811(4) -0.1144(2) -0.6752(3)
H8 H -0.4612 -0.1308 -0.6781
C8 C -0.1014(4) -0.0834(2) -0.4438(2)
C9 C -0.0222(4) -0.1073(2) -0.3716(2)
H9 H 0.0335 -0.1422 -0.3774
C10 C -0.0263(4) -0.0791(2) -0.2904(2)
H10 H 0.0285 -0.0944 -0.2418
C11 C -0.1119(3) -0.0280(2) -0.2805(2)
C12 C -0.1917(4) -0.0054(2) -0.3543(2)
H11 H -0.2500 0.0281 -0.3487
C13 C -0.1857(4) -0.0321(2) -0.4359(3)
H12 H -0.2378 -0.0157 -0.4851
C14 C -0.1161(4) 0.0035(2) -0.1929(2)
C15 C 0.2568(3) 0.0724(2) 0.0146(2)
C16 C 0.3123(3) 0.1408(2) -0.0014(2)
C17 C 0.2646(4) 0.1758(2) -0.0777(3)
H13 H 0.1942 0.1594 -0.1137
C18 C 0.3208(5) 0.2343(2) -0.1002(3)
H14 H 0.2895 0.2566 -0.1522
C19 C 0.4224(5) 0.2600(2) -0.0468(3)
H15 H 0.4610 0.2991 -0.0631
C20 C 0.4679(4) 0.2277(2) 0.0317(3)
H16 H 0.5354 0.2460 0.0688
C21 C 0.4127(3) 0.1677(2) 0.0552(3)
C22 C 0.4628(3) 0.1374(2) 0.1435(2)
C23 C 0.5883(3) 0.1196(2) 0.1656(2)
C24 C 0.6354(4) 0.1008(2) 0.2518(3)
H17 H 0.7194 0.0917 0.2679
C25 C 0.5588(5) 0.0958(3) 0.3132(3)
H18 H 0.5908 0.0827 0.3701
C26 C 0.4344(4) 0.1101(2) 0.2899(3)
H19 H 0.3819 0.1051 0.3306
C27 C 0.3877(4) 0.1320(2) 0.2061(3)
H20 H 0.3044 0.1433 0.1917
C28 C 0.6707(4) 0.1135(2) 0.0983(2)
Co2B Co 0.7127 0.0759 0.9113
Co2_2 Co 0.2873 -0.0759 0.0887
Co2B_2 Co 0.7127 0.0759 -0.0887
Co2B_3 Co -0.2873 0.0759 -0.0887
Co2_3 Co -0.7127 -0.0759 0.0887
Co3_2 Co 0.5000 0.0000 0.0000
Co3_3 Co -0.5000 0.0000 0.0000
Co3_4 Co 0.5000 0.0000 1.0000
O1B O 0.4095(2) 0.0314(1) 0.8852(2)
O1B_2 O -0.5905(2) 0.0314(1) -1.1148(2)
O2B O 0.5510(2) 0.0887(2) 0.8259(2)
O3B O -0.3291(2) -0.0256(1) -0.0506(2)
O3_2 O -0.6709(2) 0.0256(1) -0.9494(2)
O3B_2 O -0.3291(2) -0.0256(1) -1.0506(2)
O3B_3 O 0.6709(2) -0.0256(1) 0.9494(2)
O4B O -0.1435(2) -0.0665(2) 0.0100(2)
O5B O -0.6218(2) -0.0922(1) -0.0222(2)
O5B_2 O -0.6218(2) -0.0922(1) -1.0222(2)
O5_2 O -0.3782(2) 0.0922(1) -0.9778(2)
O5_3 O 0.6218(2) 0.0922(1) 1.0222(2)
O6B O -0.7825(3) -0.1273(2) -0.1204(2)
O7B O 0.7295(3) 0.1833(2) 0.8818(2)
H1B H 0.7705 0.1821 0.8400
H2B H 0.6650 0.2051 0.8591
O8B O -0.1127(2) 0.0899(1) -0.0043(2)
O8_2 O -0.8873(2) -0.0899(1) -0.9957(2)
O8B_2 O 0.8873(2) 0.0899(1) 0.9957(2)
H3B H -0.0763 0.1157 -0.0359
H3_2 H -0.9237 -0.1157 -0.9641
H3B_2 H 0.9237 0.1157 0.9641
H4B H -0.1089 0.1145 0.0411
H4_2 H -0.8911 -0.1145 -1.0411
H4B_2 H 0.8911 0.1145 1.0411
O9B O 0.0871(3) 0.1124(2) 0.5226(2)
O10B O 0.0326(3) 0.0147(2) 0.1314(2)
O11B O 0.2016(3) -0.0448(2) 0.1876(2)
O11B_2 O -0.7984(3) -0.0448(2) -0.8124(2)
O11_2 O 0.7984(3) 0.0448(2) 0.8124(2)
C1B C 0.4444(3) 0.0658(2) 0.8249(2)
C2B C 0.3493(3) 0.0797(2) 0.7461(2)
C3B C 0.2282(4) 0.0571(2) 0.7405(2)
H5B H 0.2043 0.0352 0.7881
C4B C 0.1420(4) 0.0669(2) 0.6648(3)
H6B H 0.0617 0.0505 0.6612
C5B C 0.1764(4) 0.1007(2) 0.5962(2)
C6B C 0.2954(4) 0.1248(3) 0.6006(3)
H7B H 0.3177 0.1479 0.5533
C7B C 0.3811(4) 0.1144(2) 0.6752(3)
H8B H 0.4612 0.1308 0.6781
C8B C 0.1014(4) 0.0834(2) 0.4438(2)
C9B C 0.0222(4) 0.1073(2) 0.3716(2)
H9B H -0.0335 0.1422 0.3774
C10B C 0.0263(4) 0.0791(2) 0.2904(2)
H10B H -0.0285 0.0944 0.2418
C11B C 0.1119(3) 0.0280(2) 0.2805(2)
C12B C 0.1917(4) 0.0054(2) 0.3543(2)
H11B H 0.2500 -0.0281 0.3487
C13B C 0.1857(4) 0.0321(2) 0.4359(3)
H12B H 0.2378 0.0157 0.4851
C14B C 0.1161(4) -0.0035(2) 0.1929(2)
C15B C -0.2568(3) -0.0724(2) -0.0146(2)
C16B C -0.3123(3) -0.1408(2) 0.0014(2)
C17B C -0.2646(4) -0.1758(2) 0.0777(3)
H13B H -0.1942 -0.1594 0.1137
C18B C -0.3208(5) -0.2343(2) 0.1002(3)
H14B H -0.2895 -0.2566 0.1522
C19B C -0.4224(5) -0.2600(2) 0.0468(3)
H15B H -0.4610 -0.2991 0.0631
C20B C -0.4679(4) -0.2277(2) -0.0317(3)
H16B H -0.5354 -0.2460 -0.0688
C21B C -0.4127(3) -0.1677(2) -0.0552(3)
C22B C -0.4628(3) -0.1374(2) -0.1435(2)
C23B C -0.5883(3) -0.1196(2) -0.1656(2)
C24B C -0.6354(4) -0.1008(2) -0.2518(3)
H17B H -0.7194 -0.0917 -0.2679
C25B C -0.5588(5) -0.0958(3) -0.3132(3)
H18B H -0.5908 -0.0827 -0.3701
C26B C -0.4344(4) -0.1101(2) -0.2899(3)
H19B H -0.3819 -0.1051 -0.3306
C27B C -0.3877(4) -0.1320(2) -0.2061(3)
H20B H -0.3044 -0.1433 -0.1917
C28B C -0.6707(4) -0.1135(2) -0.0983(2)
C29 C 0.0730(18) 0.7622(10) 1.0148(18)
H21 H 0.0128 0.7969 0.9954
H22 H 0.1460 0.7830 1.0471
H23 H 0.0396 0.7303 1.0516
N1 N 0.1036(18) 0.7273(9) 0.9415(13)
C30 C 0.2104(15) 0.6813(10) 0.9559(9)
H24 H 0.1879 0.6382 0.9282
H25 H 0.2364 0.6745 1.0175
H26 H 0.2769 0.7012 0.9314
C31 C 0.0190(14) 0.7364(8) 0.8677(11)
H27 H 0.0281 0.7156 0.8154
O12 O -0.0832(7) 0.7788(4) 0.8738(5)
O13 O 0.4163(18) 0.7760(11) 0.2434(12)
H28 H 0.4677 0.7442 0.2391
H29 H 0.3913 0.7732 0.2921
C32? C 0.216(3) 0.6836(16) 0.9041(18)
C33? C 0.0495(12) 0.7102(6) 0.7832(8)
C34? C 0.036(4) 0.7505(13) 0.922(3)
H30? H 0.2677 0.7135 0.9438
H31? H 0.2554 0.6749 0.8543
H32? H 0.2052 0.6412 0.9329
H33? H -0.0390 0.7140 0.7735
H34? H 0.0724 0.6667 0.7622
H35? H 0.0836 0.7461 0.7526
H36? H -0.0388 0.7727 0.9044
N2? N 0.097(3) 0.7156(11) 0.875(2)
O14? O 0.105(2) 0.7485(11) 1.0039(19)
loop_
_geom_bond_atom_site_label_1
_geom_bond_atom_site_label_2
_geom_bond_site_symmetry_1
_geom_bond_site_symmetry_2
Co1 O4 1_555 1_555
Co2 O2 1_555 1_555
Co3 O1 1_555 1_555
O1 C1 1_555 1_555
O2 C1 1_555 1_555
O3 C15 1_555 1_555
O4 C15 1_555 1_555
O5 C28 1_555 1_555
O6 C28 1_555 1_555
O7 Co2 1_555 1_555
H1 O7 1_555 1_555
H2 O7 1_555 1_555
O8 Co1 1_555 1_555
H3 O8 1_555 1_555
H4 O8 1_555 1_555
O9 C5 1_555 1_555
O10 Co1 1_555 1_555
O11 C14 1_555 1_555
C1 C2 1_555 1_555
C2 C3 1_555 1_555
C3 H5 1_555 1_555
C4 C3 1_555 1_555
H6 C4 1_555 1_555
C5 C4 1_555 1_555
C6 C5 1_555 1_555
H7 C6 1_555 1_555
C7 C2 1_555 1_555
H8 C7 1_555 1_555
C8 O9 1_555 1_555
C9 C8 1_555 1_555
H9 C9 1_555 1_555
C10 C9 1_555 1_555
H10 C10 1_555 1_555
C11 C10 1_555 1_555
C12 C11 1_555 1_555
H11 C12 1_555 1_555
C13 C8 1_555 1_555
H12 C13 1_555 1_555
C14 O10 1_555 1_555
C15 C16 1_555 1_555
C16 C17 1_555 1_555
C17 H13 1_555 1_555
C18 C17 1_555 1_555
H14 C18 1_555 1_555
C19 C18 1_555 1_555
H15 C19 1_555 1_555
C20 C19 1_555 1_555
H16 C20 1_555 1_555
C21 C16 1_555 1_555
C22 C21 1_555 1_555
C23 C22 1_555 1_555
C24 C23 1_555 1_555
H17 C24 1_555 1_555
C25 C24 1_555 1_555
H18 C25 1_555 1_555
C26 C25 1_555 1_555
H19 C26 1_555 1_555
C27 C22 1_555 1_555
H20 C27 1_555 1_555
C28 C23 1_555 1_555
C29 H21 1_555 1_555
H22 C29 1_555 1_555
H23 C29 1_555 1_555
N1 C29 1_555 1_555
C30 N1 1_555 1_555
H24 C30 1_555 1_555
H25 C30 1_555 1_555
H26 C30 1_555 1_555
C31 N1 1_555 1_555
H27 C31 1_555 1_555
O12 C31 1_555 1_555
O13 H28 1_555 1_555
H29 O13 1_555 1_555
Co2B O2B 1_555 1_555
Co2_2 O3 1_555 1_555
Co2B_2 O5 1_555 1_555
Co2B_3 O11 1_555 1_555
Co2_3 O5B 1_555 1_555
Co3_2 O3 1_555 1_555
Co3_3 O3B 1_555 1_555
Co3_4 O1B 1_555 1_555
O1B C1B 1_555 1_555
O1B_2 Co3 1_555 1_555
O2B C1B 1_555 1_555
O3B Co2B_3 1_555 1_555
O3_2 Co2 1_555 1_555
O3B_2 Co3 1_555 1_555
O3B_3 Co2B 1_555 1_555
O4B Co1 1_555 1_555
O5B Co3_3 1_555 1_555
O5B_2 Co2 1_555 1_555
O5_2 Co3 1_555 1_555
O5_3 Co2B 1_555 1_555
O6B C28B 1_555 1_555
O7B Co2B 1_555 1_555
H1B O7B 1_555 1_555
H2B O7B 1_555 1_555
O8B Co1 1_555 1_555
O8_2 Co2 1_555 1_555
O8B_2 Co2B 1_555 1_555
H3B O8B 1_555 1_555
H3_2 O8_2 1_555 1_555
H3B_2 O8B_2 1_555 1_555
H4B O8B 1_555 1_555
H4_2 O8_2 1_555 1_555
H4B_2 O8B_2 1_555 1_555
O9B C5B 1_555 1_555
O10B Co1 1_555 1_555
O11B Co2_2 1_555 1_555
O11B_2 Co2 1_555 1_555
O11_2 Co2B 1_555 1_555
C1B C2B 1_555 1_555
C2B C3B 1_555 1_555
C3B H5B 1_555 1_555
C4B C3B 1_555 1_555
H6B C4B 1_555 1_555
C5B C4B 1_555 1_555
C6B C5B 1_555 1_555
H7B C6B 1_555 1_555
C7B C2B 1_555 1_555
H8B C7B 1_555 1_555
C8B O9B 1_555 1_555
C9B C8B 1_555 1_555
H9B C9B 1_555 1_555
C10B C9B 1_555 1_555
H10B C10B 1_555 1_555
C11B C10B 1_555 1_555
C12B C11B 1_555 1_555
H11B C12B 1_555 1_555
C13B C8B 1_555 1_555
H12B C13B 1_555 1_555
C14B O10B 1_555 1_555
C15B O3B 1_555 1_555
C16B C15B 1_555 1_555
C17B C16B 1_555 1_555
H13B C17B 1_555 1_555
C18B C17B 1_555 1_555
H14B C18B 1_555 1_555
C19B C18B 1_555 1_555
H15B C19B 1_555 1_555
C20B C19B 1_555 1_555
H16B C20B 1_555 1_555
C21B C16B 1_555 1_555
C22B C21B 1_555 1_555
C23B C22B 1_555 1_555
C24B C23B 1_555 1_555
H17B C24B 1_555 1_555
C25B C24B 1_555 1_555
H18B C25B 1_555 1_555
C26B C25B 1_555 1_555
H19B C26B 1_555 1_555
C27B C22B 1_555 1_555
H20B C27B 1_555 1_555
C28B O5B 1_555 1_555
Co3 O3_2 1_555 1_555
Co3 O5B_2 1_555 1_555
O5 Co3_2 1_555 1_555
O8 Co2_2 1_555 1_555
C6 C7 1_555 1_555
C11 C14 1_555 1_555
C12 C13 1_555 1_555
C20 C21 1_555 1_555
C26 C27 1_555 1_555
Co2B_3 O8B 1_555 1_555
Co3_4 O3B_3 1_555 1_555
Co3_4 O5_3 1_555 1_555
O4B C15B 1_555 1_555
O11B C14B 1_555 1_555
C6B C7B 1_555 1_555
C11B C14B 1_555 1_555
C12B C13B 1_555 1_555
C20B C21B 1_555 1_555
C23B C28B 1_555 1_555
C26B C27B 1_555 1_555

#END
