
#######################################################################
#
#                 Cambridge Crystallographic Data Centre
#                                CCDC 
#
#######################################################################
#
# If this CIF has been generated from an entry in the Cambridge 
# Structural Database, then it will include bibliographic, chemical, 
# crystal, experimental, refinement or atomic coordinate data resulting 
# from the CCDC's data processing and validation procedures.
#
#######################################################################

data_GEPDEM
_symmetry_cell_setting           monoclinic
_symmetry_space_group_name_H-M   'C 2/c'
_symmetry_Int_Tables_number      15
_space_group_name_Hall           '-C 2yn'
loop_
_symmetry_equiv_pos_site_id
_symmetry_equiv_pos_as_xyz
1 x,y,z
2 -x,y,1/2-z
3 1/2+x,1/2+y,z
4 1/2-x,1/2+y,1/2-z
5 -x,-y,-z
6 x,-y,1/2+z
7 1/2-x,1/2-y,-z
8 1/2+x,1/2-y,1/2+z
_cell_length_a                   16.411(3)
_cell_length_b                   9.8620(16)
_cell_length_c                   16.667(3)
_cell_angle_alpha                90
_cell_angle_beta                 111.678(3)
_cell_angle_gamma                90
_cell_volume                     2506.69
loop_
_atom_site_label
_atom_site_type_symbol
_atom_site_fract_x
_atom_site_fract_y
_atom_site_fract_z
Zn1 Zn 0.21723(8) 0.22288(10) 0.32210(6)
O1 O 0.2490(4) 0.2459(6) 0.2190(3)
O2 O 0.1136(4) 0.2869(9) 0.1298(4)
O3 O 0.2454(5) 0.5289(6) 0.1460(4)
O4 O 0.3125(5) 0.6050(7) 0.0620(4)
O5 O 0.3307(4) 0.3066(7) 0.4124(4)
O6 O 0.0850(7) 0.1142(15) 0.2443(8)
N1 N 0.0857(4) 0.5854(6) 0.3049(4)
N2 N 0.0672(4) 0.5347(8) 0.3723(4)
N3 N 0.1465(4) 0.3867(6) 0.3304(4)
C1 C 0.0490(5) 0.7134(8) 0.2646(6)
H1 H 0.0659 0.7292 0.2154
H2 H 0.0727 0.7865 0.3055
C2 C 0.1050(5) 0.4166(9) 0.3852(5)
H3 H 0.1037 0.3575 0.4282
C3 C 0.1327(5) 0.4950(7) 0.2806(5)
H4 H 0.1526 0.5066 0.2356
C4 C 0.2238(5) 0.2661(8) 0.0708(5)
C5 C 0.2625(5) 0.3745(8) 0.0439(4)
C6 C 0.2117(5) 0.1440(8) 0.0272(5)
H5 H 0.1858 0.0723 0.0452
C7 C 0.1927(5) 0.2703(8) 0.1460(5)
C8 C 0.2752(5) 0.5106(8) 0.0862(5)
H6 H 0.354(5) 0.368(6) 0.450(5)
H7 H 0.365(5) 0.242(5) 0.424(5)
H10 H 0.062(6) 0.040(7) 0.203(5)
H11 H 0.043(5) 0.173(8) 0.229(7)
Zn1F Zn 0.28277(8) 0.27712(10) -0.32210(6)
Zn1C Zn 0.28277(8) 0.72288(10) 0.17790(6)
Zn1E Zn 0.21723(8) -0.22288(10) -0.17790(6)
Zn1A Zn -0.21723(8) 0.22288(10) 0.17790(6)
O1F O 0.2510(4) 0.2541(6) -0.2190(3)
O2F O 0.3864(4) 0.2131(9) -0.1298(4)
O3F O 0.2546(5) -0.0289(6) -0.1460(4)
O3C O 0.2546(5) 0.0289(6) 0.3540(4)
O3E O 0.2454(5) 0.4711(6) -0.3540(4)
O4F O 0.1875(5) -0.1050(7) -0.0620(4)
O4C O 0.1875(5) 0.1050(7) 0.4380(4)
O4E O 0.3125(5) 0.3950(7) -0.4380(4)
O5F O 0.1693(4) 0.1934(7) -0.4124(4)
O6F O 0.4150(7) 0.3858(15) -0.2443(8)
N1A N -0.0857(4) 0.5854(6) 0.1951(4)
N2A N -0.0672(4) 0.5347(8) 0.1277(4)
N3A N -0.1465(4) 0.3867(6) 0.1696(4)
N3F N 0.3535(4) 0.1133(6) -0.3304(4)
C1A C -0.0490(5) 0.7134(8) 0.2354(6)
H1A H -0.0659 0.7292 0.2846
H2A H -0.0727 0.7865 0.1945
C2A C -0.1050(5) 0.4166(9) 0.1148(5)
H3A H -0.1037 0.3575 0.0718
C3A C -0.1327(5) 0.4950(7) 0.2194(5)
H4A H -0.1526 0.5066 0.2644
C4F C 0.2762(5) 0.2339(8) -0.0708(5)
C5F C 0.2375(5) 0.1255(8) -0.0439(4)
C6F C 0.2883(5) 0.3560(8) -0.0272(5)
H5F H 0.3142 0.4277 -0.0452
C7F C 0.3073(5) 0.2297(8) -0.1460(5)
C8F C 0.2248(5) -0.0106(8) -0.0862(5)
H6F H 0.146(5) 0.132(6) -0.450(5)
H7F H 0.135(5) 0.258(5) -0.424(5)
H10F H 0.438(6) 0.460(7) -0.203(5)
H11F H 0.457(5) 0.327(8) -0.229(7)
O7 O 0.4879(5) 0.1923(12) 0.4711(5)
H8 H 0.517(5) 0.199(9) 0.524(3)
H9 H 0.516(5) 0.172(9) 0.440(5)
loop_
_geom_bond_atom_site_label_1
_geom_bond_atom_site_label_2
_geom_bond_site_symmetry_1
_geom_bond_site_symmetry_2
Zn1 O1 1_555 1_555
O1 C7 1_555 1_555
O2 C7 1_555 1_555
O3 C8 1_555 1_555
O4 C8 1_555 1_555
O5 Zn1 1_555 1_555
O6 Zn1 1_555 1_555
O7 H8 1_555 1_555
N1 N2 1_555 1_555
N2 C2 1_555 1_555
N3 Zn1 1_555 1_555
C1 N1 1_555 1_555
H1 C1 1_555 1_555
H2 C1 1_555 1_555
C2 N3 1_555 1_555
H3 C2 1_555 1_555
C3 N1 1_555 1_555
H4 C3 1_555 1_555
C4 C5 1_555 1_555
C5 C8 1_555 1_555
C6 C4 1_555 1_555
H5 C6 1_555 1_555
C7 C4 1_555 1_555
H6 O5 1_555 1_555
H7 O5 1_555 1_555
H9 O7 1_555 1_555
H10 O6 1_555 1_555
H11 O6 1_555 1_555
Zn1F O1F 1_555 1_555
Zn1C O3 1_555 1_555
Zn1E O3F 1_555 1_555
Zn1A N3A 1_555 1_555
O1F C7F 1_555 1_555
O2F C7F 1_555 1_555
O3F C8F 1_555 1_555
O3C Zn1 1_555 1_555
O3E Zn1F 1_555 1_555
O4F Zn1E 1_555 1_555
O4C Zn1 1_555 1_555
O4E Zn1F 1_555 1_555
O5F Zn1F 1_555 1_555
O6F Zn1F 1_555 1_555
N1A N2A 1_555 1_555
N2A C2A 1_555 1_555
N3A C2A 1_555 1_555
N3F Zn1F 1_555 1_555
C1A C1 1_555 1_555
H1A C1A 1_555 1_555
H2A C1A 1_555 1_555
C2A H3A 1_555 1_555
C3A N1A 1_555 1_555
H4A C3A 1_555 1_555
C4F C5F 1_555 1_555
C5F C6 1_555 1_555
C6F C5 1_555 1_555
H5F C6F 1_555 1_555
C7F C4F 1_555 1_555
C8F O4F 1_555 1_555
H6F O5F 1_555 1_555
H7F O5F 1_555 1_555
H10F O6F 1_555 1_555
H11F O6F 1_555 1_555
O4 Zn1C 1_555 1_555
N3 C3 1_555 1_555
N1A C1A 1_555 1_555
N3A C3A 1_555 1_555
C4F C6F 1_555 1_555
C5F C8F 1_555 1_555

#END
