
#######################################################################
#
#                 Cambridge Crystallographic Data Centre
#                                CCDC 
#
#######################################################################
#
# If this CIF has been generated from an entry in the Cambridge 
# Structural Database, then it will include bibliographic, chemical, 
# crystal, experimental, refinement or atomic coordinate data resulting 
# from the CCDC's data processing and validation procedures.
#
#######################################################################

data_GEPFAK
_symmetry_cell_setting           triclinic
_symmetry_space_group_name_H-M   'P -1'
_symmetry_Int_Tables_number      2
_space_group_name_Hall           '-P 1'
loop_
_symmetry_equiv_pos_site_id
_symmetry_equiv_pos_as_xyz
1 x,y,z
2 -x,-y,-z
_cell_length_a                   6.265(4)
_cell_length_b                   9.327(6)
_cell_length_c                   9.926(6)
_cell_angle_alpha                108.325(8)
_cell_angle_beta                 107.268(9)
_cell_angle_gamma                90.577(9)
_cell_volume                     522.35
loop_
_atom_site_label
_atom_site_type_symbol
_atom_site_fract_x
_atom_site_fract_y
_atom_site_fract_z
Dy1 Dy 0.79325(6) 0.77168(4) 0.12200(4)
H1 H 0.6624 0.8929 0.3822
H2 H 0.8268 1.0024 0.3962
H3 H 1.0393 1.0553 0.2928
H4 H 1.1078 1.0087 0.1649
Br1 Br 1.16933(16) 0.71788(11) 0.65440(11)
O1 O 1.3444(12) 0.8441(8) 0.4120(8)
O2 O 0.7929(12) 0.9073(8) 0.3753(8)
O3 O 1.0768(11) 0.6528(8) 0.2519(8)
O4 O 1.0802(10) 0.9798(7) 0.2333(7)
O5 O 1.5623(12) 0.6103(8) 0.8985(7)
O6 O 1.0297(12) 0.6728(9) -0.0341(8)
H5 H 1.1489 0.7282 -0.0010
O7 O 1.3984(13) 0.3789(8) 0.7937(8)
O8 O 0.7457(10) 0.9366(7) -0.0316(7)
O9 O 0.5469(11) 1.1144(8) -0.1000(8)
C1 C 1.2560(15) 0.7083(11) 0.3602(10)
C2 C 1.3805(14) 0.5984(10) 0.4316(10)
C3 C 1.3674(14) 0.5945(10) 0.5686(10)
C4 C 1.4858(14) 0.4981(10) 0.6392(10)
C5 C 1.4822(13) 0.4963(10) 0.7902(10)
C6 C 0.5854(14) 1.0137(11) -0.0383(11)
Dy1A Dy 2.20675(6) 0.22832(4) 0.87800(4)
Dy1_2 Dy 1.79325(6) 0.77168(4) 1.12200(4)
Dy1A_2 Dy 1.20675(6) 0.22832(4) 0.87800(4)
Dy1A_3 Dy 0.20675(6) 1.22832(4) -0.12200(4)
Dy1A_4 Dy 1.20675(6) 0.22832(4) -0.12200(4)
Dy1_3 Dy 1.79325(6) 0.77168(4) 0.12200(4)
H1A H 2.3376 0.1071 0.6178
H2A H 2.1732 -0.0024 0.6038
H3A H 1.9607 -0.0553 0.7072
H4A H 1.8922 -0.0087 0.8351
Br1A Br 1.83067(16) 0.28212(11) 0.34560(11)
O1A O 1.6556(12) 0.1559(8) 0.5880(8)
O2A O 2.2071(12) 0.0927(8) 0.6247(8)
O3A O 1.9232(11) 0.3472(8) 0.7481(8)
O4A O 1.9198(10) 0.0202(7) 0.7667(7)
O5A O 1.4377(12) 0.3897(8) 0.1015(7)
O5_2 O 0.5623(12) 0.6103(8) -0.1015(7)
O5A_2 O 2.4377(12) 0.3897(8) 1.1015(7)
O6A O 1.9703(12) 0.3272(9) 1.0341(8)
H5A H 1.8511 0.2718 1.0010
O7A O 1.6016(13) 0.6211(8) 0.2063(8)
O7A_2 O 0.6016(13) 0.6211(8) 0.2063(8)
O7_2 O 2.3984(13) 0.3789(8) 0.7937(8)
O8A O 0.2543(10) 1.0634(7) 0.0316(7)
O8A_2 O 2.2543(10) 0.0634(7) 1.0316(7)
O9A O 0.4531(11) 0.8856(8) 0.1000(8)
O9_2 O 2.5469(11) 0.1144(8) 0.9000(8)
C1A C 1.7440(15) 0.2917(11) 0.6398(10)
C2A C 1.6195(14) 0.4016(10) 0.5684(10)
C3A C 1.6326(14) 0.4055(10) 0.4314(10)
C4A C 1.5142(14) 0.5019(10) 0.3608(10)
C5A C 1.5178(13) 0.5037(10) 0.2098(10)
C6A C 0.4146(14) 0.9863(11) 0.0383(11)
loop_
_geom_bond_atom_site_label_1
_geom_bond_atom_site_label_2
_geom_bond_site_symmetry_1
_geom_bond_site_symmetry_2
Dy1 O2 1_555 1_555
H1 O2 1_555 1_555
H2 O2 1_555 1_555
H3 O4 1_555 1_555
H4 O4 1_555 1_555
Br1 C3 1_555 1_555
O1 C1 1_555 1_555
O3 Dy1 1_555 1_555
O4 Dy1 1_555 1_555
O5 C5 1_555 1_555
O6 Dy1 1_555 1_555
H5 O6 1_555 1_555
O7 C5 1_555 1_555
O8 Dy1 1_555 1_555
O9 C6 1_555 1_555
C1 O3 1_555 1_555
C2 C1 1_555 1_555
C3 C2 1_555 1_555
C4 C3 1_555 1_555
C5 C4 1_555 1_555
C6 O8 1_555 1_555
Dy1A O2A 1_555 1_555
Dy1_2 O5 1_555 1_555
Dy1A_2 O7 1_555 1_555
Dy1A_3 O9 1_555 1_555
Dy1A_4 O5A 1_555 1_555
Dy1_3 O7A 1_555 1_555
H1A O2A 1_555 1_555
H2A O2A 1_555 1_555
H3A O4A 1_555 1_555
H4A O4A 1_555 1_555
Br1A C3A 1_555 1_555
O1A C1A 1_555 1_555
O3A Dy1A 1_555 1_555
O4A Dy1A 1_555 1_555
O5A C5A 1_555 1_555
O5_2 Dy1 1_555 1_555
O5A_2 Dy1A 1_555 1_555
O6A Dy1A 1_555 1_555
H5A O6A 1_555 1_555
O7A C5A 1_555 1_555
O7A_2 Dy1 1_555 1_555
O7_2 Dy1A 1_555 1_555
O8A Dy1A_3 1_555 1_555
O8A_2 Dy1A 1_555 1_555
O9A Dy1 1_555 1_555
O9_2 Dy1A 1_555 1_555
C1A O3A 1_555 1_555
C2A C4 1_555 1_555
C3A C2A 1_555 1_555
C4A C2 1_555 1_555
C5A C4A 1_555 1_555
C6A C6 1_555 1_555
O8A C6A 1_555 1_555
O9A C6A 1_555 1_555
C1A C2A 1_555 1_555
C3A C4A 1_555 1_555

#END
