
#######################################################################
#
#                 Cambridge Crystallographic Data Centre
#                                CCDC 
#
#######################################################################
#
# If this CIF has been generated from an entry in the Cambridge 
# Structural Database, then it will include bibliographic, chemical, 
# crystal, experimental, refinement or atomic coordinate data resulting 
# from the CCDC's data processing and validation procedures.
#
#######################################################################

data_GEPJES
_symmetry_cell_setting           triclinic
_symmetry_space_group_name_H-M   'P -1'
_symmetry_Int_Tables_number      2
_space_group_name_Hall           '-P 1'
loop_
_symmetry_equiv_pos_site_id
_symmetry_equiv_pos_as_xyz
1 x,y,z
2 -x,-y,-z
_cell_length_a                   12.1664(4)
_cell_length_b                   13.0392(5)
_cell_length_c                   13.1697(5)
_cell_angle_alpha                93.064(3)
_cell_angle_beta                 107.195(3)
_cell_angle_gamma                96.601(3)
_cell_volume                     1974.2
loop_
_atom_site_label
_atom_site_type_symbol
_atom_site_fract_x
_atom_site_fract_y
_atom_site_fract_z
Cu1 Cu 0.01865(3) 0.03979(3) 0.12022(3)
Cu2 Cu -0.32388(3) 0.30902(3) -0.22519(3)
Cu3 Cu -0.86769(3) 0.20527(3) -0.36170(3)
P1 P -0.39742(6) 0.46049(6) -0.22107(6)
P2 P -0.21649(5) 0.31669(6) -0.33621(6)
P3 P -0.21531(6) 0.29355(6) -0.05774(6)
P4 P -0.47316(6) 0.17981(6) -0.27978(6)
O1 O -0.09135(14) -0.05373(14) -0.00028(14)
O2 O -0.96247(15) 0.03540(15) -0.22369(15)
O3 O 0.15329(15) 0.11409(15) 0.22812(15)
C1 C -0.0828(2) 0.2546(2) -0.3123(2)
H1 H -0.0302 0.2809 -0.2424
H2 H -0.1029 0.1805 -0.3115
O4 O 0.24419(17) -0.02729(18) 0.25064(18)
C2 C -0.7172(2) 0.0696(2) -0.4290(2)
H3 H -0.7868 0.0192 -0.4489
H4 H -0.7213 0.1119 -0.4880
N1 N -0.02568(18) 0.37718(18) 0.11190(18)
N2 N -0.19332(19) 0.28872(19) 0.15683(18)
N3 N -0.08748(17) 0.44393(18) -0.43224(18)
C3 C -0.1395(2) 0.1802(2) -0.0263(2)
H5 H -0.1962 0.1183 -0.0433
H6 H -0.0893 0.1747 -0.0709
N4 N -0.61622(18) 0.01459(18) -0.41266(18)
N5 N -0.59940(18) 0.01632(19) -0.22120(19)
C4 C 0.0106(2) 0.3870(2) -0.3965(2)
H7 H 0.0572 0.4161 -0.3254
H8 H 0.0585 0.3969 -0.4433
C5 C -0.1538(2) 0.4467(2) -0.3559(2)
H9 H -0.2160 0.4883 -0.3812
H10 H -0.1032 0.4799 -0.2878
N6 N -0.5366(2) 0.60165(19) -0.32271(19)
C6 C -0.1027(2) 0.2309(2) -0.5027(2)
H11 H -0.0594 0.2345 -0.5538
H12 H -0.1299 0.1584 -0.5005
C7 C -0.9930(2) 0.0091(2) -0.3226(2)
C8 C 0.0212(2) 0.2779(2) 0.1145(2)
H13 H 0.0739 0.2743 0.1853
H14 H 0.0659 0.2762 0.0646
C9 C -0.2025(2) -0.0860(2) -0.0181(2)
C10 C -0.2797(2) 0.2944(2) 0.0516(2)
H15 H -0.3148 0.3573 0.0537
H16 H -0.3408 0.2360 0.0381
C11 C -0.7000(2) 0.0721(2) -0.2404(2)
H17 H -0.6924 0.1163 -0.1764
H18 H -0.7693 0.0222 -0.2534
C12 C 0.2376(2) 0.0637(3) 0.2705(2)
C13 C -0.0909(2) 0.3941(2) 0.0018(2)
H19 H -0.0391 0.3956 -0.0419
H20 H -0.1183 0.4611 0.0020
C14 C -0.1428(2) 0.1925(2) 0.1583(2)
H21 H -0.2052 0.1349 0.1372
H22 H -0.0968 0.1855 0.2310
C15 C -0.1002(2) 0.3763(2) 0.1809(2)
H23 H -0.0522 0.3759 0.2542
H24 H -0.1348 0.4400 0.1758
N7 N -0.02174(17) 0.27284(17) -0.39381(17)
N8 N -0.71543(17) 0.13767(17) -0.33264(17)
C16 C -0.6173(2) 0.2234(2) -0.3081(2)
H25 H -0.6187 0.2673 -0.2468
H26 H -0.6286 0.2652 -0.3682
N9 N -0.20285(17) 0.28537(18) -0.54015(18)
N10 N -0.06834(17) 0.18514(17) 0.08786(17)
C17 C -0.1618(2) 0.3966(2) -0.5375(2)
H27 H -0.1189 0.4056 -0.5886
H28 H -0.2288 0.4333 -0.5600
C18 C -0.2837(2) 0.2680(2) -0.4772(2)
H29 H -0.3101 0.1943 -0.4819
H30 H -0.3510 0.3025 -0.5072
C19 C -0.6067(2) -0.0457(2) -0.3195(2)
H31 H -0.6738 -0.0988 -0.3359
H32 H -0.5382 -0.0805 -0.3072
C20 C -0.5088(2) 0.0859(2) -0.3987(2)
H33 H -0.5173 0.1235 -0.4616
H34 H -0.4450 0.0459 -0.3923
C21 C -0.4938(2) 0.5036(2) -0.3435(2)
H35 H -0.4517 0.5128 -0.3952
H36 H -0.5596 0.4502 -0.3742
N11 N -0.53142(18) 0.57716(19) -0.13611(19)
N12 N -0.3623(2) 0.6741(2) -0.1733(2)
C22 C -0.4894(2) 0.4762(2) -0.1331(2)
H37 H -0.5556 0.4220 -0.1546
H38 H -0.4450 0.4678 -0.0603
C23 C -0.2993(2) 0.5840(2) -0.1758(3)
H39 H -0.2475 0.5793 -0.1048
H40 H -0.2521 0.5949 -0.2231
C24 C -0.6020(2) 0.5911(2) -0.2452(2)
H41 H -0.6626 0.5322 -0.2704
H42 H -0.6396 0.6525 -0.2427
C25 C -0.4898(2) 0.0870(2) -0.1830(2)
H43 H -0.4255 0.0467 -0.1685
H44 H -0.4863 0.1251 -0.1166
C26 C -0.4338(2) 0.6621(2) -0.1008(3)
H45 H -0.4644 0.7266 -0.0932
H46 H -0.3844 0.6501 -0.0310
C27 C -0.4396(3) 0.6849(2) -0.2808(3)
H47 H -0.4705 0.7501 -0.2791
H48 H -0.3936 0.6886 -0.3298
O5 O -0.96593(15) 0.06197(15) -0.39030(14)
O6 O -0.79882(15) 0.30500(15) -0.23279(15)
O7 O -0.86461(15) 0.23027(16) -0.51429(15)
O8 O -0.7276(2) 0.3626(2) -0.5025(2)
C28 C -0.8067(2) 0.2974(2) -0.5507(2)
C29 C -0.8245(2) 0.3026(3) -0.1457(2)
O10 O -0.26512(15) -0.04552(16) 0.02416(15)
O11 O -0.8262(2) 0.37660(19) -0.08696(18)
H51 H -0.240(2) -0.147(2) -0.074(2)
H52 H -0.834(2) 0.298(2) -0.629(2)
H53 H -0.841(3) 0.237(3) -0.127(2)
H54 H 0.302(2) 0.102(2) 0.329(2)
H55 H -1.037(3) -0.061(3) -0.352(2)
Cu1A Cu -1.01865(3) -0.03979(3) -0.12022(3)
Cu1_2 Cu -0.98135(3) 0.03979(3) 0.12022(3)
Cu1A_2 Cu -0.01865(3) -0.03979(3) -0.12022(3)
Cu2A Cu -0.67612(3) -0.30902(3) 0.22519(3)
Cu3A Cu -0.13231(3) -0.20527(3) 0.36170(3)
Cu3_2 Cu 0.13231(3) 0.20527(3) -0.36170(3)
Cu3A_2 Cu -1.13231(3) -0.20527(3) 0.36170(3)
P1A P -0.60258(6) -0.46049(6) 0.22107(6)
P2A P -0.78351(5) -0.31669(6) 0.33621(6)
P3A P -0.78469(6) -0.29355(6) 0.05774(6)
P4A P -0.52684(6) -0.17981(6) 0.27978(6)
O1A O -0.90865(14) 0.05373(14) 0.00028(14)
O1_2 O -1.09135(14) -0.05373(14) -0.00028(14)
O1A_2 O 0.09135(14) 0.05373(14) 0.00028(14)
O2A O -0.03753(15) -0.03540(15) 0.22369(15)
O3A O -1.15329(15) -0.11409(15) -0.22812(15)
C1A C -0.9172(2) -0.2546(2) 0.3123(2)
H1A H -0.9698 -0.2809 0.2424
H2A H -0.8971 -0.1805 0.3115
O4A O -1.24419(17) 0.02729(18) -0.25064(18)
C2A C -0.2828(2) -0.0696(2) 0.4290(2)
H3A H -0.2132 -0.0192 0.4489
H4A H -0.2787 -0.1119 0.4880
N1A N -0.97432(18) -0.37718(18) -0.11190(18)
N2A N -0.80668(19) -0.28872(19) -0.15683(18)
N3A N -0.91252(17) -0.44393(18) 0.43224(18)
C3A C -0.8605(2) -0.1802(2) 0.0263(2)
H5A H -0.8038 -0.1183 0.0433
H6A H -0.9107 -0.1747 0.0709
N4A N -0.38378(18) -0.01459(18) 0.41266(18)
N5A N -0.40060(18) -0.01632(19) 0.22120(19)
C4A C -1.0106(2) -0.3870(2) 0.3965(2)
H7A H -1.0572 -0.4161 0.3254
H8A H -1.0585 -0.3969 0.4433
C5A C -0.8462(2) -0.4467(2) 0.3559(2)
H9A H -0.7840 -0.4883 0.3812
H10A H -0.8968 -0.4799 0.2878
N6A N -0.4634(2) -0.60165(19) 0.32271(19)
C6A C -0.8973(2) -0.2309(2) 0.5027(2)
H11A H -0.9406 -0.2345 0.5538
H12A H -0.8701 -0.1584 0.5005
C7A C -0.0070(2) -0.0091(2) 0.3226(2)
C8A C -1.0212(2) -0.2779(2) -0.1145(2)
H13A H -1.0739 -0.2743 -0.1853
H14A H -1.0659 -0.2762 -0.0646
C9A C -0.7975(2) 0.0860(2) 0.0181(2)
C10A C -0.7203(2) -0.2944(2) -0.0516(2)
H15A H -0.6852 -0.3573 -0.0537
H16A H -0.6592 -0.2360 -0.0381
C11A C -0.3000(2) -0.0721(2) 0.2404(2)
H17A H -0.3076 -0.1163 0.1764
H18A H -0.2307 -0.0222 0.2534
C12A C -1.2376(2) -0.0637(3) -0.2705(2)
C13A C -0.9091(2) -0.3941(2) -0.0018(2)
H19A H -0.9609 -0.3956 0.0419
H20A H -0.8817 -0.4611 -0.0020
C14A C -0.8572(2) -0.1925(2) -0.1583(2)
H21A H -0.7948 -0.1349 -0.1372
H22A H -0.9032 -0.1855 -0.2310
C15A C -0.8998(2) -0.3763(2) -0.1809(2)
H23A H -0.9478 -0.3759 -0.2542
H24A H -0.8652 -0.4400 -0.1758
N7A N -0.97826(17) -0.27284(17) 0.39381(17)
N7_2 N -1.02174(17) 0.27284(17) -0.39381(17)
N7A_2 N 0.02174(17) -0.27284(17) 0.39381(17)
N8A N -0.28457(17) -0.13767(17) 0.33264(17)
C16A C -0.3827(2) -0.2234(2) 0.3081(2)
H25A H -0.3813 -0.2673 0.2468
H26A H -0.3714 -0.2652 0.3682
N9A N -0.79715(17) -0.28537(18) 0.54015(18)
N10A N -0.93166(17) -0.18514(17) -0.08786(17)
C17A C -0.8382(2) -0.3966(2) 0.5375(2)
H27A H -0.8811 -0.4056 0.5886
H28A H -0.7712 -0.4333 0.5600
C18A C -0.7163(2) -0.2680(2) 0.4772(2)
H29A H -0.6899 -0.1943 0.4819
H30A H -0.6490 -0.3025 0.5072
C19A C -0.3933(2) 0.0457(2) 0.3195(2)
H31A H -0.3262 0.0988 0.3359
H32A H -0.4618 0.0805 0.3072
C20A C -0.4912(2) -0.0859(2) 0.3987(2)
H33A H -0.4827 -0.1235 0.4616
H34A H -0.5550 -0.0459 0.3923
C21A C -0.5062(2) -0.5036(2) 0.3435(2)
H35A H -0.5483 -0.5128 0.3952
H36A H -0.4404 -0.4502 0.3742
N11A N -0.46858(18) -0.57716(19) 0.13611(19)
N12A N -0.6377(2) -0.6741(2) 0.1733(2)
C22A C -0.5106(2) -0.4762(2) 0.1331(2)
H37A H -0.4444 -0.4220 0.1546
H38A H -0.5550 -0.4678 0.0603
C23A C -0.7007(2) -0.5840(2) 0.1758(3)
H39A H -0.7525 -0.5793 0.1048
H40A H -0.7479 -0.5949 0.2231
C24A C -0.3980(2) -0.5911(2) 0.2452(2)
H41A H -0.3374 -0.5322 0.2704
H42A H -0.3604 -0.6525 0.2427
C25A C -0.5102(2) -0.0870(2) 0.1830(2)
H43A H -0.5745 -0.0467 0.1685
H44A H -0.5137 -0.1251 0.1166
C26A C -0.5662(2) -0.6621(2) 0.1008(3)
H45A H -0.5356 -0.7266 0.0932
H46A H -0.6156 -0.6501 0.0310
C27A C -0.5604(3) -0.6849(2) 0.2808(3)
H47A H -0.5295 -0.7501 0.2791
H48A H -0.6064 -0.6886 0.3298
O5A O -0.03407(15) -0.06197(15) 0.39030(14)
O6A O -0.20118(15) -0.30500(15) 0.23279(15)
O7A O -0.13539(15) -0.23027(16) 0.51429(15)
O8A O -0.2724(2) -0.3626(2) 0.5025(2)
C28A C -0.1933(2) -0.2974(2) 0.5507(2)
C29A C -0.1755(2) -0.3026(3) 0.1457(2)
O10A O -0.73488(15) 0.04552(16) -0.02416(15)
O11A O -0.1738(2) -0.37660(19) 0.08696(18)
H51A H -0.760(2) 0.147(2) 0.074(2)
H52A H -0.166(2) -0.298(2) 0.629(2)
H53A H -0.159(3) -0.237(3) 0.127(2)
H54A H -1.302(2) -0.102(2) -0.329(2)
H55A H 0.037(3) 0.061(3) 0.352(2)
O9 O -0.5084(3) -0.1150(3) -0.0612(3)
H49 H -0.5347 -0.0805 -0.1140
H50 H -0.4365 -0.0929 -0.0338
loop_
_geom_bond_atom_site_label_1
_geom_bond_atom_site_label_2
_geom_bond_site_symmetry_1
_geom_bond_site_symmetry_2
Cu1 O1 1_555 1_555
Cu2 P1 1_555 1_555
Cu3 N8 1_555 1_555
P1 C21 1_555 1_555
P2 Cu2 1_555 1_555
P3 Cu2 1_555 1_555
P4 Cu2 1_555 1_555
O1 C9 1_555 1_555
O2 C7 1_555 1_555
O3 Cu1 1_555 1_555
C1 P2 1_555 1_555
H1 C1 1_555 1_555
H2 C1 1_555 1_555
O4 C12 1_555 1_555
C2 H3 1_555 1_555
H4 C2 1_555 1_555
N1 C8 1_555 1_555
N2 C10 1_555 1_555
N3 C4 1_555 1_555
C3 P3 1_555 1_555
H5 C3 1_555 1_555
H6 C3 1_555 1_555
N4 C2 1_555 1_555
N5 C11 1_555 1_555
C4 H7 1_555 1_555
H8 C4 1_555 1_555
C5 P2 1_555 1_555
H9 C5 1_555 1_555
H10 C5 1_555 1_555
N6 C21 1_555 1_555
C6 H11 1_555 1_555
H12 C6 1_555 1_555
C7 O5 1_555 1_555
C8 H13 1_555 1_555
H14 C8 1_555 1_555
C9 O10 1_555 1_555
C10 P3 1_555 1_555
H15 C10 1_555 1_555
H16 C10 1_555 1_555
C11 H17 1_555 1_555
H18 C11 1_555 1_555
C12 O3 1_555 1_555
C13 P3 1_555 1_555
H19 C13 1_555 1_555
H20 C13 1_555 1_555
C14 N2 1_555 1_555
H21 C14 1_555 1_555
H22 C14 1_555 1_555
C15 N1 1_555 1_555
H23 C15 1_555 1_555
H24 C15 1_555 1_555
N7 C1 1_555 1_555
N8 C2 1_555 1_555
C16 P4 1_555 1_555
H25 C16 1_555 1_555
H26 C16 1_555 1_555
N9 C6 1_555 1_555
N10 Cu1 1_555 1_555
C17 N3 1_555 1_555
H27 C17 1_555 1_555
H28 C17 1_555 1_555
C18 P2 1_555 1_555
H29 C18 1_555 1_555
H30 C18 1_555 1_555
C19 N4 1_555 1_555
H31 C19 1_555 1_555
H32 C19 1_555 1_555
C20 P4 1_555 1_555
H33 C20 1_555 1_555
H34 C20 1_555 1_555
C21 H35 1_555 1_555
H36 C21 1_555 1_555
N11 C22 1_555 1_555
N12 C23 1_555 1_555
C22 P1 1_555 1_555
H37 C22 1_555 1_555
H38 C22 1_555 1_555
C23 P1 1_555 1_555
H39 C23 1_555 1_555
H40 C23 1_555 1_555
C24 N6 1_555 1_555
H41 C24 1_555 1_555
H42 C24 1_555 1_555
C25 P4 1_555 1_555
H43 C25 1_555 1_555
H44 C25 1_555 1_555
C26 N11 1_555 1_555
H45 C26 1_555 1_555
H46 C26 1_555 1_555
C27 N6 1_555 1_555
H47 C27 1_555 1_555
H48 C27 1_555 1_555
O5 Cu3 1_555 1_555
O6 Cu3 1_555 1_555
O7 Cu3 1_555 1_555
O8 C28 1_555 1_555
C28 O7 1_555 1_555
C29 O6 1_555 1_555
O9 H49 1_555 1_555
H50 O9 1_555 1_555
O11 C29 1_555 1_555
H51 C9 1_555 1_555
H52 C28 1_555 1_555
H53 C29 1_555 1_555
H54 C12 1_555 1_555
H55 C7 1_555 1_555
Cu1A O2 1_555 1_555
Cu1_2 O1A 1_555 1_555
Cu1A_2 O1 1_555 1_555
Cu2A P1A 1_555 1_555
Cu3A N7A_2 1_555 1_555
Cu3_2 N7 1_555 1_555
Cu3A_2 N7A 1_555 1_555
P1A C21A 1_555 1_555
P2A Cu2A 1_555 1_555
P3A Cu2A 1_555 1_555
P4A Cu2A 1_555 1_555
O1A Cu1A 1_555 1_555
O1_2 Cu1A 1_555 1_555
O1A_2 Cu1 1_555 1_555
O2A Cu1 1_555 1_555
O3A Cu1A 1_555 1_555
C1A P2A 1_555 1_555
H1A C1A 1_555 1_555
H2A C1A 1_555 1_555
O4A C12A 1_555 1_555
C2A H3A 1_555 1_555
H4A C2A 1_555 1_555
N1A C8A 1_555 1_555
N2A C10A 1_555 1_555
N3A C4A 1_555 1_555
C3A P3A 1_555 1_555
H5A C3A 1_555 1_555
H6A C3A 1_555 1_555
N4A C2A 1_555 1_555
N5A C11A 1_555 1_555
C4A H7A 1_555 1_555
H8A C4A 1_555 1_555
C5A P2A 1_555 1_555
H9A C5A 1_555 1_555
H10A C5A 1_555 1_555
N6A C21A 1_555 1_555
C6A H11A 1_555 1_555
H12A C6A 1_555 1_555
C7A O2A 1_555 1_555
C8A H13A 1_555 1_555
H14A C8A 1_555 1_555
C9A O1A 1_555 1_555
C10A P3A 1_555 1_555
H15A C10A 1_555 1_555
H16A C10A 1_555 1_555
C11A H17A 1_555 1_555
H18A C11A 1_555 1_555
C12A O3A 1_555 1_555
C13A P3A 1_555 1_555
H19A C13A 1_555 1_555
H20A C13A 1_555 1_555
C14A N2A 1_555 1_555
H21A C14A 1_555 1_555
H22A C14A 1_555 1_555
C15A N1A 1_555 1_555
H23A C15A 1_555 1_555
H24A C15A 1_555 1_555
N7A C1A 1_555 1_555
N7_2 Cu3 1_555 1_555
N8A Cu3A 1_555 1_555
C16A P4A 1_555 1_555
H25A C16A 1_555 1_555
H26A C16A 1_555 1_555
N9A C6A 1_555 1_555
N10A Cu1A 1_555 1_555
C17A N3A 1_555 1_555
H27A C17A 1_555 1_555
H28A C17A 1_555 1_555
C18A P2A 1_555 1_555
H29A C18A 1_555 1_555
H30A C18A 1_555 1_555
C19A N4A 1_555 1_555
H31A C19A 1_555 1_555
H32A C19A 1_555 1_555
C20A P4A 1_555 1_555
H33A C20A 1_555 1_555
H34A C20A 1_555 1_555
C21A H35A 1_555 1_555
H36A C21A 1_555 1_555
N11A C22A 1_555 1_555
N12A C23A 1_555 1_555
C22A P1A 1_555 1_555
H37A C22A 1_555 1_555
H38A C22A 1_555 1_555
C23A P1A 1_555 1_555
H39A C23A 1_555 1_555
H40A C23A 1_555 1_555
C24A N6A 1_555 1_555
H41A C24A 1_555 1_555
H42A C24A 1_555 1_555
C25A P4A 1_555 1_555
H43A C25A 1_555 1_555
H44A C25A 1_555 1_555
C26A N11A 1_555 1_555
H45A C26A 1_555 1_555
H46A C26A 1_555 1_555
C27A N6A 1_555 1_555
H47A C27A 1_555 1_555
H48A C27A 1_555 1_555
O5A Cu3A 1_555 1_555
O6A Cu3A 1_555 1_555
O7A Cu3A 1_555 1_555
O8A C28A 1_555 1_555
C28A O7A 1_555 1_555
C29A O6A 1_555 1_555
O10A C9A 1_555 1_555
O11A C29A 1_555 1_555
H51A C9A 1_555 1_555
H52A C28A 1_555 1_555
H53A C29A 1_555 1_555
H54A C12A 1_555 1_555
H55A C7A 1_555 1_555
N1 C13 1_555 1_555
N2 C15 1_555 1_555
N3 C5 1_555 1_555
C3 N10 1_555 1_555
N4 C20 1_555 1_555
N5 C19 1_555 1_555
N5 C25 1_555 1_555
C4 N7 1_555 1_555
C6 N7 1_555 1_555
C8 N10 1_555 1_555
C11 N8 1_555 1_555
C14 N10 1_555 1_555
N8 C16 1_555 1_555
N9 C17 1_555 1_555
N9 C18 1_555 1_555
N11 C24 1_555 1_555
N12 C26 1_555 1_555
N12 C27 1_555 1_555
Cu1_2 O1_2 1_555 1_555
Cu1A_2 O1A_2 1_555 1_555
C2A N8A 1_555 1_555
N1A C13A 1_555 1_555
N2A C15A 1_555 1_555
N3A C5A 1_555 1_555
C3A N10A 1_555 1_555
N4A C20A 1_555 1_555
N5A C19A 1_555 1_555
N5A C25A 1_555 1_555
C4A N7A 1_555 1_555
C6A N7A 1_555 1_555
C7A O5A 1_555 1_555
C8A N10A 1_555 1_555
C11A N8A 1_555 1_555
C14A N10A 1_555 1_555
N8A C16A 1_555 1_555
N9A C17A 1_555 1_555
N9A C18A 1_555 1_555
N11A C24A 1_555 1_555
N12A C26A 1_555 1_555
N12A C27A 1_555 1_555

#END
