
#######################################################################
#
#                 Cambridge Crystallographic Data Centre
#                                CCDC 
#
#######################################################################
#
# If this CIF has been generated from an entry in the Cambridge 
# Structural Database, then it will include bibliographic, chemical, 
# crystal, experimental, refinement or atomic coordinate data resulting 
# from the CCDC's data processing and validation procedures.
#
#######################################################################

data_GEPXAB
_symmetry_cell_setting           triclinic
_symmetry_space_group_name_H-M   'P -1'
_symmetry_Int_Tables_number      2
_space_group_name_Hall           '-P 1'
loop_
_symmetry_equiv_pos_site_id
_symmetry_equiv_pos_as_xyz
1 x,y,z
2 -x,-y,-z
_cell_length_a                   8.4497(4)
_cell_length_b                   8.9275(6)
_cell_length_c                   10.8126(6)
_cell_angle_alpha                79.2110(10)
_cell_angle_beta                 84.387(2)
_cell_angle_gamma                82.344(2)
_cell_volume                     791.857
loop_
_atom_site_label
_atom_site_type_symbol
_atom_site_fract_x
_atom_site_fract_y
_atom_site_fract_z
Cd1 Cd 0.00000 0.00000 0.50000
S1 S -0.77795(5) 0.34272(5) 0.76365(4)
S2 S -0.23216(6) -0.14937(6) 0.75977(5)
O1 O -0.75981(19) 0.30839(18) 0.89808(14)
O2 O -0.84265(18) 0.49845(16) 0.71550(16)
O3 O -0.20667(19) -0.1197(2) 0.61756(15)
N1 N -0.87945(19) 0.23413(18) 0.71430(16)
N2 N -0.11571(18) 0.25618(18) 0.51647(16)
H1 H -0.0505 0.2962 0.5593
H2 H -0.1158 0.3119 0.438
C1 C -0.8239(3) -0.3002(3) 0.9663(2)
H3 H -0.8358 -0.3828 0.9237
H4 H -0.906 -0.2959 1.0339
H5 H -0.7207 -0.3171 0.9999
N3 N -0.8779(2) -0.01443(17) 0.68443(15)
O4 O -0.86492(18) -0.16422(15) 0.75671(13)
C2 C -0.8381(2) -0.1522(2) 0.87514(18)
C3 C -0.8327(2) -0.0056(2) 0.88386(18)
H6 H -0.8148 0.0325 0.955
C4 C -0.8602(2) 0.0802(2) 0.76103(17)
C5 C -0.5811(2) 0.31396(19) 0.69083(17)
C6 C -0.4511(2) 0.3117(3) 0.7578(2)
H7 H -0.466 0.3225 0.8422
C7 C -0.2971(2) 0.2935(3) 0.7005(2)
H8 H -0.2095 0.2921 0.7467
C8 C -0.2730(2) 0.27740(19) 0.57487(18)
C9 C -0.4043(3) 0.2793(3) 0.5087(2)
H9 H -0.3895 0.2689 0.4242
C10 C -0.5582(3) 0.2964(3) 0.5653(2)
H10 H -0.6457 0.2962 0.5194
C11 C -0.2159(4) -0.3511(3) 0.8052(3)
H11 H -0.1066 -0.3936 0.791
H12 H -0.2825 -0.3924 0.7561
H13 H -0.2498 -0.377 0.8931
C12 C -0.4415(3) -0.1103(4) 0.7940(3)
H14 H -0.4727 -0.0016 0.7747
H15 H -0.468 -0.1468 0.8819
H16 H -0.4971 -0.1613 0.7439
Cd1_2 Cd -1.00000 0.00000 0.50000
Cd1_3 Cd 1.00000 0.00000 0.50000
S1A S 0.77795(5) -0.34272(5) 0.23635(4)
S2A S 0.23216(6) 0.14937(6) 0.24023(5)
O1A O 0.75981(19) -0.30839(18) 0.10192(14)
O2A O 0.84265(18) -0.49845(16) 0.28450(16)
O3A O 0.20667(19) 0.1197(2) 0.38244(15)
N1A N 0.87945(19) -0.23413(18) 0.28570(16)
N2A N 0.11571(18) -0.25618(18) 0.48353(16)
H1A H 0.0505 -0.2962 0.4407
H2A H 0.1158 -0.3119 0.562
C1A C 0.8239(3) 0.3002(3) 0.0337(2)
H3A H 0.8358 0.3828 0.0763
H4A H 0.906 0.2959 -0.0339
H5A H 0.7207 0.3171 0.0001
N3_2 N 0.1221(2) -0.01443(17) 0.68443(15)
N3A N -0.1221(2) 0.01443(17) 0.31557(15)
N3A_2 N 0.8779(2) 0.01443(17) 0.31557(15)
O4A O 0.86492(18) 0.16422(15) 0.24329(13)
C2A C 0.8381(2) 0.1522(2) 0.12486(18)
C3A C 0.8327(2) 0.0056(2) 0.11614(18)
H6A H 0.8148 -0.0325 0.045
C4A C 0.8602(2) -0.0802(2) 0.23897(17)
C5A C 0.5811(2) -0.31396(19) 0.30917(17)
C6A C 0.4511(2) -0.3117(3) 0.2422(2)
H7A H 0.466 -0.3225 0.1578
C7A C 0.2971(2) -0.2935(3) 0.2995(2)
H8A H 0.2095 -0.2921 0.2533
C8A C 0.2730(2) -0.27740(19) 0.42513(18)
C9A C 0.4043(3) -0.2793(3) 0.4913(2)
H9A H 0.3895 -0.2689 0.5758
C10A C 0.5582(3) -0.2964(3) 0.4347(2)
H10A H 0.6457 -0.2962 0.4806
C11A C 0.2159(4) 0.3511(3) 0.1948(3)
H11A H 0.1066 0.3936 0.209
H12A H 0.2825 0.3924 0.2439
H13A H 0.2498 0.377 0.1069
C12A C 0.4415(3) 0.1103(4) 0.2060(3)
H14A H 0.4727 0.0016 0.2253
H15A H 0.468 0.1468 0.1181
H16A H 0.4971 0.1613 0.2561
loop_
_geom_bond_atom_site_label_1
_geom_bond_atom_site_label_2
_geom_bond_site_symmetry_1
_geom_bond_site_symmetry_2
Cd1 O3 1_555 1_555
S1 O1 1_555 1_555
S2 O3 1_555 1_555
O2 S1 1_555 1_555
N1 S1 1_555 1_555
N2 Cd1 1_555 1_555
H1 N2 1_555 1_555
H2 N2 1_555 1_555
C1 H3 1_555 1_555
H4 C1 1_555 1_555
H5 C1 1_555 1_555
N3 O4 1_555 1_555
O4 C2 1_555 1_555
C2 C1 1_555 1_555
C3 C2 1_555 1_555
H6 C3 1_555 1_555
C4 N1 1_555 1_555
C5 S1 1_555 1_555
C6 C5 1_555 1_555
H7 C6 1_555 1_555
C7 C6 1_555 1_555
H8 C7 1_555 1_555
C8 N2 1_555 1_555
C9 C8 1_555 1_555
H9 C9 1_555 1_555
C10 C5 1_555 1_555
H10 C10 1_555 1_555
C11 S2 1_555 1_555
H11 C11 1_555 1_555
H12 C11 1_555 1_555
H13 C11 1_555 1_555
C12 S2 1_555 1_555
H14 C12 1_555 1_555
H15 C12 1_555 1_555
H16 C12 1_555 1_555
Cd1_2 N3 1_555 1_555
Cd1_3 N3A_2 1_555 1_555
S1A O1A 1_555 1_555
S2A O3A 1_555 1_555
O2A S1A 1_555 1_555
O3A Cd1 1_555 1_555
N1A S1A 1_555 1_555
N2A Cd1 1_555 1_555
H1A N2A 1_555 1_555
H2A N2A 1_555 1_555
C1A H3A 1_555 1_555
H4A C1A 1_555 1_555
H5A C1A 1_555 1_555
N3_2 Cd1 1_555 1_555
N3A Cd1 1_555 1_555
N3A_2 O4A 1_555 1_555
O4A C2A 1_555 1_555
C2A C1A 1_555 1_555
C3A C2A 1_555 1_555
H6A C3A 1_555 1_555
C4A N1A 1_555 1_555
C5A S1A 1_555 1_555
C6A C5A 1_555 1_555
H7A C6A 1_555 1_555
C7A C6A 1_555 1_555
H8A C7A 1_555 1_555
C8A N2A 1_555 1_555
C9A C8A 1_555 1_555
H9A C9A 1_555 1_555
C10A C5A 1_555 1_555
H10A C10A 1_555 1_555
C11A S2A 1_555 1_555
H11A C11A 1_555 1_555
H12A C11A 1_555 1_555
H13A C11A 1_555 1_555
C12A S2A 1_555 1_555
H14A C12A 1_555 1_555
H15A C12A 1_555 1_555
H16A C12A 1_555 1_555
N3 C4 1_555 1_555
C3 C4 1_555 1_555
C7 C8 1_555 1_555
C9 C10 1_555 1_555
N3A_2 C4A 1_555 1_555
C3A C4A 1_555 1_555
C7A C8A 1_555 1_555
C9A C10A 1_555 1_555

#END
