
#######################################################################
#
#                 Cambridge Crystallographic Data Centre
#                                CCDC 
#
#######################################################################
#
# If this CIF has been generated from an entry in the Cambridge 
# Structural Database, then it will include bibliographic, chemical, 
# crystal, experimental, refinement or atomic coordinate data resulting 
# from the CCDC's data processing and validation procedures.
#
#######################################################################

data_GEPYIK
_symmetry_cell_setting           monoclinic
_symmetry_space_group_name_H-M   'P 21/n'
_symmetry_Int_Tables_number      14
_space_group_name_Hall           '-P 2yn'
loop_
_symmetry_equiv_pos_site_id
_symmetry_equiv_pos_as_xyz
1 x,y,z
2 1/2-x,1/2+y,1/2-z
3 -x,-y,-z
4 1/2+x,1/2-y,1/2+z
_cell_length_a                   15.8625(6)
_cell_length_b                   17.4547(6)
_cell_length_c                   16.0860(7)
_cell_angle_alpha                90
_cell_angle_beta                 92.366(3)
_cell_angle_gamma                90
_cell_volume                     4450.02
loop_
_atom_site_label
_atom_site_type_symbol
_atom_site_fract_x
_atom_site_fract_y
_atom_site_fract_z
Cs1 Cs 0.364259(17) 0.104021(17) 0.725176(18)
O1 O 0.2063(2) 0.19761(19) 0.6247(2)
C1 C 0.1305(3) 0.1539(3) 0.6158(4)
H1 H 0.1396 0.1093 0.5814
H2 H 0.0861 0.1847 0.5892
C2 C 0.1057(3) 0.1299(3) 0.6996(3)
H3 H 0.1013 0.1746 0.7350
H4 H 0.0509 0.1052 0.6955
O2 O 0.1649(2) 0.0794(2) 0.7346(2)
C3 C 0.1320(4) 0.0486(4) 0.8085(4)
H5 H 0.0987 0.0034 0.7949
H6 H 0.0953 0.0860 0.8332
C4 C 0.1992(5) 0.0287(4) 0.8675(4)
H7 H 0.1761 0.0049 0.9160
H8 H 0.2370 -0.0076 0.8426
O3 O 0.2439(3) 0.0952(3) 0.8912(3)
C5 C 0.2952(4) 0.0882(4) 0.9633(4)
H9 H 0.3384 0.0497 0.9560
H10 H 0.2620 0.0735 1.0100
C6 C 0.3347(5) 0.1651(5) 0.9784(4)
H11 H 0.2915 0.2046 0.9757
H12 H 0.3623 0.1665 1.0333
O4 O 0.3940(3) 0.1787(3) 0.9174(3)
C7 C 0.4348(5) 0.2540(4) 0.9235(5)
H13 H 0.4631 0.2600 0.9777
H14 H 0.3930 0.2942 0.9164
C8 C 0.4964(5) 0.2594(4) 0.8579(5)
H15 H 0.5297 0.3055 0.8672
H16 H 0.5345 0.2161 0.8633
O5 O 0.4611(3) 0.2611(3) 0.7744(3)
C9 C 0.4341(5) 0.3296(4) 0.7484(5)
H17 H 0.4781 0.3673 0.7593
H18 H 0.3852 0.3444 0.7790
C10 C 0.4118(3) 0.3280(3) 0.6598(4)
H19 H 0.3990 0.3794 0.6403
H20 H 0.4589 0.3086 0.6295
O6 O 0.3401(2) 0.2798(2) 0.6456(2)
C11 C 0.3020(3) 0.2832(3) 0.5678(3)
C12 C 0.3284(4) 0.3291(3) 0.5032(3)
H21 H 0.3756 0.3603 0.5111
C13 C 0.2845(4) 0.3282(4) 0.4271(4)
H22 H 0.3017 0.3596 0.3842
C14 C 0.2163(4) 0.2818(4) 0.4146(4)
H23 H 0.1879 0.2809 0.3629
C15 C 0.1884(4) 0.2354(3) 0.4789(3)
H24 H 0.1422 0.2032 0.4697
C16 C 0.2299(3) 0.2377(3) 0.5563(3)
O7 O 0.5500(2) 0.1206(2) 0.6303(2)
C17 C 0.6210(3) 0.1327(4) 0.6868(3)
H25 H 0.6170 0.1827 0.7127
H26 H 0.6729 0.1308 0.6570
C18 C 0.6214(3) 0.0715(4) 0.7518(3)
H27 H 0.6164 0.0216 0.7255
H28 H 0.6742 0.0730 0.7845
O8 O 0.5532(2) 0.0833(2) 0.8039(2)
C19 C 0.5569(5) 0.0394(5) 0.8787(4)
H29 H 0.5284 0.0677 0.9212
H30 H 0.6156 0.0342 0.8973
C20 C 0.5202(4) -0.0360(5) 0.8725(5)
H31 H 0.5464 -0.0637 0.8282
H32 H 0.5327 -0.0634 0.9240
O9 O 0.4342(3) -0.0352(3) 0.8571(3)
C21 C 0.3948(5) -0.1087(4) 0.8508(5)
H33 H 0.3412 -0.1063 0.8776
H34 H 0.4300 -0.1456 0.8810
C22 C 0.3796(5) -0.1366(3) 0.7645(5)
H35 H 0.4328 -0.1404 0.7372
H36 H 0.3544 -0.1872 0.7655
O10 O 0.3250(3) -0.0857(2) 0.7198(3)
C23 C 0.2967(4) -0.1161(3) 0.6424(4)
H37 H 0.2667 -0.1636 0.6509
H38 H 0.3446 -0.1269 0.6087
C24 C 0.2391(3) -0.0594(3) 0.5981(4)
H39 H 0.2119 -0.0843 0.5503
H40 H 0.1954 -0.0444 0.6352
O11 O 0.2811(2) 0.00749(19) 0.5709(2)
C25 C 0.3243(3) -0.0044(3) 0.4966(4)
H41 H 0.2856 -0.0246 0.4538
H42 H 0.3692 -0.0415 0.5064
C26 C 0.3605(3) 0.0691(3) 0.4682(3)
H43 H 0.3836 0.0627 0.4137
H44 H 0.3170 0.1081 0.4642
O12 O 0.4256(2) 0.09156(19) 0.5272(2)
C27 C 0.4752(3) 0.1516(3) 0.5064(3)
C28 C 0.4629(3) 0.1968(3) 0.4350(3)
H45 H 0.4186 0.1863 0.3971
C29 C 0.5173(4) 0.2577(3) 0.4210(4)
H46 H 0.5089 0.2881 0.3739
C30 C 0.5828(4) 0.2729(3) 0.4760(4)
H47 H 0.6188 0.3137 0.4659
C31 C 0.5968(4) 0.2285(3) 0.5474(4)
H48 H 0.6420 0.2391 0.5843
C32 C 0.5424(3) 0.1681(3) 0.5627(3)
I1 I 0.62696(3) -0.29200(3) 0.81300(3)
I2 I 0.72773(2) -0.16343(2) 0.77904(2)
I3 I 0.84007(3) -0.02790(3) 0.74249(3)
I4 I 0.95219(3) -0.00986(2) 0.56940(3)
I5 I 0.95032(3) -0.01010(2) 0.92826(4)
I4B I 1.04781(3) 0.00986(2) 0.43060(3)
I5B I 1.04968(3) 0.01010(2) 1.07174(4)
loop_
_geom_bond_atom_site_label_1
_geom_bond_atom_site_label_2
_geom_bond_site_symmetry_1
_geom_bond_site_symmetry_2
Cs1 O1 1_555 1_555
I1 I2 1_555 1_555
I2 I3 1_555 1_555
I3 I4 1_555 1_555
I4 I4B 1_555 1_555
I5 I3 1_555 1_555
O1 C1 1_555 1_555
C1 H1 1_555 1_555
H2 C1 1_555 1_555
C2 C1 1_555 1_555
H3 C2 1_555 1_555
H4 C2 1_555 1_555
O2 Cs1 1_555 1_555
C3 O2 1_555 1_555
H5 C3 1_555 1_555
H6 C3 1_555 1_555
C4 C3 1_555 1_555
H7 C4 1_555 1_555
H8 C4 1_555 1_555
O3 Cs1 1_555 1_555
C5 O3 1_555 1_555
H9 C5 1_555 1_555
H10 C5 1_555 1_555
C6 C5 1_555 1_555
H11 C6 1_555 1_555
H12 C6 1_555 1_555
O4 Cs1 1_555 1_555
C7 O4 1_555 1_555
H13 C7 1_555 1_555
H14 C7 1_555 1_555
C8 C7 1_555 1_555
H15 C8 1_555 1_555
H16 C8 1_555 1_555
O5 Cs1 1_555 1_555
C9 O5 1_555 1_555
H17 C9 1_555 1_555
H18 C9 1_555 1_555
C10 C9 1_555 1_555
H19 C10 1_555 1_555
H20 C10 1_555 1_555
O6 Cs1 1_555 1_555
C11 O6 1_555 1_555
C12 C11 1_555 1_555
H21 C12 1_555 1_555
C13 C12 1_555 1_555
H22 C13 1_555 1_555
C14 C13 1_555 1_555
H23 C14 1_555 1_555
C15 C14 1_555 1_555
H24 C15 1_555 1_555
C16 O1 1_555 1_555
O7 Cs1 1_555 1_555
C17 O7 1_555 1_555
H25 C17 1_555 1_555
H26 C17 1_555 1_555
C18 C17 1_555 1_555
H27 C18 1_555 1_555
H28 C18 1_555 1_555
O8 Cs1 1_555 1_555
C19 O8 1_555 1_555
H29 C19 1_555 1_555
H30 C19 1_555 1_555
C20 C19 1_555 1_555
H31 C20 1_555 1_555
H32 C20 1_555 1_555
O9 Cs1 1_555 1_555
C21 O9 1_555 1_555
H33 C21 1_555 1_555
H34 C21 1_555 1_555
C22 C21 1_555 1_555
H35 C22 1_555 1_555
H36 C22 1_555 1_555
O10 Cs1 1_555 1_555
C23 O10 1_555 1_555
H37 C23 1_555 1_555
H38 C23 1_555 1_555
C24 C23 1_555 1_555
H39 C24 1_555 1_555
H40 C24 1_555 1_555
O11 Cs1 1_555 1_555
C25 O11 1_555 1_555
H41 C25 1_555 1_555
H42 C25 1_555 1_555
C26 C25 1_555 1_555
H43 C26 1_555 1_555
H44 C26 1_555 1_555
O12 Cs1 1_555 1_555
C27 O12 1_555 1_555
C28 C27 1_555 1_555
H45 C28 1_555 1_555
C29 C28 1_555 1_555
H46 C29 1_555 1_555
C30 C29 1_555 1_555
H47 C30 1_555 1_555
C31 C30 1_555 1_555
H48 C31 1_555 1_555
C32 O7 1_555 1_555
I5B I5 1_555 1_555
C2 O2 1_555 1_555
C4 O3 1_555 1_555
C6 O4 1_555 1_555
C8 O5 1_555 1_555
C10 O6 1_555 1_555
C11 C16 1_555 1_555
C15 C16 1_555 1_555
C18 O8 1_555 1_555
C20 O9 1_555 1_555
C22 O10 1_555 1_555
C24 O11 1_555 1_555
C26 O12 1_555 1_555
C27 C32 1_555 1_555
C31 C32 1_555 1_555

#END
