
#######################################################################
#
#                 Cambridge Crystallographic Data Centre
#                                CCDC 
#
#######################################################################
#
# If this CIF has been generated from an entry in the Cambridge 
# Structural Database, then it will include bibliographic, chemical, 
# crystal, experimental, refinement or atomic coordinate data resulting 
# from the CCDC's data processing and validation procedures.
#
#######################################################################

data_GEPZUY
_symmetry_cell_setting           triclinic
_symmetry_space_group_name_H-M   'P -1'
_symmetry_Int_Tables_number      2
_space_group_name_Hall           '-P 1'
loop_
_symmetry_equiv_pos_site_id
_symmetry_equiv_pos_as_xyz
1 x,y,z
2 -x,-y,-z
_cell_length_a                   10.2173(6)
_cell_length_b                   11.5554(8)
_cell_length_c                   12.3446(8)
_cell_angle_alpha                85.454(4)
_cell_angle_beta                 84.299(4)
_cell_angle_gamma                70.037(3)
_cell_volume                     1361.51
loop_
_atom_site_label
_atom_site_type_symbol
_atom_site_fract_x
_atom_site_fract_y
_atom_site_fract_z
Eu1 Eu 0.271809(15) 0.257841(13) 0.254834(13)
Cl1 Cl 0.21471(8) 0.05276(7) -0.10892(8)
Cl2 Cl 0.34104(8) -0.18267(7) 0.45388(7)
Cl3 Cl -0.08184(8) 0.27448(7) 0.61325(8)
O1 O 0.5027(2) 0.12492(18) 0.17299(18)
O2 O 0.2676(2) 0.17503(17) 0.08203(18)
O3 O 0.4442(2) 0.21669(17) 0.38371(18)
O4 O 0.3262(2) 0.05726(17) 0.33923(18)
O5 O 0.2114(2) 0.45486(18) 0.34139(18)
O6 O 0.1351(2) 0.27299(17) 0.43046(19)
O7 O 0.3727(2) 0.39044(18) 0.14207(18)
H1 H 0.4210 0.4283 0.1759
H2 H 0.4155 0.3774 0.0815
N1 N 0.0534(2) 0.4233(2) 0.1763(2)
N2 N 0.0418(3) 0.2006(2) 0.2520(2)
N3 N -0.2035(3) 0.2729(2) 0.2269(2)
N4 N -0.1826(3) 0.4838(2) 0.1305(2)
C1 C 0.5092(3) 0.0636(3) 0.0924(3)
C2 C 0.3712(3) 0.0915(3) 0.0395(3)
C3 C 0.3698(3) 0.0260(3) -0.0498(3)
C4 C 0.4772(3) 0.1170(3) 0.4405(3)
C5 C 0.4043(3) 0.0250(3) 0.4166(3)
C6 C 0.4285(3) -0.0841(3) 0.4795(3)
C7 C 0.1113(3) 0.4839(3) 0.4138(3)
C8 C 0.0692(3) 0.3760(3) 0.4685(3)
C9 C -0.0372(3) 0.3976(3) 0.5525(3)
C10 C -0.0671(3) 0.4041(3) 0.1707(3)
C11 C -0.0766(3) 0.2839(3) 0.2188(3)
C12 C 0.0290(3) 0.0944(3) 0.2981(3)
H3 H 0.1077 0.0333 0.3229
C13 C -0.0970(3) 0.0739(3) 0.3094(3)
H4 H -0.1042 0.0003 0.3409
C14 C -0.2124(3) 0.1666(3) 0.2722(3)
H5 H -0.2985 0.1547 0.2790
C15 C -0.1753(3) 0.5940(3) 0.0938(3)
H6 H -0.2533 0.6522 0.0653
C16 C -0.0561(3) 0.6239(3) 0.0969(3)
H7 H -0.0526 0.7008 0.0714
C17 C 0.0576(3) 0.5352(3) 0.1393(3)
H8 H 0.1393 0.5528 0.1425
Eu1A Eu -0.271809(15) 0.742159(13) 0.745166(13)
Eu1A_2 Eu 0.728191(15) -0.257841(13) -0.254834(13)
Eu1A_3 Eu 0.728191(15) -0.257841(13) 0.745166(13)
Cl1A Cl 0.78529(8) -0.05276(7) 0.10892(8)
Cl2A Cl 0.65896(8) 0.18267(7) 0.54612(7)
Cl3A Cl 0.08184(8) 0.72552(7) 0.38675(8)
O1A O 0.4973(2) -0.12492(18) -0.17299(18)
O1A_2 O -0.5027(2) 0.87508(18) 0.82701(18)
O2A O 0.7324(2) -0.17503(17) -0.08203(18)
O2A_2 O -0.2676(2) 0.82497(17) 0.91797(18)
O3A O 0.5558(2) -0.21669(17) 0.61629(18)
O3A_2 O -0.4442(2) 0.78331(17) 0.61629(18)
O4A O 0.6738(2) -0.05726(17) 0.66077(18)
O4A_2 O -0.3262(2) 0.94274(17) 0.66077(18)
O5A O -0.2114(2) 0.54514(18) 0.65861(18)
O6A O -0.1351(2) 0.72701(17) 0.56954(19)
O7A O -0.3727(2) 0.60956(18) 0.85793(18)
H1A H -0.4210 0.5717 0.8241
H2A H -0.4155 0.6226 0.9185
N1A N -0.0534(2) 0.5767(2) 0.8237(2)
N2A N -0.0418(3) 0.7994(2) 0.7480(2)
N3A N 0.2035(3) 0.7271(2) 0.7731(2)
N4A N 0.1826(3) 0.5162(2) 0.8695(2)
C1A C 0.4908(3) -0.0636(3) -0.0924(3)
C2A C 0.6288(3) -0.0915(3) -0.0395(3)
C3A C 0.6302(3) -0.0260(3) 0.0498(3)
C4A C 0.5228(3) -0.1170(3) 0.5595(3)
C5A C 0.5957(3) -0.0250(3) 0.5834(3)
C6A C 0.5715(3) 0.0841(3) 0.5205(3)
C7A C -0.1113(3) 0.5161(3) 0.5862(3)
C8A C -0.0692(3) 0.6240(3) 0.5315(3)
C9A C 0.0372(3) 0.6024(3) 0.4475(3)
C10A C 0.0671(3) 0.5959(3) 0.8293(3)
C11A C 0.0766(3) 0.7161(3) 0.7812(3)
C12A C -0.0290(3) 0.9056(3) 0.7019(3)
H3A H -0.1077 0.9667 0.6771
C13A C 0.0970(3) 0.9261(3) 0.6906(3)
H4A H 0.1042 0.9997 0.6591
C14A C 0.2124(3) 0.8334(3) 0.7278(3)
H5A H 0.2985 0.8453 0.7210
C15A C 0.1753(3) 0.4060(3) 0.9062(3)
H6A H 0.2533 0.3478 0.9347
C16A C 0.0561(3) 0.3761(3) 0.9031(3)
H7A H 0.0526 0.2992 0.9286
C17A C -0.0576(3) 0.4648(3) 0.8607(3)
H8A H -0.1393 0.4472 0.8575
O8 O 0.5371(2) 0.4983(2) 0.22227(19)
H9 H 0.6272 0.4541 0.2019
C18 C 0.5254(3) 0.5088(3) 0.3391(3)
H10 H 0.5387 0.4281 0.3748
H11 H 0.4323 0.5625 0.3618
C19 C 0.6322(4) 0.5598(4) 0.3747(3)
H12 H 0.7245 0.5029 0.3586
H13 H 0.6167 0.5713 0.4517
H14 H 0.6229 0.6374 0.3364
O9 O 0.5157(2) 0.3182(2) -0.0513(2)
H15 H 0.4932 0.3597 -0.1172
C20 C 0.6635(4) 0.2732(3) -0.0406(3)
H16 H 0.6825 0.2231 0.0267
H17 H 0.6955 0.3426 -0.0363
C21 C 0.7430(4) 0.1980(4) -0.1342(4)
H18 H 0.7064 0.1332 -0.1426
H19 H 0.8399 0.1628 -0.1204
H20 H 0.7337 0.2498 -0.1998
loop_
_geom_bond_atom_site_label_1
_geom_bond_atom_site_label_2
_geom_bond_site_symmetry_1
_geom_bond_site_symmetry_2
Eu1 O1 1_555 1_555
Cl1 C3 1_555 1_555
Cl2 C6 1_555 1_555
Cl3 C9 1_555 1_555
O1 C1 1_555 1_555
O2 Eu1 1_555 1_555
O3 Eu1 1_555 1_555
O4 Eu1 1_555 1_555
O5 Eu1 1_555 1_555
O6 Eu1 1_555 1_555
O7 Eu1 1_555 1_555
H1 O7 1_555 1_555
H2 O7 1_555 1_555
N1 Eu1 1_555 1_555
N2 Eu1 1_555 1_555
N3 C11 1_555 1_555
N4 C10 1_555 1_555
C1 C2 1_555 1_555
C2 O2 1_555 1_555
C3 C2 1_555 1_555
C4 O3 1_555 1_555
C5 O4 1_555 1_555
C6 C5 1_555 1_555
C7 O5 1_555 1_555
C8 O6 1_555 1_555
C9 C8 1_555 1_555
C10 N1 1_555 1_555
C11 N2 1_555 1_555
C12 N2 1_555 1_555
H3 C12 1_555 1_555
C13 C12 1_555 1_555
H4 C13 1_555 1_555
C14 N3 1_555 1_555
H5 C14 1_555 1_555
C15 N4 1_555 1_555
H6 C15 1_555 1_555
C16 C15 1_555 1_555
H7 C16 1_555 1_555
C17 N1 1_555 1_555
H8 C17 1_555 1_555
O8 H9 1_555 1_555
C18 O8 1_555 1_555
H10 C18 1_555 1_555
H11 C18 1_555 1_555
C19 C18 1_555 1_555
H12 C19 1_555 1_555
H13 C19 1_555 1_555
H14 C19 1_555 1_555
O9 H15 1_555 1_555
C20 O9 1_555 1_555
H16 C20 1_555 1_555
H17 C20 1_555 1_555
C21 C20 1_555 1_555
H18 C21 1_555 1_555
H19 C21 1_555 1_555
H20 C21 1_555 1_555
Eu1A O1A_2 1_555 1_555
Eu1A_2 O1A 1_555 1_555
Eu1A_3 O3A 1_555 1_555
Cl1A C3A 1_555 1_555
Cl2A C6A 1_555 1_555
Cl3A C9A 1_555 1_555
O1A C1A 1_555 1_555
O2A Eu1A_2 1_555 1_555
O2A_2 Eu1A 1_555 1_555
O3A C4A 1_555 1_555
O3A_2 Eu1A 1_555 1_555
O4A Eu1A_3 1_555 1_555
O4A_2 Eu1A 1_555 1_555
O5A Eu1A 1_555 1_555
O6A Eu1A 1_555 1_555
O7A Eu1A 1_555 1_555
H1A O7A 1_555 1_555
H2A O7A 1_555 1_555
N1A Eu1A 1_555 1_555
N2A Eu1A 1_555 1_555
N3A C11A 1_555 1_555
N4A C10A 1_555 1_555
C1A C3 1_555 1_555
C2A O2A 1_555 1_555
C3A C1 1_555 1_555
C4A C6 1_555 1_555
C5A O4A 1_555 1_555
C6A C4 1_555 1_555
C7A C9 1_555 1_555
C8A O6A 1_555 1_555
C9A C7 1_555 1_555
C10A N1A 1_555 1_555
C11A N2A 1_555 1_555
C12A N2A 1_555 1_555
H3A C12A 1_555 1_555
C13A C12A 1_555 1_555
H4A C13A 1_555 1_555
C14A N3A 1_555 1_555
H5A C14A 1_555 1_555
C15A N4A 1_555 1_555
H6A C15A 1_555 1_555
C16A C15A 1_555 1_555
H7A C16A 1_555 1_555
C17A N1A 1_555 1_555
H8A C17A 1_555 1_555
C4 C5 1_555 1_555
C7 C8 1_555 1_555
C10 C11 1_555 1_555
C13 C14 1_555 1_555
C16 C17 1_555 1_555
O5A C7A 1_555 1_555
C1A C2A 1_555 1_555
C2A C3A 1_555 1_555
C4A C5A 1_555 1_555
C5A C6A 1_555 1_555
C7A C8A 1_555 1_555
C8A C9A 1_555 1_555
C10A C11A 1_555 1_555
C13A C14A 1_555 1_555
C16A C17A 1_555 1_555

#END
