
#######################################################################
#
#                 Cambridge Crystallographic Data Centre
#                                CCDC 
#
#######################################################################
#
# If this CIF has been generated from an entry in the Cambridge 
# Structural Database, then it will include bibliographic, chemical, 
# crystal, experimental, refinement or atomic coordinate data resulting 
# from the CCDC's data processing and validation procedures.
#
#######################################################################

data_GEQCOV
_symmetry_cell_setting           orthorhombic
_symmetry_space_group_name_H-M   'P n m a'
_symmetry_Int_Tables_number      62
_space_group_name_Hall           '-P 2ac 2n'
loop_
_symmetry_equiv_pos_site_id
_symmetry_equiv_pos_as_xyz
1 x,y,z
2 1/2-x,-y,1/2+z
3 -x,1/2+y,-z
4 1/2+x,1/2-y,1/2-z
5 -x,-y,-z
6 1/2+x,y,1/2-z
7 x,1/2-y,z
8 1/2-x,1/2+y,1/2+z
_cell_length_a                   10.821(2)
_cell_length_b                   25.196(5)
_cell_length_c                   10.039(2)
_cell_angle_alpha                90
_cell_angle_beta                 90
_cell_angle_gamma                90
_cell_volume                     2737.09
loop_
_atom_site_label
_atom_site_type_symbol
_atom_site_fract_x
_atom_site_fract_y
_atom_site_fract_z
Hg1 Hg 0.26017(6) 0.2500 -0.54235(6)
I1 I 0.31708(12) 0.2500 -0.27925(12)
I2 I 0.38238(13) 0.2500 -0.77272(13)
N1 N 0.1348(8) 0.3264(3) -0.5482(8)
C1 C 0.0133(9) 0.4248(3) -0.5358(10)
O1 O -0.1408(7) 0.4777(3) -0.4246(8)
C2 C -0.0481(8) 0.4792(3) -0.5237(11)
C3 C 0.0546(10) 0.3376(3) -0.4521(11)
H1 H 0.0390 0.3118 -0.3880
C4 C 0.1516(9) 0.3631(3) -0.6407(10)
H2 H 0.2049 0.3552 -0.7106
C5 C 0.0948(9) 0.4125(3) -0.6404(10)
H3 H 0.1103 0.4369 -0.7080
C6 C -0.0067(10) 0.3851(3) -0.4423(10)
H4 H -0.0619 0.3907 -0.3727
C7 C -0.1046(10) 0.4953(3) -0.6610(10)
H5 H -0.1435 0.5294 -0.6533
H6 H -0.1648 0.4694 -0.6874
H7 H -0.0402 0.4970 -0.7266
H14 H -0.198(8) 0.461(3) -0.438(8)
Hg1D Hg -0.26017(6) 0.7500 -0.45765(6)
N1D N -0.1348(8) 0.6736(3) -0.4518(8)
N1F N 0.1348(8) 0.1736(3) -0.5482(8)
C1D C -0.0133(9) 0.5752(3) -0.4642(10)
O1D O 0.1408(7) 0.5223(3) -0.5754(8)
C2D C 0.0481(8) 0.5208(3) -0.4763(11)
C3D C -0.0546(10) 0.6624(3) -0.5479(11)
H1D H -0.0390 0.6882 -0.6120
C4D C -0.1516(9) 0.6369(3) -0.3593(10)
H2D H -0.2049 0.6448 -0.2894
C5D C -0.0948(9) 0.5875(3) -0.3596(10)
H3D H -0.1103 0.5631 -0.2920
C6D C 0.0067(10) 0.6149(3) -0.5577(10)
H4D H 0.0619 0.6093 -0.6273
C7D C 0.1046(10) 0.5047(3) -0.3390(10)
H5D H 0.1435 0.4706 -0.3467
H6D H 0.1648 0.5306 -0.3126
H7D H 0.0402 0.5030 -0.2734
H14D H 0.198(8) 0.539(3) -0.562(8)
S1 S -0.4208(5) 0.4001(2) -0.4311(5)
O2 O -0.3575(9) 0.4371(5) -0.5276(10)
C8 C -0.4048(18) 0.3351(8) -0.4883(18)
H8 H -0.3205 0.3239 -0.4777
H9 H -0.4271 0.3335 -0.5808
H10 H -0.4579 0.3121 -0.4379
C9 C -0.564(3) 0.4088(8) -0.471(2)
H11 H -0.5895 0.4438 -0.4454
H12 H -0.6142 0.3830 -0.4257
H13 H -0.5736 0.4046 -0.5655
loop_
_geom_bond_atom_site_label_1
_geom_bond_atom_site_label_2
_geom_bond_site_symmetry_1
_geom_bond_site_symmetry_2
Hg1 I1 1_555 1_555
I2 Hg1 1_555 1_555
N1 Hg1 1_555 1_555
C1 C2 1_555 1_555
O1 C2 1_555 1_555
C2 C7 1_555 1_555
C3 N1 1_555 1_555
H1 C3 1_555 1_555
C4 N1 1_555 1_555
H2 C4 1_555 1_555
C5 C1 1_555 1_555
H3 C5 1_555 1_555
C6 C1 1_555 1_555
H4 C6 1_555 1_555
S1 O2 1_555 1_555
C7 H5 1_555 1_555
H6 C7 1_555 1_555
H7 C7 1_555 1_555
C8 S1 1_555 1_555
H8 C8 1_555 1_555
H9 C8 1_555 1_555
H10 C8 1_555 1_555
C9 S1 1_555 1_555
H11 C9 1_555 1_555
H12 C9 1_555 1_555
H13 C9 1_555 1_555
H14 O1 1_555 1_555
Hg1D N1D 1_555 1_555
N1D C3D 1_555 1_555
N1F Hg1 1_555 1_555
C1D C2D 1_555 1_555
O1D C2D 1_555 1_555
C2D C2 1_555 1_555
C3D H1D 1_555 1_555
C4D N1D 1_555 1_555
H2D C4D 1_555 1_555
C5D C1D 1_555 1_555
H3D C5D 1_555 1_555
C6D C1D 1_555 1_555
H4D C6D 1_555 1_555
C7D C2D 1_555 1_555
H5D C7D 1_555 1_555
H6D C7D 1_555 1_555
H7D C7D 1_555 1_555
H14D O1D 1_555 1_555
C3 C6 1_555 1_555
C4 C5 1_555 1_555
C3D C6D 1_555 1_555
C4D C5D 1_555 1_555

#END
