
#######################################################################
#
#                 Cambridge Crystallographic Data Centre
#                                CCDC 
#
#######################################################################
#
# If this CIF has been generated from an entry in the Cambridge 
# Structural Database, then it will include bibliographic, chemical, 
# crystal, experimental, refinement or atomic coordinate data resulting 
# from the CCDC's data processing and validation procedures.
#
#######################################################################

data_GERLAS
_symmetry_cell_setting           monoclinic
_symmetry_space_group_name_H-M   'P 21/c'
_symmetry_Int_Tables_number      14
_space_group_name_Hall           '-P 2ybc'
loop_
_symmetry_equiv_pos_site_id
_symmetry_equiv_pos_as_xyz
1 x,y,z
2 -x,1/2+y,1/2-z
3 -x,-y,-z
4 x,1/2-y,1/2+z
_cell_length_a                   9.4120(3)
_cell_length_b                   6.5791(2)
_cell_length_c                   22.4300(8)
_cell_angle_alpha                90
_cell_angle_beta                 94.428(2)
_cell_angle_gamma                90
_cell_volume                     1384.78
loop_
_atom_site_label
_atom_site_type_symbol
_atom_site_fract_x
_atom_site_fract_y
_atom_site_fract_z
Hg1 Hg 0.514246(18) 0.19305(2) 0.304583(8)
Te1 Te 0.33360(3) 0.50908(4) 0.282603(12)
S1 S 0.46170(11) -0.09776(15) 0.38077(5)
S2 S 0.69498(12) 0.20920(14) 0.39884(5)
C1 C 0.6117(5) -0.3106(5) 0.4856(2)
H1 H 0.6035 -0.4121 0.4542
H2 H 0.5184 -0.2867 0.4998
C2 C -0.0301(5) 0.2428(7) 0.1366(2)
H3 H -0.1006 0.1966 0.1085
C3 C 0.8102(5) -0.0743(6) 0.4972(2)
H4 H 0.8002 0.0346 0.5258
H5 H 0.8814 -0.036 0.4703
C4 C 0.7162(6) -0.3755(8) 0.5357(2)
H6 H 0.6808 -0.3411 0.5739
H7 H 0.7309 -0.5213 0.5344
N1 N 0.6740(3) -0.1203(5) 0.46434(14)
C5 C 0.1794(4) 0.3817(6) 0.21897(17)
C6 C 0.0551(4) 0.4895(6) 0.20793(19)
H8 H 0.0417 0.6105 0.2282
C7 C 0.0922(5) 0.1348(7) 0.1473(2)
H9 H 0.1042 0.0137 0.1269
C8 C 0.1991(5) 0.2032(6) 0.1883(2)
H10 H 0.2832 0.1297 0.1951
C9 C -0.0496(5) 0.4184(7) 0.1668(2)
H11 H -0.1341 0.4909 0.1598
C10 C 0.8486(6) -0.2696(8) 0.5283(3)
H12 H 0.9094 -0.3504 0.5045
H13 H 0.899 -0.2435 0.5669
C11 C 0.6161(4) -0.0124(5) 0.41892(17)
Hg1A Hg 0.485754(18) 0.69305(2) 0.195417(8)
Te1A Te 0.66640(3) 0.00908(4) 0.217397(12)
loop_
_geom_bond_atom_site_label_1
_geom_bond_atom_site_label_2
_geom_bond_site_symmetry_1
_geom_bond_site_symmetry_2
Hg1 Te1 1_555 1_555
Te1 C5 1_555 1_555
S1 Hg1 1_555 1_555
S2 Hg1 1_555 1_555
C1 H1 1_555 1_555
H2 C1 1_555 1_555
C2 H3 1_555 1_555
C3 H4 1_555 1_555
H5 C3 1_555 1_555
C4 C1 1_555 1_555
H6 C4 1_555 1_555
H7 C4 1_555 1_555
N1 C1 1_555 1_555
C5 C6 1_555 1_555
C6 H8 1_555 1_555
C7 C2 1_555 1_555
H9 C7 1_555 1_555
C8 C5 1_555 1_555
H10 C8 1_555 1_555
C9 C2 1_555 1_555
H11 C9 1_555 1_555
C10 C3 1_555 1_555
H12 C10 1_555 1_555
H13 C10 1_555 1_555
C11 S1 1_555 1_555
Hg1A Te1 1_555 1_555
Te1A Hg1 1_555 1_555
S2 C11 1_555 1_555
C3 N1 1_555 1_555
C4 C10 1_555 1_555
N1 C11 1_555 1_555
C6 C9 1_555 1_555
C7 C8 1_555 1_555

#END
