
#######################################################################
#
#                 Cambridge Crystallographic Data Centre
#                                CCDC 
#
#######################################################################
#
# If this CIF has been generated from an entry in the Cambridge 
# Structural Database, then it will include bibliographic, chemical, 
# crystal, experimental, refinement or atomic coordinate data resulting 
# from the CCDC's data processing and validation procedures.
#
#######################################################################

data_GERMEX
_symmetry_cell_setting           monoclinic
_symmetry_space_group_name_H-M   'P 21/n'
_symmetry_Int_Tables_number      14
_space_group_name_Hall           '-P 2yn'
loop_
_symmetry_equiv_pos_site_id
_symmetry_equiv_pos_as_xyz
1 x,y,z
2 1/2-x,1/2+y,1/2-z
3 -x,-y,-z
4 1/2+x,1/2-y,1/2+z
_cell_length_a                   10.2045(3)
_cell_length_b                   16.3187(6)
_cell_length_c                   13.9348(5)
_cell_angle_alpha                90
_cell_angle_beta                 99.700(3)
_cell_angle_gamma                90
_cell_volume                     2287.31
loop_
_atom_site_label
_atom_site_type_symbol
_atom_site_fract_x
_atom_site_fract_y
_atom_site_fract_z
Cd1 Cd -0.08269(3) 0.100438(18) 0.49248(2)
C1 C -0.1796(4) 0.2698(3) 0.5789(3)
H1 H -0.2089 0.2329 0.6215
C2 C -0.2234(4) 0.3497(3) 0.5794(3)
H2 H -0.2811 0.3658 0.6210
C3 C -0.1800(4) 0.4052(3) 0.5172(3)
C4 C -0.0934(4) 0.3784(3) 0.4583(3)
H3 H -0.0614 0.4144 0.4160
C5 C -0.0549(4) 0.2979(3) 0.4627(3)
H4 H 0.0045 0.2809 0.4228
C6 C -0.2299(4) 0.4899(3) 0.5156(3)
C7 C -0.3266(4) 0.5953(3) 0.5561(3)
C8 C -0.4036(4) 0.6499(3) 0.6093(3)
C9 C -0.4989(5) 0.6156(3) 0.6561(3)
H5 H -0.5144 0.5594 0.6534
C10 C -0.5710(5) 0.6664(4) 0.7071(4)
H6 H -0.6336 0.6421 0.7394
C11 C -0.4649(5) 0.7787(3) 0.6690(3)
H7 H -0.4526 0.8351 0.6723
C12 C -0.3844(4) 0.7337(3) 0.6177(3)
H8 H -0.3190 0.7593 0.5894
C13 C -0.2910(5) 0.6824(3) 0.4109(3)
H9 H -0.3389 0.7252 0.4385
H10 H -0.2053 0.7040 0.4020
C14 C -0.5185(4) 0.6066(3) 0.2192(3)
H11 H -0.5990 0.5829 0.1917
C15 C -0.3266(4) 0.6540(2) 0.2325(3)
H12 H -0.2439 0.6709 0.2204
C16 C 0.2013(4) 0.0914(2) 0.5540(3)
C17 C 0.6934(4) 0.0778(3) 0.5672(3)
C18 C 0.5737(3) 0.0629(3) 0.6143(3)
C19 C 0.5856(4) 0.0202(3) 0.7011(3)
H13 H 0.6691 0.0032 0.7322
C20 C 0.4741(4) 0.0024(3) 0.7423(3)
H14 H 0.4831 -0.0251 0.8015
C21 C 0.3504(4) 0.0257(2) 0.6952(3)
H15 H 0.2755 0.0125 0.7219
C22 C 0.3361(3) 0.0689(2) 0.6081(3)
C23 C 0.4487(4) 0.0870(2) 0.5685(3)
H16 H 0.4400 0.1159 0.5102
N1 N -0.0975(3) 0.2423(2) 0.5208(2)
N2 N -0.3000(3) 0.5181(2) 0.5831(2)
N3 N -0.2092(3) 0.5445(2) 0.4491(2)
N4 N -0.2721(3) 0.6121(2) 0.4766(2)
N5 N -0.5579(4) 0.7471(3) 0.7137(3)
N6 N -0.3652(3) 0.6569(2) 0.3181(2)
N7 N -0.4901(4) 0.6259(3) 0.3112(3)
N8 N -0.4215(3) 0.6238(2) 0.1671(2)
O1 O 0.1049(2) 0.04543(17) 0.56944(19)
O2 O 0.1858(2) 0.15139(18) 0.4995(2)
O3 O 0.6798(2) 0.11066(19) 0.4856(2)
O4 O 0.8057(2) 0.0560(2) 0.6129(2)
Cd1A Cd -0.41731(3) 0.600438(18) 0.00752(2)
Cd1B Cd 0.08269(3) -0.100438(18) 0.50752(2)
Cd1_2 Cd 0.91731(3) 0.100438(18) 0.49248(2)
N8A N -0.0785(3) 0.1238(2) 0.3329(2)
O1B O -0.1049(2) -0.04543(17) 0.43056(19)
O3_2 O -0.3202(2) 0.11066(19) 0.4856(2)
O4_2 O -0.1943(2) 0.0560(2) 0.6129(2)
loop_
_geom_bond_atom_site_label_1
_geom_bond_atom_site_label_2
_geom_bond_site_symmetry_1
_geom_bond_site_symmetry_2
Cd1 N1 1_555 1_555
C1 H1 1_555 1_555
C2 C1 1_555 1_555
H2 C2 1_555 1_555
C3 C2 1_555 1_555
C4 C3 1_555 1_555
H3 C4 1_555 1_555
C5 C4 1_555 1_555
H4 C5 1_555 1_555
C6 C3 1_555 1_555
C7 C8 1_555 1_555
C8 C9 1_555 1_555
C9 H5 1_555 1_555
C10 C9 1_555 1_555
H6 C10 1_555 1_555
C11 H7 1_555 1_555
C12 C8 1_555 1_555
H8 C12 1_555 1_555
C13 H9 1_555 1_555
H10 C13 1_555 1_555
C14 H11 1_555 1_555
C15 H12 1_555 1_555
C16 C22 1_555 1_555
C17 C18 1_555 1_555
C18 C19 1_555 1_555
C19 H13 1_555 1_555
C20 C19 1_555 1_555
H14 C20 1_555 1_555
C21 C20 1_555 1_555
H15 C21 1_555 1_555
C22 C21 1_555 1_555
C23 C18 1_555 1_555
H16 C23 1_555 1_555
N1 C1 1_555 1_555
N2 C6 1_555 1_555
N3 C6 1_555 1_555
N4 C7 1_555 1_555
N5 C10 1_555 1_555
N6 C13 1_555 1_555
N7 C14 1_555 1_555
N8 C14 1_555 1_555
O1 Cd1 1_555 1_555
O2 C16 1_555 1_555
O3 C17 1_555 1_555
O4 C17 1_555 1_555
Cd1A N8 1_555 1_555
Cd1B O1 1_555 1_555
Cd1_2 O3 1_555 1_555
N8A Cd1 1_555 1_555
O1B Cd1 1_555 1_555
O3_2 Cd1 1_555 1_555
O4_2 Cd1 1_555 1_555
C5 N1 1_555 1_555
C7 N2 1_555 1_555
C11 C12 1_555 1_555
C11 N5 1_555 1_555
C13 N4 1_555 1_555
C15 N6 1_555 1_555
C15 N8 1_555 1_555
C16 O1 1_555 1_555
C22 C23 1_555 1_555
N3 N4 1_555 1_555
N6 N7 1_555 1_555
O4 Cd1_2 1_555 1_555
Cd1B O1B 1_555 1_555

#END
