
#######################################################################
#
#                 Cambridge Crystallographic Data Centre
#                                CCDC 
#
#######################################################################
#
# If this CIF has been generated from an entry in the Cambridge 
# Structural Database, then it will include bibliographic, chemical, 
# crystal, experimental, refinement or atomic coordinate data resulting 
# from the CCDC's data processing and validation procedures.
#
#######################################################################

data_GERMAT
_symmetry_cell_setting           orthorhombic
_symmetry_space_group_name_H-M   'P b c n'
_symmetry_Int_Tables_number      60
_space_group_name_Hall           '-P 2n 2ab'
loop_
_symmetry_equiv_pos_site_id
_symmetry_equiv_pos_as_xyz
1 x,y,z
2 1/2-x,1/2-y,1/2+z
3 1/2+x,1/2-y,-z
4 -x,y,1/2-z
5 -x,-y,-z
6 1/2+x,1/2+y,1/2-z
7 1/2-x,1/2+y,z
8 x,-y,1/2+z
_cell_length_a                   8.0773(3)
_cell_length_b                   21.0490(7)
_cell_length_c                   34.7351(15)
_cell_angle_alpha                90
_cell_angle_beta                 90
_cell_angle_gamma                90
_cell_volume                     5905.63
loop_
_atom_site_label
_atom_site_type_symbol
_atom_site_fract_x
_atom_site_fract_y
_atom_site_fract_z
Cd1 Cd 0.19551(5) 0.161065(17) 0.528326(12)
C1 C 0.3836(9) 0.5155(3) 0.54766(18)
H1 H 0.3276 0.5113 0.5244
C2 C 0.4397(8) 0.4615(3) 0.56516(18)
H2 H 0.4246 0.4221 0.5536
C3 C 0.5184(7) 0.4662(2) 0.59990(16)
C4 C 0.5419(8) 0.5258(3) 0.61494(18)
H3 H 0.5966 0.5311 0.6383
C5 C 0.4841(8) 0.5774(3) 0.59517(18)
H4 H 0.5018 0.6174 0.6057
C6 C 0.5775(7) 0.4086(3) 0.61980(17)
C7 C 0.6587(7) 0.3462(3) 0.66313(17)
C8 C 0.7021(8) 0.3191(3) 0.70083(18)
C9 C 0.7645(12) 0.3588(4) 0.7287(2)
H5 H 0.7802 0.4018 0.7238
C10 C 0.8035(13) 0.3325(5) 0.7644(2)
H6 H 0.8464 0.3594 0.7831
C11 C 0.7239(12) 0.2359(5) 0.7466(3)
H7 H 0.7100 0.1931 0.7523
C12 C 0.6792(9) 0.2563(4) 0.7102(2)
H8 H 0.6345 0.2280 0.6924
C13 C 0.7411(7) 0.2573(3) 0.61590(19)
H9 H 0.8180 0.2664 0.5952
H10 H 0.8034 0.2390 0.6370
C14 C 0.5517(8) 0.2061(3) 0.56837(18)
H11 H 0.5823 0.2298 0.5469
C15 C 0.4375(9) 0.1429(3) 0.6050(2)
H12 H 0.3681 0.1108 0.6138
C16 C 0.3842(7) 0.1291(3) 0.46494(16)
C17 C 0.6287(7) 0.2248(2) 0.43481(17)
C18 C 0.5980(6) 0.1622(2) 0.41556(15)
C19 C 0.4895(7) 0.1165(2) 0.43049(15)
C20 C 0.4684(7) 0.0595(2) 0.41057(18)
H13 H 0.3968 0.0287 0.4202
C21 C 0.5525(8) 0.0483(3) 0.37682(18)
H14 H 0.5368 0.0102 0.3637
C22 C 0.6586(8) 0.0927(3) 0.36249(19)
H15 H 0.7162 0.0846 0.3398
C23 C 0.6809(7) 0.1496(3) 0.38151(17)
H16 H 0.7524 0.1799 0.3713
N1 N 0.4043(6) 0.5738(2) 0.56189(13)
N2 N 0.6053(6) 0.4048(2) 0.65801(14)
N3 N 0.6120(6) 0.3566(2) 0.60055(13)
N4 N 0.6649(6) 0.3165(2) 0.62865(14)
N5 N 0.7835(10) 0.2720(5) 0.7734(2)
N6 N 0.6195(6) 0.2120(2) 0.60271(14)
N7 N 0.5430(7) 0.1717(3) 0.62756(16)
N8 N 0.4362(6) 0.1627(2) 0.56831(15)
O1 O 0.3392(5) 0.18458(19) 0.47210(11)
O2 O 0.3389(6) 0.0835(2) 0.48562(14)
O3 O 0.6904(5) 0.22662(18) 0.46814(12)
O4 O 0.5988(5) 0.27434(17) 0.41610(12)
O6 O -0.0789(6) 0.1550(2) 0.50584(17)
H19 H -0.1465 0.1815 0.4952
H20 H -0.0899 0.1201 0.4935
Cd1B Cd 0.69551(5) 0.338935(17) 0.471674(12)
Cd1F Cd 0.30449(5) 0.661065(17) 0.528326(12)
C17B C 0.1287(7) 0.2752(2) 0.56519(17)
N1F N 0.0957(6) 0.0738(2) 0.56189(13)
O3B O 0.1904(5) 0.27338(18) 0.53186(12)
O4B O 0.0988(5) 0.22566(17) 0.58390(12)
O5 O 0.3185(7) -0.0579(3) 0.47426(16)
H17 H 0.4167 -0.0730 0.4719
H18 H 0.3279 -0.0192 0.4805
O7 O 0.9213(7) 0.2029(2) 0.83591(14)
H21 H 0.8766 0.2257 0.8186
H22 H 0.9746 0.1734 0.8247
O8 O 0.4367(11) 0.4870(3) 0.71316(19)
H23 H 0.5449 0.5115 0.7080
H24 H 0.4422 0.4488 0.7047
O9 O 0.7368(16) 0.0834(6) 0.8137(4)
H25 H 0.8364 0.0890 0.8065
H26 H 0.6942 0.0555 0.7991
O10 O 1.0836(18) 0.1112(5) 0.7936(4)
H27 H 1.0836 0.0966 0.7727
H28 H 1.1905 0.0946 0.8034
O11 O 1.396(3) 0.0693(9) 0.7993(6)
H29 H 1.4785 0.0850 0.8105
H30 H 1.3894 0.0845 0.7768
O12 O 1.589(4) -0.0020(11) 0.7717(7)
H31 H 1.4984 0.0124 0.7750
H32 H 1.5727 -0.0335 0.7529
loop_
_geom_bond_atom_site_label_1
_geom_bond_atom_site_label_2
_geom_bond_site_symmetry_1
_geom_bond_site_symmetry_2
Cd1 N8 1_555 1_555
C1 H1 1_555 1_555
C2 C1 1_555 1_555
H2 C2 1_555 1_555
C3 C2 1_555 1_555
C4 C3 1_555 1_555
H3 C4 1_555 1_555
C5 C4 1_555 1_555
H4 C5 1_555 1_555
C6 C3 1_555 1_555
C7 C8 1_555 1_555
C8 C9 1_555 1_555
C9 H5 1_555 1_555
C10 C9 1_555 1_555
H6 C10 1_555 1_555
C11 H7 1_555 1_555
C12 C8 1_555 1_555
H8 C12 1_555 1_555
C13 H9 1_555 1_555
H10 C13 1_555 1_555
C14 H11 1_555 1_555
C15 H12 1_555 1_555
C16 C19 1_555 1_555
C17 C18 1_555 1_555
C18 C19 1_555 1_555
C19 C20 1_555 1_555
C20 H13 1_555 1_555
C21 C20 1_555 1_555
H14 C21 1_555 1_555
C22 C21 1_555 1_555
H15 C22 1_555 1_555
C23 C18 1_555 1_555
H16 C23 1_555 1_555
N1 C1 1_555 1_555
N2 C6 1_555 1_555
N3 C6 1_555 1_555
N4 C7 1_555 1_555
N5 C10 1_555 1_555
N6 C13 1_555 1_555
N7 C15 1_555 1_555
N8 C14 1_555 1_555
O1 Cd1 1_555 1_555
O2 Cd1 1_555 1_555
O3 C17 1_555 1_555
O4 C17 1_555 1_555
O5 H17 1_555 1_555
H18 O5 1_555 1_555
O6 Cd1 1_555 1_555
H19 O6 1_555 1_555
H20 O6 1_555 1_555
O7 H21 1_555 1_555
H22 O7 1_555 1_555
O8 H23 1_555 1_555
H24 O8 1_555 1_555
O9 H25 1_555 1_555
H26 O9 1_555 1_555
O10 H27 1_555 1_555
H28 O10 1_555 1_555
O11 H29 1_555 1_555
H30 O11 1_555 1_555
O12 H31 1_555 1_555
H32 O12 1_555 1_555
Cd1B O3 1_555 1_555
Cd1F N1 1_555 1_555
C17B O3B 1_555 1_555
N1F Cd1 1_555 1_555
O3B Cd1 1_555 1_555
O4B Cd1 1_555 1_555
C5 N1 1_555 1_555
C7 N2 1_555 1_555
C11 C12 1_555 1_555
C11 N5 1_555 1_555
C13 N4 1_555 1_555
C14 N6 1_555 1_555
C15 N8 1_555 1_555
C16 O1 1_555 1_555
C16 O2 1_555 1_555
C22 C23 1_555 1_555
N3 N4 1_555 1_555
N6 N7 1_555 1_555
O4 Cd1B 1_555 1_555
C17B O4B 1_555 1_555

#END
