
#######################################################################
#
#                 Cambridge Crystallographic Data Centre
#                                CCDC 
#
#######################################################################
#
# If this CIF has been generated from an entry in the Cambridge 
# Structural Database, then it will include bibliographic, chemical, 
# crystal, experimental, refinement or atomic coordinate data resulting 
# from the CCDC's data processing and validation procedures.
#
#######################################################################

data_GERPID01
_symmetry_cell_setting           triclinic
_symmetry_space_group_name_H-M   'P -1'
_symmetry_Int_Tables_number      2
_space_group_name_Hall           '-P 1'
loop_
_symmetry_equiv_pos_site_id
_symmetry_equiv_pos_as_xyz
1 x,y,z
2 -x,-y,-z
_cell_length_a                   7.7085(3)
_cell_length_b                   8.8712(5)
_cell_length_c                   10.7317(6)
_cell_angle_alpha                80.690(5)
_cell_angle_beta                 69.966(5)
_cell_angle_gamma                78.027(4)
_cell_volume                     671.174
loop_
_atom_site_label
_atom_site_type_symbol
_atom_site_fract_x
_atom_site_fract_y
_atom_site_fract_z
Zn1 Zn 0.31418(3) 0.36968(3) 0.21922(3)
O1 O 0.2245(3) 0.5297(2) 0.08621(19)
O2 O 0.56869(19) 0.28912(17) 0.10355(15)
O3 O 0.6201(2) 0.14980(18) 0.28286(16)
O4 O 0.9423(2) 0.36066(17) 0.14034(18)
O5 O 1.1904(2) 0.20583(17) 0.18062(16)
N1 N 0.3563(2) 0.5617(2) 0.30100(19)
N2 N 0.2090(2) 0.3130(2) 0.42409(18)
C1 C 0.4268(3) 0.6874(3) 0.2309(2)
H1 H 0.4655 0.6941 0.1384
C2 C 0.4440(3) 0.8073(3) 0.2918(3)
H2 H 0.4925 0.8935 0.2410
C3 C 0.3879(3) 0.7966(3) 0.4290(2)
H3 H 0.4011 0.8744 0.4721
C4 C 0.3121(3) 0.6695(2) 0.5019(2)
H4 H 0.2719 0.6613 0.5945
C5 C 0.2965(3) 0.5533(2) 0.4347(2)
C6 C 0.2150(3) 0.4126(2) 0.5043(2)
C7 C 0.1495(3) 0.3828(2) 0.6420(2)
H5 H 0.1501 0.4543 0.6964
C8 C 0.0837(3) 0.2459(3) 0.6971(2)
H6 H 0.0397 0.2240 0.7892
C9 C 0.0834(3) 0.1412(3) 0.6145(2)
H7 H 0.0426 0.0470 0.6496
C10 C 0.1454(3) 0.1806(2) 0.4786(2)
H8 H 0.1427 0.1120 0.4225
C11 C 0.6661(3) 0.1862(2) 0.1634(2)
C12 C 0.8420(3) 0.0972(2) 0.0731(2)
C13 C 1.0219(3) 0.1087(2) 0.0731(2)
C14 C 0.8239(3) -0.0102(2) -0.0006(2)
H9 H 0.7054 -0.0165 -0.0016
C15 C 1.0507(3) 0.2353(2) 0.1382(2)
H10 H 0.292(4) 0.590(4) 0.019(3)
H11 H 0.146(4) 0.507(3) 0.068(3)
Zn1A Zn 1.68582(3) -0.36968(3) -0.21922(3)
Zn1_2 Zn 1.31418(3) 0.36968(3) 0.21922(3)
Zn1A_2 Zn 0.68582(3) -0.36968(3) -0.21922(3)
O1A O 1.7755(3) -0.5297(2) -0.08621(19)
O2A O 1.43131(19) -0.28912(17) -0.10355(15)
O3A O 1.3799(2) -0.14980(18) -0.28286(16)
O4A O 1.0577(2) -0.36066(17) -0.14034(18)
O5A O 0.8096(2) -0.20583(17) -0.18062(16)
O5_2 O 0.1904(2) 0.20583(17) 0.18062(16)
O5A_2 O 1.8096(2) -0.20583(17) -0.18062(16)
N1A N 1.6437(2) -0.5617(2) -0.30100(19)
N2A N 1.7910(2) -0.3130(2) -0.42409(18)
C1A C 1.5732(3) -0.6874(3) -0.2309(2)
H1A H 1.5345 -0.6941 -0.1384
C2A C 1.5560(3) -0.8073(3) -0.2918(3)
H2A H 1.5075 -0.8935 -0.2410
C3A C 1.6121(3) -0.7966(3) -0.4290(2)
H3A H 1.5989 -0.8744 -0.4721
C4A C 1.6879(3) -0.6695(2) -0.5019(2)
H4A H 1.7281 -0.6613 -0.5945
C5A C 1.7035(3) -0.5533(2) -0.4347(2)
C6A C 1.7850(3) -0.4126(2) -0.5043(2)
C7A C 1.8505(3) -0.3828(2) -0.6420(2)
H5A H 1.8499 -0.4543 -0.6964
C8A C 1.9163(3) -0.2459(3) -0.6971(2)
H6A H 1.9603 -0.2240 -0.7892
C9A C 1.9166(3) -0.1412(3) -0.6145(2)
H7A H 1.9574 -0.0470 -0.6496
C10A C 1.8546(3) -0.1806(2) -0.4786(2)
H8A H 1.8573 -0.1120 -0.4225
C11A C 1.3339(3) -0.1862(2) -0.1634(2)
C12A C 1.1580(3) -0.0972(2) -0.0731(2)
C13A C 0.9781(3) -0.1087(2) -0.0731(2)
C14A C 1.1761(3) 0.0102(2) 0.0006(2)
H9A H 1.2946 0.0165 0.0016
C15A C 0.9493(3) -0.2353(2) -0.1382(2)
H10A H 1.708(4) -0.590(4) -0.019(3)
H11A H 1.854(4) -0.507(3) -0.068(3)
loop_
_geom_bond_atom_site_label_1
_geom_bond_atom_site_label_2
_geom_bond_site_symmetry_1
_geom_bond_site_symmetry_2
Zn1 O1 1_555 1_555
O1 H10 1_555 1_555
O2 Zn1 1_555 1_555
O3 C11 1_555 1_555
O4 C15 1_555 1_555
O5 C15 1_555 1_555
N1 Zn1 1_555 1_555
N2 Zn1 1_555 1_555
C1 N1 1_555 1_555
H1 C1 1_555 1_555
C2 C1 1_555 1_555
H2 C2 1_555 1_555
C3 C2 1_555 1_555
H3 C3 1_555 1_555
C4 C3 1_555 1_555
H4 C4 1_555 1_555
C5 N1 1_555 1_555
C6 N2 1_555 1_555
C7 C6 1_555 1_555
H5 C7 1_555 1_555
C8 C7 1_555 1_555
H6 C8 1_555 1_555
C9 C8 1_555 1_555
H7 C9 1_555 1_555
C10 N2 1_555 1_555
H8 C10 1_555 1_555
C11 O2 1_555 1_555
C12 C11 1_555 1_555
C13 C12 1_555 1_555
C14 C12 1_555 1_555
H9 C14 1_555 1_555
C15 C13 1_555 1_555
H11 O1 1_555 1_555
Zn1A O1A 1_555 1_555
Zn1_2 O5 1_555 1_555
Zn1A_2 O5A 1_555 1_555
O1A H10A 1_555 1_555
O2A Zn1A 1_555 1_555
O3A C11A 1_555 1_555
O4A C15A 1_555 1_555
O5A C15A 1_555 1_555
O5_2 Zn1 1_555 1_555
O5A_2 Zn1A 1_555 1_555
N1A Zn1A 1_555 1_555
N2A Zn1A 1_555 1_555
C1A N1A 1_555 1_555
H1A C1A 1_555 1_555
C2A C1A 1_555 1_555
H2A C2A 1_555 1_555
C3A C2A 1_555 1_555
H3A C3A 1_555 1_555
C4A C3A 1_555 1_555
H4A C4A 1_555 1_555
C5A N1A 1_555 1_555
C6A N2A 1_555 1_555
C7A C6A 1_555 1_555
H5A C7A 1_555 1_555
C8A C7A 1_555 1_555
H6A C8A 1_555 1_555
C9A C8A 1_555 1_555
H7A C9A 1_555 1_555
C10A N2A 1_555 1_555
H8A C10A 1_555 1_555
C11A O2A 1_555 1_555
C12A C11A 1_555 1_555
C13A C14 1_555 1_555
C14A C13 1_555 1_555
H9A C14A 1_555 1_555
C15A C13A 1_555 1_555
H11A O1A 1_555 1_555
C4 C5 1_555 1_555
C5 C6 1_555 1_555
C9 C10 1_555 1_555
C4A C5A 1_555 1_555
C5A C6A 1_555 1_555
C9A C10A 1_555 1_555
C12A C13A 1_555 1_555
C12A C14A 1_555 1_555

#END
