
#######################################################################
#
#                 Cambridge Crystallographic Data Centre
#                                CCDC 
#
#######################################################################
#
# If this CIF has been generated from an entry in the Cambridge 
# Structural Database, then it will include bibliographic, chemical, 
# crystal, experimental, refinement or atomic coordinate data resulting 
# from the CCDC's data processing and validation procedures.
#
#######################################################################

data_GERVOQ
_symmetry_cell_setting           triclinic
_symmetry_space_group_name_H-M   'P -1'
_symmetry_Int_Tables_number      2
_space_group_name_Hall           '-P 1'
loop_
_symmetry_equiv_pos_site_id
_symmetry_equiv_pos_as_xyz
1 x,y,z
2 -x,-y,-z
_cell_length_a                   7.4898(5)
_cell_length_b                   13.8229(9)
_cell_length_c                   28.8356(19)
_cell_angle_alpha                77.0230(10)
_cell_angle_beta                 84.6130(10)
_cell_angle_gamma                79.4350(10)
_cell_volume                     2855.48
loop_
_atom_site_label
_atom_site_type_symbol
_atom_site_fract_x
_atom_site_fract_y
_atom_site_fract_z
Pr1 Pr 0.94548(8) -0.15544(4) 0.10061(2)
Pr2 Pr 0.55233(8) 0.65189(4) 0.39764(2)
Cu1 Cu 0.48687(17) 0.81761(9) 0.57268(4)
Cu2 Cu 0.7311(2) 0.25065(11) 0.25063(5)
Cu3 Cu -0.02562(18) 0.31039(9) 0.07597(4)
O1 O 0.5784(11) 0.7347(6) 0.3039(3)
H1 H 0.5895 0.7873 0.3133
H2 H 0.4654 0.7337 0.3036
O2 O 0.7590(11) 0.7868(6) 0.3707(3)
H3 H 0.8241 0.7377 0.3607
H4 H 0.8039 0.7919 0.3959
O3 O 0.2631(10) 0.7583(5) 0.3686(2)
H5 H 0.2033 0.7442 0.3481
H6 H 0.1965 0.8051 0.3800
O4 O 0.5676(10) 0.4672(5) 0.4380(2)
H7 H 0.5951 0.4104 0.4301
H8 H 0.6355 0.4668 0.4601
O5 O 0.7274(9) 0.6185(5) 0.4686(2)
H9 H 0.7223 0.6585 0.4874
H10 H 0.8390 0.5965 0.4628
O6 O 0.3056(9) 0.6147(5) 0.4656(2)
H11 H 0.2558 0.6754 0.4648
H12 H 0.2382 0.5885 0.4515
O7 O 1.2427(10) -0.2496(5) 0.1326(2)
H13 H 1.1796 -0.2690 0.1580
H14 H 1.2833 -0.3007 0.1206
O8 O 1.1968(9) -0.1148(5) 0.0355(2)
H15 H 1.2787 -0.0981 0.0492
H16 H 1.2358 -0.1736 0.0306
O9 O 0.7595(10) -0.1278(5) 0.0326(3)
H17 H 0.8093 -0.1707 0.0164
H18 H 0.6512 -0.1070 0.0241
O10 O 0.7599(10) -0.2925(5) 0.1367(3)
H19 H 0.8654 -0.3037 0.1233
H20 H 0.6849 -0.3065 0.1198
O11 O -0.2648(10) 0.2162(5) 0.0889(2)
H21 H -0.3516 0.2357 0.1076
H22 H -0.3060 0.2263 0.0614
O12 O 0.2584(9) 0.7174(5) 0.5914(3)
H23 H 0.2147 0.7277 0.5642
H24 H 0.1932 0.7578 0.6069
O13 O -0.0741(10) 1.2421(5) 0.4951(3)
O14 O 0.0133(10) 1.1800(5) 0.5699(3)
O15 O 0.4562(10) 0.8033(5) 0.4370(2)
O16 O 0.5427(9) 0.7693(5) 0.5129(2)
O17 O 0.8450(10) 0.5621(5) 0.3732(3)
O18 O 1.0350(10) 0.5338(6) 0.4319(3)
O19 O 1.4242(11) 0.1489(5) 0.2994(3)
O20 O 1.5229(10) 0.1204(5) 0.3726(2)
O21 O 0.4441(10) 0.5571(5) 0.3476(3)
O22 O 0.2103(10) 0.6505(5) 0.3068(2)
O23 O 0.6444(10) 0.2589(5) 0.1892(2)
O24 O 0.4727(11) 0.3606(6) 0.1339(3)
O25 O 0.9772(11) 0.1187(6) 0.3676(3)
O26 O 0.8180(10) 0.2328(5) 0.3135(2)
O27 O 0.9466(10) -0.1807(5) 0.1946(2)
O28 O 1.0271(10) -0.0439(5) 0.1491(2)
O29 O -0.0509(10) 0.3650(5) 0.1335(2)
O30 O 0.0216(10) 0.3244(6) 0.2099(2)
O31 O 0.4627(10) -0.0311(6) 0.0667(3)
O32 O 0.6398(10) -0.0682(5) 0.1275(2)
O33 O 1.0482(10) -0.3053(5) 0.0603(2)
O34 O 0.9647(10) -0.2668(5) -0.0153(2)
O35 O 1.5678(10) -0.7407(5) -0.0014(3)
O36 O 1.4814(10) -0.6762(6) -0.0763(3)
N1 N 0.3364(11) 0.9324(6) 0.5314(3)
N2 N 1.3307(11) 0.2844(6) 0.3905(3)
N3 N 0.8614(11) 0.1141(6) 0.2540(3)
N4 N 0.5712(11) 0.3818(6) 0.2476(3)
N5 N 0.1506(11) 0.2055(6) 0.1135(3)
N6 N 1.1690(11) -0.4283(6) -0.0356(3)
C1 C 0.2367(13) 1.0141(7) 0.5439(4)
H25 H 0.2313 1.0208 0.5754
C2 C 0.1400(14) 1.0898(7) 0.5101(4)
C3 C 0.1490(14) 1.0785(8) 0.4628(4)
H26 H 0.0857 1.1282 0.4400
C4 C 0.2514(13) 0.9937(7) 0.4498(4)
H27 H 0.2598 0.9855 0.4185
C5 C 0.3421(13) 0.9209(7) 0.4857(3)
C6 C 0.0151(14) 1.1785(8) 0.5264(4)
C7 C 0.4546(14) 0.8244(7) 0.4763(4)
C8 C 0.5298(13) 0.4397(7) 0.2797(3)
H28 H 0.5884 0.4203 0.3082
C9 C 0.4051(14) 0.5263(7) 0.2724(3)
C10 C 0.3221(15) 0.5575(8) 0.2297(3)
H29 H 0.2380 0.6167 0.2238
C11 C 0.3660(14) 0.4995(8) 0.1962(3)
H30 H 0.3129 0.5192 0.1670
C12 C 0.4894(14) 0.4117(8) 0.2064(4)
C13 C 0.3490(14) 0.5838(8) 0.3119(3)
C14 C 0.5370(15) 0.3406(8) 0.1732(4)
C15 C 1.2306(14) 0.3657(8) 0.4032(4)
H31 H 1.2542 0.3818 0.4314
C16 C 1.0929(13) 0.4274(7) 0.3761(4)
C17 C 1.0647(14) 0.4053(8) 0.3329(4)
H32 H 0.9753 0.4457 0.3136
C18 C 1.1710(14) 0.3227(7) 0.3190(4)
H33 H 1.1530 0.3065 0.2904
C19 C 1.3033(14) 0.2649(7) 0.3479(3)
C20 C 0.9845(15) 0.5147(8) 0.3944(4)
C21 C 1.0319(15) -0.0848(8) 0.2728(3)
H34 H 1.0861 -0.1521 0.2798
C22 C 1.0154(15) -0.0255(8) 0.3066(3)
H35 H 1.0610 -0.0532 0.3364
C23 C 0.9330(14) 0.0731(7) 0.2964(3)
C24 C 0.8803(14) 0.0585(7) 0.2213(3)
H36 H 0.8338 0.0877 0.1917
C25 C 0.9663(14) -0.0410(7) 0.2293(3)
C26 C 0.9080(14) 0.1468(8) 0.3287(4)
C27 C 0.9812(13) -0.0930(8) 0.1891(3)
C28 C 1.4249(15) 0.1701(8) 0.3379(4)
C29 C 0.1618(14) 0.2169(8) 0.1586(4)
C30 C 0.2812(14) 0.1527(7) 0.1891(4)
H37 H 0.2851 0.1609 0.2201
C31 C 0.3977(15) 0.0744(8) 0.1728(4)
H38 H 0.4831 0.0314 0.1926
C32 C 0.3852(14) 0.0613(8) 0.1273(4)
C33 C 0.2581(13) 0.1276(8) 0.0994(4)
H39 H 0.2461 0.1178 0.0690
C34 C 0.0363(14) 0.3099(8) 0.1701(4)
C35 C 0.5047(14) -0.0202(8) 0.1057(4)
C36 C 1.1602(13) -0.4217(8) 0.0109(3)
C37 C 1.2420(13) -0.4969(7) 0.0460(3)
H40 H 1.2315 -0.4907 0.0776
C38 C 1.3403(13) -0.5818(8) 0.0326(4)
H41 H 1.3953 -0.6348 0.0555
C39 C 1.3573(13) -0.5885(8) -0.0156(4)
C40 C 1.2666(13) -0.5103(7) -0.0488(4)
H42 H 1.2737 -0.5149 -0.0806
C41 C 1.0507(14) -0.3239(8) 0.0205(3)
C42 C 1.4768(14) -0.6759(8) -0.0328(4)
O41 O 0.9141(9) 0.0283(5) 0.0597(2)
H51 H 0.8716 0.0682 0.0347
H52 H 0.9063 0.0618 0.0813
Cu1A Cu 1.51313(17) 0.18239(9) 0.42732(4)
Cu3A Cu 1.02562(18) -0.31039(9) -0.07597(4)
O20A O 0.4771(10) 0.8796(5) 0.6274(2)
O34A O 0.0353(10) 0.2668(5) 0.0153(2)
N2A N 0.6693(11) 0.7156(6) 0.6095(3)
N6A N -0.1690(11) 0.4283(6) 0.0356(3)
O37 O 0.5146(14) 0.9387(7) 0.3116(4)
H43 H 0.4711 1.0050 0.3032
H44 H 0.5320 0.9314 0.2781
O38 O 0.8869(10) 0.6619(5) 0.2644(2)
H45 H 0.9835 0.6347 0.2788
H46 H 0.9170 0.6999 0.2385
O39 O 0.4276(12) 0.7974(7) 0.2041(3)
H47 H 0.4878 0.8341 0.1831
H48 H 0.3463 0.7821 0.1898
O40 O 0.8633(13) 0.5393(6) 0.2008(3)
H49 H 0.9230 0.4802 0.2023
H50 H 0.8305 0.5929 0.1803
loop_
_geom_bond_atom_site_label_1
_geom_bond_atom_site_label_2
_geom_bond_site_symmetry_1
_geom_bond_site_symmetry_2
Pr1 O7 1_555 1_555
Pr2 O1 1_555 1_555
Cu1 O12 1_555 1_555
Cu2 O23 1_555 1_555
Cu3 O11 1_555 1_555
O1 H1 1_555 1_555
H2 O1 1_555 1_555
O2 Pr2 1_555 1_555
H3 O2 1_555 1_555
H4 O2 1_555 1_555
O3 Pr2 1_555 1_555
H5 O3 1_555 1_555
H6 O3 1_555 1_555
O4 Pr2 1_555 1_555
H7 O4 1_555 1_555
H8 O4 1_555 1_555
O5 Pr2 1_555 1_555
H9 O5 1_555 1_555
H10 O5 1_555 1_555
O6 Pr2 1_555 1_555
H11 O6 1_555 1_555
H12 O6 1_555 1_555
O7 H13 1_555 1_555
H14 O7 1_555 1_555
O8 Pr1 1_555 1_555
H15 O8 1_555 1_555
H16 O8 1_555 1_555
O9 Pr1 1_555 1_555
H17 O9 1_555 1_555
H18 O9 1_555 1_555
O10 Pr1 1_555 1_555
H19 O10 1_555 1_555
H20 O10 1_555 1_555
O11 H21 1_555 1_555
H22 O11 1_555 1_555
O12 H23 1_555 1_555
H24 O12 1_555 1_555
O13 C6 1_555 1_555
O14 C6 1_555 1_555
O15 Pr2 1_555 1_555
O16 Cu1 1_555 1_555
O17 Pr2 1_555 1_555
O18 C20 1_555 1_555
O19 C28 1_555 1_555
O20 C28 1_555 1_555
O21 Pr2 1_555 1_555
O22 C13 1_555 1_555
O23 C14 1_555 1_555
O24 C14 1_555 1_555
O25 C26 1_555 1_555
O26 Cu2 1_555 1_555
O27 Pr1 1_555 1_555
O28 Pr1 1_555 1_555
O29 Cu3 1_555 1_555
O30 C34 1_555 1_555
O31 C35 1_555 1_555
O32 Pr1 1_555 1_555
O33 Pr1 1_555 1_555
O34 C41 1_555 1_555
O35 C42 1_555 1_555
O36 C42 1_555 1_555
N1 Cu1 1_555 1_555
N2 C15 1_555 1_555
N3 Cu2 1_555 1_555
N4 Cu2 1_555 1_555
N5 Cu3 1_555 1_555
N6 C36 1_555 1_555
C1 N1 1_555 1_555
H25 C1 1_555 1_555
C2 C1 1_555 1_555
C3 C2 1_555 1_555
H26 C3 1_555 1_555
C4 C3 1_555 1_555
H27 C4 1_555 1_555
C5 N1 1_555 1_555
C6 C2 1_555 1_555
C7 O15 1_555 1_555
C8 N4 1_555 1_555
H28 C8 1_555 1_555
C9 C8 1_555 1_555
C10 C9 1_555 1_555
H29 C10 1_555 1_555
C11 C10 1_555 1_555
H30 C11 1_555 1_555
C12 N4 1_555 1_555
C13 O21 1_555 1_555
C14 C12 1_555 1_555
C15 H31 1_555 1_555
C16 C15 1_555 1_555
C17 C16 1_555 1_555
H32 C17 1_555 1_555
C18 C17 1_555 1_555
H33 C18 1_555 1_555
C19 N2 1_555 1_555
C20 O17 1_555 1_555
C21 H34 1_555 1_555
C22 C21 1_555 1_555
H35 C22 1_555 1_555
C23 N3 1_555 1_555
C24 N3 1_555 1_555
H36 C24 1_555 1_555
C25 C21 1_555 1_555
C26 O26 1_555 1_555
C27 O27 1_555 1_555
C28 C19 1_555 1_555
C29 N5 1_555 1_555
C30 C29 1_555 1_555
H37 C30 1_555 1_555
C31 C30 1_555 1_555
H38 C31 1_555 1_555
C32 C31 1_555 1_555
C33 N5 1_555 1_555
H39 C33 1_555 1_555
C34 O29 1_555 1_555
C35 O32 1_555 1_555
C36 C37 1_555 1_555
C37 H40 1_555 1_555
C38 C37 1_555 1_555
H41 C38 1_555 1_555
C39 C38 1_555 1_555
C40 N6 1_555 1_555
H42 C40 1_555 1_555
C41 O33 1_555 1_555
C42 C39 1_555 1_555
O37 H43 1_555 1_555
H44 O37 1_555 1_555
O38 H45 1_555 1_555
H46 O38 1_555 1_555
O39 H47 1_555 1_555
H48 O39 1_555 1_555
O40 H49 1_555 1_555
H50 O40 1_555 1_555
O41 Pr1 1_555 1_555
H51 O41 1_555 1_555
H52 O41 1_555 1_555
Cu1A O20 1_555 1_555
Cu3A O34 1_555 1_555
O20A Cu1 1_555 1_555
O34A Cu3 1_555 1_555
N2A Cu1 1_555 1_555
N6A Cu3 1_555 1_555
O16 C7 1_555 1_555
O28 C27 1_555 1_555
N2 Cu1A 1_555 1_555
N6 Cu3A 1_555 1_555
C4 C5 1_555 1_555
C5 C7 1_555 1_555
C9 C13 1_555 1_555
C11 C12 1_555 1_555
C16 C20 1_555 1_555
C18 C19 1_555 1_555
C22 C23 1_555 1_555
C23 C26 1_555 1_555
C24 C25 1_555 1_555
C25 C27 1_555 1_555
C29 C34 1_555 1_555
C32 C33 1_555 1_555
C32 C35 1_555 1_555
C36 C41 1_555 1_555
C39 C40 1_555 1_555

#END
