
#######################################################################
#
#                 Cambridge Crystallographic Data Centre
#                                CCDC 
#
#######################################################################
#
# If this CIF has been generated from an entry in the Cambridge 
# Structural Database, then it will include bibliographic, chemical, 
# crystal, experimental, refinement or atomic coordinate data resulting 
# from the CCDC's data processing and validation procedures.
#
#######################################################################

data_GESFAN
_symmetry_cell_setting           monoclinic
_symmetry_space_group_name_H-M   'C 2/c'
_symmetry_Int_Tables_number      15
_space_group_name_Hall           '-C 2yn'
loop_
_symmetry_equiv_pos_site_id
_symmetry_equiv_pos_as_xyz
1 x,y,z
2 -x,y,1/2-z
3 1/2+x,1/2+y,z
4 1/2-x,1/2+y,1/2-z
5 -x,-y,-z
6 x,-y,1/2+z
7 1/2-x,1/2-y,-z
8 1/2+x,1/2-y,1/2+z
_cell_length_a                   36.622(10)
_cell_length_b                   13.410(4)
_cell_length_c                   7.948(2)
_cell_angle_alpha                90
_cell_angle_beta                 99.958(5)
_cell_angle_gamma                90
_cell_volume                     3844.47
loop_
_atom_site_label
_atom_site_type_symbol
_atom_site_fract_x
_atom_site_fract_y
_atom_site_fract_z
Ni1 Ni 0.0000 0.0000 0.0000
O1 O 0.25717(6) -0.12429(15) 0.4340(3)
O2 O 0.32111(6) -0.07441(17) 0.5982(3)
O3 O 0.04768(5) 0.06893(16) 0.1071(2)
O4 O 0.06138(6) 0.14686(19) -0.1193(3)
O5 O -0.03037(5) 0.11549(16) 0.0737(2)
H1 H -0.0160 0.1645 0.1030
H2 H -0.0413 0.0981 0.1611
O6 O 0.0000 0.06255(19) -0.2500
C1 C 0.06951(7) 0.1189(2) 0.0308(3)
C2 C 0.10701(7) 0.1439(2) 0.1299(3)
C3 C 0.13043(7) 0.2066(2) 0.0604(3)
H3 H 0.1228 0.2326 -0.0485
C4 C 0.16512(7) 0.2313(2) 0.1506(3)
H4 H 0.1804 0.2736 0.1014
C5 C 0.17725(6) 0.1936(2) 0.3133(3)
C6 C 0.15380(7) 0.1299(2) 0.3815(4)
H5 H 0.1615 0.1033 0.4900
C7 C 0.11901(7) 0.1048(2) 0.2914(4)
H6 H 0.1038 0.0618 0.3396
C8 C 0.19502(7) 0.3995(2) 0.4109(4)
H7 H 0.1714 0.3819 0.3556
C9 C 0.22202(7) 0.3230(2) 0.4558(3)
C10 C 0.21465(6) 0.2225(2) 0.4094(3)
C11 C 0.24230(7) 0.1496(2) 0.4530(3)
C12 C 0.23605(7) 0.0460(2) 0.4102(3)
H8 H 0.2136 0.0272 0.3444
C13 C 0.22127(9) -0.1571(2) 0.3545(4)
H9 H 0.2152 -0.1280 0.2428
H10 H 0.2033 -0.1370 0.4225
H11 H 0.2212 -0.2285 0.3447
C14 C 0.26166(8) -0.0248(2) 0.4622(4)
C15 C 0.29750(8) 0.0039(2) 0.5541(4)
C16 C 0.35541(11) -0.0532(3) 0.7062(6)
H12 H 0.3709 -0.0153 0.6439
H13 H 0.3676 -0.1146 0.7443
H14 H 0.3509 -0.0155 0.8032
Ni1B Ni 0.5000 0.5000 1.0000
Ni1A Ni 0.0000 0.0000 -0.5000
O1F O 0.24283(6) 0.62429(15) 0.5660(3)
O2F O 0.17889(6) 0.57441(17) 0.4018(3)
O3F O 0.45232(5) 0.43107(16) 0.8929(2)
O3D O -0.04768(5) -0.06893(16) -0.1071(2)
O4F O 0.43862(6) 0.35314(19) 1.1193(3)
O5D O 0.03037(5) -0.11549(16) -0.0737(2)
H1D H 0.0160 -0.1645 -0.1030
H2D H 0.0413 -0.0981 -0.1611
O6D O 0.0000 -0.06255(19) 0.2500
C1F C 0.43049(7) 0.3811(2) 0.9692(3)
C2F C 0.39299(7) 0.3561(2) 0.8701(3)
C3F C 0.36957(7) 0.2934(2) 0.9396(3)
H3F H 0.3772 0.2674 1.0485
C4F C 0.33488(7) 0.2687(2) 0.8494(3)
H4F H 0.3196 0.2264 0.8986
C5F C 0.32275(6) 0.3064(2) 0.6867(3)
C6F C 0.34620(7) 0.3701(2) 0.6185(4)
H5F H 0.3385 0.3967 0.5100
C7F C 0.38099(7) 0.3952(2) 0.7086(4)
H6F H 0.3962 0.4382 0.6604
C8F C 0.30498(7) 0.1005(2) 0.5891(4)
H7F H 0.3286 0.1181 0.6444
C9F C 0.27798(7) 0.1770(2) 0.5442(3)
C10F C 0.28535(6) 0.2775(2) 0.5906(3)
C11F C 0.25770(7) 0.3504(2) 0.5470(3)
C12F C 0.26395(7) 0.4540(2) 0.5898(3)
H8F H 0.2864 0.4728 0.6556
C13F C 0.27873(9) 0.6571(2) 0.6455(4)
H9F H 0.2848 0.6280 0.7572
H10F H 0.2967 0.6370 0.5775
H11F H 0.2788 0.7285 0.6553
C14F C 0.23834(8) 0.5248(2) 0.5378(4)
C15F C 0.20250(8) 0.4961(2) 0.4459(4)
C16F C 0.14459(11) 0.5532(3) 0.2938(6)
H12F H 0.1291 0.5153 0.3561
H13F H 0.1324 0.6146 0.2557
H14F H 0.1491 0.5155 0.1968
loop_
_geom_bond_atom_site_label_1
_geom_bond_atom_site_label_2
_geom_bond_site_symmetry_1
_geom_bond_site_symmetry_2
Ni1 O3 1_555 1_555
O1 C13 1_555 1_555
O2 C15 1_555 1_555
O3 C1 1_555 1_555
O4 C1 1_555 1_555
O5 Ni1 1_555 1_555
H1 O5 1_555 1_555
H2 O5 1_555 1_555
O6 Ni1 1_555 1_555
C1 C2 1_555 1_555
C2 C3 1_555 1_555
C3 H3 1_555 1_555
C4 C3 1_555 1_555
H4 C4 1_555 1_555
C5 C4 1_555 1_555
C6 C5 1_555 1_555
H5 C6 1_555 1_555
C7 C2 1_555 1_555
H6 C7 1_555 1_555
C8 H7 1_555 1_555
C9 C8 1_555 1_555
C10 C5 1_555 1_555
C11 C10 1_555 1_555
C12 C11 1_555 1_555
H8 C12 1_555 1_555
C13 H9 1_555 1_555
H10 C13 1_555 1_555
H11 C13 1_555 1_555
C14 O1 1_555 1_555
C15 C14 1_555 1_555
C16 O2 1_555 1_555
H12 C16 1_555 1_555
H13 C16 1_555 1_555
H14 C16 1_555 1_555
Ni1B O3F 1_555 1_555
Ni1A O6 1_555 1_555
O1F C13F 1_555 1_555
O2F C15F 1_555 1_555
O3F C1F 1_555 1_555
O3D Ni1 1_555 1_555
O4F C1F 1_555 1_555
O5D Ni1 1_555 1_555
H1D O5D 1_555 1_555
H2D O5D 1_555 1_555
O6D Ni1 1_555 1_555
C1F C2F 1_555 1_555
C2F C3F 1_555 1_555
C3F H3F 1_555 1_555
C4F C3F 1_555 1_555
H4F C4F 1_555 1_555
C5F C4F 1_555 1_555
C6F C5F 1_555 1_555
H5F C6F 1_555 1_555
C7F C2F 1_555 1_555
H6F C7F 1_555 1_555
C8F C15 1_555 1_555
H7F C8F 1_555 1_555
C9F C11 1_555 1_555
C10F C5F 1_555 1_555
C11F C9 1_555 1_555
C12F C11F 1_555 1_555
H8F C12F 1_555 1_555
C13F H9F 1_555 1_555
H10F C13F 1_555 1_555
H11F C13F 1_555 1_555
C14F O1F 1_555 1_555
C15F C8 1_555 1_555
C16F O2F 1_555 1_555
H12F C16F 1_555 1_555
H13F C16F 1_555 1_555
H14F C16F 1_555 1_555
C6 C7 1_555 1_555
C9 C10 1_555 1_555
C12 C14 1_555 1_555
C6F C7F 1_555 1_555
C8F C9F 1_555 1_555
C9F C10F 1_555 1_555
C10F C11F 1_555 1_555
C12F C14F 1_555 1_555
C14F C15F 1_555 1_555

#END
