
#######################################################################
#
#                 Cambridge Crystallographic Data Centre
#                                CCDC 
#
#######################################################################
#
# If this CIF has been generated from an entry in the Cambridge 
# Structural Database, then it will include bibliographic, chemical, 
# crystal, experimental, refinement or atomic coordinate data resulting 
# from the CCDC's data processing and validation procedures.
#
#######################################################################

data_GESNEY
_symmetry_cell_setting           triclinic
_symmetry_space_group_name_H-M   'P -1'
_symmetry_Int_Tables_number      2
_space_group_name_Hall           '-P 1'
loop_
_symmetry_equiv_pos_site_id
_symmetry_equiv_pos_as_xyz
1 x,y,z
2 -x,-y,-z
_cell_length_a                   14.5784(16)
_cell_length_b                   14.8856(13)
_cell_length_c                   16.3402(17)
_cell_angle_alpha                93.572(2)
_cell_angle_beta                 111.018(3)
_cell_angle_gamma                103.289(4)
_cell_volume                     3180.25
loop_
_atom_site_label
_atom_site_type_symbol
_atom_site_fract_x
_atom_site_fract_y
_atom_site_fract_z
La1 La 0.50576(2) 0.13719(2) 0.49544(2)
La2 La 0.09242(3) -0.08953(2) 0.28875(2)
P1 P 0.35704(11) -0.05495(11) 0.29620(10)
P2 P 0.30316(11) 0.00703(11) 0.50778(10)
S1 S 0.3461(2) -0.27580(18) 0.00910(15)
S2 S 0.05687(15) -0.07883(16) 0.69403(14)
N1 N 0.6235(4) 0.2024(4) 0.3993(4)
N2 N 0.6884(4) 0.2766(4) 0.5737(4)
N3 N 0.4767(4) 0.2802(4) 0.5953(4)
N4 N 0.4409(4) 0.2839(4) 0.4184(4)
N5 N 0.0294(4) -0.0932(4) 0.1121(4)
N6 N -0.1136(4) -0.1572(4) 0.1813(4)
N7 N 0.0511(5) -0.2658(4) 0.2019(4)
N8 N 0.0046(5) -0.2414(4) 0.3469(4)
C1 C 0.3687(4) -0.0625(4) 0.1880(4)
C2 C 0.3591(5) -0.1498(5) 0.1442(4)
H1 H 0.3509 -0.2018 0.1723
C3 C 0.3613(6) -0.1613(5) 0.0610(5)
C4 C 0.3719(7) -0.0836(6) 0.0177(5)
H2 H 0.3724 -0.0903 -0.0391
C5 C 0.3813(7) 0.0024(6) 0.0599(5)
H3 H 0.3900 0.0544 0.0320
C6 C 0.3782(5) 0.0131(5) 0.1434(4)
H4 H 0.3825 0.0719 0.1700
C7 C 0.2879(4) 0.0044(4) 0.6132(4)
C8 C 0.1919(5) -0.0303(5) 0.6149(4)
H5 H 0.1354 -0.0526 0.5619
C9 C 0.1798(5) -0.0320(5) 0.6951(5)
C10 C 0.2624(5) 0.0022(5) 0.7745(5)
H6 H 0.2537 0.0003 0.8281
C11 C 0.3580(5) 0.0391(6) 0.7736(5)
H7 H 0.4141 0.0631 0.8266
C12 C 0.3694(5) 0.0402(5) 0.6935(4)
H8 H 0.4338 0.0658 0.6933
C13 C 0.7218(5) 0.3153(5) 0.6590(5)
H9 H 0.6869 0.2888 0.6932
C14 C 0.8055(6) 0.3928(5) 0.6994(5)
H10 H 0.8232 0.4193 0.7580
C15 C 0.8606(6) 0.4290(5) 0.6521(5)
H11 H 0.9176 0.4800 0.6784
C16 C 0.8320(5) 0.3901(5) 0.5645(6)
C17 C 0.8873(7) 0.4237(7) 0.5110(7)
H12 H 0.9448 0.4745 0.5355
C18 C 0.8589(7) 0.3841(7) 0.4261(7)
H13 H 0.8982 0.4062 0.3939
C19 C 0.7679(6) 0.3080(5) 0.3851(6)
C20 C 0.7347(7) 0.2652(7) 0.2962(6)
H14 H 0.7720 0.2851 0.2619
C21 C 0.6470(7) 0.1941(6) 0.2614(6)
H15 H 0.6226 0.1657 0.2026
C22 C 0.5950(6) 0.1650(5) 0.3158(5)
H16 H 0.5360 0.1157 0.2916
C23 C 0.7106(5) 0.2733(5) 0.4349(5)
C24 C 0.7442(5) 0.3135(4) 0.5264(5)
C25 C 0.4922(5) 0.2795(5) 0.6802(5)
H17 H 0.5192 0.2330 0.7070
C26 C 0.4713(6) 0.3434(5) 0.7325(5)
H18 H 0.4850 0.3403 0.7922
C27 C 0.4302(6) 0.4102(6) 0.6928(6)
H19 H 0.4147 0.4536 0.7256
C28 C 0.4106(5) 0.4142(5) 0.6021(5)
C29 C 0.3692(6) 0.4848(5) 0.5578(6)
H20 H 0.3519 0.5286 0.5885
C30 C 0.3556(6) 0.4878(5) 0.4740(6)
H21 H 0.3302 0.5350 0.4470
C31 C 0.3785(5) 0.4210(5) 0.4230(5)
C32 C 0.3662(6) 0.4243(5) 0.3347(5)
H22 H 0.3423 0.4715 0.3065
C33 C 0.3896(7) 0.3576(5) 0.2889(5)
H23 H 0.3816 0.3590 0.2300
C34 C 0.4254(6) 0.2884(5) 0.3334(5)
H24 H 0.4394 0.2426 0.3020
C35 C 0.4180(5) 0.3504(4) 0.4632(5)
C36 C 0.4361(5) 0.3477(4) 0.5550(5)
C37 C 0.0979(6) -0.0661(6) 0.0762(5)
H25 H 0.1640 -0.0339 0.1140
C38 C 0.0773(6) -0.0825(6) -0.0135(5)
H26 H 0.1291 -0.0636 -0.0344
C39 C -0.0203(7) -0.1269(6) -0.0716(5)
H27 H -0.0363 -0.1377 -0.1324
C40 C -0.0956(6) -0.1556(6) -0.0364(5)
C41 C -0.2000(7) -0.2010(7) -0.0938(6)
H28 H -0.2179 -0.2130 -0.1548
C42 C -0.2717(7) -0.2262(7) -0.0596(6)
H29 H -0.3394 -0.2524 -0.0976
C43 C -0.2456(6) -0.2135(6) 0.0342(5)
C44 C -0.3172(7) -0.2445(7) 0.0715(7)
H30 H -0.3845 -0.2752 0.0356
C45 C -0.2865(6) -0.2287(7) 0.1627(7)
H31 H -0.3332 -0.2469 0.1891
C46 C -0.1848(6) -0.1854(5) 0.2143(5)
H32 H -0.1651 -0.1754 0.2757
C47 C -0.1433(5) -0.1701(5) 0.0920(5)
C48 C -0.0675(5) -0.1393(5) 0.0555(5)
C49 C 0.0799(7) -0.2806(6) 0.1360(6)
H33 H 0.1337 -0.2358 0.1321
C50 C 0.0334(9) -0.3607(8) 0.0714(7)
H34 H 0.0557 -0.3682 0.0254
C51 C -0.0447(10) -0.4275(8) 0.0762(7)
H35 H -0.0777 -0.4802 0.0327
C52 C -0.0747(7) -0.4159(6) 0.1479(6)
C53 C -0.1534(8) -0.4835(7) 0.1607(8)
H36 H -0.1884 -0.5377 0.1191
C54 C -0.1775(8) -0.4712(7) 0.2293(9)
H37 H -0.2306 -0.5158 0.2344
C55 C -0.1238(6) -0.3899(6) 0.2979(7)
C56 C -0.1426(8) -0.3762(7) 0.3749(8)
H38 H -0.1926 -0.4207 0.3843
C57 C -0.0879(9) -0.2978(8) 0.4365(7)
H39 H -0.0992 -0.2887 0.4885
C58 C -0.0151(8) -0.2319(6) 0.4198(6)
H40 H 0.0218 -0.1784 0.4618
C59 C -0.0474(5) -0.3209(5) 0.2870(5)
C60 C -0.0227(6) -0.3330(5) 0.2101(5)
O1 O 0.3931(3) 0.0474(3) 0.3374(3)
O2 O 0.2434(3) -0.0956(3) 0.2713(3)
O3 O 0.4191(3) -0.1151(3) 0.3504(3)
O4 O 0.2624(7) -0.3361(6) 0.0261(8)
O5 O 0.4362(7) -0.3015(6) 0.0561(6)
O6 O 0.3201(13) -0.2738(7) -0.0799(5)
O7 O 0.2027(3) -0.0549(3) 0.4397(3)
O8 O 0.3285(3) 0.1083(3) 0.4942(3)
O9 O 0.3970(3) -0.0268(3) 0.5140(3)
O10 O 0.0111(4) -0.1608(4) 0.6291(5)
O11 O 0.0688(6) -0.0919(8) 0.7825(5)
O12 O 0.0025(4) -0.0082(5) 0.6649(5)
O13 O 0.1915(4) 0.0781(3) 0.2820(3)
La1A La 0.49424(2) -0.13719(2) 0.50456(2)
La2A La -0.09242(3) 0.08953(2) 0.71125(2)
O3A O 0.5809(3) 0.1151(3) 0.6496(3)
O9A O 0.6030(3) 0.0268(3) 0.4860(3)
O12A O -0.0025(4) 0.0082(5) 0.3351(5)
O14 O 0.2792(12) -0.4946(13) 0.1266(11)
O15 O 0.0907(10) -0.2799(11) -0.1599(13)
O16 O 0.4448(17) -0.4960(12) 0.0632(11)
O17 O 0.4520(8) -0.3727(8) -0.1597(7)
O18 O -0.1122(11) -0.3944(9) -0.1620(10)
O19 O -0.1108(16) -0.3447(13) -0.3240(16)
O20 O -0.2008(5) -0.2110(4) -0.4150(5)
loop_
_geom_bond_atom_site_label_1
_geom_bond_atom_site_label_2
_geom_bond_site_symmetry_1
_geom_bond_site_symmetry_2
La1 N1 1_555 1_555
La2 N5 1_555 1_555
P1 C1 1_555 1_555
P2 C7 1_555 1_555
S1 C3 1_555 1_555
S2 C9 1_555 1_555
N1 C22 1_555 1_555
N2 La1 1_555 1_555
N3 La1 1_555 1_555
N4 La1 1_555 1_555
N5 C37 1_555 1_555
N6 La2 1_555 1_555
N7 La2 1_555 1_555
N8 La2 1_555 1_555
C1 C2 1_555 1_555
C2 H1 1_555 1_555
C3 C2 1_555 1_555
C4 C3 1_555 1_555
H2 C4 1_555 1_555
C5 C4 1_555 1_555
H3 C5 1_555 1_555
C6 C1 1_555 1_555
H4 C6 1_555 1_555
C7 C8 1_555 1_555
C8 H5 1_555 1_555
C9 C8 1_555 1_555
C10 C9 1_555 1_555
H6 C10 1_555 1_555
C11 C10 1_555 1_555
H7 C11 1_555 1_555
C12 C7 1_555 1_555
H8 C12 1_555 1_555
C13 N2 1_555 1_555
H9 C13 1_555 1_555
C14 C13 1_555 1_555
H10 C14 1_555 1_555
C15 C14 1_555 1_555
H11 C15 1_555 1_555
C16 C15 1_555 1_555
C17 C16 1_555 1_555
H12 C17 1_555 1_555
C18 C17 1_555 1_555
H13 C18 1_555 1_555
C19 C18 1_555 1_555
C20 C19 1_555 1_555
H14 C20 1_555 1_555
C21 C20 1_555 1_555
H15 C21 1_555 1_555
C22 C21 1_555 1_555
H16 C22 1_555 1_555
C23 N1 1_555 1_555
C24 N2 1_555 1_555
C25 N3 1_555 1_555
H17 C25 1_555 1_555
C26 C25 1_555 1_555
H18 C26 1_555 1_555
C27 C26 1_555 1_555
H19 C27 1_555 1_555
C28 C27 1_555 1_555
C29 C28 1_555 1_555
H20 C29 1_555 1_555
C30 C29 1_555 1_555
H21 C30 1_555 1_555
C31 C30 1_555 1_555
C32 C31 1_555 1_555
H22 C32 1_555 1_555
C33 C32 1_555 1_555
H23 C33 1_555 1_555
C34 N4 1_555 1_555
H24 C34 1_555 1_555
C35 N4 1_555 1_555
C36 N3 1_555 1_555
C37 H25 1_555 1_555
C38 C37 1_555 1_555
H26 C38 1_555 1_555
C39 C38 1_555 1_555
H27 C39 1_555 1_555
C40 C39 1_555 1_555
C41 C40 1_555 1_555
H28 C41 1_555 1_555
C42 C41 1_555 1_555
H29 C42 1_555 1_555
C43 C42 1_555 1_555
C44 C43 1_555 1_555
H30 C44 1_555 1_555
C45 C44 1_555 1_555
H31 C45 1_555 1_555
C46 N6 1_555 1_555
H32 C46 1_555 1_555
C47 N6 1_555 1_555
C48 N5 1_555 1_555
C49 N7 1_555 1_555
H33 C49 1_555 1_555
C50 C49 1_555 1_555
H34 C50 1_555 1_555
C51 C50 1_555 1_555
H35 C51 1_555 1_555
C52 C51 1_555 1_555
C53 C52 1_555 1_555
H36 C53 1_555 1_555
C54 C53 1_555 1_555
H37 C54 1_555 1_555
C55 C54 1_555 1_555
C56 C55 1_555 1_555
H38 C56 1_555 1_555
C57 C56 1_555 1_555
H39 C57 1_555 1_555
C58 N8 1_555 1_555
H40 C58 1_555 1_555
C59 N8 1_555 1_555
C60 N7 1_555 1_555
O1 La1 1_555 1_555
O2 La2 1_555 1_555
O3 P1 1_555 1_555
O4 S1 1_555 1_555
O5 S1 1_555 1_555
O6 S1 1_555 1_555
O7 La2 1_555 1_555
O8 La1 1_555 1_555
O9 La1 1_555 1_555
O10 S2 1_555 1_555
O11 S2 1_555 1_555
O12 S2 1_555 1_555
O13 La2 1_555 1_555
La1A O3 1_555 1_555
La2A O12 1_555 1_555
O3A La1 1_555 1_555
O9A La1 1_555 1_555
O12A La2 1_555 1_555
P1 O1 1_555 1_555
P1 O2 1_555 1_555
P2 O7 1_555 1_555
P2 O8 1_555 1_555
P2 O9 1_555 1_555
C5 C6 1_555 1_555
C11 C12 1_555 1_555
C16 C24 1_555 1_555
C19 C23 1_555 1_555
C23 C24 1_555 1_555
C28 C36 1_555 1_555
C31 C35 1_555 1_555
C33 C34 1_555 1_555
C35 C36 1_555 1_555
C40 C48 1_555 1_555
C43 C47 1_555 1_555
C45 C46 1_555 1_555
C47 C48 1_555 1_555
C52 C60 1_555 1_555
C55 C59 1_555 1_555
C57 C58 1_555 1_555
C59 C60 1_555 1_555
O9 La1A 1_555 1_555
La1A O9A 1_555 1_555

#END
