
#######################################################################
#
#                 Cambridge Crystallographic Data Centre
#                                CCDC 
#
#######################################################################
#
# If this CIF has been generated from an entry in the Cambridge 
# Structural Database, then it will include bibliographic, chemical, 
# crystal, experimental, refinement or atomic coordinate data resulting 
# from the CCDC's data processing and validation procedures.
#
#######################################################################

data_GESTOO
_symmetry_cell_setting           orthorhombic
_symmetry_space_group_name_H-M   'P n a n'
_symmetry_Int_Tables_number      52
_space_group_name_Hall           '-P 2n 2bc'
loop_
_symmetry_equiv_pos_site_id
_symmetry_equiv_pos_as_xyz
1 x,y,z
2 1/2-x,y,-z
3 1/2-x,1/2-y,1/2+z
4 x,1/2-y,1/2-z
5 -x,-y,-z
6 1/2+x,-y,z
7 1/2+x,1/2+y,1/2-z
8 -x,1/2+y,1/2+z
_cell_length_a                   10.9340(10)
_cell_length_b                   14.846(2)
_cell_length_c                   25.624(4)
_cell_angle_alpha                90
_cell_angle_beta                 90
_cell_angle_gamma                90
_cell_volume                     4159.45
loop_
_atom_site_label
_atom_site_type_symbol
_atom_site_fract_x
_atom_site_fract_y
_atom_site_fract_z
Cu1 Cu 0.14764(6) 0.2500 0.7500
N1 N 0.0212(3) 0.1999(3) 0.70111(13)
C1 C 0.0134(5) 0.1136(3) 0.69023(18)
H1 H 0.0680 0.0744 0.7063
C2 C -0.0727(5) 0.0781(4) 0.65579(18)
H2 H -0.0755 0.0165 0.6494
C3 C -0.1528(5) 0.1350(4) 0.63160(16)
C4 C -0.1442(5) 0.2242(3) 0.64210(19)
H3 H -0.1967 0.2649 0.6261
C5 C -0.0570(4) 0.2540(4) 0.67664(18)
H4 H -0.0525 0.3155 0.6833
C6 C -0.2427(4) 0.0990(4) 0.59567(17)
C7 C -0.3168(4) 0.0711(3) 0.56684(17)
C8 C -0.4091(4) 0.0348(4) 0.53257(15)
C9 C -0.4233(4) -0.0579(4) 0.52911(15)
C10 C -0.3483(5) -0.1193(4) 0.55788(19)
H5 H -0.2868 -0.0965 0.5792
C11 C -0.3643(7) -0.2081(5) 0.5550(2)
H6 H -0.3140 -0.2465 0.5740
C12 C -0.4579(7) -0.2443(5) 0.5229(2)
H7 H -0.4697 -0.3063 0.5212
C13 C -0.5307(5) -0.1881(4) 0.4944(2)
H8 H -0.5911 -0.2127 0.4732
C14 C -0.4832(4) 0.0946(4) 0.50363(16)
O1 O 0.2802(3) 0.2103(2) 0.70163(12)
C15 C 0.3564(5) 0.2610(4) 0.68028(17)
C16 C 0.4695(5) 0.2096(5) 0.6609(3)
F1 F 0.4373(4) 0.1483(2) 0.62591(15)
F2 F 0.5511(4) 0.2612(3) 0.6383(2)
F3 F 0.5208(4) 0.1662(4) 0.6978(2)
C17 C 0.3516(6) 0.3517(4) 0.6711(2)
H9 H 0.4174 0.3786 0.6542
C18 C 0.2527(6) 0.4063(4) 0.6859(2)
C19 C 0.2582(9) 0.5031(7) 0.6702(4)
F4 F 0.3520(7) 0.5307(4) 0.6463(3)
F5 F 0.1673(8) 0.5292(5) 0.6442(5)
F6 F 0.2548(13) 0.5527(4) 0.7111(4)
O2 O 0.1598(3) 0.3834(2) 0.70738(12)
Cu1G Cu -1.14764(6) -0.2500 0.2500
N1D N -1.0212(3) -0.1999(3) 0.29889(13)
N1C N 0.0212(3) 0.3001(3) 0.79889(13)
C1D C -1.0134(5) -0.1136(3) 0.30977(18)
H1D H -1.0680 -0.0744 0.2937
C2D C -0.9273(5) -0.0781(4) 0.34421(18)
H2D H -0.9245 -0.0165 0.3506
C3D C -0.8472(5) -0.1350(4) 0.36840(16)
C4D C -0.8558(5) -0.2242(3) 0.35790(19)
H3D H -0.8033 -0.2649 0.3739
C5D C -0.9430(4) -0.2540(4) 0.32336(18)
H4D H -0.9475 -0.3155 0.3167
C6D C -0.7573(4) -0.0990(4) 0.40433(17)
C7D C -0.6832(4) -0.0711(3) 0.43316(17)
C8D C -0.5909(4) -0.0348(4) 0.46743(15)
C9D C -0.5767(4) 0.0579(4) 0.47089(15)
C10D C -0.6517(5) 0.1193(4) 0.44212(19)
H5D H -0.7132 0.0965 0.4208
C11D C -0.6357(7) 0.2081(5) 0.4450(2)
H6D H -0.6860 0.2465 0.4260
C12D C -0.5421(7) 0.2443(5) 0.4771(2)
H7D H -0.5303 0.3063 0.4788
C13D C -0.4693(5) 0.1881(4) 0.5056(2)
H8D H -0.4089 0.2127 0.5268
C14D C -0.5168(4) -0.0946(4) 0.49637(16)
O1C O 0.2802(3) 0.2897(2) 0.79837(12)
C15C C 0.3564(5) 0.2390(4) 0.81972(17)
C16C C 0.4695(5) 0.2904(5) 0.8391(3)
F1C F 0.4373(4) 0.3517(2) 0.87409(15)
F2C F 0.5511(4) 0.2388(3) 0.8617(2)
F3C F 0.5208(4) 0.3338(4) 0.8022(2)
C17C C 0.3516(6) 0.1483(4) 0.8289(2)
H9C H 0.4174 0.1214 0.8458
C18C C 0.2527(6) 0.0937(4) 0.8141(2)
C19C C 0.2582(9) -0.0031(7) 0.8298(4)
F4C F 0.3520(7) -0.0307(4) 0.8537(3)
F5C F 0.1673(8) -0.0292(5) 0.8558(5)
F6C F 0.2548(13) -0.0527(4) 0.7889(4)
O2C O 0.1598(3) 0.1166(2) 0.79262(12)
loop_
_geom_bond_atom_site_label_1
_geom_bond_atom_site_label_2
_geom_bond_site_symmetry_1
_geom_bond_site_symmetry_2
Cu1 N1 1_555 1_555
N1 C1 1_555 1_555
C1 H1 1_555 1_555
C2 C1 1_555 1_555
H2 C2 1_555 1_555
C3 C2 1_555 1_555
C4 C3 1_555 1_555
H3 C4 1_555 1_555
C5 N1 1_555 1_555
H4 C5 1_555 1_555
C6 C3 1_555 1_555
C7 C6 1_555 1_555
C8 C7 1_555 1_555
C9 C8 1_555 1_555
C10 C9 1_555 1_555
H5 C10 1_555 1_555
C11 C10 1_555 1_555
H6 C11 1_555 1_555
C12 C11 1_555 1_555
H7 C12 1_555 1_555
C13 C12 1_555 1_555
H8 C13 1_555 1_555
C14 C8 1_555 1_555
O1 Cu1 1_555 1_555
C15 O1 1_555 1_555
C16 C15 1_555 1_555
F1 C16 1_555 1_555
F2 C16 1_555 1_555
F3 C16 1_555 1_555
C17 C15 1_555 1_555
H9 C17 1_555 1_555
C18 C17 1_555 1_555
C19 C18 1_555 1_555
F4 C19 1_555 1_555
F5 C19 1_555 1_555
F6 C19 1_555 1_555
O2 Cu1 1_555 1_555
Cu1G N1D 1_555 1_555
N1D C1D 1_555 1_555
N1C Cu1 1_555 1_555
C1D H1D 1_555 1_555
C2D C1D 1_555 1_555
H2D C2D 1_555 1_555
C3D C2D 1_555 1_555
C4D C3D 1_555 1_555
H3D C4D 1_555 1_555
C5D N1D 1_555 1_555
H4D C5D 1_555 1_555
C6D C3D 1_555 1_555
C7D C6D 1_555 1_555
C8D C7D 1_555 1_555
C9D C14 1_555 1_555
C10D C9D 1_555 1_555
H5D C10D 1_555 1_555
C11D C10D 1_555 1_555
H6D C11D 1_555 1_555
C12D C11D 1_555 1_555
H7D C12D 1_555 1_555
C13D C14 1_555 1_555
H8D C13D 1_555 1_555
C14D C9 1_555 1_555
O1C Cu1 1_555 1_555
C15C O1C 1_555 1_555
C16C C15C 1_555 1_555
F1C C16C 1_555 1_555
F2C C16C 1_555 1_555
F3C C16C 1_555 1_555
C17C C15C 1_555 1_555
H9C C17C 1_555 1_555
C18C C17C 1_555 1_555
C19C C18C 1_555 1_555
F4C C19C 1_555 1_555
F5C C19C 1_555 1_555
F6C C19C 1_555 1_555
O2C Cu1 1_555 1_555
C4 C5 1_555 1_555
C13 C14D 1_555 1_555
C18 O2 1_555 1_555
C4D C5D 1_555 1_555
C8D C9D 1_555 1_555
C8D C14D 1_555 1_555
C12D C13D 1_555 1_555
C18C O2C 1_555 1_555

#END
