
#######################################################################
#
#                 Cambridge Crystallographic Data Centre
#                                CCDC 
#
#######################################################################
#
# If this CIF has been generated from an entry in the Cambridge 
# Structural Database, then it will include bibliographic, chemical, 
# crystal, experimental, refinement or atomic coordinate data resulting 
# from the CCDC's data processing and validation procedures.
#
#######################################################################

data_GESVIK
_symmetry_cell_setting           monoclinic
_symmetry_space_group_name_H-M   'C 2/c'
_symmetry_Int_Tables_number      15
_space_group_name_Hall           '-C 2yn'
loop_
_symmetry_equiv_pos_site_id
_symmetry_equiv_pos_as_xyz
1 x,y,z
2 1/2+x,1/2+y,z
3 -x,y,1/2-z
4 1/2-x,1/2+y,1/2-z
5 -x,-y,-z
6 1/2-x,1/2-y,-z
7 x,-y,1/2+z
8 1/2+x,1/2-y,1/2+z
_cell_length_a                   21.190(6)
_cell_length_b                   12.590(3)
_cell_length_c                   14.722(4)
_cell_angle_alpha                90
_cell_angle_beta                 130.997(3)
_cell_angle_gamma                90
_cell_volume                     2964.31
loop_
_atom_site_label
_atom_site_type_symbol
_atom_site_fract_x
_atom_site_fract_y
_atom_site_fract_z
C1 C 0.6221(3) 0.2056(4) 0.5284(4)
H1 H 0.6545 0.1662 0.5187
C2 C 0.6477(3) 0.2120(4) 0.6428(5)
H2 H 0.6967 0.1788 0.7080
C3 C 0.5993(4) 0.2682(4) 0.6580(4)
H3 H 0.6149 0.2719 0.7335
C4 C 0.5270(3) 0.3196(4) 0.5598(4)
C5 C 0.4725(4) 0.3797(5) 0.5654(6)
H4 H 0.494(4) 0.389(4) 0.652(6)
C6 C 0.4049(4) 0.4281(5) 0.4687(6)
H5 H 0.3706 0.4662 0.4756
C7 C 0.3836(3) 0.4226(4) 0.3535(5)
C8 C 0.3155(3) 0.4750(4) 0.2509(6)
H6 H 0.2806 0.5165 0.2539
C9 C 0.3006(4) 0.4650(4) 0.1462(6)
H7 H 0.2553 0.4995 0.0770
C10 C 0.3538(3) 0.4025(4) 0.1436(5)
H8 H 0.3426 0.3958 0.0712
C11 C 0.5069(3) 0.3107(4) 0.4477(4)
C12 C 0.4351(3) 0.3635(4) 0.3445(4)
C13 C 0.5944(3) 0.0682(4) 0.1380(4)
C14 C 0.5195(3) 0.0046(4) 0.0615(4)
C15 C 0.4840(3) -0.0460(4) 0.1039(4)
H9 H 0.5093 -0.0392 0.1844
C16 C 0.4130(3) -0.1049(4) 0.0286(5)
H10 H 0.3903 -0.1373 0.0583
C17 C 0.6262(3) 0.1174(4) 0.0926(4)
H11 H 0.6740 0.1592 0.1424
Co1 Co 0.5000 0.24055(7) 0.2500
N1 N 0.5546(2) 0.2523(3) 0.4336(3)
N2 N 0.4193(2) 0.3525(3) 0.2390(3)
O1 O 0.5881(2) 0.1219(3) 0.3015(3)
O2 O 0.6763(3) -0.0248(3) 0.3446(3)
O3 O 0.7161(2) 0.1543(4) 0.3404(3)
S1 S 0.64919(7) 0.08131(11) 0.29397(10)
C1B C 0.3779(3) 0.2056(4) -0.0284(4)
H1B H 0.3455 0.1662 -0.0187
C2B C 0.3523(3) 0.2120(4) -0.1428(5)
H2B H 0.3033 0.1788 -0.2080
C3B C 0.4007(4) 0.2682(4) -0.1580(4)
H3B H 0.3851 0.2719 -0.2335
C4B C 0.4730(3) 0.3196(4) -0.0598(4)
C5B C 0.5275(4) 0.3797(5) -0.0654(6)
H4B H 0.506(4) 0.389(4) -0.152(6)
C6B C 0.5951(4) 0.4281(5) 0.0313(6)
H5B H 0.6294 0.4662 0.0244
C7B C 0.6164(3) 0.4226(4) 0.1465(5)
C8B C 0.6845(3) 0.4750(4) 0.2491(6)
H6B H 0.7194 0.5165 0.2461
C9B C 0.6994(4) 0.4650(4) 0.3538(6)
H7B H 0.7447 0.4995 0.4230
C10B C 0.6462(3) 0.4025(4) 0.3564(5)
H8B H 0.6574 0.3958 0.4288
C11B C 0.4931(3) 0.3107(4) 0.0523(4)
C12B C 0.5649(3) 0.3635(4) 0.1555(4)
C13D C 0.4056(3) -0.0682(4) -0.1380(4)
C14D C 0.4805(3) -0.0046(4) -0.0615(4)
C15D C 0.5160(3) 0.0460(4) -0.1039(4)
H9D H 0.4907 0.0392 -0.1844
C16D C 0.5870(3) 0.1049(4) -0.0286(5)
H10D H 0.6097 0.1373 -0.0583
C17D C 0.3738(3) -0.1174(4) -0.0926(4)
H11D H 0.3260 -0.1592 -0.1424
Co1F Co 0.5000 -0.24055(7) -0.2500
N1B N 0.4454(2) 0.2523(3) 0.0664(3)
N2B N 0.5807(2) 0.3525(3) 0.2610(3)
O1D O 0.4119(2) -0.1219(3) -0.3015(3)
O1B O 0.4119(2) 0.1219(3) 0.1985(3)
O2D O 0.3237(3) 0.0248(3) -0.3446(3)
O3D O 0.2839(2) -0.1543(4) -0.3404(3)
S1D S 0.35081(7) -0.08131(11) -0.29397(10)
loop_
_geom_bond_atom_site_label_1
_geom_bond_atom_site_label_2
_geom_bond_site_symmetry_1
_geom_bond_site_symmetry_2
C1 H1 1_555 1_555
C2 C1 1_555 1_555
H2 C2 1_555 1_555
C3 C2 1_555 1_555
H3 C3 1_555 1_555
C4 C3 1_555 1_555
C5 C4 1_555 1_555
H4 C5 1_555 1_555
C6 C5 1_555 1_555
H5 C6 1_555 1_555
C7 C6 1_555 1_555
C8 C7 1_555 1_555
H6 C8 1_555 1_555
C9 C8 1_555 1_555
H7 C9 1_555 1_555
C10 C9 1_555 1_555
H8 C10 1_555 1_555
C11 C4 1_555 1_555
C12 C7 1_555 1_555
C13 C14 1_555 1_555
C14 C15 1_555 1_555
C15 H9 1_555 1_555
C16 C15 1_555 1_555
H10 C16 1_555 1_555
C17 C13 1_555 1_555
H11 C17 1_555 1_555
Co1 N1 1_555 1_555
N1 C1 1_555 1_555
N2 C10 1_555 1_555
O1 Co1 1_555 1_555
O2 S1 1_555 1_555
O3 S1 1_555 1_555
S1 C13 1_555 1_555
C1B H1B 1_555 1_555
C2B C1B 1_555 1_555
H2B C2B 1_555 1_555
C3B C2B 1_555 1_555
H3B C3B 1_555 1_555
C4B C3B 1_555 1_555
C5B C4B 1_555 1_555
H4B C5B 1_555 1_555
C6B C5B 1_555 1_555
H5B C6B 1_555 1_555
C7B C6B 1_555 1_555
C8B C7B 1_555 1_555
H6B C8B 1_555 1_555
C9B C8B 1_555 1_555
H7B C9B 1_555 1_555
C10B C9B 1_555 1_555
H8B C10B 1_555 1_555
C11B C4B 1_555 1_555
C12B C7B 1_555 1_555
C13D C14D 1_555 1_555
C14D C14 1_555 1_555
C15D C14D 1_555 1_555
H9D C15D 1_555 1_555
C16D C17 1_555 1_555
H10D C16D 1_555 1_555
C17D C16 1_555 1_555
H11D C17D 1_555 1_555
Co1F O1D 1_555 1_555
N1B Co1 1_555 1_555
N2B Co1 1_555 1_555
O1D S1D 1_555 1_555
O1B Co1 1_555 1_555
O2D S1D 1_555 1_555
O3D S1D 1_555 1_555
S1D C13D 1_555 1_555
C11 C12 1_555 1_555
C11 N1 1_555 1_555
C12 N2 1_555 1_555
Co1 N2 1_555 1_555
O1 S1 1_555 1_555
C1B N1B 1_555 1_555
C10B N2B 1_555 1_555
C11B C12B 1_555 1_555
C11B N1B 1_555 1_555
C12B N2B 1_555 1_555
C13D C17D 1_555 1_555
C15D C16D 1_555 1_555

#END
