
#######################################################################
#
#                 Cambridge Crystallographic Data Centre
#                                CCDC 
#
#######################################################################
#
# If this CIF has been generated from an entry in the Cambridge 
# Structural Database, then it will include bibliographic, chemical, 
# crystal, experimental, refinement or atomic coordinate data resulting 
# from the CCDC's data processing and validation procedures.
#
#######################################################################

data_GETVUW10
_symmetry_cell_setting           monoclinic
_symmetry_space_group_name_H-M   'P 21/a'
_symmetry_Int_Tables_number      14
_space_group_name_Hall           '-P 2yab'
loop_
_symmetry_equiv_pos_site_id
_symmetry_equiv_pos_as_xyz
1 x,y,z
2 1/2-x,1/2+y,-z
3 -x,-y,-z
4 1/2+x,1/2-y,z
_cell_length_a                   24.368(4)
_cell_length_b                   11.655(2)
_cell_length_c                   9.445(2)
_cell_angle_alpha                90
_cell_angle_beta                 101.13(2)
_cell_angle_gamma                90
_cell_volume                     2632.01
loop_
_atom_site_label
_atom_site_type_symbol
_atom_site_fract_x
_atom_site_fract_y
_atom_site_fract_z
Au1 Au 0.2450(1) 0.2980(1) 0.5425(2)
Tl1 Tl 0.2369(1) 0.0449(1) 0.5273(2)
P1 P 0.3706(4) 0.2357(7) 0.5256(10)
P2 P 0.1439(4) 0.2445(8) 0.2650(12)
S1 S 0.3425(4) 0.1008(9) 0.4111(13)
S2 S 0.1680(6) 0.0882(10) 0.2442(15)
C1 C 0.3299(10) 0.2781(22) 0.6627(28)
C2 C 0.1588(10) 0.3163(22) 0.4480(28)
C3 C 0.4115(8) 0.4486(19) 0.4623(21)
C4 C 0.4126(8) 0.5464(19) 0.3777(21)
C5 C 0.3782(8) 0.5532(19) 0.2416(21)
C6 C 0.3427(8) 0.4623(19) 0.1901(21)
C7 C 0.3416(8) 0.3645(19) 0.2747(21)
C8 C 0.3760(8) 0.3577(19) 0.4108(21)
C9 C 0.4617(10) 0.2460(22) 0.7560(27)
C10 C 0.5171(10) 0.2242(22) 0.8215(27)
C11 C 0.5524(10) 0.1669(22) 0.7453(27)
C12 C 0.5324(10) 0.1314(22) 0.6037(27)
C13 C 0.4770(10) 0.1532(22) 0.5383(27)
C14 C 0.4417(10) 0.2105(22) 0.6144(27)
C15 C 0.1937(11) 0.2867(16) 0.0312(29)
C16 C 0.2123(11) 0.3566(16) -0.0699(29)
C17 C 0.2069(11) 0.4755(16) -0.0626(29)
C18 C 0.1830(11) 0.5245(16) 0.0459(29)
C19 C 0.1644(11) 0.4546(16) 0.1469(29)
C20 C 0.1698(11) 0.3357(16) 0.1396(29)
C21 C 0.0389(13) 0.1495(22) 0.1800(33)
C22 C -0.0193(13) 0.1502(22) 0.1403(33)
C23 C -0.0484(13) 0.2539(22) 0.1303(33)
C24 C -0.0193(13) 0.3569(22) 0.1600(33)
C25 C 0.0389(13) 0.3562(22) 0.1997(33)
C26 C 0.0680(13) 0.2525(22) 0.2097(33)
H1 H 0.4352 0.4439 0.5560
H2 H 0.4370 0.6090 0.4132
H3 H 0.3789 0.6205 0.1834
H4 H 0.3190 0.4670 0.0964
H5 H 0.3172 0.3020 0.2392
H6 H 0.4373 0.2855 0.8084
H7 H 0.5308 0.2487 0.9189
H8 H 0.5905 0.1519 0.7903
H9 H 0.5567 0.0919 0.5513
H10 H 0.4632 0.1287 0.4408
H11 H 0.1975 0.2049 0.0261
H12 H 0.2288 0.3229 -0.1445
H13 H 0.2196 0.5236 -0.1321
H14 H 0.1792 0.6063 0.0509
H15 H 0.1479 0.4883 0.2216
H16 H 0.0589 0.0782 0.1869
H17 H -0.0393 0.0793 0.1199
H18 H -0.0884 0.2544 0.1030
H19 H -0.0393 0.4283 0.1531
H20 H 0.0589 0.4271 0.2201
Tl1A Tl 0.2631(1) 0.5449(1) 0.4727(2)
Au1A Au 0.2550(1) -0.2020(1) 0.4575(2)
loop_
_geom_bond_atom_site_label_1
_geom_bond_atom_site_label_2
_geom_bond_site_symmetry_1
_geom_bond_site_symmetry_2
Au1 Tl1 1_555 1_555
Tl1 S1 1_555 1_555
P1 S1 1_555 1_555
P2 S2 1_555 1_555
S2 Tl1 1_555 1_555
C1 Au1 1_555 1_555
C2 Au1 1_555 1_555
C3 C4 1_555 1_555
C4 C5 1_555 1_555
C5 C6 1_555 1_555
C6 C7 1_555 1_555
C7 C8 1_555 1_555
C8 P1 1_555 1_555
C9 C10 1_555 1_555
C10 C11 1_555 1_555
C11 C12 1_555 1_555
C12 C13 1_555 1_555
C13 C14 1_555 1_555
C14 P1 1_555 1_555
C15 C16 1_555 1_555
C16 C17 1_555 1_555
C17 C18 1_555 1_555
C18 C19 1_555 1_555
C19 C20 1_555 1_555
C20 P2 1_555 1_555
C21 C22 1_555 1_555
C22 C23 1_555 1_555
C23 C24 1_555 1_555
C24 C25 1_555 1_555
C25 C26 1_555 1_555
C26 P2 1_555 1_555
H1 C3 1_555 1_555
H2 C4 1_555 1_555
H3 C5 1_555 1_555
H4 C6 1_555 1_555
H5 C7 1_555 1_555
H6 C9 1_555 1_555
H7 C10 1_555 1_555
H8 C11 1_555 1_555
H9 C12 1_555 1_555
H10 C13 1_555 1_555
H11 C15 1_555 1_555
H12 C16 1_555 1_555
H13 C17 1_555 1_555
H14 C18 1_555 1_555
H15 C19 1_555 1_555
H16 C21 1_555 1_555
H17 C22 1_555 1_555
H18 C23 1_555 1_555
H19 C24 1_555 1_555
H20 C25 1_555 1_555
Tl1A Au1 1_555 1_555
Au1A Tl1 1_555 1_555
P1 C1 1_555 1_555
P2 C2 1_555 1_555
C3 C8 1_555 1_555
C9 C14 1_555 1_555
C15 C20 1_555 1_555
C21 C26 1_555 1_555

#END
