
#######################################################################
#
#                 Cambridge Crystallographic Data Centre
#                                CCDC 
#
#######################################################################
#
# If this CIF has been generated from an entry in the Cambridge 
# Structural Database, then it will include bibliographic, chemical, 
# crystal, experimental, refinement or atomic coordinate data resulting 
# from the CCDC's data processing and validation procedures.
#
#######################################################################

data_GETWOT
_symmetry_cell_setting           monoclinic
_symmetry_space_group_name_H-M   'P 21/c'
_symmetry_Int_Tables_number      14
_space_group_name_Hall           '-P 2ybc'
loop_
_symmetry_equiv_pos_site_id
_symmetry_equiv_pos_as_xyz
1 x,y,z
2 -x,1/2+y,1/2-z
3 -x,-y,-z
4 x,1/2-y,1/2+z
_cell_length_a                   9.6538(11)
_cell_length_b                   6.8521(7)
_cell_length_c                   12.5458(10)
_cell_angle_alpha                90
_cell_angle_beta                 106.164(6)
_cell_angle_gamma                90
_cell_volume                     797.083
loop_
_atom_site_label
_atom_site_type_symbol
_atom_site_fract_x
_atom_site_fract_y
_atom_site_fract_z
Ag1 Ag 0.39396(4) 0.65728(7) 0.71369(3)
N1 N 0.4419(4) 0.7173(6) 0.5596(3)
N2 N 0.4436(4) 0.7697(6) 0.3876(3)
N3 N -0.2489(4) 0.6451(6) 0.2979(4)
H1 H -0.2726 0.6944 0.2287
H2 H -0.2842 0.7290 0.3390
C1 C -0.0970(5) 0.6617(7) 0.3375(4)
N4 N 0.5794(4) 0.7874(6) 0.4549(3)
N5 N 0.5789(4) 0.7581(7) 0.5572(3)
C2 C 0.3606(5) 0.7252(7) 0.4542(3)
C3 C 0.1153(5) 0.7525(8) 0.4821(4)
H3 H 0.1566 0.8029 0.5526
C4 C 0.1394(5) 0.6188(7) 0.3121(4)
H4 H 0.1968 0.5762 0.2682
C5 C -0.0087(5) 0.6029(7) 0.2728(4)
H5 H -0.0498 0.5523 0.2023
C6 C -0.0324(5) 0.7332(8) 0.4442(4)
H6 H -0.0894 0.7680 0.4899
C7 C 0.2041(5) 0.6974(6) 0.4162(4)
Ag1B Ag -0.39396(4) 0.34272(7) 0.28631(3)
Ag1C Ag 0.39396(4) 0.84272(7) 0.21369(3)
N2C N 0.4436(4) 0.7303(6) 0.8876(3)
N3B N 0.2489(4) 0.3549(6) 0.7021(4)
loop_
_geom_bond_atom_site_label_1
_geom_bond_atom_site_label_2
_geom_bond_site_symmetry_1
_geom_bond_site_symmetry_2
Ag1 N1 1_555 1_555
N1 N5 1_555 1_555
N2 N4 1_555 1_555
N3 H1 1_555 1_555
H2 N3 1_555 1_555
C1 N3 1_555 1_555
N4 N5 1_555 1_555
C2 N1 1_555 1_555
C3 H3 1_555 1_555
C4 H4 1_555 1_555
C5 C1 1_555 1_555
H5 C5 1_555 1_555
C6 C1 1_555 1_555
H6 C6 1_555 1_555
C7 C2 1_555 1_555
Ag1B N3 1_555 1_555
Ag1C N2 1_555 1_555
N2C Ag1 1_555 1_555
N3B Ag1 1_555 1_555
N2 C2 1_555 1_555
C3 C6 1_555 1_555
C3 C7 1_555 1_555
C4 C5 1_555 1_555
C4 C7 1_555 1_555

#END
