
#######################################################################
#
#                 Cambridge Crystallographic Data Centre
#                                CCDC 
#
#######################################################################
#
# If this CIF has been generated from an entry in the Cambridge 
# Structural Database, then it will include bibliographic, chemical, 
# crystal, experimental, refinement or atomic coordinate data resulting 
# from the CCDC's data processing and validation procedures.
#
#######################################################################

data_GETXEK
_symmetry_cell_setting           triclinic
_symmetry_space_group_name_H-M   'P -1'
_symmetry_Int_Tables_number      2
_space_group_name_Hall           '-P 1'
loop_
_symmetry_equiv_pos_site_id
_symmetry_equiv_pos_as_xyz
1 x,y,z
2 -x,-y,-z
_cell_length_a                   12.872(2)
_cell_length_b                   13.680(2)
_cell_length_c                   16.117(2)
_cell_angle_alpha                81.363(2)
_cell_angle_beta                 88.065(2)
_cell_angle_gamma                63.779(1)
_cell_volume                     2515.41
loop_
_atom_site_label
_atom_site_type_symbol
_atom_site_fract_x
_atom_site_fract_y
_atom_site_fract_z
C1 C 0.3820(4) 0.0737(3) 0.8611(3)
C2 C 0.2613(4) 0.1178(3) 0.8259(3)
C3 C 0.1687(4) 0.1363(4) 0.8767(3)
H1 H 0.1814 0.1166 0.9346
C4 C 0.0571(4) 0.1836(4) 0.8431(3)
H2 H -0.0041 0.1939 0.8787
C5 C 0.0349(4) 0.2157(3) 0.7581(3)
C6 C 0.1289(4) 0.1939(4) 0.7061(3)
H3 H 0.1161 0.2125 0.6482
C7 C 0.2403(4) 0.1454(4) 0.7395(3)
H4 H 0.3021 0.1310 0.7039
C8 C -0.0855(4) 0.2706(3) 0.7229(3)
C9 C -0.1614(4) 0.2247(4) 0.7478(3)
H5 H -0.1350 0.1605 0.7867
C10 C -0.2736(4) 0.2709(4) 0.7168(3)
H6 H -0.3223 0.2389 0.7352
C11 C -0.3134(4) 0.3648(5) 0.6586(3)
H7 H -0.3895 0.3966 0.6376
C12 C -0.2411(4) 0.4121(4) 0.6310(3)
H8 H -0.2680 0.4743 0.5902
C13 C -0.1271(4) 0.3671(3) 0.6643(3)
C14 C -0.0573(4) 0.4291(3) 0.6366(3)
C15 C 0.0617(4) 0.0830(3) 1.2002(3)
C16 C -0.0416(4) 0.1215(4) 1.1545(3)
H9 H -0.0408 0.1229 1.0966
C17 C -0.1460(4) 0.1581(4) 1.1946(3)
H10 H -0.2149 0.1827 1.1636
C18 C -0.1483(4) 0.1582(4) 1.2817(3)
C19 C -0.0453(4) 0.1136(4) 1.3261(3)
H11 H -0.0452 0.1090 1.3843
C20 C 0.0597(4) 0.0749(4) 1.2861(3)
H12 H 0.1289 0.0433 1.3177
C21 C -0.2606(4) 0.2101(4) 1.3232(3)
C22 C -0.3459(5) 0.1739(5) 1.3173(3)
H13 H -0.3313 0.1154 1.2885
C23 C -0.4501(5) 0.2237(5) 1.3534(4)
H14 H -0.5064 0.1994 1.3484
C24 C -0.4724(5) 0.3088(5) 1.3968(4)
H15 H -0.5440 0.3430 1.4206
C25 C -0.3893(5) 0.3440(4) 1.4053(4)
H16 H -0.4042 0.4004 1.4364
C26 C -0.2833(4) 0.2965(4) 1.3680(3)
C27 C -0.2000(4) 0.3455(3) 1.3760(3)
C28 C 0.2667(6) 0.2758(5) 1.0671(6)
H17 H 0.2117 0.2652 1.0386
C29 C 0.2431(6) 0.3831(5) 1.0747(6)
H18 H 0.1756 0.4418 1.0503
C30 C 0.3192(6) 0.4013(5) 1.1179(4)
C31 C 0.4190(7) 0.3108(5) 1.1462(4)
H19 H 0.4764 0.3190 1.1737
C32 C 0.4356(6) 0.2074(5) 1.1344(4)
H20 H 0.5049 0.1475 1.1545
C33 C 0.3074(7) 0.5157(5) 1.1249(5)
H21 H 0.2265 0.5690 1.1194
H22 H 0.3378 0.5154 1.1793
C34 C 0.3711(7) 0.5444(5) 1.0595(5)
H23 H 0.3355 0.5495 1.0060
H24 H 0.4491 0.4852 1.0621
C35 C -0.3244(4) 0.6362(4) 0.3353(3)
H25 H -0.3067 0.5903 0.2945
C36 C -0.2729(4) 0.6786(4) 0.4539(3)
H26 H -0.2194 0.6641 0.4969
C37 C -0.3782(4) 0.7700(4) 0.4509(3)
H27 H -0.3946 0.8154 0.4919
C38 C -0.4608(4) 0.7955(4) 0.3871(3)
C39 C -0.4306(4) 0.7271(4) 0.3292(3)
H28 H -0.4820 0.7415 0.2847
C40 C -0.5806(5) 0.8916(5) 0.3843(4)
H29 H -0.6194 0.8998 0.3313
H30 H -0.6248 0.8737 0.4288
C41 C -0.5828(6) 0.9910(6) 0.3925(7)
H31 H -0.5426 1.0104 0.3458
H32 H -0.5388 0.9807 0.4434
C42 C -0.8322(4) 1.2717(4) 0.3419(4)
H33 H -0.8486 1.3319 0.3002
C43 C -0.8838(5) 1.1956(4) 0.4606(3)
H34 H -0.9359 1.1993 0.5027
C44 C -0.7330(5) 1.1778(6) 0.3360(5)
H35 H -0.6863 1.1747 0.2902
C45 C -0.7820(7) 1.0971(4) 0.4593(5)
H36 H -0.7672 1.0366 0.5005
C46 C -0.7032(6) 1.0905(6) 0.3959(6)
C47 C 0.1736(4) 0.0563(4) 1.1569(3)
C48 C 0.4786(5) 0.7549(4) 1.0891(3)
H37 H 0.5459 0.7550 1.1082
C49 C 0.2964(5) 0.8467(4) 1.0337(3)
H38 H 0.2334 0.9133 1.0140
C50 C 0.2860(6) 0.7525(5) 1.0319(4)
H39 H 0.2184 0.7550 1.0108
C51 C 0.3787(7) 0.6521(5) 1.0622(4)
C52 C 0.4762(6) 0.6549(4) 1.0907(4)
H40 H 0.5403 0.5897 1.1111
N1 N 0.3594(3) 0.1889(3) 1.0966(2)
N2 N -0.9069(3) 1.2832(3) 0.4033(2)
N3 N -0.2447(3) 0.6104(3) 0.3973(2)
N4 N 0.3905(4) 0.8503(3) 1.0619(2)
O1 O 0.4006(3) 0.0554(3) 0.93962(19)
O2 O 0.4639(3) 0.0563(3) 0.8127(2)
O3 O -0.0482(3) 0.4565(3) 0.55996(19)
O4 O 0.2670(3) 0.0021(3) 1.19950(19)
O5 O -0.1671(3) 0.3857(3) 1.3122(2)
O6 O 0.1707(3) 0.0919(3) 1.07986(19)
O7 O -0.1719(3) 0.3477(3) 1.4494(2)
O8 O -0.0119(3) 0.4568(3) 0.69072(19)
Cd1 Cd 0.38488(3) 0.01438(2) 1.085809(19)
Cd2 Cd -0.06986(3) 0.45021(2) 0.41161(2)
N2_2 N 0.0931(3) 0.2832(3) 0.4033(2)
N4_2 N 0.3905(4) -0.1497(3) 1.0619(2)
O1A O 0.5994(3) -0.0554(3) 1.06038(19)
O2A O 0.5361(3) -0.0563(3) 1.1873(2)
O3A O 0.0482(3) 0.5435(3) 0.44004(19)
O5_2 O -0.1671(3) 0.3857(3) 0.3122(2)
O7_2 O -0.1719(3) 0.3477(3) 0.4494(2)
O8A O 0.0119(3) 0.5432(3) 0.30928(19)
Cd1_2 Cd 0.38488(3) 1.01438(2) 1.085809(19)
Cd1A Cd 0.61512(3) -0.01438(2) 0.914191(19)
Cd2_2 Cd -1.06986(3) 1.45021(2) 0.41161(2)
Cd2_3 Cd -0.06986(3) 0.45021(2) 1.41161(2)
Cd2A Cd 0.06986(3) 0.54979(2) 0.58839(2)
O9 O 0.0432(4) 0.4291(4) 0.8716(2)
H41 H 0.1080 0.4081 0.8481
H42 H 0.0169 0.4969 0.8761
O10 O 0.9772(3) 0.3139(3) 0.01182(19)
H43 H 1.0278 0.2531 0.0375
H44 H 0.9889 0.3667 0.0239
O11 O 0.8272(4) 0.4406(3) 0.1324(2)
H45 H 0.7875 0.4441 0.1761
H46 H 0.8924 0.4202 0.1571
O12 O 0.8798(4) 0.1350(6) 0.5481(2)
H47 H 0.8630 0.1547 0.5963
H48 H 0.9141 0.1699 0.5213
loop_
_geom_bond_atom_site_label_1
_geom_bond_atom_site_label_2
_geom_bond_site_symmetry_1
_geom_bond_site_symmetry_2
C1 C2 1_555 1_555
C2 C3 1_555 1_555
C3 H1 1_555 1_555
C4 C3 1_555 1_555
H2 C4 1_555 1_555
C5 C4 1_555 1_555
C6 C5 1_555 1_555
H3 C6 1_555 1_555
C7 C2 1_555 1_555
H4 C7 1_555 1_555
C8 C5 1_555 1_555
C9 C8 1_555 1_555
H5 C9 1_555 1_555
C10 C9 1_555 1_555
H6 C10 1_555 1_555
C11 C10 1_555 1_555
H7 C11 1_555 1_555
C12 C11 1_555 1_555
H8 C12 1_555 1_555
C13 C8 1_555 1_555
C14 C13 1_555 1_555
C15 C16 1_555 1_555
C16 H9 1_555 1_555
C17 C16 1_555 1_555
H10 C17 1_555 1_555
C18 C17 1_555 1_555
C19 C18 1_555 1_555
H11 C19 1_555 1_555
C20 C15 1_555 1_555
H12 C20 1_555 1_555
C21 C18 1_555 1_555
C22 C21 1_555 1_555
H13 C22 1_555 1_555
C23 C22 1_555 1_555
H14 C23 1_555 1_555
C24 C23 1_555 1_555
H15 C24 1_555 1_555
C25 C24 1_555 1_555
H16 C25 1_555 1_555
C26 C21 1_555 1_555
C27 C26 1_555 1_555
C28 H17 1_555 1_555
C29 C28 1_555 1_555
H18 C29 1_555 1_555
C30 C29 1_555 1_555
C31 C30 1_555 1_555
H19 C31 1_555 1_555
C32 C31 1_555 1_555
H20 C32 1_555 1_555
C33 C30 1_555 1_555
H21 C33 1_555 1_555
H22 C33 1_555 1_555
C34 C33 1_555 1_555
H23 C34 1_555 1_555
H24 C34 1_555 1_555
C35 H25 1_555 1_555
C36 H26 1_555 1_555
C37 C36 1_555 1_555
H27 C37 1_555 1_555
C38 C37 1_555 1_555
C39 C35 1_555 1_555
H28 C39 1_555 1_555
C40 C38 1_555 1_555
H29 C40 1_555 1_555
H30 C40 1_555 1_555
C41 C40 1_555 1_555
H31 C41 1_555 1_555
H32 C41 1_555 1_555
C42 H33 1_555 1_555
C43 H34 1_555 1_555
C44 C42 1_555 1_555
H35 C44 1_555 1_555
C45 C43 1_555 1_555
H36 C45 1_555 1_555
C46 C41 1_555 1_555
C47 C15 1_555 1_555
C48 H37 1_555 1_555
C49 H38 1_555 1_555
C50 C49 1_555 1_555
H39 C50 1_555 1_555
C51 C34 1_555 1_555
C52 C48 1_555 1_555
H40 C52 1_555 1_555
N1 C28 1_555 1_555
N2 C42 1_555 1_555
N3 C35 1_555 1_555
N4 C48 1_555 1_555
O1 C1 1_555 1_555
O2 C1 1_555 1_555
O3 C14 1_555 1_555
O4 C47 1_555 1_555
O5 C27 1_555 1_555
O6 C47 1_555 1_555
O7 C27 1_555 1_555
O8 C14 1_555 1_555
Cd1 N1 1_555 1_555
Cd2 N3 1_555 1_555
O9 H41 1_555 1_555
H42 O9 1_555 1_555
O10 H43 1_555 1_555
H44 O10 1_555 1_555
O11 H45 1_555 1_555
H46 O11 1_555 1_555
O12 H47 1_555 1_555
H48 O12 1_555 1_555
N2_2 Cd2 1_555 1_555
N4_2 Cd1 1_555 1_555
O1A Cd1 1_555 1_555
O2A Cd1 1_555 1_555
O3A Cd2 1_555 1_555
O5_2 Cd2 1_555 1_555
O7_2 Cd2 1_555 1_555
O8A Cd2 1_555 1_555
Cd1_2 N4 1_555 1_555
Cd1A O1 1_555 1_555
Cd2_2 N2 1_555 1_555
Cd2_3 O5 1_555 1_555
Cd2A O3 1_555 1_555
C6 C7 1_555 1_555
C12 C13 1_555 1_555
C19 C20 1_555 1_555
C25 C26 1_555 1_555
C32 N1 1_555 1_555
C36 N3 1_555 1_555
C38 C39 1_555 1_555
C43 N2 1_555 1_555
C44 C46 1_555 1_555
C45 C46 1_555 1_555
C49 N4 1_555 1_555
C50 C51 1_555 1_555
C51 C52 1_555 1_555
O1 Cd1 1_555 1_555
O2 Cd1A 1_555 1_555
O3 Cd2 1_555 1_555
O4 Cd1 1_555 1_555
O6 Cd1 1_555 1_555
O7 Cd2_3 1_555 1_555
O8 Cd2A 1_555 1_555
O1A Cd1A 1_555 1_555
O3A Cd2A 1_555 1_555

#END
