
#######################################################################
#
#                 Cambridge Crystallographic Data Centre
#                                CCDC 
#
#######################################################################
#
# If this CIF has been generated from an entry in the Cambridge 
# Structural Database, then it will include bibliographic, chemical, 
# crystal, experimental, refinement or atomic coordinate data resulting 
# from the CCDC's data processing and validation procedures.
#
#######################################################################

data_GETYOU
_symmetry_cell_setting           orthorhombic
_symmetry_space_group_name_H-M   'P b c n'
_symmetry_Int_Tables_number      60
_space_group_name_Hall           '-P 2n 2ab'
loop_
_symmetry_equiv_pos_site_id
_symmetry_equiv_pos_as_xyz
1 x,y,z
2 1/2-x,1/2-y,1/2+z
3 -x,y,1/2-z
4 1/2+x,1/2-y,-z
5 -x,-y,-z
6 1/2+x,1/2+y,1/2-z
7 x,-y,1/2+z
8 1/2-x,1/2+y,z
_cell_length_a                   7.8099(11)
_cell_length_b                   19.180(3)
_cell_length_c                   13.4279(18)
_cell_angle_alpha                90
_cell_angle_beta                 90
_cell_angle_gamma                90
_cell_volume                     2011.42
loop_
_atom_site_label
_atom_site_type_symbol
_atom_site_fract_x
_atom_site_fract_y
_atom_site_fract_z
Cd1 Cd 0.08534(3) 0.007599(9) 0.366725(13)
O1 O 0.1792(2) 0.04024(9) 0.19785(12)
O2 O 0.2821(3) 0.12526(11) 0.10127(14)
O3 O 0.0661(2) 0.06388(9) 0.52397(12)
O4 O 0.1479(3) 0.15531(11) 0.61413(12)
O5 O 0.3021(3) -0.05840(12) 0.42608(15)
H1 H 0.2733 -0.0859 0.4806
O6 O 0.0000 -0.07939(12) 0.2500
H2 H -0.0712 -0.1096 0.2872
N1 N 0.1889(3) 0.12079(11) 0.35853(15)
C1 C 0.2341(4) 0.10110(14) 0.18226(19)
C2 C 0.2364(4) 0.14966(14) 0.27189(18)
C3 C 0.1856(4) 0.16033(14) 0.44036(19)
C4 C 0.1284(4) 0.12418(13) 0.53451(18)
C5 C 0.2257(4) 0.23064(15) 0.4381(2)
H3 H 0.2207 0.2574 0.4958
C6 C 0.2732(5) 0.26006(16) 0.3487(2)
H4 H 0.3021 0.3070 0.3455
C7 C 0.2777(4) 0.21937(15) 0.2637(2)
H5 H 0.3078 0.2385 0.2026
C8 C 0.4712(6) -0.0650(3) 0.3951(3)
H6 H 0.4991 -0.1135 0.3880
H7 H 0.5456 -0.0442 0.4437
H8 H 0.4858 -0.0419 0.3323
Cd1B Cd -0.08534(3) 0.007599(9) 0.133275(13)
Cd1D Cd -0.08534(3) -0.007599(9) 0.633275(13)
Cd1F Cd 0.08534(3) -0.007599(9) -0.133275(13)
O1B O -0.1792(2) 0.04024(9) 0.30215(12)
O2B O -0.2821(3) 0.12526(11) 0.39873(14)
O3D O -0.0661(2) -0.06388(9) 0.47603(12)
O3B O -0.0661(2) 0.06388(9) -0.02397(12)
O3F O 0.0661(2) -0.06388(9) 0.02397(12)
O4B O -0.1479(3) 0.15531(11) -0.11413(12)
O5B O -0.3021(3) -0.05840(12) 0.07392(15)
H1B H -0.2733 -0.0859 0.0194
H2B H 0.0712 -0.1096 0.2128
N1B N -0.1889(3) 0.12079(11) 0.14147(15)
C1B C -0.2341(4) 0.10110(14) 0.31774(19)
C2B C -0.2364(4) 0.14966(14) 0.22811(18)
C3B C -0.1856(4) 0.16033(14) 0.05964(19)
C4B C -0.1284(4) 0.12418(13) -0.03451(18)
C5B C -0.2257(4) 0.23064(15) 0.0619(2)
H3B H -0.2207 0.2574 0.0042
C6B C -0.2732(5) 0.26006(16) 0.1513(2)
H4B H -0.3021 0.3070 0.1545
C7B C -0.2777(4) 0.21937(15) 0.2363(2)
H5B H -0.3078 0.2385 0.2974
C8B C -0.4712(6) -0.0650(3) 0.1049(3)
H6B H -0.4991 -0.1135 0.1120
H7B H -0.5456 -0.0442 0.0563
H8B H -0.4858 -0.0419 0.1677
loop_
_geom_bond_atom_site_label_1
_geom_bond_atom_site_label_2
_geom_bond_site_symmetry_1
_geom_bond_site_symmetry_2
Cd1 O1 1_555 1_555
O1 C1 1_555 1_555
O2 C1 1_555 1_555
O3 Cd1 1_555 1_555
O4 C4 1_555 1_555
O5 Cd1 1_555 1_555
H1 O5 1_555 1_555
O6 Cd1 1_555 1_555
H2 O6 1_555 1_555
N1 Cd1 1_555 1_555
C1 C2 1_555 1_555
C2 N1 1_555 1_555
C3 N1 1_555 1_555
C4 O3 1_555 1_555
C5 C3 1_555 1_555
H3 C5 1_555 1_555
C6 C5 1_555 1_555
H4 C6 1_555 1_555
C7 C2 1_555 1_555
H5 C7 1_555 1_555
C8 O5 1_555 1_555
H6 C8 1_555 1_555
H7 C8 1_555 1_555
H8 C8 1_555 1_555
Cd1B O1 1_555 1_555
Cd1D O3 1_555 1_555
Cd1F O3B 1_555 1_555
O1B Cd1 1_555 1_555
O2B C1B 1_555 1_555
O3D Cd1 1_555 1_555
O3B Cd1B 1_555 1_555
O3F Cd1B 1_555 1_555
O4B C4B 1_555 1_555
O5B Cd1B 1_555 1_555
H1B O5B 1_555 1_555
H2B O6 1_555 1_555
N1B Cd1B 1_555 1_555
C1B O1B 1_555 1_555
C2B N1B 1_555 1_555
C3B N1B 1_555 1_555
C4B O3B 1_555 1_555
C5B C3B 1_555 1_555
H3B C5B 1_555 1_555
C6B C5B 1_555 1_555
H4B C6B 1_555 1_555
C7B C2B 1_555 1_555
H5B C7B 1_555 1_555
C8B O5B 1_555 1_555
H6B C8B 1_555 1_555
H7B C8B 1_555 1_555
H8B C8B 1_555 1_555
O6 Cd1B 1_555 1_555
C3 C4 1_555 1_555
C6 C7 1_555 1_555
Cd1B O1B 1_555 1_555
Cd1D O3D 1_555 1_555
Cd1F O3F 1_555 1_555
C1B C2B 1_555 1_555
C3B C4B 1_555 1_555
C6B C7B 1_555 1_555

#END
