
#######################################################################
#
#                 Cambridge Crystallographic Data Centre
#                                CCDC 
#
#######################################################################
#
# If this CIF has been generated from an entry in the Cambridge 
# Structural Database, then it will include bibliographic, chemical, 
# crystal, experimental, refinement or atomic coordinate data resulting 
# from the CCDC's data processing and validation procedures.
#
#######################################################################

data_GEVCOA
_symmetry_cell_setting           monoclinic
_symmetry_space_group_name_H-M   'P 21/c'
_symmetry_Int_Tables_number      14
_space_group_name_Hall           '-P 2ybc'
loop_
_symmetry_equiv_pos_site_id
_symmetry_equiv_pos_as_xyz
1 x,y,z
2 -x,1/2+y,1/2-z
3 -x,-y,-z
4 x,1/2-y,1/2+z
_cell_length_a                   5.9422(4)
_cell_length_b                   21.4433(16)
_cell_length_c                   13.1470(10)
_cell_angle_alpha                90
_cell_angle_beta                 100.290(2)
_cell_angle_gamma                90
_cell_volume                     1648.25
loop_
_atom_site_label
_atom_site_type_symbol
_atom_site_fract_x
_atom_site_fract_y
_atom_site_fract_z
O1 O 0.706(3) 0.5030(6) 0.0370(8)
O2 O 1.011(4) 0.4486(8) 0.0747(10)
Co1 Co 0.5000 0.5000 0.5000
F1 F -0.2027(4) 0.24733(11) 0.3505(2)
O3 O 0.7150(4) 0.50170(8) 0.39454(17)
O4 O 0.8575(5) 0.48538(13) 0.2537(2)
O5 O 0.3467(4) 0.42306(9) 0.42102(17)
N1 N 0.4900(5) 0.32966(12) 0.1679(2)
N2 N 0.2187(5) 0.25384(12) 0.1848(2)
N3 N -0.0412(5) 0.17533(12) 0.1956(2)
N4 N -0.2455(4) 0.05952(11) 0.1052(2)
H1 H -0.149(4) 0.0326(12) 0.135(2)
C1 C 0.7238(5) 0.47221(14) 0.3124(3)
C2 C 0.5685(5) 0.41691(13) 0.2850(2)
C3 C 0.6023(6) 0.38232(15) 0.2021(3)
H2 H 0.7130 0.3964 0.1657
C4 C 0.3197(5) 0.30808(14) 0.2186(2)
C5 C 0.0537(5) 0.23036(14) 0.2310(2)
C6 C -0.0179(5) 0.26604(15) 0.3104(3)
C7 C 0.0868(6) 0.31932(15) 0.3452(3)
H3 H 0.0380 0.3412 0.3983
C8 C 0.2695(5) 0.34199(13) 0.3018(2)
C9 C 0.3945(5) 0.39759(13) 0.3414(2)
C10 C 0.0489(6) 0.14329(17) 0.1137(3)
H4 H 0.1731 0.1160 0.1439
H5 H 0.1092 0.1737 0.0709
C11 C -0.1364(6) 0.10558(16) 0.0480(3)
H6 H -0.2527 0.1339 0.0134
H7 H -0.0711 0.0842 -0.0049
C12 C -0.3203(6) 0.09116(17) 0.1916(3)
H8 H -0.3773 0.0601 0.2344
H9 H -0.4466 0.1186 0.1645
C13 C -0.1356(7) 0.12932(17) 0.2594(3)
H10 H -0.2002 0.1505 0.3127
H11 H -0.0148 0.1019 0.2929
C14 C 0.5407(7) 0.29830(19) 0.0741(3)
H12 H 0.6999 0.3051 0.0695
H13 H 0.5174 0.2538 0.0798
C15 C 0.3952(10) 0.3215(3) -0.0206(4)
H14 H 0.2373 0.3160 -0.0155
H15 H 0.4278 0.2987 -0.0791
H16 H 0.4255 0.3650 -0.0291
Co1C Co -0.5000 0.0000 0.0000
Co1C_2 Co 1.5000 1.0000 1.0000
F1B F 1.2027(4) 0.75267(11) 0.6495(2)
O3B O 0.2850(4) 0.49830(8) 0.60546(17)
O4B O 0.1425(5) 0.51462(13) 0.7463(2)
O5B O 0.6533(4) 0.57694(9) 0.57898(17)
N1B N 0.5100(5) 0.67034(12) 0.8321(2)
N2B N 0.7813(5) 0.74616(12) 0.8152(2)
N3B N 1.0412(5) 0.82467(12) 0.8044(2)
N4B N 1.2455(4) 0.94048(11) 0.8948(2)
N4C N 0.7545(4) 0.44048(11) 0.6052(2)
N4A N 0.2455(4) 0.55952(11) 0.3948(2)
H1B H 1.149(4) 0.9674(12) 0.865(2)
H1C H 0.851(4) 0.4674(12) 0.635(2)
H1A H 0.149(4) 0.5326(12) 0.365(2)
C1B C 0.2762(5) 0.52779(14) 0.6876(3)
C2B C 0.4315(5) 0.58309(13) 0.7150(2)
C3B C 0.3977(6) 0.61768(15) 0.7979(3)
H2B H 0.2870 0.6036 0.8343
C4B C 0.6803(5) 0.69192(14) 0.7814(2)
C5B C 0.9463(5) 0.76964(14) 0.7690(2)
C6B C 1.0179(5) 0.73396(15) 0.6896(3)
C7B C 0.9132(6) 0.68068(15) 0.6548(3)
H3B H 0.9620 0.6588 0.6017
C8B C 0.7305(5) 0.65801(13) 0.6982(2)
C9B C 0.6055(5) 0.60241(13) 0.6586(2)
C10B C 0.9511(6) 0.85671(17) 0.8863(3)
H4B H 0.8269 0.8840 0.8561
H5B H 0.8908 0.8263 0.9291
C11B C 1.1364(6) 0.89442(16) 0.9520(3)
H6B H 1.2527 0.8661 0.9866
H7B H 1.0711 0.9158 1.0049
C12B C 1.3203(6) 0.90884(17) 0.8084(3)
H8B H 1.3773 0.9399 0.7656
H9B H 1.4466 0.8814 0.8355
C13B C 1.1356(7) 0.87068(17) 0.7406(3)
H10B H 1.2002 0.8495 0.6873
H11B H 1.0148 0.8981 0.7071
C14B C 0.4593(7) 0.70170(19) 0.9259(3)
H12B H 0.3001 0.6949 0.9305
H13B H 0.4826 0.7462 0.9202
C15B C 0.6048(10) 0.6785(3) 1.0206(4)
H14B H 0.7627 0.6840 1.0155
H15B H 0.5722 0.7013 1.0791
H16B H 0.5745 0.6350 1.0291
loop_
_geom_bond_atom_site_label_1
_geom_bond_atom_site_label_2
_geom_bond_site_symmetry_1
_geom_bond_site_symmetry_2
Co1 O3 1_555 1_555
F1 C6 1_555 1_555
O3 C1 1_555 1_555
O4 C1 1_555 1_555
O5 Co1 1_555 1_555
N1 C3 1_555 1_555
N2 C4 1_555 1_555
N3 C5 1_555 1_555
N4 H1 1_555 1_555
C1 C2 1_555 1_555
C2 C3 1_555 1_555
C3 H2 1_555 1_555
C4 N1 1_555 1_555
C5 N2 1_555 1_555
C6 C5 1_555 1_555
C7 C6 1_555 1_555
H3 C7 1_555 1_555
C8 C4 1_555 1_555
C9 O5 1_555 1_555
C10 N3 1_555 1_555
H4 C10 1_555 1_555
H5 C10 1_555 1_555
C11 N4 1_555 1_555
H6 C11 1_555 1_555
H7 C11 1_555 1_555
C12 N4 1_555 1_555
H8 C12 1_555 1_555
H9 C12 1_555 1_555
C13 N3 1_555 1_555
H10 C13 1_555 1_555
H11 C13 1_555 1_555
C14 N1 1_555 1_555
H12 C14 1_555 1_555
H13 C14 1_555 1_555
C15 C14 1_555 1_555
H14 C15 1_555 1_555
H15 C15 1_555 1_555
H16 C15 1_555 1_555
Co1C N4 1_555 1_555
Co1C_2 N4B 1_555 1_555
F1B C6B 1_555 1_555
O3B Co1 1_555 1_555
O4B C1B 1_555 1_555
O5B Co1 1_555 1_555
N1B C3B 1_555 1_555
N2B C4B 1_555 1_555
N3B C5B 1_555 1_555
N4B H1B 1_555 1_555
N4C Co1 1_555 1_555
N4A Co1 1_555 1_555
H1C N4C 1_555 1_555
H1A N4A 1_555 1_555
C1B O3B 1_555 1_555
C2B C1B 1_555 1_555
C3B C2B 1_555 1_555
H2B C3B 1_555 1_555
C4B N1B 1_555 1_555
C5B N2B 1_555 1_555
C6B C5B 1_555 1_555
C7B C6B 1_555 1_555
H3B C7B 1_555 1_555
C8B C4B 1_555 1_555
C9B O5B 1_555 1_555
C10B N3B 1_555 1_555
H4B C10B 1_555 1_555
H5B C10B 1_555 1_555
C11B N4B 1_555 1_555
H6B C11B 1_555 1_555
H7B C11B 1_555 1_555
C12B N4B 1_555 1_555
H8B C12B 1_555 1_555
H9B C12B 1_555 1_555
C13B N3B 1_555 1_555
H10B C13B 1_555 1_555
H11B C13B 1_555 1_555
C14B N1B 1_555 1_555
H12B C14B 1_555 1_555
H13B C14B 1_555 1_555
C15B C14B 1_555 1_555
H14B C15B 1_555 1_555
H15B C15B 1_555 1_555
H16B C15B 1_555 1_555
C2 C9 1_555 1_555
C7 C8 1_555 1_555
C8 C9 1_555 1_555
C10 C11 1_555 1_555
C12 C13 1_555 1_555
C2B C9B 1_555 1_555
C7B C8B 1_555 1_555
C8B C9B 1_555 1_555
C10B C11B 1_555 1_555
C12B C13B 1_555 1_555

#END
