
#######################################################################
#
#                 Cambridge Crystallographic Data Centre
#                                CCDC 
#
#######################################################################
#
# If this CIF has been generated from an entry in the Cambridge 
# Structural Database, then it will include bibliographic, chemical, 
# crystal, experimental, refinement or atomic coordinate data resulting 
# from the CCDC's data processing and validation procedures.
#
#######################################################################

data_GEVJEY
_symmetry_cell_setting           monoclinic
_symmetry_space_group_name_H-M   'P 21/c'
_symmetry_Int_Tables_number      14
_space_group_name_Hall           '-P 2ybc'
loop_
_symmetry_equiv_pos_site_id
_symmetry_equiv_pos_as_xyz
1 x,y,z
2 -x,1/2+y,1/2-z
3 -x,-y,-z
4 x,1/2-y,1/2+z
_cell_length_a                   11.0978(17)
_cell_length_b                   8.9876(14)
_cell_length_c                   23.030(4)
_cell_angle_alpha                90
_cell_angle_beta                 95.289(2)
_cell_angle_gamma                90
_cell_volume                     2287.29
loop_
_atom_site_label
_atom_site_type_symbol
_atom_site_fract_x
_atom_site_fract_y
_atom_site_fract_z
Eu1 Eu 0.703037(11) 0.667207(15) 0.265174(5)
O1 O 0.79961(19) 0.6419(2) 0.36394(8)
O2 O 0.74809(17) 0.4266(2) 0.32302(8)
O3 O 1.02087(18) 0.3827(2) 0.32897(8)
O4 O 0.9854(2) 0.1409(2) 0.34289(9)
O5 O 0.51957(18) 0.6514(2) 0.31661(8)
O6 O 0.62971(17) 0.8547(2) 0.33277(8)
O7 O 0.39376(17) 0.9697(2) 0.29261(8)
O8 O 0.29179(18) 1.1280(2) 0.34202(8)
O9 O 0.54724(19) 0.8275(2) 0.21209(9)
O10 O 0.81826(19) 0.8834(2) 0.25042(9)
O11 O 0.9004(2) 0.5775(3) 0.25028(9)
H1 H 0.938(3) 0.513(3) 0.2719(12)
H2 H 0.938(3) 0.598(4) 0.2209(10)
N1 N 0.8337(2) 0.4000(3) 0.57883(10)
N2 N 0.9719(2) 0.2291(3) 0.57446(10)
N3 N 0.4644(2) 0.6980(3) 0.55065(10)
N4 N 0.3311(2) 0.8854(3) 0.55082(10)
C1 C 0.8517(2) 0.4259(3) 0.41905(11)
C2 C 0.8106(2) 0.4667(3) 0.47177(11)
H3 H 0.7532 0.5444 0.4742
C3 C 0.8567(2) 0.3890(3) 0.52070(11)
C4 C 0.9438(2) 0.2787(3) 0.51801(11)
C5 C 0.9862(2) 0.2369(3) 0.46524(11)
H4 H 1.0453 0.1609 0.4633
C6 C 0.9380(2) 0.3116(3) 0.41560(12)
C7 C 0.9047(3) 0.3043(3) 0.60916(12)
H5 H 0.9073 0.2911 0.6502
C8 C 0.7972(2) 0.5026(3) 0.36490(11)
C9 C 0.9847(2) 0.2756(3) 0.35749(11)
C10 C 0.4741(2) 0.8079(3) 0.39539(12)
C11 C 0.5021(3) 0.7230(3) 0.44476(12)
H6 H 0.5564 0.6414 0.4443
C12 C 0.4485(2) 0.7602(3) 0.49526(12)
C13 C 0.3654(2) 0.8788(3) 0.49437(11)
C14 C 0.3347(2) 0.9628(3) 0.44484(11)
H7 H 0.2776 1.0415 0.4448
C15 C 0.3913(2) 0.9271(3) 0.39512(11)
C16 C 0.3930(3) 0.7773(3) 0.58135(12)
H8 H 0.3857 0.7598 0.6216
C17 C 0.5441(2) 0.7722(3) 0.34425(11)
C18 C 0.3578(2) 1.0137(3) 0.34034(11)
H9 H 0.496(3) 0.875(3) 0.2310(13)
H10 H 0.571(3) 0.883(3) 0.1853(12)
H11 H 0.785(3) 0.9697(19) 0.2485(14)
H12 H 0.875(3) 0.881(4) 0.2274(16)
H13 H 0.782(4) 0.461(5) 0.5919(17)
H14 H 1.033(4) 0.165(4) 0.5874(18)
H15 H 0.273(4) 0.944(5) 0.5622(18)
Eu1A Eu 0.296963(11) 1.167207(15) 0.234826(5)
O7A O 0.60624(17) 0.4697(2) 0.20739(8)
O8A O 0.70821(18) 0.6280(2) 0.15798(8)
O12 O 0.3289(2) 0.4069(2) 0.38945(9)
H16 H 0.297(3) 0.323(2) 0.3783(14)
H17 H 0.392(2) 0.389(3) 0.4133(12)
O13 O 0.84310(18) 0.9573(2) 0.39473(8)
H18 H 0.791(3) 0.909(4) 0.3724(12)
H19 H 0.886(3) 1.013(4) 0.3741(13)
O14 O 0.7393(2) 1.1673(3) 0.23517(12)
H20 H 0.749(4) 1.235(5) 0.2614(19)
H21 H 0.6657(17) 1.169(5) 0.2198(19)
loop_
_geom_bond_atom_site_label_1
_geom_bond_atom_site_label_2
_geom_bond_site_symmetry_1
_geom_bond_site_symmetry_2
Eu1 O1 1_555 1_555
O1 C8 1_555 1_555
O2 Eu1 1_555 1_555
O3 C9 1_555 1_555
O4 C9 1_555 1_555
O5 Eu1 1_555 1_555
O6 Eu1 1_555 1_555
O7 C18 1_555 1_555
O8 C18 1_555 1_555
O9 Eu1 1_555 1_555
O10 Eu1 1_555 1_555
O11 Eu1 1_555 1_555
H1 O11 1_555 1_555
H2 O11 1_555 1_555
N1 C3 1_555 1_555
N2 C4 1_555 1_555
N3 C12 1_555 1_555
N4 C13 1_555 1_555
C1 C2 1_555 1_555
C2 H3 1_555 1_555
C3 C2 1_555 1_555
C4 C3 1_555 1_555
C5 C4 1_555 1_555
H4 C5 1_555 1_555
C6 C1 1_555 1_555
C7 N1 1_555 1_555
H5 C7 1_555 1_555
C8 O2 1_555 1_555
C9 C6 1_555 1_555
C10 C11 1_555 1_555
C11 H6 1_555 1_555
C12 C11 1_555 1_555
C13 C12 1_555 1_555
C14 C13 1_555 1_555
H7 C14 1_555 1_555
C15 C10 1_555 1_555
C16 N3 1_555 1_555
H8 C16 1_555 1_555
C17 O5 1_555 1_555
C18 C15 1_555 1_555
H9 O9 1_555 1_555
H10 O9 1_555 1_555
H11 O10 1_555 1_555
H12 O10 1_555 1_555
H13 N1 1_555 1_555
H14 N2 1_555 1_555
H15 N4 1_555 1_555
O12 H16 1_555 1_555
H17 O12 1_555 1_555
O13 H18 1_555 1_555
H19 O13 1_555 1_555
O14 H20 1_555 1_555
H21 O14 1_555 1_555
Eu1A O7 1_555 1_555
O7A Eu1 1_555 1_555
O8A Eu1 1_555 1_555
O6 C17 1_555 1_555
O8 Eu1A 1_555 1_555
N2 C7 1_555 1_555
N4 C16 1_555 1_555
C1 C8 1_555 1_555
C5 C6 1_555 1_555
C10 C17 1_555 1_555
C14 C15 1_555 1_555

#END
