
#######################################################################
#
#                 Cambridge Crystallographic Data Centre
#                                CCDC 
#
#######################################################################
#
# If this CIF has been generated from an entry in the Cambridge 
# Structural Database, then it will include bibliographic, chemical, 
# crystal, experimental, refinement or atomic coordinate data resulting 
# from the CCDC's data processing and validation procedures.
#
#######################################################################

data_GEVJAT
_symmetry_cell_setting           monoclinic
_symmetry_space_group_name_H-M   'P 21/c'
_symmetry_Int_Tables_number      14
_space_group_name_Hall           '-P 2ybc'
loop_
_symmetry_equiv_pos_site_id
_symmetry_equiv_pos_as_xyz
1 x,y,z
2 -x,1/2+y,1/2-z
3 -x,-y,-z
4 x,1/2-y,1/2+z
_cell_length_a                   11.4260(13)
_cell_length_b                   11.2920(13)
_cell_length_c                   9.3237(10)
_cell_angle_alpha                90
_cell_angle_beta                 91.2390(10)
_cell_angle_gamma                90
_cell_volume                     1202.68
loop_
_atom_site_label
_atom_site_type_symbol
_atom_site_fract_x
_atom_site_fract_y
_atom_site_fract_z
Cu1 Cu 0.69156(2) 0.44096(2) 0.16419(3)
S1 S 0.41326(5) 0.42576(5) 0.17291(6)
O1 O 0.52924(13) 0.38809(13) 0.12036(17)
O2 O 0.37930(16) 0.35852(15) 0.29684(18)
O3 O 0.32683(15) 0.42319(15) 0.05598(18)
N1 N 0.75849(19) 0.3092(2) 0.0564(3)
N2 N 0.71672(16) 0.23415(17) -0.0142(2)
N3 N 0.6801(2) 0.1573(2) -0.0831(3)
N4 N 0.64604(17) 0.59051(16) 0.2671(2)
N5 N 0.85329(17) 0.49761(19) 0.2204(2)
C1 C 0.4312(2) 0.57496(19) 0.2268(3)
H1 H 0.4466 0.6230 0.1430
H2 H 0.3589 0.6028 0.2676
C2 C 0.5303(2) 0.5916(2) 0.3359(3)
H3 H 0.5200 0.6663 0.3854
H4 H 0.5275 0.5286 0.4066
C3 C 0.7395(2) 0.6212(2) 0.3730(3)
H5 H 0.7247 0.5818 0.4633
H6 H 0.7394 0.7060 0.3898
C4 C 0.8559(2) 0.5841(2) 0.3193(3)
C5 C 0.9546(2) 0.4559(3) 0.1703(4)
H7 H 0.9525 0.3957 0.1022
C6 C 1.0611(3) 0.4992(4) 0.2163(5)
H8 H 1.1301 0.4692 0.1796
C7 C 1.0641(3) 0.5865(4) 0.3161(6)
H9 H 1.1354 0.6166 0.3492
C8 C 0.9610(3) 0.6304(3) 0.3683(4)
H10 H 0.9622 0.6908 0.4360
H11 H 0.647(2) 0.650(2) 0.196(3)
Cu1B Cu 0.30844(2) 0.55904(2) -0.16419(3)
Cu1C Cu 0.69156(2) 0.05904(2) -0.33581(3)
O3B O 0.67317(15) 0.57681(15) -0.05598(18)
N3C N 0.6801(2) 0.3427(2) 0.4169(3)
loop_
_geom_bond_atom_site_label_1
_geom_bond_atom_site_label_2
_geom_bond_site_symmetry_1
_geom_bond_site_symmetry_2
Cu1 O1 1_555 1_555
S1 O1 1_555 1_555
O2 S1 1_555 1_555
O3 S1 1_555 1_555
N1 Cu1 1_555 1_555
N2 N1 1_555 1_555
N3 N2 1_555 1_555
N4 Cu1 1_555 1_555
N5 Cu1 1_555 1_555
C1 S1 1_555 1_555
H1 C1 1_555 1_555
H2 C1 1_555 1_555
C2 N4 1_555 1_555
H3 C2 1_555 1_555
H4 C2 1_555 1_555
C3 N4 1_555 1_555
H5 C3 1_555 1_555
H6 C3 1_555 1_555
C4 N5 1_555 1_555
C5 N5 1_555 1_555
H7 C5 1_555 1_555
C6 C5 1_555 1_555
H8 C6 1_555 1_555
C7 C6 1_555 1_555
H9 C7 1_555 1_555
C8 C4 1_555 1_555
H10 C8 1_555 1_555
H11 N4 1_555 1_555
Cu1B O3 1_555 1_555
Cu1C N3 1_555 1_555
O3B Cu1 1_555 1_555
N3C Cu1 1_555 1_555
C1 C2 1_555 1_555
C3 C4 1_555 1_555
C7 C8 1_555 1_555

#END
