
#######################################################################
#
#                 Cambridge Crystallographic Data Centre
#                                CCDC 
#
#######################################################################
#
# If this CIF has been generated from an entry in the Cambridge 
# Structural Database, then it will include bibliographic, chemical, 
# crystal, experimental, refinement or atomic coordinate data resulting 
# from the CCDC's data processing and validation procedures.
#
#######################################################################

data_GEVJIC01
_symmetry_cell_setting           monoclinic
_symmetry_space_group_name_H-M   'P 21/c'
_symmetry_Int_Tables_number      14
_space_group_name_Hall           '-P 2ybc'
loop_
_symmetry_equiv_pos_site_id
_symmetry_equiv_pos_as_xyz
1 x,y,z
2 -x,1/2+y,1/2-z
3 -x,-y,-z
4 x,1/2-y,1/2+z
_cell_length_a                   11.196(8)
_cell_length_b                   8.962(6)
_cell_length_c                   23.138(16)
_cell_angle_alpha                90
_cell_angle_beta                 94.772(8)
_cell_angle_gamma                90
_cell_volume                     2313.59
loop_
_atom_site_label
_atom_site_type_symbol
_atom_site_fract_x
_atom_site_fract_y
_atom_site_fract_z
Dy1 Dy 0.298306(17) 0.83991(2) 0.235002(8)
O1 O 0.3935(3) 1.0375(3) 0.29115(12)
O2 O 0.2954(3) 0.8763(3) 0.34076(13)
O3 O 0.5235(3) 1.3575(3) 0.31691(14)
O4 O 0.6303(3) 1.1533(3) 0.33203(13)
O5 O 0.1948(3) 0.8598(3) 0.13972(14)
O6 O 0.2548(3) 1.0748(3) 0.17622(13)
O7 O 0.0101(3) 1.3635(4) 0.15579(15)
O8 O -0.0178(3) 1.1211(4) 0.17272(14)
H1 H -0.0413 1.1528 0.2031
O9 O 0.1836(3) 0.6279(3) 0.25050(14)
H2 H 0.2142 0.5819 0.2803
H3 H 0.1830 0.5711 0.2211
O10 O 0.1072(3) 0.9354(4) 0.25333(15)
H4 H 0.0914 0.9102 0.2873
H5 H 0.1082 1.0300 0.2508
O11 O 0.4516(3) 0.6812(3) 0.28650(14)
H6 H 0.4324 0.6650 0.3207
H7 H 0.4557 0.5987 0.2686
N1 N 0.3325(3) 1.1127(4) 0.54898(15)
H8 H 0.2819 1.0508 0.5615
N2 N 0.4637(4) 1.2996(4) 0.54999(16)
N3 N 0.1658(3) 1.0958(4) -0.07726(15)
H9 H 0.2169 1.0365 -0.0909
N4 N 0.0286(4) 1.2682(4) -0.07347(15)
C1 C 0.3930(4) 1.2186(5) 0.58012(19)
H10 H 0.3857 1.2334 0.6194
C2 C 0.4478(4) 1.2405(5) 0.49437(18)
C3 C 0.5007(4) 1.2800(5) 0.44445(19)
H11 H 0.5532 1.3605 0.4446
C4 C 0.4743(4) 1.1982(4) 0.39456(18)
C5 C 0.3919(4) 1.0776(5) 0.39394(18)
C6 C 0.3361(4) 1.0405(5) 0.44330(18)
H12 H 0.2802 0.9636 0.4427
C7 C 0.3661(4) 1.1212(5) 0.49350(18)
C8 C 0.3594(4) 0.9919(5) 0.33883(17)
C9 C 0.5456(4) 1.2357(5) 0.34418(18)
C10 C 0.0958(5) 1.1906(5) -0.1075(2)
H13 H 0.0936 1.2018 -0.1475
C11 C 0.1426(4) 1.1083(5) -0.01961(19)
C12 C 0.1886(4) 1.0318(5) 0.02978(18)
H14 H 0.2445 0.9557 0.0276
C13 C 0.1475(4) 1.0740(5) 0.08229(18)
C14 C 0.0615(4) 1.1894(4) 0.08523(18)
C15 C 0.0157(4) 1.2623(5) 0.03590(19)
H15 H -0.0408 1.3378 0.0378
C16 C 0.0565(4) 1.2195(5) -0.01705(19)
C17 C 0.2017(4) 1.0000(5) 0.13654(18)
C18 C 0.0153(4) 1.2281(5) 0.14317(19)
Dy1A Dy 0.701694(17) 1.33991(2) 0.264998(8)
O3A O 0.4765(3) 0.8575(3) 0.18309(14)
O4A O 0.3697(3) 0.6533(3) 0.16797(13)
O12 O 0.3250(3) 0.6031(4) 0.39239(17)
H16 H 0.3397 0.6638 0.4203
H17 H 0.3814 0.5396 0.3922
O13 O 0.1562(3) 0.5473(3) 0.10428(13)
H18 H 0.2259 0.5522 0.1218
H19 H 0.1046 0.5384 0.1290
O14 O 0.2588(5) 0.3416(4) 0.2642(2)
H20 H 0.2443 0.2983 0.2317
H21 H 0.3235 0.3073 0.2810
loop_
_geom_bond_atom_site_label_1
_geom_bond_atom_site_label_2
_geom_bond_site_symmetry_1
_geom_bond_site_symmetry_2
Dy1 O1 1_555 1_555
O1 C8 1_555 1_555
O2 Dy1 1_555 1_555
O3 C9 1_555 1_555
O4 C9 1_555 1_555
O5 Dy1 1_555 1_555
O6 Dy1 1_555 1_555
O7 C18 1_555 1_555
O8 H1 1_555 1_555
O9 Dy1 1_555 1_555
H2 O9 1_555 1_555
H3 O9 1_555 1_555
O10 Dy1 1_555 1_555
H4 O10 1_555 1_555
H5 O10 1_555 1_555
O11 Dy1 1_555 1_555
H6 O11 1_555 1_555
H7 O11 1_555 1_555
N1 H8 1_555 1_555
N2 C1 1_555 1_555
N3 H9 1_555 1_555
N4 C10 1_555 1_555
C1 N1 1_555 1_555
H10 C1 1_555 1_555
C2 N2 1_555 1_555
C3 C2 1_555 1_555
H11 C3 1_555 1_555
C4 C3 1_555 1_555
C5 C4 1_555 1_555
C6 C5 1_555 1_555
H12 C6 1_555 1_555
C7 N1 1_555 1_555
C8 O2 1_555 1_555
C9 C4 1_555 1_555
C10 N3 1_555 1_555
H13 C10 1_555 1_555
C11 N3 1_555 1_555
C12 C11 1_555 1_555
H14 C12 1_555 1_555
C13 C12 1_555 1_555
C14 C13 1_555 1_555
C15 C14 1_555 1_555
H15 C15 1_555 1_555
C16 N4 1_555 1_555
C17 O5 1_555 1_555
C18 O8 1_555 1_555
O12 H16 1_555 1_555
H17 O12 1_555 1_555
O13 H18 1_555 1_555
H19 O13 1_555 1_555
O14 H20 1_555 1_555
H21 O14 1_555 1_555
Dy1A O3 1_555 1_555
O3A Dy1 1_555 1_555
O4A Dy1 1_555 1_555
O4 Dy1A 1_555 1_555
O6 C17 1_555 1_555
C2 C7 1_555 1_555
C5 C8 1_555 1_555
C6 C7 1_555 1_555
C11 C16 1_555 1_555
C13 C17 1_555 1_555
C14 C18 1_555 1_555
C15 C16 1_555 1_555

#END
