
#######################################################################
#
#                 Cambridge Crystallographic Data Centre
#                                CCDC 
#
#######################################################################
#
# If this CIF has been generated from an entry in the Cambridge 
# Structural Database, then it will include bibliographic, chemical, 
# crystal, experimental, refinement or atomic coordinate data resulting 
# from the CCDC's data processing and validation procedures.
#
#######################################################################

data_GEVNUS
_symmetry_cell_setting           monoclinic
_symmetry_space_group_name_H-M   'P 21/c'
_symmetry_Int_Tables_number      14
_space_group_name_Hall           '-P 2ybc'
loop_
_symmetry_equiv_pos_site_id
_symmetry_equiv_pos_as_xyz
1 x,y,z
2 -x,1/2+y,1/2-z
3 -x,-y,-z
4 x,1/2-y,1/2+z
_cell_length_a                   17.2577(17)
_cell_length_b                   11.8391(12)
_cell_length_c                   19.1020(19)
_cell_angle_alpha                90
_cell_angle_beta                 105.8110(10)
_cell_angle_gamma                90
_cell_volume                     3755.18
loop_
_atom_site_label
_atom_site_type_symbol
_atom_site_fract_x
_atom_site_fract_y
_atom_site_fract_z
Mo1 Mo 0.22839(4) 0.42551(5) 0.20981(3)
Cu1 Cu 0.21770(6) 0.70207(8) 0.08001(5)
Cu2 Cu 0.27230(6) 0.13298(7) 0.37976(5)
P1 P 0.37355(12) 0.60258(16) 0.18000(11)
P2 P 0.38786(11) 0.28265(16) 0.32743(11)
P3 P 0.27232(12) 0.40315(16) 0.38542(11)
O1 O 0.2370(3) 0.2875(4) 0.3854(3)
O2 O 0.3724(3) 0.1698(4) 0.3584(3)
O3 O 0.2598(4) 0.4746(4) 0.4483(3)
H1 H 0.2096 0.4805 0.4438
O4 O 0.2376(3) 0.4692(4) 0.3147(3)
O5 O 0.3230(3) 0.3110(4) 0.2577(3)
O6 O 0.4726(3) 0.2921(5) 0.3174(4)
H2 H 0.4780 0.2431 0.2865
P4 P 0.28173(12) 0.45692(17) 0.05906(11)
O7 O 0.2289(3) 0.5580(4) 0.0340(3)
O8 O 0.3361(3) 0.5329(4) 0.2292(3)
O9 O 0.4583(3) 0.6383(5) 0.2238(3)
O10 O 0.2534(3) 0.3890(4) 0.1178(3)
O11 O 0.3248(3) 0.7031(4) 0.1450(3)
N1 N 0.2919(4) -0.0301(5) 0.3625(4)
N2 N 0.1923(4) 0.8495(5) 0.1223(4)
N3 N 0.1569(4) 0.0804(5) 0.3546(3)
N4 N 0.0977(4) 0.7068(5) 0.0337(3)
C1 C 0.3796(5) 0.3898(6) 0.3943(4)
O12 O 0.2862(4) 0.3754(4) 0.0001(3)
O13 O 0.4130(3) 0.4971(5) 0.3789(3)
H3 H 0.4087 0.5454 0.4106
O14 O 0.4309(4) 0.4096(5) 0.1402(4)
H4 H 0.4777 0.4323 0.1631
C2 C 0.1123(5) 0.8758(6) 0.1020(4)
C3 C 0.0610(5) 0.7981(6) 0.0545(4)
C4 C 0.3824(5) 0.5061(6) 0.1084(4)
C5 C 0.1504(5) -0.0325(6) 0.3401(4)
C6 C 0.2228(5) -0.0917(6) 0.3441(4)
C7 C 0.0806(6) 0.9748(7) 0.1222(5)
C8 C 0.0756(5) -0.0878(7) 0.3189(5)
C9 C 0.4260(6) 0.3538(8) 0.4702(5)
H5 H 0.4211 0.4107 0.5046
H6 H 0.4041 0.2839 0.4818
H7 H 0.4818 0.3434 0.4725
C10 C -0.0207(5) 0.8177(7) 0.0310(4)
C11 C 0.4230(6) 0.5622(8) 0.0561(5)
H8 H 0.4756 0.5878 0.0826
H9 H 0.4279 0.5091 0.0195
H10 H 0.3914 0.6256 0.0332
C12 C 0.0906(5) 0.1384(7) 0.3480(5)
H11 H 0.0952 0.2182 0.3571
C13 C 0.2437(6) 0.9236(7) 0.1633(5)
H12 H 0.3002 0.9068 0.1771
C14 C 0.0528(6) 0.6331(7) -0.0116(5)
H13 H 0.0781 0.5688 -0.0266
O15 O 0.1714(3) 0.5409(4) 0.1789(3)
O16 O 0.1584(3) 0.3235(4) 0.2041(3)
C15 C 0.3654(6) -0.1960(7) 0.3498(6)
H14 H 0.4164 -0.2304 0.3523
C16 C 0.2223(5) -0.2064(7) 0.3298(5)
C17 C 0.0146(5) 0.0900(7) 0.3292(5)
H15 H -0.0322 0.1353 0.3271
C18 C 0.0063(5) -0.0248(8) 0.3129(5)
H16 H -0.0458 -0.0598 0.2982
C19 C 0.1454(6) -0.2638(7) 0.3098(6)
H17 H 0.1437 -0.3432 0.2992
C20 C -0.0313(5) 0.6470(8) -0.0373(5)
H18 H -0.0625 0.5918 -0.0699
C21 C -0.0045(6) 0.9908(8) 0.0985(5)
H19 H -0.0273 1.0566 0.1146
C22 C 0.3596(5) -0.0813(7) 0.3642(5)
H20 H 0.4081 -0.0372 0.3762
C23 C -0.0518(6) 0.9170(8) 0.0560(6)
H21 H -0.1089 0.9300 0.0414
C24 C -0.0682(6) 0.7362(8) -0.0172(5)
H22 H -0.1255 0.7455 -0.0348
C25 C 0.2940(6) -0.2587(7) 0.3313(6)
H23 H 0.2951 -0.3377 0.3201
C26 C 0.1355(7) 1.0517(7) 0.1653(5)
H24 H 0.1164 1.1209 0.1809
C27 C 0.2166(7) 1.0271(8) 0.1856(5)
H25 H 0.2545 1.0790 0.2151
C28 C 0.0761(6) -0.2085(7) 0.3055(5)
H26 H 0.0259 -0.2488 0.2937
O17 O 0.2680(6) 0.8030(6) -0.0014(5)
H27 H 0.3191 0.8053 0.0141
H28 H 0.2545 0.7707 -0.0427
Cu2C Cu 0.27230(6) 0.36702(7) -0.12024(5)
O12C O 0.2862(4) 0.1246(4) 0.5001(3)
O18 O 0.2706(5) 0.3403(6) 0.5502(4)
H29 H 0.2586 0.3021 0.5834
H30 H 0.3170 0.3695 0.5668
loop_
_geom_bond_atom_site_label_1
_geom_bond_atom_site_label_2
_geom_bond_site_symmetry_1
_geom_bond_site_symmetry_2
Mo1 O4 1_555 1_555
Cu1 O7 1_555 1_555
Cu2 O1 1_555 1_555
P1 O8 1_555 1_555
P2 O2 1_555 1_555
P3 O1 1_555 1_555
O2 Cu2 1_555 1_555
O3 P3 1_555 1_555
H1 O3 1_555 1_555
O4 P3 1_555 1_555
O5 Mo1 1_555 1_555
O6 P2 1_555 1_555
H2 O6 1_555 1_555
P4 O7 1_555 1_555
O8 Mo1 1_555 1_555
O9 P1 1_555 1_555
O10 Mo1 1_555 1_555
O11 Cu1 1_555 1_555
N1 Cu2 1_555 1_555
N2 Cu1 1_555 1_555
N3 Cu2 1_555 1_555
N4 Cu1 1_555 1_555
C1 P2 1_555 1_555
O12 P4 1_555 1_555
O13 C1 1_555 1_555
H3 O13 1_555 1_555
O14 H4 1_555 1_555
C2 N2 1_555 1_555
C3 N4 1_555 1_555
C4 P1 1_555 1_555
C5 N3 1_555 1_555
C6 N1 1_555 1_555
C7 C2 1_555 1_555
C8 C5 1_555 1_555
C9 C1 1_555 1_555
H5 C9 1_555 1_555
H6 C9 1_555 1_555
H7 C9 1_555 1_555
C10 C3 1_555 1_555
C11 C4 1_555 1_555
H8 C11 1_555 1_555
H9 C11 1_555 1_555
H10 C11 1_555 1_555
C12 N3 1_555 1_555
H11 C12 1_555 1_555
C13 N2 1_555 1_555
H12 C13 1_555 1_555
C14 N4 1_555 1_555
H13 C14 1_555 1_555
O15 Mo1 1_555 1_555
O16 Mo1 1_555 1_555
C15 H14 1_555 1_555
C16 C6 1_555 1_555
C17 C12 1_555 1_555
H15 C17 1_555 1_555
C18 C8 1_555 1_555
H16 C18 1_555 1_555
C19 C16 1_555 1_555
H17 C19 1_555 1_555
C20 C14 1_555 1_555
H18 C20 1_555 1_555
C21 C7 1_555 1_555
H19 C21 1_555 1_555
C22 N1 1_555 1_555
H20 C22 1_555 1_555
C23 C10 1_555 1_555
H21 C23 1_555 1_555
C24 C10 1_555 1_555
H22 C24 1_555 1_555
C25 C15 1_555 1_555
H23 C25 1_555 1_555
C26 C7 1_555 1_555
H24 C26 1_555 1_555
C27 C13 1_555 1_555
H25 C27 1_555 1_555
C28 C8 1_555 1_555
H26 C28 1_555 1_555
O17 Cu1 1_555 1_555
H27 O17 1_555 1_555
H28 O17 1_555 1_555
O18 H29 1_555 1_555
H30 O18 1_555 1_555
Cu2C O12 1_555 1_555
O12C Cu2 1_555 1_555
P1 O11 1_555 1_555
P2 O5 1_555 1_555
P3 C1 1_555 1_555
P4 O10 1_555 1_555
P4 C4 1_555 1_555
O14 C4 1_555 1_555
C2 C3 1_555 1_555
C5 C6 1_555 1_555
C15 C22 1_555 1_555
C16 C25 1_555 1_555
C17 C18 1_555 1_555
C19 C28 1_555 1_555
C20 C24 1_555 1_555
C21 C23 1_555 1_555
C26 C27 1_555 1_555

#END
