
#######################################################################
#
#                 Cambridge Crystallographic Data Centre
#                                CCDC 
#
#######################################################################
#
# If this CIF has been generated from an entry in the Cambridge 
# Structural Database, then it will include bibliographic, chemical, 
# crystal, experimental, refinement or atomic coordinate data resulting 
# from the CCDC's data processing and validation procedures.
#
#######################################################################

data_GEWMOM
_symmetry_cell_setting           monoclinic
_symmetry_space_group_name_H-M   'P 21/c'
_symmetry_Int_Tables_number      14
_space_group_name_Hall           '-P 2ybc'
loop_
_symmetry_equiv_pos_site_id
_symmetry_equiv_pos_as_xyz
1 x,y,z
2 -x,1/2+y,1/2-z
3 -x,-y,-z
4 x,1/2-y,1/2+z
_cell_length_a                   25.5990(9)
_cell_length_b                   10.7891(4)
_cell_length_c                   26.9584(9)
_cell_angle_alpha                90
_cell_angle_beta                 102.229(3)
_cell_angle_gamma                90
_cell_volume                     7276.69
loop_
_atom_site_label
_atom_site_type_symbol
_atom_site_fract_x
_atom_site_fract_y
_atom_site_fract_z
Fe1 Fe 0.39859(2) 0.82254(5) 0.18717(2)
N1 N 0.35190(13) 0.8664(3) 0.23378(11)
N2 N 0.34259(13) 0.8639(3) 0.12828(11)
N3 N 0.43605(13) 0.7414(3) 0.13959(12)
N4 N 0.36214(13) 0.6582(3) 0.18505(11)
N5 N 0.56728(14) 0.4846(3) 0.31255(12)
N6 N 0.45462(14) 0.7705(3) 0.24448(12)
N7 N 0.52842(15) 0.6937(3) 0.31197(13)
C1 C 0.33959(18) 0.9792(4) 0.24860(15)
H1 H 0.3557 1.0482 0.2375
C2 C 0.30379(19) 0.9964(4) 0.27972(17)
H2 H 0.2960 1.0757 0.2896
C3 C 0.27996(19) 0.8951(4) 0.29575(17)
H3 H 0.2556 0.9049 0.3166
C4 C 0.29207(19) 0.7785(4) 0.28089(15)
H4 H 0.2757 0.7091 0.2913
C5 C 0.32853(16) 0.7657(4) 0.25059(14)
C6 C 0.34728(18) 0.6432(3) 0.23481(14)
H5 H 0.3779 0.6148 0.2599
H6 H 0.3190 0.5821 0.2323
C7 C 0.33801(17) 0.9696(4) 0.10109(14)
H7 H 0.3613 1.0345 0.1127
C8 C 0.3005(2) 0.9852(4) 0.05708(15)
H8 H 0.2977 1.0606 0.0400
C9 C 0.2674(2) 0.8893(4) 0.03847(16)
H9 H 0.2423 0.8974 0.0081
C10 C 0.27176(18) 0.7804(4) 0.06557(15)
H10 H 0.2496 0.7137 0.0536
C11 C 0.30876(17) 0.7705(4) 0.11007(14)
C12 C 0.31306(18) 0.6573(4) 0.14325(15)
H11 H 0.2817 0.6523 0.1580
H12 H 0.3136 0.5841 0.1225
C13 C 0.46100(17) 0.7943(4) 0.10650(14)
H13 H 0.4642 0.8802 0.1070
C14 C 0.48232(18) 0.7291(4) 0.07159(15)
H14 H 0.4995 0.7697 0.0492
C15 C 0.47738(19) 0.6013(5) 0.07084(17)
H15 H 0.4915 0.5545 0.0479
C16 C 0.45126(19) 0.5436(4) 0.10447(16)
H16 H 0.4477 0.4578 0.1046
C17 C 0.43074(17) 0.6159(4) 0.13774(15)
C18 C 0.40140(17) 0.5643(3) 0.17599(16)
H17 H 0.3831 0.4883 0.1632
H18 H 0.4264 0.5457 0.2075
C19 C 0.54711(16) 0.5809(4) 0.31014(14)
C20 C 0.48924(17) 0.7301(4) 0.27517(15)
Fe1A Fe 0.60141(2) 0.32254(5) 0.31283(2)
N5A N 0.43272(14) 0.9846(3) 0.18745(12)
Fe2 Fe -0.09427(3) 0.54508(5) 0.20198(2)
N8 N -0.06049(14) 0.6399(3) 0.15457(12)
N9 N -0.16050(14) 0.5314(3) 0.15033(12)
N10 N -0.13166(14) 0.4909(3) 0.25575(12)
N11 N -0.12260(15) 0.7124(3) 0.21655(12)
N12 N 0.06961(15) 0.8803(3) 0.31256(13)
N13 N -0.02961(15) 0.5725(3) 0.25502(13)
N14 N 0.04158(15) 0.6649(3) 0.32147(13)
C21 C -0.03793(18) 0.5949(4) 0.11757(15)
H19 H -0.0378 0.5097 0.1124
C22 C -0.01497(19) 0.6711(5) 0.08709(17)
H20 H 0.0005 0.6375 0.0619
C23 C -0.0152(2) 0.7966(5) 0.09434(19)
H21 H 0.0005 0.8492 0.0744
C24 C -0.03907(19) 0.8445(4) 0.13192(17)
H22 H -0.0402 0.9296 0.1372
C25 C -0.06110(18) 0.7631(4) 0.16120(16)
C26 C -0.08470(19) 0.8064(4) 0.20500(17)
H23 H -0.0563 0.8197 0.2347
H24 H -0.1032 0.8845 0.1964
C27 C -0.1753(2) 0.4371(4) 0.11737(15)
H25 H -0.1506 0.3747 0.1159
C28 C -0.2250(2) 0.4289(4) 0.08596(16)
H26 H -0.2338 0.3626 0.0637
C29 C -0.2617(2) 0.5225(4) 0.08840(17)
H27 H -0.2961 0.5180 0.0686
C30 C -0.24683(19) 0.6213(4) 0.12023(16)
H28 H -0.2706 0.6858 0.1215
C31 C -0.19611(17) 0.6236(4) 0.15029(15)
C32 C -0.17729(18) 0.7300(4) 0.18422(16)
H29 H -0.2023 0.7437 0.2061
H30 H -0.1772 0.8038 0.1637
C33 C -0.14355(18) 0.3754(4) 0.26730(16)
H31 H -0.1353 0.3106 0.2475
C34 C -0.1674(2) 0.3482(4) 0.30712(17)
H32 H -0.1749 0.2667 0.3143
C35 C -0.1798(2) 0.4444(4) 0.33617(17)
H33 H -0.1958 0.4286 0.3635
C36 C -0.16835(19) 0.5638(4) 0.32441(16)
H34 H -0.1772 0.6300 0.3431
C37 C -0.14354(18) 0.5839(4) 0.28454(15)
C38 C -0.12540(19) 0.7118(4) 0.27087(14)
H35 H -0.1505 0.7743 0.2771
H36 H -0.0905 0.7308 0.2917
C39 C 0.05477(18) 0.7805(4) 0.31520(16)
C40 C 0.00350(18) 0.6185(4) 0.28523(16)
Fe2A Fe 0.09427(3) 1.04508(5) 0.29802(2)
N12A N -0.06961(15) 0.3803(3) 0.18744(13)
C41 C 0.0898(2) 0.5272(4) 0.01500(16)
H37 H 0.0767 0.4478 0.0066
C42 C 0.0672(2) 0.6263(5) -0.01532(18)
H38 H 0.0391 0.6123 -0.0428
C43 C 0.0866(2) 0.7454(5) -0.00471(18)
H39 H 0.0725 0.8115 -0.0254
C44 C 0.1268(2) 0.7635(5) 0.03682(19)
H40 H 0.1400 0.8428 0.0448
C45 C 0.14780(19) 0.6644(4) 0.06706(17)
H41 H 0.1746 0.6802 0.0955
C46 C 0.13117(17) 0.5421(4) 0.05728(15)
C47 C 0.13695(19) 0.2202(4) 0.04567(16)
H42 H 0.1671 0.2381 0.0328
C48 C 0.1085(2) 0.1140(4) 0.02942(16)
H43 H 0.1193 0.0632 0.0056
C49 C 0.0642(2) 0.0821(4) 0.04807(16)
H44 H 0.0451 0.0102 0.0372
C50 C 0.04900(19) 0.1587(4) 0.08295(17)
H45 H 0.0195 0.1383 0.0963
C51 C 0.07731(18) 0.2666(4) 0.09845(16)
H46 H 0.0657 0.3176 0.1218
C52 C 0.12257(17) 0.3022(4) 0.08059(14)
C53 C 0.24195(18) 0.4400(4) 0.05186(16)
H47 H 0.2226 0.4934 0.0277
C54 C 0.29287(19) 0.4026(4) 0.04701(17)
H48 H 0.3064 0.4302 0.0195
C55 C 0.32307(19) 0.3260(4) 0.08224(17)
H49 H 0.3572 0.3024 0.0794
C56 C 0.30193(19) 0.2846(4) 0.12186(17)
H50 H 0.3217 0.2321 0.1461
C57 C 0.25138(18) 0.3208(4) 0.12575(16)
H51 H 0.2379 0.2904 0.1528
C58 C 0.21921(17) 0.4005(4) 0.09138(14)
C59 C 0.10433(17) 0.5209(4) 0.16100(16)
H52 H 0.0753 0.5212 0.1336
C60 C 0.09623(19) 0.5614(4) 0.20821(16)
H53 H 0.0626 0.5874 0.2118
C61 C 0.13877(19) 0.5621(4) 0.24926(16)
H54 H 0.1338 0.5863 0.2810
C62 C 0.18844(19) 0.5270(4) 0.24309(15)
H55 H 0.2175 0.5295 0.2704
C63 C 0.19529(17) 0.4874(3) 0.19547(15)
H56 H 0.2294 0.4648 0.1921
C64 C 0.15389(17) 0.4801(4) 0.15305(15)
B1 B 0.1570(2) 0.4311(4) 0.09528(17)
C65 C 0.25325(18) 0.5820(4) 0.39164(15)
H57 H 0.2672 0.6472 0.3760
C66 C 0.19946(18) 0.5823(4) 0.39115(15)
H58 H 0.1782 0.6465 0.3750
C67 C 0.17657(18) 0.4890(4) 0.41425(16)
H59 H 0.1402 0.4893 0.4140
C68 C 0.20919(18) 0.3951(4) 0.43781(15)
H60 H 0.1949 0.3309 0.4537
C69 C 0.26357(17) 0.3965(4) 0.43785(15)
H61 H 0.2847 0.3325 0.4543
C70 C 0.28804(17) 0.4886(4) 0.41456(14)
C71 C 0.36272(18) 0.7131(4) 0.45307(16)
H62 H 0.3460 0.6801 0.4775
C72 C 0.37753(18) 0.8364(4) 0.45665(17)
H63 H 0.3714 0.8838 0.4837
C73 C 0.40124(18) 0.8897(4) 0.42066(18)
H64 H 0.4105 0.9732 0.4226
C74 C 0.41100(19) 0.8177(4) 0.38197(17)
H65 H 0.4272 0.8524 0.3575
C75 C 0.39686(18) 0.6925(4) 0.37884(15)
H66 H 0.4044 0.6454 0.3523
C76 C 0.37188(16) 0.6357(4) 0.41402(14)
C77 C 0.40883(18) 0.4073(4) 0.34774(15)
H67 H 0.4384 0.4314 0.3722
C78 C 0.41723(19) 0.3546(4) 0.30294(16)
H68 H 0.4518 0.3437 0.2980
C79 C 0.3741(2) 0.3189(4) 0.26588(15)
H69 H 0.3792 0.2849 0.2356
C80 C 0.32377(19) 0.3341(4) 0.27436(15)
H70 H 0.2945 0.3084 0.2499
C81 C 0.31580(17) 0.3877(3) 0.31914(14)
H71 H 0.2810 0.3986 0.3234
C82 C 0.35789(16) 0.4256(4) 0.35776(14)
C83 C 0.38556(17) 0.2782(4) 0.45856(15)
H72 H 0.3620 0.2386 0.4323
C84 C 0.41550(17) 0.2062(4) 0.49650(15)
H73 H 0.4111 0.1206 0.4960
C85 C 0.45196(17) 0.2611(4) 0.53513(15)
H74 H 0.4726 0.2132 0.5606
C86 C 0.45729(17) 0.3876(4) 0.53544(15)
H75 H 0.4819 0.4259 0.5612
C87 C 0.42616(16) 0.4589(4) 0.49740(14)
H76 H 0.4306 0.5445 0.4987
C88 C 0.38872(16) 0.4086(4) 0.45743(14)
B2 B 0.35192(19) 0.4901(4) 0.41130(17)
loop_
_geom_bond_atom_site_label_1
_geom_bond_atom_site_label_2
_geom_bond_site_symmetry_1
_geom_bond_site_symmetry_2
Fe1 N1 1_555 1_555
N1 C1 1_555 1_555
N2 Fe1 1_555 1_555
N3 Fe1 1_555 1_555
N4 Fe1 1_555 1_555
N5 C19 1_555 1_555
N6 Fe1 1_555 1_555
N7 C19 1_555 1_555
C1 H1 1_555 1_555
C2 C1 1_555 1_555
H2 C2 1_555 1_555
C3 C2 1_555 1_555
H3 C3 1_555 1_555
C4 C3 1_555 1_555
H4 C4 1_555 1_555
C5 N1 1_555 1_555
C6 N4 1_555 1_555
H5 C6 1_555 1_555
H6 C6 1_555 1_555
C7 N2 1_555 1_555
H7 C7 1_555 1_555
C8 C7 1_555 1_555
H8 C8 1_555 1_555
C9 C8 1_555 1_555
H9 C9 1_555 1_555
C10 C9 1_555 1_555
H10 C10 1_555 1_555
C11 N2 1_555 1_555
C12 N4 1_555 1_555
H11 C12 1_555 1_555
H12 C12 1_555 1_555
C13 N3 1_555 1_555
H13 C13 1_555 1_555
C14 C13 1_555 1_555
H14 C14 1_555 1_555
C15 C14 1_555 1_555
H15 C15 1_555 1_555
C16 C15 1_555 1_555
H16 C16 1_555 1_555
C17 N3 1_555 1_555
C18 N4 1_555 1_555
H17 C18 1_555 1_555
H18 C18 1_555 1_555
C20 N6 1_555 1_555
Fe2 N8 1_555 1_555
N8 C21 1_555 1_555
N9 Fe2 1_555 1_555
N10 Fe2 1_555 1_555
N11 Fe2 1_555 1_555
N12 C39 1_555 1_555
N13 Fe2 1_555 1_555
N14 C39 1_555 1_555
C21 H19 1_555 1_555
C22 C21 1_555 1_555
H20 C22 1_555 1_555
C23 C22 1_555 1_555
H21 C23 1_555 1_555
C24 C23 1_555 1_555
H22 C24 1_555 1_555
C25 N8 1_555 1_555
C26 N11 1_555 1_555
H23 C26 1_555 1_555
H24 C26 1_555 1_555
C27 N9 1_555 1_555
H25 C27 1_555 1_555
C28 C27 1_555 1_555
H26 C28 1_555 1_555
C29 C28 1_555 1_555
H27 C29 1_555 1_555
C30 C29 1_555 1_555
H28 C30 1_555 1_555
C31 N9 1_555 1_555
C32 N11 1_555 1_555
H29 C32 1_555 1_555
H30 C32 1_555 1_555
C33 N10 1_555 1_555
H31 C33 1_555 1_555
C34 C33 1_555 1_555
H32 C34 1_555 1_555
C35 C34 1_555 1_555
H33 C35 1_555 1_555
C36 C35 1_555 1_555
H34 C36 1_555 1_555
C37 N10 1_555 1_555
C38 N11 1_555 1_555
H35 C38 1_555 1_555
H36 C38 1_555 1_555
C40 N13 1_555 1_555
C41 H37 1_555 1_555
C42 C41 1_555 1_555
H38 C42 1_555 1_555
C43 C42 1_555 1_555
H39 C43 1_555 1_555
C44 C43 1_555 1_555
H40 C44 1_555 1_555
C45 C44 1_555 1_555
H41 C45 1_555 1_555
C46 C41 1_555 1_555
C47 H42 1_555 1_555
C48 C47 1_555 1_555
H43 C48 1_555 1_555
C49 C48 1_555 1_555
H44 C49 1_555 1_555
C50 C49 1_555 1_555
H45 C50 1_555 1_555
C51 C50 1_555 1_555
H46 C51 1_555 1_555
C52 C47 1_555 1_555
C53 H47 1_555 1_555
C54 C53 1_555 1_555
H48 C54 1_555 1_555
C55 C54 1_555 1_555
H49 C55 1_555 1_555
C56 C55 1_555 1_555
H50 C56 1_555 1_555
C57 C56 1_555 1_555
H51 C57 1_555 1_555
C58 C53 1_555 1_555
C59 H52 1_555 1_555
C60 C59 1_555 1_555
H53 C60 1_555 1_555
C61 C60 1_555 1_555
H54 C61 1_555 1_555
C62 C61 1_555 1_555
H55 C62 1_555 1_555
C63 C62 1_555 1_555
H56 C63 1_555 1_555
C64 C59 1_555 1_555
B1 C46 1_555 1_555
C65 H57 1_555 1_555
C66 C65 1_555 1_555
H58 C66 1_555 1_555
C67 C66 1_555 1_555
H59 C67 1_555 1_555
C68 C67 1_555 1_555
H60 C68 1_555 1_555
C69 C68 1_555 1_555
H61 C69 1_555 1_555
C70 C65 1_555 1_555
C71 H62 1_555 1_555
C72 C71 1_555 1_555
H63 C72 1_555 1_555
C73 C72 1_555 1_555
H64 C73 1_555 1_555
C74 C73 1_555 1_555
H65 C74 1_555 1_555
C75 C74 1_555 1_555
H66 C75 1_555 1_555
C76 C71 1_555 1_555
C77 H67 1_555 1_555
C78 C77 1_555 1_555
H68 C78 1_555 1_555
C79 C78 1_555 1_555
H69 C79 1_555 1_555
C80 C79 1_555 1_555
H70 C80 1_555 1_555
C81 C80 1_555 1_555
H71 C81 1_555 1_555
C82 C77 1_555 1_555
C83 H72 1_555 1_555
C84 C83 1_555 1_555
H73 C84 1_555 1_555
C85 C84 1_555 1_555
H74 C85 1_555 1_555
C86 C85 1_555 1_555
H75 C86 1_555 1_555
C87 C86 1_555 1_555
H76 C87 1_555 1_555
C88 C83 1_555 1_555
B2 C70 1_555 1_555
Fe1A N5 1_555 1_555
N5A Fe1 1_555 1_555
Fe2A N12 1_555 1_555
N12A Fe2 1_555 1_555
N7 C20 1_555 1_555
C4 C5 1_555 1_555
C5 C6 1_555 1_555
C10 C11 1_555 1_555
C11 C12 1_555 1_555
C16 C17 1_555 1_555
C17 C18 1_555 1_555
N14 C40 1_555 1_555
C24 C25 1_555 1_555
C25 C26 1_555 1_555
C30 C31 1_555 1_555
C31 C32 1_555 1_555
C36 C37 1_555 1_555
C37 C38 1_555 1_555
C45 C46 1_555 1_555
C51 C52 1_555 1_555
C52 B1 1_555 1_555
C57 C58 1_555 1_555
C58 B1 1_555 1_555
C63 C64 1_555 1_555
C64 B1 1_555 1_555
C69 C70 1_555 1_555
C75 C76 1_555 1_555
C76 B2 1_555 1_555
C81 C82 1_555 1_555
C82 B2 1_555 1_555
C87 C88 1_555 1_555
C88 B2 1_555 1_555

#END
