
#######################################################################
#
#                 Cambridge Crystallographic Data Centre
#                                CCDC 
#
#######################################################################
#
# If this CIF has been generated from an entry in the Cambridge 
# Structural Database, then it will include bibliographic, chemical, 
# crystal, experimental, refinement or atomic coordinate data resulting 
# from the CCDC's data processing and validation procedures.
#
#######################################################################

data_GEWMIE
_symmetry_cell_setting           monoclinic
_symmetry_space_group_name_H-M   'C 2'
_symmetry_Int_Tables_number      5
_space_group_name_Hall           'C 2y'
loop_
_symmetry_equiv_pos_site_id
_symmetry_equiv_pos_as_xyz
1 x,y,z
2 1/2+x,1/2+y,z
3 -x,y,-z
4 1/2-x,1/2+y,-z
_cell_length_a                   47.025(10)
_cell_length_b                   10.312(3)
_cell_length_c                   13.802(3)
_cell_angle_alpha                90
_cell_angle_beta                 97.92(2)
_cell_angle_gamma                90
_cell_volume                     6629.05
loop_
_atom_site_label
_atom_site_type_symbol
_atom_site_fract_x
_atom_site_fract_y
_atom_site_fract_z
P1 P 0.1564(1) 0.4083(2) 0.3910(1)
P2 P 0.2114(1) 0.6600(2) 0.7236(1)
P3 P 0.1386(1) 0.7070(2) 0.0308(1)
O1 O 0.1995(1) 0.5988(5) 0.2117(4)
O2 O 0.1479(1) 0.6955(5) 0.5297(3)
O3 O 0.1769(1) 0.4540(5) -0.1146(3)
N1 N 0.1475(1) 0.4052(6) 0.2479(4)
N2 N 0.1196(1) 0.3930(6) 0.3918(4)
N3 N 0.1592(1) 0.3757(6) 0.5358(4)
N4 N 0.1725(1) 0.2566(6) 0.3830(4)
N5 N 0.2152(1) 0.6393(6) 0.5839(4)
N6 N 0.2439(1) 0.5766(6) 0.7507(4)
N7 N 0.2155(1) 0.7083(7) 0.8663(4)
N8 N 0.2174(1) 0.8253(6) 0.7056(4)
N9 N 0.1354(1) 0.7122(7) -0.1106(4)
N10 N 0.1028(1) 0.6674(7) 0.0156(4)
N11 N 0.1331(1) 0.7426(6) 0.1663(4)
N12 N 0.1461(1) 0.8708(7) 0.0233(5)
C1 C 0.1164(2) 0.3837(8) 0.2208(5)
C2 C 0.1028(2) 0.4424(8) 0.3029(5)
C3 C 0.1093(2) 0.4203(9) 0.4824(5)
C4 C 0.1298(2) 0.3504(9) 0.5599(6)
C5 C 0.1776(2) 0.2641(8) 0.5565(5)
C6 C 0.1730(2) 0.1735(8) 0.4685(5)
C7 C 0.1646(2) 0.1911(8) 0.2903(5)
C8 C 0.1639(2) 0.2956(7) 0.2136(5)
C9 C 0.2205(2) 0.5724(8) 0.2942(5)
C10 C 0.2417(2) 0.6851(8) 0.2972(5)
C11 C 0.2405(2) 0.7247(9) 0.1904(5)
C12 C 0.2157(2) 0.6471(10) 0.1387(6)
C13 C 0.2388(2) 0.5465(8) 0.5807(5)
C14 C 0.2608(2) 0.5681(8) 0.6698(5)
C15 C 0.2607(2) 0.6100(8) 0.8433(5)
C16 C 0.2393(2) 0.6293(8) 0.9150(5)
C17 C 0.2219(2) 0.8464(8) 0.8765(6)
C18 C 0.2090(2) 0.9073(8) 0.7812(5)
C19 C 0.2099(2) 0.8679(8) 0.6060(5)
C20 C 0.2214(2) 0.7646(8) 0.5438(5)
C21 C 0.1419(2) 0.7702(8) 0.4409(5)
C22 C 0.1166(2) 0.8529(9) 0.4536(6)
C23 C 0.1205(2) 0.8765(9) 0.5623(6)
C24 C 0.1322(2) 0.7499(9) 0.6034(6)
C25 C 0.1136(2) 0.6149(8) -0.1423(5)
C26 C 0.0891(2) 0.6272(8) -0.0790(5)
C27 C 0.0857(2) 0.6871(8) 0.0928(5)
C28 C 0.1029(2) 0.7771(8) 0.1665(5)
C29 C 0.1517(2) 0.8525(8) 0.1965(5)
C30 C 0.1503(2) 0.9480(8) 0.1104(5)
C31 C 0.1427(2) 0.9354(8) -0.0696(5)
C32 C 0.1253(2) 0.8428(8) -0.1405(5)
C33 C 0.1808(2) 0.3671(8) -0.1923(5)
C34 C 0.1757(2) 0.2331(9) -0.1564(6)
C35 C 0.1789(3) 0.2478(12) -0.0506(8)
C36 C 0.1776(2) 0.3821(10) -0.0257(7)
Li1 Li 0.1578(3) 0.5795(13) 0.1958(9)
Li2 Li 0.1757(3) 0.5570(14) 0.5486(10)
Li3 Li 0.1751(3) 0.6417(14) -0.1264(9)
H1 H 0.1097 0.4260 0.1600
H2 H 0.1123 0.2927 0.2151
H3 H 0.0831 0.4154 0.2992
H4 H 0.1036 0.5353 0.3007
H5 H 0.1096 0.5119 0.4946
H6 H 0.0901 0.3880 0.4814
H7 H 0.1259 0.2590 0.5581
H8 H 0.1280 0.3838 0.6236
H9 H 0.1973 0.2913 0.5679
H10 H 0.1729 0.2200 0.6134
H11 H 0.1552 0.1278 0.4667
H12 H 0.1885 0.1123 0.4712
H13 H 0.1787 0.1266 0.2807
H14 H 0.1461 0.1509 0.2877
H15 H 0.1545 0.2642 0.1519
H16 H 0.1830 0.3228 0.2067
H17 H 0.2118 0.5699 0.3531
H18 H 0.2300 0.4914 0.2861
H19 H 0.2607 0.6575 0.3236
H20 H 0.2360 0.7556 0.3356
H21 H 0.2581 0.7026 0.1661
H22 H 0.2371 0.8161 0.1825
H23 H 0.2228 0.5763 0.1037
H24 H 0.2038 0.7018 0.0936
H25 H 0.2316 0.4594 0.5808
H26 H 0.2475 0.5605 0.5226
H27 H 0.2712 0.6470 0.6637
H28 H 0.2740 0.4967 0.6790
H29 H 0.2737 0.5412 0.8650
H30 H 0.2712 0.6885 0.8370
H31 H 0.2484 0.6733 0.9724
H32 H 0.2322 0.5468 0.9333
H33 H 0.2134 0.8824 0.9299
H34 H 0.2423 0.8603 0.8873
H35 H 0.2162 0.9936 0.7757
H36 H 0.1884 0.9102 0.7768
H37 H 0.1895 0.8751 0.5900
H38 H 0.2187 0.9502 0.5963
H39 H 0.2418 0.7748 0.5456
H40 H 0.2122 0.7713 0.4774
H41 H 0.1581 0.8232 0.4318
H42 H 0.1373 0.7138 0.3856
H43 H 0.1170 0.9329 0.4182
H44 H 0.0989 0.8083 0.4325
H45 H 0.1024 0.8961 0.5843
H46 H 0.1337 0.9459 0.5800
H47 H 0.1169 0.6932 0.6153
H48 H 0.1449 0.7638 0.6633
H49 H 0.1062 0.6287 -0.2099
H50 H 0.1220 0.5299 -0.1345
H51 H 0.0796 0.5452 -0.0746
H52 H 0.0753 0.6908 -0.1060
H53 H 0.0677 0.7263 0.0676
H54 H 0.0823 0.6059 0.1232
H55 H 0.0975 0.7647 0.2304
H56 H 0.0997 0.8659 0.1470
H57 H 0.1452 0.8948 0.2514
H58 H 0.1711 0.8231 0.2144
H59 H 0.1679 0.9959 0.1139
H60 H 0.1346 1.0072 0.1112
H61 H 0.1326 1.0158 -0.0660
H62 H 0.1611 0.9520 -0.0899
H63 H 0.1287 0.8600 -0.2064
H64 H 0.1052 0.8514 -0.1362
H65 H 0.1673 0.3864 -0.2491
H66 H 0.2000 0.3743 -0.2083
H67 H 0.1897 0.1735 -0.1748
H68 H 0.1568 0.2032 -0.1817
H69 H 0.1970 0.2122 -0.0220
H70 H 0.1636 0.2026 -0.0258
H71 H 0.1607 0.3996 0.0038
H72 H 0.1943 0.4055 0.0190
N7_2 N 0.2155(1) 0.7083(7) -0.1337(4)
Li3_2 Li 0.1751(3) 0.6417(14) 0.8736(9)
P4 P 0.0381(1) 0.1954(2) -0.1571(1)
P5 P 0.0000 0.4748(3) -0.5000
O4 O 0.0000 0.4201(8) 0.0000
O5 O -0.0260(1) 0.2125(6) -0.3383(4)
N13 N 0.0402(1) 0.1701(6) -0.0141(4)
N14 N 0.0400(1) 0.0285(7) -0.1613(5)
N15 N 0.0444(1) 0.1865(7) -0.2966(4)
N16 N 0.0722(1) 0.2679(6) -0.1339(4)
N17 N 0.0029(2) 0.4977(7) -0.3558(5)
N18 N 0.0313(2) 0.5706(7) -0.4904(5)
C37 C 0.0479(2) 0.0356(8) 0.0086(6)
C38 C 0.0334(2) -0.0423(9) -0.0765(5)
C39 C 0.0333(2) -0.0287(9) -0.2553(5)
C40 C 0.0486(2) 0.0536(9) -0.3225(7)
C41 C 0.0704(2) 0.2660(10) -0.3049(6)
C42 C 0.0899(2) 0.2554(9) -0.2108(5)
C43 C 0.0865(2) 0.2605(9) -0.0351(6)
C44 C 0.0629(2) 0.2601(9) 0.0297(6)
C45 C 0.0046(2) 0.5010(10) 0.0871(7)
C46 C -0.0022(2) 0.6332(10) 0.0528(6)
C47 C -0.0271(2) 0.5337(10) -0.3414(7)
C48 C 0.0386(2) 0.6204(9) -0.5791(6)
C49 C 0.0238(2) 0.5917(11) -0.3226(7)
C50 C 0.0352(2) 0.6551(12) -0.4069(7)
C51 C -0.0372(2) 0.1562(11) -0.4301(7)
C52 C -0.0640(3) 0.0886(14) -0.4136(8)
C53 C -0.0639(3) 0.0769(13) -0.3114(8)
C54 C -0.0401(2) 0.1576(9) -0.2626(6)
Li4 Li 0.0000 0.2344(19) 0.0000
Li5 Li 0.0099(3) 0.3060(15) -0.3259(10)
H73 H 0.0684 0.0247 0.0149
H74 H 0.0412 0.0095 0.0683
H75 H 0.0130 -0.0459 -0.0756
H76 H 0.0409 -0.1288 -0.0756
H77 H 0.0401 -0.1165 -0.2546
H78 H 0.0130 -0.0275 -0.2758
H79 H 0.0405 0.0386 -0.3894
H80 H 0.0687 0.0332 -0.3139
H81 H 0.0650 0.3550 -0.3173
H82 H 0.0799 0.2339 -0.3574
H83 H 0.1039 0.3234 -0.2059
H84 H 0.0994 0.1728 -0.2065
H85 H 0.0976 0.1824 -0.0256
H86 H 0.0988 0.3342 -0.0204
H87 H 0.0552 0.3459 0.0332
H88 H 0.0705 0.2312 0.0942
H89 H -0.0079 0.4749 0.1331
H90 H 0.0242 0.4954 0.1174
H91 H -0.0217 0.6546 0.0594
H92 H 0.0105 0.6943 0.0890
H93 H -0.0269 0.5770 -0.2798
H94 H -0.0387 0.4572 -0.3426
H95 H 0.0305 0.7055 -0.5906
H96 H 0.0591 0.6252 -0.5755
H97 H 0.0153 0.6564 -0.2857
H98 H 0.0393 0.5504 -0.2815
H99 H 0.0553 0.6728 -0.3892
H100 H 0.0251 0.7349 -0.4226
H101 H -0.0414 0.2226 -0.4788
H102 H -0.0238 0.0957 -0.4508
H103 H -0.0646 0.0041 -0.4430
H104 H -0.0804 0.1379 -0.4418
H105 H -0.0819 0.1073 -0.2940
H106 H -0.0611 -0.0120 -0.2919
H107 H -0.0269 0.1047 -0.2203
H108 H -0.0475 0.2251 -0.2250
C48B C -0.0386(2) 0.6204(9) -0.4209(6)
N18B N -0.0313(2) 0.5706(7) -0.5096(5)
N17B N -0.0029(2) 0.4977(7) -0.6442(5)
C47B C 0.0271(2) 0.5337(10) -0.6586(7)
H93B H 0.0269 0.5770 -0.7202
H94B H 0.0387 0.4572 -0.6574
C49B C -0.0238(2) 0.5917(11) -0.6774(7)
C50B C -0.0352(2) 0.6551(12) -0.5931(7)
H99B H -0.0553 0.6728 -0.6108
H100B H -0.0251 0.7349 -0.5774
H97B H -0.0153 0.6564 -0.7143
H98B H -0.0393 0.5504 -0.7185
H95B H -0.0305 0.7055 -0.4094
H96B H -0.0591 0.6252 -0.4245
C46B C 0.0022(2) 0.6332(10) -0.0528(6)
C45B C -0.0046(2) 0.5010(10) -0.0871(7)
H89B H 0.0079 0.4749 -0.1331
H90B H -0.0242 0.4954 -0.1174
H91B H 0.0217 0.6546 -0.0594
H92B H -0.0105 0.6943 -0.0890
P4B P -0.0381(1) 0.1954(2) 0.1571(1)
N13B N -0.0402(1) 0.1701(6) 0.0141(4)
N14B N -0.0400(1) 0.0285(7) 0.1613(5)
N15B N -0.0444(1) 0.1865(7) 0.2966(4)
N16B N -0.0722(1) 0.2679(6) 0.1339(4)
C37B C -0.0479(2) 0.0356(8) -0.0086(6)
C38B C -0.0334(2) -0.0423(9) 0.0765(5)
C39B C -0.0333(2) -0.0287(9) 0.2553(5)
C40B C -0.0486(2) 0.0536(9) 0.3225(7)
C41B C -0.0704(2) 0.2660(10) 0.3049(6)
C42B C -0.0899(2) 0.2554(9) 0.2108(5)
C43B C -0.0865(2) 0.2605(9) 0.0351(6)
C44B C -0.0629(2) 0.2601(9) -0.0297(6)
H73B H -0.0684 0.0247 -0.0149
H74B H -0.0412 0.0095 -0.0683
H75B H -0.0130 -0.0459 0.0756
H76B H -0.0409 -0.1288 0.0756
H77B H -0.0401 -0.1165 0.2546
H78B H -0.0130 -0.0275 0.2758
H79B H -0.0405 0.0386 0.3894
H80B H -0.0687 0.0332 0.3139
H81B H -0.0650 0.3550 0.3173
H82B H -0.0799 0.2339 0.3574
H83B H -0.1039 0.3234 0.2059
H84B H -0.0994 0.1728 0.2065
H85B H -0.0976 0.1824 0.0256
H86B H -0.0988 0.3342 0.0204
H87B H -0.0552 0.3459 -0.0332
H88B H -0.0705 0.2312 -0.0942
Li5B Li -0.0099(3) 0.3060(15) 0.3259(10)
O5B O 0.0260(1) 0.2125(6) 0.3383(4)
C51B C 0.0372(2) 0.1562(11) 0.4301(7)
C52B C 0.0640(3) 0.0886(14) 0.4136(8)
C53B C 0.0639(3) 0.0769(13) 0.3114(8)
C54B C 0.0401(2) 0.1576(9) 0.2626(6)
H101B H 0.0414 0.2226 0.4788
H102B H 0.0238 0.0957 0.4508
H103B H 0.0646 0.0041 0.4430
H104B H 0.0804 0.1379 0.4418
H105B H 0.0819 0.1073 0.2940
H106B H 0.0611 -0.0120 0.2919
H107B H 0.0269 0.1047 0.2203
H108B H 0.0475 0.2251 0.2250
Li5B_2 Li -0.0099(3) 0.3060(15) -0.6741(10)
N17B_2 N -0.0029(2) 0.4977(7) 0.3558(5)
loop_
_geom_bond_atom_site_label_1
_geom_bond_atom_site_label_2
_geom_bond_site_symmetry_1
_geom_bond_site_symmetry_2
P1 N1 1_555 1_555
P2 N5 1_555 1_555
P3 N9 1_555 1_555
O1 C9 1_555 1_555
O2 C21 1_555 1_555
O3 C33 1_555 1_555
N1 C1 1_555 1_555
N2 P1 1_555 1_555
N3 P1 1_555 1_555
N4 P1 1_555 1_555
N5 C13 1_555 1_555
N6 P2 1_555 1_555
N7 P2 1_555 1_555
N8 P2 1_555 1_555
N9 C25 1_555 1_555
N10 P3 1_555 1_555
N11 P3 1_555 1_555
N12 P3 1_555 1_555
C1 C2 1_555 1_555
C2 N2 1_555 1_555
C3 N2 1_555 1_555
C4 N3 1_555 1_555
C5 N3 1_555 1_555
C6 N4 1_555 1_555
C7 N4 1_555 1_555
C8 N1 1_555 1_555
C9 C10 1_555 1_555
C10 C11 1_555 1_555
C11 C12 1_555 1_555
C12 O1 1_555 1_555
C13 C14 1_555 1_555
C14 N6 1_555 1_555
C15 N6 1_555 1_555
C16 N7 1_555 1_555
C17 N7 1_555 1_555
C18 N8 1_555 1_555
C19 N8 1_555 1_555
C20 N5 1_555 1_555
C21 C22 1_555 1_555
C22 C23 1_555 1_555
C23 C24 1_555 1_555
C24 O2 1_555 1_555
C25 C26 1_555 1_555
C26 N10 1_555 1_555
C27 N10 1_555 1_555
C28 N11 1_555 1_555
C29 N11 1_555 1_555
C30 N12 1_555 1_555
C31 N12 1_555 1_555
C32 N9 1_555 1_555
C33 C34 1_555 1_555
C34 C35 1_555 1_555
C35 C36 1_555 1_555
C36 O3 1_555 1_555
Li1 O1 1_555 1_555
Li2 O2 1_555 1_555
Li3 O3 1_555 1_555
P4 N13 1_555 1_555
P5 N17 1_555 1_555
O4 C45 1_555 1_555
O5 C51 1_555 1_555
N13 C37 1_555 1_555
N14 P4 1_555 1_555
N15 P4 1_555 1_555
N16 P4 1_555 1_555
N17 C47 1_555 1_555
N18 P5 1_555 1_555
C37 C38 1_555 1_555
C38 N14 1_555 1_555
C39 N14 1_555 1_555
C40 N15 1_555 1_555
C41 N15 1_555 1_555
C42 N16 1_555 1_555
C43 N16 1_555 1_555
C44 N13 1_555 1_555
C45 C46 1_555 1_555
C46 H91 1_555 1_555
C47 H93 1_555 1_555
C48 N18 1_555 1_555
C49 N17 1_555 1_555
C50 N18 1_555 1_555
C51 C52 1_555 1_555
C52 C53 1_555 1_555
C53 C54 1_555 1_555
C54 O5 1_555 1_555
Li4 O4 1_555 1_555
Li5 O5 1_555 1_555
H1 C1 1_555 1_555
H2 C1 1_555 1_555
H3 C2 1_555 1_555
H4 C2 1_555 1_555
H5 C3 1_555 1_555
H6 C3 1_555 1_555
H7 C4 1_555 1_555
H8 C4 1_555 1_555
H9 C5 1_555 1_555
H10 C5 1_555 1_555
H11 C6 1_555 1_555
H12 C6 1_555 1_555
H13 C7 1_555 1_555
H14 C7 1_555 1_555
H15 C8 1_555 1_555
H16 C8 1_555 1_555
H17 C9 1_555 1_555
H18 C9 1_555 1_555
H19 C10 1_555 1_555
H20 C10 1_555 1_555
H21 C11 1_555 1_555
H22 C11 1_555 1_555
H23 C12 1_555 1_555
H24 C12 1_555 1_555
H25 C13 1_555 1_555
H26 C13 1_555 1_555
H27 C14 1_555 1_555
H28 C14 1_555 1_555
H29 C15 1_555 1_555
H30 C15 1_555 1_555
H31 C16 1_555 1_555
H32 C16 1_555 1_555
H33 C17 1_555 1_555
H34 C17 1_555 1_555
H35 C18 1_555 1_555
H36 C18 1_555 1_555
H37 C19 1_555 1_555
H38 C19 1_555 1_555
H39 C20 1_555 1_555
H40 C20 1_555 1_555
H41 C21 1_555 1_555
H42 C21 1_555 1_555
H43 C22 1_555 1_555
H44 C22 1_555 1_555
H45 C23 1_555 1_555
H46 C23 1_555 1_555
H47 C24 1_555 1_555
H48 C24 1_555 1_555
H49 C25 1_555 1_555
H50 C25 1_555 1_555
H51 C26 1_555 1_555
H52 C26 1_555 1_555
H53 C27 1_555 1_555
H54 C27 1_555 1_555
H55 C28 1_555 1_555
H56 C28 1_555 1_555
H57 C29 1_555 1_555
H58 C29 1_555 1_555
H59 C30 1_555 1_555
H60 C30 1_555 1_555
H61 C31 1_555 1_555
H62 C31 1_555 1_555
H63 C32 1_555 1_555
H64 C32 1_555 1_555
H65 C33 1_555 1_555
H66 C33 1_555 1_555
H67 C34 1_555 1_555
H68 C34 1_555 1_555
H69 C35 1_555 1_555
H70 C35 1_555 1_555
H71 C36 1_555 1_555
H72 C36 1_555 1_555
H73 C37 1_555 1_555
H74 C37 1_555 1_555
H75 C38 1_555 1_555
H76 C38 1_555 1_555
H77 C39 1_555 1_555
H78 C39 1_555 1_555
H79 C40 1_555 1_555
H80 C40 1_555 1_555
H81 C41 1_555 1_555
H82 C41 1_555 1_555
H83 C42 1_555 1_555
H84 C42 1_555 1_555
H85 C43 1_555 1_555
H86 C43 1_555 1_555
H87 C44 1_555 1_555
H88 C44 1_555 1_555
H89 C45 1_555 1_555
H90 C45 1_555 1_555
H92 C46 1_555 1_555
H94 C47 1_555 1_555
H95 C48 1_555 1_555
H96 C48 1_555 1_555
H97 C49 1_555 1_555
H98 C49 1_555 1_555
H99 C50 1_555 1_555
H100 C50 1_555 1_555
H101 C51 1_555 1_555
H102 C51 1_555 1_555
H103 C52 1_555 1_555
H104 C52 1_555 1_555
H105 C53 1_555 1_555
H106 C53 1_555 1_555
H107 C54 1_555 1_555
H108 C54 1_555 1_555
C48B C47 1_555 1_555
N18B P5 1_555 1_555
N17B P5 1_555 1_555
C47B C48 1_555 1_555
H93B C47B 1_555 1_555
H94B C47B 1_555 1_555
C49B N17B 1_555 1_555
C50B N18B 1_555 1_555
H99B C50B 1_555 1_555
H100B C50B 1_555 1_555
H97B C49B 1_555 1_555
H98B C49B 1_555 1_555
H95B C48B 1_555 1_555
H96B C48B 1_555 1_555
C46B C46 1_555 1_555
C45B O4 1_555 1_555
H89B C45B 1_555 1_555
H90B C45B 1_555 1_555
H91B C46B 1_555 1_555
H92B C46B 1_555 1_555
P4B N13B 1_555 1_555
N13B Li4 1_555 1_555
N14B P4B 1_555 1_555
N15B P4B 1_555 1_555
N16B P4B 1_555 1_555
C37B N13B 1_555 1_555
C38B N14B 1_555 1_555
C39B N14B 1_555 1_555
C40B N15B 1_555 1_555
C41B N15B 1_555 1_555
C42B N16B 1_555 1_555
C43B N16B 1_555 1_555
C44B N13B 1_555 1_555
H73B C37B 1_555 1_555
H74B C37B 1_555 1_555
H75B C38B 1_555 1_555
H76B C38B 1_555 1_555
H77B C39B 1_555 1_555
H78B C39B 1_555 1_555
H79B C40B 1_555 1_555
H80B C40B 1_555 1_555
H81B C41B 1_555 1_555
H82B C41B 1_555 1_555
H83B C42B 1_555 1_555
H84B C42B 1_555 1_555
H85B C43B 1_555 1_555
H86B C43B 1_555 1_555
H87B C44B 1_555 1_555
H88B C44B 1_555 1_555
Li5B N15B 1_555 1_555
O5B Li5B 1_555 1_555
C51B O5B 1_555 1_555
C52B C51B 1_555 1_555
C53B C52B 1_555 1_555
C54B O5B 1_555 1_555
H101B C51B 1_555 1_555
H102B C51B 1_555 1_555
H103B C52B 1_555 1_555
H104B C52B 1_555 1_555
H105B C53B 1_555 1_555
H106B C53B 1_555 1_555
H107B C54B 1_555 1_555
H108B C54B 1_555 1_555
N7_2 Li3 1_555 1_555
Li3_2 N7 1_555 1_555
Li5B_2 N17B 1_555 1_555
N17B_2 Li5B 1_555 1_555
N1 Li1 1_555 1_555
N3 Li2 1_555 1_555
N5 Li2 1_555 1_555
N9 Li3 1_555 1_555
N11 Li1 1_555 1_555
C3 C4 1_555 1_555
C5 C6 1_555 1_555
C7 C8 1_555 1_555
C15 C16 1_555 1_555
C17 C18 1_555 1_555
C19 C20 1_555 1_555
C27 C28 1_555 1_555
C29 C30 1_555 1_555
C31 C32 1_555 1_555
N13 Li4 1_555 1_555
N15 Li5 1_555 1_555
N17 Li5 1_555 1_555
C39 C40 1_555 1_555
C41 C42 1_555 1_555
C43 C44 1_555 1_555
C49 C50 1_555 1_555
C48B N18B 1_555 1_555
N17B C47B 1_555 1_555
C49B C50B 1_555 1_555
C46B C45B 1_555 1_555
C37B C38B 1_555 1_555
C39B C40B 1_555 1_555
C41B C42B 1_555 1_555
C43B C44B 1_555 1_555
C53B C54B 1_555 1_555

#END
