
#######################################################################
#
#                 Cambridge Crystallographic Data Centre
#                                CCDC 
#
#######################################################################
#
# If this CIF has been generated from an entry in the Cambridge 
# Structural Database, then it will include bibliographic, chemical, 
# crystal, experimental, refinement or atomic coordinate data resulting 
# from the CCDC's data processing and validation procedures.
#
#######################################################################

data_GEWYUC
_symmetry_cell_setting           monoclinic
_symmetry_space_group_name_H-M   'C 2/c'
_symmetry_Int_Tables_number      15
_space_group_name_Hall           '-C 2yn'
loop_
_symmetry_equiv_pos_site_id
_symmetry_equiv_pos_as_xyz
1 x,y,z
2 1/2+x,1/2+y,z
3 -x,y,1/2-z
4 1/2-x,1/2+y,1/2-z
5 -x,-y,-z
6 1/2-x,1/2-y,-z
7 x,-y,1/2+z
8 1/2+x,1/2-y,1/2+z
_cell_length_a                   25.417(4)
_cell_length_b                   13.905(2)
_cell_length_c                   10.677(2)
_cell_angle_alpha                90
_cell_angle_beta                 97.61(1)
_cell_angle_gamma                90
_cell_volume                     3740.27
loop_
_atom_site_label
_atom_site_type_symbol
_atom_site_fract_x
_atom_site_fract_y
_atom_site_fract_z
Cu1 Cu 0.25000 -0.75000 0.00000
N1 N 0.3084(1) -0.6667(2) -0.0422(3)
C1 C 0.3449(1) -0.6833(3) -0.1172(4)
N2 N 0.3714(1) -0.6034(3) -0.1346(3)
C2 C 0.3523(2) -0.5305(3) -0.0672(4)
C3 C 0.3736(2) -0.4313(4) -0.0658(5)
C4 C 0.3131(1) -0.5705(3) -0.0101(3)
C5 C 0.2777(1) -0.5259(3) 0.0746(3)
S1 S 0.20857(4) -0.55759(7) 0.03063(9)
C6 C 0.1972(2) -0.5088(3) -0.1275(3)
C7 C 0.1948(2) -0.3997(3) -0.1315(3)
N3 N 0.1504(1) -0.3625(2) -0.0747(3)
C8 C 0.1545(1) -0.3277(3) 0.0427(3)
N4 N 0.2034(1) -0.3083(2) 0.1010(3)
C9 C 0.2104(1) -0.2764(2) 0.2157(3)
N5 N 0.2212(1) -0.2456(3) 0.3164(3)
N6 N 0.1108(1) -0.3123(2) 0.0949(3)
C10 C 0.0580(2) -0.3350(4) 0.0352(4)
H1 H 0.400 -0.597 -0.187
H2 H 0.116 -0.363 -0.125
H3 H 0.115 -0.284 0.179
H4 H 0.351 -0.745 -0.154
H5 H 0.355 -0.391 -0.013
H6 H 0.369 -0.406 -0.151
H7 H 0.411 -0.432 -0.033
H8 H 0.289 -0.547 0.160
H9 H 0.281 -0.457 0.071
H10 H 0.164 -0.534 -0.169
H11 H 0.226 -0.530 -0.173
H12 H 0.191 -0.379 -0.219
H13 H 0.227 -0.374 -0.086
H14 H 0.032 -0.317 0.091
H15 H 0.056 -0.403 0.018
H16 H 0.051 -0.299 -0.043
N1E N 0.1916(1) -0.8333(2) 0.0422(3)
S1E S 0.29143(4) -0.94241(7) -0.03063(9)
N5C N 0.2788(1) -0.7456(3) 0.1836(3)
N5F N 0.2212(1) -0.7544(3) -0.1836(3)
C1E C 0.1551(1) -0.8167(3) 0.1172(4)
C4E C 0.1869(1) -0.9295(3) 0.0101(3)
C5E C 0.2223(1) -0.9741(3) -0.0746(3)
C6E C 0.3028(2) -0.9912(3) 0.1275(3)
Cu1C Cu 0.25000 -0.25000 0.50000
N2E N 0.1286(1) -0.8966(3) 0.1346(3)
H4E H 0.149 -0.755 0.154
C2E C 0.1477(2) -0.9695(3) 0.0672(4)
H8E H 0.211 -0.953 -0.160
H9E H 0.219 -1.043 -0.071
C7E C 0.3052(2) -1.1003(3) 0.1315(3)
H10E H 0.336 -0.966 0.169
H11E H 0.274 -0.970 0.173
H1E H 0.100 -0.903 0.187
C3E C 0.1264(2) -1.0687(4) 0.0658(5)
N3E N 0.3496(1) -1.1375(2) 0.0747(3)
H12E H 0.309 -1.121 0.219
H13E H 0.273 -1.126 0.086
H5E H 0.145 -1.109 0.013
H6E H 0.131 -1.094 0.151
H7E H 0.089 -1.068 0.033
C8E C 0.3455(1) -1.1723(3) -0.0427(3)
H2E H 0.384 -1.137 0.125
N4E N 0.2966(1) -1.1917(2) -0.1010(3)
N6E N 0.3892(1) -1.1877(2) -0.0949(3)
C9E C 0.2896(1) -1.2236(2) -0.2157(3)
C10E C 0.4420(2) -1.1650(4) -0.0352(4)
H3E H 0.385 -1.216 -0.179
N5E N 0.2788(1) -1.2544(3) -0.3164(3)
H14E H 0.468 -1.183 -0.091
H15E H 0.444 -1.097 -0.018
H16E H 0.449 -1.201 0.043
Cu1C_2 Cu 0.25000 -1.25000 -0.50000
S2 S 0.50000 -0.6303(1) 0.75000
O1 O 0.4867(4) -0.6931(6) 0.8515(8)
O2 O 0.4533(3) -0.5739(6) 0.7087(8)
O1B O 0.5133(4) -0.6931(6) 0.6485(8)
O2B O 0.5467(3) -0.5739(6) 0.7913(8)
O3 O 0.0705(1) -0.3654(2) 0.6866(3)
H17 H 0.050 -0.307 0.689
H18 H 0.047 -0.416 0.705
O4 O 0.00000 -0.4978(3) 0.25000
H19 H -0.017 -0.456 0.184
H19B H 0.017 -0.456 0.316
O5 O 0.0945(1) -0.2249(3) 0.3284(3)
H20 H 0.060 -0.196 0.301
H21 H 0.119 -0.171 0.345
O6 O 0.5731(1) -0.9025(3) 0.4236(3)
H22 H 0.592 -0.845 0.400
H23 H 0.569 -0.889 0.514
O7 O 0.4817(2) -0.3819(3) 0.6009(4)
H24 H 0.486 -0.369 0.513
H25 H 0.493 -0.448 0.614
O8? O 0.4534(3) -0.6869(7) 0.7274(8)
O9? O 0.4944(4) -0.5695(6) 0.8598(8)
loop_
_geom_bond_atom_site_label_1
_geom_bond_atom_site_label_2
_geom_bond_site_symmetry_1
_geom_bond_site_symmetry_2
Cu1 N1 1_555 1_555
N1 C1 1_555 1_555
C1 N2 1_555 1_555
N2 C2 1_555 1_555
C2 C3 1_555 1_555
C3 H5 1_555 1_555
C4 N1 1_555 1_555
C5 C4 1_555 1_555
S1 Cu1 1_555 1_555
C6 S1 1_555 1_555
C7 C6 1_555 1_555
N3 C7 1_555 1_555
C8 N3 1_555 1_555
N4 C8 1_555 1_555
C9 N4 1_555 1_555
N5 C9 1_555 1_555
N6 C8 1_555 1_555
C10 N6 1_555 1_555
H1 N2 1_555 1_555
H2 N3 1_555 1_555
H3 N6 1_555 1_555
H4 C1 1_555 1_555
H6 C3 1_555 1_555
H7 C3 1_555 1_555
H8 C5 1_555 1_555
H9 C5 1_555 1_555
H10 C6 1_555 1_555
H11 C6 1_555 1_555
H12 C7 1_555 1_555
H13 C7 1_555 1_555
H14 C10 1_555 1_555
H15 C10 1_555 1_555
H16 C10 1_555 1_555
S2 O1 1_555 1_555
O2 S2 1_555 1_555
O3 H17 1_555 1_555
H18 O3 1_555 1_555
O4 H19 1_555 1_555
O5 H20 1_555 1_555
H21 O5 1_555 1_555
O6 H22 1_555 1_555
H23 O6 1_555 1_555
O7 H24 1_555 1_555
H25 O7 1_555 1_555
N1E Cu1 1_555 1_555
S1E Cu1 1_555 1_555
N5C Cu1 1_555 1_555
N5F Cu1 1_555 1_555
C1E N1E 1_555 1_555
C4E N1E 1_555 1_555
C5E S1E 1_555 1_555
C6E S1E 1_555 1_555
Cu1C N5 1_555 1_555
N2E C1E 1_555 1_555
H4E C1E 1_555 1_555
C2E C4E 1_555 1_555
H8E C5E 1_555 1_555
H9E C5E 1_555 1_555
C7E C6E 1_555 1_555
H10E C6E 1_555 1_555
H11E C6E 1_555 1_555
H1E N2E 1_555 1_555
C3E C2E 1_555 1_555
N3E C7E 1_555 1_555
H12E C7E 1_555 1_555
H13E C7E 1_555 1_555
H5E C3E 1_555 1_555
H6E C3E 1_555 1_555
H7E C3E 1_555 1_555
C8E N3E 1_555 1_555
H2E N3E 1_555 1_555
N4E C8E 1_555 1_555
N6E C8E 1_555 1_555
C9E N4E 1_555 1_555
C10E N6E 1_555 1_555
H3E N6E 1_555 1_555
N5E C9E 1_555 1_555
H14E C10E 1_555 1_555
H15E C10E 1_555 1_555
H16E C10E 1_555 1_555
Cu1C_2 N5E 1_555 1_555
O1B S2 1_555 1_555
O2B S2 1_555 1_555
H19B O4 1_555 1_555
C2 C4 1_555 1_555
C5 S1 1_555 1_555
C4E C5E 1_555 1_555
N2E C2E 1_555 1_555

#END
