
#######################################################################
#
#                 Cambridge Crystallographic Data Centre
#                                CCDC 
#
#######################################################################
#
# If this CIF has been generated from an entry in the Cambridge 
# Structural Database, then it will include bibliographic, chemical, 
# crystal, experimental, refinement or atomic coordinate data resulting 
# from the CCDC's data processing and validation procedures.
#
#######################################################################

data_GEXBIW
_symmetry_cell_setting           monoclinic
_symmetry_space_group_name_H-M   'C 2/c'
_symmetry_Int_Tables_number      15
_space_group_name_Hall           '-C 2yn'
loop_
_symmetry_equiv_pos_site_id
_symmetry_equiv_pos_as_xyz
1 x,y,z
2 -x,y,1/2-z
3 1/2+x,1/2+y,z
4 1/2-x,1/2+y,1/2-z
5 -x,-y,-z
6 x,-y,1/2+z
7 1/2-x,1/2-y,-z
8 1/2+x,1/2-y,1/2+z
_cell_length_a                   32.462(7)
_cell_length_b                   12.648(3)
_cell_length_c                   16.633(3)
_cell_angle_alpha                90
_cell_angle_beta                 112.28(3)
_cell_angle_gamma                90
_cell_volume                     6319.32
loop_
_atom_site_label
_atom_site_type_symbol
_atom_site_fract_x
_atom_site_fract_y
_atom_site_fract_z
Ni1 Ni 0.0000 0.26539(4) 0.2500
Ni2 Ni 0.163302(14) 0.94542(3) -0.09110(3)
O1 O 0.00821(11) -0.4309(2) 0.32162(19)
O2 O 0.03052(7) 0.12149(17) 0.30893(15)
O3 O 0.04063(8) 0.37774(18) 0.32815(16)
H1 H 0.0666 0.3744 0.3251
H2 H 0.0298 0.4401 0.3122
O4 O 0.21067(9) 0.8416(2) -0.01591(19)
H3 H 0.2100 0.8402 0.0348
H4 H 0.2053 0.7800 -0.0381
O5 O 0.11915(8) 0.83970(19) -0.17295(16)
H5 H 0.1250 0.7778 -0.1517
H6 H 0.0929 0.8567 -0.1785
O6 O 0.19442(8) 1.08558(19) -0.03093(17)
O7 O 0.12874(8) 1.08757(18) -0.13866(16)
O8 O 0.12991(9) 1.6394(2) -0.1219(2)
O9 O 0.19945(10) 1.6342(2) -0.0283(3)
N1 N 0.03547(9) 0.2683(2) 0.16903(18)
N2 N 0.06358(15) 0.2301(3) 0.0685(3)
N3 N 0.07156(10) 0.3316(2) 0.09332(19)
N4 N 0.10583(11) 0.8506(3) 0.0833(2)
N5 N 0.08641(12) 0.9472(3) 0.0678(2)
N6 N 0.13007(10) 0.9262(2) -0.0078(2)
N7 N 0.30732(10) 0.5520(2) 0.1833(2)
N8 N 0.31001(12) 0.5432(4) 0.3185(2)
N9 N 0.26728(11) 0.5488(3) 0.2625(2)
C1 C 0.0000 -0.3858(4) 0.2500
C2 C 0.0000 -0.2662(4) 0.2500
C3 C 0.01236(13) -0.2104(3) 0.3270(3)
H7 H 0.0206 -0.2468 0.3793
C4 C 0.01262(13) -0.1013(3) 0.3273(2)
H8 H 0.0213 -0.0648 0.3796
C5 C 0.0000 -0.0461(4) 0.2500
C6 C 0.0000 0.0721(4) 0.2500
C7 C 0.04175(16) 0.1955(3) 0.1156(3)
H9 H 0.0315 0.1264 0.1124
C8 C 0.05473(13) 0.3528(3) 0.1526(2)
H10 H 0.0563 0.4182 0.1790
C9 C 0.09533(15) 0.4009(3) 0.0545(3)
H11 H 0.0743 0.4291 0.0002
H12 H 0.1171 0.3594 0.0413
C10 C 0.11865(13) 0.4915(3) 0.1132(3)
C11 C 0.18060(17) 0.3643(4) 0.1954(3)
H13 H 0.1817 0.3411 0.2512
H14 H 0.2102 0.3650 0.1953
H15 H 0.1623 0.3168 0.1513
C12 C 0.16119(14) 0.4741(3) 0.1774(3)
C13 C 0.18544(13) 0.5602(3) 0.2243(3)
C14 C 0.16730(14) 0.6613(3) 0.2094(3)
C15 C 0.19614(17) 0.7550(4) 0.2524(3)
H16 H 0.1829 0.8185 0.2220
H17 H 0.2252 0.7461 0.2509
H18 H 0.1987 0.7600 0.3117
C16 C 0.12303(13) 0.6752(3) 0.1530(2)
C17 C 0.09864(13) 0.5899(3) 0.1035(2)
C18 C 0.05118(14) 0.6073(4) 0.0408(3)
H19 H 0.0417 0.5480 0.0020
H20 H 0.0496 0.6706 0.0079
H21 H 0.0321 0.6143 0.0727
C19 C 0.10052(16) 0.7806(3) 0.1486(3)
H22 H 0.0690 0.7692 0.1350
H23 H 0.1130 0.8145 0.2050
C20 C 0.13186(14) 0.8395(3) 0.0382(3)
H24 H 0.1488 0.7799 0.0389
C21 C 0.10215(13) 0.9893(3) 0.0128(3)
H25 H 0.0946 1.0570 -0.0099
C22 C 0.26686(13) 0.5546(3) 0.1826(3)
H26 H 0.2412 0.5599 0.1326
C23 C 0.33277(14) 0.5450(4) 0.2685(3)
H27 H 0.3637 0.5418 0.2898
C24 C 0.23134(14) 0.5434(4) 0.2953(3)
H28 H 0.2321 0.4748 0.3219
H29 H 0.2363 0.5968 0.3399
C25 C 0.16070(11) 1.1352(3) -0.0816(2)
C26 C 0.15949(12) 1.2530(3) -0.0756(2)
C27 C 0.19612(12) 1.3060(3) -0.0178(2)
H30 H 0.2198 1.2682 0.0214
C28 C 0.19734(12) 1.4155(3) -0.0186(3)
H31 H 0.2223 1.4509 0.0192
C29 C 0.16178(11) 1.4725(3) -0.0750(2)
C30 C 0.12482(12) 1.4191(3) -0.1305(2)
H32 H 0.1005 1.4571 -0.1676
C31 C 0.12368(11) 1.3096(3) -0.1316(2)
H33 H 0.0989 1.2742 -0.1699
C32 C 0.16378(12) 1.5908(3) -0.0760(3)
O1A O -0.00821(11) -0.4309(2) 0.17838(19)
O2A O -0.03052(7) 0.12149(17) 0.19107(15)
C3A C -0.01236(13) -0.2104(3) 0.1730(3)
H7A H -0.0206 -0.2468 0.1207
C4A C -0.01262(13) -0.1013(3) 0.1727(2)
H8A H -0.0213 -0.0648 0.1204
Ni2A Ni -0.163302(14) 0.94542(3) 0.59110(3)
O3A O -0.04063(8) 0.37774(18) 0.17185(16)
H1A H -0.0666 0.3744 0.1749
H2A H -0.0298 0.4401 0.1878
O4A O -0.21067(9) 0.8416(2) 0.51591(19)
H3A H -0.2100 0.8402 0.4652
H4A H -0.2053 0.7800 0.5381
O5A O -0.11915(8) 0.83970(19) 0.67295(16)
H5A H -0.1250 0.7778 0.6517
H6A H -0.0929 0.8567 0.6785
O6A O -0.19442(8) 1.08558(19) 0.53093(17)
O7A O -0.12874(8) 1.08757(18) 0.63866(16)
O8A O -0.12991(9) 1.6394(2) 0.6219(2)
O9A O -0.19945(10) 1.6342(2) 0.5283(3)
N1A N -0.03547(9) 0.2683(2) 0.33097(18)
N2A N -0.06358(15) 0.2301(3) 0.4315(3)
N3A N -0.07156(10) 0.3316(2) 0.40668(19)
N4A N -0.10583(11) 0.8506(3) 0.4167(2)
N5A N -0.08641(12) 0.9472(3) 0.4322(2)
N6A N -0.13007(10) 0.9262(2) 0.5078(2)
N7A N -0.30732(10) 0.5520(2) 0.3167(2)
N8A N -0.31001(12) 0.5432(4) 0.1815(2)
N9A N -0.26728(11) 0.5488(3) 0.2375(2)
C7A C -0.04175(16) 0.1955(3) 0.3844(3)
H9A H -0.0315 0.1264 0.3876
C8A C -0.05473(13) 0.3528(3) 0.3474(2)
H10A H -0.0563 0.4182 0.3210
C9A C -0.09533(15) 0.4009(3) 0.4455(3)
H11A H -0.0743 0.4291 0.4998
H12A H -0.1171 0.3594 0.4587
C10A C -0.11865(13) 0.4915(3) 0.3868(3)
C11A C -0.18060(17) 0.3643(4) 0.3046(3)
H13A H -0.1817 0.3411 0.2488
H14A H -0.2102 0.3650 0.3047
H15A H -0.1623 0.3168 0.3487
C12A C -0.16119(14) 0.4741(3) 0.3226(3)
C13A C -0.18544(13) 0.5602(3) 0.2757(3)
C14A C -0.16730(14) 0.6613(3) 0.2906(3)
C15A C -0.19614(17) 0.7550(4) 0.2476(3)
H16A H -0.1829 0.8185 0.2780
H17A H -0.2252 0.7461 0.2491
H18A H -0.1987 0.7600 0.1883
C16A C -0.12303(13) 0.6752(3) 0.3470(2)
C17A C -0.09864(13) 0.5899(3) 0.3965(2)
C18A C -0.05118(14) 0.6073(4) 0.4592(3)
H19A H -0.0417 0.5480 0.4980
H20A H -0.0496 0.6706 0.4921
H21A H -0.0321 0.6143 0.4273
C19A C -0.10052(16) 0.7806(3) 0.3514(3)
H22A H -0.0690 0.7692 0.3650
H23A H -0.1130 0.8145 0.2950
C20A C -0.13186(14) 0.8395(3) 0.4618(3)
H24A H -0.1488 0.7799 0.4611
C21A C -0.10215(13) 0.9893(3) 0.4872(3)
H25A H -0.0946 1.0570 0.5099
C22A C -0.26686(13) 0.5546(3) 0.3174(3)
H26A H -0.2412 0.5599 0.3674
C23A C -0.33277(14) 0.5450(4) 0.2315(3)
H27A H -0.3637 0.5418 0.2102
C24A C -0.23134(14) 0.5434(4) 0.2047(3)
H28A H -0.2321 0.4748 0.1781
H29A H -0.2363 0.5968 0.1601
C25A C -0.16070(11) 1.1352(3) 0.5816(2)
C26A C -0.15949(12) 1.2530(3) 0.5756(2)
C27A C -0.19612(12) 1.3060(3) 0.5178(2)
H30A H -0.2198 1.2682 0.4786
C28A C -0.19734(12) 1.4155(3) 0.5186(3)
H31A H -0.2223 1.4509 0.4808
C29A C -0.16178(11) 1.4725(3) 0.5750(2)
C30A C -0.12482(12) 1.4191(3) 0.6305(2)
H32A H -0.1005 1.4571 0.6676
C31A C -0.12368(11) 1.3096(3) 0.6316(2)
H33A H -0.0989 1.2742 0.6699
C32A C -0.16378(12) 1.5908(3) 0.5760(3)
Ni2F Ni 0.336698(14) 0.55458(3) 0.09110(3)
Ni2G Ni -0.336698(14) 0.55458(3) 0.40890(3)
N7F N 0.19268(10) 0.9480(2) -0.1833(2)
N7G N -0.19268(10) 0.9480(2) 0.6833(2)
loop_
_geom_bond_atom_site_label_1
_geom_bond_atom_site_label_2
_geom_bond_site_symmetry_1
_geom_bond_site_symmetry_2
Ni1 O2 1_555 1_555
Ni2 O4 1_555 1_555
O1 C1 1_555 1_555
O2 C6 1_555 1_555
O3 Ni1 1_555 1_555
H1 O3 1_555 1_555
H2 O3 1_555 1_555
O4 H3 1_555 1_555
H4 O4 1_555 1_555
O5 Ni2 1_555 1_555
H5 O5 1_555 1_555
H6 O5 1_555 1_555
O6 Ni2 1_555 1_555
O7 Ni2 1_555 1_555
O8 C32 1_555 1_555
O9 C32 1_555 1_555
N1 Ni1 1_555 1_555
N2 N3 1_555 1_555
N3 C8 1_555 1_555
N4 N5 1_555 1_555
N5 C21 1_555 1_555
N6 Ni2 1_555 1_555
N7 C22 1_555 1_555
N8 N9 1_555 1_555
N9 C22 1_555 1_555
C1 C2 1_555 1_555
C2 C3 1_555 1_555
C3 H7 1_555 1_555
C4 C3 1_555 1_555
H8 C4 1_555 1_555
C5 C4 1_555 1_555
C6 C5 1_555 1_555
C7 N1 1_555 1_555
H9 C7 1_555 1_555
C8 N1 1_555 1_555
H10 C8 1_555 1_555
C9 N3 1_555 1_555
H11 C9 1_555 1_555
H12 C9 1_555 1_555
C10 C9 1_555 1_555
C11 H13 1_555 1_555
H14 C11 1_555 1_555
H15 C11 1_555 1_555
C12 C10 1_555 1_555
C13 C12 1_555 1_555
C14 C13 1_555 1_555
C15 C14 1_555 1_555
H16 C15 1_555 1_555
H17 C15 1_555 1_555
H18 C15 1_555 1_555
C16 C14 1_555 1_555
C17 C10 1_555 1_555
C18 C17 1_555 1_555
H19 C18 1_555 1_555
H20 C18 1_555 1_555
H21 C18 1_555 1_555
C19 N4 1_555 1_555
H22 C19 1_555 1_555
H23 C19 1_555 1_555
C20 N4 1_555 1_555
H24 C20 1_555 1_555
C21 N6 1_555 1_555
H25 C21 1_555 1_555
C22 H26 1_555 1_555
C23 N7 1_555 1_555
H27 C23 1_555 1_555
C24 N9 1_555 1_555
H28 C24 1_555 1_555
H29 C24 1_555 1_555
C25 O6 1_555 1_555
C26 C25 1_555 1_555
C27 C26 1_555 1_555
H30 C27 1_555 1_555
C28 C27 1_555 1_555
H31 C28 1_555 1_555
C29 C28 1_555 1_555
C30 C29 1_555 1_555
H32 C30 1_555 1_555
C31 C26 1_555 1_555
H33 C31 1_555 1_555
C32 C29 1_555 1_555
O1A C1 1_555 1_555
O2A Ni1 1_555 1_555
C3A C2 1_555 1_555
H7A C3A 1_555 1_555
C4A C5 1_555 1_555
H8A C4A 1_555 1_555
Ni2A O4A 1_555 1_555
O3A Ni1 1_555 1_555
H1A O3A 1_555 1_555
H2A O3A 1_555 1_555
O4A H3A 1_555 1_555
H4A O4A 1_555 1_555
O5A Ni2A 1_555 1_555
H5A O5A 1_555 1_555
H6A O5A 1_555 1_555
O6A Ni2A 1_555 1_555
O7A Ni2A 1_555 1_555
O8A C32A 1_555 1_555
O9A C32A 1_555 1_555
N1A Ni1 1_555 1_555
N2A N3A 1_555 1_555
N3A C8A 1_555 1_555
N4A N5A 1_555 1_555
N5A C21A 1_555 1_555
N6A Ni2A 1_555 1_555
N7A C22A 1_555 1_555
N8A N9A 1_555 1_555
N9A C22A 1_555 1_555
C7A N1A 1_555 1_555
H9A C7A 1_555 1_555
C8A N1A 1_555 1_555
H10A C8A 1_555 1_555
C9A N3A 1_555 1_555
H11A C9A 1_555 1_555
H12A C9A 1_555 1_555
C10A C9A 1_555 1_555
C11A H13A 1_555 1_555
H14A C11A 1_555 1_555
H15A C11A 1_555 1_555
C12A C10A 1_555 1_555
C13A C12A 1_555 1_555
C14A C13A 1_555 1_555
C15A C14A 1_555 1_555
H16A C15A 1_555 1_555
H17A C15A 1_555 1_555
H18A C15A 1_555 1_555
C16A C14A 1_555 1_555
C17A C10A 1_555 1_555
C18A C17A 1_555 1_555
H19A C18A 1_555 1_555
H20A C18A 1_555 1_555
H21A C18A 1_555 1_555
C19A N4A 1_555 1_555
H22A C19A 1_555 1_555
H23A C19A 1_555 1_555
C20A N4A 1_555 1_555
H24A C20A 1_555 1_555
C21A N6A 1_555 1_555
H25A C21A 1_555 1_555
C22A H26A 1_555 1_555
C23A N7A 1_555 1_555
H27A C23A 1_555 1_555
C24A N9A 1_555 1_555
H28A C24A 1_555 1_555
H29A C24A 1_555 1_555
C25A O6A 1_555 1_555
C26A C25A 1_555 1_555
C27A C26A 1_555 1_555
H30A C27A 1_555 1_555
C28A C27A 1_555 1_555
H31A C28A 1_555 1_555
C29A C28A 1_555 1_555
C30A C29A 1_555 1_555
H32A C30A 1_555 1_555
C31A C26A 1_555 1_555
H33A C31A 1_555 1_555
C32A C29A 1_555 1_555
Ni2F N7 1_555 1_555
Ni2G N7A 1_555 1_555
N7F Ni2 1_555 1_555
N7G Ni2A 1_555 1_555
O7 C25 1_555 1_555
N2 C7 1_555 1_555
N6 C20 1_555 1_555
N8 C23 1_555 1_555
C6 O2A 1_555 1_555
C11 C12 1_555 1_555
C13 C24 1_555 1_555
C16 C17 1_555 1_555
C16 C19 1_555 1_555
C30 C31 1_555 1_555
C3A C4A 1_555 1_555
O7A C25A 1_555 1_555
N2A C7A 1_555 1_555
N6A C20A 1_555 1_555
N8A C23A 1_555 1_555
C11A C12A 1_555 1_555
C13A C24A 1_555 1_555
C16A C17A 1_555 1_555
C16A C19A 1_555 1_555
C30A C31A 1_555 1_555

#END
