
#######################################################################
#
#                 Cambridge Crystallographic Data Centre
#                                CCDC 
#
#######################################################################
#
# If this CIF has been generated from an entry in the Cambridge 
# Structural Database, then it will include bibliographic, chemical, 
# crystal, experimental, refinement or atomic coordinate data resulting 
# from the CCDC's data processing and validation procedures.
#
#######################################################################

data_GEXFIA
_symmetry_cell_setting           monoclinic
_symmetry_space_group_name_H-M   'C 2/c'
_symmetry_Int_Tables_number      15
_space_group_name_Hall           '-C 2yn'
loop_
_symmetry_equiv_pos_site_id
_symmetry_equiv_pos_as_xyz
1 x,y,z
2 -x,y,1/2-z
3 1/2+x,1/2+y,z
4 1/2-x,1/2+y,1/2-z
5 -x,-y,-z
6 x,-y,1/2+z
7 1/2-x,1/2-y,-z
8 1/2+x,1/2-y,1/2+z
_cell_length_a                   9.4042(17)
_cell_length_b                   19.901(4)
_cell_length_c                   22.797(4)
_cell_angle_alpha                90
_cell_angle_beta                 96.366(6)
_cell_angle_gamma                90
_cell_volume                     4240.22
loop_
_atom_site_label
_atom_site_type_symbol
_atom_site_fract_x
_atom_site_fract_y
_atom_site_fract_z
Ag1 Ag 0.38810(7) 0.01005(3) 0.44128(3)
O1 O -0.1424(9) 0.0278(3) 0.6825(3)
C1 C -0.1417(8) -0.0343(3) 0.6801(3)
C2 C -0.0725(6) -0.0759(3) 0.6372(3)
C3 C -0.1107(7) -0.1471(3) 0.6451(3)
H1 H -0.0259 -0.1752 0.6479
H2 H -0.1767 -0.1625 0.6121
C4 C -0.1828(7) -0.1501(3) 0.7039(3)
H3 H -0.2736 -0.1737 0.6978
H4 H -0.1212 -0.1733 0.7344
C5 C -0.2047(6) -0.0795(3) 0.7211(3)
C6 C -0.2724(7) -0.0541(3) 0.7651(3)
H5 H -0.2738 -0.0075 0.7672
C7 C 0.0063(7) -0.0474(3) 0.5993(3)
H6 H 0.0134 -0.0009 0.6024
N1 N 0.2498(6) -0.0570(3) 0.4829(2)
C8 C 0.0834(6) -0.0765(3) 0.5535(2)
C9 C 0.1754(7) -0.0368(3) 0.5261(3)
H7 H 0.1866 0.0075 0.5386
C10 C 0.2338(7) -0.1219(4) 0.4654(3)
H8 H 0.2863 -0.1376 0.4360
C11 C 0.1450(9) -0.1640(4) 0.4890(3)
H9 H 0.1353 -0.2079 0.4753
C12 C 0.0673(8) -0.1427(3) 0.5337(3)
H10 H 0.0057 -0.1719 0.5503
N2 N -0.4895(6) -0.0746(3) 0.8900(2)
C13 C -0.3440(7) -0.0887(3) 0.8099(2)
C14 C -0.4204(7) -0.0501(3) 0.8461(3)
H11 H -0.4241 -0.0039 0.8396
C15 C -0.4828(8) -0.1406(4) 0.8991(3)
H12 H -0.5281 -0.1587 0.9297
C16 C -0.4110(9) -0.1830(4) 0.8646(3)
H13 H -0.4105 -0.2291 0.8716
C17 C -0.3406(8) -0.1575(3) 0.8203(3)
H14 H -0.2910 -0.1859 0.7973
Ag1E Ag -0.61190(7) -0.01005(3) 0.94128(3)
N2E N 0.5105(6) 0.0746(3) 0.3900(2)
S1 S 0.6224(2) -0.14481(9) 0.44081(10)
O2 O 0.5533(8) -0.0933(3) 0.4071(4)
O3 O 0.5421(6) -0.2032(3) 0.4458(3)
O4 O 0.7001(9) -0.1216(4) 0.4955(3)
C18 C 0.7646(10) -0.1686(4) 0.3990(4)
F1 F 0.8504(7) -0.1194(3) 0.3901(3)
F2 F 0.7141(7) -0.1929(3) 0.3460(3)
F3 F 0.8411(6) -0.2184(3) 0.4234(3)
O5 O -0.105(2) 0.1704(10) 0.7144(10)
O6 O -0.658(2) 0.1895(10) 0.8061(9)
loop_
_geom_bond_atom_site_label_1
_geom_bond_atom_site_label_2
_geom_bond_site_symmetry_1
_geom_bond_site_symmetry_2
Ag1 N1 1_555 1_555
O1 C1 1_555 1_555
C1 C2 1_555 1_555
C2 C3 1_555 1_555
C3 H1 1_555 1_555
H2 C3 1_555 1_555
C4 C3 1_555 1_555
H3 C4 1_555 1_555
H4 C4 1_555 1_555
C5 C1 1_555 1_555
C6 C5 1_555 1_555
H5 C6 1_555 1_555
C7 C2 1_555 1_555
H6 C7 1_555 1_555
N1 C9 1_555 1_555
C8 C7 1_555 1_555
C9 C8 1_555 1_555
H7 C9 1_555 1_555
C10 N1 1_555 1_555
H8 C10 1_555 1_555
C11 C10 1_555 1_555
H9 C11 1_555 1_555
C12 C8 1_555 1_555
H10 C12 1_555 1_555
N2 C14 1_555 1_555
C13 C6 1_555 1_555
C14 C13 1_555 1_555
H11 C14 1_555 1_555
C15 N2 1_555 1_555
H12 C15 1_555 1_555
C16 C15 1_555 1_555
H13 C16 1_555 1_555
C17 C13 1_555 1_555
H14 C17 1_555 1_555
S1 O2 1_555 1_555
O3 S1 1_555 1_555
O4 S1 1_555 1_555
C18 S1 1_555 1_555
F1 C18 1_555 1_555
F2 C18 1_555 1_555
F3 C18 1_555 1_555
Ag1E N2 1_555 1_555
N2E Ag1 1_555 1_555
C4 C5 1_555 1_555
C11 C12 1_555 1_555
C16 C17 1_555 1_555

#END
