
#######################################################################
#
#                 Cambridge Crystallographic Data Centre
#                                CCDC 
#
#######################################################################
#
# If this CIF has been generated from an entry in the Cambridge 
# Structural Database, then it will include bibliographic, chemical, 
# crystal, experimental, refinement or atomic coordinate data resulting 
# from the CCDC's data processing and validation procedures.
#
#######################################################################

data_GEXPII
_symmetry_cell_setting           monoclinic
_symmetry_space_group_name_H-M   'P 2/c'
_symmetry_Int_Tables_number      13
_space_group_name_Hall           '-P 2yc'
loop_
_symmetry_equiv_pos_site_id
_symmetry_equiv_pos_as_xyz
1 x,y,z
2 -x,y,1/2-z
3 -x,-y,-z
4 x,-y,1/2+z
_cell_length_a                   10.801(4)
_cell_length_b                   8.664(2)
_cell_length_c                   16.308(6)
_cell_angle_alpha                90
_cell_angle_beta                 93.67(3)
_cell_angle_gamma                90
_cell_volume                     1522.97
loop_
_atom_site_label
_atom_site_type_symbol
_atom_site_fract_x
_atom_site_fract_y
_atom_site_fract_z
Tb1 Tb -0.0255(1) 0.2956(1) 0.4476(1)
O1 O 0.2313(11) 0.8090(10) 0.2228(6)
O2 O 0.0857(8) 0.4156(10) 0.3305(5)
O3 O -0.0231(8) 0.4329(11) 0.5726(5)
O4 O -0.0579(9) -0.0843(11) 0.6152(6)
O5 O 0.0248(8) 0.1272(12) 0.5622(5)
O6 O 0.5641(9) 0.3972(16) 0.6351(7)
O7 O 0.1947(8) 0.3267(10) 0.4878(5)
O8 O -0.2162(8) 0.4437(10) 0.4489(6)
O9 O 0.3490(10) 0.1605(15) 0.4147(7)
O10 O 0.5499(3) 0.1111(5) 0.4264(3)
O11 O -0.1933(7) 0.1110(11) 0.4606(6)
O12 O -0.1424(10) 0.2823(13) 0.3144(6)
C1 C 0.1802(14) 0.9139(17) 0.2736(8)
C2 C 0.1173(11) 0.8470(13) 0.3312(7)
C3 C 0.1261(11) 0.6845(15) 0.3163(6)
C4 C 0.1963(13) 0.6685(17) 0.2495(8)
C5 C 0.0778(11) 0.5506(14) 0.3591(7)
C6 C -0.0464(10) 0.0582(15) 0.6110(7)
C7 C 0.5753(14) 0.2853(20) 0.5762(11)
C8 C 0.4692(12) 0.2768(17) 0.5271(9)
C9 C 0.3874(11) 0.3885(16) 0.5574(8)
C10 C 0.4471(13) 0.4556(21) 0.6219(10)
C11 C 0.2569(11) 0.4275(16) 0.5293(8)
C12 C 0.4600(13) 0.1753(19) 0.4549(10)
O3B O 0.0231(8) 0.5671(11) 0.4274(5)
Tb1B Tb 0.0255(1) 0.7044(1) 0.5524(1)
C5B C -0.0778(11) 0.4494(14) 0.6409(7)
C11B C -0.2569(11) 0.5725(16) 0.4707(8)
C6B C 0.0464(10) 0.9418(15) 0.3890(7)
O8B O 0.2162(8) 0.5563(10) 0.5511(6)
O2B O -0.0857(8) 0.5844(10) 0.6695(5)
O4_2 O -0.0579(9) 0.9157(11) 0.6152(6)
O5B O -0.0248(8) 0.8728(12) 0.4378(5)
O7B O -0.1947(8) 0.6733(10) 0.5122(5)
O11B O 0.1933(7) 0.8890(11) 0.5394(6)
O12B O 0.1424(10) 0.7177(13) 0.6856(6)
C3B C -0.1261(11) 0.3155(15) 0.6837(6)
O4B O 0.0579(9) 0.0843(11) 0.3848(6)
C2B C -0.1173(11) 0.1530(13) 0.6688(7)
C9B C -0.3874(11) 0.6115(16) 0.4426(8)
Tb1B_2 Tb 0.0255(1) -0.2956(1) 0.5524(1)
C4B C -0.1963(13) 0.3315(17) 0.7505(8)
C1B C -0.1802(14) 0.0861(17) 0.7264(8)
C8B C -0.4692(12) 0.7232(17) 0.4729(9)
C10B C -0.4471(13) 0.5444(21) 0.3781(10)
O1B O -0.2313(11) 0.1910(10) 0.7772(6)
C7B C -0.5753(14) 0.7147(20) 0.4238(11)
C12B C -0.4600(13) 0.8247(19) 0.5451(10)
O6B O -0.5641(9) 0.6028(16) 0.3649(7)
O9B O -0.3490(10) 0.8395(15) 0.5853(7)
O10B O -0.5499(3) 0.8889(5) 0.5736(3)
O4B_2 O 0.0579(9) 1.0843(11) 0.3848(6)
Tb1_2 Tb -0.0255(1) 1.2956(1) 0.4476(1)
O13 O -0.3833(27) 0.2294(49) 0.2404(15)
loop_
_geom_bond_atom_site_label_1
_geom_bond_atom_site_label_2
_geom_bond_site_symmetry_1
_geom_bond_site_symmetry_2
Tb1 O2 1_555 1_555
O1 C1 1_555 1_555
O2 C5 1_555 1_555
O3 Tb1 1_555 1_555
O4 C6 1_555 1_555
O5 Tb1 1_555 1_555
O6 C7 1_555 1_555
O7 Tb1 1_555 1_555
O8 Tb1 1_555 1_555
O9 C12 1_555 1_555
O10 C12 1_555 1_555
O11 Tb1 1_555 1_555
O12 Tb1 1_555 1_555
C1 C2 1_555 1_555
C2 C3 1_555 1_555
C3 C4 1_555 1_555
C4 O1 1_555 1_555
C5 C3 1_555 1_555
C6 O5 1_555 1_555
C7 C8 1_555 1_555
C8 C9 1_555 1_555
C9 C10 1_555 1_555
C10 O6 1_555 1_555
C11 O7 1_555 1_555
C12 C8 1_555 1_555
O3B Tb1 1_555 1_555
Tb1B O3 1_555 1_555
C5B O3 1_555 1_555
C11B O8 1_555 1_555
C6B C2 1_555 1_555
O8B C11 1_555 1_555
O2B Tb1B 1_555 1_555
O4_2 Tb1B 1_555 1_555
O5B Tb1B 1_555 1_555
O7B Tb1B 1_555 1_555
O11B Tb1B 1_555 1_555
O12B Tb1B 1_555 1_555
C3B C5B 1_555 1_555
O4B Tb1 1_555 1_555
C2B C6 1_555 1_555
C9B C11B 1_555 1_555
Tb1B_2 O4 1_555 1_555
C4B C3B 1_555 1_555
C1B C2B 1_555 1_555
C8B C9B 1_555 1_555
C10B C9B 1_555 1_555
O1B C4B 1_555 1_555
C7B C8B 1_555 1_555
C12B C8B 1_555 1_555
O6B C10B 1_555 1_555
O9B C12B 1_555 1_555
O10B C12B 1_555 1_555
O4B_2 C6B 1_555 1_555
Tb1_2 O4B_2 1_555 1_555
C5 O3B 1_555 1_555
C9 C11 1_555 1_555
O3B Tb1B 1_555 1_555
Tb1B O8B 1_555 1_555
C5B O2B 1_555 1_555
C11B O7B 1_555 1_555
C6B O5B 1_555 1_555
C3B C2B 1_555 1_555
C1B O1B 1_555 1_555
C7B O6B 1_555 1_555

#END
