
#######################################################################
#
#                 Cambridge Crystallographic Data Centre
#                                CCDC 
#
#######################################################################
#
# If this CIF has been generated from an entry in the Cambridge 
# Structural Database, then it will include bibliographic, chemical, 
# crystal, experimental, refinement or atomic coordinate data resulting 
# from the CCDC's data processing and validation procedures.
#
#######################################################################

data_GEYBIX
_symmetry_cell_setting           triclinic
_symmetry_space_group_name_H-M   'P -1'
_symmetry_Int_Tables_number      2
_space_group_name_Hall           '-P 1'
loop_
_symmetry_equiv_pos_site_id
_symmetry_equiv_pos_as_xyz
1 x,y,z
2 -x,-y,-z
_cell_length_a                   10.7449(6)
_cell_length_b                   10.7452(5)
_cell_length_c                   12.9242(6)
_cell_angle_alpha                102.880(4)
_cell_angle_beta                 104.389(4)
_cell_angle_gamma                94.412(4)
_cell_volume                     1395.1
loop_
_atom_site_label
_atom_site_type_symbol
_atom_site_fract_x
_atom_site_fract_y
_atom_site_fract_z
Dy1 Dy 0.103231(14) 0.327374(16) 0.408418(14)
Ag1 Ag -0.53392(4) -0.14212(4) -0.49109(3)
C1 C 0.1353(3) 0.2120(4) 0.7128(3)
C2 C 0.0856(3) 0.0897(4) 0.7134(3)
H1 H 0.0522 0.0271 0.6473
C3 C 0.0857(3) 0.0602(4) 0.8134(3)
C4 C 0.1354(4) 0.1552(4) 0.9122(3)
H2 H 0.1362 0.1361 0.9791
C5 C 0.1834(4) 0.2777(4) 0.9102(3)
C6 C 0.1844(4) 0.3069(4) 0.8118(3)
H3 H 0.2175 0.3892 0.8112
C7 C 0.1343(3) 0.2479(4) 0.6072(3)
C8 C 0.0323(3) -0.0729(4) 0.8154(3)
C9 C 0.2852(5) 0.4911(5) 1.0143(4)
H4 H 0.2233 0.5324 0.9696
H5 H 0.3599 0.4845 0.9850
C10 C 0.3261(5) 0.5689(4) 1.1322(4)
C11 C 0.4502(5) 0.5815(5) 1.1973(4)
H6 H 0.5120 0.5389 1.1701
C12 C 0.4830(5) 0.6582(5) 1.3044(4)
H7 H 0.5680 0.6663 1.3476
C13 C 0.2774(5) 0.7042(5) 1.2859(4)
H8 H 0.2162 0.7437 1.3165
C14 C 0.2377(5) 0.6315(5) 1.1783(4)
H9 H 0.1521 0.6245 1.1369
C15 C -0.3167(3) 0.3294(4) 0.3555(3)
C16 C -0.4275(3) 0.3566(4) 0.3893(3)
H10 H -0.4213 0.3961 0.4625
C17 C -0.5479(3) 0.3229(4) 0.3104(3)
C18 C -0.5567(3) 0.2729(4) 0.2015(3)
H11 H -0.6371 0.2565 0.1494
C19 C -0.4458(3) 0.2464(4) 0.1679(3)
C20 C -0.3252(3) 0.2723(4) 0.2470(3)
H12 H -0.2511 0.2509 0.2264
C21 C -0.1866(3) 0.3614(4) 0.4399(3)
C22 C -0.6695(3) 0.3344(4) 0.3468(3)
C23 C -0.3550(4) 0.1550(5) 0.0225(3)
H13 H -0.3192 0.0926 0.0612
H14 H -0.2883 0.2284 0.0397
C24 C -0.3955(4) 0.0961(4) -0.0986(4)
C25 C -0.5223(4) 0.0857(4) -0.1629(4)
H15 H -0.5860 0.1176 -0.1314
C26 C -0.5521(4) 0.0272(4) -0.2746(4)
H16 H -0.6374 0.0197 -0.3168
C27 C -0.3415(5) -0.0068(4) -0.2626(4)
H17 H -0.2789 -0.0369 -0.2964
C28 C -0.3042(4) 0.0486(4) -0.1509(4)
H18 H -0.2183 0.0543 -0.1106
O1 O 0.1479(2) 0.3661(3) 0.6080(2)
O2 O -0.0321(2) 0.4288(3) 0.2857(2)
H19 H -0.0623 0.4986 0.3046
H20 H -0.0289 0.4218 0.2196
O3 O 0.1196(3) 0.1632(3) 0.5189(2)
O4 O -0.0391(3) -0.1432(3) 0.7254(2)
O5 O 0.0615(3) -0.1039(3) 0.9042(3)
O6 O 0.2273(3) 0.3658(3) 1.0117(2)
O7 O -0.1044(2) 0.2856(3) 0.4251(2)
O8 O -0.1669(3) 0.4563(3) 0.5193(2)
O9 O -0.6718(2) 0.3084(3) 0.4378(2)
O10 O -0.7668(2) 0.3636(3) 0.2865(2)
O11 O -0.4647(3) 0.1956(3) 0.0577(2)
N1 N 0.3993(4) 0.7205(4) 1.3480(3)
N2 N -0.4646(4) -0.0193(3) -0.3250(3)
Dy1_2 Dy -0.896769(14) 0.327374(16) 0.408418(14)
Dy1A Dy -0.103231(14) -0.327374(16) 0.591582(14)
Dy1A_2 Dy -0.103231(14) 0.672626(16) 0.591582(14)
Ag1_2 Ag 0.46608(4) 0.85788(4) 1.50891(3)
Ag1A Ag -0.46608(4) 0.14212(4) -0.50891(3)
O4A O 0.0391(3) 0.1432(3) 0.2746(2)
O8A O 0.1669(3) 0.5437(3) 0.4807(2)
O9_2 O 0.3282(2) 0.3084(3) 0.4378(2)
O10_2 O 0.2332(2) 0.3636(3) 0.2865(2)
N1_2 N -0.6007(4) -0.2795(4) -0.6520(3)
O12 O -0.0179(3) 0.3493(3) 0.0789(3)
H21 H 0.0611 0.3637 0.0792
H22 H -0.0241 0.2730 0.0873
O13 O -0.7878(3) -0.0806(3) -0.5119(3)
H23 H -0.8178 -0.0093 -0.5027
H24 H -0.8475 -0.1306 -0.5032
loop_
_geom_bond_atom_site_label_1
_geom_bond_atom_site_label_2
_geom_bond_site_symmetry_1
_geom_bond_site_symmetry_2
Dy1 O1 1_555 1_555
Ag1 N2 1_555 1_555
C1 C2 1_555 1_555
C2 H1 1_555 1_555
C3 C2 1_555 1_555
C4 C3 1_555 1_555
H2 C4 1_555 1_555
C5 C4 1_555 1_555
C6 C1 1_555 1_555
H3 C6 1_555 1_555
C7 C1 1_555 1_555
C8 C3 1_555 1_555
C9 H4 1_555 1_555
H5 C9 1_555 1_555
C10 C9 1_555 1_555
C11 C10 1_555 1_555
H6 C11 1_555 1_555
C12 C11 1_555 1_555
H7 C12 1_555 1_555
C13 H8 1_555 1_555
C14 C10 1_555 1_555
H9 C14 1_555 1_555
C15 C16 1_555 1_555
C16 H10 1_555 1_555
C17 C16 1_555 1_555
C18 C17 1_555 1_555
H11 C18 1_555 1_555
C19 C18 1_555 1_555
C20 C15 1_555 1_555
H12 C20 1_555 1_555
C21 C15 1_555 1_555
C22 C17 1_555 1_555
C23 H13 1_555 1_555
H14 C23 1_555 1_555
C24 C23 1_555 1_555
C25 C24 1_555 1_555
H15 C25 1_555 1_555
C26 C25 1_555 1_555
H16 C26 1_555 1_555
C27 H17 1_555 1_555
C28 C24 1_555 1_555
H18 C28 1_555 1_555
O1 C7 1_555 1_555
O2 Dy1 1_555 1_555
H19 O2 1_555 1_555
H20 O2 1_555 1_555
O3 Dy1 1_555 1_555
O4 C8 1_555 1_555
O5 C8 1_555 1_555
O6 C5 1_555 1_555
O7 Dy1 1_555 1_555
O8 C21 1_555 1_555
O9 C22 1_555 1_555
O10 C22 1_555 1_555
O11 C19 1_555 1_555
N1 C12 1_555 1_555
N2 C26 1_555 1_555
O12 H21 1_555 1_555
H22 O12 1_555 1_555
O13 H23 1_555 1_555
H24 O13 1_555 1_555
Dy1_2 O9 1_555 1_555
Dy1A O4 1_555 1_555
Dy1A_2 O8 1_555 1_555
Ag1_2 N1 1_555 1_555
Ag1A Ag1 1_555 1_555
O4A Dy1 1_555 1_555
O8A Dy1 1_555 1_555
O9_2 Dy1 1_555 1_555
O10_2 Dy1 1_555 1_555
N1_2 Ag1 1_555 1_555
C5 C6 1_555 1_555
C7 O3 1_555 1_555
C9 O6 1_555 1_555
C13 C14 1_555 1_555
C13 N1 1_555 1_555
C19 C20 1_555 1_555
C21 O7 1_555 1_555
C23 O11 1_555 1_555
C27 C28 1_555 1_555
C27 N2 1_555 1_555
O10 Dy1_2 1_555 1_555

#END
