
#######################################################################
#
#                 Cambridge Crystallographic Data Centre
#                                CCDC 
#
#######################################################################
#
# If this CIF has been generated from an entry in the Cambridge 
# Structural Database, then it will include bibliographic, chemical, 
# crystal, experimental, refinement or atomic coordinate data resulting 
# from the CCDC's data processing and validation procedures.
#
#######################################################################

data_GEYFOH
_symmetry_cell_setting           monoclinic
_symmetry_space_group_name_H-M   'C 2/c'
_symmetry_Int_Tables_number      15
_space_group_name_Hall           '-C 2yn'
loop_
_symmetry_equiv_pos_site_id
_symmetry_equiv_pos_as_xyz
1 x,y,z
2 -x,y,1/2-z
3 1/2+x,1/2+y,z
4 1/2-x,1/2+y,1/2-z
5 -x,-y,-z
6 x,-y,1/2+z
7 1/2-x,1/2-y,-z
8 1/2+x,1/2-y,1/2+z
_cell_length_a                   24.987(5)
_cell_length_b                   11.986(6)
_cell_length_c                   22.025(4)
_cell_angle_alpha                90
_cell_angle_beta                 124.209(5)
_cell_angle_gamma                90
_cell_volume                     5455.14
loop_
_atom_site_label
_atom_site_type_symbol
_atom_site_fract_x
_atom_site_fract_y
_atom_site_fract_z
Cd1 Cd 0.183765(14) 0.35195(2) 0.203625(15)
O1 O 0.16336(14) 1.1822(2) 0.14916(16)
O2 O 0.09296(14) 1.2284(2) 0.17456(15)
O3 O 0.19832(14) 0.5739(2) -0.19278(14)
O4 O 0.25228(13) 0.7295(2) -0.17459(14)
N1 N 0.11864(16) 0.4892(3) 0.12554(17)
N2 N 0.04745(18) 0.6268(3) 0.0734(2)
N3 N 0.26646(16) 0.3999(3) 0.19432(17)
N4 N 0.33236(17) 0.5065(3) 0.18232(17)
C1 C 0.11480(19) 1.1590(3) 0.1513(2)
C2 C 0.08540(19) 1.0457(3) 0.1272(2)
C3 C 0.1207(2) 0.9601(3) 0.1239(2)
H1 H 0.1617 0.9741 0.1346
C4 C 0.0950(2) 0.8531(3) 0.1047(3)
H2 H 0.1192 0.7956 0.1030
C5 C 0.0356(2) 0.8321(3) 0.0888(3)
C6 C -0.0018(2) 0.9176(4) 0.0893(3)
H3 H -0.0438 0.9037 0.0757
C7 C 0.0241(2) 1.0232(4) 0.1100(3)
H4 H 0.0001 1.0801 0.1126
C8 C 0.0038(2) 0.7154(4) 0.0659(4)
H5 H -0.0123 0.6966 0.0957
H6 H -0.0330 0.7184 0.0151
C9 C 0.0832(2) 0.5611(3) 0.1331(2)
H7 H 0.0827 0.5663 0.1750
C10 C 0.10442(19) 0.5094(3) 0.0553(2)
C11 C 0.1273(2) 0.4560(4) 0.0181(2)
H8 H 0.1577 0.3989 0.0399
C12 C 0.1036(3) 0.4903(5) -0.0513(3)
H9 H 0.1185 0.4558 -0.0770
C13 C 0.0596(3) 0.5722(6) -0.0843(3)
H10 H 0.0447 0.5915 -0.1323
C14 C 0.0357(2) 0.6283(5) -0.0506(3)
H11 H 0.0055 0.6854 -0.0737
C15 C 0.0599(2) 0.5940(4) 0.0221(3)
C16 C 0.2382(2) 0.6485(3) -0.1504(2)
C17 C 0.2683(2) 0.6361(3) -0.0698(2)
C18 C 0.2538(2) 0.5459(3) -0.0430(2)
H12 H 0.2248 0.4924 -0.0755
C19 C 0.2815(2) 0.5337(3) 0.0313(2)
H13 H 0.2711 0.4719 0.0481
C20 C 0.3244(2) 0.6113(3) 0.0807(2)
C21 C 0.3397(2) 0.7021(3) 0.0541(2)
H14 H 0.3691 0.7551 0.0867
C22 C 0.31202(19) 0.7146(3) -0.0199(2)
H15 H 0.3226 0.7763 -0.0368
C23 C 0.3548(2) 0.6036(3) 0.1622(2)
H16 H 0.4014 0.5996 0.1876
H17 H 0.3446 0.6708 0.1784
C24 C 0.2804(2) 0.5020(3) 0.1860(2)
H18 H 0.2570 0.5645 0.1831
C25 C 0.3116(2) 0.3314(3) 0.1948(2)
C26 C 0.3180(2) 0.2144(3) 0.1989(2)
H19 H 0.2903 0.1688 0.2034
C27 C 0.3669(2) 0.1716(4) 0.1957(2)
H20 H 0.3724 0.0947 0.1977
C28 C 0.4095(2) 0.2398(4) 0.1894(2)
H21 H 0.4424 0.2063 0.1880
C29 C 0.4042(2) 0.3545(3) 0.1855(3)
H22 H 0.4325 0.3997 0.1819
C30 C 0.3531(2) 0.3981(3) 0.1872(2)
Cd1_2 Cd 0.183765(14) 1.35195(2) 0.203625(15)
Cd1E Cd 0.183765(14) 0.64805(2) -0.296375(15)
O1_2 O 0.16336(14) 0.1822(2) 0.14916(16)
O2_2 O 0.09296(14) 0.2284(2) 0.17456(15)
O3E O 0.19832(14) 0.4261(2) 0.30722(14)
O4E O 0.25228(13) 0.2705(2) 0.32541(14)
O5 O 0.1558(3) 1.1723(5) 0.0177(3)
H23 H 0.1504 1.1757 0.0521
H24 H 0.1643 1.2335 0.0097
O6 O 0.0698(3) 1.3639(5) 0.2646(4)
H25 H 0.0572 1.4333 0.2685
H26 H 0.0585 1.3675 0.2189
O7 O 0.0051(4) 1.2014(7) 0.2216(4)
O8 O 0.2500 1.2500 0.0000
loop_
_geom_bond_atom_site_label_1
_geom_bond_atom_site_label_2
_geom_bond_site_symmetry_1
_geom_bond_site_symmetry_2
Cd1 N1 1_555 1_555
O1 C1 1_555 1_555
O2 C1 1_555 1_555
O3 C16 1_555 1_555
O4 C16 1_555 1_555
N1 C9 1_555 1_555
N2 C8 1_555 1_555
N3 Cd1 1_555 1_555
N4 C23 1_555 1_555
C1 C2 1_555 1_555
C2 C3 1_555 1_555
C3 H1 1_555 1_555
C4 C3 1_555 1_555
H2 C4 1_555 1_555
C5 C4 1_555 1_555
C6 C5 1_555 1_555
H3 C6 1_555 1_555
C7 C2 1_555 1_555
H4 C7 1_555 1_555
C8 C5 1_555 1_555
H5 C8 1_555 1_555
H6 C8 1_555 1_555
C9 N2 1_555 1_555
H7 C9 1_555 1_555
C10 N1 1_555 1_555
C11 C10 1_555 1_555
H8 C11 1_555 1_555
C12 C11 1_555 1_555
H9 C12 1_555 1_555
C13 C12 1_555 1_555
H10 C13 1_555 1_555
C14 C13 1_555 1_555
H11 C14 1_555 1_555
C15 N2 1_555 1_555
C16 C17 1_555 1_555
C17 C18 1_555 1_555
C18 H12 1_555 1_555
C19 C18 1_555 1_555
H13 C19 1_555 1_555
C20 C19 1_555 1_555
C21 C20 1_555 1_555
H14 C21 1_555 1_555
C22 C17 1_555 1_555
H15 C22 1_555 1_555
C23 C20 1_555 1_555
H16 C23 1_555 1_555
H17 C23 1_555 1_555
C24 N3 1_555 1_555
H18 C24 1_555 1_555
C25 N3 1_555 1_555
C26 C25 1_555 1_555
H19 C26 1_555 1_555
C27 C26 1_555 1_555
H20 C27 1_555 1_555
C28 C27 1_555 1_555
H21 C28 1_555 1_555
C29 C28 1_555 1_555
H22 C29 1_555 1_555
C30 N4 1_555 1_555
O5 H23 1_555 1_555
H24 O5 1_555 1_555
O6 H25 1_555 1_555
H26 O6 1_555 1_555
Cd1_2 O1 1_555 1_555
Cd1E O3 1_555 1_555
O1_2 Cd1 1_555 1_555
O2_2 Cd1 1_555 1_555
O3E Cd1 1_555 1_555
O4E Cd1 1_555 1_555
O2 Cd1_2 1_555 1_555
O4 Cd1E 1_555 1_555
N4 C24 1_555 1_555
C6 C7 1_555 1_555
C10 C15 1_555 1_555
C14 C15 1_555 1_555
C21 C22 1_555 1_555
C25 C30 1_555 1_555
C29 C30 1_555 1_555

#END
