
#######################################################################
#
#                 Cambridge Crystallographic Data Centre
#                                CCDC 
#
#######################################################################
#
# If this CIF has been generated from an entry in the Cambridge 
# Structural Database, then it will include bibliographic, chemical, 
# crystal, experimental, refinement or atomic coordinate data resulting 
# from the CCDC's data processing and validation procedures.
#
#######################################################################

data_GEYFUN
_symmetry_cell_setting           monoclinic
_symmetry_space_group_name_H-M   'C 2/c'
_symmetry_Int_Tables_number      15
_space_group_name_Hall           '-C 2yn'
loop_
_symmetry_equiv_pos_site_id
_symmetry_equiv_pos_as_xyz
1 x,y,z
2 -x,y,1/2-z
3 1/2+x,1/2+y,z
4 1/2-x,1/2+y,1/2-z
5 -x,-y,-z
6 x,-y,1/2+z
7 1/2-x,1/2-y,-z
8 1/2+x,1/2-y,1/2+z
_cell_length_a                   25.161(4)
_cell_length_b                   11.539(2)
_cell_length_c                   21.399(5)
_cell_angle_alpha                90
_cell_angle_beta                 123.182(5)
_cell_angle_gamma                90
_cell_volume                     5199.74
loop_
_atom_site_label
_atom_site_type_symbol
_atom_site_fract_x
_atom_site_fract_y
_atom_site_fract_z
Zn1 Zn 0.18818(2) 0.34595(4) 0.20648(2)
O1 O 0.20483(13) 0.4013(3) 0.30387(15)
O2 O 0.26464(13) 0.2449(3) 0.33310(15)
O3 O 0.15745(14) 0.1906(3) 0.16498(16)
O4 O 0.06853(15) 0.2334(3) 0.15754(19)
N1 N 0.26470(16) 0.6157(3) 0.70026(17)
N2 N 0.33016(16) 0.5055(3) 0.68668(18)
N3 N 0.12720(15) -0.5333(3) 0.12931(17)
N4 N 0.05633(16) -0.3937(3) 0.06614(19)
C1 C 0.24732(18) 0.3305(4) 0.3519(2)
C2 C 0.27550(19) 0.3554(4) 0.4335(2)
C3 C 0.26348(19) 0.4577(4) 0.4575(2)
H1 H 0.2380 0.5142 0.4229
C4 C 0.2894(2) 0.4762(4) 0.5331(2)
H2 H 0.2813 0.5454 0.5487
C5 C 0.32700(19) 0.3928(4) 0.5855(2)
C6 C 0.3397(2) 0.2922(4) 0.5612(2)
H3 H 0.3659 0.2365 0.5960
C7 C 0.3143(2) 0.2726(4) 0.4865(2)
H4 H 0.3230 0.2036 0.4714
C8 C 0.3540(2) 0.4049(4) 0.6685(2)
H5 H 0.3437 0.3357 0.6856
H6 H 0.3999 0.4101 0.6954
C9 C 0.27902(19) 0.5095(4) 0.6912(2)
H7 H 0.2561 0.4442 0.6883
C10 C 0.30976(19) 0.6871(4) 0.7010(2)
C11 C 0.3150(2) 0.8080(4) 0.7044(2)
H8 H 0.2867 0.8550 0.7079
C12 C 0.3648(2) 0.8532(4) 0.7021(2)
H9 H 0.3697 0.9333 0.7034
C13 C 0.4079(2) 0.7839(5) 0.6979(2)
H10 H 0.4413 0.8190 0.6981
C14 C 0.4029(2) 0.6639(4) 0.6935(2)
H11 H 0.4316 0.6172 0.6905
C15 C 0.3514(2) 0.6182(4) 0.6938(2)
C16 C 0.1022(2) 0.1649(4) 0.1503(2)
C17 C 0.07855(19) 0.0439(4) 0.1232(2)
C18 C 0.11708(19) -0.0389(4) 0.1202(2)
H12 H 0.1577 -0.0185 0.1333
C19 C 0.0959(2) -0.1520(4) 0.0980(2)
H13 H 0.1228 -0.2068 0.0974
C20 C 0.03546(19) -0.1836(4) 0.0768(2)
C21 C -0.0038(2) -0.0999(4) 0.0783(2)
H14 H -0.0449 -0.1199 0.0634
C22 C 0.0170(2) 0.0115(4) 0.1014(2)
H15 H -0.0098 0.0656 0.1026
C23 C 0.0093(2) -0.3047(4) 0.0491(3)
H16 H -0.0145 -0.3278 0.0707
H17 H -0.0204 -0.3015 -0.0046
C24 C 0.08888(19) -0.4571(4) 0.1294(2)
H18 H 0.0844 -0.4474 0.1694
C25 C 0.11821(19) -0.5221(4) 0.0590(2)
C26 C 0.1455(2) -0.5854(4) 0.0275(2)
H19 H 0.1754 -0.6432 0.0540
C27 C 0.1257(2) -0.5577(5) -0.0443(2)
H20 H 0.1430 -0.5975 -0.0669
C28 C 0.0810(2) -0.4730(5) -0.0843(3)
H21 H 0.0687 -0.4587 -0.1332
C29 C 0.0536(2) -0.4084(4) -0.0546(2)
H22 H 0.0237 -0.3510 -0.0818
C30 C 0.07397(19) -0.4351(4) 0.0193(2)
Zn1_2 Zn 0.18818(2) -0.65405(4) 0.20648(2)
Zn1E Zn 0.18818(2) 0.65405(4) 0.70648(2)
N1E N 0.26470(16) 0.3843(3) 0.20026(17)
N3_2 N 0.12720(15) 0.4667(3) 0.12931(17)
O5 O 0.0638(2) 0.3719(4) 0.2571(2)
H23 H 0.0651 0.3247 0.2288
H24 H 0.1042 0.3806 0.2813
O6 O 0.0000 0.1848(10) 0.2500
loop_
_geom_bond_atom_site_label_1
_geom_bond_atom_site_label_2
_geom_bond_site_symmetry_1
_geom_bond_site_symmetry_2
Zn1 O1 1_555 1_555
O1 C1 1_555 1_555
O2 C1 1_555 1_555
O3 Zn1 1_555 1_555
O4 C16 1_555 1_555
N1 C9 1_555 1_555
N2 C8 1_555 1_555
N3 C24 1_555 1_555
N4 C23 1_555 1_555
C1 C2 1_555 1_555
C2 C3 1_555 1_555
C3 H1 1_555 1_555
C4 C3 1_555 1_555
H2 C4 1_555 1_555
C5 C4 1_555 1_555
C6 C5 1_555 1_555
H3 C6 1_555 1_555
C7 C2 1_555 1_555
H4 C7 1_555 1_555
C8 C5 1_555 1_555
H5 C8 1_555 1_555
H6 C8 1_555 1_555
C9 N2 1_555 1_555
H7 C9 1_555 1_555
C10 N1 1_555 1_555
C11 C10 1_555 1_555
H8 C11 1_555 1_555
C12 C11 1_555 1_555
H9 C12 1_555 1_555
C13 C12 1_555 1_555
H10 C13 1_555 1_555
C14 C13 1_555 1_555
H11 C14 1_555 1_555
C15 N2 1_555 1_555
C16 O3 1_555 1_555
C17 C16 1_555 1_555
C18 C17 1_555 1_555
H12 C18 1_555 1_555
C19 C18 1_555 1_555
H13 C19 1_555 1_555
C20 C19 1_555 1_555
C21 C20 1_555 1_555
H14 C21 1_555 1_555
C22 C17 1_555 1_555
H15 C22 1_555 1_555
C23 C20 1_555 1_555
H16 C23 1_555 1_555
H17 C23 1_555 1_555
C24 N4 1_555 1_555
H18 C24 1_555 1_555
C25 N3 1_555 1_555
C26 C25 1_555 1_555
H19 C26 1_555 1_555
C27 C26 1_555 1_555
H20 C27 1_555 1_555
C28 C27 1_555 1_555
H21 C28 1_555 1_555
C29 C28 1_555 1_555
H22 C29 1_555 1_555
C30 N4 1_555 1_555
O5 H23 1_555 1_555
H24 O5 1_555 1_555
Zn1_2 N3 1_555 1_555
Zn1E N1 1_555 1_555
N1E Zn1 1_555 1_555
N3_2 Zn1 1_555 1_555
C6 C7 1_555 1_555
C10 C15 1_555 1_555
C14 C15 1_555 1_555
C21 C22 1_555 1_555
C25 C30 1_555 1_555
C29 C30 1_555 1_555

#END
