
#######################################################################
#
#                 Cambridge Crystallographic Data Centre
#                                CCDC 
#
#######################################################################
#
# If this CIF has been generated from an entry in the Cambridge 
# Structural Database, then it will include bibliographic, chemical, 
# crystal, experimental, refinement or atomic coordinate data resulting 
# from the CCDC's data processing and validation procedures.
#
#######################################################################

data_GEYGIC
_symmetry_cell_setting           triclinic
_symmetry_space_group_name_H-M   'P -1'
_symmetry_Int_Tables_number      2
_space_group_name_Hall           '-P 1'
loop_
_symmetry_equiv_pos_site_id
_symmetry_equiv_pos_as_xyz
1 x,y,z
2 -x,-y,-z
_cell_length_a                   12.2919(12)
_cell_length_b                   15.6102(13)
_cell_length_c                   17.8941(15)
_cell_angle_alpha                111.073(14)
_cell_angle_beta                 95.050(12)
_cell_angle_gamma                112.847(14)
_cell_volume                     2847.19
loop_
_atom_site_label
_atom_site_type_symbol
_atom_site_fract_x
_atom_site_fract_y
_atom_site_fract_z
Mn1 Mn 0.43672(3) 0.91401(2) 0.361920(18)
Mn2 Mn 0.14415(3) 0.65709(2) 0.115214(18)
P1 P 0.38338(5) 0.83520(4) 0.51024(3)
P2 P 0.16290(5) 0.87716(4) 0.26185(3)
P3 P 0.06315(5) 0.57166(4) -0.09809(3)
P4 P 0.45013(5) 0.79328(4) 0.17630(3)
O1 O 0.28557(14) 0.92450(12) 0.32298(9)
O2 O 0.32590(13) 0.70050(11) 0.13690(9)
O3 O 0.49797(14) 0.84061(12) 0.26976(9)
O4 O 0.09590(14) 0.63104(11) -0.00499(9)
O5 O -0.04795(13) 0.46743(11) -0.13532(9)
O6 O 0.11534(14) 0.76661(11) 0.19934(9)
O7 O 0.81211(14) 0.66679(12) 0.03357(11)
O8 O 0.14800(14) 1.13058(12) 0.08428(10)
O9 O -0.21947(15) 0.87488(13) 0.44511(10)
O10 O 0.41245(15) 0.83179(13) 0.42932(10)
O11 O 0.46179(15) 1.12713(11) 0.08350(9)
O12 O 0.42571(14) 0.94089(12) 0.57976(10)
O13 O 0.48848(15) 0.52111(13) -0.20821(11)
O14 O 0.04662(17) 0.83913(13) -0.26040(10)
C1 C 0.44858(18) 0.89267(16) 0.14798(12)
C2 C 0.08458(19) 0.97137(17) 0.08925(13)
H1 H 0.0314 0.9414 0.0368
C3 C 0.36870(18) 0.86877(16) 0.07529(13)
H2 H 0.3131 0.8005 0.0419
C4 C 0.55762(18) 0.75427(15) 0.13188(13)
C5 C 0.0450(2) 0.78173(17) -0.21801(14)
C6 C 0.6019(2) 0.64217(16) 0.01753(13)
H3 H 0.5752 0.5879 -0.0350
C7 C 0.04151(19) 0.65123(16) -0.14348(13)
C8 C 0.08423(19) 0.82127(16) -0.13212(13)
H4 H 0.1115 0.8910 -0.0992
C9 C 0.08836(19) 0.91132(16) 0.12891(13)
H5 H 0.0369 0.8409 0.1033
C10 C 0.51988(19) 0.67419(16) 0.05267(13)
H6 H 0.4383 0.6415 0.0227
C11 C 0.16076(19) 1.07747(17) 0.12776(13)
C12 C 0.19132(19) 0.55443(16) -0.13061(12)
C13 C 0.08240(19) 0.75587(16) -0.09577(13)
H7 H 0.1091 0.7826 -0.0383
O15 O -0.15593(17) 0.61525(15) 0.45951(12)
C14 C 0.2429(2) 1.12218(17) 0.20520(13)
H8 H 0.2947 1.1925 0.2306
C15 C 0.4503(2) 0.76671(16) 0.54424(13)
C16 C -0.0600(2) 0.96910(17) 0.39348(13)
H9 H -0.0722 1.0275 0.4147
O16 O 0.60075(18) 0.61702(14) 0.63783(12)
C17 C 0.04877(19) 0.88101(16) 0.31754(12)
C18 C 0.7646(2) 0.77362(17) 0.14051(14)
H10 H 0.8468 0.8077 0.1694
C19 C 0.16898(19) 0.95506(16) 0.20761(13)
C20 C 0.24665(19) 1.06031(16) 0.24414(13)
H11 H 0.3021 1.0898 0.2956
C21 C 0.68123(19) 0.80342(16) 0.17538(13)
H12 H 0.7079 0.8567 0.2284
C22 C 0.72412(19) 0.69230(16) 0.06190(14)
C23 C 0.2920(2) 0.63601(16) -0.13261(13)
H13 H 0.2932 0.7001 -0.1163
C24 C 0.4241(2) 0.74793(18) 0.61283(14)
H14 H 0.3711 0.7692 0.6390
C25 C -0.12987(19) 0.88257(18) 0.40441(13)
C26 C 0.4528(2) 1.04655(16) 0.10066(13)
C27 C -0.0220(2) 0.79555(17) 0.33052(15)
H15 H -0.0100 0.7370 0.3097
C28 C 0.3891(2) 0.62262(17) -0.15840(13)
H16 H 0.4550 0.6774 -0.1595
C29 C 0.2208(2) 0.76718(17) 0.49389(13)
C30 C 0.0287(2) 0.96750(17) 0.35022(13)
H17 H 0.0757 1.0257 0.3430
C31 C 0.36993(19) 0.94449(16) 0.05138(13)
H18 H 0.3155 0.9269 0.0027
C32 C -0.0324(2) 0.66074(19) 0.46735(17)
C33 C -0.2516(2) 0.9579(2) 0.47010(16)
H19 H -0.1814 1.0204 0.5077
H20 H -0.3160 0.9434 0.4973
H21 H -0.2792 0.9655 0.4221
C34 C 0.5319(2) 0.99649(16) 0.19711(13)
H22 H 0.5860 1.0144 0.2461
C35 C 0.3883(2) 0.52662(18) -0.18296(14)
C36 C 0.5346(2) 1.07211(16) 0.17365(13)
H23 H 0.5910 1.1404 0.2064
C37 C 0.4762(2) 0.69804(18) 0.64220(14)
H24 H 0.4580 0.6858 0.6878
C38 C 0.3814(2) 1.10346(18) 0.00824(14)
H25 H 0.3948 1.0574 -0.0382
H26 H 0.3975 1.1657 0.0024
H27 H 0.2980 1.0714 0.0101
C39 C -0.0004(2) 0.67648(19) -0.26624(14)
H28 H -0.0294 0.6494 -0.3236
C40 C -0.0025(2) 0.61234(17) -0.22939(14)
H29 H -0.0336 0.5421 -0.2622
C41 C 0.1121(2) 0.94855(18) -0.21513(15)
H30 H 0.0702 0.9721 -0.1757
H31 H 0.1168 0.9798 -0.2530
H32 H 0.1933 0.9673 -0.1863
C42 C 0.1631(2) 0.79931(18) 0.55424(14)
H33 H 0.2095 0.8572 0.6039
C43 C 0.2200(2) 1.24024(18) 0.12254(16)
H34 H 0.2032 1.2688 0.1748
H35 H 0.1996 1.2684 0.0869
H36 H 0.3053 1.2569 0.1315
C44 C 0.5841(3) 0.6852(2) 0.53596(16)
H37 H 0.6383 0.6648 0.5105
C45 C 0.1925(2) 0.45945(17) -0.15507(14)
H38 H 0.1266 0.4045 -0.1541
C46 C 0.1489(2) 0.6811(2) 0.42012(16)
H39 H 0.1856 0.6587 0.3789
C47 C 0.5302(2) 0.73523(19) 0.50677(15)
H40 H 0.5485 0.7476 0.4612
C48 C 0.7708(2) 0.57052(18) -0.03706(17)
H41 H 0.7119 0.5167 -0.0270
H42 H 0.8392 0.5567 -0.0466
H43 H 0.7337 0.5735 -0.0850
C49 C 0.2904(2) 0.44503(18) -0.18094(15)
H44 H 0.2900 0.3813 -0.1967
C50 C -0.1097(2) 0.79620(18) 0.37380(15)
H45 H -0.1552 0.7388 0.3824
C51 C 0.0382(2) 0.74666(19) 0.54148(15)
H46 H 0.0014 0.7688 0.5827
C52 C 0.5554(2) 0.66637(18) 0.60377(15)
C53 C 0.4868(3) 0.4220(2) -0.2411(2)
H47 H 0.4844 0.3978 -0.1986
H48 H 0.5591 0.4274 -0.2596
H49 H 0.4157 0.3744 -0.2870
C54 C 0.6849(3) 0.5845(3) 0.6020(2)
H50 H 0.6462 0.5368 0.5448
H51 H 0.7101 0.5517 0.6314
H52 H 0.7553 0.6432 0.6058
C55 C 0.0230(3) 0.6277(2) 0.40652(18)
H53 H -0.0238 0.5700 0.3568
C56 C -0.2315(3) 0.5265(2) 0.3837(2)
H54 H -0.2183 0.5430 0.3375
H55 H -0.3160 0.5052 0.3839
H56 H -0.2110 0.4716 0.3789
Mn1A Mn 0.56328(3) 1.08599(2) 0.638080(18)
Mn2A Mn -0.14415(3) 0.34291(2) -0.115214(18)
O5A O 0.04795(13) 0.53257(11) 0.13532(9)
O12A O 0.57429(14) 1.05911(12) 0.42024(10)
O17 O 0.2725(9) 0.5952(8) 0.2812(6)
H57 H 0.3049 0.6558 0.3171
H58 H 0.2150 0.5842 0.2453
loop_
_geom_bond_atom_site_label_1
_geom_bond_atom_site_label_2
_geom_bond_site_symmetry_1
_geom_bond_site_symmetry_2
Mn1 O1 1_555 1_555
Mn2 O2 1_555 1_555
P1 O10 1_555 1_555
P2 O1 1_555 1_555
P3 O4 1_555 1_555
P4 O2 1_555 1_555
O3 Mn1 1_555 1_555
O4 Mn2 1_555 1_555
O5 P3 1_555 1_555
O6 Mn2 1_555 1_555
O7 C22 1_555 1_555
O8 C11 1_555 1_555
O9 C25 1_555 1_555
O10 Mn1 1_555 1_555
O11 C26 1_555 1_555
O12 P1 1_555 1_555
O13 C35 1_555 1_555
O14 C5 1_555 1_555
C1 P4 1_555 1_555
C2 H1 1_555 1_555
C3 C1 1_555 1_555
H2 C3 1_555 1_555
C4 P4 1_555 1_555
C5 C8 1_555 1_555
C6 H3 1_555 1_555
C7 P3 1_555 1_555
C8 H4 1_555 1_555
C9 C2 1_555 1_555
H5 C9 1_555 1_555
C10 C4 1_555 1_555
H6 C10 1_555 1_555
C11 C2 1_555 1_555
C12 P3 1_555 1_555
C13 C7 1_555 1_555
H7 C13 1_555 1_555
O15 C32 1_555 1_555
C14 C11 1_555 1_555
H8 C14 1_555 1_555
C15 P1 1_555 1_555
C16 H9 1_555 1_555
O16 C52 1_555 1_555
C17 P2 1_555 1_555
C18 H10 1_555 1_555
C19 P2 1_555 1_555
C20 C14 1_555 1_555
H11 C20 1_555 1_555
C21 C4 1_555 1_555
H12 C21 1_555 1_555
C22 C6 1_555 1_555
C23 C12 1_555 1_555
H13 C23 1_555 1_555
C24 C15 1_555 1_555
H14 C24 1_555 1_555
C25 C16 1_555 1_555
C26 C31 1_555 1_555
C27 C17 1_555 1_555
H15 C27 1_555 1_555
C28 C23 1_555 1_555
H16 C28 1_555 1_555
C29 P1 1_555 1_555
C30 C16 1_555 1_555
H17 C30 1_555 1_555
C31 C3 1_555 1_555
H18 C31 1_555 1_555
C32 C51 1_555 1_555
C33 O9 1_555 1_555
H19 C33 1_555 1_555
H20 C33 1_555 1_555
H21 C33 1_555 1_555
C34 C1 1_555 1_555
H22 C34 1_555 1_555
C35 C28 1_555 1_555
C36 C26 1_555 1_555
H23 C36 1_555 1_555
C37 C24 1_555 1_555
H24 C37 1_555 1_555
C38 O11 1_555 1_555
H25 C38 1_555 1_555
H26 C38 1_555 1_555
H27 C38 1_555 1_555
C39 C5 1_555 1_555
H28 C39 1_555 1_555
C40 C7 1_555 1_555
H29 C40 1_555 1_555
C41 O14 1_555 1_555
H30 C41 1_555 1_555
H31 C41 1_555 1_555
H32 C41 1_555 1_555
C42 C29 1_555 1_555
H33 C42 1_555 1_555
C43 O8 1_555 1_555
H34 C43 1_555 1_555
H35 C43 1_555 1_555
H36 C43 1_555 1_555
C44 H37 1_555 1_555
C45 C12 1_555 1_555
H38 C45 1_555 1_555
C46 C29 1_555 1_555
H39 C46 1_555 1_555
C47 C15 1_555 1_555
H40 C47 1_555 1_555
C48 O7 1_555 1_555
H41 C48 1_555 1_555
H42 C48 1_555 1_555
H43 C48 1_555 1_555
C49 C35 1_555 1_555
H44 C49 1_555 1_555
C50 C25 1_555 1_555
H45 C50 1_555 1_555
C51 C42 1_555 1_555
H46 C51 1_555 1_555
C52 C37 1_555 1_555
C53 O13 1_555 1_555
H47 C53 1_555 1_555
H48 C53 1_555 1_555
H49 C53 1_555 1_555
C54 O16 1_555 1_555
H50 C54 1_555 1_555
H51 C54 1_555 1_555
H52 C54 1_555 1_555
C55 C32 1_555 1_555
H53 C55 1_555 1_555
C56 O15 1_555 1_555
H54 C56 1_555 1_555
H55 C56 1_555 1_555
H56 C56 1_555 1_555
O17 H57 1_555 1_555
H58 O17 1_555 1_555
Mn1A O12 1_555 1_555
Mn2A O5 1_555 1_555
O5A Mn2 1_555 1_555
O12A Mn1 1_555 1_555
P2 O6 1_555 1_555
P4 O3 1_555 1_555
C6 C10 1_555 1_555
C8 C13 1_555 1_555
C9 C19 1_555 1_555
C17 C30 1_555 1_555
C18 C21 1_555 1_555
C18 C22 1_555 1_555
C19 C20 1_555 1_555
C27 C50 1_555 1_555
C34 C36 1_555 1_555
C39 C40 1_555 1_555
C44 C47 1_555 1_555
C44 C52 1_555 1_555
C45 C49 1_555 1_555
C46 C55 1_555 1_555

#END
