
#######################################################################
#
#                 Cambridge Crystallographic Data Centre
#                                CCDC 
#
#######################################################################
#
# If this CIF has been generated from an entry in the Cambridge 
# Structural Database, then it will include bibliographic, chemical, 
# crystal, experimental, refinement or atomic coordinate data resulting 
# from the CCDC's data processing and validation procedures.
#
#######################################################################

data_GEYQEI
_symmetry_cell_setting           monoclinic
_symmetry_space_group_name_H-M   'P 21/n'
_symmetry_Int_Tables_number      14
_space_group_name_Hall           '-P 2yn'
loop_
_symmetry_equiv_pos_site_id
_symmetry_equiv_pos_as_xyz
1 x,y,z
2 1/2-x,1/2+y,1/2-z
3 -x,-y,-z
4 1/2+x,1/2-y,1/2+z
_cell_length_a                   15.338(16)
_cell_length_b                   8.152(8)
_cell_length_c                   16.710(17)
_cell_angle_alpha                90
_cell_angle_beta                 111.766(11)
_cell_angle_gamma                90
_cell_volume                     1940.38
loop_
_atom_site_label
_atom_site_type_symbol
_atom_site_fract_x
_atom_site_fract_y
_atom_site_fract_z
I1 I 0.287154(15) 0.60352(3) 0.213311(14)
Cu1 Cu 0.15713(3) 0.80680(6) 0.22596(3)
S1 S 0.25741(6) 0.89647(12) -0.28885(6)
S2 S 0.22533(6) 0.94998(12) -0.18476(6)
N1 N 0.10645(18) 1.0936(3) -0.36219(17)
N2 N 0.08678(19) 0.7326(3) -0.26536(17)
N3 N 0.10858(17) 0.8249(3) -0.12245(16)
C1 C 0.0088(2) 0.7385(4) -0.04602(19)
C2 C 0.1292(2) 0.8184(4) -0.1934(2)
C3 C 0.1790(2) 1.0213(4) -0.3724(2)
N4 N 0.05310(18) 0.7924(3) 0.10585(17)
C4 C 0.0478(2) 1.1797(4) -0.4306(2)
C5 C -0.0098(2) 0.6285(4) -0.1932(2)
H1 H -0.0571 0.5577 -0.1928
C6 C -0.1032(2) 0.7037(5) 0.0213(2)
H2 H -0.1629 0.6763 0.0191
C7 C -0.0813(2) 0.6948(4) -0.0520(2)
H3 H -0.1258 0.6603 -0.1042
C8 C -0.0347(2) 0.7542(4) 0.0975(2)
H4 H -0.0505 0.7621 0.1460
C9 C 0.0730(2) 0.7843(4) 0.0338(2)
H5 H 0.1335 0.8111 0.0381
N5 N 0.2039(2) 1.0248(4) -0.4416(2)
C10 C 0.0366(2) 0.7304(4) -0.12285(19)
C11 C 0.0171(2) 0.6369(4) -0.2625(2)
H6 H -0.0148 0.5724 -0.3104
C12 C 0.0654(3) 1.1880(4) -0.5066(2)
H7 H 0.0250 1.2436 -0.5547
C13 C 0.1449(3) 1.1109(5) -0.5079(3)
H8 H 0.1584 1.1191 -0.5577
C14 C -0.0532(2) 1.2180(4) -0.3454(2)
H9 H -0.0139 1.1437 -0.3063
C15 C -0.0345(2) 1.2560(4) -0.4188(2)
C16 C -0.0956(2) 1.3638(4) -0.4781(2)
H10 H -0.0870 1.3899 -0.5288
N6 N -0.12458(18) 1.2826(3) -0.32805(16)
C17 C -0.1810(2) 1.3890(4) -0.3852(2)
H11 H -0.2303 1.4362 -0.3737
C18 C -0.1689(2) 1.4313(5) -0.4605(2)
H12 H -0.2098 1.5046 -0.4989
I1A I 0.212846(15) 1.10352(3) 0.286689(14)
Cu1A Cu 0.34287(3) 0.30680(6) 0.27404(3)
Cu1B Cu -0.15713(3) 1.19320(6) -0.22596(3)
N6B N 0.12458(18) 0.7174(3) 0.32805(16)
loop_
_geom_bond_atom_site_label_1
_geom_bond_atom_site_label_2
_geom_bond_site_symmetry_1
_geom_bond_site_symmetry_2
I1 Cu1 1_555 1_555
Cu1 N4 1_555 1_555
S1 S2 1_555 1_555
S2 C2 1_555 1_555
N1 C3 1_555 1_555
N2 C2 1_555 1_555
N3 C2 1_555 1_555
C1 C7 1_555 1_555
C3 S1 1_555 1_555
N4 C8 1_555 1_555
C4 N1 1_555 1_555
C5 H1 1_555 1_555
C6 H2 1_555 1_555
C7 C6 1_555 1_555
H3 C7 1_555 1_555
C8 C6 1_555 1_555
H4 C8 1_555 1_555
C9 C1 1_555 1_555
H5 C9 1_555 1_555
N5 C3 1_555 1_555
C10 N3 1_555 1_555
C11 N2 1_555 1_555
H6 C11 1_555 1_555
C12 C4 1_555 1_555
H7 C12 1_555 1_555
C13 N5 1_555 1_555
H8 C13 1_555 1_555
C14 H9 1_555 1_555
C15 C4 1_555 1_555
C16 C15 1_555 1_555
H10 C16 1_555 1_555
N6 C14 1_555 1_555
C17 N6 1_555 1_555
H11 C17 1_555 1_555
C18 C16 1_555 1_555
H12 C18 1_555 1_555
I1A Cu1 1_555 1_555
Cu1A I1 1_555 1_555
Cu1B N6 1_555 1_555
N6B Cu1 1_555 1_555
C1 C10 1_555 1_555
N4 C9 1_555 1_555
C5 C10 1_555 1_555
C5 C11 1_555 1_555
C12 C13 1_555 1_555
C14 C15 1_555 1_555
C17 C18 1_555 1_555

#END
