
#######################################################################
#
#                 Cambridge Crystallographic Data Centre
#                                CCDC 
#
#######################################################################
#
# If this CIF has been generated from an entry in the Cambridge 
# Structural Database, then it will include bibliographic, chemical, 
# crystal, experimental, refinement or atomic coordinate data resulting 
# from the CCDC's data processing and validation procedures.
#
#######################################################################

data_GEYQAE
_symmetry_cell_setting           triclinic
_symmetry_space_group_name_H-M   'P -1'
_symmetry_Int_Tables_number      2
_space_group_name_Hall           '-P 1'
loop_
_symmetry_equiv_pos_site_id
_symmetry_equiv_pos_as_xyz
1 x,y,z
2 -x,-y,-z
_cell_length_a                   9.9899(12)
_cell_length_b                   12.4436(16)
_cell_length_c                   12.675(3)
_cell_angle_alpha                113.530(2)
_cell_angle_beta                 102.751(2)
_cell_angle_gamma                103.3880(10)
_cell_volume                     1315.9
loop_
_atom_site_label
_atom_site_type_symbol
_atom_site_fract_x
_atom_site_fract_y
_atom_site_fract_z
Co1 Co 0.94839(6) 0.07921(5) 0.35503(5)
N1 N 1.0082(4) 0.2466(3) 0.3393(3)
N2 N 0.8758(4) 0.0090(3) 0.1640(3)
N3 N 0.7651(7) 0.5528(4) 1.0564(4)
O1 O 0.8798(4) 0.1530(4) 0.5134(3)
O2 O 0.7040(4) 0.0643(3) 0.3362(3)
O3 O 0.1902(4) 0.0251(5) 0.3205(3)
O4 O 0.1549(3) 0.1464(4) 0.4849(3)
O5 O 0.5940(4) 0.1287(3) 1.1737(3)
H1 H 0.6236 0.1178 1.2330
O6 O 0.7010(6) 0.3301(4) 1.3127(3)
O7 O 0.7018(8) 0.5957(4) 1.0020(5)
O8 O 0.8890(7) 0.6114(5) 1.1337(6)
O9 O 0.6544(4) 0.3623(3) 0.8210(3)
O10 O 0.9002(4) -0.1037(3) 0.3338(3)
H2 H 0.9728 -0.1236 0.3326
H3 H 0.8717 -0.1080 0.3891
C1 C 0.6437(4) 0.1576(4) 0.5150(4)
C2 C 0.4949(4) 0.1151(4) 0.4479(4)
H4 H 0.4604 0.0633 0.3634
C3 C 0.3973(4) 0.1491(4) 0.5054(4)
C4 C 0.4490(5) 0.2298(4) 0.6310(4)
H5 H 0.3849 0.2553 0.6701
C5 C 0.5975(5) 0.2718(4) 0.6970(4)
C6 C 0.6950(4) 0.2356(4) 0.6416(4)
H6 H 0.7938 0.2628 0.6880
C7 C 0.7488(5) 0.1232(4) 0.4513(4)
C8 C 0.2365(5) 0.1016(5) 0.4296(4)
C9 C 0.6344(5) 0.3285(4) 0.9076(4)
C10 C 0.6949(6) 0.4233(4) 1.0293(4)
C11 C 0.6943(6) 0.3982(4) 1.1253(4)
H7 H 0.7372 0.4629 1.2059
C12 C 0.6297(5) 0.2762(4) 1.1015(4)
C13 C 0.5642(5) 0.1814(4) 0.9800(4)
H8 H 0.5186 0.0994 0.9633
C14 C 0.5658(5) 0.2072(4) 0.8843(4)
H9 H 0.5207 0.1428 0.8037
C15 C 0.6434(5) 0.2496(5) 1.2077(4)
C16 C 1.0748(6) 0.3645(5) 0.4277(5)
H10 H 1.0986 0.3807 0.5091
C17 C 1.1108(7) 0.4660(5) 0.4032(6)
H11 H 1.1561 0.5476 0.4677
C18 C 1.0792(6) 0.4448(5) 0.2848(6)
H12 H 1.1034 0.5115 0.2679
C19 C 1.0098(5) 0.3210(4) 0.1887(5)
C20 C 0.9761(4) 0.2258(4) 0.2213(4)
C21 C 0.9696(5) 0.2890(5) 0.0617(5)
H13 H 0.9928 0.3521 0.0398
C22 C 0.8977(5) 0.1674(5) -0.0280(4)
H14 H 0.8722 0.1489 -0.1101
C23 C 0.8611(5) 0.0685(4) 0.0023(4)
C24 C 0.7863(5) -0.0577(5) -0.0848(4)
H15 H 0.7563 -0.0814 -0.1682
C25 C 0.7573(5) -0.1465(5) -0.0465(4)
H16 H 0.7063 -0.2306 -0.1036
C26 C 0.8050(5) -0.1094(4) 0.0785(4)
H17 H 0.7862 -0.1706 0.1031
C27 C 0.9025(4) 0.0973(4) 0.1269(4)
Co1_2 Co -0.05161(6) 0.07921(5) 0.35503(5)
O4_2 O 1.1549(3) 0.1464(4) 0.4849(3)
loop_
_geom_bond_atom_site_label_1
_geom_bond_atom_site_label_2
_geom_bond_site_symmetry_1
_geom_bond_site_symmetry_2
Co1 N1 1_555 1_555
N1 C16 1_555 1_555
N2 Co1 1_555 1_555
N3 O7 1_555 1_555
O1 Co1 1_555 1_555
O2 Co1 1_555 1_555
O3 C8 1_555 1_555
O4 C8 1_555 1_555
O5 H1 1_555 1_555
O6 C15 1_555 1_555
O8 N3 1_555 1_555
O9 C5 1_555 1_555
O10 Co1 1_555 1_555
H2 O10 1_555 1_555
H3 O10 1_555 1_555
C1 C2 1_555 1_555
C2 H4 1_555 1_555
C3 C2 1_555 1_555
C4 C3 1_555 1_555
H5 C4 1_555 1_555
C5 C4 1_555 1_555
C6 C1 1_555 1_555
H6 C6 1_555 1_555
C7 O1 1_555 1_555
C8 C3 1_555 1_555
C9 O9 1_555 1_555
C10 N3 1_555 1_555
C11 C10 1_555 1_555
H7 C11 1_555 1_555
C12 C11 1_555 1_555
C13 C12 1_555 1_555
H8 C13 1_555 1_555
C14 C9 1_555 1_555
H9 C14 1_555 1_555
C15 O5 1_555 1_555
C16 H10 1_555 1_555
C17 C16 1_555 1_555
H11 C17 1_555 1_555
C18 C17 1_555 1_555
H12 C18 1_555 1_555
C19 C18 1_555 1_555
C20 N1 1_555 1_555
C21 C19 1_555 1_555
H13 C21 1_555 1_555
C22 C21 1_555 1_555
H14 C22 1_555 1_555
C23 C22 1_555 1_555
C24 C23 1_555 1_555
H15 C24 1_555 1_555
C25 C24 1_555 1_555
H16 C25 1_555 1_555
C26 N2 1_555 1_555
H17 C26 1_555 1_555
C27 N2 1_555 1_555
Co1_2 O4 1_555 1_555
O4_2 Co1 1_555 1_555
O2 C7 1_555 1_555
C1 C7 1_555 1_555
C5 C6 1_555 1_555
C9 C10 1_555 1_555
C12 C15 1_555 1_555
C13 C14 1_555 1_555
C19 C20 1_555 1_555
C20 C27 1_555 1_555
C23 C27 1_555 1_555
C25 C26 1_555 1_555

#END
