
#######################################################################
#
#                 Cambridge Crystallographic Data Centre
#                                CCDC 
#
#######################################################################
#
# If this CIF has been generated from an entry in the Cambridge 
# Structural Database, then it will include bibliographic, chemical, 
# crystal, experimental, refinement or atomic coordinate data resulting 
# from the CCDC's data processing and validation procedures.
#
#######################################################################

data_GEYTAH
_symmetry_cell_setting           monoclinic
_symmetry_space_group_name_H-M   'P 21/n'
_symmetry_Int_Tables_number      14
_space_group_name_Hall           '-P 2yn'
loop_
_symmetry_equiv_pos_site_id
_symmetry_equiv_pos_as_xyz
1 x,y,z
2 1/2-x,1/2+y,1/2-z
3 -x,-y,-z
4 1/2+x,1/2-y,1/2+z
_cell_length_a                   11.5313(3)
_cell_length_b                   16.9991(6)
_cell_length_c                   13.9952(5)
_cell_angle_alpha                90
_cell_angle_beta                 92.608(3)
_cell_angle_gamma                90
_cell_volume                     2740.52
loop_
_atom_site_label
_atom_site_type_symbol
_atom_site_fract_x
_atom_site_fract_y
_atom_site_fract_z
Zn1 Zn 0.762996(19) 0.067168(12) 0.087872(15)
O1 O -0.07009(18) 0.10715(12) -0.68706(14)
H1 H -0.1255 0.1330 -0.7144
O2 O 0.64197(12) 0.13307(8) 0.14712(11)
O3 O 0.78103(13) 0.19956(10) 0.22632(12)
O4 O 0.70076(15) 0.46954(9) 0.34471(13)
O5 O 0.52169(19) 0.49917(11) 0.37728(17)
O6 O 0.20034(15) 0.33903(11) 0.24023(16)
H2 H 0.1311 0.3271 0.2368
O7 O 0.23266(16) 0.22597(12) 0.16762(18)
N1 N 0.67466(15) 0.03170(10) -0.03662(12)
N2 N 0.55025(15) -0.10469(10) -0.34070(12)
N3 N 0.64634(15) -0.34326(10) -0.52851(12)
C1 C 0.56843(18) 0.05833(12) -0.06295(15)
H3 H 0.5319 0.0927 -0.0223
C2 C 0.51116(18) 0.03702(12) -0.14731(14)
H4 H 0.4371 0.0564 -0.1624
C3 C 0.56435(17) -0.01361(11) -0.21003(14)
C4 C 0.67394(19) -0.04119(13) -0.18238(15)
H5 H 0.7123 -0.0757 -0.2217
C5 C 0.72590(19) -0.01745(13) -0.09662(15)
H6 H 0.7997 -0.0363 -0.0796
C6 C 0.50590(18) -0.03966(12) -0.30154(14)
C7 C 0.41107(18) -0.00005(12) -0.34330(14)
H7 H 0.3850 0.0462 -0.3160
C8 C 0.35517(18) -0.02959(12) -0.42583(14)
C9 C 0.39833(19) -0.09921(13) -0.46309(15)
H8 H 0.3619 -0.1222 -0.5168
C10 C 0.49569(18) -0.13395(12) -0.41964(14)
C11 C 0.54642(18) -0.20694(12) -0.45795(14)
C12 C 0.48002(19) -0.26344(13) -0.50679(16)
H9 H 0.4004 -0.2563 -0.5167
C13 C 0.53260(18) -0.33019(12) -0.54057(16)
H10 H 0.4869 -0.3675 -0.5730
C14 C 0.71058(19) -0.28876(13) -0.48097(16)
H11 H 0.7900 -0.2973 -0.4722
C15 C 0.66451(19) -0.22098(13) -0.44471(16)
H12 H 0.7120 -0.1850 -0.4117
C16 C 0.25331(19) 0.01088(12) -0.47251(15)
C17 C 0.1852(2) 0.06024(16) -0.42020(17)
H13 H 0.2032 0.0677 -0.3554
C18 C 0.0910(3) 0.09853(19) -0.4625(2)
H14 H 0.0463 0.1317 -0.4263
C19 C 0.0625(2) 0.08788(15) -0.55859(18)
C20 C 0.1281(2) 0.03734(14) -0.61140(16)
H15 H 0.1081 0.0287 -0.6757
C21 C 0.2230(2) -0.00032(14) -0.56915(16)
H16 H 0.2674 -0.0336 -0.6055
C22 C 0.67811(18) 0.19100(11) 0.19787(14)
C23 C 0.59189(17) 0.25298(11) 0.22296(13)
C24 C 0.47456(17) 0.24361(11) 0.19997(14)
H17 H 0.4488 0.1994 0.1661
C25 C 0.39494(18) 0.30019(12) 0.22733(14)
C26 C 0.43403(18) 0.36791(12) 0.27484(15)
H18 H 0.3809 0.4055 0.2932
C27 C 0.55206(18) 0.37950(11) 0.29491(14)
C28 C 0.63017(18) 0.32126(11) 0.27040(14)
H19 H 0.7089 0.3278 0.2858
C29 C 0.5922(2) 0.45494(13) 0.34308(15)
C30 C 0.26904(19) 0.28394(13) 0.20810(17)
O8 O -0.1127(4) 0.1628(3) -0.5504(3)
C31 C -0.0501(10) 0.1221(6) -0.5961(8)
Zn1A Zn 0.737004(19) -0.432832(12) -0.587872(15)
Zn1A_2 Zn 0.737004(19) 0.567168(12) 0.412128(15)
O4A O 0.79924(15) -0.03046(9) 0.15529(13)
N3A N 0.85366(15) 0.15674(10) 0.02851(12)
O10 O -0.02734(18) 0.30487(14) 0.2447(2)
O11 O 0.3561(5) 0.1748(3) -0.0536(5)
O9? O -0.0423(8) 0.2094(4) -0.5879(5)
C32? C -0.0189(13) 0.1437(9) -0.6133(12)
loop_
_geom_bond_atom_site_label_1
_geom_bond_atom_site_label_2
_geom_bond_site_symmetry_1
_geom_bond_site_symmetry_2
Zn1 O2 1_555 1_555
O1 H1 1_555 1_555
O2 C22 1_555 1_555
O3 C22 1_555 1_555
O4 C29 1_555 1_555
O5 C29 1_555 1_555
O6 H2 1_555 1_555
O7 C30 1_555 1_555
N1 Zn1 1_555 1_555
N2 C6 1_555 1_555
N3 C13 1_555 1_555
C1 N1 1_555 1_555
H3 C1 1_555 1_555
C2 C1 1_555 1_555
H4 C2 1_555 1_555
C3 C2 1_555 1_555
C4 C3 1_555 1_555
H5 C4 1_555 1_555
C5 N1 1_555 1_555
H6 C5 1_555 1_555
C6 C3 1_555 1_555
C7 C6 1_555 1_555
H7 C7 1_555 1_555
C8 C7 1_555 1_555
C9 C8 1_555 1_555
H8 C9 1_555 1_555
C10 N2 1_555 1_555
C11 C10 1_555 1_555
C12 C11 1_555 1_555
H9 C12 1_555 1_555
C13 C12 1_555 1_555
H10 C13 1_555 1_555
C14 N3 1_555 1_555
H11 C14 1_555 1_555
C15 C11 1_555 1_555
H12 C15 1_555 1_555
C16 C8 1_555 1_555
C17 C16 1_555 1_555
H13 C17 1_555 1_555
C18 C17 1_555 1_555
H14 C18 1_555 1_555
C19 C18 1_555 1_555
C20 C19 1_555 1_555
H15 C20 1_555 1_555
C21 C16 1_555 1_555
H16 C21 1_555 1_555
C22 C23 1_555 1_555
C23 C24 1_555 1_555
C24 H17 1_555 1_555
C25 C24 1_555 1_555
C26 C25 1_555 1_555
H18 C26 1_555 1_555
C27 C26 1_555 1_555
C28 C23 1_555 1_555
H19 C28 1_555 1_555
C29 C27 1_555 1_555
C30 O6 1_555 1_555
O8 C31 1_555 1_555
C31 O1 1_555 1_555
Zn1A N3 1_555 1_555
Zn1A_2 O4 1_555 1_555
O4A Zn1 1_555 1_555
N3A Zn1 1_555 1_555
C4 C5 1_555 1_555
C9 C10 1_555 1_555
C14 C15 1_555 1_555
C19 C31 1_555 1_555
C20 C21 1_555 1_555
C25 C30 1_555 1_555
C27 C28 1_555 1_555

#END
