
#######################################################################
#
#                 Cambridge Crystallographic Data Centre
#                                CCDC 
#
#######################################################################
#
# If this CIF has been generated from an entry in the Cambridge 
# Structural Database, then it will include bibliographic, chemical, 
# crystal, experimental, refinement or atomic coordinate data resulting 
# from the CCDC's data processing and validation procedures.
#
#######################################################################

data_GEZBIY
_symmetry_cell_setting           monoclinic
_symmetry_space_group_name_H-M   'P 21/c'
_symmetry_Int_Tables_number      14
_space_group_name_Hall           '-P 2ybc'
loop_
_symmetry_equiv_pos_site_id
_symmetry_equiv_pos_as_xyz
1 x,y,z
2 -x,1/2+y,1/2-z
3 -x,-y,-z
4 x,1/2-y,1/2+z
_cell_length_a                   8.7865(18)
_cell_length_b                   21.951(5)
_cell_length_c                   9.1750(19)
_cell_angle_alpha                90
_cell_angle_beta                 107.828(3)
_cell_angle_gamma                90
_cell_volume                     1684.63
loop_
_atom_site_label
_atom_site_type_symbol
_atom_site_fract_x
_atom_site_fract_y
_atom_site_fract_z
Cu1 Cu 0.93957(7) 0.30344(2) 0.82792(5)
O1 O 0.9298(4) 0.36041(14) 0.6612(3)
O2 O 0.7681(3) 0.25978(14) 1.1658(3)
O3 O 0.9178(3) 0.26227(14) 1.0097(3)
N1 N 0.7882(4) 0.36368(16) 0.8745(4)
O4 O 0.7443(4) 0.41657(16) 0.4936(3)
C1 C 1.1683(5) 0.20010(19) 0.8704(4)
N2 N 1.5426(4) 0.17852(18) 0.7876(4)
H1 H 1.6059 0.2008 0.7511
H2 H 1.5686 0.1407 0.8160
N3 N 1.3733(4) 0.26012(18) 0.7550(4)
N4 N 1.0803(4) 0.16208(17) 0.9280(4)
H3 H 0.9893 0.1710 0.9444
C2 C 0.8937(5) 0.4118(2) 0.9684(5)
H4 H 0.9581 0.4297 0.9075
H5 H 0.9687 0.3923 1.0595
C3 C 1.4077(5) 0.2021(2) 0.7999(4)
C4 C 0.8017(5) 0.2812(2) 1.0537(4)
C5 C 1.3036(5) 0.1688(2) 0.8596(4)
C6 C 0.6979(5) 0.3302(2) 0.9601(4)
H6 H 0.6011 0.3118 0.8878
H7 H 0.6637 0.3585 1.0280
N5 N 1.1355(4) 0.25927(16) 0.8298(4)
C7 C 0.6921(5) 0.3854(2) 0.7213(4)
H8 H 0.6476 0.4262 0.7304
H9 H 0.6018 0.3572 0.6775
C8 C 1.2426(5) 0.2850(2) 0.7711(4)
H10 H 1.2218 0.3259 0.7372
C9 C 0.7965(5) 0.3889(2) 0.6164(5)
C10 C 0.7020(6) 0.5063(2) 1.2100(5)
H11 H 0.6830 0.5040 1.3064
C11 C 0.8083(5) 0.4628(2) 1.0217(5)
C12 C 0.6790(6) 0.5603(2) 0.9824(6)
H12 H 0.6443 0.5954 0.9205
C13 C 0.6510(6) 0.5559(2) 1.1193(5)
H13 H 0.5955 0.5876 1.1521
C14 C 0.7577(6) 0.5141(2) 0.9324(5)
H14 H 0.7772 0.5176 0.8364
C15 C 1.2945(5) 0.1082(2) 0.9152(5)
H15 H 1.3681 0.0758 0.9219
C16 C 0.7811(5) 0.4592(2) 1.1635(5)
H16 H 0.8166 0.4247 1.2276
C17 C 1.1584(5) 0.1068(2) 0.9563(5)
H17 H 1.1220 0.0724 0.9989
Cu1C Cu 0.93957(7) 0.19656(2) 1.32792(5)
O2C O 0.7681(3) 0.24022(14) 0.6658(3)
loop_
_geom_bond_atom_site_label_1
_geom_bond_atom_site_label_2
_geom_bond_site_symmetry_1
_geom_bond_site_symmetry_2
Cu1 O1 1_555 1_555
O1 C9 1_555 1_555
O2 C4 1_555 1_555
O3 Cu1 1_555 1_555
N1 Cu1 1_555 1_555
O4 C9 1_555 1_555
C1 N4 1_555 1_555
N2 H1 1_555 1_555
H2 N2 1_555 1_555
N3 C3 1_555 1_555
N4 H3 1_555 1_555
C2 N1 1_555 1_555
H4 C2 1_555 1_555
H5 C2 1_555 1_555
C3 N2 1_555 1_555
C4 O3 1_555 1_555
C5 C1 1_555 1_555
C6 N1 1_555 1_555
H6 C6 1_555 1_555
H7 C6 1_555 1_555
N5 Cu1 1_555 1_555
C7 N1 1_555 1_555
H8 C7 1_555 1_555
H9 C7 1_555 1_555
C8 N3 1_555 1_555
H10 C8 1_555 1_555
C9 C7 1_555 1_555
C10 H11 1_555 1_555
C11 C2 1_555 1_555
C12 H12 1_555 1_555
C13 C10 1_555 1_555
H13 C13 1_555 1_555
C14 C11 1_555 1_555
H14 C14 1_555 1_555
C15 C5 1_555 1_555
H15 C15 1_555 1_555
C16 C10 1_555 1_555
H16 C16 1_555 1_555
C17 N4 1_555 1_555
H17 C17 1_555 1_555
Cu1C O2 1_555 1_555
O2C Cu1 1_555 1_555
C1 N5 1_555 1_555
C3 C5 1_555 1_555
C4 C6 1_555 1_555
N5 C8 1_555 1_555
C11 C16 1_555 1_555
C12 C13 1_555 1_555
C12 C14 1_555 1_555
C15 C17 1_555 1_555

#END
