
#######################################################################
#
#                 Cambridge Crystallographic Data Centre
#                                CCDC 
#
#######################################################################
#
# If this CIF has been generated from an entry in the Cambridge 
# Structural Database, then it will include bibliographic, chemical, 
# crystal, experimental, refinement or atomic coordinate data resulting 
# from the CCDC's data processing and validation procedures.
#
#######################################################################

data_GEZDAS
_symmetry_cell_setting           monoclinic
_symmetry_space_group_name_H-M   'C 2/c'
_symmetry_Int_Tables_number      15
_space_group_name_Hall           '-C 2yn'
loop_
_symmetry_equiv_pos_site_id
_symmetry_equiv_pos_as_xyz
1 x,y,z
2 -x,y,1/2-z
3 1/2+x,1/2+y,z
4 1/2-x,1/2+y,1/2-z
5 -x,-y,-z
6 x,-y,1/2+z
7 1/2-x,1/2-y,-z
8 1/2+x,1/2-y,1/2+z
_cell_length_a                   37.307(8)
_cell_length_b                   8.0550(16)
_cell_length_c                   25.933(5)
_cell_angle_alpha                90
_cell_angle_beta                 111.42(3)
_cell_angle_gamma                90
_cell_volume                     7254.79
loop_
_atom_site_label
_atom_site_type_symbol
_atom_site_fract_x
_atom_site_fract_y
_atom_site_fract_z
Cu1 Cu 0.109904(8) 0.00305(3) 0.753181(12)
C1 C 0.22662(7) -0.3114(3) 0.91003(11)
H1 H 0.2454 -0.2650 0.9423
Cu2 Cu 0.112735(8) -0.49218(3) 0.869910(12)
C2 C 0.19220(7) -0.3709(3) 0.91192(10)
H2 H 0.1880 -0.3614 0.9458
N1 N 0.16310(6) 0.0539(3) 0.80569(8)
N2 N 0.16449(6) -0.4414(3) 0.86838(8)
C3 C 0.23284(7) 0.1926(3) 0.87922(11)
H3 H 0.2558 0.2437 0.9033
C4 C 0.22374(7) 0.1898(3) 0.82259(11)
H4 H 0.2414 0.2339 0.8075
C5 C 0.17244(7) -0.4547(3) 0.82199(10)
C6 C 0.20718(7) 0.1179(3) 0.89966(10)
C7 C 0.20614(7) -0.3929(3) 0.81577(11)
C8 C 0.23372(7) -0.3193(3) 0.86157(12)
H5 H 0.2568 -0.2756 0.8595
C9 C 0.18910(7) 0.1232(3) 0.78756(10)
H6 H 0.1835 0.1269 0.7488
C10 C 0.20237(8) -0.4311(4) 0.76002(11)
H7 H 0.2203 -0.4053 0.7430
C11 C 0.17305(7) 0.0484(3) 0.86092(10)
C12 C 0.16842(9) -0.5107(3) 0.73638(12)
H8 H 0.1587 -0.5516 0.6995
N3 N 0.15217(6) -0.0195(2) 0.88861(9)
H9 H 0.1298 -0.0695 0.8736
N4 N 0.14970(6) -0.5244(3) 0.77366(9)
H10 H 0.1271 -0.5704 0.7670
C13 C 0.17208(9) 0.0036(3) 0.94435(11)
H11 H 0.1637 -0.0340 0.9728
N5 N 0.06443(6) -0.0854(3) 0.68968(8)
N6 N 0.06974(6) -0.5812(3) 0.89123(8)
O1 O 0.10619(5) -0.2034(2) 0.78899(7)
O2 O 0.10795(5) -0.6996(2) 0.83051(7)
C14 C 0.04374(7) -0.1865(3) 0.71757(10)
H12 H 0.0281 -0.2723 0.6918
H13 H 0.0262 -0.1149 0.7287
C15 C 0.04778(7) -0.6896(3) 0.84425(10)
H14 H 0.0279 -0.6235 0.8157
H15 H 0.0346 -0.7776 0.8573
O3 O 0.06314(5) -0.3930(2) 0.78889(7)
O4 O 0.06426(5) -0.8917(2) 0.78913(7)
C16 C 0.07297(7) -0.2697(3) 0.76888(10)
C17 C 0.07516(7) -0.7687(3) 0.81921(10)
C18 C 0.20535(8) 0.0874(3) 0.95323(10)
H16 H 0.2238 0.1196 0.9880
O5 O 0.10475(5) 0.1990(2) 0.70792(7)
O6 O 0.10877(5) -0.2935(2) 0.90918(7)
C19 C 0.04399(7) 0.0656(3) 0.66117(10)
H17 H 0.0240 0.0961 0.6762
H18 H 0.0310 0.0420 0.6212
C20 C 0.04938(7) -0.4304(3) 0.89860(10)
H19 H 0.0384 -0.4514 0.9275
H20 H 0.0278 -0.4055 0.8635
O7 O 0.06059(6) 0.3350(2) 0.63922(8)
O8 O 0.06543(6) -0.1543(2) 0.93217(8)
C21 C 0.07164(8) 0.2109(3) 0.66869(10)
C22 C 0.07624(7) -0.2811(3) 0.91530(10)
C23 C 0.07573(8) -0.1969(3) 0.65170(10)
H21 H 0.0866 -0.3007 0.6717
H22 H 0.0523 -0.2265 0.6197
C24 C 0.08392(8) -0.6865(3) 0.94238(10)
H23 H 0.0972 -0.7850 0.9350
H24 H 0.0615 -0.7264 0.9506
C25 C 0.10437(8) -0.1226(3) 0.63056(10)
C26 C 0.11107(7) -0.5977(3) 0.99260(10)
C27 C 0.09279(8) -0.0499(3) 0.57824(10)
H25 H 0.0661 -0.0423 0.5564
C28 C 0.15025(8) -0.5858(3) 1.00205(11)
H26 H 0.1600 -0.6341 0.9764
C29 C 0.11957(9) 0.0116(3) 0.55745(11)
H27 H 0.1117 0.0624 0.5220
C30 C 0.17515(8) -0.5051(3) 1.04811(12)
H28 H 0.2018 -0.4960 1.0544
F1 F 0.18457(5) 0.0515(3) 0.56938(7)
F2 F 0.18468(5) -0.3613(2) 1.13108(6)
C31 C 0.15791(9) -0.0034(4) 0.58992(12)
C32 C 0.16001(8) -0.4377(4) 1.08484(11)
C33 C 0.17079(8) -0.0720(4) 0.64187(11)
H29 H 0.1975 -0.0789 0.6633
C34 C 0.12196(8) -0.4469(4) 1.07739(11)
H30 H 0.1126 -0.3992 1.1036
C35 C 0.14364(8) -0.1310(4) 0.66210(11)
H31 H 0.1519 -0.1780 0.6982
C36 C 0.09718(8) -0.5276(3) 1.03076(11)
H32 H 0.0705 -0.5351 1.0248
Cu1_2 Cu 0.109904(8) -0.99695(3) 0.753181(12)
O4_2 O 0.06426(5) 0.1083(2) 0.78913(7)
O9 O 0.00526(7) -0.1227(5) 0.96847(10)
O10 O 0.00327(7) -0.3708(5) 1.03560(10)
loop_
_geom_bond_atom_site_label_1
_geom_bond_atom_site_label_2
_geom_bond_site_symmetry_1
_geom_bond_site_symmetry_2
Cu1 N1 1_555 1_555
C1 H1 1_555 1_555
Cu2 N2 1_555 1_555
C2 C1 1_555 1_555
H2 C2 1_555 1_555
N1 C9 1_555 1_555
N2 C2 1_555 1_555
C3 H3 1_555 1_555
C4 C3 1_555 1_555
H4 C4 1_555 1_555
C5 N2 1_555 1_555
C6 C3 1_555 1_555
C7 C5 1_555 1_555
C8 C1 1_555 1_555
H5 C8 1_555 1_555
C9 C4 1_555 1_555
H6 C9 1_555 1_555
C10 C7 1_555 1_555
H7 C10 1_555 1_555
C11 N1 1_555 1_555
C12 C10 1_555 1_555
H8 C12 1_555 1_555
N3 C11 1_555 1_555
H9 N3 1_555 1_555
N4 C5 1_555 1_555
H10 N4 1_555 1_555
C13 N3 1_555 1_555
H11 C13 1_555 1_555
N5 Cu1 1_555 1_555
N6 Cu2 1_555 1_555
O1 Cu1 1_555 1_555
O2 Cu2 1_555 1_555
C14 N5 1_555 1_555
H12 C14 1_555 1_555
H13 C14 1_555 1_555
C15 N6 1_555 1_555
H14 C15 1_555 1_555
H15 C15 1_555 1_555
O3 Cu2 1_555 1_555
O4 C17 1_555 1_555
C16 O1 1_555 1_555
C17 O2 1_555 1_555
C18 C6 1_555 1_555
H16 C18 1_555 1_555
O5 Cu1 1_555 1_555
O6 Cu2 1_555 1_555
C19 N5 1_555 1_555
H17 C19 1_555 1_555
H18 C19 1_555 1_555
C20 N6 1_555 1_555
H19 C20 1_555 1_555
H20 C20 1_555 1_555
O7 C21 1_555 1_555
O8 C22 1_555 1_555
C21 O5 1_555 1_555
C22 O6 1_555 1_555
C23 N5 1_555 1_555
H21 C23 1_555 1_555
H22 C23 1_555 1_555
C24 N6 1_555 1_555
H23 C24 1_555 1_555
H24 C24 1_555 1_555
C25 C23 1_555 1_555
C26 C24 1_555 1_555
C27 C25 1_555 1_555
H25 C27 1_555 1_555
C28 C26 1_555 1_555
H26 C28 1_555 1_555
C29 C27 1_555 1_555
H27 C29 1_555 1_555
C30 C28 1_555 1_555
H28 C30 1_555 1_555
F1 C31 1_555 1_555
F2 C32 1_555 1_555
C31 C29 1_555 1_555
C32 C30 1_555 1_555
C33 C31 1_555 1_555
H29 C33 1_555 1_555
C34 C32 1_555 1_555
H30 C34 1_555 1_555
C35 C25 1_555 1_555
H31 C35 1_555 1_555
C36 C26 1_555 1_555
H32 C36 1_555 1_555
Cu1_2 O4 1_555 1_555
O4_2 Cu1 1_555 1_555
C6 C11 1_555 1_555
C7 C8 1_555 1_555
C12 N4 1_555 1_555
C13 C18 1_555 1_555
C14 C16 1_555 1_555
C15 C17 1_555 1_555
O3 C16 1_555 1_555
C19 C21 1_555 1_555
C20 C22 1_555 1_555
C33 C35 1_555 1_555
C34 C36 1_555 1_555

#END
