
#######################################################################
#
#                 Cambridge Crystallographic Data Centre
#                                CCDC 
#
#######################################################################
#
# If this CIF has been generated from an entry in the Cambridge 
# Structural Database, then it will include bibliographic, chemical, 
# crystal, experimental, refinement or atomic coordinate data resulting 
# from the CCDC's data processing and validation procedures.
#
#######################################################################

data_GEZVOY
_symmetry_cell_setting           monoclinic
_symmetry_space_group_name_H-M   'P 21/c'
_symmetry_Int_Tables_number      14
_space_group_name_Hall           '-P 2ybc'
loop_
_symmetry_equiv_pos_site_id
_symmetry_equiv_pos_as_xyz
1 x,y,z
2 -x,1/2+y,1/2-z
3 -x,-y,-z
4 x,1/2-y,1/2+z
_cell_length_a                   6.42220(10)
_cell_length_b                   16.1283(3)
_cell_length_c                   14.7568(3)
_cell_angle_alpha                90
_cell_angle_beta                 101.4489(13)
_cell_angle_gamma                90
_cell_volume                     1498.08
loop_
_atom_site_label
_atom_site_type_symbol
_atom_site_fract_x
_atom_site_fract_y
_atom_site_fract_z
Ag1 Ag 0.51584(3) 0.639004(10) 0.581967(13)
Cl1 Cl 0.44999(8) 0.56360(3) 0.36349(4)
F1 F -0.2543(2) 0.92032(8) 0.69264(10)
F2 F -0.2318(2) 1.08266(8) 0.71148(10)
F3 F 0.3622(2) 1.08602(8) 0.56435(10)
F4 F 0.3421(2) 0.92374(8) 0.54852(10)
O1 O 0.3279(3) 0.57037(11) 0.43656(12)
O2 O 0.4061(3) 0.48339(10) 0.31957(12)
O3 O 0.6731(3) 0.56916(11) 0.40435(12)
O4 O 0.3907(3) 0.62798(10) 0.29709(13)
N1 N 0.2113(3) 0.69211(11) 0.61105(14)
N2 N 0.0124(3) 0.57177(13) 0.58628(15)
H1 H -0.097(4) 0.5481(16) 0.5749(19)
H2 H 0.128(4) 0.5442(15) 0.5986(17)
N3 N -0.1683(3) 0.69665(12) 0.58342(14)
N4 N 0.0845(4) 1.17700(14) 0.6525(2)
C1 C 0.0179(3) 0.65413(15) 0.59363(16)
C2 C -0.1574(4) 0.77937(14) 0.58991(16)
H3 H -0.2865 0.8099 0.5795
C3 C 0.0332(3) 0.82323(14) 0.61115(16)
C4 C 0.2158(4) 0.77417(14) 0.62229(16)
H4 H 0.3502 0.8006 0.6387
C5 C 0.0431(3) 0.91440(14) 0.61999(16)
C6 C -0.1014(3) 0.95999(14) 0.65911(16)
C7 C -0.0887(4) 1.04489(14) 0.66899(17)
C8 C 0.0689(4) 1.09242(14) 0.64031(18)
C9 C 0.2112(4) 1.04624(15) 0.60049(17)
C10 C 0.2005(4) 0.96153(14) 0.59132(16)
C11 C -0.0997(4) 1.23009(15) 0.63355(19)
H5 H -0.2249 1.1973 0.6063
H6 H -0.0775 1.2737 0.5902
H7 H -0.1218 1.2553 0.6913
C12 C 0.2879(4) 1.21800(15) 0.67656(19)
H8 H 0.3960 1.1780 0.7052
H9 H 0.2790 1.2631 0.7202
H10 H 0.3267 1.2408 0.6206
Ag1_2 Ag -0.48416(3) 0.639004(10) 0.581967(13)
Ag1B Ag 0.48416(3) 0.360996(10) 0.418033(13)
O2B O 0.5939(3) 0.51661(10) 0.68043(12)
N3_2 N 0.8317(3) 0.69665(12) 0.58342(14)
loop_
_geom_bond_atom_site_label_1
_geom_bond_atom_site_label_2
_geom_bond_site_symmetry_1
_geom_bond_site_symmetry_2
Ag1 O1 1_555 1_555
Cl1 O1 1_555 1_555
F1 C6 1_555 1_555
F2 C7 1_555 1_555
F3 C9 1_555 1_555
F4 C10 1_555 1_555
O2 Cl1 1_555 1_555
O3 Cl1 1_555 1_555
O4 Cl1 1_555 1_555
N1 Ag1 1_555 1_555
N2 H1 1_555 1_555
H2 N2 1_555 1_555
N3 C1 1_555 1_555
N4 C8 1_555 1_555
C1 N1 1_555 1_555
C2 N3 1_555 1_555
H3 C2 1_555 1_555
C3 C2 1_555 1_555
C4 N1 1_555 1_555
H4 C4 1_555 1_555
C5 C3 1_555 1_555
C6 C5 1_555 1_555
C7 C6 1_555 1_555
C8 C7 1_555 1_555
C9 C8 1_555 1_555
C10 C5 1_555 1_555
C11 N4 1_555 1_555
H5 C11 1_555 1_555
H6 C11 1_555 1_555
H7 C11 1_555 1_555
C12 N4 1_555 1_555
H8 C12 1_555 1_555
H9 C12 1_555 1_555
H10 C12 1_555 1_555
Ag1_2 N3 1_555 1_555
Ag1B O2 1_555 1_555
O2B Ag1 1_555 1_555
N3_2 Ag1 1_555 1_555
N2 C1 1_555 1_555
C3 C4 1_555 1_555
C9 C10 1_555 1_555

#END
