
#######################################################################
#
#                 Cambridge Crystallographic Data Centre
#                                CCDC 
#
#######################################################################
#
# If this CIF has been generated from an entry in the Cambridge 
# Structural Database, then it will include bibliographic, chemical, 
# crystal, experimental, refinement or atomic coordinate data resulting 
# from the CCDC's data processing and validation procedures.
#
#######################################################################

data_GEZXIS
_symmetry_cell_setting           monoclinic
_symmetry_space_group_name_H-M   'P 21'
_symmetry_Int_Tables_number      4
_space_group_name_Hall           'P 2yb'
loop_
_symmetry_equiv_pos_site_id
_symmetry_equiv_pos_as_xyz
1 x,y,z
2 -x,1/2+y,-z
_cell_length_a                   16.775(2)
_cell_length_b                   11.914(2)
_cell_length_c                   9.053(2)
_cell_angle_alpha                90
_cell_angle_beta                 100.54(1)
_cell_angle_gamma                90
_cell_volume                     1778.78
loop_
_atom_site_label
_atom_site_type_symbol
_atom_site_fract_x
_atom_site_fract_y
_atom_site_fract_z
Cu1 Cu 0.12910(4) 0.2500 0.42074(9)
O1 O 0.1079(2) 0.2304(3) 0.6251(4)
C1 C 0.1297(3) 0.1350(5) 0.6873(7)
O2 O 0.1161(3) 0.1080(4) 0.8114(5)
C2 C 0.1736(4) 0.0540(5) 0.6001(6)
C3 C 0.2626(4) 0.0429(5) 0.6740(7)
C4 C 0.3158(4) 0.1472(7) 0.670(1)
C5 C 0.3061(5) 0.2322(8) 0.792(1)
C6 C 0.4031(5) 0.115(1) 0.691(1)
N1 N 0.1594(3) 0.0908(4) 0.4421(5)
S1 S 0.16266(7) -0.0030(1) 0.3206(2)
O3 O 0.1144(2) 0.0345(3) 0.1815(5)
O4 O 0.1450(2) -0.1115(3) 0.3714(5)
C7 C 0.2631(3) -0.0107(5) 0.2846(6)
C8 C 0.3086(4) -0.1061(5) 0.3209(8)
C9 C 0.3873(4) -0.1137(7) 0.2920(9)
C10 C 0.4210(4) -0.0247(7) 0.2269(9)
C11 C 0.3754(5) 0.0697(7) 0.193(1)
C12 C 0.2956(4) 0.0786(7) 0.218(1)
C13 C 0.5053(5) -0.032(1) 0.193(1)
O5 O 0.1452(2) 0.2747(3) 0.2116(4)
C14 C 0.1708(3) 0.3733(5) 0.1846(7)
O6 O 0.1711(3) 0.4103(4) 0.0580(5)
C15 C 0.2014(3) 0.4434(5) 0.3233(6)
C16 C 0.2899(4) 0.4106(6) 0.3904(8)
C17 C 0.3526(4) 0.4406(7) 0.295(1)
C18 C 0.3677(6) 0.5645(9) 0.297(1)
C19 C 0.4324(5) 0.380(1) 0.356(1)
N2 N 0.1478(3) 0.4167(4) 0.4305(6)
S2 S 0.10899(8) 0.5161(1) 0.4993(2)
O7 O 0.0502(3) 0.4785(4) 0.5841(6)
O8 O 0.0805(3) 0.6059(4) 0.3893(5)
C20 C 0.1889(4) 0.5826(5) 0.6271(7)
C21 C 0.2172(5) 0.5340(6) 0.7629(8)
C22 C 0.2824(5) 0.5808(7) 0.8591(9)
C23 C 0.3217(5) 0.6755(7) 0.8171(9)
C24 C 0.2921(4) 0.7229(6) 0.6785(8)
C25 C 0.2263(4) 0.6772(6) 0.5841(8)
C26 C 0.3914(6) 0.729(1) 0.919(1)
O9 O -0.0133(3) 0.2474(5) 0.3560(5)
Na1 Na 0.0649(2) 0.1721(2) 1.0147(3)
Na2 Na -0.0193(1) 0.3036(2) 0.6254(3)
O10 O 0.0169(3) 0.3396(4) 0.8889(5)
O11 O -0.0626(5) 0.1029(7) 0.9336(9)
H1 H 0.1518 -0.0240 0.6020
H2 H 0.2646 0.0220 0.7816
H3 H 0.2865 -0.0190 0.6216
H4 H 0.2979 0.1840 0.5703
H5 H 0.2480 0.2553 0.7793
H6 H 0.3404 0.2996 0.7826
H7 H 0.3235 0.1975 0.8932
H8 H 0.4101 0.0588 0.6118
H9 H 0.4202 0.0801 0.7925
H10 H 0.4371 0.1822 0.6819
H11 H 0.2849 -0.1711 0.3677
H12 H 0.4196 -0.1836 0.3191
H13 H 0.4000 0.1352 0.1484
H14 H 0.2629 0.1479 0.1884
H15 H 0.5292 -0.1064 0.2250
H16 H 0.5394 0.0290 0.2492
H17 H 0.5034 -0.0215 0.0827
H18 H 0.2008 0.5254 0.2994
H19 H 0.2916 0.3275 0.4056
H20 H 0.3053 0.4490 0.4897
H21 H 0.3316 0.4172 0.1893
H22 H 0.3159 0.6046 0.2565
H23 H 0.4088 0.5820 0.2331
H24 H 0.3884 0.5897 0.4024
H25 H 0.4225 0.2969 0.3553
H26 H 0.4531 0.4050 0.4616
H27 H 0.4735 0.3973 0.2923
H28 H 0.1910 0.4643 0.7930
H29 H 0.3015 0.5462 0.9600
H30 H 0.3188 0.7915 0.6464
H31 H 0.2058 0.7125 0.4842
H32 H 0.4047 0.6837 1.0136
H33 H 0.3765 0.8069 0.9438
H34 H 0.4396 0.7310 0.8686
H35 H 0.0017 0.2168 0.2493
H36 H 0.0528 0.3796 0.9151
H37 H -0.0102 0.3926 0.9155
H38 H -0.0552 0.1025 1.0767
Na1_2 Na 0.0649(2) 0.1721(2) 0.0147(3)
Na2A Na 0.0193(1) -0.1964(2) 0.3746(3)
Na2A_2 Na 0.0193(1) 0.8036(2) 0.3746(3)
O3_2 O 0.1144(2) 0.0345(3) 1.1815(5)
O5_2 O 0.1452(2) 0.2747(3) 1.2116(4)
O4A O -0.1450(2) 0.3885(3) 0.6286(5)
O8A O -0.0805(3) 0.1059(4) 0.6107(5)
O12 O 0.0881(4) 0.8842(5) 0.8764(6)
C27 C 0.1607(7) 0.839(1) 0.939(1)
H39 H 0.1775 0.8701 1.0425
H40 H 0.2026 0.8577 0.8773
H41 H 0.1554 0.7553 0.9450
H42 H 0.1186 0.8587 0.7616
loop_
_geom_bond_atom_site_label_1
_geom_bond_atom_site_label_2
_geom_bond_site_symmetry_1
_geom_bond_site_symmetry_2
Cu1 O1 1_555 1_555
O1 C1 1_555 1_555
C1 O2 1_555 1_555
O2 Na1 1_555 1_555
C2 C1 1_555 1_555
C3 C2 1_555 1_555
C4 C3 1_555 1_555
C5 C4 1_555 1_555
C6 C4 1_555 1_555
N1 Cu1 1_555 1_555
S1 N1 1_555 1_555
O3 S1 1_555 1_555
O4 S1 1_555 1_555
C7 S1 1_555 1_555
C8 C7 1_555 1_555
C9 C8 1_555 1_555
C10 C9 1_555 1_555
C11 C10 1_555 1_555
C12 C7 1_555 1_555
C13 C10 1_555 1_555
O5 Cu1 1_555 1_555
C14 O5 1_555 1_555
O6 C14 1_555 1_555
C15 C14 1_555 1_555
C16 C15 1_555 1_555
C17 C16 1_555 1_555
C18 C17 1_555 1_555
C19 C17 1_555 1_555
N2 Cu1 1_555 1_555
S2 N2 1_555 1_555
O7 S2 1_555 1_555
O8 S2 1_555 1_555
C20 S2 1_555 1_555
C21 C20 1_555 1_555
C22 C21 1_555 1_555
C23 C22 1_555 1_555
C24 C23 1_555 1_555
C25 C20 1_555 1_555
C26 C23 1_555 1_555
O9 Cu1 1_555 1_555
Na1 O10 1_555 1_555
Na2 O1 1_555 1_555
O10 Na2 1_555 1_555
O11 Na1 1_555 1_555
H1 C2 1_555 1_555
H2 C3 1_555 1_555
H3 C3 1_555 1_555
H4 C4 1_555 1_555
H5 C5 1_555 1_555
H6 C5 1_555 1_555
H7 C5 1_555 1_555
H8 C6 1_555 1_555
H9 C6 1_555 1_555
H10 C6 1_555 1_555
H11 C8 1_555 1_555
H12 C9 1_555 1_555
H13 C11 1_555 1_555
H14 C12 1_555 1_555
H15 C13 1_555 1_555
H16 C13 1_555 1_555
H17 C13 1_555 1_555
H18 C15 1_555 1_555
H19 C16 1_555 1_555
H20 C16 1_555 1_555
H21 C17 1_555 1_555
H22 C18 1_555 1_555
H23 C18 1_555 1_555
H24 C18 1_555 1_555
H25 C19 1_555 1_555
H26 C19 1_555 1_555
H27 C19 1_555 1_555
H28 C21 1_555 1_555
H29 C22 1_555 1_555
H30 C24 1_555 1_555
H31 C25 1_555 1_555
H32 C26 1_555 1_555
H33 C26 1_555 1_555
H34 C26 1_555 1_555
H35 O9 1_555 1_555
H36 O10 1_555 1_555
H37 O10 1_555 1_555
H38 O11 1_555 1_555
O12 C27 1_555 1_555
C27 H39 1_555 1_555
H40 C27 1_555 1_555
H41 C27 1_555 1_555
H42 O12 1_555 1_555
Na1_2 O3 1_555 1_555
Na2A O4 1_555 1_555
Na2A_2 O8 1_555 1_555
O3_2 Na1 1_555 1_555
O5_2 Na1 1_555 1_555
O4A Na2 1_555 1_555
O8A Na2 1_555 1_555
C2 N1 1_555 1_555
C11 C12 1_555 1_555
O5 Na1_2 1_555 1_555
C15 N2 1_555 1_555
O7 Na2 1_555 1_555
C24 C25 1_555 1_555
O9 Na2 1_555 1_555

#END
