
#######################################################################
#
#                 Cambridge Crystallographic Data Centre
#                                CCDC 
#
#######################################################################
#
# If this CIF has been generated from an entry in the Cambridge 
# Structural Database, then it will include bibliographic, chemical, 
# crystal, experimental, refinement or atomic coordinate data resulting 
# from the CCDC's data processing and validation procedures.
#
#######################################################################

data_GIBCIF
_symmetry_cell_setting           monoclinic
_symmetry_space_group_name_H-M   'P 21/c'
_symmetry_Int_Tables_number      14
_space_group_name_Hall           '-P 2ybc'
loop_
_symmetry_equiv_pos_site_id
_symmetry_equiv_pos_as_xyz
1 x,y,z
2 -x,1/2+y,1/2-z
3 -x,-y,-z
4 x,1/2-y,1/2+z
_cell_length_a                   10.8528(10)
_cell_length_b                   22.867(2)
_cell_length_c                   12.1853(12)
_cell_angle_alpha                90
_cell_angle_beta                 102.589(3)
_cell_angle_gamma                90
_cell_volume                     2951.34
loop_
_atom_site_label
_atom_site_type_symbol
_atom_site_fract_x
_atom_site_fract_y
_atom_site_fract_z
C1 C 0.9148(3) 0.08898(14) 0.3893(3)
C2 C 0.8910(3) 0.09148(14) 0.2626(3)
C3 C 0.8063(3) 0.13333(16) 0.2099(3)
H1 H 0.7642 0.1565 0.2528
C4 C 0.7834(4) 0.14127(17) 0.0960(3)
H2 H 0.7287 0.1707 0.0625
C5 C 0.8408(4) 0.10599(18) 0.0310(3)
H3 H 0.8241 0.1108 -0.0466
C6 C 0.9223(3) 0.06380(16) 0.0813(3)
H4 H 0.9604 0.0397 0.0369
C7 C 0.9502(3) 0.05583(13) 0.1975(3)
C8 C 1.0378(3) 0.00732(15) 0.2458(3)
C9 C 0.6314(3) 0.02314(14) 0.6810(3)
H5 H 0.6872 0.0019 0.7352
C10 C 0.5568(3) 0.08075(13) 0.5437(3)
C11 C 0.5397(3) 0.11913(16) 0.4537(3)
H6 H 0.6073 0.1335 0.4262
C12 C 0.4163(4) 0.13487(18) 0.4070(4)
H7 H 0.4007 0.1611 0.3472
C13 C 0.3147(4) 0.11274(19) 0.4467(3)
H8 H 0.2332 0.1240 0.4118
C14 C 0.3312(3) 0.07509(16) 0.5353(3)
H9 H 0.2633 0.0606 0.5622
C15 C 0.4544(3) 0.05950(14) 0.5830(3)
C16 C 0.4399(3) -0.00707(16) 0.7469(3)
H10 H 0.4933 -0.0377 0.7869
H11 H 0.3638 -0.0252 0.7038
C17 C 0.4052(3) 0.03482(16) 0.8307(3)
C18 C 0.4946(4) 0.0636(2) 0.9070(3)
H12 H 0.5795 0.0575 0.9079
C19 C 0.4610(4) 0.1017(2) 0.9829(3)
H13 H 0.5242 0.1211 1.0338
C20 C 0.3373(4) 0.11197(16) 0.9858(3)
C21 C 0.2471(4) 0.08211(18) 0.9082(4)
H14 H 0.1622 0.0875 0.9083
C22 C 0.2801(4) 0.04453(17) 0.8306(3)
H15 H 0.2175 0.0257 0.7782
C23 C 0.3012(4) 0.15517(16) 1.0642(3)
C24 C 0.3661(4) 0.20648(19) 1.0918(4)
H16 H 0.4363 0.2143 1.0621
C25 C 0.3294(5) 0.24660(19) 1.1624(4)
H17 H 0.3744 0.2813 1.1786
C26 C 0.2279(4) 0.23634(18) 1.2094(3)
C27 C 0.1616(4) 0.1852(2) 1.1822(4)
H18 H 0.0918 0.1775 1.2127
C28 C 0.1973(4) 0.14501(19) 1.1101(3)
H19 H 0.1510 0.1108 1.0923
C29 C 0.1951(4) 0.2783(2) 1.2933(4)
H20 H 0.2056 0.2587 1.3654
H21 H 0.2536 0.3109 1.3025
C30 C 0.0281(4) 0.34119(16) 1.1798(3)
H22 H 0.0816 0.3579 1.1384
C31 C -0.1369(4) 0.31975(15) 1.2421(3)
C32 C -0.0377(4) 0.28651(16) 1.3027(3)
C33 C -0.0546(6) 0.24878(18) 1.3866(3)
H23 H 0.0121 0.2270 1.4278
C34 C -0.1722(7) 0.2448(2) 1.4062(4)
H24 H -0.1858 0.2201 1.4631
C35 C -0.2735(5) 0.27621(19) 1.3446(4)
H25 H -0.3532 0.2715 1.3599
C36 C -0.2574(4) 0.31430(16) 1.2609(3)
H26 H -0.3248 0.3354 1.2190
N1 N 0.6680(2) 0.05713(11) 0.6069(2)
N2 N 0.5058(3) 0.02213(12) 0.6708(2)
N3 N -0.0917(3) 0.35451(12) 1.1657(2)
N4 N 0.0659(3) 0.30082(13) 1.2607(3)
O1 O 1.0125(2) 0.10843(10) 0.44694(19)
O2 O 0.8211(2) 0.06951(10) 0.42655(17)
O3 O 1.0352(2) -0.00874(9) 0.34492(19)
O4 O 1.1047(3) -0.01499(13) 0.1890(2)
Zn1 Zn 0.84630(3) 0.068741(16) 0.58951(3)
N3C N 0.9083(3) 0.14549(12) 0.6657(2)
O3B O 0.9648(2) 0.00874(9) 0.65508(19)
Zn1B Zn 1.15370(3) -0.068741(16) 0.41049(3)
Zn1C Zn -0.15370(3) 0.431259(16) 1.08951(3)
loop_
_geom_bond_atom_site_label_1
_geom_bond_atom_site_label_2
_geom_bond_site_symmetry_1
_geom_bond_site_symmetry_2
C1 C2 1_555 1_555
C2 C3 1_555 1_555
C3 H1 1_555 1_555
C4 C3 1_555 1_555
H2 C4 1_555 1_555
C5 C4 1_555 1_555
H3 C5 1_555 1_555
C6 C5 1_555 1_555
H4 C6 1_555 1_555
C7 C2 1_555 1_555
C8 C7 1_555 1_555
C9 H5 1_555 1_555
C10 C11 1_555 1_555
C11 H6 1_555 1_555
C12 C11 1_555 1_555
H7 C12 1_555 1_555
C13 C12 1_555 1_555
H8 C13 1_555 1_555
C14 C13 1_555 1_555
H9 C14 1_555 1_555
C15 C10 1_555 1_555
C16 H10 1_555 1_555
H11 C16 1_555 1_555
C17 C16 1_555 1_555
C18 C17 1_555 1_555
H12 C18 1_555 1_555
C19 C18 1_555 1_555
H13 C19 1_555 1_555
C20 C19 1_555 1_555
C21 C20 1_555 1_555
H14 C21 1_555 1_555
C22 C17 1_555 1_555
H15 C22 1_555 1_555
C23 C20 1_555 1_555
C24 C23 1_555 1_555
H16 C24 1_555 1_555
C25 C24 1_555 1_555
H17 C25 1_555 1_555
C26 C25 1_555 1_555
C27 C26 1_555 1_555
H18 C27 1_555 1_555
C28 C23 1_555 1_555
H19 C28 1_555 1_555
C29 C26 1_555 1_555
H20 C29 1_555 1_555
H21 C29 1_555 1_555
C30 H22 1_555 1_555
C31 C32 1_555 1_555
C32 C33 1_555 1_555
C33 H23 1_555 1_555
C34 C33 1_555 1_555
H24 C34 1_555 1_555
C35 C34 1_555 1_555
H25 C35 1_555 1_555
C36 C31 1_555 1_555
H26 C36 1_555 1_555
N1 C9 1_555 1_555
N2 C9 1_555 1_555
N3 C30 1_555 1_555
N4 C29 1_555 1_555
O1 C1 1_555 1_555
O2 C1 1_555 1_555
O3 C8 1_555 1_555
O4 C8 1_555 1_555
Zn1 N1 1_555 1_555
N3C Zn1 1_555 1_555
O3B Zn1 1_555 1_555
Zn1B O3 1_555 1_555
Zn1C N3 1_555 1_555
C6 C7 1_555 1_555
C10 N1 1_555 1_555
C14 C15 1_555 1_555
C15 N2 1_555 1_555
C16 N2 1_555 1_555
C21 C22 1_555 1_555
C27 C28 1_555 1_555
C30 N4 1_555 1_555
C31 N3 1_555 1_555
C32 N4 1_555 1_555
C35 C36 1_555 1_555
O2 Zn1 1_555 1_555

#END
