
#######################################################################
#
#                 Cambridge Crystallographic Data Centre
#                                CCDC 
#
#######################################################################
#
# If this CIF has been generated from an entry in the Cambridge 
# Structural Database, then it will include bibliographic, chemical, 
# crystal, experimental, refinement or atomic coordinate data resulting 
# from the CCDC's data processing and validation procedures.
#
#######################################################################

data_GIBGUV
_symmetry_cell_setting           monoclinic
_symmetry_space_group_name_H-M   'P 21/n'
_symmetry_Int_Tables_number      14
_space_group_name_Hall           '-P 2yn'
loop_
_symmetry_equiv_pos_site_id
_symmetry_equiv_pos_as_xyz
1 x,y,z
2 1/2-x,1/2+y,1/2-z
3 -x,-y,-z
4 1/2+x,1/2-y,1/2+z
_cell_length_a                   20.1544(12)
_cell_length_b                   13.1669(8)
_cell_length_c                   21.5697(14)
_cell_angle_alpha                90
_cell_angle_beta                 90.404(7)
_cell_angle_gamma                90
_cell_volume                     5723.83
loop_
_atom_site_label
_atom_site_type_symbol
_atom_site_fract_x
_atom_site_fract_y
_atom_site_fract_z
C1 C 0.8101(2) 1.0276(3) 0.3410(2)
C2 C 0.7979(3) 0.9900(4) 0.4001(2)
H1 H 0.7659 0.9389 0.4052
C3 C 0.8317(4) 1.0263(5) 0.4513(3)
H2 H 0.8234 0.9988 0.4907
C4 C 0.8774(4) 1.1020(6) 0.4449(4)
H3 H 0.9004 1.1268 0.4797
C5 C 0.8894(3) 1.1413(5) 0.3879(4)
H4 H 0.9206 1.1938 0.3836
C6 C 0.8560(3) 1.1045(4) 0.3355(3)
H5 H 0.8650 1.1324 0.2963
C7 C 0.6579(3) 0.9662(4) 0.2440(3)
C8 C 0.6239(3) 1.0569(5) 0.2336(3)
H6 H 0.6462 1.1192 0.2382
C9 C 0.5573(4) 1.0560(6) 0.2165(4)
H7 H 0.5350 1.1177 0.2098
C10 C 0.5245(4) 0.9679(6) 0.2095(4)
H8 H 0.4789 0.9686 0.2001
C11 C 0.5562(4) 0.8791(7) 0.2158(4)
H9 H 0.5331 0.8180 0.2091
C12 C 0.6237(3) 0.8768(5) 0.2322(3)
H10 H 0.6459 0.8141 0.2353
C13 C 0.8170(2) 0.8895(3) 0.1898(2)
C14 C 0.7999(3) 0.7894(4) 0.1722(2)
H11 H 0.7680 0.7531 0.1947
C15 C 0.8304(4) 0.7446(4) 0.1212(3)
H12 H 0.8181 0.6787 0.1089
C16 C 0.8782(3) 0.7957(5) 0.0891(3)
H13 H 0.8984 0.7649 0.0548
C17 C 0.8970(3) 0.8930(5) 0.1068(3)
H14 H 0.9305 0.9272 0.0851
C18 C 0.8664(3) 0.9396(4) 0.1567(2)
H15 H 0.8790 1.0057 0.1682
C19 C 0.6663(2) 0.3167(3) 0.80411(19)
C20 C 0.6797(3) 0.4159(3) 0.8243(2)
H16 H 0.7156 0.4520 0.8075
C21 C 0.6401(3) 0.4614(5) 0.8695(3)
H17 H 0.6492 0.5281 0.8826
C22 C 0.5882(3) 0.4093(6) 0.8945(3)
H18 H 0.5617 0.4404 0.9248
C23 C 0.5742(3) 0.3111(6) 0.8756(3)
H19 H 0.5384 0.2756 0.8931
C24 C 0.6132(2) 0.2650(4) 0.8306(2)
H20 H 0.6036 0.1983 0.8179
C25 C 0.7068(2) 0.1806(3) 0.6531(2)
C26 C 0.7384(3) 0.2140(4) 0.6001(2)
H21 H 0.7699 0.2664 0.6032
C27 C 0.7244(4) 0.1716(5) 0.5426(3)
H22 H 0.7454 0.1964 0.5069
C28 C 0.6795(4) 0.0930(5) 0.5383(3)
H23 H 0.6706 0.0630 0.4996
C29 C 0.6482(3) 0.0588(5) 0.5895(3)
H24 H 0.6172 0.0057 0.5861
C30 C 0.6614(3) 0.1017(4) 0.6473(2)
H25 H 0.6396 0.0771 0.6826
C31 C 0.8330(2) 0.2379(3) 0.77413(19)
C32 C 0.8672(3) 0.1462(4) 0.7816(2)
H26 H 0.8467 0.0847 0.7704
C33 C 0.9311(3) 0.1455(5) 0.8053(3)
H27 H 0.9537 0.0836 0.8105
C34 C 0.9620(3) 0.2363(6) 0.8214(3)
H28 H 1.0055 0.2356 0.8372
C35 C 0.9290(3) 0.3272(5) 0.8143(3)
H29 H 0.9499 0.3886 0.8250
C36 C 0.8651(3) 0.3271(4) 0.7913(2)
H30 H 0.8426 0.3892 0.7871
C37 C 0.6643(3) 0.7306(5) 0.5462(3)
H31 H 0.6655 0.7081 0.5896
H32 H 0.6221 0.7657 0.5388
C38 C 0.7213(4) 0.8022(4) 0.5343(3)
H33 H 0.7169 0.8315 0.4927
H34 H 0.7206 0.8578 0.5645
C39 C 0.8766(3) 0.4653(5) 0.4607(3)
H35 H 0.9182 0.4289 0.4689
H36 H 0.8774 0.4901 0.4179
C40 C 0.8182(3) 0.3943(4) 0.4695(3)
H37 H 0.8198 0.3400 0.4385
H38 H 0.8208 0.3632 0.5107
N1 N 0.7842(3) 0.7468(4) 0.5394(2)
H39 H 0.793(3) 0.752(5) 0.5783(11)
H40 H 0.817(3) 0.781(6) 0.524(4)
N2 N 0.6693(2) 0.6423(4) 0.50497(19)
H41 H 0.650(2) 0.587(2) 0.516(2)
H42 H 0.653(2) 0.659(4) 0.4692(14)
N3 N 0.7551(3) 0.4504(4) 0.4631(2)
H43 H 0.742(4) 0.447(7) 0.4246(15)
H44 H 0.719(3) 0.416(7) 0.473(5)
N4 N 0.8701(2) 0.5518(4) 0.5042(2)
H45 H 0.878(3) 0.526(4) 0.5405(15)
H46 H 0.903(2) 0.591(5) 0.494(3)
O1 O 0.75581(18) 0.8186(2) 0.31168(15)
O2 O 0.7260(2) 0.6076(2) 0.28611(15)
O3 O 0.78000(16) 0.6666(3) 0.40590(14)
O4 O 0.75077(18) 0.3903(2) 0.69639(14)
O5 O 0.79162(18) 0.5979(2) 0.71748(15)
O6 O 0.75196(17) 0.5343(3) 0.59547(15)
O7 O 0.64932(17) 0.7186(3) 0.37372(16)
O8 O 0.87218(17) 0.4673(3) 0.64432(17)
Mo1 Mo 0.728301(18) 0.70284(3) 0.344470(15)
Mo2 Mo 0.792204(17) 0.49671(2) 0.663283(15)
Zn1 Zn 0.76960(3) 0.59837(4) 0.50129(2)
Sn1 Sn 0.762064(16) 0.96296(2) 0.261582(13)
Sn2 Sn 0.732839(15) 0.24425(2) 0.741076(12)
O2A O 0.7740(2) 1.1076(2) 0.21389(15)
O5A O 0.70838(18) 0.0979(2) 0.78252(15)
Sn1A Sn 0.737936(16) 0.46296(2) 0.238418(13)
Sn2A Sn 0.767161(15) 0.74425(2) 0.758924(12)
C41 C 0.6010(4) 0.4163(6) 0.5907(3)
H47 H 0.6343 0.4321 0.6199
C42 C 0.5004(4) 0.3354(10) 0.5654(4)
H48 H 0.4646 0.2997 0.5859
H49 H 0.5212 0.2906 0.5356
H50 H 0.4828 0.3945 0.5441
C43 C 0.5401(4) 0.3351(7) 0.6736(4)
H51 H 0.4981 0.2998 0.6773
H52 H 0.5404 0.3940 0.7007
H53 H 0.5760 0.2898 0.6854
N5 N 0.5489(2) 0.3671(4) 0.6109(2)
O9 O 0.6100(3) 0.4431(5) 0.5378(2)
C44 C 0.9404(6) 0.7747(10) 0.4246(5)
H54 H 0.8965 0.7984 0.4212
C45 C 1.0490(4) 0.7629(7) 0.3783(5)
H55 H 1.0677 0.7876 0.3399
H56 H 1.0523 0.6895 0.3797
H57 H 1.0732 0.7919 0.4131
C46 C 0.9561(6) 0.8503(9) 0.3279(5)
H58 H 0.9914 0.8599 0.2981
H59 H 0.9403 0.9160 0.3418
H60 H 0.9198 0.8134 0.3085
N6 N 0.9817(3) 0.7917(4) 0.3817(3)
O10 O 0.9594(5) 0.7247(7) 0.4730(4)
O11 O 0.6108(6) 0.9132(9) 0.4280(6)
H61 H 0.6328 0.8752 0.4053
C47 C 0.5596(11) 0.9662(16) 0.3903(9)
H62 H 0.5280 0.9189 0.3711
H63 H 0.5790 1.0100 0.3585
C48 C 0.5276(8) 1.0289(18) 0.4447(9)
H64 H 0.4915 1.0700 0.4284
H65 H 0.5609 1.0728 0.4632
H66 H 0.5107 0.9827 0.4758
loop_
_geom_bond_atom_site_label_1
_geom_bond_atom_site_label_2
_geom_bond_site_symmetry_1
_geom_bond_site_symmetry_2
C1 C2 1_555 1_555
C2 H1 1_555 1_555
C3 C2 1_555 1_555
H2 C3 1_555 1_555
C4 C3 1_555 1_555
H3 C4 1_555 1_555
C5 C4 1_555 1_555
H4 C5 1_555 1_555
C6 C1 1_555 1_555
H5 C6 1_555 1_555
C7 C8 1_555 1_555
C8 H6 1_555 1_555
C9 C8 1_555 1_555
H7 C9 1_555 1_555
C10 C9 1_555 1_555
H8 C10 1_555 1_555
C11 C10 1_555 1_555
H9 C11 1_555 1_555
C12 C7 1_555 1_555
H10 C12 1_555 1_555
C13 C14 1_555 1_555
C14 H11 1_555 1_555
C15 C14 1_555 1_555
H12 C15 1_555 1_555
C16 C15 1_555 1_555
H13 C16 1_555 1_555
C17 C16 1_555 1_555
H14 C17 1_555 1_555
C18 C13 1_555 1_555
H15 C18 1_555 1_555
C19 C20 1_555 1_555
C20 H16 1_555 1_555
C21 C20 1_555 1_555
H17 C21 1_555 1_555
C22 C21 1_555 1_555
H18 C22 1_555 1_555
C23 C22 1_555 1_555
H19 C23 1_555 1_555
C24 C19 1_555 1_555
H20 C24 1_555 1_555
C25 C26 1_555 1_555
C26 H21 1_555 1_555
C27 C26 1_555 1_555
H22 C27 1_555 1_555
C28 C27 1_555 1_555
H23 C28 1_555 1_555
C29 C28 1_555 1_555
H24 C29 1_555 1_555
C30 C25 1_555 1_555
H25 C30 1_555 1_555
C31 C32 1_555 1_555
C32 H26 1_555 1_555
C33 C32 1_555 1_555
H27 C33 1_555 1_555
C34 C33 1_555 1_555
H28 C34 1_555 1_555
C35 C34 1_555 1_555
H29 C35 1_555 1_555
C36 C31 1_555 1_555
H30 C36 1_555 1_555
C37 H31 1_555 1_555
H32 C37 1_555 1_555
C38 C37 1_555 1_555
H33 C38 1_555 1_555
H34 C38 1_555 1_555
C39 H35 1_555 1_555
H36 C39 1_555 1_555
C40 C39 1_555 1_555
H37 C40 1_555 1_555
H38 C40 1_555 1_555
N1 C38 1_555 1_555
H39 N1 1_555 1_555
H40 N1 1_555 1_555
N2 C37 1_555 1_555
H41 N2 1_555 1_555
H42 N2 1_555 1_555
N3 C40 1_555 1_555
H43 N3 1_555 1_555
H44 N3 1_555 1_555
N4 C39 1_555 1_555
H45 N4 1_555 1_555
H46 N4 1_555 1_555
O1 Mo1 1_555 1_555
O2 Mo1 1_555 1_555
O3 Mo1 1_555 1_555
O4 Mo2 1_555 1_555
O5 Mo2 1_555 1_555
O6 Mo2 1_555 1_555
O7 Mo1 1_555 1_555
O8 Mo2 1_555 1_555
Zn1 N1 1_555 1_555
Sn1 C1 1_555 1_555
Sn2 C19 1_555 1_555
C41 H47 1_555 1_555
C42 H48 1_555 1_555
H49 C42 1_555 1_555
H50 C42 1_555 1_555
C43 H51 1_555 1_555
H52 C43 1_555 1_555
H53 C43 1_555 1_555
N5 C41 1_555 1_555
O9 C41 1_555 1_555
C44 H54 1_555 1_555
C45 H55 1_555 1_555
H56 C45 1_555 1_555
H57 C45 1_555 1_555
C46 H58 1_555 1_555
H59 C46 1_555 1_555
H60 C46 1_555 1_555
N6 C44 1_555 1_555
O10 C44 1_555 1_555
O11 H61 1_555 1_555
C47 O11 1_555 1_555
H62 C47 1_555 1_555
H63 C47 1_555 1_555
C48 C47 1_555 1_555
H64 C48 1_555 1_555
H65 C48 1_555 1_555
H66 C48 1_555 1_555
O2A Sn1 1_555 1_555
O5A Sn2 1_555 1_555
Sn1A O2 1_555 1_555
Sn2A O5 1_555 1_555
C5 C6 1_555 1_555
C7 Sn1 1_555 1_555
C11 C12 1_555 1_555
C13 Sn1 1_555 1_555
C17 C18 1_555 1_555
C23 C24 1_555 1_555
C25 Sn2 1_555 1_555
C29 C30 1_555 1_555
C31 Sn2 1_555 1_555
C35 C36 1_555 1_555
N2 Zn1 1_555 1_555
N3 Zn1 1_555 1_555
N4 Zn1 1_555 1_555
O1 Sn1 1_555 1_555
O3 Zn1 1_555 1_555
O4 Sn2 1_555 1_555
O6 Zn1 1_555 1_555
C42 N5 1_555 1_555
C43 N5 1_555 1_555
C45 N6 1_555 1_555
C46 N6 1_555 1_555

#END
