
#######################################################################
#
#                 Cambridge Crystallographic Data Centre
#                                CCDC 
#
#######################################################################
#
# If this CIF has been generated from an entry in the Cambridge 
# Structural Database, then it will include bibliographic, chemical, 
# crystal, experimental, refinement or atomic coordinate data resulting 
# from the CCDC's data processing and validation procedures.
#
#######################################################################

data_GIBHOQ
_symmetry_cell_setting           monoclinic
_symmetry_space_group_name_H-M   'P 21/n'
_symmetry_Int_Tables_number      14
_space_group_name_Hall           '-P 2yn'
loop_
_symmetry_equiv_pos_site_id
_symmetry_equiv_pos_as_xyz
1 x,y,z
2 1/2-x,1/2+y,1/2-z
3 -x,-y,-z
4 1/2+x,1/2-y,1/2+z
_cell_length_a                   19.9800(19)
_cell_length_b                   13.1329(8)
_cell_length_c                   21.8155(18)
_cell_angle_alpha                90
_cell_angle_beta                 90.965(7)
_cell_angle_gamma                90
_cell_volume                     5723.47
loop_
_atom_site_label
_atom_site_type_symbol
_atom_site_fract_x
_atom_site_fract_y
_atom_site_fract_z
C1 C 0.6819(4) 0.9049(5) 0.1897(3)
C2 C 0.6990(5) 0.8067(6) 0.1727(3)
H1 H 0.7324 0.7714 0.1949
C3 C 0.6673(5) 0.7600(6) 0.1232(4)
H2 H 0.6800 0.6938 0.1116
C4 C 0.6167(5) 0.8107(7) 0.0903(4)
H3 H 0.5952 0.7794 0.0566
C5 C 0.5989(5) 0.9070(7) 0.1083(4)
H4 H 0.5648 0.9417 0.0866
C6 C 0.6305(4) 0.9540(6) 0.1580(3)
H5 H 0.6169 1.0194 0.1703
C7 C 0.6921(4) 1.0404(5) 0.3412(3)
C8 C 0.7036(5) 1.0006(7) 0.3986(4)
H6 H 0.7343 0.9468 0.4034
C9 C 0.6709(7) 1.0378(9) 0.4504(4)
H7 H 0.6805 1.0108 0.4895
C10 C 0.6252(6) 1.1132(9) 0.4431(5)
H8 H 0.6012 1.1357 0.4772
C11 C 0.6134(5) 1.1575(8) 0.3870(6)
H9 H 0.5834 1.2123 0.3831
C12 C 0.6466(4) 1.1202(6) 0.3354(4)
H10 H 0.6380 1.1492 0.2967
C13 C 0.8424(4) 0.9824(5) 0.2431(3)
C14 C 0.8764(5) 0.8912(7) 0.2332(5)
H11 H 0.8539 0.8289 0.2377
C15 C 0.9431(6) 0.8918(9) 0.2166(6)
H12 H 0.9654 0.8296 0.2111
C16 C 0.9775(6) 0.9814(9) 0.2080(6)
H13 H 1.0228 0.9809 0.1973
C17 C 0.9439(6) 1.0705(10) 0.2155(5)
H14 H 0.9661 1.1325 0.2087
C18 C 0.8767(5) 1.0711(8) 0.2333(4)
H15 H 0.8548 1.1337 0.2386
C19 C 0.7949(4) 0.1753(5) 0.6517(3)
C20 C 0.8377(4) 0.0942(6) 0.6465(3)
H16 H 0.8576 0.0658 0.6819
C21 C 0.8521(5) 0.0532(6) 0.5892(4)
H17 H 0.8818 -0.0020 0.5863
C22 C 0.8238(5) 0.0921(7) 0.5385(4)
H18 H 0.8329 0.0634 0.5000
C23 C 0.7812(6) 0.1745(8) 0.5424(4)
H19 H 0.7615 0.2024 0.5068
C24 C 0.7674(5) 0.2160(6) 0.5999(3)
H20 H 0.7389 0.2727 0.6027
C25 C 0.6677(4) 0.2293(5) 0.7725(3)
C26 C 0.6340(4) 0.1379(6) 0.7795(3)
H21 H 0.6543 0.0762 0.7684
C27 C 0.5694(4) 0.1384(7) 0.8035(4)
H22 H 0.5465 0.0766 0.8086
C28 C 0.5393(4) 0.2282(8) 0.8196(4)
H23 H 0.4957 0.2275 0.8352
C29 C 0.5719(4) 0.3180(7) 0.8132(4)
H24 H 0.5512 0.3794 0.8244
C30 C 0.6364(4) 0.3185(6) 0.7898(3)
H25 H 0.6591 0.3808 0.7857
C31 C 0.8355(4) 0.3091(5) 0.8044(3)
C32 C 0.8209(4) 0.4082(5) 0.8247(3)
H26 H 0.7844 0.4440 0.8075
C33 C 0.8597(6) 0.4526(7) 0.8694(4)
H27 H 0.8500 0.5193 0.8821
C34 C 0.9125(6) 0.4019(9) 0.8960(4)
H28 H 0.9385 0.4334 0.9269
C35 C 0.9275(5) 0.3024(9) 0.8769(4)
H29 H 0.9635 0.2668 0.8952
C36 C 0.8894(4) 0.2575(7) 0.8315(3)
H30 H 0.8998 0.1912 0.8184
C37 C 0.8323(5) 0.7362(7) 0.5469(4)
H31 H 0.8736 0.7736 0.5389
H32 H 0.8331 0.7141 0.5898
C38 C 0.7720(5) 0.8031(6) 0.5342(4)
H33 H 0.7708 0.8590 0.5639
H34 H 0.7745 0.8323 0.4930
C39 C 0.6903(5) 0.4022(7) 0.4667(5)
H35 H 0.6878 0.3676 0.5064
H36 H 0.6913 0.3502 0.4345
C40 C 0.6308(5) 0.4684(8) 0.4575(5)
H37 H 0.6293 0.4946 0.4154
H38 H 0.5898 0.4294 0.4644
N1 N 0.7521(3) 0.4646(5) 0.4647(3)
H39 H 0.7652 0.4725 0.4252
H40 H 0.7857 0.4335 0.4862
N2 N 0.6358(3) 0.5538(5) 0.5017(4)
H41 H 0.6242 0.5327 0.5397
H42 H 0.6079 0.6053 0.4900
N3 N 0.7115(4) 0.7399(5) 0.5393(3)
H43 H 0.706(4) 0.733(6) 0.5790(11)
H44 H 0.679(3) 0.767(7) 0.518(4)
N4 N 0.8263(3) 0.6466(5) 0.5054(3)
H45 H 0.834(5) 0.660(9) 0.4668(17)
H46 H 0.851(4) 0.597(5) 0.519(4)
O1 O 0.7759(3) 0.6233(4) 0.2847(2)
O2 O 0.8486(3) 0.7286(4) 0.3789(2)
O3 O 0.7150(2) 0.6799(4) 0.3982(2)
O4 O 0.7477(3) 0.8334(3) 0.3104(2)
O5 O 0.7496(3) 0.3831(3) 0.6973(2)
O6 O 0.7050(3) 0.5887(4) 0.7199(2)
O7 O 0.6312(3) 0.4627(5) 0.6374(3)
O8 O 0.7549(3) 0.5332(4) 0.6032(2)
Cu1 Cu 0.73115(4) 0.60161(6) 0.50223(4)
Mo1 Mo 0.77136(3) 0.71659(4) 0.34311(2)
Mo2 Mo 0.70935(3) 0.49140(4) 0.66454(2)
Sn1 Sn 0.73850(3) 0.97828(3) 0.26160(2)
Sn2 Sn 0.76878(2) 0.23630(3) 0.740055(19)
O1A O 0.7241(3) 1.1233(4) 0.2153(2)
O6A O 0.7950(3) 0.0887(4) 0.7801(2)
Sn1A Sn 0.76150(3) 0.47828(3) 0.23840(2)
Sn2A Sn 0.73122(2) 0.73630(3) 0.759945(19)
C41 C 0.9016(4) 0.4229(8) 0.5882(4)
H47 H 0.8700 0.4433 0.6173
C42 C 0.9991(5) 0.3285(10) 0.5645(5)
H48 H 0.9961 0.3689 0.5274
H49 H 0.9903 0.2576 0.5548
H50 H 1.0436 0.3349 0.5825
C43 C 0.9551(6) 0.3298(9) 0.6712(5)
H51 H 0.9526 0.2560 0.6724
H52 H 0.9186 0.3585 0.6943
H53 H 0.9974 0.3519 0.6891
N5 N 0.9502(3) 0.3643(5) 0.6077(3)
O9 O 0.8932(4) 0.4535(6) 0.5362(3)
C44 C 0.5652(7) 0.7821(13) 0.4237(7)
H54 H 0.6092 0.8058 0.4188
C45 C 0.5426(8) 0.8646(12) 0.3288(8)
H55 H 0.5904 0.8553 0.3237
H56 H 0.5333 0.9359 0.3365
H57 H 0.5190 0.8430 0.2918
C46 C 0.4519(7) 0.7726(11) 0.3806(8)
H58 H 0.4383 0.7530 0.4215
H59 H 0.4459 0.7154 0.3529
H60 H 0.4246 0.8293 0.3664
N6 N 0.5197(6) 0.8018(8) 0.3822(5)
O10 O 0.5504(8) 0.7305(11) 0.4711(5)
C47 C 0.5677(13) 0.4689(13) 0.1025(9)
H61 H 0.5973 0.5008 0.1332
H62 H 0.5341 0.4281 0.1235
C48 C 0.5349(13) 0.548(2) 0.0620(14)
H63 H 0.4958 0.5752 0.0822
H64 H 0.5214 0.5174 0.0233
H65 H 0.5663 0.6029 0.0545
O11 O 0.6055(6) 0.4068(8) 0.0610(5)
H66 H 0.6141 0.3513 0.0774
loop_
_geom_bond_atom_site_label_1
_geom_bond_atom_site_label_2
_geom_bond_site_symmetry_1
_geom_bond_site_symmetry_2
C1 C2 1_555 1_555
C2 H1 1_555 1_555
C3 C2 1_555 1_555
H2 C3 1_555 1_555
C4 C3 1_555 1_555
H3 C4 1_555 1_555
C5 C4 1_555 1_555
H4 C5 1_555 1_555
C6 C1 1_555 1_555
H5 C6 1_555 1_555
C7 C8 1_555 1_555
C8 H6 1_555 1_555
C9 C8 1_555 1_555
H7 C9 1_555 1_555
C10 C9 1_555 1_555
H8 C10 1_555 1_555
C11 C10 1_555 1_555
H9 C11 1_555 1_555
C12 C7 1_555 1_555
H10 C12 1_555 1_555
C13 C14 1_555 1_555
C14 H11 1_555 1_555
C15 C14 1_555 1_555
H12 C15 1_555 1_555
C16 C15 1_555 1_555
H13 C16 1_555 1_555
C17 C16 1_555 1_555
H14 C17 1_555 1_555
C18 C13 1_555 1_555
H15 C18 1_555 1_555
C19 C20 1_555 1_555
C20 H16 1_555 1_555
C21 C20 1_555 1_555
H17 C21 1_555 1_555
C22 C21 1_555 1_555
H18 C22 1_555 1_555
C23 C22 1_555 1_555
H19 C23 1_555 1_555
C24 C19 1_555 1_555
H20 C24 1_555 1_555
C25 C26 1_555 1_555
C26 H21 1_555 1_555
C27 C26 1_555 1_555
H22 C27 1_555 1_555
C28 C27 1_555 1_555
H23 C28 1_555 1_555
C29 C28 1_555 1_555
H24 C29 1_555 1_555
C30 C25 1_555 1_555
H25 C30 1_555 1_555
C31 C32 1_555 1_555
C32 H26 1_555 1_555
C33 C32 1_555 1_555
H27 C33 1_555 1_555
C34 C33 1_555 1_555
H28 C34 1_555 1_555
C35 C34 1_555 1_555
H29 C35 1_555 1_555
C36 C31 1_555 1_555
H30 C36 1_555 1_555
C37 H31 1_555 1_555
H32 C37 1_555 1_555
C38 C37 1_555 1_555
H33 C38 1_555 1_555
H34 C38 1_555 1_555
C39 H35 1_555 1_555
H36 C39 1_555 1_555
C40 C39 1_555 1_555
H37 C40 1_555 1_555
H38 C40 1_555 1_555
N1 C39 1_555 1_555
H39 N1 1_555 1_555
H40 N1 1_555 1_555
N2 C40 1_555 1_555
H41 N2 1_555 1_555
H42 N2 1_555 1_555
N3 C38 1_555 1_555
H43 N3 1_555 1_555
H44 N3 1_555 1_555
N4 C37 1_555 1_555
H45 N4 1_555 1_555
H46 N4 1_555 1_555
O1 Mo1 1_555 1_555
O2 Mo1 1_555 1_555
O3 Cu1 1_555 1_555
O4 Mo1 1_555 1_555
O5 Mo2 1_555 1_555
O6 Mo2 1_555 1_555
O7 Mo2 1_555 1_555
O8 Cu1 1_555 1_555
Cu1 N1 1_555 1_555
Mo1 O3 1_555 1_555
Mo2 O8 1_555 1_555
Sn1 C1 1_555 1_555
Sn2 C19 1_555 1_555
C41 H47 1_555 1_555
C42 H48 1_555 1_555
H49 C42 1_555 1_555
H50 C42 1_555 1_555
C43 H51 1_555 1_555
H52 C43 1_555 1_555
H53 C43 1_555 1_555
N5 C41 1_555 1_555
O9 C41 1_555 1_555
C44 H54 1_555 1_555
C45 H55 1_555 1_555
H56 C45 1_555 1_555
H57 C45 1_555 1_555
C46 H58 1_555 1_555
H59 C46 1_555 1_555
H60 C46 1_555 1_555
N6 C44 1_555 1_555
O10 C44 1_555 1_555
C47 H61 1_555 1_555
H62 C47 1_555 1_555
C48 C47 1_555 1_555
H63 C48 1_555 1_555
H64 C48 1_555 1_555
H65 C48 1_555 1_555
O11 C47 1_555 1_555
H66 O11 1_555 1_555
O1A Sn1 1_555 1_555
O6A Sn2 1_555 1_555
Sn1A O1 1_555 1_555
Sn2A O6 1_555 1_555
C5 C6 1_555 1_555
C7 Sn1 1_555 1_555
C11 C12 1_555 1_555
C13 Sn1 1_555 1_555
C17 C18 1_555 1_555
C23 C24 1_555 1_555
C25 Sn2 1_555 1_555
C29 C30 1_555 1_555
C31 Sn2 1_555 1_555
C35 C36 1_555 1_555
N2 Cu1 1_555 1_555
N3 Cu1 1_555 1_555
N4 Cu1 1_555 1_555
O4 Sn1 1_555 1_555
O5 Sn2 1_555 1_555
C42 N5 1_555 1_555
C43 N5 1_555 1_555
C45 N6 1_555 1_555
C46 N6 1_555 1_555

#END
