
#######################################################################
#
#                 Cambridge Crystallographic Data Centre
#                                CCDC 
#
#######################################################################
#
# If this CIF has been generated from an entry in the Cambridge 
# Structural Database, then it will include bibliographic, chemical, 
# crystal, experimental, refinement or atomic coordinate data resulting 
# from the CCDC's data processing and validation procedures.
#
#######################################################################

data_GIBSEQ
_symmetry_cell_setting           triclinic
_symmetry_space_group_name_H-M   'P -1'
_symmetry_Int_Tables_number      2
_space_group_name_Hall           '-P 1'
loop_
_symmetry_equiv_pos_site_id
_symmetry_equiv_pos_as_xyz
1 x,y,z
2 -x,-y,-z
_cell_length_a                   13.198(3)
_cell_length_b                   16.373(4)
_cell_length_c                   18.340(5)
_cell_angle_alpha                115.59(2)
_cell_angle_beta                 98.70(2)
_cell_angle_gamma                101.80(3)
_cell_volume                     3367.52
loop_
_atom_site_label
_atom_site_type_symbol
_atom_site_fract_x
_atom_site_fract_y
_atom_site_fract_z
Cu1 Cu 0.05705(5) 0.29767(4) -0.21083(4)
Cu2 Cu -0.07819(5) 0.15544(4) -0.39731(4)
N1 N 0.2012(3) 0.3940(3) -0.1429(2)
N2 N 0.0052(4) 0.4099(3) -0.1519(3)
C1 C 0.3001(5) 0.3863(4) -0.1417(4)
H1 H 0.3075 0.3277 -0.1763
C2 C 0.3916(5) 0.4613(4) -0.0913(4)
H2 H 0.4590 0.4532 -0.0934
C3 C 0.3830(5) 0.5479(4) -0.0382(4)
H3 H 0.4446 0.5986 -0.0037
C4 C 0.2823(5) 0.5598(4) -0.0358(3)
C5 C 0.1925(5) 0.4810(4) -0.0908(3)
C6 C 0.0866(5) 0.4889(4) -0.0957(3)
C7 C 0.0737(5) 0.5770(4) -0.0447(4)
C8 C -0.0335(6) 0.5784(5) -0.0558(4)
H4 H -0.0481 0.6345 -0.0237
C9 C -0.1159(6) 0.5008(5) -0.1117(4)
H5 H -0.1861 0.5036 -0.1182
C10 C -0.0946(5) 0.4159(4) -0.1597(4)
H6 H -0.1516 0.3625 -0.1979
C11 C 0.2650(6) 0.6478(4) 0.0155(4)
H7 H 0.3234 0.7007 0.0523
C12 C 0.1655(6) 0.6542(4) 0.0110(4)
H8 H 0.1561 0.7118 0.0459
N3 N -0.2027(4) 0.1943(3) -0.4334(3)
N4 N -0.1847(4) 0.0255(3) -0.4686(3)
C13 C -0.2104(5) 0.2807(4) -0.4099(4)
H9 H -0.1520 0.3326 -0.3712
C14 C -0.3030(6) 0.2973(5) -0.4412(4)
H10 H -0.3061 0.3590 -0.4230
C15 C -0.3886(6) 0.2220(5) -0.4984(4)
H11 H -0.4498 0.2323 -0.5209
C16 C -0.3848(5) 0.1293(5) -0.5235(4)
C17 C -0.2900(5) 0.1191(4) -0.4879(3)
C18 C -0.2796(5) 0.0284(4) -0.5062(3)
C19 C -0.3669(5) -0.0535(4) -0.5605(4)
C20 C -0.3525(6) -0.1412(5) -0.5725(4)
H12 H -0.4082 -0.1974 -0.6064
C21 C -0.2581(6) -0.1431(5) -0.5349(4)
H13 H -0.2481 -0.2007 -0.5428
C22 C -0.1740(5) -0.0576(4) -0.4833(4)
H14 H -0.1086 -0.0603 -0.4588
C23 C -0.4710(5) 0.0438(5) -0.5814(4)
H15 H -0.5341 0.0490 -0.6070
C24 C -0.4632(5) -0.0427(5) -0.5995(4)
H16 H -0.5203 -0.0963 -0.6375
Cu3 Cu 0.55191(6) -0.14477(4) -0.10720(4)
Cu4 Cu 0.44393(5) -0.25878(4) -0.29963(4)
N5 N 0.6799(4) -0.0316(3) -0.0316(3)
N6 N 0.6414(4) -0.2099(3) -0.0654(3)
C25 C 0.6970(5) 0.0586(4) -0.0146(4)
H17 H 0.6418 0.0756 -0.0366
C26 C 0.7946(6) 0.1281(5) 0.0352(4)
H18 H 0.8047 0.1902 0.0446
C27 C 0.8750(7) 0.1051(6) 0.0699(5)
H19 H 0.9403 0.1512 0.1036
C28 C 0.8588(6) 0.0115(6) 0.0544(4)
C29 C 0.7607(5) -0.0537(4) 0.0033(3)
C30 C 0.7382(5) -0.1496(4) -0.0137(4)
C31 C 0.8158(6) -0.1770(6) 0.0247(4)
C32 C 0.7858(7) -0.2717(7) 0.0070(5)
H20 H 0.8331 -0.2932 0.0320
C33 C 0.6880(7) -0.3339(6) -0.0463(5)
H21 H 0.6691 -0.3971 -0.0579
C34 C 0.6169(6) -0.3005(5) -0.0829(4)
H22 H 0.5511 -0.3425 -0.1202
C35 C 0.9363(7) -0.0186(7) 0.0906(5)
H23 H 1.0029 0.0251 0.1244
C36 C 0.9165(7) -0.1073(8) 0.0778(5)
H24 H 0.9686 -0.1242 0.1035
N7 N 0.4768(4) -0.3829(3) -0.3479(3)
N8 N 0.3027(4) -0.3388(3) -0.3867(3)
C37 C 0.5634(5) -0.4030(4) -0.3224(4)
H25 H 0.6202 -0.3542 -0.2785
C38 C 0.5723(6) -0.4938(5) -0.3587(5)
H26 H 0.6328 -0.5061 -0.3378
C39 C 0.4918(7) -0.5652(5) -0.4253(5)
H27 H 0.4983 -0.6262 -0.4505
C40 C 0.4000(6) -0.5483(4) -0.4560(4)
C41 C 0.3957(5) -0.4534(4) -0.4132(4)
C42 C 0.3027(5) -0.4297(4) -0.4347(3)
C43 C 0.2153(5) -0.4990(4) -0.5027(4)
C44 C 0.1261(6) -0.4699(5) -0.5185(4)
H28 H 0.0662 -0.5130 -0.5628
C45 C 0.1248(5) -0.3792(5) -0.4702(4)
H29 H 0.0649 -0.3606 -0.4815
C46 C 0.2162(5) -0.3140(5) -0.4026(4)
H30 H 0.2152 -0.2526 -0.3688
C47 C 0.3093(7) -0.6155(5) -0.5241(4)
H31 H 0.3103 -0.6778 -0.5536
C48 C 0.2236(6) -0.5932(5) -0.5472(4)
H32 H 0.1674 -0.6396 -0.5933
O1 O 0.1245(3) 0.1966(2) -0.2427(2)
O2 O 0.0280(3) 0.0967(2) -0.3766(2)
O3 O 0.4756(3) -0.0638(3) -0.1275(2)
O4 O 0.3983(3) -0.1448(3) -0.2674(2)
C49 C 0.0977(4) 0.1191(4) -0.3113(4)
C50 C 0.1518(5) 0.0457(4) -0.3135(4)
H33 H 0.0979 -0.0067 -0.3165
H34 H 0.1723 0.0214 -0.3656
C51 C 0.2467(5) 0.0712(4) -0.2456(4)
H35 H 0.2287 0.0975 -0.1925
H36 H 0.3037 0.1204 -0.2441
C52 C 0.2879(5) -0.0111(4) -0.2547(4)
H37 H 0.2294 -0.0608 -0.2587
H38 H 0.3068 -0.0359 -0.3076
C53 C 0.3797(6) 0.0077(5) -0.1889(4)
H39 H 0.3614 0.0347 -0.1360
H40 H 0.4386 0.0562 -0.1863
C54 C 0.4210(5) -0.0746(4) -0.1950(4)
O5 O -0.0898(3) 0.2115(2) -0.2637(2)
O6 O -0.0701(3) 0.2032(3) -0.1457(2)
O7 O -0.3996(3) -0.1963(3) -0.3583(3)
O8 O -0.4062(3) -0.1887(2) -0.2361(2)
C55 C -0.1247(4) 0.1807(4) -0.2152(4)
C56 C -0.2411(4) 0.1204(4) -0.2483(4)
H41 H -0.2856 0.1610 -0.2274
H42 H -0.2618 0.0914 -0.3091
C57 C -0.2626(5) 0.0431(4) -0.2234(4)
H43 H -0.3397 0.0135 -0.2391
H44 H -0.2366 0.0715 -0.1628
C58 C -0.2095(5) -0.0326(4) -0.2642(4)
H45 H -0.2307 -0.0569 -0.3245
H46 H -0.1321 -0.0038 -0.2446
C59 C -0.2377(5) -0.1139(4) -0.2461(4)
H47 H -0.2195 -0.0898 -0.1857
H48 H -0.1954 -0.1560 -0.2688
C60 C -0.3554(5) -0.1695(4) -0.2832(4)
O9 O 0.0259(3) 0.2825(2) -0.3446(2)
O10 O 0.0485(4) 0.2438(3) -0.4702(3)
O11 O 0.4313(3) 0.7408(2) -0.1778(2)
O12 O 0.3874(3) 0.7677(3) -0.0607(3)
C61 C 0.0765(5) 0.2973(4) -0.3936(4)
C62 C 0.1778(5) 0.3807(4) -0.3527(4)
H49 H 0.2082 0.3850 -0.3963
H50 H 0.2295 0.3686 -0.3181
C63 C 0.1621(4) 0.4767(4) -0.2981(3)
H51 H 0.1234 0.4962 -0.3339
H52 H 0.1192 0.4700 -0.2614
C64 C 0.2690(5) 0.5526(4) -0.2455(3)
H53 H 0.3119 0.5586 -0.2824
H54 H 0.3075 0.5327 -0.2099
C65 C 0.2567(5) 0.6491(4) -0.1906(4)
H55 H 0.2189 0.6694 -0.2262
H56 H 0.2133 0.6431 -0.1539
C66 C 0.3640(5) 0.7246(4) -0.1374(4)
Cu3_2 Cu 0.55191(6) 0.85523(4) -0.10720(4)
Cu3_3 Cu -0.44809(6) -0.14477(4) -0.10720(4)
Cu4_2 Cu 0.44393(5) 0.74122(4) -0.29963(4)
Cu4_3 Cu -0.55607(5) -0.25878(4) -0.29963(4)
O8_2 O 0.5938(3) -0.1887(2) -0.2361(2)
O11_2 O 0.4313(3) -0.2592(2) -0.1778(2)
Cl1 Cl 0.56527(17) 0.33783(15) -0.22560(12)
O13 O 0.6184(4) 0.4221(4) -0.1513(3)
O14 O 0.6305(6) 0.2954(5) -0.2674(5)
O15 O 0.4984(6) 0.2765(5) -0.2077(4)
O16 O 0.4958(7) 0.3549(5) -0.2750(4)
Cl2 Cl 0.9167(3) 0.64857(19) -0.23461(16)
O17 O 0.9838(7) 0.6741(5) -0.1595(4)
O18 O 0.9806(8) 0.6793(7) -0.2783(5)
O19 O 0.8499(9) 0.6973(8) -0.2281(7)
O20 O 0.8662(7) 0.5552(5) -0.2837(5)
O21 O -0.0062(8) 0.1810(5) -0.6505(5)
loop_
_geom_bond_atom_site_label_1
_geom_bond_atom_site_label_2
_geom_bond_site_symmetry_1
_geom_bond_site_symmetry_2
Cu1 N1 1_555 1_555
Cu2 N3 1_555 1_555
N1 C1 1_555 1_555
N2 Cu1 1_555 1_555
C1 H1 1_555 1_555
C2 C1 1_555 1_555
H2 C2 1_555 1_555
C3 C2 1_555 1_555
H3 C3 1_555 1_555
C4 C3 1_555 1_555
C5 N1 1_555 1_555
C6 N2 1_555 1_555
C7 C6 1_555 1_555
C8 C7 1_555 1_555
H4 C8 1_555 1_555
C9 C8 1_555 1_555
H5 C9 1_555 1_555
C10 N2 1_555 1_555
H6 C10 1_555 1_555
C11 C4 1_555 1_555
H7 C11 1_555 1_555
C12 C7 1_555 1_555
H8 C12 1_555 1_555
N3 C13 1_555 1_555
N4 Cu2 1_555 1_555
C13 H9 1_555 1_555
C14 C13 1_555 1_555
H10 C14 1_555 1_555
C15 C14 1_555 1_555
H11 C15 1_555 1_555
C16 C15 1_555 1_555
C17 N3 1_555 1_555
C18 N4 1_555 1_555
C19 C18 1_555 1_555
C20 C19 1_555 1_555
H12 C20 1_555 1_555
C21 C20 1_555 1_555
H13 C21 1_555 1_555
C22 N4 1_555 1_555
H14 C22 1_555 1_555
C23 C16 1_555 1_555
H15 C23 1_555 1_555
C24 C19 1_555 1_555
H16 C24 1_555 1_555
Cu3 N5 1_555 1_555
Cu4 N7 1_555 1_555
N5 C25 1_555 1_555
N6 Cu3 1_555 1_555
C25 H17 1_555 1_555
C26 C25 1_555 1_555
H18 C26 1_555 1_555
C27 C26 1_555 1_555
H19 C27 1_555 1_555
C28 C27 1_555 1_555
C29 N5 1_555 1_555
C30 N6 1_555 1_555
C31 C30 1_555 1_555
C32 C31 1_555 1_555
H20 C32 1_555 1_555
C33 C32 1_555 1_555
H21 C33 1_555 1_555
C34 N6 1_555 1_555
H22 C34 1_555 1_555
C35 C28 1_555 1_555
H23 C35 1_555 1_555
C36 C31 1_555 1_555
H24 C36 1_555 1_555
N7 C37 1_555 1_555
N8 Cu4 1_555 1_555
C37 H25 1_555 1_555
C38 C37 1_555 1_555
H26 C38 1_555 1_555
C39 C38 1_555 1_555
H27 C39 1_555 1_555
C40 C39 1_555 1_555
C41 N7 1_555 1_555
C42 N8 1_555 1_555
C43 C42 1_555 1_555
C44 C43 1_555 1_555
H28 C44 1_555 1_555
C45 C44 1_555 1_555
H29 C45 1_555 1_555
C46 N8 1_555 1_555
H30 C46 1_555 1_555
C47 C40 1_555 1_555
H31 C47 1_555 1_555
C48 C43 1_555 1_555
H32 C48 1_555 1_555
O1 Cu1 1_555 1_555
O2 Cu2 1_555 1_555
O3 Cu3 1_555 1_555
O4 Cu4 1_555 1_555
C49 O1 1_555 1_555
C50 C49 1_555 1_555
H33 C50 1_555 1_555
H34 C50 1_555 1_555
C51 C50 1_555 1_555
H35 C51 1_555 1_555
H36 C51 1_555 1_555
C52 C51 1_555 1_555
H37 C52 1_555 1_555
H38 C52 1_555 1_555
C53 C52 1_555 1_555
H39 C53 1_555 1_555
H40 C53 1_555 1_555
C54 O3 1_555 1_555
O5 Cu1 1_555 1_555
O6 C55 1_555 1_555
O7 C60 1_555 1_555
O8 C60 1_555 1_555
C55 O5 1_555 1_555
C56 C55 1_555 1_555
H41 C56 1_555 1_555
H42 C56 1_555 1_555
C57 C56 1_555 1_555
H43 C57 1_555 1_555
H44 C57 1_555 1_555
C58 C57 1_555 1_555
H45 C58 1_555 1_555
H46 C58 1_555 1_555
C59 C58 1_555 1_555
H47 C59 1_555 1_555
H48 C59 1_555 1_555
C60 C59 1_555 1_555
O9 Cu1 1_555 1_555
O10 C61 1_555 1_555
O11 C66 1_555 1_555
O12 C66 1_555 1_555
C61 O9 1_555 1_555
C62 C61 1_555 1_555
H49 C62 1_555 1_555
H50 C62 1_555 1_555
C63 C62 1_555 1_555
H51 C63 1_555 1_555
H52 C63 1_555 1_555
C64 C63 1_555 1_555
H53 C64 1_555 1_555
H54 C64 1_555 1_555
C65 C64 1_555 1_555
H55 C65 1_555 1_555
H56 C65 1_555 1_555
C66 C65 1_555 1_555
Cl1 O13 1_555 1_555
O14 Cl1 1_555 1_555
O15 Cl1 1_555 1_555
O16 Cl1 1_555 1_555
Cl2 O17 1_555 1_555
O18 Cl2 1_555 1_555
O19 Cl2 1_555 1_555
O20 Cl2 1_555 1_555
Cu3_2 O11 1_555 1_555
Cu3_3 O8 1_555 1_555
Cu4_2 O11 1_555 1_555
Cu4_3 O8 1_555 1_555
O8_2 Cu3 1_555 1_555
O11_2 Cu3 1_555 1_555
Cu2 O5 1_555 1_555
Cu2 O9 1_555 1_555
C4 C5 1_555 1_555
C5 C6 1_555 1_555
C9 C10 1_555 1_555
C11 C12 1_555 1_555
C16 C17 1_555 1_555
C17 C18 1_555 1_555
C21 C22 1_555 1_555
C23 C24 1_555 1_555
Cu4 O8_2 1_555 1_555
Cu4 O11_2 1_555 1_555
C28 C29 1_555 1_555
C29 C30 1_555 1_555
C33 C34 1_555 1_555
C35 C36 1_555 1_555
C40 C41 1_555 1_555
C41 C42 1_555 1_555
C45 C46 1_555 1_555
C47 C48 1_555 1_555
O2 C49 1_555 1_555
O4 C54 1_555 1_555
C53 C54 1_555 1_555

#END
