
#######################################################################
#
#                 Cambridge Crystallographic Data Centre
#                                CCDC 
#
#######################################################################
#
# If this CIF has been generated from an entry in the Cambridge 
# Structural Database, then it will include bibliographic, chemical, 
# crystal, experimental, refinement or atomic coordinate data resulting 
# from the CCDC's data processing and validation procedures.
#
#######################################################################

data_GIBWOE
_symmetry_cell_setting           monoclinic
_symmetry_space_group_name_H-M   'C 2/c'
_symmetry_Int_Tables_number      15
_space_group_name_Hall           '-C 2yn'
loop_
_symmetry_equiv_pos_site_id
_symmetry_equiv_pos_as_xyz
1 x,y,z
2 1/2+x,1/2+y,z
3 -x,y,1/2-z
4 1/2-x,1/2+y,1/2-z
5 -x,-y,-z
6 1/2-x,1/2-y,-z
7 x,-y,1/2+z
8 1/2+x,1/2-y,1/2+z
_cell_length_a                   16.611(3)
_cell_length_b                   7.4280(14)
_cell_length_c                   8.0376(16)
_cell_angle_alpha                90
_cell_angle_beta                 90.496(3)
_cell_angle_gamma                90
_cell_volume                     991.694
loop_
_atom_site_label
_atom_site_type_symbol
_atom_site_fract_x
_atom_site_fract_y
_atom_site_fract_z
Zn1 Zn 0.19093(6) 0.06389(14) 0.56121(13)
O1 O 0.1247(4) -0.1553(9) 0.5405(7)
O2 O 0.1825(4) -0.1345(9) 0.2965(8)
O3 O 0.1948(4) -0.5181(9) 0.4387(9)
O4 O 0.1260(4) -0.7752(9) 0.4225(8)
C1 C 0.0643(5) -0.3217(12) 0.3199(10)
C2 C 0.0646(5) -0.5076(12) 0.3210(11)
C3 C 0.0000 -0.6026(17) 0.2500
H1 H 0.0000 -0.7278 0.2500
C4 C 0.0000 -0.2287(17) 0.2500
H2 H 0.0000 -0.1035 0.2500
C5 C 0.1295(5) -0.2041(12) 0.3908(12)
C6 C 0.1342(5) -0.6075(12) 0.3969(11)
Zn1B Zn -0.19093(6) 0.06389(14) -0.06121(13)
Zn1F Zn 0.19093(6) -0.06389(14) 0.06121(13)
Zn1E Zn 0.30907(6) -0.56389(14) 0.43879(13)
Zn1_2 Zn 0.19093(6) -0.93611(14) 0.56121(13)
Zn1D Zn -0.19093(6) -0.06389(14) 0.43879(13)
Zn1G Zn -0.30907(6) -0.56389(14) 0.06121(13)
Zn1B_2 Zn -0.19093(6) -0.93611(14) -0.06121(13)
O1B O -0.1247(4) -0.1553(9) -0.0405(7)
O2B O -0.1825(4) -0.1345(9) 0.2035(8)
O2F O 0.1825(4) 0.1345(9) 0.7965(8)
O2D O -0.1825(4) 0.1345(9) -0.2965(8)
O3B O -0.1948(4) -0.5181(9) 0.0613(9)
O3E O 0.3052(4) 0.0181(9) 0.5613(9)
O3G O -0.3052(4) 0.0181(9) -0.0613(9)
O4B O -0.1260(4) -0.7752(9) 0.0775(8)
O4_2 O 0.1260(4) 0.2248(9) 0.4225(8)
O4B_2 O -0.1260(4) 0.2248(9) 0.0775(8)
C1B C -0.0643(5) -0.3217(12) 0.1801(10)
C2B C -0.0646(5) -0.5076(12) 0.1790(11)
C5B C -0.1295(5) -0.2041(12) 0.1092(12)
C6B C -0.1342(5) -0.6075(12) 0.1031(11)
loop_
_geom_bond_atom_site_label_1
_geom_bond_atom_site_label_2
_geom_bond_site_symmetry_1
_geom_bond_site_symmetry_2
Zn1 O1 1_555 1_555
O1 C5 1_555 1_555
O2 C5 1_555 1_555
O3 C6 1_555 1_555
O4 C6 1_555 1_555
C1 C2 1_555 1_555
C2 C3 1_555 1_555
C3 H1 1_555 1_555
C4 C1 1_555 1_555
H2 C4 1_555 1_555
C5 C1 1_555 1_555
C6 C2 1_555 1_555
Zn1B O1B 1_555 1_555
Zn1F O2 1_555 1_555
Zn1E O3 1_555 1_555
Zn1_2 O4 1_555 1_555
Zn1D O2B 1_555 1_555
Zn1G O3B 1_555 1_555
Zn1B_2 O4B 1_555 1_555
O1B C5B 1_555 1_555
O2B C5B 1_555 1_555
O2F Zn1 1_555 1_555
O2D Zn1B 1_555 1_555
O3B C6B 1_555 1_555
O3E Zn1 1_555 1_555
O3G Zn1B 1_555 1_555
O4B C6B 1_555 1_555
O4_2 Zn1 1_555 1_555
O4B_2 Zn1B 1_555 1_555
C1B C4 1_555 1_555
C2B C3 1_555 1_555
C5B C1B 1_555 1_555
C6B C2B 1_555 1_555
C1B C2B 1_555 1_555

#END
