
#######################################################################
#
#                 Cambridge Crystallographic Data Centre
#                                CCDC 
#
#######################################################################
#
# If this CIF has been generated from an entry in the Cambridge 
# Structural Database, then it will include bibliographic, chemical, 
# crystal, experimental, refinement or atomic coordinate data resulting 
# from the CCDC's data processing and validation procedures.
#
#######################################################################

data_GIBXIA
_symmetry_cell_setting           monoclinic
_symmetry_space_group_name_H-M   'P 21/n'
_symmetry_Int_Tables_number      14
_space_group_name_Hall           '-P 2yn'
loop_
_symmetry_equiv_pos_site_id
_symmetry_equiv_pos_as_xyz
1 x,y,z
2 1/2-x,1/2+y,1/2-z
3 -x,-y,-z
4 1/2+x,1/2-y,1/2+z
_cell_length_a                   9.739(3)
_cell_length_b                   21.260(7)
_cell_length_c                   9.952(3)
_cell_angle_alpha                90
_cell_angle_beta                 103.851(3)
_cell_angle_gamma                90
_cell_volume                     2000.65
loop_
_atom_site_label
_atom_site_type_symbol
_atom_site_fract_x
_atom_site_fract_y
_atom_site_fract_z
Ag1 Ag 0.11957(4) 0.828815(14) 0.37908(4)
C1 C 0.2473(4) 1.01422(15) 0.5315(4)
C2 C 0.2306(4) 1.07915(17) 0.5172(4)
H1 H 0.2886 1.1068 0.5777
C3 C 0.1241(4) 1.10039(19) 0.4095(4)
H2 H 0.1095 1.1434 0.3969
C4 C 0.0378(4) 1.05856(19) 0.3187(4)
H3 H -0.0332 1.0746 0.2472
C5 C 0.0544(4) 0.99477(18) 0.3315(4)
H4 H -0.0032 0.9672 0.2702
C6 C 0.1614(4) 0.97299(16) 0.4406(4)
C7 C 0.3071(4) 0.91684(15) 0.5924(4)
C8 C 0.3816(4) 0.86186(16) 0.6642(4)
C9 C 0.5260(4) 0.85504(17) 0.6840(4)
H5 H 0.5796 0.8868 0.6572
C10 C 0.5902(4) 0.80058(18) 0.7443(4)
H6 H 0.6874 0.7961 0.7561
C11 C 0.3788(5) 0.76084(18) 0.7658(5)
H7 H 0.3274 0.7285 0.7934
C12 C 0.3076(4) 0.81321(17) 0.7063(5)
H8 H 0.2101 0.8160 0.6942
C13 C 0.4355(4) 1.00207(17) 0.7557(4)
H9 H 0.4961 1.0343 0.7318
H10 H 0.4954 0.9682 0.8019
C14 C 0.3540(4) 1.02929(17) 0.8527(4)
C15 C 0.3435(5) 1.09382(19) 0.8697(4)
H11 H 0.3905 1.1209 0.8225
C16 C 0.2652(6) 1.1182(2) 0.9550(5)
H12 H 0.2586 1.1615 0.9649
C17 C 0.1972(6) 1.0787(2) 1.0249(5)
H13 H 0.1422 1.0954 1.0808
C18 C 0.2084(5) 1.0143(2) 1.0143(4)
H14 H 0.1640 0.9877 1.0649
C19 C 0.2866(4) 0.98963(18) 0.9273(4)
N1 N 0.3401(3) 0.97766(13) 0.6279(3)
N2 N 0.2016(3) 0.91201(13) 0.4816(3)
N3 N 0.5181(4) 0.75419(14) 0.7861(4)
O1 O 0.3008(3) 0.92688(13) 0.9095(3)
H15 H 0.2722 0.9077 0.9689
Ag1C Ag 0.61957(4) 0.671185(14) 0.87908(4)
N3C N 0.0181(4) 0.74581(14) 0.2861(4)
Cl1 Cl 0.48617(13) 0.76977(6) 0.34110(14)
O2 O 0.4204(6) 0.8299(3) 0.3398(6)
O3 O 0.6273(4) 0.7772(2) 0.4112(5)
O4 O 0.4202(7) 0.7306(4) 0.4127(7)
O5 O 0.4690(7) 0.7535(3) 0.2017(5)
O6 O 0.1963(7) 0.8518(2) 0.0830(5)
H16 H 0.133(6) 0.830(3) 0.032(8)
H17 H 0.272(5) 0.836(3) 0.131(9)
loop_
_geom_bond_atom_site_label_1
_geom_bond_atom_site_label_2
_geom_bond_site_symmetry_1
_geom_bond_site_symmetry_2
Ag1 N2 1_555 1_555
C1 C2 1_555 1_555
C2 H1 1_555 1_555
C3 C2 1_555 1_555
H2 C3 1_555 1_555
C4 C3 1_555 1_555
H3 C4 1_555 1_555
C5 C4 1_555 1_555
H4 C5 1_555 1_555
C6 C1 1_555 1_555
C7 C8 1_555 1_555
C8 C9 1_555 1_555
C9 H5 1_555 1_555
C10 C9 1_555 1_555
H6 C10 1_555 1_555
C11 H7 1_555 1_555
C12 C8 1_555 1_555
H8 C12 1_555 1_555
C13 H9 1_555 1_555
H10 C13 1_555 1_555
C14 C13 1_555 1_555
C15 C14 1_555 1_555
H11 C15 1_555 1_555
C16 C15 1_555 1_555
H12 C16 1_555 1_555
C17 C16 1_555 1_555
H13 C17 1_555 1_555
C18 C17 1_555 1_555
H14 C18 1_555 1_555
C19 C14 1_555 1_555
N1 C1 1_555 1_555
N2 C6 1_555 1_555
N3 C10 1_555 1_555
O1 C19 1_555 1_555
H15 O1 1_555 1_555
Cl1 O2 1_555 1_555
O3 Cl1 1_555 1_555
O4 Cl1 1_555 1_555
O5 Cl1 1_555 1_555
O6 H16 1_555 1_555
H17 O6 1_555 1_555
Ag1C N3 1_555 1_555
N3C Ag1 1_555 1_555
C5 C6 1_555 1_555
C7 N1 1_555 1_555
C7 N2 1_555 1_555
C11 C12 1_555 1_555
C11 N3 1_555 1_555
C13 N1 1_555 1_555
C18 C19 1_555 1_555

#END
