
#######################################################################
#
#                 Cambridge Crystallographic Data Centre
#                                CCDC 
#
#######################################################################
#
# If this CIF has been generated from an entry in the Cambridge 
# Structural Database, then it will include bibliographic, chemical, 
# crystal, experimental, refinement or atomic coordinate data resulting 
# from the CCDC's data processing and validation procedures.
#
#######################################################################

data_GICBAV
_symmetry_cell_setting           monoclinic
_symmetry_space_group_name_H-M   'P 21/c'
_symmetry_Int_Tables_number      14
_space_group_name_Hall           '-P 2ybc'
loop_
_symmetry_equiv_pos_site_id
_symmetry_equiv_pos_as_xyz
1 x,y,z
2 -x,1/2+y,1/2-z
3 -x,-y,-z
4 x,1/2-y,1/2+z
_cell_length_a                   14.095(5)
_cell_length_b                   13.561(4)
_cell_length_c                   8.465(3)
_cell_angle_alpha                90
_cell_angle_beta                 98.92(2)
_cell_angle_gamma                90
_cell_volume                     1598.45
loop_
_atom_site_label
_atom_site_type_symbol
_atom_site_fract_x
_atom_site_fract_y
_atom_site_fract_z
C1 C 0.8210(3) 0.1705(3) 0.0451(7)
C2 C 0.7352(4) 0.2353(3) 0.0578(6)
C3 C 0.6401(3) 0.1810(4) 0.0081(7)
C4 C 0.6375(5) 0.0833(5) 0.0889(11)
C5 C 0.7223(4) 0.0183(4) 0.0589(9)
C6 C 0.8177(4) 0.0726(4) 0.1246(9)
Sn1 Sn 0.95532(2) 0.24481(2) 0.11145(3)
F1 F 0.9543(3) 0.2213(3) 0.3598(3)
C7 C 0.9667(4) 0.3991(4) 0.1564(7)
C8 C 1.0839(4) 0.1607(5) 0.1226(8)
O1 O 0.5654(3) 0.2470(2) 0.0249(7)
C9 C 0.4736(5) 0.2169(6) -0.0473(13)
C10 C 0.4058(4) 0.3032(5) -0.0374(8)
C11 C 0.3230(5) 0.2891(6) 0.0257(11)
C12 C 0.2628(5) 0.3692(7) 0.0336(13)
C13 C 0.2820(6) 0.4584(6) -0.0175(12)
C14 C 0.3654(6) 0.4750(6) -0.0780(10)
C15 C 0.4271(6) 0.3979(6) -0.0891(11)
F1C F 0.9543(3) 0.2787(3) -0.1402(3)
Sn1C Sn 0.95532(2) 0.25519(2) 0.61145(3)
loop_
_geom_bond_atom_site_label_1
_geom_bond_atom_site_label_2
_geom_bond_site_symmetry_1
_geom_bond_site_symmetry_2
C1 C2 1_555 1_555
C2 C3 1_555 1_555
C3 C4 1_555 1_555
C4 C5 1_555 1_555
C5 C6 1_555 1_555
C6 C1 1_555 1_555
Sn1 C1 1_555 1_555
F1 Sn1 1_555 1_555
C7 Sn1 1_555 1_555
C8 Sn1 1_555 1_555
O1 C3 1_555 1_555
C9 O1 1_555 1_555
C10 C9 1_555 1_555
C11 C10 1_555 1_555
C12 C11 1_555 1_555
C13 C12 1_555 1_555
C14 C13 1_555 1_555
C15 C10 1_555 1_555
F1C Sn1 1_555 1_555
Sn1C F1 1_555 1_555
C14 C15 1_555 1_555

#END
