
#######################################################################
#
#                 Cambridge Crystallographic Data Centre
#                                CCDC 
#
#######################################################################
#
# If this CIF has been generated from an entry in the Cambridge 
# Structural Database, then it will include bibliographic, chemical, 
# crystal, experimental, refinement or atomic coordinate data resulting 
# from the CCDC's data processing and validation procedures.
#
#######################################################################

data_GICDEC
_symmetry_cell_setting           triclinic
_symmetry_space_group_name_H-M   'P -1'
_symmetry_Int_Tables_number      2
_space_group_name_Hall           '-P 1'
loop_
_symmetry_equiv_pos_site_id
_symmetry_equiv_pos_as_xyz
1 x,y,z
2 -x,-y,-z
_cell_length_a                   7.437(3)
_cell_length_b                   7.571(3)
_cell_length_c                   7.756(4)
_cell_angle_alpha                65.64(4)
_cell_angle_beta                 76.09(4)
_cell_angle_gamma                86.25(3)
_cell_volume                     385.879
loop_
_atom_site_label
_atom_site_type_symbol
_atom_site_fract_x
_atom_site_fract_y
_atom_site_fract_z
Ni1 Ni 0.41614(7) -0.07145(7) 0.22140(7)
V1 V 0.18524(9) 0.28617(10) -0.07623(10)
V2 V 0.26483(9) -0.28894(9) -0.02500(10)
O1 O 0.3460(4) 0.1105(4) -0.0411(4)
O2 O 0.2546(5) 0.4672(5) -0.0035(5)
O3 O 0.1820(5) 0.3861(5) -0.3044(5)
O4 O -0.0434(4) 0.1893(5) 0.0645(4)
O5 O 0.2966(4) -0.2925(4) 0.1815(4)
O6 O 0.5653(4) 0.1576(5) 0.2148(4)
O7 O 0.4801(5) -0.2705(5) 0.4726(4)
N1 N 0.1703(5) -0.0268(5) 0.3920(5)
C1 C 0.1357(6) 0.1400(7) 0.4188(6)
H1 H 0.2277 0.2379 0.3647
C2 C 0.0338(7) -0.1666(7) 0.4749(6)
H2 H 0.0542 -0.2826 0.4602
H3 H 0.453(8) -0.259(9) 0.585(5)
H4 H 0.582(5) -0.336(8) 0.453(9)
Ni1A Ni 0.58386(7) 0.07145(7) -0.22140(7)
Ni1A_2 Ni -0.41614(7) 0.07145(7) 0.77860(7)
V1A V 0.81476(9) -0.28617(10) 0.07623(10)
V1_2 V 0.18524(9) -0.71383(10) -0.07623(10)
V1A_2 V -0.18524(9) -0.28617(10) 0.07623(10)
V2A V 0.73517(9) 0.28894(9) 0.02500(10)
V2_2 V 0.26483(9) 0.71106(9) -0.02500(10)
V2A_2 V -0.26483(9) 0.28894(9) 0.02500(10)
O1A O 0.6540(4) -0.1105(4) 0.0411(4)
O2_2 O 0.2546(5) -0.5328(5) -0.0035(5)
O2A O 0.7454(5) -0.4672(5) 0.0035(5)
O2A_2 O 0.7454(5) 0.5328(5) 0.0035(5)
O3A O 0.8180(5) -0.3861(5) 0.3044(5)
O4A O 0.0434(4) -0.1893(5) -0.0645(4)
O4A_2 O 1.0434(4) -0.1893(5) -0.0645(4)
O4_2 O 0.9566(4) 0.1893(5) 0.0645(4)
O5A O 0.7034(4) 0.2925(4) -0.1815(4)
O6A O 0.4347(4) -0.1576(5) -0.2148(4)
O7A O 0.5199(5) 0.2705(5) -0.4726(4)
N1A N -0.1703(5) 0.0268(5) 0.6080(5)
N1A_2 N 0.8297(5) 0.0268(5) -0.3920(5)
C1A C -0.1357(6) -0.1400(7) 0.5812(6)
H1A H -0.2277 -0.2379 0.6353
C2A C -0.0338(7) 0.1666(7) 0.5251(6)
H2A H -0.0542 0.2826 0.5398
H3A H 0.547(8) 0.259(9) -0.585(5)
H4A H 0.418(5) 0.336(8) -0.453(9)
loop_
_geom_bond_atom_site_label_1
_geom_bond_atom_site_label_2
_geom_bond_site_symmetry_1
_geom_bond_site_symmetry_2
Ni1 O1 1_555 1_555
V1 O1 1_555 1_555
V2 O5 1_555 1_555
O1 Ni1A 1_555 1_555
O2 V1 1_555 1_555
O3 V1 1_555 1_555
O4 V1 1_555 1_555
O5 Ni1 1_555 1_555
O6 Ni1 1_555 1_555
O7 Ni1 1_555 1_555
N1 Ni1 1_555 1_555
C1 N1 1_555 1_555
H1 C1 1_555 1_555
C2 N1 1_555 1_555
H2 C2 1_555 1_555
H3 O7 1_555 1_555
H4 O7 1_555 1_555
Ni1A O1A 1_555 1_555
Ni1A_2 N1A 1_555 1_555
V1A O1A 1_555 1_555
V1_2 O2_2 1_555 1_555
V1A_2 O4A 1_555 1_555
V2A O6 1_555 1_555
V2_2 O2 1_555 1_555
V2A_2 O4 1_555 1_555
O1A Ni1 1_555 1_555
O2_2 V2 1_555 1_555
O2A V1A 1_555 1_555
O2A_2 V2A 1_555 1_555
O3A V1A 1_555 1_555
O4A V2 1_555 1_555
O4A_2 V1A 1_555 1_555
O4_2 V2A 1_555 1_555
O5A Ni1A 1_555 1_555
O6A V2 1_555 1_555
O7A Ni1A 1_555 1_555
N1A C1A 1_555 1_555
N1A_2 Ni1A 1_555 1_555
C1A C2 1_555 1_555
H1A C1A 1_555 1_555
C2A C1 1_555 1_555
H2A C2A 1_555 1_555
H3A O7A 1_555 1_555
H4A O7A 1_555 1_555
Ni1A O6A 1_555 1_555
V2A O5A 1_555 1_555
N1A C2A 1_555 1_555

#END
