
#######################################################################
#
#                 Cambridge Crystallographic Data Centre
#                                CCDC 
#
#######################################################################
#
# If this CIF has been generated from an entry in the Cambridge 
# Structural Database, then it will include bibliographic, chemical, 
# crystal, experimental, refinement or atomic coordinate data resulting 
# from the CCDC's data processing and validation procedures.
#
#######################################################################

data_GICJOT
_symmetry_cell_setting           monoclinic
_symmetry_space_group_name_H-M   'C c'
_symmetry_Int_Tables_number      9
_space_group_name_Hall           'C -2yc'
loop_
_symmetry_equiv_pos_site_id
_symmetry_equiv_pos_as_xyz
1 x,y,z
2 x,-y,1/2+z
3 1/2+x,1/2+y,z
4 1/2+x,1/2-y,1/2+z
_cell_length_a                   10.9778(9)
_cell_length_b                   22.267(2)
_cell_length_c                   8.2714(7)
_cell_angle_alpha                90
_cell_angle_beta                 94.922(5)
_cell_angle_gamma                90
_cell_volume                     2014.43
loop_
_atom_site_label
_atom_site_type_symbol
_atom_site_fract_x
_atom_site_fract_y
_atom_site_fract_z
C1 C 0.2008(11) -0.1102(6) 0.429(2)
C2 C 0.0603(9) -0.1124(6) 0.3875(15)
C3 C -0.0078(10) -0.1656(6) 0.4242(15)
C4 C -0.0056(11) -0.0673(5) 0.3065(14)
C5 C -0.1350(11) -0.1686(6) 0.3911(15)
C6 C -0.1346(10) -0.0690(5) 0.2708(15)
C7 C -0.1987(9) -0.1196(5) 0.3187(15)
C8 C -0.3349(10) -0.1235(6) 0.2928(17)
C9 C 0.3845(13) -0.2391(7) 0.3755(16)
H1 H 0.3120 -0.2265 0.3193
C10 C 0.5035(18) -0.3143(8) 0.488(3)
H2 H 0.5060 -0.3572 0.4960
H3 H 0.5045 -0.2970 0.5941
H4 H 0.5734 -0.3004 0.4360
C11 C 0.3056(18) -0.3401(7) 0.340(2)
H5 H 0.3327 -0.3801 0.3675
H6 H 0.2903 -0.3366 0.2245
H7 H 0.2318 -0.3318 0.3904
C12 C 0.403(2) 0.0106(9) 0.391(3)
C13 C 0.3421(14) 0.1025(10) 0.458(2)
H8 H 0.3573 0.1443 0.4391
H9 H 0.3561 0.0941 0.5719
H10 H 0.2589 0.0931 0.4214
C14 C 0.4966(17) 0.1005(11) 0.277(2)
H11 H 0.4837 0.1427 0.2918
H12 H 0.4776 0.0902 0.1649
H13 H 0.5805 0.0908 0.3085
N1 N 0.3996(11) -0.2973(6) 0.3978(16)
N2 N 0.4205(11) 0.0678(5) 0.3731(15)
O1 O 0.2609(7) -0.1253(4) 0.3185(11)
O2 O 0.2328(7) -0.0935(4) 0.5706(12)
O3 O -0.3854(7) -0.1363(4) 0.1611(12)
O4 O -0.3913(8) -0.1082(4) 0.4175(12)
O5 O 0.4561(7) -0.2011(4) 0.4215(12)
O6 O 0.4328(13) -0.0325(6) 0.3489(18)
Cu1 Cu 0.43542(14) -0.11592(7) 0.3753(2)
Br1 Br 0.07742(11) -0.22766(6) 0.53261(17)
Br2 Br 0.08399(11) 0.00067(6) 0.23407(16)
Br3 Br -0.21974(13) -0.23570(7) 0.4336(2)
Br4 Br -0.21907(11) -0.00566(6) 0.15804(16)
O3_2 O 0.6146(7) -0.1363(4) 0.1611(12)
O4_2 O 0.6087(8) -0.1082(4) 0.4175(12)
Cu1_2 Cu -0.56458(14) -0.11592(7) 0.3753(2)
loop_
_geom_bond_atom_site_label_1
_geom_bond_atom_site_label_2
_geom_bond_site_symmetry_1
_geom_bond_site_symmetry_2
C1 C2 1_555 1_555
C2 C3 1_555 1_555
C3 C5 1_555 1_555
C4 C2 1_555 1_555
C5 C7 1_555 1_555
C6 C4 1_555 1_555
C7 C6 1_555 1_555
C8 C7 1_555 1_555
C9 H1 1_555 1_555
C10 H2 1_555 1_555
H3 C10 1_555 1_555
H4 C10 1_555 1_555
C11 H5 1_555 1_555
H6 C11 1_555 1_555
H7 C11 1_555 1_555
C12 N2 1_555 1_555
C13 H8 1_555 1_555
H9 C13 1_555 1_555
H10 C13 1_555 1_555
C14 H11 1_555 1_555
H12 C14 1_555 1_555
H13 C14 1_555 1_555
N1 C9 1_555 1_555
N2 C13 1_555 1_555
O1 C1 1_555 1_555
O2 C1 1_555 1_555
O3 C8 1_555 1_555
O4 C8 1_555 1_555
O5 C9 1_555 1_555
O6 C12 1_555 1_555
Cu1 O1 1_555 1_555
Br1 C3 1_555 1_555
Br2 C4 1_555 1_555
Br3 C5 1_555 1_555
Br4 C6 1_555 1_555
O3_2 Cu1 1_555 1_555
O4_2 Cu1 1_555 1_555
Cu1_2 O3 1_555 1_555
C10 N1 1_555 1_555
C11 N1 1_555 1_555
C14 N2 1_555 1_555
O4 Cu1_2 1_555 1_555
O5 Cu1 1_555 1_555
O6 Cu1 1_555 1_555

#END
