
#######################################################################
#
#                 Cambridge Crystallographic Data Centre
#                                CCDC 
#
#######################################################################
#
# If this CIF has been generated from an entry in the Cambridge 
# Structural Database, then it will include bibliographic, chemical, 
# crystal, experimental, refinement or atomic coordinate data resulting 
# from the CCDC's data processing and validation procedures.
#
#######################################################################

data_GICJEJ
_symmetry_cell_setting           orthorhombic
_symmetry_space_group_name_H-M   'I m m a'
_symmetry_Int_Tables_number      74
_space_group_name_Hall           '-I 2b 2'
loop_
_symmetry_equiv_pos_site_id
_symmetry_equiv_pos_as_xyz
1 x,y,z
2 -x,1/2-y,z
3 x,-y,-z
4 -x,1/2+y,-z
5 1/2+x,1/2+y,1/2+z
6 1/2-x,-y,1/2+z
7 1/2+x,1/2-y,1/2-z
8 1/2-x,y,1/2-z
9 -x,-y,-z
10 x,1/2+y,-z
11 -x,y,z
12 x,1/2-y,z
13 1/2-x,1/2-y,1/2-z
14 1/2+x,y,1/2-z
15 1/2-x,1/2+y,1/2+z
16 1/2+x,-y,1/2+z
_cell_length_a                   17.997(2)
_cell_length_b                   7.4079(9)
_cell_length_c                   12.458(2)
_cell_angle_alpha                90
_cell_angle_beta                 90
_cell_angle_gamma                90
_cell_volume                     1660.9
loop_
_atom_site_label
_atom_site_type_symbol
_atom_site_fract_x
_atom_site_fract_y
_atom_site_fract_z
C1 C 0.3906(6) 0.2500 0.3747(9)
C2 C 0.3169(6) 0.2500 0.3093(8)
C3 C 0.2494(6) 0.2500 0.3604(8)
C4 C 0.3174(6) 0.2500 0.1981(9)
C5 C 0.5000 0.2500 0.6951(18)
C6 C 0.376(3) 0.2500 0.743(3)
C7 C 0.5000 0.2500 0.8801(15)
N1 N 0.460(2) 0.2500 0.7722(17)
O1 O 0.4143(3) 0.4018(8) 0.3960(4)
O2 O 0.5000 0.2500 0.5971(7)
Mn1 Mn 0.5000 0.5000 0.5000
Br1 Br 0.24735(8) 0.2500 0.51260(10)
Br2 Br 0.40911(8) 0.2500 0.12921(14)
C1G C 0.1094(6) 0.2500 0.1253(9)
C2G C 0.1831(6) 0.2500 0.1907(8)
C3G C 0.2506(6) 0.2500 0.1396(8)
C4G C 0.1826(6) 0.2500 0.3019(9)
O1G O 0.0857(3) 0.4018(8) 0.1040(4)
Br1G Br 0.25265(8) 0.2500 -0.01260(10)
Br2G Br 0.09089(8) 0.2500 0.37079(14)
O1K O 0.4143(3) 0.0982(8) 0.3960(4)
O1L O 0.0857(3) 0.0982(8) 0.1040(4)
C6A C 0.624(3) 0.2500 0.743(3)
N1A N 0.540(2) 0.2500 0.7722(17)
O1B O 0.4143(3) 0.5982(8) 0.6040(4)
O1H O 0.5857(3) 0.5982(8) 0.6040(4)
O1J O 0.5857(3) 0.4018(8) 0.3960(4)
O2B O 0.5000 0.7500 0.4029(7)
Mn1A Mn 0.5000 0.0000 0.5000
Mn1D Mn 0.0000 0.0000 0.0000
Mn1E Mn 0.0000 0.5000 0.0000
loop_
_geom_bond_atom_site_label_1
_geom_bond_atom_site_label_2
_geom_bond_site_symmetry_1
_geom_bond_site_symmetry_2
C1 C2 1_555 1_555
C2 C3 1_555 1_555
C3 Br1 1_555 1_555
C4 C2 1_555 1_555
C5 N1 1_555 1_555
C6 N1 1_555 1_555
C7 N1 1_555 1_555
N1 N1A 1_555 1_555
O1 C1 1_555 1_555
O2 C5 1_555 1_555
Mn1 O1 1_555 1_555
Br2 C4 1_555 1_555
C1G C2G 1_555 1_555
C2G C3G 1_555 1_555
C3G C4 1_555 1_555
C4G C3 1_555 1_555
O1G C1G 1_555 1_555
Br1G C3G 1_555 1_555
Br2G C4G 1_555 1_555
O1K C1 1_555 1_555
O1L C1G 1_555 1_555
C6A N1A 1_555 1_555
N1A C5 1_555 1_555
O1B Mn1 1_555 1_555
O1H Mn1 1_555 1_555
O1J Mn1 1_555 1_555
O2B Mn1 1_555 1_555
Mn1A O2 1_555 1_555
Mn1D O1L 1_555 1_555
Mn1E O1G 1_555 1_555
C7 N1A 1_555 1_555
O2 Mn1 1_555 1_555
C2G C4G 1_555 1_555
O1K Mn1A 1_555 1_555

#END
