
#######################################################################
#
#                 Cambridge Crystallographic Data Centre
#                                CCDC 
#
#######################################################################
#
# If this CIF has been generated from an entry in the Cambridge 
# Structural Database, then it will include bibliographic, chemical, 
# crystal, experimental, refinement or atomic coordinate data resulting 
# from the CCDC's data processing and validation procedures.
#
#######################################################################

data_GICLOV
_symmetry_cell_setting           monoclinic
_symmetry_space_group_name_H-M   'P 21/n'
_symmetry_Int_Tables_number      14
_space_group_name_Hall           '-P 2yn'
loop_
_symmetry_equiv_pos_site_id
_symmetry_equiv_pos_as_xyz
1 x,y,z
2 1/2-x,1/2+y,1/2-z
3 -x,-y,-z
4 1/2+x,1/2-y,1/2+z
_cell_length_a                   10.788(3)
_cell_length_b                   18.229(6)
_cell_length_c                   21.761(7)
_cell_angle_alpha                90
_cell_angle_beta                 98.766(4)
_cell_angle_gamma                90
_cell_volume                     4229.41
loop_
_atom_site_label
_atom_site_type_symbol
_atom_site_fract_x
_atom_site_fract_y
_atom_site_fract_z
Co1 Co 0.78356(4) 0.11861(2) -0.03338(2)
Co2 Co 1.09436(4) 0.05714(2) -0.01828(2)
Na1 Na 0.71658(12) 0.21947(7) 0.07945(6)
C1 C 0.4383(3) 0.2405(2) 0.13562(18)
C2 C 0.3827(3) 0.3085(2) 0.12038(19)
C3 C 0.3138(4) 0.3395(2) 0.1634(2)
H1 H 0.2725 0.3838 0.1539
C4 C 0.3057(4) 0.3062(3) 0.2188(2)
H2 H 0.2581 0.3275 0.2463
C5 C 0.3671(4) 0.2419(3) 0.2343(2)
H3 H 0.3619 0.2203 0.2725
C6 C 0.4376(3) 0.2079(2) 0.19357(18)
C7 C 0.5179(4) 0.1413(2) 0.21627(18)
H4 H 0.5397 0.1148 0.1808
H5 H 0.4700 0.1085 0.2388
C8 C 0.7505(3) 0.17253(18) 0.23584(15)
C9 C 0.6379(4) 0.16453(19) 0.25869(16)
C10 C 0.6350(4) 0.1806(2) 0.32047(18)
H6 H 0.5608 0.1747 0.3368
C11 C 0.7416(4) 0.2054(2) 0.35813(18)
H7 H 0.7399 0.2142 0.4001
C12 C 0.8506(4) 0.2172(2) 0.33367(17)
H8 H 0.9204 0.2362 0.3590
C13 C 0.8580(4) 0.20112(18) 0.27152(16)
C14 C 0.9741(3) 0.2191(2) 0.24483(18)
H9 H 0.9778 0.1887 0.2086
H10 H 1.0472 0.2083 0.2753
C15 C 0.9760(3) 0.2996(2) 0.22643(17)
C16 C 1.0083(4) 0.3529(2) 0.27244(19)
H11 H 1.0352 0.3386 0.3133
C17 C 1.0005(4) 0.4264(2) 0.2573(2)
H12 H 1.0257 0.4616 0.2876
C18 C 0.9556(4) 0.4478(2) 0.1977(2)
H13 H 0.9480 0.4976 0.1886
C19 C 0.9212(3) 0.3971(2) 0.15069(18)
C20 C 0.9395(3) 0.32307(19) 0.16548(17)
C21 C 0.8582(4) 0.4223(2) 0.0865(2)
H14 H 0.9021 0.4646 0.0735
H15 H 0.8621 0.3834 0.0565
C22 C 0.6227(4) 0.39470(18) 0.06775(17)
C23 C 0.7223(4) 0.44211(19) 0.08862(18)
C24 C 0.6908(5) 0.5088(2) 0.1137(2)
H16 H 0.7532 0.5432 0.1262
C25 C 0.5706(5) 0.5243(2) 0.1203(2)
H17 H 0.5518 0.5690 0.1373
C26 C 0.4754(5) 0.4743(2) 0.1018(2)
H18 H 0.3935 0.4857 0.1068
C27 C 0.5004(4) 0.4076(2) 0.07604(18)
C28 C 0.3981(4) 0.3497(2) 0.06200(19)
H19 H 0.3195 0.3732 0.0452
H20 H 0.4201 0.3158 0.0311
C29 C 0.4500(3) 0.1388(2) 0.0671(2)
H21 H 0.4331 0.1085 0.1015
H22 H 0.5132 0.1139 0.0475
C30 C 0.3312(3) 0.1437(2) 0.02033(16)
C31 C 0.8006(4) 0.07899(19) 0.16981(16)
H23 H 0.7436 0.0453 0.1858
H24 H 0.8823 0.0743 0.1953
C32 C 0.8109(3) 0.05867(17) 0.10241(15)
C33 C 1.0319(3) 0.2451(2) 0.09945(18)
H25 H 1.0873 0.2261 0.1352
H26 H 1.0741 0.2854 0.0821
C34 C 1.0010(3) 0.18532(19) 0.05122(16)
C35 C 0.6337(5) 0.3382(2) -0.02805(18)
H27 H 0.6879 0.3770 -0.0389
H28 H 0.5476 0.3523 -0.0427
C36 C 0.6631(3) 0.2676(2) -0.05984(18)
O1 O 0.5016(2) 0.20703(12) 0.09184(11)
O2 O 0.7558(2) 0.15281(12) 0.17385(10)
O3 O 0.8231(2) 0.15487(15) -0.12093(11)
H29 H 0.7805 0.1948 -0.1293
H30 H 0.8320 0.1407 -0.1498
O4 O 0.9171(2) 0.27069(13) 0.11816(11)
O5 O 0.6421(2) 0.04774(14) -0.07184(13)
H31 H 0.6572 0.0004 -0.0518
H32 H 0.6161 0.0561 -0.0389
O6 O 0.6511(2) 0.32952(12) 0.03778(11)
O7 O 1.0876(2) 0.15018(14) -0.08123(11)
H33 H 1.0982 0.1385 -0.1179
H34 H 1.1470 0.1781 -0.0568
O8 O 0.2869(3) 0.20210(14) -0.00082(13)
O9 O 0.2859(2) 0.07947(13) 0.00587(12)
O10 O 0.8752(2) 0.00296(13) 0.09711(10)
O11 O 0.7544(2) 0.09747(13) 0.06000(10)
O12 O 1.0706(2) 0.12993(13) 0.05524(11)
O13 O 0.9089(2) 0.19655(14) 0.01004(11)
O14 O 0.6851(3) 0.27387(15) -0.11359(13)
O15 O 0.6604(2) 0.20860(13) -0.03047(11)
O16 O 0.9046(2) 0.03372(12) -0.03907(10)
H35 H 0.902(4) 0.030(2) -0.0765(9)
Co2_2 Co 0.09436(4) 0.05714(2) -0.01828(2)
Co2B Co 0.90564(4) -0.05714(2) 0.01828(2)
O9_2 O 1.2859(2) 0.07947(13) 0.00587(12)
O10B O 1.1248(2) -0.00296(13) -0.09711(10)
O16B O 1.0954(2) -0.03372(12) 0.03907(10)
O17 O 0.8834(10) 0.0329(6) -0.1849(5)
O20 O 0.7990(11) 0.4051(5) -0.1534(5)
O21 O 0.6452(6) 0.3784(4) 0.2498(3)
O23 O 0.3935(3) 0.0629(2) -0.10638(18)
H36 H 0.344(5) 0.066(3) -0.078(2)
H37 H 0.432(2) 0.1035(13) -0.110(2)
O18? O 0.8254(14) -0.0295(10) -0.2120(8)
O19? O 0.794(2) -0.0703(14) -0.1730(14)
O22? O 0.6789(7) 0.3919(4) 0.3083(3)
loop_
_geom_bond_atom_site_label_1
_geom_bond_atom_site_label_2
_geom_bond_site_symmetry_1
_geom_bond_site_symmetry_2
Co1 O3 1_555 1_555
Co2 O7 1_555 1_555
Na1 O1 1_555 1_555
C1 C2 1_555 1_555
C2 C3 1_555 1_555
C3 H1 1_555 1_555
C4 C3 1_555 1_555
H2 C4 1_555 1_555
C5 C4 1_555 1_555
H3 C5 1_555 1_555
C6 C1 1_555 1_555
C7 C6 1_555 1_555
H4 C7 1_555 1_555
H5 C7 1_555 1_555
C8 C9 1_555 1_555
C9 C7 1_555 1_555
C10 C9 1_555 1_555
H6 C10 1_555 1_555
C11 C10 1_555 1_555
H7 C11 1_555 1_555
C12 C11 1_555 1_555
H8 C12 1_555 1_555
C13 C8 1_555 1_555
C14 C13 1_555 1_555
H9 C14 1_555 1_555
H10 C14 1_555 1_555
C15 C14 1_555 1_555
C16 C15 1_555 1_555
H11 C16 1_555 1_555
C17 C16 1_555 1_555
H12 C17 1_555 1_555
C18 C17 1_555 1_555
H13 C18 1_555 1_555
C19 C18 1_555 1_555
C20 C15 1_555 1_555
C21 C19 1_555 1_555
H14 C21 1_555 1_555
H15 C21 1_555 1_555
C22 C23 1_555 1_555
C23 C21 1_555 1_555
C24 C23 1_555 1_555
H16 C24 1_555 1_555
C25 C24 1_555 1_555
H17 C25 1_555 1_555
C26 C25 1_555 1_555
H18 C26 1_555 1_555
C27 C22 1_555 1_555
C28 C2 1_555 1_555
H19 C28 1_555 1_555
H20 C28 1_555 1_555
C29 H21 1_555 1_555
H22 C29 1_555 1_555
C30 C29 1_555 1_555
C31 H23 1_555 1_555
H24 C31 1_555 1_555
C32 C31 1_555 1_555
C33 H25 1_555 1_555
H26 C33 1_555 1_555
C34 C33 1_555 1_555
C35 H27 1_555 1_555
H28 C35 1_555 1_555
C36 C35 1_555 1_555
O1 C1 1_555 1_555
O2 Na1 1_555 1_555
O3 H29 1_555 1_555
H30 O3 1_555 1_555
O4 Na1 1_555 1_555
O5 Co1 1_555 1_555
H31 O5 1_555 1_555
H32 O5 1_555 1_555
O6 Na1 1_555 1_555
O7 H33 1_555 1_555
H34 O7 1_555 1_555
O8 C30 1_555 1_555
O9 C30 1_555 1_555
O10 C32 1_555 1_555
O11 Co1 1_555 1_555
O12 Co2 1_555 1_555
O13 Co1 1_555 1_555
O14 C36 1_555 1_555
O15 Co1 1_555 1_555
O16 Co1 1_555 1_555
H35 O16 1_555 1_555
O23 H36 1_555 1_555
H37 O23 1_555 1_555
Co2_2 O9 1_555 1_555
Co2B Co2 1_555 1_555
O9_2 Co2 1_555 1_555
O10B Co2 1_555 1_555
O16B Co2 1_555 1_555
Co2 O16 1_555 1_555
Na1 O11 1_555 1_555
Na1 O13 1_555 1_555
Na1 O15 1_555 1_555
C5 C6 1_555 1_555
C8 O2 1_555 1_555
C12 C13 1_555 1_555
C19 C20 1_555 1_555
C20 O4 1_555 1_555
C22 O6 1_555 1_555
C26 C27 1_555 1_555
C27 C28 1_555 1_555
C29 O1 1_555 1_555
C31 O2 1_555 1_555
C32 O11 1_555 1_555
C33 O4 1_555 1_555
C34 O12 1_555 1_555
C34 O13 1_555 1_555
C35 O6 1_555 1_555
C36 O15 1_555 1_555
O10 Co2B 1_555 1_555
O16 Co2B 1_555 1_555
Co2B O16B 1_555 1_555

#END
