
#######################################################################
#
#                 Cambridge Crystallographic Data Centre
#                                CCDC 
#
#######################################################################
#
# If this CIF has been generated from an entry in the Cambridge 
# Structural Database, then it will include bibliographic, chemical, 
# crystal, experimental, refinement or atomic coordinate data resulting 
# from the CCDC's data processing and validation procedures.
#
#######################################################################

data_GICPOZ
_symmetry_cell_setting           monoclinic
_symmetry_space_group_name_H-M   'P 21/c'
_symmetry_Int_Tables_number      14
_space_group_name_Hall           '-P 2ybc'
loop_
_symmetry_equiv_pos_site_id
_symmetry_equiv_pos_as_xyz
1 x,y,z
2 -x,1/2+y,1/2-z
3 -x,-y,-z
4 x,1/2-y,1/2+z
_cell_length_a                   13.403(12)
_cell_length_b                   11.317(9)
_cell_length_c                   15.134(13)
_cell_angle_alpha                90
_cell_angle_beta                 107.586(18)
_cell_angle_gamma                90
_cell_volume                     2188.27
loop_
_atom_site_label
_atom_site_type_symbol
_atom_site_fract_x
_atom_site_fract_y
_atom_site_fract_z
Ni1 Ni 0.39392(6) 0.94021(7) 0.56541(6)
O1 O 0.3601(3) 0.9302(4) 0.6940(3)
O2 O 0.2327(3) 0.9283(4) 0.5614(3)
O3 O 0.4502(3) 0.4352(4) 0.8708(3)
O4 O 0.3540(3) 0.5618(4) 0.9256(3)
N1 N 0.3862(4) 1.1248(4) 0.5681(4)
N2 N 0.3996(4) 1.7542(4) 0.5600(4)
C1 C 0.1430(5) 0.7823(5) 0.7033(5)
C2 C 0.2325(5) 0.6933(5) 0.7372(5)
H1 H 0.2771 0.7173 0.7978
H2 H 0.2745 0.6935 0.6950
C3 C 0.1918(5) 0.5665(6) 0.7436(5)
C4 C 0.1212(5) 0.5316(6) 0.6461(6)
H3 H 0.0934 0.4530 0.6486
H4 H 0.1629 0.5294 0.6037
C5 C 0.0298(5) 0.6191(6) 0.6093(6)
H5 H -0.0142 0.5955 0.5475
C6 C -0.0348(5) 0.6210(7) 0.6792(6)
H6 H -0.0915 0.6775 0.6586
H7 H -0.0651 0.5436 0.6812
C7 C 0.0326(5) 0.6539(6) 0.7737(6)
H8 H -0.0094 0.6540 0.8166
C8 C 0.0771(5) 0.7777(6) 0.7699(5)
H9 H 0.0199 0.8337 0.7498
H10 H 0.1199 0.8005 0.8314
C9 C 0.1234(4) 0.5671(6) 0.8082(5)
H11 H 0.0961 0.4884 0.8112
H12 H 0.1654 0.5894 0.8702
C10 C 0.0748(5) 0.7438(6) 0.6067(5)
H13 H 0.0178 0.7995 0.5840
H14 H 0.1164 0.7445 0.5642
C11 C 0.1857(5) 0.9095(5) 0.7036(5)
H15 H 0.1271 0.9623 0.6779
H16 H 0.2190 0.9333 0.7673
C12 C 0.2634(5) 0.9250(5) 0.6497(5)
C13 C 0.2816(5) 0.4777(6) 0.7743(5)
H17 H 0.2508 0.4008 0.7770
H18 H 0.3145 0.4738 0.7254
C14 C 0.3681(5) 0.4948(6) 0.8648(5)
C15 C 0.3162(5) 1.1867(6) 0.5051(5)
H19 H 0.2636 1.1458 0.4615
C16 C 0.3162(5) 1.3090(6) 0.4998(5)
H20 H 0.2654 1.3472 0.4528
C17 C 0.3908(5) 1.3743(5) 0.5638(5)
C18 C 0.4623(5) 1.3092(6) 0.6315(5)
H21 H 0.5144 1.3476 0.6774
C19 C 0.4564(5) 1.1887(6) 0.6311(5)
H22 H 0.5050 1.1482 0.6784
C20 C 0.3946(5) 1.5050(5) 0.5606(5)
C21 C 0.3177(5) 1.5726(6) 0.4992(5)
H23 H 0.2619 1.5356 0.4561
C22 C 0.3236(5) 1.6937(5) 0.5019(5)
H24 H 0.2704 1.7359 0.4600
C23 C 0.4753(5) 1.5678(6) 0.6224(5)
H25 H 0.5292 1.5276 0.6652
C24 C 0.4753(5) 1.6908(5) 0.6201(5)
H26 H 0.5300 1.7309 0.6619
Ni1_2 Ni 0.39392(6) 1.94021(7) 0.56541(6)
Ni1A Ni 0.60608(6) 0.44021(7) 0.93459(6)
Ni1C Ni 0.39392(6) 0.55979(7) 1.06541(6)
O3A O 0.5498(3) 0.9352(4) 0.6292(3)
O4C O 0.3540(3) 0.9382(4) 0.4256(3)
N2_2 N 0.3996(4) 0.7542(4) 0.5600(4)
loop_
_geom_bond_atom_site_label_1
_geom_bond_atom_site_label_2
_geom_bond_site_symmetry_1
_geom_bond_site_symmetry_2
Ni1 O1 1_555 1_555
O1 C12 1_555 1_555
O2 Ni1 1_555 1_555
O3 C14 1_555 1_555
O4 C14 1_555 1_555
N1 Ni1 1_555 1_555
N2 C22 1_555 1_555
C1 C2 1_555 1_555
C2 H1 1_555 1_555
H2 C2 1_555 1_555
C3 C2 1_555 1_555
C4 C3 1_555 1_555
H3 C4 1_555 1_555
H4 C4 1_555 1_555
C5 C4 1_555 1_555
H5 C5 1_555 1_555
C6 C5 1_555 1_555
H6 C6 1_555 1_555
H7 C6 1_555 1_555
C7 C6 1_555 1_555
H8 C7 1_555 1_555
C8 C1 1_555 1_555
H9 C8 1_555 1_555
H10 C8 1_555 1_555
C9 C3 1_555 1_555
H11 C9 1_555 1_555
H12 C9 1_555 1_555
C10 C1 1_555 1_555
H13 C10 1_555 1_555
H14 C10 1_555 1_555
C11 C1 1_555 1_555
H15 C11 1_555 1_555
H16 C11 1_555 1_555
C12 O2 1_555 1_555
C13 C3 1_555 1_555
H17 C13 1_555 1_555
H18 C13 1_555 1_555
C14 C13 1_555 1_555
C15 N1 1_555 1_555
H19 C15 1_555 1_555
C16 C15 1_555 1_555
H20 C16 1_555 1_555
C17 C16 1_555 1_555
C18 C17 1_555 1_555
H21 C18 1_555 1_555
C19 N1 1_555 1_555
H22 C19 1_555 1_555
C20 C17 1_555 1_555
C21 C20 1_555 1_555
H23 C21 1_555 1_555
C22 C21 1_555 1_555
H24 C22 1_555 1_555
C23 C20 1_555 1_555
H25 C23 1_555 1_555
C24 N2 1_555 1_555
H26 C24 1_555 1_555
Ni1_2 N2 1_555 1_555
Ni1A O3 1_555 1_555
Ni1C O4 1_555 1_555
O3A Ni1 1_555 1_555
O4C Ni1 1_555 1_555
N2_2 Ni1 1_555 1_555
C5 C10 1_555 1_555
C7 C8 1_555 1_555
C7 C9 1_555 1_555
C11 C12 1_555 1_555
C18 C19 1_555 1_555
C23 C24 1_555 1_555

#END
