
#######################################################################
#
#                 Cambridge Crystallographic Data Centre
#                                CCDC 
#
#######################################################################
#
# If this CIF has been generated from an entry in the Cambridge 
# Structural Database, then it will include bibliographic, chemical, 
# crystal, experimental, refinement or atomic coordinate data resulting 
# from the CCDC's data processing and validation procedures.
#
#######################################################################

data_GICVIZ
_symmetry_cell_setting           monoclinic
_symmetry_space_group_name_H-M   'C 2/c'
_symmetry_Int_Tables_number      15
_space_group_name_Hall           '-C 2yn'
loop_
_symmetry_equiv_pos_site_id
_symmetry_equiv_pos_as_xyz
1 x,y,z
2 -x,y,1/2-z
3 1/2+x,1/2+y,z
4 1/2-x,1/2+y,1/2-z
5 -x,-y,-z
6 x,-y,1/2+z
7 1/2-x,1/2-y,-z
8 1/2+x,1/2-y,1/2+z
_cell_length_a                   23.9984(9)
_cell_length_b                   10.1797(3)
_cell_length_c                   19.7270(5)
_cell_angle_alpha                90
_cell_angle_beta                 91.218(3)
_cell_angle_gamma                90
_cell_volume                     4818.15
loop_
_atom_site_label
_atom_site_type_symbol
_atom_site_fract_x
_atom_site_fract_y
_atom_site_fract_z
Cd1 Cd 0.04641(2) 0.65516(4) 0.044720(17)
O1 O 0.1685(2) 0.6523(4) 0.1011(2)
O2 O 0.06236(19) 0.3483(4) 0.2780(2)
O3 O 0.2606(2) 0.0294(5) 0.0605(3)
O4 O 0.48288(18) -0.0020(3) 0.07948(17)
O5 O 0.32226(19) 0.3940(4) 0.2307(2)
N1 N 0.0897(3) 0.5621(4) 0.1396(2)
N2 N 0.06501(19) 0.4792(4) 0.1863(2)
H1 H 0.0294 0.4704 0.1826
N3 N 0.3445(2) -0.0555(5) 0.0327(3)
H2 H 0.3275 -0.1075 0.0048
N4 N 0.4015(2) -0.0665(4) 0.0354(2)
N5 N -0.0337(2) 0.7662(4) 0.0058(2)
N6 N 0.0453(3) 0.8640(4) 0.0925(2)
C1 C 0.2640(2) 0.4019(5) 0.2314(3)
C2 C 0.2382(3) 0.3339(6) 0.2813(3)
H3 H 0.2590 0.2854 0.3129
C3 C 0.1812(3) 0.3381(6) 0.2842(3)
H4 H 0.1626 0.2907 0.3171
C4 C 0.1508(2) 0.4159(5) 0.2364(2)
C5 C 0.1775(2) 0.4901(5) 0.1896(2)
C6 C 0.2366(3) 0.4841(5) 0.1866(3)
H5 H 0.2560 0.5341 0.1555
C7 C 0.1448(3) 0.5734(5) 0.1413(2)
C8 C 0.0905(3) 0.4113(5) 0.2365(2)
C9 C 0.4022(3) 0.2747(5) 0.2040(3)
H6 H 0.4219 0.3291 0.2337
C10 C 0.3448(3) 0.2896(6) 0.1957(3)
C11 C 0.3148(3) 0.2081(6) 0.1533(3)
H7 H 0.2763 0.2161 0.1491
C12 C 0.3434(3) 0.1118(5) 0.1163(2)
C13 C 0.4001(2) 0.0990(5) 0.1225(2)
C14 C 0.4298(2) 0.1795(5) 0.1682(2)
H8 H 0.4680 0.1687 0.1743
C15 C 0.3113(3) 0.0265(6) 0.0682(3)
C16 C 0.4302(3) 0.0063(5) 0.0790(2)
C17 C -0.0727(3) 0.7174(6) -0.0357(3)
H9 H -0.0644 0.6431 -0.0610
C18 C -0.1250(3) 0.7724(6) -0.0429(3)
H10 H -0.1515 0.7330 -0.0714
C19 C -0.1380(4) 0.8836(7) -0.0088(4)
H11 H -0.1732 0.9211 -0.0136
C20 C -0.0973(3) 0.9406(6) 0.0339(3)
C21 C -0.1062(4) 1.0621(7) 0.0715(5)
H12 H -0.1400 1.1062 0.0674
C22 C -0.0654(4) 1.1100(7) 0.1121(4)
H13 H -0.0715 1.1883 0.1351
C23 C -0.0141(4) 1.0470(5) 0.1211(3)
C24 C 0.0280(4) 1.0962(6) 0.1630(4)
H14 H 0.0224 1.1736 0.1869
C25 C 0.0766(4) 1.0326(7) 0.1691(3)
H15 H 0.1047 1.0658 0.1974
C26 C 0.0855(4) 0.9137(6) 0.1324(3)
H16 H 0.1196 0.8707 0.1363
C27 C -0.0458(3) 0.8769(5) 0.0407(3)
C28 C -0.0034(3) 0.9287(5) 0.0850(3)
Cd1B Cd 0.54641(2) 0.15516(4) 0.044720(17)
Cd1F Cd 0.45359(2) -0.15516(4) -0.044720(17)
O4B O -0.01712(18) 0.4980(3) 0.07948(17)
N4F N 0.0985(2) 0.5665(4) -0.0354(2)
O6 O 0.2785(8) 0.677(2) 0.0349(11)
loop_
_geom_bond_atom_site_label_1
_geom_bond_atom_site_label_2
_geom_bond_site_symmetry_1
_geom_bond_site_symmetry_2
Cd1 N1 1_555 1_555
O1 C7 1_555 1_555
O2 C8 1_555 1_555
O3 C15 1_555 1_555
O4 C16 1_555 1_555
O5 C1 1_555 1_555
N1 N2 1_555 1_555
N2 H1 1_555 1_555
N3 H2 1_555 1_555
N4 N3 1_555 1_555
N5 Cd1 1_555 1_555
N6 Cd1 1_555 1_555
C1 C2 1_555 1_555
C2 H3 1_555 1_555
C3 C2 1_555 1_555
H4 C3 1_555 1_555
C4 C3 1_555 1_555
C5 C4 1_555 1_555
C6 C1 1_555 1_555
H5 C6 1_555 1_555
C7 N1 1_555 1_555
C8 N2 1_555 1_555
C9 H6 1_555 1_555
C10 O5 1_555 1_555
C11 C10 1_555 1_555
H7 C11 1_555 1_555
C12 C11 1_555 1_555
C13 C12 1_555 1_555
C14 C9 1_555 1_555
H8 C14 1_555 1_555
C15 N3 1_555 1_555
C16 N4 1_555 1_555
C17 N5 1_555 1_555
H9 C17 1_555 1_555
C18 C17 1_555 1_555
H10 C18 1_555 1_555
C19 C18 1_555 1_555
H11 C19 1_555 1_555
C20 C19 1_555 1_555
C21 C20 1_555 1_555
H12 C21 1_555 1_555
C22 C21 1_555 1_555
H13 C22 1_555 1_555
C23 C22 1_555 1_555
C24 C23 1_555 1_555
H14 C24 1_555 1_555
C25 C24 1_555 1_555
H15 C25 1_555 1_555
C26 N6 1_555 1_555
H16 C26 1_555 1_555
C27 N5 1_555 1_555
C28 N6 1_555 1_555
Cd1B O4 1_555 1_555
Cd1F N4 1_555 1_555
O4B Cd1 1_555 1_555
N4F Cd1 1_555 1_555
C4 C8 1_555 1_555
C5 C6 1_555 1_555
C5 C7 1_555 1_555
C9 C10 1_555 1_555
C12 C15 1_555 1_555
C13 C14 1_555 1_555
C13 C16 1_555 1_555
C20 C27 1_555 1_555
C23 C28 1_555 1_555
C25 C26 1_555 1_555
C27 C28 1_555 1_555

#END
