
#######################################################################
#
#                 Cambridge Crystallographic Data Centre
#                                CCDC 
#
#######################################################################
#
# If this CIF has been generated from an entry in the Cambridge 
# Structural Database, then it will include bibliographic, chemical, 
# crystal, experimental, refinement or atomic coordinate data resulting 
# from the CCDC's data processing and validation procedures.
#
#######################################################################

data_GICZUP
_symmetry_cell_setting           monoclinic
_symmetry_space_group_name_H-M   'P 21/n'
_symmetry_Int_Tables_number      14
_space_group_name_Hall           '-P 2yn'
loop_
_symmetry_equiv_pos_site_id
_symmetry_equiv_pos_as_xyz
1 x,y,z
2 1/2-x,1/2+y,1/2-z
3 -x,-y,-z
4 1/2+x,1/2-y,1/2+z
_cell_length_a                   9.8844(9)
_cell_length_b                   9.4260(8)
_cell_length_c                   18.7400(17)
_cell_angle_alpha                90
_cell_angle_beta                 105.025(2)
_cell_angle_gamma                90
_cell_volume                     1686.32
loop_
_atom_site_label
_atom_site_type_symbol
_atom_site_fract_x
_atom_site_fract_y
_atom_site_fract_z
Cu1 Cu 0.67073(5) 0.13775(5) 0.81313(3)
N1 N 0.7240(3) -0.0478(3) 0.85588(17)
N2 N 0.4783(3) 0.0402(3) 0.76394(17)
N3 N 0.5940(4) 0.3234(3) 0.7774(2)
N4 N 0.6592(3) 0.4315(4) 0.78536(18)
N5 N 0.7183(4) 0.5384(4) 0.7909(2)
O1 O 0.8423(2) 0.2210(2) 0.86896(14)
O2 O 1.3533(3) -0.0328(3) 0.98930(17)
O3 O 0.1825(3) 0.0839(3) 0.69089(16)
C1 C 0.9714(4) 0.0011(4) 0.90230(19)
C2 C 0.9597(4) 0.1503(4) 0.8962(2)
C3 C 1.0840(4) 0.2285(4) 0.9241(2)
H1 H 1.0798 0.3270 0.9221
C4 C 1.2094(4) 0.1656(4) 0.9535(2)
H2 H 1.2886 0.2214 0.9711
C5 C 1.2211(4) 0.0173(4) 0.9578(2)
C6 C 1.1023(4) -0.0625(4) 0.9329(2)
H3 H 1.1084 -0.1608 0.9363
C7 C 1.3711(4) -0.1811(4) 0.9949(3)
H4 H 1.3090 -0.2200 1.0216
H5 H 1.4662 -0.2026 1.0205
H6 H 1.3501 -0.2217 0.9463
C8 C 0.8503(4) -0.0900(4) 0.8840(2)
H7 H 0.8645 -0.1865 0.8933
C9 C 0.6078(4) -0.1479(4) 0.8447(2)
H8 H 0.5604 -0.1378 0.8838
H9 H 0.6422 -0.2444 0.8455
C10 C 0.5077(4) -0.1158(4) 0.7706(2)
H10 H 0.5484 -0.1463 0.7313
H11 H 0.4209 -0.1674 0.7659
C11 C 0.4244(4) 0.0811(4) 0.6853(2)
H12 H 0.4862 0.0431 0.6573
H13 H 0.4255 0.1837 0.6813
C12 C 0.2771(4) 0.0280(4) 0.6517(2)
H14 H 0.2471 0.0567 0.6003
H15 H 0.2760 -0.0748 0.6535
C13 C 0.2244(4) 0.0384(4) 0.7656(2)
H16 H 0.2190 -0.0643 0.7673
H17 H 0.1605 0.0769 0.7921
C14 C 0.3723(4) 0.0852(4) 0.8033(2)
H18 H 0.3740 0.1878 0.8073
H19 H 0.3984 0.0466 0.8529
Cu1A Cu 0.82927(5) 0.63775(5) 0.68687(3)
N5A N 0.7817(4) 0.0384(4) 0.7091(2)
O4 O 0.9235(3) 0.0371(4) 0.5523(2)
H20 H 0.976(4) 0.028(6) 0.5953(10)
H21 H 0.970(4) 0.046(5) 0.5213(17)
O5 O 0.8601(3) 0.4492(4) 0.9737(2)
H22 H 0.860(4) 0.390(4) 0.9397(19)
H23 H 0.780(2) 0.488(5) 0.965(2)
loop_
_geom_bond_atom_site_label_1
_geom_bond_atom_site_label_2
_geom_bond_site_symmetry_1
_geom_bond_site_symmetry_2
Cu1 N1 1_555 1_555
N1 C8 1_555 1_555
N2 Cu1 1_555 1_555
N3 Cu1 1_555 1_555
N4 N3 1_555 1_555
N5 N4 1_555 1_555
O1 Cu1 1_555 1_555
O2 C5 1_555 1_555
O3 C12 1_555 1_555
C1 C2 1_555 1_555
C2 O1 1_555 1_555
C3 C2 1_555 1_555
H1 C3 1_555 1_555
C4 C3 1_555 1_555
H2 C4 1_555 1_555
C5 C4 1_555 1_555
C6 C1 1_555 1_555
H3 C6 1_555 1_555
C7 O2 1_555 1_555
H4 C7 1_555 1_555
H5 C7 1_555 1_555
H6 C7 1_555 1_555
C8 C1 1_555 1_555
H7 C8 1_555 1_555
C9 N1 1_555 1_555
H8 C9 1_555 1_555
H9 C9 1_555 1_555
C10 N2 1_555 1_555
H10 C10 1_555 1_555
H11 C10 1_555 1_555
C11 N2 1_555 1_555
H12 C11 1_555 1_555
H13 C11 1_555 1_555
C12 C11 1_555 1_555
H14 C12 1_555 1_555
H15 C12 1_555 1_555
C13 O3 1_555 1_555
H16 C13 1_555 1_555
H17 C13 1_555 1_555
C14 N2 1_555 1_555
H18 C14 1_555 1_555
H19 C14 1_555 1_555
O4 H20 1_555 1_555
H21 O4 1_555 1_555
O5 H22 1_555 1_555
H23 O5 1_555 1_555
Cu1A N5 1_555 1_555
N5A Cu1 1_555 1_555
C5 C6 1_555 1_555
C9 C10 1_555 1_555
C13 C14 1_555 1_555

#END
