
#######################################################################
#
#                 Cambridge Crystallographic Data Centre
#                                CCDC 
#
#######################################################################
#
# If this CIF has been generated from an entry in the Cambridge 
# Structural Database, then it will include bibliographic, chemical, 
# crystal, experimental, refinement or atomic coordinate data resulting 
# from the CCDC's data processing and validation procedures.
#
#######################################################################

data_GICZOI
_symmetry_cell_setting           triclinic
_symmetry_space_group_name_H-M   'P -1'
_symmetry_Int_Tables_number      2
_space_group_name_Hall           '-P 1'
loop_
_symmetry_equiv_pos_site_id
_symmetry_equiv_pos_as_xyz
1 x,y,z
2 -x,-y,-z
_cell_length_a                   7.4932(6)
_cell_length_b                   9.5195(6)
_cell_length_c                   9.9156(6)
_cell_angle_alpha                83.631(5)
_cell_angle_beta                 79.577(3)
_cell_angle_gamma                82.453(5)
_cell_volume                     686.836
loop_
_atom_site_label
_atom_site_type_symbol
_atom_site_fract_x
_atom_site_fract_y
_atom_site_fract_z
C1 C 0.3758(4) 0.1717(3) -0.0608(3)
C2 C 0.2579(4) 0.0698(3) -0.0043(3)
H1 H 0.2021 0.0702 0.0874
C3 C 0.2239(4) -0.0300(3) -0.0821(3)
H2 H 0.1458 -0.0975 -0.0437
C4 C 0.3069(4) -0.0300(3) -0.2188(3)
C5 C 0.4247(5) 0.0686(3) -0.2774(3)
H3 H 0.4798 0.0675 -0.3692
C6 C 0.4593(5) 0.1680(4) -0.1984(3)
H4 H 0.5396 0.234 -0.237
C7 C 0.2857(4) 0.3578(3) 0.3442(3)
C8 C 0.3072(4) 0.4629(3) 0.4255(3)
H5 H 0.3792 0.5345 0.3872
C9 C 0.2245(4) 0.4631(3) 0.5605(3)
H6 H 0.2407 0.5335 0.6136
C10 C 0.1169(4) 0.3572(3) 0.6165(3)
C11 C 0.0928(4) 0.2510(4) 0.5393(3)
H7 H 0.0195 0.1805 0.5785
C12 C 0.1764(4) 0.2501(3) 0.4058(3)
H8 H 0.1616 0.1778 0.3544
N1 N 0.2672(4) -0.1355(3) -0.3008(3)
N2 N 0.0254(4) 0.3582(3) 0.7567(3)
N3 N 0.4167(3) 0.2796(3) 0.0098(2)
N4 N 0.3374(3) 0.2679(3) 0.1393(3)
N5 N 0.3720(4) 0.3699(3) 0.2071(3)
O1 O 0.1825(4) -0.2335(3) -0.2429(2)
O2 O 0.3199(5) -0.1256(3) -0.4248(3)
O3 O 0.0573(3) 0.4458(3) 0.8296(2)
O4 O -0.0857(3) 0.2730(3) 0.8012(2)
K1 K 0.27562(9) 0.57437(8) -0.03348(7)
C1A C 0.6242(4) 0.8283(3) 0.0608(3)
C2A C 0.7421(4) 0.9302(3) 0.0043(3)
H1A H 0.7979 0.9298 -0.0874
C3A C 0.7761(4) 1.0300(3) 0.0821(3)
H2A H 0.8542 1.0975 0.0437
C4A C 0.6931(4) 1.0300(3) 0.2188(3)
C5A C 0.5753(5) 0.9314(3) 0.2774(3)
H3A H 0.5202 0.9325 0.3692
C6A C 0.5407(5) 0.8320(4) 0.1984(3)
H4A H 0.4604 0.766 0.237
C7A C 0.7143(4) 0.6422(3) -0.3442(3)
C8A C 0.6928(4) 0.5371(3) -0.4255(3)
H5A H 0.6208 0.4655 -0.3872
C9A C 0.7755(4) 0.5369(3) -0.5605(3)
H6A H 0.7593 0.4665 -0.6136
C10A C 0.8831(4) 0.6428(3) -0.6165(3)
C11A C 0.9072(4) 0.7490(4) -0.5393(3)
H7A H 0.9805 0.8195 -0.5785
C12A C 0.8236(4) 0.7499(3) -0.4058(3)
H8A H 0.8384 0.8222 -0.3544
N1A N 0.7328(4) 1.1355(3) 0.3008(3)
N2A N 0.9746(4) 0.6418(3) -0.7567(3)
N3A N 0.5833(3) 0.7204(3) -0.0098(2)
N4A N 0.6626(3) 0.7321(3) -0.1393(3)
N5A N 0.6280(4) 0.6301(3) -0.2071(3)
O1_2 O 0.1825(4) 0.7665(3) -0.2429(2)
O1A O 0.8175(4) 1.2335(3) 0.2429(2)
O1A_2 O 0.8175(4) 0.2335(3) 0.2429(2)
O2A O 0.6801(5) 1.1256(3) 0.4248(3)
O3_2 O 0.0573(3) 0.4458(3) -0.1704(2)
O3A O -0.0573(3) 0.5542(3) 0.1704(2)
O3A_2 O 0.9427(3) 0.5542(3) -0.8296(2)
O3_3 O 1.0573(3) 0.4458(3) -0.1704(2)
O3A_3 O 0.9427(3) 0.5542(3) 0.1704(2)
O4A O 0.0857(3) 0.7270(3) 0.1988(2)
O4A_2 O 1.0857(3) 0.7270(3) -0.8012(2)
O4_2 O 0.9143(3) 0.2730(3) -0.1988(2)
K1A K 0.72438(9) 0.42563(8) 0.03348(7)
K1_2 K 0.27562(9) -0.42563(8) -0.03348(7)
K1_3 K 0.27562(9) 0.57437(8) 0.96652(7)
K1A_2 K -0.27562(9) 0.42563(8) 1.03348(7)
K1_4 K 1.27562(9) 0.57437(8) -1.03348(7)
K1A_3 K 0.72438(9) 0.42563(8) -0.96652(7)
K1A_4 K 0.72438(9) 1.42563(8) 0.03348(7)
loop_
_geom_bond_atom_site_label_1
_geom_bond_atom_site_label_2
_geom_bond_site_symmetry_1
_geom_bond_site_symmetry_2
C1 C2 1_555 1_555
C2 H1 1_555 1_555
C3 C2 1_555 1_555
H2 C3 1_555 1_555
C4 C3 1_555 1_555
C5 C4 1_555 1_555
H3 C5 1_555 1_555
C6 C1 1_555 1_555
H4 C6 1_555 1_555
C7 C8 1_555 1_555
C8 H5 1_555 1_555
C9 C8 1_555 1_555
H6 C9 1_555 1_555
C10 C9 1_555 1_555
C11 C10 1_555 1_555
H7 C11 1_555 1_555
C12 C7 1_555 1_555
H8 C12 1_555 1_555
N1 C4 1_555 1_555
N2 C10 1_555 1_555
N3 C1 1_555 1_555
N4 N3 1_555 1_555
N5 C7 1_555 1_555
O1 N1 1_555 1_555
O2 N1 1_555 1_555
O3 N2 1_555 1_555
O4 N2 1_555 1_555
K1 N3 1_555 1_555
C1A C2A 1_555 1_555
C2A H1A 1_555 1_555
C3A C2A 1_555 1_555
H2A C3A 1_555 1_555
C4A C3A 1_555 1_555
C5A C4A 1_555 1_555
H3A C5A 1_555 1_555
C6A C1A 1_555 1_555
H4A C6A 1_555 1_555
C7A C8A 1_555 1_555
C8A H5A 1_555 1_555
C9A C8A 1_555 1_555
H6A C9A 1_555 1_555
C10A C9A 1_555 1_555
C11A C10A 1_555 1_555
H7A C11A 1_555 1_555
C12A C7A 1_555 1_555
H8A C12A 1_555 1_555
N1A C4A 1_555 1_555
N2A C10A 1_555 1_555
N3A K1 1_555 1_555
N4A N3A 1_555 1_555
N5A K1 1_555 1_555
O1_2 K1 1_555 1_555
O1A N1A 1_555 1_555
O1A_2 K1A 1_555 1_555
O2A N1A 1_555 1_555
O3_2 K1 1_555 1_555
O3A K1 1_555 1_555
O3A_2 N2A 1_555 1_555
O3_3 K1A 1_555 1_555
O3A_3 K1A 1_555 1_555
O4A K1 1_555 1_555
O4A_2 N2A 1_555 1_555
O4_2 K1A 1_555 1_555
K1A N3 1_555 1_555
K1_2 O1 1_555 1_555
K1_3 O3 1_555 1_555
K1A_2 O3 1_555 1_555
K1_4 O3A_2 1_555 1_555
K1A_3 O3A_2 1_555 1_555
K1A_4 O1A 1_555 1_555
C5 C6 1_555 1_555
C11 C12 1_555 1_555
N4 N5 1_555 1_555
N5 K1 1_555 1_555
N5 K1A 1_555 1_555
O4 K1A_2 1_555 1_555
C1A N3A 1_555 1_555
C5A C6A 1_555 1_555
C7A N5A 1_555 1_555
C11A C12A 1_555 1_555
N3A K1A 1_555 1_555
N4A N5A 1_555 1_555
N5A K1A 1_555 1_555
O4A_2 K1_4 1_555 1_555

#END
