
#######################################################################
#
#                 Cambridge Crystallographic Data Centre
#                                CCDC 
#
#######################################################################
#
# If this CIF has been generated from an entry in the Cambridge 
# Structural Database, then it will include bibliographic, chemical, 
# crystal, experimental, refinement or atomic coordinate data resulting 
# from the CCDC's data processing and validation procedures.
#
#######################################################################

data_GIDVEW
_symmetry_cell_setting           monoclinic
_symmetry_space_group_name_H-M   'P 21/n'
_symmetry_Int_Tables_number      14
_space_group_name_Hall           '-P 2yn'
loop_
_symmetry_equiv_pos_site_id
_symmetry_equiv_pos_as_xyz
1 x,y,z
2 1/2-x,1/2+y,1/2-z
3 -x,-y,-z
4 1/2+x,1/2-y,1/2+z
_cell_length_a                   16.8018(17)
_cell_length_b                   10.7634(12)
_cell_length_c                   17.9184(16)
_cell_angle_alpha                90
_cell_angle_beta                 103.855(10)
_cell_angle_gamma                90
_cell_volume                     3146.16
loop_
_atom_site_label
_atom_site_type_symbol
_atom_site_fract_x
_atom_site_fract_y
_atom_site_fract_z
Cu1 Cu 0.41885(5) 0.57917(7) 0.20710(5)
O1 O 0.4585(3) 0.6408(5) 0.3087(2)
C1 C 0.5265(4) 0.7047(6) 0.3346(3)
C2 C 0.5554(5) 0.7119(7) 0.4161(4)
H1 H 0.5250 0.6754 0.4473
C3 C 0.6267(5) 0.7710(8) 0.4488(4)
H2 H 0.6448 0.7727 0.5021
C4 C 0.6729(5) 0.8291(8) 0.4041(5)
H3 H 0.7215 0.8698 0.4268
C5 C 0.6450(5) 0.8247(7) 0.3254(4)
H4 H 0.6754 0.8634 0.2949
C6 C 0.5705(4) 0.7619(6) 0.2889(4)
C7 C 0.5454(4) 0.7676(6) 0.2034(4)
C8 C 0.5946(5) 0.8513(7) 0.1635(4)
H5 H 0.5644 0.8657 0.1115
H6 H 0.6458 0.8121 0.1632
H7 H 0.6047 0.9290 0.1903
N1 N 0.4829(3) 0.7035(5) 0.1653(3)
C9 C 0.4605(4) 0.7075(7) 0.0810(3)
H8 H 0.5050 0.6747 0.0611
H9 H 0.4507 0.7927 0.0637
C10 C 0.3840(4) 0.6310(6) 0.0514(4)
H10 H 0.3362 0.6786 0.0556
H11 H 0.3788 0.6113 -0.0023
N2 N 0.3881(3) 0.5151(5) 0.0962(3)
C11 C 0.4515(4) 0.4303(7) 0.0833(4)
H12 H 0.5032 0.4728 0.0936
H13 H 0.4375 0.4025 0.0309
H14 H 0.4553 0.3601 0.1170
C12 C 0.3087(4) 0.4471(7) 0.0737(4)
H15 H 0.2972 0.4271 0.0199
H16 H 0.2655 0.4985 0.0834
H17 H 0.3121 0.3720 0.1031
N3 N 0.2930(4) 0.6629(6) 0.1937(3)
C13 C 0.2327(5) 0.7199(7) 0.1837(4)
N4 N 0.1620(3) 0.7772(6) 0.1665(3)
C14 C 0.1396(4) 0.8523(7) 0.2149(4)
N5 N 0.1096(3) 0.9167(6) 0.2517(3)
Cu1A Cu 0.08115(5) 1.07917(7) 0.29290(5)
N5A N 0.3904(3) 0.4167(6) 0.2483(3)
Cu2 Cu 0.57679(5) 0.23124(8) 0.29218(5)
O2 O 0.5358(3) 0.1707(5) 0.1908(2)
C15 C 0.4677(5) 0.1067(7) 0.1643(4)
C16 C 0.4413(5) 0.0907(7) 0.0841(4)
H18 H 0.4721 0.1262 0.0529
C17 C 0.3727(5) 0.0253(7) 0.0503(5)
H19 H 0.3572 0.0177 -0.0029
C18 C 0.3258(5) -0.0300(8) 0.0953(5)
H20 H 0.2783 -0.0732 0.0725
C19 C 0.3508(5) -0.0200(7) 0.1748(4)
H21 H 0.3185 -0.0552 0.2047
C20 C 0.4239(4) 0.0423(7) 0.2115(4)
C21 C 0.4483(4) 0.0441(7) 0.2970(4)
C22 C 0.4008(5) -0.0365(7) 0.3387(4)
H22 H 0.4283 -0.0400 0.3922
H23 H 0.3966 -0.1188 0.3174
H24 H 0.3468 -0.0026 0.3333
N6 N 0.5116(3) 0.1073(5) 0.3334(3)
C23 C 0.5342(4) 0.1035(6) 0.4184(4)
H25 H 0.5421 0.0180 0.4358
H26 H 0.4906 0.1392 0.4385
C24 C 0.6125(4) 0.1764(7) 0.4471(4)
H27 H 0.6189 0.1962 0.5010
H28 H 0.6589 0.1259 0.4424
N7 N 0.6116(3) 0.2930(6) 0.4027(3)
C25 C 0.5493(4) 0.3801(7) 0.4171(4)
H29 H 0.5643 0.4071 0.4697
H30 H 0.4970 0.3392 0.4073
H31 H 0.5459 0.4507 0.3837
C26 C 0.6926(4) 0.3530(8) 0.4248(4)
H32 H 0.6919 0.4279 0.3956
H33 H 0.7334 0.2975 0.4146
H34 H 0.7051 0.3726 0.4786
N8 N 0.7034(4) 0.1389(7) 0.3036(4)
C27 C 0.7652(5) 0.0868(7) 0.3137(4)
N9 N 0.8373(4) 0.0330(6) 0.3334(3)
C28 C 0.8618(4) -0.0424(7) 0.2861(4)
N10 N 0.8903(4) -0.1080(6) 0.2493(3)
Cu2A Cu 0.92321(5) -0.26876(8) 0.20782(5)
N10A N 0.6097(4) 0.3920(6) 0.2507(3)
O3 O 0.6478(5) 0.1783(9) 0.0982(3)
H35 H 0.6996(18) 0.162(10) 0.120(4)
H36 H 0.622(4) 0.177(9) 0.134(3)
O4 O 0.3349(5) 0.6620(9) 0.3872(4)
H37 H 0.370(4) 0.630(9) 0.365(5)
H38 H 0.286(2) 0.635(9) 0.366(5)
loop_
_geom_bond_atom_site_label_1
_geom_bond_atom_site_label_2
_geom_bond_site_symmetry_1
_geom_bond_site_symmetry_2
Cu1 O1 1_555 1_555
O1 C1 1_555 1_555
C1 C2 1_555 1_555
C2 H1 1_555 1_555
C3 C2 1_555 1_555
H2 C3 1_555 1_555
C4 C3 1_555 1_555
H3 C4 1_555 1_555
C5 C4 1_555 1_555
H4 C5 1_555 1_555
C6 C1 1_555 1_555
C7 C6 1_555 1_555
C8 C7 1_555 1_555
H5 C8 1_555 1_555
H6 C8 1_555 1_555
H7 C8 1_555 1_555
N1 Cu1 1_555 1_555
C9 N1 1_555 1_555
H8 C9 1_555 1_555
H9 C9 1_555 1_555
C10 C9 1_555 1_555
H10 C10 1_555 1_555
H11 C10 1_555 1_555
N2 Cu1 1_555 1_555
C11 N2 1_555 1_555
H12 C11 1_555 1_555
H13 C11 1_555 1_555
H14 C11 1_555 1_555
C12 N2 1_555 1_555
H15 C12 1_555 1_555
H16 C12 1_555 1_555
H17 C12 1_555 1_555
N3 Cu1 1_555 1_555
C13 N3 1_555 1_555
N4 C13 1_555 1_555
C14 N4 1_555 1_555
N5 C14 1_555 1_555
Cu2 O2 1_555 1_555
O2 C15 1_555 1_555
C15 C16 1_555 1_555
C16 H18 1_555 1_555
C17 C16 1_555 1_555
H19 C17 1_555 1_555
C18 C17 1_555 1_555
H20 C18 1_555 1_555
C19 C18 1_555 1_555
H21 C19 1_555 1_555
C20 C15 1_555 1_555
C21 C20 1_555 1_555
C22 C21 1_555 1_555
H22 C22 1_555 1_555
H23 C22 1_555 1_555
H24 C22 1_555 1_555
N6 Cu2 1_555 1_555
C23 N6 1_555 1_555
H25 C23 1_555 1_555
H26 C23 1_555 1_555
C24 C23 1_555 1_555
H27 C24 1_555 1_555
H28 C24 1_555 1_555
N7 Cu2 1_555 1_555
C25 N7 1_555 1_555
H29 C25 1_555 1_555
H30 C25 1_555 1_555
H31 C25 1_555 1_555
C26 N7 1_555 1_555
H32 C26 1_555 1_555
H33 C26 1_555 1_555
H34 C26 1_555 1_555
N8 Cu2 1_555 1_555
C27 N8 1_555 1_555
N9 C27 1_555 1_555
C28 N9 1_555 1_555
N10 C28 1_555 1_555
O3 H35 1_555 1_555
H36 O3 1_555 1_555
O4 H37 1_555 1_555
H38 O4 1_555 1_555
Cu1A N5 1_555 1_555
N5A Cu1 1_555 1_555
Cu2A N10 1_555 1_555
N10A Cu2 1_555 1_555
C5 C6 1_555 1_555
C7 N1 1_555 1_555
C10 N2 1_555 1_555
C19 C20 1_555 1_555
C21 N6 1_555 1_555
C24 N7 1_555 1_555

#END
