
#######################################################################
#
#                 Cambridge Crystallographic Data Centre
#                                CCDC 
#
#######################################################################
#
# If this CIF has been generated from an entry in the Cambridge 
# Structural Database, then it will include bibliographic, chemical, 
# crystal, experimental, refinement or atomic coordinate data resulting 
# from the CCDC's data processing and validation procedures.
#
#######################################################################

data_GIFFEI
_symmetry_cell_setting           orthorhombic
_symmetry_space_group_name_H-M   'P 21 21 21'
_symmetry_Int_Tables_number      19
_space_group_name_Hall           'P 2ac 2ab'
loop_
_symmetry_equiv_pos_site_id
_symmetry_equiv_pos_as_xyz
1 x,y,z
2 1/2-x,-y,1/2+z
3 1/2+x,1/2-y,-z
4 -x,1/2+y,1/2-z
_cell_length_a                   13.2813(10)
_cell_length_b                   12.7678(10)
_cell_length_c                   12.7424(10)
_cell_angle_alpha                90
_cell_angle_beta                 90
_cell_angle_gamma                90
_cell_volume                     2160.77
loop_
_atom_site_label
_atom_site_type_symbol
_atom_site_fract_x
_atom_site_fract_y
_atom_site_fract_z
C1 C 1.053(4) 0.750(5) 0.300(4)
C2 C 0.990(4) 0.746(4) 0.381(4)
C3 C 1.164(6) 0.736(6) 0.286(7)
C4 C 0.989(4) 0.736(4) 0.498(4)
C5 C 0.657(4) 1.248(5) 0.508(4)
C6 C 0.822(4) 1.035(4) 0.474(5)
C7 C 0.713(4) 1.053(4) 0.491(4)
C8 C 0.649(4) 1.136(4) 0.504(4)
Eu1 Eu 0.74577(16) 0.78925(19) 0.45741(19)
Eu2 Eu 0.90521(16) 1.2919(2) 0.4603(2)
N1 N 1.003(4) 0.769(4) 0.207(4)
N2 N 0.902(3) 0.772(4) 0.235(3)
N3 N 0.893(3) 0.759(3) 0.337(3)
N4 N 0.655(4) 0.962(4) 0.492(4)
N5 N 0.561(3) 0.986(3) 0.506(4)
N6 N 0.559(3) 1.091(4) 0.509(4)
O1 O 0.731(4) 0.603(4) 0.538(5)
O2 O 0.698(4) 0.650(4) 0.328(4)
O3 O 1.200(4) 0.757(4) 0.196(4)
O4 O 1.215(4) 0.710(5) 0.363(4)
O5 O 0.712(4) 0.860(6) 0.282(4)
O6 O 0.905(2) 0.733(3) 0.541(3)
O7 O 1.072(2) 0.745(3) 0.547(3)
O8 O 0.853(3) 0.943(3) 0.468(4)
O9 O 0.879(3) 1.114(3) 0.473(4)
O10 O 0.569(3) 1.296(3) 0.508(3)
O11 O 0.922(3) 1.275(6) 0.652(3)
O12 O 0.863(4) 1.461(4) 0.555(5)
O13 O 0.860(4) 1.474(4) 0.428(4)
O14 O 0.738(3) 1.294(3) 0.514(3)
Eu1B Eu 1.24577(16) 0.71075(19) 0.54259(19)
Eu2B Eu 0.40521(16) 1.2081(2) 0.5397(2)
Eu2C Eu 1.09479(16) 0.7919(2) 0.0397(2)
N1C N 0.997(4) 1.269(4) 0.293(4)
N6B N 1.059(3) 1.409(4) 0.491(4)
O3C O 0.800(4) 1.257(4) 0.304(4)
O4B O 0.715(4) 0.790(5) 0.637(4)
O7B O 0.572(2) 0.755(3) 0.453(3)
O10B O 1.069(3) 1.204(3) 0.492(3)
loop_
_geom_bond_atom_site_label_1
_geom_bond_atom_site_label_2
_geom_bond_site_symmetry_1
_geom_bond_site_symmetry_2
C1 C2 1_555 1_555
C2 C4 1_555 1_555
C3 C1 1_555 1_555
C4 O6 1_555 1_555
C5 C8 1_555 1_555
C6 C7 1_555 1_555
C7 C8 1_555 1_555
C8 N6 1_555 1_555
Eu1 N3 1_555 1_555
Eu2 O9 1_555 1_555
N1 C1 1_555 1_555
N2 N1 1_555 1_555
N3 C2 1_555 1_555
N4 C7 1_555 1_555
N5 N4 1_555 1_555
N6 N5 1_555 1_555
O1 Eu1 1_555 1_555
O2 Eu1 1_555 1_555
O3 C3 1_555 1_555
O4 C3 1_555 1_555
O5 Eu1 1_555 1_555
O6 Eu1 1_555 1_555
O7 C4 1_555 1_555
O8 C6 1_555 1_555
O9 C6 1_555 1_555
O10 C5 1_555 1_555
O11 Eu2 1_555 1_555
O12 Eu2 1_555 1_555
O13 Eu2 1_555 1_555
O14 C5 1_555 1_555
Eu1B O4 1_555 1_555
Eu2B N6 1_555 1_555
Eu2C N1 1_555 1_555
N1C Eu2 1_555 1_555
N6B Eu2 1_555 1_555
O3C Eu2 1_555 1_555
O4B Eu1 1_555 1_555
O7B Eu1 1_555 1_555
O10B Eu2 1_555 1_555
Eu1 N4 1_555 1_555
Eu1 O8 1_555 1_555
Eu2 O14 1_555 1_555
N2 N3 1_555 1_555
O3 Eu2C 1_555 1_555
O7 Eu1B 1_555 1_555
O10 Eu2B 1_555 1_555

#END
