
#######################################################################
#
#                 Cambridge Crystallographic Data Centre
#                                CCDC 
#
#######################################################################
#
# If this CIF has been generated from an entry in the Cambridge 
# Structural Database, then it will include bibliographic, chemical, 
# crystal, experimental, refinement or atomic coordinate data resulting 
# from the CCDC's data processing and validation procedures.
#
#######################################################################

data_GIFGUZ
_symmetry_cell_setting           monoclinic
_symmetry_space_group_name_H-M   'P 21/c'
_symmetry_Int_Tables_number      14
_space_group_name_Hall           '-P 2ybc'
loop_
_symmetry_equiv_pos_site_id
_symmetry_equiv_pos_as_xyz
1 x,y,z
2 -x,1/2+y,1/2-z
3 -x,-y,-z
4 x,1/2-y,1/2+z
_cell_length_a                   8.2247(5)
_cell_length_b                   16.0755(8)
_cell_length_c                   14.5130(9)
_cell_angle_alpha                90
_cell_angle_beta                 105.867(7)
_cell_angle_gamma                90
_cell_volume                     1845.74
loop_
_atom_site_label
_atom_site_type_symbol
_atom_site_fract_x
_atom_site_fract_y
_atom_site_fract_z
Hg1 Hg 0.95643(3) 0.054809(14) 0.647819(18)
Cu1 Cu 1.45745(9) -0.22096(4) 0.68866(5)
N1 N 1.5690(6) -0.1256(3) 0.7687(4)
N2 N 1.6741(7) -0.1328(3) 0.8569(4)
H1 H 1.7033 -0.1794 0.8857
N3 N 1.3625(6) -0.2919(3) 0.5732(4)
N4 N 1.1971(7) -0.2944(3) 0.5274(4)
H2 H 1.1204 -0.2681 0.5457
C1 C 1.5603(8) -0.0439(3) 0.7519(5)
H3 H 1.4956 -0.0195 0.6956
C2 C 1.6592(9) -0.0003(4) 0.8284(5)
H4 H 1.6754 0.0569 0.8335
C3 C 1.7278(9) -0.0589(4) 0.8946(5)
H5 H 1.7995 -0.0493 0.9553
C4 C 1.1664(10) -0.3429(4) 0.4493(5)
H6 H 1.0614 -0.3534 0.4067
C5 C 1.3150(9) -0.3734(5) 0.4443(5)
H7 H 1.3342 -0.4094 0.3982
C6 C 1.4338(9) -0.3405(4) 0.5219(5)
H8 H 1.5492 -0.3510 0.5363
S1 S 0.6609(2) 0.09445(10) 0.55944(11)
C7 C 0.6224(7) 0.1585(3) 0.6409(4)
N5 N 0.5908(6) 0.2020(3) 0.6956(4)
C8 C 1.2001(7) 0.1907(3) 0.7985(4)
C9 C 1.1788(8) 0.1615(4) 0.5450(4)
C10 C 1.1215(7) -0.1321(3) 0.6827(4)
N6 N 1.3191(6) 0.2262(3) 0.7972(4)
N7 N 1.1700(8) 0.2304(3) 0.5243(4)
N8 N 1.2384(6) -0.1601(3) 0.6662(4)
S2 S 1.0301(2) 0.14093(14) 0.80646(15)
S3 S 1.1970(2) 0.06135(9) 0.57447(12)
S4 S 0.9501(2) -0.09616(9) 0.70594(12)
Cu1A Cu 0.54255(9) 0.27904(4) 0.81134(5)
Cu1A_2 Cu 1.54255(9) 0.27904(4) 0.81134(5)
N5A N 1.4092(6) -0.2980(3) 0.8044(4)
N6A N 1.6809(6) -0.2738(3) 0.7028(4)
loop_
_geom_bond_atom_site_label_1
_geom_bond_atom_site_label_2
_geom_bond_site_symmetry_1
_geom_bond_site_symmetry_2
Hg1 S1 1_555 1_555
Cu1 N1 1_555 1_555
N1 N2 1_555 1_555
N2 H1 1_555 1_555
N3 Cu1 1_555 1_555
N4 N3 1_555 1_555
H2 N4 1_555 1_555
C1 N1 1_555 1_555
H3 C1 1_555 1_555
C2 C1 1_555 1_555
H4 C2 1_555 1_555
C3 N2 1_555 1_555
H5 C3 1_555 1_555
C4 N4 1_555 1_555
H6 C4 1_555 1_555
C5 C4 1_555 1_555
H7 C5 1_555 1_555
C6 N3 1_555 1_555
H8 C6 1_555 1_555
S1 C7 1_555 1_555
C7 N5 1_555 1_555
N5 Cu1A 1_555 1_555
C8 N6 1_555 1_555
C9 N7 1_555 1_555
C10 N8 1_555 1_555
N6 Cu1A_2 1_555 1_555
N8 Cu1 1_555 1_555
S2 Hg1 1_555 1_555
S3 Hg1 1_555 1_555
S4 Hg1 1_555 1_555
N5A Cu1 1_555 1_555
N6A Cu1 1_555 1_555
C2 C3 1_555 1_555
C5 C6 1_555 1_555
C8 S2 1_555 1_555
C9 S3 1_555 1_555
C10 S4 1_555 1_555

#END
