
#######################################################################
#
#                 Cambridge Crystallographic Data Centre
#                                CCDC 
#
#######################################################################
#
# If this CIF has been generated from an entry in the Cambridge 
# Structural Database, then it will include bibliographic, chemical, 
# crystal, experimental, refinement or atomic coordinate data resulting 
# from the CCDC's data processing and validation procedures.
#
#######################################################################

data_GIFGEJ
_symmetry_cell_setting           monoclinic
_symmetry_space_group_name_H-M   'C 2/c'
_symmetry_Int_Tables_number      15
_space_group_name_Hall           '-C 2yn'
loop_
_symmetry_equiv_pos_site_id
_symmetry_equiv_pos_as_xyz
1 x,y,z
2 -x,y,1/2-z
3 1/2+x,1/2+y,z
4 1/2-x,1/2+y,1/2-z
5 -x,-y,-z
6 x,-y,1/2+z
7 1/2-x,1/2-y,-z
8 1/2+x,1/2-y,1/2+z
_cell_length_a                   24.402(8)
_cell_length_b                   14.9756(13)
_cell_length_c                   19.788(6)
_cell_angle_alpha                90
_cell_angle_beta                 135.028(6)
_cell_angle_gamma                90
_cell_volume                     5110.75
loop_
_atom_site_label
_atom_site_type_symbol
_atom_site_fract_x
_atom_site_fract_y
_atom_site_fract_z
Hg1 Hg 0.09204(2) 0.14316(2) 0.26094(3)
Cu1 Cu 0.31071(6) 0.39105(6) 0.35681(8)
O1 O 0.5832(8) 0.0772(8) 0.5041(11)
H1 H 0.6137 0.1100 0.5109
O2 O 0.4764(8) 0.0053(10) 0.3845(12)
O3 O 0.1621(7) 0.6859(8) 0.4639(9)
H2 H 0.2070 0.6990 0.5124
O4 O 0.1731(4) 0.7809(4) 0.3811(6)
N1 N 0.3694(4) 0.2893(4) 0.3678(5)
N2 N 0.2585(4) 0.4912(4) 0.3613(5)
C1 C 0.3575(5) 0.2047(6) 0.3764(7)
H3 H 0.3187 0.1932 0.3740
C2 C 0.3993(6) 0.1348(6) 0.3885(8)
H4 H 0.3876 0.0770 0.3923
C3 C 0.4576(6) 0.1490(6) 0.3952(8)
C4 C 0.4697(6) 0.2352(6) 0.3845(8)
H5 H 0.5077 0.2473 0.3856
C5 C 0.4265(5) 0.3026(6) 0.3723(7)
H6 H 0.4366 0.3606 0.3669
C6 C 0.5038(8) 0.0728(9) 0.3938(19)
H7 H 0.5083 0.0837 0.3491
C7 C 0.5068(12) -0.0638(11) 0.3675(17)
H8 H 0.5138 -0.0403 0.3289
H9 H 0.4710 -0.1128 0.3348
H10 H 0.5557 -0.0841 0.4275
C8 C 0.2121(6) 0.4739(6) 0.3724(7)
H11 H 0.2021 0.4145 0.3742
C9 C 0.1780(6) 0.5384(6) 0.3813(8)
H12 H 0.1482 0.5229 0.3926
C10 C 0.1883(5) 0.6269(6) 0.3732(7)
C11 C 0.2357(6) 0.6452(6) 0.3620(7)
H13 H 0.2446 0.7042 0.3573
C12 C 0.2715(6) 0.5755(6) 0.3575(7)
H14 H 0.3051 0.5892 0.3517
C13 C 0.1491(6) 0.6988(7) 0.3794(8)
H15 H 0.0932 0.6948 0.3222
C14 C 0.1282(7) 0.8514(7) 0.3694(10)
H16 H 0.0798 0.8554 0.3033
H17 H 0.1559 0.9066 0.3890
H18 H 0.1184 0.8399 0.4078
N3 N 0.1986(5) -0.0411(5) 0.2457(6)
N4 N -0.0838(7) 0.0549(7) -0.0191(9)
N5 N 0.1802(11) 0.1861(11) 0.5245(12)
N6 N 0.2082(5) 0.3230(5) 0.2580(6)
C15 C 0.2116(4) 0.0029(6) 0.3035(7)
C16 C -0.0460(6) 0.0372(6) 0.0594(8)
C17 C 0.1425(6) 0.2152(6) 0.4391(10)
C18 C 0.1542(5) 0.2792(6) 0.2065(7)
S1 S 0.22850(13) 0.06902(17) 0.38324(17)
S2 S 0.00062(13) 0.01148(14) 0.16793(17)
S3 S 0.0934(3) 0.2597(2) 0.3476(3)
S4 S 0.07837(16) 0.2135(2) 0.13149(19)
Cu1C Cu 0.18929(6) -0.10895(6) 0.14319(8)
Cu1F Cu 0.18929(6) 0.10895(6) 0.64319(8)
Cu1G Cu -0.18929(6) 0.10895(6) -0.14319(8)
N3C N 0.3014(5) 0.4589(5) 0.2543(6)
N4G N 0.4162(7) 0.4451(7) 0.4809(9)
N5F N 0.3198(11) 0.3139(11) 0.4755(12)
loop_
_geom_bond_atom_site_label_1
_geom_bond_atom_site_label_2
_geom_bond_site_symmetry_1
_geom_bond_site_symmetry_2
Hg1 S1 1_555 1_555
Cu1 N1 1_555 1_555
O1 H1 1_555 1_555
O2 C6 1_555 1_555
O3 H2 1_555 1_555
O4 C13 1_555 1_555
N1 C1 1_555 1_555
N2 Cu1 1_555 1_555
C1 H3 1_555 1_555
C2 C1 1_555 1_555
H4 C2 1_555 1_555
C3 C2 1_555 1_555
C4 C3 1_555 1_555
H5 C4 1_555 1_555
C5 N1 1_555 1_555
H6 C5 1_555 1_555
C6 O1 1_555 1_555
H7 C6 1_555 1_555
C7 O2 1_555 1_555
H8 C7 1_555 1_555
H9 C7 1_555 1_555
H10 C7 1_555 1_555
C8 N2 1_555 1_555
H11 C8 1_555 1_555
C9 C8 1_555 1_555
H12 C9 1_555 1_555
C10 C9 1_555 1_555
C11 C10 1_555 1_555
H13 C11 1_555 1_555
C12 N2 1_555 1_555
H14 C12 1_555 1_555
C13 O3 1_555 1_555
H15 C13 1_555 1_555
C14 O4 1_555 1_555
H16 C14 1_555 1_555
H17 C14 1_555 1_555
H18 C14 1_555 1_555
N3 C15 1_555 1_555
N4 C16 1_555 1_555
N5 C17 1_555 1_555
N6 Cu1 1_555 1_555
C15 S1 1_555 1_555
C16 S2 1_555 1_555
C17 S3 1_555 1_555
C18 N6 1_555 1_555
S2 Hg1 1_555 1_555
S3 Hg1 1_555 1_555
S4 Hg1 1_555 1_555
Cu1C N3 1_555 1_555
Cu1F N5 1_555 1_555
Cu1G N4 1_555 1_555
N3C Cu1 1_555 1_555
N4G Cu1 1_555 1_555
N5F Cu1 1_555 1_555
C3 C6 1_555 1_555
C4 C5 1_555 1_555
C10 C13 1_555 1_555
C11 C12 1_555 1_555
C18 S4 1_555 1_555

#END
