
#######################################################################
#
#                 Cambridge Crystallographic Data Centre
#                                CCDC 
#
#######################################################################
#
# If this CIF has been generated from an entry in the Cambridge 
# Structural Database, then it will include bibliographic, chemical, 
# crystal, experimental, refinement or atomic coordinate data resulting 
# from the CCDC's data processing and validation procedures.
#
#######################################################################

data_GIFGIN
_symmetry_cell_setting           monoclinic
_symmetry_space_group_name_H-M   'C c'
_symmetry_Int_Tables_number      9
_space_group_name_Hall           'C -2yc'
loop_
_symmetry_equiv_pos_site_id
_symmetry_equiv_pos_as_xyz
1 x,y,z
2 x,-y,1/2+z
3 1/2+x,1/2+y,z
4 1/2+x,1/2-y,1/2+z
_cell_length_a                   11.8721(9)
_cell_length_b                   11.4605(9)
_cell_length_c                   12.5545(11)
_cell_angle_alpha                90
_cell_angle_beta                 100.432(9)
_cell_angle_gamma                90
_cell_volume                     1679.93
loop_
_atom_site_label
_atom_site_type_symbol
_atom_site_fract_x
_atom_site_fract_y
_atom_site_fract_z
Hg1 Hg 0.00062(4) 0.37148(4) 0.24805(4)
Cu1 Cu 0.48292(14) 0.38258(12) 0.36979(13)
N1 N 0.6411(9) 0.3275(10) 0.4415(8)
N2 N 1.0385(16) 0.1604(18) 0.6557(15)
C1 C 0.6905(12) 0.3687(11) 0.5392(11)
H1 H 0.6543 0.4284 0.5702
C2 C 0.7918(14) 0.3261(14) 0.5947(10)
H2 H 0.8219 0.3547 0.6633
C3 C 0.8488(11) 0.2412(13) 0.5491(9)
C4 C 0.7984(11) 0.1998(12) 0.4470(11)
H3 H 0.8339 0.1416 0.4134
C5 C 0.6964(11) 0.2456(12) 0.3974(10)
H4 H 0.6640 0.2180 0.3291
C6 C 0.9557(11) 0.1931(15) 0.6047(10)
S1 S -0.1098(5) 0.4844(3) 0.3822(4)
N3 N -0.0585(10) 0.7170(9) 0.3549(10)
C7 C -0.0764(11) 0.6223(10) 0.3677(10)
N4 N -0.0810(13) 0.1057(13) 0.0303(11)
C8 C -0.1151(11) 0.1739(14) 0.0834(11)
S2 S -0.1737(3) 0.2709(4) 0.1541(4)
N5 N 0.0412(9) 0.0416(10) 0.3667(9)
C9 C 0.0837(12) 0.1322(10) 0.3720(14)
S3 S 0.1490(4) 0.2574(4) 0.3789(5)
N6 N 0.3334(9) 0.4348(11) 0.2807(10)
C10 C 0.2484(12) 0.4613(11) 0.2312(10)
S4 S 0.1247(4) 0.5004(4) 0.1541(3)
Cu1B Cu -0.01708(14) -0.11742(12) 0.36979(13)
Cu1B_2 Cu -0.01708(14) 0.88258(12) 0.36979(13)
Cu1C Cu -0.01708(14) 0.11742(12) -0.13021(13)
N3B N 0.4415(10) 0.2170(9) 0.3549(10)
N4C N 0.4190(13) 0.3943(13) 0.5303(11)
N5B N 0.5412(9) 0.5416(10) 0.3667(9)
loop_
_geom_bond_atom_site_label_1
_geom_bond_atom_site_label_2
_geom_bond_site_symmetry_1
_geom_bond_site_symmetry_2
Hg1 S1 1_555 1_555
Cu1 N1 1_555 1_555
N1 C1 1_555 1_555
N2 C6 1_555 1_555
C1 H1 1_555 1_555
C2 C1 1_555 1_555
H2 C2 1_555 1_555
C3 C2 1_555 1_555
C4 C3 1_555 1_555
H3 C4 1_555 1_555
C5 N1 1_555 1_555
H4 C5 1_555 1_555
C6 C3 1_555 1_555
S1 C7 1_555 1_555
N3 C7 1_555 1_555
N4 C8 1_555 1_555
C8 S2 1_555 1_555
S2 Hg1 1_555 1_555
N5 C9 1_555 1_555
C9 S3 1_555 1_555
S3 Hg1 1_555 1_555
N6 Cu1 1_555 1_555
C10 N6 1_555 1_555
S4 Hg1 1_555 1_555
Cu1B N5 1_555 1_555
Cu1B_2 N3 1_555 1_555
Cu1C N4 1_555 1_555
N3B Cu1 1_555 1_555
N4C Cu1 1_555 1_555
N5B Cu1 1_555 1_555
C4 C5 1_555 1_555
C10 S4 1_555 1_555

#END
