
#######################################################################
#
#                 Cambridge Crystallographic Data Centre
#                                CCDC 
#
#######################################################################
#
# If this CIF has been generated from an entry in the Cambridge 
# Structural Database, then it will include bibliographic, chemical, 
# crystal, experimental, refinement or atomic coordinate data resulting 
# from the CCDC's data processing and validation procedures.
#
#######################################################################

data_GIFHIO
_symmetry_cell_setting           monoclinic
_symmetry_space_group_name_H-M   'C 2/c'
_symmetry_Int_Tables_number      15
_space_group_name_Hall           '-C 2yn'
loop_
_symmetry_equiv_pos_site_id
_symmetry_equiv_pos_as_xyz
1 x,y,z
2 -x,y,1/2-z
3 1/2+x,1/2+y,z
4 1/2-x,1/2+y,1/2-z
5 -x,-y,-z
6 x,-y,1/2+z
7 1/2-x,1/2-y,-z
8 1/2+x,1/2-y,1/2+z
_cell_length_a                   10.2856(6)
_cell_length_b                   11.7605(6)
_cell_length_c                   21.4471(10)
_cell_angle_alpha                90
_cell_angle_beta                 97.709(5)
_cell_angle_gamma                90
_cell_volume                     2570.88
loop_
_atom_site_label
_atom_site_type_symbol
_atom_site_fract_x
_atom_site_fract_y
_atom_site_fract_z
Hg1 Hg 0.5000 0.72078(2) 0.2500
Cu1 Cu 0.2500 0.7500 0.5000
S1 S 0.57465(14) 0.85159(15) 0.34203(7)
S2 S 0.31480(16) 0.60690(12) 0.28626(7)
N1 N 0.3028(4) 0.5860(3) 0.49915(17)
N2 N 0.3238(4) 0.5333(4) 0.4464(2)
H1 H 0.3206 0.5663 0.4104
N3 N 0.0988(3) 0.7127(3) 0.43213(18)
N4 N 0.0811(4) 0.7540(3) 0.3733(2)
H2 H 0.1345 0.8002 0.3588
N5 N 0.3806(4) 0.7935(3) 0.4157(2)
N6 N 0.3185(5) 0.4132(4) 0.2110(3)
C1 C 0.3502(5) 0.4236(4) 0.4559(3)
H3 H 0.3697 0.3713 0.4260
C2 C 0.3434(5) 0.4026(4) 0.5164(3)
H4 H 0.3550 0.3331 0.5371
C3 C 0.3155(5) 0.5067(4) 0.5419(3)
H5 H 0.3069 0.5184 0.5841
C4 C -0.0039(5) 0.6468(4) 0.4347(3)
H6 H -0.0193 0.6057 0.4700
C5 C -0.0860(5) 0.6469(5) 0.3778(3)
H7 H -0.1645 0.6075 0.3681
C6 C -0.0285(6) 0.7153(5) 0.3400(3)
H8 H -0.0591 0.7326 0.2983
C7 C 0.4599(5) 0.8163(4) 0.3852(2)
C8 C 0.3202(5) 0.4917(5) 0.2422(2)
S1A S 0.42535(14) 0.85159(15) 0.15797(7)
S2A S 0.68520(16) 0.60690(12) 0.21374(7)
N5A N 0.6194(4) 0.7935(3) 0.0843(2)
N6A N 0.6815(5) 0.4132(4) 0.2890(3)
C7A C 0.5401(5) 0.8163(4) 0.1148(2)
C8A C 0.6798(5) 0.4917(5) 0.2578(2)
N1F N 0.1972(4) 0.9140(3) 0.50085(17)
N2F N 0.1762(4) 0.9667(4) 0.5536(2)
H1F H 0.1794 0.9337 0.5896
C1F C 0.1498(5) 1.0764(4) 0.5441(3)
H3F H 0.1303 1.1287 0.5740
C2F C 0.1566(5) 1.0974(4) 0.4836(3)
H4F H 0.1450 1.1669 0.4629
C3F C 0.1845(5) 0.9933(4) 0.4581(3)
H5F H 0.1931 0.9816 0.4159
N3F N 0.4012(3) 0.7873(3) 0.56787(18)
N4F N 0.4189(4) 0.7460(3) 0.6267(2)
H2F H 0.3655 0.6998 0.6412
C4F C 0.5039(5) 0.8532(4) 0.5653(3)
H6F H 0.5193 0.8943 0.5300
C5F C 0.5860(5) 0.8531(5) 0.6222(3)
H7F H 0.6645 0.8925 0.6319
C6F C 0.5285(6) 0.7847(5) 0.6600(3)
H8F H 0.5591 0.7674 0.7017
Cu1A Cu 0.7500 0.7500 0.0000
N5F N 0.1194(4) 0.7065(3) 0.5843(2)
loop_
_geom_bond_atom_site_label_1
_geom_bond_atom_site_label_2
_geom_bond_site_symmetry_1
_geom_bond_site_symmetry_2
Hg1 S1 1_555 1_555
Cu1 N1 1_555 1_555
S1 C7 1_555 1_555
S2 Hg1 1_555 1_555
N1 N2 1_555 1_555
N2 H1 1_555 1_555
N3 Cu1 1_555 1_555
N4 N3 1_555 1_555
H2 N4 1_555 1_555
N5 Cu1 1_555 1_555
N6 C8 1_555 1_555
C1 N2 1_555 1_555
H3 C1 1_555 1_555
C2 C1 1_555 1_555
H4 C2 1_555 1_555
C3 N1 1_555 1_555
H5 C3 1_555 1_555
C4 N3 1_555 1_555
H6 C4 1_555 1_555
C5 C4 1_555 1_555
H7 C5 1_555 1_555
C6 N4 1_555 1_555
H8 C6 1_555 1_555
C7 N5 1_555 1_555
C8 S2 1_555 1_555
S1A Hg1 1_555 1_555
S2A Hg1 1_555 1_555
N5A C7A 1_555 1_555
N6A C8A 1_555 1_555
C7A S1A 1_555 1_555
C8A S2A 1_555 1_555
N1F Cu1 1_555 1_555
N2F N1F 1_555 1_555
H1F N2F 1_555 1_555
C1F N2F 1_555 1_555
H3F C1F 1_555 1_555
C2F C1F 1_555 1_555
H4F C2F 1_555 1_555
C3F N1F 1_555 1_555
H5F C3F 1_555 1_555
N3F Cu1 1_555 1_555
N4F N3F 1_555 1_555
H2F N4F 1_555 1_555
C4F N3F 1_555 1_555
H6F C4F 1_555 1_555
C5F C4F 1_555 1_555
H7F C5F 1_555 1_555
C6F N4F 1_555 1_555
H8F C6F 1_555 1_555
Cu1A N5A 1_555 1_555
N5F Cu1 1_555 1_555
C2 C3 1_555 1_555
C5 C6 1_555 1_555
C2F C3F 1_555 1_555
C5F C6F 1_555 1_555

#END
