
#######################################################################
#
#                 Cambridge Crystallographic Data Centre
#                                CCDC 
#
#######################################################################
#
# If this CIF has been generated from an entry in the Cambridge 
# Structural Database, then it will include bibliographic, chemical, 
# crystal, experimental, refinement or atomic coordinate data resulting 
# from the CCDC's data processing and validation procedures.
#
#######################################################################

data_GIFJIP
_symmetry_cell_setting           triclinic
_symmetry_space_group_name_H-M   'P -1'
_symmetry_Int_Tables_number      2
_space_group_name_Hall           '-P 1'
loop_
_symmetry_equiv_pos_site_id
_symmetry_equiv_pos_as_xyz
1 x,y,z
2 -x,-y,-z
_cell_length_a                   7.620(9)
_cell_length_b                   9.868(12)
_cell_length_c                   9.999(13)
_cell_angle_alpha                90.406(19)
_cell_angle_beta                 106.870(19)
_cell_angle_gamma                111.994(17)
_cell_volume                     661.444
loop_
_atom_site_label
_atom_site_type_symbol
_atom_site_fract_x
_atom_site_fract_y
_atom_site_fract_z
Cd1 Cd -0.09947(11) 0.15043(9) 0.19700(9)
N1 N 0.0618(13) 0.3672(10) 0.3326(9)
N2 N 0.2263(14) 0.6059(10) 0.4017(10)
H1 H 0.2678 0.6993 0.3979
N3 N 0.0200(17) 0.5286(12) 0.1653(11)
H2 H -0.0621 0.4573 0.1000
H3 H 0.0512 0.6183 0.1476
N4 N 0.1047(13) 0.0324(11) 0.2930(11)
N5 N 0.3429(13) -0.0858(11) 0.3311(12)
N6 N 0.6748(17) 0.0347(12) 0.3107(13)
N7 N -0.3513(15) 0.2078(12) 0.0395(11)
N8 N -0.7174(13) 0.1000(10) -0.0317(11)
N9 N -0.9304(14) 0.2088(11) 0.0273(11)
C1 C 0.1785(15) 0.3876(12) 0.4747(11)
C2 C 0.2786(15) 0.5395(11) 0.5190(12)
C3 C 0.4128(19) 0.5955(14) 0.6507(14)
H4 H 0.4818 0.6965 0.6783
C4 C 0.441(2) 0.4949(17) 0.7402(14)
H5 H 0.5359 0.5286 0.8288
C5 C 0.329(2) 0.3429(16) 0.7017(13)
H6 H 0.3436 0.2785 0.7675
C6 C 0.1991(19) 0.2883(12) 0.5669(13)
H7 H 0.1276 0.1875 0.5396
C7 C 0.0993(17) 0.5001(12) 0.2944(13)
C8 C 0.2193(15) -0.0195(12) 0.3114(12)
C9 C 0.5177(17) -0.0171(12) 0.3185(13)
C10 C -0.5228(15) 0.1625(12) 0.0113(11)
C11 C -0.8195(15) 0.1651(12) 0.0020(12)
Cd1_2 Cd 0.90053(11) 0.15043(9) 0.19700(9)
Cd1A Cd -0.90053(11) -0.15043(9) -0.19700(9)
Cd1_3 Cd -1.09947(11) 0.15043(9) 0.19700(9)
N6_2 N -0.3252(17) 0.0347(12) 0.3107(13)
N8A N -0.2826(13) -0.1000(10) 0.0317(11)
N9_2 N 0.0696(14) 0.2088(11) 0.0273(11)
loop_
_geom_bond_atom_site_label_1
_geom_bond_atom_site_label_2
_geom_bond_site_symmetry_1
_geom_bond_site_symmetry_2
Cd1 N1 1_555 1_555
N1 C1 1_555 1_555
N2 H1 1_555 1_555
N3 H2 1_555 1_555
H3 N3 1_555 1_555
N4 Cd1 1_555 1_555
N5 C8 1_555 1_555
N6 C9 1_555 1_555
N7 Cd1 1_555 1_555
N8 C10 1_555 1_555
N9 C11 1_555 1_555
C1 C2 1_555 1_555
C2 N2 1_555 1_555
C3 C2 1_555 1_555
H4 C3 1_555 1_555
C4 C3 1_555 1_555
H5 C4 1_555 1_555
C5 C4 1_555 1_555
H6 C5 1_555 1_555
C6 C1 1_555 1_555
H7 C6 1_555 1_555
C7 N1 1_555 1_555
C8 N4 1_555 1_555
C9 N5 1_555 1_555
C10 N7 1_555 1_555
C11 N8 1_555 1_555
Cd1_2 N6 1_555 1_555
Cd1A N8 1_555 1_555
Cd1_3 N9 1_555 1_555
N6_2 Cd1 1_555 1_555
N8A Cd1 1_555 1_555
N9_2 Cd1 1_555 1_555
N2 C7 1_555 1_555
N3 C7 1_555 1_555
C5 C6 1_555 1_555

#END
