
#######################################################################
#
#                 Cambridge Crystallographic Data Centre
#                                CCDC 
#
#######################################################################
#
# If this CIF has been generated from an entry in the Cambridge 
# Structural Database, then it will include bibliographic, chemical, 
# crystal, experimental, refinement or atomic coordinate data resulting 
# from the CCDC's data processing and validation procedures.
#
#######################################################################

data_GIFSIZ
_symmetry_cell_setting           triclinic
_symmetry_space_group_name_H-M   'P -1'
_symmetry_Int_Tables_number      2
_space_group_name_Hall           '-P 1'
loop_
_symmetry_equiv_pos_site_id
_symmetry_equiv_pos_as_xyz
1 x,y,z
2 -x,-y,-z
_cell_length_a                   12.656(3)
_cell_length_b                   15.981(3)
_cell_length_c                   16.984(3)
_cell_angle_alpha                76.63(3)
_cell_angle_beta                 79.58(3)
_cell_angle_gamma                79.04(3)
_cell_volume                     3247.17
loop_
_atom_site_label
_atom_site_type_symbol
_atom_site_fract_x
_atom_site_fract_y
_atom_site_fract_z
Zn1 Zn 0.22721(4) -0.17297(4) 1.25525(4)
O1 O 0.3541(3) -0.1106(2) 1.2744(2)
O2 O 0.3979(3) -0.2413(2) 1.2454(2)
O3 O 0.1000(3) -0.0761(2) 1.2780(2)
O4 O 0.1432(3) -0.2622(2) 1.2295(2)
N1 N 0.2541(3) -0.1196(3) 1.1247(3)
N2 N 0.1956(3) -0.2368(3) 1.3807(3)
C1 C 0.4241(4) -0.1755(3) 1.2637(3)
H1 H 0.0958 -0.0379 1.2367
H2 H 0.1668 -0.3116 1.2523
C2 C 0.2219(4) -0.0431(3) 1.0771(3)
C3 C 0.3163(5) -0.1651(4) 1.0708(4)
C4 C 0.5405(4) -0.1751(3) 1.2705(3)
N3 N 0.2640(4) -0.0432(3) 1.0003(3)
H3 H 0.1764 0.0036 1.0956
N4 N 0.3265(4) -0.1224(4) 0.9949(3)
H4 H 0.3494 -0.2224 1.0864
C5 C 0.5669(4) -0.1033(3) 1.2922(3)
C6 C 0.6212(4) -0.2429(3) 1.2557(3)
C7 C 0.2511(5) 0.0244(4) 0.9261(3)
H5 H 0.5131 -0.0571 1.3026
C8 C 0.6748(4) -0.1015(3) 1.2982(3)
C9 C 0.7282(4) -0.2405(3) 1.2618(3)
H6 H 0.6037 -0.2909 1.2414
C10 C 0.2098(4) 0.1130(4) 0.9458(3)
H7 H 0.2007 0.0102 0.8964
H8 H 0.3207 0.0256 0.8911
H9 H 0.6928 -0.0535 1.3121
C11 C 0.7557(4) -0.1702(3) 1.2838(3)
H10 H 0.7820 -0.2865 1.2511
C12 C 0.1023(4) 0.1530(4) 0.9375(3)
C13 C 0.2796(4) 0.1568(4) 0.9714(3)
C14 C 0.8719(4) -0.1711(3) 1.2948(3)
C15 C 0.0675(4) 0.2372(4) 0.9517(3)
C16 C 0.0244(5) 0.1048(4) 0.9142(4)
C17 C 0.2389(5) 0.2372(4) 0.9941(3)
C18 C 0.3961(4) 0.1168(4) 0.9747(4)
O5 O 0.9367(3) -0.2387(3) 1.2918(3)
O6 O 0.8952(3) -0.1013(2) 1.3069(2)
C19 C 0.1328(5) 0.2790(4) 0.9821(3)
C20 C -0.0437(4) 0.2839(4) 0.9321(3)
H11 H -0.0487 0.1254 0.9364
H12 H 0.0419 0.0436 0.9357
H13 H 0.0305 0.1149 0.8557
C21 C 0.3099(5) 0.2789(4) 1.0320(3)
H14 H 0.4141 0.0704 0.9451
H15 H 0.4069 0.0942 1.0306
H16 H 0.4420 0.1602 0.9505
C22 C 0.0916(6) 0.3664(4) 1.0035(4)
N5 N -0.1284(4) 0.2742(3) 1.0044(3)
H17 H -0.0402 0.3452 0.9111
H18 H -0.0636 0.2607 0.8898
N6 N 0.3761(4) 0.3349(3) 0.9698(3)
H19 H 0.2641 0.3132 1.0691
H20 H 0.3572 0.2336 1.0635
H21 H 0.0574 0.4044 0.9595
H22 H 0.1513 0.3906 1.0122
H23 H 0.0397 0.3601 1.0524
N7 N -0.2270(4) 0.3241(4) 1.0033(3)
C23 C -0.1270(4) 0.2193(4) 1.0756(3)
N8 N 0.4702(5) 0.3516(5) 0.9862(4)
C24 C 0.3593(4) 0.3791(4) 0.8968(3)
C25 C -0.2792(5) 0.2943(5) 1.0744(4)
N9 N -0.2222(3) 0.2289(3) 1.1222(3)
H24 H -0.0669 0.1793 1.0910
C26 C 0.5008(6) 0.4081(6) 0.9198(5)
N10 N 0.4328(4) 0.4286(3) 0.8634(3)
H25 H 0.3014 0.3755 0.8716
N11 N -0.2689(3) 0.1114(3) 1.3766(3)
H26 H -0.3510 0.3166 1.0910
Zn2 Zn -0.25431(4) 0.16354(4) 1.24683(4)
H27 H 0.5644 0.4318 0.9125
Zn3 Zn 0.45623(5) 0.50816(4) 0.74558(4)
O7 O -0.1297(3) 0.0644(2) 1.2218(2)
O8 O -0.1742(3) 0.2532(2) 1.2755(2)
O9 O -0.3836(3) 0.1055(2) 1.2326(2)
O10 O -0.4316(3) 0.2387(2) 1.2539(2)
O11 O 0.5827(3) 0.4164(3) 0.7110(3)
O12 O 0.5161(3) 0.5897(2) 0.7998(2)
O13 O 0.3268(3) 0.4633(2) 0.7127(2)
O14 O 0.2789(3) 0.5807(2) 0.7637(2)
N12 N 0.4985(4) 0.5880(3) 0.6311(3)
H28 H -0.0734 0.0725 1.2343
H29 H -0.1958 0.3023 1.2510
C27 C -0.4555(4) 0.1708(3) 1.2394(3)
H30 H 0.6386 0.4236 0.7248
H31 H 0.5817 0.5742 0.8000
C28 C 0.2544(4) 0.5198(4) 0.7383(3)
C29 C 0.5823(5) 0.6295(4) 0.6057(4)
C30 C 0.4536(6) 0.6047(5) 0.5646(4)
C31 C -0.5711(4) 0.1676(3) 1.2311(3)
C32 C 0.1366(4) 0.5146(3) 0.7403(3)
N13 N 0.5891(4) 0.6673(3) 0.5289(3)
H32 H 0.6318 0.6317 0.6393
N14 N 0.5029(5) 0.6533(5) 0.5004(4)
H33 H 0.3907 0.5835 0.5628
C33 C -0.6547(4) 0.2325(3) 1.2505(3)
C34 C -0.5947(4) 0.0985(3) 1.2046(3)
C35 C 0.0558(4) 0.5591(3) 0.7887(3)
C36 C 0.1077(4) 0.4625(3) 0.6943(3)
C37 C 0.6675(5) 0.7179(4) 0.4742(3)
H34 H -0.6399 0.2783 1.2699
C38 C -0.7609(4) 0.2293(3) 1.2411(3)
C39 C -0.7011(4) 0.0950(3) 1.1968(3)
H35 H -0.5393 0.0543 1.1920
H36 H 0.0738 0.5932 0.8203
C40 C -0.0511(4) 0.5524(4) 0.7896(3)
C41 C 0.0007(4) 0.4548(4) 0.6973(4)
H37 H 0.1615 0.4327 0.6614
C42 C 0.7386(5) 0.7562(4) 0.5146(3)
H38 H 0.6280 0.7652 0.4386
H39 H 0.7143 0.6809 0.4400
H40 H -0.8164 0.2737 1.2532
C43 C -0.7845(4) 0.1603(3) 1.2140(3)
H41 H -0.7163 0.0479 1.1796
H42 H -0.1053 0.5831 0.8215
C44 C -0.0798(4) 0.5012(4) 0.7442(3)
H43 H -0.0176 0.4186 0.6679
C45 C 0.7035(4) 0.8391(4) 0.5334(3)
C46 C 0.8421(5) 0.7125(4) 0.5278(3)
C47 C -0.8992(4) 0.1602(4) 1.2032(3)
C48 C -0.1980(4) 0.4956(4) 0.7448(4)
C49 C 0.7758(5) 0.8817(4) 0.5573(3)
C50 C 0.5878(5) 0.8824(5) 0.5283(4)
C51 C 0.9128(4) 0.7539(4) 0.5540(3)
C52 C 0.8782(6) 0.6218(5) 0.5115(4)
O15 O -0.9225(3) 0.0901(2) 1.1905(2)
O16 O -0.9663(3) 0.2279(3) 1.2066(3)
O17 O -0.2198(3) 0.4348(3) 0.7195(3)
O18 O -0.2667(3) 0.5544(3) 0.7695(3)
C53 C 0.8819(5) 0.8399(4) 0.5647(3)
C54 C 0.7389(6) 0.9718(4) 0.5759(4)
H44 H 0.5684 0.9242 0.5631
H45 H 0.5404 0.8393 0.5458
H46 H 0.5808 0.9114 0.4729
C55 C 1.0220(4) 0.7058(4) 0.5731(3)
H47 H 0.8156 0.5958 0.5123
H48 H 0.9199 0.5873 0.5530
H49 H 0.9222 0.6246 0.4589
C56 C 0.9644(5) 0.8885(5) 0.5820(4)
N15 N 0.7291(4) 1.0387(3) 0.5020(3)
H50 H 0.6691 0.9730 0.6107
H51 H 0.7907 0.9844 0.6056
N16 N 1.1064(4) 0.7173(3) 0.5003(3)
H52 H 1.0424 0.7268 0.6165
H53 H 1.0176 0.6443 0.5923
H54 H 0.9539 0.9476 0.5523
H55 H 1.0366 0.8608 0.5651
H56 H 0.9550 0.8877 0.6395
N17 N 0.6853(5) 1.1226(4) 0.5077(3)
C57 C 0.7574(5) 1.0345(4) 0.4241(3)
N18 N 1.2084(4) 0.6751(4) 0.5028(3)
C58 C 1.0998(4) 0.7687(4) 0.4274(3)
C59 C 0.6877(5) 1.1630(4) 0.4314(4)
H57 H 0.7912 0.9845 0.4051
C60 C 1.2583(5) 0.7047(4) 0.4304(4)
H58 H 1.0367 0.8038 0.4113
H59 H 0.6620 1.2220 0.4158
H60 H 1.3318 0.6868 0.4143
N11_2 N 0.7311(3) 1.1114(3) 0.3766(3)
N2_2 N 1.1956(3) 0.7632(3) 0.3807(3)
Zn2_2 Zn 0.74569(4) 1.16354(4) 0.24683(4)
Zn1_2 Zn 1.22721(4) 0.82703(4) 0.25525(4)
O19 O 0.7319(10) 0.5143(7) 0.9462(6)
loop_
_geom_bond_atom_site_label_1
_geom_bond_atom_site_label_2
_geom_bond_site_symmetry_1
_geom_bond_site_symmetry_2
Zn1 O1 1_555 1_555
O1 C1 1_555 1_555
O2 Zn1 1_555 1_555
O3 Zn1 1_555 1_555
O4 Zn1 1_555 1_555
N1 Zn1 1_555 1_555
N2 Zn1 1_555 1_555
C1 O2 1_555 1_555
H1 O3 1_555 1_555
H2 O4 1_555 1_555
C2 N1 1_555 1_555
C3 N1 1_555 1_555
C4 C1 1_555 1_555
N3 C2 1_555 1_555
H3 C2 1_555 1_555
N4 C3 1_555 1_555
H4 C3 1_555 1_555
C5 C4 1_555 1_555
C6 C4 1_555 1_555
C7 N3 1_555 1_555
H5 C5 1_555 1_555
C8 C5 1_555 1_555
C9 C6 1_555 1_555
H6 C6 1_555 1_555
C10 C7 1_555 1_555
H7 C7 1_555 1_555
H8 C7 1_555 1_555
H9 C8 1_555 1_555
C11 C8 1_555 1_555
H10 C9 1_555 1_555
C12 C10 1_555 1_555
C13 C10 1_555 1_555
C14 C11 1_555 1_555
C15 C12 1_555 1_555
C16 C12 1_555 1_555
C17 C13 1_555 1_555
C18 C13 1_555 1_555
O5 C14 1_555 1_555
O6 C14 1_555 1_555
C19 C15 1_555 1_555
C20 C15 1_555 1_555
H11 C16 1_555 1_555
H12 C16 1_555 1_555
H13 C16 1_555 1_555
C21 C17 1_555 1_555
H14 C18 1_555 1_555
H15 C18 1_555 1_555
H16 C18 1_555 1_555
C22 C19 1_555 1_555
N5 C20 1_555 1_555
H17 C20 1_555 1_555
H18 C20 1_555 1_555
N6 C21 1_555 1_555
H19 C21 1_555 1_555
H20 C21 1_555 1_555
H21 C22 1_555 1_555
H22 C22 1_555 1_555
H23 C22 1_555 1_555
N7 N5 1_555 1_555
C23 N5 1_555 1_555
N8 N6 1_555 1_555
C24 N6 1_555 1_555
C25 N7 1_555 1_555
N9 C23 1_555 1_555
H24 C23 1_555 1_555
C26 N8 1_555 1_555
N10 C24 1_555 1_555
H25 C24 1_555 1_555
N11 Zn2 1_555 1_555
H26 C25 1_555 1_555
Zn2 N9 1_555 1_555
H27 C26 1_555 1_555
Zn3 N10 1_555 1_555
O7 Zn2 1_555 1_555
O8 Zn2 1_555 1_555
O9 Zn2 1_555 1_555
O10 Zn2 1_555 1_555
O11 Zn3 1_555 1_555
O12 Zn3 1_555 1_555
O13 Zn3 1_555 1_555
O14 Zn3 1_555 1_555
N12 Zn3 1_555 1_555
H28 O7 1_555 1_555
H29 O8 1_555 1_555
C27 O9 1_555 1_555
H30 O11 1_555 1_555
H31 O12 1_555 1_555
C28 O13 1_555 1_555
C29 N12 1_555 1_555
C30 N12 1_555 1_555
C31 C27 1_555 1_555
C32 C28 1_555 1_555
N13 C29 1_555 1_555
H32 C29 1_555 1_555
N14 C30 1_555 1_555
H33 C30 1_555 1_555
C33 C31 1_555 1_555
C34 C31 1_555 1_555
C35 C32 1_555 1_555
C36 C32 1_555 1_555
C37 N13 1_555 1_555
H34 C33 1_555 1_555
C38 C33 1_555 1_555
C39 C34 1_555 1_555
H35 C34 1_555 1_555
H36 C35 1_555 1_555
C40 C35 1_555 1_555
C41 C36 1_555 1_555
H37 C36 1_555 1_555
C42 C37 1_555 1_555
H38 C37 1_555 1_555
H39 C37 1_555 1_555
H40 C38 1_555 1_555
C43 C38 1_555 1_555
H41 C39 1_555 1_555
H42 C40 1_555 1_555
C44 C40 1_555 1_555
H43 C41 1_555 1_555
C45 C42 1_555 1_555
C46 C42 1_555 1_555
C47 C43 1_555 1_555
C48 C44 1_555 1_555
C49 C45 1_555 1_555
C50 C45 1_555 1_555
C51 C46 1_555 1_555
C52 C46 1_555 1_555
O15 C47 1_555 1_555
O16 C47 1_555 1_555
O17 C48 1_555 1_555
O18 C48 1_555 1_555
C53 C49 1_555 1_555
C54 C49 1_555 1_555
H44 C50 1_555 1_555
H45 C50 1_555 1_555
H46 C50 1_555 1_555
C55 C51 1_555 1_555
H47 C52 1_555 1_555
H48 C52 1_555 1_555
H49 C52 1_555 1_555
C56 C53 1_555 1_555
N15 C54 1_555 1_555
H50 C54 1_555 1_555
H51 C54 1_555 1_555
N16 C55 1_555 1_555
H52 C55 1_555 1_555
H53 C55 1_555 1_555
H54 C56 1_555 1_555
H55 C56 1_555 1_555
H56 C56 1_555 1_555
N17 N15 1_555 1_555
C57 N15 1_555 1_555
N18 N16 1_555 1_555
C58 N16 1_555 1_555
C59 N17 1_555 1_555
H57 C57 1_555 1_555
C60 N18 1_555 1_555
H58 C58 1_555 1_555
H59 C59 1_555 1_555
H60 C60 1_555 1_555
N11_2 C57 1_555 1_555
N2_2 C58 1_555 1_555
Zn2_2 N11_2 1_555 1_555
Zn1_2 N2_2 1_555 1_555
N3 N4 1_555 1_555
C9 C11 1_555 1_555
C17 C19 1_555 1_555
C25 N9 1_555 1_555
C26 N10 1_555 1_555
O10 C27 1_555 1_555
O14 C28 1_555 1_555
N13 N14 1_555 1_555
C39 C43 1_555 1_555
C41 C44 1_555 1_555
C51 C53 1_555 1_555
C59 N11_2 1_555 1_555
C60 N2_2 1_555 1_555

#END
