
#######################################################################
#
#                 Cambridge Crystallographic Data Centre
#                                CCDC 
#
#######################################################################
#
# If this CIF has been generated from an entry in the Cambridge 
# Structural Database, then it will include bibliographic, chemical, 
# crystal, experimental, refinement or atomic coordinate data resulting 
# from the CCDC's data processing and validation procedures.
#
#######################################################################

data_GIFSOF
_symmetry_cell_setting           orthorhombic
_symmetry_space_group_name_H-M   'P n m a'
_symmetry_Int_Tables_number      62
_space_group_name_Hall           '-P 2ac 2n'
loop_
_symmetry_equiv_pos_site_id
_symmetry_equiv_pos_as_xyz
1 x,y,z
2 1/2-x,-y,1/2+z
3 -x,1/2+y,-z
4 1/2+x,1/2-y,1/2-z
5 -x,-y,-z
6 1/2+x,y,1/2-z
7 x,1/2-y,z
8 1/2-x,1/2+y,1/2+z
_cell_length_a                   20.818(4)
_cell_length_b                   16.299(3)
_cell_length_c                   17.239(3)
_cell_angle_alpha                90
_cell_angle_beta                 90
_cell_angle_gamma                90
_cell_volume                     5849.41
loop_
_atom_site_label
_atom_site_type_symbol
_atom_site_fract_x
_atom_site_fract_y
_atom_site_fract_z
Zn1 Zn 1.06052(4) 0.2500 0.67871(6)
Zn2 Zn 0.99942(4) 0.2500 0.31616(6)
Zn3 Zn 0.56587(5) 0.2500 0.48111(7)
N1 N 0.9649(2) -0.1423(3) 0.7199(3)
N2 N 0.9380(3) -0.0312(3) 0.7882(3)
N3 N 0.9174(2) -0.0248(3) 0.7138(3)
N4 N 0.9087(3) 0.0054(4) 0.2773(4)
N5 N 0.9297(2) -0.1218(3) 0.3198(3)
N6 N 0.8903(3) -0.0052(4) 0.3527(3)
N7 N 0.5873(2) 0.1339(4) 0.5146(3)
N8 N 0.5715(3) 0.0072(4) 0.5585(4)
N9 N 0.6358(2) 0.0202(4) 0.5461(3)
C1 C 1.4167(4) 0.2500 0.7528(5)
C2 C 1.3523(4) 0.2500 0.7941(5)
C3 C 1.3503(4) 0.2500 0.8739(5)
H1 H 1.3883 0.2500 0.9023
C4 C 1.2918(4) 0.2500 0.9117(5)
H2 H 1.2906 0.2500 0.9657
C5 C 1.2344(4) 0.2500 0.8695(5)
H3 H 1.1952 0.2500 0.8953
C6 C 1.2361(4) 0.2500 0.7898(5)
C7 C 1.2953(4) 0.2500 0.7523(5)
H4 H 1.2967 0.2500 0.6983
C8 C 1.1736(4) 0.2500 0.7449(6)
C9 C 0.9330(3) -0.0909(4) 0.6741(4)
H5 H 0.9232 -0.1002 0.6222
C10 C 0.9664(3) -0.1023(4) 0.7895(4)
H6 H 0.9859 -0.1238 0.8336
C11 C 0.8869(3) 0.0510(4) 0.6835(4)
H7 H 0.8592 0.0741 0.7232
H8 H 0.9199 0.0910 0.6717
C12 C 0.9321(3) -0.0668(5) 0.2614(4)
H9 H 0.9493 -0.0795 0.2131
C13 C 0.9035(3) -0.0804(4) 0.3769(4)
H10 H 0.8956 -0.1006 0.4265
C14 C 0.8602(4) 0.0644(4) 0.3923(5)
H11 H 0.8244 0.0843 0.3616
H12 H 0.8911 0.1086 0.3975
C15 C 0.8362(4) 0.0390(4) 0.4726(4)
C16 C 0.8740(3) 0.0532(4) 0.5393(5)
C17 C 0.8480(3) 0.0344(4) 0.6118(4)
C18 C 0.7851(3) 0.0034(4) 0.6193(4)
C19 C 0.7495(3) -0.0120(4) 0.5521(4)
C20 C 0.7755(3) 0.0046(4) 0.4789(4)
C21 C 0.7387(4) -0.0149(6) 0.4050(5)
H13 H 0.7213 0.0348 0.3838
H14 H 0.7045 -0.0523 0.4166
H15 H 0.7673 -0.0395 0.3679
C22 C 0.6824(3) -0.0461(4) 0.5576(5)
H16 H 0.6762 -0.0880 0.5184
H17 H 0.6760 -0.0710 0.6081
C23 C 0.9417(4) 0.0845(5) 0.5298(6)
H18 H 0.9517 0.1213 0.5715
H19 H 0.9454 0.1129 0.4813
H20 H 0.9710 0.0391 0.5306
C24 C 0.7577(4) -0.0118(5) 0.6987(4)
H21 H 0.7916 -0.0272 0.7335
H22 H 0.7266 -0.0552 0.6960
H23 H 0.7373 0.0373 0.7172
C25 C 0.6433(3) 0.0955(4) 0.5209(4)
H24 H 0.6828 0.1190 0.5089
C26 C 0.5447(3) 0.0783(5) 0.5375(5)
H25 H 0.5006 0.0879 0.5387
C27 C 0.6667(4) 0.2500 0.3806(6)
C28 C 0.7068(4) 0.2500 0.3079(5)
C29 C 0.6799(4) 0.2500 0.2347(6)
H26 H 0.6354 0.2500 0.2295
C30 C 0.7175(5) 0.2500 0.1698(6)
H27 H 0.6982 0.2500 0.1212
C31 C 0.7833(4) 0.2500 0.1753(5)
H28 H 0.8081 0.2500 0.1305
C32 C 0.8123(4) 0.2500 0.2463(5)
C33 C 0.7743(4) 0.2500 0.3131(5)
H29 H 0.7938 0.2500 0.3617
C34 C 0.8832(4) 0.2500 0.2546(5)
O1 O 1.1756(3) 0.2500 0.6715(4)
O2 O 1.1216(3) 0.2500 0.7816(4)
O3 O 1.4178(4) 0.2500 0.6831(5)
O4 O 1.4656(3) 0.2500 0.7935(4)
O5 O 1.1112(2) 0.1764(3) 0.4727(3)
O6 O 1.0431(3) 0.2500 0.5626(3)
O7 O 1.0180(3) 0.2500 0.4282(3)
O8 O 0.9195(3) 0.2500 0.1973(4)
O9 O 0.9053(2) 0.2500 0.3237(3)
O10 O 0.6938(3) 0.2500 0.4445(4)
O11 O 0.6060(3) 0.2500 0.3724(4)
O12 O 0.4733(3) 0.2500 0.4457(4)
H30 H 0.4495 0.2497 0.4836
O13 O 0.5253(3) 0.2500 0.6079(4)
S1 S 1.07252(10) 0.2500 0.48412(12)
H31 H 0.4495 0.2503 0.4836
O5F O 1.1112(2) 0.3236(3) 0.4727(3)
N1D N 1.0351(2) 0.1423(3) 0.2801(3)
N2D N 1.0620(3) 0.0312(3) 0.2118(3)
N3D N 1.0826(2) 0.0248(3) 0.2862(3)
N4D N 1.0913(3) -0.0054(4) 0.7227(4)
N5D N 1.0703(2) 0.1218(3) 0.6802(3)
N6D N 1.1097(3) 0.0052(4) 0.6473(3)
N7D N 1.4127(2) -0.1339(4) 0.4854(3)
N8D N 1.4285(3) -0.0072(4) 0.4415(4)
N9D N 1.3642(2) -0.0202(4) 0.4539(3)
C9D C 1.0670(3) 0.0909(4) 0.3259(4)
H5D H 1.0768 0.1002 0.3778
C10D C 1.0336(3) 0.1023(4) 0.2105(4)
H6D H 1.0141 0.1238 0.1664
C11D C 1.1131(3) -0.0510(4) 0.3165(4)
H7D H 1.1408 -0.0741 0.2768
H8D H 1.0801 -0.0910 0.3283
C12D C 1.0679(3) 0.0668(5) 0.7386(4)
H9D H 1.0507 0.0795 0.7869
C13D C 1.0965(3) 0.0804(4) 0.6231(4)
H10D H 1.1044 0.1006 0.5735
C14D C 1.1398(4) -0.0644(4) 0.6077(5)
H11D H 1.1756 -0.0843 0.6384
H12D H 1.1089 -0.1086 0.6025
C15D C 1.1638(4) -0.0390(4) 0.5274(4)
C16D C 1.1260(3) -0.0532(4) 0.4607(5)
C17D C 1.1520(3) -0.0344(4) 0.3882(4)
C18D C 1.2149(3) -0.0034(4) 0.3807(4)
C19D C 1.2505(3) 0.0120(4) 0.4479(4)
C20D C 1.2245(3) -0.0046(4) 0.5211(4)
C21D C 1.2613(4) 0.0149(6) 0.5950(5)
H13D H 1.2787 -0.0348 0.6162
H14D H 1.2955 0.0523 0.5834
H15D H 1.2327 0.0395 0.6321
C22D C 1.3176(3) 0.0461(4) 0.4424(5)
H16D H 1.3238 0.0880 0.4816
H17D H 1.3240 0.0710 0.3919
C23D C 1.0583(4) -0.0845(5) 0.4702(6)
H18D H 1.0483 -0.1213 0.4285
H19D H 1.0546 -0.1129 0.5187
H20D H 1.0290 -0.0391 0.4694
C24D C 1.2423(4) 0.0118(5) 0.3013(4)
H21D H 1.2084 0.0272 0.2665
H22D H 1.2734 0.0552 0.3040
H23D H 1.2627 -0.0373 0.2828
C25D C 1.3567(3) -0.0955(4) 0.4791(4)
H24D H 1.3172 -0.1190 0.4911
C26D C 1.4553(3) -0.0783(5) 0.4625(5)
H25D H 1.4994 -0.0879 0.4613
Zn1B Zn 0.93948(4) -0.2500 0.32129(6)
Zn1C Zn 1.56052(4) 0.2500 0.82129(6)
Zn2B Zn 1.00058(4) -0.2500 0.68384(6)
Zn3B Zn 1.43413(5) -0.2500 0.51889(7)
N1B N 1.0351(2) 0.3577(3) 0.2801(3)
N5B N 1.0703(2) 0.3782(3) 0.6802(3)
N7F N 0.5873(2) 0.3661(4) 0.5146(3)
O4C O 0.9656(3) 0.2500 0.7065(4)
O14 O 0.3686(4) 0.2500 0.5371(5)
O15 O 0.2424(4) 0.2500 0.5379(5)
loop_
_geom_bond_atom_site_label_1
_geom_bond_atom_site_label_2
_geom_bond_site_symmetry_1
_geom_bond_site_symmetry_2
Zn1 O1 1_555 1_555
Zn2 O7 1_555 1_555
Zn3 N7 1_555 1_555
N1 C9 1_555 1_555
N2 N3 1_555 1_555
N3 C9 1_555 1_555
N4 N6 1_555 1_555
N5 C12 1_555 1_555
N6 C13 1_555 1_555
N7 C25 1_555 1_555
N8 N9 1_555 1_555
N9 C22 1_555 1_555
C1 C2 1_555 1_555
C2 C3 1_555 1_555
C3 H1 1_555 1_555
C4 C3 1_555 1_555
H2 C4 1_555 1_555
C5 C4 1_555 1_555
H3 C5 1_555 1_555
C6 C5 1_555 1_555
C7 C2 1_555 1_555
H4 C7 1_555 1_555
C8 C6 1_555 1_555
C9 H5 1_555 1_555
C10 N1 1_555 1_555
H6 C10 1_555 1_555
C11 N3 1_555 1_555
H7 C11 1_555 1_555
H8 C11 1_555 1_555
C12 N4 1_555 1_555
H9 C12 1_555 1_555
C13 N5 1_555 1_555
H10 C13 1_555 1_555
C14 N6 1_555 1_555
H11 C14 1_555 1_555
H12 C14 1_555 1_555
C15 C14 1_555 1_555
C16 C15 1_555 1_555
C17 C11 1_555 1_555
C18 C17 1_555 1_555
C19 C18 1_555 1_555
C20 C15 1_555 1_555
C21 C20 1_555 1_555
H13 C21 1_555 1_555
H14 C21 1_555 1_555
H15 C21 1_555 1_555
C22 C19 1_555 1_555
H16 C22 1_555 1_555
H17 C22 1_555 1_555
C23 C16 1_555 1_555
H18 C23 1_555 1_555
H19 C23 1_555 1_555
H20 C23 1_555 1_555
C24 C18 1_555 1_555
H21 C24 1_555 1_555
H22 C24 1_555 1_555
H23 C24 1_555 1_555
C25 N9 1_555 1_555
H24 C25 1_555 1_555
C26 N7 1_555 1_555
H25 C26 1_555 1_555
C27 C28 1_555 1_555
C28 C29 1_555 1_555
C29 H26 1_555 1_555
C30 C29 1_555 1_555
H27 C30 1_555 1_555
C31 C30 1_555 1_555
H28 C31 1_555 1_555
C32 C31 1_555 1_555
C33 C28 1_555 1_555
H29 C33 1_555 1_555
C34 C32 1_555 1_555
O1 C8 1_555 1_555
O2 Zn1 1_555 1_555
O3 C1 1_555 1_555
O4 C1 1_555 1_555
O5 S1 1_555 1_555
O6 Zn1 1_555 1_555
O7 S1 1_555 1_555
O8 C34 1_555 1_555
O9 Zn2 1_555 1_555
O10 C27 1_555 1_555
O11 Zn3 1_555 1_555
O12 Zn3 1_555 1_555
H30 O12 1_555 1_555
O13 Zn3 1_555 1_555
S1 O6 1_555 1_555
H31 O12 1_555 1_555
O5F S1 1_555 1_555
N1D Zn2 1_555 1_555
N2D N3D 1_555 1_555
N3D C9D 1_555 1_555
N4D N6D 1_555 1_555
N5D Zn1 1_555 1_555
N6D C13D 1_555 1_555
N7D C25D 1_555 1_555
N8D N9D 1_555 1_555
N9D C22D 1_555 1_555
C9D N1D 1_555 1_555
H5D C9D 1_555 1_555
C10D N1D 1_555 1_555
H6D C10D 1_555 1_555
C11D N3D 1_555 1_555
H7D C11D 1_555 1_555
H8D C11D 1_555 1_555
C12D N4D 1_555 1_555
H9D C12D 1_555 1_555
C13D N5D 1_555 1_555
H10D C13D 1_555 1_555
C14D N6D 1_555 1_555
H11D C14D 1_555 1_555
H12D C14D 1_555 1_555
C15D C14D 1_555 1_555
C16D C15D 1_555 1_555
C17D C11D 1_555 1_555
C18D C17D 1_555 1_555
C19D C18D 1_555 1_555
C20D C15D 1_555 1_555
C21D C20D 1_555 1_555
H13D C21D 1_555 1_555
H14D C21D 1_555 1_555
H15D C21D 1_555 1_555
C22D C19D 1_555 1_555
H16D C22D 1_555 1_555
H17D C22D 1_555 1_555
C23D C16D 1_555 1_555
H18D C23D 1_555 1_555
H19D C23D 1_555 1_555
H20D C23D 1_555 1_555
C24D C18D 1_555 1_555
H21D C24D 1_555 1_555
H22D C24D 1_555 1_555
H23D C24D 1_555 1_555
C25D N9D 1_555 1_555
H24D C25D 1_555 1_555
C26D N7D 1_555 1_555
H25D C26D 1_555 1_555
Zn1B N5 1_555 1_555
Zn1C O4 1_555 1_555
Zn2B N1 1_555 1_555
Zn3B N7D 1_555 1_555
N1B Zn2 1_555 1_555
N5B Zn1 1_555 1_555
N7F Zn3 1_555 1_555
O4C Zn1 1_555 1_555
N2 C10 1_555 1_555
N8 C26 1_555 1_555
C6 C7 1_555 1_555
C8 O2 1_555 1_555
C16 C17 1_555 1_555
C19 C20 1_555 1_555
C27 O11 1_555 1_555
C32 C33 1_555 1_555
C34 O9 1_555 1_555
N2D C10D 1_555 1_555
N5D C12D 1_555 1_555
N8D C26D 1_555 1_555
C16D C17D 1_555 1_555
C19D C20D 1_555 1_555

#END
