
#######################################################################
#
#                 Cambridge Crystallographic Data Centre
#                                CCDC 
#
#######################################################################
#
# If this CIF has been generated from an entry in the Cambridge 
# Structural Database, then it will include bibliographic, chemical, 
# crystal, experimental, refinement or atomic coordinate data resulting 
# from the CCDC's data processing and validation procedures.
#
#######################################################################

data_GIFTAS
_symmetry_cell_setting           triclinic
_symmetry_space_group_name_H-M   'P -1'
_symmetry_Int_Tables_number      2
_space_group_name_Hall           '-P 1'
loop_
_symmetry_equiv_pos_site_id
_symmetry_equiv_pos_as_xyz
1 x,y,z
2 -x,-y,-z
_cell_length_a                   9.916(2)
_cell_length_b                   10.291(2)
_cell_length_c                   10.700(2)
_cell_angle_alpha                111.07(3)
_cell_angle_beta                 101.56(3)
_cell_angle_gamma                97.93(3)
_cell_volume                     971.524
loop_
_atom_site_label
_atom_site_type_symbol
_atom_site_fract_x
_atom_site_fract_y
_atom_site_fract_z
Cd1 Cd 0.410803(14) 0.798748(15) 0.238086(15)
N1 N 0.38801(19) 0.82641(19) 0.02959(19)
N2 N 0.4225(2) 0.7997(2) -0.1763(2)
H1 H 0.4657 0.7907 -0.2400
N3 N 0.65964(18) 0.67312(19) -0.03142(19)
N4 N 0.7897(2) 0.6598(2) 0.0252(2)
N5 N 0.65052(19) 0.44500(19) -0.1185(2)
O1 O 0.64900(16) 0.76168(17) 0.30481(19)
O2 O 0.62239(15) 0.98135(17) 0.36500(16)
O3 O 0.70378(15) 1.01692(17) 0.65858(17)
O4 O 0.83674(17) 1.23455(17) 0.74381(17)
O5 O 0.41541(18) 0.76581(18) 0.45401(18)
H2 H 0.4982 0.7643 0.4922
H3 H 0.3957 0.8387 0.5104
C1 C 0.6979(2) 0.8934(2) 0.3688(2)
C2 C 0.9478(2) 0.8955(2) 0.3661(2)
H4 H 0.9129 0.8246 0.2766
C3 C 0.85433(19) 0.9472(2) 0.4420(2)
C4 C 0.90670(19) 1.0513(2) 0.5774(2)
C5 C 0.8101(2) 1.1046(2) 0.6663(2)
C6 C 0.2609(2) 0.8205(2) -0.0597(2)
C7 C 0.1284(3) 0.8309(3) -0.0364(3)
H5 H 0.1127 0.8430 0.0495
C8 C 0.0224(3) 0.8227(3) -0.1452(3)
H6 H -0.0662 0.8316 -0.1317
C9 C 0.0433(3) 0.8012(3) -0.2760(3)
H7 H -0.0321 0.7939 -0.3476
C10 C 0.1729(3) 0.7908(3) -0.3009(3)
H8 H 0.1873 0.7765 -0.3877
C11 C 0.2817(2) 0.8026(2) -0.1895(2)
C12 C 0.4796(2) 0.8132(2) -0.0463(2)
C13 C 0.6324(2) 0.8167(2) 0.0047(2)
H9 H 0.6878 0.8682 -0.0352
H10 H 0.6630 0.8682 0.1050
C14 C 0.5787(2) 0.5451(2) -0.1166(2)
H11 H 0.4855 0.5281 -0.1674
C15 C 0.7786(3) 0.5221(3) -0.0299(3)
H12 H 0.8527 0.4800 -0.0100
O1A O 1.35100(16) 1.23832(17) 0.69519(19)
O2A O 1.37761(15) 1.01865(17) 0.63500(16)
O3A O 1.29622(15) 0.98308(17) 0.34142(17)
O4A O 1.16326(17) 0.76545(17) 0.25619(17)
C1A C 1.3021(2) 1.1066(2) 0.6312(2)
C2A C 1.0522(2) 1.1045(2) 0.6339(2)
H4A H 1.0871 1.1754 0.7234
C3A C 1.14567(19) 1.0528(2) 0.5580(2)
C4A C 1.09330(19) 0.9487(2) 0.4226(2)
C5A C 1.1899(2) 0.8954(2) 0.3337(2)
Cd1A Cd 0.589197(14) 0.201252(15) -0.238086(15)
N1A N 0.61199(19) 0.17359(19) -0.02959(19)
N2A N 0.5775(2) 0.2003(2) 0.1763(2)
H1A H 0.5343 0.2093 0.2400
N3A N 0.34036(18) 0.32688(19) 0.03142(19)
N4A N 0.2103(2) 0.3402(2) -0.0252(2)
N5A N 0.34948(19) 0.55500(19) 0.1185(2)
O5A O 0.58459(18) 0.23419(18) -0.45401(18)
H2A H 0.5018 0.2357 -0.4922
H3A H 0.6043 0.1613 -0.5104
C6A C 0.7391(2) 0.1795(2) 0.0597(2)
C7A C 0.8716(3) 0.1691(3) 0.0364(3)
H5A H 0.8873 0.1570 -0.0495
C8A C 0.9776(3) 0.1773(3) 0.1452(3)
H6A H 1.0662 0.1684 0.1317
C9A C 0.9567(3) 0.1988(3) 0.2760(3)
H7A H 1.0321 0.2061 0.3476
C10A C 0.8271(3) 0.2092(3) 0.3009(3)
H8A H 0.8127 0.2235 0.3877
C11A C 0.7183(2) 0.1974(2) 0.1895(2)
C12A C 0.5204(2) 0.1868(2) 0.0463(2)
C13A C 0.3676(2) 0.1833(2) -0.0047(2)
H9A H 0.3122 0.1318 0.0352
H10A H 0.3370 0.1318 -0.1050
C14A C 0.4213(2) 0.4549(2) 0.1166(2)
H11A H 0.5145 0.4719 0.1674
C15A C 0.2214(3) 0.4779(3) 0.0299(3)
H12A H 0.1473 0.5200 0.0100
Cd1_2 Cd 1.410803(14) 0.798748(15) 0.238086(15)
Cd1A_2 Cd 0.589197(14) 1.201252(15) 0.761914(15)
Cd1A_3 Cd 1.589197(14) 1.201252(15) 0.761914(15)
O1A_2 O 0.35100(16) 0.23832(17) -0.30481(19)
O2A_2 O 0.37761(15) 0.01865(17) -0.36500(16)
O3_2 O 0.70378(15) 0.01692(17) -0.34142(17)
O3A_2 O 0.29622(15) 0.98308(17) 0.34142(17)
O4_2 O 0.83674(17) 0.23455(17) -0.25619(17)
O4A_2 O 0.16326(17) 0.76545(17) 0.25619(17)
O6 O 0.3696(2) 0.2410(2) 0.3233(2)
H13 H 0.3186 0.1664 0.3195
H14 H 0.3347 0.3134 0.3471
O7 O 0.2508(2) 0.4652(2) 0.6648(3)
H15 H 0.2603 0.3870 0.6711
H16 H 0.2242 0.4550 0.5815
O8 O 0.2619(3) 0.4789(2) 0.4128(3)
H17 H 0.3373 0.5401 0.4662
H18 H 0.2028 0.5319 0.4203
O9 O 0.9966(3) 0.4683(3) 0.7299(3)
H19 H 0.9471 0.3965 0.7342
H20 H 1.0752 0.4677 0.7097
loop_
_geom_bond_atom_site_label_1
_geom_bond_atom_site_label_2
_geom_bond_site_symmetry_1
_geom_bond_site_symmetry_2
Cd1 N1 1_555 1_555
N1 C6 1_555 1_555
N2 H1 1_555 1_555
N3 N4 1_555 1_555
N4 C15 1_555 1_555
N5 C14 1_555 1_555
O1 Cd1 1_555 1_555
O2 Cd1 1_555 1_555
O3 C5 1_555 1_555
O4 C5 1_555 1_555
O5 Cd1 1_555 1_555
H2 O5 1_555 1_555
H3 O5 1_555 1_555
C1 O1 1_555 1_555
C2 H4 1_555 1_555
C3 C1 1_555 1_555
C4 C3 1_555 1_555
C5 C4 1_555 1_555
C6 C7 1_555 1_555
C7 H5 1_555 1_555
C8 C7 1_555 1_555
H6 C8 1_555 1_555
C9 C8 1_555 1_555
H7 C9 1_555 1_555
C10 C9 1_555 1_555
H8 C10 1_555 1_555
C11 N2 1_555 1_555
C12 N1 1_555 1_555
C13 N3 1_555 1_555
H9 C13 1_555 1_555
H10 C13 1_555 1_555
C14 N3 1_555 1_555
H11 C14 1_555 1_555
C15 N5 1_555 1_555
H12 C15 1_555 1_555
O6 H13 1_555 1_555
H14 O6 1_555 1_555
O7 H15 1_555 1_555
H16 O7 1_555 1_555
O8 H17 1_555 1_555
H18 O8 1_555 1_555
O9 H19 1_555 1_555
H20 O9 1_555 1_555
O1A C1A 1_555 1_555
O2A C1A 1_555 1_555
O3A C5A 1_555 1_555
O4A C5A 1_555 1_555
C1A C3A 1_555 1_555
C2A C4 1_555 1_555
H4A C2A 1_555 1_555
C3A C2A 1_555 1_555
C4A C2 1_555 1_555
C5A C4A 1_555 1_555
Cd1A N5 1_555 1_555
N1A Cd1A 1_555 1_555
N2A H1A 1_555 1_555
N3A N4A 1_555 1_555
N4A C15A 1_555 1_555
N5A Cd1 1_555 1_555
O5A Cd1A 1_555 1_555
H2A O5A 1_555 1_555
H3A O5A 1_555 1_555
C6A N1A 1_555 1_555
C7A C6A 1_555 1_555
H5A C7A 1_555 1_555
C8A C7A 1_555 1_555
H6A C8A 1_555 1_555
C9A C8A 1_555 1_555
H7A C9A 1_555 1_555
C10A C9A 1_555 1_555
H8A C10A 1_555 1_555
C11A N2A 1_555 1_555
C12A N1A 1_555 1_555
C13A N3A 1_555 1_555
H9A C13A 1_555 1_555
H10A C13A 1_555 1_555
C14A N3A 1_555 1_555
H11A C14A 1_555 1_555
C15A N5A 1_555 1_555
H12A C15A 1_555 1_555
Cd1_2 O3A 1_555 1_555
Cd1A_2 O3 1_555 1_555
Cd1A_3 O1A 1_555 1_555
O1A_2 Cd1A 1_555 1_555
O2A_2 Cd1A 1_555 1_555
O3_2 Cd1A 1_555 1_555
O3A_2 Cd1 1_555 1_555
O4_2 Cd1A 1_555 1_555
O4A_2 Cd1 1_555 1_555
N2 C12 1_555 1_555
O2 C1 1_555 1_555
O4 Cd1A_2 1_555 1_555
C2 C3 1_555 1_555
C6 C11 1_555 1_555
C10 C11 1_555 1_555
C12 C13 1_555 1_555
O2A Cd1A_3 1_555 1_555
O4A Cd1_2 1_555 1_555
C3A C4A 1_555 1_555
N2A C12A 1_555 1_555
N5A C14A 1_555 1_555
C6A C11A 1_555 1_555
C10A C11A 1_555 1_555
C12A C13A 1_555 1_555

#END
