
#######################################################################
#
#                 Cambridge Crystallographic Data Centre
#                                CCDC 
#
#######################################################################
#
# If this CIF has been generated from an entry in the Cambridge 
# Structural Database, then it will include bibliographic, chemical, 
# crystal, experimental, refinement or atomic coordinate data resulting 
# from the CCDC's data processing and validation procedures.
#
#######################################################################

data_GIFVAU
_symmetry_cell_setting           monoclinic
_symmetry_space_group_name_H-M   'P 21/n'
_symmetry_Int_Tables_number      14
_space_group_name_Hall           '-P 2yn'
loop_
_symmetry_equiv_pos_site_id
_symmetry_equiv_pos_as_xyz
1 x,y,z
2 1/2-x,1/2+y,1/2-z
3 -x,-y,-z
4 1/2+x,1/2-y,1/2+z
_cell_length_a                   10.2782(8)
_cell_length_b                   6.7755(5)
_cell_length_c                   29.893(2)
_cell_angle_alpha                90
_cell_angle_beta                 91.903(2)
_cell_angle_gamma                90
_cell_volume                     2080.6
loop_
_atom_site_label
_atom_site_type_symbol
_atom_site_fract_x
_atom_site_fract_y
_atom_site_fract_z
Ag1 Ag 1.02298(4) 0.21526(9) 0.171107(18)
F1 F 1.3069(7) 0.2518(17) 0.0082(2)
F2 F 1.1350(13) 0.391(2) 0.0116(3)
F3 F 1.1367(12) 0.117(2) 0.0107(3)
O1 O 1.1277(8) 0.1739(17) 0.0940(2)
O2 O 1.2985(8) 0.3511(13) 0.0955(2)
N1 N 0.8291(5) 0.2151(7) 0.12750(17)
N2 N 0.8399(4) 0.2309(6) 0.21797(16)
N3 N 0.8198(4) 0.2270(6) 0.26283(16)
N4 N 0.6300(4) 0.2287(6) 0.22701(13)
N5 N 0.5083(5) 0.2089(8) 0.31548(17)
N6 N 0.2290(4) 0.2174(7) 0.19658(15)
C1 C 0.8307(7) 0.2178(10) 0.0831(2)
H1 H 0.9100 0.2007 0.0695
C2 C 0.7225(7) 0.2444(11) 0.0566(2)
H2 H 0.7272 0.2428 0.0256
C3 C 0.6058(7) 0.2737(13) 0.0766(2)
H3 H 0.5301 0.2955 0.0594
C4 C 0.6031(6) 0.2701(11) 0.1223(2)
H4 H 0.5251 0.2899 0.1366
C5 C 0.7150(5) 0.2376(7) 0.14691(18)
C6 C 0.7262(4) 0.2324(7) 0.19653(17)
C7 C 0.6939(5) 0.2266(7) 0.26836(17)
C8 C 0.6373(5) 0.2211(7) 0.31250(17)
C9 C 0.4614(7) 0.2043(11) 0.3567(2)
H5 H 0.3716 0.1959 0.3592
C10 C 0.5365(7) 0.2112(11) 0.3953(2)
H6 H 0.4988 0.2082 0.4232
C11 C 0.6691(7) 0.2228(9) 0.3917(2)
H7 H 0.7231 0.2289 0.4173
C12 C 0.7211(6) 0.2252(8) 0.3503(2)
H8 H 0.8108 0.2296 0.3472
C13 C 0.4909(4) 0.2249(7) 0.21726(15)
C14 C 0.4199(5) 0.3955(8) 0.21829(19)
H9 H 0.4589 0.5154 0.2258
C15 C 0.2890(5) 0.3833(9) 0.20782(19)
H10 H 0.2398 0.4984 0.2087
C16 C 0.3004(5) 0.0551(9) 0.1957(2)
H11 H 0.2593 -0.0626 0.1878
C17 C 0.4330(5) 0.0501(8) 0.20575(19)
H12 H 0.4802 -0.0668 0.2047
C18 C 1.2141(7) 0.2576(15) 0.0776(3)
C19 C 1.2069(10) 0.254(2) 0.0285(3)
Ag1_2 Ag 0.02298(4) 0.21526(9) 0.171107(18)
N6_2 N 1.2290(4) 0.2174(7) 0.19658(15)
O3 O 0.4025(9) 0.6977(11) 0.1279(2)
H13 H 0.3698 0.5903 0.1218
C20 C 0.4192(16) 0.7965(19) 0.0912(6)
H14 H 0.5060 0.8488 0.0914
H15 H 0.3577 0.9030 0.0893
H16 H 0.4062 0.7106 0.0659
loop_
_geom_bond_atom_site_label_1
_geom_bond_atom_site_label_2
_geom_bond_site_symmetry_1
_geom_bond_site_symmetry_2
Ag1 O1 1_555 1_555
F1 C19 1_555 1_555
F2 C19 1_555 1_555
F3 C19 1_555 1_555
O1 C18 1_555 1_555
O2 C18 1_555 1_555
N1 Ag1 1_555 1_555
N2 Ag1 1_555 1_555
N3 N2 1_555 1_555
N4 C6 1_555 1_555
N5 C8 1_555 1_555
N6 C15 1_555 1_555
C1 N1 1_555 1_555
H1 C1 1_555 1_555
C2 C1 1_555 1_555
H2 C2 1_555 1_555
C3 C2 1_555 1_555
H3 C3 1_555 1_555
C4 C3 1_555 1_555
H4 C4 1_555 1_555
C5 N1 1_555 1_555
C6 N2 1_555 1_555
C7 N3 1_555 1_555
C8 C7 1_555 1_555
C9 N5 1_555 1_555
H5 C9 1_555 1_555
C10 C9 1_555 1_555
H6 C10 1_555 1_555
C11 C10 1_555 1_555
H7 C11 1_555 1_555
C12 C8 1_555 1_555
H8 C12 1_555 1_555
C13 N4 1_555 1_555
C14 C13 1_555 1_555
H9 C14 1_555 1_555
C15 C14 1_555 1_555
H10 C15 1_555 1_555
C16 N6 1_555 1_555
H11 C16 1_555 1_555
C17 C13 1_555 1_555
H12 C17 1_555 1_555
C18 C19 1_555 1_555
O3 H13 1_555 1_555
C20 O3 1_555 1_555
H14 C20 1_555 1_555
H15 C20 1_555 1_555
H16 C20 1_555 1_555
Ag1_2 N6 1_555 1_555
N6_2 Ag1 1_555 1_555
N4 C7 1_555 1_555
C4 C5 1_555 1_555
C5 C6 1_555 1_555
C11 C12 1_555 1_555
C16 C17 1_555 1_555

#END
