
#######################################################################
#
#                 Cambridge Crystallographic Data Centre
#                                CCDC 
#
#######################################################################
#
# If this CIF has been generated from an entry in the Cambridge 
# Structural Database, then it will include bibliographic, chemical, 
# crystal, experimental, refinement or atomic coordinate data resulting 
# from the CCDC's data processing and validation procedures.
#
#######################################################################

data_GIFYUR
_symmetry_cell_setting           monoclinic
_symmetry_space_group_name_H-M   'P 21/c'
_symmetry_Int_Tables_number      14
_space_group_name_Hall           '-P 2ybc'
loop_
_symmetry_equiv_pos_site_id
_symmetry_equiv_pos_as_xyz
1 x,y,z
2 -x,1/2+y,1/2-z
3 -x,-y,-z
4 x,1/2-y,1/2+z
_cell_length_a                   8.4848(3)
_cell_length_b                   20.3374(7)
_cell_length_c                   13.1364(4)
_cell_angle_alpha                90
_cell_angle_beta                 92.548(2)
_cell_angle_gamma                90
_cell_volume                     2264.56
loop_
_atom_site_label
_atom_site_type_symbol
_atom_site_fract_x
_atom_site_fract_y
_atom_site_fract_z
I1 I 0.51390(5) 0.44867(2) 0.85098(3)
I2 I 0.94489(5) 0.44985(2) 0.66795(3)
Cu1 Cu 0.81010(11) 0.44878(4) 0.83941(7)
Cu2 Cu 0.64703(11) 0.44888(4) 0.67774(7)
N1 N 0.9691(6) 0.4341(3) 0.9591(4)
N2 N 0.4840(6) 0.4396(2) 0.5594(4)
C1 C 0.8649(7) 0.2547(3) 0.9290(5)
C2 C 0.9592(8) 0.2021(3) 0.9653(5)
H1 H 1.0209 0.2072 1.0269
C3 C 0.9637(8) 0.1434(3) 0.9132(5)
H2 H 1.0295 0.1089 0.9390
C4 C 0.8733(8) 0.1339(4) 0.8232(5)
H3 H 0.8778 0.0936 0.7868
C5 C 0.7760(9) 0.1852(4) 0.7880(6)
H4 H 0.7097 0.1793 0.7285
C6 C 0.7756(8) 0.2440(4) 0.8386(5)
H5 H 0.7122 0.2788 0.8112
C7 C 0.8634(8) 0.3196(3) 0.9824(5)
H6 H 0.8638 0.3121 1.0568
H7 H 0.7647 0.3431 0.9622
C8 C 1.0045(8) 0.3631(3) 0.9582(5)
H8 H 1.0919 0.3541 1.0088
H9 H 1.0412 0.3510 0.8902
C9 C 1.1153(7) 0.4717(3) 0.9412(5)
H10 H 1.1563 0.4584 0.8749
H11 H 1.1963 0.4606 0.9951
C10 C 0.9115(8) 0.4555(3) 1.0589(5)
H12 H 0.9901 0.4439 1.1139
H13 H 0.8117 0.4326 1.0723
C11 C 0.5582(8) 0.4401(3) 0.4589(5)
H14 H 0.4772 0.4307 0.4043
H15 H 0.6394 0.4052 0.4576
C12 C 0.3669(7) 0.4942(3) 0.5607(5)
H16 H 0.3182 0.4952 0.6278
H17 H 0.2821 0.4860 0.5080
C13 C 0.4004(7) 0.3762(3) 0.5738(5)
H18 H 0.3281 0.3680 0.5139
H19 H 0.3358 0.3796 0.6345
C14 C 0.5139(8) 0.3181(3) 0.5874(6)
H20 H 0.5562 0.3070 0.5205
H21 H 0.6039 0.3315 0.6334
C15 C 0.4379(8) 0.2576(3) 0.6305(5)
C16 C 0.4482(7) 0.1975(3) 0.5812(5)
H22 H 0.4976 0.1954 0.5178
C17 C 0.3888(8) 0.1408(3) 0.6217(6)
H23 H 0.4009 0.0999 0.5879
C18 C 0.3109(9) 0.1436(4) 0.7126(6)
H24 H 0.2689 0.1047 0.7409
C19 C 0.2947(10) 0.2031(4) 0.7617(6)
H25 H 0.2409 0.2054 0.8235
C20 C 0.3579(9) 0.2599(4) 0.7200(6)
H26 H 0.3457 0.3008 0.7536
N1B N 1.0309(6) 0.5659(3) 1.0409(4)
C1B C 1.1351(7) 0.7453(3) 1.0710(5)
C2B C 1.0408(8) 0.7979(3) 1.0347(5)
H1B H 0.9791 0.7928 0.9731
C3B C 1.0363(8) 0.8566(3) 1.0868(5)
H2B H 0.9705 0.8911 1.0610
C4B C 1.1267(8) 0.8661(4) 1.1768(5)
H3B H 1.1222 0.9064 1.2132
C5B C 1.2240(9) 0.8148(4) 1.2120(6)
H4B H 1.2903 0.8207 1.2715
C6B C 1.2244(8) 0.7560(4) 1.1614(5)
H5B H 1.2878 0.7212 1.1888
C7B C 1.1366(8) 0.6804(3) 1.0176(5)
H6B H 1.1362 0.6879 0.9432
H7B H 1.2353 0.6569 1.0378
C8B C 0.9955(8) 0.6369(3) 1.0418(5)
H8B H 0.9081 0.6459 0.9912
H9B H 0.9588 0.6490 1.1098
C9B C 0.8847(7) 0.5283(3) 1.0588(5)
H10B H 0.8437 0.5416 1.1251
H11B H 0.8037 0.5394 1.0049
C10B C 1.0885(8) 0.5445(3) 0.9411(5)
H12B H 1.0099 0.5561 0.8861
H13B H 1.1883 0.5674 0.9277
N2B N 0.5160(6) 0.5604(2) 0.4406(4)
C11B C 0.4418(8) 0.5599(3) 0.5411(5)
H14B H 0.5228 0.5693 0.5957
H15B H 0.3606 0.5948 0.5424
C12B C 0.6331(7) 0.5058(3) 0.4393(5)
H16B H 0.6818 0.5048 0.3722
H17B H 0.7179 0.5140 0.4920
C13B C 0.5996(7) 0.6238(3) 0.4262(5)
H18B H 0.6719 0.6320 0.4861
H19B H 0.6642 0.6204 0.3655
C14B C 0.4861(8) 0.6819(3) 0.4126(6)
H20B H 0.4438 0.6930 0.4795
H21B H 0.3961 0.6685 0.3666
C15B C 0.5621(8) 0.7424(3) 0.3695(5)
C16B C 0.5518(7) 0.8025(3) 0.4188(5)
H22B H 0.5024 0.8046 0.4822
C17B C 0.6112(8) 0.8592(3) 0.3783(6)
H23B H 0.5991 0.9001 0.4121
C18B C 0.6891(9) 0.8564(4) 0.2874(6)
H24B H 0.7311 0.8953 0.2591
C19B C 0.7053(10) 0.7969(4) 0.2383(6)
H25B H 0.7591 0.7946 0.1765
C20B C 0.6421(9) 0.7401(4) 0.2800(6)
H26B H 0.6543 0.6992 0.2464
I1B I 0.48610(5) 0.55133(2) 0.14902(3)
I2B I 0.05511(5) 0.55015(2) 0.33205(3)
Cu1B Cu 0.18990(11) 0.55122(4) 0.16059(7)
Cu2B Cu 0.35297(11) 0.55112(4) 0.32226(7)
Cu1B_2 Cu 1.18990(11) 0.55122(4) 1.16059(7)
N1B_2 N 0.0309(6) 0.5659(3) 0.0409(4)
loop_
_geom_bond_atom_site_label_1
_geom_bond_atom_site_label_2
_geom_bond_site_symmetry_1
_geom_bond_site_symmetry_2
I1 Cu1 1_555 1_555
I2 Cu1 1_555 1_555
Cu1 Cu2 1_555 1_555
Cu2 I1 1_555 1_555
N1 Cu1 1_555 1_555
N2 Cu2 1_555 1_555
C1 C2 1_555 1_555
C2 H1 1_555 1_555
C3 C2 1_555 1_555
H2 C3 1_555 1_555
C4 C3 1_555 1_555
H3 C4 1_555 1_555
C5 C4 1_555 1_555
H4 C5 1_555 1_555
C6 C1 1_555 1_555
H5 C6 1_555 1_555
C7 C1 1_555 1_555
H6 C7 1_555 1_555
H7 C7 1_555 1_555
C8 N1 1_555 1_555
H8 C8 1_555 1_555
H9 C8 1_555 1_555
C9 N1 1_555 1_555
H10 C9 1_555 1_555
H11 C9 1_555 1_555
C10 N1 1_555 1_555
H12 C10 1_555 1_555
H13 C10 1_555 1_555
C11 N2 1_555 1_555
H14 C11 1_555 1_555
H15 C11 1_555 1_555
C12 N2 1_555 1_555
H16 C12 1_555 1_555
H17 C12 1_555 1_555
C13 N2 1_555 1_555
H18 C13 1_555 1_555
H19 C13 1_555 1_555
C14 C13 1_555 1_555
H20 C14 1_555 1_555
H21 C14 1_555 1_555
C15 C14 1_555 1_555
C16 C15 1_555 1_555
H22 C16 1_555 1_555
C17 C16 1_555 1_555
H23 C17 1_555 1_555
C18 C17 1_555 1_555
H24 C18 1_555 1_555
C19 C18 1_555 1_555
H25 C19 1_555 1_555
C20 C15 1_555 1_555
H26 C20 1_555 1_555
N1B C8B 1_555 1_555
C1B C2B 1_555 1_555
C2B H1B 1_555 1_555
C3B C2B 1_555 1_555
H2B C3B 1_555 1_555
C4B C3B 1_555 1_555
H3B C4B 1_555 1_555
C5B C4B 1_555 1_555
H4B C5B 1_555 1_555
C6B C1B 1_555 1_555
H5B C6B 1_555 1_555
C7B C1B 1_555 1_555
H6B C7B 1_555 1_555
H7B C7B 1_555 1_555
C8B C7B 1_555 1_555
H8B C8B 1_555 1_555
H9B C8B 1_555 1_555
C9B C10 1_555 1_555
H10B C9B 1_555 1_555
H11B C9B 1_555 1_555
C10B C9 1_555 1_555
H12B C10B 1_555 1_555
H13B C10B 1_555 1_555
N2B C11B 1_555 1_555
C11B C12 1_555 1_555
H14B C11B 1_555 1_555
H15B C11B 1_555 1_555
C12B C11 1_555 1_555
H16B C12B 1_555 1_555
H17B C12B 1_555 1_555
C13B N2B 1_555 1_555
H18B C13B 1_555 1_555
H19B C13B 1_555 1_555
C14B C13B 1_555 1_555
H20B C14B 1_555 1_555
H21B C14B 1_555 1_555
C15B C14B 1_555 1_555
C16B C15B 1_555 1_555
H22B C16B 1_555 1_555
C17B C16B 1_555 1_555
H23B C17B 1_555 1_555
C18B C17B 1_555 1_555
H24B C18B 1_555 1_555
C19B C18B 1_555 1_555
H25B C19B 1_555 1_555
C20B C15B 1_555 1_555
H26B C20B 1_555 1_555
I1B Cu1B 1_555 1_555
I2B Cu1B 1_555 1_555
Cu1B Cu2B 1_555 1_555
Cu2B N2B 1_555 1_555
Cu1B_2 N1B 1_555 1_555
N1B_2 Cu1B 1_555 1_555
I2 Cu2 1_555 1_555
C5 C6 1_555 1_555
C7 C8 1_555 1_555
C19 C20 1_555 1_555
N1B C9B 1_555 1_555
N1B C10B 1_555 1_555
C5B C6B 1_555 1_555
N2B C12B 1_555 1_555
C19B C20B 1_555 1_555
I1B Cu2B 1_555 1_555
I2B Cu2B 1_555 1_555

#END
