
#######################################################################
#
#                 Cambridge Crystallographic Data Centre
#                                CCDC 
#
#######################################################################
#
# If this CIF has been generated from an entry in the Cambridge 
# Structural Database, then it will include bibliographic, chemical, 
# crystal, experimental, refinement or atomic coordinate data resulting 
# from the CCDC's data processing and validation procedures.
#
#######################################################################

data_GIFYOL
_symmetry_cell_setting           monoclinic
_symmetry_space_group_name_H-M   'P 21'
_symmetry_Int_Tables_number      4
_space_group_name_Hall           'P 2yb'
loop_
_symmetry_equiv_pos_site_id
_symmetry_equiv_pos_as_xyz
1 x,y,z
2 -x,1/2+y,-z
_cell_length_a                   6.2121(17)
_cell_length_b                   11.276(3)
_cell_length_c                   11.387(3)
_cell_angle_alpha                90
_cell_angle_beta                 94.99(3)
_cell_angle_gamma                90
_cell_volume                     794.609
loop_
_atom_site_label
_atom_site_type_symbol
_atom_site_fract_x
_atom_site_fract_y
_atom_site_fract_z
Zn1 Zn 0.49666(10) 0.78424(6) 1.16883(6)
Cl1 Cl 0.1606(3) 0.82033(16) 1.09589(18)
Cl2 Cl 0.5743(3) 0.72084(17) 1.35252(17)
O1 O 0.6199(7) 0.6808(4) 1.0513(4)
O2 O 1.3621(7) 0.4435(4) 0.8551(4)
N1 N 0.7725(8) 0.6315(5) 0.8869(5)
H1 H 0.7319 0.5597 0.8974
N2 N 0.6940(9) 0.8266(5) 0.9199(5)
H2 H 0.6496 0.8802 0.9659
N3 N 1.1290(8) 0.5959(5) 0.8361(5)
H3 H 1.2047 0.6308 0.8928
N4 N 1.1424(8) 0.4630(4) 0.6852(4)
H4 H 1.1897 0.3969 0.6600
C1 C 0.6945(10) 0.7147(6) 0.9563(6)
C2 C 0.7654(10) 0.8650(5) 0.8046(6)
C3 C 0.9560(8) 0.7858(7) 0.7820(5)
H5 H 1.0782 0.8088 0.8360
H6 H 0.9948 0.8011 0.7027
C4 C 0.9202(10) 0.6511(6) 0.7949(6)
C5 C 0.8411(13) 0.9926(6) 0.8199(7)
H7 H 0.9617 0.9961 0.8785
H8 H 0.7254 1.0405 0.8444
H9 H 0.8841 1.0219 0.7463
C6 C 0.5742(12) 0.8581(7) 0.7132(6)
H10 H 0.6206 0.8753 0.6368
H11 H 0.4669 0.9148 0.7317
H12 H 0.5135 0.7798 0.7131
C7 C 1.2109(10) 0.4972(5) 0.7938(5)
C8 C 0.9905(11) 0.5317(6) 0.6057(6)
C9 C 0.8258(10) 0.5851(6) 0.6820(6)
H13 H 0.7327 0.5219 0.7056
H14 H 0.7361 0.6402 0.6342
C10 C 0.8754(11) 0.4492(6) 0.5165(6)
H15 H 0.9791 0.4125 0.4704
H16 H 0.7735 0.4935 0.4657
H17 H 0.8006 0.3892 0.5568
C11 C 1.1163(12) 0.6245(7) 0.5440(6)
H18 H 1.2029 0.6700 0.6016
H19 H 1.0174 0.6761 0.4992
H20 H 1.2083 0.5862 0.4921
Zn1A Zn 1.50334(10) 0.28424(6) 0.83117(6)
O2A O 0.6379(7) 0.9435(4) 1.1449(4)
loop_
_geom_bond_atom_site_label_1
_geom_bond_atom_site_label_2
_geom_bond_site_symmetry_1
_geom_bond_site_symmetry_2
Zn1 Cl1 1_555 1_555
Cl2 Zn1 1_555 1_555
O1 Zn1 1_555 1_555
O2 C7 1_555 1_555
N1 H1 1_555 1_555
N2 H2 1_555 1_555
N3 H3 1_555 1_555
N4 H4 1_555 1_555
C1 O1 1_555 1_555
C2 N2 1_555 1_555
C3 C2 1_555 1_555
H5 C3 1_555 1_555
H6 C3 1_555 1_555
C4 N1 1_555 1_555
C5 C2 1_555 1_555
H7 C5 1_555 1_555
H8 C5 1_555 1_555
H9 C5 1_555 1_555
C6 C2 1_555 1_555
H10 C6 1_555 1_555
H11 C6 1_555 1_555
H12 C6 1_555 1_555
C7 N3 1_555 1_555
C8 N4 1_555 1_555
C9 C4 1_555 1_555
H13 C9 1_555 1_555
H14 C9 1_555 1_555
C10 C8 1_555 1_555
H15 C10 1_555 1_555
H16 C10 1_555 1_555
H17 C10 1_555 1_555
C11 C8 1_555 1_555
H18 C11 1_555 1_555
H19 C11 1_555 1_555
H20 C11 1_555 1_555
Zn1A O2 1_555 1_555
O2A Zn1 1_555 1_555
N1 C1 1_555 1_555
N2 C1 1_555 1_555
N3 C4 1_555 1_555
N4 C7 1_555 1_555
C3 C4 1_555 1_555
C8 C9 1_555 1_555

#END
