
#######################################################################
#
#                 Cambridge Crystallographic Data Centre
#                                CCDC 
#
#######################################################################
#
# If this CIF has been generated from an entry in the Cambridge 
# Structural Database, then it will include bibliographic, chemical, 
# crystal, experimental, refinement or atomic coordinate data resulting 
# from the CCDC's data processing and validation procedures.
#
#######################################################################

data_GIFZOM
_symmetry_cell_setting           monoclinic
_symmetry_space_group_name_H-M   'P 21/n'
_symmetry_Int_Tables_number      14
_space_group_name_Hall           '-P 2yn'
loop_
_symmetry_equiv_pos_site_id
_symmetry_equiv_pos_as_xyz
1 x,y,z
2 1/2-x,1/2+y,1/2-z
3 -x,-y,-z
4 1/2+x,1/2-y,1/2+z
_cell_length_a                   8.6108(3)
_cell_length_b                   24.0135(7)
_cell_length_c                   13.5384(4)
_cell_angle_alpha                90
_cell_angle_beta                 92.104(2)
_cell_angle_gamma                90
_cell_volume                     2797.52
loop_
_atom_site_label
_atom_site_type_symbol
_atom_site_fract_x
_atom_site_fract_y
_atom_site_fract_z
I1 I 0.22292(7) 0.20688(2) 0.22618(5)
I2 I -0.29146(7) 0.21797(2) 0.18631(4)
I3 I -0.07637(7) 0.05334(2) 0.25196(4)
I4 I -0.06776(7) 0.18109(2) 0.48852(4)
Cu1 Cu -0.03977(17) 0.15602(6) 0.17298(11)
Cu2 Cu -0.04744(17) 0.23409(5) 0.31310(10)
Cu3 Cu 0.10126(16) 0.13375(6) 0.34710(11)
Cu4 Cu -0.21795(17) 0.14516(6) 0.32455(11)
N1 N -0.0223(9) 0.1392(3) 0.0245(6)
H1 H -0.1165 0.1236 0.0030
N2 N 0.1307(9) 0.1325(3) -0.1634(6)
N3 N -0.0343(10) 0.3182(3) 0.3449(6)
H2 H -0.1351 0.3322 0.3418
N4 N 0.1521(9) 0.4160(3) 0.3969(6)
H3 H 0.2469 0.3974 0.3992
N5 N 0.2647(9) 0.0821(3) 0.4308(6)
N6 N 0.5862(10) 0.1089(3) 0.3855(6)
H4 H 0.6258 0.0826 0.4300
C1 C 0.0989(12) 0.0976(4) 0.0061(7)
H5 H 0.0778 0.0635 0.0444
H6 H 0.2009 0.1124 0.0296
C2 C 0.1066(11) 0.0826(4) -0.1034(7)
H7 H 0.1929 0.0561 -0.1126
H8 H 0.0085 0.0642 -0.1256
C3 C 0.0093(11) 0.1732(4) -0.1461(8)
H9 H -0.0923 0.1577 -0.1689
H10 H 0.0289 0.2071 -0.1854
C4 C 0.0022(12) 0.1889(4) -0.0375(8)
H11 H 0.1005 0.2074 -0.0159
H12 H -0.0838 0.2156 -0.0288
C5 C 0.1286(12) 0.1175(4) -0.2680(7)
H13 H 0.0285 0.1004 -0.2867
H14 H 0.2126 0.0910 -0.2797
H15 H 0.1433 0.1510 -0.3078
C6 C 0.0553(12) 0.3488(4) 0.2724(7)
H16 H -0.0001 0.3465 0.2072
H17 H 0.1574 0.3304 0.2665
C7 C 0.0820(13) 0.4097(4) 0.2978(7)
H18 H 0.1510 0.4265 0.2491
H19 H -0.0185 0.4298 0.2937
C8 C 0.0527(11) 0.3903(4) 0.4672(8)
H20 H -0.0497 0.4090 0.4646
H21 H 0.0991 0.3950 0.5347
C9 C 0.0308(12) 0.3287(4) 0.4457(7)
H22 H 0.1323 0.3096 0.4539
H23 H -0.0397 0.3127 0.4944
C10 C 0.1806(14) 0.4746(4) 0.4187(9)
H24 H 0.0833 0.4955 0.4101
H25 H 0.2571 0.4893 0.3736
H26 H 0.2207 0.4785 0.4870
C11 C 0.3673(11) 0.1150(4) 0.4998(7)
H27 H 0.4176 0.0896 0.5489
H28 H 0.3034 0.1419 0.5359
C12 C 0.4925(12) 0.1465(4) 0.4453(8)
H29 H 0.4425 0.1749 0.4018
H30 H 0.5615 0.1660 0.4941
C13 C 0.4838(11) 0.0776(4) 0.3175(8)
H31 H 0.5471 0.0512 0.2798
H32 H 0.4336 0.1038 0.2696
C14 C 0.3591(12) 0.0455(4) 0.3688(8)
H33 H 0.2905 0.0270 0.3186
H34 H 0.4084 0.0162 0.4108
C15 C 0.1679(12) 0.0455(4) 0.4917(8)
H35 H 0.1036 0.0214 0.4485
H36 H 0.1008 0.0685 0.5321
H37 H 0.2354 0.0225 0.5349
Cu4_2 Cu 0.78205(17) 0.14516(6) 0.32455(11)
N6_2 N -0.4138(10) 0.1089(3) 0.3855(6)
loop_
_geom_bond_atom_site_label_1
_geom_bond_atom_site_label_2
_geom_bond_site_symmetry_1
_geom_bond_site_symmetry_2
I1 Cu1 1_555 1_555
I2 Cu1 1_555 1_555
I3 Cu1 1_555 1_555
I4 Cu2 1_555 1_555
Cu1 Cu2 1_555 1_555
Cu2 I1 1_555 1_555
Cu3 I1 1_555 1_555
Cu4 I2 1_555 1_555
N1 Cu1 1_555 1_555
H1 N1 1_555 1_555
N2 C2 1_555 1_555
N3 Cu2 1_555 1_555
H2 N3 1_555 1_555
N4 H3 1_555 1_555
N5 Cu3 1_555 1_555
N6 H4 1_555 1_555
C1 N1 1_555 1_555
H5 C1 1_555 1_555
H6 C1 1_555 1_555
C2 C1 1_555 1_555
H7 C2 1_555 1_555
H8 C2 1_555 1_555
C3 N2 1_555 1_555
H9 C3 1_555 1_555
H10 C3 1_555 1_555
C4 N1 1_555 1_555
H11 C4 1_555 1_555
H12 C4 1_555 1_555
C5 N2 1_555 1_555
H13 C5 1_555 1_555
H14 C5 1_555 1_555
H15 C5 1_555 1_555
C6 N3 1_555 1_555
H16 C6 1_555 1_555
H17 C6 1_555 1_555
C7 N4 1_555 1_555
H18 C7 1_555 1_555
H19 C7 1_555 1_555
C8 N4 1_555 1_555
H20 C8 1_555 1_555
H21 C8 1_555 1_555
C9 N3 1_555 1_555
H22 C9 1_555 1_555
H23 C9 1_555 1_555
C10 N4 1_555 1_555
H24 C10 1_555 1_555
H25 C10 1_555 1_555
H26 C10 1_555 1_555
C11 N5 1_555 1_555
H27 C11 1_555 1_555
H28 C11 1_555 1_555
C12 N6 1_555 1_555
H29 C12 1_555 1_555
H30 C12 1_555 1_555
C13 N6 1_555 1_555
H31 C13 1_555 1_555
H32 C13 1_555 1_555
C14 N5 1_555 1_555
H33 C14 1_555 1_555
H34 C14 1_555 1_555
C15 N5 1_555 1_555
H35 C15 1_555 1_555
H36 C15 1_555 1_555
H37 C15 1_555 1_555
Cu4_2 N6 1_555 1_555
N6_2 Cu4 1_555 1_555
I2 Cu2 1_555 1_555
I3 Cu3 1_555 1_555
I3 Cu4 1_555 1_555
I4 Cu3 1_555 1_555
I4 Cu4 1_555 1_555
Cu1 Cu3 1_555 1_555
Cu1 Cu4 1_555 1_555
Cu2 Cu3 1_555 1_555
Cu2 Cu4 1_555 1_555
Cu3 Cu4 1_555 1_555
C3 C4 1_555 1_555
C6 C7 1_555 1_555
C8 C9 1_555 1_555
C11 C12 1_555 1_555
C13 C14 1_555 1_555

#END
