
#######################################################################
#
#                 Cambridge Crystallographic Data Centre
#                                CCDC 
#
#######################################################################
#
# If this CIF has been generated from an entry in the Cambridge 
# Structural Database, then it will include bibliographic, chemical, 
# crystal, experimental, refinement or atomic coordinate data resulting 
# from the CCDC's data processing and validation procedures.
#
#######################################################################

data_GIGBOO
_symmetry_cell_setting           monoclinic
_symmetry_space_group_name_H-M   'C c'
_symmetry_Int_Tables_number      9
_space_group_name_Hall           'C -2yc'
loop_
_symmetry_equiv_pos_site_id
_symmetry_equiv_pos_as_xyz
1 x,y,z
2 x,-y,1/2+z
3 1/2+x,1/2+y,z
4 1/2+x,1/2-y,1/2+z
_cell_length_a                   15.648(2)
_cell_length_b                   8.8089(13)
_cell_length_c                   18.303(3)
_cell_angle_alpha                90
_cell_angle_beta                 98.421(2)
_cell_angle_gamma                90
_cell_volume                     2495.72
loop_
_atom_site_label
_atom_site_type_symbol
_atom_site_fract_x
_atom_site_fract_y
_atom_site_fract_z
Nd1 Nd 1.054100(12) 0.59045(3) 0.686686(11)
Nd2 Nd 0.961851(14) 0.54858(3) 0.471699(12)
O1 O 0.9258(2) 0.6763(3) 0.59149(17)
O2 O 0.8351(2) 0.8081(4) 0.65049(18)
O3 O 0.5730(2) 0.9738(4) 0.39809(18)
O4 O 0.6343(2) 0.8681(4) 0.30729(19)
O5 O 1.3672(2) 0.9716(4) 0.36034(18)
O6 O 1.2553(2) 0.8417(5) 0.30075(19)
O7 O 1.0873(2) 0.6481(4) 0.55211(18)
O8 O 1.1913(2) 0.6922(5) 0.6433(2)
O9 O 0.9998(2) 0.3938(3) 0.59240(18)
O10 O 1.0051(4) 0.1700(4) 0.6506(2)
O11 O 0.9937(2) -0.2440(4) 0.39465(18)
O12 O 0.9856(3) -0.0675(4) 0.3069(2)
O13 O 1.0609(4) 0.8748(4) 0.6945(3)
H1 H 1.0307 0.9263 0.6610
H2 H 1.0488 0.8824 0.7382
O14 O 0.9460(2) 0.6892(4) 0.76122(17)
H3 H 0.9086 0.7527 0.7417
H4 H 0.9272 0.6029 0.7722
O15 O 1.0150(2) 0.3769(4) 0.75569(18)
H5 H 1.0100 0.2957 0.7303
H6 H 1.0053 0.3711 0.8001
O16 O 1.1762(3) 0.3939(5) 0.6967(2)
H7 H 1.2128 0.3701 0.6686
H8 H 1.1916 0.3824 0.7428
N1 N 0.8349(3) 0.7412(5) 0.4607(2)
N2 N 0.7742(2) 0.7806(5) 0.4046(2)
H9 H 0.7783 0.7649 0.3589
N3 N 1.3174(3) 0.9131(4) 0.4909(2)
N4 N 1.2813(3) 0.8606(4) 0.5477(2)
H10 H 1.3002 0.8794 0.5934
N5 N 0.9809(3) 0.2556(4) 0.4614(2)
N6 N 0.9797(3) 0.1596(4) 0.4052(2)
H11 H 0.9724 0.1869 0.3596
C1 C 0.8570(3) 0.7556(5) 0.5942(3)
C2 C 0.8026(3) 0.7835(5) 0.5219(3)
C3 C 0.7214(3) 0.8498(6) 0.5039(3)
H12 H 0.6855 0.8874 0.5359
C4 C 0.7065(3) 0.8472(5) 0.4282(2)
C5 C 0.6308(3) 0.9005(5) 0.3728(3)
C6 C 1.2976(3) 0.8926(6) 0.3576(3)
C7 C 1.2703(3) 0.8579(5) 0.4308(2)
C8 C 1.2021(3) 0.7719(6) 0.4480(3)
H13 H 1.1596 0.7232 0.4154
C9 C 1.2110(3) 0.7741(5) 0.5241(3)
C10 C 1.1611(3) 0.7009(5) 0.5763(3)
C11 C 0.9997(4) 0.2470(5) 0.5944(3)
C12 C 0.9939(3) 0.1689(5) 0.5215(3)
C13 C 1.0004(3) 0.0190(5) 0.5037(3)
H14 H 1.0093 -0.0629 0.5359
C14 C 0.9910(3) 0.0153(5) 0.4279(2)
C15 C 0.9902(3) -0.1070(5) 0.3716(3)
Nd1C Nd 0.554100(12) 0.90955(3) 0.186686(11)
Nd2B Nd 0.461851(14) 1.04858(3) 0.471699(12)
Nd2B_2 Nd 1.461851(14) 1.04858(3) 0.471699(12)
Nd2_2 Nd 0.961851(14) -0.45142(3) 0.471699(12)
O3B O 1.0730(2) 0.4738(4) 0.39809(18)
O4C O 1.1343(2) 0.6319(4) 0.80729(19)
O5B O 0.8672(2) 0.4716(4) 0.36034(18)
O11_2 O 0.9937(2) 0.7560(4) 0.39465(18)
N3B N 0.8174(3) 0.4131(4) 0.4909(2)
O17 O 0.3247(3) 0.3025(5) 0.2626(2)
H15 H 0.3612 0.3689 0.2807
H16 H 0.2966 0.3218 0.2202
O18 O 0.8055(6) 0.4679(6) 0.6879(3)
H17 H 0.8339 0.4376 0.7287
H18 H 0.7509 0.4717 0.6854
loop_
_geom_bond_atom_site_label_1
_geom_bond_atom_site_label_2
_geom_bond_site_symmetry_1
_geom_bond_site_symmetry_2
Nd1 O1 1_555 1_555
Nd2 O1 1_555 1_555
O1 C1 1_555 1_555
O2 C1 1_555 1_555
O3 C5 1_555 1_555
O4 C5 1_555 1_555
O5 C6 1_555 1_555
O6 C6 1_555 1_555
O7 Nd1 1_555 1_555
O8 Nd1 1_555 1_555
O9 Nd1 1_555 1_555
O10 C11 1_555 1_555
O11 C15 1_555 1_555
O12 C15 1_555 1_555
O13 Nd1 1_555 1_555
H1 O13 1_555 1_555
H2 O13 1_555 1_555
O14 Nd1 1_555 1_555
H3 O14 1_555 1_555
H4 O14 1_555 1_555
O15 Nd1 1_555 1_555
H5 O15 1_555 1_555
H6 O15 1_555 1_555
O16 Nd1 1_555 1_555
H7 O16 1_555 1_555
H8 O16 1_555 1_555
N1 Nd2 1_555 1_555
N2 N1 1_555 1_555
H9 N2 1_555 1_555
N3 N4 1_555 1_555
N4 H10 1_555 1_555
N5 Nd2 1_555 1_555
N6 N5 1_555 1_555
H11 N6 1_555 1_555
C1 C2 1_555 1_555
C2 N1 1_555 1_555
C3 C2 1_555 1_555
H12 C3 1_555 1_555
C4 N2 1_555 1_555
C5 C4 1_555 1_555
C6 C7 1_555 1_555
C7 N3 1_555 1_555
C8 C7 1_555 1_555
H13 C8 1_555 1_555
C9 N4 1_555 1_555
C10 O7 1_555 1_555
C11 O9 1_555 1_555
C12 N5 1_555 1_555
C13 C12 1_555 1_555
H14 C13 1_555 1_555
C14 N6 1_555 1_555
C15 C14 1_555 1_555
O17 H15 1_555 1_555
H16 O17 1_555 1_555
O18 H17 1_555 1_555
H18 O18 1_555 1_555
Nd1C O4 1_555 1_555
Nd2B O3 1_555 1_555
Nd2B_2 O5 1_555 1_555
Nd2_2 O11 1_555 1_555
O3B Nd2 1_555 1_555
O4C Nd1 1_555 1_555
O5B Nd2 1_555 1_555
O11_2 Nd2 1_555 1_555
N3B Nd2 1_555 1_555
Nd2 O7 1_555 1_555
Nd2 O9 1_555 1_555
O8 C10 1_555 1_555
N3 Nd2B_2 1_555 1_555
C3 C4 1_555 1_555
C8 C9 1_555 1_555
C9 C10 1_555 1_555
C11 C12 1_555 1_555
C13 C14 1_555 1_555

#END
