
#######################################################################
#
#                 Cambridge Crystallographic Data Centre
#                                CCDC 
#
#######################################################################
#
# If this CIF has been generated from an entry in the Cambridge 
# Structural Database, then it will include bibliographic, chemical, 
# crystal, experimental, refinement or atomic coordinate data resulting 
# from the CCDC's data processing and validation procedures.
#
#######################################################################

data_GIGBII
_symmetry_cell_setting           monoclinic
_symmetry_space_group_name_H-M   'P 21/n'
_symmetry_Int_Tables_number      14
_space_group_name_Hall           '-P 2yn'
loop_
_symmetry_equiv_pos_site_id
_symmetry_equiv_pos_as_xyz
1 x,y,z
2 1/2-x,1/2+y,1/2-z
3 -x,-y,-z
4 1/2+x,1/2-y,1/2+z
_cell_length_a                   10.861(6)
_cell_length_b                   9.295(5)
_cell_length_c                   14.259(7)
_cell_angle_alpha                90
_cell_angle_beta                 104.901(7)
_cell_angle_gamma                90
_cell_volume                     1391.08
loop_
_atom_site_label
_atom_site_type_symbol
_atom_site_fract_x
_atom_site_fract_y
_atom_site_fract_z
Ho1 Ho -0.044830(13) -0.371960(15) 0.234820(10)
O1 O -0.2645(2) -0.0774(2) -0.00026(16)
O2 O -0.1863(2) -0.2763(2) 0.08492(16)
O3 O -0.2902(2) -0.0376(2) 0.29683(16)
O4 O -0.2028(2) -0.2489(2) 0.28163(17)
O5 O -0.6491(2) -0.5287(2) 0.02453(18)
H1 H -0.7092 -0.5759 -0.0073
O6 O -0.7957(2) -0.3529(3) 0.00812(19)
O7 O 0.3214(2) 0.1182(2) 0.23188(16)
O8 O 0.1964(2) 0.2986(2) 0.15756(16)
N1 N -0.6084(3) -0.1680(3) 0.1135(2)
H2 H -0.6792 -0.1251 0.0876
N2 N -0.5073(2) -0.1042(3) 0.17320(19)
N3 N 0.0156(2) -0.1397(3) 0.18446(19)
N4 N 0.1184(2) -0.0563(3) 0.21484(19)
H3 H 0.1845 -0.0801 0.2598
C1 C -0.2944(3) -0.1634(3) 0.2635(2)
C2 C -0.4177(3) -0.2081(3) 0.1973(2)
C3 C -0.4636(3) -0.3380(3) 0.1519(2)
H4 H -0.4207 -0.4254 0.1566
C4 C -0.5853(3) -0.3086(3) 0.0990(2)
C5 C -0.6884(3) -0.3987(3) 0.0386(2)
C6 C -0.1822(3) -0.1436(3) 0.0623(2)
C7 C -0.0661(3) -0.0638(3) 0.1154(2)
C8 C -0.0138(3) 0.0693(3) 0.1032(2)
H5 H -0.0516 0.1426 0.0612
C9 C 0.1057(3) 0.0696(3) 0.1664(2)
C10 C 0.2158(3) 0.1711(3) 0.1867(2)
O9 O 0.0016(2) -0.5103(2) 0.11237(15)
H6 H 0.0658 -0.5658 0.1215
H7 H -0.0667 -0.5407 0.0739
O10 O 0.0256(2) -0.3041(3) 0.39727(17)
H8 H 0.0939 -0.3359 0.4350
H9 H -0.0146 -0.2393 0.4193
Ho1A Ho 0.544830(13) 0.128040(15) 0.265180(10)
Ho1A_2 Ho -0.455170(13) 0.128040(15) 0.265180(10)
O3A O -0.2098(2) -0.5376(2) 0.20317(16)
O7A O 0.1786(2) -0.3818(2) 0.26812(16)
N2A N 0.0073(2) -0.6042(3) 0.32680(19)
loop_
_geom_bond_atom_site_label_1
_geom_bond_atom_site_label_2
_geom_bond_site_symmetry_1
_geom_bond_site_symmetry_2
Ho1 O2 1_555 1_555
O1 C6 1_555 1_555
O2 C6 1_555 1_555
O3 C1 1_555 1_555
O4 Ho1 1_555 1_555
O5 H1 1_555 1_555
O6 C5 1_555 1_555
O7 C10 1_555 1_555
O8 C10 1_555 1_555
N1 H2 1_555 1_555
N2 N1 1_555 1_555
N3 Ho1 1_555 1_555
N4 N3 1_555 1_555
H3 N4 1_555 1_555
C1 O4 1_555 1_555
C2 N2 1_555 1_555
C3 C2 1_555 1_555
H4 C3 1_555 1_555
C4 N1 1_555 1_555
C5 O5 1_555 1_555
C6 C7 1_555 1_555
C7 N3 1_555 1_555
C8 C7 1_555 1_555
H5 C8 1_555 1_555
C9 N4 1_555 1_555
C10 C9 1_555 1_555
O9 Ho1 1_555 1_555
H6 O9 1_555 1_555
H7 O9 1_555 1_555
O10 Ho1 1_555 1_555
H8 O10 1_555 1_555
H9 O10 1_555 1_555
Ho1A O7 1_555 1_555
Ho1A_2 O3 1_555 1_555
O3A Ho1 1_555 1_555
O7A Ho1 1_555 1_555
N2A Ho1 1_555 1_555
N2 Ho1A_2 1_555 1_555
C1 C2 1_555 1_555
C3 C4 1_555 1_555
C4 C5 1_555 1_555
C8 C9 1_555 1_555

#END
