
#######################################################################
#
#                 Cambridge Crystallographic Data Centre
#                                CCDC 
#
#######################################################################
#
# If this CIF has been generated from an entry in the Cambridge 
# Structural Database, then it will include bibliographic, chemical, 
# crystal, experimental, refinement or atomic coordinate data resulting 
# from the CCDC's data processing and validation procedures.
#
#######################################################################

data_GIGSEV
_symmetry_cell_setting           monoclinic
_symmetry_space_group_name_H-M   'C 2/c'
_symmetry_Int_Tables_number      15
_space_group_name_Hall           '-C 2yn'
loop_
_symmetry_equiv_pos_site_id
_symmetry_equiv_pos_as_xyz
1 x,y,z
2 1/2+x,1/2+y,z
3 -x,y,1/2-z
4 1/2-x,1/2+y,1/2-z
5 -x,-y,-z
6 1/2-x,1/2-y,-z
7 x,-y,1/2+z
8 1/2+x,1/2-y,1/2+z
_cell_length_a                   20.648(7)
_cell_length_b                   12.130(4)
_cell_length_c                   14.036(4)
_cell_angle_alpha                90
_cell_angle_beta                 106.351(5)
_cell_angle_gamma                90
_cell_volume                     3373.28
loop_
_atom_site_label
_atom_site_type_symbol
_atom_site_fract_x
_atom_site_fract_y
_atom_site_fract_z
Zn1 Zn 0.0000 0.13350(3) 0.2500
O1 O 0.20789(12) 0.37542(17) -0.02970(15)
O2 O 0.09344(8) 0.11972(14) 0.35430(12)
O3 O 0.07652(9) 0.29926(16) 0.34584(13)
O4 O 0.0000 -0.03746(18) 0.2500
H1 H -0.0308 -0.0929 0.2306
N1 N 0.04889(10) 0.16931(17) 0.13835(14)
N2 N 0.17555(12) 0.31921(18) -0.10371(16)
N3 N 0.10565(11) 0.18929(17) -0.18698(15)
C1 C 0.06672(14) 0.2715(2) 0.12199(19)
H3 H 0.0601 0.3276 0.1634
C2 C 0.09457(14) 0.2979(2) 0.0463(2)
H4 H 0.1071 0.3701 0.0376
C3 C 0.10353(13) 0.2151(2) -0.01640(17)
C4 C 0.08578(13) 0.1089(2) 0.00034(18)
H5 H 0.0918 0.0514 -0.0401
C5 C 0.05890(12) 0.0897(2) 0.07817(18)
H6 H 0.0471 0.0179 0.0894
C6 C 0.12751(13) 0.2389(2) -0.10367(18)
C7 C 0.18046(15) 0.3345(2) -0.20656(19)
C8 C 0.1444(2) 0.4406(3) -0.2447(3)
H7 H 0.0980 0.4350 -0.2449
H8 H 0.1468 0.4540 -0.3110
H9 H 0.1654 0.5004 -0.2024
C9 C 0.25446(19) 0.3454(4) -0.2033(3)
H10 H 0.2742 0.4061 -0.1611
H11 H 0.2580 0.3584 -0.2691
H12 H 0.2779 0.2787 -0.1776
C10 C 0.14373(14) 0.2288(2) -0.25587(19)
C11 C 0.09396(18) 0.2472(3) -0.3578(2)
H13 H 0.0755 0.1776 -0.3851
H14 H 0.1169 0.2810 -0.4010
H15 H 0.0581 0.2945 -0.3514
C12 C 0.1918(2) 0.1354(3) -0.2608(3)
H16 H 0.2243 0.1267 -0.1971
H17 H 0.2147 0.1523 -0.3097
H18 H 0.1667 0.0682 -0.2785
C13 C 0.11284(12) 0.2169(2) 0.37648(17)
C14 C 0.18407(11) 0.2336(2) 0.44138(16)
C15 C 0.20714(12) 0.3388(2) 0.47228(18)
H19 H 0.1783 0.3988 0.4537
C16 C 0.22722(12) 0.1450(2) 0.46941(18)
H20 H 0.2122 0.0742 0.4491
Zn1G Zn 0.5000 0.36650(3) 0.7500
O1B O -0.20789(12) 0.37542(17) 0.52970(15)
O2E O 0.40656(8) 0.38028(14) 0.64570(12)
O2B O -0.09344(8) 0.11972(14) 0.14570(12)
O3E O 0.42348(9) 0.20074(16) 0.65416(13)
H1B H 0.0308 -0.0929 0.2694
N1B N -0.04889(10) 0.16931(17) 0.36165(14)
N2B N -0.17555(12) 0.31921(18) 0.60371(16)
N3B N -0.10565(11) 0.18929(17) 0.68698(15)
C1B C -0.06672(14) 0.2715(2) 0.37801(19)
H3B H -0.0601 0.3276 0.3366
C2B C -0.09457(14) 0.2979(2) 0.4537(2)
H4B H -0.1071 0.3701 0.4624
C3B C -0.10353(13) 0.2151(2) 0.51640(17)
C4B C -0.08578(13) 0.1089(2) 0.49966(18)
H5B H -0.0918 0.0514 0.5401
C5B C -0.05890(12) 0.0897(2) 0.42183(18)
H6B H -0.0471 0.0179 0.4106
C6B C -0.12751(13) 0.2389(2) 0.60367(18)
C7B C -0.18046(15) 0.3345(2) 0.70656(19)
C8B C -0.1444(2) 0.4406(3) 0.7447(3)
H7B H -0.0980 0.4350 0.7449
H8B H -0.1468 0.4540 0.8110
H9B H -0.1654 0.5004 0.7024
C9B C -0.25446(19) 0.3454(4) 0.7033(3)
H10B H -0.2742 0.4061 0.6611
H11B H -0.2580 0.3584 0.7691
H12B H -0.2779 0.2787 0.6776
C10B C -0.14373(14) 0.2288(2) 0.75587(19)
C11B C -0.09396(18) 0.2472(3) 0.8578(2)
H13B H -0.0755 0.1776 0.8851
H14B H -0.1169 0.2810 0.9010
H15B H -0.0581 0.2945 0.8514
C12B C -0.1918(2) 0.1354(3) 0.7608(3)
H16B H -0.2243 0.1267 0.6971
H17B H -0.2147 0.1523 0.8097
H18B H -0.1667 0.0682 0.7785
C13E C 0.38716(12) 0.2831(2) 0.62352(17)
C14E C 0.31593(11) 0.2664(2) 0.55862(16)
C15E C 0.29286(12) 0.1612(2) 0.52772(18)
H19E H 0.3217 0.1012 0.5463
C16E C 0.27278(12) 0.3550(2) 0.53059(18)
H20E H 0.2878 0.4258 0.5509
O5 O 0.0380(10) 0.4775(11) 0.4384(13)
H2? H 0.0451 -0.0613 0.2748
O6? O 0.0307(8) 0.5084(11) 0.3800(13)
loop_
_geom_bond_atom_site_label_1
_geom_bond_atom_site_label_2
_geom_bond_site_symmetry_1
_geom_bond_site_symmetry_2
Zn1 O2 1_555 1_555
O1 N2 1_555 1_555
O2 C13 1_555 1_555
O3 C13 1_555 1_555
O4 Zn1 1_555 1_555
H1 O4 1_555 1_555
N1 Zn1 1_555 1_555
N2 C6 1_555 1_555
N3 C6 1_555 1_555
C1 N1 1_555 1_555
H3 C1 1_555 1_555
C2 C1 1_555 1_555
H4 C2 1_555 1_555
C3 C2 1_555 1_555
C4 C3 1_555 1_555
H5 C4 1_555 1_555
C5 N1 1_555 1_555
H6 C5 1_555 1_555
C6 C3 1_555 1_555
C7 N2 1_555 1_555
C8 C7 1_555 1_555
H7 C8 1_555 1_555
H8 C8 1_555 1_555
H9 C8 1_555 1_555
C9 C7 1_555 1_555
H10 C9 1_555 1_555
H11 C9 1_555 1_555
H12 C9 1_555 1_555
C10 N3 1_555 1_555
C11 C10 1_555 1_555
H13 C11 1_555 1_555
H14 C11 1_555 1_555
H15 C11 1_555 1_555
C12 C10 1_555 1_555
H16 C12 1_555 1_555
H17 C12 1_555 1_555
H18 C12 1_555 1_555
C13 C14 1_555 1_555
C14 C15 1_555 1_555
C15 H19 1_555 1_555
C16 C14 1_555 1_555
H20 C16 1_555 1_555
Zn1G O2E 1_555 1_555
O1B N2B 1_555 1_555
O2E C13E 1_555 1_555
O2B Zn1 1_555 1_555
O3E C13E 1_555 1_555
H1B O4 1_555 1_555
N1B Zn1 1_555 1_555
N2B C6B 1_555 1_555
N3B C6B 1_555 1_555
C1B N1B 1_555 1_555
H3B C1B 1_555 1_555
C2B C1B 1_555 1_555
H4B C2B 1_555 1_555
C3B C2B 1_555 1_555
C4B C3B 1_555 1_555
H5B C4B 1_555 1_555
C5B N1B 1_555 1_555
H6B C5B 1_555 1_555
C6B C3B 1_555 1_555
C7B N2B 1_555 1_555
C8B C7B 1_555 1_555
H7B C8B 1_555 1_555
H8B C8B 1_555 1_555
H9B C8B 1_555 1_555
C9B C7B 1_555 1_555
H10B C9B 1_555 1_555
H11B C9B 1_555 1_555
H12B C9B 1_555 1_555
C10B N3B 1_555 1_555
C11B C10B 1_555 1_555
H13B C11B 1_555 1_555
H14B C11B 1_555 1_555
H15B C11B 1_555 1_555
C12B C10B 1_555 1_555
H16B C12B 1_555 1_555
H17B C12B 1_555 1_555
H18B C12B 1_555 1_555
C13E C14E 1_555 1_555
C14E C15E 1_555 1_555
C15E C16 1_555 1_555
H19E C15E 1_555 1_555
C16E C15 1_555 1_555
H20E C16E 1_555 1_555
C4 C5 1_555 1_555
C7 C10 1_555 1_555
C4B C5B 1_555 1_555
C7B C10B 1_555 1_555
C14E C16E 1_555 1_555

#END
