
#######################################################################
#
#                 Cambridge Crystallographic Data Centre
#                                CCDC 
#
#######################################################################
#
# If this CIF has been generated from an entry in the Cambridge 
# Structural Database, then it will include bibliographic, chemical, 
# crystal, experimental, refinement or atomic coordinate data resulting 
# from the CCDC's data processing and validation procedures.
#
#######################################################################

data_GIGWUP
_symmetry_cell_setting           monoclinic
_symmetry_space_group_name_H-M   'C 2'
_symmetry_Int_Tables_number      5
_space_group_name_Hall           'C 2y'
loop_
_symmetry_equiv_pos_site_id
_symmetry_equiv_pos_as_xyz
1 x,y,z
2 -x,y,-z
3 1/2+x,1/2+y,z
4 1/2-x,1/2+y,-z
_cell_length_a                   19.962(3)
_cell_length_b                   11.4615(17)
_cell_length_c                   3.5291(5)
_cell_angle_alpha                90
_cell_angle_beta                 95.136(12)
_cell_angle_gamma                90
_cell_volume                     804.197
loop_
_atom_site_label
_atom_site_type_symbol
_atom_site_fract_x
_atom_site_fract_y
_atom_site_fract_z
Na1 Na -0.5000 -0.10008(15) 0.0000
Na2 Na 0.0000 -0.00873(14) 1.0000
O1 O -0.07595(10) 0.03588(16) 0.4527(6)
N1 N -0.34206(13) -0.1025(2) 0.1758(7)
O2 O -0.06035(10) -0.18077(16) 0.7752(6)
O3 O -0.38225(10) -0.03559(17) -0.0055(6)
O4 O -0.12530(9) -0.3073(2) 0.4714(5)
N2 N -0.11202(13) -0.2052(2) 0.5748(7)
O5 O -0.35961(10) -0.19710(18) 0.3024(6)
C1 C -0.25320(16) 0.0447(3) 0.1392(8)
H1 H -0.2852 0.0976 0.0281
C2 C -0.13592(15) 0.0009(3) 0.3809(8)
C3 C -0.18714(15) 0.0772(3) 0.2110(9)
H2 H -0.1748 0.1533 0.1457
C4 C -0.22575(15) -0.1487(3) 0.3777(8)
H3 H -0.2387 -0.2256 0.4282
C5 C -0.15992(15) -0.1149(3) 0.4466(8)
C6 C -0.27234(15) -0.0690(3) 0.2343(9)
O6 O -0.5000 -0.2456(3) -0.5000
O7 O -0.5000 0.0418(3) -0.5000
H4 H -0.5300(14) 0.088(3) -0.511(10)
H5 H -0.4654(15) -0.298(3) -0.498(9)
Na1_2 Na -0.5000 -0.10008(15) -1.0000
Na2_2 Na 0.0000 -0.00873(14) 0.0000
Na2_3 Na -1.0000 -0.00873(14) -1.0000
Na2_4 Na -1.0000 -0.00873(14) 0.0000
O1A O -0.92405(10) 0.03588(16) -0.4527(6)
O1_2 O -0.07595(10) 0.03588(16) 1.4527(6)
O1A_2 O 0.07595(10) 0.03588(16) 0.5473(6)
O1A_3 O 0.07595(10) 0.03588(16) 1.5473(6)
N1A N -0.65794(13) -0.1025(2) -0.1758(7)
O2A O -0.93965(10) -0.18077(16) -0.7752(6)
O2A_2 O 0.06035(10) -0.18077(16) 1.2248(6)
O3A O -0.61775(10) -0.03559(17) 0.0055(6)
O4A O -0.87470(9) -0.3073(2) -0.4714(5)
N2A N -0.88798(13) -0.2052(2) -0.5748(7)
O5A O -0.64039(10) -0.19710(18) -0.3024(6)
C1A C -0.74680(16) 0.0447(3) -0.1392(8)
H1A H -0.7148 0.0976 -0.0281
C2A C -0.86408(15) 0.0009(3) -0.3809(8)
C3A C -0.81286(15) 0.0772(3) -0.2110(9)
H2A H -0.8252 0.1533 -0.1457
C4A C -0.77425(15) -0.1487(3) -0.3777(8)
H3A H -0.7613 -0.2256 -0.4282
C5A C -0.84008(15) -0.1149(3) -0.4466(8)
C6A C -0.72766(15) -0.0690(3) -0.2343(9)
O6_2 O -0.5000 -0.2456(3) 0.5000
O7_2 O -0.5000 0.0418(3) 0.5000
H4A H -0.4700(14) 0.088(3) -0.489(10)
H4_2 H -0.5300(14) 0.088(3) 0.489(10)
H4A_2 H -0.4700(14) 0.088(3) 0.511(10)
H5A H -0.5346(15) -0.298(3) -0.502(9)
H5_2 H -0.4654(15) -0.298(3) 0.502(9)
H5A_2 H -0.5346(15) -0.298(3) 0.498(9)
loop_
_geom_bond_atom_site_label_1
_geom_bond_atom_site_label_2
_geom_bond_site_symmetry_1
_geom_bond_site_symmetry_2
Na1 O3 1_555 1_555
Na2 O1 1_555 1_555
O1 C2 1_555 1_555
N1 O3 1_555 1_555
O2 Na2 1_555 1_555
O4 N2 1_555 1_555
N2 O2 1_555 1_555
O5 N1 1_555 1_555
C1 H1 1_555 1_555
C2 C3 1_555 1_555
C3 C1 1_555 1_555
H2 C3 1_555 1_555
C4 H3 1_555 1_555
C5 N2 1_555 1_555
C6 N1 1_555 1_555
O6 Na1 1_555 1_555
O7 Na1 1_555 1_555
H4 O7 1_555 1_555
H5 O6 1_555 1_555
Na1_2 O6 1_555 1_555
Na2_2 O1 1_555 1_555
Na2_3 O1A 1_555 1_555
Na2_4 O1A 1_555 1_555
O1A C2A 1_555 1_555
O1_2 Na2 1_555 1_555
O1A_2 Na2 1_555 1_555
O1A_3 Na2 1_555 1_555
N1A O3A 1_555 1_555
O2A Na2_3 1_555 1_555
O2A_2 Na2 1_555 1_555
O3A Na1 1_555 1_555
O4A N2A 1_555 1_555
N2A O2A 1_555 1_555
O5A N1A 1_555 1_555
C1A H1A 1_555 1_555
C2A C3A 1_555 1_555
C3A C1A 1_555 1_555
H2A C3A 1_555 1_555
C4A H3A 1_555 1_555
C5A N2A 1_555 1_555
C6A N1A 1_555 1_555
O6_2 Na1 1_555 1_555
O7_2 Na1 1_555 1_555
H4A O7 1_555 1_555
H4_2 O7_2 1_555 1_555
H4A_2 O7_2 1_555 1_555
H5A O6 1_555 1_555
H5_2 O6_2 1_555 1_555
H5A_2 O6_2 1_555 1_555
C1 C6 1_555 1_555
C2 C5 1_555 1_555
C4 C5 1_555 1_555
C4 C6 1_555 1_555
O7 Na1_2 1_555 1_555
Na2_2 O1A_2 1_555 1_555
C1A C6A 1_555 1_555
C2A C5A 1_555 1_555
C4A C5A 1_555 1_555
C4A C6A 1_555 1_555

#END
