
#######################################################################
#
#                 Cambridge Crystallographic Data Centre
#                                CCDC 
#
#######################################################################
#
# If this CIF has been generated from an entry in the Cambridge 
# Structural Database, then it will include bibliographic, chemical, 
# crystal, experimental, refinement or atomic coordinate data resulting 
# from the CCDC's data processing and validation procedures.
#
#######################################################################

data_GIGXIF01
_symmetry_cell_setting           triclinic
_symmetry_space_group_name_H-M   'P -1'
_symmetry_Int_Tables_number      2
_space_group_name_Hall           '-P 1'
loop_
_symmetry_equiv_pos_site_id
_symmetry_equiv_pos_as_xyz
1 x,y,z
2 -x,-y,-z
_cell_length_a                   8.3570(17)
_cell_length_b                   8.7591(18)
_cell_length_c                   10.895(2)
_cell_angle_alpha                76.00(3)
_cell_angle_beta                 80.50(3)
_cell_angle_gamma                77.61(3)
_cell_volume                     750.394
loop_
_atom_site_label
_atom_site_type_symbol
_atom_site_fract_x
_atom_site_fract_y
_atom_site_fract_z
Pb1 Pb 0.06869(3) 0.53603(2) 0.332136(19)
S1 S 0.41861(18) 0.95588(16) 0.35135(14)
O1 O 0.2870(5) 0.6701(5) 0.2934(4)
O2 O 0.2610(5) 0.5792(5) 0.5018(4)
O3 O 0.2614(5) 1.2743(5) 0.3650(4)
O4 O 0.0866(5) 1.2246(5) 0.5428(4)
N1 N -0.0662(5) 0.7585(5) 0.1472(4)
N2 N 0.1884(6) 0.5158(5) 0.0983(4)
C1 C 0.3286(7) 0.6570(6) 0.4038(6)
C2 C 0.4649(7) 0.7426(6) 0.4109(6)
H1 H 0.5649 0.6988 0.3623
H2 H 0.4860 0.7217 0.4989
C3 C 0.2570(7) 1.0034(6) 0.4759(5)
H3 H 0.1651 0.9526 0.4749
H4 H 0.2981 0.9611 0.5580
C4 C 0.1970(7) 1.1833(7) 0.4595(5)
C5 C -0.1904(7) 0.8736(6) 0.1678(6)
H5 H -0.2273 0.8806 0.2520
C6 C -0.2702(8) 0.9849(7) 0.0738(6)
H6 H -0.3621 1.0591 0.0949
C7 C -0.2108(7) 0.9838(7) -0.0516(6)
H7 H -0.2593 1.0599 -0.1169
C8 C -0.0758(7) 0.8656(7) -0.0793(5)
C9 C -0.0055(8) 0.8564(7) -0.2069(6)
H8 H -0.0481 0.9324 -0.2748
C10 C 0.1210(8) 0.7397(7) -0.2297(5)
H9 H 0.1633 0.7347 -0.3134
C11 C 0.1921(7) 0.6226(7) -0.1277(5)
C12 C 0.3266(8) 0.5001(7) -0.1498(6)
H10 H 0.3738 0.4950 -0.2325
C13 C 0.1318(8) 0.6262(6) -0.0009(5)
C14 C 0.3866(8) 0.3895(7) -0.0492(6)
H11 H 0.4756 0.3087 -0.0627
C15 C 0.3131(8) 0.3981(7) 0.0757(6)
H12 H 0.3523 0.3201 0.1439
C16 C -0.0098(7) 0.7520(6) 0.0241(5)
Pb1_2 Pb 0.06869(3) 1.53603(2) 0.332136(19)
Pb1A Pb -0.06869(3) 1.46397(2) 0.667864(19)
O3_2 O 0.2614(5) 0.2743(5) 0.3650(4)
O4A O -0.0866(5) 0.7754(5) 0.4572(4)
loop_
_geom_bond_atom_site_label_1
_geom_bond_atom_site_label_2
_geom_bond_site_symmetry_1
_geom_bond_site_symmetry_2
Pb1 O1 1_555 1_555
S1 C2 1_555 1_555
O1 C1 1_555 1_555
O2 Pb1 1_555 1_555
O3 C4 1_555 1_555
O4 C4 1_555 1_555
N1 Pb1 1_555 1_555
N2 Pb1 1_555 1_555
C1 O2 1_555 1_555
C2 C1 1_555 1_555
H1 C2 1_555 1_555
H2 C2 1_555 1_555
C3 S1 1_555 1_555
H3 C3 1_555 1_555
H4 C3 1_555 1_555
C4 C3 1_555 1_555
C5 N1 1_555 1_555
H5 C5 1_555 1_555
C6 C5 1_555 1_555
H6 C6 1_555 1_555
C7 C6 1_555 1_555
H7 C7 1_555 1_555
C8 C7 1_555 1_555
C9 C8 1_555 1_555
H8 C9 1_555 1_555
C10 C9 1_555 1_555
H9 C10 1_555 1_555
C11 C10 1_555 1_555
C12 C11 1_555 1_555
H10 C12 1_555 1_555
C13 N2 1_555 1_555
C14 C12 1_555 1_555
H11 C14 1_555 1_555
C15 N2 1_555 1_555
H12 C15 1_555 1_555
C16 N1 1_555 1_555
Pb1_2 O3 1_555 1_555
Pb1A O4 1_555 1_555
O3_2 Pb1 1_555 1_555
O4A Pb1 1_555 1_555
C8 C16 1_555 1_555
C11 C13 1_555 1_555
C13 C16 1_555 1_555
C14 C15 1_555 1_555

#END
