
#######################################################################
#
#                 Cambridge Crystallographic Data Centre
#                                CCDC 
#
#######################################################################
#
# If this CIF has been generated from an entry in the Cambridge 
# Structural Database, then it will include bibliographic, chemical, 
# crystal, experimental, refinement or atomic coordinate data resulting 
# from the CCDC's data processing and validation procedures.
#
#######################################################################

data_GIGXUR
_symmetry_cell_setting           monoclinic
_symmetry_space_group_name_H-M   'C 2/c'
_symmetry_Int_Tables_number      15
_space_group_name_Hall           '-C 2yn'
loop_
_symmetry_equiv_pos_site_id
_symmetry_equiv_pos_as_xyz
1 x,y,z
2 -x,y,1/2-z
3 1/2+x,1/2+y,z
4 1/2-x,1/2+y,1/2-z
5 -x,-y,-z
6 x,-y,1/2+z
7 1/2-x,1/2-y,-z
8 1/2+x,1/2-y,1/2+z
_cell_length_a                   10.253(2)
_cell_length_b                   20.192(4)
_cell_length_c                   8.337(2)
_cell_angle_alpha                90
_cell_angle_beta                 117.410(10)
_cell_angle_gamma                90
_cell_volume                     1532.23
loop_
_atom_site_label
_atom_site_type_symbol
_atom_site_fract_x
_atom_site_fract_y
_atom_site_fract_z
Pb1 Pb 0.0000 0.041029(13) 0.7500
N1 N -0.0576(5) 0.1475(2) 0.5666(6)
C1 C -0.1189(7) 0.1473(3) 0.3853(8)
C2 C -0.1528(7) 0.2061(4) 0.2833(9)
C3 C -0.1246(7) 0.2656(3) 0.3689(9)
C4 C -0.0625(6) 0.2676(3) 0.5600(9)
C5 C -0.0303(6) 0.2065(3) 0.6553(8)
C6 C -0.0304(7) 0.3285(3) 0.6601(10)
O1 O 0.2656(5) 0.0748(3) 0.8048(6)
O2 O 0.1597(7) 0.0138(3) 0.5686(9)
C7 C 0.2616(7) 0.0505(3) 0.6692(9)
C8 C 0.3851(8) 0.0637(5) 0.6214(10)
O3 O 0.5000 0.1005(3) 0.7500
H1 H -0.133(7) 0.101(4) 0.329(9)
H2 H -0.198(8) 0.205(4) 0.161(10)
H3 H -0.140(7) 0.302(3) 0.306(9)
H4 H -0.057(7) 0.362(4) 0.606(9)
H5 H 0.353(13) 0.087(6) 0.515(16)
H6 H 0.422(8) 0.022(4) 0.619(9)
N1A N 0.0576(5) 0.1475(2) 0.9334(6)
C1A C 0.1189(7) 0.1473(3) 1.1147(8)
C2A C 0.1528(7) 0.2061(4) 1.2167(9)
C3A C 0.1246(7) 0.2656(3) 1.1311(9)
C4A C 0.0625(6) 0.2676(3) 0.9400(9)
C5A C 0.0303(6) 0.2065(3) 0.8447(8)
C6A C 0.0304(7) 0.3285(3) 0.8399(10)
H1A H 0.133(7) 0.101(4) 1.171(9)
H2A H 0.198(8) 0.205(4) 1.339(10)
H3A H 0.140(7) 0.302(3) 1.194(9)
H4A H 0.057(7) 0.362(4) 0.894(9)
O1A O 0.7344(5) 0.0748(3) 0.6952(6)
O2A O 0.8403(7) 0.0138(3) 0.9314(9)
C7A C 0.7384(7) 0.0505(3) 0.8308(9)
C8A C 0.6149(8) 0.0637(5) 0.8786(10)
H5A H 0.647(13) 0.087(6) 0.985(16)
H6A H 0.578(8) 0.022(4) 0.881(9)
Pb1_2 Pb 1.0000 0.041029(13) 0.7500
Pb1D Pb 0.0000 -0.041029(13) 0.2500
Pb1D_2 Pb 1.0000 -0.041029(13) 1.2500
O1A_2 O -0.2656(5) 0.0748(3) 0.6952(6)
O2A_2 O -0.1597(7) 0.0138(3) 0.9314(9)
O2D O -0.1597(7) -0.0138(3) 0.4314(9)
O2E O 0.1597(7) -0.0138(3) 1.0686(9)
loop_
_geom_bond_atom_site_label_1
_geom_bond_atom_site_label_2
_geom_bond_site_symmetry_1
_geom_bond_site_symmetry_2
Pb1 N1 1_555 1_555
N1 C1 1_555 1_555
C1 C2 1_555 1_555
C2 C3 1_555 1_555
C3 C4 1_555 1_555
C4 C5 1_555 1_555
C5 N1 1_555 1_555
C6 C4 1_555 1_555
O1 Pb1 1_555 1_555
O2 Pb1 1_555 1_555
C7 O1 1_555 1_555
C8 C7 1_555 1_555
O3 C8 1_555 1_555
H1 C1 1_555 1_555
H2 C2 1_555 1_555
H3 C3 1_555 1_555
H4 C6 1_555 1_555
H5 C8 1_555 1_555
H6 C8 1_555 1_555
N1A Pb1 1_555 1_555
C1A N1A 1_555 1_555
C2A C1A 1_555 1_555
C3A C2A 1_555 1_555
C4A C3A 1_555 1_555
C5A C5 1_555 1_555
C6A C6 1_555 1_555
H1A C1A 1_555 1_555
H2A C2A 1_555 1_555
H3A C3A 1_555 1_555
H4A C6A 1_555 1_555
O1A C7A 1_555 1_555
O2A C7A 1_555 1_555
C7A C8A 1_555 1_555
C8A O3 1_555 1_555
H5A C8A 1_555 1_555
H6A C8A 1_555 1_555
Pb1_2 O1A 1_555 1_555
Pb1D O2 1_555 1_555
Pb1D_2 O2A 1_555 1_555
O1A_2 Pb1 1_555 1_555
O2A_2 Pb1 1_555 1_555
O2D Pb1 1_555 1_555
O2E Pb1 1_555 1_555
O2 C7 1_555 1_555
N1A C5A 1_555 1_555
C4A C5A 1_555 1_555
C4A C6A 1_555 1_555
O2A Pb1_2 1_555 1_555
Pb1D O2D 1_555 1_555

#END
