
#######################################################################
#
#                 Cambridge Crystallographic Data Centre
#                                CCDC 
#
#######################################################################
#
# If this CIF has been generated from an entry in the Cambridge 
# Structural Database, then it will include bibliographic, chemical, 
# crystal, experimental, refinement or atomic coordinate data resulting 
# from the CCDC's data processing and validation procedures.
#
#######################################################################

data_GIGXUQ
_symmetry_cell_setting           monoclinic
_symmetry_space_group_name_H-M   'P 21/c'
_symmetry_Int_Tables_number      14
_space_group_name_Hall           '-P 2ybc'
loop_
_symmetry_equiv_pos_site_id
_symmetry_equiv_pos_as_xyz
1 x,y,z
2 -x,1/2+y,1/2-z
3 -x,-y,-z
4 x,1/2-y,1/2+z
_cell_length_a                   13.300(3)
_cell_length_b                   11.075(2)
_cell_length_c                   14.334(3)
_cell_angle_alpha                90
_cell_angle_beta                 116.82(3)
_cell_angle_gamma                90
_cell_volume                     1884.24
loop_
_atom_site_label
_atom_site_type_symbol
_atom_site_fract_x
_atom_site_fract_y
_atom_site_fract_z
C1 C 0.4008(2) 0.2780(2) 0.71383(18)
C2 C 0.4978(2) 0.2657(2) 0.68613(18)
H1 H 0.4889 0.1873 0.6516
C3 C 0.6113(2) 0.2625(2) 0.78389(18)
H2 H 0.6228 0.3382 0.8214
H3 H 0.6109 0.1981 0.8295
C4 C 0.7079(2) 0.2425(2) 0.7561(2)
H4 H 0.7022 0.1617 0.7280
H5 H 0.7788 0.2479 0.8192
C5 C 0.7085(2) 0.3338(2) 0.67631(17)
H6 H 0.7632 0.3054 0.6529
C6 C 0.5928(2) 0.3373(2) 0.58001(17)
H7 H 0.5928 0.4003 0.5330
H8 H 0.5796 0.2609 0.5433
C7 C 0.4978(2) 0.3608(2) 0.60950(17)
H9 H 0.5072 0.4402 0.6409
H10 H 0.4261 0.3593 0.5471
C8 C 0.74491(19) 0.4602(2) 0.72160(17)
C9 C 0.3517(2) 0.4190(2) 0.92264(19)
H11 H 0.4015 0.4346 0.8948
C10 C 0.3467(3) 0.4798(3) 1.0017(2)
H12 H 0.3919 0.5445 1.0383
C11 C 0.2184(2) 0.3384(2) 0.94879(17)
C12 C 0.1208(3) 0.2644(3) 0.9383(3)
H13 H 0.0613 0.3166 0.9342
H14 H 0.1434 0.2123 0.9979
H15 H 0.0946 0.2165 0.8759
C13 C 0.0093(2) 0.1407(2) 0.6170(2)
H16 H 0.0239 0.0583 0.6269
C14 C -0.0897(2) 0.1900(3) 0.5501(2)
H17 H -0.1549 0.1491 0.5056
C15 C 0.0311(2) 0.3347(2) 0.63310(17)
C16 C 0.0767(2) 0.4585(2) 0.6651(2)
H18 H 0.0327 0.5147 0.6110
H19 H 0.1535 0.4609 0.6766
H20 H 0.0732 0.4800 0.7285
N1 N 0.27049(17) 0.32969(17) 0.88959(14)
N2 N 0.2633(2) 0.42856(19) 1.01784(15)
H21 H 0.2427 0.4501 1.0643
N3 N 0.08621(16) 0.23135(16) 0.66915(14)
N4 N -0.07494(17) 0.3123(2) 0.56069(16)
H22 H -0.1250 0.3658 0.5268
O1 O 0.3881(2) 0.19246(18) 0.76549(19)
O2 O 0.33529(19) 0.3642(2) 0.68658(16)
O4 O 0.74594(15) 0.54197(14) 0.65811(12)
O5 O 0.77284(16) 0.48266(16) 0.81481(13)
Co1 Co 0.24756(3) 0.20400(3) 0.77712(2)
O4A O 0.25406(15) 0.04197(14) 0.84189(12)
Co1A Co 0.75244(3) 0.70400(3) 0.72288(2)
O3 O -0.23698(18) 0.48020(19) 0.47705(16)
H23 H -0.249(2) 0.503(2) 0.5266(16)
H24 H -0.271(3) 0.521(3) 0.4237(16)
loop_
_geom_bond_atom_site_label_1
_geom_bond_atom_site_label_2
_geom_bond_site_symmetry_1
_geom_bond_site_symmetry_2
C1 C2 1_555 1_555
C2 H1 1_555 1_555
C3 C2 1_555 1_555
H2 C3 1_555 1_555
H3 C3 1_555 1_555
C4 C3 1_555 1_555
H4 C4 1_555 1_555
H5 C4 1_555 1_555
C5 C4 1_555 1_555
H6 C5 1_555 1_555
C6 C5 1_555 1_555
H7 C6 1_555 1_555
H8 C6 1_555 1_555
C7 C2 1_555 1_555
H9 C7 1_555 1_555
H10 C7 1_555 1_555
C8 C5 1_555 1_555
C9 H11 1_555 1_555
C10 C9 1_555 1_555
H12 C10 1_555 1_555
C11 C12 1_555 1_555
C12 H13 1_555 1_555
H14 C12 1_555 1_555
H15 C12 1_555 1_555
C13 H16 1_555 1_555
C14 C13 1_555 1_555
H17 C14 1_555 1_555
C15 C16 1_555 1_555
C16 H18 1_555 1_555
H19 C16 1_555 1_555
H20 C16 1_555 1_555
N1 C9 1_555 1_555
N2 C10 1_555 1_555
H21 N2 1_555 1_555
N3 C13 1_555 1_555
N4 C14 1_555 1_555
H22 N4 1_555 1_555
O1 C1 1_555 1_555
O2 C1 1_555 1_555
O3 H23 1_555 1_555
O4 C8 1_555 1_555
O5 C8 1_555 1_555
Co1 N1 1_555 1_555
H24 O3 1_555 1_555
O4A Co1 1_555 1_555
Co1A O4 1_555 1_555
C6 C7 1_555 1_555
C11 N1 1_555 1_555
C11 N2 1_555 1_555
C15 N3 1_555 1_555
C15 N4 1_555 1_555
N3 Co1 1_555 1_555
O1 Co1 1_555 1_555

#END
