
#######################################################################
#
#                 Cambridge Crystallographic Data Centre
#                                CCDC 
#
#######################################################################
#
# If this CIF has been generated from an entry in the Cambridge 
# Structural Database, then it will include bibliographic, chemical, 
# crystal, experimental, refinement or atomic coordinate data resulting 
# from the CCDC's data processing and validation procedures.
#
#######################################################################

data_GIHPUK
_symmetry_cell_setting           orthorhombic
_symmetry_space_group_name_H-M   'P b c a'
_symmetry_Int_Tables_number      61
_space_group_name_Hall           '-P 2ac 2ab'
loop_
_symmetry_equiv_pos_site_id
_symmetry_equiv_pos_as_xyz
1 x,y,z
2 1/2-x,-y,1/2+z
3 1/2+x,1/2-y,-z
4 -x,1/2+y,1/2-z
5 -x,-y,-z
6 1/2+x,y,1/2-z
7 1/2-x,1/2+y,z
8 x,1/2-y,1/2+z
_cell_length_a                   15.4331(16)
_cell_length_b                   12.9048(13)
_cell_length_c                   15.7762(16)
_cell_angle_alpha                90
_cell_angle_beta                 90
_cell_angle_gamma                90
_cell_volume                     3142
loop_
_atom_site_label
_atom_site_type_symbol
_atom_site_fract_x
_atom_site_fract_y
_atom_site_fract_z
C1 C 0.1146(7) 0.1354(8) 0.4045(7)
H1 H 0.1488 0.0762 0.4054
C2 C 0.1494(6) 0.2244(8) 0.3671(7)
C3 C 0.0961(7) 0.3116(8) 0.3634(7)
H2 H 0.1163 0.3722 0.3385
C4 C 0.0121(7) 0.3079(8) 0.3972(7)
C5 C -0.0143(7) 0.2138(8) 0.4347(7)
H3 H -0.0697 0.2104 0.4578
C6 C 0.2388(7) 0.2211(8) 0.3338(7)
C7 C 0.2628(8) 0.1391(9) 0.2826(8)
H4 H 0.2220 0.0898 0.2667
C8 C 0.3479(9) 0.1304(11) 0.2551(9)
H5 H 0.3643 0.0761 0.2197
C9 C 0.4071(8) 0.2023(10) 0.2804(7)
H6 H 0.4641 0.1968 0.2616
C10 C 0.3850(6) 0.2815(8) 0.3324(7)
C11 C 0.2996(6) 0.2924(8) 0.3602(7)
H7 H 0.2840 0.3467 0.3958
C12 C 0.4567(7) 0.3533(8) 0.3682(7)
C13 C -0.0476(6) 0.3964(8) 0.3971(7)
C14 C -0.1389(6) 0.3825(8) 0.3985(7)
H8 H -0.1613 0.3160 0.3928
C15 C -0.1964(7) 0.4657(9) 0.4081(7)
C16 C -0.1630(9) 0.5649(9) 0.4110(8)
H9 H -0.2006 0.6207 0.4170
C17 C -0.0767(8) 0.5826(9) 0.4052(9)
H10 H -0.0557 0.6502 0.4054
C18 C -0.0191(8) 0.4991(9) 0.3989(9)
H11 H 0.0401 0.5125 0.3959
C19 C -0.2918(8) 0.4494(9) 0.4083(8)
Cu1 Cu 0.5000 0.5000 0.5000
N1 N 0.0356(5) 0.1294(7) 0.4389(6)
O1 O 0.4323(4) 0.4205(5) 0.4194(5)
O2 O 0.5295(6) 0.3358(8) 0.3418(7)
O3 O -0.3424(6) 0.5151(6) 0.4320(6)
O4 O -0.3167(5) 0.3549(7) 0.3855(9)
H12 H -0.2794 0.3287 0.3554
C1D C -0.1146(7) 0.8646(8) 0.5955(7)
H1D H -0.1488 0.9238 0.5946
C2D C -0.1494(6) 0.7756(8) 0.6329(7)
C3D C -0.0961(7) 0.6884(8) 0.6366(7)
H2D H -0.1163 0.6278 0.6615
C4D C -0.0121(7) 0.6921(8) 0.6028(7)
C5D C 0.0143(7) 0.7862(8) 0.5653(7)
H3D H 0.0697 0.7896 0.5422
C6D C -0.2388(7) 0.7789(8) 0.6662(7)
C7D C -0.2628(8) 0.8609(9) 0.7174(8)
H4D H -0.2220 0.9102 0.7333
C8D C -0.3479(9) 0.8696(11) 0.7449(9)
H5D H -0.3643 0.9239 0.7803
C9D C -0.4071(8) 0.7977(10) 0.7196(7)
H6D H -0.4641 0.8032 0.7384
C10D C -0.3850(6) 0.7185(8) 0.6676(7)
C11D C -0.2996(6) 0.7076(8) 0.6398(7)
H7D H -0.2840 0.6533 0.6042
C12D C -0.4567(7) 0.6467(8) 0.6318(7)
C13D C 0.0476(6) 0.6036(8) 0.6029(7)
C14D C 0.1389(6) 0.6175(8) 0.6015(7)
H8D H 0.1613 0.6840 0.6072
C15D C 0.1964(7) 0.5343(9) 0.5919(7)
C16D C 0.1630(9) 0.4351(9) 0.5890(8)
H9D H 0.2006 0.3793 0.5830
C17D C 0.0767(8) 0.4174(9) 0.5948(9)
H10D H 0.0557 0.3498 0.5946
C18D C 0.0191(8) 0.5009(9) 0.6011(9)
H11D H -0.0401 0.4875 0.6041
C19D C 0.2918(8) 0.5506(9) 0.5917(8)
N1D N -0.0356(5) 0.8706(7) 0.5611(6)
O1D O -0.4323(4) 0.5795(5) 0.5806(5)
O2D O -0.5295(6) 0.6642(8) 0.6582(7)
O3D O 0.3424(6) 0.4849(6) 0.5680(6)
O4D O 0.3167(5) 0.6451(7) 0.6145(9)
H12D H 0.2794 0.6713 0.6446
Cu1_2 Cu -0.5000 0.5000 0.5000
Cu1B Cu 0.0000 0.0000 0.5000
Cu1B_2 Cu 0.0000 1.0000 0.5000
N1B N 0.5356(5) 0.3706(7) 0.5611(6)
N1F N 0.4644(5) 0.6294(7) 0.4389(6)
O1D_2 O 0.5677(4) 0.5795(5) 0.5806(5)
O3_2 O 0.6576(6) 0.5151(6) 0.4320(6)
loop_
_geom_bond_atom_site_label_1
_geom_bond_atom_site_label_2
_geom_bond_site_symmetry_1
_geom_bond_site_symmetry_2
C1 H1 1_555 1_555
C2 C1 1_555 1_555
C3 C2 1_555 1_555
H2 C3 1_555 1_555
C4 C3 1_555 1_555
C5 C4 1_555 1_555
H3 C5 1_555 1_555
C6 C2 1_555 1_555
C7 C6 1_555 1_555
H4 C7 1_555 1_555
C8 C7 1_555 1_555
H5 C8 1_555 1_555
C9 C8 1_555 1_555
H6 C9 1_555 1_555
C10 C9 1_555 1_555
C11 C6 1_555 1_555
H7 C11 1_555 1_555
C12 C10 1_555 1_555
C13 C4 1_555 1_555
C14 C13 1_555 1_555
H8 C14 1_555 1_555
C15 C14 1_555 1_555
C16 C15 1_555 1_555
H9 C16 1_555 1_555
C17 C16 1_555 1_555
H10 C17 1_555 1_555
C18 C13 1_555 1_555
H11 C18 1_555 1_555
C19 C15 1_555 1_555
Cu1 O1 1_555 1_555
N1 C1 1_555 1_555
O1 C12 1_555 1_555
O2 C12 1_555 1_555
O3 C19 1_555 1_555
O4 C19 1_555 1_555
H12 O4 1_555 1_555
C1D H1D 1_555 1_555
C2D C1D 1_555 1_555
C3D C2D 1_555 1_555
H2D C3D 1_555 1_555
C4D C3D 1_555 1_555
C5D C4D 1_555 1_555
H3D C5D 1_555 1_555
C6D C2D 1_555 1_555
C7D C6D 1_555 1_555
H4D C7D 1_555 1_555
C8D C7D 1_555 1_555
H5D C8D 1_555 1_555
C9D C8D 1_555 1_555
H6D C9D 1_555 1_555
C10D C9D 1_555 1_555
C11D C6D 1_555 1_555
H7D C11D 1_555 1_555
C12D C10D 1_555 1_555
C13D C4D 1_555 1_555
C14D C13D 1_555 1_555
H8D C14D 1_555 1_555
C15D C14D 1_555 1_555
C16D C15D 1_555 1_555
H9D C16D 1_555 1_555
C17D C16D 1_555 1_555
H10D C17D 1_555 1_555
C18D C13D 1_555 1_555
H11D C18D 1_555 1_555
C19D C15D 1_555 1_555
N1D C1D 1_555 1_555
O1D C12D 1_555 1_555
O2D C12D 1_555 1_555
O3D Cu1 1_555 1_555
O4D C19D 1_555 1_555
H12D O4D 1_555 1_555
Cu1_2 O3 1_555 1_555
Cu1B N1 1_555 1_555
Cu1B_2 N1D 1_555 1_555
N1B Cu1 1_555 1_555
N1F Cu1 1_555 1_555
O1D_2 Cu1 1_555 1_555
O3_2 Cu1 1_555 1_555
C5 N1 1_555 1_555
C10 C11 1_555 1_555
C17 C18 1_555 1_555
C5D N1D 1_555 1_555
C10D C11D 1_555 1_555
C17D C18D 1_555 1_555
C19D O3D 1_555 1_555
O1D Cu1_2 1_555 1_555

#END
