
#######################################################################
#
#                 Cambridge Crystallographic Data Centre
#                                CCDC 
#
#######################################################################
#
# If this CIF has been generated from an entry in the Cambridge 
# Structural Database, then it will include bibliographic, chemical, 
# crystal, experimental, refinement or atomic coordinate data resulting 
# from the CCDC's data processing and validation procedures.
#
#######################################################################

data_GIHQUK
_symmetry_cell_setting           monoclinic
_symmetry_space_group_name_H-M   'P 21/c'
_symmetry_Int_Tables_number      14
_space_group_name_Hall           '-P 2ybc'
loop_
_symmetry_equiv_pos_site_id
_symmetry_equiv_pos_as_xyz
1 x,y,z
2 -x,1/2+y,1/2-z
3 -x,-y,-z
4 x,1/2-y,1/2+z
_cell_length_a                   14.289(3)
_cell_length_b                   22.331(4)
_cell_length_c                   18.852(4)
_cell_angle_alpha                90
_cell_angle_beta                 109.64(3)
_cell_angle_gamma                90
_cell_volume                     5665.48
loop_
_atom_site_label
_atom_site_type_symbol
_atom_site_fract_x
_atom_site_fract_y
_atom_site_fract_z
O7 O 0.3550(7) 0.5256(4) 0.3497(7)
H5 H 0.3890 0.5566 0.3654
C51 C 0.3471(12) 0.4923(6) 0.4122(8)
H49 H 0.3922 0.4579 0.4220
H50 H 0.2786 0.4781 0.4006
H51 H 0.3649 0.5181 0.4568
O8 O 0.3896(4) 0.4585(2) 0.0281(3)
H6 H 0.3831 0.4666 -0.0168
C52 C 0.4856(5) 0.4346(3) 0.0648(4)
H52 H 0.5359 0.4639 0.0632
H53 H 0.4939 0.3977 0.0393
H54 H 0.4934 0.4256 0.1174
O9 O -0.0348(7) 0.5425(4) 0.0317(5)
H7 H -0.0077 0.5562 0.0754
C53 C -0.0890(7) 0.5886(4) -0.0163(5)
H55 H -0.0761 0.6269 0.0107
H56 H -0.1602 0.5796 -0.0322
H57 H -0.0682 0.5913 -0.0607
W1 W 0.317746(11) 0.291070(6) 0.547745(8)
Mn1 Mn 0.04172(4) 0.38954(3) 0.32132(3)
Mn2 Mn 0.47546(4) 0.31246(3) 0.32148(3)
O1 O 0.1590(2) 0.41872(14) 0.26751(19)
O2 O 0.0526(2) 0.48347(14) 0.2838(2)
O4 O 0.3585(2) 0.39362(14) 0.27733(18)
H2 H 0.3131 0.4045 0.2935
O5 O 0.6058(2) 0.31365(14) 0.42994(16)
H3 H 0.6461 0.2850 0.4427
O6 O -0.0815(2) 0.37650(16) 0.21279(17)
N1 N 0.3879(3) 0.30550(15) 0.39762(19)
N2 N 0.1633(2) 0.38669(14) 0.43216(18)
N3 N 0.0902(3) 0.25119(17) 0.5387(2)
N4 N 0.2578(3) 0.37818(15) 0.6678(2)
N5 N 0.3759(3) 0.21742(15) 0.70826(19)
N6 N 0.5420(3) 0.23106(18) 0.5901(2)
N7 N 0.4719(3) 0.40618(17) 0.5928(2)
N8 N 0.2842(3) 0.15491(17) 0.4740(2)
N9 N 0.0897(2) 0.29179(15) 0.30116(19)
N10 N -0.0384(2) 0.32060(14) 0.36814(18)
N11 N -0.0599(2) 0.43638(15) 0.38220(18)
N12 N -0.1562(2) 0.29717(15) 0.42710(18)
N13 N -0.2690(2) 0.21243(15) 0.46641(19)
N14 N -0.0775(2) 0.21937(14) 0.38111(18)
N15 N 0.4917(2) 0.20404(14) 0.33160(19)
N16 N 0.5965(2) 0.27778(14) 0.27785(18)
N17 N 0.5703(2) 0.39220(15) 0.29955(18)
N18 N 0.7289(2) 0.29837(15) 0.23225(18)
N19 N 0.8623(3) 0.25800(17) 0.16817(19)
N20 N 0.6795(2) 0.19764(15) 0.24287(18)
C1 C 0.3608(3) 0.30060(16) 0.4475(2)
C2 C 0.2186(3) 0.35480(17) 0.4736(2)
C3 C 0.1696(3) 0.26365(17) 0.5425(2)
C4 C 0.2776(3) 0.34836(17) 0.6252(2)
C5 C 0.3519(3) 0.24145(17) 0.6513(2)
C6 C 0.4650(3) 0.25222(18) 0.5750(2)
C7 C 0.4180(3) 0.36653(18) 0.5764(2)
C8 C 0.2933(3) 0.20237(18) 0.4982(2)
C9 C 0.1584(3) 0.27907(19) 0.2697(2)
H10 H 0.1886 0.3112 0.2525
C10 C 0.1875(3) 0.22105(19) 0.2609(2)
H11 H 0.2368 0.2139 0.2384
C11 C 0.1442(3) 0.1739(2) 0.2854(2)
H12 H 0.1629 0.1338 0.2798
C12 C 0.0729(3) 0.18586(18) 0.3182(2)
H13 H 0.0416 0.1542 0.3354
C13 C 0.0482(3) 0.24479(18) 0.3252(2)
C14 C -0.0270(3) 0.26168(17) 0.3597(2)
C15 C -0.1022(3) 0.33550(17) 0.4029(2)
C16 C -0.1102(3) 0.40101(17) 0.4152(2)
C17 C -0.1651(3) 0.42252(18) 0.4582(2)
H14 H -0.2010 0.3962 0.4792
C18 C -0.1655(3) 0.48420(19) 0.4695(2)
H15 H -0.2007 0.5007 0.4996
C19 C -0.1145(3) 0.52087(19) 0.4364(2)
H16 H -0.1140 0.5630 0.4435
C20 C -0.0636(3) 0.49557(18) 0.3926(2)
H17 H -0.0301 0.5214 0.3690
C21 C -0.1412(3) 0.23903(17) 0.4146(2)
C22 C -0.1974(3) 0.19278(18) 0.4399(2)
C23 C -0.1752(3) 0.13266(19) 0.4362(3)
H18 H -0.1252 0.1207 0.4164
C24 C -0.2273(4) 0.0902(2) 0.4618(3)
H19 H -0.2147 0.0487 0.4588
C25 C -0.2979(4) 0.1098(2) 0.4919(3)
H20 H -0.3332 0.0821 0.5115
C26 C -0.3162(3) 0.1712(2) 0.4927(2)
H21 H -0.3651 0.1842 0.5132
C27 C 0.1189(3) 0.4706(2) 0.2570(2)
C28 C 0.1528(4) 0.5170(2) 0.2127(3)
H22 H 0.1137 0.5536 0.2087
H23 H 0.1436 0.5015 0.1622
H24 H 0.2233 0.5259 0.2385
C29 C -0.1155(14) 0.4223(9) 0.1551(9)
H25 H -0.1790 0.4100 0.1180
H26 H -0.0661 0.4276 0.1300
H27 H -0.1244 0.4601 0.1783
C30 C 0.4401(3) 0.16779(19) 0.3617(2)
H28 H 0.3954 0.1853 0.3834
C31 C 0.4491(3) 0.10622(19) 0.3626(2)
H29 H 0.4115 0.0822 0.3849
C32 C 0.5126(3) 0.07977(19) 0.3311(2)
H30 H 0.5202 0.0375 0.3317
C33 C 0.5654(3) 0.11614(18) 0.2984(2)
H31 H 0.6086 0.0992 0.2749
C34 C 0.5540(3) 0.17729(18) 0.3006(2)
C35 C 0.6116(3) 0.21931(17) 0.2708(2)
C36 C 0.6570(3) 0.31522(18) 0.2588(2)
C37 C 0.6432(3) 0.37962(17) 0.2719(2)
C38 C 0.7050(3) 0.42287(18) 0.2581(2)
H32 H 0.7542 0.4123 0.2368
C39 C 0.6928(3) 0.48177(19) 0.2763(2)
H33 H 0.7334 0.5124 0.2672
C40 C 0.6210(3) 0.49551(19) 0.3078(2)
H34 H 0.6134 0.5353 0.3230
C41 C 0.5602(3) 0.44974(19) 0.3168(2)
H35 H 0.5088 0.4596 0.3361
C42 C 0.7336(3) 0.23900(18) 0.2224(2)
C43 C 0.8058(3) 0.21665(19) 0.1875(2)
C44 C 0.8123(3) 0.1556(2) 0.1752(2)
H36 H 0.7706 0.1280 0.1888
C45 C 0.8799(3) 0.1357(2) 0.1430(3)
H37 H 0.8868 0.0941 0.1354
C46 C 0.9381(3) 0.1774(2) 0.1215(2)
H38 H 0.9845 0.1651 0.0983
C47 C 0.9260(3) 0.2373(2) 0.1352(2)
H39 H 0.9653 0.2657 0.1203
C48 C 0.3392(4) 0.4172(3) 0.2020(3)
H40 H 0.3871 0.4003 0.1806
H41 H 0.3458 0.4609 0.2043
H42 H 0.2717 0.4064 0.1702
C49 C 0.6141(3) 0.3495(2) 0.4939(2)
H43 H 0.5661 0.3825 0.4792
H44 H 0.6815 0.3658 0.5143
H45 H 0.6002 0.3250 0.5323
Mn2C Mn 0.47546(4) 0.18754(3) 0.82148(3)
N5C N 0.3759(3) 0.28258(15) 0.20826(19)
O3? O -0.0815(2) 0.37650(16) 0.21279(17)
H1? H -0.1089 0.3437 0.1959
H4? H -0.1071 0.4090 0.2194
O10? O -0.1798(10) 0.5192(6) 0.1421(7)
H8? H -0.2164 0.5339 0.1011
O11? O 0.3444(7) 0.5322(4) 0.3751(7)
H9? H 0.3208 0.5617 0.3909
C50? C -0.0520(10) 0.3811(6) 0.1437(6)
H46? H -0.1035 0.3628 0.1009
H47? H 0.0112 0.3602 0.1524
H48? H -0.0444 0.4234 0.1327
C54? C -0.0889(8) 0.5403(5) 0.1581(6)
H58? H -0.0789 0.5737 0.1937
H59? H -0.0792 0.5544 0.1118
H60? H -0.0408 0.5085 0.1808
C55? C 0.3684(10) 0.4859(4) 0.4308(7)
H61? H 0.4316 0.4673 0.4335
H62? H 0.3158 0.4556 0.4172
H63? H 0.3743 0.5031 0.4799
O12? O -0.1199(16) 0.4802(10) 0.1190(12)
loop_
_geom_bond_atom_site_label_1
_geom_bond_atom_site_label_2
_geom_bond_site_symmetry_1
_geom_bond_site_symmetry_2
W1 C1 1_555 1_555
Mn1 O1 1_555 1_555
Mn2 O4 1_555 1_555
O1 C27 1_555 1_555
O2 Mn1 1_555 1_555
O4 H2 1_555 1_555
O5 Mn2 1_555 1_555
H3 O5 1_555 1_555
O6 Mn1 1_555 1_555
O7 H5 1_555 1_555
O8 H6 1_555 1_555
O9 H7 1_555 1_555
N1 Mn2 1_555 1_555
N2 Mn1 1_555 1_555
N3 C3 1_555 1_555
N4 C4 1_555 1_555
N5 C5 1_555 1_555
N6 C6 1_555 1_555
N7 C7 1_555 1_555
N8 C8 1_555 1_555
N9 Mn1 1_555 1_555
N10 Mn1 1_555 1_555
N11 Mn1 1_555 1_555
N12 C15 1_555 1_555
N13 C22 1_555 1_555
N14 C14 1_555 1_555
N15 Mn2 1_555 1_555
N16 Mn2 1_555 1_555
N17 Mn2 1_555 1_555
N18 C36 1_555 1_555
N19 C43 1_555 1_555
N20 C35 1_555 1_555
C1 N1 1_555 1_555
C2 W1 1_555 1_555
C3 W1 1_555 1_555
C4 W1 1_555 1_555
C5 W1 1_555 1_555
C6 W1 1_555 1_555
C7 W1 1_555 1_555
C8 W1 1_555 1_555
C9 N9 1_555 1_555
H10 C9 1_555 1_555
C10 C9 1_555 1_555
H11 C10 1_555 1_555
C11 C10 1_555 1_555
H12 C11 1_555 1_555
C12 C11 1_555 1_555
H13 C12 1_555 1_555
C13 N9 1_555 1_555
C14 N10 1_555 1_555
C15 N10 1_555 1_555
C16 N11 1_555 1_555
C17 C16 1_555 1_555
H14 C17 1_555 1_555
C18 C17 1_555 1_555
H15 C18 1_555 1_555
C19 C18 1_555 1_555
H16 C19 1_555 1_555
C20 N11 1_555 1_555
H17 C20 1_555 1_555
C21 N12 1_555 1_555
C22 C21 1_555 1_555
C23 C22 1_555 1_555
H18 C23 1_555 1_555
C24 C23 1_555 1_555
H19 C24 1_555 1_555
C25 C24 1_555 1_555
H20 C25 1_555 1_555
C26 N13 1_555 1_555
H21 C26 1_555 1_555
C27 O2 1_555 1_555
C28 C27 1_555 1_555
H22 C28 1_555 1_555
H23 C28 1_555 1_555
H24 C28 1_555 1_555
C29 O6 1_555 1_555
H25 C29 1_555 1_555
H26 C29 1_555 1_555
H27 C29 1_555 1_555
C30 N15 1_555 1_555
H28 C30 1_555 1_555
C31 C30 1_555 1_555
H29 C31 1_555 1_555
C32 C31 1_555 1_555
H30 C32 1_555 1_555
C33 C32 1_555 1_555
H31 C33 1_555 1_555
C34 N15 1_555 1_555
C35 N16 1_555 1_555
C36 N16 1_555 1_555
C37 N17 1_555 1_555
C38 C37 1_555 1_555
H32 C38 1_555 1_555
C39 C38 1_555 1_555
H33 C39 1_555 1_555
C40 C39 1_555 1_555
H34 C40 1_555 1_555
C41 N17 1_555 1_555
H35 C41 1_555 1_555
C42 N18 1_555 1_555
C43 C42 1_555 1_555
C44 C43 1_555 1_555
H36 C44 1_555 1_555
C45 C44 1_555 1_555
H37 C45 1_555 1_555
C46 C45 1_555 1_555
H38 C46 1_555 1_555
C47 N19 1_555 1_555
H39 C47 1_555 1_555
C48 O4 1_555 1_555
H40 C48 1_555 1_555
H41 C48 1_555 1_555
H42 C48 1_555 1_555
C49 O5 1_555 1_555
H43 C49 1_555 1_555
H44 C49 1_555 1_555
H45 C49 1_555 1_555
C51 O7 1_555 1_555
H49 C51 1_555 1_555
H50 C51 1_555 1_555
H51 C51 1_555 1_555
C52 O8 1_555 1_555
H52 C52 1_555 1_555
H53 C52 1_555 1_555
H54 C52 1_555 1_555
C53 O9 1_555 1_555
H55 C53 1_555 1_555
H56 C53 1_555 1_555
H57 C53 1_555 1_555
Mn2C N5 1_555 1_555
N5C Mn2 1_555 1_555
N2 C2 1_555 1_555
N14 C21 1_555 1_555
N20 C42 1_555 1_555
C12 C13 1_555 1_555
C13 C14 1_555 1_555
C15 C16 1_555 1_555
C19 C20 1_555 1_555
C25 C26 1_555 1_555
C33 C34 1_555 1_555
C34 C35 1_555 1_555
C36 C37 1_555 1_555
C40 C41 1_555 1_555
C46 C47 1_555 1_555

#END
