
#######################################################################
#
#                 Cambridge Crystallographic Data Centre
#                                CCDC 
#
#######################################################################
#
# If this CIF has been generated from an entry in the Cambridge 
# Structural Database, then it will include bibliographic, chemical, 
# crystal, experimental, refinement or atomic coordinate data resulting 
# from the CCDC's data processing and validation procedures.
#
#######################################################################

data_GIHVOI
_symmetry_cell_setting           monoclinic
_symmetry_space_group_name_H-M   'P 21/c'
_symmetry_Int_Tables_number      14
_space_group_name_Hall           '-P 2ybc'
loop_
_symmetry_equiv_pos_site_id
_symmetry_equiv_pos_as_xyz
1 x,y,z
2 -x,1/2+y,1/2-z
3 -x,-y,-z
4 x,1/2-y,1/2+z
_cell_length_a                   14.579(7)
_cell_length_b                   16.030(5)
_cell_length_c                   15.985(8)
_cell_angle_alpha                90
_cell_angle_beta                 110.67(3)
_cell_angle_gamma                90
_cell_volume                     3495.24
loop_
_atom_site_label
_atom_site_type_symbol
_atom_site_fract_x
_atom_site_fract_y
_atom_site_fract_z
Ag1 Ag 0.29599(3) -0.26687(2) 0.36658(2)
Ag2 Ag 0.21943(2) -0.21419(2) 0.04866(2)
S1 S 0.22348(8) -0.41172(7) 0.36120(7)
S2 S 0.06364(7) -0.28001(7) 0.42389(6)
S3 S 0.22750(8) -0.12050(6) 0.36967(7)
S4 S 0.26363(8) -0.06359(7) 0.11503(7)
S5 S 0.40068(8) -0.22096(7) 0.06521(7)
S6 S 0.28478(7) -0.30939(6) 0.19494(6)
O1 O 0.4579(2) -0.2112(2) 0.3751(2)
O2 O 0.4857(3) -0.3752(2) 0.4127(2)
O3 O 0.6008(3) -0.4129(2) 0.5328(3)
O4 O 0.8297(2) -0.2258(2) 0.7226(2)
O5 O 0.8285(3) -0.0958(2) 0.6879(3)
O6 O 0.4622(3) -0.0305(3) 0.4065(3)
O7 O 0.5841(5) -0.0273(3) 0.3653(4)
N1 N 0.5564(3) -0.3589(2) 0.4798(2)
N2 N 0.7943(2) -0.1666(2) 0.6732(2)
N3 N 0.5414(3) -0.0560(2) 0.4089(3)
C1 C 0.0919(3) -0.4007(2) 0.3030(3)
C2 C 0.0382(3) -0.3798(3) 0.3661(3)
C3 C 0.0469(3) -0.2031(3) 0.3369(3)
C4 C 0.1053(3) -0.1246(3) 0.3746(3)
C5 C 0.1947(3) -0.0949(3) 0.2513(3)
C6 C 0.2863(3) -0.0713(3) 0.2350(3)
C7 C 0.3903(3) -0.0597(3) 0.1201(3)
C8 C 0.4490(3) -0.1397(3) 0.1483(3)
C9 C 0.4369(3) -0.3197(3) 0.1239(3)
C10 C 0.4115(3) -0.3303(3) 0.2072(3)
C11 C 0.2310(3) -0.4126(3) 0.1862(3)
C12 C 0.2576(4) -0.4602(3) 0.2732(3)
C13 C 0.5358(3) -0.2058(2) 0.4407(2)
C14 C 0.5890(3) -0.2726(2) 0.4984(3)
C15 C 0.6713(3) -0.2593(3) 0.5732(3)
C16 C 0.7078(3) -0.1799(3) 0.5943(3)
C17 C 0.6663(3) -0.1124(3) 0.5401(3)
C18 C 0.5842(3) -0.1267(2) 0.4674(2)
H1 H 0.080(3) -0.362(3) 0.257(3)
H2 H 0.075(3) -0.456(3) 0.281(3)
H3 H -0.030(3) -0.378(3) 0.334(3)
H4 H 0.056(3) -0.419(3) 0.418(3)
H5 H 0.064(3) -0.225(3) 0.287(3)
H6 H -0.022(3) -0.190(3) 0.309(3)
H7 H 0.071(3) -0.078(3) 0.342(3)
H8 H 0.111(3) -0.114(3) 0.433(3)
H9 H 0.166(3) -0.139(3) 0.219(3)
H10 H 0.145(3) -0.045(3) 0.236(3)
H11 H 0.306(4) -0.017(3) 0.261(3)
H12 H 0.339(3) -0.118(3) 0.260(3)
H13 H 0.384(3) -0.046(3) 0.063(3)
H14 H 0.422(3) -0.012(2) 0.163(2)
H15 H 0.519(3) -0.134(3) 0.158(3)
H16 H 0.445(3) -0.161(2) 0.205(2)
H17 H 0.407(3) -0.362(3) 0.079(3)
H18 H 0.509(3) -0.324(3) 0.143(3)
H19 H 0.425(3) -0.384(3) 0.229(3)
H20 H 0.455(3) -0.296(3) 0.253(3)
H21 H 0.160(3) -0.401(2) 0.162(3)
H22 H 0.256(3) -0.440(2) 0.149(3)
H23 H 0.227(3) -0.511(3) 0.267(3)
H24 H 0.330(4) -0.474(3) 0.297(3)
H25 H 0.696(3) -0.302(2) 0.612(3)
H26 H 0.697(3) -0.062(3) 0.557(3)
Ag2C Ag 0.21943(2) -0.28581(2) 0.54866(2)
S2C S 0.06364(7) -0.21999(7) -0.07611(6)
S5C S 0.40068(8) -0.27904(7) 0.56521(7)
Ag1C Ag 0.29599(3) -0.23313(2) -0.13342(2)
O8 O 0.0224(2) -0.2703(2) 0.1266(2)
O9 O -0.0100(3) -0.4349(2) 0.0858(3)
O10 O -0.1442(3) -0.4704(2) -0.0146(3)
O11 O -0.3523(3) -0.2810(2) -0.2193(2)
O12 O -0.3381(3) -0.1486(2) -0.1954(3)
O13 O -0.0661(4) -0.1007(2) 0.1562(3)
O14 O 0.0057(3) -0.0717(3) 0.0659(3)
N4 N -0.0854(3) -0.4166(2) 0.0264(2)
N5 N -0.3106(3) -0.2201(3) -0.1751(2)
N6 N -0.0512(3) -0.1129(2) 0.0883(2)
C19 C -0.0549(3) -0.2638(2) 0.0616(2)
C20 C -0.1111(3) -0.3300(2) 0.0035(3)
C21 C -0.1925(3) -0.3154(3) -0.0720(3)
C22 C -0.2250(3) -0.2352(3) -0.0956(3)
C23 C -0.1796(3) -0.1675(3) -0.0432(3)
C24 C -0.1005(3) -0.1839(2) 0.0319(3)
H27 H -0.216(3) -0.354(2) -0.102(3)
H28 H -0.201(3) -0.114(2) -0.058(3)
loop_
_geom_bond_atom_site_label_1
_geom_bond_atom_site_label_2
_geom_bond_site_symmetry_1
_geom_bond_site_symmetry_2
Ag1 S1 1_555 1_555
Ag2 S4 1_555 1_555
S1 C1 1_555 1_555
S2 C2 1_555 1_555
S3 Ag1 1_555 1_555
S4 C6 1_555 1_555
S5 Ag2 1_555 1_555
S6 Ag1 1_555 1_555
O1 Ag1 1_555 1_555
O2 N1 1_555 1_555
O3 N1 1_555 1_555
O4 N2 1_555 1_555
O5 N2 1_555 1_555
O6 N3 1_555 1_555
O7 N3 1_555 1_555
O8 C19 1_555 1_555
O9 N4 1_555 1_555
O10 N4 1_555 1_555
O11 N5 1_555 1_555
O12 N5 1_555 1_555
O13 N6 1_555 1_555
O14 N6 1_555 1_555
N1 C14 1_555 1_555
N2 C16 1_555 1_555
N3 C18 1_555 1_555
N4 C20 1_555 1_555
N5 C22 1_555 1_555
N6 C24 1_555 1_555
C1 C2 1_555 1_555
C2 H3 1_555 1_555
C3 S2 1_555 1_555
C4 S3 1_555 1_555
C5 S3 1_555 1_555
C6 C5 1_555 1_555
C7 S4 1_555 1_555
C8 S5 1_555 1_555
C9 S5 1_555 1_555
C10 S6 1_555 1_555
C11 S6 1_555 1_555
C12 S1 1_555 1_555
C13 O1 1_555 1_555
C14 C13 1_555 1_555
C15 C14 1_555 1_555
C16 C15 1_555 1_555
C17 C16 1_555 1_555
C18 C13 1_555 1_555
C19 C20 1_555 1_555
C20 C21 1_555 1_555
C21 C22 1_555 1_555
C22 C23 1_555 1_555
C23 C24 1_555 1_555
C24 C19 1_555 1_555
H1 C1 1_555 1_555
H2 C1 1_555 1_555
H4 C2 1_555 1_555
H5 C3 1_555 1_555
H6 C3 1_555 1_555
H7 C4 1_555 1_555
H8 C4 1_555 1_555
H9 C5 1_555 1_555
H10 C5 1_555 1_555
H11 C6 1_555 1_555
H12 C6 1_555 1_555
H13 C7 1_555 1_555
H14 C7 1_555 1_555
H15 C8 1_555 1_555
H16 C8 1_555 1_555
H17 C9 1_555 1_555
H18 C9 1_555 1_555
H19 C10 1_555 1_555
H20 C10 1_555 1_555
H21 C11 1_555 1_555
H22 C11 1_555 1_555
H23 C12 1_555 1_555
H24 C12 1_555 1_555
H25 C15 1_555 1_555
H26 C17 1_555 1_555
H27 C21 1_555 1_555
H28 C23 1_555 1_555
Ag2C S2 1_555 1_555
S2C Ag2 1_555 1_555
S5C Ag1 1_555 1_555
Ag1C S5 1_555 1_555
Ag2 S6 1_555 1_555
C3 C4 1_555 1_555
C7 C8 1_555 1_555
C9 C10 1_555 1_555
C11 C12 1_555 1_555
C17 C18 1_555 1_555
Ag2C S5C 1_555 1_555

#END
