
#######################################################################
#
#                 Cambridge Crystallographic Data Centre
#                                CCDC 
#
#######################################################################
#
# If this CIF has been generated from an entry in the Cambridge 
# Structural Database, then it will include bibliographic, chemical, 
# crystal, experimental, refinement or atomic coordinate data resulting 
# from the CCDC's data processing and validation procedures.
#
#######################################################################

data_GIJDIM
_symmetry_cell_setting           cubic
_symmetry_space_group_name_H-M   'I -4 3 d'
_symmetry_Int_Tables_number      220
_space_group_name_Hall           'I -4bd 2c 3'
loop_
_symmetry_equiv_pos_site_id
_symmetry_equiv_pos_as_xyz
1 x,y,z
2 1/2+x,1/2+y,1/2+z
3 z,x,y
4 y,z,x
5 1/2+z,1/2+x,1/2+y
6 1/2+y,1/2+z,1/2+x
7 1/2+x,1/2-y,-z
8 x,-y,1/2-z
9 1/2+z,1/2-x,-y
10 1/2+y,1/2-z,-x
11 z,-x,1/2-y
12 y,-z,1/2-x
13 -x,1/2+y,1/2-z
14 1/2-x,y,-z
15 -z,1/2+x,1/2-y
16 -y,1/2+z,1/2-x
17 1/2-z,x,-y
18 1/2-y,z,-x
19 1/2-x,-y,1/2+z
20 -x,1/2-y,z
21 1/2-z,-x,1/2+y
22 1/2-y,-z,1/2+x
23 -z,1/2-x,y
24 -y,1/2-z,x
25 1/4+y,1/4+x,1/4+z
26 3/4+y,3/4+x,3/4+z
27 1/4+x,1/4+z,1/4+y
28 1/4+z,1/4+y,1/4+x
29 3/4+x,3/4+z,3/4+y
30 3/4+z,3/4+y,3/4+x
31 3/4-y,3/4+x,1/4-z
32 1/4-y,1/4+x,3/4-z
33 3/4-x,3/4+z,1/4-y
34 3/4-z,3/4+y,1/4-x
35 1/4-x,1/4+z,3/4-y
36 1/4-z,1/4+y,3/4-x
37 3/4+y,1/4-x,3/4-z
38 1/4+y,3/4-x,1/4-z
39 3/4+x,1/4-z,3/4-y
40 3/4+z,1/4-y,3/4-x
41 1/4+x,3/4-z,1/4-y
42 1/4+z,3/4-y,1/4-x
43 1/4-y,3/4-x,3/4+z
44 3/4-y,1/4-x,1/4+z
45 1/4-x,3/4-z,3/4+y
46 1/4-z,3/4-y,3/4+x
47 3/4-x,1/4-z,1/4+y
48 3/4-z,1/4-y,1/4+x
_cell_length_a                   23.637(10)
_cell_length_b                   23.637(10)
_cell_length_c                   23.637(10)
_cell_angle_alpha                90
_cell_angle_beta                 90
_cell_angle_gamma                90
_cell_volume                     13206.2
loop_
_atom_site_label
_atom_site_type_symbol
_atom_site_fract_x
_atom_site_fract_y
_atom_site_fract_z
I1 I -0.00685(6) 0.08561(5) -0.21847(5)
Cu1 Cu -0.02524(11) -0.01923(9) -0.19551(9)
Co1 Co -0.07747(9) -0.07747(9) -0.07747(9)
S1 S -0.1177(2) -0.0439(2) -0.1575(2)
S2 S -0.1059(2) 0.0125(2) -0.0531(2)
C1 C -0.1296(7) 0.0173(6) -0.1222(7)
N1 N -0.1531(6) 0.0605(6) -0.1436(5)
C2 C -0.1583(10) 0.1189(10) -0.1184(10)
C3 C -0.1684(11) 0.1591(10) -0.1627(8)
C4 C -0.1958(12) 0.1251(11) -0.2078(12)
C5 C -0.1751(8) 0.0627(9) -0.2021(8)
H1 H -0.1236 0.1287 -0.0990
H2 H -0.1885 0.1213 -0.0929
H3 H -0.1316 0.1761 -0.1750
H4 H -0.1903 0.1906 -0.1495
H5 H -0.2367 0.1253 -0.2061
H6 H -0.1864 0.1369 -0.2467
H7 H -0.2070 0.0348 -0.2087
H8 H -0.1479 0.0513 -0.2298
S1B S -0.1575(2) -0.1177(2) -0.0439(2)
S2B S -0.0531(2) -0.1059(2) 0.0125(2)
C1B C -0.1222(7) -0.1296(7) 0.0173(6)
N1B N -0.1436(5) -0.1531(6) 0.0605(6)
C2B C -0.1184(10) -0.1583(10) 0.1189(10)
C3B C -0.1627(8) -0.1684(11) 0.1591(10)
C4B C -0.2078(12) -0.1958(12) 0.1251(11)
C5B C -0.2021(8) -0.1751(8) 0.0627(9)
H1B H -0.0990 -0.1236 0.1287
H2B H -0.0929 -0.1885 0.1213
H3B H -0.1750 -0.1316 0.1761
H4B H -0.1495 -0.1903 0.1906
H5B H -0.2061 -0.2367 0.1253
H6B H -0.2467 -0.1864 0.1369
H7B H -0.2087 -0.2070 0.0348
H8B H -0.2298 -0.1479 0.0513
S1C S -0.0439(2) -0.1575(2) -0.1177(2)
S2C S 0.0125(2) -0.0531(2) -0.1059(2)
C1C C 0.0173(6) -0.1222(7) -0.1296(7)
N1C N 0.0605(6) -0.1436(5) -0.1531(6)
C2C C 0.1189(10) -0.1184(10) -0.1583(10)
C3C C 0.1591(10) -0.1627(8) -0.1684(11)
C4C C 0.1251(11) -0.2078(12) -0.1958(12)
C5C C 0.0627(9) -0.2021(8) -0.1751(8)
H1C H 0.1287 -0.0990 -0.1236
H2C H 0.1213 -0.0929 -0.1885
H3C H 0.1761 -0.1750 -0.1316
H4C H 0.1906 -0.1495 -0.1903
H5C H 0.1253 -0.2061 -0.2367
H6C H 0.1369 -0.2467 -0.1864
H7C H 0.0348 -0.2087 -0.2070
H8C H 0.0513 -0.2298 -0.1479
Cu1B Cu -0.19551(9) -0.02524(11) -0.01923(9)
Cu1C Cu -0.01923(9) -0.19551(9) -0.02524(11)
I1G I -0.00685(6) -0.08561(5) -0.28153(5)
I1B I -0.21847(5) -0.00685(6) 0.08561(5)
Cu1G Cu -0.02524(11) 0.01923(9) -0.30449(9)
I1P I -0.28153(5) -0.00685(6) -0.08561(5)
I1C I 0.08561(5) -0.21847(5) -0.00685(6)
I1W I -0.08561(5) -0.28153(5) -0.00685(6)
Cu1P Cu -0.30449(9) -0.02524(11) 0.01923(9)
loop_
_geom_bond_atom_site_label_1
_geom_bond_atom_site_label_2
_geom_bond_site_symmetry_1
_geom_bond_site_symmetry_2
I1 Cu1 1_555 1_555
Cu1 S1 1_555 1_555
Co1 S1 1_555 1_555
S1 C1 1_555 1_555
S2 Co1 1_555 1_555
C1 S2 1_555 1_555
N1 C1 1_555 1_555
C2 N1 1_555 1_555
C3 C2 1_555 1_555
C4 C3 1_555 1_555
C5 N1 1_555 1_555
H1 C2 1_555 1_555
H2 C2 1_555 1_555
H3 C3 1_555 1_555
H4 C3 1_555 1_555
H5 C4 1_555 1_555
H6 C4 1_555 1_555
H7 C5 1_555 1_555
H8 C5 1_555 1_555
S1B Co1 1_555 1_555
S2B Co1 1_555 1_555
C1B S1B 1_555 1_555
N1B C1B 1_555 1_555
C2B N1B 1_555 1_555
C3B C2B 1_555 1_555
C4B C3B 1_555 1_555
C5B N1B 1_555 1_555
H1B C2B 1_555 1_555
H2B C2B 1_555 1_555
H3B C3B 1_555 1_555
H4B C3B 1_555 1_555
H5B C4B 1_555 1_555
H6B C4B 1_555 1_555
H7B C5B 1_555 1_555
H8B C5B 1_555 1_555
S1C Co1 1_555 1_555
S2C Cu1 1_555 1_555
C1C S1C 1_555 1_555
N1C C1C 1_555 1_555
C2C N1C 1_555 1_555
C3C C2C 1_555 1_555
C4C C3C 1_555 1_555
C5C N1C 1_555 1_555
H1C C2C 1_555 1_555
H2C C2C 1_555 1_555
H3C C3C 1_555 1_555
H4C C3C 1_555 1_555
H5C C4C 1_555 1_555
H6C C4C 1_555 1_555
H7C C5C 1_555 1_555
H8C C5C 1_555 1_555
Cu1B S2 1_555 1_555
Cu1C S2B 1_555 1_555
I1G Cu1 1_555 1_555
I1B Cu1B 1_555 1_555
Cu1G I1 1_555 1_555
I1P Cu1B 1_555 1_555
I1C Cu1C 1_555 1_555
I1W Cu1C 1_555 1_555
Cu1P I1B 1_555 1_555
Co1 S2C 1_555 1_555
C4 C5 1_555 1_555
S1B Cu1B 1_555 1_555
S2B C1B 1_555 1_555
C4B C5B 1_555 1_555
S1C Cu1C 1_555 1_555
S2C C1C 1_555 1_555
C4C C5C 1_555 1_555
I1G Cu1G 1_555 1_555
I1P Cu1P 1_555 1_555

#END
