
#######################################################################
#
#                 Cambridge Crystallographic Data Centre
#                                CCDC 
#
#######################################################################
#
# If this CIF has been generated from an entry in the Cambridge 
# Structural Database, then it will include bibliographic, chemical, 
# crystal, experimental, refinement or atomic coordinate data resulting 
# from the CCDC's data processing and validation procedures.
#
#######################################################################

data_GIJDEJ
_symmetry_cell_setting           monoclinic
_symmetry_space_group_name_H-M   'P 21/n'
_symmetry_Int_Tables_number      14
_space_group_name_Hall           '-P 2yn'
loop_
_symmetry_equiv_pos_site_id
_symmetry_equiv_pos_as_xyz
1 x,y,z
2 1/2-x,1/2+y,1/2-z
3 -x,-y,-z
4 1/2+x,1/2-y,1/2+z
_cell_length_a                   9.9807(2)
_cell_length_b                   15.2712(3)
_cell_length_c                   12.1171(2)
_cell_angle_alpha                90
_cell_angle_beta                 91.1193(12)
_cell_angle_gamma                90
_cell_volume                     1846.5
loop_
_atom_site_label
_atom_site_type_symbol
_atom_site_fract_x
_atom_site_fract_y
_atom_site_fract_z
Sn1 Sn 1.138512(15) 0.207343(10) 0.158425(12)
O1 O 1.02918(17) 0.12176(11) 0.25973(14)
O2 O 0.93743(18) 0.23278(11) 0.35149(14)
O3 O 0.79085(19) 0.20350(10) 0.51390(15)
H1 H 0.842(4) 0.230(2) 0.461(3)
N1 N 0.83919(19) -0.15433(13) 0.43993(16)
N2 N 0.8857(2) -0.18009(14) 0.34972(16)
C1 C 0.9526(2) 0.15286(15) 0.33489(18)
C2 C 0.8827(2) 0.08780(14) 0.40407(18)
C3 C 0.8051(2) 0.11687(15) 0.49303(18)
C4 C 0.7431(2) 0.05653(16) 0.56126(19)
H2 H 0.6917 0.0759 0.6217
C5 C 0.7573(2) -0.03224(16) 0.54016(19)
H3 H 0.7160 -0.0736 0.5872
C6 C 0.8311(2) -0.06170(15) 0.45112(18)
C7 C 0.8941(2) -0.00162(15) 0.38404(18)
H4 H 0.9456 -0.0216 0.3239
C8 C 0.8935(2) -0.27257(16) 0.34059(18)
C9 C 0.9185(3) -0.30548(16) 0.2362(2)
H5 H 0.9302 -0.2665 0.1761
C10 C 0.9264(3) -0.39531(17) 0.2194(2)
H6 H 0.9442 -0.4170 0.1477
C11 C 0.9089(2) -0.45407(16) 0.3057(2)
C12 C 0.8844(3) -0.41950(17) 0.4103(2)
H7 H 0.8718 -0.4583 0.4704
C13 C 0.8780(3) -0.33051(16) 0.4282(2)
H8 H 0.8631 -0.3087 0.5003
C14 C 1.2474(3) 0.28055(17) 0.2786(2)
H9 H 1.1949 0.3319 0.2998
H10 H 1.3326 0.2997 0.2478
H11 H 1.2650 0.2439 0.3437
C15 C 0.9765(3) 0.26445(19) 0.0694(2)
H12 H 0.9426 0.2229 0.0140
H13 H 1.0071 0.3178 0.0327
H14 H 0.9049 0.2791 0.1204
C16 C 1.2374(3) 0.10133(18) 0.0823(3)
H15 H 1.2160 0.0469 0.1209
H16 H 1.3345 0.1111 0.0858
H17 H 1.2076 0.0969 0.0050
C17 C 0.9141(3) -0.55150(18) 0.2877(3)
H18 H 0.8230 -0.5754 0.2875
H19 H 0.9673 -0.5788 0.3472
H20 H 0.9555 -0.5638 0.2166
Sn1C Sn 0.638512(15) 0.292657(10) 0.658425(12)
O3C O 1.29085(19) 0.29650(10) 0.01390(15)
H1C H 1.342(4) 0.270(2) -0.039(3)
loop_
_geom_bond_atom_site_label_1
_geom_bond_atom_site_label_2
_geom_bond_site_symmetry_1
_geom_bond_site_symmetry_2
Sn1 O1 1_555 1_555
O1 C1 1_555 1_555
O2 C1 1_555 1_555
O3 H1 1_555 1_555
N1 N2 1_555 1_555
N2 C8 1_555 1_555
C1 C2 1_555 1_555
C2 C3 1_555 1_555
C3 O3 1_555 1_555
C4 C3 1_555 1_555
H2 C4 1_555 1_555
C5 C4 1_555 1_555
H3 C5 1_555 1_555
C6 N1 1_555 1_555
C7 C2 1_555 1_555
H4 C7 1_555 1_555
C8 C9 1_555 1_555
C9 H5 1_555 1_555
C10 C9 1_555 1_555
H6 C10 1_555 1_555
C11 C10 1_555 1_555
C12 C11 1_555 1_555
H7 C12 1_555 1_555
C13 C8 1_555 1_555
H8 C13 1_555 1_555
C14 Sn1 1_555 1_555
H9 C14 1_555 1_555
H10 C14 1_555 1_555
H11 C14 1_555 1_555
C15 Sn1 1_555 1_555
H12 C15 1_555 1_555
H13 C15 1_555 1_555
H14 C15 1_555 1_555
C16 Sn1 1_555 1_555
H15 C16 1_555 1_555
H16 C16 1_555 1_555
H17 C16 1_555 1_555
C17 C11 1_555 1_555
H18 C17 1_555 1_555
H19 C17 1_555 1_555
H20 C17 1_555 1_555
Sn1C O3 1_555 1_555
O3C Sn1 1_555 1_555
H1C O3C 1_555 1_555
C5 C6 1_555 1_555
C6 C7 1_555 1_555
C12 C13 1_555 1_555

#END
