
#######################################################################
#
#                 Cambridge Crystallographic Data Centre
#                                CCDC 
#
#######################################################################
#
# If this CIF has been generated from an entry in the Cambridge 
# Structural Database, then it will include bibliographic, chemical, 
# crystal, experimental, refinement or atomic coordinate data resulting 
# from the CCDC's data processing and validation procedures.
#
#######################################################################

data_GIJJAL
_symmetry_cell_setting           monoclinic
_symmetry_space_group_name_H-M   'P 21/c'
_symmetry_Int_Tables_number      14
_space_group_name_Hall           '-P 2ybc'
loop_
_symmetry_equiv_pos_site_id
_symmetry_equiv_pos_as_xyz
1 x,y,z
2 -x,1/2+y,1/2-z
3 -x,-y,-z
4 x,1/2-y,1/2+z
_cell_length_a                   8.192(2)
_cell_length_b                   7.8227(19)
_cell_length_c                   14.474(4)
_cell_angle_alpha                90
_cell_angle_beta                 95.374(4)
_cell_angle_gamma                90
_cell_volume                     923.468
loop_
_atom_site_label
_atom_site_type_symbol
_atom_site_fract_x
_atom_site_fract_y
_atom_site_fract_z
S1 S 0.31814(5) 0.10427(5) 0.70243(3)
O1 O 0.45324(17) 0.13194(17) 0.77496(9)
O2 O 0.27629(17) -0.07594(15) 0.68919(9)
O3 O 0.17336(16) 0.20561(16) 0.71704(9)
O4 O 0.85370(17) 0.06689(18) 0.75988(10)
H1 H 0.848(3) -0.036(2) 0.7676(18)
H2 H 0.951(2) 0.086(3) 0.7530(18)
N1 N 0.55856(19) 0.23693(19) 0.60851(10)
N2 N 0.45105(19) 0.24935(19) 0.46307(11)
H3 H 0.4432 0.2690 0.4029
C1 C 0.5857(2) 0.2805(2) 0.52325(12)
C2 C 0.7419(2) 0.3533(2) 0.49461(13)
H4 H 0.7180 0.4597 0.4589
H5 H 0.7922 0.2708 0.4538
C3 C 0.8621(2) 0.3918(3) 0.57898(13)
H6 H 0.9633 0.4392 0.5584
H7 H 0.8870 0.2862 0.6138
H8 H 0.8130 0.4749 0.6189
C4 C 0.3296(2) 0.1822(2) 0.51146(12)
C5 C 0.1661(2) 0.1309(2) 0.46726(13)
H9 H 0.0994 0.0866 0.5147
H10 H 0.1795 0.0419 0.4209
H11 H 0.1116 0.2304 0.4370
C6 C 0.3983(2) 0.1766(2) 0.60130(12)
Li1 Li 0.6705(4) 0.2194(4) 0.7409(2)
O2A O 0.72371(17) 0.42406(15) 0.81081(9)
Li1A Li 0.3295(4) -0.2806(4) 0.7591(2)
loop_
_geom_bond_atom_site_label_1
_geom_bond_atom_site_label_2
_geom_bond_site_symmetry_1
_geom_bond_site_symmetry_2
S1 O1 1_555 1_555
O1 Li1 1_555 1_555
O2 S1 1_555 1_555
O3 S1 1_555 1_555
O4 H1 1_555 1_555
H2 O4 1_555 1_555
N1 C1 1_555 1_555
N2 H3 1_555 1_555
C1 N2 1_555 1_555
C2 C1 1_555 1_555
H4 C2 1_555 1_555
H5 C2 1_555 1_555
C3 C2 1_555 1_555
H6 C3 1_555 1_555
H7 C3 1_555 1_555
H8 C3 1_555 1_555
C4 N2 1_555 1_555
C5 C4 1_555 1_555
H9 C5 1_555 1_555
H10 C5 1_555 1_555
H11 C5 1_555 1_555
C6 S1 1_555 1_555
Li1 O4 1_555 1_555
O2A Li1 1_555 1_555
Li1A O2 1_555 1_555
N1 C6 1_555 1_555
N1 Li1 1_555 1_555
C4 C6 1_555 1_555

#END
