
#######################################################################
#
#                 Cambridge Crystallographic Data Centre
#                                CCDC 
#
#######################################################################
#
# If this CIF has been generated from an entry in the Cambridge 
# Structural Database, then it will include bibliographic, chemical, 
# crystal, experimental, refinement or atomic coordinate data resulting 
# from the CCDC's data processing and validation procedures.
#
#######################################################################

data_GIJMIW
_symmetry_cell_setting           monoclinic
_symmetry_space_group_name_H-M   'C 2/c'
_symmetry_Int_Tables_number      15
_space_group_name_Hall           '-C 2yn'
loop_
_symmetry_equiv_pos_site_id
_symmetry_equiv_pos_as_xyz
1 x,y,z
2 1/2+x,1/2+y,z
3 -x,y,1/2-z
4 1/2-x,1/2+y,1/2-z
5 -x,-y,-z
6 1/2-x,1/2-y,-z
7 x,-y,1/2+z
8 1/2+x,1/2-y,1/2+z
_cell_length_a                   16.482(4)
_cell_length_b                   12.073(3)
_cell_length_c                   6.6652(18)
_cell_angle_alpha                90
_cell_angle_beta                 99.477(5)
_cell_angle_gamma                90
_cell_volume                     1308.19
loop_
_atom_site_label
_atom_site_type_symbol
_atom_site_fract_x
_atom_site_fract_y
_atom_site_fract_z
Zn1 Zn 0.0000 0.75500(5) 0.2500
O1 O -0.08622(15) 0.8826(2) 0.2674(4)
H1 H -0.085(2) 0.892(3) 0.3929(12)
H2 H -0.080(2) 0.9451(14) 0.217(5)
O2 O 0.01947(17) 0.7581(2) 0.5851(4)
S1 S 0.0000 0.82971(10) 0.7500
O3 O 0.07143(15) 0.9002(2) 0.8286(4)
C1 C 0.0785(2) 0.5230(3) 0.2778(5)
N1 N 0.09154(16) 0.6329(2) 0.2808(4)
C2 C 0.1719(2) 0.6665(3) 0.3116(5)
H3 H 0.182(2) 0.738(3) 0.308(6)
C3 C 0.2374(2) 0.5965(3) 0.3370(6)
H4 H 0.288(2) 0.623(3) 0.349(5)
C4 C 0.2221(2) 0.4832(3) 0.3323(5)
H5 H 0.264(2) 0.430(3) 0.354(6)
C5 C 0.1431(2) 0.4457(3) 0.3029(6)
H6 H 0.133(2) 0.375(3) 0.306(6)
N2 N 0.0000 0.4782(3) 0.2500
Zn1_2 Zn 0.0000 0.75500(5) 1.2500
O1B O 0.08622(15) 0.8826(2) 0.2326(4)
H1B H 0.085(2) 0.892(3) 0.1071(12)
H2B H 0.080(2) 0.9451(14) 0.283(5)
O2B O -0.01947(17) 0.7581(2) 0.9149(4)
O2B_2 O -0.01947(17) 0.7581(2) -0.0851(4)
O3B O -0.07143(15) 0.9002(2) 0.6714(4)
C1B C -0.0785(2) 0.5230(3) 0.2222(5)
N1B N -0.09154(16) 0.6329(2) 0.2192(4)
C2B C -0.1719(2) 0.6665(3) 0.1884(5)
H3B H -0.182(2) 0.738(3) 0.192(6)
C3B C -0.2374(2) 0.5965(3) 0.1630(6)
H4B H -0.288(2) 0.623(3) 0.151(5)
C4B C -0.2221(2) 0.4832(3) 0.1677(5)
H5B H -0.264(2) 0.430(3) 0.146(6)
C5B C -0.1431(2) 0.4457(3) 0.1971(6)
H6B H -0.133(2) 0.375(3) 0.194(6)
loop_
_geom_bond_atom_site_label_1
_geom_bond_atom_site_label_2
_geom_bond_site_symmetry_1
_geom_bond_site_symmetry_2
Zn1 O1 1_555 1_555
O1 H1 1_555 1_555
H2 O1 1_555 1_555
O2 Zn1 1_555 1_555
S1 O2 1_555 1_555
O3 S1 1_555 1_555
C1 N1 1_555 1_555
N1 Zn1 1_555 1_555
C2 N1 1_555 1_555
H3 C2 1_555 1_555
C3 C2 1_555 1_555
H4 C3 1_555 1_555
C4 C3 1_555 1_555
H5 C4 1_555 1_555
C5 C1 1_555 1_555
H6 C5 1_555 1_555
N2 C1 1_555 1_555
Zn1_2 O2B 1_555 1_555
O1B Zn1 1_555 1_555
H1B O1B 1_555 1_555
H2B O1B 1_555 1_555
O2B S1 1_555 1_555
O2B_2 Zn1 1_555 1_555
O3B S1 1_555 1_555
C1B N2 1_555 1_555
N1B Zn1 1_555 1_555
C2B N1B 1_555 1_555
H3B C2B 1_555 1_555
C3B C2B 1_555 1_555
H4B C3B 1_555 1_555
C4B C3B 1_555 1_555
H5B C4B 1_555 1_555
C5B C1B 1_555 1_555
H6B C5B 1_555 1_555
C4 C5 1_555 1_555
C1B N1B 1_555 1_555
C4B C5B 1_555 1_555

#END
