
#######################################################################
#
#                 Cambridge Crystallographic Data Centre
#                                CCDC 
#
#######################################################################
#
# If this CIF has been generated from an entry in the Cambridge 
# Structural Database, then it will include bibliographic, chemical, 
# crystal, experimental, refinement or atomic coordinate data resulting 
# from the CCDC's data processing and validation procedures.
#
#######################################################################

data_GIJMOC
_symmetry_cell_setting           orthorhombic
_symmetry_space_group_name_H-M   'P n a 21'
_symmetry_Int_Tables_number      33
_space_group_name_Hall           'P 2c -2n'
loop_
_symmetry_equiv_pos_site_id
_symmetry_equiv_pos_as_xyz
1 x,y,z
2 -x,-y,1/2+z
3 1/2+x,1/2-y,z
4 1/2-x,1/2+y,1/2+z
_cell_length_a                   21.361(4)
_cell_length_b                   16.735(4)
_cell_length_c                   9.453(2)
_cell_angle_alpha                90
_cell_angle_beta                 90
_cell_angle_gamma                90
_cell_volume                     3379.22
loop_
_atom_site_label
_atom_site_type_symbol
_atom_site_fract_x
_atom_site_fract_y
_atom_site_fract_z
C1 C -0.0960(2) 0.6421(2) 0.3965(6)
H1 H -0.0893 0.6103 0.3173
C2 C -0.1110(2) 0.6057(3) 0.5198(6)
H2 H -0.1163 0.5506 0.5240
C3 C -0.1182(2) 0.6521(3) 0.6385(5)
H3 H -0.1275 0.6287 0.7252
C4 C -0.1114(2) 0.7335(3) 0.6279(5)
H4 H -0.1160 0.7661 0.7069
C5 C -0.09757(17) 0.7660(2) 0.4970(5)
C6 C -0.02840(18) 0.8803(2) 0.4504(4)
C7 C 0.0050(2) 0.9204(3) 0.5525(5)
H5 H -0.0110 0.9268 0.6433
C8 C 0.0629(2) 0.9509(3) 0.5170(6)
H6 H 0.0865 0.9787 0.5834
C9 C 0.0852(2) 0.9397(3) 0.3829(6)
H7 H 0.1235 0.9611 0.3560
C10 C 0.0504(2) 0.8969(3) 0.2898(6)
H8 H 0.0669 0.8874 0.2003
C11 C -0.13993(18) 0.9020(2) 0.5049(4)
C12 C -0.13439(19) 0.9852(2) 0.5009(5)
H9 H -0.0967 1.0102 0.4797
C13 C -0.1877(2) 1.0280(2) 0.5301(5)
H10 H -0.1855 1.0835 0.5308
C14 C -0.2442(2) 0.9917(2) 0.5585(5)
H11 H -0.2802 1.0210 0.5779
C15 C -0.24415(18) 0.9082(2) 0.5563(4)
C16 C -0.4335(2) 0.9054(3) 0.7892(6)
H12 H -0.4492 0.8927 0.8782
C17 C -0.4699(2) 0.9505(3) 0.7006(5)
H13 H -0.5088 0.9693 0.7296
C18 C -0.4477(2) 0.9668(4) 0.5695(6)
H14 H -0.4715 0.9975 0.5075
C19 C -0.3906(2) 0.9386(3) 0.5278(6)
H15 H -0.3754 0.9485 0.4373
C20 C -0.35634(19) 0.8950(2) 0.6240(5)
C21 C -0.2865(2) 0.6568(2) 0.6903(7)
H16 H -0.2892 0.6271 0.7732
C22 C -0.2767(3) 0.6175(3) 0.5665(7)
H17 H -0.2711 0.5624 0.5663
C23 C -0.2753(2) 0.6588(3) 0.4433(7)
H18 H -0.2692 0.6325 0.3578
C24 C -0.2829(2) 0.7408(3) 0.4470(6)
H19 H -0.2829 0.7709 0.3642
C25 C -0.29063(19) 0.7768(2) 0.5777(5)
C26 C 0.05402(18) 0.8132(2) -0.0712(5)
C27 C 0.07167(19) 0.6610(2) 0.1612(5)
C28 C -0.17912(18) 0.8835(2) 0.0419(5)
C29 C -0.1942(2) 0.6929(2) 0.0289(6)
Cd1 Cd -0.062032(12) 0.780435(16) 0.16715(3)
Cd2 Cd -0.313890(12) 0.800650(16) 0.91515(4)
N1 N -0.09021(17) 0.72200(19) 0.3823(4)
N2 N -0.08968(15) 0.85031(19) 0.4788(4)
N3 N -0.00656(15) 0.8675(2) 0.3200(4)
N4 N -0.19353(15) 0.86510(18) 0.5310(4)
N5 N -0.29649(16) 0.8622(2) 0.5881(4)
N6 N -0.37648(15) 0.8787(2) 0.7541(4)
N7 N -0.29228(17) 0.7367(2) 0.6985(4)
N8 N 0.10437(18) 0.7895(2) -0.0721(6)
N9 N 0.02297(18) 0.6888(2) 0.1740(5)
N10 N -0.14709(17) 0.8660(2) 0.1347(5)
N11 N -0.2456(2) 0.7136(2) 0.0254(6)
S1 S -0.01681(5) 0.85061(8) -0.06686(15)
S2 S 0.14052(6) 0.61826(7) 0.14197(13)
S3 S -0.22285(5) 0.91185(6) -0.09217(16)
S4 S -0.12196(6) 0.66042(8) 0.02791(16)
Cd2B Cd 0.186110(12) 0.699350(16) -0.08485(4)
Cd2_2 Cd -0.313890(12) 0.800650(16) -0.08485(4)
N8B N -0.39563(18) 0.7105(2) 0.9279(6)
N11_2 N -0.2456(2) 0.7136(2) 1.0254(6)
S2B S -0.35948(6) 0.88174(7) 1.14197(13)
S3_2 S -0.22285(5) 0.91185(6) 0.90783(16)
loop_
_geom_bond_atom_site_label_1
_geom_bond_atom_site_label_2
_geom_bond_site_symmetry_1
_geom_bond_site_symmetry_2
C1 H1 1_555 1_555
C2 C1 1_555 1_555
H2 C2 1_555 1_555
C3 C2 1_555 1_555
H3 C3 1_555 1_555
C4 C3 1_555 1_555
H4 C4 1_555 1_555
C5 C4 1_555 1_555
C6 C7 1_555 1_555
C7 H5 1_555 1_555
C8 C7 1_555 1_555
H6 C8 1_555 1_555
C9 C8 1_555 1_555
H7 C9 1_555 1_555
C10 C9 1_555 1_555
H8 C10 1_555 1_555
C11 C12 1_555 1_555
C12 H9 1_555 1_555
C13 C12 1_555 1_555
H10 C13 1_555 1_555
C14 C13 1_555 1_555
H11 C14 1_555 1_555
C15 C14 1_555 1_555
C16 H12 1_555 1_555
C17 C16 1_555 1_555
H13 C17 1_555 1_555
C18 C17 1_555 1_555
H14 C18 1_555 1_555
C19 C18 1_555 1_555
H15 C19 1_555 1_555
C20 C19 1_555 1_555
C21 H16 1_555 1_555
C22 C21 1_555 1_555
H17 C22 1_555 1_555
C23 C22 1_555 1_555
H18 C23 1_555 1_555
C24 C23 1_555 1_555
H19 C24 1_555 1_555
C25 C24 1_555 1_555
C26 N8 1_555 1_555
C27 N9 1_555 1_555
C28 N10 1_555 1_555
C29 N11 1_555 1_555
Cd1 N1 1_555 1_555
Cd2 N6 1_555 1_555
N1 C1 1_555 1_555
N2 C5 1_555 1_555
N3 C6 1_555 1_555
N4 C11 1_555 1_555
N5 C15 1_555 1_555
N6 C16 1_555 1_555
N7 C21 1_555 1_555
N8 Cd2B 1_555 1_555
N9 Cd1 1_555 1_555
N10 Cd1 1_555 1_555
N11 Cd2_2 1_555 1_555
S1 C26 1_555 1_555
S2 C27 1_555 1_555
S3 C28 1_555 1_555
S4 C29 1_555 1_555
Cd2B S2 1_555 1_555
Cd2_2 S3 1_555 1_555
N8B Cd2 1_555 1_555
N11_2 Cd2 1_555 1_555
S2B Cd2 1_555 1_555
S3_2 Cd2 1_555 1_555
C5 N1 1_555 1_555
C6 N2 1_555 1_555
C10 N3 1_555 1_555
C11 N2 1_555 1_555
C15 N4 1_555 1_555
C20 N5 1_555 1_555
C20 N6 1_555 1_555
C25 N5 1_555 1_555
C25 N7 1_555 1_555
Cd1 N3 1_555 1_555
Cd1 S1 1_555 1_555
Cd1 S4 1_555 1_555
Cd2 N7 1_555 1_555

#END
