
#######################################################################
#
#                 Cambridge Crystallographic Data Centre
#                                CCDC 
#
#######################################################################
#
# If this CIF has been generated from an entry in the Cambridge 
# Structural Database, then it will include bibliographic, chemical, 
# crystal, experimental, refinement or atomic coordinate data resulting 
# from the CCDC's data processing and validation procedures.
#
#######################################################################

data_GIJPOF
_symmetry_cell_setting           monoclinic
_symmetry_space_group_name_H-M   'P 21'
_symmetry_Int_Tables_number      4
_space_group_name_Hall           'P 2yb'
loop_
_symmetry_equiv_pos_site_id
_symmetry_equiv_pos_as_xyz
1 x,y,z
2 -x,1/2+y,-z
_cell_length_a                   10.0715(13)
_cell_length_b                   10.5828(16)
_cell_length_c                   10.9810(15)
_cell_angle_alpha                90
_cell_angle_beta                 102.765(10)
_cell_angle_gamma                90
_cell_volume                     1141.48
loop_
_atom_site_label
_atom_site_type_symbol
_atom_site_fract_x
_atom_site_fract_y
_atom_site_fract_z
Sn1 Sn 0.430091(12) 0.252275(19) 0.017345(12)
C1 C 0.6384(3) 0.2828(2) 0.0991(3)
H1 H 0.6516 0.3689 0.1265
H2 H 0.6919 0.2660 0.0386
H3 H 0.6662 0.2273 0.1693
C2 C 0.3756(3) 0.1503(2) -0.1530(2)
C3 C 0.4733(3) 0.0938(3) -0.2089(3)
H4 H 0.5652 0.1014 -0.1714
C4 C 0.4342(4) 0.0269(3) -0.3195(3)
H5 H 0.4995 -0.0105 -0.3558
C5 C 0.2983(4) 0.0161(3) -0.3752(3)
H6 H 0.2722 -0.0294 -0.4491
C6 C 0.2007(4) 0.0714(4) -0.3233(4)
H7 H 0.1091 0.0641 -0.3621
C7 C 0.2396(3) 0.1383(3) -0.2125(3)
H8 H 0.1733 0.1759 -0.1775
C8 C 0.2480(2) 0.3220(2) 0.0645(2)
C9 C 0.2043(3) 0.4458(3) 0.0440(3)
H9 H 0.2580 0.5039 0.0133
C10 C 0.0804(3) 0.4844(3) 0.0688(4)
H10 H 0.0534 0.5683 0.0566
C11 C -0.0019(3) 0.3991(3) 0.1113(3)
H11 H -0.0849 0.4249 0.1268
C12 C 0.0390(3) 0.2763(4) 0.1305(3)
H12 H -0.0164 0.2184 0.1592
C13 C 0.1632(2) 0.2371(4) 0.1074(2)
H13 H 0.1898 0.1532 0.1208
C14 C 0.4944(2) -0.0079(2) 0.1584(2)
C15 C 0.5051(3) -0.0824(2) 0.2765(3)
C16 C 0.3874(3) -0.1388(2) 0.3022(3)
C17 C 0.2561(3) -0.1288(3) 0.2201(3)
H14 H 0.2458 -0.0804 0.1479
C18 C 0.1460(4) -0.1886(4) 0.2458(5)
H15 H 0.0611 -0.1796 0.1921
C19 C 0.1599(4) -0.2645(6) 0.3537(4)
H16 H 0.0846 -0.3074 0.3689
C20 C 0.2801(5) -0.2755(3) 0.4340(4)
H17 H 0.2863 -0.3245 0.5054
C21 C 0.3997(4) -0.2135(2) 0.4130(3)
C22 C 0.5261(4) -0.2254(3) 0.4935(3)
H18 H 0.5334 -0.2726 0.5661
C23 C 0.6426(4) -0.1689(3) 0.4693(3)
C24 C 0.7729(5) -0.1822(4) 0.5518(4)
H19 H 0.7802 -0.2277 0.6254
C25 C 0.8847(5) -0.1308(4) 0.5257(4)
H20 H 0.9685 -0.1417 0.5807
C26 C 0.8765(4) -0.0601(4) 0.4154(4)
H21 H 0.9550 -0.0249 0.3983
C27 C 0.7546(3) -0.0429(4) 0.3334(4)
H22 H 0.7507 0.0044 0.2614
C28 C 0.6331(3) -0.0969(3) 0.3573(2)
O1 O 0.42942(19) 0.09538(17) 0.15183(18)
O2 O 0.54995(19) -0.04698(16) 0.07468(17)
Sn1A Sn 0.569909(12) -0.247725(19) -0.017345(12)
O2A O 0.45005(19) 0.45302(16) -0.07468(17)
loop_
_geom_bond_atom_site_label_1
_geom_bond_atom_site_label_2
_geom_bond_site_symmetry_1
_geom_bond_site_symmetry_2
Sn1 C1 1_555 1_555
C1 H1 1_555 1_555
H2 C1 1_555 1_555
H3 C1 1_555 1_555
C2 Sn1 1_555 1_555
C3 C2 1_555 1_555
H4 C3 1_555 1_555
C4 C3 1_555 1_555
H5 C4 1_555 1_555
C5 C4 1_555 1_555
H6 C5 1_555 1_555
C6 C5 1_555 1_555
H7 C6 1_555 1_555
C7 C2 1_555 1_555
H8 C7 1_555 1_555
C8 Sn1 1_555 1_555
C9 C8 1_555 1_555
H9 C9 1_555 1_555
C10 C9 1_555 1_555
H10 C10 1_555 1_555
C11 C10 1_555 1_555
H11 C11 1_555 1_555
C12 C11 1_555 1_555
H12 C12 1_555 1_555
C13 C8 1_555 1_555
H13 C13 1_555 1_555
C14 C15 1_555 1_555
C15 C16 1_555 1_555
C16 C17 1_555 1_555
C17 H14 1_555 1_555
C18 C17 1_555 1_555
H15 C18 1_555 1_555
C19 C18 1_555 1_555
H16 C19 1_555 1_555
C20 C19 1_555 1_555
H17 C20 1_555 1_555
C21 C16 1_555 1_555
C22 C21 1_555 1_555
H18 C22 1_555 1_555
C23 C22 1_555 1_555
C24 C23 1_555 1_555
H19 C24 1_555 1_555
C25 C24 1_555 1_555
H20 C25 1_555 1_555
C26 C25 1_555 1_555
H21 C26 1_555 1_555
C27 C26 1_555 1_555
H22 C27 1_555 1_555
C28 C15 1_555 1_555
O1 Sn1 1_555 1_555
O2 C14 1_555 1_555
Sn1A O2 1_555 1_555
O2A Sn1 1_555 1_555
C6 C7 1_555 1_555
C12 C13 1_555 1_555
C14 O1 1_555 1_555
C20 C21 1_555 1_555
C23 C28 1_555 1_555
C27 C28 1_555 1_555

#END
