
#######################################################################
#
#                 Cambridge Crystallographic Data Centre
#                                CCDC 
#
#######################################################################
#
# If this CIF has been generated from an entry in the Cambridge 
# Structural Database, then it will include bibliographic, chemical, 
# crystal, experimental, refinement or atomic coordinate data resulting 
# from the CCDC's data processing and validation procedures.
#
#######################################################################

data_GIJYIH
_symmetry_cell_setting           triclinic
_symmetry_space_group_name_H-M   'P -1'
_symmetry_Int_Tables_number      2
_space_group_name_Hall           '-P 1'
loop_
_symmetry_equiv_pos_site_id
_symmetry_equiv_pos_as_xyz
1 x,y,z
2 -x,-y,-z
_cell_length_a                   7.206(1)
_cell_length_b                   14.306(5)
_cell_length_c                   14.545(4)
_cell_angle_alpha                101.86(2)
_cell_angle_beta                 92.19(2)
_cell_angle_gamma                90.32(2)
_cell_volume                     1466.21
loop_
_atom_site_label
_atom_site_type_symbol
_atom_site_fract_x
_atom_site_fract_y
_atom_site_fract_z
Na1 Na 0.8162(2) 0.7403(1) 0.4622(1)
Na2 Na 1.0110(2) 0.9211(1) 0.6667(1)
Na3 Na 1.3200(2) 0.7586(1) 0.4896(1)
Na4 Na 0.4871(2) 0.5825(1) 0.2963(1)
O1 O 1.3281(3) 0.7276(2) 0.3223(2)
O2 O 1.1267(3) 1.0805(2) 0.6887(2)
C1 C 1.0117(5) 0.8638(2) 0.8846(2)
C2 C 0.8538(5) 0.9216(2) 0.8854(2)
C3 C 0.7495(5) 0.9403(3) 0.9643(3)
C4 C 0.7995(5) 0.9029(3) 1.0431(3)
C5 C 0.9515(5) 0.8437(3) 1.0409(2)
C6 C 1.0581(5) 0.8246(2) 0.9618(2)
O3 O 1.1115(3) 0.8532(2) 0.8047(1)
C7 C 1.2665(5) 0.7908(2) 0.7971(2)
C8 C 1.3498(5) 0.7838(2) 0.7015(2)
O4 O 1.2864(3) 0.8338(2) 0.6470(2)
O5 O 1.4804(3) 0.7249(2) 0.6845(2)
O6 O 0.8189(3) 0.9550(2) 0.8044(1)
C9 C 0.6606(5) 1.0135(2) 0.8011(2)
C10 C 0.6329(5) 1.0352(2) 0.7028(3)
O7 O 0.7263(3) 0.9945(2) 0.6369(2)
O8 O 0.5066(3) 1.0960(2) 0.6984(2)
O9 O 0.8371(3) 0.7750(2) 0.6293(2)
O10 O 1.0735(3) 0.6414(2) 0.4818(2)
O11 O 0.5670(4) 0.6320(2) 0.4877(2)
O12 O 1.0691(4) 0.8898(2) 0.4811(2)
O13 O 0.6620(3) 0.4656(2) 0.3638(2)
O14 O 0.5801(3) 0.8618(2) 0.4792(2)
C11 C 0.6375(5) 0.4580(2) 0.0918(2)
C12 C 0.4769(5) 0.4062(2) 0.1025(2)
C13 C 0.4243(5) 0.3266(2) 0.0360(2)
C14 C 0.5282(5) 0.2988(3) -0.0441(2)
C15 C 0.6845(5) 0.3498(3) -0.0559(2)
C16 C 0.7407(5) 0.4299(2) 0.0127(2)
O15 O 0.6781(3) 0.5362(2) 0.1624(2)
C17 C 0.8393(4) 0.5919(2) 0.1538(2)
C18 C 0.8592(5) 0.6751(2) 0.2387(2)
O16 O 0.7516(3) 0.6800(2) 0.3047(2)
O17 O 0.9877(3) 0.7329(2) 0.2333(2)
O18 O 0.3800(3) 0.4426(2) 0.1815(2)
C19 C 0.2241(5) 0.3888(2) 0.2017(2)
C20 C 0.1448(5) 0.4372(3) 0.2935(3)
O19 O 0.2081(4) 0.5164(2) 0.3335(2)
O20 O 0.0142(3) 0.3927(2) 0.3214(2)
H1 H 0.6417 0.9947 0.9700
H2 H 0.7078 0.9193 1.1057
H3 H 0.9876 0.8115 1.0941
H4 H 1.1746 0.7730 0.9539
H5 H 0.5448 0.9702 0.8084
H6 H 0.6757 1.0795 0.8510
H7 H 1.3575 0.8103 0.8510
H8 H 1.2315 0.7223 0.8080
H9 H 1.3937 0.7756 0.2967
H10 H 1.2074 0.7321 0.2851
H11 H 1.2557 1.0882 0.6959
H12 H 1.0802 1.1441 0.7276
H13 H 0.7201 0.7717 0.6525
H14 H 0.8952 0.7247 0.6461
H15 H 1.0644 0.6117 0.5311
H16 H 1.1057 0.5888 0.4337
H17 H 0.5368 0.6344 0.5426
H18 H 0.6056 0.5676 0.4657
H19 H 1.0019 0.9135 0.4384
H20 H 1.1583 0.9153 0.4638
H21 H 0.7868 0.4475 0.3559
H22 H 0.6187 0.4035 0.3482
H23 H 0.5640 0.8888 0.4216
H24 H 0.6084 0.9118 0.5289
H25 H 0.3019 0.2818 0.0434
H26 H 0.4877 0.2378 -0.0962
H27 H 0.7617 0.3311 -0.1154
H28 H 0.8530 0.4742 0.0049
H29 H 0.8192 0.6057 0.0839
H30 H 0.9620 0.5547 0.1493
H31 H 0.1210 0.3840 0.1477
H32 H 0.2651 0.3193 0.2034
O11_2 O 1.5670(4) 0.6320(2) 0.4877(2)
O14_2 O 1.5801(3) 0.8618(2) 0.4792(2)
O1_2 O 0.3281(3) 0.7276(2) 0.3223(2)
Na4_2 Na 1.4871(2) 0.5825(1) 0.2963(1)
Na3_2 Na 0.3200(2) 0.7586(1) 0.4896(1)
H17_2 H 1.5368 0.6344 0.5426
H18_2 H 1.6056 0.5676 0.4657
H23_2 H 1.5640 0.8888 0.4216
H24_2 H 1.6084 0.9118 0.5289
H9_2 H 0.3937 0.7756 0.2967
H10_2 H 0.2074 0.7321 0.2851
loop_
_geom_bond_atom_site_label_1
_geom_bond_atom_site_label_2
_geom_bond_site_symmetry_1
_geom_bond_site_symmetry_2
Na1 O9 1_555 1_555
Na2 O2 1_555 1_555
Na3 O1 1_555 1_555
Na4 O13 1_555 1_555
O1 H9 1_555 1_555
O2 H11 1_555 1_555
C1 C2 1_555 1_555
C2 C3 1_555 1_555
C3 C4 1_555 1_555
C4 C5 1_555 1_555
C5 C6 1_555 1_555
C6 C1 1_555 1_555
O3 Na2 1_555 1_555
C7 O3 1_555 1_555
C8 C7 1_555 1_555
O4 Na2 1_555 1_555
O5 C8 1_555 1_555
O6 Na2 1_555 1_555
C9 O6 1_555 1_555
C10 C9 1_555 1_555
O7 Na2 1_555 1_555
O8 C10 1_555 1_555
O9 Na2 1_555 1_555
O10 Na1 1_555 1_555
O11 Na1 1_555 1_555
O12 Na2 1_555 1_555
O13 H21 1_555 1_555
O14 Na1 1_555 1_555
C11 C12 1_555 1_555
C12 C13 1_555 1_555
C13 C14 1_555 1_555
C14 C15 1_555 1_555
C15 C16 1_555 1_555
C16 C11 1_555 1_555
O15 Na4 1_555 1_555
C17 O15 1_555 1_555
C18 C17 1_555 1_555
O16 Na1 1_555 1_555
O17 C18 1_555 1_555
O18 Na4 1_555 1_555
C19 O18 1_555 1_555
C20 C19 1_555 1_555
O19 Na4 1_555 1_555
O20 C20 1_555 1_555
H1 C3 1_555 1_555
H2 C4 1_555 1_555
H3 C5 1_555 1_555
H4 C6 1_555 1_555
H5 C9 1_555 1_555
H6 C9 1_555 1_555
H7 C7 1_555 1_555
H8 C7 1_555 1_555
H10 O1 1_555 1_555
H12 O2 1_555 1_555
H13 O9 1_555 1_555
H14 O9 1_555 1_555
H15 O10 1_555 1_555
H16 O10 1_555 1_555
H17 O11 1_555 1_555
H18 O11 1_555 1_555
H19 O12 1_555 1_555
H20 O12 1_555 1_555
H22 O13 1_555 1_555
H23 O14 1_555 1_555
H24 O14 1_555 1_555
H25 C13 1_555 1_555
H26 C14 1_555 1_555
H27 C15 1_555 1_555
H28 C16 1_555 1_555
H29 C17 1_555 1_555
H30 C17 1_555 1_555
H31 C19 1_555 1_555
H32 C19 1_555 1_555
O11_2 Na3 1_555 1_555
O14_2 Na3 1_555 1_555
O1_2 Na4 1_555 1_555
Na4_2 O1 1_555 1_555
Na3_2 O11 1_555 1_555
H17_2 O11_2 1_555 1_555
H18_2 O11_2 1_555 1_555
H23_2 O14_2 1_555 1_555
H24_2 O14_2 1_555 1_555
H9_2 O1_2 1_555 1_555
H10_2 O1_2 1_555 1_555
Na3 O10 1_555 1_555
Na3 O4 1_555 1_555
Na3 O12 1_555 1_555
Na4 O16 1_555 1_555
C1 O3 1_555 1_555
C2 O6 1_555 1_555
C8 O4 1_555 1_555
C10 O7 1_555 1_555
O14 Na3_2 1_555 1_555
C11 O15 1_555 1_555
C12 O18 1_555 1_555
C18 O16 1_555 1_555
C20 O19 1_555 1_555
O1_2 Na3_2 1_555 1_555

#END
