
#######################################################################
#
#                 Cambridge Crystallographic Data Centre
#                                CCDC 
#
#######################################################################
#
# If this CIF has been generated from an entry in the Cambridge 
# Structural Database, then it will include bibliographic, chemical, 
# crystal, experimental, refinement or atomic coordinate data resulting 
# from the CCDC's data processing and validation procedures.
#
#######################################################################

data_GIKBOS
_symmetry_cell_setting           orthorhombic
_symmetry_space_group_name_H-M   'P b c a'
_symmetry_Int_Tables_number      61
_space_group_name_Hall           '-P 2ac 2ab'
loop_
_symmetry_equiv_pos_site_id
_symmetry_equiv_pos_as_xyz
1 x,y,z
2 1/2-x,-y,1/2+z
3 -x,1/2+y,1/2-z
4 1/2+x,1/2-y,-z
5 -x,-y,-z
6 1/2+x,y,1/2-z
7 x,1/2-y,1/2+z
8 1/2-x,1/2+y,z
_cell_length_a                   6.879(2)
_cell_length_b                   14.067(5)
_cell_length_c                   33.802(11)
_cell_angle_alpha                90
_cell_angle_beta                 90
_cell_angle_gamma                90
_cell_volume                     3270.91
loop_
_atom_site_label
_atom_site_type_symbol
_atom_site_fract_x
_atom_site_fract_y
_atom_site_fract_z
La1 La 0.37521(3) 1.030683(13) 0.084912(5)
La2 La 0.20207(3) 0.806413(13) 0.170993(5)
C1 C 0.2379(5) 1.1451(2) -0.00920(10)
C2 C 0.2437(5) 1.2487(2) 0.03782(9)
C3 C 0.2158(5) 1.2977(2) 0.00304(9)
C4 C 0.1847(5) 1.3988(2) -0.00715(9)
C5 C 0.2850(4) 1.2763(2) 0.07929(9)
C6 C 0.1586(5) 0.9376(2) 0.26642(10)
C7 C 0.1594(5) 1.0344(2) 0.21722(10)
C8 C 0.1324(5) 1.0894(2) 0.25044(10)
C9 C 0.0999(5) 1.1928(2) 0.25841(10)
C10 C 0.1922(5) 1.0571(2) 0.17513(10)
S1 S 0.69871(12) 0.84110(5) 0.12630(2)
N1 N 0.2140(4) 1.23033(19) -0.02637(8)
N2 N 0.2573(4) 1.15309(19) 0.02951(8)
N3 N 0.1741(4) 0.93935(19) 0.22754(8)
N4 N 0.1327(4) 1.0257(2) 0.28124(8)
O1 O 0.1706(3) 1.41917(16) -0.04346(7)
O2 O 0.1746(4) 1.45712(16) 0.02051(7)
O3 O 0.3567(3) 1.21160(16) 0.10085(7)
O4 O 0.2538(4) 1.35874(16) 0.09271(7)
O5 O 0.0404(4) 1.21245(17) 0.29289(7)
O6 O 0.1314(4) 1.25233(17) 0.23193(7)
O7 O 0.1744(4) 1.13950(17) 0.16226(7)
O8 O 0.2445(4) 0.98716(16) 0.15335(7)
O9 O 0.8829(4) 0.87021(18) 0.14527(7)
O10 O 0.7188(4) 0.74803(17) 0.10726(7)
O11 O 0.5445(3) 0.83831(17) 0.15645(7)
O12 O 0.6518(4) 0.91275(17) 0.09557(7)
O13 O 0.6461(4) 1.08451(17) 0.13555(7)
O14 O 0.0067(3) 1.02713(17) 0.08434(7)
H1 H 0.2473 1.0909 -0.0237
H2 H 0.2117 1.2421 -0.0518
H3 H 0.1178 1.0412 0.3056
H4 H 0.1678 0.8834 0.2810
H5 H 0.6690 1.1391 0.1305
H6 H 0.7347 1.0570 0.1304
H7 H -0.0330 0.9843 0.0915
H8 H -0.0615 1.0447 0.0739
La1C La -0.12479(3) 1.469317(13) -0.084912(5)
La1G La 0.12479(3) 1.530683(13) 0.084912(5)
La2G La 0.29793(3) 1.306413(13) 0.170993(5)
La2B La -0.20207(3) 1.306413(13) 0.329007(5)
La2_2 La 1.20207(3) 0.806413(13) 0.170993(5)
O1C O 0.6706(3) 1.08083(16) 0.04346(7)
O2G O 0.3254(4) 0.95712(16) 0.02051(7)
O3G O 0.1433(3) 0.71160(16) 0.10085(7)
O4G O 0.2462(4) 0.85874(16) 0.09271(7)
O5B O -0.0404(4) 0.71245(17) 0.20711(7)
O6G O 0.3686(4) 0.75233(17) 0.23193(7)
O7G O 0.3256(4) 0.63950(17) 0.16226(7)
O9_2 O -0.1171(4) 0.87021(18) 0.14527(7)
loop_
_geom_bond_atom_site_label_1
_geom_bond_atom_site_label_2
_geom_bond_site_symmetry_1
_geom_bond_site_symmetry_2
La1 N2 1_555 1_555
La2 N3 1_555 1_555
C1 N1 1_555 1_555
C2 C3 1_555 1_555
C3 C4 1_555 1_555
C4 O1 1_555 1_555
C5 C2 1_555 1_555
C6 N3 1_555 1_555
C7 C8 1_555 1_555
C8 C9 1_555 1_555
C9 O5 1_555 1_555
C10 C7 1_555 1_555
S1 O9 1_555 1_555
N1 C3 1_555 1_555
N2 C1 1_555 1_555
N3 C7 1_555 1_555
N4 C6 1_555 1_555
O1 La1C 1_555 1_555
O2 C4 1_555 1_555
O3 La1 1_555 1_555
O4 C5 1_555 1_555
O5 La2B 1_555 1_555
O6 C9 1_555 1_555
O7 C10 1_555 1_555
O8 La1 1_555 1_555
O9 La2_2 1_555 1_555
O10 S1 1_555 1_555
O11 La2 1_555 1_555
O12 La1 1_555 1_555
O13 La1 1_555 1_555
O14 La1 1_555 1_555
H1 C1 1_555 1_555
H2 N1 1_555 1_555
H3 N4 1_555 1_555
H4 C6 1_555 1_555
H5 O13 1_555 1_555
H6 O13 1_555 1_555
H7 O14 1_555 1_555
H8 O14 1_555 1_555
La1G O2 1_555 1_555
La2G O3 1_555 1_555
O1C La1 1_555 1_555
O2G La1 1_555 1_555
O3G La2 1_555 1_555
O4G La1 1_555 1_555
O5B La2 1_555 1_555
O6G La2 1_555 1_555
O7G La2 1_555 1_555
O9_2 La2 1_555 1_555
La2 O8 1_555 1_555
La2 O4G 1_555 1_555
C2 N2 1_555 1_555
C5 O3 1_555 1_555
C8 N4 1_555 1_555
C10 O8 1_555 1_555
S1 O11 1_555 1_555
S1 O12 1_555 1_555
O4 La1G 1_555 1_555
O4 La2G 1_555 1_555
O6 La2G 1_555 1_555
O7 La2G 1_555 1_555

#END
