
#######################################################################
#
#                 Cambridge Crystallographic Data Centre
#                                CCDC 
#
#######################################################################
#
# If this CIF has been generated from an entry in the Cambridge 
# Structural Database, then it will include bibliographic, chemical, 
# crystal, experimental, refinement or atomic coordinate data resulting 
# from the CCDC's data processing and validation procedures.
#
#######################################################################

data_GIKBUY01
_symmetry_cell_setting           monoclinic
_symmetry_space_group_name_H-M   'P 21/c'
_symmetry_Int_Tables_number      14
_space_group_name_Hall           '-P 2ybc'
loop_
_symmetry_equiv_pos_site_id
_symmetry_equiv_pos_as_xyz
1 x,y,z
2 -x,1/2+y,1/2-z
3 -x,-y,-z
4 x,1/2-y,1/2+z
_cell_length_a                   6.6363(2)
_cell_length_b                   13.3817(5)
_cell_length_c                   18.9960(7)
_cell_angle_alpha                90
_cell_angle_beta                 106.7120(10)
_cell_angle_gamma                90
_cell_volume                     1615.69
loop_
_atom_site_label
_atom_site_type_symbol
_atom_site_fract_x
_atom_site_fract_y
_atom_site_fract_z
Gd1 Gd 0.45501(5) -0.30401(2) -0.290679(16)
Gd2 Gd 0.80559(5) -0.16680(2) -0.101370(16)
S1 S 0.0310(3) -0.28495(14) -0.23929(10)
S2 S 0.2483(2) -0.40058(11) -0.44346(8)
O1 O 0.5865(7) -0.1422(3) -0.2296(2)
O2 O 0.1600(10) -0.3762(5) -0.2324(3)
O3 O 0.0253(8) -0.2488(4) -0.1658(3)
O4 O -0.1835(7) -0.3015(4) -0.2861(3)
O5 O 0.1413(9) -0.2102(5) -0.2728(3)
O6 O 0.1511(7) -0.3517(3) -0.5150(2)
O7 O 0.4720(7) -0.3702(4) -0.4136(2)
O8 O 0.1447(7) -0.3635(4) -0.3872(2)
O9 O 0.2297(8) -0.5094(3) -0.4516(3)
N1 N 0.4048(9) -0.1528(4) -0.3746(3)
N2 N 0.2728(9) -0.0368(4) -0.4589(3)
H1 H 0.2170 -0.0098 -0.5011
C1 C 0.3166(12) -0.1347(5) -0.4462(4)
H2 H 0.2894 -0.1835 -0.4825
C2 C 0.3332(10) 0.0125(5) -0.3923(3)
C3 C 0.4153(10) -0.0611(5) -0.3403(3)
O11 O 0.4366(8) -0.1483(5) -0.1042(3)
H5 H 0.3213 -0.1816 -0.1303
H6 H 0.3921 -0.0851 -0.0936
O12 O 0.7593(8) -0.2005(4) 0.0213(3)
H7 H 0.8703 -0.1823 0.0589
H8 H 0.6415 -0.1794 0.0303
O13 O 1.0000(8) -0.0435(4) -0.1581(3)
H9 H 1.0006 0.0232 -0.1702
H10 H 1.0248 -0.0795 -0.1967
C4 C 0.2817(10) 0.1204(5) -0.3898(3)
O14 O 0.1355(8) 0.1542(4) -0.4415(3)
O15 O 0.3864(7) 0.1779(3) -0.3376(2)
C5 C 0.5083(10) -0.0579(4) -0.2586(3)
O16 O 0.5080(8) 0.0198(3) -0.2230(2)
Gd1_2 Gd -0.54499(5) -0.30401(2) -0.290679(16)
Gd1A Gd 0.54499(5) 0.19599(2) -0.209321(16)
Gd2_2 Gd -0.19441(5) -0.16680(2) -0.101370(16)
Gd2C Gd -0.19441(5) -0.33320(2) -0.601370(16)
Gd2A Gd 0.19441(5) -0.66680(2) -0.398630(16)
Gd2A_2 Gd 0.19441(5) 0.33320(2) -0.398630(16)
O3_2 O 1.0253(8) -0.2488(4) -0.1658(3)
O4_2 O 0.8165(7) -0.3015(4) -0.2861(3)
O6C O 1.1511(7) -0.1483(3) -0.0150(2)
O9A O 0.7703(8) -0.0094(3) -0.0484(3)
O14A O 0.8645(8) -0.3458(4) -0.0585(3)
O15A O 0.6136(7) -0.3221(3) -0.1624(2)
O16A O 0.4920(8) -0.4802(3) -0.2770(2)
O10 O -0.1446(12) -0.0355(7) -0.3903(4)
H3 H -0.2707 -0.0140 -0.3814
H4 H -0.1620 -0.0971 -0.4145
loop_
_geom_bond_atom_site_label_1
_geom_bond_atom_site_label_2
_geom_bond_site_symmetry_1
_geom_bond_site_symmetry_2
Gd1 O1 1_555 1_555
Gd2 O1 1_555 1_555
S1 O2 1_555 1_555
S2 O6 1_555 1_555
O1 C5 1_555 1_555
O2 Gd1 1_555 1_555
O3 S1 1_555 1_555
O4 S1 1_555 1_555
O5 Gd1 1_555 1_555
O6 Gd2C 1_555 1_555
O7 Gd1 1_555 1_555
O8 Gd1 1_555 1_555
O9 S2 1_555 1_555
N1 Gd1 1_555 1_555
N2 H1 1_555 1_555
C1 N1 1_555 1_555
H2 C1 1_555 1_555
C2 N2 1_555 1_555
C3 N1 1_555 1_555
O10 H3 1_555 1_555
H4 O10 1_555 1_555
O11 Gd2 1_555 1_555
H5 O11 1_555 1_555
H6 O11 1_555 1_555
O12 Gd2 1_555 1_555
H7 O12 1_555 1_555
H8 O12 1_555 1_555
O13 Gd2 1_555 1_555
H9 O13 1_555 1_555
H10 O13 1_555 1_555
C4 C2 1_555 1_555
O14 C4 1_555 1_555
O15 C4 1_555 1_555
C5 C3 1_555 1_555
O16 C5 1_555 1_555
Gd1_2 O4 1_555 1_555
Gd1A O15 1_555 1_555
Gd2_2 O3 1_555 1_555
Gd2A O9 1_555 1_555
Gd2A_2 O14 1_555 1_555
O3_2 Gd2 1_555 1_555
O4_2 Gd1 1_555 1_555
O6C Gd2 1_555 1_555
O9A Gd2 1_555 1_555
O14A Gd2 1_555 1_555
O15A Gd1 1_555 1_555
O16A Gd1 1_555 1_555
Gd2 O15A 1_555 1_555
S1 O5 1_555 1_555
S2 O7 1_555 1_555
S2 O8 1_555 1_555
N2 C1 1_555 1_555
C2 C3 1_555 1_555
O15 Gd2A_2 1_555 1_555
O16 Gd1A 1_555 1_555

#END
