
#######################################################################
#
#                 Cambridge Crystallographic Data Centre
#                                CCDC 
#
#######################################################################
#
# If this CIF has been generated from an entry in the Cambridge 
# Structural Database, then it will include bibliographic, chemical, 
# crystal, experimental, refinement or atomic coordinate data resulting 
# from the CCDC's data processing and validation procedures.
#
#######################################################################

data_GIKHEN
_symmetry_cell_setting           monoclinic
_symmetry_space_group_name_H-M   'P 2/c'
_symmetry_Int_Tables_number      13
_space_group_name_Hall           '-P 2yc'
loop_
_symmetry_equiv_pos_site_id
_symmetry_equiv_pos_as_xyz
1 x,y,z
2 -x,y,1/2-z
3 -x,-y,-z
4 x,-y,1/2+z
_cell_length_a                   7.971(4)
_cell_length_b                   5.691(2)
_cell_length_c                   14.167(5)
_cell_angle_alpha                90
_cell_angle_beta                 108.97(3)
_cell_angle_gamma                90
_cell_volume                     607.754
loop_
_atom_site_label
_atom_site_type_symbol
_atom_site_fract_x
_atom_site_fract_y
_atom_site_fract_z
K1 K 0.0000 0.6513(3) 0.2500
V1 V 0.5000 0.5000 0.0000
C1 C 0.3119(7) 0.6968(9) 0.1163(4)
C2 C 0.2230(7) 0.4557(9) 0.0804(4)
O1 O 0.4443(4) 0.7420(6) 0.0868(2)
O2 O 0.2870(4) 0.3481(6) 0.0207(2)
O3 O 0.2564(5) 0.8244(7) 0.1694(3)
O4 O -0.1035(4) 0.3850(6) 0.3901(3)
O5 O 0.6569(4) 0.3386(6) 0.1228(2)
O6 O -0.1265(4) 1.0136(6) 0.1056(3)
H1 H 0.623 0.292 0.175
H2 H 0.747 0.238 0.119
H3 H -0.023 1.068 0.104
H4 H -0.173 0.921 0.046
O3A O -0.2564(5) 0.8244(7) 0.3306(3)
O4A O 0.1035(4) 0.3850(6) 0.1099(3)
O6A O 0.1265(4) 1.0136(6) 0.3944(3)
O1B O 0.5557(4) 0.2580(6) -0.0868(2)
O2B O 0.7130(4) 0.6519(6) -0.0207(2)
O5B O 0.3431(4) 0.6614(6) -0.1228(2)
C2A C -0.2230(7) 0.4557(9) 0.4196(4)
C1A C -0.3119(7) 0.6968(9) 0.3837(4)
H3A H 0.023 1.068 0.396
H4A H 0.173 0.921 0.454
C1B C 0.6881(7) 0.3032(9) -0.1163(4)
C2B C 0.7770(7) 0.5443(9) -0.0804(4)
H1B H 0.377 0.708 -0.175
H2B H 0.253 0.762 -0.119
O2A O -0.2870(4) 0.3481(6) 0.4793(2)
O1A O -0.4443(4) 0.7420(6) 0.4132(2)
O3B O 0.7436(5) 0.1756(7) -0.1694(3)
O4C O 0.8965(4) 0.6150(6) -0.1099(3)
V1A V -0.5000 0.5000 0.5000
K1B K 1.0000 0.3487(3) -0.2500
O1C O -0.5557(4) 0.2580(6) 0.5868(2)
O2C O -0.7130(4) 0.6519(6) 0.5207(2)
O5A O -0.6569(4) 0.3386(6) 0.3772(2)
O5C O -0.3431(4) 0.6614(6) 0.6228(2)
O3C O 1.2564(5) 0.1756(7) -0.3306(3)
O4B O 1.1035(4) 0.6150(6) -0.3901(3)
O6B O 1.1265(4) -0.0136(6) -0.1056(3)
O6C O 0.8735(4) -0.0136(6) -0.3944(3)
C1C C -0.6881(7) 0.3032(9) 0.6163(4)
C2C C -0.7770(7) 0.5443(9) 0.5804(4)
H1A H -0.623 0.292 0.325
H2A H -0.747 0.238 0.381
H1C H -0.377 0.708 0.675
H2C H -0.253 0.762 0.619
H3B H 1.023 -0.068 -0.104
H4B H 1.173 0.079 -0.046
H3C H 0.977 -0.068 -0.396
H4C H 0.827 0.079 -0.454
O3C_2 O -0.7436(5) 0.1756(7) 0.6694(3)
O4B_2 O -0.8965(4) 0.6150(6) 0.6099(3)
K1B_2 K -1.0000 0.3487(3) 0.7500
O7 O 0.5000 0.1704(8) 0.2500
H5 H 0.411 0.067 0.208
H5A H 0.589 0.067 0.292
loop_
_geom_bond_atom_site_label_1
_geom_bond_atom_site_label_2
_geom_bond_site_symmetry_1
_geom_bond_site_symmetry_2
K1 O3 1_555 1_555
V1 O1 1_555 1_555
C1 C2 1_555 1_555
C2 O2 1_555 1_555
O1 C1 1_555 1_555
O2 V1 1_555 1_555
O3 C1 1_555 1_555
O4 K1 1_555 1_555
O5 V1 1_555 1_555
O6 K1 1_555 1_555
O7 H5 1_555 1_555
H1 O5 1_555 1_555
H2 O5 1_555 1_555
H3 O6 1_555 1_555
H4 O6 1_555 1_555
O3A K1 1_555 1_555
O4A K1 1_555 1_555
O6A K1 1_555 1_555
O1B V1 1_555 1_555
O2B V1 1_555 1_555
O5B V1 1_555 1_555
C2A O4 1_555 1_555
C1A O3A 1_555 1_555
H3A O6A 1_555 1_555
H4A O6A 1_555 1_555
C1B O1B 1_555 1_555
C2B O2B 1_555 1_555
H1B O5B 1_555 1_555
H2B O5B 1_555 1_555
O2A C2A 1_555 1_555
O1A C1A 1_555 1_555
O3B C1B 1_555 1_555
O4C C2B 1_555 1_555
V1A O2A 1_555 1_555
K1B O3B 1_555 1_555
O1C V1A 1_555 1_555
O2C V1A 1_555 1_555
O5A V1A 1_555 1_555
O5C V1A 1_555 1_555
O3C K1B 1_555 1_555
O4B K1B 1_555 1_555
O6B K1B 1_555 1_555
O6C K1B 1_555 1_555
C1C O1C 1_555 1_555
C2C O2C 1_555 1_555
H1A O5A 1_555 1_555
H2A O5A 1_555 1_555
H1C O5C 1_555 1_555
H2C O5C 1_555 1_555
H3B O6B 1_555 1_555
H4B O6B 1_555 1_555
H3C O6C 1_555 1_555
H4C O6C 1_555 1_555
O3C_2 C1C 1_555 1_555
O4B_2 C2C 1_555 1_555
H5A O7 1_555 1_555
K1B_2 O3C_2 1_555 1_555
C2 O4A 1_555 1_555
C2A C1A 1_555 1_555
C1B C2B 1_555 1_555
O1A V1A 1_555 1_555
O4C K1B 1_555 1_555
C1C C2C 1_555 1_555
O4B_2 K1B_2 1_555 1_555

#END
