
#######################################################################
#
#                 Cambridge Crystallographic Data Centre
#                                CCDC 
#
#######################################################################
#
# If this CIF has been generated from an entry in the Cambridge 
# Structural Database, then it will include bibliographic, chemical, 
# crystal, experimental, refinement or atomic coordinate data resulting 
# from the CCDC's data processing and validation procedures.
#
#######################################################################

data_GIKJER
_symmetry_cell_setting           triclinic
_symmetry_space_group_name_H-M   'P -1'
_symmetry_Int_Tables_number      2
_space_group_name_Hall           '-P 1'
loop_
_symmetry_equiv_pos_site_id
_symmetry_equiv_pos_as_xyz
1 x,y,z
2 -x,-y,-z
_cell_length_a                   7.3600(6)
_cell_length_b                   12.7549(11)
_cell_length_c                   18.2241(16)
_cell_angle_alpha                106.225(2)
_cell_angle_beta                 98.0150(10)
_cell_angle_gamma                99.5400(10)
_cell_volume                     1588.48
loop_
_atom_site_label
_atom_site_type_symbol
_atom_site_fract_x
_atom_site_fract_y
_atom_site_fract_z
Ag1 Ag 0.35359(9) 0.08693(5) 0.49223(5)
N1 N 1.1862(8) 0.9389(5) 0.5013(4)
N2 N 0.5052(9) 0.2418(5) 0.4857(4)
C1 C 1.0845(12) 0.8572(7) 0.4366(5)
H1 H 1.0847 0.8665 0.3878
C2 C 0.9825(11) 0.7621(6) 0.4426(5)
H2 H 0.9168 0.7073 0.3970
C3 C 0.9707(10) 0.7417(6) 0.5135(5)
C4 C 1.0753(11) 0.8308(7) 0.5786(5)
H3 H 1.0747 0.8250 0.6283
C5 C 1.1772(11) 0.9251(6) 0.5707(5)
H4 H 1.2428 0.9819 0.6153
C6 C 0.8750(10) 0.6403(6) 0.5238(5)
H5 H 0.8735 0.6397 0.5746
C7 C 0.7895(10) 0.5485(6) 0.4672(5)
H6 H 0.7896 0.5501 0.4165
C8 C 0.5131(11) 0.2582(6) 0.4172(5)
H7 H 0.4543 0.2005 0.3719
C9 C 0.6050(11) 0.3573(7) 0.4109(5)
H8 H 0.6067 0.3656 0.3619
C10 C 0.6943(10) 0.4441(6) 0.4763(5)
C11 C 0.6858(10) 0.4273(6) 0.5481(5)
H9 H 0.7413 0.4843 0.5941
C12 C 0.5932(11) 0.3243(7) 0.5499(5)
H10 H 0.5926 0.3125 0.5979
Ag1_2 Ag 1.35359(9) 1.08693(5) 0.49223(5)
N1_2 N 0.1862(8) -0.0611(5) 0.5013(4)
Ag2 Ag 0.35215(9) 0.08247(5) 0.01241(4)
N3 N 1.1736(8) 0.9373(5) 0.0203(4)
N4 N 0.5028(8) 0.2359(5) 0.0031(4)
C13 C 1.0938(10) 0.8502(6) -0.0436(5)
H11 H 1.1125 0.8559 -0.0919
C14 C 0.9859(10) 0.7532(6) -0.0408(4)
H12 H 0.9264 0.6971 -0.0868
C15 C 0.9654(10) 0.7386(6) 0.0311(4)
C16 C 1.0428(11) 0.8319(6) 0.0957(5)
H13 H 1.0247 0.8297 0.1448
C17 C 1.1442(11) 0.9261(7) 0.0884(5)
H14 H 1.1960 0.9860 0.1333
C18 C 0.8640(10) 0.6365(6) 0.0398(4)
H15 H 0.8492 0.6379 0.0899
C19 C 0.7900(10) 0.5409(7) -0.0171(5)
H16 H 0.8040 0.5400 -0.0672
C20 C 0.5233(11) 0.2483(6) -0.0664(5)
H17 H 0.4721 0.1881 -0.1112
C21 C 0.6160(10) 0.3453(6) -0.0738(5)
H18 H 0.6300 0.3497 -0.1229
C22 C 0.6890(9) 0.4371(6) -0.0089(4)
C23 C 0.6684(10) 0.4241(6) 0.0631(5)
H19 H 0.7167 0.4836 0.1085
C24 C 0.5776(10) 0.3243(6) 0.0673(5)
H20 H 0.5669 0.3170 0.1159
Ag2_2 Ag 1.35215(9) 1.08247(5) 0.01241(4)
N3_2 N 0.1736(8) -0.0627(5) 0.0203(4)
N5 N 0.592(3) 0.0876(16) 0.1925(9)
O1 O 0.661(2) 0.0345(14) 0.1447(8)
O2 O 0.496(2) 0.1486(12) 0.1769(9)
O3 O 0.5996(19) 0.0749(12) 0.2546(7)
O4 O 0.495(2) 0.1722(12) 0.6664(7)
H21 H 0.4073 0.1617 0.6913
H22 H 0.5918 0.2139 0.6986
O5 O 0.2652(16) -0.0010(10) 0.3206(6)
H23 H 0.3250 0.0478 0.3042
H24 H 0.3134 -0.0581 0.3084
O6 O 0.183(2) 0.1225(16) 0.7412(6)
H25 H 0.2128 0.1935 0.7548
H26 H 0.2806 0.0978 0.7521
O7 O 0.211(2) 0.7063(12) 0.2464(6)
O8 O -0.1001(19) 0.6522(12) 0.2437(5)
O9 O -0.2269(12) 0.4764(10) 0.2604(4)
H27 H -0.2202 0.5400 0.2577
C25 C 0.065(3) 0.641(2) 0.2455(8)
C26 C 0.096(2) 0.5273(16) 0.2479(6)
C27 C -0.055(2) 0.4461(19) 0.2538(6)
C28 C -0.028(2) 0.3457(17) 0.2555(6)
H28 H -0.1277 0.2947 0.2606
C29 C 0.140(2) 0.3149(14) 0.2499(6)
H29 H 0.1556 0.2444 0.2509
C30 C 0.2892(19) 0.3937(15) 0.2427(6)
H30 H 0.4054 0.3756 0.2385
C31 C 0.263(2) 0.4962(15) 0.2417(6)
H31 H 0.3626 0.5472 0.2366
loop_
_geom_bond_atom_site_label_1
_geom_bond_atom_site_label_2
_geom_bond_site_symmetry_1
_geom_bond_site_symmetry_2
Ag1 N2 1_555 1_555
N1 C1 1_555 1_555
N2 C8 1_555 1_555
C1 H1 1_555 1_555
C2 C1 1_555 1_555
H2 C2 1_555 1_555
C3 C2 1_555 1_555
C4 C3 1_555 1_555
H3 C4 1_555 1_555
C5 N1 1_555 1_555
H4 C5 1_555 1_555
C6 C3 1_555 1_555
H5 C6 1_555 1_555
C7 C6 1_555 1_555
H6 C7 1_555 1_555
C8 H7 1_555 1_555
C9 C8 1_555 1_555
H8 C9 1_555 1_555
C10 C7 1_555 1_555
C11 C10 1_555 1_555
H9 C11 1_555 1_555
C12 N2 1_555 1_555
H10 C12 1_555 1_555
Ag2 N4 1_555 1_555
N3 C13 1_555 1_555
N4 C20 1_555 1_555
C13 H11 1_555 1_555
C14 C13 1_555 1_555
H12 C14 1_555 1_555
C15 C14 1_555 1_555
C16 C15 1_555 1_555
H13 C16 1_555 1_555
C17 N3 1_555 1_555
H14 C17 1_555 1_555
C18 C15 1_555 1_555
H15 C18 1_555 1_555
C19 C18 1_555 1_555
H16 C19 1_555 1_555
C20 H17 1_555 1_555
C21 C20 1_555 1_555
H18 C21 1_555 1_555
C22 C19 1_555 1_555
C23 C22 1_555 1_555
H19 C23 1_555 1_555
C24 N4 1_555 1_555
H20 C24 1_555 1_555
N5 O1 1_555 1_555
O2 N5 1_555 1_555
O3 N5 1_555 1_555
O4 H21 1_555 1_555
H22 O4 1_555 1_555
O5 H23 1_555 1_555
H24 O5 1_555 1_555
O6 H25 1_555 1_555
H26 O6 1_555 1_555
O7 C25 1_555 1_555
O8 C25 1_555 1_555
O9 H27 1_555 1_555
C25 C26 1_555 1_555
C26 C27 1_555 1_555
C27 O9 1_555 1_555
C28 C27 1_555 1_555
H28 C28 1_555 1_555
C29 C28 1_555 1_555
H29 C29 1_555 1_555
C30 C29 1_555 1_555
H30 C30 1_555 1_555
C31 C26 1_555 1_555
H31 C31 1_555 1_555
Ag1_2 N1 1_555 1_555
N1_2 Ag1 1_555 1_555
Ag2_2 N3 1_555 1_555
N3_2 Ag2 1_555 1_555
C4 C5 1_555 1_555
C9 C10 1_555 1_555
C11 C12 1_555 1_555
C16 C17 1_555 1_555
C21 C22 1_555 1_555
C23 C24 1_555 1_555
C30 C31 1_555 1_555

#END
