
#######################################################################
#
#                 Cambridge Crystallographic Data Centre
#                                CCDC 
#
#######################################################################
#
# If this CIF has been generated from an entry in the Cambridge 
# Structural Database, then it will include bibliographic, chemical, 
# crystal, experimental, refinement or atomic coordinate data resulting 
# from the CCDC's data processing and validation procedures.
#
#######################################################################

data_GIKJAN
_symmetry_cell_setting           triclinic
_symmetry_space_group_name_H-M   'P -1'
_symmetry_Int_Tables_number      2
_space_group_name_Hall           '-P 1'
loop_
_symmetry_equiv_pos_site_id
_symmetry_equiv_pos_as_xyz
1 x,y,z
2 -x,-y,-z
_cell_length_a                   8.8260(8)
_cell_length_b                   11.1149(11)
_cell_length_c                   13.3751(14)
_cell_angle_alpha                102.0140(10)
_cell_angle_beta                 105.696(2)
_cell_angle_gamma                99.5940(10)
_cell_volume                     1200.36
loop_
_atom_site_label
_atom_site_type_symbol
_atom_site_fract_x
_atom_site_fract_y
_atom_site_fract_z
Ag1 Ag -0.03271(6) 0.31926(5) 0.01161(3)
Ag2 Ag 1.0000 1.0000 1.0000
N1 N 0.1393(5) 0.4301(4) 0.1591(3)
N2 N 0.8192(5) 0.8917(4) 0.8525(3)
N3 N -0.1928(5) 0.2175(4) -0.1439(3)
C1 C 0.1070(6) 0.4363(5) 0.2534(4)
H1 H 0.0070 0.3917 0.2519
C2 C 0.2160(6) 0.5059(5) 0.3506(4)
H2 H 0.1894 0.5071 0.4135
C3 C 0.3665(6) 0.5749(5) 0.3565(4)
C4 C 0.3980(6) 0.5684(5) 0.2591(4)
H3 H 0.4967 0.6128 0.2585
C5 C 0.2848(7) 0.4974(5) 0.1649(4)
H4 H 0.3090 0.4953 0.1012
C6 C 0.4867(6) 0.6527(5) 0.4572(4)
H5 H 0.5834 0.6959 0.4527
C7 C 0.4712(6) 0.6678(5) 0.5551(4)
H6 H 0.3748 0.6246 0.5600
C8 C 0.6751(7) 0.8248(5) 0.8474(4)
H7 H 0.6510 0.8279 0.9113
C9 C 0.5609(6) 0.7519(5) 0.7527(4)
H8 H 0.4631 0.7063 0.7536
C10 C 0.5920(6) 0.7462(5) 0.6552(4)
C11 C 0.7419(6) 0.8184(5) 0.6615(4)
H9 H 0.7686 0.8190 0.5990
C12 C 0.8488(6) 0.8875(5) 0.7586(4)
H10 H 0.9475 0.9342 0.7601
C13 C -0.3443(7) 0.1542(5) -0.1577(4)
H11 H -0.3775 0.1553 -0.0972
C14 C -0.4513(6) 0.0886(5) -0.2566(4)
H12 H -0.5547 0.0463 -0.2624
C15 C -0.4054(6) 0.0850(5) -0.3492(4)
C16 C -0.2486(6) 0.1531(5) -0.3336(4)
H13 H -0.2129 0.1554 -0.3927
C17 C -0.1485(6) 0.2157(5) -0.2328(4)
H14 H -0.0447 0.2594 -0.2248
C18 C -0.5167(6) 0.0116(5) -0.4544(4)
H15 H -0.6221 -0.0222 -0.4575
N3A N -0.8072(5) -0.2175(4) -0.8561(3)
C13A C -0.6557(7) -0.1542(5) -0.8423(4)
H11A H -0.6225 -0.1553 -0.9028
C14A C -0.5487(6) -0.0886(5) -0.7434(4)
H12A H -0.4453 -0.0463 -0.7376
C15A C -0.5946(6) -0.0850(5) -0.6508(4)
C16A C -0.7514(6) -0.1531(5) -0.6664(4)
H13A H -0.7871 -0.1554 -0.6073
C17A C -0.8515(6) -0.2157(5) -0.7672(4)
H14A H -0.9553 -0.2594 -0.7752
C18A C -0.4833(6) -0.0116(5) -0.5456(4)
H15A H -0.3779 0.0222 -0.5425
Ag1A Ag -0.96729(6) -0.31926(5) -1.01161(3)
N1A N -1.1393(5) -0.4301(4) -1.1591(3)
N2A N -1.8192(5) -0.8917(4) -1.8525(3)
C1A C -1.1070(6) -0.4363(5) -1.2534(4)
H1A H -1.0070 -0.3917 -1.2519
C2A C -1.2160(6) -0.5059(5) -1.3506(4)
H2A H -1.1894 -0.5071 -1.4135
C3A C -1.3665(6) -0.5749(5) -1.3565(4)
C4A C -1.3980(6) -0.5684(5) -1.2591(4)
H3A H -1.4967 -0.6128 -1.2585
C5A C -1.2848(7) -0.4974(5) -1.1649(4)
H4A H -1.3090 -0.4953 -1.1012
C6A C -1.4867(6) -0.6527(5) -1.4572(4)
H5A H -1.5834 -0.6959 -1.4527
C7A C -1.4712(6) -0.6678(5) -1.5551(4)
H6A H -1.3748 -0.6246 -1.5600
C8A C -1.6751(7) -0.8248(5) -1.8474(4)
H7A H -1.6510 -0.8279 -1.9113
C9A C -1.5609(6) -0.7519(5) -1.7527(4)
H8A H -1.4631 -0.7063 -1.7536
C10A C -1.5920(6) -0.7462(5) -1.6552(4)
C11A C -1.7419(6) -0.8184(5) -1.6615(4)
H9A H -1.7686 -0.8190 -1.5990
C12A C -1.8488(6) -0.8875(5) -1.7586(4)
H10A H -1.9475 -0.9342 -1.7601
Ag2_2 Ag -2.0000 -1.0000 -2.0000
N2A_2 N 1.1808(5) 1.1083(4) 1.1475(3)
N4 N -0.1037(5) 0.0770(4) 0.4058(3)
O1 O 0.1963(5) 0.5115(3) 0.6427(3)
O2 O 0.2193(5) 0.3933(4) 0.7588(3)
C19 C 0.1736(6) 0.4098(5) 0.6661(4)
C20 C -0.0025(5) 0.0666(5) 0.4974(4)
C21 C 0.0885(6) 0.1703(5) 0.5819(4)
H16 H 0.1561 0.1588 0.6441
C22 C 0.0790(6) 0.2918(5) 0.5741(4)
C23 C -0.0232(6) 0.3018(5) 0.4786(4)
H17 H -0.0319 0.3811 0.4689
C24 C -0.1113(6) 0.1947(5) 0.3989(4)
H18 H -0.1804 0.2040 0.3363
N4A N 0.1037(5) -0.0770(4) 0.5942(3)
O1A O -0.1963(5) -0.5115(3) 0.3573(3)
O2A O -0.2193(5) -0.3933(4) 0.2412(3)
C19A C -0.1736(6) -0.4098(5) 0.3339(4)
C20A C 0.0025(5) -0.0666(5) 0.5026(4)
C21A C -0.0885(6) -0.1703(5) 0.4181(4)
H16A H -0.1561 -0.1588 0.3559
C22A C -0.0790(6) -0.2918(5) 0.4259(4)
C23A C 0.0232(6) -0.3018(5) 0.5214(4)
H17A H 0.0319 -0.3811 0.5311
C24A C 0.1113(6) -0.1947(5) 0.6011(4)
H18A H 0.1804 -0.2040 0.6637
N5 N 0.704(3) 0.056(3) 0.0919(19)
O3 O 0.5553(14) 0.0320(11) 0.0433(10)
O4 O 0.7680(9) -0.0356(7) 0.1243(8)
O5 O 0.7863(8) 0.1713(6) 0.1172(5)
O6 O 0.3337(7) 0.6211(5) 0.9247(4)
H19 H 0.3104 0.5510 0.8771
H20 H 0.4325 0.6361 0.9626
O7 O 0.3381(9) 0.3007(5) 0.9327(4)
H21 H 0.3009 0.3279 0.8784
H22 H 0.3053 0.2206 0.9144
N6? N 0.730(18) 0.072(15) 0.140(9)
O8? O 0.603(7) 0.074(5) 0.168(5)
loop_
_geom_bond_atom_site_label_1
_geom_bond_atom_site_label_2
_geom_bond_site_symmetry_1
_geom_bond_site_symmetry_2
Ag1 N1 1_555 1_555
Ag2 N2 1_555 1_555
N1 C1 1_555 1_555
N2 C8 1_555 1_555
N3 Ag1 1_555 1_555
C1 H1 1_555 1_555
C2 C1 1_555 1_555
H2 C2 1_555 1_555
C3 C2 1_555 1_555
C4 C3 1_555 1_555
H3 C4 1_555 1_555
C5 N1 1_555 1_555
H4 C5 1_555 1_555
C6 C3 1_555 1_555
H5 C6 1_555 1_555
C7 C6 1_555 1_555
H6 C7 1_555 1_555
C8 H7 1_555 1_555
C9 C8 1_555 1_555
H8 C9 1_555 1_555
C10 C7 1_555 1_555
C11 C10 1_555 1_555
H9 C11 1_555 1_555
C12 N2 1_555 1_555
H10 C12 1_555 1_555
C13 N3 1_555 1_555
H11 C13 1_555 1_555
C14 C13 1_555 1_555
H12 C14 1_555 1_555
C15 C14 1_555 1_555
C16 C15 1_555 1_555
H13 C16 1_555 1_555
C17 N3 1_555 1_555
H14 C17 1_555 1_555
C18 C15 1_555 1_555
H15 C18 1_555 1_555
N4 C20 1_555 1_555
O1 C19 1_555 1_555
O2 C19 1_555 1_555
C19 C22 1_555 1_555
C20 C21 1_555 1_555
C21 H16 1_555 1_555
C22 C21 1_555 1_555
C23 C22 1_555 1_555
H17 C23 1_555 1_555
C24 N4 1_555 1_555
H18 C24 1_555 1_555
N5 O3 1_555 1_555
O4 N5 1_555 1_555
O5 N5 1_555 1_555
O6 H19 1_555 1_555
H20 O6 1_555 1_555
O7 H21 1_555 1_555
H22 O7 1_555 1_555
N3A C13A 1_555 1_555
C13A H11A 1_555 1_555
C14A C13A 1_555 1_555
H12A C14A 1_555 1_555
C15A C14A 1_555 1_555
C16A C15A 1_555 1_555
H13A C16A 1_555 1_555
C17A N3A 1_555 1_555
H14A C17A 1_555 1_555
C18A C18 1_555 1_555
H15A C18A 1_555 1_555
Ag1A N3A 1_555 1_555
N1A Ag1A 1_555 1_555
N2A C8A 1_555 1_555
C1A N1A 1_555 1_555
H1A C1A 1_555 1_555
C2A C1A 1_555 1_555
H2A C2A 1_555 1_555
C3A C2A 1_555 1_555
C4A C3A 1_555 1_555
H3A C4A 1_555 1_555
C5A N1A 1_555 1_555
H4A C5A 1_555 1_555
C6A C3A 1_555 1_555
H5A C6A 1_555 1_555
C7A C6A 1_555 1_555
H6A C7A 1_555 1_555
C8A H7A 1_555 1_555
C9A C8A 1_555 1_555
H8A C9A 1_555 1_555
C10A C7A 1_555 1_555
C11A C10A 1_555 1_555
H9A C11A 1_555 1_555
C12A N2A 1_555 1_555
H10A C12A 1_555 1_555
Ag2_2 N2A 1_555 1_555
N2A_2 Ag2 1_555 1_555
N4A C20A 1_555 1_555
O1A C19A 1_555 1_555
O2A C19A 1_555 1_555
C19A C22A 1_555 1_555
C20A C20 1_555 1_555
C21A C20A 1_555 1_555
H16A C21A 1_555 1_555
C22A C21A 1_555 1_555
C23A C22A 1_555 1_555
H17A C23A 1_555 1_555
C24A N4A 1_555 1_555
H18A C24A 1_555 1_555
C4 C5 1_555 1_555
C9 C10 1_555 1_555
C11 C12 1_555 1_555
C16 C17 1_555 1_555
C23 C24 1_555 1_555
C15A C18A 1_555 1_555
C16A C17A 1_555 1_555
C4A C5A 1_555 1_555
C9A C10A 1_555 1_555
C11A C12A 1_555 1_555
C23A C24A 1_555 1_555

#END
