
#######################################################################
#
#                 Cambridge Crystallographic Data Centre
#                                CCDC 
#
#######################################################################
#
# If this CIF has been generated from an entry in the Cambridge 
# Structural Database, then it will include bibliographic, chemical, 
# crystal, experimental, refinement or atomic coordinate data resulting 
# from the CCDC's data processing and validation procedures.
#
#######################################################################

data_GIKMIX
_symmetry_cell_setting           monoclinic
_symmetry_space_group_name_H-M   'P 21/n'
_symmetry_Int_Tables_number      14
_space_group_name_Hall           '-P 2yn'
loop_
_symmetry_equiv_pos_site_id
_symmetry_equiv_pos_as_xyz
1 x,y,z
2 1/2-x,1/2+y,1/2-z
3 -x,-y,-z
4 1/2+x,1/2-y,1/2+z
_cell_length_a                   12.2779(7)
_cell_length_b                   17.4665(7)
_cell_length_c                   13.8113(6)
_cell_angle_alpha                90
_cell_angle_beta                 109.442(2)
_cell_angle_gamma                90
_cell_volume                     2792.97
loop_
_atom_site_label
_atom_site_type_symbol
_atom_site_fract_x
_atom_site_fract_y
_atom_site_fract_z
Cu1 Cu 0.81123(3) 1.289422(18) 1.05911(2)
Cu2 Cu 0.74073(3) 0.758142(18) 1.00937(3)
Na1 Na 0.08389(11) 1.58674(7) 0.53410(9)
S1 S 1.29116(5) 1.03959(4) 1.26177(5)
S2 S 0.20745(5) 1.46740(4) 0.74814(5)
O1 O 0.92013(16) 1.20686(11) 1.10075(15)
O3 O 0.78174(16) 1.13438(11) 0.99556(15)
O5 O 0.82646(16) 0.85256(11) 1.05744(16)
O8 O 1.00455(17) 0.80215(11) 1.12019(17)
O9 O 1.30164(17) 1.02744(14) 1.36813(16)
H5 H 1.3487 0.9933 1.3924
O10 O 1.36029(17) 0.98680(13) 1.22585(17)
O11 O 1.31275(17) 1.12052(12) 1.24456(17)
O12 O 0.73398(17) 1.25420(11) 1.16147(16)
H6 H 0.732(3) 1.2076(6) 1.166(3)
H7 H 0.6695(16) 1.269(2) 1.156(3)
O13 O 0.86251(18) 1.30097(12) 0.93540(17)
H8 H 0.899(3) 1.2672(17) 0.918(3)
H9 H 0.835(3) 1.3301(18) 0.887(2)
O14 O 0.93196(16) 1.36784(11) 1.17853(15)
H10 H 0.895(2) 1.3913(19) 1.209(2)
H11 H 0.9974(15) 1.351(2) 1.207(2)
O15 O 0.62196(17) 0.82444(11) 0.91043(16)
H12 H 0.641(3) 0.841(2) 0.863(2)
H13 H 0.567(2) 0.7950(17) 0.888(3)
O16 O 0.84105(18) 0.70367(11) 1.13033(17)
H14 H 0.846(3) 0.6573(7) 1.137(3)
H15 H 0.9053(16) 0.721(2) 1.139(3)
O17 O 0.85987(18) 0.72707(13) 0.90554(16)
H16 H 0.9233(17) 0.746(2) 0.913(3)
H17 H 0.847(3) 0.715(2) 0.8456(12)
O18 O 0.66010(16) 1.66252(11) 0.95939(16)
O19 O 0.48591(17) 1.70670(11) 0.86571(17)
O20 O 0.71686(16) 1.37978(11) 1.01830(15)
O21 O 0.58656(17) 1.30245(11) 0.91339(16)
O22 O 0.15973(16) 1.53915(11) 0.69779(15)
O23 O 0.16104(17) 1.44882(11) 0.83025(16)
O24 O 0.19794(17) 1.40428(11) 0.67727(16)
O25 O 0.09417(18) 1.46636(13) 0.45870(17)
H18 H 0.146(2) 1.4359(18) 0.484(3)
H19 H 0.083(3) 1.469(2) 0.3971(10)
O26 O 0.61099(18) 0.78917(12) 1.11574(17)
H20 H 0.555(2) 0.7622(19) 1.110(3)
H21 H 0.649(3) 0.780(2) 1.1753(11)
C1 C 0.9559(2) 1.07419(15) 1.0990(2)
C2 C 0.9127(2) 1.00004(15) 1.0792(2)
H22 H 0.8353 0.9923 1.0412
C3 C 0.9843(2) 0.93767(15) 1.1156(2)
C4 C 1.1012(2) 0.94846(15) 1.1705(2)
H23 H 1.1495 0.9066 1.1945
C5 C 1.1445(2) 1.02264(15) 1.1889(2)
C6 C 1.0725(2) 1.08542(15) 1.1553(2)
H24 H 1.1018 1.1348 1.1703
C7 C 0.8789(2) 1.14184(15) 1.0608(2)
C8 C 0.9362(2) 0.85746(15) 1.0964(2)
C9 C 0.5130(2) 1.57210(15) 0.8840(2)
C10 C 0.5862(2) 1.51053(15) 0.9256(2)
H25 H 0.6625 1.5193 0.9661
C11 C 0.5445(2) 1.43576(15) 0.9062(2)
C12 C 0.4293(2) 1.42266(15) 0.8486(2)
H26 H 0.4014 1.3729 0.8355
C13 C 0.3563(2) 1.48446(15) 0.81059(19)
C14 C 0.3977(2) 1.55905(15) 0.8261(2)
H27 H 0.3489 1.5999 0.7981
C15 C 0.5559(2) 1.65322(15) 0.9037(2)
C16 C 0.6204(2) 1.36764(15) 0.9477(2)
Cu2_2 Cu 0.74073(3) 1.758142(18) 1.00937(3)
Na1C Na 0.58389(11) 0.91326(7) 1.03410(9)
Na1B Na -0.08389(11) 1.41326(7) 0.46590(9)
O15C O 0.12196(17) 1.67556(11) 0.41043(16)
H12C H 0.141(3) 1.659(2) 0.363(2)
H13C H 0.067(2) 1.7050(17) 0.388(3)
O18_2 O 0.66010(16) 0.66252(11) 0.95939(16)
O25B O -0.09417(18) 1.53364(13) 0.54130(17)
H18B H -0.146(2) 1.5641(18) 0.516(3)
H19B H -0.083(3) 1.531(2) 0.6029(10)
O26C O 0.11099(18) 1.71083(12) 0.61574(17)
H20C H 0.055(2) 1.7378(19) 0.610(3)
H21C H 0.149(3) 1.720(2) 0.6753(11)
O2 O 0.64589(18) 0.19277(12) 0.79491(16)
H1 H 0.632(3) 0.2359(10) 0.813(3)
H2 H 0.683(3) 0.1610(15) 0.837(2)
O4 O 1.4485(2) 0.91866(14) 1.4925(2)
H3 H 1.420(3) 0.8786(14) 1.465(3)
H4 H 1.498(3) 0.908(3) 1.5466(19)
O6 O 0.8934(2) 1.46968(13) 1.05045(18)
O7? O 0.9647(2) 1.48358(14) 1.1100(2)
loop_
_geom_bond_atom_site_label_1
_geom_bond_atom_site_label_2
_geom_bond_site_symmetry_1
_geom_bond_site_symmetry_2
Cu1 O1 1_555 1_555
Cu2 O5 1_555 1_555
Na1 O22 1_555 1_555
S1 O9 1_555 1_555
S2 O22 1_555 1_555
O1 C7 1_555 1_555
O2 H1 1_555 1_555
H2 O2 1_555 1_555
O3 C7 1_555 1_555
O4 H3 1_555 1_555
H4 O4 1_555 1_555
O5 C8 1_555 1_555
O8 C8 1_555 1_555
O9 H5 1_555 1_555
O10 S1 1_555 1_555
O11 S1 1_555 1_555
O12 Cu1 1_555 1_555
H6 O12 1_555 1_555
H7 O12 1_555 1_555
O13 Cu1 1_555 1_555
H8 O13 1_555 1_555
H9 O13 1_555 1_555
O14 Cu1 1_555 1_555
H10 O14 1_555 1_555
H11 O14 1_555 1_555
O15 Cu2 1_555 1_555
H12 O15 1_555 1_555
H13 O15 1_555 1_555
O16 Cu2 1_555 1_555
H14 O16 1_555 1_555
H15 O16 1_555 1_555
O17 Cu2 1_555 1_555
H16 O17 1_555 1_555
H17 O17 1_555 1_555
O18 C15 1_555 1_555
O19 C15 1_555 1_555
O20 Cu1 1_555 1_555
O21 C16 1_555 1_555
O23 S2 1_555 1_555
O24 S2 1_555 1_555
O25 Na1 1_555 1_555
H18 O25 1_555 1_555
H19 O25 1_555 1_555
O26 Cu2 1_555 1_555
H20 O26 1_555 1_555
H21 O26 1_555 1_555
C1 C2 1_555 1_555
C2 H22 1_555 1_555
C3 C2 1_555 1_555
C4 C3 1_555 1_555
H23 C4 1_555 1_555
C5 S1 1_555 1_555
C6 C1 1_555 1_555
H24 C6 1_555 1_555
C7 C1 1_555 1_555
C8 C3 1_555 1_555
C9 C10 1_555 1_555
C10 H25 1_555 1_555
C11 C10 1_555 1_555
C12 C11 1_555 1_555
H26 C12 1_555 1_555
C13 S2 1_555 1_555
C14 C9 1_555 1_555
H27 C14 1_555 1_555
C15 C9 1_555 1_555
C16 O20 1_555 1_555
Cu2_2 O18 1_555 1_555
Na1C O15 1_555 1_555
Na1B O25 1_555 1_555
O15C Na1 1_555 1_555
H12C O15C 1_555 1_555
H13C O15C 1_555 1_555
O18_2 Cu2 1_555 1_555
O25B Na1 1_555 1_555
H18B O25B 1_555 1_555
H19B O25B 1_555 1_555
O26C Na1 1_555 1_555
H20C O26C 1_555 1_555
H21C O26C 1_555 1_555
O26 Na1C 1_555 1_555
C4 C5 1_555 1_555
C5 C6 1_555 1_555
C11 C16 1_555 1_555
C12 C13 1_555 1_555
C13 C14 1_555 1_555
Na1B O25B 1_555 1_555

#END
