
#######################################################################
#
#                 Cambridge Crystallographic Data Centre
#                                CCDC 
#
#######################################################################
#
# If this CIF has been generated from an entry in the Cambridge 
# Structural Database, then it will include bibliographic, chemical, 
# crystal, experimental, refinement or atomic coordinate data resulting 
# from the CCDC's data processing and validation procedures.
#
#######################################################################

data_GIKPUN
_symmetry_cell_setting           orthorhombic
_symmetry_space_group_name_H-M   'P 21 21 21'
_symmetry_Int_Tables_number      19
_space_group_name_Hall           'P 2ac 2ab'
loop_
_symmetry_equiv_pos_site_id
_symmetry_equiv_pos_as_xyz
1 x,y,z
2 1/2-x,-y,1/2+z
3 1/2+x,1/2-y,-z
4 -x,1/2+y,1/2-z
_cell_length_a                   6.8486(12)
_cell_length_b                   13.200(2)
_cell_length_c                   23.247(4)
_cell_angle_alpha                90
_cell_angle_beta                 90
_cell_angle_gamma                90
_cell_volume                     2101.56
loop_
_atom_site_label
_atom_site_type_symbol
_atom_site_fract_x
_atom_site_fract_y
_atom_site_fract_z
H1 H 0.209(7) 0.681(4) 0.820(2)
H2 H 0.233(8) 0.611(4) 0.862(2)
H3 H 0.525(7) 0.838(3) 1.045(2)
Cd1 Cd 0.61516(3) 0.676778(18) 0.847730(10)
C1 C 0.5551(5) 0.9325(3) 0.83860(16)
H4 H 0.5588 0.9200 0.7992
C2 C 0.5416(5) 1.0325(3) 0.85698(17)
H5 H 0.5359 1.0855 0.8307
C3 C 0.5370(6) 1.0504(3) 0.91504(18)
H6 H 0.5298 1.1164 0.9289
C4 C 0.5430(5) 0.9692(3) 0.95318(17)
H7 H 0.5401 0.9800 0.9927
C5 C 0.5536(5) 0.8724(3) 0.93110(15)
C6 C 0.5545(4) 0.7810(2) 0.96715(14)
C7 C 0.5468(4) 0.6793(3) 1.04190(13)
C8 C 0.5405(5) 0.6324(3) 1.09526(15)
H8 H 0.5370 0.6696 1.1292
C9 C 0.5397(6) 0.5289(3) 1.09570(17)
H9 H 0.5362 0.4951 1.1308
C10 C 0.5440(5) 0.4728(3) 1.04512(17)
H10 H 0.5413 0.4025 1.0474
C11 C 0.5522(5) 0.5180(3) 0.99179(16)
H11 H 0.5554 0.4799 0.9582
C12 C 0.5555(5) 0.6234(3) 0.99058(15)
C13 C 0.8196(5) 0.7278(2) 0.75089(15)
C14 C 0.9161(5) 0.7559(2) 0.69411(13)
H12 H 1.0057 0.7006 0.6843
C15 C 1.0385(5) 0.8541(3) 0.69641(15)
C16 C 1.0550(5) 0.8842(2) 0.63175(14)
C17 C 0.8446(6) 0.8614(3) 0.60920(17)
H13 H 0.7589 0.9187 0.6159
H14 H 0.8466 0.8466 0.5683
C18 C 0.7754(6) 0.7675(3) 0.64394(17)
H15 H 0.6434 0.7776 0.6579
H16 H 0.7776 0.7074 0.6199
C19 C 1.2008(6) 0.8170(3) 0.59850(18)
H17 H 1.3304 0.8284 0.6129
H18 H 1.1960 0.8336 0.5583
H19 H 1.1667 0.7470 0.6036
C20 C 1.1187(5) 0.9949(2) 0.62381(13)
C21 C 0.9351(6) 0.9370(3) 0.73023(15)
H20 H 1.0109 0.9981 0.7287
H21 H 0.9206 0.9161 0.7696
H22 H 0.8086 0.9491 0.7138
C22 C 1.2390(6) 0.8359(4) 0.72491(19)
H23 H 1.2233 0.8330 0.7659
H24 H 1.3258 0.8904 0.7152
H25 H 1.2926 0.7731 0.7114
N1 N 0.5628(4) 0.8541(2) 0.87404(13)
N2 N 0.5643(4) 0.6899(2) 0.94444(11)
N3 N 0.5455(4) 0.7800(2) 1.02498(13)
O1 O 0.9230(4) 0.71585(19) 0.79519(10)
O2 O 0.6396(3) 0.7154(2) 0.75255(10)
O3 O 1.0046(4) 1.05617(18) 0.59918(10)
O4 O 1.2850(3) 1.01754(17) 0.64251(11)
O5 O 0.2888(4) 0.6434(3) 0.83393(14)
Cd1C Cd 1.38484(3) 1.176778(18) 0.652270(10)
O4C O 0.7150(3) 0.51754(17) 0.85749(11)
loop_
_geom_bond_atom_site_label_1
_geom_bond_atom_site_label_2
_geom_bond_site_symmetry_1
_geom_bond_site_symmetry_2
H1 O5 1_555 1_555
H2 O5 1_555 1_555
H3 N3 1_555 1_555
Cd1 N1 1_555 1_555
C1 H4 1_555 1_555
C2 C1 1_555 1_555
H5 C2 1_555 1_555
C3 C2 1_555 1_555
H6 C3 1_555 1_555
C4 C3 1_555 1_555
H7 C4 1_555 1_555
C5 C4 1_555 1_555
C6 C5 1_555 1_555
C7 C8 1_555 1_555
C8 H8 1_555 1_555
C9 C8 1_555 1_555
H9 C9 1_555 1_555
C10 C9 1_555 1_555
H10 C10 1_555 1_555
C11 C10 1_555 1_555
H11 C11 1_555 1_555
C12 C7 1_555 1_555
C13 C14 1_555 1_555
C14 H12 1_555 1_555
C15 C14 1_555 1_555
C16 C15 1_555 1_555
C17 C16 1_555 1_555
H13 C17 1_555 1_555
H14 C17 1_555 1_555
C18 C14 1_555 1_555
H15 C18 1_555 1_555
H16 C18 1_555 1_555
C19 C16 1_555 1_555
H17 C19 1_555 1_555
H18 C19 1_555 1_555
H19 C19 1_555 1_555
C20 C16 1_555 1_555
C21 C15 1_555 1_555
H20 C21 1_555 1_555
H21 C21 1_555 1_555
H22 C21 1_555 1_555
C22 C15 1_555 1_555
H23 C22 1_555 1_555
H24 C22 1_555 1_555
H25 C22 1_555 1_555
N1 C1 1_555 1_555
N2 Cd1 1_555 1_555
N3 C6 1_555 1_555
O1 Cd1 1_555 1_555
O2 Cd1 1_555 1_555
O3 C20 1_555 1_555
O4 C20 1_555 1_555
O5 Cd1 1_555 1_555
Cd1C O4 1_555 1_555
O4C Cd1 1_555 1_555
C5 N1 1_555 1_555
C6 N2 1_555 1_555
C7 N3 1_555 1_555
C11 C12 1_555 1_555
C12 N2 1_555 1_555
C13 O1 1_555 1_555
C13 O2 1_555 1_555
C17 C18 1_555 1_555

#END
