
#######################################################################
#
#                 Cambridge Crystallographic Data Centre
#                                CCDC 
#
#######################################################################
#
# If this CIF has been generated from an entry in the Cambridge 
# Structural Database, then it will include bibliographic, chemical, 
# crystal, experimental, refinement or atomic coordinate data resulting 
# from the CCDC's data processing and validation procedures.
#
#######################################################################

data_GIKRIC01
_symmetry_cell_setting           monoclinic
_symmetry_space_group_name_H-M   'P 21/c'
_symmetry_Int_Tables_number      14
_space_group_name_Hall           '-P 2ybc'
loop_
_symmetry_equiv_pos_site_id
_symmetry_equiv_pos_as_xyz
1 x,y,z
2 -x,1/2+y,1/2-z
3 -x,-y,-z
4 x,1/2-y,1/2+z
_cell_length_a                   3.7700(8)
_cell_length_b                   25.660(5)
_cell_length_c                   16.430(3)
_cell_angle_alpha                90
_cell_angle_beta                 95.23(3)
_cell_angle_gamma                90
_cell_volume                     1582.79
loop_
_atom_site_label
_atom_site_type_symbol
_atom_site_fract_x
_atom_site_fract_y
_atom_site_fract_z
Cu1 Cu -0.0744(2) 0.14108(3) -0.00058(4)
Cu2 Cu 0.1226(3) 0.09651(4) -0.18025(6)
Cu3 Cu -0.4794(3) 0.05718(4) -0.38011(6)
Cu4 Cu -1.0105(3) 0.06053(4) -0.52025(7)
Cl1 Cl 0.3058(4) 0.17710(6) -0.08371(9)
Cl2 Cl -0.0393(4) 0.06305(5) -0.06275(10)
Cl3 Cl -0.4411(4) 0.10249(6) -0.26139(9)
Cl4 Cl -0.4992(4) 0.10885(6) -0.49947(9)
Cl5 Cl -0.9793(4) 0.00093(6) -0.38216(10)
N1 N -0.2810(13) 0.10916(18) 0.0974(3)
N2 N -0.0543(12) 0.20397(17) 0.0716(3)
C1 C -0.3921(17) 0.0615(2) 0.1080(4)
H1 H -0.3939 0.0382 0.0646
C2 C -0.5064(18) 0.0442(3) 0.1808(4)
H2 H -0.5846 0.0101 0.1858
C3 C -0.5035(18) 0.0773(2) 0.2444(4)
H3 H -0.5803 0.0662 0.2937
C4 C -0.3843(15) 0.1286(2) 0.2360(4)
C5 C -0.3679(17) 0.1670(3) 0.2996(4)
H4 H -0.4360 0.1583 0.3508
C6 C -0.2562(18) 0.2149(3) 0.2857(4)
H5 H -0.2499 0.2392 0.3277
C7 C -0.1462(16) 0.2303(2) 0.2093(4)
C8 C -0.0289(18) 0.2800(2) 0.1916(4)
H6 H -0.0140 0.3058 0.2316
C9 C 0.0632(18) 0.2907(2) 0.1159(4)
H7 H 0.1392 0.3239 0.1033
C10 C 0.0446(16) 0.2521(2) 0.0572(4)
H8 H 0.1046 0.2604 0.0051
C11 C -0.1585(14) 0.1934(2) 0.1469(3)
C12 C -0.2770(15) 0.1419(2) 0.1604(3)
Cu1_2 Cu 0.9256(2) 0.14108(3) -0.00058(4)
Cu2_2 Cu -0.8774(3) 0.09651(4) -0.18025(6)
Cu3_2 Cu -1.4794(3) 0.05718(4) -0.38011(6)
Cu4_2 Cu -0.0105(3) 0.06053(4) -0.52025(7)
Cu4B Cu -0.9895(3) -0.06053(4) -0.47975(7)
Cl1_2 Cl -0.6942(4) 0.17710(6) -0.08371(9)
Cl3_2 Cl 0.5589(4) 0.10249(6) -0.26139(9)
Cl4_2 Cl -1.4992(4) 0.10885(6) -0.49947(9)
Cl5_2 Cl 0.0207(4) 0.00093(6) -0.38216(10)
Cl5B Cl -1.0207(4) -0.00093(6) -0.61784(10)
loop_
_geom_bond_atom_site_label_1
_geom_bond_atom_site_label_2
_geom_bond_site_symmetry_1
_geom_bond_site_symmetry_2
Cu1 Cl1 1_555 1_555
Cu2 Cl1 1_555 1_555
Cu3 Cl3 1_555 1_555
Cu4 Cl4 1_555 1_555
Cl1 Cu1_2 1_555 1_555
Cl2 Cu1 1_555 1_555
Cl3 Cu2 1_555 1_555
Cl4 Cu3 1_555 1_555
Cl5 Cu3 1_555 1_555
N1 Cu1 1_555 1_555
N2 Cu1 1_555 1_555
C1 N1 1_555 1_555
H1 C1 1_555 1_555
C2 C1 1_555 1_555
H2 C2 1_555 1_555
C3 C2 1_555 1_555
H3 C3 1_555 1_555
C4 C3 1_555 1_555
C5 C4 1_555 1_555
H4 C5 1_555 1_555
C6 C5 1_555 1_555
H5 C6 1_555 1_555
C7 C6 1_555 1_555
C8 C7 1_555 1_555
H6 C8 1_555 1_555
C9 C8 1_555 1_555
H7 C9 1_555 1_555
C10 N2 1_555 1_555
H8 C10 1_555 1_555
C11 N2 1_555 1_555
C12 N1 1_555 1_555
Cu2_2 Cl3 1_555 1_555
Cu3_2 Cl5 1_555 1_555
Cu4_2 Cl4 1_555 1_555
Cu4B Cl5 1_555 1_555
Cl1_2 Cu1 1_555 1_555
Cl3_2 Cu2 1_555 1_555
Cl4_2 Cu4 1_555 1_555
Cl5_2 Cu3 1_555 1_555
Cl5B Cu4 1_555 1_555
Cu2 Cl2 1_555 1_555
Cu4 Cl5 1_555 1_555
C4 C12 1_555 1_555
C7 C11 1_555 1_555
C9 C10 1_555 1_555
C11 C12 1_555 1_555
Cu2_2 Cl1_2 1_555 1_555
Cu3_2 Cl4_2 1_555 1_555
Cu4_2 Cl5_2 1_555 1_555
Cu4B Cl5B 1_555 1_555

#END
