
#######################################################################
#
#                 Cambridge Crystallographic Data Centre
#                                CCDC 
#
#######################################################################
#
# If this CIF has been generated from an entry in the Cambridge 
# Structural Database, then it will include bibliographic, chemical, 
# crystal, experimental, refinement or atomic coordinate data resulting 
# from the CCDC's data processing and validation procedures.
#
#######################################################################

data_GIKRIC
_symmetry_cell_setting           monoclinic
_symmetry_space_group_name_H-M   'P 21/c'
_symmetry_Int_Tables_number      14
_space_group_name_Hall           '-P 2ybc'
loop_
_symmetry_equiv_pos_site_id
_symmetry_equiv_pos_as_xyz
1 x,y,z
2 -x,1/2+y,1/2-z
3 -x,-y,-z
4 x,1/2-y,1/2+z
_cell_length_a                   3.7794(8)
_cell_length_b                   25.814(5)
_cell_length_c                   16.518(3)
_cell_angle_alpha                90
_cell_angle_beta                 95.37(3)
_cell_angle_gamma                90
_cell_volume                     1604.45
loop_
_atom_site_label
_atom_site_type_symbol
_atom_site_fract_x
_atom_site_fract_y
_atom_site_fract_z
Cu1 Cu 0.07270(17) 0.35841(2) 0.50055(3)
Cl1 Cl -0.3105(4) 0.32259(5) 0.58346(8)
Cl2 Cl 0.0377(4) 0.43687(5) 0.56238(9)
N1 N 0.2779(11) 0.39078(15) 0.4033(3)
N2 N 0.0555(11) 0.29554(15) 0.4283(3)
C1 C 0.1574(13) 0.30613(18) 0.3523(3)
C2 C -0.0485(15) 0.24745(17) 0.4417(3)
H1 H -0.1161 0.2393 0.4929
C3 C 0.2777(13) 0.35763(17) 0.3401(3)
C4 C 0.5063(16) 0.4554(2) 0.3180(4)
H2 H 0.5832 0.4893 0.3125
C5 C -0.0617(16) 0.2090(2) 0.3840(4)
H3 H -0.1323 0.1757 0.3968
C6 C 0.2565(17) 0.2851(3) 0.2124(3)
H4 H 0.2474 0.2614 0.1698
C7 C 0.3851(13) 0.3715(2) 0.2638(3)
C8 C 0.3912(16) 0.43876(19) 0.3921(4)
H5 H 0.3943 0.4622 0.4349
C9 C 0.0303(16) 0.2201(2) 0.3071(4)
H6 H 0.0140 0.1946 0.2670
C10 C 0.1479(14) 0.2696(2) 0.2901(3)
C11 C 0.5061(16) 0.4226(2) 0.2551(4)
H7 H 0.5850 0.4334 0.2062
C12 C 0.3711(16) 0.3336(3) 0.2014(3)
H8 H 0.4439 0.3426 0.1510
Cu2 Cu -0.1202(3) 0.40370(4) 0.68055(5)
Cl3 Cl -0.5588(4) 0.39800(6) 0.76106(8)
Cu3 Cu -0.5204(3) 0.44322(4) 0.88002(6)
Cl4 Cl -1.0211(3) 0.49919(5) 0.88210(8)
Cl5 Cl -0.5017(4) 0.39104(5) 0.99902(8)
Cu4 Cu -0.9896(3) 0.43926(4) 1.02037(7)
Cu1_2 Cu -0.92730(17) 0.35841(2) 0.50055(3)
Cl1_2 Cl 0.6895(4) 0.32259(5) 0.58346(8)
Cu2_2 Cu -1.1202(3) 0.40370(4) 0.68055(5)
Cl3_2 Cl 0.4412(4) 0.39800(6) 0.76106(8)
Cu3_2 Cu -1.5204(3) 0.44322(4) 0.88002(6)
Cl4_2 Cl -0.0211(3) 0.49919(5) 0.88210(8)
Cl4B Cl -0.9789(3) 0.50081(5) 1.11790(8)
Cl5_2 Cl -1.5017(4) 0.39104(5) 0.99902(8)
Cu4B Cu -1.0104(3) 0.56074(4) 0.97963(7)
Cu4_2 Cu 0.0104(3) 0.43926(4) 1.02037(7)
loop_
_geom_bond_atom_site_label_1
_geom_bond_atom_site_label_2
_geom_bond_site_symmetry_1
_geom_bond_site_symmetry_2
Cu1 Cl1 1_555 1_555
Cl1 Cu2 1_555 1_555
Cl2 Cu1 1_555 1_555
N1 Cu1 1_555 1_555
N2 Cu1 1_555 1_555
C1 N2 1_555 1_555
C2 N2 1_555 1_555
H1 C2 1_555 1_555
C3 N1 1_555 1_555
C4 H2 1_555 1_555
C5 C2 1_555 1_555
H3 C5 1_555 1_555
C6 H4 1_555 1_555
C7 C3 1_555 1_555
C8 N1 1_555 1_555
H5 C8 1_555 1_555
C9 C5 1_555 1_555
H6 C9 1_555 1_555
C10 C1 1_555 1_555
C11 C4 1_555 1_555
H7 C11 1_555 1_555
C12 C6 1_555 1_555
H8 C12 1_555 1_555
Cu2 Cl2 1_555 1_555
Cl3 Cu2 1_555 1_555
Cu3 Cl3 1_555 1_555
Cl4 Cu3 1_555 1_555
Cl5 Cu3 1_555 1_555
Cu4 Cl4 1_555 1_555
Cu1_2 Cl1 1_555 1_555
Cl1_2 Cu1 1_555 1_555
Cu2_2 Cl3 1_555 1_555
Cl3_2 Cu2 1_555 1_555
Cu3_2 Cl4 1_555 1_555
Cl4_2 Cu3 1_555 1_555
Cl4B Cu4 1_555 1_555
Cl5_2 Cu4 1_555 1_555
Cu4B Cl4 1_555 1_555
Cu4_2 Cl5 1_555 1_555
C1 C3 1_555 1_555
C4 C8 1_555 1_555
C6 C10 1_555 1_555
C7 C11 1_555 1_555
C7 C12 1_555 1_555
C9 C10 1_555 1_555
Cl5 Cu4 1_555 1_555
Cu3_2 Cl5_2 1_555 1_555
Cl4_2 Cu4_2 1_555 1_555
Cl4B Cu4B 1_555 1_555

#END
