
#######################################################################
#
#                 Cambridge Crystallographic Data Centre
#                                CCDC 
#
#######################################################################
#
# If this CIF has been generated from an entry in the Cambridge 
# Structural Database, then it will include bibliographic, chemical, 
# crystal, experimental, refinement or atomic coordinate data resulting 
# from the CCDC's data processing and validation procedures.
#
#######################################################################

data_GILNIA
_symmetry_cell_setting           monoclinic
_symmetry_space_group_name_H-M   'P 21/c'
_symmetry_Int_Tables_number      14
_space_group_name_Hall           '-P 2ybc'
loop_
_symmetry_equiv_pos_site_id
_symmetry_equiv_pos_as_xyz
1 x,y,z
2 -x,1/2+y,1/2-z
3 -x,-y,-z
4 x,1/2-y,1/2+z
_cell_length_a                   11.282(2)
_cell_length_b                   6.2390(12)
_cell_length_c                   29.248(7)
_cell_angle_alpha                90
_cell_angle_beta                 110.75(3)
_cell_angle_gamma                90
_cell_volume                     1925.18
loop_
_atom_site_label
_atom_site_type_symbol
_atom_site_fract_x
_atom_site_fract_y
_atom_site_fract_z
Cu1 Cu 0.90568(6) 0.02126(12) 0.16176(2)
N1 N 0.7679(4) -0.0628(7) 0.18672(16)
C1 C 0.8099(6) 0.0108(9) 0.2379(2)
H1 H 0.8508 -0.1096 0.2599
H2 H 0.7354 0.0570 0.2458
C2 C 0.9036(5) 0.1972(10) 0.2468(2)
O1 O 0.9431(4) 0.2440(7) 0.21164(14)
O2 O 0.9367(4) 0.2877(7) 0.28667(15)
C3 C 0.6501(5) 0.0516(10) 0.15425(19)
H3 H 0.6689 0.2067 0.1547
H4 H 0.6299 0.0004 0.1203
C4 C 0.5345(6) 0.0222(10) 0.1681(2)
C5 C 0.4536(6) -0.1548(11) 0.1508(2)
H5 H 0.4711 -0.2559 0.1298
C6 C 0.3483(6) -0.1826(13) 0.1644(2)
H6 H 0.2945 -0.3030 0.1528
C7 C 0.3221(7) -0.0354(13) 0.1946(3)
H7 H 0.2502 -0.0545 0.2039
C8 C 0.4007(6) 0.1410(13) 0.2114(2)
H8 H 0.3825 0.2422 0.2323
C9 C 0.5064(6) 0.1703(11) 0.1979(2)
H9 H 0.5591 0.2923 0.2091
C10 C 0.7570(5) -0.2981(9) 0.1800(2)
H10 H 0.6728 -0.3468 0.1793
H11 H 0.8228 -0.3706 0.2075
C11 C 0.7739(6) -0.3540(10) 0.1318(2)
O3 O 0.8382(4) -0.2175(7) 0.11688(14)
O4 O 0.7285(5) -0.5236(7) 0.11051(16)
N2 N 1.1554(6) -0.1143(10) 0.03186(18)
C12 C 1.0711(7) -0.2204(13) 0.0420(2)
H12 H 1.0455 -0.3539 0.0259
N3 N 1.0147(5) -0.1580(10) 0.07407(18)
H13 H 0.9545 -0.2361 0.0762
C13 C 1.0519(6) 0.0360(11) 0.0949(2)
C14 C 1.1431(7) 0.1696(11) 0.0854(2)
C15 C 1.2009(7) 0.0838(12) 0.0544(2)
N4 N 1.2972(6) 0.1773(10) 0.0451(2)
N5 N 1.1566(5) 0.3550(8) 0.11134(16)
C16 C 1.0752(6) 0.3279(11) 0.1347(2)
H14 H 1.0625 0.4352 0.1556
N6 N 1.0105(5) 0.1358(9) 0.12691(17)
C17 C 1.3451(8) 0.0815(14) 0.0100(3)
H15 H 1.4052 0.1799 0.0036
H16 H 1.2745 0.0531 -0.0205
H17 H 1.3881 -0.0534 0.0232
C18 C 1.3594(7) 0.3745(13) 0.0696(3)
H18 H 1.3326 0.4954 0.0469
H19 H 1.4516 0.3576 0.0801
H20 H 1.3356 0.4017 0.0982
Cu1A Cu 1.09432(6) 0.52126(12) 0.33824(2)
O2A O 1.0633(4) -0.2123(7) 0.21333(15)
O5 O 0.8385(5) 0.4626(8) 0.03670(16)
H21 H 0.7971 0.4474 0.0558
H22 H 0.8193 0.3590 0.0164
loop_
_geom_bond_atom_site_label_1
_geom_bond_atom_site_label_2
_geom_bond_site_symmetry_1
_geom_bond_site_symmetry_2
Cu1 N1 1_555 1_555
N1 C1 1_555 1_555
C1 H1 1_555 1_555
H2 C1 1_555 1_555
C2 C1 1_555 1_555
O1 Cu1 1_555 1_555
O2 C2 1_555 1_555
C3 N1 1_555 1_555
H3 C3 1_555 1_555
H4 C3 1_555 1_555
C4 C3 1_555 1_555
C5 C4 1_555 1_555
H5 C5 1_555 1_555
C6 C5 1_555 1_555
H6 C6 1_555 1_555
C7 C6 1_555 1_555
H7 C7 1_555 1_555
C8 C7 1_555 1_555
H8 C8 1_555 1_555
C9 C4 1_555 1_555
H9 C9 1_555 1_555
C10 N1 1_555 1_555
H10 C10 1_555 1_555
H11 C10 1_555 1_555
C11 C10 1_555 1_555
O3 Cu1 1_555 1_555
O4 C11 1_555 1_555
N2 C12 1_555 1_555
C12 H12 1_555 1_555
N3 C12 1_555 1_555
H13 N3 1_555 1_555
C13 N3 1_555 1_555
C14 C13 1_555 1_555
C15 N2 1_555 1_555
N4 C15 1_555 1_555
N5 C14 1_555 1_555
C16 N5 1_555 1_555
H14 C16 1_555 1_555
N6 Cu1 1_555 1_555
C17 N4 1_555 1_555
H15 C17 1_555 1_555
H16 C17 1_555 1_555
H17 C17 1_555 1_555
C18 N4 1_555 1_555
H18 C18 1_555 1_555
H19 C18 1_555 1_555
H20 C18 1_555 1_555
O5 H21 1_555 1_555
H22 O5 1_555 1_555
Cu1A O2 1_555 1_555
O2A Cu1 1_555 1_555
C2 O1 1_555 1_555
C8 C9 1_555 1_555
C11 O3 1_555 1_555
C13 N6 1_555 1_555
C14 C15 1_555 1_555
C16 N6 1_555 1_555

#END
