
#######################################################################
#
#                 Cambridge Crystallographic Data Centre
#                                CCDC 
#
#######################################################################
#
# If this CIF has been generated from an entry in the Cambridge 
# Structural Database, then it will include bibliographic, chemical, 
# crystal, experimental, refinement or atomic coordinate data resulting 
# from the CCDC's data processing and validation procedures.
#
#######################################################################

data_GIMBOU
_symmetry_cell_setting           monoclinic
_symmetry_space_group_name_H-M   'P 21/c'
_symmetry_Int_Tables_number      14
_space_group_name_Hall           '-P 2ybc'
loop_
_symmetry_equiv_pos_site_id
_symmetry_equiv_pos_as_xyz
1 x,y,z
2 -x,1/2+y,1/2-z
3 -x,-y,-z
4 x,1/2-y,1/2+z
_cell_length_a                   8.1000(5)
_cell_length_b                   24.0843(14)
_cell_length_c                   16.1866(9)
_cell_angle_alpha                90
_cell_angle_beta                 92.014(1)
_cell_angle_gamma                90
_cell_volume                     3155.78
loop_
_atom_site_label
_atom_site_type_symbol
_atom_site_fract_x
_atom_site_fract_y
_atom_site_fract_z
Zn1 Zn 0.34311(4) 0.406583(14) 0.37958(2)
Zn2 Zn -0.37571(4) 0.415720(14) 0.12385(2)
O1 O 0.1282(3) 0.43658(9) 0.31686(14)
O2 O 0.2227(3) 0.32773(9) 0.33695(14)
O3 O -0.0217(3) 0.25278(10) 0.24563(16)
O4 O -0.2609(3) 0.33182(9) 0.16101(15)
O5 O -0.1756(3) 0.43999(9) 0.20126(14)
O6 O 0.4742(3) 0.42697(9) 0.24988(13)
O7 O 0.4002(3) 0.49059(9) 0.39407(12)
O8 O 0.4100(4) 0.60990(10) 0.34624(16)
O9 O 0.5447(4) 0.61567(10) 0.18242(15)
O10 O 0.5640(3) 0.49965(9) 0.11952(12)
N1 N 0.2496(3) 0.40538(11) 0.49974(16)
N2 N -0.2529(3) 0.42234(11) 1.01166(15)
N3 N 0.5559(3) 0.36362(11) 0.40902(15)
N4 N 1.4245(3) 0.12832(10) 0.57842(15)
C1 C 0.0475(4) 0.39743(13) 0.28359(18)
C2 C 0.0966(4) 0.34025(13) 0.29492(19)
C3 C -0.0219(4) 0.30340(15) 0.2496(2)
C4 C -0.1403(4) 0.34235(13) 0.20829(19)
C5 C -0.0960(4) 0.39883(13) 0.22950(18)
C6 C 0.4777(4) 0.47936(13) 0.25458(17)
C7 C 0.4387(4) 0.51109(13) 0.32565(18)
C8 C 0.4474(4) 0.57033(14) 0.30424(19)
C9 C 0.5117(4) 0.57308(14) 0.2190(2)
C10 C 0.5226(4) 0.51580(13) 0.18971(18)
C11 C 0.2602(4) 0.36076(13) 0.5476(2)
H3 H 0.3136 0.3296 0.5274
C12 C 0.1970(4) 0.35778(14) 0.6249(2)
H4 H 0.2095 0.3255 0.6561
C13 C 0.1148(4) 0.40296(13) 0.65636(19)
C14 C 0.1067(5) 0.45035(15) 0.6079(2)
H5 H 0.0552 0.4822 0.6270
C15 C 0.1753(4) 0.44999(14) 0.5315(2)
H6 H 0.1700 0.4823 0.5001
C16 C 0.0387(4) 0.39804(15) 0.7368(2)
H7 H 0.0374 0.3629 0.7605
C17 C -0.0280(4) 0.43869(14) 0.7789(2)
H8 H -0.0260 0.4742 0.7563
C18 C -0.2066(4) 0.47113(14) 0.9818(2)
H9 H -0.2244 0.5026 1.0135
C19 C -0.1344(4) 0.47781(14) 0.9072(2)
H10 H -0.1053 0.5130 0.8892
C20 C -0.1051(4) 0.43172(14) 0.85864(19)
C21 C -0.1566(4) 0.38109(15) 0.8884(2)
H11 H -0.1432 0.3491 0.8572
C22 C -0.2272(4) 0.37800(14) 0.9639(2)
H12 H -0.2590 0.3433 0.9829
C23 C 0.6512(4) 0.38078(15) 0.4731(2)
H13 H 0.6297 0.4152 0.4964
C24 C 0.7791(5) 0.34985(16) 0.5060(2)
H14 H 0.8405 0.3630 0.5515
C25 C 0.8170(4) 0.29943(15) 0.4719(2)
C26 C 0.7219(4) 0.28258(14) 0.4036(2)
H15 H 0.7452 0.2493 0.3774
C27 C 0.5929(4) 0.31522(14) 0.3745(2)
H16 H 0.5293 0.3030 0.3290
C28 C 0.9496(4) 0.26487(15) 0.5113(2)
H17 H 0.9643 0.2667 0.5685
C29 C 1.0459(4) 0.23237(14) 0.4715(2)
H18 H 1.0323 0.2312 0.4143
C30 C 1.3670(4) 0.12195(15) 0.5005(2)
H19 H 1.4105 0.0936 0.4689
C31 C 1.2469(4) 0.15523(16) 0.4653(2)
H20 H 1.2127 0.1496 0.4105
C32 C 1.1764(4) 0.19689(14) 0.5103(2)
C33 C 1.2359(4) 0.20320(14) 0.5908(2)
H21 H 1.1930 0.2309 0.6239
C34 C 1.3581(4) 0.16879(13) 0.6226(2)
H22 H 1.3958 0.1740 0.6770
Zn2_2 Zn 0.62429(4) 0.415720(14) 0.12385(2)
Zn2_3 Zn -0.37571(4) 0.415720(14) 1.12385(2)
Zn2C Zn 1.62429(4) 0.084280(14) 0.62385(2)
O6_2 O -0.5258(3) 0.42697(9) 0.24988(13)
O10_2 O -0.4360(3) 0.49965(9) 0.11952(12)
N2_2 N -0.2529(3) 0.42234(11) 0.01166(15)
N4C N -0.5755(3) 0.37168(10) 0.07842(15)
O11 O 0.5288(8) 0.22471(19) 0.2255(4)
H1 H 0.6244 0.2025 0.2459
H2 H 0.5365 0.2281 0.1623
loop_
_geom_bond_atom_site_label_1
_geom_bond_atom_site_label_2
_geom_bond_site_symmetry_1
_geom_bond_site_symmetry_2
Zn1 O1 1_555 1_555
Zn2 O4 1_555 1_555
O1 C1 1_555 1_555
O2 Zn1 1_555 1_555
O3 C3 1_555 1_555
O4 C4 1_555 1_555
O5 Zn2 1_555 1_555
O6 Zn1 1_555 1_555
O7 Zn1 1_555 1_555
O8 C8 1_555 1_555
O9 C9 1_555 1_555
O10 C10 1_555 1_555
O11 H1 1_555 1_555
H2 O11 1_555 1_555
N1 Zn1 1_555 1_555
N2 C18 1_555 1_555
N3 Zn1 1_555 1_555
N4 C30 1_555 1_555
C1 C2 1_555 1_555
C2 O2 1_555 1_555
C3 C2 1_555 1_555
C4 C3 1_555 1_555
C5 O5 1_555 1_555
C6 O6 1_555 1_555
C7 O7 1_555 1_555
C8 C7 1_555 1_555
C9 C8 1_555 1_555
C10 C6 1_555 1_555
C11 N1 1_555 1_555
H3 C11 1_555 1_555
C12 C11 1_555 1_555
H4 C12 1_555 1_555
C13 C12 1_555 1_555
C14 C13 1_555 1_555
H5 C14 1_555 1_555
C15 N1 1_555 1_555
H6 C15 1_555 1_555
C16 C13 1_555 1_555
H7 C16 1_555 1_555
C17 C16 1_555 1_555
H8 C17 1_555 1_555
C18 H9 1_555 1_555
C19 C18 1_555 1_555
H10 C19 1_555 1_555
C20 C17 1_555 1_555
C21 C20 1_555 1_555
H11 C21 1_555 1_555
C22 N2 1_555 1_555
H12 C22 1_555 1_555
C23 N3 1_555 1_555
H13 C23 1_555 1_555
C24 C23 1_555 1_555
H14 C24 1_555 1_555
C25 C24 1_555 1_555
C26 C25 1_555 1_555
H15 C26 1_555 1_555
C27 N3 1_555 1_555
H16 C27 1_555 1_555
C28 C25 1_555 1_555
H17 C28 1_555 1_555
C29 C28 1_555 1_555
H18 C29 1_555 1_555
C30 H19 1_555 1_555
C31 C30 1_555 1_555
H20 C31 1_555 1_555
C32 C29 1_555 1_555
C33 C32 1_555 1_555
H21 C33 1_555 1_555
C34 N4 1_555 1_555
H22 C34 1_555 1_555
Zn2_2 O6 1_555 1_555
Zn2_3 N2 1_555 1_555
Zn2C N4 1_555 1_555
O6_2 Zn2 1_555 1_555
O10_2 Zn2 1_555 1_555
N2_2 Zn2 1_555 1_555
N4C Zn2 1_555 1_555
O10 Zn2_2 1_555 1_555
C1 C5 1_555 1_555
C4 C5 1_555 1_555
C6 C7 1_555 1_555
C9 C10 1_555 1_555
C14 C15 1_555 1_555
C19 C20 1_555 1_555
C21 C22 1_555 1_555
C26 C27 1_555 1_555
C31 C32 1_555 1_555
C33 C34 1_555 1_555

#END
