
#######################################################################
#
#                 Cambridge Crystallographic Data Centre
#                                CCDC 
#
#######################################################################
#
# If this CIF has been generated from an entry in the Cambridge 
# Structural Database, then it will include bibliographic, chemical, 
# crystal, experimental, refinement or atomic coordinate data resulting 
# from the CCDC's data processing and validation procedures.
#
#######################################################################

data_GIMBIN
_symmetry_cell_setting           tetragonal
_symmetry_space_group_name_H-M   'P 41 21 2'
_symmetry_Int_Tables_number      92
_space_group_name_Hall           'P 4abw 2nw'
loop_
_symmetry_equiv_pos_site_id
_symmetry_equiv_pos_as_xyz
1 x,y,z
2 1/2-y,1/2+x,1/4+z
3 1/2+x,1/2-y,3/4-z
4 -x,-y,1/2+z
5 y,x,-z
6 1/2+y,1/2-x,3/4+z
7 1/2-x,1/2+y,1/4-z
8 -y,-x,1/2-z
_cell_length_a                   8.236(1)
_cell_length_b                   8.236(1)
_cell_length_c                   16.946(1)
_cell_angle_alpha                90
_cell_angle_beta                 90
_cell_angle_gamma                90
_cell_volume                     1149.48
loop_
_atom_site_label
_atom_site_type_symbol
_atom_site_fract_x
_atom_site_fract_y
_atom_site_fract_z
Mn1 Mn 0.7096(16) 0.7096(16) 0.0000
N1 N 0.5761(7) 0.8419(7) 0.0940(3)
N2 N 0.6159(6) 0.9581(6) 0.1286(3)
N3 N 0.6485(7) 1.0736(7) 0.1628(4)
N4 N 0.5148(16) 0.5148(16) 0.0000(22)
C1 C 0.5554(6) 0.3579(6) 0.0015(5)
C2 C 0.4405(6) 0.2336(6) 0.0010(4)
C3 C 0.2763(17) 0.2763(17) 0.0000(22)
N5 N -0.0927(16) -0.0927(16) 0.0000(22)
C4 C 0.0507(7) -0.1164(7) 0.0380(4)
C5 C 0.1734(7) -0.0017(7) 0.0390(4)
C6 C 0.1475(17) 0.1475(17) 0.0000(22)
N3E N 0.5736(7) 0.8515(7) -0.0872(4)
Mn1A Mn 0.7904(16) 1.2096(16) 0.2500
Mn1F Mn 0.7904(16) 0.2096(16) 0.2500
N1F N 0.9239(7) 0.3419(7) 0.1560(3)
N2F N 0.8841(6) 0.4581(6) 0.1214(3)
N3F N 0.8515(7) 0.5736(7) 0.0872(4)
N1D N 0.8419(7) 0.5761(7) -0.0940(3)
C2D C 0.2336(6) 0.4405(6) -0.0010(4)
C1D C 0.3579(6) 0.5554(6) -0.0015(5)
N5_2 N 0.9073(16) 0.9073(16) 0.0000(22)
Mn1_2 Mn -0.2904(16) -0.2904(16) 0.0000
C4D C -0.1164(7) 0.0507(7) -0.0380(4)
C5D C -0.0017(7) 0.1734(7) -0.0390(4)
loop_
_geom_bond_atom_site_label_1
_geom_bond_atom_site_label_2
_geom_bond_site_symmetry_1
_geom_bond_site_symmetry_2
Mn1 N1 1_555 1_555
N1 N2 1_555 1_555
N2 N3 1_555 1_555
N3 Mn1A 1_555 1_555
N4 Mn1 1_555 1_555
C1 N4 1_555 1_555
C2 C1 1_555 1_555
C3 C2 1_555 1_555
N5 C4 1_555 1_555
C4 C5 1_555 1_555
C5 C6 1_555 1_555
C6 C3 1_555 1_555
N3E Mn1 1_555 1_555
Mn1F N1F 1_555 1_555
N1F N2F 1_555 1_555
N2F N3F 1_555 1_555
N3F Mn1 1_555 1_555
N1D Mn1 1_555 1_555
C2D C3 1_555 1_555
C1D N4 1_555 1_555
N5_2 Mn1 1_555 1_555
Mn1_2 N5 1_555 1_555
C4D N5 1_555 1_555
C5D C6 1_555 1_555
C2D C1D 1_555 1_555
C4D C5D 1_555 1_555

#END
