
#######################################################################
#
#                 Cambridge Crystallographic Data Centre
#                                CCDC 
#
#######################################################################
#
# If this CIF has been generated from an entry in the Cambridge 
# Structural Database, then it will include bibliographic, chemical, 
# crystal, experimental, refinement or atomic coordinate data resulting 
# from the CCDC's data processing and validation procedures.
#
#######################################################################

data_GIMBIN02
_symmetry_cell_setting           orthorhombic
_symmetry_space_group_name_H-M   'P 21 21 21'
_symmetry_Int_Tables_number      19
_space_group_name_Hall           'P 2ac 2ab'
loop_
_symmetry_equiv_pos_site_id
_symmetry_equiv_pos_as_xyz
1 x,y,z
2 1/2-x,-y,1/2+z
3 1/2+x,1/2-y,-z
4 -x,1/2+y,1/2-z
_cell_length_a                   8.229(1)
_cell_length_b                   8.238(1)
_cell_length_c                   16.925(2)
_cell_angle_alpha                90
_cell_angle_beta                 90
_cell_angle_gamma                90
_cell_volume                     1147.35
loop_
_atom_site_label
_atom_site_type_symbol
_atom_site_fract_x
_atom_site_fract_y
_atom_site_fract_z
N1 N 0.2350(6) 0.5151(4) -0.1265(3)
N2 N 0.8434(5) -0.0934(4) -0.1266(2)
N3 N -0.0925(7) 0.5765(5) -0.0325(3)
N4 N -0.2066(6) 0.6160(4) 0.0034(2)
N5 N -0.3235(6) 0.6490(6) 0.0382(3)
N6 N 0.1742(6) 0.8420(6) -0.2194(3)
N7 N 0.1338(5) 0.9574(5) -0.2537(2)
N8 N 0.1004(7) 1.0735(5) -0.2860(3)
C1 C 0.1964(6) 0.3572(5) -0.1268(3)
C2 C 0.3119(7) 0.2350(5) -0.1269(3)
C3 C 0.4746(7) 0.2743(5) -0.1267(3)
C4 C 0.5141(6) 0.4389(5) -0.1249(3)
C5 C 0.3906(7) 0.5524(5) -0.1241(3)
C6 C 0.6022(6) 0.1474(5) -0.1260(3)
C7 C 0.5795(6) -0.0019(5) -0.1629(3)
C8 C 0.7001(6) -0.1148(5) -0.1620(3)
C9 C 0.8641(7) 0.0503(5) -0.0895(3)
C10 C 0.7513(7) 0.1708(5) -0.0885(3)
Mn1 Mn 0.04087(9) 0.70907(7) -0.12524(4)
H1 H 0.0847 0.3277 -0.1273
H2 H 0.2791 0.1244 -0.1270
H3 H 0.6245 0.4726 -0.1243
H4 H 0.4195 0.6640 -0.1216
H5 H 0.4796 -0.0251 -0.1888
H6 H 0.6810 -0.2151 -0.1881
H7 H 0.9637 0.0684 -0.0624
H8 H 0.7740 0.2704 -0.0624
Mn1_2 Mn 1.04087(9) -0.29093(7) -0.12524(4)
N5B N 0.1765(6) 0.8510(6) -0.0382(3)
N8C N -0.1004(7) 0.5735(5) -0.2140(3)
N2_2 N -0.1566(5) 0.9066(4) -0.1266(2)
Mn1B Mn -0.45913(9) 0.79093(7) 0.12524(4)
Mn1C Mn -0.04087(9) 1.20907(7) -0.37476(4)
loop_
_geom_bond_atom_site_label_1
_geom_bond_atom_site_label_2
_geom_bond_site_symmetry_1
_geom_bond_site_symmetry_2
N1 C1 1_555 1_555
N2 C8 1_555 1_555
N3 N4 1_555 1_555
N4 N5 1_555 1_555
N5 Mn1B 1_555 1_555
N6 N7 1_555 1_555
N7 N8 1_555 1_555
N8 Mn1C 1_555 1_555
C1 C2 1_555 1_555
C2 C3 1_555 1_555
C3 C4 1_555 1_555
C4 C5 1_555 1_555
C5 N1 1_555 1_555
C6 C3 1_555 1_555
C7 C6 1_555 1_555
C8 C7 1_555 1_555
C9 N2 1_555 1_555
C10 C6 1_555 1_555
Mn1 N1 1_555 1_555
H1 C1 1_555 1_555
H2 C2 1_555 1_555
H3 C4 1_555 1_555
H4 C5 1_555 1_555
H5 C7 1_555 1_555
H6 C8 1_555 1_555
H7 C9 1_555 1_555
H8 C10 1_555 1_555
Mn1_2 N2 1_555 1_555
N5B Mn1 1_555 1_555
N8C Mn1 1_555 1_555
N2_2 Mn1 1_555 1_555
N3 Mn1 1_555 1_555
N6 Mn1 1_555 1_555
C9 C10 1_555 1_555

#END
