
#######################################################################
#
#                 Cambridge Crystallographic Data Centre
#                                CCDC 
#
#######################################################################
#
# If this CIF has been generated from an entry in the Cambridge 
# Structural Database, then it will include bibliographic, chemical, 
# crystal, experimental, refinement or atomic coordinate data resulting 
# from the CCDC's data processing and validation procedures.
#
#######################################################################

data_GIMFOZ
_symmetry_cell_setting           monoclinic
_symmetry_space_group_name_H-M   'P 21/c'
_symmetry_Int_Tables_number      14
_space_group_name_Hall           '-P 2ybc'
loop_
_symmetry_equiv_pos_site_id
_symmetry_equiv_pos_as_xyz
1 x,y,z
2 -x,1/2+y,1/2-z
3 -x,-y,-z
4 x,1/2-y,1/2+z
_cell_length_a                   9.3675(9)
_cell_length_b                   13.8834(13)
_cell_length_c                   9.2966(10)
_cell_angle_alpha                90
_cell_angle_beta                 111.154(9)
_cell_angle_gamma                90
_cell_volume                     1127.58
loop_
_atom_site_label
_atom_site_type_symbol
_atom_site_fract_x
_atom_site_fract_y
_atom_site_fract_z
N1 N 0.78276(13) 0.12340(9) 1.10197(13)
C1 C 0.71088(18) 0.11016(12) 1.20597(17)
H1 H 0.6079 0.1222 1.1864
O1 O 0.53953(11) 0.04721(8) 0.73122(12)
N2 N 1.03907(13) 0.09878(9) 1.11568(13)
C2 C 0.93312(16) 0.09665(10) 1.18127(16)
O2 O 0.36495(12) 0.15835(8) 0.65609(12)
N3 N 0.95119(14) 0.07024(9) 1.32172(14)
O3 O 0.41218(13) 0.31032(8) 0.83599(13)
C3 C 0.98856(15) 0.12898(10) 0.96952(16)
N4 N 0.83822(13) 0.15584(9) 0.88466(13)
C4 C 0.73975(15) 0.15354(10) 0.95163(15)
O4 O 0.63405(12) 0.31219(8) 1.02225(13)
C5 C 0.58043(15) 0.18384(10) 0.86909(16)
N5 N 0.80795(15) 0.07850(9) 1.33518(15)
C6 C 1.24771(16) 0.11685(12) 0.97604(19)
H2 H 1.2597 0.0690 1.0541
H3 H 1.2984 0.1751 1.0232
H4 H 1.2919 0.0937 0.9041
N6 N 0.48945(13) 0.12952(9) 0.74574(13)
N7 N 0.53712(13) 0.27246(9) 0.90765(13)
C7 C 1.04274(18) 0.17008(12) 0.73693(17)
H5 H 0.9385 0.1919 0.7006
H6 H 1.0529 0.1184 0.6726
H7 H 1.1085 0.2223 0.7332
N8 N 1.08585(13) 0.13608(9) 0.89524(13)
K1 K 1.26818(4) 0.01370(3) 1.42283(4)
O1_2 O 1.53953(11) 0.04721(8) 1.73122(12)
O1B O 1.46047(11) -0.04721(8) 1.26878(12)
O2_2 O 1.36495(12) 0.15835(8) 1.65609(12)
O3C O 1.41218(13) 0.18968(8) 1.33599(13)
O4A O 1.36595(12) -0.18781(8) 1.47775(13)
N5B N 1.19205(15) -0.07850(9) 1.66482(15)
K1_2 K 0.26818(4) 0.01370(3) 0.42283(4)
K1A K 0.73182(4) 0.51370(3) 1.07717(4)
K1B K 0.73182(4) -0.01370(3) 0.57717(4)
K1B_2 K 0.73182(4) -0.01370(3) 1.57717(4)
K1C K 0.26818(4) 0.48630(3) 0.92283(4)
loop_
_geom_bond_atom_site_label_1
_geom_bond_atom_site_label_2
_geom_bond_site_symmetry_1
_geom_bond_site_symmetry_2
N1 C1 1_555 1_555
C1 H1 1_555 1_555
O1 N6 1_555 1_555
N2 C2 1_555 1_555
C2 N1 1_555 1_555
O2 N6 1_555 1_555
N3 C2 1_555 1_555
O3 N7 1_555 1_555
C3 N2 1_555 1_555
N4 C3 1_555 1_555
C4 N1 1_555 1_555
O4 N7 1_555 1_555
C5 C4 1_555 1_555
N5 C1 1_555 1_555
C6 H2 1_555 1_555
H3 C6 1_555 1_555
H4 C6 1_555 1_555
N6 C5 1_555 1_555
N7 C5 1_555 1_555
C7 H5 1_555 1_555
H6 C7 1_555 1_555
H7 C7 1_555 1_555
N8 C3 1_555 1_555
K1 N2 1_555 1_555
O1_2 K1 1_555 1_555
O1B K1 1_555 1_555
O2_2 K1 1_555 1_555
O3C K1 1_555 1_555
O4A K1 1_555 1_555
N5B K1 1_555 1_555
K1_2 O1 1_555 1_555
K1A O4 1_555 1_555
K1B O1 1_555 1_555
K1B_2 N5 1_555 1_555
K1C O3 1_555 1_555
O2 K1_2 1_555 1_555
N3 N5 1_555 1_555
N3 K1 1_555 1_555
N4 C4 1_555 1_555
C6 N8 1_555 1_555
C7 N8 1_555 1_555

#END
