
#######################################################################
#
#                 Cambridge Crystallographic Data Centre
#                                CCDC 
#
#######################################################################
#
# If this CIF has been generated from an entry in the Cambridge 
# Structural Database, then it will include bibliographic, chemical, 
# crystal, experimental, refinement or atomic coordinate data resulting 
# from the CCDC's data processing and validation procedures.
#
#######################################################################

data_GIMHUG
_symmetry_cell_setting           triclinic
_symmetry_space_group_name_H-M   'P -1'
_symmetry_Int_Tables_number      2
_space_group_name_Hall           '-P 1'
loop_
_symmetry_equiv_pos_site_id
_symmetry_equiv_pos_as_xyz
1 x,y,z
2 -x,-y,-z
_cell_length_a                   10.6016(2)
_cell_length_b                   12.2791(3)
_cell_length_c                   19.6827(5)
_cell_angle_alpha                105.2220(10)
_cell_angle_beta                 92.6320(10)
_cell_angle_gamma                103.8860(10)
_cell_volume                     2383.82
loop_
_atom_site_label
_atom_site_type_symbol
_atom_site_fract_x
_atom_site_fract_y
_atom_site_fract_z
Zn1 Zn 0.63125(7) 0.48016(7) 0.70015(4)
Zn2 Zn 0.63680(8) -0.02431(7) 0.18555(4)
N1 N 0.8383(5) 0.0610(5) 0.1896(3)
N2 N 0.7366(5) -0.1158(5) 0.2441(3)
N3 N 0.7507(6) 0.3952(5) 0.7539(3)
N4 N 0.8258(5) 0.5617(5) 0.6882(3)
O1 O 0.5801(5) 0.1057(4) 0.1475(3)
H1 H 0.5648 0.1551 0.1808
H2 H 0.503(9) 0.082(8) 0.109(5)
O2 O -0.3751(5) -1.0002(5) -0.0376(3)
H3 H -0.3814 -1.0319 -0.0056
O3 O 0.5530(5) 0.5972(5) 0.6575(3)
H4 H 0.4968 0.5593 0.6242
H5 H 0.526(10) 0.653(9) 0.684(5)
O4 O -0.3546(5) -0.4635(5) 0.4586(3)
H6 H -0.3686 -0.4968 0.4896
O5 O 0.6673(6) -0.3600(5) -0.1768(3)
O6 O 0.5108(5) -0.5194(5) -0.2237(2)
O7 O 0.2704(5) -0.0626(4) 0.4612(3)
O8 O 0.2302(4) -0.5743(4) -0.0370(2)
O9 O 0.5578(6) 0.2102(5) 0.2881(3)
O10 O 0.5509(6) 0.0224(4) 0.2742(3)
O11 O 0.6426(5) 0.4194(4) 0.5551(2)
O12 O 0.5319(5) 0.3324(4) 0.6270(2)
O13 O 0.4969(5) -0.1803(4) 0.1316(2)
O14 O 0.6428(5) -0.1138(4) 0.0670(2)
C1 C -0.1462(7) -0.8889(6) -0.0345(4)
C2 C -0.0211(7) -0.8912(6) -0.0467(4)
H7 H -0.0040 -0.9620 -0.0692
C3 C 0.0809(7) -0.7905(6) -0.0264(4)
H8 H 0.1654 -0.7941 -0.0355
C4 C 0.0573(7) -0.6831(6) 0.0076(3)
C5 C -0.0693(7) -0.6827(6) 0.0213(4)
H9 H -0.0872 -0.6128 0.0448
C6 C -0.1708(7) -0.7851(6) 0.0006(4)
H10 H -0.2552 -0.7831 0.0106
C7 C -0.2556(8) -1.0019(7) -0.0646(5)
H11 H -0.2695 -1.0173 -0.1157
H12 H -0.2268 -1.0661 -0.0550
C8 C 0.1685(7) -0.5746(6) 0.0262(3)
H13 H 0.1362 -0.5055 0.0418
H14 H 0.2299 -0.5756 0.0640
C9 C 0.5012(6) -0.4129(6) -0.1053(3)
C10 C 0.5482(6) -0.3115(6) -0.0496(3)
H15 H 0.6175 -0.2522 -0.0544
C11 C 0.4912(6) -0.2990(5) 0.0131(3)
C12 C 0.3854(6) -0.3858(5) 0.0204(3)
H16 H 0.3474 -0.3771 0.0625
C13 C 0.3370(6) -0.4866(6) -0.0364(3)
C14 C 0.3975(6) -0.5004(6) -0.0977(3)
H17 H 0.3682 -0.5693 -0.1343
C15 C 0.5653(7) -0.4291(6) -0.1724(3)
C16 C 0.5470(6) -0.1918(6) 0.0738(4)
C17 C 0.8880(8) 0.1430(6) 0.1590(4)
H18 H 0.8309 0.1685 0.1334
C18 C 1.0226(8) 0.1933(6) 0.1633(4)
H19 H 1.0534 0.2496 0.1401
C19 C 1.1086(8) 0.1587(7) 0.2019(4)
H20 H 1.1981 0.1927 0.2062
C20 C 1.0590(7) 0.0705(6) 0.2351(4)
C21 C 1.1385(8) 0.0292(8) 0.2765(4)
H21 H 1.2285 0.0616 0.2829
C22 C 1.0880(8) -0.0567(7) 0.3074(4)
H22 H 1.1430 -0.0816 0.3347
C23 C 0.9485(7) -0.1086(6) 0.2973(4)
C24 C 0.8906(8) -0.1996(7) 0.3259(4)
H23 H 0.9414 -0.2287 0.3529
C25 C 0.7585(8) -0.2442(7) 0.3135(4)
H24 H 0.7175 -0.3034 0.3326
C26 C 0.6857(8) -0.2005(7) 0.2721(4)
H25 H 0.5957 -0.2327 0.2637
C27 C 0.8685(6) -0.0692(5) 0.2571(3)
C28 C 0.9221(6) 0.0230(6) 0.2260(3)
C29 C -0.1206(7) -0.3629(6) 0.4644(4)
C30 C 0.0053(7) -0.3726(6) 0.4551(4)
H26 H 0.0187 -0.4457 0.4345
C31 C 0.1103(7) -0.2769(6) 0.4755(4)
H27 H 0.1939 -0.2858 0.4687
C32 C 0.0937(7) -0.1657(6) 0.5066(4)
C33 C -0.0307(7) -0.1563(6) 0.5174(4)
H28 H -0.0439 -0.0835 0.5389
C34 C -0.1376(7) -0.2542(7) 0.4967(4)
H29 H -0.2211 -0.2461 0.5048
C35 C -0.2342(8) -0.4725(7) 0.4347(5)
H30 H -0.2442 -0.4909 0.3834
H31 H -0.2116 -0.5374 0.4471
C36 C 0.2112(8) -0.0615(6) 0.5255(4)
H32 H 0.1847 0.0102 0.5429
H33 H 0.2720 -0.0676 0.5618
C37 C 0.4962(6) 0.1249(6) 0.3819(3)
C38 C 0.5412(6) 0.2263(6) 0.4379(3)
H34 H 0.5953 0.2928 0.4303
C39 C 0.5053(6) 0.2282(5) 0.5048(3)
C40 C 0.4156(6) 0.1330(6) 0.5158(3)
H35 H 0.3898 0.1353 0.5606
C41 C 0.3647(6) 0.0339(6) 0.4586(3)
C42 C 0.4105(6) 0.0285(6) 0.3932(3)
H36 H 0.3834 -0.0406 0.3565
C43 C 0.5382(6) 0.1205(6) 0.3088(3)
C44 C 0.5642(7) 0.3356(6) 0.5661(3)
C45 C 0.7122(10) 0.3107(8) 0.7861(4)
H37 H 0.6231 0.2770 0.7837
C46 C 0.7972(11) 0.2714(9) 0.8224(5)
H38 H 0.7659 0.2115 0.8429
C47 C 0.9258(11) 0.3206(9) 0.8279(4)
H39 H 0.9837 0.2961 0.8536
C48 C 0.9745(9) 0.4084(8) 0.7955(4)
C49 C 1.1082(10) 0.4668(10) 0.7971(5)
H40 H 1.1708 0.4475 0.8230
C50 C 1.1486(8) 0.5482(9) 0.7633(5)
H41 H 1.2377 0.5822 0.7655
C51 C 1.0560(7) 0.5836(7) 0.7236(4)
C52 C 1.0886(8) 0.6664(7) 0.6858(4)
H42 H 1.1761 0.7030 0.6852
C53 C 0.9937(9) 0.6935(7) 0.6500(4)
H43 H 1.0153 0.7476 0.6243
C54 C 0.8629(8) 0.6388(6) 0.6525(4)
H44 H 0.7985 0.6577 0.6277
C55 C 0.9218(7) 0.5318(6) 0.7225(3)
C56 C 0.8807(7) 0.4431(7) 0.7584(4)
Zn1_2 Zn 0.63125(7) -0.51984(7) -0.29985(4)
O6_2 O 0.5108(5) 0.4806(5) 0.7763(2)
loop_
_geom_bond_atom_site_label_1
_geom_bond_atom_site_label_2
_geom_bond_site_symmetry_1
_geom_bond_site_symmetry_2
Zn1 N3 1_555 1_555
Zn2 N1 1_555 1_555
N1 C17 1_555 1_555
N2 Zn2 1_555 1_555
N3 C45 1_555 1_555
N4 Zn1 1_555 1_555
O1 Zn2 1_555 1_555
H1 O1 1_555 1_555
H2 O1 1_555 1_555
O2 H3 1_555 1_555
O3 Zn1 1_555 1_555
H4 O3 1_555 1_555
H5 O3 1_555 1_555
O4 H6 1_555 1_555
O5 C15 1_555 1_555
O6 C15 1_555 1_555
O7 C36 1_555 1_555
O8 C8 1_555 1_555
O9 C43 1_555 1_555
O10 Zn2 1_555 1_555
O11 C44 1_555 1_555
O12 Zn1 1_555 1_555
O13 Zn2 1_555 1_555
O14 Zn2 1_555 1_555
C1 C2 1_555 1_555
C2 H7 1_555 1_555
C3 C2 1_555 1_555
H8 C3 1_555 1_555
C4 C3 1_555 1_555
C5 C4 1_555 1_555
H9 C5 1_555 1_555
C6 C1 1_555 1_555
H10 C6 1_555 1_555
C7 O2 1_555 1_555
H11 C7 1_555 1_555
H12 C7 1_555 1_555
C8 C4 1_555 1_555
H13 C8 1_555 1_555
H14 C8 1_555 1_555
C9 C10 1_555 1_555
C10 H15 1_555 1_555
C11 C10 1_555 1_555
C12 C11 1_555 1_555
H16 C12 1_555 1_555
C13 O8 1_555 1_555
C14 C9 1_555 1_555
H17 C14 1_555 1_555
C15 C9 1_555 1_555
C16 O13 1_555 1_555
C17 H18 1_555 1_555
C18 C17 1_555 1_555
H19 C18 1_555 1_555
C19 C18 1_555 1_555
H20 C19 1_555 1_555
C20 C19 1_555 1_555
C21 C20 1_555 1_555
H21 C21 1_555 1_555
C22 C21 1_555 1_555
H22 C22 1_555 1_555
C23 C22 1_555 1_555
C24 C23 1_555 1_555
H23 C24 1_555 1_555
C25 C24 1_555 1_555
H24 C25 1_555 1_555
C26 N2 1_555 1_555
H25 C26 1_555 1_555
C27 N2 1_555 1_555
C28 N1 1_555 1_555
C29 C30 1_555 1_555
C30 H26 1_555 1_555
C31 C30 1_555 1_555
H27 C31 1_555 1_555
C32 C31 1_555 1_555
C33 C32 1_555 1_555
H28 C33 1_555 1_555
C34 C29 1_555 1_555
H29 C34 1_555 1_555
C35 O4 1_555 1_555
H30 C35 1_555 1_555
H31 C35 1_555 1_555
C36 C32 1_555 1_555
H32 C36 1_555 1_555
H33 C36 1_555 1_555
C37 C38 1_555 1_555
C38 H34 1_555 1_555
C39 C38 1_555 1_555
C40 C39 1_555 1_555
H35 C40 1_555 1_555
C41 O7 1_555 1_555
C42 C37 1_555 1_555
H36 C42 1_555 1_555
C43 O10 1_555 1_555
C44 O12 1_555 1_555
C45 H37 1_555 1_555
C46 C45 1_555 1_555
H38 C46 1_555 1_555
C47 C46 1_555 1_555
H39 C47 1_555 1_555
C48 C47 1_555 1_555
C49 C48 1_555 1_555
H40 C49 1_555 1_555
C50 C49 1_555 1_555
H41 C50 1_555 1_555
C51 C50 1_555 1_555
C52 C51 1_555 1_555
H42 C52 1_555 1_555
C53 C52 1_555 1_555
H43 C53 1_555 1_555
C54 N4 1_555 1_555
H44 C54 1_555 1_555
C55 N4 1_555 1_555
C56 N3 1_555 1_555
Zn1_2 O6 1_555 1_555
O6_2 Zn1 1_555 1_555
O14 C16 1_555 1_555
C1 C7 1_555 1_555
C5 C6 1_555 1_555
C11 C16 1_555 1_555
C12 C13 1_555 1_555
C13 C14 1_555 1_555
C20 C28 1_555 1_555
C23 C27 1_555 1_555
C25 C26 1_555 1_555
C27 C28 1_555 1_555
C29 C35 1_555 1_555
C33 C34 1_555 1_555
C37 C43 1_555 1_555
C39 C44 1_555 1_555
C40 C41 1_555 1_555
C41 C42 1_555 1_555
C48 C56 1_555 1_555
C51 C55 1_555 1_555
C53 C54 1_555 1_555
C55 C56 1_555 1_555

#END
