
#######################################################################
#
#                 Cambridge Crystallographic Data Centre
#                                CCDC 
#
#######################################################################
#
# If this CIF has been generated from an entry in the Cambridge 
# Structural Database, then it will include bibliographic, chemical, 
# crystal, experimental, refinement or atomic coordinate data resulting 
# from the CCDC's data processing and validation procedures.
#
#######################################################################

data_GIMJAO
_symmetry_cell_setting           triclinic
_symmetry_space_group_name_H-M   'P -1'
_symmetry_Int_Tables_number      2
_space_group_name_Hall           '-P 1'
loop_
_symmetry_equiv_pos_site_id
_symmetry_equiv_pos_as_xyz
1 x,y,z
2 -x,-y,-z
_cell_length_a                   7.8868(13)
_cell_length_b                   11.1060(18)
_cell_length_c                   19.050(4)
_cell_angle_alpha                104.686(4)
_cell_angle_beta                 93.920(5)
_cell_angle_gamma                105.202(3)
_cell_volume                     1541.27
loop_
_atom_site_label
_atom_site_type_symbol
_atom_site_fract_x
_atom_site_fract_y
_atom_site_fract_z
Cd1 Cd 0.28131(2) 0.238920(14) -0.505480(8)
S1 S 0.63962(8) -0.16775(6) -0.97885(3)
S2 S 0.14998(8) 0.69266(6) 0.00176(3)
S3 S 0.05369(8) -0.16342(6) -0.42098(3)
S4 S 0.36063(8) 0.66414(6) -0.56027(4)
O1 O 0.5671(2) -0.07891(14) -0.84496(8)
O2 O 0.1917(2) 0.60210(14) -0.13603(8)
N1 N 0.3880(2) 0.10997(17) -0.60024(9)
N2 N 0.5591(3) -0.23645(18) -0.79257(10)
N3 N 0.6006(3) -0.27639(18) -0.86400(10)
N4 N 0.6614(3) -0.2659(2) -1.12716(11)
N5 N 0.2303(2) 0.37982(17) -0.39858(9)
N6 N 0.1883(3) 0.75943(18) -0.18746(10)
N7 N 0.1723(3) 0.80373(18) -0.11243(10)
N8 N 0.1027(3) 0.77607(19) 0.14823(11)
N9 N 0.2141(3) 0.07060(18) -0.45184(10)
N10 N 0.3172(3) 0.40427(18) -0.56313(10)
C1 C 0.4569(3) 0.1603(2) -0.65225(13)
H1 H 0.4687 0.2476 -0.6476
C2 C 0.5112(3) 0.0899(2) -0.71228(13)
H2 H 0.5584 0.1292 -0.7472
C3 C 0.4947(3) -0.0399(2) -0.71997(11)
C4 C 0.4280(3) -0.0923(2) -0.66546(12)
H3 H 0.4178 -0.1788 -0.6682
C5 C 0.3770(3) -0.0150(2) -0.60706(12)
H4 H 0.3328 -0.0512 -0.5707
C6 C 0.5414(3) -0.1218(2) -0.78399(11)
C7 C 0.6034(3) -0.1814(2) -0.89193(12)
C8 C 0.6399(3) -0.3348(2) -1.01680(13)
H5 H 0.7298 -0.3538 -0.9876
H6 H 0.5254 -0.3932 -1.0155
C9 C 0.6775(3) -0.3560(2) -1.09465(12)
C10 C 0.7233(3) -0.4657(2) -1.12957(14)
H7 H 0.7364 -0.5256 -1.1048
C11 C 0.7489(4) -0.4846(3) -1.20202(15)
H8 H 0.7769 -0.5587 -1.2272
C12 C 0.7329(4) -0.3936(3) -1.23641(15)
H9 H 0.7501 -0.4041 -1.2852
C13 C 0.6909(4) -0.2863(3) -1.19721(14)
H10 H 0.6823 -0.2236 -1.2206
C14 C 0.1740(3) 0.4841(2) -0.39751(12)
H11 H 0.1413 0.4978 -0.4420
C15 C 0.1623(3) 0.5719(2) -0.33394(12)
H12 H 0.1233 0.6434 -0.3356
C16 C 0.2097(3) 0.5517(2) -0.26701(11)
C17 C 0.2673(3) 0.4439(2) -0.26729(12)
H13 H 0.2996 0.4275 -0.2235
C18 C 0.2756(3) 0.3614(2) -0.33382(12)
H14 H 0.3146 0.2894 -0.3337
C19 C 0.1975(3) 0.6422(2) -0.19860(11)
C20 C 0.1738(3) 0.7084(2) -0.08553(11)
C21 C 0.1475(4) 0.8584(2) 0.04240(12)
H15 H 0.2644 0.9178 0.0457
H16 H 0.0638 0.8807 0.0119
C22 C 0.0945(3) 0.8708(2) 0.11793(12)
C23 C 0.0405(3) 0.9770(2) 0.15250(13)
H17 H 0.0338 1.0400 0.1291
C24 C -0.0031(3) 0.9878(3) 0.22224(13)
H18 H -0.0372 1.0592 0.2471
C25 C 0.0047(3) 0.8915(3) 0.25428(13)
H19 H -0.0245 0.8961 0.3012
C26 C 0.0566(3) 0.7878(3) 0.21532(14)
H20 H 0.0597 0.7221 0.2370
C27 C 0.1457(3) -0.0266(2) -0.44004(11)
C28 C 0.3365(3) 0.5119(2) -0.56172(11)
Cd1A Cd -0.28131(2) -0.238920(14) -0.494520(8)
Cd1A_2 Cd 0.71869(2) 0.761080(14) -0.494520(8)
S3A S -0.05369(8) 0.16342(6) -0.57902(3)
S4A S 0.63937(8) 0.33586(6) -0.43973(4)
loop_
_geom_bond_atom_site_label_1
_geom_bond_atom_site_label_2
_geom_bond_site_symmetry_1
_geom_bond_site_symmetry_2
Cd1 N1 1_555 1_555
S1 C7 1_555 1_555
S2 C20 1_555 1_555
S3 C27 1_555 1_555
S4 C28 1_555 1_555
O1 C6 1_555 1_555
O2 C19 1_555 1_555
N1 C1 1_555 1_555
N2 N3 1_555 1_555
N3 C7 1_555 1_555
N4 C9 1_555 1_555
N5 Cd1 1_555 1_555
N6 N7 1_555 1_555
N7 C20 1_555 1_555
N8 C22 1_555 1_555
N9 Cd1 1_555 1_555
N10 Cd1 1_555 1_555
C1 H1 1_555 1_555
C2 C1 1_555 1_555
H2 C2 1_555 1_555
C3 C2 1_555 1_555
C4 C3 1_555 1_555
H3 C4 1_555 1_555
C5 N1 1_555 1_555
H4 C5 1_555 1_555
C6 N2 1_555 1_555
C7 O1 1_555 1_555
C8 S1 1_555 1_555
H5 C8 1_555 1_555
H6 C8 1_555 1_555
C9 C8 1_555 1_555
C10 C9 1_555 1_555
H7 C10 1_555 1_555
C11 C10 1_555 1_555
H8 C11 1_555 1_555
C12 C11 1_555 1_555
H9 C12 1_555 1_555
C13 N4 1_555 1_555
H10 C13 1_555 1_555
C14 N5 1_555 1_555
H11 C14 1_555 1_555
C15 C14 1_555 1_555
H12 C15 1_555 1_555
C16 C15 1_555 1_555
C17 C16 1_555 1_555
H13 C17 1_555 1_555
C18 N5 1_555 1_555
H14 C18 1_555 1_555
C19 N6 1_555 1_555
C20 O2 1_555 1_555
C21 S2 1_555 1_555
H15 C21 1_555 1_555
H16 C21 1_555 1_555
C22 C21 1_555 1_555
C23 C22 1_555 1_555
H17 C23 1_555 1_555
C24 C23 1_555 1_555
H18 C24 1_555 1_555
C25 C24 1_555 1_555
H19 C25 1_555 1_555
C26 N8 1_555 1_555
H20 C26 1_555 1_555
C27 N9 1_555 1_555
C28 N10 1_555 1_555
Cd1A S3 1_555 1_555
Cd1A_2 S4 1_555 1_555
S3A Cd1 1_555 1_555
S4A Cd1 1_555 1_555
C3 C6 1_555 1_555
C4 C5 1_555 1_555
C12 C13 1_555 1_555
C16 C19 1_555 1_555
C17 C18 1_555 1_555
C25 C26 1_555 1_555

#END
