
#######################################################################
#
#                 Cambridge Crystallographic Data Centre
#                                CCDC 
#
#######################################################################
#
# If this CIF has been generated from an entry in the Cambridge 
# Structural Database, then it will include bibliographic, chemical, 
# crystal, experimental, refinement or atomic coordinate data resulting 
# from the CCDC's data processing and validation procedures.
#
#######################################################################

data_GIMLAP
_symmetry_cell_setting           monoclinic
_symmetry_space_group_name_H-M   'P 21/n'
_symmetry_Int_Tables_number      14
_space_group_name_Hall           '-P 2yn'
loop_
_symmetry_equiv_pos_site_id
_symmetry_equiv_pos_as_xyz
1 x,y,z
2 1/2-x,1/2+y,1/2-z
3 -x,-y,-z
4 1/2+x,1/2-y,1/2+z
_cell_length_a                   9.100(2)
_cell_length_b                   13.503(6)
_cell_length_c                   15.702(5)
_cell_angle_alpha                90
_cell_angle_beta                 100.12(2)
_cell_angle_gamma                90
_cell_volume                     1899.4
loop_
_atom_site_label
_atom_site_type_symbol
_atom_site_fract_x
_atom_site_fract_y
_atom_site_fract_z
Ag1 Ag -0.38154(5) 0.41173(4) -0.04444(3)
C1 C -0.5286(6) 0.1108(4) 0.2062(3)
C2 C -0.5638(6) 0.1159(4) 0.1153(3)
C3 C -0.4426(7) 0.1283(6) 0.0621(4)
C4 C -0.7142(6) 0.1112(4) 0.0768(3)
C5 C -0.8233(6) 0.0993(4) 0.1267(4)
Cl1 Cl -1.0113(2) 0.0956(1) 0.0766(1)
C6 C -0.7897(6) 0.0918(4) 0.2156(4)
C7 C -0.6399(6) 0.0967(4) 0.2548(4)
O1 O -0.3791(4) 0.1193(3) 0.2408(2)
C8 C -0.3416(6) 0.0976(4) 0.3308(3)
C9 C -0.1731(6) 0.1047(4) 0.3598(3)
O2 O -0.0856(4) 0.1350(3) 0.3128(3)
O3 O -0.1281(5) 0.0766(3) 0.4374(2)
Ag2 Ag -0.13704(6) 0.23303(4) 0.20051(3)
C10 C 0.2626(5) 0.3518(4) 0.1966(3)
C11 C 0.3723(6) 0.3670(4) 0.1477(3)
C12 C 0.1773(7) 0.3316(6) 0.3410(4)
C13 C 0.5220(6) 0.3756(4) 0.1869(4)
C14 C 0.5536(6) 0.3682(4) 0.2758(4)
Cl2 Cl 0.7426(2) 0.3796(2) 0.3265(1)
C15 C 0.4467(6) 0.3542(4) 0.3264(3)
C16 C 0.2963(6) 0.3452(4) 0.2866(3)
O4 O 0.1118(4) 0.3426(3) 0.1621(2)
C17 C 0.0732(6) 0.3604(4) 0.0713(3)
C18 C -0.0944(6) 0.3632(4) 0.0440(3)
O5 O -0.1828(4) 0.3376(3) 0.0929(3)
O6 O -0.1368(4) 0.3960(3) -0.0314(2)
H1 H -0.736 0.112 0.022
H2 H -0.876 0.078 0.252
H3 H -0.618 0.102 0.320
H4 H -0.478 0.157 0.007
H5 H -0.358 0.076 0.074
H6 H -0.399 0.153 0.369
H7 H 0.607 0.398 0.150
H8 H 0.467 0.342 0.386
H9 H 0.347 0.356 0.077
H10 H 0.092 0.388 0.326
H11 H 0.226 0.327 0.396
H12 H 0.137 0.306 0.041
H13 H 0.134 0.429 0.057
Ag1C Ag 0.11846(5) 0.08827(4) 0.45556(3)
O3C O -0.6281(5) 0.4234(3) -0.0626(2)
loop_
_geom_bond_atom_site_label_1
_geom_bond_atom_site_label_2
_geom_bond_site_symmetry_1
_geom_bond_site_symmetry_2
Ag1 O6 1_555 1_555
C1 C2 1_555 1_555
C2 C3 1_555 1_555
C3 H4 1_555 1_555
C4 C2 1_555 1_555
C5 C4 1_555 1_555
Cl1 C5 1_555 1_555
C6 C5 1_555 1_555
C7 C1 1_555 1_555
O1 C1 1_555 1_555
C8 O1 1_555 1_555
C9 C8 1_555 1_555
O2 C9 1_555 1_555
O3 C9 1_555 1_555
Ag2 O2 1_555 1_555
C10 C11 1_555 1_555
C11 C13 1_555 1_555
C12 C16 1_555 1_555
C13 C14 1_555 1_555
C14 Cl2 1_555 1_555
C15 C14 1_555 1_555
C16 C10 1_555 1_555
O4 C10 1_555 1_555
C17 O4 1_555 1_555
C18 C17 1_555 1_555
O5 Ag2 1_555 1_555
O6 C18 1_555 1_555
H1 C4 1_555 1_555
H2 C6 1_555 1_555
H3 C7 1_555 1_555
H5 C3 1_555 1_555
H6 C8 1_555 1_555
H7 C13 1_555 1_555
H8 C15 1_555 1_555
H9 C11 1_555 1_555
H10 C12 1_555 1_555
H11 C12 1_555 1_555
H12 C17 1_555 1_555
H13 C17 1_555 1_555
Ag1C O3 1_555 1_555
O3C Ag1 1_555 1_555
C6 C7 1_555 1_555
C15 C16 1_555 1_555
C18 O5 1_555 1_555

#END
