
#######################################################################
#
#                 Cambridge Crystallographic Data Centre
#                                CCDC 
#
#######################################################################
#
# If this CIF has been generated from an entry in the Cambridge 
# Structural Database, then it will include bibliographic, chemical, 
# crystal, experimental, refinement or atomic coordinate data resulting 
# from the CCDC's data processing and validation procedures.
#
#######################################################################

data_GIMMEV
_symmetry_cell_setting           triclinic
_symmetry_space_group_name_H-M   'P -1'
_symmetry_Int_Tables_number      2
_space_group_name_Hall           '-P 1'
loop_
_symmetry_equiv_pos_site_id
_symmetry_equiv_pos_as_xyz
1 x,y,z
2 -x,-y,-z
_cell_length_a                   9.816(2)
_cell_length_b                   10.026(3)
_cell_length_c                   11.090(2)
_cell_angle_alpha                87.53(3)
_cell_angle_beta                 75.49(2)
_cell_angle_gamma                76.41(3)
_cell_volume                     1026.89
loop_
_atom_site_label
_atom_site_type_symbol
_atom_site_fract_x
_atom_site_fract_y
_atom_site_fract_z
Se1 Se 0.34836(2) 0.48783(2) 0.639577(19)
V1 V 0.59671(4) 0.22075(4) 0.52822(4)
V2 V 0.12052(4) 0.52532(4) 0.91059(3)
O1 O 0.6138(2) 0.11717(18) 0.64349(17)
O2 O 0.45288(18) 0.20010(18) 0.49037(16)
O3 O 0.52610(17) 0.39875(17) 0.61313(15)
O4 O 0.36319(18) 0.64661(16) 0.65168(15)
O5 O 0.29475(17) 0.43883(17) 0.79379(15)
O6 O 0.01439(17) 0.40655(16) 0.92701(15)
O7 O 0.06057(18) 0.64205(19) 0.82039(16)
N1 N 0.8212(2) 0.2563(2) 0.5106(2)
N2 N 0.7443(2) 0.0766(2) 0.39155(18)
N3 N 0.2467(2) 0.3988(2) 1.04116(18)
N4 N 0.2426(2) 0.6546(2) 0.97566(18)
C1 C 0.8514(3) 0.3473(3) 0.5790(3)
H1 H 0.7750 0.4078 0.6313
C2 C 0.9910(3) 0.3552(3) 0.5751(3)
H2 H 1.0083 0.4205 0.6230
C3 C 1.1040(3) 0.2645(3) 0.4990(3)
H3 H 1.1991 0.2670 0.4953
C4 C 1.0746(3) 0.1695(3) 0.4281(3)
H4 H 1.1497 0.1069 0.3767
C5 C 0.9314(3) 0.1688(2) 0.4347(2)
C6 C 0.8878(3) 0.0716(2) 0.3638(2)
C7 C 0.9847(3) -0.0211(3) 0.2757(3)
H5 H 1.0826 -0.0216 0.2553
C8 C 0.9346(4) -0.1130(3) 0.2183(3)
H6 H 0.9985 -0.1762 0.1594
C9 C 0.7897(3) -0.1097(3) 0.2494(3)
H7 H 0.7543 -0.1719 0.2131
C10 C 0.6965(3) -0.0125(2) 0.3355(2)
H8 H 0.5979 -0.0091 0.3550
C11 C 0.2456(3) 0.2680(3) 1.0684(2)
H9 H 0.1960 0.2233 1.0283
C12 C 0.3147(3) 0.1965(3) 1.1531(3)
H10 H 0.3124 0.1052 1.1693
C13 C 0.3876(3) 0.2626(3) 1.2139(3)
H11 H 0.4339 0.2170 1.2727
C14 C 0.3906(3) 0.3976(3) 1.1859(2)
H12 H 0.4401 0.4440 1.2246
C15 C 0.3186(2) 0.4630(2) 1.0992(2)
C16 C 0.3146(2) 0.6075(2) 1.0632(2)
C17 C 0.3818(3) 0.6896(3) 1.1156(2)
H13 H 0.4318 0.6549 1.1754
C18 C 0.3728(3) 0.8238(3) 1.0769(3)
H14 H 0.4154 0.8811 1.1115
C19 C 0.2998(3) 0.8718(3) 0.9864(3)
H15 H 0.2931 0.9615 0.9588
C20 C 0.2369(3) 0.7840(3) 0.9376(2)
H16 H 0.1888 0.8160 0.8760
Se1A Se 0.65164(2) 0.51217(2) 0.360423(19)
V1A V 0.40329(4) 0.77925(4) 0.47178(4)
V2A V -0.12052(4) 0.47468(4) 1.08941(3)
V2A_2 V 0.87948(4) 0.47468(4) 0.08941(3)
O1A O 0.3862(2) 0.88283(18) 0.35651(17)
O2A O 0.54712(18) 0.79990(18) 0.50963(16)
O3A O 0.47390(17) 0.60125(17) 0.38687(15)
O4A O 0.63681(18) 0.35339(16) 0.34832(15)
O5A O -0.29475(17) 0.56117(17) 1.20621(15)
O5A_2 O 0.70525(17) 0.56117(17) 0.20621(15)
O6A O -0.01439(17) 0.59345(16) 1.07299(15)
O7A O -0.06057(18) 0.35795(19) 1.17961(16)
N1A N 0.1788(2) 0.7437(2) 0.4894(2)
N2A N 0.2557(2) 0.9234(2) 0.60845(18)
N3A N -0.2467(2) 0.6012(2) 0.95884(18)
N4A N -0.2426(2) 0.3454(2) 1.02434(18)
C1A C 0.1486(3) 0.6527(3) 0.4210(3)
H1A H 0.2250 0.5922 0.3687
C2A C 0.0090(3) 0.6448(3) 0.4249(3)
H2A H -0.0083 0.5795 0.3770
C3A C -0.1040(3) 0.7355(3) 0.5010(3)
H3A H -0.1991 0.7330 0.5047
C4A C -0.0746(3) 0.8305(3) 0.5719(3)
H4A H -0.1497 0.8931 0.6233
C5A C 0.0686(3) 0.8312(2) 0.5653(2)
C6A C 0.1122(3) 0.9284(2) 0.6362(2)
C7A C 0.0153(3) 1.0211(3) 0.7243(3)
H5A H -0.0826 1.0216 0.7447
C8A C 0.0654(4) 1.1130(3) 0.7817(3)
H6A H 0.0015 1.1762 0.8406
C9A C 0.2103(3) 1.1097(3) 0.7506(3)
H7A H 0.2457 1.1719 0.7869
C10A C 0.3035(3) 1.0125(2) 0.6645(2)
H8A H 0.4021 1.0091 0.6450
C11A C -0.2456(3) 0.7320(3) 0.9316(2)
H9A H -0.1960 0.7767 0.9717
C12A C -0.3147(3) 0.8035(3) 0.8469(3)
H10A H -0.3124 0.8948 0.8307
C13A C -0.3876(3) 0.7374(3) 0.7861(3)
H11A H -0.4339 0.7830 0.7273
C14A C -0.3906(3) 0.6024(3) 0.8141(2)
H12A H -0.4401 0.5560 0.7754
C15A C -0.3186(2) 0.5370(2) 0.9008(2)
C16A C -0.3146(2) 0.3925(2) 0.9368(2)
C17A C -0.3818(3) 0.3104(3) 0.8844(2)
H13A H -0.4318 0.3451 0.8246
C18A C -0.3728(3) 0.1762(3) 0.9231(3)
H14A H -0.4154 0.1189 0.8885
C19A C -0.2998(3) 0.1282(3) 1.0136(3)
H15A H -0.2931 0.0385 1.0412
C20A C -0.2369(3) 0.2160(3) 1.0624(2)
H16A H -0.1888 0.1840 1.1240
loop_
_geom_bond_atom_site_label_1
_geom_bond_atom_site_label_2
_geom_bond_site_symmetry_1
_geom_bond_site_symmetry_2
Se1 O3 1_555 1_555
V1 O1 1_555 1_555
V2 O5 1_555 1_555
O2 V1 1_555 1_555
O3 V1 1_555 1_555
O4 Se1 1_555 1_555
O5 Se1 1_555 1_555
O6 V2 1_555 1_555
O7 V2 1_555 1_555
N1 V1 1_555 1_555
N2 V1 1_555 1_555
N3 V2 1_555 1_555
N4 V2 1_555 1_555
C1 N1 1_555 1_555
H1 C1 1_555 1_555
C2 C1 1_555 1_555
H2 C2 1_555 1_555
C3 C2 1_555 1_555
H3 C3 1_555 1_555
C4 C3 1_555 1_555
H4 C4 1_555 1_555
C5 N1 1_555 1_555
C6 N2 1_555 1_555
C7 C6 1_555 1_555
H5 C7 1_555 1_555
C8 C7 1_555 1_555
H6 C8 1_555 1_555
C9 C8 1_555 1_555
H7 C9 1_555 1_555
C10 N2 1_555 1_555
H8 C10 1_555 1_555
C11 N3 1_555 1_555
H9 C11 1_555 1_555
C12 C11 1_555 1_555
H10 C12 1_555 1_555
C13 C12 1_555 1_555
H11 C13 1_555 1_555
C14 C13 1_555 1_555
H12 C14 1_555 1_555
C15 N3 1_555 1_555
C16 N4 1_555 1_555
C17 C16 1_555 1_555
H13 C17 1_555 1_555
C18 C17 1_555 1_555
H14 C18 1_555 1_555
C19 C18 1_555 1_555
H15 C19 1_555 1_555
C20 N4 1_555 1_555
H16 C20 1_555 1_555
Se1A O3A 1_555 1_555
V1A O4 1_555 1_555
V2A O6 1_555 1_555
V2A_2 O5A_2 1_555 1_555
O1A V1A 1_555 1_555
O2A V1A 1_555 1_555
O3A V1A 1_555 1_555
O4A V1 1_555 1_555
O5A V2A 1_555 1_555
O5A_2 Se1A 1_555 1_555
O6A V2 1_555 1_555
O7A V2A 1_555 1_555
N1A V1A 1_555 1_555
N2A V1A 1_555 1_555
N3A V2A 1_555 1_555
N4A V2A 1_555 1_555
C1A N1A 1_555 1_555
H1A C1A 1_555 1_555
C2A C1A 1_555 1_555
H2A C2A 1_555 1_555
C3A C2A 1_555 1_555
H3A C3A 1_555 1_555
C4A C3A 1_555 1_555
H4A C4A 1_555 1_555
C5A N1A 1_555 1_555
C6A N2A 1_555 1_555
C7A C6A 1_555 1_555
H5A C7A 1_555 1_555
C8A C7A 1_555 1_555
H6A C8A 1_555 1_555
C9A C8A 1_555 1_555
H7A C9A 1_555 1_555
C10A N2A 1_555 1_555
H8A C10A 1_555 1_555
C11A N3A 1_555 1_555
H9A C11A 1_555 1_555
C12A C11A 1_555 1_555
H10A C12A 1_555 1_555
C13A C12A 1_555 1_555
H11A C13A 1_555 1_555
C14A C13A 1_555 1_555
H12A C14A 1_555 1_555
C15A N3A 1_555 1_555
C16A N4A 1_555 1_555
C17A C16A 1_555 1_555
H13A C17A 1_555 1_555
C18A C17A 1_555 1_555
H14A C18A 1_555 1_555
C19A C18A 1_555 1_555
H15A C19A 1_555 1_555
C20A N4A 1_555 1_555
H16A C20A 1_555 1_555
C4 C5 1_555 1_555
C5 C6 1_555 1_555
C9 C10 1_555 1_555
C14 C15 1_555 1_555
C15 C16 1_555 1_555
C19 C20 1_555 1_555
Se1A O4A 1_555 1_555
V2A O6A 1_555 1_555
C4A C5A 1_555 1_555
C5A C6A 1_555 1_555
C9A C10A 1_555 1_555
C14A C15A 1_555 1_555
C15A C16A 1_555 1_555
C19A C20A 1_555 1_555

#END
