
#######################################################################
#
#                 Cambridge Crystallographic Data Centre
#                                CCDC 
#
#######################################################################
#
# If this CIF has been generated from an entry in the Cambridge 
# Structural Database, then it will include bibliographic, chemical, 
# crystal, experimental, refinement or atomic coordinate data resulting 
# from the CCDC's data processing and validation procedures.
#
#######################################################################

data_GIMNAS
_symmetry_cell_setting           monoclinic
_symmetry_space_group_name_H-M   'P 21/n'
_symmetry_Int_Tables_number      14
_space_group_name_Hall           '-P 2yn'
loop_
_symmetry_equiv_pos_site_id
_symmetry_equiv_pos_as_xyz
1 x,y,z
2 1/2-x,1/2+y,1/2-z
3 -x,-y,-z
4 1/2+x,1/2-y,1/2+z
_cell_length_a                   14.040(3)
_cell_length_b                   19.903(4)
_cell_length_c                   17.721(4)
_cell_angle_alpha                90
_cell_angle_beta                 113.19(3)
_cell_angle_gamma                90
_cell_volume                     4551.83
loop_
_atom_site_label
_atom_site_type_symbol
_atom_site_fract_x
_atom_site_fract_y
_atom_site_fract_z
Ba1 Ba 0.41960(3) 0.467956(17) 0.30949(2)
Ba2 Ba 0.29624(3) 0.271290(16) 0.002437(19)
Ba3 Ba 0.16700(3) 0.608570(17) 0.326100(19)
Ba4 Ba 0.54205(2) 0.280167(16) 0.259917(19)
Ba5 Ba 0.24320(2) 0.565510(16) 0.588810(19)
Ba6 Ba 0.78217(2) 0.588390(17) 0.22933(2)
O1 O 0.3258(3) 0.6028(2) 0.2779(3)
O2 O 0.4270(3) 0.5761(2) 0.2141(3)
C1 C 0.3576(5) 0.6108(3) 0.2222(4)
C2 C 0.3080(7) 0.6654(4) 0.1585(5)
H1 H 0.2449 0.6803 0.1622
H2 H 0.2930 0.6478 0.1046
H3 H 0.3549 0.7027 0.1685
O3 O 0.2840(4) 0.4859(2) 0.3855(3)
O4 O 0.1676(3) 0.4978(2) 0.4380(2)
C3 C 0.2186(5) 0.4621(3) 0.4096(3)
C4 C 0.2007(6) 0.3875(3) 0.4028(5)
H4 H 0.2661 0.3647 0.4211
H5 H 0.1602 0.3759 0.3467
H6 H 0.1644 0.3744 0.4364
O5 O -0.0485(4) 0.3271(3) -0.1874(3)
O6 O 0.0943(4) 0.2917(3) -0.0908(3)
C5 C 0.0166(5) 0.3289(3) -0.1157(4)
C6 C -0.0034(6) 0.3736(4) -0.0548(4)
H7 H 0.0614 0.3880 -0.0135
H8 H -0.0425 0.4122 -0.0827
H9 H -0.0419 0.3492 -0.0295
O7 O 0.5750(3) 0.4184(2) 0.2540(2)
O8 O 0.7057(3) 0.4608(2) 0.2307(3)
C7 C 0.6121(5) 0.4469(3) 0.2082(3)
C8 C 0.5377(6) 0.4648(3) 0.1221(4)
H10 H 0.4721 0.4774 0.1227
H11 H 0.5653 0.5016 0.1021
H12 H 0.5286 0.4266 0.0867
O9 O 0.6032(3) 0.5375(2) 0.3979(3)
O10 O 0.7237(3) 0.5661(2) 0.3545(2)
C9 C 0.6496(5) 0.5807(3) 0.3733(3)
C10 C 0.6179(6) 0.6538(3) 0.3674(4)
H13 H 0.5441 0.6568 0.3504
H14 H 0.6514 0.6748 0.4201
H15 H 0.6380 0.6762 0.3280
O11 O 0.2352(3) 0.2755(2) -0.2284(3)
O12 O 0.2609(3) 0.1935(2) -0.1406(2)
C11 C 0.2853(4) 0.2257(3) -0.1910(3)
C12 C 0.3785(5) 0.2032(4) -0.2067(4)
H16 H 0.4180 0.2418 -0.2097
H17 H 0.4209 0.1745 -0.1628
H18 H 0.3560 0.1791 -0.2577
O13 O 0.2631(4) 0.3971(2) 0.0529(3)
O14 O 0.2691(4) 0.4012(2) -0.0689(3)
C13 C 0.2633(5) 0.4298(3) -0.0081(4)
C14 C 0.2565(7) 0.5050(3) -0.0078(5)
H19 H 0.1965 0.5182 0.0018
H20 H 0.2513 0.5223 -0.0599
H21 H 0.3176 0.5228 0.0350
O15 O 0.3580(3) 0.3354(2) 0.2557(3)
O16 O 0.3283(3) 0.2543(2) 0.1638(2)
C15 C 0.2989(4) 0.2961(3) 0.2038(3)
C16 C 0.1850(5) 0.2988(4) 0.1854(5)
H22 H 0.1492 0.3196 0.1328
H23 H 0.1739 0.3246 0.2270
H24 H 0.1592 0.2541 0.1845
O17 O 0.0809(4) 0.5041(3) 0.2172(4)
O18 O -0.0612(4) 0.5072(3) 0.2377(4)
C17 C -0.0040(5) 0.4807(3) 0.2085(4)
C18 C -0.0351(6) 0.4163(4) 0.1643(6)
H25 H -0.0250 0.4185 0.1138
H26 H -0.1069 0.4078 0.1525
H27 H 0.0063 0.3806 0.1977
O19 O 0.5313(3) 0.1479(2) 0.1672(2)
O20 O 0.3988(3) 0.1464(2) 0.0469(2)
C19 C 0.4943(4) 0.1462(3) 0.0894(3)
C20 C 0.5669(5) 0.1434(4) 0.0460(4)
H28 H 0.5354 0.1649 -0.0065
H29 H 0.5816 0.0973 0.0384
H30 H 0.6303 0.1660 0.0783
O21 O 0.4705(4) 0.2987(3) -0.0308(3)
O22 O 0.5107(3) 0.2971(2) 0.1024(2)
C21 C 0.5350(5) 0.3043(3) 0.0414(4)
C22 C 0.6452(6) 0.3200(4) 0.0566(5)
H31 H 0.6902 0.3004 0.1077
H32 H 0.6549 0.3678 0.0589
H33 H 0.6614 0.3019 0.0128
O23 O 0.5663(3) 0.3721(2) 0.3988(2)
O24 O 0.6865(3) 0.3472(2) 0.5186(2)
C23 C 0.5932(4) 0.3506(3) 0.4705(4)
C24 C 0.5114(6) 0.3284(5) 0.5005(5)
H34 H 0.4472 0.3211 0.4544
H35 H 0.5330 0.2875 0.5312
H36 H 0.5020 0.3627 0.5351
O25 O 0.5783(3) 0.6232(3) 0.1677(3)
H37 H 0.530(3) 0.612(4) 0.183(3)
H38 H 0.555(4) 0.635(4) 0.1178(15)
O26 O 0.0605(4) 0.5299(3) 0.6132(3)
H39 H -0.0026(17) 0.527(4) 0.581(3)
H40 H 0.069(5) 0.528(4) 0.6631(11)
O27 O 0.2406(4) 0.4713(3) 0.1754(3)
H41 H 0.241(5) 0.446(4) 0.137(4)
H42 H 0.180(3) 0.475(4) 0.175(5)
O28 O 0.4909(15) 0.4867(11) 0.4863(10)
H43 H 0.556(3) 0.483(10) 0.515(9)
H44 H 0.457(11) 0.474(10) 0.514(8)
Ba1B Ba 0.58040(3) 0.532044(17) 0.69051(2)
Ba1C Ba -0.08040(3) 0.032044(17) -0.19051(2)
Ba1A Ba 0.08040(3) 0.967956(17) 0.19051(2)
Ba2C Ba 0.79624(3) 0.228710(16) 0.502437(19)
Ba2B Ba -0.29624(3) 0.728710(16) -0.002437(19)
Ba2A Ba 0.20376(3) 0.771290(16) 0.497563(19)
Ba2B_2 Ba 0.70376(3) 0.728710(16) -0.002437(19)
Ba3A Ba 0.33300(3) 0.108570(17) 0.173900(19)
Ba3B Ba -0.16700(3) 0.391430(17) -0.326100(19)
Ba3B_2 Ba 0.83300(3) 0.391430(17) 0.673900(19)
Ba3_2 Ba 1.16700(3) 0.608570(17) 0.326100(19)
Ba4C Ba 0.04205(2) 0.219833(16) -0.240083(19)
Ba4A Ba -0.04205(2) 0.780167(16) 0.240083(19)
Ba4B Ba 0.45795(2) 0.719833(16) 0.740083(19)
Ba4C_2 Ba 1.04205(2) 0.219833(16) 0.759917(19)
Ba5B Ba 0.75680(2) 0.434490(16) 0.411190(19)
Ba5A Ba 0.25680(2) 0.065510(16) -0.088810(19)
Ba6B Ba 0.21783(2) 0.411610(17) 0.77067(2)
Ba6B_2 Ba 0.21783(2) 0.411610(17) -0.22933(2)
Ba6_2 Ba -0.21783(2) 0.588390(17) 0.22933(2)
Ba6A Ba 0.71783(2) 0.088390(17) 0.27067(2)
O1B O 0.6742(3) 0.3972(2) 0.7221(3)
O1A O 0.1742(3) 0.1028(2) 0.2221(3)
O2B O 0.5730(3) 0.4239(2) 0.7859(3)
C1B C 0.6424(5) 0.3892(3) 0.7778(4)
C2B C 0.6920(7) 0.3346(4) 0.8415(5)
H1B H 0.7551 0.3197 0.8378
H2B H 0.7070 0.3522 0.8954
H3B H 0.6451 0.2973 0.8315
O3B O 0.7160(4) 0.5141(2) 0.6145(3)
O3A O 0.2160(4) -0.0141(2) 0.1145(3)
O4B O 0.8324(3) 0.5022(2) 0.5620(2)
O4A O 0.3324(3) -0.0022(2) 0.0620(2)
C3B C 0.7814(5) 0.5379(3) 0.5904(3)
C4B C 0.7993(6) 0.6125(3) 0.5972(5)
H4B H 0.7339 0.6353 0.5789
H5B H 0.8398 0.6241 0.6533
H6B H 0.8356 0.6256 0.5636
O5B O 0.0485(4) 0.6729(3) 0.1874(3)
O5C O 0.4515(4) 0.1729(3) 0.3126(3)
O6B O -0.0943(4) 0.7083(3) 0.0908(3)
O6C O 0.5943(4) 0.2083(3) 0.4092(3)
C5B C -0.0166(5) 0.6711(3) 0.1157(4)
C6B C 0.0034(6) 0.6264(4) 0.0548(4)
H7B H -0.0614 0.6120 0.0135
H8B H 0.0425 0.5878 0.0827
H9B H 0.0419 0.6508 0.0295
O7B O 0.4250(3) 0.5816(2) 0.7460(2)
O7C O 0.0750(3) 0.0816(2) -0.2460(2)
O8B O 0.2943(3) 0.5392(2) 0.7693(3)
C7B C 0.3879(5) 0.5531(3) 0.7918(3)
C8B C 0.4623(6) 0.5352(3) 0.8779(4)
H10B H 0.5279 0.5226 0.8773
H11B H 0.4347 0.4984 0.8979
H12B H 0.4714 0.5734 0.9133
O9B O 0.3968(3) 0.4625(2) 0.6021(3)
O10B O 0.2763(3) 0.4339(2) 0.6455(2)
C9B C 0.3504(5) 0.4193(3) 0.6267(3)
C10B C 0.3821(6) 0.3462(3) 0.6326(4)
H13B H 0.4559 0.3432 0.6496
H14B H 0.3486 0.3252 0.5799
H15B H 0.3620 0.3238 0.6720
O11C O 0.7352(3) 0.2245(2) 0.2716(3)
O11B O 0.7648(3) 0.7245(2) 0.2284(3)
O11_2 O 0.2352(3) 0.2755(2) 0.7716(3)
O12C O 0.7609(3) 0.3065(2) 0.3594(2)
O12A O 0.2391(3) 0.6935(2) 0.6406(2)
C11C C 0.7853(4) 0.2743(3) 0.3090(3)
C12C C 0.8785(5) 0.2968(4) 0.2933(4)
H16C H 0.9180 0.2582 0.2903
H17C H 0.9209 0.3255 0.3372
H18C H 0.8560 0.3209 0.2423
O13B O 0.7369(4) 0.6029(2) -0.0529(3)
O13C O 0.7631(4) 0.1029(2) 0.5529(3)
O14B O 0.7309(4) 0.5988(2) 0.0689(3)
O14C O 0.7691(4) 0.0988(2) 0.4311(3)
O14_2 O 0.2691(4) 0.4012(2) 0.9311(3)
C13B C 0.7367(5) 0.5702(3) 0.0081(4)
C14B C 0.7435(7) 0.4950(3) 0.0078(5)
H19B H 0.8035 0.4818 -0.0018
H20B H 0.7487 0.4777 0.0599
H21B H 0.6824 0.4772 -0.0350
O15A O 0.1420(3) 0.8354(2) 0.2443(3)
O15B O 0.6420(3) 0.6646(2) 0.7443(3)
O15C O -0.1420(3) 0.1646(2) -0.2443(3)
O16A O 0.1717(3) 0.7543(2) 0.3362(2)
O16C O 0.8283(3) 0.2457(2) 0.6638(2)
O16C_2 O -0.1717(3) 0.2457(2) -0.3362(2)
C15A C 0.2011(4) 0.7961(3) 0.2962(3)
C16A C 0.3150(5) 0.7988(4) 0.3146(5)
H22A H 0.3508 0.8196 0.3672
H23A H 0.3261 0.8246 0.2730
H24A H 0.3408 0.7541 0.3155
O17_2 O 1.0809(4) 0.5041(3) 0.2172(4)
O17A O 0.4191(4) 0.0041(3) 0.2828(4)
O18_2 O 0.9388(4) 0.5072(3) 0.2377(4)
O18B O 0.0612(4) 0.4928(3) 0.7623(4)
C17_2 C 0.9960(5) 0.4807(3) 0.2085(4)
C18_2 C 0.9649(6) 0.4163(4) 0.1643(6)
H25_2 H 0.9750 0.4185 0.1138
H26_2 H 0.8931 0.4078 0.1525
H27_2 H 1.0063 0.3806 0.1977
O19A O -0.0313(3) 0.6479(2) 0.3328(2)
O19A_2 O 0.9687(3) 0.6479(2) 0.3328(2)
O19C O 0.0313(3) 0.3521(2) -0.3328(2)
O19C_2 O 0.0313(3) 0.3521(2) 0.6672(2)
O20A O 0.1012(3) 0.6464(2) 0.4531(2)
O20C O 0.8988(3) 0.3536(2) 0.5469(2)
C19A C 0.0057(4) 0.6462(3) 0.4106(3)
C20A C -0.0669(5) 0.6434(4) 0.4540(4)
H28A H -0.0354 0.6649 0.5065
H29A H -0.0816 0.5973 0.4616
H30A H -0.1303 0.6660 0.4217
O21C O 0.9705(4) 0.2013(3) 0.4692(3)
O22C O 1.0107(3) 0.2029(2) 0.6024(2)
O22C_2 O 0.0107(3) 0.2029(2) -0.3976(2)
C21C C 1.0350(5) 0.1957(3) 0.5414(4)
C22C C 1.1452(6) 0.1800(4) 0.5566(5)
H31C H 1.1902 0.1996 0.6077
H32C H 1.1549 0.1322 0.5589
H33C H 1.1614 0.1981 0.5128
O23C O 0.0663(3) 0.1279(2) -0.1012(2)
O23B O 0.4337(3) 0.6279(2) 0.6012(2)
O24C O 0.1865(3) 0.1528(2) 0.0186(2)
O24B O 0.3135(3) 0.6528(2) 0.4814(2)
C23C C 0.0932(4) 0.1494(3) -0.0295(4)
C24C C 0.0114(6) 0.1716(5) 0.0005(5)
H34C H -0.0528 0.1789 -0.0456
H35C H 0.0330 0.2125 0.0312
H36C H 0.0020 0.1373 0.0351
O25B O 0.4217(3) 0.3768(3) 0.8323(3)
H37B H 0.470(3) 0.388(4) 0.817(3)
H38B H 0.445(4) 0.365(4) 0.8822(15)
O26B O 0.9395(4) 0.4701(3) 0.3868(3)
H39B H 1.0026(17) 0.473(4) 0.419(3)
H40B H 0.931(5) 0.472(4) 0.3369(11)
O27B O 0.7594(4) 0.5287(3) 0.8246(3)
H41B H 0.759(5) 0.554(4) 0.863(4)
H42B H 0.820(3) 0.525(4) 0.825(5)
O28B O 0.5091(15) 0.5133(11) 0.5137(10)
H43B H 0.444(3) 0.517(10) 0.485(9)
H44B H 0.543(11) 0.526(10) 0.486(8)
loop_
_geom_bond_atom_site_label_1
_geom_bond_atom_site_label_2
_geom_bond_site_symmetry_1
_geom_bond_site_symmetry_2
Ba1 O1 1_555 1_555
Ba2 O6 1_555 1_555
Ba3 O1 1_555 1_555
Ba4 O7 1_555 1_555
Ba5 O4 1_555 1_555
Ba6 O8 1_555 1_555
O1 C1 1_555 1_555
O2 Ba1 1_555 1_555
C1 O2 1_555 1_555
C2 C1 1_555 1_555
H1 C2 1_555 1_555
H2 C2 1_555 1_555
H3 C2 1_555 1_555
O3 Ba1 1_555 1_555
O4 Ba3 1_555 1_555
C3 O3 1_555 1_555
C4 C3 1_555 1_555
H4 C4 1_555 1_555
H5 C4 1_555 1_555
H6 C4 1_555 1_555
O5 C5 1_555 1_555
O6 C5 1_555 1_555
C5 C6 1_555 1_555
C6 H7 1_555 1_555
H8 C6 1_555 1_555
H9 C6 1_555 1_555
O7 Ba1 1_555 1_555
O8 C7 1_555 1_555
C7 O7 1_555 1_555
C8 C7 1_555 1_555
H10 C8 1_555 1_555
H11 C8 1_555 1_555
H12 C8 1_555 1_555
O9 Ba1 1_555 1_555
O10 Ba6 1_555 1_555
C9 O9 1_555 1_555
C10 C9 1_555 1_555
H13 C10 1_555 1_555
H14 C10 1_555 1_555
H15 C10 1_555 1_555
O11 C11 1_555 1_555
O12 Ba2 1_555 1_555
C11 O12 1_555 1_555
C12 C11 1_555 1_555
H16 C12 1_555 1_555
H17 C12 1_555 1_555
H18 C12 1_555 1_555
O13 Ba2 1_555 1_555
O14 Ba2 1_555 1_555
C13 O13 1_555 1_555
C14 C13 1_555 1_555
H19 C14 1_555 1_555
H20 C14 1_555 1_555
H21 C14 1_555 1_555
O15 Ba1 1_555 1_555
O16 Ba2 1_555 1_555
C15 O15 1_555 1_555
C16 C15 1_555 1_555
H22 C16 1_555 1_555
H23 C16 1_555 1_555
H24 C16 1_555 1_555
O17 Ba3 1_555 1_555
O18 C17 1_555 1_555
C17 O17 1_555 1_555
C18 C17 1_555 1_555
H25 C18 1_555 1_555
H26 C18 1_555 1_555
H27 C18 1_555 1_555
O19 Ba4 1_555 1_555
O20 Ba2 1_555 1_555
C19 O19 1_555 1_555
C20 C19 1_555 1_555
H28 C20 1_555 1_555
H29 C20 1_555 1_555
H30 C20 1_555 1_555
O21 Ba2 1_555 1_555
O22 Ba2 1_555 1_555
C21 O21 1_555 1_555
C22 C21 1_555 1_555
H31 C22 1_555 1_555
H32 C22 1_555 1_555
H33 C22 1_555 1_555
O23 Ba1 1_555 1_555
O24 C23 1_555 1_555
C23 O23 1_555 1_555
C24 C23 1_555 1_555
H34 C24 1_555 1_555
H35 C24 1_555 1_555
H36 C24 1_555 1_555
O25 Ba6 1_555 1_555
H37 O25 1_555 1_555
H38 O25 1_555 1_555
O26 Ba5 1_555 1_555
H39 O26 1_555 1_555
H40 O26 1_555 1_555
O27 Ba1 1_555 1_555
H41 O27 1_555 1_555
H42 O27 1_555 1_555
O28 Ba1 1_555 1_555
H43 O28 1_555 1_555
H44 O28 1_555 1_555
Ba1B O1B 1_555 1_555
Ba1C O7C 1_555 1_555
Ba1A O15A 1_555 1_555
Ba2C O24 1_555 1_555
Ba2B O6B 1_555 1_555
Ba2A O12A 1_555 1_555
Ba2B_2 O13B 1_555 1_555
Ba3A O16 1_555 1_555
Ba3B O5 1_555 1_555
Ba3B_2 O24 1_555 1_555
Ba3_2 O17_2 1_555 1_555
Ba4C O5 1_555 1_555
Ba4A O5B 1_555 1_555
Ba4B O7B 1_555 1_555
Ba4C_2 O16C 1_555 1_555
Ba5B O7 1_555 1_555
Ba5A O12 1_555 1_555
Ba6B O8B 1_555 1_555
Ba6B_2 O11 1_555 1_555
Ba6_2 O18 1_555 1_555
Ba6A O19 1_555 1_555
O1B Ba3B_2 1_555 1_555
O1A Ba3A 1_555 1_555
O2B Ba1B 1_555 1_555
C1B O1B 1_555 1_555
C2B C1B 1_555 1_555
H1B C2B 1_555 1_555
H2B C2B 1_555 1_555
H3B C2B 1_555 1_555
O3B Ba1B 1_555 1_555
O3A Ba3A 1_555 1_555
O4B Ba3B_2 1_555 1_555
O4A Ba3A 1_555 1_555
C3B O3B 1_555 1_555
C4B C3B 1_555 1_555
H4B C4B 1_555 1_555
H5B C4B 1_555 1_555
H6B C4B 1_555 1_555
O5B Ba3 1_555 1_555
O5C Ba4 1_555 1_555
O6B Ba4A 1_555 1_555
O6C Ba4 1_555 1_555
C5B O5B 1_555 1_555
C6B C5B 1_555 1_555
H7B C6B 1_555 1_555
H8B C6B 1_555 1_555
H9B C6B 1_555 1_555
O7B Ba5 1_555 1_555
O7C Ba4C 1_555 1_555
O8B Ba5 1_555 1_555
C7B O7B 1_555 1_555
C8B C7B 1_555 1_555
H10B C8B 1_555 1_555
H11B C8B 1_555 1_555
H12B C8B 1_555 1_555
O9B Ba5 1_555 1_555
O10B Ba5 1_555 1_555
C9B O9B 1_555 1_555
C10B C9B 1_555 1_555
H13B C10B 1_555 1_555
H14B C10B 1_555 1_555
H15B C10B 1_555 1_555
O11C Ba4 1_555 1_555
O11B Ba6 1_555 1_555
O11_2 Ba6B 1_555 1_555
O12C Ba4 1_555 1_555
O12A Ba5 1_555 1_555
C11C O11C 1_555 1_555
C12C C11C 1_555 1_555
H16C C12C 1_555 1_555
H17C C12C 1_555 1_555
H18C C12C 1_555 1_555
O13B C13B 1_555 1_555
O13C Ba2C 1_555 1_555
O14B Ba6 1_555 1_555
O14C Ba2C 1_555 1_555
O14_2 Ba6B 1_555 1_555
C13B O14B 1_555 1_555
C14B C13B 1_555 1_555
H19B C14B 1_555 1_555
H20B C14B 1_555 1_555
H21B C14B 1_555 1_555
O15A Ba4A 1_555 1_555
O15B Ba1B 1_555 1_555
O15C Ba1C 1_555 1_555
O16A Ba3 1_555 1_555
O16C Ba2C 1_555 1_555
O16C_2 Ba3B 1_555 1_555
C15A O15A 1_555 1_555
C16A C15A 1_555 1_555
H22A C16A 1_555 1_555
H23A C16A 1_555 1_555
H24A C16A 1_555 1_555
O17_2 C17_2 1_555 1_555
O17A Ba3A 1_555 1_555
O18_2 Ba6 1_555 1_555
O18B Ba6B 1_555 1_555
C17_2 O18_2 1_555 1_555
C18_2 C17_2 1_555 1_555
H25_2 C18_2 1_555 1_555
H26_2 C18_2 1_555 1_555
H27_2 C18_2 1_555 1_555
O19A Ba3 1_555 1_555
O19A_2 Ba6 1_555 1_555
O19C Ba3B 1_555 1_555
O19C_2 Ba6B 1_555 1_555
O20A Ba3 1_555 1_555
O20C Ba2C 1_555 1_555
C19A O19A 1_555 1_555
C20A C19A 1_555 1_555
H28A C20A 1_555 1_555
H29A C20A 1_555 1_555
H30A C20A 1_555 1_555
O21C Ba2C 1_555 1_555
O22C Ba2C 1_555 1_555
O22C_2 Ba4C 1_555 1_555
C21C O21C 1_555 1_555
C22C C21C 1_555 1_555
H31C C22C 1_555 1_555
H32C C22C 1_555 1_555
H33C C22C 1_555 1_555
O23C Ba1C 1_555 1_555
O23B Ba5 1_555 1_555
O24C Ba2 1_555 1_555
O24B Ba3 1_555 1_555
C23C O23C 1_555 1_555
C24C C23C 1_555 1_555
H34C C24C 1_555 1_555
H35C C24C 1_555 1_555
H36C C24C 1_555 1_555
O25B Ba6B 1_555 1_555
H37B O25B 1_555 1_555
H38B O25B 1_555 1_555
O26B Ba5B 1_555 1_555
H39B O26B 1_555 1_555
H40B O26B 1_555 1_555
O27B Ba1B 1_555 1_555
H41B O27B 1_555 1_555
H42B O27B 1_555 1_555
O28B O28 1_555 1_555
H43B O28 1_555 1_555
H44B O28 1_555 1_555
Ba3 O3 1_555 1_555
Ba4 O15 1_555 1_555
Ba4 O16 1_555 1_555
Ba4 O22 1_555 1_555
Ba4 O23 1_555 1_555
Ba5 O20A 1_555 1_555
Ba5 O24B 1_555 1_555
O4 C3 1_555 1_555
O6 Ba4C 1_555 1_555
O8 Ba5B 1_555 1_555
O9 Ba5B 1_555 1_555
O10 C9 1_555 1_555
O10 Ba5B 1_555 1_555
O11 Ba4C 1_555 1_555
O12 Ba4C 1_555 1_555
O14 C13 1_555 1_555
O14 Ba6B_2 1_555 1_555
O16 C15 1_555 1_555
O19 Ba3A 1_555 1_555
O20 C19 1_555 1_555
O20 Ba3A 1_555 1_555
O20 Ba5A 1_555 1_555
O22 C21 1_555 1_555
O23 Ba5B 1_555 1_555
O24 Ba5B 1_555 1_555
H43 O28B 1_555 1_555
H44 O28B 1_555 1_555
Ba1B O7B 1_555 1_555
Ba1B O9B 1_555 1_555
Ba1B O23B 1_555 1_555
Ba1B O28B 1_555 1_555
Ba2C O6C 1_555 1_555
Ba2C O12C 1_555 1_555
Ba2A O16A 1_555 1_555
Ba2A O20A 1_555 1_555
Ba2A O24B 1_555 1_555
Ba2B_2 O14B 1_555 1_555
Ba3A O5C 1_555 1_555
Ba3A O24C 1_555 1_555
Ba3B_2 O3B 1_555 1_555
Ba3B_2 O16C 1_555 1_555
Ba3B_2 O20C 1_555 1_555
Ba3_2 O19A_2 1_555 1_555
Ba4C O15C 1_555 1_555
Ba4C O16C_2 1_555 1_555
Ba4C O19C 1_555 1_555
Ba4C O23C 1_555 1_555
Ba4A O16A 1_555 1_555
Ba4A O19A 1_555 1_555
Ba4B O12A 1_555 1_555
Ba4B O15B 1_555 1_555
Ba4B O23B 1_555 1_555
Ba4C_2 O22C 1_555 1_555
Ba5B O4B 1_555 1_555
Ba5B O12C 1_555 1_555
Ba5B O20C 1_555 1_555
Ba5A O4A 1_555 1_555
Ba5A O7C 1_555 1_555
Ba5A O23C 1_555 1_555
Ba5A O24C 1_555 1_555
Ba6B O10B 1_555 1_555
Ba6B_2 O19C 1_555 1_555
Ba6_2 O19A 1_555 1_555
Ba6A O11C 1_555 1_555
Ba6A O14C 1_555 1_555
O2B C1B 1_555 1_555
O4B C3B 1_555 1_555
O6B C5B 1_555 1_555
O8B C7B 1_555 1_555
O10B C9B 1_555 1_555
O12C C11C 1_555 1_555
O16A C15A 1_555 1_555
O20A C19A 1_555 1_555
O22C C21C 1_555 1_555
O24C C23C 1_555 1_555
O28B H43B 1_555 1_555
O28B H44B 1_555 1_555

#END
