
#######################################################################
#
#                 Cambridge Crystallographic Data Centre
#                                CCDC 
#
#######################################################################
#
# If this CIF has been generated from an entry in the Cambridge 
# Structural Database, then it will include bibliographic, chemical, 
# crystal, experimental, refinement or atomic coordinate data resulting 
# from the CCDC's data processing and validation procedures.
#
#######################################################################

data_GIMSIG
_symmetry_cell_setting           tetragonal
_symmetry_space_group_name_H-M   'I 4/m'
_symmetry_Int_Tables_number      87
_space_group_name_Hall           '-I 4'
loop_
_symmetry_equiv_pos_site_id
_symmetry_equiv_pos_as_xyz
1 x,y,z
2 -x,-y,z
3 -y,x,z
4 y,-x,z
5 1/2+x,1/2+y,1/2+z
6 1/2-x,1/2-y,1/2+z
7 1/2-y,1/2+x,1/2+z
8 1/2+y,1/2-x,1/2+z
9 -x,-y,-z
10 x,y,-z
11 y,-x,-z
12 -y,x,-z
13 1/2-x,1/2-y,1/2-z
14 1/2+x,1/2+y,1/2-z
15 1/2+y,1/2-x,1/2-z
16 1/2-y,1/2+x,1/2-z
_cell_length_a                   15.7960(4)
_cell_length_b                   15.7960(4)
_cell_length_c                   10.3855(2)
_cell_angle_alpha                90
_cell_angle_beta                 90
_cell_angle_gamma                90
_cell_volume                     2591.32
loop_
_atom_site_label
_atom_site_type_symbol
_atom_site_fract_x
_atom_site_fract_y
_atom_site_fract_z
Cd1 Cd 0.601144(9) 0.096353(9) 0.0000
N1 N 0.47692(12) 0.17600(11) 0.0000
C1 C 0.44002(10) 0.19952(9) -0.11088(15)
H1 H 0.4662 0.1838 -0.1897
C2 C 0.36516(10) 0.24589(9) -0.11541(15)
H2 H 0.3407 0.2613 -0.1956
C3 C 0.32695(13) 0.26918(13) 0.0000
C4 C 0.24402(13) 0.31657(13) 0.0000
O1 O 0.21099(7) 0.33467(7) -0.10716(11)
S1 S 0.5000 0.0000 0.2500
O2 O 0.57567(7) 0.00887(7) 0.16735(11)
S2 S 0.74279(4) -0.06028(3) 0.0000
O3 O 0.73439(10) 0.03564(10) 0.0000
C5 C 0.81322(14) -0.08454(13) 0.12863(19)
H3 H 0.7845 -0.0750 0.2110
H4 H 0.8633 -0.0480 0.1231
H5 H 0.8306 -0.1440 0.1226
C1I C 0.44002(10) 0.19952(9) 0.11088(15)
H1I H 0.4662 0.1838 0.1897
C2I C 0.36516(10) 0.24589(9) 0.11541(15)
H2I H 0.3407 0.2613 0.1956
O1I O 0.21099(7) 0.33467(7) 0.10716(11)
O2A O 0.42433(7) -0.00887(7) 0.16735(11)
O2N O 0.50887(7) -0.07567(7) 0.33265(11)
O2O O 0.49113(7) 0.07567(7) 0.33265(11)
C5I C 0.81322(14) -0.08454(13) -0.12863(19)
H3I H 0.7845 -0.0750 -0.2110
H4I H 0.8633 -0.0480 -0.1231
H5I H 0.8306 -0.1440 -0.1226
Cd1A Cd 0.398856(9) -0.096353(9) 0.0000
N1A N 0.52308(12) -0.17600(11) 0.0000
C1A C 0.55998(10) -0.19952(9) -0.11088(15)
H1A H 0.5338 -0.1838 -0.1897
C2A C 0.63484(10) -0.24589(9) -0.11541(15)
H2A H 0.6593 -0.2613 -0.1956
C3A C 0.67305(13) -0.26918(13) 0.0000
C4A C 0.75598(13) -0.31657(13) 0.0000
O1A O 0.78901(7) -0.33467(7) -0.10716(11)
S2A S 0.25721(4) 0.06028(3) 0.0000
O3A O 0.26561(10) -0.03564(10) 0.0000
C5A C 0.18678(14) 0.08454(13) 0.12863(19)
H3A H 0.2155 0.0750 0.2110
H4A H 0.1367 0.0480 0.1231
H5A H 0.1694 0.1440 0.1226
C1H C 0.55998(10) -0.19952(9) 0.11088(15)
H1H H 0.5338 -0.1838 0.1897
C2H C 0.63484(10) -0.24589(9) 0.11541(15)
H2H H 0.6593 -0.2613 0.1956
O1H O 0.78901(7) -0.33467(7) 0.10716(11)
C5H C 0.18678(14) 0.08454(13) -0.12863(19)
H3H H 0.2155 0.0750 -0.2110
H4H H 0.1367 0.0480 -0.1231
H5H H 0.1694 0.1440 -0.1226
Cd1B Cd 0.903647(9) -0.398856(9) 0.0000
Cd1C Cd 0.096353(9) 0.398856(9) 0.0000
Cd1F Cd 0.403647(9) 0.101144(9) 0.5000
Cd1G Cd 0.596353(9) -0.101144(9) 0.5000
O1B O 0.66533(7) 0.21099(7) -0.10716(11)
O1C O 0.33467(7) -0.21099(7) -0.10716(11)
O1J O 0.33467(7) -0.21099(7) 0.10716(11)
O1K O 0.66533(7) 0.21099(7) 0.10716(11)
O2H O 0.42433(7) -0.00887(7) -0.16735(11)
O2I O 0.57567(7) 0.00887(7) -0.16735(11)
O4 O 1.0000 0.0000 0.2551(6)
O5 O 1.0460(3) 0.0108(3) 0.3873(5)
O6 O 1.0818(5) 0.0216(6) 0.5000
loop_
_geom_bond_atom_site_label_1
_geom_bond_atom_site_label_2
_geom_bond_site_symmetry_1
_geom_bond_site_symmetry_2
Cd1 N1 1_555 1_555
N1 C1 1_555 1_555
C1 H1 1_555 1_555
C2 C1 1_555 1_555
H2 C2 1_555 1_555
C3 C2 1_555 1_555
C4 C3 1_555 1_555
O1 C4 1_555 1_555
S1 O2 1_555 1_555
O2 Cd1 1_555 1_555
S2 O3 1_555 1_555
O3 Cd1 1_555 1_555
C5 S2 1_555 1_555
H3 C5 1_555 1_555
H4 C5 1_555 1_555
H5 C5 1_555 1_555
C1I N1 1_555 1_555
H1I C1I 1_555 1_555
C2I C3 1_555 1_555
H2I C2I 1_555 1_555
O1I C4 1_555 1_555
O2A S1 1_555 1_555
O2N S1 1_555 1_555
O2O S1 1_555 1_555
C5I S2 1_555 1_555
H3I C5I 1_555 1_555
H4I C5I 1_555 1_555
H5I C5I 1_555 1_555
Cd1A O2A 1_555 1_555
N1A Cd1A 1_555 1_555
C1A N1A 1_555 1_555
H1A C1A 1_555 1_555
C2A C1A 1_555 1_555
H2A C2A 1_555 1_555
C3A C2A 1_555 1_555
C4A C3A 1_555 1_555
O1A C4A 1_555 1_555
S2A O3A 1_555 1_555
O3A Cd1A 1_555 1_555
C5A S2A 1_555 1_555
H3A C5A 1_555 1_555
H4A C5A 1_555 1_555
H5A C5A 1_555 1_555
C1H N1A 1_555 1_555
H1H C1H 1_555 1_555
C2H C3A 1_555 1_555
H2H C2H 1_555 1_555
O1H C4A 1_555 1_555
C5H S2A 1_555 1_555
H3H C5H 1_555 1_555
H4H C5H 1_555 1_555
H5H C5H 1_555 1_555
Cd1B O1A 1_555 1_555
Cd1C O1 1_555 1_555
Cd1F O2O 1_555 1_555
Cd1G O2N 1_555 1_555
O1B Cd1 1_555 1_555
O1C Cd1A 1_555 1_555
O1J Cd1A 1_555 1_555
O1K Cd1 1_555 1_555
O2H Cd1A 1_555 1_555
O2I Cd1 1_555 1_555
C1I C2I 1_555 1_555
O1I Cd1C 1_555 1_555
C1H C2H 1_555 1_555
O1H Cd1B 1_555 1_555

#END
