
#######################################################################
#
#                 Cambridge Crystallographic Data Centre
#                                CCDC 
#
#######################################################################
#
# If this CIF has been generated from an entry in the Cambridge 
# Structural Database, then it will include bibliographic, chemical, 
# crystal, experimental, refinement or atomic coordinate data resulting 
# from the CCDC's data processing and validation procedures.
#
#######################################################################

data_GIMWAB
_symmetry_cell_setting           tetragonal
_symmetry_space_group_name_H-M   'I 41/a'
_symmetry_Int_Tables_number      88
_space_group_name_Hall           '-I 4ad'
loop_
_symmetry_equiv_pos_site_id
_symmetry_equiv_pos_as_xyz
1 x,y,z
2 3/4-y,1/4+x,1/4+z
3 1/2+x,1/2+y,1/2+z
4 1/4-y,3/4+x,3/4+z
5 1/4+y,1/4-x,1/4+z
6 1/2-x,-y,1/2+z
7 3/4+y,3/4-x,3/4+z
8 -x,1/2-y,z
9 -x,-y,-z
10 1/4+y,3/4-x,3/4-z
11 1/2-x,1/2-y,1/2-z
12 3/4+y,1/4-x,1/4-z
13 3/4-y,3/4+x,3/4-z
14 1/2+x,y,1/2-z
15 1/4-y,1/4+x,1/4-z
16 x,1/2+y,-z
_cell_length_a                   12.7307(7)
_cell_length_b                   12.7307(7)
_cell_length_c                   19.5433(18)
_cell_angle_alpha                90
_cell_angle_beta                 90
_cell_angle_gamma                90
_cell_volume                     3167.4
loop_
_atom_site_label
_atom_site_type_symbol
_atom_site_fract_x
_atom_site_fract_y
_atom_site_fract_z
Cd1 Cd 0.24683(4) 0.25555(4) 0.05984(2)
O1 O 0.3287(4) 0.1206(4) 0.0017(3)
H1 H 0.329(7) 0.0504(11) 0.006(4)
Cl1 Cl 0.15990(12) 0.09779(12) 0.12298(8)
Cl2 Cl 0.34179(13) 0.38436(13) -0.01275(9)
N1 N 0.4031(4) 0.2487(4) 0.1398(3)
N2 N 0.4993(4) 0.3459(4) 0.2283(3)
C1 C 0.3784(6) 0.1214(6) -0.0629(4)
H2 H 0.4051 0.0525 -0.0729
H3 H 0.4353 0.1708 -0.0624
H4 H 0.3285 0.1413 -0.0974
C2 C 0.5000 0.2500 0.0967(5)
H5 H 0.5008 0.1884 0.0678
C3 C 0.5000 0.2500 0.2704(5)
H6 H 0.4384 0.2495 0.2993
C4 C 0.4035(5) 0.3443(5) 0.1837(3)
H7 H 0.3410 0.3451 0.2121
H8 H 0.4025 0.4066 0.1551
C5 C 0.4069(5) 0.1547(5) 0.1839(3)
H9 H 0.4073 0.0924 0.1554
H10 H 0.3444 0.1525 0.2121
Cd1N Cd -0.00555(4) 0.49683(4) 0.19016(2)
Cd1K Cd 0.00555(4) 0.00317(4) 0.19016(2)
Cd1A Cd 0.49445(4) 0.49683(4) 0.30984(2)
Cd1G Cd 0.75317(4) 0.24445(4) 0.05984(2)
Cd1D Cd 0.50555(4) 0.00317(4) 0.30984(2)
O1N O 0.1294(4) 0.5787(4) 0.2483(3)
H1N H 0.1996(11) 0.579(7) 0.244(4)
Cl1N Cl 0.15221(12) 0.40990(12) 0.12702(8)
Cl1G Cl -0.15990(12) 0.40221(12) 0.12298(8)
Cl2N Cl -0.13436(13) 0.59179(13) 0.26275(9)
N1G N 0.5969(4) 0.2513(4) 0.1398(3)
N1N N 0.0013(4) 0.6531(4) 0.1102(3)
N2G N 0.5007(4) 0.1541(4) 0.2283(3)
N2F N 0.0959(4) 0.2507(4) -0.0217(3)
N2M N -0.0007(4) 0.3459(4) 0.2717(3)
C1N C 0.1286(6) 0.6284(6) 0.3129(4)
H2N H 0.1975 0.6551 0.3229
H3N H 0.0792 0.6853 0.3124
H4N H 0.1087 0.5785 0.3474
H5G H 0.4992 0.3116 0.0678
H6G H 0.5616 0.2505 0.2993
C4G C 0.5965(5) 0.1557(5) 0.1837(3)
H7G H 0.6590 0.1549 0.2121
H8G H 0.5975 0.0934 0.1551
C5G C 0.5931(5) 0.3453(5) 0.1839(3)
H9G H 0.5927 0.4076 0.1554
H10G H 0.6556 0.3475 0.2121
loop_
_geom_bond_atom_site_label_1
_geom_bond_atom_site_label_2
_geom_bond_site_symmetry_1
_geom_bond_site_symmetry_2
Cd1 O1 1_555 1_555
O1 H1 1_555 1_555
Cl1 Cd1 1_555 1_555
Cl2 Cd1 1_555 1_555
N1 Cd1 1_555 1_555
N2 C3 1_555 1_555
C1 O1 1_555 1_555
H2 C1 1_555 1_555
H3 C1 1_555 1_555
H4 C1 1_555 1_555
C2 N1 1_555 1_555
H5 C2 1_555 1_555
C3 H6 1_555 1_555
C4 N1 1_555 1_555
H7 C4 1_555 1_555
H8 C4 1_555 1_555
C5 N1 1_555 1_555
H9 C5 1_555 1_555
H10 C5 1_555 1_555
Cd1N O1N 1_555 1_555
Cd1K Cl1 1_555 1_555
Cd1A N2 1_555 1_555
Cd1G N1G 1_555 1_555
Cd1D N2G 1_555 1_555
O1N H1N 1_555 1_555
Cl1N Cd1 1_555 1_555
Cl1G Cd1N 1_555 1_555
Cl2N Cd1N 1_555 1_555
N1G C2 1_555 1_555
N1N Cd1N 1_555 1_555
N2G C3 1_555 1_555
N2F Cd1 1_555 1_555
N2M Cd1N 1_555 1_555
C1N O1N 1_555 1_555
H2N C1N 1_555 1_555
H3N C1N 1_555 1_555
H4N C1N 1_555 1_555
H5G C2 1_555 1_555
H6G C3 1_555 1_555
C4G N1G 1_555 1_555
H7G C4G 1_555 1_555
H8G C4G 1_555 1_555
C5G N2 1_555 1_555
H9G C5G 1_555 1_555
H10G C5G 1_555 1_555
N2 C4 1_555 1_555
C5 N2G 1_555 1_555
Cd1N Cl1N 1_555 1_555
N1G C5G 1_555 1_555
N2G C4G 1_555 1_555

#END
