
#######################################################################
#
#                 Cambridge Crystallographic Data Centre
#                                CCDC 
#
#######################################################################
#
# If this CIF has been generated from an entry in the Cambridge 
# Structural Database, then it will include bibliographic, chemical, 
# crystal, experimental, refinement or atomic coordinate data resulting 
# from the CCDC's data processing and validation procedures.
#
#######################################################################

data_GINDOY
_symmetry_cell_setting           triclinic
_symmetry_space_group_name_H-M   'P -1'
_symmetry_Int_Tables_number      2
_space_group_name_Hall           '-P 1'
loop_
_symmetry_equiv_pos_site_id
_symmetry_equiv_pos_as_xyz
1 x,y,z
2 -x,-y,-z
_cell_length_a                   12.8340(12)
_cell_length_b                   16.3130(15)
_cell_length_c                   17.9830(17)
_cell_angle_alpha                73.8180(10)
_cell_angle_beta                 82.7680(10)
_cell_angle_gamma                67.5620(10)
_cell_volume                     3341.23
loop_
_atom_site_label
_atom_site_type_symbol
_atom_site_fract_x
_atom_site_fract_y
_atom_site_fract_z
Zn1 Zn 0.19121(5) 0.82001(4) 0.78409(3)
Zn2 Zn 0.38181(5) 1.09674(4) 0.31996(3)
Zn3 Zn 1.11573(5) 0.61639(4) 1.28294(3)
O1 O -0.0457(3) 0.8567(2) 0.43927(18)
C1 C 0.9367(4) 0.5905(4) 1.2543(3)
O2 O 0.2121(3) 1.0055(2) 0.27976(19)
N1 N 0.7161(3) 1.4050(2) 0.5250(2)
O3 O 0.6913(3) 0.5131(2) 1.05947(19)
N2 N 0.2427(3) 1.0234(3) 0.8506(2)
O4 O 0.9276(3) 0.6611(3) 1.2042(2)
O5 O 1.0027(3) 0.5579(2) 1.3111(2)
C2 C 0.0722(4) 0.8593(3) 0.5339(3)
H1 H 0.0404 0.8263 0.5746
O6 O 0.3024(3) 0.7321(2) 0.9417(2)
N3 N 0.4325(3) 1.2985(3) 0.3901(2)
O7 O 0.3319(3) 0.7198(2) 0.8200(2)
C3 C 0.4768(4) 0.6239(3) 0.9082(3)
C4 C 0.2019(4) 0.9388(3) 0.4868(3)
H2 H 0.2568 0.9587 0.4960
N4 N 0.8121(3) 1.4141(3) 0.6137(2)
C5 C 0.0366(4) 0.8808(3) 0.4601(3)
C6 C 0.1648(4) 0.9600(3) 0.4126(3)
C7 C 0.7256(4) 0.5199(3) 1.1827(3)
C8 C 0.5254(4) 0.6042(3) 0.9791(3)
H3 H 0.4860 0.6341 1.0168
O8 O 0.2506(3) 1.0687(2) 0.3633(2)
C9 C -0.1841(4) 0.7926(3) 0.4593(3)
N5 N 0.0002(3) 0.6697(3) 0.9069(2)
O9 O 0.2838(3) 0.8752(3) 0.6384(2)
N6 N 0.3735(3) 1.2100(3) 0.3483(2)
N7 N 0.0672(3) 0.7760(3) 0.8445(2)
C10 C 0.1972(4) 0.8648(3) 0.6279(3)
C11 C 0.5334(4) 0.5788(3) 0.8518(3)
H4 H 0.4996 0.5923 0.8049
C12 C 0.5033(4) 1.3274(3) 0.4255(3)
C13 C 0.6418(4) 1.3795(3) 0.4905(3)
C14 C -0.3571(4) 0.8523(3) 0.3894(3)
C15 C -0.0022(4) 0.5828(4) 0.9547(3)
N8 N 0.1992(3) 0.9352(3) 0.7973(2)
C16 C 0.8671(4) 0.5351(3) 1.2489(3)
C17 C 0.8926(4) 0.4474(4) 1.2928(3)
H5 H 0.9492 0.4226 1.3290
C18 C 0.3606(4) 0.6975(3) 0.8904(3)
C19 C 0.3385(5) 1.1044(4) 1.0240(3)
C20 C 0.6335(4) 0.5390(3) 0.9927(3)
C21 C 0.0817(4) 0.9308(3) 0.3991(3)
H6 H 0.0567 0.9450 0.3491
C22 C 0.2783(4) 1.0514(3) 0.9086(3)
C23 C 0.1567(4) 0.8872(3) 0.5479(3)
C24 C -0.2827(4) 0.8636(3) 0.4329(3)
H7 H -0.3002 0.9197 0.4441
C25 C 0.6417(4) 0.5128(3) 0.8662(3)
O10 O 0.1366(3) 0.8361(2) 0.68367(19)
C26 C 0.6908(4) 0.4942(3) 0.9357(3)
H8 H 0.7635 0.4511 0.9448
C27 C -0.1003(4) 0.8078(3) 0.4996(3)
H9 H -0.1379 0.8435 0.5368
H10 H -0.0461 0.7497 0.5265
C28 C 0.6343(4) 1.2946(3) 0.5224(3)
H11 H 0.6772 1.2548 0.5649
C29 C 0.1819(4) 1.0194(4) 0.7447(3)
H12 H 0.1565 1.0356 0.6945
C30 C 0.2353(4) 0.9416(3) 0.8595(3)
H13 H 0.2538 0.8948 0.9047
C31 C 0.2121(4) 1.0148(3) 0.3452(3)
C32 C 0.5820(5) 1.4378(3) 0.4270(3)
H14 H 0.5877 1.4950 0.4065
C33 C 0.0859(4) 0.6988(3) 0.8976(3)
H15 H 0.1517 0.6677 0.9257
C34 C 0.7334(4) 1.3866(3) 0.6004(3)
H16 H 0.6945 1.3577 0.6392
C35 C 0.7880(5) 1.4482(4) 0.4871(3)
H17 H 0.7954 1.4696 0.4338
C36 C 0.8461(4) 1.4537(4) 0.5423(3)
H18 H 0.9005 1.4802 0.5331
C37 C 0.6398(4) 0.5581(3) 1.1205(3)
H19 H 0.5720 0.5458 1.1404
H20 H 0.6201 0.6238 1.1015
C38 C 0.2541(7) 1.1423(4) 0.9012(4)
H21 H 0.2169 1.1860 0.8580
C39 C 0.7845(4) 0.5713(3) 1.1935(3)
H22 H 0.7685 0.6309 1.1632
C40 C 0.3267(4) 1.3515(4) 0.3614(3)
H23 H 0.2868 1.4127 0.3607
C41 C 0.2074(5) 1.0733(4) 0.7767(3)
H24 H 0.2024 1.1332 0.7538
C42 C -0.1626(5) 0.7099(4) 0.4441(4)
H25 H -0.0971 0.6610 0.4625
C43 C 0.7508(5) 0.4316(3) 1.2286(3)
H26 H 0.7115 0.3964 1.2228
C44 C 0.5121(5) 1.4112(4) 0.3930(3)
H27 H 0.4722 1.4498 0.3489
C45 C -0.3346(4) 0.7690(4) 0.3751(3)
H28 H -0.3854 0.7611 0.3477
C46 C -0.0375(4) 0.7977(4) 0.8174(3)
H29 H -0.0739 0.8492 0.7786
C47 C 0.5625(4) 1.2692(3) 0.4906(3)
H30 H 0.5541 1.2132 0.5128
C48 C -0.2372(5) 0.6970(4) 0.4013(4)
H31 H -0.2206 0.6406 0.3909
C49 C 0.8345(5) 0.3951(4) 1.2834(3)
H32 H 0.8515 0.3354 1.3137
C50 C 0.2923(4) 1.2968(3) 0.3345(3)
H33 H 0.2242 1.3149 0.3104
C51 C 0.4560(4) 1.2143(3) 0.3817(3)
H34 H 0.5224 1.1650 0.3974
C52 C 0.3276(6) 0.9888(4) 0.9732(4)
H35 H 0.3425 0.9271 0.9784
C53 C -0.0793(5) 0.7335(4) 0.8554(4)
H36 H -0.1492 0.7324 0.8481
C54 C 0.3560(6) 1.0158(4) 1.0314(3)
H37 H 0.3875 0.9723 1.0764
C55 C 0.2860(7) 1.1686(5) 0.9593(4)
H38 H 0.2716 1.2302 0.9543
C56 C 0.7025(5) 0.4630(3) 0.8056(3)
C57 C -0.4607(5) 0.9332(4) 0.3562(4)
O11 O -0.4805(3) 1.0074(2) 0.3736(2)
O12 O 0.8066(3) 0.4410(3) 0.8013(2)
O13 O 0.6484(3) 0.4464(3) 0.7634(2)
N9 N 0.3677(4) 1.1304(3) 1.0857(2)
C58 C 0.3563(4) 1.0939(4) 1.1609(3)
H39 H 0.3295 1.0464 1.1805
O14 O -0.5196(4) 0.9246(3) 0.3132(3)
C59 C 0.4057(7) 1.2002(5) 1.0807(4)
H40 H 0.4210 1.2390 1.0356
N10 N 0.3872(4) 1.1332(3) 1.2036(2)
C60 C 0.4160(6) 1.2008(5) 1.1536(4)
H41 H 0.4394 1.2416 1.1678
N11 N 1.0917(3) 0.7495(3) 1.2380(2)
N12 N 1.0660(3) 0.8742(3) 1.1438(2)
C61 C 1.0337(4) 0.9381(3) 1.0706(3)
C62 C 1.0570(4) 0.7919(3) 1.1672(3)
H42 H 1.0293 0.7674 1.1368
C63 C 1.1099(5) 0.8853(4) 1.2041(3)
H43 H 1.1257 0.9360 1.2051
C64 C 1.1256(5) 0.8090(4) 1.2614(3)
H44 H 1.1548 0.7979 1.3095
C65 C 1.0157(5) 1.0278(4) 1.0614(3)
H45 H 1.0264 1.0473 1.1028
C66 C 1.0187(5) 0.9091(4) 1.0092(3)
H46 H 1.0314 0.8476 1.0149
C67 C -0.0183(4) 0.5231(3) 0.9214(3)
H47 H -0.0309 0.5390 0.8686
C68 C 0.0156(4) 0.5609(3) 1.0331(3)
H48 H 0.0258 0.6026 1.0550
N5A N -0.0002(3) 0.3303(3) 1.0931(2)
N7A N -0.0672(3) 0.2240(3) 1.1555(2)
C15A C 0.0022(4) 0.4172(4) 1.0453(3)
C33A C -0.0859(4) 0.3012(3) 1.1024(3)
H15A H -0.1517 0.3323 1.0743
C46A C 0.0375(4) 0.2023(4) 1.1826(3)
H29A H 0.0739 0.1508 1.2214
C53A C 0.0793(5) 0.2665(4) 1.1446(4)
H36A H 0.1492 0.2676 1.1519
C67A C 0.0183(4) 0.4769(3) 1.0786(3)
H47A H 0.0309 0.4610 1.1314
C68A C -0.0156(4) 0.4391(3) 0.9669(3)
H48A H -0.0258 0.3974 0.9450
N11A N 0.9083(3) 1.2505(3) 0.7620(2)
N12A N 0.9340(3) 1.1258(3) 0.8562(2)
C61A C 0.9663(4) 1.0619(3) 0.9294(3)
C62A C 0.9430(4) 1.2081(3) 0.8328(3)
H42A H 0.9707 1.2326 0.8632
C63A C 0.8901(5) 1.1147(4) 0.7959(3)
H43A H 0.8743 1.0640 0.7949
C64A C 0.8744(5) 1.1910(4) 0.7386(3)
H44A H 0.8452 1.2021 0.6905
C65A C 0.9843(5) 0.9722(4) 0.9386(3)
H45A H 0.9736 0.9527 0.8972
C66A C 0.9813(5) 1.0909(4) 0.9908(3)
H46A H 0.9686 1.1524 0.9851
Zn1A Zn -0.19121(5) 0.17999(4) 1.21591(3)
Zn2A Zn -0.38181(5) -0.09674(4) 1.68004(3)
Zn3A Zn -1.11573(5) 0.38361(4) 0.71706(3)
O1A O 0.0457(3) 0.1433(2) 1.56073(18)
C1A C -0.9367(4) 0.4095(4) 0.7457(3)
O2A O -0.2121(3) -0.0055(2) 1.72024(19)
N1A N -0.7161(3) -0.4050(2) 1.4750(2)
O3A O -0.6913(3) 0.4869(2) 0.94053(19)
N2A N -0.2427(3) -0.0234(3) 1.1494(2)
O4A O -0.9276(3) 0.3389(3) 0.7958(2)
O5A O -1.0027(3) 0.4421(2) 0.6889(2)
C2A C -0.0722(4) 0.1407(3) 1.4661(3)
H1A H -0.0404 0.1737 1.4254
O6A O -0.3024(3) 0.2679(2) 1.0583(2)
N3A N -0.4325(3) -0.2985(3) 1.6099(2)
O7A O -0.3319(3) 0.2802(2) 1.1800(2)
C3A C -0.4768(4) 0.3761(3) 1.0918(3)
C4A C -0.2019(4) 0.0612(3) 1.5132(3)
H2A H -0.2568 0.0413 1.5040
N4A N -0.8121(3) -0.4141(3) 1.3863(2)
C5A C -0.0366(4) 0.1192(3) 1.5399(3)
C6A C -0.1648(4) 0.0400(3) 1.5874(3)
C7A C -0.7256(4) 0.4801(3) 0.8173(3)
C8A C -0.5254(4) 0.3958(3) 1.0209(3)
H3A H -0.4860 0.3659 0.9832
O8A O -0.2506(3) -0.0687(2) 1.6367(2)
C9A C 0.1841(4) 0.2074(3) 1.5407(3)
O9A O -0.2838(3) 0.1248(3) 1.3616(2)
N6A N -0.3735(3) -0.2100(3) 1.6517(2)
C10A C -0.1972(4) 0.1352(3) 1.3721(3)
C11A C -0.5334(4) 0.4212(3) 1.1482(3)
H4A H -0.4996 0.4077 1.1951
C12A C -0.5033(4) -0.3274(3) 1.5745(3)
C13A C -0.6418(4) -0.3795(3) 1.5095(3)
C14A C 0.3571(4) 0.1477(3) 1.6106(3)
N8A N -0.1992(3) 0.0648(3) 1.2027(2)
C16A C -0.8671(4) 0.4649(3) 0.7511(3)
C17A C -0.8926(4) 0.5526(4) 0.7072(3)
H5A H -0.9492 0.5774 0.6710
C18A C -0.3606(4) 0.3025(3) 1.1096(3)
C19A C -0.3385(5) -0.1044(4) 0.9760(3)
C20A C -0.6335(4) 0.4610(3) 1.0073(3)
C21A C -0.0817(4) 0.0692(3) 1.6009(3)
H6A H -0.0567 0.0550 1.6509
C22A C -0.2783(4) -0.0514(3) 1.0914(3)
C23A C -0.1567(4) 0.1128(3) 1.4521(3)
C24A C 0.2827(4) 0.1364(3) 1.5671(3)
H7A H 0.3002 0.0803 1.5559
C25A C -0.6417(4) 0.4872(3) 1.1338(3)
O10A O -0.1366(3) 0.1639(2) 1.31633(19)
C26A C -0.6908(4) 0.5058(3) 1.0643(3)
H8A H -0.7635 0.5489 1.0552
C27A C 0.1003(4) 0.1922(3) 1.5004(3)
H9A H 0.1379 0.1565 1.4632
H10A H 0.0461 0.2503 1.4735
C28A C -0.6343(4) -0.2946(3) 1.4776(3)
H11A H -0.6772 -0.2548 1.4351
C29A C -0.1819(4) -0.0194(4) 1.2553(3)
H12A H -0.1565 -0.0356 1.3055
C30A C -0.2353(4) 0.0584(3) 1.1405(3)
H13A H -0.2538 0.1052 1.0953
C31A C -0.2121(4) -0.0148(3) 1.6548(3)
C32A C -0.5820(5) -0.4378(3) 1.5730(3)
H14A H -0.5877 -0.4950 1.5935
C34A C -0.7334(4) -0.3866(3) 1.3996(3)
H16A H -0.6945 -0.3577 1.3608
C35A C -0.7880(5) -0.4482(4) 1.5129(3)
H17A H -0.7954 -0.4696 1.5662
C36A C -0.8461(4) -0.4537(4) 1.4577(3)
H18A H -0.9005 -0.4802 1.4669
C37A C -0.6398(4) 0.4419(3) 0.8795(3)
H19A H -0.5720 0.4542 0.8596
H20A H -0.6201 0.3762 0.8985
C38A C -0.2541(7) -0.1423(4) 1.0988(4)
H21A H -0.2169 -0.1860 1.1420
C39A C -0.7845(4) 0.4287(3) 0.8065(3)
H22A H -0.7685 0.3691 0.8368
C40A C -0.3267(4) -0.3515(4) 1.6386(3)
H23A H -0.2868 -0.4127 1.6393
C41A C -0.2074(5) -0.0733(4) 1.2233(3)
H24A H -0.2024 -0.1332 1.2462
C42A C 0.1626(5) 0.2901(4) 1.5559(4)
H25A H 0.0971 0.3390 1.5375
C43A C -0.7508(5) 0.5684(3) 0.7714(3)
H26A H -0.7115 0.6036 0.7772
C44A C -0.5121(5) -0.4112(4) 1.6070(3)
H27A H -0.4722 -0.4498 1.6511
C45A C 0.3346(4) 0.2310(4) 1.6249(3)
H28A H 0.3854 0.2389 1.6523
C47A C -0.5625(4) -0.2692(3) 1.5094(3)
H30A H -0.5541 -0.2132 1.4872
C48A C 0.2372(5) 0.3030(4) 1.5987(4)
H31A H 0.2206 0.3594 1.6091
C49A C -0.8345(5) 0.6049(4) 0.7166(3)
H32A H -0.8515 0.6646 0.6863
C50A C -0.2923(4) -0.2968(3) 1.6655(3)
H33A H -0.2242 -0.3149 1.6896
C51A C -0.4560(4) -0.2143(3) 1.6183(3)
H34A H -0.5224 -0.1650 1.6026
C52A C -0.3276(6) 0.0112(4) 1.0268(4)
H35A H -0.3425 0.0729 1.0216
C54A C -0.3560(6) -0.0158(4) 0.9686(3)
H37A H -0.3875 0.0277 0.9236
C55A C -0.2860(7) -0.1686(5) 1.0407(4)
H38A H -0.2716 -0.2302 1.0457
C56A C -0.7025(5) 0.5370(3) 1.1944(3)
C57A C 0.4607(5) 0.0668(4) 1.6438(4)
O11A O 0.4805(3) -0.0074(2) 1.6264(2)
O12A O -0.8066(3) 0.5590(3) 1.1987(2)
O13A O -0.6484(3) 0.5536(3) 1.2366(2)
N9A N -0.3677(4) -0.1304(3) 0.9143(2)
C58A C -0.3563(4) -0.0939(4) 0.8391(3)
H39A H -0.3295 -0.0464 0.8195
O14A O 0.5196(4) 0.0754(3) 1.6868(3)
C59A C -0.4057(7) -0.2002(5) 0.9193(4)
H40A H -0.4210 -0.2390 0.9644
N10A N -0.3872(4) -0.1332(3) 0.7964(2)
C60A C -0.4160(6) -0.2008(5) 0.8464(4)
H41A H -0.4394 -0.2416 0.8322
Zn2_2 Zn -0.61819(5) 1.09674(4) 0.31996(3)
Zn2_3 Zn 0.38181(5) 1.09674(4) 1.31996(3)
Zn2A_2 Zn -0.38181(5) -0.09674(4) 0.68004(3)
Zn2A_3 Zn 0.61819(5) -0.09674(4) 1.68004(3)
Zn3_2 Zn -0.88427(5) -0.38361(4) 1.28294(3)
Zn3_3 Zn -0.88427(5) 0.61639(4) 1.28294(3)
Zn3A_2 Zn 0.88427(5) 0.38361(4) 0.71706(3)
Zn3A_3 Zn 0.88427(5) 1.38361(4) 0.71706(3)
N4_2 N -1.1879(3) 0.4141(3) 0.6137(2)
N4A_2 N 1.1879(3) 0.5859(3) 1.3863(2)
O11_2 O 0.5195(3) 1.0074(2) 0.3736(2)
O11A_2 O -0.5195(3) -0.0074(2) 1.6264(2)
O12_2 O -1.1934(3) 0.4410(3) 0.8013(2)
O12A_2 O 1.1934(3) 0.5590(3) 1.1987(2)
N10_2 N 0.3872(4) 1.1332(3) 0.2036(2)
N10A_2 N -0.3872(4) -0.1332(3) 1.7964(2)
N11A_2 N -1.0917(3) 0.2505(3) 0.7620(2)
O15 O -0.5965(10) 0.8475(8) 0.2367(7)
O16 O -0.6279(10) 0.8263(7) 0.2787(8)
O17 O 0.5243(6) 0.3544(5) 0.7124(5)
O18 O 0.2990(7) 0.7498(6) 1.0842(5)
O19 O 0.4700(9) 0.7867(7) 1.1016(6)
loop_
_geom_bond_atom_site_label_1
_geom_bond_atom_site_label_2
_geom_bond_site_symmetry_1
_geom_bond_site_symmetry_2
Zn1 O7 1_555 1_555
Zn2 O8 1_555 1_555
Zn3 O5 1_555 1_555
O1 C5 1_555 1_555
C1 O4 1_555 1_555
O2 C31 1_555 1_555
N1 C13 1_555 1_555
O3 C20 1_555 1_555
N2 C22 1_555 1_555
O5 C1 1_555 1_555
C2 H1 1_555 1_555
O6 C18 1_555 1_555
N3 C12 1_555 1_555
O7 C18 1_555 1_555
C3 C8 1_555 1_555
C4 H2 1_555 1_555
N4 C34 1_555 1_555
C5 C2 1_555 1_555
C6 C4 1_555 1_555
C7 C37 1_555 1_555
C8 H3 1_555 1_555
O8 C31 1_555 1_555
C9 C24 1_555 1_555
N5 C15 1_555 1_555
O9 C10 1_555 1_555
N6 Zn2 1_555 1_555
N7 Zn1 1_555 1_555
C10 C23 1_555 1_555
C11 C3 1_555 1_555
H4 C11 1_555 1_555
C12 C44 1_555 1_555
C13 C28 1_555 1_555
C14 C24 1_555 1_555
C15 C67 1_555 1_555
N8 Zn1 1_555 1_555
C16 C1 1_555 1_555
C17 C16 1_555 1_555
H5 C17 1_555 1_555
C18 C3 1_555 1_555
C19 C54 1_555 1_555
C20 C8 1_555 1_555
C21 C5 1_555 1_555
H6 C21 1_555 1_555
C22 C38 1_555 1_555
C23 C2 1_555 1_555
C24 H7 1_555 1_555
C25 C11 1_555 1_555
O10 Zn1 1_555 1_555
C26 C20 1_555 1_555
H8 C26 1_555 1_555
C27 O1 1_555 1_555
H9 C27 1_555 1_555
H10 C27 1_555 1_555
C28 H11 1_555 1_555
C29 N8 1_555 1_555
H12 C29 1_555 1_555
C30 N2 1_555 1_555
H13 C30 1_555 1_555
C31 C6 1_555 1_555
C32 C13 1_555 1_555
H14 C32 1_555 1_555
C33 N5 1_555 1_555
H15 C33 1_555 1_555
C34 N1 1_555 1_555
H16 C34 1_555 1_555
C35 N1 1_555 1_555
H17 C35 1_555 1_555
C36 N4 1_555 1_555
H18 C36 1_555 1_555
C37 O3 1_555 1_555
H19 C37 1_555 1_555
H20 C37 1_555 1_555
C38 H21 1_555 1_555
C39 C7 1_555 1_555
H22 C39 1_555 1_555
C40 N3 1_555 1_555
H23 C40 1_555 1_555
C41 N2 1_555 1_555
H24 C41 1_555 1_555
C42 C9 1_555 1_555
H25 C42 1_555 1_555
C43 C7 1_555 1_555
H26 C43 1_555 1_555
C44 C32 1_555 1_555
H27 C44 1_555 1_555
C45 C14 1_555 1_555
H28 C45 1_555 1_555
C46 N7 1_555 1_555
H29 C46 1_555 1_555
C47 C12 1_555 1_555
H30 C47 1_555 1_555
C48 C42 1_555 1_555
H31 C48 1_555 1_555
C49 C17 1_555 1_555
H32 C49 1_555 1_555
C50 N6 1_555 1_555
H33 C50 1_555 1_555
C51 N3 1_555 1_555
H34 C51 1_555 1_555
C52 C22 1_555 1_555
H35 C52 1_555 1_555
C53 N5 1_555 1_555
H36 C53 1_555 1_555
C54 C52 1_555 1_555
H37 C54 1_555 1_555
C55 C19 1_555 1_555
H38 C55 1_555 1_555
C56 C25 1_555 1_555
C57 C14 1_555 1_555
O11 C57 1_555 1_555
O12 C56 1_555 1_555
O13 C56 1_555 1_555
N9 C19 1_555 1_555
C58 N9 1_555 1_555
H39 C58 1_555 1_555
O14 C57 1_555 1_555
C59 N9 1_555 1_555
H40 C59 1_555 1_555
N10 C58 1_555 1_555
C60 C59 1_555 1_555
H41 C60 1_555 1_555
N11 Zn3 1_555 1_555
N12 C61 1_555 1_555
C61 C65 1_555 1_555
C62 N11 1_555 1_555
H42 C62 1_555 1_555
C63 N12 1_555 1_555
H43 C63 1_555 1_555
C64 N11 1_555 1_555
H44 C64 1_555 1_555
C65 H45 1_555 1_555
C66 C61 1_555 1_555
H46 C66 1_555 1_555
C67 H47 1_555 1_555
C68 C15 1_555 1_555
H48 C68 1_555 1_555
N5A C15A 1_555 1_555
N7A C33A 1_555 1_555
C15A C67A 1_555 1_555
C33A N5A 1_555 1_555
H15A C33A 1_555 1_555
C46A N7A 1_555 1_555
H29A C46A 1_555 1_555
C53A N5A 1_555 1_555
H36A C53A 1_555 1_555
C67A C68 1_555 1_555
H47A C67A 1_555 1_555
C68A C67 1_555 1_555
H48A C68A 1_555 1_555
N11A C62A 1_555 1_555
N12A C61A 1_555 1_555
C61A C65A 1_555 1_555
C62A N12A 1_555 1_555
H42A C62A 1_555 1_555
C63A N12A 1_555 1_555
H43A C63A 1_555 1_555
C64A N11A 1_555 1_555
H44A C64A 1_555 1_555
C65A C66 1_555 1_555
H45A C65A 1_555 1_555
C66A C65 1_555 1_555
H46A C66A 1_555 1_555
Zn1A N7A 1_555 1_555
Zn2A O8A 1_555 1_555
Zn3A O5A 1_555 1_555
O1A C5A 1_555 1_555
C1A O4A 1_555 1_555
O2A C31A 1_555 1_555
N1A C13A 1_555 1_555
O3A C20A 1_555 1_555
N2A C22A 1_555 1_555
O5A C1A 1_555 1_555
C2A H1A 1_555 1_555
O6A C18A 1_555 1_555
N3A C12A 1_555 1_555
O7A Zn1A 1_555 1_555
C3A C8A 1_555 1_555
C4A H2A 1_555 1_555
N4A C34A 1_555 1_555
C5A C2A 1_555 1_555
C6A C4A 1_555 1_555
C7A C37A 1_555 1_555
C8A H3A 1_555 1_555
O8A C31A 1_555 1_555
C9A C24A 1_555 1_555
O9A C10A 1_555 1_555
N6A Zn2A 1_555 1_555
C10A C23A 1_555 1_555
C11A C3A 1_555 1_555
H4A C11A 1_555 1_555
C12A C44A 1_555 1_555
C13A C28A 1_555 1_555
C14A C24A 1_555 1_555
N8A Zn1A 1_555 1_555
C16A C1A 1_555 1_555
C17A C16A 1_555 1_555
H5A C17A 1_555 1_555
C18A O7A 1_555 1_555
C19A C54A 1_555 1_555
C20A C8A 1_555 1_555
C21A C5A 1_555 1_555
H6A C21A 1_555 1_555
C22A C38A 1_555 1_555
C23A C2A 1_555 1_555
C24A H7A 1_555 1_555
C25A C11A 1_555 1_555
O10A Zn1A 1_555 1_555
C26A C20A 1_555 1_555
H8A C26A 1_555 1_555
C27A O1A 1_555 1_555
H9A C27A 1_555 1_555
H10A C27A 1_555 1_555
C28A H11A 1_555 1_555
C29A N8A 1_555 1_555
H12A C29A 1_555 1_555
C30A N2A 1_555 1_555
H13A C30A 1_555 1_555
C31A C6A 1_555 1_555
C32A C13A 1_555 1_555
H14A C32A 1_555 1_555
C34A N1A 1_555 1_555
H16A C34A 1_555 1_555
C35A N1A 1_555 1_555
H17A C35A 1_555 1_555
C36A N4A 1_555 1_555
H18A C36A 1_555 1_555
C37A O3A 1_555 1_555
H19A C37A 1_555 1_555
H20A C37A 1_555 1_555
C38A H21A 1_555 1_555
C39A C7A 1_555 1_555
H22A C39A 1_555 1_555
C40A N3A 1_555 1_555
H23A C40A 1_555 1_555
C41A N2A 1_555 1_555
H24A C41A 1_555 1_555
C42A C9A 1_555 1_555
H25A C42A 1_555 1_555
C43A C7A 1_555 1_555
H26A C43A 1_555 1_555
C44A C32A 1_555 1_555
H27A C44A 1_555 1_555
C45A C14A 1_555 1_555
H28A C45A 1_555 1_555
C47A C12A 1_555 1_555
H30A C47A 1_555 1_555
C48A C42A 1_555 1_555
H31A C48A 1_555 1_555
C49A C17A 1_555 1_555
H32A C49A 1_555 1_555
C50A N6A 1_555 1_555
H33A C50A 1_555 1_555
C51A N3A 1_555 1_555
H34A C51A 1_555 1_555
C52A C22A 1_555 1_555
H35A C52A 1_555 1_555
C54A C52A 1_555 1_555
H37A C54A 1_555 1_555
C55A C19A 1_555 1_555
H38A C55A 1_555 1_555
C56A C25A 1_555 1_555
C57A C14A 1_555 1_555
O11A C57A 1_555 1_555
O12A C56A 1_555 1_555
O13A C56A 1_555 1_555
N9A C19A 1_555 1_555
C58A N9A 1_555 1_555
H39A C58A 1_555 1_555
O14A C57A 1_555 1_555
C59A N9A 1_555 1_555
H40A C59A 1_555 1_555
N10A C58A 1_555 1_555
C60A C59A 1_555 1_555
H41A C60A 1_555 1_555
Zn2_2 O11 1_555 1_555
Zn2_3 N10 1_555 1_555
Zn2A_2 N10A 1_555 1_555
Zn2A_3 O11A 1_555 1_555
Zn3_2 N4A 1_555 1_555
Zn3_3 O12A 1_555 1_555
Zn3A_2 O12 1_555 1_555
Zn3A_3 N4 1_555 1_555
N4_2 Zn3A 1_555 1_555
N4A_2 Zn3 1_555 1_555
O11_2 Zn2 1_555 1_555
O11A_2 Zn2A 1_555 1_555
O12_2 Zn3A 1_555 1_555
O12A_2 Zn3 1_555 1_555
N10_2 Zn2 1_555 1_555
N10A_2 Zn2A 1_555 1_555
N11A_2 Zn3A 1_555 1_555
C4 C23 1_555 1_555
C6 C21 1_555 1_555
C9 C27 1_555 1_555
N6 C51 1_555 1_555
N7 C33 1_555 1_555
C10 O10 1_555 1_555
N8 C30 1_555 1_555
C16 C39 1_555 1_555
C25 C26 1_555 1_555
C28 C47 1_555 1_555
C29 C41 1_555 1_555
C35 C36 1_555 1_555
C38 C55 1_555 1_555
C40 C50 1_555 1_555
C43 C49 1_555 1_555
C45 C48 1_555 1_555
C46 C53 1_555 1_555
N10 C60 1_555 1_555
N12 C62 1_555 1_555
C63 C64 1_555 1_555
C15A C68A 1_555 1_555
C46A C53A 1_555 1_555
N11A Zn3A_3 1_555 1_555
C61A C66A 1_555 1_555
C63A C64A 1_555 1_555
C3A C18A 1_555 1_555
C4A C23A 1_555 1_555
C6A C21A 1_555 1_555
C9A C27A 1_555 1_555
N6A C51A 1_555 1_555
C10A O10A 1_555 1_555
N8A C30A 1_555 1_555
C16A C39A 1_555 1_555
C25A C26A 1_555 1_555
C28A C47A 1_555 1_555
C29A C41A 1_555 1_555
C35A C36A 1_555 1_555
C38A C55A 1_555 1_555
C40A C50A 1_555 1_555
C43A C49A 1_555 1_555
C45A C48A 1_555 1_555
N10A C60A 1_555 1_555

#END
