
#######################################################################
#
#                 Cambridge Crystallographic Data Centre
#                                CCDC 
#
#######################################################################
#
# If this CIF has been generated from an entry in the Cambridge 
# Structural Database, then it will include bibliographic, chemical, 
# crystal, experimental, refinement or atomic coordinate data resulting 
# from the CCDC's data processing and validation procedures.
#
#######################################################################

data_GINDEM
_symmetry_cell_setting           monoclinic
_symmetry_space_group_name_H-M   'C 2/c'
_symmetry_Int_Tables_number      15
_space_group_name_Hall           '-C 2yn'
loop_
_symmetry_equiv_pos_site_id
_symmetry_equiv_pos_as_xyz
1 x,y,z
2 1/2+x,1/2+y,z
3 x,-y,1/2+z
4 1/2+x,1/2-y,1/2+z
5 -x,-y,-z
6 1/2-x,1/2-y,-z
7 -x,y,1/2-z
8 1/2-x,1/2+y,1/2-z
_cell_length_a                   22.307(5)
_cell_length_b                   10.481(3)
_cell_length_c                   20.282(3)
_cell_angle_alpha                90
_cell_angle_beta                 122.409(17)
_cell_angle_gamma                90
_cell_volume                     4003.34
loop_
_atom_site_label
_atom_site_type_symbol
_atom_site_fract_x
_atom_site_fract_y
_atom_site_fract_z
Cd1 Cd -0.25000 0.25000 0.00000
Cd2 Cd -0.100070(24) 0.13229(5) 0.19491(3)
Cl1 Cl -0.50000 0.19978(23) -0.25000
Cl2 Cl -0.50000 0.54470(23) -0.25000
Cl3 Cl -0.13753(10) 0.10902(21) 0.05305(9)
Cl4 Cl -0.20473(9) 0.29633(19) 0.14473(9)
O1 O -0.19178(22) -0.0164(5) 0.16978(23)
O2 O -0.0709(3) -0.2692(5) 0.3882(3)
O3 O -0.30116(25) 0.0601(5) 0.0139(3)
N1 N -0.08990(25) 0.1055(5) 0.3167(3)
N2 N -0.16763(25) -0.1165(5) 0.2139(3)
N3 N -0.1107(3) -0.2355(5) 0.3184(3)
C1 C -0.0665(3) 0.2065(7) 0.3639(4)
C2 C -0.0559(4) 0.2034(7) 0.4383(4)
C3 C -0.0735(3) 0.0941(7) 0.4621(3)
C4 C -0.0962(3) -0.0097(7) 0.4151(4)
C5 C -0.1043(3) -0.0017(6) 0.3419(3)
C6 C -0.1270(3) -0.1142(6) 0.2917(3)
C7 C -0.1438(4) -0.3322(6) 0.2533(4)
C8 C -0.1870(4) -0.2469(7) 0.1801(4)
C9 C -0.0857(6) -0.4047(12) 0.2550(6)
C10 C -0.1855(6) -0.4218(11) 0.2699(6)
C11 C -0.1680(9) -0.2581(10) 0.1217(6)
C12 C -0.2644(5) -0.2576(12) 0.1414(11)
C13 C -0.3627(6) 0.0629(13) 0.0133(7)
C14 C -0.4173(6) 0.0117(17) -0.0387(8)
H1 H -0.271 0.026 0.076
H2 H -0.055 0.284 0.347
H3 H -0.037 0.276 0.473
H4 H -0.070 0.092 0.512
H5 H -0.108 -0.089 0.431
H6 H -0.055 -0.345 0.246
H7 H -0.052 -0.442 0.306
H8 H -0.101 -0.468 0.217
H9 H -0.226 -0.375 0.268
H10 H -0.209 -0.487 0.230
H11 H -0.160 -0.461 0.319
H12 H -0.113 -0.249 0.149
H13 H -0.177 -0.335 0.095
H14 H -0.184 -0.188 0.085
H15 H -0.273 -0.248 0.196
H16 H -0.295 -0.188 0.116
H17 H -0.288 -0.335 0.126
H18 H -0.379 0.153 0.013
H19 H -0.357 0.029 0.063
H20 H -0.460 0.016 -0.036
H21 H -0.431 0.043 -0.090
H22 H -0.409 -0.080 -0.040
Cl3E Cl -0.36247(10) 0.39098(21) -0.05305(9)
Cd2E Cd -0.399930(24) 0.36771(5) -0.19491(3)
Cl1C Cl 0.00000 0.30022(23) 0.25000
Cd2C Cd -0.600070(24) 0.36771(5) -0.30509(3)
Cl2C Cl 0.00000 -0.04470(23) 0.25000
Cl4E Cl -0.29527(9) 0.20367(19) -0.14473(9)
O3E O -0.19884(25) 0.4399(5) -0.0139(3)
C13E C -0.1373(6) 0.4371(13) -0.0133(7)
C14E C -0.0827(6) 0.4883(17) 0.0387(8)
H20E H -0.040 0.484 0.036
H21E H -0.069 0.457 0.090
H22E H -0.091 0.580 0.040
H18E H -0.121 0.347 -0.013
H19E H -0.143 0.471 -0.063
H1E H -0.229 0.474 -0.076
O1E O -0.30822(22) 0.5164(5) -0.16978(23)
N2E N -0.33237(25) 0.6165(5) -0.2139(3)
C6E C -0.3730(3) 0.6142(6) -0.2917(3)
N3E N -0.3893(3) 0.7355(5) -0.3184(3)
O2E O -0.4291(3) 0.7692(5) -0.3882(3)
C7E C -0.3562(4) 0.8322(6) -0.2533(4)
C8E C -0.3130(4) 0.7469(7) -0.1801(4)
C11E C -0.3320(9) 0.7581(10) -0.1217(6)
H12E H -0.387 0.749 -0.149
H13E H -0.323 0.835 -0.095
H14E H -0.316 0.688 -0.085
C12E C -0.2356(5) 0.7576(12) -0.1414(11)
H15E H -0.227 0.748 -0.196
H16E H -0.205 0.688 -0.116
H17E H -0.212 0.835 -0.126
C9E C -0.4143(6) 0.9047(12) -0.2550(6)
H6E H -0.445 0.845 -0.246
H7E H -0.448 0.942 -0.306
H8E H -0.399 0.968 -0.217
C10E C -0.3145(6) 0.9218(11) -0.2699(6)
H9E H -0.274 0.875 -0.268
H10E H -0.291 0.987 -0.230
H11E H -0.340 0.961 -0.319
C5E C -0.3957(3) 0.5017(6) -0.3419(3)
N1E N -0.41010(25) 0.3945(5) -0.3167(3)
C1E C -0.4335(3) 0.2935(7) -0.3639(4)
C2E C -0.4441(4) 0.2966(7) -0.4383(4)
C3E C -0.4265(3) 0.4059(7) -0.4621(3)
C4E C -0.4038(3) 0.5097(7) -0.4151(4)
H5E H -0.392 0.589 -0.431
H4E H -0.430 0.408 -0.512
H3E H -0.463 0.224 -0.473
H2E H -0.445 0.216 -0.347
loop_
_geom_bond_atom_site_label_1
_geom_bond_atom_site_label_2
_geom_bond_site_symmetry_1
_geom_bond_site_symmetry_2
Cd1 Cl3 1_555 1_555
Cd2 Cl3 1_555 1_555
Cl1 Cd2E 1_555 1_555
Cl2 Cd2E 1_555 1_555
Cl4 Cd1 1_555 1_555
O1 Cd2 1_555 1_555
O2 N3 1_555 1_555
O3 Cd1 1_555 1_555
N1 Cd2 1_555 1_555
N2 O1 1_555 1_555
N3 C6 1_555 1_555
C1 N1 1_555 1_555
C2 C1 1_555 1_555
C3 C2 1_555 1_555
C4 C3 1_555 1_555
C5 N1 1_555 1_555
C6 N2 1_555 1_555
C7 N3 1_555 1_555
C8 N2 1_555 1_555
C9 C7 1_555 1_555
C10 C7 1_555 1_555
C11 C8 1_555 1_555
C12 C8 1_555 1_555
C13 O3 1_555 1_555
C14 C13 1_555 1_555
H1 O3 1_555 1_555
H2 C1 1_555 1_555
H3 C2 1_555 1_555
H4 C3 1_555 1_555
H5 C4 1_555 1_555
H6 C9 1_555 1_555
H7 C9 1_555 1_555
H8 C9 1_555 1_555
H9 C10 1_555 1_555
H10 C10 1_555 1_555
H11 C10 1_555 1_555
H12 C11 1_555 1_555
H13 C11 1_555 1_555
H14 C11 1_555 1_555
H15 C12 1_555 1_555
H16 C12 1_555 1_555
H17 C12 1_555 1_555
H18 C13 1_555 1_555
H19 C13 1_555 1_555
H20 C14 1_555 1_555
H21 C14 1_555 1_555
H22 C14 1_555 1_555
Cl3E Cd1 1_555 1_555
Cd2E Cl3E 1_555 1_555
Cl1C Cd2 1_555 1_555
Cd2C Cl1 1_555 1_555
Cl2C Cd2 1_555 1_555
Cl4E Cd1 1_555 1_555
O3E Cd1 1_555 1_555
C13E O3E 1_555 1_555
C14E C13E 1_555 1_555
H20E C14E 1_555 1_555
H21E C14E 1_555 1_555
H22E C14E 1_555 1_555
H18E C13E 1_555 1_555
H19E C13E 1_555 1_555
H1E O3E 1_555 1_555
O1E Cd2E 1_555 1_555
N2E O1E 1_555 1_555
C6E N2E 1_555 1_555
N3E C6E 1_555 1_555
O2E N3E 1_555 1_555
C7E N3E 1_555 1_555
C8E N2E 1_555 1_555
C11E C8E 1_555 1_555
H12E C11E 1_555 1_555
H13E C11E 1_555 1_555
H14E C11E 1_555 1_555
C12E C8E 1_555 1_555
H15E C12E 1_555 1_555
H16E C12E 1_555 1_555
H17E C12E 1_555 1_555
C9E C7E 1_555 1_555
H6E C9E 1_555 1_555
H7E C9E 1_555 1_555
H8E C9E 1_555 1_555
C10E C7E 1_555 1_555
H9E C10E 1_555 1_555
H10E C10E 1_555 1_555
H11E C10E 1_555 1_555
C5E C6E 1_555 1_555
N1E Cd2E 1_555 1_555
C1E N1E 1_555 1_555
C2E C1E 1_555 1_555
C3E C2E 1_555 1_555
C4E C5E 1_555 1_555
H5E C4E 1_555 1_555
H4E C3E 1_555 1_555
H3E C2E 1_555 1_555
H2E C1E 1_555 1_555
Cd2 Cl4 1_555 1_555
Cl2 Cd2C 1_555 1_555
C4 C5 1_555 1_555
C5 C6 1_555 1_555
C7 C8 1_555 1_555
Cd2E Cl4E 1_555 1_555
C7E C8E 1_555 1_555
C5E N1E 1_555 1_555
C3E C4E 1_555 1_555

#END
