
#######################################################################
#
#                 Cambridge Crystallographic Data Centre
#                                CCDC 
#
#######################################################################
#
# If this CIF has been generated from an entry in the Cambridge 
# Structural Database, then it will include bibliographic, chemical, 
# crystal, experimental, refinement or atomic coordinate data resulting 
# from the CCDC's data processing and validation procedures.
#
#######################################################################

data_GINROL
_symmetry_cell_setting           orthorhombic
_symmetry_space_group_name_H-M   'P b c n'
_symmetry_Int_Tables_number      60
_space_group_name_Hall           '-P 2n 2ab'
loop_
_symmetry_equiv_pos_site_id
_symmetry_equiv_pos_as_xyz
1 x,y,z
2 1/2-x,1/2-y,1/2+z
3 -x,y,1/2-z
4 1/2+x,1/2-y,-z
5 -x,-y,-z
6 1/2+x,1/2+y,1/2-z
7 x,-y,1/2+z
8 1/2-x,1/2+y,z
_cell_length_a                   25.742(6)
_cell_length_b                   13.556(3)
_cell_length_c                   10.828(2)
_cell_angle_alpha                90
_cell_angle_beta                 90
_cell_angle_gamma                90
_cell_volume                     3778.52
loop_
_atom_site_label
_atom_site_type_symbol
_atom_site_fract_x
_atom_site_fract_y
_atom_site_fract_z
Zn1 Zn 0.0000 0.01158(2) 0.7500
P1 P 0.08355(2) 0.02690(4) 0.48464(5)
O1 O 0.04927(7) 0.01754(11) 0.59192(16)
O2 O 0.06799(6) -0.01055(11) 0.36218(15)
O3 O 0.13759(7) -0.02266(14) 0.52539(16)
N1 N 0.0000 0.16624(19) 0.7500
O4 O 0.10013(7) 0.14036(12) 0.46029(16)
N2 N 0.0000 0.8565(2) 0.7500
C1 C 0.17627(9) -0.05199(18) 0.4447(2)
C2 C 0.13218(11) 0.35711(19) 0.7120(3)
O5 O 0.13737(11) 0.52154(16) 0.7658(3)
C3 C 0.11390(9) 0.20867(16) 0.5485(2)
C4 C 0.12178(12) 0.30433(19) 0.5055(3)
C5 C 0.18843(11) -0.0004(2) 0.3382(3)
C6 C 0.20227(12) -0.1368(2) 0.4770(3)
C7 C 0.11871(10) 0.18658(18) 0.6729(2)
C8 C 0.25075(11) -0.1248(2) 0.2932(3)
C9 C 0.22586(12) -0.0383(3) 0.2611(3)
H1 H 0.2343 -0.0060 0.1881
C10 C 0.23996(12) -0.1737(2) 0.4008(3)
N3 N 0.13452(12) 0.4370(2) 0.8025(3)
N4 N 0.28764(11) -0.1689(2) 0.2059(3)
C11 C 0.12743(12) 0.2621(2) 0.7551(3)
O6 O 0.28888(12) -0.1360(2) 0.1017(3)
C12 C -0.04099(13) 0.8057(2) 0.7920(3)
H2 H -0.0699 0.8400 0.8206
C13 C 0.13066(11) 0.37933(18) 0.5881(3)
H3 H 0.1355 0.4437 0.5609
C14 C 0.00486(9) 0.21682(18) 0.8548(3)
H4 H 0.0087 0.1822 0.9284
C15 C 0.00437(11) 0.3189(2) 0.8587(4)
H5 H 0.0070 0.3518 0.9338
C16 C 0.0000 0.3712(3) 0.7500
O7 O 0.31469(11) -0.2373(2) 0.2417(3)
O8 O 0.12975(19) 0.4159(2) 0.9109(3)
C17 C -0.04165(18) 0.7039(3) 0.7941(5)
C18 C 0.0000 0.6522(3) 0.7500
H6 H 0.1131(9) 0.1228(19) 0.708(2)
H7 H 0.1688(10) 0.057(2) 0.321(3)
H8 H 0.2598(11) -0.232(2) 0.410(3)
H9 H 0.1964(11) -0.163(2) 0.548(3)
H10 H 0.1194(10) 0.318(2) 0.423(3)
H11 H -0.0722(13) 0.683(3) 0.819(3)
C19 C 0.0076(2) 0.4789(4) 0.7138(5)
C20 C -0.0126(2) 0.5432(4) 0.7938(5)
H12 H 0.1291(11) 0.250(2) 0.838(3)
Zn1F Zn 0.0000 -0.01158(2) 0.2500
Zn1_2 Zn 0.0000 1.01158(2) 0.7500
Zn1F_2 Zn 0.0000 -0.01158(2) 1.2500
P1B P -0.08355(2) 0.02690(4) 1.01536(5)
O1B O -0.04927(7) 0.01754(11) 0.90808(16)
O2B O -0.06799(6) -0.01055(11) 1.13782(15)
O2F O 0.06799(6) 0.01055(11) 0.86218(15)
O2D O -0.06799(6) 0.01055(11) 0.63782(15)
O3B O -0.13759(7) -0.02266(14) 0.97461(16)
O4B O -0.10013(7) 0.14036(12) 1.03971(16)
N2_2 N 0.0000 -0.1435(2) 0.7500
C1B C -0.17627(9) -0.05199(18) 1.0553(2)
C2B C -0.13218(11) 0.35711(19) 0.7880(3)
O5B O -0.13737(11) 0.52154(16) 0.7342(3)
C3B C -0.11390(9) 0.20867(16) 0.9515(2)
C4B C -0.12178(12) 0.30433(19) 0.9945(3)
C5B C -0.18843(11) -0.0004(2) 1.1618(3)
C6B C -0.20227(12) -0.1368(2) 1.0230(3)
C7B C -0.11871(10) 0.18658(18) 0.8271(2)
C8B C -0.25075(11) -0.1248(2) 1.2068(3)
C9B C -0.22586(12) -0.0383(3) 1.2389(3)
H1B H -0.2343 -0.0060 1.3119
C10B C -0.23996(12) -0.1737(2) 1.0992(3)
N3B N -0.13452(12) 0.4370(2) 0.6975(3)
N4B N -0.28764(11) -0.1689(2) 1.2941(3)
C11B C -0.12743(12) 0.2621(2) 0.7449(3)
O6B O -0.28888(12) -0.1360(2) 1.3983(3)
C12B C 0.04099(13) 0.8057(2) 0.7080(3)
H2B H 0.0699 0.8400 0.6794
C13B C -0.13066(11) 0.37933(18) 0.9119(3)
H3B H -0.1355 0.4437 0.9391
C14B C -0.00486(9) 0.21682(18) 0.6452(3)
H4B H -0.0087 0.1822 0.5716
C15B C -0.00437(11) 0.3189(2) 0.6413(4)
H5B H -0.0070 0.3518 0.5662
O7B O -0.31469(11) -0.2373(2) 1.2583(3)
O8B O -0.12975(19) 0.4159(2) 0.5891(3)
C17B C 0.04165(18) 0.7039(3) 0.7059(5)
H6B H -0.1131(9) 0.1228(19) 0.792(2)
H7B H -0.1688(10) 0.057(2) 1.179(3)
H8B H -0.2598(11) -0.232(2) 1.090(3)
H9B H -0.1964(11) -0.163(2) 0.952(3)
H10B H -0.1194(10) 0.318(2) 1.077(3)
H11B H 0.0722(13) 0.683(3) 0.681(3)
C19B C -0.0076(2) 0.4789(4) 0.7862(5)
C20B C 0.0126(2) 0.5432(4) 0.7062(5)
H12B H -0.1291(11) 0.250(2) 0.662(3)
loop_
_geom_bond_atom_site_label_1
_geom_bond_atom_site_label_2
_geom_bond_site_symmetry_1
_geom_bond_site_symmetry_2
Zn1 O1 1_555 1_555
P1 O1 1_555 1_555
O2 P1 1_555 1_555
O3 P1 1_555 1_555
N1 Zn1 1_555 1_555
O4 P1 1_555 1_555
N2 C12 1_555 1_555
C1 O3 1_555 1_555
C2 N3 1_555 1_555
O5 N3 1_555 1_555
C3 O4 1_555 1_555
C4 C3 1_555 1_555
C5 C1 1_555 1_555
C6 C1 1_555 1_555
C7 C3 1_555 1_555
C8 C9 1_555 1_555
C9 C5 1_555 1_555
H1 C9 1_555 1_555
C10 C6 1_555 1_555
N3 O8 1_555 1_555
N4 C8 1_555 1_555
C11 C2 1_555 1_555
O6 N4 1_555 1_555
C12 H2 1_555 1_555
C13 C2 1_555 1_555
H3 C13 1_555 1_555
C14 N1 1_555 1_555
H4 C14 1_555 1_555
C15 C14 1_555 1_555
H5 C15 1_555 1_555
C16 C15 1_555 1_555
O7 N4 1_555 1_555
C17 C12 1_555 1_555
C18 C17 1_555 1_555
H6 C7 1_555 1_555
H7 C5 1_555 1_555
H8 C10 1_555 1_555
H9 C6 1_555 1_555
H10 C4 1_555 1_555
H11 C17 1_555 1_555
C19 C16 1_555 1_555
C20 C18 1_555 1_555
H12 C11 1_555 1_555
Zn1F O2 1_555 1_555
Zn1_2 N2 1_555 1_555
Zn1F_2 O2B 1_555 1_555
P1B O1B 1_555 1_555
O1B Zn1 1_555 1_555
O2B P1B 1_555 1_555
O2F Zn1 1_555 1_555
O2D Zn1 1_555 1_555
O3B P1B 1_555 1_555
O4B P1B 1_555 1_555
N2_2 Zn1 1_555 1_555
C1B O3B 1_555 1_555
C2B N3B 1_555 1_555
O5B N3B 1_555 1_555
C3B O4B 1_555 1_555
C4B C3B 1_555 1_555
C5B C1B 1_555 1_555
C6B C1B 1_555 1_555
C7B C3B 1_555 1_555
C8B C9B 1_555 1_555
C9B C5B 1_555 1_555
H1B C9B 1_555 1_555
C10B C6B 1_555 1_555
N3B O8B 1_555 1_555
N4B C8B 1_555 1_555
C11B C2B 1_555 1_555
O6B N4B 1_555 1_555
C12B N2 1_555 1_555
H2B C12B 1_555 1_555
C13B C2B 1_555 1_555
H3B C13B 1_555 1_555
C14B N1 1_555 1_555
H4B C14B 1_555 1_555
C15B C16 1_555 1_555
H5B C15B 1_555 1_555
O7B N4B 1_555 1_555
C17B C18 1_555 1_555
H6B C7B 1_555 1_555
H7B C5B 1_555 1_555
H8B C10B 1_555 1_555
H9B C6B 1_555 1_555
H10B C4B 1_555 1_555
H11B C17B 1_555 1_555
C19B C16 1_555 1_555
C20B C18 1_555 1_555
H12B C11B 1_555 1_555
C4 C13 1_555 1_555
C7 C11 1_555 1_555
C8 C10 1_555 1_555
C19 C20 1_555 1_555
C19 C19B 1_555 1_555
C19 C20B 1_555 1_555
C20 C19B 1_555 1_555
C20 C20B 1_555 1_555
C4B C13B 1_555 1_555
C7B C11B 1_555 1_555
C8B C10B 1_555 1_555
C12B C17B 1_555 1_555
C14B C15B 1_555 1_555
C19B C20B 1_555 1_555

#END
