
#######################################################################
#
#                 Cambridge Crystallographic Data Centre
#                                CCDC 
#
#######################################################################
#
# If this CIF has been generated from an entry in the Cambridge 
# Structural Database, then it will include bibliographic, chemical, 
# crystal, experimental, refinement or atomic coordinate data resulting 
# from the CCDC's data processing and validation procedures.
#
#######################################################################

data_GINSUT
_symmetry_cell_setting           monoclinic
_symmetry_space_group_name_H-M   'C 2/c'
_symmetry_Int_Tables_number      15
_space_group_name_Hall           '-C 2yn'
loop_
_symmetry_equiv_pos_site_id
_symmetry_equiv_pos_as_xyz
1 x,y,z
2 -x,y,1/2-z
3 1/2+x,1/2+y,z
4 1/2-x,1/2+y,1/2-z
5 -x,-y,-z
6 x,-y,1/2+z
7 1/2-x,1/2-y,-z
8 1/2+x,1/2-y,1/2+z
_cell_length_a                   11.6332(6)
_cell_length_b                   12.8814(7)
_cell_length_c                   13.4106(7)
_cell_angle_alpha                90
_cell_angle_beta                 96.6390(10)
_cell_angle_gamma                90
_cell_volume                     1996.13
loop_
_atom_site_label
_atom_site_type_symbol
_atom_site_fract_x
_atom_site_fract_y
_atom_site_fract_z
Cd1 Cd 0.0000 0.23373(2) 0.2500
N1 N 0.1075(2) 0.1510(2) 0.37608(19)
N2 N 0.2634(2) 0.1162(2) 0.47922(19)
O1 O 0.1485(3) 0.2275(2) 0.1385(2)
O2 O 0.1472(2) 0.3599(2) 0.23908(19)
C1 C 0.1923(3) 0.3095(3) 0.1747(3)
C2 C 0.3070(3) 0.3457(3) 0.1415(3)
H1 H 0.3060 0.3346 0.0698
H2 H 0.3167 0.4194 0.1545
C3 C 0.4076(3) 0.2868(3) 0.1971(2)
C4 C 0.4095(3) 0.1785(3) 0.1973(3)
H3 H 0.3493 0.1417 0.1618
C5 C 0.5000 0.1260(4) 0.2500
H4 H 0.5000 0.0538 0.2500
C6 C 0.5000 0.3389(3) 0.2500
H5 H 0.5000 0.4110 0.2500
C7 C 0.0754(3) 0.1150(3) 0.4643(3)
H6 H -0.0005 0.1069 0.4783
C8 C 0.1706(3) 0.0929(3) 0.5283(3)
H7 H 0.1723 0.0669 0.5931
C9 C 0.2217(3) 0.1507(3) 0.3887(2)
H8 H 0.2676 0.1720 0.3401
C10 C 0.3863(3) 0.1044(3) 0.5161(3)
H9 H 0.3957 0.1067 0.5889
H10 H 0.4293 0.1619 0.4921
C11 C 0.4356(2) 0.0037(2) 0.4821(2)
H11 H 0.4237 -0.0002 0.4094
H12 H 0.3954 -0.0542 0.5087
N1D N 0.8925(2) -0.1510(2) 0.62392(19)
N2D N 0.7366(2) -0.1162(2) 0.52078(19)
C7D C 0.9246(3) -0.1150(3) 0.5357(3)
H6D H 1.0005 -0.1069 0.5217
C8D C 0.8294(3) -0.0929(3) 0.4717(3)
H7D H 0.8277 -0.0669 0.4069
C9D C 0.7783(3) -0.1507(3) 0.6113(2)
H8D H 0.7324 -0.1720 0.6599
C10D C 0.6137(3) -0.1044(3) 0.4839(3)
H9D H 0.6043 -0.1067 0.4111
H10D H 0.5707 -0.1619 0.5079
C11D C 0.5644(2) -0.0037(2) 0.5179(2)
H11D H 0.5763 0.0002 0.5906
H12D H 0.6046 0.0542 0.4913
O1A O 0.8515(3) 0.2275(2) 0.3615(2)
O2A O 0.8528(2) 0.3599(2) 0.26092(19)
C1A C 0.8077(3) 0.3095(3) 0.3253(3)
C2A C 0.6930(3) 0.3457(3) 0.3585(3)
H1A H 0.6940 0.3346 0.4302
H2A H 0.6833 0.4194 0.3455
C3A C 0.5924(3) 0.2868(3) 0.3029(2)
C4A C 0.5905(3) 0.1785(3) 0.3027(3)
H3A H 0.6507 0.1417 0.3382
Cd1_2 Cd 1.0000 0.23373(2) 0.2500
Cd1D Cd 1.0000 -0.23373(2) 0.7500
N1A N -0.1075(2) 0.1510(2) 0.12392(19)
O1A_2 O -0.1485(3) 0.2275(2) 0.3615(2)
O2A_2 O -0.1472(2) 0.3599(2) 0.26092(19)
loop_
_geom_bond_atom_site_label_1
_geom_bond_atom_site_label_2
_geom_bond_site_symmetry_1
_geom_bond_site_symmetry_2
Cd1 N1 1_555 1_555
N1 C7 1_555 1_555
N2 C8 1_555 1_555
O1 Cd1 1_555 1_555
O2 Cd1 1_555 1_555
C1 O1 1_555 1_555
C2 C1 1_555 1_555
H1 C2 1_555 1_555
H2 C2 1_555 1_555
C3 C2 1_555 1_555
C4 C3 1_555 1_555
H3 C4 1_555 1_555
C5 C4 1_555 1_555
H4 C5 1_555 1_555
C6 C3 1_555 1_555
H5 C6 1_555 1_555
C7 H6 1_555 1_555
C8 C7 1_555 1_555
H7 C8 1_555 1_555
C9 N1 1_555 1_555
H8 C9 1_555 1_555
C10 N2 1_555 1_555
H9 C10 1_555 1_555
H10 C10 1_555 1_555
C11 C10 1_555 1_555
H11 C11 1_555 1_555
H12 C11 1_555 1_555
N1D C7D 1_555 1_555
N2D C8D 1_555 1_555
C7D H6D 1_555 1_555
C8D C7D 1_555 1_555
H7D C8D 1_555 1_555
C9D N1D 1_555 1_555
H8D C9D 1_555 1_555
C10D N2D 1_555 1_555
H9D C10D 1_555 1_555
H10D C10D 1_555 1_555
C11D C11 1_555 1_555
H11D C11D 1_555 1_555
H12D C11D 1_555 1_555
O1A C1A 1_555 1_555
O2A C1A 1_555 1_555
C1A C2A 1_555 1_555
C2A H1A 1_555 1_555
H2A C2A 1_555 1_555
C3A C6 1_555 1_555
C4A C5 1_555 1_555
H3A C4A 1_555 1_555
Cd1_2 O1A 1_555 1_555
Cd1D N1D 1_555 1_555
N1A Cd1 1_555 1_555
O1A_2 Cd1 1_555 1_555
O2A_2 Cd1 1_555 1_555
N2 C9 1_555 1_555
O2 C1 1_555 1_555
N2D C9D 1_555 1_555
C10D C11D 1_555 1_555
O2A Cd1_2 1_555 1_555
C2A C3A 1_555 1_555
C3A C4A 1_555 1_555

#END
