
#######################################################################
#
#                 Cambridge Crystallographic Data Centre
#                                CCDC 
#
#######################################################################
#
# If this CIF has been generated from an entry in the Cambridge 
# Structural Database, then it will include bibliographic, chemical, 
# crystal, experimental, refinement or atomic coordinate data resulting 
# from the CCDC's data processing and validation procedures.
#
#######################################################################

data_GINTON
_symmetry_cell_setting           triclinic
_symmetry_space_group_name_H-M   'P -1'
_symmetry_Int_Tables_number      2
_space_group_name_Hall           '-P 1'
loop_
_symmetry_equiv_pos_site_id
_symmetry_equiv_pos_as_xyz
1 x,y,z
2 -x,-y,-z
_cell_length_a                   7.0651(3)
_cell_length_b                   10.9785(6)
_cell_length_c                   16.1171(6)
_cell_angle_alpha                109.700(3)
_cell_angle_beta                 91.681(3)
_cell_angle_gamma                93.868(2)
_cell_volume                     1172.45
loop_
_atom_site_label
_atom_site_type_symbol
_atom_site_fract_x
_atom_site_fract_y
_atom_site_fract_z
Sm1 Sm 0.48296(8) 0.38258(6) 0.24350(4)
Sm2 Sm 0.26391(7) 0.56405(5) -0.02969(3)
P1 P 0.4148(4) 0.6334(3) 0.20044(18)
P2 P 0.2312(3) 0.3169(2) 0.03128(16)
O1 O 0.3103(11) 0.5782(8) 0.2646(5)
O2 O 0.2839(10) 0.6433(7) 0.1284(5)
O3 O 0.5745(11) 0.5470(8) 0.1685(5)
O4 O 0.7712(13) 0.8419(7) 0.5101(5)
H1 H 0.8206 0.8575 0.5597
O5 O 0.8117(11) 1.0587(7) 0.5482(5)
O6 O 0.5982(13) 1.2543(7) 0.3307(6)
O7 O 0.4234(12) 1.1390(7) 0.2110(5)
O8 O 0.4027(9) 0.3819(6) -0.0007(5)
O9 O 0.2659(10) 0.3143(7) 0.1232(5)
O10 O 0.0622(9) 0.3904(6) 0.0177(4)
O11 O -0.0513(11) 0.0999(7) -0.2884(5)
H2 H -0.0875 0.0838 -0.3401
O12 O -0.0715(11) -0.1157(7) -0.3301(5)
O13 O 0.2888(11) -0.2995(7) -0.1279(5)
O14 O 0.2865(10) -0.1912(7) 0.0133(5)
O15 O 0.1912(12) 0.3552(8) 0.3181(6)
O17 O 0.5336(14) 0.5356(9) 0.4018(6)
O18 O 0.8367(13) 0.4633(10) 0.2908(6)
O19 O 0.0652(11) 0.4210(8) -0.1637(6)
C1 C 0.5101(14) 0.7949(10) 0.2671(7)
C2 C 0.6004(14) 0.8103(10) 0.3493(7)
H3 H 0.6199 0.7375 0.3646
C3 C 0.6608(14) 0.9331(10) 0.4079(7)
C4 C 0.6347(15) 1.0403(10) 0.3841(7)
H4 H 0.6764 1.1224 0.4231
C5 C 0.5468(15) 1.0283(10) 0.3024(7)
C6 C 0.4847(14) 0.9046(10) 0.2447(6)
H5 H 0.4254 0.8954 0.1904
C7 C 0.7554(15) 0.9501(10) 0.4953(7)
C8 C 0.5200(16) 1.1483(10) 0.2795(7)
C9 C 0.1853(13) 0.1516(9) -0.0423(7)
C10 C 0.0932(14) 0.1313(9) -0.1242(6)
H6 H 0.0543 0.2020 -0.1378
C11 C 0.0590(14) 0.0085(10) -0.1852(6)
C12 C 0.1183(14) -0.0975(10) -0.1657(6)
H7 H 0.0974 -0.1805 -0.2072
C13 C 0.2078(13) -0.0796(9) -0.0851(7)
C14 C 0.2395(13) 0.0456(10) -0.0223(7)
H8 H 0.2970 0.0572 0.0328
C15 C -0.0297(15) -0.0101(10) -0.2736(7)
C16 C 0.2652(14) -0.1945(9) -0.0636(7)
Sm1_2 Sm 0.48296(8) 1.38258(6) 0.24350(4)
Sm1A Sm 0.51704(8) -0.38258(6) -0.24350(4)
Sm2A Sm 0.73609(7) 0.43595(5) 0.02969(3)
Sm2A_2 Sm -0.26391(7) 0.43595(5) 0.02969(3)
Sm2_2 Sm 0.26391(7) -0.43595(5) -0.02969(3)
O3A O 0.4255(11) 0.4530(8) -0.1685(5)
O6_2 O 0.5982(13) 0.2543(7) 0.3307(6)
O7_2 O 0.4234(12) 0.1390(7) 0.2110(5)
O8A O 0.5973(9) 0.6181(6) 0.0007(5)
O10A O -0.0622(9) 0.6096(6) -0.0177(4)
O13A O 0.7112(11) 0.2995(7) 0.1279(5)
O13_2 O 0.2888(11) 0.7005(7) -0.1279(5)
O14_2 O 0.2865(10) 0.8088(7) 0.0133(5)
O16 O 0.074(2) 0.6697(13) 0.3897(12)
O20 O 0.783(3) 1.4214(16) 0.4832(10)
loop_
_geom_bond_atom_site_label_1
_geom_bond_atom_site_label_2
_geom_bond_site_symmetry_1
_geom_bond_site_symmetry_2
Sm1 O1 1_555 1_555
Sm2 O2 1_555 1_555
P1 O1 1_555 1_555
P2 O8 1_555 1_555
O2 P1 1_555 1_555
O3 Sm1 1_555 1_555
O4 H1 1_555 1_555
O5 C7 1_555 1_555
O6 C8 1_555 1_555
O7 C8 1_555 1_555
O8 Sm2 1_555 1_555
O9 Sm1 1_555 1_555
O10 Sm2 1_555 1_555
O11 H2 1_555 1_555
O12 C15 1_555 1_555
O13 C16 1_555 1_555
O14 C16 1_555 1_555
O15 Sm1 1_555 1_555
O17 Sm1 1_555 1_555
O18 Sm1 1_555 1_555
O19 Sm2 1_555 1_555
C1 P1 1_555 1_555
C2 C1 1_555 1_555
H3 C2 1_555 1_555
C3 C2 1_555 1_555
C4 C3 1_555 1_555
H4 C4 1_555 1_555
C5 C4 1_555 1_555
C6 C1 1_555 1_555
H5 C6 1_555 1_555
C7 O4 1_555 1_555
C8 C5 1_555 1_555
C9 P2 1_555 1_555
C10 C9 1_555 1_555
H6 C10 1_555 1_555
C11 C10 1_555 1_555
C12 C11 1_555 1_555
H7 C12 1_555 1_555
C13 C12 1_555 1_555
C14 C9 1_555 1_555
H8 C14 1_555 1_555
C15 O11 1_555 1_555
C16 C13 1_555 1_555
Sm1_2 O6 1_555 1_555
Sm1A O13 1_555 1_555
Sm2A O3 1_555 1_555
Sm2A_2 O10 1_555 1_555
Sm2_2 O13 1_555 1_555
O3A Sm2 1_555 1_555
O6_2 Sm1 1_555 1_555
O7_2 Sm1 1_555 1_555
O8A Sm2 1_555 1_555
O10A Sm2 1_555 1_555
O13A Sm1 1_555 1_555
O13_2 Sm2 1_555 1_555
O14_2 Sm2 1_555 1_555
P1 O3 1_555 1_555
P2 O9 1_555 1_555
P2 O10 1_555 1_555
O7 Sm1_2 1_555 1_555
O8 Sm2A 1_555 1_555
O14 Sm2_2 1_555 1_555
C3 C7 1_555 1_555
C5 C6 1_555 1_555
C11 C15 1_555 1_555
C13 C14 1_555 1_555
Sm2A O8A 1_555 1_555
Sm2A O13A 1_555 1_555
Sm2A_2 O10A 1_555 1_555

#END
