
#######################################################################
#
#                 Cambridge Crystallographic Data Centre
#                                CCDC 
#
#######################################################################
#
# If this CIF has been generated from an entry in the Cambridge 
# Structural Database, then it will include bibliographic, chemical, 
# crystal, experimental, refinement or atomic coordinate data resulting 
# from the CCDC's data processing and validation procedures.
#
#######################################################################

data_GIPDOZ
_symmetry_cell_setting           monoclinic
_symmetry_space_group_name_H-M   'P 21/n'
_symmetry_Int_Tables_number      14
_space_group_name_Hall           '-P 2yn'
loop_
_symmetry_equiv_pos_site_id
_symmetry_equiv_pos_as_xyz
1 x,y,z
2 1/2-x,1/2+y,1/2-z
3 -x,-y,-z
4 1/2+x,1/2-y,1/2+z
_cell_length_a                   11.6842(19)
_cell_length_b                   28.589(5)
_cell_length_c                   12.268(2)
_cell_angle_alpha                90.00
_cell_angle_beta                 92.973(3)
_cell_angle_gamma                90.00
_cell_volume                     4092.48
loop_
_atom_site_label
_atom_site_type_symbol
_atom_site_fract_x
_atom_site_fract_y
_atom_site_fract_z
Mn1 Mn 0.77448(4) 0.024260(15) 1.02340(3)
Mn2 Mn 0.5000 0.0000 0.5000
S1 S 0.57623(6) 0.09780(2) 0.89385(6)
S2 S 0.40976(6) 0.06890(2) 0.28649(5)
S3 S 0.98836(6) 0.11170(2) 0.06290(6)
S4 S 1.14963(7) 0.09174(3) 0.64394(6)
O1 O 0.68320(19) 0.07336(8) 0.91832(19)
O2 O 0.53807(19) 0.12238(8) 0.98898(17)
O3 O 0.48731(19) 0.06839(8) 0.84387(17)
O4 O 0.68773(18) 0.25256(7) 0.60520(18)
H1 H 0.650(3) 0.2552(14) 0.555(3)
O5 O 0.48171(18) 0.04685(7) 0.20826(17)
O6 O 0.39856(17) 0.04209(7) 0.38566(16)
O7 O 0.29770(17) 0.08077(8) 0.23636(17)
O8 O 0.59203(18) 0.25399(7) 0.40450(17)
H2 H 0.650(5) 0.2611(19) 0.377(4)
O9 O 0.90690(19) 0.07376(8) 0.0584(2)
O10 O 0.99283(18) 0.13532(8) -0.04197(17)
O11 O 1.10012(17) 0.09771(7) 0.10770(17)
O12 O 0.80858(19) 0.25914(7) 0.33690(18)
H3 H 0.843(3) 0.2632(14) 0.387(3)
O13 O 1.0645(3) 0.05534(10) 0.6464(4)
O14 O 1.2090(4) 0.09631(13) 0.7477(2)
H4 H 1.1840 0.1197 0.7803
O15 O 1.2259(2) 0.08432(8) 0.55777(19)
O16 O 0.90246(19) 0.26607(7) 0.54099(17)
H5 H 0.848(4) 0.2713(14) 0.575(3)
C1 C 0.6098(2) 0.14080(10) 0.7982(2)
C2 C 0.5280(2) 0.15588(10) 0.7198(2)
H6 H 0.4552 0.1410 0.7135
C3 C 0.5523(2) 0.19267(10) 0.6507(2)
C4 C 0.6593(2) 0.21412(10) 0.6646(2)
C5 C 0.7428(2) 0.19846(10) 0.7414(2)
C6 C 0.7168(2) 0.16155(10) 0.8083(2)
H7 H 0.7724 0.1504 0.8612
C7 C 0.4655(2) 0.20779(10) 0.5610(2)
H8 H 0.3879 0.1983 0.5810
H9 H 0.4665 0.2423 0.5549
C8 C 0.4746(2) 0.12209(10) 0.3263(2)
C9 C 0.5425(2) 0.14521(10) 0.2538(2)
H10 H 0.5608 0.1304 0.1876
C10 C 0.5836(2) 0.18972(10) 0.2777(2)
C11 C 0.5568(2) 0.20970(10) 0.3766(2)
C12 C 0.4902(2) 0.18656(10) 0.4513(2)
C13 C 0.4484(2) 0.14258(10) 0.4240(2)
H11 H 0.4015 0.1264 0.4726
C14 C 0.6540(2) 0.21423(10) 0.1947(2)
H12 H 0.6226 0.2064 0.1204
H13 H 0.6470 0.2485 0.2044
C15 C 0.9355(2) 0.15341(10) 0.1523(2)
C16 C 1.0085(2) 0.17490(10) 0.2295(2)
H14 H 1.0864 0.1654 0.2375
C17 C 0.9685(2) 0.21012(9) 0.2951(2)
C18 C 0.8541(2) 0.22321(9) 0.2801(2)
C19 C 0.7789(2) 0.20096(10) 0.2041(2)
C20 C 0.8208(2) 0.16586(10) 0.1400(2)
H15 H 0.7714 0.1503 0.0878
C21 C 1.0470(2) 0.23165(10) 0.3836(2)
H16 H 1.1276 0.2285 0.3635
H17 H 1.0295 0.2654 0.3900
C22 C 1.0753(2) 0.14376(10) 0.6145(2)
C23 C 0.9985(2) 0.16072(10) 0.6875(2)
H18 H 0.9867 0.1440 0.7528
C24 C 0.9390(2) 0.20180(10) 0.6661(2)
C25 C 0.9560(2) 0.22461(9) 0.5673(2)
C26 C 1.0322(2) 0.20794(10) 0.4925(2)
C27 C 1.0927(2) 0.16752(10) 0.5184(2)
H19 H 1.1467 0.1559 0.4698
C28 C 0.8603(2) 0.22053(10) 0.7502(2)
H20 H 0.8954 0.2146 0.8241
H21 H 0.8525 0.2548 0.7408
O23 O 0.4211(3) 0.03480(12) 0.6310(2)
H32 H 0.364(5) 0.0507(19) 0.618(4)
H33 H 0.440(4) 0.0394(18) 0.688(5)
O24 O 0.6484(3) 0.04679(10) 0.5132(3)
H34 H 0.6241 0.0748 0.5100
H35 H 0.7043 0.0442 0.5798
O25 O 0.7115(2) 0.04252(10) 1.1770(2)
H36 H 0.752(4) 0.0437(17) 1.230(4)
H37 H 0.644(5) 0.0429(18) 1.194(4)
O26 O 0.6366(2) -0.02443(8) 0.9974(2)
H38 H 0.597(4) -0.0282(17) 0.939(4)
H39 H 0.602(4) -0.0366(15) 1.046(4)
O27 O 0.8925(2) -0.02548(8) 1.10363(19)
H40 H 0.876(4) -0.0427(16) 1.150(4)
H41 H 0.960(5) -0.0194(18) 1.111(4)
O28 O 0.86376(19) 0.00020(8) 0.88159(18)
H42 H 0.867(4) -0.0272(16) 0.877(3)
H43 H 0.839(4) 0.0091(16) 0.818(4)
Mn1B Mn 0.22552(4) -0.024260(15) -0.02340(3)
Mn1_2 Mn 0.77448(4) 0.024260(15) 0.02340(3)
Mn1B_2 Mn 0.22552(4) -0.024260(15) 0.97660(3)
S1B S 0.42377(6) -0.09780(2) 0.10615(6)
S2B S 0.59024(6) -0.06890(2) 0.71351(5)
S3B S 0.01164(6) -0.11170(2) 0.93710(6)
S4B S -0.14963(7) -0.09174(3) 0.35606(6)
O1B O 0.31680(19) -0.07336(8) 0.08168(19)
O2B O 0.46193(19) -0.12238(8) 0.01102(17)
O3B O 0.51269(19) -0.06839(8) 0.15613(17)
O4B O 0.31227(18) -0.25256(7) 0.39480(18)
H1B H 0.350(3) -0.2552(14) 0.445(3)
O5B O 0.51829(18) -0.04685(7) 0.79174(17)
O6B O 0.60144(17) -0.04209(7) 0.61434(16)
O7B O 0.70230(17) -0.08077(8) 0.76364(17)
O8B O 0.40797(18) -0.25399(7) 0.59550(17)
H2B H 0.350(5) -0.2611(19) 0.623(4)
O9B O 0.09310(19) -0.07376(8) 0.9416(2)
O9_2 O 0.90690(19) 0.07376(8) 1.0584(2)
O9B_2 O 0.09310(19) -0.07376(8) -0.0584(2)
O10B O 0.00717(18) -0.13532(8) 1.04197(17)
O11B O -0.10012(17) -0.09771(7) 0.89230(17)
O12B O 0.19142(19) -0.25914(7) 0.66310(18)
H3B H 0.157(3) -0.2632(14) 0.613(3)
O13B O -0.0645(3) -0.05534(10) 0.3536(4)
O14B O -0.2090(4) -0.09631(13) 0.2523(2)
H4B H -0.1840 -0.1197 0.2197
O15B O -0.2259(2) -0.08432(8) 0.44223(19)
O16B O 0.09754(19) -0.26607(7) 0.45901(17)
H5B H 0.152(4) -0.2713(14) 0.425(3)
C1B C 0.3902(2) -0.14080(10) 0.2018(2)
C2B C 0.4720(2) -0.15588(10) 0.2802(2)
H6B H 0.5448 -0.1410 0.2865
C3B C 0.4477(2) -0.19267(10) 0.3493(2)
C4B C 0.3407(2) -0.21412(10) 0.3354(2)
C5B C 0.2572(2) -0.19846(10) 0.2586(2)
C6B C 0.2832(2) -0.16155(10) 0.1917(2)
H7B H 0.2276 -0.1504 0.1388
C7B C 0.5345(2) -0.20779(10) 0.4390(2)
H8B H 0.6121 -0.1983 0.4190
H9B H 0.5335 -0.2423 0.4451
C8B C 0.5254(2) -0.12209(10) 0.6737(2)
C9B C 0.4575(2) -0.14521(10) 0.7462(2)
H10B H 0.4392 -0.1304 0.8124
C10B C 0.4164(2) -0.18972(10) 0.7223(2)
C11B C 0.4432(2) -0.20970(10) 0.6234(2)
C12B C 0.5098(2) -0.18656(10) 0.5487(2)
C13B C 0.5516(2) -0.14258(10) 0.5760(2)
H11B H 0.5985 -0.1264 0.5274
C14B C 0.3460(2) -0.21423(10) 0.8053(2)
H12B H 0.3774 -0.2064 0.8796
H13B H 0.3530 -0.2485 0.7956
C15B C 0.0645(2) -0.15341(10) 0.8477(2)
C16B C -0.0085(2) -0.17490(10) 0.7705(2)
H14B H -0.0864 -0.1654 0.7625
C17B C 0.0315(2) -0.21012(9) 0.7049(2)
C18B C 0.1459(2) -0.22321(9) 0.7199(2)
C19B C 0.2211(2) -0.20096(10) 0.7959(2)
C20B C 0.1792(2) -0.16586(10) 0.8600(2)
H15B H 0.2286 -0.1503 0.9122
C21B C -0.0470(2) -0.23165(10) 0.6164(2)
H16B H -0.1276 -0.2285 0.6365
H17B H -0.0295 -0.2654 0.6100
C22B C -0.0753(2) -0.14376(10) 0.3855(2)
C23B C 0.0015(2) -0.16072(10) 0.3125(2)
H18B H 0.0133 -0.1440 0.2472
C24B C 0.0610(2) -0.20180(10) 0.3339(2)
C25B C 0.0440(2) -0.22461(9) 0.4327(2)
C26B C -0.0322(2) -0.20794(10) 0.5075(2)
C27B C -0.0927(2) -0.16752(10) 0.4816(2)
H19B H -0.1467 -0.1559 0.5302
C28B C 0.1397(2) -0.22053(10) 0.2498(2)
H20B H 0.1046 -0.2146 0.1759
H21B H 0.1475 -0.2548 0.2592
O23B O 0.5789(3) -0.03480(12) 0.3690(2)
H32B H 0.636(5) -0.0507(19) 0.382(4)
H33B H 0.560(4) -0.0394(18) 0.312(5)
O24B O 0.3516(3) -0.04679(10) 0.4868(3)
H34B H 0.3759 -0.0748 0.4900
H35B H 0.2957 -0.0442 0.4202
O25B O 0.2885(2) -0.04252(10) -0.1770(2)
H36B H 0.248(4) -0.0437(17) -0.230(4)
H37B H 0.356(5) -0.0429(18) -0.194(4)
O26B O 0.3634(2) 0.02443(8) 0.0026(2)
H38B H 0.403(4) 0.0282(17) 0.061(4)
H39B H 0.398(4) 0.0366(15) -0.046(4)
O27B O 0.1075(2) 0.02548(8) -0.10363(19)
H40B H 0.124(4) 0.0427(16) -0.150(4)
H41B H 0.040(5) 0.0194(18) -0.111(4)
O28B O 0.13624(19) -0.00020(8) 0.11841(18)
H42B H 0.133(4) 0.0272(16) 0.123(3)
H43B H 0.161(4) -0.0091(16) 0.182(4)
O17 O 0.7613(8) 0.1193(3) 0.4518(9)
O18 O 0.8611(4) 0.04087(15) 0.3585(3)
H22 H 0.914(3) 0.0547(13) 0.354(3)
H23 H 0.886(6) 0.013(2) 0.363(5)
O19 O 1.1010(3) 0.06282(10) 0.3591(3)
H24 H 1.137(5) 0.0717(19) 0.305(5)
H25 H 1.135(5) 0.0670(19) 0.412(5)
O20 O 0.8299(2) 0.02948(11) -0.3328(2)
H26 H 0.886(4) 0.0448(16) -0.335(3)
H27 H 0.853(5) 0.003(2) -0.351(5)
O21 O 1.19937(19) 0.15459(8) 0.90974(18)
H28 H 1.2704 0.1581 0.9260
H29 H 1.1714 0.1387 0.9606
O22 O 0.33028(18) 0.13750(7) 0.06345(17)
H30 H 0.3208 0.1196 0.1175
H31 H 0.3965 0.1325 0.0403
loop_
_geom_bond_atom_site_label_1
_geom_bond_atom_site_label_2
_geom_bond_site_symmetry_1
_geom_bond_site_symmetry_2
Mn1 O1 1_555 1_555
Mn2 O6 1_555 1_555
S1 O1 1_555 1_555
S2 O5 1_555 1_555
S3 O9 1_555 1_555
S4 O13 1_555 1_555
O2 S1 1_555 1_555
O3 S1 1_555 1_555
O4 H1 1_555 1_555
O6 S2 1_555 1_555
O7 S2 1_555 1_555
O8 H2 1_555 1_555
O9 Mn1_2 1_555 1_555
O10 S3 1_555 1_555
O11 S3 1_555 1_555
O12 H3 1_555 1_555
O14 S4 1_555 1_555
H4 O14 1_555 1_555
O15 S4 1_555 1_555
O16 H5 1_555 1_555
C1 S1 1_555 1_555
C2 C1 1_555 1_555
H6 C2 1_555 1_555
C3 C2 1_555 1_555
C4 O4 1_555 1_555
C5 C4 1_555 1_555
C6 C1 1_555 1_555
H7 C6 1_555 1_555
C7 C3 1_555 1_555
H8 C7 1_555 1_555
H9 C7 1_555 1_555
C8 S2 1_555 1_555
C9 C8 1_555 1_555
H10 C9 1_555 1_555
C10 C9 1_555 1_555
C11 O8 1_555 1_555
C12 C7 1_555 1_555
C13 C8 1_555 1_555
H11 C13 1_555 1_555
C14 C10 1_555 1_555
H12 C14 1_555 1_555
H13 C14 1_555 1_555
C15 S3 1_555 1_555
C16 C15 1_555 1_555
H14 C16 1_555 1_555
C17 C16 1_555 1_555
C18 O12 1_555 1_555
C19 C14 1_555 1_555
C20 C15 1_555 1_555
H15 C20 1_555 1_555
C21 C17 1_555 1_555
H16 C21 1_555 1_555
H17 C21 1_555 1_555
C22 S4 1_555 1_555
C23 C22 1_555 1_555
H18 C23 1_555 1_555
C24 C23 1_555 1_555
C25 O16 1_555 1_555
C26 C21 1_555 1_555
C27 C22 1_555 1_555
H19 C27 1_555 1_555
C28 C5 1_555 1_555
H20 C28 1_555 1_555
H21 C28 1_555 1_555
O18 H22 1_555 1_555
H23 O18 1_555 1_555
O19 H24 1_555 1_555
H25 O19 1_555 1_555
O20 H26 1_555 1_555
H27 O20 1_555 1_555
O21 H28 1_555 1_555
H29 O21 1_555 1_555
O22 H30 1_555 1_555
H31 O22 1_555 1_555
O23 Mn2 1_555 1_555
H32 O23 1_555 1_555
H33 O23 1_555 1_555
O24 Mn2 1_555 1_555
H34 O24 1_555 1_555
H35 O24 1_555 1_555
O25 Mn1 1_555 1_555
H36 O25 1_555 1_555
H37 O25 1_555 1_555
O26 Mn1 1_555 1_555
H38 O26 1_555 1_555
H39 O26 1_555 1_555
O27 Mn1 1_555 1_555
H40 O27 1_555 1_555
H41 O27 1_555 1_555
O28 Mn1 1_555 1_555
H42 O28 1_555 1_555
H43 O28 1_555 1_555
Mn1B O1B 1_555 1_555
Mn1B_2 O9B 1_555 1_555
S1B O1B 1_555 1_555
S2B O5B 1_555 1_555
S3B O9B 1_555 1_555
S4B O13B 1_555 1_555
O2B S1B 1_555 1_555
O3B S1B 1_555 1_555
O4B H1B 1_555 1_555
O6B Mn2 1_555 1_555
O7B S2B 1_555 1_555
O8B H2B 1_555 1_555
O9_2 Mn1 1_555 1_555
O9B_2 Mn1B 1_555 1_555
O10B S3B 1_555 1_555
O11B S3B 1_555 1_555
O12B H3B 1_555 1_555
O14B S4B 1_555 1_555
H4B O14B 1_555 1_555
O15B S4B 1_555 1_555
O16B H5B 1_555 1_555
C1B S1B 1_555 1_555
C2B C1B 1_555 1_555
H6B C2B 1_555 1_555
C3B C2B 1_555 1_555
C4B O4B 1_555 1_555
C5B C4B 1_555 1_555
C6B C1B 1_555 1_555
H7B C6B 1_555 1_555
C7B C3B 1_555 1_555
H8B C7B 1_555 1_555
H9B C7B 1_555 1_555
C8B S2B 1_555 1_555
C9B C8B 1_555 1_555
H10B C9B 1_555 1_555
C10B C9B 1_555 1_555
C11B O8B 1_555 1_555
C12B C7B 1_555 1_555
C13B C8B 1_555 1_555
H11B C13B 1_555 1_555
C14B C10B 1_555 1_555
H12B C14B 1_555 1_555
H13B C14B 1_555 1_555
C15B S3B 1_555 1_555
C16B C15B 1_555 1_555
H14B C16B 1_555 1_555
C17B C16B 1_555 1_555
C18B O12B 1_555 1_555
C19B C14B 1_555 1_555
C20B C15B 1_555 1_555
H15B C20B 1_555 1_555
C21B C17B 1_555 1_555
H16B C21B 1_555 1_555
H17B C21B 1_555 1_555
C22B S4B 1_555 1_555
C23B C22B 1_555 1_555
H18B C23B 1_555 1_555
C24B C23B 1_555 1_555
C25B O16B 1_555 1_555
C26B C21B 1_555 1_555
C27B C22B 1_555 1_555
H19B C27B 1_555 1_555
C28B C5B 1_555 1_555
H20B C28B 1_555 1_555
H21B C28B 1_555 1_555
O23B Mn2 1_555 1_555
H32B O23B 1_555 1_555
H33B O23B 1_555 1_555
O24B Mn2 1_555 1_555
H34B O24B 1_555 1_555
H35B O24B 1_555 1_555
O25B Mn1B 1_555 1_555
H36B O25B 1_555 1_555
H37B O25B 1_555 1_555
O26B Mn1B 1_555 1_555
H38B O26B 1_555 1_555
H39B O26B 1_555 1_555
O27B Mn1B 1_555 1_555
H40B O27B 1_555 1_555
H41B O27B 1_555 1_555
O28B Mn1B 1_555 1_555
H42B O28B 1_555 1_555
H43B O28B 1_555 1_555
C3 C4 1_555 1_555
C5 C6 1_555 1_555
C10 C11 1_555 1_555
C11 C12 1_555 1_555
C12 C13 1_555 1_555
C17 C18 1_555 1_555
C18 C19 1_555 1_555
C19 C20 1_555 1_555
C24 C25 1_555 1_555
C24 C28 1_555 1_555
C25 C26 1_555 1_555
C26 C27 1_555 1_555
S2B O6B 1_555 1_555
C3B C4B 1_555 1_555
C5B C6B 1_555 1_555
C10B C11B 1_555 1_555
C11B C12B 1_555 1_555
C12B C13B 1_555 1_555
C17B C18B 1_555 1_555
C18B C19B 1_555 1_555
C19B C20B 1_555 1_555
C24B C25B 1_555 1_555
C24B C28B 1_555 1_555
C25B C26B 1_555 1_555
C26B C27B 1_555 1_555

#END
