
#######################################################################
#
#                 Cambridge Crystallographic Data Centre
#                                CCDC 
#
#######################################################################
#
# If this CIF has been generated from an entry in the Cambridge 
# Structural Database, then it will include bibliographic, chemical, 
# crystal, experimental, refinement or atomic coordinate data resulting 
# from the CCDC's data processing and validation procedures.
#
#######################################################################

data_GIPNOJ
_symmetry_cell_setting           triclinic
_symmetry_space_group_name_H-M   'P -1'
_symmetry_Int_Tables_number      2
_space_group_name_Hall           '-P 1'
loop_
_symmetry_equiv_pos_site_id
_symmetry_equiv_pos_as_xyz
1 x,y,z
2 -x,-y,-z
_cell_length_a                   12.6733(10)
_cell_length_b                   12.7467(10)
_cell_length_c                   28.838(3)
_cell_angle_alpha                89.150(5)
_cell_angle_beta                 80.238(5)
_cell_angle_gamma                72.680(5)
_cell_volume                     4379.79
loop_
_atom_site_label
_atom_site_type_symbol
_atom_site_fract_x
_atom_site_fract_y
_atom_site_fract_z
C1 C 0.8330(2) 0.5369(2) 0.22326(11)
H1 H 0.8680 0.5930 0.2307
H2 H 0.8047 0.5556 0.1933
C2 C 1.0391(2) 0.4198(2) 0.16577(11)
C3 C 1.0027(2) 0.4403(2) 0.12279(11)
H3 H 0.9276 0.4445 0.1206
C4 C 1.0750(3) 0.4549(2) 0.08286(12)
H4 H 1.0494 0.4686 0.0536
C5 C 1.1849(3) 0.4493(2) 0.08591(12)
H5 H 1.2345 0.4597 0.0588
C6 C 1.2215(3) 0.4284(3) 0.12851(12)
H6 H 1.2965 0.4248 0.1306
C7 C 1.1499(2) 0.4127(2) 0.16849(12)
H7 H 1.1764 0.3972 0.1975
C8 C 1.0110(2) 0.3921(2) 0.26639(11)
C9 C 1.0409(3) 0.4808(2) 0.28275(12)
H8 H 1.0242 0.5483 0.2671
C10 C 1.0944(3) 0.4710(3) 0.32121(13)
H9 H 1.1128 0.5319 0.3323
C11 C 1.1209(3) 0.3722(3) 0.34348(13)
H10 H 1.1583 0.3653 0.3697
C12 C 1.0934(3) 0.2829(3) 0.32793(13)
H11 H 1.1115 0.2153 0.3435
C13 C 1.0388(3) 0.2932(2) 0.28918(12)
H12 H 1.0205 0.2320 0.2782
C14 C 0.6052(2) 0.6659(2) 0.26479(11)
C15 C 0.5769(3) 0.6987(2) 0.22145(12)
H13 H 0.6215 0.6599 0.1936
C16 C 0.4840(3) 0.7879(3) 0.21841(15)
H14 H 0.4648 0.8099 0.1885
C17 C 0.4191(3) 0.8450(3) 0.25902(17)
H15 H 0.3558 0.9066 0.2569
C18 C 0.4455(4) 0.8132(3) 0.30193(18)
H16 H 0.4003 0.8526 0.3296
C19 C 0.5381(3) 0.7235(3) 0.30559(15)
H17 H 0.5558 0.7014 0.3357
C20 C 0.7619(2) 0.5635(2) 0.32428(12)
C21 C 0.7852(3) 0.6616(3) 0.33301(13)
H18 H 0.7797 0.7155 0.3097
C22 C 0.8155(3) 0.6808(3) 0.37438(15)
H19 H 0.8299 0.7482 0.3798
C23 C 0.8253(5) 0.6039(5) 0.40827(18)
H20 H 0.8437 0.6185 0.4376
C24 C 0.8080(6) 0.5040(5) 0.39924(19)
H21 H 0.8187 0.4487 0.4219
C25 C 0.7753(4) 0.4844(3) 0.35771(15)
H22 H 0.7621 0.4165 0.3522
C26 C 0.6595(2) 0.3426(2) 0.14700(11)
H23 H 0.6199 0.3238 0.1230
H24 H 0.6815 0.4088 0.1369
C27 C 0.8735(2) 0.2150(2) 0.09219(11)
C28 C 0.8683(3) 0.3020(2) 0.06238(12)
H25 H 0.8135 0.3710 0.0709
C29 C 0.9428(3) 0.2889(3) 0.02007(12)
H26 H 0.9387 0.3490 -0.0001
C30 C 1.0227(3) 0.1888(3) 0.00730(12)
H27 H 1.0743 0.1805 -0.0214
C31 C 1.0277(3) 0.1005(3) 0.03643(13)
H28 H 1.0817 0.0313 0.0273
C32 C 0.9539(3) 0.1133(2) 0.07874(11)
H29 H 0.9579 0.0528 0.0987
C33 C 0.7376(2) 0.1069(2) 0.14931(11)
C34 C 0.7090(3) 0.0747(3) 0.10855(12)
H30 H 0.7164 0.1147 0.0807
C35 C 0.6696(3) -0.0161(3) 0.10835(13)
H31 H 0.6514 -0.0391 0.0803
C36 C 0.6570(3) -0.0725(3) 0.14887(13)
H32 H 0.6293 -0.1341 0.1487
C37 C 0.6839(3) -0.0411(3) 0.18948(13)
H33 H 0.6735 -0.0801 0.2174
C38 C 0.7265(3) 0.0482(2) 0.18991(12)
H34 H 0.7477 0.0685 0.2177
C39 C 0.4516(2) 0.4949(2) 0.19336(11)
C40 C 0.4540(2) 0.5538(2) 0.15227(12)
H35 H 0.5175 0.5320 0.1278
C41 C 0.3636(3) 0.6443(3) 0.14696(13)
H36 H 0.3659 0.6842 0.1189
C42 C 0.2708(3) 0.6767(2) 0.18219(14)
H37 H 0.2094 0.7388 0.1784
C43 C 0.2672(3) 0.6185(3) 0.22302(14)
H38 H 0.2030 0.6401 0.2471
C44 C 0.3568(3) 0.5290(2) 0.22875(12)
H39 H 0.3541 0.4900 0.2570
C45 C 0.4888(2) 0.2709(2) 0.21025(11)
C46 C 0.4589(3) 0.2299(2) 0.17187(13)
H40 H 0.4837 0.2500 0.1410
C47 C 0.3928(3) 0.1594(3) 0.17829(14)
H41 H 0.3743 0.1299 0.1518
C48 C 0.3541(3) 0.1325(3) 0.22322(14)
H42 H 0.3062 0.0870 0.2276
C49 C 0.3848(3) 0.1714(3) 0.26173(14)
H43 H 0.3599 0.1510 0.2925
C50 C 0.4526(3) 0.2406(3) 0.25528(13)
H44 H 0.4740 0.2672 0.2817
C51 C 0.7992(2) 0.1418(2) 0.30062(11)
C52 C 0.7683(3) 0.0782(2) 0.33922(11)
C53 C 0.8289(3) 0.0572(3) 0.37617(12)
H45 H 0.8934 0.0812 0.3753
C54 C 0.6745(3) 0.0413(3) 0.33967(11)
H46 H 0.6347 0.0545 0.3140
C55 C 0.7932(3) 0.0007(3) 0.41421(12)
H47 H 0.8339 -0.0137 0.4396
C56 C 0.6405(3) -0.0148(3) 0.37810(12)
H48 H 0.5767 -0.0398 0.3788
C57 C 0.6993(3) -0.0351(2) 0.41586(11)
C58 C 0.6654(3) -0.0920(2) 0.45780(11)
H49 H 0.7102 -0.1012 0.4817
C59 C 0.5785(3) -0.1320(2) 0.46579(11)
H50 H 0.5335 -0.1245 0.4421
C60 C 0.5477(3) -0.1867(2) 0.50874(11)
C61 C 0.6160(3) -0.2146(3) 0.54303(13)
H51 H 0.6870 -0.2015 0.5377
C62 C 0.4451(3) -0.2101(3) 0.51642(12)
H52 H 0.3984 -0.1936 0.4931
C63 C 0.5831(3) -0.2605(3) 0.58451(13)
H53 H 0.6300 -0.2778 0.6077
C64 C 0.4109(3) -0.2572(3) 0.55777(12)
H54 H 0.3412 -0.2729 0.5627
C65 C 0.4791(3) -0.2812(2) 0.59176(11)
C66 C 0.4419(2) -0.3223(2) 0.63625(11)
C67 C 1.1068(2) 0.1007(2) 0.16361(11)
C68 C 1.2041(2) 0.0669(2) 0.12780(11)
C69 C 1.2189(2) 0.1413(2) 0.09288(11)
H55 H 1.1655 0.2120 0.0935
C70 C 1.2828(2) -0.0364(2) 0.12786(11)
H56 H 1.2731 -0.0862 0.1519
C71 C 1.3113(2) 0.1109(2) 0.05778(11)
H57 H 1.3219 0.1613 0.0342
C72 C 1.3756(2) -0.0649(2) 0.09215(11)
H58 H 1.4303 -0.1345 0.0921
C73 C 1.3900(2) 0.0069(2) 0.05630(11)
C74 C 1.4874(2) -0.0295(2) 0.01829(11)
H59 H 1.5371 -0.1014 0.0199
N1 N 0.8204(2) 0.1941(2) 0.27033(9)
N2 N 0.4111(2) -0.3505(2) 0.67262(9)
N3 N 1.0258(2) 0.13359(19) 0.19106(9)
P1 P 0.93901(6) 0.40018(5) 0.21646(3)
P2 P 0.71505(6) 0.53863(5) 0.27058(3)
P3 P 0.78595(6) 0.22809(5) 0.15042(3)
P4 P 0.56375(6) 0.37370(5) 0.20388(3)
Cu1 Cu 0.87267(3) 0.25503(2) 0.209465(12)
Cu2 Cu 0.36019(3) -0.40201(3) 0.734290(13)
C1A C 0.1670(2) -0.5369(2) 0.77674(11)
H1A H 0.1320 -0.5930 0.7693
H2A H 0.1953 -0.5556 0.8067
C2A C -0.0391(2) -0.4198(2) 0.83423(11)
C3A C -0.0027(2) -0.4403(2) 0.87721(11)
H3A H 0.0724 -0.4445 0.8794
C4A C -0.0750(3) -0.4549(2) 0.91714(12)
H4A H -0.0494 -0.4686 0.9464
C5A C -0.1849(3) -0.4493(2) 0.91409(12)
H5A H -0.2345 -0.4597 0.9412
C6A C -0.2215(3) -0.4284(3) 0.87149(12)
H6A H -0.2965 -0.4248 0.8694
C7A C -0.1499(2) -0.4127(2) 0.83151(12)
H7A H -0.1764 -0.3972 0.8025
C8A C -0.0110(2) -0.3921(2) 0.73361(11)
C9A C -0.0409(3) -0.4808(2) 0.71725(12)
H8A H -0.0242 -0.5483 0.7329
C10A C -0.0944(3) -0.4710(3) 0.67879(13)
H9A H -0.1128 -0.5319 0.6677
C11A C -0.1209(3) -0.3722(3) 0.65652(13)
H10A H -0.1583 -0.3653 0.6303
C12A C -0.0934(3) -0.2829(3) 0.67207(13)
H11A H -0.1115 -0.2153 0.6565
C13A C -0.0388(3) -0.2932(2) 0.71082(12)
H12A H -0.0205 -0.2320 0.7218
C14A C 0.3948(2) -0.6659(2) 0.73521(11)
C15A C 0.4231(3) -0.6987(2) 0.77855(12)
H13A H 0.3785 -0.6599 0.8064
C16A C 0.5160(3) -0.7879(3) 0.78159(15)
H14A H 0.5352 -0.8099 0.8115
C17A C 0.5809(3) -0.8450(3) 0.74098(17)
H15A H 0.6442 -0.9066 0.7431
C18A C 0.5545(4) -0.8132(3) 0.69807(18)
H16A H 0.5997 -0.8526 0.6704
C19A C 0.4619(3) -0.7235(3) 0.69441(15)
H17A H 0.4442 -0.7014 0.6643
C20A C 0.2381(2) -0.5635(2) 0.67572(12)
C21A C 0.2148(3) -0.6616(3) 0.66699(13)
H18A H 0.2203 -0.7155 0.6903
C22A C 0.1845(3) -0.6808(3) 0.62562(15)
H19A H 0.1701 -0.7482 0.6202
C23A C 0.1747(5) -0.6039(5) 0.59173(18)
H20A H 0.1563 -0.6185 0.5624
C24A C 0.1920(6) -0.5040(5) 0.60076(19)
H21A H 0.1813 -0.4487 0.5781
C25A C 0.2247(4) -0.4844(3) 0.64229(15)
H22A H 0.2379 -0.4165 0.6478
C26A C 0.3405(2) -0.3426(2) 0.85300(11)
H23A H 0.3801 -0.3238 0.8770
H24A H 0.3185 -0.4088 0.8631
C27A C 0.1265(2) -0.2150(2) 0.90781(11)
C28A C 0.1317(3) -0.3020(2) 0.93762(12)
H25A H 0.1865 -0.3710 0.9291
C29A C 0.0572(3) -0.2889(3) 0.97993(12)
H26A H 0.0613 -0.3490 1.0001
C30A C -0.0227(3) -0.1888(3) 0.99270(12)
H27A H -0.0743 -0.1805 1.0214
C31A C -0.0277(3) -0.1005(3) 0.96357(13)
H28A H -0.0817 -0.0313 0.9727
C32A C 0.0461(3) -0.1133(2) 0.92126(11)
H29A H 0.0421 -0.0528 0.9013
C33A C 0.2624(2) -0.1069(2) 0.85069(11)
C34A C 0.2910(3) -0.0747(3) 0.89145(12)
H30A H 0.2836 -0.1147 0.9193
C35A C 0.3304(3) 0.0161(3) 0.89165(13)
H31A H 0.3486 0.0391 0.9197
C36A C 0.3430(3) 0.0725(3) 0.85113(13)
H32A H 0.3707 0.1341 0.8513
C37A C 0.3161(3) 0.0411(3) 0.81052(13)
H33A H 0.3265 0.0801 0.7826
C38A C 0.2735(3) -0.0482(2) 0.81009(12)
H34A H 0.2523 -0.0685 0.7823
C39A C 0.5484(2) -0.4949(2) 0.80664(11)
C40A C 0.5460(2) -0.5538(2) 0.84773(12)
H35A H 0.4825 -0.5320 0.8722
C41A C 0.6364(3) -0.6443(3) 0.85304(13)
H36A H 0.6341 -0.6842 0.8811
C42A C 0.7292(3) -0.6767(2) 0.81781(14)
H37A H 0.7906 -0.7388 0.8216
C43A C 0.7328(3) -0.6185(3) 0.77698(14)
H38A H 0.7970 -0.6401 0.7529
C44A C 0.6432(3) -0.5290(2) 0.77125(12)
H39A H 0.6459 -0.4900 0.7430
C45A C 0.5112(2) -0.2709(2) 0.78975(11)
C46A C 0.5411(3) -0.2299(2) 0.82813(13)
H40A H 0.5163 -0.2500 0.8590
C47A C 0.6072(3) -0.1594(3) 0.82171(14)
H41A H 0.6257 -0.1299 0.8482
C48A C 0.6459(3) -0.1325(3) 0.77678(14)
H42A H 0.6938 -0.0870 0.7724
C49A C 0.6152(3) -0.1714(3) 0.73827(14)
H43A H 0.6401 -0.1510 0.7075
C50A C 0.5474(3) -0.2406(3) 0.74472(13)
H44A H 0.5260 -0.2672 0.7183
C51A C 2.2008(2) -0.1418(2) -0.30062(11)
C52A C 2.2317(3) -0.0782(2) -0.33922(11)
C53A C 2.1711(3) -0.0572(3) -0.37617(12)
H45A H 2.1066 -0.0812 -0.3753
C54A C 2.3255(3) -0.0413(3) -0.33967(11)
H46A H 2.3653 -0.0545 -0.3140
C55A C 2.2068(3) -0.0007(3) -0.41421(12)
H47A H 2.1661 0.0137 -0.4396
C56A C 2.3595(3) 0.0148(3) -0.37810(12)
H48A H 2.4233 0.0398 -0.3788
C57A C 2.3007(3) 0.0351(2) -0.41586(11)
C58A C 2.3346(3) 0.0920(2) -0.45780(11)
H49A H 2.2898 0.1012 -0.4817
C59A C 2.4215(3) 0.1320(2) -0.46579(11)
H50A H 2.4665 0.1245 -0.4421
C60A C 2.4523(3) 0.1867(2) -0.50874(11)
C61A C 2.3840(3) 0.2146(3) -0.54303(13)
H51A H 2.3130 0.2015 -0.5377
C62A C 2.5549(3) 0.2101(3) -0.51642(12)
H52A H 2.6016 0.1936 -0.4931
C63A C 2.4169(3) 0.2605(3) -0.58451(13)
H53A H 2.3700 0.2778 -0.6077
C64A C 2.5891(3) 0.2572(3) -0.55777(12)
H54A H 2.6588 0.2729 -0.5627
C65A C 2.5209(3) 0.2812(2) -0.59176(11)
C66A C 2.5581(2) 0.3223(2) -0.63625(11)
C67A C 1.8932(2) -0.1007(2) -0.16361(11)
C68A C 1.7959(2) -0.0669(2) -0.12780(11)
C69A C 1.7811(2) -0.1413(2) -0.09288(11)
H55A H 1.8345 -0.2120 -0.0935
C70A C 1.7172(2) 0.0364(2) -0.12786(11)
H56A H 1.7269 0.0862 -0.1519
C71A C 1.6887(2) -0.1109(2) -0.05778(11)
H57A H 1.6781 -0.1613 -0.0342
C72A C 1.6244(2) 0.0649(2) -0.09215(11)
H58A H 1.5697 0.1345 -0.0921
C73A C 1.6100(2) -0.0069(2) -0.05630(11)
C74A C 1.5126(2) 0.0295(2) -0.01829(11)
H59A H 1.4629 0.1014 -0.0199
N1A N 2.1796(2) -0.1941(2) -0.27033(9)
N2A N 2.5889(2) 0.3505(2) -0.67262(9)
N2A_2 N 0.5889(2) 0.3505(2) 0.32738(9)
N3A N 1.9742(2) -0.13359(19) -0.19106(9)
P1A P 0.06099(6) -0.40018(5) 0.78354(3)
P1A_2 P 2.06099(6) -0.40018(5) -0.21646(3)
P2A P 0.28495(6) -0.53863(5) 0.72942(3)
P3A P 0.21405(6) -0.22809(5) 0.84958(3)
P3A_2 P 2.21405(6) -0.22809(5) -0.15042(3)
P4A P 0.43625(6) -0.37370(5) 0.79612(3)
Cu1A Cu 2.12733(3) -0.25503(2) -0.209465(12)
Cu1A_2 Cu 0.12733(3) -0.25503(2) 0.790535(12)
Cu2A Cu 0.63981(3) 0.40201(3) 0.265710(13)
Cu2_2 Cu 2.36019(3) -0.40201(3) -0.265710(13)
Cu2A_2 Cu 2.63981(3) 0.40201(3) -0.734290(13)
C75 C 0.9564(4) 0.1832(3) 0.50747(16)
Cl1 Cl 0.8387(5) 0.2545(6) 0.4844(2)
Cl2 Cl 0.9686(3) 0.2433(3) 0.56075(14)
C76 C 0.8804(4) 0.1408(3) 0.68599(15)
H60 H 0.8860 0.1049 0.6551
H61 H 0.8027 0.1898 0.6952
Cl3 Cl 0.90955(8) 0.03901(7) 0.72840(4)
Cl4 Cl 0.97473(8) 0.21935(7) 0.68102(3)
C77 C 0.4034(5) 0.6448(4) 0.00207(17)
H62 H 0.4397 0.6189 0.0297
H63 H 0.3649 0.5916 -0.0052
Cl5 Cl 0.30352(10) 0.77436(10) 0.01635(4)
Cl6 Cl 0.50596(9) 0.64840(13) -0.04584(4)
C78 C 0.9650(4) 0.7457(4) 0.14546(17)
H64 H 0.9930 0.6651 0.1392
H65 H 0.8885 0.7723 0.1377
Cl7 Cl 0.95859(7) 0.77431(7) 0.20570(3)
Cl8 Cl 1.05293(11) 0.80798(10) 0.10926(4)
C79 C 0.6663(5) 0.3866(5) 0.5869(3)
Cl13 Cl 0.5108(9) 0.4186(10) 0.5828(5)
Cl14 Cl 0.67366(12) 0.43473(13) 0.64148(7)
F1 F 0.64836(17) 0.55638(16) 0.05347(8)
F2 F 0.6922(2) 0.70444(17) 0.02142(8)
F3 F 0.73682(15) 0.56827(14) 0.11396(7)
F4 F 0.78249(17) 0.71519(16) 0.08176(8)
F5 F 0.82930(16) 0.55682(15) 0.03850(7)
F6 F 0.60099(15) 0.71581(14) 0.09660(8)
P5 P 0.71579(6) 0.63699(6) 0.06714(3)
F7 F 0.8047(2) 0.00378(19) 0.53040(8)
F8 F 0.75544(19) 0.12194(16) 0.59407(8)
F9 F 0.76346(18) -0.02093(16) 0.64196(7)
F10 F 0.81296(17) -0.13916(15) 0.57825(8)
F11 F 0.65436(17) 0.00591(18) 0.58590(9)
F12 F 0.91364(17) -0.02262(18) 0.58666(8)
P6 P 0.78348(7) -0.00872(7) 0.58640(3)
Cl9? Cl 0.8378(3) 0.5608(3) 0.53103(12)
Cl10? Cl 0.9437(3) 0.5592(3) 0.52108(12)
Cl11? Cl 0.8637(6) 0.2630(5) 0.4724(3)
Cl12? Cl 0.9834(6) 0.2647(5) 0.5472(2)
C80? C 0.998(2) 0.504(3) 0.5364(9)
Cl15? Cl 0.5555(17) 0.4308(11) 0.5647(7)
Cl16? Cl 0.5382(9) 0.4143(12) 0.5750(4)
loop_
_geom_bond_atom_site_label_1
_geom_bond_atom_site_label_2
_geom_bond_site_symmetry_1
_geom_bond_site_symmetry_2
C1 H1 1_555 1_555
H2 C1 1_555 1_555
C2 C3 1_555 1_555
C3 H3 1_555 1_555
C4 C3 1_555 1_555
H4 C4 1_555 1_555
C5 C4 1_555 1_555
H5 C5 1_555 1_555
C6 C5 1_555 1_555
H6 C6 1_555 1_555
C7 C2 1_555 1_555
H7 C7 1_555 1_555
C8 C9 1_555 1_555
C9 H8 1_555 1_555
C10 C9 1_555 1_555
H9 C10 1_555 1_555
C11 C10 1_555 1_555
H10 C11 1_555 1_555
C12 C11 1_555 1_555
H11 C12 1_555 1_555
C13 C8 1_555 1_555
H12 C13 1_555 1_555
C14 C15 1_555 1_555
C15 H13 1_555 1_555
C16 C15 1_555 1_555
H14 C16 1_555 1_555
C17 C16 1_555 1_555
H15 C17 1_555 1_555
C18 C17 1_555 1_555
H16 C18 1_555 1_555
C19 C14 1_555 1_555
H17 C19 1_555 1_555
C20 C21 1_555 1_555
C21 H18 1_555 1_555
C22 C21 1_555 1_555
H19 C22 1_555 1_555
C23 C22 1_555 1_555
H20 C23 1_555 1_555
C24 C23 1_555 1_555
H21 C24 1_555 1_555
C25 C20 1_555 1_555
H22 C25 1_555 1_555
C26 H23 1_555 1_555
H24 C26 1_555 1_555
C27 C28 1_555 1_555
C28 H25 1_555 1_555
C29 C28 1_555 1_555
H26 C29 1_555 1_555
C30 C29 1_555 1_555
H27 C30 1_555 1_555
C31 C30 1_555 1_555
H28 C31 1_555 1_555
C32 C27 1_555 1_555
H29 C32 1_555 1_555
C33 C34 1_555 1_555
C34 H30 1_555 1_555
C35 C34 1_555 1_555
H31 C35 1_555 1_555
C36 C35 1_555 1_555
H32 C36 1_555 1_555
C37 C36 1_555 1_555
H33 C37 1_555 1_555
C38 C33 1_555 1_555
H34 C38 1_555 1_555
C39 C40 1_555 1_555
C40 H35 1_555 1_555
C41 C40 1_555 1_555
H36 C41 1_555 1_555
C42 C41 1_555 1_555
H37 C42 1_555 1_555
C43 C42 1_555 1_555
H38 C43 1_555 1_555
C44 C39 1_555 1_555
H39 C44 1_555 1_555
C45 C46 1_555 1_555
C46 H40 1_555 1_555
C47 C46 1_555 1_555
H41 C47 1_555 1_555
C48 C47 1_555 1_555
H42 C48 1_555 1_555
C49 C48 1_555 1_555
H43 C49 1_555 1_555
C50 C45 1_555 1_555
H44 C50 1_555 1_555
C51 C52 1_555 1_555
C52 C53 1_555 1_555
C53 H45 1_555 1_555
C54 C52 1_555 1_555
H46 C54 1_555 1_555
C55 C53 1_555 1_555
H47 C55 1_555 1_555
C56 C54 1_555 1_555
H48 C56 1_555 1_555
C57 C55 1_555 1_555
C58 C57 1_555 1_555
H49 C58 1_555 1_555
C59 C58 1_555 1_555
H50 C59 1_555 1_555
C60 C59 1_555 1_555
C61 C60 1_555 1_555
H51 C61 1_555 1_555
C62 C60 1_555 1_555
H52 C62 1_555 1_555
C63 C61 1_555 1_555
H53 C63 1_555 1_555
C64 C62 1_555 1_555
H54 C64 1_555 1_555
C65 C63 1_555 1_555
C66 C65 1_555 1_555
C67 C68 1_555 1_555
C68 C69 1_555 1_555
C69 H55 1_555 1_555
C70 C68 1_555 1_555
H56 C70 1_555 1_555
C71 C69 1_555 1_555
H57 C71 1_555 1_555
C72 C70 1_555 1_555
H58 C72 1_555 1_555
C73 C71 1_555 1_555
C74 C73 1_555 1_555
H59 C74 1_555 1_555
C75 Cl1 1_555 1_555
C76 H60 1_555 1_555
H61 C76 1_555 1_555
C77 H62 1_555 1_555
H63 C77 1_555 1_555
C78 H64 1_555 1_555
H65 C78 1_555 1_555
C79 Cl13 1_555 1_555
N1 C51 1_555 1_555
N2 C66 1_555 1_555
N3 C67 1_555 1_555
F1 P5 1_555 1_555
F2 P5 1_555 1_555
F3 P5 1_555 1_555
F4 P5 1_555 1_555
F5 P5 1_555 1_555
F6 P5 1_555 1_555
F7 P6 1_555 1_555
F8 P6 1_555 1_555
F9 P6 1_555 1_555
F10 P6 1_555 1_555
F11 P6 1_555 1_555
F12 P6 1_555 1_555
P1 C1 1_555 1_555
P2 C1 1_555 1_555
P3 C26 1_555 1_555
P4 C26 1_555 1_555
Cu1 N1 1_555 1_555
Cu2 N2 1_555 1_555
Cl2 C75 1_555 1_555
Cl3 C76 1_555 1_555
Cl4 C76 1_555 1_555
Cl5 C77 1_555 1_555
Cl6 C77 1_555 1_555
Cl7 C78 1_555 1_555
Cl8 C78 1_555 1_555
Cl14 C79 1_555 1_555
C1A H1A 1_555 1_555
H2A C1A 1_555 1_555
C2A C3A 1_555 1_555
C3A H3A 1_555 1_555
C4A C3A 1_555 1_555
H4A C4A 1_555 1_555
C5A C4A 1_555 1_555
H5A C5A 1_555 1_555
C6A C5A 1_555 1_555
H6A C6A 1_555 1_555
C7A C2A 1_555 1_555
H7A C7A 1_555 1_555
C8A C9A 1_555 1_555
C9A H8A 1_555 1_555
C10A C9A 1_555 1_555
H9A C10A 1_555 1_555
C11A C10A 1_555 1_555
H10A C11A 1_555 1_555
C12A C11A 1_555 1_555
H11A C12A 1_555 1_555
C13A C8A 1_555 1_555
H12A C13A 1_555 1_555
C14A C15A 1_555 1_555
C15A H13A 1_555 1_555
C16A C15A 1_555 1_555
H14A C16A 1_555 1_555
C17A C16A 1_555 1_555
H15A C17A 1_555 1_555
C18A C17A 1_555 1_555
H16A C18A 1_555 1_555
C19A C14A 1_555 1_555
H17A C19A 1_555 1_555
C20A C21A 1_555 1_555
C21A H18A 1_555 1_555
C22A C21A 1_555 1_555
H19A C22A 1_555 1_555
C23A C22A 1_555 1_555
H20A C23A 1_555 1_555
C24A C23A 1_555 1_555
H21A C24A 1_555 1_555
C25A C20A 1_555 1_555
H22A C25A 1_555 1_555
C26A H23A 1_555 1_555
H24A C26A 1_555 1_555
C27A C28A 1_555 1_555
C28A H25A 1_555 1_555
C29A C28A 1_555 1_555
H26A C29A 1_555 1_555
C30A C29A 1_555 1_555
H27A C30A 1_555 1_555
C31A C30A 1_555 1_555
H28A C31A 1_555 1_555
C32A C27A 1_555 1_555
H29A C32A 1_555 1_555
C33A C34A 1_555 1_555
C34A H30A 1_555 1_555
C35A C34A 1_555 1_555
H31A C35A 1_555 1_555
C36A C35A 1_555 1_555
H32A C36A 1_555 1_555
C37A C36A 1_555 1_555
H33A C37A 1_555 1_555
C38A C33A 1_555 1_555
H34A C38A 1_555 1_555
C39A C40A 1_555 1_555
C40A H35A 1_555 1_555
C41A C40A 1_555 1_555
H36A C41A 1_555 1_555
C42A C41A 1_555 1_555
H37A C42A 1_555 1_555
C43A C42A 1_555 1_555
H38A C43A 1_555 1_555
C44A C39A 1_555 1_555
H39A C44A 1_555 1_555
C45A C46A 1_555 1_555
C46A H40A 1_555 1_555
C47A C46A 1_555 1_555
H41A C47A 1_555 1_555
C48A C47A 1_555 1_555
H42A C48A 1_555 1_555
C49A C48A 1_555 1_555
H43A C49A 1_555 1_555
C50A C45A 1_555 1_555
H44A C50A 1_555 1_555
C51A C52A 1_555 1_555
C52A C53A 1_555 1_555
C53A H45A 1_555 1_555
C54A C52A 1_555 1_555
H46A C54A 1_555 1_555
C55A C53A 1_555 1_555
H47A C55A 1_555 1_555
C56A C54A 1_555 1_555
H48A C56A 1_555 1_555
C57A C55A 1_555 1_555
C58A C57A 1_555 1_555
H49A C58A 1_555 1_555
C59A C58A 1_555 1_555
H50A C59A 1_555 1_555
C60A C59A 1_555 1_555
C61A C60A 1_555 1_555
H51A C61A 1_555 1_555
C62A C60A 1_555 1_555
H52A C62A 1_555 1_555
C63A C61A 1_555 1_555
H53A C63A 1_555 1_555
C64A C62A 1_555 1_555
H54A C64A 1_555 1_555
C65A C63A 1_555 1_555
C66A C65A 1_555 1_555
C67A C68A 1_555 1_555
C68A C69A 1_555 1_555
C69A H55A 1_555 1_555
C70A C68A 1_555 1_555
H56A C70A 1_555 1_555
C71A C69A 1_555 1_555
H57A C71A 1_555 1_555
C72A C70A 1_555 1_555
H58A C72A 1_555 1_555
C73A C71A 1_555 1_555
C74A C74 1_555 1_555
H59A C74A 1_555 1_555
N1A C51A 1_555 1_555
N2A C66A 1_555 1_555
N2A_2 Cu2A 1_555 1_555
N3A C67A 1_555 1_555
P1A C1A 1_555 1_555
P1A_2 Cu1A 1_555 1_555
P2A Cu2 1_555 1_555
P3A C26A 1_555 1_555
P3A_2 Cu1A 1_555 1_555
P4A Cu2 1_555 1_555
Cu1A N1A 1_555 1_555
Cu1A_2 Cu2 1_555 1_555
Cu2A P2 1_555 1_555
Cu2_2 Cu1A 1_555 1_555
Cu2A_2 N2A 1_555 1_555
C2 P1 1_555 1_555
C6 C7 1_555 1_555
C8 P1 1_555 1_555
C12 C13 1_555 1_555
C14 P2 1_555 1_555
C18 C19 1_555 1_555
C20 P2 1_555 1_555
C24 C25 1_555 1_555
C27 P3 1_555 1_555
C31 C32 1_555 1_555
C33 P3 1_555 1_555
C37 C38 1_555 1_555
C39 P4 1_555 1_555
C43 C44 1_555 1_555
C45 P4 1_555 1_555
C49 C50 1_555 1_555
C56 C57 1_555 1_555
C64 C65 1_555 1_555
C72 C73 1_555 1_555
N3 Cu1 1_555 1_555
P1 Cu1 1_555 1_555
P3 Cu1 1_555 1_555
P4 Cu2A 1_555 1_555
Cu1 Cu2A 1_555 1_555
C1A P2A 1_555 1_555
C2A P1A 1_555 1_555
C6A C7A 1_555 1_555
C8A P1A 1_555 1_555
C12A C13A 1_555 1_555
C14A P2A 1_555 1_555
C18A C19A 1_555 1_555
C20A P2A 1_555 1_555
C24A C25A 1_555 1_555
C26A P4A 1_555 1_555
C27A P3A 1_555 1_555
C31A C32A 1_555 1_555
C33A P3A 1_555 1_555
C37A C38A 1_555 1_555
C39A P4A 1_555 1_555
C43A C44A 1_555 1_555
C45A P4A 1_555 1_555
C49A C50A 1_555 1_555
C56A C57A 1_555 1_555
C64A C65A 1_555 1_555
C72A C73A 1_555 1_555
C73A C74A 1_555 1_555
N3A Cu1A 1_555 1_555
P1A Cu1A_2 1_555 1_555
P3A Cu1A_2 1_555 1_555

#END
