
#######################################################################
#
#                 Cambridge Crystallographic Data Centre
#                                CCDC 
#
#######################################################################
#
# If this CIF has been generated from an entry in the Cambridge 
# Structural Database, then it will include bibliographic, chemical, 
# crystal, experimental, refinement or atomic coordinate data resulting 
# from the CCDC's data processing and validation procedures.
#
#######################################################################

data_GIPWIN
_symmetry_cell_setting           monoclinic
_symmetry_space_group_name_H-M   'C 2/c'
_symmetry_Int_Tables_number      15
_space_group_name_Hall           '-C 2yn'
loop_
_symmetry_equiv_pos_site_id
_symmetry_equiv_pos_as_xyz
1 x,y,z
2 -x,y,1/2-z
3 1/2+x,1/2+y,z
4 1/2-x,1/2+y,1/2-z
5 -x,-y,-z
6 x,-y,1/2+z
7 1/2-x,1/2-y,-z
8 1/2+x,1/2-y,1/2+z
_cell_length_a                   25.862(5)
_cell_length_b                   11.243(2)
_cell_length_c                   14.830(3)
_cell_angle_alpha                90
_cell_angle_beta                 114.620(4)
_cell_angle_gamma                90
_cell_volume                     3920.06
loop_
_atom_site_label
_atom_site_type_symbol
_atom_site_fract_x
_atom_site_fract_y
_atom_site_fract_z
Zn1 Zn 0.0000 0.56085(5) 0.7500
N1 N 0.22625(13) 0.9176(3) 1.0492(2)
N2 N -0.01984(14) 0.4538(2) 0.8386(2)
N3 N -0.00991(14) 0.3258(2) 0.9559(2)
O1 O 0.05886(12) 0.6789(2) 0.8133(2)
O2 O 0.11798(13) 0.5429(3) 0.9095(2)
C1 C 0.29479(17) 0.8883(4) 1.2497(3)
H1 H 0.2979 0.9568 1.2173
C2 C 0.32548(19) 0.8789(4) 1.3508(3)
H2 H 0.3483 0.9419 1.3860
C3 C 0.32268(19) 0.7777(4) 1.3998(3)
H3 H 0.3430 0.7717 1.4682
C4 C 0.2893(2) 0.6851(4) 1.3462(4)
H4 H 0.2878 0.6150 1.3783
C5 C 0.2582(2) 0.6955(4) 1.2456(3)
H5 H 0.2359 0.6319 1.2105
C6 C 0.25931(15) 0.7973(3) 1.1956(3)
C7 C 0.22308(15) 0.8139(3) 1.0878(3)
C8 C 0.18516(15) 0.7241(3) 1.0298(3)
H6 H 0.1856 0.6500 1.0579
C9 C 0.14812(15) 0.7442(3) 0.9339(3)
C10 C 0.15000(15) 0.8568(3) 0.8902(3)
C11 C 0.11581(18) 0.8909(4) 0.7917(3)
H7 H 0.0881 0.8390 0.7503
C12 C 0.1228(2) 0.9986(4) 0.7562(3)
H8 H 0.0997 1.0196 0.6911
C13 C 0.1645(2) 1.0781(4) 0.8171(4)
H9 H 0.1693 1.1508 0.7918
C14 C 0.1974(2) 1.0499(4) 0.9118(3)
H10 H 0.2244 1.1042 0.9518
C15 C 0.19178(16) 0.9385(3) 0.9517(3)
C16 C 0.10625(17) 0.6460(4) 0.8820(3)
C17 C -0.06625(19) 0.3249(4) 0.8918(3)
H11 H -0.0949 0.2794 0.8969
C18 C -0.07170(18) 0.4037(4) 0.8197(3)
H12 H -0.1055 0.4212 0.7654
C19 C 0.01618(17) 0.4029(3) 0.9216(3)
H13 H 0.0549 0.4193 0.9520
C20 C 0.0163(2) 0.2518(3) 1.0458(3)
H14 H -0.0005 0.2717 1.0914
H15 H 0.0566 0.2690 1.0783
C21 C 0.00799(16) 0.1208(3) 1.0217(3)
C22 C -0.02429(18) 0.0531(3) 1.0564(3)
H16 H -0.0410 0.0883 1.0945
C23 C 0.03194(19) 0.0664(3) 0.9650(3)
H17 H 0.0536 0.1112 0.9409
N2D N 0.01984(14) -0.4538(2) 1.1614(2)
N3D N 0.00991(14) -0.3258(2) 1.0441(2)
C17D C 0.06625(19) -0.3249(4) 1.1082(3)
H11D H 0.0949 -0.2794 1.1031
C18D C 0.07170(18) -0.4037(4) 1.1803(3)
H12D H 0.1055 -0.4212 1.2346
C19D C -0.01618(17) -0.4029(3) 1.0784(3)
H13D H -0.0549 -0.4193 1.0480
C20D C -0.0163(2) -0.2518(3) 0.9542(3)
H14D H 0.0005 -0.2717 0.9086
H15D H -0.0566 -0.2690 0.9217
C21D C -0.00799(16) -0.1208(3) 0.9783(3)
C22D C 0.02429(18) -0.0531(3) 0.9436(3)
H16D H 0.0410 -0.0883 0.9055
C23D C -0.03194(19) -0.0664(3) 1.0350(3)
H17D H -0.0536 -0.1112 1.0591
N1A N -0.22625(13) 0.9176(3) 0.4508(2)
O1A O -0.05886(12) 0.6789(2) 0.6867(2)
O2A O -0.11798(13) 0.5429(3) 0.5905(2)
C1A C -0.29479(17) 0.8883(4) 0.2503(3)
H1A H -0.2979 0.9568 0.2827
C2A C -0.32548(19) 0.8789(4) 0.1492(3)
H2A H -0.3483 0.9419 0.1140
C3A C -0.32268(19) 0.7777(4) 0.1002(3)
H3A H -0.3430 0.7717 0.0318
C4A C -0.2893(2) 0.6851(4) 0.1538(4)
H4A H -0.2878 0.6150 0.1217
C5A C -0.2582(2) 0.6955(4) 0.2544(3)
H5A H -0.2359 0.6319 0.2895
C6A C -0.25931(15) 0.7973(3) 0.3044(3)
C7A C -0.22308(15) 0.8139(3) 0.4122(3)
C8A C -0.18516(15) 0.7241(3) 0.4702(3)
H6A H -0.1856 0.6500 0.4421
C9A C -0.14812(15) 0.7442(3) 0.5661(3)
C10A C -0.15000(15) 0.8568(3) 0.6098(3)
C11A C -0.11581(18) 0.8909(4) 0.7083(3)
H7A H -0.0881 0.8390 0.7497
C12A C -0.1228(2) 0.9986(4) 0.7438(3)
H8A H -0.0997 1.0196 0.8089
C13A C -0.1645(2) 1.0781(4) 0.6829(4)
H9A H -0.1693 1.1508 0.7082
C14A C -0.1974(2) 1.0499(4) 0.5882(3)
H10A H -0.2244 1.1042 0.5482
C15A C -0.19178(16) 0.9385(3) 0.5483(3)
C16A C -0.10625(17) 0.6460(4) 0.6180(3)
Zn1D Zn 0.0000 -0.56085(5) 1.2500
N2A N 0.01984(14) 0.4538(2) 0.6614(2)
loop_
_geom_bond_atom_site_label_1
_geom_bond_atom_site_label_2
_geom_bond_site_symmetry_1
_geom_bond_site_symmetry_2
Zn1 N2 1_555 1_555
N1 C7 1_555 1_555
N2 C18 1_555 1_555
N3 C17 1_555 1_555
O1 Zn1 1_555 1_555
O2 C16 1_555 1_555
C1 H1 1_555 1_555
C2 C1 1_555 1_555
H2 C2 1_555 1_555
C3 C2 1_555 1_555
H3 C3 1_555 1_555
C4 C3 1_555 1_555
H4 C4 1_555 1_555
C5 C4 1_555 1_555
H5 C5 1_555 1_555
C6 C1 1_555 1_555
C7 C6 1_555 1_555
C8 C7 1_555 1_555
H6 C8 1_555 1_555
C9 C8 1_555 1_555
C10 C9 1_555 1_555
C11 C10 1_555 1_555
H7 C11 1_555 1_555
C12 C11 1_555 1_555
H8 C12 1_555 1_555
C13 C12 1_555 1_555
H9 C13 1_555 1_555
C14 C13 1_555 1_555
H10 C14 1_555 1_555
C15 N1 1_555 1_555
C16 O1 1_555 1_555
C17 H11 1_555 1_555
C18 C17 1_555 1_555
H12 C18 1_555 1_555
C19 N2 1_555 1_555
H13 C19 1_555 1_555
C20 N3 1_555 1_555
H14 C20 1_555 1_555
H15 C20 1_555 1_555
C21 C20 1_555 1_555
C22 C21 1_555 1_555
H16 C22 1_555 1_555
C23 C21 1_555 1_555
H17 C23 1_555 1_555
N2D C18D 1_555 1_555
N3D C17D 1_555 1_555
C17D H11D 1_555 1_555
C18D C17D 1_555 1_555
H12D C18D 1_555 1_555
C19D N2D 1_555 1_555
H13D C19D 1_555 1_555
C20D N3D 1_555 1_555
H14D C20D 1_555 1_555
H15D C20D 1_555 1_555
C21D C20D 1_555 1_555
C22D C23 1_555 1_555
H16D C22D 1_555 1_555
C23D C22 1_555 1_555
H17D C23D 1_555 1_555
N1A C7A 1_555 1_555
O1A Zn1 1_555 1_555
O2A C16A 1_555 1_555
C1A H1A 1_555 1_555
C2A C1A 1_555 1_555
H2A C2A 1_555 1_555
C3A C2A 1_555 1_555
H3A C3A 1_555 1_555
C4A C3A 1_555 1_555
H4A C4A 1_555 1_555
C5A C4A 1_555 1_555
H5A C5A 1_555 1_555
C6A C1A 1_555 1_555
C7A C6A 1_555 1_555
C8A C7A 1_555 1_555
H6A C8A 1_555 1_555
C9A C8A 1_555 1_555
C10A C9A 1_555 1_555
C11A C10A 1_555 1_555
H7A C11A 1_555 1_555
C12A C11A 1_555 1_555
H8A C12A 1_555 1_555
C13A C12A 1_555 1_555
H9A C13A 1_555 1_555
C14A C13A 1_555 1_555
H10A C14A 1_555 1_555
C15A N1A 1_555 1_555
C16A O1A 1_555 1_555
Zn1D N2D 1_555 1_555
N2A Zn1 1_555 1_555
N3 C19 1_555 1_555
C5 C6 1_555 1_555
C9 C16 1_555 1_555
C10 C15 1_555 1_555
C14 C15 1_555 1_555
N3D C19D 1_555 1_555
C21D C22D 1_555 1_555
C21D C23D 1_555 1_555
C5A C6A 1_555 1_555
C9A C16A 1_555 1_555
C10A C15A 1_555 1_555
C14A C15A 1_555 1_555

#END
