
#######################################################################
#
#                 Cambridge Crystallographic Data Centre
#                                CCDC 
#
#######################################################################
#
# If this CIF has been generated from an entry in the Cambridge 
# Structural Database, then it will include bibliographic, chemical, 
# crystal, experimental, refinement or atomic coordinate data resulting 
# from the CCDC's data processing and validation procedures.
#
#######################################################################

data_GIQCIT
_symmetry_cell_setting           triclinic
_symmetry_space_group_name_H-M   'P -1'
_symmetry_Int_Tables_number      2
_space_group_name_Hall           '-P 1'
loop_
_symmetry_equiv_pos_site_id
_symmetry_equiv_pos_as_xyz
1 x,y,z
2 -x,-y,-z
_cell_length_a                   9.9720(4)
_cell_length_b                   13.4840(5)
_cell_length_c                   16.3810(6)
_cell_angle_alpha                90.0540(6)
_cell_angle_beta                 98.811(6)
_cell_angle_gamma                90.094(6)
_cell_volume                     2176.63
loop_
_atom_site_label
_atom_site_type_symbol
_atom_site_fract_x
_atom_site_fract_y
_atom_site_fract_z
Co1 Co 1.0000 0.0000 0.0000
Co2 Co 0.5000 -0.5000 -0.5000
F1 F 0.31500(16) -0.15154(14) -0.14966(11)
F2 F 0.5304(3) -0.3841(2) 0.03637(15)
F3 F -0.1482(2) -0.45762(16) -0.78883(14)
F4 F 0.2032(4) -0.2477(2) -0.8348(2)
C1 C 0.1888(3) -0.42200(19) -0.54445(17)
H1 H 0.2087 -0.3590 -0.5228
C2 C 0.2121(3) -0.5703(2) -0.57685(16)
H2 H 0.2475 -0.6330 -0.5839
C3 C -0.0204(2) -0.59827(18) -0.65577(15)
H3 H -0.1028 -0.5591 -0.6648
H4 H -0.0401 -0.6599 -0.6295
C4 C 0.0264(2) -0.62091(18) -0.73991(15)
C5 C 0.0728(3) -0.5243(2) -0.77538(16)
C6 C 0.2074(4) -0.5065(3) -0.7800(2)
H5 H 0.2704 -0.5572 -0.7680
C7 C 0.2507(5) -0.4131(3) -0.8023(3)
H6 H 0.3411 -0.4022 -0.8076
C8 C 0.1590(7) -0.3390(3) -0.8160(3)
C9 C 0.0260(6) -0.3518(3) -0.8131(2)
H7 H -0.0353 -0.2998 -0.8238
C10 C -0.0153(4) -0.4451(2) -0.7938(2)
C11 C -0.0923(3) -0.6751(2) -0.79365(16)
H8 H -0.1351 -0.7196 -0.7589
H9 H -0.1595 -0.6266 -0.8165
C12 C -0.0092(4) -0.7669(2) -0.97800(18)
H10 H 0.0070 -0.7610 -1.0322
C13 C -0.0316(3) -0.82933(19) -0.86476(16)
H11 H -0.0358 -0.8732 -0.8215
C14 C 0.7488(2) 0.0006(2) -0.14148(15)
H12 H 0.8001 -0.0136 -0.1829
C15 C 0.6872(3) 0.0356(2) -0.02886(17)
H13 H 0.6909 0.0516 0.0267
C16 C 0.5160(2) -0.02689(18) -0.22245(15)
H14 H 0.5279 0.0126 -0.2703
H15 H 0.4249 -0.0157 -0.2105
C17 C 0.5339(2) -0.13788(18) -0.24172(14)
C18 C 0.5352(2) -0.20296(18) -0.16605(15)
C19 C 0.6448(3) -0.2627(2) -0.13624(18)
H16 H 0.7210 -0.2615 -0.1627
C20 C 0.6450(4) -0.3240(3) -0.0685(2)
H17 H 0.7197 -0.3635 -0.0497
C21 C 0.5327(4) -0.3252(3) -0.0299(2)
C22 C 0.4206(4) -0.2677(3) -0.0560(2)
H18 H 0.3449 -0.2689 -0.0291
C23 C 0.4255(3) -0.2087(2) -0.12334(17)
C24 C 0.4182(3) -0.16403(18) -0.31202(15)
H19 H 0.3318 -0.1519 -0.2936
H20 H 0.4239 -0.1212 -0.3589
C25 C 0.4806(2) -0.30282(19) -0.39988(15)
H21 H 0.5239 -0.2651 -0.4356
C26 C 0.3979(3) -0.4199(2) -0.33983(17)
H22 H 0.3726 -0.4837 -0.3270
N1 N 0.2819(2) -0.49500(16) -0.54034(13)
N2 N 0.0847(2) -0.54430(15) -0.60203(12)
N3 N 0.0673(2) -0.44762(16) -0.58182(14)
N4 N -0.0503(2) -0.73194(16) -0.86119(13)
N5 N -0.0372(3) -0.68955(19) -0.93410(15)
N6 N -0.0059(2) -0.85477(17) -0.93883(13)
N7 N 0.7998(2) 0.02062(16) -0.06385(13)
N8 N 0.5726(2) 0.0259(2) -0.07919(14)
N9 N 0.61446(19) 0.00379(15) -0.15199(12)
N10 N 0.4239(2) -0.26669(15) -0.33780(12)
N11 N 0.3699(2) -0.34125(17) -0.29774(15)
N12 N 0.4662(2) -0.40034(15) -0.40330(13)
O14 O 0.66079(16) -0.15257(13) -0.26856(10)
H23 H 0.6646 -0.1189 -0.3098
O15 O 0.14085(16) -0.68377(13) -0.72725(11)
H24 H 0.1199 -0.7368 -0.7082
O16 O 0.4573(2) -0.61935(14) -0.42738(14)
H25 H 0.511(2) -0.6651(19) -0.415(2)
H26 H 0.3811(19) -0.631(2) -0.415(2)
O17 O 0.9213(2) -0.06948(17) 0.09719(12)
H27 H 0.850(3) -0.098(3) 0.091(2)
H28 H 0.951(3) -0.058(3) 0.147(2)
Co1_2 Co 0.0000 -1.0000 -1.0000
F1A F 0.68500(16) -0.84846(14) -0.85034(11)
F2A F 0.4696(3) -0.6159(2) -1.03637(15)
F3A F 1.1482(2) -0.54238(16) -0.21117(14)
F4A F 0.7968(4) -0.7523(2) -0.1652(2)
C1A C 0.8112(3) -0.57800(19) -0.45555(17)
H1A H 0.7913 -0.6410 -0.4772
C2A C 0.7879(3) -0.4297(2) -0.42315(16)
H2A H 0.7525 -0.3670 -0.4161
C3A C 1.0204(2) -0.40173(18) -0.34423(15)
H3A H 1.1028 -0.4409 -0.3352
H4A H 1.0401 -0.3401 -0.3705
C4A C 0.9736(2) -0.37909(18) -0.26009(15)
C5A C 0.9272(3) -0.4757(2) -0.22462(16)
C6A C 0.7926(4) -0.4935(3) -0.2200(2)
H5A H 0.7296 -0.4428 -0.2320
C7A C 0.7493(5) -0.5869(3) -0.1977(3)
H6A H 0.6589 -0.5978 -0.1924
C8A C 0.8410(7) -0.6610(3) -0.1840(3)
C9A C 0.9740(6) -0.6482(3) -0.1869(2)
H7A H 1.0353 -0.7002 -0.1762
C10A C 1.0153(4) -0.5549(2) -0.2062(2)
C11A C 1.0923(3) -0.3249(2) -0.20635(16)
H8A H 1.1351 -0.2804 -0.2411
H9A H 1.1595 -0.3734 -0.1835
C12A C 1.0092(4) -0.2331(2) -0.02200(18)
H10A H 0.9930 -0.2390 0.0322
C13A C 1.0316(3) -0.17067(19) -0.13524(16)
H11A H 1.0358 -0.1268 -0.1785
C14A C 0.2512(2) -1.0006(2) -0.85852(15)
H12A H 0.1999 -0.9864 -0.8171
C15A C 0.3128(3) -1.0356(2) -0.97114(17)
H13A H 0.3091 -1.0516 -1.0267
C16A C 0.4840(2) -0.97311(18) -0.77755(15)
H14A H 0.4721 -1.0126 -0.7297
H15A H 0.5751 -0.9843 -0.7895
C17A C 0.4661(2) -0.86212(18) -0.75828(14)
C18A C 0.4648(2) -0.79704(18) -0.83395(15)
C19A C 0.3552(3) -0.7373(2) -0.86376(18)
H16A H 0.2790 -0.7385 -0.8373
C20A C 0.3550(4) -0.6760(3) -0.9315(2)
H17A H 0.2803 -0.6365 -0.9503
C21A C 0.4673(4) -0.6748(3) -0.9701(2)
C22A C 0.5794(4) -0.7323(3) -0.9440(2)
H18A H 0.6551 -0.7311 -0.9709
C23A C 0.5745(3) -0.7913(2) -0.87666(17)
C24A C 0.5818(3) -0.83597(18) -0.68798(15)
H19A H 0.6682 -0.8481 -0.7064
H20A H 0.5761 -0.8788 -0.6411
C25A C 0.5194(2) -0.69718(19) -0.60012(15)
H21A H 0.4761 -0.7349 -0.5644
C26A C 0.6021(3) -0.5801(2) -0.66017(17)
H22A H 0.6274 -0.5163 -0.6730
N1A N 0.7181(2) -0.50500(16) -0.45966(13)
N2A N 0.9153(2) -0.45570(15) -0.39797(12)
N3A N 0.9327(2) -0.55238(16) -0.41818(14)
N4A N 1.0503(2) -0.26806(16) -0.13881(13)
N5A N 1.0372(3) -0.31045(19) -0.06590(15)
N6A N 1.0059(2) -0.14523(17) -0.06117(13)
N6_2 N 0.9941(2) 0.14523(17) 0.06117(13)
N7A N 1.2002(2) -0.02062(16) 0.06385(13)
N7A_2 N 0.2002(2) -1.02062(16) -0.93615(13)
N8A N 0.4274(2) -1.0259(2) -0.92081(14)
N9A N 0.38554(19) -1.00379(15) -0.84801(12)
N10A N 0.5761(2) -0.73331(15) -0.66220(12)
N11A N 0.6301(2) -0.65875(17) -0.70226(15)
N12A N 0.5338(2) -0.59966(15) -0.59670(13)
O14A O 0.33921(16) -0.84743(13) -0.73144(10)
H23A H 0.3354 -0.8811 -0.6902
O15A O 0.85915(16) -0.31623(13) -0.27275(11)
H24A H 0.8801 -0.2632 -0.2918
O16A O 0.5427(2) -0.38065(14) -0.57262(14)
H25A H 0.489(2) -0.3349(19) -0.585(2)
H26A H 0.6189(19) -0.369(2) -0.585(2)
O17A O 1.0787(2) 0.06948(17) -0.09719(12)
H27A H 1.150(3) 0.098(3) -0.091(2)
H28A H 1.049(3) 0.058(3) -0.147(2)
Mo1 Mo 0.25968(2) -0.129710(17) -0.584680(14)
Mo2 Mo 0.27681(2) 0.072220(17) -0.476820(14)
Mo3 Mo -0.03602(2) 0.111550(14) -0.555520(12)
Mo4 Mo -0.05335(2) -0.091400(16) -0.660760(13)
O1 O -0.1788(2) -0.16467(16) -0.70994(12)
O2 O -0.00068(19) -0.02186(14) -0.73725(11)
O3 O 0.08842(18) -0.18256(13) -0.63694(11)
O4 O 0.2977(2) -0.05982(16) -0.66361(12)
O5 O 0.3594(2) -0.23217(16) -0.58172(14)
O6 O 0.34962(17) -0.05373(14) -0.49292(12)
O7 O 0.31623(19) 0.13618(15) -0.55948(12)
O8 O -0.15896(16) 0.01411(12) -0.61467(10)
O9 O 0.16029(18) -0.18924(13) -0.47269(11)
O10 O -0.10706(17) -0.14599(12) -0.53419(10)
O11 O 0.01967(19) 0.16864(13) -0.63645(11)
O12 O 0.09319(15) -0.01633(11) -0.55253(10)
O13 O 0.38235(19) 0.11649(17) -0.39411(13)
Mo1A Mo -0.25968(2) 0.129710(17) -0.415320(14)
Mo2A Mo -0.27681(2) -0.072220(17) -0.523180(14)
Mo3A Mo 0.03602(2) -0.111550(14) -0.444480(12)
Mo4A Mo 0.05335(2) 0.091400(16) -0.339240(13)
O1A O 0.1788(2) 0.16467(16) -0.29006(12)
O2A O 0.00068(19) 0.02186(14) -0.26275(11)
O3A O -0.08842(18) 0.18256(13) -0.36306(11)
O4A O -0.2977(2) 0.05982(16) -0.33639(12)
O5A O -0.3594(2) 0.23217(16) -0.41828(14)
O6A O -0.34962(17) 0.05373(14) -0.50708(12)
O7A O -0.31623(19) -0.13618(15) -0.44052(12)
O8A O 0.15896(16) -0.01411(12) -0.38533(10)
O9A O -0.16029(18) 0.18924(13) -0.52731(11)
O10A O 0.10706(17) 0.14599(12) -0.46581(10)
O11A O -0.01967(19) -0.16864(13) -0.36355(11)
O12A O -0.09319(15) 0.01633(11) -0.44747(10)
O13A O -0.38235(19) -0.11649(17) -0.60589(13)
O18 O 0.2098(2) -0.64376(19) -0.3811(2)
H29 H 0.133(3) -0.636(3) -0.409(2)
H30 H 0.212(4) -0.692(2) -0.350(2)
O19 O 0.3182(3) -0.8493(3) -0.10827(19)
H31 H 0.331(5) -0.809(3) -0.144(2)
H32 H 0.385(3) -0.865(4) -0.076(2)
O20 O 0.4696(7) -0.7758(5) -0.2374(5)
H33 H 0.543(7) -0.766(7) -0.255(7)
H34 H 0.432(10) -0.721(4) -0.228(8)
loop_
_geom_bond_atom_site_label_1
_geom_bond_atom_site_label_2
_geom_bond_site_symmetry_1
_geom_bond_site_symmetry_2
Co1 N7 1_555 1_555
Co2 N1 1_555 1_555
Mo1 O3 1_555 1_555
Mo2 O6 1_555 1_555
Mo3 O8 1_555 1_555
Mo4 O1 1_555 1_555
F1 C23 1_555 1_555
F2 C21 1_555 1_555
F3 C10 1_555 1_555
F4 C8 1_555 1_555
C1 H1 1_555 1_555
C2 H2 1_555 1_555
C3 H3 1_555 1_555
H4 C3 1_555 1_555
C4 C3 1_555 1_555
C5 C4 1_555 1_555
C6 C5 1_555 1_555
H5 C6 1_555 1_555
C7 C6 1_555 1_555
H6 C7 1_555 1_555
C8 C7 1_555 1_555
C9 C8 1_555 1_555
H7 C9 1_555 1_555
C10 C5 1_555 1_555
C11 C4 1_555 1_555
H8 C11 1_555 1_555
H9 C11 1_555 1_555
C12 H10 1_555 1_555
C13 H11 1_555 1_555
C14 H12 1_555 1_555
C15 H13 1_555 1_555
C16 H14 1_555 1_555
H15 C16 1_555 1_555
C17 C16 1_555 1_555
C18 C17 1_555 1_555
C19 C18 1_555 1_555
H16 C19 1_555 1_555
C20 C19 1_555 1_555
H17 C20 1_555 1_555
C21 C20 1_555 1_555
C22 C21 1_555 1_555
H18 C22 1_555 1_555
C23 C18 1_555 1_555
C24 C17 1_555 1_555
H19 C24 1_555 1_555
H20 C24 1_555 1_555
C25 H21 1_555 1_555
C26 H22 1_555 1_555
N1 C1 1_555 1_555
N2 C2 1_555 1_555
N3 C1 1_555 1_555
N4 C11 1_555 1_555
N5 C12 1_555 1_555
N6 C12 1_555 1_555
N7 C14 1_555 1_555
N8 C15 1_555 1_555
N9 C14 1_555 1_555
N10 C24 1_555 1_555
N11 C26 1_555 1_555
N12 Co2 1_555 1_555
O2 Mo4 1_555 1_555
O3 Mo4 1_555 1_555
O4 Mo1 1_555 1_555
O5 Mo1 1_555 1_555
O6 Mo1 1_555 1_555
O7 Mo2 1_555 1_555
O8 Mo4 1_555 1_555
O9 Mo1 1_555 1_555
O10 Mo4 1_555 1_555
O11 Mo3 1_555 1_555
O12 Mo1 1_555 1_555
O13 Mo2 1_555 1_555
O14 C17 1_555 1_555
H23 O14 1_555 1_555
O15 C4 1_555 1_555
H24 O15 1_555 1_555
O16 Co2 1_555 1_555
H25 O16 1_555 1_555
H26 O16 1_555 1_555
O17 Co1 1_555 1_555
H27 O17 1_555 1_555
H28 O17 1_555 1_555
O18 H29 1_555 1_555
H30 O18 1_555 1_555
O19 H31 1_555 1_555
H32 O19 1_555 1_555
O20 H33 1_555 1_555
H34 O20 1_555 1_555
Co1_2 N6 1_555 1_555
Mo1A O3A 1_555 1_555
Mo2A O8 1_555 1_555
Mo3A O9 1_555 1_555
Mo4A O1A 1_555 1_555
F1A C23A 1_555 1_555
F2A C21A 1_555 1_555
F3A C10A 1_555 1_555
F4A C8A 1_555 1_555
C1A H1A 1_555 1_555
C2A H2A 1_555 1_555
C3A H3A 1_555 1_555
H4A C3A 1_555 1_555
C4A C3A 1_555 1_555
C5A C4A 1_555 1_555
C6A C5A 1_555 1_555
H5A C6A 1_555 1_555
C7A C6A 1_555 1_555
H6A C7A 1_555 1_555
C8A C7A 1_555 1_555
C9A C8A 1_555 1_555
H7A C9A 1_555 1_555
C10A C5A 1_555 1_555
C11A C4A 1_555 1_555
H8A C11A 1_555 1_555
H9A C11A 1_555 1_555
C12A H10A 1_555 1_555
C13A H11A 1_555 1_555
C14A H12A 1_555 1_555
C15A H13A 1_555 1_555
C16A H14A 1_555 1_555
H15A C16A 1_555 1_555
C17A C16A 1_555 1_555
C18A C17A 1_555 1_555
C19A C18A 1_555 1_555
H16A C19A 1_555 1_555
C20A C19A 1_555 1_555
H17A C20A 1_555 1_555
C21A C20A 1_555 1_555
C22A C21A 1_555 1_555
H18A C22A 1_555 1_555
C23A C18A 1_555 1_555
C24A C17A 1_555 1_555
H19A C24A 1_555 1_555
H20A C24A 1_555 1_555
C25A H21A 1_555 1_555
C26A H22A 1_555 1_555
N1A Co2 1_555 1_555
N2A C2A 1_555 1_555
N3A C1A 1_555 1_555
N4A C11A 1_555 1_555
N5A C12A 1_555 1_555
N6A Co1 1_555 1_555
N6_2 Co1 1_555 1_555
N7A Co1 1_555 1_555
N7A_2 Co1_2 1_555 1_555
N8A C15A 1_555 1_555
N9A C14A 1_555 1_555
N10A C24A 1_555 1_555
N11A C26A 1_555 1_555
N12A Co2 1_555 1_555
O2A Mo4A 1_555 1_555
O3A Mo4A 1_555 1_555
O4A Mo1A 1_555 1_555
O5A Mo1A 1_555 1_555
O6A Mo1A 1_555 1_555
O7A Mo2A 1_555 1_555
O8A Mo2 1_555 1_555
O9A Mo3 1_555 1_555
O10A Mo2 1_555 1_555
O11A Mo3A 1_555 1_555
O12A Mo3 1_555 1_555
O13A Mo2A 1_555 1_555
O14A C17A 1_555 1_555
H23A O14A 1_555 1_555
O15A C4A 1_555 1_555
H24A O15A 1_555 1_555
O16A Co2 1_555 1_555
H25A O16A 1_555 1_555
H26A O16A 1_555 1_555
O17A Co1 1_555 1_555
H27A O17A 1_555 1_555
H28A O17A 1_555 1_555
Mo2 O12 1_555 1_555
Mo3 O12 1_555 1_555
Mo3 O10A 1_555 1_555
Mo4 O12 1_555 1_555
C2 N1 1_555 1_555
C3 N2 1_555 1_555
C9 C10 1_555 1_555
C13 N4 1_555 1_555
C13 N6 1_555 1_555
C15 N7 1_555 1_555
C16 N9 1_555 1_555
C22 C23 1_555 1_555
C25 N10 1_555 1_555
C25 N12 1_555 1_555
C26 N12 1_555 1_555
N2 N3 1_555 1_555
N4 N5 1_555 1_555
N8 N9 1_555 1_555
N10 N11 1_555 1_555
O10 Mo2A 1_555 1_555
O10 Mo3A 1_555 1_555
O12 Mo3A 1_555 1_555
Mo1A O9A 1_555 1_555
Mo1A O12A 1_555 1_555
Mo2A O6A 1_555 1_555
Mo2A O12A 1_555 1_555
Mo3A O8A 1_555 1_555
Mo3A O12A 1_555 1_555
Mo4A O8A 1_555 1_555
Mo4A O10A 1_555 1_555
Mo4A O12A 1_555 1_555
C1A N1A 1_555 1_555
C2A N1A 1_555 1_555
C3A N2A 1_555 1_555
C9A C10A 1_555 1_555
C12A N6A 1_555 1_555
C13A N4A 1_555 1_555
C13A N6A 1_555 1_555
C14A N7A_2 1_555 1_555
C15A N7A_2 1_555 1_555
C16A N9A 1_555 1_555
C22A C23A 1_555 1_555
C25A N10A 1_555 1_555
C25A N12A 1_555 1_555
C26A N12A 1_555 1_555
N2A N3A 1_555 1_555
N4A N5A 1_555 1_555
N8A N9A 1_555 1_555
N10A N11A 1_555 1_555

#END
