
#######################################################################
#
#                 Cambridge Crystallographic Data Centre
#                                CCDC 
#
#######################################################################
#
# If this CIF has been generated from an entry in the Cambridge 
# Structural Database, then it will include bibliographic, chemical, 
# crystal, experimental, refinement or atomic coordinate data resulting 
# from the CCDC's data processing and validation procedures.
#
#######################################################################

data_GIQKEY
_symmetry_cell_setting           triclinic
_symmetry_space_group_name_H-M   'P -1'
_symmetry_Int_Tables_number      2
_space_group_name_Hall           '-P 1'
loop_
_symmetry_equiv_pos_site_id
_symmetry_equiv_pos_as_xyz
1 x,y,z
2 -x,-y,-z
_cell_length_a                   7.5545(11)
_cell_length_b                   8.1094(12)
_cell_length_c                   10.6947(16)
_cell_angle_alpha                103.493(2)
_cell_angle_beta                 98.385(2)
_cell_angle_gamma                92.117(2)
_cell_volume                     628.572
loop_
_atom_site_label
_atom_site_type_symbol
_atom_site_fract_x
_atom_site_fract_y
_atom_site_fract_z
C1 C 0.2680(3) 0.8835(3) 0.4602(3)
C2 C 0.2423(4) 0.7287(3) 0.5136(3)
C3 C 0.2732(4) 0.5685(3) 0.4439(3)
H1 H 0.3083 0.5541 0.3605
C4 C 0.2524(4) 0.4276(3) 0.4968(3)
C5 C 0.2064(4) 0.4537(3) 0.6205(3)
H2 H 0.1960 0.3610 0.6599
C6 C 0.1916(4) 0.7479(3) 0.6357(3)
H3 H 0.1679 0.8565 0.6843
C7 C -0.0158(4) 0.4978(4) 0.0694(3)
C8 C 0.0540(4) 1.0032(3) -0.0563(3)
C9 C 0.5260(3) 0.5485(3) -0.0508(3)
Gd1 Gd 0.296070(17) 0.809548(15) 0.126110(12)
H4 H 0.145(4) 0.624(4) 0.759(3)
H5 H 0.264(5) 0.195(5) 0.467(4)
H6 H 0.651(5) 0.884(5) 0.282(4)
H7 H 0.675(6) 0.882(5) 0.160(4)
H8 H 0.358(5) 1.170(5) 0.264(4)
H9 H 0.426(6) 1.173(6) 0.159(4)
N1 N 0.1768(3) 0.6106(3) 0.6837(2)
O1 O 0.3169(3) 0.8609(2) 0.35105(18)
O2 O 0.2409(3) 1.0246(2) 0.53005(19)
O3 O 0.2795(3) 0.2731(3) 0.4261(2)
O4 O 0.0534(3) 0.6140(2) 0.16219(18)
O5 O -0.1139(3) 0.3706(3) 0.07510(19)
O6 O 0.2124(3) 0.9610(2) -0.04401(18)
O7 O -0.0248(3) 1.0509(3) -0.15128(19)
O8 O 0.4782(3) 0.6978(2) -0.03949(18)
O9 O 0.6105(3) 0.4715(2) -0.13498(19)
O10 O 0.6258(3) 0.8342(3) 0.2103(2)
O11 O 0.4084(3) 1.1117(3) 0.2026(2)
C7A C 0.0158(4) 0.5022(4) -0.0694(3)
O4A O -0.0534(3) 0.3860(2) -0.16219(18)
O5A O 0.1139(3) 0.6294(3) -0.07510(19)
C8A C -0.0540(4) 0.9968(3) 0.0563(3)
O6A O -0.2124(3) 1.0390(2) 0.04401(18)
O7A O 0.0248(3) 0.9491(3) 0.15128(19)
C9A C 0.4740(3) 0.4515(3) 0.0508(3)
O8A O 0.5218(3) 0.3022(2) 0.03949(18)
O9A O 0.3895(3) 0.5285(2) 0.13498(19)
C1A C -0.2680(3) 0.1165(3) -0.4602(3)
C2A C -0.2423(4) 0.2713(3) -0.5136(3)
C3A C -0.2732(4) 0.4315(3) -0.4439(3)
H1A H -0.3083 0.4459 -0.3605
C4A C -0.2524(4) 0.5724(3) -0.4968(3)
C5A C -0.2064(4) 0.5463(3) -0.6205(3)
H2A H -0.1960 0.6390 -0.6599
C6A C -0.1916(4) 0.2521(3) -0.6357(3)
H3A H -0.1679 0.1435 -0.6843
Gd1A Gd -0.296070(17) 0.190452(15) -0.126110(12)
H4A H -0.145(4) 0.376(4) -0.759(3)
H5A H -0.264(5) 0.805(5) -0.467(4)
H6A H -0.651(5) 0.116(5) -0.282(4)
H7A H -0.675(6) 0.118(5) -0.160(4)
H8A H -0.358(5) -0.170(5) -0.264(4)
H9A H -0.426(6) -0.173(6) -0.159(4)
N1A N -0.1768(3) 0.3894(3) -0.6837(2)
O1A O -0.3169(3) 0.1391(2) -0.35105(18)
O2A O -0.2409(3) -0.0246(2) -0.53005(19)
O3A O -0.2795(3) 0.7269(3) -0.4261(2)
O10A O -0.6258(3) 0.1658(3) -0.2103(2)
O11A O -0.4084(3) -0.1117(3) -0.2026(2)
Gd1A_2 Gd -0.296070(17) 1.190452(15) -0.126110(12)
Gd1A_3 Gd 0.703930(17) 0.190452(15) -0.126110(12)
O6A_2 O -0.2124(3) 0.0390(2) 0.04401(18)
O7_2 O -0.0248(3) 0.0509(3) -0.15128(19)
O8A_2 O -0.4782(3) 0.3022(2) 0.03949(18)
O9_2 O -0.3895(3) 0.4715(2) -0.13498(19)
loop_
_geom_bond_atom_site_label_1
_geom_bond_atom_site_label_2
_geom_bond_site_symmetry_1
_geom_bond_site_symmetry_2
C1 C2 1_555 1_555
C2 C3 1_555 1_555
C3 H1 1_555 1_555
C4 C3 1_555 1_555
C5 C4 1_555 1_555
H2 C5 1_555 1_555
C6 C2 1_555 1_555
H3 C6 1_555 1_555
C7 O4 1_555 1_555
C8 O6 1_555 1_555
C9 O8 1_555 1_555
Gd1 O1 1_555 1_555
H4 N1 1_555 1_555
H5 O3 1_555 1_555
H6 O10 1_555 1_555
H7 O10 1_555 1_555
H8 O11 1_555 1_555
H9 O11 1_555 1_555
N1 C5 1_555 1_555
O1 C1 1_555 1_555
O2 C1 1_555 1_555
O3 C4 1_555 1_555
O4 Gd1 1_555 1_555
O5 C7 1_555 1_555
O6 Gd1 1_555 1_555
O7 C8 1_555 1_555
O8 Gd1 1_555 1_555
O9 C9 1_555 1_555
O10 Gd1 1_555 1_555
O11 Gd1 1_555 1_555
C7A C7 1_555 1_555
O4A C7A 1_555 1_555
O5A Gd1 1_555 1_555
C8A C8 1_555 1_555
O6A C8A 1_555 1_555
O7A Gd1 1_555 1_555
C9A C9 1_555 1_555
O8A C9A 1_555 1_555
O9A Gd1 1_555 1_555
C1A C2A 1_555 1_555
C2A C3A 1_555 1_555
C3A H1A 1_555 1_555
C4A C3A 1_555 1_555
C5A C4A 1_555 1_555
H2A C5A 1_555 1_555
C6A C2A 1_555 1_555
H3A C6A 1_555 1_555
Gd1A O5 1_555 1_555
H4A N1A 1_555 1_555
H5A O3A 1_555 1_555
H6A O10A 1_555 1_555
H7A O10A 1_555 1_555
H8A O11A 1_555 1_555
H9A O11A 1_555 1_555
N1A C5A 1_555 1_555
O1A C1A 1_555 1_555
O2A C1A 1_555 1_555
O3A C4A 1_555 1_555
O10A Gd1A 1_555 1_555
O11A Gd1A 1_555 1_555
Gd1A_2 O7 1_555 1_555
Gd1A_3 O9 1_555 1_555
O6A_2 Gd1A 1_555 1_555
O7_2 Gd1A 1_555 1_555
O8A_2 Gd1A 1_555 1_555
O9_2 Gd1A 1_555 1_555
C6 N1 1_555 1_555
C7A O5A 1_555 1_555
O4A Gd1A 1_555 1_555
C8A O7A 1_555 1_555
O6A Gd1A_2 1_555 1_555
C9A O9A 1_555 1_555
O8A Gd1A_3 1_555 1_555
C6A N1A 1_555 1_555
Gd1A O1A 1_555 1_555

#END
