
#######################################################################
#
#                 Cambridge Crystallographic Data Centre
#                                CCDC 
#
#######################################################################
#
# If this CIF has been generated from an entry in the Cambridge 
# Structural Database, then it will include bibliographic, chemical, 
# crystal, experimental, refinement or atomic coordinate data resulting 
# from the CCDC's data processing and validation procedures.
#
#######################################################################

data_GIQKOI
_symmetry_cell_setting           monoclinic
_symmetry_space_group_name_H-M   'P 21/c'
_symmetry_Int_Tables_number      14
_space_group_name_Hall           '-P 2ybc'
loop_
_symmetry_equiv_pos_site_id
_symmetry_equiv_pos_as_xyz
1 x,y,z
2 -x,1/2+y,1/2-z
3 -x,-y,-z
4 x,1/2-y,1/2+z
_cell_length_a                   8.0240(11)
_cell_length_b                   12.2366(17)
_cell_length_c                   11.0003(11)
_cell_angle_alpha                90
_cell_angle_beta                 109.696(14)
_cell_angle_gamma                90
_cell_volume                     1016.89
loop_
_atom_site_label
_atom_site_type_symbol
_atom_site_fract_x
_atom_site_fract_y
_atom_site_fract_z
N1 N 0.3592(7) 0.3569(5) 0.2239(5)
Ag1 Ag 0.35379(8) 0.11251(5) -0.08523(5)
N2 N 0.2979(7) 0.0258(4) 0.2768(5)
H1 H 0.3089 0.0430 0.3549
N3 N 0.3370(8) 0.3940(5) 0.0267(5)
N4 N 0.4133(8) 0.2943(5) 0.0538(5)
N5 N 0.3042(8) 0.4324(5) 0.1275(5)
C1 C 0.3730(9) 0.0777(6) 0.2005(6)
N6 N 0.3261(7) 0.0334(5) 0.0833(5)
C2 C 0.2176(9) -0.0550(6) 0.0853(6)
C3 C 0.2002(8) -0.0598(6) 0.2073(6)
C4 C 0.1015(10) -0.1401(6) 0.2395(7)
H2 H 0.0899 -0.1423 0.3208
C5 C 0.4969(9) 0.1712(6) 0.2468(6)
H3 H 0.6092 0.1535 0.2364
H4 H 0.5182 0.1825 0.3381
C6 C 0.1353(9) -0.1319(6) -0.0080(7)
H5 H 0.1459 -0.1294 -0.0896
C7 C 0.0209(9) -0.2167(6) 0.1469(7)
H6 H -0.0454 -0.2723 0.1660
C8 C 0.0372(10) -0.2123(6) 0.0242(7)
H7 H -0.0193 -0.2648 -0.0369
C9 C 0.4264(8) 0.2739(6) 0.1754(5)
N1C N 0.3592(7) 0.1431(5) -0.2761(5)
Ag1C Ag 0.35379(8) 0.38749(5) 0.41477(5)
loop_
_geom_bond_atom_site_label_1
_geom_bond_atom_site_label_2
_geom_bond_site_symmetry_1
_geom_bond_site_symmetry_2
N1 N5 1_555 1_555
Ag1 N4 1_555 1_555
N2 H1 1_555 1_555
N3 N4 1_555 1_555
N4 C9 1_555 1_555
N5 N3 1_555 1_555
C1 N2 1_555 1_555
N6 Ag1 1_555 1_555
C2 N6 1_555 1_555
C3 N2 1_555 1_555
C4 C3 1_555 1_555
H2 C4 1_555 1_555
C5 C1 1_555 1_555
H3 C5 1_555 1_555
H4 C5 1_555 1_555
C6 C2 1_555 1_555
H5 C6 1_555 1_555
C7 C4 1_555 1_555
H6 C7 1_555 1_555
C8 C6 1_555 1_555
H7 C8 1_555 1_555
C9 N1 1_555 1_555
N1C Ag1 1_555 1_555
Ag1C N1 1_555 1_555
C1 N6 1_555 1_555
C2 C3 1_555 1_555
C5 C9 1_555 1_555
C7 C8 1_555 1_555

#END
