
#######################################################################
#
#                 Cambridge Crystallographic Data Centre
#                                CCDC 
#
#######################################################################
#
# If this CIF has been generated from an entry in the Cambridge 
# Structural Database, then it will include bibliographic, chemical, 
# crystal, experimental, refinement or atomic coordinate data resulting 
# from the CCDC's data processing and validation procedures.
#
#######################################################################

data_GIQROP
_symmetry_cell_setting           triclinic
_symmetry_space_group_name_H-M   'P -1'
_symmetry_Int_Tables_number      2
_space_group_name_Hall           '-P 1'
loop_
_symmetry_equiv_pos_site_id
_symmetry_equiv_pos_as_xyz
1 x,y,z
2 -x,-y,-z
_cell_length_a                   10.209(6)
_cell_length_b                   11.454(7)
_cell_length_c                   11.908(7)
_cell_angle_alpha                116.586(8)
_cell_angle_beta                 105.833(9)
_cell_angle_gamma                100.470(9)
_cell_volume                     1120.79
loop_
_atom_site_label
_atom_site_type_symbol
_atom_site_fract_x
_atom_site_fract_y
_atom_site_fract_z
C1 C 0.8851(3) 0.4263(3) 0.3148(3)
H1 H 0.9359 0.3650 0.3005
C2 C 0.9538(3) 0.5600(3) 0.3448(4)
H2 H 1.0489 0.5871 0.3522
C3 C 0.8800(3) 0.6501(3) 0.3630(3)
H3 H 0.9238 0.7395 0.3826
C4 C 0.7370(3) 0.6065(2) 0.3519(2)
C5 C 0.6463(3) 0.6881(2) 0.3669(2)
C6 C 0.5470(3) 0.8466(3) 0.3945(3)
H4 H 0.5330 0.9283 0.4047
C7 C 0.5133(3) 0.6469(2) 0.3716(2)
C8 C 0.4501(2) 0.5097(2) 0.3462(2)
C9 C 0.3123(3) 0.4567(3) 0.3422(3)
H5 H 0.2566 0.5130 0.3620
C10 C 0.2608(3) 0.3212(3) 0.3089(3)
H6 H 0.1702 0.2848 0.3066
C11 C 0.3451(3) 0.2391(3) 0.2788(3)
H7 H 0.3083 0.1469 0.2546
C12 C 0.5304(2) 0.4205(2) 0.3177(2)
C13 C 0.6771(2) 0.4712(2) 0.3257(2)
C14 C 0.5915(3) 0.1330(3) -0.0656(3)
C15 C 0.6705(2) 0.2675(2) -0.0510(2)
C16 C 0.6230(3) 0.3776(3) 0.0062(3)
H8 H 0.5524 0.3678 0.0402
C17 C 0.6784(3) 0.5021(3) 0.0138(3)
H9 H 0.6462 0.5752 0.0541
C18 C 0.7804(3) 0.5174(3) -0.0379(3)
H10 H 0.8159 0.5998 -0.0351
C19 C 0.8299(3) 0.4094(3) -0.0941(3)
H11 H 0.8989 0.4201 -0.1294
C20 C 0.7792(2) 0.2839(2) -0.0995(2)
C21 C 0.8517(2) 0.1819(2) -0.1507(2)
C22 C 0.8599(3) 0.1419(3) -0.2762(3)
H12 H 0.8051 0.1648 -0.3343
C23 C 0.9483(3) 0.0687(3) -0.3160(3)
H13 H 0.9517 0.0424 -0.4009
C24 C 1.0323(3) 0.0336(2) -0.2318(3)
C25 C 1.0195(3) 0.0679(3) -0.1091(3)
H14 H 1.0718 0.0418 -0.0529
C26 C 0.9299(3) 0.1404(3) -0.0691(3)
H15 H 0.9218 0.1616 0.0133
C27 C 1.1390(3) -0.0331(2) -0.2736(3)
N1 N 0.7508(2) 0.3821(2) 0.3057(2)
N2 N 0.4764(2) 0.2861(2) 0.2827(2)
N3 N 0.6651(2) 0.8170(2) 0.3806(2)
H16 H 0.7379 0.8681 0.3803
N4 N 0.4525(2) 0.7493(2) 0.3922(2)
O1 O 0.5554(2) 0.1427(2) 0.0291(2)
O2 O 0.5520(2) 0.02213(18) -0.1768(2)
O3 O 0.7057(2) 0.2126(2) 0.4414(2)
O4 O 1.1950(2) -0.0884(2) -0.2122(2)
O5 O 1.1655(2) -0.0278(2) -0.3694(2)
Mn1 Mn 0.61701(4) 0.15396(4) 0.22068(4)
H17 H 0.652(3) 0.210(3) 0.488(3)
H18 H 0.745(4) 0.151(4) 0.435(4)
O2A O 0.4480(2) -0.02213(18) 0.1768(2)
O4A O 0.8050(2) 0.0884(2) 0.2122(2)
Mn1A Mn 0.38299(4) -0.15396(4) -0.22068(4)
Mn1A_2 Mn 1.38299(4) -0.15396(4) -0.22068(4)
loop_
_geom_bond_atom_site_label_1
_geom_bond_atom_site_label_2
_geom_bond_site_symmetry_1
_geom_bond_site_symmetry_2
C1 H1 1_555 1_555
C2 C1 1_555 1_555
H2 C2 1_555 1_555
C3 C2 1_555 1_555
H3 C3 1_555 1_555
C4 C3 1_555 1_555
C5 C4 1_555 1_555
C6 H4 1_555 1_555
C7 C5 1_555 1_555
C8 C7 1_555 1_555
C9 C8 1_555 1_555
H5 C9 1_555 1_555
C10 C9 1_555 1_555
H6 C10 1_555 1_555
C11 C10 1_555 1_555
H7 C11 1_555 1_555
C12 C8 1_555 1_555
C13 C4 1_555 1_555
C14 C15 1_555 1_555
C15 C16 1_555 1_555
C16 H8 1_555 1_555
C17 C16 1_555 1_555
H9 C17 1_555 1_555
C18 C17 1_555 1_555
H10 C18 1_555 1_555
C19 C18 1_555 1_555
H11 C19 1_555 1_555
C20 C15 1_555 1_555
C21 C20 1_555 1_555
C22 C21 1_555 1_555
H12 C22 1_555 1_555
C23 C22 1_555 1_555
H13 C23 1_555 1_555
C24 C23 1_555 1_555
C25 C24 1_555 1_555
H14 C25 1_555 1_555
C26 C21 1_555 1_555
H15 C26 1_555 1_555
C27 C24 1_555 1_555
N1 C1 1_555 1_555
N2 C11 1_555 1_555
N3 C5 1_555 1_555
H16 N3 1_555 1_555
N4 C6 1_555 1_555
O1 C14 1_555 1_555
O2 C14 1_555 1_555
O3 Mn1 1_555 1_555
O4 C27 1_555 1_555
O5 C27 1_555 1_555
Mn1 N1 1_555 1_555
H17 O3 1_555 1_555
H18 O3 1_555 1_555
O2A Mn1 1_555 1_555
O4A Mn1 1_555 1_555
Mn1A O2 1_555 1_555
Mn1A_2 O4 1_555 1_555
C6 N3 1_555 1_555
C7 N4 1_555 1_555
C12 C13 1_555 1_555
C12 N2 1_555 1_555
C13 N1 1_555 1_555
C19 C20 1_555 1_555
C25 C26 1_555 1_555
N2 Mn1 1_555 1_555
O1 Mn1 1_555 1_555

#END
