
#######################################################################
#
#                 Cambridge Crystallographic Data Centre
#                                CCDC 
#
#######################################################################
#
# If this CIF has been generated from an entry in the Cambridge 
# Structural Database, then it will include bibliographic, chemical, 
# crystal, experimental, refinement or atomic coordinate data resulting 
# from the CCDC's data processing and validation procedures.
#
#######################################################################

data_GIQRUV
_symmetry_cell_setting           monoclinic
_symmetry_space_group_name_H-M   'P 21/n'
_symmetry_Int_Tables_number      14
_space_group_name_Hall           '-P 2yn'
loop_
_symmetry_equiv_pos_site_id
_symmetry_equiv_pos_as_xyz
1 x,y,z
2 1/2-x,1/2+y,1/2-z
3 -x,-y,-z
4 1/2+x,1/2-y,1/2+z
_cell_length_a                   7.1428(13)
_cell_length_b                   18.618(3)
_cell_length_c                   17.598(3)
_cell_angle_alpha                90
_cell_angle_beta                 91.293(3)
_cell_angle_gamma                90
_cell_volume                     2339.67
loop_
_atom_site_label
_atom_site_type_symbol
_atom_site_fract_x
_atom_site_fract_y
_atom_site_fract_z
C1 C 0.1058(3) 0.02809(13) 0.24624(12)
H1 H 0.0933 0.0540 0.2910
C2 C 0.0402(3) -0.04210(13) 0.24360(13)
H2 H -0.0162 -0.0620 0.2858
C3 C 0.0584(3) -0.08201(12) 0.17897(12)
H3 H 0.0184 -0.1295 0.1771
C4 C 0.1389(3) -0.04960(11) 0.11551(11)
C5 C 0.1596(3) -0.08217(11) 0.04247(12)
C6 C 0.1610(3) -0.15246(12) -0.05650(13)
H4 H 0.1471 -0.1933 -0.0866
C7 C 0.2239(3) -0.04563(11) -0.01987(11)
C8 C 0.2812(3) 0.02805(11) -0.01495(11)
C9 C 0.3434(3) 0.06999(12) -0.07531(12)
H5 H 0.3513 0.0505 -0.1238
C10 C 0.3928(3) 0.14019(12) -0.06226(12)
H6 H 0.4317 0.1690 -0.1021
C11 C 0.3844(3) 0.16815(12) 0.01122(12)
H7 H 0.4205 0.2156 0.0194
C12 C 0.2724(3) 0.06087(11) 0.05733(11)
C13 C 0.1991(3) 0.02234(11) 0.12195(11)
C14 C 0.2310(3) 0.28816(12) 0.15394(11)
C15 C 0.1756(3) 0.36413(12) 0.13733(13)
C16 C 0.0336(3) 0.39389(14) 0.18045(14)
H8 H -0.0258 0.3660 0.2165
C17 C -0.0190(4) 0.46469(15) 0.16981(17)
H9 H -0.1118 0.4847 0.1994
C18 C 0.0662(4) 0.50542(14) 0.11529(18)
H10 H 0.0321 0.5532 0.1085
C19 C 0.2020(4) 0.47561(14) 0.07074(15)
H11 H 0.2552 0.5032 0.0328
C20 C 0.2614(3) 0.40491(12) 0.08131(12)
C21 C 0.4041(3) 0.37469(11) 0.02888(12)
C22 C 0.3494(4) 0.35958(14) -0.04573(13)
H12 H 0.2247 0.3654 -0.0609
C23 C 0.4784(4) 0.33594(13) -0.09789(13)
H13 H 0.4401 0.3276 -0.1480
C24 C 0.6623(3) 0.32473(11) -0.07626(12)
C25 C 0.7177(3) 0.33780(12) -0.00151(12)
H14 H 0.8412 0.3296 0.0141
C26 C 0.5892(3) 0.36312(12) 0.05017(12)
H15 H 0.6284 0.3725 0.1000
C27 C 0.8017(3) 0.30139(12) -0.13496(12)
N1 N 0.1857(3) 0.05987(10) 0.18762(10)
N2 N 0.3267(2) 0.12966(9) 0.06993(10)
N3 N 0.1194(3) -0.15087(9) 0.01777(11)
H16 H 0.0765 -0.1857 0.0444
N4 N 0.2234(3) -0.09052(10) -0.08263(10)
O1 O 0.1069(2) 0.24050(9) 0.15587(10)
O2 O 0.4002(2) 0.27209(8) 0.16720(9)
O3 O 0.5824(3) 0.12181(11) 0.21228(10)
O4 O 0.7644(3) 0.32163(10) -0.20136(9)
O5 O 0.9425(2) 0.26590(9) -0.11408(10)
Co1 Co 0.31392(4) 0.161807(15) 0.187337(15)
H17 H 0.646(4) 0.1080(16) 0.1788(18)
H18 H 0.644(5) 0.1585(17) 0.2324(19)
O4C O 0.2644(3) 0.17837(10) 0.29864(9)
Co1C Co 0.81392(4) 0.338193(15) -0.312663(15)
O6 O 0.7054(3) 0.25552(12) 0.27362(12)
loop_
_geom_bond_atom_site_label_1
_geom_bond_atom_site_label_2
_geom_bond_site_symmetry_1
_geom_bond_site_symmetry_2
C1 H1 1_555 1_555
C2 C1 1_555 1_555
H2 C2 1_555 1_555
C3 C2 1_555 1_555
H3 C3 1_555 1_555
C4 C3 1_555 1_555
C5 C4 1_555 1_555
C6 H4 1_555 1_555
C7 C5 1_555 1_555
C8 C7 1_555 1_555
C9 C8 1_555 1_555
H5 C9 1_555 1_555
C10 C9 1_555 1_555
H6 C10 1_555 1_555
C11 C10 1_555 1_555
H7 C11 1_555 1_555
C12 C8 1_555 1_555
C13 C4 1_555 1_555
C14 C15 1_555 1_555
C15 C16 1_555 1_555
C16 H8 1_555 1_555
C17 C16 1_555 1_555
H9 C17 1_555 1_555
C18 C17 1_555 1_555
H10 C18 1_555 1_555
C19 C18 1_555 1_555
H11 C19 1_555 1_555
C20 C15 1_555 1_555
C21 C20 1_555 1_555
C22 C21 1_555 1_555
H12 C22 1_555 1_555
C23 C22 1_555 1_555
H13 C23 1_555 1_555
C24 C23 1_555 1_555
C25 C24 1_555 1_555
H14 C25 1_555 1_555
C26 C21 1_555 1_555
H15 C26 1_555 1_555
C27 C24 1_555 1_555
N1 C1 1_555 1_555
N2 C11 1_555 1_555
N3 C5 1_555 1_555
H16 N3 1_555 1_555
N4 C6 1_555 1_555
O1 C14 1_555 1_555
O2 C14 1_555 1_555
O3 Co1 1_555 1_555
O4 C27 1_555 1_555
O5 C27 1_555 1_555
Co1 N1 1_555 1_555
H17 O3 1_555 1_555
H18 O3 1_555 1_555
O4C Co1 1_555 1_555
Co1C O4 1_555 1_555
C6 N3 1_555 1_555
C7 N4 1_555 1_555
C12 C13 1_555 1_555
C12 N2 1_555 1_555
C13 N1 1_555 1_555
C19 C20 1_555 1_555
C25 C26 1_555 1_555
N2 Co1 1_555 1_555
O1 Co1 1_555 1_555
O2 Co1 1_555 1_555

#END
