
#######################################################################
#
#                 Cambridge Crystallographic Data Centre
#                                CCDC 
#
#######################################################################
#
# If this CIF has been generated from an entry in the Cambridge 
# Structural Database, then it will include bibliographic, chemical, 
# crystal, experimental, refinement or atomic coordinate data resulting 
# from the CCDC's data processing and validation procedures.
#
#######################################################################

data_GIQYIQ
_symmetry_cell_setting           monoclinic
_symmetry_space_group_name_H-M   'C 2/c'
_symmetry_Int_Tables_number      15
_space_group_name_Hall           '-C 2yn'
loop_
_symmetry_equiv_pos_site_id
_symmetry_equiv_pos_as_xyz
1 x,y,z
2 -x,y,1/2-z
3 1/2+x,1/2+y,z
4 1/2-x,1/2+y,1/2-z
5 -x,-y,-z
6 x,-y,1/2+z
7 1/2-x,1/2-y,-z
8 1/2+x,1/2-y,1/2+z
_cell_length_a                   19.475(3)
_cell_length_b                   9.2038(14)
_cell_length_c                   12.852(2)
_cell_angle_alpha                90
_cell_angle_beta                 93.523(2)
_cell_angle_gamma                90
_cell_volume                     2299.29
loop_
_atom_site_label
_atom_site_type_symbol
_atom_site_fract_x
_atom_site_fract_y
_atom_site_fract_z
Cd1 Cd 0.0000 0.21374(3) 1.2500
Cd2 Cd 0.0000 0.61120(3) 1.2500
Cl1 Cl 0.03384(4) 0.40228(6) 1.38946(5)
O1 O 0.11149(9) 0.2001(2) 1.18835(15)
O2 O 0.03567(8) 0.0394(2) 1.13055(14)
O3 O -0.02481(10) 0.7698(2) 1.10504(15)
H1 H -0.0049 0.8575 1.1054
H2 H -0.0190 0.7232 1.0451
N1 N 0.38995(10) -0.1450(3) 0.78438(17)
N2 N 0.29357(10) -0.1248(2) 0.86348(16)
C1 C 0.09479(13) 0.0958(3) 1.13020(19)
C2 C 0.14615(12) 0.0372(3) 1.05870(18)
C3 C 0.12891(12) -0.0675(3) 0.9862(2)
H3 H 0.0841 -0.1027 0.9801
C4 C 0.17728(12) -0.1221(3) 0.9217(2)
H4 H 0.1650 -0.1936 0.8729
C5 C 0.24361(13) -0.0697(3) 0.9305(2)
C6 C 0.26210(14) 0.0332(4) 1.0042(3)
H5 H 0.3073 0.0660 1.0119
C7 C 0.21287(16) 0.0877(4) 1.0672(3)
H6 H 0.2250 0.1594 1.1158
C8 C 0.28763(13) -0.2455(3) 0.8003(2)
H7 H 0.2501 -0.3079 0.7925
C9 C 0.34688(12) -0.2557(3) 0.7519(2)
H8 H 0.3570 -0.3269 0.7039
C10 C 0.35672(14) -0.0686(3) 0.8517(2)
H9 H 0.3743 0.0130 0.8866
Cl1A Cl -0.03384(4) 0.40228(6) 1.11054(5)
O1A O -0.11149(9) 0.2001(2) 1.31165(15)
O2A O -0.03567(8) 0.0394(2) 1.36945(14)
O3A O 0.02481(10) 0.7698(2) 1.39496(15)
H1A H 0.0049 0.8575 1.3946
H2A H 0.0190 0.7232 1.4549
N1A N -0.38995(10) -0.1450(3) 1.71562(17)
N2A N -0.29357(10) -0.1248(2) 1.63652(16)
C1A C -0.09479(13) 0.0958(3) 1.36980(19)
C2A C -0.14615(12) 0.0372(3) 1.44130(18)
C3A C -0.12891(12) -0.0675(3) 1.5138(2)
H3A H -0.0841 -0.1027 1.5199
C4A C -0.17728(12) -0.1221(3) 1.5783(2)
H4A H -0.1650 -0.1936 1.6271
C5A C -0.24361(13) -0.0697(3) 1.5695(2)
C6A C -0.26210(14) 0.0332(4) 1.4958(3)
H5A H -0.3073 0.0660 1.4881
C7A C -0.21287(16) 0.0877(4) 1.4328(3)
H6A H -0.2250 0.1594 1.3842
C8A C -0.28763(13) -0.2455(3) 1.6997(2)
H7A H -0.2501 -0.3079 1.7075
C9A C -0.34688(12) -0.2557(3) 1.7481(2)
H8A H -0.3570 -0.3269 1.7961
C10A C -0.35672(14) -0.0686(3) 1.6483(2)
H9A H -0.3743 0.0130 1.6134
Cd2F Cd -0.5000 -0.11120(3) 1.7500
Cd2F_2 Cd 0.5000 -0.11120(3) 0.7500
N1F N 0.11005(10) 0.6450(3) 1.21562(17)
N1G N -0.11005(10) 0.6450(3) 1.28438(17)
loop_
_geom_bond_atom_site_label_1
_geom_bond_atom_site_label_2
_geom_bond_site_symmetry_1
_geom_bond_site_symmetry_2
Cd1 Cl1 1_555 1_555
Cd2 Cl1 1_555 1_555
O1 Cd1 1_555 1_555
O2 Cd1 1_555 1_555
O3 Cd2 1_555 1_555
H1 O3 1_555 1_555
H2 O3 1_555 1_555
N1 C9 1_555 1_555
N2 C5 1_555 1_555
C1 O1 1_555 1_555
C2 C1 1_555 1_555
C3 C2 1_555 1_555
H3 C3 1_555 1_555
C4 C3 1_555 1_555
H4 C4 1_555 1_555
C5 C4 1_555 1_555
C6 C5 1_555 1_555
H5 C6 1_555 1_555
C7 C2 1_555 1_555
H6 C7 1_555 1_555
C8 N2 1_555 1_555
H7 C8 1_555 1_555
C9 C8 1_555 1_555
H8 C9 1_555 1_555
C10 N1 1_555 1_555
H9 C10 1_555 1_555
Cl1A Cd1 1_555 1_555
O1A Cd1 1_555 1_555
O2A Cd1 1_555 1_555
O3A Cd2 1_555 1_555
H1A O3A 1_555 1_555
H2A O3A 1_555 1_555
N1A C9A 1_555 1_555
N2A C5A 1_555 1_555
C1A O1A 1_555 1_555
C2A C1A 1_555 1_555
C3A C2A 1_555 1_555
H3A C3A 1_555 1_555
C4A C3A 1_555 1_555
H4A C4A 1_555 1_555
C5A C4A 1_555 1_555
C6A C5A 1_555 1_555
H5A C6A 1_555 1_555
C7A C2A 1_555 1_555
H6A C7A 1_555 1_555
C8A N2A 1_555 1_555
H7A C8A 1_555 1_555
C9A C8A 1_555 1_555
H8A C9A 1_555 1_555
C10A N1A 1_555 1_555
H9A C10A 1_555 1_555
Cd2F N1A 1_555 1_555
Cd2F_2 N1 1_555 1_555
N1F Cd2 1_555 1_555
N1G Cd2 1_555 1_555
Cd2 Cl1A 1_555 1_555
O2 C1 1_555 1_555
N2 C10 1_555 1_555
C6 C7 1_555 1_555
O2A C1A 1_555 1_555
N2A C10A 1_555 1_555
C6A C7A 1_555 1_555

#END
