
#######################################################################
#
#                 Cambridge Crystallographic Data Centre
#                                CCDC 
#
#######################################################################
#
# If this CIF has been generated from an entry in the Cambridge 
# Structural Database, then it will include bibliographic, chemical, 
# crystal, experimental, refinement or atomic coordinate data resulting 
# from the CCDC's data processing and validation procedures.
#
#######################################################################

data_GIRFIY
_symmetry_cell_setting           orthorhombic
_symmetry_space_group_name_H-M   'P b c a'
_symmetry_Int_Tables_number      61
_space_group_name_Hall           '-P 2ac 2ab'
loop_
_symmetry_equiv_pos_site_id
_symmetry_equiv_pos_as_xyz
1 x,y,z
2 1/2-x,-y,1/2+z
3 -x,1/2+y,1/2-z
4 1/2+x,1/2-y,-z
5 -x,-y,-z
6 1/2+x,y,1/2-z
7 x,1/2-y,1/2+z
8 1/2-x,1/2+y,z
_cell_length_a                   14.0790(11)
_cell_length_b                   17.0038(15)
_cell_length_c                   17.3191(16)
_cell_angle_alpha                90
_cell_angle_beta                 90
_cell_angle_gamma                90
_cell_volume                     4146.13
loop_
_atom_site_label
_atom_site_type_symbol
_atom_site_fract_x
_atom_site_fract_y
_atom_site_fract_z
C1 C 0.3712(3) 0.7734(2) 0.8128(2)
H1 H 0.4245 0.8087 0.8200
H2 H 0.3145 0.8052 0.8065
O1 O 0.99936(13) 0.98713(14) 0.90492(12)
O2 O 0.84695(14) 0.99252(14) 0.88029(12)
C2 C 0.9316(2) 0.98555(17) 0.85853(16)
C3 C 0.3411(3) 0.7508(2) 0.9537(2)
H3 H 0.3295 0.8027 0.9678
C4 C 0.3867(3) 0.7259(2) 0.7409(2)
C5 C 0.3127(3) 0.6845(2) 0.7066(2)
H4 H 0.2522 0.6868 0.7280
C6 C 0.3278(3) 0.6403(2) 0.6417(2)
H5 H 0.2779 0.6125 0.6197
C7 C 0.8036(2) 0.97702(17) 0.59088(17)
Cd1 Cd 0.633996(14) 0.993230(12) 0.509894(11)
O3 O 0.81630(16) 0.98828(14) 0.52091(11)
C8 C 0.87386(19) 0.98142(16) 0.72309(16)
H6 H 0.8132 0.9907 0.7422
C9 C 0.88745(19) 0.97296(17) 0.64446(16)
O4 O 0.72322(14) 0.96879(14) 0.62041(12)
N1 N 0.3607(2) 0.72387(15) 0.88163(15)
C10 C 0.9787(2) 0.95946(18) 0.61656(16)
H7 H 0.9883 0.9540 0.5637
C11 C 1.0559(2) 0.95398(17) 0.66654(16)
N2 N 0.36196(18) 0.62188(15) 0.95935(15)
N3 N 0.59622(19) 0.74155(16) 0.54593(17)
C12 C 0.9498(2) 0.97622(17) 0.77358(15)
N4 N 1.14563(17) 0.93735(16) 0.63678(15)
H8 H 1.1932 0.9318 0.6674
H9 H 1.1534 0.9326 0.5877
C13 C 1.0406(2) 0.96200(17) 0.74551(16)
H10 H 1.0914 0.9578 0.7796
C14 C 0.3731(2) 0.64599(19) 0.88841(19)
H11 H 0.3878 0.6130 0.8473
N5 N 0.61078(19) 0.86141(15) 0.50092(15)
C15 C 0.5941(3) 0.7369(2) 0.4677(2)
H12 H 0.5878 0.6913 0.4384
C16 C 0.3418(2) 0.6882(2) 1.0008(2)
H13 H 0.3302 0.6897 1.0536
C17 C 0.6029(2) 0.8108(2) 0.4407(2)
H14 H 0.6036 0.8249 0.3888
C18 C 0.6062(2) 0.8178(2) 0.5630(2)
H15 H 0.6096 0.8374 0.6130
C19 C 0.5867(3) 0.6776(2) 0.6020(2)
H16 H 0.6360 0.6826 0.6408
H17 H 0.5955 0.6277 0.5759
C20 C 0.4170(3) 0.63708(19) 0.60908(19)
H18 H 0.4269 0.6067 0.5651
C21 C 0.4753(3) 0.7214(2) 0.7073(2)
H19 H 0.5257 0.7482 0.7300
C22 C 0.4916(2) 0.6782(2) 0.6407(2)
O1A O 0.50064(13) 1.01287(14) 0.40492(12)
O1E O 0.49936(13) 0.98713(14) 0.59508(12)
O2A O 0.65305(14) 1.00748(14) 0.38029(12)
Cd1A Cd 0.866004(14) 1.006770(12) 1.009894(11)
Cd1B Cd 0.366004(14) 0.493230(12) 0.990106(11)
Cd1E Cd 1.133996(14) 0.993230(12) 0.990106(11)
N2B N 0.63804(18) 1.12188(15) 0.54065(15)
loop_
_geom_bond_atom_site_label_1
_geom_bond_atom_site_label_2
_geom_bond_site_symmetry_1
_geom_bond_site_symmetry_2
C1 H1 1_555 1_555
H2 C1 1_555 1_555
O1 C2 1_555 1_555
O2 C2 1_555 1_555
C2 C12 1_555 1_555
C3 H3 1_555 1_555
C4 C1 1_555 1_555
C5 C4 1_555 1_555
H4 C5 1_555 1_555
C6 C5 1_555 1_555
H5 C6 1_555 1_555
C7 O3 1_555 1_555
Cd1 O3 1_555 1_555
C8 H6 1_555 1_555
C9 C7 1_555 1_555
O4 C7 1_555 1_555
N1 C1 1_555 1_555
C10 C9 1_555 1_555
H7 C10 1_555 1_555
C11 C10 1_555 1_555
N2 C14 1_555 1_555
N3 C15 1_555 1_555
C12 C8 1_555 1_555
N4 C11 1_555 1_555
H8 N4 1_555 1_555
H9 N4 1_555 1_555
C13 C11 1_555 1_555
H10 C13 1_555 1_555
C14 N1 1_555 1_555
H11 C14 1_555 1_555
N5 Cd1 1_555 1_555
C15 H12 1_555 1_555
C16 C3 1_555 1_555
H13 C16 1_555 1_555
C17 N5 1_555 1_555
H14 C17 1_555 1_555
C18 N3 1_555 1_555
H15 C18 1_555 1_555
C19 N3 1_555 1_555
H16 C19 1_555 1_555
H17 C19 1_555 1_555
C20 C6 1_555 1_555
H18 C20 1_555 1_555
C21 C4 1_555 1_555
H19 C21 1_555 1_555
C22 C19 1_555 1_555
O1A Cd1 1_555 1_555
O1E Cd1 1_555 1_555
O2A Cd1 1_555 1_555
Cd1A O1 1_555 1_555
Cd1B N2 1_555 1_555
Cd1E O1 1_555 1_555
N2B Cd1 1_555 1_555
O2 Cd1A 1_555 1_555
C3 N1 1_555 1_555
Cd1 O4 1_555 1_555
C8 C9 1_555 1_555
N2 C16 1_555 1_555
C12 C13 1_555 1_555
N5 C18 1_555 1_555
C15 C17 1_555 1_555
C20 C22 1_555 1_555
C21 C22 1_555 1_555

#END
