
#######################################################################
#
#                 Cambridge Crystallographic Data Centre
#                                CCDC 
#
#######################################################################
#
# If this CIF has been generated from an entry in the Cambridge 
# Structural Database, then it will include bibliographic, chemical, 
# crystal, experimental, refinement or atomic coordinate data resulting 
# from the CCDC's data processing and validation procedures.
#
#######################################################################

data_GIRGUK
_symmetry_cell_setting           orthorhombic
_symmetry_space_group_name_H-M   'F d d 2'
_symmetry_Int_Tables_number      43
_space_group_name_Hall           'F 2 -2d'
loop_
_symmetry_equiv_pos_site_id
_symmetry_equiv_pos_as_xyz
1 x,y,z
2 -x,-y,z
3 1/4-x,1/4+y,1/4+z
4 1/4+x,1/4-y,1/4+z
5 x,1/2+y,1/2+z
6 -x,1/2-y,1/2+z
7 1/4-x,3/4+y,3/4+z
8 1/4+x,3/4-y,3/4+z
9 1/2+x,y,1/2+z
10 1/2-x,-y,1/2+z
11 3/4-x,1/4+y,3/4+z
12 3/4+x,1/4-y,3/4+z
13 1/2+x,1/2+y,z
14 1/2-x,1/2-y,z
15 3/4-x,3/4+y,1/4+z
16 3/4+x,3/4-y,1/4+z
_cell_length_a                   24.7086(19)
_cell_length_b                   26.937(2)
_cell_length_c                   7.2010(5)
_cell_angle_alpha                90
_cell_angle_beta                 90
_cell_angle_gamma                90
_cell_volume                     4792.81
loop_
_atom_site_label
_atom_site_type_symbol
_atom_site_fract_x
_atom_site_fract_y
_atom_site_fract_z
O4 O 0.0296(7) 0.0198(7) 0.737(3)
C9 C 0.0000 0.0000 0.844(3)
O4A O -0.0296(7) -0.0198(7) 0.737(3)
Ag1 Ag 0.05469(2) 0.17326(2) 0.70467(10)
Cl1 Cl -0.06786(8) 0.10326(7) 0.6301(3)
O1 O -0.0231(2) 0.0976(2) 1.1667(8)
O2 O 0.0437(3) 0.1132(3) 0.9861(13)
O3 O -0.0221(4) 0.1639(3) 1.0003(11)
N1 N -0.0275(3) 0.1888(3) 0.5264(10)
N2 N -0.0649(3) 0.2456(3) 0.3008(10)
N3 N -0.0006(3) 0.1242(3) 1.0497(11)
N4 N -0.1547(3) 0.1419(2) 0.3224(9)
N5 N -0.1467(3) 0.2128(2) 0.1567(9)
C1 C -0.0280(3) 0.2312(3) 0.4277(12)
H1 H 0.0003 0.2532 0.4498
C2 C -0.1042(3) 0.2120(3) 0.2782(12)
C3 C -0.1094(3) 0.1676(3) 0.3795(11)
C4 C -0.0690(3) 0.1569(3) 0.5044(12)
C5 C -0.1751(3) 0.1694(3) 0.1913(16)
H2 H -0.2061 0.1606 0.1260
C6 C -0.1600(3) 0.2487(3) 0.0119(12)
H3 H -0.1946 0.2399 -0.0425
H4 H -0.1638 0.2813 0.0679
C7 C -0.1185(4) 0.2515(3) -0.1388(12)
H5 H -0.0995 0.2228 -0.1694
C8 C -0.1077(4) 0.2924(4) -0.2300(12)
H6 H -0.1263 0.3215 -0.2018
H7 H -0.0816 0.2924 -0.3228
Ag1E Ag -0.05469(2) 0.32674(2) 1.20467(10)
Ag1E_2 Ag -0.05469(2) 0.32674(2) 0.20467(10)
Ag1K Ag -0.19531(2) 0.07674(2) 0.45467(10)
Ag1B Ag 0.19531(2) 0.42326(2) 0.95467(10)
Cl1E Cl 0.06786(8) 0.39674(7) 1.1301(3)
O1E O 0.0231(2) 0.4024(2) 1.6667(8)
O2E O -0.0437(3) 0.3868(3) 1.4861(13)
O3E O 0.0221(4) 0.3361(3) 1.5003(11)
N1E N 0.0275(3) 0.3112(3) 1.0264(10)
N2E N 0.0649(3) 0.2544(3) 0.8008(10)
N2_2 N -0.0649(3) 0.2456(3) 1.3008(10)
N3E N 0.0006(3) 0.3758(3) 1.5497(11)
N4E N 0.1547(3) 0.3581(2) 0.8224(9)
N4C N 0.0953(3) 0.1081(2) 0.5724(9)
N4J N -0.0953(3) 0.3919(2) 1.0724(9)
N5E N 0.1467(3) 0.2872(2) 0.6567(9)
C1E C 0.0280(3) 0.2688(3) 0.9277(12)
H1E H -0.0003 0.2468 0.9498
C2E C 0.1042(3) 0.2880(3) 0.7782(12)
C3E C 0.1094(3) 0.3324(3) 0.8795(11)
C4E C 0.0690(3) 0.3431(3) 1.0044(12)
C5E C 0.1751(3) 0.3306(3) 0.6913(16)
H2E H 0.2061 0.3394 0.6260
C6E C 0.1600(3) 0.2513(3) 0.5119(12)
H3E H 0.1946 0.2601 0.4575
H4E H 0.1638 0.2187 0.5679
C7E C 0.1185(4) 0.2485(3) 0.3612(12)
H5E H 0.0995 0.2772 0.3306
C8E C 0.1077(4) 0.2076(4) 0.2700(12)
H6E H 0.1263 0.1785 0.2982
H7E H 0.0816 0.2076 0.1772
loop_
_geom_bond_atom_site_label_1
_geom_bond_atom_site_label_2
_geom_bond_site_symmetry_1
_geom_bond_site_symmetry_2
Ag1 O2 1_555 1_555
Cl1 C4 1_555 1_555
O1 N3 1_555 1_555
O2 N3 1_555 1_555
O3 N3 1_555 1_555
N1 Ag1 1_555 1_555
N2 C1 1_555 1_555
N4 C3 1_555 1_555
N5 C2 1_555 1_555
C1 N1 1_555 1_555
H1 C1 1_555 1_555
C2 N2 1_555 1_555
C3 C2 1_555 1_555
C4 N1 1_555 1_555
C5 N4 1_555 1_555
H2 C5 1_555 1_555
C6 N5 1_555 1_555
H3 C6 1_555 1_555
H4 C6 1_555 1_555
C7 C6 1_555 1_555
H5 C7 1_555 1_555
C8 C7 1_555 1_555
H6 C8 1_555 1_555
H7 C8 1_555 1_555
O4 C9 1_555 1_555
C9 O4A 1_555 1_555
Ag1E O2E 1_555 1_555
Ag1E_2 N2 1_555 1_555
Ag1K N4 1_555 1_555
Ag1B N4E 1_555 1_555
Cl1E C4E 1_555 1_555
O1E N3E 1_555 1_555
O2E N3E 1_555 1_555
O3E N3E 1_555 1_555
N1E Ag1E 1_555 1_555
N2E Ag1 1_555 1_555
N2_2 Ag1E 1_555 1_555
N4E C3E 1_555 1_555
N4C Ag1 1_555 1_555
N4J Ag1E 1_555 1_555
N5E C2E 1_555 1_555
C1E N1E 1_555 1_555
H1E C1E 1_555 1_555
C2E N2E 1_555 1_555
C3E C2E 1_555 1_555
C4E N1E 1_555 1_555
C5E N4E 1_555 1_555
H2E C5E 1_555 1_555
C6E N5E 1_555 1_555
H3E C6E 1_555 1_555
H4E C6E 1_555 1_555
C7E C6E 1_555 1_555
H5E C7E 1_555 1_555
C8E C7E 1_555 1_555
H6E C8E 1_555 1_555
H7E C8E 1_555 1_555
N5 C5 1_555 1_555
C3 C4 1_555 1_555
N2E C1E 1_555 1_555
N5E C5E 1_555 1_555
C3E C4E 1_555 1_555

#END
