
#######################################################################
#
#                 Cambridge Crystallographic Data Centre
#                                CCDC 
#
#######################################################################
#
# If this CIF has been generated from an entry in the Cambridge 
# Structural Database, then it will include bibliographic, chemical, 
# crystal, experimental, refinement or atomic coordinate data resulting 
# from the CCDC's data processing and validation procedures.
#
#######################################################################

data_GIRHAR
_symmetry_cell_setting           orthorhombic
_symmetry_space_group_name_H-M   'F d d 2'
_symmetry_Int_Tables_number      43
_space_group_name_Hall           'F 2 -2d'
loop_
_symmetry_equiv_pos_site_id
_symmetry_equiv_pos_as_xyz
1 x,y,z
2 -x,-y,z
3 1/4-x,1/4+y,1/4+z
4 1/4+x,1/4-y,1/4+z
5 x,1/2+y,1/2+z
6 -x,1/2-y,1/2+z
7 1/4-x,3/4+y,3/4+z
8 1/4+x,3/4-y,3/4+z
9 1/2+x,y,1/2+z
10 1/2-x,-y,1/2+z
11 3/4-x,1/4+y,3/4+z
12 3/4+x,1/4-y,3/4+z
13 1/2+x,1/2+y,z
14 1/2-x,1/2-y,z
15 3/4-x,3/4+y,1/4+z
16 3/4+x,3/4-y,1/4+z
_cell_length_a                   24.053(2)
_cell_length_b                   26.067(3)
_cell_length_c                   8.0593(7)
_cell_angle_alpha                90
_cell_angle_beta                 90
_cell_angle_gamma                90
_cell_volume                     5053.1
loop_
_atom_site_label
_atom_site_type_symbol
_atom_site_fract_x
_atom_site_fract_y
_atom_site_fract_z
Ag1 Ag 0.19917(3) 0.06870(3) 0.07369(10)
N1 N 0.2869(3) 0.0534(3) 0.1967(12)
N2 N 0.3217(3) 0.0000(3) 0.4164(11)
N3 N 0.3304(3) 0.1277(3) 0.1128(11)
H1 H 0.3043 0.1325 0.0413
H2 H 0.3572 0.1494 0.1206
N4 N 0.4167(3) 0.1042(3) 0.3843(10)
N5 N 0.4063(3) 0.0353(3) 0.5432(10)
C1 C 0.2861(4) 0.0127(3) 0.2973(13)
H3 H 0.2566 -0.0099 0.2818
C2 C 0.3631(4) 0.0345(4) 0.4312(13)
C3 C 0.3699(3) 0.0771(3) 0.3327(14)
C4 C 0.3292(4) 0.0868(3) 0.2111(12)
C5 C 0.4361(4) 0.0787(4) 0.5055(13)
H4 H 0.4678 0.0885 0.5635
C6 C 0.4174(4) 0.0002(4) 0.6816(15)
H5 H 0.4218 -0.0344 0.6388
H6 H 0.4519 0.0099 0.7350
C7 C 0.3717(5) 0.0007(5) 0.8065(15)
H7 H 0.3527 0.0314 0.8222
C8 C 0.3564(5) -0.0385(5) 0.8952(16)
H8 H 0.3743 -0.0699 0.8829
H9 H 0.3274 -0.0352 0.9709
Ag1I Ag 0.30083(3) -0.06870(3) -0.42631(10)
Ag1I_2 Ag 0.30083(3) -0.06870(3) 0.57369(10)
Ag1C Ag 0.44917(3) 0.18130(3) 0.32369(10)
Ag1F Ag 0.05083(3) -0.18130(3) -0.17631(10)
N1I N 0.2131(3) -0.0534(3) -0.3033(12)
N2I N 0.1783(3) 0.0000(3) -0.0836(11)
N2_2 N 0.3217(3) 0.0000(3) -0.5836(11)
N3I N 0.1696(3) -0.1277(3) -0.3872(11)
H1I H 0.1957 -0.1325 -0.4587
H2I H 0.1428 -0.1494 -0.3794
N4I N 0.0833(3) -0.1042(3) -0.1157(10)
N4K N 0.1667(3) 0.1458(3) 0.1343(10)
N4N N 0.3333(3) -0.1458(3) -0.3657(10)
N5I N 0.0937(3) -0.0353(3) 0.0432(10)
C1I C 0.2139(4) -0.0127(3) -0.2027(13)
H3I H 0.2434 0.0099 -0.2182
C2I C 0.1369(4) -0.0345(4) -0.0688(13)
C3I C 0.1301(3) -0.0771(3) -0.1673(14)
C4I C 0.1708(4) -0.0868(3) -0.2889(12)
C5I C 0.0639(4) -0.0787(4) 0.0055(13)
H4I H 0.0322 -0.0885 0.0635
C6I C 0.0826(4) -0.0002(4) 0.1816(15)
H5I H 0.0782 0.0344 0.1388
H6I H 0.0481 -0.0099 0.2350
C7I C 0.1283(5) -0.0007(5) 0.3065(15)
H7I H 0.1473 -0.0314 0.3222
C8I C 0.1436(5) 0.0385(5) 0.3952(16)
H8I H 0.1257 0.0699 0.3829
H9I H 0.1726 0.0352 0.4709
Cl1 Cl -0.00546(11) 0.11785(11) 0.4287(3)
O1 O 0.0033(5) 0.0653(5) 0.454(3)
O2 O 0.0194(5) 0.1282(7) 0.2794(13)
O3 O -0.0612(4) 0.1286(5) 0.4254(15)
O4 O 0.0208(4) 0.1455(3) 0.5562(13)
O5 O 0.2500 0.2500 0.020(2)
loop_
_geom_bond_atom_site_label_1
_geom_bond_atom_site_label_2
_geom_bond_site_symmetry_1
_geom_bond_site_symmetry_2
Ag1 N1 1_555 1_555
Cl1 O1 1_555 1_555
N1 C1 1_555 1_555
N2 C1 1_555 1_555
N3 H1 1_555 1_555
H2 N3 1_555 1_555
N4 C3 1_555 1_555
N5 C2 1_555 1_555
O2 Cl1 1_555 1_555
O3 Cl1 1_555 1_555
O4 Cl1 1_555 1_555
C1 H3 1_555 1_555
C2 N2 1_555 1_555
C3 C2 1_555 1_555
C4 N1 1_555 1_555
C5 N4 1_555 1_555
H4 C5 1_555 1_555
C6 N5 1_555 1_555
H5 C6 1_555 1_555
H6 C6 1_555 1_555
C7 C6 1_555 1_555
H7 C7 1_555 1_555
C8 C7 1_555 1_555
H8 C8 1_555 1_555
H9 C8 1_555 1_555
Ag1I N1I 1_555 1_555
Ag1I_2 N2 1_555 1_555
Ag1C N4 1_555 1_555
Ag1F N4I 1_555 1_555
N1I C1I 1_555 1_555
N2I Ag1 1_555 1_555
N2_2 Ag1I 1_555 1_555
N3I H1I 1_555 1_555
H2I N3I 1_555 1_555
N4I C3I 1_555 1_555
N4K Ag1 1_555 1_555
N4N Ag1I 1_555 1_555
N5I C2I 1_555 1_555
C1I N2I 1_555 1_555
H3I C1I 1_555 1_555
C2I N2I 1_555 1_555
C3I C2I 1_555 1_555
C4I N1I 1_555 1_555
C5I N4I 1_555 1_555
H4I C5I 1_555 1_555
C6I N5I 1_555 1_555
H5I C6I 1_555 1_555
H6I C6I 1_555 1_555
C7I C6I 1_555 1_555
H7I C7I 1_555 1_555
C8I C7I 1_555 1_555
H8I C8I 1_555 1_555
H9I C8I 1_555 1_555
N3 C4 1_555 1_555
N5 C5 1_555 1_555
C3 C4 1_555 1_555
N3I C4I 1_555 1_555
N5I C5I 1_555 1_555
C3I C4I 1_555 1_555

#END
