
#######################################################################
#
#                 Cambridge Crystallographic Data Centre
#                                CCDC 
#
#######################################################################
#
# If this CIF has been generated from an entry in the Cambridge 
# Structural Database, then it will include bibliographic, chemical, 
# crystal, experimental, refinement or atomic coordinate data resulting 
# from the CCDC's data processing and validation procedures.
#
#######################################################################

data_GIRHIZ
_symmetry_cell_setting           orthorhombic
_symmetry_space_group_name_H-M   'F d d 2'
_symmetry_Int_Tables_number      43
_space_group_name_Hall           'F 2 -2d'
loop_
_symmetry_equiv_pos_site_id
_symmetry_equiv_pos_as_xyz
1 x,y,z
2 -x,-y,z
3 1/4-x,1/4+y,1/4+z
4 1/4+x,1/4-y,1/4+z
5 x,1/2+y,1/2+z
6 -x,1/2-y,1/2+z
7 1/4-x,3/4+y,3/4+z
8 1/4+x,3/4-y,3/4+z
9 1/2+x,y,1/2+z
10 1/2-x,-y,1/2+z
11 3/4-x,1/4+y,3/4+z
12 3/4+x,1/4-y,3/4+z
13 1/2+x,1/2+y,z
14 1/2-x,1/2-y,z
15 3/4-x,3/4+y,1/4+z
16 3/4+x,3/4-y,1/4+z
_cell_length_a                   23.871(3)
_cell_length_b                   26.107(4)
_cell_length_c                   7.9152(10)
_cell_angle_alpha                90
_cell_angle_beta                 90
_cell_angle_gamma                90
_cell_volume                     4932.75
loop_
_atom_site_label
_atom_site_type_symbol
_atom_site_fract_x
_atom_site_fract_y
_atom_site_fract_z
Ag1 Ag 0.30115(2) 0.06990(2) 0.33328(8)
N1 N 0.3227(3) 0.0020(3) 0.4938(10)
N2 N 0.3341(3) -0.1247(3) 0.8136(12)
H1 H 0.3605 -0.1470 0.8058
H2 H 0.3084 -0.1283 0.8889
N3 N 0.2880(3) -0.0517(3) 0.7209(10)
C1 C 0.3712(3) -0.0745(3) 0.5836(13)
N4 N 0.4205(3) -0.1019(3) 0.5329(10)
N5 N 0.4084(3) -0.0330(2) 0.3653(10)
C2 C 0.3650(3) -0.0321(3) 0.4823(11)
C3 C 0.3702(3) 0.0037(3) 0.0996(14)
H3 H 0.3491 -0.0258 0.0818
C4 C 0.3329(3) -0.0840(3) 0.7072(12)
C5 C 0.4177(3) 0.0014(4) 0.2248(13)
H4 H 0.4241 0.0356 0.2688
H5 H 0.4514 -0.0091 0.1659
C6 C 0.4392(4) -0.0751(3) 0.4044(11)
H6 H 0.4712 -0.0843 0.3446
C7 C 0.2869(3) -0.0109(3) 0.6142(12)
H7 H 0.2565 0.0111 0.6277
C8 C 0.3572(3) 0.0447(4) 0.0155(13)
H8 H 0.3777 0.0746 0.0311
H9 H 0.3275 0.0441 -0.0604
Ag1I Ag 0.19885(2) -0.06990(2) -0.16672(8)
Ag1I_2 Ag 0.19885(2) -0.06990(2) 0.83328(8)
Ag1N Ag 0.44885(2) -0.18010(2) 0.58328(8)
Ag1K Ag 0.05115(2) 0.18010(2) 0.08328(8)
N1I N 0.1773(3) -0.0020(3) -0.0062(10)
N2I N 0.1659(3) 0.1247(3) 0.3136(12)
H1I H 0.1395 0.1470 0.3058
H2I H 0.1916 0.1283 0.3889
N3I N 0.2120(3) 0.0517(3) 0.2209(10)
N3_2 N 0.2880(3) -0.0517(3) -0.2791(10)
C1I C 0.1288(3) 0.0745(3) 0.0836(13)
N4I N 0.0795(3) 0.1019(3) 0.0329(10)
N4J N 0.3295(3) 0.1481(3) 0.2829(10)
N4O N 0.1705(3) -0.1481(3) -0.2171(10)
N5I N 0.0916(3) 0.0330(2) -0.1347(10)
C2I C 0.1350(3) 0.0321(3) -0.0177(11)
C3I C 0.1298(3) -0.0037(3) -0.4004(14)
H3I H 0.1509 0.0258 -0.4182
C4I C 0.1671(3) 0.0840(3) 0.2072(12)
C5I C 0.0823(3) -0.0014(4) -0.2752(13)
H4I H 0.0759 -0.0356 -0.2312
H5I H 0.0486 0.0091 -0.3341
C6I C 0.0608(4) 0.0751(3) -0.0956(11)
H6I H 0.0288 0.0843 -0.1554
C7I C 0.2131(3) 0.0109(3) 0.1142(12)
H7I H 0.2435 -0.0111 0.1277
C8I C 0.1428(3) -0.0447(4) -0.4845(13)
H8I H 0.1223 -0.0746 -0.4689
H9I H 0.1725 -0.0441 -0.5604
F1 F 0.5556(2) 0.1344(3) -0.0214(10)
F2 F 0.4708(3) 0.1496(3) -0.1244(11)
F3 F 0.4787(3) 0.1236(4) 0.1408(9)
F4 F 0.4961(4) 0.0696(3) -0.0660(15)
B1 B 0.5007(5) 0.1190(5) -0.0184(16)
O1 O 0.5000 0.0000 -0.355(2)
loop_
_geom_bond_atom_site_label_1
_geom_bond_atom_site_label_2
_geom_bond_site_symmetry_1
_geom_bond_site_symmetry_2
Ag1 N1 1_555 1_555
N1 C2 1_555 1_555
N2 H1 1_555 1_555
H2 N2 1_555 1_555
N3 C4 1_555 1_555
F1 B1 1_555 1_555
C1 N4 1_555 1_555
F2 B1 1_555 1_555
N4 C6 1_555 1_555
N5 C2 1_555 1_555
C2 C1 1_555 1_555
F3 B1 1_555 1_555
C3 H3 1_555 1_555
C4 N2 1_555 1_555
C5 N5 1_555 1_555
H4 C5 1_555 1_555
H5 C5 1_555 1_555
F4 B1 1_555 1_555
C6 N5 1_555 1_555
H6 C6 1_555 1_555
C7 N1 1_555 1_555
H7 C7 1_555 1_555
C8 C3 1_555 1_555
H8 C8 1_555 1_555
H9 C8 1_555 1_555
Ag1I N1I 1_555 1_555
Ag1I_2 N3 1_555 1_555
Ag1N N4 1_555 1_555
Ag1K N4I 1_555 1_555
N1I C2I 1_555 1_555
N2I H1I 1_555 1_555
H2I N2I 1_555 1_555
N3I Ag1 1_555 1_555
N3_2 Ag1I 1_555 1_555
C1I N4I 1_555 1_555
N4I C6I 1_555 1_555
N4J Ag1 1_555 1_555
N4O Ag1I 1_555 1_555
N5I C2I 1_555 1_555
C2I C1I 1_555 1_555
C3I H3I 1_555 1_555
C4I N2I 1_555 1_555
C5I N5I 1_555 1_555
H4I C5I 1_555 1_555
H5I C5I 1_555 1_555
C6I N5I 1_555 1_555
H6I C6I 1_555 1_555
C7I N1I 1_555 1_555
H7I C7I 1_555 1_555
C8I C3I 1_555 1_555
H8I C8I 1_555 1_555
H9I C8I 1_555 1_555
N3 C7 1_555 1_555
C1 C4 1_555 1_555
C3 C5 1_555 1_555
N3I C4I 1_555 1_555
N3I C7I 1_555 1_555
C1I C4I 1_555 1_555
C3I C5I 1_555 1_555

#END
