
#######################################################################
#
#                 Cambridge Crystallographic Data Centre
#                                CCDC 
#
#######################################################################
#
# If this CIF has been generated from an entry in the Cambridge 
# Structural Database, then it will include bibliographic, chemical, 
# crystal, experimental, refinement or atomic coordinate data resulting 
# from the CCDC's data processing and validation procedures.
#
#######################################################################

data_GIRLUP
_symmetry_cell_setting           orthorhombic
_symmetry_space_group_name_H-M   'P n a 21'
_symmetry_Int_Tables_number      33
_space_group_name_Hall           'P 2c -2n'
loop_
_symmetry_equiv_pos_site_id
_symmetry_equiv_pos_as_xyz
1 x,y,z
2 -x,-y,1/2+z
3 1/2+x,1/2-y,z
4 1/2-x,1/2+y,1/2+z
_cell_length_a                   8.972(11)
_cell_length_b                   13.188(17)
_cell_length_c                   15.573(19)
_cell_angle_alpha                90
_cell_angle_beta                 90
_cell_angle_gamma                90
_cell_volume                     1842.64
loop_
_atom_site_label
_atom_site_type_symbol
_atom_site_fract_x
_atom_site_fract_y
_atom_site_fract_z
Zn1 Zn 0.95237(6) 0.07407(4) 0.83034(5)
O1 O 1.0191(14) 0.1505(6) 0.6819(8)
O2 O 0.9160(9) 0.2084(4) 0.7827(4)
O3 O 0.7295(5) 0.5460(3) 0.3991(3)
O4 O 0.8446(6) 0.4788(3) 0.2872(3)
N1 N 1.0889(5) 0.1028(3) 0.9351(3)
N2 N 1.3247(5) 0.1726(3) 1.1603(3)
H1 H 1.332(6) 0.116(3) 1.193(3)
N3 N 1.4676(5) 0.4454(3) 1.2736(3)
C1 C 1.0913(6) 0.0408(4) 1.0039(3)
H2 H 1.0380 -0.0196 1.0014
C2 C 1.1683(6) 0.0626(4) 1.0770(3)
H3 H 1.1687 0.0165 1.1221
C3 C 1.2464(6) 0.1533(3) 1.0847(3)
C4 C 1.2505(6) 0.2166(4) 1.0124(3)
H4 H 1.3068 0.2758 1.0127
C5 C 1.1689(7) 0.1890(4) 0.9406(3)
H5 H 1.1694 0.2324 0.8936
C6 C 1.5148(6) 0.3525(4) 1.3004(3)
H6 H 1.5819 0.3494 1.3458
C7 C 1.4691(6) 0.2644(4) 1.2643(3)
H7 H 1.5052 0.2031 1.2853
C8 C 1.3671(6) 0.2649(4) 1.1951(3)
C9 C 1.3137(6) 0.3598(4) 1.1696(4)
H8 H 1.2438 0.3650 1.1257
C10 C 1.3660(6) 0.4462(4) 1.2104(4)
H9 H 1.3284 0.5085 1.1929
C11 C 1.0402(6) 0.3388(4) 0.5851(3)
C12 C 0.9902(6) 0.4200(4) 0.5362(4)
H10 H 0.9157 0.4612 0.5586
C13 C 1.0463(6) 0.4426(4) 0.4552(4)
C14 C 1.1557(7) 0.3793(5) 0.4225(4)
H11 H 1.1954 0.3923 0.3685
C15 C 1.2069(7) 0.2969(5) 0.4690(4)
H12 H 1.2793 0.2544 0.4460
C16 C 1.1492(7) 0.2783(5) 0.5503(4)
H13 H 1.1852 0.2236 0.5818
C17 C 0.9830(8) 0.3259(5) 0.6760(4)
H14 H 1.0455 0.3672 0.7129
H15 H 0.8838 0.3551 0.6779
C18 C 0.9737(8) 0.2226(5) 0.7159(5)
C19 C 0.9931(7) 0.5350(5) 0.4066(5)
H16 H 1.0682 0.5541 0.3648
H17 H 0.9818 0.5909 0.4466
C20 C 0.8445(7) 0.5179(4) 0.3600(3)
Zn1C Zn 0.54763(6) 0.57407(4) 0.33034(5)
Zn1C_2 Zn 1.54763(6) 0.57407(4) 1.33034(5)
O3C O 0.7705(5) 0.0460(3) 0.8991(3)
N3C N 1.0324(5) -0.0546(3) 0.7736(3)
loop_
_geom_bond_atom_site_label_1
_geom_bond_atom_site_label_2
_geom_bond_site_symmetry_1
_geom_bond_site_symmetry_2
Zn1 O2 1_555 1_555
O1 C18 1_555 1_555
O2 C18 1_555 1_555
O3 C20 1_555 1_555
O4 C20 1_555 1_555
N1 Zn1 1_555 1_555
N2 H1 1_555 1_555
N3 C6 1_555 1_555
C1 N1 1_555 1_555
H2 C1 1_555 1_555
C2 C1 1_555 1_555
H3 C2 1_555 1_555
C3 N2 1_555 1_555
C4 C3 1_555 1_555
H4 C4 1_555 1_555
C5 N1 1_555 1_555
H5 C5 1_555 1_555
C6 H6 1_555 1_555
C7 C6 1_555 1_555
H7 C7 1_555 1_555
C8 N2 1_555 1_555
C9 C8 1_555 1_555
H8 C9 1_555 1_555
C10 N3 1_555 1_555
H9 C10 1_555 1_555
C11 C12 1_555 1_555
C12 H10 1_555 1_555
C13 C12 1_555 1_555
C14 C13 1_555 1_555
H11 C14 1_555 1_555
C15 C14 1_555 1_555
H12 C15 1_555 1_555
C16 C11 1_555 1_555
H13 C16 1_555 1_555
C17 C11 1_555 1_555
H14 C17 1_555 1_555
H15 C17 1_555 1_555
C18 C17 1_555 1_555
C19 C13 1_555 1_555
H16 C19 1_555 1_555
H17 C19 1_555 1_555
C20 C19 1_555 1_555
Zn1C O3 1_555 1_555
Zn1C_2 N3 1_555 1_555
O3C Zn1 1_555 1_555
N3C Zn1 1_555 1_555
C2 C3 1_555 1_555
C4 C5 1_555 1_555
C7 C8 1_555 1_555
C9 C10 1_555 1_555
C15 C16 1_555 1_555

#END
