
#######################################################################
#
#                 Cambridge Crystallographic Data Centre
#                                CCDC 
#
#######################################################################
#
# If this CIF has been generated from an entry in the Cambridge 
# Structural Database, then it will include bibliographic, chemical, 
# crystal, experimental, refinement or atomic coordinate data resulting 
# from the CCDC's data processing and validation procedures.
#
#######################################################################

data_GIRRAA
_symmetry_cell_setting           triclinic
_symmetry_space_group_name_H-M   'P -1'
_symmetry_Int_Tables_number      2
_space_group_name_Hall           '-P 1'
loop_
_symmetry_equiv_pos_site_id
_symmetry_equiv_pos_as_xyz
1 x,y,z
2 -x,-y,-z
_cell_length_a                   11.550(2)
_cell_length_b                   11.569(1)
_cell_length_c                   8.113(1)
_cell_angle_alpha                107.98(5)
_cell_angle_beta                 90.86(4)
_cell_angle_gamma                91.32(4)
_cell_volume                     1030.58
loop_
_atom_site_label
_atom_site_type_symbol
_atom_site_fract_x
_atom_site_fract_y
_atom_site_fract_z
Cu1 Cu 0.5000 0.5000 0.0000
Cu2 Cu 0.5000 0.5000 0.5000
P1 P 0.3574(3) 0.3271(3) 0.1714(4)
P2 P 0.4400(3) 0.7124(3) 0.3426(4)
O1 O 0.3718(7) 0.3955(8) 0.041(1)
O2 O 0.3738(7) 0.3960(8) 0.360(1)
O3 O 0.4200(7) 0.6444(8) 0.154(1)
O4 O 0.4223(7) 0.6446(8) 0.471(1)
O5 O 0.6051(7) 0.4754(9) 0.240(1)
C1 C 0.450(1) 0.195(1) 0.117(2)
C2 C 0.208(1) 0.269(1) 0.144(2)
C3 C 0.145(1) 0.266(1) 0.285(2)
C4 C 0.028(1) 0.227(2) 0.263(2)
C5 C -0.022(2) 0.188(2) 0.098(2)
C6 C 0.040(2) 0.192(2) -0.046(2)
C7 C 0.158(1) 0.233(1) -0.023(2)
C8 C 0.579(1) 0.790(1) 0.380(2)
C9 C 0.334(1) 0.831(1) 0.393(2)
C10 C 0.299(1) 0.884(1) 0.267(2)
C11 C 0.216(1) 0.974(1) 0.305(2)
C12 C 0.169(1) 1.008(1) 0.472(2)
C13 C 0.202(1) 0.959(2) 0.600(2)
C14 C 0.287(1) 0.868(1) 0.561(2)
C15 C 0.712(1) 0.479(1) 0.237(2)
N1 N 0.779(2) 0.457(2) 0.356(3)
P1A P 0.6426(3) 0.6729(3) -0.1714(4)
O1A O 0.6282(7) 0.6045(8) -0.041(1)
O2A O 0.6262(7) 0.6040(8) -0.360(1)
C1A C 0.550(1) 0.805(1) -0.117(2)
C2A C 0.792(1) 0.731(1) -0.144(2)
C3A C 0.855(1) 0.734(1) -0.285(2)
C4A C 0.972(1) 0.773(2) -0.263(2)
C5A C 1.022(2) 0.812(2) -0.098(2)
C6A C 0.960(2) 0.808(2) 0.046(2)
C7A C 0.842(1) 0.767(1) 0.023(2)
P2A P 0.5600(3) 0.2876(3) -0.3426(4)
O3A O 0.5800(7) 0.3556(8) -0.154(1)
O4A O 0.5777(7) 0.3554(8) -0.471(1)
C8A C 0.421(1) 0.210(1) -0.380(2)
C9A C 0.666(1) 0.169(1) -0.393(2)
C10A C 0.701(1) 0.116(1) -0.267(2)
C11A C 0.784(1) 0.026(1) -0.305(2)
C12A C 0.831(1) -0.008(1) -0.472(2)
C13A C 0.798(1) 0.041(2) -0.600(2)
C14A C 0.713(1) 0.132(1) -0.561(2)
O5A O 0.3949(7) 0.5246(9) -0.240(1)
C15A C 0.288(1) 0.521(1) -0.237(2)
N1A N 0.221(2) 0.543(2) -0.356(3)
O2A_2 O 0.6262(7) 0.6040(8) 0.640(1)
O4A_2 O 0.5777(7) 0.3554(8) 0.529(1)
O5A_2 O 0.3949(7) 0.5246(9) 0.760(1)
Cu2_2 Cu 0.5000 0.5000 -0.5000
O6 O 0.850(2) 0.425(2) 0.807(3)
C16 C 0.926(6) 0.422(6) 0.718(8)
N2 N 1.017(2) 0.419(2) 0.718(3)
loop_
_geom_bond_atom_site_label_1
_geom_bond_atom_site_label_2
_geom_bond_site_symmetry_1
_geom_bond_site_symmetry_2
Cu1 O1 1_555 1_555
Cu2 O2 1_555 1_555
P1 O1 1_555 1_555
P2 O3 1_555 1_555
O2 P1 1_555 1_555
O3 Cu1 1_555 1_555
O4 Cu2 1_555 1_555
O5 Cu1 1_555 1_555
C1 P1 1_555 1_555
C2 P1 1_555 1_555
C3 C2 1_555 1_555
C4 C3 1_555 1_555
C5 C4 1_555 1_555
C6 C5 1_555 1_555
C7 C2 1_555 1_555
C8 P2 1_555 1_555
C9 P2 1_555 1_555
C10 C9 1_555 1_555
C11 C10 1_555 1_555
C12 C11 1_555 1_555
C13 C12 1_555 1_555
C14 C9 1_555 1_555
C15 O5 1_555 1_555
N1 C15 1_555 1_555
O6 C16 1_555 1_555
C16 N2 1_555 1_555
P1A O1A 1_555 1_555
O1A Cu1 1_555 1_555
O2A P1A 1_555 1_555
C1A P1A 1_555 1_555
C2A P1A 1_555 1_555
C3A C2A 1_555 1_555
C4A C3A 1_555 1_555
C5A C4A 1_555 1_555
C6A C5A 1_555 1_555
C7A C2A 1_555 1_555
P2A O3A 1_555 1_555
O3A Cu1 1_555 1_555
O4A P2A 1_555 1_555
C8A P2A 1_555 1_555
C9A P2A 1_555 1_555
C10A C9A 1_555 1_555
C11A C10A 1_555 1_555
C12A C11A 1_555 1_555
C13A C12A 1_555 1_555
C14A C9A 1_555 1_555
O5A Cu1 1_555 1_555
C15A O5A 1_555 1_555
N1A C15A 1_555 1_555
O2A_2 Cu2 1_555 1_555
O4A_2 Cu2 1_555 1_555
O5A_2 Cu2 1_555 1_555
Cu2_2 O2A 1_555 1_555
Cu2 O5 1_555 1_555
P2 O4 1_555 1_555
C6 C7 1_555 1_555
C13 C14 1_555 1_555
C6A C7A 1_555 1_555
O4A Cu2_2 1_555 1_555
C13A C14A 1_555 1_555
O5A Cu2_2 1_555 1_555

#END
