
#######################################################################
#
#                 Cambridge Crystallographic Data Centre
#                                CCDC 
#
#######################################################################
#
# If this CIF has been generated from an entry in the Cambridge 
# Structural Database, then it will include bibliographic, chemical, 
# crystal, experimental, refinement or atomic coordinate data resulting 
# from the CCDC's data processing and validation procedures.
#
#######################################################################

data_GIRYOX
_symmetry_cell_setting           monoclinic
_symmetry_space_group_name_H-M   'C 2/c'
_symmetry_Int_Tables_number      15
_space_group_name_Hall           '-C 2yn'
loop_
_symmetry_equiv_pos_site_id
_symmetry_equiv_pos_as_xyz
1 x,y,z
2 -x,y,1/2-z
3 1/2+x,1/2+y,z
4 1/2-x,1/2+y,1/2-z
5 -x,-y,-z
6 x,-y,1/2+z
7 1/2-x,1/2-y,-z
8 1/2+x,1/2-y,1/2+z
_cell_length_a                   15.307(3)
_cell_length_b                   25.365(4)
_cell_length_c                   13.442(2)
_cell_angle_alpha                90
_cell_angle_beta                 124.029(2)
_cell_angle_gamma                90
_cell_volume                     4325.28
loop_
_atom_site_label
_atom_site_type_symbol
_atom_site_fract_x
_atom_site_fract_y
_atom_site_fract_z
Zn1 Zn 0.5000 0.0000 0.0000
Zn2 Zn 0.31094(2) 0.051222(9) -0.27296(2)
O1 O 0.75537(13) 0.06243(6) -0.05309(13)
O2 O 0.62493(14) 0.11734(7) -0.09870(14)
O3 O 0.66079(12) 0.02727(6) 0.08024(13)
O4 O 0.76966(13) 0.01055(6) 0.27641(13)
O5 O 0.9903(2) 0.15326(11) 0.53417(18)
O6 O 1.0094(2) 0.22356(9) 0.4622(2)
O7 O 0.45448(12) 0.03665(6) -0.15696(12)
H1 H 0.4932 0.0597 -0.1573
N1 N 0.97320(18) 0.18006(10) 0.4506(2)
N2 N 0.46009(14) 0.06977(7) 0.05965(15)
N3 N 0.24952(15) 0.38558(7) 0.23377(16)
C1 C 0.77680(17) 0.11712(8) 0.10077(18)
C2 C 0.79492(17) 0.08842(8) 0.19968(18)
C3 C 0.86172(17) 0.10883(9) 0.31466(19)
H2 H 0.8772 0.0894 0.3813
C4 C 0.90475(18) 0.15821(9) 0.3285(2)
C5 C 0.88582(19) 0.18810(9) 0.2329(2)
H3 H 0.9152 0.2215 0.2447
C6 C 0.82173(19) 0.16703(9) 0.1187(2)
H4 H 0.8084 0.1865 0.0529
C7 C 0.71101(19) 0.09692(9) -0.02728(19)
C8 C 0.73692(18) 0.03775(8) 0.18270(19)
C9 C 0.48275(18) 0.11869(8) 0.04417(18)
H5 H 0.5230 0.1229 0.0126
C10 C 0.44966(18) 0.16332(8) 0.07253(19)
H6 H 0.4683 0.1965 0.0610
C11 C 0.38791(18) 0.15821(9) 0.11870(18)
C12 C 0.36413(19) 0.10714(9) 0.1338(2)
H7 H 0.3231 0.1017 0.1640
C13 C 0.40126(18) 0.06466(8) 0.10420(19)
H8 H 0.3847 0.0309 0.1157
C14 C 0.34870(19) 0.20319(9) 0.1518(2)
H9 H 0.3063 0.1955 0.1793
C15 C 0.36796(18) 0.25370(9) 0.14608(19)
H10 H 0.4107 0.2615 0.1190
C16 C 0.30983(19) 0.39138(9) 0.1920(2)
H11 H 0.3262 0.4254 0.1816
C17 C 0.34935(19) 0.34953(9) 0.1634(2)
H12 H 0.3906 0.3557 0.1338
C18 C 0.32776(18) 0.29836(9) 0.17872(18)
C19 C 0.2665(2) 0.29253(9) 0.2246(2)
H13 H 0.2509 0.2590 0.2384
C20 C 0.2291(2) 0.33596(9) 0.2496(2)
H14 H 0.1873 0.3309 0.2790
Zn2A Zn 0.68906(2) 0.051222(9) -0.22704(2)
O1A O 0.24463(13) 0.06243(6) -0.44691(13)
O2A O 0.37507(14) 0.11734(7) -0.40130(14)
O3A O 0.33921(12) 0.02727(6) -0.58024(13)
O4A O 0.23034(13) 0.01055(6) -0.77641(13)
O5A O 0.0097(2) 0.15326(11) -1.03417(18)
O6A O -0.0094(2) 0.22356(9) -0.9622(2)
O7A O 0.54552(12) 0.03665(6) -0.34304(12)
H1A H 0.5068 0.0597 -0.3427
N1A N 0.02680(18) 0.18006(10) -0.9506(2)
C1A C 0.22320(17) 0.11712(8) -0.60077(18)
C2A C 0.20508(17) 0.08842(8) -0.69968(18)
C3A C 0.13828(17) 0.10883(9) -0.81466(19)
H2A H 0.1228 0.0894 -0.8813
C4A C 0.09525(18) 0.15821(9) -0.8285(2)
C5A C 0.11418(19) 0.18810(9) -0.7329(2)
H3A H 0.0848 0.2215 -0.7447
C6A C 0.17827(19) 0.16703(9) -0.6187(2)
H4A H 0.1916 0.1865 -0.5529
C7A C 0.28899(19) 0.09692(9) -0.47272(19)
C8A C 0.26308(18) 0.03775(8) -0.68270(19)
N2D N 0.53991(14) -0.06977(7) -0.05965(15)
N3D N 0.75048(15) -0.38558(7) -0.23377(16)
C9D C 0.51725(18) -0.11869(8) -0.04417(18)
H5D H 0.4770 -0.1229 -0.0126
C10D C 0.55034(18) -0.16332(8) -0.07253(19)
H6D H 0.5317 -0.1965 -0.0610
C11D C 0.61209(18) -0.15821(9) -0.11870(18)
C12D C 0.63587(19) -0.10714(9) -0.1338(2)
H7D H 0.6769 -0.1017 -0.1640
C13D C 0.59874(18) -0.06466(8) -0.10420(19)
H8D H 0.6153 -0.0309 -0.1157
C14D C 0.65130(19) -0.20319(9) -0.1518(2)
H9D H 0.6937 -0.1955 -0.1793
C15D C 0.63204(18) -0.25370(9) -0.14608(19)
H10D H 0.5893 -0.2615 -0.1190
C16D C 0.69017(19) -0.39138(9) -0.1920(2)
H11D H 0.6738 -0.4254 -0.1816
C17D C 0.65065(19) -0.34953(9) -0.1634(2)
H12D H 0.6094 -0.3557 -0.1338
C18D C 0.67224(18) -0.29836(9) -0.17872(18)
C19D C 0.7335(2) -0.29253(9) -0.2246(2)
H13D H 0.7491 -0.2590 -0.2384
C20D C 0.7709(2) -0.33596(9) -0.2496(2)
H14D H 0.8127 -0.3309 -0.2790
Zn1A Zn 0.5000 0.0000 -0.5000
Zn2B Zn 0.81094(2) -0.448778(9) -0.27296(2)
Zn2D Zn 0.68906(2) -0.051222(9) 0.27296(2)
Zn2E Zn 0.31094(2) -0.051222(9) -0.77296(2)
Zn2F Zn 0.18906(2) 0.448778(9) 0.27296(2)
O3D O 0.33921(12) -0.02727(6) -0.08024(13)
O4D O 0.23034(13) -0.01055(6) -0.27641(13)
O4E O 0.76966(13) -0.01055(6) -0.22359(13)
O7D O 0.54552(12) -0.03665(6) 0.15696(12)
N3F N 0.25048(15) 0.11442(7) -0.23377(16)
N3G N 0.74952(15) 0.11442(7) -0.26623(16)
O8 O 0.5000 0.19971(10) 0.7500
H15 H 0.4636 0.1796 0.6895
H15A H 0.5364 0.1796 0.8105
loop_
_geom_bond_atom_site_label_1
_geom_bond_atom_site_label_2
_geom_bond_site_symmetry_1
_geom_bond_site_symmetry_2
Zn1 O3 1_555 1_555
Zn2 O7 1_555 1_555
O1 C7 1_555 1_555
O2 C7 1_555 1_555
O3 C8 1_555 1_555
O4 C8 1_555 1_555
O5 N1 1_555 1_555
O6 N1 1_555 1_555
O7 Zn1 1_555 1_555
H1 O7 1_555 1_555
N1 C4 1_555 1_555
N2 Zn1 1_555 1_555
N3 C16 1_555 1_555
C1 C2 1_555 1_555
C2 C3 1_555 1_555
C3 H2 1_555 1_555
C4 C3 1_555 1_555
C5 C4 1_555 1_555
H3 C5 1_555 1_555
C6 C1 1_555 1_555
H4 C6 1_555 1_555
C7 C1 1_555 1_555
C8 C2 1_555 1_555
C9 N2 1_555 1_555
H5 C9 1_555 1_555
C10 C9 1_555 1_555
H6 C10 1_555 1_555
C11 C10 1_555 1_555
C12 C11 1_555 1_555
H7 C12 1_555 1_555
C13 N2 1_555 1_555
H8 C13 1_555 1_555
C14 C11 1_555 1_555
H9 C14 1_555 1_555
C15 C14 1_555 1_555
H10 C15 1_555 1_555
C16 H11 1_555 1_555
C17 C16 1_555 1_555
H12 C17 1_555 1_555
C18 C15 1_555 1_555
C19 C18 1_555 1_555
H13 C19 1_555 1_555
C20 N3 1_555 1_555
H14 C20 1_555 1_555
O8 H15 1_555 1_555
Zn2A O1 1_555 1_555
O1A Zn2 1_555 1_555
O2A C7A 1_555 1_555
O3A C8A 1_555 1_555
O4A C8A 1_555 1_555
O5A N1A 1_555 1_555
O6A N1A 1_555 1_555
O7A Zn2A 1_555 1_555
H1A O7A 1_555 1_555
N1A C4A 1_555 1_555
C1A C2A 1_555 1_555
C2A C3A 1_555 1_555
C3A H2A 1_555 1_555
C4A C3A 1_555 1_555
C5A C4A 1_555 1_555
H3A C5A 1_555 1_555
C6A C1A 1_555 1_555
H4A C6A 1_555 1_555
C7A O1A 1_555 1_555
C8A C2A 1_555 1_555
N2D Zn1 1_555 1_555
N3D C16D 1_555 1_555
C9D N2D 1_555 1_555
H5D C9D 1_555 1_555
C10D C9D 1_555 1_555
H6D C10D 1_555 1_555
C11D C10D 1_555 1_555
C12D C11D 1_555 1_555
H7D C12D 1_555 1_555
C13D N2D 1_555 1_555
H8D C13D 1_555 1_555
C14D C11D 1_555 1_555
H9D C14D 1_555 1_555
C15D C14D 1_555 1_555
H10D C15D 1_555 1_555
C16D H11D 1_555 1_555
C17D C16D 1_555 1_555
H12D C17D 1_555 1_555
C18D C15D 1_555 1_555
C19D C18D 1_555 1_555
H13D C19D 1_555 1_555
C20D N3D 1_555 1_555
H14D C20D 1_555 1_555
Zn1A O3A 1_555 1_555
Zn2B N3D 1_555 1_555
Zn2D O4 1_555 1_555
Zn2E O4A 1_555 1_555
Zn2F N3 1_555 1_555
O3D Zn1 1_555 1_555
O4D Zn2 1_555 1_555
O4E Zn2A 1_555 1_555
O7D Zn1 1_555 1_555
N3F Zn2 1_555 1_555
N3G Zn2A 1_555 1_555
H15A O8 1_555 1_555
C5 C6 1_555 1_555
C12 C13 1_555 1_555
C17 C18 1_555 1_555
C19 C20 1_555 1_555
O7A Zn1A 1_555 1_555
C1A C7A 1_555 1_555
C5A C6A 1_555 1_555
C12D C13D 1_555 1_555
C17D C18D 1_555 1_555
C19D C20D 1_555 1_555
Zn2D O7D 1_555 1_555

#END
