
#######################################################################
#
#                 Cambridge Crystallographic Data Centre
#                                CCDC 
#
#######################################################################
#
# If this CIF has been generated from an entry in the Cambridge 
# Structural Database, then it will include bibliographic, chemical, 
# crystal, experimental, refinement or atomic coordinate data resulting 
# from the CCDC's data processing and validation procedures.
#
#######################################################################

data_GIRZUE
_symmetry_cell_setting           triclinic
_symmetry_space_group_name_H-M   'P -1'
_symmetry_Int_Tables_number      2
_space_group_name_Hall           '-P 1'
loop_
_symmetry_equiv_pos_site_id
_symmetry_equiv_pos_as_xyz
1 x,y,z
2 -x,-y,-z
_cell_length_a                   12.4851(4)
_cell_length_b                   12.9394(3)
_cell_length_c                   13.0853(5)
_cell_angle_alpha                111.257(3)
_cell_angle_beta                 105.181(3)
_cell_angle_gamma                103.697(3)
_cell_volume                     1767.31
loop_
_atom_site_label
_atom_site_type_symbol
_atom_site_fract_x
_atom_site_fract_y
_atom_site_fract_z
Cu1 Cu 0.76419(3) 0.07028(3) 0.20150(3)
O1 O 0.6420(2) -0.0952(2) 0.1897(2)
N1 N 0.7673(2) -0.0283(2) 0.0361(2)
C1 C 0.8558(2) -0.0628(3) 0.0452(3)
C2 C 0.9397(2) -0.0255(3) 0.1659(3)
N2 N 0.9075(2) 0.0386(2) 0.2495(2)
C3 C 0.9738(2) 0.0854(3) 0.3638(3)
C4 C 0.9195(3) 0.1509(3) 0.4399(3)
N3 N 0.8222(2) 0.1598(2) 0.3862(2)
C5 C 0.7603(3) 0.2148(3) 0.4594(3)
C6 C 0.7485(3) 0.3253(3) 0.4511(2)
C7 C 0.6536(2) 0.3567(3) 0.4694(3)
N4 N 0.6389(2) 0.4566(2) 0.4694(2)
Cu2 Cu 0.5000 0.5000 0.5000
O2 O 0.38827(18) 0.33116(19) 0.38450(19)
N5 N 0.4662(3) 0.5469(3) 0.3369(3)
C8 C 0.4563(3) 0.5428(3) 0.2467(3)
C9 C 0.4439(3) 0.5365(4) 0.1308(3)
C10 C 0.7194(3) 0.5275(3) 0.4491(3)
C11 C 0.8165(3) 0.5027(3) 0.4314(3)
C12 C 0.8324(3) 0.4017(3) 0.4327(3)
C13 C 1.0809(3) 0.0694(3) 0.4020(3)
C14 C 1.1151(3) 0.0017(3) 0.3159(3)
C15 C 1.0444(3) -0.0468(3) 0.1961(3)
C16 C 0.6875(3) -0.0566(3) -0.0830(3)
C17 C 0.5597(2) -0.1252(3) -0.1082(2)
C18 C 0.4725(2) -0.0794(3) -0.1344(2)
N6 N 0.3574(2) -0.1362(2) -0.1559(2)
C19 C 0.3272(3) -0.2398(3) -0.1514(3)
C20 C 0.4092(3) -0.2924(3) -0.1285(3)
C21 C 0.5265(3) -0.2341(3) -0.1064(3)
H1 H 0.6917 0.0160 -0.0872
H2 H 0.8980 0.3849 0.4207
H3 H 0.7078 0.5961 0.4454
H4 H 0.8682 0.5528 0.4162
H5 H 0.9339 0.1633 0.5213
H6 H 0.7128 -0.1027 -0.1413
H7 H 1.1274 0.1021 0.4824
H8 H 0.4917 -0.0070 -0.1382
H9 H 0.2481 -0.2783 -0.1642
H10 H 0.3850 -0.3653 -0.1271
H11 H 0.5981 0.3075 0.4838
H12 H 0.6808 0.1561 0.4289
H13 H 0.8549 -0.1136 -0.0301
H14 H 1.1858 -0.0093 0.3384
H15 H 0.3880 0.2773 0.4031
H16 H 1.0662 -0.0935 0.1360
H17 H 0.8019 0.2350 0.5426
H18 H 0.3185 0.3164 0.3497
H19 H 0.5838 -0.2669 -0.0901
H20 H 0.6102 -0.1036 0.2349
H21 H 0.6568 -0.1546 0.1640
H22 H 0.3658 0.4864 0.0767
H23 H 0.4600 0.6140 0.1370
H24 H 0.4992 0.5052 0.1085
Cu1A Cu 0.23581(3) -0.07028(3) -0.20150(3)
O1A O 0.3580(2) 0.0952(2) -0.1897(2)
N1A N 0.2327(2) 0.0283(2) -0.0361(2)
C1A C 0.1442(2) 0.0628(3) -0.0452(3)
C2A C 0.0603(2) 0.0255(3) -0.1659(3)
N2A N 0.0925(2) -0.0386(2) -0.2495(2)
C3A C 0.0262(2) -0.0854(3) -0.3638(3)
C4A C 0.0805(3) -0.1509(3) -0.4399(3)
N3A N 0.1778(2) -0.1598(2) -0.3862(2)
C5A C 0.2397(3) -0.2148(3) -0.4594(3)
C6A C 0.2515(3) -0.3253(3) -0.4511(2)
C7A C 0.3464(2) -0.3567(3) -0.4694(3)
N4A N 0.3611(2) -0.4566(2) -0.4694(2)
C10A C 0.2806(3) -0.5275(3) -0.4491(3)
C11A C 0.1835(3) -0.5027(3) -0.4314(3)
C12A C 0.1676(3) -0.4017(3) -0.4327(3)
C13A C -0.0809(3) -0.0694(3) -0.4020(3)
C14A C -0.1151(3) -0.0017(3) -0.3159(3)
C15A C -0.0444(3) 0.0468(3) -0.1961(3)
C16A C 0.3125(3) 0.0566(3) 0.0830(3)
C17A C 0.4403(2) 0.1252(3) 0.1082(2)
C18A C 0.5275(2) 0.0794(3) 0.1344(2)
N6A N 0.6426(2) 0.1362(2) 0.1559(2)
C19A C 0.6728(3) 0.2398(3) 0.1514(3)
C20A C 0.5908(3) 0.2924(3) 0.1285(3)
C21A C 0.4735(3) 0.2341(3) 0.1064(3)
H1A H 0.3083 -0.0160 0.0872
H2A H 0.1020 -0.3849 -0.4207
H3A H 0.2922 -0.5961 -0.4454
H4A H 0.1318 -0.5528 -0.4162
H5A H 0.0661 -0.1633 -0.5213
H6A H 0.2872 0.1027 0.1413
H7A H -0.1274 -0.1021 -0.4824
H8A H 0.5083 0.0070 0.1382
H9A H 0.7519 0.2783 0.1642
H10A H 0.6150 0.3653 0.1271
H11A H 0.4019 -0.3075 -0.4838
H12A H 0.3192 -0.1561 -0.4289
H13A H 0.1451 0.1136 0.0301
H14A H -0.1858 0.0093 -0.3384
H16A H -0.0662 0.0935 -0.1360
H17A H 0.1981 -0.2350 -0.5426
H19A H 0.4162 0.2669 0.0901
H20A H 0.3898 0.1036 -0.2349
H21A H 0.3432 0.1546 -0.1640
N5A N 0.5338(3) 0.4531(3) 0.6631(3)
C8A C 0.5437(3) 0.4572(3) 0.7533(3)
C9A C 0.5561(3) 0.4635(4) 0.8692(3)
H22A H 0.6342 0.5136 0.9233
H23A H 0.5400 0.3860 0.8630
H24A H 0.5008 0.4948 0.8915
O2A O 0.61173(18) 0.66884(19) 0.61550(19)
H15A H 0.6120 0.7227 0.5969
H18A H 0.6815 0.6836 0.6503
N4A_2 N 0.3611(2) 0.5434(2) 0.5306(2)
Cu2_2 Cu 0.5000 -0.5000 -0.5000
S1 S 1.03988(6) 0.27002(7) 0.19492(6)
O3 O 0.9589(3) 0.2915(3) 0.2529(3)
O4 O 0.9830(2) 0.1765(2) 0.0756(2)
O5 O 1.1467(2) 0.2652(3) 0.2646(3)
C22 C 1.0946(3) 0.4030(3) 0.1753(3)
F1 F 1.1456(3) 0.5000(2) 0.2787(2)
F2 F 1.1747(2) 0.3929(2) 0.1262(3)
F3 F 1.0078(2) 0.4157(2) 0.1050(2)
S2 S 0.41079(8) -0.12021(8) 0.31424(8)
O6 O 0.3682(3) -0.1155(3) 0.4062(3)
O7 O 0.4279(3) -0.0167(2) 0.2932(2)
O8 O 0.5073(2) -0.1642(3) 0.3149(3)
C23 C 0.2871(3) -0.2358(3) 0.1777(4)
F4 F 0.1936(2) -0.2049(3) 0.1598(3)
F5 F 0.2563(3) -0.3383(2) 0.1833(3)
F6 F 0.3185(3) -0.2531(2) 0.0855(2)
S3 S 0.79156(8) 0.70522(8) 0.22780(8)
O9 O 0.7232(3) 0.6328(4) 0.2650(4)
O10 O 0.7245(3) 0.7153(2) 0.1264(2)
O11 O 0.8793(3) 0.8171(3) 0.3217(2)
C24 C 0.8805(3) 0.6220(3) 0.1753(3)
F7 F 0.9520(2) 0.6125(3) 0.2643(2)
F8 F 0.8133(3) 0.5143(2) 0.0905(3)
F9 F 0.9483(3) 0.6736(3) 0.1333(3)
O12 O 0.3943(2) 0.1717(2) 0.4636(3)
H25 H 0.4144 0.1208 0.4242
H26 H 0.4022 0.1680 0.5263
loop_
_geom_bond_atom_site_label_1
_geom_bond_atom_site_label_2
_geom_bond_site_symmetry_1
_geom_bond_site_symmetry_2
Cu1 O1 1_555 1_555
O1 H20 1_555 1_555
N1 Cu1 1_555 1_555
C1 N1 1_555 1_555
C2 C1 1_555 1_555
N2 Cu1 1_555 1_555
C3 N2 1_555 1_555
C4 C3 1_555 1_555
N3 Cu1 1_555 1_555
C5 N3 1_555 1_555
C6 C5 1_555 1_555
C7 C6 1_555 1_555
N4 C7 1_555 1_555
Cu2 N4 1_555 1_555
O2 Cu2 1_555 1_555
N5 Cu2 1_555 1_555
C8 N5 1_555 1_555
C9 C8 1_555 1_555
C10 N4 1_555 1_555
C11 C10 1_555 1_555
C12 C6 1_555 1_555
C13 C3 1_555 1_555
C14 C13 1_555 1_555
C15 C2 1_555 1_555
C16 N1 1_555 1_555
C17 C16 1_555 1_555
C18 C17 1_555 1_555
N6 C18 1_555 1_555
C19 N6 1_555 1_555
C20 C19 1_555 1_555
C21 C17 1_555 1_555
H1 C16 1_555 1_555
H2 C12 1_555 1_555
H3 C10 1_555 1_555
H4 C11 1_555 1_555
H5 C4 1_555 1_555
H6 C16 1_555 1_555
H7 C13 1_555 1_555
H8 C18 1_555 1_555
H9 C19 1_555 1_555
H10 C20 1_555 1_555
H11 C7 1_555 1_555
H12 C5 1_555 1_555
H13 C1 1_555 1_555
H14 C14 1_555 1_555
H15 O2 1_555 1_555
H16 C15 1_555 1_555
H17 C5 1_555 1_555
H18 O2 1_555 1_555
H19 C21 1_555 1_555
H21 O1 1_555 1_555
H22 C9 1_555 1_555
H23 C9 1_555 1_555
H24 C9 1_555 1_555
S1 O3 1_555 1_555
O4 S1 1_555 1_555
O5 S1 1_555 1_555
C22 S1 1_555 1_555
F1 C22 1_555 1_555
F2 C22 1_555 1_555
F3 C22 1_555 1_555
S2 O6 1_555 1_555
O7 S2 1_555 1_555
O8 S2 1_555 1_555
C23 S2 1_555 1_555
F4 C23 1_555 1_555
F5 C23 1_555 1_555
F6 C23 1_555 1_555
S3 O9 1_555 1_555
O10 S3 1_555 1_555
O11 S3 1_555 1_555
C24 S3 1_555 1_555
F7 C24 1_555 1_555
F8 C24 1_555 1_555
F9 C24 1_555 1_555
O12 H25 1_555 1_555
H26 O12 1_555 1_555
Cu1A N6 1_555 1_555
O1A Cu1A 1_555 1_555
N1A Cu1A 1_555 1_555
C1A N1A 1_555 1_555
C2A C1A 1_555 1_555
N2A Cu1A 1_555 1_555
C3A N2A 1_555 1_555
C4A C3A 1_555 1_555
N3A Cu1A 1_555 1_555
C5A N3A 1_555 1_555
C6A C5A 1_555 1_555
C7A C6A 1_555 1_555
N4A C7A 1_555 1_555
C10A N4A 1_555 1_555
C11A C10A 1_555 1_555
C12A C6A 1_555 1_555
C13A C3A 1_555 1_555
C14A C13A 1_555 1_555
C15A C2A 1_555 1_555
C16A N1A 1_555 1_555
C17A C16A 1_555 1_555
C18A C17A 1_555 1_555
N6A Cu1 1_555 1_555
C19A N6A 1_555 1_555
C20A C19A 1_555 1_555
C21A C17A 1_555 1_555
H1A C16A 1_555 1_555
H2A C12A 1_555 1_555
H3A C10A 1_555 1_555
H4A C11A 1_555 1_555
H5A C4A 1_555 1_555
H6A C16A 1_555 1_555
H7A C13A 1_555 1_555
H8A C18A 1_555 1_555
H9A C19A 1_555 1_555
H10A C20A 1_555 1_555
H11A C7A 1_555 1_555
H12A C5A 1_555 1_555
H13A C1A 1_555 1_555
H14A C14A 1_555 1_555
H16A C15A 1_555 1_555
H17A C5A 1_555 1_555
H19A C21A 1_555 1_555
H20A O1A 1_555 1_555
H21A O1A 1_555 1_555
N5A Cu2 1_555 1_555
C8A N5A 1_555 1_555
C9A C8A 1_555 1_555
H22A C9A 1_555 1_555
H23A C9A 1_555 1_555
H24A C9A 1_555 1_555
O2A Cu2 1_555 1_555
H15A O2A 1_555 1_555
H18A O2A 1_555 1_555
N4A_2 Cu2 1_555 1_555
Cu2_2 N4A 1_555 1_555
C2 N2 1_555 1_555
C4 N3 1_555 1_555
C11 C12 1_555 1_555
C14 C15 1_555 1_555
C20 C21 1_555 1_555
C2A N2A 1_555 1_555
C4A N3A 1_555 1_555
C11A C12A 1_555 1_555
C14A C15A 1_555 1_555
C18A N6A 1_555 1_555
C20A C21A 1_555 1_555

#END
