
#######################################################################
#
#                 Cambridge Crystallographic Data Centre
#                                CCDC 
#
#######################################################################
#
# If this CIF has been generated from an entry in the Cambridge 
# Structural Database, then it will include bibliographic, chemical, 
# crystal, experimental, refinement or atomic coordinate data resulting 
# from the CCDC's data processing and validation procedures.
#
#######################################################################

data_GISHAS
_symmetry_cell_setting           orthorhombic
_symmetry_space_group_name_H-M   'P m c 21'
_symmetry_Int_Tables_number      26
_space_group_name_Hall           'P 2c -2'
loop_
_symmetry_equiv_pos_site_id
_symmetry_equiv_pos_as_xyz
1 x,y,z
2 -x,-y,1/2+z
3 -x,y,z
4 x,-y,1/2+z
_cell_length_a                   14.993(3)
_cell_length_b                   8.0948(17)
_cell_length_c                   9.259(2)
_cell_angle_alpha                90
_cell_angle_beta                 90
_cell_angle_gamma                90
_cell_volume                     1123.72
loop_
_atom_site_label
_atom_site_type_symbol
_atom_site_fract_x
_atom_site_fract_y
_atom_site_fract_z
Cu1 Cu 0.5000 0.54986(6) 0.72824(5)
Cu2 Cu 0.0000 -0.01107(9) 0.46996(5)
O1 O 0.40374(16) 0.3988(3) 0.6507(2)
O2 O 0.09578(17) 0.1419(3) 0.5436(3)
O3 O 0.34823(19) 0.3174(4) 0.8619(3)
O4 O 0.1459(2) 0.2442(4) 0.3340(3)
O5 O 0.5000 0.6785(5) 0.5214(4)
H1 H 0.5511 0.6699 0.4823
O6 O 0.0000 -0.1382(5) 0.6885(3)
H2 H -0.0533 -0.1602 0.7130
N1 N 0.4044(2) 0.6854(4) 0.8260(3)
H3 H 0.3986 0.6477 0.9170
H4 H 0.3525 0.6652 0.7804
N2 N 0.0947(2) -0.1553(4) 0.3820(3)
H5 H 0.1472 -0.1269 0.4218
H6 H 0.0979 -0.1306 0.2874
C1 C 0.4162(3) 0.8666(5) 0.8328(5)
H7 H 0.3653 0.9154 0.8814
H8 H 0.4184 0.9108 0.7355
C2 C 0.0848(3) -0.3360(4) 0.3952(4)
H9 H 0.0838 -0.3662 0.4965
H10 H 0.1357 -0.3898 0.3507
C3 C 0.5000 0.9135(7) 0.9117(7)
H11 H 0.5000 0.8602 1.0056
H12 H 0.5000 1.0320 0.9276
C4 C 0.0000 -0.3955(6) 0.3235(6)
H13 H 0.0000 -0.5153 0.3231
H14 H 0.0000 -0.3588 0.2238
C5 C 0.34705(18) 0.3246(4) 0.7272(4)
C6 C 0.1494(2) 0.2248(4) 0.4675(4)
C7 C 0.2697(2) 0.2419(4) 0.6537(3)
H15 H 0.2515 0.1388 0.6869
C8 C 0.2259(2) 0.3090(4) 0.5432(3)
H16 H 0.2434 0.4129 0.5112
Cu2_2 Cu 1.0000 -0.01107(9) 0.46996(5)
O1B O 0.59626(16) 0.3988(3) 0.6507(2)
O2B O 0.90422(17) 0.1419(3) 0.5436(3)
O2B_2 O -0.09578(17) 0.1419(3) 0.5436(3)
O3B O 0.65177(19) 0.3174(4) 0.8619(3)
O4B O 0.8541(2) 0.2442(4) 0.3340(3)
H1B H 0.4489 0.6699 0.4823
H2B H 0.0533 -0.1602 0.7130
N1B N 0.5956(2) 0.6854(4) 0.8260(3)
H3B H 0.6014 0.6477 0.9170
H4B H 0.6475 0.6652 0.7804
N2B N -0.0947(2) -0.1553(4) 0.3820(3)
H5B H -0.1472 -0.1269 0.4218
H6B H -0.0979 -0.1306 0.2874
C1B C 0.5838(3) 0.8666(5) 0.8328(5)
H7B H 0.6347 0.9154 0.8814
H8B H 0.5816 0.9108 0.7355
C2B C -0.0848(3) -0.3360(4) 0.3952(4)
H9B H -0.0838 -0.3662 0.4965
H10B H -0.1357 -0.3898 0.3507
C5B C 0.65295(18) 0.3246(4) 0.7272(4)
C6B C 0.8506(2) 0.2248(4) 0.4675(4)
C7B C 0.7303(2) 0.2419(4) 0.6537(3)
H15B H 0.7485 0.1388 0.6869
C8B C 0.7741(2) 0.3090(4) 0.5432(3)
H16B H 0.7566 0.4129 0.5112
O7 O 0.2556(3) 0.1667(5) 0.0869(5)
H17 H 0.2359 0.2358 0.1510
H18 H 0.2686 0.2327 0.0168
loop_
_geom_bond_atom_site_label_1
_geom_bond_atom_site_label_2
_geom_bond_site_symmetry_1
_geom_bond_site_symmetry_2
Cu1 O1 1_555 1_555
Cu2 O2 1_555 1_555
O1 C5 1_555 1_555
O2 C6 1_555 1_555
O3 C5 1_555 1_555
O4 C6 1_555 1_555
O5 Cu1 1_555 1_555
H1 O5 1_555 1_555
O6 Cu2 1_555 1_555
H2 O6 1_555 1_555
N1 Cu1 1_555 1_555
H3 N1 1_555 1_555
H4 N1 1_555 1_555
N2 Cu2 1_555 1_555
H5 N2 1_555 1_555
H6 N2 1_555 1_555
C1 N1 1_555 1_555
H7 C1 1_555 1_555
H8 C1 1_555 1_555
C2 N2 1_555 1_555
H9 C2 1_555 1_555
H10 C2 1_555 1_555
C3 C1 1_555 1_555
H11 C3 1_555 1_555
H12 C3 1_555 1_555
C4 C2 1_555 1_555
H13 C4 1_555 1_555
H14 C4 1_555 1_555
C5 C7 1_555 1_555
C6 C8 1_555 1_555
C7 H15 1_555 1_555
C8 C7 1_555 1_555
H16 C8 1_555 1_555
O7 H17 1_555 1_555
H18 O7 1_555 1_555
Cu2_2 O2B 1_555 1_555
O1B Cu1 1_555 1_555
O2B C6B 1_555 1_555
O2B_2 Cu2 1_555 1_555
O3B C5B 1_555 1_555
O4B C6B 1_555 1_555
H1B O5 1_555 1_555
H2B O6 1_555 1_555
N1B Cu1 1_555 1_555
H3B N1B 1_555 1_555
H4B N1B 1_555 1_555
N2B Cu2 1_555 1_555
H5B N2B 1_555 1_555
H6B N2B 1_555 1_555
C1B C3 1_555 1_555
H7B C1B 1_555 1_555
H8B C1B 1_555 1_555
C2B C4 1_555 1_555
H9B C2B 1_555 1_555
H10B C2B 1_555 1_555
C5B O1B 1_555 1_555
C6B C8B 1_555 1_555
C7B C5B 1_555 1_555
H15B C7B 1_555 1_555
C8B C7B 1_555 1_555
H16B C8B 1_555 1_555
N1B C1B 1_555 1_555
N2B C2B 1_555 1_555

#END
