
#######################################################################
#
#                 Cambridge Crystallographic Data Centre
#                                CCDC 
#
#######################################################################
#
# If this CIF has been generated from an entry in the Cambridge 
# Structural Database, then it will include bibliographic, chemical, 
# crystal, experimental, refinement or atomic coordinate data resulting 
# from the CCDC's data processing and validation procedures.
#
#######################################################################

data_GISJUO01
_symmetry_cell_setting           orthorhombic
_symmetry_space_group_name_H-M   'P c a 21'
_symmetry_Int_Tables_number      29
_space_group_name_Hall           'P 2c -2ac'
loop_
_symmetry_equiv_pos_site_id
_symmetry_equiv_pos_as_xyz
1 x,y,z
2 -x,-y,1/2+z
3 1/2-x,y,1/2+z
4 1/2+x,-y,z
_cell_length_a                   16.8540(4)
_cell_length_b                   6.8430(2)
_cell_length_c                   8.7023(2)
_cell_angle_alpha                90
_cell_angle_beta                 90
_cell_angle_gamma                90
_cell_volume                     1003.65
loop_
_atom_site_label
_atom_site_type_symbol
_atom_site_fract_x
_atom_site_fract_y
_atom_site_fract_z
Cd1 Cd -0.897361(14) 0.07303(3) -0.61459(6)
N1 N -0.8166(2) 0.2920(5) -0.4882(4)
C1 C -0.7383(2) 0.2517(6) -0.5015(5)
C2 C -0.7166(2) 0.0787(5) -0.6028(10)
O1 O -0.64413(14) 0.0404(3) -0.6156(9)
O2 O -0.77097(18) -0.0119(5) -0.6700(4)
C3 C -0.6811(2) 0.3640(6) -0.4251(5)
C4 C -0.5934(2) 0.3249(6) -0.4379(5)
O3 O -0.56246(17) 0.2158(5) -0.3376(4)
O4 O -0.55518(18) 0.4125(4) -0.5396(4)
C5 C -0.7064(3) 0.5199(7) -0.3368(6)
H1 H -0.6695 0.5979 -0.2862
C6 C -0.7864(3) 0.5598(7) -0.3236(7)
H2 H -0.8041 0.6633 -0.2633
C7 C -0.8395(3) 0.4431(6) -0.4016(6)
H3 H -0.8934 0.4705 -0.3935
O5 O -0.9525(2) -0.2015(5) -0.7115(4)
H4 H -0.974(4) -0.200(9) -0.795(8)
H5 H -0.993(3) -0.255(8) -0.661(7)
O6 O -0.9095(2) -0.1003(5) -0.3920(4)
H6 H -0.954(4) -0.127(10) -0.379(8)
H7 H -0.897(4) -0.062(9) -0.308(5)
O7 O -1.02231(18) 0.2002(5) -0.5296(4)
H8 H -1.062(3) 0.140(9) -0.563(8)
H9 H -1.038(3) 0.326(9) -0.546(7)
Cd1B Cd -0.602639(14) 0.07303(3) -0.11459(6)
O3B O -0.93754(17) 0.2158(5) -0.8376(4)
loop_
_geom_bond_atom_site_label_1
_geom_bond_atom_site_label_2
_geom_bond_site_symmetry_1
_geom_bond_site_symmetry_2
Cd1 N1 1_555 1_555
N1 C1 1_555 1_555
C1 C2 1_555 1_555
C2 O1 1_555 1_555
O2 Cd1 1_555 1_555
C3 C1 1_555 1_555
C4 C3 1_555 1_555
O3 C4 1_555 1_555
O4 C4 1_555 1_555
C5 C3 1_555 1_555
H1 C5 1_555 1_555
C6 C5 1_555 1_555
H2 C6 1_555 1_555
C7 N1 1_555 1_555
H3 C7 1_555 1_555
O5 Cd1 1_555 1_555
H4 O5 1_555 1_555
H5 O5 1_555 1_555
O6 Cd1 1_555 1_555
H6 O6 1_555 1_555
H7 O6 1_555 1_555
O7 Cd1 1_555 1_555
H8 O7 1_555 1_555
H9 O7 1_555 1_555
Cd1B O3 1_555 1_555
O3B Cd1 1_555 1_555
C2 O2 1_555 1_555
C6 C7 1_555 1_555

#END
