
#######################################################################
#
#                 Cambridge Crystallographic Data Centre
#                                CCDC 
#
#######################################################################
#
# If this CIF has been generated from an entry in the Cambridge 
# Structural Database, then it will include bibliographic, chemical, 
# crystal, experimental, refinement or atomic coordinate data resulting 
# from the CCDC's data processing and validation procedures.
#
#######################################################################

data_GISKUQ
_symmetry_cell_setting           monoclinic
_symmetry_space_group_name_H-M   'P 21/c'
_symmetry_Int_Tables_number      14
_space_group_name_Hall           '-P 2ybc'
loop_
_symmetry_equiv_pos_site_id
_symmetry_equiv_pos_as_xyz
1 x,y,z
2 -x,1/2+y,1/2-z
3 -x,-y,-z
4 x,1/2-y,1/2+z
_cell_length_a                   4.2680(8)
_cell_length_b                   17.214(3)
_cell_length_c                   8.9685(17)
_cell_angle_alpha                90
_cell_angle_beta                 100.089(3)
_cell_angle_gamma                90
_cell_volume                     648.721
loop_
_atom_site_label
_atom_site_type_symbol
_atom_site_fract_x
_atom_site_fract_y
_atom_site_fract_z
Li1 Li 0.2655(11) 0.4372(3) 0.0594(6)
Br1 Br 0.81425(7) 0.485193(18) 0.18525(3)
N1 N 0.2914(7) 0.32132(16) 0.0517(3)
N2 N 0.5102(8) 0.18972(16) 0.0853(3)
C1 C 0.3896(8) 0.25987(19) 0.0667(4)
C2 C 0.3986(11) 0.1281(2) -0.0201(5)
H1 H 0.2384 0.1487 -0.1023
H2 H 0.3037 0.0868 0.0327
H3 H 0.5779 0.1070 -0.0621
C3 C 0.7254(9) 0.1720(2) 0.2260(5)
H4 H 0.7997 0.2206 0.2775
H5 H 0.9081 0.1426 0.2035
H6 H 0.6130 0.1410 0.2916
Li1_2 Li 1.2655(11) 0.4372(3) 0.0594(6)
Li1B Li 0.7345(11) 0.5628(3) -0.0594(6)
Br1_2 Br -0.18575(7) 0.485193(18) 0.18525(3)
Br1B Br 0.18575(7) 0.514807(18) -0.18525(3)
loop_
_geom_bond_atom_site_label_1
_geom_bond_atom_site_label_2
_geom_bond_site_symmetry_1
_geom_bond_site_symmetry_2
Li1 Br1 1_555 1_555
Br1 Li1_2 1_555 1_555
N1 Li1 1_555 1_555
N2 C1 1_555 1_555
C1 N1 1_555 1_555
C2 N2 1_555 1_555
H1 C2 1_555 1_555
H2 C2 1_555 1_555
H3 C2 1_555 1_555
C3 N2 1_555 1_555
H4 C3 1_555 1_555
H5 C3 1_555 1_555
H6 C3 1_555 1_555
Li1B Br1 1_555 1_555
Br1_2 Li1 1_555 1_555
Br1B Li1 1_555 1_555
Li1B Br1B 1_555 1_555

#END
