
#######################################################################
#
#                 Cambridge Crystallographic Data Centre
#                                CCDC 
#
#######################################################################
#
# If this CIF has been generated from an entry in the Cambridge 
# Structural Database, then it will include bibliographic, chemical, 
# crystal, experimental, refinement or atomic coordinate data resulting 
# from the CCDC's data processing and validation procedures.
#
#######################################################################

data_GISMIG
_symmetry_cell_setting           monoclinic
_symmetry_space_group_name_H-M   'C 2/c'
_symmetry_Int_Tables_number      15
_space_group_name_Hall           '-C 2yn'
loop_
_symmetry_equiv_pos_site_id
_symmetry_equiv_pos_as_xyz
1 x,y,z
2 -x,y,1/2-z
3 1/2+x,1/2+y,z
4 1/2-x,1/2+y,1/2-z
5 -x,-y,-z
6 x,-y,1/2+z
7 1/2-x,1/2-y,-z
8 1/2+x,1/2-y,1/2+z
_cell_length_a                   19.4357(18)
_cell_length_b                   14.7675(14)
_cell_length_c                   16.7987(16)
_cell_angle_alpha                90
_cell_angle_beta                 120.369(2)
_cell_angle_gamma                90
_cell_volume                     4159.94
loop_
_atom_site_label
_atom_site_type_symbol
_atom_site_fract_x
_atom_site_fract_y
_atom_site_fract_z
Cd1 Cd 0.75254(2) 0.42180(3) 0.63130(3)
N1 N 0.7551(3) 0.4933(3) 0.7533(3)
N2 N 0.9729(3) 0.4352(4) 0.6288(4)
N3 N 0.8615(3) 0.4038(3) 0.6226(3)
N4 N 0.5225(3) 0.5123(4) 0.4060(4)
N5 N 0.6288(3) 0.4438(4) 0.5104(3)
O1 O 0.7683(3) 0.5770(2) 0.6183(3)
O2 O 0.7924(4) 0.7051(3) 0.6916(4)
O3 O 0.7870(4) 0.7780(4) 0.8733(4)
O4 O 0.6758(4) 0.7725(4) 0.7423(4)
C1 C 0.7736(4) 0.6262(4) 0.6810(4)
C2 C 0.7354(4) 0.7368(5) 0.8072(5)
C3 C 0.7554(3) 0.5846(4) 0.7509(4)
C4 C 0.7432(3) 0.6359(4) 0.8116(4)
C5 C 0.7361(4) 0.5900(5) 0.8791(4)
H1 H 0.7286 0.6223 0.9217
C6 C 0.7399(3) 0.4979(4) 0.8835(4)
H2 H 0.7376 0.4672 0.9305
C7 C 0.7471(3) 0.4511(4) 0.8179(4)
H3 H 0.7463 0.3882 0.8186
C8 C 0.9085(4) 0.4684(4) 0.6247(4)
H4 H 0.8976 0.5299 0.6234
C9 C 0.8999(4) 0.3261(5) 0.6251(5)
H5 H 0.8808 0.2682 0.6246
C10 C 0.9685(4) 0.3439(6) 0.6285(6)
H6 H 1.0054 0.3025 0.6303
C11 C 1.0385(4) 0.4863(6) 0.6304(4)
H7 H 1.0888 0.4607 0.6775
H8 H 1.0363 0.5484 0.6479
C12 C 1.0371(4) 0.4866(6) 0.5421(4)
H9 H 1.0509 0.4262 0.5322
H10 H 1.0791 0.5269 0.5486
C13 C 0.5971(4) 0.5218(5) 0.4715(4)
H11 H 0.6242 0.5767 0.4882
C14 C 0.5696(4) 0.3831(6) 0.4673(5)
H12 H 0.5742 0.3215 0.4806
C15 C 0.5035(5) 0.4236(6) 0.4029(6)
H13 H 0.4545 0.3966 0.3639
C16 C 0.4709(5) 0.5840(5) 0.3447(5)
H14 H 0.4941 0.6425 0.3706
H15 H 0.4192 0.5807 0.3402
C17 C 0.4601(4) 0.5758(5) 0.2486(5)
H16 H 0.4279 0.6259 0.2109
H17 H 0.4318 0.5201 0.2202
N2D N 1.0271(3) 0.5648(4) 0.3712(4)
N3D N 1.1385(3) 0.5962(3) 0.3774(3)
C8D C 1.0915(4) 0.5316(4) 0.3753(4)
H4D H 1.1024 0.4701 0.3766
C9D C 1.1001(4) 0.6739(5) 0.3749(5)
H5D H 1.1192 0.7318 0.3754
C10D C 1.0315(4) 0.6561(6) 0.3715(6)
H6D H 0.9946 0.6975 0.3697
C11D C 0.9615(4) 0.5137(6) 0.3696(4)
H7D H 0.9112 0.5393 0.3225
H8D H 0.9637 0.4516 0.3521
C12D C 0.9629(4) 0.5134(6) 0.4579(4)
H9D H 0.9491 0.5738 0.4678
H10D H 0.9209 0.4731 0.4514
N4A N 0.4775(3) 0.5123(4) 0.0940(4)
N5A N 0.3712(3) 0.4438(4) -0.0104(3)
C13A C 0.4029(4) 0.5218(5) 0.0285(4)
H11A H 0.3758 0.5767 0.0118
C14A C 0.4304(4) 0.3831(6) 0.0327(5)
H12A H 0.4258 0.3215 0.0194
C15A C 0.4965(5) 0.4236(6) 0.0971(6)
H13A H 0.5455 0.3966 0.1361
C16A C 0.5291(5) 0.5840(5) 0.1553(5)
H14A H 0.5059 0.6425 0.1294
H15A H 0.5808 0.5807 0.1598
C17A C 0.5399(4) 0.5758(5) 0.2514(5)
H16A H 0.5721 0.6259 0.2891
H17A H 0.5682 0.5201 0.2798
Cd1A Cd 0.24746(2) 0.42180(3) -0.13130(3)
N1A N 0.2449(3) 0.4933(3) -0.2533(3)
O1A O 0.2317(3) 0.5770(2) -0.1183(3)
O2A O 0.2076(4) 0.7051(3) -0.1916(4)
O3A O 0.2130(4) 0.7780(4) -0.3733(4)
O4A O 0.3242(4) 0.7725(4) -0.2423(4)
C1A C 0.2264(4) 0.6262(4) -0.1810(4)
C2A C 0.2646(4) 0.7368(5) -0.3072(5)
C3A C 0.2446(3) 0.5846(4) -0.2509(4)
C4A C 0.2568(3) 0.6359(4) -0.3116(4)
C5A C 0.2639(4) 0.5900(5) -0.3791(4)
H1A H 0.2714 0.6223 -0.4217
C6A C 0.2601(3) 0.4979(4) -0.3835(4)
H2A H 0.2624 0.4672 -0.4305
C7A C 0.2529(3) 0.4511(4) -0.3179(4)
H3A H 0.2537 0.3882 -0.3186
Cd1B Cd 0.25254(2) 0.92180(3) -0.36870(3)
Cd1C Cd 0.74746(2) 0.92180(3) 0.86870(3)
Cd1D Cd 1.24746(2) 0.57820(3) 0.36870(3)
N3A N 0.1385(3) 0.4038(3) -0.1226(3)
O3B O 0.2870(4) 0.2780(4) -0.1267(4)
O3C O 0.7130(4) 0.2780(4) 0.6267(4)
O5 O 0.5993(4) 0.7441(5) 0.5485(5)
H18 H 0.6115 0.7585 0.6031
H19 H 0.5522 0.7626 0.5113
O6 O 0.5544(7) 0.2088(7) 0.6169(8)
H20 H 0.5829 0.1997 0.6746
H21 H 0.5845 0.2301 0.5984
O7 O 0.5000 0.8247(9) 0.2500
H22 H 0.5332 0.7913 0.2939
H22A H 0.4668 0.7913 0.2061
O8 O 0.6153(10) 0.7798(12) 0.3924(12)
H23 H 0.5904 0.7887 0.4191
C18 C 0.6859(9) 0.7184(11) 0.4507(10)
H24 H 0.7313 0.7386 0.4474
H25 H 0.6729 0.6574 0.4281
H26 H 0.6981 0.7203 0.5137
loop_
_geom_bond_atom_site_label_1
_geom_bond_atom_site_label_2
_geom_bond_site_symmetry_1
_geom_bond_site_symmetry_2
Cd1 N1 1_555 1_555
N1 C3 1_555 1_555
N2 C8 1_555 1_555
N3 Cd1 1_555 1_555
N4 C13 1_555 1_555
N5 Cd1 1_555 1_555
O1 Cd1 1_555 1_555
O2 C1 1_555 1_555
O3 C2 1_555 1_555
O4 C2 1_555 1_555
C1 O1 1_555 1_555
C2 C4 1_555 1_555
C3 C1 1_555 1_555
C4 C3 1_555 1_555
C5 C4 1_555 1_555
H1 C5 1_555 1_555
C6 C5 1_555 1_555
H2 C6 1_555 1_555
C7 N1 1_555 1_555
H3 C7 1_555 1_555
C8 N3 1_555 1_555
H4 C8 1_555 1_555
C9 N3 1_555 1_555
H5 C9 1_555 1_555
C10 N2 1_555 1_555
H6 C10 1_555 1_555
C11 N2 1_555 1_555
H7 C11 1_555 1_555
H8 C11 1_555 1_555
C12 C11 1_555 1_555
H9 C12 1_555 1_555
H10 C12 1_555 1_555
C13 N5 1_555 1_555
H11 C13 1_555 1_555
C14 N5 1_555 1_555
H12 C14 1_555 1_555
C15 N4 1_555 1_555
H13 C15 1_555 1_555
C16 N4 1_555 1_555
H14 C16 1_555 1_555
H15 C16 1_555 1_555
C17 C16 1_555 1_555
H16 C17 1_555 1_555
H17 C17 1_555 1_555
O5 H18 1_555 1_555
H19 O5 1_555 1_555
O6 H20 1_555 1_555
H21 O6 1_555 1_555
O7 H22 1_555 1_555
O8 H23 1_555 1_555
C18 O8 1_555 1_555
H24 C18 1_555 1_555
H25 C18 1_555 1_555
H26 C18 1_555 1_555
N2D C8D 1_555 1_555
N3D C8D 1_555 1_555
C8D H4D 1_555 1_555
C9D N3D 1_555 1_555
H5D C9D 1_555 1_555
C10D N2D 1_555 1_555
H6D C10D 1_555 1_555
C11D N2D 1_555 1_555
H7D C11D 1_555 1_555
H8D C11D 1_555 1_555
C12D C12 1_555 1_555
H9D C12D 1_555 1_555
H10D C12D 1_555 1_555
N4A C13A 1_555 1_555
N5A C13A 1_555 1_555
C13A H11A 1_555 1_555
C14A N5A 1_555 1_555
H12A C14A 1_555 1_555
C15A N4A 1_555 1_555
H13A C15A 1_555 1_555
C16A N4A 1_555 1_555
H14A C16A 1_555 1_555
H15A C16A 1_555 1_555
C17A C17 1_555 1_555
H16A C17A 1_555 1_555
H17A C17A 1_555 1_555
Cd1A N5A 1_555 1_555
N1A Cd1A 1_555 1_555
O1A Cd1A 1_555 1_555
O2A C1A 1_555 1_555
O3A C2A 1_555 1_555
O4A C2A 1_555 1_555
C1A O1A 1_555 1_555
C2A C4A 1_555 1_555
C3A N1A 1_555 1_555
C4A C3A 1_555 1_555
C5A C4A 1_555 1_555
H1A C5A 1_555 1_555
C6A C5A 1_555 1_555
H2A C6A 1_555 1_555
C7A N1A 1_555 1_555
H3A C7A 1_555 1_555
Cd1B O3A 1_555 1_555
Cd1C O3 1_555 1_555
Cd1D N3D 1_555 1_555
N3A Cd1A 1_555 1_555
O3B Cd1A 1_555 1_555
O3C Cd1 1_555 1_555
H22A O7 1_555 1_555
C6 C7 1_555 1_555
C9 C10 1_555 1_555
C14 C15 1_555 1_555
C9D C10D 1_555 1_555
C11D C12D 1_555 1_555
C14A C15A 1_555 1_555
C16A C17A 1_555 1_555
C1A C3A 1_555 1_555
C6A C7A 1_555 1_555

#END
