
#######################################################################
#
#                 Cambridge Crystallographic Data Centre
#                                CCDC 
#
#######################################################################
#
# If this CIF has been generated from an entry in the Cambridge 
# Structural Database, then it will include bibliographic, chemical, 
# crystal, experimental, refinement or atomic coordinate data resulting 
# from the CCDC's data processing and validation procedures.
#
#######################################################################

data_GISRUX
_symmetry_cell_setting           triclinic
_symmetry_space_group_name_H-M   'P -1'
_symmetry_Int_Tables_number      2
_space_group_name_Hall           '-P 1'
loop_
_symmetry_equiv_pos_site_id
_symmetry_equiv_pos_as_xyz
1 x,y,z
2 -x,-y,-z
_cell_length_a                   7.802(3)
_cell_length_b                   10.320(4)
_cell_length_c                   11.322(6)
_cell_angle_alpha                69.922(7)
_cell_angle_beta                 79.599(6)
_cell_angle_gamma                69.595(9)
_cell_volume                     800.563
loop_
_atom_site_label
_atom_site_type_symbol
_atom_site_fract_x
_atom_site_fract_y
_atom_site_fract_z
Pt1 Pt 0.6332(2) 0.55180(18) 0.57915(16)
Cl1 Cl 0.5876(16) 0.4169(13) 0.7824(10)
Cl2 Cl 0.4062(15) 0.7451(12) 0.6264(11)
N1 N 0.698(4) 0.648(3) 0.397(3)
C1 C 0.753(4) 0.767(3) 0.196(3)
O1 O 0.957(3) 0.554(3) 0.141(2)
C2 C 1.033(5) 0.140(4) 0.574(4)
H1 H 1.0806 0.0497 0.6316
N2 N 0.834(5) 0.387(4) 0.533(3)
C3 C 0.655(5) 0.779(4) 0.308(3)
C4 C 1.030(6) 0.304(5) 0.370(5)
H2 H 1.0704 0.3245 0.2848
C5 C 1.098(5) 0.171(4) 0.451(4)
H3 H 1.1891 0.0990 0.4229
C6 C 0.868(6) 0.864(5) -0.040(3)
F1 F 0.838(4) 0.993(3) -0.131(3)
F2 F 1.044(4) 0.814(3) -0.017(3)
C7 C 0.899(6) 0.412(4) 0.415(4)
F3 F 0.824(3) 0.779(3) -0.082(2)
K1 K 0.7448(13) 0.4712(11) 0.0210(10)
C8 C 0.889(6) 0.252(5) 0.611(4)
H4 H 0.8335 0.2314 0.6925
N3 N 0.829(4) 0.552(3) 0.342(3)
C9 C 0.857(5) 0.622(4) 0.215(3)
C10 C 0.515(6) 0.913(5) 0.338(5)
H5 H 0.5775 0.9760 0.3425
H6 H 0.4485 0.8830 0.4172
H7 H 0.4304 0.9637 0.2726
O2 O 0.644(4) 1.014(3) 0.072(3)
C11 C 0.747(5) 0.882(4) 0.081(3)
O3 O 0.513(4) 0.297(3) 0.097(3)
Cl1_2 Cl 0.5876(16) 0.4169(13) -0.2176(10)
Cl1A Cl 0.4124(16) 0.5831(13) 0.2176(10)
O1A O 1.043(3) 0.446(3) -0.141(2)
F2A F 0.956(4) 0.186(3) 0.017(3)
K1_2 K 0.7448(13) 0.4712(11) 1.0210(10)
K1A K 0.2552(13) 0.5288(11) -0.0210(10)
K1A_2 K 0.2552(13) 0.5288(11) 0.9790(10)
K1A_3 K 1.2552(13) 0.5288(11) -0.0210(10)
O3A O 0.487(4) 0.703(3) -0.097(3)
loop_
_geom_bond_atom_site_label_1
_geom_bond_atom_site_label_2
_geom_bond_site_symmetry_1
_geom_bond_site_symmetry_2
Pt1 Cl1 1_555 1_555
Cl1 K1_2 1_555 1_555
Cl2 Pt1 1_555 1_555
N1 Pt1 1_555 1_555
C1 C3 1_555 1_555
O1 K1 1_555 1_555
C2 H1 1_555 1_555
N2 Pt1 1_555 1_555
C3 N1 1_555 1_555
C4 H2 1_555 1_555
C5 C2 1_555 1_555
H3 C5 1_555 1_555
C6 F1 1_555 1_555
F2 C6 1_555 1_555
C7 N2 1_555 1_555
F3 C6 1_555 1_555
K1 F3 1_555 1_555
C8 C2 1_555 1_555
H4 C8 1_555 1_555
N3 N1 1_555 1_555
C9 C1 1_555 1_555
C10 C3 1_555 1_555
H5 C10 1_555 1_555
H6 C10 1_555 1_555
H7 C10 1_555 1_555
O2 C11 1_555 1_555
C11 C1 1_555 1_555
O3 K1 1_555 1_555
Cl1_2 K1 1_555 1_555
Cl1A K1 1_555 1_555
O1A K1 1_555 1_555
F2A K1 1_555 1_555
K1A O3 1_555 1_555
K1A_2 Cl1 1_555 1_555
K1A_3 O1 1_555 1_555
O3A K1 1_555 1_555
O1 C9 1_555 1_555
N2 C8 1_555 1_555
C4 C5 1_555 1_555
C4 C7 1_555 1_555
C6 C11 1_555 1_555
F2 K1A_3 1_555 1_555
C7 N3 1_555 1_555
N3 C9 1_555 1_555
Cl1_2 K1A 1_555 1_555
Cl1A K1A 1_555 1_555
O1A K1A_3 1_555 1_555
K1A O3A 1_555 1_555

#END
