
#######################################################################
#
#                 Cambridge Crystallographic Data Centre
#                                CCDC 
#
#######################################################################
#
# If this CIF has been generated from an entry in the Cambridge 
# Structural Database, then it will include bibliographic, chemical, 
# crystal, experimental, refinement or atomic coordinate data resulting 
# from the CCDC's data processing and validation procedures.
#
#######################################################################

data_GISTOT
_symmetry_cell_setting           monoclinic
_symmetry_space_group_name_H-M   'C 2/c'
_symmetry_Int_Tables_number      15
_space_group_name_Hall           '-C 2yn'
loop_
_symmetry_equiv_pos_site_id
_symmetry_equiv_pos_as_xyz
1 x,y,z
2 -x,y,1/2-z
3 1/2+x,1/2+y,z
4 1/2-x,1/2+y,1/2-z
5 -x,-y,-z
6 x,-y,1/2+z
7 1/2-x,1/2-y,-z
8 1/2+x,1/2-y,1/2+z
_cell_length_a                   20.201(14)
_cell_length_b                   9.992(7)
_cell_length_c                   21.796(15)
_cell_angle_alpha                90
_cell_angle_beta                 91.234(12)
_cell_angle_gamma                90
_cell_volume                     4398.47
loop_
_atom_site_label
_atom_site_type_symbol
_atom_site_fract_x
_atom_site_fract_y
_atom_site_fract_z
C1 C 0.7515(2) 0.0316(5) 0.59090(18)
C2 C 0.68819(18) -0.0374(4) 0.57313(17)
C3 C 0.62965(19) 0.0310(4) 0.57530(19)
H1 H 0.6297 0.1215 0.5853
C4 C 0.57082(19) -0.0332(4) 0.5628(2)
H2 H 0.5312 0.0133 0.5661
C5 C 0.56973(18) -0.1641(4) 0.54553(17)
C6 C 0.62878(19) -0.2309(4) 0.5411(2)
H3 H 0.6291 -0.3196 0.5281
C7 C 0.68743(19) -0.1679(5) 0.5557(2)
H4 H 0.7270 -0.2150 0.5537
C8 C 0.50647(17) -0.2334(4) 0.53323(17)
C9 C 0.49467(18) -0.3039(4) 0.48046(17)
H5 H 0.5278 -0.3114 0.4517
C10 C 0.43457(17) -0.3635(4) 0.46957(16)
C11 C 0.38976(17) -0.3562(4) 0.51605(17)
H6 H 0.3492 -0.3991 0.5103
C12 C 0.45803(18) -0.2282(4) 0.57567(18)
H7 H 0.4654 -0.1781 0.6111
C13 C 0.41684(17) -0.4328(4) 0.41210(17)
C14 C 0.46309(19) -0.4982(4) 0.37859(18)
H8 H 0.5066 -0.5020 0.3933
C15 C 0.4468(2) -0.5582(5) 0.32382(19)
H9 H 0.4792 -0.6014 0.3014
C16 C 0.3825(2) -0.5541(4) 0.30218(18)
C17 C 0.3640(2) -0.6130(4) 0.2412(2)
C18 C 0.3362(2) -0.4902(4) 0.33549(18)
H10 H 0.2925 -0.4888 0.3213
C19 C 0.35271(19) -0.4276(4) 0.38974(19)
H11 H 0.3206 -0.3818 0.4113
C20 C 0.8384(3) 0.4384(5) 0.7622(2)
H12 H 0.8122 0.3587 0.7656
H13 H 0.8201 0.5076 0.7872
H14 H 0.8830 0.4200 0.7758
C21 C 0.83824(18) 0.4825(4) 0.69770(18)
C22 C 0.8302(2) 0.4901(5) 0.60040(19)
H15 H 0.8254 0.4638 0.5596
C23 C 0.8373(2) 0.6148(5) 0.6187(2)
H16 H 0.8387 0.6906 0.5940
C24 C 0.8603(2) 0.7221(4) 0.7205(3)
H17 H 0.8358 0.7167 0.7582
H18 H 0.8487 0.8055 0.7002
C25 C 0.9337(2) 0.7207(4) 0.7354(3)
C26 C 0.9785(3) 0.7189(10) 0.6934(3)
H19 H 0.9652 0.7170 0.6524
C27 C 0.9559(3) 0.7198(10) 0.7922(3)
H20 H 0.9256 0.7197 0.8237
Co1 Co 0.83343(2) 0.20212(5) 0.63909(2)
N1 N 0.84217(16) 0.6104(3) 0.68081(17)
N2 N 0.83084(14) 0.4048(3) 0.64905(13)
N3 N 0.40051(14) -0.2921(3) 0.56833(14)
O1 O 0.74918(13) 0.1561(3) 0.59696(13)
O2 O 0.80231(14) -0.0345(3) 0.59953(15)
O3 O 0.40581(16) -0.6553(4) 0.20698(14)
O4 O 0.30487(17) -0.6219(4) 0.22659(15)
C20A C 1.1616(3) 0.4384(5) 0.7378(2)
H12A H 1.1878 0.3587 0.7344
H13A H 1.1799 0.5076 0.7128
H14A H 1.1170 0.4200 0.7242
C21A C 1.16176(18) 0.4825(4) 0.80230(18)
C22A C 1.1698(2) 0.4901(5) 0.89960(19)
H15A H 1.1746 0.4638 0.9404
C23A C 1.1627(2) 0.6148(5) 0.8813(2)
H16A H 1.1613 0.6906 0.9060
C24A C 1.1397(2) 0.7221(4) 0.7795(3)
H17A H 1.1642 0.7167 0.7418
H18A H 1.1513 0.8055 0.7998
C25A C 1.0663(2) 0.7207(4) 0.7646(3)
C26A C 1.0215(3) 0.7189(10) 0.8066(3)
H19A H 1.0348 0.7170 0.8476
C27A C 1.0441(3) 0.7198(10) 0.7078(3)
H20A H 1.0744 0.7197 0.6763
N1A N 1.15783(16) 0.6104(3) 0.81919(17)
N2A N 1.16916(14) 0.4048(3) 0.85095(13)
C1A C 1.2485(2) 0.0316(5) 0.90910(18)
C2A C 1.31181(18) -0.0374(4) 0.92687(17)
C3A C 1.37035(19) 0.0310(4) 0.92470(19)
H1A H 1.3703 0.1215 0.9147
C4A C 1.42918(19) -0.0332(4) 0.9372(2)
H2A H 1.4688 0.0133 0.9339
C5A C 1.43027(18) -0.1641(4) 0.95447(17)
C6A C 1.37122(19) -0.2309(4) 0.9589(2)
H3A H 1.3709 -0.3196 0.9719
C7A C 1.31257(19) -0.1679(5) 0.9443(2)
H4A H 1.2730 -0.2150 0.9463
C8A C 1.49353(17) -0.2334(4) 0.96677(17)
C9A C 1.50533(18) -0.3039(4) 1.01954(17)
H5A H 1.4722 -0.3114 1.0483
C10A C 1.56543(17) -0.3635(4) 1.03043(16)
C11A C 1.61024(17) -0.3562(4) 0.98395(17)
H6A H 1.6508 -0.3991 0.9897
C12A C 1.54197(18) -0.2282(4) 0.92433(18)
H7A H 1.5346 -0.1781 0.8889
C13A C 1.58316(17) -0.4328(4) 1.08790(17)
C14A C 1.53691(19) -0.4982(4) 1.12141(18)
H8A H 1.4934 -0.5020 1.1067
C15A C 1.5532(2) -0.5582(5) 1.17618(19)
H9A H 1.5208 -0.6014 1.1986
C16A C 1.6175(2) -0.5541(4) 1.19782(18)
C17A C 1.6360(2) -0.6130(4) 1.2588(2)
C18A C 1.6638(2) -0.4902(4) 1.16451(18)
H10A H 1.7075 -0.4888 1.1787
C19A C 1.64729(19) -0.4276(4) 1.11026(19)
H11A H 1.6794 -0.3818 1.0887
Co1A Co 1.16657(2) 0.20212(5) 0.86091(2)
N3A N 1.59949(14) -0.2921(3) 0.93167(14)
O1A O 1.25082(13) 0.1561(3) 0.90304(13)
O2A O 1.19769(14) -0.0345(3) 0.90047(15)
O3A O 1.59419(16) -0.6553(4) 1.29302(14)
O4A O 1.69513(17) -0.6219(4) 1.27341(15)
Co1B Co 0.33343(2) -0.29788(5) 0.63909(2)
Co1C Co 1.66657(2) -0.29788(5) 0.86091(2)
Co1F Co 1.66657(2) -0.70212(5) 1.36091(2)
Co1G Co 0.33343(2) -0.70212(5) 0.13909(2)
N3B N 0.90051(14) 0.2079(3) 0.56833(14)
N3C N 1.09949(14) 0.2079(3) 0.93167(14)
O3F O 1.09419(16) 0.1553(4) 0.79302(14)
O3G O 0.90581(16) 0.1553(4) 0.70698(14)
O4F O 1.19513(17) 0.1219(4) 0.77341(15)
O4G O 0.80487(17) 0.1219(4) 0.72659(15)
O5 O 0.5000 0.1178(19) 0.2500
H21 H 0.497(6) 0.0836(19) 0.2841(4)
H21A H 0.503(6) 0.0836(19) 0.2159(4)
H22? H 0.5000 0.1999(19) 0.2500
loop_
_geom_bond_atom_site_label_1
_geom_bond_atom_site_label_2
_geom_bond_site_symmetry_1
_geom_bond_site_symmetry_2
C1 C2 1_555 1_555
C2 C3 1_555 1_555
C3 H1 1_555 1_555
C4 C3 1_555 1_555
H2 C4 1_555 1_555
C5 C4 1_555 1_555
C6 C5 1_555 1_555
H3 C6 1_555 1_555
C7 C2 1_555 1_555
H4 C7 1_555 1_555
C8 C5 1_555 1_555
C9 C8 1_555 1_555
H5 C9 1_555 1_555
C10 C9 1_555 1_555
C11 C10 1_555 1_555
H6 C11 1_555 1_555
C12 C8 1_555 1_555
H7 C12 1_555 1_555
C13 C10 1_555 1_555
C14 C13 1_555 1_555
H8 C14 1_555 1_555
C15 C14 1_555 1_555
H9 C15 1_555 1_555
C16 C15 1_555 1_555
C17 C16 1_555 1_555
C18 C16 1_555 1_555
H10 C18 1_555 1_555
C19 C13 1_555 1_555
H11 C19 1_555 1_555
C20 H12 1_555 1_555
H13 C20 1_555 1_555
H14 C20 1_555 1_555
C21 C20 1_555 1_555
C22 H15 1_555 1_555
C23 C22 1_555 1_555
H16 C23 1_555 1_555
C24 H17 1_555 1_555
H18 C24 1_555 1_555
C25 C24 1_555 1_555
C26 C25 1_555 1_555
H19 C26 1_555 1_555
C27 C25 1_555 1_555
H20 C27 1_555 1_555
Co1 N2 1_555 1_555
N1 C21 1_555 1_555
N2 C21 1_555 1_555
N3 C11 1_555 1_555
O1 C1 1_555 1_555
O2 C1 1_555 1_555
O3 C17 1_555 1_555
O4 C17 1_555 1_555
O5 H21 1_555 1_555
C20A H12A 1_555 1_555
H13A C20A 1_555 1_555
H14A C20A 1_555 1_555
C21A C20A 1_555 1_555
C22A H15A 1_555 1_555
C23A C22A 1_555 1_555
H16A C23A 1_555 1_555
C24A H17A 1_555 1_555
H18A C24A 1_555 1_555
C25A C24A 1_555 1_555
C26A C27 1_555 1_555
H19A C26A 1_555 1_555
C27A C26 1_555 1_555
H20A C27A 1_555 1_555
N1A C21A 1_555 1_555
N2A C21A 1_555 1_555
C1A C2A 1_555 1_555
C2A C3A 1_555 1_555
C3A H1A 1_555 1_555
C4A C3A 1_555 1_555
H2A C4A 1_555 1_555
C5A C4A 1_555 1_555
C6A C5A 1_555 1_555
H3A C6A 1_555 1_555
C7A C2A 1_555 1_555
H4A C7A 1_555 1_555
C8A C5A 1_555 1_555
C9A C8A 1_555 1_555
H5A C9A 1_555 1_555
C10A C9A 1_555 1_555
C11A C10A 1_555 1_555
H6A C11A 1_555 1_555
C12A C8A 1_555 1_555
H7A C12A 1_555 1_555
C13A C10A 1_555 1_555
C14A C13A 1_555 1_555
H8A C14A 1_555 1_555
C15A C14A 1_555 1_555
H9A C15A 1_555 1_555
C16A C15A 1_555 1_555
C17A C16A 1_555 1_555
C18A C16A 1_555 1_555
H10A C18A 1_555 1_555
C19A C13A 1_555 1_555
H11A C19A 1_555 1_555
Co1A N2A 1_555 1_555
N3A C11A 1_555 1_555
O1A C1A 1_555 1_555
O2A C1A 1_555 1_555
O3A C17A 1_555 1_555
O4A C17A 1_555 1_555
Co1B N3 1_555 1_555
Co1C N3A 1_555 1_555
Co1F O3A 1_555 1_555
Co1G O3 1_555 1_555
N3B Co1 1_555 1_555
N3C Co1A 1_555 1_555
O3F Co1A 1_555 1_555
O3G Co1 1_555 1_555
O4F Co1A 1_555 1_555
O4G Co1 1_555 1_555
H21A O5 1_555 1_555
C6 C7 1_555 1_555
C12 N3 1_555 1_555
C18 C19 1_555 1_555
C22 N2 1_555 1_555
C23 N1 1_555 1_555
C24 N1 1_555 1_555
Co1 O1 1_555 1_555
O4 Co1G 1_555 1_555
C22A N2A 1_555 1_555
C23A N1A 1_555 1_555
C24A N1A 1_555 1_555
C25A C26A 1_555 1_555
C25A C27A 1_555 1_555
C6A C7A 1_555 1_555
C12A N3A 1_555 1_555
C18A C19A 1_555 1_555
Co1A O1A 1_555 1_555
O4A Co1F 1_555 1_555

#END
