
#######################################################################
#
#                 Cambridge Crystallographic Data Centre
#                                CCDC 
#
#######################################################################
#
# If this CIF has been generated from an entry in the Cambridge 
# Structural Database, then it will include bibliographic, chemical, 
# crystal, experimental, refinement or atomic coordinate data resulting 
# from the CCDC's data processing and validation procedures.
#
#######################################################################

data_GISVIP
_symmetry_cell_setting           monoclinic
_symmetry_space_group_name_H-M   'C 2/c'
_symmetry_Int_Tables_number      15
_space_group_name_Hall           '-C 2yn'
loop_
_symmetry_equiv_pos_site_id
_symmetry_equiv_pos_as_xyz
1 x,y,z
2 -x,y,1/2-z
3 1/2+x,1/2+y,z
4 1/2-x,1/2+y,1/2-z
5 -x,-y,-z
6 x,-y,1/2+z
7 1/2-x,1/2-y,-z
8 1/2+x,1/2-y,1/2+z
_cell_length_a                   26.386(2)
_cell_length_b                   11.3957(10)
_cell_length_c                   17.5666(19)
_cell_angle_alpha                90
_cell_angle_beta                 115.7120(10)
_cell_angle_gamma                90
_cell_volume                     4759.05
loop_
_atom_site_label
_atom_site_type_symbol
_atom_site_fract_x
_atom_site_fract_y
_atom_site_fract_z
C1 C 0.3593(2) 0.9948(5) 0.9133(4)
C2 C 0.3115(2) 0.9728(5) 0.8286(4)
C3 C 0.2664(3) 0.9012(6) 0.8205(4)
H1 H 0.2670 0.8634 0.8678
C4 C 0.2214(3) 0.8860(6) 0.7440(4)
H2 H 0.1913 0.8400 0.7403
C5 C 0.2197(2) 0.9387(5) 0.6707(4)
C6 C 0.2637(3) 1.0101(6) 0.6795(4)
H3 H 0.2630 1.0483 0.6323
C7 C 0.3087(3) 1.0267(6) 0.7567(4)
H4 H 0.3380 1.0753 0.7605
C8 C 0.1709(2) 0.9221(5) 0.5870(3)
C9 C 0.1360(3) 0.8253(5) 0.5715(4)
H5 H 0.1442 0.7715 0.6151
C10 C 0.0798(3) 0.8813(5) 0.4363(4)
H6 H 0.0486 0.8676 0.3853
C11 C 0.1114(2) 0.9815(5) 0.4433(4)
C12 C 0.1573(3) 1.0000(5) 0.5205(4)
H7 H 0.1794 1.0664 0.5278
C13 C 0.0960(3) 1.0652(5) 0.3722(4)
C14 C 0.0757(3) 1.0290(6) 0.2897(4)
H8 H 0.0728 0.9490 0.2780
C15 C 0.0593(2) 1.1074(5) 0.2234(4)
H9 H 0.0460 1.0797 0.1683
C16 C 0.0627(2) 1.2274(5) 0.2385(3)
C17 C 0.0838(3) 1.2659(6) 0.3217(4)
H10 H 0.0863 1.3461 0.3327
C18 C 0.1009(3) 1.1879(6) 0.3883(4)
H11 H 0.1157 1.2156 0.4435
C19 C 0.0421(2) 1.3155(6) 0.1674(4)
C20 C -0.0576(3) 0.8131(6) 0.4301(4)
H12 H -0.0447 0.8556 0.4802
C21 C -0.1019(3) 0.8420(6) 0.3584(4)
H13 H -0.1250 0.9071 0.3495
C22 C -0.0649(3) 0.6804(5) 0.3401(4)
H14 H -0.0589 0.6138 0.3145
C23 C -0.1482(2) 0.7528(5) 0.2142(4)
C24 C -0.1413(3) 0.6819(6) 0.1561(4)
H15 H -0.1095 0.6348 0.1726
C25 C -0.1814(3) 0.6807(6) 0.0737(4)
H16 H -0.1764 0.6302 0.0360
C26 C -0.2288(2) 0.7509(5) 0.0440(3)
C27 C -0.2338(3) 0.8216(6) 0.1040(4)
H17 H -0.2650 0.8702 0.0876
C28 C -0.1944(3) 0.8237(7) 0.1877(4)
H18 H -0.1994 0.8734 0.2258
Cu1 Cu 0.03831(3) 0.64363(6) 0.50218(4)
N1 N 0.0913(2) 0.8039(4) 0.4981(3)
N2 N -0.0341(2) 0.7107(4) 0.4187(3)
N3 N -0.10662(19) 0.7583(4) 0.3011(3)
O1 O 0.39576(17) 1.0685(4) 0.9120(2)
O2 O 0.36186(19) 0.9440(4) 0.9772(3)
O3 O 0.03801(18) 1.4194(4) 0.1863(3)
O4 O 0.02912(17) 1.2750(4) 0.0947(2)
O5 O 0.04529(18) 0.5485(4) 0.4137(3)
H19 H 0.0733(11) 0.506(3) 0.431(5)
H20 H 0.0158(11) 0.514(4) 0.403(5)
C20F C -0.4424(3) 0.6869(6) -0.4301(4)
H12F H -0.4553 0.6444 -0.4802
C21F C -0.3981(3) 0.6580(6) -0.3584(4)
H13F H -0.3750 0.5929 -0.3495
C22F C -0.4351(3) 0.8196(5) -0.3401(4)
H14F H -0.4411 0.8862 -0.3145
C23F C -0.3518(2) 0.7472(5) -0.2142(4)
C24F C -0.3587(3) 0.8181(6) -0.1561(4)
H15F H -0.3905 0.8652 -0.1726
C25F C -0.3186(3) 0.8193(6) -0.0737(4)
H16F H -0.3236 0.8698 -0.0360
C26F C -0.2712(2) 0.7491(5) -0.0440(3)
C27F C -0.2662(3) 0.6784(6) -0.1040(4)
H17F H -0.2350 0.6298 -0.0876
C28F C -0.3056(3) 0.6763(7) -0.1877(4)
H18F H -0.3006 0.6266 -0.2258
N2F N -0.4659(2) 0.7893(4) -0.4187(3)
N3F N -0.39338(19) 0.7417(4) -0.3011(3)
C1F C -0.8593(2) 0.5052(5) -0.9133(4)
C2F C -0.8115(2) 0.5272(5) -0.8286(4)
C3F C -0.7664(3) 0.5988(6) -0.8205(4)
H1F H -0.7670 0.6366 -0.8678
C4F C -0.7214(3) 0.6140(6) -0.7440(4)
H2F H -0.6913 0.6600 -0.7403
C5F C -0.7197(2) 0.5613(5) -0.6707(4)
C6F C -0.7637(3) 0.4899(6) -0.6795(4)
H3F H -0.7630 0.4517 -0.6323
C7F C -0.8087(3) 0.4733(6) -0.7567(4)
H4F H -0.8380 0.4247 -0.7605
C8F C -0.6709(2) 0.5779(5) -0.5870(3)
C9F C -0.6360(3) 0.6747(5) -0.5715(4)
H5F H -0.6442 0.7285 -0.6151
C10F C -0.5798(3) 0.6187(5) -0.4363(4)
H6F H -0.5486 0.6324 -0.3853
C11F C -0.6114(2) 0.5185(5) -0.4433(4)
C12F C -0.6573(3) 0.5000(5) -0.5205(4)
H7F H -0.6794 0.4336 -0.5278
C13F C -0.5960(3) 0.4348(5) -0.3722(4)
C14F C -0.5757(3) 0.4710(6) -0.2897(4)
H8F H -0.5728 0.5510 -0.2780
C15F C -0.5593(2) 0.3926(5) -0.2234(4)
H9F H -0.5460 0.4203 -0.1683
C16F C -0.5627(2) 0.2726(5) -0.2385(3)
C17F C -0.5838(3) 0.2341(6) -0.3217(4)
H10F H -0.5863 0.1539 -0.3327
C18F C -0.6009(3) 0.3121(6) -0.3883(4)
H11F H -0.6157 0.2844 -0.4435
C19F C -0.5421(2) 0.1845(6) -0.1674(4)
Cu1F Cu -0.53831(3) 0.85637(6) -0.50218(4)
N1F N -0.5913(2) 0.6961(4) -0.4981(3)
O1F O -0.89576(17) 0.4315(4) -0.9120(2)
O2F O -0.86186(19) 0.5560(4) -0.9772(3)
O3F O -0.53801(18) 0.0806(4) -0.1863(3)
O4F O -0.52912(17) 0.2250(4) -0.0947(2)
O5F O -0.54529(18) 0.9515(4) -0.4137(3)
H19F H -0.5733(11) 0.994(3) -0.431(5)
H20F H -0.5158(11) 0.986(4) -0.403(5)
Cu1C Cu -0.53831(3) 0.14363(6) -0.00218(4)
Cu1C_2 Cu 0.46169(3) 1.14363(6) 0.99782(4)
Cu1E Cu -0.96169(3) 0.35637(6) -0.99782(4)
Cu1E_2 Cu 0.03831(3) 1.35637(6) 0.00218(4)
O1C O 0.10424(17) 0.5685(4) 0.5880(2)
O1E O -0.60424(17) 0.9315(4) -0.5880(2)
O4C O -0.52912(17) 0.7750(4) -0.5947(2)
O4E O 0.02912(17) 0.7250(4) 0.5947(2)
loop_
_geom_bond_atom_site_label_1
_geom_bond_atom_site_label_2
_geom_bond_site_symmetry_1
_geom_bond_site_symmetry_2
C1 C2 1_555 1_555
C2 C3 1_555 1_555
C3 H1 1_555 1_555
C4 C3 1_555 1_555
H2 C4 1_555 1_555
C5 C4 1_555 1_555
C6 C5 1_555 1_555
H3 C6 1_555 1_555
C7 C2 1_555 1_555
H4 C7 1_555 1_555
C8 C5 1_555 1_555
C9 C8 1_555 1_555
H5 C9 1_555 1_555
C10 H6 1_555 1_555
C11 C10 1_555 1_555
C12 C8 1_555 1_555
H7 C12 1_555 1_555
C13 C11 1_555 1_555
C14 C13 1_555 1_555
H8 C14 1_555 1_555
C15 C14 1_555 1_555
H9 C15 1_555 1_555
C16 C15 1_555 1_555
C17 C16 1_555 1_555
H10 C17 1_555 1_555
C18 C13 1_555 1_555
H11 C18 1_555 1_555
C19 C16 1_555 1_555
C20 H12 1_555 1_555
C21 C20 1_555 1_555
H13 C21 1_555 1_555
C22 H14 1_555 1_555
C23 C24 1_555 1_555
C24 H15 1_555 1_555
C25 C24 1_555 1_555
H16 C25 1_555 1_555
C26 C25 1_555 1_555
C27 C26 1_555 1_555
H17 C27 1_555 1_555
C28 C23 1_555 1_555
H18 C28 1_555 1_555
Cu1 N1 1_555 1_555
N1 C9 1_555 1_555
N2 C20 1_555 1_555
N3 C21 1_555 1_555
O1 C1 1_555 1_555
O2 C1 1_555 1_555
O3 C19 1_555 1_555
O4 C19 1_555 1_555
O5 Cu1 1_555 1_555
H19 O5 1_555 1_555
H20 O5 1_555 1_555
C20F H12F 1_555 1_555
C21F C20F 1_555 1_555
H13F C21F 1_555 1_555
C22F H14F 1_555 1_555
C23F C24F 1_555 1_555
C24F H15F 1_555 1_555
C25F C24F 1_555 1_555
H16F C25F 1_555 1_555
C26F C26 1_555 1_555
C27F C26F 1_555 1_555
H17F C27F 1_555 1_555
C28F C23F 1_555 1_555
H18F C28F 1_555 1_555
N2F C20F 1_555 1_555
N3F C21F 1_555 1_555
C1F C2F 1_555 1_555
C2F C3F 1_555 1_555
C3F H1F 1_555 1_555
C4F C3F 1_555 1_555
H2F C4F 1_555 1_555
C5F C4F 1_555 1_555
C6F C5F 1_555 1_555
H3F C6F 1_555 1_555
C7F C2F 1_555 1_555
H4F C7F 1_555 1_555
C8F C5F 1_555 1_555
C9F C8F 1_555 1_555
H5F C9F 1_555 1_555
C10F H6F 1_555 1_555
C11F C10F 1_555 1_555
C12F C8F 1_555 1_555
H7F C12F 1_555 1_555
C13F C11F 1_555 1_555
C14F C13F 1_555 1_555
H8F C14F 1_555 1_555
C15F C14F 1_555 1_555
H9F C15F 1_555 1_555
C16F C15F 1_555 1_555
C17F C16F 1_555 1_555
H10F C17F 1_555 1_555
C18F C13F 1_555 1_555
H11F C18F 1_555 1_555
C19F C16F 1_555 1_555
Cu1F N2F 1_555 1_555
N1F C9F 1_555 1_555
O1F C1F 1_555 1_555
O2F C1F 1_555 1_555
O3F C19F 1_555 1_555
O4F C19F 1_555 1_555
O5F Cu1F 1_555 1_555
H19F O5F 1_555 1_555
H20F O5F 1_555 1_555
Cu1C O4F 1_555 1_555
Cu1C_2 O1 1_555 1_555
Cu1E O1F 1_555 1_555
Cu1E_2 O4 1_555 1_555
O1C Cu1 1_555 1_555
O1E Cu1F 1_555 1_555
O4C Cu1F 1_555 1_555
O4E Cu1 1_555 1_555
C6 C7 1_555 1_555
C10 N1 1_555 1_555
C11 C12 1_555 1_555
C17 C18 1_555 1_555
C22 N2 1_555 1_555
C22 N3 1_555 1_555
C23 N3 1_555 1_555
C27 C28 1_555 1_555
Cu1 N2 1_555 1_555
C22F N2F 1_555 1_555
C22F N3F 1_555 1_555
C23F N3F 1_555 1_555
C25F C26F 1_555 1_555
C27F C28F 1_555 1_555
C6F C7F 1_555 1_555
C10F N1F 1_555 1_555
C11F C12F 1_555 1_555
C17F C18F 1_555 1_555
Cu1F N1F 1_555 1_555

#END
