
#######################################################################
#
#                 Cambridge Crystallographic Data Centre
#                                CCDC 
#
#######################################################################
#
# If this CIF has been generated from an entry in the Cambridge 
# Structural Database, then it will include bibliographic, chemical, 
# crystal, experimental, refinement or atomic coordinate data resulting 
# from the CCDC's data processing and validation procedures.
#
#######################################################################

data_GISVUB
_symmetry_cell_setting           triclinic
_symmetry_space_group_name_H-M   'P -1'
_symmetry_Int_Tables_number      2
_space_group_name_Hall           '-P 1'
loop_
_symmetry_equiv_pos_site_id
_symmetry_equiv_pos_as_xyz
1 x,y,z
2 -x,-y,-z
_cell_length_a                   11.6916(6)
_cell_length_b                   11.7881(6)
_cell_length_c                   12.6510(6)
_cell_angle_alpha                82.0710(10)
_cell_angle_beta                 83.1130(10)
_cell_angle_gamma                82.6380(10)
_cell_volume                     1703.38
loop_
_atom_site_label
_atom_site_type_symbol
_atom_site_fract_x
_atom_site_fract_y
_atom_site_fract_z
C1 C 0.8860(3) 0.6183(3) 0.4218(3)
H1 H 0.9611 0.6033 0.4414
C2 C 0.7059(3) 0.6489(4) 0.4230(3)
H2 H 0.6276 0.6596 0.4478
C3 C 0.7423(3) 0.6507(4) 0.3236(3)
H3 H 0.6984 0.6628 0.2656
C4 C 0.9345(4) 0.6188(3) 0.2227(3)
H4 H 0.9012 0.5716 0.1800
H5 H 1.0089 0.5790 0.2405
C5 C 0.9530(3) 0.7323(3) 0.1573(3)
C6 C 1.0137(5) 0.8093(4) 0.1909(4)
H6 H 1.0442 0.7906 0.2565
C7 C 1.0317(5) 0.9145(4) 0.1313(3)
H7 H 1.0723 0.9653 0.1578
C8 C 0.9898(3) 0.9437(3) 0.0331(3)
C9 C 0.9326(5) 0.8664(4) -0.0016(4)
H8 H 0.9047 0.8830 -0.0685
C10 C 0.9143(5) 0.7622(4) 0.0602(4)
H9 H 0.8738 0.7113 0.0336
C11 C 0.6995(4) 0.4436(4) 0.8839(3)
H10 H 0.6547 0.4001 0.8529
C12 C 0.8053(6) 0.5584(6) 0.9070(4)
H11 H 0.8540 0.6165 0.8941
C13 C 0.7818(6) 0.5050(6) 1.0013(4)
H12 H 0.8072 0.5167 1.0655
C14 C 0.6646(8) 0.3544(6) 1.0779(4)
H13 H 0.6020 0.3989 1.1170
H14 H 0.7242 0.3283 1.1257
C15 C 0.6192(7) 0.2511(6) 1.0478(4)
C16 C 0.6838(7) 0.1593(8) 1.0200(9)
H15 H 0.7638 0.1603 1.0101
C17 C 0.6394(6) 0.0609(6) 1.0046(9)
H16 H 0.6912 -0.0034 0.9907
C18 C 0.5239(4) 0.0525(4) 1.0085(4)
C19 C 0.4567(6) 0.1497(6) 1.0382(6)
H17 H 0.3766 0.1501 1.0476
C20 C 0.5036(8) 0.2464(6) 1.0546(6)
H18 H 0.4537 0.3111 1.0710
C21 C 0.6672(3) 0.8353(3) 0.6607(3)
H19 H 0.7442 0.8459 0.6635
C22 C 0.5873(2) 0.9314(2) 0.6503(3)
C23 C 0.4728(3) 0.9135(2) 0.6461(3)
H20 H 0.4168 0.9765 0.6363
C24 C 0.4409(2) 0.8028(2) 0.6564(2)
C25 C 0.5293(2) 0.7121(2) 0.6656(2)
H21 H 0.5101 0.6372 0.6710
C26 C 0.3186(3) 0.7805(3) 0.6617(3)
C27 C 0.2880(3) 0.6813(3) 0.6306(3)
H22 H 0.3455 0.6279 0.6032
C28 C 0.1731(3) 0.6605(3) 0.6400(3)
H23 H 0.1542 0.5945 0.6166
C29 C 0.0865(3) 0.7364(3) 0.6835(3)
C30 C 0.1161(3) 0.8366(3) 0.7122(4)
H24 H 0.0585 0.8900 0.7394
C31 C 0.2305(3) 0.8584(3) 0.7010(4)
H25 H 0.2486 0.9268 0.7203
C32 C -0.0390(3) 0.7125(3) 0.7019(3)
C33 C 0.6231(3) 1.0486(2) 0.6460(3)
C34 C 0.5459(3) 1.1393(3) 0.6771(4)
H26 H 0.4696 1.1269 0.7010
C35 C 0.5792(3) 1.2483(3) 0.6737(4)
H27 H 0.5247 1.3084 0.6935
C36 C 0.6918(3) 1.2685(2) 0.6414(3)
C37 C 0.7709(3) 1.1783(3) 0.6112(3)
H28 H 0.8477 1.1904 0.5899
C38 C 0.7368(3) 1.0703(3) 0.6122(3)
H29 H 0.7908 1.0110 0.5898
C39 C 0.7272(3) 1.3866(2) 0.6397(2)
Co1 Co 0.77399(3) 0.58563(3) 0.66034(3)
N1 N 0.7912(2) 0.6300(2) 0.4892(2)
N2 N 0.8582(3) 0.6312(2) 0.3217(2)
N3 N 0.7559(3) 0.5254(2) 0.8302(2)
N4 N 0.7131(4) 0.4296(3) 0.9857(3)
N5 N 0.6401(2) 0.7274(2) 0.6672(2)
O1 O -0.06496(19) 0.6308(2) 0.6588(2)
O2 O -0.1077(2) 0.7743(2) 0.7577(2)
O3 O 0.64961(19) 1.46924(17) 0.6500(2)
O4 O 0.83311(18) 1.40067(18) 0.63122(19)
C1A C 1.1140(3) 1.3817(3) -0.4218(3)
H1A H 1.0389 1.3967 -0.4414
C2A C 1.2941(3) 1.3511(4) -0.4230(3)
H2A H 1.3724 1.3404 -0.4478
C3A C 1.2577(3) 1.3493(4) -0.3236(3)
H3A H 1.3016 1.3372 -0.2656
C4A C 1.0655(4) 1.3812(3) -0.2227(3)
H4A H 1.0988 1.4284 -0.1800
H5A H 0.9911 1.4210 -0.2405
C5A C 1.0470(3) 1.2677(3) -0.1573(3)
C6A C 0.9863(5) 1.1907(4) -0.1909(4)
H6A H 0.9558 1.2094 -0.2565
C7A C 0.9683(5) 1.0855(4) -0.1313(3)
H7A H 0.9277 1.0347 -0.1578
C8A C 1.0102(3) 1.0563(3) -0.0331(3)
C9A C 1.0674(5) 1.1336(4) 0.0016(4)
H8A H 1.0953 1.1170 0.0685
C10A C 1.0857(5) 1.2378(4) -0.0602(4)
H9A H 1.1262 1.2887 -0.0336
N1A N 1.2088(2) 1.3700(2) -0.4892(2)
N2A N 1.1418(3) 1.3688(2) -0.3217(2)
C11A C 0.3005(4) -0.4436(4) 1.1161(3)
H10A H 0.3453 -0.4001 1.1471
C12A C 0.1947(6) -0.5584(6) 1.0930(4)
H11A H 0.1460 -0.6165 1.1059
C13A C 0.2182(6) -0.5050(6) 0.9987(4)
H12A H 0.1928 -0.5167 0.9345
C14A C 0.3354(8) -0.3544(6) 0.9221(4)
H13A H 0.3980 -0.3989 0.8830
H14A H 0.2758 -0.3283 0.8743
C15A C 0.3808(7) -0.2511(6) 0.9522(4)
C16A C 0.3162(7) -0.1593(8) 0.9800(9)
H15A H 0.2362 -0.1603 0.9899
C17A C 0.3606(6) -0.0609(6) 0.9954(9)
H16A H 0.3088 0.0034 1.0093
C18A C 0.4761(4) -0.0525(4) 0.9915(4)
C19A C 0.5433(6) -0.1497(6) 0.9618(6)
H17A H 0.6234 -0.1501 0.9524
C20A C 0.4964(8) -0.2464(6) 0.9454(6)
H18A H 0.5463 -0.3111 0.9290
N3A N 0.2441(3) -0.5254(2) 1.1698(2)
N4A N 0.2869(4) -0.4296(3) 1.0143(3)
C21A C 0.3328(3) -0.8353(3) 1.3393(3)
H19A H 0.2558 -0.8459 1.3365
C22A C 0.4127(2) -0.9314(2) 1.3497(3)
C23A C 0.5272(3) -0.9135(2) 1.3539(3)
H20A H 0.5832 -0.9765 1.3637
C24A C 0.5591(2) -0.8028(2) 1.3436(2)
C25A C 0.4707(2) -0.7121(2) 1.3344(2)
H21A H 0.4899 -0.6372 1.3290
C26A C 0.6814(3) -0.7805(3) 1.3383(3)
C27A C 0.7120(3) -0.6813(3) 1.3694(3)
H22A H 0.6545 -0.6279 1.3968
C28A C 0.8269(3) -0.6605(3) 1.3600(3)
H23A H 0.8458 -0.5945 1.3834
C29A C 0.9135(3) -0.7364(3) 1.3165(3)
C30A C 0.8839(3) -0.8366(3) 1.2878(4)
H24A H 0.9415 -0.8900 1.2606
C31A C 0.7695(3) -0.8584(3) 1.2990(4)
H25A H 0.7514 -0.9268 1.2797
C32A C 1.0390(3) -0.7125(3) 1.2981(3)
C33A C 0.3769(3) -1.0486(2) 1.3540(3)
C34A C 0.4541(3) -1.1393(3) 1.3229(4)
H26A H 0.5304 -1.1269 1.2990
C35A C 0.4208(3) -1.2483(3) 1.3263(4)
H27A H 0.4753 -1.3084 1.3065
C36A C 0.3082(3) -1.2685(2) 1.3586(3)
C37A C 0.2291(3) -1.1783(3) 1.3888(3)
H28A H 0.1523 -1.1904 1.4101
C38A C 0.2632(3) -1.0703(3) 1.3878(3)
H29A H 0.2092 -1.0110 1.4102
C39A C 0.2728(3) -1.3866(2) 1.3603(2)
Co1A Co 0.22601(3) -0.58563(3) 1.33966(3)
N5A N 0.3599(2) -0.7274(2) 1.3328(2)
O1A O 1.06496(19) -0.6308(2) 1.3412(2)
O2A O 1.1077(2) -0.7743(2) 1.2423(2)
O3A O 0.35039(19) -1.46924(17) 1.3500(2)
O4A O 0.16689(18) -1.40067(18) 1.36878(19)
Co1_2 Co -0.22601(3) 0.58563(3) 0.66034(3)
Co1_3 Co 0.77399(3) 1.58563(3) 0.66034(3)
Co1A_2 Co 0.22601(3) -1.58563(3) 1.33966(3)
Co1A_3 Co 1.22601(3) -0.58563(3) 1.33966(3)
Co1A_4 Co 1.22601(3) 1.41437(3) -0.66034(3)
N1A_2 N 0.2088(2) -0.6300(2) 1.5108(2)
O1_2 O 0.93504(19) 0.6308(2) 0.6588(2)
O1A_2 O 0.06496(19) -0.6308(2) 1.3412(2)
O3_2 O 0.64961(19) 0.46924(17) 0.6500(2)
O3A_2 O 0.35039(19) -0.46924(17) 1.3500(2)
O4_2 O 0.83311(18) 0.40067(18) 0.63122(19)
O4A_2 O 0.16689(18) -0.40067(18) 1.36878(19)
loop_
_geom_bond_atom_site_label_1
_geom_bond_atom_site_label_2
_geom_bond_site_symmetry_1
_geom_bond_site_symmetry_2
C1 H1 1_555 1_555
C2 H2 1_555 1_555
C3 C2 1_555 1_555
H3 C3 1_555 1_555
C4 H4 1_555 1_555
H5 C4 1_555 1_555
C5 C4 1_555 1_555
C6 C5 1_555 1_555
H6 C6 1_555 1_555
C7 C6 1_555 1_555
H7 C7 1_555 1_555
C8 C7 1_555 1_555
C9 C8 1_555 1_555
H8 C9 1_555 1_555
C10 C5 1_555 1_555
H9 C10 1_555 1_555
C11 H10 1_555 1_555
C12 H11 1_555 1_555
C13 C12 1_555 1_555
H12 C13 1_555 1_555
C14 H13 1_555 1_555
H14 C14 1_555 1_555
C15 C14 1_555 1_555
C16 C15 1_555 1_555
H15 C16 1_555 1_555
C17 C16 1_555 1_555
H16 C17 1_555 1_555
C18 C17 1_555 1_555
C19 C18 1_555 1_555
H17 C19 1_555 1_555
C20 C15 1_555 1_555
H18 C20 1_555 1_555
C21 H19 1_555 1_555
C22 C21 1_555 1_555
C23 C22 1_555 1_555
H20 C23 1_555 1_555
C24 C23 1_555 1_555
C25 C24 1_555 1_555
H21 C25 1_555 1_555
C26 C24 1_555 1_555
C27 C26 1_555 1_555
H22 C27 1_555 1_555
C28 C27 1_555 1_555
H23 C28 1_555 1_555
C29 C28 1_555 1_555
C30 C29 1_555 1_555
H24 C30 1_555 1_555
C31 C26 1_555 1_555
H25 C31 1_555 1_555
C32 C29 1_555 1_555
C33 C22 1_555 1_555
C34 C33 1_555 1_555
H26 C34 1_555 1_555
C35 C34 1_555 1_555
H27 C35 1_555 1_555
C36 C35 1_555 1_555
C37 C36 1_555 1_555
H28 C37 1_555 1_555
C38 C33 1_555 1_555
H29 C38 1_555 1_555
C39 C36 1_555 1_555
Co1 N1 1_555 1_555
N1 C1 1_555 1_555
N2 C1 1_555 1_555
N3 C11 1_555 1_555
N4 C11 1_555 1_555
N5 C21 1_555 1_555
O1 C32 1_555 1_555
O2 C32 1_555 1_555
O3 C39 1_555 1_555
O4 C39 1_555 1_555
C1A H1A 1_555 1_555
C2A H2A 1_555 1_555
C3A C2A 1_555 1_555
H3A C3A 1_555 1_555
C4A H4A 1_555 1_555
H5A C4A 1_555 1_555
C5A C4A 1_555 1_555
C6A C5A 1_555 1_555
H6A C6A 1_555 1_555
C7A C6A 1_555 1_555
H7A C7A 1_555 1_555
C8A C8 1_555 1_555
C9A C8A 1_555 1_555
H8A C9A 1_555 1_555
C10A C5A 1_555 1_555
H9A C10A 1_555 1_555
N1A C1A 1_555 1_555
N2A C1A 1_555 1_555
C11A H10A 1_555 1_555
C12A H11A 1_555 1_555
C13A C12A 1_555 1_555
H12A C13A 1_555 1_555
C14A H13A 1_555 1_555
H14A C14A 1_555 1_555
C15A C14A 1_555 1_555
C16A C15A 1_555 1_555
H15A C16A 1_555 1_555
C17A C16A 1_555 1_555
H16A C17A 1_555 1_555
C18A C18 1_555 1_555
C19A C18A 1_555 1_555
H17A C19A 1_555 1_555
C20A C15A 1_555 1_555
H18A C20A 1_555 1_555
N3A C11A 1_555 1_555
N4A C11A 1_555 1_555
C21A H19A 1_555 1_555
C22A C21A 1_555 1_555
C23A C22A 1_555 1_555
H20A C23A 1_555 1_555
C24A C23A 1_555 1_555
C25A C24A 1_555 1_555
H21A C25A 1_555 1_555
C26A C24A 1_555 1_555
C27A C26A 1_555 1_555
H22A C27A 1_555 1_555
C28A C27A 1_555 1_555
H23A C28A 1_555 1_555
C29A C28A 1_555 1_555
C30A C29A 1_555 1_555
H24A C30A 1_555 1_555
C31A C26A 1_555 1_555
H25A C31A 1_555 1_555
C32A C29A 1_555 1_555
C33A C22A 1_555 1_555
C34A C33A 1_555 1_555
H26A C34A 1_555 1_555
C35A C34A 1_555 1_555
H27A C35A 1_555 1_555
C36A C35A 1_555 1_555
C37A C36A 1_555 1_555
H28A C37A 1_555 1_555
C38A C33A 1_555 1_555
H29A C38A 1_555 1_555
C39A C36A 1_555 1_555
Co1A N3A 1_555 1_555
N5A C21A 1_555 1_555
O1A C32A 1_555 1_555
O2A C32A 1_555 1_555
O3A C39A 1_555 1_555
O4A C39A 1_555 1_555
Co1_2 O1 1_555 1_555
Co1_3 O3 1_555 1_555
Co1A_2 O3A 1_555 1_555
Co1A_3 O1A 1_555 1_555
Co1A_4 N1A 1_555 1_555
N1A_2 Co1A 1_555 1_555
O1_2 Co1 1_555 1_555
O1A_2 Co1A 1_555 1_555
O3_2 Co1 1_555 1_555
O3A_2 Co1A 1_555 1_555
O4_2 Co1 1_555 1_555
O4A_2 Co1A 1_555 1_555
C2 N1 1_555 1_555
C3 N2 1_555 1_555
C4 N2 1_555 1_555
C9 C10 1_555 1_555
C12 N3 1_555 1_555
C13 N4 1_555 1_555
C14 N4 1_555 1_555
C19 C20 1_555 1_555
C25 N5 1_555 1_555
C30 C31 1_555 1_555
C37 C38 1_555 1_555
Co1 N3 1_555 1_555
Co1 N5 1_555 1_555
O4 Co1_3 1_555 1_555
C2A N1A 1_555 1_555
C3A N2A 1_555 1_555
C4A N2A 1_555 1_555
C7A C8A 1_555 1_555
C9A C10A 1_555 1_555
C12A N3A 1_555 1_555
C13A N4A 1_555 1_555
C14A N4A 1_555 1_555
C17A C18A 1_555 1_555
C19A C20A 1_555 1_555
C25A N5A 1_555 1_555
C30A C31A 1_555 1_555
C37A C38A 1_555 1_555
Co1A N5A 1_555 1_555
O4A Co1A_2 1_555 1_555

#END
