
#######################################################################
#
#                 Cambridge Crystallographic Data Centre
#                                CCDC 
#
#######################################################################
#
# If this CIF has been generated from an entry in the Cambridge 
# Structural Database, then it will include bibliographic, chemical, 
# crystal, experimental, refinement or atomic coordinate data resulting 
# from the CCDC's data processing and validation procedures.
#
#######################################################################

data_GISWEM
_symmetry_cell_setting           monoclinic
_symmetry_space_group_name_H-M   'C 2/c'
_symmetry_Int_Tables_number      15
_space_group_name_Hall           '-C 2yn'
loop_
_symmetry_equiv_pos_site_id
_symmetry_equiv_pos_as_xyz
1 x,y,z
2 -x,y,1/2-z
3 1/2+x,1/2+y,z
4 1/2-x,1/2+y,1/2-z
5 -x,-y,-z
6 x,-y,1/2+z
7 1/2-x,1/2-y,-z
8 1/2+x,1/2-y,1/2+z
_cell_length_a                   17.241(6)
_cell_length_b                   15.950(6)
_cell_length_c                   16.740(6)
_cell_angle_alpha                90
_cell_angle_beta                 108.386(7)
_cell_angle_gamma                90
_cell_volume                     4368.41
loop_
_atom_site_label
_atom_site_type_symbol
_atom_site_fract_x
_atom_site_fract_y
_atom_site_fract_z
C1 C 0.3871(3) 0.2798(3) 0.3054(3)
C2 C 0.4303(3) 0.3115(3) 0.3927(3)
C3 C 0.5048(3) 0.2795(3) 0.4394(3)
H1 H 0.5298 0.2391 0.4159
C4 C 0.5434(3) 0.3065(3) 0.5211(3)
C5 C 0.5071(3) 0.3692(3) 0.5550(3)
H2 H 0.5328 0.3875 0.6098
C6 C 0.4330(3) 0.4048(3) 0.5084(3)
C7 C 0.3955(3) 0.3740(3) 0.4274(3)
H3 H 0.3454 0.3963 0.3957
C8 C 0.6219(3) 0.2644(3) 0.5711(3)
C9 C 0.3939(3) 0.4733(3) 0.5430(3)
C10 C 0.3179(4) 0.5022(5) 0.5009(4)
H4 H 0.2894 0.4786 0.4491
C11 C 0.2822(4) 0.5648(4) 0.5326(4)
H5 H 0.2308 0.5830 0.4997
C12 C 0.3887(4) 0.5730(4) 0.6459(4)
H6 H 0.4157 0.5975 0.6977
C13 C 0.4284(3) 0.5113(4) 0.6181(3)
H7 H 0.4804 0.4950 0.6513
C14 C 0.2066(4) 0.4906(4) 0.1965(5)
H8 H 0.2367 0.5181 0.1671
C15 C 0.1771(5) 0.5271(4) 0.2542(5)
H9 H 0.1834 0.5827 0.2718
C16 C 0.1449(3) 0.3964(3) 0.2404(3)
H10 H 0.1237 0.3446 0.2486
C17 C 0.0965(3) 0.4747(3) 0.3438(3)
C18 C 0.0957(5) 0.4118(4) 0.3968(5)
H11 H 0.1211 0.3612 0.3926
C19 C 0.0573(5) 0.4215(4) 0.4580(4)
H12 H 0.0572 0.3769 0.4937
C20 C 0.0202(3) 0.4942(3) 0.4670(3)
C21 C 0.0199(5) 0.5555(4) 0.4106(5)
H13 H -0.0073 0.6053 0.4130
C22 C 0.0578(5) 0.5472(4) 0.3505(4)
H14 H 0.0570 0.5914 0.3141
N1 N 0.3142(2) 0.6008(2) 0.6046(2)
N2 N 0.1860(2) 0.4085(2) 0.1880(2)
N3 N 0.1365(3) 0.4659(3) 0.2809(3)
Ni1 Ni 0.24760(4) 0.31315(4) 0.14850(4)
O1 O 0.3173(2) 0.3110(2) 0.27022(19)
O2 O 0.4212(3) 0.2276(3) 0.2738(2)
O3 O 0.6567(2) 0.2148(2) 0.53413(18)
O4 O 0.6515(2) 0.2768(2) 0.64935(19)
O5 O 0.3143(2) 0.2145(2) 0.1221(2)
H15 H 0.320(3) 0.213(6) 0.0750(11)
H16 H 0.3575(13) 0.215(3) 0.1610(17)
C14D C -0.2066(4) 0.5094(4) 0.8035(5)
H8D H -0.2367 0.4819 0.8329
C15D C -0.1771(5) 0.4729(4) 0.7458(5)
H9D H -0.1834 0.4173 0.7282
C16D C -0.1449(3) 0.6036(3) 0.7596(3)
H10D H -0.1237 0.6554 0.7514
C17D C -0.0965(3) 0.5253(3) 0.6562(3)
C18D C -0.0957(5) 0.5882(4) 0.6032(5)
H11D H -0.1211 0.6388 0.6074
C19D C -0.0573(5) 0.5785(4) 0.5420(4)
H12D H -0.0572 0.6231 0.5063
C20D C -0.0202(3) 0.5058(3) 0.5330(3)
C21D C -0.0199(5) 0.4445(4) 0.5894(5)
H13D H 0.0073 0.3947 0.5870
C22D C -0.0578(5) 0.4528(4) 0.6495(4)
H14D H -0.0570 0.4086 0.6859
N2D N -0.1860(2) 0.5915(2) 0.8120(2)
N3D N -0.1365(3) 0.5341(3) 0.7191(3)
C1D C -0.3871(3) 0.7202(3) 0.6946(3)
C2D C -0.4303(3) 0.6885(3) 0.6073(3)
C3D C -0.5048(3) 0.7205(3) 0.5606(3)
H1D H -0.5298 0.7609 0.5841
C4D C -0.5434(3) 0.6935(3) 0.4789(3)
C5D C -0.5071(3) 0.6308(3) 0.4450(3)
H2D H -0.5328 0.6125 0.3902
C6D C -0.4330(3) 0.5952(3) 0.4916(3)
C7D C -0.3955(3) 0.6260(3) 0.5726(3)
H3D H -0.3454 0.6037 0.6043
C8D C -0.6219(3) 0.7356(3) 0.4289(3)
C9D C -0.3939(3) 0.5267(3) 0.4570(3)
C10D C -0.3179(4) 0.4978(5) 0.4991(4)
H4D H -0.2894 0.5214 0.5509
C11D C -0.2822(4) 0.4352(4) 0.4674(4)
H5D H -0.2308 0.4170 0.5003
C12D C -0.3887(4) 0.4270(4) 0.3541(4)
H6D H -0.4157 0.4025 0.3023
C13D C -0.4284(3) 0.4887(4) 0.3819(3)
H7D H -0.4804 0.5050 0.3487
N1D N -0.3142(2) 0.3992(2) 0.3954(2)
Ni1D Ni -0.24760(4) 0.68685(4) 0.85150(4)
O1D O -0.3173(2) 0.6890(2) 0.72978(19)
O2D O -0.4212(3) 0.7724(3) 0.7262(2)
O3D O -0.6567(2) 0.7852(2) 0.46587(18)
O4D O -0.6515(2) 0.7232(2) 0.35065(19)
O5D O -0.3143(2) 0.7855(2) 0.8779(2)
H15D H -0.320(3) 0.787(6) 0.9250(11)
H16D H -0.3575(13) 0.785(3) 0.8390(17)
N1A N -0.3142(2) 0.6008(2) 0.8954(2)
N1E N 0.3142(2) 0.3992(2) 0.1046(2)
Ni1A Ni -0.24760(4) 0.31315(4) 0.35150(4)
Ni1C Ni -0.74760(4) 0.81315(4) 0.35150(4)
Ni1E Ni 0.24760(4) 0.68685(4) 0.64850(4)
Ni1G Ni 0.74760(4) 0.18685(4) 0.64850(4)
O3C O -0.1567(2) 0.7148(2) 0.96587(18)
O3G O 0.1567(2) 0.2852(2) 0.03413(18)
O4C O -0.1515(2) 0.7768(2) 0.85065(19)
O4G O 0.1515(2) 0.2232(2) 0.14935(19)
O6 O 0.0850(5) 0.1809(5) 0.2764(4)
H17 H 0.096(4) 0.191(4) 0.2328(19)
H18 H 0.121(3) 0.194(4) 0.3198(18)
O7 O 0.2276(5) 0.2259(7) 0.4102(8)
H19 H 0.257(3) 0.189(2) 0.437(4)
H20 H 0.251(3) 0.270(2) 0.407(5)
loop_
_geom_bond_atom_site_label_1
_geom_bond_atom_site_label_2
_geom_bond_site_symmetry_1
_geom_bond_site_symmetry_2
C1 C2 1_555 1_555
C2 C3 1_555 1_555
C3 H1 1_555 1_555
C4 C3 1_555 1_555
C5 C4 1_555 1_555
H2 C5 1_555 1_555
C6 C5 1_555 1_555
C7 C2 1_555 1_555
H3 C7 1_555 1_555
C8 C4 1_555 1_555
C9 C6 1_555 1_555
C10 C9 1_555 1_555
H4 C10 1_555 1_555
C11 C10 1_555 1_555
H5 C11 1_555 1_555
C12 H6 1_555 1_555
C13 C9 1_555 1_555
H7 C13 1_555 1_555
C14 H8 1_555 1_555
C15 C14 1_555 1_555
H9 C15 1_555 1_555
C16 H10 1_555 1_555
C17 C18 1_555 1_555
C18 H11 1_555 1_555
C19 C18 1_555 1_555
H12 C19 1_555 1_555
C20 C19 1_555 1_555
C21 C20 1_555 1_555
H13 C21 1_555 1_555
C22 C17 1_555 1_555
H14 C22 1_555 1_555
N1 C11 1_555 1_555
N2 C14 1_555 1_555
N3 C15 1_555 1_555
Ni1 N2 1_555 1_555
O1 C1 1_555 1_555
O2 C1 1_555 1_555
O3 C8 1_555 1_555
O4 C8 1_555 1_555
O5 Ni1 1_555 1_555
H15 O5 1_555 1_555
H16 O5 1_555 1_555
O6 H17 1_555 1_555
H18 O6 1_555 1_555
O7 H19 1_555 1_555
H20 O7 1_555 1_555
C14D H8D 1_555 1_555
C15D C14D 1_555 1_555
H9D C15D 1_555 1_555
C16D H10D 1_555 1_555
C17D C18D 1_555 1_555
C18D H11D 1_555 1_555
C19D C18D 1_555 1_555
H12D C19D 1_555 1_555
C20D C20 1_555 1_555
C21D C20D 1_555 1_555
H13D C21D 1_555 1_555
C22D C17D 1_555 1_555
H14D C22D 1_555 1_555
N2D C14D 1_555 1_555
N3D C15D 1_555 1_555
C1D C2D 1_555 1_555
C2D C3D 1_555 1_555
C3D H1D 1_555 1_555
C4D C3D 1_555 1_555
C5D C4D 1_555 1_555
H2D C5D 1_555 1_555
C6D C5D 1_555 1_555
C7D C2D 1_555 1_555
H3D C7D 1_555 1_555
C8D C4D 1_555 1_555
C9D C6D 1_555 1_555
C10D C9D 1_555 1_555
H4D C10D 1_555 1_555
C11D C10D 1_555 1_555
H5D C11D 1_555 1_555
C12D H6D 1_555 1_555
C13D C9D 1_555 1_555
H7D C13D 1_555 1_555
N1D C11D 1_555 1_555
Ni1D N2D 1_555 1_555
O1D C1D 1_555 1_555
O2D C1D 1_555 1_555
O3D C8D 1_555 1_555
O4D C8D 1_555 1_555
O5D Ni1D 1_555 1_555
H15D O5D 1_555 1_555
H16D O5D 1_555 1_555
N1A Ni1D 1_555 1_555
N1E Ni1 1_555 1_555
Ni1A N1D 1_555 1_555
Ni1C O3D 1_555 1_555
Ni1E N1 1_555 1_555
Ni1G O3 1_555 1_555
O3C Ni1D 1_555 1_555
O3G Ni1 1_555 1_555
O4C Ni1D 1_555 1_555
O4G Ni1 1_555 1_555
C6 C7 1_555 1_555
C12 C13 1_555 1_555
C12 N1 1_555 1_555
C16 N2 1_555 1_555
C16 N3 1_555 1_555
C17 N3 1_555 1_555
C21 C22 1_555 1_555
Ni1 O1 1_555 1_555
O4 Ni1G 1_555 1_555
C16D N2D 1_555 1_555
C16D N3D 1_555 1_555
C17D N3D 1_555 1_555
C19D C20D 1_555 1_555
C21D C22D 1_555 1_555
C6D C7D 1_555 1_555
C12D C13D 1_555 1_555
C12D N1D 1_555 1_555
Ni1D O1D 1_555 1_555
O4D Ni1C 1_555 1_555

#END
