
#######################################################################
#
#                 Cambridge Crystallographic Data Centre
#                                CCDC 
#
#######################################################################
#
# If this CIF has been generated from an entry in the Cambridge 
# Structural Database, then it will include bibliographic, chemical, 
# crystal, experimental, refinement or atomic coordinate data resulting 
# from the CCDC's data processing and validation procedures.
#
#######################################################################

data_GITBOC
_symmetry_cell_setting           triclinic
_symmetry_space_group_name_H-M   'P -1'
_symmetry_Int_Tables_number      2
_space_group_name_Hall           '-P 1'
loop_
_symmetry_equiv_pos_site_id
_symmetry_equiv_pos_as_xyz
1 x,y,z
2 -x,-y,-z
_cell_length_a                   8.3731(17)
_cell_length_b                   8.4927(17)
_cell_length_c                   13.562(3)
_cell_angle_alpha                90.66(3)
_cell_angle_beta                 98.89(3)
_cell_angle_gamma                110.09(3)
_cell_volume                     892.665
loop_
_atom_site_label
_atom_site_type_symbol
_atom_site_fract_x
_atom_site_fract_y
_atom_site_fract_z
Mn1 Mn 0.41814(6) 0.49965(6) 0.32254(3)
Mn2 Mn 0.08991(6) 0.03056(6) 0.19731(4)
C1 C 0.0422(5) 0.2391(5) 0.4425(3)
C2 C -0.0814(4) 0.2682(5) 0.4889(3)
O1 O -0.4596(3) 0.3817(3) 0.43033(17)
O2 O -0.2973(3) 0.3976(3) 0.57981(16)
O3 O 0.7220(3) 0.3711(3) -0.21500(16)
N1 N 0.7675(4) 0.8193(4) 0.3033(2)
C3 C -0.0553(5) 0.3465(5) 0.2960(3)
C4 C -0.1819(5) 0.3732(5) 0.3393(3)
N2 N 0.6661(4) 0.7189(5) 0.3393(3)
C5 C 0.3896(5) -0.0115(5) 0.3593(3)
H1 H 0.4297 -0.0898 0.3968
H2 H 0.3745 0.0680 0.4046
H3 H 0.4728 0.0468 0.3187
N3 N -0.0466(4) 0.1565(4) 0.0853(2)
N4 N 0.6655(3) 0.3397(3) -0.12789(19)
N5 N -0.0349(4) 0.1687(4) 0.0003(2)
O4 O 0.1794(3) 0.2585(3) 0.30489(17)
O5 O 0.3221(4) 0.1420(3) 0.1392(2)
O6 O 0.2287(3) -0.1002(3) 0.2966(2)
O7 O 0.4878(3) 0.4047(3) 0.19500(17)
N6 N 0.0535(3) 0.2798(3) 0.3484(2)
C6 C 0.4390(4) 0.2793(4) 0.1350(2)
N7 N -0.0228(5) 0.1867(4) -0.0839(2)
C7 C -0.3302(4) 0.3758(4) 0.4861(2)
C8 C 0.5292(4) 0.2946(4) 0.0452(2)
C9 C -0.1958(4) 0.3352(4) 0.4373(2)
C10 C 0.7443(5) 0.4497(5) -0.0482(3)
N8 N 0.8669(5) 0.9298(5) 0.2704(3)
C11 C 0.4584(5) 0.1778(4) -0.0360(3)
C12 C 0.6770(4) 0.4304(4) 0.0388(2)
C13 C 0.5290(4) 0.2007(4) -0.1220(3)
H4 H 0.117(5) 0.197(4) 0.470(3)
H5 H 0.478(4) 0.122(4) -0.181(3)
H6 H -0.087(5) 0.240(4) 0.554(3)
H7 H -0.030(5) 0.376(4) 0.230(3)
H8 H 0.842(6) 0.539(5) -0.063(3)
H9 H -0.247(5) 0.425(5) 0.299(3)
H10 H 0.725(5) 0.518(5) 0.091(3)
H11 H 0.368(5) 0.087(5) -0.032(3)
H12 H 0.244(5) -0.178(6) 0.277(3)
Mn1_2 Mn -0.58186(6) 0.49965(6) 0.32254(3)
Mn1A Mn -0.41814(6) 0.50035(6) 0.67746(3)
Mn1A_2 Mn 0.58186(6) 0.50035(6) -0.32254(3)
Mn2_2 Mn 1.08991(6) 1.03056(6) 0.19731(4)
Mn2A Mn -0.08991(6) -0.03056(6) -0.19731(4)
O1_2 O 0.5404(3) 0.3817(3) 0.43033(17)
O2A O 0.2973(3) 0.6024(3) 0.42019(16)
O3A O 0.2780(3) 0.6289(3) 0.21500(16)
N7A N 0.0228(5) -0.1867(4) 0.0839(2)
N8_2 N -0.1331(5) -0.0702(5) 0.2704(3)
loop_
_geom_bond_atom_site_label_1
_geom_bond_atom_site_label_2
_geom_bond_site_symmetry_1
_geom_bond_site_symmetry_2
Mn1 N2 1_555 1_555
Mn2 N3 1_555 1_555
C1 C2 1_555 1_555
C2 C9 1_555 1_555
O1 C7 1_555 1_555
O2 C7 1_555 1_555
O3 N4 1_555 1_555
N1 N2 1_555 1_555
C3 C4 1_555 1_555
C4 C9 1_555 1_555
C5 H1 1_555 1_555
H2 C5 1_555 1_555
H3 C5 1_555 1_555
N3 N5 1_555 1_555
N4 C10 1_555 1_555
N5 N7 1_555 1_555
O4 Mn1 1_555 1_555
O5 Mn2 1_555 1_555
O6 Mn2 1_555 1_555
O7 Mn1 1_555 1_555
N6 C1 1_555 1_555
C6 O5 1_555 1_555
N7 Mn2A 1_555 1_555
C7 C9 1_555 1_555
C8 C6 1_555 1_555
C10 C12 1_555 1_555
N8 N1 1_555 1_555
C11 C8 1_555 1_555
C12 C8 1_555 1_555
C13 N4 1_555 1_555
H4 C1 1_555 1_555
H5 C13 1_555 1_555
H6 C2 1_555 1_555
H7 C3 1_555 1_555
H8 C10 1_555 1_555
H9 C4 1_555 1_555
H10 C12 1_555 1_555
H11 C11 1_555 1_555
H12 O6 1_555 1_555
Mn1_2 O1 1_555 1_555
Mn1A O2 1_555 1_555
Mn1A_2 O3 1_555 1_555
Mn2_2 N8 1_555 1_555
O1_2 Mn1 1_555 1_555
O2A Mn1 1_555 1_555
O3A Mn1 1_555 1_555
N7A Mn2 1_555 1_555
N8_2 Mn2 1_555 1_555
Mn2 O4 1_555 1_555
C3 N6 1_555 1_555
C5 O6 1_555 1_555
O4 N6 1_555 1_555
O7 C6 1_555 1_555
C11 C13 1_555 1_555

#END
