
#######################################################################
#
#                 Cambridge Crystallographic Data Centre
#                                CCDC 
#
#######################################################################
#
# If this CIF has been generated from an entry in the Cambridge 
# Structural Database, then it will include bibliographic, chemical, 
# crystal, experimental, refinement or atomic coordinate data resulting 
# from the CCDC's data processing and validation procedures.
#
#######################################################################

data_GITHUM
_symmetry_cell_setting           orthorhombic
_symmetry_space_group_name_H-M   'P b c a'
_symmetry_Int_Tables_number      61
_space_group_name_Hall           '-P 2ac 2ab'
loop_
_symmetry_equiv_pos_site_id
_symmetry_equiv_pos_as_xyz
1 x,y,z
2 1/2-x,-y,1/2+z
3 1/2+x,1/2-y,-z
4 -x,1/2+y,1/2-z
5 -x,-y,-z
6 1/2+x,y,1/2-z
7 1/2-x,1/2+y,z
8 x,1/2-y,1/2+z
_cell_length_a                   8.300(2)
_cell_length_b                   10.221(2)
_cell_length_c                   22.673(6)
_cell_angle_alpha                90
_cell_angle_beta                 90
_cell_angle_gamma                90
_cell_volume                     1923.45
loop_
_atom_site_label
_atom_site_type_symbol
_atom_site_fract_x
_atom_site_fract_y
_atom_site_fract_z
Cs1 Cs -0.72960(3) 0.20524(2) 0.19543(1)
S1 S -0.65585(8) -0.05346(7) 0.08386(3)
O1 O -0.5219(3) 0.4991(3) 0.24523(8)
O2 O -0.1509(3) -0.1965(2) 0.18212(9)
N1 N -0.3438(3) -0.0792(2) 0.05735(8)
N2 N -0.4058(3) -0.1405(2) 0.14954(9)
C1 C -0.4612(3) -0.0926(2) 0.09704(9)
C2 C -0.2451(3) -0.1557(3) 0.1436(1)
C3 C -0.1876(3) -0.1110(3) 0.0831(1)
C4 C -0.0983(5) -0.2162(3) 0.0491(1)
C5 C -0.0857(4) 0.0120(3) 0.0904(1)
H1 H -0.3750 -0.0566 0.0292
H2 H -0.0715 -0.1841 0.0109
H3 H -0.0025 -0.2388 0.0695
H4 H -0.1650 -0.2912 0.0453
H5 H -0.1450 0.0757 0.1118
H6 H -0.0589 0.0458 0.0526
H7 H 0.0102 -0.0088 0.1112
S1F S -0.84415(8) 0.44654(7) 0.08386(3)
N2F N -1.0942(3) 0.3595(2) 0.14954(9)
O1C O -0.4781(3) -0.0009(3) 0.25477(8)
O1F O -0.9781(3) -0.0009(3) 0.24523(8)
O2C O -0.8491(3) 0.3035(2) 0.31788(9)
O2F O -0.3491(3) 0.3035(2) 0.18212(9)
Cs1F Cs -0.77040(3) 0.70524(2) 0.19543(1)
Cs1C Cs -0.27040(3) 0.70524(2) 0.30457(1)
Cs1F_2 Cs -0.77040(3) -0.29476(2) 0.19543(1)
Cs1C_2 Cs -0.27040(3) -0.29476(2) 0.30457(1)
Cs1F_3 Cs 0.22960(3) -0.29476(2) 0.19543(1)
loop_
_geom_bond_atom_site_label_1
_geom_bond_atom_site_label_2
_geom_bond_site_symmetry_1
_geom_bond_site_symmetry_2
Cs1 S1 1_555 1_555
S1 C1 1_555 1_555
O1 Cs1 1_555 1_555
O2 C2 1_555 1_555
N1 C1 1_555 1_555
N2 C1 1_555 1_555
C2 N2 1_555 1_555
C3 N1 1_555 1_555
C4 C3 1_555 1_555
C5 C3 1_555 1_555
H1 N1 1_555 1_555
H2 C4 1_555 1_555
H3 C4 1_555 1_555
H4 C4 1_555 1_555
H5 C5 1_555 1_555
H6 C5 1_555 1_555
H7 C5 1_555 1_555
S1F Cs1 1_555 1_555
N2F Cs1 1_555 1_555
O1C Cs1 1_555 1_555
O1F Cs1 1_555 1_555
O2C Cs1 1_555 1_555
O2F Cs1 1_555 1_555
Cs1F O1 1_555 1_555
Cs1C O1 1_555 1_555
Cs1F_2 S1 1_555 1_555
Cs1C_2 O2 1_555 1_555
Cs1F_3 O2 1_555 1_555
N2 Cs1F_2 1_555 1_555
C2 C3 1_555 1_555
S1F Cs1F 1_555 1_555
O1C Cs1C_2 1_555 1_555
O1F Cs1F_2 1_555 1_555

#END
