
#######################################################################
#
#                 Cambridge Crystallographic Data Centre
#                                CCDC 
#
#######################################################################
#
# If this CIF has been generated from an entry in the Cambridge 
# Structural Database, then it will include bibliographic, chemical, 
# crystal, experimental, refinement or atomic coordinate data resulting 
# from the CCDC's data processing and validation procedures.
#
#######################################################################

data_GITZIU
_symmetry_cell_setting           triclinic
_symmetry_space_group_name_H-M   'P -1'
_symmetry_Int_Tables_number      2
_space_group_name_Hall           '-P 1'
loop_
_symmetry_equiv_pos_site_id
_symmetry_equiv_pos_as_xyz
1 x,y,z
2 -x,-y,-z
_cell_length_a                   13.698(5)
_cell_length_b                   16.879(5)
_cell_length_c                   18.153(5)
_cell_angle_alpha                110.202(5)
_cell_angle_beta                 91.837(5)
_cell_angle_gamma                109.065(5)
_cell_volume                     3672.89
loop_
_atom_site_label
_atom_site_type_symbol
_atom_site_fract_x
_atom_site_fract_y
_atom_site_fract_z
C1 C -0.5615(3) 0.1502(3) 0.5325(2)
H1 H -0.5088 0.1374 0.5051
C2 C -0.6586(3) 0.1350(3) 0.5003(2)
H2 H -0.6847 0.1091 0.4461
C3 C -0.6490(3) 0.1951(3) 0.6269(2)
H3 H -0.6658 0.2189 0.6771
C4 C -0.4657(3) 0.2156(3) 0.6727(2)
C5 C -0.3658(3) 0.2448(3) 0.6547(2)
H4 H -0.3560 0.2472 0.6049
C6 C -0.2810(3) 0.2702(3) 0.7124(2)
C7 C -0.2968(3) 0.2695(3) 0.7880(2)
C8 C -0.3969(3) 0.2412(3) 0.8056(2)
H5 H -0.4070 0.2408 0.8559
C9 C -0.4817(3) 0.2135(3) 0.7472(2)
H6 H -0.5494 0.1935 0.7580
C10 C -0.1941(3) 0.2998(3) 0.8364(2)
C11 C -0.1171(3) 0.3182(3) 0.7898(2)
C12 C -0.1653(3) 0.3014(3) 0.7066(2)
C13 C -0.1297(3) 0.3882(3) 0.6897(3)
H7 H -0.1611 0.3758 0.6370
H8 H -0.0548 0.4105 0.6939
H9 H -0.1507 0.4329 0.7276
C14 C -0.1387(3) 0.2276(3) 0.6428(3)
H10 H -0.1701 0.2186 0.5912
H11 H -0.1651 0.1721 0.6518
H12 H -0.0641 0.2459 0.6457
C15 C -0.0123(3) 0.3475(3) 0.8211(2)
H13 H 0.0395 0.3590 0.7903
C16 C 0.0132(3) 0.3592(3) 0.8991(2)
C17 C -0.0627(3) 0.3412(3) 0.9463(2)
H14 H -0.0431 0.3496 0.9988
C18 C -0.1679(3) 0.3106(3) 0.9144(2)
H15 H -0.2197 0.2976 0.9449
C19 C 0.1876(3) 0.4805(3) 0.9721(3)
H16 H 0.1712 0.5317 0.9795
C20 C 0.2804(3) 0.4783(3) 0.9962(2)
H17 H 0.3397 0.5290 1.0236
C21 C 0.1781(3) 0.3407(3) 0.9369(3)
H18 H 0.1522 0.2777 0.9150
C22 C -0.0379(3) 0.0175(3) 0.6072(2)
C23 C 0.0259(3) 0.0267(3) 0.6816(2)
C24 C -0.0004(3) -0.0457(3) 0.7063(2)
H19 H -0.0610 -0.0958 0.6809
C25 C 0.0625(3) -0.0441(3) 0.7683(2)
C26 C 0.0401(3) -0.1237(3) 0.7921(2)
C27 C 0.1510(3) 0.0331(3) 0.8084(2)
H20 H 0.1938 0.0346 0.8500
C28 C 0.1751(3) 0.1071(3) 0.7868(2)
C29 C 0.1135(3) 0.1039(3) 0.7224(2)
H21 H 0.1308 0.1531 0.7067
C30 C 0.2694(3) 0.1904(3) 0.8321(2)
C31 C -0.8163(3) 0.3464(3) 0.6506(2)
C32 C -0.7830(3) 0.4394(3) 0.7169(2)
C33 C -0.8347(3) 0.4981(3) 0.7184(2)
H22 H -0.8859 0.4830 0.6759
C34 C -0.8101(3) 0.5797(3) 0.7834(3)
C35 C -0.7266(3) 0.6056(3) 0.8418(2)
H23 H -0.7083 0.6608 0.8843
C36 C -0.6693(3) 0.5501(3) 0.8379(2)
C37 C -0.7011(3) 0.4653(3) 0.7773(2)
H24 H -0.6673 0.4255 0.7772
C38 C -0.8746(3) 0.6379(3) 0.7940(3)
C39 C -0.5753(3) 0.5853(3) 0.9005(2)
C40 C -0.9952(4) 0.2445(3) 0.4371(3)
H25 H -0.9347 0.2934 0.4431
C41 C -1.0881(4) 0.2236(3) 0.3929(3)
H26 H -1.1033 0.2547 0.3634
C42 C -1.1010(3) 0.1250(3) 0.4485(2)
H27 H -1.1286 0.0756 0.4632
C43 C -1.2641(3) 0.1021(3) 0.3662(2)
C44 C -1.2961(3) 0.0966(3) 0.2909(3)
H28 H -1.2476 0.1190 0.2616
C45 C -1.4017(3) 0.0570(3) 0.2603(2)
C46 C -1.4742(3) 0.0239(3) 0.3050(2)
C47 C -1.4407(3) 0.0266(3) 0.3783(2)
H29 H -1.4887 0.0018 0.4067
C48 C -1.3348(3) 0.0666(3) 0.4098(2)
H30 H -1.3115 0.0696 0.4597
C49 C -1.5797(3) -0.0105(3) 0.2591(2)
C50 C -1.5694(3) -0.0018(3) 0.1858(2)
C51 C -1.4555(3) 0.0422(3) 0.1793(2)
C52 C -1.4203(4) -0.0209(4) 0.1118(3)
H31 H -1.3483 0.0090 0.1095
H32 H -1.4628 -0.0365 0.0622
H33 H -1.4277 -0.0749 0.1214
C53 C -1.4366(4) 0.1311(4) 0.1684(3)
H34 H -1.3643 0.1574 0.1646
H35 H -1.4537 0.1719 0.2132
H36 H -1.4798 0.1202 0.1207
C54 C -1.6588(3) -0.0310(3) 0.1301(3)
H37 H -1.6536 -0.0260 0.0809
C55 C -1.7554(3) -0.0676(3) 0.1499(2)
C56 C -1.7652(3) -0.0742(3) 0.2237(3)
H38 H -1.8313 -0.0981 0.2358
C57 C -1.6768(3) -0.0451(3) 0.2792(3)
H39 H -1.6825 -0.0488 0.3290
C58 C 0.2700(3) 0.1793(3) 1.0761(2)
H40 H 0.2332 0.1341 1.0278
C59 C 0.2665(3) 0.1705(3) 1.1477(3)
H41 H 0.2269 0.1200 1.1576
C60 C 0.3715(3) 0.3056(3) 1.1619(2)
H42 H 0.4179 0.3651 1.1854
C61 C 0.3650(3) 0.2764(3) 1.2863(2)
C62 C 0.2915(3) 0.2660(3) 1.3357(2)
H43 H 0.2205 0.2395 1.3148
C63 C 0.3242(3) 0.2953(3) 1.4174(2)
H44 H 0.2756 0.2894 1.4516
C64 C 0.4307(3) 0.3335(3) 1.4466(2)
C65 C 0.5043(3) 0.3408(3) 1.3953(2)
C66 C 0.4718(3) 0.3131(3) 1.3146(2)
H45 H 0.5202 0.3189 1.2802
C67 C 0.6152(3) 0.3806(3) 1.4395(2)
C68 C 0.6682(4) 0.3100(4) 1.4169(3)
H46 H 0.7384 0.3369 1.4456
H47 H 0.6699 0.2896 1.3608
H48 H 0.6295 0.2596 1.4302
C69 C 0.6811(4) 0.4656(3) 1.4257(3)
H49 H 0.7508 0.4885 1.4546
H50 H 0.6500 0.5108 1.4439
H51 H 0.6839 0.4506 1.3699
C70 C 0.5954(3) 0.4036(3) 1.5246(2)
C71 C 0.4885(3) 0.3735(3) 1.5284(2)
C72 C 0.4549(3) 0.3887(3) 1.6017(2)
H52 H 0.3840 0.3670 1.6045
C73 C 0.5287(3) 0.4369(3) 1.6708(2)
H53 H 0.5075 0.4483 1.7204
C74 C 0.6347(3) 0.4678(3) 1.6652(2)
C75 C 0.6697(3) 0.4508(3) 1.5926(2)
H54 H 0.7408 0.4706 1.5897
C76 C 0.7954(3) 0.5948(3) 1.7429(2)
H55 H 0.8104 0.6173 1.7029
C77 C 0.7155(3) 0.5097(3) 1.8066(2)
H56 H 0.6678 0.4651 1.8198
C78 C 0.8038(3) 0.5754(3) 1.8530(2)
H57 H 0.8278 0.5833 1.9044
C79 C -1.8610(3) -0.1503(3) 0.0144(2)
H58 H -1.8079 -0.1645 -0.0115
C80 C -2.0092(3) -0.1401(3) 0.0380(3)
H59 H -2.0792 -0.1462 0.0308
C81 C -1.9432(3) -0.0950(4) 0.1079(3)
H60 H -1.9589 -0.0654 0.1570
N1 N -0.7137(2) 0.1636(2) 0.5597(2)
N2 N -0.5547(2) 0.1882(2) 0.61368(19)
N3 N 0.1222(2) 0.3918(2) 0.93420(19)
N4 N 0.2744(2) 0.3907(2) 0.97457(19)
N5 N 0.3354(3) 0.2642(2) 1.08522(19)
N6 N 0.3334(3) 0.2518(2) 1.20241(19)
N7 N 0.7106(3) 0.5220(2) 1.73618(19)
N8 N 0.8535(3) 0.6293(2) 1.8130(2)
N9 N -1.9575(3) -0.1756(3) -0.0210(2)
N10 N -1.8485(3) -0.1015(2) 0.0924(2)
N11 N -1.1556(3) 0.1471(2) 0.4004(2)
N12 N -1.0038(3) 0.1825(2) 0.4718(2)
O1 O 0.3053(2) 0.24689(19) 0.80145(15)
O2 O 0.3041(2) 0.19645(18) 0.90051(16)
O3 O 0.1149(2) -0.1296(2) 0.8292(2)
O4 O -0.0507(2) -0.1812(2) 0.77595(19)
O5 O -0.0081(2) 0.0795(2) 0.58081(16)
O6 O -0.1177(2) -0.05266(19) 0.57624(16)
O7 O -0.5127(2) 0.54247(18) 0.89184(16)
O8 O -0.5591(2) 0.65736(19) 0.95861(16)
O9 O -0.8721(3) 0.6883(2) 0.8644(2)
O10 O -0.9294(3) 0.6343(2) 0.7358(2)
O11 O -0.8114(3) 0.3376(3) 0.5811(3)
O12 O -0.8367(3) 0.2802(2) 0.6694(2)
O13 O 0.4752(2) 0.38074(18) 0.89585(16)
Cd1 Cd -0.87661(2) 0.168189(19) 0.543917(16)
Cd2 Cd 0.39515(2) 0.331154(19) 0.994284(16)
Cd3 Cd -0.99439(2) 0.74324(2) 0.845044(18)
N8_2 N -1.1465(3) 0.6293(2) 0.8130(2)
N9_2 N -0.9575(3) 0.8244(3) 0.9790(2)
O3_2 O -0.8851(2) 0.8704(2) 0.8292(2)
O4_2 O -1.0507(2) 0.8188(2) 0.77595(19)
O5_2 O -1.0081(2) 0.0795(2) 0.58081(16)
O6A O -0.8823(2) 0.05266(19) 0.42376(16)
O7A O 0.5127(2) 0.45753(18) 1.10816(16)
O8A O 0.5591(2) 0.34264(19) 1.04139(16)
Cd1_2 Cd 0.12339(2) 0.168189(19) 0.543917(16)
Cd1A Cd -0.12339(2) -0.168189(19) 0.456083(16)
Cd2A Cd -0.39515(2) 0.668846(19) 1.005716(16)
Cd3_2 Cd -1.99439(2) -0.25676(2) -0.154956(18)
Cd3_3 Cd 0.00561(2) -0.25676(2) 0.845044(18)
Cd3_4 Cd 1.00561(2) 0.74324(2) 1.845044(18)
O14 O -1.0626(5) 0.5528(4) 0.5938(4)
O15 O -1.0199(18) 0.4266(16) 0.5250(15)
loop_
_geom_bond_atom_site_label_1
_geom_bond_atom_site_label_2
_geom_bond_site_symmetry_1
_geom_bond_site_symmetry_2
C1 H1 1_555 1_555
C2 C1 1_555 1_555
H2 C2 1_555 1_555
C3 H3 1_555 1_555
C4 C5 1_555 1_555
C5 H4 1_555 1_555
C6 C5 1_555 1_555
C7 C6 1_555 1_555
C8 C7 1_555 1_555
H5 C8 1_555 1_555
C9 C4 1_555 1_555
H6 C9 1_555 1_555
C10 C7 1_555 1_555
C11 C10 1_555 1_555
C12 C6 1_555 1_555
C13 C12 1_555 1_555
H7 C13 1_555 1_555
H8 C13 1_555 1_555
H9 C13 1_555 1_555
C14 C12 1_555 1_555
H10 C14 1_555 1_555
H11 C14 1_555 1_555
H12 C14 1_555 1_555
C15 C11 1_555 1_555
H13 C15 1_555 1_555
C16 C15 1_555 1_555
C17 C16 1_555 1_555
H14 C17 1_555 1_555
C18 C10 1_555 1_555
H15 C18 1_555 1_555
C19 H16 1_555 1_555
C20 C19 1_555 1_555
H17 C20 1_555 1_555
C21 H18 1_555 1_555
C22 C23 1_555 1_555
C23 C24 1_555 1_555
C24 H19 1_555 1_555
C25 C24 1_555 1_555
C26 C25 1_555 1_555
C27 C25 1_555 1_555
H20 C27 1_555 1_555
C28 C27 1_555 1_555
C29 C23 1_555 1_555
H21 C29 1_555 1_555
C30 C28 1_555 1_555
C31 C32 1_555 1_555
C32 C33 1_555 1_555
C33 H22 1_555 1_555
C34 C33 1_555 1_555
C35 C34 1_555 1_555
H23 C35 1_555 1_555
C36 C35 1_555 1_555
C37 C32 1_555 1_555
H24 C37 1_555 1_555
C38 C34 1_555 1_555
C39 C36 1_555 1_555
C40 H25 1_555 1_555
C41 C40 1_555 1_555
H26 C41 1_555 1_555
C42 H27 1_555 1_555
C43 C44 1_555 1_555
C44 H28 1_555 1_555
C45 C44 1_555 1_555
C46 C45 1_555 1_555
C47 C46 1_555 1_555
H29 C47 1_555 1_555
C48 C43 1_555 1_555
H30 C48 1_555 1_555
C49 C46 1_555 1_555
C50 C49 1_555 1_555
C51 C45 1_555 1_555
C52 C51 1_555 1_555
H31 C52 1_555 1_555
H32 C52 1_555 1_555
H33 C52 1_555 1_555
C53 C51 1_555 1_555
H34 C53 1_555 1_555
H35 C53 1_555 1_555
H36 C53 1_555 1_555
C54 C50 1_555 1_555
H37 C54 1_555 1_555
C55 C54 1_555 1_555
C56 C55 1_555 1_555
H38 C56 1_555 1_555
C57 C49 1_555 1_555
H39 C57 1_555 1_555
C58 H40 1_555 1_555
C59 C58 1_555 1_555
H41 C59 1_555 1_555
C60 H42 1_555 1_555
C61 C62 1_555 1_555
C62 H43 1_555 1_555
C63 C62 1_555 1_555
H44 C63 1_555 1_555
C64 C63 1_555 1_555
C65 C64 1_555 1_555
C66 C61 1_555 1_555
H45 C66 1_555 1_555
C67 C65 1_555 1_555
C68 C67 1_555 1_555
H46 C68 1_555 1_555
H47 C68 1_555 1_555
H48 C68 1_555 1_555
C69 C67 1_555 1_555
H49 C69 1_555 1_555
H50 C69 1_555 1_555
H51 C69 1_555 1_555
C70 C67 1_555 1_555
C71 C64 1_555 1_555
C72 C71 1_555 1_555
H52 C72 1_555 1_555
C73 C72 1_555 1_555
H53 C73 1_555 1_555
C74 C73 1_555 1_555
C75 C70 1_555 1_555
H54 C75 1_555 1_555
C76 H55 1_555 1_555
C77 H56 1_555 1_555
C78 C77 1_555 1_555
H57 C78 1_555 1_555
C79 H58 1_555 1_555
C80 H59 1_555 1_555
C81 C80 1_555 1_555
H60 C81 1_555 1_555
N1 C2 1_555 1_555
N2 C1 1_555 1_555
N3 C16 1_555 1_555
N4 C20 1_555 1_555
N5 C58 1_555 1_555
N6 C59 1_555 1_555
N7 C74 1_555 1_555
N8 C76 1_555 1_555
N9 C79 1_555 1_555
N10 C55 1_555 1_555
N11 C41 1_555 1_555
N12 C40 1_555 1_555
O1 C30 1_555 1_555
O2 C30 1_555 1_555
O3 C26 1_555 1_555
O4 C26 1_555 1_555
O5 C22 1_555 1_555
O6 C22 1_555 1_555
O7 C39 1_555 1_555
O8 C39 1_555 1_555
O9 C38 1_555 1_555
O10 C38 1_555 1_555
O11 C31 1_555 1_555
O12 C31 1_555 1_555
O13 Cd2 1_555 1_555
Cd1 N1 1_555 1_555
Cd2 N4 1_555 1_555
Cd3 O9 1_555 1_555
N8_2 Cd3 1_555 1_555
N9_2 Cd3 1_555 1_555
O3_2 Cd3 1_555 1_555
O4_2 Cd3 1_555 1_555
O5_2 Cd1 1_555 1_555
O6A Cd1 1_555 1_555
O7A Cd2 1_555 1_555
O8A Cd2 1_555 1_555
Cd1_2 O5 1_555 1_555
Cd1A O6 1_555 1_555
Cd2A O7 1_555 1_555
Cd3_2 N9 1_555 1_555
Cd3_3 O3 1_555 1_555
Cd3_4 N8 1_555 1_555
C3 N1 1_555 1_555
C3 N2 1_555 1_555
C4 N2 1_555 1_555
C8 C9 1_555 1_555
C11 C12 1_555 1_555
C17 C18 1_555 1_555
C19 N3 1_555 1_555
C21 N3 1_555 1_555
C21 N4 1_555 1_555
C28 C29 1_555 1_555
C36 C37 1_555 1_555
C42 N11 1_555 1_555
C42 N12 1_555 1_555
C43 N11 1_555 1_555
C47 C48 1_555 1_555
C50 C51 1_555 1_555
C56 C57 1_555 1_555
C60 N5 1_555 1_555
C60 N6 1_555 1_555
C61 N6 1_555 1_555
C65 C66 1_555 1_555
C70 C71 1_555 1_555
C74 C75 1_555 1_555
C76 N7 1_555 1_555
C77 N7 1_555 1_555
C78 N8 1_555 1_555
C79 N10 1_555 1_555
C80 N9 1_555 1_555
C81 N10 1_555 1_555
N5 Cd2 1_555 1_555
N12 Cd1 1_555 1_555
O2 Cd2 1_555 1_555
O4 Cd3_3 1_555 1_555
O8 Cd2A 1_555 1_555
O10 Cd3 1_555 1_555
O11 Cd1 1_555 1_555
O12 Cd1 1_555 1_555

#END
