
#######################################################################
#
#                 Cambridge Crystallographic Data Centre
#                                CCDC 
#
#######################################################################
#
# If this CIF has been generated from an entry in the Cambridge 
# Structural Database, then it will include bibliographic, chemical, 
# crystal, experimental, refinement or atomic coordinate data resulting 
# from the CCDC's data processing and validation procedures.
#
#######################################################################

data_GIVCUK
_symmetry_cell_setting           monoclinic
_symmetry_space_group_name_H-M   'P 21/a'
_symmetry_Int_Tables_number      14
_space_group_name_Hall           '-P 2yab'
loop_
_symmetry_equiv_pos_site_id
_symmetry_equiv_pos_as_xyz
1 x,y,z
2 1/2-x,1/2+y,-z
3 -x,-y,-z
4 1/2+x,1/2-y,z
_cell_length_a                   8.31089(9)
_cell_length_b                   12.15064(12)
_cell_length_c                   8.06761(9)
_cell_angle_alpha                90
_cell_angle_beta                 106.7228(8)
_cell_angle_gamma                90
_cell_volume                     780.234
loop_
_atom_site_label
_atom_site_type_symbol
_atom_site_fract_x
_atom_site_fract_y
_atom_site_fract_z
Mg1 Mg 0.50000 0.50000 0.00000
O1 O 0.3958(6) 0.4878(3) 0.2029(6)
O2 O 0.2807(6) 0.4329(3) -0.1337(6)
O3 O 0.0936(6) 0.1612(4) 0.0412(6)
C1 C 0.2546(7) 0.4278(6) 0.3932(6)
H1 H 0.1717(7) 0.3622(6) 0.4084(6)
H2 H 0.3685(7) 0.4259(6) 0.5004(6)
H3 H 0.1926(7) 0.5063(6) 0.3912(6)
C2 C 0.2984(8) 0.4121(5) 0.2247(6)
C3 C 0.2221(9) 0.3346(4) 0.0931(5)
C4 C 0.1965(8) 0.3598(6) -0.0830(5)
C5 C 0.0654(7) 0.2980(5) -0.2223(7)
H4 H 0.0028(7) 0.2385(5) -0.1623(7)
H5 H 0.1261(7) 0.2558(5) -0.3063(7)
H6 H -0.0261(7) 0.3557(5) -0.2976(7)
C6 C 0.1869(10) 0.2226(4) 0.1441(6)
C7 C 0.2526(8) 0.1772(5) 0.3284(6)
H7 H 0.3341(8) 0.2375(5) 0.4102(6)
H8 H 0.1477(8) 0.1599(5) 0.3787(6)
H9 H 0.3224(8) 0.1022(5) 0.3267(6)
O1B O 0.6042(6) 0.5122(3) -0.2029(6)
O2B O 0.7193(6) 0.5671(3) 0.1337(6)
O3B O 0.9064(6) 0.8388(4) -0.0412(6)
C1B C 0.7454(7) 0.5722(6) -0.3932(6)
H1B H 0.8283(7) 0.6378(6) -0.4084(6)
H2B H 0.6315(7) 0.5741(6) -0.5004(6)
H3B H 0.8074(7) 0.4937(6) -0.3912(6)
C2B C 0.7016(8) 0.5879(5) -0.2247(6)
C3B C 0.7779(9) 0.6654(4) -0.0931(5)
C4B C 0.8035(8) 0.6402(6) 0.0830(5)
C5B C 0.9346(7) 0.7020(5) 0.2223(7)
H4B H 0.9972(7) 0.7615(5) 0.1623(7)
H5B H 0.8739(7) 0.7442(5) 0.3063(7)
H6B H 1.0261(7) 0.6443(5) 0.2976(7)
C6B C 0.8131(10) 0.7774(4) -0.1441(6)
C7B C 0.7474(8) 0.8228(5) -0.3284(6)
H7B H 0.6659(8) 0.7625(5) -0.4102(6)
H8B H 0.8523(8) 0.8401(5) -0.3787(6)
H9B H 0.6776(8) 0.8978(5) -0.3267(6)
O3A O 0.4064(6) 0.6612(4) -0.0412(6)
O3C O 0.5936(6) 0.3388(4) 0.0412(6)
Mg1A Mg 0.00000 0.00000 0.00000
Mg1A_2 Mg 1.00000 1.00000 0.00000
loop_
_geom_bond_atom_site_label_1
_geom_bond_atom_site_label_2
_geom_bond_site_symmetry_1
_geom_bond_site_symmetry_2
Mg1 O1 1_555 1_555
O1 C2 1_555 1_555
O2 Mg1 1_555 1_555
O3 C6 1_555 1_555
C1 H1 1_555 1_555
H2 C1 1_555 1_555
H3 C1 1_555 1_555
C2 C1 1_555 1_555
C3 C2 1_555 1_555
C4 O2 1_555 1_555
C5 C4 1_555 1_555
H4 C5 1_555 1_555
H5 C5 1_555 1_555
H6 C5 1_555 1_555
C6 C3 1_555 1_555
C7 C6 1_555 1_555
H7 C7 1_555 1_555
H8 C7 1_555 1_555
H9 C7 1_555 1_555
O1B Mg1 1_555 1_555
O2B Mg1 1_555 1_555
O3B C6B 1_555 1_555
C1B H1B 1_555 1_555
H2B C1B 1_555 1_555
H3B C1B 1_555 1_555
C2B O1B 1_555 1_555
C3B C2B 1_555 1_555
C4B O2B 1_555 1_555
C5B C4B 1_555 1_555
H4B C5B 1_555 1_555
H5B C5B 1_555 1_555
H6B C5B 1_555 1_555
C6B C3B 1_555 1_555
C7B C6B 1_555 1_555
H7B C7B 1_555 1_555
H8B C7B 1_555 1_555
H9B C7B 1_555 1_555
O3A Mg1 1_555 1_555
O3C Mg1 1_555 1_555
Mg1A O3 1_555 1_555
Mg1A_2 O3B 1_555 1_555
C3 C4 1_555 1_555
C1B C2B 1_555 1_555
C3B C4B 1_555 1_555

#END
