
#######################################################################
#
#                 Cambridge Crystallographic Data Centre
#                                CCDC 
#
#######################################################################
#
# If this CIF has been generated from an entry in the Cambridge 
# Structural Database, then it will include bibliographic, chemical, 
# crystal, experimental, refinement or atomic coordinate data resulting 
# from the CCDC's data processing and validation procedures.
#
#######################################################################

data_GIVDUL
_symmetry_cell_setting           tetragonal
_symmetry_space_group_name_H-M   'I 41/a'
_symmetry_Int_Tables_number      88
_space_group_name_Hall           '-I 4ad'
loop_
_symmetry_equiv_pos_site_id
_symmetry_equiv_pos_as_xyz
1 x,y,z
2 3/4-y,1/4+x,1/4+z
3 1/2+x,1/2+y,1/2+z
4 1/4-y,3/4+x,3/4+z
5 1/4+y,1/4-x,1/4+z
6 1/2-x,-y,1/2+z
7 3/4+y,3/4-x,3/4+z
8 -x,1/2-y,z
9 -x,-y,-z
10 1/4+y,3/4-x,3/4-z
11 1/2-x,1/2-y,1/2-z
12 3/4+y,1/4-x,1/4-z
13 3/4-y,3/4+x,3/4-z
14 1/2+x,y,1/2-z
15 1/4-y,1/4+x,1/4-z
16 x,1/2+y,-z
_cell_length_a                   17.3064(8)
_cell_length_b                   17.3064(8)
_cell_length_c                   18.5975(16)
_cell_angle_alpha                90
_cell_angle_beta                 90
_cell_angle_gamma                90
_cell_volume                     5570.16
loop_
_atom_site_label
_atom_site_type_symbol
_atom_site_fract_x
_atom_site_fract_y
_atom_site_fract_z
I1 I 0.62767(3) 0.70682(3) 0.54699(3)
Cu1 Cu 0.48392(7) 0.67574(7) 0.56850(6)
N1 N 0.4312(4) 0.6024(3) 0.5039(3)
N2 N 0.3560(4) 0.5818(4) 0.5207(4)
C1 C 0.5212(6) 0.5694(6) 0.4057(5)
H1 H 0.5583 0.5969 0.4352
H2 H 0.5420 0.5185 0.3956
C2 C 0.2559(7) 0.4940(8) 0.4771(9)
H3 H 0.2611 0.4385 0.4716
H4 H 0.2321 0.5047 0.5233
O1 O 0.5101(11) 0.6106(10) 0.3391(9)
H5 H 0.5515 0.6140 0.3178
O2 O 0.2119(12) 0.5251(12) 0.4212(9)
H6 H 0.1686 0.5059 0.4217
C3 C 0.4483(5) 0.5616(4) 0.4452(4)
C4 C 0.3325(5) 0.5328(5) 0.4713(5)
N3 N 0.3883(4) 0.5171(4) 0.4245(4)
Cu2 Cu 0.30354(8) 0.62569(8) 0.59880(7)
I1K I 0.45682(3) 0.62233(3) 0.70301(3)
I1G I 0.37233(3) 0.79318(3) 0.54699(3)
I1N I 0.54318(3) 0.87767(3) 0.70301(3)
Cu1N Cu 0.57426(7) 0.73392(7) 0.68150(6)
Cu1G Cu 0.51608(7) 0.82426(7) 0.56850(6)
Cu1K Cu 0.42574(7) 0.76608(7) 0.68150(6)
N1K N 0.3524(3) 0.8188(4) 0.7461(3)
N1N N 0.6476(3) 0.6812(4) 0.7461(3)
N1G N 0.5688(4) 0.8976(3) 0.5039(3)
N2K N 0.3318(4) 0.8940(4) 0.7293(4)
N2N N 0.6682(4) 0.6060(4) 0.7293(4)
N2G N 0.6440(4) 0.9182(4) 0.5207(4)
C1K C 0.3194(6) 0.7288(6) 0.8443(5)
C1N C 0.6806(6) 0.7712(6) 0.8443(5)
C1G C 0.4788(6) 0.9306(6) 0.4057(5)
H1K H 0.3469 0.6917 0.8148
H1N H 0.6531 0.8083 0.8148
H1G H 0.4417 0.9031 0.4352
H2K H 0.2685 0.7080 0.8544
H2N H 0.7315 0.7920 0.8544
H2G H 0.4580 0.9815 0.3956
C2K C 0.2440(8) 0.9941(7) 0.7729(9)
C2N C 0.7560(8) 0.5059(7) 0.7729(9)
C2G C 0.7441(7) 1.0060(8) 0.4771(9)
H3G H 0.7389 1.0615 0.4716
H3K H 0.1885 0.9889 0.7784
H3N H 0.8115 0.5111 0.7784
H4G H 0.7679 0.9953 0.5233
H4K H 0.2547 1.0179 0.7267
H4N H 0.7453 0.4821 0.7267
O1K O 0.3606(10) 0.7399(11) 0.9109(9)
O1N O 0.6394(10) 0.7601(11) 0.9109(9)
O1G O 0.4899(11) 0.8894(10) 0.3391(9)
H5G H 0.4485 0.8860 0.3178
H5K H 0.3640 0.6985 0.9322
H5N H 0.6360 0.8015 0.9322
O2G O 0.7881(12) 0.9749(12) 0.4212(9)
O2K O 0.2751(12) 1.0381(12) 0.8288(9)
O2N O 0.7249(12) 0.4619(12) 0.8288(9)
H6K H 0.2559 1.0814 0.8283
H6N H 0.7441 0.4186 0.8283
H6G H 0.8314 0.9941 0.4217
C3K C 0.3116(4) 0.8017(5) 0.8048(4)
C3N C 0.6884(4) 0.6983(5) 0.8048(4)
C3G C 0.5517(5) 0.9384(4) 0.4452(4)
C4K C 0.2828(5) 0.9175(5) 0.7787(5)
C4N C 0.7172(5) 0.5825(5) 0.7787(5)
C4G C 0.6675(5) 0.9672(5) 0.4713(5)
N3A N 0.2329(4) 0.6383(4) 0.6745(4)
N3K N 0.2671(4) 0.8617(4) 0.8255(4)
N3N N 0.7329(4) 0.6383(4) 0.8255(4)
N3G N 0.6117(4) 0.9829(4) 0.4245(4)
N3D N 0.7671(4) 0.8617(4) 0.6745(4)
N3O N 0.3883(4) 1.0171(4) 0.5755(4)
N3H N 0.6117(4) 0.4829(4) 0.5755(4)
Cu2F Cu 0.37569(8) 0.44646(8) 0.34880(7)
Cu2K Cu 0.37569(8) 0.94646(8) 0.65120(7)
Cu2N Cu 0.62431(8) 0.55354(8) 0.65120(7)
Cu2G Cu 0.69646(8) 0.87431(8) 0.59880(7)
Cu2J Cu 0.19646(8) 0.87431(8) 0.90120(7)
Cu2M Cu 0.80354(8) 0.62569(8) 0.90120(7)
Cu2C Cu 0.62431(8) 1.05354(8) 0.34880(7)
loop_
_geom_bond_atom_site_label_1
_geom_bond_atom_site_label_2
_geom_bond_site_symmetry_1
_geom_bond_site_symmetry_2
I1 Cu1 1_555 1_555
Cu1 N1 1_555 1_555
N1 N2 1_555 1_555
N2 C4 1_555 1_555
C1 H1 1_555 1_555
H2 C1 1_555 1_555
C2 H3 1_555 1_555
H4 C2 1_555 1_555
O1 C1 1_555 1_555
H5 O1 1_555 1_555
O2 C2 1_555 1_555
H6 O2 1_555 1_555
C3 N1 1_555 1_555
C4 C2 1_555 1_555
N3 C3 1_555 1_555
Cu2 N2 1_555 1_555
I1K Cu1 1_555 1_555
I1G Cu1 1_555 1_555
I1N Cu1N 1_555 1_555
Cu1N I1 1_555 1_555
Cu1G I1 1_555 1_555
Cu1K Cu1 1_555 1_555
N1K Cu1K 1_555 1_555
N1N Cu1N 1_555 1_555
N1G Cu1G 1_555 1_555
N2K N1K 1_555 1_555
N2N N1N 1_555 1_555
N2G N1G 1_555 1_555
C1K H1K 1_555 1_555
C1N H1N 1_555 1_555
C1G H1G 1_555 1_555
H2K C1K 1_555 1_555
H2N C1N 1_555 1_555
H2G C1G 1_555 1_555
C2K H3K 1_555 1_555
C2N H3N 1_555 1_555
C2G H3G 1_555 1_555
H4G C2G 1_555 1_555
H4K C2K 1_555 1_555
H4N C2N 1_555 1_555
O1K C1K 1_555 1_555
O1N C1N 1_555 1_555
O1G C1G 1_555 1_555
H5G O1G 1_555 1_555
H5K O1K 1_555 1_555
H5N O1N 1_555 1_555
O2G C2G 1_555 1_555
O2K C2K 1_555 1_555
O2N C2N 1_555 1_555
H6K O2K 1_555 1_555
H6N O2N 1_555 1_555
H6G O2G 1_555 1_555
C3K N1K 1_555 1_555
C3N N1N 1_555 1_555
C3G N1G 1_555 1_555
C4K N2K 1_555 1_555
C4N N2N 1_555 1_555
C4G N2G 1_555 1_555
N3A Cu2 1_555 1_555
N3K C3K 1_555 1_555
N3N C3N 1_555 1_555
N3G C3G 1_555 1_555
N3D Cu2G 1_555 1_555
N3O Cu2K 1_555 1_555
N3H Cu2N 1_555 1_555
Cu2F N3 1_555 1_555
Cu2K N2K 1_555 1_555
Cu2N N2N 1_555 1_555
Cu2G N2G 1_555 1_555
Cu2J N3K 1_555 1_555
Cu2M N3N 1_555 1_555
Cu2C N3G 1_555 1_555
Cu1 Cu1N 1_555 1_555
Cu1 Cu1G 1_555 1_555
C1 C3 1_555 1_555
C4 N3 1_555 1_555
I1K Cu1N 1_555 1_555
I1K Cu1K 1_555 1_555
I1G Cu1G 1_555 1_555
I1G Cu1K 1_555 1_555
I1N Cu1G 1_555 1_555
I1N Cu1K 1_555 1_555
Cu1N Cu1G 1_555 1_555
Cu1N Cu1K 1_555 1_555
Cu1G Cu1K 1_555 1_555
C1K C3K 1_555 1_555
C1N C3N 1_555 1_555
C1G C3G 1_555 1_555
C2K C4K 1_555 1_555
C2N C4N 1_555 1_555
C2G C4G 1_555 1_555
C4K N3K 1_555 1_555
C4N N3N 1_555 1_555
C4G N3G 1_555 1_555

#END
