
#######################################################################
#
#                 Cambridge Crystallographic Data Centre
#                                CCDC 
#
#######################################################################
#
# If this CIF has been generated from an entry in the Cambridge 
# Structural Database, then it will include bibliographic, chemical, 
# crystal, experimental, refinement or atomic coordinate data resulting 
# from the CCDC's data processing and validation procedures.
#
#######################################################################

data_GIVQAF
_symmetry_cell_setting           monoclinic
_symmetry_space_group_name_H-M   'C 2/c'
_symmetry_Int_Tables_number      15
_space_group_name_Hall           '-C 2yn'
loop_
_symmetry_equiv_pos_site_id
_symmetry_equiv_pos_as_xyz
1 x,y,z
2 -x,y,1/2-z
3 1/2+x,1/2+y,z
4 1/2-x,1/2+y,1/2-z
5 -x,-y,-z
6 x,-y,1/2+z
7 1/2-x,1/2-y,-z
8 1/2+x,1/2-y,1/2+z
_cell_length_a                   15.720(3)
_cell_length_b                   16.120(3)
_cell_length_c                   13.476(3)
_cell_angle_alpha                90
_cell_angle_beta                 116.42(3)
_cell_angle_gamma                90
_cell_volume                     3058.24
loop_
_atom_site_label
_atom_site_type_symbol
_atom_site_fract_x
_atom_site_fract_y
_atom_site_fract_z
Cd1 Cd -0.545576(12) -0.024372(11) 0.105928(16)
N1 N -0.68949(16) 0.03598(15) -0.01729(19)
O1 O -0.45847(13) 0.07287(12) 0.06701(16)
O2 O -0.40989(15) 0.06141(14) 0.24710(18)
O3 O -0.07159(15) 0.37543(13) 0.31601(18)
O4 O -0.13456(15) 0.38157(14) 0.13090(18)
C1 C -0.32477(17) 0.15385(15) 0.1844(2)
C2 C -0.34806(18) 0.21895(17) 0.1112(2)
H1 H -0.4093 0.2217 0.0518
C3 C -0.28191(19) 0.28139(17) 0.1237(2)
H2 H -0.3001 0.3261 0.0737
C4 C -0.19082(18) 0.27839(16) 0.2080(2)
C5 C -0.16170(18) 0.20835(16) 0.2806(2)
C6 C -0.23001(17) 0.14605(15) 0.2712(2)
C7 C -0.19949(19) 0.07625(17) 0.3430(2)
H3 H -0.2438 0.0355 0.3385
C8 C -0.1063(2) 0.06768(18) 0.4186(2)
H4 H -0.0873 0.0214 0.4659
C9 C -0.0385(2) 0.1280(2) 0.4261(2)
H5 H 0.0256 0.1208 0.4769
C10 C -0.06548(19) 0.19636(18) 0.3600(2)
H6 H -0.0198 0.2365 0.3669
C11 C -0.40159(18) 0.09141(15) 0.1671(2)
C12 C -0.12536(18) 0.35123(16) 0.2208(2)
C13 C -0.7026(2) 0.1167(2) -0.0444(3)
H7 H -0.6514 0.1535 -0.0090
C14 C -0.7885(2) 0.1482(2) -0.1224(3)
H8 H -0.7950 0.2054 -0.1382
C15 C -0.8648(2) 0.0956(2) -0.1771(2)
C16 C -0.8513(2) 0.0124(2) -0.1478(2)
H9 H -0.9014 -0.0256 -0.1819
C17 C -0.7644(2) -0.01436(18) -0.0687(2)
H10 H -0.7571 -0.0709 -0.0497
C18 C -0.9599(2) 0.1237(3) -0.2682(3)
H11 H -0.9779 0.0869 -0.3324
H12 H -0.9530 0.1799 -0.2916
N1A N -1.31051(16) 0.03598(15) -0.48271(19)
C13A C -1.2974(2) 0.1167(2) -0.4556(3)
H7A H -1.3486 0.1535 -0.4910
C14A C -1.2115(2) 0.1482(2) -0.3776(3)
H8A H -1.2050 0.2054 -0.3618
C15A C -1.1352(2) 0.0956(2) -0.3229(2)
C16A C -1.1487(2) 0.0124(2) -0.3522(2)
H9A H -1.0986 -0.0256 -0.3181
C17A C -1.2356(2) -0.01436(18) -0.4313(2)
H10A H -1.2429 -0.0709 -0.4503
C18A C -1.0401(2) 0.1237(3) -0.2318(3)
H11A H -1.0221 0.0869 -0.1676
H12A H -1.0470 0.1799 -0.2084
Cd1A Cd -1.454424(12) -0.024372(11) -0.605928(16)
O1A O -1.54153(13) 0.07287(12) -0.56701(16)
O2A O -1.59011(15) 0.06141(14) -0.74710(18)
O3A O -1.92841(15) 0.37543(13) -0.81601(18)
O4A O -1.86544(15) 0.38157(14) -0.63090(18)
C1A C -1.67523(17) 0.15385(15) -0.6844(2)
C2A C -1.65194(18) 0.21895(17) -0.6112(2)
H1A H -1.5907 0.2217 -0.5518
C3A C -1.71809(19) 0.28139(17) -0.6237(2)
H2A H -1.6999 0.3261 -0.5737
C4A C -1.80918(18) 0.27839(16) -0.7080(2)
C5A C -1.83830(18) 0.20835(16) -0.7806(2)
C6A C -1.76999(17) 0.14605(15) -0.7712(2)
C7A C -1.80051(19) 0.07625(17) -0.8430(2)
H3A H -1.7562 0.0355 -0.8385
C8A C -1.8937(2) 0.06768(18) -0.9186(2)
H4A H -1.9127 0.0214 -0.9659
C9A C -1.9615(2) 0.1280(2) -0.9261(2)
H5A H -2.0256 0.1208 -0.9769
C10A C -1.93452(19) 0.19636(18) -0.8600(2)
H6A H -1.9802 0.2365 -0.8669
C11A C -1.59841(18) 0.09141(15) -0.6671(2)
C12A C -1.87464(18) 0.35123(16) -0.7208(2)
Cd1_2 Cd -1.545576(12) -0.024372(11) -0.894072(16)
Cd1A_2 Cd -0.454424(12) -0.024372(11) 0.394072(16)
Cd1B Cd -2.045576(12) 0.475628(11) -0.894072(16)
Cd1B_2 Cd -0.045576(12) 0.475628(11) 0.105928(16)
Cd1C Cd -1.954424(12) 0.475628(11) -0.605928(16)
Cd1C_2 Cd 0.045576(12) 0.475628(11) 0.394072(16)
Cd1D Cd -0.454424(12) 0.024372(11) -0.105928(16)
Cd1E Cd -1.545576(12) 0.024372(11) -0.394072(16)
O1D O -0.54153(13) -0.07287(12) -0.06701(16)
O1E O -1.45847(13) -0.07287(12) -0.43299(16)
O2_2 O -1.40989(15) 0.06141(14) -0.75290(18)
O2A_2 O -0.59011(15) 0.06141(14) 0.25290(18)
O3B O -1.57159(15) -0.12457(13) -0.68399(18)
O3C O -0.42841(15) -0.12457(13) 0.18399(18)
O4B O -0.63456(15) -0.11843(14) 0.13090(18)
O4C O -1.36544(15) -0.11843(14) -0.63090(18)
loop_
_geom_bond_atom_site_label_1
_geom_bond_atom_site_label_2
_geom_bond_site_symmetry_1
_geom_bond_site_symmetry_2
Cd1 N1 1_555 1_555
N1 C13 1_555 1_555
O1 Cd1 1_555 1_555
O2 Cd1 1_555 1_555
O3 C12 1_555 1_555
O4 C12 1_555 1_555
C1 C2 1_555 1_555
C2 H1 1_555 1_555
C3 C2 1_555 1_555
H2 C3 1_555 1_555
C4 C3 1_555 1_555
C5 C4 1_555 1_555
C6 C1 1_555 1_555
C7 C6 1_555 1_555
H3 C7 1_555 1_555
C8 C7 1_555 1_555
H4 C8 1_555 1_555
C9 C8 1_555 1_555
H5 C9 1_555 1_555
C10 C5 1_555 1_555
H6 C10 1_555 1_555
C11 O1 1_555 1_555
C12 C4 1_555 1_555
C13 H7 1_555 1_555
C14 C13 1_555 1_555
H8 C14 1_555 1_555
C15 C14 1_555 1_555
C16 C15 1_555 1_555
H9 C16 1_555 1_555
C17 N1 1_555 1_555
H10 C17 1_555 1_555
C18 C15 1_555 1_555
H11 C18 1_555 1_555
H12 C18 1_555 1_555
N1A C13A 1_555 1_555
C13A H7A 1_555 1_555
C14A C13A 1_555 1_555
H8A C14A 1_555 1_555
C15A C14A 1_555 1_555
C16A C15A 1_555 1_555
H9A C16A 1_555 1_555
C17A N1A 1_555 1_555
H10A C17A 1_555 1_555
C18A C18 1_555 1_555
H11A C18A 1_555 1_555
H12A C18A 1_555 1_555
Cd1A N1A 1_555 1_555
O1A Cd1A 1_555 1_555
O2A Cd1A 1_555 1_555
O3A C12A 1_555 1_555
O4A C12A 1_555 1_555
C1A C2A 1_555 1_555
C2A H1A 1_555 1_555
C3A C2A 1_555 1_555
H2A C3A 1_555 1_555
C4A C3A 1_555 1_555
C5A C4A 1_555 1_555
C6A C1A 1_555 1_555
C7A C6A 1_555 1_555
H3A C7A 1_555 1_555
C8A C7A 1_555 1_555
H4A C8A 1_555 1_555
C9A C8A 1_555 1_555
H5A C9A 1_555 1_555
C10A C5A 1_555 1_555
H6A C10A 1_555 1_555
C11A O1A 1_555 1_555
C12A C4A 1_555 1_555
Cd1_2 O2A 1_555 1_555
Cd1A_2 O2 1_555 1_555
Cd1B O3A 1_555 1_555
Cd1B_2 O4 1_555 1_555
Cd1C O4A 1_555 1_555
Cd1C_2 O3 1_555 1_555
Cd1D O1 1_555 1_555
Cd1E O1A 1_555 1_555
O1D Cd1 1_555 1_555
O1E Cd1A 1_555 1_555
O2_2 Cd1A 1_555 1_555
O2A_2 Cd1 1_555 1_555
O3B Cd1A 1_555 1_555
O3C Cd1 1_555 1_555
O4B Cd1 1_555 1_555
O4C Cd1A 1_555 1_555
O2 C11 1_555 1_555
C1 C11 1_555 1_555
C5 C6 1_555 1_555
C9 C10 1_555 1_555
C16 C17 1_555 1_555
C15A C18A 1_555 1_555
C16A C17A 1_555 1_555
O2A C11A 1_555 1_555
C1A C11A 1_555 1_555
C5A C6A 1_555 1_555
C9A C10A 1_555 1_555
Cd1_2 O2_2 1_555 1_555
Cd1A_2 O2A_2 1_555 1_555
Cd1D O1D 1_555 1_555
Cd1E O1E 1_555 1_555

#END
