
#######################################################################
#
#                 Cambridge Crystallographic Data Centre
#                                CCDC 
#
#######################################################################
#
# If this CIF has been generated from an entry in the Cambridge 
# Structural Database, then it will include bibliographic, chemical, 
# crystal, experimental, refinement or atomic coordinate data resulting 
# from the CCDC's data processing and validation procedures.
#
#######################################################################

data_GIWBIZ
_symmetry_cell_setting           monoclinic
_symmetry_space_group_name_H-M   'C 2'
_symmetry_Int_Tables_number      5
_space_group_name_Hall           'C 2y'
loop_
_symmetry_equiv_pos_site_id
_symmetry_equiv_pos_as_xyz
1 x,y,z
2 -x,y,-z
3 1/2+x,1/2+y,z
4 1/2-x,1/2+y,-z
_cell_length_a                   16.572(5)
_cell_length_b                   7.211(5)
_cell_length_c                   12.222(5)
_cell_angle_alpha                90
_cell_angle_beta                 124.567(5)
_cell_angle_gamma                90
_cell_volume                     1202.7
loop_
_atom_site_label
_atom_site_type_symbol
_atom_site_fract_x
_atom_site_fract_y
_atom_site_fract_z
Zn1 Zn 1 0.20368(5) 1
S1 S 1.32839(12) 0.1987(9) 1.40467(18)
O1 O 0.9205(2) 0.2067(13) 1.0792(3)
O2 O 1.1268(2) 0.2137(14) 1.1877(3)
N1 N 1 -0.1095(15) 1
C1 C 1.2652(3) 0.2121(18) 1.5616(4)
H1 H 1.2262 0.216 1.5939
F1 F 0.8155(7) 0.324(3) 1.1718(11)
C2 C 1.2332(3) 0.210(2) 1.4168(5)
C3 C 1.0744(6) -0.1981(11) 1.0194(10)
H2 H 1.1283 -0.1321 1.0355
N2 N 1 -0.4913(17) 1
F2 F 0.9128(4) 0.233(3) 1.3556(5)
C4 C 0.9574(4) 0.200(2) 1.2020(5)
C5 C 1.1338(3) 0.2042(18) 1.2958(4)
C6 C 0.8797(5) 0.213(4) 1.2313(7)
C7 C 1.0535(4) 0.209(2) 1.3057(5)
H3 H 1.0671 0.2196 1.3905
F3 F 0.8307(9) 0.031(2) 1.1796(11)
C8 C 1.0756(8) -0.3829(15) 1.0169(13)
H4 H 1.1294 -0.4417 1.0269
C9 C 1.3701(5) 0.206(3) 1.6351(6)
H5 H 1.4088 0.1988 1.7274
C10 C 1.4097(5) 0.212(3) 1.5676(7)
H6 H 1.4768 0.2228 1.6073
C3A C 0.9256(6) -0.1981(11) 0.9806(10)
H2A H 0.8717 -0.1321 0.9645
C8A C 0.9244(8) -0.3829(15) 0.9831(13)
H4A H 0.8706 -0.4417 0.9731
S1A S 0.67161(12) 0.1987(9) 0.59533(18)
O1A O 1.0795(2) 0.2067(13) 0.9208(3)
O2A O 0.8732(2) 0.2137(14) 0.8123(3)
C1A C 0.7348(3) 0.2121(18) 0.4384(4)
H1A H 0.7738 0.216 0.4061
F1A F 1.1845(7) 0.324(3) 0.8282(11)
C2A C 0.7668(3) 0.210(2) 0.5832(5)
F2A F 1.0872(4) 0.233(3) 0.6444(5)
C4A C 1.0426(4) 0.200(2) 0.7980(5)
C5A C 0.8662(3) 0.2042(18) 0.7042(4)
C6A C 1.1203(5) 0.213(4) 0.7687(7)
C7A C 0.9465(4) 0.209(2) 0.6943(5)
H3A H 0.9329 0.2196 0.6095
F3A F 1.1693(9) 0.031(2) 0.8204(11)
C9A C 0.6299(5) 0.206(3) 0.3649(6)
H5A H 0.5912 0.1988 0.2726
C10A C 0.5903(5) 0.212(3) 0.4324(7)
H6A H 0.5232 0.2228 0.3927
Zn1_2 Zn 1 -0.79632(5) 1
N2_2 N 1 0.5087(17) 1
loop_
_geom_bond_atom_site_label_1
_geom_bond_atom_site_label_2
_geom_bond_site_symmetry_1
_geom_bond_site_symmetry_2
Zn1 O1 1_555 1_555
S1 C2 1_555 1_555
O1 C4 1_555 1_555
O2 Zn1 1_555 1_555
N1 Zn1 1_555 1_555
C1 H1 1_555 1_555
F1 C6 1_555 1_555
C2 C1 1_555 1_555
C3 N1 1_555 1_555
H2 C3 1_555 1_555
N2 C8 1_555 1_555
F2 C6 1_555 1_555
C4 C6 1_555 1_555
C5 O2 1_555 1_555
C6 F3 1_555 1_555
C7 C4 1_555 1_555
H3 C7 1_555 1_555
C8 C3 1_555 1_555
H4 C8 1_555 1_555
C9 C1 1_555 1_555
H5 C9 1_555 1_555
C10 S1 1_555 1_555
H6 C10 1_555 1_555
C3A N1 1_555 1_555
H2A C3A 1_555 1_555
C8A N2 1_555 1_555
H4A C8A 1_555 1_555
S1A C2A 1_555 1_555
O1A Zn1 1_555 1_555
O2A Zn1 1_555 1_555
C1A H1A 1_555 1_555
F1A C6A 1_555 1_555
C2A C1A 1_555 1_555
F2A C6A 1_555 1_555
C4A O1A 1_555 1_555
C5A O2A 1_555 1_555
C6A C4A 1_555 1_555
C7A C4A 1_555 1_555
H3A C7A 1_555 1_555
F3A C6A 1_555 1_555
C9A C1A 1_555 1_555
H5A C9A 1_555 1_555
C10A S1A 1_555 1_555
H6A C10A 1_555 1_555
Zn1_2 N2 1_555 1_555
N2_2 Zn1 1_555 1_555
C2 C5 1_555 1_555
C5 C7 1_555 1_555
C9 C10 1_555 1_555
C3A C8A 1_555 1_555
C2A C5A 1_555 1_555
C5A C7A 1_555 1_555
C9A C10A 1_555 1_555

#END
