
#######################################################################
#
#                 Cambridge Crystallographic Data Centre
#                                CCDC 
#
#######################################################################
#
# If this CIF has been generated from an entry in the Cambridge 
# Structural Database, then it will include bibliographic, chemical, 
# crystal, experimental, refinement or atomic coordinate data resulting 
# from the CCDC's data processing and validation procedures.
#
#######################################################################

data_GIWCAR
_symmetry_cell_setting           monoclinic
_symmetry_space_group_name_H-M   'C 2/c'
_symmetry_Int_Tables_number      15
_space_group_name_Hall           '-C 2yn'
loop_
_symmetry_equiv_pos_site_id
_symmetry_equiv_pos_as_xyz
1 x,y,z
2 1/2+x,1/2+y,z
3 -x,y,1/2-z
4 1/2-x,1/2+y,1/2-z
5 -x,-y,-z
6 1/2-x,1/2-y,-z
7 x,-y,1/2+z
8 1/2+x,1/2-y,1/2+z
_cell_length_a                   30.705(6)
_cell_length_b                   12.857(3)
_cell_length_c                   33.146(7)
_cell_angle_alpha                90
_cell_angle_beta                 116.457(3)
_cell_angle_gamma                90
_cell_volume                     11714.8
loop_
_atom_site_label
_atom_site_type_symbol
_atom_site_fract_x
_atom_site_fract_y
_atom_site_fract_z
P1 P 0.16312(4) -0.03361(11) 0.21417(4)
F1 F 0.11695(11) -0.0832(2) 0.21176(13)
F2 F 0.16551(16) -0.1135(3) 0.18031(13)
F3 F 0.15340(14) 0.0692(3) 0.19716(11)
F4 F 0.20175(17) -0.0602(4) 0.25654(15)
Ag1 Ag 0.21700(2) 0.20514(5) 0.226449(12)
Ga1 Ga 0.565089(13) 0.01709(3) 0.412391(12)
C1 C 0.50522(13) -0.1685(3) 0.36053(11)
H1 H 0.5330 -0.2123 0.3732
C2 C 0.45903(14) -0.2008(3) 0.32715(12)
H2 H 0.4503 -0.2680 0.3141
C3 C 0.42962(14) -0.1156(3) 0.31768(12)
H3 H 0.3964 -0.1121 0.2961
C4 C 0.45741(12) -0.0331(3) 0.34573(10)
C5 C 0.44202(12) 0.0680(3) 0.34796(11)
C6 C 0.46983(12) 0.1495(3) 0.37556(10)
C7 C 0.45355(13) 0.2493(3) 0.37988(11)
H4 H 0.4212 0.2748 0.3646
C8 C 0.49374(14) 0.3037(3) 0.41067(12)
H5 H 0.4944 0.3732 0.4206
C9 C 0.53294(14) 0.2354(3) 0.42396(11)
H6 H 0.5653 0.2528 0.4449
C10 C 0.39023(12) 0.0932(3) 0.31750(10)
C11 C 0.35182(13) 0.0444(3) 0.32135(11)
H7 H 0.3582 -0.0068 0.3440
C12 C 0.30465(13) 0.0704(3) 0.29244(12)
H8 H 0.2790 0.0352 0.2954
C13 C 0.32967(14) 0.1880(3) 0.25629(11)
H9 H 0.3218 0.2383 0.2331
C14 C 0.37851(13) 0.1671(3) 0.28363(11)
H10 H 0.4033 0.2024 0.2793
C15 C 0.03003(12) 0.5994(3) -0.02777(11)
H11 H 0.0080 0.6394 -0.0526
C16 C 0.03616(13) 0.6105(3) 0.01702(11)
H12 H 0.0196 0.6579 0.0273
C17 C 0.07039(13) 0.5402(3) 0.04219(12)
H13 H 0.0823 0.5291 0.0737
C18 C 0.08536(12) 0.4859(3) 0.01300(11)
C19 C 0.12129(12) 0.4100(3) 0.02416(11)
C20 C 0.13977(12) 0.3657(3) -0.00362(11)
C21 C 0.17594(14) 0.2877(3) 0.00754(13)
H14 H 0.1930 0.2556 0.0362
C22 C 0.18192(15) 0.2669(4) -0.02998(14)
H15 H 0.2037 0.2182 -0.0327
C23 C 0.14902(14) 0.3328(3) -0.06392(13)
H16 H 0.1454 0.3348 -0.0939
C24 C 0.14343(12) 0.3706(3) 0.07237(11)
C25 C 0.19102(13) 0.3929(3) 0.10158(12)
H17 H 0.2104 0.4348 0.0923
C26 C 0.21017(13) 0.3522(3) 0.14532(12)
H18 H 0.2428 0.3684 0.1658
C27 C 0.13884(14) 0.2716(3) 0.13054(12)
H19 H 0.1203 0.2283 0.1403
C28 C 0.11687(13) 0.3102(3) 0.08722(12)
H20 H 0.0837 0.2949 0.0679
C29 C 0.05088(14) 0.6386(4) 0.32911(12)
H21 H 0.0316 0.6888 0.3348
C30 C 0.06112(16) 0.6404(4) 0.29130(13)
H22 H 0.0510 0.6915 0.2682
C31 C 0.08842(16) 0.5540(4) 0.29492(13)
H23 H 0.1002 0.5325 0.2741
C32 C 0.09604(14) 0.5026(3) 0.33499(12)
C33 C 0.12268(14) 0.4117(3) 0.35195(12)
C34 C 0.13009(14) 0.3604(3) 0.39174(12)
C35 C 0.15941(17) 0.2716(4) 0.41108(15)
H24 H 0.1769 0.2330 0.3986
C36 C 0.15792(17) 0.2521(4) 0.45072(14)
H25 H 0.1746 0.1982 0.4715
C37 C 0.12718(14) 0.3266(3) 0.45482(12)
H26 H 0.1193 0.3297 0.4794
C38 C 0.14581(15) 0.3626(4) 0.32501(12)
C39 C 0.12942(18) 0.2687(4) 0.30307(15)
H27 H 0.1036 0.2327 0.3054
C40 C 0.15080(19) 0.2280(4) 0.27797(15)
H28 H 0.1395 0.1629 0.2635
C41 C 0.20195(16) 0.3641(4) 0.29289(15)
H29 H 0.2276 0.3981 0.2895
C42 C 0.18231(16) 0.4132(4) 0.31982(14)
H30 H 0.1941 0.4787 0.3337
N1 N 0.50486(10) -0.0693(2) 0.37191(8)
N2 N 0.51995(10) 0.1425(2) 0.40390(9)
N3 N 0.29325(10) 0.1418(2) 0.26070(9)
N4 N 0.05913(10) 0.5257(2) -0.03078(9)
N5 N 0.12353(10) 0.3923(2) -0.04886(9)
N6 N 0.18453(11) 0.2920(2) 0.15933(10)
N7 N 0.07191(10) 0.5572(2) 0.35542(9)
N8 N 0.11024(10) 0.3928(2) 0.42055(9)
N9 N 0.18661(14) 0.2754(3) 0.27285(12)
Ga1G Ga 0.065089(13) 0.48291(3) -0.087609(12)
Ga1A Ga 0.065089(13) 0.51709(3) 0.412391(12)
N4G N 0.55913(10) -0.0257(2) 0.46922(9)
N5G N 0.62353(10) 0.1077(2) 0.45114(9)
N7A N 0.57191(10) 0.0572(2) 0.35542(9)
N8A N 0.61024(10) -0.1072(2) 0.42055(9)
Ag2? Ag 0.23013(11) 0.2611(3) 0.23388(9)
loop_
_geom_bond_atom_site_label_1
_geom_bond_atom_site_label_2
_geom_bond_site_symmetry_1
_geom_bond_site_symmetry_2
Ag1 N3 1_555 1_555
Ga1 N1 1_555 1_555
C1 H1 1_555 1_555
C2 C1 1_555 1_555
H2 C2 1_555 1_555
C3 C2 1_555 1_555
H3 C3 1_555 1_555
C4 C3 1_555 1_555
C5 C4 1_555 1_555
C6 C5 1_555 1_555
C7 C6 1_555 1_555
H4 C7 1_555 1_555
C8 C7 1_555 1_555
H5 C8 1_555 1_555
C9 C8 1_555 1_555
H6 C9 1_555 1_555
C10 C5 1_555 1_555
C11 C10 1_555 1_555
H7 C11 1_555 1_555
C12 C11 1_555 1_555
H8 C12 1_555 1_555
C13 H9 1_555 1_555
C14 C10 1_555 1_555
H10 C14 1_555 1_555
C15 H11 1_555 1_555
C16 C15 1_555 1_555
H12 C16 1_555 1_555
C17 C16 1_555 1_555
H13 C17 1_555 1_555
C18 C17 1_555 1_555
C19 C18 1_555 1_555
C20 C19 1_555 1_555
C21 C20 1_555 1_555
H14 C21 1_555 1_555
C22 C21 1_555 1_555
H15 C22 1_555 1_555
C23 C22 1_555 1_555
H16 C23 1_555 1_555
C24 C19 1_555 1_555
C25 C24 1_555 1_555
H17 C25 1_555 1_555
C26 C25 1_555 1_555
H18 C26 1_555 1_555
C27 H19 1_555 1_555
C28 C24 1_555 1_555
H20 C28 1_555 1_555
C29 H21 1_555 1_555
C30 C29 1_555 1_555
H22 C30 1_555 1_555
C31 C30 1_555 1_555
H23 C31 1_555 1_555
C32 C31 1_555 1_555
C33 C32 1_555 1_555
C34 C33 1_555 1_555
C35 C34 1_555 1_555
H24 C35 1_555 1_555
C36 C35 1_555 1_555
H25 C36 1_555 1_555
C37 C36 1_555 1_555
H26 C37 1_555 1_555
C38 C33 1_555 1_555
C39 C38 1_555 1_555
H27 C39 1_555 1_555
C40 C39 1_555 1_555
H28 C40 1_555 1_555
C41 H29 1_555 1_555
C42 C38 1_555 1_555
H30 C42 1_555 1_555
N1 C1 1_555 1_555
N2 Ga1 1_555 1_555
N3 C12 1_555 1_555
N4 C15 1_555 1_555
N5 C20 1_555 1_555
N6 Ag1 1_555 1_555
N7 C29 1_555 1_555
N8 C34 1_555 1_555
N9 Ag1 1_555 1_555
P1 F1 1_555 1_555
F2 P1 1_555 1_555
F3 P1 1_555 1_555
F4 P1 1_555 1_555
Ga1G N4 1_555 1_555
Ga1A N7 1_555 1_555
N4G Ga1 1_555 1_555
N5G Ga1 1_555 1_555
N7A Ga1 1_555 1_555
N8A Ga1 1_555 1_555
C4 N1 1_555 1_555
C6 N2 1_555 1_555
C9 N2 1_555 1_555
C13 C14 1_555 1_555
C13 N3 1_555 1_555
C18 N4 1_555 1_555
C23 N5 1_555 1_555
C26 N6 1_555 1_555
C27 C28 1_555 1_555
C27 N6 1_555 1_555
C32 N7 1_555 1_555
C37 N8 1_555 1_555
C40 N9 1_555 1_555
C41 C42 1_555 1_555
C41 N9 1_555 1_555
N5 Ga1G 1_555 1_555
N8 Ga1A 1_555 1_555

#END
