
#######################################################################
#
#                 Cambridge Crystallographic Data Centre
#                                CCDC 
#
#######################################################################
#
# If this CIF has been generated from an entry in the Cambridge 
# Structural Database, then it will include bibliographic, chemical, 
# crystal, experimental, refinement or atomic coordinate data resulting 
# from the CCDC's data processing and validation procedures.
#
#######################################################################

data_GIWFUP
_symmetry_cell_setting           rhombohedral
_symmetry_space_group_name_H-M   'R -3'
_symmetry_Int_Tables_number      148
_space_group_name_Hall           '-R 3'
loop_
_symmetry_equiv_pos_site_id
_symmetry_equiv_pos_as_xyz
1 x,y,z
2 -y,x-y,z
3 -x+y,-x,z
4 2/3+x,1/3+y,1/3+z
5 2/3-y,1/3+x-y,1/3+z
6 2/3-x+y,1/3-x,1/3+z
7 1/3+x,2/3+y,2/3+z
8 1/3-y,2/3+x-y,2/3+z
9 1/3-x+y,2/3-x,2/3+z
10 -x,-y,-z
11 y,-x+y,-z
12 x-y,x,-z
13 1/3-x,2/3-y,2/3-z
14 1/3+y,2/3-x+y,2/3-z
15 1/3+x-y,2/3+x,2/3-z
16 2/3-x,1/3-y,1/3-z
17 2/3+y,1/3-x+y,1/3-z
18 2/3+x-y,1/3+x,1/3-z
_cell_length_a                   27.8521(18)
_cell_length_b                   27.8521(18)
_cell_length_c                   18.2583(10)
_cell_angle_alpha                90
_cell_angle_beta                 90
_cell_angle_gamma                120
_cell_volume                     12266.1
loop_
_atom_site_label
_atom_site_type_symbol
_atom_site_fract_x
_atom_site_fract_y
_atom_site_fract_z
Co1 Co 0.33818(3) 0.33659(3) 0.26517(5)
Co2 Co 0.02600(3) 0.41107(3) 0.24383(4)
C1 C 0.3797(3) 0.1223(3) 0.2308(4)
C2 C 0.3602(3) 0.1507(3) 0.2718(4)
H1 H 0.3376 0.1342 0.3122
C3 C 0.3751(3) 0.2049(3) 0.2513(4)
C4 C 0.4098(3) 0.2295(3) 0.1928(4)
H2 H 0.4203 0.2658 0.1801
C5 C 0.4293(3) 0.2006(3) 0.1526(4)
C6 C 0.4142(3) 0.1469(3) 0.1712(4)
H3 H 0.4270 0.1273 0.1439
C7 C 0.3653(3) 0.0654(3) 0.2536(4)
C8 C 0.3541(3) 0.2374(3) 0.2907(4)
C9 C 0.4821(4) 0.2071(4) 0.0437(5)
H4 H 0.4520 0.1716 0.0270
H5 H 0.5115 0.2019 0.0631
C10 C 0.5028(4) 0.2485(4) -0.0170(5)
C11 C 0.5593(5) 0.2902(4) -0.0162(5)
H6 H 0.5835 0.2905 0.0193
C12 C 0.5779(5) 0.3316(5) -0.0714(6)
H7 H 0.6151 0.3589 -0.0726
C13 C 0.5438(5) 0.3324(5) -0.1211(6)
H8 H 0.5573 0.3603 -0.1562
C14 C 0.4897(5) 0.2935(5) -0.1216(6)
H9 H 0.4659 0.2937 -0.1571
C15 C 0.4703(5) 0.2525(5) -0.0669(5)
H10 H 0.4326 0.2268 -0.0655
C16 C 0.2394(3) 0.4012(3) 0.2885(3)
C17 C 0.1889(3) 0.3979(3) 0.2767(3)
H11 H 0.1738 0.3912 0.2298
C18 C 0.1605(3) 0.4044(3) 0.3351(3)
C19 C 0.1830(3) 0.4143(3) 0.4042(4)
H12 H 0.1637 0.4176 0.4436
C20 C 0.2348(3) 0.4193(3) 0.4151(4)
C21 C 0.2626(3) 0.4127(3) 0.3577(3)
H13 H 0.2971 0.4158 0.3654
C22 C 0.2673(3) 0.3891(3) 0.2275(3)
C23 C 0.1051(3) 0.3975(3) 0.3238(3)
C24 C 0.2322(3) 0.4320(3) 0.5465(4)
H14 H 0.2496 0.4272 0.5897
H15 H 0.1943 0.4015 0.5448
C25 C 0.2314(4) 0.4849(4) 0.5535(4)
C26 C 0.2661(4) 0.5306(4) 0.5134(4)
H16 H 0.2900 0.5288 0.4793
C27 C 0.2659(4) 0.5812(4) 0.5236(5)
H17 H 0.2892 0.6127 0.4966
C28 C 0.2295(4) 0.5819(4) 0.5754(5)
H18 H 0.2287 0.6145 0.5826
C29 C 0.1956(4) 0.5371(4) 0.6154(5)
H19 H 0.1725 0.5393 0.6504
C30 C 0.1952(4) 0.4874(4) 0.6041(5)
H20 H 0.1707 0.4559 0.6303
O1 O 0.3354(2) 0.0437(2) 0.3079(3)
O2 O 0.3977(2) 0.3831(3) 0.1908(3)
H21 H 0.3972 0.4116 0.1682
H22 H 0.4247 0.3753 0.1806
O3 O 0.3839(2) 0.0406(2) 0.2145(3)
O4 O 0.3263(2) 0.2170(2) 0.3487(3)
O5 O 0.3668(2) 0.2837(2) 0.2651(3)
O6 O 0.4634(2) 0.2305(2) 0.0963(3)
O7 O 0.31177(19) 0.3902(2) 0.2380(3)
O8 O 0.2432(2) 0.3769(2) 0.1656(2)
O9 O 0.09051(18) 0.4012(2) 0.2594(2)
O10 O 0.07429(18) 0.3874(2) 0.3783(2)
O11 O 0.2613(2) 0.4300(2) 0.4823(3)
Co1L Co -0.00485(3) 0.33008(3) 0.40150(5)
Co1N Co 0.33492(4) 0.00485(3) 0.40150(5)
Co2B Co 0.38507(4) -0.02600(3) 0.24383(4)
Co2Q Co 0.28160(4) 0.35933(3) 0.08950(4)
Co2L Co 0.30733(3) 0.25560(3) 0.42284(4)
O1M O 0.3770(2) 0.3750(3) 0.3588(3)
O3A O -0.0406(2) 0.3433(3) 0.2145(3)
O4L O 0.0070(2) 0.4497(2) 0.3180(3)
O8P O 0.0436(2) 0.4670(3) 0.1677(2)
O10L O 0.25904(18) 0.2793(2) 0.2884(2)
loop_
_geom_bond_atom_site_label_1
_geom_bond_atom_site_label_2
_geom_bond_site_symmetry_1
_geom_bond_site_symmetry_2
Co1 O2 1_555 1_555
Co2 O9 1_555 1_555
C1 C2 1_555 1_555
C2 H1 1_555 1_555
C3 C2 1_555 1_555
C4 C3 1_555 1_555
H2 C4 1_555 1_555
C5 C4 1_555 1_555
C6 C1 1_555 1_555
H3 C6 1_555 1_555
C7 C1 1_555 1_555
C8 C3 1_555 1_555
C9 H4 1_555 1_555
H5 C9 1_555 1_555
C10 C9 1_555 1_555
C11 C10 1_555 1_555
H6 C11 1_555 1_555
C12 C11 1_555 1_555
H7 C12 1_555 1_555
C13 C12 1_555 1_555
H8 C13 1_555 1_555
C14 C13 1_555 1_555
H9 C14 1_555 1_555
C15 C10 1_555 1_555
H10 C15 1_555 1_555
C16 C17 1_555 1_555
C17 H11 1_555 1_555
C18 C17 1_555 1_555
C19 C18 1_555 1_555
H12 C19 1_555 1_555
C20 C19 1_555 1_555
C21 C16 1_555 1_555
H13 C21 1_555 1_555
C22 C16 1_555 1_555
C23 C18 1_555 1_555
C24 H14 1_555 1_555
H15 C24 1_555 1_555
C25 C24 1_555 1_555
C26 C25 1_555 1_555
H16 C26 1_555 1_555
C27 C26 1_555 1_555
H17 C27 1_555 1_555
C28 C27 1_555 1_555
H18 C28 1_555 1_555
C29 C28 1_555 1_555
H19 C29 1_555 1_555
C30 C25 1_555 1_555
H20 C30 1_555 1_555
O1 C7 1_555 1_555
O2 H21 1_555 1_555
H22 O2 1_555 1_555
O3 C7 1_555 1_555
O4 C8 1_555 1_555
O5 Co1 1_555 1_555
O6 C5 1_555 1_555
O7 Co1 1_555 1_555
O8 C22 1_555 1_555
O9 C23 1_555 1_555
O10 C23 1_555 1_555
O11 C20 1_555 1_555
Co1L O10 1_555 1_555
Co1N O1 1_555 1_555
Co2B O3 1_555 1_555
Co2Q O8 1_555 1_555
Co2L O4 1_555 1_555
O1M Co1 1_555 1_555
O3A Co2 1_555 1_555
O4L Co2 1_555 1_555
O8P Co2 1_555 1_555
O10L Co1 1_555 1_555
C5 C6 1_555 1_555
C8 O5 1_555 1_555
C9 O6 1_555 1_555
C14 C15 1_555 1_555
C20 C21 1_555 1_555
C22 O7 1_555 1_555
C24 O11 1_555 1_555
C29 C30 1_555 1_555

#END
