
#######################################################################
#
#                 Cambridge Crystallographic Data Centre
#                                CCDC 
#
#######################################################################
#
# If this CIF has been generated from an entry in the Cambridge 
# Structural Database, then it will include bibliographic, chemical, 
# crystal, experimental, refinement or atomic coordinate data resulting 
# from the CCDC's data processing and validation procedures.
#
#######################################################################

data_GIWGAW
_symmetry_cell_setting           monoclinic
_symmetry_space_group_name_H-M   'C 2/c'
_symmetry_Int_Tables_number      15
_space_group_name_Hall           '-C 2yn'
loop_
_symmetry_equiv_pos_site_id
_symmetry_equiv_pos_as_xyz
1 x,y,z
2 -x,y,1/2-z
3 1/2+x,1/2+y,z
4 1/2-x,1/2+y,1/2-z
5 -x,-y,-z
6 x,-y,1/2+z
7 1/2-x,1/2-y,-z
8 1/2+x,1/2-y,1/2+z
_cell_length_a                   23.8748(4)
_cell_length_b                   10.2363(3)
_cell_length_c                   19.8119(4)
_cell_angle_alpha                90
_cell_angle_beta                 98.0450(10)
_cell_angle_gamma                90
_cell_volume                     4794.17
loop_
_atom_site_label
_atom_site_type_symbol
_atom_site_fract_x
_atom_site_fract_y
_atom_site_fract_z
C1 C 0.1752(2) 0.3288(5) 0.0343(3)
H1 H 0.1972 0.2558 0.0285
C2 C 0.1954(3) 0.4510(6) 0.0193(3)
H2 H 0.2303 0.4591 0.0040
C3 C 0.1640(3) 0.5573(6) 0.0271(3)
H3 H 0.1774 0.6395 0.0175
C4 C 0.1106(2) 0.5453(4) 0.0497(2)
C5 C 0.0746(3) 0.6523(5) 0.0605(3)
H4 H 0.0855 0.7367 0.0508
C6 C 0.0254(3) 0.6338(5) 0.0844(3)
H5 H 0.0025 0.7053 0.0902
C7 C 0.0071(2) 0.5045(5) 0.1013(3)
C8 C -0.0423(2) 0.4789(6) 0.1291(4)
H6 H -0.0661 0.5470 0.1378
C9 C -0.0556(3) 0.3531(7) 0.1433(4)
H7 H -0.0881 0.3350 0.1627
C10 C -0.0200(2) 0.2521(5) 0.1285(3)
H8 H -0.0300 0.1667 0.1376
C11 C 0.09372(17) 0.4181(4) 0.06414(19)
C12 C 0.04101(17) 0.3971(4) 0.0897(2)
C13 C 0.13817(15) 0.0661(4) 0.29427(17)
C14 C 0.11764(15) 0.0050(4) 0.34895(17)
H9 H 0.0884 -0.0556 0.3411
C15 C 0.14139(14) 0.0358(3) 0.41522(17)
C16 C 0.18482(15) 0.1264(3) 0.42676(17)
H10 H 0.2004 0.1469 0.4712
C17 C 0.20542(15) 0.1873(4) 0.37168(19)
C18 C 0.18214(15) 0.1549(4) 0.30592(18)
H11 H 0.1962 0.1931 0.2692
C19 C 0.11010(16) 0.0394(4) 0.22241(18)
O1 O 0.24838(12) 0.2749(3) 0.38871(14)
C20 C 0.22768(19) 0.4653(4) 0.3133(2)
C21 C 0.2299(3) 0.5740(6) 0.3529(3)
H12 H 0.2574 0.5781 0.3911
C22 C 0.1933(3) 0.6797(7) 0.3394(3)
H13 H 0.1959 0.7519 0.3681
C23 C 0.1536(3) 0.6747(6) 0.2829(3)
H14 H 0.1282 0.7434 0.2733
C24 C 0.1509(3) 0.5707(7) 0.2411(4)
H15 H 0.1237 0.5684 0.2026
C25 C 0.1886(3) 0.4658(6) 0.2545(3)
H16 H 0.1873 0.3965 0.2240
C26 C 0.12033(15) -0.0286(3) 0.47488(16)
N1 N 0.12588(14) 0.3113(3) 0.05669(16)
N2 N 0.02724(13) 0.2718(3) 0.10215(18)
O2 O 0.12401(12) 0.1133(3) 0.17662(12)
O3 O 0.03555(12) -0.0302(3) 0.08473(13)
H17 H 0.0405 -0.0584 0.1239
H18 H 0.0026 -0.0401 0.0712
O4 O 0.07536(15) -0.0511(3) 0.21236(15)
O5 O 0.07443(11) -0.0939(3) 0.46591(12)
O6 O 0.14839(11) -0.0181(3) 0.53307(12)
C27 C 0.26692(18) 0.3539(4) 0.3340(2)
H19 H 0.2692 0.2987 0.2947
H20 H 0.3045 0.3879 0.3493
Co1 Co 0.08750(2) 0.13102(5) 0.07774(2)
O5E O 0.07443(11) 0.0939(3) -0.03409(12)
O6E O 0.14839(11) 0.0181(3) 0.03307(12)
Co1E Co 0.08750(2) -0.13102(5) 0.57774(2)
O7 O 0.0000 -0.2481(7) 0.2500
H21 H 0.0194 -0.1766 0.2222
H21A H -0.0194 -0.1766 0.2778
loop_
_geom_bond_atom_site_label_1
_geom_bond_atom_site_label_2
_geom_bond_site_symmetry_1
_geom_bond_site_symmetry_2
C1 H1 1_555 1_555
C2 C1 1_555 1_555
H2 C2 1_555 1_555
C3 C2 1_555 1_555
H3 C3 1_555 1_555
C4 C3 1_555 1_555
C5 C4 1_555 1_555
H4 C5 1_555 1_555
C6 C5 1_555 1_555
H5 C6 1_555 1_555
C7 C6 1_555 1_555
C8 C7 1_555 1_555
H6 C8 1_555 1_555
C9 C8 1_555 1_555
H7 C9 1_555 1_555
C10 C9 1_555 1_555
H8 C10 1_555 1_555
C11 C4 1_555 1_555
C12 C7 1_555 1_555
C13 C14 1_555 1_555
C14 H9 1_555 1_555
C15 C14 1_555 1_555
C16 C15 1_555 1_555
H10 C16 1_555 1_555
C17 C16 1_555 1_555
C18 C13 1_555 1_555
H11 C18 1_555 1_555
C19 C13 1_555 1_555
O1 C17 1_555 1_555
C20 C21 1_555 1_555
C21 H12 1_555 1_555
C22 C21 1_555 1_555
H13 C22 1_555 1_555
C23 C22 1_555 1_555
H14 C23 1_555 1_555
C24 C23 1_555 1_555
H15 C24 1_555 1_555
C25 C20 1_555 1_555
H16 C25 1_555 1_555
C26 C15 1_555 1_555
N1 C1 1_555 1_555
N2 C10 1_555 1_555
O2 C19 1_555 1_555
O3 H17 1_555 1_555
H18 O3 1_555 1_555
O4 C19 1_555 1_555
O5 C26 1_555 1_555
O6 C26 1_555 1_555
C27 O1 1_555 1_555
H19 C27 1_555 1_555
H20 C27 1_555 1_555
Co1 N1 1_555 1_555
O7 H21 1_555 1_555
O5E Co1 1_555 1_555
O6E Co1 1_555 1_555
Co1E O5 1_555 1_555
H21A O7 1_555 1_555
C11 C12 1_555 1_555
C11 N1 1_555 1_555
C12 N2 1_555 1_555
C17 C18 1_555 1_555
C20 C27 1_555 1_555
C24 C25 1_555 1_555
N2 Co1 1_555 1_555
O2 Co1 1_555 1_555
O3 Co1 1_555 1_555
O6 Co1E 1_555 1_555

#END
