
#######################################################################
#
#                 Cambridge Crystallographic Data Centre
#                                CCDC 
#
#######################################################################
#
# If this CIF has been generated from an entry in the Cambridge 
# Structural Database, then it will include bibliographic, chemical, 
# crystal, experimental, refinement or atomic coordinate data resulting 
# from the CCDC's data processing and validation procedures.
#
#######################################################################

data_GIWMAC
_symmetry_cell_setting           orthorhombic
_symmetry_space_group_name_H-M   'P b c a'
_symmetry_Int_Tables_number      61
_space_group_name_Hall           '-P 2ac 2ab'
loop_
_symmetry_equiv_pos_site_id
_symmetry_equiv_pos_as_xyz
1 x,y,z
2 1/2-x,-y,1/2+z
3 1/2+x,1/2-y,-z
4 -x,1/2+y,1/2-z
5 -x,-y,-z
6 1/2+x,y,1/2-z
7 1/2-x,1/2+y,z
8 x,1/2-y,1/2+z
_cell_length_a                   14.9325(3)
_cell_length_b                   17.9451(5)
_cell_length_c                   18.2119(4)
_cell_angle_alpha                90
_cell_angle_beta                 90
_cell_angle_gamma                90
_cell_volume                     4880.16
loop_
_atom_site_label
_atom_site_type_symbol
_atom_site_fract_x
_atom_site_fract_y
_atom_site_fract_z
Zn1 Zn 0.845276(16) 0.019756(17) 0.308830(14)
Li1 Li 0.6537(3) -0.0450(2) 0.2396(2)
Li2 Li 1.0510(3) 0.0761(2) 0.2789(2)
Cl1 Cl 0.80907(4) -0.05456(4) 0.21351(3)
Cl2 Cl 0.90570(4) 0.12971(4) 0.27660(4)
O1 O 0.63052(10) 0.04454(10) 0.29870(8)
O2 O 0.74586(10) 0.04049(12) 0.37517(9)
O3 O 0.62512(12) -0.12849(11) 0.30081(10)
O4 O 1.12793(11) 0.14511(10) 0.33162(9)
O5 O 1.05381(10) -0.02155(9) 0.32495(8)
O6 O 0.92023(10) -0.03719(11) 0.37647(9)
C1 C 0.66552(14) 0.05661(13) 0.35991(12)
C2 C 0.61277(15) 0.09356(14) 0.42226(12)
C3 C 0.51430(15) 0.10308(16) 0.40180(14)
H1 H 0.4883 0.0543 0.3904
H2 H 0.5094 0.1356 0.3588
H3 H 0.4819 0.1254 0.4431
C4 C 0.65498(18) 0.16989(15) 0.43595(15)
H4 H 0.6233 0.1949 0.4761
H5 H 0.6506 0.2001 0.3913
H6 H 0.7181 0.1636 0.4492
C5 C 0.62218(17) 0.04500(16) 0.49113(13)
H7 H 0.5943 -0.0036 0.4823
H8 H 0.5925 0.0695 0.5326
H9 H 0.6858 0.0381 0.5025
C6 C 0.53496(19) -0.1335(2) 0.33072(19)
H10 H 0.4913 -0.1443 0.2912
H11 H 0.518 -0.086 0.3546
C7 C 0.5360(2) -0.19503(17) 0.38525(16)
H12 H 0.52 -0.2431 0.3621
H13 H 0.4942 -0.1849 0.4262
C8 C 0.6315(2) -0.1952(2) 0.41130(17)
H14 H 0.64 -0.1594 0.452
H15 H 0.6495 -0.2455 0.4281
C9 C 0.6841(2) -0.17238(19) 0.34531(17)
H16 H 0.7371 -0.1427 0.3601
H17 H 0.7049 -0.2168 0.3179
C10 C 1.16167(19) 0.20838(16) 0.29272(16)
H18 H 1.112 0.2411 0.2767
H19 H 1.1961 0.1925 0.249
C11 C 1.2219(2) 0.24865(18) 0.34710(18)
H20 H 1.2746 0.2705 0.3221
H21 H 1.1889 0.2888 0.3728
C12 C 1.2499(2) 0.18791(18) 0.40028(17)
H22 H 1.3155 0.1804 0.3987
H23 H 1.2322 0.201 0.4511
C13 C 1.20178(17) 0.11910(15) 0.37515(15)
H24 H 1.242 0.0872 0.3455
H25 H 1.18 0.09 0.4177
C14 C 1.00266(14) -0.05215(13) 0.37102(12)
C15 C 1.03821(15) -0.11240(14) 0.42207(14)
C16 C 1.13406(17) -0.09566(19) 0.44580(17)
H26 H 1.1716 -0.0884 0.4022
H27 H 1.1573 -0.1375 0.4746
H28 H 1.1349 -0.0503 0.4758
C17 C 1.0358(2) -0.18489(16) 0.37732(19)
H29 H 0.9744 -0.1943 0.3606
H30 H 1.0559 -0.2264 0.4081
H31 H 1.0754 -0.1802 0.3347
C18 C 0.97855(19) -0.12073(18) 0.48934(16)
H32 H 0.9792 -0.0743 0.5176
H33 H 1.0009 -0.1616 0.52
H34 H 0.9172 -0.1317 0.4737
Li1E Li 1.1537(3) -0.0450(2) 0.2604(2)
Li2E Li 0.5510(3) 0.0761(2) 0.2211(2)
O1E O 1.13052(10) 0.04454(10) 0.20130(8)
O5E O 0.55381(10) -0.02155(9) 0.17505(8)
loop_
_geom_bond_atom_site_label_1
_geom_bond_atom_site_label_2
_geom_bond_site_symmetry_1
_geom_bond_site_symmetry_2
Zn1 Cl1 1_555 1_555
Li1 Cl1 1_555 1_555
Li2 Cl2 1_555 1_555
Cl2 Zn1 1_555 1_555
O1 Li1 1_555 1_555
O2 Zn1 1_555 1_555
O3 Li1 1_555 1_555
O4 Li2 1_555 1_555
O5 Li2 1_555 1_555
O6 Zn1 1_555 1_555
C1 O1 1_555 1_555
C2 C1 1_555 1_555
C3 C2 1_555 1_555
H1 C3 1_555 1_555
H2 C3 1_555 1_555
H3 C3 1_555 1_555
C4 C2 1_555 1_555
H4 C4 1_555 1_555
H5 C4 1_555 1_555
H6 C4 1_555 1_555
C5 C2 1_555 1_555
H7 C5 1_555 1_555
H8 C5 1_555 1_555
H9 C5 1_555 1_555
C6 O3 1_555 1_555
H10 C6 1_555 1_555
H11 C6 1_555 1_555
C7 C6 1_555 1_555
H12 C7 1_555 1_555
H13 C7 1_555 1_555
C8 C7 1_555 1_555
H14 C8 1_555 1_555
H15 C8 1_555 1_555
C9 O3 1_555 1_555
H16 C9 1_555 1_555
H17 C9 1_555 1_555
C10 O4 1_555 1_555
H18 C10 1_555 1_555
H19 C10 1_555 1_555
C11 C10 1_555 1_555
H20 C11 1_555 1_555
H21 C11 1_555 1_555
C12 C11 1_555 1_555
H22 C12 1_555 1_555
H23 C12 1_555 1_555
C13 O4 1_555 1_555
H24 C13 1_555 1_555
H25 C13 1_555 1_555
C14 O5 1_555 1_555
C15 C14 1_555 1_555
C16 C15 1_555 1_555
H26 C16 1_555 1_555
H27 C16 1_555 1_555
H28 C16 1_555 1_555
C17 C15 1_555 1_555
H29 C17 1_555 1_555
H30 C17 1_555 1_555
H31 C17 1_555 1_555
C18 C15 1_555 1_555
H32 C18 1_555 1_555
H33 C18 1_555 1_555
H34 C18 1_555 1_555
Li1E O5 1_555 1_555
Li2E O1 1_555 1_555
O1E Li2 1_555 1_555
O5E Li1 1_555 1_555
O2 C1 1_555 1_555
O6 C14 1_555 1_555
C8 C9 1_555 1_555
C12 C13 1_555 1_555
Li1E O1E 1_555 1_555
Li2E O5E 1_555 1_555

#END
