
#######################################################################
#
#                 Cambridge Crystallographic Data Centre
#                                CCDC 
#
#######################################################################
#
# If this CIF has been generated from an entry in the Cambridge 
# Structural Database, then it will include bibliographic, chemical, 
# crystal, experimental, refinement or atomic coordinate data resulting 
# from the CCDC's data processing and validation procedures.
#
#######################################################################

data_GIWNOR
_symmetry_cell_setting           monoclinic
_symmetry_space_group_name_H-M   'P 21/c'
_symmetry_Int_Tables_number      14
_space_group_name_Hall           '-P 2ybc'
loop_
_symmetry_equiv_pos_site_id
_symmetry_equiv_pos_as_xyz
1 x,y,z
2 -x,1/2+y,1/2-z
3 -x,-y,-z
4 x,1/2-y,1/2+z
_cell_length_a                   11.299(5)
_cell_length_b                   25.693(5)
_cell_length_c                   13.435(4)
_cell_angle_alpha                90
_cell_angle_beta                 121.99(2)
_cell_angle_gamma                90
_cell_volume                     3307.96
loop_
_atom_site_label
_atom_site_type_symbol
_atom_site_fract_x
_atom_site_fract_y
_atom_site_fract_z
Ag1 Ag -0.01450(4) -0.114869(14) 0.29865(3)
Ag2 Ag -0.12175(4) 0.052011(15) 0.45764(3)
O1 O -0.2906(3) -0.01793(12) 0.3642(3)
O2 O -0.1122(3) -0.05651(12) 0.3704(3)
O3 O -0.1332(3) -0.16816(11) 0.3782(3)
O4 O 0.1685(3) -0.04666(11) 0.3904(3)
O5 O 0.3004(3) -0.01383(13) 0.3307(3)
O6 O 0.2016(3) -0.16055(11) 0.3722(3)
N1 N -0.5537(4) -0.14058(12) 0.2074(3)
N2 N -0.6021(3) -0.22893(13) 0.1895(3)
N3 N -0.4171(4) -0.29158(13) 0.2627(3)
N4 N -0.8202(4) -0.39252(12) 0.1964(3)
N5 N 0.6131(3) -0.12048(13) 0.5335(3)
N6 N 0.6784(4) -0.20668(12) 0.5539(3)
N7 N 0.5036(4) -0.27432(14) 0.4804(3)
N8 N 0.9414(4) -0.36922(13) 0.6122(3)
N9 N -0.6447(4) -0.31717(12) 0.1842(3)
N10 N 0.7350(4) -0.29336(13) 0.5592(3)
C1 C -0.2349(5) -0.05711(17) 0.3510(4)
C2 C -0.4599(5) -0.10123(16) 0.2502(4)
H1 H -0.4946 -0.0675 0.2389
C3 C -0.3197(4) -0.10690(15) 0.3081(4)
C4 C -0.2595(5) -0.15845(16) 0.3288(4)
C5 C -0.3635(4) -0.19984(15) 0.2843(3)
C6 C -0.5065(4) -0.19092(16) 0.2266(3)
C7 C -0.3276(5) -0.25244(16) 0.2969(4)
H2 H -0.2335 -0.2606 0.3321
C8 C -0.5519(5) -0.27794(16) 0.2132(4)
C9 C -0.6678(5) -0.39487(16) 0.2743(4)
H3 H -0.6384 -0.4308 0.2942
H4 H -0.6390 -0.3761 0.3463
C10 C -0.5993(5) -0.37095(15) 0.2139(4)
H5 H -0.4986 -0.3723 0.2655
H6 H -0.6253 -0.3903 0.1432
C11 C -0.7955(4) -0.31035(17) 0.1158(4)
H7 H -0.8327 -0.3241 0.0374
H8 H -0.8173 -0.2735 0.1087
C12 C -0.8643(5) -0.33773(16) 0.1721(4)
H9 H -0.8392 -0.3203 0.2448
H10 H -0.9650 -0.3360 0.1200
C13 C -0.7042(4) -0.12885(16) 0.1420(4)
H11 H -0.7181 -0.0941 0.1623
H12 H -0.7508 -0.1532 0.1653
C14 C -0.7689(6) -0.1321(2) 0.0124(4)
H13 H -0.8664 -0.1239 -0.0265
H14 H -0.7579 -0.1667 -0.0085
H15 H -0.7240 -0.1077 -0.0114
C15 C 0.2732(5) -0.04796(16) 0.3816(4)
C16 C 0.5109(4) -0.08390(16) 0.4870(4)
H16 H 0.5385 -0.0493 0.4936
C17 C 0.3722(4) -0.09344(16) 0.4318(4)
C18 C 0.3258(5) -0.14681(17) 0.4191(4)
C19 C 0.4353(4) -0.18451(15) 0.4602(4)
C20 C 0.5767(4) -0.17179(15) 0.5168(3)
C21 C 0.4080(4) -0.23762(17) 0.4471(4)
H17 H 0.3155 -0.2481 0.4123
C22 C 0.6371(4) -0.25661(17) 0.5313(4)
C23 C 0.7624(4) -0.10518(16) 0.6003(4)
H18 H 0.7704 -0.0689 0.5844
H19 H 0.8124 -0.1259 0.5739
C24 C 0.8279(5) -0.11248(19) 0.7293(4)
H20 H 0.9221 -0.0998 0.7697
H21 H 0.8282 -0.1488 0.7461
H22 H 0.7756 -0.0936 0.7550
C25 C 0.9723(5) -0.31345(18) 0.6058(4)
H23 H 1.0701 -0.3064 0.6623
H24 H 0.9535 -0.3056 0.5281
C26 C 0.8821(5) -0.27945(17) 0.6318(4)
H25 H 0.9126 -0.2831 0.7139
H26 H 0.8938 -0.2433 0.6180
C27 C 0.7002(5) -0.34845(16) 0.5460(4)
H27 H 0.6043 -0.3532 0.4823
H28 H 0.7090 -0.3614 0.6175
C28 C 0.7966(5) -0.37897(18) 0.5206(4)
H29 H 0.7809 -0.3686 0.4451
H30 H 0.7766 -0.4159 0.5173
Ag1C Ag 0.98550(4) -0.385131(14) 0.79865(3)
Ag2A Ag -0.87825(4) -0.447989(15) 0.04236(3)
Ag2B Ag 0.12175(4) -0.052011(15) 0.54236(3)
O2B O 0.1122(3) 0.05651(12) 0.6296(3)
O4B O -0.1685(3) 0.04666(11) 0.6096(3)
N4A N -0.1798(4) 0.10748(12) 0.3036(3)
N8C N -0.0586(4) -0.13078(13) 0.1122(3)
O7 O 0.1214(4) -0.01545(13) 0.8061(3)
O8 O 0.5636(4) -0.02262(13) 0.7707(3)
O9 O -0.6157(5) -0.0031(2) 0.0065(4)
O10 O -0.0434(4) 0.02090(14) 0.8908(3)
loop_
_geom_bond_atom_site_label_1
_geom_bond_atom_site_label_2
_geom_bond_site_symmetry_1
_geom_bond_site_symmetry_2
Ag1 O2 1_555 1_555
Ag2 O1 1_555 1_555
O1 C1 1_555 1_555
O2 C1 1_555 1_555
O3 Ag1 1_555 1_555
O4 Ag1 1_555 1_555
O5 C15 1_555 1_555
O6 Ag1 1_555 1_555
N1 C2 1_555 1_555
N2 C6 1_555 1_555
N3 C7 1_555 1_555
N4 C9 1_555 1_555
N5 C16 1_555 1_555
N6 C20 1_555 1_555
N7 C21 1_555 1_555
N8 C25 1_555 1_555
N9 C8 1_555 1_555
N10 C22 1_555 1_555
C1 C3 1_555 1_555
C2 H1 1_555 1_555
C3 C2 1_555 1_555
C4 O3 1_555 1_555
C5 C4 1_555 1_555
C6 N1 1_555 1_555
C7 C5 1_555 1_555
H2 C7 1_555 1_555
C8 N2 1_555 1_555
C9 H3 1_555 1_555
H4 C9 1_555 1_555
C10 N9 1_555 1_555
H5 C10 1_555 1_555
H6 C10 1_555 1_555
C11 N9 1_555 1_555
H7 C11 1_555 1_555
H8 C11 1_555 1_555
C12 N4 1_555 1_555
H9 C12 1_555 1_555
H10 C12 1_555 1_555
C13 N1 1_555 1_555
H11 C13 1_555 1_555
H12 C13 1_555 1_555
C14 C13 1_555 1_555
H13 C14 1_555 1_555
H14 C14 1_555 1_555
H15 C14 1_555 1_555
C15 O4 1_555 1_555
C16 H16 1_555 1_555
C17 C15 1_555 1_555
C18 O6 1_555 1_555
C19 C18 1_555 1_555
C20 N5 1_555 1_555
C21 C19 1_555 1_555
H17 C21 1_555 1_555
C22 N6 1_555 1_555
C23 N5 1_555 1_555
H18 C23 1_555 1_555
H19 C23 1_555 1_555
C24 C23 1_555 1_555
H20 C24 1_555 1_555
H21 C24 1_555 1_555
H22 C24 1_555 1_555
C25 H23 1_555 1_555
H24 C25 1_555 1_555
C26 N10 1_555 1_555
H25 C26 1_555 1_555
H26 C26 1_555 1_555
C27 N10 1_555 1_555
H27 C27 1_555 1_555
H28 C27 1_555 1_555
C28 N8 1_555 1_555
H29 C28 1_555 1_555
H30 C28 1_555 1_555
Ag1C N8 1_555 1_555
Ag2A N4 1_555 1_555
Ag2B O2 1_555 1_555
O2B Ag2 1_555 1_555
O4B Ag2 1_555 1_555
N4A Ag2 1_555 1_555
N8C Ag1 1_555 1_555
O4 Ag2B 1_555 1_555
N3 C8 1_555 1_555
N7 C22 1_555 1_555
C3 C4 1_555 1_555
C5 C6 1_555 1_555
C9 C10 1_555 1_555
C11 C12 1_555 1_555
C16 C17 1_555 1_555
C17 C18 1_555 1_555
C19 C20 1_555 1_555
C25 C26 1_555 1_555
C27 C28 1_555 1_555

#END
