
#######################################################################
#
#                 Cambridge Crystallographic Data Centre
#                                CCDC 
#
#######################################################################
#
# If this CIF has been generated from an entry in the Cambridge 
# Structural Database, then it will include bibliographic, chemical, 
# crystal, experimental, refinement or atomic coordinate data resulting 
# from the CCDC's data processing and validation procedures.
#
#######################################################################

data_GIWRIP
_symmetry_cell_setting           monoclinic
_symmetry_space_group_name_H-M   'C 2/c'
_symmetry_Int_Tables_number      15
_space_group_name_Hall           '-C 2yn'
loop_
_symmetry_equiv_pos_site_id
_symmetry_equiv_pos_as_xyz
1 x,y,z
2 -x,y,1/2-z
3 1/2+x,1/2+y,z
4 1/2-x,1/2+y,1/2-z
5 -x,-y,-z
6 x,-y,1/2+z
7 1/2-x,1/2-y,-z
8 1/2+x,1/2-y,1/2+z
_cell_length_a                   18.5700(14)
_cell_length_b                   10.0021(6)
_cell_length_c                   11.3420(9)
_cell_angle_alpha                90
_cell_angle_beta                 98.338(6)
_cell_angle_gamma                90
_cell_volume                     2084.38
loop_
_atom_site_label
_atom_site_type_symbol
_atom_site_fract_x
_atom_site_fract_y
_atom_site_fract_z
C1 C 0.34647(12) 0.4356(2) 0.54781(19)
H1 H 0.3441 0.5093 0.5971
C2 C 0.29423(11) 0.4232(2) 0.44843(19)
H2 H 0.2576 0.4867 0.4319
C3 C 0.29751(10) 0.3142(2) 0.37376(18)
C4 C 0.35257(11) 0.2220(2) 0.4042(2)
H3 H 0.3562 0.1469 0.3570
C5 C 0.40176(12) 0.2427(2) 0.5051(2)
H4 H 0.4384 0.1797 0.5245
C6 C 0.24448(11) 0.2899(2) 0.26308(19)
C7 C 0.5000 0.6789(3) 0.7500
C8 C 0.42982(14) 0.8680(2) 0.6141(2)
C9 C 0.5000 1.0489(3) 0.7500
N1 N 0.40023(10) 0.34764(19) 0.57700(17)
N2 N 0.21644(12) 0.39700(19) 0.20461(19)
H5 H 0.1862 0.3879 0.1401
H6 H 0.2285 0.4756 0.2312
N3 N 0.5000 0.5640(3) 0.7500
N4 N 0.5000 1.1624(3) 0.7500
N5 N 0.42906(10) 0.36546(18) 0.86657(18)
H7 H 0.3839 0.3622 0.8275
H8 H 0.4348 0.4403 0.9094
H9 H 0.4368 0.2951 0.9148
N6 N 0.38791(15) 0.8735(2) 0.5306(2)
O1 O 0.22955(9) 0.17505(16) 0.22993(15)
Ni1 Ni 0.5000 0.86418(3) 0.7500
Cu1 Cu 0.5000 0.36291(3) 0.7500
C1A C 0.65353(12) 0.4356(2) 0.95219(19)
H1A H 0.6559 0.5093 0.9029
C2A C 0.70577(11) 0.4232(2) 1.05157(19)
H2A H 0.7424 0.4867 1.0681
C3A C 0.70249(10) 0.3142(2) 1.12624(18)
C4A C 0.64743(11) 0.2220(2) 1.0958(2)
H3A H 0.6438 0.1469 1.1430
C5A C 0.59824(12) 0.2427(2) 0.9949(2)
H4A H 0.5616 0.1797 0.9755
C6A C 0.75552(11) 0.2899(2) 1.23692(19)
C8A C 0.57018(14) 0.8680(2) 0.8859(2)
N1A N 0.59977(10) 0.34764(19) 0.92300(17)
N2A N 0.78356(12) 0.39700(19) 1.29539(19)
H5A H 0.8138 0.3879 1.3599
H6A H 0.7715 0.4756 1.2688
N5A N 0.57094(10) 0.36546(18) 0.63343(18)
H7A H 0.6161 0.3622 0.6725
H8A H 0.5652 0.4403 0.5906
H9A H 0.5632 0.2951 0.5852
N6A N 0.61209(15) 0.8735(2) 0.9694(2)
O1A O 0.77045(9) 0.17505(16) 1.27007(15)
N4_2 N 0.5000 0.1624(3) 0.7500
Cu1_2 Cu 0.5000 1.36291(3) 0.7500
loop_
_geom_bond_atom_site_label_1
_geom_bond_atom_site_label_2
_geom_bond_site_symmetry_1
_geom_bond_site_symmetry_2
C1 H1 1_555 1_555
C2 C1 1_555 1_555
H2 C2 1_555 1_555
C3 C2 1_555 1_555
C4 C3 1_555 1_555
H3 C4 1_555 1_555
C5 C4 1_555 1_555
H4 C5 1_555 1_555
C6 C3 1_555 1_555
C7 N3 1_555 1_555
C8 N6 1_555 1_555
C9 N4 1_555 1_555
N1 C1 1_555 1_555
N2 C6 1_555 1_555
H5 N2 1_555 1_555
H6 N2 1_555 1_555
N3 Cu1 1_555 1_555
N4 Cu1_2 1_555 1_555
N5 H7 1_555 1_555
H8 N5 1_555 1_555
H9 N5 1_555 1_555
O1 C6 1_555 1_555
Ni1 C7 1_555 1_555
Cu1 N1 1_555 1_555
C1A H1A 1_555 1_555
C2A C1A 1_555 1_555
H2A C2A 1_555 1_555
C3A C2A 1_555 1_555
C4A C3A 1_555 1_555
H3A C4A 1_555 1_555
C5A C4A 1_555 1_555
H4A C5A 1_555 1_555
C6A C3A 1_555 1_555
C8A Ni1 1_555 1_555
N1A Cu1 1_555 1_555
N2A C6A 1_555 1_555
H5A N2A 1_555 1_555
H6A N2A 1_555 1_555
N5A Cu1 1_555 1_555
H7A N5A 1_555 1_555
H8A N5A 1_555 1_555
H9A N5A 1_555 1_555
N6A C8A 1_555 1_555
O1A C6A 1_555 1_555
N4_2 Cu1 1_555 1_555
C5 N1 1_555 1_555
C8 Ni1 1_555 1_555
C9 Ni1 1_555 1_555
N5 Cu1 1_555 1_555
C1A N1A 1_555 1_555
C5A N1A 1_555 1_555

#END
