
#######################################################################
#
#                 Cambridge Crystallographic Data Centre
#                                CCDC 
#
#######################################################################
#
# If this CIF has been generated from an entry in the Cambridge 
# Structural Database, then it will include bibliographic, chemical, 
# crystal, experimental, refinement or atomic coordinate data resulting 
# from the CCDC's data processing and validation procedures.
#
#######################################################################

data_GIWTOV
_symmetry_cell_setting           monoclinic
_symmetry_space_group_name_H-M   'P 21/c'
_symmetry_Int_Tables_number      14
_space_group_name_Hall           '-P 2ybc'
loop_
_symmetry_equiv_pos_site_id
_symmetry_equiv_pos_as_xyz
1 x,y,z
2 x,1/2-y,1/2+z
3 -x,-y,-z
4 -x,1/2+y,1/2-z
_cell_length_a                   8.4130(4)
_cell_length_b                   11.9029(5)
_cell_length_c                   8.0070(6)
_cell_angle_alpha                90
_cell_angle_beta                 112.268(4)
_cell_angle_gamma                90
_cell_volume                     742.016
loop_
_atom_site_label
_atom_site_type_symbol
_atom_site_fract_x
_atom_site_fract_y
_atom_site_fract_z
Co1 Co 1.0000 0.0000 1.0000
O1 O 0.9952(6) 0.0764(3) 0.7602(5)
C1 C 0.9987(7) 0.0337(4) 0.6186(7)
C2 C 0.9589(8) -0.0764(4) 0.5286(7)
O2 O 0.9074(7) -0.1686(3) 0.5652(6)
O3 O 0.7644(6) 0.0795(3) 0.9728(6)
C3 C 0.7333(9) 0.1795(6) 0.9737(10)
H1 H 0.8251(9) 0.2285(6) 0.9958(10)
N1 N 0.5859(7) 0.2245(4) 0.9473(8)
C4 C 0.4348(10) 0.1549(7) 0.9055(14)
H2 H 0.3418(10) 0.1877(7) 0.8067(14)
H3 H 0.4038(10) 0.1499(7) 1.0090(14)
H4 H 0.4582(10) 0.0810(7) 0.8724(14)
C5 C 0.5610(11) 0.3460(6) 0.9541(14)
H5 H 0.4884(11) 0.3616(6) 1.0193(14)
H6 H 0.5086(11) 0.3749(6) 0.8336(14)
H7 H 0.6707(11) 0.3813(6) 1.0139(14)
O4 O 0.8618(5) -0.1397(3) 0.8720(5)
H8 H 0.8959(67) -0.2010(25) 0.9424(56)
H9 H 0.8886(65) -0.1521(42) 0.7749(43)
C1B C 1.0013(7) -0.0337(4) 0.3814(7)
O1B O 1.0048(6) -0.0764(3) 0.2398(5)
Co1B Co 1.0000 0.0000 0.0000
C2B C 1.0411(8) 0.0764(4) 0.4714(7)
O2B O 1.0926(7) 0.1686(3) 0.4348(6)
O1B_2 O 1.0048(6) -0.0764(3) 1.2398(5)
O3B O 1.2356(6) -0.0795(3) 1.0272(6)
C3B C 1.2667(9) -0.1795(6) 1.0263(10)
H1B H 1.1749(9) -0.2285(6) 1.0042(10)
N1B N 1.4141(7) -0.2245(4) 1.0527(8)
C4B C 1.5652(10) -0.1549(7) 1.0945(14)
H2B H 1.6582(10) -0.1877(7) 1.1933(14)
H3B H 1.5962(10) -0.1499(7) 0.9910(14)
H4B H 1.5418(10) -0.0810(7) 1.1276(14)
C5B C 1.4390(11) -0.3460(6) 1.0459(14)
H5B H 1.5116(11) -0.3616(6) 0.9807(14)
H6B H 1.4914(11) -0.3749(6) 1.1664(14)
H7B H 1.3293(11) -0.3813(6) 0.9861(14)
O4B O 1.1382(5) 0.1397(3) 1.1280(5)
H8B H 1.1041(67) 0.2010(25) 1.0576(56)
H9B H 1.1114(65) 0.1521(42) 1.2251(43)
loop_
_geom_bond_atom_site_label_1
_geom_bond_atom_site_label_2
_geom_bond_site_symmetry_1
_geom_bond_site_symmetry_2
Co1 O1 1_555 1_555
O1 C1 1_555 1_555
C1 C2 1_555 1_555
C2 O2 1_555 1_555
O3 Co1 1_555 1_555
C3 O3 1_555 1_555
H1 C3 1_555 1_555
N1 C3 1_555 1_555
C4 N1 1_555 1_555
H2 C4 1_555 1_555
H3 C4 1_555 1_555
H4 C4 1_555 1_555
C5 N1 1_555 1_555
H5 C5 1_555 1_555
H6 C5 1_555 1_555
H7 C5 1_555 1_555
O4 Co1 1_555 1_555
H8 O4 1_555 1_555
H9 O4 1_555 1_555
C1B C2 1_555 1_555
O1B C1B 1_555 1_555
Co1B O1B 1_555 1_555
C2B C1 1_555 1_555
O2B C2B 1_555 1_555
O1B_2 Co1 1_555 1_555
O3B Co1 1_555 1_555
C3B O3B 1_555 1_555
H1B C3B 1_555 1_555
N1B C3B 1_555 1_555
C4B N1B 1_555 1_555
H2B C4B 1_555 1_555
H3B C4B 1_555 1_555
H4B C4B 1_555 1_555
C5B N1B 1_555 1_555
H5B C5B 1_555 1_555
H6B C5B 1_555 1_555
H7B C5B 1_555 1_555
O4B Co1 1_555 1_555
H8B O4B 1_555 1_555
H9B O4B 1_555 1_555
C1B C2B 1_555 1_555

#END
