
#######################################################################
#
#                 Cambridge Crystallographic Data Centre
#                                CCDC 
#
#######################################################################
#
# If this CIF has been generated from an entry in the Cambridge 
# Structural Database, then it will include bibliographic, chemical, 
# crystal, experimental, refinement or atomic coordinate data resulting 
# from the CCDC's data processing and validation procedures.
#
#######################################################################

data_GIWXAM
_symmetry_cell_setting           monoclinic
_symmetry_space_group_name_H-M   'P 21/n'
_symmetry_Int_Tables_number      14
_space_group_name_Hall           '-P 2yn'
loop_
_symmetry_equiv_pos_site_id
_symmetry_equiv_pos_as_xyz
1 x,y,z
2 1/2-x,1/2+y,1/2-z
3 -x,-y,-z
4 1/2+x,1/2-y,1/2+z
_cell_length_a                   7.7197(9)
_cell_length_b                   17.712(2)
_cell_length_c                   18.310(2)
_cell_angle_alpha                90
_cell_angle_beta                 95.740(3)
_cell_angle_gamma                90
_cell_volume                     2491
loop_
_atom_site_label
_atom_site_type_symbol
_atom_site_fract_x
_atom_site_fract_y
_atom_site_fract_z
Cu1 Cu 1.11410(6) 0.49440(2) 0.42455(3)
Cu2 Cu 1.64522(5) 0.48461(2) 0.46645(2)
Cu3 Cu 0.92929(5) 0.77851(2) 0.23630(2)
S1 S 1.38052(10) 0.54010(5) 0.40396(4)
S2 S 1.36926(11) 0.64246(5) 0.57023(5)
S3 S 0.85288(10) 0.55228(5) 0.41309(5)
S4 S 0.89804(11) 0.63027(5) 0.60530(5)
O1 O 1.4180(4) 0.81541(16) 0.46356(16)
O2 O 1.4298(3) 0.72005(14) 0.31236(13)
O3 O 0.9918(4) 0.80536(16) 0.52486(16)
O4 O 0.9909(4) 0.73231(14) 0.35891(14)
N1 N 0.6874(4) 0.74176(17) 0.21138(16)
H5 H 0.6250 0.7474 0.2513
H6 H 0.6339 0.7699 0.1733
N2 N 1.0039(4) 0.67710(17) 0.18610(16)
N3 N 1.1653(4) 0.82373(17) 0.24374(16)
H7 H 1.2411 0.7927 0.2717
H8 H 1.2022 0.8266 0.1976
N4 N 0.8592(4) 0.88040(17) 0.28661(16)
C1 C 1.3969(4) 0.63592(19) 0.41922(18)
C2 C 1.3929(4) 0.67550(19) 0.48627(19)
C3 C 1.4112(5) 0.7491(2) 0.4475(2)
C4 C 1.4169(4) 0.7040(2) 0.37685(19)
C5 C 0.9034(4) 0.6391(2) 0.45058(18)
C6 C 0.9142(4) 0.66853(19) 0.52219(18)
C7 C 0.9618(5) 0.7444(2) 0.4967(2)
C8 C 0.9558(4) 0.7104(2) 0.4194(2)
C9 C 0.6896(5) 0.6614(2) 0.1899(2)
H9 H 0.5785 0.6476 0.1613
H10 H 0.7052 0.6289 0.2341
C10 C 0.8401(5) 0.6506(2) 0.1437(2)
H11 H 0.8509 0.5966 0.1310
H12 H 0.8189 0.6797 0.0975
C11 C 1.0670(5) 0.6187(2) 0.2406(2)
H13 H 0.9799 0.6110 0.2753
H14 H 1.1766 0.6355 0.2673
H15 H 1.0861 0.5712 0.2152
C12 C 1.1388(5) 0.6874(2) 0.1344(2)
H16 H 1.0999 0.7258 0.0979
H17 H 1.1575 0.6395 0.1096
H18 H 1.2480 0.7038 0.1617
C13 C 1.1710(5) 0.8996(2) 0.2766(2)
H19 H 1.1560 0.9383 0.2374
H20 H 1.2852 0.9079 0.3051
C14 C 1.0268(5) 0.9067(2) 0.3264(2)
H21 H 1.0549 0.8758 0.3711
H22 H 1.0156 0.9600 0.3416
C15 C 0.7928(6) 0.9371(2) 0.2327(2)
H23 H 0.8754 0.9434 0.1959
H24 H 0.7786 0.9854 0.2576
H25 H 0.6801 0.9206 0.2087
C16 C 0.7319(6) 0.8718(2) 0.3422(2)
H26 H 0.7748 0.8339 0.3786
H27 H 0.6193 0.8555 0.3178
H28 H 0.7178 0.9202 0.3667
Cu1B Cu 1.88590(6) 0.50560(2) 0.57545(3)
Cu1B_2 Cu 0.88590(6) 0.50560(2) 0.57545(3)
Cu2B Cu 1.35478(5) 0.51539(2) 0.53355(2)
Cu2_2 Cu 0.64522(5) 0.48461(2) 0.46645(2)
S1B S 1.61948(10) 0.45990(5) 0.59604(4)
S2B S 1.63074(11) 0.35754(5) 0.42977(5)
S3_2 S 1.85288(10) 0.55228(5) 0.41309(5)
S4B S 1.10196(11) 0.36973(5) 0.39470(5)
O5 O 0.9264(10) 0.9602(3) 0.5444(3)
H1 H 0.8236 0.9619 0.5009
H2 H 1.0013 0.9181 0.5216
O6 O 1.3928(7) 0.9751(2) 0.4426(3)
H3 H 1.2836 0.9637 0.4771
H4 H 1.3656 0.9211 0.4341
loop_
_geom_bond_atom_site_label_1
_geom_bond_atom_site_label_2
_geom_bond_site_symmetry_1
_geom_bond_site_symmetry_2
Cu1 S1 1_555 1_555
Cu2 S1 1_555 1_555
Cu3 O4 1_555 1_555
S1 C1 1_555 1_555
S2 C2 1_555 1_555
S3 Cu1 1_555 1_555
S4 C6 1_555 1_555
O1 C3 1_555 1_555
O2 C4 1_555 1_555
O3 C7 1_555 1_555
O4 C8 1_555 1_555
O5 H1 1_555 1_555
H2 O5 1_555 1_555
O6 H3 1_555 1_555
H4 O6 1_555 1_555
N1 Cu3 1_555 1_555
H5 N1 1_555 1_555
H6 N1 1_555 1_555
N2 Cu3 1_555 1_555
N3 Cu3 1_555 1_555
H7 N3 1_555 1_555
H8 N3 1_555 1_555
N4 Cu3 1_555 1_555
C1 C2 1_555 1_555
C2 C3 1_555 1_555
C3 C4 1_555 1_555
C4 C1 1_555 1_555
C5 S3 1_555 1_555
C6 C5 1_555 1_555
C7 C6 1_555 1_555
C8 C5 1_555 1_555
C9 N1 1_555 1_555
H9 C9 1_555 1_555
H10 C9 1_555 1_555
C10 N2 1_555 1_555
H11 C10 1_555 1_555
H12 C10 1_555 1_555
C11 N2 1_555 1_555
H13 C11 1_555 1_555
H14 C11 1_555 1_555
H15 C11 1_555 1_555
C12 N2 1_555 1_555
H16 C12 1_555 1_555
H17 C12 1_555 1_555
H18 C12 1_555 1_555
C13 N3 1_555 1_555
H19 C13 1_555 1_555
H20 C13 1_555 1_555
C14 N4 1_555 1_555
H21 C14 1_555 1_555
H22 C14 1_555 1_555
C15 N4 1_555 1_555
H23 C15 1_555 1_555
H24 C15 1_555 1_555
H25 C15 1_555 1_555
C16 N4 1_555 1_555
H26 C16 1_555 1_555
H27 C16 1_555 1_555
H28 C16 1_555 1_555
Cu1B Cu2 1_555 1_555
Cu1B_2 S4 1_555 1_555
Cu2B Cu1 1_555 1_555
Cu2_2 S3 1_555 1_555
S1B Cu2 1_555 1_555
S2B Cu2 1_555 1_555
S3_2 Cu2 1_555 1_555
S4B Cu1 1_555 1_555
Cu2 Cu2B 1_555 1_555
S1 Cu2B 1_555 1_555
S2 Cu2B 1_555 1_555
C7 C8 1_555 1_555
C9 C10 1_555 1_555
C13 C14 1_555 1_555
Cu1B S1B 1_555 1_555
Cu1B_2 Cu2_2 1_555 1_555
Cu2B S1B 1_555 1_555

#END
