
#######################################################################
#
#                 Cambridge Crystallographic Data Centre
#                                CCDC 
#
#######################################################################
#
# If this CIF has been generated from an entry in the Cambridge 
# Structural Database, then it will include bibliographic, chemical, 
# crystal, experimental, refinement or atomic coordinate data resulting 
# from the CCDC's data processing and validation procedures.
#
#######################################################################

data_GIWXUG
_symmetry_cell_setting           monoclinic
_symmetry_space_group_name_H-M   'P 21/c'
_symmetry_Int_Tables_number      14
_space_group_name_Hall           '-P 2ybc'
loop_
_symmetry_equiv_pos_site_id
_symmetry_equiv_pos_as_xyz
1 x,y,z
2 -x,1/2+y,1/2-z
3 -x,-y,-z
4 x,1/2-y,1/2+z
_cell_length_a                   11.415(4)
_cell_length_b                   8.648(3)
_cell_length_c                   19.142(9)
_cell_angle_alpha                90
_cell_angle_beta                 94.757(14)
_cell_angle_gamma                90
_cell_volume                     1883.13
loop_
_atom_site_label
_atom_site_type_symbol
_atom_site_fract_x
_atom_site_fract_y
_atom_site_fract_z
Co1 Co 0.49067(5) 0.22044(8) 0.82398(4)
N1 N 0.3145(6) -0.1831(9) 0.4518(3)
N2 N 0.0839(5) 0.2161(8) 0.5530(4)
N3 N 0.6790(3) 0.1976(5) 0.8137(2)
N4 N 1.3018(3) 0.2244(5) 0.8328(2)
O1 O 0.4433(3) 0.1813(4) 0.71770(18)
O2 O 0.5112(3) -0.0559(4) 0.70949(18)
O3 O 0.4655(3) -0.1851(4) 0.57658(18)
O5 O 0.4109(12) -0.2032(15) 0.4322(7)
O7 O 0.2333(12) -0.2126(15) 0.4112(7)
O8 O 0.0184(5) 0.2125(7) 0.4991(3)
O9 O 0.0641(5) 0.2917(7) 0.6046(4)
O10 O 0.4952(3) -0.0155(4) 0.8536(2)
H1 H 0.5005 -0.0695 0.8188
H2 H 0.514(5) -0.053(8) 0.891(4)
C1 C 0.3660(4) 0.0349(6) 0.6210(3)
C2 C 0.3847(4) -0.0829(6) 0.5692(3)
C3 C 0.3034(5) -0.0740(7) 0.5078(3)
C4 C 0.2073(5) 0.0219(7) 0.5024(3)
H3 H 0.1550 0.0198 0.4624
C5 C 0.1890(5) 0.1201(7) 0.5559(4)
C6 C 0.2697(4) 0.1298(6) 0.6141(3)
H4 H 0.2583 0.2019 0.6489
C7 C 0.4460(4) 0.0534(6) 0.6864(3)
C8 C 0.7344(4) 0.2546(6) 0.7610(3)
H5 H 0.6894 0.2911 0.7217
C9 C 0.8555(4) 0.2624(7) 0.7617(3)
H6 H 0.8905 0.3040 0.7238
C10 C 0.9242(4) 0.2072(6) 0.8197(3)
C11 C 1.0555(4) 0.2138(6) 0.8238(3)
C12 C 1.1151(4) 0.3323(7) 0.7932(3)
H7 H 1.0737 0.4107 0.7688
C13 C 1.2362(4) 0.3330(7) 0.7993(3)
H8 H 1.2744 0.4142 0.7789
C14 C 1.2445(4) 0.1118(6) 0.8623(3)
H9 H 1.2881 0.0344 0.8860
C15 C 1.1229(4) 0.1035(6) 0.8596(3)
H10 H 1.0871 0.0232 0.8821
C16 C 0.8667(4) 0.1439(6) 0.8737(3)
H11 H 0.9094 0.1041 0.9131
C17 C 0.7460(4) 0.1403(6) 0.8687(3)
H12 H 0.7088 0.0960 0.9052
Co1_2 Co 1.49067(5) 0.22044(8) 0.82398(4)
Co1A Co 0.50933(5) -0.27956(8) 0.67602(4)
N4_2 N 0.3018(3) 0.2244(5) 0.8328(2)
O2A O 0.4888(3) 0.4441(4) 0.79051(18)
O3A O 0.5345(3) 0.3149(4) 0.92342(18)
O11 O 0.5835(6) -0.1239(8) 0.9844(4)
O4? O 0.6792(10) 0.1740(15) 1.0319(7)
O6? O 0.7000(17) 0.358(2) 1.1066(11)
loop_
_geom_bond_atom_site_label_1
_geom_bond_atom_site_label_2
_geom_bond_site_symmetry_1
_geom_bond_site_symmetry_2
Co1 N3 1_555 1_555
N1 O5 1_555 1_555
N2 O8 1_555 1_555
N3 C8 1_555 1_555
N4 C13 1_555 1_555
O1 Co1 1_555 1_555
O2 C7 1_555 1_555
O3 C2 1_555 1_555
O7 N1 1_555 1_555
O9 N2 1_555 1_555
O10 Co1 1_555 1_555
H1 O10 1_555 1_555
H2 O10 1_555 1_555
C1 C2 1_555 1_555
C2 C3 1_555 1_555
C3 N1 1_555 1_555
C4 C3 1_555 1_555
H3 C4 1_555 1_555
C5 N2 1_555 1_555
C6 C1 1_555 1_555
H4 C6 1_555 1_555
C7 O1 1_555 1_555
C8 H5 1_555 1_555
C9 C8 1_555 1_555
H6 C9 1_555 1_555
C10 C9 1_555 1_555
C11 C10 1_555 1_555
C12 C11 1_555 1_555
H7 C12 1_555 1_555
C13 C12 1_555 1_555
H8 C13 1_555 1_555
C14 N4 1_555 1_555
H9 C14 1_555 1_555
C15 C11 1_555 1_555
H10 C15 1_555 1_555
C16 C10 1_555 1_555
H11 C16 1_555 1_555
C17 N3 1_555 1_555
H12 C17 1_555 1_555
Co1_2 N4 1_555 1_555
Co1A O2 1_555 1_555
N4_2 Co1 1_555 1_555
O2A Co1 1_555 1_555
O3A Co1 1_555 1_555
O3 Co1A 1_555 1_555
C1 C7 1_555 1_555
C4 C5 1_555 1_555
C5 C6 1_555 1_555
C14 C15 1_555 1_555
C16 C17 1_555 1_555

#END
