
#######################################################################
#
#                 Cambridge Crystallographic Data Centre
#                                CCDC 
#
#######################################################################
#
# If this CIF has been generated from an entry in the Cambridge 
# Structural Database, then it will include bibliographic, chemical, 
# crystal, experimental, refinement or atomic coordinate data resulting 
# from the CCDC's data processing and validation procedures.
#
#######################################################################

data_GIWXAN
_symmetry_cell_setting           triclinic
_symmetry_space_group_name_H-M   'P -1'
_symmetry_Int_Tables_number      2
_space_group_name_Hall           '-P 1'
loop_
_symmetry_equiv_pos_site_id
_symmetry_equiv_pos_as_xyz
1 x,y,z
2 -x,-y,-z
_cell_length_a                   9.9062(3)
_cell_length_b                   10.7649(3)
_cell_length_c                   13.3772(4)
_cell_angle_alpha                99.3640(13)
_cell_angle_beta                 102.2530(14)
_cell_angle_gamma                90.2780(12)
_cell_volume                     1374.31
loop_
_atom_site_label
_atom_site_type_symbol
_atom_site_fract_x
_atom_site_fract_y
_atom_site_fract_z
Cu1 Cu 0.0000 0.0000 0.0000
Cu2 Cu 0.5000 0.0000 0.0000
Br1 Br 0.55972(8) 0.34640(8) 0.36323(5)
Br2 Br 0.06827(11) -0.13408(10) 0.38774(6)
O1 O 0.0653(3) -0.1389(2) 0.0762(2)
O2 O 0.5627(3) 0.1757(2) 0.0622(2)
O3 O -0.1075(4) -0.1545(4) 0.1574(3)
O4 O 0.3855(4) 0.2415(4) 0.1330(4)
N1 N 0.0209(3) 0.1187(3) 0.1334(3)
N2 N 0.5221(3) -0.0453(3) 0.1425(3)
C1 C -0.0782(4) 0.1985(4) 0.1495(4)
H1 H -0.1545 0.2012 0.0958
C2 C -0.0711(5) 0.2771(5) 0.2432(4)
H2 H -0.1413 0.3325 0.2512
C3 C 0.0388(6) 0.2739(4) 0.3245(4)
C4 C 0.1421(6) 0.1947(5) 0.3063(4)
H3 H 0.2211 0.1930 0.3580
C5 C 0.1292(5) 0.1180(4) 0.2121(3)
H4 H 0.1991 0.0629 0.2026
C6 C 0.0463(9) 0.3583(7) 0.4281(5)
H5 H 0.1380 0.3955 0.4534
H6 H 0.0245 0.3092 0.4768
H7 H -0.0187 0.4236 0.4196
C7 C 0.0049(4) -0.1830(4) 0.1384(3)
C8 C 0.0837(5) -0.2833(5) 0.1907(5)
C9 C 0.1153(5) -0.2740(6) 0.2984(5)
C10 C 0.1929(7) -0.3688(11) 0.3432(9)
H8 H 0.2166 -0.3629 0.4150
C11 C 0.2328(8) -0.4691(11) 0.2811(12)
H9 H 0.2831 -0.5315 0.3110
C12 C 0.2001(9) -0.4789(8) 0.1763(12)
H10 H 0.2256 -0.5491 0.1350
C13 C 0.1284(7) -0.3843(5) 0.1300(7)
H11 H 0.1108 -0.3893 0.0583
C14 C 0.6288(5) -0.0014(5) 0.2195(4)
H12 H 0.6944 0.0523 0.2065
C15 C 0.6466(6) -0.0319(5) 0.3176(4)
H13 H 0.7223 0.0020 0.3690
C16 C 0.5532(6) -0.1118(5) 0.3394(4)
C17 C 0.4409(6) -0.1569(6) 0.2594(4)
H14 H 0.3736 -0.2101 0.2710
C18 C 0.4291(4) -0.1230(4) 0.1635(4)
H15 H 0.3538 -0.1551 0.1110
C19 C 0.5692(10) -0.1522(8) 0.4442(5)
H16 H 0.5661 -0.0798 0.4959
H17 H 0.6562 -0.1911 0.4609
H18 H 0.4953 -0.2113 0.4421
C20 C 0.5020(4) 0.2555(4) 0.1151(3)
C21 C 0.5810(4) 0.3789(4) 0.1589(4)
C22 C 0.6087(5) 0.4330(4) 0.2617(4)
C23 C 0.6809(6) 0.5481(6) 0.2981(6)
H19 H 0.7002 0.5817 0.3684
C24 C 0.7238(7) 0.6121(5) 0.2273(8)
H20 H 0.7687 0.6910 0.2496
C25 C 0.7003(7) 0.5596(5) 0.1265(8)
H21 H 0.7325 0.6017 0.0802
C26 C 0.6294(6) 0.4445(5) 0.0901(5)
H22 H 0.6137 0.4106 0.0199
O5 O 0.2518(3) 0.0450(3) -0.0021(2)
H23 H 0.211(4) 0.080(4) -0.053(3)
H24 H 0.287(6) 0.108(4) 0.044(4)
Br2A Br -0.06827(11) 0.13408(10) -0.38774(6)
O1A O -0.0653(3) 0.1389(2) -0.0762(2)
O3A O 0.1075(4) 0.1545(4) -0.1574(3)
N1A N -0.0209(3) -0.1187(3) -0.1334(3)
C1A C 0.0782(4) -0.1985(4) -0.1495(4)
H1A H 0.1545 -0.2012 -0.0958
C2A C 0.0711(5) -0.2771(5) -0.2432(4)
H2A H 0.1413 -0.3325 -0.2512
C3A C -0.0388(6) -0.2739(4) -0.3245(4)
C4A C -0.1421(6) -0.1947(5) -0.3063(4)
H3A H -0.2211 -0.1930 -0.3580
C5A C -0.1292(5) -0.1180(4) -0.2121(3)
H4A H -0.1991 -0.0629 -0.2026
C6A C -0.0463(9) -0.3583(7) -0.4281(5)
H5A H -0.1380 -0.3955 -0.4534
H6A H -0.0245 -0.3092 -0.4768
H7A H 0.0187 -0.4236 -0.4196
C7A C -0.0049(4) 0.1830(4) -0.1384(3)
C8A C -0.0837(5) 0.2833(5) -0.1907(5)
C9A C -0.1153(5) 0.2740(6) -0.2984(5)
C10A C -0.1929(7) 0.3688(11) -0.3432(9)
H8A H -0.2166 0.3629 -0.4150
C11A C -0.2328(8) 0.4691(11) -0.2811(12)
H9A H -0.2831 0.5315 -0.3110
C12A C -0.2001(9) 0.4789(8) -0.1763(12)
H10A H -0.2256 0.5491 -0.1350
C13A C -0.1284(7) 0.3843(5) -0.1300(7)
H11A H -0.1108 0.3893 -0.0583
O5A O -0.2518(3) -0.0450(3) 0.0021(2)
H23A H -0.211(4) -0.080(4) 0.053(3)
H24A H -0.287(6) -0.108(4) -0.044(4)
Br1A Br 0.44028(8) -0.34640(8) -0.36323(5)
O2A O 0.4373(3) -0.1757(2) -0.0622(2)
O4A O 0.6145(4) -0.2415(4) -0.1330(4)
C20A C 0.4980(4) -0.2555(4) -0.1151(3)
C21A C 0.4190(4) -0.3789(4) -0.1589(4)
C22A C 0.3913(5) -0.4330(4) -0.2617(4)
C23A C 0.3191(6) -0.5481(6) -0.2981(6)
H19A H 0.2998 -0.5817 -0.3684
C24A C 0.2762(7) -0.6121(5) -0.2273(8)
H20A H 0.2313 -0.6910 -0.2496
C25A C 0.2997(7) -0.5596(5) -0.1265(8)
H21A H 0.2675 -0.6017 -0.0802
C26A C 0.3706(6) -0.4445(5) -0.0901(5)
H22A H 0.3863 -0.4106 -0.0199
N2A N 0.4779(3) 0.0453(3) -0.1425(3)
C14A C 0.3712(5) 0.0014(5) -0.2195(4)
H12A H 0.3056 -0.0523 -0.2065
C15A C 0.3534(6) 0.0319(5) -0.3176(4)
H13A H 0.2777 -0.0020 -0.3690
C16A C 0.4468(6) 0.1118(5) -0.3394(4)
C17A C 0.5591(6) 0.1569(6) -0.2594(4)
H14A H 0.6264 0.2101 -0.2710
C18A C 0.5709(4) 0.1230(4) -0.1635(4)
H15A H 0.6462 0.1551 -0.1110
C19A C 0.4308(10) 0.1522(8) -0.4442(5)
H16A H 0.4339 0.0798 -0.4959
H17A H 0.3438 0.1911 -0.4609
H18A H 0.5047 0.2113 -0.4421
Cu2_2 Cu -0.5000 0.0000 0.0000
O5A_2 O 0.7482(3) -0.0450(3) 0.0021(2)
loop_
_geom_bond_atom_site_label_1
_geom_bond_atom_site_label_2
_geom_bond_site_symmetry_1
_geom_bond_site_symmetry_2
Cu1 O1 1_555 1_555
Cu2 O2 1_555 1_555
Br1 C22 1_555 1_555
Br2 C9 1_555 1_555
O1 C7 1_555 1_555
O2 C20 1_555 1_555
O3 C7 1_555 1_555
O4 C20 1_555 1_555
N1 Cu1 1_555 1_555
N2 Cu2 1_555 1_555
C1 N1 1_555 1_555
H1 C1 1_555 1_555
C2 C1 1_555 1_555
H2 C2 1_555 1_555
C3 C2 1_555 1_555
C4 C3 1_555 1_555
H3 C4 1_555 1_555
C5 N1 1_555 1_555
H4 C5 1_555 1_555
C6 C3 1_555 1_555
H5 C6 1_555 1_555
H6 C6 1_555 1_555
H7 C6 1_555 1_555
C7 C8 1_555 1_555
C8 C9 1_555 1_555
C9 C10 1_555 1_555
C10 H8 1_555 1_555
C11 C10 1_555 1_555
H9 C11 1_555 1_555
C12 C11 1_555 1_555
H10 C12 1_555 1_555
C13 C8 1_555 1_555
H11 C13 1_555 1_555
C14 N2 1_555 1_555
H12 C14 1_555 1_555
C15 C14 1_555 1_555
H13 C15 1_555 1_555
C16 C15 1_555 1_555
C17 C16 1_555 1_555
H14 C17 1_555 1_555
C18 N2 1_555 1_555
H15 C18 1_555 1_555
C19 C16 1_555 1_555
H16 C19 1_555 1_555
H17 C19 1_555 1_555
H18 C19 1_555 1_555
C20 C21 1_555 1_555
C21 C22 1_555 1_555
C22 C23 1_555 1_555
C23 H19 1_555 1_555
C24 C23 1_555 1_555
H20 C24 1_555 1_555
C25 C24 1_555 1_555
H21 C25 1_555 1_555
C26 C21 1_555 1_555
H22 C26 1_555 1_555
O5 Cu1 1_555 1_555
H23 O5 1_555 1_555
H24 O5 1_555 1_555
Br2A C9A 1_555 1_555
O1A Cu1 1_555 1_555
O3A C7A 1_555 1_555
N1A Cu1 1_555 1_555
C1A N1A 1_555 1_555
H1A C1A 1_555 1_555
C2A C1A 1_555 1_555
H2A C2A 1_555 1_555
C3A C2A 1_555 1_555
C4A C3A 1_555 1_555
H3A C4A 1_555 1_555
C5A N1A 1_555 1_555
H4A C5A 1_555 1_555
C6A C3A 1_555 1_555
H5A C6A 1_555 1_555
H6A C6A 1_555 1_555
H7A C6A 1_555 1_555
C7A O1A 1_555 1_555
C8A C7A 1_555 1_555
C9A C8A 1_555 1_555
C10A C9A 1_555 1_555
H8A C10A 1_555 1_555
C11A C10A 1_555 1_555
H9A C11A 1_555 1_555
C12A C11A 1_555 1_555
H10A C12A 1_555 1_555
C13A C8A 1_555 1_555
H11A C13A 1_555 1_555
O5A Cu1 1_555 1_555
H23A O5A 1_555 1_555
H24A O5A 1_555 1_555
Br1A C22A 1_555 1_555
O2A Cu2 1_555 1_555
O4A C20A 1_555 1_555
C20A O2A 1_555 1_555
C21A C20A 1_555 1_555
C22A C21A 1_555 1_555
C23A C22A 1_555 1_555
H19A C23A 1_555 1_555
C24A C23A 1_555 1_555
H20A C24A 1_555 1_555
C25A C24A 1_555 1_555
H21A C25A 1_555 1_555
C26A C21A 1_555 1_555
H22A C26A 1_555 1_555
N2A Cu2 1_555 1_555
C14A N2A 1_555 1_555
H12A C14A 1_555 1_555
C15A C14A 1_555 1_555
H13A C15A 1_555 1_555
C16A C15A 1_555 1_555
C17A C16A 1_555 1_555
H14A C17A 1_555 1_555
C18A N2A 1_555 1_555
H15A C18A 1_555 1_555
C19A C16A 1_555 1_555
H16A C19A 1_555 1_555
H17A C19A 1_555 1_555
H18A C19A 1_555 1_555
Cu2_2 O5A 1_555 1_555
O5A_2 Cu2 1_555 1_555
Cu2 O5 1_555 1_555
C4 C5 1_555 1_555
C12 C13 1_555 1_555
C17 C18 1_555 1_555
C25 C26 1_555 1_555
C4A C5A 1_555 1_555
C12A C13A 1_555 1_555
C25A C26A 1_555 1_555
C17A C18A 1_555 1_555

#END
