
#######################################################################
#
#                 Cambridge Crystallographic Data Centre
#                                CCDC 
#
#######################################################################
#
# If this CIF has been generated from an entry in the Cambridge 
# Structural Database, then it will include bibliographic, chemical, 
# crystal, experimental, refinement or atomic coordinate data resulting 
# from the CCDC's data processing and validation procedures.
#
#######################################################################

data_GIWZOC
_symmetry_cell_setting           orthorhombic
_symmetry_space_group_name_H-M   'P 21 21 21'
_symmetry_Int_Tables_number      19
_space_group_name_Hall           'P 2ac 2ab'
loop_
_symmetry_equiv_pos_site_id
_symmetry_equiv_pos_as_xyz
1 x,y,z
2 1/2-x,-y,1/2+z
3 -x,1/2+y,1/2-z
4 1/2+x,1/2-y,-z
_cell_length_a                   9.863(2)
_cell_length_b                   12.442(3)
_cell_length_c                   20.895(5)
_cell_angle_alpha                90
_cell_angle_beta                 90
_cell_angle_gamma                90
_cell_volume                     2564.14
loop_
_atom_site_label
_atom_site_type_symbol
_atom_site_fract_x
_atom_site_fract_y
_atom_site_fract_z
W1 W 0.231940(19) 0.010460(17) 0.396180(9)
Cu1 Cu 0.38817(10) -0.09645(7) 0.31454(5)
Cu2 Cu 0.37134(10) 0.13356(7) 0.31482(5)
B1 B -0.0680(7) -0.0135(7) 0.4767(3)
S1 S 0.21805(14) 0.01001(14) 0.28458(6)
S2 S 0.38043(19) -0.11871(15) 0.41889(9)
S3 S 0.34391(18) 0.15998(14) 0.41853(9)
N1 N 0.0377(5) 0.1135(3) 0.3970(3)
N2 N -0.0717(5) 0.0871(4) 0.4357(3)
N3 N 0.1818(4) 0.0053(4) 0.50109(18)
N4 N 0.0506(4) -0.0043(5) 0.52329(19)
N5 N 0.0634(5) -0.1195(4) 0.3976(3)
N6 N -0.0508(6) -0.1097(4) 0.4343(3)
N7 N 0.5505(6) -0.2546(5) 0.2375(3)
N8 N 0.5891(6) 0.0433(6) 0.3127(3)
C1 C -0.1726(7) 0.1585(5) 0.4266(4)
C2 C -0.1290(7) 0.2304(5) 0.3816(4)
H1 H -0.1784 0.2876 0.3650
C3 C 0.0012(8) 0.2023(5) 0.3654(4)
C4 C -0.3044(6) 0.1545(6) 0.4615(4)
H2 H -0.3509 0.0890 0.4511
H3 H -0.3592 0.2148 0.4492
H4 H -0.2880 0.1571 0.5068
C5 C 0.0874(7) 0.2642(5) 0.3191(4)
H5 H 0.1670 0.2901 0.3406
H6 H 0.0367 0.3240 0.3026
H7 H 0.1138 0.2181 0.2844
C6 C 0.0536(6) -0.0066(6) 0.5882(2)
C7 C 0.1838(5) 0.0038(5) 0.6073(2)
H8 H 0.2141 0.0062 0.6494
C8 C 0.2638(5) 0.0101(5) 0.5531(2)
C9 C -0.0732(6) -0.0131(8) 0.6280(3)
H9 H -0.1315 -0.0681 0.6112
H10 H -0.1193 0.0548 0.6269
H11 H -0.0496 -0.0303 0.6714
C10 C 0.4149(5) 0.0211(6) 0.5519(3)
H12 H 0.4539 -0.0408 0.5316
H13 H 0.4484 0.0268 0.5949
H14 H 0.4392 0.0845 0.5284
C11 C -0.1354(7) -0.1924(5) 0.4233(4)
C12 C -0.0753(7) -0.2573(5) 0.3803(4)
H15 H -0.1106 -0.3213 0.3644
C13 C 0.0463(8) -0.2130(5) 0.3639(3)
C14 C -0.2707(7) -0.2027(5) 0.4553(4)
H16 H -0.2608 -0.1903 0.5004
H17 H -0.3059 -0.2737 0.4484
H18 H -0.3321 -0.1507 0.4377
C15 C 0.1506(7) -0.2630(5) 0.3199(4)
H19 H 0.2340 -0.2732 0.3428
H20 H 0.1660 -0.2164 0.2840
H21 H 0.1180 -0.3312 0.3050
C16 C 0.4896(7) -0.1920(5) 0.2651(3)
C17 C 0.8278(7) -0.0214(7) 0.2828(3)
H22 H 0.8357 -0.0962 0.2935
H23 H 0.8958 0.0187 0.3053
H24 H 0.8403 -0.0124 0.2375
C18 C 0.6954(7) 0.0169(6) 0.3007(3)
H25 H -0.154(5) -0.007(5) 0.500(2)
Cu2B Cu 0.62866(10) -0.36644(7) 0.18518(5)
N7B N 0.4495(6) 0.2454(5) 0.2625(3)
loop_
_geom_bond_atom_site_label_1
_geom_bond_atom_site_label_2
_geom_bond_site_symmetry_1
_geom_bond_site_symmetry_2
W1 S1 1_555 1_555
Cu1 S1 1_555 1_555
Cu2 S1 1_555 1_555
B1 N2 1_555 1_555
S2 W1 1_555 1_555
S3 W1 1_555 1_555
N1 W1 1_555 1_555
N2 N1 1_555 1_555
N3 W1 1_555 1_555
N4 B1 1_555 1_555
N5 W1 1_555 1_555
N6 B1 1_555 1_555
N7 C16 1_555 1_555
N8 Cu2 1_555 1_555
C1 N2 1_555 1_555
C2 C1 1_555 1_555
H1 C2 1_555 1_555
C3 N1 1_555 1_555
C4 C1 1_555 1_555
H2 C4 1_555 1_555
H3 C4 1_555 1_555
H4 C4 1_555 1_555
C5 C3 1_555 1_555
H5 C5 1_555 1_555
H6 C5 1_555 1_555
H7 C5 1_555 1_555
C6 N4 1_555 1_555
C7 C6 1_555 1_555
H8 C7 1_555 1_555
C8 N3 1_555 1_555
C9 C6 1_555 1_555
H9 C9 1_555 1_555
H10 C9 1_555 1_555
H11 C9 1_555 1_555
C10 C8 1_555 1_555
H12 C10 1_555 1_555
H13 C10 1_555 1_555
H14 C10 1_555 1_555
C11 N6 1_555 1_555
C12 C11 1_555 1_555
H15 C12 1_555 1_555
C13 N5 1_555 1_555
C14 C11 1_555 1_555
H16 C14 1_555 1_555
H17 C14 1_555 1_555
H18 C14 1_555 1_555
C15 C13 1_555 1_555
H19 C15 1_555 1_555
H20 C15 1_555 1_555
H21 C15 1_555 1_555
C16 Cu1 1_555 1_555
C17 H22 1_555 1_555
H23 C17 1_555 1_555
H24 C17 1_555 1_555
C18 N8 1_555 1_555
H25 B1 1_555 1_555
Cu2B N7 1_555 1_555
N7B Cu2 1_555 1_555
Cu1 S2 1_555 1_555
Cu2 S3 1_555 1_555
N3 N4 1_555 1_555
N5 N6 1_555 1_555
C2 C3 1_555 1_555
C7 C8 1_555 1_555
C12 C13 1_555 1_555
C17 C18 1_555 1_555

#END
