
#######################################################################
#
#                 Cambridge Crystallographic Data Centre
#                                CCDC 
#
#######################################################################
#
# If this CIF has been generated from an entry in the Cambridge 
# Structural Database, then it will include bibliographic, chemical, 
# crystal, experimental, refinement or atomic coordinate data resulting 
# from the CCDC's data processing and validation procedures.
#
#######################################################################

data_GIWZIX
_symmetry_cell_setting           monoclinic
_symmetry_space_group_name_H-M   'P 21/c'
_symmetry_Int_Tables_number      14
_space_group_name_Hall           '-P 2ybc'
loop_
_symmetry_equiv_pos_site_id
_symmetry_equiv_pos_as_xyz
1 x,y,z
2 -x,1/2+y,1/2-z
3 -x,-y,-z
4 x,1/2-y,1/2+z
_cell_length_a                   7.3897(15)
_cell_length_b                   7.8417(16)
_cell_length_c                   17.087(3)
_cell_angle_alpha                90
_cell_angle_beta                 101.24(3)
_cell_angle_gamma                90
_cell_volume                     971.162
loop_
_atom_site_label
_atom_site_type_symbol
_atom_site_fract_x
_atom_site_fract_y
_atom_site_fract_z
Sr1 Sr 0.41105(3) 0.31899(3) 0.226479(15)
Cl1 Cl 0.33429(9) 0.58940(8) 0.34645(4)
Cl2 Cl 0.23885(8) -0.02657(8) 0.20212(4)
O1 O 0.4411(3) 0.6151(2) 0.15303(12)
N1 N 0.2790(3) 0.3495(3) 0.06885(15)
N2 N 0.4086(4) 0.7842(3) 0.04471(16)
H1 H 0.463(5) 0.858(5) 0.073(2)
H2 H 0.378(5) 0.794(4) -0.007(2)
C1 C 0.3846(4) 0.6380(4) 0.08028(17)
C2 C 0.2841(4) 0.4972(3) 0.02990(16)
C3 C 0.1920(4) 0.2182(4) 0.02797(18)
H3 H 0.1875 0.1154 0.0547
C4 C 0.2041(4) 0.5165(4) -0.05019(18)
H4 H 0.2106 0.6204 -0.0758
C5 C 0.1084(4) 0.2259(4) -0.05157(18)
H5 H 0.0498 0.1310 -0.0776
O2 O 0.0655(3) 0.3235(3) 0.21902(16)
H6 H 0.014(6) 0.378(5) 0.241(2)
H7 H 0.018(6) 0.242(5) 0.205(2)
C6 C 0.1142(4) 0.3786(4) -0.09144(18)
H8 H 0.0589 0.3887 -0.1450
Sr1A Sr 0.58895(3) -0.18101(3) 0.273521(15)
Sr1A_2 Sr 0.58895(3) 0.81899(3) 0.273521(15)
Cl1A Cl 0.66571(9) 0.08940(8) 0.15355(4)
Cl2A Cl 0.76115(8) 0.47343(8) 0.29788(4)
O1A O 0.5589(3) 0.1151(2) 0.34697(12)
loop_
_geom_bond_atom_site_label_1
_geom_bond_atom_site_label_2
_geom_bond_site_symmetry_1
_geom_bond_site_symmetry_2
Sr1 Cl1 1_555 1_555
Cl1 Sr1A_2 1_555 1_555
Cl2 Sr1 1_555 1_555
O1 Sr1 1_555 1_555
N1 Sr1 1_555 1_555
N2 H1 1_555 1_555
H2 N2 1_555 1_555
C1 O1 1_555 1_555
C2 N1 1_555 1_555
C3 N1 1_555 1_555
H3 C3 1_555 1_555
C4 C2 1_555 1_555
H4 C4 1_555 1_555
C5 C3 1_555 1_555
H5 C5 1_555 1_555
O2 Sr1 1_555 1_555
H6 O2 1_555 1_555
H7 O2 1_555 1_555
C6 C4 1_555 1_555
H8 C6 1_555 1_555
Sr1A Cl2 1_555 1_555
Sr1A_2 O1 1_555 1_555
Cl1A Sr1 1_555 1_555
Cl2A Sr1 1_555 1_555
O1A Sr1 1_555 1_555
N2 C1 1_555 1_555
C1 C2 1_555 1_555
C5 C6 1_555 1_555
Sr1A Cl1A 1_555 1_555
Sr1A O1A 1_555 1_555
Sr1A_2 Cl2A 1_555 1_555

#END
