
#######################################################################
#
#                 Cambridge Crystallographic Data Centre
#                                CCDC 
#
#######################################################################
#
# If this CIF has been generated from an entry in the Cambridge 
# Structural Database, then it will include bibliographic, chemical, 
# crystal, experimental, refinement or atomic coordinate data resulting 
# from the CCDC's data processing and validation procedures.
#
#######################################################################

data_GIXCEV02
_symmetry_cell_setting           orthorhombic
_symmetry_space_group_name_H-M   'I b c a'
_symmetry_Int_Tables_number      73
_space_group_name_Hall           '-I 2b 2c'
loop_
_symmetry_equiv_pos_site_id
_symmetry_equiv_pos_as_xyz
1 x,y,z
2 1/2-x,-y,1/2+z
3 -x,1/2+y,1/2-z
4 1/2+x,1/2-y,-z
5 1/2+x,1/2+y,1/2+z
6 -x,1/2-y,z
7 1/2-x,y,-z
8 x,-y,1/2-z
9 -x,-y,-z
10 1/2+x,y,1/2-z
11 x,1/2-y,1/2+z
12 1/2-x,1/2+y,z
13 1/2-x,1/2-y,1/2-z
14 x,1/2+y,-z
15 1/2+x,-y,z
16 -x,y,1/2+z
_cell_length_a                   11.533(5)
_cell_length_b                   15.321(7)
_cell_length_c                   39.235(17)
_cell_angle_alpha                90
_cell_angle_beta                 90
_cell_angle_gamma                90
_cell_volume                     6932.71
loop_
_atom_site_label
_atom_site_type_symbol
_atom_site_fract_x
_atom_site_fract_y
_atom_site_fract_z
P1 P -0.43011(7) 0.13676(5) 0.13226(2)
Cu1 Cu -0.18493(3) 0.06884(3) 0.104197(11)
Mo1 Mo -0.36797(3) 0.318135(19) 0.190976(7)
Mo2 Mo -0.27889(2) 0.316644(18) 0.108449(8)
Mo3 Mo -0.5000 0.2500 0.058410(10)
O1 O -0.3696(2) 0.40404(18) 0.21951(7)
O2 O -0.2604(2) 0.25286(18) 0.20736(7)
O3 O -0.5000 0.2500 0.20351(9)
O4 O -0.36557(19) 0.22254(15) 0.14236(6)
O5 O -0.28212(19) 0.37009(15) 0.15405(6)
O6 O -0.2569(2) 0.41258(17) 0.08687(7)
O7 O -0.1447(2) 0.26819(18) 0.10938(7)
O8 O -0.3405(2) 0.24397(15) 0.07267(6)
O9 O -0.5037(3) 0.16150(19) 0.03163(7)
O10 O -0.52139(19) 0.15550(15) 0.10413(6)
O11 O -0.49358(19) 0.10436(15) 0.16427(6)
O12 O -0.3457(2) 0.06678(15) 0.12017(7)
N1 N -0.2298(3) 0.0840(2) 0.05552(8)
H1 H -0.2596 0.0337 0.0475
H2 H -0.2846 0.1256 0.0538
N2 N -0.0212(3) 0.0703(3) 0.08548(10)
H3 H 0.0147 0.1199 0.0918
H4 H 0.0190 0.0249 0.0939
N3 N -0.1310(3) 0.0638(2) 0.15297(8)
H5 H -0.1946 0.0632 0.1663
H6 H -0.0950 0.0122 0.1560
N4 N 0.0962(4) 0.0477(3) 0.19366(11)
H7 H 0.1314 0.0366 0.2134
H8 H 0.1479 0.0676 0.1787
H9 H 0.0642 -0.0010 0.1857
C1 C -0.1289(4) 0.1087(4) 0.03529(12)
H10 H -0.1183 0.1715 0.0363
H11 H -0.1411 0.0923 0.0117
C2 C -0.0248(4) 0.0648(4) 0.04851(13)
H12 H -0.0253 0.0040 0.0416
H13 H 0.0439 0.0920 0.0390
C3 C -0.0538(5) 0.1321(3) 0.16589(13)
H14 H -0.0981 0.1857 0.1677
H15 H 0.0065 0.1419 0.1491
C4 C 0.0027(4) 0.1159(3) 0.19910(11)
H16 H -0.0538 0.0951 0.2155
H17 H 0.0366 0.1694 0.2078
P1E P -0.56989(7) 0.36324(5) 0.13226(2)
Cu1E Cu -0.81507(3) 0.43116(3) 0.104197(11)
Mo1E Mo -0.63203(3) 0.181865(19) 0.190976(7)
Mo2E Mo -0.72111(2) 0.183356(18) 0.108449(8)
O1E O -0.6304(2) 0.09596(18) 0.21951(7)
O2E O -0.7396(2) 0.24714(18) 0.20736(7)
O4E O -0.63443(19) 0.27746(15) 0.14236(6)
O5E O -0.71788(19) 0.12991(15) 0.15405(6)
O6E O -0.7431(2) 0.08742(17) 0.08687(7)
O7E O -0.8553(2) 0.23181(18) 0.10938(7)
O8E O -0.6595(2) 0.25603(15) 0.07267(6)
O9E O -0.4963(3) 0.33850(19) 0.03163(7)
O10E O -0.47861(19) 0.34450(15) 0.10413(6)
O11E O -0.50642(19) 0.39564(15) 0.16427(6)
O12E O -0.6543(2) 0.43322(15) 0.12017(7)
N1E N -0.7702(3) 0.4160(2) 0.05552(8)
H1E H -0.7404 0.4663 0.0475
H2E H -0.7154 0.3744 0.0538
N2E N -0.9788(3) 0.4297(3) 0.08548(10)
H3E H -1.0147 0.3801 0.0918
H4E H -1.0190 0.4751 0.0939
N3E N -0.8690(3) 0.4362(2) 0.15297(8)
H5E H -0.8054 0.4368 0.1663
H6E H -0.9050 0.4878 0.1560
N4E N -1.0962(4) 0.4523(3) 0.19366(11)
H7E H -1.1314 0.4634 0.2134
H8E H -1.1479 0.4324 0.1787
H9E H -1.0642 0.5010 0.1857
C1E C -0.8711(4) 0.3913(4) 0.03529(12)
H10E H -0.8817 0.3285 0.0363
H11E H -0.8589 0.4077 0.0117
C2E C -0.9752(4) 0.4352(4) 0.04851(13)
H12E H -0.9747 0.4960 0.0416
H13E H -1.0439 0.4080 0.0390
C3E C -0.9462(5) 0.3679(3) 0.16589(13)
H14E H -0.9019 0.3143 0.1677
H15E H -1.0065 0.3581 0.1491
C4E C -1.0027(4) 0.3841(3) 0.19910(11)
H16E H -0.9462 0.4049 0.2155
H17E H -1.0366 0.3306 0.2078
Cu1K Cu -0.31507(3) 0.56884(3) 0.104197(11)
Cu1N Cu -0.68493(3) -0.06884(3) 0.104197(11)
O6K O -0.2431(2) -0.08742(17) 0.08687(7)
O6N O -0.7569(2) 0.58742(17) 0.08687(7)
O13 O 0.2500 0.0866(5) 0.0000
O14 O 0.1903(4) 0.0856(2) 0.26737(10)
loop_
_geom_bond_atom_site_label_1
_geom_bond_atom_site_label_2
_geom_bond_site_symmetry_1
_geom_bond_site_symmetry_2
P1 O4 1_555 1_555
Cu1 O12 1_555 1_555
Mo1 O1 1_555 1_555
Mo2 O4 1_555 1_555
Mo3 O8 1_555 1_555
O2 Mo1 1_555 1_555
O3 Mo1 1_555 1_555
O4 Mo1 1_555 1_555
O5 Mo1 1_555 1_555
O6 Mo2 1_555 1_555
O7 Mo2 1_555 1_555
O8 Mo2 1_555 1_555
O9 Mo3 1_555 1_555
O10 P1 1_555 1_555
O11 P1 1_555 1_555
O12 P1 1_555 1_555
N1 Cu1 1_555 1_555
H1 N1 1_555 1_555
H2 N1 1_555 1_555
N2 Cu1 1_555 1_555
H3 N2 1_555 1_555
H4 N2 1_555 1_555
N3 Cu1 1_555 1_555
H5 N3 1_555 1_555
H6 N3 1_555 1_555
N4 H7 1_555 1_555
H8 N4 1_555 1_555
H9 N4 1_555 1_555
C1 N1 1_555 1_555
H10 C1 1_555 1_555
H11 C1 1_555 1_555
C2 N2 1_555 1_555
H12 C2 1_555 1_555
H13 C2 1_555 1_555
C3 N3 1_555 1_555
H14 C3 1_555 1_555
H15 C3 1_555 1_555
C4 N4 1_555 1_555
H16 C4 1_555 1_555
H17 C4 1_555 1_555
P1E O4E 1_555 1_555
Cu1E O12E 1_555 1_555
Mo1E O3 1_555 1_555
Mo2E O10 1_555 1_555
O1E Mo1E 1_555 1_555
O2E Mo1E 1_555 1_555
O4E Mo1E 1_555 1_555
O5E Mo1E 1_555 1_555
O6E Mo2E 1_555 1_555
O7E Mo2E 1_555 1_555
O8E Mo3 1_555 1_555
O9E Mo3 1_555 1_555
O10E Mo2 1_555 1_555
O11E Mo1 1_555 1_555
O12E P1E 1_555 1_555
N1E Cu1E 1_555 1_555
H1E N1E 1_555 1_555
H2E N1E 1_555 1_555
N2E Cu1E 1_555 1_555
H3E N2E 1_555 1_555
H4E N2E 1_555 1_555
N3E Cu1E 1_555 1_555
H5E N3E 1_555 1_555
H6E N3E 1_555 1_555
N4E H7E 1_555 1_555
H8E N4E 1_555 1_555
H9E N4E 1_555 1_555
C1E N1E 1_555 1_555
H10E C1E 1_555 1_555
H11E C1E 1_555 1_555
C2E N2E 1_555 1_555
H12E C2E 1_555 1_555
H13E C2E 1_555 1_555
C3E N3E 1_555 1_555
H14E C3E 1_555 1_555
H15E C3E 1_555 1_555
C4E N4E 1_555 1_555
H16E C4E 1_555 1_555
H17E C4E 1_555 1_555
Cu1K O6 1_555 1_555
Cu1N O6E 1_555 1_555
O6K Cu1 1_555 1_555
O6N Cu1E 1_555 1_555
Mo2 O5 1_555 1_555
Mo3 O10 1_555 1_555
Mo3 O10E 1_555 1_555
O11 Mo1E 1_555 1_555
C1 C2 1_555 1_555
C3 C4 1_555 1_555
P1E O10E 1_555 1_555
P1E O11E 1_555 1_555
Mo2E O4E 1_555 1_555
Mo2E O5E 1_555 1_555
Mo2E O8E 1_555 1_555
C1E C2E 1_555 1_555
C3E C4E 1_555 1_555

#END
