
#######################################################################
#
#                 Cambridge Crystallographic Data Centre
#                                CCDC 
#
#######################################################################
#
# If this CIF has been generated from an entry in the Cambridge 
# Structural Database, then it will include bibliographic, chemical, 
# crystal, experimental, refinement or atomic coordinate data resulting 
# from the CCDC's data processing and validation procedures.
#
#######################################################################

data_GIXGOK
_symmetry_cell_setting           cubic
_symmetry_space_group_name_H-M   'I m -3 m'
_symmetry_Int_Tables_number      229
_space_group_name_Hall           '-I 4 2 3'
loop_
_symmetry_equiv_pos_site_id
_symmetry_equiv_pos_as_xyz
1 x,y,z
2 z,x,y
3 y,z,x
4 y,x,-z
5 y,-x,z
6 -y,x,z
7 x,z,-y
8 -x,z,y
9 x,-z,y
10 z,y,-x
11 z,-y,x
12 -z,y,x
13 1/2+x,1/2+y,1/2+z
14 1/2+z,1/2+x,1/2+y
15 1/2+y,1/2+z,1/2+x
16 1/2+y,1/2+x,1/2-z
17 1/2+y,1/2-x,1/2+z
18 1/2-y,1/2+x,1/2+z
19 1/2+x,1/2+z,1/2-y
20 1/2-x,1/2+z,1/2+y
21 1/2+x,1/2-z,1/2+y
22 1/2+z,1/2+y,1/2-x
23 1/2+z,1/2-y,1/2+x
24 1/2-z,1/2+y,1/2+x
25 -x,-y,z
26 -x,y,-z
27 x,-y,-z
28 z,-x,-y
29 -z,-x,y
30 -z,x,-y
31 -y,z,-x
32 y,-z,-x
33 -y,-z,x
34 -y,-x,-z
35 -x,-z,-y
36 -z,-y,-x
37 1/2-x,1/2-y,1/2+z
38 1/2-x,1/2+y,1/2-z
39 1/2+x,1/2-y,1/2-z
40 1/2+z,1/2-x,1/2-y
41 1/2-z,1/2-x,1/2+y
42 1/2-z,1/2+x,1/2-y
43 1/2-y,1/2+z,1/2-x
44 1/2+y,1/2-z,1/2-x
45 1/2-y,1/2-z,1/2+x
46 1/2-y,1/2-x,1/2-z
47 1/2-x,1/2-z,1/2-y
48 1/2-z,1/2-y,1/2-x
49 -x,-y,-z
50 -z,-x,-y
51 -y,-z,-x
52 -y,-x,z
53 -y,x,-z
54 y,-x,-z
55 -x,-z,y
56 x,-z,-y
57 -x,z,-y
58 -z,-y,x
59 -z,y,-x
60 z,-y,-x
61 1/2-x,1/2-y,1/2-z
62 1/2-z,1/2-x,1/2-y
63 1/2-y,1/2-z,1/2-x
64 1/2-y,1/2-x,1/2+z
65 1/2-y,1/2+x,1/2-z
66 1/2+y,1/2-x,1/2-z
67 1/2-x,1/2-z,1/2+y
68 1/2+x,1/2-z,1/2-y
69 1/2-x,1/2+z,1/2-y
70 1/2-z,1/2-y,1/2+x
71 1/2-z,1/2+y,1/2-x
72 1/2+z,1/2-y,1/2-x
73 x,y,-z
74 x,-y,z
75 -x,y,z
76 -z,x,y
77 z,x,-y
78 z,-x,y
79 y,-z,x
80 -y,z,x
81 y,z,-x
82 y,x,z
83 x,z,y
84 z,y,x
85 1/2+x,1/2+y,1/2-z
86 1/2+x,1/2-y,1/2+z
87 1/2-x,1/2+y,1/2+z
88 1/2-z,1/2+x,1/2+y
89 1/2+z,1/2+x,1/2-y
90 1/2+z,1/2-x,1/2+y
91 1/2+y,1/2-z,1/2+x
92 1/2-y,1/2+z,1/2+x
93 1/2+y,1/2+z,1/2-x
94 1/2+y,1/2+x,1/2+z
95 1/2+x,1/2+z,1/2+y
96 1/2+z,1/2+y,1/2+x
_cell_length_a                   30.1740(10)
_cell_length_b                   30.1740(10)
_cell_length_c                   30.1740(10)
_cell_angle_alpha                90
_cell_angle_beta                 90
_cell_angle_gamma                90
_cell_volume                     27472.5
loop_
_atom_site_label
_atom_site_type_symbol
_atom_site_fract_x
_atom_site_fract_y
_atom_site_fract_z
Cd1 Cd 0.10487(2) 0.2500 0.39513(2)
C1 C 0.0000 0.2290(4) 0.3825(4)
C2 C 0.0000 0.2755(4) 0.4031(3)
C3 C 0.0394(3) 0.3343(3) 0.4288(3)
H1 H 0.0663 0.3481 0.4350
C4 C 0.0000 0.3561(4) 0.4384(4)
H2 H 0.0000 0.3844 0.4508
C5 C 0.1636(3) 0.1636(3) 0.3760(3)
C6 C 0.1975(3) 0.1975(3) 0.3939(4)
C7 C 0.2118(3) 0.2680(3) 0.4148(3)
H3 H 0.2028 0.2971 0.4198
C8 C 0.2553(3) 0.2553(3) 0.4220(5)
H4 H 0.2761 0.2761 0.4316
N1 N 0.0393(2) 0.2934(2) 0.4106(2)
N2 N 0.1832(2) 0.2381(2) 0.4009(2)
O1 O 0.03698(16) 0.21146(16) 0.37510(17)
O2 O 0.12535(17) 0.17734(15) 0.36993(17)
Cd1VB Cd -0.10487(2) 0.2500 0.39513(2)
Cd1CC Cd 0.2500 0.10487(2) 0.39513(2)
C3VB C -0.0394(3) 0.3343(3) 0.4288(3)
H1VB H -0.0663 0.3481 0.4350
C7CC C 0.2680(3) 0.2118(3) 0.4148(3)
H3CC H 0.2971 0.2028 0.4198
N1UA N 0.0894(2) 0.2066(2) 0.4607(2)
N1VB N -0.0393(2) 0.2934(2) 0.4106(2)
N2UA N 0.0991(2) 0.2619(2) 0.3168(2)
N2CC N 0.2381(2) 0.1832(2) 0.4009(2)
O1UA O 0.12490(17) 0.28854(16) 0.46302(16)
O1VB O -0.03698(16) 0.21146(16) 0.37510(17)
O2UA O 0.13007(17) 0.32266(15) 0.37465(17)
O2CC O 0.17734(15) 0.12535(17) 0.36993(17)
O3 O 0.2500 0.2500 0.2500
O4 O 0.2073(13) 0.2073(13) 0.2777(17)
O5 O 0.0000 0.0000 0.304(2)
O6 O -0.0539(5) 0.0539(5) 0.4302(7)
O7 O 0.0000 0.090(3) 0.403(4)
O8 O 0.0452(7) 0.1203(6) 0.3507(7)
O9 O 0.157(2) 0.157(2) 0.246(3)
O10 O 0.1126(15) 0.1126(15) 0.241(2)
O11 O 0.2663(14) 0.3647(15) 0.4508(14)
O12? O 0.0000 0.0000 0.254(2)
O13? O -0.0202(5) 0.0738(5) 0.4314(6)
O14? O 0.0879(10) 0.0879(10) 0.3611(16)
O15? O 0.0000 0.1266(11) 0.3503(12)
O16? O 0.0255(10) 0.1372(10) 0.3207(10)
O17? O 0.1138(8) 0.0778(9) 0.3263(9)
O18? O 0.113(4) 0.113(4) 0.210(8)
O19? O 0.271(2) 0.3499(19) 0.5000
loop_
_geom_bond_atom_site_label_1
_geom_bond_atom_site_label_2
_geom_bond_site_symmetry_1
_geom_bond_site_symmetry_2
Cd1 N1 1_555 1_555
C1 C2 1_555 1_555
C2 N1 1_555 1_555
C3 H1 1_555 1_555
C4 C3 1_555 1_555
H2 C4 1_555 1_555
C5 C6 1_555 1_555
C6 N2 1_555 1_555
C7 H3 1_555 1_555
C8 C7 1_555 1_555
H4 C8 1_555 1_555
N1 C3 1_555 1_555
N2 Cd1 1_555 1_555
O1 Cd1 1_555 1_555
O2 Cd1 1_555 1_555
Cd1VB N1VB 1_555 1_555
Cd1CC N2CC 1_555 1_555
C3VB C4 1_555 1_555
H1VB C3VB 1_555 1_555
C7CC C8 1_555 1_555
H3CC C7CC 1_555 1_555
N1UA Cd1 1_555 1_555
N1VB C2 1_555 1_555
N2UA Cd1 1_555 1_555
N2CC C6 1_555 1_555
O1UA Cd1 1_555 1_555
O1VB C1 1_555 1_555
O2UA Cd1 1_555 1_555
O2CC C5 1_555 1_555
C1 O1 1_555 1_555
C5 O2 1_555 1_555
C7 N2 1_555 1_555
Cd1VB O1VB 1_555 1_555
Cd1CC O2CC 1_555 1_555
C3VB N1VB 1_555 1_555
C7CC N2CC 1_555 1_555

#END
