
#######################################################################
#
#                 Cambridge Crystallographic Data Centre
#                                CCDC 
#
#######################################################################
#
# If this CIF has been generated from an entry in the Cambridge 
# Structural Database, then it will include bibliographic, chemical, 
# crystal, experimental, refinement or atomic coordinate data resulting 
# from the CCDC's data processing and validation procedures.
#
#######################################################################

data_GIXGUR01
_symmetry_cell_setting           orthorhombic
_symmetry_space_group_name_H-M   'P b c a'
_symmetry_Int_Tables_number      61
_space_group_name_Hall           '-P 2ac 2ab'
loop_
_symmetry_equiv_pos_site_id
_symmetry_equiv_pos_as_xyz
1 x,y,z
2 1/2-x,-y,1/2+z
3 -x,1/2+y,1/2-z
4 1/2+x,1/2-y,-z
5 -x,-y,-z
6 1/2+x,y,1/2-z
7 x,1/2-y,1/2+z
8 1/2-x,1/2+y,z
_cell_length_a                   19.431(6)
_cell_length_b                   24.723(8)
_cell_length_c                   27.968(9)
_cell_angle_alpha                90
_cell_angle_beta                 90
_cell_angle_gamma                90
_cell_volume                     13435.6
loop_
_atom_site_label
_atom_site_type_symbol
_atom_site_fract_x
_atom_site_fract_y
_atom_site_fract_z
C46 C 0.1546(11) 0.2414(6) 0.3942(5)
H67 H 0.1478 0.2147 0.4182
C47 C 0.2783(9) 0.2353(6) 0.4102(5)
H68 H 0.2620 0.2200 0.4409
H69 H 0.3107 0.2652 0.4168
C48 C 0.3109(12) 0.1932(6) 0.3805(5)
H70 H 0.3500 0.1776 0.3978
H71 H 0.3271 0.2094 0.3505
H72 H 0.2773 0.1648 0.3734
C49 C 0.2348(6) 0.2894(5) 0.3420(4)
H73 H 0.1928 0.2943 0.3224
H74 H 0.2714 0.2740 0.3214
C50 C 0.2575(8) 0.3425(5) 0.3618(4)
H75 H 0.2714 0.3664 0.3355
H76 H 0.2966 0.3369 0.3834
H77 H 0.2195 0.3591 0.3794
N4 N 0.2210(6) 0.2536(5) 0.3812(3)
O14 O 0.1061(5) 0.2619(4) 0.3775(3)
C1 C 0.0180(3) 1.0177(2) 0.1542(2)
C2 C -0.0525(4) 1.0169(3) 0.1316(7)
C3 C -0.0883(4) 1.0684(4) 0.1308(5)
H1 H -0.0991 1.0795 0.1636
H2 H -0.1310 1.0648 0.1124
H3 H -0.0588 1.0958 0.1158
C4 C -0.0888(5) 0.9665(4) 0.1389(6)
H4 H -0.0987 0.9620 0.1731
H5 H -0.0602 0.9364 0.1278
H6 H -0.1320 0.9670 0.1209
C5 C -0.0396(14) 1.0102(15) 0.0760(6)
H7 H -0.0278 0.9724 0.0689
H8 H -0.0016 1.0337 0.0661
H9 H -0.0814 1.0201 0.0584
C6 C 0.1359(3) 1.0242(2) 0.26665(19)
C7 C 0.1405(3) 1.0269(3) 0.32042(19)
C8 C 0.1190(8) 0.9762(4) 0.3434(3)
H10 H 0.0722 0.9670 0.3332
H11 H 0.1200 0.9806 0.3782
H12 H 0.1505 0.9471 0.3341
C9 C 0.0939(6) 1.0705(3) 0.3396(3)
H13 H 0.0458 1.0606 0.3336
H14 H 0.1042 1.1048 0.3237
H15 H 0.1013 1.0744 0.3741
C10 C 0.2115(6) 1.0411(9) 0.3321(4)
H16 H 0.2426 1.0138 0.3188
H17 H 0.2170 1.0425 0.3669
H18 H 0.2224 1.0765 0.3184
C11 C 0.1801(3) 0.9267(2) 0.07683(19)
C12 C 0.1704(4) 0.8864(3) 0.0354(3)
C13 C 0.2068(5) 0.9072(5) -0.0104(3)
H19 H 0.1998 0.8813 -0.0365
H20 H 0.2562 0.9112 -0.0042
H21 H 0.1874 0.9423 -0.0195
C14 C 0.0971(5) 0.8761(5) 0.0276(4)
H22 H 0.0760 0.8637 0.0575
H23 H 0.0916 0.8482 0.0031
H24 H 0.0745 0.9095 0.0171
C15 C 0.1975(8) 0.8320(4) 0.0506(4)
H25 H 0.1744 0.8206 0.0801
H26 H 0.2471 0.8345 0.0563
H27 H 0.1885 0.8054 0.0254
C16 C 0.2952(3) 0.9290(3) 0.18151(18)
C17 C 0.3480(4) 0.8844(4) 0.1952(3)
C18 C 0.3357(5) 0.8673(4) 0.2467(3)
H28 H 0.3440 0.8981 0.2680
H29 H 0.3671 0.8377 0.2550
H30 H 0.2880 0.8551 0.2504
C19 C 0.4193(4) 0.9034(6) 0.1868(5)
H31 H 0.4254 0.9114 0.1527
H32 H 0.4518 0.8753 0.1965
H33 H 0.4277 0.9363 0.2055
C20 C 0.3331(9) 0.8347(5) 0.1620(6)
H34 H 0.3416 0.8448 0.1286
H35 H 0.2849 0.8236 0.1657
H36 H 0.3633 0.8046 0.1709
C21 C 0.1741(3) 1.1100(2) 0.0713(2)
C22 C 0.1573(5) 1.1447(4) 0.0280(3)
C23 C 0.0832(6) 1.1564(8) 0.0254(5)
H37 H 0.0739 1.1791 -0.0025
H38 H 0.0688 1.1754 0.0545
H39 H 0.0576 1.1224 0.0226
C24 C 0.1723(11) 1.1164(6) -0.0157(4)
H40 H 0.2217 1.1085 -0.0173
H41 H 0.1591 1.1389 -0.0431
H42 H 0.1463 1.0824 -0.0165
C25 C 0.1921(15) 1.1940(9) 0.0301(8)
H43 H 0.2411 1.1875 0.0359
H44 H 0.1731 1.2161 0.0560
H45 H 0.1865 1.2132 -0.0004
C26 C 0.2909(3) 1.1181(2) 0.17816(19)
C27 C 0.3415(4) 1.1600(3) 0.1937(3)
C28 C 0.4113(4) 1.1509(5) 0.1801(4)
H46 H 0.4283 1.1180 0.1957
H47 H 0.4395 1.1818 0.1899
H48 H 0.4140 1.1465 0.1453
C29 C 0.3289(5) 1.1761(4) 0.2449(3)
H49 H 0.3375 1.1451 0.2658
H50 H 0.2811 1.1880 0.2486
H51 H 0.3599 1.2058 0.2536
C30 C 0.3247(7) 1.2155(5) 0.1657(6)
H52 H 0.3329 1.2104 0.1314
H53 H 0.3546 1.2444 0.1778
H54 H 0.2764 1.2254 0.1709
C31 C 0.0410(3) 1.1847(2) 0.1739(2)
H55 H 0.0294 1.1702 0.1435
C32 C 0.0030(3) 1.2273(2) 0.1911(2)
H56 H -0.0329 1.2424 0.1723
C33 C 0.0174(3) 1.2481(2) 0.23612(18)
C34 C 0.0717(3) 1.2259(2) 0.2599(2)
H57 H 0.0844 1.2394 0.2905
C35 C 0.1080(3) 1.1842(2) 0.2399(2)
H58 H 0.1458 1.1698 0.2573
C36 C -0.0243(3) 1.29339(19) 0.25684(19)
C37 C -0.0752(3) 1.3193(2) 0.2313(2)
H59 H -0.0853 1.3084 0.1995
C38 C -0.1113(3) 1.3611(2) 0.2520(2)
H60 H -0.1473 1.3773 0.2341
C39 C -0.0502(3) 1.3539(2) 0.32107(19)
H61 H -0.0409 1.3655 0.3528
C40 C -0.0133(3) 1.3110(2) 0.3030(2)
H62 H 0.0199 1.2934 0.3224
C41 C 0.4127(3) 1.0200(3) 0.0891(2)
H63 H 0.4169 1.0246 0.1227
C42 C 0.4715(3) 1.0139(3) 0.0629(2)
H64 H 0.5150 1.0166 0.0782
C43 C 0.4687(3) 1.0038(2) 0.01457(18)
C44 C 0.4037(3) 1.0046(4) -0.0045(2)
H65 H 0.3978 0.9991 -0.0379
C45 C 0.3462(3) 1.0134(3) 0.0241(2)
H66 H 0.3021 1.0147 0.0095
N1 N 0.0933(2) 1.16265(17) 0.19770(16)
N2 N -0.0987(2) 1.38007(18) 0.29574(15)
N3 N 0.3506(2) 1.01985(17) 0.07055(15)
O1 O 0.04620(19) 0.97417(14) 0.16308(15)
O2 O 0.18145(16) 1.02119(12) 0.15610(11)
O3 O 0.04389(19) 1.06389(15) 0.16046(15)
O4 O 0.1365(2) 0.97787(16) 0.24749(14)
O5 O 0.1332(2) 1.06719(15) 0.24445(13)
O6 O 0.1481(2) 0.91675(16) 0.11367(13)
O7 O 0.2245(2) 0.96254(16) 0.07144(13)
O8 O 0.2357(2) 0.92053(17) 0.19623(15)
O9 O 0.31293(19) 0.96492(16) 0.15346(13)
O10 O 0.1417(2) 1.12105(16) 0.10844(14)
O11 O 0.2212(2) 1.07571(18) 0.06795(13)
O12 O 0.2306(2) 1.12513(15) 0.19086(15)
O13 O 0.31106(19) 1.08043(16) 0.15061(13)
Fe1 Fe 0.14158(4) 1.08730(3) 0.17455(2)
Fe2 Fe 0.25912(4) 1.02146(3) 0.11594(2)
Ni1 Ni 0.14521(3) 0.95487(3) 0.17801(2)
C41D C 0.5873(3) 0.9800(3) -0.0891(2)
H63D H 0.5831 0.9754 -0.1227
C42D C 0.5285(3) 0.9861(3) -0.0629(2)
H64D H 0.4850 0.9834 -0.0782
C43D C 0.5313(3) 0.9962(2) -0.01457(18)
C44D C 0.5963(3) 0.9954(4) 0.0045(2)
H65D H 0.6022 1.0009 0.0379
C45D C 0.6538(3) 0.9866(3) -0.0241(2)
H66D H 0.6979 0.9853 -0.0095
N3D N 0.6494(2) 0.98015(17) -0.07055(15)
C1D C 0.9820(3) 0.9823(2) -0.1542(2)
C2D C 1.0525(4) 0.9831(3) -0.1316(7)
C3D C 1.0883(4) 0.9316(4) -0.1308(5)
H1D H 1.0991 0.9205 -0.1636
H2D H 1.1310 0.9352 -0.1124
H3D H 1.0588 0.9042 -0.1158
C4D C 1.0888(5) 1.0335(4) -0.1389(6)
H4D H 1.0987 1.0380 -0.1731
H5D H 1.0602 1.0636 -0.1278
H6D H 1.1320 1.0330 -0.1209
C5D C 1.0396(14) 0.9898(15) -0.0760(6)
H7D H 1.0278 1.0276 -0.0689
H8D H 1.0016 0.9663 -0.0661
H9D H 1.0814 0.9799 -0.0584
C6D C 0.8641(3) 0.9758(2) -0.26665(19)
C7D C 0.8595(3) 0.9731(3) -0.32042(19)
C8D C 0.8810(8) 1.0238(4) -0.3434(3)
H10D H 0.9278 1.0330 -0.3332
H11D H 0.8800 1.0194 -0.3782
H12D H 0.8495 1.0529 -0.3341
C9D C 0.9061(6) 0.9295(3) -0.3396(3)
H13D H 0.9542 0.9394 -0.3336
H14D H 0.8958 0.8952 -0.3237
H15D H 0.8987 0.9256 -0.3741
C10D C 0.7885(6) 0.9589(9) -0.3321(4)
H16D H 0.7574 0.9862 -0.3188
H17D H 0.7830 0.9575 -0.3669
H18D H 0.7776 0.9235 -0.3184
C11D C 0.8199(3) 1.0733(2) -0.07683(19)
C12D C 0.8296(4) 1.1136(3) -0.0354(3)
C13D C 0.7932(5) 1.0928(5) 0.0104(3)
H19D H 0.8002 1.1187 0.0365
H20D H 0.7438 1.0888 0.0042
H21D H 0.8126 1.0577 0.0195
C14D C 0.9029(5) 1.1239(5) -0.0276(4)
H22D H 0.9240 1.1363 -0.0575
H23D H 0.9084 1.1518 -0.0031
H24D H 0.9255 1.0905 -0.0171
C15D C 0.8025(8) 1.1680(4) -0.0506(4)
H25D H 0.8256 1.1794 -0.0801
H26D H 0.7529 1.1655 -0.0563
H27D H 0.8115 1.1946 -0.0254
C16D C 0.7048(3) 1.0710(3) -0.18151(18)
C17D C 0.6520(4) 1.1156(4) -0.1952(3)
C18D C 0.6643(5) 1.1327(4) -0.2467(3)
H28D H 0.6560 1.1019 -0.2680
H29D H 0.6329 1.1623 -0.2550
H30D H 0.7120 1.1449 -0.2504
C19D C 0.5807(4) 1.0966(6) -0.1868(5)
H31D H 0.5746 1.0886 -0.1527
H32D H 0.5482 1.1247 -0.1965
H33D H 0.5723 1.0637 -0.2055
C20D C 0.6669(9) 1.1653(5) -0.1620(6)
H34D H 0.6584 1.1552 -0.1286
H35D H 0.7151 1.1764 -0.1657
H36D H 0.6367 1.1954 -0.1709
C21D C 0.8259(3) 0.8900(2) -0.0713(2)
C22D C 0.8427(5) 0.8553(4) -0.0280(3)
C23D C 0.9168(6) 0.8436(8) -0.0254(5)
H37D H 0.9261 0.8209 0.0025
H38D H 0.9312 0.8246 -0.0545
H39D H 0.9424 0.8776 -0.0226
C24D C 0.8277(11) 0.8836(6) 0.0157(4)
H40D H 0.7783 0.8915 0.0173
H41D H 0.8409 0.8611 0.0431
H42D H 0.8537 0.9176 0.0165
C25D C 0.8079(15) 0.8060(9) -0.0301(8)
H43D H 0.7589 0.8125 -0.0359
H44D H 0.8269 0.7839 -0.0560
H45D H 0.8135 0.7868 0.0004
C26D C 0.7091(3) 0.8819(2) -0.17816(19)
C27D C 0.6585(4) 0.8400(3) -0.1937(3)
C28D C 0.5887(4) 0.8491(5) -0.1801(4)
H46D H 0.5717 0.8820 -0.1957
H47D H 0.5605 0.8182 -0.1899
H48D H 0.5860 0.8535 -0.1453
C29D C 0.6711(5) 0.8239(4) -0.2449(3)
H49D H 0.6625 0.8549 -0.2658
H50D H 0.7189 0.8120 -0.2486
H51D H 0.6401 0.7942 -0.2536
C30D C 0.6753(7) 0.7845(5) -0.1657(6)
H52D H 0.6671 0.7896 -0.1314
H53D H 0.6454 0.7556 -0.1778
H54D H 0.7236 0.7746 -0.1709
C31D C 0.9590(3) 0.8153(2) -0.1739(2)
H55D H 0.9706 0.8298 -0.1435
C32D C 0.9970(3) 0.7727(2) -0.1911(2)
H56D H 1.0329 0.7576 -0.1723
C33D C 0.9826(3) 0.7519(2) -0.23612(18)
C34D C 0.9283(3) 0.7741(2) -0.2599(2)
H57D H 0.9156 0.7606 -0.2905
C35D C 0.8920(3) 0.8158(2) -0.2399(2)
H58D H 0.8542 0.8302 -0.2573
C36D C 1.0243(3) 0.70661(19) -0.25684(19)
C37D C 1.0752(3) 0.6807(2) -0.2313(2)
H59D H 1.0853 0.6916 -0.1995
C38D C 1.1113(3) 0.6389(2) -0.2520(2)
H60D H 1.1473 0.6227 -0.2341
C39D C 1.0502(3) 0.6461(2) -0.32107(19)
H61D H 1.0409 0.6345 -0.3528
C40D C 1.0133(3) 0.6890(2) -0.3030(2)
H62D H 0.9801 0.7066 -0.3224
N1D N 0.9067(2) 0.83735(17) -0.19770(16)
N2D N 1.0987(2) 0.61993(18) -0.29574(15)
O1D O 0.95380(19) 1.02583(14) -0.16308(15)
O2D O 0.81855(16) 0.97881(12) -0.15610(11)
O3D O 0.95611(19) 0.93611(15) -0.16046(15)
O4D O 0.8635(2) 1.02213(16) -0.24749(14)
O5D O 0.8668(2) 0.93281(15) -0.24445(13)
O6D O 0.8519(2) 1.08325(16) -0.11367(13)
O7D O 0.7755(2) 1.03746(16) -0.07144(13)
O8D O 0.7643(2) 1.07947(17) -0.19623(15)
O9D O 0.68707(19) 1.03508(16) -0.15346(13)
O10D O 0.8583(2) 0.87895(16) -0.10844(14)
O11D O 0.7788(2) 0.92429(18) -0.06795(13)
O12D O 0.7694(2) 0.87487(15) -0.19086(15)
O13D O 0.68894(19) 0.91957(16) -0.15061(13)
Fe1D Fe 0.85842(4) 0.91270(3) -0.17455(2)
Fe2D Fe 0.74088(4) 0.97854(3) -0.11594(2)
Ni1D Ni 0.85479(3) 1.04513(3) -0.17801(2)
N2B N 0.0987(2) 0.88007(18) 0.20426(15)
N2F N 0.9013(2) 1.11993(18) -0.20426(15)
Ni1B Ni -0.14521(3) 1.45487(3) 0.32199(2)
Ni1F Ni 1.14521(3) 0.54513(3) -0.32199(2)
loop_
_geom_bond_atom_site_label_1
_geom_bond_atom_site_label_2
_geom_bond_site_symmetry_1
_geom_bond_site_symmetry_2
C1 C2 1_555 1_555
C2 C3 1_555 1_555
C3 H1 1_555 1_555
H2 C3 1_555 1_555
H3 C3 1_555 1_555
C4 C2 1_555 1_555
H4 C4 1_555 1_555
H5 C4 1_555 1_555
H6 C4 1_555 1_555
C5 C2 1_555 1_555
H7 C5 1_555 1_555
H8 C5 1_555 1_555
H9 C5 1_555 1_555
C6 C7 1_555 1_555
C7 C8 1_555 1_555
C8 H10 1_555 1_555
H11 C8 1_555 1_555
H12 C8 1_555 1_555
C9 C7 1_555 1_555
H13 C9 1_555 1_555
H14 C9 1_555 1_555
H15 C9 1_555 1_555
C10 C7 1_555 1_555
H16 C10 1_555 1_555
H17 C10 1_555 1_555
H18 C10 1_555 1_555
C11 C12 1_555 1_555
C12 C13 1_555 1_555
C13 H19 1_555 1_555
H20 C13 1_555 1_555
H21 C13 1_555 1_555
C14 C12 1_555 1_555
H22 C14 1_555 1_555
H23 C14 1_555 1_555
H24 C14 1_555 1_555
C15 C12 1_555 1_555
H25 C15 1_555 1_555
H26 C15 1_555 1_555
H27 C15 1_555 1_555
C16 C17 1_555 1_555
C17 C18 1_555 1_555
C18 H28 1_555 1_555
H29 C18 1_555 1_555
H30 C18 1_555 1_555
C19 C17 1_555 1_555
H31 C19 1_555 1_555
H32 C19 1_555 1_555
H33 C19 1_555 1_555
C20 C17 1_555 1_555
H34 C20 1_555 1_555
H35 C20 1_555 1_555
H36 C20 1_555 1_555
C21 C22 1_555 1_555
C22 C23 1_555 1_555
C23 H37 1_555 1_555
H38 C23 1_555 1_555
H39 C23 1_555 1_555
C24 C22 1_555 1_555
H40 C24 1_555 1_555
H41 C24 1_555 1_555
H42 C24 1_555 1_555
C25 C22 1_555 1_555
H43 C25 1_555 1_555
H44 C25 1_555 1_555
H45 C25 1_555 1_555
C26 C27 1_555 1_555
C27 C28 1_555 1_555
C28 H46 1_555 1_555
H47 C28 1_555 1_555
H48 C28 1_555 1_555
C29 C27 1_555 1_555
H49 C29 1_555 1_555
H50 C29 1_555 1_555
H51 C29 1_555 1_555
C30 C27 1_555 1_555
H52 C30 1_555 1_555
H53 C30 1_555 1_555
H54 C30 1_555 1_555
C31 H55 1_555 1_555
C32 C31 1_555 1_555
H56 C32 1_555 1_555
C33 C32 1_555 1_555
C34 C33 1_555 1_555
H57 C34 1_555 1_555
C35 C34 1_555 1_555
H58 C35 1_555 1_555
C36 C33 1_555 1_555
C37 C36 1_555 1_555
H59 C37 1_555 1_555
C38 C37 1_555 1_555
H60 C38 1_555 1_555
C39 H61 1_555 1_555
C40 C36 1_555 1_555
H62 C40 1_555 1_555
C41 H63 1_555 1_555
C42 C41 1_555 1_555
H64 C42 1_555 1_555
C43 C42 1_555 1_555
C44 C43 1_555 1_555
H65 C44 1_555 1_555
C45 C44 1_555 1_555
H66 C45 1_555 1_555
N1 C31 1_555 1_555
N2 C38 1_555 1_555
N3 C41 1_555 1_555
O1 C1 1_555 1_555
O2 Fe1 1_555 1_555
O3 C1 1_555 1_555
O4 C6 1_555 1_555
O5 C6 1_555 1_555
O6 C11 1_555 1_555
O7 C11 1_555 1_555
O8 C16 1_555 1_555
O9 C16 1_555 1_555
O10 C21 1_555 1_555
O11 C21 1_555 1_555
O12 C26 1_555 1_555
O13 C26 1_555 1_555
Fe1 N1 1_555 1_555
Fe2 N3 1_555 1_555
Ni1 O1 1_555 1_555
C46 H67 1_555 1_555
C47 H68 1_555 1_555
H69 C47 1_555 1_555
C48 C47 1_555 1_555
H70 C48 1_555 1_555
H71 C48 1_555 1_555
H72 C48 1_555 1_555
C49 H73 1_555 1_555
H74 C49 1_555 1_555
C50 C49 1_555 1_555
H75 C50 1_555 1_555
H76 C50 1_555 1_555
H77 C50 1_555 1_555
N4 C46 1_555 1_555
O14 C46 1_555 1_555
C41D H63D 1_555 1_555
C42D C41D 1_555 1_555
H64D C42D 1_555 1_555
C43D C43 1_555 1_555
C44D C43D 1_555 1_555
H65D C44D 1_555 1_555
C45D C44D 1_555 1_555
H66D C45D 1_555 1_555
N3D C41D 1_555 1_555
C1D C2D 1_555 1_555
C2D C3D 1_555 1_555
C3D H1D 1_555 1_555
H2D C3D 1_555 1_555
H3D C3D 1_555 1_555
C4D C2D 1_555 1_555
H4D C4D 1_555 1_555
H5D C4D 1_555 1_555
H6D C4D 1_555 1_555
C5D C2D 1_555 1_555
H7D C5D 1_555 1_555
H8D C5D 1_555 1_555
H9D C5D 1_555 1_555
C6D C7D 1_555 1_555
C7D C8D 1_555 1_555
C8D H10D 1_555 1_555
H11D C8D 1_555 1_555
H12D C8D 1_555 1_555
C9D C7D 1_555 1_555
H13D C9D 1_555 1_555
H14D C9D 1_555 1_555
H15D C9D 1_555 1_555
C10D C7D 1_555 1_555
H16D C10D 1_555 1_555
H17D C10D 1_555 1_555
H18D C10D 1_555 1_555
C11D C12D 1_555 1_555
C12D C13D 1_555 1_555
C13D H19D 1_555 1_555
H20D C13D 1_555 1_555
H21D C13D 1_555 1_555
C14D C12D 1_555 1_555
H22D C14D 1_555 1_555
H23D C14D 1_555 1_555
H24D C14D 1_555 1_555
C15D C12D 1_555 1_555
H25D C15D 1_555 1_555
H26D C15D 1_555 1_555
H27D C15D 1_555 1_555
C16D C17D 1_555 1_555
C17D C18D 1_555 1_555
C18D H28D 1_555 1_555
H29D C18D 1_555 1_555
H30D C18D 1_555 1_555
C19D C17D 1_555 1_555
H31D C19D 1_555 1_555
H32D C19D 1_555 1_555
H33D C19D 1_555 1_555
C20D C17D 1_555 1_555
H34D C20D 1_555 1_555
H35D C20D 1_555 1_555
H36D C20D 1_555 1_555
C21D C22D 1_555 1_555
C22D C23D 1_555 1_555
C23D H37D 1_555 1_555
H38D C23D 1_555 1_555
H39D C23D 1_555 1_555
C24D C22D 1_555 1_555
H40D C24D 1_555 1_555
H41D C24D 1_555 1_555
H42D C24D 1_555 1_555
C25D C22D 1_555 1_555
H43D C25D 1_555 1_555
H44D C25D 1_555 1_555
H45D C25D 1_555 1_555
C26D C27D 1_555 1_555
C27D C28D 1_555 1_555
C28D H46D 1_555 1_555
H47D C28D 1_555 1_555
H48D C28D 1_555 1_555
C29D C27D 1_555 1_555
H49D C29D 1_555 1_555
H50D C29D 1_555 1_555
H51D C29D 1_555 1_555
C30D C27D 1_555 1_555
H52D C30D 1_555 1_555
H53D C30D 1_555 1_555
H54D C30D 1_555 1_555
C31D H55D 1_555 1_555
C32D C31D 1_555 1_555
H56D C32D 1_555 1_555
C33D C32D 1_555 1_555
C34D C33D 1_555 1_555
H57D C34D 1_555 1_555
C35D C34D 1_555 1_555
H58D C35D 1_555 1_555
C36D C33D 1_555 1_555
C37D C36D 1_555 1_555
H59D C37D 1_555 1_555
C38D C37D 1_555 1_555
H60D C38D 1_555 1_555
C39D H61D 1_555 1_555
C40D C36D 1_555 1_555
H62D C40D 1_555 1_555
N1D C31D 1_555 1_555
N2D C38D 1_555 1_555
O1D C1D 1_555 1_555
O2D Fe1D 1_555 1_555
O3D C1D 1_555 1_555
O4D C6D 1_555 1_555
O5D C6D 1_555 1_555
O6D C11D 1_555 1_555
O7D C11D 1_555 1_555
O8D C16D 1_555 1_555
O9D C16D 1_555 1_555
O10D C21D 1_555 1_555
O11D C21D 1_555 1_555
O12D C26D 1_555 1_555
O13D C26D 1_555 1_555
Fe1D N1D 1_555 1_555
Fe2D N3D 1_555 1_555
Ni1D O1D 1_555 1_555
N2B Ni1 1_555 1_555
N2F Ni1D 1_555 1_555
Ni1B N2 1_555 1_555
Ni1F N2D 1_555 1_555
C35 N1 1_555 1_555
C39 C40 1_555 1_555
C39 N2 1_555 1_555
C45 N3 1_555 1_555
O2 Fe2 1_555 1_555
O2 Ni1 1_555 1_555
O3 Fe1 1_555 1_555
O4 Ni1 1_555 1_555
O5 Fe1 1_555 1_555
O6 Ni1 1_555 1_555
O7 Fe2 1_555 1_555
O8 Ni1 1_555 1_555
O9 Fe2 1_555 1_555
O10 Fe1 1_555 1_555
O11 Fe2 1_555 1_555
O12 Fe1 1_555 1_555
O13 Fe2 1_555 1_555
C47 N4 1_555 1_555
C49 N4 1_555 1_555
C42D C43D 1_555 1_555
C45D N3D 1_555 1_555
C35D N1D 1_555 1_555
C39D C40D 1_555 1_555
C39D N2D 1_555 1_555
O2D Fe2D 1_555 1_555
O2D Ni1D 1_555 1_555
O3D Fe1D 1_555 1_555
O4D Ni1D 1_555 1_555
O5D Fe1D 1_555 1_555
O6D Ni1D 1_555 1_555
O7D Fe2D 1_555 1_555
O8D Ni1D 1_555 1_555
O9D Fe2D 1_555 1_555
O10D Fe1D 1_555 1_555
O11D Fe2D 1_555 1_555
O12D Fe1D 1_555 1_555
O13D Fe2D 1_555 1_555

#END
