
#######################################################################
#
#                 Cambridge Crystallographic Data Centre
#                                CCDC 
#
#######################################################################
#
# If this CIF has been generated from an entry in the Cambridge 
# Structural Database, then it will include bibliographic, chemical, 
# crystal, experimental, refinement or atomic coordinate data resulting 
# from the CCDC's data processing and validation procedures.
#
#######################################################################

data_GIXHEC01
_symmetry_cell_setting           monoclinic
_symmetry_space_group_name_H-M   'P 21/n'
_symmetry_Int_Tables_number      14
_space_group_name_Hall           '-P 2yn'
loop_
_symmetry_equiv_pos_site_id
_symmetry_equiv_pos_as_xyz
1 x,y,z
2 1/2-x,1/2+y,1/2-z
3 -x,-y,-z
4 1/2+x,1/2-y,1/2+z
_cell_length_a                   18.325(10)
_cell_length_b                   19.980(11)
_cell_length_c                   18.363(10)
_cell_angle_alpha                90
_cell_angle_beta                 95.722(10)
_cell_angle_gamma                90
_cell_volume                     6689.81
loop_
_atom_site_label
_atom_site_type_symbol
_atom_site_fract_x
_atom_site_fract_y
_atom_site_fract_z
C1 C 0.5145(3) 0.0317(2) 0.9854(3)
C2 C 0.4943(4) 0.0927(3) 1.0065(4)
H1 H 0.4605 0.0966 1.0408
C3 C 0.5236(4) 0.1505(3) 0.9775(4)
H2 H 0.5084 0.1919 0.9937
C4 C 0.5915(4) 0.0903(3) 0.9090(4)
H3 H 0.6255 0.0881 0.8747
C5 C 0.5652(5) 0.0309(3) 0.9358(5)
H4 H 0.5824 -0.0098 0.9197
C6 C 0.5828(3) 0.3917(3) 0.5929(3)
H5 H 0.6158 0.3567 0.5898
C7 C 0.5622(4) 0.4279(3) 0.5303(3)
H6 H 0.5819 0.4179 0.4868
C8 C 0.5120(3) 0.4790(2) 0.5331(3)
C9 C 0.4829(3) 0.4898(3) 0.5999(3)
H7 H 0.4469 0.5220 0.6038
C10 C 0.5087(3) 0.4518(3) 0.6598(3)
H8 H 0.4903 0.4602 0.7043
C11 C 0.9073(3) 0.3912(3) 0.9164(3)
H9 H 0.9106 0.3564 0.8831
C12 C 0.9702(3) 0.4280(3) 0.9378(3)
H10 H 1.0140 0.4187 0.9184
C13 C 0.9663(3) 0.4789(2) 0.9889(3)
C14 C 0.9004(3) 0.4904(3) 1.0163(3)
H11 H 0.8963 0.5235 1.0512
C15 C 0.8401(3) 0.4520(3) 0.9914(3)
H12 H 0.7958 0.4603 1.0103
C16 C 0.6657(4) 0.3171(3) 1.0217(3)
C17 C 0.6575(5) 0.3290(4) 1.1051(4)
C18 C 0.6508(10) 0.4034(5) 1.1198(6)
H13 H 0.6053 0.4197 1.0957
H14 H 0.6909 0.4267 1.1013
H15 H 0.6518 0.4109 1.1715
C19 C 0.7225(9) 0.2980(11) 1.1443(5)
H16 H 0.7243 0.2516 1.1315
H17 H 0.7200 0.3022 1.1961
H18 H 0.7658 0.3202 1.1311
C20 C 0.5887(8) 0.2910(8) 1.1261(5)
H19 H 0.5932 0.2443 1.1149
H20 H 0.5457 0.3089 1.0988
H21 H 0.5847 0.2963 1.1775
C21 C 0.7762(3) 0.2091(3) 0.9159(3)
C22 C 0.8355(4) 0.1572(3) 0.9410(5)
C23 C 0.8438(11) 0.1600(9) 1.0208(8)
H22 H 0.7963 0.1578 1.0386
H23 H 0.8674 0.2012 1.0365
H24 H 0.8731 0.1229 1.0398
C24 C 0.8095(6) 0.0893(5) 0.9290(13)
H25 H 0.7678 0.0820 0.9556
H26 H 0.8478 0.0585 0.9457
H27 H 0.7958 0.0825 0.8777
C25 C 0.9050(5) 0.1703(5) 0.9084(7)
H28 H 0.8980 0.1622 0.8566
H29 H 0.9427 0.1412 0.9303
H30 H 0.9194 0.2161 0.9171
C26 C 0.5834(3) 0.2103(3) 0.7241(3)
C27 C 0.5589(6) 0.1574(4) 0.6654(4)
C28 C 0.5919(8) 0.1720(5) 0.5949(6)
H31 H 0.6436 0.1631 0.6013
H32 H 0.5838 0.2181 0.5819
H33 H 0.5691 0.1440 0.5566
C29 C 0.4788(8) 0.1608(11) 0.6560(11)
H34 H 0.4638 0.2033 0.6351
H35 H 0.4601 0.1560 0.7028
H36 H 0.4599 0.1255 0.6241
C30 C 0.5757(11) 0.0884(4) 0.6904(6)
H37 H 0.5594 0.0821 0.7380
H38 H 0.6276 0.0810 0.6929
H39 H 0.5510 0.0573 0.6566
C31 C 0.4780(3) 0.3176(3) 0.8350(3)
C32 C 0.3966(4) 0.3287(4) 0.8418(5)
C33 C 0.3814(6) 0.3999(5) 0.8497(10)
H40 H 0.3306 0.4060 0.8568
H41 H 0.3922 0.4233 0.8064
H42 H 0.4113 0.4174 0.8913
C34 C 0.3561(5) 0.3032(12) 0.7764(9)
H43 H 0.3046 0.3087 0.7797
H44 H 0.3670 0.2565 0.7712
H45 H 0.3700 0.3272 0.7347
C35 C 0.3751(6) 0.2989(8) 0.9133(8)
H46 H 0.3243 0.3078 0.9176
H47 H 0.4045 0.3188 0.9539
H48 H 0.3832 0.2514 0.9134
C36 C 0.6532(4) 0.4769(3) 0.8472(3)
C37 C 0.6308(6) 0.5477(4) 0.8691(5)
C38 C 0.6888(6) 0.5820(4) 0.9166(7)
H49 H 0.7259 0.5979 0.8875
H50 H 0.7103 0.5512 0.9527
H51 H 0.6680 0.6191 0.9405
C39 C 0.5848(7) 0.5827(4) 0.8104(6)
H52 H 0.6138 0.5935 0.7713
H53 H 0.5658 0.6232 0.8296
H54 H 0.5448 0.5543 0.7923
C40 C 0.5709(8) 0.5348(6) 0.9286(9)
H55 H 0.5555 0.5770 0.9469
H56 H 0.5930 0.5083 0.9685
H57 H 0.5291 0.5115 0.9052
C41 C 0.7675(4) 0.3609(3) 0.7321(3)
C42 C 0.8240(4) 0.3525(4) 0.6762(4)
C43 C 0.8299(11) 0.2803(7) 0.6632(11)
H58 H 0.7855 0.2646 0.6365
H59 H 0.8374 0.2574 0.7093
H60 H 0.8706 0.2719 0.6354
C44 C 0.8959(5) 0.3831(8) 0.7015(6)
H61 H 0.8896 0.4301 0.7095
H62 H 0.9292 0.3767 0.6649
H63 H 0.9154 0.3622 0.7463
C45 C 0.7982(6) 0.3854(8) 0.6058(5)
H64 H 0.7509 0.3680 0.5880
H65 H 0.8324 0.3767 0.5706
H66 H 0.7946 0.4328 0.6132
N1 N 0.5703(3) 0.1496(2) 0.9299(3)
N2 N 0.5587(3) 0.4037(2) 0.6571(3)
N3 N 0.8428(3) 0.4032(2) 0.9410(3)
O1 O 0.6247(2) 0.27407(19) 0.9899(2)
O2 O 0.65545(16) 0.31767(14) 0.84501(16)
O3 O 0.7113(2) 0.3523(2) 0.9942(2)
O4 O 0.7120(2) 0.18991(18) 0.9045(2)
O5 O 0.7974(2) 0.26875(19) 0.9103(2)
O6 O 0.5950(2) 0.19028(17) 0.7882(2)
O7 O 0.5897(3) 0.26816(18) 0.7020(2)
O8 O 0.5099(2) 0.27423(19) 0.8749(2)
O9 O 0.5050(2) 0.3518(2) 0.7888(2)
O10 O 0.7921(2) 0.36286(19) 0.7977(2)
O11 O 0.7026(2) 0.3630(2) 0.7080(2)
O12 O 0.7057(2) 0.45099(18) 0.8849(2)
O13 O 0.6148(2) 0.45110(17) 0.7953(2)
Fe1 Fe 0.60875(4) 0.35542(3) 0.75792(4)
Fe2 Fe 0.61552(4) 0.24075(3) 0.88456(4)
Ni1 Ni 0.74215(4) 0.35540(3) 0.89135(4)
C1B C 0.4855(3) -0.0317(2) 1.0146(3)
C2B C 0.5057(4) -0.0927(3) 0.9935(4)
H1B H 0.5395 -0.0966 0.9592
C3B C 0.4764(4) -0.1505(3) 1.0225(4)
H2B H 0.4916 -0.1919 1.0063
C4B C 0.4085(4) -0.0903(3) 1.0910(4)
H3B H 0.3745 -0.0881 1.1253
C5B C 0.4348(5) -0.0309(3) 1.0642(5)
H4B H 0.4176 0.0098 1.0803
N1B N 0.4297(3) -0.1496(2) 1.0701(3)
C6B C 0.4172(3) 0.6083(3) 0.4071(3)
H5B H 0.3842 0.6433 0.4102
C7B C 0.4378(4) 0.5721(3) 0.4697(3)
H6B H 0.4181 0.5821 0.5132
C8B C 0.4880(3) 0.5210(2) 0.4669(3)
C9B C 0.5171(3) 0.5102(3) 0.4001(3)
H7B H 0.5531 0.4780 0.3962
C10B C 0.4913(3) 0.5482(3) 0.3402(3)
H8B H 0.5097 0.5398 0.2957
N2B N 0.4413(3) 0.5963(2) 0.3429(3)
C11B C 1.0927(3) 0.6088(3) 1.0836(3)
H9B H 1.0894 0.6436 1.1169
C12B C 1.0298(3) 0.5720(3) 1.0622(3)
H10B H 0.9860 0.5813 1.0816
C13B C 1.0337(3) 0.5211(2) 1.0111(3)
C14B C 1.0996(3) 0.5096(3) 0.9837(3)
H11B H 1.1037 0.4765 0.9488
C15B C 1.1599(3) 0.5480(3) 1.0086(3)
H12B H 1.2042 0.5397 0.9897
N3B N 1.1572(3) 0.5968(2) 1.0590(3)
C16B C 0.3343(4) -0.3171(3) 0.9783(3)
C17B C 0.3425(5) -0.3290(4) 0.8949(4)
C18B C 0.3492(10) -0.4034(5) 0.8802(6)
H13B H 0.3947 -0.4197 0.9043
H14B H 0.3091 -0.4267 0.8987
H15B H 0.3482 -0.4109 0.8285
C19B C 0.2775(9) -0.2980(11) 0.8557(5)
H16B H 0.2757 -0.2516 0.8685
H17B H 0.2800 -0.3022 0.8039
H18B H 0.2342 -0.3202 0.8689
C20B C 0.4113(8) -0.2910(8) 0.8739(5)
H19B H 0.4068 -0.2443 0.8851
H20B H 0.4543 -0.3089 0.9012
H21B H 0.4153 -0.2963 0.8225
C21B C 0.2238(3) -0.2091(3) 1.0841(3)
C22B C 0.1645(4) -0.1572(3) 1.0590(5)
C23B C 0.1562(11) -0.1600(9) 0.9792(8)
H22B H 0.2037 -0.1578 0.9614
H23B H 0.1326 -0.2012 0.9635
H24B H 0.1269 -0.1229 0.9602
C24B C 0.1905(6) -0.0893(5) 1.0710(13)
H25B H 0.2322 -0.0820 1.0444
H26B H 0.1522 -0.0585 1.0543
H27B H 0.2042 -0.0825 1.1223
C25B C 0.0950(5) -0.1703(5) 1.0916(7)
H28B H 0.1020 -0.1622 1.1434
H29B H 0.0573 -0.1412 1.0697
H30B H 0.0806 -0.2161 1.0829
C26B C 0.4166(3) -0.2103(3) 1.2759(3)
C27B C 0.4411(6) -0.1574(4) 1.3346(4)
C28B C 0.4081(8) -0.1720(5) 1.4051(6)
H31B H 0.3564 -0.1631 1.3987
H32B H 0.4162 -0.2181 1.4181
H33B H 0.4309 -0.1440 1.4434
C29B C 0.5212(8) -0.1608(11) 1.3440(11)
H34B H 0.5362 -0.2033 1.3649
H35B H 0.5399 -0.1560 1.2972
H36B H 0.5401 -0.1255 1.3759
C30B C 0.4243(11) -0.0884(4) 1.3096(6)
H37B H 0.4406 -0.0821 1.2620
H38B H 0.3724 -0.0810 1.3071
H39B H 0.4490 -0.0573 1.3434
C31B C 0.5220(3) -0.3176(3) 1.1650(3)
C32B C 0.6034(4) -0.3287(4) 1.1582(5)
C33B C 0.6186(6) -0.3999(5) 1.1503(10)
H40B H 0.6694 -0.4060 1.1432
H41B H 0.6078 -0.4233 1.1936
H42B H 0.5887 -0.4174 1.1087
C34B C 0.6439(5) -0.3032(12) 1.2236(9)
H43B H 0.6954 -0.3087 1.2203
H44B H 0.6330 -0.2565 1.2288
H45B H 0.6300 -0.3272 1.2653
C35B C 0.6249(6) -0.2989(8) 1.0867(8)
H46B H 0.6757 -0.3078 1.0824
H47B H 0.5955 -0.3188 1.0461
H48B H 0.6168 -0.2514 1.0866
C36B C 0.3468(4) -0.4769(3) 1.1528(3)
C37B C 0.3692(6) -0.5477(4) 1.1309(5)
C38B C 0.3112(6) -0.5820(4) 1.0834(7)
H49B H 0.2741 -0.5979 1.1125
H50B H 0.2897 -0.5512 1.0473
H51B H 0.3320 -0.6191 1.0595
C39B C 0.4152(7) -0.5827(4) 1.1896(6)
H52B H 0.3862 -0.5935 1.2287
H53B H 0.4342 -0.6232 1.1704
H54B H 0.4552 -0.5543 1.2077
C40B C 0.4291(8) -0.5348(6) 1.0714(9)
H55B H 0.4445 -0.5770 1.0531
H56B H 0.4070 -0.5083 1.0315
H57B H 0.4709 -0.5115 1.0948
C41B C 0.2325(4) -0.3609(3) 1.2679(3)
C42B C 0.1760(4) -0.3525(4) 1.3238(4)
C43B C 0.1701(11) -0.2803(7) 1.3368(11)
H58B H 0.2145 -0.2646 1.3635
H59B H 0.1626 -0.2574 1.2907
H60B H 0.1294 -0.2719 1.3646
C44B C 0.1041(5) -0.3831(8) 1.2985(6)
H61B H 0.1104 -0.4301 1.2905
H62B H 0.0708 -0.3767 1.3351
H63B H 0.0846 -0.3622 1.2537
C45B C 0.2018(6) -0.3854(8) 1.3942(5)
H64B H 0.2491 -0.3680 1.4120
H65B H 0.1676 -0.3767 1.4294
H66B H 0.2054 -0.4328 1.3868
O1B O 0.3753(2) -0.27407(19) 1.0101(2)
O2B O 0.34455(16) -0.31767(14) 1.15499(16)
O3B O 0.2887(2) -0.3523(2) 1.0058(2)
O4B O 0.2880(2) -0.18991(18) 1.0955(2)
O5B O 0.2026(2) -0.26875(19) 1.0897(2)
O6B O 0.4050(2) -0.19028(17) 1.2118(2)
O7B O 0.4103(3) -0.26816(18) 1.2980(2)
O8B O 0.4901(2) -0.27423(19) 1.1251(2)
O9B O 0.4950(2) -0.3518(2) 1.2112(2)
O10B O 0.2079(2) -0.36286(19) 1.2023(2)
O11B O 0.2974(2) -0.3630(2) 1.2920(2)
O12B O 0.2943(2) -0.45099(18) 1.1151(2)
O13B O 0.3852(2) -0.45110(17) 1.2047(2)
Fe1B Fe 0.39125(4) -0.35542(3) 1.24208(4)
Fe2B Fe 0.38448(4) -0.24075(3) 1.11544(4)
Ni1B Ni 0.25785(4) -0.35540(3) 1.10865(4)
N2B_2 N 0.4413(3) -0.4037(2) 1.3429(3)
N3B_2 N 0.1572(3) -0.4032(2) 1.0590(3)
Fe1B_2 Fe 0.39125(4) 0.64458(3) 0.24208(4)
Ni1B_2 Ni 1.25785(4) 0.64460(3) 1.10865(4)
loop_
_geom_bond_atom_site_label_1
_geom_bond_atom_site_label_2
_geom_bond_site_symmetry_1
_geom_bond_site_symmetry_2
C1 C2 1_555 1_555
C2 H1 1_555 1_555
C3 C2 1_555 1_555
H2 C3 1_555 1_555
C4 H3 1_555 1_555
C5 C1 1_555 1_555
H4 C5 1_555 1_555
C6 H5 1_555 1_555
C7 C6 1_555 1_555
H6 C7 1_555 1_555
C8 C7 1_555 1_555
C9 C8 1_555 1_555
H7 C9 1_555 1_555
C10 C9 1_555 1_555
H8 C10 1_555 1_555
C11 H9 1_555 1_555
C12 C11 1_555 1_555
H10 C12 1_555 1_555
C13 C12 1_555 1_555
C14 C13 1_555 1_555
H11 C14 1_555 1_555
C15 C14 1_555 1_555
H12 C15 1_555 1_555
C16 C17 1_555 1_555
C17 C18 1_555 1_555
C18 H13 1_555 1_555
H14 C18 1_555 1_555
H15 C18 1_555 1_555
C19 C17 1_555 1_555
H16 C19 1_555 1_555
H17 C19 1_555 1_555
H18 C19 1_555 1_555
C20 C17 1_555 1_555
H19 C20 1_555 1_555
H20 C20 1_555 1_555
H21 C20 1_555 1_555
C21 C22 1_555 1_555
C22 C23 1_555 1_555
C23 H22 1_555 1_555
H23 C23 1_555 1_555
H24 C23 1_555 1_555
C24 C22 1_555 1_555
H25 C24 1_555 1_555
H26 C24 1_555 1_555
H27 C24 1_555 1_555
C25 C22 1_555 1_555
H28 C25 1_555 1_555
H29 C25 1_555 1_555
H30 C25 1_555 1_555
C26 C27 1_555 1_555
C27 C28 1_555 1_555
C28 H31 1_555 1_555
H32 C28 1_555 1_555
H33 C28 1_555 1_555
C29 C27 1_555 1_555
H34 C29 1_555 1_555
H35 C29 1_555 1_555
H36 C29 1_555 1_555
C30 C27 1_555 1_555
H37 C30 1_555 1_555
H38 C30 1_555 1_555
H39 C30 1_555 1_555
C31 C32 1_555 1_555
C32 C33 1_555 1_555
C33 H40 1_555 1_555
H41 C33 1_555 1_555
H42 C33 1_555 1_555
C34 C32 1_555 1_555
H43 C34 1_555 1_555
H44 C34 1_555 1_555
H45 C34 1_555 1_555
C35 C32 1_555 1_555
H46 C35 1_555 1_555
H47 C35 1_555 1_555
H48 C35 1_555 1_555
C36 C37 1_555 1_555
C37 C38 1_555 1_555
C38 H49 1_555 1_555
H50 C38 1_555 1_555
H51 C38 1_555 1_555
C39 C37 1_555 1_555
H52 C39 1_555 1_555
H53 C39 1_555 1_555
H54 C39 1_555 1_555
C40 C37 1_555 1_555
H55 C40 1_555 1_555
H56 C40 1_555 1_555
H57 C40 1_555 1_555
C41 C42 1_555 1_555
C42 C43 1_555 1_555
C43 H58 1_555 1_555
H59 C43 1_555 1_555
H60 C43 1_555 1_555
C44 C42 1_555 1_555
H61 C44 1_555 1_555
H62 C44 1_555 1_555
H63 C44 1_555 1_555
C45 C42 1_555 1_555
H64 C45 1_555 1_555
H65 C45 1_555 1_555
H66 C45 1_555 1_555
N1 C3 1_555 1_555
N2 C6 1_555 1_555
N3 C11 1_555 1_555
O1 C16 1_555 1_555
O2 Fe1 1_555 1_555
O3 C16 1_555 1_555
O4 C21 1_555 1_555
O5 C21 1_555 1_555
O6 C26 1_555 1_555
O7 C26 1_555 1_555
O8 C31 1_555 1_555
O9 C31 1_555 1_555
O10 C41 1_555 1_555
O11 C41 1_555 1_555
O12 C36 1_555 1_555
O13 C36 1_555 1_555
Fe1 N2 1_555 1_555
Fe2 N1 1_555 1_555
Ni1 N3 1_555 1_555
C1B C1 1_555 1_555
C2B C1B 1_555 1_555
H1B C2B 1_555 1_555
C3B C2B 1_555 1_555
H2B C3B 1_555 1_555
C4B H3B 1_555 1_555
C5B C1B 1_555 1_555
H4B C5B 1_555 1_555
N1B C3B 1_555 1_555
C6B H5B 1_555 1_555
C7B C6B 1_555 1_555
H6B C7B 1_555 1_555
C8B C8 1_555 1_555
C9B C8B 1_555 1_555
H7B C9B 1_555 1_555
C10B C9B 1_555 1_555
H8B C10B 1_555 1_555
N2B C6B 1_555 1_555
C11B H9B 1_555 1_555
C12B C11B 1_555 1_555
H10B C12B 1_555 1_555
C13B C13 1_555 1_555
C14B C13B 1_555 1_555
H11B C14B 1_555 1_555
C15B C14B 1_555 1_555
H12B C15B 1_555 1_555
N3B C11B 1_555 1_555
C16B C17B 1_555 1_555
C17B C18B 1_555 1_555
C18B H13B 1_555 1_555
H14B C18B 1_555 1_555
H15B C18B 1_555 1_555
C19B C17B 1_555 1_555
H16B C19B 1_555 1_555
H17B C19B 1_555 1_555
H18B C19B 1_555 1_555
C20B C17B 1_555 1_555
H19B C20B 1_555 1_555
H20B C20B 1_555 1_555
H21B C20B 1_555 1_555
C21B C22B 1_555 1_555
C22B C23B 1_555 1_555
C23B H22B 1_555 1_555
H23B C23B 1_555 1_555
H24B C23B 1_555 1_555
C24B C22B 1_555 1_555
H25B C24B 1_555 1_555
H26B C24B 1_555 1_555
H27B C24B 1_555 1_555
C25B C22B 1_555 1_555
H28B C25B 1_555 1_555
H29B C25B 1_555 1_555
H30B C25B 1_555 1_555
C26B C27B 1_555 1_555
C27B C28B 1_555 1_555
C28B H31B 1_555 1_555
H32B C28B 1_555 1_555
H33B C28B 1_555 1_555
C29B C27B 1_555 1_555
H34B C29B 1_555 1_555
H35B C29B 1_555 1_555
H36B C29B 1_555 1_555
C30B C27B 1_555 1_555
H37B C30B 1_555 1_555
H38B C30B 1_555 1_555
H39B C30B 1_555 1_555
C31B C32B 1_555 1_555
C32B C33B 1_555 1_555
C33B H40B 1_555 1_555
H41B C33B 1_555 1_555
H42B C33B 1_555 1_555
C34B C32B 1_555 1_555
H43B C34B 1_555 1_555
H44B C34B 1_555 1_555
H45B C34B 1_555 1_555
C35B C32B 1_555 1_555
H46B C35B 1_555 1_555
H47B C35B 1_555 1_555
H48B C35B 1_555 1_555
C36B C37B 1_555 1_555
C37B C38B 1_555 1_555
C38B H49B 1_555 1_555
H50B C38B 1_555 1_555
H51B C38B 1_555 1_555
C39B C37B 1_555 1_555
H52B C39B 1_555 1_555
H53B C39B 1_555 1_555
H54B C39B 1_555 1_555
C40B C37B 1_555 1_555
H55B C40B 1_555 1_555
H56B C40B 1_555 1_555
H57B C40B 1_555 1_555
C41B C42B 1_555 1_555
C42B C43B 1_555 1_555
C43B H58B 1_555 1_555
H59B C43B 1_555 1_555
H60B C43B 1_555 1_555
C44B C42B 1_555 1_555
H61B C44B 1_555 1_555
H62B C44B 1_555 1_555
H63B C44B 1_555 1_555
C45B C42B 1_555 1_555
H64B C45B 1_555 1_555
H65B C45B 1_555 1_555
H66B C45B 1_555 1_555
O1B C16B 1_555 1_555
O2B Fe1B 1_555 1_555
O3B C16B 1_555 1_555
O4B C21B 1_555 1_555
O5B C21B 1_555 1_555
O6B C26B 1_555 1_555
O7B C26B 1_555 1_555
O8B C31B 1_555 1_555
O9B C31B 1_555 1_555
O10B C41B 1_555 1_555
O11B C41B 1_555 1_555
O12B C36B 1_555 1_555
O13B C36B 1_555 1_555
Fe1B O7B 1_555 1_555
Fe2B N1B 1_555 1_555
Ni1B O2B 1_555 1_555
N2B_2 Fe1B 1_555 1_555
N3B_2 Ni1B 1_555 1_555
Fe1B_2 N2B 1_555 1_555
Ni1B_2 N3B 1_555 1_555
C4 C5 1_555 1_555
C4 N1 1_555 1_555
C10 N2 1_555 1_555
C15 N3 1_555 1_555
O1 Fe2 1_555 1_555
O2 Fe2 1_555 1_555
O2 Ni1 1_555 1_555
O3 Ni1 1_555 1_555
O4 Fe2 1_555 1_555
O5 Ni1 1_555 1_555
O6 Fe2 1_555 1_555
O7 Fe1 1_555 1_555
O8 Fe2 1_555 1_555
O9 Fe1 1_555 1_555
O10 Ni1 1_555 1_555
O11 Fe1 1_555 1_555
O12 Ni1 1_555 1_555
O13 Fe1 1_555 1_555
C4B C5B 1_555 1_555
C4B N1B 1_555 1_555
C7B C8B 1_555 1_555
C10B N2B 1_555 1_555
C12B C13B 1_555 1_555
C15B N3B 1_555 1_555
O1B Fe2B 1_555 1_555
O2B Fe2B 1_555 1_555
O3B Ni1B 1_555 1_555
O4B Fe2B 1_555 1_555
O5B Ni1B 1_555 1_555
O6B Fe2B 1_555 1_555
O8B Fe2B 1_555 1_555
O9B Fe1B 1_555 1_555
O10B Ni1B 1_555 1_555
O11B Fe1B 1_555 1_555
O12B Ni1B 1_555 1_555
O13B Fe1B 1_555 1_555

#END
