
#######################################################################
#
#                 Cambridge Crystallographic Data Centre
#                                CCDC 
#
#######################################################################
#
# If this CIF has been generated from an entry in the Cambridge 
# Structural Database, then it will include bibliographic, chemical, 
# crystal, experimental, refinement or atomic coordinate data resulting 
# from the CCDC's data processing and validation procedures.
#
#######################################################################

data_GIXQOV
_symmetry_cell_setting           triclinic
_symmetry_space_group_name_H-M   'P -1'
_symmetry_Int_Tables_number      2
_space_group_name_Hall           '-P 1'
loop_
_symmetry_equiv_pos_site_id
_symmetry_equiv_pos_as_xyz
1 x,y,z
2 -x,-y,-z
_cell_length_a                   13.6625(14)
_cell_length_b                   15.7784(16)
_cell_length_c                   19.959(2)
_cell_angle_alpha                90.3970(10)
_cell_angle_beta                 100.9860(10)
_cell_angle_gamma                102.700(2)
_cell_volume                     4115.06
loop_
_atom_site_label
_atom_site_type_symbol
_atom_site_fract_x
_atom_site_fract_y
_atom_site_fract_z
C1 C 0.5342(5) 1.0807(4) 0.3170(3)
C2 C 0.5553(6) 1.1787(4) 0.3135(3)
H1 H 0.4957 1.1998 0.3225
H2 H 0.6154 1.2055 0.3491
C3 C 0.4529(4) 0.7447(4) 0.3733(3)
C4 C 0.4343(5) 0.7802(4) 0.4380(3)
H3 H 0.3607 0.7615 0.4397
H4 H 0.4737 0.7565 0.4775
C5 C 0.4881(4) 0.5579(4) 0.1578(3)
C6 C 0.4573(5) 0.4838(4) 0.2012(3)
H5 H 0.3880 0.4499 0.1803
H6 H 0.5054 0.4447 0.2033
C7 C 0.5461(4) 0.7784(4) -0.0425(3)
C8 C 0.5316(4) 0.6942(4) -0.0835(3)
H7 H 0.4843 0.6948 -0.1276
H8 H 0.5981 0.6877 -0.0931
C9 C 0.6474(4) 1.1026(4) 0.0727(3)
C10 C 0.6856(5) 1.1260(4) 0.0082(3)
H9 H 0.6527 1.1714 -0.0140
H10 H 0.7604 1.1500 0.0192
C11 C 0.9300(5) 0.6441(4) 0.5278(3)
C12 C 0.9382(5) 0.7222(4) 0.5736(3)
H11 H 0.8698 0.7236 0.5826
H12 H 0.9838 0.7183 0.6178
C13 C 0.8224(5) 0.3355(4) 0.3859(3)
C14 C 0.7791(6) 0.3060(4) 0.4476(3)
H13 H 0.7038 0.2867 0.4345
H14 H 0.8065 0.2559 0.4660
C15 C 0.9502(4) 0.3907(4) 0.1467(3)
C16 C 0.9287(5) 0.2929(4) 0.1407(3)
H15 H 0.8820 0.2715 0.0967
H16 H 0.9933 0.2739 0.1417
C17 C 1.0274(4) 0.7346(4) 0.1192(3)
C18 C 1.0527(5) 0.7116(4) 0.0514(3)
H17 H 0.9977 0.7195 0.0134
H18 H 1.1175 0.7508 0.0455
C19 C 0.9625(4) 0.8831(4) 0.3418(3)
C20 C 0.9711(5) 0.9610(4) 0.2998(3)
H19 H 0.9214 0.9950 0.3081
H20 H 1.0408 0.9986 0.3129
C21 C 0.3196(4) 0.7937(4) 0.1686(3)
C22 C 0.2807(4) 0.8351(4) 0.2229(3)
C23 C 0.2948(5) 0.9257(4) 0.2277(3)
H21 H 0.3274 0.9605 0.1961
C24 C 0.2607(5) 0.9644(4) 0.2790(3)
H22 H 0.2674 1.0256 0.2816
C25 C 0.7229(5) 0.8820(4) 0.3431(3)
C26 C 0.7147(4) 0.7921(3) 0.3710(3)
C27 C 0.7003(5) 0.7796(4) 0.4378(3)
H23 H 0.6993 0.8281 0.4659
C28 C 0.6876(5) 0.6981(4) 0.4640(3)
H24 H 0.6764 0.6904 0.5093
C29 C 0.6912(5) 0.6274(4) 0.4237(3)
H25 H 0.6811 0.5710 0.4412
C30 C 0.7093(4) 0.6385(4) 0.3583(3)
C31 C 0.7215(4) 0.7217(4) 0.3320(3)
H26 H 0.7346 0.7297 0.2871
C32 C 0.7223(5) 0.5643(4) 0.3156(3)
C33 C 0.7546(4) 0.8370(4) 0.0923(3)
C34 C 0.7616(4) 0.7448(4) 0.0766(3)
C35 C 0.7557(4) 0.6837(4) 0.1264(3)
H27 H 0.7478 0.7004 0.1706
C36 C 0.7612(4) 0.5996(4) 0.1125(3)
H28 H 0.7601 0.5593 0.1477
C37 C 0.7682(4) 0.5732(4) 0.0475(3)
H29 H 0.7702 0.5146 0.0379
C38 C 0.7724(5) 0.6330(4) -0.0041(3)
C39 C 0.7699(4) 0.7191(4) 0.0113(3)
H30 H 0.7739 0.7604 -0.0230
C40 C 0.7749(5) 0.6033(4) -0.0761(3)
C41 C 0.1579(5) 0.7671(4) 0.3733(3)
C42 C 0.2040(4) 0.8232(4) 0.3217(3)
C43 C 0.2170(5) 0.9131(4) 0.3263(3)
H31 H 0.1956 0.9395 0.3622
C44 C 0.2340(4) 0.7850(4) 0.2692(3)
H32 H 0.2224 0.7234 0.2648
Cu1 Cu 0.59680(6) 1.10454(4) 0.19337(4)
Cu2 Cu 0.49633(6) 0.92070(5) 0.35369(4)
Cu3 Cu 0.47613(6) 0.64447(4) 0.27526(4)
Cu4 Cu 0.50453(5) 0.65733(4) 0.05399(4)
Cu5 Cu 0.60290(5) 0.94090(4) 0.00514(3)
Cu6 Cu 0.97471(6) 0.77695(4) 0.44213(4)
Cu7 Cu 0.87997(6) 0.48657(5) 0.46826(4)
Cu8 Cu 0.87353(6) 0.34993(4) 0.26462(4)
Cu9 Cu 1.01065(6) 0.55751(5) 0.12847(4)
Cu10 Cu 0.97618(6) 0.81350(4) 0.21866(4)
Gd1 Gd 0.57024(2) 0.85535(2) 0.18256(2)
Gd2 Gd 0.96756(2) 0.59681(2) 0.30927(2)
N1 N 0.5441(4) 1.0401(3) 0.2636(2)
N2 N 0.5747(6) 1.2044(3) 0.2469(3)
H33 H 0.6361 1.2528 0.2525
H34 H 0.5159 1.2255 0.2213
N3 N 0.4829(4) 0.8018(3) 0.3313(2)
N4 N 0.4653(4) 0.8768(3) 0.4430(2)
H35 H 0.5266 0.8960 0.4796
H36 H 0.4094 0.9011 0.4547
N5 N 0.5092(4) 0.6350(3) 0.1884(2)
N6 N 0.4575(4) 0.5153(3) 0.2716(3)
H37 H 0.5137 0.4989 0.3042
H38 H 0.3920 0.4880 0.2849
N7 N 0.5261(4) 0.7706(3) 0.0181(2)
N8 N 0.4890(4) 0.6200(3) -0.0445(2)
H39 H 0.5251 0.5727 -0.0477
H40 H 0.4156 0.5974 -0.0645
N9 N 0.6083(4) 1.0215(3) 0.0774(2)
N10 N 0.6622(4) 1.0481(3) -0.0394(2)
H41 H 0.7257 1.0412 -0.0536
H42 H 0.6129 1.0563 -0.0808
N11 N 0.9593(4) 0.6603(3) 0.4708(3)
N12 N 0.9794(4) 0.8028(3) 0.5412(2)
H43 H 1.0509 0.8276 0.5645
H44 H 0.9384 0.8463 0.5459
N13 N 0.8676(4) 0.4181(3) 0.3902(2)
N14 N 0.8061(4) 0.3773(3) 0.5009(2)
H45 H 0.8496 0.3607 0.5420
H46 H 0.7429 0.3869 0.5141
N15 N 0.9363(4) 0.4241(3) 0.2010(2)
N16 N 0.8806(4) 0.2555(3) 0.1987(3)
H47 H 0.9212 0.2162 0.2231
H48 H 0.8107 0.2207 0.1804
N17 N 1.0138(4) 0.6729(3) 0.1585(2)
N18 N 1.0629(4) 0.6203(3) 0.0497(3)
H49 H 1.1357 0.6189 0.0527
H50 H 1.0235 0.5903 0.0059
N19 N 0.9489(4) 0.8092(3) 0.3086(2)
N20 N 0.9506(4) 0.9332(3) 0.2262(3)
H51 H 0.9961 0.9742 0.2020
H52 H 0.8787 0.9328 0.2050
O1 O 0.5280(3) 0.9508(2) 0.2665(2)
O2 O 0.5089(3) 1.0434(3) 0.3704(2)
O3 O 0.4986(3) 0.7682(2) 0.2709(2)
O4 O 0.4390(3) 0.6611(3) 0.3620(2)
O5 O 0.5331(3) 0.7040(2) 0.1472(2)
O6 O 0.4900(3) 0.5450(2) 0.0946(2)
O7 O 0.5413(3) 0.8480(2) 0.05628(19)
O8 O 0.5790(3) 0.8523(2) -0.0681(2)
O9 O 0.5762(3) 0.9985(2) 0.13825(19)
O10 O 0.6569(3) 1.1628(2) 0.12031(19)
O11 O 0.9474(3) 0.5871(2) 0.4272(2)
O12 O 0.8923(3) 0.5663(3) 0.5450(2)
O13 O 0.9070(3) 0.4457(2) 0.33181(19)
O14 O 0.8142(3) 0.2823(3) 0.3344(2)
O15 O 0.9528(3) 0.5142(2) 0.2058(2)
O16 O 0.9850(3) 0.4362(3) 0.0988(2)
O17 O 0.9871(3) 0.6947(2) 0.21973(19)
O18 O 1.0191(3) 0.8140(3) 0.1319(2)
O19 O 0.9441(3) 0.7373(2) 0.34783(19)
O20 O 0.9732(3) 0.8915(3) 0.4081(2)
O21 O 0.3931(3) 0.8379(3) 0.1452(2)
O22 O 0.2768(3) 0.7160(3) 0.1491(2)
O23 O 0.3165(3) 0.6332(3) 0.0453(2)
H53 H 0.2933 0.5831 0.0564
H54 H 0.3124 0.6776 0.0642
O24 O 0.7107(3) 0.8867(3) 0.2784(2)
O25 O 0.7431(4) 0.9451(3) 0.3845(2)
O26 O 0.6647(3) 0.4903(3) 0.3181(2)
O27 O 0.7893(3) 0.5788(3) 0.2794(2)
O28 O 0.7278(3) 0.8518(3) 0.1479(2)
O29 O 0.7762(3) 0.8938(3) 0.0509(2)
O30 O 0.7693(3) 0.5238(3) -0.0875(2)
O31 O 0.7802(4) 0.6591(3) -0.1203(2)
O32 O 0.6985(3) 0.3734(3) 0.2227(2)
H55 H 0.7153 0.3835 0.1851
H56 H 0.6984 0.4149 0.2482
O33 O 1.1861(4) 0.5578(3) 0.1920(2)
H57 H 1.2326 0.6040 0.1953
H58 H 1.1984 0.5254 0.1626
O34 O 1.1093(3) 0.5161(3) 0.3317(2)
H59 H 1.1132 0.4781 0.3610
H60 H 1.1500 0.5654 0.3421
O35 O 0.1303(3) 0.6862(3) 0.3597(2)
O36 O 0.1508(3) 0.8032(3) 0.4282(2)
O37 O 0.7716(3) 1.0720(3) 0.2425(2)
H61 H 0.7506 1.0253 0.2546
H62 H 0.7878 1.0586 0.2064
Cu6_2 Cu -0.02529(6) 0.77695(4) 0.44213(4)
Gd2_2 Gd -0.03244(2) 0.59681(2) 0.30927(2)
O35_2 O 1.1303(3) 0.6862(3) 0.3597(2)
O36_2 O 1.1508(3) 0.8032(3) 0.4282(2)
O38 O 0.8041(4) 0.1183(3) 0.3942(2)
H63 H 0.7906 0.0641 0.3870
H64 H 0.7997 0.1487 0.3598
O39 O 0.8464(4) 0.0603(3) 0.1230(2)
H65 H 0.8217 0.0136 0.1003
H66 H 0.9093 0.0674 0.1319
O40 O 0.7147(3) 0.3390(3) 0.0906(2)
H67 H 0.7248 0.3431 0.0511
H68 H 0.6911 0.2848 0.0900
O41 O 0.0551(4) 0.0904(3) 0.1624(3)
H69 H 0.0890 0.1095 0.1308
H70 H 0.0728 0.1354 0.1913
O42 O 0.0799(4) 0.2122(4) 0.2650(2)
H71 H 0.1375 0.2432 0.2671
H72 H 0.0809 0.1703 0.2889
O43 O 0.5668(5) 0.3856(4) 0.4096(3)
H73 H 0.5918 0.4151 0.4464
H74 H 0.6089 0.4169 0.3894
O44 O 0.8724(5) 1.0620(4) -0.0640(4)
H75 H 0.8345 1.0196 -0.0888
H76 H 0.8996 1.0966 -0.0911
O45 O 0.3024(8) 0.4237(7) 0.3576(5)
H77 H 0.2817 0.4490 0.3881
H78 H 0.2493 0.3998 0.3292
O47 O 0.8808(4) 0.9566(3) 0.5301(2)
H81 H 0.8440 0.9610 0.4916
H82 H 0.9268 1.0026 0.5376
O48 O 0.3042(3) 0.9319(3) 0.4940(2)
H83 H 0.3081 0.9275 0.5358
H84 H 0.2555 0.8948 0.4712
O49 O 0.3674(4) 0.0906(3) 0.4386(3)
H85 H 0.4068 0.0759 0.4159
H86 H 0.3339 0.0442 0.4510
O50 O 0.6428(5) 0.4465(3) 0.5470(3)
H87 H 0.6264 0.3979 0.5645
H88 H 0.5846 0.4576 0.5292
O51 O 0.8220(7) 0.6185(4) 0.7576(3)
H89 H 0.7946 0.6321 0.7893
H90 H 0.8540 0.5823 0.7469
O52 O 0.1927(6) 0.1472(5) 0.3726(4)
H91 H 0.2554 0.1559 0.3884
H92 H 0.1638 0.1094 0.3963
O53 O 0.3849(8) 0.2827(6) 0.3637(5)
H93 H 0.4440 0.3133 0.3815
H94 H 0.3644 0.3097 0.3291
O55 O 0.9237(8) 0.9077(6) 0.9729(5)
H97 H 0.9289 0.9574 0.9583
H98 H 0.9683 0.9093 1.0079
O56 O 0.6975(8) 0.8935(6) 0.8369(5)
H99 H 0.6443 0.8564 0.8147
H100 H 0.7296 0.8602 0.8622
O57 O 0.6507(8) 0.7398(7) 0.7779(5)
H101 H 0.6742 0.6978 0.7942
H102 H 0.6450 0.7355 0.7353
O46? O 0.3354(11) 0.3873(9) 0.3753(8)
H79? H 0.3669 0.4146 0.4125
H80? H 0.3770 0.3956 0.3485
O54? O 0.2740(12) 0.2023(12) 0.3435(10)
H95? H 0.2697 0.1572 0.3664
H96? H 0.2199 0.2197 0.3437
O58? O 0.7884(11) 0.8991(9) 0.9114(8)
H103? H 0.7376 0.8584 0.8955
H104? H 0.8083 0.8878 0.9525
O59? O 0.6656(15) 0.7898(13) 0.8062(11)
H105? H 0.7070 0.7895 0.8431
H106? H 0.6850 0.7634 0.7762
loop_
_geom_bond_atom_site_label_1
_geom_bond_atom_site_label_2
_geom_bond_site_symmetry_1
_geom_bond_site_symmetry_2
C1 C2 1_555 1_555
C2 H1 1_555 1_555
H2 C2 1_555 1_555
C3 C4 1_555 1_555
C4 H3 1_555 1_555
H4 C4 1_555 1_555
C5 C6 1_555 1_555
C6 H5 1_555 1_555
H6 C6 1_555 1_555
C7 C8 1_555 1_555
C8 H7 1_555 1_555
H8 C8 1_555 1_555
C9 C10 1_555 1_555
C10 H9 1_555 1_555
H10 C10 1_555 1_555
C11 C12 1_555 1_555
C12 H11 1_555 1_555
H12 C12 1_555 1_555
C13 C14 1_555 1_555
C14 H13 1_555 1_555
H14 C14 1_555 1_555
C15 C16 1_555 1_555
C16 H15 1_555 1_555
H16 C16 1_555 1_555
C17 C18 1_555 1_555
C18 H17 1_555 1_555
H18 C18 1_555 1_555
C19 C20 1_555 1_555
C20 H19 1_555 1_555
H20 C20 1_555 1_555
C21 C22 1_555 1_555
C22 C23 1_555 1_555
C23 H21 1_555 1_555
C24 C23 1_555 1_555
H22 C24 1_555 1_555
C25 C26 1_555 1_555
C26 C27 1_555 1_555
C27 H23 1_555 1_555
C28 C27 1_555 1_555
H24 C28 1_555 1_555
C29 C28 1_555 1_555
H25 C29 1_555 1_555
C30 C29 1_555 1_555
C31 C26 1_555 1_555
H26 C31 1_555 1_555
C32 C30 1_555 1_555
C33 C34 1_555 1_555
C34 C35 1_555 1_555
C35 H27 1_555 1_555
C36 C35 1_555 1_555
H28 C36 1_555 1_555
C37 C36 1_555 1_555
H29 C37 1_555 1_555
C38 C37 1_555 1_555
C39 C34 1_555 1_555
H30 C39 1_555 1_555
C40 C38 1_555 1_555
C41 C42 1_555 1_555
C42 C43 1_555 1_555
C43 C24 1_555 1_555
H31 C43 1_555 1_555
C44 C22 1_555 1_555
H32 C44 1_555 1_555
Cu1 N1 1_555 1_555
Cu2 N1 1_555 1_555
Cu3 N3 1_555 1_555
Cu4 N5 1_555 1_555
Cu5 N7 1_555 1_555
Cu6 N11 1_555 1_555
Cu7 N11 1_555 1_555
Cu8 N13 1_555 1_555
Cu9 N15 1_555 1_555
Cu10 N17 1_555 1_555
Gd1 O1 1_555 1_555
Gd2 O11 1_555 1_555
N1 C1 1_555 1_555
N2 C2 1_555 1_555
H33 N2 1_555 1_555
H34 N2 1_555 1_555
N3 C3 1_555 1_555
N4 C4 1_555 1_555
H35 N4 1_555 1_555
H36 N4 1_555 1_555
N5 C5 1_555 1_555
N6 C6 1_555 1_555
H37 N6 1_555 1_555
H38 N6 1_555 1_555
N7 C7 1_555 1_555
N8 C8 1_555 1_555
H39 N8 1_555 1_555
H40 N8 1_555 1_555
N9 C9 1_555 1_555
N10 C10 1_555 1_555
H41 N10 1_555 1_555
H42 N10 1_555 1_555
N11 C11 1_555 1_555
N12 C12 1_555 1_555
H43 N12 1_555 1_555
H44 N12 1_555 1_555
N13 C13 1_555 1_555
N14 C14 1_555 1_555
H45 N14 1_555 1_555
H46 N14 1_555 1_555
N15 C15 1_555 1_555
N16 C16 1_555 1_555
H47 N16 1_555 1_555
H48 N16 1_555 1_555
N17 C17 1_555 1_555
N18 C18 1_555 1_555
H49 N18 1_555 1_555
H50 N18 1_555 1_555
N19 C19 1_555 1_555
N20 C20 1_555 1_555
H51 N20 1_555 1_555
H52 N20 1_555 1_555
O1 Cu2 1_555 1_555
O2 C1 1_555 1_555
O3 Cu3 1_555 1_555
O4 C3 1_555 1_555
O5 Cu4 1_555 1_555
O6 C5 1_555 1_555
O7 Cu5 1_555 1_555
O8 C7 1_555 1_555
O9 Cu1 1_555 1_555
O10 C9 1_555 1_555
O11 Cu7 1_555 1_555
O12 C11 1_555 1_555
O13 Cu8 1_555 1_555
O14 C13 1_555 1_555
O15 Cu9 1_555 1_555
O16 C15 1_555 1_555
O17 Cu10 1_555 1_555
O18 C17 1_555 1_555
O19 Cu6 1_555 1_555
O20 C19 1_555 1_555
O21 C21 1_555 1_555
O22 C21 1_555 1_555
O23 Cu4 1_555 1_555
H53 O23 1_555 1_555
H54 O23 1_555 1_555
O24 C25 1_555 1_555
O25 C25 1_555 1_555
O26 C32 1_555 1_555
O27 C32 1_555 1_555
O28 C33 1_555 1_555
O29 C33 1_555 1_555
O30 C40 1_555 1_555
O31 C40 1_555 1_555
O32 Cu8 1_555 1_555
H55 O32 1_555 1_555
H56 O32 1_555 1_555
O33 Cu9 1_555 1_555
H57 O33 1_555 1_555
H58 O33 1_555 1_555
O34 Gd2 1_555 1_555
H59 O34 1_555 1_555
H60 O34 1_555 1_555
O35 C41 1_555 1_555
O36 C41 1_555 1_555
O37 Cu1 1_555 1_555
H61 O37 1_555 1_555
H62 O37 1_555 1_555
O38 H63 1_555 1_555
H64 O38 1_555 1_555
O39 H65 1_555 1_555
H66 O39 1_555 1_555
O40 H67 1_555 1_555
H68 O40 1_555 1_555
O41 H69 1_555 1_555
H70 O41 1_555 1_555
O42 H71 1_555 1_555
H72 O42 1_555 1_555
O43 H73 1_555 1_555
H74 O43 1_555 1_555
O44 H75 1_555 1_555
H76 O44 1_555 1_555
O45 H77 1_555 1_555
H78 O45 1_555 1_555
O47 H81 1_555 1_555
H82 O47 1_555 1_555
O48 H83 1_555 1_555
H84 O48 1_555 1_555
O49 H85 1_555 1_555
H86 O49 1_555 1_555
O50 H87 1_555 1_555
H88 O50 1_555 1_555
O51 H89 1_555 1_555
H90 O51 1_555 1_555
O52 H91 1_555 1_555
H92 O52 1_555 1_555
O53 H93 1_555 1_555
H94 O53 1_555 1_555
O55 H97 1_555 1_555
H98 O55 1_555 1_555
O56 H99 1_555 1_555
H100 O56 1_555 1_555
O57 H101 1_555 1_555
H102 O57 1_555 1_555
Cu6_2 O36 1_555 1_555
Gd2_2 O35 1_555 1_555
O35_2 Gd2 1_555 1_555
O36_2 Cu6 1_555 1_555
C30 C31 1_555 1_555
C38 C39 1_555 1_555
C42 C44 1_555 1_555
Cu1 N2 1_555 1_555
Cu1 N9 1_555 1_555
Cu1 O10 1_555 1_555
Cu2 N3 1_555 1_555
Cu2 N4 1_555 1_555
Cu2 O2 1_555 1_555
Cu3 N5 1_555 1_555
Cu3 N6 1_555 1_555
Cu3 O4 1_555 1_555
Cu4 N7 1_555 1_555
Cu4 N8 1_555 1_555
Cu4 O6 1_555 1_555
Cu5 N9 1_555 1_555
Cu5 N10 1_555 1_555
Cu5 O8 1_555 1_555
Cu5 O29 1_555 1_555
Cu6 N12 1_555 1_555
Cu6 N19 1_555 1_555
Cu6 O20 1_555 1_555
Cu7 N13 1_555 1_555
Cu7 N14 1_555 1_555
Cu7 O12 1_555 1_555
Cu8 N15 1_555 1_555
Cu8 N16 1_555 1_555
Cu8 O14 1_555 1_555
Cu9 N17 1_555 1_555
Cu9 N18 1_555 1_555
Cu9 O16 1_555 1_555
Cu10 N19 1_555 1_555
Cu10 N20 1_555 1_555
Cu10 O18 1_555 1_555
Gd1 O3 1_555 1_555
Gd1 O5 1_555 1_555
Gd1 O7 1_555 1_555
Gd1 O9 1_555 1_555
Gd1 O21 1_555 1_555
Gd1 O24 1_555 1_555
Gd1 O28 1_555 1_555
Gd2 O13 1_555 1_555
Gd2 O15 1_555 1_555
Gd2 O17 1_555 1_555
Gd2 O19 1_555 1_555
Gd2 O27 1_555 1_555
N1 O1 1_555 1_555
N3 O3 1_555 1_555
N5 O5 1_555 1_555
N7 O7 1_555 1_555
N9 O9 1_555 1_555
N11 O11 1_555 1_555
N13 O13 1_555 1_555
N15 O15 1_555 1_555
N17 O17 1_555 1_555
N19 O19 1_555 1_555

#END
