
#######################################################################
#
#                 Cambridge Crystallographic Data Centre
#                                CCDC 
#
#######################################################################
#
# If this CIF has been generated from an entry in the Cambridge 
# Structural Database, then it will include bibliographic, chemical, 
# crystal, experimental, refinement or atomic coordinate data resulting 
# from the CCDC's data processing and validation procedures.
#
#######################################################################

data_GIXRUC
_symmetry_cell_setting           monoclinic
_symmetry_space_group_name_H-M   'P 21/n'
_symmetry_Int_Tables_number      14
_space_group_name_Hall           '-P 2yn'
loop_
_symmetry_equiv_pos_site_id
_symmetry_equiv_pos_as_xyz
1 x,y,z
2 1/2-x,1/2+y,1/2-z
3 -x,-y,-z
4 1/2+x,1/2-y,1/2+z
_cell_length_a                   10.4437(12)
_cell_length_b                   17.795(2)
_cell_length_c                   14.4223(18)
_cell_angle_alpha                90
_cell_angle_beta                 98.843(3)
_cell_angle_gamma                90
_cell_volume                     2648.46
loop_
_atom_site_label
_atom_site_type_symbol
_atom_site_fract_x
_atom_site_fract_y
_atom_site_fract_z
C1 C 0.0963(3) -0.05609(16) 0.6753(2)
H1 H 0.1151 -0.0994 0.6439
C2 C 0.1222(2) 0.01464(15) 0.64191(18)
C3 C 0.0912(2) 0.08014(15) 0.68564(18)
H2 H 0.1092 0.1268 0.6616
C4 C 0.0328(2) 0.07508(15) 0.76616(18)
C5 C 0.0106(3) 0.00424(16) 0.8024(2)
H3 H -0.0252 0.0004 0.8574
C6 C 0.0416(3) -0.06047(16) 0.7568(2)
H4 H 0.0255 -0.1073 0.7812
N1 N -0.0084(2) 0.13996(12) 0.80986(16)
H5 H -0.0897 0.1483 0.8087
H6 H 0.0479 0.1711 0.8376
N2 N 0.2778(3) -0.06925(14) 1.07331(17)
H7 H 0.2916 -0.1169 1.0733
H8 H 0.2002 -0.0522 1.0593
C7 C 0.3681(3) 0.00607(15) 0.58804(17)
C8 C 0.4509(3) 0.06768(15) 0.60060(17)
H9 H 0.4191 0.1159 0.5870
C9 C 0.5821(3) 0.05635(16) 0.63382(17)
C10 C 0.6273(3) -0.01643(16) 0.65636(18)
H10 H 0.7141 -0.0242 0.6804
C11 C 0.5431(3) -0.07698(16) 0.64297(18)
H11 H 0.5744 -0.1252 0.6571
C12 C 0.4129(3) -0.06675(16) 0.60881(18)
H12 H 0.3566 -0.1075 0.5999
C13 C 0.5456(3) 0.25463(14) 0.87723(19)
C14 C 0.4268(3) 0.24993(16) 0.8185(2)
H13 H 0.4236 0.2553 0.7541
C15 C 0.3133(3) 0.23734(17) 0.8548(2)
H14 H 0.2346 0.2363 0.8146
C16 C 0.3151(3) 0.22633(16) 0.9502(2)
H15 H 0.2392 0.2176 0.9747
C17 C 0.4347(3) 0.22885(14) 1.00773(18)
C18 C 0.5501(3) 0.24396(14) 0.97367(18)
H16 H 0.6282 0.2469 1.0143
C19 C 0.3625(3) 0.05841(15) 1.10032(17)
H17 H 0.2794 0.0782 1.0865
C20 C 0.4692(3) 0.10513(14) 1.12536(17)
C21 C 0.5945(3) 0.07833(15) 1.14655(18)
H18 H 0.6641 0.1109 1.1621
C22 C 0.6131(3) 0.00096(16) 1.14395(19)
H19 H 0.6961 -0.0189 1.1590
C23 C 0.5087(3) -0.04646(16) 1.11914(19)
H20 H 0.5225 -0.0980 1.1175
C24 C 0.3835(3) -0.01864(15) 1.09659(18)
N3 N 0.6623(2) 0.26627(13) 0.84062(17)
H21 H 0.6607 0.2706 0.7811
H22 H 0.7348 0.2690 0.8779
N4 N 0.6707(2) 0.11750(14) 0.64362(16)
H23 H 0.6436 0.1622 0.6290
H24 H 0.7513 0.1098 0.6642
O1 O 0.15993(19) -0.04268(12) 0.48262(14)
O2 O 0.18802(19) 0.09573(11) 0.50456(13)
O3 O 0.3202(2) 0.21820(12) 1.15697(14)
O4 O 0.5595(2) 0.23663(11) 1.17955(13)
S1 S 0.44388(6) 0.20346(4) 1.12729(4)
S2 S 0.20216(6) 0.02057(4) 0.54214(4)
Ag1 Ag 0.76055(2) 0.150378(13) 0.796385(15)
N1_2 N 0.9916(2) 0.13996(12) 0.80986(16)
N2B N 0.7222(3) 0.06925(14) 0.92669(17)
Ag1_2 Ag -0.23945(2) 0.150378(13) 0.796385(15)
Ag1B Ag 0.23945(2) -0.150378(13) 1.203615(15)
F1 F 0.9643(3) 0.24771(11) 0.96901(14)
B1 B 0.9639(3) 0.1987(2) 1.0427(2)
F2 F 1.0162(2) 0.13012(11) 1.02005(12)
F3 F 0.83874(18) 0.18699(13) 1.05983(15)
F4 F 1.03647(19) 0.22774(12) 1.12243(13)
loop_
_geom_bond_atom_site_label_1
_geom_bond_atom_site_label_2
_geom_bond_site_symmetry_1
_geom_bond_site_symmetry_2
C1 H1 1_555 1_555
C2 C1 1_555 1_555
C3 C2 1_555 1_555
H2 C3 1_555 1_555
C4 C3 1_555 1_555
C5 C4 1_555 1_555
H3 C5 1_555 1_555
C6 C1 1_555 1_555
H4 C6 1_555 1_555
N1 C4 1_555 1_555
H5 N1 1_555 1_555
H6 N1 1_555 1_555
N2 H7 1_555 1_555
H8 N2 1_555 1_555
C7 C8 1_555 1_555
C8 H9 1_555 1_555
C9 C8 1_555 1_555
C10 C9 1_555 1_555
H10 C10 1_555 1_555
C11 C10 1_555 1_555
H11 C11 1_555 1_555
C12 C7 1_555 1_555
H12 C12 1_555 1_555
C13 C14 1_555 1_555
C14 H13 1_555 1_555
C15 C14 1_555 1_555
H14 C15 1_555 1_555
C16 C15 1_555 1_555
H15 C16 1_555 1_555
C17 C16 1_555 1_555
C18 C13 1_555 1_555
H16 C18 1_555 1_555
C19 H17 1_555 1_555
C20 C19 1_555 1_555
C21 C20 1_555 1_555
H18 C21 1_555 1_555
C22 C21 1_555 1_555
H19 C22 1_555 1_555
C23 C22 1_555 1_555
H20 C23 1_555 1_555
C24 N2 1_555 1_555
N3 C13 1_555 1_555
H21 N3 1_555 1_555
H22 N3 1_555 1_555
N4 C9 1_555 1_555
H23 N4 1_555 1_555
H24 N4 1_555 1_555
O1 S2 1_555 1_555
O2 S2 1_555 1_555
O3 S1 1_555 1_555
O4 S1 1_555 1_555
S1 C17 1_555 1_555
S2 C2 1_555 1_555
Ag1 N3 1_555 1_555
F1 B1 1_555 1_555
B1 F2 1_555 1_555
F3 B1 1_555 1_555
F4 B1 1_555 1_555
N1_2 Ag1 1_555 1_555
N2B Ag1 1_555 1_555
Ag1_2 N1 1_555 1_555
Ag1B N2 1_555 1_555
C5 C6 1_555 1_555
C7 S2 1_555 1_555
C11 C12 1_555 1_555
C17 C18 1_555 1_555
C19 C24 1_555 1_555
C20 S1 1_555 1_555
C23 C24 1_555 1_555
N4 Ag1 1_555 1_555

#END
