
#######################################################################
#
#                 Cambridge Crystallographic Data Centre
#                                CCDC 
#
#######################################################################
#
# If this CIF has been generated from an entry in the Cambridge 
# Structural Database, then it will include bibliographic, chemical, 
# crystal, experimental, refinement or atomic coordinate data resulting 
# from the CCDC's data processing and validation procedures.
#
#######################################################################

data_GIXTOX
_symmetry_cell_setting           monoclinic
_symmetry_space_group_name_H-M   'C 2/n'
_symmetry_Int_Tables_number      15
_space_group_name_Hall           '-C 2ybc'
loop_
_symmetry_equiv_pos_site_id
_symmetry_equiv_pos_as_xyz
1 x,y,z
2 1/2+x,1/2+y,z
3 1/2-x,y,1/2-z
4 -x,1/2+y,1/2-z
5 -x,-y,-z
6 1/2-x,1/2-y,-z
7 1/2+x,-y,1/2+z
8 x,1/2-y,1/2+z
_cell_length_a                   22.8420(9)
_cell_length_b                   23.4045(9)
_cell_length_c                   19.8531(8)
_cell_angle_alpha                90
_cell_angle_beta                 95.9120(10)
_cell_angle_gamma                90
_cell_volume                     10557.1
loop_
_atom_site_label
_atom_site_type_symbol
_atom_site_fract_x
_atom_site_fract_y
_atom_site_fract_z
Zn1 Zn 0.2500 0.35298(2) 0.2500
Zn2 Zn 0.249958(18) 0.439170(18) 0.44420(2)
Zn3 Zn 0.326906(17) 0.483482(17) 0.25922(2)
N8 N 0.18035(13) 0.30074(13) 0.20835(16)
N9 N 0.19554(13) 0.35315(13) 0.32688(15)
N10 N 0.19330(13) 0.38201(13) 0.38514(15)
N11 N 0.16998(15) 0.43388(14) 0.49925(16)
N12 N 0.29605(16) 0.37426(14) 0.51406(16)
N13 N 0.32953(13) 0.42229(13) 0.40260(15)
N14 N 0.35413(13) 0.44060(13) 0.34745(15)
N15 N 0.41173(13) 0.45808(13) 0.24033(16)
N16 N 0.15909(13) 0.56682(12) 0.20761(15)
N17 N 0.19897(13) 0.52729(12) 0.32876(15)
N18 N 0.22574(13) 0.51498(12) 0.39091(14)
N19 N 0.28613(14) 0.50896(14) 0.51323(16)
O1 O 0.2500 0.43914(15) 0.2500
C9 C 0.17868(19) 0.27184(17) 0.1499(2)
H1 H 0.2094 0.2770 0.1216
C10 C 0.1332(2) 0.23462(19) 0.1299(2)
H2 H 0.1331 0.2143 0.0885
C11 C 0.0888(2) 0.2272(2) 0.1694(2)
H3 H 0.0577 0.2013 0.1562
C12 C 0.08904(19) 0.25794(19) 0.2296(2)
H4 H 0.0577 0.2542 0.2572
C13 C 0.13618(16) 0.29412(15) 0.24836(19)
C14 C 0.14312(16) 0.32657(15) 0.31093(19)
C15 C 0.10633(16) 0.33813(16) 0.3609(2)
H5 H 0.0672 0.3250 0.3634
C16 C 0.13942(16) 0.37283(16) 0.40596(19)
C17 C 0.12634(18) 0.40099(17) 0.4686(2)
C18 C 0.0727(2) 0.3937(2) 0.4956(3)
H6 H 0.0424 0.3707 0.4733
C19 C 0.0651(2) 0.4210(2) 0.5562(3)
H7 H 0.0293 0.4167 0.5762
C20 C 0.1092(2) 0.4541(2) 0.5869(2)
H8 H 0.1045 0.4729 0.6284
C21 C 0.1606(2) 0.4601(2) 0.5570(2)
H9 H 0.1907 0.4839 0.5784
C22 C 0.2767(2) 0.35061(19) 0.5696(2)
H10 H 0.2372 0.3573 0.5786
C23 C 0.3125(2) 0.3169(2) 0.6140(2)
H11 H 0.2976 0.3003 0.6525
C24 C 0.3702(2) 0.3078(2) 0.6016(2)
H12 H 0.3958 0.2857 0.6321
C25 C 0.3901(2) 0.3312(2) 0.5449(2)
H13 H 0.4295 0.3249 0.5352
C26 C 0.35198(18) 0.36423(16) 0.50155(19)
C27 C 0.36953(17) 0.39017(16) 0.43989(19)
C28 C 0.42146(18) 0.38687(18) 0.4087(2)
H14 H 0.4568 0.3673 0.4239
C29 C 0.40930(16) 0.41891(16) 0.35038(19)
C30 C 0.44274(16) 0.43171(16) 0.2932(2)
C31 C 0.50229(18) 0.4194(2) 0.2924(2)
H15 H 0.5239 0.4011 0.3298
C32 C 0.52924(19) 0.4345(2) 0.2357(2)
H16 H 0.5699 0.4267 0.2340
C33 C 0.49755(19) 0.46044(19) 0.1822(2)
H17 H 0.5156 0.4703 0.1428
C34 C 0.43845(17) 0.47228(16) 0.1864(2)
H18 H 0.4165 0.4911 0.1496
C35 C 0.13423(17) 0.58259(17) 0.1466(2)
H19 H 0.1247 0.5539 0.1134
C36 C 0.1218(2) 0.63914(18) 0.1298(2)
H20 H 0.1039 0.6495 0.0862
C37 C 0.1366(2) 0.67992(19) 0.1793(2)
H21 H 0.1291 0.7191 0.1696
C38 C 0.16207(19) 0.66439(16) 0.2422(2)
H22 H 0.1725 0.6925 0.2758
C39 C 0.17225(16) 0.60706(15) 0.25587(18)
C40 C 0.19722(16) 0.58472(15) 0.32163(17)
C41 C 0.22255(17) 0.61063(15) 0.38058(19)
H23 H 0.2269 0.6503 0.3900
C42 C 0.24014(17) 0.56454(15) 0.42275(19)
C43 C 0.27248(17) 0.56204(17) 0.48968(19)
C44 C 0.2886(2) 0.6106(2) 0.5269(2)
H24 H 0.2786 0.6475 0.5093
C45 C 0.3198(2) 0.6045(2) 0.5905(2)
H25 H 0.3308 0.6372 0.6173
C46 C 0.3345(2) 0.5507(2) 0.6142(2)
H26 H 0.3560 0.5454 0.6573
C47 C 0.3172(2) 0.5042(2) 0.5738(2)
H27 H 0.3280 0.4671 0.5899
Zn2B Zn 0.250042(18) 0.439170(18) 0.05580(2)
Zn3B Zn 0.173094(17) 0.483482(17) 0.24078(2)
N8B N 0.31965(13) 0.30074(13) 0.29165(16)
N9B N 0.30446(13) 0.35315(13) 0.17312(15)
N10B N 0.30670(13) 0.38201(13) 0.11486(15)
N11B N 0.33002(15) 0.43388(14) 0.00075(16)
N12B N 0.20395(16) 0.37426(14) -0.01406(16)
N13B N 0.17047(13) 0.42229(13) 0.09740(15)
N14B N 0.14587(13) 0.44060(13) 0.15255(15)
N15B N 0.08827(13) 0.45808(13) 0.25967(16)
N16B N 0.34091(13) 0.56682(12) 0.29239(15)
N17B N 0.30103(13) 0.52729(12) 0.17124(15)
N18B N 0.27426(13) 0.51498(12) 0.10909(14)
N19B N 0.21387(14) 0.50896(14) -0.01323(16)
C9B C 0.32132(19) 0.27184(17) 0.3501(2)
H1B H 0.2906 0.2770 0.3784
C10B C 0.3668(2) 0.23462(19) 0.3701(2)
H2B H 0.3669 0.2143 0.4115
C11B C 0.4112(2) 0.2272(2) 0.3306(2)
H3B H 0.4423 0.2013 0.3438
C12B C 0.41096(19) 0.25794(19) 0.2704(2)
H4B H 0.4423 0.2542 0.2428
C13B C 0.36382(16) 0.29412(15) 0.25164(19)
C14B C 0.35688(16) 0.32657(15) 0.18907(19)
C15B C 0.39367(16) 0.33813(16) 0.1391(2)
H5B H 0.4328 0.3250 0.1366
C16B C 0.36058(16) 0.37283(16) 0.09404(19)
C17B C 0.37366(18) 0.40099(17) 0.0314(2)
C18B C 0.4273(2) 0.3937(2) 0.0044(3)
H6B H 0.4576 0.3707 0.0267
C19B C 0.4349(2) 0.4210(2) -0.0562(3)
H7B H 0.4707 0.4167 -0.0762
C20B C 0.3908(2) 0.4541(2) -0.0869(2)
H8B H 0.3955 0.4729 -0.1284
C21B C 0.3394(2) 0.4601(2) -0.0570(2)
H9B H 0.3093 0.4839 -0.0784
C22B C 0.2233(2) 0.35061(19) -0.0696(2)
H10B H 0.2628 0.3573 -0.0786
C23B C 0.1875(2) 0.3169(2) -0.1140(2)
H11B H 0.2024 0.3003 -0.1525
C24B C 0.1298(2) 0.3078(2) -0.1016(2)
H12B H 0.1042 0.2857 -0.1321
C25B C 0.1099(2) 0.3312(2) -0.0449(2)
H13B H 0.0705 0.3249 -0.0352
C26B C 0.14802(18) 0.36423(16) -0.00155(19)
C27B C 0.13047(17) 0.39017(16) 0.06011(19)
C28B C 0.07854(18) 0.38687(18) 0.0913(2)
H14B H 0.0432 0.3673 0.0761
C29B C 0.09070(16) 0.41891(16) 0.14962(19)
C30B C 0.05726(16) 0.43171(16) 0.2068(2)
C31B C -0.00229(18) 0.4194(2) 0.2076(2)
H15B H -0.0239 0.4011 0.1702
C32B C -0.02924(19) 0.4345(2) 0.2643(2)
H16B H -0.0699 0.4267 0.2660
C33B C 0.00245(19) 0.46044(19) 0.3178(2)
H17B H -0.0156 0.4703 0.3572
C34B C 0.06155(17) 0.47228(16) 0.3136(2)
H18B H 0.0835 0.4911 0.3504
C35B C 0.36577(17) 0.58259(17) 0.3534(2)
H19B H 0.3753 0.5539 0.3866
C36B C 0.3782(2) 0.63914(18) 0.3702(2)
H20B H 0.3961 0.6495 0.4138
C37B C 0.3634(2) 0.67992(19) 0.3207(2)
H21B H 0.3709 0.7191 0.3304
C38B C 0.33793(19) 0.66439(16) 0.2578(2)
H22B H 0.3275 0.6925 0.2242
C39B C 0.32775(16) 0.60706(15) 0.24413(18)
C40B C 0.30278(16) 0.58472(15) 0.17837(17)
C41B C 0.27745(17) 0.61063(15) 0.11942(19)
H23B H 0.2731 0.6503 0.1100
C42B C 0.25986(17) 0.56454(15) 0.07725(19)
C43B C 0.22752(17) 0.56204(17) 0.01032(19)
C44B C 0.2114(2) 0.6106(2) -0.0269(2)
H24B H 0.2214 0.6475 -0.0093
C45B C 0.1802(2) 0.6045(2) -0.0905(2)
H25B H 0.1692 0.6372 -0.1173
C46B C 0.1655(2) 0.5507(2) -0.1142(2)
H26B H 0.1440 0.5454 -0.1573
C47B C 0.1828(2) 0.5042(2) -0.0738(2)
H27B H 0.1720 0.4671 -0.0899
Cu1 Cu 0.28812(3) 0.79153(3) 0.36860(4)
Cu2 Cu 0.39493(4) 0.74404(3) 0.58515(3)
Cu3 Cu 0.41404(4) 0.82092(3) 0.32291(3)
Cu4 Cu 0.41281(10) 0.87805(7) 0.58343(5)
Cu5 Cu 0.54095(3) 0.91511(3) 0.78614(3)
Cu6 Cu 0.7500 0.92685(6) 0.7500
Cu7 Cu 0.5000 1.0000 1.0000
S1 S 0.48818(6) 0.75242(7) 0.53612(7)
S2 S 0.34683(7) 0.88966(6) 0.35795(6)
N1 N 0.45601(17) 0.79217(17) 0.40515(19)
N2 N 0.38644(19) 0.89129(17) 0.4967(2)
C1 C 0.2569(2) 0.7898(2) 0.2794(2)
C2 C 0.3359(2) 0.7612(2) 0.5100(3)
C3 C 0.4136(2) 0.79947(19) 0.2315(2)
C4 C 0.48518(17) 0.88450(18) 0.7164(2)
C5 C 0.6705(2) 0.9245(3) 0.7587(3)
C6 C 0.5127(2) 0.9643(2) 0.9217(2)
N3 N 0.31167(19) 0.77033(19) 0.4567(2)
N4 N 0.4099(3) 0.7834(2) 0.1759(2)
N5 N 0.4538(2) 0.87586(19) 0.6682(2)
N6 N 0.6214(2) 0.9212(3) 0.7669(2)
N7 N 0.5220(2) 0.9438(2) 0.8711(2)
C7 C 0.46838(17) 0.77385(19) 0.4588(2)
C8 C 0.3712(2) 0.89187(19) 0.4392(2)
C1B C 0.2431(2) 0.7898(2) 0.2206(2)
Cu1B Cu 0.21188(3) 0.79153(3) 0.13140(4)
Cu2B Cu 0.10507(4) 0.74404(3) -0.08515(3)
Cu3B Cu 0.08596(4) 0.82092(3) 0.17709(3)
Cu4B Cu 0.08719(10) 0.87805(7) -0.08343(5)
Cu5B Cu -0.04095(3) 0.91511(3) -0.28614(3)
S1B S 0.01182(6) 0.75242(7) -0.03612(7)
S2B S 0.15317(7) 0.88966(6) 0.14205(6)
N1B N 0.04399(17) 0.79217(17) 0.09485(19)
N2B N 0.11356(19) 0.89129(17) 0.0033(2)
C2B C 0.1641(2) 0.7612(2) -0.0100(3)
C3B C 0.0864(2) 0.79947(19) 0.2685(2)
C4B C 0.01482(17) 0.88450(18) -0.2164(2)
C5B C -0.1705(2) 0.9245(3) -0.2587(3)
C6B C -0.0127(2) 0.9643(2) -0.4217(2)
N3B N 0.18833(19) 0.77033(19) 0.0433(2)
N4B N 0.0901(3) 0.7834(2) 0.3241(2)
N5B N 0.0462(2) 0.87586(19) -0.1682(2)
N6B N -0.1214(2) 0.9212(3) -0.2669(2)
N7B N -0.0220(2) 0.9438(2) -0.3711(2)
C7B C 0.03162(17) 0.77385(19) 0.0412(2)
C8B C 0.1288(2) 0.89187(19) 0.0608(2)
Cu2E Cu 0.10507(4) 0.75596(3) 0.41485(3)
Cu2G Cu 0.39493(4) 0.75596(3) 0.08515(3)
Cu6_2 Cu -0.2500 0.92685(6) -0.2500
Cu7B Cu 0.0000 1.0000 -0.5000
C5B_2 C 0.8295(2) 0.9245(3) 0.7413(3)
C6D C 0.4873(2) 1.0357(2) 1.0783(2)
N4E N 0.0901(3) 0.7166(2) -0.1759(2)
N4G N 0.4099(3) 0.7166(2) 0.6759(2)
Cu8? Cu 0.4393(17) 0.7386(15) 0.5989(17)
Cu9? Cu 0.3406(3) 0.7650(3) 0.5807(3)
Cu10? Cu 0.4375(7) 0.7994(7) 0.3398(9)
Cu11? Cu 0.385(3) 0.881(3) 0.375(3)
Cu12? Cu 0.3971(2) 0.8534(3) 0.5915(2)
Cu13? Cu 0.4346(5) 0.8555(6) 0.5821(4)
H28? H 0.2500 0.4391 0.2923
C48? C 0.31167(19) 0.77033(19) 0.4567(2)
C49? C 0.4099(3) 0.7166(2) 0.6759(2)
C50? C 0.4538(2) 0.87586(19) 0.6682(2)
C51? C 0.6214(2) 0.9212(3) 0.7669(2)
C52? C 0.5220(2) 0.9438(2) 0.8711(2)
N20? N 0.2569(2) 0.7898(2) 0.2794(2)
N21? N 0.3359(2) 0.7612(2) 0.5100(3)
N22? N 0.4136(2) 0.70053(19) 0.7315(2)
N23? N 0.48518(17) 0.88450(18) 0.7164(2)
N24? N 0.6705(2) 0.9245(3) 0.7587(3)
N25? N 0.5127(2) 0.9643(2) 0.9217(2)
loop_
_geom_bond_atom_site_label_1
_geom_bond_atom_site_label_2
_geom_bond_site_symmetry_1
_geom_bond_site_symmetry_2
Cu1 S2 1_555 1_555
Cu2 S1 1_555 1_555
Cu3 S2 1_555 1_555
Cu4 N2 1_555 1_555
Cu5 C4 1_555 1_555
Cu6 C5 1_555 1_555
Cu7 C6 1_555 1_555
S1 C7 1_555 1_555
S2 C8 1_555 1_555
N1 Cu3 1_555 1_555
N2 C8 1_555 1_555
C1 Cu1 1_555 1_555
C2 Cu2 1_555 1_555
C3 Cu3 1_555 1_555
C4 N5 1_555 1_555
C5 N6 1_555 1_555
C6 N7 1_555 1_555
N3 Cu1 1_555 1_555
N4 C3 1_555 1_555
N5 Cu4 1_555 1_555
N6 Cu5 1_555 1_555
N7 Cu5 1_555 1_555
C7 N1 1_555 1_555
Zn1 N8 1_555 1_555
Zn2 N10 1_555 1_555
Zn3 N14 1_555 1_555
N8 C9 1_555 1_555
N9 Zn1 1_555 1_555
N10 N9 1_555 1_555
N11 Zn2 1_555 1_555
N12 Zn2 1_555 1_555
N13 Zn2 1_555 1_555
N14 N13 1_555 1_555
N15 Zn3 1_555 1_555
N16 C35 1_555 1_555
N17 N18 1_555 1_555
N18 Zn2 1_555 1_555
N19 Zn2 1_555 1_555
O1 Zn1 1_555 1_555
C9 H1 1_555 1_555
C10 C9 1_555 1_555
H2 C10 1_555 1_555
C11 C10 1_555 1_555
H3 C11 1_555 1_555
C12 C11 1_555 1_555
H4 C12 1_555 1_555
C13 N8 1_555 1_555
C14 N9 1_555 1_555
C15 C14 1_555 1_555
H5 C15 1_555 1_555
C16 N10 1_555 1_555
C17 N11 1_555 1_555
C18 C17 1_555 1_555
H6 C18 1_555 1_555
C19 C18 1_555 1_555
H7 C19 1_555 1_555
C20 C19 1_555 1_555
H8 C20 1_555 1_555
C21 N11 1_555 1_555
H9 C21 1_555 1_555
C22 N12 1_555 1_555
H10 C22 1_555 1_555
C23 C22 1_555 1_555
H11 C23 1_555 1_555
C24 C23 1_555 1_555
H12 C24 1_555 1_555
C25 C24 1_555 1_555
H13 C25 1_555 1_555
C26 N12 1_555 1_555
C27 N13 1_555 1_555
C28 C27 1_555 1_555
H14 C28 1_555 1_555
C29 N14 1_555 1_555
C30 N15 1_555 1_555
C31 C30 1_555 1_555
H15 C31 1_555 1_555
C32 C31 1_555 1_555
H16 C32 1_555 1_555
C33 C32 1_555 1_555
H17 C33 1_555 1_555
C34 N15 1_555 1_555
H18 C34 1_555 1_555
C35 H19 1_555 1_555
C36 C35 1_555 1_555
H20 C36 1_555 1_555
C37 C36 1_555 1_555
H21 C37 1_555 1_555
C38 C37 1_555 1_555
H22 C38 1_555 1_555
C39 N16 1_555 1_555
C40 N17 1_555 1_555
C41 C40 1_555 1_555
H23 C41 1_555 1_555
C42 N18 1_555 1_555
C43 N19 1_555 1_555
C44 C43 1_555 1_555
H24 C44 1_555 1_555
C45 C44 1_555 1_555
H25 C45 1_555 1_555
C46 C45 1_555 1_555
H26 C46 1_555 1_555
C47 N19 1_555 1_555
H27 C47 1_555 1_555
C1B C1 1_555 1_555
Cu1B C1B 1_555 1_555
Cu2B S1B 1_555 1_555
Cu3B S2B 1_555 1_555
Cu4B N2B 1_555 1_555
Cu5B C4B 1_555 1_555
S1B C7B 1_555 1_555
S2B Cu1B 1_555 1_555
N1B Cu3B 1_555 1_555
N2B C8B 1_555 1_555
C2B Cu2B 1_555 1_555
C3B Cu3B 1_555 1_555
C4B N5B 1_555 1_555
C5B N6B 1_555 1_555
C6B N7B 1_555 1_555
N3B Cu1B 1_555 1_555
N4B C3B 1_555 1_555
N5B Cu4B 1_555 1_555
N6B Cu5B 1_555 1_555
N7B Cu5B 1_555 1_555
C7B N1B 1_555 1_555
C8B S2B 1_555 1_555
Cu2E N4B 1_555 1_555
Cu2G N4 1_555 1_555
Cu6_2 C5B 1_555 1_555
Cu7B C6B 1_555 1_555
C5B_2 Cu6 1_555 1_555
C6D Cu7 1_555 1_555
N4E Cu2B 1_555 1_555
N4G Cu2 1_555 1_555
Zn2B N10B 1_555 1_555
Zn3B N16 1_555 1_555
N8B Zn1 1_555 1_555
N9B Zn1 1_555 1_555
N10B N9B 1_555 1_555
N11B Zn2B 1_555 1_555
N12B Zn2B 1_555 1_555
N13B Zn2B 1_555 1_555
N14B Zn3B 1_555 1_555
N15B Zn3B 1_555 1_555
N16B Zn3 1_555 1_555
N17B Zn3 1_555 1_555
N18B Zn2B 1_555 1_555
N19B Zn2B 1_555 1_555
C9B N8B 1_555 1_555
H1B C9B 1_555 1_555
C10B C9B 1_555 1_555
H2B C10B 1_555 1_555
C11B C10B 1_555 1_555
H3B C11B 1_555 1_555
C12B C11B 1_555 1_555
H4B C12B 1_555 1_555
C13B N8B 1_555 1_555
C14B N9B 1_555 1_555
C15B C14B 1_555 1_555
H5B C15B 1_555 1_555
C16B N10B 1_555 1_555
C17B N11B 1_555 1_555
C18B C17B 1_555 1_555
H6B C18B 1_555 1_555
C19B C18B 1_555 1_555
H7B C19B 1_555 1_555
C20B C19B 1_555 1_555
H8B C20B 1_555 1_555
C21B N11B 1_555 1_555
H9B C21B 1_555 1_555
C22B N12B 1_555 1_555
H10B C22B 1_555 1_555
C23B C22B 1_555 1_555
H11B C23B 1_555 1_555
C24B C23B 1_555 1_555
H12B C24B 1_555 1_555
C25B C24B 1_555 1_555
H13B C25B 1_555 1_555
C26B N12B 1_555 1_555
C27B N13B 1_555 1_555
C28B C27B 1_555 1_555
H14B C28B 1_555 1_555
C29B N14B 1_555 1_555
C30B N15B 1_555 1_555
C31B C30B 1_555 1_555
H15B C31B 1_555 1_555
C32B C31B 1_555 1_555
H16B C32B 1_555 1_555
C33B C32B 1_555 1_555
H17B C33B 1_555 1_555
C34B N15B 1_555 1_555
H18B C34B 1_555 1_555
C35B N16B 1_555 1_555
H19B C35B 1_555 1_555
C36B C35B 1_555 1_555
H20B C36B 1_555 1_555
C37B C36B 1_555 1_555
H21B C37B 1_555 1_555
C38B C37B 1_555 1_555
H22B C38B 1_555 1_555
C39B N16B 1_555 1_555
C40B N17B 1_555 1_555
C41B C40B 1_555 1_555
H23B C41B 1_555 1_555
C42B N18B 1_555 1_555
C43B N19B 1_555 1_555
C44B C43B 1_555 1_555
H24B C44B 1_555 1_555
C45B C44B 1_555 1_555
H25B C45B 1_555 1_555
C46B C45B 1_555 1_555
H26B C46B 1_555 1_555
C47B N19B 1_555 1_555
H27B C47B 1_555 1_555
C2 N3 1_555 1_555
Zn3 O1 1_555 1_555
N17 Zn3B 1_555 1_555
O1 Zn3B 1_555 1_555
C12 C13 1_555 1_555
C13 C14 1_555 1_555
C15 C16 1_555 1_555
C16 C17 1_555 1_555
C20 C21 1_555 1_555
C25 C26 1_555 1_555
C26 C27 1_555 1_555
C28 C29 1_555 1_555
C29 C30 1_555 1_555
C33 C34 1_555 1_555
C38 C39 1_555 1_555
C39 C40 1_555 1_555
C41 C42 1_555 1_555
C42 C43 1_555 1_555
C46 C47 1_555 1_555
C2B N3B 1_555 1_555
N13B N14B 1_555 1_555
N17B N18B 1_555 1_555
C12B C13B 1_555 1_555
C13B C14B 1_555 1_555
C15B C16B 1_555 1_555
C16B C17B 1_555 1_555
C20B C21B 1_555 1_555
C25B C26B 1_555 1_555
C26B C27B 1_555 1_555
C28B C29B 1_555 1_555
C29B C30B 1_555 1_555
C33B C34B 1_555 1_555
C38B C39B 1_555 1_555
C39B C40B 1_555 1_555
C41B C42B 1_555 1_555
C42B C43B 1_555 1_555
C46B C47B 1_555 1_555

#END
