
#######################################################################
#
#                 Cambridge Crystallographic Data Centre
#                                CCDC 
#
#######################################################################
#
# If this CIF has been generated from an entry in the Cambridge 
# Structural Database, then it will include bibliographic, chemical, 
# crystal, experimental, refinement or atomic coordinate data resulting 
# from the CCDC's data processing and validation procedures.
#
#######################################################################

data_GIXWIU
_symmetry_cell_setting           monoclinic
_symmetry_space_group_name_H-M   'P 21/c'
_symmetry_Int_Tables_number      14
_space_group_name_Hall           '-P 2ybc'
loop_
_symmetry_equiv_pos_site_id
_symmetry_equiv_pos_as_xyz
1 x,y,z
2 -x,1/2+y,1/2-z
3 -x,-y,-z
4 x,1/2-y,1/2+z
_cell_length_a                   10.1049(3)
_cell_length_b                   25.3888(6)
_cell_length_c                   14.7244(3)
_cell_angle_alpha                90
_cell_angle_beta                 129.2740(10)
_cell_angle_gamma                90
_cell_volume                     2924.32
loop_
_atom_site_label
_atom_site_type_symbol
_atom_site_fract_x
_atom_site_fract_y
_atom_site_fract_z
Zn1 Zn -0.65704(6) -0.22314(2) -0.53935(4)
Cl1 Cl -0.6859(2) -0.26965(6) -0.68125(13)
N1 N -0.8846(5) -0.24152(16) -0.5698(3)
Cl2 Cl -0.68495(17) -0.13569(5) -0.56820(12)
O1 O -1.4811(4) -0.25344(18) -0.8741(3)
O2 O -1.3112(6) -0.2830(2) -0.9059(4)
C1 C -1.0253(6) -0.2529(2) -0.6808(4)
H1 H -1.0123 -0.2602 -0.7366
C2 C -1.1878(6) -0.2541(2) -0.7142(4)
C3 C -1.2041(6) -0.24331(19) -0.6300(4)
H2 H -1.3118 -0.2434 -0.6500
C4 C -1.0622(6) -0.23248(19) -0.5167(5)
H3 H -1.0717 -0.2257 -0.4589
C5 C -0.9026(7) -0.2319(2) -0.4907(4)
H4 H -0.8058 -0.2244 -0.4144
C6 C -1.3396(7) -0.2652(2) -0.8424(4)
Zn1C Zn -1.65704(6) -0.27686(2) -1.03935(4)
O1C O -0.4811(4) -0.24656(18) -0.3741(3)
P1 P -0.76266(13) -0.40620(4) -0.37732(10)
C7 C -0.9751(5) -0.38250(17) -0.4507(4)
C8 C -1.0126(6) -0.3568(2) -0.3859(5)
H5 H -0.9257 -0.3495 -0.3070
C9 C -1.1786(7) -0.3422(2) -0.4387(6)
H6 H -1.2038 -0.3263 -0.3944
C10 C -1.3065(7) -0.3510(2) -0.5560(6)
H7 H -1.4176 -0.3402 -0.5917
C11 C -1.2699(7) -0.3759(2) -0.6206(5)
H8 H -1.3570 -0.3819 -0.7002
C12 C -1.1061(6) -0.39198(19) -0.5692(4)
H9 H -1.0831 -0.4092 -0.6136
C13 C -0.7451(5) -0.43024(18) -0.4836(4)
C14 C -0.7469(7) -0.3941(2) -0.5568(5)
H10 H -0.7568 -0.3582 -0.5496
C15 C -0.7341(8) -0.4122(3) -0.6390(5)
H11 H -0.7353 -0.3884 -0.6874
C16 C -0.7194(7) -0.4657(3) -0.6505(5)
H12 H -0.7111 -0.4776 -0.7065
C17 C -0.7173(6) -0.5008(2) -0.5794(5)
H13 H -0.7058 -0.5366 -0.5864
C18 C -0.7322(6) -0.48364(19) -0.4973(4)
H14 H -0.7337 -0.5080 -0.4507
C19 C -0.7189(5) -0.45920(17) -0.2809(4)
C20 C -0.8376(6) -0.47348(19) -0.2681(4)
H15 H -0.9413 -0.4557 -0.3097
C21 C -0.8033(7) -0.5143(2) -0.1936(5)
H16 H -0.8850 -0.5240 -0.1863
C22 C -0.6512(7) -0.5406(2) -0.1307(5)
H17 H -0.6291 -0.5679 -0.0806
C23 C -0.5309(6) -0.5265(2) -0.1420(4)
H18 H -0.4267 -0.5441 -0.0987
C24 C -0.5634(6) -0.48636(19) -0.2172(4)
H19 H -0.4822 -0.4774 -0.2253
C25 C -0.6128(5) -0.35245(18) -0.2961(4)
H20 H -0.6270 -0.3272 -0.3512
H21 H -0.6392 -0.3346 -0.2510
C26 C -0.4278(6) -0.37054(18) -0.2135(4)
C27 C -0.3376(6) -0.3821(2) -0.2538(4)
H22 H -0.3897 -0.3775 -0.3326
C28 C -0.1729(6) -0.4001(2) -0.1776(5)
H23 H -0.1146 -0.4077 -0.2058
C29 C -0.0914(6) -0.4074(2) -0.0603(5)
C30 C -0.1803(7) -0.3948(2) -0.0203(5)
H24 H -0.1274 -0.3988 0.0589
C31 C -0.3467(6) -0.3762(2) -0.0966(4)
H25 H -0.4037 -0.3675 -0.0680
C32 C 0.0916(8) -0.4274(3) 0.0238(6)
H26 H 0.1333 -0.4335 -0.0184
H27 H 0.0950 -0.4597 0.0592
H28 H 0.1620 -0.4015 0.0838
loop_
_geom_bond_atom_site_label_1
_geom_bond_atom_site_label_2
_geom_bond_site_symmetry_1
_geom_bond_site_symmetry_2
Zn1 Cl1 1_555 1_555
P1 C7 1_555 1_555
N1 Zn1 1_555 1_555
Cl2 Zn1 1_555 1_555
O1 C6 1_555 1_555
O2 C6 1_555 1_555
C1 N1 1_555 1_555
H1 C1 1_555 1_555
C2 C1 1_555 1_555
C3 C2 1_555 1_555
H2 C3 1_555 1_555
C4 C3 1_555 1_555
H3 C4 1_555 1_555
C5 N1 1_555 1_555
H4 C5 1_555 1_555
C6 C2 1_555 1_555
C7 C8 1_555 1_555
C8 H5 1_555 1_555
C9 C8 1_555 1_555
H6 C9 1_555 1_555
C10 C9 1_555 1_555
H7 C10 1_555 1_555
C11 C10 1_555 1_555
H8 C11 1_555 1_555
C12 C7 1_555 1_555
H9 C12 1_555 1_555
C13 P1 1_555 1_555
C14 C13 1_555 1_555
H10 C14 1_555 1_555
C15 C14 1_555 1_555
H11 C15 1_555 1_555
C16 C15 1_555 1_555
H12 C16 1_555 1_555
C17 C16 1_555 1_555
H13 C17 1_555 1_555
C18 C13 1_555 1_555
H14 C18 1_555 1_555
C19 P1 1_555 1_555
C20 C19 1_555 1_555
H15 C20 1_555 1_555
C21 C20 1_555 1_555
H16 C21 1_555 1_555
C22 C21 1_555 1_555
H17 C22 1_555 1_555
C23 C22 1_555 1_555
H18 C23 1_555 1_555
C24 C19 1_555 1_555
H19 C24 1_555 1_555
C25 P1 1_555 1_555
H20 C25 1_555 1_555
H21 C25 1_555 1_555
C26 C25 1_555 1_555
C27 C26 1_555 1_555
H22 C27 1_555 1_555
C28 C27 1_555 1_555
H23 C28 1_555 1_555
C29 C28 1_555 1_555
C30 C29 1_555 1_555
H24 C30 1_555 1_555
C31 C26 1_555 1_555
H25 C31 1_555 1_555
C32 C29 1_555 1_555
H26 C32 1_555 1_555
H27 C32 1_555 1_555
H28 C32 1_555 1_555
Zn1C O1 1_555 1_555
O1C Zn1 1_555 1_555
C4 C5 1_555 1_555
C11 C12 1_555 1_555
C17 C18 1_555 1_555
C23 C24 1_555 1_555
C30 C31 1_555 1_555

#END
