
#######################################################################
#
#                 Cambridge Crystallographic Data Centre
#                                CCDC 
#
#######################################################################
#
# If this CIF has been generated from an entry in the Cambridge 
# Structural Database, then it will include bibliographic, chemical, 
# crystal, experimental, refinement or atomic coordinate data resulting 
# from the CCDC's data processing and validation procedures.
#
#######################################################################

data_GIXYAP
_symmetry_cell_setting           monoclinic
_symmetry_space_group_name_H-M   'P 21/n'
_symmetry_Int_Tables_number      14
_space_group_name_Hall           '-P 2yn'
loop_
_symmetry_equiv_pos_site_id
_symmetry_equiv_pos_as_xyz
1 x,y,z
2 1/2-x,1/2+y,1/2-z
3 -x,-y,-z
4 1/2+x,1/2-y,1/2+z
_cell_length_a                   19.2706(12)
_cell_length_b                   7.1058(4)
_cell_length_c                   25.1142(17)
_cell_angle_alpha                90
_cell_angle_beta                 103.6920(18)
_cell_angle_gamma                90
_cell_volume                     3341.24
loop_
_atom_site_label
_atom_site_type_symbol
_atom_site_fract_x
_atom_site_fract_y
_atom_site_fract_z
Cu1 Cu 0.64554(2) 0.39658(7) 0.68085(2)
S1 S 0.74513(5) 0.31041(15) 0.64889(5)
N1 N 0.56297(17) 0.4509(5) 0.71632(14)
N2 N 0.58952(17) 0.4364(5) 0.60015(15)
N3 N 0.80874(19) 0.1865(5) 0.79527(16)
N4 N 0.74982(19) 0.2197(5) 0.77129(15)
N5 N 0.68954(19) 0.2460(6) 0.74913(17)
C1 C 0.7576(3) 0.4991(7) 0.6045(2)
C2 C 0.6923(3) 0.5428(6) 0.55754(19)
C3 C 0.6238(3) 0.5894(6) 0.57407(19)
C4 C 0.5819(3) 0.2594(5) 0.56626(18)
C5 C 0.6285(3) 0.0969(6) 0.5924(2)
C6 C 0.7088(3) 0.1189(6) 0.6021(2)
C7 C 0.5160(2) 0.5028(6) 0.59962(19)
C8 C 0.4767(3) 0.3791(6) 0.63135(19)
C9 C 0.4936(2) 0.4237(6) 0.69114(19)
C10 C 0.4408(3) 0.4459(6) 0.7197(2)
C11 C 0.4574(3) 0.4985(6) 0.7731(2)
C12 C 0.5286(3) 0.5277(6) 0.7995(2)
C13 C 0.5795(3) 0.5018(6) 0.77016(18)
H1 H 0.7666 0.6216 0.6218
H2 H 0.7941 0.4785 0.5843
H3 H 0.7039 0.6492 0.5371
H4 H 0.6828 0.4334 0.5338
H5 H 0.5886 0.6292 0.5417
H6 H 0.6336 0.6919 0.6003
H7 H 0.5322 0.2218 0.5589
H8 H 0.5944 0.2906 0.5321
H9 H 0.6186 0.0747 0.6280
H10 H 0.6151 -0.0134 0.5695
H11 H 0.7127 0.1310 0.5644
H12 H 0.7244 -0.0077 0.6134
H13 H 0.5200 0.6279 0.6155
H14 H 0.4895 0.5091 0.5617
H15 H 0.4256 0.3943 0.6173
H16 H 0.4898 0.2490 0.6273
H17 H 0.3935 0.4241 0.7018
H18 H 0.4215 0.5144 0.7918
H19 H 0.5414 0.5640 0.8361
H20 H 0.6273 0.5192 0.7876
Cu1A Cu 0.85446(2) -0.10342(7) 0.81915(2)
N3A N 0.69126(19) 0.6865(5) 0.70473(16)
Cu2 Cu 0.35060(2) 0.05197(7) 0.82345(2)
S2 S 0.25004(5) 0.15807(15) 0.85049(5)
N6 N 0.43603(17) -0.0083(5) 0.79229(14)
N7 N 0.40242(17) 0.0234(5) 0.90595(15)
N8 N 0.31130(19) 0.2032(6) 0.75391(18)
N9 N 0.25308(18) 0.2335(5) 0.72735(15)
N10 N 0.19699(19) 0.2677(5) 0.69932(16)
C14 C 0.2883(3) 0.3567(6) 0.8930(2)
C15 C 0.3699(3) 0.3672(6) 0.9046(2)
C16 C 0.4111(2) 0.2083(5) 0.93614(17)
C17 C 0.3640(3) -0.1169(6) 0.93353(19)
C18 C 0.2953(3) -0.0522(6) 0.94781(19)
C19 C 0.2327(3) -0.0121(7) 0.8987(2)
C20 C 0.4747(2) -0.0579(6) 0.90893(19)
C21 C 0.5205(2) 0.0545(6) 0.87928(19)
C22 C 0.5052(2) 0.0161(6) 0.81931(19)
C23 C 0.5592(3) 0.0013(6) 0.7916(2)
C24 C 0.5452(3) -0.0426(6) 0.7377(2)
C25 C 0.4742(3) -0.0746(6) 0.7099(2)
C26 C 0.4220(3) -0.0548(6) 0.73803(19)
H21 H 0.2756 0.4810 0.8778
H22 H 0.2817 0.3588 0.9301
H23 H 0.3832 0.3713 0.8698
H24 H 0.3857 0.4814 0.9250
H25 H 0.3946 0.1920 0.9695
H26 H 0.4613 0.2417 0.9454
H27 H 0.3523 -0.2244 0.9093
H28 H 0.3968 -0.1554 0.9673
H29 H 0.2807 -0.1499 0.9699
H30 H 0.3063 0.0619 0.9694
H31 H 0.1960 0.0233 0.9173
H32 H 0.2215 -0.1380 0.8843
H33 H 0.4980 -0.0662 0.9476
H34 H 0.4673 -0.1836 0.8935
H35 H 0.5127 0.1881 0.8832
H36 H 0.5706 0.0257 0.8939
H37 H 0.6061 0.0225 0.8106
H38 H 0.5820 -0.0509 0.7196
H39 H 0.4629 -0.1083 0.6731
H40 H 0.3748 -0.0746 0.7195
Cu2A Cu 0.14940(2) 0.55197(7) 0.67655(2)
N10A N 0.30301(19) -0.2323(5) 0.80068(16)
F1 F 0.35651(13) 0.0432(4) 0.60617(11)
F2 F 0.45276(14) -0.0667(4) 0.57710(12)
F3 F 0.37274(18) 0.1242(4) 0.52340(13)
F4 F 0.34223(16) -0.1774(4) 0.53870(13)
B1 B 0.3799(3) -0.0206(7) 0.5609(3)
F5 F 0.55859(18) 0.4697(5) 0.94506(18)
F6 F 0.64636(14) 0.3946(4) 0.90297(13)
F7 F 0.63371(17) 0.6912(4) 0.93179(15)
F8 F 0.6731(3) 0.4636(6) 0.99236(15)
B2 B 0.6281(3) 0.5052(8) 0.9438(3)
loop_
_geom_bond_atom_site_label_1
_geom_bond_atom_site_label_2
_geom_bond_site_symmetry_1
_geom_bond_site_symmetry_2
Cu1 S1 1_555 1_555
S1 C1 1_555 1_555
N1 Cu1 1_555 1_555
N2 Cu1 1_555 1_555
N3 N4 1_555 1_555
N4 N5 1_555 1_555
N5 Cu1 1_555 1_555
C1 C2 1_555 1_555
C2 C3 1_555 1_555
C3 N2 1_555 1_555
C4 N2 1_555 1_555
C5 C4 1_555 1_555
C6 S1 1_555 1_555
C7 N2 1_555 1_555
C8 C7 1_555 1_555
C9 N1 1_555 1_555
C10 C9 1_555 1_555
C11 C10 1_555 1_555
C12 C11 1_555 1_555
C13 N1 1_555 1_555
H1 C1 1_555 1_555
H2 C1 1_555 1_555
H3 C2 1_555 1_555
H4 C2 1_555 1_555
H5 C3 1_555 1_555
H6 C3 1_555 1_555
H7 C4 1_555 1_555
H8 C4 1_555 1_555
H9 C5 1_555 1_555
H10 C5 1_555 1_555
H11 C6 1_555 1_555
H12 C6 1_555 1_555
H13 C7 1_555 1_555
H14 C7 1_555 1_555
H15 C8 1_555 1_555
H16 C8 1_555 1_555
H17 C10 1_555 1_555
H18 C11 1_555 1_555
H19 C12 1_555 1_555
H20 C13 1_555 1_555
Cu2 S2 1_555 1_555
S2 C14 1_555 1_555
N6 Cu2 1_555 1_555
N7 Cu2 1_555 1_555
N8 Cu2 1_555 1_555
N9 N8 1_555 1_555
N10 N9 1_555 1_555
C14 C15 1_555 1_555
C15 C16 1_555 1_555
C16 N7 1_555 1_555
C17 N7 1_555 1_555
C18 C17 1_555 1_555
C19 S2 1_555 1_555
C20 N7 1_555 1_555
C21 C20 1_555 1_555
C22 N6 1_555 1_555
C23 C22 1_555 1_555
C24 C23 1_555 1_555
C25 C24 1_555 1_555
C26 N6 1_555 1_555
H21 C14 1_555 1_555
H22 C14 1_555 1_555
H23 C15 1_555 1_555
H24 C15 1_555 1_555
H25 C16 1_555 1_555
H26 C16 1_555 1_555
H27 C17 1_555 1_555
H28 C17 1_555 1_555
H29 C18 1_555 1_555
H30 C18 1_555 1_555
H31 C19 1_555 1_555
H32 C19 1_555 1_555
H33 C20 1_555 1_555
H34 C20 1_555 1_555
H35 C21 1_555 1_555
H36 C21 1_555 1_555
H37 C23 1_555 1_555
H38 C24 1_555 1_555
H39 C25 1_555 1_555
H40 C26 1_555 1_555
F1 B1 1_555 1_555
F2 B1 1_555 1_555
F3 B1 1_555 1_555
F4 B1 1_555 1_555
F5 B2 1_555 1_555
F6 B2 1_555 1_555
F7 B2 1_555 1_555
F8 B2 1_555 1_555
Cu1A N3 1_555 1_555
N3A Cu1 1_555 1_555
Cu2A N10 1_555 1_555
N10A Cu2 1_555 1_555
C5 C6 1_555 1_555
C8 C9 1_555 1_555
C12 C13 1_555 1_555
C18 C19 1_555 1_555
C21 C22 1_555 1_555
C25 C26 1_555 1_555

#END
