
#######################################################################
#
#                 Cambridge Crystallographic Data Centre
#                                CCDC 
#
#######################################################################
#
# If this CIF has been generated from an entry in the Cambridge 
# Structural Database, then it will include bibliographic, chemical, 
# crystal, experimental, refinement or atomic coordinate data resulting 
# from the CCDC's data processing and validation procedures.
#
#######################################################################

data_GIYSAJ03
_symmetry_cell_setting           orthorhombic
_symmetry_space_group_name_H-M   'C 2 2 21'
_symmetry_Int_Tables_number      20
_space_group_name_Hall           'C 2n 2'
loop_
_symmetry_equiv_pos_site_id
_symmetry_equiv_pos_as_xyz
1 x,y,z
2 -x,-y,1/2+z
3 -x,y,1/2-z
4 x,-y,-z
5 1/2+x,1/2+y,z
6 1/2-x,1/2-y,1/2+z
7 1/2-x,1/2+y,1/2-z
8 1/2+x,1/2-y,-z
_cell_length_a                   7.4919(8)
_cell_length_b                   31.083(3)
_cell_length_c                   22.483(2)
_cell_angle_alpha                90
_cell_angle_beta                 90
_cell_angle_gamma                90
_cell_volume                     5235.63
loop_
_atom_site_label
_atom_site_type_symbol
_atom_site_fract_x
_atom_site_fract_y
_atom_site_fract_z
C1 C 0.462(2) 0.3367(6) -0.0048(7)
C2 C 0.545(2) 0.3796(5) 0.0048(6)
C3 C 0.480(2) 0.4148(5) -0.0254(7)
H1 H 0.3735 0.4121 -0.0464
C4 C 0.567(2) 0.4535(5) -0.0256(7)
H2 H 0.5197 0.4767 -0.0466
C5 C 0.730(2) 0.4581(6) 0.0066(6)
C6 C 0.791(3) 0.4243(5) 0.0396(7)
H3 H 0.8931 0.4273 0.0629
C7 C 0.699(2) 0.3844(5) 0.0382(6)
H4 H 0.7417 0.3613 0.0602
C8 C 0.840(3) 0.5000 0.0000
C9 C 0.968(3) 0.4931(8) -0.0552(15)
C10 C 1.064(2) 0.3002(6) 0.0980(6)
C11 C 1.180(2) 0.3272(6) 0.1367(6)
C12 C 1.104(2) 0.3633(7) 0.1626(9)
H5 H 0.9831 0.3686 0.1570
C13 C 1.207(3) 0.3924(6) 0.1979(7)
H6 H 1.1555 0.4173 0.2129
C14 C 1.3821(19) 0.3836(6) 0.2093(6)
C15 C 1.459(2) 0.3501(6) 0.1815(7)
H7 H 1.5803 0.3452 0.1860
C16 C 1.358(3) 0.3229(7) 0.1463(7)
H8 H 1.4166 0.3001 0.1279
C17 C 1.5000 0.4131(8) 0.2500
C18 C 1.390(2) 0.4397(8) 0.2918(8)
C19 C 0.4897(19) 0.2114(4) 0.1057(6)
C20 C 0.365(2) 0.1866(6) 0.1386(6)
C21 C 0.320(2) 0.2002(7) 0.1978(7)
H9 H 0.3729 0.2246 0.2138
C22 C 0.198(3) 0.1773(5) 0.2311(6)
H10 H 0.1652 0.1873 0.2685
C23 C 0.125(2) 0.1399(6) 0.2099(6)
C24 C 0.172(2) 0.1259(6) 0.1521(7)
H11 H 0.1272 0.1003 0.1370
C25 C 0.285(3) 0.1507(6) 0.1187(6)
H12 H 0.3072 0.1422 0.0797
C26 C 0.0000 0.1104(8) 0.2500
C27 C -0.118(3) 0.0832(8) 0.2149(9)
F1 F 1.034(2) 0.4546(5) -0.0562(8)
F2 F 0.867(2) 0.4963(5) -0.1055(6)
F3 F 1.0977(17) 0.5193(5) -0.0595(9)
F4 F 1.2649(14) 0.4173(3) 0.3208(4)
F5 F 1.3038(17) 0.4716(3) 0.2646(5)
F6 F 1.4924(15) 0.4592(4) 0.3330(5)
F7 F -0.2123(19) 0.1077(4) 0.1723(5)
F8 F -0.044(2) 0.0519(4) 0.1863(5)
F9 F -0.253(2) 0.0643(4) 0.2470(6)
La1 La 0.78765(10) 0.24730(3) 0.02947(3)
O1 O 0.5485(13) 0.3030(4) 0.0126(4)
O2 O 0.3164(17) 0.3342(4) -0.0284(7)
O3 O 0.9016(14) 0.3043(4) 0.1004(5)
O4 O 1.1405(15) 0.2718(3) 0.0671(5)
O5 O 0.6171(17) 0.2302(6) 0.1262(4)
O6 O 0.4704(13) 0.2124(4) 0.0453(4)
C1C C 0.462(2) 0.6633(6) 0.0048(7)
C2C C 0.545(2) 0.6204(5) -0.0048(6)
C3C C 0.480(2) 0.5852(5) 0.0254(7)
H1C H 0.3735 0.5879 0.0464
C4C C 0.567(2) 0.5465(5) 0.0256(7)
H2C H 0.5197 0.5233 0.0466
C5C C 0.730(2) 0.5419(6) -0.0066(6)
C6C C 0.791(3) 0.5757(5) -0.0396(7)
H3C H 0.8931 0.5727 -0.0629
C7C C 0.699(2) 0.6156(5) -0.0382(6)
H4C H 0.7417 0.6387 -0.0602
C9C C 0.968(3) 0.5069(8) 0.0552(15)
C10B C 1.936(2) 0.3002(6) 0.4020(6)
C11B C 1.820(2) 0.3272(6) 0.3633(6)
C12B C 1.896(2) 0.3633(7) 0.3374(9)
H5B H 2.0169 0.3686 0.3430
C13B C 1.793(3) 0.3924(6) 0.3021(7)
H6B H 1.8445 0.4173 0.2871
C14B C 1.6179(19) 0.3836(6) 0.2907(6)
C15B C 1.541(2) 0.3501(6) 0.3185(7)
H7B H 1.4197 0.3452 0.3140
C16B C 1.642(3) 0.3229(7) 0.3537(7)
H8B H 1.5834 0.3001 0.3721
C18B C 1.610(2) 0.4397(8) 0.2082(8)
C19B C -0.4897(19) 0.2114(4) 0.3943(6)
C20B C -0.365(2) 0.1866(6) 0.3614(6)
C21B C -0.320(2) 0.2002(7) 0.3022(7)
H9B H -0.3729 0.2246 0.2862
C22B C -0.198(3) 0.1773(5) 0.2689(6)
H10B H -0.1652 0.1873 0.2315
C23B C -0.125(2) 0.1399(6) 0.2901(6)
C24B C -0.172(2) 0.1259(6) 0.3479(7)
H11B H -0.1272 0.1003 0.3630
C25B C -0.285(3) 0.1507(6) 0.3813(6)
H12B H -0.3072 0.1422 0.4203
C27B C 0.118(3) 0.0832(8) 0.2851(9)
F1C F 1.034(2) 0.5454(5) 0.0562(8)
F2C F 0.867(2) 0.5037(5) 0.1055(6)
F3C F 1.0977(17) 0.4807(5) 0.0595(9)
F4B F 1.7351(14) 0.4173(3) 0.1792(4)
F5B F 1.6962(17) 0.4716(3) 0.2354(5)
F6B F 1.5076(15) 0.4592(4) 0.1670(5)
F7B F 0.2123(19) 0.1077(4) 0.3277(5)
F8B F 0.044(2) 0.0519(4) 0.3137(5)
F9B F 0.253(2) 0.0643(4) 0.2530(6)
La1C La 0.78765(10) 0.75270(3) -0.02947(3)
La1G La 0.28765(10) 0.25270(3) -0.02947(3)
La1G_2 La 1.28765(10) 0.25270(3) -0.02947(3)
La1D La 0.28765(10) 0.74730(3) 0.02947(3)
La1B La 2.21235(10) 0.24730(3) 0.47053(3)
La1E La 1.71235(10) 0.25270(3) 0.52947(3)
La1B_2 La -0.78765(10) 0.24730(3) 0.47053(3)
La1E_2 La -0.28765(10) 0.25270(3) 0.52947(3)
O1C O 0.5485(13) 0.6970(4) -0.0126(4)
O1G O 1.0485(13) 0.1970(4) -0.0126(4)
O1D O 1.0485(13) 0.8030(4) 0.0126(4)
O2C O 0.3164(17) 0.6658(4) 0.0284(7)
O2G O 0.8164(17) 0.1658(4) 0.0284(7)
O2D O 0.8164(17) 0.8342(4) -0.0284(7)
O3B O 2.0984(14) 0.3043(4) 0.3996(5)
O3C O 0.9016(14) 0.6957(4) -0.1004(5)
O4B O 1.8595(15) 0.2718(3) 0.4329(5)
O4G O 0.6405(15) 0.2282(3) -0.0671(5)
O4C O 1.1405(15) 0.7282(3) -0.0671(5)
O4D O 0.6405(15) 0.7718(3) 0.0671(5)
O5B O -0.6171(17) 0.2302(6) 0.3738(4)
O5C O 0.6171(17) 0.7698(6) -0.1262(4)
O6B O -0.4704(13) 0.2124(4) 0.4547(4)
O6G O 0.9704(13) 0.2876(4) -0.0453(4)
O6C O 0.4704(13) 0.7876(4) -0.0453(4)
O6D O 0.9704(13) 0.7124(4) 0.0453(4)
loop_
_geom_bond_atom_site_label_1
_geom_bond_atom_site_label_2
_geom_bond_site_symmetry_1
_geom_bond_site_symmetry_2
C1 C2 1_555 1_555
C2 C3 1_555 1_555
C3 H1 1_555 1_555
C4 C3 1_555 1_555
H2 C4 1_555 1_555
C5 C4 1_555 1_555
C6 C5 1_555 1_555
H3 C6 1_555 1_555
C7 C2 1_555 1_555
H4 C7 1_555 1_555
C8 C5 1_555 1_555
C9 C8 1_555 1_555
C10 C11 1_555 1_555
C11 C12 1_555 1_555
C12 H5 1_555 1_555
C13 C12 1_555 1_555
H6 C13 1_555 1_555
C14 C13 1_555 1_555
C15 C14 1_555 1_555
H7 C15 1_555 1_555
C16 C11 1_555 1_555
H8 C16 1_555 1_555
C17 C14 1_555 1_555
C18 C17 1_555 1_555
C19 C20 1_555 1_555
C20 C21 1_555 1_555
C21 H9 1_555 1_555
C22 C21 1_555 1_555
H10 C22 1_555 1_555
C23 C22 1_555 1_555
C24 C23 1_555 1_555
H11 C24 1_555 1_555
C25 C20 1_555 1_555
H12 C25 1_555 1_555
C26 C23 1_555 1_555
C27 C26 1_555 1_555
F1 C9 1_555 1_555
F2 C9 1_555 1_555
F3 C9 1_555 1_555
F4 C18 1_555 1_555
F5 C18 1_555 1_555
F6 C18 1_555 1_555
F7 C27 1_555 1_555
F8 C27 1_555 1_555
F9 C27 1_555 1_555
La1 O1 1_555 1_555
O1 C1 1_555 1_555
O2 C1 1_555 1_555
O3 C10 1_555 1_555
O4 C10 1_555 1_555
O5 C19 1_555 1_555
O6 C19 1_555 1_555
C1C C2C 1_555 1_555
C2C C3C 1_555 1_555
C3C H1C 1_555 1_555
C4C C3C 1_555 1_555
H2C C4C 1_555 1_555
C5C C8 1_555 1_555
C6C C5C 1_555 1_555
H3C C6C 1_555 1_555
C7C C2C 1_555 1_555
H4C C7C 1_555 1_555
C9C C8 1_555 1_555
C10B C11B 1_555 1_555
C11B C12B 1_555 1_555
C12B H5B 1_555 1_555
C13B C12B 1_555 1_555
H6B C13B 1_555 1_555
C14B C17 1_555 1_555
C15B C14B 1_555 1_555
H7B C15B 1_555 1_555
C16B C11B 1_555 1_555
H8B C16B 1_555 1_555
C18B C17 1_555 1_555
C19B C20B 1_555 1_555
C20B C21B 1_555 1_555
C21B H9B 1_555 1_555
C22B C21B 1_555 1_555
H10B C22B 1_555 1_555
C23B C26 1_555 1_555
C24B C23B 1_555 1_555
H11B C24B 1_555 1_555
C25B C20B 1_555 1_555
H12B C25B 1_555 1_555
C27B C26 1_555 1_555
F1C C9C 1_555 1_555
F2C C9C 1_555 1_555
F3C C9C 1_555 1_555
F4B C18B 1_555 1_555
F5B C18B 1_555 1_555
F6B C18B 1_555 1_555
F7B C27B 1_555 1_555
F8B C27B 1_555 1_555
F9B C27B 1_555 1_555
La1C O1C 1_555 1_555
La1G O1 1_555 1_555
La1G_2 O4 1_555 1_555
La1D O1C 1_555 1_555
La1B O3B 1_555 1_555
La1E O4B 1_555 1_555
La1B_2 O5B 1_555 1_555
La1E_2 O6B 1_555 1_555
O1C C1C 1_555 1_555
O1G La1 1_555 1_555
O1D La1C 1_555 1_555
O2C C1C 1_555 1_555
O2G La1 1_555 1_555
O2D La1C 1_555 1_555
O3B C10B 1_555 1_555
O3C La1C 1_555 1_555
O4B C10B 1_555 1_555
O4G La1 1_555 1_555
O4C La1C 1_555 1_555
O4D La1C 1_555 1_555
O5B C19B 1_555 1_555
O5C La1C 1_555 1_555
O6B C19B 1_555 1_555
O6G La1 1_555 1_555
O6C La1C 1_555 1_555
O6D La1C 1_555 1_555
C6 C7 1_555 1_555
C15 C16 1_555 1_555
C24 C25 1_555 1_555
La1 O3 1_555 1_555
La1 O4 1_555 1_555
La1 O5 1_555 1_555
La1 O6 1_555 1_555
O2 La1G 1_555 1_555
O6 La1G 1_555 1_555
C4C C5C 1_555 1_555
C6C C7C 1_555 1_555
C13B C14B 1_555 1_555
C15B C16B 1_555 1_555
C22B C23B 1_555 1_555
C24B C25B 1_555 1_555
La1G O4G 1_555 1_555
La1G_2 O1G 1_555 1_555
La1G_2 O6G 1_555 1_555
La1D O2C 1_555 1_555
La1D O4D 1_555 1_555
La1D O6C 1_555 1_555
La1B O4B 1_555 1_555
La1B_2 O6B 1_555 1_555

#END
