
#######################################################################
#
#                 Cambridge Crystallographic Data Centre
#                                CCDC 
#
#######################################################################
#
# If this CIF has been generated from an entry in the Cambridge 
# Structural Database, then it will include bibliographic, chemical, 
# crystal, experimental, refinement or atomic coordinate data resulting 
# from the CCDC's data processing and validation procedures.
#
#######################################################################

data_GIYVIU
_symmetry_cell_setting           monoclinic
_symmetry_space_group_name_H-M   'P 21/c'
_symmetry_Int_Tables_number      14
_space_group_name_Hall           '-P 2ybc'
loop_
_symmetry_equiv_pos_site_id
_symmetry_equiv_pos_as_xyz
1 x,y,z
2 -x,1/2+y,1/2-z
3 -x,-y,-z
4 x,1/2-y,1/2+z
_cell_length_a                   12.3754(15)
_cell_length_b                   10.9435(15)
_cell_length_c                   9.267(2)
_cell_angle_alpha                90
_cell_angle_beta                 91.240(12)
_cell_angle_gamma                90
_cell_volume                     1254.74
loop_
_atom_site_label
_atom_site_type_symbol
_atom_site_fract_x
_atom_site_fract_y
_atom_site_fract_z
Ag1 Ag 0.50300(4) 0.80626(4) 0.16531(5)
S1 S 0.65441(11) 0.90377(12) -0.14127(15)
F1 F 0.8632(3) 0.8825(5) -0.1075(6)
F2 F 0.7796(4) 0.7109(4) -0.1145(5)
F3 F 0.7756(4) 0.8236(4) 0.0727(4)
O1 O 0.5665(4) 0.8300(4) -0.0921(5)
O2 O 0.6697(4) 0.9011(5) -0.2938(5)
O3 O 0.6614(4) 1.0219(4) -0.0759(5)
N1 N 0.3969(4) 0.6520(4) 0.0821(5)
N2 N 0.2886(4) 0.7580(4) -0.0771(5)
H1 H 0.3216 0.8230 -0.0482
N3 N 0.4388(5) 0.4551(5) 0.2007(6)
C1 C 0.2027(4) 0.7740(5) -0.1811(6)
C2 C 0.1758(5) 0.8933(6) -0.2154(7)
H2 H 0.2127 0.9580 -0.1720
C3 C 0.0922(6) 0.9155(7) -0.3161(7)
H3 H 0.0736 0.9954 -0.3401
C4 C 0.0380(6) 0.8204(7) -0.3793(8)
H4 H -0.0180 0.8357 -0.4452
C5 C 0.0657(6) 0.7026(6) -0.3461(7)
H5 H 0.0285 0.6385 -0.3904
C6 C 0.1490(5) 0.6774(6) -0.2468(7)
H6 H 0.1680 0.5972 -0.2252
C7 C 0.3218(4) 0.6548(5) -0.0216(6)
H7 H 0.2921 0.5819 -0.0555
C8 C 0.4172(4) 0.5424(5) 0.1399(6)
C9 C 0.7742(5) 0.8255(6) -0.0690(7)
Ag1A Ag 0.49700(4) 0.30626(4) 0.33469(5)
N3A N 0.5612(5) 0.9551(5) 0.2993(6)
loop_
_geom_bond_atom_site_label_1
_geom_bond_atom_site_label_2
_geom_bond_site_symmetry_1
_geom_bond_site_symmetry_2
Ag1 O1 1_555 1_555
S1 O1 1_555 1_555
F1 C9 1_555 1_555
F2 C9 1_555 1_555
F3 C9 1_555 1_555
O2 S1 1_555 1_555
O3 S1 1_555 1_555
N1 Ag1 1_555 1_555
N2 H1 1_555 1_555
N3 C8 1_555 1_555
C1 N2 1_555 1_555
C2 C1 1_555 1_555
H2 C2 1_555 1_555
C3 C2 1_555 1_555
H3 C3 1_555 1_555
C4 C3 1_555 1_555
H4 C4 1_555 1_555
C5 C4 1_555 1_555
H5 C5 1_555 1_555
C6 C1 1_555 1_555
H6 C6 1_555 1_555
C7 N1 1_555 1_555
H7 C7 1_555 1_555
C8 N1 1_555 1_555
C9 S1 1_555 1_555
Ag1A N3 1_555 1_555
N3A Ag1 1_555 1_555
N2 C7 1_555 1_555
C5 C6 1_555 1_555

#END
