
#######################################################################
#
#                 Cambridge Crystallographic Data Centre
#                                CCDC 
#
#######################################################################
#
# If this CIF has been generated from an entry in the Cambridge 
# Structural Database, then it will include bibliographic, chemical, 
# crystal, experimental, refinement or atomic coordinate data resulting 
# from the CCDC's data processing and validation procedures.
#
#######################################################################

data_GIZJUV
_symmetry_cell_setting           cubic
_symmetry_space_group_name_H-M   'I a -3 d'
_symmetry_Int_Tables_number      230
_space_group_name_Hall           '-I 4bd 2c 3'
loop_
_symmetry_equiv_pos_site_id
_symmetry_equiv_pos_as_xyz
1 x,y,z
2 z,x,y
3 y,z,x
4 3/4+y,1/4+x,1/4-z
5 1/4+y,1/4-x,3/4+z
6 1/4-y,3/4+x,1/4+z
7 3/4+x,1/4+z,1/4-y
8 1/4-x,3/4+z,1/4+y
9 1/4+x,1/4-z,3/4+y
10 3/4+z,1/4+y,1/4-x
11 1/4+z,1/4-y,3/4+x
12 1/4-z,3/4+y,1/4+x
13 1/2+x,1/2+y,1/2+z
14 1/2+z,1/2+x,1/2+y
15 1/2+y,1/2+z,1/2+x
16 1/4+y,3/4+x,3/4-z
17 1/4-y,1/4-x,1/4-z
18 3/4+y,3/4-x,1/4+z
19 3/4-y,1/4+x,3/4+z
20 1/4+x,3/4+z,3/4-y
21 3/4-x,1/4+z,3/4+y
22 1/4-x,1/4-z,1/4-y
23 3/4+x,3/4-z,1/4+y
24 1/4+z,3/4+y,3/4-x
25 3/4+z,3/4-y,1/4+x
26 3/4-z,1/4+y,3/4+x
27 1/4-z,1/4-y,1/4-x
28 1/2-x,-y,1/2+z
29 -x,1/2+y,1/2-z
30 1/2+x,1/2-y,-z
31 1/2+z,1/2-x,-y
32 1/2-z,-x,1/2+y
33 -z,1/2+x,1/2-y
34 -y,1/2+z,1/2-x
35 1/2+y,1/2-z,-x
36 1/2-y,-z,1/2+x
37 3/4-y,3/4-x,3/4-z
38 3/4-x,3/4-z,3/4-y
39 3/4-z,3/4-y,3/4-x
40 -x,1/2-y,z
41 1/2-x,y,-z
42 x,-y,1/2-z
43 z,-x,1/2-y
44 -z,1/2-x,y
45 1/2-z,x,-y
46 1/2-y,z,-x
47 y,-z,1/2-x
48 -y,1/2-z,x
49 -x,-y,-z
50 -z,-x,-y
51 -y,-z,-x
52 1/4-y,3/4-x,3/4+z
53 3/4-y,3/4+x,1/4-z
54 3/4+y,1/4-x,3/4-z
55 1/4-x,3/4-z,3/4+y
56 3/4+x,1/4-z,3/4-y
57 3/4-x,3/4+z,1/4-y
58 1/4-z,3/4-y,3/4+x
59 3/4-z,3/4+y,1/4-x
60 3/4+z,1/4-y,3/4-x
61 1/2-x,1/2-y,1/2-z
62 1/2-z,1/2-x,1/2-y
63 1/2-y,1/2-z,1/2-x
64 3/4-y,1/4-x,1/4+z
65 3/4+y,3/4+x,3/4+z
66 1/4-y,1/4+x,3/4-z
67 1/4+y,3/4-x,1/4-z
68 3/4-x,1/4-z,1/4+y
69 1/4+x,3/4-z,1/4-y
70 3/4+x,3/4+z,3/4+y
71 1/4-x,1/4+z,3/4-y
72 3/4-z,1/4-y,1/4+x
73 1/4-z,1/4+y,3/4-x
74 1/4+z,3/4-y,1/4-x
75 3/4+z,3/4+y,3/4+x
76 1/2+x,y,1/2-z
77 x,1/2-y,1/2+z
78 1/2-x,1/2+y,z
79 1/2-z,1/2+x,y
80 1/2+z,x,1/2-y
81 z,1/2-x,1/2+y
82 y,1/2-z,1/2+x
83 1/2-y,1/2+z,x
84 1/2+y,z,1/2-x
85 1/4+y,1/4+x,1/4+z
86 1/4+x,1/4+z,1/4+y
87 1/4+z,1/4+y,1/4+x
88 x,1/2+y,-z
89 1/2+x,-y,z
90 -x,y,1/2+z
91 -z,x,1/2+y
92 z,1/2+x,-y
93 1/2+z,-x,y
94 1/2+y,-z,x
95 -y,z,1/2+x
96 y,1/2+z,-x
_cell_length_a                   19.6544(2)
_cell_length_b                   19.6544(2)
_cell_length_c                   19.6544(2)
_cell_angle_alpha                90
_cell_angle_beta                 90
_cell_angle_gamma                90
_cell_volume                     7592.41
loop_
_atom_site_label
_atom_site_type_symbol
_atom_site_fract_x
_atom_site_fract_y
_atom_site_fract_z
Zn1 Zn 0.5000 0.2500 0.1250
Cl1 Cl 0.59263(4) 0.19468(5) 0.26416(5)
N1 N 0.48506(11) 0.16878(11) 0.18390(11)
C1 C 0.52116(15) 0.15143(14) 0.24054(16)
C2 C 0.43314(16) 0.1250 0.18314(16)
H1 H 0.3990 0.1250 0.1490
Zn1J Zn 0.3750 0.0000 0.2500
Zn1H Zn 0.7500 0.1250 0.0000
Cl1J Cl 0.51416(5) 0.05532(5) 0.34263(4)
Cl1ZA Cl 0.55532(5) 0.34263(4) -0.01416(5)
Cl1EC Cl 0.69468(5) 0.26416(5) -0.09263(4)
N1J N 0.43390(11) 0.08122(11) 0.23506(11)
N1ZA N 0.58122(11) 0.23506(11) 0.06610(11)
N1EC N 0.66878(11) 0.18390(11) 0.01494(11)
N1NB N 0.41878(11) 0.26494(11) 0.06610(11)
N1MA N 0.51494(11) 0.33122(11) 0.18390(11)
C1J C 0.49054(16) 0.09857(14) 0.27116(15)
C1ZA C 0.59857(14) 0.27116(15) 0.00946(16)
C1EC C 0.65143(14) 0.24054(16) -0.02116(15)
C2EC C 0.6250 0.18314(16) 0.06686(16)
H1EC H 0.6250 0.1490 0.1010
loop_
_geom_bond_atom_site_label_1
_geom_bond_atom_site_label_2
_geom_bond_site_symmetry_1
_geom_bond_site_symmetry_2
Zn1 N1 1_555 1_555
Cl1 C1 1_555 1_555
N1 C1 1_555 1_555
C1 C1J 1_555 1_555
C2 N1 1_555 1_555
H1 C2 1_555 1_555
Zn1J N1J 1_555 1_555
Zn1H N1EC 1_555 1_555
Cl1J C1J 1_555 1_555
Cl1ZA C1ZA 1_555 1_555
Cl1EC C1EC 1_555 1_555
N1J C2 1_555 1_555
N1ZA Zn1 1_555 1_555
N1EC C1EC 1_555 1_555
N1NB Zn1 1_555 1_555
N1MA Zn1 1_555 1_555
C1J N1J 1_555 1_555
C1ZA N1ZA 1_555 1_555
C1EC C1ZA 1_555 1_555
C2EC N1ZA 1_555 1_555
H1EC C2EC 1_555 1_555
N1EC C2EC 1_555 1_555

#END
