
#######################################################################
#
#                 Cambridge Crystallographic Data Centre
#                                CCDC 
#
#######################################################################
#
# If this CIF has been generated from an entry in the Cambridge 
# Structural Database, then it will include bibliographic, chemical, 
# crystal, experimental, refinement or atomic coordinate data resulting 
# from the CCDC's data processing and validation procedures.
#
#######################################################################

data_GIZVAN
_symmetry_cell_setting           monoclinic
_symmetry_space_group_name_H-M   'P 21/c'
_symmetry_Int_Tables_number      14
_space_group_name_Hall           '-P 2ybc'
loop_
_symmetry_equiv_pos_site_id
_symmetry_equiv_pos_as_xyz
1 x,y,z
2 -x,1/2+y,1/2-z
3 -x,-y,-z
4 x,1/2-y,1/2+z
_cell_length_a                   11.4159(15)
_cell_length_b                   15.596(2)
_cell_length_c                   28.849(4)
_cell_angle_alpha                90
_cell_angle_beta                 98.997(2)
_cell_angle_gamma                90
_cell_volume                     5073.15
loop_
_atom_site_label
_atom_site_type_symbol
_atom_site_fract_x
_atom_site_fract_y
_atom_site_fract_z
C1 C 0.3688(3) -0.1494(3) 0.75950(13)
C2 C 0.4458(4) -0.2148(3) 0.76791(16)
H1 H 0.4955 -0.2243 0.7458
C3 C 0.4586(4) -0.2688(3) 0.80564(14)
C4 C 0.3852(3) -0.2571(3) 0.83786(16)
H2 H 0.3892 -0.2949 0.8630
C5 C 0.3042(4) -0.1899(3) 0.83420(15)
C6 C 0.2943(3) -0.1333(2) 0.79406(16)
H3 H 0.2410 -0.0878 0.7908
C7 C 0.2296(4) -0.1643(3) 0.87184(15)
H4 H 0.1710 -0.1224 0.8586
H5 H 0.2809 -0.1369 0.8976
C8 C 0.1647(3) -0.2408(3) 0.89155(16)
C9 C 0.2100(4) -0.2827(3) 0.93171(16)
H6 H 0.2858 -0.2697 0.9469
C10 C 0.1415(4) -0.3466(3) 0.95065(15)
C11 C 0.0327(4) -0.3705(3) 0.92482(16)
H7 H -0.0147 -0.4108 0.9368
C12 C -0.0039(4) -0.3341(3) 0.88167(16)
C13 C 0.0609(4) -0.2699(3) 0.86382(16)
H8 H 0.0358 -0.2469 0.8342
C14 C 0.3572(3) -0.0909(3) 0.72039(15)
C15 C 0.5431(4) -0.3430(3) 0.80893(16)
C16 C 0.1890(5) -0.3872(3) 0.99743(17)
C17 C -0.1153(4) -0.3679(3) 0.85248(18)
C18 C 0.1406(4) 0.3256(3) 0.74331(14)
C19 C 0.0464(4) 0.3904(3) 0.73652(16)
H9 H -0.0095 0.3932 0.7567
C20 C 0.0421(4) 0.4469(3) 0.69973(15)
C21 C 0.1201(4) 0.4328(2) 0.66687(15)
H10 H 0.1167 0.4703 0.6416
C22 C 0.2022(4) 0.3656(2) 0.67027(15)
C23 C 0.2164(4) 0.3144(3) 0.71194(15)
H11 H 0.2768 0.2740 0.7175
C24 C 0.2728(4) 0.3445(3) 0.63176(15)
H12 H 0.2751 0.2889 0.6203
C25 C 0.3382(4) 0.4146(3) 0.61281(16)
C26 C 0.3043(4) 0.4402(3) 0.56538(16)
H13 H 0.2375 0.4163 0.5475
C27 C 0.3722(4) 0.5018(3) 0.54537(15)
C28 C 0.4659(4) 0.5381(3) 0.57208(16)
H14 H 0.5060 0.5814 0.5589
C29 C 0.5063(4) 0.5150(3) 0.61777(16)
C30 C 0.4393(4) 0.4513(3) 0.63786(15)
H15 H 0.4643 0.4340 0.6687
C31 C 0.1461(4) 0.2685(3) 0.78648(16)
C32 C -0.0393(4) 0.5188(3) 0.69359(16)
C33 C 0.6183(4) 0.5503(3) 0.64634(15)
C44 C 0.3461(4) 0.5188(3) 0.49308(16)
Mn1 Mn 0.32712(5) 0.00578(3) 0.643260(19)
Mn2 Mn 0.25066(6) 0.09096(4) 0.75064(2)
Mn3 Mn 0.16498(5) 0.16671(4) 0.86070(2)
O1 O 0.4246(2) -0.10045(16) 0.68874(10)
O2 O 0.2838(3) -0.02905(18) 0.71575(10)
O3 O 0.6050(3) -0.35167(19) 0.77685(10)
O4 O 0.5423(3) -0.39622(18) 0.84172(11)
O5 O 0.2988(3) -0.39338(19) 1.00885(11)
O6 O 0.1145(3) -0.41235(19) 1.02152(10)
H24 H 0.0666 -0.3649 1.0285
O7 O -0.1932(2) -0.40270(17) 0.87498(10)
O8 O -0.1236(3) -0.36597(17) 0.80947(11)
O9 O 0.2193(3) 0.20887(18) 0.78945(11)
O10 O 0.0830(2) 0.28031(17) 0.81658(10)
O11 O -0.1047(3) 0.52793(18) 0.72553(10)
O12 O -0.0464(2) 0.56587(18) 0.65887(11)
O13 O 0.2804(3) 0.46789(19) 0.46971(10)
H25 H 0.3148 0.4116 0.4730
O14 O 0.3823(3) 0.58965(17) 0.47921(10)
O15 O 0.6945(3) 0.57116(18) 0.62328(11)
O16 O 0.6206(3) 0.55518(18) 0.68883(11)
O17 O 0.1983(3) -0.09099(18) 0.61241(10)
H26 H 0.1457 -0.0674 0.5923
H27 H 0.2334 -0.1298 0.5991
O18 O 0.4033(2) -0.01112(19) 0.57985(10)
H28 H 0.3737 0.0254 0.5595
H29 H 0.3884 -0.0614 0.5692
O19 O 0.2981(2) 0.25175(17) 0.90291(10)
H30 H 0.2927 0.2462 0.9318
H31 H 0.2851 0.3037 0.8947
O20 O 0.0590(2) 0.19248(17) 0.91537(9)
H32 H 0.0720 0.1537 0.9362
H33 H -0.0142 0.1926 0.9038
Mn1A Mn 0.67288(5) -0.49422(3) 0.856740(19)
Mn1A_2 Mn -0.32712(5) -0.49422(3) 0.856740(19)
Mn2A Mn 0.74934(6) -0.40904(4) 0.74936(2)
Mn2A_2 Mn -0.25066(6) -0.40904(4) 0.74936(2)
Mn2A_3 Mn -0.25066(6) 0.59096(4) 0.74936(2)
Mn2A_4 Mn 0.74934(6) 0.59096(4) 0.74936(2)
Mn3A Mn -0.16498(5) 0.66671(4) 0.63930(2)
Mn3A_2 Mn 0.83502(5) 0.66671(4) 0.63930(2)
O3A O 0.3950(3) 0.14833(19) 0.72315(10)
O4A O 0.4577(3) 0.10378(18) 0.65828(11)
O7A O 0.1932(2) 0.09730(17) 0.62502(10)
O8A O 0.1236(3) 0.13403(17) 0.69053(11)
O11A O 0.1047(3) 0.02793(18) 0.77447(10)
O12A O 0.0464(2) 0.06587(18) 0.84113(11)
O15A O 0.3055(3) 0.07116(18) 0.87672(11)
O16A O 0.3794(3) 0.05518(18) 0.81117(11)
C34 C 0.8294(4) 0.3296(3) 0.27710(15)
H16 H 0.8820 0.2868 0.2893
C35 C 0.8481(4) 0.3692(2) 0.23767(15)
H17 H 0.9128 0.3544 0.2233
C36 C 0.7707(4) 0.4321(2) 0.21865(16)
C37 C 0.6735(4) 0.4539(3) 0.24388(15)
H18 H 0.6197 0.4967 0.2328
C38 C 0.6633(4) 0.4116(3) 0.28273(16)
H19 H 0.6015 0.4263 0.2987
C39 C 0.7859(3) 0.4782(3) 0.17529(15)
C40 C 0.9059(4) 0.4996(2) 0.16868(14)
H20 H 0.9719 0.4818 0.1895
C41 C 0.9158(4) 0.5481(3) 0.12931(16)
H21 H 0.9904 0.5685 0.1258
C42 C 0.7135(4) 0.5468(3) 0.10397(15)
H22 H 0.6492 0.5642 0.0821
C43 C 0.6917(4) 0.5009(3) 0.14311(16)
H23 H 0.6149 0.4863 0.1470
N1 N 0.7373(3) 0.3488(2) 0.30032(13)
N2 N 0.8246(3) 0.5675(2) 0.09613(14)
O21 O 0.0037(8) 0.8963(5) 0.9893(3)
H34 H 0.0205 0.8478 0.9786
H35 H 0.0579 0.9321 0.9860
O22 O 0.4953(6) 0.6160(4) 0.9662(2)
H36 H 0.4869 0.5685 0.9798
H37 H 0.4376 0.6490 0.9690
O23 O 0.4637(4) 0.2609(3) 0.84862(17)
H38 H 0.4174 0.2261 0.8595
H39 H 0.4374 0.2712 0.8199
O24 O 0.5757(6) 0.7153(4) 0.5032(3)
H40 H 0.5163 0.6845 0.4922
H41 H 0.6240 0.7169 0.4836
O25 O 0.7757(6) 0.2653(4) 0.3853(2)
H42 H 0.7553 0.3115 0.3975
H43 H 0.7913 0.2755 0.3580
O26 O 0.9042(5) 0.6564(3) 0.02864(19)
H44 H 0.9795 0.6578 0.0339
H45 H 0.8771 0.7072 0.0287
loop_
_geom_bond_atom_site_label_1
_geom_bond_atom_site_label_2
_geom_bond_site_symmetry_1
_geom_bond_site_symmetry_2
C1 C2 1_555 1_555
C2 H1 1_555 1_555
C3 C2 1_555 1_555
C4 C3 1_555 1_555
H2 C4 1_555 1_555
C5 C4 1_555 1_555
C6 C1 1_555 1_555
H3 C6 1_555 1_555
C7 C5 1_555 1_555
H4 C7 1_555 1_555
H5 C7 1_555 1_555
C8 C7 1_555 1_555
C9 C8 1_555 1_555
H6 C9 1_555 1_555
C10 C9 1_555 1_555
C11 C10 1_555 1_555
H7 C11 1_555 1_555
C12 C11 1_555 1_555
C13 C8 1_555 1_555
H8 C13 1_555 1_555
C14 C1 1_555 1_555
C15 C3 1_555 1_555
C16 C10 1_555 1_555
C17 C12 1_555 1_555
C18 C19 1_555 1_555
C19 H9 1_555 1_555
C20 C19 1_555 1_555
C21 C20 1_555 1_555
H10 C21 1_555 1_555
C22 C21 1_555 1_555
C23 C18 1_555 1_555
H11 C23 1_555 1_555
C24 C22 1_555 1_555
H12 C24 1_555 1_555
C25 C24 1_555 1_555
C26 C25 1_555 1_555
H13 C26 1_555 1_555
C27 C26 1_555 1_555
C28 C27 1_555 1_555
H14 C28 1_555 1_555
C29 C28 1_555 1_555
C30 C25 1_555 1_555
H15 C30 1_555 1_555
C31 C18 1_555 1_555
C32 C20 1_555 1_555
C33 C29 1_555 1_555
C34 H16 1_555 1_555
C35 C34 1_555 1_555
H17 C35 1_555 1_555
C36 C35 1_555 1_555
C37 C36 1_555 1_555
H18 C37 1_555 1_555
C38 C37 1_555 1_555
H19 C38 1_555 1_555
C39 C36 1_555 1_555
C40 C39 1_555 1_555
H20 C40 1_555 1_555
C41 C40 1_555 1_555
H21 C41 1_555 1_555
C42 H22 1_555 1_555
C43 C39 1_555 1_555
H23 C43 1_555 1_555
C44 C27 1_555 1_555
Mn1 O1 1_555 1_555
Mn2 O2 1_555 1_555
Mn3 O9 1_555 1_555
N1 C34 1_555 1_555
N2 C41 1_555 1_555
O1 C14 1_555 1_555
O2 C14 1_555 1_555
O3 C15 1_555 1_555
O4 C15 1_555 1_555
O5 C16 1_555 1_555
O6 C16 1_555 1_555
H24 O6 1_555 1_555
O7 C17 1_555 1_555
O8 C17 1_555 1_555
O9 C31 1_555 1_555
O10 C31 1_555 1_555
O11 C32 1_555 1_555
O12 C32 1_555 1_555
O13 C44 1_555 1_555
H25 O13 1_555 1_555
O14 C44 1_555 1_555
O15 C33 1_555 1_555
O16 C33 1_555 1_555
O17 Mn1 1_555 1_555
H26 O17 1_555 1_555
H27 O17 1_555 1_555
O18 Mn1 1_555 1_555
H28 O18 1_555 1_555
H29 O18 1_555 1_555
O19 Mn3 1_555 1_555
H30 O19 1_555 1_555
H31 O19 1_555 1_555
O20 Mn3 1_555 1_555
H32 O20 1_555 1_555
H33 O20 1_555 1_555
O21 H34 1_555 1_555
H35 O21 1_555 1_555
O22 H36 1_555 1_555
H37 O22 1_555 1_555
O23 H38 1_555 1_555
H39 O23 1_555 1_555
O24 H40 1_555 1_555
H41 O24 1_555 1_555
O25 H42 1_555 1_555
H43 O25 1_555 1_555
O26 H44 1_555 1_555
H45 O26 1_555 1_555
Mn1A O4 1_555 1_555
Mn1A_2 O7 1_555 1_555
Mn2A O3 1_555 1_555
Mn2A_2 O8 1_555 1_555
Mn2A_3 O11 1_555 1_555
Mn2A_4 O16 1_555 1_555
Mn3A O12 1_555 1_555
Mn3A_2 O15 1_555 1_555
O3A Mn2 1_555 1_555
O4A Mn1 1_555 1_555
O7A Mn1 1_555 1_555
O8A Mn2 1_555 1_555
O11A Mn2 1_555 1_555
O12A Mn3 1_555 1_555
O15A Mn3 1_555 1_555
O16A Mn2 1_555 1_555
C5 C6 1_555 1_555
C12 C13 1_555 1_555
C22 C23 1_555 1_555
C29 C30 1_555 1_555
C38 N1 1_555 1_555
C42 C43 1_555 1_555
C42 N2 1_555 1_555
Mn1 O2 1_555 1_555
Mn2 O9 1_555 1_555
Mn3 O10 1_555 1_555

#END
