
#######################################################################
#
#                 Cambridge Crystallographic Data Centre
#                                CCDC 
#
#######################################################################
#
# If this CIF has been generated from an entry in the Cambridge 
# Structural Database, then it will include bibliographic, chemical, 
# crystal, experimental, refinement or atomic coordinate data resulting 
# from the CCDC's data processing and validation procedures.
#
#######################################################################

data_GLALCU10
_symmetry_cell_setting           orthorhombic
_symmetry_space_group_name_H-M   'P 21 21 21'
_symmetry_Int_Tables_number      19
_space_group_name_Hall           'P 2ac 2ab'
loop_
_symmetry_equiv_pos_site_id
_symmetry_equiv_pos_as_xyz
1 x,y,z
2 1/2+x,1/2-y,-z
3 -x,1/2+y,1/2-z
4 1/2-x,-y,1/2+z
_cell_length_a                   9.18(1)
_cell_length_b                   9.75(1)
_cell_length_c                   8.94(1)
_cell_angle_alpha                90
_cell_angle_beta                 90
_cell_angle_gamma                90
_cell_volume                     800.175
loop_
_atom_site_label
_atom_site_type_symbol
_atom_site_fract_x
_atom_site_fract_y
_atom_site_fract_z
Cu1 Cu 0.08290 -0.17760 0.10310
O1 O 0.00820 0.21920 0.17820
O2 O -0.09980 -0.22980 -0.01100
O3 O -0.32120 -0.14770 -0.05790
N1 N 0.24100 -0.08160 0.21760
N2 N 0.00030 0.00070 0.08850
C1 C 0.20010 0.06420 0.24170
C2 C 0.05970 0.10210 0.16670
C3 C -0.13810 0.01350 0.01440
C4 C -0.19000 -0.13330 -0.01900
C5 C -0.12990 0.09070 -0.13570
H1 H 0.32940 -0.08570 0.16230
H2 H 0.25410 -0.12530 0.31150
H3 H 0.28340 0.12700 0.19900
H4 H 0.18930 0.08160 0.35710
H5 H -0.21320 0.06360 0.08420
H6 H -0.07100 0.03190 -0.21330
H7 H -0.07730 0.18530 -0.11980
H8 H -0.23570 0.10770 -0.17640
O3A O 0.17880 -0.35230 0.05790
O1B O -0.00820 -0.28080 0.32180
Cu1A Cu -0.41710 -0.32240 -0.10310
Cu1B Cu -0.08290 0.32240 0.39690
O4 O -0.01710 -0.56630 -0.02330
loop_
_geom_bond_atom_site_label_1
_geom_bond_atom_site_label_2
_geom_bond_site_symmetry_1
_geom_bond_site_symmetry_2
Cu1 O2 1_555 1_555
O1 C2 1_555 1_555
O2 C4 1_555 1_555
O3 C4 1_555 1_555
N1 Cu1 1_555 1_555
N2 Cu1 1_555 1_555
C1 N1 1_555 1_555
C2 N2 1_555 1_555
C3 N2 1_555 1_555
C4 C3 1_555 1_555
C5 C3 1_555 1_555
H1 N1 1_555 1_555
H2 N1 1_555 1_555
H3 C1 1_555 1_555
H4 C1 1_555 1_555
H5 C3 1_555 1_555
H6 C5 1_555 1_555
H7 C5 1_555 1_555
H8 C5 1_555 1_555
O3A Cu1 1_555 1_555
O1B Cu1 1_555 1_555
Cu1A O3 1_555 1_555
Cu1B O1 1_555 1_555
C1 C2 1_555 1_555

#END
