
#######################################################################
#
#                 Cambridge Crystallographic Data Centre
#                                CCDC 
#
#######################################################################
#
# If this CIF has been generated from an entry in the Cambridge 
# Structural Database, then it will include bibliographic, chemical, 
# crystal, experimental, refinement or atomic coordinate data resulting 
# from the CCDC's data processing and validation procedures.
#
#######################################################################

data_GOBFEI
_symmetry_cell_setting           orthorhombic
_symmetry_space_group_name_H-M   'P 21 c n'
_symmetry_Int_Tables_number      33
_space_group_name_Hall           'P -2n 2a'
loop_
_symmetry_equiv_pos_site_id
_symmetry_equiv_pos_as_xyz
1 x,y,z
2 1/2+x,1/2+y,1/2-z
3 1/2+x,-y,-z
4 x,1/2-y,1/2+z
_cell_length_a                   11.0595(3)
_cell_length_b                   14.1307(4)
_cell_length_c                   16.1710(5)
_cell_angle_alpha                90
_cell_angle_beta                 90
_cell_angle_gamma                90
_cell_volume                     2527.18
loop_
_atom_site_label
_atom_site_type_symbol
_atom_site_fract_x
_atom_site_fract_y
_atom_site_fract_z
Cd1 Cd 0.111786 0.001981 0.478957
S1 S 0.241540 -0.139611 0.406718
S2 S 0.474350 0.016960 0.661350
S3 S 0.246752 0.140889 0.394832
N1 N 0.474209 -0.111613 0.470758
N2 N 0.250120 0.013220 0.582680
N3 N 0.480665 0.102040 0.451610
C1 C 0.378185 -0.122287 0.445189
C2 C 0.343570 0.014540 0.613910
C3 C 0.383757 0.117367 0.427933
N1B N -0.025791 0.111613 0.529242
Cd1B Cd 0.611786 -0.001981 0.521043
S2B S -0.025650 -0.016960 0.338650
N3B N -0.019335 -0.102040 0.548390
K1 K 0.285067 -0.012460 0.201500
O1 O 0.094490 0.102559 0.140148
O2 O 0.330931 0.161604 0.130405
O3 O 0.518802 0.065490 0.209583
O4 O 0.487897 -0.136767 0.206238
O5 O 0.257976 -0.202436 0.161684
O6 O 0.062485 -0.082349 0.141006
C4 C 0.123184 0.199951 0.120546
H1 H 0.060487 0.241204 0.141993
H2 H 0.126480 0.207948 0.061013
C5 C 0.238880 0.225592 0.156605
H3 H 0.260133 0.289420 0.139995
H4 H 0.232757 0.224307 0.216432
C6 C 0.448200 0.199168 0.138446
H5 H 0.454219 0.234617 0.189648
H6 H 0.464510 0.242048 0.092953
C7 C 0.537888 0.121852 0.138374
H7 H 0.528746 0.083682 0.088913
H8 H 0.619079 0.147809 0.138995
C8 C 0.611882 -0.003568 0.224767
H9 H 0.613544 -0.017633 0.283468
H10 H 0.689402 0.023916 0.210257
C9 C 0.597155 -0.092512 0.179086
H11 H 0.593097 -0.079933 0.120183
H12 H 0.665531 -0.133846 0.189414
C10 C 0.469583 -0.225226 0.167842
H13 H 0.532867 -0.268957 0.184108
H14 H 0.472112 -0.218106 0.108206
C11 C 0.350262 -0.262338 0.193530
H15 H 0.339620 -0.326132 0.172611
H16 H 0.345451 -0.264383 0.253397
C12 C 0.142355 -0.230150 0.188057
H17 H 0.130998 -0.212472 0.245495
H18 H 0.134518 -0.298347 0.183807
C13 C 0.047914 -0.183224 0.135655
H19 H 0.056277 -0.203527 0.078641
H20 H -0.032035 -0.201005 0.154811
C14 C -0.023719 -0.028961 0.100516
C15 C -0.122512 -0.066074 0.059048
H21 H -0.134689 -0.131190 0.058397
C16 C -0.203927 -0.006908 0.018264
H22 H -0.269834 -0.032826 -0.009354
C17 C -0.187755 0.087046 0.018636
H23 H -0.242798 0.126118 -0.008283
C18 C -0.088245 0.126526 0.059428
H24 H -0.076951 0.191741 0.058904
C19 C -0.006381 0.069132 0.100614
loop_
_geom_bond_atom_site_label_1
_geom_bond_atom_site_label_2
_geom_bond_site_symmetry_1
_geom_bond_site_symmetry_2
Cd1 S1 1_555 1_555
K1 O1 1_555 1_555
S1 C1 1_555 1_555
S2 C2 1_555 1_555
S3 Cd1 1_555 1_555
N1 C1 1_555 1_555
N2 Cd1 1_555 1_555
N3 C3 1_555 1_555
C2 N2 1_555 1_555
C3 S3 1_555 1_555
O1 C4 1_555 1_555
O2 K1 1_555 1_555
O3 K1 1_555 1_555
O4 K1 1_555 1_555
O5 K1 1_555 1_555
O6 K1 1_555 1_555
C4 H1 1_555 1_555
H2 C4 1_555 1_555
C5 O2 1_555 1_555
H3 C5 1_555 1_555
H4 C5 1_555 1_555
C6 O2 1_555 1_555
H5 C6 1_555 1_555
H6 C6 1_555 1_555
C7 O3 1_555 1_555
H7 C7 1_555 1_555
H8 C7 1_555 1_555
C8 O3 1_555 1_555
H9 C8 1_555 1_555
H10 C8 1_555 1_555
C9 O4 1_555 1_555
H11 C9 1_555 1_555
H12 C9 1_555 1_555
C10 O4 1_555 1_555
H13 C10 1_555 1_555
H14 C10 1_555 1_555
C11 O5 1_555 1_555
H15 C11 1_555 1_555
H16 C11 1_555 1_555
C12 O5 1_555 1_555
H17 C12 1_555 1_555
H18 C12 1_555 1_555
C13 O6 1_555 1_555
H19 C13 1_555 1_555
H20 C13 1_555 1_555
C14 O6 1_555 1_555
C15 C14 1_555 1_555
H21 C15 1_555 1_555
C16 C15 1_555 1_555
H22 C16 1_555 1_555
C17 C16 1_555 1_555
H23 C17 1_555 1_555
C18 C17 1_555 1_555
H24 C18 1_555 1_555
C19 O1 1_555 1_555
N1B Cd1 1_555 1_555
Cd1B S2 1_555 1_555
S2B Cd1 1_555 1_555
N3B Cd1 1_555 1_555
N1 Cd1B 1_555 1_555
N3 Cd1B 1_555 1_555
C4 C5 1_555 1_555
C6 C7 1_555 1_555
C8 C9 1_555 1_555
C10 C11 1_555 1_555
C12 C13 1_555 1_555
C14 C19 1_555 1_555
C18 C19 1_555 1_555

#END
