
#######################################################################
#
#                 Cambridge Crystallographic Data Centre
#                                CCDC 
#
#######################################################################
#
# If this CIF has been generated from an entry in the Cambridge 
# Structural Database, then it will include bibliographic, chemical, 
# crystal, experimental, refinement or atomic coordinate data resulting 
# from the CCDC's data processing and validation procedures.
#
#######################################################################

data_GOBGAG
_symmetry_cell_setting           cubic
_symmetry_space_group_name_H-M   'I m -3 m'
_symmetry_Int_Tables_number      229
_space_group_name_Hall           '-I 4 2 3'
loop_
_symmetry_equiv_pos_site_id
_symmetry_equiv_pos_as_xyz
1 x,y,z
2 z,x,y
3 y,z,x
4 y,x,-z
5 y,-x,z
6 -y,x,z
7 x,z,-y
8 -x,z,y
9 x,-z,y
10 z,y,-x
11 z,-y,x
12 -z,y,x
13 1/2+x,1/2+y,1/2+z
14 1/2+z,1/2+x,1/2+y
15 1/2+y,1/2+z,1/2+x
16 1/2+y,1/2+x,1/2-z
17 1/2+y,1/2-x,1/2+z
18 1/2-y,1/2+x,1/2+z
19 1/2+x,1/2+z,1/2-y
20 1/2-x,1/2+z,1/2+y
21 1/2+x,1/2-z,1/2+y
22 1/2+z,1/2+y,1/2-x
23 1/2+z,1/2-y,1/2+x
24 1/2-z,1/2+y,1/2+x
25 -x,-y,z
26 -x,y,-z
27 x,-y,-z
28 z,-x,-y
29 -z,-x,y
30 -z,x,-y
31 -y,z,-x
32 y,-z,-x
33 -y,-z,x
34 -y,-x,-z
35 -x,-z,-y
36 -z,-y,-x
37 1/2-x,1/2-y,1/2+z
38 1/2-x,1/2+y,1/2-z
39 1/2+x,1/2-y,1/2-z
40 1/2+z,1/2-x,1/2-y
41 1/2-z,1/2-x,1/2+y
42 1/2-z,1/2+x,1/2-y
43 1/2-y,1/2+z,1/2-x
44 1/2+y,1/2-z,1/2-x
45 1/2-y,1/2-z,1/2+x
46 1/2-y,1/2-x,1/2-z
47 1/2-x,1/2-z,1/2-y
48 1/2-z,1/2-y,1/2-x
49 -x,-y,-z
50 -z,-x,-y
51 -y,-z,-x
52 -y,-x,z
53 -y,x,-z
54 y,-x,-z
55 -x,-z,y
56 x,-z,-y
57 -x,z,-y
58 -z,-y,x
59 -z,y,-x
60 z,-y,-x
61 1/2-x,1/2-y,1/2-z
62 1/2-z,1/2-x,1/2-y
63 1/2-y,1/2-z,1/2-x
64 1/2-y,1/2-x,1/2+z
65 1/2-y,1/2+x,1/2-z
66 1/2+y,1/2-x,1/2-z
67 1/2-x,1/2-z,1/2+y
68 1/2+x,1/2-z,1/2-y
69 1/2-x,1/2+z,1/2-y
70 1/2-z,1/2-y,1/2+x
71 1/2-z,1/2+y,1/2-x
72 1/2+z,1/2-y,1/2-x
73 x,y,-z
74 x,-y,z
75 -x,y,z
76 -z,x,y
77 z,x,-y
78 z,-x,y
79 y,-z,x
80 -y,z,x
81 y,z,-x
82 y,x,z
83 x,z,y
84 z,y,x
85 1/2+x,1/2+y,1/2-z
86 1/2+x,1/2-y,1/2+z
87 1/2-x,1/2+y,1/2+z
88 1/2-z,1/2+x,1/2+y
89 1/2+z,1/2+x,1/2-y
90 1/2+z,1/2-x,1/2+y
91 1/2+y,1/2-z,1/2+x
92 1/2-y,1/2+z,1/2+x
93 1/2+y,1/2+z,1/2-x
94 1/2+y,1/2+x,1/2+z
95 1/2+x,1/2+z,1/2+y
96 1/2+z,1/2+y,1/2+x
_cell_length_a                   30.070(7)
_cell_length_b                   30.070(7)
_cell_length_c                   30.070(7)
_cell_angle_alpha                90
_cell_angle_beta                 90
_cell_angle_gamma                90
_cell_volume                     27189.4
loop_
_atom_site_label
_atom_site_type_symbol
_atom_site_fract_x
_atom_site_fract_y
_atom_site_fract_z
C9 C 0.3062(11) 0.3062(11) 0.243(2)
N4 N 0.3124(19) 0.2599(14) 0.2599(14)
C11 C 0.3040(13) 0.274(2) 0.208(2)
C9B C 0.3062(11) 0.243(2) 0.3062(11)
N4A N 0.2599(14) 0.3124(19) 0.2599(14)
C11CC C 0.274(2) 0.3040(13) 0.208(2)
C11DC C 0.3040(13) 0.208(2) 0.274(2)
C11UA C 0.292(2) 0.226(2) 0.1960(13)
O3 O 0.5000 0.5000 0.2243(17)
O5 O 0.4660(16) 0.3730(14) 0.1620(15)
O11 O 0.4048(15) 0.4048(15) 0.171(3)
O15 O 0.353(5) 0.353(5) 0.353(5)
O17 O 0.358(2) 0.358(2) 0.246(3)
O18 O 0.5000 0.351(4) 0.264(4)
O19 O 0.5000 0.5000 0.5000
Cd1 Cd 0.39518(4) 0.2500 0.10482(4)
O1 O 0.4633(3) 0.2882(3) 0.1244(3)
C1 C 0.5000 0.2710(6) 0.1169(7)
C2 C 0.5000(6) 0.2249(6) 0.0979
N1 N 0.4102(4) 0.2939(4) 0.0392(4)
C3 C 0.4283(5) 0.3345(5) 0.0387(5)
H1 H 0.4351 0.3485 0.0661
C4 C 0.4375(6) 0.3565(7) 0.0000
H2 H 0.4496 0.3856 0.0000
O2 O 0.3740(3) 0.3223(3) 0.1307(3)
C5 C 0.3353(5) 0.3353(5) 0.1232(6)
C6 C 0.3024(6) 0.3024(5) 0.1066(5)
N2 N 0.4015(3) 0.2389(4) 0.1842(4)
C7 C 0.4166(6) 0.2677(5) 0.2126(6)
H3 H 0.4230 0.2973 0.2035
C8 C 0.4232(9) 0.2551(6) 0.2551(6)
H4 H 0.4326 0.2764 0.2764
Cd1TB Cd 0.39518(4) 0.2500 -0.10482(4)
Cd1DC Cd 0.39518(4) 0.10482(4) 0.2500
Cd1CC Cd 0.2500 0.39518(4) 0.10482(4)
Cd1VB Cd 0.60482(4) 0.2500 0.10482(4)
O1UA O 0.3756(3) 0.2118(3) 0.0367(3)
O1VB O 0.5367(3) 0.2882(3) 0.1244(3)
O1QB O 0.3756(3) 0.2118(3) -0.0367(3)
O1SB O 0.6244(3) 0.2118(3) 0.0367(3)
C1QB C 0.3831(7) 0.2290(6) 0.0000
C2QB C 0.4021 0.2751(6) 0.0000(6)
N1UA N 0.4608(4) 0.2061(4) 0.0898(4)
N1SB N 0.5392(4) 0.2061(4) 0.0898(4)
N1TB N 0.4102(4) 0.2939(4) -0.0392(4)
N1VB N 0.5898(4) 0.2939(4) 0.0392(4)
C3TB C 0.4283(5) 0.3345(5) -0.0387(5)
C3SB C 0.5387(5) 0.1655(5) 0.0717(5)
C3UA C 0.4613(5) 0.1655(5) 0.0717(5)
H1TB H 0.4351 0.3485 -0.0661
H1SB H 0.5661 0.1515 0.0649
H1UA H 0.4339 0.1515 0.0649
C4SB C 0.5000 0.1435(7) 0.0625(6)
H2SB H 0.5000 0.1144 0.0504
O2UA O 0.3693(3) 0.1777(3) 0.1260(3)
O2CC O 0.3223(3) 0.3740(3) 0.1307(3)
O2IB O 0.3693(3) 0.1260(3) 0.1777(3)
O2VB O 0.6260(3) 0.3223(3) 0.1307(3)
O2SB O 0.6307(3) 0.1777(3) 0.1260(3)
C5IB C 0.3768(6) 0.1647(5) 0.1647(5)
C6IB C 0.3934(5) 0.1976(6) 0.1976(5)
N2UA N 0.3158(4) 0.2611(4) 0.0985(3)
N2JB N 0.2611(4) 0.3158(4) 0.0985(3)
N2DC N 0.4015(3) 0.1842(4) 0.2389(4)
N2VB N 0.5985(3) 0.2389(4) 0.1842(4)
N2SB N 0.6842(4) 0.2611(4) 0.0985(3)
C7DC C 0.4166(6) 0.2126(6) 0.2677(5)
C7UA C 0.2874(6) 0.2323(5) 0.0834(6)
C7JB C 0.2323(5) 0.2874(6) 0.0834(6)
H3DC H 0.4230 0.2035 0.2973
H3UA H 0.2965 0.2027 0.0770
H3JB H 0.2027 0.2965 0.0770
C8JB C 0.2449(6) 0.2449(6) 0.0768(9)
H4JB H 0.2236 0.2236 0.0674
N3? N 0.3062(11) 0.3062(11) 0.243(2)
C10? C 0.3124(19) 0.2599(14) 0.2599(14)
N5? N 0.270(3) 0.270(3) 0.200(3)
O4? O 0.4621(7) 0.4337(7) 0.0696(7)
O6? O 0.5000 0.4210(11) 0.0726(11)
O7? O 0.5000 0.5000 0.182(3)
O8? O 0.4353(19) 0.3900(16) 0.1482(17)
O9? O 0.411(2) 0.373(2) 0.273(2)
O10? O 0.328(3) 0.328(3) 0.248(4)
O12? O 0.434(3) 0.374(3) 0.179(3)
O13? O 0.5000 0.367(2) 0.159(2)
O14? O 0.5000 0.338(4) 0.310(4)
O16? O 0.468(3) 0.5000 0.247(3)
loop_
_geom_bond_atom_site_label_1
_geom_bond_atom_site_label_2
_geom_bond_site_symmetry_1
_geom_bond_site_symmetry_2
Cd1 O1 1_555 1_555
O1 C1 1_555 1_555
C1 C2 1_555 1_555
C2 N1UA 1_555 1_555
N1 Cd1 1_555 1_555
C3 N1 1_555 1_555
H1 C3 1_555 1_555
C4 C3 1_555 1_555
H2 C4 1_555 1_555
O2 Cd1 1_555 1_555
C5 O2 1_555 1_555
C6 C5 1_555 1_555
N2 Cd1 1_555 1_555
C7 N2 1_555 1_555
H3 C7 1_555 1_555
C8 C7 1_555 1_555
H4 C8 1_555 1_555
C9 N4 1_555 1_555
N4 C11 1_555 1_555
C11 C9 1_555 1_555
Cd1TB O1QB 1_555 1_555
Cd1DC O2IB 1_555 1_555
Cd1CC O2CC 1_555 1_555
Cd1VB O1VB 1_555 1_555
O1UA Cd1 1_555 1_555
O1VB C1 1_555 1_555
O1QB C1QB 1_555 1_555
O1SB Cd1VB 1_555 1_555
C1QB O1UA 1_555 1_555
C2QB N1 1_555 1_555
N1UA Cd1 1_555 1_555
N1SB C2 1_555 1_555
N1TB Cd1TB 1_555 1_555
N1VB Cd1VB 1_555 1_555
C3TB C4 1_555 1_555
C3SB N1SB 1_555 1_555
C3UA N1UA 1_555 1_555
H1TB C3TB 1_555 1_555
H1SB C3SB 1_555 1_555
H1UA C3UA 1_555 1_555
C4SB C3SB 1_555 1_555
H2SB C4SB 1_555 1_555
O2UA Cd1 1_555 1_555
O2CC C5 1_555 1_555
O2IB C5IB 1_555 1_555
O2VB Cd1VB 1_555 1_555
O2SB Cd1VB 1_555 1_555
C5IB O2UA 1_555 1_555
C6IB N2 1_555 1_555
N2UA Cd1 1_555 1_555
N2JB C6 1_555 1_555
N2DC Cd1DC 1_555 1_555
N2VB Cd1VB 1_555 1_555
N2SB Cd1VB 1_555 1_555
C7DC C8 1_555 1_555
C7UA N2UA 1_555 1_555
C7JB N2JB 1_555 1_555
H3DC C7DC 1_555 1_555
H3UA C7UA 1_555 1_555
H3JB C7JB 1_555 1_555
C8JB C7UA 1_555 1_555
H4JB C8JB 1_555 1_555
C9B N4 1_555 1_555
N4A C9 1_555 1_555
C11CC C9 1_555 1_555
C11DC N4 1_555 1_555
C11UA C11 1_555 1_555
C6 N2UA 1_555 1_555
C11 C11CC 1_555 1_555
Cd1CC N2JB 1_555 1_555
Cd1VB N1SB 1_555 1_555
C1QB C2QB 1_555 1_555
C2QB N1TB 1_555 1_555
N1TB C3TB 1_555 1_555
C3UA C4SB 1_555 1_555
C5IB C6IB 1_555 1_555
C6IB N2DC 1_555 1_555
N2DC C7DC 1_555 1_555
C7JB C8JB 1_555 1_555
C9B C11DC 1_555 1_555
N4A C11CC 1_555 1_555

#END
