
#######################################################################
#
#                 Cambridge Crystallographic Data Centre
#                                CCDC 
#
#######################################################################
#
# If this CIF has been generated from an entry in the Cambridge 
# Structural Database, then it will include bibliographic, chemical, 
# crystal, experimental, refinement or atomic coordinate data resulting 
# from the CCDC's data processing and validation procedures.
#
#######################################################################

data_GOBHOW
_symmetry_cell_setting           triclinic
_symmetry_space_group_name_H-M   'P -1'
_symmetry_Int_Tables_number      2
_space_group_name_Hall           '-P 1'
loop_
_symmetry_equiv_pos_site_id
_symmetry_equiv_pos_as_xyz
1 x,y,z
2 -x,-y,-z
_cell_length_a                   12.274(5)
_cell_length_b                   13.707(5)
_cell_length_c                   18.913(5)
_cell_angle_alpha                107.964(5)
_cell_angle_beta                 104.161(5)
_cell_angle_gamma                98.063(5)
_cell_volume                     2853.43
loop_
_atom_site_label
_atom_site_type_symbol
_atom_site_fract_x
_atom_site_fract_y
_atom_site_fract_z
Co1 Co 0.49832(5) 0.48927(5) 0.74839(4)
N1 N 0.5773(3) 0.6023(3) 0.7209(2)
N2 N 0.4573(3) 0.5967(3) 0.8280(2)
N3 N 0.4353(3) 0.3777(3) 0.7831(2)
N4 N 0.5230(3) 0.3788(3) 0.6603(2)
N5 N 0.5744(4) 0.8694(3) 0.8469(3)
N6 N 0.3048(4) 0.4793(3) 0.9388(2)
N7 N 0.4443(4) 0.1102(3) 0.6644(2)
N8 N 0.6751(3) 0.4943(3) 0.5488(2)
N9 N 0.3233(3) 0.4783(3) 0.6663(2)
N10 N 0.6739(3) 0.5044(3) 0.8296(2)
N11 N 0.0096(3) 0.4569(3) 0.5016(2)
N12 N 0.9920(3) 0.5406(3) 0.9934(2)
O1 O 0.5330(3) 0.9120(3) 0.8017(3)
O2 O 0.6332(4) 0.9143(3) 0.9156(3)
O3 O 0.3537(3) 0.5360(3) 1.0070(2)
O4 O 0.2081(3) 0.4200(3) 0.9152(2)
O5 O 0.3487(3) 0.0562(3) 0.6494(2)
O6 O 0.5307(3) 0.0757(3) 0.6608(2)
O7 O 0.6378(3) 0.5394(3) 0.5047(2)
O8 O 0.7555(3) 0.4512(3) 0.5468(2)
C1 C 0.6417(4) 0.5889(4) 0.6701(3)
C2 C 0.7232(4) 0.6872(4) 0.6857(3)
C3 C 0.7003(4) 0.7620(4) 0.7432(3)
C4 C 0.6090(4) 0.7094(4) 0.7639(3)
C5 C 0.5493(4) 0.7526(4) 0.8143(3)
C6 C 0.4678(4) 0.7008(3) 0.8391(3)
C7 C 0.3880(4) 0.7446(4) 0.8788(3)
C8 C 0.3294(4) 0.6644(4) 0.8930(3)
C9 C 0.3790(4) 0.5752(3) 0.8661(3)
C10 C 0.3648(4) 0.4816(4) 0.8813(3)
C11 C 0.4020(4) 0.3933(4) 0.8494(3)
C12 C 0.4083(4) 0.3029(4) 0.8755(3)
C13 C 0.4407(4) 0.2307(4) 0.8211(3)
C14 C 0.4511(4) 0.2763(3) 0.7625(3)
C15 C 0.4606(4) 0.2264(3) 0.6893(3)
C16 C 0.4811(4) 0.2729(3) 0.6368(3)
C17 C 0.4735(4) 0.2215(4) 0.5556(3)
C18 C 0.5205(4) 0.2974(4) 0.5318(3)
C19 C 0.5556(4) 0.3946(4) 0.6003(3)
C20 C 0.6209(4) 0.4921(4) 0.6099(3)
C21 C 0.8212(4) 0.7042(4) 0.6541(3)
H1 H 0.8452 0.7801 0.6629
H2 H 0.7952 0.6648 0.5971
C22 C 0.9243(4) 0.6681(5) 0.6924(4)
H3 H 0.9847 0.6757 0.6674
H4 H 0.9000 0.5940 0.6862
H5 H 0.9548 0.7115 0.7480
C23 C 0.7666(4) 0.8767(4) 0.7802(3)
H6 H 0.8502 0.8798 0.7900
H7 H 0.7538 0.9083 0.8313
C24 C 0.7308(5) 0.9436(4) 0.7292(4)
H8 H 0.7708 1.0178 0.7582
H9 H 0.6471 0.9368 0.7159
H10 H 0.7521 0.9182 0.6811
C25 C 0.3616(5) 0.8525(4) 0.8925(4)
H11 H 0.3287 0.8697 0.9364
H12 H 0.4349 0.9056 0.9081
C26 C 0.2797(7) 0.8614(6) 0.8233(5)
H13 H 0.2688 0.9336 0.8360
H14 H 0.2051 0.8121 0.8092
H15 H 0.3112 0.8443 0.7793
C27 C 0.2229(4) 0.6641(4) 0.9175(3)
H16 H 0.2160 0.7376 0.9400
H17 H 0.2285 0.6324 0.9583
C28 C 0.1149(4) 0.6014(5) 0.8478(3)
H18 H 0.0458 0.6043 0.8650
H19 H 0.1199 0.5278 0.8271
H20 H 0.1100 0.6320 0.8070
C29 C 0.3917(5) 0.2888(4) 0.9480(3)
H21 H 0.3902 0.3577 0.9846
H22 H 0.4588 0.2660 0.9736
C30 C 0.2810(5) 0.2083(4) 0.9331(3)
H23 H 0.2811 0.1954 0.9813
H24 H 0.2772 0.1421 0.8923
H25 H 0.2137 0.2359 0.9162
C31 C 0.4859(4) 0.1383(4) 0.8331(3)
H26 H 0.4588 0.0774 0.7833
H27 H 0.4559 0.1177 0.8717
C32 C 0.6177(5) 0.1679(4) 0.8621(3)
H28 H 0.6462 0.1108 0.8757
H29 H 0.6443 0.2328 0.9083
H30 H 0.6473 0.1792 0.8209
C33 C 0.4058(4) 0.1109(4) 0.5021(3)
H31 H 0.4262 0.0925 0.4529
H32 H 0.4272 0.0600 0.5274
C34 C 0.2770(5) 0.1024(4) 0.4840(3)
H33 H 0.2355 0.0339 0.4434
H34 H 0.2573 0.1591 0.4656
H35 H 0.2547 0.1087 0.5313
C35 C 0.5223(4) 0.2813(4) 0.4506(3)
H36 H 0.5382 0.3511 0.4454
H37 H 0.4444 0.2421 0.4143
C36 C 0.6114(5) 0.2212(4) 0.4250(4)
H38 H 0.6004 0.2071 0.3694
H39 H 0.6008 0.1543 0.4340
H40 H 0.6896 0.2640 0.4555
C37 C 0.2944(4) 0.5679(4) 0.6591(3)
H41 H 0.3468 0.6338 0.6907
C38 C 0.1926(4) 0.5670(4) 0.6081(3)
H42 H 0.1747 0.6312 0.6054
C39 C 0.1159(4) 0.4704(4) 0.5603(3)
C40 C 0.1440(4) 0.3784(4) 0.5672(3)
H43 H 0.0935 0.3114 0.5358
C41 C 0.2482(4) 0.3869(4) 0.6213(3)
H44 H 0.2668 0.3239 0.6265
C42 C 0.7214(4) 0.4220(4) 0.8244(3)
H45 H 0.6823 0.3564 0.7836
C43 C 0.8270(4) 0.4285(4) 0.8771(3)
H46 H 0.8582 0.3680 0.8727
C44 C 0.8852(4) 0.5237(4) 0.9355(3)
C45 C 0.8380(4) 0.6102(4) 0.9388(3)
H47 H 0.8773 0.6780 0.9766
C46 C 0.7313(4) 0.5948(4) 0.8852(3)
H48 H 0.6975 0.6537 0.8890
N9A N -0.3233(3) 0.5217(3) 0.3337(2)
N11A N -0.0096(3) 0.5431(3) 0.4984(2)
C37A C -0.2944(4) 0.4321(4) 0.3409(3)
H41A H -0.3468 0.3662 0.3093
C38A C -0.1926(4) 0.4330(4) 0.3919(3)
H42A H -0.1747 0.3688 0.3946
C39A C -0.1159(4) 0.5296(4) 0.4397(3)
C40A C -0.1440(4) 0.6216(4) 0.4328(3)
H43A H -0.0935 0.6886 0.4642
C41A C -0.2482(4) 0.6131(4) 0.3787(3)
H44A H -0.2668 0.6761 0.3735
N10A N 1.3261(3) 0.4956(3) 1.1704(2)
N12A N 1.0080(3) 0.4594(3) 1.0066(2)
C42A C 1.2786(4) 0.5780(4) 1.1756(3)
H45A H 1.3177 0.6436 1.2164
C43A C 1.1730(4) 0.5715(4) 1.1229(3)
H46A H 1.1418 0.6320 1.1273
C44A C 1.1148(4) 0.4763(4) 1.0645(3)
C45A C 1.1620(4) 0.3898(4) 1.0612(3)
H47A H 1.1227 0.3220 1.0234
C46A C 1.2687(4) 0.4052(4) 1.1148(3)
H48A H 1.3025 0.3463 1.1110
Co1A Co -0.49832(5) 0.51073(5) 0.25161(4)
N1A N -0.5773(3) 0.3977(3) 0.2791(2)
N2A N -0.4573(3) 0.4033(3) 0.1720(2)
N3A N -0.4353(3) 0.6223(3) 0.2169(2)
N4A N -0.5230(3) 0.6212(3) 0.3397(2)
N5A N -0.5744(4) 0.1306(3) 0.1531(3)
N6A N -0.3048(4) 0.5207(3) 0.0612(2)
N7A N -0.4443(4) 0.8898(3) 0.3356(2)
N8A N -0.6751(3) 0.5057(3) 0.4512(2)
O1A O -0.5330(3) 0.0880(3) 0.1983(3)
O2A O -0.6332(4) 0.0857(3) 0.0844(3)
O3A O -0.3537(3) 0.4640(3) -0.0070(2)
O4A O -0.2081(3) 0.5800(3) 0.0848(2)
O5A O -0.3487(3) 0.9438(3) 0.3506(2)
O6A O -0.5307(3) 0.9243(3) 0.3392(2)
O7A O -0.6378(3) 0.4606(3) 0.4953(2)
O8A O -0.7555(3) 0.5488(3) 0.4532(2)
C1A C -0.6417(4) 0.4111(4) 0.3299(3)
C2A C -0.7232(4) 0.3128(4) 0.3143(3)
C3A C -0.7003(4) 0.2380(4) 0.2568(3)
C4A C -0.6090(4) 0.2906(4) 0.2361(3)
C5A C -0.5493(4) 0.2474(4) 0.1857(3)
C6A C -0.4678(4) 0.2992(3) 0.1609(3)
C7A C -0.3880(4) 0.2554(4) 0.1212(3)
C8A C -0.3294(4) 0.3356(4) 0.1070(3)
C9A C -0.3790(4) 0.4248(3) 0.1339(3)
C10A C -0.3648(4) 0.5184(4) 0.1187(3)
C11A C -0.4020(4) 0.6067(4) 0.1506(3)
C12A C -0.4083(4) 0.6971(4) 0.1245(3)
C13A C -0.4407(4) 0.7693(4) 0.1789(3)
C14A C -0.4511(4) 0.7237(3) 0.2375(3)
C15A C -0.4606(4) 0.7736(3) 0.3107(3)
C16A C -0.4811(4) 0.7271(3) 0.3632(3)
C17A C -0.4735(4) 0.7785(4) 0.4444(3)
C18A C -0.5205(4) 0.7026(4) 0.4682(3)
C19A C -0.5556(4) 0.6054(4) 0.3997(3)
C20A C -0.6209(4) 0.5079(4) 0.3901(3)
C21A C -0.8212(4) 0.2958(4) 0.3459(3)
H1A H -0.8452 0.2199 0.3371
H2A H -0.7952 0.3352 0.4029
C22A C -0.9243(4) 0.3319(5) 0.3076(4)
H3A H -0.9847 0.3243 0.3326
H4A H -0.9000 0.4060 0.3138
H5A H -0.9548 0.2885 0.2520
C23A C -0.7666(4) 0.1233(4) 0.2198(3)
H6A H -0.8502 0.1202 0.2100
H7A H -0.7538 0.0917 0.1687
C24A C -0.7308(5) 0.0564(4) 0.2708(4)
H8A H -0.7708 -0.0178 0.2418
H9A H -0.6471 0.0632 0.2841
H10A H -0.7521 0.0818 0.3189
C25A C -0.3616(5) 0.1475(4) 0.1075(4)
H11A H -0.3287 0.1303 0.0636
H12A H -0.4349 0.0944 0.0919
C26A C -0.2797(7) 0.1386(6) 0.1767(5)
H13A H -0.2688 0.0664 0.1640
H14A H -0.2051 0.1879 0.1908
H15A H -0.3112 0.1557 0.2207
C27A C -0.2229(4) 0.3359(4) 0.0825(3)
H16A H -0.2160 0.2624 0.0600
H17A H -0.2285 0.3676 0.0417
C28A C -0.1149(4) 0.3986(5) 0.1522(3)
H18A H -0.0458 0.3957 0.1350
H19A H -0.1199 0.4722 0.1729
H20A H -0.1100 0.3680 0.1930
C29A C -0.3917(5) 0.7112(4) 0.0520(3)
H21A H -0.3902 0.6423 0.0154
H22A H -0.4588 0.7340 0.0264
C30A C -0.2810(5) 0.7917(4) 0.0669(3)
H23A H -0.2811 0.8046 0.0187
H24A H -0.2772 0.8579 0.1077
H25A H -0.2137 0.7641 0.0838
C31A C -0.4859(4) 0.8617(4) 0.1669(3)
H26A H -0.4588 0.9226 0.2167
H27A H -0.4559 0.8823 0.1283
C32A C -0.6177(5) 0.8321(4) 0.1379(3)
H28A H -0.6462 0.8892 0.1243
H29A H -0.6443 0.7672 0.0917
H30A H -0.6473 0.8208 0.1791
C33A C -0.4058(4) 0.8891(4) 0.4979(3)
H31A H -0.4262 0.9075 0.5471
H32A H -0.4272 0.9400 0.4726
C34A C -0.2770(5) 0.8976(4) 0.5160(3)
H33A H -0.2355 0.9661 0.5566
H34A H -0.2573 0.8409 0.5344
H35A H -0.2547 0.8913 0.4687
C35A C -0.5223(4) 0.7187(4) 0.5494(3)
H36A H -0.5382 0.6489 0.5546
H37A H -0.4444 0.7579 0.5857
C36A C -0.6114(5) 0.7788(4) 0.5750(4)
H38A H -0.6004 0.7929 0.6306
H39A H -0.6008 0.8457 0.5660
H40A H -0.6896 0.7360 0.5445
Co1A_2 Co 1.50168(5) 0.51073(5) 1.25161(4)
N10A_2 N -0.6739(3) 0.4956(3) 0.1704(2)
loop_
_geom_bond_atom_site_label_1
_geom_bond_atom_site_label_2
_geom_bond_site_symmetry_1
_geom_bond_site_symmetry_2
Co1 N1 1_555 1_555
N1 C1 1_555 1_555
N2 Co1 1_555 1_555
N3 Co1 1_555 1_555
N4 Co1 1_555 1_555
N5 O1 1_555 1_555
N6 O3 1_555 1_555
N7 O5 1_555 1_555
N8 O7 1_555 1_555
N9 Co1 1_555 1_555
N10 Co1 1_555 1_555
N11 C39 1_555 1_555
N12 C44 1_555 1_555
O2 N5 1_555 1_555
O4 N6 1_555 1_555
O6 N7 1_555 1_555
O8 N8 1_555 1_555
C1 C2 1_555 1_555
C2 C3 1_555 1_555
C3 C4 1_555 1_555
C4 N1 1_555 1_555
C5 N5 1_555 1_555
C6 N2 1_555 1_555
C7 C6 1_555 1_555
C8 C7 1_555 1_555
C9 N2 1_555 1_555
C10 N6 1_555 1_555
C11 N3 1_555 1_555
C12 C11 1_555 1_555
C13 C12 1_555 1_555
C14 N3 1_555 1_555
C15 N7 1_555 1_555
C16 N4 1_555 1_555
C17 C16 1_555 1_555
C18 C17 1_555 1_555
C19 N4 1_555 1_555
C20 N8 1_555 1_555
C21 C2 1_555 1_555
H1 C21 1_555 1_555
H2 C21 1_555 1_555
C22 C21 1_555 1_555
H3 C22 1_555 1_555
H4 C22 1_555 1_555
H5 C22 1_555 1_555
C23 C3 1_555 1_555
H6 C23 1_555 1_555
H7 C23 1_555 1_555
C24 C23 1_555 1_555
H8 C24 1_555 1_555
H9 C24 1_555 1_555
H10 C24 1_555 1_555
C25 C7 1_555 1_555
H11 C25 1_555 1_555
H12 C25 1_555 1_555
C26 C25 1_555 1_555
H13 C26 1_555 1_555
H14 C26 1_555 1_555
H15 C26 1_555 1_555
C27 C8 1_555 1_555
H16 C27 1_555 1_555
H17 C27 1_555 1_555
C28 C27 1_555 1_555
H18 C28 1_555 1_555
H19 C28 1_555 1_555
H20 C28 1_555 1_555
C29 C12 1_555 1_555
H21 C29 1_555 1_555
H22 C29 1_555 1_555
C30 C29 1_555 1_555
H23 C30 1_555 1_555
H24 C30 1_555 1_555
H25 C30 1_555 1_555
C31 C13 1_555 1_555
H26 C31 1_555 1_555
H27 C31 1_555 1_555
C32 C31 1_555 1_555
H28 C32 1_555 1_555
H29 C32 1_555 1_555
H30 C32 1_555 1_555
C33 C17 1_555 1_555
H31 C33 1_555 1_555
H32 C33 1_555 1_555
C34 C33 1_555 1_555
H33 C34 1_555 1_555
H34 C34 1_555 1_555
H35 C34 1_555 1_555
C35 C18 1_555 1_555
H36 C35 1_555 1_555
H37 C35 1_555 1_555
C36 C35 1_555 1_555
H38 C36 1_555 1_555
H39 C36 1_555 1_555
H40 C36 1_555 1_555
C37 N9 1_555 1_555
H41 C37 1_555 1_555
C38 C37 1_555 1_555
H42 C38 1_555 1_555
C39 C38 1_555 1_555
C40 C39 1_555 1_555
H43 C40 1_555 1_555
C41 N9 1_555 1_555
H44 C41 1_555 1_555
C42 N10 1_555 1_555
H45 C42 1_555 1_555
C43 C42 1_555 1_555
H46 C43 1_555 1_555
C44 C43 1_555 1_555
C45 C44 1_555 1_555
H47 C45 1_555 1_555
C46 N10 1_555 1_555
H48 C46 1_555 1_555
N9A C37A 1_555 1_555
N11A N11 1_555 1_555
C37A H41A 1_555 1_555
C38A C37A 1_555 1_555
H42A C38A 1_555 1_555
C39A N11A 1_555 1_555
C40A C39A 1_555 1_555
H43A C40A 1_555 1_555
C41A N9A 1_555 1_555
H44A C41A 1_555 1_555
N10A C42A 1_555 1_555
N12A N12 1_555 1_555
C42A H45A 1_555 1_555
C43A C42A 1_555 1_555
H46A C43A 1_555 1_555
C44A N12A 1_555 1_555
C45A C44A 1_555 1_555
H47A C45A 1_555 1_555
C46A N10A 1_555 1_555
H48A C46A 1_555 1_555
Co1A N9A 1_555 1_555
N1A Co1A 1_555 1_555
N2A Co1A 1_555 1_555
N3A Co1A 1_555 1_555
N4A Co1A 1_555 1_555
N5A O1A 1_555 1_555
N6A O3A 1_555 1_555
N7A O5A 1_555 1_555
N8A O7A 1_555 1_555
O2A N5A 1_555 1_555
O4A N6A 1_555 1_555
O6A N7A 1_555 1_555
O8A N8A 1_555 1_555
C1A N1A 1_555 1_555
C2A C1A 1_555 1_555
C3A C2A 1_555 1_555
C4A N1A 1_555 1_555
C5A N5A 1_555 1_555
C6A N2A 1_555 1_555
C7A C6A 1_555 1_555
C8A C7A 1_555 1_555
C9A N2A 1_555 1_555
C10A N6A 1_555 1_555
C11A N3A 1_555 1_555
C12A C11A 1_555 1_555
C13A C12A 1_555 1_555
C14A N3A 1_555 1_555
C15A N7A 1_555 1_555
C16A N4A 1_555 1_555
C17A C16A 1_555 1_555
C18A C17A 1_555 1_555
C19A N4A 1_555 1_555
C20A N8A 1_555 1_555
C21A C2A 1_555 1_555
H1A C21A 1_555 1_555
H2A C21A 1_555 1_555
C22A C21A 1_555 1_555
H3A C22A 1_555 1_555
H4A C22A 1_555 1_555
H5A C22A 1_555 1_555
C23A C3A 1_555 1_555
H6A C23A 1_555 1_555
H7A C23A 1_555 1_555
C24A C23A 1_555 1_555
H8A C24A 1_555 1_555
H9A C24A 1_555 1_555
H10A C24A 1_555 1_555
C25A C7A 1_555 1_555
H11A C25A 1_555 1_555
H12A C25A 1_555 1_555
C26A C25A 1_555 1_555
H13A C26A 1_555 1_555
H14A C26A 1_555 1_555
H15A C26A 1_555 1_555
C27A C8A 1_555 1_555
H16A C27A 1_555 1_555
H17A C27A 1_555 1_555
C28A C27A 1_555 1_555
H18A C28A 1_555 1_555
H19A C28A 1_555 1_555
H20A C28A 1_555 1_555
C29A C12A 1_555 1_555
H21A C29A 1_555 1_555
H22A C29A 1_555 1_555
C30A C29A 1_555 1_555
H23A C30A 1_555 1_555
H24A C30A 1_555 1_555
H25A C30A 1_555 1_555
C31A C13A 1_555 1_555
H26A C31A 1_555 1_555
H27A C31A 1_555 1_555
C32A C31A 1_555 1_555
H28A C32A 1_555 1_555
H29A C32A 1_555 1_555
H30A C32A 1_555 1_555
C33A C17A 1_555 1_555
H31A C33A 1_555 1_555
H32A C33A 1_555 1_555
C34A C33A 1_555 1_555
H33A C34A 1_555 1_555
H34A C34A 1_555 1_555
H35A C34A 1_555 1_555
C35A C18A 1_555 1_555
H36A C35A 1_555 1_555
H37A C35A 1_555 1_555
C36A C35A 1_555 1_555
H38A C36A 1_555 1_555
H39A C36A 1_555 1_555
H40A C36A 1_555 1_555
Co1A_2 N10A 1_555 1_555
N10A_2 Co1A 1_555 1_555
C1 C20 1_555 1_555
C4 C5 1_555 1_555
C5 C6 1_555 1_555
C8 C9 1_555 1_555
C9 C10 1_555 1_555
C10 C11 1_555 1_555
C13 C14 1_555 1_555
C14 C15 1_555 1_555
C15 C16 1_555 1_555
C18 C19 1_555 1_555
C19 C20 1_555 1_555
C40 C41 1_555 1_555
C45 C46 1_555 1_555
C38A C39A 1_555 1_555
C40A C41A 1_555 1_555
C43A C44A 1_555 1_555
C45A C46A 1_555 1_555
C1A C20A 1_555 1_555
C3A C4A 1_555 1_555
C4A C5A 1_555 1_555
C5A C6A 1_555 1_555
C8A C9A 1_555 1_555
C9A C10A 1_555 1_555
C10A C11A 1_555 1_555
C13A C14A 1_555 1_555
C14A C15A 1_555 1_555
C15A C16A 1_555 1_555
C18A C19A 1_555 1_555
C19A C20A 1_555 1_555

#END
