
#######################################################################
#
#                 Cambridge Crystallographic Data Centre
#                                CCDC 
#
#######################################################################
#
# If this CIF has been generated from an entry in the Cambridge 
# Structural Database, then it will include bibliographic, chemical, 
# crystal, experimental, refinement or atomic coordinate data resulting 
# from the CCDC's data processing and validation procedures.
#
#######################################################################

data_GOBKUD01
_symmetry_cell_setting           orthorhombic
_symmetry_space_group_name_H-M   'P n a 21'
_symmetry_Int_Tables_number      33
_space_group_name_Hall           'P 2c -2n'
loop_
_symmetry_equiv_pos_site_id
_symmetry_equiv_pos_as_xyz
1 x,y,z
2 -x,-y,1/2+z
3 1/2-x,1/2+y,1/2+z
4 1/2+x,1/2-y,z
_cell_length_a                   11.941(1)
_cell_length_b                   11.840(1)
_cell_length_c                   11.233(1)
_cell_angle_alpha                90
_cell_angle_beta                 90
_cell_angle_gamma                90
_cell_volume                     1588.14
loop_
_atom_site_label
_atom_site_type_symbol
_atom_site_fract_x
_atom_site_fract_y
_atom_site_fract_z
Mn1 Mn -0.02479(2) 0.09827(2) -0.36190
N1 N 0.0917(1) 0.2212(2) -0.3790(2)
N2 N 0.0751(2) -0.0257(2) -0.4334(2)
N3 N -0.0719(2) 0.1196(2) -0.5620(2)
N4 N -0.0659(2) 0.0385(2) -0.6240(2)
N5 N -0.0597(2) -0.0431(2) -0.6821(2)
O1 O -0.1194(1) 0.2050(1) -0.2868(2)
O2 O -0.1451(1) -0.0026(1) -0.3460(2)
C1 C 0.0156(2) 0.3421(2) -0.2236(2)
C2 C 0.0391(2) 0.4356(3) -0.1512(3)
C3 C -0.0403(2) 0.4804(3) -0.0759(3)
C4 C -0.1470(2) 0.4322(2) -0.0735(2)
C5 C -0.1721(2) 0.3395(2) -0.1431(2)
C6 C -0.0915(2) 0.2914(2) -0.2189(2)
C7 C 0.0972(2) 0.3081(2) -0.3102(2)
C8 C 0.1774(2) 0.2115(2) -0.4727(2)
C9 C 0.2400(2) 0.1006(2) -0.4633(2)
C10 C 0.1745(2) -0.0005(2) -0.5067(2)
C11 C 0.0482(2) -0.1305(2) -0.4257(2)
C12 C -0.0486(2) -0.1782(2) -0.3683(3)
C13 C -0.0505(2) -0.2964(2) -0.3534(4)
C14 C -0.1418(3) -0.3487(3) -0.3029(3)
C15 C -0.2327(3) -0.2853(3) -0.2695(3)
C16 C -0.2340(2) -0.1697(2) -0.2847(2)
C17 C -0.1407(2) -0.1141(2) -0.3335(2)
N5A N 0.0597(2) 0.0431(2) -0.1821(2)
Mn1A Mn 0.02479(2) -0.09827(2) -0.86190
loop_
_geom_bond_atom_site_label_1
_geom_bond_atom_site_label_2
_geom_bond_site_symmetry_1
_geom_bond_site_symmetry_2
Mn1 N1 1_555 1_555
N1 C7 1_555 1_555
N2 Mn1 1_555 1_555
N3 Mn1 1_555 1_555
N4 N3 1_555 1_555
N5 N4 1_555 1_555
O1 Mn1 1_555 1_555
O2 Mn1 1_555 1_555
C1 C2 1_555 1_555
C2 C3 1_555 1_555
C3 C4 1_555 1_555
C4 C5 1_555 1_555
C5 C6 1_555 1_555
C6 O1 1_555 1_555
C7 C1 1_555 1_555
C8 N1 1_555 1_555
C9 C8 1_555 1_555
C10 N2 1_555 1_555
C11 N2 1_555 1_555
C12 C11 1_555 1_555
C13 C12 1_555 1_555
C14 C13 1_555 1_555
C15 C14 1_555 1_555
C16 C15 1_555 1_555
C17 O2 1_555 1_555
N5A Mn1 1_555 1_555
Mn1A N5 1_555 1_555
C1 C6 1_555 1_555
C9 C10 1_555 1_555
C12 C17 1_555 1_555
C16 C17 1_555 1_555

#END
