
#######################################################################
#
#                 Cambridge Crystallographic Data Centre
#                                CCDC 
#
#######################################################################
#
# If this CIF has been generated from an entry in the Cambridge 
# Structural Database, then it will include bibliographic, chemical, 
# crystal, experimental, refinement or atomic coordinate data resulting 
# from the CCDC's data processing and validation procedures.
#
#######################################################################

data_GOBPES
_symmetry_cell_setting           monoclinic
_symmetry_space_group_name_H-M   'P 21/c'
_symmetry_Int_Tables_number      14
_space_group_name_Hall           '-P 2ybc'
loop_
_symmetry_equiv_pos_site_id
_symmetry_equiv_pos_as_xyz
1 x,y,z
2 x,1/2-y,1/2+z
3 -x,-y,-z
4 -x,1/2+y,1/2-z
_cell_length_a                   8.4768(5)
_cell_length_b                   7.9916(11)
_cell_length_c                   18.1539(13)
_cell_angle_alpha                90
_cell_angle_beta                 95.287(6)
_cell_angle_gamma                90
_cell_volume                     1224.57
loop_
_atom_site_label
_atom_site_type_symbol
_atom_site_fract_x
_atom_site_fract_y
_atom_site_fract_z
In1 In 0.04845(3) 0.92253(3) 0.218426(15)
S1 S -0.00600(12) 0.83288(12) 0.34946(5)
O1 O -0.1133(3) 1.1201(3) 0.29745(15)
C1 C -0.1156(4) 1.0183(4) 0.3507(2)
N1 N -0.2006(4) 1.0489(4) 0.4080(2)
C2 C 0.2856(4) 1.0229(5) 0.2336(2)
H1 H 0.3325(4) 1.0170(5) 0.1863(2)
H2 H 0.2792(4) 1.1412(5) 0.2471(2)
C3 C 0.3949(5) 0.9343(7) 0.2921(3)
H3 H 0.4985(5) 0.9867(7) 0.2954(3)
H4 H 0.4047(5) 0.8175(7) 0.2786(3)
H5 H 0.3513(5) 0.9420(7) 0.3395(3)
C4 C -0.1471(5) 0.8882(5) 0.1352(2)
H6 H -0.1168(5) 0.9355(5) 0.0888(2)
H7 H -0.1622(5) 0.7677(5) 0.1274(2)
C5 C -0.3056(5) 0.9634(6) 0.1503(3)
H8 H -0.3835(5) 0.9396(6) 0.1091(3)
H9 H -0.2945(5) 1.0836(6) 0.1564(3)
H10 H -0.3401(5) 0.9151(6) 0.1952(3)
C6 C -0.2082(5) 0.9307(5) 0.4701(2)
H11 H -0.2181(5) 0.9938(5) 0.5157(2)
H12 H -0.1094(5) 0.8665(5) 0.4765(2)
C7 C -0.3473(5) 0.8107(6) 0.4570(3)
H13 H -0.3484(5) 0.7352(6) 0.4988(3)
H14 H -0.3368(5) 0.7466(6) 0.4124(3)
H15 H -0.4455(5) 0.8738(6) 0.4515(3)
C8 C -0.3050(5) 1.1960(5) 0.4087(2)
H16 H -0.4095(5) 1.1602(5) 0.4217(2)
H17 H -0.3185(5) 1.2442(5) 0.3589(2)
C9 C -0.2414(6) 1.3292(5) 0.4627(3)
H18 H -0.3144(6) 1.4228(5) 0.4609(3)
H19 H -0.1390(6) 1.3671(5) 0.4495(3)
H20 H -0.2300(6) 1.2830(5) 0.5123(3)
O1C O 0.1133(3) 0.6201(3) 0.20255(15)
In1C In -0.04845(3) 1.42253(3) 0.281574(15)
loop_
_geom_bond_atom_site_label_1
_geom_bond_atom_site_label_2
_geom_bond_site_symmetry_1
_geom_bond_site_symmetry_2
In1 S1 1_555 1_555
S1 C1 1_555 1_555
O1 In1 1_555 1_555
C1 O1 1_555 1_555
N1 C1 1_555 1_555
C2 In1 1_555 1_555
H1 C2 1_555 1_555
H2 C2 1_555 1_555
C3 C2 1_555 1_555
H3 C3 1_555 1_555
H4 C3 1_555 1_555
H5 C3 1_555 1_555
C4 In1 1_555 1_555
H6 C4 1_555 1_555
H7 C4 1_555 1_555
C5 C4 1_555 1_555
H8 C5 1_555 1_555
H9 C5 1_555 1_555
H10 C5 1_555 1_555
C6 N1 1_555 1_555
H11 C6 1_555 1_555
H12 C6 1_555 1_555
C7 C6 1_555 1_555
H13 C7 1_555 1_555
H14 C7 1_555 1_555
H15 C7 1_555 1_555
C8 N1 1_555 1_555
H16 C8 1_555 1_555
H17 C8 1_555 1_555
C9 C8 1_555 1_555
H18 C9 1_555 1_555
H19 C9 1_555 1_555
H20 C9 1_555 1_555
O1C In1 1_555 1_555
In1C O1 1_555 1_555

#END
