
#######################################################################
#
#                 Cambridge Crystallographic Data Centre
#                                CCDC 
#
#######################################################################
#
# If this CIF has been generated from an entry in the Cambridge 
# Structural Database, then it will include bibliographic, chemical, 
# crystal, experimental, refinement or atomic coordinate data resulting 
# from the CCDC's data processing and validation procedures.
#
#######################################################################

data_GOBTUO
_symmetry_cell_setting           triclinic
_symmetry_space_group_name_H-M   'P -1'
_symmetry_Int_Tables_number      2
_space_group_name_Hall           '-P 1'
loop_
_symmetry_equiv_pos_site_id
_symmetry_equiv_pos_as_xyz
1 x,y,z
2 -x,-y,-z
_cell_length_a                   9.219(5)
_cell_length_b                   10.344(6)
_cell_length_c                   10.760(6)
_cell_angle_alpha                87.519(6)
_cell_angle_beta                 66.875(6)
_cell_angle_gamma                87.869(7)
_cell_volume                     942.53
loop_
_atom_site_label
_atom_site_type_symbol
_atom_site_fract_x
_atom_site_fract_y
_atom_site_fract_z
Cu1 Cu 0.16973(8) 0.47297(6) 0.94410(6)
O1 O 0.3152(4) 0.7632(4) 0.9081(4)
O2 O 0.1949(5) 0.9925(4) 1.2408(4)
O3 O 0.1329(5) 0.7944(4) 1.2178(4)
O4 O 0.0938(4) 0.6516(3) 0.9764(3)
O5 O -0.1323(4) 0.5162(3) 1.2237(3)
O6 O 0.1232(4) 0.4510(3) 1.1410(3)
O7 O -0.0888(5) 0.7896(4) 1.6803(4)
H1 H -0.145(8) 0.846(7) 1.723(7)
O8 O -0.3222(4) 0.7218(4) 1.6994(4)
O9 O 0.2462(5) 0.0910(4) 0.5934(4)
O10 O 0.4439(6) 0.5312(4) 0.8956(5)
H2 H 0.542(3) 0.544(7) 0.862(7)
H3 H 0.399(7) 0.605(3) 0.904(8)
N1 N 0.2644(5) 0.2959(4) 0.9058(4)
N2 N 0.3578(6) -0.0894(4) 0.6513(5)
H4 H 0.387(7) -0.119(6) 0.719(5)
N3 N 0.2671(5) -0.2364(4) 0.3875(4)
H5 H 0.221(6) -0.211(5) 0.329(5)
C1 C 0.3609(6) 0.2550(5) 0.9645(5)
H6 H 0.3688 0.3052 1.0333
C2 C 0.4502(6) 0.1424(6) 0.9292(6)
H7 H 0.5205 0.1170 0.9713
C3 C 0.4364(6) 0.0674(5) 0.8326(5)
H8 H 0.4976 -0.0102 0.8066
C4 C 0.3332(6) 0.1055(5) 0.7739(5)
C5 C 0.2503(6) 0.2213(5) 0.8129(5)
H9 H 0.1798 0.2490 0.7717
C6 C 0.3635(7) -0.3391(5) 0.3614(5)
H10 H 0.3637 -0.3977 0.2957
C7 C 0.4615(7) -0.3619(6) 0.4263(6)
H11 H 0.5338 -0.4335 0.4036
C8 C 0.4554(6) -0.2808(6) 0.5249(5)
H12 H 0.5194 -0.2981 0.5749
C9 C 0.3547(6) -0.1724(5) 0.5520(5)
C10 C 0.2603(6) -0.1507(5) 0.4795(5)
H13 H 0.1923 -0.0765 0.4947
C11 C 0.3062(6) 0.0357(5) 0.6641(5)
C12 C -0.0047(6) 0.4844(5) 1.2335(5)
C13 C -0.0041(6) 0.4882(5) 1.3731(5)
C14 C -0.0947(6) 0.5822(5) 1.4591(5)
H14 H -0.1607 0.6388 1.4313
C15 C -0.0905(6) 0.5948(5) 1.5840(5)
C16 C -0.1824(6) 0.7083(5) 1.6633(5)
C17 C 0.1700(6) 0.7542(5) 0.9567(5)
C18 C 0.0753(6) 0.8793(5) 0.9856(5)
C19 C 0.0713(6) 0.9591(5) 1.0886(5)
C20 C -0.0036(6) 1.0791(5) 1.1005(5)
H15 H -0.0057 1.1343 1.1696
C21 C 0.1378(6) 0.9134(5) 1.1890(5)
O1A O -0.3152(4) 1.2368(4) 1.0919(4)
O2A O -0.1949(5) 1.0075(4) 0.7592(4)
O3A O -0.1329(5) 1.2056(4) 0.7822(4)
O4A O -0.0938(4) 1.3484(3) 1.0236(3)
C17A C -0.1700(6) 1.2458(5) 1.0433(5)
C18A C -0.0753(6) 1.1207(5) 1.0144(5)
C19A C -0.0713(6) 1.0409(5) 0.9114(5)
C20A C 0.0036(6) 0.9209(5) 0.8995(5)
H15A H 0.0057 0.8657 0.8304
C21A C -0.1378(6) 1.0866(5) 0.8110(5)
O5A O 0.1323(4) 0.4838(3) 1.7763(3)
O6A O -0.1232(4) 0.5490(3) 1.8590(3)
O7A O 0.0888(5) 0.2104(4) 1.3197(4)
H1A H 0.145(8) 0.154(7) 1.277(7)
O8A O 0.3222(4) 0.2782(4) 1.3006(4)
C12A C 0.0047(6) 0.5156(5) 1.7665(5)
C13A C 0.0041(6) 0.5118(5) 1.6269(5)
C14A C 0.0947(6) 0.4178(5) 1.5409(5)
H14A H 0.1607 0.3612 1.5687
C15A C 0.0905(6) 0.4052(5) 1.4160(5)
C16A C 0.1824(6) 0.2917(5) 1.3367(5)
Cu1A Cu -0.16973(8) 0.52703(6) 1.05590(6)
O9A O -0.2462(5) 0.9090(4) 1.4066(4)
O10A O -0.4439(6) 0.4688(4) 1.1044(5)
H2A H -0.542(3) 0.456(7) 1.138(7)
H3A H -0.399(7) 0.395(3) 1.096(8)
N1A N -0.2644(5) 0.7041(4) 1.0942(4)
N2A N -0.3578(6) 1.0894(4) 1.3487(5)
H4A H -0.387(7) 1.119(6) 1.281(5)
N3A N -0.2671(5) 1.2364(4) 1.6125(4)
H5A H -0.221(6) 1.211(5) 1.671(5)
C1A C -0.3609(6) 0.7450(5) 1.0355(5)
H6A H -0.3688 0.6948 0.9667
C2A C -0.4502(6) 0.8576(6) 1.0708(6)
H7A H -0.5205 0.8830 1.0287
C3A C -0.4364(6) 0.9326(5) 1.1674(5)
H8A H -0.4976 1.0102 1.1934
C4A C -0.3332(6) 0.8945(5) 1.2261(5)
C5A C -0.2503(6) 0.7787(5) 1.1871(5)
H9A H -0.1798 0.7510 1.2283
C6A C -0.3635(7) 1.3391(5) 1.6386(5)
H10A H -0.3637 1.3977 1.7043
C7A C -0.4615(7) 1.3619(6) 1.5737(6)
H11A H -0.5338 1.4335 1.5964
C8A C -0.4554(6) 1.2808(6) 1.4751(5)
H12A H -0.5194 1.2981 1.4251
C9A C -0.3547(6) 1.1724(5) 1.4480(5)
C10A C -0.2603(6) 1.1507(5) 1.5205(5)
H13A H -0.1923 1.0765 1.5053
C11A C -0.3062(6) 0.9643(5) 1.3359(5)
Cu1_2 Cu 0.16973(8) 0.47297(6) 1.94410(6)
Cu1_3 Cu 0.16973(8) 1.47297(6) 0.94410(6)
Cu1A_2 Cu -0.16973(8) 0.52703(6) 2.05590(6)
Cu1A_3 Cu -0.16973(8) 1.52703(6) 1.05590(6)
O4A_2 O -0.0938(4) 0.3484(3) 1.0236(3)
O5A_2 O 0.1323(4) 0.4838(3) 0.7763(3)
O6A_2 O -0.1232(4) 0.5490(3) 0.8590(3)
loop_
_geom_bond_atom_site_label_1
_geom_bond_atom_site_label_2
_geom_bond_site_symmetry_1
_geom_bond_site_symmetry_2
Cu1 O4 1_555 1_555
O1 C17 1_555 1_555
O2 C21 1_555 1_555
O3 C21 1_555 1_555
O4 C17 1_555 1_555
O5 C12 1_555 1_555
O6 Cu1 1_555 1_555
O7 H1 1_555 1_555
O8 C16 1_555 1_555
O9 C11 1_555 1_555
O10 Cu1 1_555 1_555
H2 O10 1_555 1_555
H3 O10 1_555 1_555
N1 Cu1 1_555 1_555
N2 H4 1_555 1_555
N3 H5 1_555 1_555
C1 N1 1_555 1_555
H6 C1 1_555 1_555
C2 C1 1_555 1_555
H7 C2 1_555 1_555
C3 C2 1_555 1_555
H8 C3 1_555 1_555
C4 C3 1_555 1_555
C5 N1 1_555 1_555
H9 C5 1_555 1_555
C6 N3 1_555 1_555
H10 C6 1_555 1_555
C7 C6 1_555 1_555
H11 C7 1_555 1_555
C8 C7 1_555 1_555
H12 C8 1_555 1_555
C9 N2 1_555 1_555
C10 N3 1_555 1_555
H13 C10 1_555 1_555
C11 N2 1_555 1_555
C12 O6 1_555 1_555
C13 C12 1_555 1_555
C14 C13 1_555 1_555
H14 C14 1_555 1_555
C15 C14 1_555 1_555
C16 O7 1_555 1_555
C17 C18 1_555 1_555
C18 C19 1_555 1_555
C19 C20 1_555 1_555
C20 H15 1_555 1_555
C21 C19 1_555 1_555
O1A C17A 1_555 1_555
O2A C21A 1_555 1_555
O3A C21A 1_555 1_555
O4A C17A 1_555 1_555
C17A C18A 1_555 1_555
C18A C20 1_555 1_555
C19A C18A 1_555 1_555
C20A C18 1_555 1_555
H15A C20A 1_555 1_555
C21A C19A 1_555 1_555
O5A C12A 1_555 1_555
O6A C12A 1_555 1_555
O7A H1A 1_555 1_555
O8A C16A 1_555 1_555
C12A C13A 1_555 1_555
C13A C15 1_555 1_555
C14A C13A 1_555 1_555
H14A C14A 1_555 1_555
C15A C13 1_555 1_555
C16A O7A 1_555 1_555
Cu1A O4 1_555 1_555
O9A C11A 1_555 1_555
O10A Cu1A 1_555 1_555
H2A O10A 1_555 1_555
H3A O10A 1_555 1_555
N1A Cu1A 1_555 1_555
N2A H4A 1_555 1_555
N3A H5A 1_555 1_555
C1A N1A 1_555 1_555
H6A C1A 1_555 1_555
C2A C1A 1_555 1_555
H7A C2A 1_555 1_555
C3A C2A 1_555 1_555
H8A C3A 1_555 1_555
C4A C3A 1_555 1_555
C5A N1A 1_555 1_555
H9A C5A 1_555 1_555
C6A N3A 1_555 1_555
H10A C6A 1_555 1_555
C7A C6A 1_555 1_555
H11A C7A 1_555 1_555
C8A C7A 1_555 1_555
H12A C8A 1_555 1_555
C9A N2A 1_555 1_555
C10A N3A 1_555 1_555
H13A C10A 1_555 1_555
C11A N2A 1_555 1_555
Cu1_2 O5A 1_555 1_555
Cu1_3 O4A 1_555 1_555
Cu1A_2 O6A 1_555 1_555
Cu1A_3 O4A 1_555 1_555
O4A_2 Cu1 1_555 1_555
O5A_2 Cu1 1_555 1_555
O6A_2 Cu1A 1_555 1_555
O5 Cu1A 1_555 1_555
C4 C5 1_555 1_555
C4 C11 1_555 1_555
C8 C9 1_555 1_555
C9 C10 1_555 1_555
C15 C16 1_555 1_555
C19A C20A 1_555 1_555
C14A C15A 1_555 1_555
C15A C16A 1_555 1_555
Cu1A O4A_2 1_555 1_555
C4A C5A 1_555 1_555
C4A C11A 1_555 1_555
C8A C9A 1_555 1_555
C9A C10A 1_555 1_555

#END
