
#######################################################################
#
#                 Cambridge Crystallographic Data Centre
#                                CCDC 
#
#######################################################################
#
# If this CIF has been generated from an entry in the Cambridge 
# Structural Database, then it will include bibliographic, chemical, 
# crystal, experimental, refinement or atomic coordinate data resulting 
# from the CCDC's data processing and validation procedures.
#
#######################################################################

data_GOBVAW
_symmetry_cell_setting           triclinic
_symmetry_space_group_name_H-M   'P -1'
_symmetry_Int_Tables_number      2
_space_group_name_Hall           '-P 1'
loop_
_symmetry_equiv_pos_site_id
_symmetry_equiv_pos_as_xyz
1 x,y,z
2 -x,-y,-z
_cell_length_a                   9.577(3)
_cell_length_b                   11.056(4)
_cell_length_c                   13.503(4)
_cell_angle_alpha                89.746(7)
_cell_angle_beta                 71.758(9)
_cell_angle_gamma                79.353(6)
_cell_volume                     1332.32
loop_
_atom_site_label
_atom_site_type_symbol
_atom_site_fract_x
_atom_site_fract_y
_atom_site_fract_z
Cu1 Cu 0.27782(4) 0.26045(3) 0.19014(3)
O1 O 0.9333(2) -0.0784(2) 0.14348(18)
O2 O 0.1281(3) 0.3565(2) 0.30726(17)
O3 O -0.0889(3) 0.4659(2) 0.39799(17)
O4 O -0.4097(2) 0.7467(2) 0.18044(18)
O5 O 0.0420(2) 0.7514(2) -0.09439(17)
H1 H 0.0254 0.7771 -0.1491
O6 O 0.3537(2) 0.41013(19) 0.14715(18)
O7 O 0.2105(2) 0.1146(2) 0.25639(17)
O8 O 0.3429(2) 0.6098(2) 0.12949(19)
O9 O -0.3811(2) 0.5627(2) 0.10002(19)
H2 H -0.4743 0.5826 0.1129
O10 O -0.1994(2) 0.7355(2) -0.04652(17)
O11 O -0.0327(3) 0.1570(2) 0.26671(18)
O12 O 0.3063(2) -0.1522(2) 0.28354(17)
H3 H 0.3956 -0.1862 0.2527
O13 O 0.4101(2) -0.0526(2) 0.37758(18)
N1 N 0.4809(3) 0.1602(2) 0.1201(2)
N2 N 0.7259(3) -0.0825(2) 0.2828(2)
H4 H 0.6286 -0.0549 0.3071
N3 N 0.8977(4) -0.2920(3) 0.4855(2)
H5 H 0.9327 -0.3340 0.5310
C1 C 0.5588(3) 0.0905(3) 0.1751(2)
H6 H 0.5128 0.0855 0.2480
C2 C 0.7038(3) 0.0263(3) 0.1282(2)
C3 C 0.7708(4) 0.0351(3) 0.0220(3)
H7 H 0.8708 -0.0063 -0.0118
C4 C 0.6902(4) 0.1049(3) -0.0341(3)
H8 H 0.7330 0.1106 -0.1072
C5 C 0.5470(4) 0.1659(3) 0.0177(3)
H9 H 0.4924 0.2145 -0.0212
C6 C 0.7996(4) -0.0490(3) 0.1849(2)
C7 C 0.7898(4) -0.1557(3) 0.3469(2)
C8 C 0.9436(4) -0.1981(3) 0.3251(3)
H10 H 1.0124 -0.1802 0.2616
C9 C 0.9938(4) -0.2660(3) 0.3967(3)
H11 H 1.0983 -0.2948 0.3828
C10 C 0.7492(5) -0.2562(4) 0.5076(3)
H12 H 0.6832 -0.2784 0.5707
C11 C 0.6926(4) -0.1878(3) 0.4396(3)
H13 H 0.5874 -0.1621 0.4553
C12 C 0.0125(4) 0.4388(3) 0.3151(2)
C13 C 0.0002(3) 0.5070(3) 0.2200(2)
C14 C 0.1208(3) 0.5427(3) 0.1434(2)
C15 C 0.0911(3) 0.6149(3) 0.0647(2)
H14 H 0.1714 0.6422 0.0144
C16 C -0.0520(3) 0.6478(3) 0.0578(2)
C17 C -0.1719(3) 0.6125(3) 0.1343(2)
C18 C -0.1445(3) 0.5441(3) 0.2143(2)
H15 H -0.2263 0.5216 0.2669
C19 C -0.0776(3) 0.7168(3) -0.0325(2)
C20 C -0.3340(3) 0.6480(3) 0.1385(2)
C21 C 0.0731(4) 0.1107(3) 0.2991(2)
C22 C 0.0358(3) 0.0482(3) 0.4010(2)
C23 C -0.1085(3) 0.0771(3) 0.4707(2)
H16 H -0.1839 0.1296 0.4504
C24 C 0.1452(3) -0.0313(3) 0.4309(2)
C25 C 0.3017(4) -0.0766(3) 0.3598(2)
C26 C 0.2818(3) 0.5178(3) 0.1414(2)
O7A O -0.2105(2) -0.1146(2) 0.74361(17)
O11A O 0.0327(3) -0.1570(2) 0.73329(18)
O12A O -0.3063(2) 0.1522(2) 0.71646(17)
H3A H -0.3956 0.1862 0.7473
O13A O -0.4101(2) 0.0526(2) 0.62242(18)
C21A C -0.0731(4) -0.1107(3) 0.7009(2)
C22A C -0.0358(3) -0.0482(3) 0.5990(2)
C23A C 0.1085(3) -0.0771(3) 0.5293(2)
H16A H 0.1839 -0.1296 0.5496
C24A C -0.1452(3) 0.0313(3) 0.5691(2)
C25A C -0.3017(4) 0.0766(3) 0.6402(2)
Cu1A Cu -0.27782(4) -0.26045(3) 0.80986(3)
O1A O -0.9333(2) 0.0784(2) 0.85652(18)
O2A O -0.1281(3) -0.3565(2) 0.69274(17)
O3A O 0.0889(3) -0.4659(2) 0.60201(17)
O4A O 0.4097(2) -0.7467(2) 0.81956(18)
O5A O -0.0420(2) -0.7514(2) 1.09439(17)
H1A H -0.0254 -0.7771 1.1491
O6A O -0.3537(2) -0.41013(19) 0.85285(18)
O8A O -0.3429(2) -0.6098(2) 0.87051(19)
O9A O 0.3811(2) -0.5627(2) 0.89998(19)
H2A H 0.4743 -0.5826 0.8871
O10A O 0.1994(2) -0.7355(2) 1.04652(17)
N1A N -0.4809(3) -0.1602(2) 0.8799(2)
N2A N -0.7259(3) 0.0825(2) 0.7172(2)
H4A H -0.6286 0.0549 0.6929
N3A N -0.8977(4) 0.2920(3) 0.5145(2)
H5A H -0.9327 0.3340 0.4690
C1A C -0.5588(3) -0.0905(3) 0.8249(2)
H6A H -0.5128 -0.0855 0.7520
C2A C -0.7038(3) -0.0263(3) 0.8718(2)
C3A C -0.7708(4) -0.0351(3) 0.9780(3)
H7A H -0.8708 0.0063 1.0118
C4A C -0.6902(4) -0.1049(3) 1.0341(3)
H8A H -0.7330 -0.1106 1.1072
C5A C -0.5470(4) -0.1659(3) 0.9823(3)
H9A H -0.4924 -0.2145 1.0212
C6A C -0.7996(4) 0.0490(3) 0.8151(2)
C7A C -0.7898(4) 0.1557(3) 0.6531(2)
C8A C -0.9436(4) 0.1981(3) 0.6749(3)
H10A H -1.0124 0.1802 0.7384
C9A C -0.9938(4) 0.2660(3) 0.6033(3)
H11A H -1.0983 0.2948 0.6172
C10A C -0.7492(5) 0.2562(4) 0.4924(3)
H12A H -0.6832 0.2784 0.4293
C11A C -0.6926(4) 0.1878(3) 0.5604(3)
H13A H -0.5874 0.1621 0.5447
C12A C -0.0125(4) -0.4388(3) 0.6849(2)
C13A C -0.0002(3) -0.5070(3) 0.7800(2)
C14A C -0.1208(3) -0.5427(3) 0.8566(2)
C15A C -0.0911(3) -0.6149(3) 0.9353(2)
H14A H -0.1714 -0.6422 0.9856
C16A C 0.0520(3) -0.6478(3) 0.9422(2)
C17A C 0.1719(3) -0.6125(3) 0.8657(2)
C18A C 0.1445(3) -0.5441(3) 0.7857(2)
H15A H 0.2263 -0.5216 0.7331
C19A C 0.0776(3) -0.7168(3) 1.0325(2)
C20A C 0.3340(3) -0.6480(3) 0.8615(2)
C26A C -0.2818(3) -0.5178(3) 0.8586(2)
Cu1_2 Cu 0.27782(4) -0.73955(3) 1.19014(3)
Cu1A_2 Cu -0.27782(4) 0.73955(3) -0.19014(3)
O10_2 O -0.1994(2) -0.2645(2) 0.95348(17)
O10A_2 O 0.1994(2) 0.2645(2) 0.04652(17)
O14 O 0.4885(4) 0.4382(4) 0.3159(3)
H17 H 0.437(6) 0.504(4) 0.357(4)
H18 H 0.475(7) 0.435(5) 0.256(2)
O15 O -0.3193(4) 0.3756(3) 0.5404(2)
H19 H -0.2517 0.4190 0.5112
H20 H -0.3575 0.3536 0.4944
O16 O -0.3642(4) 0.2401(3) 0.3758(3)
H21 H -0.272(3) 0.215(5) 0.326(3)
H22 H -0.413(5) 0.306(4) 0.349(4)
loop_
_geom_bond_atom_site_label_1
_geom_bond_atom_site_label_2
_geom_bond_site_symmetry_1
_geom_bond_site_symmetry_2
Cu1 O2 1_555 1_555
O1 C6 1_555 1_555
O2 C12 1_555 1_555
O3 C12 1_555 1_555
O4 C20 1_555 1_555
O5 H1 1_555 1_555
O6 Cu1 1_555 1_555
O7 Cu1 1_555 1_555
O8 C26 1_555 1_555
O9 H2 1_555 1_555
O10 C19 1_555 1_555
O11 C21 1_555 1_555
O12 H3 1_555 1_555
O13 C25 1_555 1_555
N1 Cu1 1_555 1_555
N2 H4 1_555 1_555
N3 H5 1_555 1_555
C1 N1 1_555 1_555
H6 C1 1_555 1_555
C2 C1 1_555 1_555
C3 C2 1_555 1_555
H7 C3 1_555 1_555
C4 C3 1_555 1_555
H8 C4 1_555 1_555
C5 N1 1_555 1_555
H9 C5 1_555 1_555
C6 N2 1_555 1_555
C7 N2 1_555 1_555
C8 C7 1_555 1_555
H10 C8 1_555 1_555
C9 N3 1_555 1_555
H11 C9 1_555 1_555
C10 N3 1_555 1_555
H12 C10 1_555 1_555
C11 C7 1_555 1_555
H13 C11 1_555 1_555
C12 C13 1_555 1_555
C13 C14 1_555 1_555
C14 C15 1_555 1_555
C15 H14 1_555 1_555
C16 C15 1_555 1_555
C17 C16 1_555 1_555
C18 C13 1_555 1_555
H15 C18 1_555 1_555
C19 O5 1_555 1_555
C20 O9 1_555 1_555
C21 O7 1_555 1_555
C22 C21 1_555 1_555
C23 C22 1_555 1_555
H16 C23 1_555 1_555
C24 C22 1_555 1_555
C25 O12 1_555 1_555
C26 O6 1_555 1_555
O14 H17 1_555 1_555
H18 O14 1_555 1_555
O15 H19 1_555 1_555
H20 O15 1_555 1_555
O16 H21 1_555 1_555
H22 O16 1_555 1_555
O7A C21A 1_555 1_555
O11A C21A 1_555 1_555
O12A H3A 1_555 1_555
O13A C25A 1_555 1_555
C21A C22A 1_555 1_555
C22A C23A 1_555 1_555
C23A C24 1_555 1_555
H16A C23A 1_555 1_555
C24A C23 1_555 1_555
C25A O12A 1_555 1_555
Cu1A O7A 1_555 1_555
O1A C6A 1_555 1_555
O2A Cu1A 1_555 1_555
O3A C12A 1_555 1_555
O4A C20A 1_555 1_555
O5A H1A 1_555 1_555
O6A Cu1A 1_555 1_555
O8A C26A 1_555 1_555
O9A H2A 1_555 1_555
O10A C19A 1_555 1_555
N1A Cu1A 1_555 1_555
N2A H4A 1_555 1_555
N3A H5A 1_555 1_555
C1A N1A 1_555 1_555
H6A C1A 1_555 1_555
C2A C1A 1_555 1_555
C3A C2A 1_555 1_555
H7A C3A 1_555 1_555
C4A C3A 1_555 1_555
H8A C4A 1_555 1_555
C5A N1A 1_555 1_555
H9A C5A 1_555 1_555
C6A N2A 1_555 1_555
C7A N2A 1_555 1_555
C8A C7A 1_555 1_555
H10A C8A 1_555 1_555
C9A N3A 1_555 1_555
H11A C9A 1_555 1_555
C10A N3A 1_555 1_555
H12A C10A 1_555 1_555
C11A C7A 1_555 1_555
H13A C11A 1_555 1_555
C12A O2A 1_555 1_555
C13A C12A 1_555 1_555
C14A C13A 1_555 1_555
C15A C14A 1_555 1_555
H14A C15A 1_555 1_555
C16A C15A 1_555 1_555
C17A C16A 1_555 1_555
C18A C13A 1_555 1_555
H15A C18A 1_555 1_555
C19A O5A 1_555 1_555
C20A O9A 1_555 1_555
C26A O6A 1_555 1_555
Cu1_2 O10A 1_555 1_555
Cu1A_2 O10 1_555 1_555
O10_2 Cu1A 1_555 1_555
O10A_2 Cu1 1_555 1_555
C2 C6 1_555 1_555
C4 C5 1_555 1_555
C8 C9 1_555 1_555
C10 C11 1_555 1_555
C14 C26 1_555 1_555
C16 C19 1_555 1_555
C17 C18 1_555 1_555
C17 C20 1_555 1_555
C24 C25 1_555 1_555
C22A C24A 1_555 1_555
C24A C25A 1_555 1_555
C2A C6A 1_555 1_555
C4A C5A 1_555 1_555
C8A C9A 1_555 1_555
C10A C11A 1_555 1_555
C14A C26A 1_555 1_555
C16A C19A 1_555 1_555
C17A C18A 1_555 1_555
C17A C20A 1_555 1_555

#END
