
#######################################################################
#
#                 Cambridge Crystallographic Data Centre
#                                CCDC 
#
#######################################################################
#
# If this CIF has been generated from an entry in the Cambridge 
# Structural Database, then it will include bibliographic, chemical, 
# crystal, experimental, refinement or atomic coordinate data resulting 
# from the CCDC's data processing and validation procedures.
#
#######################################################################

data_GOBWUQ
_symmetry_cell_setting           monoclinic
_symmetry_space_group_name_H-M   'P 21/c'
_symmetry_Int_Tables_number      14
_space_group_name_Hall           '-P 2ybc'
loop_
_symmetry_equiv_pos_site_id
_symmetry_equiv_pos_as_xyz
1 x,y,z
2 -x,1/2+y,1/2-z
3 -x,-y,-z
4 x,1/2-y,1/2+z
_cell_length_a                   12.204(5)
_cell_length_b                   7.093(5)
_cell_length_c                   14.846(4)
_cell_angle_alpha                90
_cell_angle_beta                 121.96(2)
_cell_angle_gamma                90
_cell_volume                     1090.31
loop_
_atom_site_label
_atom_site_type_symbol
_atom_site_fract_x
_atom_site_fract_y
_atom_site_fract_z
Mn1 Mn 0.26749(3) -0.52452(4) -0.68709(3)
O1 O 0.25634(16) -0.4781(2) -0.83800(16)
O2 O -0.31337(15) 0.0118(2) -0.97559(15)
O3 O -0.27966(15) -0.0328(3) -1.10744(15)
C1 C -0.11724(16) -0.1280(3) -0.93477(16)
C2 C 0.16645(17) -0.3859(3) -0.91272(17)
N1 N -0.08785(15) -0.1356(2) -0.83467(14)
O4 O 0.14452(15) -0.3662(2) -1.00306(14)
C3 C 0.07365(16) -0.2916(2) -0.88733(16)
C4 C -0.03654(17) -0.2005(3) -0.96504(16)
H1 H -0.0553 -0.1888 -1.0342
C5 C -0.24741(18) -0.0423(3) -1.01385(18)
N2 N 0.10197(15) -0.3056(2) -0.78757(14)
C6 C 0.02125(18) -0.2229(3) -0.76500(17)
H2 H 0.0430 -0.2265 -0.6948
O5 O 0.40658(19) -0.2728(2) -0.62514(17)
H3 H 0.4394 -0.2117 -0.6537
H4 H 0.4155 -0.2287 -0.5721
O6 O 0.45323(13) -0.6706(2) -0.61890(16)
H5 H 0.5182 -0.6060 -0.6066
H6 H 0.4272 -0.7729 -0.6547
O7 O 0.20107(14) -0.8169(2) -0.76202(14)
H7 H 0.2196 -0.8795 -0.7076
H8 H 0.2374 -0.8806 -0.7775
Mn1A Mn -0.26749(3) -0.02452(4) -0.81291(3)
O2A O 0.31337(15) -0.4882(2) -0.52441(15)
N1A N 0.08785(15) -0.6356(2) -0.66533(14)
O8 O 0.3006(2) -0.5151(3) -1.0640(2)
H9 H 0.2634 -0.4657 -1.0393
H10 H 0.3122 -0.6112 -1.0230
O9 O -0.49726(15) -0.0013(2) -1.30230(16)
H11 H -0.4415 -0.0377 -1.2449
H12 H -0.5569 0.0000 -1.3003
loop_
_geom_bond_atom_site_label_1
_geom_bond_atom_site_label_2
_geom_bond_site_symmetry_1
_geom_bond_site_symmetry_2
Mn1 O1 1_555 1_555
O1 C2 1_555 1_555
O2 C5 1_555 1_555
O3 C5 1_555 1_555
C1 N1 1_555 1_555
C2 O4 1_555 1_555
N1 C6 1_555 1_555
C3 C2 1_555 1_555
C4 C1 1_555 1_555
H1 C4 1_555 1_555
C5 C1 1_555 1_555
N2 Mn1 1_555 1_555
C6 N2 1_555 1_555
H2 C6 1_555 1_555
O5 Mn1 1_555 1_555
H3 O5 1_555 1_555
H4 O5 1_555 1_555
O6 Mn1 1_555 1_555
H5 O6 1_555 1_555
H6 O6 1_555 1_555
O7 Mn1 1_555 1_555
H7 O7 1_555 1_555
H8 O7 1_555 1_555
O8 H9 1_555 1_555
H10 O8 1_555 1_555
O9 H11 1_555 1_555
H12 O9 1_555 1_555
Mn1A O2 1_555 1_555
O2A Mn1 1_555 1_555
N1A Mn1 1_555 1_555
N1 Mn1A 1_555 1_555
C3 C4 1_555 1_555
C3 N2 1_555 1_555

#END
