
#######################################################################
#
#                 Cambridge Crystallographic Data Centre
#                                CCDC 
#
#######################################################################
#
# If this CIF has been generated from an entry in the Cambridge 
# Structural Database, then it will include bibliographic, chemical, 
# crystal, experimental, refinement or atomic coordinate data resulting 
# from the CCDC's data processing and validation procedures.
#
#######################################################################

data_GOBWEA
_symmetry_cell_setting           monoclinic
_symmetry_space_group_name_H-M   'P 21/c'
_symmetry_Int_Tables_number      14
_space_group_name_Hall           '-P 2ybc'
loop_
_symmetry_equiv_pos_site_id
_symmetry_equiv_pos_as_xyz
1 x,y,z
2 -x,1/2+y,1/2-z
3 -x,-y,-z
4 x,1/2-y,1/2+z
_cell_length_a                   7.6358(5)
_cell_length_b                   19.3001(12)
_cell_length_c                   11.2452(7)
_cell_angle_alpha                90
_cell_angle_beta                 100.5860(10)
_cell_angle_gamma                90
_cell_volume                     1629.02
loop_
_atom_site_label
_atom_site_type_symbol
_atom_site_fract_x
_atom_site_fract_y
_atom_site_fract_z
U1 U 0.45709(3) 0.500626(10) 0.259572(18)
U2 U 0.72343(3) 0.730920(10) -0.131870(18)
Cu1 Cu 1.21580(11) 0.72797(4) 0.85018(7)
P1 P 0.6945(2) 0.64041(7) 0.13940(13)
P2 P 0.6889(2) 0.59983(7) 0.50825(13)
O1 O 0.6293(6) 0.6909(2) 0.0368(4)
O2 O 0.8005(6) 0.6753(2) 0.2511(4)
O3 O 0.5359(6) 0.5999(2) 0.1663(4)
O4 O 0.7229(7) 0.4945(2) -0.0543(4)
O5 O 0.7351(6) 0.5985(2) -0.1284(4)
O6 O 0.6323(6) 0.6710(2) 0.4563(4)
O7 O 0.6681(6) 0.5445(2) 0.4104(4)
O8 O 0.5841(6) 0.5824(2) 0.6065(4)
O9 O 1.1374(7) 0.6721(3) 0.7042(4)
O10 O 0.8523(6) 0.6853(2) 0.7116(4)
O11 O 0.2803(7) 0.5482(2) 0.3046(4)
O12 O 0.6303(6) 0.4550(2) 0.2077(4)
O13 O 0.9432(6) 0.7374(2) -0.0455(4)
O14 O 0.5031(6) 0.7248(2) -0.2161(4)
O15 O 1.3066(7) 0.7849(3) 0.9950(4)
O16 O 1.1532(7) 0.8127(2) 0.7570(5)
O17 O 1.2542(7) 0.6427(2) 0.9441(4)
C1 C 0.8503(9) 0.5833(3) 0.0846(5)
H1 H 0.9592 0.6083 0.0801
H2 H 0.8799 0.5448 0.1399
C2 C 0.7683(9) 0.5569(3) -0.0383(5)
C3 C 0.9250(9) 0.6037(3) 0.5704(5)
H3 H 0.9894 0.6136 0.5057
H4 H 0.9638 0.5588 0.6038
C4 C 0.9719(9) 0.6582(3) 0.6684(5)
U1B U 0.54291(3) 0.499374(10) -0.259572(18)
U1B_2 U 0.54291(3) 0.499374(10) 0.740428(18)
U2C U 0.72343(3) 0.769080(10) 0.368130(18)
U2_2 U 0.72343(3) 0.730920(10) 0.868130(18)
O2C O 0.8005(6) 0.8247(2) -0.2489(4)
O4B O 0.2771(7) 0.5055(2) 0.0543(4)
O5B O 0.2649(6) 0.4015(2) 0.1284(4)
O6C O 0.6323(6) 0.8290(2) -0.0437(4)
O8B O 0.4159(6) 0.4176(2) 0.3935(4)
O10_2 O 0.8523(6) 0.6853(2) -0.2884(4)
loop_
_geom_bond_atom_site_label_1
_geom_bond_atom_site_label_2
_geom_bond_site_symmetry_1
_geom_bond_site_symmetry_2
U1 O3 1_555 1_555
U2 O1 1_555 1_555
Cu1 O9 1_555 1_555
P1 O1 1_555 1_555
P2 O6 1_555 1_555
O2 P1 1_555 1_555
O3 P1 1_555 1_555
O4 C2 1_555 1_555
O5 U2 1_555 1_555
O6 U2C 1_555 1_555
O7 U1 1_555 1_555
O8 P2 1_555 1_555
O9 C4 1_555 1_555
O10 C4 1_555 1_555
O11 U1 1_555 1_555
O12 U1 1_555 1_555
O13 U2 1_555 1_555
O14 U2 1_555 1_555
O15 Cu1 1_555 1_555
O16 Cu1 1_555 1_555
O17 Cu1 1_555 1_555
C1 P1 1_555 1_555
H1 C1 1_555 1_555
H2 C1 1_555 1_555
C2 O5 1_555 1_555
C3 P2 1_555 1_555
H3 C3 1_555 1_555
H4 C3 1_555 1_555
C4 C3 1_555 1_555
U1B O4 1_555 1_555
U1B_2 O8 1_555 1_555
U2C O2 1_555 1_555
U2_2 O10 1_555 1_555
O2C U2 1_555 1_555
O4B U1 1_555 1_555
O5B U1 1_555 1_555
O6C U2 1_555 1_555
O8B U1 1_555 1_555
O10_2 U2 1_555 1_555
P2 O7 1_555 1_555
O5 U1B 1_555 1_555
C1 C2 1_555 1_555

#END
