
#######################################################################
#
#                 Cambridge Crystallographic Data Centre
#                                CCDC 
#
#######################################################################
#
# If this CIF has been generated from an entry in the Cambridge 
# Structural Database, then it will include bibliographic, chemical, 
# crystal, experimental, refinement or atomic coordinate data resulting 
# from the CCDC's data processing and validation procedures.
#
#######################################################################

data_GOBYON
_symmetry_cell_setting           triclinic
_symmetry_space_group_name_H-M   'P -1'
_symmetry_Int_Tables_number      2
_space_group_name_Hall           '-P 1'
loop_
_symmetry_equiv_pos_site_id
_symmetry_equiv_pos_as_xyz
1 x,y,z
2 -x,-y,-z
_cell_length_a                   7.6415(16)
_cell_length_b                   9.3840(13)
_cell_length_c                   12.5384(16)
_cell_angle_alpha                75.217(2)
_cell_angle_beta                 83.718(2)
_cell_angle_gamma                71.197(2)
_cell_volume                     822.583
loop_
_atom_site_label
_atom_site_type_symbol
_atom_site_fract_x
_atom_site_fract_y
_atom_site_fract_z
V1 V 0.96036(3) 0.70469(3) 0.72450(2)
Cu1 Cu 0.40258(2) 0.43901(2) 0.83360(2)
P1 P 0.64961(5) 0.60682(4) 0.90085(3)
F1 F 0.86966(14) 0.90559(11) 0.65913(9)
O1 O 0.61709(14) 0.50577(13) 0.83275(9)
O2 O 0.68589(14) 0.52878(12) 1.02110(9)
O3 O 0.81899(15) 0.66347(13) 0.85089(9)
O4 O 0.95035(16) 0.59950(14) 0.64251(10)
O5 O 1.17748(15) 0.66545(13) 0.75398(9)
N1 N 0.50213(18) 0.37215(15) 0.69305(11)
N2 N 0.22957(17) 0.31931(15) 0.82816(11)
C1 C 0.6478(2) 0.39460(18) 0.63057(13)
H1 H 0.7188 0.4484 0.6524
C2 C 0.6996(2) 0.34111(19) 0.53329(13)
H2 H 0.8048 0.3580 0.4906
C3 C 0.5971(2) 0.26395(19) 0.50019(13)
H3 H 0.6297 0.2293 0.4337
C4 C 0.4026(2) 0.29352(17) 0.66170(13)
C5 C 0.4433(2) 0.23667(18) 0.56570(13)
C6 C 0.3293(2) 0.15286(19) 0.54248(14)
H4 H 0.3496 0.1198 0.4754
C7 C 0.1935(2) 0.12010(19) 0.61450(14)
H5 H 0.1225 0.0625 0.5978
C8 C 0.1557(2) 0.17141(18) 0.71571(14)
C9 C 0.2560(2) 0.26287(17) 0.73611(13)
C10 C 0.1067(2) 0.28271(18) 0.90472(13)
H6 H 0.0859 0.3233 0.9687
C11 C 0.0067(2) 0.1857(2) 0.89356(14)
H7 H -0.0755 0.1569 0.9513
C12 C 0.0277(2) 0.13217(19) 0.79915(15)
H8 H -0.0429 0.0695 0.7901
C13 C 0.4530(2) 0.78032(18) 0.88590(13)
H9 H 0.4353 0.8300 0.8064
H10 H 0.3406 0.7514 0.9158
C14 C 0.4751(2) 0.89537(17) 0.94420(13)
C15 C 0.5708(2) 0.99975(18) 0.89290(13)
H11 H 0.6201 1.0004 0.8199
C16 C 0.5943(2) 1.10297(18) 0.94837(13)
H12 H 0.6590 1.1739 0.9122
P1A P 0.35039(5) 1.39318(4) 1.09915(3)
O1A O 0.38291(14) 1.49423(13) 1.16725(9)
O2A O 0.31411(14) 1.47122(12) 0.97890(9)
O3A O 0.18101(15) 1.33653(13) 1.14911(9)
C13A C 0.5470(2) 1.21968(18) 1.11410(13)
H9A H 0.5647 1.1700 1.1936
H10A H 0.6594 1.2486 1.0842
C14A C 0.5249(2) 1.10463(17) 1.05580(13)
C15A C 0.4292(2) 1.00025(18) 1.10710(13)
H11A H 0.3799 0.9996 1.1801
C16A C 0.4057(2) 0.89703(18) 1.05163(13)
H12A H 0.3410 0.8261 1.0878
Cu1A Cu 0.59742(2) 0.56099(2) 1.16640(2)
N1A N 0.49787(18) 0.62785(15) 1.30695(11)
N2A N 0.77043(17) 0.68069(15) 1.17184(11)
C1A C 0.3522(2) 0.60540(18) 1.36943(13)
H1A H 0.2812 0.5516 1.3476
C2A C 0.3004(2) 0.65889(19) 1.46671(13)
H2A H 0.1952 0.6420 1.5094
C3A C 0.4029(2) 0.73605(19) 1.49981(13)
H3A H 0.3703 0.7707 1.5663
C4A C 0.5974(2) 0.70648(17) 1.33830(13)
C5A C 0.5567(2) 0.76333(18) 1.43430(13)
C6A C 0.6707(2) 0.84714(19) 1.45752(14)
H4A H 0.6504 0.8802 1.5246
C7A C 0.8065(2) 0.87990(19) 1.38550(14)
H5A H 0.8775 0.9375 1.4022
C8A C 0.8443(2) 0.82859(18) 1.28429(14)
C9A C 0.7440(2) 0.73713(17) 1.26389(13)
C10A C 0.8933(2) 0.71729(18) 1.09528(13)
H6A H 0.9141 0.6767 1.0313
C11A C 0.9933(2) 0.8143(2) 1.10644(14)
H7A H 1.0755 0.8431 1.0487
C12A C 0.9723(2) 0.86783(19) 1.20085(15)
H8A H 1.0429 0.9305 1.2099
V1_2 V -0.03964(3) 0.70469(3) 0.72450(2)
F1_2 F -0.13034(14) 0.90559(11) 0.65913(9)
O4_2 O -0.04965(16) 0.59950(14) 0.64251(10)
O5_2 O 0.17748(15) 0.66545(13) 0.75398(9)
V1A V 0.03964(3) 1.29531(3) 1.27550(2)
Cu1_2 Cu 0.40258(2) 1.43901(2) 0.83360(2)
Cu1_3 Cu 1.40258(2) 0.43901(2) 0.83360(2)
Cu1A_2 Cu 0.59742(2) 1.56099(2) 1.16640(2)
O1A_2 O 0.38291(14) 0.49423(13) 1.16725(9)
O2A_2 O 0.31411(14) 0.47122(12) 0.97890(9)
O3_2 O -0.18101(15) 0.66347(13) 0.85089(9)
O5A O 0.82252(15) 0.33455(13) 1.24602(9)
loop_
_geom_bond_atom_site_label_1
_geom_bond_atom_site_label_2
_geom_bond_site_symmetry_1
_geom_bond_site_symmetry_2
V1 F1 1_555 1_555
Cu1 O1 1_555 1_555
P1 O1 1_555 1_555
O2 P1 1_555 1_555
O3 V1 1_555 1_555
O4 V1 1_555 1_555
O5 V1 1_555 1_555
N1 Cu1 1_555 1_555
N2 Cu1 1_555 1_555
C1 N1 1_555 1_555
H1 C1 1_555 1_555
C2 C1 1_555 1_555
H2 C2 1_555 1_555
C3 C2 1_555 1_555
H3 C3 1_555 1_555
C4 N1 1_555 1_555
C5 C3 1_555 1_555
C6 C5 1_555 1_555
H4 C6 1_555 1_555
C7 C6 1_555 1_555
H5 C7 1_555 1_555
C8 C7 1_555 1_555
C9 N2 1_555 1_555
C10 N2 1_555 1_555
H6 C10 1_555 1_555
C11 C10 1_555 1_555
H7 C11 1_555 1_555
C12 C8 1_555 1_555
H8 C12 1_555 1_555
C13 P1 1_555 1_555
H9 C13 1_555 1_555
H10 C13 1_555 1_555
C14 C13 1_555 1_555
C15 C14 1_555 1_555
H11 C15 1_555 1_555
C16 C15 1_555 1_555
H12 C16 1_555 1_555
P1A O1A 1_555 1_555
O1A Cu1A_2 1_555 1_555
O2A P1A 1_555 1_555
O3A P1A 1_555 1_555
C13A P1A 1_555 1_555
H9A C13A 1_555 1_555
H10A C13A 1_555 1_555
C14A C16 1_555 1_555
C15A C14A 1_555 1_555
H11A C15A 1_555 1_555
C16A C14 1_555 1_555
H12A C16A 1_555 1_555
Cu1A O2 1_555 1_555
N1A Cu1A 1_555 1_555
N2A Cu1A 1_555 1_555
C1A N1A 1_555 1_555
H1A C1A 1_555 1_555
C2A C1A 1_555 1_555
H2A C2A 1_555 1_555
C3A C2A 1_555 1_555
H3A C3A 1_555 1_555
C4A N1A 1_555 1_555
C5A C3A 1_555 1_555
C6A C5A 1_555 1_555
H4A C6A 1_555 1_555
C7A C6A 1_555 1_555
H5A C7A 1_555 1_555
C8A C7A 1_555 1_555
C9A N2A 1_555 1_555
C10A N2A 1_555 1_555
H6A C10A 1_555 1_555
C11A C10A 1_555 1_555
H7A C11A 1_555 1_555
C12A C8A 1_555 1_555
H8A C12A 1_555 1_555
V1_2 F1_2 1_555 1_555
O4_2 V1_2 1_555 1_555
O5_2 Cu1 1_555 1_555
V1A O3A 1_555 1_555
Cu1_2 O2A 1_555 1_555
Cu1_3 O5 1_555 1_555
O1A_2 Cu1A 1_555 1_555
O2A_2 Cu1 1_555 1_555
O3_2 V1_2 1_555 1_555
O5A Cu1A 1_555 1_555
P1 O3 1_555 1_555
C4 C5 1_555 1_555
C4 C9 1_555 1_555
C8 C9 1_555 1_555
C11 C12 1_555 1_555
C13A C14A 1_555 1_555
C15A C16A 1_555 1_555
C4A C5A 1_555 1_555
C4A C9A 1_555 1_555
C8A C9A 1_555 1_555
C11A C12A 1_555 1_555
V1_2 O5_2 1_555 1_555

#END
