
#######################################################################
#
#                 Cambridge Crystallographic Data Centre
#                                CCDC 
#
#######################################################################
#
# If this CIF has been generated from an entry in the Cambridge 
# Structural Database, then it will include bibliographic, chemical, 
# crystal, experimental, refinement or atomic coordinate data resulting 
# from the CCDC's data processing and validation procedures.
#
#######################################################################

data_GOBYAZ
_symmetry_cell_setting           monoclinic
_symmetry_space_group_name_H-M   'P 21/c'
_symmetry_Int_Tables_number      14
_space_group_name_Hall           '-P 2ybc'
loop_
_symmetry_equiv_pos_site_id
_symmetry_equiv_pos_as_xyz
1 x,y,z
2 -x,1/2+y,1/2-z
3 -x,-y,-z
4 x,1/2-y,1/2+z
_cell_length_a                   7.1667(2)
_cell_length_b                   13.0427(3)
_cell_length_c                   23.3887(6)
_cell_angle_alpha                90
_cell_angle_beta                 95.5430(17)
_cell_angle_gamma                90
_cell_volume                     2175.99
loop_
_atom_site_label
_atom_site_type_symbol
_atom_site_fract_x
_atom_site_fract_y
_atom_site_fract_z
V1 V 0.25196(18) 0.79726(11) 0.68625(6)
Cu1 Cu 0.75221(16) 0.86007(9) 0.65539(5)
P1 P 0.5916(3) 0.89404(15) 0.77339(9)
P2 P 0.0767(3) 1.16895(16) 0.77304(9)
O1 O 0.7086(8) 0.9262(4) 0.7259(2)
O2 O 0.6874(8) 0.8224(4) 0.8174(2)
O3 O 0.3998(8) 0.8478(4) 0.7489(2)
O4 O 0.3774(9) 0.7710(5) 0.6347(3)
H1 H 0.4257 0.8252 0.6234
O5 O 0.0948(7) 0.8804(4) 0.6626(2)
O6 O 0.0721(8) 1.2030(5) 0.7101(2)
O7 O 0.2239(8) 1.2234(4) 0.8120(2)
O8 O -0.1236(8) 1.1811(4) 0.7928(3)
N1 N 0.7552(9) 0.8101(5) 0.5749(3)
N2 N 0.7352(9) 0.9971(5) 0.6151(3)
C1 C 0.7570(11) 0.7129(6) 0.5572(4)
H2 H 0.7567 0.6590 0.5845
C2 C 0.7593(11) 0.6894(7) 0.4986(4)
H3 H 0.7564 0.6198 0.4866
C3 C 0.7659(12) 0.7659(7) 0.4584(4)
H4 H 0.7737 0.7497 0.4192
C4 C 0.7606(11) 0.8683(7) 0.4765(4)
C5 C 0.7536(11) 0.8858(6) 0.5356(3)
C6 C 0.7659(12) 0.9558(7) 0.4394(4)
H5 H 0.7766 0.9457 0.3997
C7 C 0.7560(13) 1.0531(7) 0.4603(4)
H6 H 0.7573 1.1095 0.4346
C8 C 0.7438(11) 0.9881(7) 0.5575(3)
C9 C 0.7435(12) 1.0717(7) 0.5203(4)
C10 C 0.7321(12) 1.1697(7) 0.5456(4)
H7 H 0.7299 1.2295 0.5224
C11 C 0.7242(12) 1.1778(7) 0.6033(4)
H8 H 0.7187 1.2435 0.6206
C12 C 0.7242(12) 1.0890(7) 0.6371(4)
H9 H 0.7159 1.0957 0.6773
C13 C 0.5321(11) 1.0111(6) 0.8088(4)
H10 H 0.6472 1.0408 0.8291
H11 H 0.4813 1.0612 0.7796
C14 C 0.3901(11) 0.9935(6) 0.8512(4)
C15 C 0.4556(11) 0.9651(6) 0.9072(4)
H12 H 0.5867 0.9626 0.9181
C16 C 0.3312(12) 0.9407(6) 0.9473(4)
H13 H 0.3771 0.9222 0.9854
C17 C 0.1390(12) 0.9435(7) 0.9312(4)
H14 H 0.0531 0.9264 0.9582
C18 C 0.0739(11) 0.9713(6) 0.8759(4)
H15 H -0.0575 0.9724 0.8652
C19 C 0.1945(11) 0.9975(6) 0.8356(4)
C20 C 0.1198(11) 1.0327(6) 0.7766(4)
H16 H 0.0014 0.9960 0.7649
H17 H 0.2110 1.0146 0.7490
V1A V -0.25196(18) 1.29726(11) 0.81375(6)
Cu1_2 Cu -0.24779(16) 0.86007(9) 0.65539(5)
Cu1A Cu 0.24779(16) 1.36007(9) 0.84461(5)
O5_2 O 1.0948(7) 0.8804(4) 0.6626(2)
O7A O 0.7761(8) 0.7234(4) 0.6880(2)
O8A O 0.1236(8) 0.6811(4) 0.7072(3)
loop_
_geom_bond_atom_site_label_1
_geom_bond_atom_site_label_2
_geom_bond_site_symmetry_1
_geom_bond_site_symmetry_2
V1 O3 1_555 1_555
Cu1 O1 1_555 1_555
P1 O1 1_555 1_555
P2 O6 1_555 1_555
O2 P1 1_555 1_555
O3 P1 1_555 1_555
O4 V1 1_555 1_555
H1 O4 1_555 1_555
O5 V1 1_555 1_555
O7 P2 1_555 1_555
O8 P2 1_555 1_555
N1 Cu1 1_555 1_555
N2 Cu1 1_555 1_555
C1 N1 1_555 1_555
H2 C1 1_555 1_555
C2 C1 1_555 1_555
H3 C2 1_555 1_555
C3 C2 1_555 1_555
H4 C3 1_555 1_555
C4 C3 1_555 1_555
C5 N1 1_555 1_555
C6 C4 1_555 1_555
H5 C6 1_555 1_555
C7 C6 1_555 1_555
H6 C7 1_555 1_555
C8 N2 1_555 1_555
C9 C7 1_555 1_555
C10 C9 1_555 1_555
H7 C10 1_555 1_555
C11 C10 1_555 1_555
H8 C11 1_555 1_555
C12 N2 1_555 1_555
H9 C12 1_555 1_555
C13 P1 1_555 1_555
H10 C13 1_555 1_555
H11 C13 1_555 1_555
C14 C13 1_555 1_555
C15 C14 1_555 1_555
H12 C15 1_555 1_555
C16 C15 1_555 1_555
H13 C16 1_555 1_555
C17 C16 1_555 1_555
H14 C17 1_555 1_555
C18 C17 1_555 1_555
H15 C18 1_555 1_555
C19 C14 1_555 1_555
C20 P2 1_555 1_555
H16 C20 1_555 1_555
H17 C20 1_555 1_555
V1A O8 1_555 1_555
Cu1_2 O5 1_555 1_555
Cu1A O7 1_555 1_555
O5_2 Cu1 1_555 1_555
O7A Cu1 1_555 1_555
O8A V1 1_555 1_555
C4 C5 1_555 1_555
C5 C8 1_555 1_555
C8 C9 1_555 1_555
C11 C12 1_555 1_555
C18 C19 1_555 1_555
C19 C20 1_555 1_555

#END
