
#######################################################################
#
#                 Cambridge Crystallographic Data Centre
#                                CCDC 
#
#######################################################################
#
# If this CIF has been generated from an entry in the Cambridge 
# Structural Database, then it will include bibliographic, chemical, 
# crystal, experimental, refinement or atomic coordinate data resulting 
# from the CCDC's data processing and validation procedures.
#
#######################################################################

data_GOBYUT
_symmetry_cell_setting           orthorhombic
_symmetry_space_group_name_H-M   'A b a 2'
_symmetry_Int_Tables_number      41
_space_group_name_Hall           'A 2 -2ab'
loop_
_symmetry_equiv_pos_site_id
_symmetry_equiv_pos_as_xyz
1 x,y,z
2 -x,-y,z
3 1/2+x,1/2-y,z
4 1/2-x,1/2+y,z
5 x,1/2+y,1/2+z
6 -x,1/2-y,1/2+z
7 1/2+x,-y,1/2+z
8 1/2-x,y,1/2+z
_cell_length_a                   19.317(2)
_cell_length_b                   21.310(2)
_cell_length_c                   7.6379(8)
_cell_angle_alpha                90
_cell_angle_beta                 90
_cell_angle_gamma                90
_cell_volume                     3144.11
loop_
_atom_site_label
_atom_site_type_symbol
_atom_site_fract_x
_atom_site_fract_y
_atom_site_fract_z
V1 V -0.00765(4) 0.73556(3) 0.78784(10)
Cu1 Cu 0.14393(2) 0.80778(2) 1.00319(9)
P1 P 0.00119(5) 0.86524(5) 0.98858(18)
F1 F 0.08833(13) 0.75819(11) 0.7879(4)
O1 O 0.07922(13) 0.87682(12) 0.9887(5)
O2 O -0.02603(17) 0.84073(15) 1.1662(4)
O3 O -0.02334(17) 0.82327(15) 0.8390(4)
O4 O -0.08594(16) 0.72741(15) 0.6885(4)
O5 O -0.01877(16) 0.70753(14) 0.9826(5)
N1 N 0.22305(19) 0.86071(18) 0.9221(5)
N2 N 0.30921(18) 0.79010(17) 1.0238(7)
H1 H 0.3538(13) 0.787(2) 1.033(7)
N3 N 0.20406(18) 0.73357(16) 1.0200(6)
C1 C 0.2084(3) 0.9171(2) 0.8485(7)
H2 H 0.1613 0.9270 0.8254
C2 C 0.2576(3) 0.9603(2) 0.8060(7)
H3 H 0.2451 0.9994 0.7554
C3 C 0.3266(3) 0.9457(2) 0.8386(7)
H4 H 0.3619 0.9751 0.8102
C4 C 0.3435(2) 0.8894(2) 0.9113(7)
H5 H 0.3905 0.8791 0.9345
C5 C 0.2902(2) 0.8468(2) 0.9514(6)
C6 C 0.2731(2) 0.7345(2) 1.0358(6)
C7 C 0.3110(3) 0.6791(2) 1.0694(7)
H6 H 0.3598 0.6808 1.0855
C8 C 0.2771(3) 0.6235(2) 1.0785(7)
H7 H 0.3019 0.5858 1.0988
C9 C 0.2052(3) 0.6222(2) 1.0577(7)
H8 H 0.1804 0.5837 1.0630
C10 C 0.1715(2) 0.6773(2) 1.0298(7)
H9 H 0.1226 0.6764 1.0164
C11 C -0.0414(2) 0.9393(2) 0.9482(6)
H10 H -0.0919 0.9320 0.9406
H11 H -0.0329 0.9675 1.0489
C12 C -0.0175(2) 0.97166(18) 0.7824(7)
C13 C -0.0322(3) 0.9427(2) 0.6218(7)
H12 H -0.0540 0.9028 0.6213
C14 C -0.0157(2) 0.9709(2) 0.4639(6)
H13 H -0.0260 0.9504 0.3565
P1A P -0.00119(5) 1.13476(5) 0.98858(18)
O1A O -0.07922(13) 1.12318(12) 0.9887(5)
O2A O 0.02603(17) 1.15927(15) 1.1662(4)
O3A O 0.02334(17) 1.17673(15) 0.8390(4)
C11A C 0.0414(2) 1.0607(2) 0.9482(6)
H10A H 0.0919 1.0680 0.9406
H11A H 0.0329 1.0325 1.0489
C12A C 0.0175(2) 1.02834(18) 0.7824(7)
C13A C 0.0322(3) 1.0573(2) 0.6218(7)
H12A H 0.0540 1.0972 0.6213
C14A C 0.0157(2) 1.0291(2) 0.4639(6)
H13A H 0.0260 1.0496 0.3565
V1A V 0.00765(4) 1.26444(3) 0.78784(10)
Cu1A Cu -0.14393(2) 1.19222(2) 1.00319(9)
F1A F -0.08833(13) 1.24181(11) 0.7879(4)
O4A O 0.08594(16) 1.27259(15) 0.6885(4)
O5A O 0.01877(16) 1.29247(14) 0.9826(5)
N1A N -0.22305(19) 1.13929(18) 0.9221(5)
N2A N -0.30921(18) 1.20990(17) 1.0238(7)
H1A H -0.3538(13) 1.213(2) 1.033(7)
N3A N -0.20406(18) 1.26643(16) 1.0200(6)
C1A C -0.2084(3) 1.0829(2) 0.8485(7)
H2A H -0.1613 1.0730 0.8254
C2A C -0.2576(3) 1.0397(2) 0.8060(7)
H3A H -0.2451 1.0006 0.7554
C3A C -0.3266(3) 1.0543(2) 0.8386(7)
H4A H -0.3619 1.0249 0.8102
C4A C -0.3435(2) 1.1106(2) 0.9113(7)
H5A H -0.3905 1.1209 0.9345
C5A C -0.2902(2) 1.1532(2) 0.9514(6)
C6A C -0.2731(2) 1.2655(2) 1.0358(6)
C7A C -0.3110(3) 1.3209(2) 1.0694(7)
H6A H -0.3598 1.3192 1.0855
C8A C -0.2771(3) 1.3765(2) 1.0785(7)
H7A H -0.3019 1.4142 1.0988
C9A C -0.2052(3) 1.3778(2) 1.0577(7)
H8A H -0.1804 1.4163 1.0630
C10A C -0.1715(2) 1.3227(2) 1.0298(7)
H9A H -0.1226 1.3236 1.0164
V1D V -0.00765(4) 1.23556(3) 1.28784(10)
V1E V 0.00765(4) 0.76444(3) 1.28784(10)
Cu1D Cu 0.14393(2) 1.30778(2) 0.50319(9)
Cu1E Cu -0.14393(2) 0.69222(2) 0.50319(9)
O2D O -0.02603(17) 1.34073(15) 0.6662(4)
O2E O 0.02603(17) 0.65927(15) 0.6662(4)
O4D O -0.08594(16) 1.22741(15) 1.1885(4)
O4E O 0.08594(16) 0.77259(15) 1.1885(4)
loop_
_geom_bond_atom_site_label_1
_geom_bond_atom_site_label_2
_geom_bond_site_symmetry_1
_geom_bond_site_symmetry_2
V1 F1 1_555 1_555
Cu1 F1 1_555 1_555
P1 O1 1_555 1_555
O1 Cu1 1_555 1_555
O2 P1 1_555 1_555
O3 V1 1_555 1_555
O4 V1 1_555 1_555
O5 V1 1_555 1_555
N1 Cu1 1_555 1_555
N2 H1 1_555 1_555
N3 Cu1 1_555 1_555
C1 N1 1_555 1_555
H2 C1 1_555 1_555
C2 C1 1_555 1_555
H3 C2 1_555 1_555
C3 C2 1_555 1_555
H4 C3 1_555 1_555
C4 C3 1_555 1_555
H5 C4 1_555 1_555
C5 N1 1_555 1_555
C6 N2 1_555 1_555
C7 C6 1_555 1_555
H6 C7 1_555 1_555
C8 C7 1_555 1_555
H7 C8 1_555 1_555
C9 C8 1_555 1_555
H8 C9 1_555 1_555
C10 N3 1_555 1_555
H9 C10 1_555 1_555
C11 P1 1_555 1_555
H10 C11 1_555 1_555
H11 C11 1_555 1_555
C12 C11 1_555 1_555
C13 C12 1_555 1_555
H12 C13 1_555 1_555
C14 C13 1_555 1_555
H13 C14 1_555 1_555
P1A O1A 1_555 1_555
O1A Cu1A 1_555 1_555
O2A P1A 1_555 1_555
O3A P1A 1_555 1_555
C11A P1A 1_555 1_555
H10A C11A 1_555 1_555
H11A C11A 1_555 1_555
C12A C12 1_555 1_555
C13A C12A 1_555 1_555
H12A C13A 1_555 1_555
C14A C14 1_555 1_555
H13A C14A 1_555 1_555
V1A O3A 1_555 1_555
Cu1A F1A 1_555 1_555
F1A V1A 1_555 1_555
O4A V1A 1_555 1_555
O5A V1A 1_555 1_555
N1A Cu1A 1_555 1_555
N2A H1A 1_555 1_555
N3A Cu1A 1_555 1_555
C1A N1A 1_555 1_555
H2A C1A 1_555 1_555
C2A C1A 1_555 1_555
H3A C2A 1_555 1_555
C3A C2A 1_555 1_555
H4A C3A 1_555 1_555
C4A C3A 1_555 1_555
H5A C4A 1_555 1_555
C5A N1A 1_555 1_555
C6A N2A 1_555 1_555
C7A C6A 1_555 1_555
H6A C7A 1_555 1_555
C8A C7A 1_555 1_555
H7A C8A 1_555 1_555
C9A C8A 1_555 1_555
H8A C9A 1_555 1_555
C10A N3A 1_555 1_555
H9A C10A 1_555 1_555
V1D O2A 1_555 1_555
V1E O2 1_555 1_555
Cu1D O4A 1_555 1_555
Cu1E O4 1_555 1_555
O2D V1A 1_555 1_555
O2E V1 1_555 1_555
O4D Cu1A 1_555 1_555
O4E Cu1 1_555 1_555
P1 O3 1_555 1_555
N2 C5 1_555 1_555
N3 C6 1_555 1_555
C4 C5 1_555 1_555
C9 C10 1_555 1_555
C11A C12A 1_555 1_555
C13A C14A 1_555 1_555
N2A C5A 1_555 1_555
N3A C6A 1_555 1_555
C4A C5A 1_555 1_555
C9A C10A 1_555 1_555
V1D O4D 1_555 1_555
V1E O4E 1_555 1_555

#END
