
#######################################################################
#
#                 Cambridge Crystallographic Data Centre
#                                CCDC 
#
#######################################################################
#
# If this CIF has been generated from an entry in the Cambridge 
# Structural Database, then it will include bibliographic, chemical, 
# crystal, experimental, refinement or atomic coordinate data resulting 
# from the CCDC's data processing and validation procedures.
#
#######################################################################

data_GOBZON
_symmetry_cell_setting           monoclinic
_symmetry_space_group_name_H-M   'C 2/c'
_symmetry_Int_Tables_number      15
_space_group_name_Hall           '-C 2yn'
loop_
_symmetry_equiv_pos_site_id
_symmetry_equiv_pos_as_xyz
1 x,y,z
2 1/2+x,1/2+y,z
3 -x,y,1/2-z
4 1/2-x,1/2+y,1/2-z
5 -x,-y,-z
6 1/2-x,1/2-y,-z
7 x,-y,1/2+z
8 1/2+x,1/2-y,1/2+z
_cell_length_a                   19.353(3)
_cell_length_b                   6.8362(10)
_cell_length_c                   16.400(3)
_cell_angle_alpha                90
_cell_angle_beta                 94.312(3)
_cell_angle_gamma                90
_cell_volume                     2163.59
loop_
_atom_site_label
_atom_site_type_symbol
_atom_site_fract_x
_atom_site_fract_y
_atom_site_fract_z
Ce1 Ce 0.66398(2) 0.93027(7) 0.53689(3)
S1 S 0.71498(11) 1.4283(3) 0.61565(12)
C1 C 0.8485(5) 0.9068(14) 0.5916(5)
C2 C 0.8686(4) 1.0523(12) 0.6587(5)
H1 H 0.8417 1.0259 0.7050
H2 H 0.8569 1.1829 0.6391
C3 C 0.9622(4) 1.2259(14) 0.7366(5)
H3 H 0.9354 1.2289 0.7842
H4 H 0.9510 1.3421 0.7043
C4 C 0.9618(5) 0.8670(15) 0.7340(6)
H5 H 0.9330 0.8579 0.7798
H6 H 0.9525 0.7534 0.6995
C5 C 0.4940(4) 0.9400(12) 0.5377(5)
N1 N 0.9435(3) 1.0467(10) 0.6866(4)
H7 H 0.9683 1.0480 0.6416
O1 O 0.7883(3) 0.8897(9) 0.5677(4)
O2 O 0.8956(3) 0.8051(11) 0.5637(4)
O3 O 0.5458(3) 0.8933(11) 0.5829(4)
O4 O 0.4328(3) 0.8985(10) 0.5489(4)
O5 O 0.6780(3) 1.2822(9) 0.5640(3)
O6 O 0.6742(3) 1.6104(8) 0.6090(3)
O7 O 0.7213(3) 1.3590(9) 0.7006(3)
O8 O 0.7845(3) 1.4613(9) 0.5878(3)
O9 O 0.6723(3) 0.9855(9) 0.6902(3)
H8 H 0.6909 0.9198 0.7382
H9 H 0.6977 1.1049 0.6975
Ce1B Ce 1.33602(2) 0.93027(7) 0.96311(3)
Ce1E Ce 0.83602(2) 0.56973(7) 0.46311(3)
Ce1D Ce 0.33602(2) 1.06973(7) 0.46311(3)
Ce1_2 Ce 0.66398(2) 1.93027(7) 0.53689(3)
Ce1E_2 Ce 0.83602(2) 1.56973(7) 0.46311(3)
Ce1G Ce 1.16398(2) 0.56973(7) 1.03689(3)
Ce1_3 Ce 0.66398(2) -0.06973(7) 0.53689(3)
S1_2 S 0.71498(11) 0.4283(3) 0.61565(12)
C1B C 1.1515(5) 0.9068(14) 0.9084(5)
C2B C 1.1314(4) 1.0523(12) 0.8413(5)
H1B H 1.1583 1.0259 0.7950
H2B H 1.1431 1.1829 0.8609
C3B C 1.0378(4) 1.2259(14) 0.7634(5)
H3B H 1.0646 1.2289 0.7158
H4B H 1.0490 1.3421 0.7957
C4B C 1.0382(5) 0.8670(15) 0.7660(6)
H5B H 1.0670 0.8579 0.7202
H6B H 1.0475 0.7534 0.8005
C5D C 0.5060(4) 1.0600(12) 0.4623(5)
N1B N 1.0565(3) 1.0467(10) 0.8134(4)
H7B H 1.0317 1.0480 0.8584
O1B O 1.2117(3) 0.8897(9) 0.9323(4)
O2B O 1.1044(3) 0.8051(11) 0.9363(4)
O2E O 0.6044(3) 0.6949(11) 0.4363(4)
O2G O 1.3956(3) 0.6949(11) 1.0637(4)
O3D O 0.4542(3) 1.1067(11) 0.4171(4)
O3B O 1.4542(3) 0.8933(11) 0.9171(4)
O4D O 0.5672(3) 1.1015(10) 0.4511(4)
O4F O 1.4328(3) 1.1015(10) 1.0489(4)
O5_2 O 0.6780(3) 0.2822(9) 0.5640(3)
O5B O 1.3220(3) 1.2822(9) 0.9360(3)
O6_2 O 0.6742(3) 0.6104(8) 0.6090(3)
O6B O 1.3258(3) 0.6104(8) 0.8910(3)
O7_2 O 0.7213(3) 0.3590(9) 0.7006(3)
O8_2 O 0.7845(3) 0.4613(9) 0.5878(3)
O8E O 0.7155(3) 1.0387(9) 0.4122(3)
O8G O 1.2845(3) 1.0387(9) 1.0878(3)
O9B O 1.3277(3) 0.9855(9) 0.8098(3)
H8B H 1.3091 0.9198 0.7618
H9B H 1.3023 1.1049 0.8025
O10 O 0.4635(4) 0.5485(12) 0.4251(5)
H10 H 0.4886 0.4306 0.4377
H11 H 0.4345 0.5760 0.4679
loop_
_geom_bond_atom_site_label_1
_geom_bond_atom_site_label_2
_geom_bond_site_symmetry_1
_geom_bond_site_symmetry_2
Ce1 O1 1_555 1_555
S1 O5 1_555 1_555
C1 C2 1_555 1_555
C2 H1 1_555 1_555
H2 C2 1_555 1_555
C3 H3 1_555 1_555
H4 C3 1_555 1_555
C4 H5 1_555 1_555
H6 C4 1_555 1_555
C5 O3 1_555 1_555
N1 C2 1_555 1_555
H7 N1 1_555 1_555
O1 C1 1_555 1_555
O2 C1 1_555 1_555
O3 Ce1 1_555 1_555
O4 C5 1_555 1_555
O5 Ce1 1_555 1_555
O6 S1 1_555 1_555
O7 S1 1_555 1_555
O8 S1 1_555 1_555
O9 Ce1 1_555 1_555
H8 O9 1_555 1_555
H9 O9 1_555 1_555
O10 H10 1_555 1_555
H11 O10 1_555 1_555
Ce1B O1B 1_555 1_555
Ce1E O2 1_555 1_555
Ce1D O4 1_555 1_555
Ce1_2 O6 1_555 1_555
Ce1E_2 O8 1_555 1_555
Ce1G O2B 1_555 1_555
Ce1_3 O5_2 1_555 1_555
S1_2 O5_2 1_555 1_555
C1B C2B 1_555 1_555
C2B H1B 1_555 1_555
H2B C2B 1_555 1_555
C3B C3 1_555 1_555
H3B C3B 1_555 1_555
H4B C3B 1_555 1_555
C4B C4 1_555 1_555
H5B C4B 1_555 1_555
H6B C4B 1_555 1_555
C5D C5 1_555 1_555
N1B C2B 1_555 1_555
H7B N1B 1_555 1_555
O1B C1B 1_555 1_555
O2B C1B 1_555 1_555
O2E Ce1 1_555 1_555
O2G Ce1B 1_555 1_555
O3D Ce1D 1_555 1_555
O3B Ce1B 1_555 1_555
O4D Ce1 1_555 1_555
O4F Ce1B 1_555 1_555
O5B Ce1B 1_555 1_555
O6_2 Ce1 1_555 1_555
O6B Ce1B 1_555 1_555
O7_2 S1_2 1_555 1_555
O8_2 Ce1E 1_555 1_555
O8E Ce1 1_555 1_555
O8G Ce1B 1_555 1_555
O9B Ce1B 1_555 1_555
H8B O9B 1_555 1_555
H9B O9B 1_555 1_555
C3 N1 1_555 1_555
C4 N1 1_555 1_555
S1_2 O6_2 1_555 1_555
S1_2 O8_2 1_555 1_555
C3B N1B 1_555 1_555
C4B N1B 1_555 1_555
C5D O3D 1_555 1_555
C5D O4D 1_555 1_555

#END
