
#######################################################################
#
#                 Cambridge Crystallographic Data Centre
#                                CCDC 
#
#######################################################################
#
# If this CIF has been generated from an entry in the Cambridge 
# Structural Database, then it will include bibliographic, chemical, 
# crystal, experimental, refinement or atomic coordinate data resulting 
# from the CCDC's data processing and validation procedures.
#
#######################################################################

data_GOBZUU
_symmetry_cell_setting           monoclinic
_symmetry_space_group_name_H-M   'C 2/c'
_symmetry_Int_Tables_number      15
_space_group_name_Hall           '-C 2yn'
loop_
_symmetry_equiv_pos_site_id
_symmetry_equiv_pos_as_xyz
1 x,y,z
2 -x,y,1/2-z
3 1/2+x,1/2+y,z
4 1/2-x,1/2+y,1/2-z
5 -x,-y,-z
6 x,-y,1/2+z
7 1/2-x,1/2-y,-z
8 1/2+x,1/2-y,1/2+z
_cell_length_a                   31.2718(11)
_cell_length_b                   14.5238(4)
_cell_length_c                   14.0363(4)
_cell_angle_alpha                90
_cell_angle_beta                 106.613(4)
_cell_angle_gamma                90
_cell_volume                     6108.97
loop_
_atom_site_label
_atom_site_type_symbol
_atom_site_fract_x
_atom_site_fract_y
_atom_site_fract_z
I1 I 0.216035(9) 0.144784(18) 0.52635(2)
I2 I 0.253190(10) 0.13241(2) 0.25114(2)
Cu1 Cu 0.21865(2) 0.24325(4) 0.35349(5)
Cu2 Cu 0.21248(2) 0.33441(4) 0.55697(5)
S1 S 0.19138(4) 0.53955(8) 0.49728(9)
S2 S -0.11820(4) 0.92720(8) 0.23147(11)
C1 C 0.15231(18) 0.7082(3) 0.5184(4)
H1 H 0.1410 0.7653 0.4867
H2 H 0.1763 0.7204 0.5771
H3 H 0.1289 0.6761 0.5362
N1 N -0.09070(11) 0.3507(2) 0.2784(2)
C2 C -0.15910(17) 0.8401(3) 0.2271(4)
H4 H -0.1510 0.7837 0.1994
H5 H -0.1610 0.8271 0.2936
C3 C 0.02307(12) 0.5046(2) 0.3943(3)
N2 N 0.15112(11) 0.3833(2) 0.4998(2)
N3 N 0.10311(10) 0.5126(2) 0.4442(2)
C4 C -0.05737(12) 0.4975(2) 0.3294(2)
C5 C -0.05933(13) 0.5930(3) 0.3265(3)
H6 H -0.0869 0.6222 0.3046
C6 C 0.07228(14) 0.3646(3) 0.4506(3)
H7 H 0.0475 0.3264 0.4409
N4 N -0.06475(12) 0.7828(2) 0.3043(3)
C7 C 0.14312(13) 0.4738(3) 0.4781(3)
C8 C 0.02050(13) 0.6010(3) 0.3898(3)
H8 H 0.0465 0.6356 0.4096
C9 C -0.02055(13) 0.6455(2) 0.3561(3)
C10 C 0.06729(13) 0.4583(3) 0.4301(3)
C11 C -0.02393(14) 0.7482(3) 0.3491(3)
C12 C -0.09815(13) 0.4402(3) 0.2938(3)
C13 C -0.01585(12) 0.4542(3) 0.3630(3)
H9 H -0.0144 0.3902 0.3643
C14 C -0.06771(16) 0.8741(3) 0.2942(3)
C15 C 0.01255(15) 0.8056(3) 0.3829(3)
H10 H 0.0408 0.7821 0.4133
C16 C -0.14104(13) 0.4734(3) 0.2753(3)
H11 H -0.1464 0.5341 0.2897
N5 N -0.03449(14) 0.9354(3) 0.3249(3)
C17 C 0.00532(17) 0.8992(3) 0.3699(4)
H12 H 0.0294 0.9388 0.3935
C18 C -0.20354(19) 0.8753(4) 0.1624(5)
H13 H -0.2261 0.8296 0.1588
H14 H -0.2013 0.8878 0.0969
H15 H -0.2113 0.9308 0.1907
S3 S -0.11888(4) 0.18041(7) 0.22097(9)
C19 C -0.12584(13) 0.2976(3) 0.2417(3)
C20 C -0.17561(13) 0.4137(3) 0.2349(3)
H16 H -0.2047 0.4355 0.2202
C21 C 0.11480(14) 0.3299(3) 0.4856(3)
H17 H 0.1185 0.2673 0.5000
C22 C -0.05877(15) 0.1701(3) 0.2586(3)
H18 H -0.0507 0.1141 0.2302
H19 H -0.0463 0.2215 0.2314
C23 C -0.03803(17) 0.1679(3) 0.3696(3)
H20 H -0.0062 0.1625 0.3840
H21 H -0.0494 0.1161 0.3971
H22 H -0.0452 0.2237 0.3983
N6 N -0.16893(11) 0.3251(2) 0.2159(2)
C24 C 0.16897(16) 0.6503(3) 0.4485(3)
H23 H 0.1920 0.6843 0.4297
H24 H 0.1446 0.6403 0.3887
I1F I 0.283965(9) 0.355216(18) 0.47365(2)
I2F I 0.246810(10) 0.36759(2) 0.74886(2)
Cu1A Cu -0.21865(2) 0.24325(4) 0.14651(5)
Cu1F Cu 0.28135(2) 0.25675(4) 0.64651(5)
Cu2F Cu 0.28752(2) 0.16559(4) 0.44303(5)
N6A N 0.16893(11) 0.3251(2) 0.2841(2)
N7 N -0.08051(18) 0.8952(4) 0.5122(4)
C25 C -0.1042(2) 0.9562(4) 0.4846(4)
C26 C -0.1334(2) 1.0345(4) 0.4506(5)
H25 H -0.1412 1.0611 0.5058
H26 H -0.1599 1.0145 0.4014
H27 H -0.1182 1.0795 0.4220
loop_
_geom_bond_atom_site_label_1
_geom_bond_atom_site_label_2
_geom_bond_site_symmetry_1
_geom_bond_site_symmetry_2
I1 Cu1 1_555 1_555
I2 Cu1 1_555 1_555
Cu1 I1F 1_555 1_555
Cu2 I1 1_555 1_555
S1 C7 1_555 1_555
S2 C2 1_555 1_555
C1 H1 1_555 1_555
H2 C1 1_555 1_555
H3 C1 1_555 1_555
N1 C12 1_555 1_555
C2 H4 1_555 1_555
H5 C2 1_555 1_555
C3 C8 1_555 1_555
N2 Cu2 1_555 1_555
N3 C7 1_555 1_555
C4 C5 1_555 1_555
C5 H6 1_555 1_555
C6 H7 1_555 1_555
N4 C11 1_555 1_555
C7 N2 1_555 1_555
C8 H8 1_555 1_555
C9 C5 1_555 1_555
C10 C3 1_555 1_555
C11 C9 1_555 1_555
C12 C4 1_555 1_555
C13 C3 1_555 1_555
H9 C13 1_555 1_555
C14 S2 1_555 1_555
C15 C11 1_555 1_555
H10 C15 1_555 1_555
C16 C12 1_555 1_555
H11 C16 1_555 1_555
N5 C14 1_555 1_555
C17 C15 1_555 1_555
H12 C17 1_555 1_555
C18 C2 1_555 1_555
H13 C18 1_555 1_555
H14 C18 1_555 1_555
H15 C18 1_555 1_555
S3 C19 1_555 1_555
C19 N1 1_555 1_555
C20 C16 1_555 1_555
H16 C20 1_555 1_555
C21 N2 1_555 1_555
H17 C21 1_555 1_555
C22 S3 1_555 1_555
H18 C22 1_555 1_555
H19 C22 1_555 1_555
C23 C22 1_555 1_555
H20 C23 1_555 1_555
H21 C23 1_555 1_555
H22 C23 1_555 1_555
N6 C19 1_555 1_555
C24 S1 1_555 1_555
H23 C24 1_555 1_555
H24 C24 1_555 1_555
N7 C25 1_555 1_555
C25 C26 1_555 1_555
C26 H25 1_555 1_555
H26 C26 1_555 1_555
H27 C26 1_555 1_555
I1F Cu2 1_555 1_555
I2F Cu2 1_555 1_555
Cu1A N6 1_555 1_555
Cu1F I1 1_555 1_555
Cu2F I1 1_555 1_555
N6A Cu1 1_555 1_555
I2 Cu2F 1_555 1_555
Cu1 Cu2F 1_555 1_555
Cu2 Cu1F 1_555 1_555
C1 C24 1_555 1_555
N3 C10 1_555 1_555
C4 C13 1_555 1_555
C6 C10 1_555 1_555
C6 C21 1_555 1_555
N4 C14 1_555 1_555
C8 C9 1_555 1_555
N5 C17 1_555 1_555
C20 N6 1_555 1_555
I1F Cu1F 1_555 1_555
I1F Cu2F 1_555 1_555
I2F Cu1F 1_555 1_555

#END
