
#######################################################################
#
#                 Cambridge Crystallographic Data Centre
#                                CCDC 
#
#######################################################################
#
# If this CIF has been generated from an entry in the Cambridge 
# Structural Database, then it will include bibliographic, chemical, 
# crystal, experimental, refinement or atomic coordinate data resulting 
# from the CCDC's data processing and validation procedures.
#
#######################################################################

data_GOCFEL
_symmetry_cell_setting           monoclinic
_symmetry_space_group_name_H-M   'P 21/c'
_symmetry_Int_Tables_number      14
_space_group_name_Hall           '-P 2ybc'
loop_
_symmetry_equiv_pos_site_id
_symmetry_equiv_pos_as_xyz
1 x,y,z
2 -x,1/2+y,1/2-z
3 -x,-y,-z
4 x,1/2-y,1/2+z
_cell_length_a                   9.9742(5)
_cell_length_b                   16.5215(7)
_cell_length_c                   17.4335(8)
_cell_angle_alpha                90
_cell_angle_beta                 94.691(4)
_cell_angle_gamma                90
_cell_volume                     2863.22
loop_
_atom_site_label
_atom_site_type_symbol
_atom_site_fract_x
_atom_site_fract_y
_atom_site_fract_z
Gd1 Gd 0.741544(19) 0.020871(11) 0.012429(11)
O1 O 0.6152(3) 0.13990(16) 0.00034(16)
C1 C 0.4167(4) 0.2204(2) -0.0120(2)
C2 C 0.2388(4) 0.3020(2) -0.0758(2)
C3 C 0.0423(4) 0.2437(3) -0.1554(2)
H1 H 0.0577 0.1934 -0.1298
O2 O 0.4196(3) 0.07725(16) -0.01534(18)
N1 N 0.7994(4) -0.3242(2) -0.1753(2)
C4 C 0.7946(4) -0.1885(2) -0.1391(2)
H2 H 0.7514 -0.1372 -0.1422
C5 C 0.3885(4) 0.3626(2) 0.0165(2)
C6 C 0.7392(4) -0.2521(2) -0.1845(2)
C7 C 0.9681(4) -0.2755(2) -0.0797(2)
C8 C 0.4650(4) 0.2901(2) 0.0305(2)
N2 N 0.2788(3) 0.36836(19) -0.03686(19)
O3 O 0.8070(4) -0.04628(18) 0.13977(18)
O4 O 1.0894(3) -0.10942(16) -0.05902(16)
N3 N 0.7294(4) -0.0042(2) 0.1775(2)
C9 C 0.4896(4) 0.1403(2) -0.0077(2)
C10 C 0.9681(4) -0.1225(2) -0.0515(2)
C11 C 0.9080(5) -0.3396(2) -0.1239(2)
C12 C 0.6195(4) -0.2423(3) -0.2386(2)
C13 C 0.3044(4) 0.2271(2) -0.0623(2)
H3 H 0.2699 0.1802 -0.0886
C14 C 0.1251(4) 0.3097(2) -0.1357(2)
O5 O 0.7157(4) -0.01864(19) 0.24607(18)
C15 C 0.9086(4) -0.1976(2) -0.0906(2)
O6 O 0.8911(3) -0.07864(16) -0.01766(16)
O7 O 0.6730(4) -0.0014(2) -0.12436(19)
C16 C 0.1022(5) 0.3829(2) -0.1746(2)
H4 H 0.1579 0.4284 -0.1619
O8 O 0.8381(3) 0.08080(19) -0.10116(17)
O9 O 0.6655(3) 0.05139(18) 0.14233(16)
C17 C 0.5770(5) 0.2922(2) 0.0852(2)
H5 H 0.6297 0.2448 0.0950
N4 N 0.7665(5) 0.0401(2) -0.1509(2)
C18 C 0.5491(5) -0.3074(3) -0.2711(3)
H6 H 0.5790 -0.3608 -0.2589
C19 C 1.0772(5) -0.2938(3) -0.0270(2)
H7 H 1.1203 -0.2519 0.0031
C20 C 0.9568(6) -0.4189(3) -0.1158(3)
H8 H 0.9169 -0.4614 -0.1465
C21 C 0.4376(6) -0.2961(4) -0.3203(3)
H9 H 0.3912 -0.3417 -0.3423
C22 C 1.1219(5) -0.3711(3) -0.0185(2)
H10 H 1.1946 -0.3830 0.0184
C23 C -0.0619(4) 0.2515(3) -0.2118(3)
H11 H -0.1187 0.2066 -0.2249
C24 C 0.5719(5) -0.1652(3) -0.2566(3)
H12 H 0.6187 -0.1196 -0.2346
C25 C 0.5348(6) 0.4323(3) 0.1113(3)
H13 H 0.5592 0.4800 0.1394
C26 C -0.0840(5) 0.3244(3) -0.2495(3)
H14 H -0.1565 0.3297 -0.2880
C27 C 0.4281(5) 0.4328(3) 0.0596(3)
H15 H 0.3776 0.4812 0.0516
C28 C 1.0614(5) -0.4339(3) -0.0638(3)
H16 H 1.0949 -0.4876 -0.0576
C29 C 0.4581(5) -0.1533(3) -0.3057(3)
H17 H 0.4259 -0.1002 -0.3169
C30 C 0.6104(5) 0.3620(3) 0.1242(3)
H18 H 0.6865 0.3626 0.1607
O10 O 0.7847(5) 0.0414(2) -0.2187(2)
C31 C -0.0014(5) 0.3888(3) -0.2312(2)
H19 H -0.0159 0.4384 -0.2582
C32 C 0.3914(5) -0.2200(4) -0.3384(3)
H20 H 0.3140 -0.2129 -0.3732
H21 H 0.754(5) -0.361(3) -0.203(3)
Gd1B Gd 0.258456(19) -0.020871(11) -0.012429(11)
Gd1B_2 Gd 1.258456(19) -0.020871(11) -0.012429(11)
O2B O 0.5804(3) -0.07725(16) 0.01534(18)
O4B O 0.9106(3) 0.10942(16) 0.05902(16)
loop_
_geom_bond_atom_site_label_1
_geom_bond_atom_site_label_2
_geom_bond_site_symmetry_1
_geom_bond_site_symmetry_2
Gd1 O1 1_555 1_555
O1 C9 1_555 1_555
C1 C8 1_555 1_555
C2 N2 1_555 1_555
C3 H1 1_555 1_555
O2 C9 1_555 1_555
N1 C6 1_555 1_555
C4 H2 1_555 1_555
C5 C8 1_555 1_555
C6 C4 1_555 1_555
C7 C11 1_555 1_555
C8 C17 1_555 1_555
N2 C5 1_555 1_555
O3 Gd1 1_555 1_555
O4 C10 1_555 1_555
N3 O3 1_555 1_555
C9 C1 1_555 1_555
C10 C15 1_555 1_555
C11 N1 1_555 1_555
C12 C6 1_555 1_555
C13 C1 1_555 1_555
H3 C13 1_555 1_555
C14 C2 1_555 1_555
O5 N3 1_555 1_555
C15 C4 1_555 1_555
O6 Gd1 1_555 1_555
O7 Gd1 1_555 1_555
C16 C14 1_555 1_555
H4 C16 1_555 1_555
O8 Gd1 1_555 1_555
O9 Gd1 1_555 1_555
C17 H5 1_555 1_555
N4 O7 1_555 1_555
C18 C12 1_555 1_555
H6 C18 1_555 1_555
C19 C7 1_555 1_555
H7 C19 1_555 1_555
C20 C11 1_555 1_555
H8 C20 1_555 1_555
C21 C18 1_555 1_555
H9 C21 1_555 1_555
C22 C19 1_555 1_555
H10 C22 1_555 1_555
C23 C3 1_555 1_555
H11 C23 1_555 1_555
C24 C12 1_555 1_555
H12 C24 1_555 1_555
C25 H13 1_555 1_555
C26 C23 1_555 1_555
H14 C26 1_555 1_555
C27 C5 1_555 1_555
H15 C27 1_555 1_555
C28 C20 1_555 1_555
H16 C28 1_555 1_555
C29 C24 1_555 1_555
H17 C29 1_555 1_555
C30 C17 1_555 1_555
H18 C30 1_555 1_555
O10 N4 1_555 1_555
C31 C16 1_555 1_555
H19 C31 1_555 1_555
C32 C21 1_555 1_555
H20 C32 1_555 1_555
H21 N1 1_555 1_555
Gd1B O2 1_555 1_555
Gd1B_2 O4 1_555 1_555
O2B Gd1 1_555 1_555
O4B Gd1 1_555 1_555
C2 C13 1_555 1_555
C3 C14 1_555 1_555
C7 C15 1_555 1_555
N3 O9 1_555 1_555
C10 O6 1_555 1_555
O8 N4 1_555 1_555
C22 C28 1_555 1_555
C25 C27 1_555 1_555
C25 C30 1_555 1_555
C26 C31 1_555 1_555
C29 C32 1_555 1_555

#END
