
#######################################################################
#
#                 Cambridge Crystallographic Data Centre
#                                CCDC 
#
#######################################################################
#
# If this CIF has been generated from an entry in the Cambridge 
# Structural Database, then it will include bibliographic, chemical, 
# crystal, experimental, refinement or atomic coordinate data resulting 
# from the CCDC's data processing and validation procedures.
#
#######################################################################

data_GOCMUI
_symmetry_cell_setting           monoclinic
_symmetry_space_group_name_H-M   'P 21/n'
_symmetry_Int_Tables_number      14
_space_group_name_Hall           '-P 2yn'
loop_
_symmetry_equiv_pos_site_id
_symmetry_equiv_pos_as_xyz
1 x,y,z
2 1/2-x,1/2+y,1/2-z
3 -x,-y,-z
4 1/2+x,1/2-y,1/2+z
_cell_length_a                   10.4437(17)
_cell_length_b                   14.613(2)
_cell_length_c                   12.548(2)
_cell_angle_alpha                90
_cell_angle_beta                 104.566(3)
_cell_angle_gamma                90
_cell_volume                     1853.45
loop_
_atom_site_label
_atom_site_type_symbol
_atom_site_fract_x
_atom_site_fract_y
_atom_site_fract_z
Zn1 Zn 0.06747(3) 0.02139(2) 0.33155(2)
P1 P -0.14705(6) 0.19006(5) 0.33375(6)
P2 P -0.33718(6) 0.40050(5) 0.08178(5)
O1 O -0.06291(17) 0.12080(12) 0.29285(15)
O2 O -0.17696(18) 0.15804(13) 0.44582(15)
H1 H -0.1075 0.1373 0.4880
O3 O -0.27899(17) 0.20937(12) 0.25529(15)
O4 O -0.31959(18) 0.29443(12) 0.07212(15)
H2 H -0.3028 0.2708 0.1352
O5 O -0.47067(16) 0.41976(12) 0.10629(14)
O6 O -0.31868(17) 0.44409(13) -0.02189(14)
N1 N 0.2347(2) 0.06272(15) 0.26753(18)
N2 N 0.0478(2) -0.06084(16) 0.18521(18)
C1 C 0.3335(3) 0.11878(18) 0.3144(2)
H3 H 0.3340 0.1450 0.3838
C2 C 0.4366(3) 0.14083(19) 0.2660(2)
H4 H 0.5061 0.1801 0.3029
C3 C 0.4362(3) 0.10511(19) 0.1645(2)
H5 H 0.5036 0.1212 0.1293
C4 C 0.3340(3) 0.04413(18) 0.1133(2)
C5 C 0.2372(3) 0.02475(19) 0.1692(2)
C6 C 0.3274(3) -0.00001(19) 0.0088(2)
H6 H 0.3910 0.0149 -0.0308
C7 C 0.2324(3) -0.06198(19) -0.0335(2)
H7 H 0.2307 -0.0904 -0.1020
C8 C 0.1339(3) -0.08560(18) 0.0238(2)
C9 C 0.1356(3) -0.04175(18) 0.1239(2)
C10 C 0.0354(3) -0.15253(19) -0.0145(2)
H8 H 0.0299 -0.1835 -0.0820
C11 C -0.0521(3) -0.17193(19) 0.0478(2)
H9 H -0.1191 -0.2166 0.0235
C12 C -0.0422(3) -0.12568(19) 0.1471(2)
H10 H -0.1026 -0.1412 0.1896
C13 C -0.0562(3) 0.29621(18) 0.3674(2)
H11 H -0.1150 0.3428 0.3874
H12 H 0.0188 0.2862 0.4325
C14 C -0.0036(2) 0.33240(17) 0.2738(2)
C15 C 0.1191(3) 0.29819(18) 0.2650(2)
H13 H 0.1659 0.2567 0.3193
C16 C 0.1736(3) 0.32302(19) 0.1799(2)
H14 H 0.2559 0.2979 0.1751
C17 C 0.1073(3) 0.38513(19) 0.1008(2)
H15 H 0.1438 0.4029 0.0418
C18 C -0.0130(3) 0.42078(18) 0.1097(2)
H16 H -0.0577 0.4636 0.0562
C19 C -0.0702(2) 0.39577(18) 0.1944(2)
C20 C -0.2028(2) 0.43804(18) 0.1962(2)
H17 H -0.1954 0.5055 0.1937
H18 H -0.2243 0.4217 0.2663
Zn1A Zn -0.56747(3) 0.52139(2) 0.16845(2)
Zn1C Zn -0.43253(3) 0.47861(2) -0.16845(2)
O5A O -0.02933(16) -0.08024(12) 0.39371(14)
O6C O 0.18132(17) 0.05591(13) 0.47811(14)
loop_
_geom_bond_atom_site_label_1
_geom_bond_atom_site_label_2
_geom_bond_site_symmetry_1
_geom_bond_site_symmetry_2
Zn1 O1 1_555 1_555
P1 O1 1_555 1_555
P2 O4 1_555 1_555
O2 P1 1_555 1_555
H1 O2 1_555 1_555
O3 P1 1_555 1_555
O4 H2 1_555 1_555
O5 P2 1_555 1_555
O6 P2 1_555 1_555
N1 Zn1 1_555 1_555
N2 Zn1 1_555 1_555
C1 N1 1_555 1_555
H3 C1 1_555 1_555
C2 C1 1_555 1_555
H4 C2 1_555 1_555
C3 C2 1_555 1_555
H5 C3 1_555 1_555
C4 C3 1_555 1_555
C5 N1 1_555 1_555
C6 C4 1_555 1_555
H6 C6 1_555 1_555
C7 C6 1_555 1_555
H7 C7 1_555 1_555
C8 C7 1_555 1_555
C9 N2 1_555 1_555
C10 C8 1_555 1_555
H8 C10 1_555 1_555
C11 C10 1_555 1_555
H9 C11 1_555 1_555
C12 N2 1_555 1_555
H10 C12 1_555 1_555
C13 P1 1_555 1_555
H11 C13 1_555 1_555
H12 C13 1_555 1_555
C14 C13 1_555 1_555
C15 C14 1_555 1_555
H13 C15 1_555 1_555
C16 C15 1_555 1_555
H14 C16 1_555 1_555
C17 C16 1_555 1_555
H15 C17 1_555 1_555
C18 C17 1_555 1_555
H16 C18 1_555 1_555
C19 C14 1_555 1_555
C20 P2 1_555 1_555
H17 C20 1_555 1_555
H18 C20 1_555 1_555
Zn1A O5 1_555 1_555
Zn1C O6 1_555 1_555
O5A Zn1 1_555 1_555
O6C Zn1 1_555 1_555
C4 C5 1_555 1_555
C5 C9 1_555 1_555
C8 C9 1_555 1_555
C11 C12 1_555 1_555
C18 C19 1_555 1_555
C19 C20 1_555 1_555

#END
