
#######################################################################
#
#                 Cambridge Crystallographic Data Centre
#                                CCDC 
#
#######################################################################
#
# If this CIF has been generated from an entry in the Cambridge 
# Structural Database, then it will include bibliographic, chemical, 
# crystal, experimental, refinement or atomic coordinate data resulting 
# from the CCDC's data processing and validation procedures.
#
#######################################################################

data_GOCPAQ
_symmetry_cell_setting           triclinic
_symmetry_space_group_name_H-M   'P -1'
_symmetry_Int_Tables_number      2
_space_group_name_Hall           '-P 1'
loop_
_symmetry_equiv_pos_site_id
_symmetry_equiv_pos_as_xyz
1 x,y,z
2 -x,-y,-z
_cell_length_a                   9.0385(7)
_cell_length_b                   13.7246(12)
_cell_length_c                   21.8702(19)
_cell_angle_alpha                78.251(3)
_cell_angle_beta                 84.9630(10)
_cell_angle_gamma                72.862(2)
_cell_volume                     2537.09
loop_
_atom_site_label
_atom_site_type_symbol
_atom_site_fract_x
_atom_site_fract_y
_atom_site_fract_z
C1 C 0.1759(6) 1.2730(4) 0.0223(3)
C2 C 0.2000(7) 1.3305(5) 0.0626(3)
H1 H 0.1187 1.3597 0.0884
C3 C 0.3446(8) 1.3462(5) 0.0657(3)
H2 H 0.3588 1.3828 0.0950
C4 C 0.4676(7) 1.3090(4) 0.0262(3)
H3 H 0.5619 1.3230 0.0270
C5 C 0.4438(7) 1.2485(5) -0.0154(3)
H4 H 0.5258 1.2184 -0.0406
C6 C 0.2987(7) 1.2337(5) -0.0190(3)
H5 H 0.2827 1.1979 -0.0484
C7 C -0.0794(6) 1.3033(4) -0.0577(3)
C8 C -0.0453(7) 1.3963(4) -0.0891(3)
H6 H 0.0233 1.4230 -0.0732
C9 C -0.1199(7) 1.4447(5) -0.1447(3)
H7 H -0.0991 1.5050 -0.1668
C10 C -0.2229(7) 1.4073(5) -0.1683(3)
H8 H -0.2724 1.4434 -0.2051
C11 C -0.2546(8) 1.3155(5) -0.1377(3)
H9 H -0.3233 1.2897 -0.1543
C12 C -0.1812(7) 1.2632(5) -0.0818(3)
H10 H -0.2006 1.2019 -0.0608
C13 C -0.1355(7) 1.3046(4) 0.0739(2)
C14 C -0.2165(7) 1.4100(5) 0.0581(3)
H11 H -0.1974 1.4505 0.0204
C15 C -0.3270(8) 1.4511(5) 0.1017(3)
H12 H -0.3894 1.5189 0.0909
C16 C -0.3470(8) 1.3964(5) 0.1587(3)
H13 H -0.4198 1.4279 0.1867
C17 C -0.2619(7) 1.2950(5) 0.1762(3)
H14 H -0.2731 1.2587 0.2163
C18 C -0.1572(7) 1.2468(5) 0.1323(3)
H15 H -0.1029 1.1769 0.1423
C19 C -0.1335(7) 0.5745(4) 0.2879(3)
C20 C -0.1067(7) 0.6705(4) 0.2835(3)
H16 H -0.0494 0.6824 0.3131
C21 C -0.1713(7) 0.7514(5) 0.2311(3)
H17 H -0.1470 0.8141 0.2245
C22 C -0.2676(7) 0.7365(5) 0.1914(3)
H18 H -0.3137 0.7901 0.1594
C23 C -0.2955(7) 0.6430(4) 0.1988(3)
H19 H -0.3603 0.6341 0.1710
C24 C -0.2314(7) 0.5586(5) 0.2466(3)
H20 H -0.2528 0.4952 0.2506
C25 C 0.1114(6) 0.3805(4) 0.3068(3)
C26 C 0.2659(7) 0.3646(5) 0.3207(3)
H21 H 0.2935 0.3967 0.3498
C27 C 0.3771(7) 0.2966(5) 0.2877(3)
H22 H 0.4809 0.2870 0.2947
C28 C 0.3439(7) 0.2427(5) 0.2456(3)
H23 H 0.4205 0.1966 0.2259
C29 C 0.1850(7) 0.2636(5) 0.2351(3)
H24 H 0.1568 0.2298 0.2072
C30 C 0.0663(7) 0.3324(4) 0.2643(3)
H25 H -0.0374 0.3453 0.2556
C31 C -0.1802(6) 0.4019(4) 0.3783(2)
C32 C -0.1430(7) 0.2946(4) 0.3895(3)
H26 H -0.0436 0.2548 0.3809
C33 C -0.2590(7) 0.2473(5) 0.4140(3)
H27 H -0.2370 0.1755 0.4204
C34 C -0.4008(7) 0.3042(4) 0.4284(2)
H28 H -0.4757 0.2708 0.4442
C35 C -0.4393(7) 0.4114(5) 0.4203(3)
H29 H -0.5375 0.4493 0.4318
C36 C -0.3290(6) 0.4615(4) 0.3946(3)
H30 H -0.3530 0.5334 0.3882
C37 C 0.3274(7) 1.0056(5) 0.1102(3)
H31 H 0.3662 1.0318 0.0715
C38 C 0.4205(6) 0.9794(4) 0.1632(3)
H32 H 0.5168 0.9920 0.1601
C39 C 0.3645(6) 0.9342(4) 0.2204(3)
C40 C 0.2162(6) 0.9213(4) 0.2231(2)
H33 H 0.1746 0.8933 0.2606
C41 C 0.1305(6) 0.9515(4) 0.1682(2)
H34 H 0.0327 0.9416 0.1699
C42 C 0.2690(6) 0.6285(5) 0.3358(3)
H35 H 0.2525 0.5877 0.3094
C43 C 0.3542(6) 0.6991(4) 0.3142(3)
H36 H 0.3889 0.7069 0.2727
C44 C 0.3884(6) 0.7569(4) 0.3518(2)
C45 C 0.3362(7) 0.7410(5) 0.4154(3)
H37 H 0.3632 0.7742 0.4440
C46 C 0.2444(7) 0.6748(4) 0.4336(2)
H38 H 0.2048 0.6688 0.4745
C47 C 0.9698(7) 0.9482(4) 0.4142(3)
H39 H 1.0163 0.9234 0.4528
C48 C 0.8494(7) 0.9110(5) 0.4017(3)
H40 H 0.8190 0.8604 0.4308
C49 C 0.7739(7) 0.9520(4) 0.3435(3)
C50 C 0.8224(7) 1.0261(5) 0.3018(3)
H41 H 0.7763 1.0538 0.2633
C51 C 0.9447(8) 1.0595(5) 0.3187(3)
H42 H 0.9740 1.1125 0.2913
C52 C 0.4659(7) 0.9052(5) 0.2740(3)
C53 C 0.4725(6) 0.8324(4) 0.3285(2)
C54 C 0.6470(6) 0.9194(4) 0.3267(2)
Cu1 Cu 0.04659(8) 1.06277(5) 0.03682(3)
Cu2 Cu 0.06007(8) 0.52794(5) 0.42275(3)
I1 I 0.20968(4) 0.99336(3) -0.061613(17)
I2 I -0.17896(4) 0.63699(3) 0.486607(16)
N1 N 0.1850(5) 0.9935(4) 0.1143(2)
N2 N 0.2080(5) 0.6188(3) 0.39727(18)
N3 N 1.0206(6) 1.0182(4) 0.3725(2)
N4 N 0.5720(5) 0.9577(3) 0.2753(2)
N5 N 0.5912(5) 0.8421(3) 0.3618(2)
H46 H 0.6233 0.8062 0.3976
P1 P 0.00137(15) 1.23500(10) 0.01872(6)
P2 P -0.03447(15) 0.47152(10) 0.35002(6)
Cu1A Cu -0.04659(8) 0.93723(5) -0.03682(3)
Cu2A Cu -0.06007(8) 0.47206(5) 0.57725(3)
I1A I -0.20968(4) 1.00664(3) 0.061613(17)
I2A I 0.17896(4) 0.36301(3) 0.513393(16)
C55 C 0.3460(8) 0.0096(5) 0.4507(3)
C56 C 0.3234(8) 0.1038(5) 0.4059(3)
H43 H 0.4131 0.1284 0.4038
H44 H 0.2341 0.1550 0.4181
H45 H 0.3078 0.0913 0.3656
N6 N 0.3729(6) -0.0657(4) 0.4848(3)
loop_
_geom_bond_atom_site_label_1
_geom_bond_atom_site_label_2
_geom_bond_site_symmetry_1
_geom_bond_site_symmetry_2
C1 C2 1_555 1_555
C2 H1 1_555 1_555
C3 C2 1_555 1_555
H2 C3 1_555 1_555
C4 C3 1_555 1_555
H3 C4 1_555 1_555
C5 C4 1_555 1_555
H4 C5 1_555 1_555
C6 C1 1_555 1_555
H5 C6 1_555 1_555
C7 C8 1_555 1_555
C8 H6 1_555 1_555
C9 C8 1_555 1_555
H7 C9 1_555 1_555
C10 C9 1_555 1_555
H8 C10 1_555 1_555
C11 C10 1_555 1_555
H9 C11 1_555 1_555
C12 C7 1_555 1_555
H10 C12 1_555 1_555
C13 C14 1_555 1_555
C14 H11 1_555 1_555
C15 C14 1_555 1_555
H12 C15 1_555 1_555
C16 C15 1_555 1_555
H13 C16 1_555 1_555
C17 C16 1_555 1_555
H14 C17 1_555 1_555
C18 C13 1_555 1_555
H15 C18 1_555 1_555
C19 C20 1_555 1_555
C20 H16 1_555 1_555
C21 C20 1_555 1_555
H17 C21 1_555 1_555
C22 C21 1_555 1_555
H18 C22 1_555 1_555
C23 C22 1_555 1_555
H19 C23 1_555 1_555
C24 C19 1_555 1_555
H20 C24 1_555 1_555
C25 C26 1_555 1_555
C26 H21 1_555 1_555
C27 C26 1_555 1_555
H22 C27 1_555 1_555
C28 C27 1_555 1_555
H23 C28 1_555 1_555
C29 C28 1_555 1_555
H24 C29 1_555 1_555
C30 C25 1_555 1_555
H25 C30 1_555 1_555
C31 C32 1_555 1_555
C32 H26 1_555 1_555
C33 C32 1_555 1_555
H27 C33 1_555 1_555
C34 C33 1_555 1_555
H28 C34 1_555 1_555
C35 C34 1_555 1_555
H29 C35 1_555 1_555
C36 C31 1_555 1_555
H30 C36 1_555 1_555
C37 H31 1_555 1_555
C38 C37 1_555 1_555
H32 C38 1_555 1_555
C39 C38 1_555 1_555
C40 C39 1_555 1_555
H33 C40 1_555 1_555
C41 C40 1_555 1_555
H34 C41 1_555 1_555
C42 H35 1_555 1_555
C43 C42 1_555 1_555
H36 C43 1_555 1_555
C44 C43 1_555 1_555
C45 C44 1_555 1_555
H37 C45 1_555 1_555
C46 C45 1_555 1_555
H38 C46 1_555 1_555
C47 H39 1_555 1_555
C48 C47 1_555 1_555
H40 C48 1_555 1_555
C49 C48 1_555 1_555
C50 C49 1_555 1_555
H41 C50 1_555 1_555
C51 C50 1_555 1_555
H42 C51 1_555 1_555
C52 C39 1_555 1_555
C53 C44 1_555 1_555
C54 C49 1_555 1_555
C55 C56 1_555 1_555
C56 H43 1_555 1_555
H44 C56 1_555 1_555
H45 C56 1_555 1_555
Cu1 I1 1_555 1_555
Cu2 I2 1_555 1_555
I1 Cu1A 1_555 1_555
I2 Cu2A 1_555 1_555
N1 C37 1_555 1_555
N2 C42 1_555 1_555
N3 C47 1_555 1_555
N4 C52 1_555 1_555
N5 C53 1_555 1_555
H46 N5 1_555 1_555
N6 C55 1_555 1_555
P1 C1 1_555 1_555
P2 C19 1_555 1_555
Cu1A I1A 1_555 1_555
Cu2A I2A 1_555 1_555
I1A Cu1 1_555 1_555
I2A Cu2 1_555 1_555
C5 C6 1_555 1_555
C7 P1 1_555 1_555
C11 C12 1_555 1_555
C13 P1 1_555 1_555
C17 C18 1_555 1_555
C23 C24 1_555 1_555
C25 P2 1_555 1_555
C29 C30 1_555 1_555
C31 P2 1_555 1_555
C35 C36 1_555 1_555
C41 N1 1_555 1_555
C46 N2 1_555 1_555
C51 N3 1_555 1_555
C52 C53 1_555 1_555
C54 N4 1_555 1_555
C54 N5 1_555 1_555
Cu1 N1 1_555 1_555
Cu1 P1 1_555 1_555
Cu2 N2 1_555 1_555
Cu2 P2 1_555 1_555

#END
