
#######################################################################
#
#                 Cambridge Crystallographic Data Centre
#                                CCDC 
#
#######################################################################
#
# If this CIF has been generated from an entry in the Cambridge 
# Structural Database, then it will include bibliographic, chemical, 
# crystal, experimental, refinement or atomic coordinate data resulting 
# from the CCDC's data processing and validation procedures.
#
#######################################################################

data_GOCWEB
_symmetry_cell_setting           monoclinic
_symmetry_space_group_name_H-M   'P 21/c'
_symmetry_Int_Tables_number      14
_space_group_name_Hall           '-P 2ybc'
loop_
_symmetry_equiv_pos_site_id
_symmetry_equiv_pos_as_xyz
1 x,y,z
2 -x,1/2+y,1/2-z
3 -x,-y,-z
4 x,1/2-y,1/2+z
_cell_length_a                   10.7507(8)
_cell_length_b                   14.5947(11)
_cell_length_c                   24.4109(18)
_cell_angle_alpha                90
_cell_angle_beta                 98.4480(10)
_cell_angle_gamma                90
_cell_volume                     3788.59
loop_
_atom_site_label
_atom_site_type_symbol
_atom_site_fract_x
_atom_site_fract_y
_atom_site_fract_z
Cd1 Cd 0.17774(6) 0.56518(4) 0.29105(3)
Cd2 Cd 0.33196(6) -0.17217(4) 0.45936(3)
N1 N 0.1534(6) 0.5312(4) 0.1969(3)
N2 N 0.1608(6) 0.7051(4) 0.2390(3)
N3 N 0.3235(7) -0.3073(5) 0.5106(3)
N4 N 0.3746(6) -0.1407(5) 0.5549(3)
O1 O 0.1972(6) 0.4196(4) 0.3067(3)
O2 O 0.3325(8) 0.4384(4) 0.3841(4)
O3 O 0.1864(7) -0.0501(4) 0.3589(3)
O4 O 0.2986(6) -0.0256(4) 0.4410(3)
O5 O 0.0854(5) 0.6378(4) 0.3635(2)
O6 O -0.0370(5) 0.5726(4) 0.2949(2)
O7 O -0.5723(5) 0.7430(4) 0.3925(2)
O8 O -0.4524(6) 0.8206(4) 0.4552(3)
O9 O 0.0003(8) 0.6533(6) 0.0195(3)
O10 O 0.0220(9) 0.8226(6) 0.0602(3)
O11 O 0.4110(10) -0.4484(6) 0.6881(4)
O12 O 0.4760(9) -0.2774(6) 0.7316(4)
O13 O 0.3749(5) 0.5896(4) 0.3300(3)
H1 H 0.3868 0.6469 0.3345
H2 H 0.3875 0.5629 0.3613
O14 O 0.1393(5) -0.2014(4) 0.4138(2)
H3 H 0.1095 -0.2484 0.4278
H4 H 0.0918 -0.1556 0.4169
C1 C 0.1535(9) 0.4511(6) 0.1755(5)
H5 H 0.1768 0.4019 0.1990
C2 C 0.1205(10) 0.4328(7) 0.1186(5)
H6 H 0.1222 0.3730 0.1056
C3 C 0.0875(10) 0.4998(7) 0.0839(5)
H7 H 0.0670 0.4887 0.0461
C4 C 0.0839(8) 0.5848(7) 0.1042(4)
C5 C 0.0425(9) 0.6649(9) 0.0673(4)
C6 C 0.0490(9) 0.7601(7) 0.0915(4)
C7 C 0.0917(8) 0.7713(6) 0.1513(4)
C8 C 0.0963(8) 0.8569(6) 0.1758(4)
H8 H 0.0714 0.9084 0.1546
C9 C 0.1374(9) 0.8657(7) 0.2311(5)
H9 H 0.1432 0.9230 0.2479
C10 C 0.1705(9) 0.7869(5) 0.2616(4)
H10 H 0.2005 0.7922 0.2992
C11 C 0.1239(7) 0.6966(5) 0.1842(3)
C12 C 0.1190(7) 0.5998(6) 0.1611(4)
C13 C 0.2959(11) -0.3940(8) 0.4885(5)
H11 H 0.2736 -0.3974 0.4503
C14 C 0.2981(13) -0.4743(7) 0.5169(5)
H12 H 0.2741 -0.5295 0.4995
C15 C 0.3369(11) -0.4687(7) 0.5716(5)
H13 H 0.3441 -0.5223 0.5924
C16 C 0.3671(9) -0.3844(8) 0.5985(4)
C17 C 0.4085(10) -0.3790(10) 0.6588(5)
C18 C 0.4417(9) -0.2821(7) 0.6830(5)
C19 C 0.4266(8) -0.2034(7) 0.6458(4)
C20 C 0.4542(9) -0.1089(9) 0.6657(5)
H14 H 0.4792 -0.0978 0.7032
C21 C 0.4431(9) -0.0398(7) 0.6298(5)
H15 H 0.4637 0.0192 0.6424
C22 C 0.4026(8) -0.0535(6) 0.5754(4)
H16 H 0.3934 -0.0036 0.5514
C23 C 0.3873(7) -0.2139(6) 0.5894(4)
C24 C 0.3604(8) -0.3030(6) 0.5653(4)
C25 C 0.2617(9) 0.3909(6) 0.3505(4)
C26 C 0.2540(7) 0.2864(5) 0.3608(4)
C27 C 0.2010(7) 0.2274(5) 0.3210(4)
H17 H 0.1664 0.2499 0.2865
C28 C 0.1977(7) 0.1337(6) 0.3313(3)
H18 H 0.1638 0.0941 0.3031
C29 C 0.2450(7) 0.0986(6) 0.3836(3)
C30 C 0.2960(8) 0.1623(6) 0.4241(4)
H19 H 0.3259 0.1410 0.4595
C31 C 0.3034(7) 0.2534(5) 0.4138(4)
H20 H 0.3404 0.2932 0.4412
C32 C 0.2437(8) 0.0001(5) 0.3949(4)
C33 C -0.0238(8) 0.6181(5) 0.3386(3)
C34 C -0.1382(8) 0.6545(5) 0.3602(4)
C35 C -0.2496(8) 0.6623(6) 0.3247(4)
H21 H -0.2543 0.6427 0.2882
C36 C -0.3550(8) 0.6991(5) 0.3431(3)
H22 H -0.4294 0.7047 0.3185
C37 C -0.3514(7) 0.7273(5) 0.3969(3)
C38 C -0.2383(8) 0.7202(5) 0.4331(4)
H23 H -0.2336 0.7403 0.4695
C39 C -0.1339(8) 0.6833(5) 0.4148(3)
H24 H -0.0594 0.6776 0.4393
C40 C -0.4634(8) 0.7657(5) 0.4159(4)
O7_2 O 0.4277(5) -0.2570(4) 0.3925(2)
O8_2 O 0.5476(6) -0.1794(4) 0.4552(3)
Cd2_2 Cd -0.66804(6) 0.82783(4) 0.45936(3)
loop_
_geom_bond_atom_site_label_1
_geom_bond_atom_site_label_2
_geom_bond_site_symmetry_1
_geom_bond_site_symmetry_2
Cd1 N1 1_555 1_555
Cd2 N3 1_555 1_555
N1 C1 1_555 1_555
N2 Cd1 1_555 1_555
N3 C13 1_555 1_555
N4 Cd2 1_555 1_555
O1 Cd1 1_555 1_555
O2 C25 1_555 1_555
O3 C32 1_555 1_555
O4 Cd2 1_555 1_555
O5 Cd1 1_555 1_555
O6 Cd1 1_555 1_555
O7 C40 1_555 1_555
O8 C40 1_555 1_555
O9 C5 1_555 1_555
O10 C6 1_555 1_555
O11 C17 1_555 1_555
O12 C18 1_555 1_555
O13 Cd1 1_555 1_555
H1 O13 1_555 1_555
H2 O13 1_555 1_555
O14 Cd2 1_555 1_555
H3 O14 1_555 1_555
H4 O14 1_555 1_555
C1 H5 1_555 1_555
C2 C1 1_555 1_555
H6 C2 1_555 1_555
C3 C2 1_555 1_555
H7 C3 1_555 1_555
C4 C3 1_555 1_555
C5 C4 1_555 1_555
C6 C5 1_555 1_555
C7 C6 1_555 1_555
C8 C7 1_555 1_555
H8 C8 1_555 1_555
C9 C8 1_555 1_555
H9 C9 1_555 1_555
C10 N2 1_555 1_555
H10 C10 1_555 1_555
C11 N2 1_555 1_555
C12 N1 1_555 1_555
C13 H11 1_555 1_555
C14 C13 1_555 1_555
H12 C14 1_555 1_555
C15 C14 1_555 1_555
H13 C15 1_555 1_555
C16 C15 1_555 1_555
C17 C16 1_555 1_555
C18 C17 1_555 1_555
C19 C18 1_555 1_555
C20 C19 1_555 1_555
H14 C20 1_555 1_555
C21 C20 1_555 1_555
H15 C21 1_555 1_555
C22 N4 1_555 1_555
H16 C22 1_555 1_555
C23 N4 1_555 1_555
C24 N3 1_555 1_555
C25 O1 1_555 1_555
C26 C25 1_555 1_555
C27 C26 1_555 1_555
H17 C27 1_555 1_555
C28 C27 1_555 1_555
H18 C28 1_555 1_555
C29 C28 1_555 1_555
C30 C29 1_555 1_555
H19 C30 1_555 1_555
C31 C26 1_555 1_555
H20 C31 1_555 1_555
C32 O4 1_555 1_555
C33 O5 1_555 1_555
C34 C33 1_555 1_555
C35 C34 1_555 1_555
H21 C35 1_555 1_555
C36 C35 1_555 1_555
H22 C36 1_555 1_555
C37 C36 1_555 1_555
C38 C37 1_555 1_555
H23 C38 1_555 1_555
C39 C34 1_555 1_555
H24 C39 1_555 1_555
C40 C37 1_555 1_555
O7_2 Cd2 1_555 1_555
O8_2 Cd2 1_555 1_555
Cd2_2 O7 1_555 1_555
O6 C33 1_555 1_555
O8 Cd2_2 1_555 1_555
C4 C12 1_555 1_555
C7 C11 1_555 1_555
C9 C10 1_555 1_555
C11 C12 1_555 1_555
C16 C24 1_555 1_555
C19 C23 1_555 1_555
C21 C22 1_555 1_555
C23 C24 1_555 1_555
C29 C32 1_555 1_555
C30 C31 1_555 1_555
C38 C39 1_555 1_555

#END
