
#######################################################################
#
#                 Cambridge Crystallographic Data Centre
#                                CCDC 
#
#######################################################################
#
# If this CIF has been generated from an entry in the Cambridge 
# Structural Database, then it will include bibliographic, chemical, 
# crystal, experimental, refinement or atomic coordinate data resulting 
# from the CCDC's data processing and validation procedures.
#
#######################################################################

data_GOCYAY
_symmetry_cell_setting           monoclinic
_symmetry_space_group_name_H-M   'C c'
_symmetry_Int_Tables_number      9
_space_group_name_Hall           'C -2yc'
loop_
_symmetry_equiv_pos_site_id
_symmetry_equiv_pos_as_xyz
1 x,y,z
2 x,-y,1/2+z
3 1/2+x,1/2+y,z
4 1/2+x,1/2-y,1/2+z
_cell_length_a                   11.372(2)
_cell_length_b                   17.850(3)
_cell_length_c                   7.130(1)
_cell_angle_alpha                90
_cell_angle_beta                 119.14(3)
_cell_angle_gamma                90
_cell_volume                     1264.14
loop_
_atom_site_label
_atom_site_type_symbol
_atom_site_fract_x
_atom_site_fract_y
_atom_site_fract_z
Y1 Y -0.66717(1) -0.33151(4) -0.47447(3)
C1 C -0.091(1) -0.4228(8) 0.114(3)
C2 C -0.027(2) -0.4909(9) 0.189(3)
C3 C -0.098(1) -0.5568(8) 0.108(2)
C4 C -0.232(2) -0.5570(9) -0.052(3)
C5 C -0.297(2) -0.4873(8) -0.139(3)
C6 C -0.224(2) -0.4198(9) -0.049(3)
C7 C -0.015(1) -0.3502(5) 0.202(2)
C8 C -0.028(1) -0.6323(5) 0.181(2)
C9 C -0.441(1) -0.4886(5) -0.310(2)
O1 O 0.0979(7) -0.3529(3) 0.373(1)
O2 O -0.0666(7) -0.2894(4) 0.101(1)
O3 O -0.0981(7) -0.6903(3) 0.107(1)
O4 O 0.0974(7) -0.6331(4) 0.310(1)
O5 O -0.4982(8) -0.5520(4) -0.377(1)
O6 O -0.4992(7) -0.4265(3) -0.381(1)
O7 O -0.7814(7) -0.2531(4) -0.780(1)
O8 O -0.5120(7) -0.3129(3) -0.633(1)
O9 O -0.4927(7) -0.3200(4) -0.093(1)
O10 O -0.7072(7) -0.4280(4) -0.273(1)
O11 O -0.7634(7) -0.2612(4) -0.287(1)
O12 O -0.7379(8) -0.4136(4) -0.779(1)
H1 H 0.0767 -0.4925 0.3070
H2 H -0.2852 -0.6078 -0.1059
H3 H -0.2714 -0.3675 -0.1050
O2C O -0.5666(7) -0.2106(4) -0.399(1)
O1_2 O -0.9021(7) -0.3529(3) -0.627(1)
Y1C Y -0.16717(1) -0.16849(4) 0.02553(3)
Y1_2 Y 0.33283(1) -0.33151(4) 0.52553(3)
loop_
_geom_bond_atom_site_label_1
_geom_bond_atom_site_label_2
_geom_bond_site_symmetry_1
_geom_bond_site_symmetry_2
Y1 O6 1_555 1_555
C1 C2 1_555 1_555
C2 C3 1_555 1_555
C3 C4 1_555 1_555
C4 C5 1_555 1_555
C5 C6 1_555 1_555
C6 C1 1_555 1_555
C7 C1 1_555 1_555
C8 C3 1_555 1_555
C9 C5 1_555 1_555
O1 C7 1_555 1_555
O2 C7 1_555 1_555
O3 C8 1_555 1_555
O4 C8 1_555 1_555
O5 C9 1_555 1_555
O6 C9 1_555 1_555
O7 Y1 1_555 1_555
O8 Y1 1_555 1_555
O9 Y1 1_555 1_555
O10 Y1 1_555 1_555
O11 Y1 1_555 1_555
O12 Y1 1_555 1_555
H1 C2 1_555 1_555
H2 C4 1_555 1_555
H3 C6 1_555 1_555
O2C Y1 1_555 1_555
O1_2 Y1 1_555 1_555
Y1C O2 1_555 1_555
Y1_2 O1 1_555 1_555

#END
