
#######################################################################
#
#                 Cambridge Crystallographic Data Centre
#                                CCDC 
#
#######################################################################
#
# If this CIF has been generated from an entry in the Cambridge 
# Structural Database, then it will include bibliographic, chemical, 
# crystal, experimental, refinement or atomic coordinate data resulting 
# from the CCDC's data processing and validation procedures.
#
#######################################################################

data_GODBEI
_symmetry_cell_setting           orthorhombic
_symmetry_space_group_name_H-M   'P 21 21 21'
_symmetry_Int_Tables_number      19
_space_group_name_Hall           'P 2ac 2ab'
loop_
_symmetry_equiv_pos_site_id
_symmetry_equiv_pos_as_xyz
1 x,y,z
2 1/2+x,1/2-y,-z
3 -x,1/2+y,1/2-z
4 1/2-x,-y,1/2+z
_cell_length_a                   9.7554(10)
_cell_length_b                   14.3904(14)
_cell_length_c                   14.7968(14)
_cell_angle_alpha                90
_cell_angle_beta                 90
_cell_angle_gamma                90
_cell_volume                     2077.24
loop_
_atom_site_label
_atom_site_type_symbol
_atom_site_fract_x
_atom_site_fract_y
_atom_site_fract_z
Zn1 Zn 0.160479(19) 0.940204(13) 0.926650(12)
P1 P 0.08748(4) 1.15514(3) 0.92067(3)
P2 P 0.34712(5) 1.16109(3) 1.23131(3)
O1 O 0.18587(11) 1.07403(8) 0.91904(8)
O2 O -0.05226(12) 0.94651(9) 0.88220(8)
H1 H -0.067(2) 1.0024(10) 0.8763(13)
H2 H -0.069(2) 0.9203(12) 0.8307(11)
O3 O 0.28760(12) 1.13354(8) 1.32170(7)
O4 O 0.15626(15) 1.23630(9) 0.86668(9)
H3 H 0.117(2) 1.2678(16) 0.8377(15)
O5 O -0.05504(12) 1.13368(8) 0.88535(8)
O6 O 0.50209(12) 1.15660(8) 1.22600(8)
O7 O 0.29224(13) 1.26130(9) 1.21067(8)
H4 H 0.332(2) 1.2899(14) 1.1825(14)
N1 N 0.35584(15) 0.92042(9) 0.99211(9)
N2 N 0.11031(15) 0.85644(10) 1.03437(9)
C1 C -0.01794(18) 0.82804(12) 1.05286(11)
H5 H -0.0911 0.8508 1.0167
C2 C -0.0477(2) 0.76704(13) 1.12235(12)
H6 H -0.1394 0.7484 1.1340
C3 C 0.0595(2) 0.73381(13) 1.17464(12)
H7 H 0.0423 0.6913 1.2224
C4 C 0.1915(2) 0.76306(13) 1.15660(12)
H8 H 0.2660 0.7410 1.1920
C5 C 0.21412(18) 0.82504(11) 1.08614(11)
C6 C 0.35193(18) 0.86215(11) 1.06319(11)
C7 C 0.47026(19) 0.84074(13) 1.11192(12)
H9 H 0.4663 0.7995 1.1620
C8 C 0.5936(2) 0.88055(13) 1.08616(14)
H10 H 0.6752 0.8672 1.1187
C9 C 0.59682(19) 0.93973(15) 1.01282(13)
H11 H 0.6804 0.9672 0.9936
C10 C 0.47455(19) 0.95819(13) 0.96768(12)
H12 H 0.4760 0.9994 0.9175
C11 C 0.0752(2) 1.19709(13) 1.03594(12)
H13 H 0.1657 1.2213 1.0549
H14 H 0.0091 1.2493 1.0380
C12 C 0.02993(19) 1.12292(12) 1.10195(11)
C13 C 0.12353(17) 1.07022(12) 1.15308(11)
C14 C 0.0732(2) 1.00308(13) 1.21364(11)
H15 H 0.1358 0.9671 1.2482
C15 C -0.0676(2) 0.98869(14) 1.22362(12)
H16 H -0.1006 0.9434 1.2649
C16 C -0.1590(2) 1.04076(14) 1.17301(12)
H17 H -0.2548 1.0315 1.1798
C17 C -0.1106(2) 1.10620(14) 1.11269(13)
H18 H -0.1742 1.1408 1.0776
C18 C 0.27679(18) 1.08375(12) 1.14694(11)
H19 H 0.2992 1.1086 1.0863
H20 H 0.3219 1.0224 1.1528
Zn1C Zn 0.339521(19) 1.059796(13) 1.426650(12)
O3C O 0.21240(12) 0.86646(8) 0.82170(7)
loop_
_geom_bond_atom_site_label_1
_geom_bond_atom_site_label_2
_geom_bond_site_symmetry_1
_geom_bond_site_symmetry_2
Zn1 O1 1_555 1_555
P1 O1 1_555 1_555
P2 O3 1_555 1_555
O2 Zn1 1_555 1_555
H1 O2 1_555 1_555
H2 O2 1_555 1_555
O3 Zn1C 1_555 1_555
O4 P1 1_555 1_555
H3 O4 1_555 1_555
O5 P1 1_555 1_555
O6 P2 1_555 1_555
O7 P2 1_555 1_555
H4 O7 1_555 1_555
N1 Zn1 1_555 1_555
N2 Zn1 1_555 1_555
C1 N2 1_555 1_555
H5 C1 1_555 1_555
C2 C1 1_555 1_555
H6 C2 1_555 1_555
C3 C2 1_555 1_555
H7 C3 1_555 1_555
C4 C3 1_555 1_555
H8 C4 1_555 1_555
C5 N2 1_555 1_555
C6 N1 1_555 1_555
C7 C6 1_555 1_555
H9 C7 1_555 1_555
C8 C7 1_555 1_555
H10 C8 1_555 1_555
C9 C8 1_555 1_555
H11 C9 1_555 1_555
C10 N1 1_555 1_555
H12 C10 1_555 1_555
C11 P1 1_555 1_555
H13 C11 1_555 1_555
H14 C11 1_555 1_555
C12 C11 1_555 1_555
C13 C12 1_555 1_555
C14 C13 1_555 1_555
H15 C14 1_555 1_555
C15 C14 1_555 1_555
H16 C15 1_555 1_555
C16 C15 1_555 1_555
H17 C16 1_555 1_555
C17 C12 1_555 1_555
H18 C17 1_555 1_555
C18 P2 1_555 1_555
H19 C18 1_555 1_555
H20 C18 1_555 1_555
O3C Zn1 1_555 1_555
C4 C5 1_555 1_555
C5 C6 1_555 1_555
C9 C10 1_555 1_555
C13 C18 1_555 1_555
C16 C17 1_555 1_555

#END
