
#######################################################################
#
#                 Cambridge Crystallographic Data Centre
#                                CCDC 
#
#######################################################################
#
# If this CIF has been generated from an entry in the Cambridge 
# Structural Database, then it will include bibliographic, chemical, 
# crystal, experimental, refinement or atomic coordinate data resulting 
# from the CCDC's data processing and validation procedures.
#
#######################################################################

data_GODQIA
_symmetry_cell_setting           monoclinic
_symmetry_space_group_name_H-M   'P 21/c'
_symmetry_Int_Tables_number      14
_space_group_name_Hall           '-P 2ybc'
loop_
_symmetry_equiv_pos_site_id
_symmetry_equiv_pos_as_xyz
1 x,y,z
2 -x,1/2+y,1/2-z
3 -x,-y,-z
4 x,1/2-y,1/2+z
_cell_length_a                   14.996(3)
_cell_length_b                   18.118(4)
_cell_length_c                   23.820(5)
_cell_angle_alpha                90
_cell_angle_beta                 99.70(3)
_cell_angle_gamma                90
_cell_volume                     6379.31
loop_
_atom_site_label
_atom_site_type_symbol
_atom_site_fract_x
_atom_site_fract_y
_atom_site_fract_z
Gd1 Gd 0.85906(5) 0.19184(3) 0.09458(3)
Cu1 Cu 0.64153(11) 0.07269(8) 0.07782(6)
Cu2 Cu 0.87395(11) 0.04937(8) -0.02486(6)
Cu3 Cu 1.07150(12) 0.24113(9) 0.02512(7)
Cu4 Cu 0.98921(13) 0.35056(10) 0.18260(8)
Cu5 Cu 0.73971(11) 0.22966(9) 0.22698(6)
O1 O 0.6343(6) -0.0049(5) 0.0205(4)
O2 O 0.7496(6) 0.1037(5) 0.0502(3)
O3 O 0.9896(6) 0.0492(5) -0.0547(3)
O4 O 0.9299(6) 0.1261(4) 0.0253(3)
O5 O 1.1549(7) 0.3130(5) 0.0677(4)
O6 O 0.9916(7) 0.2645(6) 0.0782(4)
O7 O 0.8869(6) 0.2829(5) 0.1682(4)
O8 O 0.9483(7) 0.3746(5) 0.2534(4)
O9 O 0.7471(6) 0.1782(5) 0.1573(4)
O10 O 0.6491(6) 0.1551(5) 0.2382(4)
O11 O 0.8854(7) 0.0687(5) 0.1456(4)
O12 O 0.9975(7) 0.1436(6) 0.1596(4)
O13 O 1.0136(9) 0.0325(7) 0.1933(5)
O14 O 0.8158(7) 0.2562(5) 0.0026(4)
O15 O 0.7317(8) 0.2793(6) 0.0645(5)
O16 O 0.7022(10) 0.3288(8) -0.0221(6)
O17 O 0.5333(7) 0.1523(5) 0.0398(4)
O18 O 0.5811(7) 0.1587(6) -0.0416(4)
O19 O 0.4640(8) 0.2229(6) -0.0286(5)
O20 O 0.9164(11) 0.4578(9) 0.1283(7)
N1 N 0.7681(7) 0.0528(5) 0.0103(4)
N2 N 0.8088(7) -0.0411(6) -0.0619(4)
N3 N 0.6944(8) -0.1579(6) -0.1052(5)
N4 N 1.0032(7) 0.1528(6) 0.0045(4)
N5 N 1.1495(8) 0.1976(6) -0.0276(4)
N6 N 1.2283(10) 0.1280(7) -0.1134(5)
N7 N 1.0364(8) 0.3131(6) 0.1179(5)
N8 N 1.1095(8) 0.4016(6) 0.1956(4)
N9 N 1.2845(15) 0.4587(12) 0.2034(9)
N10 N 0.8443(7) 0.2861(5) 0.2155(4)
N11 N 0.7643(7) 0.2821(5) 0.3034(4)
N12 N 0.8145(7) 0.3752(6) 0.3971(4)
N13 N 0.6798(8) 0.1275(6) 0.1482(4)
N14 N 0.5513(8) 0.0331(6) 0.1245(4)
N15 N 0.4329(10) -0.0021(8) 0.1982(6)
N16 N 0.9664(8) 0.0792(6) 0.1662(5)
N17 N 0.7457(10) 0.2898(7) 0.0150(6)
N18 N 0.5277(8) 0.1777(6) -0.0107(4)
C1 C 0.7070(9) 0.0021(7) -0.0013(5)
C2 C 0.7284(9) -0.0527(7) -0.0439(5)
C3 C 0.6732(9) -0.1122(7) -0.0668(5)
H1 H 0.6175 -0.1197 -0.0537
C4 C 0.7726(10) -0.1444(8) -0.1235(6)
H2 H 0.7899 -0.1757 -0.1518
C5 C 0.8290(10) -0.0868(8) -0.1028(6)
H3 H 0.8832 -0.0791 -0.1177
C6 C 1.0297(9) 0.1084(7) -0.0351(5)
C7 C 1.1147(9) 0.1380(7) -0.0547(5)
C8 C 1.1505(10) 0.1016(7) -0.0966(6)
H4 H 1.1218 0.0586 -0.1138
C9 C 1.2654(11) 0.1870(9) -0.0863(6)
H5 H 1.3195 0.2063 -0.0964
C10 C 1.2271(11) 0.2232(9) -0.0421(7)
H6 H 1.2563 0.2650 -0.0232
C11 C 1.1147(10) 0.3339(7) 0.1112(5)
C12 C 1.1607(9) 0.3858(7) 0.1555(5)
C13 C 1.2449(13) 0.4119(10) 0.1603(8)
H7 H 1.2799 0.3975 0.1324
C14 C 1.2302(14) 0.4748(12) 0.2412(9)
H8 H 1.2524 0.5082 0.2710
C15 C 1.1441(10) 0.4460(8) 0.2398(6)
H9 H 1.1102 0.4571 0.2690
C16 C 0.8802(10) 0.3318(7) 0.2533(5)
C17 C 0.8326(9) 0.3315(7) 0.3049(5)
C18 C 0.8558(9) 0.3775(7) 0.3502(5)
H10 H 0.9026 0.4126 0.3492
C19 C 0.7489(9) 0.3272(7) 0.3959(5)
H11 H 0.7180 0.3238 0.4275
C20 C 0.7232(10) 0.2805(7) 0.3487(5)
H12 H 0.6749 0.2468 0.3492
C21 C 0.6324(10) 0.1199(7) 0.1891(5)
C22 C 0.5604(9) 0.0652(7) 0.1766(5)
C23 C 0.5022(10) 0.0456(8) 0.2135(6)
H13 H 0.5113 0.0662 0.2507
C24 C 0.4304(12) -0.0339(9) 0.1460(7)
H14 H 0.3855 -0.0704 0.1350
C25 C 0.4858(10) -0.0180(8) 0.1090(6)
H15 H 0.4793 -0.0419 0.0731
O21 O 0.6325(8) 0.3142(6) 0.1946(5)
N19 N 0.5110(12) 0.3458(9) 0.1322(7)
C26 C 0.5801(12) 0.3031(10) 0.1483(7)
H16 H 0.5913 0.2631 0.1247
C27 C 0.4423(19) 0.3251(15) 0.0799(11)
H17 H 0.4595 0.2780 0.0646
H18 H 0.4410 0.3636 0.0508
H19 H 0.3822 0.3206 0.0905
C28 C 0.501(2) 0.4191(16) 0.1658(12)
H20 H 0.5514 0.4232 0.1978
H21 H 0.4438 0.4186 0.1803
H22 H 0.5022 0.4615 0.1403
O22 O 1.0127(13) 0.3138(10) -0.0473(7)
N20 N 0.9082(17) 0.3703(13) -0.1167(10)
C29 C 0.951(4) 0.346(3) -0.0588(14)
H23 H 0.9206 0.3604 -0.0284
C30 C 0.955(3) 0.369(2) -0.1695(16)
H24 H 1.0133 0.3429 -0.1602
H25 H 0.9662 0.4196 -0.1811
H26 H 0.9167 0.3433 -0.2008
C31 C 0.835(3) 0.403(2) -0.1226(16)
H27 H 0.8105 0.4013 -0.0869
H28 H 0.7918 0.3801 -0.1530
H29 H 0.8436 0.4551 -0.1325
Cu2C Cu 0.87395(11) 0.45063(8) 0.47514(6)
N12C N 0.8145(7) 0.1248(6) -0.1029(4)
loop_
_geom_bond_atom_site_label_1
_geom_bond_atom_site_label_2
_geom_bond_site_symmetry_1
_geom_bond_site_symmetry_2
Gd1 O2 1_555 1_555
Cu1 O1 1_555 1_555
Cu2 O3 1_555 1_555
Cu3 O5 1_555 1_555
Cu4 O7 1_555 1_555
Cu5 O9 1_555 1_555
O1 C1 1_555 1_555
O2 Cu1 1_555 1_555
O3 C6 1_555 1_555
O4 Gd1 1_555 1_555
O5 C11 1_555 1_555
O6 Gd1 1_555 1_555
O7 Gd1 1_555 1_555
O8 Cu4 1_555 1_555
O9 Gd1 1_555 1_555
O10 Cu5 1_555 1_555
O11 Gd1 1_555 1_555
O12 Gd1 1_555 1_555
O13 N16 1_555 1_555
O14 Gd1 1_555 1_555
O15 Gd1 1_555 1_555
O16 N17 1_555 1_555
O17 Cu1 1_555 1_555
O18 N18 1_555 1_555
O19 N18 1_555 1_555
O20 Cu4 1_555 1_555
N1 Cu2 1_555 1_555
N2 Cu2 1_555 1_555
N3 C3 1_555 1_555
N4 Cu3 1_555 1_555
N5 Cu3 1_555 1_555
N6 C8 1_555 1_555
N7 Cu4 1_555 1_555
N8 Cu4 1_555 1_555
N9 C13 1_555 1_555
N10 Cu5 1_555 1_555
N11 Cu5 1_555 1_555
N12 C18 1_555 1_555
N13 Cu1 1_555 1_555
N14 Cu1 1_555 1_555
N15 C23 1_555 1_555
N16 O11 1_555 1_555
N17 O14 1_555 1_555
N18 O17 1_555 1_555
C1 N1 1_555 1_555
C2 N2 1_555 1_555
C3 C2 1_555 1_555
H1 C3 1_555 1_555
C4 N3 1_555 1_555
H2 C4 1_555 1_555
C5 N2 1_555 1_555
H3 C5 1_555 1_555
C6 N4 1_555 1_555
C7 N5 1_555 1_555
C8 C7 1_555 1_555
H4 C8 1_555 1_555
C9 N6 1_555 1_555
H5 C9 1_555 1_555
C10 N5 1_555 1_555
H6 C10 1_555 1_555
C11 N7 1_555 1_555
C12 N8 1_555 1_555
C13 C12 1_555 1_555
H7 C13 1_555 1_555
C14 N9 1_555 1_555
H8 C14 1_555 1_555
C15 N8 1_555 1_555
H9 C15 1_555 1_555
C16 O8 1_555 1_555
C17 N11 1_555 1_555
C18 C17 1_555 1_555
H10 C18 1_555 1_555
C19 N12 1_555 1_555
H11 C19 1_555 1_555
C20 N11 1_555 1_555
H12 C20 1_555 1_555
C21 O10 1_555 1_555
C22 N14 1_555 1_555
C23 C22 1_555 1_555
H13 C23 1_555 1_555
C24 N15 1_555 1_555
H14 C24 1_555 1_555
C25 N14 1_555 1_555
H15 C25 1_555 1_555
O21 Cu5 1_555 1_555
N19 C26 1_555 1_555
C26 O21 1_555 1_555
H16 C26 1_555 1_555
C27 N19 1_555 1_555
H17 C27 1_555 1_555
H18 C27 1_555 1_555
H19 C27 1_555 1_555
C28 N19 1_555 1_555
H20 C28 1_555 1_555
H21 C28 1_555 1_555
H22 C28 1_555 1_555
O22 Cu3 1_555 1_555
N20 C29 1_555 1_555
C29 O22 1_555 1_555
H23 C29 1_555 1_555
C30 N20 1_555 1_555
H24 C30 1_555 1_555
H25 C30 1_555 1_555
H26 C30 1_555 1_555
C31 N20 1_555 1_555
H27 C31 1_555 1_555
H28 C31 1_555 1_555
H29 C31 1_555 1_555
Cu2C N12 1_555 1_555
N12C Cu2 1_555 1_555
Cu2 O4 1_555 1_555
Cu3 O6 1_555 1_555
O2 N1 1_555 1_555
O4 N4 1_555 1_555
O6 N7 1_555 1_555
O7 N10 1_555 1_555
O9 N13 1_555 1_555
O12 N16 1_555 1_555
O15 N17 1_555 1_555
N10 C16 1_555 1_555
N13 C21 1_555 1_555
C1 C2 1_555 1_555
C4 C5 1_555 1_555
C6 C7 1_555 1_555
C9 C10 1_555 1_555
C11 C12 1_555 1_555
C14 C15 1_555 1_555
C16 C17 1_555 1_555
C19 C20 1_555 1_555
C21 C22 1_555 1_555
C24 C25 1_555 1_555

#END
