
#######################################################################
#
#                 Cambridge Crystallographic Data Centre
#                                CCDC 
#
#######################################################################
#
# If this CIF has been generated from an entry in the Cambridge 
# Structural Database, then it will include bibliographic, chemical, 
# crystal, experimental, refinement or atomic coordinate data resulting 
# from the CCDC's data processing and validation procedures.
#
#######################################################################

data_GODTOJ
_symmetry_cell_setting           tetragonal
_symmetry_space_group_name_H-M   'P 41 21 2'
_symmetry_Int_Tables_number      92
_space_group_name_Hall           'P 4abw 2nw'
loop_
_symmetry_equiv_pos_site_id
_symmetry_equiv_pos_as_xyz
1 x,y,z
2 -x,-y,1/2+z
3 1/2-y,1/2+x,1/4+z
4 1/2+y,1/2-x,3/4+z
5 1/2-x,1/2+y,1/4-z
6 1/2+x,1/2-y,3/4-z
7 y,x,-z
8 -y,-x,1/2-z
_cell_length_a                   8.6173(6)
_cell_length_b                   8.6173(6)
_cell_length_c                   37.986(5)
_cell_angle_alpha                90
_cell_angle_beta                 90
_cell_angle_gamma                90
_cell_volume                     2820.76
loop_
_atom_site_label
_atom_site_type_symbol
_atom_site_fract_x
_atom_site_fract_y
_atom_site_fract_z
Cu1 Cu 0.39695(5) 0.60305(5) 0.7500
Cu2 Cu 0.91110(5) 0.89058(6) 0.701440(11)
O1 O 0.5969(3) 0.5925(3) 0.72653(7)
O2 O 0.7309(3) 0.6970(3) 0.68225(7)
O3 O 0.0428(3) 0.9171(4) 0.66033(7)
O4 O 0.0763(3) 0.7622(3) 0.71975(7)
N1 N 0.3359(4) 0.7231(4) 0.70900(8)
N2 N 0.2978(4) 0.8828(4) 0.64495(8)
N3 N 0.7633(4) 1.0535(4) 0.68687(9)
N4 N 0.7985(4) 0.9169(4) 0.74708(8)
C1 C 0.6070(4) 0.6759(4) 0.69831(10)
C2 C 0.4588(5) 0.7463(5) 0.68616(10)
C3 C 0.4374(4) 0.8227(5) 0.65548(10)
H1 H 0.5224 0.8351 0.6407
C4 C 0.1803(5) 0.8631(5) 0.66653(10)
C5 C 0.1968(4) 0.7777(5) 0.70001(10)
C6 C 0.7549(5) 1.1163(5) 0.65487(11)
H2 H 0.8223 1.0813 0.6375
C7 C 0.6500(5) 1.2314(6) 0.64668(12)
H3 H 0.6450 1.2718 0.6240
C8 C 0.5528(5) 1.2853(6) 0.67264(13)
H4 H 0.4824 1.3642 0.6678
C9 C 0.5605(5) 1.2214(5) 0.70606(11)
H5 H 0.4962 1.2570 0.7240
C10 C 0.6662(4) 1.1031(5) 0.71216(10)
C11 C 0.6834(4) 1.0233(5) 0.74625(10)
C12 C 0.5909(5) 1.0492(5) 0.77567(11)
H6 H 0.5107 1.1213 0.7749
C13 C 0.6203(6) 0.9657(6) 0.80613(11)
H7 H 0.5602 0.9822 0.8261
C14 C 0.7376(6) 0.8593(6) 0.80678(11)
H8 H 0.7579 0.8025 0.8271
C15 C 0.8258(5) 0.8372(5) 0.77680(11)
H9 H 0.9061 0.7652 0.7772
Cu2G Cu 0.10942(6) 0.08890(5) 0.798560(11)
Cu2_2 Cu -0.08890(5) 0.89058(6) 0.701440(11)
Cu2G_2 Cu 0.10942(6) 1.08890(5) 0.798560(11)
O1G O 0.4075(3) 0.4031(3) 0.77347(7)
O2G O 0.3030(3) 0.2691(3) 0.81775(7)
O3G O 0.0829(4) 0.9572(3) 0.83967(7)
O3_2 O 1.0428(3) 0.9171(4) 0.66033(7)
O3G_2 O 0.0829(4) -0.0428(3) 0.83967(7)
O4G O 0.2378(3) 0.9237(3) 0.78025(7)
O4_2 O 1.0763(3) 0.7622(3) 0.71975(7)
O4G_2 O 0.2378(3) -0.0763(3) 0.78025(7)
N1G N 0.2769(4) 0.6641(4) 0.79100(8)
N2G N 0.1172(4) 0.7022(4) 0.85505(8)
N3G N -0.0535(4) 0.2367(4) 0.81313(9)
N4G N 0.0831(4) 0.2015(4) 0.75292(8)
C1G C 0.3241(4) 0.3930(4) 0.80169(10)
C2G C 0.2537(5) 0.5412(5) 0.81384(10)
C3G C 0.1773(5) 0.5626(4) 0.84452(10)
H1G H 0.1649 0.4776 0.8593
C4G C 0.1369(5) 0.8197(5) 0.83347(10)
C5G C 0.2223(5) 0.8032(4) 0.79999(10)
C6G C -0.1163(5) 0.2451(5) 0.84513(11)
H2G H -0.0813 0.1777 0.8625
C7G C -0.2314(6) 0.3500(5) 0.85332(12)
H3G H -0.2718 0.3550 0.8760
C8G C -0.2853(6) 0.4472(5) 0.82736(13)
H4G H -0.3642 0.5176 0.8322
C9G C -0.2214(5) 0.4395(5) 0.79394(11)
H5G H -0.2570 0.5038 0.7760
C10G C -0.1031(5) 0.3338(4) 0.78784(10)
C11G C -0.0233(5) 0.3166(4) 0.75375(10)
C12G C -0.0492(5) 0.4091(5) 0.72433(11)
H6G H -0.1213 0.4893 0.7251
C13G C 0.0343(6) 0.3797(6) 0.69387(11)
H7G H 0.0178 0.4398 0.6739
C14G C 0.1407(6) 0.2624(6) 0.69322(11)
H8G H 0.1975 0.2421 0.6729
C15G C 0.1628(5) 0.1742(5) 0.72320(11)
H9G H 0.2348 0.0939 0.7228
loop_
_geom_bond_atom_site_label_1
_geom_bond_atom_site_label_2
_geom_bond_site_symmetry_1
_geom_bond_site_symmetry_2
Cu1 O1 1_555 1_555
Cu2 O2 1_555 1_555
O1 C1 1_555 1_555
O2 C1 1_555 1_555
O3 C4 1_555 1_555
O4 C5 1_555 1_555
N1 Cu1 1_555 1_555
N2 C3 1_555 1_555
N3 Cu2 1_555 1_555
N4 Cu2 1_555 1_555
C1 C2 1_555 1_555
C2 N1 1_555 1_555
C3 C2 1_555 1_555
H1 C3 1_555 1_555
C4 N2 1_555 1_555
C5 N1 1_555 1_555
C6 N3 1_555 1_555
H2 C6 1_555 1_555
C7 C6 1_555 1_555
H3 C7 1_555 1_555
C8 C7 1_555 1_555
H4 C8 1_555 1_555
C9 C8 1_555 1_555
H5 C9 1_555 1_555
C10 N3 1_555 1_555
C11 N4 1_555 1_555
C12 C11 1_555 1_555
H6 C12 1_555 1_555
C13 C12 1_555 1_555
H7 C13 1_555 1_555
C14 C13 1_555 1_555
H8 C14 1_555 1_555
C15 N4 1_555 1_555
H9 C15 1_555 1_555
Cu2G O2G 1_555 1_555
Cu2_2 O3 1_555 1_555
Cu2G_2 O3G 1_555 1_555
O1G Cu1 1_555 1_555
O2G C1G 1_555 1_555
O3G C4G 1_555 1_555
O3_2 Cu2 1_555 1_555
O3G_2 Cu2G 1_555 1_555
O4G Cu2G_2 1_555 1_555
O4_2 Cu2 1_555 1_555
O4G_2 Cu2G 1_555 1_555
N1G Cu1 1_555 1_555
N2G C3G 1_555 1_555
N3G Cu2G 1_555 1_555
N4G Cu2G 1_555 1_555
C1G O1G 1_555 1_555
C2G N1G 1_555 1_555
C3G C2G 1_555 1_555
H1G C3G 1_555 1_555
C4G N2G 1_555 1_555
C5G O4G 1_555 1_555
C6G N3G 1_555 1_555
H2G C6G 1_555 1_555
C7G C6G 1_555 1_555
H3G C7G 1_555 1_555
C8G C7G 1_555 1_555
H4G C8G 1_555 1_555
C9G C8G 1_555 1_555
H5G C9G 1_555 1_555
C10G N3G 1_555 1_555
C11G N4G 1_555 1_555
C12G C11G 1_555 1_555
H6G C12G 1_555 1_555
C13G C12G 1_555 1_555
H7G C13G 1_555 1_555
C14G C13G 1_555 1_555
H8G C14G 1_555 1_555
C15G N4G 1_555 1_555
H9G C15G 1_555 1_555
O4 Cu2_2 1_555 1_555
C4 C5 1_555 1_555
C9 C10 1_555 1_555
C10 C11 1_555 1_555
C14 C15 1_555 1_555
N1G C5G 1_555 1_555
C1G C2G 1_555 1_555
C4G C5G 1_555 1_555
C9G C10G 1_555 1_555
C10G C11G 1_555 1_555
C14G C15G 1_555 1_555

#END
