
#######################################################################
#
#                 Cambridge Crystallographic Data Centre
#                                CCDC 
#
#######################################################################
#
# If this CIF has been generated from an entry in the Cambridge 
# Structural Database, then it will include bibliographic, chemical, 
# crystal, experimental, refinement or atomic coordinate data resulting 
# from the CCDC's data processing and validation procedures.
#
#######################################################################

data_GODTUP
_symmetry_cell_setting           monoclinic
_symmetry_space_group_name_H-M   'P 21/c'
_symmetry_Int_Tables_number      14
_space_group_name_Hall           '-P 2ybc'
loop_
_symmetry_equiv_pos_site_id
_symmetry_equiv_pos_as_xyz
1 x,y,z
2 -x,1/2+y,1/2-z
3 -x,-y,-z
4 x,1/2-y,1/2+z
_cell_length_a                   9.5561(11)
_cell_length_b                   17.521(3)
_cell_length_c                   10.0643(16)
_cell_angle_alpha                90
_cell_angle_beta                 90.821(5)
_cell_angle_gamma                90
_cell_volume                     1684.92
loop_
_atom_site_label
_atom_site_type_symbol
_atom_site_fract_x
_atom_site_fract_y
_atom_site_fract_z
Cu1 Cu 0.87634(2) 0.169491(13) 0.18523(2)
Cu2 Cu 0.5000 0.5000 0.0000
O1 O 0.69013(15) 0.17497(7) 0.26060(15)
O2 O 0.51615(19) 0.24627(10) 0.3306(2)
O3 O 0.97132(15) 0.29924(9) -0.14902(14)
O4 O 1.07096(16) 0.35870(11) 0.02393(18)
O5 O 0.85542(14) 0.46136(8) -0.18640(15)
O6 O 0.64402(16) 0.50733(8) -0.13637(15)
N1 N 0.79093(16) 0.29321(9) 0.11258(16)
N2 N 0.61565(16) 0.41382(9) 0.06030(16)
N3 N 0.81060(17) 0.10880(9) 0.02680(17)
N4 N 1.05533(17) 0.16266(9) 0.08965(17)
C1 C 0.6206(2) 0.23608(11) 0.2637(2)
C2 C 0.66751(19) 0.30022(11) 0.17351(19)
C3 C 0.82672(19) 0.34664(10) 0.02424(19)
C4 C 0.73472(19) 0.40677(10) -0.00529(18)
C5 C 0.5801(2) 0.36148(11) 0.14992(19)
H3 H 0.4970 0.3663 0.1962
C6 C 0.9700(2) 0.33612(11) -0.0398(2)
C7 C 0.7496(2) 0.46340(10) -0.11892(19)
C8 C 0.6822(2) 0.07961(14) 0.0075(2)
H4 H 0.6116 0.0928 0.0659
C9 C 0.6515(3) 0.03077(14) -0.0957(3)
H5 H 0.5611 0.0121 -0.1078
C10 C 0.7563(3) 0.00971(13) -0.1810(3)
H6 H 0.7383 -0.0249 -0.2492
C11 C 0.8887(2) 0.04055(13) -0.1640(2)
H7 H 0.9601 0.0284 -0.2222
C12 C 0.9124(2) 0.08997(11) -0.0583(2)
C13 C 1.0498(2) 0.12424(11) -0.0264(2)
C14 C 1.1651(2) 0.11753(13) -0.1071(2)
H8 H 1.1598 0.0910 -0.1870
C15 C 1.2887(3) 0.15161(15) -0.0648(3)
H9 H 1.3685 0.1475 -0.1161
C16 C 1.2938(2) 0.19117(15) 0.0516(3)
H10 H 1.3761 0.2151 0.0792
C17 C 1.1752(2) 0.19548(13) 0.1285(2)
H11 H 1.1790 0.2217 0.2088
Cu1B Cu 0.12366(2) 0.830509(13) -0.18523(2)
Cu1C Cu 0.87634(2) 0.330509(13) -0.31477(2)
Cu1A Cu 0.12366(2) 0.669491(13) 0.31477(2)
O1B O 0.30987(15) 0.82503(7) -0.26060(15)
O2B O 0.48385(19) 0.75373(10) -0.3306(2)
O3B O 0.02868(15) 0.70076(9) 0.14902(14)
O3C O 0.97132(15) 0.20076(9) 0.35098(14)
O3A O 0.02868(15) 0.79924(9) -0.35098(14)
O4B O -0.07096(16) 0.64130(11) -0.02393(18)
O5B O 0.14458(14) 0.53864(8) 0.18640(15)
O6B O 0.35598(16) 0.49267(8) 0.13637(15)
N1B N 0.20907(16) 0.70679(9) -0.11258(16)
N2B N 0.38435(16) 0.58618(9) -0.06030(16)
N3B N 0.18940(17) 0.89120(9) -0.02680(17)
N4B N -0.05533(17) 0.83734(9) -0.08965(17)
C1B C 0.3794(2) 0.76392(11) -0.2637(2)
C2B C 0.33249(19) 0.69978(11) -0.17351(19)
C3B C 0.17328(19) 0.65336(10) -0.02424(19)
C4B C 0.26528(19) 0.59323(10) 0.00529(18)
C5B C 0.4199(2) 0.63852(11) -0.14992(19)
H3B H 0.5030 0.6337 -0.1962
C6B C 0.0300(2) 0.66388(11) 0.0398(2)
C7B C 0.2504(2) 0.53660(10) 0.11892(19)
C8B C 0.3178(2) 0.92039(14) -0.0075(2)
H4B H 0.3884 0.9072 -0.0659
C9B C 0.3485(3) 0.96923(14) 0.0957(3)
H5B H 0.4389 0.9879 0.1078
C10B C 0.2437(3) 0.99029(13) 0.1810(3)
H6B H 0.2617 1.0249 0.2492
C11B C 0.1113(2) 0.95945(13) 0.1640(2)
H7B H 0.0399 0.9716 0.2222
C12B C 0.0876(2) 0.91003(11) 0.0583(2)
C13B C -0.0498(2) 0.87576(11) 0.0264(2)
C14B C -0.1651(2) 0.88247(13) 0.1071(2)
H8B H -0.1598 0.9090 0.1870
C15B C -0.2887(3) 0.84839(15) 0.0648(3)
H9B H -0.3685 0.8525 0.1161
C16B C -0.2938(2) 0.80883(15) -0.0516(3)
H10B H -0.3761 0.7849 -0.0792
C17B C -0.1752(2) 0.80452(13) -0.1285(2)
H11B H -0.1790 0.7783 -0.2088
O7 O 0.34795(18) 0.11372(10) 0.40405(19)
H1 H 0.2702(19) 0.1285(18) 0.430(3)
H2 H 0.386(3) 0.1574(9) 0.401(3)
loop_
_geom_bond_atom_site_label_1
_geom_bond_atom_site_label_2
_geom_bond_site_symmetry_1
_geom_bond_site_symmetry_2
Cu1 O1 1_555 1_555
Cu2 O6 1_555 1_555
O1 C1 1_555 1_555
O2 C1 1_555 1_555
O3 C6 1_555 1_555
O4 C6 1_555 1_555
O5 C7 1_555 1_555
O6 C7 1_555 1_555
O7 H1 1_555 1_555
H2 O7 1_555 1_555
N1 Cu1 1_555 1_555
N2 Cu2 1_555 1_555
N3 Cu1 1_555 1_555
N4 Cu1 1_555 1_555
C1 C2 1_555 1_555
C2 N1 1_555 1_555
C3 N1 1_555 1_555
C4 N2 1_555 1_555
C5 N2 1_555 1_555
H3 C5 1_555 1_555
C6 C3 1_555 1_555
C7 C4 1_555 1_555
C8 N3 1_555 1_555
H4 C8 1_555 1_555
C9 C8 1_555 1_555
H5 C9 1_555 1_555
C10 C9 1_555 1_555
H6 C10 1_555 1_555
C11 C10 1_555 1_555
H7 C11 1_555 1_555
C12 N3 1_555 1_555
C13 N4 1_555 1_555
C14 C13 1_555 1_555
H8 C14 1_555 1_555
C15 C14 1_555 1_555
H9 C15 1_555 1_555
C16 C15 1_555 1_555
H10 C16 1_555 1_555
C17 N4 1_555 1_555
H11 C17 1_555 1_555
Cu1B O1B 1_555 1_555
Cu1C O3 1_555 1_555
Cu1A O3B 1_555 1_555
O1B C1B 1_555 1_555
O2B C1B 1_555 1_555
O3B C6B 1_555 1_555
O3C Cu1 1_555 1_555
O3A Cu1B 1_555 1_555
O4B C6B 1_555 1_555
O5B C7B 1_555 1_555
O6B Cu2 1_555 1_555
N1B Cu1B 1_555 1_555
N2B Cu2 1_555 1_555
N3B Cu1B 1_555 1_555
N4B Cu1B 1_555 1_555
C1B C2B 1_555 1_555
C2B N1B 1_555 1_555
C3B N1B 1_555 1_555
C4B N2B 1_555 1_555
C5B N2B 1_555 1_555
H3B C5B 1_555 1_555
C6B C3B 1_555 1_555
C7B O6B 1_555 1_555
C8B N3B 1_555 1_555
H4B C8B 1_555 1_555
C9B C8B 1_555 1_555
H5B C9B 1_555 1_555
C10B C9B 1_555 1_555
H6B C10B 1_555 1_555
C11B C10B 1_555 1_555
H7B C11B 1_555 1_555
C12B N3B 1_555 1_555
C13B N4B 1_555 1_555
C14B C13B 1_555 1_555
H8B C14B 1_555 1_555
C15B C14B 1_555 1_555
H9B C15B 1_555 1_555
C16B C15B 1_555 1_555
H10B C16B 1_555 1_555
C17B N4B 1_555 1_555
H11B C17B 1_555 1_555
C2 C5 1_555 1_555
C3 C4 1_555 1_555
C11 C12 1_555 1_555
C12 C13 1_555 1_555
C16 C17 1_555 1_555
C2B C5B 1_555 1_555
C3B C4B 1_555 1_555
C4B C7B 1_555 1_555
C11B C12B 1_555 1_555
C12B C13B 1_555 1_555
C16B C17B 1_555 1_555

#END
