
#######################################################################
#
#                 Cambridge Crystallographic Data Centre
#                                CCDC 
#
#######################################################################
#
# If this CIF has been generated from an entry in the Cambridge 
# Structural Database, then it will include bibliographic, chemical, 
# crystal, experimental, refinement or atomic coordinate data resulting 
# from the CCDC's data processing and validation procedures.
#
#######################################################################

data_GOFDEL
_symmetry_cell_setting           monoclinic
_symmetry_space_group_name_H-M   'C 2/c'
_symmetry_Int_Tables_number      15
_space_group_name_Hall           '-C 2yn'
loop_
_symmetry_equiv_pos_site_id
_symmetry_equiv_pos_as_xyz
1 x,y,z
2 1/2+x,1/2+y,z
3 -x,y,1/2-z
4 1/2-x,1/2+y,1/2-z
5 -x,-y,-z
6 1/2-x,1/2-y,-z
7 x,-y,1/2+z
8 1/2+x,1/2-y,1/2+z
_cell_length_a                   30.8616(7)
_cell_length_b                   15.0818(3)
_cell_length_c                   21.7116(5)
_cell_angle_alpha                90
_cell_angle_beta                 123.0290(10)
_cell_angle_gamma                90
_cell_volume                     8472.51
loop_
_atom_site_label
_atom_site_type_symbol
_atom_site_fract_x
_atom_site_fract_y
_atom_site_fract_z
Li1 Li 0.18696(13) 0.3380(2) 0.28823(19)
Li2 Li 0.19769(12) 0.4701(2) 0.37354(18)
Li3 Li 0.19215(12) 0.4968(2) 0.25180(17)
Li4 Li 0.10813(12) 0.4468(2) 0.24705(18)
N1 N 0.27115(6) 0.45316(10) 0.48109(9)
O1 O 0.23729(5) 0.43045(8) 0.33468(7)
O2 O 0.14838(5) 0.36799(8) 0.33334(7)
O3 O 0.15103(5) 0.54994(7) 0.28911(7)
O4 O 0.14168(5) 0.40254(8) 0.19540(7)
O5 O 0.27688(5) 0.09357(8) 0.27158(7)
O6 O 0.21775(6) 0.22316(9) 0.28712(8)
O7 O 0.04002(5) 0.46148(8) 0.23623(7)
C1 C 0.28968(7) 0.41826(13) 0.38550(11)
H1 H 0.3090 0.4408 0.3655
H2 H 0.2969 0.3554 0.3948
C2 C 0.30751(7) 0.46551(13) 0.45763(11)
H3 H 0.3412 0.4430 0.4956
H4 H 0.3111 0.5284 0.4519
C3 C 0.26746(8) 0.35865(13) 0.49510(11)
H5 H 0.3014 0.3358 0.5296
H6 H 0.2522 0.3261 0.4499
H7 H 0.2464 0.3525 0.5149
C4 C 0.28954(9) 0.50355(14) 0.54846(11)
H8 H 0.2650 0.4986 0.5624
H9 H 0.2934 0.5648 0.5402
H10 H 0.3223 0.4804 0.5870
C5 C 0.12842(7) 0.32425(12) 0.36617(10)
C6 C 0.10882(7) 0.23775(12) 0.34467(11)
C7 C 0.08902(8) 0.19387(12) 0.38057(11)
H11 H 0.0759 0.1369 0.3654
C8 C 0.08810(8) 0.23168(13) 0.43822(11)
C9 C 0.10618(7) 0.31824(13) 0.45745(11)
H12 H 0.1054 0.3457 0.4952
C10 C 0.12530(7) 0.36494(12) 0.42210(10)
C11 C 0.10884(9) 0.19223(13) 0.28302(12)
H13 H 0.1425 0.1678 0.3012
H14 H 0.1004 0.2344 0.2449
H15 H 0.0837 0.1455 0.2636
C12 C 0.06803(10) 0.18142(15) 0.47795(14)
H16 H 0.0966 0.1594 0.5237
H17 H 0.0471 0.1326 0.4481
H18 H 0.0476 0.2203 0.4872
C13 C 0.14076(8) 0.46111(13) 0.44117(12)
H19 H 0.1776 0.4664 0.4661
H20 H 0.1300 0.4822 0.4726
H21 H 0.1244 0.4958 0.3970
C14 C 0.14333(7) 0.63687(11) 0.27621(10)
C15 C 0.16949(7) 0.69778(12) 0.33451(10)
C16 C 0.16265(8) 0.78888(12) 0.32002(11)
H22 H 0.1799 0.8282 0.3592
C17 C 0.13121(8) 0.82279(12) 0.24965(12)
C18 C 0.10510(8) 0.76152(13) 0.19283(12)
H23 H 0.0833 0.7825 0.1452
C19 C 0.11025(7) 0.67007(12) 0.20432(10)
C20 C 0.20604(8) 0.66476(13) 0.41082(11)
H24 H 0.2199 0.7141 0.4441
H25 H 0.2337 0.6329 0.4129
H26 H 0.1880 0.6260 0.4246
C21 C 0.12730(10) 0.92139(13) 0.23500(14)
H27 H 0.1288 0.9525 0.2747
H28 H 0.0952 0.9343 0.1899
H29 H 0.1555 0.9400 0.2311
C22 C 0.08177(7) 0.60800(13) 0.14016(11)
H30 H 0.1051 0.5633 0.1434
H31 H 0.0680 0.6406 0.0953
H32 H 0.0540 0.5804 0.1408
C23 C 0.12907(7) 0.37607(11) 0.12838(10)
C24 C 0.16747(7) 0.36591(11) 0.11217(11)
C25 C 0.15339(8) 0.33696(14) 0.04289(12)
H33 H 0.1791 0.3291 0.0333
C26 C 0.10263(9) 0.31935(16) -0.01251(12)
C27 C 0.06532(8) 0.32986(16) 0.00427(12)
H34 H 0.0310 0.3179 -0.0319
C28 C 0.07750(7) 0.35747(13) 0.07289(11)
C29 C 0.22332(7) 0.38650(13) 0.16878(11)
H35 H 0.2447 0.3605 0.1541
H36 H 0.2326 0.3625 0.2154
H37 H 0.2283 0.4496 0.1730
C30 C 0.08814(11) 0.2895(2) -0.08820(14)
H38 H 0.0979 0.3344 -0.1098
H39 H 0.0515 0.2799 -0.1187
H40 H 0.1059 0.2353 -0.0840
C31 C 0.03579(8) 0.36565(14) 0.08859(11)
H41 H 0.0027 0.3553 0.0443
H42 H 0.0365 0.4242 0.1066
H43 H 0.0415 0.3227 0.1249
C32 C 0.23942(8) 0.14619(13) 0.21041(12)
H44 H 0.2252 0.1123 0.1654
H45 H 0.2560 0.1986 0.2064
C33 C 0.19659(8) 0.17345(14) 0.22035(12)
H46 H 0.1715 0.2094 0.1790
H47 H 0.1791 0.1212 0.2223
C34 C 0.25507(8) 0.17088(13) 0.34813(12)
H48 H 0.2384 0.1188 0.3523
H49 H 0.2693 0.2050 0.3930
C35 C 0.29813(8) 0.14257(13) 0.33879(12)
H50 H 0.3163 0.1944 0.3376
H51 H 0.3226 0.1059 0.3800
C36 C 0.01026(8) 0.53947(12) 0.22528(12)
H52 H -0.0185 0.5424 0.1744
H53 H 0.0316 0.5915 0.2355
C37 C 0.00907(7) 0.38376(12) 0.22418(11)
H54 H 0.0294 0.3309 0.2321
H55 H -0.0205 0.3831 0.1738
Li1C Li 0.31304(13) -0.1620(2) 0.21177(19)
Li1C_2 Li 0.31304(13) 0.8380(2) 0.21177(19)
Li2C Li 0.30231(12) -0.0299(2) 0.12646(18)
Li3C Li 0.30785(12) -0.0032(2) 0.24820(17)
Li4C Li 0.39187(12) -0.0532(2) 0.25295(18)
Li4B Li -0.10813(12) 0.4468(2) 0.25295(18)
N1C N 0.22885(6) -0.04684(10) 0.01891(9)
O1C O 0.26271(5) -0.06955(8) 0.16532(7)
O2C O 0.35162(5) -0.13201(8) 0.16666(7)
O3C O 0.34897(5) 0.04994(7) 0.21089(7)
O4C O 0.35832(5) -0.09746(8) 0.30460(7)
O5C O 0.22312(5) 0.59357(8) 0.22842(7)
O6C O 0.28225(6) 0.72316(9) 0.21288(8)
O6C_2 O 0.28225(6) -0.27684(9) 0.21288(8)
O7B O -0.04002(5) 0.46148(8) 0.26377(7)
O7C O 0.45998(5) -0.03852(8) 0.26377(7)
C1C C 0.21032(7) -0.08174(13) 0.11450(11)
H1C H 0.1910 -0.0592 0.1345
H2C H 0.2031 -0.1446 0.1052
C2C C 0.19249(7) -0.03449(13) 0.04237(11)
H3C H 0.1588 -0.0570 0.0044
H4C H 0.1889 0.0284 0.0481
C3C C 0.23254(8) -0.14135(13) 0.00490(11)
H5C H 0.1986 -0.1642 -0.0296
H6C H 0.2478 -0.1739 0.0501
H7C H 0.2536 -0.1475 -0.0149
C4C C 0.21046(9) 0.00355(14) -0.04846(11)
H8C H 0.2350 -0.0014 -0.0624
H9C H 0.2066 0.0648 -0.0402
H10C H 0.1777 -0.0196 -0.0870
C5C C 0.37158(7) -0.17575(12) 0.13383(10)
C6C C 0.39118(7) -0.26225(12) 0.15533(11)
C7C C 0.41098(8) -0.30613(12) 0.11943(11)
H11C H 0.4241 -0.3631 0.1346
C8C C 0.41190(8) -0.26832(13) 0.06178(11)
C9C C 0.39382(7) -0.18176(13) 0.04255(11)
H12C H 0.3946 -0.1543 0.0048
C10C C 0.37470(7) -0.13506(12) 0.07790(10)
C11C C 0.39116(9) -0.30777(13) 0.21698(12)
H13C H 0.3575 -0.3322 0.1988
H14C H 0.3996 -0.2656 0.2551
H15C H 0.4163 -0.3545 0.2364
C12C C 0.43197(10) -0.31858(15) 0.02205(14)
H16C H 0.4034 -0.3406 -0.0237
H17C H 0.4529 -0.3674 0.0519
H18C H 0.4524 -0.2797 0.0128
C13C C 0.35924(8) -0.03889(13) 0.05883(12)
H19C H 0.3224 -0.0336 0.0339
H20C H 0.3700 -0.0178 0.0274
H21C H 0.3756 -0.0042 0.1030
C14C C 0.35667(7) 0.13687(11) 0.22379(10)
C15C C 0.33051(7) 0.19778(12) 0.16549(10)
C16C C 0.33735(8) 0.28888(12) 0.17998(11)
H22C H 0.3201 0.3282 0.1408
C17C C 0.36879(8) 0.32279(12) 0.25035(12)
C18C C 0.39490(8) 0.26152(13) 0.30717(12)
H23C H 0.4167 0.2825 0.3548
C19C C 0.38975(7) 0.17007(12) 0.29568(10)
C20C C 0.29396(8) 0.16476(13) 0.08918(11)
H24C H 0.2801 0.2141 0.0559
H25C H 0.2663 0.1329 0.0871
H26C H 0.3120 0.1260 0.0754
C21C C 0.37270(10) 0.42139(13) 0.26500(14)
H27C H 0.3712 0.4525 0.2253
H28C H 0.4048 0.4343 0.3101
H29C H 0.3445 0.4400 0.2689
C22C C 0.41823(7) 0.10800(13) 0.35984(11)
H30C H 0.3949 0.0633 0.3566
H31C H 0.4320 0.1406 0.4047
H32C H 0.4460 0.0804 0.3592
C23C C 0.37093(7) -0.12393(11) 0.37162(10)
C24C C 0.33253(7) -0.13409(11) 0.38783(11)
C25C C 0.34661(8) -0.16304(14) 0.45711(12)
H33C H 0.3209 -0.1709 0.4667
C26C C 0.39737(9) -0.18065(16) 0.51251(12)
C27C C 0.43468(8) -0.17014(16) 0.49573(12)
H34C H 0.4690 -0.1821 0.5319
C28C C 0.42250(7) -0.14253(13) 0.42711(11)
C29C C 0.27668(7) -0.11350(13) 0.33122(11)
H35C H 0.2553 -0.1395 0.3459
H36C H 0.2674 -0.1375 0.2846
H37C H 0.2717 -0.0504 0.3270
C30C C 0.41186(11) -0.2105(2) 0.58820(14)
H38C H 0.4021 -0.1656 0.6098
H39C H 0.4485 -0.2201 0.6187
H40C H 0.3941 -0.2647 0.5840
C31C C 0.46421(8) -0.13435(14) 0.41141(11)
H41C H 0.4973 -0.1447 0.4557
H42C H 0.4635 -0.0758 0.3934
H43C H 0.4585 -0.1773 0.3751
C32C C 0.26058(8) 0.64619(13) 0.28959(12)
H44C H 0.2748 0.6123 0.3346
H45C H 0.2440 0.6986 0.2936
C33C C 0.30341(8) 0.67345(14) 0.27965(12)
H46C H 0.3285 0.7094 0.3210
H47C H 0.3209 0.6212 0.2777
C34C C 0.24493(8) 0.67088(13) 0.15187(12)
H48C H 0.2616 0.6188 0.1477
H49C H 0.2307 0.7050 0.1070
C35C C 0.20187(8) 0.64257(13) 0.16121(12)
H50C H 0.1837 0.6944 0.1624
H51C H 0.1774 0.6059 0.1200
C36B C -0.01026(8) 0.53947(12) 0.27472(12)
H52B H 0.0185 0.5424 0.3256
H53B H -0.0316 0.5915 0.2645
C37B C -0.00907(7) 0.38376(12) 0.27582(11)
H54B H -0.0294 0.3309 0.2679
H55B H 0.0205 0.3831 0.3262
loop_
_geom_bond_atom_site_label_1
_geom_bond_atom_site_label_2
_geom_bond_site_symmetry_1
_geom_bond_site_symmetry_2
Li1 O1 1_555 1_555
Li2 N1 1_555 1_555
Li3 O1 1_555 1_555
Li4 O2 1_555 1_555
N1 C2 1_555 1_555
O1 Li2 1_555 1_555
O2 Li1 1_555 1_555
O3 Li2 1_555 1_555
O4 Li1 1_555 1_555
O5 C32 1_555 1_555
O6 Li1 1_555 1_555
O7 Li4 1_555 1_555
C1 O1 1_555 1_555
H1 C1 1_555 1_555
H2 C1 1_555 1_555
C2 C1 1_555 1_555
H3 C2 1_555 1_555
H4 C2 1_555 1_555
C3 N1 1_555 1_555
H5 C3 1_555 1_555
H6 C3 1_555 1_555
H7 C3 1_555 1_555
C4 N1 1_555 1_555
H8 C4 1_555 1_555
H9 C4 1_555 1_555
H10 C4 1_555 1_555
C5 O2 1_555 1_555
C6 C5 1_555 1_555
C7 C6 1_555 1_555
H11 C7 1_555 1_555
C8 C7 1_555 1_555
C9 C8 1_555 1_555
H12 C9 1_555 1_555
C10 C5 1_555 1_555
C11 C6 1_555 1_555
H13 C11 1_555 1_555
H14 C11 1_555 1_555
H15 C11 1_555 1_555
C12 C8 1_555 1_555
H16 C12 1_555 1_555
H17 C12 1_555 1_555
H18 C12 1_555 1_555
C13 C10 1_555 1_555
H19 C13 1_555 1_555
H20 C13 1_555 1_555
H21 C13 1_555 1_555
C14 O3 1_555 1_555
C15 C14 1_555 1_555
C16 C15 1_555 1_555
H22 C16 1_555 1_555
C17 C16 1_555 1_555
C18 C17 1_555 1_555
H23 C18 1_555 1_555
C19 C14 1_555 1_555
C20 C15 1_555 1_555
H24 C20 1_555 1_555
H25 C20 1_555 1_555
H26 C20 1_555 1_555
C21 C17 1_555 1_555
H27 C21 1_555 1_555
H28 C21 1_555 1_555
H29 C21 1_555 1_555
C22 C19 1_555 1_555
H30 C22 1_555 1_555
H31 C22 1_555 1_555
H32 C22 1_555 1_555
C23 O4 1_555 1_555
C24 C23 1_555 1_555
C25 C24 1_555 1_555
H33 C25 1_555 1_555
C26 C25 1_555 1_555
C27 C26 1_555 1_555
H34 C27 1_555 1_555
C28 C23 1_555 1_555
C29 C24 1_555 1_555
H35 C29 1_555 1_555
H36 C29 1_555 1_555
H37 C29 1_555 1_555
C30 C26 1_555 1_555
H38 C30 1_555 1_555
H39 C30 1_555 1_555
H40 C30 1_555 1_555
C31 C28 1_555 1_555
H41 C31 1_555 1_555
H42 C31 1_555 1_555
H43 C31 1_555 1_555
C32 H44 1_555 1_555
H45 C32 1_555 1_555
C33 O6 1_555 1_555
H46 C33 1_555 1_555
H47 C33 1_555 1_555
C34 O6 1_555 1_555
H48 C34 1_555 1_555
H49 C34 1_555 1_555
C35 O5 1_555 1_555
H50 C35 1_555 1_555
H51 C35 1_555 1_555
C36 O7 1_555 1_555
H52 C36 1_555 1_555
H53 C36 1_555 1_555
C37 O7 1_555 1_555
H54 C37 1_555 1_555
H55 C37 1_555 1_555
Li1C O1C 1_555 1_555
Li1C_2 O6C 1_555 1_555
Li2C N1C 1_555 1_555
Li3C O5 1_555 1_555
Li4C O2C 1_555 1_555
Li4B O7B 1_555 1_555
N1C C2C 1_555 1_555
O1C Li2C 1_555 1_555
O2C Li1C 1_555 1_555
O3C Li2C 1_555 1_555
O4C Li1C 1_555 1_555
O5C Li3 1_555 1_555
O6C C33C 1_555 1_555
O6C_2 Li1C 1_555 1_555
O7B C36B 1_555 1_555
O7C Li4C 1_555 1_555
C1C O1C 1_555 1_555
H1C C1C 1_555 1_555
H2C C1C 1_555 1_555
C2C C1C 1_555 1_555
H3C C2C 1_555 1_555
H4C C2C 1_555 1_555
C3C N1C 1_555 1_555
H5C C3C 1_555 1_555
H6C C3C 1_555 1_555
H7C C3C 1_555 1_555
C4C N1C 1_555 1_555
H8C C4C 1_555 1_555
H9C C4C 1_555 1_555
H10C C4C 1_555 1_555
C5C O2C 1_555 1_555
C6C C5C 1_555 1_555
C7C C6C 1_555 1_555
H11C C7C 1_555 1_555
C8C C7C 1_555 1_555
C9C C8C 1_555 1_555
H12C C9C 1_555 1_555
C10C C5C 1_555 1_555
C11C C6C 1_555 1_555
H13C C11C 1_555 1_555
H14C C11C 1_555 1_555
H15C C11C 1_555 1_555
C12C C8C 1_555 1_555
H16C C12C 1_555 1_555
H17C C12C 1_555 1_555
H18C C12C 1_555 1_555
C13C C10C 1_555 1_555
H19C C13C 1_555 1_555
H20C C13C 1_555 1_555
H21C C13C 1_555 1_555
C14C O3C 1_555 1_555
C15C C14C 1_555 1_555
C16C C15C 1_555 1_555
H22C C16C 1_555 1_555
C17C C16C 1_555 1_555
C18C C17C 1_555 1_555
H23C C18C 1_555 1_555
C19C C14C 1_555 1_555
C20C C15C 1_555 1_555
H24C C20C 1_555 1_555
H25C C20C 1_555 1_555
H26C C20C 1_555 1_555
C21C C17C 1_555 1_555
H27C C21C 1_555 1_555
H28C C21C 1_555 1_555
H29C C21C 1_555 1_555
C22C C19C 1_555 1_555
H30C C22C 1_555 1_555
H31C C22C 1_555 1_555
H32C C22C 1_555 1_555
C23C O4C 1_555 1_555
C24C C23C 1_555 1_555
C25C C24C 1_555 1_555
H33C C25C 1_555 1_555
C26C C25C 1_555 1_555
C27C C26C 1_555 1_555
H34C C27C 1_555 1_555
C28C C23C 1_555 1_555
C29C C24C 1_555 1_555
H35C C29C 1_555 1_555
H36C C29C 1_555 1_555
H37C C29C 1_555 1_555
C30C C26C 1_555 1_555
H38C C30C 1_555 1_555
H39C C30C 1_555 1_555
H40C C30C 1_555 1_555
C31C C28C 1_555 1_555
H41C C31C 1_555 1_555
H42C C31C 1_555 1_555
H43C C31C 1_555 1_555
C32C O5C 1_555 1_555
H44C C32C 1_555 1_555
H45C C32C 1_555 1_555
C33C C32C 1_555 1_555
H46C C33C 1_555 1_555
H47C C33C 1_555 1_555
C34C O6C 1_555 1_555
H48C C34C 1_555 1_555
H49C C34C 1_555 1_555
C35C O5C 1_555 1_555
H50C C35C 1_555 1_555
H51C C35C 1_555 1_555
C36B C36 1_555 1_555
H52B C36B 1_555 1_555
H53B C36B 1_555 1_555
C37B C37 1_555 1_555
H54B C37B 1_555 1_555
H55B C37B 1_555 1_555
Li2 O2 1_555 1_555
Li3 O3 1_555 1_555
Li3 O4 1_555 1_555
Li4 O3 1_555 1_555
Li4 O4 1_555 1_555
C9 C10 1_555 1_555
C18 C19 1_555 1_555
C27 C28 1_555 1_555
C32 C33 1_555 1_555
C34 C35 1_555 1_555
Li2C O2C 1_555 1_555
Li3C O1C 1_555 1_555
Li3C O3C 1_555 1_555
Li3C O4C 1_555 1_555
Li4C O3C 1_555 1_555
Li4C O4C 1_555 1_555
O7B C37B 1_555 1_555
C9C C10C 1_555 1_555
C18C C19C 1_555 1_555
C27C C28C 1_555 1_555
C34C C35C 1_555 1_555

#END
