
#######################################################################
#
#                 Cambridge Crystallographic Data Centre
#                                CCDC 
#
#######################################################################
#
# If this CIF has been generated from an entry in the Cambridge 
# Structural Database, then it will include bibliographic, chemical, 
# crystal, experimental, refinement or atomic coordinate data resulting 
# from the CCDC's data processing and validation procedures.
#
#######################################################################

data_GOGFEO
_symmetry_cell_setting           monoclinic
_symmetry_space_group_name_H-M   'P 21/n'
_symmetry_Int_Tables_number      14
_space_group_name_Hall           '-P 2yn'
loop_
_symmetry_equiv_pos_site_id
_symmetry_equiv_pos_as_xyz
1 x,y,z
2 1/2-x,1/2+y,1/2-z
3 -x,-y,-z
4 1/2+x,1/2-y,1/2+z
_cell_length_a                   12.9215(7)
_cell_length_b                   8.5454(5)
_cell_length_c                   17.5970(10)
_cell_angle_alpha                90
_cell_angle_beta                 90.960(3)
_cell_angle_gamma                90
_cell_volume                     1942.78
loop_
_atom_site_label
_atom_site_type_symbol
_atom_site_fract_x
_atom_site_fract_y
_atom_site_fract_z
Cu1 Cu 0.871218(18) 0.24503(2) 0.184653(12)
C1 C 1.01853(16) 0.2951(2) 0.30370(12)
C2 C 1.03192(14) 0.1182(2) 0.30175(10)
H1 H 1.1041 0.0927 0.2907
C3 C 1.00314(14) 0.0481(2) 0.37973(10)
H2 H 0.9546 0.1204 0.4036
C4 C 1.09486(16) 0.0275(2) 0.43410(11)
C5 C 0.94334(15) -0.1007(2) 0.35956(11)
H3 H 0.8924 -0.1258 0.3984
C6 C 1.01493(19) -0.2386(2) 0.34529(14)
C7 C 0.89004(14) -0.0507(2) 0.28438(10)
H4 H 0.8764 -0.1442 0.2535
C8 C 0.78735(14) 0.0374(2) 0.29592(10)
O1 O 0.95434(13) 0.36239(16) 0.26139(9)
O2 O 1.07474(14) 0.36491(17) 0.35212(10)
O3 O 1.15462(14) 0.15169(19) 0.44451(10)
H5 H 1.1322 0.2247 0.4189
O4 O 1.11204(13) -0.09137(19) 0.46799(9)
O5 O 1.0856(2) -0.2330(2) 0.30242(14)
O6 O 0.98836(14) -0.36266(18) 0.38404(11)
H6 H 1.0209 -0.4387 0.3690
O7 O 0.77478(11) 0.16687(17) 0.26127(8)
O8 O 0.72265(10) -0.02515(17) 0.33703(8)
O9 O 0.96504(10) 0.04507(15) 0.24653(7)
N1 N 0.80817(13) 0.1145(2) 0.09986(9)
N2 N 0.97214(14) 0.2981(2) 0.10238(11)
C9 C 0.72683(18) 0.0188(3) 0.10127(15)
H7 H 0.6918 0.0066 0.1466
C10 C 0.6920(2) -0.0641(3) 0.03716(19)
H8 H 0.6352 -0.1305 0.0405
C11 C 0.7409(3) -0.0473(3) -0.02927(18)
H9 H 0.7177 -0.1016 -0.0721
C12 C 0.8263(2) 0.0516(3) -0.03391(13)
C13 C 0.8850(3) 0.0778(4) -0.10042(16)
H10 H 0.8647 0.0298 -0.1457
C14 C 0.9682(3) 0.1693(4) -0.09929(15)
H11 H 1.0041 0.1835 -0.1441
C15 C 1.0052(3) 0.2479(3) -0.03111(18)
C16 C 1.0919(3) 0.3406(4) -0.0257(2)
H12 H 1.1322 0.3564 -0.0684
C17 C 1.1194(2) 0.4099(4) 0.0416(2)
H13 H 1.1789 0.4709 0.0452
C18 C 1.05587(19) 0.3877(3) 0.10668(18)
H14 H 1.0735 0.4364 0.1523
C19 C 0.9471(2) 0.2285(3) 0.03524(13)
C20 C 0.85840(18) 0.1310(3) 0.03349(11)
Cu1A Cu 0.628782(18) -0.25497(2) 0.315347(12)
O8A O 0.77735(10) 0.47485(17) 0.16297(8)
O10 O 0.2766(4) 0.0628(9) 0.2674(5)
H15 H 0.254(7) 0.154(5) 0.250(6)
H16 H 0.252(7) -0.029(4) 0.265(6)
loop_
_geom_bond_atom_site_label_1
_geom_bond_atom_site_label_2
_geom_bond_site_symmetry_1
_geom_bond_site_symmetry_2
Cu1 O1 1_555 1_555
C1 C2 1_555 1_555
C2 H1 1_555 1_555
C3 C2 1_555 1_555
H2 C3 1_555 1_555
C4 C3 1_555 1_555
C5 C3 1_555 1_555
H3 C5 1_555 1_555
C6 C5 1_555 1_555
C7 C5 1_555 1_555
H4 C7 1_555 1_555
C8 C7 1_555 1_555
O1 C1 1_555 1_555
O2 C1 1_555 1_555
O3 C4 1_555 1_555
H5 O3 1_555 1_555
O4 C4 1_555 1_555
O5 C6 1_555 1_555
O6 C6 1_555 1_555
H6 O6 1_555 1_555
O7 Cu1 1_555 1_555
O8 C8 1_555 1_555
O9 Cu1 1_555 1_555
N1 Cu1 1_555 1_555
N2 Cu1 1_555 1_555
C9 N1 1_555 1_555
H7 C9 1_555 1_555
C10 C9 1_555 1_555
H8 C10 1_555 1_555
C11 C10 1_555 1_555
H9 C11 1_555 1_555
C12 C11 1_555 1_555
C13 C12 1_555 1_555
H10 C13 1_555 1_555
C14 C13 1_555 1_555
H11 C14 1_555 1_555
C15 C14 1_555 1_555
C16 C15 1_555 1_555
H12 C16 1_555 1_555
C17 C16 1_555 1_555
H13 C17 1_555 1_555
C18 N2 1_555 1_555
H14 C18 1_555 1_555
C19 N2 1_555 1_555
C20 N1 1_555 1_555
O10 H15 1_555 1_555
H16 O10 1_555 1_555
Cu1A O8 1_555 1_555
O8A Cu1 1_555 1_555
C2 O9 1_555 1_555
C7 O9 1_555 1_555
C8 O7 1_555 1_555
C12 C20 1_555 1_555
C15 C19 1_555 1_555
C17 C18 1_555 1_555
C19 C20 1_555 1_555

#END
