
#######################################################################
#
#                 Cambridge Crystallographic Data Centre
#                                CCDC 
#
#######################################################################
#
# If this CIF has been generated from an entry in the Cambridge 
# Structural Database, then it will include bibliographic, chemical, 
# crystal, experimental, refinement or atomic coordinate data resulting 
# from the CCDC's data processing and validation procedures.
#
#######################################################################

data_GOGKUJ
_symmetry_cell_setting           triclinic
_symmetry_space_group_name_H-M   'P -1'
_symmetry_Int_Tables_number      2
_space_group_name_Hall           '-P 1'
loop_
_symmetry_equiv_pos_site_id
_symmetry_equiv_pos_as_xyz
1 x,y,z
2 -x,-y,-z
_cell_length_a                   6.9481(5)
_cell_length_b                   10.1827(8)
_cell_length_c                   13.4830(10)
_cell_angle_alpha                107.5030(10)
_cell_angle_beta                 100.1850(10)
_cell_angle_gamma                103.1640(10)
_cell_volume                     854.386
loop_
_atom_site_label
_atom_site_type_symbol
_atom_site_fract_x
_atom_site_fract_y
_atom_site_fract_z
Ag1 Ag 0.51241(5) 0.71236(3) 0.76748(2)
Ag2 Ag 0.92839(4) 0.50359(3) 1.21079(2)
O1 O 0.6620(4) 0.2358(3) 0.8569(2)
O2 O 0.8186(4) 0.2942(3) 1.0300(2)
O3 O 0.2277(4) 0.2659(3) 0.5098(2)
O4 O 0.3568(4) 0.4346(3) 0.6721(2)
O5 O 0.1848(4) 0.7679(3) 0.7910(2)
H1 H 0.1404 0.8206 0.7600
H2 H 0.1849 0.7866 0.8568
O6 O 0.7016(5) 0.9584(3) 0.7828(3)
H3 H 0.8065 0.9640 0.7582
H4 H 0.6753 1.0373 0.8091
N1 N 0.6624(4) 0.6564(3) 0.9057(2)
N2 N 0.8050(4) 0.5719(3) 1.0748(2)
N3 N 0.3601(4) 0.6478(3) 0.5860(2)
N4 N 0.1450(4) 0.5712(3) 0.3731(2)
C1 C 0.6657(5) 0.5205(3) 0.8899(3)
H5 H 0.6178 0.4531 0.8201
C2 C 0.7365(4) 0.4767(3) 0.9722(3)
C3 C 0.8019(5) 0.7062(4) 1.0902(3)
H6 H 0.8484 0.7734 1.1601
C4 C 0.7324(5) 0.7511(4) 1.0068(3)
C5 C 0.7297(6) 0.9034(4) 1.0286(3)
H7 H 0.6457 0.9094 0.9663
H8 H 0.6748 0.9339 1.0892
H9 H 0.8668 0.9649 1.0442
C6 C 0.7382(5) 0.3213(4) 0.9515(3)
C7 C 0.3370(5) 0.7465(4) 0.5428(3)
H10 H 0.3963 0.8436 0.5852
C8 C 0.2759(5) 0.5087(4) 0.5229(3)
C9 C 0.1744(5) 0.4725(4) 0.4164(3)
H11 H 0.1242 0.3755 0.3727
C10 C 0.2270(5) 0.7099(4) 0.4361(3)
C11 C 0.1903(6) 0.8224(4) 0.3919(3)
H12 H 0.0462 0.8116 0.3739
H13 H 0.2389 0.8117 0.3284
H14 H 0.2623 0.9164 0.4451
C12 C 0.2901(5) 0.3943(4) 0.5726(3)
Ag2A Ag 0.07161(4) 0.49641(3) 0.78921(2)
Ag2_2 Ag -0.07161(4) 0.50359(3) 0.21079(2)
O4A O 0.6432(4) 0.5654(3) 1.3279(2)
O5A O 0.8152(4) 0.2321(3) 1.2090(2)
H1A H 0.8596 0.1794 1.2400
H2A H 0.8151 0.2134 1.1432
N4_2 N 1.1450(4) 0.5712(3) 1.3731(2)
O7 O 0.9786(4) 0.0754(3) 0.3171(2)
H15 H 0.8716 0.0125 0.3142
H16 H 1.0455 0.1352 0.3798
O8 O 0.3319(4) 0.1221(3) 0.6643(3)
H17 H 0.4339 0.1576 0.7196
H18 H 0.3065 0.1766 0.6301
loop_
_geom_bond_atom_site_label_1
_geom_bond_atom_site_label_2
_geom_bond_site_symmetry_1
_geom_bond_site_symmetry_2
Ag1 O4 1_555 1_555
Ag2 O2 1_555 1_555
O1 C6 1_555 1_555
O2 C6 1_555 1_555
O3 C12 1_555 1_555
O4 C12 1_555 1_555
O5 Ag1 1_555 1_555
H1 O5 1_555 1_555
H2 O5 1_555 1_555
O6 Ag1 1_555 1_555
H3 O6 1_555 1_555
H4 O6 1_555 1_555
N1 Ag1 1_555 1_555
N2 Ag2 1_555 1_555
N3 Ag1 1_555 1_555
N4 C9 1_555 1_555
C1 N1 1_555 1_555
H5 C1 1_555 1_555
C2 N2 1_555 1_555
C3 N2 1_555 1_555
H6 C3 1_555 1_555
C4 N1 1_555 1_555
C5 C4 1_555 1_555
H7 C5 1_555 1_555
H8 C5 1_555 1_555
H9 C5 1_555 1_555
C6 C2 1_555 1_555
C7 N3 1_555 1_555
H10 C7 1_555 1_555
C8 N3 1_555 1_555
C9 C8 1_555 1_555
H11 C9 1_555 1_555
C10 N4 1_555 1_555
C11 C10 1_555 1_555
H12 C11 1_555 1_555
H13 C11 1_555 1_555
H14 C11 1_555 1_555
C12 C8 1_555 1_555
O7 H15 1_555 1_555
H16 O7 1_555 1_555
O8 H17 1_555 1_555
H18 O8 1_555 1_555
Ag2A O4 1_555 1_555
Ag2_2 N4 1_555 1_555
O4A Ag2 1_555 1_555
O5A Ag2 1_555 1_555
H1A O5A 1_555 1_555
H2A O5A 1_555 1_555
N4_2 Ag2 1_555 1_555
O5 Ag2A 1_555 1_555
C1 C2 1_555 1_555
C3 C4 1_555 1_555
C7 C10 1_555 1_555

#END
