
#######################################################################
#
#                 Cambridge Crystallographic Data Centre
#                                CCDC 
#
#######################################################################
#
# If this CIF has been generated from an entry in the Cambridge 
# Structural Database, then it will include bibliographic, chemical, 
# crystal, experimental, refinement or atomic coordinate data resulting 
# from the CCDC's data processing and validation procedures.
#
#######################################################################

data_GOHWEH
_symmetry_cell_setting           monoclinic
_symmetry_space_group_name_H-M   'P 21/c'
_symmetry_Int_Tables_number      14
_space_group_name_Hall           '-P 2ybc'
loop_
_symmetry_equiv_pos_site_id
_symmetry_equiv_pos_as_xyz
1 x,y,z
2 -x,1/2+y,1/2-z
3 -x,-y,-z
4 x,1/2-y,1/2+z
_cell_length_a                   15.7431(7)
_cell_length_b                   11.8182(3)
_cell_length_c                   17.6755(8)
_cell_angle_alpha                90
_cell_angle_beta                 94.479(3)
_cell_angle_gamma                90
_cell_volume                     3278.57
loop_
_atom_site_label
_atom_site_type_symbol
_atom_site_fract_x
_atom_site_fract_y
_atom_site_fract_z
Ba1 Ba 0.43657(2) 0.67714(3) 0.71839(2)
Ba2 Ba 0.40105(2) 0.42275(3) 0.91703(2)
O1 O 0.3386(3) 0.5969(4) 0.8240(2)
O2 O 0.2371(3) 0.4839(4) 0.8586(3)
O3 O 0.3490(3) 0.8741(4) 0.7028(2)
O4 O 0.2594(3) 0.9870(4) 0.7583(3)
O5 O 0.3830(3) 0.4767(4) 0.6614(2)
O6 O 0.3854(3) 0.3577(4) 0.5644(2)
O7 O 0.4760(3) 0.7622(4) 0.5854(2)
O8 O 0.4442(3) 0.8805(4) 0.4907(2)
O9 O 0.5314(3) 0.5300(4) 0.8379(2)
H1 H 0.5493 0.4805 0.8058
H2 H 0.5712 0.5372 0.8747
O10 O 0.5791(3) 0.5466(4) 0.6671(2)
H3 H 0.6334 0.5503 0.6892
H4 H 0.5773 0.4751 0.6539
O11 O 0.5947(3) 0.8173(4) 0.7288(2)
H5 H 0.5997 0.8429 0.7758
H6 H 0.6472 0.7908 0.7216
O12 O 0.4601(3) 0.7923(5) 0.8608(3)
H7 H 0.5125 0.8077 0.8903
H8 H 0.4440 0.7262 0.8874
O13 O 0.3371(3) 0.2004(4) 0.9217(2)
H9 H 0.3572 0.1800 0.9717
H10 H 0.3574 0.1520 0.9001
O14 O 0.3400(3) 0.3741(4) 1.0601(2)
H11 H 0.3287 0.3192 1.0941
H12 H 0.2851 0.4110 1.0569
N1 N 0.2360(3) 0.6916(4) 0.7077(3)
N2 N 0.3214(3) 0.6518(4) 0.5663(3)
C1 C 0.1905(4) 0.7070(6) 0.6304(4)
H13 H 0.2004 0.7853 0.6153
C2 C 0.2273(4) 0.6322(6) 0.5717(4)
H14 H 0.2216 0.5542 0.5895
C3 C 0.1771(5) 0.6387(8) 0.4947(4)
H15 H 0.1862 0.7125 0.4726
H16 H 0.1988 0.5822 0.4615
C4 C 0.0819(5) 0.6202(9) 0.4987(5)
H17 H 0.0529 0.6301 0.4487
H18 H 0.0716 0.5436 0.5154
C5 C 0.0486(5) 0.7009(8) 0.5516(4)
H19 H -0.0116 0.6867 0.5551
H20 H 0.0548 0.7771 0.5324
C6 C 0.0945(4) 0.6919(7) 0.6293(4)
H21 H 0.0827 0.6183 0.6504
H22 H 0.0720 0.7488 0.6618
C7 C 0.2060(4) 0.5911(6) 0.7463(4)
H23 H 0.2011 0.5287 0.7106
H24 H 0.1497 0.6062 0.7626
C8 C 0.2649(4) 0.5562(6) 0.8152(4)
C9 C 0.2252(4) 0.7934(6) 0.7529(4)
H25 H 0.2365 0.7744 0.8062
H26 H 0.1663 0.8177 0.7455
C10 C 0.2818(4) 0.8912(6) 0.7346(4)
C11 C 0.3624(4) 0.5523(5) 0.5353(3)
H27 H 0.4172 0.5747 0.5186
H28 H 0.3276 0.5257 0.4912
C12 C 0.3760(4) 0.4543(6) 0.5920(4)
C13 C 0.3357(4) 0.7530(6) 0.5214(4)
H29 H 0.2950 0.8106 0.5335
H30 H 0.3248 0.7345 0.4680
C14 C 0.4246(4) 0.8012(5) 0.5342(3)
Ba2A Ba 0.59895(2) 0.92275(3) 0.58297(2)
Ba2C Ba 0.40105(2) 1.07725(3) 0.41703(2)
O7A O 0.5240(3) 0.2622(4) 0.9146(2)
O8A O 0.5558(3) 0.3805(4) 1.0093(2)
O8C O 0.4442(3) 0.6195(4) 0.9907(2)
O11A O 0.4053(3) 0.3173(4) 0.7712(2)
O15 O 0.1290(5) 0.3121(7) 0.8155(4)
H31 H 0.1723 0.3654 0.8358
H32 H 0.1359 0.2585 0.8565
O16 O 0.1020(8) 0.5458(11) 0.9406(6)
H33 H 0.1596 0.5432 0.9251
H34 H 0.0889 0.4677 0.9259
O17 O 0.1020(3) 1.0228(4) 0.8110(3)
H35 H 0.1459 1.0245 0.7880
H36 H 0.1092 1.0543 0.8558
O18 O 0.2527(3) 1.2140(5) 0.7193(3)
H37 H 0.2433 1.1386 0.7201
H38 H 0.2101 1.2326 0.7333
O19 O 0.1663(3) 0.1615(5) 0.9326(3)
H39 H 0.2215 0.1605 0.9289
H40 H 0.1452 0.1788 0.9752
O20 O -0.0226(5) 0.6203(6) 0.8239(4)
H41 H -0.0405 0.6124 0.7814
H42 H -0.0325 0.6976 0.8276
O21 O 0.0258(3) 0.3572(5) 0.6908(3)
H43 H 0.0532 0.3669 0.7355
H44 H -0.0046 0.4251 0.6821
O22 O 0.1595(4) 1.3344(5) 0.5914(3)
H45 H 0.1905 1.3094 0.6339
H46 H 0.1051 1.3402 0.6138
O23 O 0.1724(8) 0.4541(12) 1.0769(7)
O24? O 0.2061(9) 0.5098(12) 1.0272(9)
loop_
_geom_bond_atom_site_label_1
_geom_bond_atom_site_label_2
_geom_bond_site_symmetry_1
_geom_bond_site_symmetry_2
Ba1 O1 1_555 1_555
Ba2 O1 1_555 1_555
O1 C8 1_555 1_555
O2 Ba2 1_555 1_555
O3 Ba1 1_555 1_555
O4 C10 1_555 1_555
O5 Ba1 1_555 1_555
O6 C12 1_555 1_555
O7 Ba1 1_555 1_555
O8 C14 1_555 1_555
O9 Ba1 1_555 1_555
H1 O9 1_555 1_555
H2 O9 1_555 1_555
O10 Ba1 1_555 1_555
H3 O10 1_555 1_555
H4 O10 1_555 1_555
O11 Ba1 1_555 1_555
H5 O11 1_555 1_555
H6 O11 1_555 1_555
O12 Ba1 1_555 1_555
H7 O12 1_555 1_555
H8 O12 1_555 1_555
O13 Ba2 1_555 1_555
H9 O13 1_555 1_555
H10 O13 1_555 1_555
O14 Ba2 1_555 1_555
H11 O14 1_555 1_555
H12 O14 1_555 1_555
N1 Ba1 1_555 1_555
N2 Ba1 1_555 1_555
C1 N1 1_555 1_555
H13 C1 1_555 1_555
C2 N2 1_555 1_555
H14 C2 1_555 1_555
C3 C2 1_555 1_555
H15 C3 1_555 1_555
H16 C3 1_555 1_555
C4 C3 1_555 1_555
H17 C4 1_555 1_555
H18 C4 1_555 1_555
C5 C4 1_555 1_555
H19 C5 1_555 1_555
H20 C5 1_555 1_555
C6 C1 1_555 1_555
H21 C6 1_555 1_555
H22 C6 1_555 1_555
C7 N1 1_555 1_555
H23 C7 1_555 1_555
H24 C7 1_555 1_555
C8 O2 1_555 1_555
C9 N1 1_555 1_555
H25 C9 1_555 1_555
H26 C9 1_555 1_555
C10 O3 1_555 1_555
C11 N2 1_555 1_555
H27 C11 1_555 1_555
H28 C11 1_555 1_555
C12 O5 1_555 1_555
C13 N2 1_555 1_555
H29 C13 1_555 1_555
H30 C13 1_555 1_555
C14 O7 1_555 1_555
O15 H31 1_555 1_555
H32 O15 1_555 1_555
O16 H33 1_555 1_555
H34 O16 1_555 1_555
O17 H35 1_555 1_555
H36 O17 1_555 1_555
O18 H37 1_555 1_555
H38 O18 1_555 1_555
O19 H39 1_555 1_555
H40 O19 1_555 1_555
O20 H41 1_555 1_555
H42 O20 1_555 1_555
O21 H43 1_555 1_555
H44 O21 1_555 1_555
O22 H45 1_555 1_555
H46 O22 1_555 1_555
Ba2A O7 1_555 1_555
Ba2C O8 1_555 1_555
O7A Ba2 1_555 1_555
O8A Ba2 1_555 1_555
O8C Ba2 1_555 1_555
O11A Ba2 1_555 1_555
Ba2 O9 1_555 1_555
O8 Ba2A 1_555 1_555
O11 Ba2A 1_555 1_555
C1 C2 1_555 1_555
C5 C6 1_555 1_555
C7 C8 1_555 1_555
C9 C10 1_555 1_555
C11 C12 1_555 1_555
C13 C14 1_555 1_555

#END
