
#######################################################################
#
#                 Cambridge Crystallographic Data Centre
#                                CCDC 
#
#######################################################################
#
# If this CIF has been generated from an entry in the Cambridge 
# Structural Database, then it will include bibliographic, chemical, 
# crystal, experimental, refinement or atomic coordinate data resulting 
# from the CCDC's data processing and validation procedures.
#
#######################################################################

data_GOHZAG01
_symmetry_cell_setting           triclinic
_symmetry_space_group_name_H-M   'P -1'
_symmetry_Int_Tables_number      2
_space_group_name_Hall           '-P 1'
loop_
_symmetry_equiv_pos_site_id
_symmetry_equiv_pos_as_xyz
1 x,y,z
2 -x,-y,-z
_cell_length_a                   9.8154(2)
_cell_length_b                   10.1599(2)
_cell_length_c                   11.6697(3)
_cell_angle_alpha                90.2360(10)
_cell_angle_beta                 107.7400(11)
_cell_angle_gamma                112.7390(9)
_cell_volume                     1012.37
loop_
_atom_site_label
_atom_site_type_symbol
_atom_site_fract_x
_atom_site_fract_y
_atom_site_fract_z
Ni1 Ni 0.5000 0.5000 0.5000
O1 O 0.46382(13) 0.32533(11) 0.38969(9)
N1 N 0.48859(14) 0.18283(12) 0.25827(11)
C1 C 0.42393(15) 0.26765(13) 0.28360(11)
C2 C 0.29910(18) 0.28905(16) 0.18275(14)
H1 H 0.2109 0.1958 0.1479
H2 H 0.3422 0.3315 0.1196
H3 H 0.2629 0.3537 0.2151
C3 C 0.4482(2) 0.10991(18) 0.13720(15)
H4 H 0.4653 0.0210 0.1441
H5 H 0.5142 0.1733 0.0944
H6 H 0.3378 0.0864 0.0917
C4 C 0.6083(2) 0.15928(17) 0.35509(16)
H7 H 0.7067 0.1952 0.3373
H8 H 0.5745 0.0560 0.3606
H9 H 0.6242 0.2108 0.4324
S1 S 0.51238(3) 0.70736(3) 0.30003(3)
S2 S 0.92558(4) 0.40302(4) 0.20215(3)
O2 O 0.41231(10) 0.59636(10) 0.35432(8)
N2 N 0.72382(12) 0.61484(11) 0.48816(9)
H10 H 0.736(2) 0.702(2) 0.5087(18)
H11 H 0.794(2) 0.598(2) 0.5344(18)
C5 C 0.63703(15) 0.60732(14) 0.15434(11)
H12 H 0.574(2) 0.637(2) 0.0882(18)
C6 C 0.63691(13) 0.63255(12) 0.27180(10)
C7 C 0.82204(13) 0.52660(13) 0.34867(10)
H13 H 0.886(2) 0.500(2) 0.4159(17)
O3 O 1.00477(13) 0.37367(13) 0.31892(9)
O4 O 0.80778(14) 0.27311(12) 0.12054(10)
C8 C 0.81886(13) 0.49882(13) 0.23115(10)
C9 C 0.73101(13) 0.59411(12) 0.37006(10)
O5 O 0.42271(12) 0.72914(12) 0.18357(9)
O6 O 0.61566(13) 0.83795(10) 0.38451(10)
O7 O 1.02660(16) 0.49315(14) 0.13999(13)
C10 C 0.72852(15) 0.54028(15) 0.13358(11)
H14 H 0.724(2) 0.5227(19) 0.0463(16)
Na1 Na 0.83171(7) 0.31004(6) -0.07362(5)
N3 N 0.99862(15) 0.03769(13) -0.24133(10)
O8 O 0.90803(16) 0.14655(14) -0.13354(11)
C11 C 0.90659(17) 0.10377(15) -0.23413(13)
C12 C 1.11060(19) 0.02657(18) -0.13127(14)
H15 H 1.2172 0.0844 -0.1306
H16 H 1.0949 0.0622 -0.0603
H17 H 1.0953 -0.0744 -0.1286
C13 C 1.0060(2) -0.0149(2) -0.35409(15)
H18 H 1.0052 -0.1115 -0.3498
H19 H 0.9152 -0.0191 -0.4218
H20 H 1.1024 0.0504 -0.3669
C14 C 0.7998(2) 0.1233(2) -0.35026(17)
H21 H 0.7302 0.0290 -0.3990
H22 H 0.7370 0.1696 -0.3310
H23 H 0.8627 0.1838 -0.3963
S1A S 0.48762(3) 0.29264(3) -0.30003(3)
S2A S 0.07442(4) 0.59698(4) -0.20215(3)
O2A O 0.58769(10) 0.40364(10) -0.35432(8)
N2A N 0.27618(12) 0.38516(11) -0.48816(9)
H10A H 0.264(2) 0.298(2) -0.5087(18)
H11A H 0.206(2) 0.402(2) -0.5344(18)
C5A C 0.36297(15) 0.39268(14) -0.15434(11)
H12A H 0.426(2) 0.363(2) -0.0882(18)
C6A C 0.36309(13) 0.36745(12) -0.27180(10)
C7A C 0.17796(13) 0.47340(13) -0.34867(10)
H13A H 0.114(2) 0.500(2) -0.4159(17)
O3A O -0.00477(13) 0.62633(13) -0.31892(9)
O4A O 0.19222(14) 0.72689(12) -0.12054(10)
C8A C 0.18114(13) 0.50118(13) -0.23115(10)
C9A C 0.26899(13) 0.40589(12) -0.37006(10)
O5A O 0.57729(12) 0.27086(12) -0.18357(9)
O6A O 0.38434(13) 0.16205(10) -0.38451(10)
O7A O -0.02660(16) 0.50685(14) -0.13999(13)
C10A C 0.27148(15) 0.45972(15) -0.13358(11)
H14A H 0.276(2) 0.4773(19) -0.0463(16)
Na1A Na 0.16829(7) 0.68996(6) 0.07362(5)
N3A N 0.00138(15) 0.96231(13) 0.24133(10)
O8A O 0.09197(16) 0.85345(14) 0.13354(11)
C11A C 0.09341(17) 0.89623(15) 0.23413(13)
C12A C -0.11060(19) 0.97343(18) 0.13127(14)
H15A H -0.2172 0.9156 0.1306
H16A H -0.0949 0.9378 0.0603
H17A H -0.0953 1.0744 0.1286
C13A C -0.0060(2) 1.0149(2) 0.35409(15)
H18A H -0.0052 1.1115 0.3498
H19A H 0.0848 1.0191 0.4218
H20A H -0.1024 0.9496 0.3669
C14A C 0.2002(2) 0.8767(2) 0.35026(17)
H21A H 0.2698 0.9710 0.3990
H22A H 0.2630 0.8304 0.3310
H23A H 0.1373 0.8162 0.3963
O1A O 0.53618(13) 0.67467(11) 0.61031(9)
N1A N 0.51141(14) 0.81717(12) 0.74173(11)
C1A C 0.57607(15) 0.73235(13) 0.71640(11)
C2A C 0.70090(18) 0.71095(16) 0.81725(14)
H1A H 0.7891 0.8042 0.8521
H2A H 0.6578 0.6685 0.8804
H3A H 0.7371 0.6463 0.7849
C3A C 0.5518(2) 0.89009(18) 0.86280(15)
H4A H 0.5347 0.9790 0.8559
H5A H 0.4858 0.8267 0.9056
H6A H 0.6622 0.9136 0.9083
C4A C 0.3917(2) 0.84072(17) 0.64491(16)
H7A H 0.2933 0.8048 0.6627
H8A H 0.4255 0.9440 0.6394
H9A H 0.3758 0.7892 0.5676
Ni1_2 Ni 0.5000 0.5000 -0.5000
O2A_2 O 0.58769(10) 0.40364(10) 0.64568(8)
N2A_2 N 0.27618(12) 0.38516(11) 0.51184(9)
O7_2 O 0.02660(16) 0.49315(14) 0.13999(13)
O7A_2 O 0.97340(16) 0.50685(14) -0.13999(13)
Na1_2 Na -0.16829(7) 0.31004(6) -0.07362(5)
Na1A_2 Na 1.16829(7) 0.68996(6) 0.07362(5)
loop_
_geom_bond_atom_site_label_1
_geom_bond_atom_site_label_2
_geom_bond_site_symmetry_1
_geom_bond_site_symmetry_2
Ni1 O1 1_555 1_555
O1 C1 1_555 1_555
N1 C1 1_555 1_555
C1 C2 1_555 1_555
C2 H1 1_555 1_555
H2 C2 1_555 1_555
H3 C2 1_555 1_555
C3 N1 1_555 1_555
H4 C3 1_555 1_555
H5 C3 1_555 1_555
H6 C3 1_555 1_555
C4 N1 1_555 1_555
H7 C4 1_555 1_555
H8 C4 1_555 1_555
H9 C4 1_555 1_555
S1 O2 1_555 1_555
S2 O3 1_555 1_555
O2 Ni1 1_555 1_555
N2 Ni1 1_555 1_555
H10 N2 1_555 1_555
H11 N2 1_555 1_555
C5 H12 1_555 1_555
C6 S1 1_555 1_555
C7 H13 1_555 1_555
O4 S2 1_555 1_555
C8 S2 1_555 1_555
C9 N2 1_555 1_555
O5 S1 1_555 1_555
O6 S1 1_555 1_555
O7 S2 1_555 1_555
C10 C5 1_555 1_555
H14 C10 1_555 1_555
Na1 O4 1_555 1_555
N3 C11 1_555 1_555
O8 Na1 1_555 1_555
C11 O8 1_555 1_555
C12 N3 1_555 1_555
H15 C12 1_555 1_555
H16 C12 1_555 1_555
H17 C12 1_555 1_555
C13 N3 1_555 1_555
H18 C13 1_555 1_555
H19 C13 1_555 1_555
H20 C13 1_555 1_555
C14 C11 1_555 1_555
H21 C14 1_555 1_555
H22 C14 1_555 1_555
H23 C14 1_555 1_555
S1A O2A 1_555 1_555
S2A O3A 1_555 1_555
O2A Ni1_2 1_555 1_555
N2A H10A 1_555 1_555
H11A N2A 1_555 1_555
C5A H12A 1_555 1_555
C6A S1A 1_555 1_555
C7A H13A 1_555 1_555
O4A S2A 1_555 1_555
C8A S2A 1_555 1_555
C9A N2A 1_555 1_555
O5A Na1 1_555 1_555
O6A S1A 1_555 1_555
O7A S2A 1_555 1_555
C10A C5A 1_555 1_555
H14A C10A 1_555 1_555
Na1A O5 1_555 1_555
N3A C11A 1_555 1_555
O8A Na1A 1_555 1_555
C11A O8A 1_555 1_555
C12A N3A 1_555 1_555
H15A C12A 1_555 1_555
H16A C12A 1_555 1_555
H17A C12A 1_555 1_555
C13A N3A 1_555 1_555
H18A C13A 1_555 1_555
H19A C13A 1_555 1_555
H20A C13A 1_555 1_555
C14A C11A 1_555 1_555
H21A C14A 1_555 1_555
H22A C14A 1_555 1_555
H23A C14A 1_555 1_555
O1A Ni1 1_555 1_555
N1A C1A 1_555 1_555
C1A O1A 1_555 1_555
C2A C1A 1_555 1_555
H1A C2A 1_555 1_555
H2A C2A 1_555 1_555
H3A C2A 1_555 1_555
C3A N1A 1_555 1_555
H4A C3A 1_555 1_555
H5A C3A 1_555 1_555
H6A C3A 1_555 1_555
C4A N1A 1_555 1_555
H7A C4A 1_555 1_555
H8A C4A 1_555 1_555
H9A C4A 1_555 1_555
Ni1_2 N2A 1_555 1_555
O2A_2 Ni1 1_555 1_555
N2A_2 Ni1 1_555 1_555
O7_2 Na1A 1_555 1_555
O7A_2 Na1 1_555 1_555
Na1_2 O7A 1_555 1_555
Na1A_2 O7 1_555 1_555
C5 C6 1_555 1_555
C6 C9 1_555 1_555
C7 C8 1_555 1_555
C7 C9 1_555 1_555
C8 C10 1_555 1_555
O7 Na1 1_555 1_555
S1A O5A 1_555 1_555
C5A C6A 1_555 1_555
C6A C9A 1_555 1_555
C7A C8A 1_555 1_555
C7A C9A 1_555 1_555
O4A Na1A 1_555 1_555
C8A C10A 1_555 1_555
O7A Na1A 1_555 1_555
O7_2 Na1_2 1_555 1_555
O7A_2 Na1A_2 1_555 1_555

#END
