
#######################################################################
#
#                 Cambridge Crystallographic Data Centre
#                                CCDC 
#
#######################################################################
#
# If this CIF has been generated from an entry in the Cambridge 
# Structural Database, then it will include bibliographic, chemical, 
# crystal, experimental, refinement or atomic coordinate data resulting 
# from the CCDC's data processing and validation procedures.
#
#######################################################################

data_GOJDUF
_symmetry_cell_setting           monoclinic
_symmetry_space_group_name_H-M   'P 21/n'
_symmetry_Int_Tables_number      14
_space_group_name_Hall           '-P 2yn'
loop_
_symmetry_equiv_pos_site_id
_symmetry_equiv_pos_as_xyz
1 x,y,z
2 1/2-x,1/2+y,1/2-z
3 -x,-y,-z
4 1/2+x,1/2-y,1/2+z
_cell_length_a                   6.5096(8)
_cell_length_b                   9.2854(9)
_cell_length_c                   12.1915(17)
_cell_angle_alpha                90
_cell_angle_beta                 92.997(7)
_cell_angle_gamma                90
_cell_volume                     735.898
loop_
_atom_site_label
_atom_site_type_symbol
_atom_site_fract_x
_atom_site_fract_y
_atom_site_fract_z
O8 O 1.031(3) 0.4598(19) 0.5252(13)
O8B O 0.969(3) 0.5402(19) 0.4748(13)
U1 U 0.47474(5) 0.42450(5) 0.28545(3)
O1 O 0.4860(10) 0.5618(8) 0.3855(7)
O2 O 0.4643(11) 0.2882(10) 0.1872(6)
O3 O 0.1146(11) 0.4624(10) 0.2600(6)
O4 O -0.2100(10) 0.4966(11) 0.2152(6)
O5 O 0.4158(11) 0.6103(10) 0.1502(6)
O6 O 0.1740(10) 0.7647(10) 0.0873(6)
O7 O 0.7550(10) 0.3038(9) 0.3917(6)
H1 H 0.8473 0.3617 0.4375
H2 H 0.8370 0.2360 0.3689
C1 C -0.0353(17) 0.4677(14) 0.1911(10)
C2 C -0.0007(16) 0.4324(14) 0.0722(10)
H3 H 0.0309 0.3298 0.0651
C3 C 0.1658(16) 0.5245(14) 0.0149(9)
H4 H 0.2727 0.4643 -0.0154
C4 C 0.2552(14) 0.6415(13) 0.0889(9)
U1B U -0.47474(5) 0.57550(5) -0.28545(3)
U1_2 U -0.52526(5) 0.42450(5) 0.28545(3)
U1A U 0.02526(5) 0.92450(5) 0.21455(3)
U1B_2 U 0.52526(5) 0.57550(5) -0.28545(3)
U1C U -0.02526(5) 0.07550(5) -0.21455(3)
O1B O -0.4860(10) 0.4382(8) -0.3855(7)
O2B O -0.4643(11) 0.7118(10) -0.1872(6)
O3B O -0.1146(11) 0.5376(10) -0.2600(6)
O4B O 0.2100(10) 0.5034(11) -0.2152(6)
O4_2 O 0.7900(10) 0.4966(11) 0.2152(6)
O4B_2 O -0.7900(10) 0.5034(11) -0.2152(6)
O5B O -0.4158(11) 0.3897(10) -0.1502(6)
O6B O -0.1740(10) 0.2353(10) -0.0873(6)
O6A O 0.3260(10) 0.2647(10) 0.4127(6)
O6C O -0.3260(10) 0.7353(10) -0.4127(6)
O7B O -0.7550(10) 0.6962(9) -0.3917(6)
H1B H -0.8473 0.6383 -0.4375
H2B H -0.8370 0.7640 -0.3689
C1B C 0.0353(17) 0.5323(14) -0.1911(10)
C2B C 0.0007(16) 0.5676(14) -0.0722(10)
H3B H -0.0309 0.6702 -0.0651
C3B C -0.1658(16) 0.4755(14) -0.0149(9)
H4B H -0.2727 0.5357 0.0154
C4B C -0.2552(14) 0.3585(13) -0.0889(9)
loop_
_geom_bond_atom_site_label_1
_geom_bond_atom_site_label_2
_geom_bond_site_symmetry_1
_geom_bond_site_symmetry_2
U1 O1 1_555 1_555
O2 U1 1_555 1_555
O3 U1 1_555 1_555
O4 C1 1_555 1_555
O5 U1 1_555 1_555
O6 C4 1_555 1_555
O7 U1 1_555 1_555
H1 O7 1_555 1_555
H2 O7 1_555 1_555
O8 O8B 1_555 1_555
C1 O3 1_555 1_555
C2 C1 1_555 1_555
H3 C2 1_555 1_555
C3 C2 1_555 1_555
H4 C3 1_555 1_555
C4 O5 1_555 1_555
U1B O1B 1_555 1_555
U1_2 O4 1_555 1_555
U1A O6 1_555 1_555
U1B_2 O4B 1_555 1_555
U1C O6B 1_555 1_555
O2B U1B 1_555 1_555
O3B U1B 1_555 1_555
O4B C1B 1_555 1_555
O4_2 U1 1_555 1_555
O4B_2 U1B 1_555 1_555
O5B U1B 1_555 1_555
O6B C4B 1_555 1_555
O6A U1 1_555 1_555
O6C U1B 1_555 1_555
O7B U1B 1_555 1_555
H1B O7B 1_555 1_555
H2B O7B 1_555 1_555
C1B O3B 1_555 1_555
C2B C3 1_555 1_555
H3B C2B 1_555 1_555
C3B C2 1_555 1_555
H4B C3B 1_555 1_555
C4B O5B 1_555 1_555
C3 C4 1_555 1_555
C1B C2B 1_555 1_555
C2B C3B 1_555 1_555
C3B C4B 1_555 1_555

#END
