
#######################################################################
#
#                 Cambridge Crystallographic Data Centre
#                                CCDC 
#
#######################################################################
#
# If this CIF has been generated from an entry in the Cambridge 
# Structural Database, then it will include bibliographic, chemical, 
# crystal, experimental, refinement or atomic coordinate data resulting 
# from the CCDC's data processing and validation procedures.
#
#######################################################################

data_GOJHUJ
_symmetry_cell_setting           monoclinic
_symmetry_space_group_name_H-M   'P 21/c'
_symmetry_Int_Tables_number      14
_space_group_name_Hall           '-P 2ybc'
loop_
_symmetry_equiv_pos_site_id
_symmetry_equiv_pos_as_xyz
1 x,y,z
2 -x,1/2+y,1/2-z
3 -x,-y,-z
4 x,1/2-y,1/2+z
_cell_length_a                   14.197(3)
_cell_length_b                   6.2166(12)
_cell_length_c                   16.306(3)
_cell_angle_alpha                90
_cell_angle_beta                 95.557(3)
_cell_angle_gamma                90
_cell_volume                     1432.36
loop_
_atom_site_label
_atom_site_type_symbol
_atom_site_fract_x
_atom_site_fract_y
_atom_site_fract_z
Zn1 Zn -0.055930(19) 0.36454(4) 0.341610(16)
N1 N -0.02121(14) 0.1435(3) 0.43589(12)
C1 C -0.07035(16) -0.0385(4) 0.44103(14)
H1 H -0.1207 -0.0698 0.4000
C2 C -0.04914(17) -0.1828(4) 0.50535(14)
H2 H 0.0851 0.3111 0.4924
O1 O 0.16791(12) -0.5390(3) 0.63173(11)
O2 O 0.20783(12) -0.2152(3) 0.67729(11)
C3 C 0.23098(18) -0.3957(4) 0.65341(15)
C4 C 0.33299(17) -0.4522(4) 0.64926(15)
C5 C 0.40189(19) -0.3004(5) 0.67340(16)
H3 H 0.3840 -0.1639 0.6930
C6 C 0.4970(2) -0.3476(5) 0.66900(18)
H4 H 0.5441 -0.2443 0.6863
C7 C 0.5229(2) -0.5456(6) 0.63931(18)
H5 H 0.5877 -0.5777 0.6353
C8 C 0.4539(2) -0.6964(5) 0.61551(19)
H6 H 0.4719 -0.8320 0.5952
C9 C 0.3591(2) -0.6524(5) 0.62087(17)
H7 H 0.3123 -0.7579 0.6053
O3 O -0.05640(11) 0.0472(3) 0.12433(10)
O4 O -0.02738(11) 0.2545(3) 0.23395(10)
C10 C -0.07725(17) 0.2064(4) 0.16754(14)
C11 C 0.16003(17) 0.8407(4) 0.36399(14)
C12 C 0.22307(18) 0.7647(4) 0.42843(15)
H8 H 0.2136 0.6270 0.4516
C13 C 0.29927(19) 0.8895(5) 0.45871(17)
H9 H 0.3426 0.8365 0.5021
C14 C 0.31260(19) 1.0924(5) 0.42586(17)
H10 H 0.3650 1.1779 0.4468
C15 C 0.24970(19) 1.1697(4) 0.36275(17)
H11 H 0.2589 1.3083 0.3403
C16 C 0.17340(17) 1.0456(4) 0.33229(15)
H12 H 0.1298 1.1002 0.2895
Zn1A Zn 0.055930(19) -0.13546(4) 0.158390(16)
Zn1B Zn 0.055930(19) -0.36454(4) 0.658390(16)
Zn1A_2 Zn 0.055930(19) 0.86454(4) 0.158390(16)
N1B N 0.02121(14) -0.1435(3) 0.56411(12)
C1B C 0.07035(16) 0.0385(4) 0.55897(14)
H1B H 0.1207 0.0698 0.6000
C2B C 0.04914(17) 0.1828(4) 0.49465(14)
H2B H -0.0851 -0.3111 0.5076
O1B O -0.16791(12) 0.5390(3) 0.36827(11)
O2B O -0.20783(12) 0.2152(3) 0.32271(11)
C3B C -0.23098(18) 0.3957(4) 0.34659(15)
C4B C -0.33299(17) 0.4522(4) 0.35074(15)
C5B C -0.40189(19) 0.3004(5) 0.32660(16)
H3B H -0.3840 0.1639 0.3070
C6B C -0.4970(2) 0.3476(5) 0.33100(18)
H4B H -0.5441 0.2443 0.3137
C7B C -0.5229(2) 0.5456(6) 0.36069(18)
H5B H -0.5877 0.5777 0.3647
C8B C -0.4539(2) 0.6964(5) 0.38449(19)
H6B H -0.4719 0.8320 0.4048
C9B C -0.3591(2) 0.6524(5) 0.37913(17)
H7B H -0.3123 0.7579 0.3947
O3C O -0.05640(11) -0.5472(3) 0.62433(10)
O3A O 0.05640(11) 0.5472(3) 0.37567(10)
O4B O 0.02738(11) -0.2545(3) 0.76605(10)
O4A O 0.02738(11) 0.7545(3) 0.26605(10)
C10A C 0.07725(17) 0.7064(4) 0.33246(14)
C11A C -0.16003(17) 0.3407(4) 0.13601(14)
C12A C -0.22307(18) 0.2647(4) 0.07157(15)
H8A H -0.2136 0.1270 0.0484
C13A C -0.29927(19) 0.3895(5) 0.04129(17)
H9A H -0.3426 0.3365 -0.0021
C14A C -0.31260(19) 0.5924(5) 0.07414(17)
H10A H -0.3650 0.6779 0.0532
C15A C -0.24970(19) 0.6697(4) 0.13725(17)
H11A H -0.2589 0.8083 0.1597
C16A C -0.17340(17) 0.5456(4) 0.16771(15)
H12A H -0.1298 0.6002 0.2105
loop_
_geom_bond_atom_site_label_1
_geom_bond_atom_site_label_2
_geom_bond_site_symmetry_1
_geom_bond_site_symmetry_2
Zn1 N1 1_555 1_555
N1 C1 1_555 1_555
C1 H1 1_555 1_555
C2 C1 1_555 1_555
H2 C2B 1_555 1_555
O1 C3 1_555 1_555
O2 C3 1_555 1_555
C3 C4 1_555 1_555
C4 C5 1_555 1_555
C5 H3 1_555 1_555
C6 C5 1_555 1_555
H4 C6 1_555 1_555
C7 C6 1_555 1_555
H5 C7 1_555 1_555
C8 C7 1_555 1_555
H6 C8 1_555 1_555
C9 C4 1_555 1_555
H7 C9 1_555 1_555
O3 C10 1_555 1_555
O4 Zn1 1_555 1_555
C10 O4 1_555 1_555
C11 C12 1_555 1_555
C12 H8 1_555 1_555
C13 C12 1_555 1_555
H9 C13 1_555 1_555
C14 C13 1_555 1_555
H10 C14 1_555 1_555
C15 C14 1_555 1_555
H11 C15 1_555 1_555
C16 C11 1_555 1_555
H12 C16 1_555 1_555
Zn1A O3 1_555 1_555
Zn1B O1 1_555 1_555
Zn1A_2 O4A 1_555 1_555
N1B C2 1_555 1_555
C1B N1B 1_555 1_555
H1B C1B 1_555 1_555
C2B N1 1_555 1_555
H2B C2 1_555 1_555
O1B Zn1 1_555 1_555
O2B Zn1 1_555 1_555
C3B O1B 1_555 1_555
C4B C3B 1_555 1_555
C5B C4B 1_555 1_555
H3B C5B 1_555 1_555
C6B C5B 1_555 1_555
H4B C6B 1_555 1_555
C7B C6B 1_555 1_555
H5B C7B 1_555 1_555
C8B C7B 1_555 1_555
H6B C8B 1_555 1_555
C9B C4B 1_555 1_555
H7B C9B 1_555 1_555
O3C Zn1B 1_555 1_555
O3A Zn1 1_555 1_555
O4B Zn1B 1_555 1_555
O4A C10A 1_555 1_555
C10A C11 1_555 1_555
C11A C10 1_555 1_555
C12A C11A 1_555 1_555
H8A C12A 1_555 1_555
C13A C12A 1_555 1_555
H9A C13A 1_555 1_555
C14A C13A 1_555 1_555
H10A C14A 1_555 1_555
C15A C14A 1_555 1_555
H11A C15A 1_555 1_555
C16A C11A 1_555 1_555
H12A C16A 1_555 1_555
O2 Zn1B 1_555 1_555
C8 C9 1_555 1_555
C15 C16 1_555 1_555
Zn1B N1B 1_555 1_555
C1B C2B 1_555 1_555
O2B C3B 1_555 1_555
C8B C9B 1_555 1_555
O3A C10A 1_555 1_555
C15A C16A 1_555 1_555

#END
