
#######################################################################
#
#                 Cambridge Crystallographic Data Centre
#                                CCDC 
#
#######################################################################
#
# If this CIF has been generated from an entry in the Cambridge 
# Structural Database, then it will include bibliographic, chemical, 
# crystal, experimental, refinement or atomic coordinate data resulting 
# from the CCDC's data processing and validation procedures.
#
#######################################################################

data_GOJHAP
_symmetry_cell_setting           triclinic
_symmetry_space_group_name_H-M   'P -1'
_symmetry_Int_Tables_number      2
_space_group_name_Hall           '-P 1'
loop_
_symmetry_equiv_pos_site_id
_symmetry_equiv_pos_as_xyz
1 x,y,z
2 -x,-y,-z
_cell_length_a                   10.146(3)
_cell_length_b                   10.338(3)
_cell_length_c                   10.444(3)
_cell_angle_alpha                65.677(4)
_cell_angle_beta                 72.974(4)
_cell_angle_gamma                81.781(4)
_cell_volume                     954.164
loop_
_atom_site_label
_atom_site_type_symbol
_atom_site_fract_x
_atom_site_fract_y
_atom_site_fract_z
Zn1 Zn 0.87457(2) 0.52270(2) 0.60778(3)
O1 O 1.00869(17) 0.67327(18) 0.5675(2)
O2 O 1.19372(17) 0.64680(17) 0.40105(19)
C1 C 1.1272(2) 0.7066(2) 0.4837(2)
C2 C 1.1951(2) 0.8274(2) 0.4830(2)
C3 C 1.3276(2) 0.8660(2) 0.3993(2)
H1 H 1.3768 0.8162 0.3430
C4 C 1.3875(3) 0.9779(3) 0.3987(3)
H2 H 1.4765 1.0035 0.3415
C5 C 1.3166(3) 1.0514(3) 0.4816(3)
H3 H 1.3575 1.1265 0.4814
C6 C 1.1857(3) 1.0144(3) 0.5649(3)
H4 H 1.1372 1.0651 0.6206
C7 C 1.1250(3) 0.9020(3) 0.5668(3)
H5 H 1.0362 0.8766 0.6249
O3 O 0.97867(18) 0.3854(2) 0.7546(2)
O4 O 1.16493(18) 0.35586(17) 0.59026(18)
C8 C 1.0932(2) 0.3284(2) 0.7186(3)
C9 C 1.1470(2) 0.2139(2) 0.8385(2)
C10 C 1.2745(3) 0.1508(3) 0.8080(3)
H6 H 1.3307 0.1847 0.7135
C11 C 1.3206(4) 0.0381(3) 0.9152(3)
H7 H 1.4076 -0.0027 0.8929
C12 C 1.2379(4) -0.0136(3) 1.0548(3)
H8 H 1.2669 -0.0922 1.1263
C13 C 1.1141(4) 0.0504(3) 1.0876(3)
H9 H 1.0596 0.0174 1.1830
C14 C 1.0674(3) 0.1644(3) 0.9813(3)
H10 H 0.9824 0.2078 1.0056
N1 N 0.71571(18) 0.58901(18) 0.74732(19)
C15 C 0.7534(3) 0.6434(2) 0.8247(3)
H11 H 0.8466 0.6434 0.8190
C16 C 0.6567(3) 0.7017(3) 0.9160(3)
H12 H 0.6888 0.7373 0.9696
N2 N 0.5255(2) 0.7080(2) 0.9287(2)
C17 C 0.4826(2) 0.6515(2) 0.8506(3)
C18 C 0.3399(3) 0.6532(3) 0.8606(3)
H13 H 0.2766 0.6939 0.9189
C19 C 0.2954(3) 0.5960(3) 0.7856(3)
H14 H 0.2016 0.5975 0.7932
C20 C 0.3879(3) 0.5350(3) 0.6974(3)
H15 H 0.3551 0.4959 0.6472
C21 C 0.5266(3) 0.5318(3) 0.6834(3)
H16 H 0.5876 0.4914 0.6234
C22 C 0.5765(2) 0.5901(2) 0.7604(2)
Zn1A Zn 1.12543(2) 0.47730(2) 0.39222(3)
O2A O 0.80628(17) 0.35320(17) 0.59895(19)
O4A O 0.83507(18) 0.64414(17) 0.40974(18)
loop_
_geom_bond_atom_site_label_1
_geom_bond_atom_site_label_2
_geom_bond_site_symmetry_1
_geom_bond_site_symmetry_2
Zn1 O1 1_555 1_555
O1 C1 1_555 1_555
O2 C1 1_555 1_555
C1 C2 1_555 1_555
C2 C3 1_555 1_555
C3 H1 1_555 1_555
C4 C3 1_555 1_555
H2 C4 1_555 1_555
C5 C4 1_555 1_555
H3 C5 1_555 1_555
C6 C5 1_555 1_555
H4 C6 1_555 1_555
C7 C2 1_555 1_555
H5 C7 1_555 1_555
O3 Zn1 1_555 1_555
O4 C8 1_555 1_555
C8 O3 1_555 1_555
C9 C8 1_555 1_555
C10 C9 1_555 1_555
H6 C10 1_555 1_555
C11 C10 1_555 1_555
H7 C11 1_555 1_555
C12 C11 1_555 1_555
H8 C12 1_555 1_555
C13 C12 1_555 1_555
H9 C13 1_555 1_555
C14 C9 1_555 1_555
H10 C14 1_555 1_555
N1 Zn1 1_555 1_555
C15 N1 1_555 1_555
H11 C15 1_555 1_555
C16 C15 1_555 1_555
H12 C16 1_555 1_555
N2 C16 1_555 1_555
C17 N2 1_555 1_555
C18 C17 1_555 1_555
H13 C18 1_555 1_555
C19 C18 1_555 1_555
H14 C19 1_555 1_555
C20 C19 1_555 1_555
H15 C20 1_555 1_555
C21 C20 1_555 1_555
H16 C21 1_555 1_555
C22 N1 1_555 1_555
Zn1A Zn1 1_555 1_555
O2A Zn1 1_555 1_555
O4A Zn1 1_555 1_555
O2 Zn1A 1_555 1_555
C6 C7 1_555 1_555
O4 Zn1A 1_555 1_555
C13 C14 1_555 1_555
C17 C22 1_555 1_555
C21 C22 1_555 1_555

#END
