
#######################################################################
#
#                 Cambridge Crystallographic Data Centre
#                                CCDC 
#
#######################################################################
#
# If this CIF has been generated from an entry in the Cambridge 
# Structural Database, then it will include bibliographic, chemical, 
# crystal, experimental, refinement or atomic coordinate data resulting 
# from the CCDC's data processing and validation procedures.
#
#######################################################################

data_GOJNOJ
_symmetry_cell_setting           triclinic
_symmetry_space_group_name_H-M   'P -1'
_symmetry_Int_Tables_number      2
_space_group_name_Hall           '-P 1'
loop_
_symmetry_equiv_pos_site_id
_symmetry_equiv_pos_as_xyz
1 x,y,z
2 -x,-y,-z
_cell_length_a                   9.141(5)
_cell_length_b                   12.406(5)
_cell_length_c                   15.064(5)
_cell_angle_alpha                95.190(5)
_cell_angle_beta                 94.460(5)
_cell_angle_gamma                109.510(5)
_cell_volume                     1592.98
loop_
_atom_site_label
_atom_site_type_symbol
_atom_site_fract_x
_atom_site_fract_y
_atom_site_fract_z
Cu1 Cu 1.0000 0.0000 0.0000
N1 N 0.9658(4) 0.1030(3) -0.0904(2)
H1 H 0.9805 0.0760 -0.1453
H2 H 0.8671 0.1027 -0.0926
C1 C 1.0750(8) 0.2204(5) -0.0650(5)
H3 H 1.1633 0.2120 -0.0943
C2 C 1.0511(7) 0.3114(5) -0.1146(4)
H4 H 0.9463 0.3122 -0.1094
H5 H 1.0589 0.2930 -0.1776
C3 C 1.1679(10) 0.4310(6) -0.0813(6)
H6 H 1.2530 0.4454 -0.1184
H7 H 1.1167 0.4864 -0.0919
C4 C 1.2311(15) 0.4535(7) 0.0058(8)
H8 H 1.1619 0.4802 0.0403
H9 H 1.3289 0.5174 0.0099
C5 C 1.2642(7) 0.3595(5) 0.0522(4)
H10 H 1.3663 0.3579 0.0404
H11 H 1.2662 0.3768 0.1164
C6 C 1.1437(10) 0.2434(5) 0.0208(5)
H12 H 1.0567 0.2523 0.0512
N2 N 1.1616(4) 0.1467(3) 0.0623(3)
H13 H 1.1492 0.1549 0.1209
H14 H 1.2580 0.1442 0.0576
Cu2 Cu 0.54335(6) 0.02277(5) 0.31589(4)
N3 N 0.6106(4) -0.1048(3) 0.2594(3)
H15 H 0.5951 -0.1103 0.1992
H16 H 0.7127 -0.0903 0.2761
C7 C 0.5160(6) -0.2122(5) 0.2905(4)
H17 H 0.5552 -0.2055 0.3539
C8 C 0.5336(7) -0.3217(5) 0.2476(4)
H18 H 0.5129 -0.3268 0.1830
H19 H 0.6405 -0.3184 0.2616
C9 C 0.4250(9) -0.4279(6) 0.2792(6)
H20 H 0.4249 -0.4949 0.2405
H21 H 0.4655 -0.4337 0.3393
C10 C 0.2664(9) -0.4311(6) 0.2802(7)
H22 H 0.2100 -0.4957 0.3104
H23 H 0.2174 -0.4448 0.2188
C11 C 0.2500(7) -0.3219(5) 0.3262(4)
H24 H 0.1420 -0.3259 0.3161
H25 H 0.2779 -0.3161 0.3903
C12 C 0.3539(6) -0.2161(5) 0.2905(4)
H26 H 0.3128 -0.2204 0.2278
N4 N 0.3520(4) -0.1068(3) 0.3368(3)
H27 H 0.3502 -0.1113 0.3961
H28 H 0.2656 -0.0933 0.3158
N5 N 0.4777(4) 0.1484(3) 0.3753(3)
H29 H 0.4001 0.1580 0.3399
H30 H 0.4425 0.1293 0.4279
C13 C 0.6136(6) 0.2559(5) 0.3906(4)
H31 H 0.6802 0.2486 0.4422
C14 C 0.5740(7) 0.3630(5) 0.4157(5)
H32 H 0.4965 0.3681 0.3701
H33 H 0.5292 0.3573 0.4721
C15 C 0.7162(9) 0.4701(6) 0.4246(7)
H34 H 0.6837 0.5370 0.4306
H35 H 0.7825 0.4731 0.4790
C16 C 0.8079(11) 0.4761(7) 0.3477(8)
H36 H 0.9040 0.5417 0.3612
H37 H 0.7491 0.4891 0.2958
C17 C 0.8484(7) 0.3693(5) 0.3238(5)
H38 H 0.9243 0.3640 0.3703
H39 H 0.8951 0.3749 0.2679
C18 C 0.7042(7) 0.2617(5) 0.3137(5)
H40 H 0.6367 0.2663 0.2614
N6 N 0.7352(4) 0.1536(4) 0.2960(3)
H41 H 0.8179 0.1548 0.3331
H42 H 0.7568 0.1444 0.2391
Co1 Co 0.5000 0.0000 0.0000
N7 N 0.3831(5) 0.0416(4) 0.1779(3)
C19 C 0.4254(5) 0.0279(4) 0.1102(3)
C20 C 0.6981(5) 0.0332(4) 0.0652(3)
N8 N 0.8161(5) 0.0521(4) 0.1075(3)
N9 N 0.4231(8) -0.2489(5) 0.0346(4)
C21 C 0.4506(6) -0.1560(5) 0.0187(4)
Co2 Co 1.0000 0.0000 0.5000
N10 N 0.6725(5) 0.0066(4) 0.4655(3)
C22 C 0.7966(5) 0.0031(4) 0.4789(3)
N11 N 1.1223(8) 0.2470(5) 0.4567(4)
C23 C 1.0776(6) 0.1554(5) 0.4765(3)
N12 N 1.0067(5) 0.0685(5) 0.6994(3)
C24 C 1.0047(5) 0.0456(4) 0.6242(3)
N1A N 1.0342(4) -0.1030(3) 0.0904(2)
H1A H 1.0195 -0.0760 0.1453
H2A H 1.1329 -0.1027 0.0926
C1A C 0.9250(8) -0.2204(5) 0.0650(5)
H3A H 0.8367 -0.2120 0.0943
C2A C 0.9489(7) -0.3114(5) 0.1146(4)
H4A H 1.0537 -0.3122 0.1094
H5A H 0.9411 -0.2930 0.1776
C3A C 0.8321(10) -0.4310(6) 0.0813(6)
H6A H 0.7470 -0.4454 0.1184
H7A H 0.8833 -0.4864 0.0919
C4A C 0.7689(15) -0.4535(7) -0.0058(8)
H8A H 0.8381 -0.4802 -0.0403
H9A H 0.6711 -0.5174 -0.0099
C5A C 0.7358(7) -0.3595(5) -0.0522(4)
H10A H 0.6337 -0.3579 -0.0404
H11A H 0.7338 -0.3768 -0.1164
C6A C 0.8563(10) -0.2434(5) -0.0208(5)
H12A H 0.9433 -0.2523 -0.0512
N2A N 0.8384(4) -0.1467(3) -0.0623(3)
H13A H 0.8508 -0.1549 -0.1209
H14A H 0.7420 -0.1442 -0.0576
Cu2A Cu 0.45665(6) -0.02277(5) -0.31589(4)
N3A N 0.3894(4) 0.1048(3) -0.2594(3)
H15A H 0.4049 0.1103 -0.1992
H16A H 0.2873 0.0903 -0.2761
C7A C 0.4840(6) 0.2122(5) -0.2905(4)
H17A H 0.4448 0.2055 -0.3539
C8A C 0.4664(7) 0.3217(5) -0.2476(4)
H18A H 0.4871 0.3268 -0.1830
H19A H 0.3595 0.3184 -0.2616
C9A C 0.5750(9) 0.4279(6) -0.2792(6)
H20A H 0.5751 0.4949 -0.2405
H21A H 0.5345 0.4337 -0.3393
C10A C 0.7336(9) 0.4311(6) -0.2802(7)
H22A H 0.7900 0.4957 -0.3104
H23A H 0.7826 0.4448 -0.2188
C11A C 0.7500(7) 0.3219(5) -0.3262(4)
H24A H 0.8580 0.3259 -0.3161
H25A H 0.7221 0.3161 -0.3903
C12A C 0.6461(6) 0.2161(5) -0.2905(4)
H26A H 0.6872 0.2204 -0.2278
N4A N 0.6480(4) 0.1068(3) -0.3368(3)
H27A H 0.6498 0.1113 -0.3961
H28A H 0.7344 0.0933 -0.3158
N5A N 0.5223(4) -0.1484(3) -0.3753(3)
H29A H 0.5999 -0.1580 -0.3399
H30A H 0.5575 -0.1293 -0.4279
C13A C 0.3864(6) -0.2559(5) -0.3906(4)
H31A H 0.3198 -0.2486 -0.4422
C14A C 0.4260(7) -0.3630(5) -0.4157(5)
H32A H 0.5035 -0.3681 -0.3701
H33A H 0.4708 -0.3573 -0.4721
C15A C 0.2838(9) -0.4701(6) -0.4246(7)
H34A H 0.3163 -0.5370 -0.4306
H35A H 0.2175 -0.4731 -0.4790
C16A C 0.1921(11) -0.4761(7) -0.3477(8)
H36A H 0.0960 -0.5417 -0.3612
H37A H 0.2509 -0.4891 -0.2958
C17A C 0.1516(7) -0.3693(5) -0.3238(5)
H38A H 0.0757 -0.3640 -0.3703
H39A H 0.1049 -0.3749 -0.2679
C18A C 0.2958(7) -0.2617(5) -0.3137(5)
H40A H 0.3633 -0.2663 -0.2614
N6A N 0.2648(4) -0.1536(4) -0.2960(3)
H41A H 0.1821 -0.1548 -0.3331
H42A H 0.2432 -0.1444 -0.2391
Co1_2 Co 1.5000 0.0000 0.0000
N7A N 0.6169(5) -0.0416(4) -0.1779(3)
C19A C 0.5746(5) -0.0279(4) -0.1102(3)
C20A C 1.3019(5) -0.0332(4) -0.0652(3)
C20A_2 C 0.3019(5) -0.0332(4) -0.0652(3)
N8A N 1.1839(5) -0.0521(4) -0.1075(3)
N9A N 0.5769(8) 0.2489(5) -0.0346(4)
C21A C 0.5494(6) 0.1560(5) -0.0187(4)
Co2_2 Co 0.0000 0.0000 -0.5000
N10A N 0.3275(5) -0.0066(4) -0.4655(3)
C22A C 0.2034(5) -0.0031(4) -0.4789(3)
C22A_2 C 1.2034(5) -0.0031(4) 0.5211(3)
N11A N 0.8777(8) -0.2470(5) 0.5433(4)
C23A C 0.9224(6) -0.1554(5) 0.5235(3)
N12A N 0.9933(5) -0.0685(5) 0.3006(3)
C24A C 0.9953(5) -0.0456(4) 0.3758(3)
O1 O 0.1638(8) 0.1983(6) 0.2691(4)
H43 H 0.1614 0.2553 0.3354
H44 H 0.2727 0.2451 0.2428
loop_
_geom_bond_atom_site_label_1
_geom_bond_atom_site_label_2
_geom_bond_site_symmetry_1
_geom_bond_site_symmetry_2
Cu1 N1 1_555 1_555
N1 H1 1_555 1_555
H2 N1 1_555 1_555
C1 N1 1_555 1_555
H3 C1 1_555 1_555
C2 C1 1_555 1_555
H4 C2 1_555 1_555
H5 C2 1_555 1_555
C3 C2 1_555 1_555
H6 C3 1_555 1_555
H7 C3 1_555 1_555
C4 C3 1_555 1_555
H8 C4 1_555 1_555
H9 C4 1_555 1_555
C5 C4 1_555 1_555
H10 C5 1_555 1_555
H11 C5 1_555 1_555
C6 C1 1_555 1_555
H12 C6 1_555 1_555
N2 Cu1 1_555 1_555
H13 N2 1_555 1_555
H14 N2 1_555 1_555
Cu2 N3 1_555 1_555
N3 H15 1_555 1_555
H16 N3 1_555 1_555
C7 N3 1_555 1_555
H17 C7 1_555 1_555
C8 C7 1_555 1_555
H18 C8 1_555 1_555
H19 C8 1_555 1_555
C9 C8 1_555 1_555
H20 C9 1_555 1_555
H21 C9 1_555 1_555
C10 C9 1_555 1_555
H22 C10 1_555 1_555
H23 C10 1_555 1_555
C11 C10 1_555 1_555
H24 C11 1_555 1_555
H25 C11 1_555 1_555
C12 C7 1_555 1_555
H26 C12 1_555 1_555
N4 Cu2 1_555 1_555
H27 N4 1_555 1_555
H28 N4 1_555 1_555
N5 Cu2 1_555 1_555
H29 N5 1_555 1_555
H30 N5 1_555 1_555
C13 N5 1_555 1_555
H31 C13 1_555 1_555
C14 C13 1_555 1_555
H32 C14 1_555 1_555
H33 C14 1_555 1_555
C15 C14 1_555 1_555
H34 C15 1_555 1_555
H35 C15 1_555 1_555
C16 C15 1_555 1_555
H36 C16 1_555 1_555
H37 C16 1_555 1_555
C17 C16 1_555 1_555
H38 C17 1_555 1_555
H39 C17 1_555 1_555
C18 C13 1_555 1_555
H40 C18 1_555 1_555
N6 Cu2 1_555 1_555
H41 N6 1_555 1_555
H42 N6 1_555 1_555
Co1 C19 1_555 1_555
N7 Cu2 1_555 1_555
C19 N7 1_555 1_555
C20 Co1 1_555 1_555
N8 Cu1 1_555 1_555
N9 C21 1_555 1_555
C21 Co1 1_555 1_555
Co2 C22 1_555 1_555
N10 Cu2 1_555 1_555
C22 N10 1_555 1_555
N11 C23 1_555 1_555
C23 Co2 1_555 1_555
N12 C24 1_555 1_555
C24 Co2 1_555 1_555
O1 H43 1_555 1_555
H44 O1 1_555 1_555
N1A Cu1 1_555 1_555
H1A N1A 1_555 1_555
H2A N1A 1_555 1_555
C1A N1A 1_555 1_555
H3A C1A 1_555 1_555
C2A C1A 1_555 1_555
H4A C2A 1_555 1_555
H5A C2A 1_555 1_555
C3A C2A 1_555 1_555
H6A C3A 1_555 1_555
H7A C3A 1_555 1_555
C4A C3A 1_555 1_555
H8A C4A 1_555 1_555
H9A C4A 1_555 1_555
C5A C4A 1_555 1_555
H10A C5A 1_555 1_555
H11A C5A 1_555 1_555
C6A C1A 1_555 1_555
H12A C6A 1_555 1_555
N2A Cu1 1_555 1_555
H13A N2A 1_555 1_555
H14A N2A 1_555 1_555
Cu2A N3A 1_555 1_555
N3A H15A 1_555 1_555
H16A N3A 1_555 1_555
C7A N3A 1_555 1_555
H17A C7A 1_555 1_555
C8A C7A 1_555 1_555
H18A C8A 1_555 1_555
H19A C8A 1_555 1_555
C9A C8A 1_555 1_555
H20A C9A 1_555 1_555
H21A C9A 1_555 1_555
C10A C9A 1_555 1_555
H22A C10A 1_555 1_555
H23A C10A 1_555 1_555
C11A C10A 1_555 1_555
H24A C11A 1_555 1_555
H25A C11A 1_555 1_555
C12A C7A 1_555 1_555
H26A C12A 1_555 1_555
N4A Cu2A 1_555 1_555
H27A N4A 1_555 1_555
H28A N4A 1_555 1_555
N5A Cu2A 1_555 1_555
H29A N5A 1_555 1_555
H30A N5A 1_555 1_555
C13A N5A 1_555 1_555
H31A C13A 1_555 1_555
C14A C13A 1_555 1_555
H32A C14A 1_555 1_555
H33A C14A 1_555 1_555
C15A C14A 1_555 1_555
H34A C15A 1_555 1_555
H35A C15A 1_555 1_555
C16A C15A 1_555 1_555
H36A C16A 1_555 1_555
H37A C16A 1_555 1_555
C17A C16A 1_555 1_555
H38A C17A 1_555 1_555
H39A C17A 1_555 1_555
C18A C13A 1_555 1_555
H40A C18A 1_555 1_555
N6A Cu2A 1_555 1_555
H41A N6A 1_555 1_555
H42A N6A 1_555 1_555
Co1_2 C20A 1_555 1_555
N7A Cu2A 1_555 1_555
C19A Co1 1_555 1_555
C20A N8A 1_555 1_555
C20A_2 Co1 1_555 1_555
N8A Cu1 1_555 1_555
N9A C21A 1_555 1_555
C21A Co1 1_555 1_555
Co2_2 C22A 1_555 1_555
N10A Cu2A 1_555 1_555
C22A N10A 1_555 1_555
C22A_2 Co2 1_555 1_555
N11A C23A 1_555 1_555
C23A Co2 1_555 1_555
N12A C24A 1_555 1_555
C24A Co2 1_555 1_555
C5 C6 1_555 1_555
C6 N2 1_555 1_555
C11 C12 1_555 1_555
C12 N4 1_555 1_555
C17 C18 1_555 1_555
C18 N6 1_555 1_555
C20 N8 1_555 1_555
C5A C6A 1_555 1_555
C6A N2A 1_555 1_555
C11A C12A 1_555 1_555
C12A N4A 1_555 1_555
C17A C18A 1_555 1_555
C18A N6A 1_555 1_555
N7A C19A 1_555 1_555

#END
