
#######################################################################
#
#                 Cambridge Crystallographic Data Centre
#                                CCDC 
#
#######################################################################
#
# If this CIF has been generated from an entry in the Cambridge 
# Structural Database, then it will include bibliographic, chemical, 
# crystal, experimental, refinement or atomic coordinate data resulting 
# from the CCDC's data processing and validation procedures.
#
#######################################################################

data_GOJSED01
_symmetry_cell_setting           triclinic
_symmetry_space_group_name_H-M   'P -1'
_symmetry_Int_Tables_number      2
_space_group_name_Hall           '-P 1'
loop_
_symmetry_equiv_pos_site_id
_symmetry_equiv_pos_as_xyz
1 x,y,z
2 -x,-y,-z
_cell_length_a                   7.484(2)
_cell_length_b                   9.015(3)
_cell_length_c                   10.212(4)
_cell_angle_alpha                107.39(3)
_cell_angle_beta                 104.29(3)
_cell_angle_gamma                96.67(3)
_cell_volume                     623.569
loop_
_atom_site_label
_atom_site_type_symbol
_atom_site_fract_x
_atom_site_fract_y
_atom_site_fract_z
Fe1 Fe 0.00000 0.00000 0.00000
S1 S 0.4320(4) 0.1193(4) -0.2621(4)
O1 O -0.1364(8) 0.1758(6) -0.0599(5)
N1 N 0.1854(10) 0.0236(8) -0.1244(7)
N2 N 0.2038(9) 0.1874(7) 0.1885(6)
C1 C 0.2883(12) 0.0643(10) -0.1789(9)
C2 C 0.2288(11) 0.1811(9) 0.3206(8)
C3 C 0.3432(11) 0.2977(9) 0.4441(8)
C4 C 0.4400(10) 0.4338(8) 0.4344(8)
C5 C 0.4140(12) 0.4406(10) 0.2970(8)
C6 C 0.2990(12) 0.3172(10) 0.1810(8)
H1 H 0.1646(11) 0.0919(9) 0.3297(8)
H2 H 0.356(11) 0.2857(9) 0.5331(8)
H3 H 0.4746(12) 0.5288(10) 0.2840(8)
H4 H 0.2866(12) 0.3244(10) 0.0903(8)
Fe1_2 Fe 1.00000 1.00000 1.00000
S1A S -0.4320(4) -0.1193(4) 0.2621(4)
O1A O 0.1364(8) -0.1758(6) 0.0599(5)
N1A N -0.1854(10) -0.0236(8) 0.1244(7)
N2A N 0.7962(9) 0.8126(7) 0.8115(6)
N2A_2 N -0.2038(9) -0.1874(7) -0.1885(6)
C1A C -0.2883(12) -0.0643(10) 0.1789(9)
C2A C 0.7712(11) 0.8189(9) 0.6794(8)
C3A C 0.6568(11) 0.7023(9) 0.5559(8)
C4A C 0.5600(10) 0.5662(8) 0.5656(8)
C5A C 0.5860(12) 0.5594(10) 0.7030(8)
C6A C 0.7010(12) 0.6828(10) 0.8190(8)
H1A H 0.8354(11) 0.9081(9) 0.6703(8)
H2A H 0.644(11) 0.7143(9) 0.4669(8)
H3A H 0.5254(12) 0.4712(10) 0.7160(8)
H4A H 0.7134(12) 0.6756(10) 0.9097(8)
N3 N 0.0500(12) 0.6913(10) 0.2491(10)
C7 C 0.1328(16) 0.7597(12) 0.3877(12)
C8 C 0.1185(14) 0.6905(11) 0.4887(11)
C9 C 0.0087(12) 0.5406(10) 0.4478(9)
C10 C -0.0789(13) 0.4696(11) 0.3020(10)
C11 C -0.0558(15) 0.5479(13) 0.2075(11)
H5 H 0.2059(16) 0.8615(12) 0.4195(12)
H6 H 0.1831(14) 0.7448(11) 0.5852(11)
H7 H -0.1541(13) 0.3682(11) 0.2668(10)
H8 H -0.1177(15) 0.4970(13) 0.1101(11)
N3A N -0.0500(12) 0.3087(10) 0.7509(10)
C7A C -0.1328(16) 0.2403(12) 0.6123(12)
C8A C -0.1185(14) 0.3095(11) 0.5113(11)
C9A C -0.0087(12) 0.4594(10) 0.5522(9)
C10A C 0.0789(13) 0.5304(11) 0.6980(10)
C11A C 0.0558(15) 0.4521(13) 0.7925(11)
H5A H -0.2059(16) 0.1385(12) 0.5805(12)
H6A H -0.1831(14) 0.2552(11) 0.4148(11)
H7A H 0.1541(13) 0.6318(11) 0.7332(10)
H8A H 0.1177(15) 0.5030(13) 0.8899(11)
loop_
_geom_bond_atom_site_label_1
_geom_bond_atom_site_label_2
_geom_bond_site_symmetry_1
_geom_bond_site_symmetry_2
Fe1 O1 1_555 1_555
S1 C1 1_555 1_555
N1 Fe1 1_555 1_555
N2 Fe1 1_555 1_555
C1 N1 1_555 1_555
C2 N2 1_555 1_555
C3 C2 1_555 1_555
C4 C3 1_555 1_555
C5 C4 1_555 1_555
C6 N2 1_555 1_555
H1 C2 1_555 1_555
H2 C3 1_555 1_555
H3 C5 1_555 1_555
H4 C6 1_555 1_555
N3 C7 1_555 1_555
C7 C8 1_555 1_555
C8 C9 1_555 1_555
C9 C10 1_555 1_555
C10 C11 1_555 1_555
C11 N3 1_555 1_555
H5 C7 1_555 1_555
H6 C8 1_555 1_555
H7 C10 1_555 1_555
H8 C11 1_555 1_555
Fe1_2 N2A 1_555 1_555
S1A C1A 1_555 1_555
O1A Fe1 1_555 1_555
N1A Fe1 1_555 1_555
N2A C2A 1_555 1_555
N2A_2 Fe1 1_555 1_555
C1A N1A 1_555 1_555
C2A C3A 1_555 1_555
C3A C4A 1_555 1_555
C4A C4 1_555 1_555
C5A C4A 1_555 1_555
C6A N2A 1_555 1_555
H1A C2A 1_555 1_555
H2A C3A 1_555 1_555
H3A C5A 1_555 1_555
H4A C6A 1_555 1_555
N3A C7A 1_555 1_555
C7A C8A 1_555 1_555
C8A C9A 1_555 1_555
C9A C9 1_555 1_555
C10A C9A 1_555 1_555
C11A N3A 1_555 1_555
H5A C7A 1_555 1_555
H6A C8A 1_555 1_555
H7A C10A 1_555 1_555
H8A C11A 1_555 1_555
C5 C6 1_555 1_555
C5A C6A 1_555 1_555
C10A C11A 1_555 1_555

#END
