
#######################################################################
#
#                 Cambridge Crystallographic Data Centre
#                                CCDC 
#
#######################################################################
#
# If this CIF has been generated from an entry in the Cambridge 
# Structural Database, then it will include bibliographic, chemical, 
# crystal, experimental, refinement or atomic coordinate data resulting 
# from the CCDC's data processing and validation procedures.
#
#######################################################################

data_GOKCIT
_symmetry_cell_setting           triclinic
_symmetry_space_group_name_H-M   'P -1'
_symmetry_Int_Tables_number      2
_space_group_name_Hall           '-P 1'
loop_
_symmetry_equiv_pos_site_id
_symmetry_equiv_pos_as_xyz
1 x,y,z
2 -x,-y,-z
_cell_length_a                   10.812(5)
_cell_length_b                   14.844(5)
_cell_length_c                   16.829(5)
_cell_angle_alpha                67.130(12)
_cell_angle_beta                 75.243(16)
_cell_angle_gamma                76.908(17)
_cell_volume                     2381.76
loop_
_atom_site_label
_atom_site_type_symbol
_atom_site_fract_x
_atom_site_fract_y
_atom_site_fract_z
Zn1 Zn 1.05228(3) -0.33475(2) 0.360604(18)
Zn2 Zn 1.44311(3) 0.15980(2) -0.153500(17)
Zn3 Zn 0.39191(3) -0.22805(2) -0.234255(18)
C1 C 1.1414(2) 0.04449(17) 0.02637(15)
C2 C 1.0306(2) 0.11122(18) 0.03292(15)
H1 H 1.0225 0.1729 -0.0111
C3 C 0.9309(2) 0.08639(18) 0.10515(15)
C4 C 0.9425(2) -0.00664(18) 0.16955(15)
H2 H 0.8773 -0.0230 0.2187
C5 C 1.0505(2) -0.07517(18) 0.16102(15)
C6 C 1.1494(2) -0.05016(18) 0.08986(15)
H3 H 1.2217 -0.0965 0.0841
C7 C 1.2586(3) 0.07196(19) -0.04350(16)
C8 C 0.8108(2) 0.15783(19) 0.11676(17)
C9 C 1.0619(3) -0.17508(19) 0.23095(15)
C10 C 1.3960(3) -0.40202(19) 0.61975(16)
C11 C 1.4244(3) -0.50183(19) 0.66702(15)
H4 H 1.4626 -0.5216 0.7159
C12 C 1.3961(2) -0.57264(17) 0.64186(14)
C13 C 1.3357(2) -0.54239(18) 0.56999(15)
H5 H 1.3160 -0.5892 0.5529
C14 C 1.3047(2) -0.44263(18) 0.52385(15)
C15 C 1.3377(2) -0.37257(18) 0.54726(16)
H6 H 1.3208 -0.3058 0.5144
C16 C 1.4180(3) -0.3247(2) 0.64949(19)
C17 C 1.4191(3) -0.68087(19) 0.69649(17)
C18 C 1.2236(3) -0.4093(2) 0.45455(16)
C19 C 0.8138(3) -0.37784(19) -0.00060(17)
C20 C 0.8894(3) -0.40133(18) 0.06320(16)
C21 C 1.0187(3) -0.3932(2) 0.03792(17)
H7 H 1.0684 -0.4095 0.0806
C22 C 1.0769(3) -0.3610(2) -0.05014(19)
H8 H 1.1654 -0.3588 -0.0664
C23 C 1.0021(4) -0.3327(2) -0.11261(19)
H9 H 1.0389 -0.3069 -0.1717
C24 C 0.8731(4) -0.3420(2) -0.08866(18)
H10 H 0.8242 -0.3240 -0.1320
C25 C 0.6739(3) -0.3931(3) 0.0288(2)
H11 H 0.6677 -0.4581 0.0736
H12 H 0.6264 -0.3445 0.0549
C26 C 0.8221(3) -0.4355(2) 0.15853(16)
H13 H 0.7462 -0.3880 0.1660
H14 H 0.7933 -0.4982 0.1729
C27 C 0.5378(3) -0.3060(2) -0.08657(19)
H15 H 0.5107 -0.2485 -0.0734
C28 C 0.5651(3) -0.4151(2) -0.1468(2)
H16 H 0.5596 -0.4459 -0.1842
C29 C 0.6315(4) -0.4548(2) -0.0807(2)
H17 H 0.6795 -0.5174 -0.0639
C30 C 0.9209(3) -0.3771(2) 0.24537(16)
H18 H 0.8825 -0.3115 0.2255
C31 C 0.9745(4) -0.5329(2) 0.2631(2)
H19 H 0.9809 -0.5945 0.2590
C32 C 1.0333(4) -0.5101(2) 0.3131(2)
H20 H 1.0889 -0.5544 0.3495
C33 C 1.9212(3) -0.0467(2) -0.38237(15)
C34 C 1.8631(3) -0.0675(2) -0.43773(16)
C35 C 1.9100(3) -0.1509(2) -0.45853(19)
H21 H 1.8720 -0.1639 -0.4959
C36 C 2.0123(4) -0.2155(3) -0.4250(2)
H22 H 2.0427 -0.2721 -0.4394
C37 C 2.0695(3) -0.1975(2) -0.3708(2)
H23 H 2.1389 -0.2416 -0.3482
C38 C 2.0248(3) -0.1133(2) -0.34908(17)
H24 H 2.0645 -0.1013 -0.3119
C39 C 1.8784(3) 0.0438(2) -0.35697(19)
H25 H 1.8587 0.1005 -0.4080
H26 H 1.9486 0.0558 -0.3379
C40 C 1.7466(3) -0.0012(3) -0.4736(2)
H27 H 1.7443 -0.0078 -0.5283
H28 H 1.7544 0.0670 -0.4860
C41 C 1.6745(3) 0.10758(19) -0.27349(16)
H29 H 1.6740 0.1734 -0.3099
C42 C 1.6250(3) -0.02473(19) -0.16770(18)
H30 H 1.5819 -0.0677 -0.1168
C43 C 1.7340(3) -0.0508(2) -0.21832(19)
H31 H 1.7801 -0.1139 -0.2090
C44 C 1.5958(3) -0.1152(2) -0.3646(2)
H32 H 1.6502 -0.1732 -0.3655
C45 C 1.4343(3) -0.0141(2) -0.3350(3)
H33 H 1.3532 0.0114 -0.3108
C46 C 1.5231(4) 0.0396(3) -0.3931(3)
H34 H 1.5160 0.1082 -0.4161
N1 N 0.5060(2) -0.32081(18) -0.15006(15)
N2 N 0.6145(3) -0.3847(2) -0.04317(17)
N3 N 0.9036(2) -0.44706(17) 0.21978(13)
N4 N 0.9991(2) -0.41241(16) 0.30238(14)
N5 N 1.5873(2) 0.07518(15) -0.20271(13)
N6 N 1.7639(2) 0.03361(16) -0.28624(14)
N7 N 1.6260(2) -0.02538(18) -0.41200(17)
N8 N 1.4801(2) -0.11218(17) -0.31616(16)
O1 O 1.36029(19) 0.01252(15) -0.04243(12)
O2 O 1.25387(19) 0.15785(14) -0.10103(12)
O3 O 0.7581(2) 0.21073(17) 0.05508(14)
O4 O 0.77142(19) 0.15787(15) 0.19559(12)
O5 O 0.9760(2) -0.19198(14) 0.29971(11)
O6 O 1.1557(2) -0.23986(14) 0.22219(12)
O7 O 1.3612(2) -0.32468(17) 0.72212(13)
O8 O 1.5303(7) -0.2983(6) 0.6265(5)
O10 O 1.4476(2) -0.69973(13) 0.77120(11)
O11 O 1.4051(3) -0.74421(14) 0.67102(15)
O12 O 1.1783(2) -0.47075(15) 0.43978(12)
O13 O 1.1952(2) -0.31724(14) 0.41548(13)
O14 O 1.51657(19) 0.16664(14) -0.05437(12)
H35 H 1.557(3) 0.114(2) -0.027(2)
H36 H 1.569(3) 0.212(2) -0.071(2)
O15 O 0.9106(2) -0.35291(15) 0.47112(12)
H37 H 0.896(4) -0.4142(19) 0.494(2)
H38 H 0.840(3) -0.313(2) 0.475(2)
Zn2_2 Zn 1.44311(3) -0.84020(2) 0.846500(17)
Zn3_2 Zn 1.39191(3) -0.22805(2) -0.234255(18)
Zn3A Zn 0.60809(3) 0.22805(2) 0.234255(18)
Zn3_3 Zn 1.39191(3) -0.22805(2) 0.765745(18)
N8_2 N 0.4801(2) -0.11218(17) -0.31616(16)
O4A O 0.22858(19) -0.15787(15) -0.19559(12)
O7_2 O 0.3612(2) -0.32468(17) -0.27788(13)
O10_2 O 1.4476(2) 0.30027(13) -0.22880(11)
O16 O 0.3306(3) -0.30491(19) 0.09869(15)
H39 H 0.293(4) -0.288(3) 0.054(2)
H40 H 0.271(4) -0.289(3) 0.138(2)
O17 O 0.6860(3) -0.2338(2) -0.53961(18)
H41 H 0.660(4) -0.234(3) -0.5847(19)
H42 H 0.634(4) -0.255(3) -0.4905(17)
O9? O 0.4512(7) -0.2438(4) -0.4128(3)
loop_
_geom_bond_atom_site_label_1
_geom_bond_atom_site_label_2
_geom_bond_site_symmetry_1
_geom_bond_site_symmetry_2
Zn1 N4 1_555 1_555
Zn2 N5 1_555 1_555
Zn3 N1 1_555 1_555
C1 C2 1_555 1_555
C2 H1 1_555 1_555
C3 C2 1_555 1_555
C4 C3 1_555 1_555
H2 C4 1_555 1_555
C5 C4 1_555 1_555
C6 C1 1_555 1_555
H3 C6 1_555 1_555
C7 C1 1_555 1_555
C8 C3 1_555 1_555
C9 C5 1_555 1_555
C10 C11 1_555 1_555
C11 H4 1_555 1_555
C12 C11 1_555 1_555
C13 C12 1_555 1_555
H5 C13 1_555 1_555
C14 C13 1_555 1_555
C15 C10 1_555 1_555
H6 C15 1_555 1_555
C16 C10 1_555 1_555
C17 C12 1_555 1_555
C18 C14 1_555 1_555
C19 C20 1_555 1_555
C20 C21 1_555 1_555
C21 H7 1_555 1_555
C22 C21 1_555 1_555
H8 C22 1_555 1_555
C23 C22 1_555 1_555
H9 C23 1_555 1_555
C24 C19 1_555 1_555
H10 C24 1_555 1_555
C25 C19 1_555 1_555
H11 C25 1_555 1_555
H12 C25 1_555 1_555
C26 C20 1_555 1_555
H13 C26 1_555 1_555
H14 C26 1_555 1_555
C27 H15 1_555 1_555
C28 H16 1_555 1_555
C29 C28 1_555 1_555
H17 C29 1_555 1_555
C30 H18 1_555 1_555
C31 H19 1_555 1_555
C32 C31 1_555 1_555
H20 C32 1_555 1_555
C33 C34 1_555 1_555
C34 C35 1_555 1_555
C35 H21 1_555 1_555
C36 C35 1_555 1_555
H22 C36 1_555 1_555
C37 C36 1_555 1_555
H23 C37 1_555 1_555
C38 C33 1_555 1_555
H24 C38 1_555 1_555
C39 C33 1_555 1_555
H25 C39 1_555 1_555
H26 C39 1_555 1_555
C40 C34 1_555 1_555
H27 C40 1_555 1_555
H28 C40 1_555 1_555
C41 H29 1_555 1_555
C42 H30 1_555 1_555
C43 C42 1_555 1_555
H31 C43 1_555 1_555
C44 H32 1_555 1_555
C45 H33 1_555 1_555
C46 C45 1_555 1_555
H34 C46 1_555 1_555
N1 C27 1_555 1_555
N2 C25 1_555 1_555
N3 C26 1_555 1_555
N4 C30 1_555 1_555
N5 C41 1_555 1_555
N6 C39 1_555 1_555
N7 C40 1_555 1_555
N8 C44 1_555 1_555
O1 Zn2 1_555 1_555
O2 Zn2 1_555 1_555
O3 C8 1_555 1_555
O4 C8 1_555 1_555
O5 Zn1 1_555 1_555
O6 Zn1 1_555 1_555
O7 C16 1_555 1_555
O8 C16 1_555 1_555
O10 C17 1_555 1_555
O11 C17 1_555 1_555
O12 Zn1 1_555 1_555
O13 Zn1 1_555 1_555
O14 Zn2 1_555 1_555
H35 O14 1_555 1_555
H36 O14 1_555 1_555
O15 Zn1 1_555 1_555
H37 O15 1_555 1_555
H38 O15 1_555 1_555
O16 H39 1_555 1_555
H40 O16 1_555 1_555
O17 H41 1_555 1_555
H42 O17 1_555 1_555
Zn2_2 O10 1_555 1_555
Zn3_2 N8 1_555 1_555
Zn3A O4 1_555 1_555
Zn3_3 O7 1_555 1_555
N8_2 Zn3 1_555 1_555
O4A Zn3 1_555 1_555
O7_2 Zn3 1_555 1_555
O10_2 Zn2 1_555 1_555
C5 C6 1_555 1_555
C7 O1 1_555 1_555
C7 O2 1_555 1_555
C9 O5 1_555 1_555
C9 O6 1_555 1_555
C14 C15 1_555 1_555
C18 O12 1_555 1_555
C18 O13 1_555 1_555
C23 C24 1_555 1_555
C27 N2 1_555 1_555
C28 N1 1_555 1_555
C29 N2 1_555 1_555
C30 N3 1_555 1_555
C31 N3 1_555 1_555
C32 N4 1_555 1_555
C37 C38 1_555 1_555
C41 N6 1_555 1_555
C42 N5 1_555 1_555
C43 N6 1_555 1_555
C44 N7 1_555 1_555
C45 N8 1_555 1_555
C46 N7 1_555 1_555

#END
