
#######################################################################
#
#                 Cambridge Crystallographic Data Centre
#                                CCDC 
#
#######################################################################
#
# If this CIF has been generated from an entry in the Cambridge 
# Structural Database, then it will include bibliographic, chemical, 
# crystal, experimental, refinement or atomic coordinate data resulting 
# from the CCDC's data processing and validation procedures.
#
#######################################################################

data_GOKDOZ01
_symmetry_cell_setting           monoclinic
_symmetry_space_group_name_H-M   'P c'
_symmetry_Int_Tables_number      7
_space_group_name_Hall           'P -2yc'
loop_
_symmetry_equiv_pos_site_id
_symmetry_equiv_pos_as_xyz
1 x,y,z
2 x,-y,1/2+z
_cell_length_a                   3.7319(3)
_cell_length_b                   8.4825(8)
_cell_length_c                   18.0255(16)
_cell_angle_alpha                90
_cell_angle_beta                 93.081(6)
_cell_angle_gamma                90
_cell_volume                     569.788
loop_
_atom_site_label
_atom_site_type_symbol
_atom_site_fract_x
_atom_site_fract_y
_atom_site_fract_z
Cu1 Cu -0.02321(10) 0.83187(5) 0.74466(4)
Cl1 Cl -0.4520(2) 0.97049(11) 0.68019(6)
N1 N 0.0314(9) 0.9733(4) 0.8349(2)
N2 N -0.0342(10) 0.6432(4) 0.6774(3)
N3 N 0.2292(12) 0.6848(4) 0.8099(3)
C1 C -0.0731(11) 1.1203(5) 0.8414(3)
H1 H -0.1966 1.1695 0.8001
C2 C -0.0095(14) 1.2073(8) 0.9067(3)
H2 H -0.0825 1.3143 0.9101
C3 C 0.1649(15) 1.1308(10) 0.9666(4)
H3 H 0.2075 1.1850 1.0123
C4 C 0.2760(14) 0.9774(8) 0.9601(3)
H4 H 0.3981 0.9251 1.0006
C5 C 0.2058(12) 0.9008(7) 0.8931(3)
C6 C 0.1279(12) 0.5154(5) 0.7077(4)
C7 C 0.1367(15) 0.3722(6) 0.6690(5)
H5 H 0.2459 0.2817 0.6915
C8 C -0.0160(17) 0.3652(7) 0.5977(6)
H6 H -0.0132 0.2692 0.5706
C9 C -0.1700(14) 0.4955(7) 0.5665(4)
H7 H -0.2721 0.4929 0.5171
C10 C -0.1755(13) 0.6329(6) 0.6083(3)
H8 H -0.2857 0.7238 0.5864
C11 C 0.3263(13) 0.7338(7) 0.8811(3)
C12 C 0.2963(12) 0.5362(5) 0.7843(4)
O1 O 0.4900(13) 0.6625(7) 0.9301(3)
O2 O 0.4691(10) 0.4304(4) 0.8152(3)
Cu1_2 Cu -1.02321(10) 0.83187(5) 0.74466(4)
Cl1_2 Cl 0.5480(2) 0.97049(11) 0.68019(6)
loop_
_geom_bond_atom_site_label_1
_geom_bond_atom_site_label_2
_geom_bond_site_symmetry_1
_geom_bond_site_symmetry_2
Cu1 Cl1 1_555 1_555
Cl1 Cu1_2 1_555 1_555
N1 Cu1 1_555 1_555
N2 Cu1 1_555 1_555
N3 Cu1 1_555 1_555
C1 N1 1_555 1_555
H1 C1 1_555 1_555
C2 C1 1_555 1_555
H2 C2 1_555 1_555
C3 C2 1_555 1_555
H3 C3 1_555 1_555
C4 C3 1_555 1_555
H4 C4 1_555 1_555
C5 N1 1_555 1_555
C6 N2 1_555 1_555
C7 C6 1_555 1_555
H5 C7 1_555 1_555
C8 C7 1_555 1_555
H6 C8 1_555 1_555
C9 C8 1_555 1_555
H7 C9 1_555 1_555
C10 N2 1_555 1_555
H8 C10 1_555 1_555
C11 N3 1_555 1_555
C12 N3 1_555 1_555
O1 C11 1_555 1_555
O2 C12 1_555 1_555
Cl1_2 Cu1 1_555 1_555
C4 C5 1_555 1_555
C5 C11 1_555 1_555
C6 C12 1_555 1_555
C9 C10 1_555 1_555

#END
