
#######################################################################
#
#                 Cambridge Crystallographic Data Centre
#                                CCDC 
#
#######################################################################
#
# If this CIF has been generated from an entry in the Cambridge 
# Structural Database, then it will include bibliographic, chemical, 
# crystal, experimental, refinement or atomic coordinate data resulting 
# from the CCDC's data processing and validation procedures.
#
#######################################################################

data_GOLBEO
_symmetry_cell_setting           orthorhombic
_symmetry_space_group_name_H-M   'P c a b'
_symmetry_Int_Tables_number      61
_space_group_name_Hall           '-P 2bc 2ac'
loop_
_symmetry_equiv_pos_site_id
_symmetry_equiv_pos_as_xyz
1 x,y,z
2 -x,1/2-y,1/2+z
3 1/2+x,-y,1/2-z
4 1/2-x,1/2+y,-z
5 -x,-y,-z
6 x,1/2+y,1/2-z
7 1/2-x,y,1/2+z
8 1/2+x,1/2-y,z
_cell_length_a                   19.199(7)
_cell_length_b                   11.780(5)
_cell_length_c                   13.493(4)
_cell_angle_alpha                90
_cell_angle_beta                 90
_cell_angle_gamma                90
_cell_volume                     3051.63
loop_
_atom_site_label
_atom_site_type_symbol
_atom_site_fract_x
_atom_site_fract_y
_atom_site_fract_z
Cu1 Cu 0.58278(3) 0.06394(6) 0.71500(5)
Cu2 Cu 0.69211(3) 0.28241(6) 0.75397(5)
Cl1 Cl 0.60008(7) 0.2615(1) 0.6472(1)
Cl2 Cl 0.67950(7) -0.0304(1) 0.6683(1)
N1 N 0.5985(2) 0.1286(3) 0.8570(3)
N2 N 0.6683(2) 0.1692(3) 0.8653(3)
C1 C 0.4972(3) -0.0257(5) 0.6660(4)
C2 C 0.4763(2) 0.0545(4) 0.7302(4)
C3 C 0.4626(3) 0.0349(5) 0.8391(4)
C4 C 0.4799(3) 0.1312(5) 0.9063(4)
C5 C 0.5532(2) 0.1697(4) 0.9158(3)
C6 C 0.5704(3) 0.2547(5) 0.9942(4)
C7 C 0.6886(3) 0.0082(5) 0.9731(4)
C8 C 0.7098(2) 0.1077(4) 0.9169(3)
C9 C 0.7847(3) 0.1406(6) 0.9173(4)
C10 C 0.8172(3) 0.1586(6) 0.8180(5)
C11 C 0.8005(2) 0.2645(6) 0.7647(5)
C12 C 0.7852(3) 0.2808(7) 0.6723(5)
H1 H 0.496(2) -0.003(4) 0.598(3)
H2 H 0.506(2) -0.094(3) 0.687(3)
H3 H 0.460(2) 0.130(3) 0.710(3)
H4 H 0.410(2) 0.004(5) 0.847(3)
H5 H 0.483(2) -0.023(3) 0.851(3)
H6 H 0.460(2) 0.184(3) 0.890(2)
H7 H 0.464(2) 0.119(4) 0.974(3)
H8 H 0.533(2) 0.281(3) 1.015(3)
H9 H 0.599(3) 0.311(5) 0.972(4)
H10 H 0.601(3) 0.217(5) 1.045(4)
H11 H 0.728(2) -0.037(4) 0.998(3)
H12 H 0.653(2) 0.022(4) 1.013(3)
H13 H 0.661(3) -0.040(5) 0.945(4)
H14 H 0.805(2) 0.104(3) 0.952(3)
H15 H 0.792(3) 0.215(5) 0.931(4)
H16 H 0.876(2) 0.147(4) 0.843(4)
H17 H 0.805(3) 0.093(6) 0.763(5)
H18 H 0.814(4) 0.314(7) 0.818(6)
H19 H 0.788(3) 0.342(7) 0.632(6)
H20 H 0.770(3) 0.225(6) 0.651(5)
Cl2E Cl 0.67950(7) 0.4696(1) 0.8317(1)
Cu2E Cu 0.69211(3) -0.21759(6) 0.74603(5)
loop_
_geom_bond_atom_site_label_1
_geom_bond_atom_site_label_2
_geom_bond_site_symmetry_1
_geom_bond_site_symmetry_2
Cu1 Cl1 1_555 1_555
Cu2 Cl1 1_555 1_555
Cl2 Cu1 1_555 1_555
N1 Cu1 1_555 1_555
N2 Cu2 1_555 1_555
C1 Cu1 1_555 1_555
C2 Cu1 1_555 1_555
C3 C2 1_555 1_555
C4 C3 1_555 1_555
C5 N1 1_555 1_555
C6 C5 1_555 1_555
C7 C8 1_555 1_555
C8 N2 1_555 1_555
C9 C8 1_555 1_555
C10 C9 1_555 1_555
C11 Cu2 1_555 1_555
C12 Cu2 1_555 1_555
H1 C1 1_555 1_555
H2 C1 1_555 1_555
H3 C2 1_555 1_555
H4 C3 1_555 1_555
H5 C3 1_555 1_555
H6 C4 1_555 1_555
H7 C4 1_555 1_555
H8 C6 1_555 1_555
H9 C6 1_555 1_555
H10 C6 1_555 1_555
H11 C7 1_555 1_555
H12 C7 1_555 1_555
H13 C7 1_555 1_555
H14 C9 1_555 1_555
H15 C9 1_555 1_555
H16 C10 1_555 1_555
H17 C10 1_555 1_555
H18 C11 1_555 1_555
H19 C12 1_555 1_555
H20 C12 1_555 1_555
Cl2E Cu2 1_555 1_555
Cu2E Cl2 1_555 1_555
N1 N2 1_555 1_555
C1 C2 1_555 1_555
C4 C5 1_555 1_555
C10 C11 1_555 1_555
C11 C12 1_555 1_555

#END
