
#######################################################################
#
#                 Cambridge Crystallographic Data Centre
#                                CCDC 
#
#######################################################################
#
# If this CIF has been generated from an entry in the Cambridge 
# Structural Database, then it will include bibliographic, chemical, 
# crystal, experimental, refinement or atomic coordinate data resulting 
# from the CCDC's data processing and validation procedures.
#
#######################################################################

data_GOLNAX
_symmetry_cell_setting           monoclinic
_symmetry_space_group_name_H-M   'P 21/c'
_symmetry_Int_Tables_number      14
_space_group_name_Hall           '-P 2ybc'
loop_
_symmetry_equiv_pos_site_id
_symmetry_equiv_pos_as_xyz
1 x,y,z
2 -x,1/2+y,1/2-z
3 -x,-y,-z
4 x,1/2-y,1/2+z
_cell_length_a                   9.0045(9)
_cell_length_b                   11.9991(12)
_cell_length_c                   17.5811(17)
_cell_angle_alpha                90
_cell_angle_beta                 95.755(2)
_cell_angle_gamma                90
_cell_volume                     1889.99
loop_
_atom_site_label
_atom_site_type_symbol
_atom_site_fract_x
_atom_site_fract_y
_atom_site_fract_z
C1 C 0.4322(3) 0.2316(2) 0.81343(15)
H1 H 0.4040 0.2702 0.7684
C2 C 0.5387(3) 0.1159(2) 0.89461(16)
H2 H 0.5993 0.0591 0.9162
C3 C 0.4442(3) 0.1774(2) 0.93221(16)
H3 H 0.4277 0.1707 0.9834
C4 C 0.2636(3) 0.3356(2) 0.89436(17)
H4 H 0.2869 0.4051 0.8700
H5 H 0.2666 0.3491 0.9489
C5 C 0.1088(3) 0.2991(2) 0.86426(15)
H6 H 0.0832 0.2318 0.8906
H7 H 0.1070 0.2818 0.8103
C6 C -0.0072(3) 0.3893(2) 0.87522(16)
H8 H 0.0055 0.4157 0.9276
H9 H 0.0076 0.4518 0.8418
C7 C -0.1640(3) 0.3435(2) 0.85724(15)
H10 H -0.1745 0.3144 0.8055
H11 H -0.1788 0.2823 0.8917
C8 C -0.3756(3) 0.4666(2) 0.80760(15)
H12 H -0.3762 0.4445 0.7569
C9 C -0.4306(3) 0.5472(2) 0.90939(16)
H13 H -0.4775 0.5923 0.9427
C10 C -0.3131(3) 0.4788(2) 0.92988(16)
H14 H -0.2652 0.4686 0.9788
C11 C 1.1642(3) 0.4941(2) 0.68338(15)
C12 C 1.0536(3) 0.4321(2) 0.62747(16)
H15 H 1.0670 0.4612 0.5765
C13 C 0.8928(3) 0.4570(2) 0.64139(17)
H16 H 0.8782 0.5371 0.6424
H17 H 0.8736 0.4276 0.6908
C14 C 0.7825(4) 0.4061(2) 0.57965(17)
H18 H 0.7922 0.4434 0.5315
H19 H 0.6817 0.4185 0.5928
C15 C 0.8071(3) 0.2813(2) 0.56986(16)
H20 H 0.7495 0.2596 0.5219
C16 C 0.7496(3) 0.2108(2) 0.63260(15)
C17 C 0.9709(4) 0.2548(3) 0.56080(17)
H21 H 0.9845 0.1746 0.5612
H22 H 0.9952 0.2825 0.5117
C18 C 1.0780(3) 0.3064(2) 0.62398(17)
H23 H 1.1801 0.2912 0.6142
H24 H 1.0615 0.2731 0.6727
N1 N 0.5319(2) 0.14977(17) 0.81948(12)
N2 N 0.3770(2) 0.25174(17) 0.88028(12)
N3 N -0.2796(2) 0.42811(17) 0.86446(12)
N4 N -0.4696(2) 0.53970(17) 0.83217(12)
O1 O 1.1445(2) 0.59615(14) 0.69419(12)
O2 O 1.2776(2) 0.44502(15) 0.71612(10)
O4 O 0.6715(2) 0.25398(14) 0.68098(10)
O5 O 0.7763(2) 0.10747(14) 0.63436(11)
Ni1 Ni 0.65187(3) 0.09925(3) 0.733512(18)
N4A N 0.4696(2) 0.03970(17) 0.66783(12)
O1A O 0.8555(2) 0.09615(14) 0.80581(12)
O2A O 0.7224(2) -0.05498(15) 0.78388(10)
Ni1A Ni -0.65187(3) 0.59925(3) 0.766488(18)
Ni1A_2 Ni 1.34813(3) 0.59925(3) 0.766488(18)
O3 O 1.5782(13) -0.1622(11) 0.8909(6)
H25 H 1.597(7) -0.104(6) 0.865(8)
H26 H 1.521(4) -0.200(10) 0.858(6)
loop_
_geom_bond_atom_site_label_1
_geom_bond_atom_site_label_2
_geom_bond_site_symmetry_1
_geom_bond_site_symmetry_2
C1 H1 1_555 1_555
C2 H2 1_555 1_555
C3 C2 1_555 1_555
H3 C3 1_555 1_555
C4 H4 1_555 1_555
H5 C4 1_555 1_555
C5 C4 1_555 1_555
H6 C5 1_555 1_555
H7 C5 1_555 1_555
C6 C5 1_555 1_555
H8 C6 1_555 1_555
H9 C6 1_555 1_555
C7 C6 1_555 1_555
H10 C7 1_555 1_555
H11 C7 1_555 1_555
C8 H12 1_555 1_555
C9 H13 1_555 1_555
C10 C9 1_555 1_555
H14 C10 1_555 1_555
C11 C12 1_555 1_555
C12 H15 1_555 1_555
C13 C12 1_555 1_555
H16 C13 1_555 1_555
H17 C13 1_555 1_555
C14 C13 1_555 1_555
H18 C14 1_555 1_555
H19 C14 1_555 1_555
C15 C14 1_555 1_555
H20 C15 1_555 1_555
C16 C15 1_555 1_555
C17 C15 1_555 1_555
H21 C17 1_555 1_555
H22 C17 1_555 1_555
C18 C12 1_555 1_555
H23 C18 1_555 1_555
H24 C18 1_555 1_555
N1 C1 1_555 1_555
N2 C1 1_555 1_555
N3 C7 1_555 1_555
N4 C8 1_555 1_555
O1 C11 1_555 1_555
O2 C11 1_555 1_555
O3 H25 1_555 1_555
H26 O3 1_555 1_555
O4 C16 1_555 1_555
O5 C16 1_555 1_555
Ni1 N1 1_555 1_555
N4A Ni1 1_555 1_555
O1A Ni1 1_555 1_555
O2A Ni1 1_555 1_555
Ni1A N4 1_555 1_555
Ni1A_2 O1 1_555 1_555
C2 N1 1_555 1_555
C3 N2 1_555 1_555
C4 N2 1_555 1_555
C8 N3 1_555 1_555
C9 N4 1_555 1_555
C10 N3 1_555 1_555
C17 C18 1_555 1_555
O2 Ni1A_2 1_555 1_555
O4 Ni1 1_555 1_555
O5 Ni1 1_555 1_555

#END
