
#######################################################################
#
#                 Cambridge Crystallographic Data Centre
#                                CCDC 
#
#######################################################################
#
# If this CIF has been generated from an entry in the Cambridge 
# Structural Database, then it will include bibliographic, chemical, 
# crystal, experimental, refinement or atomic coordinate data resulting 
# from the CCDC's data processing and validation procedures.
#
#######################################################################

data_GOLROO
_symmetry_cell_setting           cubic
_symmetry_space_group_name_H-M   'P 21 3'
_symmetry_Int_Tables_number      198
_space_group_name_Hall           'P 2ac 2ab 3'
loop_
_symmetry_equiv_pos_site_id
_symmetry_equiv_pos_as_xyz
1 x,y,z
2 1/2-x,-y,1/2+z
3 -x,1/2+y,1/2-z
4 1/2+x,1/2-y,-z
5 z,x,y
6 1/2+z,1/2-x,-y
7 1/2-z,-x,1/2+y
8 -z,1/2+x,1/2-y
9 y,z,x
10 -y,1/2+z,1/2-x
11 1/2+y,1/2-z,-x
12 1/2-y,-z,1/2+x
_cell_length_a                   15.515(2)
_cell_length_b                   15.515(2)
_cell_length_c                   15.515(2)
_cell_angle_alpha                90
_cell_angle_beta                 90
_cell_angle_gamma                90
_cell_volume                     3734.7
loop_
_atom_site_label
_atom_site_type_symbol
_atom_site_fract_x
_atom_site_fract_y
_atom_site_fract_z
Ru1 Ru 0.124552(10) 0.124552(10) 0.124552(10)
N1 N 0.12554(13) 0.25660(11) 0.11059(12)
C1 C 0.12531(15) 0.28581(14) 0.02835(16)
C2 C 0.12813(19) 0.37354(17) 0.01028(19)
H1 H 0.1271 0.3930 -0.0464
C3 C 0.1326(2) 0.43186(17) 0.0785(3)
H2 H 0.1347 0.4908 0.0678
C4 C 0.1337(2) 0.40150(17) 0.1613(2)
H3 H 0.1368 0.4397 0.2074
C5 C 0.1302(2) 0.31414(16) 0.17579(19)
H4 H 0.1311 0.2940 0.2323
N2 N 0.12479(13) 0.13655(13) -0.00784(11)
C6 C 0.12389(16) 0.21863(16) -0.03830(15)
C7 C 0.12057(17) 0.2347(2) -0.12688(18)
H5 H 0.1208 0.2911 -0.1473
C8 C 0.1170(2) 0.1669(3) -0.18342(17)
H6 H 0.1139 0.1770 -0.2424
C9 C 0.1179(2) 0.0845(2) -0.15249(19)
H7 H 0.1155 0.0380 -0.1902
C10 C 0.1225(2) 0.07099(19) -0.06432(16)
H8 H 0.1240 0.0148 -0.0436
N1D N 0.11059(12) 0.12554(13) 0.25660(11)
C1D C 0.02835(16) 0.12531(15) 0.28581(14)
C2D C 0.01028(19) 0.12813(19) 0.37354(17)
H1D H -0.0464 0.1271 0.3930
C3D C 0.0785(3) 0.1326(2) 0.43186(17)
H2D H 0.0678 0.1347 0.4908
C4D C 0.1613(2) 0.1337(2) 0.40150(17)
H3D H 0.2074 0.1368 0.4397
C5D C 0.17579(19) 0.1302(2) 0.31414(16)
H4D H 0.2323 0.1311 0.2940
C6D C -0.03830(15) 0.12389(16) 0.21863(16)
N2D N -0.00784(11) 0.12479(13) 0.13655(13)
N1H N 0.25660(11) 0.11059(12) 0.12554(13)
C1H C 0.28581(14) 0.02835(16) 0.12531(15)
C2H C 0.37354(17) 0.01028(19) 0.12813(19)
H1H H 0.3930 -0.0464 0.1271
C3H C 0.43186(17) 0.0785(3) 0.1326(2)
H2H H 0.4908 0.0678 0.1347
C4H C 0.40150(17) 0.1613(2) 0.1337(2)
H3H H 0.4397 0.2074 0.1368
C5H C 0.31414(16) 0.17579(19) 0.1302(2)
H4H H 0.2940 0.2323 0.1311
C6H C 0.21863(16) -0.03830(15) 0.12389(16)
N2H N 0.13655(13) -0.00784(11) 0.12479(13)
C10H C 0.07099(19) -0.06432(16) 0.1225(2)
C9H C 0.0845(2) -0.15249(19) 0.1179(2)
C8H C 0.1669(3) -0.18342(17) 0.1170(2)
C7H C 0.2347(2) -0.12688(18) 0.12057(17)
H5H H 0.2911 -0.1473 0.1208
H6H H 0.1770 -0.2424 0.1139
H7H H 0.0380 -0.1902 0.1155
H8H H 0.0148 -0.0436 0.1240
C10D C -0.06432(16) 0.1225(2) 0.07099(19)
C9D C -0.15249(19) 0.1179(2) 0.0845(2)
C8D C -0.18342(17) 0.1170(2) 0.1669(3)
C7D C -0.12688(18) 0.12057(17) 0.2347(2)
H5D H -0.1473 0.1208 0.2911
H6D H -0.2424 0.1139 0.1770
H7D H -0.1902 0.1155 0.0380
H8D H -0.0436 0.1240 0.0148
Rh1 Rh 0.147004(13) 0.647004(13) -0.147004(13)
Na1 Na 0.40637(8) 0.59363(8) 0.09363(8)
O1 O 0.25856(13) 0.61376(16) 0.07816(12)
O2 O 0.37996(13) 0.60662(17) -0.05394(13)
C11 C 0.23676(15) 0.62474(17) 0.00375(15)
C12 C 0.30516(16) 0.62169(18) -0.07071(16)
O3 O 0.15890(11) 0.63976(14) -0.01873(11)
O4 O 0.27601(11) 0.63699(14) -0.14646(12)
O1F O 0.42184(12) 0.74144(13) 0.11376(16)
C11F C 0.49625(15) 0.76324(15) 0.12474(17)
C12F C 0.57071(16) 0.69484(16) 0.12169(18)
O2F O 0.55394(13) 0.62004(13) 0.10662(17)
O1I O 0.38624(16) 0.57816(12) 0.24144(13)
C11I C 0.37526(17) 0.50375(15) 0.26324(15)
C12I C 0.37831(18) 0.42929(16) 0.19484(16)
O2I O 0.39338(17) 0.44606(13) 0.12004(13)
O3G O 0.01873(11) 0.65890(11) -0.13976(14)
O4G O 0.14646(12) 0.77601(11) -0.13699(14)
O3J O 0.13976(14) 0.51873(11) -0.15890(11)
O4J O 0.13699(14) 0.64646(12) -0.27601(11)
O4I O 0.36301(14) 0.35354(12) 0.22399(11)
Rh1I Rh 0.352996(13) 0.352996(13) 0.352996(13)
O3I O 0.36024(14) 0.48127(11) 0.34110(11)
O4F O 0.64646(12) 0.72399(11) 0.13699(14)
Rh1F Rh 0.647004(13) 0.852996(13) 0.147004(13)
O3F O 0.51873(11) 0.84110(11) 0.13976(14)
loop_
_geom_bond_atom_site_label_1
_geom_bond_atom_site_label_2
_geom_bond_site_symmetry_1
_geom_bond_site_symmetry_2
Ru1 N1 1_555 1_555
N1 C1 1_555 1_555
C1 C2 1_555 1_555
C2 H1 1_555 1_555
C3 C2 1_555 1_555
H2 C3 1_555 1_555
C4 C3 1_555 1_555
H3 C4 1_555 1_555
C5 N1 1_555 1_555
H4 C5 1_555 1_555
N2 Ru1 1_555 1_555
C6 C1 1_555 1_555
C7 C6 1_555 1_555
H5 C7 1_555 1_555
C8 C7 1_555 1_555
H6 C8 1_555 1_555
C9 C8 1_555 1_555
H7 C9 1_555 1_555
C10 N2 1_555 1_555
H8 C10 1_555 1_555
Rh1 O3 1_555 1_555
Na1 O1 1_555 1_555
O1 C11 1_555 1_555
O2 Na1 1_555 1_555
C11 C12 1_555 1_555
C12 O2 1_555 1_555
O3 C11 1_555 1_555
O4 Rh1 1_555 1_555
N1D Ru1 1_555 1_555
C1D N1D 1_555 1_555
C2D C1D 1_555 1_555
H1D C2D 1_555 1_555
C3D C2D 1_555 1_555
H2D C3D 1_555 1_555
C4D C3D 1_555 1_555
H3D C4D 1_555 1_555
C5D N1D 1_555 1_555
H4D C5D 1_555 1_555
C6D C1D 1_555 1_555
N2D Ru1 1_555 1_555
N1H Ru1 1_555 1_555
C1H N1H 1_555 1_555
C2H C1H 1_555 1_555
H1H C2H 1_555 1_555
C3H C2H 1_555 1_555
H2H C3H 1_555 1_555
C4H C3H 1_555 1_555
H3H C4H 1_555 1_555
C5H N1H 1_555 1_555
H4H C5H 1_555 1_555
C6H C1H 1_555 1_555
N2H Ru1 1_555 1_555
C10H N2H 1_555 1_555
C9H C10H 1_555 1_555
C8H C9H 1_555 1_555
C7H C6H 1_555 1_555
H5H C7H 1_555 1_555
H6H C8H 1_555 1_555
H7H C9H 1_555 1_555
H8H C10H 1_555 1_555
C10D N2D 1_555 1_555
C9D C10D 1_555 1_555
C8D C9D 1_555 1_555
C7D C6D 1_555 1_555
H5D C7D 1_555 1_555
H6D C8D 1_555 1_555
H7D C9D 1_555 1_555
H8D C10D 1_555 1_555
O1F Na1 1_555 1_555
C11F O1F 1_555 1_555
C12F C11F 1_555 1_555
O2F Na1 1_555 1_555
O1I Na1 1_555 1_555
C11I O1I 1_555 1_555
C12I C11I 1_555 1_555
O2I Na1 1_555 1_555
O3G Rh1 1_555 1_555
O4G Rh1 1_555 1_555
O3J Rh1 1_555 1_555
O4J Rh1 1_555 1_555
O4I C12I 1_555 1_555
Rh1I O4I 1_555 1_555
O3I C11I 1_555 1_555
O4F C12F 1_555 1_555
Rh1F O4F 1_555 1_555
O3F C11F 1_555 1_555
C4 C5 1_555 1_555
N2 C6 1_555 1_555
C9 C10 1_555 1_555
C12 O4 1_555 1_555
C4D C5D 1_555 1_555
C6D N2D 1_555 1_555
C4H C5H 1_555 1_555
C6H N2H 1_555 1_555
C8H C7H 1_555 1_555
C8D C7D 1_555 1_555
C12F O2F 1_555 1_555
C12I O2I 1_555 1_555
Rh1I O3I 1_555 1_555
Rh1F O3F 1_555 1_555

#END
