
#######################################################################
#
#                 Cambridge Crystallographic Data Centre
#                                CCDC 
#
#######################################################################
#
# If this CIF has been generated from an entry in the Cambridge 
# Structural Database, then it will include bibliographic, chemical, 
# crystal, experimental, refinement or atomic coordinate data resulting 
# from the CCDC's data processing and validation procedures.
#
#######################################################################

data_GOLSAD
_symmetry_cell_setting           monoclinic
_symmetry_space_group_name_H-M   'P 21/c'
_symmetry_Int_Tables_number      14
_space_group_name_Hall           '-P 2ybc'
loop_
_symmetry_equiv_pos_site_id
_symmetry_equiv_pos_as_xyz
1 x,y,z
2 -x,1/2+y,1/2-z
3 -x,-y,-z
4 x,1/2-y,1/2+z
_cell_length_a                   9.443(5)
_cell_length_b                   12.262(7)
_cell_length_c                   14.799(8)
_cell_angle_alpha                90
_cell_angle_beta                 106.506(14)
_cell_angle_gamma                90
_cell_volume                     1642.96
loop_
_atom_site_label
_atom_site_type_symbol
_atom_site_fract_x
_atom_site_fract_y
_atom_site_fract_z
N1 N -0.1488(4) 0.0503(3) 0.1478(2)
C1 C -0.1577(5) 0.0787(4) -0.0136(3)
H1 H -0.1197 0.1152 -0.0566
C2 C -0.1001(4) 0.0995(3) 0.0827(3)
N2 N -0.2670(4) 0.0067(3) -0.0445(2)
C3 C -0.3207(5) -0.0423(4) 0.0198(3)
H2 H -0.3978 -0.0920 0.0007
C4 C -0.2612(4) -0.0188(3) 0.1154(3)
S1 S -0.33747(13) -0.09057(10) 0.19517(8)
C5 C -0.3007(5) 0.0023(4) 0.2921(3)
N3 N -0.1455(5) 0.0668(4) 0.4386(3)
C6 C -0.1695(5) 0.0011(4) 0.3641(3)
H3 H -0.0956 -0.0473 0.3603
N4 N -0.4111(4) 0.0705(3) 0.2948(2)
C7 C -0.3849(5) 0.1367(4) 0.3696(3)
H4 H -0.4574 0.1862 0.3739
C8 C -0.2544(5) 0.1338(4) 0.4400(3)
H5 H -0.2420 0.1808 0.4910
Ag1 Ag 0.35271(4) 0.04559(3) 0.19740(2)
S2 S 0.04493(12) 0.19693(10) 0.11637(7)
N5 N 0.1993(4) 0.1189(3) 0.2840(2)
N6 N 0.0546(4) 0.2502(4) 0.3854(3)
C9 C 0.0889(4) 0.1859(3) 0.2412(3)
C10 C 0.1654(5) 0.1817(4) 0.4278(3)
H6 H 0.1948 0.1780 0.4932
C11 C 0.0158(5) 0.2493(4) 0.2912(3)
H7 H -0.0627 0.2926 0.2582
C12 C 0.2370(5) 0.1168(4) 0.3786(3)
H8 H 0.3126 0.0709 0.4114
N2B N 0.2670(4) -0.0067(3) 0.0445(2)
N4_2 N 0.5889(4) 0.0705(3) 0.2948(2)
Ag1_2 Ag -0.64729(4) 0.04559(3) 0.19740(2)
Ag1B Ag -0.35271(4) -0.04559(3) -0.19740(2)
O1 O 0.5118(5) 0.0996(3) 0.5714(3)
O2 O 0.4149(4) 0.2307(3) 0.6526(3)
O3 O 0.6001(5) 0.2806(3) 0.5849(3)
O4 O 0.6548(5) 0.1654(4) 0.7178(3)
Cl1 Cl 0.54687(11) 0.19405(9) 0.63185(7)
loop_
_geom_bond_atom_site_label_1
_geom_bond_atom_site_label_2
_geom_bond_site_symmetry_1
_geom_bond_site_symmetry_2
N1 C2 1_555 1_555
C1 H1 1_555 1_555
C2 C1 1_555 1_555
N2 C1 1_555 1_555
C3 N2 1_555 1_555
H2 C3 1_555 1_555
C4 N1 1_555 1_555
S1 C4 1_555 1_555
C5 S1 1_555 1_555
N3 C6 1_555 1_555
C6 C5 1_555 1_555
H3 C6 1_555 1_555
N4 C5 1_555 1_555
C7 N4 1_555 1_555
H4 C7 1_555 1_555
C8 N3 1_555 1_555
H5 C8 1_555 1_555
Ag1 N5 1_555 1_555
S2 C2 1_555 1_555
N5 C9 1_555 1_555
N6 C10 1_555 1_555
C9 S2 1_555 1_555
C10 H6 1_555 1_555
C11 N6 1_555 1_555
H7 C11 1_555 1_555
C12 N5 1_555 1_555
H8 C12 1_555 1_555
O1 Cl1 1_555 1_555
O2 Cl1 1_555 1_555
O3 Cl1 1_555 1_555
O4 Cl1 1_555 1_555
N2B Ag1 1_555 1_555
N4_2 Ag1 1_555 1_555
Ag1_2 N4 1_555 1_555
Ag1B N2 1_555 1_555
C3 C4 1_555 1_555
C7 C8 1_555 1_555
C9 C11 1_555 1_555
C10 C12 1_555 1_555

#END
