
#######################################################################
#
#                 Cambridge Crystallographic Data Centre
#                                CCDC 
#
#######################################################################
#
# If this CIF has been generated from an entry in the Cambridge 
# Structural Database, then it will include bibliographic, chemical, 
# crystal, experimental, refinement or atomic coordinate data resulting 
# from the CCDC's data processing and validation procedures.
#
#######################################################################

data_GOLTAD
_symmetry_cell_setting           monoclinic
_symmetry_space_group_name_H-M   'C 2/c'
_symmetry_Int_Tables_number      15
_space_group_name_Hall           '-C 2yn'
loop_
_symmetry_equiv_pos_site_id
_symmetry_equiv_pos_as_xyz
1 x,y,z
2 1/2+x,1/2+y,z
3 -x,y,1/2-z
4 1/2-x,1/2+y,1/2-z
5 -x,-y,-z
6 1/2-x,1/2-y,-z
7 x,-y,1/2+z
8 1/2+x,1/2-y,1/2+z
_cell_length_a                   12.024(5)
_cell_length_b                   18.803(8)
_cell_length_c                   12.283(5)
_cell_angle_alpha                90
_cell_angle_beta                 98.063(6)
_cell_angle_gamma                90
_cell_volume                     2749.58
loop_
_atom_site_label
_atom_site_type_symbol
_atom_site_fract_x
_atom_site_fract_y
_atom_site_fract_z
Zn1 Zn 0.0000 0.07933(2) 0.2500
O1 O 0.1310(2) 0.06512(15) 0.3876(2)
O2 O 0.1328(2) -0.00574(12) 0.2496(2)
N1 N 0.0873(2) 0.14583(12) 0.15842(18)
C1 C 0.1739(3) 0.01398(17) 0.3444(3)
C2 C 0.2720(2) -0.02359(15) 0.4060(3)
C3 C 0.2954(3) -0.01735(18) 0.5189(3)
H1 H 0.2522 0.0127 0.5560
C4 C 0.3823(3) -0.0552(2) 0.5773(3)
H2 H 0.3961 -0.0507 0.6534
C5 C 0.4488(3) -0.09957(19) 0.5252(3)
C6 C 0.5420(4) -0.1422(3) 0.5892(4)
H3 H 0.5905 -0.1603 0.5399
H4 H 0.5105 -0.1811 0.6252
H5 H 0.5844 -0.1123 0.6432
C7 C 0.4265(3) -0.1047(2) 0.4118(4)
H6 H 0.4717 -0.1335 0.3748
C8 C 0.3386(3) -0.06778(18) 0.3519(3)
H7 H 0.3244 -0.0727 0.2759
C9 C 0.1610(3) 0.19327(18) 0.2051(2)
H8 H 0.1695 0.1984 0.2811
C10 C 0.2254(3) 0.23496(18) 0.1467(2)
H9 H 0.2751 0.2678 0.1831
C11 C 0.2161(2) 0.22802(13) 0.0331(2)
C12 C 0.1406(3) 0.17860(16) -0.0138(2)
H10 H 0.1312 0.1717 -0.0896
C13 C 0.0785(3) 0.13905(17) 0.0500(2)
H11 H 0.0280 0.1059 0.0155
Zn1G Zn 0.5000 0.42067(2) -0.2500
O1B O -0.1310(2) 0.06512(15) 0.1124(2)
O2B O -0.1328(2) -0.00574(12) 0.2504(2)
N1E N 0.4127(2) 0.35417(12) -0.15842(18)
N1B N -0.0873(2) 0.14583(12) 0.34158(18)
C1B C -0.1739(3) 0.01398(17) 0.1556(3)
C2B C -0.2720(2) -0.02359(15) 0.0940(3)
C3B C -0.2954(3) -0.01735(18) -0.0189(3)
H1B H -0.2522 0.0127 -0.0560
C4B C -0.3823(3) -0.0552(2) -0.0773(3)
H2B H -0.3961 -0.0507 -0.1534
C5B C -0.4488(3) -0.09957(19) -0.0252(3)
C6B C -0.5420(4) -0.1422(3) -0.0892(4)
H3B H -0.5905 -0.1603 -0.0399
H4B H -0.5105 -0.1811 -0.1252
H5B H -0.5844 -0.1123 -0.1432
C7B C -0.4265(3) -0.1047(2) 0.0882(4)
H6B H -0.4717 -0.1335 0.1252
C8B C -0.3386(3) -0.06778(18) 0.1481(3)
H7B H -0.3244 -0.0727 0.2241
C9E C 0.3390(3) 0.30673(18) -0.2051(2)
H8E H 0.3305 0.3016 -0.2811
C10E C 0.2746(3) 0.26504(18) -0.1467(2)
H9E H 0.2249 0.2322 -0.1831
C11E C 0.2839(2) 0.27198(13) -0.0331(2)
C12E C 0.3594(3) 0.32140(16) 0.0138(2)
H10E H 0.3688 0.3283 0.0896
C13E C 0.4215(3) 0.36095(17) -0.0500(2)
H11E H 0.4720 0.3941 -0.0155
O3 O 0.0969(2) 0.14890(13) 0.70161(19)
H12 H 0.1086 0.1050 0.7156
H13 H 0.1308 0.1602 0.6479
O4 O 0.2054(4) 0.1867(2) 0.5310(4)
H15 H 0.1876 0.1557 0.4813
H16 H 0.2322 0.2228 0.5021
H14? H 0.0269 0.1566 0.6855
H17? H 0.1485 0.1983 0.5610
loop_
_geom_bond_atom_site_label_1
_geom_bond_atom_site_label_2
_geom_bond_site_symmetry_1
_geom_bond_site_symmetry_2
Zn1 O1 1_555 1_555
O1 C1 1_555 1_555
O2 Zn1 1_555 1_555
N1 Zn1 1_555 1_555
C1 O2 1_555 1_555
C2 C1 1_555 1_555
C3 C2 1_555 1_555
H1 C3 1_555 1_555
C4 C3 1_555 1_555
H2 C4 1_555 1_555
C5 C4 1_555 1_555
C6 C5 1_555 1_555
H3 C6 1_555 1_555
H4 C6 1_555 1_555
H5 C6 1_555 1_555
C7 C5 1_555 1_555
H6 C7 1_555 1_555
C8 C2 1_555 1_555
H7 C8 1_555 1_555
C9 N1 1_555 1_555
H8 C9 1_555 1_555
C10 C9 1_555 1_555
H9 C10 1_555 1_555
C11 C10 1_555 1_555
C12 C11 1_555 1_555
H10 C12 1_555 1_555
C13 N1 1_555 1_555
H11 C13 1_555 1_555
O3 H12 1_555 1_555
H13 O3 1_555 1_555
O4 H15 1_555 1_555
H16 O4 1_555 1_555
Zn1G N1E 1_555 1_555
O1B Zn1 1_555 1_555
O2B Zn1 1_555 1_555
N1E C9E 1_555 1_555
N1B Zn1 1_555 1_555
C1B O1B 1_555 1_555
C2B C1B 1_555 1_555
C3B C2B 1_555 1_555
H1B C3B 1_555 1_555
C4B C3B 1_555 1_555
H2B C4B 1_555 1_555
C5B C4B 1_555 1_555
C6B C5B 1_555 1_555
H3B C6B 1_555 1_555
H4B C6B 1_555 1_555
H5B C6B 1_555 1_555
C7B C5B 1_555 1_555
H6B C7B 1_555 1_555
C8B C2B 1_555 1_555
H7B C8B 1_555 1_555
C9E H8E 1_555 1_555
C10E C9E 1_555 1_555
H9E C10E 1_555 1_555
C11E C11 1_555 1_555
C12E C11E 1_555 1_555
H10E C12E 1_555 1_555
C13E N1E 1_555 1_555
H11E C13E 1_555 1_555
C7 C8 1_555 1_555
C12 C13 1_555 1_555
O2B C1B 1_555 1_555
C7B C8B 1_555 1_555
C10E C11E 1_555 1_555
C12E C13E 1_555 1_555

#END
