
#######################################################################
#
#                 Cambridge Crystallographic Data Centre
#                                CCDC 
#
#######################################################################
#
# If this CIF has been generated from an entry in the Cambridge 
# Structural Database, then it will include bibliographic, chemical, 
# crystal, experimental, refinement or atomic coordinate data resulting 
# from the CCDC's data processing and validation procedures.
#
#######################################################################

data_GOLTIL
_symmetry_cell_setting           monoclinic
_symmetry_space_group_name_H-M   'P 21/n'
_symmetry_Int_Tables_number      14
_space_group_name_Hall           '-P 2yn'
loop_
_symmetry_equiv_pos_site_id
_symmetry_equiv_pos_as_xyz
1 x,y,z
2 1/2-x,1/2+y,1/2-z
3 -x,-y,-z
4 1/2+x,1/2-y,1/2+z
_cell_length_a                   7.5112(5)
_cell_length_b                   16.0876(9)
_cell_length_c                   8.3390(6)
_cell_angle_alpha                90
_cell_angle_beta                 116.469(2)
_cell_angle_gamma                90
_cell_volume                     902.034
loop_
_atom_site_label
_atom_site_type_symbol
_atom_site_fract_x
_atom_site_fract_y
_atom_site_fract_z
Cu1 Cu 0.5000 0.0000 0.5000
Cl1 Cl 0.10912(10) 0.03685(4) 0.30125(10)
C1 C 0.6294(4) 0.07131(16) 0.8758(4)
H1 H 0.7634 0.0666 0.9032
C2 C 0.3175(4) 0.06044(15) 0.7390(4)
H2 H 0.1881 0.0482 0.6555
C3 C 0.2381(5) 0.12190(16) 0.9732(4)
H3 H 0.3014 0.1057 1.0984
H4 H 0.1159 0.0902 0.9147
C4 C 0.1852(4) 0.21295(15) 0.9625(3)
C5 C 0.2897(4) 0.27713(16) 0.9343(4)
H5 H 0.3987 0.2659 0.9130
C6 C 0.2312(4) 0.35851(16) 0.9379(4)
H6 H 0.3050 0.4011 0.9211
C7 C -0.0305(4) 0.31581(17) 0.9856(4)
H7 H -0.1439 0.3284 0.9991
C8 C 0.0212(4) 0.23381(17) 0.9888(5)
H8 H -0.0534 0.1925 1.0084
N1 N 0.3680(4) 0.09900(13) 0.8939(3)
N2 N 0.5650(4) 0.10725(15) 0.9833(3)
N3 N 0.4802(3) 0.04199(13) 0.7215(3)
N4 N 0.0740(3) 0.37867(12) 0.9642(3)
Cu1C Cu 0.0000 0.5000 1.0000
Cu1C_2 Cu 1.0000 0.5000 0.0000
Cl1B Cl 0.89088(10) -0.03685(4) 0.69875(10)
C1C C 1.1294(4) 0.42869(16) 0.3758(4)
H1C H 1.2634 0.4334 0.4032
C2C C 0.8175(4) 0.43956(15) 0.2390(4)
H2C H 0.6881 0.4518 0.1555
C3C C 0.7381(5) 0.37810(16) 0.4732(4)
H3C H 0.8014 0.3943 0.5984
H4C H 0.6159 0.4098 0.4147
C4C C 0.6852(4) 0.28705(15) 0.4625(3)
C5C C 0.7897(4) 0.22287(16) 0.4343(4)
H5C H 0.8987 0.2341 0.4130
C6C C 0.7312(4) 0.14149(16) 0.4379(4)
H6C H 0.8050 0.0989 0.4211
C7C C 0.4695(4) 0.18419(17) 0.4856(4)
H7C H 0.3561 0.1716 0.4991
C8C C 0.5212(4) 0.26619(17) 0.4888(5)
H8C H 0.4466 0.3075 0.5084
N1C N 0.8680(4) 0.40100(13) 0.3939(3)
N2C N 1.0650(4) 0.39275(15) 0.4833(3)
N3C N 0.9802(3) 0.45801(13) 0.2215(3)
N3B N 0.5198(3) -0.04199(13) 0.2785(3)
N4C N 0.5740(3) 0.12133(12) 0.4642(3)
N4A N 0.4260(3) -0.12133(12) 0.5358(3)
loop_
_geom_bond_atom_site_label_1
_geom_bond_atom_site_label_2
_geom_bond_site_symmetry_1
_geom_bond_site_symmetry_2
Cu1 Cl1 1_555 1_555
C1 H1 1_555 1_555
C2 H2 1_555 1_555
C3 H3 1_555 1_555
H4 C3 1_555 1_555
C4 C3 1_555 1_555
C5 C4 1_555 1_555
H5 C5 1_555 1_555
C6 C5 1_555 1_555
H6 C6 1_555 1_555
C7 H7 1_555 1_555
C8 C4 1_555 1_555
H8 C8 1_555 1_555
N1 C2 1_555 1_555
N2 C1 1_555 1_555
N3 Cu1 1_555 1_555
N4 C6 1_555 1_555
Cu1C N4 1_555 1_555
Cu1C_2 N3C 1_555 1_555
Cl1B Cu1 1_555 1_555
C1C H1C 1_555 1_555
C2C H2C 1_555 1_555
C3C H3C 1_555 1_555
H4C C3C 1_555 1_555
C4C C3C 1_555 1_555
C5C C4C 1_555 1_555
H5C C5C 1_555 1_555
C6C C5C 1_555 1_555
H6C C6C 1_555 1_555
C7C H7C 1_555 1_555
C8C C4C 1_555 1_555
H8C C8C 1_555 1_555
N1C C2C 1_555 1_555
N2C C1C 1_555 1_555
N3C C1C 1_555 1_555
N3B Cu1 1_555 1_555
N4C Cu1 1_555 1_555
N4A Cu1 1_555 1_555
C1 N3 1_555 1_555
C2 N3 1_555 1_555
C3 N1 1_555 1_555
C7 C8 1_555 1_555
C7 N4 1_555 1_555
N1 N2 1_555 1_555
C2C N3C 1_555 1_555
C3C N1C 1_555 1_555
C6C N4C 1_555 1_555
C7C C8C 1_555 1_555
C7C N4C 1_555 1_555
N1C N2C 1_555 1_555

#END
