
#######################################################################
#
#                 Cambridge Crystallographic Data Centre
#                                CCDC 
#
#######################################################################
#
# If this CIF has been generated from an entry in the Cambridge 
# Structural Database, then it will include bibliographic, chemical, 
# crystal, experimental, refinement or atomic coordinate data resulting 
# from the CCDC's data processing and validation procedures.
#
#######################################################################

data_GOLVIN
_symmetry_cell_setting           triclinic
_symmetry_space_group_name_H-M   'P -1'
_symmetry_Int_Tables_number      2
_space_group_name_Hall           '-P 1'
loop_
_symmetry_equiv_pos_site_id
_symmetry_equiv_pos_as_xyz
1 x,y,z
2 -x,-y,-z
_cell_length_a                   5.7536(13)
_cell_length_b                   11.882(3)
_cell_length_c                   12.229(3)
_cell_angle_alpha                98.522(4)
_cell_angle_beta                 103.273(5)
_cell_angle_gamma                103.450(4)
_cell_volume                     773.223
loop_
_atom_site_label
_atom_site_type_symbol
_atom_site_fract_x
_atom_site_fract_y
_atom_site_fract_z
C1 C 1.4758(9) 1.2184(4) 1.0135(4)
H1 H 1.3610 1.2558 0.9803
C2 C 1.5008(9) 1.2047(4) 1.1250(4)
H2 H 1.4031 1.2331 1.1672
C3 C 1.6728(8) 1.1481(4) 1.1754(4)
H3 H 1.6894 1.1386 1.2507
C4 C 1.8181(9) 1.1064(4) 1.1118(4)
H4 H 1.9321 1.0683 1.1441
C5 C 1.7927(8) 1.1218(4) 1.0000(4)
H5 H 1.8924 1.0948 0.9582
C6 C 1.6227(8) 1.1762(4) 0.9499(4)
C7 C 1.6045(8) 1.1920(4) 0.8286(4)
H6 H 1.7280 1.1577 0.8037
C8 C 1.6694(8) 1.3198(4) 0.8168(4)
C9 C 1.9264(9) 1.3782(4) 0.8559(4)
H7 H 2.0450 1.3385 0.8785
C10 C 1.9919(9) 1.5026(4) 0.8584(4)
H8 H 2.1592 1.5445 0.8837
C11 C 1.8213(9) 1.5635(4) 0.8255(4)
H9 H 1.8697 1.6448 0.8305
C12 C 1.5796(8) 1.5001(4) 0.7855(4)
H10 H 1.4613 1.5391 0.7607
C13 C 1.5019(9) 1.3811(4) 0.7800(4)
H11 H 1.3338 1.3412 0.7511
C14 C 1.3462(8) 1.1230(4) 0.7408(4)
C15 C 1.1601(9) 0.7492(4) 0.4541(4)
H12 H 1.2639 0.7935 0.4184
C16 C 1.1620(8) 0.6347(4) 0.4540(4)
H13 H 1.2728 0.6045 0.4222
C17 C 1.0046(9) 0.5634(4) 0.4995(4)
C18 C 0.8504(8) 0.6187(4) 0.5508(4)
H14 H 0.7424 0.5755 0.5853
C19 C 0.8580(8) 0.7341(4) 0.5501(4)
H15 H 0.7515 0.7669 0.5829
N1 N 1.0118(8) 0.8015(3) 0.5046(3)
O1 O 1.3529(6) 1.0707(3) 0.6443(3)
O2 O 1.1569(5) 1.1270(3) 0.7716(3)
O3 O 0.7546(6) 0.9805(3) 0.6267(3)
H16 H 0.8461 1.0304 0.7006
H17 H 0.6075 1.0039 0.5976
Zn1 Zn 1.0000 1.0000 0.5000
C1A C 0.5242(9) 0.7816(4) -0.0135(4)
H1A H 0.6390 0.7442 0.0197
C2A C 0.4992(9) 0.7953(4) -0.1250(4)
H2A H 0.5969 0.7669 -0.1672
C3A C 0.3272(8) 0.8519(4) -0.1754(4)
H3A H 0.3106 0.8614 -0.2507
C4A C 0.1819(9) 0.8936(4) -0.1118(4)
H4A H 0.0679 0.9317 -0.1441
C5A C 0.2073(8) 0.8782(4) 0.0000(4)
H5A H 0.1076 0.9052 0.0418
C6A C 0.3773(8) 0.8238(4) 0.0501(4)
C7A C 0.3955(8) 0.8080(4) 0.1714(4)
H6A H 0.2720 0.8423 0.1963
C8A C 0.3306(8) 0.6802(4) 0.1832(4)
C9A C 0.0736(9) 0.6218(4) 0.1441(4)
H7A H -0.0450 0.6615 0.1215
C10A C 0.0081(9) 0.4974(4) 0.1416(4)
H8A H -0.1592 0.4555 0.1163
C11A C 0.1787(9) 0.4365(4) 0.1745(4)
H9A H 0.1303 0.3552 0.1695
C12A C 0.4204(8) 0.4999(4) 0.2145(4)
H10A H 0.5387 0.4609 0.2393
C13A C 0.4981(9) 0.6189(4) 0.2200(4)
H11A H 0.6662 0.6588 0.2489
C14A C 0.6538(8) 0.8770(4) 0.2592(4)
C15A C 0.8399(9) 0.2508(4) 0.5459(4)
H12A H 0.7361 0.2065 0.5816
C16A C 0.8380(8) 0.3653(4) 0.5460(4)
H13A H 0.7272 0.3955 0.5778
C17A C 0.9954(9) 0.4366(4) 0.5005(4)
C18A C 1.1496(8) 0.3813(4) 0.4492(4)
H14A H 1.2576 0.4245 0.4147
C19A C 1.1420(8) 0.2659(4) 0.4499(4)
H15A H 1.2485 0.2331 0.4171
N1A N 0.9882(8) 0.1985(3) 0.4954(3)
N1A_2 N 0.9882(8) 1.1985(3) 0.4954(3)
O1A O 0.6471(6) 0.9293(3) 0.3557(3)
O2A O 0.8431(5) 0.8730(3) 0.2284(3)
O3A O 1.2454(6) 1.0195(3) 0.3733(3)
H16A H 1.1539 0.9696 0.2994
H17A H 1.3925 0.9961 0.4024
Zn1_2 Zn 1.0000 0.0000 0.5000
loop_
_geom_bond_atom_site_label_1
_geom_bond_atom_site_label_2
_geom_bond_site_symmetry_1
_geom_bond_site_symmetry_2
C1 H1 1_555 1_555
C2 C1 1_555 1_555
H2 C2 1_555 1_555
C3 C2 1_555 1_555
H3 C3 1_555 1_555
C4 C3 1_555 1_555
H4 C4 1_555 1_555
C5 C4 1_555 1_555
H5 C5 1_555 1_555
C6 C1 1_555 1_555
C7 C6 1_555 1_555
H6 C7 1_555 1_555
C8 C7 1_555 1_555
C9 C8 1_555 1_555
H7 C9 1_555 1_555
C10 C9 1_555 1_555
H8 C10 1_555 1_555
C11 C10 1_555 1_555
H9 C11 1_555 1_555
C12 C11 1_555 1_555
H10 C12 1_555 1_555
C13 C8 1_555 1_555
H11 C13 1_555 1_555
C14 C7 1_555 1_555
C15 H12 1_555 1_555
C16 C15 1_555 1_555
H13 C16 1_555 1_555
C17 C16 1_555 1_555
C18 C17 1_555 1_555
H14 C18 1_555 1_555
C19 C18 1_555 1_555
H15 C19 1_555 1_555
N1 C15 1_555 1_555
O1 C14 1_555 1_555
O2 C14 1_555 1_555
O3 H16 1_555 1_555
H17 O3 1_555 1_555
Zn1 N1 1_555 1_555
C1A H1A 1_555 1_555
C2A C1A 1_555 1_555
H2A C2A 1_555 1_555
C3A C2A 1_555 1_555
H3A C3A 1_555 1_555
C4A C3A 1_555 1_555
H4A C4A 1_555 1_555
C5A C4A 1_555 1_555
H5A C5A 1_555 1_555
C6A C1A 1_555 1_555
C7A C6A 1_555 1_555
H6A C7A 1_555 1_555
C8A C7A 1_555 1_555
C9A C8A 1_555 1_555
H7A C9A 1_555 1_555
C10A C9A 1_555 1_555
H8A C10A 1_555 1_555
C11A C10A 1_555 1_555
H9A C11A 1_555 1_555
C12A C11A 1_555 1_555
H10A C12A 1_555 1_555
C13A C8A 1_555 1_555
H11A C13A 1_555 1_555
C14A C7A 1_555 1_555
C15A H12A 1_555 1_555
C16A C15A 1_555 1_555
H13A C16A 1_555 1_555
C17A C17 1_555 1_555
C18A C17A 1_555 1_555
H14A C18A 1_555 1_555
C19A C18A 1_555 1_555
H15A C19A 1_555 1_555
N1A C15A 1_555 1_555
N1A_2 Zn1 1_555 1_555
O1A Zn1 1_555 1_555
O2A C14A 1_555 1_555
O3A Zn1 1_555 1_555
H16A O3A 1_555 1_555
H17A O3A 1_555 1_555
Zn1_2 N1A 1_555 1_555
C5 C6 1_555 1_555
C12 C13 1_555 1_555
C19 N1 1_555 1_555
O1 Zn1 1_555 1_555
O3 Zn1 1_555 1_555
C5A C6A 1_555 1_555
C12A C13A 1_555 1_555
C14A O1A 1_555 1_555
C16A C17A 1_555 1_555
C19A N1A 1_555 1_555

#END
