
#######################################################################
#
#                 Cambridge Crystallographic Data Centre
#                                CCDC 
#
#######################################################################
#
# If this CIF has been generated from an entry in the Cambridge 
# Structural Database, then it will include bibliographic, chemical, 
# crystal, experimental, refinement or atomic coordinate data resulting 
# from the CCDC's data processing and validation procedures.
#
#######################################################################

data_GOMGAR
_symmetry_cell_setting           monoclinic
_symmetry_space_group_name_H-M   'P 21/c'
_symmetry_Int_Tables_number      14
_space_group_name_Hall           '-P 2ybc'
loop_
_symmetry_equiv_pos_site_id
_symmetry_equiv_pos_as_xyz
1 x,y,z
2 -x,1/2+y,1/2-z
3 -x,-y,-z
4 x,1/2-y,1/2+z
_cell_length_a                   9.7383(9)
_cell_length_b                   17.6513(15)
_cell_length_c                   11.4488(10)
_cell_angle_alpha                90
_cell_angle_beta                 97.063(4)
_cell_angle_gamma                90
_cell_volume                     1953.04
loop_
_atom_site_label
_atom_site_type_symbol
_atom_site_fract_x
_atom_site_fract_y
_atom_site_fract_z
Co1 Co -0.19606(3) 0.219676(17) -0.74108(2)
C1 C -0.1324(3) 0.38140(14) -0.8264(2)
H1 H -0.2000 0.3652 -0.8856
C2 C 0.0146(3) 0.48032(14) -0.7428(2)
H2 H 0.0467 0.5299 -0.7431
C3 C -0.0869(3) 0.45553(15) -0.8285(2)
H3 H -0.1246 0.4884 -0.8875
C4 C 0.4879(3) 0.50230(14) -0.2391(2)
H4 H 0.4280 0.5429 -0.2341
C5 C 0.5616(2) 0.39327(14) -0.33691(19)
H5 H 0.5505 0.3603 -0.4007
C6 C 0.0150(2) 0.35592(13) -0.65884(19)
H6 H 0.0497 0.3221 -0.6003
C7 C 0.3512(2) 0.46823(12) -0.4261(2)
C8 C 0.1751(2) 0.45832(12) -0.5633(2)
C9 C 0.2043(2) 0.16099(12) -0.5680(2)
C10 C 0.0930(2) 0.16270(13) -0.6713(2)
C11 C 0.4681(2) 0.45283(13) -0.3348(2)
C12 C 0.0684(2) 0.42968(13) -0.65518(19)
C13 C 0.4466(2) 0.16988(13) -0.4953(2)
H7 H 0.5387 0.1695 -0.5092
C14 C 0.6832(3) 0.42943(14) -0.1614(2)
H8 H 0.7561 0.4216 -0.1022
C15 C 0.3427(2) 0.15961(13) -0.5880(2)
H9 H 0.3653 0.1518 -0.6637
C16 C 0.2756(2) 0.17835(14) -0.3602(2)
H10 H 0.2532 0.1827 -0.2839
C17 C 0.5272(2) 0.20071(13) -0.2847(2)
C18 C 0.4138(2) 0.18079(12) -0.3814(2)
C19 C 0.5968(3) 0.49058(14) -0.1520(2)
H11 H 0.6117 0.5233 -0.0880
C20 C 0.1722(2) 0.16941(14) -0.4535(2)
H12 H 0.0802 0.1690 -0.4396
N1 N 0.2926(3) 0.33885(12) -0.5113(2)
H13 H 0.3492 0.3472 -0.5664
H14 H 0.3614 0.3147 -0.4665
N2 N 0.2981(2) 0.53642(12) -0.44455(19)
N3 N -0.0837(2) 0.33170(11) -0.74270(17)
N4 N 0.2772(2) 0.41754(10) -0.49922(17)
N5 N 0.1871(2) 0.53019(11) -0.53165(18)
N6 N 0.6668(2) 0.38092(11) -0.25185(17)
O1 O -0.26167(17) 0.24175(10) -0.57876(14)
H15 H -0.3108 0.2817 -0.5835
H16 H -0.1916 0.2480 -0.5276
O2 O -0.03047(16) 0.16692(10) -0.64630(14)
O3 O -0.11507(17) 0.17997(9) -0.89662(13)
H17 H -0.1457 0.1357 -0.9135
H18 H -0.0273 0.1788 -0.8837
O4 O 0.63696(17) 0.22450(10) -0.32118(15)
O5 O 0.50660(19) 0.19445(12) -0.17995(15)
O6 O 0.12659(18) 0.16220(11) -0.77312(15)
Co1C Co 0.80394(3) 0.280324(17) -0.24108(2)
N6C N -0.3332(2) 0.11908(11) -0.75185(17)
O4C O -0.36304(17) 0.27550(10) -0.82118(15)
loop_
_geom_bond_atom_site_label_1
_geom_bond_atom_site_label_2
_geom_bond_site_symmetry_1
_geom_bond_site_symmetry_2
Co1 N3 1_555 1_555
C1 H1 1_555 1_555
C2 H2 1_555 1_555
C3 C1 1_555 1_555
H3 C3 1_555 1_555
C4 H4 1_555 1_555
C5 H5 1_555 1_555
C6 H6 1_555 1_555
C7 C11 1_555 1_555
C8 C12 1_555 1_555
C9 C10 1_555 1_555
C10 O2 1_555 1_555
C11 C4 1_555 1_555
C12 C2 1_555 1_555
C13 H7 1_555 1_555
C14 H8 1_555 1_555
C15 C9 1_555 1_555
H9 C15 1_555 1_555
C16 H10 1_555 1_555
C17 C18 1_555 1_555
C18 C13 1_555 1_555
C19 C4 1_555 1_555
H11 C19 1_555 1_555
C20 C9 1_555 1_555
H12 C20 1_555 1_555
N1 H13 1_555 1_555
H14 N1 1_555 1_555
N2 C7 1_555 1_555
N3 C1 1_555 1_555
N4 C7 1_555 1_555
N5 C8 1_555 1_555
N6 C5 1_555 1_555
O1 Co1 1_555 1_555
H15 O1 1_555 1_555
H16 O1 1_555 1_555
O2 Co1 1_555 1_555
O3 Co1 1_555 1_555
H17 O3 1_555 1_555
H18 O3 1_555 1_555
O4 C17 1_555 1_555
O5 C17 1_555 1_555
O6 C10 1_555 1_555
Co1C N6 1_555 1_555
N6C Co1 1_555 1_555
O4C Co1 1_555 1_555
C2 C3 1_555 1_555
C5 C11 1_555 1_555
C6 C12 1_555 1_555
C6 N3 1_555 1_555
C8 N4 1_555 1_555
C13 C15 1_555 1_555
C14 C19 1_555 1_555
C14 N6 1_555 1_555
C16 C18 1_555 1_555
C16 C20 1_555 1_555
N1 N4 1_555 1_555
N2 N5 1_555 1_555
O4 Co1C 1_555 1_555

#END
