
#######################################################################
#
#                 Cambridge Crystallographic Data Centre
#                                CCDC 
#
#######################################################################
#
# If this CIF has been generated from an entry in the Cambridge 
# Structural Database, then it will include bibliographic, chemical, 
# crystal, experimental, refinement or atomic coordinate data resulting 
# from the CCDC's data processing and validation procedures.
#
#######################################################################

data_GOMPII
_symmetry_cell_setting           orthorhombic
_symmetry_space_group_name_H-M   'P c c n'
_symmetry_Int_Tables_number      56
_space_group_name_Hall           '-P 2ab 2ac'
loop_
_symmetry_equiv_pos_site_id
_symmetry_equiv_pos_as_xyz
1 x,y,z
2 1/2-x,1/2-y,z
3 -x,1/2+y,1/2-z
4 1/2+x,-y,1/2-z
5 -x,-y,-z
6 1/2+x,1/2+y,-z
7 x,1/2-y,1/2+z
8 1/2-x,y,1/2+z
_cell_length_a                   16.4285(17)
_cell_length_b                   17.5645(18)
_cell_length_c                   10.5033(11)
_cell_angle_alpha                90
_cell_angle_beta                 90
_cell_angle_gamma                90
_cell_volume                     3030.82
loop_
_atom_site_label
_atom_site_type_symbol
_atom_site_fract_x
_atom_site_fract_y
_atom_site_fract_z
Cd1 Cd 1.085876(13) 0.295930(11) 0.37286(2)
O1 O 1.02878(14) 0.41516(12) 0.3108(2)
O2 O 0.99779(15) 0.31506(12) 0.1980(2)
O3 O 0.91586(17) 0.66883(13) 0.1966(3)
O4 O 0.85086(18) 0.68466(12) 0.0172(2)
O5 O 1.19604(14) 0.31573(14) 0.2335(2)
H1 H 1.2280 0.2777 0.2335
H2 H 1.1740 0.3181 0.1639
O6 O 0.97830(17) 0.28901(14) 0.5135(3)
H3 H 0.9924 0.2599 0.5709
H4 H 0.9698 0.3367 0.5103
O7 O 1.1526(2) 0.36472(17) 0.5323(3)
H5 H 1.1484 0.3372 0.5951
H6 H 1.1267 0.4063 0.5232
C1 C 0.94042(16) 0.43438(15) 0.1331(2)
C2 C 0.93531(16) 0.51219(15) 0.1549(3)
H7 H 0.9632 0.5341 0.2227
C3 C 0.88808(16) 0.55738(15) 0.0745(3)
C4 C 0.84727(16) 0.52405(15) -0.0275(3)
H8 H 0.8163 0.5547 -0.0812
C5 C 0.85147(16) 0.44586(15) -0.0516(2)
C6 C 0.89867(16) 0.40202(15) 0.0309(2)
H9 H 0.9024 0.3498 0.0175
C7 C 0.99178(16) 0.38552(15) 0.2188(2)
C8 C 0.88426(19) 0.64170(16) 0.0971(3)
C9 C 0.80512(18) 0.40891(17) -0.1625(3)
C10 C 0.8583(3) 0.3495(3) -0.2285(4)
H10 H 0.9086 0.3725 -0.2544
H11 H 0.8303 0.3301 -0.3020
H12 H 0.8692 0.3084 -0.1707
C11 C 0.7286(3) 0.3700(3) -0.1108(4)
H13 H 0.7016 0.3435 -0.1787
H14 H 0.6927 0.4077 -0.0758
H15 H 0.7436 0.3344 -0.0455
C12 C 0.7794(3) 0.4678(2) -0.2612(4)
H16 H 0.8266 0.4948 -0.2910
H17 H 0.7420 0.5031 -0.2232
H18 H 0.7536 0.4426 -0.3315
Cd1B Cd 0.914124(13) 0.795930(11) 0.12714(2)
O3B O 1.08414(17) 0.16883(13) 0.3034(3)
O4B O 1.14914(18) 0.18466(12) 0.4828(2)
O8 O 0.9437(7) 0.4819(7) 0.5006(10)
H19 H 0.9711 0.4608 0.4417
H20 H 0.9465 0.5295 0.4874
loop_
_geom_bond_atom_site_label_1
_geom_bond_atom_site_label_2
_geom_bond_site_symmetry_1
_geom_bond_site_symmetry_2
Cd1 O1 1_555 1_555
O1 C7 1_555 1_555
O2 Cd1 1_555 1_555
O3 C8 1_555 1_555
O4 C8 1_555 1_555
O5 Cd1 1_555 1_555
H1 O5 1_555 1_555
H2 O5 1_555 1_555
O6 Cd1 1_555 1_555
H3 O6 1_555 1_555
H4 O6 1_555 1_555
O7 Cd1 1_555 1_555
H5 O7 1_555 1_555
H6 O7 1_555 1_555
C1 C2 1_555 1_555
C2 H7 1_555 1_555
C3 C2 1_555 1_555
C4 C3 1_555 1_555
H8 C4 1_555 1_555
C5 C4 1_555 1_555
C6 C1 1_555 1_555
H9 C6 1_555 1_555
C7 O2 1_555 1_555
C8 C3 1_555 1_555
C9 C5 1_555 1_555
C10 C9 1_555 1_555
H10 C10 1_555 1_555
H11 C10 1_555 1_555
H12 C10 1_555 1_555
C11 C9 1_555 1_555
H13 C11 1_555 1_555
H14 C11 1_555 1_555
H15 C11 1_555 1_555
C12 C9 1_555 1_555
H16 C12 1_555 1_555
H17 C12 1_555 1_555
H18 C12 1_555 1_555
O8 H19 1_555 1_555
H20 O8 1_555 1_555
Cd1B O3 1_555 1_555
O3B Cd1 1_555 1_555
O4B Cd1 1_555 1_555
O4 Cd1B 1_555 1_555
C1 C7 1_555 1_555
C5 C6 1_555 1_555

#END
