
#######################################################################
#
#                 Cambridge Crystallographic Data Centre
#                                CCDC 
#
#######################################################################
#
# If this CIF has been generated from an entry in the Cambridge 
# Structural Database, then it will include bibliographic, chemical, 
# crystal, experimental, refinement or atomic coordinate data resulting 
# from the CCDC's data processing and validation procedures.
#
#######################################################################

data_GONGUL
_symmetry_cell_setting           monoclinic
_symmetry_space_group_name_H-M   'P 21/n'
_symmetry_Int_Tables_number      14
_space_group_name_Hall           '-P 2yn'
loop_
_symmetry_equiv_pos_site_id
_symmetry_equiv_pos_as_xyz
1 x,y,z
2 1/2-x,1/2+y,1/2-z
3 -x,-y,-z
4 1/2+x,1/2-y,1/2+z
_cell_length_a                   17.825(12)
_cell_length_b                   10.25(2)
_cell_length_c                   20.31(2)
_cell_angle_alpha                90
_cell_angle_beta                 109.05(5)
_cell_angle_gamma                90
_cell_volume                     3507.54
loop_
_atom_site_label
_atom_site_type_symbol
_atom_site_fract_x
_atom_site_fract_y
_atom_site_fract_z
Sm1 Sm 0.1924(1) 0.4868(1) 0.2300(1)
Sm2 Sm 0.0370(1) 0.0590(1) 0.3619(1)
S1 S 0.1004(3) 0.1415(5) 0.1964(3)
S2 S 0.2352(3) 0.2398(5) 0.3760(3)
S3 S 0.1679(4) -0.2216(5) 0.3411(3)
S4 S 0.1027(6) 0.0730(12) 0.5608(4)
F1 F -0.0374(8) 0.1626(16) 0.1031(7)
F2 F 0.0147(10) -0.0213(15) 0.1064(8)
F3 F 0.0559(9) 0.1298(17) 0.0633(7)
F4 F 0.3323(9) 0.1950(15) 0.4977(7)
F5 F 0.3585(9) 0.3633(15) 0.4523(7)
F6 F 0.2650(11) 0.3633(16) 0.4916(7)
F7 F 0.2819(11) -0.3347(23) 0.4406(9)
F8 F 0.1691(13) -0.3384(21) 0.4541(10)
F9 F 0.2310(13) -0.1720(21) 0.4711(10)
O1 O 0.1143(8) 0.2794(13) 0.1902(8)
O2 O 0.3329(8) 0.5647(14) 0.2999(8)
O3 O 0.0577(9) 0.1130(16) 0.2440(7)
O4 O 0.1716(8) 0.1709(14) 0.3919(7)
O5 O 0.2154(10) 0.6611(16) 0.1498(9)
O6 O 0.2093(10) 0.3615(14) 0.3414(7)
O7 O 0.0983(8) -0.1546(14) 0.3426(8)
O8 O 0.2734(10) 0.3558(15) 0.1730(10)
O9 O 0.1537(9) 0.6581(13) 0.3053(7)
O10 O 0.0926(11) 0.0649(23) 0.4927(6)
O11 O -0.0504(17) -0.1169(42) 0.4086(14)
O12 O 0.0974(27) -0.0594(30) 0.5834(24)
O13 O 0.0516(9) 0.5532(13) 0.1541(10)
O14 O -0.0914(10) 0.0089(21) 0.2580(9)
C1 C 0.0315(13) 0.1009(19) 0.1119(11)
C2 C 0.3018(14) 0.2925(23) 0.4602(11)
C3 C 0.2171(25) -0.2693(30) 0.4315(14)
C4 C 0.2027(18) 0.1155(34) 0.6075(18)
F10 F 0.2033(21) 0.2419(25) 0.5961(21)
F11 F 0.2231(18) 0.0811(28) 0.6723(14)
F12 F 0.2461(19) 0.0474(28) 0.5811(15)
C5 C 0.0252(21) 0.6847(32) 0.1463(20)
C6 C -0.0583(19) 0.6820(34) 0.0842(19)
C7 C -0.0875(19) 0.5556(53) 0.0777(27)
C8 C -0.0034(37) 0.4596(32) 0.1042(34)
C9 C -0.1490(23) 0.1047(40) 0.2215(20)
C10 C -0.2010(31) 0.0109(52) 0.1653(27)
C11 C -0.1924(30) -0.1147(53) 0.1769(26)
C12 C -0.1080(24) -0.1152(43) 0.2254(21)
O15 O -0.0124(12) 0.2911(18) 0.3553(11)
C13 C 0.0113(26) 0.3998(37) 0.3204(21)
C14 C -0.0357(35) 0.5203(29) 0.3348(28)
C15 C -0.0540(40) 0.4832(41) 0.4012(29)
C16 C -0.0487(35) 0.3355(41) 0.4066(24)
H1 H 0.0629(21) 0.7403(32) 0.1343(20)
H2 H 0.0185(21) 0.7167(32) 0.1890(20)
H3 H -0.0955(19) 0.7411(34) 0.0946(19)
H4 H -0.0512(19) 0.7095(34) 0.0409(19)
H5 H -0.1190(19) 0.5367(53) 0.0299(27)
H6 H -0.1199(19) 0.5419(53) 0.1073(27)
H7 H -0.0116(37) 0.3806(32) 0.1273(34)
H8 H 0.0151(37) 0.4371(32) 0.0658(34)
H9 H -0.1258(23) 0.1738(40) 0.2017(20)
H10 H -0.1775(23) 0.1418(40) 0.2503(20)
H11 H -0.2562(31) 0.0324(52) 0.1580(27)
H12 H -0.1910(31) 0.0290(52) 0.1220(27)
H13 H -0.1983(30) -0.1634(53) 0.1345(26)
H14 H -0.2290(30) -0.1482(53) 0.1991(26)
H15 H -0.1011(24) -0.1828(43) 0.2604(21)
H16 H -0.0720(24) -0.1327(43) 0.1996(21)
H17 H -0.0027(26) 0.3835(37) 0.2708(21)
H18 H 0.0681(26) 0.4144(37) 0.3395(21)
H19 H -0.0037(35) 0.5989(29) 0.3420(28)
H20 H -0.0843(35) 0.5344(29) 0.2962(28)
H21 H -0.0158(40) 0.5231(41) 0.4417(29)
H22 H -0.1067(40) 0.5126(41) 0.3983(29)
H23 H -0.0165(35) 0.3094(41) 0.4532(24)
H24 H -0.1012(35) 0.2980(41) 0.3967(24)
O2A O 0.1671(8) 0.0647(14) 0.2001(8)
O5A O 0.2846(10) 0.1611(16) 0.3502(9)
O8A O 0.2266(10) -0.1442(15) 0.3270(10)
O9_2 O 0.1537(9) -0.3419(13) 0.3053(7)
O11B O 0.0504(17) 0.1169(42) 0.5914(14)
Sm1A Sm 0.3076(1) -0.0132(1) 0.2700(1)
Sm1_2 Sm 0.1924(1) -0.5132(1) 0.2300(1)
Sm2B Sm -0.0370(1) -0.0590(1) 0.6381(1)
loop_
_geom_bond_atom_site_label_1
_geom_bond_atom_site_label_2
_geom_bond_site_symmetry_1
_geom_bond_site_symmetry_2
Sm1 O1 1_555 1_555
Sm2 O3 1_555 1_555
S1 O1 1_555 1_555
S2 O4 1_555 1_555
S3 O7 1_555 1_555
S4 O10 1_555 1_555
F1 C1 1_555 1_555
F2 C1 1_555 1_555
F3 C1 1_555 1_555
F4 C2 1_555 1_555
F5 C2 1_555 1_555
F6 C2 1_555 1_555
F7 C3 1_555 1_555
F8 C3 1_555 1_555
F9 C3 1_555 1_555
O2 Sm1 1_555 1_555
O3 S1 1_555 1_555
O4 Sm2 1_555 1_555
O5 Sm1 1_555 1_555
O6 Sm1 1_555 1_555
O7 Sm2 1_555 1_555
O8 Sm1 1_555 1_555
O9 Sm1 1_555 1_555
O10 Sm2 1_555 1_555
O11 Sm2 1_555 1_555
O12 S4 1_555 1_555
O13 Sm1 1_555 1_555
O14 Sm2 1_555 1_555
C1 S1 1_555 1_555
C2 S2 1_555 1_555
C3 S3 1_555 1_555
C4 S4 1_555 1_555
F10 C4 1_555 1_555
F11 C4 1_555 1_555
F12 C4 1_555 1_555
C5 O13 1_555 1_555
C6 C5 1_555 1_555
C7 C6 1_555 1_555
C8 O13 1_555 1_555
C9 O14 1_555 1_555
C10 C9 1_555 1_555
C11 C10 1_555 1_555
C12 O14 1_555 1_555
O15 Sm2 1_555 1_555
C13 O15 1_555 1_555
C14 C13 1_555 1_555
C15 C14 1_555 1_555
C16 O15 1_555 1_555
H1 C5 1_555 1_555
H2 C5 1_555 1_555
H3 C6 1_555 1_555
H4 C6 1_555 1_555
H5 C7 1_555 1_555
H6 C7 1_555 1_555
H7 C8 1_555 1_555
H8 C8 1_555 1_555
H9 C9 1_555 1_555
H10 C9 1_555 1_555
H11 C10 1_555 1_555
H12 C10 1_555 1_555
H13 C11 1_555 1_555
H14 C11 1_555 1_555
H15 C12 1_555 1_555
H16 C12 1_555 1_555
H17 C13 1_555 1_555
H18 C13 1_555 1_555
H19 C14 1_555 1_555
H20 C14 1_555 1_555
H21 C15 1_555 1_555
H22 C15 1_555 1_555
H23 C16 1_555 1_555
H24 C16 1_555 1_555
O2A S1 1_555 1_555
O5A S2 1_555 1_555
O8A S3 1_555 1_555
O9_2 S3 1_555 1_555
O11B S4 1_555 1_555
Sm1A O2A 1_555 1_555
Sm1_2 O9_2 1_555 1_555
Sm2B O11B 1_555 1_555
S2 O6 1_555 1_555
C7 C8 1_555 1_555
C11 C12 1_555 1_555
C15 C16 1_555 1_555
O5A Sm1A 1_555 1_555
O8A Sm1A 1_555 1_555

#END
