
#######################################################################
#
#                 Cambridge Crystallographic Data Centre
#                                CCDC 
#
#######################################################################
#
# If this CIF has been generated from an entry in the Cambridge 
# Structural Database, then it will include bibliographic, chemical, 
# crystal, experimental, refinement or atomic coordinate data resulting 
# from the CCDC's data processing and validation procedures.
#
#######################################################################

data_GONLUS
_symmetry_cell_setting           tetragonal
_symmetry_space_group_name_H-M   'I -4'
_symmetry_Int_Tables_number      82
_space_group_name_Hall           'I -4'
loop_
_symmetry_equiv_pos_site_id
_symmetry_equiv_pos_as_xyz
1 x,y,z
2 -x,-y,z
3 y,-x,-z
4 -y,x,-z
5 1/2+x,1/2+y,1/2+z
6 1/2-x,1/2-y,1/2+z
7 1/2+y,1/2-x,1/2-z
8 1/2-y,1/2+x,1/2-z
_cell_length_a                   22.126(4)
_cell_length_b                   22.126(4)
_cell_length_c                   6.012(2)
_cell_angle_alpha                90
_cell_angle_beta                 90
_cell_angle_gamma                90
_cell_volume                     2943.23
loop_
_atom_site_label
_atom_site_type_symbol
_atom_site_fract_x
_atom_site_fract_y
_atom_site_fract_z
Ag1 Ag 0.05756(7) -0.02969(6) 0.2614(3)
S1 S 0.1033(2) 0.0729(2) 0.4083(9)
S2 S 0.00829(18) 0.1193(2) 0.1001(9)
C1 C 0.0738(5) 0.1288(6) 0.247(3)
N1 N 0.1032(4) 0.1800(4) 0.229(2)
C2 C 0.0801(8) 0.2333(6) 0.106(3)
H1 H 0.1140 0.2549 0.0421
H2 H 0.0547 0.2195 -0.0150
C3 C 0.0456(6) 0.2748(6) 0.243(5)
C4 C 0.0393(7) 0.3336(8) 0.176(5)
H3 H 0.0582 0.3452 0.0442
C5 C 0.0073(10) 0.3761(10) 0.288(8)
H4 H 0.0031 0.4153 0.2341
C6 C -0.0177(10) 0.3586(10) 0.478(5)
H5 H -0.0391 0.3869 0.5608
C7 C -0.0132(9) 0.2988(11) 0.560(5)
H6 H -0.0323 0.2875 0.6911
C8 C 0.0195(8) 0.2586(9) 0.442(4)
H7 H 0.0246 0.2195 0.4960
C9 C 0.1581(7) 0.1917(8) 0.354(3)
H8 H 0.1568 0.1690 0.4917
H9 H 0.1598 0.2343 0.3911
C10 C 0.2149(6) 0.1745(6) 0.226(4)
C11 C 0.2710(7) 0.1886(7) 0.317(3)
H10 H 0.2715 0.2098 0.4507
N2 N 0.3245(9) 0.1736(9) 0.226(6)
C12 C 0.3200(9) 0.1437(11) 0.041(6)
H11 H 0.3562 0.1337 -0.0290
C13 C 0.2692(10) 0.1254(7) -0.060(4)
H12 H 0.2707 0.1021 -0.1889
C14 C 0.2151(8) 0.1419(8) 0.030(3)
H13 H 0.1790 0.1315 -0.0392
Ag1A Ag -0.05756(7) 0.02969(6) 0.2614(3)
Ag1C Ag 0.02969(6) 0.05756(7) -0.2614(3)
Ag1C_2 Ag 0.02969(6) 0.05756(7) 0.7386(3)
S1B S 0.0729(2) -0.1033(2) 0.5917(9)
S2A S -0.00829(18) -0.1193(2) 0.1001(9)
S2B S 0.1193(2) -0.00829(18) -0.1001(9)
loop_
_geom_bond_atom_site_label_1
_geom_bond_atom_site_label_2
_geom_bond_site_symmetry_1
_geom_bond_site_symmetry_2
Ag1 S1 1_555 1_555
S1 C1 1_555 1_555
S2 C1 1_555 1_555
C1 N1 1_555 1_555
N1 C2 1_555 1_555
C2 H1 1_555 1_555
H2 C2 1_555 1_555
C3 C2 1_555 1_555
C4 C3 1_555 1_555
H3 C4 1_555 1_555
C5 C4 1_555 1_555
H4 C5 1_555 1_555
C6 C5 1_555 1_555
H5 C6 1_555 1_555
C7 C6 1_555 1_555
H6 C7 1_555 1_555
C8 C3 1_555 1_555
H7 C8 1_555 1_555
C9 N1 1_555 1_555
H8 C9 1_555 1_555
H9 C9 1_555 1_555
C10 C9 1_555 1_555
C11 C10 1_555 1_555
H10 C11 1_555 1_555
N2 C11 1_555 1_555
C12 N2 1_555 1_555
H11 C12 1_555 1_555
C13 C12 1_555 1_555
H12 C13 1_555 1_555
C14 C10 1_555 1_555
H13 C14 1_555 1_555
Ag1A Ag1 1_555 1_555
Ag1C S2 1_555 1_555
Ag1C_2 S1 1_555 1_555
S1B Ag1 1_555 1_555
S2A Ag1 1_555 1_555
S2B Ag1 1_555 1_555
S2 Ag1A 1_555 1_555
C7 C8 1_555 1_555
C13 C14 1_555 1_555
Ag1C S2B 1_555 1_555

#END
