
#######################################################################
#
#                 Cambridge Crystallographic Data Centre
#                                CCDC 
#
#######################################################################
#
# If this CIF has been generated from an entry in the Cambridge 
# Structural Database, then it will include bibliographic, chemical, 
# crystal, experimental, refinement or atomic coordinate data resulting 
# from the CCDC's data processing and validation procedures.
#
#######################################################################

data_GONXIQ
_symmetry_cell_setting           monoclinic
_symmetry_space_group_name_H-M   'P 21/n'
_symmetry_Int_Tables_number      14
_space_group_name_Hall           '-P 2yn'
loop_
_symmetry_equiv_pos_site_id
_symmetry_equiv_pos_as_xyz
1 x,y,z
2 1/2-x,1/2+y,1/2-z
3 -x,-y,-z
4 1/2+x,1/2-y,1/2+z
_cell_length_a                   8.556(1)
_cell_length_b                   10.617(1)
_cell_length_c                   19.827(2)
_cell_angle_alpha                90
_cell_angle_beta                 97.25(1)
_cell_angle_gamma                90
_cell_volume                     1786.67
loop_
_atom_site_label
_atom_site_type_symbol
_atom_site_fract_x
_atom_site_fract_y
_atom_site_fract_z
Ag1 Ag 0.9565(1) 0.1149(1) 0.0369(1)
C1 C 0.5106(3) 0.0235(3) -0.1442(1)
C2 C 0.4089(3) 0.1238(3) -0.1665(1)
C3 C 0.3334(3) 0.1222(3) -0.2327(2)
C4 C 0.3564(4) 0.0244(3) -0.2768(2)
C5 C 0.4527(4) -0.0750(3) -0.2551(2)
C6 C 0.5294(4) -0.0747(3) -0.1886(2)
C7 C 0.6057(3) 0.0220(3) -0.0750(1)
S1 S 0.7753(1) 0.1308(1) -0.0719(1)
N1 N 0.9499(3) -0.0256(2) -0.1391(1)
C8 C 0.8560(3) 0.0765(3) -0.1452(1)
C9 C 0.8133(4) 0.1379(3) -0.2059(2)
C10 C 0.8663(4) 0.0911(3) -0.2641(2)
C11 C 0.9590(4) -0.0148(3) -0.2588(2)
C12 C 0.9995(4) -0.0689(3) -0.1963(2)
C13 C 0.3802(3) 0.2318(3) -0.1205(2)
S2 S 0.2224(1) 0.1884(1) -0.0710(1)
N2 N 0.1159(3) 0.2970(2) 0.0314(1)
C14 C 0.2123(3) 0.3178(3) -0.0157(1)
C15 C 0.2901(4) 0.4320(3) -0.0205(2)
C16 C 0.2670(4) 0.5259(3) 0.0249(2)
C17 C 0.1667(4) 0.5055(3) 0.0733(2)
C18 C 0.0940(4) 0.3905(3) 0.0747(2)
N3 N 0.6405(3) 0.2690(2) 0.0887(1)
O1 O 0.5729(3) 0.2151(2) 0.0373(1)
O2 O 0.7841(3) 0.2488(2) 0.1065(1)
O3 O 0.5683(3) 0.3446(2) 0.1204(1)
H1 H 0.2647(3) 0.1894(3) -0.2482(2)
H2 H 0.3054(4) 0.0260(3) -0.3222(2)
H3 H 0.4670(4) -0.1429(3) -0.2849(2)
H4 H 0.5959(4) -0.1433(3) -0.1734(2)
H5 H 0.6443(3) -0.0645(3) -0.0643(1)
H6 H 0.5380(3) 0.0472(3) -0.0404(1)
H7 H 0.7488(4) 0.2110(3) -0.2077(2)
H8 H 0.8390(4) 0.1314(3) -0.3068(2)
H9 H 0.9949(4) -0.0502(3) -0.2981(2)
H10 H 1.0661(4) -0.1408(3) -0.1934(2)
H11 H 0.3499(3) 0.3079(3) -0.1479(2)
H12 H 0.4776(3) 0.2508(3) -0.0897(2)
H13 H 0.3578(4) 0.4447(3) -0.0543(2)
H14 H 0.3195(4) 0.6044(3) 0.0230(2)
H15 H 0.1487(4) 0.5696(3) 0.1049(2)
H16 H 0.0248(4) 0.3765(3) 0.1078(2)
Ag1B Ag 1.0435(1) -0.1149(1) -0.0369(1)
N1B N 1.0501(3) 0.0256(2) 0.1391(1)
N2_2 N 1.1159(3) 0.2970(2) 0.0314(1)
Ag1_2 Ag -0.0435(1) 0.1149(1) 0.0369(1)
loop_
_geom_bond_atom_site_label_1
_geom_bond_atom_site_label_2
_geom_bond_site_symmetry_1
_geom_bond_site_symmetry_2
Ag1 S1 1_555 1_555
C1 C2 1_555 1_555
C2 C3 1_555 1_555
C3 C4 1_555 1_555
C4 C5 1_555 1_555
C5 C6 1_555 1_555
C6 C1 1_555 1_555
C7 C1 1_555 1_555
S1 C7 1_555 1_555
N1 C8 1_555 1_555
C8 S1 1_555 1_555
C9 C8 1_555 1_555
C10 C9 1_555 1_555
C11 C10 1_555 1_555
C12 N1 1_555 1_555
C13 C2 1_555 1_555
S2 C13 1_555 1_555
N2 C14 1_555 1_555
C14 S2 1_555 1_555
C15 C14 1_555 1_555
C16 C15 1_555 1_555
C17 C16 1_555 1_555
C18 N2 1_555 1_555
N3 O1 1_555 1_555
O2 Ag1 1_555 1_555
O3 N3 1_555 1_555
H1 C3 1_555 1_555
H2 C4 1_555 1_555
H3 C5 1_555 1_555
H4 C6 1_555 1_555
H5 C7 1_555 1_555
H6 C7 1_555 1_555
H7 C9 1_555 1_555
H8 C10 1_555 1_555
H9 C11 1_555 1_555
H10 C12 1_555 1_555
H11 C13 1_555 1_555
H12 C13 1_555 1_555
H13 C15 1_555 1_555
H14 C16 1_555 1_555
H15 C17 1_555 1_555
H16 C18 1_555 1_555
Ag1B Ag1 1_555 1_555
N1B Ag1 1_555 1_555
N2_2 Ag1 1_555 1_555
Ag1_2 N2 1_555 1_555
N1 Ag1B 1_555 1_555
C11 C12 1_555 1_555
C17 C18 1_555 1_555
N3 O2 1_555 1_555

#END
