
#######################################################################
#
#                 Cambridge Crystallographic Data Centre
#                                CCDC 
#
#######################################################################
#
# If this CIF has been generated from an entry in the Cambridge 
# Structural Database, then it will include bibliographic, chemical, 
# crystal, experimental, refinement or atomic coordinate data resulting 
# from the CCDC's data processing and validation procedures.
#
#######################################################################

data_GOPCOF
_symmetry_cell_setting           triclinic
_symmetry_space_group_name_H-M   'P -1'
_symmetry_Int_Tables_number      2
_space_group_name_Hall           '-P 1'
loop_
_symmetry_equiv_pos_site_id
_symmetry_equiv_pos_as_xyz
1 x,y,z
2 -x,-y,-z
_cell_length_a                   9.779(4)
_cell_length_b                   13.952(6)
_cell_length_c                   21.144(9)
_cell_angle_alpha                92.178(9)
_cell_angle_beta                 96.238(9)
_cell_angle_gamma                109.309(8)
_cell_volume                     2698
loop_
_atom_site_label
_atom_site_type_symbol
_atom_site_fract_x
_atom_site_fract_y
_atom_site_fract_z
O1 O 1.0434(4) 0.2043(3) 0.12769(18)
C1 C 1.3220(9) 0.4300(6) 0.0323(3)
H1 H 1.3019 0.3782 0.0001
N1 N 1.3502(5) 0.4201(4) 0.0946(2)
C2 C 1.3746(7) 0.5100(5) 0.1221(3)
H2 H 1.4007 0.5264 0.1658
C3 C 1.3270(10) 0.5254(7) 0.0234(4)
H3 H 1.3118 0.5518 -0.0155
N2 N 1.3581(7) 0.5756(4) 0.0812(3)
C4 C 1.3918(9) 0.6851(5) 0.0947(3)
H4 H 1.3631 0.7135 0.0563
H5 H 1.4965 0.7170 0.1058
N3 N -0.3750(5) -0.1947(3) 0.92722(19)
C5 C -0.2598(6) -0.1167(4) 0.9487(3)
H6 H -0.1685 -0.1043 0.9352
C6 C -0.4294(7) -0.1007(5) 0.9979(3)
H7 H -0.4809 -0.0768 1.0255
N4 N -0.2882(5) -0.0576(3) 0.9918(2)
C7 C -0.1876(6) 0.0356(4) 1.0238(2)
H8 H -0.1042 0.0220 1.0456
H9 H -0.2349 0.0599 1.0558
O2 O 1.2439(4) 0.2575(3) 0.19591(16)
C8 C 1.1070(7) 0.2305(4) 0.1820(3)
Zn1 Zn 0.73197(6) 0.33395(4) 0.50018(2)
Zn2 Zn 1.61967(6) 0.69598(5) 0.86439(3)
C9 C 0.5706(6) 0.1687(4) 0.5731(2)
H10 H 0.6385 0.1960 0.6091
C10 C 0.4526(6) 0.1484(4) 0.4799(2)
H11 H 0.4231 0.1592 0.4382
C11 C 0.3858(6) 0.0689(4) 0.5111(3)
H12 H 0.3027 0.0143 0.4953
C12 C 0.4317(7) 0.0161(5) 0.6219(3)
H13 H 0.5224 0.0261 0.6493
H14 H 0.3943 -0.0543 0.6044
C13 C 0.3249(7) 0.0355(4) 0.6607(3)
H15 H 0.2308 0.0206 0.6350
H16 H 0.3124 -0.0067 0.6965
C14 C 0.3177(7) 0.1735(5) 0.7281(3)
C15 C 0.3603(7) 0.2799(5) 0.7371(3)
H17 H 0.4271 0.3205 0.7126
C16 C 0.3051(7) 0.3231(5) 0.7807(3)
H18 H 0.3318 0.3937 0.7851
C17 C 0.2089(7) 0.2652(4) 0.8196(3)
C18 C 0.1666(6) 0.1586(4) 0.8115(2)
C19 C 0.2213(6) 0.1139(4) 0.7642(3)
H19 H 0.1917 0.0433 0.7575
C20 C 0.0728(6) 0.1007(4) 0.8513(3)
H20 H 0.0435 0.0300 0.8458
C21 C 0.0229(6) 0.1447(4) 0.8978(3)
C22 C 0.0610(7) 0.2506(5) 0.9055(3)
H21 H 0.0249 0.2811 0.9365
C23 C 0.1523(7) 0.3081(5) 0.8666(3)
H22 H 0.1778 0.3786 0.8715
O3 O -0.0587(4) 0.0807(3) 0.93722(17)
C24 C -0.1351(7) 0.1169(4) 0.9799(3)
H23 H -0.2170 0.1307 0.9568
H24 H -0.0711 0.1792 1.0038
C25 C 0.7772(6) 0.5500(4) 0.4900(2)
H25 H 0.8659 0.5667 0.5162
C26 C 0.5748(6) 0.4676(5) 0.4357(2)
H26 H 0.4934 0.4141 0.4169
C27 C 0.5971(7) 0.5662(5) 0.4291(3)
H27 H 0.5358 0.5934 0.4048
C28 C 0.8007(8) 0.7266(5) 0.4660(3)
H28 H 0.8609 0.7502 0.5069
H29 H 0.7306 0.7622 0.4612
C29 C 0.8954(6) 0.7495(4) 0.4130(3)
H30 H 0.9717 0.7194 0.4197
H31 H 0.8372 0.7213 0.3722
C30 C 1.0483(7) 0.8921(5) 0.3682(3)
C31 C 1.0996(7) 0.9994(5) 0.3683(3)
H32 H 1.0724 1.0391 0.3974
C32 C 1.1879(7) 1.0428(5) 0.3257(3)
H33 H 1.2219 1.1134 0.3258
C33 C 1.2310(7) 0.9855(5) 0.2811(3)
C34 C 1.1793(6) 0.8783(4) 0.2812(3)
C35 C 1.0876(6) 0.8344(4) 0.3262(3)
H34 H 1.0532 0.7639 0.3272
C36 C 1.2232(7) 0.8210(4) 0.2374(3)
H35 H 1.1917 0.7505 0.2378
C37 C 1.3099(7) 0.8661(5) 0.1948(3)
C38 C 1.3617(7) 0.9723(5) 0.1937(3)
H36 H 1.4231 1.0030 0.1642
C39 C 1.3218(7) 1.0291(5) 0.2355(3)
H37 H 1.3554 1.0995 0.2342
O4 O 1.3575(5) 0.8182(3) 0.1487(2)
C40 C 1.3174(8) 0.7099(5) 0.1471(3)
H38 H 1.2123 0.6774 0.1380
H39 H 1.3514 0.6888 0.1872
C41 C -0.4828(7) -0.1828(5) 0.9582(3)
H40 H -0.5796 -0.2259 0.9523
C42 C 0.7950(7) 0.2696(4) 0.3916(3)
C43 C 0.8727(6) 0.2525(4) 0.3377(2)
C44 C 0.7984(6) 0.2132(4) 0.2786(2)
H41 H 0.6970 0.1930 0.2722
C45 C 0.8729(6) 0.2033(4) 0.2287(2)
H42 H 0.8209 0.1756 0.1890
C46 C 1.0221(6) 0.2334(4) 0.2361(2)
C47 C 1.0962(6) 0.2708(4) 0.2958(2)
H43 H 1.1975 0.2897 0.3022
C48 C 1.0225(6) 0.2805(4) 0.3461(2)
H44 H 1.0744 0.3062 0.3861
C49 C 0.8406(6) 0.4122(4) 0.6282(2)
C50 C 0.9646(5) 0.4597(4) 0.6797(2)
C51 C 1.1037(6) 0.4874(4) 0.6656(2)
H45 H 1.1202 0.4741 0.6242
C52 C 1.2217(6) 0.5353(4) 0.7115(2)
H46 H 1.3164 0.5547 0.7009
C53 C 1.1975(5) 0.5537(3) 0.7727(2)
C54 C 1.0581(6) 0.5236(4) 0.7877(2)
H47 H 1.0417 0.5343 0.8295
C55 C 0.9415(6) 0.4776(4) 0.7414(2)
H48 H 0.8468 0.4586 0.7519
C56 C 1.3241(6) 0.6079(4) 0.8226(3)
N5 N 0.5717(4) 0.2119(3) 0.51868(18)
N6 N 0.4612(5) 0.0823(3) 0.5701(2)
N7 N 0.6899(4) 0.4571(3) 0.47432(17)
N8 N 0.7247(5) 0.6185(4) 0.4641(2)
O5 O 0.3826(5) 0.1395(3) 0.68251(19)
O6 O 0.9578(5) 0.8567(3) 0.4134(2)
O7 O 0.8687(4) 0.3058(3) 0.44511(16)
O8 O 0.6610(4) 0.2492(3) 0.38303(17)
O9 O 0.8721(4) 0.3830(3) 0.57661(15)
O10 O 0.7143(4) 0.4023(3) 0.63864(17)
O11 O 1.3059(4) 0.6129(3) 0.87895(17)
O12 O 1.4464(4) 0.6443(3) 0.80295(16)
N1A N 1.6498(5) 0.5799(4) 0.9054(2)
N3_2 N 1.6250(5) 0.8053(3) 0.92722(19)
O2A O 1.7561(4) 0.7425(3) 0.80409(16)
Zn2_2 Zn -0.38033(6) -0.30402(5) 0.86439(3)
Zn2A Zn 1.38033(6) 0.30402(5) 0.13561(3)
O13 O 0.4379(5) 0.2870(4) 0.3191(2)
O14 O 0.4020(5) 0.4971(3) 0.27508(18)
O15 O 0.1162(6) 0.6760(5) 0.9407(2)
loop_
_geom_bond_atom_site_label_1
_geom_bond_atom_site_label_2
_geom_bond_site_symmetry_1
_geom_bond_site_symmetry_2
O1 C8 1_555 1_555
C1 H1 1_555 1_555
N1 C1 1_555 1_555
C2 N1 1_555 1_555
H2 C2 1_555 1_555
C3 C1 1_555 1_555
H3 C3 1_555 1_555
N2 C2 1_555 1_555
C4 N2 1_555 1_555
H4 C4 1_555 1_555
H5 C4 1_555 1_555
N3 C5 1_555 1_555
C5 H6 1_555 1_555
C6 H7 1_555 1_555
N4 C5 1_555 1_555
C7 N4 1_555 1_555
H8 C7 1_555 1_555
H9 C7 1_555 1_555
O2 C8 1_555 1_555
C8 C46 1_555 1_555
Zn1 N5 1_555 1_555
Zn2 O12 1_555 1_555
C9 H10 1_555 1_555
C10 H11 1_555 1_555
C11 C10 1_555 1_555
H12 C11 1_555 1_555
C12 H13 1_555 1_555
H14 C12 1_555 1_555
C13 C12 1_555 1_555
H15 C13 1_555 1_555
H16 C13 1_555 1_555
C14 C15 1_555 1_555
C15 H17 1_555 1_555
C16 C15 1_555 1_555
H18 C16 1_555 1_555
C17 C16 1_555 1_555
C18 C17 1_555 1_555
C19 C14 1_555 1_555
H19 C19 1_555 1_555
C20 C18 1_555 1_555
H20 C20 1_555 1_555
C21 C20 1_555 1_555
C22 C21 1_555 1_555
H21 C22 1_555 1_555
C23 C17 1_555 1_555
H22 C23 1_555 1_555
O3 C21 1_555 1_555
C24 C7 1_555 1_555
H23 C24 1_555 1_555
H24 C24 1_555 1_555
C25 H25 1_555 1_555
C26 H26 1_555 1_555
C27 C26 1_555 1_555
H27 C27 1_555 1_555
C28 H28 1_555 1_555
H29 C28 1_555 1_555
C29 C28 1_555 1_555
H30 C29 1_555 1_555
H31 C29 1_555 1_555
C30 C31 1_555 1_555
C31 H32 1_555 1_555
C32 C31 1_555 1_555
H33 C32 1_555 1_555
C33 C32 1_555 1_555
C34 C33 1_555 1_555
C35 C30 1_555 1_555
H34 C35 1_555 1_555
C36 C34 1_555 1_555
H35 C36 1_555 1_555
C37 C36 1_555 1_555
C38 C37 1_555 1_555
H36 C38 1_555 1_555
C39 C33 1_555 1_555
H37 C39 1_555 1_555
O4 C37 1_555 1_555
C40 C4 1_555 1_555
H38 C40 1_555 1_555
H39 C40 1_555 1_555
C41 N3 1_555 1_555
H40 C41 1_555 1_555
C42 C43 1_555 1_555
C43 C44 1_555 1_555
C44 H41 1_555 1_555
C45 C44 1_555 1_555
H42 C45 1_555 1_555
C46 C45 1_555 1_555
C47 C46 1_555 1_555
H43 C47 1_555 1_555
C48 C43 1_555 1_555
H44 C48 1_555 1_555
C49 C50 1_555 1_555
C50 C51 1_555 1_555
C51 H45 1_555 1_555
C52 C51 1_555 1_555
H46 C52 1_555 1_555
C53 C52 1_555 1_555
C54 C53 1_555 1_555
H47 C54 1_555 1_555
C55 C50 1_555 1_555
H48 C55 1_555 1_555
C56 C53 1_555 1_555
N5 C9 1_555 1_555
N6 C9 1_555 1_555
N7 Zn1 1_555 1_555
N8 C25 1_555 1_555
O5 C13 1_555 1_555
O6 C29 1_555 1_555
O7 Zn1 1_555 1_555
O8 C42 1_555 1_555
O9 Zn1 1_555 1_555
O10 C49 1_555 1_555
O11 C56 1_555 1_555
O12 C56 1_555 1_555
N1A Zn2 1_555 1_555
N3_2 Zn2 1_555 1_555
O2A Zn2 1_555 1_555
Zn2_2 N3 1_555 1_555
Zn2A N1 1_555 1_555
C3 N2 1_555 1_555
C6 N4 1_555 1_555
C6 C41 1_555 1_555
O2 Zn2A 1_555 1_555
C10 N5 1_555 1_555
C11 N6 1_555 1_555
C12 N6 1_555 1_555
C14 O5 1_555 1_555
C18 C19 1_555 1_555
C22 C23 1_555 1_555
O3 C24 1_555 1_555
C25 N7 1_555 1_555
C26 N7 1_555 1_555
C27 N8 1_555 1_555
C28 N8 1_555 1_555
C30 O6 1_555 1_555
C34 C35 1_555 1_555
C38 C39 1_555 1_555
O4 C40 1_555 1_555
C42 O7 1_555 1_555
C47 C48 1_555 1_555
C49 O9 1_555 1_555
C54 C55 1_555 1_555

#END
