
#######################################################################
#
#                 Cambridge Crystallographic Data Centre
#                                CCDC 
#
#######################################################################
#
# If this CIF has been generated from an entry in the Cambridge 
# Structural Database, then it will include bibliographic, chemical, 
# crystal, experimental, refinement or atomic coordinate data resulting 
# from the CCDC's data processing and validation procedures.
#
#######################################################################

data_GOPCAR
_symmetry_cell_setting           monoclinic
_symmetry_space_group_name_H-M   'P 21/c'
_symmetry_Int_Tables_number      14
_space_group_name_Hall           '-P 2ybc'
loop_
_symmetry_equiv_pos_site_id
_symmetry_equiv_pos_as_xyz
1 x,y,z
2 -x,1/2+y,1/2-z
3 -x,-y,-z
4 x,1/2-y,1/2+z
_cell_length_a                   12.937(8)
_cell_length_b                   11.150(7)
_cell_length_c                   17.445(8)
_cell_angle_alpha                90
_cell_angle_beta                 126.80(3)
_cell_angle_gamma                90
_cell_volume                     2014.96
loop_
_atom_site_label
_atom_site_type_symbol
_atom_site_fract_x
_atom_site_fract_y
_atom_site_fract_z
Co1 Co 0.0000 1.0000 1.0000
O1 O 0.2344(3) 0.5960(2) 0.8656(2)
O2 O 0.0292(3) 1.1788(2) 0.9801(2)
O3 O -0.1674(3) 1.2345(2) 0.8567(2)
O4 O 0.1944(3) 0.9939(3) 1.1199(2)
H1 H 0.2090 0.9303 1.1483
N1 N 0.0553(3) 0.9283(3) 0.9164(2)
N2 N 0.0611(3) 0.7976(3) 0.8235(2)
C1 C 0.0039(4) 0.8326(3) 0.8635(3)
H2 H -0.0657 0.7923 0.8543
C2 C 0.1538(4) 0.9592(3) 0.9113(3)
C3 C 0.2410(4) 1.0528(3) 0.9536(3)
H3 H 0.2394 1.1077 0.9930
C4 C 0.3293(5) 1.0615(4) 0.9354(3)
H4 H 0.3890 1.1237 0.9630
C5 C 0.3326(5) 0.9800(4) 0.8768(4)
H5 H 0.3950 0.9887 0.8665
C6 C 0.2468(4) 0.8874(4) 0.8337(3)
H6 H 0.2479 0.8336 0.7935
C7 C 0.1589(4) 0.8782(3) 0.8531(3)
C8 C 0.0306(4) 0.6878(3) 0.7684(3)
H7 H 0.0502 0.6991 0.7232
H8 H -0.0611 0.6716 0.7322
C9 C 0.1047(4) 0.5822(3) 0.8308(3)
H9 H 0.0990 0.5785 0.8837
H10 H 0.0695 0.5085 0.7942
C10 C 0.3233(5) 0.5178(4) 0.9335(4)
C11 C 0.4502(4) 0.5368(3) 0.9632(4)
C12 C 0.4806(5) 0.6258(4) 0.9227(4)
H11 H 0.4157 0.6735 0.8733
C13 C 0.6041(5) 0.6420(4) 0.9557(4)
H12 H 0.6230 0.7025 0.9292
C14 C 0.2957(5) 0.4287(4) 0.9720(4)
H13 H 0.2112 0.4153 0.9503
C15 C 0.0903(4) 1.4114(3) 1.0505(3)
H14 H 0.1518 1.3517 1.0852
C16 C -0.0259(4) 1.3830(3) 0.9662(3)
C17 C -0.1172(4) 1.4724(3) 0.9155(3)
H15 H -0.1967 1.4541 0.8584
C18 C -0.0578(5) 1.2550(3) 0.9307(3)
H16 H 0.216(7) 1.034(6) 1.160(5)
O1B O 0.7656(3) 0.4040(2) 1.1344(2)
N1B N 0.9447(3) 0.0717(3) 1.0836(2)
N2B N 0.9389(3) 0.2024(3) 1.1765(2)
C1B C 0.9961(4) 0.1674(3) 1.1365(3)
H2B H 1.0657 0.2077 1.1457
C2B C 0.8462(4) 0.0408(3) 1.0887(3)
C3B C 0.7590(4) -0.0528(3) 1.0464(3)
H3B H 0.7606 -0.1077 1.0070
C4B C 0.6707(5) -0.0615(4) 1.0646(3)
H4B H 0.6110 -0.1237 1.0370
C5B C 0.6674(5) 0.0200(4) 1.1232(4)
H5B H 0.6050 0.0113 1.1335
C6B C 0.7532(4) 0.1126(4) 1.1663(3)
H6B H 0.7521 0.1664 1.2065
C7B C 0.8411(4) 0.1218(3) 1.1469(3)
C8B C 0.9694(4) 0.3122(3) 1.2316(3)
H7B H 0.9498 0.3009 1.2768
H8B H 1.0611 0.3284 1.2678
C9B C 0.8953(4) 0.4178(3) 1.1692(3)
H9B H 0.9010 0.4215 1.1163
H10B H 0.9305 0.4915 1.2058
C10B C 0.6767(5) 0.4822(4) 1.0665(4)
C11B C 0.5498(4) 0.4632(3) 1.0368(4)
C12B C 0.5194(5) 0.3742(4) 1.0773(4)
H11B H 0.5843 0.3265 1.1267
C13B C 0.3959(5) 0.3580(4) 1.0443(4)
H12B H 0.3770 0.2975 1.0708
C14B C 0.7043(5) 0.5713(4) 1.0280(4)
H13B H 0.7888 0.5847 1.0497
O2B O -0.0292(3) 1.8212(2) 1.0199(2)
O3B O 0.1674(3) 1.7655(2) 1.1433(2)
C15B C -0.0903(4) 1.5886(3) 0.9495(3)
H14B H -0.1518 1.6483 0.9148
C16B C 0.0259(4) 1.6170(3) 1.0338(3)
C17B C 0.1172(4) 1.5276(3) 1.0845(3)
H15B H 0.1967 1.5459 1.1416
C18B C 0.0578(5) 1.7450(3) 1.0693(3)
O4B O -0.1944(3) 1.0061(3) 0.8801(2)
H1B H -0.2090 1.0697 0.8517
H16B H -0.216(7) 0.966(6) 0.840(5)
Co1_2 Co 0.0000 2.0000 1.0000
Co1_3 Co 1.0000 0.0000 1.0000
O2B_2 O -0.0292(3) 0.8212(2) 1.0199(2)
N1B_2 N -0.0553(3) 1.0717(3) 1.0836(2)
O5 O 0.7053(5) 0.8202(5) 0.7563(5)
N3 N 0.4948(5) 0.7852(4) 0.6729(3)
C19 C 0.3830(6) 0.7321(6) 0.5873(5)
H17 H 0.4029 0.7125 0.5438
H18 H 0.3125 0.7880 0.5573
H19 H 0.3592 0.6605 0.6038
C20 C 0.4891(9) 0.8638(8) 0.7398(7)
H20 H 0.5751 0.8789 0.7962
H21 H 0.4401 0.8245 0.7574
H22 H 0.4485 0.9385 0.7088
C21 C 0.6060(8) 0.7822(6) 0.6896(5)
H23 H 0.6085 0.7453 0.6429
loop_
_geom_bond_atom_site_label_1
_geom_bond_atom_site_label_2
_geom_bond_site_symmetry_1
_geom_bond_site_symmetry_2
Co1 O2 1_555 1_555
O1 C9 1_555 1_555
O2 C18 1_555 1_555
O3 C18 1_555 1_555
O4 Co1 1_555 1_555
H1 O4 1_555 1_555
N1 Co1 1_555 1_555
N2 C1 1_555 1_555
C1 N1 1_555 1_555
H2 C1 1_555 1_555
C2 N1 1_555 1_555
C3 C2 1_555 1_555
H3 C3 1_555 1_555
C4 C3 1_555 1_555
H4 C4 1_555 1_555
C5 C4 1_555 1_555
H5 C5 1_555 1_555
C6 C5 1_555 1_555
H6 C6 1_555 1_555
C7 N2 1_555 1_555
C8 N2 1_555 1_555
H7 C8 1_555 1_555
H8 C8 1_555 1_555
C9 C8 1_555 1_555
H9 C9 1_555 1_555
H10 C9 1_555 1_555
C10 O1 1_555 1_555
C11 C10 1_555 1_555
C12 C11 1_555 1_555
H11 C12 1_555 1_555
C13 C12 1_555 1_555
H12 C13 1_555 1_555
C14 C10 1_555 1_555
H13 C14 1_555 1_555
C15 H14 1_555 1_555
C16 C15 1_555 1_555
C17 C16 1_555 1_555
H15 C17 1_555 1_555
C18 C16 1_555 1_555
H16 O4 1_555 1_555
O5 C21 1_555 1_555
N3 C19 1_555 1_555
C19 H17 1_555 1_555
H18 C19 1_555 1_555
H19 C19 1_555 1_555
C20 N3 1_555 1_555
H20 C20 1_555 1_555
H21 C20 1_555 1_555
H22 C20 1_555 1_555
C21 N3 1_555 1_555
H23 C21 1_555 1_555
O1B C9B 1_555 1_555
N1B C1B 1_555 1_555
N2B C1B 1_555 1_555
C1B H2B 1_555 1_555
C2B N1B 1_555 1_555
C3B C2B 1_555 1_555
H3B C3B 1_555 1_555
C4B C3B 1_555 1_555
H4B C4B 1_555 1_555
C5B C4B 1_555 1_555
H5B C5B 1_555 1_555
C6B C5B 1_555 1_555
H6B C6B 1_555 1_555
C7B N2B 1_555 1_555
C8B N2B 1_555 1_555
H7B C8B 1_555 1_555
H8B C8B 1_555 1_555
C9B C8B 1_555 1_555
H9B C9B 1_555 1_555
H10B C9B 1_555 1_555
C10B O1B 1_555 1_555
C11B C11 1_555 1_555
C12B C11B 1_555 1_555
H11B C12B 1_555 1_555
C13B C14 1_555 1_555
H12B C13B 1_555 1_555
C14B C13 1_555 1_555
H13B C14B 1_555 1_555
O2B C18B 1_555 1_555
O3B C18B 1_555 1_555
C15B C17 1_555 1_555
H14B C15B 1_555 1_555
C16B C15B 1_555 1_555
C17B C15 1_555 1_555
H15B C17B 1_555 1_555
C18B C16B 1_555 1_555
O4B Co1 1_555 1_555
H1B O4B 1_555 1_555
H16B O4B 1_555 1_555
Co1_2 O2B 1_555 1_555
Co1_3 N1B 1_555 1_555
O2B_2 Co1 1_555 1_555
N1B_2 Co1 1_555 1_555
C2 C7 1_555 1_555
C6 C7 1_555 1_555
C2B C7B 1_555 1_555
C6B C7B 1_555 1_555
C10B C11B 1_555 1_555
C10B C14B 1_555 1_555
C12B C13B 1_555 1_555
C16B C17B 1_555 1_555

#END
