
#######################################################################
#
#                 Cambridge Crystallographic Data Centre
#                                CCDC 
#
#######################################################################
#
# If this CIF has been generated from an entry in the Cambridge 
# Structural Database, then it will include bibliographic, chemical, 
# crystal, experimental, refinement or atomic coordinate data resulting 
# from the CCDC's data processing and validation procedures.
#
#######################################################################

data_GOPGOJ
_symmetry_cell_setting           triclinic
_symmetry_space_group_name_H-M   'P -1'
_symmetry_Int_Tables_number      2
_space_group_name_Hall           '-P 1'
loop_
_symmetry_equiv_pos_site_id
_symmetry_equiv_pos_as_xyz
1 x,y,z
2 -x,-y,-z
_cell_length_a                   8.8392(10)
_cell_length_b                   9.2461(10)
_cell_length_c                   15.0662(16)
_cell_angle_alpha                98.184(2)
_cell_angle_beta                 106.541(2)
_cell_angle_gamma                94.703(2)
_cell_volume                     1158.57
loop_
_atom_site_label
_atom_site_type_symbol
_atom_site_fract_x
_atom_site_fract_y
_atom_site_fract_z
Y1 Y 0.23021(7) 0.89668(6) 0.23899(4)
Na1 Na 0.7309(3) 0.3988(3) 0.24064(17)
Na2 Na 0.6139(3) 0.0296(3) 0.15785(19)
Na3 Na 0.9328(3) 0.1170(3) 0.36009(18)
O1 O 0.3789(5) 0.7080(5) 0.2126(3)
O2 O 0.5680(6) 0.5676(6) 0.2662(3)
O3 O 0.5415(5) 0.9512(5) 0.6916(3)
O4 O 0.3278(5) 0.7910(5) 0.6690(3)
O5 O 0.2216(5) 1.0232(5) 0.5386(3)
O6 O 0.1642(5) 0.9852(4) 0.3821(3)
O7 O 0.0621(5) 1.0607(5) 0.2007(3)
O8 O -0.1186(5) 1.2075(5) 0.2124(3)
O9 O -0.2744(5) 0.9863(5) 0.0324(3)
O10 O -0.3240(4) 1.0257(4) -0.1151(2)
O11 O -0.0154(5) 1.2838(4) -0.2236(3)
O12 O 0.1852(5) 1.4582(5) -0.1395(3)
O13 O 0.5277(5) 0.2557(5) 0.1093(3)
H1 H 0.5203 0.2766 0.0552
H2 H 0.5334 0.3300 0.1510
O14 O 0.7676(5) -0.1060(5) 0.2651(3)
H3 H 0.7027 -0.1430 0.2904
H4 H 0.8484 -0.1522 0.2751
O15 O 1.0601(6) 0.2743(6) 0.4969(3)
H5 H 1.0194 0.3388 0.5256
H6 H 1.1137 0.2225 0.5336
O16 O 0.9749(6) 0.5266(6) 0.3573(3)
H7 H 1.0160 0.4506 0.3732
H8 H 1.0299 0.5721 0.3295
N1 N 0.3597(5) 0.7927(5) 0.3811(3)
N2 N 0.5379(6) 0.7010(5) 0.5373(3)
N3 N -0.0734(5) 1.2154(5) -0.0759(3)
N4 N 0.1220(6) 1.3191(5) 0.1053(3)
C1 C 0.4598(7) 0.6962(6) 0.3731(4)
C2 C 0.5511(7) 0.6506(6) 0.4540(4)
H9 H 0.6239 0.5822 0.4487
C3 C 0.4362(6) 0.7983(6) 0.5448(4)
C4 C 0.3447(6) 0.8441(6) 0.4642(4)
C5 C 0.4720(7) 0.6509(7) 0.2774(4)
C6 C 0.4303(7) 0.8502(6) 0.6419(4)
C7 C 0.2325(7) 0.9587(6) 0.4612(4)
C8 C -0.0035(6) 1.2147(6) 0.0873(4)
C9 C -0.1020(7) 1.1658(6) -0.0012(4)
C10 C 0.0519(7) 1.3170(6) -0.0598(4)
C11 C 0.1472(7) 1.3705(7) 0.0317(4)
H10 H 0.2330 1.4461 0.0421
C12 C -0.0234(7) 1.1592(6) 0.1747(4)
C13 C -0.2483(7) 1.0484(6) -0.0304(4)
C14 C 0.0780(7) 1.3606(7) -0.1465(4)
Y1A Y -0.23021(7) 1.10332(6) -0.23899(4)
Y1A_2 Y 0.76979(7) 1.10332(6) 0.76101(4)
Na1_2 Na -0.2691(3) 1.3988(3) 0.24064(17)
Na1A Na 0.2691(3) 0.6012(3) 0.75936(17)
Na1A_2 Na 0.2691(3) 1.6012(3) -0.24064(17)
Na2_2 Na -0.3861(3) 1.0296(3) 0.15785(19)
Na2A Na -0.6139(3) 0.9704(3) -0.15785(19)
Na2A_2 Na 0.3861(3) 0.9704(3) 0.84215(19)
Na3_2 Na -0.0672(3) 1.1170(3) 0.36009(18)
Na3A Na 0.0672(3) 0.8830(3) 0.63991(18)
O3A O 0.4585(5) 0.0488(5) 0.3084(3)
O3A_2 O 0.4585(5) 1.0488(5) 0.3084(3)
O4A O 0.6722(5) 0.2090(5) 0.3310(3)
O5A O 0.7784(5) -0.0232(5) 0.4614(3)
O6_2 O 1.1642(5) -0.0148(4) 0.3821(3)
O7_2 O 1.0621(5) 0.0607(5) 0.2007(3)
O8_2 O 0.8814(5) 0.2075(5) 0.2124(3)
O9_2 O 0.7256(5) -0.0137(5) 0.0324(3)
O10A O 0.3240(4) -0.0257(4) 0.1151(2)
O10A_2 O 0.3240(4) 0.9743(4) 0.1151(2)
O11A O 0.0154(5) 0.7162(4) 0.2236(3)
O12A O 0.8148(5) 0.5418(5) 0.1395(3)
N3A N 0.0734(5) 0.7846(5) 0.0759(3)
O17 O 0.7660(6) 0.5861(6) 0.6819(3)
H11 H 0.6961 0.6277 0.6466
H12 H 0.7798 0.6267 0.7384
O18 O 0.5022(7) 0.6644(10) 0.0625(4)
H13 H 0.4555 0.6874 0.1037
H14 H 0.5848 0.6317 0.0933
loop_
_geom_bond_atom_site_label_1
_geom_bond_atom_site_label_2
_geom_bond_site_symmetry_1
_geom_bond_site_symmetry_2
Y1 O1 1_555 1_555
Na1 O2 1_555 1_555
Na2 O13 1_555 1_555
Na3 O14 1_555 1_555
O1 C5 1_555 1_555
O2 C5 1_555 1_555
O3 C6 1_555 1_555
O4 C6 1_555 1_555
O5 C7 1_555 1_555
O6 Y1 1_555 1_555
O7 Y1 1_555 1_555
O8 C12 1_555 1_555
O9 C13 1_555 1_555
O10 C13 1_555 1_555
O11 C14 1_555 1_555
O12 C14 1_555 1_555
O13 Na1 1_555 1_555
H1 O13 1_555 1_555
H2 O13 1_555 1_555
O14 Na2 1_555 1_555
H3 O14 1_555 1_555
H4 O14 1_555 1_555
O15 Na3 1_555 1_555
H5 O15 1_555 1_555
H6 O15 1_555 1_555
O16 Na1 1_555 1_555
H7 O16 1_555 1_555
H8 O16 1_555 1_555
N1 Y1 1_555 1_555
N2 C2 1_555 1_555
N3 C9 1_555 1_555
N4 C8 1_555 1_555
C1 N1 1_555 1_555
C2 C1 1_555 1_555
H9 C2 1_555 1_555
C3 N2 1_555 1_555
C4 N1 1_555 1_555
C5 C1 1_555 1_555
C6 C3 1_555 1_555
C7 O6 1_555 1_555
C8 C9 1_555 1_555
C9 C13 1_555 1_555
C10 N3 1_555 1_555
C11 N4 1_555 1_555
H10 C11 1_555 1_555
C12 O7 1_555 1_555
C14 C10 1_555 1_555
O17 H11 1_555 1_555
H12 O17 1_555 1_555
O18 H13 1_555 1_555
H14 O18 1_555 1_555
Y1A O10 1_555 1_555
Y1A_2 O3 1_555 1_555
Na1_2 O8 1_555 1_555
Na1A O4 1_555 1_555
Na1A_2 O12 1_555 1_555
Na2_2 O8 1_555 1_555
Na2A O10 1_555 1_555
Na2A_2 O3 1_555 1_555
Na3_2 O6 1_555 1_555
Na3A O4 1_555 1_555
O3A Na2 1_555 1_555
O3A_2 Y1 1_555 1_555
O4A Na1 1_555 1_555
O5A Na3 1_555 1_555
O6_2 Na3 1_555 1_555
O7_2 Na3 1_555 1_555
O8_2 Na1 1_555 1_555
O9_2 Na2 1_555 1_555
O10A Na2 1_555 1_555
O10A_2 Y1 1_555 1_555
O11A Y1 1_555 1_555
O12A Na1 1_555 1_555
N3A Y1 1_555 1_555
Na2 O4A 1_555 1_555
Na2 O8_2 1_555 1_555
Na3 O4A 1_555 1_555
Na3 O8_2 1_555 1_555
O4 Na2A_2 1_555 1_555
O5 Na3A 1_555 1_555
O7 Na3_2 1_555 1_555
O8 Na3_2 1_555 1_555
O9 Na2_2 1_555 1_555
O11 Y1A 1_555 1_555
N3 Y1A 1_555 1_555
C3 C4 1_555 1_555
C4 C7 1_555 1_555
C8 C12 1_555 1_555
C10 C11 1_555 1_555

#END
