
#######################################################################
#
#                 Cambridge Crystallographic Data Centre
#                                CCDC 
#
#######################################################################
#
# If this CIF has been generated from an entry in the Cambridge 
# Structural Database, then it will include bibliographic, chemical, 
# crystal, experimental, refinement or atomic coordinate data resulting 
# from the CCDC's data processing and validation procedures.
#
#######################################################################

data_GOPGEZ
_symmetry_cell_setting           triclinic
_symmetry_space_group_name_H-M   'P -1'
_symmetry_Int_Tables_number      2
_space_group_name_Hall           '-P 1'
loop_
_symmetry_equiv_pos_site_id
_symmetry_equiv_pos_as_xyz
1 x,y,z
2 -x,-y,-z
_cell_length_a                   8.8391(7)
_cell_length_b                   9.2446(7)
_cell_length_c                   15.0589(12)
_cell_angle_alpha                98.2180(10)
_cell_angle_beta                 106.5300(10)
_cell_angle_gamma                94.7320(10)
_cell_volume                     1157.67
loop_
_atom_site_label
_atom_site_type_symbol
_atom_site_fract_x
_atom_site_fract_y
_atom_site_fract_z
Ho1 Ho 0.23019(4) 0.89630(4) 0.23887(2)
Na1 Na 0.7316(4) 0.3991(3) 0.2414(2)
Na2 Na 0.6140(4) 0.0302(5) 0.1586(3)
Na3 Na 0.9332(4) 0.1167(5) 0.3593(2)
O1 O 0.3786(7) 0.7060(7) 0.2122(4)
O2 O 0.5659(9) 0.5658(8) 0.2652(5)
O3 O 0.5390(7) 0.9509(7) 0.6911(4)
O4 O 0.3274(6) 0.7910(7) 0.6698(4)
O5 O 0.2200(7) 1.0225(7) 0.5374(4)
O6 O 0.1636(6) 0.9859(6) 0.3817(4)
O7 O 0.0623(7) 1.0594(7) 0.1999(4)
O8 O -0.1185(7) 1.2072(7) 0.2124(4)
O9 O -0.2753(7) 0.9863(7) 0.0318(4)
O10 O -0.3247(6) 1.0245(6) -0.1168(4)
O11 O -0.0155(6) 1.2858(6) -0.2243(4)
O12 O 0.1848(7) 1.4581(7) -0.1395(4)
O13 O 0.5285(7) 0.2564(8) 0.1106(5)
H1 H 0.5210 0.2773 0.0565
H2 H 0.5342 0.3306 0.1523
O14 O 0.7703(8) -0.1047(7) 0.2655(5)
H3 H 0.7054 -0.1418 0.2909
H4 H 0.8511 -0.1510 0.2755
O15 O 1.0593(9) 0.2744(8) 0.4955(5)
H5 H 1.0186 0.3390 0.5242
H6 H 1.1129 0.2227 0.5322
O16 O 0.9765(9) 0.5280(9) 0.3578(5)
H7 H 1.0176 0.4520 0.3737
H8 H 1.0315 0.5735 0.3300
N1 N 0.3581(7) 0.7926(7) 0.3798(4)
N2 N 0.5382(8) 0.6995(7) 0.5371(5)
N3 N -0.0718(7) 1.2163(7) -0.0746(4)
N4 N 0.1226(8) 1.3201(7) 0.1060(5)
C1 C 0.4599(9) 0.6975(8) 0.3733(5)
C2 C 0.5512(10) 0.6500(9) 0.4525(6)
H9 H 0.6220 0.5830 0.4464
C3 C 0.4362(9) 0.7980(8) 0.5442(5)
C4 C 0.3448(9) 0.8452(9) 0.4640(5)
C5 C 0.4692(11) 0.6473(10) 0.2776(6)
C6 C 0.4292(9) 0.8493(9) 0.6428(5)
C7 C 0.2338(9) 0.9613(9) 0.4625(5)
C8 C -0.0026(9) 1.2171(8) 0.0895(5)
C9 C -0.1028(9) 1.1648(8) -0.0022(5)
C10 C 0.0524(9) 1.3161(8) -0.0601(6)
C11 C 0.1472(9) 1.3713(9) 0.0323(6)
H10 H 0.2303 1.4463 0.0426
C12 C -0.0236(9) 1.1575(8) 0.1733(5)
C13 C -0.2472(9) 1.0481(9) -0.0302(6)
C14 C 0.0791(9) 1.3600(9) -0.1470(6)
Ho1A Ho -0.23019(4) 1.10370(4) -0.23887(2)
Ho1A_2 Ho 0.76981(4) 1.10370(4) 0.76113(2)
Na1_2 Na -0.2684(4) 1.3991(3) 0.2414(2)
Na1A Na 0.2684(4) 0.6009(3) 0.7586(2)
Na1A_2 Na 0.2684(4) 1.6009(3) -0.2414(2)
Na2_2 Na -0.3860(4) 1.0302(5) 0.1586(3)
Na2A Na -0.6140(4) 0.9698(5) -0.1586(3)
Na2A_2 Na 0.3860(4) 0.9698(5) 0.8414(3)
Na3_2 Na -0.0668(4) 1.1167(5) 0.3593(2)
Na3A Na 0.0668(4) 0.8833(5) 0.6407(2)
O3A O 0.4610(7) 0.0491(7) 0.3089(4)
O3A_2 O 0.4610(7) 1.0491(7) 0.3089(4)
O4A O 0.6726(6) 0.2090(7) 0.3302(4)
O5A O 0.7800(7) -0.0225(7) 0.4626(4)
O6_2 O 1.1636(6) -0.0141(6) 0.3817(4)
O7_2 O 1.0623(7) 0.0594(7) 0.1999(4)
O8_2 O 0.8815(7) 0.2072(7) 0.2124(4)
O9_2 O 0.7247(7) -0.0137(7) 0.0318(4)
O10A O 0.3247(6) -0.0245(6) 0.1168(4)
O10A_2 O 0.3247(6) 0.9755(6) 0.1168(4)
O11A O 0.0155(6) 0.7142(6) 0.2243(4)
O12A O 0.8152(7) 0.5419(7) 0.1395(4)
N3A N 0.0718(7) 0.7837(7) 0.0746(4)
O17 O 0.7652(8) 0.5851(9) 0.6830(5)
H11 H 0.6953 0.6267 0.6477
H12 H 0.7790 0.6257 0.7395
O18 O 0.5039(11) 0.6653(14) 0.0638(6)
H13 H 0.4572 0.6883 0.1049
H14 H 0.5865 0.6326 0.0945
loop_
_geom_bond_atom_site_label_1
_geom_bond_atom_site_label_2
_geom_bond_site_symmetry_1
_geom_bond_site_symmetry_2
Ho1 O1 1_555 1_555
Na1 O2 1_555 1_555
Na2 O13 1_555 1_555
Na3 O14 1_555 1_555
O1 C5 1_555 1_555
O2 C5 1_555 1_555
O3 C6 1_555 1_555
O4 C6 1_555 1_555
O5 C7 1_555 1_555
O6 Ho1 1_555 1_555
O7 Ho1 1_555 1_555
O8 C12 1_555 1_555
O9 C13 1_555 1_555
O10 C13 1_555 1_555
O11 C14 1_555 1_555
O12 C14 1_555 1_555
O13 Na1 1_555 1_555
H1 O13 1_555 1_555
H2 O13 1_555 1_555
O14 Na2 1_555 1_555
H3 O14 1_555 1_555
H4 O14 1_555 1_555
O15 Na3 1_555 1_555
H5 O15 1_555 1_555
H6 O15 1_555 1_555
O16 Na1 1_555 1_555
H7 O16 1_555 1_555
H8 O16 1_555 1_555
N1 Ho1 1_555 1_555
N2 C2 1_555 1_555
N3 C9 1_555 1_555
N4 C8 1_555 1_555
C1 N1 1_555 1_555
C2 C1 1_555 1_555
H9 C2 1_555 1_555
C3 N2 1_555 1_555
C4 N1 1_555 1_555
C5 C1 1_555 1_555
C6 C3 1_555 1_555
C7 O6 1_555 1_555
C8 C9 1_555 1_555
C9 C13 1_555 1_555
C10 N3 1_555 1_555
C11 N4 1_555 1_555
H10 C11 1_555 1_555
C12 O7 1_555 1_555
C14 C10 1_555 1_555
O17 H11 1_555 1_555
H12 O17 1_555 1_555
O18 H13 1_555 1_555
H14 O18 1_555 1_555
Ho1A O10 1_555 1_555
Ho1A_2 O3 1_555 1_555
Na1_2 O8 1_555 1_555
Na1A O4 1_555 1_555
Na1A_2 O12 1_555 1_555
Na2_2 O8 1_555 1_555
Na2A O10 1_555 1_555
Na2A_2 O3 1_555 1_555
Na3_2 O6 1_555 1_555
Na3A O4 1_555 1_555
O3A Na2 1_555 1_555
O3A_2 Ho1 1_555 1_555
O4A Na1 1_555 1_555
O5A Na3 1_555 1_555
O6_2 Na3 1_555 1_555
O7_2 Na3 1_555 1_555
O8_2 Na1 1_555 1_555
O9_2 Na2 1_555 1_555
O10A Na2 1_555 1_555
O10A_2 Ho1 1_555 1_555
O11A Ho1 1_555 1_555
O12A Na1 1_555 1_555
N3A Ho1 1_555 1_555
Na2 O4A 1_555 1_555
Na2 O8_2 1_555 1_555
Na3 O4A 1_555 1_555
Na3 O8_2 1_555 1_555
O4 Na2A_2 1_555 1_555
O5 Na3A 1_555 1_555
O7 Na3_2 1_555 1_555
O8 Na3_2 1_555 1_555
O9 Na2_2 1_555 1_555
O11 Ho1A 1_555 1_555
N3 Ho1A 1_555 1_555
C3 C4 1_555 1_555
C4 C7 1_555 1_555
C8 C12 1_555 1_555
C10 C11 1_555 1_555

#END
