
#######################################################################
#
#                 Cambridge Crystallographic Data Centre
#                                CCDC 
#
#######################################################################
#
# If this CIF has been generated from an entry in the Cambridge 
# Structural Database, then it will include bibliographic, chemical, 
# crystal, experimental, refinement or atomic coordinate data resulting 
# from the CCDC's data processing and validation procedures.
#
#######################################################################

data_GOPTIQ
_symmetry_cell_setting           monoclinic
_symmetry_space_group_name_H-M   'P 21/n'
_symmetry_Int_Tables_number      14
_space_group_name_Hall           '-P 2yn'
loop_
_symmetry_equiv_pos_site_id
_symmetry_equiv_pos_as_xyz
1 x,y,z
2 1/2-x,1/2+y,1/2-z
3 -x,-y,-z
4 1/2+x,1/2-y,1/2+z
_cell_length_a                   14.649(2)
_cell_length_b                   13.470(2)
_cell_length_c                   24.399(4)
_cell_angle_alpha                90
_cell_angle_beta                 106.607(3)
_cell_angle_gamma                90
_cell_volume                     4613.64
loop_
_atom_site_label
_atom_site_type_symbol
_atom_site_fract_x
_atom_site_fract_y
_atom_site_fract_z
C1 C 0.3975(2) 0.2920(3) 0.60994(13)
C2 C 0.29925(19) 0.2610(2) 0.57657(11)
C3 C 0.2609(2) 0.1706(2) 0.58467(12)
H1 H 0.2970 0.1262 0.6114
C4 C 0.1695(2) 0.1450(2) 0.55343(12)
H2 H 0.1441 0.0845 0.5603
C5 C 0.11522(17) 0.2080(2) 0.51221(10)
C6 C 0.15414(19) 0.2978(2) 0.50303(11)
H3 H 0.1190 0.3408 0.4751
C7 C 0.2452(2) 0.3240(2) 0.53510(12)
H4 H 0.2703 0.3849 0.5287
C8 C 0.16497(17) 0.2172(2) 0.24785(10)
C9 C 0.11423(16) 0.2130(2) 0.29331(10)
C10 C 0.15213(18) 0.1564(2) 0.34174(11)
H5 H 0.2085 0.1218 0.3455
C11 C 0.10824(18) 0.1501(2) 0.38438(11)
H6 H 0.1348 0.1108 0.4163
C12 C 0.02469(17) 0.2018(2) 0.38021(10)
C13 C -0.01250(18) 0.2596(2) 0.33203(11)
H7 H -0.0679 0.2957 0.3288
C14 C 0.03078(17) 0.2650(2) 0.28877(11)
H8 H 0.0039 0.3034 0.2565
C15 C -0.02866(17) 0.1863(2) 0.42288(10)
C16 C -0.12550(18) 0.1671(2) 0.40227(11)
H9 H -0.1530 0.1699 0.3629
C17 C -0.18429(17) 0.1440(2) 0.43616(11)
C18 C -0.14247(18) 0.1399(2) 0.49586(11)
C19 C -0.04512(18) 0.1591(2) 0.51665(11)
H10 H -0.0173 0.1554 0.5560
C20 C 0.01280(17) 0.1833(2) 0.48272(10)
C21 C -0.1907(2) 0.1188(2) 0.54203(13)
C22 C -0.2876(2) 0.1254(2) 0.40218(13)
C23 C 0.3380(2) -0.0357(2) 0.35446(11)
H11 H 0.3006 -0.0746 0.3711
C24 C 0.3205(2) -0.0126(2) 0.29869(11)
H12 H 0.2677 -0.0339 0.2699
C25 C 0.45059(18) 0.0595(2) 0.34173(10)
H13 H 0.5054 0.0982 0.3494
C26 C 0.46396(18) 0.0078(2) 0.44241(10)
C27 C 0.5122(2) -0.0766(2) 0.46587(11)
H14 H 0.5193 -0.1281 0.4420
C28 C 0.4494(2) 0.0861(2) 0.47524(11)
C29 C 0.3931(3) 0.1761(3) 0.45058(15)
H15 H 0.4093 0.1963 0.4168
H16 H 0.4076 0.2289 0.4782
H17 H 0.3264 0.1611 0.4409
C30 C 0.29926(19) -0.0389(2) 0.15311(12)
H18 H 0.3559 -0.0712 0.1713
C31 C 0.2335(2) -0.0732(2) 0.10641(12)
H19 H 0.2359 -0.1317 0.0867
C32 C 0.18762(18) 0.0680(2) 0.13366(10)
H20 H 0.1506 0.1235 0.1351
C33 C 0.07952(19) -0.0010(2) 0.04500(11)
C34 C 0.0718(2) 0.0731(3) 0.00508(12)
C35 C 0.1463(3) 0.1512(3) 0.00862(16)
H21 H 0.1436 0.1991 0.0372
H22 H 0.1348 0.1836 -0.0278
H23 H 0.2081 0.1208 0.0187
C36 C 0.0111(2) -0.0719(2) 0.04069(11)
H24 H 0.0200 -0.1203 0.0689
C37 C 0.53515(17) 0.0598(2) 0.20479(11)
H25 H 0.5438 0.0163 0.2354
C38 C 0.5578(2) 0.1382(3) 0.13252(15)
H26 H 0.5834 0.1601 0.1039
C39 C 0.4789(2) 0.1721(3) 0.14327(13)
H27 H 0.4398 0.2219 0.1227
C40 C 0.7496(2) 0.0170(2) 0.23009(13)
H28 H 0.7371 0.0527 0.2598
C41 C 0.68104(18) 0.0113(2) 0.17805(12)
C42 C 0.69354(18) -0.0425(2) 0.13241(12)
C43 C 0.78154(19) -0.0881(2) 0.14115(12)
H29 H 0.7936 -0.1245 0.1116
C44 C 0.85123(18) -0.0808(2) 0.19248(12)
C45 C 0.8372(2) -0.0300(2) 0.23882(13)
C46 C 0.9125(2) -0.0241(3) 0.29574(16)
H30 H 0.9280 -0.0899 0.3107
H31 H 0.8889 0.0142 0.3219
H32 H 0.9686 0.0070 0.2908
C47 C 0.6176(2) -0.0553(3) 0.07591(13)
H33 H 0.5563 -0.0608 0.0826
H34 H 0.6302 -0.1143 0.0573
H35 H 0.6180 0.0012 0.0520
C48 C 0.96934(18) -0.2162(2) 0.22111(13)
H36 H 0.9293 -0.2601 0.2325
C49 C 1.0191(2) -0.0852(3) 0.18734(14)
H37 H 1.0223 -0.0230 0.1715
C50 C 1.09030(19) -0.1523(2) 0.20411(13)
H38 H 1.1518 -0.1436 0.2013
N1 N 1.05894(14) -0.23453(17) 0.22567(9)
N2 N 0.94199(15) -0.12719(17) 0.19832(10)
N3 N 0.59377(15) 0.06539(18) 0.17167(10)
N4 N 0.46429(14) 0.12272(17) 0.18907(9)
N5 N 0.39178(14) 0.04695(17) 0.29037(8)
N6 N 0.42240(15) 0.01022(17) 0.38168(8)
N7 N 0.27109(14) 0.04970(17) 0.16999(8)
N8 N 0.16259(15) -0.00394(19) 0.09409(9)
Ni1 Ni 0.35576(2) 0.15309(2) 0.226045(12)
O1 O 0.25046(11) 0.19106(15) 0.26344(7)
O2 O 0.12154(12) 0.24469(16) 0.19823(7)
O3 O 0.43071(19) 0.3707(2) 0.60464(13)
O4 O 0.44344(14) 0.22239(19) 0.64527(9)
H39 H 0.4973 0.2419 0.6619
O5 O -0.14274(15) 0.12366(17) 0.59240(8)
O6 O -0.27788(17) 0.0986(3) 0.52813(10)
O7 O -0.34903(16) 0.1121(3) 0.42769(11)
H40 H -0.3233 0.1100 0.4623
O8 O -0.30887(15) 0.1225(2) 0.35032(10)
O9 O 0.29161(13) 0.26130(16) 0.16403(9)
H41 H 0.2428(12) 0.277(2) 0.1720(13)
H42 H 0.3145(19) 0.3052(16) 0.1487(14)
C23B C 0.6620(2) 0.0357(2) 0.64554(11)
H11B H 0.6994 0.0746 0.6289
C24B C 0.6795(2) 0.0126(2) 0.70131(11)
H12B H 0.7323 0.0339 0.7301
C25B C 0.54941(18) -0.0595(2) 0.65827(10)
H13B H 0.4946 -0.0982 0.6506
C26B C 0.53604(18) -0.0078(2) 0.55759(10)
C27B C 0.4878(2) 0.0766(2) 0.53413(11)
H14B H 0.4807 0.1281 0.5580
C28B C 0.5506(2) -0.0861(2) 0.52476(11)
C29B C 0.6069(3) -0.1761(3) 0.54942(15)
H15B H 0.5907 -0.1963 0.5832
H16B H 0.5924 -0.2289 0.5218
H17B H 0.6736 -0.1611 0.5591
N5B N 0.60822(14) -0.04695(17) 0.70963(8)
N6B N 0.57760(15) -0.01022(17) 0.61832(8)
C30B C -0.29926(19) 0.0389(2) -0.15311(12)
H18B H -0.3559 0.0712 -0.1713
C31B C -0.2335(2) 0.0732(2) -0.10641(12)
H19B H -0.2359 0.1317 -0.0867
C32B C -0.18762(18) -0.0680(2) -0.13366(10)
H20B H -0.1506 -0.1235 -0.1351
C33B C -0.07952(19) 0.0010(2) -0.04500(11)
C34B C -0.0718(2) -0.0731(3) -0.00508(12)
C35B C -0.1463(3) -0.1512(3) -0.00862(16)
H21B H -0.1436 -0.1991 -0.0372
H22B H -0.1348 -0.1836 0.0278
H23B H -0.2081 -0.1208 -0.0187
C36B C -0.0111(2) 0.0719(2) -0.04069(11)
H24B H -0.0200 0.1203 -0.0689
N7B N -0.27109(14) -0.04970(17) -0.16999(8)
N8B N -0.16259(15) 0.00394(19) -0.09409(9)
C1B C -0.3975(2) -0.2920(3) -0.60994(13)
C2B C -0.29925(19) -0.2610(2) -0.57657(11)
C3B C -0.2609(2) -0.1706(2) -0.58467(12)
H1B H -0.2970 -0.1262 -0.6114
C4B C -0.1695(2) -0.1450(2) -0.55343(12)
H2B H -0.1441 -0.0845 -0.5603
C5B C -0.11522(17) -0.2080(2) -0.51221(10)
C6B C -0.15414(19) -0.2978(2) -0.50303(11)
H3B H -0.1190 -0.3408 -0.4751
C7B C -0.2452(2) -0.3240(2) -0.53510(12)
H4B H -0.2703 -0.3849 -0.5287
C8B C -0.16497(17) -0.2172(2) -0.24785(10)
C9B C -0.11423(16) -0.2130(2) -0.29331(10)
C10B C -0.15213(18) -0.1564(2) -0.34174(11)
H5B H -0.2085 -0.1218 -0.3455
C11B C -0.10824(18) -0.1501(2) -0.38438(11)
H6B H -0.1348 -0.1108 -0.4163
C12B C -0.02469(17) -0.2018(2) -0.38021(10)
C13B C 0.01250(18) -0.2596(2) -0.33203(11)
H7B H 0.0679 -0.2957 -0.3288
C14B C -0.03078(17) -0.2650(2) -0.28877(11)
H8B H -0.0039 -0.3034 -0.2565
C15B C 0.02866(17) -0.1863(2) -0.42288(10)
C16B C 0.12550(18) -0.1671(2) -0.40227(11)
H9B H 0.1530 -0.1699 -0.3629
C17B C 0.18429(17) -0.1440(2) -0.43616(11)
C18B C 0.14247(18) -0.1399(2) -0.49586(11)
C19B C 0.04512(18) -0.1591(2) -0.51665(11)
H10B H 0.0173 -0.1554 -0.5560
C20B C -0.01280(17) -0.1833(2) -0.48272(10)
C21B C 0.1907(2) -0.1188(2) -0.54203(13)
C22B C 0.2876(2) -0.1254(2) -0.40218(13)
C37B C -0.53515(17) -0.0598(2) -0.20479(11)
H25B H -0.5438 -0.0163 -0.2354
C38B C -0.5578(2) -0.1382(3) -0.13252(15)
H26B H -0.5834 -0.1601 -0.1039
C39B C -0.4789(2) -0.1721(3) -0.14327(13)
H27B H -0.4398 -0.2219 -0.1227
C40B C -0.7496(2) -0.0170(2) -0.23009(13)
H28B H -0.7371 -0.0527 -0.2598
C41B C -0.68104(18) -0.0113(2) -0.17805(12)
C42B C -0.69354(18) 0.0425(2) -0.13241(12)
C43B C -0.78154(19) 0.0881(2) -0.14115(12)
H29B H -0.7936 0.1245 -0.1116
C44B C -0.85123(18) 0.0808(2) -0.19248(12)
C45B C -0.8372(2) 0.0300(2) -0.23882(13)
C46B C -0.9125(2) 0.0241(3) -0.29574(16)
H30B H -0.9280 0.0899 -0.3107
H31B H -0.8889 -0.0142 -0.3219
H32B H -0.9686 -0.0070 -0.2908
C47B C -0.6176(2) 0.0553(3) -0.07591(13)
H33B H -0.5563 0.0608 -0.0826
H34B H -0.6302 0.1143 -0.0573
H35B H -0.6180 -0.0012 -0.0520
C48B C -0.96934(18) 0.2162(2) -0.22111(13)
H36B H -0.9293 0.2601 -0.2325
C49B C -1.0191(2) 0.0852(3) -0.18734(14)
H37B H -1.0223 0.0230 -0.1715
C50B C -1.09030(19) 0.1523(2) -0.20411(13)
H38B H -1.1518 0.1436 -0.2013
N1B N -1.05894(14) 0.23453(17) -0.22567(9)
N2B N -0.94199(15) 0.12719(17) -0.19832(10)
N3B N -0.59377(15) -0.06539(18) -0.17167(10)
N4B N -0.46429(14) -0.12272(17) -0.18907(9)
Ni1B Ni -0.35576(2) -0.15309(2) -0.226045(12)
O1B O -0.25046(11) -0.19106(15) -0.26344(7)
O2B O -0.12154(12) -0.24469(16) -0.19823(7)
O3B O -0.43071(19) -0.3707(2) -0.60464(13)
O4B O -0.44344(14) -0.22239(19) -0.64527(9)
H39B H -0.4973 -0.2419 -0.6619
O5B O 0.14274(15) -0.12366(17) -0.59240(8)
O6B O 0.27788(17) -0.0986(3) -0.52813(10)
O7B O 0.34903(16) -0.1121(3) -0.42769(11)
H40B H 0.3233 -0.1100 -0.4623
O8B O 0.30887(15) -0.1225(2) -0.35032(10)
O9B O -0.29161(13) -0.26130(16) -0.16403(9)
H41B H -0.2428(12) -0.277(2) -0.1720(13)
H42B H -0.3145(19) -0.3052(16) -0.1487(14)
N1A N 0.44106(14) 0.26547(17) 0.27433(9)
N1C N -0.44106(14) -0.26547(17) -0.27433(9)
N5B_2 N -0.39178(14) -0.04695(17) -0.29037(8)
Ni1A Ni 1.14424(2) -0.34691(2) 0.273955(12)
Ni1B_2 Ni 0.64424(2) -0.15309(2) 0.773955(12)
Ni1C Ni -1.14424(2) 0.34691(2) -0.273955(12)
loop_
_geom_bond_atom_site_label_1
_geom_bond_atom_site_label_2
_geom_bond_site_symmetry_1
_geom_bond_site_symmetry_2
C1 C2 1_555 1_555
C2 C3 1_555 1_555
C3 H1 1_555 1_555
C4 C3 1_555 1_555
H2 C4 1_555 1_555
C5 C4 1_555 1_555
C6 C5 1_555 1_555
H3 C6 1_555 1_555
C7 C2 1_555 1_555
H4 C7 1_555 1_555
C8 C9 1_555 1_555
C9 C10 1_555 1_555
C10 H5 1_555 1_555
C11 C10 1_555 1_555
H6 C11 1_555 1_555
C12 C11 1_555 1_555
C13 C12 1_555 1_555
H7 C13 1_555 1_555
C14 C9 1_555 1_555
H8 C14 1_555 1_555
C15 C12 1_555 1_555
C16 C15 1_555 1_555
H9 C16 1_555 1_555
C17 C16 1_555 1_555
C18 C17 1_555 1_555
C19 C18 1_555 1_555
H10 C19 1_555 1_555
C20 C5 1_555 1_555
C21 C18 1_555 1_555
C22 C17 1_555 1_555
C23 H11 1_555 1_555
C24 C23 1_555 1_555
H12 C24 1_555 1_555
C25 H13 1_555 1_555
C26 C27 1_555 1_555
C27 H14 1_555 1_555
C28 C26 1_555 1_555
C29 C28 1_555 1_555
H15 C29 1_555 1_555
H16 C29 1_555 1_555
H17 C29 1_555 1_555
C30 H18 1_555 1_555
C31 C30 1_555 1_555
H19 C31 1_555 1_555
C32 H20 1_555 1_555
C33 C34 1_555 1_555
C34 C35 1_555 1_555
C35 H21 1_555 1_555
H22 C35 1_555 1_555
H23 C35 1_555 1_555
C36 C33 1_555 1_555
H24 C36 1_555 1_555
C37 H25 1_555 1_555
C38 H26 1_555 1_555
C39 C38 1_555 1_555
H27 C39 1_555 1_555
C40 H28 1_555 1_555
C41 C40 1_555 1_555
C42 C41 1_555 1_555
C43 C42 1_555 1_555
H29 C43 1_555 1_555
C44 C43 1_555 1_555
C45 C40 1_555 1_555
C46 C45 1_555 1_555
H30 C46 1_555 1_555
H31 C46 1_555 1_555
H32 C46 1_555 1_555
C47 C42 1_555 1_555
H33 C47 1_555 1_555
H34 C47 1_555 1_555
H35 C47 1_555 1_555
C48 H36 1_555 1_555
C49 H37 1_555 1_555
C50 C49 1_555 1_555
H38 C50 1_555 1_555
N1 C48 1_555 1_555
N2 C44 1_555 1_555
N3 C37 1_555 1_555
N4 C37 1_555 1_555
N5 C24 1_555 1_555
N6 C23 1_555 1_555
N7 C30 1_555 1_555
N8 C31 1_555 1_555
Ni1 N4 1_555 1_555
O1 C8 1_555 1_555
O2 C8 1_555 1_555
O3 C1 1_555 1_555
O4 C1 1_555 1_555
H39 O4 1_555 1_555
O5 C21 1_555 1_555
O6 C21 1_555 1_555
O7 C22 1_555 1_555
H40 O7 1_555 1_555
O8 C22 1_555 1_555
O9 Ni1 1_555 1_555
H41 O9 1_555 1_555
H42 O9 1_555 1_555
C23B H11B 1_555 1_555
C24B C23B 1_555 1_555
H12B C24B 1_555 1_555
C25B H13B 1_555 1_555
C26B C27B 1_555 1_555
C27B C28 1_555 1_555
H14B C27B 1_555 1_555
C28B C27 1_555 1_555
C29B C28B 1_555 1_555
H15B C29B 1_555 1_555
H16B C29B 1_555 1_555
H17B C29B 1_555 1_555
N5B C24B 1_555 1_555
N6B C23B 1_555 1_555
C30B H18B 1_555 1_555
C31B C30B 1_555 1_555
H19B C31B 1_555 1_555
C32B H20B 1_555 1_555
C33B C34B 1_555 1_555
C34B C36 1_555 1_555
C35B C34B 1_555 1_555
H21B C35B 1_555 1_555
H22B C35B 1_555 1_555
H23B C35B 1_555 1_555
C36B C34 1_555 1_555
H24B C36B 1_555 1_555
N7B C30B 1_555 1_555
N8B C31B 1_555 1_555
C1B C2B 1_555 1_555
C2B C3B 1_555 1_555
C3B H1B 1_555 1_555
C4B C3B 1_555 1_555
H2B C4B 1_555 1_555
C5B C4B 1_555 1_555
C6B C5B 1_555 1_555
H3B C6B 1_555 1_555
C7B C2B 1_555 1_555
H4B C7B 1_555 1_555
C8B C9B 1_555 1_555
C9B C10B 1_555 1_555
C10B H5B 1_555 1_555
C11B C10B 1_555 1_555
H6B C11B 1_555 1_555
C12B C11B 1_555 1_555
C13B C12B 1_555 1_555
H7B C13B 1_555 1_555
C14B C9B 1_555 1_555
H8B C14B 1_555 1_555
C15B C12B 1_555 1_555
C16B C15B 1_555 1_555
H9B C16B 1_555 1_555
C17B C16B 1_555 1_555
C18B C17B 1_555 1_555
C19B C18B 1_555 1_555
H10B C19B 1_555 1_555
C20B C5B 1_555 1_555
C21B C18B 1_555 1_555
C22B C17B 1_555 1_555
C37B H25B 1_555 1_555
C38B H26B 1_555 1_555
C39B C38B 1_555 1_555
H27B C39B 1_555 1_555
C40B H28B 1_555 1_555
C41B C40B 1_555 1_555
C42B C41B 1_555 1_555
C43B C42B 1_555 1_555
H29B C43B 1_555 1_555
C44B C43B 1_555 1_555
C45B C40B 1_555 1_555
C46B C45B 1_555 1_555
H30B C46B 1_555 1_555
H31B C46B 1_555 1_555
H32B C46B 1_555 1_555
C47B C42B 1_555 1_555
H33B C47B 1_555 1_555
H34B C47B 1_555 1_555
H35B C47B 1_555 1_555
C48B H36B 1_555 1_555
C49B H37B 1_555 1_555
C50B C49B 1_555 1_555
H38B C50B 1_555 1_555
N1B C48B 1_555 1_555
N2B C44B 1_555 1_555
N3B C37B 1_555 1_555
N4B C37B 1_555 1_555
Ni1B N7B 1_555 1_555
O1B C8B 1_555 1_555
O2B C8B 1_555 1_555
O3B C1B 1_555 1_555
O4B C1B 1_555 1_555
H39B O4B 1_555 1_555
O5B C21B 1_555 1_555
O6B C21B 1_555 1_555
O7B C22B 1_555 1_555
H40B O7B 1_555 1_555
O8B C22B 1_555 1_555
O9B Ni1B 1_555 1_555
H41B O9B 1_555 1_555
H42B O9B 1_555 1_555
N1A Ni1 1_555 1_555
N1C Ni1B 1_555 1_555
N5B_2 Ni1B 1_555 1_555
Ni1A N1 1_555 1_555
Ni1B_2 N5B 1_555 1_555
Ni1C N1B 1_555 1_555
C6 C7 1_555 1_555
C13 C14 1_555 1_555
C15 C20 1_555 1_555
C19 C20 1_555 1_555
C25 N5 1_555 1_555
C25 N6 1_555 1_555
C26 N6 1_555 1_555
C32 N7 1_555 1_555
C32 N8 1_555 1_555
C33 N8 1_555 1_555
C38 N3 1_555 1_555
C39 N4 1_555 1_555
C41 N3 1_555 1_555
C44 C45 1_555 1_555
C48 N2 1_555 1_555
C49 N2 1_555 1_555
C50 N1 1_555 1_555
N5 Ni1 1_555 1_555
N7 Ni1 1_555 1_555
Ni1 O1 1_555 1_555
C25B N5B 1_555 1_555
C25B N6B 1_555 1_555
C26B C28B 1_555 1_555
C26B N6B 1_555 1_555
C32B N7B 1_555 1_555
C32B N8B 1_555 1_555
C33B C36B 1_555 1_555
C33B N8B 1_555 1_555
C6B C7B 1_555 1_555
C13B C14B 1_555 1_555
C15B C20B 1_555 1_555
C19B C20B 1_555 1_555
C38B N3B 1_555 1_555
C39B N4B 1_555 1_555
C41B N3B 1_555 1_555
C44B C45B 1_555 1_555
C48B N2B 1_555 1_555
C49B N2B 1_555 1_555
C50B N1B 1_555 1_555
N4B Ni1B 1_555 1_555
Ni1B O1B 1_555 1_555

#END
