
#######################################################################
#
#                 Cambridge Crystallographic Data Centre
#                                CCDC 
#
#######################################################################
#
# If this CIF has been generated from an entry in the Cambridge 
# Structural Database, then it will include bibliographic, chemical, 
# crystal, experimental, refinement or atomic coordinate data resulting 
# from the CCDC's data processing and validation procedures.
#
#######################################################################

data_GOPVUE
_symmetry_cell_setting           monoclinic
_symmetry_space_group_name_H-M   'P 21/n'
_symmetry_Int_Tables_number      14
_space_group_name_Hall           '-P 2yn'
loop_
_symmetry_equiv_pos_site_id
_symmetry_equiv_pos_as_xyz
1 x,y,z
2 1/2-x,1/2+y,1/2-z
3 -x,-y,-z
4 1/2+x,1/2-y,1/2+z
_cell_length_a                   7.019(3)
_cell_length_b                   28.604(3)
_cell_length_c                   5.964(3)
_cell_angle_alpha                90
_cell_angle_beta                 91.808(8)
_cell_angle_gamma                90
_cell_volume                     1196.8
loop_
_atom_site_label
_atom_site_type_symbol
_atom_site_fract_x
_atom_site_fract_y
_atom_site_fract_z
C1 C 0.5540(6) 0.21362(17) -0.0011(7)
C2 C 0.3701(6) 0.18991(16) -0.0979(7)
H1 H 0.3663 0.1957 -0.2600
C3 C 0.1966(6) 0.21567(17) -0.0013(7)
C4 C 0.3597(6) 0.13757(16) -0.0667(8)
C5 C 0.4033(6) 0.11613(18) 0.1399(8)
H2 H 0.4455 0.1342 0.2612
C6 C 0.3842(7) 0.06835(18) 0.1650(8)
H3 H 0.4143 0.0544 0.3026
C7 C 0.3203(7) 0.04103(18) -0.0144(9)
H4 H 0.3060 0.0089 0.0028
C8 C 0.2780(7) 0.06189(18) -0.2183(9)
H5 H 0.2361 0.0437 -0.3394
C9 C 0.2977(6) 0.10984(18) -0.2438(8)
H6 H 0.2687 0.1235 -0.3822
C10 C 0.3026(7) 0.37239(18) 0.1385(8)
H7 H 0.2714 0.3485 0.2367
C11 C 0.2700(7) 0.41813(19) 0.1993(9)
H8 H 0.2142 0.4240 0.3358
C12 C 0.3945(7) 0.44301(18) -0.1258(9)
H9 H 0.4306 0.4669 -0.2212
C13 C 0.4234(6) 0.39755(18) -0.1892(8)
H10 H 0.4761 0.3917 -0.3275
Cu1 Cu 0.37898(7) 0.28923(2) -0.20659(10)
N1 N 0.3785(5) 0.36132(14) -0.0592(7)
N2 N 0.3153(6) 0.45420(15) 0.0701(7)
O1 O 0.6780(4) 0.18737(12) 0.0887(5)
O2 O 0.5719(4) 0.25688(12) -0.0210(6)
O3 O 0.0771(4) 0.19046(12) 0.0925(6)
O4 O 0.1844(4) 0.25912(11) -0.0226(5)
Cu1C Cu -0.12102(7) 0.21077(2) 0.29341(10)
Cu1C_2 Cu 0.87898(7) 0.21077(2) 0.29341(10)
O1C O 0.1780(4) 0.31263(12) -0.4113(5)
O3C O 0.5771(4) 0.30954(12) -0.4075(6)
loop_
_geom_bond_atom_site_label_1
_geom_bond_atom_site_label_2
_geom_bond_site_symmetry_1
_geom_bond_site_symmetry_2
C1 C2 1_555 1_555
C2 H1 1_555 1_555
C3 C2 1_555 1_555
C4 C2 1_555 1_555
C5 C4 1_555 1_555
H2 C5 1_555 1_555
C6 C5 1_555 1_555
H3 C6 1_555 1_555
C7 C6 1_555 1_555
H4 C7 1_555 1_555
C8 C7 1_555 1_555
H5 C8 1_555 1_555
C9 C4 1_555 1_555
H6 C9 1_555 1_555
C10 H7 1_555 1_555
C11 C10 1_555 1_555
H8 C11 1_555 1_555
C12 H9 1_555 1_555
C13 C12 1_555 1_555
H10 C13 1_555 1_555
Cu1 N1 1_555 1_555
N1 C10 1_555 1_555
N2 C11 1_555 1_555
O1 C1 1_555 1_555
O2 C1 1_555 1_555
O3 C3 1_555 1_555
O4 C3 1_555 1_555
Cu1C O3 1_555 1_555
Cu1C_2 O1 1_555 1_555
O1C Cu1 1_555 1_555
O3C Cu1 1_555 1_555
C8 C9 1_555 1_555
C12 N2 1_555 1_555
C13 N1 1_555 1_555
Cu1 O2 1_555 1_555
Cu1 O4 1_555 1_555

#END
