
#######################################################################
#
#                 Cambridge Crystallographic Data Centre
#                                CCDC 
#
#######################################################################
#
# If this CIF has been generated from an entry in the Cambridge 
# Structural Database, then it will include bibliographic, chemical, 
# crystal, experimental, refinement or atomic coordinate data resulting 
# from the CCDC's data processing and validation procedures.
#
#######################################################################

data_GOPVEO
_symmetry_cell_setting           monoclinic
_symmetry_space_group_name_H-M   'C 2/c'
_symmetry_Int_Tables_number      15
_space_group_name_Hall           '-C 2yn'
loop_
_symmetry_equiv_pos_site_id
_symmetry_equiv_pos_as_xyz
1 x,y,z
2 -x,y,1/2-z
3 1/2+x,1/2+y,z
4 1/2-x,1/2+y,1/2-z
5 -x,-y,-z
6 x,-y,1/2+z
7 1/2-x,1/2-y,-z
8 1/2+x,1/2-y,1/2+z
_cell_length_a                   33.6935(18)
_cell_length_b                   11.1225(6)
_cell_length_c                   27.5859(14)
_cell_angle_alpha                90
_cell_angle_beta                 114.0270(10)
_cell_angle_gamma                90
_cell_volume                     9442.23
loop_
_atom_site_label
_atom_site_type_symbol
_atom_site_fract_x
_atom_site_fract_y
_atom_site_fract_z
C1 C 0.63076(10) 0.4576(3) 0.56093(14)
H1 H 0.6372 0.5263 0.5464
C2 C 0.59769(11) 0.3297(3) 0.58817(16)
H2 H 0.5765 0.2922 0.5963
C3 C 0.63745(12) 0.2833(3) 0.59822(16)
H3 H 0.6483 0.2096 0.6139
C4 C 0.70026(10) 0.3555(3) 0.58005(13)
C5 C 0.71484(12) 0.2458(3) 0.57198(16)
H4 H 0.6981 0.1773 0.5687
C6 C 0.75459(12) 0.2370(3) 0.56865(16)
H5 H 0.7643 0.1617 0.5635
C7 C 0.78054(10) 0.3364(3) 0.57265(13)
C8 C 0.76571(11) 0.4460(3) 0.58268(15)
H6 H 0.7829 0.5142 0.5872
C9 C 0.72579(11) 0.4565(3) 0.58616(15)
H7 H 0.7163 0.5310 0.5926
C10 C 0.82187(10) 0.3257(3) 0.56593(13)
C11 C 0.83933(12) 0.2140(3) 0.56364(15)
H8 H 0.8247 0.1453 0.5666
C12 C 0.87779(11) 0.2012(3) 0.55704(14)
H9 H 0.8891 0.1252 0.5566
C13 C 0.89908(10) 0.3020(3) 0.55119(13)
C14 C 0.88290(11) 0.4144(3) 0.55298(15)
H10 H 0.8974 0.4826 0.5493
C15 C 0.84464(11) 0.4250(3) 0.56040(14)
H11 H 0.8339 0.5015 0.5617
C16 C 0.95830(11) 0.3723(3) 0.52494(14)
H12 H 0.9489 0.4505 0.5146
C17 C 0.99409(11) 0.3195(3) 0.52429(14)
H13 H 1.0137 0.3564 0.5131
C18 C 0.96312(10) 0.1888(3) 0.55375(13)
H14 H 0.9568 0.1178 0.5669
C19 C 0.2828(2) 1.1580(8) 0.7715(2)
H15 H 0.2927 1.2325 0.7659
C20 C 0.2473(3) 1.0185(11) 0.7897(4)
H16 H 0.2272 0.9794 0.7994
C21 C 0.2764(2) 0.9640(9) 0.7766(3)
H17 H 0.2802 0.8814 0.7757
C22 C 0.33461(15) 1.0341(7) 0.74789(19)
C23 C 0.33567(15) 0.9322(6) 0.7196(2)
H18 H 0.3144 0.8734 0.7121
C24 C 0.36897(14) 0.9191(5) 0.70243(17)
H19 H 0.3697 0.8508 0.6834
C25 C 0.40085(13) 1.0050(5) 0.71299(15)
C26 C 0.39918(14) 1.1037(5) 0.74226(16)
H20 H 0.4208 1.1617 0.7504
C27 C 0.36645(16) 1.1202(5) 0.76010(18)
H21 H 0.3661 1.1877 0.7798
C28 C 0.43599(12) 0.9928(4) 0.69377(14)
C29 C 0.45366(13) 0.8826(4) 0.69021(15)
H22 H 0.4429 0.8132 0.6994
C30 C 0.48720(12) 0.8732(4) 0.67309(14)
H23 H 0.4985 0.7981 0.6707
C31 C 0.50363(12) 0.9757(3) 0.65966(13)
C32 C 0.48616(13) 1.0858(4) 0.66190(15)
H24 H 0.4968 1.1550 0.6525
C33 C 0.45242(14) 1.0929(4) 0.67827(15)
H25 H 0.4403 1.1678 0.6789
C34 C 0.56730(12) 0.8769(3) 0.65426(14)
H26 H 0.5675 0.8103 0.6748
C35 C 0.54908(13) 1.0473(3) 0.61226(15)
H27 H 0.5351 1.1196 0.5986
C36 C 0.58309(13) 1.0011(3) 0.60538(15)
H28 H 0.5966 1.0363 0.5854
C37 C 0.51424(10) 0.6217(3) 0.42516(13)
C38 C 0.55821(9) 0.6269(3) 0.42277(12)
C39 C 0.59297(10) 0.6864(3) 0.46082(12)
C40 C 0.58623(10) 0.7563(3) 0.50355(13)
C41 C 0.63236(10) 0.6940(3) 0.45590(12)
H29 H 0.6558 0.7319 0.4824
C42 C 0.63751(10) 0.6457(3) 0.41201(12)
C43 C 0.60158(10) 0.5907(3) 0.37157(12)
C44 C 0.56316(10) 0.5819(3) 0.37861(12)
H30 H 0.5395 0.5439 0.3524
C45 C 0.60198(10) 0.5441(3) 0.32044(12)
C46 C 0.63439(11) 0.4751(4) 0.31725(13)
H31 H 0.6583 0.4557 0.3482
C47 C 0.63242(11) 0.4333(3) 0.26908(13)
H32 H 0.6549 0.3866 0.2680
C48 C 0.59741(10) 0.4604(3) 0.22284(12)
C49 C 0.56445(11) 0.5317(4) 0.22506(13)
H33 H 0.5407 0.5520 0.1940
C50 C 0.56690(11) 0.5728(3) 0.27360(13)
H34 H 0.5446 0.6204 0.2748
C51 C 0.59439(11) 0.4135(3) 0.17012(13)
C52 C 0.68092(10) 0.6598(3) 0.40935(12)
C53 C 0.68555(11) 0.7283(4) 0.37028(14)
H35 H 0.6615 0.7679 0.3456
C54 C 0.72527(11) 0.7387(4) 0.36741(14)
H36 H 0.7280 0.7871 0.3414
C55 C 0.76104(11) 0.6779(3) 0.40280(13)
C56 C 0.75692(11) 0.6115(3) 0.44269(14)
H37 H 0.7809 0.5717 0.4673
C57 C 0.71695(11) 0.6037(3) 0.44626(13)
H38 H 0.7146 0.5604 0.4738
C58 C 0.80386(11) 0.6862(4) 0.39831(15)
Co1 Co 0.542589(12) 0.56548(4) 0.548682(16)
Co2 Co 0.629763(14) 0.75970(4) 0.618376(17)
N1 N 0.59320(8) 0.4396(2) 0.56426(11)
N2 N 0.65854(8) 0.3661(3) 0.58076(11)
N3 N 0.93856(8) 0.2884(2) 0.54383(10)
N4 N 0.99754(8) 0.2037(2) 0.54254(10)
N5 N 0.59519(10) 0.8934(3) 0.63239(11)
N6 N 0.53865(9) 0.9669(3) 0.64351(11)
N7 N 0.29967(14) 1.0492(6) 0.76459(18)
N8 N 0.25104(19) 1.1435(8) 0.7870(2)
O1 O 0.59041(7) 0.6969(2) 0.54617(8)
O2 O 0.57615(8) 0.8614(2) 0.49562(10)
O3 O 0.51095(6) 0.55892(19) 0.46284(8)
O4 O 0.48422(7) 0.6751(2) 0.39003(9)
O5 O 0.83349(9) 0.6151(3) 0.42280(12)
O6 O 0.80884(8) 0.7682(3) 0.36964(11)
O7 O 0.62700(7) 0.3590(2) 0.17022(9)
O8 O 0.55880(7) 0.4284(2) 0.13019(9)
Co1B Co 1.042589(12) 0.06548(4) 0.548682(16)
Co1D Co 0.457411(12) 0.43452(4) 0.451318(16)
Co1E Co 0.542589(12) 0.43452(4) 0.048682(16)
Co2E Co 0.629763(14) 0.24030(4) 0.118376(17)
Co2F Co 0.870237(14) 0.74030(4) 0.381624(17)
N4B N 0.49754(8) 0.7037(2) 0.54254(10)
O3D O 0.48905(6) 0.44108(19) 0.53716(8)
O5F O 0.66651(9) 0.8849(3) 0.57720(12)
O6F O 0.69116(8) 0.7318(3) 0.63036(11)
O7E O 0.62700(7) 0.6410(2) 0.67022(9)
O8E O 0.55880(7) 0.5716(2) 0.63019(9)
loop_
_geom_bond_atom_site_label_1
_geom_bond_atom_site_label_2
_geom_bond_site_symmetry_1
_geom_bond_site_symmetry_2
C1 H1 1_555 1_555
C2 H2 1_555 1_555
C3 C2 1_555 1_555
H3 C3 1_555 1_555
C4 C5 1_555 1_555
C5 H4 1_555 1_555
C6 C5 1_555 1_555
H5 C6 1_555 1_555
C7 C6 1_555 1_555
C8 C7 1_555 1_555
H6 C8 1_555 1_555
C9 C4 1_555 1_555
H7 C9 1_555 1_555
C10 C7 1_555 1_555
C11 C10 1_555 1_555
H8 C11 1_555 1_555
C12 C11 1_555 1_555
H9 C12 1_555 1_555
C13 C12 1_555 1_555
C14 C13 1_555 1_555
H10 C14 1_555 1_555
C15 C10 1_555 1_555
H11 C15 1_555 1_555
C16 H12 1_555 1_555
C17 C16 1_555 1_555
H13 C17 1_555 1_555
C18 H14 1_555 1_555
C19 H15 1_555 1_555
C20 H16 1_555 1_555
C21 C20 1_555 1_555
H17 C21 1_555 1_555
C22 C23 1_555 1_555
C23 H18 1_555 1_555
C24 C23 1_555 1_555
H19 C24 1_555 1_555
C25 C24 1_555 1_555
C26 C25 1_555 1_555
H20 C26 1_555 1_555
C27 C22 1_555 1_555
H21 C27 1_555 1_555
C28 C25 1_555 1_555
C29 C28 1_555 1_555
H22 C29 1_555 1_555
C30 C29 1_555 1_555
H23 C30 1_555 1_555
C31 C30 1_555 1_555
C32 C31 1_555 1_555
H24 C32 1_555 1_555
C33 C28 1_555 1_555
H25 C33 1_555 1_555
C34 H26 1_555 1_555
C35 H27 1_555 1_555
C36 C35 1_555 1_555
H28 C36 1_555 1_555
C37 C38 1_555 1_555
C38 C39 1_555 1_555
C39 C40 1_555 1_555
C40 O1 1_555 1_555
C41 C39 1_555 1_555
H29 C41 1_555 1_555
C42 C41 1_555 1_555
C43 C42 1_555 1_555
C44 C38 1_555 1_555
H30 C44 1_555 1_555
C45 C43 1_555 1_555
C46 C45 1_555 1_555
H31 C46 1_555 1_555
C47 C46 1_555 1_555
H32 C47 1_555 1_555
C48 C47 1_555 1_555
C49 C48 1_555 1_555
H33 C49 1_555 1_555
C50 C45 1_555 1_555
H34 C50 1_555 1_555
C51 C48 1_555 1_555
C52 C42 1_555 1_555
C53 C52 1_555 1_555
H35 C53 1_555 1_555
C54 C53 1_555 1_555
H36 C54 1_555 1_555
C55 C54 1_555 1_555
C56 C55 1_555 1_555
H37 C56 1_555 1_555
C57 C52 1_555 1_555
H38 C57 1_555 1_555
C58 C55 1_555 1_555
Co1 N1 1_555 1_555
Co2 N5 1_555 1_555
N1 C1 1_555 1_555
N2 C1 1_555 1_555
N3 C13 1_555 1_555
N4 C17 1_555 1_555
N5 C34 1_555 1_555
N6 C31 1_555 1_555
N7 C19 1_555 1_555
N8 C19 1_555 1_555
O1 Co1 1_555 1_555
O2 C40 1_555 1_555
O3 C37 1_555 1_555
O4 C37 1_555 1_555
O5 C58 1_555 1_555
O6 C58 1_555 1_555
O7 C51 1_555 1_555
O8 C51 1_555 1_555
Co1B N4 1_555 1_555
Co1D O3 1_555 1_555
Co1E O8 1_555 1_555
Co2E O7 1_555 1_555
Co2F O5 1_555 1_555
N4B Co1 1_555 1_555
O3D Co1 1_555 1_555
O5F Co2 1_555 1_555
O6F Co2 1_555 1_555
O7E Co2 1_555 1_555
O8E Co1 1_555 1_555
C2 N1 1_555 1_555
C3 N2 1_555 1_555
C4 N2 1_555 1_555
C8 C9 1_555 1_555
C14 C15 1_555 1_555
C16 N3 1_555 1_555
C18 N3 1_555 1_555
C18 N4 1_555 1_555
C20 N8 1_555 1_555
C21 N7 1_555 1_555
C22 N7 1_555 1_555
C26 C27 1_555 1_555
C32 C33 1_555 1_555
C34 N6 1_555 1_555
C35 N6 1_555 1_555
C36 N5 1_555 1_555
C43 C44 1_555 1_555
C49 C50 1_555 1_555
C56 C57 1_555 1_555
Co1 O3 1_555 1_555
Co2 O1 1_555 1_555
O6 Co2F 1_555 1_555
Co1D O3D 1_555 1_555

#END
