
#######################################################################
#
#                 Cambridge Crystallographic Data Centre
#                                CCDC 
#
#######################################################################
#
# If this CIF has been generated from an entry in the Cambridge 
# Structural Database, then it will include bibliographic, chemical, 
# crystal, experimental, refinement or atomic coordinate data resulting 
# from the CCDC's data processing and validation procedures.
#
#######################################################################

data_GOPVAK
_symmetry_cell_setting           triclinic
_symmetry_space_group_name_H-M   'P -1'
_symmetry_Int_Tables_number      2
_space_group_name_Hall           '-P 1'
loop_
_symmetry_equiv_pos_site_id
_symmetry_equiv_pos_as_xyz
1 x,y,z
2 -x,-y,-z
_cell_length_a                   10.3636(9)
_cell_length_b                   12.2034(11)
_cell_length_c                   14.0163(12)
_cell_angle_alpha                89.208(2)
_cell_angle_beta                 73.7390(10)
_cell_angle_gamma                75.8750(10)
_cell_volume                     1647.46
loop_
_atom_site_label
_atom_site_type_symbol
_atom_site_fract_x
_atom_site_fract_y
_atom_site_fract_z
C1 C 0.6797(3) 0.1935(3) 0.6279(2)
H1 H 0.7651 0.1503 0.5895
C2 C 0.5219(3) 0.3313(3) 0.7234(3)
H2 H 0.4767 0.3982 0.7622
C3 C 0.4653(4) 0.2493(3) 0.7040(3)
H3 H 0.3715 0.2511 0.7281
C4 C 0.7666(3) 0.3534(3) 0.6709(2)
C5 C 0.7535(3) 0.4260(3) 0.7497(3)
H4 H 0.6768 0.4367 0.8056
C6 C 0.8551(3) 0.4824(3) 0.7447(3)
H5 H 0.8453 0.5321 0.7975
C7 C 0.9717(3) 0.4670(3) 0.6630(2)
C8 C 0.9818(4) 0.3924(3) 0.5845(2)
H6 H 1.0590 0.3800 0.5289
C9 C 0.8798(3) 0.3373(3) 0.5882(2)
H7 H 0.8872 0.2893 0.5349
C10 C 1.0812(3) 0.5266(3) 0.6563(2)
C11 C 1.0496(3) 0.6402(3) 0.6887(2)
H8 H 0.9574 0.6788 0.7168
C12 C 1.1524(3) 0.6964(3) 0.6797(2)
H9 H 1.1291 0.7725 0.7007
C13 C 1.2904(3) 0.6398(3) 0.6396(2)
C14 C 1.3253(3) 0.5274(3) 0.6071(3)
H10 H 1.4178 0.4892 0.5795
C15 C 1.2195(4) 0.4714(3) 0.6161(3)
H11 H 1.2429 0.3955 0.5946
C16 C 1.5339(4) 0.6498(3) 0.6288(3)
H12 H 1.5743 0.5735 0.6319
C17 C 1.5964(4) 0.7351(3) 0.6206(3)
H13 H 1.6894 0.7267 0.6167
C18 C 1.3861(3) 0.8086(3) 0.6257(2)
H14 H 1.3036 0.8608 0.6265
C19 C 0.5186(4) -0.0643(3) 0.8233(2)
C20 C 0.4211(3) -0.0711(2) 0.9265(2)
C21 C 0.3054(3) 0.0194(3) 0.9552(2)
H15 H 0.2988 0.0785 0.9129
C22 C 0.1982(3) 0.0283(2) 1.0429(2)
C23 C 0.2112(3) -0.0612(2) 1.1064(2)
C24 C 0.3281(3) -0.1508(3) 1.0796(2)
H16 H 0.3361 -0.2086 1.1232
C25 C 0.4346(3) -0.1596(3) 0.9914(2)
C26 C 0.5482(3) -0.2674(3) 0.9769(3)
C27 C 0.0999(3) -0.0687(2) 1.1984(2)
C28 C 0.0733(3) -0.0019(3) 1.2849(2)
H17 H 0.1295 0.0461 1.2881
C29 C -0.0378(3) -0.0074(2) 1.3663(2)
H18 H -0.0525 0.0345 1.4250
C30 C -0.1264(3) -0.0735(3) 1.3620(2)
C31 C -0.0972(3) -0.1432(3) 1.2768(2)
H19 H -0.1544 -0.1901 1.2731
C32 C 0.0174(3) -0.1422(3) 1.1977(2)
H20 H 0.0396 -0.1922 1.1427
C33 C -0.2597(3) -0.0639(2) 1.4424(2)
C34 C 0.0753(3) 0.1280(2) 1.0590(2)
C35 C 0.0956(3) 0.2333(3) 1.0286(3)
H21 H 0.1855 0.2417 1.0037
C36 C -0.0152(3) 0.3249(3) 1.0348(3)
H22 H 0.0007 0.3941 1.0129
C37 C -0.1495(3) 0.3151(3) 1.0731(2)
C38 C -0.1714(3) 0.2106(3) 1.1043(2)
H23 H -0.2614 0.2029 1.1306
C39 C -0.0600(3) 0.1182(3) 1.0963(2)
H24 H -0.0761 0.0486 1.1162
C40 C -0.2723(4) 0.4130(3) 1.0829(3)
Co1 Co 0.53572(4) -0.00003(3) 0.62222(3)
N1 N 0.5636(3) 0.1626(2) 0.64402(19)
N2 N 0.6615(3) 0.2952(2) 0.67339(19)
N3 N 1.3991(3) 0.6974(2) 0.63160(19)
N4 N 1.5041(3) 0.8362(2) 0.61873(19)
O1 O 0.6391(2) -0.1270(2) 0.79495(18)
O2 O 0.4683(3) 0.0066(2) 0.77049(16)
O3 O 0.6548(2) -0.2864(2) 0.89922(19)
H25 H 0.6532 -0.2295 0.8674
O4 O 0.5396(3) -0.3359(2) 1.0401(2)
O5 O -0.2430(3) 0.4957(2) 1.0270(2)
H26 H -0.3117 0.5493 1.0383
O6 O -0.3871(3) 0.4144(2) 1.1376(2)
O7 O -0.3618(2) -0.0754(2) 1.41685(19)
O8 O -0.2655(2) -0.0392(2) 1.53021(16)
Co1_2 Co -0.46428(4) -0.00003(3) 1.62222(3)
Co1_3 Co 1.53572(4) 0.99997(3) 0.62222(3)
Co1A Co -0.53572(4) 0.00003(3) 1.37778(3)
N4_2 N 0.5041(3) -0.1638(2) 0.61873(19)
O7A O 0.3618(2) 0.0754(2) 0.58315(19)
O8_2 O 0.7345(2) -0.0392(2) 0.53021(16)
loop_
_geom_bond_atom_site_label_1
_geom_bond_atom_site_label_2
_geom_bond_site_symmetry_1
_geom_bond_site_symmetry_2
C1 H1 1_555 1_555
C2 H2 1_555 1_555
C3 C2 1_555 1_555
H3 C3 1_555 1_555
C4 C5 1_555 1_555
C5 H4 1_555 1_555
C6 C5 1_555 1_555
H5 C6 1_555 1_555
C7 C6 1_555 1_555
C8 C7 1_555 1_555
H6 C8 1_555 1_555
C9 C4 1_555 1_555
H7 C9 1_555 1_555
C10 C7 1_555 1_555
C11 C10 1_555 1_555
H8 C11 1_555 1_555
C12 C11 1_555 1_555
H9 C12 1_555 1_555
C13 C12 1_555 1_555
C14 C13 1_555 1_555
H10 C14 1_555 1_555
C15 C10 1_555 1_555
H11 C15 1_555 1_555
C16 H12 1_555 1_555
C17 C16 1_555 1_555
H13 C17 1_555 1_555
C18 H14 1_555 1_555
C19 C20 1_555 1_555
C20 C21 1_555 1_555
C21 H15 1_555 1_555
C22 C21 1_555 1_555
C23 C22 1_555 1_555
C24 C23 1_555 1_555
H16 C24 1_555 1_555
C25 C20 1_555 1_555
C26 C25 1_555 1_555
C27 C23 1_555 1_555
C28 C27 1_555 1_555
H17 C28 1_555 1_555
C29 C28 1_555 1_555
H18 C29 1_555 1_555
C30 C29 1_555 1_555
C31 C30 1_555 1_555
H19 C31 1_555 1_555
C32 C27 1_555 1_555
H20 C32 1_555 1_555
C33 C30 1_555 1_555
C34 C22 1_555 1_555
C35 C34 1_555 1_555
H21 C35 1_555 1_555
C36 C35 1_555 1_555
H22 C36 1_555 1_555
C37 C36 1_555 1_555
C38 C37 1_555 1_555
H23 C38 1_555 1_555
C39 C34 1_555 1_555
H24 C39 1_555 1_555
C40 C37 1_555 1_555
Co1 N1 1_555 1_555
N1 C1 1_555 1_555
N2 C1 1_555 1_555
N3 C13 1_555 1_555
N4 C17 1_555 1_555
O1 C19 1_555 1_555
O2 C19 1_555 1_555
O3 C26 1_555 1_555
H25 O3 1_555 1_555
O4 C26 1_555 1_555
O5 C40 1_555 1_555
H26 O5 1_555 1_555
O6 C40 1_555 1_555
O7 C33 1_555 1_555
O8 C33 1_555 1_555
Co1_2 O8 1_555 1_555
Co1_3 N4 1_555 1_555
Co1A O7 1_555 1_555
N4_2 Co1 1_555 1_555
O7A Co1 1_555 1_555
O8_2 Co1 1_555 1_555
C2 N2 1_555 1_555
C3 N1 1_555 1_555
C4 N2 1_555 1_555
C8 C9 1_555 1_555
C14 C15 1_555 1_555
C16 N3 1_555 1_555
C18 N3 1_555 1_555
C18 N4 1_555 1_555
C24 C25 1_555 1_555
C31 C32 1_555 1_555
C38 C39 1_555 1_555
Co1 O2 1_555 1_555

#END
