
#######################################################################
#
#                 Cambridge Crystallographic Data Centre
#                                CCDC 
#
#######################################################################
#
# If this CIF has been generated from an entry in the Cambridge 
# Structural Database, then it will include bibliographic, chemical, 
# crystal, experimental, refinement or atomic coordinate data resulting 
# from the CCDC's data processing and validation procedures.
#
#######################################################################

data_GOQWEQ
_symmetry_cell_setting           triclinic
_symmetry_space_group_name_H-M   'P -1'
_symmetry_Int_Tables_number      2
_space_group_name_Hall           '-P 1'
loop_
_symmetry_equiv_pos_site_id
_symmetry_equiv_pos_as_xyz
1 x,y,z
2 -x,-y,-z
_cell_length_a                   10.654(2)
_cell_length_b                   11.985(2)
_cell_length_c                   13.161(3)
_cell_angle_alpha                100.50(3)
_cell_angle_beta                 100.61(3)
_cell_angle_gamma                101.79(3)
_cell_volume                     1574.15
loop_
_atom_site_label
_atom_site_type_symbol
_atom_site_fract_x
_atom_site_fract_y
_atom_site_fract_z
Cd1 Cd 0.12071(5) 0.40773(5) 0.25556(5)
Cd2 Cd 0.27983(5) 0.14397(5) 0.22307(4)
O1 O -0.5818(5) 0.3241(5) 0.2205(5)
O2 O -0.6566(5) 0.4657(5) 0.3105(5)
O3 O -0.3452(5) 0.7815(5) 0.5960(4)
O4 O -0.1560(5) 0.7406(4) 0.6588(4)
O5 O -0.0966(5) 0.3666(5) 0.2797(5)
O6 O 0.0345(5) 0.5399(5) 0.3592(5)
O7 O 0.1496(5) -0.0175(5) 0.2573(5)
N1 N 0.4517(6) 0.0359(6) 0.2231(5)
N2 N 0.5728(7) -0.0899(6) 0.2448(6)
N3 N 0.5004(7) -0.1244(6) 0.1431(6)
H1 H 0.5012 -0.1837 0.0956
N4 N 0.6863(9) 0.2668(8) 0.5176(8)
N5 N 0.2649(6) 0.0296(5) 0.0486(5)
N6 N 0.1299(6) 0.1861(5) 0.0950(5)
N7 N 0.0589(6) 0.2698(5) 0.0986(5)
N8 N 0.0242(6) 0.1731(6) -0.0714(5)
N9 N -0.1599(6) 0.4543(6) -0.1463(5)
C1 C -0.2387(7) 0.4827(7) -0.0850(7)
H2 H -0.2903 0.5329 -0.1037
C2 C -0.0874(8) 0.3809(7) -0.1222(7)
H3 H -0.0337 0.3592 -0.1666
C3 C -0.0896(8) 0.3353(7) -0.0321(7)
C4 C -0.1700(7) 0.3689(8) 0.0344(7)
H4 H -0.1701 0.3427 0.0967
C5 C -0.2489(8) 0.4412(8) 0.0069(7)
H5 H -0.3068 0.4618 0.0476
C6 C -0.0028(7) 0.2580(6) -0.0022(6)
C7 C 0.1076(7) 0.1324(6) -0.0040(6)
C8 C 0.1761(8) 0.0402(7) -0.0339(6)
C9 C 0.1579(8) -0.0287(7) -0.1357(6)
H6 H 0.0960 -0.0215 -0.1923
C10 C 0.2351(8) -0.1089(7) -0.1501(7)
H7 H 0.2253 -0.1562 -0.2169
C11 C 0.3249(8) -0.1171(7) -0.0653(7)
H8 H 0.3777 -0.1695 -0.0738
C12 C 0.3369(7) -0.0469(7) 0.0336(7)
C13 C 0.4279(7) -0.0474(7) 0.1325(7)
C14 C 0.5423(7) 0.0071(7) 0.2910(7)
C15 C 0.6075(7) 0.0776(7) 0.3987(7)
C16 C 0.6562(8) 0.0265(9) 0.4797(7)
H9 H 0.6453 -0.0543 0.4660
C17 C 0.7175(9) 0.0905(8) 0.5754(7)
H10 H 0.7485 0.0559 0.6294
C18 C 0.7334(12) 0.2027(12) 0.5920(9)
H11 H 0.7802 0.2462 0.6591
C19 C 0.6225(9) 0.1962(8) 0.4171(8)
H12 H 0.5902 0.2298 0.3627
C20 C -0.0776(7) 0.4673(7) 0.3346(7)
C21 C -0.1707(7) 0.5981(7) 0.4572(6)
H13 H -0.0854 0.6361 0.4954
C22 C -0.2785(7) 0.6336(6) 0.4878(6)
C23 C -0.2591(8) 0.7256(7) 0.5852(6)
C24 C -0.4055(7) 0.5801(7) 0.4292(6)
H14 H -0.4761 0.6076 0.4466
C25 C -0.4272(7) 0.4842(7) 0.3432(6)
C26 C -0.5668(7) 0.4195(7) 0.2871(6)
C27 C -0.3196(7) 0.4504(7) 0.3151(6)
H15 H -0.3337 0.3879 0.2574
C28 C -0.1913(7) 0.5064(6) 0.3699(6)
Cd1_2 Cd -0.87929(5) 0.40773(5) 0.25556(5)
Cd1A Cd -0.12071(5) 0.59227(5) -0.25556(5)
Cd1A_2 Cd -0.12071(5) 0.59227(5) 0.74444(5)
Cd2_2 Cd -0.72017(5) 0.14397(5) 0.22307(4)
Cd2A Cd -0.27983(5) 0.85603(5) 0.77693(4)
O1_2 O 0.4182(5) 0.3241(5) 0.2205(5)
O2_2 O 0.3434(5) 0.4657(5) 0.3105(5)
O3A O 0.3452(5) 0.2185(5) 0.4040(4)
O4A O 0.1560(5) 0.2594(4) 0.3412(4)
N9A N 0.1599(6) 0.5457(6) 0.1463(5)
O8 O 0.5723(10) 0.6927(9) 0.0007(8)
O9 O 0.7560(18) 0.7499(19) 0.2390(19)
O10 O 0.924(4) 0.845(3) 0.371(2)
O11 O 0.9604(17) 0.108(2) 0.4170(13)
loop_
_geom_bond_atom_site_label_1
_geom_bond_atom_site_label_2
_geom_bond_site_symmetry_1
_geom_bond_site_symmetry_2
Cd1 O5 1_555 1_555
Cd2 O7 1_555 1_555
O1 C26 1_555 1_555
O2 C26 1_555 1_555
O3 C23 1_555 1_555
O4 C23 1_555 1_555
O5 C20 1_555 1_555
O6 Cd1 1_555 1_555
N1 Cd2 1_555 1_555
N2 N3 1_555 1_555
N3 H1 1_555 1_555
N4 C18 1_555 1_555
N5 Cd2 1_555 1_555
N6 Cd2 1_555 1_555
N7 Cd1 1_555 1_555
N8 C6 1_555 1_555
N9 C1 1_555 1_555
C1 H2 1_555 1_555
C2 N9 1_555 1_555
H3 C2 1_555 1_555
C3 C2 1_555 1_555
C4 C3 1_555 1_555
H4 C4 1_555 1_555
C5 C1 1_555 1_555
H5 C5 1_555 1_555
C6 N7 1_555 1_555
C7 N6 1_555 1_555
C8 N5 1_555 1_555
C9 C8 1_555 1_555
H6 C9 1_555 1_555
C10 C9 1_555 1_555
H7 C10 1_555 1_555
C11 C10 1_555 1_555
H8 C11 1_555 1_555
C12 N5 1_555 1_555
C13 N1 1_555 1_555
C14 N1 1_555 1_555
C15 C14 1_555 1_555
C16 C15 1_555 1_555
H9 C16 1_555 1_555
C17 C16 1_555 1_555
H10 C17 1_555 1_555
C18 C17 1_555 1_555
H11 C18 1_555 1_555
C19 N4 1_555 1_555
H12 C19 1_555 1_555
C20 O6 1_555 1_555
C21 H13 1_555 1_555
C22 C21 1_555 1_555
C23 C22 1_555 1_555
C24 C22 1_555 1_555
H14 C24 1_555 1_555
C25 C24 1_555 1_555
C26 C25 1_555 1_555
C27 C25 1_555 1_555
H15 C27 1_555 1_555
C28 C20 1_555 1_555
Cd1_2 O2 1_555 1_555
Cd1A N9 1_555 1_555
Cd1A_2 O4 1_555 1_555
Cd2_2 O1 1_555 1_555
Cd2A O3 1_555 1_555
O1_2 Cd2 1_555 1_555
O2_2 Cd1 1_555 1_555
O3A Cd2 1_555 1_555
O4A Cd1 1_555 1_555
N9A Cd1 1_555 1_555
Cd2 O4A 1_555 1_555
O4 Cd2A 1_555 1_555
N2 C14 1_555 1_555
N3 C13 1_555 1_555
N6 N7 1_555 1_555
N8 C7 1_555 1_555
C3 C6 1_555 1_555
C4 C5 1_555 1_555
C7 C8 1_555 1_555
C11 C12 1_555 1_555
C12 C13 1_555 1_555
C15 C19 1_555 1_555
C21 C28 1_555 1_555
C27 C28 1_555 1_555

#END
