
#######################################################################
#
#                 Cambridge Crystallographic Data Centre
#                                CCDC 
#
#######################################################################
#
# If this CIF has been generated from an entry in the Cambridge 
# Structural Database, then it will include bibliographic, chemical, 
# crystal, experimental, refinement or atomic coordinate data resulting 
# from the CCDC's data processing and validation procedures.
#
#######################################################################

data_GOQWAM
_symmetry_cell_setting           monoclinic
_symmetry_space_group_name_H-M   'C 2/c'
_symmetry_Int_Tables_number      15
_space_group_name_Hall           '-C 2yn'
loop_
_symmetry_equiv_pos_site_id
_symmetry_equiv_pos_as_xyz
1 x,y,z
2 -x,y,1/2-z
3 1/2+x,1/2+y,z
4 1/2-x,1/2+y,1/2-z
5 -x,-y,-z
6 x,-y,1/2+z
7 1/2-x,1/2-y,-z
8 1/2+x,1/2-y,1/2+z
_cell_length_a                   17.711(4)
_cell_length_b                   15.285(3)
_cell_length_c                   16.097(3)
_cell_angle_alpha                90
_cell_angle_beta                 107.02(3)
_cell_angle_gamma                90
_cell_volume                     4166.81
loop_
_atom_site_label
_atom_site_type_symbol
_atom_site_fract_x
_atom_site_fract_y
_atom_site_fract_z
Cd1 Cd 0.161464(15) 0.877340(16) 0.156698(14)
O1 O 0.29611(14) 0.91708(17) 0.15739(13)
O2 O 0.03417(15) 0.84935(18) 0.16808(15)
N1 N 0.1000(2) 1.3593(2) 0.1839(2)
N2 N 0.07421(15) 1.10582(17) -0.00896(17)
N3 N 0.12598(19) 1.01607(18) 0.10230(18)
N4 N 0.12347(19) 1.09672(19) 0.13602(18)
N5 N 0.12394(16) 0.87449(17) 0.00465(16)
N6 N 0.17835(15) 0.64629(17) 0.00223(16)
N7 N 0.19996(18) 0.65878(18) 0.14762(17)
N8 N 0.17478(18) 0.73763(18) 0.10932(18)
N9 N 0.29156(17) 0.40506(18) 0.19820(17)
C1 C 0.0537(3) 1.4099(3) 0.1215(3)
H1 H 0.0447 1.4672 0.1353
C2 C 0.0188(2) 1.3812(2) 0.0382(3)
H2 H -0.0128 1.4183 -0.0034
C3 C 0.0321(2) 1.2953(2) 0.0178(3)
H3 H 0.0095 1.2742 -0.0382
C4 C 0.07897(19) 1.2412(2) 0.0810(2)
C5 C 0.1120(2) 1.2783(2) 0.1636(2)
H4 H 0.1444 1.2432 0.2067
C6 C 0.09188(19) 1.1486(2) 0.0682(2)
C7 C 0.09667(18) 1.0238(2) 0.0157(2)
C8 C 0.09743(18) 0.9483(2) -0.04022(19)
C9 C 0.0756(2) 0.9492(2) -0.1301(2)
H5 H 0.0551 0.9995 -0.1610
C10 C 0.0853(2) 0.8738(2) -0.1723(2)
H6 H 0.0736 0.8737 -0.2325
C11 C 0.1127(2) 0.7968(2) -0.1252(2)
H7 H 0.1168 0.7447 -0.1534
C12 C 0.13336(18) 0.8012(2) -0.0351(2)
C13 C 0.16225(18) 0.7271(2) 0.02476(19)
C14 C 0.20092(19) 0.6059(2) 0.0810(2)
C15 C 0.22685(19) 0.5151(2) 0.0958(2)
C16 C 0.2177(2) 0.4558(2) 0.0286(2)
H8 H 0.1932 0.4725 -0.0286
C17 C 0.2455(2) 0.3708(2) 0.0477(2)
H9 H 0.2394 0.3298 0.0035
C18 C 0.2819(2) 0.3482(2) 0.1316(2)
H10 H 0.3009 0.2915 0.1436
C19 C 0.2653(2) 0.4866(2) 0.1797(2)
H11 H 0.2731 0.5264 0.2250
H12 H 0.3037(7) 0.8997(12) 0.1105(4)
H13 H 0.3363(5) 0.9020(13) 0.1977(5)
H14 H -0.0021(6) 0.8533(11) 0.1203(5)
H15 H 0.0209(7) 0.8062(5) 0.1934(6)
Cd1C Cd 0.338536(15) 0.377340(16) 0.343302(14)
N9C N 0.20844(17) 0.90506(18) 0.30180(17)
O3 O 0.0000 0.6941(5) 0.2500
O4 O 0.1536(3) 0.6133(3) 0.2990(2)
loop_
_geom_bond_atom_site_label_1
_geom_bond_atom_site_label_2
_geom_bond_site_symmetry_1
_geom_bond_site_symmetry_2
Cd1 O1 1_555 1_555
O1 H12 1_555 1_555
O2 Cd1 1_555 1_555
N1 C1 1_555 1_555
N2 C6 1_555 1_555
N3 Cd1 1_555 1_555
N4 N3 1_555 1_555
N5 Cd1 1_555 1_555
N6 C13 1_555 1_555
N7 N8 1_555 1_555
N8 Cd1 1_555 1_555
N9 C18 1_555 1_555
C1 H1 1_555 1_555
C2 C1 1_555 1_555
H2 C2 1_555 1_555
C3 C2 1_555 1_555
H3 C3 1_555 1_555
C4 C3 1_555 1_555
C5 N1 1_555 1_555
H4 C5 1_555 1_555
C6 N4 1_555 1_555
C7 N2 1_555 1_555
C8 N5 1_555 1_555
C9 C8 1_555 1_555
H5 C9 1_555 1_555
C10 C9 1_555 1_555
H6 C10 1_555 1_555
C11 C10 1_555 1_555
H7 C11 1_555 1_555
C12 N5 1_555 1_555
C13 N8 1_555 1_555
C14 N6 1_555 1_555
C15 C14 1_555 1_555
C16 C15 1_555 1_555
H8 C16 1_555 1_555
C17 C16 1_555 1_555
H9 C17 1_555 1_555
C18 C17 1_555 1_555
H10 C18 1_555 1_555
C19 N9 1_555 1_555
H11 C19 1_555 1_555
H13 O1 1_555 1_555
H14 O2 1_555 1_555
H15 O2 1_555 1_555
Cd1C N9 1_555 1_555
N9C Cd1 1_555 1_555
N3 C7 1_555 1_555
N7 C14 1_555 1_555
C4 C5 1_555 1_555
C4 C6 1_555 1_555
C7 C8 1_555 1_555
C11 C12 1_555 1_555
C12 C13 1_555 1_555
C15 C19 1_555 1_555

#END
