
#######################################################################
#
#                 Cambridge Crystallographic Data Centre
#                                CCDC 
#
#######################################################################
#
# If this CIF has been generated from an entry in the Cambridge 
# Structural Database, then it will include bibliographic, chemical, 
# crystal, experimental, refinement or atomic coordinate data resulting 
# from the CCDC's data processing and validation procedures.
#
#######################################################################

data_GOQYOC
_symmetry_cell_setting           monoclinic
_symmetry_space_group_name_H-M   'P 21/n'
_symmetry_Int_Tables_number      14
_space_group_name_Hall           '-P 2yn'
loop_
_symmetry_equiv_pos_site_id
_symmetry_equiv_pos_as_xyz
1 x,y,z
2 1/2-x,1/2+y,1/2-z
3 -x,-y,-z
4 1/2+x,1/2-y,1/2+z
_cell_length_a                   6.5775(3)
_cell_length_b                   18.6768(7)
_cell_length_c                   7.2947(3)
_cell_angle_alpha                90
_cell_angle_beta                 115.402(1)
_cell_angle_gamma                90
_cell_volume                     809.492
loop_
_atom_site_label
_atom_site_type_symbol
_atom_site_fract_x
_atom_site_fract_y
_atom_site_fract_z
Mn1 Mn 0.00000 0.50000 0.50000
Cl1 Cl 0.21903(4) 0.551527(14) 0.32101(4)
N1 N 0.33446(15) 0.49639(5) 0.78503(13)
H1 H 0.43976(15) 0.48507(5) 0.73993(13)
N2 N 0.08709(15) 0.38092(5) 0.44032(14)
C1 C -0.01927(19) 0.32369(6) 0.46974(17)
H2 H -0.12742(19) 0.33118(6) 0.51805(17)
C2 C 0.35323(18) 0.43989(6) 0.93375(16)
H3 H 0.24696(18) 0.44979(6) 0.99035(16)
H4 H 0.31337(18) 0.39413(6) 0.86448(16)
C3 C 0.2449(2) 0.36834(6) 0.37416(18)
H5 H 0.3212(2) 0.40715(6) 0.35351(18)
C4 C 0.1864(2) 0.24162(6) 0.36177(19)
H6 H 0.2178(2) 0.19541(6) 0.33383(19)
C5 C 0.41038(18) 0.56508(5) 0.89412(16)
H7 H 0.40842(18) 0.60165(5) 0.79895(16)
H8 H 0.30611(18) 0.57947(5) 0.94924(16)
C6 C 0.2999(2) 0.29986(7) 0.3349(2)
H9 H 0.4121(2) 0.29342(7) 0.2910(2)
C7 C 0.0244(2) 0.25416(6) 0.43162(19)
H10 H -0.0545(2) 0.21617(6) 0.45275(19)
N1B N 0.66554(15) 0.50361(5) 1.21497(13)
H1B H 0.56024(15) 0.51493(5) 1.26007(13)
C2B C 0.64677(18) 0.56011(6) 1.06625(16)
H3B H 0.75304(18) 0.55021(6) 1.00965(16)
H4B H 0.68663(18) 0.60587(6) 1.13552(16)
C5B C 0.58962(18) 0.43492(5) 1.10588(16)
H7B H 0.59158(18) 0.39835(5) 1.20105(16)
H8B H 0.69389(18) 0.42053(5) 1.05076(16)
Cl1B Cl -0.21903(4) 0.448473(14) 0.67899(4)
N2B N -0.08709(15) 0.61908(5) 0.55968(14)
C1B C 0.01927(19) 0.67631(6) 0.53026(17)
H2B H 0.12742(19) 0.66882(6) 0.48195(17)
C3B C -0.2449(2) 0.63166(6) 0.62584(18)
H5B H -0.3212(2) 0.59285(6) 0.64649(18)
C4B C -0.1864(2) 0.75838(6) 0.63823(19)
H6B H -0.2178(2) 0.80459(6) 0.66617(19)
C6B C -0.2999(2) 0.70014(7) 0.6651(2)
H9B H -0.4121(2) 0.70658(7) 0.7090(2)
C7B C -0.0244(2) 0.74584(6) 0.56838(19)
H10B H 0.0545(2) 0.78383(6) 0.54725(19)
Mn1_2 Mn 1.00000 0.50000 1.50000
N1B_2 N -0.33446(15) 0.50361(5) 0.21497(13)
loop_
_geom_bond_atom_site_label_1
_geom_bond_atom_site_label_2
_geom_bond_site_symmetry_1
_geom_bond_site_symmetry_2
Mn1 Cl1 1_555 1_555
N1 Mn1 1_555 1_555
H1 N1 1_555 1_555
N2 Mn1 1_555 1_555
C1 N2 1_555 1_555
H2 C1 1_555 1_555
C2 N1 1_555 1_555
H3 C2 1_555 1_555
H4 C2 1_555 1_555
C3 N2 1_555 1_555
H5 C3 1_555 1_555
C4 H6 1_555 1_555
C5 N1 1_555 1_555
H7 C5 1_555 1_555
H8 C5 1_555 1_555
C6 C3 1_555 1_555
H9 C6 1_555 1_555
C7 C1 1_555 1_555
H10 C7 1_555 1_555
N1B H1B 1_555 1_555
C2B C5 1_555 1_555
H3B C2B 1_555 1_555
H4B C2B 1_555 1_555
C5B C2 1_555 1_555
H7B C5B 1_555 1_555
H8B C5B 1_555 1_555
Cl1B Mn1 1_555 1_555
N2B Mn1 1_555 1_555
C1B N2B 1_555 1_555
H2B C1B 1_555 1_555
C3B N2B 1_555 1_555
H5B C3B 1_555 1_555
C4B H6B 1_555 1_555
C6B C3B 1_555 1_555
H9B C6B 1_555 1_555
C7B C1B 1_555 1_555
H10B C7B 1_555 1_555
Mn1_2 N1B 1_555 1_555
N1B_2 Mn1 1_555 1_555
C4 C6 1_555 1_555
C4 C7 1_555 1_555
N1B C2B 1_555 1_555
N1B C5B 1_555 1_555
C4B C6B 1_555 1_555
C4B C7B 1_555 1_555

#END
