
#######################################################################
#
#                 Cambridge Crystallographic Data Centre
#                                CCDC 
#
#######################################################################
#
# If this CIF has been generated from an entry in the Cambridge 
# Structural Database, then it will include bibliographic, chemical, 
# crystal, experimental, refinement or atomic coordinate data resulting 
# from the CCDC's data processing and validation procedures.
#
#######################################################################

data_GOQYUI
_symmetry_cell_setting           monoclinic
_symmetry_space_group_name_H-M   'P 21/n'
_symmetry_Int_Tables_number      14
_space_group_name_Hall           '-P 2yn'
loop_
_symmetry_equiv_pos_site_id
_symmetry_equiv_pos_as_xyz
1 x,y,z
2 1/2-x,1/2+y,1/2-z
3 -x,-y,-z
4 1/2+x,1/2-y,1/2+z
_cell_length_a                   6.5368(2)
_cell_length_b                   18.6052(5)
_cell_length_c                   7.2407(2)
_cell_angle_alpha                90
_cell_angle_beta                 115.716(1)
_cell_angle_gamma                90
_cell_volume                     793.384
loop_
_atom_site_label
_atom_site_type_symbol
_atom_site_fract_x
_atom_site_fract_y
_atom_site_fract_z
Fe1 Fe 0.000 0.500 1.0
Cl1 Cl 0.21246(4) 0.548727(13) 0.82195(4)
N1 N -0.33065(14) 0.50335(4) 0.71752(13)
N2 N 0.08630(15) 0.38277(5) 0.94328(13)
C1 C -0.02167(18) 0.32548(6) 0.97290(16)
C2 C -0.35343(17) 0.56057(5) 0.56782(15)
C3 C 0.24629(19) 0.36952(6) 0.87834(17)
C4 C 0.3008(2) 0.30056(6) 0.83970(19)
C5 C -0.40674(17) 0.43475(5) 0.60557(15)
C6 C 0.0219(2) 0.25542(6) 0.93564(18)
C7 C 0.1859(2) 0.24210(6) 0.86688(18)
H1 H -0.13087(18) 0.33331(6) 1.02070(16)
H2 H 0.32438(19) 0.40823(6) 0.85822(17)
H3 H 0.4137(2) 0.29383(6) 0.79585(19)
H4 H 0.2176(2) 0.19558(6) 0.84002(18)
H5 H -0.0584(2) 0.21753(6) 0.95663(18)
H6 H -0.43667(14) 0.51399(4) 0.76322(13)
H7 H -0.31392(17) 0.60640(5) 0.63849(15)
H8 H -0.24714(17) 0.55140(5) 0.50987(15)
H9 H -0.30233(17) 0.42107(5) 0.54901(15)
H10 H -0.40267(17) 0.39754(5) 0.70095(15)
N1B N -0.66935(14) 0.49665(4) 0.28248(13)
C2B C -0.64657(17) 0.43943(5) 0.43218(15)
C5B C -0.59326(17) 0.56525(5) 0.39443(15)
H6B H -0.56333(14) 0.48601(4) 0.23678(13)
H7B H -0.68608(17) 0.39360(5) 0.36151(15)
H8B H -0.75286(17) 0.44860(5) 0.49013(15)
H9B H -0.69767(17) 0.57893(5) 0.45099(15)
H10B H -0.59733(17) 0.60246(5) 0.29905(15)
N2B N -0.08630(15) 0.61723(5) 1.05672(13)
C1B C 0.02167(18) 0.67452(6) 1.02710(16)
C3B C -0.24629(19) 0.63048(6) 1.12166(17)
C4B C -0.3008(2) 0.69944(6) 1.16030(19)
C6B C -0.0219(2) 0.74458(6) 1.06436(18)
C7B C -0.1859(2) 0.75790(6) 1.13312(18)
H1B H 0.13087(18) 0.66669(6) 0.97930(16)
H2B H -0.32438(19) 0.59177(6) 1.14178(17)
H3B H -0.4137(2) 0.70617(6) 1.20415(19)
H4B H -0.2176(2) 0.80442(6) 1.15998(18)
H5B H 0.0584(2) 0.78247(6) 1.04337(18)
Cl1B Cl -0.21246(4) 0.451273(13) 1.17805(4)
Fe1_2 Fe -1.000 0.500 0.0
N1B_2 N 0.33065(14) 0.49665(4) 1.28248(13)
loop_
_geom_bond_atom_site_label_1
_geom_bond_atom_site_label_2
_geom_bond_site_symmetry_1
_geom_bond_site_symmetry_2
Fe1 Cl1 1_555 1_555
N1 Fe1 1_555 1_555
N2 Fe1 1_555 1_555
C1 N2 1_555 1_555
C2 N1 1_555 1_555
C3 N2 1_555 1_555
C4 C3 1_555 1_555
C5 N1 1_555 1_555
C6 C1 1_555 1_555
C7 C4 1_555 1_555
H1 C1 1_555 1_555
H2 C3 1_555 1_555
H3 C4 1_555 1_555
H4 C7 1_555 1_555
H5 C6 1_555 1_555
H6 N1 1_555 1_555
H7 C2 1_555 1_555
H8 C2 1_555 1_555
H9 C5 1_555 1_555
H10 C5 1_555 1_555
N1B C2B 1_555 1_555
C2B C5 1_555 1_555
C5B C2 1_555 1_555
H6B N1B 1_555 1_555
H7B C2B 1_555 1_555
H8B C2B 1_555 1_555
H9B C5B 1_555 1_555
H10B C5B 1_555 1_555
N2B Fe1 1_555 1_555
C1B N2B 1_555 1_555
C3B N2B 1_555 1_555
C4B C3B 1_555 1_555
C6B C1B 1_555 1_555
C7B C4B 1_555 1_555
H1B C1B 1_555 1_555
H2B C3B 1_555 1_555
H3B C4B 1_555 1_555
H4B C7B 1_555 1_555
H5B C6B 1_555 1_555
Cl1B Fe1 1_555 1_555
Fe1_2 N1B 1_555 1_555
N1B_2 Fe1 1_555 1_555
C6 C7 1_555 1_555
N1B C5B 1_555 1_555
C6B C7B 1_555 1_555

#END
