
#######################################################################
#
#                 Cambridge Crystallographic Data Centre
#                                CCDC 
#
#######################################################################
#
# If this CIF has been generated from an entry in the Cambridge 
# Structural Database, then it will include bibliographic, chemical, 
# crystal, experimental, refinement or atomic coordinate data resulting 
# from the CCDC's data processing and validation procedures.
#
#######################################################################

data_GOQZAP
_symmetry_cell_setting           monoclinic
_symmetry_space_group_name_H-M   'P 21/n'
_symmetry_Int_Tables_number      14
_space_group_name_Hall           '-P 2yn'
loop_
_symmetry_equiv_pos_site_id
_symmetry_equiv_pos_as_xyz
1 x,y,z
2 1/2-x,1/2+y,1/2-z
3 -x,-y,-z
4 1/2+x,1/2-y,1/2+z
_cell_length_a                   6.5371(3)
_cell_length_b                   18.5125(9)
_cell_length_c                   7.1863(3)
_cell_angle_alpha                90
_cell_angle_beta                 116.405(1)
_cell_angle_gamma                90
_cell_volume                     778.942
loop_
_atom_site_label
_atom_site_type_symbol
_atom_site_fract_x
_atom_site_fract_y
_atom_site_fract_z
Co1 Co 0.50000 0.50000 0.50000
Cl1 Cl 0.71318(4) 0.549232(15) 0.32179(4)
N1 N 0.41634(16) 0.61583(5) 0.55647(15)
N2 N 0.17373(16) 0.50371(5) 0.22020(15)
H1 H 0.06887(16) 0.51553(5) 0.26614(15)
C1 C 0.5220(2) 0.67372(7) 0.52493(18)
H2 H 0.6300(2) 0.66616(7) 0.47576(18)
C2 C 0.09244(19) 0.43447(6) 0.10861(17)
H3 H 0.19456(19) 0.41965(6) 0.05074(17)
H4 H 0.09709(19) 0.39767(6) 0.20649(17)
C3 C 0.2578(2) 0.62890(7) 0.62266(19)
H5 H 0.1815(2) 0.58981(7) 0.64416(19)
C4 C 0.2017(2) 0.69804(7) 0.6608(2)
H6 H 0.0893(2) 0.70453(7) 0.7052(2)
C5 C 0.15043(19) 0.56018(6) 0.06615(18)
H7 H 0.19390(19) 0.60646(6) 0.13618(18)
H8 H 0.25442(19) 0.54957(6) 0.00676(18)
C6 C 0.3144(2) 0.75700(7) 0.6321(2)
H9 H 0.2821(2) 0.80370(7) 0.6588(2)
C7 C 0.4772(2) 0.74399(7) 0.5623(2)
H10 H 0.5562(2) 0.78228(7) 0.5406(2)
N2B N -0.17373(16) 0.49629(5) -0.22020(15)
H1B H -0.06887(16) 0.48447(5) -0.26614(15)
C2B C -0.09244(19) 0.56553(6) -0.10861(17)
H3B H -0.19456(19) 0.58035(6) -0.05074(17)
H4B H -0.09709(19) 0.60233(6) -0.20649(17)
C5B C -0.15043(19) 0.43982(6) -0.06615(18)
H7B H -0.19390(19) 0.39354(6) -0.13618(18)
H8B H -0.25442(19) 0.45043(6) -0.00676(18)
N1B N 0.58366(16) 0.38417(5) 0.44353(15)
C1B C 0.4780(2) 0.32628(7) 0.47507(18)
H2B H 0.3700(2) 0.33384(7) 0.52424(18)
C3B C 0.7422(2) 0.37110(7) 0.37734(19)
H5B H 0.8185(2) 0.41019(7) 0.35584(19)
C4B C 0.7983(2) 0.30196(7) 0.3392(2)
H6B H 0.9107(2) 0.29547(7) 0.2948(2)
C6B C 0.6856(2) 0.24300(7) 0.3679(2)
H9B H 0.7179(2) 0.19630(7) 0.3412(2)
C7B C 0.5228(2) 0.25601(7) 0.4377(2)
H10B H 0.4438(2) 0.21772(7) 0.4594(2)
Cl1B Cl 0.28682(4) 0.450768(15) 0.67821(4)
Co1_2 Co -0.50000 0.50000 -0.50000
N2B_2 N 0.82627(16) 0.49629(5) 0.77980(15)
loop_
_geom_bond_atom_site_label_1
_geom_bond_atom_site_label_2
_geom_bond_site_symmetry_1
_geom_bond_site_symmetry_2
Co1 Cl1 1_555 1_555
N1 Co1 1_555 1_555
N2 Co1 1_555 1_555
H1 N2 1_555 1_555
C1 N1 1_555 1_555
H2 C1 1_555 1_555
C2 N2 1_555 1_555
H3 C2 1_555 1_555
H4 C2 1_555 1_555
C3 N1 1_555 1_555
H5 C3 1_555 1_555
C4 C3 1_555 1_555
H6 C4 1_555 1_555
C5 N2 1_555 1_555
H7 C5 1_555 1_555
H8 C5 1_555 1_555
C6 C4 1_555 1_555
H9 C6 1_555 1_555
C7 C1 1_555 1_555
H10 C7 1_555 1_555
N2B H1B 1_555 1_555
C2B C5 1_555 1_555
H3B C2B 1_555 1_555
H4B C2B 1_555 1_555
C5B C2 1_555 1_555
H7B C5B 1_555 1_555
H8B C5B 1_555 1_555
N1B Co1 1_555 1_555
C1B N1B 1_555 1_555
H2B C1B 1_555 1_555
C3B N1B 1_555 1_555
H5B C3B 1_555 1_555
C4B C3B 1_555 1_555
H6B C4B 1_555 1_555
C6B C4B 1_555 1_555
H9B C6B 1_555 1_555
C7B C1B 1_555 1_555
H10B C7B 1_555 1_555
Cl1B Co1 1_555 1_555
Co1_2 N2B 1_555 1_555
N2B_2 Co1 1_555 1_555
C6 C7 1_555 1_555
N2B C2B 1_555 1_555
N2B C5B 1_555 1_555
C6B C7B 1_555 1_555

#END
