
#######################################################################
#
#                 Cambridge Crystallographic Data Centre
#                                CCDC 
#
#######################################################################
#
# If this CIF has been generated from an entry in the Cambridge 
# Structural Database, then it will include bibliographic, chemical, 
# crystal, experimental, refinement or atomic coordinate data resulting 
# from the CCDC's data processing and validation procedures.
#
#######################################################################

data_GORFIE
_symmetry_cell_setting           triclinic
_symmetry_space_group_name_H-M   'P -1'
_symmetry_Int_Tables_number      2
_space_group_name_Hall           '-P 1'
loop_
_symmetry_equiv_pos_site_id
_symmetry_equiv_pos_as_xyz
1 x,y,z
2 -x,-y,-z
_cell_length_a                   7.6683(15)
_cell_length_b                   8.8264(18)
_cell_length_c                   14.996(3)
_cell_angle_alpha                78.42(3)
_cell_angle_beta                 79.89(3)
_cell_angle_gamma                81.62(3)
_cell_volume                     972.436
loop_
_atom_site_label
_atom_site_type_symbol
_atom_site_fract_x
_atom_site_fract_y
_atom_site_fract_z
Cd1 Cd 0.82548(2) 0.39113(2) 0.319800(13)
O1 O 1.1158(3) 0.2624(3) 0.27800(17)
N1 N 0.5584(3) 0.5108(3) 0.37937(18)
N2 N 0.7294(3) 0.2762(3) 0.21347(16)
C1 C 0.4101(4) 0.5541(3) 0.39389(19)
C2 C 0.1144(4) 0.5619(4) 0.39355(19)
N3 N 0.8341(3) 0.5611(3) 0.17527(16)
C3 C 0.7820(4) 0.5114(3) 0.1063(2)
C4 C 0.8929(4) 0.7000(4) 0.1590(2)
H1 H 0.9273 0.7346 0.2073
C5 C 0.7765(5) 0.0723(4) 0.4747(2)
H2 H 0.8132 0.1308 0.5116
N4 N 0.7541(3) 0.1396(3) 0.38902(17)
N5 N 0.2477(3) 0.6141(4) 0.4158(2)
C6 C 0.6771(4) 0.1333(3) 0.2403(2)
N6 N -0.0122(3) 0.5261(4) 0.37825(19)
C7 C 0.6990(4) 0.0564(3) 0.3357(2)
C8 C 0.7192(4) 0.3546(4) 0.1282(2)
C9 C 0.7890(5) 0.6030(4) 0.0187(2)
H3 H 0.7513 0.5685 -0.0287
C10 C 0.8527(5) 0.7450(4) 0.0035(3)
H4 H 0.8599 0.8072 -0.0546
C11 C 0.6097(4) 0.0649(4) 0.1805(3)
H5 H 0.5723 -0.0337 0.1993
C12 C 0.6547(5) 0.2900(4) 0.0653(2)
H6 H 0.6495 0.3441 0.0057
C13 C 0.9050(5) 0.7942(4) 0.0740(3)
H7 H 0.9482 0.8902 0.0646
C14 C 0.6932(5) -0.1653(4) 0.4573(3)
H8 H 0.6738 -0.2686 0.4798
C15 C 0.5990(5) 0.1454(5) 0.0925(3)
H9 H 0.5536 0.1011 0.0514
C16 C 0.7479(5) -0.0804(4) 0.5113(3)
H10 H 0.7656 -0.1239 0.5713
C17 C 0.6668(5) -0.0974(4) 0.3691(3)
H11 H 0.6275 -0.1540 0.3319
H12 H 1.1263 0.1852 0.2573
H13 H 1.2059 0.3332 0.2406
Cd1_2 Cd -0.17452(2) 0.39113(2) 0.319800(13)
N6_2 N 0.9878(3) 0.5261(4) 0.37825(19)
C18 C 0.3394(4) 0.6308(4) 0.1786(2)
N7 N 0.3700(4) 0.7750(4) 0.1681(3)
C19 C 0.2457(5) 0.8819(4) 0.1908(3)
N8 N 0.3247(4) 0.5021(4) 0.1825(2)
N9 N 0.1465(5) 0.9867(4) 0.2057(3)
loop_
_geom_bond_atom_site_label_1
_geom_bond_atom_site_label_2
_geom_bond_site_symmetry_1
_geom_bond_site_symmetry_2
Cd1 O1 1_555 1_555
O1 H12 1_555 1_555
N1 Cd1 1_555 1_555
N2 Cd1 1_555 1_555
C1 N1 1_555 1_555
C2 N5 1_555 1_555
N3 Cd1 1_555 1_555
C3 N3 1_555 1_555
C4 N3 1_555 1_555
H1 C4 1_555 1_555
C5 H2 1_555 1_555
N4 Cd1 1_555 1_555
N5 C1 1_555 1_555
C6 N2 1_555 1_555
N6 C2 1_555 1_555
C7 N4 1_555 1_555
C8 N2 1_555 1_555
C9 C3 1_555 1_555
H3 C9 1_555 1_555
C10 C9 1_555 1_555
H4 C10 1_555 1_555
C11 C6 1_555 1_555
H5 C11 1_555 1_555
C12 C8 1_555 1_555
H6 C12 1_555 1_555
C13 C4 1_555 1_555
H7 C13 1_555 1_555
C14 H8 1_555 1_555
C15 C11 1_555 1_555
H9 C15 1_555 1_555
C16 C5 1_555 1_555
H10 C16 1_555 1_555
C17 C7 1_555 1_555
H11 C17 1_555 1_555
H13 O1 1_555 1_555
C18 N7 1_555 1_555
N7 C19 1_555 1_555
C19 N9 1_555 1_555
N8 C18 1_555 1_555
Cd1_2 N6 1_555 1_555
N6_2 Cd1 1_555 1_555
C3 C8 1_555 1_555
C5 N4 1_555 1_555
C6 C7 1_555 1_555
C10 C13 1_555 1_555
C12 C15 1_555 1_555
C14 C16 1_555 1_555
C14 C17 1_555 1_555

#END
