
#######################################################################
#
#                 Cambridge Crystallographic Data Centre
#                                CCDC 
#
#######################################################################
#
# If this CIF has been generated from an entry in the Cambridge 
# Structural Database, then it will include bibliographic, chemical, 
# crystal, experimental, refinement or atomic coordinate data resulting 
# from the CCDC's data processing and validation procedures.
#
#######################################################################

data_GOSGEA
_symmetry_cell_setting           monoclinic
_symmetry_space_group_name_H-M   'C 2/c'
_symmetry_Int_Tables_number      15
_space_group_name_Hall           '-C 2yn'
loop_
_symmetry_equiv_pos_site_id
_symmetry_equiv_pos_as_xyz
1 x,y,z
2 1/2+x,1/2+y,z
3 x,-y,1/2+z
4 1/2+x,1/2-y,1/2+z
5 -x,-y,-z
6 1/2-x,1/2-y,-z
7 -x,y,1/2-z
8 1/2-x,1/2+y,1/2-z
_cell_length_a                   10.884(2)
_cell_length_b                   16.713(4)
_cell_length_c                   9.307(2)
_cell_angle_alpha                90
_cell_angle_beta                 113.199(5)
_cell_angle_gamma                90
_cell_volume                     1556.09
loop_
_atom_site_label
_atom_site_type_symbol
_atom_site_fract_x
_atom_site_fract_y
_atom_site_fract_z
Br1 Br 0.80653(3) 0.115008(19) 0.12243(3)
Cu1 Cu 1.02283(4) 0.15851(2) 0.12511(4)
N1 N 1.0716(2) 0.27208(17) 0.0815(3)
N2 N 1.0239(3) 0.14103(17) -0.0928(3)
C1 C 1.1231(3) 0.3305(2) 0.1855(4)
C2 C 1.1711(3) 0.4015(2) 0.1495(4)
C3 C 1.1727(3) 0.4098(2) 0.0017(4)
C4 C 1.1266(3) 0.34782(19) -0.1040(4)
C5 C 1.0721(3) 0.28075(18) -0.0629(3)
C6 C 1.0210(3) 0.21083(19) -0.1677(3)
C7 C 1.0054(3) 0.0731(2) -0.1727(3)
H1 H 1.129(3) 0.324(2) 0.286(5)
H2 H 1.200(4) 0.443(3) 0.229(5)
H3 H 1.208(4) 0.449(3) -0.020(5)
H4 H 1.129(4) 0.353(3) -0.199(6)
H5 H 1.011(4) 0.025(3) -0.110(5)
Br1F Br 1.19347(3) 0.115008(19) 0.37757(3)
Cu1F Cu 0.97717(4) 0.15851(2) 0.37489(4)
N1F N 0.9284(2) 0.27208(17) 0.4185(3)
N2F N 0.9761(3) 0.14103(17) 0.5928(3)
C6F C 0.9790(3) 0.21083(19) -0.3323(3)
C7F C 0.9946(3) 0.0731(2) -0.3273(3)
N2F_2 N 0.9761(3) 0.14103(17) -0.4072(3)
Cu1F_2 Cu 0.97717(4) 0.15851(2) -0.62511(4)
N1F_2 N 0.9284(2) 0.27208(17) -0.5815(3)
C1F C 0.8769(3) 0.3305(2) -0.6855(4)
C2F C 0.8289(3) 0.4015(2) -0.6495(4)
C3F C 0.8273(3) 0.4098(2) -0.5017(4)
C4F C 0.8734(3) 0.34782(19) -0.3960(4)
C5F C 0.9279(3) 0.28075(18) -0.4371(3)
H4F H 0.871(4) 0.353(3) -0.301(6)
H3F H 0.792(4) 0.449(3) -0.480(5)
H2F H 0.800(4) 0.443(3) -0.729(5)
H1F H 0.871(3) 0.324(2) -0.786(5)
H5F H 0.989(4) 0.025(3) -0.390(5)
loop_
_geom_bond_atom_site_label_1
_geom_bond_atom_site_label_2
_geom_bond_site_symmetry_1
_geom_bond_site_symmetry_2
Br1 Cu1 1_555 1_555
Cu1 N1 1_555 1_555
N1 C1 1_555 1_555
N2 Cu1 1_555 1_555
C1 C2 1_555 1_555
C2 C3 1_555 1_555
C3 C4 1_555 1_555
C4 C5 1_555 1_555
C5 N1 1_555 1_555
C6 N2 1_555 1_555
C7 N2 1_555 1_555
H1 C1 1_555 1_555
H2 C2 1_555 1_555
H3 C3 1_555 1_555
H4 C4 1_555 1_555
H5 C7 1_555 1_555
Br1F Cu1 1_555 1_555
Cu1F Br1 1_555 1_555
N1F Cu1F 1_555 1_555
N2F Cu1F 1_555 1_555
C6F C6 1_555 1_555
C7F C7 1_555 1_555
N2F_2 C6F 1_555 1_555
Cu1F_2 N2F_2 1_555 1_555
N1F_2 Cu1F_2 1_555 1_555
C1F N1F_2 1_555 1_555
C2F C1F 1_555 1_555
C3F C2F 1_555 1_555
C4F C3F 1_555 1_555
C5F C6F 1_555 1_555
H4F C4F 1_555 1_555
H3F C3F 1_555 1_555
H2F C2F 1_555 1_555
H1F C1F 1_555 1_555
H5F C7F 1_555 1_555
C5 C6 1_555 1_555
Br1F Cu1F 1_555 1_555
C7F N2F_2 1_555 1_555
N1F_2 C5F 1_555 1_555
C4F C5F 1_555 1_555

#END
