
#######################################################################
#
#                 Cambridge Crystallographic Data Centre
#                                CCDC 
#
#######################################################################
#
# If this CIF has been generated from an entry in the Cambridge 
# Structural Database, then it will include bibliographic, chemical, 
# crystal, experimental, refinement or atomic coordinate data resulting 
# from the CCDC's data processing and validation procedures.
#
#######################################################################

data_GOSSEM
_symmetry_cell_setting           monoclinic
_symmetry_space_group_name_H-M   'P n'
_symmetry_Int_Tables_number      7
_space_group_name_Hall           'P -2yac'
loop_
_symmetry_equiv_pos_site_id
_symmetry_equiv_pos_as_xyz
1 x,y,z
2 1/2+x,-y,1/2+z
_cell_length_a                   11.3602(6)
_cell_length_b                   22.7707(13)
_cell_length_c                   15.8580(9)
_cell_angle_alpha                90
_cell_angle_beta                 93.9560(10)
_cell_angle_gamma                90
_cell_volume                     4092.37
loop_
_atom_site_label
_atom_site_type_symbol
_atom_site_fract_x
_atom_site_fract_y
_atom_site_fract_z
Ni1 Ni -0.15487(11) 0.48775(3) 0.09083(9)
Ni2 Ni -0.14102(11) 0.98784(3) 0.08234(9)
O1 O -0.1857(5) 0.4944(2) -0.0416(3)
O2 O -0.1376(5) 0.5347(3) -0.1545(4)
O3 O -0.0538(6) 0.4581(3) -0.1152(5)
O4 O -0.1567(4) 0.4792(2) 0.2218(3)
O5 O -0.2037(5) 0.5139(3) 0.3416(4)
O6 O -0.0232(4) 0.5164(2) 0.3115(3)
O7 O -0.1104(4) 0.9943(2) 0.2119(3)
O8 O -0.2481(4) 0.9578(2) 0.2849(3)
O9 O -0.1371(7) 1.0263(4) 0.3355(4)
O10 O -0.1452(4) 0.9793(2) -0.0503(3)
O11 O -0.0948(5) 1.0213(3) -0.1628(3)
O12 O -0.2721(6) 1.0180(3) -0.1367(4)
N1 N -0.1508(4) 0.5816(2) 0.0967(3)
N2 N -0.1409(4) 0.8935(2) 0.0863(3)
N3 N -0.1370(5) 1.0811(2) 0.0807(4)
N4 N -0.1523(4) 1.3940(2) 0.0895(3)
N5 N 0.0323(4) 0.4910(2) 0.0938(4)
N6 N 0.6572(4) 0.4895(2) 0.0911(3)
N7 N 0.6749(5) 0.9906(2) 0.0817(4)
N8 N 0.0482(5) 0.9904(2) 0.0840(4)
N9 N -0.1239(5) 0.4929(2) -0.1058(4)
N10 N -0.1257(4) 0.5063(2) 0.2926(4)
N11 N -0.1604(6) 0.9978(3) 0.2799(4)
N12 N -0.1558(7) 1.0010(3) -0.1165(4)
C1 C -0.0896(6) 0.6109(3) 0.1520(4)
H1 H -0.0466(6) 0.5906(3) 0.1947(4)
C2 C -0.0837(6) 0.6719(3) 0.1516(4)
H2 H -0.0336(6) 0.6907(3) 0.1919(4)
C3 C -0.1482(5) 0.7046(2) 0.0949(4)
C4 C -0.2184(5) 0.6724(3) 0.0305(4)
H3 H -0.2604(5) 0.6921(3) -0.0133(4)
C5 C -0.2213(6) 0.6124(3) 0.0359(4)
H4 H -0.2715(6) 0.5915(3) -0.0020(4)
C6 C -0.1500(6) 0.7692(3) 0.0903(5)
C7 C -0.1318(5) 0.8040(2) 0.1651(4)
H5 H -0.1206(5) 0.7866(2) 0.2181(4)
C8 C -0.1316(6) 0.8644(3) 0.1561(4)
H6 H -0.1238(6) 0.8864(3) 0.2056(4)
C9 C -0.1593(6) 0.7995(2) 0.0166(4)
H7 H -0.1694(6) 0.7785(2) -0.0337(4)
C10 C -0.1545(6) 0.8603(3) 0.0126(4)
H8 H -0.1603(6) 0.8790(3) -0.0397(4)
C11 C -0.0788(6) 1.1120(3) 0.1364(4)
H9 H -0.0346(6) 1.0921(3) 0.1790(4)
C12 C -0.0763(6) 1.1731(3) 0.1382(4)
H10 H -0.0271(6) 1.1920(3) 0.1790(4)
C13 C -0.1420(6) 1.2050(3) 0.0837(4)
C14 C -0.2086(6) 1.1738(3) 0.0171(4)
H11 H -0.2510(6) 1.1936(3) -0.0264(4)
C15 C -0.2068(6) 1.1141(3) 0.0205(4)
H12 H -0.2545(6) 1.0936(3) -0.0195(4)
C16 C -0.1498(6) 1.2707(2) 0.0825(4)
C17 C -0.1609(6) 1.3027(3) 0.0117(4)
H13 H -0.1670(6) 1.2834(3) -0.0401(4)
C18 C -0.1636(6) 1.3637(3) 0.0127(4)
H14 H -0.1730(6) 1.3844(3) -0.0379(4)
C19 C -0.1360(6) 1.3017(3) 0.1604(4)
H15 H -0.1248(6) 1.2819(3) 0.2117(4)
C20 C -0.1398(6) 1.3616(2) 0.1570(4)
H16 H -0.1326(6) 1.3813(2) 0.2084(4)
C21 C 0.0871(6) 0.5200(3) 0.0313(5)
H17 H 0.0400(6) 0.5391(3) -0.0105(5)
C22 C 0.2065(6) 0.5226(3) 0.0269(4)
H18 H 0.2397(6) 0.5414(3) -0.0178(4)
C23 C 0.2784(6) 0.4957(3) 0.0925(4)
C24 C 0.2210(6) 0.4655(3) 0.1567(5)
H19 H 0.2643(6) 0.4465(3) 0.2004(5)
C25 C 0.0964(5) 0.4653(3) 0.1522(4)
H20 H 0.0589(5) 0.4454(3) 0.1940(4)
C26 C 0.4120(5) 0.4946(2) 0.0929(4)
C27 C 0.4653(6) 0.4762(3) 0.0208(4)
H21 H 0.4190(6) 0.4654(3) -0.0274(4)
C28 C 0.5831(6) 0.4740(3) 0.0209(4)
H22 H 0.6168(6) 0.4616(3) -0.0279(4)
C29 C 0.4802(6) 0.5103(3) 0.1595(5)
H23 H 0.4461(6) 0.5223(3) 0.2083(5)
C30 C 0.6035(5) 0.5091(2) 0.1582(4)
H24 H 0.6493(5) 0.5222(2) 0.2053(4)
C31 C 0.6000(6) 0.9648(3) 0.0190(5)
H25 H 0.6333(6) 0.9444(3) -0.0243(5)
C32 C 0.4819(6) 0.9680(3) 0.0183(5)
H26 H 0.4365(6) 0.9520(3) -0.0271(5)
C33 C 0.4266(5) 0.9940(3) 0.0818(5)
C34 C 0.1163(5) 0.9750(3) 0.1482(4)
H27 H 0.0809(5) 0.9617(3) 0.1958(4)
C35 C 0.2424(6) 0.9768(3) 0.1523(5)
H28 H 0.2861(6) 0.9662(3) 0.2017(5)
C36 C 0.2988(6) 0.9946(3) 0.0820(4)
C37 C 0.2223(6) 1.0117(3) 0.0081(4)
H29 H 0.2534(6) 1.0244(3) -0.0415(4)
C38 C 0.1022(6) 1.0080(3) 0.0148(5)
H30 H 0.0539(6) 1.0187(3) -0.0324(5)
C39 C 0.4980(6) 1.0210(3) 0.1414(5)
H31 H 0.4648(6) 1.0414(3) 0.1847(5)
C40 C 0.6208(6) 1.0191(3) 0.1392(4)
H32 H 0.6663(6) 1.0391(3) 0.1808(4)
N4_2 N -0.1523(4) 0.3940(2) 0.0895(3)
Ni1_2 Ni -0.15487(11) 1.48775(3) 0.09083(9)
N6_2 N -0.3428(4) 0.4895(2) 0.0911(3)
Ni1_3 Ni 0.84513(11) 0.48775(3) 0.09083(9)
Ni2_2 Ni 0.85898(11) 0.98784(3) 0.08234(9)
N7_2 N -0.3251(5) 0.9906(2) 0.0817(4)
C41 C -0.5245(8) -1.7620(4) 0.9013(6)
C42 C -0.5576(7) -1.7016(4) 0.9198(5)
H33 H -0.6190(7) -1.6937(4) 0.9540(5)
C43 C -0.4993(8) -1.6593(4) 0.8874(6)
H34 H -0.5249(8) -1.6211(4) 0.8957(6)
C44 C -0.3974(7) -1.6676(3) 0.8393(5)
C45 C -0.3350(8) -1.6200(4) 0.8015(6)
H35 H -0.3577(8) -1.5811(4) 0.8084(6)
C46 C -0.2369(8) -1.6347(4) 0.7530(6)
H36 H -0.1910(8) -1.6047(4) 0.7329(6)
C47 C -0.2097(7) -1.6902(4) 0.7361(5)
H37 H -0.1485(7) -1.6974(4) 0.7014(5)
C48 C -0.2690(7) -1.7372(4) 0.7679(6)
C49 C -0.2379(8) -1.7970(5) 0.7568(6)
H38 H -0.1729(8) -1.8052(5) 0.7262(6)
C50 C -0.2984(7) -1.8433(3) 0.7886(5)
H39 H -0.2763(7) -1.8816(3) 0.7770(5)
C51 C -0.3963(8) -1.8328(4) 0.8401(6)
C52 C -0.4639(9) -1.8767(4) 0.8697(6)
H40 H -0.4488(9) -1.9154(4) 0.8548(6)
C53 C -0.5498(9) -1.8657(6) 0.9187(7)
H41 H -0.5878(9) -1.8968(6) 0.9435(7)
C54 C -0.5853(8) -1.8074(5) 0.9343(7)
H42 H -0.6491(8) -1.8001(5) 0.9665(7)
C55 C -0.3653(6) -1.7268(3) 0.8201(5)
C56 C -0.4284(7) -1.7744(4) 0.8535(5)
C57 C -0.3661(7) -1.7639(4) 0.5300(6)
H43 H -0.3657(7) -1.7442(4) 0.5814(6)
C58 C -0.3477(7) -1.8213(4) 0.5308(6)
H44 H -0.3286(7) -1.8398(4) 0.5822(6)
C59 C -0.3558(7) -1.8548(4) 0.4577(6)
H45 H -0.3459(7) -1.8953(4) 0.4601(6)
C60 C -0.3791(7) -1.8266(3) 0.3810(5)
C61 C -0.3815(7) -1.8571(4) 0.3003(6)
H46 H -0.3696(7) -1.8975(4) 0.3013(6)
C62 C -0.3990(6) -1.8319(3) 0.2267(6)
H47 H -0.4039(6) -1.8546(3) 0.1779(6)
C63 C -0.4115(7) -1.7658(3) 0.2206(6)
C64 C -0.4349(8) -1.7393(3) 0.1447(6)
H48 H -0.4428(8) -1.7614(3) 0.0953(6)
C65 C -0.4473(7) -1.6767(4) 0.1419(6)
H49 H -0.4574(7) -1.6571(4) 0.0905(6)
C66 C -0.4440(7) -1.6463(3) 0.2166(6)
H50 H -0.4534(7) -1.6058(3) 0.2146(6)
C67 C -0.4268(7) -1.6737(3) 0.2971(5)
C68 C -0.4233(7) -1.6413(3) 0.3747(6)
H51 H -0.4311(7) -1.6007(3) 0.3747(6)
C69 C -0.4080(7) -1.6724(4) 0.4497(5)
H52 H -0.4129(7) -1.6519(4) 0.5000(5)
C70 C -0.3865(7) -1.7305(3) 0.4540(5)
C71 C -0.3897(6) -1.7660(3) 0.3772(5)
C72 C -0.4066(7) -1.7360(3) 0.2984(6)
C73 C -0.7211(7) -1.8265(5) 0.2493(6)
H53 H -0.6545(7) -1.8256(5) 0.2183(6)
C74 C -0.7728(7) -1.8801(3) 0.2664(5)
H54 H -0.7386(7) -1.9143(3) 0.2475(5)
C75 C -0.8755(7) -1.8843(2) 0.3114(4)
H55 H -0.9091(7) -1.9206(2) 0.3221(4)
C76 C -0.9263(6) -1.8309(3) 0.3401(4)
C77 C -1.0369(7) -1.8287(3) 0.3831(6)
H56 H -1.0778(7) -1.8633(3) 0.3924(6)
C78 C -1.0786(8) -1.7777(4) 0.4087(5)
H57 H -1.1472(8) -1.7783(4) 0.4374(5)
C79 C -1.0261(8) -1.7226(4) 0.3953(5)
C80 C -1.0720(8) -1.6686(3) 0.4190(5)
H58 H -1.1407(8) -1.6670(3) 0.4477(5)
C81 C -1.0145(8) -1.6180(4) 0.3995(5)
H59 H -1.0449(8) -1.5818(4) 0.4147(5)
C82 C -0.9146(9) -1.6200(4) 0.3586(6)
H60 H -0.8776(9) -1.5846(4) 0.3475(6)
C83 C -0.8661(7) -1.6688(3) 0.3333(5)
C84 C -0.7634(8) -1.6686(4) 0.2889(5)
H61 H -0.7268(8) -1.6330(4) 0.2786(5)
C85 C -0.7172(7) -1.7180(4) 0.2614(5)
H62 H -0.6504(7) -1.7162(4) 0.2307(5)
C86 C -0.7677(6) -1.7737(4) 0.2779(5)
C87 C -0.8722(6) -1.7760(3) 0.3227(4)
C88 C -0.9225(7) -1.7232(4) 0.3504(5)
C89 C -0.8657(7) -1.7414(4) 1.0289(6)
H63 H -0.8657(7) -1.7626(4) 1.0790(6)
C90 C -0.8482(7) -1.6844(4) 1.0333(5)
H64 H -0.8287(7) -1.6674(4) 1.0858(5)
C91 C -0.8584(7) -1.6473(3) 0.9592(6)
H65 H -0.8510(7) -1.6067(3) 0.9629(6)
C92 C -0.8792(7) -1.6747(4) 0.8848(5)
C93 C -0.8823(7) -1.6416(3) 0.8029(6)
H66 H -0.8699(7) -1.6012(3) 0.8050(6)
C94 C -0.9015(6) -1.6662(3) 0.7288(5)
H67 H -0.9078(6) -1.6426(3) 0.6808(5)
C95 C -0.9136(6) -1.7319(3) 0.7189(5)
C96 C -0.9396(8) -1.7585(4) 0.6430(6)
H68 H -0.9509(8) -1.7361(4) 0.5940(6)
C97 C -0.9497(7) -1.8214(3) 0.6389(6)
H69 H -0.9603(7) -1.8404(3) 0.5871(6)
C98 C -0.9434(7) -1.8522(3) 0.7118(5)
H70 H -0.9520(7) -1.8928(3) 0.7082(5)
C99 C -0.9245(6) -1.8270(3) 0.7941(5)
C100 C -0.9173(6) -1.8595(3) 0.8682(5)
H71 H -0.9217(6) -1.9002(3) 0.8662(5)
C101 C -0.9036(7) -1.8308(4) 0.9455(5)
H72 H -0.9075(7) -1.8524(4) 0.9949(5)
C102 C -0.8846(7) -1.7722(3) 0.9509(5)
C103 C -0.9070(7) -1.7633(3) 0.7984(6)
C104 C -0.8890(6) -1.7351(3) 0.8785(5)
loop_
_geom_bond_atom_site_label_1
_geom_bond_atom_site_label_2
_geom_bond_site_symmetry_1
_geom_bond_site_symmetry_2
Ni1 O1 1_555 1_555
Ni2 O7 1_555 1_555
O1 N9 1_555 1_555
O2 N9 1_555 1_555
O3 N9 1_555 1_555
O4 Ni1 1_555 1_555
O5 N10 1_555 1_555
O6 N10 1_555 1_555
O7 N11 1_555 1_555
O8 N11 1_555 1_555
O9 N11 1_555 1_555
O10 Ni2 1_555 1_555
O11 N12 1_555 1_555
O12 N12 1_555 1_555
N1 Ni1 1_555 1_555
N2 Ni2 1_555 1_555
N3 Ni2 1_555 1_555
N4 C18 1_555 1_555
N5 Ni1 1_555 1_555
N6 C28 1_555 1_555
N7 C31 1_555 1_555
N8 Ni2 1_555 1_555
N10 O4 1_555 1_555
N12 O10 1_555 1_555
C1 N1 1_555 1_555
H1 C1 1_555 1_555
C2 C1 1_555 1_555
H2 C2 1_555 1_555
C3 C2 1_555 1_555
C4 C3 1_555 1_555
H3 C4 1_555 1_555
C5 N1 1_555 1_555
H4 C5 1_555 1_555
C6 C3 1_555 1_555
C7 C6 1_555 1_555
H5 C7 1_555 1_555
C8 N2 1_555 1_555
H6 C8 1_555 1_555
C9 C6 1_555 1_555
H7 C9 1_555 1_555
C10 N2 1_555 1_555
H8 C10 1_555 1_555
C11 N3 1_555 1_555
H9 C11 1_555 1_555
C12 C11 1_555 1_555
H10 C12 1_555 1_555
C13 C12 1_555 1_555
C14 C13 1_555 1_555
H11 C14 1_555 1_555
C15 N3 1_555 1_555
H12 C15 1_555 1_555
C16 C13 1_555 1_555
C17 C16 1_555 1_555
H13 C17 1_555 1_555
C18 C17 1_555 1_555
H14 C18 1_555 1_555
C19 C16 1_555 1_555
H15 C19 1_555 1_555
C20 N4 1_555 1_555
H16 C20 1_555 1_555
C21 N5 1_555 1_555
H17 C21 1_555 1_555
C22 C21 1_555 1_555
H18 C22 1_555 1_555
C23 C22 1_555 1_555
C24 C23 1_555 1_555
H19 C24 1_555 1_555
C25 N5 1_555 1_555
H20 C25 1_555 1_555
C26 C23 1_555 1_555
C27 C26 1_555 1_555
H21 C27 1_555 1_555
C28 C27 1_555 1_555
H22 C28 1_555 1_555
C29 C26 1_555 1_555
H23 C29 1_555 1_555
C30 N6 1_555 1_555
H24 C30 1_555 1_555
C31 H25 1_555 1_555
C32 C31 1_555 1_555
H26 C32 1_555 1_555
C33 C32 1_555 1_555
C34 N8 1_555 1_555
H27 C34 1_555 1_555
C35 C34 1_555 1_555
H28 C35 1_555 1_555
C36 C33 1_555 1_555
C37 C36 1_555 1_555
H29 C37 1_555 1_555
C38 N8 1_555 1_555
H30 C38 1_555 1_555
C39 C33 1_555 1_555
H31 C39 1_555 1_555
C40 N7 1_555 1_555
H32 C40 1_555 1_555
C41 C42 1_555 1_555
C42 H33 1_555 1_555
C43 C42 1_555 1_555
H34 C43 1_555 1_555
C44 C43 1_555 1_555
C45 C44 1_555 1_555
H35 C45 1_555 1_555
C46 C45 1_555 1_555
H36 C46 1_555 1_555
C47 C46 1_555 1_555
H37 C47 1_555 1_555
C48 C47 1_555 1_555
C49 C48 1_555 1_555
H38 C49 1_555 1_555
C50 C49 1_555 1_555
H39 C50 1_555 1_555
C51 C50 1_555 1_555
C52 C51 1_555 1_555
H40 C52 1_555 1_555
C53 C52 1_555 1_555
H41 C53 1_555 1_555
C54 C41 1_555 1_555
H42 C54 1_555 1_555
C55 C44 1_555 1_555
C56 C41 1_555 1_555
C57 H43 1_555 1_555
C58 C57 1_555 1_555
H44 C58 1_555 1_555
C59 C58 1_555 1_555
H45 C59 1_555 1_555
C60 C59 1_555 1_555
C61 C60 1_555 1_555
H46 C61 1_555 1_555
C62 C61 1_555 1_555
H47 C62 1_555 1_555
C63 C62 1_555 1_555
C64 C63 1_555 1_555
H48 C64 1_555 1_555
C65 C64 1_555 1_555
H49 C65 1_555 1_555
C66 C65 1_555 1_555
H50 C66 1_555 1_555
C67 C66 1_555 1_555
C68 C67 1_555 1_555
H51 C68 1_555 1_555
C69 C68 1_555 1_555
H52 C69 1_555 1_555
C70 C57 1_555 1_555
C71 C60 1_555 1_555
C72 C63 1_555 1_555
C73 H53 1_555 1_555
C74 C73 1_555 1_555
H54 C74 1_555 1_555
C75 C74 1_555 1_555
H55 C75 1_555 1_555
C76 C75 1_555 1_555
C77 C76 1_555 1_555
H56 C77 1_555 1_555
C78 C77 1_555 1_555
H57 C78 1_555 1_555
C79 C78 1_555 1_555
C80 C79 1_555 1_555
H58 C80 1_555 1_555
C81 C80 1_555 1_555
H59 C81 1_555 1_555
C82 C81 1_555 1_555
H60 C82 1_555 1_555
C83 C82 1_555 1_555
C84 C83 1_555 1_555
H61 C84 1_555 1_555
C85 C84 1_555 1_555
H62 C85 1_555 1_555
C86 C73 1_555 1_555
C87 C76 1_555 1_555
C88 C79 1_555 1_555
C89 H63 1_555 1_555
C90 C89 1_555 1_555
H64 C90 1_555 1_555
C91 C90 1_555 1_555
H65 C91 1_555 1_555
C92 C91 1_555 1_555
C93 C92 1_555 1_555
H66 C93 1_555 1_555
C94 C93 1_555 1_555
H67 C94 1_555 1_555
C95 C94 1_555 1_555
C96 C95 1_555 1_555
H68 C96 1_555 1_555
C97 C96 1_555 1_555
H69 C97 1_555 1_555
C98 C97 1_555 1_555
H70 C98 1_555 1_555
C99 C98 1_555 1_555
C100 C99 1_555 1_555
H71 C100 1_555 1_555
C101 C100 1_555 1_555
H72 C101 1_555 1_555
C102 C89 1_555 1_555
C103 C95 1_555 1_555
C104 C92 1_555 1_555
N4_2 Ni1 1_555 1_555
Ni1_2 N4 1_555 1_555
N6_2 Ni1 1_555 1_555
Ni1_3 N6 1_555 1_555
Ni2_2 N7 1_555 1_555
N7_2 Ni2 1_555 1_555
C4 C5 1_555 1_555
C7 C8 1_555 1_555
C9 C10 1_555 1_555
C14 C15 1_555 1_555
C19 C20 1_555 1_555
C24 C25 1_555 1_555
C29 C30 1_555 1_555
C35 C36 1_555 1_555
C37 C38 1_555 1_555
C39 C40 1_555 1_555
C48 C55 1_555 1_555
C51 C56 1_555 1_555
C53 C54 1_555 1_555
C55 C56 1_555 1_555
C67 C72 1_555 1_555
C69 C70 1_555 1_555
C70 C71 1_555 1_555
C71 C72 1_555 1_555
C83 C88 1_555 1_555
C85 C86 1_555 1_555
C86 C87 1_555 1_555
C87 C88 1_555 1_555
C99 C103 1_555 1_555
C101 C102 1_555 1_555
C102 C104 1_555 1_555
C103 C104 1_555 1_555

#END
