
#######################################################################
#
#                 Cambridge Crystallographic Data Centre
#                                CCDC 
#
#######################################################################
#
# If this CIF has been generated from an entry in the Cambridge 
# Structural Database, then it will include bibliographic, chemical, 
# crystal, experimental, refinement or atomic coordinate data resulting 
# from the CCDC's data processing and validation procedures.
#
#######################################################################

data_GOTHOM
_symmetry_cell_setting           monoclinic
_symmetry_space_group_name_H-M   'P 21/c'
_symmetry_Int_Tables_number      14
_space_group_name_Hall           '-P 2ybc'
loop_
_symmetry_equiv_pos_site_id
_symmetry_equiv_pos_as_xyz
1 x,y,z
2 x,1/2-y,1/2+z
3 -x,-y,-z
4 -x,1/2+y,1/2-z
_cell_length_a                   19.258(3)
_cell_length_b                   11.324(3)
_cell_length_c                   7.2451(15)
_cell_angle_alpha                90
_cell_angle_beta                 95.46(2)
_cell_angle_gamma                90
_cell_volume                     1572.83
loop_
_atom_site_label
_atom_site_type_symbol
_atom_site_fract_x
_atom_site_fract_y
_atom_site_fract_z
K1 K 0.51332(3) 0.35764(6) -0.32440(10)
N1 N 0.41099(13) 0.4514(2) -0.1030(4)
S1 S 0.40602(4) 0.58283(7) -0.17493(11)
S2 S 0.37444(4) 0.40124(7) 0.06923(11)
O1 O 0.45400(11) 0.5898(2) -0.3160(3)
O2 O 0.41478(11) 0.6718(2) -0.0325(3)
O3 O 0.40044(11) 0.2834(2) 0.0997(3)
O4 O 0.37855(11) 0.4798(2) 0.2254(3)
C1 C 0.32071(15) 0.6024(3) -0.2884(4)
C2 C 0.28221(16) 0.7016(3) -0.2537(4)
H1 H 0.3018 0.7623 -0.1744
C3 C 0.21429(16) 0.7109(3) -0.3370(4)
H2 H 0.1871 0.7787 -0.3157
C4 C 0.18631(16) 0.6215(3) -0.4509(4)
C5 C 0.22635(16) 0.5227(3) -0.4880(4)
H3 H 0.2071 0.4623 -0.5683
C6 C 0.29426(15) 0.5136(3) -0.4069(4)
H4 H 0.3223 0.4476 -0.4320
C7 C 0.11341(16) 0.6275(3) -0.5381(4)
C8 C 0.28442(15) 0.3873(3) -0.0087(4)
C9 C 0.23891(16) 0.4768(3) 0.0312(4)
H5 H 0.2550 0.5420 0.1058
C10 C 0.16938(16) 0.4693(3) -0.0399(4)
H6 H 0.1376 0.5302 -0.0149
C11 C 0.14643(15) 0.3733(3) -0.1471(4)
C12 C 0.19211(16) 0.2833(3) -0.1848(4)
H7 H 0.1759 0.2174 -0.2579
C13 C 0.26190(16) 0.2904(3) -0.1145(4)
H8 H 0.2937 0.2294 -0.1388
C14 C 0.07238(17) 0.3690(3) -0.2300(5)
O5 O 0.09055(12) 0.5437(3) -0.6391(4)
O6 O 0.07775(12) 0.7202(2) -0.5076(4)
H9 H 0.030(3) 0.722(6) -0.586(8)
O7 O 0.05119(12) 0.2814(2) -0.3242(4)
O8 O 0.03555(13) 0.4585(3) -0.1991(4)
H10 H -0.015(3) 0.466(7) -0.249(10)
K1A K 0.51332(3) 0.14236(6) -0.82440(10)
K1A_2 K 0.51332(3) 0.14236(6) 0.17560(10)
K1B K 0.48668(3) 0.64236(6) -0.67560(10)
O1B O 0.54600(11) 0.4102(2) -0.6840(3)
O1C O 0.54600(11) 0.0898(2) -0.1840(3)
O2C O 0.58522(11) 0.1718(2) -0.4675(3)
O2B O 0.58522(11) 0.3282(2) 0.0325(3)
O3A O 0.40044(11) 0.2166(2) -0.4003(3)
O4B O 0.62145(11) 0.5202(2) -0.2254(3)
K1C K 0.48668(3) 0.85764(6) -0.17560(10)
K1B_2 K 0.48668(3) 0.64236(6) 0.32440(10)
loop_
_geom_bond_atom_site_label_1
_geom_bond_atom_site_label_2
_geom_bond_site_symmetry_1
_geom_bond_site_symmetry_2
K1 N1 1_555 1_555
N1 S1 1_555 1_555
S1 O1 1_555 1_555
S2 N1 1_555 1_555
O1 K1 1_555 1_555
O2 S1 1_555 1_555
O3 S2 1_555 1_555
O4 S2 1_555 1_555
C1 S1 1_555 1_555
C2 C1 1_555 1_555
H1 C2 1_555 1_555
C3 C2 1_555 1_555
H2 C3 1_555 1_555
C4 C3 1_555 1_555
C5 C4 1_555 1_555
H3 C5 1_555 1_555
C6 C1 1_555 1_555
H4 C6 1_555 1_555
C7 C4 1_555 1_555
C8 S2 1_555 1_555
C9 C8 1_555 1_555
H5 C9 1_555 1_555
C10 C9 1_555 1_555
H6 C10 1_555 1_555
C11 C10 1_555 1_555
C12 C11 1_555 1_555
H7 C12 1_555 1_555
C13 C8 1_555 1_555
H8 C13 1_555 1_555
C14 C11 1_555 1_555
O5 C7 1_555 1_555
O6 C7 1_555 1_555
H9 O6 1_555 1_555
O7 C14 1_555 1_555
O8 C14 1_555 1_555
H10 O8 1_555 1_555
K1A O1B 1_555 1_555
K1A_2 O3 1_555 1_555
K1B O1 1_555 1_555
O1B K1 1_555 1_555
O1C K1 1_555 1_555
O2C K1 1_555 1_555
O2B K1 1_555 1_555
O3A K1 1_555 1_555
O4B K1 1_555 1_555
K1C O1 1_555 1_555
K1B_2 O2 1_555 1_555
O2 K1C 1_555 1_555
O4 K1B_2 1_555 1_555
C5 C6 1_555 1_555
C12 C13 1_555 1_555
K1A O2C 1_555 1_555
K1A_2 O2B 1_555 1_555
K1A_2 O1C 1_555 1_555
K1B O1B 1_555 1_555

#END
