
#######################################################################
#
#                 Cambridge Crystallographic Data Centre
#                                CCDC 
#
#######################################################################
#
# If this CIF has been generated from an entry in the Cambridge 
# Structural Database, then it will include bibliographic, chemical, 
# crystal, experimental, refinement or atomic coordinate data resulting 
# from the CCDC's data processing and validation procedures.
#
#######################################################################

data_GOTHUS
_symmetry_cell_setting           monoclinic
_symmetry_space_group_name_H-M   'P 21/c'
_symmetry_Int_Tables_number      14
_space_group_name_Hall           '-P 2ybc'
loop_
_symmetry_equiv_pos_site_id
_symmetry_equiv_pos_as_xyz
1 x,y,z
2 x,1/2-y,1/2+z
3 -x,-y,-z
4 -x,1/2+y,1/2-z
_cell_length_a                   19.122(10)
_cell_length_b                   13.513(5)
_cell_length_c                   6.478(2)
_cell_angle_alpha                90
_cell_angle_beta                 90.78(3)
_cell_angle_gamma                90
_cell_volume                     1673.73
loop_
_atom_site_label
_atom_site_type_symbol
_atom_site_fract_x
_atom_site_fract_y
_atom_site_fract_z
Cs1 Cs 0.50393(2) 0.35240(3) 0.89468(6)
N1 N 0.3752(3) 0.4767(4) 0.6205(8)
S1 S 0.38630(9) 0.41095(13) 0.4201(2)
S2 S 0.36495(9) 0.59366(13) 0.6219(2)
O1 O 0.4084(3) 0.3152(4) 0.4953(8)
O2 O 0.4296(3) 0.4560(4) 0.2651(7)
O3 O 0.3626(3) 0.6201(4) 0.8371(7)
O4 O 0.4143(3) 0.6472(4) 0.4988(8)
C1 C 0.3026(4) 0.3929(5) 0.3034(10)
C2 C 0.2938(4) 0.4132(6) 0.0932(11)
H1 H 0.3323 0.4334 0.0119
C3 C 0.2274(4) 0.4032(6) 0.0060(11)
H2 H 0.2204 0.4160 -0.1370
C4 C 0.1713(4) 0.3748(5) 0.1241(11)
C5 C 0.1812(4) 0.3513(6) 0.3326(12)
H3 H 0.1431 0.3297 0.4135
C6 C 0.2480(4) 0.3601(6) 0.4199(11)
H4 H 0.2557 0.3433 0.5608
C7 C 0.1001(4) 0.3688(6) 0.0254(12)
C8 C 0.2810(4) 0.6153(5) 0.5120(10)
C9 C 0.2741(4) 0.6449(5) 0.3081(11)
H5 H 0.3141 0.6598 0.2283
C10 C 0.2073(4) 0.6522(6) 0.2233(11)
H6 H 0.2017 0.6703 0.0824
C11 C 0.1488(4) 0.6337(5) 0.3397(11)
C12 C 0.1565(4) 0.6073(6) 0.5483(11)
H7 H 0.1165 0.5949 0.6301
C13 C 0.2228(4) 0.5995(6) 0.6327(10)
H8 H 0.2287 0.5832 0.7745
C14 C 0.0788(4) 0.6363(6) 0.2386(12)
O5 O 0.0941(3) 0.3869(5) -0.1618(9)
O6 O 0.0507(3) 0.3444(7) 0.1414(11)
H9 H 0.021(4) 0.352(7) 0.094(14)
O7 O 0.0723(3) 0.6524(6) 0.0520(9)
O8 O 0.0265(4) 0.6226(7) 0.3626(12)
H10 H 0.012(5) 0.590(6) 0.302(13)
Cs1A Cs 0.50393(2) 0.14760(3) 0.39468(6)
Cs1A_2 Cs 0.50393(2) 0.14760(3) 1.39468(6)
Cs1B Cs 0.49607(2) 0.64760(3) 1.10532(6)
O1A O 0.4084(3) 0.1848(4) 0.9953(8)
O2_2 O 0.4296(3) 0.4560(4) 1.2651(7)
O2B O 0.5704(3) 0.5440(4) 0.7349(7)
O3B O 0.6374(3) 0.3799(4) 1.1629(7)
O4B O 0.5857(3) 0.3528(4) 0.5012(8)
O4C O 0.5857(3) 0.1472(4) 1.0012(8)
Cs1_2 Cs 0.50393(2) 0.35240(3) -0.10532(6)
Cs1B_2 Cs 0.49607(2) 0.64760(3) 0.10532(6)
Cs1C Cs 0.49607(2) 0.85240(3) 0.60532(6)
loop_
_geom_bond_atom_site_label_1
_geom_bond_atom_site_label_2
_geom_bond_site_symmetry_1
_geom_bond_site_symmetry_2
Cs1 N1 1_555 1_555
N1 S1 1_555 1_555
S1 O1 1_555 1_555
S2 N1 1_555 1_555
O1 Cs1 1_555 1_555
O2 S1 1_555 1_555
O3 S2 1_555 1_555
O4 S2 1_555 1_555
C1 S1 1_555 1_555
C2 C1 1_555 1_555
H1 C2 1_555 1_555
C3 C2 1_555 1_555
H2 C3 1_555 1_555
C4 C3 1_555 1_555
C5 C4 1_555 1_555
H3 C5 1_555 1_555
C6 C1 1_555 1_555
H4 C6 1_555 1_555
C7 C4 1_555 1_555
C8 S2 1_555 1_555
C9 C8 1_555 1_555
H5 C9 1_555 1_555
C10 C9 1_555 1_555
H6 C10 1_555 1_555
C11 C10 1_555 1_555
C12 C11 1_555 1_555
H7 C12 1_555 1_555
C13 C8 1_555 1_555
H8 C13 1_555 1_555
C14 C11 1_555 1_555
O5 C7 1_555 1_555
O6 C7 1_555 1_555
H9 O6 1_555 1_555
O7 C14 1_555 1_555
O8 C14 1_555 1_555
H10 O8 1_555 1_555
Cs1A O1 1_555 1_555
Cs1A_2 O1A 1_555 1_555
Cs1B O3 1_555 1_555
O1A Cs1 1_555 1_555
O2_2 Cs1 1_555 1_555
O2B Cs1 1_555 1_555
O3B Cs1 1_555 1_555
O4B Cs1 1_555 1_555
O4C Cs1 1_555 1_555
Cs1_2 O2 1_555 1_555
Cs1B_2 O2 1_555 1_555
Cs1C O4 1_555 1_555
O4 Cs1B_2 1_555 1_555
C5 C6 1_555 1_555
C12 C13 1_555 1_555
Cs1A O4B 1_555 1_555
Cs1A_2 O4C 1_555 1_555
Cs1B O2_2 1_555 1_555
Cs1B O2B 1_555 1_555

#END
