
#######################################################################
#
#                 Cambridge Crystallographic Data Centre
#                                CCDC 
#
#######################################################################
#
# If this CIF has been generated from an entry in the Cambridge 
# Structural Database, then it will include bibliographic, chemical, 
# crystal, experimental, refinement or atomic coordinate data resulting 
# from the CCDC's data processing and validation procedures.
#
#######################################################################

data_GOTNOU
_symmetry_cell_setting           monoclinic
_symmetry_space_group_name_H-M   'P 21/c'
_symmetry_Int_Tables_number      14
_space_group_name_Hall           '-P 2ybc'
loop_
_symmetry_equiv_pos_site_id
_symmetry_equiv_pos_as_xyz
1 x,y,z
2 -x,1/2+y,1/2-z
3 -x,-y,-z
4 x,1/2-y,1/2+z
_cell_length_a                   18.9631(8)
_cell_length_b                   20.3115(9)
_cell_length_c                   7.0565(3)
_cell_angle_alpha                90
_cell_angle_beta                 99.117(2)
_cell_angle_gamma                90
_cell_volume                     2683.61
loop_
_atom_site_label
_atom_site_type_symbol
_atom_site_fract_x
_atom_site_fract_y
_atom_site_fract_z
Cd1 Cd 0.400057(16) 0.711851(14) 0.31460(4)
Cl1 Cl 0.30716(5) 0.72988(5) -0.01015(14)
N1 N 0.47203(18) 0.62322(17) 0.2381(5)
C1 C 0.5560(2) 0.5535(2) 0.2163(6)
Cl2 Cl 0.47182(6) 0.70203(5) 0.66735(15)
N2 N 0.54054(19) 0.61736(17) 0.2047(5)
C2 C 0.4475(2) 0.56419(19) 0.2685(5)
N3 N 0.49832(18) 0.51868(18) 0.2525(5)
C3 C 0.3757(2) 0.5524(2) 0.3112(6)
N4 N 0.4969(3) 0.4520(2) 0.3078(6)
H1 H 0.521(2) 0.431(2) 0.229(7)
H2 H 0.452(3) 0.438(2) 0.275(7)
C4 C 0.2717(2) 0.5979(2) 0.3668(6)
H3 H 0.2433 0.6352 0.3854
N5 N 0.33878(18) 0.60700(16) 0.3371(5)
C5 C 0.2421(2) 0.5353(2) 0.3711(6)
H4 H 0.1944 0.5292 0.3928
N6 N 0.3523(2) 0.49039(18) 0.3136(5)
C6 C 0.2846(3) 0.4831(2) 0.3429(6)
H5 H 0.2655 0.4399 0.3441
N7 N 0.6775(2) 0.56771(19) 0.1727(6)
C7 C 0.6252(2) 0.5252(2) 0.1860(6)
N8 N 0.6280(2) 0.45976(19) 0.1758(6)
C8 C 0.7388(3) 0.5420(3) 0.1389(7)
H6 H 0.7772 0.5706 0.1244
C9 C 0.7481(3) 0.4748(3) 0.1244(7)
H7 H 0.7921 0.4567 0.1013
C10 C 0.6918(3) 0.4358(3) 0.1445(7)
H8 H 0.6974 0.3895 0.1363
Cd1C Cd 0.400057(16) 0.788149(14) -0.18540(4)
Cd1C_2 Cd 0.400057(16) 0.788149(14) 0.81460(4)
Cl1C Cl 0.30716(5) 0.77012(5) 0.48985(14)
Cl2C Cl 0.47182(6) 0.79797(5) 0.16735(15)
Cd2 Cd 0.009060(16) 0.464546(15) 0.25292(4)
Cl3 Cl 0.07112(6) 0.55526(5) 0.09087(15)
N9 N 0.08470(19) 0.37688(18) 0.2150(5)
C11 C 0.1689(2) 0.3106(2) 0.1731(6)
Cl4 Cl 0.08621(6) 0.47297(6) 0.60251(16)
N10 N 0.15216(19) 0.37340(18) 0.1763(6)
C12 C 0.0610(2) 0.3169(2) 0.2372(6)
N11 N 0.11234(19) 0.27280(18) 0.2086(5)
C13 C -0.0094(2) 0.3034(2) 0.2863(6)
N12 N 0.1090(3) 0.2049(2) 0.2199(12)
H9 H 0.077(3) 0.192(2) 0.228(7)
H10 H 0.142(3) 0.187(3) 0.182(9)
C14 C -0.1133(2) 0.3464(2) 0.3515(6)
H11 H -0.1420 0.3832 0.3724
N13 N -0.04766(18) 0.35683(17) 0.3128(5)
C15 C -0.1407(2) 0.2840(2) 0.3621(7)
H12 H -0.1881 0.2771 0.3858
N14 N -0.0298(2) 0.24068(18) 0.2981(5)
C16 C -0.0961(2) 0.2320(2) 0.3367(6)
H13 H -0.1132 0.1884 0.3471
N15 N 0.2875(2) 0.33018(19) 0.1226(5)
C17 C 0.2378(2) 0.2850(2) 0.1355(6)
N16 N 0.2442(2) 0.22000(18) 0.1184(6)
C18 C 0.3498(2) 0.3081(2) 0.0851(7)
H14 H 0.3865 0.3389 0.0723
C19 C 0.3626(3) 0.2424(2) 0.0644(7)
H15 H 0.4073 0.2269 0.0381
C20 C 0.3082(3) 0.1999(2) 0.0832(7)
H16 H 0.3161 0.1540 0.0709
Cd2B Cd -0.009060(16) 0.535454(15) -0.25292(4)
Cd2B_2 Cd -0.009060(16) 0.535454(15) 0.74708(4)
Cl3B Cl -0.07112(6) 0.44474(5) -0.09087(15)
Cl4B Cl -0.08621(6) 0.52703(6) 0.39749(16)
loop_
_geom_bond_atom_site_label_1
_geom_bond_atom_site_label_2
_geom_bond_site_symmetry_1
_geom_bond_site_symmetry_2
Cd1 Cl1 1_555 1_555
Cl1 Cd1C 1_555 1_555
N1 Cd1 1_555 1_555
C1 N2 1_555 1_555
Cl2 Cd1 1_555 1_555
N2 N1 1_555 1_555
C2 N1 1_555 1_555
N3 C1 1_555 1_555
C3 C2 1_555 1_555
N4 N3 1_555 1_555
H1 N4 1_555 1_555
H2 N4 1_555 1_555
C4 H3 1_555 1_555
N5 Cd1 1_555 1_555
C5 C4 1_555 1_555
H4 C5 1_555 1_555
N6 C3 1_555 1_555
C6 C5 1_555 1_555
H5 C6 1_555 1_555
N7 C7 1_555 1_555
C7 C1 1_555 1_555
N8 C7 1_555 1_555
C8 N7 1_555 1_555
H6 C8 1_555 1_555
C9 C8 1_555 1_555
H7 C9 1_555 1_555
C10 N8 1_555 1_555
H8 C10 1_555 1_555
Cd2 Cl3 1_555 1_555
Cl3 Cd2B 1_555 1_555
N9 Cd2 1_555 1_555
C11 N10 1_555 1_555
Cl4 Cd2 1_555 1_555
N10 N9 1_555 1_555
C12 N9 1_555 1_555
N11 C11 1_555 1_555
C13 C12 1_555 1_555
N12 N11 1_555 1_555
H9 N12 1_555 1_555
H10 N12 1_555 1_555
C14 H11 1_555 1_555
N13 Cd2 1_555 1_555
C15 C14 1_555 1_555
H12 C15 1_555 1_555
N14 C13 1_555 1_555
C16 C15 1_555 1_555
H13 C16 1_555 1_555
N15 C17 1_555 1_555
C17 C11 1_555 1_555
N16 C17 1_555 1_555
C18 N15 1_555 1_555
H14 C18 1_555 1_555
C19 C18 1_555 1_555
H15 C19 1_555 1_555
C20 N16 1_555 1_555
H16 C20 1_555 1_555
Cd1C Cl2C 1_555 1_555
Cd1C_2 Cl2 1_555 1_555
Cl1C Cd1 1_555 1_555
Cl2C Cd1 1_555 1_555
Cd2B Cl3B 1_555 1_555
Cd2B_2 Cl4 1_555 1_555
Cl3B Cd2 1_555 1_555
Cl4B Cd2 1_555 1_555
C2 N3 1_555 1_555
C3 N5 1_555 1_555
C4 N5 1_555 1_555
N6 C6 1_555 1_555
C9 C10 1_555 1_555
C12 N11 1_555 1_555
C13 N13 1_555 1_555
C14 N13 1_555 1_555
N14 C16 1_555 1_555
C19 C20 1_555 1_555
Cd1C_2 Cl1C 1_555 1_555
Cd2B_2 Cl4B 1_555 1_555

#END
