
#######################################################################
#
#                 Cambridge Crystallographic Data Centre
#                                CCDC 
#
#######################################################################
#
# If this CIF has been generated from an entry in the Cambridge 
# Structural Database, then it will include bibliographic, chemical, 
# crystal, experimental, refinement or atomic coordinate data resulting 
# from the CCDC's data processing and validation procedures.
#
#######################################################################

data_GOTNUA01
_symmetry_cell_setting           monoclinic
_symmetry_space_group_name_H-M   'P 21/c'
_symmetry_Int_Tables_number      14
_space_group_name_Hall           '-P 2ybc'
loop_
_symmetry_equiv_pos_site_id
_symmetry_equiv_pos_as_xyz
1 x,y,z
2 -x,1/2+y,1/2-z
3 -x,-y,-z
4 x,1/2-y,1/2+z
_cell_length_a                   6.9159(2)
_cell_length_b                   11.9723(4)
_cell_length_c                   17.3881(6)
_cell_angle_alpha                90
_cell_angle_beta                 92.8890(10)
_cell_angle_gamma                90
_cell_volume                     1437.89
loop_
_atom_site_label
_atom_site_type_symbol
_atom_site_fract_x
_atom_site_fract_y
_atom_site_fract_z
Cd1 Cd 0.256613(14) 0.565950(8) 0.017775(6)
Cl1 Cl 0.07748(5) 0.39068(3) 0.06093(2)
C1 C 0.2854(2) 0.93211(11) -0.03280(9)
N1 N 0.29210(18) 0.76036(11) 0.00445(7)
Cl2 Cl 0.56950(5) 0.50007(3) 0.10031(2)
N2 N 0.32302(18) 0.82931(10) -0.05568(7)
C2 C 0.23398(19) 0.82170(12) 0.06250(8)
N3 N 0.23037(18) 0.93062(10) 0.04189(8)
C3 C 0.1851(2) 0.77321(13) 0.13628(8)
N4 N 0.1615(2) 1.01975(12) 0.08593(9)
H1 H 0.218(4) 1.015(3) 0.1338(19)
H2 H 0.213(4) 1.083(3) 0.0666(19)
C4 C 0.1157(3) 0.61414(15) 0.20109(9)
H3 H 0.0965 0.5356 0.2027
N5 N 0.16234(19) 0.66204(11) 0.13509(7)
C5 C 0.0946(3) 0.67660(16) 0.26730(9)
H4 H 0.0591 0.6427 0.3139
N6 N 0.1714(2) 0.84060(13) 0.19687(8)
C6 C 0.1273(3) 0.79035(16) 0.26269(9)
H5 H 0.1183 0.8345 0.3078
N7 N 0.3592(2) 1.01568(12) -0.15211(8)
C7 C 0.3017(2) 1.03226(12) -0.08098(9)
N8 N 0.25982(19) 1.12999(11) -0.04858(9)
C8 C 0.3729(2) 1.10734(14) -0.19523(10)
H6 H 0.4110 1.0997 -0.2467
C9 C 0.3336(2) 1.21292(14) -0.16787(10)
H7 H 0.3445 1.2774 -0.1992
C10 C 0.2781(2) 1.22043(13) -0.09305(11)
H8 H 0.2521 1.2920 -0.0723
Cd1B Cd -0.256613(14) 0.434050(8) -0.017775(6)
Cd1B_2 Cd 0.743387(14) 0.434050(8) -0.017775(6)
Cl1B Cl -0.07748(5) 0.60932(3) -0.06093(2)
Cl2B Cl 0.43050(5) 0.49993(3) -0.10031(2)
O1 O 0.6387(2) 0.78321(13) -0.15959(9)
H9 H 0.537(6) 0.799(3) -0.141(2)
H10 H 0.687(6) 0.725(3) -0.136(2)
loop_
_geom_bond_atom_site_label_1
_geom_bond_atom_site_label_2
_geom_bond_site_symmetry_1
_geom_bond_site_symmetry_2
Cd1 Cl1 1_555 1_555
Cl1 Cd1B 1_555 1_555
C1 N2 1_555 1_555
N1 Cd1 1_555 1_555
Cl2 Cd1 1_555 1_555
N2 N1 1_555 1_555
C2 N1 1_555 1_555
N3 C1 1_555 1_555
C3 C2 1_555 1_555
N4 N3 1_555 1_555
H1 N4 1_555 1_555
H2 N4 1_555 1_555
C4 H3 1_555 1_555
N5 Cd1 1_555 1_555
C5 C4 1_555 1_555
H4 C5 1_555 1_555
N6 C3 1_555 1_555
C6 C5 1_555 1_555
H5 C6 1_555 1_555
N7 C7 1_555 1_555
C7 C1 1_555 1_555
N8 C7 1_555 1_555
C8 N7 1_555 1_555
H6 C8 1_555 1_555
C9 C8 1_555 1_555
H7 C9 1_555 1_555
C10 N8 1_555 1_555
H8 C10 1_555 1_555
O1 H9 1_555 1_555
H10 O1 1_555 1_555
Cd1B Cl1B 1_555 1_555
Cd1B_2 Cl2 1_555 1_555
Cl1B Cd1 1_555 1_555
Cl2B Cd1 1_555 1_555
C2 N3 1_555 1_555
C3 N5 1_555 1_555
C4 N5 1_555 1_555
N6 C6 1_555 1_555
C9 C10 1_555 1_555
Cd1B_2 Cl2B 1_555 1_555

#END
