
#######################################################################
#
#                 Cambridge Crystallographic Data Centre
#                                CCDC 
#
#######################################################################
#
# If this CIF has been generated from an entry in the Cambridge 
# Structural Database, then it will include bibliographic, chemical, 
# crystal, experimental, refinement or atomic coordinate data resulting 
# from the CCDC's data processing and validation procedures.
#
#######################################################################

data_GOTNUA
_symmetry_cell_setting           triclinic
_symmetry_space_group_name_H-M   'P -1'
_symmetry_Int_Tables_number      2
_space_group_name_Hall           '-P 1'
loop_
_symmetry_equiv_pos_site_id
_symmetry_equiv_pos_as_xyz
1 x,y,z
2 -x,-y,-z
_cell_length_a                   6.9536(2)
_cell_length_b                   8.7486(3)
_cell_length_c                   12.1101(3)
_cell_angle_alpha                88.5010(10)
_cell_angle_beta                 86.4860(10)
_cell_angle_gamma                84.2750(10)
_cell_volume                     731.507
loop_
_atom_site_label
_atom_site_type_symbol
_atom_site_fract_x
_atom_site_fract_y
_atom_site_fract_z
Cd1 Cd 0.25412(2) 0.967457(18) 0.064670(12)
Cl1 Cl 0.09191(9) 0.87679(7) -0.10431(5)
N1 N 0.2779(3) 0.9959(2) 0.25712(16)
C1 C 0.2762(3) 1.0633(3) 0.42674(18)
Cl2 Cl 0.41556(9) 1.19973(7) -0.00973(5)
N2 N 0.3093(3) 1.1124(2) 0.32385(15)
C2 C 0.2258(3) 0.8792(3) 0.31948(18)
N3 N 0.2244(3) 0.9162(2) 0.42794(15)
C3 C 0.1848(3) 0.7329(3) 0.27412(19)
N4 N 0.1556(3) 0.8283(3) 0.51836(18)
H1 H 0.183(5) 0.729(4) 0.506(3)
H2 H 0.227(5) 0.851(4) 0.578(3)
C4 C 0.1524(4) 0.6010(3) 0.1187(2)
H3 H 0.1498 0.5958 0.0405
N5 N 0.1788(3) 0.7341(2) 0.16396(17)
C5 C 0.1286(4) 0.4705(3) 0.1828(2)
H4 H 0.1097 0.3760 0.1503
N6 N 0.1625(3) 0.6148(2) 0.34337(18)
C6 C 0.1333(4) 0.4828(3) 0.2953(2)
H5 H 0.1152 0.3948 0.3409
N7 N 0.3389(3) 1.2979(2) 0.50657(17)
C7 C 0.2951(3) 1.1544(3) 0.52532(19)
N8 N 0.2675(3) 1.0851(3) 0.62390(17)
C8 C 0.3561(4) 1.3783(3) 0.5970(2)
H6 H 0.3872 1.4814 0.5881
C9 C 0.3311(4) 1.3189(3) 0.7013(2)
H7 H 0.3435 1.3785 0.7645
C10 C 0.2876(4) 1.1705(3) 0.7115(2)
H8 H 0.2709 1.1262 0.7835
Cd1A Cd -0.25412(2) 1.032543(18) -0.064670(12)
Cd1A_2 Cd 0.74588(2) 1.032543(18) -0.064670(12)
Cl1A Cl -0.09191(9) 1.12321(7) 0.10431(5)
Cl2A Cl 0.58444(9) 0.80027(7) 0.00973(5)
O1 O 0.3716(3) 0.6850(2) 0.71620(17)
H9 H 0.478(4) 0.729(4) 0.694(3)
H10 H 0.309(5) 0.737(4) 0.769(2)
loop_
_geom_bond_atom_site_label_1
_geom_bond_atom_site_label_2
_geom_bond_site_symmetry_1
_geom_bond_site_symmetry_2
Cd1 Cl1 1_555 1_555
Cl1 Cd1A 1_555 1_555
N1 Cd1 1_555 1_555
C1 N2 1_555 1_555
Cl2 Cd1 1_555 1_555
N2 N1 1_555 1_555
C2 N1 1_555 1_555
N3 C1 1_555 1_555
C3 C2 1_555 1_555
N4 N3 1_555 1_555
H1 N4 1_555 1_555
H2 N4 1_555 1_555
C4 H3 1_555 1_555
N5 Cd1 1_555 1_555
C5 C4 1_555 1_555
H4 C5 1_555 1_555
N6 C3 1_555 1_555
C6 C5 1_555 1_555
H5 C6 1_555 1_555
N7 C7 1_555 1_555
C7 C1 1_555 1_555
N8 C7 1_555 1_555
C8 N7 1_555 1_555
H6 C8 1_555 1_555
C9 C8 1_555 1_555
H7 C9 1_555 1_555
C10 N8 1_555 1_555
H8 C10 1_555 1_555
O1 H9 1_555 1_555
H10 O1 1_555 1_555
Cd1A Cl1A 1_555 1_555
Cd1A_2 Cl2 1_555 1_555
Cl1A Cd1 1_555 1_555
Cl2A Cd1 1_555 1_555
C2 N3 1_555 1_555
C3 N5 1_555 1_555
C4 N5 1_555 1_555
N6 C6 1_555 1_555
C9 C10 1_555 1_555
Cd1A_2 Cl2A 1_555 1_555

#END
