
#######################################################################
#
#                 Cambridge Crystallographic Data Centre
#                                CCDC 
#
#######################################################################
#
# If this CIF has been generated from an entry in the Cambridge 
# Structural Database, then it will include bibliographic, chemical, 
# crystal, experimental, refinement or atomic coordinate data resulting 
# from the CCDC's data processing and validation procedures.
#
#######################################################################

data_GOTYIZ
_symmetry_cell_setting           triclinic
_symmetry_space_group_name_H-M   'P -1'
_symmetry_Int_Tables_number      2
_space_group_name_Hall           '-P 1'
loop_
_symmetry_equiv_pos_site_id
_symmetry_equiv_pos_as_xyz
1 x,y,z
2 -x,-y,-z
_cell_length_a                   7.5488(15)
_cell_length_b                   8.3963(18)
_cell_length_c                   16.992(3)
_cell_angle_alpha                75.876(3)
_cell_angle_beta                 81.833(3)
_cell_angle_gamma                82.627(3)
_cell_volume                     1028.9
loop_
_atom_site_label
_atom_site_type_symbol
_atom_site_fract_x
_atom_site_fract_y
_atom_site_fract_z
Cs1 Cs 0.70990(6) -0.15321(7) 0.07478(3)
S1 S 0.93008(19) 0.21237(19) 0.15326(8)
O1 O 1.0910(9) -0.3715(7) 0.0618(3)
O2 O 0.5469(9) -0.2489(12) -0.0593(5)
O3 O 0.2851(7) -0.1302(7) 0.0914(4)
O4 O 0.6073(6) 0.0416(6) 0.2273(2)
O5 O 0.7303(6) 0.2178(7) 0.5641(3)
O6 O 1.2446(5) 0.3215(6) 0.4778(2)
O7 O 1.3338(5) 0.4152(5) 0.7341(2)
O8 O 1.0917(6) 0.2939(6) 0.1491(3)
O9 O 0.7920(6) 0.3207(6) 0.1099(3)
O10 O 0.9695(7) 0.0566(6) 0.1289(3)
C1 C 0.4322(8) -0.0142(9) 0.2520(4)
H1 H 0.3757 0.0296 0.2975
H2 H 0.4428 -0.1325 0.2676
H3 H 0.3608 0.0230 0.2073
C2 C 0.6906(7) 0.0815(7) 0.2849(3)
C3 C 0.6291(8) 0.0462(7) 0.3680(3)
H4 H 0.5269 -0.0096 0.3866
C4 C 0.7183(8) 0.0931(7) 0.4229(4)
H5 H 0.6760 0.0668 0.4782
C5 C 0.8708(7) 0.1792(6) 0.3974(3)
C6 C 0.9302(7) 0.2139(7) 0.3136(3)
H6 H 1.0307 0.2719 0.2946
C7 C 0.8438(7) 0.1645(7) 0.2580(3)
C8 C 0.9688(7) 0.2301(7) 0.4561(3)
C9 C 0.8876(7) 0.2411(7) 0.5379(3)
C10 C 1.0068(7) 0.2862(7) 0.5879(3)
C11 C 0.9528(8) 0.2863(8) 0.6711(4)
H7 H 0.8400 0.2550 0.6949
C12 C 1.0629(8) 0.3313(8) 0.7170(4)
H8 H 1.0251 0.3313 0.7715
C13 C 1.2338(8) 0.3779(7) 0.6819(3)
C14 C 1.2921(8) 0.3779(7) 0.6006(4)
H9 H 1.4049 0.4092 0.5769
C15 C 1.1769(7) 0.3299(7) 0.5559(3)
C16 C 1.1403(8) 0.2671(8) 0.4334(4)
H10 H 1.1918 0.2539 0.3820
C17 C 1.4935(8) 0.4938(7) 0.7006(4)
H11 H 1.4648 0.5986 0.6633
H12 H 1.5762 0.4246 0.6710
C18 C 1.5763(9) 0.5201(9) 0.7712(4)
H13 H 1.4907 0.5836 0.8017
H14 H 1.6810 0.5783 0.7510
H15 H 1.6101 0.4152 0.8060
H16 H 1.071(12) -0.465(5) 0.087(5)
H17 H 1.121(12) -0.390(11) 0.016(2)
H18 H 0.640(7) -0.283(11) -0.084(5)
H19 H 0.456(7) -0.258(11) -0.078(5)
H20 H 0.290(13) -0.2309(18) 0.100(6)
H21 H 0.192(7) -0.085(10) 0.111(5)
Cs1A Cs 0.29010(6) 0.15321(7) -0.07478(3)
Cs1A_2 Cs 1.29010(6) 0.15321(7) 0.92522(3)
O2A O 0.4531(9) 0.2489(12) 0.0593(5)
O3A O 0.7149(7) 0.1302(7) -0.0914(4)
O7A O 0.6662(5) -0.4152(5) 0.2659(2)
loop_
_geom_bond_atom_site_label_1
_geom_bond_atom_site_label_2
_geom_bond_site_symmetry_1
_geom_bond_site_symmetry_2
Cs1 O1 1_555 1_555
S1 O8 1_555 1_555
O1 H16 1_555 1_555
O2 Cs1 1_555 1_555
O3 Cs1 1_555 1_555
O4 Cs1 1_555 1_555
O5 C9 1_555 1_555
O6 C15 1_555 1_555
O7 C13 1_555 1_555
O9 S1 1_555 1_555
O10 Cs1 1_555 1_555
C1 O4 1_555 1_555
H1 C1 1_555 1_555
H2 C1 1_555 1_555
H3 C1 1_555 1_555
C2 O4 1_555 1_555
C3 C2 1_555 1_555
H4 C3 1_555 1_555
C4 C3 1_555 1_555
H5 C4 1_555 1_555
C5 C4 1_555 1_555
C6 C5 1_555 1_555
H6 C6 1_555 1_555
C7 S1 1_555 1_555
C8 C5 1_555 1_555
C9 C8 1_555 1_555
C10 C9 1_555 1_555
C11 C10 1_555 1_555
H7 C11 1_555 1_555
C12 C11 1_555 1_555
H8 C12 1_555 1_555
C13 C12 1_555 1_555
C14 C13 1_555 1_555
H9 C14 1_555 1_555
C15 C10 1_555 1_555
C16 O6 1_555 1_555
H10 C16 1_555 1_555
C17 O7 1_555 1_555
H11 C17 1_555 1_555
H12 C17 1_555 1_555
C18 C17 1_555 1_555
H13 C18 1_555 1_555
H14 C18 1_555 1_555
H15 C18 1_555 1_555
H17 O1 1_555 1_555
H18 O2 1_555 1_555
H19 O2 1_555 1_555
H20 O3 1_555 1_555
H21 O3 1_555 1_555
Cs1A O2 1_555 1_555
Cs1A_2 O7 1_555 1_555
O2A Cs1 1_555 1_555
O3A Cs1 1_555 1_555
O7A Cs1 1_555 1_555
S1 O10 1_555 1_555
O3 Cs1A 1_555 1_555
C2 C7 1_555 1_555
C6 C7 1_555 1_555
C8 C16 1_555 1_555
C14 C15 1_555 1_555
Cs1A O2A 1_555 1_555
Cs1A O3A 1_555 1_555

#END
