
#######################################################################
#
#                 Cambridge Crystallographic Data Centre
#                                CCDC 
#
#######################################################################
#
# If this CIF has been generated from an entry in the Cambridge 
# Structural Database, then it will include bibliographic, chemical, 
# crystal, experimental, refinement or atomic coordinate data resulting 
# from the CCDC's data processing and validation procedures.
#
#######################################################################

data_GOVXOG
_symmetry_cell_setting           monoclinic
_symmetry_space_group_name_H-M   'C 2/c'
_symmetry_Int_Tables_number      15
_space_group_name_Hall           '-C 2yn'
loop_
_symmetry_equiv_pos_site_id
_symmetry_equiv_pos_as_xyz
1 x,y,z
2 -x,y,1/2-z
3 1/2+x,1/2+y,z
4 1/2-x,1/2+y,1/2-z
5 -x,-y,-z
6 x,-y,1/2+z
7 1/2-x,1/2-y,-z
8 1/2+x,1/2-y,1/2+z
_cell_length_a                   30.8856(19)
_cell_length_b                   17.8569(11)
_cell_length_c                   14.1653(9)
_cell_angle_alpha                90
_cell_angle_beta                 114.268(3)
_cell_angle_gamma                90
_cell_volume                     7122.1
loop_
_atom_site_label
_atom_site_type_symbol
_atom_site_fract_x
_atom_site_fract_y
_atom_site_fract_z
Co1 Co -0.04993(3) 0.27104(5) -0.05544(6)
F1 F -0.26631(13) 0.1650(2) -0.7910(3)
F2 F -0.19998(13) 0.1176(2) -0.6849(3)
F3 F -0.24686(13) 0.1709(2) -0.6277(3)
F4 F -0.26315(12) 0.3073(2) -0.8425(3)
F5 F -0.22205(13) 0.3808(2) -0.7174(3)
F6 F -0.27596(12) 0.3091(2) -0.7055(3)
O1 O 0.12148(15) 0.5021(3) -0.1368(3)
O2 O 0.40193(16) 0.5218(3) 0.1601(3)
O3 O -0.10462(14) 0.3188(3) -0.1935(3)
O4 O -0.05826(15) 0.2312(3) -0.2046(3)
O5 O -0.06184(16) 0.3086(2) -0.9251(3)
O6 O -0.10635(14) 0.2200(2) -1.0241(3)
N1 N -0.00072(17) 0.3559(3) -0.0388(4)
N2 N 0.11437(17) 0.4981(3) 0.0171(4)
H1 H 0.1271 0.5158 0.0807
N3 N 0.40752(17) 0.5131(3) 0.3249(4)
H2 H 0.3974 0.4874 0.3649
N4 N 0.50306(17) 0.6854(3) 0.4772(4)
C1 C 0.0194(2) 0.3951(4) 0.0494(5)
H3 H 0.0076 0.3896 0.1013
C2 C 0.0570(2) 0.4436(3) 0.0667(5)
H4 H 0.0705 0.4706 0.1299
C3 C 0.0749(2) 0.4529(3) -0.0071(5)
C4 C 0.0523(2) 0.4148(4) -0.1009(5)
H5 H 0.0618 0.4220 -0.1561
C5 C 0.0158(2) 0.3666(4) -0.1112(5)
H6 H 0.0015 0.3391 -0.1739
C6 C 0.1361(2) 0.5187(4) -0.0462(5)
C7 C 0.1794(2) 0.5683(4) 0.0074(5)
H7 H 0.1685 0.6195 0.0137
H8 H 0.1977 0.5490 0.0782
C8 C 0.2119(2) 0.5727(3) -0.0486(5)
H9 H 0.2321 0.6178 -0.0242
H10 H 0.1921 0.5793 -0.1235
C9 C 0.2441(2) 0.5052(3) -0.0347(5)
H11 H 0.2244 0.4593 -0.0521
H12 H 0.2590 0.5093 -0.0845
C10 C 0.2829(2) 0.4968(4) 0.0732(5)
H13 H 0.2680 0.4895 0.1224
H14 H 0.3013 0.5440 0.0923
C11 C 0.3172(2) 0.4323(4) 0.0859(5)
H15 H 0.3324 0.4393 0.0371
H16 H 0.2991 0.3848 0.0680
C12 C 0.3556(2) 0.4271(4) 0.1961(5)
H17 H 0.3403 0.4255 0.2453
H18 H 0.3735 0.3799 0.2036
C13 C 0.3900(2) 0.4925(4) 0.2237(5)
C14 C 0.4397(2) 0.5704(3) 0.3722(5)
C15 C 0.4525(2) 0.6258(4) 0.3185(5)
H19 H 0.4400 0.6253 0.2450
C16 C 0.4833(2) 0.6805(4) 0.3738(5)
H20 H 0.4913 0.7179 0.3360
C17 C 0.4902(2) 0.6322(4) 0.5282(5)
H21 H 0.5032 0.6342 0.6017
C18 C 0.4591(2) 0.5747(3) 0.4791(5)
H22 H 0.4511 0.5385 0.5184
C19 C -0.0929(2) 0.2743(3) -0.2479(4)
C20 C -0.12001(19) 0.2716(3) -0.3619(4)
C21 C -0.1608(2) 0.3131(4) -0.4090(5)
H23 H -0.1708 0.3451 -0.3681
C22 C -0.1876(2) 0.3093(4) -0.5150(5)
H24 H -0.2158 0.3381 -0.5459
C23 C -0.1732(2) 0.2629(4) -0.5769(4)
C24 C -0.1310(2) 0.2230(3) -0.5294(5)
H25 H -0.1199 0.1931 -0.5704
C25 C -0.1052(2) 0.2263(4) -0.4238(4)
H26 H -0.0770 0.1975 -0.3926
C26 C -0.2036(2) 0.2505(3) -0.6922(4)
C27 C -0.2296(2) 0.1753(4) -0.6997(5)
C28 C -0.2419(2) 0.3120(4) -0.7398(5)
C29 C -0.1741(2) 0.2504(3) -0.7577(4)
C30 C -0.1860(2) 0.2050(4) -0.8444(5)
H27 H -0.2117 0.1708 -0.8620
C31 C -0.1606(2) 0.2092(4) -0.9060(5)
H28 H -0.1692 0.1779 -0.9652
C32 C -0.1225(2) 0.2589(3) -0.8813(5)
C33 C -0.1104(2) 0.3037(4) -0.7933(5)
H29 H -0.0846 0.3376 -0.7750
C34 C -0.1357(2) 0.2991(3) -0.7323(5)
H30 H -0.1268 0.3296 -0.6722
C35 C -0.0957(2) 0.2617(4) -0.9473(4)
Co1_2 Co -0.04993(3) 0.27104(5) -1.05544(6)
Co1C Co 0.54993(3) 0.77104(5) 0.55544(6)
O5_2 O -0.06184(16) 0.3086(2) 0.0749(3)
O6_2 O -0.10635(14) 0.2200(2) -0.0241(3)
N4C N -0.00306(17) 0.1854(3) 0.0228(4)
O7 O 0.37433(17) 0.4332(3) 0.4533(4)
H31 H 0.3760 0.4493 0.5112
H32 H 0.3852 0.3888 0.4624
O8 O -0.15523(15) 0.4501(3) -0.2195(3)
H33 H -0.1404 0.4086 -0.2037
H34 H -0.1555 0.4647 -0.2769
loop_
_geom_bond_atom_site_label_1
_geom_bond_atom_site_label_2
_geom_bond_site_symmetry_1
_geom_bond_site_symmetry_2
Co1 O3 1_555 1_555
F1 C27 1_555 1_555
F2 C27 1_555 1_555
F3 C27 1_555 1_555
F4 C28 1_555 1_555
F5 C28 1_555 1_555
F6 C28 1_555 1_555
O1 C6 1_555 1_555
O2 C13 1_555 1_555
O3 C19 1_555 1_555
O4 Co1 1_555 1_555
O5 C35 1_555 1_555
O6 C35 1_555 1_555
N1 Co1 1_555 1_555
N2 H1 1_555 1_555
N3 H2 1_555 1_555
N4 C16 1_555 1_555
C1 N1 1_555 1_555
H3 C1 1_555 1_555
C2 C1 1_555 1_555
H4 C2 1_555 1_555
C3 N2 1_555 1_555
C4 C3 1_555 1_555
H5 C4 1_555 1_555
C5 N1 1_555 1_555
H6 C5 1_555 1_555
C6 N2 1_555 1_555
C7 C6 1_555 1_555
H7 C7 1_555 1_555
H8 C7 1_555 1_555
C8 C7 1_555 1_555
H9 C8 1_555 1_555
H10 C8 1_555 1_555
C9 C8 1_555 1_555
H11 C9 1_555 1_555
H12 C9 1_555 1_555
C10 C9 1_555 1_555
H13 C10 1_555 1_555
H14 C10 1_555 1_555
C11 C10 1_555 1_555
H15 C11 1_555 1_555
H16 C11 1_555 1_555
C12 C11 1_555 1_555
H17 C12 1_555 1_555
H18 C12 1_555 1_555
C13 N3 1_555 1_555
C14 N3 1_555 1_555
C15 C14 1_555 1_555
H19 C15 1_555 1_555
C16 C15 1_555 1_555
H20 C16 1_555 1_555
C17 N4 1_555 1_555
H21 C17 1_555 1_555
C18 C14 1_555 1_555
H22 C18 1_555 1_555
C19 O4 1_555 1_555
C20 C19 1_555 1_555
C21 C20 1_555 1_555
H23 C21 1_555 1_555
C22 C21 1_555 1_555
H24 C22 1_555 1_555
C23 C22 1_555 1_555
C24 C23 1_555 1_555
H25 C24 1_555 1_555
C25 C20 1_555 1_555
H26 C25 1_555 1_555
C26 C23 1_555 1_555
C27 C26 1_555 1_555
C28 C26 1_555 1_555
C29 C26 1_555 1_555
C30 C29 1_555 1_555
H27 C30 1_555 1_555
C31 C30 1_555 1_555
H28 C31 1_555 1_555
C32 C31 1_555 1_555
C33 C32 1_555 1_555
H29 C33 1_555 1_555
C34 C29 1_555 1_555
H30 C34 1_555 1_555
C35 C32 1_555 1_555
O7 H31 1_555 1_555
H32 O7 1_555 1_555
O8 H33 1_555 1_555
H34 O8 1_555 1_555
Co1_2 O5 1_555 1_555
Co1C N4 1_555 1_555
O5_2 Co1 1_555 1_555
O6_2 Co1 1_555 1_555
N4C Co1 1_555 1_555
O6 Co1_2 1_555 1_555
C2 C3 1_555 1_555
C4 C5 1_555 1_555
C12 C13 1_555 1_555
C17 C18 1_555 1_555
C24 C25 1_555 1_555
C33 C34 1_555 1_555

#END
