
#######################################################################
#
#                 Cambridge Crystallographic Data Centre
#                                CCDC 
#
#######################################################################
#
# If this CIF has been generated from an entry in the Cambridge 
# Structural Database, then it will include bibliographic, chemical, 
# crystal, experimental, refinement or atomic coordinate data resulting 
# from the CCDC's data processing and validation procedures.
#
#######################################################################

data_GOWTOD
_symmetry_cell_setting           monoclinic
_symmetry_space_group_name_H-M   'P 21/c'
_symmetry_Int_Tables_number      14
_space_group_name_Hall           '-P 2ybc'
loop_
_symmetry_equiv_pos_site_id
_symmetry_equiv_pos_as_xyz
1 x,y,z
2 -x,1/2+y,1/2-z
3 -x,-y,-z
4 x,1/2-y,1/2+z
_cell_length_a                   22.410(4)
_cell_length_b                   10.588(2)
_cell_length_c                   33.850(11)
_cell_angle_alpha                90
_cell_angle_beta                 121.72(2)
_cell_angle_gamma                90
_cell_volume                     6832.1
loop_
_atom_site_label
_atom_site_type_symbol
_atom_site_fract_x
_atom_site_fract_y
_atom_site_fract_z
C1 C 0.3404(3) 0.4112(6) 0.1140(2)
H1 H 0.3465 0.3376 0.1016
C2 C 0.3917(4) 0.4862(7) 0.1446(3)
H2 H 0.4395 0.4744 0.1573
C3 C 0.2924(4) 0.5628(6) 0.1291(2)
H3 H 0.2592 0.6146 0.1295
C4 C 0.3929(4) 0.6917(8) 0.1855(3)
H4 H 0.3852 0.6819 0.2110
H5 H 0.3691 0.7683 0.1691
C5 C 0.6393(5) 0.6370(7) 0.3163(2)
H6 H 0.6740 0.7008 0.3348
H7 H 0.6154 0.6131 0.3322
C6 C 0.6612(4) 0.4695(6) 0.2721(2)
H8 H 0.6253 0.4934 0.2426
C7 C 0.7488(4) 0.3742(6) 0.3281(3)
H9 H 0.7855 0.3176 0.3444
C8 C 0.7307(4) 0.4656(6) 0.3480(2)
H10 H 0.7517 0.4838 0.3794
C9 C 0.6361(4) 0.6779(6) 0.1130(2)
H11 H 0.6411 0.6013 0.1016
C10 C 0.6116(4) 0.6914(6) 0.1413(3)
H12 H 0.5978 0.6273 0.1536
C11 C 0.6366(4) 0.8761(6) 0.1251(2)
H13 H 0.6421 0.9629 0.1244
C12 C 0.5895(6) 0.8885(6) 0.1768(3)
H14 H 0.5525 0.9471 0.1569
H15 H 0.6290 0.9376 0.2000
C13 C 0.4425(7) 0.8149(9) 0.1302(3)
H16 H 0.4028 0.8566 0.1281
H17 H 0.4268 0.7424 0.1102
H18 H 0.4660 0.8721 0.1209
C14 C 0.4927(6) 0.5764(8) 0.2730(3)
H19 H 0.5044 0.6137 0.3020
H20 H 0.5152 0.4957 0.2785
H21 H 0.4428 0.5657 0.2538
C15 C 0.6881(4) 0.7991(9) 0.2716(4)
H22 H 0.6992 0.8329 0.2499
H23 H 0.7156 0.7246 0.2858
H24 H 0.6986 0.8609 0.2951
C16 C 0.6112(4) 0.7661(6) 0.2464(3)
C17 C 0.5867(4) 0.6907(5) 0.2690(2)
C18 C 0.5174(4) 0.6617(6) 0.2486(3)
C19 C 0.4701(4) 0.7074(6) 0.2052(3)
C20 C 0.4922(5) 0.7739(6) 0.1794(2)
C21 C 0.5632(5) 0.8038(5) 0.2015(3)
C22 C 0.1383(3) 0.2055(6) 0.1137(2)
H25 H 0.1514 0.1337 0.1043
C23 C 0.1107(4) 0.2066(6) 0.1408(2)
H26 H 0.1005 0.1363 0.1527
C24 C 0.1220(3) 0.3965(6) 0.1242(2)
H27 H 0.1214 0.4843 0.1237
C25 C 0.0694(4) 0.3811(6) 0.1728(2)
H28 H 0.0239 0.4174 0.1508
H29 H 0.0993 0.4483 0.1930
C26 C 0.1871(4) 0.3048(7) 0.2633(3)
H30 H 0.1933 0.3735 0.2836
H31 H 0.1906 0.3357 0.2379
H32 H 0.2228 0.2425 0.2802
C27 C -0.0674(4) 0.2601(7) 0.1364(2)
H33 H -0.0972 0.3230 0.1377
H34 H -0.0936 0.1838 0.1233
H35 H -0.0502 0.2903 0.1175
C28 C 0.0286(5) 0.0189(8) 0.2847(3)
H36 H -0.0138 -0.0280 0.2655
H37 H 0.0255 0.0621 0.3085
H38 H 0.0678 -0.0380 0.2988
C29 C 0.1673(4) 0.1215(6) 0.3186(2)
H39 H 0.2021 0.1884 0.3300
H40 H 0.1511 0.1136 0.3400
C30 C 0.2336(4) -0.0796(7) 0.3545(2)
H41 H 0.2344 -0.0762 0.3823
C31 C 0.2647(4) -0.1669(7) 0.3423(2)
H42 H 0.2905 -0.2354 0.3605
C32 C 0.2143(4) -0.0367(7) 0.2867(2)
H43 H 0.1984 0.0042 0.2586
C33 C 0.1061(4) 0.1593(6) 0.2716(2)
C34 C 0.1168(3) 0.2469(5) 0.2450(2)
C35 C 0.0606(4) 0.2822(5) 0.2016(2)
C36 C -0.0062(4) 0.2339(6) 0.1849(2)
C37 C -0.0182(4) 0.1533(6) 0.2137(2)
C38 C 0.0383(4) 0.1138(6) 0.2554(3)
C39 C -0.0907(4) 0.1181(7) 0.2001(3)
H44 H -0.0903 0.0919 0.2277
H45 H -0.1202 0.1925 0.1879
C40 C -0.0890(4) -0.0769(7) 0.1573(3)
H46 H -0.0408 -0.0901 0.1721
C41 C -0.1401(5) -0.1474(7) 0.1232(3)
H47 H -0.1323 -0.2185 0.1104
C42 C -0.1902(4) -0.0012(7) 0.1361(3)
H48 H -0.2243 0.0523 0.1345
C43 C 0.2017(4) 0.1742(6) 0.0325(3)
C44 C 0.1932(4) 0.0710(6) -0.0014(2)
H49 H 0.1435 0.0569 -0.0229
H50 H 0.2130 0.1006 -0.0192
C45 C 0.2271(4) -0.0538(6) 0.0210(2)
H51 H 0.2769 -0.0404 0.0424
H52 H 0.2074 -0.0841 0.0387
C46 C 0.2172(4) -0.1535(6) -0.0138(2)
H53 H 0.2360 -0.1223 -0.0320
H54 H 0.1674 -0.1679 -0.0348
C47 C 0.2522(4) -0.2781(6) 0.0081(2)
H55 H 0.2327 -0.3105 0.0258
H56 H 0.3019 -0.2636 0.0297
C48 C 0.2431(4) -0.3770(5) -0.0274(2)
H57 H 0.1934 -0.3932 -0.0483
H58 H 0.2610 -0.3427 -0.0458
C49 C 0.2793(4) -0.4994(5) -0.0068(2)
H59 H 0.3295 -0.4840 0.0113
H60 H 0.2657 -0.5278 0.0146
C50 C 0.2655(5) -0.6026(7) -0.0398(3)
C51 C 0.3708(4) -1.0512(7) -0.0287(3)
C52 C 0.4211(4) -1.1446(7) 0.0078(2)
H61 H 0.4032 -1.1664 0.0275
H62 H 0.4659 -1.1029 0.0272
C53 C 0.4335(5) -1.2665(7) -0.0108(3)
H63 H 0.4572 -1.3264 0.0145
H64 H 0.3884 -1.3025 -0.0336
C54 C 0.4764(4) -1.2500(7) -0.0330(3)
H65 H 0.4566 -1.1813 -0.0552
H66 H 0.5237 -1.2259 -0.0091
C55 C 0.4799(5) -1.3661(7) -0.0573(3)
H67 H 0.4981 -1.4352 -0.0352
H68 H 0.4326 -1.3885 -0.0816
C56 C 0.5240(5) -1.3536(8) -0.0784(3)
H69 H 0.5270 -1.4355 -0.0900
H70 H 0.5711 -1.3294 -0.0542
C57 C 0.4972(5) -1.2586(7) -0.1175(3)
H71 H 0.4923 -1.1774 -0.1062
H72 H 0.5319 -1.2493 -0.1262
C58 C 0.4287(5) -1.2931(8) -0.1596(3)
C59 C 0.1050(4) 0.6233(6) 0.0385(3)
C60 C 0.0513(4) 0.7170(6) 0.0044(3)
H73 H 0.0596 0.7298 -0.0207
H74 H 0.0050 0.6801 -0.0090
C61 C 0.0515(4) 0.8426(6) 0.0244(3)
H75 H 0.0414 0.8300 0.0487
H76 H 0.0983 0.8780 0.0388
C62 C 0.0011(5) 0.9354(6) -0.0092(3)
H77 H -0.0455 0.8989 -0.0236
H78 H 0.0114 0.9468 -0.0334
Cl1 Cl 0.22971(15) -0.39707(19) 0.22721(10)
Co1 Co 0.17853(4) 0.39269(7) 0.06224(3)
Co2 Co 0.30339(5) -0.83548(8) -0.06479(3)
Co3 Co 0.29648(6) -0.23171(7) 0.26841(3)
N1 N 0.7053(3) 0.3765(5) 0.28042(19)
N2 N 0.6745(3) 0.5251(5) 0.31131(19)
N3 N 0.3607(3) 0.5844(6) 0.1539(2)
N4 N 0.2766(3) 0.4601(5) 0.10373(17)
N5 N 0.6528(3) 0.7940(5) 0.10319(17)
N6 N 0.6112(3) 0.8192(5) 0.1487(2)
N7 N 0.1441(3) 0.3270(5) 0.10240(16)
N8 N 0.1006(3) 0.3274(4) 0.14728(16)
N9 N 0.2526(3) -0.1399(5) 0.29945(19)
N10 N 0.2008(3) 0.0027(5) 0.31838(18)
N11 N -0.2051(3) -0.1010(5) 0.10971(19)
N12 N -0.1220(3) 0.0170(5) 0.1655(2)
O1 O 0.1639(3) 0.2729(4) 0.01416(15)
O2 O 0.2421(3) 0.1641(4) 0.07405(17)
O3 O 0.2080(5) -0.6013(5) -0.0774(2)
O4 O 0.3060(3) -0.6889(6) -0.0307(3)
O5 O 0.1141(2) 0.5249(4) 0.02004(16)
O6 O 0.1359(3) 0.6419(4) 0.08051(19)
O7 O 0.3402(3) -1.0748(4) -0.07028(18)
O8 O 0.3625(3) -0.9478(4) -0.01243(16)
O9 O 0.4138(3) -1.4033(5) -0.17365(18)
O10 O 0.3854(3) -1.2007(5) -0.18141(18)
C59B C -0.1050(4) 1.3767(6) -0.0385(3)
C60B C -0.0513(4) 1.2830(6) -0.0044(3)
H73B H -0.0596 1.2702 0.0207
H74B H -0.0050 1.3199 0.0090
C61B C -0.0515(4) 1.1574(6) -0.0244(3)
H75B H -0.0414 1.1700 -0.0487
H76B H -0.0983 1.1220 -0.0388
C62B C -0.0011(5) 1.0646(6) 0.0092(3)
H77B H 0.0455 1.1011 0.0236
H78B H -0.0114 1.0532 0.0334
O5B O -0.1141(2) 1.4751(4) -0.02004(16)
O6B O -0.1359(3) 1.3581(4) -0.08051(19)
C1B C -0.3404(3) -1.4112(6) -0.1140(2)
H1B H -0.3465 -1.3376 -0.1016
C2B C -0.3917(4) -1.4862(7) -0.1446(3)
H2B H -0.4395 -1.4744 -0.1573
C3B C -0.2924(4) -1.5628(6) -0.1291(2)
H3B H -0.2592 -1.6146 -0.1295
C4B C -0.3929(4) -1.6917(8) -0.1855(3)
H4B H -0.3852 -1.6819 -0.2110
H5B H -0.3691 -1.7683 -0.1691
C5B C -0.6393(5) -1.6370(7) -0.3163(2)
H6B H -0.6740 -1.7008 -0.3348
H7B H -0.6154 -1.6131 -0.3322
C6B C -0.6612(4) -1.4695(6) -0.2721(2)
H8B H -0.6253 -1.4934 -0.2426
C7B C -0.7488(4) -1.3742(6) -0.3281(3)
H9B H -0.7855 -1.3176 -0.3444
C8B C -0.7307(4) -1.4656(6) -0.3480(2)
H10B H -0.7517 -1.4838 -0.3794
C9B C -0.6361(4) -1.6779(6) -0.1130(2)
H11B H -0.6411 -1.6013 -0.1016
C10B C -0.6116(4) -1.6914(6) -0.1413(3)
H12B H -0.5978 -1.6273 -0.1536
C11B C -0.6366(4) -1.8761(6) -0.1251(2)
H13B H -0.6421 -1.9629 -0.1244
C12B C -0.5895(6) -1.8885(6) -0.1768(3)
H14B H -0.5525 -1.9471 -0.1569
H15B H -0.6290 -1.9376 -0.2000
C13B C -0.4425(7) -1.8149(9) -0.1302(3)
H16B H -0.4028 -1.8566 -0.1281
H17B H -0.4268 -1.7424 -0.1102
H18B H -0.4660 -1.8721 -0.1209
C14B C -0.4927(6) -1.5764(8) -0.2730(3)
H19B H -0.5044 -1.6137 -0.3020
H20B H -0.5152 -1.4957 -0.2785
H21B H -0.4428 -1.5657 -0.2538
C15B C -0.6881(4) -1.7991(9) -0.2716(4)
H22B H -0.6992 -1.8329 -0.2499
H23B H -0.7156 -1.7246 -0.2858
H24B H -0.6986 -1.8609 -0.2951
C16B C -0.6112(4) -1.7661(6) -0.2464(3)
C17B C -0.5867(4) -1.6907(5) -0.2690(2)
C18B C -0.5174(4) -1.6617(6) -0.2486(3)
C19B C -0.4701(4) -1.7074(6) -0.2052(3)
C20B C -0.4922(5) -1.7739(6) -0.1794(2)
C21B C -0.5632(5) -1.8038(5) -0.2015(3)
C22B C -0.1383(3) -1.2055(6) -0.1137(2)
H25B H -0.1514 -1.1337 -0.1043
C23B C -0.1107(4) -1.2066(6) -0.1408(2)
H26B H -0.1005 -1.1363 -0.1527
C24B C -0.1220(3) -1.3965(6) -0.1242(2)
H27B H -0.1214 -1.4843 -0.1237
C25B C -0.0694(4) -1.3811(6) -0.1728(2)
H28B H -0.0239 -1.4174 -0.1508
H29B H -0.0993 -1.4483 -0.1930
C26B C -0.1871(4) -1.3048(7) -0.2633(3)
H30B H -0.1933 -1.3735 -0.2836
H31B H -0.1906 -1.3357 -0.2379
H32B H -0.2228 -1.2425 -0.2802
C27B C 0.0674(4) -1.2601(7) -0.1364(2)
H33B H 0.0972 -1.3230 -0.1377
H34B H 0.0936 -1.1838 -0.1233
H35B H 0.0502 -1.2903 -0.1175
C28B C -0.0286(5) -1.0189(8) -0.2847(3)
H36B H 0.0138 -0.9720 -0.2655
H37B H -0.0255 -1.0621 -0.3085
H38B H -0.0678 -0.9620 -0.2988
C29B C -0.1673(4) -1.1215(6) -0.3186(2)
H39B H -0.2021 -1.1884 -0.3300
H40B H -0.1511 -1.1136 -0.3400
C30B C -0.2336(4) -0.9204(7) -0.3545(2)
H41B H -0.2344 -0.9238 -0.3823
C31B C -0.2647(4) -0.8331(7) -0.3423(2)
H42B H -0.2905 -0.7646 -0.3605
C32B C -0.2143(4) -0.9633(7) -0.2867(2)
H43B H -0.1984 -1.0042 -0.2586
C33B C -0.1061(4) -1.1593(6) -0.2716(2)
C34B C -0.1168(3) -1.2469(5) -0.2450(2)
C35B C -0.0606(4) -1.2822(5) -0.2016(2)
C36B C 0.0062(4) -1.2339(6) -0.1849(2)
C37B C 0.0182(4) -1.1533(6) -0.2137(2)
C38B C -0.0383(4) -1.1138(6) -0.2554(3)
C39B C 0.0907(4) -1.1181(7) -0.2001(3)
H44B H 0.0903 -1.0919 -0.2277
H45B H 0.1202 -1.1925 -0.1879
C40B C 0.0890(4) -0.9231(7) -0.1573(3)
H46B H 0.0408 -0.9099 -0.1721
C41B C 0.1401(5) -0.8526(7) -0.1232(3)
H47B H 0.1323 -0.7815 -0.1104
C42B C 0.1902(4) -0.9988(7) -0.1361(3)
H48B H 0.2243 -1.0523 -0.1345
C43B C -0.2017(4) -1.1742(6) -0.0325(3)
C44B C -0.1932(4) -1.0710(6) 0.0014(2)
H49B H -0.1435 -1.0569 0.0229
H50B H -0.2130 -1.1006 0.0192
C45B C -0.2271(4) -0.9462(6) -0.0210(2)
H51B H -0.2769 -0.9596 -0.0424
H52B H -0.2074 -0.9159 -0.0387
C46B C -0.2172(4) -0.8465(6) 0.0138(2)
H53B H -0.2360 -0.8777 0.0320
H54B H -0.1674 -0.8321 0.0348
C47B C -0.2522(4) -0.7219(6) -0.0081(2)
H55B H -0.2327 -0.6895 -0.0258
H56B H -0.3019 -0.7364 -0.0297
C48B C -0.2431(4) -0.6230(5) 0.0274(2)
H57B H -0.1934 -0.6068 0.0483
H58B H -0.2610 -0.6573 0.0458
C49B C -0.2793(4) -0.5006(5) 0.0068(2)
H59B H -0.3295 -0.5160 -0.0113
H60B H -0.2657 -0.4722 -0.0146
C50B C -0.2655(5) -0.3974(7) 0.0398(3)
C51B C -0.3708(4) 0.0512(7) 0.0287(3)
C52B C -0.4211(4) 0.1446(7) -0.0078(2)
H61B H -0.4032 0.1664 -0.0275
H62B H -0.4659 0.1029 -0.0272
C53B C -0.4335(5) 0.2665(7) 0.0108(3)
H63B H -0.4572 0.3264 -0.0145
H64B H -0.3884 0.3025 0.0336
C54B C -0.4764(4) 0.2500(7) 0.0330(3)
H65B H -0.4566 0.1813 0.0552
H66B H -0.5237 0.2259 0.0091
C55B C -0.4799(5) 0.3661(7) 0.0573(3)
H67B H -0.4981 0.4352 0.0352
H68B H -0.4326 0.3885 0.0816
C56B C -0.5240(5) 0.3536(8) 0.0784(3)
H69B H -0.5270 0.4355 0.0900
H70B H -0.5711 0.3294 0.0542
C57B C -0.4972(5) 0.2586(7) 0.1175(3)
H71B H -0.4923 0.1774 0.1062
H72B H -0.5319 0.2493 0.1262
C58B C -0.4287(5) 0.2931(8) 0.1596(3)
Cl1B Cl -0.22971(15) -0.60293(19) -0.22721(10)
Co1B Co -0.17853(4) -1.39269(7) -0.06224(3)
Co2B Co -0.30339(5) -0.16452(8) 0.06479(3)
Co3B Co -0.29648(6) -0.76829(7) -0.26841(3)
N1B N -0.7053(3) -1.3765(5) -0.28042(19)
N2B N -0.6745(3) -1.5251(5) -0.31131(19)
N3B N -0.3607(3) -1.5844(6) -0.1539(2)
N4B N -0.2766(3) -1.4601(5) -0.10373(17)
N5B N -0.6528(3) -1.7940(5) -0.10319(17)
N6B N -0.6112(3) -1.8192(5) -0.1487(2)
N7B N -0.1441(3) -1.3270(5) -0.10240(16)
N8B N -0.1006(3) -1.3274(4) -0.14728(16)
N9B N -0.2526(3) -0.8601(5) -0.29945(19)
N10B N -0.2008(3) -1.0027(5) -0.31838(18)
N11B N 0.2051(3) -0.8990(5) -0.10971(19)
N12B N 0.1220(3) -1.0170(5) -0.1655(2)
O1B O -0.1639(3) -1.2729(4) -0.01416(15)
O2B O -0.2421(3) -1.1641(4) -0.07405(17)
O3B O -0.2080(5) -0.3987(5) 0.0774(2)
O4B O -0.3060(3) -0.3111(6) 0.0307(3)
O7B O -0.3402(3) 0.0748(4) 0.07028(18)
O8B O -0.3625(3) -0.0522(4) 0.01243(16)
O9B O -0.4138(3) 0.4033(5) 0.17365(18)
O10B O -0.3854(3) 0.2007(5) 0.18141(18)
Co1B_2 Co -0.17853(4) 1.60731(7) -0.06224(3)
Co2_2 Co -0.69661(5) -1.83548(8) -0.06479(3)
Co2B_2 Co 0.69661(5) 0.83548(8) 0.06479(3)
Co3A Co -0.29648(6) 0.26829(7) 0.23159(3)
Co3A_2 Co 0.70352(6) 0.26829(7) 0.23159(3)
Co3C Co -0.70352(6) -1.26829(7) -0.23159(3)
Co3C_2 Co 0.29648(6) -1.26829(7) -0.23159(3)
N1A N 0.2947(3) -0.1235(5) 0.21958(19)
N1C N -0.2947(3) -0.8765(5) -0.21958(19)
N5_2 N -0.3472(3) -0.2060(5) 0.10319(17)
N5B_2 N 0.3472(3) -0.7940(5) -0.10319(17)
O5B_2 O -0.1141(2) -1.5249(4) -0.02004(16)
O10A O -0.3854(3) -0.7007(5) -0.31859(18)
O10C O 0.3854(3) -0.2993(5) 0.31859(18)
O11 O 0.0725(3) 0.4535(7) 0.9267(2)
O12 O 0.0429(5) 0.7033(8) 0.1193(3)
O13 O 0.3749(5) 0.0930(9) 0.0796(3)
O14 O 0.0872(6) 0.7761(19) 0.2037(5)
loop_
_geom_bond_atom_site_label_1
_geom_bond_atom_site_label_2
_geom_bond_site_symmetry_1
_geom_bond_site_symmetry_2
C1 H1 1_555 1_555
C2 C1 1_555 1_555
H2 C2 1_555 1_555
C3 H3 1_555 1_555
C4 H4 1_555 1_555
H5 C4 1_555 1_555
C5 H6 1_555 1_555
H7 C5 1_555 1_555
C6 H8 1_555 1_555
C7 H9 1_555 1_555
C8 C7 1_555 1_555
H10 C8 1_555 1_555
C9 H11 1_555 1_555
C10 C9 1_555 1_555
H12 C10 1_555 1_555
C11 H13 1_555 1_555
C12 H14 1_555 1_555
H15 C12 1_555 1_555
C13 H16 1_555 1_555
H17 C13 1_555 1_555
H18 C13 1_555 1_555
C14 H19 1_555 1_555
H20 C14 1_555 1_555
H21 C14 1_555 1_555
C15 H22 1_555 1_555
H23 C15 1_555 1_555
H24 C15 1_555 1_555
C16 C15 1_555 1_555
C17 C5 1_555 1_555
C18 C14 1_555 1_555
C19 C4 1_555 1_555
C20 C13 1_555 1_555
C21 C12 1_555 1_555
C22 H25 1_555 1_555
C23 C22 1_555 1_555
H26 C23 1_555 1_555
C24 H27 1_555 1_555
C25 H28 1_555 1_555
H29 C25 1_555 1_555
C26 H30 1_555 1_555
H31 C26 1_555 1_555
H32 C26 1_555 1_555
C27 H33 1_555 1_555
H34 C27 1_555 1_555
H35 C27 1_555 1_555
C28 H36 1_555 1_555
H37 C28 1_555 1_555
H38 C28 1_555 1_555
C29 H39 1_555 1_555
H40 C29 1_555 1_555
C30 H41 1_555 1_555
C31 C30 1_555 1_555
H42 C31 1_555 1_555
C32 H43 1_555 1_555
C33 C29 1_555 1_555
C34 C26 1_555 1_555
C35 C25 1_555 1_555
C36 C27 1_555 1_555
C37 C36 1_555 1_555
C38 C28 1_555 1_555
C39 C37 1_555 1_555
H44 C39 1_555 1_555
H45 C39 1_555 1_555
C40 H46 1_555 1_555
C41 C40 1_555 1_555
H47 C41 1_555 1_555
C42 H48 1_555 1_555
C43 C44 1_555 1_555
C44 H49 1_555 1_555
H50 C44 1_555 1_555
C45 C44 1_555 1_555
H51 C45 1_555 1_555
H52 C45 1_555 1_555
C46 C45 1_555 1_555
H53 C46 1_555 1_555
H54 C46 1_555 1_555
C47 C46 1_555 1_555
H55 C47 1_555 1_555
H56 C47 1_555 1_555
C48 C47 1_555 1_555
H57 C48 1_555 1_555
H58 C48 1_555 1_555
C49 C48 1_555 1_555
H59 C49 1_555 1_555
H60 C49 1_555 1_555
C50 C49 1_555 1_555
C51 C52 1_555 1_555
C52 H61 1_555 1_555
H62 C52 1_555 1_555
C53 C52 1_555 1_555
H63 C53 1_555 1_555
H64 C53 1_555 1_555
C54 C53 1_555 1_555
H65 C54 1_555 1_555
H66 C54 1_555 1_555
C55 C54 1_555 1_555
H67 C55 1_555 1_555
H68 C55 1_555 1_555
C56 C55 1_555 1_555
H69 C56 1_555 1_555
H70 C56 1_555 1_555
C57 C56 1_555 1_555
H71 C57 1_555 1_555
H72 C57 1_555 1_555
C58 C57 1_555 1_555
C59 C60 1_555 1_555
C60 H73 1_555 1_555
H74 C60 1_555 1_555
C61 C60 1_555 1_555
H75 C61 1_555 1_555
H76 C61 1_555 1_555
C62 C61 1_555 1_555
H77 C62 1_555 1_555
H78 C62 1_555 1_555
Cl1 Co3 1_555 1_555
Co1 N4 1_555 1_555
Co2 O4 1_555 1_555
Co3 N9 1_555 1_555
N1 C6 1_555 1_555
N2 C5 1_555 1_555
N3 C2 1_555 1_555
N4 C1 1_555 1_555
N5 C9 1_555 1_555
N6 C10 1_555 1_555
N7 C22 1_555 1_555
N8 C23 1_555 1_555
N9 C31 1_555 1_555
N10 C29 1_555 1_555
N11 C41 1_555 1_555
N12 C39 1_555 1_555
O1 C43 1_555 1_555
O2 C43 1_555 1_555
O3 C50 1_555 1_555
O4 C50 1_555 1_555
O5 C59 1_555 1_555
O6 C59 1_555 1_555
O7 C51 1_555 1_555
O8 C51 1_555 1_555
O9 C58 1_555 1_555
O10 C58 1_555 1_555
C59B C60B 1_555 1_555
C60B H73B 1_555 1_555
H74B C60B 1_555 1_555
C61B C60B 1_555 1_555
H75B C61B 1_555 1_555
H76B C61B 1_555 1_555
C62B C62 1_555 1_555
H77B C62B 1_555 1_555
H78B C62B 1_555 1_555
O5B C59B 1_555 1_555
O6B C59B 1_555 1_555
C1B H1B 1_555 1_555
C2B C1B 1_555 1_555
H2B C2B 1_555 1_555
C3B H3B 1_555 1_555
C4B H4B 1_555 1_555
H5B C4B 1_555 1_555
C5B H6B 1_555 1_555
H7B C5B 1_555 1_555
C6B H8B 1_555 1_555
C7B H9B 1_555 1_555
C8B C7B 1_555 1_555
H10B C8B 1_555 1_555
C9B H11B 1_555 1_555
C10B C9B 1_555 1_555
H12B C10B 1_555 1_555
C11B H13B 1_555 1_555
C12B H14B 1_555 1_555
H15B C12B 1_555 1_555
C13B H16B 1_555 1_555
H17B C13B 1_555 1_555
H18B C13B 1_555 1_555
C14B H19B 1_555 1_555
H20B C14B 1_555 1_555
H21B C14B 1_555 1_555
C15B H22B 1_555 1_555
H23B C15B 1_555 1_555
H24B C15B 1_555 1_555
C16B C15B 1_555 1_555
C17B C5B 1_555 1_555
C18B C14B 1_555 1_555
C19B C4B 1_555 1_555
C20B C13B 1_555 1_555
C21B C12B 1_555 1_555
C22B H25B 1_555 1_555
C23B C22B 1_555 1_555
H26B C23B 1_555 1_555
C24B H27B 1_555 1_555
C25B H28B 1_555 1_555
H29B C25B 1_555 1_555
C26B H30B 1_555 1_555
H31B C26B 1_555 1_555
H32B C26B 1_555 1_555
C27B H33B 1_555 1_555
H34B C27B 1_555 1_555
H35B C27B 1_555 1_555
C28B H36B 1_555 1_555
H37B C28B 1_555 1_555
H38B C28B 1_555 1_555
C29B H39B 1_555 1_555
H40B C29B 1_555 1_555
C30B H41B 1_555 1_555
C31B C30B 1_555 1_555
H42B C31B 1_555 1_555
C32B H43B 1_555 1_555
C33B C29B 1_555 1_555
C34B C26B 1_555 1_555
C35B C25B 1_555 1_555
C36B C27B 1_555 1_555
C37B C36B 1_555 1_555
C38B C28B 1_555 1_555
C39B C37B 1_555 1_555
H44B C39B 1_555 1_555
H45B C39B 1_555 1_555
C40B H46B 1_555 1_555
C41B C40B 1_555 1_555
H47B C41B 1_555 1_555
C42B H48B 1_555 1_555
C43B C44B 1_555 1_555
C44B H49B 1_555 1_555
H50B C44B 1_555 1_555
C45B C44B 1_555 1_555
H51B C45B 1_555 1_555
H52B C45B 1_555 1_555
C46B C45B 1_555 1_555
H53B C46B 1_555 1_555
H54B C46B 1_555 1_555
C47B C46B 1_555 1_555
H55B C47B 1_555 1_555
H56B C47B 1_555 1_555
C48B C47B 1_555 1_555
H57B C48B 1_555 1_555
H58B C48B 1_555 1_555
C49B C48B 1_555 1_555
H59B C49B 1_555 1_555
H60B C49B 1_555 1_555
C50B C49B 1_555 1_555
C51B C52B 1_555 1_555
C52B H61B 1_555 1_555
H62B C52B 1_555 1_555
C53B C52B 1_555 1_555
H63B C53B 1_555 1_555
H64B C53B 1_555 1_555
C54B C53B 1_555 1_555
H65B C54B 1_555 1_555
H66B C54B 1_555 1_555
C55B C54B 1_555 1_555
H67B C55B 1_555 1_555
H68B C55B 1_555 1_555
C56B C55B 1_555 1_555
H69B C56B 1_555 1_555
H70B C56B 1_555 1_555
C57B C56B 1_555 1_555
H71B C57B 1_555 1_555
H72B C57B 1_555 1_555
C58B C57B 1_555 1_555
Cl1B Co3B 1_555 1_555
Co1B N4B 1_555 1_555
Co2B N11 1_555 1_555
Co3B N9B 1_555 1_555
N1B C6B 1_555 1_555
N2B C5B 1_555 1_555
N3B C2B 1_555 1_555
N4B C1B 1_555 1_555
N5B C9B 1_555 1_555
N6B C10B 1_555 1_555
N7B C22B 1_555 1_555
N8B C23B 1_555 1_555
N9B C31B 1_555 1_555
N10B C29B 1_555 1_555
N11B Co2 1_555 1_555
N12B C39B 1_555 1_555
O1B C43B 1_555 1_555
O2B C43B 1_555 1_555
O3B C50B 1_555 1_555
O4B C50B 1_555 1_555
O7B C51B 1_555 1_555
O8B C51B 1_555 1_555
O9B C58B 1_555 1_555
O10B C58B 1_555 1_555
Co1B_2 O5B 1_555 1_555
Co2_2 N5B 1_555 1_555
Co2B_2 N5 1_555 1_555
Co3A O10B 1_555 1_555
Co3A_2 N1 1_555 1_555
Co3C N1B 1_555 1_555
Co3C_2 O10 1_555 1_555
N1A Co3 1_555 1_555
N1C Co3B 1_555 1_555
N5_2 Co2B 1_555 1_555
N5B_2 Co2 1_555 1_555
O5B_2 Co1B 1_555 1_555
O10A Co3B 1_555 1_555
O10C Co3 1_555 1_555
C3 N3 1_555 1_555
C3 N4 1_555 1_555
C4 N3 1_555 1_555
C6 N2 1_555 1_555
C7 N1 1_555 1_555
C8 N2 1_555 1_555
C11 N5 1_555 1_555
C11 N6 1_555 1_555
C12 N6 1_555 1_555
C16 C17 1_555 1_555
C16 C21 1_555 1_555
C17 C18 1_555 1_555
C18 C19 1_555 1_555
C19 C20 1_555 1_555
C20 C21 1_555 1_555
C24 N7 1_555 1_555
C24 N8 1_555 1_555
C25 N8 1_555 1_555
C30 N10 1_555 1_555
C32 N9 1_555 1_555
C32 N10 1_555 1_555
C33 C34 1_555 1_555
C33 C38 1_555 1_555
C34 C35 1_555 1_555
C35 C36 1_555 1_555
C37 C38 1_555 1_555
C40 N12 1_555 1_555
C42 N11 1_555 1_555
C42 N12 1_555 1_555
Co1 N7 1_555 1_555
Co1 O1 1_555 1_555
Co1 O5 1_555 1_555
Co2 O8 1_555 1_555
C61B C62B 1_555 1_555
C3B N3B 1_555 1_555
C3B N4B 1_555 1_555
C4B N3B 1_555 1_555
C6B N2B 1_555 1_555
C7B N1B 1_555 1_555
C8B N2B 1_555 1_555
C11B N5B 1_555 1_555
C11B N6B 1_555 1_555
C12B N6B 1_555 1_555
C16B C17B 1_555 1_555
C16B C21B 1_555 1_555
C17B C18B 1_555 1_555
C18B C19B 1_555 1_555
C19B C20B 1_555 1_555
C20B C21B 1_555 1_555
C24B N7B 1_555 1_555
C24B N8B 1_555 1_555
C25B N8B 1_555 1_555
C30B N10B 1_555 1_555
C32B N9B 1_555 1_555
C32B N10B 1_555 1_555
C33B C34B 1_555 1_555
C33B C38B 1_555 1_555
C34B C35B 1_555 1_555
C35B C36B 1_555 1_555
C37B C38B 1_555 1_555
C40B N12B 1_555 1_555
C41B N11B 1_555 1_555
C42B N11B 1_555 1_555
C42B N12B 1_555 1_555
Co1B N7B 1_555 1_555
Co1B O1B 1_555 1_555
Co2B O4B 1_555 1_555
Co2B O8B 1_555 1_555

#END
