
#######################################################################
#
#                 Cambridge Crystallographic Data Centre
#                                CCDC 
#
#######################################################################
#
# If this CIF has been generated from an entry in the Cambridge 
# Structural Database, then it will include bibliographic, chemical, 
# crystal, experimental, refinement or atomic coordinate data resulting 
# from the CCDC's data processing and validation procedures.
#
#######################################################################

data_GOWWEW
_symmetry_cell_setting           monoclinic
_symmetry_space_group_name_H-M   'P 21/c'
_symmetry_Int_Tables_number      14
_space_group_name_Hall           '-P 2ybc'
loop_
_symmetry_equiv_pos_site_id
_symmetry_equiv_pos_as_xyz
1 x,y,z
2 -x,1/2+y,1/2-z
3 -x,-y,-z
4 x,1/2-y,1/2+z
_cell_length_a                   8.4810(3)
_cell_length_b                   12.2555(3)
_cell_length_c                   14.4601(5)
_cell_angle_alpha                90
_cell_angle_beta                 125.055(2)
_cell_angle_gamma                90
_cell_volume                     1230.33
loop_
_atom_site_label
_atom_site_type_symbol
_atom_site_fract_x
_atom_site_fract_y
_atom_site_fract_z
V1 V -0.84690(8) -0.10957(4) 0.05156(4)
O1 O -0.6628(4) -0.1605(2) 0.0667(2)
O2 O -0.8734(3) 0.01954(17) -0.01781(17)
O3 O -1.0341(4) -0.19475(19) -0.06889(19)
O4 O -0.7230(3) -0.04198(17) 0.19753(17)
N1 N -0.8834(4) -0.2205(2) 0.1486(2)
N2 N -0.7986(4) -0.1896(2) 0.2614(2)
C1 C -0.7327(5) 0.0681(3) -0.0300(3)
H1 H -0.7963 0.1231 -0.0912
H2 H -0.6776 0.0111 -0.0521
C2 C -0.5736(6) 0.1217(3) 0.0764(4)
H3 H -0.5063 0.0669 0.1364
H4 H -0.6275 0.1779 0.0989
H5 H -0.4828 0.1553 0.0637
C3 C -1.0976(5) -0.2954(3) -0.0810(3)
C4 C -1.2125(7) -0.3350(4) -0.2000(3)
H6 H -1.1275 -0.3452 -0.2248
H7 H -1.3120 -0.2811 -0.2487
H8 H -1.2737 -0.4046 -0.2048
C5 C -1.0684(5) -0.3545(3) 0.0067(3)
H9 H -1.1168 -0.4270 -0.0083
C6 C -0.9708(5) -0.3159(3) 0.1196(3)
C7 C -0.9746(6) -0.3846(3) 0.2046(3)
H10 H -1.0526 -0.3482 0.2256
H11 H -0.8429 -0.3943 0.2720
H12 H -1.0306 -0.4561 0.1716
C8 C -0.7149(5) -0.0966(2) 0.2778(2)
C9 C -0.6035(5) -0.0475(2) 0.3923(2)
C10 C -0.5981(5) -0.0977(3) 0.4808(3)
H13 H -0.6655 -0.1642 0.4678
C11 C -0.5048(5) 0.0512(3) 0.4128(3)
H14 H -0.5086 0.0864 0.3530
O3B O 0.0341(4) 0.19475(19) 1.06889(19)
O4B O -0.2770(3) 0.04198(17) 0.80247(17)
N1B N -0.1166(4) 0.2205(2) 0.8514(2)
N2B N -0.2014(4) 0.1896(2) 0.7386(2)
C3B C 0.0976(5) 0.2954(3) 1.0810(3)
C4B C 0.2125(7) 0.3350(4) 1.2000(3)
H6B H 0.1275 0.3452 1.2248
H7B H 0.3120 0.2811 1.2487
H8B H 0.2737 0.4046 1.2048
C5B C 0.0684(5) 0.3545(3) 0.9933(3)
H9B H 0.1168 0.4270 1.0083
C6B C -0.0292(5) 0.3159(3) 0.8804(3)
C7B C -0.0254(6) 0.3846(3) 0.7954(3)
H10B H 0.0526 0.3482 0.7744
H11B H -0.1571 0.3943 0.7280
H12B H 0.0306 0.4561 0.8284
C8B C -0.2851(5) 0.0966(2) 0.7222(2)
C9B C -0.3965(5) 0.0475(2) 0.6077(2)
C10B C -0.4019(5) 0.0977(3) 0.5192(3)
H13B H -0.3345 0.1642 0.5322
C11B C -0.4952(5) -0.0512(3) 0.5872(3)
H14B H -0.4914 -0.0864 0.6470
V1B V -1.15310(8) 0.10957(4) -0.05156(4)
O1B O -1.3372(4) 0.1605(2) -0.0667(2)
O2B O -1.1266(3) -0.01954(17) 0.01781(17)
C1B C -1.2673(5) -0.0681(3) 0.0300(3)
H1B H -1.2037 -0.1231 0.0912
H2B H -1.3224 -0.0111 0.0521
C2B C -1.4264(6) -0.1217(3) -0.0764(4)
H3B H -1.4937 -0.0669 -0.1364
H4B H -1.3725 -0.1779 -0.0989
H5B H -1.5172 -0.1553 -0.0637
V1B_2 V -0.15310(8) 0.10957(4) 0.94844(4)
O3B_2 O -0.9659(4) 0.19475(19) 0.06889(19)
O4B_2 O -1.2770(3) 0.04198(17) -0.19753(17)
N1B_2 N -1.1166(4) 0.2205(2) -0.1486(2)
loop_
_geom_bond_atom_site_label_1
_geom_bond_atom_site_label_2
_geom_bond_site_symmetry_1
_geom_bond_site_symmetry_2
V1 O1 1_555 1_555
O2 V1 1_555 1_555
O3 V1 1_555 1_555
O4 V1 1_555 1_555
N1 V1 1_555 1_555
N2 N1 1_555 1_555
C1 O2 1_555 1_555
H1 C1 1_555 1_555
H2 C1 1_555 1_555
C2 C1 1_555 1_555
H3 C2 1_555 1_555
H4 C2 1_555 1_555
H5 C2 1_555 1_555
C3 O3 1_555 1_555
C4 C3 1_555 1_555
H6 C4 1_555 1_555
H7 C4 1_555 1_555
H8 C4 1_555 1_555
C5 C3 1_555 1_555
H9 C5 1_555 1_555
C6 N1 1_555 1_555
C7 C6 1_555 1_555
H10 C7 1_555 1_555
H11 C7 1_555 1_555
H12 C7 1_555 1_555
C8 O4 1_555 1_555
C9 C8 1_555 1_555
C10 C9 1_555 1_555
H13 C10 1_555 1_555
C11 C9 1_555 1_555
H14 C11 1_555 1_555
O3B C3B 1_555 1_555
O4B C8B 1_555 1_555
N1B N2B 1_555 1_555
N2B C8B 1_555 1_555
C3B C4B 1_555 1_555
C4B H6B 1_555 1_555
H7B C4B 1_555 1_555
H8B C4B 1_555 1_555
C5B C3B 1_555 1_555
H9B C5B 1_555 1_555
C6B N1B 1_555 1_555
C7B C6B 1_555 1_555
H10B C7B 1_555 1_555
H11B C7B 1_555 1_555
H12B C7B 1_555 1_555
C8B C9B 1_555 1_555
C9B C10B 1_555 1_555
C10B C11 1_555 1_555
H13B C10B 1_555 1_555
C11B C10 1_555 1_555
H14B C11B 1_555 1_555
V1B O2 1_555 1_555
O1B V1B 1_555 1_555
O2B V1 1_555 1_555
C1B O2B 1_555 1_555
H1B C1B 1_555 1_555
H2B C1B 1_555 1_555
C2B C1B 1_555 1_555
H3B C2B 1_555 1_555
H4B C2B 1_555 1_555
H5B C2B 1_555 1_555
V1B_2 O3B 1_555 1_555
O3B_2 V1B 1_555 1_555
O4B_2 V1B 1_555 1_555
N1B_2 V1B 1_555 1_555
N2 C8 1_555 1_555
C5 C6 1_555 1_555
O4B V1B_2 1_555 1_555
N1B V1B_2 1_555 1_555
C5B C6B 1_555 1_555
C9B C11B 1_555 1_555
V1B O2B 1_555 1_555

#END
