
#######################################################################
#
#                 Cambridge Crystallographic Data Centre
#                                CCDC 
#
#######################################################################
#
# If this CIF has been generated from an entry in the Cambridge 
# Structural Database, then it will include bibliographic, chemical, 
# crystal, experimental, refinement or atomic coordinate data resulting 
# from the CCDC's data processing and validation procedures.
#
#######################################################################

data_GOWZID
_symmetry_cell_setting           monoclinic
_symmetry_space_group_name_H-M   'P 21/c'
_symmetry_Int_Tables_number      14
_space_group_name_Hall           '-P 2ybc'
loop_
_symmetry_equiv_pos_site_id
_symmetry_equiv_pos_as_xyz
1 x,y,z
2 -x,1/2+y,1/2-z
3 -x,-y,-z
4 x,1/2-y,1/2+z
_cell_length_a                   12.584(2)
_cell_length_b                   11.4846(19)
_cell_length_c                   15.765(3)
_cell_angle_alpha                90
_cell_angle_beta                 101.664(2)
_cell_angle_gamma                90
_cell_volume                     2231.34
loop_
_atom_site_label
_atom_site_type_symbol
_atom_site_fract_x
_atom_site_fract_y
_atom_site_fract_z
Cd1 Cd 0.70247(7) 0.86365(8) 0.39103(5)
C1 C 0.6591(10) 0.6418(11) 0.2361(8)
C2 C 0.7261(10) 0.5483(11) 0.2838(7)
C3 C 0.8241(10) 0.5700(12) 0.3389(8)
H1 H 0.8508 0.6456 0.3465
C4 C 0.8825(11) 0.4784(13) 0.3830(8)
H2 H 0.9478 0.4938 0.4208
C5 C 0.8461(10) 0.3655(12) 0.3721(8)
H3 H 0.8867 0.3047 0.4012
C6 C 0.7476(10) 0.3446(11) 0.3167(8)
C7 C 0.6868(10) 0.4360(12) 0.2738(7)
H4 H 0.6196 0.4213 0.2384
C8 C 0.7334(10) 0.1361(11) 0.3574(8)
H5 H 0.7825 0.1395 0.4101
C9 C 0.6324(11) 0.1867(12) 0.2333(8)
H6 H 0.5988 0.2293 0.1851
C10 C 0.6183(10) 0.0732(12) 0.2478(8)
H7 H 0.5725 0.0235 0.2106
C11 C 0.9589(10) 0.9294(11) 0.3673(7)
C12 C 0.9264(10) 0.9921(11) 0.2840(7)
C13 C 0.9578(11) 1.1059(12) 0.2751(8)
H8 H 1.0046 1.1426 0.3205
C14 C 0.9197(12) 1.1652(13) 0.1986(9)
H9 H 0.9393 1.2425 0.1934
C15 C 0.8527(12) 1.1104(12) 0.1298(8)
H10 H 0.8276 1.1503 0.0784
C16 C 0.8235(10) 0.9962(12) 0.1384(7)
C17 C 0.8589(10) 0.9356(12) 0.2152(7)
H11 H 0.8379 0.8588 0.2206
C18 C 0.7703(12) 0.8265(13) 0.0411(8)
H12 H 0.8281 0.7789 0.0658
C19 C 0.6622(11) 0.9786(13) 0.0155(8)
H13 H 0.6310 1.0517 0.0176
C20 C 0.6256(12) 0.8908(13) -0.0405(9)
H14 H 0.5633 0.8943 -0.0838
N1 N 0.5976(9) 0.6256(9) 0.1577(6)
N2 N 0.5478(9) 0.7291(10) 0.1366(6)
N3 N 0.5786(9) 0.8044(10) 0.1992(6)
N4 N 0.6502(8) 0.7511(9) 0.2636(6)
N5 N 0.7068(8) 0.2280(9) 0.3040(6)
N6 N 0.6817(8) 0.0413(9) 0.3261(6)
N7 N 0.8916(8) 0.8656(9) 0.4035(6)
N8 N 0.9538(9) 0.8222(11) 0.4773(7)
N9 N 1.0532(9) 0.8601(10) 0.4827(7)
N10 N 1.0588(8) 0.9288(10) 0.4147(6)
N11 N 0.7549(9) 0.9368(10) 0.0684(6)
N12 N 0.6935(9) 0.7962(10) -0.0243(7)
O1 O 0.7326(7) 0.9787(9) 0.5294(5)
H15 H 0.7962 1.0029 0.5511
H16 H 0.7100 0.9410 0.5688
O2 O 0.5224(7) 0.9041(9) 0.4022(6)
H17 H 0.4921 0.9832 0.3938
H18 H 0.4818 0.8587 0.4302
Cd1_2 Cd 0.70247(7) -0.13635(8) 0.39103(5)
Cd1C Cd 0.70247(7) 0.63635(8) -0.10897(5)
N6_2 N 0.6817(8) 1.0413(9) 0.3261(6)
N12C N 0.6935(9) 0.7038(10) 0.4757(7)
O3 O 0.6135(9) 0.2831(11) 0.0153(6)
H19 H 0.570(12) 0.278(16) -0.033(7)
H20 H 0.648(13) 0.344(12) 0.013(11)
loop_
_geom_bond_atom_site_label_1
_geom_bond_atom_site_label_2
_geom_bond_site_symmetry_1
_geom_bond_site_symmetry_2
Cd1 N4 1_555 1_555
C1 C2 1_555 1_555
C2 C3 1_555 1_555
C3 H1 1_555 1_555
C4 C3 1_555 1_555
H2 C4 1_555 1_555
C5 C4 1_555 1_555
H3 C5 1_555 1_555
C6 C5 1_555 1_555
C7 C2 1_555 1_555
H4 C7 1_555 1_555
C8 H5 1_555 1_555
C9 H6 1_555 1_555
C10 C9 1_555 1_555
H7 C10 1_555 1_555
C11 C12 1_555 1_555
C12 C13 1_555 1_555
C13 H8 1_555 1_555
C14 C13 1_555 1_555
H9 C14 1_555 1_555
C15 C14 1_555 1_555
H10 C15 1_555 1_555
C16 C15 1_555 1_555
C17 C12 1_555 1_555
H11 C17 1_555 1_555
C18 H12 1_555 1_555
C19 H13 1_555 1_555
C20 C19 1_555 1_555
H14 C20 1_555 1_555
N1 C1 1_555 1_555
N2 N1 1_555 1_555
N3 N2 1_555 1_555
N4 C1 1_555 1_555
N5 C6 1_555 1_555
N6 C8 1_555 1_555
N7 Cd1 1_555 1_555
N8 N7 1_555 1_555
N9 N8 1_555 1_555
N10 C11 1_555 1_555
N11 C16 1_555 1_555
N12 C18 1_555 1_555
O1 Cd1 1_555 1_555
H15 O1 1_555 1_555
H16 O1 1_555 1_555
O2 Cd1 1_555 1_555
H17 O2 1_555 1_555
H18 O2 1_555 1_555
O3 H19 1_555 1_555
H20 O3 1_555 1_555
Cd1_2 N6 1_555 1_555
Cd1C N12 1_555 1_555
N6_2 Cd1 1_555 1_555
N12C Cd1 1_555 1_555
C6 C7 1_555 1_555
C8 N5 1_555 1_555
C9 N5 1_555 1_555
C10 N6 1_555 1_555
C11 N7 1_555 1_555
C16 C17 1_555 1_555
C18 N11 1_555 1_555
C19 N11 1_555 1_555
C20 N12 1_555 1_555
N3 N4 1_555 1_555
N9 N10 1_555 1_555

#END
