
#######################################################################
#
#                 Cambridge Crystallographic Data Centre
#                                CCDC 
#
#######################################################################
#
# If this CIF has been generated from an entry in the Cambridge 
# Structural Database, then it will include bibliographic, chemical, 
# crystal, experimental, refinement or atomic coordinate data resulting 
# from the CCDC's data processing and validation procedures.
#
#######################################################################

data_GOWZUP
_symmetry_cell_setting           monoclinic
_symmetry_space_group_name_H-M   'P 21/c'
_symmetry_Int_Tables_number      14
_space_group_name_Hall           '-P 2ybc'
loop_
_symmetry_equiv_pos_site_id
_symmetry_equiv_pos_as_xyz
1 x,y,z
2 -x,1/2+y,1/2-z
3 -x,-y,-z
4 x,1/2-y,1/2+z
_cell_length_a                   13.270(4)
_cell_length_b                   13.217(4)
_cell_length_c                   6.920(2)
_cell_angle_alpha                90
_cell_angle_beta                 100.561(3)
_cell_angle_gamma                90
_cell_volume                     1193.14
loop_
_atom_site_label
_atom_site_type_symbol
_atom_site_fract_x
_atom_site_fract_y
_atom_site_fract_z
Cd1 Cd 0.77517(3) 0.31927(3) 0.80572(7)
Cl1 Cl 0.66122(12) 0.19666(12) 0.9519(2)
O1 O 0.8670(3) 0.3138(3) 1.1489(7)
H1 H 0.9250 0.2863 1.1428
H2 H 0.8734 0.3769 1.1824
N1 N 0.7017(4) 0.4682(4) 0.8636(8)
N2 N 0.6767(4) 0.6328(4) 0.8659(7)
N3 N 0.9996(4) 0.8402(4) 0.8024(9)
N4 N 1.0758(4) 0.8993(4) 0.7594(8)
N5 N 1.0442(4) 0.9940(4) 0.7359(8)
N6 N 0.9474(4) 0.9984(4) 0.7634(8)
C1 C 0.7461(4) 0.5569(4) 0.8719(9)
H3 H 0.8162 0.5666 0.8809
C2 C 0.5990(5) 0.4868(5) 0.8534(10)
H4 H 0.5485 0.4375 0.8475
C3 C 0.5828(5) 0.5877(5) 0.8533(10)
H5 H 0.5201 0.6202 0.8461
C4 C 0.7002(4) 0.7390(4) 0.8657(8)
C5 C 0.6269(5) 0.8102(4) 0.8917(9)
H6 H 0.5621 0.7897 0.9089
C6 C 0.6514(5) 0.9122(5) 0.8918(9)
H7 H 0.6025 0.9601 0.9090
C7 C 0.7471(5) 0.9436(5) 0.8667(9)
H8 H 0.7626 1.0122 0.8674
C8 C 0.8208(4) 0.8721(4) 0.8401(8)
C9 C 0.7971(5) 0.7694(4) 0.8404(9)
H9 H 0.8461 0.7214 0.8238
C10 C 0.9221(4) 0.9030(4) 0.8039(9)
Cd1A Cd 1.22483(3) 0.81927(3) 0.69428(7)
Cd1C Cd 0.77517(3) 0.18073(3) 1.30572(7)
Cl1C Cl 0.66122(12) 0.30334(12) 0.4519(2)
O1C O 0.8670(3) 0.1862(3) 0.6489(7)
N4A N 0.9242(4) 0.3993(4) 0.7406(8)
loop_
_geom_bond_atom_site_label_1
_geom_bond_atom_site_label_2
_geom_bond_site_symmetry_1
_geom_bond_site_symmetry_2
Cd1 Cl1 1_555 1_555
Cl1 Cd1C 1_555 1_555
O1 Cd1 1_555 1_555
H1 O1 1_555 1_555
H2 O1 1_555 1_555
N1 Cd1 1_555 1_555
N2 C1 1_555 1_555
N3 N4 1_555 1_555
N4 N5 1_555 1_555
N5 N6 1_555 1_555
N6 C10 1_555 1_555
C1 N1 1_555 1_555
H3 C1 1_555 1_555
C2 N1 1_555 1_555
H4 C2 1_555 1_555
C3 N2 1_555 1_555
H5 C3 1_555 1_555
C4 N2 1_555 1_555
C5 C4 1_555 1_555
H6 C5 1_555 1_555
C6 C5 1_555 1_555
H7 C6 1_555 1_555
C7 C6 1_555 1_555
H8 C7 1_555 1_555
C8 C7 1_555 1_555
C9 C4 1_555 1_555
H9 C9 1_555 1_555
C10 N3 1_555 1_555
Cd1A N4 1_555 1_555
Cd1C O1 1_555 1_555
Cl1C Cd1 1_555 1_555
O1C Cd1 1_555 1_555
N4A Cd1 1_555 1_555
C2 C3 1_555 1_555
C8 C9 1_555 1_555
C8 C10 1_555 1_555

#END
