
#######################################################################
#
#                 Cambridge Crystallographic Data Centre
#                                CCDC 
#
#######################################################################
#
# If this CIF has been generated from an entry in the Cambridge 
# Structural Database, then it will include bibliographic, chemical, 
# crystal, experimental, refinement or atomic coordinate data resulting 
# from the CCDC's data processing and validation procedures.
#
#######################################################################

data_GOXFIK
_symmetry_cell_setting           monoclinic
_symmetry_space_group_name_H-M   'P 21/c'
_symmetry_Int_Tables_number      14
_space_group_name_Hall           '-P 2ybc'
loop_
_symmetry_equiv_pos_site_id
_symmetry_equiv_pos_as_xyz
1 x,y,z
2 -x,1/2+y,1/2-z
3 -x,-y,-z
4 x,1/2-y,1/2+z
_cell_length_a                   11.0484(8)
_cell_length_b                   22.1074(17)
_cell_length_c                   17.0912(13)
_cell_angle_alpha                90
_cell_angle_beta                 100.8940(10)
_cell_angle_gamma                90
_cell_volume                     4099.32
loop_
_atom_site_label
_atom_site_type_symbol
_atom_site_fract_x
_atom_site_fract_y
_atom_site_fract_z
Au1 Au 0.875660(10) -0.006890(6) 0.491560(8)
Au2 Au 0.620933(10) 0.004164(6) 0.494698(8)
S1 S 0.83541(8) 0.08582(4) 0.43168(6)
S2 S 1.11717(8) 0.10128(4) 0.45178(6)
S3 S 0.60072(8) -0.05539(4) 0.38296(6)
S4 S 0.32925(8) -0.07000(4) 0.40027(6)
O1 O 0.8496(2) 0.27930(13) 0.50409(14)
O2 O 0.9321(2) 0.37748(11) 0.41239(14)
O3 O 0.9912(2) 0.42717(12) 0.26649(15)
O4 O 1.1364(2) 0.32774(12) 0.19878(16)
O5 O 1.0068(2) 0.23424(11) 0.26137(14)
O6 O 0.3959(2) -0.25203(11) 0.29599(16)
O7 O 0.4592(2) -0.33934(11) 0.19765(15)
O8 O 0.5853(2) -0.28971(12) 0.07596(15)
O9 O 0.5338(2) -0.16918(12) 0.01147(15)
O10 O 0.4611(2) -0.10187(11) 0.13148(14)
N1 N 0.9504(2) 0.18526(12) 0.40799(16)
N2 N 0.4375(2) -0.12505(12) 0.29648(16)
C1 C 0.9676(3) 0.12751(15) 0.43029(19)
C2 C 0.8251(3) 0.21271(16) 0.3897(2)
H1 H 0.7680 0.1838 0.3602
H2 H 0.8270 0.2480 0.3563
C3 C 0.7796(3) 0.23106(16) 0.4640(2)
H3 H 0.6939 0.2432 0.4499
H4 H 0.7843 0.1966 0.4996
C4 C 0.7945(3) 0.33775(16) 0.4895(2)
H5 H 0.7508 0.3479 0.5319
H6 H 0.7354 0.3372 0.4397
C5 C 0.8908(4) 0.38412(18) 0.4855(2)
H7 H 0.8569 0.4243 0.4889
H8 H 0.9592 0.3789 0.5297
C6 C 1.0333(3) 0.41621(18) 0.4081(2)
H9 H 1.0992 0.4092 0.4534
H10 H 1.0079 0.4582 0.4092
C7 C 1.0772(3) 0.40320(18) 0.3323(2)
H11 H 1.1575 0.4214 0.3340
H12 H 1.0851 0.3599 0.3259
C8 C 1.0311(4) 0.42262(19) 0.1922(2)
H13 H 1.1144 0.4383 0.1987
H14 H 0.9787 0.4481 0.1537
C9 C 1.0294(4) 0.35970(19) 0.1592(2)
H15 H 0.9556 0.3388 0.1674
H16 H 1.0287 0.3613 0.1025
C10 C 1.1444(4) 0.26781(19) 0.1715(2)
H17 H 1.2216 0.2503 0.1984
H18 H 1.1456 0.2688 0.1149
C11 C 1.0389(3) 0.22711(18) 0.1852(2)
H19 H 0.9669 0.2357 0.1446
H20 H 1.0619 0.1853 0.1790
C12 C 1.1028(3) 0.21869(17) 0.3264(2)
H21 H 1.1734 0.2449 0.3270
H22 H 1.1286 0.1772 0.3210
C13 C 1.0546(3) 0.22594(15) 0.4026(2)
H23 H 1.1210 0.2181 0.4473
H24 H 1.0283 0.2675 0.4068
C14 C 0.4544(3) -0.08583(15) 0.3564(2)
C15 C 0.3173(3) -0.15345(16) 0.2661(2)
H25 H 0.3103 -0.1617 0.2096
H26 H 0.2522 -0.1254 0.2722
C16 C 0.3001(3) -0.21175(16) 0.3089(2)
H27 H 0.3058 -0.2043 0.3655
H28 H 0.2198 -0.2291 0.2880
C17 C 0.3757(3) -0.31361(16) 0.3114(2)
H29 H 0.2940 -0.3259 0.2847
H30 H 0.3827 -0.3203 0.3681
C18 C 0.4722(3) -0.34921(18) 0.2802(2)
H31 H 0.5536 -0.3366 0.3070
H32 H 0.4629 -0.3919 0.2905
C19 C 0.5525(3) -0.36891(18) 0.1643(2)
H33 H 0.5427 -0.4124 0.1673
H34 H 0.6331 -0.3583 0.1945
C20 C 0.5437(3) -0.35056(18) 0.0801(2)
H35 H 0.5938 -0.3773 0.0543
H36 H 0.4590 -0.3538 0.0522
C21 C 0.5854(4) -0.2722(2) -0.0040(2)
H37 H 0.5031 -0.2763 -0.0355
H38 H 0.6402 -0.2984 -0.0267
C22 C 0.6274(3) -0.2079(2) -0.0058(2)
H39 H 0.7025 -0.2021 0.0332
H40 H 0.6446 -0.1985 -0.0580
C23 C 0.5721(4) -0.10827(19) 0.0204(2)
H41 H 0.5740 -0.0908 -0.0314
H42 H 0.6544 -0.1060 0.0523
C24 C 0.4831(3) -0.07371(17) 0.0604(2)
H43 H 0.5154 -0.0334 0.0732
H44 H 0.4054 -0.0696 0.0234
C25 C 0.5664(3) -0.10387(17) 0.1936(2)
H45 H 0.5851 -0.0636 0.2151
H46 H 0.6370 -0.1185 0.1730
C26 C 0.5401(3) -0.14560(15) 0.2581(2)
H47 H 0.5203 -0.1854 0.2353
H48 H 0.6141 -0.1494 0.2986
Au1B Au 1.124340(10) 0.006890(6) 0.508440(8)
Au2B Au 0.379067(10) -0.004164(6) 0.505302(8)
S2B S 0.88283(8) -0.10128(4) 0.54822(6)
S4B S 0.67075(8) 0.07000(4) 0.59973(6)
N3 N 0.7267(4) 0.0400(2) 0.1303(3)
C27 C 0.8117(4) 0.05472(19) 0.1739(3)
C28 C 0.9195(4) 0.0741(2) 0.2289(3)
H49 H 0.9219 0.1175 0.2307
H50 H 0.9918 0.0592 0.2117
H51 H 0.9169 0.0585 0.2810
N4 N 0.2023(4) 0.0967(2) 0.1212(3)
C29 C 0.2313(4) 0.0531(2) 0.1533(3)
C30 C 0.2684(4) -0.0023(2) 0.1960(3)
H52 H 0.2974 0.0067 0.2513
H53 H 0.3333 -0.0210 0.1744
H54 H 0.1993 -0.0292 0.1906
loop_
_geom_bond_atom_site_label_1
_geom_bond_atom_site_label_2
_geom_bond_site_symmetry_1
_geom_bond_site_symmetry_2
Au1 Au2 1_555 1_555
Au2 S3 1_555 1_555
S1 Au1 1_555 1_555
S2 C1 1_555 1_555
S3 C14 1_555 1_555
S4 C14 1_555 1_555
O1 C3 1_555 1_555
O2 C5 1_555 1_555
O3 C7 1_555 1_555
O4 C9 1_555 1_555
O5 C11 1_555 1_555
O6 C16 1_555 1_555
O7 C18 1_555 1_555
O8 C20 1_555 1_555
O9 C22 1_555 1_555
O10 C24 1_555 1_555
N1 C1 1_555 1_555
N2 C14 1_555 1_555
C1 S1 1_555 1_555
C2 N1 1_555 1_555
H1 C2 1_555 1_555
H2 C2 1_555 1_555
C3 C2 1_555 1_555
H3 C3 1_555 1_555
H4 C3 1_555 1_555
C4 O1 1_555 1_555
H5 C4 1_555 1_555
H6 C4 1_555 1_555
C5 C4 1_555 1_555
H7 C5 1_555 1_555
H8 C5 1_555 1_555
C6 O2 1_555 1_555
H9 C6 1_555 1_555
H10 C6 1_555 1_555
C7 C6 1_555 1_555
H11 C7 1_555 1_555
H12 C7 1_555 1_555
C8 O3 1_555 1_555
H13 C8 1_555 1_555
H14 C8 1_555 1_555
C9 C8 1_555 1_555
H15 C9 1_555 1_555
H16 C9 1_555 1_555
C10 O4 1_555 1_555
H17 C10 1_555 1_555
H18 C10 1_555 1_555
C11 C10 1_555 1_555
H19 C11 1_555 1_555
H20 C11 1_555 1_555
C12 O5 1_555 1_555
H21 C12 1_555 1_555
H22 C12 1_555 1_555
C13 N1 1_555 1_555
H23 C13 1_555 1_555
H24 C13 1_555 1_555
C15 N2 1_555 1_555
H25 C15 1_555 1_555
H26 C15 1_555 1_555
C16 C15 1_555 1_555
H27 C16 1_555 1_555
H28 C16 1_555 1_555
C17 O6 1_555 1_555
H29 C17 1_555 1_555
H30 C17 1_555 1_555
C18 C17 1_555 1_555
H31 C18 1_555 1_555
H32 C18 1_555 1_555
C19 O7 1_555 1_555
H33 C19 1_555 1_555
H34 C19 1_555 1_555
C20 C19 1_555 1_555
H35 C20 1_555 1_555
H36 C20 1_555 1_555
C21 O8 1_555 1_555
H37 C21 1_555 1_555
H38 C21 1_555 1_555
C22 C21 1_555 1_555
H39 C22 1_555 1_555
H40 C22 1_555 1_555
C23 O9 1_555 1_555
H41 C23 1_555 1_555
H42 C23 1_555 1_555
C24 C23 1_555 1_555
H43 C24 1_555 1_555
H44 C24 1_555 1_555
C25 O10 1_555 1_555
H45 C25 1_555 1_555
H46 C25 1_555 1_555
C26 N2 1_555 1_555
H47 C26 1_555 1_555
H48 C26 1_555 1_555
N3 C27 1_555 1_555
C27 C28 1_555 1_555
C28 H49 1_555 1_555
H50 C28 1_555 1_555
H51 C28 1_555 1_555
N4 C29 1_555 1_555
C29 C30 1_555 1_555
C30 H52 1_555 1_555
H53 C30 1_555 1_555
H54 C30 1_555 1_555
Au1B Au1 1_555 1_555
Au2B Au2 1_555 1_555
S2B Au1 1_555 1_555
S4B Au2 1_555 1_555
S2 Au1B 1_555 1_555
S4 Au2B 1_555 1_555
C12 C13 1_555 1_555
C25 C26 1_555 1_555

#END
