
#######################################################################
#
#                 Cambridge Crystallographic Data Centre
#                                CCDC 
#
#######################################################################
#
# If this CIF has been generated from an entry in the Cambridge 
# Structural Database, then it will include bibliographic, chemical, 
# crystal, experimental, refinement or atomic coordinate data resulting 
# from the CCDC's data processing and validation procedures.
#
#######################################################################

data_GOXGAD
_symmetry_cell_setting           monoclinic
_symmetry_space_group_name_H-M   'C 2'
_symmetry_Int_Tables_number      5
_space_group_name_Hall           'C 2y'
loop_
_symmetry_equiv_pos_site_id
_symmetry_equiv_pos_as_xyz
1 x,y,z
2 -x,y,-z
3 1/2+x,1/2+y,z
4 1/2-x,1/2+y,-z
_cell_length_a                   18.516(3)
_cell_length_b                   7.9896(11)
_cell_length_c                   16.502(2)
_cell_angle_alpha                90
_cell_angle_beta                 118.946(2)
_cell_angle_gamma                90
_cell_volume                     2136.26
loop_
_atom_site_label
_atom_site_type_symbol
_atom_site_fract_x
_atom_site_fract_y
_atom_site_fract_z
C1 C 0.9223(5) 0.4461(13) 1.1820(7)
C2 C 0.8386(5) 0.3624(10) 1.1334(5)
C3 C 0.7961(5) 0.3131(11) 1.1774(6)
H1 H 0.8212 0.3219 1.2415
C4 C 0.7176(5) 0.2509(10) 1.1299(6)
C5 C 0.6819(5) 0.2376(11) 1.0365(6)
H2 H 0.6286 0.1951 1.0040
C6 C 0.7217(5) 0.2847(10) 0.9880(6)
C7 C 0.8041(5) 0.3454(11) 1.0388(6)
H3 H 0.8340 0.3731 1.0088
C8 C 0.7169(5) 0.2816(12) 0.8406(6)
C9 C 0.6778(5) 0.3696(12) 0.7590(6)
H4 H 0.6308 0.4309 0.7463
C10 C 0.7059(5) 0.3705(10) 0.6948(5)
C11 C 0.7758(5) 0.2783(10) 0.7125(5)
C12 C 0.8158(5) 0.1825(12) 0.7969(7)
H5 H 0.8619 0.1182 0.8092
C13 C 0.7869(5) 0.1846(13) 0.8594(5)
H6 H 0.8133 0.1225 0.9138
C14 C 0.8103(6) 0.2685(12) 0.6518(6)
C15 C 0.6667(5) 0.4876(12) 0.6136(6)
C16 C 0.6698(6) 0.1967(15) 1.1755(6)
Cd1 Cd 0.92406(3) 0.59338(7) 0.74629(4)
Cd2 Cd 0.62431(3) 0.70581(8) 0.46763(4)
O1 O 0.9496(4) 0.5043(8) 1.2654(4)
O2 O 0.9633(4) 0.4591(12) 1.1413(5)
O3 O 0.6952(4) 0.2292(10) 1.2623(4)
O4 O 0.6062(5) 0.1078(15) 1.1311(5)
O5 O 0.6787(4) 0.2775(8) 0.8962(4)
O6 O 0.6038(4) 0.5663(9) 0.5971(5)
O7 O 0.6971(4) 0.4931(10) 0.5606(5)
O8 O 0.8723(4) 0.3516(9) 0.6630(4)
O9 O 0.8856(5) 0.6981(13) 0.5964(6)
H7 H 0.8534 0.6285 0.5561
H8 H 0.8610 0.7912 0.5888
O10 O 1.0003(5) 0.8441(9) 0.7978(7)
H9 H 1.0253 0.8463 0.8567
H10 H 1.0353 0.8482 0.7786
O11 O 0.5267(5) 0.5154(13) 0.3691(6)
H11 H 0.5184 0.5306 0.3142
H12 H 0.4820 0.5312 0.3706
O12 O 0.5212(7) 0.8878(16) 0.4341(7)
H13 H 0.5155 0.9510 0.3899
H14 H 0.4772 0.8320 0.4175
O13 O 0.6989(6) 0.8820(10) 0.5869(6)
H15 H 0.7195 0.9590 0.5690
H16 H 0.7374 0.8278 0.6309
O14 O 0.7812(5) 0.1601(9) 0.5858(6)
Cd1A Cd 1.07594(3) 0.59338(7) 1.25371(4)
Cd1C Cd 0.57594(3) 0.09338(7) 1.25371(4)
Cd2C Cd 0.87569(3) 0.20581(8) 0.53237(4)
O1A O 1.0504(4) 0.5043(8) 0.7346(4)
O2A O 1.0367(4) 0.4591(12) 0.8587(5)
O3C O 0.8048(4) 0.7292(10) 0.7377(4)
O4C O 0.8938(5) 0.6078(15) 0.8689(5)
O8C O 0.6277(4) 0.8516(9) 0.3370(4)
O14C O 0.7188(5) 0.6601(9) 0.4142(6)
loop_
_geom_bond_atom_site_label_1
_geom_bond_atom_site_label_2
_geom_bond_site_symmetry_1
_geom_bond_site_symmetry_2
C1 C2 1_555 1_555
C2 C3 1_555 1_555
C3 H1 1_555 1_555
C4 C3 1_555 1_555
C5 C4 1_555 1_555
H2 C5 1_555 1_555
C6 C5 1_555 1_555
C7 C2 1_555 1_555
H3 C7 1_555 1_555
C8 C9 1_555 1_555
C9 H4 1_555 1_555
C10 C9 1_555 1_555
C11 C10 1_555 1_555
C12 C11 1_555 1_555
H5 C12 1_555 1_555
C13 C8 1_555 1_555
H6 C13 1_555 1_555
C14 C11 1_555 1_555
C15 C10 1_555 1_555
C16 C4 1_555 1_555
Cd1 O8 1_555 1_555
Cd2 O6 1_555 1_555
O1 C1 1_555 1_555
O2 C1 1_555 1_555
O3 C16 1_555 1_555
O4 C16 1_555 1_555
O5 C6 1_555 1_555
O6 C15 1_555 1_555
O7 C15 1_555 1_555
O8 C14 1_555 1_555
O9 Cd1 1_555 1_555
H7 O9 1_555 1_555
H8 O9 1_555 1_555
O10 Cd1 1_555 1_555
H9 O10 1_555 1_555
H10 O10 1_555 1_555
O11 Cd2 1_555 1_555
H11 O11 1_555 1_555
H12 O11 1_555 1_555
O12 Cd2 1_555 1_555
H13 O12 1_555 1_555
H14 O12 1_555 1_555
O13 Cd2 1_555 1_555
H15 O13 1_555 1_555
H16 O13 1_555 1_555
O14 C14 1_555 1_555
Cd1A O1 1_555 1_555
Cd1C O3 1_555 1_555
Cd2C O8 1_555 1_555
O1A Cd1 1_555 1_555
O2A Cd1 1_555 1_555
O3C Cd1 1_555 1_555
O4C Cd1 1_555 1_555
O8C Cd2 1_555 1_555
O14C Cd2 1_555 1_555
C6 C7 1_555 1_555
C8 O5 1_555 1_555
C12 C13 1_555 1_555
Cd2 O7 1_555 1_555
O2 Cd1A 1_555 1_555
O4 Cd1C 1_555 1_555
O14 Cd2C 1_555 1_555

#END
