
#######################################################################
#
#                 Cambridge Crystallographic Data Centre
#                                CCDC 
#
#######################################################################
#
# If this CIF has been generated from an entry in the Cambridge 
# Structural Database, then it will include bibliographic, chemical, 
# crystal, experimental, refinement or atomic coordinate data resulting 
# from the CCDC's data processing and validation procedures.
#
#######################################################################

data_GOXVAS
_symmetry_cell_setting           triclinic
_symmetry_space_group_name_H-M   'P -1'
_symmetry_Int_Tables_number      2
_space_group_name_Hall           '-P 1'
loop_
_symmetry_equiv_pos_site_id
_symmetry_equiv_pos_as_xyz
1 x,y,z
2 -x,-y,-z
_cell_length_a                   7.14380(50)
_cell_length_b                   10.04420(59)
_cell_length_c                   11.80770(90)
_cell_angle_alpha                78.6617(41)
_cell_angle_beta                 84.8568(37)
_cell_angle_gamma                88.1565(39)
_cell_volume                     827.275
loop_
_atom_site_label
_atom_site_type_symbol
_atom_site_fract_x
_atom_site_fract_y
_atom_site_fract_z
Co1 Co 0.01051(9) 0.68548(6) 0.38473(5)
O1 O 0.0096(6) 1.3709(3) 0.4434(3)
O2 O 0.0355(4) 1.5364(3) 0.2903(3)
O3 O 0.0016(5) 0.8928(3) 0.3932(3)
O4 O 0.0303(5) 0.8441(3) 0.2206(3)
N1 N 0.3167(6) 0.6852(4) 0.3861(3)
N2 N 0.7054(5) 0.6838(4) 0.3872(3)
N3 N 0.1358(8) 1.3002(4) -0.0518(4)
H1 H 0.1452 1.2413 -0.096
H2 H 0.15 1.385 -0.0812
C1 C 0.0315(6) 1.1717(4) 0.3076(4)
H3 H 0.0104 1.1424 0.3874
C2 C 0.0435(6) 1.0787(4) 0.2343(4)
C3 C 0.0748(7) 1.1218(4) 0.1153(4)
H4 H 0.0803 1.0582 0.0675
C4 C 0.0515(6) 1.3088(4) 0.2604(4)
C5 C 0.0873(7) 1.3511(4) 0.1418(4)
H5 H 0.1045 1.443 0.1114
C6 C 0.0326(6) 1.4114(4) 0.3381(4)
C7 C 0.0982(7) 1.2587(4) 0.0660(4)
C8 C 0.4270(8) 0.6197(6) 0.3202(5)
H6 H 0.3727 0.5729 0.2712
C9 C 0.4032(7) 0.7498(6) 0.4514(6)
H7 H 0.331 0.7981 0.4996
C10 C 0.6198(8) 0.6170(6) 0.3205(5)
H8 H 0.6915 0.5675 0.273
C11 C 0.0239(7) 0.9311(4) 0.2850(4)
C12 C 0.5941(8) 0.7502(7) 0.4526(6)
H9 H 0.6469 0.7987 0.5009
Co1_2 Co 0.01051(9) 1.68548(6) 0.38473(5)
Co1_3 Co 1.01051(9) 0.68548(6) 0.38473(5)
Co1A Co -0.01051(9) 1.31452(6) 0.61527(5)
O1A O -0.0096(6) 0.6291(3) 0.5566(3)
O2_2 O 0.0355(4) 0.5364(3) 0.2903(3)
N2_2 N -0.2946(5) 0.6838(4) 0.3872(3)
loop_
_geom_bond_atom_site_label_1
_geom_bond_atom_site_label_2
_geom_bond_site_symmetry_1
_geom_bond_site_symmetry_2
Co1 O3 1_555 1_555
O1 C6 1_555 1_555
O2 C6 1_555 1_555
O3 C11 1_555 1_555
O4 Co1 1_555 1_555
N1 Co1 1_555 1_555
N2 C10 1_555 1_555
N3 H1 1_555 1_555
H2 N3 1_555 1_555
C1 H3 1_555 1_555
C2 C1 1_555 1_555
C3 C2 1_555 1_555
H4 C3 1_555 1_555
C4 C1 1_555 1_555
C5 C4 1_555 1_555
H5 C5 1_555 1_555
C6 C4 1_555 1_555
C7 N3 1_555 1_555
C8 N1 1_555 1_555
H6 C8 1_555 1_555
C9 N1 1_555 1_555
H7 C9 1_555 1_555
C10 C8 1_555 1_555
H8 C10 1_555 1_555
C11 O4 1_555 1_555
C12 N2 1_555 1_555
H9 C12 1_555 1_555
Co1_2 O2 1_555 1_555
Co1_3 N2 1_555 1_555
Co1A O1 1_555 1_555
O1A Co1 1_555 1_555
O2_2 Co1 1_555 1_555
N2_2 Co1 1_555 1_555
C2 C11 1_555 1_555
C3 C7 1_555 1_555
C5 C7 1_555 1_555
C9 C12 1_555 1_555

#END
