
#######################################################################
#
#                 Cambridge Crystallographic Data Centre
#                                CCDC 
#
#######################################################################
#
# If this CIF has been generated from an entry in the Cambridge 
# Structural Database, then it will include bibliographic, chemical, 
# crystal, experimental, refinement or atomic coordinate data resulting 
# from the CCDC's data processing and validation procedures.
#
#######################################################################

data_GOXYAV
_symmetry_cell_setting           triclinic
_symmetry_space_group_name_H-M   'P -1'
_symmetry_Int_Tables_number      2
_space_group_name_Hall           '-P 1'
loop_
_symmetry_equiv_pos_site_id
_symmetry_equiv_pos_as_xyz
1 x,y,z
2 -x,-y,-z
_cell_length_a                   9.38(2)
_cell_length_b                   9.77(2)
_cell_length_c                   9.93(2)
_cell_angle_alpha                95.818(7)
_cell_angle_beta                 117.348(11)
_cell_angle_gamma                113.550(19)
_cell_volume                     694.136
loop_
_atom_site_label
_atom_site_type_symbol
_atom_site_fract_x
_atom_site_fract_y
_atom_site_fract_z
Zn1 Zn 0.29607(11) 0.31822(10) 0.93925(10)
Zn2 Zn -0.48095(11) 0.19018(10) 0.48973(10)
S1 S -0.4811(3) 0.2141(2) 0.1904(2)
O1 O -0.6668(8) 0.1587(6) 0.0380(6)
O2 O -0.4820(8) 0.2923(7) 0.3309(6)
O3 O -0.4631(8) 0.0741(7) 0.2121(7)
O4 O -0.3300(8) 0.3360(7) 0.1857(7)
N1 N 0.4208(8) 0.3564(7) 0.8194(7)
N2 N 0.5976(8) 0.4885(7) 0.8813(7)
N3 N 0.5063(8) 0.3231(7) 0.6474(7)
N4 N 0.8013(10) 0.5676(8) 0.7895(9)
H1 H 0.8805 0.6556 0.8707
H2 H 0.8228 0.5454 0.7172
N5 N 0.0195(8) 0.2053(7) 0.7914(7)
N6 N -0.2600(9) 0.1649(7) 0.6118(7)
N7 N -0.2813(8) 0.0196(7) 0.6334(7)
N8 N -0.0709(9) -0.0605(8) 0.7964(8)
H3 H 0.0418 -0.0353 0.8652
H4 H -0.1599 -0.1568 0.7608
C1 C 0.6418(11) 0.4635(9) 0.7753(9)
C2 C 0.3747(10) 0.2639(9) 0.6841(9)
H5 H 0.2635 0.1675 0.6192
C3 C -0.1087(10) 0.0525(8) 0.7436(8)
C4 C -0.0817(10) 0.2706(9) 0.7070(8)
H6 H -0.0304 0.3771 0.7159
Zn1_2 Zn -0.70393(11) 0.31822(10) -0.06075(10)
Zn1A Zn 0.70393(11) 0.68178(10) 1.06075(10)
Zn2_2 Zn 0.51905(11) 0.19018(10) 0.48973(10)
Zn2A Zn -0.51905(11) -0.19018(10) 0.51027(10)
O1_2 O 0.3332(8) 0.1587(6) 1.0380(6)
N2A N 0.4024(8) 0.5115(7) 1.1187(7)
N3_2 N -0.4937(8) 0.3231(7) 0.6474(7)
N7A N -0.7187(8) -0.0196(7) 0.3666(7)
O5 O -0.1064(12) 0.1093(12) 0.3824(11)
H7 H -0.043(14) 0.128(18) 0.340(13)
H8 H -0.203(11) 0.112(17) 0.317(12)
O6 O 0.1039(11) 0.4390(9) 0.4542(9)
H9 H 0.022(10) 0.400(4) 0.476(12)
H10 H 0.200(8) 0.512(10) 0.542(7)
O7 O -0.1990(11) 0.2350(10) 0.9953(10)
H11 H -0.289(12) 0.140(5) 0.946(12)
H12 H -0.196(17) 0.266(12) 1.080(9)
loop_
_geom_bond_atom_site_label_1
_geom_bond_atom_site_label_2
_geom_bond_site_symmetry_1
_geom_bond_site_symmetry_2
Zn1 N1 1_555 1_555
Zn2 O2 1_555 1_555
S1 O1 1_555 1_555
O1 Zn1_2 1_555 1_555
O2 S1 1_555 1_555
O3 S1 1_555 1_555
O4 S1 1_555 1_555
N1 N2 1_555 1_555
N2 C1 1_555 1_555
N3 C1 1_555 1_555
N4 H1 1_555 1_555
H2 N4 1_555 1_555
N5 Zn1 1_555 1_555
N6 Zn2 1_555 1_555
N7 N6 1_555 1_555
N8 H3 1_555 1_555
H4 N8 1_555 1_555
C1 N4 1_555 1_555
C2 N1 1_555 1_555
H5 C2 1_555 1_555
C3 N5 1_555 1_555
C4 N5 1_555 1_555
H6 C4 1_555 1_555
O5 H7 1_555 1_555
H8 O5 1_555 1_555
O6 H9 1_555 1_555
H10 O6 1_555 1_555
O7 H11 1_555 1_555
H12 O7 1_555 1_555
Zn1A N2 1_555 1_555
Zn2_2 N3 1_555 1_555
Zn2A N7 1_555 1_555
O1_2 Zn1 1_555 1_555
N2A Zn1 1_555 1_555
N3_2 Zn2 1_555 1_555
N7A Zn2 1_555 1_555
N3 C2 1_555 1_555
N6 C4 1_555 1_555
N7 C3 1_555 1_555
N8 C3 1_555 1_555

#END
