
#######################################################################
#
#                 Cambridge Crystallographic Data Centre
#                                CCDC 
#
#######################################################################
#
# If this CIF has been generated from an entry in the Cambridge 
# Structural Database, then it will include bibliographic, chemical, 
# crystal, experimental, refinement or atomic coordinate data resulting 
# from the CCDC's data processing and validation procedures.
#
#######################################################################

data_GOXZIE
_symmetry_cell_setting           tetragonal
_symmetry_space_group_name_H-M   'I 41/a'
_symmetry_Int_Tables_number      88
_space_group_name_Hall           '-I 4ad'
loop_
_symmetry_equiv_pos_site_id
_symmetry_equiv_pos_as_xyz
1 x,y,z
2 3/4-y,1/4+x,1/4+z
3 1/2-x,-y,1/2+z
4 3/4+y,3/4-x,3/4+z
5 1/2+x,1/2+y,1/2+z
6 1/4-y,3/4+x,3/4+z
7 -x,1/2-y,z
8 1/4+y,1/4-x,1/4+z
9 -x,-y,-z
10 1/4+y,3/4-x,3/4-z
11 1/2+x,y,1/2-z
12 1/4-y,1/4+x,1/4-z
13 1/2-x,1/2-y,1/2-z
14 3/4+y,1/4-x,1/4-z
15 x,1/2+y,-z
16 3/4-y,3/4+x,3/4-z
_cell_length_a                   17.8699(6)
_cell_length_b                   17.8699(6)
_cell_length_c                   17.0343(12)
_cell_angle_alpha                90
_cell_angle_beta                 90
_cell_angle_gamma                90
_cell_volume                     5439.62
loop_
_atom_site_label
_atom_site_type_symbol
_atom_site_fract_x
_atom_site_fract_y
_atom_site_fract_z
Cu1 Cu 0.49678(10) 0.04941(12) -0.55609(11)
O1 O 0.3945(6) 0.0126(6) -0.5619(7)
O2 O 0.4782(10) 0.1319(8) -0.6512(8)
H1 H 0.4386 0.1177 -0.6745
H2 H 0.5220 0.1354 -0.6701
C1 C 0.3653(8) -0.0389(9) -0.5203(9)
O3 O 0.3995(6) -0.0777(7) -0.4695(6)
C2 C 0.2832(9) -0.0540(9) -0.5337(9)
O4 O -0.1305(7) -0.2128(7) -0.2755(8)
C3 C 0.2480(10) -0.1159(10) -0.5013(10)
H3 H 0.2761 -0.1510 -0.4740
O5 O -0.2156(10) -0.2170(7) -0.3701(8)
C4 C 0.1725(9) -0.1259(9) -0.5090(11)
H4 H 0.1493 -0.1674 -0.4868
O6 O 0.0541(6) -0.0805(7) -0.5611(7)
C5 C 0.1313(8) -0.0735(9) -0.5501(9)
C6 C 0.1657(9) -0.0126(10) -0.5840(11)
H5 H 0.1372 0.0223 -0.6113
C7 C 0.2405(10) -0.0030(10) -0.5778(11)
H6 H 0.2636 0.0371 -0.6027
C8 C 0.0093(9) -0.1130(8) -0.5058(9)
C9 C -0.0570(9) -0.1456(9) -0.5329(10)
H7 H -0.0662 -0.1481 -0.5866
C10 C -0.1087(10) -0.1740(10) -0.4813(11)
H8 H -0.1537 -0.1935 -0.4996
C11 C -0.0930(10) -0.1734(9) -0.4002(10)
C12 C -0.0290(11) -0.1382(10) -0.3749(10)
H9 H -0.0187 -0.1361 -0.3214
C13 C 0.0194(11) -0.1066(12) -0.4262(10)
H10 H 0.0604 -0.0801 -0.4072
C14 C -0.1521(13) -0.2039(9) -0.3447(11)
Cu1A Cu -0.29941(12) -0.25322(10) -0.30609(11)
Cu1H Cu 0.50322(10) -0.04941(12) -0.44391(11)
Cu1M Cu -0.20059(12) -0.24678(10) -0.19391(11)
O3H O 0.6005(6) 0.0777(7) -0.5305(6)
O4K O 0.4628(7) 0.1195(7) -0.4745(8)
O5C O 0.5330(7) -0.0344(10) -0.6201(8)
O7 O 0.5000 0.2500 -0.722(4)
H11 H 0.4617 0.2324 -0.7366
H11F H 0.5383 0.2676 -0.7366
loop_
_geom_bond_atom_site_label_1
_geom_bond_atom_site_label_2
_geom_bond_site_symmetry_1
_geom_bond_site_symmetry_2
Cu1 O1 1_555 1_555
O1 C1 1_555 1_555
O2 Cu1 1_555 1_555
H1 O2 1_555 1_555
H2 O2 1_555 1_555
C1 O3 1_555 1_555
O3 Cu1H 1_555 1_555
C2 C1 1_555 1_555
O4 C14 1_555 1_555
C3 C2 1_555 1_555
H3 C3 1_555 1_555
O5 C14 1_555 1_555
C4 C3 1_555 1_555
H4 C4 1_555 1_555
O6 C5 1_555 1_555
C5 C4 1_555 1_555
C6 C5 1_555 1_555
H5 C6 1_555 1_555
C7 C2 1_555 1_555
H6 C7 1_555 1_555
C8 O6 1_555 1_555
C9 C8 1_555 1_555
H7 C9 1_555 1_555
C10 C9 1_555 1_555
H8 C10 1_555 1_555
C11 C10 1_555 1_555
C12 C11 1_555 1_555
H9 C12 1_555 1_555
C13 C8 1_555 1_555
H10 C13 1_555 1_555
C14 C11 1_555 1_555
O7 H11 1_555 1_555
Cu1A O5 1_555 1_555
Cu1H Cu1 1_555 1_555
Cu1M O4 1_555 1_555
O3H Cu1 1_555 1_555
O4K Cu1 1_555 1_555
O5C Cu1 1_555 1_555
H11F O7 1_555 1_555
C6 C7 1_555 1_555
C12 C13 1_555 1_555
Cu1A Cu1M 1_555 1_555

#END
