
#######################################################################
#
#                 Cambridge Crystallographic Data Centre
#                                CCDC 
#
#######################################################################
#
# If this CIF has been generated from an entry in the Cambridge 
# Structural Database, then it will include bibliographic, chemical, 
# crystal, experimental, refinement or atomic coordinate data resulting 
# from the CCDC's data processing and validation procedures.
#
#######################################################################

data_GOYLIR
_symmetry_cell_setting           monoclinic
_symmetry_space_group_name_H-M   'P 21/c'
_symmetry_Int_Tables_number      14
_space_group_name_Hall           '-P 2ybc'
loop_
_symmetry_equiv_pos_site_id
_symmetry_equiv_pos_as_xyz
1 x,y,z
2 -x,1/2+y,1/2-z
3 -x,-y,-z
4 x,1/2-y,1/2+z
_cell_length_a                   10.1175(3)
_cell_length_b                   20.4981(7)
_cell_length_c                   12.2441(3)
_cell_angle_alpha                90
_cell_angle_beta                 91.343(2)
_cell_angle_gamma                90
_cell_volume                     2538.6
loop_
_atom_site_label
_atom_site_type_symbol
_atom_site_fract_x
_atom_site_fract_y
_atom_site_fract_z
Cd1 Cd 0.301330(18) 0.262980(9) 0.909599(15)
C1 C 0.8265(3) 0.19168(13) 0.5833(2)
C2 C 0.7513(3) 0.13574(14) 0.5994(2)
H1 H 0.6725 0.1286 0.5573
C3 C 0.7922(3) 0.09064(14) 0.6772(2)
H2 H 0.7421 0.0522 0.6891
C4 C 0.9079(3) 0.10239(14) 0.7375(2)
C5 C 0.9835(3) 0.15807(13) 0.7233(2)
C6 C 0.9414(3) 0.20243(14) 0.6445(2)
H3 H 0.9920 0.2407 0.6323
C7 C 1.1151(3) 0.17326(14) 0.7805(2)
O1 O 1.11011(18) 0.21696(10) 0.85243(16)
O2 O 1.21604(18) 0.14639(11) 0.74471(15)
N1 N 0.9469(2) 0.05449(12) 0.82070(18)
O3 O 1.0418(2) 0.06696(10) 0.88089(15)
O4 O 0.8827(2) 0.00384(12) 0.82760(19)
S1 S 0.77000(7) 0.24623(4) 0.47900(5)
S2 S 0.86759(7) 0.33077(4) 0.51155(6)
C8 C 0.7694(3) 0.36929(14) 0.6121(2)
C9 C 0.6733(3) 0.33630(14) 0.6708(2)
H4 H 0.6616 0.2906 0.6614
C10 C 0.5952(2) 0.37030(13) 0.7428(2)
C11 C 0.6144(3) 0.43703(14) 0.7533(2)
C12 C 0.7144(3) 0.46976(14) 0.7005(2)
H5 H 0.7290 0.5150 0.7129
C13 C 0.7925(3) 0.43535(14) 0.6295(2)
H6 H 0.8618 0.4568 0.5926
C14 C 0.4996(2) 0.33269(13) 0.8124(2)
O5 O 0.42797(19) 0.29013(10) 0.76405(15)
O6 O 0.49872(18) 0.34245(10) 0.91127(14)
N2 N 0.5175(2) 0.47641(12) 0.81193(19)
O7 O 0.40191(18) 0.45943(10) 0.80463(16)
O8 O 0.5552(2) 0.52558(12) 0.86005(19)
N3 N 0.1827(2) 0.35913(11) 0.92746(17)
C15 C 0.2357(3) 0.40592(14) 0.9900(2)
H7 H 0.3246 0.4010 1.0154
C16 C 0.1673(3) 0.46109(14) 1.0194(2)
H8 H 0.2094 0.4929 1.0647
C17 C 0.0382(2) 0.47070(13) 0.9839(2)
C18 C -0.0155(3) 0.42248(14) 0.9161(2)
H9 H -0.1032 0.4269 0.8875
C19 C 0.0583(3) 0.36818(14) 0.8903(2)
H10 H 0.0193 0.3358 0.8443
N4 N 0.3947(2) 0.16272(11) 0.94801(17)
C20 C 0.3288(3) 0.12339(14) 1.0149(2)
H11 H 0.2521 0.1399 1.0487
C21 C 0.3668(3) 0.06024(14) 1.0372(2)
H12 H 0.3168 0.0344 1.0856
C22 C 0.4781(2) 0.03412(12) 0.9889(2)
C23 C 0.5455(3) 0.07491(13) 0.9185(2)
H13 H 0.6221 0.0596 0.8832
C24 C 0.5008(3) 0.13779(14) 0.9000(2)
H14 H 0.5478 0.1646 0.8509
O9 O 0.3053(2) 0.26838(12) 1.09495(16)
H15 H 0.2867 0.3008 1.1400
H16 H 0.3400 0.2415 1.1404
N3B N -0.1827(2) 0.64087(11) 1.07254(17)
C15B C -0.2357(3) 0.59408(14) 1.0100(2)
H7B H -0.3246 0.5990 0.9846
C16B C -0.1673(3) 0.53891(14) 0.9806(2)
H8B H -0.2094 0.5071 0.9353
C17B C -0.0382(2) 0.52930(13) 1.0161(2)
C18B C 0.0155(3) 0.57752(14) 1.0839(2)
H9B H 0.1032 0.5731 1.1125
C19B C -0.0583(3) 0.63182(14) 1.1097(2)
H10B H -0.0193 0.6642 1.1557
N4B N 0.6053(2) -0.16272(11) 1.05199(17)
C20B C 0.6712(3) -0.12339(14) 0.9851(2)
H11B H 0.7479 -0.1399 0.9513
C21B C 0.6332(3) -0.06024(14) 0.9628(2)
H12B H 0.6832 -0.0344 0.9144
C22B C 0.5219(2) -0.03412(12) 1.0111(2)
C23B C 0.4545(3) -0.07491(13) 1.0815(2)
H13B H 0.3779 -0.0596 1.1168
C24B C 0.4992(3) -0.13779(14) 1.1000(2)
H14B H 0.4522 -0.1646 1.1491
Cd1B Cd -0.301330(18) 0.737020(9) 1.090401(15)
C1B C -0.8265(3) 0.80832(13) 1.4167(2)
C2B C -0.7513(3) 0.86426(14) 1.4006(2)
H1B H -0.6725 0.8714 1.4427
C3B C -0.7922(3) 0.90936(14) 1.3228(2)
H2B H -0.7421 0.9478 1.3109
C4B C -0.9079(3) 0.89761(14) 1.2625(2)
C5B C -0.9835(3) 0.84193(13) 1.2767(2)
C6B C -0.9414(3) 0.79757(14) 1.3555(2)
H3B H -0.9920 0.7593 1.3677
C7B C -1.1151(3) 0.82674(14) 1.2195(2)
O1B O -1.11011(18) 0.78304(10) 1.14757(16)
O2B O -1.21604(18) 0.85361(11) 1.25529(15)
N1B N -0.9469(2) 0.94551(12) 1.17930(18)
O3B O -1.0418(2) 0.93304(10) 1.11911(15)
O4B O -0.8827(2) 0.99616(12) 1.17240(19)
S1B S -0.77000(7) 0.75377(4) 1.52100(5)
S2B S -0.86759(7) 0.66923(4) 1.48845(6)
C8B C -0.7694(3) 0.63071(14) 1.3879(2)
C9B C -0.6733(3) 0.66370(14) 1.3292(2)
H4B H -0.6616 0.7094 1.3386
C10B C -0.5952(2) 0.62970(13) 1.2572(2)
C11B C -0.6144(3) 0.56297(14) 1.2467(2)
C12B C -0.7144(3) 0.53024(14) 1.2995(2)
H5B H -0.7290 0.4850 1.2871
C13B C -0.7925(3) 0.56465(14) 1.3705(2)
H6B H -0.8618 0.5432 1.4074
C14B C -0.4996(2) 0.66731(13) 1.1876(2)
O5B O -0.42797(19) 0.70987(10) 1.23595(15)
O6B O -0.49872(18) 0.65755(10) 1.08873(14)
N2B N -0.5175(2) 0.52359(12) 1.18807(19)
O7B O -0.40191(18) 0.54057(10) 1.19537(16)
O8B O -0.5552(2) 0.47442(12) 1.13995(19)
O9B O -0.3053(2) 0.73162(12) 0.90505(16)
H15B H -0.2867 0.6992 0.8600
H16B H -0.3400 0.7585 0.8596
Cd1_2 Cd 1.301330(18) 0.262980(9) 0.909599(15)
Cd1B_2 Cd -1.301330(18) 0.737020(9) 1.090401(15)
Cd1B_3 Cd 0.698670(18) -0.262980(9) 1.090401(15)
O1_2 O 0.11011(18) 0.21696(10) 0.85243(16)
O1B_2 O -0.11011(18) 0.78304(10) 1.14757(16)
N4B_2 N -0.3947(2) 0.83728(11) 1.05199(17)
loop_
_geom_bond_atom_site_label_1
_geom_bond_atom_site_label_2
_geom_bond_site_symmetry_1
_geom_bond_site_symmetry_2
Cd1 O5 1_555 1_555
C1 C2 1_555 1_555
C2 H1 1_555 1_555
C3 C2 1_555 1_555
H2 C3 1_555 1_555
C4 C3 1_555 1_555
C5 C4 1_555 1_555
C6 C1 1_555 1_555
H3 C6 1_555 1_555
C7 C5 1_555 1_555
O1 C7 1_555 1_555
O2 C7 1_555 1_555
N1 C4 1_555 1_555
O3 N1 1_555 1_555
O4 N1 1_555 1_555
S1 C1 1_555 1_555
S2 S1 1_555 1_555
C8 S2 1_555 1_555
C9 C8 1_555 1_555
H4 C9 1_555 1_555
C10 C9 1_555 1_555
C11 C10 1_555 1_555
C12 C11 1_555 1_555
H5 C12 1_555 1_555
C13 C8 1_555 1_555
H6 C13 1_555 1_555
C14 C10 1_555 1_555
O5 C14 1_555 1_555
O6 Cd1 1_555 1_555
N2 C11 1_555 1_555
O7 N2 1_555 1_555
O8 N2 1_555 1_555
N3 Cd1 1_555 1_555
C15 N3 1_555 1_555
H7 C15 1_555 1_555
C16 C15 1_555 1_555
H8 C16 1_555 1_555
C17 C16 1_555 1_555
C18 C17 1_555 1_555
H9 C18 1_555 1_555
C19 N3 1_555 1_555
H10 C19 1_555 1_555
N4 Cd1 1_555 1_555
C20 N4 1_555 1_555
H11 C20 1_555 1_555
C21 C20 1_555 1_555
H12 C21 1_555 1_555
C22 C21 1_555 1_555
C23 C22 1_555 1_555
H13 C23 1_555 1_555
C24 N4 1_555 1_555
H14 C24 1_555 1_555
O9 Cd1 1_555 1_555
H15 O9 1_555 1_555
H16 O9 1_555 1_555
N3B C15B 1_555 1_555
C15B H7B 1_555 1_555
C16B C15B 1_555 1_555
H8B C16B 1_555 1_555
C17B C17 1_555 1_555
C18B C17B 1_555 1_555
H9B C18B 1_555 1_555
C19B N3B 1_555 1_555
H10B C19B 1_555 1_555
N4B C20B 1_555 1_555
C20B H11B 1_555 1_555
C21B C20B 1_555 1_555
H12B C21B 1_555 1_555
C22B C22 1_555 1_555
C23B C22B 1_555 1_555
H13B C23B 1_555 1_555
C24B N4B 1_555 1_555
H14B C24B 1_555 1_555
Cd1B N3B 1_555 1_555
C1B C2B 1_555 1_555
C2B H1B 1_555 1_555
C3B C2B 1_555 1_555
H2B C3B 1_555 1_555
C4B C3B 1_555 1_555
C5B C4B 1_555 1_555
C6B C1B 1_555 1_555
H3B C6B 1_555 1_555
C7B C5B 1_555 1_555
O1B C7B 1_555 1_555
O2B C7B 1_555 1_555
N1B C4B 1_555 1_555
O3B N1B 1_555 1_555
O4B N1B 1_555 1_555
S1B C1B 1_555 1_555
S2B S1B 1_555 1_555
C8B S2B 1_555 1_555
C9B C8B 1_555 1_555
H4B C9B 1_555 1_555
C10B C9B 1_555 1_555
C11B C10B 1_555 1_555
C12B C11B 1_555 1_555
H5B C12B 1_555 1_555
C13B C8B 1_555 1_555
H6B C13B 1_555 1_555
C14B C10B 1_555 1_555
O5B Cd1B 1_555 1_555
O6B Cd1B 1_555 1_555
N2B C11B 1_555 1_555
O7B N2B 1_555 1_555
O8B N2B 1_555 1_555
O9B Cd1B 1_555 1_555
H15B O9B 1_555 1_555
H16B O9B 1_555 1_555
Cd1_2 O1 1_555 1_555
Cd1B_2 O1B 1_555 1_555
Cd1B_3 N4B 1_555 1_555
O1_2 Cd1 1_555 1_555
O1B_2 Cd1B 1_555 1_555
N4B_2 Cd1B 1_555 1_555
C5 C6 1_555 1_555
C12 C13 1_555 1_555
C14 O6 1_555 1_555
C18 C19 1_555 1_555
C23 C24 1_555 1_555
C16B C17B 1_555 1_555
C18B C19B 1_555 1_555
C21B C22B 1_555 1_555
C23B C24B 1_555 1_555
C5B C6B 1_555 1_555
C12B C13B 1_555 1_555
C14B O5B 1_555 1_555
C14B O6B 1_555 1_555

#END
