
#######################################################################
#
#                 Cambridge Crystallographic Data Centre
#                                CCDC 
#
#######################################################################
#
# If this CIF has been generated from an entry in the Cambridge 
# Structural Database, then it will include bibliographic, chemical, 
# crystal, experimental, refinement or atomic coordinate data resulting 
# from the CCDC's data processing and validation procedures.
#
#######################################################################

data_GOYLAH
_symmetry_cell_setting           monoclinic
_symmetry_space_group_name_H-M   'C 2/c'
_symmetry_Int_Tables_number      15
_space_group_name_Hall           '-C 2yn'
loop_
_symmetry_equiv_pos_site_id
_symmetry_equiv_pos_as_xyz
1 x,y,z
2 1/2+x,1/2+y,z
3 x,-y,1/2+z
4 1/2+x,1/2-y,1/2+z
5 -x,-y,-z
6 1/2-x,1/2-y,-z
7 -x,y,1/2-z
8 1/2-x,1/2+y,1/2-z
_cell_length_a                   27.173(3)
_cell_length_b                   15.280(2)
_cell_length_c                   17.026(2)
_cell_angle_alpha                90
_cell_angle_beta                 107.06
_cell_angle_gamma                90
_cell_volume                     6758.19
loop_
_atom_site_label
_atom_site_type_symbol
_atom_site_fract_x
_atom_site_fract_y
_atom_site_fract_z
Co1 Co 0.61491(3) 0.24936(5) 0.10012(4)
C1 C 0.6526(2) -0.1564(4) -0.2319(3)
H1 H 0.6751(2) -0.2038(4) -0.2206(3)
C2 C 0.6206(2) 0.0289(3) 0.3168(3)
C3 C 0.5724(2) 0.4678(4) -0.0790(4)
H2 H 0.5459(2) 0.5087(4) -0.0928(4)
C4 C 0.6094(2) 0.4668(3) -0.1213(3)
C5 C 0.6477(2) 0.5960(4) 0.4035(4)
H3 H 0.6735(2) 0.6003(4) 0.3778(4)
C6 C 0.6078(2) 0.5293(3) -0.1885(3)
C7 C 0.6198(2) -0.0333(3) 0.3836(3)
C8 C 0.6551(3) -0.0937(4) 0.5185(4)
H4 H 0.6809(3) -0.0922(4) 0.5685(4)
C9 C 0.6579(3) -0.0356(4) 0.4573(4)
H5 H 0.6859(3) -0.0021(4) -0.0338(4)
C10 C 0.5750(2) 0.4083(3) -0.0167(4)
H6 H 0.5498(2) 0.4105(3) 0.0103(4)
C11 C 0.5800(3) 0.1489(4) -0.0629(4)
H7 H 0.5527(3) 0.1877(4) -0.0705(4)
C12 C 0.5795(2) 0.6627(3) -0.2615(4)
H8 H 0.5586(2) 0.7121(3) -0.2684(4)
C13 C 0.6471(3) 0.6521(4) 0.4669(4)
H9 H 0.6734(3) 0.6932(4) 0.4830(4)
C14 C 0.5890(3) 0.0201(4) 0.2376(4)
H10 H 0.5668(3) -0.0275(4) 0.2240(4)
C15 C 0.5781(2) 0.6030(4) -0.2011(4)
H11 H 0.5566(2) 0.3867(4) 0.3316(4)
C16 C 0.6540(2) -0.0991(4) -0.1699(4)
H12 H 0.6776(2) -0.1073(4) -0.1184(4)
C17 C 0.5898(3) 0.0805(4) 0.1783(3)
H13 H 0.5672(3) 0.0728(4) 0.1259(3)
C18 C 0.4950(3) 0.2621(4) 0.0632(4)
O1 O 0.4832(2) 0.3395(3) 0.0644(4)
C19 C 0.6378(3) 0.4208(3) 0.2007(4)
H14 H 0.6585(3) 0.4303(3) 0.1667(4)
C20 C 0.6380(3) 0.4827(4) 0.2597(4)
H15 H 0.6585(3) 0.5324(4) 0.2646(4)
C21 C 0.7373(3) 0.2399(5) 0.1599(4)
O2 O 0.7521(2) 0.1613(4) 0.1758(4)
C22 C 0.5797(2) 0.0929(4) -0.1255(4)
H16 H 0.5528(2) 0.0944(4) -0.1741(4)
O3 O 0.6936(2) 0.2688(3) 0.1389(2)
O4 O 0.5361(2) 0.2284(2) 0.0634(2)
N1 N 0.6094(2) 0.6522(3) -0.3103(3)
N2 N 0.6173(2) -0.1513(3) 0.5086(3)
N3 N 0.6206(2) 0.1484(3) 0.1917(3)
N4 N 0.6116(2) 0.3484(3) 0.0066(3)
C23 C 0.4532(5) 0.1975(9) 0.0585(12)
C24 C 0.7791(5) 0.3040(8) 0.1692(14)
F1 F 0.4082(3) 0.2255(5) 0.0501(8)
F2 F 0.4617(4) 0.1718(7) 0.1429(8)
F3 F 0.4549(3) 0.1250(6) 0.0277(8)
F4 F 0.7834(7) 0.3069(8) 0.0870(11)
F5 F 0.8240(3) 0.2835(7) 0.1975(10)
F6 F 0.7703(3) 0.3821(4) 0.1802(6)
Co1B Co 0.61491(3) 0.75064(5) -0.39988(4)
N1B N 0.6094(2) 0.3478(3) 0.1897(3)
C12B C 0.5795(2) 0.3373(3) 0.2385(4)
H8B H 0.5586(2) 0.2879(3) 0.2316(4)
C15B C 0.5781(2) 0.3970(4) 0.2989(4)
C6B C 0.6078(2) 0.4707(3) 0.3115(3)
C4B C 0.6094(2) 0.5332(3) 0.3787(3)
C3B C 0.5724(2) 0.5322(4) 0.4210(4)
H2B H 0.5459(2) 0.4913(4) 0.4072(4)
C10B C 0.5750(2) 0.5917(3) 0.4833(4)
N4B N 0.6116(2) 0.6516(3) 0.5066(3)
Co1B_2 Co 0.61491(3) 0.75064(5) 0.60012(4)
O3B O 0.6936(2) 0.7312(3) 0.6389(2)
C21B C 0.7373(3) 0.7601(5) 0.6599(4)
O2B O 0.7521(2) 0.8387(4) 0.6758(4)
C24B C 0.7791(5) 0.6960(8) 0.6692(14)
F4B F 0.7834(7) 0.6931(8) 0.5870(11)
F5B F 0.8240(3) 0.7165(7) 0.6975(10)
F6B F 0.7703(3) 0.6179(4) 0.6802(6)
O4B O 0.5361(2) 0.7716(2) 0.5634(2)
C18B C 0.4950(3) 0.7379(4) 0.5632(4)
O1B O 0.4832(2) 0.6605(3) 0.5644(4)
C23B C 0.4532(5) 0.8025(9) 0.5585(12)
F1B F 0.4082(3) 0.7745(5) 0.5501(8)
F2B F 0.4617(4) 0.8282(7) 0.6429(8)
F3B F 0.4549(3) 0.8750(6) 0.5277(8)
N1_2 N 0.6094(2) 0.6522(3) 0.6897(3)
Co1B_3 Co 0.61491(3) -0.24936(5) 0.60012(4)
N2B N 0.6173(2) 0.1513(3) 0.0086(3)
C8B C 0.6551(3) 0.0937(4) 0.0185(4)
H4B H 0.6809(3) 0.0922(4) 0.0685(4)
C9B C 0.6579(3) 0.0356(4) -0.0427(4)
C7B C 0.6198(2) 0.0333(3) -0.1164(3)
C2B C 0.6206(2) -0.0289(3) -0.1832(3)
C14B C 0.5890(3) -0.0201(4) -0.2624(4)
H10B H 0.5668(3) 0.0275(4) -0.2760(4)
C17B C 0.5898(3) -0.0805(4) -0.3217(3)
N3B N 0.6206(2) -0.1484(3) -0.3083(3)
C1B C 0.6526(2) 0.1564(4) 0.2681(3)
C16B C 0.6540(2) 0.0991(4) 0.3301(4)
H12B H 0.6776(2) 0.1073(4) 0.3816(4)
C22B C 0.5797(2) -0.0929(4) 0.3745(4)
C11B C 0.5800(3) -0.1489(4) 0.4371(4)
H7B H 0.5527(3) -0.1877(4) 0.4295(4)
H16B H 0.5528(2) -0.0944(4) 0.3259(4)
H5B H 0.6859(3) 0.0021(4) 0.4662(4)
N2_2 N 0.6173(2) 0.8487(3) 0.5086(3)
C13B C 0.6471(3) 0.3479(4) -0.0331(4)
C5B C 0.6477(2) 0.4040(4) -0.0965(4)
H3B H 0.6735(2) 0.3997(4) -0.1222(4)
C20B C 0.6380(3) 0.5173(4) -0.2403(4)
C19B C 0.6378(3) 0.5792(3) -0.2993(4)
H14B H 0.6585(3) 0.5697(3) -0.3333(4)
H15B H 0.6585(3) 0.4676(4) -0.2354(4)
H11B H 0.5566(2) 0.6133(4) -0.1684(4)
H6B H 0.5498(2) 0.5895(3) 0.5103(4)
N3B_2 N 0.6206(2) 0.8516(3) 0.6917(3)
H13B H 0.5672(3) -0.0728(4) -0.3741(3)
Co1B_4 Co 0.61491(3) -0.24936(5) -0.39988(4)
H1B H 0.6751(2) 0.2038(4) 0.2794(3)
H9B H 0.6734(3) 0.3068(4) -0.0170(4)
C25 C 0.1931(8) 0.0873(14) -0.9110(12)
H17 H 0.1614(8) 0.1016(14) -0.8998(12)
H18 H 0.2215(8) 0.1073(14) -0.8666(12)
H19 H 0.1953(8) 0.0251(14) -0.9166(12)
O5 O 0.2356(5) 0.1130(8) -1.0044(9)
C26 C 0.2283(8) 0.1505(14) -1.0754(14)
H20 H 0.1957(8) 0.1315(14) -1.1125(14)
H21 H 0.2269(8) 0.2135(14) -1.0691(14)
C27 C 0.2611(8) 0.1328(15) -1.1025(14)
H22 H 0.2554(8) 0.1609(15) -1.1548(14)
H23 H 0.2621(8) 0.0705(15) -1.1092(14)
H24 H 0.2933(8) 0.1523(15) -1.0659(14)
C28 C 0.1943(8) 0.1267(14) -0.9814(15)
H25 H 0.1647(8) 0.1072(14) -1.0252(15)
H26 H 0.1907(8) 0.1893(14) -0.9753(15)
C29 C 0.0577(10) 0.2249(26) -0.7967(28)
H27 H 0.0642(10) 0.1834(26) -0.8348(28)
H28 H 0.0875(10) 0.2291(26) -0.7495(28)
H29 H 0.0505(10) 0.2811(26) -0.8226(28)
C30 C 0.0233(13) 0.2023(29) -0.7766(38)
H30 H 0.0355(13) 0.1567(29) -0.7359(38)
H31 H -0.0006(13) 0.1748(29) -0.8239(38)
O6 O 0.0000 0.2505(12) -0.7500
C30F C -0.0233(13) 0.2023(29) -0.7234(38)
C29F C -0.0577(10) 0.2249(26) -0.7033(28)
H27F H -0.0642(10) 0.1834(26) -0.6652(28)
H28F H -0.0875(10) 0.2291(26) -0.7505(28)
H29F H -0.0505(10) 0.2811(26) -0.6774(28)
H30F H -0.0355(13) 0.1567(29) -0.7641(38)
H31F H 0.0006(13) 0.1748(29) -0.6761(38)
loop_
_geom_bond_atom_site_label_1
_geom_bond_atom_site_label_2
_geom_bond_site_symmetry_1
_geom_bond_site_symmetry_2
Co1 O3 1_555 1_555
C1 H1 1_555 1_555
C2 C7 1_555 1_555
C3 H2 1_555 1_555
C4 C3 1_555 1_555
C5 H3 1_555 1_555
C6 C4 1_555 1_555
C7 C9 1_555 1_555
C8 H4 1_555 1_555
C9 C8 1_555 1_555
H5 C9B 1_555 1_555
C10 C3 1_555 1_555
H6 C10 1_555 1_555
C11 H7 1_555 1_555
C12 H8 1_555 1_555
C13 C5 1_555 1_555
H9 C13 1_555 1_555
C14 C2 1_555 1_555
H10 C14 1_555 1_555
C15 C6 1_555 1_555
H11 C15B 1_555 1_555
C16 C1 1_555 1_555
H12 C16 1_555 1_555
C17 C14 1_555 1_555
H13 C17 1_555 1_555
C18 O1 1_555 1_555
C19 H14 1_555 1_555
C20 C19 1_555 1_555
H15 C20 1_555 1_555
C21 O2 1_555 1_555
C22 C11 1_555 1_555
H16 C22 1_555 1_555
O3 C21 1_555 1_555
O4 Co1 1_555 1_555
N1 C12 1_555 1_555
N2 C8 1_555 1_555
N3 Co1 1_555 1_555
N4 Co1 1_555 1_555
C23 C18 1_555 1_555
C24 C21 1_555 1_555
F1 C23 1_555 1_555
F2 C23 1_555 1_555
F3 C23 1_555 1_555
F4 C24 1_555 1_555
F5 C24 1_555 1_555
F6 C24 1_555 1_555
C25 H17 1_555 1_555
H18 C25 1_555 1_555
H19 C25 1_555 1_555
O5 C26 1_555 1_555
C26 H20 1_555 1_555
H21 C26 1_555 1_555
C27 C26 1_555 1_555
H22 C27 1_555 1_555
H23 C27 1_555 1_555
H24 C27 1_555 1_555
C28 C25 1_555 1_555
H25 C28 1_555 1_555
H26 C28 1_555 1_555
C29 H27 1_555 1_555
H28 C29 1_555 1_555
H29 C29 1_555 1_555
C30 C29 1_555 1_555
H30 C30 1_555 1_555
H31 C30 1_555 1_555
O6 C30 1_555 1_555
Co1B N1 1_555 1_555
N1B Co1 1_555 1_555
C12B N1B 1_555 1_555
H8B C12B 1_555 1_555
C15B C12B 1_555 1_555
C6B C20 1_555 1_555
C4B C5 1_555 1_555
C3B C4B 1_555 1_555
H2B C3B 1_555 1_555
C10B C3B 1_555 1_555
N4B C13 1_555 1_555
Co1B_2 N4B 1_555 1_555
O3B Co1B_2 1_555 1_555
C21B O3B 1_555 1_555
O2B C21B 1_555 1_555
C24B C21B 1_555 1_555
F4B C24B 1_555 1_555
F5B C24B 1_555 1_555
F6B C24B 1_555 1_555
O4B Co1B_2 1_555 1_555
C18B O4B 1_555 1_555
O1B C18B 1_555 1_555
C23B C18B 1_555 1_555
F1B C23B 1_555 1_555
F2B C23B 1_555 1_555
F3B C23B 1_555 1_555
N1_2 Co1B_2 1_555 1_555
Co1B_3 N2 1_555 1_555
N2B Co1 1_555 1_555
C8B N2B 1_555 1_555
H4B C8B 1_555 1_555
C9B C8B 1_555 1_555
C7B C22 1_555 1_555
C2B C16 1_555 1_555
C14B C2B 1_555 1_555
H10B C14B 1_555 1_555
C17B C14B 1_555 1_555
N3B C1 1_555 1_555
C1B N3 1_555 1_555
C16B C2 1_555 1_555
H12B C16B 1_555 1_555
C22B C7 1_555 1_555
C11B N2 1_555 1_555
H7B C11B 1_555 1_555
H16B C22B 1_555 1_555
H5B C9 1_555 1_555
N2_2 Co1B_2 1_555 1_555
C13B N4 1_555 1_555
C5B C4 1_555 1_555
H3B C5B 1_555 1_555
C20B C6 1_555 1_555
C19B N1 1_555 1_555
H14B C19B 1_555 1_555
H15B C20B 1_555 1_555
H11B C15 1_555 1_555
C30F O6 1_555 1_555
C29F C30F 1_555 1_555
H27F C29F 1_555 1_555
H28F C29F 1_555 1_555
H29F C29F 1_555 1_555
H30F C30F 1_555 1_555
H31F C30F 1_555 1_555
H6B C10B 1_555 1_555
N3B_2 Co1B_2 1_555 1_555
H13B C17B 1_555 1_555
Co1B_4 N3B 1_555 1_555
H1B C1B 1_555 1_555
H9B C13B 1_555 1_555
C10 N4 1_555 1_555
C11 N2B 1_555 1_555
C12 C15 1_555 1_555
C17 N3 1_555 1_555
C18 O4 1_555 1_555
C19 N1B 1_555 1_555
O5 C28 1_555 1_555
C15B C6B 1_555 1_555
C6B C4B 1_555 1_555
C10B N4B 1_555 1_555
C9B C7B 1_555 1_555
C7B C2B 1_555 1_555
C17B N3B 1_555 1_555
C1B C16B 1_555 1_555
C22B C11B 1_555 1_555
C13B C5B 1_555 1_555
C20B C19B 1_555 1_555

#END
