
#######################################################################
#
#                 Cambridge Crystallographic Data Centre
#                                CCDC 
#
#######################################################################
#
# If this CIF has been generated from an entry in the Cambridge 
# Structural Database, then it will include bibliographic, chemical, 
# crystal, experimental, refinement or atomic coordinate data resulting 
# from the CCDC's data processing and validation procedures.
#
#######################################################################

data_GOYPOB
_symmetry_cell_setting           monoclinic
_symmetry_space_group_name_H-M   'C 2/c'
_symmetry_Int_Tables_number      15
_space_group_name_Hall           '-C 2yn'
loop_
_symmetry_equiv_pos_site_id
_symmetry_equiv_pos_as_xyz
1 x,y,z
2 -x,y,1/2-z
3 1/2+x,1/2+y,z
4 1/2-x,1/2+y,1/2-z
5 -x,-y,-z
6 x,-y,1/2+z
7 1/2-x,1/2-y,-z
8 1/2+x,1/2-y,1/2+z
_cell_length_a                   28.057(3)
_cell_length_b                   7.6881(8)
_cell_length_c                   13.0578(10)
_cell_angle_alpha                90
_cell_angle_beta                 109.292(4)
_cell_angle_gamma                90
_cell_volume                     2658.47
loop_
_atom_site_label
_atom_site_type_symbol
_atom_site_fract_x
_atom_site_fract_y
_atom_site_fract_z
C1 C 0.43563(13) -0.0540(5) 0.0302(3)
H1 H 0.4418 -0.1588 0.0768
H2 H 0.4541 -0.0672 -0.0222
C2 C 0.37967(13) -0.0323(5) -0.0295(3)
H3 H 0.3741 0.0549 -0.0881
H4 H 0.3648 -0.1442 -0.0624
C3 C 0.30760(13) 0.0098(5) 0.0246(3)
H5 H 0.2903 -0.0480 -0.0416
C4 C 0.27754(13) 0.0705(5) 0.0871(3)
C5 C 0.29994(15) 0.1631(4) 0.1847(3)
C6 C 0.26775(14) 0.2341(5) 0.2391(3)
H6 H 0.2825 0.2998 0.3035
C7 C 0.21694(14) 0.2110(5) 0.2022(3)
H7 H 0.1970 0.2611 0.2409
C8 C 0.19311(15) 0.1129(5) 0.1066(3)
C9 C 0.14044(14) 0.0817(5) 0.0713(3)
H8 H 0.1210 0.1265 0.1127
C10 C 0.11691(15) -0.0110(5) -0.0204(3)
H9 H 0.0815 -0.0298 -0.0432
C11 C 0.14591(14) -0.0785(5) -0.0809(3)
H10 H 0.1299 -0.1423 -0.1455
C12 C 0.19777(14) -0.0523(5) -0.0466(3)
H11 H 0.2167 -0.1006 -0.0880
C13 C 0.22331(13) 0.0436(5) 0.0479(3)
C14 C 0.45697(13) 0.4568(5) 0.3133(3)
C15 C 0.45636(13) 0.7526(5) 0.3185(3)
N1 N 0.45314(12) 0.1045(4) 0.0976(3)
H12 H 0.4546 0.2052 0.0514
H13 H 0.4871 0.0858 0.1513
N2 N 0.35568(11) 0.0259(4) 0.0494(2)
N3 N 0.47478(14) 0.6025(5) 0.3607(3)
N4 N 0.44476(12) 0.3208(4) 0.2780(3)
N5 N 0.44261(13) 0.8914(4) 0.2895(3)
O1 O 0.34809(10) 0.1928(4) 0.2289(2)
Cu1 Cu 0.40132(2) 0.14667(6) 0.17374(3)
N5_2 N 0.44261(13) -0.1086(4) 0.2895(3)
Cu1_2 Cu 0.40132(2) 1.14667(6) 0.17374(3)
loop_
_geom_bond_atom_site_label_1
_geom_bond_atom_site_label_2
_geom_bond_site_symmetry_1
_geom_bond_site_symmetry_2
C1 H1 1_555 1_555
H2 C1 1_555 1_555
C2 C1 1_555 1_555
H3 C2 1_555 1_555
H4 C2 1_555 1_555
C3 H5 1_555 1_555
C4 C3 1_555 1_555
C5 C4 1_555 1_555
C6 C5 1_555 1_555
H6 C6 1_555 1_555
C7 C6 1_555 1_555
H7 C7 1_555 1_555
C8 C7 1_555 1_555
C9 C8 1_555 1_555
H8 C9 1_555 1_555
C10 C9 1_555 1_555
H9 C10 1_555 1_555
C11 C10 1_555 1_555
H10 C11 1_555 1_555
C12 C11 1_555 1_555
H11 C12 1_555 1_555
C13 C4 1_555 1_555
C14 N3 1_555 1_555
C15 N3 1_555 1_555
N1 C1 1_555 1_555
H12 N1 1_555 1_555
H13 N1 1_555 1_555
N2 C2 1_555 1_555
N4 C14 1_555 1_555
N5 C15 1_555 1_555
O1 C5 1_555 1_555
Cu1 N1 1_555 1_555
N5_2 Cu1 1_555 1_555
Cu1_2 N5 1_555 1_555
C3 N2 1_555 1_555
C8 C13 1_555 1_555
C12 C13 1_555 1_555
N2 Cu1 1_555 1_555
N4 Cu1 1_555 1_555
O1 Cu1 1_555 1_555

#END
